# Generated by pormake.
# Topology zzz, (3,6)-cn, num edge types: 1
# Building blocks:
#     Node 0, Type 0, BuildingBlock: KAKCAD_clean_linker_0, # of connection points: 3
#     Node 1, Type 0, BuildingBlock: KAKCAD_clean_linker_0, # of connection points: 3
#     Node 2, Type 0, BuildingBlock: KAKCAD_clean_linker_0, # of connection points: 3
#     Node 3, Type 0, BuildingBlock: KAKCAD_clean_linker_0, # of connection points: 3
#     Node 4, Type 0, BuildingBlock: KAKCAD_clean_linker_0, # of connection points: 3
#     Node 5, Type 0, BuildingBlock: KAKCAD_clean_linker_0, # of connection points: 3
#     Node 6, Type 0, BuildingBlock: KAKCAD_clean_linker_0, # of connection points: 3
#     Node 7, Type 0, BuildingBlock: KAKCAD_clean_linker_0, # of connection points: 3
#     Node 8, Type 1, BuildingBlock: KUMBUR_clean_sbu_1, # of connection points: 6
#     Node 9, Type 1, BuildingBlock: KUMBUR_clean_sbu_1, # of connection points: 6
#     Node 10, Type 1, BuildingBlock: KUMBUR_clean_sbu_1, # of connection points: 6
#     Node 11, Type 1, BuildingBlock: KUMBUR_clean_sbu_1, # of connection points: 6
#     Edge 12, Type (0, 1), BuildingBlock: XIVTED_clean_linker_0, # of connection points: 2
#     Edge 13, Type (0, 1), BuildingBlock: XIVTED_clean_linker_0, # of connection points: 2
#     Edge 14, Type (0, 1), BuildingBlock: XIVTED_clean_linker_0, # of connection points: 2
#     Edge 15, Type (0, 1), BuildingBlock: XIVTED_clean_linker_0, # of connection points: 2
#     Edge 16, Type (0, 1), BuildingBlock: XIVTED_clean_linker_0, # of connection points: 2
#     Edge 17, Type (0, 1), BuildingBlock: XIVTED_clean_linker_0, # of connection points: 2
#     Edge 18, Type (0, 1), BuildingBlock: XIVTED_clean_linker_0, # of connection points: 2
#     Edge 19, Type (0, 1), BuildingBlock: XIVTED_clean_linker_0, # of connection points: 2
#     Edge 20, Type (0, 1), BuildingBlock: XIVTED_clean_linker_0, # of connection points: 2
#     Edge 21, Type (0, 1), BuildingBlock: XIVTED_clean_linker_0, # of connection points: 2
#     Edge 22, Type (0, 1), BuildingBlock: XIVTED_clean_linker_0, # of connection points: 2
#     Edge 23, Type (0, 1), BuildingBlock: XIVTED_clean_linker_0, # of connection points: 2
#     Edge 24, Type (0, 1), BuildingBlock: XIVTED_clean_linker_0, # of connection points: 2
#     Edge 25, Type (0, 1), BuildingBlock: XIVTED_clean_linker_0, # of connection points: 2
#     Edge 26, Type (0, 1), BuildingBlock: XIVTED_clean_linker_0, # of connection points: 2
#     Edge 27, Type (0, 1), BuildingBlock: XIVTED_clean_linker_0, # of connection points: 2
#     Edge 28, Type (0, 1), BuildingBlock: XIVTED_clean_linker_0, # of connection points: 2
#     Edge 29, Type (0, 1), BuildingBlock: XIVTED_clean_linker_0, # of connection points: 2
#     Edge 30, Type (0, 1), BuildingBlock: XIVTED_clean_linker_0, # of connection points: 2
#     Edge 31, Type (0, 1), BuildingBlock: XIVTED_clean_linker_0, # of connection points: 2
#     Edge 32, Type (0, 1), BuildingBlock: XIVTED_clean_linker_0, # of connection points: 2
#     Edge 33, Type (0, 1), BuildingBlock: XIVTED_clean_linker_0, # of connection points: 2
#     Edge 34, Type (0, 1), BuildingBlock: XIVTED_clean_linker_0, # of connection points: 2
#     Edge 35, Type (0, 1), BuildingBlock: XIVTED_clean_linker_0, # of connection points: 2
# Relax obj value: 0.311
# Max RMSD: 0.208
# Mean RMSD: 0.181
data_MOF--net-zzz--node1-KUMBUR_clean_sbu_1--node2-KAKCAD_clean_linker_0--edge1-XIVTED_clean_linker_0
_symmetry_space_group_name_H-M    P1
_symmetry_Int_Tables_number       1
_symmetry_cell_setting            triclinic
loop_
_symmetry_equiv_pos_as_xyz
'x, y, z'
_cell_length_a     56.603619
_cell_length_b     56.706207
_cell_length_c     20.928663
_cell_angle_alpha  89.926737
_cell_angle_beta   89.820319
_cell_angle_gamma 90.495016
loop_
_atom_site_label
_atom_site_type_symbol
_atom_site_fract_x
_atom_site_fract_y
_atom_site_fract_z
_atom_type_partial_charge
C0 C 0.79918 0.60951 0.96916 0.0
C1 C 0.82207 0.6003 0.96414 0.0
C2 C 0.78601 0.6063 0.02521 0.0
C3 C 0.79537 0.59346 0.07679 0.0
C4 C 0.81913 0.58651 0.07388 0.0
C5 C 0.83236 0.59002 0.01835 0.0
C6 C 0.77968 0.58382 0.12799 0.0
C7 C 0.75723 0.57501 0.11211 0.0
C8 C 0.74383 0.56169 0.15578 0.0
C9 C 0.75315 0.55689 0.21688 0.0
C10 C 0.77555 0.56607 0.23398 0.0
C11 C 0.78829 0.5799 0.18985 0.0
C12 C 0.78773 0.55953 0.29408 0.0
C13 C 0.794 0.57713 0.33813 0.0
C14 C 0.79793 0.53716 0.29996 0.0
C15 C 0.81525 0.53294 0.34635 0.0
C16 C 0.8227 0.551 0.38819 0.0
C17 C 0.72103 0.55178 0.13286 0.0
C18 C 0.6996 0.56251 0.14928 0.0
C19 C 0.72124 0.53527 0.08293 0.0
C20 C 0.70078 0.53052 0.04771 0.0
C21 C 0.67951 0.54224 0.06129 0.0
C22 C 0.67902 0.55775 0.11396 0.0
C23 C 0.81104 0.57285 0.38505 0.0
H24 H 0.79092 0.61778 0.92835 0.0
H25 H 0.76797 0.61249 0.0265 0.0
H26 H 0.827 0.57641 0.1121 0.0
H27 H 0.84986 0.58249 1.01598 0.0
H28 H 0.7505 0.57734 0.06409 0.0
H29 H 0.80565 0.58652 0.20281 0.0
H30 H 0.7434 0.54576 0.25 0.0
H31 H 0.78661 0.59462 0.33403 0.0
H32 H 0.79382 0.52347 0.26557 0.0
H33 H 0.82382 0.51595 0.34646 0.0
H34 H 0.6991 0.57564 0.18678 0.0
H35 H 0.73767 0.52716 0.06846 0.0
H36 H 0.81572 0.58705 0.41726 0.0
H37 H 0.66294 0.56685 0.1266 0.0
H38 H 0.70213 0.51874 1.00724 0.0
C39 C 0.9292 0.79696 0.96191 0.0
C40 C 0.94024 0.81887 0.95184 0.0
C41 C 0.93103 0.78569 0.02113 0.0
C42 C 0.94471 0.79573 0.07054 0.0
C43 C 0.95436 0.81843 0.06126 0.0
C44 C 0.95194 0.82994 1.00279 0.0
C45 C 0.95158 0.78155 0.12754 0.0
C46 C 0.95576 0.75734 0.12102 0.0
C47 C 0.96524 0.74397 0.17106 0.0
C48 C 0.97138 0.75532 0.22885 0.0
C49 C 0.96685 0.77964 0.23658 0.0
C50 C 0.9566 0.79235 0.18633 0.0
C51 C 0.97379 0.79308 0.29448 0.0
C52 C 0.95686 0.79837 0.34132 0.0
C53 C 0.99552 0.80518 0.29532 0.0
C54 C 0.99986 0.823 0.34033 0.0
C55 C 0.98249 0.82925 0.38556 0.0
C56 C 0.96941 0.71851 0.15824 0.0
C57 C 0.95075 0.7047 0.13399 0.0
C58 C 0.9924 0.70948 0.15578 0.0
C59 C 0.99682 0.6879 0.1251 0.0
C60 C 0.97833 0.67496 0.09596 0.0
C61 C 0.95513 0.68331 0.10318 0.0
C62 C 0.96121 0.81611 0.38663 0.0
H63 H 0.92002 0.78816 0.92322 0.0
H64 H 0.92269 0.76857 0.02701 0.0
H65 H 0.96528 0.82674 0.09728 0.0
H66 H 0.9609 0.84672 0.99586 0.0
H67 H 0.95281 0.74884 0.07537 0.0
H68 H 0.95322 0.81098 0.19278 0.0
H69 H 0.97946 0.74541 0.26716 0.0
H70 H 0.93977 0.78963 0.34078 0.0
H71 H 1.00859 0.80188 0.25854 0.0
H72 H 0.01632 0.83279 0.33699 0.0
H73 H 0.93286 0.71133 0.13474 0.0
H74 H 1.00715 0.71986 0.17344 0.0
H75 H 0.94754 0.82002 0.42121 0.0
H76 H 0.94035 0.67423 0.08124 0.0
H77 H 0.01488 0.68187 0.12202 0.0
C78 C 0.71833 0.93495 0.04343 0.0
C79 C 0.69567 0.94308 0.0586 0.0
C80 C 0.73716 0.9389 0.08578 0.0
C81 C 0.73366 0.95174 0.14276 0.0
C82 C 0.71073 0.95972 0.1569 0.0
C83 C 0.69203 0.95511 0.11606 0.0
C84 C 0.75364 0.95867 0.18556 0.0
C85 C 0.77625 0.96375 0.16118 0.0
C86 C 0.79375 0.97437 0.19959 0.0
C87 C 0.78788 0.9813 0.26267 0.0
C88 C 0.76549 0.97535 0.28836 0.0
C89 C 0.74926 0.96302 0.25042 0.0
C90 C 0.75646 0.984 0.35086 0.0
C91 C 0.74751 0.96758 0.39543 0.0
C92 C 0.7495 1.00762 0.35614 0.0
C93 C 0.73209 0.01416 0.40051 0.0
C94 C 0.72126 0.9972 0.44063 0.0
C95 C 0.81757 0.97853 0.17082 0.0
C96 C 0.829 0.95991 0.13932 0.0
C97 C 0.82764 1.00123 0.16723 0.0
C98 C 0.84801 1.00537 0.13001 0.0
C99 C 0.85888 0.98685 0.09621 0.0
C100 C 0.84937 0.96397 0.10279 0.0
C101 C 0.73017 0.9741 0.43988 0.0
H102 H 0.72151 0.92593 0.99867 0.0
H103 H 0.75443 0.93228 0.0732 0.0
H104 H 0.70714 0.97059 0.19818 0.0
H105 H 0.67483 0.96221 0.12777 0.0
H106 H 0.7801 0.96051 0.11125 0.0
H107 H 0.73229 0.95824 0.27099 0.0
H108 H 0.80061 0.99082 0.29156 0.0
H109 H 0.7522 0.94915 0.39162 0.0
H110 H 0.75574 0.02056 0.32175 0.0
H111 H 0.72606 0.03223 0.40056 0.0
H112 H 0.82163 0.94222 0.14116 0.0
H113 H 0.81913 0.01595 0.19056 0.0
H114 H 0.72231 0.96049 0.46962 0.0
H115 H 0.85699 0.94929 0.07718 0.0
H116 H 0.85498 0.02318 0.1267 0.0
C117 C 0.53341 0.72446 0.33548 0.0
C118 C 0.54939 0.71634 0.38208 0.0
C119 C 0.53836 0.74492 0.29966 0.0
C120 C 0.55936 0.75773 0.30962 0.0
C121 C 0.57463 0.75047 0.3585 0.0
C122 C 0.56964 0.7302 0.39457 0.0
C123 C 0.56823 0.77452 0.26026 0.0
C124 C 0.55788 0.7967 0.24839 0.0
C125 C 0.56713 0.8114 0.1995 0.0
C126 C 0.586 0.80339 0.16202 0.0
C127 C 0.59461 0.78044 0.16878 0.0
C128 C 0.5864 0.76663 0.22005 0.0
C129 C 0.60713 0.76893 0.1146 0.0
C130 C 0.59948 0.77345 0.05193 0.0
C131 C 0.62241 0.74987 0.1249 0.0
C132 C 0.62653 0.73354 0.07611 0.0
C133 C 0.6153 0.736 1.01655 0.0
C134 C 0.5557 0.83355 0.17833 0.0
C135 C 0.53451 0.83228 0.14371 0.0
C136 C 0.56905 0.85456 0.17603 0.0
C137 C 0.56226 0.87326 0.13649 0.0
C138 C 0.54212 0.87125 0.09753 0.0
C139 C 0.52783 0.8509 0.10356 0.0
C140 C 0.60359 0.75724 1.00348 0.0
H141 H 0.51774 0.71428 0.32389 0.0
H142 H 0.5266 0.74977 0.26118 0.0
H143 H 0.59112 0.75984 0.36651 0.0
H144 H 0.58212 0.72497 0.43092 0.0
H145 H 0.54285 0.80238 0.27642 0.0
H146 H 0.59259 0.74872 0.22571 0.0
H147 H 0.59245 0.81434 0.12307 0.0
H148 H 0.58776 0.78791 0.04138 0.0
H149 H 0.62938 0.74637 0.17207 0.0
H150 H 0.63652 0.71786 0.08709 0.0
H151 H 0.52417 0.81611 0.14345 0.0
H152 H 0.58574 0.85578 0.2011 0.0
H153 H 0.59477 0.76013 0.95838 0.0
H154 H 0.51204 0.84888 0.07492 0.0
H155 H 0.57378 0.88856 0.1329 0.0
C156 C 0.25054 0.43777 0.30664 0.0
C157 C 0.22895 0.42628 0.29393 0.0
C158 C 0.26661 0.44222 0.25763 0.0
C159 C 0.26158 0.43517 0.19471 0.0
C160 C 0.24192 0.42036 0.18414 0.0
C161 C 0.22574 0.41588 0.23348 0.0
C162 C 0.27361 0.44759 0.14085 0.0
C163 C 0.29717 0.45498 0.14684 0.0
C164 C 0.30642 0.47322 0.10869 0.0
C165 C 0.29223 0.48317 0.06035 0.0
C166 C 0.26916 0.47426 0.04998 0.0
C167 C 0.2601 0.45665 0.09051 0.0
C168 C 0.25279 0.48421 1.00188 0.0
C169 C 0.2385 0.50341 0.01814 0.0
C170 C 0.24719 0.47104 0.94715 0.0
C171 C 0.22712 0.47632 0.91091 0.0
C172 C 0.21187 0.49467 0.92915 0.0
C173 C 0.32962 0.4832 0.12819 0.0
C174 C 0.33032 0.50394 0.16475 0.0
C175 C 0.34968 0.46882 0.12671 0.0
C176 C 0.36939 0.47414 0.16451 0.0
C177 C 0.36938 0.49379 0.20565 0.0
C178 C 0.34997 0.50919 0.20311 0.0
C179 C 0.21831 0.50862 0.98219 0.0
H180 H 0.25391 0.44605 0.35232 0.0
H181 H 0.28151 0.45364 0.2682 0.0
H182 H 0.23795 0.41395 0.1366 0.0
H183 H 0.2097 0.40617 0.22261 0.0
H184 H 0.30783 0.44797 0.1853 0.0
H185 H 0.24171 0.45146 0.08564 0.0
H186 H 0.29892 0.49774 0.03183 0.0
H187 H 0.24205 0.51338 0.06124 0.0
H188 H 0.25765 0.45583 0.93443 0.0
H189 H 0.22314 0.46545 0.86977 0.0
H190 H 0.31485 0.515 0.16807 0.0
H191 H 0.34943 0.45252 0.09972 0.0
H192 H 0.20701 0.52271 0.99846 0.0
H193 H 0.34913 0.5244 0.23421 0.0
H194 H 0.38419 0.46217 0.16372 0.0
C195 C 0.083 0.24704 0.35572 0.0
C196 C 0.09661 0.2267 0.34666 0.0
C197 C 0.07842 0.26215 0.30493 0.0
C198 C 0.0875 0.2575 0.24364 0.0
C199 C 0.10314 0.23854 0.23604 0.0
C200 C 0.1076 0.22323 0.28707 0.0
C201 C 0.07765 0.27021 0.18752 0.0
C202 C 0.07053 0.29371 0.1934 0.0
C203 C 0.05562 0.30406 0.14824 0.0
C204 C 0.0487 0.29103 0.09381 0.0
C205 C 0.05735 0.26795 0.08463 0.0
C206 C 0.07161 0.25778 0.1319 0.0
C207 C 0.05051 0.2529 0.02938 0.0
C208 C 0.02716 0.24472 0.0226 0.0
C209 C 0.06823 0.2429 0.99109 0.0
C210 C 0.06299 0.22435 0.94919 0.0
C211 C 0.03992 0.21506 0.94515 0.0
C212 C 0.04579 0.32741 0.16493 0.0
C213 C 0.02569 0.32831 0.20426 0.0
C214 C 0.05989 0.34775 0.15833 0.0
C215 C 0.05473 0.3682 0.19318 0.0
C216 C 0.03562 0.36863 0.23661 0.0
C217 C 0.02066 0.34863 0.23969 0.0
C218 C 0.02193 0.22592 0.98112 0.0
H219 H 0.07392 0.25021 0.40046 0.0
H220 H 0.06603 0.27628 0.31295 0.0
H221 H 0.1109 0.23476 0.18985 0.0
H222 H 0.11848 0.2079 0.27883 0.0
H223 H 0.07539 0.3037 0.23562 0.0
H224 H 0.07657 0.23944 0.12705 0.0
H225 H 0.03674 0.29869 0.05936 0.0
H226 H 0.01324 0.25183 0.05231 0.0
H227 H 0.08644 0.24864 0.9961 0.0
H228 H 0.07734 0.21637 0.92285 0.0
H229 H 0.01497 0.31262 0.21172 0.0
H230 H 0.0758 0.34731 0.12945 0.0
H231 H 1.00392 0.2194 0.97871 0.0
H232 H 1.00596 0.34794 0.27284 0.0
H233 H 0.06639 0.38332 0.1881 0.0
C234 C 0.28988 0.1251 0.30391 0.0
C235 C 0.31253 0.1322 0.28303 0.0
C236 C 0.27417 0.11411 0.26186 0.0
C237 C 0.28015 0.11122 0.19698 0.0
C238 C 0.30057 0.12284 0.17413 0.0
C239 C 0.3168 0.13275 0.21665 0.0
C240 C 0.2676 0.09329 0.15662 0.0
C241 C 0.24412 0.08656 0.16943 0.0
C242 C 0.23395 0.06646 0.14096 0.0
C243 C 0.24711 0.05362 0.0954 0.0
C244 C 0.27017 0.06112 0.0789 0.0
C245 C 0.28024 0.08049 0.11046 0.0
C246 C 0.28502 0.04925 0.03013 0.0
C247 C 0.30163 0.03238 0.04911 0.0
C248 C 0.2872 0.0594 0.96916 0.0
C249 C 0.30633 0.05383 0.92938 0.0
C250 C 0.32388 0.03806 0.94979 0.0
C251 C 0.21042 0.0585 0.16495 0.0
C252 C 0.20829 0.03757 0.20055 0.0
C253 C 0.19129 0.07412 0.16407 0.0
C254 C 0.17102 0.06961 0.20081 0.0
C255 C 0.16945 0.04953 0.24037 0.0
C256 C 0.18807 0.03316 0.23797 0.0
C257 C 0.32076 0.02671 1.00921 0.0
H258 H 0.28497 0.12591 0.35385 0.0
H259 H 0.25841 0.10616 0.28209 0.0
H260 H 0.30512 0.12259 0.12388 0.0
H261 H 0.33353 0.13866 0.19713 0.0
H262 H 0.23385 0.09629 0.20411 0.0
H263 H 0.29854 0.08479 0.10026 0.0
H264 H 0.23951 0.03809 0.07313 0.0
H265 H 0.30074 0.02484 0.09666 0.0
H266 H 0.27497 0.07288 0.95403 0.0
H267 H 0.3079 0.06265 0.88363 0.0
H268 H 0.22295 0.02546 0.20309 0.0
H269 H 0.19253 0.09045 0.13731 0.0
H270 H 0.33395 0.01464 0.02687 0.0
H271 H 0.18774 0.01757 0.2679 0.0
H272 H 0.15689 0.08235 0.19974 0.0
C273 C 0.47114 0.31447 0.9188 0.0
C274 C 0.49419 0.32395 0.91648 0.0
C275 C 0.4653 0.29645 0.96198 0.0
C276 C 0.48233 0.28734 1.00388 0.0
C277 C 0.5058 0.29532 0.99794 0.0
C278 C 0.51167 0.31345 0.95479 0.0
C279 C 0.47455 0.27466 0.06275 0.0
C280 C 0.48478 0.25332 0.08367 0.0
C281 C 0.47897 0.24412 0.14457 0.0
C282 C 0.46355 0.25671 0.18432 0.0
C283 C 0.45381 0.27818 0.16494 0.0
C284 C 0.45861 0.28639 0.10304 0.0
C285 C 0.44271 0.29389 0.2133 0.0
C286 C 0.42977 0.28451 0.26515 0.0
C287 C 0.44866 0.31802 0.21396 0.0
C288 C 0.44428 0.33168 0.26786 0.0
C289 C 0.43413 0.3215 0.32278 0.0
C290 C 0.48988 0.22256 0.17176 0.0
C291 C 0.48357 0.20001 0.14943 0.0
C292 C 0.50237 0.22444 0.2295 0.0
C293 C 0.50673 0.2045 0.26677 0.0
C294 C 0.49889 0.1821 0.24708 0.0
C295 C 0.48817 0.17988 0.1867 0.0
C296 C 0.42568 0.29815 0.31967 0.0
H297 H 0.45713 0.32208 0.89058 0.0
H298 H 0.44701 0.29081 0.96595 0.0
H299 H 0.51924 0.28887 0.03014 0.0
H300 H 0.5297 0.31996 0.95352 0.0
H301 H 0.49756 0.24439 0.05384 0.0
H302 H 0.45123 0.30303 0.08768 0.0
H303 H 0.46036 0.25028 0.23241 0.0
H304 H 0.42429 0.26617 0.26551 0.0
H305 H 0.45881 0.32599 0.17557 0.0
H306 H 0.45121 0.34954 0.26861 0.0
H307 H 0.47361 0.19811 0.10562 0.0
H308 H 0.50732 0.24162 0.24799 0.0
H309 H 0.41745 0.28996 0.36098 0.0
H310 H 0.48192 0.16283 0.17034 0.0
H311 H 0.51533 0.20675 0.31258 0.0
Tb312 Tb 0.98959 0.03686 0.61354 0.0
C313 C 0.07769 0.04376 0.76497 0.0
N314 N 0.07323 0.02901 0.71529 0.0
C315 C 0.10951 0.0415 0.66517 0.0
C316 C 0.09751 0.05898 0.76505 0.0
C317 C 0.08974 0.02654 0.66793 0.0
C318 C 0.11314 0.05818 0.71324 0.0
C319 C 0.06755 0.05638 0.87212 0.0
C320 C 0.06317 0.04239 0.81786 0.0
C321 C 0.08654 0.0725 0.87131 0.0
C322 C 0.10151 0.07379 0.81783 0.0
Tb323 Tb 0.03895 1.00706 0.72275 0.0
N324 N 0.04478 0.02692 0.81621 0.0
C325 C 0.05291 0.05345 0.92567 0.0
C326 C 0.03117 0.02305 0.86928 0.0
C327 C 0.03485 0.03646 0.92453 0.0
H328 H 0.08807 1.0128 0.63263 0.0
H329 H 0.02371 0.03376 0.96607 0.0
H330 H 0.93974 1.01234 0.66136 0.0
H331 H 0.02305 0.05107 0.37346 0.0
H332 H 0.01716 1.01002 0.86833 0.0
H333 H 0.05567 0.06386 0.9684 0.0
H334 H 0.01742 0.06082 0.48714 0.0
H335 H 0.12214 0.03987 0.62652 0.0
H336 H 0.09011 0.08363 0.91225 0.0
H337 H 0.11649 0.08582 0.81849 0.0
H338 H 0.90954 0.9849 0.61761 0.0
H339 H 0.1286 0.06957 0.71137 0.0
H340 H 1.00031 0.01821 0.32501 0.0
N341 N 0.96087 1.01189 0.57725 0.0
C342 C 0.96262 1.00499 0.51545 0.0
C343 C 0.92451 0.99025 0.58856 0.0
C344 C 0.94599 0.98933 0.48845 0.0
C345 C 0.94159 1.00571 0.61323 0.0
C346 C 0.92694 0.98167 0.52624 0.0
N347 N 0.99432 0.03169 0.5055 0.0
C348 C 1.00843 0.04559 0.46764 0.0
C349 C 0.98203 1.00942 0.41302 0.0
C350 C 0.98031 0.01492 0.47852 0.0
C351 C 0.99839 0.02191 0.37553 0.0
C352 C 1.01126 0.04045 0.40271 0.0
H353 H 0.91372 0.96969 0.50726 0.0
H354 H 0.93614 0.97027 0.40273 0.0
H355 H 0.96778 0.98785 0.33654 0.0
O356 O 0.97065 0.06188 0.56052 0.0
O357 O 0.98878 0.99809 0.62752 0.0
O358 O 0.02792 0.98916 0.63522 0.0
O359 O 0.96727 0.06022 0.66245 0.0
O360 O 0.02705 0.04405 0.58915 0.0
O361 O 0.04626 1.01024 0.61931 0.0
O362 O 0.03387 0.97598 0.77551 0.0
O363 O 0.02216 0.04061 0.74889 0.0
O364 O 0.01838 0.05846 0.65252 0.0
O365 O 0.06844 0.98581 0.74282 0.0
O366 O 1.00233 0.99902 0.75296 0.0
O367 O 0.97896 0.02923 0.71249 0.0
C368 C 1.00624 0.9832 0.61998 0.0
C369 C 0.96771 0.09765 0.61626 0.0
C370 C 0.99495 0.13088 0.60213 0.0
C371 C 0.97783 0.14584 0.62889 0.0
C372 C 0.95092 0.11276 0.64281 0.0
C373 C 0.95604 0.13677 0.64929 0.0
C374 C 0.98976 0.10668 0.59695 0.0
C375 C 0.04396 0.02852 0.5809 0.0
C376 C 0.96271 0.0723 0.61137 0.0
C377 C 0.94851 0.98257 0.42425 0.0
C378 C 0.96656 0.99255 0.3866 0.0
C379 C 0.02221 0.05981 0.71406 0.0
C380 C 0.05684 0.94581 0.73039 0.0
C381 C 0.03709 0.90972 0.69379 0.0
C382 C 0.05674 0.90463 0.65528 0.0
C383 C 0.07638 0.94039 0.69163 0.0
C384 C 0.03756 0.93008 0.732 0.0
C385 C 0.0763 0.91987 0.65455 0.0
C386 C 0.98309 1.01214 0.75389 0.0
C387 C 0.05518 0.96871 0.76416 0.0
H388 H 0.98099 0.16464 0.6327 0.0
H389 H 0.93394 0.10597 0.65872 0.0
H390 H 0.94298 0.14843 0.66961 0.0
H391 H 1.00289 0.09475 0.57806 0.0
H392 H 0.0569 0.88905 0.62543 0.0
H393 H 0.09151 0.95218 0.68903 0.0
H394 H 0.0227 0.9338 0.76308 0.0
H395 H 0.09135 0.91592 0.62449 0.0
Tb396 Tb 0.52822 0.04986 0.71796 0.0
C397 C 0.52981 0.95362 0.54072 0.0
N398 N 0.52911 0.9771 0.5298 0.0
C399 C 0.55611 0.97271 0.44197 0.0
C400 C 0.54424 0.93866 0.5041 0.0
C401 C 0.54119 0.98669 0.4793 0.0
C402 C 0.55792 0.94861 0.45503 0.0
C403 C 0.51289 0.91999 0.59563 0.0
C404 C 0.51449 0.9445 0.5853 0.0
C405 C 0.52809 0.90492 0.56198 0.0
C406 C 0.54377 0.91425 0.51618 0.0
Tb407 Tb 0.50617 0.99903 0.59732 0.0
N408 N 0.49986 0.95968 0.61513 0.0
C409 C 0.49551 0.91144 0.63761 0.0
C410 C 0.48196 0.95138 0.65316 0.0
C411 C 0.47975 0.92721 0.66583 0.0
H412 H 0.5396 1.00523 0.46825 0.0
H413 H 0.46589 0.92076 0.69717 0.0
H414 H 0.49222 0.09494 0.70958 0.0
H415 H 0.62416 0.05476 0.71561 0.0
H416 H 0.46969 0.96347 0.67485 0.0
H417 H 0.49367 0.89272 0.64703 0.0
H418 H 0.58528 0.0407 0.75454 0.0
H419 H 0.56607 0.9805 0.40297 0.0
H420 H 0.52734 0.88602 0.56957 0.0
H421 H 0.55488 0.90242 0.48906 0.0
H422 H 0.49127 0.13399 0.65574 0.0
H423 H 0.56928 0.93776 0.42571 0.0
H424 H 0.62651 0.08707 0.63608 0.0
N425 N 0.52674 0.08704 0.67636 0.0
C426 C 0.54644 0.09509 0.64655 0.0
C427 C 0.50687 0.12314 0.65237 0.0
C428 C 0.54684 0.11707 0.61516 0.0
C429 C 0.50746 0.10117 0.68295 0.0
C430 C 0.52644 0.13085 0.61681 0.0
N431 N 0.56573 0.06319 0.69289 0.0
C432 C 0.58606 0.05453 0.71897 0.0
C433 C 0.58859 0.09163 0.63248 0.0
C434 C 0.56684 0.08252 0.65481 0.0
C435 C 0.6094 0.08067 0.65214 0.0
C436 C 0.60815 0.06252 0.69727 0.0
H437 H 0.52598 0.14788 0.59331 0.0
H438 H 0.56863 0.14175 0.56143 0.0
H439 H 0.60536 0.11944 0.57686 0.0
O440 O 0.53902 0.0728 0.79153 0.0
O441 O 0.50678 0.05731 0.63243 0.0
O442 O 0.52196 0.03175 0.56046 0.0
O443 O 0.50987 0.04925 0.80555 0.0
O444 O 0.55392 0.02265 0.68826 0.0
O445 O 0.54159 0.01435 0.58688 0.0
O446 O 0.4754 0.01826 0.57848 0.0
O447 O 0.51486 0.98476 0.69216 0.0
O448 O 0.53146 0.01405 0.75828 0.0
O449 O 0.48532 0.98906 0.51864 0.0
O450 O 0.48496 1.00537 0.68425 0.0
O451 O 0.49078 0.04496 0.6961 0.0
C452 C 0.51337 0.05253 0.57371 0.0
C453 C 0.53463 0.05559 0.89252 0.0
C454 C 0.561 0.02857 0.94737 0.0
C455 C 0.55188 0.03637 1.00625 0.0
C456 C 0.52567 0.06316 0.95135 0.0
C457 C 0.53443 0.05367 1.00807 0.0
C458 C 0.55253 0.03867 0.89078 0.0
C459 C 0.55839 0.01554 0.6297 0.0
C460 C 0.52427 0.06397 0.83274 0.0
C461 C 0.56798 0.12511 0.5869 0.0
C462 C 0.58889 0.11237 0.59558 0.0
C463 C 0.52452 0.99207 0.74627 0.0
C464 C 0.47012 0.02337 0.46852 0.0
C465 C 0.4526 0.05837 0.42002 0.0
C466 C 0.46753 0.05551 0.3667 0.0
C467 C 0.48484 0.02087 0.41482 0.0
C468 C 0.45436 0.04229 0.47108 0.0
C469 C 0.48356 0.03695 0.36443 0.0
C470 C 0.47883 0.02566 0.70961 0.0
C471 C 0.47199 1.00758 0.52436 0.0
H472 H 0.55832 0.02923 0.05087 0.0
H473 H 0.51176 0.07614 0.95334 0.0
H474 H 0.52751 0.05953 0.05356 0.0
H475 H 0.55904 0.03259 0.84507 0.0
H476 H 0.46649 0.06721 0.32592 0.0
H477 H 0.49748 1.00669 0.41192 0.0
H478 H 0.44364 0.04454 0.51358 0.0
H479 H 0.49495 0.03493 0.32319 0.0
Tb480 Tb 0.54435 0.50153 0.58351 0.0
C481 C 0.4576 0.50063 0.74844 0.0
N482 N 0.462 0.51538 0.69853 0.0
C483 C 0.42349 0.50671 0.65615 0.0
C484 C 0.43645 0.48741 0.75258 0.0
C485 C 0.44464 0.51966 0.65476 0.0
C486 C 0.41956 0.49015 0.70456 0.0
C487 C 0.46939 0.48626 0.85263 0.0
C488 C 0.47367 0.5001 0.79786 0.0
C489 C 0.44896 0.47206 0.8556 0.0
C490 C 0.43251 0.47263 0.80562 0.0
Tb491 Tb 0.49842 0.53359 0.69867 0.0
N492 N 0.49333 0.51381 0.79277 0.0
C493 C 0.48551 0.48759 0.90317 0.0
C494 C 0.50829 0.51647 0.84346 0.0
C495 C 0.50484 0.50307 0.89897 0.0
H496 H 0.44683 0.5332 0.61886 0.0
H497 H 0.51707 0.50467 0.9384 0.0
H498 H 0.59462 0.52639 0.62543 0.0
H499 H 0.50764 0.48582 0.3487 0.0
H500 H 0.52322 0.5284 0.84009 0.0
H501 H 0.48288 0.47723 0.94618 0.0
H502 H 0.51423 0.47735 0.46281 0.0
H503 H 0.41009 0.50976 0.62037 0.0
H504 H 0.44543 0.46105 0.89696 0.0
H505 H 0.41648 0.46212 0.80932 0.0
H506 H 0.62478 0.55287 0.57681 0.0
H507 H 0.40306 0.48034 0.7059 0.0
H508 H 0.53104 0.51712 0.29461 0.0
N509 N 0.57305 0.52569 0.54247 0.0
C510 C 0.571 0.53175 0.48012 0.0
C511 C 0.60962 0.54722 0.54924 0.0
C512 C 0.58758 0.54683 0.45036 0.0
C513 C 0.59256 0.53228 0.57664 0.0
C514 C 0.60692 0.55485 0.4861 0.0
N515 N 0.53876 0.50562 0.47558 0.0
C516 C 0.52357 0.49192 0.44074 0.0
C517 C 0.55058 0.52641 0.37987 0.0
C518 C 0.55287 0.52165 0.44565 0.0
C519 C 0.53343 0.51398 0.34524 0.0
C520 C 0.52017 0.49632 0.37562 0.0
H521 H 0.62013 0.56643 0.46499 0.0
H522 H 0.59705 0.56455 0.36194 0.0
H523 H 0.56454 0.54667 0.30008 0.0
O524 O 0.55917 0.47315 0.53252 0.0
O525 O 0.54551 0.54057 0.59295 0.0
O526 O 0.50669 0.55014 0.607 0.0
O527 O 0.5696 0.4805 0.62884 0.0
O528 O 0.50631 0.49514 0.56554 0.0
O529 O 0.48792 0.52932 0.59749 0.0
O530 O 0.50942 0.56512 0.73965 0.0
O531 O 0.51389 0.49933 0.72385 0.0
O532 O 0.51566 0.48101 0.62771 0.0
O533 O 0.4718 0.55702 0.73274 0.0
O534 O 0.53596 0.54004 0.72075 0.0
O535 O 0.55645 0.50789 0.68144 0.0
C536 C 0.528 0.55554 0.58672 0.0
C537 C 0.56398 0.44086 0.60379 0.0
C538 C 0.53627 0.40746 0.60613 0.0
C539 C 0.54857 0.39825 0.65886 0.0
C540 C 0.57619 0.43104 0.65549 0.0
C541 C 0.5685 0.40985 0.68273 0.0
C542 C 0.54435 0.42875 0.5786 0.0
C543 C 0.48935 0.51079 0.55955 0.0
C544 C 0.56979 0.46512 0.58303 0.0
C545 C 0.58468 0.55273 0.38564 0.0
C546 C 0.56615 0.54257 0.35045 0.0
C547 C 0.5125 0.48009 0.68965 0.0
C548 C 0.4836 0.59481 0.78145 0.0
C549 C 0.49985 0.63073 0.82821 0.0
C550 C 0.47703 0.64017 0.83162 0.0
C551 C 0.4608 0.60419 0.78599 0.0
C552 C 0.50293 0.60808 0.80345 0.0
C553 C 0.45758 0.6268 0.81112 0.0
C554 C 0.55413 0.52564 0.72151 0.0
C555 C 0.48799 0.57202 0.75046 0.0
H556 H 0.54259 0.38233 0.6827 0.0
H557 H 0.59119 0.44021 0.67621 0.0
H558 H 0.57772 0.40266 0.72349 0.0
H559 H 0.53519 0.43618 0.53807 0.0
H560 H 0.47427 0.65769 0.85063 0.0
H561 H 0.44561 0.59427 0.76913 0.0
H562 H 0.52065 0.60108 0.79976 0.0
H563 H 0.44 0.63408 0.81414 0.0
Tb564 Tb 0.02916 0.54509 0.61982 0.0
C565 C 0.03231 0.46694 0.81623 0.0
N566 N 0.02478 0.46683 0.75479 0.0
C567 C 0.04725 0.43199 0.73396 0.0
C568 C 0.04864 0.45023 0.83834 0.0
C569 C 0.03116 0.44911 0.71419 0.0
C570 C 0.0563 0.43274 0.79606 0.0
C571 C 0.02975 0.48395 0.92188 0.0
C572 C 0.02295 0.4835 0.85714 0.0
C573 C 0.04696 0.46816 0.94371 0.0
C574 C 0.05634 0.45127 0.90203 0.0
Tb575 Tb 0.99834 0.49516 0.72699 0.0
N576 N 1.00598 0.49804 0.8344 0.0
C577 C 0.01837 0.49961 0.96313 0.0
C578 C 0.99341 0.51177 0.87579 0.0
C579 C 0.99981 0.51326 0.94019 0.0
H580 H 0.02415 0.4485 0.66627 0.0
H581 H 0.99012 0.5246 0.97232 0.0
H582 H 0.03423 0.5946 0.70541 0.0
H583 H 0.99782 0.5326 0.37906 0.0
H584 H 0.97809 0.52126 0.85984 0.0
H585 H 0.02307 0.50054 1.01322 0.0
H586 H 0.0211 0.52296 0.47552 0.0
H587 H 0.05269 0.41826 0.70132 0.0
H588 H 0.05258 0.46838 0.99314 0.0
H589 H 0.06912 0.43877 0.91987 0.0
H590 H 0.01502 0.63345 0.70885 0.0
H591 H 0.0688 0.41951 0.81119 0.0
H592 H 0.97403 0.56905 0.37622 0.0
N593 N 0.01497 0.58277 0.62417 0.0
C594 C 1.00061 0.58917 0.57546 0.0
C595 C 1.01053 0.62102 0.67151 0.0
C596 C 0.98979 0.61145 0.57411 0.0
C597 C 0.02106 0.59879 0.6701 0.0
C598 C 0.99447 0.62723 0.62391 0.0
N599 N 1.00965 0.55307 0.52708 0.0
C600 C 1.01068 0.53882 0.47451 0.0
C601 C 0.98467 0.58022 0.47087 0.0
C602 C 0.99809 0.57389 0.52464 0.0
C603 C 0.98414 0.56485 0.41854 0.0
C604 C 0.99756 0.54426 0.41996 0.0
H605 H 0.98652 0.64454 0.62476 0.0
H606 H 0.96665 0.63441 0.52054 0.0
H607 H 0.96214 0.607 0.43002 0.0
O608 O 0.0605 0.5328 0.58119 0.0
O609 O 0.99384 0.5319 0.59374 0.0
O610 O 0.97544 0.52275 0.68862 0.0
O611 O 0.05447 0.5707 0.58744 0.0
O612 O 0.0343 0.50823 0.59013 0.0
O613 O 1.00132 0.48755 0.62474 0.0
O614 O 0.97119 0.4789 0.78103 0.0
O615 O 0.03723 0.49697 0.71281 0.0
O616 O 0.04493 0.53637 0.71156 0.0
O617 O 0.97873 0.46764 0.68551 0.0
O618 O 0.99026 0.53203 0.75435 0.0
O619 O 0.02304 0.55365 0.72148 0.0
C620 C 0.9748 0.53029 0.62931 0.0
C621 C 0.09211 0.55726 0.54132 0.0
C622 C 0.12715 0.53947 0.49458 0.0
C623 C 0.13828 0.5617 0.49334 0.0
C624 C 0.10319 0.57947 0.53896 0.0
C625 C 0.12622 0.58163 0.51494 0.0
C626 C 0.10412 0.53746 0.51835 0.0
C627 C 0.01917 0.49055 0.58513 0.0
C628 C 0.06874 0.55389 0.57086 0.0
C629 C 0.97535 0.61748 0.52214 0.0
C630 C 0.9728 0.60189 0.47055 0.0
C631 C 0.05109 0.51493 0.72704 0.0
C632 C 0.93902 0.46935 0.7131 0.0
C633 C 0.90477 0.4948 0.6984 0.0
C634 C 0.89472 0.4776 0.65805 0.0
C635 C 0.92852 0.45236 0.6735 0.0
C636 C 0.92693 0.49033 0.72615 0.0
C637 C 0.90646 0.45648 0.64629 0.0
C638 C 1.00448 0.55056 0.75912 0.0
C639 C 0.96382 0.46655 0.73257 0.0
H640 H 0.15612 0.56366 0.47506 0.0
H641 H 0.09427 0.59498 0.55662 0.0
H642 H 0.13481 0.59875 0.51357 0.0
H643 H 0.09577 0.52019 0.52032 0.0
H644 H 0.87796 0.48055 0.63471 0.0
H645 H 0.93775 0.43624 0.66202 0.0
H646 H 0.935 0.50328 0.75737 0.0
H647 H 0.89862 0.44343 0.61495 0.0
H648 H 0.14602 0.084 0.30769 0.0
H649 H 0.06799 0.99414 0.51743 0.0
H650 H 0.14717 1.00849 0.28152 0.0
H651 H 0.05948 0.06958 0.52365 0.0
H652 H 0.09739 0.99904 0.43231 0.0
H653 H 0.1146 0.07909 0.38661 0.0
C654 C 0.13953 0.06636 0.31767 0.0
C655 C 0.14941 0.04664 0.28705 0.0
C656 C 0.08904 0.01454 0.45195 0.0
C657 C 0.11347 0.04089 0.37956 0.0
C658 C 0.07228 1.01176 0.50071 0.0
C659 C 0.06119 0.03148 0.52761 0.0
C660 C 0.09502 0.03726 0.43002 0.0
C661 C 0.06741 0.05388 0.50391 0.0
C662 C 0.12162 0.06358 0.3634 0.0
C663 C 0.14045 0.02425 0.30402 0.0
N664 N 0.08396 0.05616 0.45675 0.0
N665 N 0.12312 0.02201 0.34908 0.0
H666 H 0.48377 0.18113 0.37059 0.0
H667 H 0.53598 0.05505 0.45766 0.0
H668 H 0.51583 0.13706 0.22739 0.0
H669 H 0.48234 0.08928 0.56991 0.0
H670 H 0.53138 0.0854 0.37479 0.0
H671 H 0.48602 0.14867 0.44712 0.0
C672 C 0.49139 0.16459 0.35533 0.0
C673 C 0.49984 0.16188 0.29263 0.0
C674 C 0.52067 0.08627 0.41766 0.0
C675 C 0.50254 0.1245 0.38043 0.0
C676 C 0.52328 0.06898 0.46499 0.0
C677 C 0.51001 0.07004 0.52174 0.0
C678 C 0.50479 0.10484 0.42736 0.0
C679 C 0.49361 0.08829 0.52819 0.0
C680 C 0.49253 0.14601 0.39898 0.0
C681 C 0.50915 0.13991 0.27527 0.0
N682 N 0.49164 0.10507 0.48204 0.0
N683 N 0.51049 0.12211 0.31913 0.0
H684 H 0.38932 0.53513 0.25199 0.0
H685 H 0.47339 0.46983 0.50414 0.0
H686 H 0.39246 0.4595 0.27387 0.0
H687 H 0.46495 0.54528 0.49714 0.0
H688 H 0.44515 0.4658 0.41627 0.0
H689 H 0.41831 0.53935 0.33792 0.0
C690 C 0.39607 0.51939 0.27458 0.0
C691 C 0.38833 0.4969 0.25499 0.0
C692 C 0.44945 0.48326 0.43387 0.0
C693 C 0.42179 0.50166 0.35371 0.0
C694 C 0.46564 0.48556 0.48393 0.0
C695 C 0.47168 0.50793 0.5077 0.0
C696 C 0.43914 0.50349 0.40718 0.0
C697 C 0.46078 0.52768 0.48036 0.0
C698 C 0.41271 0.52183 0.32366 0.0
C699 C 0.39809 0.47721 0.28601 0.0
N700 N 0.44514 0.52501 0.43151 0.0
N701 N 0.41419 0.48005 0.33361 0.0
H702 H 0.99423 0.38678 0.2868 0.0
H703 H 0.05764 0.48413 0.50637 0.0
H704 H 0.06997 0.39649 0.29303 0.0
H705 H 0.98667 0.45849 0.54012 0.0
H706 H 0.06144 0.45596 0.41823 0.0
H707 H 0.99017 0.41687 0.36951 0.0
C708 C 1.01005 0.39517 0.30522 0.0
C709 C 0.03253 0.38875 0.2825 0.0
C710 C 0.04504 0.45652 0.44496 0.0
C711 C 0.02784 0.42375 0.37718 0.0
C712 C 0.04283 0.47264 0.49528 0.0
C713 C 0.02183 0.47366 0.53117 0.0
C714 C 0.02602 0.44147 0.42964 0.0
C715 C 1.00326 0.45827 0.51429 0.0
C716 C 1.00766 0.41246 0.35247 0.0
C717 C 0.05222 0.40088 0.3078 0.0
N718 N 1.00577 0.44292 0.46478 0.0
N719 N 0.04942 0.41768 0.35363 0.0
H720 H 0.89844 0.95977 0.07465 0.0
H721 H 0.9438 0.03847 0.77949 0.0
H722 H 0.86507 0.02398 1.01291 0.0
H723 H 0.98146 0.97752 0.84745 0.0
H724 H 0.91497 0.03301 0.86476 0.0
H725 H 0.92907 0.96576 0.99311 0.0
C726 C 0.89755 0.97518 0.04416 0.0
C727 C 0.87898 0.99136 0.05087 0.0
C728 C 0.92952 0.02081 0.86125 0.0
C729 C 0.91417 0.99831 0.95697 0.0
C730 C 0.94606 0.02385 0.81219 0.0
C731 C 0.96525 1.00841 0.80576 0.0
C732 C 0.9319 1.00209 0.90469 0.0
C733 C 0.96704 0.98989 0.85025 0.0
C734 C 0.91513 0.97861 0.99765 0.0
C735 C 0.87907 1.01114 1.01031 0.0
N736 N 0.95059 0.98723 0.89765 0.0
N737 N 0.89623 0.01395 0.96507 0.0
H738 H 0.52907 0.86349 0.97312 0.0
H739 H 0.52471 0.99984 0.87517 0.0
H740 H 0.54538 0.91979 0.10467 0.0
H741 H 0.52852 0.94379 0.73683 0.0
H742 H 0.5282 0.97084 0.961 0.0
H743 H 0.52437 0.89263 0.88786 0.0
C744 C 0.53134 0.88201 0.9844 0.0
C745 C 0.53751 0.88914 0.04653 0.0
C746 C 0.52865 0.9649 0.91189 0.0
C747 C 0.5324 0.92269 0.94842 0.0
C748 C 0.5269 0.98151 0.86275 0.0
C749 C 0.52704 0.97442 0.7985 0.0
C750 C 0.53037 0.94084 0.89701 0.0
C751 C 0.52853 0.95015 0.78557 0.0
C752 C 0.52889 0.89863 0.93542 0.0
C753 C 0.54071 0.91342 0.0576 0.0
N754 N 0.53017 0.93427 0.8343 0.0
N755 N 0.53807 0.92928 1.0092 0.0
H756 H 0.64758 0.57605 0.02343 0.0
H757 H 0.58861 0.49444 0.7553 0.0
H758 H 0.66401 0.50246 0.99749 0.0
H759 H 0.56059 0.56246 0.80635 0.0
H760 H 0.6174 0.49812 0.84103 0.0
H761 H 0.61624 0.57214 0.94377 0.0
C762 C 0.64445 0.55897 1.00187 0.0
C763 C 0.65873 0.53959 0.01744 0.0
C764 C 0.60496 0.51226 0.83366 0.0
C765 C 0.62304 0.5352 0.92451 0.0
C766 C 0.58853 0.51025 0.78427 0.0
C767 C 0.57209 0.52822 0.77307 0.0
C768 C 0.60528 0.5325 0.8723 0.0
C769 C 0.57289 0.54816 0.81297 0.0
C770 C 0.62662 0.55683 0.95585 0.0
C771 C 0.65391 0.51806 0.98653 0.0
N772 N 0.58925 0.5498 0.86056 0.0
N773 N 0.63667 0.51652 0.94147 0.0
H774 H 0.95086 0.63496 0.07529 0.0
H775 H 0.03755 0.57939 0.81411 0.0
H776 H 0.01674 0.6676 0.01709 0.0
H777 H 0.96361 0.56074 0.82583 0.0
H778 H 0.03186 0.60827 0.89895 0.0
H779 H 0.95704 0.60414 0.99549 0.0
C780 C 0.96666 0.63573 0.04608 0.0
C781 C 0.98319 0.65427 0.0532 0.0
C782 C 0.01685 0.59788 0.88307 0.0
C783 C 0.99051 0.6185 0.962 0.0
C784 C 0.02004 0.58143 0.83423 0.0
C785 C 1.00097 0.56771 0.8121 0.0
C786 C 0.99447 0.60057 0.91101 0.0
C787 C 0.97884 0.57083 0.84146 0.0
C788 C 0.97017 0.61801 1.00053 0.0
C789 C 1.00358 0.6537 1.01454 0.0
N790 N 0.9762 0.58689 0.88941 0.0
N791 N 1.0066 0.63622 0.97077 0.0
H792 H 0.09123 0.17943 0.32446 0.0
H793 H 0.02215 0.16741 0.6493 0.0
H794 H 0.09701 0.22984 0.47813 0.0
H795 H 0.01956 0.11649 0.496 0.0
H796 H 0.05658 0.18579 0.59868 0.0
H797 H 0.07424 0.15101 0.39866 0.0
C798 C 0.08974 0.18432 0.37429 0.0
C799 C 0.09484 0.2074 0.39456 0.0
C800 C 0.04871 0.17033 0.57676 0.0
C801 C 0.07438 0.17513 0.47938 0.0
C802 C 0.02886 0.15997 0.60529 0.0
C803 C 0.01757 0.14058 0.57648 0.0
C804 C 0.05716 0.16148 0.51843 0.0
C805 C 0.02757 0.13134 0.52036 0.0
C806 C 0.07969 0.1681 0.41666 0.0
C807 C 0.0925 0.21252 0.45993 0.0
N808 N 0.04652 0.14209 0.49277 0.0
N809 N 0.08179 0.19676 0.4997 0.0
H810 H 0.316 0.11158 0.4026 0.0
H811 H 0.4541 0.10323 0.36707 0.0
H812 H 0.35623 0.15531 0.27112 0.0
H813 H 0.40841 0.05597 0.47385 0.0
H814 H 0.42098 0.13035 0.35524 0.0
H815 H 0.35182 0.10196 0.45702 0.0
C816 C 0.33209 0.11982 0.38542 0.0
C817 C 0.33277 0.13342 0.32904 0.0
C818 C 0.41848 0.11426 0.38246 0.0
C819 C 0.37462 0.12105 0.39087 0.0
C820 C 0.43731 0.09861 0.38875 0.0
C821 C 0.4341 0.07692 0.42057 0.0
C822 C 0.39634 0.10821 0.40842 0.0
C823 C 0.41205 0.07238 0.44919 0.0
C824 C 0.35284 0.11391 0.41666 0.0
C825 C 0.35472 0.14348 0.3115 0.0
N826 N 0.39406 0.08771 0.44175 0.0
N827 N 0.3749 0.13644 0.34085 0.0
H828 H 0.44963 0.30204 0.43409 0.0
H829 H 0.49672 0.42679 0.54976 0.0
H830 H 0.42774 0.36829 0.35265 0.0
H831 H 0.52679 0.35971 0.60282 0.0
H832 H 0.46391 0.40599 0.50009 0.0
H833 H 0.46845 0.32339 0.52122 0.0
C834 C 0.44797 0.32105 0.43569 0.0
C835 C 0.43758 0.33345 0.38507 0.0
C836 C 0.47754 0.39587 0.5235 0.0
C837 C 0.45983 0.35799 0.48369 0.0
C838 C 0.49651 0.40772 0.5515 0.0
C839 C 0.51499 0.3951 0.58018 0.0
C840 C 0.47696 0.37116 0.52362 0.0
C841 C 0.51308 0.37037 0.58188 0.0
C842 C 0.45904 0.33325 0.48514 0.0
C843 C 0.43612 0.35809 0.38987 0.0
N844 N 0.4946 0.35925 0.55334 0.0
N845 N 0.44764 0.36962 0.43749 0.0
H846 H 0.22779 0.42977 0.42584 0.0
H847 H 0.11049 0.50638 0.41153 0.0
H848 H 0.18305 0.43458 0.25946 0.0
H849 H 0.17088 0.52364 0.52817 0.0
H850 H 0.13052 0.47063 0.37545 0.0
H851 H 0.19936 0.45359 0.48512 0.0
C852 C 0.21174 0.4352 0.40216 0.0
C853 C 0.20843 0.43099 0.33656 0.0
C854 C 0.13926 0.48215 0.40941 0.0
C855 C 0.17578 0.45776 0.40447 0.0
C856 C 0.12794 0.50254 0.42971 0.0
C857 C 0.13929 0.51808 0.47201 0.0
C858 C 0.16194 0.47715 0.43221 0.0
C859 C 0.1618 0.5123 0.4945 0.0
C860 C 0.19559 0.44884 0.43606 0.0
C861 C 0.18676 0.43762 0.30945 0.0
N862 N 0.17246 0.49228 0.47414 0.0
N863 N 0.1715 0.45113 0.34314 0.0
H864 H 0.95913 0.7968 0.84883 0.0
H865 H 0.99022 0.92133 0.69798 0.0
H866 H 0.92986 0.86312 0.90893 0.0
H867 H 0.03662 0.86135 0.69854 0.0
H868 H 0.9579 0.89588 0.73461 0.0
H869 H 0.9764 0.81644 0.75516 0.0
C870 C 0.9555 0.81529 0.84079 0.0
C871 C 0.9434 0.82852 0.88685 0.0
C872 C 0.97501 0.88819 0.72503 0.0
C873 C 0.96319 0.85098 0.78079 0.0
C874 C 0.99349 0.90269 0.7044 0.0
C875 C 0.01637 0.89359 0.69758 0.0
C876 C 0.97945 0.86446 0.73893 0.0
C877 C 0.01938 0.86919 0.70437 0.0
C878 C 0.96549 0.82649 0.78766 0.0
C879 C 0.93936 0.85244 0.87471 0.0
N880 N 1.00124 0.85552 0.7262 0.0
N881 N 0.94959 0.86303 0.8233 0.0
H882 H 0.6528 0.92168 0.07265 0.0
H883 H 0.59962 0.02549 0.86803 0.0
H884 H 0.69353 0.9653 0.9439 0.0
H885 H 0.56314 0.98829 0.01957 0.0
H886 H 0.63036 0.99554 0.86968 0.0
H887 H 0.61651 0.93627 0.02421 0.0
C888 C 0.65405 0.93351 0.03205 0.0
C889 C 0.67602 0.94262 1.01265 0.0
C890 C 0.61543 0.99375 0.90186 0.0
C891 C 0.63482 0.96021 0.95924 0.0
C892 C 0.59786 1.01085 0.90102 0.0
C893 C 0.57898 1.00967 0.94467 0.0
C894 C 0.61416 0.97536 0.94675 0.0
C895 C 0.57769 0.99029 0.98631 0.0
C896 C 0.63337 0.94211 1.00501 0.0
C897 C 0.67684 0.95799 0.96024 0.0
N898 N 0.59516 0.97405 0.98676 0.0
N899 N 0.65645 0.96688 0.93644 0.0
H900 H 0.60786 0.69031 0.05569 0.0
H901 H 0.51304 0.67533 0.79281 0.0
H902 H 0.60929 0.7335 0.88537 0.0
H903 H 0.53454 0.61649 0.90903 0.0
H904 H 0.54879 0.69685 0.82552 0.0
H905 H 0.58411 0.66135 0.99965 0.0
C906 C 0.60401 0.69347 1.00581 0.0
C907 C 0.60992 0.71502 0.9762 0.0
C908 C 0.5458 0.67912 0.84324 0.0
C909 C 0.58164 0.68212 0.91273 0.0
C910 C 0.52528 0.66705 0.82542 0.0
C911 C 0.52081 0.64432 0.84901 0.0
C912 C 0.56166 0.66851 0.88583 0.0
C913 C 0.53737 0.63408 0.89015 0.0
C914 C 0.59007 0.67691 0.974 0.0
C915 C 0.60423 0.71769 0.91121 0.0
N916 N 0.55693 0.64638 0.90796 0.0
N917 N 0.58968 0.70185 0.88226 0.0
H918 H 0.80088 0.58432 0.85564 0.0
H919 H 0.92349 0.53929 0.71992 0.0
H920 H 0.86868 0.60629 0.92939 0.0
H921 H 0.8569 0.50157 0.70984 0.0
H922 H 0.90273 0.57336 0.76291 0.0
H923 H 0.82079 0.5652 0.7665 0.0
C924 C 0.81992 0.58597 0.85182 0.0
C925 C 0.83321 0.59647 0.90085 0.0
C926 C 0.8927 0.55774 0.74992 0.0
C927 C 0.85602 0.57412 0.79971 0.0
C928 C 0.90452 0.53814 0.72601 0.0
C929 C 0.89209 0.51708 0.71303 0.0
C930 C 0.86825 0.55642 0.76019 0.0
C931 C 0.86738 0.5172 0.71939 0.0
C932 C 0.83127 0.5748 0.80119 0.0
C933 C 0.85784 0.5979 0.89333 0.0
N934 N 0.85634 0.53642 0.74337 0.0
N935 N 0.86853 0.58636 0.84443 0.0
H936 H 0.01258 0.17683 0.97957 0.0
H937 H 0.04116 0.10076 0.66551 0.0
H938 H 0.05699 0.20253 0.82628 0.0
H939 H 1.00809 0.07193 0.83449 0.0
H940 H 0.0451 0.13892 0.72016 0.0
H941 H 1.00767 0.13954 0.9224 0.0
C942 C 0.02106 0.1748 0.93346 0.0
C943 C 0.03523 0.19298 0.90786 0.0
C944 C 0.0367 0.12434 0.74492 0.0
C945 C 0.0299 0.14995 0.84218 0.0
C946 C 0.03449 0.10255 0.71383 0.0
C947 C 0.02424 0.08318 0.7455 0.0
C948 C 0.02807 0.12696 0.80759 0.0
C949 C 0.01619 0.08639 0.80839 0.0
C950 C 0.01842 0.15335 0.90107 0.0
C951 C 0.04608 0.189 0.84827 0.0
N952 N 0.01813 0.10784 0.83715 0.0
N953 N 0.04319 0.16798 0.81755 0.0
H954 H 0.34951 0.99753 0.92718 0.0
H955 H 0.45521 0.06558 0.74576 0.0
H956 H 0.34979 0.0722 0.88735 0.0
H957 H 0.45031 0.98969 0.75528 0.0
H958 H 0.41756 0.06818 0.80258 0.0
H959 H 0.3871 0.99412 0.86916 0.0
C960 C 0.3574 0.0132 0.90621 0.0
C961 C 0.34624 0.03517 0.91203 0.0
C962 C 0.42466 0.05093 0.79217 0.0
C963 C 0.38948 0.03139 0.84564 0.0
C964 C 0.44626 0.04942 0.75976 0.0
C965 C 0.456 0.02736 0.74514 0.0
C966 C 0.41261 0.03024 0.81092 0.0
C967 C 0.44345 1.00708 0.76488 0.0
C968 C 0.37885 1.01122 0.87288 0.0
C969 C 0.35738 0.05481 0.88338 0.0
N970 N 0.42249 1.009 0.79678 0.0
N971 N 0.37832 0.05246 0.85188 0.0
H972 H 0.52228 0.36167 0.9507 0.0
H973 H 0.48624 0.44227 0.65131 0.0
H974 H 0.47713 0.33728 0.79821 0.0
H975 H 0.53219 0.46577 0.80215 0.0
H976 H 0.483 0.4035 0.7033 0.0
H977 H 0.52729 0.39921 0.89491 0.0
C978 C 0.51368 0.36399 0.905 0.0
C979 C 0.49922 0.34608 0.87938 0.0
C980 C 0.4939 0.41706 0.72497 0.0
C981 C 0.50451 0.38959 0.81557 0.0
C982 C 0.49589 0.43906 0.69495 0.0
C983 C 0.50988 0.45695 0.72174 0.0
C984 C 0.50609 0.41288 0.78229 0.0
C985 C 0.52132 0.45235 0.77974 0.0
C986 C 0.51638 0.38561 0.87341 0.0
C987 C 0.4882 0.35056 0.82044 0.0
N988 N 0.51929 0.43075 0.80787 0.0
N989 N 0.49101 0.37181 0.79077 0.0
H990 H 0.18836 0.53627 0.90438 0.0
H991 H 0.07735 0.47427 0.73277 0.0
H992 H 0.18182 0.46096 0.87885 0.0
H993 H 0.07939 0.54769 0.78561 0.0
H994 H 0.11632 0.46916 0.78126 0.0
H995 H 0.14948 0.54104 0.85564 0.0
C996 C 0.17883 0.5207 0.88867 0.0
C997 C 0.18865 0.49815 0.89601 0.0
C998 C 0.10821 0.48638 0.7825 0.0
C999 C 0.14389 0.50358 0.8392 0.0
C1000 C 0.08581 0.48923 0.75534 0.0
C1001 C 0.07478 0.5113 0.75609 0.0
C1002 C 0.11993 0.50585 0.80999 0.0
C1003 C 0.0871 0.53029 0.78398 0.0
C1004 C 0.15659 0.52347 0.86054 0.0
C1005 C 0.17537 0.47875 0.87347 0.0
N1006 N 0.10893 0.52714 0.80969 0.0
N1007 N 0.15378 0.48191 0.84629 0.0
H1008 H 0.02351 0.84585 0.44218 0.0
H1009 H 0.96407 0.95952 0.60176 0.0
H1010 H 0.94929 0.86156 0.42506 0.0
H1011 H 0.03906 0.95264 0.57189 0.0
H1012 H 0.95785 0.92146 0.54881 0.0
H1013 H 0.02904 0.88238 0.50258 0.0
C1014 C 1.00834 0.85689 0.45098 0.0
C1015 C 0.98589 0.85045 0.42771 0.0
C1016 C 0.97566 0.92833 0.55364 0.0
C1017 C 0.99216 0.89247 0.4978 0.0
C1018 C 0.97919 0.95022 0.58332 0.0
C1019 C 1.00203 0.95971 0.58998 0.0
C1020 C 0.99519 0.91554 0.53129 0.0
C1021 C 0.02107 0.94623 0.56752 0.0
C1022 C 1.01153 0.87777 0.48574 0.0
C1023 C 0.96689 0.86543 0.44234 0.0
N1024 N 0.01723 0.92492 0.53927 0.0
N1025 N 0.97047 0.88569 0.47608 0.0
H1026 H 0.70663 0.98186 0.56052 0.0
H1027 H 0.57521 0.0299 0.51428 0.0
H1028 H 0.68418 0.02431 0.40094 0.0
H1029 H 0.59811 0.99905 0.6917 0.0
H1030 H 0.61538 0.02738 0.47309 0.0
H1031 H 0.66777 0.98754 0.61061 0.0
C1032 C 0.69368 0.99253 0.53618 0.0
C1033 C 0.6989 1.00264 0.47622 0.0
C1034 C 0.61178 0.02119 0.52113 0.0
C1035 C 0.65421 1.00906 0.53333 0.0
C1036 C 0.58873 0.02248 0.5446 0.0
C1037 C 0.58322 0.0145 0.60642 0.0
C1038 C 0.62968 1.01157 0.55925 0.0
C1039 C 0.60162 1.00539 0.64376 0.0
C1040 C 0.6715 0.99581 0.56497 0.0
C1041 C 0.68132 0.01642 0.44747 0.0
N1042 N 0.62401 1.00401 0.61946 0.0
N1043 N 0.65986 0.01903 0.47592 0.0
H1044 H 0.50771 0.6948 0.42134 0.0
H1045 H 0.57 0.57877 0.56057 0.0
H1046 H 0.58307 0.68379 0.41596 0.0
H1047 H 0.49456 0.5866 0.54525 0.0
H1048 H 0.57535 0.61758 0.51074 0.0
H1049 H 0.50266 0.65585 0.47018 0.0
C1050 C 0.52322 0.68427 0.43024 0.0
C1051 C 0.54588 0.69288 0.41441 0.0
C1052 C 0.55761 0.61077 0.51806 0.0
C1053 C 0.54018 0.64802 0.4712 0.0
C1054 C 0.55458 0.58846 0.54605 0.0
C1055 C 0.53185 0.5791 0.55637 0.0
C1056 C 0.53773 0.62406 0.50073 0.0
C1057 C 0.51247 0.59296 0.53828 0.0
C1058 C 0.52032 0.66199 0.45845 0.0
C1059 C 0.56526 0.6783 0.4282 0.0
N1060 N 0.51585 0.61464 0.51151 0.0
N1061 N 0.56197 0.65671 0.45563 0.0
H1062 H 0.83759 0.5107 0.45117 0.0
H1063 H 0.95251 0.57168 0.60497 0.0
H1064 H 0.85657 0.58388 0.42192 0.0
H1065 H 0.94483 0.49652 0.58408 0.0
H1066 H 0.91451 0.57697 0.55064 0.0
H1067 H 0.87387 0.50561 0.51301 0.0
C1068 C 0.84925 0.52573 0.45761 0.0
C1069 C 0.84377 0.54779 0.43072 0.0
C1070 C 0.92106 0.5593 0.55806 0.0
C1071 C 0.88538 0.54203 0.5025 0.0
C1072 C 0.94274 0.55632 0.58886 0.0
C1073 C 0.95163 0.53367 0.59882 0.0
C1074 C 0.90814 0.53942 0.53742 0.0
C1075 C 0.93835 0.51427 0.57756 0.0
C1076 C 0.86997 0.52279 0.49319 0.0
C1077 C 0.85958 0.56663 0.44225 0.0
N1078 N 0.91722 0.51755 0.54795 0.0
N1079 N 0.87956 0.5633 0.477 0.0
loop_
_geom_bond_atom_site_label_1
_geom_bond_atom_site_label_2
_geom_bond_distance
_geom_bond_site_symmetry_2
_ccdc_geom_bond_type
C0 C1 1.386 . S
C0 C2 1.397 . S
C0 H24 0.931 . S
C1 C0 1.386 . S
C1 C5 1.397 . S
C2 C0 1.397 . S
C2 C3 1.384 . S
C2 H25 0.930 . S
C3 C2 1.384 . S
C3 C4 1.377 . S
C3 C6 1.481 . S
C4 C3 1.377 . S
C4 C5 1.389 . S
C4 H26 0.929 . S
C5 C1 1.397 . S
C5 C4 1.389 . S
C5 H27 0.931 . S
C6 C3 1.481 . S
C6 C7 1.387 . S
C6 C11 1.390 . S
C7 C6 1.387 . S
C7 C8 1.401 . S
C7 H28 0.930 . S
C8 C7 1.401 . S
C8 C9 1.376 . S
C8 C17 1.511 . S
C9 C8 1.376 . S
C9 C10 1.392 . S
C9 H30 0.931 . S
C10 C9 1.392 . S
C10 C11 1.361 . S
C10 C12 1.500 . S
C11 C6 1.390 . S
C11 C10 1.361 . S
C11 H29 0.931 . S
C12 C10 1.500 . S
C12 C13 1.371 . S
C12 C14 1.365 . S
C13 C12 1.371 . S
C13 C23 1.386 . S
C13 H31 0.931 . S
C14 C12 1.365 . S
C14 C15 1.409 . S
C14 H32 0.929 . S
C15 C14 1.409 . S
C15 C16 1.380 . S
C15 H33 0.930 . S
C16 C15 1.380 . S
C16 C23 1.357 . S
C17 C8 1.511 . S
C17 C18 1.341 . S
C17 C19 1.371 . S
C18 C17 1.341 . S
C18 C22 1.394 . S
C18 H34 0.930 . S
C19 C17 1.371 . S
C19 C20 1.392 . S
C19 H35 0.931 . S
C20 C19 1.392 . S
C20 C21 1.331 . S
C20 H38 0.932 . S
C21 C20 1.331 . S
C21 C22 1.336 . S
C22 C18 1.394 . S
C22 C21 1.336 . S
C22 H37 0.929 . S
C23 C13 1.386 . S
C23 C16 1.357 . S
C23 H36 0.928 . S
H24 C0 0.931 . S
H25 C2 0.930 . S
H26 C4 0.929 . S
H27 C5 0.931 . S
H28 C7 0.930 . S
H29 C11 0.931 . S
H30 C9 0.931 . S
H31 C13 0.931 . S
H32 C14 0.929 . S
H33 C15 0.930 . S
H34 C18 0.930 . S
H35 C19 0.931 . S
H36 C23 0.928 . S
H37 C22 0.929 . S
H38 C20 0.932 . S
C39 C40 1.386 . S
C39 C41 1.397 . S
C39 H63 0.931 . S
C40 C39 1.386 . S
C40 C44 1.397 . S
C41 C39 1.397 . S
C41 C42 1.384 . S
C41 H64 0.930 . S
C42 C41 1.384 . S
C42 C43 1.377 . S
C42 C45 1.481 . S
C43 C42 1.377 . S
C43 C44 1.389 . S
C43 H65 0.929 . S
C44 C40 1.397 . S
C44 C43 1.389 . S
C44 H66 0.931 . S
C45 C42 1.481 . S
C45 C46 1.387 . S
C45 C50 1.390 . S
C46 C45 1.387 . S
C46 C47 1.401 . S
C46 H67 0.930 . S
C47 C46 1.401 . S
C47 C48 1.376 . S
C47 C56 1.511 . S
C48 C47 1.376 . S
C48 C49 1.392 . S
C48 H69 0.931 . S
C49 C48 1.392 . S
C49 C50 1.361 . S
C49 C51 1.500 . S
C50 C45 1.390 . S
C50 C49 1.361 . S
C50 H68 0.931 . S
C51 C49 1.500 . S
C51 C52 1.371 . S
C51 C53 1.365 . S
C52 C51 1.371 . S
C52 C62 1.386 . S
C52 H70 0.931 . S
C53 C51 1.365 . S
C53 C54 1.409 . S
C53 H71 0.929 . S
C54 C53 1.409 . S
C54 C55 1.380 . S
C54 H72 0.930 . S
C55 C54 1.380 . S
C55 C62 1.357 . S
C56 C47 1.511 . S
C56 C57 1.341 . S
C56 C58 1.371 . S
C57 C56 1.341 . S
C57 C61 1.394 . S
C57 H73 0.930 . S
C58 C56 1.371 . S
C58 C59 1.392 . S
C58 H74 0.931 . S
C59 C58 1.392 . S
C59 C60 1.331 . S
C59 H77 0.932 . S
C60 C59 1.331 . S
C60 C61 1.336 . S
C61 C57 1.394 . S
C61 C60 1.336 . S
C61 H76 0.929 . S
C62 C52 1.386 . S
C62 C55 1.357 . S
C62 H75 0.928 . S
H63 C39 0.931 . S
H64 C41 0.930 . S
H65 C43 0.929 . S
H66 C44 0.931 . S
H67 C46 0.930 . S
H68 C50 0.931 . S
H69 C48 0.931 . S
H70 C52 0.931 . S
H71 C53 0.929 . S
H72 C54 0.930 . S
H73 C57 0.930 . S
H74 C58 0.931 . S
H75 C62 0.928 . S
H76 C61 0.929 . S
H77 C59 0.932 . S
C78 C79 1.386 . S
C78 C80 1.397 . S
C78 H102 0.931 . S
C79 C78 1.386 . S
C79 C83 1.397 . S
C80 C78 1.397 . S
C80 C81 1.384 . S
C80 H103 0.930 . S
C81 C80 1.384 . S
C81 C82 1.377 . S
C81 C84 1.481 . S
C82 C81 1.377 . S
C82 C83 1.389 . S
C82 H104 0.929 . S
C83 C79 1.397 . S
C83 C82 1.389 . S
C83 H105 0.931 . S
C84 C81 1.481 . S
C84 C85 1.387 . S
C84 C89 1.390 . S
C85 C84 1.387 . S
C85 C86 1.401 . S
C85 H106 0.930 . S
C86 C85 1.401 . S
C86 C87 1.376 . S
C86 C95 1.511 . S
C87 C86 1.376 . S
C87 C88 1.392 . S
C87 H108 0.931 . S
C88 C87 1.392 . S
C88 C89 1.361 . S
C88 C90 1.500 . S
C89 C84 1.390 . S
C89 C88 1.361 . S
C89 H107 0.931 . S
C90 C88 1.500 . S
C90 C91 1.371 . S
C90 C92 1.365 . S
C91 C90 1.371 . S
C91 C101 1.386 . S
C91 H109 0.931 . S
C92 C90 1.365 . S
C92 C93 1.409 . S
C92 H110 0.929 . S
C93 C92 1.409 . S
C93 C94 1.380 . S
C93 H111 0.930 . S
C94 C93 1.380 . S
C94 C101 1.357 . S
C95 C86 1.511 . S
C95 C96 1.341 . S
C95 C97 1.371 . S
C96 C95 1.341 . S
C96 C100 1.394 . S
C96 H112 0.930 . S
C97 C95 1.371 . S
C97 C98 1.392 . S
C97 H113 0.931 . S
C98 C97 1.392 . S
C98 C99 1.331 . S
C98 H116 0.932 . S
C99 C98 1.331 . S
C99 C100 1.336 . S
C100 C96 1.394 . S
C100 C99 1.336 . S
C100 H115 0.929 . S
C101 C91 1.386 . S
C101 C94 1.357 . S
C101 H114 0.928 . S
H102 C78 0.931 . S
H103 C80 0.930 . S
H104 C82 0.929 . S
H105 C83 0.931 . S
H106 C85 0.930 . S
H107 C89 0.931 . S
H108 C87 0.931 . S
H109 C91 0.931 . S
H110 C92 0.929 . S
H111 C93 0.930 . S
H112 C96 0.930 . S
H113 C97 0.931 . S
H114 C101 0.928 . S
H115 C100 0.929 . S
H116 C98 0.932 . S
C117 C118 1.386 . S
C117 C119 1.397 . S
C117 H141 0.931 . S
C118 C117 1.386 . S
C118 C122 1.397 . S
C119 C117 1.397 . S
C119 C120 1.384 . S
C119 H142 0.930 . S
C120 C119 1.384 . S
C120 C121 1.377 . S
C120 C123 1.481 . S
C121 C120 1.377 . S
C121 C122 1.389 . S
C121 H143 0.929 . S
C122 C118 1.397 . S
C122 C121 1.389 . S
C122 H144 0.931 . S
C123 C120 1.481 . S
C123 C124 1.387 . S
C123 C128 1.390 . S
C124 C123 1.387 . S
C124 C125 1.401 . S
C124 H145 0.930 . S
C125 C124 1.401 . S
C125 C126 1.376 . S
C125 C134 1.511 . S
C126 C125 1.376 . S
C126 C127 1.392 . S
C126 H147 0.931 . S
C127 C126 1.392 . S
C127 C128 1.361 . S
C127 C129 1.500 . S
C128 C123 1.390 . S
C128 C127 1.361 . S
C128 H146 0.931 . S
C129 C127 1.500 . S
C129 C130 1.371 . S
C129 C131 1.365 . S
C130 C129 1.371 . S
C130 C140 1.386 . S
C130 H148 0.931 . S
C131 C129 1.365 . S
C131 C132 1.409 . S
C131 H149 0.929 . S
C132 C131 1.409 . S
C132 C133 1.380 . S
C132 H150 0.930 . S
C133 C132 1.380 . S
C133 C140 1.357 . S
C134 C125 1.511 . S
C134 C135 1.341 . S
C134 C136 1.371 . S
C135 C134 1.341 . S
C135 C139 1.394 . S
C135 H151 0.930 . S
C136 C134 1.371 . S
C136 C137 1.392 . S
C136 H152 0.931 . S
C137 C136 1.392 . S
C137 C138 1.331 . S
C137 H155 0.932 . S
C138 C137 1.331 . S
C138 C139 1.336 . S
C139 C135 1.394 . S
C139 C138 1.336 . S
C139 H154 0.929 . S
C140 C130 1.386 . S
C140 C133 1.357 . S
C140 H153 0.928 . S
H141 C117 0.931 . S
H142 C119 0.930 . S
H143 C121 0.929 . S
H144 C122 0.931 . S
H145 C124 0.930 . S
H146 C128 0.931 . S
H147 C126 0.931 . S
H148 C130 0.931 . S
H149 C131 0.929 . S
H150 C132 0.930 . S
H151 C135 0.930 . S
H152 C136 0.931 . S
H153 C140 0.928 . S
H154 C139 0.929 . S
H155 C137 0.932 . S
C156 C157 1.386 . S
C156 C158 1.397 . S
C156 H180 0.931 . S
C157 C156 1.386 . S
C157 C161 1.397 . S
C158 C156 1.397 . S
C158 C159 1.384 . S
C158 H181 0.930 . S
C159 C158 1.384 . S
C159 C160 1.377 . S
C159 C162 1.481 . S
C160 C159 1.377 . S
C160 C161 1.389 . S
C160 H182 0.929 . S
C161 C157 1.397 . S
C161 C160 1.389 . S
C161 H183 0.931 . S
C162 C159 1.481 . S
C162 C163 1.387 . S
C162 C167 1.390 . S
C163 C162 1.387 . S
C163 C164 1.401 . S
C163 H184 0.930 . S
C164 C163 1.401 . S
C164 C165 1.376 1_554 S
C164 C173 1.511 . S
C165 C164 1.376 1_556 S
C165 C166 1.392 . S
C165 H186 0.931 . S
C166 C165 1.392 . S
C166 C167 1.361 1_556 S
C166 C168 1.500 . S
C167 C162 1.390 . S
C167 C166 1.361 1_554 S
C167 H185 0.931 . S
C168 C166 1.500 . S
C168 C169 1.371 . S
C168 C170 1.365 . S
C169 C168 1.371 . S
C169 C179 1.386 . S
C169 H187 0.931 . S
C170 C168 1.365 . S
C170 C171 1.409 . S
C170 H188 0.929 . S
C171 C170 1.409 . S
C171 C172 1.380 . S
C171 H189 0.930 . S
C172 C171 1.380 . S
C172 C179 1.357 . S
C173 C164 1.511 . S
C173 C174 1.341 . S
C173 C175 1.371 . S
C174 C173 1.341 . S
C174 C178 1.394 . S
C174 H190 0.930 . S
C175 C173 1.371 . S
C175 C176 1.392 . S
C175 H191 0.931 1_554 S
C176 C175 1.392 . S
C176 C177 1.331 . S
C176 H194 0.932 . S
C177 C176 1.331 . S
C177 C178 1.336 . S
C178 C174 1.394 . S
C178 C177 1.336 . S
C178 H193 0.929 . S
C179 C169 1.386 . S
C179 C172 1.357 . S
C179 H192 0.928 . S
H180 C156 0.931 . S
H181 C158 0.930 . S
H182 C160 0.929 . S
H183 C161 0.931 . S
H184 C163 0.930 . S
H185 C167 0.931 . S
H186 C165 0.931 . S
H187 C169 0.931 . S
H188 C170 0.929 . S
H189 C171 0.930 . S
H190 C174 0.930 . S
H191 C175 0.931 1_556 S
H192 C179 0.928 . S
H193 C178 0.929 . S
H194 C176 0.932 . S
C195 C196 1.386 . S
C195 C197 1.397 . S
C195 H219 0.931 . S
C196 C195 1.386 . S
C196 C200 1.397 . S
C197 C195 1.397 . S
C197 C198 1.384 . S
C197 H220 0.930 . S
C198 C197 1.384 . S
C198 C199 1.377 . S
C198 C201 1.481 . S
C199 C198 1.377 . S
C199 C200 1.389 . S
C199 H221 0.929 . S
C200 C196 1.397 . S
C200 C199 1.389 . S
C200 H222 0.931 . S
C201 C198 1.481 . S
C201 C202 1.387 . S
C201 C206 1.390 . S
C202 C201 1.387 . S
C202 C203 1.401 . S
C202 H223 0.930 . S
C203 C202 1.401 . S
C203 C204 1.376 1_554 S
C203 C212 1.511 . S
C204 C203 1.376 1_556 S
C204 C205 1.392 . S
C204 H225 0.931 . S
C205 C204 1.392 . S
C205 C206 1.361 1_556 S
C205 C207 1.500 . S
C206 C201 1.390 . S
C206 C205 1.361 1_554 S
C206 H224 0.931 . S
C207 C205 1.500 . S
C207 C208 1.371 . S
C207 C209 1.365 . S
C208 C207 1.371 . S
C208 C218 1.386 . S
C208 H226 0.931 . S
C209 C207 1.365 . S
C209 C210 1.409 . S
C209 H227 0.929 . S
C210 C209 1.409 . S
C210 C211 1.380 . S
C210 H228 0.930 . S
C211 C210 1.380 . S
C211 C218 1.357 . S
C212 C203 1.511 . S
C212 C213 1.341 . S
C212 C214 1.371 . S
C213 C212 1.341 . S
C213 C217 1.394 . S
C213 H229 0.930 . S
C214 C212 1.371 . S
C214 C215 1.392 . S
C214 H230 0.931 1_554 S
C215 C214 1.392 . S
C215 C216 1.331 . S
C215 H233 0.932 . S
C216 C215 1.331 . S
C216 C217 1.336 . S
C217 C213 1.394 . S
C217 C216 1.336 . S
C217 H232 0.929 . S
C218 C208 1.386 . S
C218 C211 1.357 . S
C218 H231 0.928 . S
H219 C195 0.931 . S
H220 C197 0.930 . S
H221 C199 0.929 . S
H222 C200 0.931 . S
H223 C202 0.930 . S
H224 C206 0.931 . S
H225 C204 0.931 . S
H226 C208 0.931 . S
H227 C209 0.929 . S
H228 C210 0.930 . S
H229 C213 0.930 . S
H230 C214 0.931 1_556 S
H231 C218 0.928 . S
H232 C217 0.929 . S
H233 C215 0.932 . S
C234 C235 1.386 . S
C234 C236 1.397 . S
C234 H258 0.931 . S
C235 C234 1.386 . S
C235 C239 1.397 . S
C236 C234 1.397 . S
C236 C237 1.384 . S
C236 H259 0.930 . S
C237 C236 1.384 . S
C237 C238 1.377 . S
C237 C240 1.481 . S
C238 C237 1.377 . S
C238 C239 1.389 . S
C238 H260 0.929 . S
C239 C235 1.397 . S
C239 C238 1.389 . S
C239 H261 0.931 . S
C240 C237 1.481 . S
C240 C241 1.387 . S
C240 C245 1.390 . S
C241 C240 1.387 . S
C241 C242 1.401 . S
C241 H262 0.930 . S
C242 C241 1.401 . S
C242 C243 1.376 1_554 S
C242 C251 1.511 . S
C243 C242 1.376 1_556 S
C243 C244 1.392 . S
C243 H264 0.931 . S
C244 C243 1.392 . S
C244 C245 1.361 1_556 S
C244 C246 1.500 . S
C245 C240 1.390 . S
C245 C244 1.361 1_554 S
C245 H263 0.931 . S
C246 C244 1.500 . S
C246 C247 1.371 . S
C246 C248 1.365 . S
C247 C246 1.371 . S
C247 C257 1.386 . S
C247 H265 0.931 . S
C248 C246 1.365 . S
C248 C249 1.409 . S
C248 H266 0.929 . S
C249 C248 1.409 . S
C249 C250 1.380 . S
C249 H267 0.930 . S
C250 C249 1.380 . S
C250 C257 1.357 . S
C251 C242 1.511 . S
C251 C252 1.341 . S
C251 C253 1.371 . S
C252 C251 1.341 . S
C252 C256 1.394 . S
C252 H268 0.930 . S
C253 C251 1.371 . S
C253 C254 1.392 . S
C253 H269 0.931 1_554 S
C254 C253 1.392 . S
C254 C255 1.331 . S
C254 H272 0.932 . S
C255 C254 1.331 . S
C255 C256 1.336 . S
C256 C252 1.394 . S
C256 C255 1.336 . S
C256 H271 0.929 . S
C257 C247 1.386 . S
C257 C250 1.357 . S
C257 H270 0.928 . S
H258 C234 0.931 . S
H259 C236 0.930 . S
H260 C238 0.929 . S
H261 C239 0.931 . S
H262 C241 0.930 . S
H263 C245 0.931 . S
H264 C243 0.931 . S
H265 C247 0.931 . S
H266 C248 0.929 . S
H267 C249 0.930 . S
H268 C252 0.930 . S
H269 C253 0.931 1_556 S
H270 C257 0.928 . S
H271 C256 0.929 . S
H272 C254 0.932 . S
C273 C274 1.386 . S
C273 C275 1.397 . S
C273 H297 0.931 . S
C274 C273 1.386 . S
C274 C278 1.397 . S
C275 C273 1.397 . S
C275 C276 1.384 . S
C275 H298 0.930 . S
C276 C275 1.384 . S
C276 C277 1.377 . S
C276 C279 1.481 . S
C277 C276 1.377 . S
C277 C278 1.389 . S
C277 H299 0.929 . S
C278 C274 1.397 . S
C278 C277 1.389 . S
C278 H300 0.931 . S
C279 C276 1.481 . S
C279 C280 1.387 . S
C279 C284 1.390 1_556 S
C280 C279 1.387 . S
C280 C281 1.401 1_556 S
C280 H301 0.930 . S
C281 C280 1.401 1_554 S
C281 C282 1.376 . S
C281 C290 1.511 . S
C282 C281 1.376 . S
C282 C283 1.392 . S
C282 H303 0.931 . S
C283 C282 1.392 . S
C283 C284 1.361 . S
C283 C285 1.500 . S
C284 C279 1.390 1_554 S
C284 C283 1.361 . S
C284 H302 0.931 . S
C285 C283 1.500 . S
C285 C286 1.371 . S
C285 C287 1.365 . S
C286 C285 1.371 . S
C286 C296 1.386 . S
C286 H304 0.931 . S
C287 C285 1.365 . S
C287 C288 1.409 . S
C287 H305 0.929 . S
C288 C287 1.409 . S
C288 C289 1.380 . S
C288 H306 0.930 . S
C289 C288 1.380 . S
C289 C296 1.357 . S
C290 C281 1.511 . S
C290 C291 1.341 . S
C290 C292 1.371 . S
C291 C290 1.341 . S
C291 C295 1.394 . S
C291 H307 0.930 1_554 S
C292 C290 1.371 . S
C292 C293 1.392 . S
C292 H308 0.931 . S
C293 C292 1.392 . S
C293 C294 1.331 . S
C293 H311 0.932 . S
C294 C293 1.331 . S
C294 C295 1.336 . S
C295 C291 1.394 . S
C295 C294 1.336 . S
C295 H310 0.929 . S
C296 C286 1.386 . S
C296 C289 1.357 . S
C296 H309 0.928 . S
H297 C273 0.931 . S
H298 C275 0.930 . S
H299 C277 0.929 . S
H300 C278 0.931 . S
H301 C280 0.930 . S
H302 C284 0.931 . S
H303 C282 0.931 . S
H304 C286 0.931 . S
H305 C287 0.929 . S
H306 C288 0.930 . S
H307 C291 0.930 1_556 S
H308 C292 0.931 . S
H309 C296 0.928 . S
H310 C295 0.929 . S
H311 C293 0.932 . S
Tb312 N341 2.617 . S
Tb312 N347 2.572 . S
Tb312 O356 2.465 . S
Tb312 O357 2.387 1_545 S
Tb312 O359 2.428 . S
Tb312 O360 2.308 1_655 S
Tb312 O364 2.349 1_655 S
Tb312 O367 2.393 . S
Tb312 C376 2.802 . S
C313 N314 1.379 . S
C313 C316 1.416 . S
C313 C320 1.424 . S
N314 C313 1.379 . S
N314 C317 1.335 1_545 S
N314 Tb323 2.617 1_545 S
C315 C317 1.392 1_545 S
C315 C318 1.339 . S
C315 H335 0.930 . S
C316 C313 1.416 . S
C316 C318 1.416 . S
C316 C322 1.448 . S
C317 N314 1.335 1_565 S
C317 C315 1.392 1_565 S
C317 H328 0.928 . S
C318 C315 1.339 . S
C318 C316 1.416 . S
C318 H339 0.930 . S
C319 C320 1.413 . S
C319 C321 1.427 . S
C319 C325 1.416 . S
C320 C313 1.424 . S
C320 C319 1.413 . S
C320 N324 1.361 . S
C321 C319 1.427 . S
C321 C322 1.328 . S
C321 H336 0.929 . S
C322 C316 1.448 . S
C322 C321 1.328 . S
C322 H337 0.930 . S
Tb323 N314 2.617 1_565 S
Tb323 N324 2.572 1_565 S
Tb323 O358 2.349 . S
Tb323 O361 2.393 . S
Tb323 O362 2.465 . S
Tb323 O363 2.387 1_565 S
Tb323 O365 2.428 . S
Tb323 O366 2.308 1_465 S
Tb323 C387 2.802 . S
N324 C320 1.361 . S
N324 Tb323 2.572 1_545 S
N324 C326 1.340 . S
C325 C319 1.416 . S
C325 C327 1.332 . S
C325 H333 0.931 . S
C326 N324 1.340 . S
C326 C327 1.407 . S
C326 H332 0.907 1_455 S
C327 C325 1.332 . S
C327 C326 1.407 . S
C327 H329 0.929 . S
H328 C317 0.928 . S
H329 C327 0.929 . S
H330 C345 0.930 . S
H331 C352 0.929 1_455 S
H332 C326 0.907 1_655 S
H333 C325 0.931 . S
H334 C348 0.930 1_455 S
H335 C315 0.930 . S
H336 C321 0.929 . S
H337 C322 0.930 . S
H338 C343 0.930 . S
H339 C318 0.930 . S
H340 C351 0.931 . S
N341 Tb312 2.617 . S
N341 C342 1.379 . S
N341 C345 1.334 . S
C342 N341 1.379 . S
C342 C344 1.416 1_545 S
C342 C350 1.424 . S
C343 H338 0.930 . S
C343 C345 1.390 . S
C343 C346 1.325 1_545 S
C344 C342 1.416 1_565 S
C344 C346 1.419 . S
C344 C377 1.448 . S
C345 H330 0.930 . S
C345 N341 1.334 . S
C345 C343 1.390 . S
C346 C343 1.325 1_565 S
C346 C344 1.419 . S
C346 H353 0.942 . S
N347 Tb312 2.572 . S
N347 C348 1.340 . S
N347 C350 1.361 . S
C348 H334 0.930 1_655 S
C348 N347 1.340 . S
C348 C352 1.407 1_545 S
C349 C350 1.413 1_565 S
C349 C351 1.416 . S
C349 C378 1.427 . S
C350 C342 1.424 . S
C350 N347 1.361 . S
C350 C349 1.413 1_545 S
C351 H340 0.931 . S
C351 C349 1.416 . S
C351 C352 1.332 . S
C352 H331 0.929 1_655 S
C352 C348 1.407 1_565 S
C352 C351 1.332 . S
H353 C346 0.942 . S
H354 C377 0.930 . S
H355 C378 0.929 . S
O356 Tb312 2.465 . S
O356 C376 1.264 . S
O357 Tb312 2.387 1_565 S
O357 C368 1.264 . S
O358 Tb323 2.349 . S
O358 C368 1.243 1_455 S
O359 Tb312 2.428 . S
O359 C376 1.256 . S
O360 Tb312 2.308 1_455 S
O360 C375 1.266 . S
O361 Tb323 2.393 . S
O361 C375 1.248 1_565 S
O362 Tb323 2.465 . S
O362 C387 1.264 . S
O363 Tb323 2.387 1_545 S
O363 C379 1.264 . S
O364 Tb312 2.349 1_455 S
O364 C379 1.243 . S
O365 Tb323 2.428 . S
O365 C387 1.256 . S
O366 Tb323 2.308 1_645 S
O366 C386 1.266 . S
O367 Tb312 2.393 . S
O367 C386 1.248 . S
C368 O357 1.264 . S
C368 O358 1.243 1_655 S
C369 C372 1.399 . S
C369 C374 1.383 . S
C369 C376 1.496 . S
C370 C371 1.399 . S
C370 C374 1.389 . S
C371 C370 1.399 . S
C371 C373 1.380 . S
C371 H388 0.929 . S
C372 C369 1.399 . S
C372 C373 1.392 . S
C372 H389 0.929 . S
C373 C371 1.380 . S
C373 C372 1.392 . S
C373 H390 0.929 . S
C374 C369 1.383 . S
C374 C370 1.389 . S
C374 H391 0.931 1_655 S
C375 O360 1.266 . S
C375 O361 1.248 1_545 S
C376 Tb312 2.802 . S
C376 O356 1.264 . S
C376 O359 1.256 . S
C376 C369 1.496 . S
C377 C344 1.448 . S
C377 H354 0.930 . S
C377 C378 1.328 . S
C378 C349 1.427 . S
C378 H355 0.929 . S
C378 C377 1.328 . S
C379 O363 1.264 . S
C379 O364 1.243 . S
C380 C383 1.399 . S
C380 C384 1.383 . S
C380 C387 1.496 . S
C381 C382 1.399 . S
C381 C384 1.389 . S
C382 C381 1.399 . S
C382 C385 1.380 . S
C382 H392 0.929 . S
C383 C380 1.399 . S
C383 C385 1.392 . S
C383 H393 0.929 . S
C384 C380 1.383 . S
C384 C381 1.389 . S
C384 H394 0.931 . S
C385 C382 1.380 . S
C385 C383 1.392 . S
C385 H395 0.929 . S
C386 O366 1.266 . S
C386 O367 1.248 . S
C387 Tb323 2.802 . S
C387 O362 1.264 . S
C387 O365 1.256 . S
C387 C380 1.496 . S
H388 C371 0.929 . S
H389 C372 0.929 . S
H390 C373 0.929 . S
H391 C374 0.931 1_455 S
H392 C382 0.929 . S
H393 C383 0.929 . S
H394 C384 0.931 . S
H395 C385 0.929 . S
Tb396 N425 2.617 . S
Tb396 N431 2.572 . S
Tb396 O440 2.465 . S
Tb396 O441 2.387 . S
Tb396 O443 2.428 . S
Tb396 O444 2.308 . S
Tb396 O448 2.349 1_545 S
Tb396 O451 2.393 . S
Tb396 C460 2.802 . S
C397 N398 1.379 . S
C397 C400 1.416 . S
C397 C404 1.424 . S
N398 C397 1.379 . S
N398 C401 1.334 . S
N398 Tb407 2.617 . S
C399 C401 1.390 . S
C399 C402 1.339 . S
C399 H419 0.930 . S
C400 C397 1.416 . S
C400 C402 1.416 . S
C400 C406 1.448 . S
C401 N398 1.334 . S
C401 C399 1.390 . S
C401 H412 0.930 . S
C402 C399 1.339 . S
C402 C400 1.416 . S
C402 H423 0.930 . S
C403 C404 1.413 . S
C403 C405 1.427 . S
C403 C409 1.416 . S
C404 C397 1.424 . S
C404 C403 1.413 . S
C404 N408 1.361 . S
C405 C403 1.427 . S
C405 C406 1.328 . S
C405 H420 0.929 . S
C406 C400 1.448 . S
C406 C405 1.328 . S
C406 H421 0.930 . S
Tb407 N398 2.617 . S
Tb407 N408 2.572 . S
Tb407 O442 2.349 1_565 S
Tb407 O445 2.393 . S
Tb407 O446 2.465 . S
Tb407 O447 2.387 . S
Tb407 O449 2.428 . S
Tb407 O450 2.308 1_565 S
Tb407 C471 2.802 . S
N408 C404 1.361 . S
N408 Tb407 2.572 . S
N408 C410 1.340 . S
C409 C403 1.416 . S
C409 C411 1.332 . S
C409 H417 0.931 . S
C410 N408 1.340 . S
C410 C411 1.407 . S
C410 H416 0.930 . S
C411 C409 1.332 . S
C411 C410 1.407 . S
C411 H413 0.929 . S
H412 C401 0.930 . S
H413 C411 0.929 . S
H414 C429 0.930 . S
H415 C436 0.929 . S
H416 C410 0.930 . S
H417 C409 0.931 . S
H418 C432 0.930 . S
H419 C399 0.930 . S
H420 C405 0.929 . S
H421 C406 0.930 . S
H422 C427 0.930 . S
H423 C402 0.930 . S
H424 C435 0.931 . S
N425 Tb396 2.617 . S
N425 C426 1.379 . S
N425 C429 1.334 . S
C426 N425 1.379 . S
C426 C428 1.416 . S
C426 C434 1.424 . S
C427 H422 0.930 . S
C427 C429 1.390 . S
C427 C430 1.339 . S
C428 C426 1.416 . S
C428 C430 1.416 . S
C428 C461 1.448 . S
C429 H414 0.930 . S
C429 N425 1.334 . S
C429 C427 1.390 . S
C430 C427 1.339 . S
C430 C428 1.416 . S
C430 H437 0.930 . S
N431 Tb396 2.572 . S
N431 C432 1.340 . S
N431 C434 1.361 . S
C432 H418 0.930 . S
C432 N431 1.340 . S
C432 C436 1.407 . S
C433 C434 1.413 . S
C433 C435 1.416 . S
C433 C462 1.427 . S
C434 C426 1.424 . S
C434 N431 1.361 . S
C434 C433 1.413 . S
C435 H424 0.931 . S
C435 C433 1.416 . S
C435 C436 1.332 . S
C436 H415 0.929 . S
C436 C432 1.407 . S
C436 C435 1.332 . S
H437 C430 0.930 . S
H438 C461 0.930 . S
H439 C462 0.929 . S
O440 Tb396 2.465 . S
O440 C460 1.264 . S
O441 Tb396 2.387 . S
O441 C452 1.264 . S
O442 Tb407 2.349 1_545 S
O442 C452 1.243 . S
O443 Tb396 2.428 . S
O443 C460 1.256 . S
O444 Tb396 2.308 . S
O444 C459 1.255 1_545 S
O445 Tb407 2.393 . S
O445 C459 1.255 . S
O446 Tb407 2.465 . S
O446 C471 1.264 . S
O447 Tb407 2.387 . S
O447 C463 1.264 . S
O448 Tb396 2.349 1_565 S
O448 C463 1.243 . S
O449 Tb407 2.428 . S
O449 C471 1.256 . S
O450 Tb407 2.308 1_545 S
O450 C470 1.266 . S
O451 Tb396 2.393 . S
O451 C470 1.248 . S
C452 O441 1.264 . S
C452 O442 1.243 . S
C453 C456 1.399 . S
C453 C458 1.383 . S
C453 C460 1.496 . S
C454 C455 1.399 . S
C454 C458 1.389 . S
C455 C454 1.399 . S
C455 C457 1.380 . S
C455 H472 0.929 . S
C456 C453 1.399 . S
C456 C457 1.392 . S
C456 H473 0.929 . S
C457 C455 1.380 . S
C457 C456 1.392 . S
C457 H474 0.938 . S
C458 C453 1.383 . S
C458 C454 1.389 . S
C458 H475 0.931 . S
C459 O444 1.255 1_565 S
C459 O445 1.255 . S
C460 Tb396 2.802 . S
C460 O440 1.264 . S
C460 O443 1.256 . S
C460 C453 1.496 . S
C461 C428 1.448 . S
C461 H438 0.930 . S
C461 C462 1.328 . S
C462 C433 1.427 . S
C462 H439 0.929 . S
C462 C461 1.328 . S
C463 O447 1.264 . S
C463 O448 1.243 . S
C464 C467 1.399 . S
C464 C468 1.383 1_565 S
C464 C471 1.496 . S
C465 C466 1.399 1_545 S
C465 C468 1.389 . S
C466 C465 1.399 1_565 S
C466 C469 1.380 . S
C466 H476 0.929 . S
C467 C464 1.399 . S
C467 C469 1.392 . S
C467 H477 0.929 . S
C468 C464 1.383 1_545 S
C468 C465 1.389 . S
C468 H478 0.931 . S
C469 C466 1.380 . S
C469 C467 1.392 . S
C469 H479 0.929 . S
C470 O450 1.266 . S
C470 O451 1.248 . S
C471 Tb407 2.802 . S
C471 O446 1.264 . S
C471 O449 1.256 . S
C471 C464 1.496 . S
H472 C455 0.929 . S
H473 C456 0.929 . S
H474 C457 0.938 . S
H475 C458 0.931 . S
H476 C466 0.929 . S
H477 C467 0.929 . S
H478 C468 0.931 . S
H479 C469 0.929 . S
Tb480 N509 2.617 . S
Tb480 N515 2.572 . S
Tb480 O524 2.465 . S
Tb480 O525 2.387 . S
Tb480 O527 2.428 . S
Tb480 O528 2.308 . S
Tb480 O532 2.349 . S
Tb480 O535 2.393 . S
Tb480 C544 2.802 . S
C481 N482 1.379 . S
C481 C484 1.416 . S
C481 C488 1.424 . S
N482 C481 1.379 . S
N482 C485 1.334 . S
N482 Tb491 2.617 . S
C483 C485 1.390 . S
C483 C486 1.339 . S
C483 H503 0.930 . S
C484 C481 1.416 . S
C484 C486 1.416 . S
C484 C490 1.448 . S
C485 N482 1.334 . S
C485 C483 1.390 . S
C485 H496 0.930 . S
C486 C483 1.339 . S
C486 C484 1.416 . S
C486 H507 0.930 . S
C487 C488 1.413 . S
C487 C489 1.427 . S
C487 C493 1.416 . S
C488 C481 1.424 . S
C488 C487 1.413 . S
C488 N492 1.361 . S
C489 C487 1.427 . S
C489 C490 1.328 . S
C489 H504 0.929 . S
C490 C484 1.448 . S
C490 C489 1.328 . S
C490 H505 0.930 . S
Tb491 N482 2.617 . S
Tb491 N492 2.572 . S
Tb491 O526 2.349 . S
Tb491 O529 2.393 . S
Tb491 O530 2.465 . S
Tb491 O531 2.387 . S
Tb491 O533 2.428 . S
Tb491 O534 2.308 . S
Tb491 C555 2.802 . S
N492 C488 1.361 . S
N492 Tb491 2.572 . S
N492 C494 1.340 . S
C493 C487 1.416 . S
C493 C495 1.332 . S
C493 H501 0.931 . S
C494 N492 1.340 . S
C494 C495 1.407 . S
C494 H500 0.930 . S
C495 C493 1.332 . S
C495 C494 1.407 . S
C495 H497 0.929 . S
H496 C485 0.930 . S
H497 C495 0.929 . S
H498 C513 0.930 . S
H499 C520 0.929 . S
H500 C494 0.930 . S
H501 C493 0.931 . S
H502 C516 0.930 . S
H503 C483 0.930 . S
H504 C489 0.929 . S
H505 C490 0.930 . S
H506 C511 0.930 . S
H507 C486 0.930 . S
H508 C519 0.931 . S
N509 Tb480 2.617 . S
N509 C510 1.379 . S
N509 C513 1.334 . S
C510 N509 1.379 . S
C510 C512 1.416 . S
C510 C518 1.424 . S
C511 H506 0.930 . S
C511 C513 1.390 . S
C511 C514 1.339 . S
C512 C510 1.416 . S
C512 C514 1.416 . S
C512 C545 1.448 . S
C513 H498 0.930 . S
C513 N509 1.334 . S
C513 C511 1.390 . S
C514 C511 1.339 . S
C514 C512 1.416 . S
C514 H521 0.930 . S
N515 Tb480 2.572 . S
N515 C516 1.340 . S
N515 C518 1.361 . S
C516 H502 0.930 . S
C516 N515 1.340 . S
C516 C520 1.407 . S
C517 C518 1.413 . S
C517 C519 1.416 . S
C517 C546 1.427 . S
C518 C510 1.424 . S
C518 N515 1.361 . S
C518 C517 1.413 . S
C519 H508 0.931 . S
C519 C517 1.416 . S
C519 C520 1.332 . S
C520 H499 0.929 . S
C520 C516 1.407 . S
C520 C519 1.332 . S
H521 C514 0.930 . S
H522 C545 0.930 . S
H523 C546 0.929 . S
O524 Tb480 2.465 . S
O524 C544 1.264 . S
O525 Tb480 2.387 . S
O525 C536 1.264 . S
O526 Tb491 2.349 . S
O526 C536 1.243 . S
O527 Tb480 2.428 . S
O527 C544 1.256 . S
O528 Tb480 2.308 . S
O528 C543 1.266 . S
O529 Tb491 2.393 . S
O529 C543 1.248 . S
O530 Tb491 2.465 . S
O530 C555 1.264 . S
O531 Tb491 2.387 . S
O531 C547 1.264 . S
O532 Tb480 2.349 . S
O532 C547 1.243 . S
O533 Tb491 2.428 . S
O533 C555 1.256 . S
O534 Tb491 2.308 . S
O534 C554 1.266 . S
O535 Tb480 2.393 . S
O535 C554 1.248 . S
C536 O525 1.264 . S
C536 O526 1.243 . S
C537 C540 1.399 . S
C537 C542 1.383 . S
C537 C544 1.496 . S
C538 C539 1.399 . S
C538 C542 1.389 . S
C539 C538 1.399 . S
C539 C541 1.380 . S
C539 H556 0.929 . S
C540 C537 1.399 . S
C540 C541 1.392 . S
C540 H557 0.929 . S
C541 C539 1.380 . S
C541 C540 1.392 . S
C541 H558 0.929 . S
C542 C537 1.383 . S
C542 C538 1.389 . S
C542 H559 0.931 . S
C543 O528 1.266 . S
C543 O529 1.248 . S
C544 Tb480 2.802 . S
C544 O524 1.264 . S
C544 O527 1.256 . S
C544 C537 1.496 . S
C545 C512 1.448 . S
C545 H522 0.930 . S
C545 C546 1.328 . S
C546 C517 1.427 . S
C546 H523 0.929 . S
C546 C545 1.328 . S
C547 O531 1.264 . S
C547 O532 1.243 . S
C548 C551 1.399 . S
C548 C552 1.383 . S
C548 C555 1.496 . S
C549 C550 1.399 . S
C549 C552 1.389 . S
C550 C549 1.399 . S
C550 C553 1.380 . S
C550 H560 0.929 . S
C551 C548 1.399 . S
C551 C553 1.392 . S
C551 H561 0.929 . S
C552 C548 1.383 . S
C552 C549 1.389 . S
C552 H562 0.931 . S
C553 C550 1.380 . S
C553 C551 1.392 . S
C553 H563 0.929 . S
C554 O534 1.266 . S
C554 O535 1.248 . S
C555 Tb491 2.802 . S
C555 O530 1.264 . S
C555 O533 1.256 . S
C555 C548 1.496 . S
H556 C539 0.929 . S
H557 C540 0.929 . S
H558 C541 0.929 . S
H559 C542 0.931 . S
H560 C550 0.929 . S
H561 C551 0.929 . S
H562 C552 0.931 . S
H563 C553 0.929 . S
Tb564 N593 2.617 . S
Tb564 N599 2.572 . S
Tb564 O608 2.465 . S
Tb564 O609 2.387 1_455 S
Tb564 O611 2.428 . S
Tb564 O612 2.308 . S
Tb564 O616 2.349 . S
Tb564 O619 2.393 . S
Tb564 C628 2.802 . S
C565 N566 1.379 1_455 S
C565 C568 1.416 . S
C565 C572 1.424 . S
N566 C565 1.379 1_655 S
N566 C569 1.334 . S
N566 Tb575 2.617 . S
C567 C569 1.390 1_455 S
C567 C570 1.339 . S
C567 H587 0.930 . S
C568 C565 1.416 . S
C568 C570 1.416 . S
C568 C574 1.448 . S
C569 N566 1.334 . S
C569 C567 1.390 1_655 S
C569 H580 0.930 . S
C570 C567 1.339 . S
C570 C568 1.416 . S
C570 H591 0.930 . S
C571 C572 1.413 . S
C571 C573 1.427 . S
C571 C577 1.416 . S
C572 C565 1.424 . S
C572 C571 1.413 . S
C572 N576 1.361 . S
C573 C571 1.427 . S
C573 C574 1.328 . S
C573 H588 0.929 . S
C574 C568 1.448 . S
C574 C573 1.328 . S
C574 H589 0.930 . S
Tb575 N566 2.617 . S
Tb575 N576 2.572 1_655 S
Tb575 O610 2.349 . S
Tb575 O613 2.393 . S
Tb575 O614 2.465 . S
Tb575 O615 2.387 1_655 S
Tb575 O617 2.428 . S
Tb575 O618 2.318 . S
Tb575 C639 2.802 . S
N576 C572 1.361 . S
N576 Tb575 2.572 1_455 S
N576 C578 1.340 . S
C577 C571 1.416 . S
C577 C579 1.332 . S
C577 H585 0.931 . S
C578 N576 1.340 . S
C578 C579 1.407 . S
C578 H584 0.930 1_455 S
C579 C577 1.332 . S
C579 C578 1.407 . S
C579 H581 0.929 . S
H580 C569 0.930 . S
H581 C579 0.929 . S
H582 C597 0.930 . S
H583 C604 0.929 . S
H584 C578 0.930 1_655 S
H585 C577 0.931 . S
H586 C600 0.930 . S
H587 C567 0.930 . S
H588 C573 0.929 . S
H589 C574 0.930 . S
H590 C595 0.930 . S
H591 C570 0.930 . S
H592 C603 0.931 . S
N593 Tb564 2.617 . S
N593 C594 1.379 . S
N593 C597 1.334 . S
C594 N593 1.379 . S
C594 C596 1.416 1_455 S
C594 C602 1.427 . S
C595 H590 0.930 . S
C595 C597 1.390 . S
C595 C598 1.339 1_455 S
C596 C594 1.416 1_655 S
C596 C598 1.416 . S
C596 C629 1.448 . S
C597 H582 0.930 . S
C597 N593 1.334 . S
C597 C595 1.390 . S
C598 C595 1.339 1_655 S
C598 C596 1.416 . S
C598 H605 0.930 . S
N599 Tb564 2.572 . S
N599 C600 1.340 . S
N599 C602 1.373 . S
C600 H586 0.930 . S
C600 N599 1.340 . S
C600 C604 1.407 1_455 S
C601 C602 1.399 1_655 S
C601 C603 1.416 . S
C601 C630 1.427 . S
C602 C594 1.427 . S
C602 N599 1.373 . S
C602 C601 1.399 1_455 S
C603 H592 0.931 . S
C603 C601 1.416 . S
C603 C604 1.332 . S
C604 H583 0.929 . S
C604 C600 1.407 1_655 S
C604 C603 1.332 . S
H605 C598 0.930 . S
H606 C629 0.930 . S
H607 C630 0.929 . S
O608 Tb564 2.465 . S
O608 C628 1.264 . S
O609 Tb564 2.387 1_655 S
O609 C620 1.264 . S
O610 Tb575 2.349 . S
O610 C620 1.243 . S
O611 Tb564 2.428 . S
O611 C628 1.256 . S
O612 Tb564 2.308 . S
O612 C627 1.266 . S
O613 Tb575 2.393 . S
O613 C627 1.248 1_655 S
O614 Tb575 2.465 . S
O614 C639 1.264 . S
O615 Tb575 2.387 1_455 S
O615 C631 1.264 . S
O616 Tb564 2.349 . S
O616 C631 1.243 . S
O617 Tb575 2.428 . S
O617 C639 1.256 . S
O618 Tb575 2.318 . S
O618 C638 1.259 1_655 S
O619 Tb564 2.393 . S
O619 C638 1.248 . S
C620 O609 1.264 . S
C620 O610 1.243 . S
C621 C624 1.399 . S
C621 C626 1.383 . S
C621 C628 1.496 . S
C622 C623 1.399 . S
C622 C626 1.389 . S
C623 C622 1.399 . S
C623 C625 1.380 . S
C623 H640 0.929 . S
C624 C621 1.399 . S
C624 C625 1.392 . S
C624 H641 0.929 . S
C625 C623 1.380 . S
C625 C624 1.392 . S
C625 H642 0.929 . S
C626 C621 1.383 . S
C626 C622 1.389 . S
C626 H643 0.931 . S
C627 O612 1.266 . S
C627 O613 1.248 1_455 S
C628 Tb564 2.802 . S
C628 O608 1.264 . S
C628 O611 1.256 . S
C628 C621 1.496 . S
C629 C596 1.448 . S
C629 H606 0.930 . S
C629 C630 1.328 . S
C630 C601 1.427 . S
C630 H607 0.929 . S
C630 C629 1.328 . S
C631 O615 1.264 . S
C631 O616 1.243 . S
C632 C635 1.399 . S
C632 C636 1.383 . S
C632 C639 1.496 . S
C633 C634 1.399 . S
C633 C636 1.389 . S
C634 C633 1.399 . S
C634 C637 1.380 . S
C634 H644 0.929 . S
C635 C632 1.399 . S
C635 C637 1.392 . S
C635 H645 0.929 . S
C636 C632 1.383 . S
C636 C633 1.389 . S
C636 H646 0.931 . S
C637 C634 1.380 . S
C637 C635 1.392 . S
C637 H647 0.929 . S
C638 O618 1.259 1_455 S
C638 O619 1.248 . S
C639 Tb575 2.802 . S
C639 O614 1.264 . S
C639 O617 1.256 . S
C639 C632 1.496 . S
H640 C623 0.929 . S
H641 C624 0.929 . S
H642 C625 0.929 . S
H643 C626 0.931 . S
H644 C634 0.929 . S
H645 C635 0.929 . S
H646 C636 0.931 . S
H647 C637 0.929 . S
H648 C654 0.930 . S
H649 C658 0.930 . S
H650 C663 0.929 . S
H651 C661 0.929 . S
H652 C656 0.929 . S
H653 C662 0.929 . S
C654 H648 0.930 . S
C654 C655 1.367 . S
C654 C662 1.378 . S
C655 C654 1.367 . S
C655 C663 1.433 . S
C656 H652 0.929 . S
C656 C658 1.378 . S
C656 C660 1.350 . S
C657 C660 1.463 . S
C657 C662 1.350 . S
C657 N665 1.427 . S
C658 H649 0.930 . S
C658 C656 1.378 . S
C658 C659 1.367 . S
C659 C658 1.367 . S
C659 C661 1.433 . S
C660 C656 1.350 . S
C660 C657 1.463 . S
C660 N664 1.427 . S
C661 H651 0.929 . S
C661 C659 1.433 . S
C661 N664 1.384 . S
C662 H653 0.929 . S
C662 C654 1.378 . S
C662 C657 1.350 . S
C663 H650 0.929 . S
C663 C655 1.433 . S
C663 N665 1.384 . S
N664 C660 1.427 . S
N664 C661 1.384 . S
N665 C657 1.427 . S
N665 C663 1.384 . S
H666 C672 0.930 . S
H667 C676 0.930 . S
H668 C681 0.929 . S
H669 C679 0.929 . S
H670 C674 0.929 . S
H671 C680 0.929 . S
C672 H666 0.930 . S
C672 C673 1.367 . S
C672 C680 1.378 . S
C673 C672 1.367 . S
C673 C681 1.433 . S
C674 H670 0.929 . S
C674 C676 1.378 . S
C674 C678 1.350 . S
C675 C678 1.463 . S
C675 C680 1.350 . S
C675 N683 1.427 . S
C676 H667 0.930 . S
C676 C674 1.378 . S
C676 C677 1.367 . S
C677 C676 1.367 . S
C677 C679 1.433 . S
C678 C674 1.350 . S
C678 C675 1.463 . S
C678 N682 1.427 . S
C679 H669 0.929 . S
C679 C677 1.433 . S
C679 N682 1.384 . S
C680 H671 0.929 . S
C680 C672 1.378 . S
C680 C675 1.350 . S
C681 H668 0.929 . S
C681 C673 1.433 . S
C681 N683 1.384 . S
N682 C678 1.427 . S
N682 C679 1.384 . S
N683 C675 1.427 . S
N683 C681 1.384 . S
H684 C690 0.930 . S
H685 C694 0.930 . S
H686 C699 0.929 . S
H687 C697 0.929 . S
H688 C692 0.929 . S
H689 C698 0.929 . S
C690 H684 0.930 . S
C690 C691 1.367 . S
C690 C698 1.378 . S
C691 C690 1.367 . S
C691 C699 1.433 . S
C692 H688 0.929 . S
C692 C694 1.378 . S
C692 C696 1.350 . S
C693 C696 1.463 . S
C693 C698 1.350 . S
C693 N701 1.427 . S
C694 H685 0.930 . S
C694 C692 1.378 . S
C694 C695 1.367 . S
C695 C694 1.367 . S
C695 C697 1.433 . S
C696 C692 1.350 . S
C696 C693 1.463 . S
C696 N700 1.427 . S
C697 H687 0.929 . S
C697 C695 1.433 . S
C697 N700 1.384 . S
C698 H689 0.929 . S
C698 C690 1.378 . S
C698 C693 1.350 . S
C699 H686 0.929 . S
C699 C691 1.433 . S
C699 N701 1.384 . S
N700 C696 1.427 . S
N700 C697 1.384 . S
N701 C693 1.427 . S
N701 C699 1.384 . S
H702 C708 0.930 . S
H703 C712 0.930 . S
H704 C717 0.929 . S
H705 C715 0.929 1_655 S
H706 C710 0.929 . S
H707 C716 0.929 . S
C708 H702 0.930 . S
C708 C709 1.367 . S
C708 C716 1.378 . S
C709 C708 1.367 . S
C709 C717 1.433 . S
C710 H706 0.929 . S
C710 C712 1.378 . S
C710 C714 1.350 . S
C711 C714 1.463 . S
C711 C716 1.350 . S
C711 N719 1.427 . S
C712 H703 0.930 . S
C712 C710 1.378 . S
C712 C713 1.367 . S
C713 C712 1.367 . S
C713 C715 1.433 . S
C714 C710 1.350 . S
C714 C711 1.463 . S
C714 N718 1.427 . S
C715 H705 0.929 1_455 S
C715 C713 1.433 . S
C715 N718 1.384 . S
C716 H707 0.929 . S
C716 C708 1.378 . S
C716 C711 1.350 . S
C717 H704 0.929 . S
C717 C709 1.433 . S
C717 N719 1.384 . S
N718 C714 1.427 . S
N718 C715 1.384 . S
N719 C711 1.427 . S
N719 C717 1.384 . S
H720 C726 0.930 . S
H721 C730 0.930 . S
H722 C735 0.929 1_545 S
H723 C733 0.929 . S
H724 C728 0.929 . S
H725 C734 0.929 . S
C726 H720 0.930 . S
C726 C727 1.367 . S
C726 C734 1.378 1_554 S
C727 C726 1.367 . S
C727 C735 1.433 . S
C728 H724 0.929 . S
C728 C730 1.378 . S
C728 C732 1.350 1_545 S
C729 C732 1.463 . S
C729 C734 1.350 . S
C729 N737 1.415 1_566 S
C730 H721 0.930 . S
C730 C728 1.378 . S
C730 C731 1.367 1_545 S
C731 C730 1.367 1_565 S
C731 C733 1.433 . S
C732 C728 1.350 1_565 S
C732 C729 1.463 . S
C732 N736 1.427 . S
C733 H723 0.929 . S
C733 C731 1.433 . S
C733 N736 1.384 . S
C734 H725 0.929 . S
C734 C726 1.378 1_556 S
C734 C729 1.350 . S
C735 H722 0.929 1_565 S
C735 C727 1.433 . S
C735 N737 1.381 1_565 S
N736 C732 1.427 . S
N736 C733 1.384 . S
N737 C729 1.415 1_544 S
N737 C735 1.381 1_545 S
H738 C744 0.930 . S
H739 C748 0.930 . S
H740 C753 0.929 . S
H741 C751 0.929 . S
H742 C746 0.929 . S
H743 C752 0.929 . S
C744 H738 0.930 . S
C744 C745 1.367 . S
C744 C752 1.378 1_554 S
C745 C744 1.367 . S
C745 C753 1.433 . S
C746 H742 0.929 . S
C746 C748 1.378 . S
C746 C750 1.350 . S
C747 C750 1.463 . S
C747 C752 1.350 . S
C747 N755 1.427 1_556 S
C748 H739 0.930 . S
C748 C746 1.378 . S
C748 C749 1.367 . S
C749 C748 1.367 . S
C749 C751 1.433 . S
C750 C746 1.350 . S
C750 C747 1.463 . S
C750 N754 1.427 . S
C751 H741 0.929 . S
C751 C749 1.433 . S
C751 N754 1.384 . S
C752 H743 0.929 . S
C752 C744 1.378 1_556 S
C752 C747 1.350 . S
C753 H740 0.929 . S
C753 C745 1.433 . S
C753 N755 1.384 . S
N754 C750 1.427 . S
N754 C751 1.384 . S
N755 C747 1.427 1_554 S
N755 C753 1.384 . S
H756 C762 0.930 . S
H757 C766 0.930 . S
H758 C771 0.929 . S
H759 C769 0.929 . S
H760 C764 0.929 . S
H761 C770 0.929 . S
C762 H756 0.930 . S
C762 C763 1.367 . S
C762 C770 1.378 1_554 S
C763 C762 1.367 . S
C763 C771 1.433 . S
C764 H760 0.929 . S
C764 C766 1.378 . S
C764 C768 1.350 . S
C765 C768 1.463 . S
C765 C770 1.350 . S
C765 N773 1.427 1_556 S
C766 H757 0.930 . S
C766 C764 1.378 . S
C766 C767 1.367 . S
C767 C766 1.367 . S
C767 C769 1.433 . S
C768 C764 1.350 . S
C768 C765 1.463 . S
C768 N772 1.427 . S
C769 H759 0.929 . S
C769 C767 1.433 . S
C769 N772 1.384 . S
C770 H761 0.929 . S
C770 C762 1.378 1_556 S
C770 C765 1.350 . S
C771 H758 0.929 . S
C771 C763 1.433 . S
C771 N773 1.384 . S
N772 C768 1.427 . S
N772 C769 1.384 . S
N773 C765 1.427 1_554 S
N773 C771 1.384 . S
H774 C780 0.930 . S
H775 C784 0.930 . S
H776 C789 0.929 1_455 S
H777 C787 0.929 . S
H778 C782 0.929 . S
H779 C788 0.929 1_556 S
C780 H774 0.930 . S
C780 C781 1.367 . S
C780 C788 1.378 . S
C781 C780 1.367 . S
C781 C789 1.433 . S
C782 H778 0.929 . S
C782 C784 1.378 . S
C782 C786 1.350 1_455 S
C783 C786 1.463 . S
C783 C788 1.350 1_556 S
C783 N791 1.431 1_556 S
C784 H775 0.930 . S
C784 C782 1.378 . S
C784 C785 1.367 1_455 S
C785 C784 1.367 1_655 S
C785 C787 1.433 . S
C786 C782 1.350 1_655 S
C786 C783 1.463 . S
C786 N790 1.427 . S
C787 H777 0.929 . S
C787 C785 1.433 . S
C787 N790 1.384 . S
C788 H779 0.929 1_554 S
C788 C780 1.378 . S
C788 C783 1.350 1_554 S
C789 H776 0.929 1_655 S
C789 C781 1.433 . S
C789 N791 1.384 . S
N790 C786 1.427 . S
N790 C787 1.384 . S
N791 C783 1.431 1_554 S
N791 C789 1.384 . S
H792 C798 0.930 . S
H793 C802 0.930 . S
H794 C807 0.929 . S
H795 C805 0.929 . S
H796 C800 0.929 . S
H797 C806 0.929 . S
C798 H792 0.930 . S
C798 C799 1.367 . S
C798 C806 1.378 . S
C799 C798 1.367 . S
C799 C807 1.433 . S
C800 H796 0.929 . S
C800 C802 1.378 . S
C800 C804 1.350 . S
C801 C804 1.463 . S
C801 C806 1.350 . S
C801 N809 1.427 . S
C802 H793 0.930 . S
C802 C800 1.378 . S
C802 C803 1.367 1_455 S
C803 C802 1.367 1_655 S
C803 C805 1.433 . S
C804 C800 1.350 . S
C804 C801 1.463 . S
C804 N808 1.427 . S
C805 H795 0.929 . S
C805 C803 1.433 . S
C805 N808 1.384 1_655 S
C806 H797 0.929 . S
C806 C798 1.378 . S
C806 C801 1.350 . S
C807 H794 0.929 . S
C807 C799 1.433 . S
C807 N809 1.384 . S
N808 C804 1.427 . S
N808 C805 1.384 1_455 S
N809 C801 1.427 . S
N809 C807 1.384 . S
H810 C816 0.930 . S
H811 C820 0.930 . S
H812 C825 0.929 . S
H813 C823 0.929 . S
H814 C818 0.929 . S
H815 C824 0.929 . S
C816 H810 0.930 . S
C816 C817 1.367 . S
C816 C824 1.378 . S
C817 C816 1.367 . S
C817 C825 1.433 . S
C818 H814 0.929 . S
C818 C820 1.378 . S
C818 C822 1.350 . S
C819 C822 1.463 . S
C819 C824 1.350 . S
C819 N827 1.427 . S
C820 H811 0.930 . S
C820 C818 1.378 . S
C820 C821 1.367 . S
C821 C820 1.367 . S
C821 C823 1.433 1_545 S
C822 C818 1.350 . S
C822 C819 1.463 . S
C822 N826 1.427 . S
C823 H813 0.929 . S
C823 C821 1.433 1_565 S
C823 N826 1.384 1_565 S
C824 H815 0.929 . S
C824 C816 1.378 . S
C824 C819 1.350 . S
C825 H812 0.929 . S
C825 C817 1.433 . S
C825 N827 1.384 . S
N826 C822 1.427 . S
N826 C823 1.384 1_545 S
N827 C819 1.427 . S
N827 C825 1.384 . S
H828 C834 0.930 . S
H829 C838 0.930 . S
H830 C843 0.929 . S
H831 C841 0.929 . S
H832 C836 0.929 . S
H833 C842 0.929 . S
C834 H828 0.930 . S
C834 C835 1.367 . S
C834 C842 1.378 . S
C835 C834 1.367 . S
C835 C843 1.433 . S
C836 H832 0.929 . S
C836 C838 1.378 . S
C836 C840 1.350 . S
C837 C840 1.463 . S
C837 C842 1.350 . S
C837 N845 1.427 . S
C838 H829 0.930 . S
C838 C836 1.378 . S
C838 C839 1.367 . S
C839 C838 1.367 . S
C839 C841 1.433 . S
C840 C836 1.350 . S
C840 C837 1.463 . S
C840 N844 1.427 . S
C841 H831 0.929 . S
C841 C839 1.433 . S
C841 N844 1.384 . S
C842 H833 0.929 . S
C842 C834 1.378 . S
C842 C837 1.350 . S
C843 H830 0.929 . S
C843 C835 1.433 . S
C843 N845 1.384 . S
N844 C840 1.427 . S
N844 C841 1.384 . S
N845 C837 1.427 . S
N845 C843 1.384 . S
H846 C852 0.930 . S
H847 C856 0.930 . S
H848 C861 0.929 . S
H849 C859 0.929 . S
H850 C854 0.929 . S
H851 C860 0.929 . S
C852 H846 0.930 . S
C852 C853 1.367 . S
C852 C860 1.378 . S
C853 C852 1.367 . S
C853 C861 1.433 . S
C854 H850 0.929 . S
C854 C856 1.378 . S
C854 C858 1.350 . S
C855 C858 1.463 . S
C855 C860 1.350 . S
C855 N863 1.427 . S
C856 H847 0.930 . S
C856 C854 1.378 . S
C856 C857 1.367 . S
C857 C856 1.367 . S
C857 C859 1.433 . S
C858 C854 1.350 . S
C858 C855 1.463 . S
C858 N862 1.427 . S
C859 H849 0.929 . S
C859 C857 1.433 . S
C859 N862 1.384 . S
C860 H851 0.929 . S
C860 C852 1.378 . S
C860 C855 1.350 . S
C861 H848 0.929 . S
C861 C853 1.433 . S
C861 N863 1.384 . S
N862 C858 1.427 . S
N862 C859 1.384 . S
N863 C855 1.427 . S
N863 C861 1.384 . S
H864 C870 0.930 . S
H865 C874 0.930 . S
H866 C879 0.929 . S
H867 C877 0.929 . S
H868 C872 0.929 . S
H869 C878 0.929 1_455 S
C870 H864 0.930 . S
C870 C871 1.367 . S
C870 C878 1.378 1_554 S
C871 C870 1.367 . S
C871 C879 1.433 . S
C872 H868 0.929 . S
C872 C874 1.378 . S
C872 C876 1.350 . S
C873 C876 1.463 . S
C873 C878 1.350 . S
C873 N881 1.427 . S
C874 H865 0.930 . S
C874 C872 1.378 . S
C874 C875 1.367 1_655 S
C875 C874 1.367 1_455 S
C875 C877 1.433 . S
C876 C872 1.350 . S
C876 C873 1.463 . S
C876 N880 1.427 1_655 S
C877 H867 0.929 . S
C877 C875 1.433 . S
C877 N880 1.384 . S
C878 H869 0.929 1_655 S
C878 C870 1.378 1_556 S
C878 C873 1.350 . S
C879 H866 0.929 . S
C879 C871 1.433 . S
C879 N881 1.384 1_554 S
N880 C876 1.427 1_455 S
N880 C877 1.384 . S
N881 C873 1.427 . S
N881 C879 1.384 1_556 S
H882 C888 0.930 . S
H883 C892 0.930 . S
H884 C897 0.929 . S
H885 C895 0.930 . S
H886 C890 0.929 . S
H887 C896 0.929 . S
C888 H882 0.930 . S
C888 C889 1.367 . S
C888 C896 1.378 . S
C889 C888 1.367 . S
C889 C897 1.433 1_554 S
C890 H886 0.929 . S
C890 C892 1.378 . S
C890 C894 1.350 1_545 S
C891 C894 1.463 . S
C891 C896 1.350 1_556 S
C891 N899 1.427 . S
C892 H883 0.930 . S
C892 C890 1.378 . S
C892 C893 1.367 . S
C893 C892 1.367 . S
C893 C895 1.433 . S
C894 C890 1.350 1_565 S
C894 C891 1.463 . S
C894 N898 1.427 . S
C895 H885 0.930 . S
C895 C893 1.433 . S
C895 N898 1.384 1_545 S
C896 H887 0.929 . S
C896 C888 1.378 . S
C896 C891 1.350 1_554 S
C897 H884 0.929 . S
C897 C889 1.433 1_556 S
C897 N899 1.384 . S
N898 C894 1.427 . S
N898 C895 1.384 1_565 S
N899 C891 1.427 . S
N899 C897 1.384 . S
H900 C906 0.930 . S
H901 C910 0.930 . S
H902 C915 0.929 . S
H903 C913 0.929 . S
H904 C908 0.929 . S
H905 C914 0.929 . S
C906 H900 0.930 . S
C906 C907 1.367 . S
C906 C914 1.378 . S
C907 C906 1.367 . S
C907 C915 1.433 1_554 S
C908 H904 0.929 . S
C908 C910 1.378 . S
C908 C912 1.350 . S
C909 C912 1.463 . S
C909 C914 1.350 1_556 S
C909 N917 1.427 . S
C910 H901 0.930 . S
C910 C908 1.378 . S
C910 C911 1.367 . S
C911 C910 1.367 . S
C911 C913 1.433 . S
C912 C908 1.350 . S
C912 C909 1.463 . S
C912 N916 1.427 . S
C913 H903 0.929 . S
C913 C911 1.433 . S
C913 N916 1.384 . S
C914 H905 0.929 . S
C914 C906 1.378 . S
C914 C909 1.350 1_554 S
C915 H902 0.929 . S
C915 C907 1.433 1_556 S
C915 N917 1.384 . S
N916 C912 1.427 . S
N916 C913 1.384 . S
N917 C909 1.427 . S
N917 C915 1.384 . S
H918 C924 0.930 . S
H919 C928 0.930 . S
H920 C933 0.929 . S
H921 C931 0.929 . S
H922 C926 0.929 . S
H923 C932 0.929 . S
C924 H918 0.930 . S
C924 C925 1.367 . S
C924 C932 1.378 . S
C925 C924 1.367 . S
C925 C933 1.433 1_554 S
C926 H922 0.929 . S
C926 C928 1.378 . S
C926 C930 1.350 . S
C927 C930 1.463 . S
C927 C932 1.350 1_556 S
C927 N935 1.427 . S
C928 H919 0.930 . S
C928 C926 1.378 . S
C928 C929 1.367 . S
C929 C928 1.367 . S
C929 C931 1.433 . S
C930 C926 1.350 . S
C930 C927 1.463 . S
C930 N934 1.427 . S
C931 H921 0.929 . S
C931 C929 1.433 . S
C931 N934 1.384 . S
C932 H923 0.929 . S
C932 C924 1.378 . S
C932 C927 1.350 1_554 S
C933 H920 0.929 . S
C933 C925 1.433 1_556 S
C933 N935 1.384 . S
N934 C930 1.427 . S
N934 C931 1.384 . S
N935 C927 1.427 . S
N935 C933 1.384 . S
H936 C942 0.930 . S
H937 C946 0.930 . S
H938 C951 0.929 . S
H939 C949 0.929 . S
H940 C944 0.929 . S
H941 C950 0.929 . S
C942 H936 0.930 . S
C942 C943 1.367 . S
C942 C950 1.378 . S
C943 C942 1.367 . S
C943 C951 1.433 . S
C944 H940 0.929 . S
C944 C946 1.378 . S
C944 C948 1.350 . S
C945 C948 1.463 . S
C945 C950 1.350 . S
C945 N953 1.427 . S
C946 H937 0.930 . S
C946 C944 1.378 . S
C946 C947 1.367 . S
C947 C946 1.367 . S
C947 C949 1.433 . S
C948 C944 1.350 . S
C948 C945 1.463 . S
C948 N952 1.427 . S
C949 H939 0.929 . S
C949 C947 1.433 . S
C949 N952 1.384 . S
C950 H941 0.929 . S
C950 C942 1.378 . S
C950 C945 1.350 . S
C951 H938 0.929 . S
C951 C943 1.433 . S
C951 N953 1.384 . S
N952 C948 1.427 . S
N952 C949 1.384 . S
N953 C945 1.427 . S
N953 C951 1.384 . S
H954 C960 0.930 . S
H955 C964 0.930 . S
H956 C969 0.929 . S
H957 C967 0.929 . S
H958 C962 0.929 . S
H959 C968 0.929 . S
C960 H954 0.930 . S
C960 C961 1.367 . S
C960 C968 1.378 . S
C961 C960 1.367 . S
C961 C969 1.433 . S
C962 H958 0.929 . S
C962 C964 1.378 . S
C962 C966 1.350 . S
C963 C966 1.463 . S
C963 C968 1.350 . S
C963 N971 1.427 . S
C964 H955 0.930 . S
C964 C962 1.378 . S
C964 C965 1.367 . S
C965 C964 1.367 . S
C965 C967 1.433 . S
C966 C962 1.350 . S
C966 C963 1.463 . S
C966 N970 1.427 . S
C967 H957 0.929 . S
C967 C965 1.433 . S
C967 N970 1.384 . S
C968 H959 0.929 . S
C968 C960 1.378 . S
C968 C963 1.350 . S
C969 H956 0.929 . S
C969 C961 1.433 . S
C969 N971 1.384 . S
N970 C966 1.427 . S
N970 C967 1.384 . S
N971 C963 1.427 . S
N971 C969 1.384 . S
H972 C978 0.930 . S
H973 C982 0.930 . S
H974 C987 0.929 . S
H975 C985 0.929 . S
H976 C980 0.929 . S
H977 C986 0.929 . S
C978 H972 0.930 . S
C978 C979 1.367 . S
C978 C986 1.378 . S
C979 C978 1.367 . S
C979 C987 1.433 . S
C980 H976 0.929 . S
C980 C982 1.378 . S
C980 C984 1.350 . S
C981 C984 1.463 . S
C981 C986 1.350 . S
C981 N989 1.427 . S
C982 H973 0.930 . S
C982 C980 1.378 . S
C982 C983 1.367 . S
C983 C982 1.367 . S
C983 C985 1.433 . S
C984 C980 1.350 . S
C984 C981 1.463 . S
C984 N988 1.427 . S
C985 H975 0.929 . S
C985 C983 1.433 . S
C985 N988 1.384 . S
C986 H977 0.929 . S
C986 C978 1.378 . S
C986 C981 1.350 . S
C987 H974 0.929 . S
C987 C979 1.433 . S
C987 N989 1.384 . S
N988 C984 1.427 . S
N988 C985 1.384 . S
N989 C981 1.427 . S
N989 C987 1.384 . S
H990 C996 0.930 . S
H991 C1000 0.930 . S
H992 C1005 0.929 . S
H993 C1003 0.929 . S
H994 C998 0.929 . S
H995 C1004 0.929 . S
C996 H990 0.930 . S
C996 C997 1.367 . S
C996 C1004 1.378 . S
C997 C996 1.367 . S
C997 C1005 1.433 . S
C998 H994 0.929 . S
C998 C1000 1.378 . S
C998 C1002 1.350 . S
C999 C1002 1.463 . S
C999 C1004 1.350 . S
C999 N1007 1.427 . S
C1000 H991 0.930 . S
C1000 C998 1.378 . S
C1000 C1001 1.367 . S
C1001 C1000 1.367 . S
C1001 C1003 1.433 . S
C1002 C998 1.350 . S
C1002 C999 1.463 . S
C1002 N1006 1.427 . S
C1003 H993 0.929 . S
C1003 C1001 1.433 . S
C1003 N1006 1.384 . S
C1004 H995 0.929 . S
C1004 C996 1.378 . S
C1004 C999 1.350 . S
C1005 H992 0.929 . S
C1005 C997 1.433 . S
C1005 N1007 1.384 . S
N1006 C1002 1.427 . S
N1006 C1003 1.384 . S
N1007 C999 1.427 . S
N1007 C1005 1.384 . S
H1008 C1014 0.930 . S
H1009 C1018 0.930 . S
H1010 C1023 0.929 . S
H1011 C1021 0.937 . S
H1012 C1016 0.929 . S
H1013 C1022 0.929 . S
C1014 H1008 0.930 . S
C1014 C1015 1.367 . S
C1014 C1022 1.378 . S
C1015 C1014 1.367 . S
C1015 C1023 1.433 . S
C1016 H1012 0.929 . S
C1016 C1018 1.378 . S
C1016 C1020 1.350 . S
C1017 C1020 1.463 . S
C1017 C1022 1.350 . S
C1017 N1025 1.427 . S
C1018 H1009 0.930 . S
C1018 C1016 1.378 . S
C1018 C1019 1.367 . S
C1019 C1018 1.367 . S
C1019 C1021 1.433 . S
C1020 C1016 1.350 . S
C1020 C1017 1.463 . S
C1020 N1024 1.427 . S
C1021 H1011 0.937 . S
C1021 C1019 1.433 . S
C1021 N1024 1.384 . S
C1022 H1013 0.929 . S
C1022 C1014 1.378 . S
C1022 C1017 1.350 . S
C1023 H1010 0.929 . S
C1023 C1015 1.433 . S
C1023 N1025 1.384 . S
N1024 C1020 1.427 . S
N1024 C1021 1.384 . S
N1025 C1017 1.427 . S
N1025 C1023 1.384 . S
H1026 C1032 0.930 . S
H1027 C1036 0.945 . S
H1028 C1041 0.929 . S
H1029 C1039 0.929 . S
H1030 C1034 0.929 . S
H1031 C1040 0.929 . S
C1032 H1026 0.930 . S
C1032 C1033 1.367 . S
C1032 C1040 1.378 . S
C1033 C1032 1.367 . S
C1033 C1041 1.433 . S
C1034 H1030 0.929 . S
C1034 C1036 1.378 . S
C1034 C1038 1.350 . S
C1035 C1038 1.463 . S
C1035 C1040 1.350 . S
C1035 N1043 1.427 . S
C1036 H1027 0.945 . S
C1036 C1034 1.378 . S
C1036 C1037 1.367 . S
C1037 C1036 1.367 . S
C1037 C1039 1.433 . S
C1038 C1034 1.350 . S
C1038 C1035 1.463 . S
C1038 N1042 1.427 . S
C1039 H1029 0.929 . S
C1039 C1037 1.433 . S
C1039 N1042 1.384 . S
C1040 H1031 0.929 . S
C1040 C1032 1.378 . S
C1040 C1035 1.350 . S
C1041 H1028 0.929 . S
C1041 C1033 1.433 . S
C1041 N1043 1.384 . S
N1042 C1038 1.427 . S
N1042 C1039 1.384 . S
N1043 C1035 1.427 . S
N1043 C1041 1.384 . S
H1044 C1050 0.930 . S
H1045 C1054 0.930 . S
H1046 C1059 0.929 . S
H1047 C1057 0.929 . S
H1048 C1052 0.929 . S
H1049 C1058 0.929 . S
C1050 H1044 0.930 . S
C1050 C1051 1.367 . S
C1050 C1058 1.378 . S
C1051 C1050 1.367 . S
C1051 C1059 1.433 . S
C1052 H1048 0.929 . S
C1052 C1054 1.378 . S
C1052 C1056 1.350 . S
C1053 C1056 1.463 . S
C1053 C1058 1.350 . S
C1053 N1061 1.427 . S
C1054 H1045 0.930 . S
C1054 C1052 1.378 . S
C1054 C1055 1.367 . S
C1055 C1054 1.367 . S
C1055 C1057 1.433 . S
C1056 C1052 1.350 . S
C1056 C1053 1.463 . S
C1056 N1060 1.427 . S
C1057 H1047 0.929 . S
C1057 C1055 1.433 . S
C1057 N1060 1.384 . S
C1058 H1049 0.929 . S
C1058 C1050 1.378 . S
C1058 C1053 1.350 . S
C1059 H1046 0.929 . S
C1059 C1051 1.433 . S
C1059 N1061 1.384 . S
N1060 C1056 1.427 . S
N1060 C1057 1.384 . S
N1061 C1053 1.427 . S
N1061 C1059 1.384 . S
H1062 C1068 0.930 . S
H1063 C1072 0.930 . S
H1064 C1077 0.929 . S
H1065 C1075 0.929 . S
H1066 C1070 0.929 . S
H1067 C1076 0.929 . S
C1068 H1062 0.930 . S
C1068 C1069 1.367 . S
C1068 C1076 1.378 . S
C1069 C1068 1.367 . S
C1069 C1077 1.433 . S
C1070 H1066 0.929 . S
C1070 C1072 1.378 . S
C1070 C1074 1.350 . S
C1071 C1074 1.463 . S
C1071 C1076 1.350 . S
C1071 N1079 1.427 . S
C1072 H1063 0.930 . S
C1072 C1070 1.378 . S
C1072 C1073 1.367 . S
C1073 C1072 1.367 . S
C1073 C1075 1.433 . S
C1074 C1070 1.350 . S
C1074 C1071 1.463 . S
C1074 N1078 1.427 . S
C1075 H1065 0.929 . S
C1075 C1073 1.433 . S
C1075 N1078 1.384 . S
C1076 H1067 0.929 . S
C1076 C1068 1.378 . S
C1076 C1071 1.350 . S
C1077 H1064 0.929 . S
C1077 C1069 1.433 . S
C1077 N1079 1.384 . S
N1078 C1074 1.427 . S
N1078 C1075 1.384 . S
N1079 C1071 1.427 . S
N1079 C1077 1.384 . S
C655 C255 2.279 . S
C659 C375 2.444 . S
C677 C452 2.463 . S
C673 C294 2.282 . S
C695 C543 2.449 . S
C691 C177 2.283 . S
C713 C627 2.435 . S
C709 C216 2.276 . S
C731 C386 2.445 1_565 S
C727 C99 2.292 . S
C745 C138 2.272 . S
C749 C463 2.461 . S
C763 C21 2.287 . S
C767 C554 2.442 . S
C781 C60 2.282 . S
C785 C638 2.430 1_655 S
C803 C370 0.490 . S
C799 C196 0.465 . S
C821 C465 0.548 . S
C817 C235 0.445 . S
C839 C538 0.512 . S
C835 C289 0.471 . S
C853 C157 0.474 . S
C857 C622 0.501 . S
C871 C40 0.459 . S
C875 C381 0.512 . S
C893 C454 0.556 . S
C889 C79 0.455 . S
C911 C549 0.487 . S
C907 C133 0.473 . S
C925 C1 0.446 . S
C929 C633 0.495 . S
C943 C211 2.608 . S
C947 C379 2.916 . S
C961 C250 2.611 . S
C965 C470 2.960 . S
C983 C547 2.940 . S
C979 C274 2.636 . S
C1001 C631 2.939 . S
C997 C172 2.634 . S
C1015 C55 2.620 . S
C1019 C368 2.922 . S
C1037 C459 2.963 . S
C1033 C94 2.610 . S
C1055 C536 2.944 . S
C1051 C118 2.642 . S
C1069 C16 2.635 . S
C1073 C620 2.940 . S
