# Generated by pormake.
# Topology ana-f, (3,3)-cn, num edge types: 1
# Building blocks:
#     Node 0, Type 0, BuildingBlock: WUSLED_clean_sbu_0, # of connection points: 3
#     Node 1, Type 0, BuildingBlock: WUSLED_clean_sbu_0, # of connection points: 3
#     Node 2, Type 0, BuildingBlock: WUSLED_clean_sbu_0, # of connection points: 3
#     Node 3, Type 0, BuildingBlock: WUSLED_clean_sbu_0, # of connection points: 3
#     Node 4, Type 0, BuildingBlock: WUSLED_clean_sbu_0, # of connection points: 3
#     Node 5, Type 0, BuildingBlock: WUSLED_clean_sbu_0, # of connection points: 3
#     Node 6, Type 0, BuildingBlock: WUSLED_clean_sbu_0, # of connection points: 3
#     Node 7, Type 0, BuildingBlock: WUSLED_clean_sbu_0, # of connection points: 3
#     Node 8, Type 0, BuildingBlock: WUSLED_clean_sbu_0, # of connection points: 3
#     Node 9, Type 0, BuildingBlock: WUSLED_clean_sbu_0, # of connection points: 3
#     Node 10, Type 0, BuildingBlock: WUSLED_clean_sbu_0, # of connection points: 3
#     Node 11, Type 0, BuildingBlock: WUSLED_clean_sbu_0, # of connection points: 3
#     Node 12, Type 0, BuildingBlock: WUSLED_clean_sbu_0, # of connection points: 3
#     Node 13, Type 0, BuildingBlock: WUSLED_clean_sbu_0, # of connection points: 3
#     Node 14, Type 0, BuildingBlock: WUSLED_clean_sbu_0, # of connection points: 3
#     Node 15, Type 0, BuildingBlock: WUSLED_clean_sbu_0, # of connection points: 3
#     Node 16, Type 0, BuildingBlock: WUSLED_clean_sbu_0, # of connection points: 3
#     Node 17, Type 0, BuildingBlock: WUSLED_clean_sbu_0, # of connection points: 3
#     Node 18, Type 0, BuildingBlock: WUSLED_clean_sbu_0, # of connection points: 3
#     Node 19, Type 0, BuildingBlock: WUSLED_clean_sbu_0, # of connection points: 3
#     Node 20, Type 0, BuildingBlock: WUSLED_clean_sbu_0, # of connection points: 3
#     Node 21, Type 0, BuildingBlock: WUSLED_clean_sbu_0, # of connection points: 3
#     Node 22, Type 0, BuildingBlock: WUSLED_clean_sbu_0, # of connection points: 3
#     Node 23, Type 0, BuildingBlock: WUSLED_clean_sbu_0, # of connection points: 3
#     Node 24, Type 0, BuildingBlock: WUSLED_clean_sbu_0, # of connection points: 3
#     Node 25, Type 0, BuildingBlock: WUSLED_clean_sbu_0, # of connection points: 3
#     Node 26, Type 0, BuildingBlock: WUSLED_clean_sbu_0, # of connection points: 3
#     Node 27, Type 0, BuildingBlock: WUSLED_clean_sbu_0, # of connection points: 3
#     Node 28, Type 0, BuildingBlock: WUSLED_clean_sbu_0, # of connection points: 3
#     Node 29, Type 0, BuildingBlock: WUSLED_clean_sbu_0, # of connection points: 3
#     Node 30, Type 0, BuildingBlock: WUSLED_clean_sbu_0, # of connection points: 3
#     Node 31, Type 0, BuildingBlock: WUSLED_clean_sbu_0, # of connection points: 3
#     Node 32, Type 0, BuildingBlock: WUSLED_clean_sbu_0, # of connection points: 3
#     Node 33, Type 0, BuildingBlock: WUSLED_clean_sbu_0, # of connection points: 3
#     Node 34, Type 0, BuildingBlock: WUSLED_clean_sbu_0, # of connection points: 3
#     Node 35, Type 0, BuildingBlock: WUSLED_clean_sbu_0, # of connection points: 3
#     Node 36, Type 0, BuildingBlock: WUSLED_clean_sbu_0, # of connection points: 3
#     Node 37, Type 0, BuildingBlock: WUSLED_clean_sbu_0, # of connection points: 3
#     Node 38, Type 0, BuildingBlock: WUSLED_clean_sbu_0, # of connection points: 3
#     Node 39, Type 0, BuildingBlock: WUSLED_clean_sbu_0, # of connection points: 3
#     Node 40, Type 0, BuildingBlock: WUSLED_clean_sbu_0, # of connection points: 3
#     Node 41, Type 0, BuildingBlock: WUSLED_clean_sbu_0, # of connection points: 3
#     Node 42, Type 0, BuildingBlock: WUSLED_clean_sbu_0, # of connection points: 3
#     Node 43, Type 0, BuildingBlock: WUSLED_clean_sbu_0, # of connection points: 3
#     Node 44, Type 0, BuildingBlock: WUSLED_clean_sbu_0, # of connection points: 3
#     Node 45, Type 0, BuildingBlock: WUSLED_clean_sbu_0, # of connection points: 3
#     Node 46, Type 0, BuildingBlock: WUSLED_clean_sbu_0, # of connection points: 3
#     Node 47, Type 0, BuildingBlock: WUSLED_clean_sbu_0, # of connection points: 3
#     Node 48, Type 0, BuildingBlock: WUSLED_clean_sbu_0, # of connection points: 3
#     Node 49, Type 0, BuildingBlock: WUSLED_clean_sbu_0, # of connection points: 3
#     Node 50, Type 0, BuildingBlock: WUSLED_clean_sbu_0, # of connection points: 3
#     Node 51, Type 0, BuildingBlock: WUSLED_clean_sbu_0, # of connection points: 3
#     Node 52, Type 0, BuildingBlock: WUSLED_clean_sbu_0, # of connection points: 3
#     Node 53, Type 0, BuildingBlock: WUSLED_clean_sbu_0, # of connection points: 3
#     Node 54, Type 0, BuildingBlock: WUSLED_clean_sbu_0, # of connection points: 3
#     Node 55, Type 0, BuildingBlock: WUSLED_clean_sbu_0, # of connection points: 3
#     Node 56, Type 0, BuildingBlock: WUSLED_clean_sbu_0, # of connection points: 3
#     Node 57, Type 0, BuildingBlock: WUSLED_clean_sbu_0, # of connection points: 3
#     Node 58, Type 0, BuildingBlock: WUSLED_clean_sbu_0, # of connection points: 3
#     Node 59, Type 0, BuildingBlock: WUSLED_clean_sbu_0, # of connection points: 3
#     Node 60, Type 0, BuildingBlock: WUSLED_clean_sbu_0, # of connection points: 3
#     Node 61, Type 0, BuildingBlock: WUSLED_clean_sbu_0, # of connection points: 3
#     Node 62, Type 0, BuildingBlock: WUSLED_clean_sbu_0, # of connection points: 3
#     Node 63, Type 0, BuildingBlock: WUSLED_clean_sbu_0, # of connection points: 3
#     Node 64, Type 0, BuildingBlock: WUSLED_clean_sbu_0, # of connection points: 3
#     Node 65, Type 0, BuildingBlock: WUSLED_clean_sbu_0, # of connection points: 3
#     Node 66, Type 0, BuildingBlock: WUSLED_clean_sbu_0, # of connection points: 3
#     Node 67, Type 0, BuildingBlock: WUSLED_clean_sbu_0, # of connection points: 3
#     Node 68, Type 0, BuildingBlock: WUSLED_clean_sbu_0, # of connection points: 3
#     Node 69, Type 0, BuildingBlock: WUSLED_clean_sbu_0, # of connection points: 3
#     Node 70, Type 0, BuildingBlock: WUSLED_clean_sbu_0, # of connection points: 3
#     Node 71, Type 0, BuildingBlock: WUSLED_clean_sbu_0, # of connection points: 3
#     Node 72, Type 0, BuildingBlock: WUSLED_clean_sbu_0, # of connection points: 3
#     Node 73, Type 0, BuildingBlock: WUSLED_clean_sbu_0, # of connection points: 3
#     Node 74, Type 0, BuildingBlock: WUSLED_clean_sbu_0, # of connection points: 3
#     Node 75, Type 0, BuildingBlock: WUSLED_clean_sbu_0, # of connection points: 3
#     Node 76, Type 0, BuildingBlock: WUSLED_clean_sbu_0, # of connection points: 3
#     Node 77, Type 0, BuildingBlock: WUSLED_clean_sbu_0, # of connection points: 3
#     Node 78, Type 0, BuildingBlock: WUSLED_clean_sbu_0, # of connection points: 3
#     Node 79, Type 0, BuildingBlock: WUSLED_clean_sbu_0, # of connection points: 3
#     Node 80, Type 0, BuildingBlock: WUSLED_clean_sbu_0, # of connection points: 3
#     Node 81, Type 0, BuildingBlock: WUSLED_clean_sbu_0, # of connection points: 3
#     Node 82, Type 0, BuildingBlock: WUSLED_clean_sbu_0, # of connection points: 3
#     Node 83, Type 0, BuildingBlock: WUSLED_clean_sbu_0, # of connection points: 3
#     Node 84, Type 0, BuildingBlock: WUSLED_clean_sbu_0, # of connection points: 3
#     Node 85, Type 0, BuildingBlock: WUSLED_clean_sbu_0, # of connection points: 3
#     Node 86, Type 0, BuildingBlock: WUSLED_clean_sbu_0, # of connection points: 3
#     Node 87, Type 0, BuildingBlock: WUSLED_clean_sbu_0, # of connection points: 3
#     Node 88, Type 0, BuildingBlock: WUSLED_clean_sbu_0, # of connection points: 3
#     Node 89, Type 0, BuildingBlock: WUSLED_clean_sbu_0, # of connection points: 3
#     Node 90, Type 0, BuildingBlock: WUSLED_clean_sbu_0, # of connection points: 3
#     Node 91, Type 0, BuildingBlock: WUSLED_clean_sbu_0, # of connection points: 3
#     Node 92, Type 0, BuildingBlock: WUSLED_clean_sbu_0, # of connection points: 3
#     Node 93, Type 0, BuildingBlock: WUSLED_clean_sbu_0, # of connection points: 3
#     Node 94, Type 0, BuildingBlock: WUSLED_clean_sbu_0, # of connection points: 3
#     Node 95, Type 0, BuildingBlock: WUSLED_clean_sbu_0, # of connection points: 3
#     Node 96, Type 1, BuildingBlock: PAMTOO_clean_linker_0, # of connection points: 3
#     Node 97, Type 1, BuildingBlock: PAMTOO_clean_linker_0, # of connection points: 3
#     Node 98, Type 1, BuildingBlock: PAMTOO_clean_linker_0, # of connection points: 3
#     Node 99, Type 1, BuildingBlock: PAMTOO_clean_linker_0, # of connection points: 3
#     Node 100, Type 1, BuildingBlock: PAMTOO_clean_linker_0, # of connection points: 3
#     Node 101, Type 1, BuildingBlock: PAMTOO_clean_linker_0, # of connection points: 3
#     Node 102, Type 1, BuildingBlock: PAMTOO_clean_linker_0, # of connection points: 3
#     Node 103, Type 1, BuildingBlock: PAMTOO_clean_linker_0, # of connection points: 3
#     Node 104, Type 1, BuildingBlock: PAMTOO_clean_linker_0, # of connection points: 3
#     Node 105, Type 1, BuildingBlock: PAMTOO_clean_linker_0, # of connection points: 3
#     Node 106, Type 1, BuildingBlock: PAMTOO_clean_linker_0, # of connection points: 3
#     Node 107, Type 1, BuildingBlock: PAMTOO_clean_linker_0, # of connection points: 3
#     Node 108, Type 1, BuildingBlock: PAMTOO_clean_linker_0, # of connection points: 3
#     Node 109, Type 1, BuildingBlock: PAMTOO_clean_linker_0, # of connection points: 3
#     Node 110, Type 1, BuildingBlock: PAMTOO_clean_linker_0, # of connection points: 3
#     Node 111, Type 1, BuildingBlock: PAMTOO_clean_linker_0, # of connection points: 3
#     Node 112, Type 1, BuildingBlock: PAMTOO_clean_linker_0, # of connection points: 3
#     Node 113, Type 1, BuildingBlock: PAMTOO_clean_linker_0, # of connection points: 3
#     Node 114, Type 1, BuildingBlock: PAMTOO_clean_linker_0, # of connection points: 3
#     Node 115, Type 1, BuildingBlock: PAMTOO_clean_linker_0, # of connection points: 3
#     Node 116, Type 1, BuildingBlock: PAMTOO_clean_linker_0, # of connection points: 3
#     Node 117, Type 1, BuildingBlock: PAMTOO_clean_linker_0, # of connection points: 3
#     Node 118, Type 1, BuildingBlock: PAMTOO_clean_linker_0, # of connection points: 3
#     Node 119, Type 1, BuildingBlock: PAMTOO_clean_linker_0, # of connection points: 3
#     Node 120, Type 1, BuildingBlock: PAMTOO_clean_linker_0, # of connection points: 3
#     Node 121, Type 1, BuildingBlock: PAMTOO_clean_linker_0, # of connection points: 3
#     Node 122, Type 1, BuildingBlock: PAMTOO_clean_linker_0, # of connection points: 3
#     Node 123, Type 1, BuildingBlock: PAMTOO_clean_linker_0, # of connection points: 3
#     Node 124, Type 1, BuildingBlock: PAMTOO_clean_linker_0, # of connection points: 3
#     Node 125, Type 1, BuildingBlock: PAMTOO_clean_linker_0, # of connection points: 3
#     Node 126, Type 1, BuildingBlock: PAMTOO_clean_linker_0, # of connection points: 3
#     Node 127, Type 1, BuildingBlock: PAMTOO_clean_linker_0, # of connection points: 3
#     Node 128, Type 1, BuildingBlock: PAMTOO_clean_linker_0, # of connection points: 3
#     Node 129, Type 1, BuildingBlock: PAMTOO_clean_linker_0, # of connection points: 3
#     Node 130, Type 1, BuildingBlock: PAMTOO_clean_linker_0, # of connection points: 3
#     Node 131, Type 1, BuildingBlock: PAMTOO_clean_linker_0, # of connection points: 3
#     Node 132, Type 1, BuildingBlock: PAMTOO_clean_linker_0, # of connection points: 3
#     Node 133, Type 1, BuildingBlock: PAMTOO_clean_linker_0, # of connection points: 3
#     Node 134, Type 1, BuildingBlock: PAMTOO_clean_linker_0, # of connection points: 3
#     Node 135, Type 1, BuildingBlock: PAMTOO_clean_linker_0, # of connection points: 3
#     Node 136, Type 1, BuildingBlock: PAMTOO_clean_linker_0, # of connection points: 3
#     Node 137, Type 1, BuildingBlock: PAMTOO_clean_linker_0, # of connection points: 3
#     Node 138, Type 1, BuildingBlock: PAMTOO_clean_linker_0, # of connection points: 3
#     Node 139, Type 1, BuildingBlock: PAMTOO_clean_linker_0, # of connection points: 3
#     Node 140, Type 1, BuildingBlock: PAMTOO_clean_linker_0, # of connection points: 3
#     Node 141, Type 1, BuildingBlock: PAMTOO_clean_linker_0, # of connection points: 3
#     Node 142, Type 1, BuildingBlock: PAMTOO_clean_linker_0, # of connection points: 3
#     Node 143, Type 1, BuildingBlock: PAMTOO_clean_linker_0, # of connection points: 3
#     Node 144, Type 1, BuildingBlock: PAMTOO_clean_linker_0, # of connection points: 3
#     Node 145, Type 1, BuildingBlock: PAMTOO_clean_linker_0, # of connection points: 3
#     Node 146, Type 1, BuildingBlock: PAMTOO_clean_linker_0, # of connection points: 3
#     Node 147, Type 1, BuildingBlock: PAMTOO_clean_linker_0, # of connection points: 3
#     Node 148, Type 1, BuildingBlock: PAMTOO_clean_linker_0, # of connection points: 3
#     Node 149, Type 1, BuildingBlock: PAMTOO_clean_linker_0, # of connection points: 3
#     Node 150, Type 1, BuildingBlock: PAMTOO_clean_linker_0, # of connection points: 3
#     Node 151, Type 1, BuildingBlock: PAMTOO_clean_linker_0, # of connection points: 3
#     Node 152, Type 1, BuildingBlock: PAMTOO_clean_linker_0, # of connection points: 3
#     Node 153, Type 1, BuildingBlock: PAMTOO_clean_linker_0, # of connection points: 3
#     Node 154, Type 1, BuildingBlock: PAMTOO_clean_linker_0, # of connection points: 3
#     Node 155, Type 1, BuildingBlock: PAMTOO_clean_linker_0, # of connection points: 3
#     Node 156, Type 1, BuildingBlock: PAMTOO_clean_linker_0, # of connection points: 3
#     Node 157, Type 1, BuildingBlock: PAMTOO_clean_linker_0, # of connection points: 3
#     Node 158, Type 1, BuildingBlock: PAMTOO_clean_linker_0, # of connection points: 3
#     Node 159, Type 1, BuildingBlock: PAMTOO_clean_linker_0, # of connection points: 3
#     Node 160, Type 1, BuildingBlock: PAMTOO_clean_linker_0, # of connection points: 3
#     Node 161, Type 1, BuildingBlock: PAMTOO_clean_linker_0, # of connection points: 3
#     Node 162, Type 1, BuildingBlock: PAMTOO_clean_linker_0, # of connection points: 3
#     Node 163, Type 1, BuildingBlock: PAMTOO_clean_linker_0, # of connection points: 3
#     Node 164, Type 1, BuildingBlock: PAMTOO_clean_linker_0, # of connection points: 3
#     Node 165, Type 1, BuildingBlock: PAMTOO_clean_linker_0, # of connection points: 3
#     Node 166, Type 1, BuildingBlock: PAMTOO_clean_linker_0, # of connection points: 3
#     Node 167, Type 1, BuildingBlock: PAMTOO_clean_linker_0, # of connection points: 3
#     Node 168, Type 1, BuildingBlock: PAMTOO_clean_linker_0, # of connection points: 3
#     Node 169, Type 1, BuildingBlock: PAMTOO_clean_linker_0, # of connection points: 3
#     Node 170, Type 1, BuildingBlock: PAMTOO_clean_linker_0, # of connection points: 3
#     Node 171, Type 1, BuildingBlock: PAMTOO_clean_linker_0, # of connection points: 3
#     Node 172, Type 1, BuildingBlock: PAMTOO_clean_linker_0, # of connection points: 3
#     Node 173, Type 1, BuildingBlock: PAMTOO_clean_linker_0, # of connection points: 3
#     Node 174, Type 1, BuildingBlock: PAMTOO_clean_linker_0, # of connection points: 3
#     Node 175, Type 1, BuildingBlock: PAMTOO_clean_linker_0, # of connection points: 3
#     Node 176, Type 1, BuildingBlock: PAMTOO_clean_linker_0, # of connection points: 3
#     Node 177, Type 1, BuildingBlock: PAMTOO_clean_linker_0, # of connection points: 3
#     Node 178, Type 1, BuildingBlock: PAMTOO_clean_linker_0, # of connection points: 3
#     Node 179, Type 1, BuildingBlock: PAMTOO_clean_linker_0, # of connection points: 3
#     Node 180, Type 1, BuildingBlock: PAMTOO_clean_linker_0, # of connection points: 3
#     Node 181, Type 1, BuildingBlock: PAMTOO_clean_linker_0, # of connection points: 3
#     Node 182, Type 1, BuildingBlock: PAMTOO_clean_linker_0, # of connection points: 3
#     Node 183, Type 1, BuildingBlock: PAMTOO_clean_linker_0, # of connection points: 3
#     Node 184, Type 1, BuildingBlock: PAMTOO_clean_linker_0, # of connection points: 3
#     Node 185, Type 1, BuildingBlock: PAMTOO_clean_linker_0, # of connection points: 3
#     Node 186, Type 1, BuildingBlock: PAMTOO_clean_linker_0, # of connection points: 3
#     Node 187, Type 1, BuildingBlock: PAMTOO_clean_linker_0, # of connection points: 3
#     Node 188, Type 1, BuildingBlock: PAMTOO_clean_linker_0, # of connection points: 3
#     Node 189, Type 1, BuildingBlock: PAMTOO_clean_linker_0, # of connection points: 3
#     Node 190, Type 1, BuildingBlock: PAMTOO_clean_linker_0, # of connection points: 3
#     Node 191, Type 1, BuildingBlock: PAMTOO_clean_linker_0, # of connection points: 3
#     Edge 192, Type (0, 1), BuildingBlock: KIFKEQ_clean_linker_1, # of connection points: 2
#     Edge 193, Type (0, 1), BuildingBlock: KIFKEQ_clean_linker_1, # of connection points: 2
#     Edge 194, Type (0, 1), BuildingBlock: KIFKEQ_clean_linker_1, # of connection points: 2
#     Edge 195, Type (0, 1), BuildingBlock: KIFKEQ_clean_linker_1, # of connection points: 2
#     Edge 196, Type (0, 1), BuildingBlock: KIFKEQ_clean_linker_1, # of connection points: 2
#     Edge 197, Type (0, 1), BuildingBlock: KIFKEQ_clean_linker_1, # of connection points: 2
#     Edge 198, Type (0, 1), BuildingBlock: KIFKEQ_clean_linker_1, # of connection points: 2
#     Edge 199, Type (0, 1), BuildingBlock: KIFKEQ_clean_linker_1, # of connection points: 2
#     Edge 200, Type (0, 1), BuildingBlock: KIFKEQ_clean_linker_1, # of connection points: 2
#     Edge 201, Type (0, 1), BuildingBlock: KIFKEQ_clean_linker_1, # of connection points: 2
#     Edge 202, Type (0, 1), BuildingBlock: KIFKEQ_clean_linker_1, # of connection points: 2
#     Edge 203, Type (0, 1), BuildingBlock: KIFKEQ_clean_linker_1, # of connection points: 2
#     Edge 204, Type (0, 1), BuildingBlock: KIFKEQ_clean_linker_1, # of connection points: 2
#     Edge 205, Type (0, 1), BuildingBlock: KIFKEQ_clean_linker_1, # of connection points: 2
#     Edge 206, Type (0, 1), BuildingBlock: KIFKEQ_clean_linker_1, # of connection points: 2
#     Edge 207, Type (0, 1), BuildingBlock: KIFKEQ_clean_linker_1, # of connection points: 2
#     Edge 208, Type (0, 1), BuildingBlock: KIFKEQ_clean_linker_1, # of connection points: 2
#     Edge 209, Type (0, 1), BuildingBlock: KIFKEQ_clean_linker_1, # of connection points: 2
#     Edge 210, Type (0, 1), BuildingBlock: KIFKEQ_clean_linker_1, # of connection points: 2
#     Edge 211, Type (0, 1), BuildingBlock: KIFKEQ_clean_linker_1, # of connection points: 2
#     Edge 212, Type (0, 1), BuildingBlock: KIFKEQ_clean_linker_1, # of connection points: 2
#     Edge 213, Type (0, 1), BuildingBlock: KIFKEQ_clean_linker_1, # of connection points: 2
#     Edge 214, Type (0, 1), BuildingBlock: KIFKEQ_clean_linker_1, # of connection points: 2
#     Edge 215, Type (0, 1), BuildingBlock: KIFKEQ_clean_linker_1, # of connection points: 2
#     Edge 216, Type (0, 1), BuildingBlock: KIFKEQ_clean_linker_1, # of connection points: 2
#     Edge 217, Type (0, 1), BuildingBlock: KIFKEQ_clean_linker_1, # of connection points: 2
#     Edge 218, Type (0, 1), BuildingBlock: KIFKEQ_clean_linker_1, # of connection points: 2
#     Edge 219, Type (0, 1), BuildingBlock: KIFKEQ_clean_linker_1, # of connection points: 2
#     Edge 220, Type (0, 1), BuildingBlock: KIFKEQ_clean_linker_1, # of connection points: 2
#     Edge 221, Type (0, 1), BuildingBlock: KIFKEQ_clean_linker_1, # of connection points: 2
#     Edge 222, Type (0, 1), BuildingBlock: KIFKEQ_clean_linker_1, # of connection points: 2
#     Edge 223, Type (0, 1), BuildingBlock: KIFKEQ_clean_linker_1, # of connection points: 2
#     Edge 224, Type (0, 1), BuildingBlock: KIFKEQ_clean_linker_1, # of connection points: 2
#     Edge 225, Type (0, 1), BuildingBlock: KIFKEQ_clean_linker_1, # of connection points: 2
#     Edge 226, Type (0, 1), BuildingBlock: KIFKEQ_clean_linker_1, # of connection points: 2
#     Edge 227, Type (0, 1), BuildingBlock: KIFKEQ_clean_linker_1, # of connection points: 2
#     Edge 228, Type (0, 1), BuildingBlock: KIFKEQ_clean_linker_1, # of connection points: 2
#     Edge 229, Type (0, 1), BuildingBlock: KIFKEQ_clean_linker_1, # of connection points: 2
#     Edge 230, Type (0, 1), BuildingBlock: KIFKEQ_clean_linker_1, # of connection points: 2
#     Edge 231, Type (0, 1), BuildingBlock: KIFKEQ_clean_linker_1, # of connection points: 2
#     Edge 232, Type (0, 1), BuildingBlock: KIFKEQ_clean_linker_1, # of connection points: 2
#     Edge 233, Type (0, 1), BuildingBlock: KIFKEQ_clean_linker_1, # of connection points: 2
#     Edge 234, Type (0, 1), BuildingBlock: KIFKEQ_clean_linker_1, # of connection points: 2
#     Edge 235, Type (0, 1), BuildingBlock: KIFKEQ_clean_linker_1, # of connection points: 2
#     Edge 236, Type (0, 1), BuildingBlock: KIFKEQ_clean_linker_1, # of connection points: 2
#     Edge 237, Type (0, 1), BuildingBlock: KIFKEQ_clean_linker_1, # of connection points: 2
#     Edge 238, Type (0, 1), BuildingBlock: KIFKEQ_clean_linker_1, # of connection points: 2
#     Edge 239, Type (0, 1), BuildingBlock: KIFKEQ_clean_linker_1, # of connection points: 2
#     Edge 240, Type (0, 1), BuildingBlock: KIFKEQ_clean_linker_1, # of connection points: 2
#     Edge 241, Type (0, 1), BuildingBlock: KIFKEQ_clean_linker_1, # of connection points: 2
#     Edge 242, Type (0, 1), BuildingBlock: KIFKEQ_clean_linker_1, # of connection points: 2
#     Edge 243, Type (0, 1), BuildingBlock: KIFKEQ_clean_linker_1, # of connection points: 2
#     Edge 244, Type (0, 1), BuildingBlock: KIFKEQ_clean_linker_1, # of connection points: 2
#     Edge 245, Type (0, 1), BuildingBlock: KIFKEQ_clean_linker_1, # of connection points: 2
#     Edge 246, Type (0, 1), BuildingBlock: KIFKEQ_clean_linker_1, # of connection points: 2
#     Edge 247, Type (0, 1), BuildingBlock: KIFKEQ_clean_linker_1, # of connection points: 2
#     Edge 248, Type (0, 1), BuildingBlock: KIFKEQ_clean_linker_1, # of connection points: 2
#     Edge 249, Type (0, 1), BuildingBlock: KIFKEQ_clean_linker_1, # of connection points: 2
#     Edge 250, Type (0, 1), BuildingBlock: KIFKEQ_clean_linker_1, # of connection points: 2
#     Edge 251, Type (0, 1), BuildingBlock: KIFKEQ_clean_linker_1, # of connection points: 2
#     Edge 252, Type (0, 1), BuildingBlock: KIFKEQ_clean_linker_1, # of connection points: 2
#     Edge 253, Type (0, 1), BuildingBlock: KIFKEQ_clean_linker_1, # of connection points: 2
#     Edge 254, Type (0, 1), BuildingBlock: KIFKEQ_clean_linker_1, # of connection points: 2
#     Edge 255, Type (0, 1), BuildingBlock: KIFKEQ_clean_linker_1, # of connection points: 2
#     Edge 256, Type (0, 1), BuildingBlock: KIFKEQ_clean_linker_1, # of connection points: 2
#     Edge 257, Type (0, 1), BuildingBlock: KIFKEQ_clean_linker_1, # of connection points: 2
#     Edge 258, Type (0, 1), BuildingBlock: KIFKEQ_clean_linker_1, # of connection points: 2
#     Edge 259, Type (0, 1), BuildingBlock: KIFKEQ_clean_linker_1, # of connection points: 2
#     Edge 260, Type (0, 1), BuildingBlock: KIFKEQ_clean_linker_1, # of connection points: 2
#     Edge 261, Type (0, 1), BuildingBlock: KIFKEQ_clean_linker_1, # of connection points: 2
#     Edge 262, Type (0, 1), BuildingBlock: KIFKEQ_clean_linker_1, # of connection points: 2
#     Edge 263, Type (0, 1), BuildingBlock: KIFKEQ_clean_linker_1, # of connection points: 2
#     Edge 264, Type (0, 1), BuildingBlock: KIFKEQ_clean_linker_1, # of connection points: 2
#     Edge 265, Type (0, 1), BuildingBlock: KIFKEQ_clean_linker_1, # of connection points: 2
#     Edge 266, Type (0, 1), BuildingBlock: KIFKEQ_clean_linker_1, # of connection points: 2
#     Edge 267, Type (0, 1), BuildingBlock: KIFKEQ_clean_linker_1, # of connection points: 2
#     Edge 268, Type (0, 1), BuildingBlock: KIFKEQ_clean_linker_1, # of connection points: 2
#     Edge 269, Type (0, 1), BuildingBlock: KIFKEQ_clean_linker_1, # of connection points: 2
#     Edge 270, Type (0, 1), BuildingBlock: KIFKEQ_clean_linker_1, # of connection points: 2
#     Edge 271, Type (0, 1), BuildingBlock: KIFKEQ_clean_linker_1, # of connection points: 2
#     Edge 272, Type (0, 1), BuildingBlock: KIFKEQ_clean_linker_1, # of connection points: 2
#     Edge 273, Type (0, 1), BuildingBlock: KIFKEQ_clean_linker_1, # of connection points: 2
#     Edge 274, Type (0, 1), BuildingBlock: KIFKEQ_clean_linker_1, # of connection points: 2
#     Edge 275, Type (0, 1), BuildingBlock: KIFKEQ_clean_linker_1, # of connection points: 2
#     Edge 276, Type (0, 1), BuildingBlock: KIFKEQ_clean_linker_1, # of connection points: 2
#     Edge 277, Type (0, 1), BuildingBlock: KIFKEQ_clean_linker_1, # of connection points: 2
#     Edge 278, Type (0, 1), BuildingBlock: KIFKEQ_clean_linker_1, # of connection points: 2
#     Edge 279, Type (0, 1), BuildingBlock: KIFKEQ_clean_linker_1, # of connection points: 2
#     Edge 280, Type (0, 1), BuildingBlock: KIFKEQ_clean_linker_1, # of connection points: 2
#     Edge 281, Type (0, 1), BuildingBlock: KIFKEQ_clean_linker_1, # of connection points: 2
#     Edge 282, Type (0, 1), BuildingBlock: KIFKEQ_clean_linker_1, # of connection points: 2
#     Edge 283, Type (0, 1), BuildingBlock: KIFKEQ_clean_linker_1, # of connection points: 2
#     Edge 284, Type (0, 1), BuildingBlock: KIFKEQ_clean_linker_1, # of connection points: 2
#     Edge 285, Type (0, 1), BuildingBlock: KIFKEQ_clean_linker_1, # of connection points: 2
#     Edge 286, Type (0, 1), BuildingBlock: KIFKEQ_clean_linker_1, # of connection points: 2
#     Edge 287, Type (0, 1), BuildingBlock: KIFKEQ_clean_linker_1, # of connection points: 2
#     Edge 288, Type (0, 1), BuildingBlock: KIFKEQ_clean_linker_1, # of connection points: 2
#     Edge 289, Type (0, 1), BuildingBlock: KIFKEQ_clean_linker_1, # of connection points: 2
#     Edge 290, Type (0, 1), BuildingBlock: KIFKEQ_clean_linker_1, # of connection points: 2
#     Edge 291, Type (0, 1), BuildingBlock: KIFKEQ_clean_linker_1, # of connection points: 2
#     Edge 292, Type (0, 1), BuildingBlock: KIFKEQ_clean_linker_1, # of connection points: 2
#     Edge 293, Type (0, 1), BuildingBlock: KIFKEQ_clean_linker_1, # of connection points: 2
#     Edge 294, Type (0, 1), BuildingBlock: KIFKEQ_clean_linker_1, # of connection points: 2
#     Edge 295, Type (0, 1), BuildingBlock: KIFKEQ_clean_linker_1, # of connection points: 2
#     Edge 296, Type (0, 1), BuildingBlock: KIFKEQ_clean_linker_1, # of connection points: 2
#     Edge 297, Type (0, 1), BuildingBlock: KIFKEQ_clean_linker_1, # of connection points: 2
#     Edge 298, Type (0, 1), BuildingBlock: KIFKEQ_clean_linker_1, # of connection points: 2
#     Edge 299, Type (0, 1), BuildingBlock: KIFKEQ_clean_linker_1, # of connection points: 2
#     Edge 300, Type (0, 1), BuildingBlock: KIFKEQ_clean_linker_1, # of connection points: 2
#     Edge 301, Type (0, 1), BuildingBlock: KIFKEQ_clean_linker_1, # of connection points: 2
#     Edge 302, Type (0, 1), BuildingBlock: KIFKEQ_clean_linker_1, # of connection points: 2
#     Edge 303, Type (0, 1), BuildingBlock: KIFKEQ_clean_linker_1, # of connection points: 2
#     Edge 304, Type (0, 1), BuildingBlock: KIFKEQ_clean_linker_1, # of connection points: 2
#     Edge 305, Type (0, 1), BuildingBlock: KIFKEQ_clean_linker_1, # of connection points: 2
#     Edge 306, Type (0, 1), BuildingBlock: KIFKEQ_clean_linker_1, # of connection points: 2
#     Edge 307, Type (0, 1), BuildingBlock: KIFKEQ_clean_linker_1, # of connection points: 2
#     Edge 308, Type (0, 1), BuildingBlock: KIFKEQ_clean_linker_1, # of connection points: 2
#     Edge 309, Type (0, 1), BuildingBlock: KIFKEQ_clean_linker_1, # of connection points: 2
#     Edge 310, Type (0, 1), BuildingBlock: KIFKEQ_clean_linker_1, # of connection points: 2
#     Edge 311, Type (0, 1), BuildingBlock: KIFKEQ_clean_linker_1, # of connection points: 2
#     Edge 312, Type (0, 1), BuildingBlock: KIFKEQ_clean_linker_1, # of connection points: 2
#     Edge 313, Type (0, 1), BuildingBlock: KIFKEQ_clean_linker_1, # of connection points: 2
#     Edge 314, Type (0, 1), BuildingBlock: KIFKEQ_clean_linker_1, # of connection points: 2
#     Edge 315, Type (0, 1), BuildingBlock: KIFKEQ_clean_linker_1, # of connection points: 2
#     Edge 316, Type (0, 1), BuildingBlock: KIFKEQ_clean_linker_1, # of connection points: 2
#     Edge 317, Type (0, 1), BuildingBlock: KIFKEQ_clean_linker_1, # of connection points: 2
#     Edge 318, Type (0, 1), BuildingBlock: KIFKEQ_clean_linker_1, # of connection points: 2
#     Edge 319, Type (0, 1), BuildingBlock: KIFKEQ_clean_linker_1, # of connection points: 2
#     Edge 320, Type (0, 1), BuildingBlock: KIFKEQ_clean_linker_1, # of connection points: 2
#     Edge 321, Type (0, 1), BuildingBlock: KIFKEQ_clean_linker_1, # of connection points: 2
#     Edge 322, Type (0, 1), BuildingBlock: KIFKEQ_clean_linker_1, # of connection points: 2
#     Edge 323, Type (0, 1), BuildingBlock: KIFKEQ_clean_linker_1, # of connection points: 2
#     Edge 324, Type (0, 1), BuildingBlock: KIFKEQ_clean_linker_1, # of connection points: 2
#     Edge 325, Type (0, 1), BuildingBlock: KIFKEQ_clean_linker_1, # of connection points: 2
#     Edge 326, Type (0, 1), BuildingBlock: KIFKEQ_clean_linker_1, # of connection points: 2
#     Edge 327, Type (0, 1), BuildingBlock: KIFKEQ_clean_linker_1, # of connection points: 2
#     Edge 328, Type (0, 1), BuildingBlock: KIFKEQ_clean_linker_1, # of connection points: 2
#     Edge 329, Type (0, 1), BuildingBlock: KIFKEQ_clean_linker_1, # of connection points: 2
#     Edge 330, Type (0, 1), BuildingBlock: KIFKEQ_clean_linker_1, # of connection points: 2
#     Edge 331, Type (0, 1), BuildingBlock: KIFKEQ_clean_linker_1, # of connection points: 2
#     Edge 332, Type (0, 1), BuildingBlock: KIFKEQ_clean_linker_1, # of connection points: 2
#     Edge 333, Type (0, 1), BuildingBlock: KIFKEQ_clean_linker_1, # of connection points: 2
#     Edge 334, Type (0, 1), BuildingBlock: KIFKEQ_clean_linker_1, # of connection points: 2
#     Edge 335, Type (0, 1), BuildingBlock: KIFKEQ_clean_linker_1, # of connection points: 2
#     Edge 336, Type (0, 1), BuildingBlock: KIFKEQ_clean_linker_1, # of connection points: 2
#     Edge 337, Type (0, 1), BuildingBlock: KIFKEQ_clean_linker_1, # of connection points: 2
#     Edge 338, Type (0, 1), BuildingBlock: KIFKEQ_clean_linker_1, # of connection points: 2
#     Edge 339, Type (0, 1), BuildingBlock: KIFKEQ_clean_linker_1, # of connection points: 2
#     Edge 340, Type (0, 1), BuildingBlock: KIFKEQ_clean_linker_1, # of connection points: 2
#     Edge 341, Type (0, 1), BuildingBlock: KIFKEQ_clean_linker_1, # of connection points: 2
#     Edge 342, Type (0, 1), BuildingBlock: KIFKEQ_clean_linker_1, # of connection points: 2
#     Edge 343, Type (0, 1), BuildingBlock: KIFKEQ_clean_linker_1, # of connection points: 2
#     Edge 344, Type (0, 1), BuildingBlock: KIFKEQ_clean_linker_1, # of connection points: 2
#     Edge 345, Type (0, 1), BuildingBlock: KIFKEQ_clean_linker_1, # of connection points: 2
#     Edge 346, Type (0, 1), BuildingBlock: KIFKEQ_clean_linker_1, # of connection points: 2
#     Edge 347, Type (0, 1), BuildingBlock: KIFKEQ_clean_linker_1, # of connection points: 2
#     Edge 348, Type (0, 1), BuildingBlock: KIFKEQ_clean_linker_1, # of connection points: 2
#     Edge 349, Type (0, 1), BuildingBlock: KIFKEQ_clean_linker_1, # of connection points: 2
#     Edge 350, Type (0, 1), BuildingBlock: KIFKEQ_clean_linker_1, # of connection points: 2
#     Edge 351, Type (0, 1), BuildingBlock: KIFKEQ_clean_linker_1, # of connection points: 2
#     Edge 352, Type (0, 1), BuildingBlock: KIFKEQ_clean_linker_1, # of connection points: 2
#     Edge 353, Type (0, 1), BuildingBlock: KIFKEQ_clean_linker_1, # of connection points: 2
#     Edge 354, Type (0, 1), BuildingBlock: KIFKEQ_clean_linker_1, # of connection points: 2
#     Edge 355, Type (0, 1), BuildingBlock: KIFKEQ_clean_linker_1, # of connection points: 2
#     Edge 356, Type (0, 1), BuildingBlock: KIFKEQ_clean_linker_1, # of connection points: 2
#     Edge 357, Type (0, 1), BuildingBlock: KIFKEQ_clean_linker_1, # of connection points: 2
#     Edge 358, Type (0, 1), BuildingBlock: KIFKEQ_clean_linker_1, # of connection points: 2
#     Edge 359, Type (0, 1), BuildingBlock: KIFKEQ_clean_linker_1, # of connection points: 2
#     Edge 360, Type (0, 1), BuildingBlock: KIFKEQ_clean_linker_1, # of connection points: 2
#     Edge 361, Type (0, 1), BuildingBlock: KIFKEQ_clean_linker_1, # of connection points: 2
#     Edge 362, Type (0, 1), BuildingBlock: KIFKEQ_clean_linker_1, # of connection points: 2
#     Edge 363, Type (0, 1), BuildingBlock: KIFKEQ_clean_linker_1, # of connection points: 2
#     Edge 364, Type (0, 1), BuildingBlock: KIFKEQ_clean_linker_1, # of connection points: 2
#     Edge 365, Type (0, 1), BuildingBlock: KIFKEQ_clean_linker_1, # of connection points: 2
#     Edge 366, Type (0, 1), BuildingBlock: KIFKEQ_clean_linker_1, # of connection points: 2
#     Edge 367, Type (0, 1), BuildingBlock: KIFKEQ_clean_linker_1, # of connection points: 2
#     Edge 368, Type (0, 1), BuildingBlock: KIFKEQ_clean_linker_1, # of connection points: 2
#     Edge 369, Type (0, 1), BuildingBlock: KIFKEQ_clean_linker_1, # of connection points: 2
#     Edge 370, Type (0, 1), BuildingBlock: KIFKEQ_clean_linker_1, # of connection points: 2
#     Edge 371, Type (0, 1), BuildingBlock: KIFKEQ_clean_linker_1, # of connection points: 2
#     Edge 372, Type (0, 1), BuildingBlock: KIFKEQ_clean_linker_1, # of connection points: 2
#     Edge 373, Type (0, 1), BuildingBlock: KIFKEQ_clean_linker_1, # of connection points: 2
#     Edge 374, Type (0, 1), BuildingBlock: KIFKEQ_clean_linker_1, # of connection points: 2
#     Edge 375, Type (0, 1), BuildingBlock: KIFKEQ_clean_linker_1, # of connection points: 2
#     Edge 376, Type (0, 1), BuildingBlock: KIFKEQ_clean_linker_1, # of connection points: 2
#     Edge 377, Type (0, 1), BuildingBlock: KIFKEQ_clean_linker_1, # of connection points: 2
#     Edge 378, Type (0, 1), BuildingBlock: KIFKEQ_clean_linker_1, # of connection points: 2
#     Edge 379, Type (0, 1), BuildingBlock: KIFKEQ_clean_linker_1, # of connection points: 2
#     Edge 380, Type (0, 1), BuildingBlock: KIFKEQ_clean_linker_1, # of connection points: 2
#     Edge 381, Type (0, 1), BuildingBlock: KIFKEQ_clean_linker_1, # of connection points: 2
#     Edge 382, Type (0, 1), BuildingBlock: KIFKEQ_clean_linker_1, # of connection points: 2
#     Edge 383, Type (0, 1), BuildingBlock: KIFKEQ_clean_linker_1, # of connection points: 2
#     Edge 384, Type (0, 1), BuildingBlock: KIFKEQ_clean_linker_1, # of connection points: 2
#     Edge 385, Type (0, 1), BuildingBlock: KIFKEQ_clean_linker_1, # of connection points: 2
#     Edge 386, Type (0, 1), BuildingBlock: KIFKEQ_clean_linker_1, # of connection points: 2
#     Edge 387, Type (0, 1), BuildingBlock: KIFKEQ_clean_linker_1, # of connection points: 2
#     Edge 388, Type (0, 1), BuildingBlock: KIFKEQ_clean_linker_1, # of connection points: 2
#     Edge 389, Type (0, 1), BuildingBlock: KIFKEQ_clean_linker_1, # of connection points: 2
#     Edge 390, Type (0, 1), BuildingBlock: KIFKEQ_clean_linker_1, # of connection points: 2
#     Edge 391, Type (0, 1), BuildingBlock: KIFKEQ_clean_linker_1, # of connection points: 2
#     Edge 392, Type (0, 1), BuildingBlock: KIFKEQ_clean_linker_1, # of connection points: 2
#     Edge 393, Type (0, 1), BuildingBlock: KIFKEQ_clean_linker_1, # of connection points: 2
#     Edge 394, Type (0, 1), BuildingBlock: KIFKEQ_clean_linker_1, # of connection points: 2
#     Edge 395, Type (0, 1), BuildingBlock: KIFKEQ_clean_linker_1, # of connection points: 2
#     Edge 396, Type (0, 1), BuildingBlock: KIFKEQ_clean_linker_1, # of connection points: 2
#     Edge 397, Type (0, 1), BuildingBlock: KIFKEQ_clean_linker_1, # of connection points: 2
#     Edge 398, Type (0, 1), BuildingBlock: KIFKEQ_clean_linker_1, # of connection points: 2
#     Edge 399, Type (0, 1), BuildingBlock: KIFKEQ_clean_linker_1, # of connection points: 2
#     Edge 400, Type (0, 1), BuildingBlock: KIFKEQ_clean_linker_1, # of connection points: 2
#     Edge 401, Type (0, 1), BuildingBlock: KIFKEQ_clean_linker_1, # of connection points: 2
#     Edge 402, Type (0, 1), BuildingBlock: KIFKEQ_clean_linker_1, # of connection points: 2
#     Edge 403, Type (0, 1), BuildingBlock: KIFKEQ_clean_linker_1, # of connection points: 2
#     Edge 404, Type (0, 1), BuildingBlock: KIFKEQ_clean_linker_1, # of connection points: 2
#     Edge 405, Type (0, 1), BuildingBlock: KIFKEQ_clean_linker_1, # of connection points: 2
#     Edge 406, Type (0, 1), BuildingBlock: KIFKEQ_clean_linker_1, # of connection points: 2
#     Edge 407, Type (0, 1), BuildingBlock: KIFKEQ_clean_linker_1, # of connection points: 2
#     Edge 408, Type (0, 1), BuildingBlock: KIFKEQ_clean_linker_1, # of connection points: 2
#     Edge 409, Type (0, 1), BuildingBlock: KIFKEQ_clean_linker_1, # of connection points: 2
#     Edge 410, Type (0, 1), BuildingBlock: KIFKEQ_clean_linker_1, # of connection points: 2
#     Edge 411, Type (0, 1), BuildingBlock: KIFKEQ_clean_linker_1, # of connection points: 2
#     Edge 412, Type (0, 1), BuildingBlock: KIFKEQ_clean_linker_1, # of connection points: 2
#     Edge 413, Type (0, 1), BuildingBlock: KIFKEQ_clean_linker_1, # of connection points: 2
#     Edge 414, Type (0, 1), BuildingBlock: KIFKEQ_clean_linker_1, # of connection points: 2
#     Edge 415, Type (0, 1), BuildingBlock: KIFKEQ_clean_linker_1, # of connection points: 2
#     Edge 416, Type (0, 1), BuildingBlock: KIFKEQ_clean_linker_1, # of connection points: 2
#     Edge 417, Type (0, 1), BuildingBlock: KIFKEQ_clean_linker_1, # of connection points: 2
#     Edge 418, Type (0, 1), BuildingBlock: KIFKEQ_clean_linker_1, # of connection points: 2
#     Edge 419, Type (0, 1), BuildingBlock: KIFKEQ_clean_linker_1, # of connection points: 2
#     Edge 420, Type (0, 1), BuildingBlock: KIFKEQ_clean_linker_1, # of connection points: 2
#     Edge 421, Type (0, 1), BuildingBlock: KIFKEQ_clean_linker_1, # of connection points: 2
#     Edge 422, Type (0, 1), BuildingBlock: KIFKEQ_clean_linker_1, # of connection points: 2
#     Edge 423, Type (0, 1), BuildingBlock: KIFKEQ_clean_linker_1, # of connection points: 2
#     Edge 424, Type (0, 1), BuildingBlock: KIFKEQ_clean_linker_1, # of connection points: 2
#     Edge 425, Type (0, 1), BuildingBlock: KIFKEQ_clean_linker_1, # of connection points: 2
#     Edge 426, Type (0, 1), BuildingBlock: KIFKEQ_clean_linker_1, # of connection points: 2
#     Edge 427, Type (0, 1), BuildingBlock: KIFKEQ_clean_linker_1, # of connection points: 2
#     Edge 428, Type (0, 1), BuildingBlock: KIFKEQ_clean_linker_1, # of connection points: 2
#     Edge 429, Type (0, 1), BuildingBlock: KIFKEQ_clean_linker_1, # of connection points: 2
#     Edge 430, Type (0, 1), BuildingBlock: KIFKEQ_clean_linker_1, # of connection points: 2
#     Edge 431, Type (0, 1), BuildingBlock: KIFKEQ_clean_linker_1, # of connection points: 2
#     Edge 432, Type (0, 1), BuildingBlock: KIFKEQ_clean_linker_1, # of connection points: 2
#     Edge 433, Type (0, 1), BuildingBlock: KIFKEQ_clean_linker_1, # of connection points: 2
#     Edge 434, Type (0, 1), BuildingBlock: KIFKEQ_clean_linker_1, # of connection points: 2
#     Edge 435, Type (0, 1), BuildingBlock: KIFKEQ_clean_linker_1, # of connection points: 2
#     Edge 436, Type (0, 1), BuildingBlock: KIFKEQ_clean_linker_1, # of connection points: 2
#     Edge 437, Type (0, 1), BuildingBlock: KIFKEQ_clean_linker_1, # of connection points: 2
#     Edge 438, Type (0, 1), BuildingBlock: KIFKEQ_clean_linker_1, # of connection points: 2
#     Edge 439, Type (0, 1), BuildingBlock: KIFKEQ_clean_linker_1, # of connection points: 2
#     Edge 440, Type (0, 1), BuildingBlock: KIFKEQ_clean_linker_1, # of connection points: 2
#     Edge 441, Type (0, 1), BuildingBlock: KIFKEQ_clean_linker_1, # of connection points: 2
#     Edge 442, Type (0, 1), BuildingBlock: KIFKEQ_clean_linker_1, # of connection points: 2
#     Edge 443, Type (0, 1), BuildingBlock: KIFKEQ_clean_linker_1, # of connection points: 2
#     Edge 444, Type (0, 1), BuildingBlock: KIFKEQ_clean_linker_1, # of connection points: 2
#     Edge 445, Type (0, 1), BuildingBlock: KIFKEQ_clean_linker_1, # of connection points: 2
#     Edge 446, Type (0, 1), BuildingBlock: KIFKEQ_clean_linker_1, # of connection points: 2
#     Edge 447, Type (0, 1), BuildingBlock: KIFKEQ_clean_linker_1, # of connection points: 2
#     Edge 448, Type (0, 1), BuildingBlock: KIFKEQ_clean_linker_1, # of connection points: 2
#     Edge 449, Type (0, 1), BuildingBlock: KIFKEQ_clean_linker_1, # of connection points: 2
#     Edge 450, Type (0, 1), BuildingBlock: KIFKEQ_clean_linker_1, # of connection points: 2
#     Edge 451, Type (0, 1), BuildingBlock: KIFKEQ_clean_linker_1, # of connection points: 2
#     Edge 452, Type (0, 1), BuildingBlock: KIFKEQ_clean_linker_1, # of connection points: 2
#     Edge 453, Type (0, 1), BuildingBlock: KIFKEQ_clean_linker_1, # of connection points: 2
#     Edge 454, Type (0, 1), BuildingBlock: KIFKEQ_clean_linker_1, # of connection points: 2
#     Edge 455, Type (0, 1), BuildingBlock: KIFKEQ_clean_linker_1, # of connection points: 2
#     Edge 456, Type (0, 1), BuildingBlock: KIFKEQ_clean_linker_1, # of connection points: 2
#     Edge 457, Type (0, 1), BuildingBlock: KIFKEQ_clean_linker_1, # of connection points: 2
#     Edge 458, Type (0, 1), BuildingBlock: KIFKEQ_clean_linker_1, # of connection points: 2
#     Edge 459, Type (0, 1), BuildingBlock: KIFKEQ_clean_linker_1, # of connection points: 2
#     Edge 460, Type (0, 1), BuildingBlock: KIFKEQ_clean_linker_1, # of connection points: 2
#     Edge 461, Type (0, 1), BuildingBlock: KIFKEQ_clean_linker_1, # of connection points: 2
#     Edge 462, Type (0, 1), BuildingBlock: KIFKEQ_clean_linker_1, # of connection points: 2
#     Edge 463, Type (0, 1), BuildingBlock: KIFKEQ_clean_linker_1, # of connection points: 2
#     Edge 464, Type (0, 1), BuildingBlock: KIFKEQ_clean_linker_1, # of connection points: 2
#     Edge 465, Type (0, 1), BuildingBlock: KIFKEQ_clean_linker_1, # of connection points: 2
#     Edge 466, Type (0, 1), BuildingBlock: KIFKEQ_clean_linker_1, # of connection points: 2
#     Edge 467, Type (0, 1), BuildingBlock: KIFKEQ_clean_linker_1, # of connection points: 2
#     Edge 468, Type (0, 1), BuildingBlock: KIFKEQ_clean_linker_1, # of connection points: 2
#     Edge 469, Type (0, 1), BuildingBlock: KIFKEQ_clean_linker_1, # of connection points: 2
#     Edge 470, Type (0, 1), BuildingBlock: KIFKEQ_clean_linker_1, # of connection points: 2
#     Edge 471, Type (0, 1), BuildingBlock: KIFKEQ_clean_linker_1, # of connection points: 2
#     Edge 472, Type (0, 1), BuildingBlock: KIFKEQ_clean_linker_1, # of connection points: 2
#     Edge 473, Type (0, 1), BuildingBlock: KIFKEQ_clean_linker_1, # of connection points: 2
#     Edge 474, Type (0, 1), BuildingBlock: KIFKEQ_clean_linker_1, # of connection points: 2
#     Edge 475, Type (0, 1), BuildingBlock: KIFKEQ_clean_linker_1, # of connection points: 2
#     Edge 476, Type (0, 1), BuildingBlock: KIFKEQ_clean_linker_1, # of connection points: 2
#     Edge 477, Type (0, 1), BuildingBlock: KIFKEQ_clean_linker_1, # of connection points: 2
#     Edge 478, Type (0, 1), BuildingBlock: KIFKEQ_clean_linker_1, # of connection points: 2
#     Edge 479, Type (0, 1), BuildingBlock: KIFKEQ_clean_linker_1, # of connection points: 2
# Relax obj value: 0.035
# Max RMSD: 0.056
# Mean RMSD: 0.033
data_MOF--net-ana-f--node1-WUSLED_clean_sbu_0--node2-PAMTOO_clean_linker_0--edge1-KIFKEQ_clean_linker_1
_symmetry_space_group_name_H-M    P1
_symmetry_Int_Tables_number       1
_symmetry_cell_setting            triclinic
loop_
_symmetry_equiv_pos_as_xyz
'x, y, z'
_cell_length_a     190.4273
_cell_length_b     190.38162
_cell_length_c     190.39002
_cell_angle_alpha  89.994734
_cell_angle_beta   90.009107
_cell_angle_gamma 90.006436
loop_
_atom_site_label
_atom_site_type_symbol
_atom_site_fract_x
_atom_site_fract_y
_atom_site_fract_z
_atom_type_partial_charge
C0 C 0.07002 0.14305 0.4271 0.0
C1 C 0.07628 0.14692 0.42746 0.0
C2 C 0.08114 0.13855 0.43584 0.0
C3 C 0.08178 0.1447 0.43178 0.0
C4 C 0.07479 0.13476 0.43558 0.0
C5 C 0.06928 0.13699 0.43122 0.0
U6 U 0.06402 0.1559 0.41347 0.0
O7 O 0.0586 0.15458 0.40333 0.0
O8 O 0.05395 0.16123 0.41152 0.0
C9 C 0.05318 0.15838 0.40528 0.0
C10 C 0.06441 0.1453 0.42227 0.0
C11 C 0.04621 0.1554 0.40372 0.0
C12 C 0.03629 0.14788 0.4066 0.0
C13 C 0.04302 0.15044 0.40815 0.0
C14 C 0.03594 0.15513 0.39615 0.0
C15 C 0.03264 0.15023 0.4006 0.0
C16 C 0.04264 0.15768 0.39771 0.0
C17 C 0.07814 0.17027 0.40965 0.0
C18 C 0.08045 0.1774 0.39928 0.0
C19 C 0.08656 0.17982 0.41018 0.0
C20 C 0.08292 0.17437 0.41345 0.0
C21 C 0.08551 0.18129 0.40302 0.0
C22 C 0.07681 0.1719 0.40257 0.0
C23 C 0.07515 0.16404 0.41311 0.0
O24 O 0.06149 0.15137 0.42381 0.0
O25 O 0.06598 0.1447 0.41557 0.0
O26 O 0.07447 0.15835 0.40926 0.0
O27 O 0.06986 0.16509 0.41741 0.0
H28 H 0.07694 0.15163 0.42433 0.0
H29 H 0.08654 0.1478 0.43194 0.0
H30 H 0.07415 0.12999 0.4386 0.0
H31 H 0.06448 0.13394 0.431 0.0
H32 H 0.03389 0.14416 0.41018 0.0
H33 H 0.04571 0.14862 0.41282 0.0
H34 H 0.03336 0.15696 0.39143 0.0
H35 H 0.04503 0.16148 0.39421 0.0
H36 H 0.07955 0.17841 0.39376 0.0
H37 H 0.09033 0.1828 0.41323 0.0
H38 H 0.084 0.17321 0.41891 0.0
H39 H 0.07313 0.16879 0.39954 0.0
C40 C 0.11299 0.81984 0.6774 0.0
C41 C 0.10846 0.8254 0.67908 0.0
C42 C 0.11734 0.83052 0.68676 0.0
C43 C 0.1106 0.83067 0.68373 0.0
C44 C 0.12186 0.82491 0.68507 0.0
C45 C 0.11969 0.81961 0.68044 0.0
U46 U 0.10033 0.814 0.66336 0.0
O47 O 0.10198 0.80881 0.65315 0.0
O48 O 0.0953 0.80385 0.66113 0.0
C49 C 0.09834 0.80323 0.65496 0.0
C50 C 0.11082 0.81445 0.67229 0.0
C51 C 0.10159 0.79637 0.65343 0.0
C52 C 0.10815 0.78599 0.65701 0.0
C53 C 0.10545 0.79268 0.65852 0.0
C54 C 0.10331 0.78669 0.64527 0.0
C55 C 0.10706 0.78289 0.65038 0.0
C56 C 0.1006 0.79335 0.64679 0.0
C57 C 0.08548 0.82761 0.65959 0.0
C58 C 0.07882 0.8305 0.64906 0.0
C59 C 0.07509 0.83496 0.66038 0.0
C60 C 0.08068 0.83148 0.6636 0.0
C61 C 0.07419 0.83467 0.65305 0.0
C62 C 0.08444 0.82701 0.6523 0.0
C63 C 0.0918 0.82485 0.66311 0.0
O64 O 0.10482 0.81132 0.67367 0.0
O65 O 0.11142 0.81632 0.66567 0.0
O66 O 0.09758 0.82446 0.65935 0.0
O67 O 0.09091 0.81946 0.66733 0.0
H68 H 0.10328 0.8257 0.67673 0.0
H69 H 0.10702 0.83496 0.68481 0.0
H70 H 0.12706 0.8246 0.68735 0.0
H71 H 0.12327 0.81537 0.67918 0.0
H72 H 0.11109 0.78325 0.66104 0.0
H73 H 0.10632 0.79493 0.66367 0.0
H74 H 0.1023 0.78444 0.64014 0.0
H75 H 0.09762 0.7961 0.6428 0.0
H76 H 0.07828 0.8302 0.64341 0.0
H77 H 0.07155 0.83802 0.66361 0.0
H78 H 0.08138 0.83199 0.66922 0.0
H79 H 0.08808 0.82404 0.6491 0.0
C80 C 0.43561 0.86273 0.92865 0.0
C81 C 0.42963 0.85861 0.92989 0.0
C82 C 0.42518 0.86732 0.93815 0.0
C83 C 0.42448 0.86087 0.9346 0.0
C84 C 0.43121 0.87142 0.93691 0.0
C85 C 0.43639 0.86913 0.9322 0.0
U86 U 0.44064 0.85058 0.91385 0.0
O87 O 0.44599 0.85248 0.90379 0.0
O88 O 0.45046 0.84502 0.91135 0.0
C89 C 0.45138 0.84848 0.90543 0.0
C90 C 0.44088 0.86046 0.92345 0.0
C91 C 0.4585 0.8514 0.90414 0.0
C92 C 0.46624 0.85981 0.89834 0.0
C93 C 0.45948 0.85743 0.89998 0.0
C94 C 0.47123 0.85022 0.90502 0.0
C95 C 0.47221 0.85621 0.90079 0.0
C96 C 0.46447 0.84783 0.90664 0.0
C97 C 0.42593 0.83724 0.90895 0.0
C98 C 0.42558 0.82924 0.899 0.0
C99 C 0.41584 0.82966 0.90718 0.0
C100 C 0.41934 0.83477 0.91109 0.0
C101 C 0.41886 0.8269 0.90103 0.0
C102 C 0.42908 0.83441 0.90292 0.0
C103 C 0.42914 0.84299 0.91298 0.0
O104 O 0.4435 0.85416 0.92447 0.0
O105 O 0.43915 0.86164 0.91688 0.0
O106 O 0.43003 0.84895 0.90962 0.0
O107 O 0.43446 0.84133 0.91705 0.0
H108 H 0.4289 0.85368 0.92714 0.0
H109 H 0.41985 0.85764 0.93533 0.0
H110 H 0.43194 0.87638 0.93958 0.0
H111 H 0.44096 0.87239 0.93129 0.0
H112 H 0.46678 0.86438 0.89499 0.0
H113 H 0.45502 0.86025 0.89786 0.0
H114 H 0.47569 0.84736 0.90708 0.0
H115 H 0.46392 0.84313 0.90979 0.0
H116 H 0.42802 0.82723 0.89427 0.0
H117 H 0.41074 0.82789 0.90896 0.0
H118 H 0.41684 0.83688 0.91575 0.0
H119 H 0.43417 0.83628 0.90119 0.0
C120 C 0.39351 0.18543 0.17768 0.0
C121 C 0.39767 0.17939 0.17831 0.0
C122 C 0.3892 0.1742 0.18638 0.0
C123 C 0.39555 0.17384 0.18262 0.0
C124 C 0.38509 0.18033 0.18582 0.0
C125 C 0.38723 0.18589 0.18149 0.0
U126 U 0.40604 0.19174 0.16383 0.0
O127 O 0.40447 0.1974 0.15389 0.0
O128 O 0.41128 0.20191 0.16203 0.0
C129 C 0.40829 0.2028 0.15587 0.0
C130 C 0.39566 0.1911 0.17287 0.0
C131 C 0.40533 0.20982 0.15449 0.0
C132 C 0.3956 0.2181 0.15425 0.0
C133 C 0.39828 0.21144 0.15591 0.0
C134 C 0.407 0.22159 0.14983 0.0
C135 C 0.39991 0.22324 0.15113 0.0
C136 C 0.40966 0.21495 0.15148 0.0
C137 C 0.42049 0.1782 0.15906 0.0
C138 C 0.42773 0.17765 0.14855 0.0
C139 C 0.43021 0.16997 0.15839 0.0
C140 C 0.42462 0.17293 0.1621 0.0
C141 C 0.43179 0.17223 0.15153 0.0
C142 C 0.42213 0.18063 0.15229 0.0
C143 C 0.41431 0.18073 0.16295 0.0
O144 O 0.40175 0.19402 0.17432 0.0
O145 O 0.39492 0.18963 0.16617 0.0
O146 O 0.40847 0.18141 0.15932 0.0
O147 O 0.41538 0.1859 0.16739 0.0
H148 H 0.40255 0.17893 0.17541 0.0
H149 H 0.3989 0.16926 0.18301 0.0
H150 H 0.38014 0.18075 0.18859 0.0
H151 H 0.38393 0.19051 0.18105 0.0
H152 H 0.39011 0.21917 0.15528 0.0
H153 H 0.39485 0.20754 0.15823 0.0
H154 H 0.41052 0.22545 0.14757 0.0
H155 H 0.41513 0.21381 0.15037 0.0
H156 H 0.42884 0.17956 0.14331 0.0
H157 H 0.43312 0.16573 0.16081 0.0
H158 H 0.42342 0.17097 0.16731 0.0
H159 H 0.419 0.18472 0.14987 0.0
C160 C 0.06911 0.86239 0.07772 0.0
C161 C 0.07504 0.85822 0.0764 0.0
C162 C 0.07958 0.86699 0.06825 0.0
C163 C 0.08021 0.86048 0.07169 0.0
C164 C 0.0736 0.87114 0.06957 0.0
C165 C 0.06841 0.86885 0.07426 0.0
U166 U 0.06427 0.85049 0.09277 0.0
O167 O 0.0588 0.85249 0.10274 0.0
O168 O 0.05458 0.84471 0.09535 0.0
C169 C 0.05361 0.84819 0.10123 0.0
C170 C 0.06385 0.86013 0.08292 0.0
C171 C 0.04645 0.85087 0.10245 0.0
C172 C 0.03769 0.86017 0.10199 0.0
C173 C 0.04448 0.85772 0.10054 0.0
C174 C 0.03474 0.84893 0.10716 0.0
C175 C 0.03273 0.8558 0.10533 0.0
C176 C 0.04153 0.8465 0.10574 0.0
C177 C 0.07921 0.83768 0.0982 0.0
C178 C 0.0788 0.82864 0.10722 0.0
C179 C 0.08975 0.83124 0.10129 0.0
C180 C 0.08637 0.83634 0.09726 0.0
C181 C 0.08604 0.82737 0.10637 0.0
C182 C 0.07541 0.83379 0.10317 0.0
C183 C 0.07596 0.84324 0.09394 0.0
O184 O 0.06138 0.85374 0.08206 0.0
O185 O 0.06548 0.86152 0.08948 0.0
O186 O 0.07491 0.84927 0.09712 0.0
O187 O 0.07073 0.84136 0.08985 0.0
H188 H 0.07572 0.85324 0.07908 0.0
H189 H 0.08479 0.8572 0.0709 0.0
H190 H 0.07293 0.87616 0.06697 0.0
H191 H 0.06388 0.87216 0.07524 0.0
H192 H 0.03629 0.86546 0.10044 0.0
H193 H 0.0482 0.86117 0.09797 0.0
H194 H 0.03111 0.84545 0.10981 0.0
H195 H 0.04295 0.84121 0.10727 0.0
H196 H 0.0758 0.82577 0.1111 0.0
H197 H 0.09529 0.83031 0.10041 0.0
H198 H 0.08938 0.83927 0.09342 0.0
H199 H 0.06986 0.83478 0.10396 0.0
C200 C 0.39349 0.82047 0.3276 0.0
C201 C 0.39731 0.82676 0.32726 0.0
C202 C 0.38895 0.83156 0.31885 0.0
C203 C 0.39507 0.83224 0.32293 0.0
C204 C 0.38522 0.82518 0.31908 0.0
C205 C 0.38746 0.81968 0.32344 0.0
U206 U 0.40543 0.81512 0.34227 0.0
O207 O 0.40357 0.80956 0.35222 0.0
O208 O 0.4112 0.80537 0.34465 0.0
C209 C 0.40786 0.80439 0.35062 0.0
C210 C 0.39568 0.81493 0.33254 0.0
C211 C 0.40519 0.79725 0.3519 0.0
C212 C 0.39642 0.78808 0.3504 0.0
C213 C 0.39891 0.79484 0.34887 0.0
C214 C 0.40648 0.78607 0.35791 0.0
C215 C 0.40015 0.78362 0.35498 0.0
C216 C 0.40896 0.79281 0.35639 0.0
C217 C 0.41828 0.83003 0.3477 0.0
C218 C 0.42702 0.82974 0.35702 0.0
C219 C 0.42498 0.84049 0.35051 0.0
C220 C 0.41991 0.83709 0.34648 0.0
C221 C 0.42855 0.83689 0.35588 0.0
C222 C 0.42189 0.82633 0.35297 0.0
C223 C 0.41269 0.8268 0.34348 0.0
O224 O 0.40204 0.81245 0.33154 0.0
O225 O 0.39436 0.81634 0.33917 0.0
O226 O 0.4067 0.8257 0.34673 0.0
O227 O 0.41454 0.82161 0.33933 0.0
H228 H 0.40198 0.82747 0.33044 0.0
H229 H 0.39814 0.83703 0.3228 0.0
H230 H 0.38045 0.8245 0.31604 0.0
H231 H 0.38443 0.81487 0.32366 0.0
H232 H 0.3915 0.78639 0.34809 0.0
H233 H 0.39593 0.79821 0.34539 0.0
H234 H 0.40956 0.78275 0.36135 0.0
H235 H 0.41383 0.79457 0.35876 0.0
H236 H 0.42967 0.82684 0.36114 0.0
H237 H 0.42612 0.84596 0.34941 0.0
H238 H 0.41719 0.84001 0.34241 0.0
H239 H 0.42068 0.82087 0.35398 0.0
C240 C 0.43615 0.14306 0.57696 0.0
C241 C 0.43082 0.14772 0.57489 0.0
C242 C 0.42561 0.13868 0.56746 0.0
C243 C 0.42563 0.14556 0.57016 0.0
C244 C 0.431 0.13405 0.56952 0.0
C245 C 0.43623 0.13623 0.57422 0.0
U246 U 0.4408 0.1548 0.59217 0.0
O247 O 0.44589 0.1526 0.60233 0.0
O248 O 0.45047 0.16037 0.59514 0.0
C249 C 0.45119 0.15684 0.60103 0.0
C250 C 0.44133 0.14519 0.58231 0.0
C251 C 0.45824 0.15401 0.6025 0.0
C252 C 0.46903 0.14822 0.59883 0.0
C253 C 0.46222 0.15058 0.59732 0.0
C254 C 0.46789 0.15255 0.61073 0.0
C255 C 0.47198 0.14923 0.60555 0.0
C256 C 0.46111 0.15492 0.60922 0.0
C257 C 0.42593 0.16781 0.59721 0.0
C258 C 0.42613 0.17653 0.60655 0.0
C259 C 0.41544 0.1745 0.59995 0.0
C260 C 0.41888 0.16943 0.59592 0.0
C261 C 0.41899 0.17806 0.60536 0.0
C262 C 0.42958 0.17141 0.60251 0.0
C263 C 0.42921 0.16224 0.593 0.0
O264 O 0.44398 0.15153 0.58155 0.0
O265 O 0.4395 0.1438 0.58882 0.0
O266 O 0.43006 0.15617 0.59616 0.0
O267 O 0.43461 0.16407 0.5891 0.0
H268 H 0.4306 0.15299 0.57702 0.0
H269 H 0.4215 0.14923 0.56879 0.0
H270 H 0.43116 0.12873 0.56751 0.0
H271 H 0.44027 0.13255 0.5758 0.0
H272 H 0.47203 0.14574 0.59469 0.0
H273 H 0.46009 0.14982 0.5921 0.0
H274 H 0.46992 0.15331 0.61599 0.0
H275 H 0.45811 0.15753 0.6133 0.0
H276 H 0.42899 0.17916 0.6107 0.0
H277 H 0.40999 0.17564 0.59881 0.0
H278 H 0.41599 0.16673 0.59183 0.0
H279 H 0.43503 0.1702 0.60357 0.0
C280 C 0.11281 0.18558 0.82778 0.0
C281 C 0.10813 0.18027 0.82572 0.0
C282 C 0.11721 0.17487 0.81848 0.0
C283 C 0.1103 0.17499 0.8211 0.0
C284 C 0.12188 0.18021 0.82057 0.0
C285 C 0.11969 0.18553 0.82517 0.0
U286 U 0.09996 0.19139 0.84162 0.0
O287 O 0.10132 0.19671 0.85179 0.0
O288 O 0.09471 0.2015 0.84364 0.0
C289 C 0.09756 0.20218 0.84989 0.0
C290 C 0.11057 0.191 0.83284 0.0
C291 C 0.10051 0.20915 0.85154 0.0
C292 C 0.11021 0.21746 0.85196 0.0
C293 C 0.10755 0.21084 0.85014 0.0
C294 C 0.09881 0.22078 0.85651 0.0
C295 C 0.10588 0.22251 0.85522 0.0
C296 C 0.09617 0.21417 0.8547 0.0
C297 C 0.08525 0.1778 0.84541 0.0
C298 C 0.07739 0.17726 0.85546 0.0
C299 C 0.07561 0.16947 0.84556 0.0
C300 C 0.08139 0.17245 0.84218 0.0
C301 C 0.07356 0.17178 0.85228 0.0
C302 C 0.08319 0.18026 0.85205 0.0
C303 C 0.09158 0.18042 0.84185 0.0
O304 O 0.10457 0.19409 0.83137 0.0
O305 O 0.11112 0.18919 0.83948 0.0
O306 O 0.09729 0.18093 0.8457 0.0
O307 O 0.0907 0.18575 0.83756 0.0
H308 H 0.10282 0.18016 0.82775 0.0
H309 H 0.1066 0.17089 0.81971 0.0
H310 H 0.12722 0.1803 0.81861 0.0
H311 H 0.12339 0.18957 0.82672 0.0
H312 H 0.11569 0.21859 0.85093 0.0
H313 H 0.11099 0.20702 0.84769 0.0
H314 H 0.09528 0.22456 0.85887 0.0
H315 H 0.09072 0.21298 0.85579 0.0
H316 H 0.07592 0.17921 0.8606 0.0
H317 H 0.0729 0.16518 0.843 0.0
H318 H 0.08293 0.17046 0.83707 0.0
H319 H 0.08611 0.18441 0.85462 0.0
C320 C 0.42663 0.07048 0.14216 0.0
C321 C 0.42413 0.0774 0.14152 0.0
C322 C 0.43587 0.08157 0.13853 0.0
C323 C 0.42868 0.08286 0.13968 0.0
C324 C 0.43833 0.07461 0.13902 0.0
C325 C 0.43375 0.06913 0.14081 0.0
U326 U 0.41332 0.06397 0.15532 0.0
O327 O 0.40347 0.05805 0.15424 0.0
O328 O 0.41202 0.0538 0.16071 0.0
C329 C 0.40577 0.05272 0.15798 0.0
C330 C 0.42197 0.06476 0.14464 0.0
C331 C 0.40447 0.04566 0.15505 0.0
C332 C 0.40372 0.03751 0.14523 0.0
C333 C 0.40537 0.04419 0.14788 0.0
C334 C 0.40041 0.0337 0.15691 0.0
C335 C 0.40115 0.0322 0.14971 0.0
C336 C 0.40204 0.04036 0.15954 0.0
C337 C 0.40895 0.07761 0.16987 0.0
C338 C 0.39884 0.07826 0.17766 0.0
C339 C 0.40895 0.0857 0.17972 0.0
C340 C 0.4123 0.08276 0.1739 0.0
C341 C 0.40216 0.08354 0.18165 0.0
C342 C 0.40222 0.0753 0.17181 0.0
C343 C 0.41252 0.07505 0.16351 0.0
O344 O 0.42374 0.06194 0.15069 0.0
O345 O 0.41518 0.06591 0.14409 0.0
O346 O 0.40862 0.0742 0.15787 0.0
O347 O 0.41714 0.07001 0.16442 0.0
H348 H 0.41868 0.07864 0.14255 0.0
H349 H 0.42655 0.08811 0.13921 0.0
H350 H 0.44383 0.07342 0.13824 0.0
H351 H 0.43581 0.06385 0.14131 0.0
H352 H 0.40431 0.03657 0.13966 0.0
H353 H 0.40724 0.04822 0.14433 0.0
H354 H 0.39858 0.02972 0.16053 0.0
H355 H 0.40134 0.04139 0.16509 0.0
H356 H 0.39363 0.07643 0.17903 0.0
H357 H 0.41162 0.08983 0.18257 0.0
H358 H 0.41748 0.08463 0.17246 0.0
H359 H 0.39955 0.0713 0.16877 0.0
C360 C 0.1863 0.17838 0.3931 0.0
C361 C 0.18095 0.18052 0.39769 0.0
C362 C 0.17592 0.18797 0.38857 0.0
C363 C 0.17583 0.18529 0.39546 0.0
C364 C 0.18132 0.18582 0.384 0.0
C365 C 0.18647 0.18108 0.38625 0.0
U366 U 0.19142 0.16383 0.40556 0.0
O367 O 0.19644 0.15356 0.40373 0.0
O368 O 0.20135 0.16122 0.41082 0.0
C369 C 0.20192 0.15512 0.40763 0.0
C370 C 0.19149 0.17309 0.39534 0.0
C371 C 0.20885 0.15347 0.4046 0.0
C372 C 0.21948 0.15684 0.39836 0.0
C373 C 0.21275 0.15848 0.40085 0.0
C374 C 0.21842 0.14513 0.40323 0.0
C375 C 0.22244 0.15016 0.39958 0.0
C376 C 0.21172 0.14678 0.40571 0.0
C377 C 0.17756 0.15949 0.41978 0.0
C378 C 0.17744 0.14926 0.42741 0.0
C379 C 0.16871 0.1584 0.42888 0.0
C380 C 0.17173 0.16216 0.42336 0.0
C381 C 0.17149 0.15187 0.43095 0.0
C382 C 0.18046 0.15305 0.42187 0.0
C383 C 0.1803 0.16343 0.41372 0.0
O384 O 0.19443 0.17422 0.4015 0.0
O385 O 0.18952 0.16653 0.39447 0.0
O386 O 0.18079 0.15992 0.4078 0.0
O387 O 0.18572 0.16752 0.41493 0.0
H388 H 0.18067 0.17843 0.40298 0.0
H389 H 0.17168 0.18673 0.39908 0.0
H390 H 0.18157 0.18782 0.37868 0.0
H391 H 0.19055 0.17945 0.38263 0.0
H392 H 0.22244 0.16086 0.39563 0.0
H393 H 0.21063 0.16367 0.39993 0.0
H394 H 0.22046 0.1399 0.40416 0.0
H395 H 0.20878 0.14283 0.40858 0.0
H396 H 0.17975 0.14428 0.42891 0.0
H397 H 0.16407 0.16052 0.43138 0.0
H398 H 0.1694 0.16712 0.42179 0.0
H399 H 0.18499 0.15092 0.41916 0.0
C400 C 0.07794 0.93594 0.64302 0.0
C401 C 0.07724 0.92993 0.64722 0.0
C402 C 0.06926 0.92471 0.63868 0.0
C403 C 0.07294 0.92438 0.64508 0.0
C404 C 0.06988 0.93081 0.63453 0.0
C405 C 0.0742 0.93637 0.63668 0.0
U406 U 0.09191 0.94206 0.65547 0.0
O407 O 0.10183 0.94775 0.65392 0.0
O408 O 0.09376 0.9521 0.66091 0.0
C409 C 0.09988 0.95306 0.65788 0.0
C410 C 0.08275 0.9416 0.64518 0.0
C411 C 0.10124 0.96015 0.65506 0.0
C412 C 0.10119 0.9687 0.64556 0.0
C413 C 0.09955 0.96198 0.64812 0.0
C414 C 0.10611 0.97181 0.65687 0.0
C415 C 0.10455 0.97368 0.64989 0.0
C416 C 0.10448 0.96512 0.65941 0.0
C417 C 0.0968 0.92816 0.66956 0.0
C418 C 0.1072 0.92773 0.67696 0.0
C419 C 0.09769 0.91949 0.67887 0.0
C420 C 0.09394 0.92255 0.67336 0.0
C421 C 0.1044 0.92198 0.6807 0.0
C422 C 0.10342 0.9308 0.67143 0.0
C423 C 0.09287 0.93085 0.66348 0.0
O424 O 0.08137 0.94442 0.65133 0.0
O425 O 0.08945 0.94016 0.64433 0.0
O426 O 0.09646 0.93168 0.65764 0.0
O427 O 0.08845 0.936 0.66471 0.0
H428 H 0.08008 0.9295 0.65213 0.0
H429 H 0.0725 0.91983 0.64847 0.0
H430 H 0.06717 0.9312 0.62955 0.0
H431 H 0.0747 0.94097 0.63336 0.0
H432 H 0.09996 0.96994 0.64015 0.0
H433 H 0.09704 0.95821 0.64468 0.0
H434 H 0.10856 0.97553 0.6604 0.0
H435 H 0.10579 0.96381 0.6648 0.0
H436 H 0.11232 0.92982 0.67828 0.0
H437 H 0.09542 0.91501 0.68153 0.0
H438 H 0.08885 0.92042 0.67196 0.0
H439 H 0.1057 0.93515 0.66856 0.0
C440 C 0.32009 0.82727 0.89333 0.0
C441 C 0.32674 0.82743 0.89651 0.0
C442 C 0.3305 0.81741 0.88949 0.0
C443 C 0.33188 0.82255 0.89462 0.0
C444 C 0.32381 0.81726 0.88633 0.0
C445 C 0.31865 0.82215 0.88825 0.0
U446 U 0.31522 0.84281 0.90445 0.0
O447 O 0.30983 0.85275 0.90201 0.0
O448 O 0.30558 0.84572 0.91011 0.0
C449 C 0.30469 0.85151 0.90645 0.0
C450 C 0.31476 0.83253 0.89528 0.0
C451 C 0.29754 0.85284 0.90382 0.0
C452 C 0.28735 0.84965 0.8968 0.0
C453 C 0.29419 0.84823 0.89913 0.0
C454 C 0.28718 0.86028 0.90377 0.0
C455 C 0.28374 0.85568 0.89912 0.0
C456 C 0.29399 0.85887 0.9061 0.0
C457 C 0.33015 0.84872 0.91701 0.0
C458 C 0.3296 0.85783 0.92595 0.0
C459 C 0.34067 0.85215 0.92331 0.0
C460 C 0.33735 0.84799 0.91828 0.0
C461 C 0.33686 0.85715 0.92718 0.0
C462 C 0.32626 0.85365 0.92087 0.0
C463 C 0.32692 0.84423 0.91163 0.0
O464 O 0.3123 0.83196 0.90171 0.0
O465 O 0.31636 0.83903 0.89359 0.0
O466 O 0.32588 0.84715 0.90547 0.0
O467 O 0.32168 0.84024 0.91368 0.0
H468 H 0.32796 0.83137 0.90043 0.0
H469 H 0.337 0.82289 0.89708 0.0
H470 H 0.32255 0.81334 0.8824 0.0
H471 H 0.31354 0.82195 0.88574 0.0
H472 H 0.28484 0.84596 0.89327 0.0
H473 H 0.29686 0.84355 0.89732 0.0
H474 H 0.28463 0.86504 0.90558 0.0
H475 H 0.2965 0.8625 0.90969 0.0
H476 H 0.32653 0.86166 0.92882 0.0
H477 H 0.34624 0.85139 0.92421 0.0
H478 H 0.34042 0.84418 0.91537 0.0
H479 H 0.32068 0.85428 0.91994 0.0
C480 C 0.42883 0.93609 0.36224 0.0
C481 C 0.4302 0.9302 0.35802 0.0
C482 C 0.43838 0.92566 0.36677 0.0
C483 C 0.43493 0.92505 0.36026 0.0
C484 C 0.43702 0.93161 0.37096 0.0
C485 C 0.43229 0.93678 0.3687 0.0
U486 U 0.41432 0.94138 0.34983 0.0
O487 O 0.40411 0.94651 0.3517 0.0
O488 O 0.41181 0.95137 0.34461 0.0
C489 C 0.40572 0.95199 0.34782 0.0
C490 C 0.42362 0.94135 0.36001 0.0
C491 C 0.40413 0.95893 0.35088 0.0
C492 C 0.40767 0.96974 0.35673 0.0
C493 C 0.40928 0.96299 0.35424 0.0
C494 C 0.3957 0.96835 0.35267 0.0
C495 C 0.40086 0.97253 0.3559 0.0
C496 C 0.39732 0.96164 0.35018 0.0
C497 C 0.40976 0.92762 0.33559 0.0
C498 C 0.39946 0.9276 0.32803 0.0
C499 C 0.40857 0.91886 0.3264 0.0
C500 C 0.41238 0.92181 0.33193 0.0
C501 C 0.40203 0.92168 0.32441 0.0
C502 C 0.40331 0.93056 0.33357 0.0
C503 C 0.41376 0.93029 0.34164 0.0
O504 O 0.42478 0.94424 0.35385 0.0
O505 O 0.41704 0.93946 0.3609 0.0
O506 O 0.41028 0.93081 0.34758 0.0
O507 O 0.4179 0.93567 0.34042 0.0
H508 H 0.42753 0.92954 0.35304 0.0
H509 H 0.43576 0.92049 0.35695 0.0
H510 H 0.43962 0.93227 0.37597 0.0
H511 H 0.43128 0.94128 0.37203 0.0
H512 H 0.41179 0.97282 0.35914 0.0
H513 H 0.41458 0.961 0.35485 0.0
H514 H 0.39037 0.97026 0.35206 0.0
H515 H 0.39326 0.95857 0.34762 0.0
H516 H 0.39448 0.92994 0.32659 0.0
H517 H 0.41065 0.91424 0.32384 0.0
H518 H 0.41734 0.91945 0.33343 0.0
H519 H 0.40121 0.93507 0.33634 0.0
C520 C 0.31955 0.17845 0.61307 0.0
C521 C 0.32536 0.17991 0.60878 0.0
C522 C 0.33004 0.18793 0.6176 0.0
C523 C 0.33055 0.18461 0.61101 0.0
C524 C 0.32418 0.18647 0.62187 0.0
C525 C 0.31898 0.18178 0.61962 0.0
U526 U 0.31417 0.16437 0.6003 0.0
O527 O 0.309 0.15413 0.60176 0.0
O528 O 0.3042 0.16209 0.59494 0.0
C529 C 0.30355 0.15588 0.59789 0.0
C530 C 0.31424 0.17332 0.61078 0.0
C531 C 0.2966 0.15423 0.60084 0.0
C532 C 0.28656 0.15704 0.60823 0.0
C533 C 0.2933 0.15865 0.60573 0.0
C534 C 0.28641 0.14654 0.60106 0.0
C535 C 0.283 0.15099 0.60588 0.0
C536 C 0.29313 0.14815 0.59857 0.0
C537 C 0.3281 0.16056 0.58591 0.0
C538 C 0.32881 0.1505 0.57806 0.0
C539 C 0.33667 0.16038 0.57648 0.0
C540 C 0.33356 0.16378 0.58217 0.0
C541 C 0.33438 0.15368 0.57436 0.0
C542 C 0.32568 0.15393 0.58379 0.0
C543 C 0.32529 0.16418 0.59213 0.0
O544 O 0.31128 0.17466 0.60469 0.0
O545 O 0.31611 0.16671 0.61146 0.0
O546 O 0.32474 0.1604 0.59788 0.0
O547 O 0.31991 0.16836 0.59108 0.0
H548 H 0.32593 0.17734 0.60374 0.0
H549 H 0.33504 0.1855 0.60764 0.0
H550 H 0.32361 0.18898 0.62694 0.0
H551 H 0.31453 0.1807 0.623 0.0
H552 H 0.28408 0.16062 0.61189 0.0
H553 H 0.2959 0.16337 0.60755 0.0
H554 H 0.28391 0.14177 0.59922 0.0
H555 H 0.2956 0.14466 0.59482 0.0
H556 H 0.32688 0.14537 0.57654 0.0
H557 H 0.34102 0.16294 0.57386 0.0
H558 H 0.33552 0.16888 0.58376 0.0
H559 H 0.32145 0.15137 0.58661 0.0
C560 C 0.07878 0.07006 0.86342 0.0
C561 C 0.07792 0.07593 0.85905 0.0
C562 C 0.07 0.08129 0.86756 0.0
C563 C 0.07357 0.08148 0.86108 0.0
C564 C 0.07078 0.07533 0.87187 0.0
C565 C 0.07515 0.06977 0.86982 0.0
U566 U 0.09254 0.06367 0.85086 0.0
O567 O 0.10266 0.05827 0.85247 0.0
O568 O 0.09451 0.05344 0.84589 0.0
C569 C 0.1007 0.05271 0.84888 0.0
C570 C 0.08367 0.06443 0.86137 0.0
C571 C 0.10216 0.04584 0.85215 0.0
C572 C 0.09844 0.03538 0.8585 0.0
C573 C 0.09696 0.04206 0.85577 0.0
C574 C 0.11036 0.03626 0.85416 0.0
C575 C 0.10515 0.03238 0.85769 0.0
C576 C 0.10887 0.04291 0.85142 0.0
C577 C 0.09657 0.07712 0.83598 0.0
C578 C 0.10675 0.07801 0.82831 0.0
C579 C 0.09655 0.08531 0.82621 0.0
C580 C 0.09318 0.08226 0.83196 0.0
C581 C 0.10341 0.08328 0.82434 0.0
C582 C 0.10336 0.07494 0.83409 0.0
C583 C 0.093 0.07451 0.84231 0.0
O584 O 0.08218 0.06129 0.8554 0.0
O585 O 0.09035 0.06607 0.86195 0.0
O586 O 0.09681 0.07402 0.84805 0.0
O587 O 0.08868 0.0692 0.84144 0.0
H588 H 0.08068 0.07625 0.85409 0.0
H589 H 0.07301 0.08592 0.85758 0.0
H590 H 0.06815 0.07504 0.87691 0.0
H591 H 0.07578 0.06529 0.87327 0.0
H592 H 0.09433 0.03258 0.86126 0.0
H593 H 0.09175 0.04425 0.85643 0.0
H594 H 0.11555 0.03408 0.85336 0.0
H595 H 0.11295 0.04573 0.84862 0.0
H596 H 0.11201 0.07628 0.82698 0.0
H597 H 0.09385 0.08944 0.82338 0.0
H598 H 0.08797 0.08404 0.83337 0.0
H599 H 0.10606 0.07097 0.83714 0.0
C600 C 0.18545 0.82712 0.11257 0.0
C601 C 0.17899 0.82707 0.10903 0.0
C602 C 0.17444 0.81828 0.11714 0.0
C603 C 0.17355 0.8227 0.11128 0.0
C604 C 0.18099 0.81821 0.12058 0.0
C605 C 0.18645 0.82262 0.11832 0.0
U606 U 0.19071 0.84198 0.1008 0.0
O607 O 0.19623 0.85193 0.10283 0.0
O608 O 0.20043 0.8445 0.09507 0.0
C609 C 0.20139 0.85042 0.0985 0.0
C610 C 0.19096 0.8321 0.11041 0.0
C611 C 0.20853 0.85168 0.10119 0.0
C612 C 0.21837 0.84875 0.1088 0.0
C613 C 0.21156 0.84738 0.10636 0.0
C614 C 0.21916 0.85874 0.10097 0.0
C615 C 0.22227 0.85445 0.10612 0.0
C616 C 0.21237 0.85736 0.09853 0.0
C617 C 0.1757 0.84756 0.08809 0.0
C618 C 0.1759 0.85692 0.0794 0.0
C619 C 0.16517 0.85042 0.08153 0.0
C620 C 0.16862 0.84635 0.08655 0.0
C621 C 0.16873 0.8558 0.07794 0.0
C622 C 0.17936 0.85284 0.08447 0.0
C623 C 0.179 0.84328 0.0936 0.0
O624 O 0.19339 0.83119 0.10401 0.0
O625 O 0.18955 0.83871 0.11182 0.0
O626 O 0.18011 0.84643 0.09964 0.0
O627 O 0.1842 0.83918 0.09166 0.0
H628 H 0.17812 0.8305 0.10457 0.0
H629 H 0.16862 0.8228 0.10845 0.0
H630 H 0.18183 0.81491 0.12513 0.0
H631 H 0.19139 0.82261 0.12113 0.0
H632 H 0.22062 0.8453 0.11272 0.0
H633 H 0.20866 0.84296 0.10847 0.0
H634 H 0.22193 0.86324 0.09887 0.0
H635 H 0.21011 0.86076 0.09457 0.0
H636 H 0.17877 0.86105 0.07674 0.0
H637 H 0.15969 0.84933 0.08045 0.0
H638 H 0.16573 0.84227 0.08927 0.0
H639 H 0.18485 0.85384 0.08562 0.0
C640 C 0.14288 0.42914 0.06975 0.0
C641 C 0.14717 0.43048 0.07559 0.0
C642 C 0.13855 0.43873 0.08023 0.0
C643 C 0.14505 0.43524 0.08076 0.0
C644 C 0.13428 0.4374 0.07433 0.0
C645 C 0.13644 0.43265 0.06913 0.0
U646 U 0.1545 0.41388 0.06489 0.0
O647 O 0.15214 0.40376 0.05978 0.0
O648 O 0.15988 0.41092 0.05511 0.0
C649 C 0.15629 0.40506 0.05442 0.0
C650 C 0.14495 0.42381 0.06453 0.0
C651 C 0.15332 0.40364 0.0474 0.0
C652 C 0.14762 0.40747 0.03661 0.0
C653 C 0.15013 0.40894 0.04338 0.0
C654 C 0.15133 0.39536 0.03788 0.0
C655 C 0.14822 0.40066 0.03377 0.0
C656 C 0.15386 0.39685 0.04461 0.0
C657 C 0.16769 0.40863 0.07956 0.0
C658 C 0.17675 0.39964 0.07902 0.0
C659 C 0.17422 0.4055 0.09003 0.0
C660 C 0.16908 0.40953 0.08672 0.0
C661 C 0.17807 0.40046 0.08626 0.0
C662 C 0.17156 0.40368 0.07569 0.0
C663 C 0.1621 0.41291 0.07637 0.0
O664 O 0.15127 0.42457 0.06186 0.0
O665 O 0.14355 0.4173 0.06635 0.0
O666 O 0.15599 0.4098 0.0756 0.0
O667 O 0.16388 0.41682 0.07097 0.0
H668 H 0.15213 0.42776 0.0762 0.0
H669 H 0.14841 0.43604 0.08528 0.0
H670 H 0.12928 0.44004 0.07373 0.0
H671 H 0.13304 0.43166 0.06468 0.0
H672 H 0.14519 0.41165 0.03362 0.0
H673 H 0.14963 0.41422 0.04545 0.0
H674 H 0.15196 0.39009 0.03583 0.0
H675 H 0.15631 0.39269 0.04763 0.0
H676 H 0.17961 0.39578 0.07599 0.0
H677 H 0.17519 0.40636 0.09557 0.0
H678 H 0.16617 0.41335 0.08977 0.0
H679 H 0.17053 0.40292 0.07015 0.0
C680 C 0.64287 0.07725 0.93568 0.0
C681 C 0.64664 0.07713 0.92935 0.0
C682 C 0.63841 0.06865 0.92443 0.0
C683 C 0.64444 0.07287 0.92379 0.0
C684 C 0.63472 0.06868 0.93085 0.0
C685 C 0.63693 0.07297 0.93642 0.0
U686 U 0.65471 0.09189 0.94134 0.0
O687 O 0.65282 0.10165 0.94722 0.0
O688 O 0.66056 0.09403 0.95111 0.0
C689 C 0.65715 0.09991 0.95231 0.0
C690 C 0.64504 0.08208 0.94133 0.0
C691 C 0.65455 0.10095 0.95954 0.0
C692 C 0.64526 0.10066 0.96831 0.0
C693 C 0.64763 0.09929 0.96147 0.0
C694 C 0.65673 0.10522 0.97138 0.0
C695 C 0.64978 0.10366 0.97335 0.0
C696 C 0.65908 0.10388 0.96455 0.0
C697 C 0.6674 0.09773 0.9264 0.0
C698 C 0.6762 0.107 0.9267 0.0
C699 C 0.67398 0.10065 0.91589 0.0
C700 C 0.66893 0.09659 0.9193 0.0
C701 C 0.67763 0.10595 0.91952 0.0
C702 C 0.67109 0.10292 0.93012 0.0
C703 C 0.66186 0.09346 0.92964 0.0
O704 O 0.65143 0.08106 0.94375 0.0
O705 O 0.64366 0.08873 0.9401 0.0
O706 O 0.65588 0.09667 0.93089 0.0
O707 O 0.66378 0.08918 0.93471 0.0
H708 H 0.65124 0.0804 0.92867 0.0
H709 H 0.64747 0.0729 0.91898 0.0
H710 H 0.63002 0.06554 0.93149 0.0
H711 H 0.63394 0.07302 0.94126 0.0
H712 H 0.6399 0.09932 0.96967 0.0
H713 H 0.64405 0.097 0.95769 0.0
H714 H 0.66033 0.10762 0.97507 0.0
H715 H 0.66443 0.10522 0.96315 0.0
H716 H 0.6789 0.11106 0.92962 0.0
H717 H 0.67505 0.09961 0.9104 0.0
H718 H 0.66616 0.09258 0.91636 0.0
H719 H 0.66996 0.10386 0.93562 0.0
C720 C 0.17872 0.39347 0.18554 0.0
C721 C 0.17878 0.39713 0.17915 0.0
C722 C 0.18761 0.38913 0.17448 0.0
C723 C 0.18318 0.39499 0.17368 0.0
C724 C 0.18768 0.38558 0.18097 0.0
C725 C 0.18324 0.38772 0.18645 0.0
U726 U 0.16373 0.405 0.191 0.0
O727 O 0.15375 0.40268 0.19638 0.0
O728 O 0.16106 0.41041 0.20085 0.0
C729 C 0.15522 0.40682 0.20171 0.0
C730 C 0.17369 0.39547 0.19106 0.0
C731 C 0.15395 0.40385 0.20877 0.0
C732 C 0.15807 0.39906 0.21989 0.0
C733 C 0.15946 0.40155 0.2131 0.0
C734 C 0.14564 0.40099 0.21804 0.0
C735 C 0.15114 0.39878 0.22246 0.0
C736 C 0.14704 0.4035 0.21128 0.0
C737 C 0.15819 0.41806 0.17624 0.0
C738 C 0.14894 0.42686 0.17652 0.0
C739 C 0.15534 0.42469 0.16574 0.0
C740 C 0.15936 0.41961 0.16915 0.0
C741 C 0.15003 0.42833 0.16935 0.0
C742 C 0.15298 0.42173 0.17994 0.0
C743 C 0.16246 0.4125 0.17948 0.0
O744 O 0.17453 0.40182 0.19366 0.0
O745 O 0.1671 0.39405 0.18956 0.0
O746 O 0.15935 0.40642 0.18041 0.0
O747 O 0.16648 0.41436 0.18478 0.0
H748 H 0.17533 0.40158 0.17834 0.0
H749 H 0.18308 0.39791 0.1688 0.0
H750 H 0.19099 0.38103 0.18174 0.0
H751 H 0.18325 0.38482 0.19135 0.0
H752 H 0.16242 0.39733 0.22312 0.0
H753 H 0.16484 0.40173 0.21126 0.0
H754 H 0.14025 0.40093 0.21987 0.0
H755 H 0.14271 0.40527 0.20804 0.0
H756 H 0.14487 0.42957 0.17944 0.0
H757 H 0.1564 0.42578 0.16026 0.0
H758 H 0.16339 0.41685 0.16622 0.0
H759 H 0.15201 0.42058 0.18543 0.0
C760 C 0.86298 0.92819 0.43546 0.0
C761 C 0.85863 0.9295 0.42966 0.0
C762 C 0.86729 0.9376 0.42481 0.0
C763 C 0.86075 0.93417 0.4244 0.0
C764 C 0.87162 0.93629 0.43067 0.0
C765 C 0.86947 0.93163 0.43595 0.0
U766 U 0.85065 0.9138 0.44135 0.0
O767 O 0.85264 0.90369 0.44662 0.0
O768 O 0.84572 0.9115 0.45153 0.0
C769 C 0.84894 0.90542 0.45219 0.0
C770 C 0.86086 0.92306 0.44085 0.0
C771 C 0.85221 0.90397 0.45907 0.0
C772 C 0.85799 0.9078 0.46982 0.0
C773 C 0.85531 0.9093 0.46312 0.0
C774 C 0.85467 0.8956 0.46841 0.0
C775 C 0.85765 0.90094 0.47256 0.0
C776 C 0.85197 0.89711 0.46174 0.0
C777 C 0.83598 0.90909 0.42806 0.0
C778 C 0.8288 0.89853 0.42774 0.0
C779 C 0.82617 0.90825 0.41996 0.0
C780 C 0.83177 0.91204 0.4228 0.0
C781 C 0.82465 0.90141 0.42234 0.0
C782 C 0.83442 0.90235 0.43059 0.0
C783 C 0.84213 0.91307 0.43051 0.0
O784 O 0.85479 0.9243 0.4439 0.0
O785 O 0.86167 0.91645 0.43905 0.0
O786 O 0.84807 0.90958 0.43093 0.0
O787 O 0.8411 0.91733 0.43584 0.0
H788 H 0.85362 0.92685 0.42916 0.0
H789 H 0.85734 0.93496 0.41992 0.0
H790 H 0.87665 0.93888 0.43118 0.0
H791 H 0.87291 0.93066 0.44038 0.0
H792 H 0.86033 0.91201 0.47284 0.0
H793 H 0.85559 0.91463 0.46115 0.0
H794 H 0.85424 0.89029 0.47038 0.0
H795 H 0.84958 0.89293 0.45871 0.0
H796 H 0.82774 0.89331 0.42973 0.0
H797 H 0.82318 0.9106 0.41573 0.0
H798 H 0.83291 0.91723 0.42076 0.0
H799 H 0.83761 0.9 0.43467 0.0
C800 C 0.82779 0.11206 0.18623 0.0
C801 C 0.82691 0.10773 0.18033 0.0
C802 C 0.81884 0.1162 0.17514 0.0
C803 C 0.82247 0.10976 0.17486 0.0
C804 C 0.81961 0.12045 0.18114 0.0
C805 C 0.82407 0.1184 0.18664 0.0
U806 U 0.84292 0.10064 0.19156 0.0
O807 O 0.85294 0.10302 0.19683 0.0
O808 O 0.84573 0.09527 0.2014 0.0
C809 C 0.85157 0.09887 0.20218 0.0
C810 C 0.83293 0.11013 0.19169 0.0
C811 C 0.85286 0.10186 0.20921 0.0
C812 C 0.84893 0.108 0.2197 0.0
C813 C 0.84759 0.10542 0.21294 0.0
C814 C 0.86085 0.10361 0.21901 0.0
C815 C 0.85558 0.10711 0.22283 0.0
C816 C 0.85949 0.10101 0.21228 0.0
C817 C 0.84842 0.08753 0.17688 0.0
C818 C 0.85751 0.07856 0.17734 0.0
C819 C 0.8516 0.08109 0.16636 0.0
C820 C 0.84752 0.08616 0.16971 0.0
C821 C 0.85669 0.07727 0.1701 0.0
C822 C 0.85341 0.08369 0.18071 0.0
C823 C 0.84411 0.09307 0.18008 0.0
O824 O 0.83216 0.10381 0.19438 0.0
O825 O 0.83948 0.11157 0.19007 0.0
O826 O 0.84718 0.09919 0.18093 0.0
O827 O 0.84014 0.09124 0.18543 0.0
H828 H 0.82977 0.10282 0.17991 0.0
H829 H 0.82192 0.1063 0.17038 0.0
H830 H 0.81694 0.12546 0.1815 0.0
H831 H 0.82472 0.12183 0.19113 0.0
H832 H 0.84478 0.11074 0.22246 0.0
H833 H 0.84244 0.10616 0.21064 0.0
H834 H 0.86599 0.10274 0.22128 0.0
H835 H 0.86362 0.09826 0.20948 0.0
H836 H 0.8614 0.07572 0.18036 0.0
H837 H 0.85074 0.08014 0.16081 0.0
H838 H 0.84366 0.08906 0.16668 0.0
H839 H 0.85417 0.08469 0.18626 0.0
C840 C 0.36275 0.57891 0.57057 0.0
C841 C 0.36309 0.58125 0.57756 0.0
C842 C 0.36611 0.56946 0.58156 0.0
C843 C 0.36481 0.5766 0.58297 0.0
C844 C 0.36588 0.56715 0.57454 0.0
C845 C 0.36421 0.57183 0.5691 0.0
U846 U 0.35098 0.59369 0.5649 0.0
O847 O 0.35287 0.60336 0.5589 0.0
O848 O 0.34504 0.59576 0.55517 0.0
C849 C 0.34849 0.6016 0.55386 0.0
C850 C 0.36047 0.58372 0.56492 0.0
C851 C 0.35106 0.60252 0.54661 0.0
C852 C 0.36035 0.6021 0.53784 0.0
C853 C 0.35797 0.6008 0.54469 0.0
C854 C 0.34891 0.60672 0.53474 0.0
C855 C 0.35585 0.60512 0.53279 0.0
C856 C 0.34655 0.60544 0.54158 0.0
C857 C 0.33856 0.59989 0.57992 0.0
C858 C 0.32944 0.60883 0.57941 0.0
C859 C 0.33223 0.60318 0.59047 0.0
C860 C 0.33733 0.59913 0.58712 0.0
C861 C 0.32826 0.60812 0.58668 0.0
C862 C 0.33458 0.60475 0.57605 0.0
C863 C 0.34403 0.59551 0.57668 0.0
O864 O 0.35402 0.58274 0.56266 0.0
O865 O 0.362 0.59039 0.56588 0.0
O866 O 0.35003 0.59863 0.57531 0.0
O867 O 0.34198 0.59119 0.57171 0.0
H868 H 0.36194 0.58666 0.57887 0.0
H869 H 0.36507 0.57862 0.58828 0.0
H870 H 0.36678 0.56168 0.57325 0.0
H871 H 0.36392 0.5699 0.56375 0.0
H872 H 0.3657 0.60072 0.53649 0.0
H873 H 0.36153 0.59851 0.54849 0.0
H874 H 0.34533 0.60912 0.53103 0.0
H875 H 0.34121 0.60683 0.54297 0.0
H876 H 0.32648 0.61261 0.57636 0.0
H877 H 0.33137 0.6024 0.59604 0.0
H878 H 0.34032 0.59537 0.59018 0.0
H879 H 0.33547 0.6054 0.57046 0.0
C880 C 0.17831 0.61311 0.32044 0.0
C881 C 0.1802 0.60842 0.3258 0.0
C882 C 0.18761 0.61735 0.3312 0.0
C883 C 0.18482 0.6105 0.33111 0.0
C884 C 0.1857 0.62204 0.32581 0.0
C885 C 0.1811 0.61992 0.32046 0.0
U886 U 0.16394 0.60083 0.31446 0.0
O887 O 0.15402 0.60267 0.30883 0.0
O888 O 0.16194 0.5956 0.30434 0.0
C889 C 0.15594 0.59889 0.30337 0.0
C890 C 0.17326 0.61097 0.31497 0.0
C891 C 0.15474 0.60195 0.29629 0.0
C892 C 0.14921 0.6106 0.28861 0.0
C893 C 0.15085 0.60817 0.29536 0.0
C894 C 0.15538 0.60071 0.28356 0.0
C895 C 0.15139 0.60686 0.28262 0.0
C896 C 0.15701 0.59828 0.2903 0.0
C897 C 0.15896 0.58651 0.32811 0.0
C898 C 0.1485 0.57918 0.32842 0.0
C899 C 0.15798 0.5771 0.33665 0.0
C900 C 0.16177 0.58262 0.33367 0.0
C901 C 0.15126 0.57534 0.33412 0.0
C902 C 0.15232 0.58473 0.32543 0.0
C903 C 0.16294 0.5926 0.3255 0.0
O904 O 0.1745 0.60484 0.31203 0.0
O905 O 0.16662 0.61188 0.31661 0.0
O906 O 0.15942 0.5985 0.32482 0.0
O907 O 0.16731 0.59141 0.3203 0.0
H908 H 0.17804 0.60315 0.32593 0.0
H909 H 0.18609 0.6068 0.33525 0.0
H910 H 0.18778 0.62733 0.3257 0.0
H911 H 0.17968 0.62362 0.31638 0.0
H912 H 0.14605 0.6153 0.2881 0.0
H913 H 0.14893 0.61109 0.29985 0.0
H914 H 0.15724 0.59775 0.27907 0.0
H915 H 0.15994 0.59343 0.29082 0.0
H916 H 0.14337 0.57793 0.3263 0.0
H917 H 0.16023 0.57436 0.3411 0.0
H918 H 0.16687 0.58395 0.33583 0.0
H919 H 0.15007 0.58767 0.32112 0.0
C920 C 0.32945 0.39164 0.82079 0.0
C921 C 0.33189 0.39135 0.82775 0.0
C922 C 0.32019 0.38826 0.83194 0.0
C923 C 0.32733 0.38964 0.83324 0.0
C924 C 0.31779 0.38839 0.82494 0.0
C925 C 0.32238 0.39006 0.81943 0.0
U926 U 0.34257 0.40486 0.81414 0.0
O927 O 0.35257 0.40384 0.80844 0.0
O928 O 0.34398 0.41006 0.80391 0.0
C929 C 0.35032 0.40747 0.80302 0.0
C930 C 0.33411 0.39403 0.81504 0.0
C931 C 0.35184 0.40446 0.79606 0.0
C932 C 0.35019 0.39557 0.78702 0.0
C933 C 0.34857 0.3983 0.79368 0.0
C934 C 0.35835 0.40515 0.7851 0.0
C935 C 0.35512 0.39896 0.78266 0.0
C936 C 0.35673 0.40785 0.79172 0.0
C937 C 0.34629 0.41972 0.82777 0.0
C938 C 0.35656 0.42686 0.83045 0.0
C939 C 0.34519 0.43007 0.83515 0.0
C940 C 0.34215 0.42434 0.83172 0.0
C941 C 0.35245 0.4313 0.8347 0.0
C942 C 0.35351 0.42109 0.82702 0.0
C943 C 0.34298 0.41326 0.82508 0.0
O944 O 0.33227 0.39998 0.81204 0.0
O945 O 0.3409 0.39363 0.81626 0.0
O946 O 0.347 0.40768 0.82442 0.0
O947 O 0.33846 0.41401 0.81992 0.0
H948 H 0.3373 0.39258 0.829 0.0
H949 H 0.32942 0.38945 0.83853 0.0
H950 H 0.31232 0.38742 0.82374 0.0
H951 H 0.32037 0.39028 0.81411 0.0
H952 H 0.34765 0.39077 0.78534 0.0
H953 H 0.3448 0.3956 0.79697 0.0
H954 H 0.36207 0.40797 0.78185 0.0
H955 H 0.35929 0.41263 0.79347 0.0
H956 H 0.36218 0.42766 0.83003 0.0
H957 H 0.34186 0.43346 0.83828 0.0
H958 H 0.33657 0.42339 0.83236 0.0
H959 H 0.35681 0.4176 0.82399 0.0
C960 C 0.93572 0.86053 0.57676 0.0
C961 C 0.93015 0.85581 0.57575 0.0
C962 C 0.92447 0.86398 0.5677 0.0
C963 C 0.92461 0.8575 0.57126 0.0
C964 C 0.93014 0.86865 0.56861 0.0
C965 C 0.93571 0.86694 0.57313 0.0
U966 U 0.94194 0.84876 0.59122 0.0
O967 O 0.95218 0.84405 0.59376 0.0
O968 O 0.94694 0.85087 0.60145 0.0
C969 C 0.95259 0.84722 0.59988 0.0
C970 C 0.94129 0.85884 0.58185 0.0
C971 C 0.95939 0.85047 0.60167 0.0
C972 C 0.97004 0.85683 0.59856 0.0
C973 C 0.96343 0.85414 0.59671 0.0
C974 C 0.96856 0.8523 0.61035 0.0
C975 C 0.97273 0.85587 0.60539 0.0
C976 C 0.96198 0.84963 0.6085 0.0
C977 C 0.9286 0.83399 0.59574 0.0
C978 C 0.92763 0.82708 0.60644 0.0
C979 C 0.92045 0.82421 0.59634 0.0
C980 C 0.92353 0.8297 0.59259 0.0
C981 C 0.92238 0.82288 0.60335 0.0
C982 C 0.93072 0.8326 0.60266 0.0
C983 C 0.9312 0.84011 0.5918 0.0
O984 O 0.9395 0.85972 0.58846 0.0
O985 O 0.94457 0.85286 0.58074 0.0
O986 O 0.93665 0.83907 0.58771 0.0
O987 O 0.93147 0.84608 0.59525 0.0
H988 H 0.93005 0.85083 0.57851 0.0
H989 H 0.9204 0.85373 0.57059 0.0
H990 H 0.93018 0.8737 0.566 0.0
H991 H 0.93995 0.87066 0.57387 0.0
H992 H 0.97312 0.85951 0.5946 0.0
H993 H 0.96152 0.85485 0.5914 0.0
H994 H 0.97038 0.85159 0.6157 0.0
H995 H 0.95894 0.84684 0.61242 0.0
H996 H 0.92929 0.82616 0.6118 0.0
H997 H 0.91635 0.82118 0.59382 0.0
H998 H 0.9218 0.83072 0.58726 0.0
H999 H 0.93465 0.83585 0.60518 0.0
C1000 C 0.89425 0.18583 0.32747 0.0
C1001 C 0.89846 0.1798 0.32697 0.0
C1002 C 0.8903 0.17462 0.31858 0.0
C1003 C 0.89651 0.17426 0.32257 0.0
C1004 C 0.88618 0.18076 0.31896 0.0
C1005 C 0.88814 0.18631 0.32339 0.0
U1006 U 0.90637 0.19214 0.34167 0.0
O1007 O 0.91099 0.20245 0.34411 0.0
O1008 O 0.90437 0.19712 0.35192 0.0
C1009 C 0.90783 0.20286 0.35025 0.0
C1010 C 0.89613 0.19142 0.33248 0.0
C1011 C 0.90438 0.20959 0.35204 0.0
C1012 C 0.89966 0.22106 0.34887 0.0
C1013 C 0.9025 0.21455 0.3469 0.0
C1014 C 0.90042 0.21767 0.3611 0.0
C1015 C 0.89862 0.22271 0.356 0.0
C1016 C 0.90327 0.21121 0.35914 0.0
C1017 C 0.92123 0.17885 0.34605 0.0
C1018 C 0.92845 0.1782 0.35657 0.0
C1019 C 0.9308 0.17047 0.34675 0.0
C1020 C 0.92528 0.17352 0.34302 0.0
C1021 C 0.93241 0.1727 0.35361 0.0
C1022 C 0.92289 0.18126 0.35282 0.0
C1023 C 0.91506 0.18143 0.34218 0.0
O1024 O 0.89538 0.18967 0.33911 0.0
O1025 O 0.9021 0.19463 0.3312 0.0
O1026 O 0.91604 0.18689 0.33807 0.0
O1027 O 0.90914 0.1817 0.34571 0.0
H1028 H 0.90321 0.17934 0.33007 0.0
H1029 H 0.89986 0.16967 0.32232 0.0
H1030 H 0.88135 0.18118 0.31599 0.0
H1031 H 0.88482 0.19092 0.32373 0.0
H1032 H 0.89826 0.22479 0.34481 0.0
H1033 H 0.90328 0.21344 0.34137 0.0
H1034 H 0.89979 0.2188 0.36664 0.0
H1035 H 0.90474 0.20749 0.36319 0.0
H1036 H 0.92959 0.18009 0.36181 0.0
H1037 H 0.93364 0.16617 0.34433 0.0
H1038 H 0.92404 0.17157 0.33782 0.0
H1039 H 0.91982 0.18539 0.35525 0.0
C1040 C 0.57002 0.14468 0.07671 0.0
C1041 C 0.57593 0.14901 0.07598 0.0
C1042 C 0.58137 0.14051 0.0681 0.0
C1043 C 0.58154 0.14695 0.07172 0.0
C1044 C 0.57537 0.13623 0.06876 0.0
C1045 C 0.56974 0.13829 0.07305 0.0
U1046 U 0.5633 0.15743 0.09014 0.0
O1047 O 0.55297 0.16243 0.09172 0.0
O1048 O 0.55765 0.15604 0.10012 0.0
C1049 C 0.55213 0.1596 0.09796 0.0
C1050 C 0.56427 0.14679 0.08144 0.0
C1051 C 0.54521 0.15643 0.09939 0.0
C1052 C 0.53751 0.1463 0.10063 0.0
C1053 C 0.54403 0.14917 0.09878 0.0
C1054 C 0.53322 0.15791 0.10354 0.0
C1055 C 0.53204 0.15063 0.10309 0.0
C1056 C 0.53974 0.16077 0.10172 0.0
C1057 C 0.57663 0.17235 0.09435 0.0
C1058 C 0.57741 0.17999 0.10457 0.0
C1059 C 0.58475 0.18218 0.09441 0.0
C1060 C 0.58175 0.17643 0.091 0.0
C1061 C 0.58268 0.184 0.10127 0.0
C1062 C 0.5744 0.1742 0.10113 0.0
C1063 C 0.57412 0.16597 0.09077 0.0
O1064 O 0.56574 0.1463 0.08816 0.0
O1065 O 0.56118 0.15274 0.07979 0.0
O1066 O 0.56893 0.16679 0.0863 0.0
O1067 O 0.57354 0.16028 0.09463 0.0
H1068 H 0.57623 0.15396 0.07876 0.0
H1069 H 0.58601 0.15044 0.07125 0.0
H1070 H 0.57509 0.1312 0.06611 0.0
H1071 H 0.56522 0.13488 0.07356 0.0
H1072 H 0.53675 0.14068 0.10014 0.0
H1073 H 0.54818 0.14573 0.09697 0.0
H1074 H 0.52918 0.1614 0.1055 0.0
H1075 H 0.54055 0.16638 0.10225 0.0
H1076 H 0.57565 0.18128 0.10982 0.0
H1077 H 0.58887 0.18504 0.09174 0.0
H1078 H 0.58357 0.17505 0.08579 0.0
H1079 H 0.57044 0.17111 0.1038 0.0
C1080 C 0.61034 0.8186 0.82492 0.0
C1081 C 0.60572 0.82421 0.82368 0.0
C1082 C 0.6139 0.82929 0.81525 0.0
C1083 C 0.60747 0.82948 0.81889 0.0
C1084 C 0.61851 0.82364 0.81649 0.0
C1085 C 0.61674 0.81833 0.82129 0.0
U1086 U 0.59921 0.81364 0.84035 0.0
O1087 O 0.59386 0.80388 0.84347 0.0
O1088 O 0.60166 0.80867 0.8505 0.0
C1089 C 0.59743 0.80333 0.84936 0.0
C1090 C 0.60859 0.81329 0.83027 0.0
C1091 C 0.60026 0.79632 0.85101 0.0
C1092 C 0.60822 0.78657 0.84882 0.0
C1093 C 0.60565 0.79324 0.84703 0.0
C1094 C 0.60004 0.78602 0.85854 0.0
C1095 C 0.60544 0.78286 0.8546 0.0
C1096 C 0.59749 0.79266 0.85676 0.0
C1097 C 0.58608 0.82838 0.84555 0.0
C1098 C 0.57708 0.82798 0.85461 0.0
C1099 C 0.57974 0.83895 0.84874 0.0
C1100 C 0.58479 0.83556 0.84467 0.0
C1101 C 0.57587 0.83523 0.8538 0.0
C1102 C 0.58219 0.82457 0.85052 0.0
C1103 C 0.5916 0.82512 0.84126 0.0
O1104 O 0.6101 0.81513 0.83675 0.0
O1105 O 0.60231 0.81046 0.82968 0.0
O1106 O 0.58977 0.81966 0.83745 0.0
O1107 O 0.59775 0.8244 0.84429 0.0
H1108 H 0.6008 0.82457 0.82651 0.0
H1109 H 0.60385 0.83381 0.81818 0.0
H1110 H 0.62348 0.82332 0.81375 0.0
H1111 H 0.62039 0.81407 0.82221 0.0
H1112 H 0.61234 0.78428 0.84563 0.0
H1113 H 0.60785 0.796 0.84257 0.0
H1114 H 0.59786 0.78341 0.8631 0.0
H1115 H 0.59335 0.79497 0.85991 0.0
H1116 H 0.57419 0.82498 0.85849 0.0
H1117 H 0.57886 0.84451 0.8479 0.0
H1118 H 0.58773 0.83857 0.84083 0.0
H1119 H 0.58313 0.81901 0.85128 0.0
C1120 C 0.93571 0.14467 0.92973 0.0
C1121 C 0.92999 0.14925 0.93048 0.0
C1122 C 0.92435 0.1411 0.93858 0.0
C1123 C 0.92438 0.14749 0.93487 0.0
C1124 C 0.93016 0.13657 0.93791 0.0
C1125 C 0.93579 0.13834 0.9335 0.0
U1126 U 0.94263 0.15688 0.9159 0.0
O1127 O 0.95309 0.16145 0.914 0.0
O1128 O 0.94802 0.15506 0.90584 0.0
C1129 C 0.95376 0.15836 0.90785 0.0
C1130 C 0.94144 0.14647 0.92486 0.0
C1131 C 0.96058 0.15485 0.90638 0.0
C1132 C 0.96757 0.14657 0.89954 0.0
C1133 C 0.96104 0.14934 0.90148 0.0
C1134 C 0.97335 0.15467 0.90744 0.0
C1135 C 0.97382 0.14926 0.90243 0.0
C1136 C 0.96682 0.15745 0.90937 0.0
C1137 C 0.92965 0.17216 0.91166 0.0
C1138 C 0.92819 0.17932 0.90118 0.0
C1139 C 0.92203 0.18238 0.91187 0.0
C1140 C 0.9251 0.17666 0.91528 0.0
C1141 C 0.92345 0.18375 0.90475 0.0
C1142 C 0.93127 0.17357 0.90461 0.0
C1143 C 0.93211 0.16578 0.91529 0.0
O1144 O 0.93983 0.14589 0.91817 0.0
O1145 O 0.94478 0.15234 0.92631 0.0
O1146 O 0.93742 0.16653 0.91963 0.0
O1147 O 0.93241 0.15999 0.91154 0.0
H1148 H 0.92984 0.15417 0.92762 0.0
H1149 H 0.92006 0.15116 0.93535 0.0
H1150 H 0.93028 0.13159 0.94065 0.0
H1151 H 0.94016 0.13474 0.93296 0.0
H1152 H 0.96772 0.14248 0.89559 0.0
H1153 H 0.95636 0.14728 0.89897 0.0
H1154 H 0.97804 0.15682 0.90983 0.0
H1155 H 0.96667 0.16174 0.91309 0.0
H1156 H 0.92946 0.18026 0.89571 0.0
H1157 H 0.91832 0.18557 0.91478 0.0
H1158 H 0.92374 0.17563 0.92071 0.0
H1159 H 0.93478 0.17015 0.90172 0.0
C1160 C 0.61173 0.18599 0.67824 0.0
C1161 C 0.60759 0.17992 0.67872 0.0
C1162 C 0.61584 0.17475 0.68702 0.0
C1163 C 0.60962 0.17436 0.68306 0.0
C1164 C 0.61991 0.18093 0.68665 0.0
C1165 C 0.61788 0.18649 0.68227 0.0
U1166 U 0.59908 0.19244 0.66462 0.0
O1167 O 0.59428 0.20275 0.66254 0.0
O1168 O 0.60058 0.1976 0.65436 0.0
C1169 C 0.59706 0.20323 0.65624 0.0
C1170 C 0.6097 0.19164 0.67336 0.0
C1171 C 0.60024 0.21004 0.65436 0.0
C1172 C 0.60755 0.2202 0.65699 0.0
C1173 C 0.60484 0.21361 0.6589 0.0
C1174 C 0.60118 0.21963 0.646 0.0
C1175 C 0.6057 0.22332 0.65054 0.0
C1176 C 0.59848 0.21308 0.6479 0.0
C1177 C 0.58396 0.17913 0.66089 0.0
C1178 C 0.57747 0.17581 0.65038 0.0
C1179 C 0.57317 0.1724 0.66185 0.0
C1180 C 0.57884 0.17582 0.665 0.0
C1181 C 0.57251 0.17218 0.6545 0.0
C1182 C 0.58316 0.17925 0.65355 0.0
C1183 C 0.59036 0.18175 0.66439 0.0
O1184 O 0.61018 0.18997 0.66668 0.0
O1185 O 0.60379 0.19487 0.6749 0.0
O1186 O 0.58961 0.18713 0.66865 0.0
O1187 O 0.59612 0.18204 0.6606 0.0
H1188 H 0.60281 0.17944 0.67566 0.0
H1189 H 0.6063 0.16975 0.68331 0.0
H1190 H 0.62476 0.18137 0.68959 0.0
H1191 H 0.62115 0.19114 0.68195 0.0
H1192 H 0.61098 0.2229 0.66063 0.0
H1193 H 0.60626 0.21134 0.66392 0.0
H1194 H 0.59975 0.22178 0.64093 0.0
H1195 H 0.59497 0.21039 0.64432 0.0
H1196 H 0.57713 0.17572 0.6447 0.0
H1197 H 0.56938 0.16977 0.66518 0.0
H1198 H 0.57935 0.17567 0.67067 0.0
H1199 H 0.58705 0.18177 0.65025 0.0
C1200 C 0.56983 0.86032 0.42909 0.0
C1201 C 0.57492 0.85526 0.43075 0.0
C1202 C 0.58089 0.86355 0.43846 0.0
C1203 C 0.58036 0.85684 0.4354 0.0
C1204 C 0.57569 0.86858 0.4369 0.0
C1205 C 0.57021 0.86698 0.43223 0.0
U1206 U 0.56379 0.84869 0.41439 0.0
O1207 O 0.55352 0.84429 0.41149 0.0
O1208 O 0.55921 0.85099 0.40401 0.0
C1209 C 0.55338 0.84755 0.4054 0.0
C1210 C 0.56441 0.85875 0.42379 0.0
C1211 C 0.54676 0.8511 0.40346 0.0
C1212 C 0.5356 0.8566 0.40646 0.0
C1213 C 0.54204 0.85368 0.40852 0.0
C1214 C 0.53859 0.85456 0.39427 0.0
C1215 C 0.53378 0.85704 0.3993 0.0
C1216 C 0.54499 0.85162 0.39633 0.0
C1217 C 0.57689 0.83361 0.41027 0.0
C1218 C 0.57733 0.82626 0.39983 0.0
C1219 C 0.5854 0.82415 0.40944 0.0
C1220 C 0.58238 0.82968 0.41319 0.0
C1221 C 0.58298 0.82241 0.40268 0.0
C1222 C 0.5743 0.83182 0.40361 0.0
C1223 C 0.57432 0.83976 0.41416 0.0
O1224 O 0.56647 0.85957 0.41726 0.0
O1225 O 0.56093 0.85286 0.42479 0.0
O1226 O 0.56868 0.83884 0.41803 0.0
O1227 O 0.57432 0.84574 0.41071 0.0
H1228 H 0.57473 0.8501 0.42836 0.0
H1229 H 0.58419 0.8528 0.43657 0.0
H1230 H 0.57597 0.87381 0.43911 0.0
H1231 H 0.56636 0.87097 0.43097 0.0
H1232 H 0.53205 0.85853 0.41046 0.0
H1233 H 0.54329 0.85337 0.41406 0.0
H1234 H 0.53733 0.85471 0.38872 0.0
H1235 H 0.54852 0.84962 0.39234 0.0
H1236 H 0.57529 0.82501 0.39467 0.0
H1237 H 0.58982 0.82142 0.41176 0.0
H1238 H 0.58448 0.83102 0.41831 0.0
H1239 H 0.57005 0.8348 0.40128 0.0
C1240 C 0.89569 0.81842 0.181 0.0
C1241 C 0.90059 0.82356 0.18298 0.0
C1242 C 0.89208 0.82886 0.19092 0.0
C1243 C 0.89882 0.8287 0.18791 0.0
C1244 C 0.88717 0.82369 0.18894 0.0
C1245 C 0.88897 0.81851 0.18402 0.0
U1246 U 0.90679 0.81391 0.16536 0.0
O1247 O 0.91216 0.80425 0.16201 0.0
O1248 O 0.90429 0.80912 0.15514 0.0
C1249 C 0.90852 0.80376 0.15616 0.0
C1250 C 0.89746 0.81329 0.17548 0.0
C1251 C 0.90565 0.79678 0.15449 0.0
C1252 C 0.89859 0.78651 0.15737 0.0
C1253 C 0.90115 0.7932 0.15912 0.0
C1254 C 0.90498 0.78695 0.14638 0.0
C1255 C 0.90051 0.78328 0.15098 0.0
C1256 C 0.90752 0.79361 0.14812 0.0
C1257 C 0.91981 0.82889 0.16046 0.0
C1258 C 0.9283 0.82905 0.15091 0.0
C1259 C 0.92639 0.8395 0.15792 0.0
C1260 C 0.92144 0.8359 0.16194 0.0
C1261 C 0.92982 0.83616 0.1523 0.0
C1262 C 0.92329 0.82544 0.15494 0.0
C1263 C 0.91433 0.82546 0.16467 0.0
O1264 O 0.89591 0.8153 0.16906 0.0
O1265 O 0.90375 0.81046 0.17597 0.0
O1266 O 0.91622 0.81992 0.16834 0.0
O1267 O 0.90818 0.82475 0.16163 0.0
H1268 H 0.90577 0.82367 0.18062 0.0
H1269 H 0.90268 0.83267 0.18921 0.0
H1270 H 0.88195 0.82366 0.19118 0.0
H1271 H 0.8851 0.81462 0.18252 0.0
H1272 H 0.8952 0.78382 0.16107 0.0
H1273 H 0.89965 0.79557 0.16407 0.0
H1274 H 0.90645 0.78472 0.14136 0.0
H1275 H 0.91095 0.79631 0.14448 0.0
H1276 H 0.93084 0.82635 0.1466 0.0
H1277 H 0.92753 0.84492 0.15922 0.0
H1278 H 0.91882 0.83863 0.1662 0.0
H1279 H 0.92207 0.82002 0.15372 0.0
C1280 C 0.57703 0.93515 0.86184 0.0
C1281 C 0.57684 0.92889 0.85797 0.0
C1282 C 0.56812 0.92403 0.86597 0.0
C1283 C 0.57243 0.92339 0.86 0.0
C1284 C 0.5682 0.93039 0.86975 0.0
C1285 C 0.57264 0.9359 0.86771 0.0
U1286 U 0.59118 0.94155 0.84964 0.0
O1287 O 0.59344 0.95188 0.84496 0.0
O1288 O 0.60132 0.94675 0.85164 0.0
C1289 C 0.59953 0.95245 0.84818 0.0
C1290 C 0.58198 0.94076 0.85988 0.0
C1291 C 0.60116 0.95924 0.85163 0.0
C1292 C 0.59816 0.97131 0.85471 0.0
C1293 C 0.59625 0.96476 0.85195 0.0
C1294 C 0.60987 0.96692 0.85701 0.0
C1295 C 0.60502 0.97249 0.85723 0.0
C1296 C 0.60796 0.9604 0.85423 0.0
C1297 C 0.59579 0.92828 0.83481 0.0
C1298 C 0.60647 0.92721 0.82788 0.0
C1299 C 0.59623 0.92027 0.82489 0.0
C1300 C 0.59254 0.92334 0.83043 0.0
C1301 C 0.60328 0.92209 0.82359 0.0
C1302 C 0.60275 0.93029 0.83345 0.0
C1303 C 0.5919 0.93082 0.84098 0.0
O1304 O 0.58864 0.9391 0.86064 0.0
O1305 O 0.58067 0.94389 0.85386 0.0
O1306 O 0.58767 0.93619 0.83999 0.0
O1307 O 0.59542 0.93117 0.84691 0.0
H1308 H 0.58018 0.92823 0.8534 0.0
H1309 H 0.57243 0.91861 0.85691 0.0
H1310 H 0.56498 0.93103 0.87439 0.0
H1311 H 0.57272 0.94069 0.87077 0.0
H1312 H 0.59428 0.97546 0.85487 0.0
H1313 H 0.59096 0.96406 0.84998 0.0
H1314 H 0.61521 0.96766 0.8588 0.0
H1315 H 0.61188 0.95628 0.85396 0.0
H1316 H 0.61186 0.92878 0.82699 0.0
H1317 H 0.59363 0.91628 0.82179 0.0
H1318 H 0.58718 0.92169 0.83142 0.0
H1319 H 0.60534 0.93411 0.83677 0.0
C1320 C 0.81932 0.82683 0.61086 0.0
C1321 C 0.82487 0.82561 0.60617 0.0
C1322 C 0.82996 0.81704 0.61421 0.0
C1323 C 0.83013 0.82076 0.60782 0.0
C1324 C 0.82437 0.81828 0.61889 0.0
C1325 C 0.81908 0.82313 0.61722 0.0
U1326 U 0.81333 0.84163 0.59921 0.0
O1327 O 0.80306 0.84439 0.5947 0.0
O1328 O 0.80851 0.85189 0.60157 0.0
C1329 C 0.80274 0.85041 0.59808 0.0
C1330 C 0.81393 0.83213 0.60919 0.0
C1331 C 0.79602 0.85217 0.60158 0.0
C1332 C 0.78425 0.84909 0.60557 0.0
C1333 C 0.79077 0.84711 0.60279 0.0
C1334 C 0.78817 0.86117 0.60614 0.0
C1335 C 0.78285 0.85617 0.60722 0.0
C1336 C 0.79467 0.85919 0.60334 0.0
C1337 C 0.82643 0.84609 0.58422 0.0
C1338 C 0.82723 0.85679 0.57727 0.0
C1339 C 0.83448 0.84675 0.57436 0.0
C1340 C 0.83149 0.84298 0.57989 0.0
C1341 C 0.83246 0.85373 0.57302 0.0
C1342 C 0.82423 0.85299 0.58283 0.0
C1343 C 0.8239 0.84213 0.59036 0.0
O1344 O 0.81595 0.83867 0.61008 0.0
O1345 O 0.81058 0.83114 0.60323 0.0
O1346 O 0.81837 0.83813 0.58938 0.0
O1347 O 0.8238 0.84554 0.59636 0.0
H1348 H 0.82517 0.82847 0.60126 0.0
H1349 H 0.83441 0.82004 0.60415 0.0
H1350 H 0.82405 0.81547 0.62383 0.0
H1351 H 0.81485 0.82402 0.62091 0.0
H1352 H 0.78029 0.84509 0.60641 0.0
H1353 H 0.79166 0.84164 0.6015 0.0
H1354 H 0.78726 0.86667 0.60726 0.0
H1355 H 0.7986 0.8632 0.6024 0.0
H1356 H 0.8255 0.86212 0.57634 0.0
H1357 H 0.83857 0.84425 0.5713 0.0
H1358 H 0.83328 0.83767 0.58092 0.0
H1359 H 0.8203 0.85548 0.58611 0.0
C1360 C 0.92888 0.0697 0.36175 0.0
C1361 C 0.93048 0.0752 0.35711 0.0
C1362 C 0.93832 0.08041 0.36579 0.0
C1363 C 0.93517 0.08049 0.3591 0.0
C1364 C 0.93674 0.07485 0.3704 0.0
C1365 C 0.93206 0.06953 0.36839 0.0
U1366 U 0.91437 0.06386 0.3496 0.0
O1367 O 0.91175 0.05363 0.3449 0.0
O1368 O 0.90409 0.05896 0.35169 0.0
C1369 C 0.90567 0.05323 0.34817 0.0
C1370 C 0.92365 0.06434 0.35979 0.0
C1371 C 0.90389 0.04647 0.35159 0.0
C1372 C 0.90682 0.0345 0.3551 0.0
C1373 C 0.90884 0.04104 0.35239 0.0
C1374 C 0.89491 0.03875 0.35643 0.0
C1375 C 0.89981 0.03326 0.35711 0.0
C1376 C 0.89693 0.04526 0.35369 0.0
C1377 C 0.91003 0.07717 0.33479 0.0
C1378 C 0.89961 0.0775 0.32741 0.0
C1379 C 0.90914 0.08567 0.32533 0.0
C1380 C 0.9129 0.08269 0.33087 0.0
C1381 C 0.90241 0.08317 0.32357 0.0
C1382 C 0.9034 0.07451 0.33299 0.0
C1383 C 0.91394 0.07459 0.34093 0.0
O1384 O 0.91708 0.06629 0.36058 0.0
O1385 O 0.9248 0.06113 0.35378 0.0
O1386 O 0.91799 0.06909 0.33993 0.0
O1387 O 0.91045 0.07436 0.34688 0.0
H1388 H 0.92802 0.07545 0.35199 0.0
H1389 H 0.93618 0.08475 0.35546 0.0
H1390 H 0.93911 0.0746 0.37556 0.0
H1391 H 0.93086 0.06534 0.37204 0.0
H1392 H 0.91074 0.03041 0.35562 0.0
H1393 H 0.91426 0.0418 0.35082 0.0
H1394 H 0.88946 0.03796 0.35783 0.0
H1395 H 0.893 0.04933 0.35307 0.0
H1396 H 0.89447 0.07541 0.32616 0.0
H1397 H 0.91143 0.0901 0.32259 0.0
H1398 H 0.918 0.08482 0.33222 0.0
H1399 H 0.9011 0.07024 0.33595 0.0
C1400 C 0.68543 0.17919 0.11173 0.0
C1401 C 0.67956 0.1799 0.10734 0.0
C1402 C 0.67405 0.18783 0.11574 0.0
C1403 C 0.67394 0.18418 0.10931 0.0
C1404 C 0.68001 0.18719 0.12008 0.0
C1405 C 0.68565 0.18289 0.11809 0.0
U1406 U 0.69232 0.1657 0.09911 0.0
O1407 O 0.70276 0.16403 0.09438 0.0
O1408 O 0.69785 0.15567 0.10063 0.0
C1409 C 0.70352 0.15782 0.09731 0.0
C1410 C 0.69118 0.17443 0.10971 0.0
C1411 C 0.7104 0.15636 0.10068 0.0
C1412 C 0.71743 0.15065 0.10974 0.0
C1413 C 0.71088 0.15264 0.10705 0.0
C1414 C 0.72317 0.15621 0.09986 0.0
C1415 C 0.72367 0.15232 0.10613 0.0
C1416 C 0.71662 0.15817 0.09717 0.0
C1417 C 0.67911 0.16162 0.08393 0.0
C1418 C 0.67613 0.15108 0.07731 0.0
C1419 C 0.67193 0.16244 0.07341 0.0
C1420 C 0.6754 0.16565 0.07901 0.0
C1421 C 0.67209 0.1551 0.0726 0.0
C1422 C 0.6796 0.15431 0.08295 0.0
C1423 C 0.68169 0.16513 0.09033 0.0
O1424 O 0.68966 0.16771 0.11018 0.0
O1425 O 0.69439 0.17606 0.10382 0.0
O1426 O 0.68694 0.16955 0.08959 0.0
O1427 O 0.6821 0.16131 0.09607 0.0
H1428 H 0.6793 0.17709 0.1024 0.0
H1429 H 0.66949 0.18464 0.10579 0.0
H1430 H 0.68024 0.18988 0.12509 0.0
H1431 H 0.69013 0.18238 0.12156 0.0
H1432 H 0.71758 0.14758 0.11453 0.0
H1433 H 0.70619 0.15109 0.10988 0.0
H1434 H 0.72785 0.15769 0.09699 0.0
H1435 H 0.71642 0.16099 0.09222 0.0
H1436 H 0.67632 0.14542 0.07684 0.0
H1437 H 0.66897 0.16569 0.06981 0.0
H1438 H 0.67496 0.17129 0.07966 0.0
H1439 H 0.68243 0.15108 0.08668 0.0
C1440 C 0.57648 0.07033 0.64474 0.0
C1441 C 0.57567 0.07613 0.64921 0.0
C1442 C 0.5676 0.08158 0.64089 0.0
C1443 C 0.57126 0.08169 0.64731 0.0
C1444 C 0.56832 0.07567 0.6365 0.0
C1445 C 0.57274 0.0701 0.6384 0.0
U1446 U 0.59073 0.06387 0.65677 0.0
O1447 O 0.59307 0.05353 0.66137 0.0
O1448 O 0.60088 0.05874 0.65467 0.0
C1449 C 0.59914 0.053 0.65811 0.0
C1450 C 0.58148 0.06472 0.64659 0.0
C1451 C 0.60076 0.04623 0.6546 0.0
C1452 C 0.59802 0.03398 0.65198 0.0
C1453 C 0.59607 0.04051 0.65476 0.0
C1454 C 0.60933 0.03877 0.6487 0.0
C1455 C 0.6047 0.03302 0.64896 0.0
C1456 C 0.60739 0.04528 0.6515 0.0
C1457 C 0.59535 0.07709 0.67164 0.0
C1458 C 0.60582 0.07748 0.67896 0.0
C1459 C 0.59624 0.08556 0.68112 0.0
C1460 C 0.59246 0.08257 0.6756 0.0
C1461 C 0.603 0.08312 0.68284 0.0
C1462 C 0.60202 0.07448 0.6734 0.0
C1463 C 0.59143 0.07455 0.66549 0.0
O1464 O 0.58812 0.06643 0.6458 0.0
O1465 O 0.58022 0.0615 0.65256 0.0
O1466 O 0.58726 0.06914 0.66648 0.0
O1467 O 0.59494 0.07425 0.65955 0.0
H1468 H 0.57852 0.07641 0.65412 0.0
H1469 H 0.57075 0.08609 0.65088 0.0
H1470 H 0.56562 0.07544 0.63149 0.0
H1471 H 0.57333 0.06567 0.63488 0.0
H1472 H 0.59431 0.02968 0.65221 0.0
H1473 H 0.59093 0.04104 0.65714 0.0
H1474 H 0.61455 0.0382 0.64652 0.0
H1475 H 0.61115 0.04954 0.65139 0.0
H1476 H 0.61098 0.07542 0.68017 0.0
H1477 H 0.59394 0.08997 0.68388 0.0
H1478 H 0.58734 0.08468 0.67429 0.0
H1479 H 0.60433 0.07023 0.6704 0.0
C1480 C 0.68567 0.82755 0.39501 0.0
C1481 C 0.6795 0.82711 0.39901 0.0
C1482 C 0.67451 0.81876 0.39069 0.0
C1483 C 0.67399 0.82277 0.39688 0.0
C1484 C 0.68077 0.81912 0.38675 0.0
C1485 C 0.6863 0.8235 0.38889 0.0
U1486 U 0.692 0.84103 0.40788 0.0
O1487 O 0.70223 0.84292 0.41291 0.0
O1488 O 0.69732 0.85121 0.40658 0.0
C1489 C 0.70285 0.84925 0.41021 0.0
C1490 C 0.69131 0.83238 0.39717 0.0
C1491 C 0.70973 0.85104 0.40717 0.0
C1492 C 0.71918 0.84917 0.39877 0.0
C1493 C 0.71259 0.8473 0.40149 0.0
C1494 C 0.72006 0.85851 0.40737 0.0
C1495 C 0.72302 0.8548 0.4017 0.0
C1496 C 0.7135 0.85664 0.41006 0.0
C1497 C 0.67861 0.84481 0.42281 0.0
C1498 C 0.67738 0.8551 0.43029 0.0
C1499 C 0.67087 0.84449 0.43294 0.0
C1500 C 0.6739 0.84118 0.42714 0.0
C1501 C 0.6725 0.85152 0.43455 0.0
C1502 C 0.68042 0.85176 0.42447 0.0
C1503 C 0.68116 0.84129 0.41642 0.0
O1504 O 0.68969 0.83908 0.39673 0.0
O1505 O 0.69442 0.83077 0.40312 0.0
O1506 O 0.68647 0.83695 0.4172 0.0
O1507 O 0.68161 0.84517 0.41072 0.0
H1508 H 0.67893 0.83019 0.40377 0.0
H1509 H 0.6693 0.82254 0.4001 0.0
H1510 H 0.68132 0.81614 0.38194 0.0
H1511 H 0.69102 0.82378 0.38573 0.0
H1512 H 0.72131 0.84617 0.39444 0.0
H1513 H 0.70974 0.84295 0.39919 0.0
H1514 H 0.72277 0.86295 0.40967 0.0
H1515 H 0.71136 0.85961 0.41442 0.0
H1516 H 0.6788 0.86049 0.43142 0.0
H1517 H 0.66705 0.8416 0.436 0.0
H1518 H 0.6724 0.83583 0.42592 0.0
H1519 H 0.68408 0.85465 0.4212 0.0
C1520 C 0.92936 0.93694 0.1434 0.0
C1521 C 0.93101 0.93131 0.14786 0.0
C1522 C 0.93883 0.92638 0.13901 0.0
C1523 C 0.9357 0.92609 0.1457 0.0
C1524 C 0.93719 0.93206 0.13456 0.0
C1525 C 0.93249 0.9373 0.13674 0.0
U1526 U 0.91538 0.94225 0.15622 0.0
O1527 O 0.9129 0.95225 0.16145 0.0
O1528 O 0.90496 0.94709 0.15486 0.0
C1529 C 0.90661 0.95264 0.15862 0.0
C1530 C 0.92416 0.94223 0.14561 0.0
C1531 C 0.90461 0.9595 0.15565 0.0
C1532 C 0.90669 0.96949 0.14794 0.0
C1533 C 0.90869 0.96287 0.15051 0.0
C1534 C 0.89651 0.96936 0.15556 0.0
C1535 C 0.90059 0.97284 0.15047 0.0
C1536 C 0.89851 0.96278 0.15812 0.0
C1537 C 0.91231 0.92815 0.17077 0.0
C1538 C 0.90204 0.92551 0.17793 0.0
C1539 C 0.91316 0.91984 0.1804 0.0
C1540 C 0.91628 0.92355 0.17491 0.0
C1541 C 0.90597 0.92064 0.18187 0.0
C1542 C 0.90519 0.92923 0.17239 0.0
C1543 C 0.91564 0.93121 0.1645 0.0
O1544 O 0.91758 0.94022 0.14505 0.0
O1545 O 0.92553 0.94534 0.15163 0.0
O1546 O 0.91964 0.93675 0.16549 0.0
O1547 O 0.91177 0.9316 0.1588 0.0
H1548 H 0.92858 0.9309 0.15299 0.0
H1549 H 0.93674 0.92174 0.14922 0.0
H1550 H 0.93954 0.93246 0.1294 0.0
H1551 H 0.93126 0.94159 0.13322 0.0
H1552 H 0.90999 0.97203 0.14407 0.0
H1553 H 0.91343 0.96042 0.14854 0.0
H1554 H 0.89172 0.9717 0.15754 0.0
H1555 H 0.89527 0.96024 0.16205 0.0
H1556 H 0.89649 0.92623 0.17893 0.0
H1557 H 0.91635 0.91622 0.18341 0.0
H1558 H 0.92179 0.92266 0.17375 0.0
H1559 H 0.90202 0.93277 0.16925 0.0
C1560 C 0.81924 0.17943 0.89503 0.0
C1561 C 0.82434 0.18089 0.90014 0.0
C1562 C 0.83057 0.18854 0.89198 0.0
C1563 C 0.82992 0.18542 0.89865 0.0
C1564 C 0.82535 0.18718 0.88691 0.0
C1565 C 0.81974 0.18265 0.88842 0.0
U1566 U 0.81342 0.16424 0.90603 0.0
O1567 O 0.80331 0.16113 0.91068 0.0
O1568 O 0.8087 0.154 0.90337 0.0
C1569 C 0.803 0.15524 0.90708 0.0
C1570 C 0.81376 0.17415 0.89648 0.0
C1571 C 0.79623 0.1535 0.90368 0.0
C1572 C 0.78444 0.15661 0.89978 0.0
C1573 C 0.79099 0.15858 0.90251 0.0
C1574 C 0.78832 0.14452 0.89919 0.0
C1575 C 0.78301 0.14954 0.89813 0.0
C1576 C 0.79484 0.14648 0.90194 0.0
C1577 C 0.82745 0.15947 0.92017 0.0
C1578 C 0.82767 0.14943 0.92809 0.0
C1579 C 0.83745 0.15757 0.92782 0.0
C1580 C 0.83402 0.16155 0.92273 0.0
C1581 C 0.83439 0.15141 0.93048 0.0
C1582 C 0.82423 0.15343 0.92292 0.0
C1583 C 0.82437 0.16355 0.9144 0.0
O1584 O 0.81566 0.16764 0.8952 0.0
O1585 O 0.81049 0.17486 0.90252 0.0
O1586 O 0.81875 0.16729 0.91584 0.0
O1587 O 0.82405 0.16038 0.90828 0.0
H1588 H 0.82408 0.17843 0.90527 0.0
H1589 H 0.83375 0.18643 0.90272 0.0
H1590 H 0.82572 0.18945 0.8817 0.0
H1591 H 0.81589 0.18153 0.88439 0.0
H1592 H 0.78049 0.16062 0.89897 0.0
H1593 H 0.79191 0.16404 0.90379 0.0
H1594 H 0.78739 0.13902 0.89807 0.0
H1595 H 0.79877 0.14246 0.90284 0.0
H1596 H 0.8252 0.14469 0.93003 0.0
H1597 H 0.84257 0.15929 0.92964 0.0
H1598 H 0.83657 0.16621 0.92068 0.0
H1599 H 0.81916 0.15174 0.92099 0.0
C1600 C 0.86077 0.57739 0.93623 0.0
C1601 C 0.85621 0.5764 0.93053 0.0
C1602 C 0.86458 0.56844 0.92502 0.0
C1603 C 0.85809 0.57197 0.925 0.0
C1604 C 0.86907 0.56932 0.93084 0.0
C1605 C 0.86718 0.57378 0.93639 0.0
U1606 U 0.84871 0.59167 0.94248 0.0
O1607 O 0.84417 0.59422 0.95279 0.0
O1608 O 0.85076 0.60197 0.94734 0.0
C1609 C 0.84734 0.60036 0.95312 0.0
C1610 C 0.85895 0.58248 0.94177 0.0
C1611 C 0.85085 0.60218 0.95979 0.0
C1612 C 0.85616 0.59901 0.971 0.0
C1613 C 0.85322 0.59704 0.96454 0.0
C1614 C 0.85456 0.61126 0.96799 0.0
C1615 C 0.85685 0.60615 0.97281 0.0
C1616 C 0.85159 0.60929 0.96157 0.0
C1617 C 0.83375 0.5959 0.92927 0.0
C1618 C 0.82637 0.60631 0.92879 0.0
C1619 C 0.8243 0.59668 0.92074 0.0
C1620 C 0.82983 0.59295 0.92378 0.0
C1621 C 0.82254 0.60344 0.92314 0.0
C1622 C 0.83193 0.60256 0.93184 0.0
C1623 C 0.83993 0.59205 0.93184 0.0
O1624 O 0.85968 0.58909 0.93993 0.0
O1625 O 0.85301 0.58124 0.94507 0.0
O1626 O 0.83899 0.58801 0.93736 0.0
O1627 O 0.84585 0.59558 0.93201 0.0
H1628 H 0.85123 0.57915 0.93031 0.0
H1629 H 0.85445 0.57133 0.92066 0.0
H1630 H 0.87414 0.56674 0.931 0.0
H1631 H 0.87078 0.57451 0.94074 0.0
H1632 H 0.85794 0.59494 0.97456 0.0
H1633 H 0.85273 0.59151 0.96329 0.0
H1634 H 0.8549 0.61679 0.96925 0.0
H1635 H 0.84976 0.61335 0.95802 0.0
H1636 H 0.82511 0.61147 0.93082 0.0
H1637 H 0.82158 0.59434 0.91633 0.0
H1638 H 0.83119 0.58783 0.9217 0.0
H1639 H 0.8349 0.60491 0.93608 0.0
C1640 C 0.36031 0.92818 0.07006 0.0
C1641 C 0.35568 0.92915 0.07571 0.0
C1642 C 0.36385 0.93735 0.08118 0.0
C1643 C 0.35742 0.9337 0.0812 0.0
C1644 C 0.36841 0.93648 0.07542 0.0
C1645 C 0.36666 0.9319 0.06992 0.0
U1646 U 0.34848 0.91369 0.06383 0.0
O1647 O 0.34399 0.91105 0.05353 0.0
O1648 O 0.35068 0.90341 0.059 0.0
C1649 C 0.34724 0.90496 0.05322 0.0
C1650 C 0.3586 0.92302 0.06455 0.0
C1651 C 0.35076 0.90315 0.04654 0.0
C1652 C 0.3557 0.90634 0.03517 0.0
C1653 C 0.35283 0.9083 0.04166 0.0
C1654 C 0.35463 0.89409 0.03841 0.0
C1655 C 0.3566 0.8992 0.03345 0.0
C1656 C 0.35173 0.89605 0.04487 0.0
C1657 C 0.33345 0.90931 0.0769 0.0
C1658 C 0.32646 0.89864 0.07768 0.0
C1659 C 0.32357 0.90869 0.08494 0.0
C1660 C 0.32912 0.91244 0.08195 0.0
C1661 C 0.32221 0.90171 0.08291 0.0
C1662 C 0.33203 0.90242 0.07469 0.0
C1663 C 0.33962 0.91323 0.07441 0.0
O1664 O 0.3594 0.91644 0.06645 0.0
O1665 O 0.35267 0.92415 0.0612 0.0
O1666 O 0.3387 0.91727 0.06889 0.0
O1667 O 0.34559 0.90978 0.07429 0.0
H1668 H 0.35075 0.92632 0.07592 0.0
H1669 H 0.35373 0.93433 0.08548 0.0
H1670 H 0.37342 0.93916 0.07527 0.0
H1671 H 0.37031 0.93119 0.06561 0.0
H1672 H 0.35723 0.9104 0.0315 0.0
H1673 H 0.35216 0.91383 0.04283 0.0
H1674 H 0.35514 0.88854 0.03724 0.0
H1675 H 0.35013 0.89199 0.04852 0.0
H1676 H 0.32552 0.89331 0.07595 0.0
H1677 H 0.32052 0.91119 0.08903 0.0
H1678 H 0.33016 0.91774 0.08375 0.0
H1679 H 0.33531 0.89992 0.07077 0.0
C1680 C 0.82749 0.61135 0.81999 0.0
C1681 C 0.82722 0.60736 0.82618 0.0
C1682 C 0.81884 0.61558 0.83127 0.0
C1683 C 0.82294 0.60945 0.83176 0.0
C1684 C 0.81904 0.6195 0.825 0.0
C1685 C 0.82335 0.6174 0.8194 0.0
U1686 U 0.84094 0.59858 0.81331 0.0
O1687 O 0.8425 0.59353 0.803 0.0
O1688 O 0.85089 0.59996 0.80762 0.0
C1689 C 0.84873 0.59636 0.80213 0.0
C1690 C 0.8322 0.60919 0.81424 0.0
C1691 C 0.85013 0.59951 0.79519 0.0
C1692 C 0.85102 0.6096 0.78737 0.0
C1693 C 0.84922 0.60672 0.79392 0.0
C1694 C 0.85449 0.59807 0.78327 0.0
C1695 C 0.85373 0.60531 0.78198 0.0
C1696 C 0.85271 0.59521 0.7898 0.0
C1697 C 0.84523 0.58375 0.82674 0.0
C1698 C 0.85555 0.57629 0.82783 0.0
C1699 C 0.84516 0.57383 0.83475 0.0
C1700 C 0.84176 0.57955 0.83168 0.0
C1701 C 0.85213 0.57216 0.83294 0.0
C1702 C 0.85212 0.58204 0.82475 0.0
C1703 C 0.84163 0.5901 0.82418 0.0
O1704 O 0.83893 0.60972 0.81566 0.0
O1705 O 0.83056 0.60321 0.81121 0.0
O1706 O 0.83714 0.58924 0.81901 0.0
O1707 O 0.84547 0.59581 0.82355 0.0
H1708 H 0.83037 0.60265 0.82671 0.0
H1709 H 0.82284 0.60625 0.83646 0.0
H1710 H 0.81599 0.62427 0.82447 0.0
H1711 H 0.8235 0.62054 0.81466 0.0
H1712 H 0.85029 0.61517 0.78654 0.0
H1713 H 0.8472 0.61013 0.798 0.0
H1714 H 0.85665 0.59462 0.7793 0.0
H1715 H 0.85348 0.58964 0.79069 0.0
H1716 H 0.86088 0.57512 0.82626 0.0
H1717 H 0.8424 0.57088 0.83875 0.0
H1718 H 0.83646 0.58082 0.83332 0.0
H1719 H 0.85488 0.58522 0.82092 0.0
C1720 C 0.1442 0.07762 0.57017 0.0
C1721 C 0.14878 0.07674 0.57587 0.0
C1722 C 0.14053 0.06871 0.58147 0.0
C1723 C 0.14698 0.07233 0.58145 0.0
C1724 C 0.13601 0.06949 0.57566 0.0
C1725 C 0.13783 0.07392 0.57006 0.0
U1726 U 0.15608 0.09194 0.56366 0.0
O1727 O 0.16061 0.09434 0.55331 0.0
O1728 O 0.15391 0.10211 0.55858 0.0
C1729 C 0.15733 0.1004 0.55282 0.0
C1730 C 0.14595 0.08264 0.56456 0.0
C1731 C 0.15379 0.10204 0.54608 0.0
C1732 C 0.15028 0.09896 0.53416 0.0
C1733 C 0.15312 0.09705 0.54068 0.0
C1734 C 0.14859 0.11083 0.53838 0.0
C1735 C 0.14803 0.10589 0.53291 0.0
C1736 C 0.15146 0.10893 0.54487 0.0
C1737 C 0.17105 0.09653 0.5768 0.0
C1738 C 0.17818 0.1071 0.57745 0.0
C1739 C 0.18073 0.09723 0.58506 0.0
C1740 C 0.1752 0.09348 0.58205 0.0
C1741 C 0.18226 0.10412 0.58287 0.0
C1742 C 0.17262 0.10333 0.57443 0.0
C1743 C 0.16488 0.09262 0.57428 0.0
O1744 O 0.14515 0.08927 0.56629 0.0
O1745 O 0.1519 0.08143 0.56127 0.0
O1746 O 0.16584 0.08847 0.56885 0.0
O1747 O 0.15893 0.09611 0.57404 0.0
H1748 H 0.15372 0.07955 0.57605 0.0
H1749 H 0.15063 0.07177 0.58577 0.0
H1750 H 0.13098 0.06684 0.57553 0.0
H1751 H 0.13421 0.07457 0.56572 0.0
H1752 H 0.14986 0.09501 0.53009 0.0
H1753 H 0.15488 0.09169 0.54144 0.0
H1754 H 0.14701 0.11623 0.53758 0.0
H1755 H 0.15199 0.1129 0.54891 0.0
H1756 H 0.17925 0.11237 0.57559 0.0
H1757 H 0.18365 0.0948 0.5893 0.0
H1758 H 0.17403 0.08825 0.58398 0.0
H1759 H 0.16947 0.10576 0.57037 0.0
C1760 C 0.17847 0.89397 0.82012 0.0
C1761 C 0.17896 0.89823 0.82611 0.0
C1762 C 0.18739 0.89015 0.83135 0.0
C1763 C 0.18337 0.89635 0.83166 0.0
C1764 C 0.18699 0.88597 0.82526 0.0
C1765 C 0.18255 0.88786 0.8197 0.0
U1766 U 0.16427 0.906 0.81355 0.0
O1767 O 0.16199 0.91057 0.80318 0.0
O1768 O 0.15414 0.9039 0.80837 0.0
C1769 C 0.15591 0.90732 0.80264 0.0
C1770 C 0.1735 0.89581 0.81448 0.0
C1771 C 0.1543 0.9038 0.79587 0.0
C1772 C 0.15729 0.90071 0.7838 0.0
C1773 C 0.1592 0.9035 0.79034 0.0
C1774 C 0.14562 0.89833 0.78824 0.0
C1775 C 0.15045 0.89814 0.78265 0.0
C1776 C 0.14752 0.90115 0.79475 0.0
C1777 C 0.1596 0.92097 0.82663 0.0
C1778 C 0.14892 0.92793 0.82743 0.0
C1779 C 0.15898 0.93086 0.83465 0.0
C1780 C 0.16273 0.92531 0.83167 0.0
C1781 C 0.15199 0.93219 0.83265 0.0
C1782 C 0.1527 0.92236 0.82443 0.0
C1783 C 0.16352 0.91478 0.82417 0.0
O1784 O 0.16685 0.89504 0.81615 0.0
O1785 O 0.17479 0.90178 0.81125 0.0
O1786 O 0.16774 0.91573 0.81879 0.0
O1787 O 0.16002 0.90884 0.82389 0.0
H1788 H 0.17585 0.90298 0.82653 0.0
H1789 H 0.18363 0.89975 0.83622 0.0
H1790 H 0.18996 0.88113 0.82488 0.0
H1791 H 0.18222 0.8845 0.81512 0.0
H1792 H 0.16116 0.90058 0.77964 0.0
H1793 H 0.16447 0.90553 0.79102 0.0
H1794 H 0.14028 0.8965 0.78752 0.0
H1795 H 0.14361 0.9014 0.79888 0.0
H1796 H 0.14358 0.92886 0.82571 0.0
H1797 H 0.16148 0.93393 0.83873 0.0
H1798 H 0.16804 0.92429 0.83345 0.0
H1799 H 0.15019 0.91907 0.82053 0.0
C1800 C 0.64559 0.43047 0.43661 0.0
C1801 C 0.65014 0.43156 0.43092 0.0
C1802 C 0.64208 0.44013 0.42589 0.0
C1803 C 0.64842 0.43635 0.42563 0.0
C1804 C 0.63752 0.43903 0.43161 0.0
C1805 C 0.63927 0.43424 0.43693 0.0
U1806 U 0.65656 0.41497 0.44184 0.0
O1807 O 0.66192 0.41207 0.45169 0.0
O1808 O 0.65402 0.40501 0.44711 0.0
C1809 C 0.6582 0.40629 0.45246 0.0
C1810 C 0.64733 0.42519 0.44199 0.0
C1811 C 0.65531 0.40498 0.45953 0.0
C1812 C 0.64554 0.40437 0.46776 0.0
C1813 C 0.64819 0.40614 0.46112 0.0
C1814 C 0.6571 0.40047 0.47135 0.0
C1815 C 0.64995 0.40146 0.47294 0.0
C1816 C 0.65973 0.40221 0.46472 0.0
C1817 C 0.66956 0.40926 0.42713 0.0
C1818 C 0.67853 0.40017 0.4276 0.0
C1819 C 0.6758 0.40588 0.41656 0.0
C1820 C 0.6708 0.41002 0.41993 0.0
C1821 C 0.67969 0.40085 0.42033 0.0
C1822 C 0.67347 0.40433 0.43099 0.0
C1823 C 0.66411 0.41366 0.43036 0.0
O1824 O 0.64572 0.41869 0.44029 0.0
O1825 O 0.65363 0.42576 0.44475 0.0
O1826 O 0.66601 0.41758 0.43571 0.0
O1827 O 0.65793 0.4107 0.43119 0.0
H1828 H 0.65501 0.42863 0.43052 0.0
H1829 H 0.652 0.43696 0.42125 0.0
H1830 H 0.63262 0.44188 0.43198 0.0
H1831 H 0.63567 0.43344 0.44126 0.0
H1832 H 0.64003 0.40528 0.46884 0.0
H1833 H 0.64468 0.40831 0.45721 0.0
H1834 H 0.66063 0.39816 0.47516 0.0
H1835 H 0.66523 0.40125 0.46359 0.0
H1836 H 0.68142 0.39632 0.43064 0.0
H1837 H 0.67666 0.40664 0.41098 0.0
H1838 H 0.66786 0.41383 0.41688 0.0
H1839 H 0.67256 0.40367 0.43656 0.0
C1840 C 0.82647 0.39414 0.68626 0.0
C1841 C 0.82477 0.39877 0.68078 0.0
C1842 C 0.81712 0.38995 0.67551 0.0
C1843 C 0.82012 0.39671 0.67548 0.0
C1844 C 0.81881 0.38534 0.68105 0.0
C1845 C 0.82344 0.38743 0.68638 0.0
U1846 U 0.84061 0.40667 0.69207 0.0
O1847 O 0.8431 0.41148 0.70227 0.0
O1848 O 0.85096 0.40493 0.69694 0.0
C1849 C 0.84926 0.40838 0.70269 0.0
C1850 C 0.83165 0.39621 0.69163 0.0
C1851 C 0.85109 0.40495 0.70944 0.0
C1852 C 0.84837 0.40174 0.72155 0.0
C1853 C 0.84629 0.40451 0.71505 0.0
C1854 C 0.86003 0.39967 0.71693 0.0
C1855 C 0.85528 0.39933 0.72258 0.0
C1856 C 0.85796 0.40247 0.71046 0.0
C1857 C 0.8441 0.42154 0.67834 0.0
C1858 C 0.85452 0.42849 0.67575 0.0
C1859 C 0.84345 0.43126 0.67012 0.0
C1860 C 0.84021 0.42582 0.6738 0.0
C1861 C 0.85067 0.43255 0.67091 0.0
C1862 C 0.85125 0.42299 0.67943 0.0
C1863 C 0.84064 0.41527 0.68128 0.0
O1864 O 0.83824 0.39561 0.68966 0.0
O1865 O 0.83033 0.40217 0.69486 0.0
O1866 O 0.83662 0.4162 0.68681 0.0
O1867 O 0.84439 0.40949 0.68154 0.0
H1868 H 0.82711 0.40395 0.68055 0.0
H1869 H 0.81904 0.40034 0.67124 0.0
H1870 H 0.81655 0.38013 0.68127 0.0
H1871 H 0.82472 0.38377 0.69055 0.0
H1872 H 0.84456 0.40149 0.72576 0.0
H1873 H 0.84096 0.40639 0.71445 0.0
H1874 H 0.86542 0.39797 0.71757 0.0
H1875 H 0.8618 0.40282 0.70627 0.0
H1876 H 0.86009 0.42935 0.67645 0.0
H1877 H 0.84033 0.43437 0.66651 0.0
H1878 H 0.83468 0.42479 0.6729 0.0
H1879 H 0.85435 0.41974 0.68292 0.0
C1880 C 0.67904 0.61174 0.18634 0.0
C1881 C 0.68065 0.60714 0.18081 0.0
C1882 C 0.68849 0.61586 0.17566 0.0
C1883 C 0.68534 0.60917 0.17554 0.0
C1884 C 0.6869 0.62043 0.18126 0.0
C1885 C 0.68222 0.61838 0.18656 0.0
U1886 U 0.66453 0.59956 0.19208 0.0
O1887 O 0.6619 0.59479 0.20227 0.0
O1888 O 0.65425 0.60162 0.19698 0.0
C1889 C 0.65583 0.59806 0.20269 0.0
C1890 C 0.67381 0.60974 0.19168 0.0
C1891 C 0.65407 0.60146 0.20947 0.0
C1892 C 0.65709 0.60514 0.22136 0.0
C1893 C 0.65908 0.6024 0.21482 0.0
C1894 C 0.6451 0.60618 0.21727 0.0
C1895 C 0.65006 0.60701 0.22268 0.0
C1896 C 0.64708 0.60342 0.21076 0.0
C1897 C 0.66019 0.58486 0.17861 0.0
C1898 C 0.64969 0.57761 0.17799 0.0
C1899 C 0.65943 0.5754 0.1701 0.0
C1900 C 0.66317 0.58091 0.17318 0.0
C1901 C 0.65261 0.57372 0.1724 0.0
C1902 C 0.65346 0.58314 0.18108 0.0
C1903 C 0.66409 0.59098 0.18127 0.0
O1904 O 0.66724 0.61055 0.18974 0.0
O1905 O 0.67496 0.6037 0.19484 0.0
O1906 O 0.66813 0.58992 0.18677 0.0
O1907 O 0.66061 0.59693 0.18155 0.0
H1908 H 0.67819 0.60202 0.18051 0.0
H1909 H 0.68635 0.60557 0.17125 0.0
H1910 H 0.68927 0.62559 0.18155 0.0
H1911 H 0.68102 0.622 0.19078 0.0
H1912 H 0.66105 0.60578 0.22539 0.0
H1913 H 0.66452 0.60095 0.21399 0.0
H1914 H 0.63963 0.60747 0.21812 0.0
H1915 H 0.64311 0.60269 0.20675 0.0
H1916 H 0.64449 0.57642 0.17994 0.0
H1917 H 0.6618 0.57263 0.16574 0.0
H1918 H 0.66834 0.58219 0.17118 0.0
H1919 H 0.65108 0.58614 0.18528 0.0
C1920 C 0.57055 0.64329 0.9284 0.0
C1921 C 0.57646 0.6475 0.9297 0.0
C1922 C 0.58111 0.63873 0.93779 0.0
C1923 C 0.58168 0.64525 0.93435 0.0
C1924 C 0.57516 0.63454 0.93648 0.0
C1925 C 0.56992 0.63681 0.93183 0.0
U1926 U 0.56494 0.65583 0.91412 0.0
O1927 O 0.55933 0.65418 0.90415 0.0
O1928 O 0.55494 0.66129 0.9121 0.0
C1929 C 0.554 0.65816 0.90601 0.0
C1930 C 0.56515 0.6456 0.92336 0.0
C1931 C 0.54692 0.6553 0.90471 0.0
C1932 C 0.53853 0.64566 0.90442 0.0
C1933 C 0.54527 0.64822 0.90594 0.0
C1934 C 0.53502 0.65724 0.90051 0.0
C1935 C 0.53332 0.65014 0.90167 0.0
C1936 C 0.54174 0.65978 0.90201 0.0
C1937 C 0.57873 0.66994 0.9092 0.0
C1938 C 0.57925 0.67708 0.89861 0.0
C1939 C 0.58703 0.67959 0.90836 0.0
C1940 C 0.58407 0.67406 0.91215 0.0
C1941 C 0.58472 0.68114 0.90151 0.0
C1942 C 0.57627 0.67153 0.90243 0.0
C1943 C 0.57612 0.66386 0.91319 0.0
O1944 O 0.56238 0.65179 0.92464 0.0
O1945 O 0.5668 0.64471 0.91671 0.0
O1946 O 0.57537 0.65797 0.90967 0.0
O1947 O 0.57095 0.66509 0.91759 0.0
H1948 H 0.57707 0.6525 0.92705 0.0
H1949 H 0.58624 0.64856 0.93513 0.0
H1950 H 0.57453 0.62951 0.93907 0.0
H1951 H 0.5654 0.63349 0.93089 0.0
H1952 H 0.53738 0.64018 0.90545 0.0
H1953 H 0.54919 0.64467 0.90806 0.0
H1954 H 0.53119 0.66082 0.89831 0.0
H1955 H 0.54292 0.66526 0.90099 0.0
H1956 H 0.5773 0.67817 0.89338 0.0
H1957 H 0.5913 0.68251 0.91072 0.0
H1958 H 0.58606 0.67289 0.91736 0.0
H1959 H 0.57212 0.66843 0.90007 0.0
C1960 C 0.61187 0.31941 0.17911 0.0
C1961 C 0.60728 0.32486 0.18102 0.0
C1962 C 0.61629 0.33006 0.18848 0.0
C1963 C 0.60945 0.3301 0.18568 0.0
C1964 C 0.62087 0.32457 0.18658 0.0
C1965 C 0.61867 0.31929 0.18195 0.0
U1966 U 0.60011 0.31448 0.16401 0.0
O1967 O 0.60219 0.30907 0.15402 0.0
O1968 O 0.59441 0.30475 0.16136 0.0
C1969 C 0.59789 0.30386 0.15547 0.0
C1970 C 0.60971 0.31412 0.17389 0.0
C1971 C 0.6006 0.29672 0.15417 0.0
C1972 C 0.6098 0.28787 0.15487 0.0
C1973 C 0.6073 0.29462 0.15642 0.0
C1974 C 0.59888 0.28522 0.1489 0.0
C1975 C 0.60563 0.28309 0.15103 0.0
C1976 C 0.59641 0.29196 0.15045 0.0
C1977 C 0.58723 0.32932 0.15855 0.0
C1978 C 0.57827 0.32883 0.14945 0.0
C1979 C 0.58084 0.33985 0.15529 0.0
C1980 C 0.58589 0.3365 0.15941 0.0
C1981 C 0.57701 0.33608 0.15021 0.0
C1982 C 0.58338 0.32547 0.15357 0.0
C1983 C 0.59278 0.32611 0.16286 0.0
O1984 O 0.60335 0.31155 0.17472 0.0
O1985 O 0.61111 0.31577 0.16734 0.0
O1986 O 0.59884 0.32512 0.15972 0.0
O1987 O 0.59091 0.32085 0.16691 0.0
H1988 H 0.60204 0.32512 0.17881 0.0
H1989 H 0.60583 0.33431 0.18693 0.0
H1990 H 0.62615 0.32436 0.18868 0.0
H1991 H 0.6223 0.31515 0.18051 0.0
H1992 H 0.61504 0.28643 0.15655 0.0
H1993 H 0.61062 0.29823 0.15931 0.0
H1994 H 0.59547 0.28166 0.14607 0.0
H1995 H 0.59121 0.29347 0.14869 0.0
H1996 H 0.57543 0.32581 0.14556 0.0
H1997 H 0.57991 0.3454 0.15611 0.0
H1998 H 0.58879 0.33954 0.16324 0.0
H1999 H 0.58437 0.31992 0.15284 0.0
C2000 C 0.93632 0.36251 0.42805 0.0
C2001 C 0.93042 0.35817 0.42887 0.0
C2002 C 0.92517 0.36658 0.43697 0.0
C2003 C 0.92492 0.36017 0.43329 0.0
C2004 C 0.93118 0.37084 0.43626 0.0
C2005 C 0.9367 0.36883 0.43181 0.0
U2006 U 0.94177 0.35103 0.41302 0.0
O2007 O 0.94705 0.35336 0.40299 0.0
O2008 O 0.95164 0.3457 0.41029 0.0
C2009 C 0.9524 0.34924 0.4044 0.0
C2010 C 0.9418 0.3606 0.42294 0.0
C2011 C 0.95942 0.35223 0.40309 0.0
C2012 C 0.96983 0.35858 0.40691 0.0
C2013 C 0.96307 0.35599 0.40827 0.0
C2014 C 0.96929 0.35378 0.39514 0.0
C2015 C 0.97303 0.35748 0.40032 0.0
C2016 C 0.96256 0.35118 0.39652 0.0
C2017 C 0.92717 0.33779 0.40764 0.0
C2018 C 0.9275 0.32915 0.39822 0.0
C2019 C 0.91679 0.33095 0.40486 0.0
C2020 C 0.92015 0.33603 0.40892 0.0
C2021 C 0.92039 0.3275 0.39941 0.0
C2022 C 0.93087 0.3343 0.4023 0.0
C2023 C 0.93034 0.34339 0.41189 0.0
O2024 O 0.94455 0.35431 0.42376 0.0
O2025 O 0.9402 0.36199 0.41637 0.0
O2026 O 0.93116 0.34948 0.40875 0.0
O2027 O 0.93568 0.34162 0.41588 0.0
H2028 H 0.93001 0.35328 0.42599 0.0
H2029 H 0.92044 0.3567 0.4338 0.0
H2030 H 0.93152 0.37584 0.43896 0.0
H2031 H 0.94119 0.37227 0.4312 0.0
H2032 H 0.97254 0.36147 0.41099 0.0
H2033 H 0.96072 0.35689 0.41337 0.0
H2034 H 0.97161 0.35275 0.39005 0.0
H2035 H 0.95982 0.34828 0.39246 0.0
H2036 H 0.9304 0.3266 0.39404 0.0
H2037 H 0.91136 0.32971 0.40599 0.0
H2038 H 0.91722 0.33865 0.41304 0.0
H2039 H 0.9363 0.33561 0.40124 0.0
C2040 C 0.89291 0.68627 0.67829 0.0
C2041 C 0.89761 0.68099 0.68036 0.0
C2042 C 0.88858 0.67559 0.68766 0.0
C2043 C 0.89548 0.67572 0.68501 0.0
C2044 C 0.88389 0.68092 0.68559 0.0
C2045 C 0.88604 0.68622 0.68096 0.0
U2046 U 0.90531 0.69187 0.66392 0.0
O2047 O 0.9035 0.69709 0.65375 0.0
O2048 O 0.91048 0.70192 0.66155 0.0
C2049 C 0.90736 0.70256 0.65542 0.0
C2050 C 0.89506 0.69163 0.67313 0.0
C2051 C 0.90432 0.7095 0.65385 0.0
C2052 C 0.89699 0.71952 0.65689 0.0
C2053 C 0.89957 0.71279 0.65843 0.0
C2054 C 0.90379 0.71965 0.64614 0.0
C2055 C 0.89911 0.72306 0.65074 0.0
C2056 C 0.90636 0.71296 0.64769 0.0
C2057 C 0.91969 0.67821 0.65945 0.0
C2058 C 0.92731 0.67816 0.64919 0.0
C2059 C 0.92892 0.66948 0.65836 0.0
C2060 C 0.92336 0.67243 0.66213 0.0
C2061 C 0.93093 0.67226 0.65181 0.0
C2062 C 0.92173 0.68112 0.65299 0.0
C2063 C 0.91359 0.68084 0.66337 0.0
O2064 O 0.90116 0.69464 0.67435 0.0
O2065 O 0.89423 0.68979 0.66653 0.0
O2066 O 0.90769 0.68135 0.65982 0.0
O2067 O 0.91472 0.6862 0.66756 0.0
H2068 H 0.90291 0.68088 0.67829 0.0
H2069 H 0.8992 0.67164 0.6864 0.0
H2070 H 0.87856 0.681 0.68756 0.0
H2071 H 0.88233 0.69024 0.6794 0.0
H2072 H 0.89344 0.722 0.66058 0.0
H2073 H 0.89793 0.7102 0.66322 0.0
H2074 H 0.90544 0.72215 0.6413 0.0
H2075 H 0.90999 0.71048 0.64408 0.0
H2076 H 0.92876 0.68047 0.6442 0.0
H2077 H 0.93148 0.66487 0.66049 0.0
H2078 H 0.92183 0.67009 0.66709 0.0
H2079 H 0.91896 0.6856 0.65085 0.0
C2080 C 0.57079 0.36211 0.57777 0.0
C2081 C 0.57712 0.35836 0.57756 0.0
C2082 C 0.58193 0.36666 0.56909 0.0
C2083 C 0.58263 0.3606 0.57327 0.0
C2084 C 0.57551 0.37035 0.56922 0.0
C2085 C 0.56999 0.36809 0.57355 0.0
U2086 U 0.56462 0.34951 0.59165 0.0
O2087 O 0.55885 0.35103 0.60153 0.0
O2088 O 0.55455 0.34408 0.59338 0.0
C2089 C 0.55354 0.34709 0.59952 0.0
C2090 C 0.56513 0.35984 0.58253 0.0
C2091 C 0.54646 0.34992 0.60083 0.0
C2092 C 0.53799 0.35949 0.6009 0.0
C2093 C 0.54469 0.35691 0.59926 0.0
C2094 C 0.53475 0.34811 0.60556 0.0
C2095 C 0.53295 0.35514 0.60413 0.0
C2096 C 0.54143 0.34554 0.60393 0.0
C2097 C 0.5784 0.3354 0.5967 0.0
C2098 C 0.57846 0.32789 0.60703 0.0
C2099 C 0.58709 0.32615 0.59785 0.0
C2100 C 0.58415 0.33167 0.59404 0.0
C2101 C 0.58433 0.32422 0.60443 0.0
C2102 C 0.5755 0.33344 0.60318 0.0
C2103 C 0.57581 0.3415 0.59272 0.0
O2104 O 0.56238 0.35367 0.58109 0.0
O2105 O 0.5665 0.36066 0.58925 0.0
O2106 O 0.57496 0.34734 0.5963 0.0
O2107 O 0.57071 0.34028 0.58823 0.0
H2108 H 0.57782 0.35371 0.58077 0.0
H2109 H 0.58744 0.35757 0.57321 0.0
H2110 H 0.57482 0.37506 0.56612 0.0
H2111 H 0.56514 0.37106 0.57365 0.0
H2112 H 0.5368 0.36494 0.59977 0.0
H2113 H 0.54851 0.36037 0.59686 0.0
H2114 H 0.53098 0.34456 0.60792 0.0
H2115 H 0.54268 0.34013 0.60516 0.0
H2116 H 0.57616 0.3265 0.61204 0.0
H2117 H 0.59168 0.32354 0.59573 0.0
H2118 H 0.58648 0.33314 0.58905 0.0
H2119 H 0.57104 0.33625 0.60531 0.0
C2120 C 0.89421 0.32046 0.82697 0.0
C2121 C 0.8989 0.3259 0.82532 0.0
C2122 C 0.8901 0.33139 0.81779 0.0
C2123 C 0.89688 0.3313 0.82075 0.0
C2124 C 0.88543 0.3259 0.81945 0.0
C2125 C 0.88748 0.32048 0.82399 0.0
U2126 U 0.9058 0.31402 0.84184 0.0
O2127 O 0.90324 0.30814 0.85146 0.0
O2128 O 0.91073 0.30376 0.84388 0.0
C2129 C 0.90706 0.30268 0.84964 0.0
C2130 C 0.89621 0.31489 0.83197 0.0
C2131 C 0.90383 0.29562 0.85055 0.0
C2132 C 0.89622 0.28775 0.8572 0.0
C2133 C 0.89874 0.29451 0.85578 0.0
C2134 C 0.90379 0.28304 0.84815 0.0
C2135 C 0.89879 0.2819 0.85347 0.0
C2136 C 0.9063 0.2898 0.84672 0.0
C2137 C 0.9199 0.32717 0.8486 0.0
C2138 C 0.92398 0.3346 0.85819 0.0
C2139 C 0.93243 0.32854 0.85089 0.0
C2140 C 0.92694 0.32559 0.84699 0.0
C2141 C 0.93102 0.33318 0.85647 0.0
C2142 C 0.9185 0.33166 0.85429 0.0
C2143 C 0.91408 0.32486 0.84396 0.0
O2144 O 0.90242 0.31205 0.83096 0.0
O2145 O 0.89494 0.31633 0.8386 0.0
O2146 O 0.90786 0.32421 0.84687 0.0
O2147 O 0.91545 0.31988 0.83937 0.0
H2148 H 0.9041 0.32603 0.82762 0.0
H2149 H 0.90057 0.33549 0.81967 0.0
H2150 H 0.8802 0.32578 0.81723 0.0
H2151 H 0.88378 0.31633 0.82522 0.0
H2152 H 0.89245 0.28707 0.8614 0.0
H2153 H 0.89681 0.29884 0.85892 0.0
H2154 H 0.90582 0.27868 0.84511 0.0
H2155 H 0.91028 0.29044 0.84272 0.0
H2156 H 0.92269 0.33824 0.86237 0.0
H2157 H 0.93779 0.32729 0.84946 0.0
H2158 H 0.92823 0.32221 0.84259 0.0
H2159 H 0.91316 0.3331 0.8556 0.0
C2160 C 0.93565 0.64294 0.07857 0.0
C2161 C 0.92997 0.64735 0.07698 0.0
C2162 C 0.9251 0.6385 0.06912 0.0
C2163 C 0.92476 0.64517 0.07229 0.0
C2164 C 0.93084 0.6341 0.07071 0.0
C2165 C 0.93607 0.63631 0.07539 0.0
U2166 U 0.94146 0.65571 0.09257 0.0
O2167 O 0.94667 0.65408 0.10279 0.0
O2168 O 0.95162 0.66072 0.09476 0.0
C2169 C 0.95226 0.65769 0.10094 0.0
C2170 C 0.941 0.64516 0.0837 0.0
C2171 C 0.95912 0.65442 0.10247 0.0
C2172 C 0.96973 0.64834 0.09877 0.0
C2173 C 0.96305 0.65101 0.09724 0.0
C2174 C 0.96856 0.65227 0.11081 0.0
C2175 C 0.9726 0.64899 0.10556 0.0
C2176 C 0.9619 0.65496 0.10927 0.0
C2177 C 0.92807 0.67066 0.09633 0.0
C2178 C 0.92694 0.67818 0.1066 0.0
C2179 C 0.92031 0.68077 0.09605 0.0
C2180 C 0.92331 0.67495 0.09274 0.0
C2181 C 0.92202 0.68243 0.10305 0.0
C2182 C 0.92995 0.67234 0.10327 0.0
C2183 C 0.93066 0.66429 0.09279 0.0
O2184 O 0.94413 0.65116 0.08228 0.0
O2185 O 0.93911 0.64461 0.09031 0.0
O2186 O 0.93103 0.65855 0.0966 0.0
O2187 O 0.93603 0.66511 0.08854 0.0
H2188 H 0.92952 0.65247 0.07944 0.0
H2189 H 0.92037 0.64864 0.07129 0.0
H2190 H 0.9313 0.62896 0.06831 0.0
H2191 H 0.94041 0.63283 0.07657 0.0
H2192 H 0.97266 0.64577 0.09463 0.0
H2193 H 0.96098 0.65049 0.09196 0.0
H2194 H 0.97062 0.65293 0.11607 0.0
H2195 H 0.95896 0.65759 0.11337 0.0
H2196 H 0.92842 0.67935 0.11197 0.0
H2197 H 0.91647 0.68382 0.09318 0.0
H2198 H 0.92177 0.67371 0.0874 0.0
H2199 H 0.93364 0.66909 0.10612 0.0
C2200 C 0.6119 0.68594 0.32719 0.0
C2201 C 0.60747 0.68015 0.32608 0.0
C2202 C 0.61564 0.67533 0.3175 0.0
C2203 C 0.60931 0.67492 0.32128 0.0
C2204 C 0.62009 0.68113 0.31865 0.0
C2205 C 0.61822 0.6864 0.32345 0.0
U2206 U 0.59998 0.69162 0.34186 0.0
O2207 O 0.60194 0.69712 0.35183 0.0
O2208 O 0.59463 0.70163 0.34413 0.0
C2209 C 0.59793 0.70248 0.35013 0.0
C2210 C 0.60994 0.69137 0.33234 0.0
C2211 C 0.60084 0.70955 0.35144 0.0
C2212 C 0.61049 0.71793 0.35157 0.0
C2213 C 0.60789 0.7112 0.35007 0.0
C2214 C 0.599 0.72143 0.35573 0.0
C2215 C 0.60607 0.72313 0.35443 0.0
C2216 C 0.59642 0.71472 0.35425 0.0
C2217 C 0.58588 0.67774 0.3468 0.0
C2218 C 0.57861 0.67726 0.35729 0.0
C2219 C 0.57653 0.66912 0.34773 0.0
C2220 C 0.58202 0.67217 0.34395 0.0
C2221 C 0.57479 0.67158 0.35448 0.0
C2222 C 0.58411 0.68033 0.35347 0.0
C2223 C 0.5919 0.68047 0.34279 0.0
O2224 O 0.60378 0.6943 0.33128 0.0
O2225 O 0.611 0.68964 0.33894 0.0
O2226 O 0.59783 0.68116 0.34625 0.0
O2227 O 0.5906 0.68573 0.33852 0.0
H2228 H 0.60259 0.67967 0.32897 0.0
H2229 H 0.60582 0.67047 0.32063 0.0
H2230 H 0.62499 0.68163 0.31579 0.0
H2231 H 0.62172 0.69081 0.32425 0.0
H2232 H 0.61595 0.71908 0.35044 0.0
H2233 H 0.61139 0.70729 0.34786 0.0
H2234 H 0.59547 0.72526 0.35802 0.0
H2235 H 0.59097 0.71354 0.35537 0.0
H2236 H 0.57736 0.67932 0.36244 0.0
H2237 H 0.57381 0.66468 0.34545 0.0
H2238 H 0.58333 0.67008 0.33882 0.0
H2239 H 0.58704 0.68464 0.35575 0.0
C2240 C 0.92742 0.57056 0.64284 0.0
C2241 C 0.92753 0.57688 0.64662 0.0
C2242 C 0.93599 0.58182 0.63838 0.0
C2243 C 0.93177 0.58245 0.64442 0.0
C2244 C 0.93594 0.57542 0.63466 0.0
C2245 C 0.93167 0.56984 0.63687 0.0
U2246 U 0.91401 0.56407 0.65574 0.0
O2247 O 0.90419 0.55813 0.6545 0.0
O2248 O 0.91262 0.55394 0.66116 0.0
C2249 C 0.90642 0.55283 0.65833 0.0
C2250 C 0.92278 0.5648 0.64513 0.0
C2251 C 0.90518 0.54574 0.65548 0.0
C2252 C 0.90482 0.53737 0.64581 0.0
C2253 C 0.90631 0.54413 0.64837 0.0
C2254 C 0.90116 0.53378 0.65745 0.0
C2255 C 0.90221 0.53212 0.65033 0.0
C2256 C 0.90263 0.54051 0.65999 0.0
C2257 C 0.90957 0.57784 0.67018 0.0
C2258 C 0.8994 0.57867 0.67788 0.0
C2259 C 0.90952 0.58612 0.67987 0.0
C2260 C 0.91291 0.58306 0.67414 0.0
C2261 C 0.9027 0.58403 0.68179 0.0
C2262 C 0.90282 0.57559 0.67213 0.0
C2263 C 0.91316 0.57518 0.66388 0.0
O2264 O 0.92444 0.56197 0.6512 0.0
O2265 O 0.91603 0.56612 0.64454 0.0
O2266 O 0.9093 0.57431 0.65822 0.0
O2267 O 0.91775 0.57012 0.66486 0.0
H2268 H 0.9243 0.57752 0.65126 0.0
H2269 H 0.93176 0.58725 0.64747 0.0
H2270 H 0.93909 0.57479 0.62997 0.0
H2271 H 0.93165 0.56499 0.63389 0.0
H2272 H 0.90576 0.53626 0.64032 0.0
H2273 H 0.9083 0.54808 0.6448 0.0
H2274 H 0.89907 0.52991 0.66106 0.0
H2275 H 0.90169 0.54166 0.66548 0.0
H2276 H 0.89418 0.57689 0.67925 0.0
H2277 H 0.91218 0.59031 0.68265 0.0
H2278 H 0.9181 0.58489 0.6727 0.0
H2279 H 0.90015 0.57155 0.66913 0.0
C2280 C 0.68661 0.67933 0.89406 0.0
C2281 C 0.68089 0.68053 0.89855 0.0
C2282 C 0.67603 0.68905 0.89033 0.0
C2283 C 0.67567 0.68535 0.89672 0.0
C2284 C 0.68177 0.68783 0.88583 0.0
C2285 C 0.68702 0.68301 0.88769 0.0
U2286 U 0.6916 0.66384 0.90519 0.0
O2287 O 0.69701 0.65392 0.90278 0.0
O2288 O 0.70131 0.661 0.91081 0.0
C2289 C 0.70222 0.65524 0.90712 0.0
C2290 C 0.69194 0.67403 0.89592 0.0
C2291 C 0.70938 0.65405 0.90439 0.0
C2292 C 0.71806 0.65443 0.89501 0.0
C2293 C 0.71127 0.65586 0.89749 0.0
C2294 C 0.72114 0.64949 0.90632 0.0
C2295 C 0.72308 0.65122 0.8994 0.0
C2296 C 0.71437 0.65089 0.90878 0.0
C2297 C 0.67671 0.65815 0.91796 0.0
C2298 C 0.67709 0.649 0.92687 0.0
C2299 C 0.66614 0.65497 0.92433 0.0
C2300 C 0.66954 0.65907 0.91929 0.0
C2301 C 0.66985 0.64984 0.92814 0.0
C2302 C 0.6805 0.65312 0.92179 0.0
C2303 C 0.67998 0.66253 0.91251 0.0
O2304 O 0.69456 0.67463 0.90228 0.0
O2305 O 0.69026 0.66754 0.8943 0.0
O2306 O 0.68095 0.65952 0.90638 0.0
O2307 O 0.68526 0.66651 0.91448 0.0
H2308 H 0.68042 0.67767 0.90345 0.0
H2309 H 0.67127 0.68606 0.90025 0.0
H2310 H 0.68222 0.69062 0.88089 0.0
H2311 H 0.69138 0.68212 0.88414 0.0
H2312 H 0.7194 0.6559 0.88968 0.0
H2313 H 0.7075 0.65833 0.89402 0.0
H2314 H 0.72483 0.64693 0.90982 0.0
H2315 H 0.713 0.64944 0.91411 0.0
H2316 H 0.68008 0.64508 0.92971 0.0
H2317 H 0.6606 0.65585 0.92526 0.0
H2318 H 0.66654 0.66296 0.91641 0.0
H2319 H 0.68605 0.65235 0.92082 0.0
C2320 C 0.5782 0.43543 0.14217 0.0
C2321 C 0.57822 0.42896 0.1457 0.0
C2322 C 0.56949 0.42432 0.13756 0.0
C2323 C 0.57392 0.42347 0.14342 0.0
C2324 C 0.5694 0.43087 0.13411 0.0
C2325 C 0.57374 0.43637 0.13639 0.0
U2326 U 0.59164 0.44168 0.15517 0.0
O2327 O 0.60158 0.44743 0.15399 0.0
O2328 O 0.59319 0.4518 0.16058 0.0
C2329 C 0.59943 0.45278 0.15779 0.0
C2330 C 0.58291 0.4411 0.14452 0.0
C2331 C 0.60084 0.45984 0.15493 0.0
C2332 C 0.60139 0.46816 0.14523 0.0
C2333 C 0.59968 0.46147 0.14783 0.0
C2334 C 0.6053 0.47165 0.15682 0.0
C2335 C 0.60429 0.47331 0.14969 0.0
C2336 C 0.6036 0.46498 0.1594 0.0
C2337 C 0.59587 0.42786 0.16961 0.0
C2338 C 0.60598 0.42706 0.17739 0.0
C2339 C 0.5959 0.41952 0.17925 0.0
C2340 C 0.59254 0.42259 0.17351 0.0
C2341 C 0.60269 0.42165 0.18124 0.0
C2342 C 0.60259 0.43015 0.17162 0.0
C2343 C 0.5923 0.43056 0.16331 0.0
O2344 O 0.58125 0.44393 0.15059 0.0
O2345 O 0.58964 0.4397 0.14396 0.0
O2346 O 0.59617 0.43136 0.15765 0.0
O2347 O 0.58779 0.43568 0.16429 0.0
H2348 H 0.5816 0.42815 0.1502 0.0
H2349 H 0.57404 0.41855 0.14628 0.0
H2350 H 0.56609 0.43168 0.12955 0.0
H2351 H 0.57365 0.44133 0.1336 0.0
H2352 H 0.60058 0.46923 0.1397 0.0
H2353 H 0.59755 0.45757 0.14428 0.0
H2354 H 0.60738 0.47551 0.16044 0.0
H2355 H 0.60451 0.46383 0.1649 0.0
H2356 H 0.61118 0.42887 0.17881 0.0
H2357 H 0.59325 0.41529 0.18199 0.0
H2358 H 0.58737 0.42073 0.17202 0.0
H2359 H 0.60524 0.43423 0.16868 0.0
C2360 C 0.82035 0.32836 0.39413 0.0
C2361 C 0.82624 0.32758 0.39848 0.0
C2362 C 0.83151 0.31942 0.39014 0.0
C2363 C 0.83175 0.32315 0.39653 0.0
C2364 C 0.82553 0.32012 0.38584 0.0
C2365 C 0.82 0.32458 0.38782 0.0
U2366 U 0.81419 0.34228 0.40658 0.0
O2367 O 0.80886 0.35243 0.40499 0.0
O2368 O 0.80404 0.34437 0.41168 0.0
C2369 C 0.80337 0.35058 0.40874 0.0
C2370 C 0.81475 0.33331 0.39614 0.0
C2371 C 0.79645 0.35217 0.40567 0.0
C2372 C 0.78655 0.3493 0.39811 0.0
C2373 C 0.79327 0.34774 0.40072 0.0
C2374 C 0.78621 0.35978 0.40531 0.0
C2375 C 0.78291 0.35532 0.40043 0.0
C2376 C 0.7929 0.35822 0.4079 0.0
C2377 C 0.82777 0.34633 0.42129 0.0
C2378 C 0.82865 0.35656 0.4289 0.0
C2379 C 0.83599 0.34639 0.43104 0.0
C2380 C 0.83293 0.34298 0.42532 0.0
C2381 C 0.83395 0.35326 0.43287 0.0
C2382 C 0.82558 0.35312 0.42315 0.0
C2383 C 0.82511 0.3427 0.41501 0.0
O2384 O 0.81164 0.33191 0.40214 0.0
O2385 O 0.81643 0.33997 0.39547 0.0
O2386 O 0.82461 0.34647 0.40924 0.0
O2387 O 0.81978 0.33842 0.41595 0.0
H2388 H 0.82661 0.33045 0.40338 0.0
H2389 H 0.8362 0.32265 0.40003 0.0
H2390 H 0.8252 0.31737 0.38088 0.0
H2391 H 0.8155 0.32514 0.38438 0.0
H2392 H 0.78415 0.34571 0.39441 0.0
H2393 H 0.79594 0.34304 0.39893 0.0
H2394 H 0.78364 0.36452 0.40712 0.0
H2395 H 0.79529 0.36172 0.4117 0.0
H2396 H 0.82691 0.36182 0.4302 0.0
H2397 H 0.84014 0.34372 0.43387 0.0
H2398 H 0.83472 0.33776 0.42394 0.0
H2399 H 0.82158 0.35579 0.4201 0.0
C2400 C 0.92823 0.43592 0.86297 0.0
C2401 C 0.92909 0.43018 0.85843 0.0
C2402 C 0.93711 0.42462 0.86671 0.0
C2403 C 0.93349 0.42461 0.86026 0.0
C2404 C 0.93633 0.43044 0.87121 0.0
C2405 C 0.9319 0.43605 0.86935 0.0
U2406 U 0.91437 0.44232 0.85062 0.0
O2407 O 0.90427 0.44773 0.85223 0.0
O2408 O 0.91238 0.45251 0.84556 0.0
C2409 C 0.90616 0.45322 0.84848 0.0
C2410 C 0.92333 0.44159 0.86106 0.0
C2411 C 0.90458 0.46016 0.85152 0.0
C2412 C 0.90744 0.47007 0.85906 0.0
C2413 C 0.90898 0.46333 0.85652 0.0
C2414 C 0.89707 0.47047 0.8517 0.0
C2415 C 0.9015 0.47376 0.85662 0.0
C2416 C 0.89861 0.46375 0.84918 0.0
C2417 C 0.91026 0.42887 0.8358 0.0
C2418 C 0.90003 0.42805 0.82819 0.0
C2419 C 0.91024 0.4208 0.82594 0.0
C2420 C 0.91364 0.4238 0.8317 0.0
C2421 C 0.90337 0.42284 0.82413 0.0
C2422 C 0.90346 0.43106 0.83398 0.0
C2423 C 0.91389 0.43146 0.84212 0.0
O2424 O 0.92474 0.44478 0.85509 0.0
O2425 O 0.91665 0.43997 0.86171 0.0
O2426 O 0.9101 0.43196 0.84787 0.0
O2427 O 0.91822 0.43676 0.84122 0.0
H2428 H 0.92631 0.42999 0.85347 0.0
H2429 H 0.93405 0.42029 0.85661 0.0
H2430 H 0.93899 0.4306 0.87623 0.0
H2431 H 0.93128 0.44042 0.87294 0.0
H2432 H 0.91099 0.47246 0.8628 0.0
H2433 H 0.91362 0.46062 0.85838 0.0
H2434 H 0.89239 0.47307 0.8498 0.0
H2435 H 0.89514 0.46137 0.84534 0.0
H2436 H 0.89477 0.42978 0.82691 0.0
H2437 H 0.91293 0.41672 0.82304 0.0
H2438 H 0.91887 0.42202 0.83305 0.0
H2439 H 0.90077 0.43499 0.83709 0.0
C2440 C 0.82083 0.67667 0.11349 0.0
C2441 C 0.82786 0.67443 0.11347 0.0
C2442 C 0.83181 0.68616 0.11677 0.0
C2443 C 0.83327 0.6791 0.11514 0.0
C2444 C 0.82474 0.68836 0.1169 0.0
C2445 C 0.81931 0.68366 0.11528 0.0
U2446 U 0.81466 0.66263 0.10103 0.0
O2447 O 0.80893 0.65271 0.1026 0.0
O2448 O 0.80464 0.6608 0.09558 0.0
C2449 C 0.80365 0.65467 0.0986 0.0
C2450 C 0.81515 0.67187 0.11123 0.0
C2451 C 0.79657 0.65333 0.10142 0.0
C2452 C 0.78655 0.6565 0.10868 0.0
C2453 C 0.79336 0.65789 0.10623 0.0
C2454 C 0.78616 0.64595 0.10158 0.0
C2455 C 0.78284 0.65053 0.10634 0.0
C2456 C 0.79294 0.64734 0.09915 0.0
C2457 C 0.82858 0.65761 0.08703 0.0
C2458 C 0.82881 0.64728 0.07951 0.0
C2459 C 0.83719 0.65668 0.07768 0.0
C2460 C 0.83422 0.66041 0.08325 0.0
C2461 C 0.83456 0.65005 0.07576 0.0
C2462 C 0.82583 0.65104 0.0851 0.0
C2463 C 0.8259 0.66156 0.0931 0.0
O2464 O 0.81242 0.67327 0.10504 0.0
O2465 O 0.81636 0.66513 0.11218 0.0
O2466 O 0.82503 0.658 0.09895 0.0
O2467 O 0.8208 0.66602 0.09182 0.0
H2468 H 0.8292 0.66908 0.11207 0.0
H2469 H 0.83861 0.67716 0.11512 0.0
H2470 H 0.82342 0.69377 0.11805 0.0
H2471 H 0.81394 0.68552 0.11527 0.0
H2472 H 0.78414 0.66017 0.1123 0.0
H2473 H 0.7961 0.66254 0.10805 0.0
H2474 H 0.78354 0.64124 0.09977 0.0
H2475 H 0.79535 0.64374 0.09546 0.0
H2476 H 0.82662 0.64221 0.07813 0.0
H2477 H 0.84168 0.65892 0.07501 0.0
H2478 H 0.83643 0.66546 0.08469 0.0
H2479 H 0.82145 0.6488 0.08796 0.0
C2480 C 0.57672 0.56963 0.36307 0.0
C2481 C 0.57515 0.5753 0.35862 0.0
C2482 C 0.56737 0.58029 0.36746 0.0
C2483 C 0.57051 0.58055 0.36078 0.0
C2484 C 0.56893 0.57458 0.3719 0.0
C2485 C 0.57356 0.56929 0.36971 0.0
U2486 U 0.5916 0.56454 0.35113 0.0
O2487 O 0.60161 0.55913 0.35307 0.0
O2488 O 0.59412 0.55476 0.34547 0.0
C2489 C 0.60007 0.55388 0.34886 0.0
C2490 C 0.58189 0.56429 0.3609 0.0
C2491 C 0.60142 0.54676 0.35159 0.0
C2492 C 0.60144 0.53814 0.36104 0.0
C2493 C 0.59979 0.54487 0.35854 0.0
C2494 C 0.60622 0.53509 0.34965 0.0
C2495 C 0.60473 0.53317 0.35664 0.0
C2496 C 0.60459 0.5418 0.34717 0.0
C2497 C 0.59676 0.57928 0.33799 0.0
C2498 C 0.60639 0.57915 0.3296 0.0
C2499 C 0.59915 0.58955 0.33084 0.0
C2500 C 0.59514 0.58616 0.33594 0.0
C2501 C 0.60488 0.58613 0.32766 0.0
C2502 C 0.60236 0.57575 0.33476 0.0
C2503 C 0.5926 0.5761 0.34366 0.0
O2504 O 0.58095 0.56166 0.35458 0.0
O2505 O 0.58847 0.56595 0.36218 0.0
O2506 O 0.59588 0.57516 0.34965 0.0
O2507 O 0.58851 0.57082 0.34192 0.0
H2508 H 0.57761 0.5757 0.3535 0.0
H2509 H 0.56952 0.58493 0.35727 0.0
H2510 H 0.56657 0.5742 0.37706 0.0
H2511 H 0.57474 0.56498 0.37324 0.0
H2512 H 0.60026 0.53687 0.36646 0.0
H2513 H 0.59734 0.54862 0.36204 0.0
H2514 H 0.60862 0.53138 0.34607 0.0
H2515 H 0.60585 0.54315 0.34179 0.0
H2516 H 0.61078 0.5764 0.32726 0.0
H2517 H 0.59777 0.59487 0.32938 0.0
H2518 H 0.59081 0.58895 0.33836 0.0
H2519 H 0.60368 0.57043 0.33629 0.0
C2520 C 0.68585 0.32844 0.61227 0.0
C2521 C 0.67958 0.32809 0.60842 0.0
C2522 C 0.67474 0.31969 0.61678 0.0
C2523 C 0.67409 0.32376 0.61065 0.0
C2524 C 0.6811 0.31995 0.62056 0.0
C2525 C 0.68661 0.32431 0.61832 0.0
U2526 U 0.6919 0.34235 0.59968 0.0
O2527 O 0.69745 0.35238 0.60124 0.0
O2528 O 0.70197 0.34431 0.59436 0.0
C2529 C 0.70282 0.35049 0.59734 0.0
C2530 C 0.69146 0.33328 0.61004 0.0
C2531 C 0.70983 0.35195 0.60025 0.0
C2532 C 0.71961 0.3492 0.608 0.0
C2533 C 0.71285 0.34772 0.60548 0.0
C2534 C 0.72035 0.35918 0.60014 0.0
C2535 C 0.72347 0.35493 0.60532 0.0
C2536 C 0.71361 0.3577 0.59764 0.0
C2537 C 0.67817 0.34708 0.58541 0.0
C2538 C 0.67813 0.35732 0.57777 0.0
C2539 C 0.66949 0.34812 0.57614 0.0
C2540 C 0.67243 0.34437 0.58171 0.0
C2541 C 0.67225 0.35467 0.57412 0.0
C2542 C 0.68107 0.35354 0.58337 0.0
C2543 C 0.68078 0.34317 0.59154 0.0
O2544 O 0.6943 0.33186 0.60391 0.0
O2545 O 0.68996 0.33998 0.61082 0.0
O2546 O 0.6815 0.34678 0.59738 0.0
O2547 O 0.68598 0.33879 0.59039 0.0
H2548 H 0.67891 0.33123 0.60372 0.0
H2549 H 0.66932 0.32361 0.60755 0.0
H2550 H 0.68176 0.31693 0.62533 0.0
H2551 H 0.69141 0.32453 0.62137 0.0
H2552 H 0.72187 0.34578 0.61194 0.0
H2553 H 0.71 0.34326 0.60756 0.0
H2554 H 0.72309 0.3637 0.59805 0.0
H2555 H 0.71135 0.36104 0.59362 0.0
H2556 H 0.68042 0.36232 0.57632 0.0
H2557 H 0.6649 0.34597 0.57355 0.0
H2558 H 0.6701 0.3394 0.58324 0.0
H2559 H 0.68553 0.35571 0.58617 0.0
C2560 C 0.64301 0.92959 0.56918 0.0
C2561 C 0.64756 0.93147 0.57467 0.0
C2562 C 0.63857 0.93906 0.57972 0.0
C2563 C 0.64538 0.93618 0.57986 0.0
C2564 C 0.63404 0.93718 0.57418 0.0
C2565 C 0.63624 0.9325 0.56895 0.0
U2566 U 0.65472 0.9144 0.56435 0.0
O2567 O 0.65262 0.90444 0.55889 0.0
O2568 O 0.66049 0.91175 0.55467 0.0
C2569 C 0.65694 0.90591 0.5537 0.0
C2570 C 0.64518 0.92434 0.56392 0.0
C2571 C 0.65424 0.90472 0.54653 0.0
C2572 C 0.64486 0.90502 0.53785 0.0
C2573 C 0.64733 0.90645 0.54464 0.0
C2574 C 0.65623 0.90024 0.53475 0.0
C2575 C 0.64929 0.90187 0.53282 0.0
C2576 C 0.65867 0.90164 0.54153 0.0
C2577 C 0.66745 0.90893 0.57935 0.0
C2578 C 0.67616 0.89958 0.57914 0.0
C2579 C 0.674 0.90604 0.58989 0.0
C2580 C 0.66898 0.91011 0.58645 0.0
C2581 C 0.6776 0.90067 0.58631 0.0
C2582 C 0.67109 0.90367 0.57568 0.0
C2583 C 0.66194 0.91321 0.57606 0.0
O2584 O 0.65157 0.92512 0.56141 0.0
O2585 O 0.64372 0.9178 0.56557 0.0
O2586 O 0.65589 0.91007 0.575 0.0
O2587 O 0.66388 0.91726 0.57081 0.0
H2588 H 0.65277 0.92921 0.575 0.0
H2589 H 0.64896 0.93741 0.5841 0.0
H2590 H 0.62878 0.93934 0.5739 0.0
H2591 H 0.63264 0.93108 0.56478 0.0
H2592 H 0.63952 0.90642 0.53651 0.0
H2593 H 0.64383 0.90887 0.54842 0.0
H2594 H 0.65975 0.89773 0.53105 0.0
H2595 H 0.66401 0.90025 0.54289 0.0
H2596 H 0.67883 0.89547 0.57625 0.0
H2597 H 0.67507 0.90711 0.59538 0.0
H2598 H 0.66624 0.91417 0.58935 0.0
H2599 H 0.66995 0.90269 0.57019 0.0
C2600 C 0.14221 0.57764 0.43589 0.0
C2601 C 0.14673 0.57598 0.43031 0.0
C2602 C 0.13785 0.56831 0.42519 0.0
C2603 C 0.14458 0.57136 0.42503 0.0
C2604 C 0.13334 0.56997 0.43082 0.0
C2605 C 0.13551 0.57459 0.43613 0.0
U2606 U 0.15496 0.59158 0.44166 0.0
O2607 O 0.15345 0.60182 0.44684 0.0
O2608 O 0.1601 0.59378 0.45176 0.0
C2609 C 0.15717 0.6 0.45237 0.0
C2610 C 0.14441 0.58273 0.44129 0.0
C2611 C 0.15408 0.60168 0.45927 0.0
C2612 C 0.14744 0.59845 0.46971 0.0
C2613 C 0.14997 0.59681 0.46298 0.0
C2614 C 0.15298 0.60988 0.46899 0.0
C2615 C 0.14898 0.60498 0.47283 0.0
C2616 C 0.15551 0.60823 0.4623 0.0
C2617 C 0.1697 0.59536 0.42809 0.0
C2618 C 0.17753 0.60544 0.42752 0.0
C2619 C 0.17935 0.5955 0.41978 0.0
C2620 C 0.17358 0.59211 0.42277 0.0
C2621 C 0.18138 0.60224 0.42206 0.0
C2622 C 0.17174 0.60202 0.43052 0.0
C2623 C 0.16339 0.59177 0.43073 0.0
O2624 O 0.15041 0.58131 0.4444 0.0
O2625 O 0.14383 0.58935 0.43944 0.0
O2626 O 0.15765 0.59558 0.43117 0.0
O2627 O 0.16429 0.58755 0.43612 0.0
H2628 H 0.1519 0.57835 0.43 0.0
H2629 H 0.14815 0.5703 0.42072 0.0
H2630 H 0.12815 0.56768 0.43113 0.0
H2631 H 0.13194 0.57582 0.44038 0.0
H2632 H 0.14443 0.59453 0.47252 0.0
H2633 H 0.1488 0.59172 0.46073 0.0
H2634 H 0.15417 0.615 0.47116 0.0
H2635 H 0.15865 0.61207 0.4595 0.0
H2636 H 0.17898 0.61059 0.42944 0.0
H2637 H 0.18208 0.59292 0.41551 0.0
H2638 H 0.17206 0.58699 0.4208 0.0
H2639 H 0.1688 0.6046 0.43465 0.0
C2640 C 0.67868 0.89231 0.68636 0.0
C2641 C 0.68008 0.89663 0.68056 0.0
C2642 C 0.68794 0.88779 0.67567 0.0
C2643 C 0.68466 0.89441 0.67528 0.0
C2644 C 0.68653 0.88347 0.68152 0.0
C2645 C 0.68194 0.88573 0.68682 0.0
U2646 U 0.66473 0.9051 0.6919 0.0
O2647 O 0.65464 0.90378 0.69736 0.0
O2648 O 0.66273 0.91067 0.70184 0.0
C2649 C 0.65655 0.90771 0.70271 0.0
C2650 C 0.67367 0.89463 0.69179 0.0
C2651 C 0.65511 0.90487 0.70977 0.0
C2652 C 0.65493 0.8953 0.71824 0.0
C2653 C 0.65652 0.89785 0.71151 0.0
C2654 C 0.65058 0.90678 0.72155 0.0
C2655 C 0.65193 0.89974 0.72335 0.0
C2656 C 0.65214 0.90931 0.71484 0.0
C2657 C 0.66082 0.91917 0.67751 0.0
C2658 C 0.65055 0.92655 0.67564 0.0
C2659 C 0.661 0.92827 0.66859 0.0
C2660 C 0.66436 0.92288 0.67224 0.0
C2661 C 0.65401 0.93007 0.67013 0.0
C2662 C 0.65392 0.92111 0.67929 0.0
C2663 C 0.66434 0.91302 0.68061 0.0
O2664 O 0.67508 0.90076 0.69464 0.0
O2665 O 0.66702 0.89391 0.69009 0.0
O2666 O 0.66052 0.90732 0.68139 0.0
O2667 O 0.6686 0.91422 0.6859 0.0
H2668 H 0.67755 0.90171 0.68007 0.0
H2669 H 0.68552 0.89781 0.6708 0.0
H2670 H 0.689 0.87837 0.68201 0.0
H2671 H 0.68091 0.88231 0.69126 0.0
H2672 H 0.65611 0.88987 0.71947 0.0
H2673 H 0.65884 0.89434 0.70768 0.0
H2674 H 0.64818 0.91032 0.7253 0.0
H2675 H 0.65099 0.91474 0.71359 0.0
H2676 H 0.64516 0.92782 0.67693 0.0
H2677 H 0.66385 0.93096 0.66446 0.0
H2678 H 0.66968 0.92147 0.6708 0.0
H2679 H 0.6511 0.9183 0.68336 0.0
C2680 C 0.36387 0.42706 0.93497 0.0
C2681 C 0.36346 0.42484 0.92794 0.0
C2682 C 0.36726 0.43639 0.92388 0.0
C2683 C 0.36518 0.42943 0.92248 0.0
C2684 C 0.36778 0.43856 0.93094 0.0
C2685 C 0.3661 0.43394 0.93642 0.0
U2686 U 0.35103 0.41363 0.94183 0.0
O2687 O 0.35237 0.40383 0.94782 0.0
O2688 O 0.34591 0.41235 0.95213 0.0
C2689 C 0.34884 0.40619 0.95327 0.0
C2690 C 0.36159 0.42239 0.94074 0.0
C2691 C 0.35196 0.40505 0.96033 0.0
C2692 C 0.36054 0.39938 0.96799 0.0
C2693 C 0.35807 0.40099 0.96124 0.0
C2694 C 0.35092 0.40596 0.97306 0.0
C2695 C 0.35695 0.40178 0.97399 0.0
C2696 C 0.34845 0.40754 0.96632 0.0
C2697 C 0.33616 0.40911 0.92851 0.0
C2698 C 0.3287 0.39879 0.9274 0.0
C2699 C 0.32594 0.40936 0.92089 0.0
C2700 C 0.33177 0.4127 0.92383 0.0
C2701 C 0.32436 0.40234 0.92257 0.0
C2702 C 0.33456 0.40215 0.93036 0.0
C2703 C 0.34256 0.41269 0.93097 0.0
O2704 O 0.35559 0.42411 0.94369 0.0
O2705 O 0.36218 0.41561 0.93956 0.0
O2706 O 0.34824 0.40882 0.93171 0.0
O2707 O 0.34174 0.41733 0.93601 0.0
H2708 H 0.36171 0.41959 0.92665 0.0
H2709 H 0.36485 0.42751 0.91713 0.0
H2710 H 0.36927 0.44389 0.93223 0.0
H2711 H 0.3664 0.43578 0.9418 0.0
H2712 H 0.36514 0.39608 0.96849 0.0
H2713 H 0.36087 0.3989 0.95675 0.0
H2714 H 0.34808 0.40799 0.97754 0.0
H2715 H 0.34369 0.41062 0.9658 0.0
H2716 H 0.3276 0.3934 0.92885 0.0
H2717 H 0.32282 0.41223 0.9171 0.0
H2718 H 0.33294 0.41805 0.9223 0.0
H2719 H 0.33788 0.39928 0.93398 0.0
C2720 C 0.32734 0.61329 0.68578 0.0
C2721 C 0.326 0.60907 0.67989 0.0
C2722 C 0.31782 0.61779 0.67531 0.0
C2723 C 0.32128 0.61128 0.67471 0.0
C2724 C 0.31914 0.62198 0.68126 0.0
C2725 C 0.32386 0.61974 0.68645 0.0
U2726 U 0.34175 0.60084 0.69129 0.0
O2727 O 0.35196 0.60274 0.69645 0.0
O2728 O 0.3442 0.59576 0.70137 0.0
C2729 C 0.35028 0.59898 0.70199 0.0
C2730 C 0.33253 0.61109 0.69107 0.0
C2731 C 0.35181 0.60218 0.70889 0.0
C2732 C 0.34808 0.60785 0.71972 0.0
C2733 C 0.34652 0.60525 0.71301 0.0
C2734 C 0.36027 0.60455 0.71817 0.0
C2735 C 0.35497 0.60748 0.72241 0.0
C2736 C 0.35869 0.60192 0.7115 0.0
C2737 C 0.34618 0.5863 0.67775 0.0
C2738 C 0.35671 0.57911 0.67712 0.0
C2739 C 0.34679 0.57654 0.66957 0.0
C2740 C 0.34309 0.58213 0.67254 0.0
C2741 C 0.35368 0.57499 0.67176 0.0
C2742 C 0.35298 0.58471 0.6801 0.0
C2743 C 0.34227 0.59245 0.68035 0.0
O2744 O 0.33132 0.60498 0.69405 0.0
O2745 O 0.33912 0.61189 0.68917 0.0
O2746 O 0.34581 0.59836 0.68078 0.0
O2747 O 0.3381 0.59137 0.68573 0.0
H2748 H 0.32869 0.60409 0.67925 0.0
H2749 H 0.32049 0.60797 0.67016 0.0
H2750 H 0.31652 0.62698 0.68191 0.0
H2751 H 0.32483 0.62308 0.69095 0.0
H2752 H 0.3439 0.61016 0.7228 0.0
H2753 H 0.34118 0.60555 0.71109 0.0
H2754 H 0.3656 0.6041 0.7201 0.0
H2755 H 0.36285 0.59956 0.7084 0.0
H2756 H 0.36198 0.57802 0.67897 0.0
H2757 H 0.34433 0.57358 0.66538 0.0
H2758 H 0.33786 0.5833 0.67064 0.0
H2759 H 0.35544 0.58787 0.68415 0.0
C2760 C 0.86319 0.07778 0.07055 0.0
C2761 C 0.85952 0.07761 0.07694 0.0
C2762 C 0.86777 0.06902 0.08162 0.0
C2763 C 0.86178 0.07328 0.08241 0.0
C2764 C 0.87135 0.06909 0.07515 0.0
C2765 C 0.86909 0.07346 0.06966 0.0
U2766 U 0.85029 0.09135 0.06437 0.0
O2767 O 0.8517 0.10152 0.059 0.0
O2768 O 0.84519 0.0933 0.05419 0.0
C2769 C 0.84808 0.09953 0.05346 0.0
C2770 C 0.86094 0.08262 0.06495 0.0
C2771 C 0.85128 0.10108 0.04657 0.0
C2772 C 0.85744 0.09747 0.03597 0.0
C2773 C 0.85478 0.0959 0.04265 0.0
C2774 C 0.85328 0.10944 0.03712 0.0
C2775 C 0.85669 0.10426 0.0331 0.0
C2776 C 0.8506 0.10785 0.04378 0.0
C2777 C 0.83555 0.09512 0.07811 0.0
C2778 C 0.82855 0.10553 0.08059 0.0
C2779 C 0.82553 0.09439 0.08595 0.0
C2780 C 0.8311 0.09118 0.08244 0.0
C2781 C 0.82429 0.10163 0.08522 0.0
C2782 C 0.83416 0.1023 0.07708 0.0
C2783 C 0.84189 0.09168 0.0753 0.0
O2784 O 0.85493 0.08103 0.06195 0.0
O2785 O 0.86145 0.08931 0.06655 0.0
O2786 O 0.84758 0.09554 0.07477 0.0
O2787 O 0.84099 0.08736 0.06999 0.0
H2788 H 0.85493 0.08089 0.07771 0.0
H2789 H 0.85883 0.07327 0.08728 0.0
H2790 H 0.876 0.06591 0.07439 0.0
H2791 H 0.87199 0.07353 0.06477 0.0
H2792 H 0.86011 0.09339 0.03305 0.0
H2793 H 0.85541 0.09064 0.04473 0.0
H2794 H 0.85253 0.11468 0.03506 0.0
H2795 H 0.8479 0.11192 0.04671 0.0
H2796 H 0.82773 0.11112 0.07994 0.0
H2797 H 0.82228 0.09122 0.08938 0.0
H2798 H 0.83208 0.08564 0.08329 0.0
H2799 H 0.83753 0.10545 0.07374 0.0
C2800 C 0.67804 0.11274 0.81975 0.0
C2801 C 0.6793 0.10849 0.82564 0.0
C2802 C 0.6874 0.11721 0.83037 0.0
C2803 C 0.68395 0.11069 0.83088 0.0
C2804 C 0.68613 0.12144 0.82444 0.0
C2805 C 0.68149 0.11922 0.81917 0.0
U2806 U 0.66375 0.10025 0.81409 0.0
O2807 O 0.65374 0.10193 0.80858 0.0
O2808 O 0.66167 0.09488 0.80405 0.0
C2809 C 0.65557 0.098 0.8032 0.0
C2810 C 0.67298 0.11049 0.81434 0.0
C2811 C 0.65417 0.10092 0.79616 0.0
C2812 C 0.65396 0.11061 0.78781 0.0
C2813 C 0.65561 0.10796 0.79449 0.0
C2814 C 0.64954 0.09918 0.78439 0.0
C2815 C 0.65085 0.10626 0.78269 0.0
C2816 C 0.65117 0.09656 0.79105 0.0
C2817 C 0.65897 0.08609 0.8279 0.0
C2818 C 0.64866 0.07855 0.82801 0.0
C2819 C 0.65789 0.07683 0.8366 0.0
C2820 C 0.66167 0.08237 0.83364 0.0
C2821 C 0.65131 0.07488 0.83388 0.0
C2822 C 0.65247 0.0841 0.82504 0.0
C2823 C 0.66293 0.09217 0.82524 0.0
O2824 O 0.67426 0.10433 0.8115 0.0
O2825 O 0.66635 0.11136 0.81601 0.0
O2826 O 0.65939 0.09805 0.82454 0.0
O2827 O 0.66726 0.09095 0.82001 0.0
H2828 H 0.67664 0.10349 0.82621 0.0
H2829 H 0.68471 0.10735 0.83542 0.0
H2830 H 0.68874 0.12646 0.82386 0.0
H2831 H 0.68057 0.12258 0.81467 0.0
H2832 H 0.65499 0.11609 0.78671 0.0
H2833 H 0.65793 0.11142 0.79837 0.0
H2834 H 0.64729 0.09564 0.78055 0.0
H2835 H 0.65006 0.0911 0.79222 0.0
H2836 H 0.64364 0.07714 0.82575 0.0
H2837 H 0.66004 0.07423 0.84118 0.0
H2838 H 0.66667 0.08385 0.83593 0.0
H2839 H 0.65031 0.08691 0.82058 0.0
C2840 C 0.82597 0.89431 0.31976 0.0
C2841 C 0.8252 0.89888 0.32549 0.0
C2842 C 0.81716 0.89069 0.33115 0.0
C2843 C 0.82083 0.89711 0.3311 0.0
C2844 C 0.81783 0.88618 0.32532 0.0
C2845 C 0.82222 0.88797 0.31968 0.0
U2846 U 0.84122 0.90526 0.31393 0.0
O2847 O 0.851 0.90271 0.30833 0.0
O2848 O 0.84381 0.91063 0.30402 0.0
C2849 C 0.84949 0.90682 0.30298 0.0
C2850 C 0.831 0.89603 0.31413 0.0
C2851 C 0.8505 0.90387 0.29582 0.0
C2852 C 0.85623 0.89554 0.28794 0.0
C2853 C 0.85472 0.89789 0.29474 0.0
C2854 C 0.84929 0.90503 0.28312 0.0
C2855 C 0.8536 0.89913 0.28203 0.0
C2856 C 0.84779 0.90739 0.28992 0.0
C2857 C 0.84728 0.91819 0.32864 0.0
C2858 C 0.85657 0.92697 0.32826 0.0
C2859 C 0.85048 0.92458 0.33918 0.0
C2860 C 0.84634 0.91959 0.33579 0.0
C2861 C 0.8557 0.92828 0.3355 0.0
C2862 C 0.8524 0.92192 0.32486 0.0
C2863 C 0.84287 0.91275 0.32541 0.0
O2864 O 0.83032 0.90234 0.31141 0.0
O2865 O 0.83755 0.89441 0.31556 0.0
O2866 O 0.84584 0.9066 0.32444 0.0
O2867 O 0.83882 0.9147 0.32017 0.0
H2868 H 0.82808 0.90379 0.32567 0.0
H2869 H 0.82035 0.90077 0.33542 0.0
H2870 H 0.81513 0.88117 0.32522 0.0
H2871 H 0.82279 0.88435 0.31533 0.0
H2872 H 0.85965 0.89104 0.28731 0.0
H2873 H 0.85701 0.89512 0.29915 0.0
H2874 H 0.84709 0.90787 0.27871 0.0
H2875 H 0.8446 0.91205 0.29055 0.0
H2876 H 0.86056 0.92972 0.32529 0.0
H2877 H 0.84958 0.92555 0.34472 0.0
H2878 H 0.84238 0.91679 0.33878 0.0
H2879 H 0.8532 0.92089 0.31932 0.0
C2880 C 0.43737 0.36122 0.0766 0.0
C2881 C 0.43214 0.35645 0.07452 0.0
C2882 C 0.42675 0.36536 0.06708 0.0
C2883 C 0.42692 0.35849 0.06978 0.0
C2884 C 0.43203 0.37011 0.06914 0.0
C2885 C 0.4373 0.36805 0.07385 0.0
U2886 U 0.44201 0.34956 0.09181 0.0
O2887 O 0.45171 0.3441 0.09492 0.0
O2888 O 0.44687 0.35173 0.10208 0.0
C2889 C 0.45222 0.34754 0.10089 0.0
C2890 C 0.44255 0.3592 0.08199 0.0
C2891 C 0.45921 0.35036 0.10263 0.0
C2892 C 0.46937 0.35769 0.10008 0.0
C2893 C 0.46267 0.35518 0.09827 0.0
C2894 C 0.46915 0.35059 0.11063 0.0
C2895 C 0.47271 0.35539 0.10628 0.0
C2896 C 0.46248 0.3481 0.10882 0.0
C2897 C 0.42709 0.33641 0.09647 0.0
C2898 C 0.42694 0.32785 0.10595 0.0
C2899 C 0.41655 0.32965 0.09883 0.0
C2900 C 0.42012 0.33468 0.09488 0.0
C2901 C 0.41987 0.32623 0.10447 0.0
C2902 C 0.43052 0.33293 0.10199 0.0
C2903 C 0.43047 0.342 0.09237 0.0
O2904 O 0.44063 0.36055 0.08848 0.0
O2905 O 0.44533 0.35292 0.08126 0.0
O2906 O 0.43597 0.34022 0.0886 0.0
O2907 O 0.4312 0.34807 0.09558 0.0
H2908 H 0.43202 0.35118 0.07666 0.0
H2909 H 0.42287 0.35473 0.06841 0.0
H2910 H 0.43208 0.37544 0.06712 0.0
H2911 H 0.44126 0.37182 0.07544 0.0
H2912 H 0.47197 0.36134 0.09658 0.0
H2913 H 0.46021 0.35698 0.09346 0.0
H2914 H 0.47147 0.3488 0.11551 0.0
H2915 H 0.45988 0.3444 0.11227 0.0
H2916 H 0.42962 0.32532 0.11028 0.0
H2917 H 0.41116 0.32845 0.09747 0.0
H2918 H 0.4174 0.3373 0.09061 0.0
H2919 H 0.43591 0.33422 0.10329 0.0
C2920 C 0.39492 0.6859 0.82702 0.0
C2921 C 0.39862 0.67953 0.82688 0.0
C2922 C 0.39044 0.67479 0.81825 0.0
C2923 C 0.39641 0.67403 0.82255 0.0
C2924 C 0.38683 0.68124 0.81829 0.0
C2925 C 0.38905 0.68675 0.82267 0.0
U2926 U 0.40755 0.69198 0.84087 0.0
O2927 O 0.41274 0.70212 0.8429 0.0
O2928 O 0.40603 0.69736 0.85099 0.0
C2929 C 0.40986 0.7028 0.84914 0.0
C2930 C 0.39712 0.69151 0.83187 0.0
C2931 C 0.40694 0.70976 0.85085 0.0
C2932 C 0.39854 0.71923 0.84908 0.0
C2933 C 0.40119 0.7126 0.84722 0.0
C2934 C 0.40736 0.72019 0.85819 0.0
C2935 C 0.40161 0.72312 0.85459 0.0
C2936 C 0.40999 0.7136 0.85633 0.0
C2937 C 0.42194 0.67828 0.84536 0.0
C2938 C 0.42948 0.67796 0.85567 0.0
C2939 C 0.43129 0.66966 0.8462 0.0
C2940 C 0.42573 0.67267 0.8425 0.0
C2941 C 0.4332 0.67221 0.85287 0.0
C2942 C 0.42389 0.68098 0.85194 0.0
C2943 C 0.41578 0.68092 0.84151 0.0
O2944 O 0.39641 0.68997 0.83856 0.0
O2945 O 0.40321 0.69442 0.83042 0.0
O2946 O 0.41688 0.68619 0.8372 0.0
O2947 O 0.40995 0.68154 0.84515 0.0
H2948 H 0.40319 0.67878 0.83019 0.0
H2949 H 0.39938 0.66918 0.82257 0.0
H2950 H 0.38219 0.68197 0.81509 0.0
H2951 H 0.38612 0.69163 0.82271 0.0
H2952 H 0.39413 0.72134 0.84616 0.0
H2953 H 0.39876 0.70971 0.84296 0.0
H2954 H 0.40978 0.72294 0.86254 0.0
H2955 H 0.41441 0.71147 0.85922 0.0
H2956 H 0.43085 0.68009 0.86076 0.0
H2957 H 0.43394 0.66517 0.84393 0.0
H2958 H 0.42427 0.6705 0.83744 0.0
H2959 H 0.42103 0.68533 0.85423 0.0
C2960 C 0.06918 0.64429 0.57666 0.0
C2961 C 0.07441 0.64908 0.57466 0.0
C2962 C 0.07982 0.64025 0.56713 0.0
C2963 C 0.07966 0.64709 0.56992 0.0
C2964 C 0.07454 0.63547 0.56913 0.0
C2965 C 0.06926 0.63749 0.57385 0.0
U2966 U 0.06348 0.65641 0.59126 0.0
O2967 O 0.05328 0.66112 0.59396 0.0
O2968 O 0.05863 0.65429 0.60156 0.0
C2969 C 0.0529 0.65781 0.60001 0.0
C2970 C 0.06388 0.64626 0.58195 0.0
C2971 C 0.04615 0.65435 0.60178 0.0
C2972 C 0.03426 0.65065 0.59878 0.0
C2973 C 0.04078 0.65345 0.59678 0.0
C2974 C 0.03842 0.64948 0.61073 0.0
C2975 C 0.03299 0.64868 0.60579 0.0
C2976 C 0.04491 0.6523 0.60875 0.0
C2977 C 0.07685 0.67119 0.59556 0.0
C2978 C 0.07726 0.67856 0.60599 0.0
C2979 C 0.08543 0.68058 0.59645 0.0
C2980 C 0.0824 0.67506 0.59269 0.0
C2981 C 0.08296 0.68236 0.60318 0.0
C2982 C 0.07423 0.67301 0.60221 0.0
C2983 C 0.07422 0.66506 0.59166 0.0
O2984 O 0.06589 0.64544 0.5885 0.0
O2985 O 0.06067 0.65227 0.58084 0.0
O2986 O 0.0687 0.6661 0.58765 0.0
O2987 O 0.074 0.65911 0.59513 0.0
H2988 H 0.07449 0.65434 0.57684 0.0
H2989 H 0.08371 0.65087 0.56859 0.0
H2990 H 0.07448 0.63018 0.56704 0.0
H2991 H 0.06529 0.6337 0.57536 0.0
H2992 H 0.03021 0.65004 0.59483 0.0
H2993 H 0.04156 0.65497 0.59136 0.0
H2994 H 0.0376 0.64812 0.61619 0.0
H2995 H 0.04893 0.65301 0.61271 0.0
H2996 H 0.07519 0.67983 0.61113 0.0
H2997 H 0.08988 0.68328 0.59416 0.0
H2998 H 0.08452 0.67369 0.58758 0.0
H2999 H 0.06993 0.67008 0.60451 0.0
C3000 C 0.11142 0.31993 0.32651 0.0
C3001 C 0.10701 0.32577 0.32564 0.0
C3002 C 0.11543 0.33112 0.31761 0.0
C3003 C 0.10898 0.33129 0.32123 0.0
C3004 C 0.11977 0.32517 0.31838 0.0
C3005 C 0.11778 0.31963 0.32282 0.0
U3006 U 0.09929 0.31395 0.3408 0.0
O3007 O 0.09427 0.30382 0.3432 0.0
O3008 O 0.10115 0.30882 0.351 0.0
C3009 C 0.09735 0.30329 0.34936 0.0
C3010 C 0.10947 0.31437 0.33154 0.0
C3011 C 0.10041 0.2964 0.35112 0.0
C3012 C 0.10751 0.28614 0.3483 0.0
C3013 C 0.10487 0.29278 0.34649 0.0
C3014 C 0.10132 0.28673 0.3594 0.0
C3015 C 0.10572 0.28301 0.35477 0.0
C3016 C 0.0987 0.29334 0.35758 0.0
C3017 C 0.08487 0.32764 0.34533 0.0
C3018 C 0.07764 0.32825 0.35584 0.0
C3019 C 0.0755 0.33623 0.34616 0.0
C3020 C 0.08097 0.33313 0.34239 0.0
C3021 C 0.07381 0.33389 0.35296 0.0
C3022 C 0.08314 0.32514 0.35204 0.0
C3023 C 0.09095 0.32494 0.3414 0.0
O3024 O 0.11034 0.31608 0.33817 0.0
O3025 O 0.1034 0.31131 0.33032 0.0
O3026 O 0.08979 0.31955 0.33724 0.0
O3027 O 0.09688 0.32446 0.3449 0.0
H3028 H 0.10208 0.3261 0.32845 0.0
H3029 H 0.10546 0.33572 0.32068 0.0
H3030 H 0.12478 0.3249 0.31572 0.0
H3031 H 0.12126 0.31518 0.32346 0.0
H3032 H 0.11084 0.28341 0.34459 0.0
H3033 H 0.10626 0.29507 0.34146 0.0
H3034 H 0.09994 0.28457 0.36448 0.0
H3035 H 0.0953 0.29606 0.36124 0.0
H3036 H 0.07644 0.32628 0.36103 0.0
H3037 H 0.07276 0.34063 0.34382 0.0
H3038 H 0.08226 0.33515 0.33723 0.0
H3039 H 0.0861 0.32088 0.35439 0.0
C3040 C 0.4364 0.64433 0.42954 0.0
C3041 C 0.43057 0.64865 0.43085 0.0
C3042 C 0.4257 0.63989 0.43882 0.0
C3043 C 0.42528 0.64646 0.43545 0.0
C3044 C 0.43158 0.6356 0.43751 0.0
C3045 C 0.43689 0.63781 0.43292 0.0
U3046 U 0.44228 0.65699 0.4155 0.0
O3047 O 0.45245 0.66214 0.41346 0.0
O3048 O 0.44767 0.6554 0.40541 0.0
C3049 C 0.45317 0.65913 0.40729 0.0
C3050 C 0.44184 0.64657 0.42452 0.0
C3051 C 0.46013 0.65605 0.40577 0.0
C3052 C 0.46797 0.64604 0.40449 0.0
C3053 C 0.46142 0.64881 0.40639 0.0
C3054 C 0.47205 0.65771 0.4015 0.0
C3055 C 0.47336 0.65045 0.40197 0.0
C3056 C 0.4655 0.66047 0.40338 0.0
C3057 C 0.42871 0.67154 0.41108 0.0
C3058 C 0.42782 0.67871 0.40054 0.0
C3059 C 0.42055 0.68133 0.41064 0.0
C3060 C 0.42361 0.67575 0.41429 0.0
C3061 C 0.42254 0.68284 0.40369 0.0
C3062 C 0.43088 0.67311 0.40421 0.0
C3063 C 0.43131 0.66534 0.4149 0.0
O3064 O 0.44012 0.64587 0.41787 0.0
O3065 O 0.44481 0.65265 0.42591 0.0
O3066 O 0.4366 0.66637 0.41921 0.0
O3067 O 0.43185 0.6595 0.41125 0.0
H3068 H 0.43007 0.65368 0.42824 0.0
H3069 H 0.42078 0.64985 0.43624 0.0
H3070 H 0.4321 0.63054 0.44006 0.0
H3071 H 0.44134 0.63441 0.43196 0.0
H3072 H 0.46883 0.64044 0.40499 0.0
H3073 H 0.45735 0.64531 0.40826 0.0
H3074 H 0.47601 0.66126 0.3995 0.0
H3075 H 0.4646 0.66606 0.40284 0.0
H3076 H 0.42952 0.67976 0.39521 0.0
H3077 H 0.41644 0.68431 0.4132 0.0
H3078 H 0.42184 0.6746 0.41958 0.0
H3079 H 0.43484 0.66993 0.40164 0.0
C3080 C 0.11132 0.68698 0.17949 0.0
C3081 C 0.10657 0.68173 0.18155 0.0
C3082 C 0.11546 0.6764 0.18906 0.0
C3083 C 0.1086 0.67652 0.18631 0.0
C3084 C 0.12019 0.68171 0.18702 0.0
C3085 C 0.11813 0.68696 0.18228 0.0
U3086 U 0.09974 0.69157 0.1642 0.0
O3087 O 0.0942 0.70124 0.1611 0.0
O3088 O 0.10194 0.69651 0.15398 0.0
C3089 C 0.09767 0.70181 0.15516 0.0
C3090 C 0.1093 0.69216 0.17409 0.0
C3091 C 0.10041 0.70884 0.15345 0.0
C3092 C 0.1082 0.71874 0.15564 0.0
C3093 C 0.10573 0.71203 0.15744 0.0
C3094 C 0.10007 0.71909 0.14586 0.0
C3095 C 0.10538 0.72236 0.14983 0.0
C3096 C 0.09762 0.71241 0.14767 0.0
C3097 C 0.08672 0.67662 0.15935 0.0
C3098 C 0.07803 0.67666 0.14998 0.0
C3099 C 0.0801 0.66606 0.15672 0.0
C3100 C 0.08514 0.66958 0.16071 0.0
C3101 C 0.07654 0.66952 0.15126 0.0
C3102 C 0.08312 0.68019 0.15399 0.0
C3103 C 0.09228 0.67998 0.16352 0.0
O3104 O 0.11072 0.69027 0.16761 0.0
O3105 O 0.10299 0.69488 0.17479 0.0
O3106 O 0.09044 0.68544 0.16732 0.0
O3107 O 0.09836 0.68077 0.16036 0.0
H3108 H 0.10131 0.68157 0.17937 0.0
H3109 H 0.10486 0.67245 0.18766 0.0
H3110 H 0.1255 0.68179 0.18907 0.0
H3111 H 0.12189 0.69093 0.18072 0.0
H3112 H 0.11225 0.72112 0.15884 0.0
H3113 H 0.10794 0.70934 0.16194 0.0
H3114 H 0.09787 0.72164 0.14128 0.0
H3115 H 0.09353 0.71002 0.1445 0.0
H3116 H 0.07539 0.67945 0.14579 0.0
H3117 H 0.079 0.66061 0.15792 0.0
H3118 H 0.08785 0.66676 0.16485 0.0
H3119 H 0.0843 0.68564 0.15286 0.0
C3120 C 0.06906 0.36145 0.93023 0.0
C3121 C 0.07457 0.35685 0.9319 0.0
C3122 C 0.07973 0.3656 0.93969 0.0
C3123 C 0.07983 0.35889 0.9366 0.0
C3124 C 0.07415 0.37018 0.93805 0.0
C3125 C 0.06886 0.36811 0.93336 0.0
U3126 U 0.06414 0.34971 0.91516 0.0
O3127 O 0.05432 0.34442 0.91213 0.0
O3128 O 0.05929 0.3519 0.90488 0.0
C3129 C 0.05387 0.3478 0.90612 0.0
C3130 C 0.06381 0.35945 0.9249 0.0
C3131 C 0.04693 0.35069 0.90429 0.0
C3132 C 0.03645 0.35751 0.90702 0.0
C3133 C 0.04313 0.355 0.90891 0.0
C3134 C 0.03738 0.35146 0.89586 0.0
C3135 C 0.03347 0.35572 0.90047 0.0
C3136 C 0.04402 0.34898 0.89776 0.0
C3137 C 0.07874 0.33628 0.91043 0.0
C3138 C 0.07842 0.3274 0.90124 0.0
C3139 C 0.0892 0.32956 0.90765 0.0
C3140 C 0.08582 0.33469 0.91163 0.0
C3141 C 0.08558 0.32591 0.90235 0.0
C3142 C 0.07502 0.33258 0.90524 0.0
C3143 C 0.07553 0.34195 0.91456 0.0
O3144 O 0.0657 0.36071 0.91838 0.0
O3145 O 0.06097 0.35321 0.92572 0.0
O3146 O 0.07003 0.34029 0.91838 0.0
O3147 O 0.0749 0.34802 0.91135 0.0
H3148 H 0.07488 0.35172 0.92946 0.0
H3149 H 0.0841 0.35528 0.93765 0.0
H3150 H 0.07389 0.37537 0.94037 0.0
H3151 H 0.06467 0.37176 0.9321 0.0
H3152 H 0.03359 0.36073 0.91071 0.0
H3153 H 0.0453 0.35639 0.91399 0.0
H3154 H 0.03533 0.3501 0.89073 0.0
H3155 H 0.04688 0.34569 0.89411 0.0
H3156 H 0.0755 0.32469 0.89718 0.0
H3157 H 0.09468 0.32846 0.90872 0.0
H3158 H 0.08876 0.33747 0.91563 0.0
H3159 H 0.06955 0.33376 0.90424 0.0
C3160 C 0.39368 0.31949 0.67845 0.0
C3161 C 0.39837 0.32489 0.68024 0.0
C3162 C 0.38956 0.33021 0.68785 0.0
C3163 C 0.39634 0.33018 0.6849 0.0
C3164 C 0.38489 0.32475 0.68607 0.0
C3165 C 0.38695 0.31943 0.68142 0.0
U3166 U 0.40632 0.3135 0.66447 0.0
O3167 O 0.41094 0.30321 0.66199 0.0
O3168 O 0.40463 0.30871 0.65406 0.0
C3169 C 0.40796 0.30291 0.65577 0.0
C3170 C 0.39573 0.31412 0.67326 0.0
C3171 C 0.40447 0.29623 0.65382 0.0
C3172 C 0.39984 0.28466 0.65675 0.0
C3173 C 0.40266 0.29113 0.65885 0.0
C3174 C 0.40044 0.28835 0.6446 0.0
C3175 C 0.39874 0.28317 0.64959 0.0
C3176 C 0.40329 0.29479 0.64669 0.0
C3177 C 0.42162 0.32673 0.66119 0.0
C3178 C 0.42848 0.32956 0.65078 0.0
C3179 C 0.432 0.33408 0.66214 0.0
C3180 C 0.42636 0.33061 0.66527 0.0
C3181 C 0.43303 0.33375 0.65483 0.0
C3182 C 0.4228 0.32609 0.65393 0.0
C3183 C 0.41521 0.32405 0.6646 0.0
O3184 O 0.39529 0.31614 0.66668 0.0
O3185 O 0.40159 0.31075 0.67466 0.0
O3186 O 0.41591 0.31849 0.66864 0.0
O3187 O 0.40945 0.32397 0.6608 0.0
H3188 H 0.40357 0.32506 0.67794 0.0
H3189 H 0.40002 0.33436 0.68605 0.0
H3190 H 0.37966 0.32458 0.68829 0.0
H3191 H 0.38325 0.31531 0.68008 0.0
H3192 H 0.39852 0.28082 0.66073 0.0
H3193 H 0.4035 0.2921 0.66439 0.0
H3194 H 0.39975 0.28736 0.63904 0.0
H3195 H 0.40469 0.29861 0.64272 0.0
H3196 H 0.42912 0.32923 0.64513 0.0
H3197 H 0.43547 0.33717 0.66542 0.0
H3198 H 0.42555 0.33117 0.67088 0.0
H3199 H 0.4192 0.32311 0.65068 0.0
C3200 C 0.07714 0.4366 0.36187 0.0
C3201 C 0.07537 0.43116 0.35723 0.0
C3202 C 0.06771 0.42593 0.36607 0.0
C3203 C 0.07069 0.42589 0.3593 0.0
C3204 C 0.06947 0.43144 0.37068 0.0
C3205 C 0.07414 0.43673 0.36859 0.0
U3206 U 0.09119 0.44237 0.34923 0.0
O3207 O 0.09375 0.45259 0.34449 0.0
O3208 O 0.10163 0.4471 0.3509 0.0
C3209 C 0.09997 0.45287 0.34749 0.0
C3210 C 0.08235 0.44193 0.35979 0.0
C3211 C 0.10192 0.45956 0.35092 0.0
C3212 C 0.09892 0.47081 0.35624 0.0
C3213 C 0.09686 0.46434 0.35338 0.0
C3214 C 0.11112 0.46774 0.35437 0.0
C3215 C 0.10608 0.4726 0.35674 0.0
C3216 C 0.10905 0.46131 0.35149 0.0
C3217 C 0.09443 0.42887 0.33415 0.0
C3218 C 0.10484 0.42622 0.3272 0.0
C3219 C 0.09363 0.42105 0.32411 0.0
C3220 C 0.09045 0.42462 0.32967 0.0
C3221 C 0.10089 0.42166 0.32292 0.0
C3222 C 0.10163 0.42979 0.3328 0.0
C3223 C 0.09102 0.43169 0.34049 0.0
O3224 O 0.08892 0.43988 0.36029 0.0
O3225 O 0.08101 0.44524 0.35388 0.0
O3226 O 0.08704 0.43727 0.33969 0.0
O3227 O 0.09481 0.43183 0.34626 0.0
H3228 H 0.07769 0.43092 0.35204 0.0
H3229 H 0.06955 0.42167 0.35565 0.0
H3230 H 0.06723 0.43167 0.37591 0.0
H3231 H 0.07548 0.44088 0.37225 0.0
H3232 H 0.09491 0.4744 0.35808 0.0
H3233 H 0.09132 0.46312 0.35303 0.0
H3234 H 0.11666 0.46898 0.35459 0.0
H3235 H 0.11305 0.45773 0.3496 0.0
H3236 H 0.11044 0.42678 0.32642 0.0
H3237 H 0.09043 0.41767 0.32084 0.0
H3238 H 0.08489 0.42385 0.33061 0.0
H3239 H 0.10481 0.43306 0.3362 0.0
C3240 C 0.31948 0.32725 0.11271 0.0
C3241 C 0.32514 0.32567 0.10827 0.0
C3242 C 0.32995 0.31764 0.117 0.0
C3243 C 0.33031 0.3209 0.11038 0.0
C3244 C 0.32423 0.3192 0.12142 0.0
C3245 C 0.31904 0.32396 0.11929 0.0
U3246 U 0.31401 0.34145 0.10009 0.0
O3247 O 0.30387 0.34409 0.09521 0.0
O3248 O 0.30928 0.35189 0.10177 0.0
C3249 C 0.30355 0.35028 0.09827 0.0
C3250 C 0.31423 0.33251 0.11059 0.0
C3251 C 0.29681 0.35224 0.10161 0.0
C3252 C 0.28508 0.34937 0.10587 0.0
C3253 C 0.29159 0.34725 0.10316 0.0
C3254 C 0.28896 0.36148 0.10568 0.0
C3255 C 0.28367 0.35653 0.10712 0.0
C3256 C 0.29544 0.35936 0.10294 0.0
C3257 C 0.32764 0.34478 0.08522 0.0
C3258 C 0.32882 0.35487 0.07748 0.0
C3259 C 0.33609 0.34459 0.07568 0.0
C3260 C 0.33285 0.3413 0.08137 0.0
C3261 C 0.33417 0.35144 0.07368 0.0
C3262 C 0.32557 0.35156 0.08321 0.0
C3263 C 0.32482 0.34129 0.09151 0.0
O3264 O 0.31631 0.33907 0.11117 0.0
O3265 O 0.31102 0.33123 0.10461 0.0
O3266 O 0.31924 0.33733 0.09062 0.0
O3267 O 0.32459 0.34507 0.09729 0.0
H3268 H 0.32561 0.3282 0.10319 0.0
H3269 H 0.33469 0.31992 0.10689 0.0
H3270 H 0.32376 0.31674 0.12653 0.0
H3271 H 0.31471 0.32514 0.1228 0.0
H3272 H 0.28115 0.34542 0.10699 0.0
H3273 H 0.2925 0.34171 0.10221 0.0
H3274 H 0.28804 0.36703 0.10648 0.0
H3275 H 0.29935 0.36331 0.10174 0.0
H3276 H 0.32717 0.36012 0.07604 0.0
H3277 H 0.34027 0.34182 0.07299 0.0
H3278 H 0.33455 0.33608 0.08288 0.0
H3279 H 0.32155 0.35433 0.08612 0.0
C3280 C 0.43063 0.56959 0.86008 0.0
C3281 C 0.43085 0.57584 0.85619 0.0
C3282 C 0.43925 0.58086 0.86443 0.0
C3283 C 0.43512 0.58141 0.85833 0.0
C3284 C 0.43913 0.57452 0.86824 0.0
C3285 C 0.43484 0.56893 0.86609 0.0
U3286 U 0.41589 0.56388 0.84838 0.0
O3287 O 0.41362 0.55401 0.84275 0.0
O3288 O 0.40606 0.55819 0.8504 0.0
C3289 C 0.40774 0.55296 0.84621 0.0
C3290 C 0.42576 0.56395 0.85799 0.0
C3291 C 0.40657 0.54579 0.84897 0.0
C3292 C 0.405 0.53759 0.85866 0.0
C3293 C 0.40681 0.54429 0.85619 0.0
C3294 C 0.40296 0.53375 0.84672 0.0
C3295 C 0.40294 0.53226 0.85396 0.0
C3296 C 0.40474 0.54044 0.84426 0.0
C3297 C 0.41003 0.57875 0.83559 0.0
C3298 C 0.40084 0.57838 0.82671 0.0
C3299 C 0.40678 0.58934 0.82929 0.0
C3300 C 0.41092 0.58592 0.83428 0.0
C3301 C 0.40164 0.58564 0.8255 0.0
C3302 C 0.40499 0.57496 0.83176 0.0
C3303 C 0.41436 0.57551 0.84109 0.0
O3304 O 0.41913 0.56524 0.85939 0.0
O3305 O 0.42672 0.56145 0.85163 0.0
O3306 O 0.41853 0.57036 0.83916 0.0
O3307 O 0.41123 0.57438 0.84713 0.0
H3308 H 0.42764 0.57645 0.85153 0.0
H3309 H 0.43516 0.58616 0.85521 0.0
H3310 H 0.4422 0.57394 0.873 0.0
H3311 H 0.43471 0.56415 0.86917 0.0
H3312 H 0.405 0.53667 0.86427 0.0
H3313 H 0.40822 0.54834 0.85994 0.0
H3314 H 0.40153 0.52975 0.84293 0.0
H3315 H 0.40454 0.54147 0.83867 0.0
H3316 H 0.3969 0.5754 0.82389 0.0
H3317 H 0.40763 0.59489 0.8284 0.0
H3318 H 0.4148 0.58892 0.83717 0.0
H3319 H 0.40424 0.5694 0.83272 0.0
C3320 C 0.18556 0.67794 0.61149 0.0
C3321 C 0.1794 0.67832 0.60748 0.0
C3322 C 0.17437 0.68671 0.61573 0.0
C3323 C 0.17386 0.68266 0.60957 0.0
C3324 C 0.18062 0.68642 0.61967 0.0
C3325 C 0.18617 0.68205 0.61757 0.0
U3326 U 0.19182 0.66434 0.59874 0.0
O3327 O 0.202 0.66239 0.59365 0.0
O3328 O 0.19713 0.65416 0.6001 0.0
C3329 C 0.20263 0.65608 0.5964 0.0
C3330 C 0.19121 0.6731 0.60937 0.0
C3331 C 0.20954 0.65431 0.5994 0.0
C3332 C 0.21908 0.65624 0.60768 0.0
C3333 C 0.21246 0.65808 0.60502 0.0
C3334 C 0.21988 0.64685 0.59915 0.0
C3335 C 0.22289 0.65061 0.60475 0.0
C3336 C 0.21329 0.64869 0.5965 0.0
C3337 C 0.1782 0.66052 0.584 0.0
C3338 C 0.17718 0.65036 0.57633 0.0
C3339 C 0.16996 0.66063 0.57427 0.0
C3340 C 0.17308 0.66397 0.58 0.0
C3341 C 0.17191 0.65376 0.57239 0.0
C3342 C 0.18031 0.65372 0.58209 0.0
C3343 C 0.18088 0.66405 0.59033 0.0
O3344 O 0.18961 0.6664 0.6099 0.0
O3345 O 0.19429 0.67465 0.60339 0.0
O3346 O 0.18621 0.66835 0.58944 0.0
O3347 O 0.1814 0.66019 0.59603 0.0
H3348 H 0.17884 0.6752 0.60275 0.0
H3349 H 0.16918 0.68283 0.60634 0.0
H3350 H 0.18116 0.68944 0.62446 0.0
H3351 H 0.19089 0.68181 0.62074 0.0
H3352 H 0.22126 0.65928 0.61197 0.0
H3353 H 0.20963 0.66245 0.60732 0.0
H3354 H 0.22258 0.6424 0.59684 0.0
H3355 H 0.2111 0.64569 0.59218 0.0
H3356 H 0.17884 0.64509 0.57498 0.0
H3357 H 0.16584 0.66338 0.57147 0.0
H3358 H 0.17136 0.66921 0.58143 0.0
H3359 H 0.18427 0.65098 0.58511 0.0
C3360 C 0.07688 0.56939 0.14374 0.0
C3361 C 0.07548 0.57518 0.14807 0.0
C3362 C 0.06744 0.57997 0.13933 0.0
C3363 C 0.0708 0.58041 0.1459 0.0
C3364 C 0.06885 0.57413 0.13501 0.0
C3365 C 0.07353 0.56889 0.1372 0.0
U3366 U 0.09079 0.56373 0.15657 0.0
O3367 O 0.09287 0.55362 0.16183 0.0
O3368 O 0.10098 0.55846 0.15521 0.0
C3369 C 0.0991 0.55295 0.15893 0.0
C3370 C 0.08196 0.564 0.14599 0.0
C3371 C 0.10075 0.546 0.15591 0.0
C3372 C 0.10229 0.53811 0.14596 0.0
C3373 C 0.1003 0.54467 0.14867 0.0
C3374 C 0.10503 0.5341 0.15772 0.0
C3375 C 0.10473 0.53276 0.15046 0.0
C3376 C 0.10307 0.54065 0.1604 0.0
C3377 C 0.09447 0.5776 0.17113 0.0
C3378 C 0.10452 0.57868 0.17895 0.0
C3379 C 0.09433 0.58612 0.18061 0.0
C3380 C 0.09105 0.5829 0.17491 0.0
C3381 C 0.10114 0.58411 0.18268 0.0
C3382 C 0.1012 0.57544 0.17322 0.0
C3383 C 0.09098 0.57477 0.16484 0.0
O3384 O 0.08859 0.56583 0.14541 0.0
O3385 O 0.08053 0.56098 0.15203 0.0
O3386 O 0.08675 0.5694 0.16581 0.0
O3387 O 0.09484 0.57422 0.15915 0.0
H3388 H 0.07807 0.5757 0.15312 0.0
H3389 H 0.06994 0.58488 0.14932 0.0
H3390 H 0.06632 0.5736 0.12995 0.0
H3391 H 0.07456 0.56446 0.13378 0.0
H3392 H 0.1019 0.53723 0.14036 0.0
H3393 H 0.09848 0.54872 0.14511 0.0
H3394 H 0.10697 0.53016 0.16132 0.0
H3395 H 0.10349 0.54158 0.16601 0.0
H3396 H 0.10973 0.57695 0.18044 0.0
H3397 H 0.09162 0.59036 0.18325 0.0
H3398 H 0.08587 0.58467 0.17335 0.0
H3399 H 0.10392 0.57134 0.17036 0.0
C3400 C 0.18555 0.32656 0.89483 0.0
C3401 C 0.17928 0.32641 0.89868 0.0
C3402 C 0.17439 0.31771 0.89066 0.0
C3403 C 0.17376 0.32204 0.89662 0.0
C3404 C 0.18076 0.31775 0.88691 0.0
C3405 C 0.18629 0.32216 0.88897 0.0
U3406 U 0.19196 0.34074 0.90699 0.0
O3407 O 0.20227 0.34295 0.91173 0.0
O3408 O 0.19724 0.35083 0.90498 0.0
C3409 C 0.20292 0.34901 0.90847 0.0
C3410 C 0.19118 0.33148 0.89681 0.0
C3411 C 0.20974 0.35053 0.905 0.0
C3412 C 0.22192 0.34757 0.90236 0.0
C3413 C 0.21537 0.34574 0.90517 0.0
C3414 C 0.21732 0.35895 0.89906 0.0
C3415 C 0.22299 0.35422 0.8993 0.0
C3416 C 0.2108 0.35713 0.90189 0.0
C3417 C 0.17852 0.34552 0.92165 0.0
C3418 C 0.17767 0.35615 0.92869 0.0
C3419 C 0.17015 0.34621 0.93124 0.0
C3420 C 0.17326 0.34245 0.92577 0.0
C3421 C 0.17224 0.35314 0.93273 0.0
C3422 C 0.18079 0.35237 0.92319 0.0
C3423 C 0.18115 0.34159 0.91553 0.0
O3424 O 0.18958 0.33814 0.89599 0.0
O3425 O 0.19424 0.33018 0.90286 0.0
O3426 O 0.18648 0.33736 0.91662 0.0
O3427 O 0.18159 0.34509 0.90959 0.0
H3428 H 0.17862 0.32976 0.90324 0.0
H3429 H 0.16897 0.32206 0.8997 0.0
H3430 H 0.1814 0.31452 0.88227 0.0
H3431 H 0.1911 0.32221 0.88593 0.0
H3432 H 0.22615 0.34378 0.90258 0.0
H3433 H 0.21475 0.34061 0.90756 0.0
H3434 H 0.21798 0.36415 0.89685 0.0
H3435 H 0.2066 0.36097 0.90178 0.0
H3436 H 0.17946 0.36145 0.92974 0.0
H3437 H 0.16592 0.34375 0.93413 0.0
H3438 H 0.17141 0.33719 0.92462 0.0
H3439 H 0.18486 0.35483 0.92007 0.0
C3440 C 0.42961 0.43552 0.64436 0.0
C3441 C 0.43051 0.42978 0.64889 0.0
C3442 C 0.4385 0.42427 0.64055 0.0
C3443 C 0.43491 0.42422 0.64701 0.0
C3444 C 0.43771 0.43012 0.63609 0.0
C3445 C 0.43328 0.4357 0.63798 0.0
U3446 U 0.41528 0.44189 0.65632 0.0
O3447 O 0.41287 0.4522 0.66095 0.0
O3448 O 0.40511 0.44697 0.6542 0.0
C3449 C 0.40681 0.4527 0.65767 0.0
C3450 C 0.42459 0.44111 0.64619 0.0
C3451 C 0.40515 0.45947 0.65419 0.0
C3452 C 0.40803 0.47159 0.65117 0.0
C3453 C 0.40999 0.46505 0.65394 0.0
C3454 C 0.39641 0.46705 0.64871 0.0
C3455 C 0.40119 0.47268 0.64857 0.0
C3456 C 0.39836 0.46055 0.65151 0.0
C3457 C 0.41068 0.42857 0.67113 0.0
C3458 C 0.40013 0.42794 0.6783 0.0
C3459 C 0.40989 0.42012 0.68064 0.0
C3460 C 0.41366 0.42319 0.67515 0.0
C3461 C 0.40304 0.42239 0.68224 0.0
C3462 C 0.40392 0.43101 0.67278 0.0
C3463 C 0.41461 0.43117 0.665 0.0
O3464 O 0.41796 0.43938 0.64536 0.0
O3465 O 0.4258 0.44433 0.65218 0.0
O3466 O 0.41874 0.4366 0.66603 0.0
O3467 O 0.41113 0.43147 0.65904 0.0
H3468 H 0.42771 0.42955 0.65384 0.0
H3469 H 0.43548 0.41986 0.65062 0.0
H3470 H 0.44034 0.4303 0.63105 0.0
H3471 H 0.43263 0.44008 0.63441 0.0
H3472 H 0.41186 0.47579 0.65108 0.0
H3473 H 0.41526 0.46442 0.65598 0.0
H3474 H 0.39108 0.46773 0.64686 0.0
H3475 H 0.39449 0.45638 0.65172 0.0
H3476 H 0.3949 0.42986 0.67943 0.0
H3477 H 0.41227 0.41579 0.68346 0.0
H3478 H 0.41885 0.42121 0.67392 0.0
H3479 H 0.40154 0.43518 0.66972 0.0
C3480 C 0.32064 0.67913 0.39359 0.0
C3481 C 0.32769 0.67696 0.39393 0.0
C3482 C 0.33165 0.68869 0.39066 0.0
C3483 C 0.33311 0.68166 0.39242 0.0
C3484 C 0.32458 0.69083 0.39025 0.0
C3485 C 0.31913 0.68609 0.39171 0.0
U3486 U 0.31464 0.66432 0.4051 0.0
O3487 O 0.30461 0.66178 0.41028 0.0
O3488 O 0.3093 0.65433 0.40283 0.0
C3489 C 0.30382 0.65591 0.40672 0.0
C3490 C 0.31496 0.67422 0.39554 0.0
C3491 C 0.29683 0.6545 0.40356 0.0
C3492 C 0.28442 0.65727 0.402 0.0
C3493 C 0.29109 0.65905 0.40456 0.0
C3494 C 0.2891 0.64642 0.39733 0.0
C3495 C 0.28333 0.65091 0.39839 0.0
C3496 C 0.29574 0.64818 0.3999 0.0
C3497 C 0.32927 0.65877 0.41836 0.0
C3498 C 0.32903 0.64942 0.42707 0.0
C3499 C 0.33971 0.65606 0.42511 0.0
C3500 C 0.3363 0.66007 0.42003 0.0
C3501 C 0.33616 0.65063 0.42864 0.0
C3502 C 0.3256 0.65345 0.42193 0.0
C3503 C 0.32604 0.663 0.41277 0.0
O3504 O 0.31618 0.66757 0.39413 0.0
O3505 O 0.31226 0.67518 0.40183 0.0
O3506 O 0.32073 0.66703 0.41456 0.0
O3507 O 0.32518 0.65986 0.40669 0.0
H3508 H 0.32902 0.67163 0.39542 0.0
H3509 H 0.33846 0.67975 0.39265 0.0
H3510 H 0.32325 0.69621 0.38898 0.0
H3511 H 0.31374 0.68789 0.39148 0.0
H3512 H 0.2801 0.66088 0.40286 0.0
H3513 H 0.29172 0.66394 0.4074 0.0
H3514 H 0.28844 0.64143 0.39468 0.0
H3515 H 0.30002 0.64451 0.39915 0.0
H3516 H 0.32617 0.64527 0.42969 0.0
H3517 H 0.34516 0.65721 0.42628 0.0
H3518 H 0.33919 0.66418 0.41735 0.0
H3519 H 0.32016 0.65239 0.42069 0.0
C3520 C 0.36068 0.07516 0.43609 0.0
C3521 C 0.3562 0.07444 0.43028 0.0
C3522 C 0.36447 0.06642 0.42471 0.0
C3523 C 0.35806 0.0701 0.42467 0.0
C3524 C 0.36887 0.06702 0.43063 0.0
C3525 C 0.36699 0.07138 0.43627 0.0
U3526 U 0.3495 0.09025 0.44198 0.0
O3527 O 0.34448 0.09297 0.45204 0.0
O3528 O 0.35205 0.10021 0.44723 0.0
C3529 C 0.34819 0.09876 0.45278 0.0
C3530 C 0.35893 0.08021 0.44169 0.0
C3531 C 0.35142 0.10009 0.45977 0.0
C3532 C 0.35939 0.10688 0.46714 0.0
C3533 C 0.35683 0.10506 0.4605 0.0
C3534 C 0.35125 0.09875 0.47252 0.0
C3535 C 0.35658 0.10382 0.47325 0.0
C3536 C 0.34868 0.09692 0.46586 0.0
C3537 C 0.33612 0.09597 0.42757 0.0
C3538 C 0.32729 0.1052 0.4281 0.0
C3539 C 0.32967 0.09926 0.4171 0.0
C3540 C 0.33469 0.0951 0.42042 0.0
C3541 C 0.32596 0.10442 0.42087 0.0
C3542 C 0.33238 0.10101 0.43144 0.0
C3543 C 0.34166 0.09161 0.4307 0.0
O3544 O 0.36037 0.08678 0.44014 0.0
O3545 O 0.35269 0.07943 0.44454 0.0
O3546 O 0.3399 0.08765 0.43607 0.0
O3547 O 0.34783 0.09462 0.43142 0.0
H3548 H 0.35131 0.07734 0.43004 0.0
H3549 H 0.35449 0.06968 0.42026 0.0
H3550 H 0.37386 0.06431 0.43081 0.0
H3551 H 0.37054 0.07191 0.44069 0.0
H3552 H 0.36341 0.11089 0.46749 0.0
H3553 H 0.35897 0.10771 0.45594 0.0
H3554 H 0.34901 0.09623 0.47709 0.0
H3555 H 0.34445 0.09314 0.46552 0.0
H3556 H 0.32453 0.10914 0.43114 0.0
H3557 H 0.32868 0.09844 0.41155 0.0
H3558 H 0.33751 0.09121 0.41736 0.0
H3559 H 0.33344 0.10176 0.43698 0.0
C3560 C 0.86158 0.42965 0.56902 0.0
C3561 C 0.85683 0.43179 0.57423 0.0
C3562 C 0.86579 0.43921 0.57957 0.0
C3563 C 0.8589 0.43654 0.57943 0.0
C3564 C 0.87053 0.43708 0.5743 0.0
C3565 C 0.86843 0.43235 0.56906 0.0
U3566 U 0.84932 0.41506 0.56368 0.0
O3567 O 0.84431 0.41235 0.55363 0.0
O3568 O 0.85125 0.40473 0.55882 0.0
C3569 C 0.84746 0.40621 0.55324 0.0
C3570 C 0.8595 0.42434 0.56377 0.0
C3571 C 0.85058 0.40438 0.5464 0.0
C3572 C 0.85755 0.4072 0.53606 0.0
C3573 C 0.85487 0.40907 0.54267 0.0
C3574 C 0.85175 0.39591 0.53692 0.0
C3575 C 0.85598 0.40061 0.53308 0.0
C3576 C 0.84909 0.39779 0.5435 0.0
C3577 C 0.83489 0.41079 0.57738 0.0
C3578 C 0.82763 0.4003 0.57794 0.0
C3579 C 0.82553 0.40992 0.58599 0.0
C3580 C 0.83101 0.4137 0.5829 0.0
C3581 C 0.82381 0.40314 0.58361 0.0
C3582 C 0.83312 0.4041 0.57484 0.0
C3583 C 0.84096 0.41472 0.57466 0.0
O3584 O 0.86036 0.4178 0.56578 0.0
O3585 O 0.85342 0.42544 0.56068 0.0
O3586 O 0.83981 0.41874 0.56916 0.0
O3587 O 0.84691 0.41125 0.5743 0.0
H3588 H 0.85154 0.42969 0.57434 0.0
H3589 H 0.85516 0.43797 0.58347 0.0
H3590 H 0.87585 0.43907 0.57423 0.0
H3591 H 0.87218 0.43073 0.5651 0.0
H3592 H 0.86075 0.41097 0.53324 0.0
H3593 H 0.85609 0.41419 0.54483 0.0
H3594 H 0.85055 0.39075 0.53488 0.0
H3595 H 0.84581 0.39408 0.54631 0.0
H3596 H 0.82639 0.39512 0.57593 0.0
H3597 H 0.82281 0.41224 0.59041 0.0
H3598 H 0.83233 0.41884 0.58495 0.0
H3599 H 0.83606 0.40177 0.57056 0.0
C3600 C 0.32712 0.11184 0.32062 0.0
C3601 C 0.32698 0.10796 0.32688 0.0
C3602 C 0.31836 0.11602 0.33185 0.0
C3603 C 0.32265 0.11003 0.33244 0.0
C3604 C 0.31841 0.11981 0.32549 0.0
C3605 C 0.32277 0.11775 0.31993 0.0
U3606 U 0.34074 0.09925 0.31384 0.0
O3607 O 0.34267 0.09467 0.3034 0.0
O3608 O 0.35087 0.10094 0.30853 0.0
C3609 C 0.34886 0.09767 0.30278 0.0
C3610 C 0.33195 0.10981 0.31493 0.0
C3611 C 0.35048 0.10123 0.29602 0.0
C3612 C 0.34775 0.10386 0.28378 0.0
C3613 C 0.34582 0.10101 0.29029 0.0
C3614 C 0.35899 0.10728 0.28862 0.0
C3615 C 0.35438 0.10698 0.28285 0.0
C3616 C 0.35707 0.10442 0.29511 0.0
C3617 C 0.34483 0.08397 0.32682 0.0
C3618 C 0.35515 0.0765 0.32776 0.0
C3619 C 0.34477 0.07389 0.33463 0.0
C3620 C 0.34136 0.07967 0.33167 0.0
C3621 C 0.35174 0.07226 0.33278 0.0
C3622 C 0.35172 0.08231 0.32479 0.0
C3623 C 0.34123 0.09037 0.32439 0.0
O3624 O 0.33865 0.11028 0.31653 0.0
O3625 O 0.33037 0.10391 0.3117 0.0
O3626 O 0.3369 0.08966 0.31907 0.0
O3627 O 0.34502 0.09613 0.32409 0.0
H3628 H 0.33028 0.10337 0.3275 0.0
H3629 H 0.32266 0.10692 0.33721 0.0
H3630 H 0.31521 0.12448 0.32489 0.0
H3631 H 0.32282 0.12081 0.31514 0.0
H3632 H 0.34405 0.10359 0.27947 0.0
H3633 H 0.34071 0.09855 0.29078 0.0
H3634 H 0.36418 0.10954 0.28807 0.0
H3635 H 0.36083 0.10456 0.29938 0.0
H3636 H 0.36049 0.07536 0.32616 0.0
H3637 H 0.34201 0.07085 0.33856 0.0
H3638 H 0.33606 0.08089 0.33334 0.0
H3639 H 0.35448 0.08557 0.32104 0.0
C3640 C 0.64426 0.57693 0.06973 0.0
C3641 C 0.64879 0.57536 0.07533 0.0
C3642 C 0.63998 0.56764 0.0805 0.0
C3643 C 0.64668 0.57075 0.08064 0.0
C3644 C 0.63546 0.56922 0.07486 0.0
C3645 C 0.63759 0.57382 0.06952 0.0
U3646 U 0.65667 0.59117 0.06389 0.0
O3647 O 0.66194 0.59326 0.05379 0.0
O3648 O 0.655 0.60122 0.05845 0.0
C3649 C 0.65883 0.59938 0.053 0.0
C3650 C 0.64641 0.58198 0.06427 0.0
C3651 C 0.65593 0.60091 0.04596 0.0
C3652 C 0.6462 0.60377 0.03815 0.0
C3653 C 0.64868 0.60169 0.04477 0.0
C3654 C 0.65813 0.6041 0.03378 0.0
C3655 C 0.6509 0.60511 0.0326 0.0
C3656 C 0.6606 0.60204 0.04038 0.0
C3657 C 0.67098 0.59582 0.07764 0.0
C3658 C 0.67829 0.60629 0.07817 0.0
C3659 C 0.6804 0.59663 0.08619 0.0
C3660 C 0.67489 0.59289 0.08313 0.0
C3661 C 0.68213 0.60341 0.08381 0.0
C3662 C 0.67276 0.60251 0.0751 0.0
C3663 C 0.66487 0.59191 0.07497 0.0
O3664 O 0.64558 0.58862 0.06596 0.0
O3665 O 0.65252 0.5807 0.06132 0.0
O3666 O 0.66603 0.58761 0.0697 0.0
O3667 O 0.659 0.59548 0.07434 0.0
H3668 H 0.65394 0.57777 0.07563 0.0
H3669 H 0.65025 0.56976 0.08496 0.0
H3670 H 0.63028 0.56688 0.07456 0.0
H3671 H 0.63401 0.57498 0.06525 0.0
H3672 H 0.64061 0.60454 0.03746 0.0
H3673 H 0.64496 0.60085 0.04899 0.0
H3674 H 0.6619 0.60494 0.02961 0.0
H3675 H 0.66621 0.60145 0.04117 0.0
H3676 H 0.67953 0.61146 0.07617 0.0
H3677 H 0.68314 0.5943 0.09059 0.0
H3678 H 0.67357 0.58774 0.08518 0.0
H3679 H 0.6698 0.60486 0.07084 0.0
C3680 C 0.67876 0.39438 0.32021 0.0
C3681 C 0.67896 0.39828 0.32646 0.0
C3682 C 0.68764 0.39024 0.33135 0.0
C3683 C 0.68335 0.39623 0.33198 0.0
C3684 C 0.68754 0.38645 0.325 0.0
C3685 C 0.68312 0.3885 0.31948 0.0
U3686 U 0.66463 0.40662 0.3138 0.0
O3687 O 0.66235 0.41125 0.30346 0.0
O3688 O 0.65446 0.40463 0.30867 0.0
C3689 C 0.65624 0.40805 0.30293 0.0
C3690 C 0.6738 0.39635 0.31461 0.0
C3691 C 0.65458 0.40455 0.29617 0.0
C3692 C 0.65751 0.40134 0.28412 0.0
C3693 C 0.65946 0.40418 0.29063 0.0
C3694 C 0.64584 0.39908 0.2886 0.0
C3695 C 0.65066 0.3988 0.28301 0.0
C3696 C 0.64777 0.40194 0.29508 0.0
C3697 C 0.6601 0.42151 0.32702 0.0
C3698 C 0.64944 0.42848 0.32802 0.0
C3699 C 0.65962 0.4314 0.33506 0.0
C3700 C 0.66332 0.42585 0.33201 0.0
C3701 C 0.6526 0.43273 0.33319 0.0
C3702 C 0.65316 0.42291 0.32496 0.0
C3703 C 0.66398 0.41532 0.32449 0.0
O3704 O 0.66714 0.39562 0.31628 0.0
O3705 O 0.67513 0.40235 0.31146 0.0
O3706 O 0.66818 0.41629 0.3191 0.0
O3707 O 0.66045 0.4094 0.32418 0.0
H3708 H 0.67564 0.40285 0.32712 0.0
H3709 H 0.68337 0.39932 0.33675 0.0
H3710 H 0.69074 0.38178 0.32437 0.0
H3711 H 0.68302 0.38543 0.31469 0.0
H3712 H 0.66137 0.40115 0.27995 0.0
H3713 H 0.66475 0.40616 0.29129 0.0
H3714 H 0.64049 0.39728 0.2879 0.0
H3715 H 0.64387 0.40224 0.29922 0.0
H3716 H 0.64406 0.4294 0.3264 0.0
H3717 H 0.6622 0.43447 0.33909 0.0
H3718 H 0.66866 0.42483 0.3337 0.0
H3719 H 0.65058 0.41961 0.3211 0.0
C3720 C 0.14554 0.92873 0.93644 0.0
C3721 C 0.15023 0.92967 0.93085 0.0
C3722 C 0.14204 0.93766 0.92511 0.0
C3723 C 0.14852 0.9341 0.92525 0.0
C3724 C 0.1374 0.93681 0.93081 0.0
C3725 C 0.13913 0.93236 0.93642 0.0
U3726 U 0.15716 0.91416 0.94279 0.0
O3727 O 0.16176 0.91158 0.95307 0.0
O3728 O 0.15485 0.90398 0.9478 0.0
C3729 C 0.15854 0.90548 0.95344 0.0
C3730 C 0.14721 0.92366 0.94205 0.0
C3731 C 0.15535 0.90362 0.96024 0.0
C3732 C 0.1486 0.90646 0.97072 0.0
C3733 C 0.15124 0.90837 0.96411 0.0
C3734 C 0.15405 0.89503 0.96958 0.0
C3735 C 0.15005 0.89978 0.97358 0.0
C3736 C 0.15667 0.89693 0.963 0.0
C3737 C 0.17195 0.90897 0.92969 0.0
C3738 C 0.17656 0.89881 0.92342 0.0
C3739 C 0.18436 0.90832 0.92662 0.0
C3740 C 0.17874 0.91187 0.92975 0.0
C3741 C 0.18332 0.9018 0.92329 0.0
C3742 C 0.17095 0.90235 0.92657 0.0
C3743 C 0.16589 0.91321 0.93213 0.0
O3744 O 0.14624 0.91705 0.94031 0.0
O3745 O 0.15321 0.92474 0.9453 0.0
O3746 O 0.16694 0.91741 0.93752 0.0
O3747 O 0.15974 0.91007 0.93232 0.0
H3748 H 0.1552 0.92689 0.93076 0.0
H3749 H 0.15227 0.93471 0.92102 0.0
H3750 H 0.13235 0.93943 0.93083 0.0
H3751 H 0.13542 0.93166 0.94068 0.0
H3752 H 0.14556 0.91026 0.97367 0.0
H3753 H 0.15016 0.91357 0.96205 0.0
H3754 H 0.15516 0.8898 0.97153 0.0
H3755 H 0.1598 0.89318 0.96009 0.0
H3756 H 0.17551 0.89387 0.92081 0.0
H3757 H 0.1895 0.91075 0.9267 0.0
H3758 H 0.17967 0.917 0.93204 0.0
H3759 H 0.16579 0.89998 0.92634 0.0
C3760 C 0.32524 0.89536 0.18637 0.0
C3761 C 0.32441 0.89994 0.18066 0.0
C3762 C 0.31629 0.89178 0.17507 0.0
C3763 C 0.31997 0.89819 0.17509 0.0
C3764 C 0.31702 0.88725 0.18088 0.0
C3765 C 0.32148 0.88903 0.18648 0.0
U3766 U 0.34036 0.90651 0.19205 0.0
O3767 O 0.343 0.9119 0.20197 0.0
O3768 O 0.35028 0.90417 0.19745 0.0
C3769 C 0.34884 0.9083 0.20279 0.0
C3770 C 0.33031 0.89709 0.19196 0.0
C3771 C 0.3502 0.90548 0.2099 0.0
C3772 C 0.35243 0.89576 0.21792 0.0
C3773 C 0.35044 0.89823 0.21127 0.0
C3774 C 0.35373 0.90775 0.22197 0.0
C3775 C 0.35422 0.90049 0.22333 0.0
C3776 C 0.35177 0.9102 0.21534 0.0
C3777 C 0.34595 0.91965 0.17738 0.0
C3778 C 0.3554 0.92825 0.17764 0.0
C3779 C 0.34879 0.92634 0.16692 0.0
C3780 C 0.3447 0.92131 0.17033 0.0
C3781 C 0.35424 0.92981 0.17049 0.0
C3782 C 0.35129 0.92316 0.18106 0.0
C3783 C 0.34166 0.9141 0.1806 0.0
O3784 O 0.33687 0.8956 0.19043 0.0
O3785 O 0.32957 0.90336 0.19476 0.0
O3786 O 0.33765 0.91593 0.18591 0.0
O3787 O 0.34475 0.908 0.18148 0.0
H3788 H 0.32729 0.90485 0.18046 0.0
H3789 H 0.31945 0.90186 0.17078 0.0
H3790 H 0.31431 0.88225 0.18101 0.0
H3791 H 0.32209 0.8854 0.19082 0.0
H3792 H 0.35279 0.89015 0.21876 0.0
H3793 H 0.34925 0.89447 0.20717 0.0
H3794 H 0.35494 0.91154 0.22603 0.0
H3795 H 0.35161 0.91581 0.2144 0.0
H3796 H 0.35957 0.93082 0.18051 0.0
H3797 H 0.34768 0.92751 0.16147 0.0
H3798 H 0.34058 0.91867 0.16743 0.0
H3799 H 0.35232 0.92193 0.18651 0.0
C3800 C 0.17948 0.11183 0.68597 0.0
C3801 C 0.18105 0.10721 0.68045 0.0
C3802 C 0.18876 0.11595 0.67514 0.0
C3803 C 0.18566 0.10923 0.6751 0.0
C3804 C 0.1872 0.12054 0.68072 0.0
C3805 C 0.1826 0.11849 0.6861 0.0
U3806 U 0.16549 0.09929 0.69223 0.0
O3807 O 0.16324 0.09465 0.70257 0.0
O3808 O 0.15525 0.10108 0.6973 0.0
C3809 C 0.15708 0.09774 0.70307 0.0
C3810 C 0.1744 0.10978 0.69143 0.0
C3811 C 0.15535 0.10125 0.70982 0.0
C3812 C 0.15805 0.10409 0.72202 0.0
C3813 C 0.16007 0.10129 0.71551 0.0
C3814 C 0.14664 0.10697 0.71724 0.0
C3815 C 0.15129 0.10691 0.72298 0.0
C3816 C 0.14864 0.10415 0.71076 0.0
C3817 C 0.16162 0.08408 0.67913 0.0
C3818 C 0.15132 0.07657 0.67822 0.0
C3819 C 0.1616 0.07415 0.67114 0.0
C3820 C 0.16502 0.07989 0.67415 0.0
C3821 C 0.15467 0.07245 0.67307 0.0
C3822 C 0.15476 0.08235 0.68123 0.0
C3823 C 0.16522 0.09044 0.68164 0.0
O3824 O 0.16777 0.11031 0.68956 0.0
O3825 O 0.1758 0.10388 0.69473 0.0
O3826 O 0.1694 0.08968 0.68708 0.0
O3827 O 0.16147 0.09623 0.68186 0.0
H3828 H 0.17864 0.10206 0.68023 0.0
H3829 H 0.18664 0.10561 0.67083 0.0
H3830 H 0.18954 0.12572 0.68095 0.0
H3831 H 0.18144 0.12213 0.69031 0.0
H3832 H 0.16179 0.10402 0.7263 0.0
H3833 H 0.16528 0.09907 0.71499 0.0
H3834 H 0.14136 0.109 0.71781 0.0
H3835 H 0.14485 0.1041 0.7065 0.0
H3836 H 0.14601 0.07538 0.67988 0.0
H3837 H 0.16432 0.0712 0.66711 0.0
H3838 H 0.1703 0.08118 0.67242 0.0
H3839 H 0.15205 0.08553 0.68509 0.0
H3840 H 0.12707 0.2067 0.38291 0.0
H3841 H 0.11341 0.22359 0.3767 0.0
H3842 H 0.13548 0.22463 0.37198 0.0
H3843 H 0.1296 0.23797 0.37664 0.0
C3844 C 0.12403 0.23735 0.37497 0.0
O3845 O 0.12341 0.23126 0.37107 0.0
H3846 H 0.12073 0.23698 0.37978 0.0
C3847 C 0.12631 0.21174 0.38035 0.0
C3848 C 0.1321 0.21521 0.37737 0.0
C3849 C 0.11957 0.2147 0.38015 0.0
C3850 C 0.11859 0.22123 0.37686 0.0
C3851 C 0.12434 0.22484 0.37399 0.0
C3852 C 0.13108 0.22183 0.37424 0.0
H3853 H 0.04948 0.87571 0.6327 0.0
H3854 H 0.03188 0.86299 0.62652 0.0
H3855 H 0.03197 0.8851 0.62184 0.0
H3856 H 0.01815 0.88004 0.6261 0.0
C3857 C 0.01868 0.87437 0.6248 0.0
O3858 O 0.02473 0.87338 0.62092 0.0
H3859 H 0.019 0.87139 0.62983 0.0
C3860 C 0.04441 0.87525 0.63013 0.0
C3861 C 0.04123 0.88122 0.62719 0.0
C3862 C 0.0411 0.86868 0.62991 0.0
C3863 C 0.0345 0.86804 0.62668 0.0
C3864 C 0.03118 0.87398 0.62385 0.0
C3865 C 0.03455 0.88056 0.62409 0.0
H3866 H 0.37855 0.79995 0.8804 0.0
H3867 H 0.39306 0.78344 0.87498 0.0
H3868 H 0.37081 0.77986 0.87358 0.0
H3869 H 0.37905 0.76772 0.87878 0.0
C3870 C 0.38407 0.76862 0.87593 0.0
O3871 O 0.38331 0.77434 0.87154 0.0
H3872 H 0.38825 0.76969 0.87988 0.0
C3873 C 0.37957 0.79467 0.87851 0.0
C3874 C 0.37388 0.79024 0.87702 0.0
C3875 C 0.38653 0.79228 0.87788 0.0
C3876 C 0.38774 0.78536 0.8756 0.0
C3877 C 0.38208 0.7809 0.87401 0.0
C3878 C 0.37516 0.78332 0.8748 0.0
H3879 H 0.45649 0.13 0.1331 0.0
H3880 H 0.47312 0.14315 0.12518 0.0
H3881 H 0.47484 0.12068 0.12381 0.0
H3882 H 0.48815 0.12728 0.12737 0.0
C3883 C 0.48719 0.13268 0.12536 0.0
O3884 O 0.48118 0.1327 0.1213 0.0
H3885 H 0.48651 0.13618 0.13 0.0
C3886 C 0.46155 0.13059 0.13054 0.0
C3887 C 0.4653 0.12455 0.1286 0.0
C3888 C 0.46424 0.13734 0.12928 0.0
C3889 C 0.4709 0.138 0.12616 0.0
C3890 C 0.47472 0.132 0.1242 0.0
C3891 C 0.47186 0.12529 0.12531 0.0
H3892 H 0.12561 0.80078 0.12713 0.0
H3893 H 0.11212 0.78317 0.13143 0.0
H3894 H 0.1345 0.78101 0.13359 0.0
H3895 H 0.12738 0.76843 0.12779 0.0
C3896 C 0.12213 0.76903 0.13029 0.0
O3897 O 0.12234 0.77461 0.13492 0.0
H3898 H 0.1182 0.77006 0.12609 0.0
C3899 C 0.12494 0.79538 0.12882 0.0
C3900 C 0.13089 0.79131 0.13037 0.0
C3901 C 0.11816 0.79252 0.12915 0.0
C3902 C 0.11732 0.78545 0.1311 0.0
C3903 C 0.12321 0.78133 0.13274 0.0
C3904 C 0.12998 0.78423 0.13231 0.0
H3905 H 0.45532 0.87668 0.37643 0.0
H3906 H 0.47264 0.86287 0.3809 0.0
H3907 H 0.4753 0.88521 0.38273 0.0
H3908 H 0.48745 0.87773 0.37664 0.0
C3909 C 0.48693 0.87259 0.37939 0.0
O3910 O 0.48145 0.87295 0.38413 0.0
H3911 H 0.48583 0.8685 0.37537 0.0
C3912 C 0.4607 0.87592 0.37815 0.0
C3913 C 0.46492 0.8818 0.37959 0.0
C3914 C 0.46341 0.86907 0.37857 0.0
C3915 C 0.47046 0.86811 0.38052 0.0
C3916 C 0.47473 0.87393 0.38205 0.0
C3917 C 0.47197 0.88075 0.38154 0.0
H3918 H 0.37919 0.20475 0.62639 0.0
H3919 H 0.39314 0.22201 0.63064 0.0
H3920 H 0.37086 0.22472 0.63296 0.0
H3921 H 0.37821 0.2369 0.62677 0.0
C3922 C 0.3834 0.23634 0.62939 0.0
O3923 O 0.38316 0.23084 0.6341 0.0
H3924 H 0.38738 0.23524 0.62525 0.0
C3925 C 0.38 0.21012 0.62811 0.0
C3926 C 0.37417 0.21434 0.62971 0.0
C3927 C 0.38686 0.21281 0.6284 0.0
C3928 C 0.38788 0.21985 0.63036 0.0
C3929 C 0.38211 0.22412 0.63202 0.0
C3930 C 0.37527 0.22138 0.63166 0.0
H3931 H 0.04987 0.13021 0.87275 0.0
H3932 H 0.03216 0.14288 0.87874 0.0
H3933 H 0.0325 0.12089 0.88385 0.0
H3934 H 0.01844 0.12557 0.88006 0.0
C3935 C 0.01909 0.13133 0.88084 0.0
O3936 O 0.02517 0.13256 0.88459 0.0
H3937 H 0.01944 0.13378 0.87554 0.0
C3938 C 0.0448 0.13069 0.87528 0.0
C3939 C 0.04168 0.12475 0.87835 0.0
C3940 C 0.04143 0.13724 0.87537 0.0
C3941 C 0.03485 0.13787 0.87864 0.0
C3942 C 0.0316 0.13195 0.88162 0.0
C3943 C 0.03502 0.12541 0.88148 0.0
H3944 H 0.38279 0.12521 0.206 0.0
H3945 H 0.37667 0.11246 0.22362 0.0
H3946 H 0.37236 0.13463 0.22372 0.0
H3947 H 0.37686 0.12932 0.23745 0.0
C3948 C 0.37534 0.1237 0.2369 0.0
O3949 O 0.37135 0.12287 0.2309 0.0
H3950 H 0.38027 0.12058 0.23648 0.0
C3951 C 0.38033 0.12473 0.21111 0.0
C3952 C 0.37752 0.13073 0.21437 0.0
C3953 C 0.38006 0.11813 0.21438 0.0
C3954 C 0.37689 0.11752 0.22101 0.0
C3955 C 0.37419 0.12348 0.22441 0.0
C3956 C 0.3745 0.13007 0.22109 0.0
H3957 H 0.13012 0.13042 0.45466 0.0
H3958 H 0.14293 0.12546 0.47263 0.0
H3959 H 0.12059 0.12252 0.47357 0.0
H3960 H 0.12667 0.128 0.48675 0.0
C3961 C 0.13211 0.12593 0.48623 0.0
O3962 O 0.13245 0.12144 0.48054 0.0
H3963 H 0.13567 0.1305 0.4854 0.0
C3964 C 0.13062 0.1284 0.45996 0.0
C3965 C 0.12455 0.1264 0.46364 0.0
C3966 C 0.13729 0.12811 0.46311 0.0
C3967 C 0.13784 0.12577 0.4701 0.0
C3968 C 0.13183 0.12378 0.47385 0.0
C3969 C 0.1252 0.12411 0.47064 0.0
H3970 H 0.12498 0.87998 0.70466 0.0
H3971 H 0.1305 0.89314 0.72222 0.0
H3972 H 0.13299 0.87078 0.7237 0.0
H3973 H 0.12771 0.87723 0.73669 0.0
C3974 C 0.12991 0.88262 0.73608 0.0
O3975 O 0.13436 0.88277 0.73036 0.0
H3976 H 0.12542 0.88627 0.73522 0.0
C3977 C 0.1271 0.88058 0.70991 0.0
C3978 C 0.12903 0.87456 0.71373 0.0
C3979 C 0.12758 0.88732 0.71289 0.0
C3980 C 0.13004 0.888 0.71982 0.0
C3981 C 0.13196 0.88204 0.72371 0.0
C3982 C 0.13145 0.87534 0.72066 0.0
H3983 H 0.37619 0.87736 0.9547 0.0
H3984 H 0.36225 0.88152 0.97198 0.0
H3985 H 0.38457 0.88324 0.97487 0.0
H3986 H 0.37698 0.87696 0.98685 0.0
C3987 C 0.37186 0.87973 0.98633 0.0
O3988 O 0.37226 0.88456 0.98094 0.0
H3989 H 0.36778 0.87572 0.98512 0.0
C3990 C 0.37539 0.87897 0.9601 0.0
C3991 C 0.38124 0.88031 0.9644 0.0
C3992 C 0.36853 0.87936 0.96277 0.0
C3993 C 0.36751 0.88117 0.96984 0.0
C3994 C 0.37329 0.88261 0.97418 0.0
C3995 C 0.38014 0.88213 0.97147 0.0
H3996 H 0.38038 0.88059 0.30048 0.0
H3997 H 0.37514 0.89356 0.28271 0.0
H3998 H 0.37218 0.87122 0.28161 0.0
H3999 H 0.37706 0.87724 0.26825 0.0
C4000 C 0.37529 0.88276 0.26898 0.0
O4001 O 0.37095 0.88314 0.27478 0.0
H4002 H 0.38005 0.88606 0.26981 0.0
C4003 C 0.37828 0.88114 0.29521 0.0
C4004 C 0.37623 0.8751 0.2915 0.0
C4005 C 0.37794 0.88784 0.29213 0.0
C4006 C 0.3755 0.88845 0.28519 0.0
C4007 C 0.37343 0.88247 0.28141 0.0
C4008 C 0.37381 0.8758 0.28456 0.0
H4009 H 0.37615 0.13341 0.54958 0.0
H4010 H 0.36247 0.12739 0.53262 0.0
H4011 H 0.3845 0.12264 0.53151 0.0
H4012 H 0.37885 0.12688 0.51803 0.0
C4013 C 0.37319 0.12567 0.51885 0.0
O4014 O 0.37241 0.12179 0.52493 0.0
H4015 H 0.37035 0.13076 0.51934 0.0
C4016 C 0.37538 0.13091 0.54451 0.0
C4017 C 0.38116 0.12799 0.54098 0.0
C4018 C 0.36862 0.13075 0.54156 0.0
C4019 C 0.36764 0.12753 0.535 0.0
C4020 C 0.37337 0.12468 0.53135 0.0
C4021 C 0.38011 0.1249 0.53435 0.0
H4022 H 0.12275 0.12549 0.79986 0.0
H4023 H 0.12887 0.11223 0.78262 0.0
H4024 H 0.13305 0.13439 0.78179 0.0
H4025 H 0.12826 0.12858 0.7684 0.0
C4026 C 0.13002 0.12304 0.769 0.0
O4027 O 0.13407 0.12244 0.77498 0.0
H4028 H 0.12523 0.11971 0.76948 0.0
C4029 C 0.1252 0.12486 0.79476 0.0
C4030 C 0.12795 0.13077 0.79129 0.0
C4031 C 0.1255 0.11816 0.7917 0.0
C4032 C 0.12864 0.11736 0.78508 0.0
C4033 C 0.13128 0.12322 0.78148 0.0
C4034 C 0.13095 0.12991 0.78459 0.0
H4035 H 0.12868 0.87653 0.05151 0.0
H4036 H 0.1425 0.88128 0.03427 0.0
H4037 H 0.12017 0.8833 0.03168 0.0
H4038 H 0.12734 0.87784 0.01917 0.0
C4039 C 0.13263 0.88021 0.01992 0.0
O4040 O 0.13242 0.88478 0.02555 0.0
H4041 H 0.13641 0.87588 0.021 0.0
C4042 C 0.12945 0.87834 0.04617 0.0
C4043 C 0.12357 0.8799 0.04199 0.0
C4044 C 0.13629 0.87878 0.04346 0.0
C4045 C 0.13725 0.88087 0.03644 0.0
C4046 C 0.13144 0.88253 0.03222 0.0
C4047 C 0.12462 0.882 0.03498 0.0
H4048 H 0.205 0.37958 0.12552 0.0
H4049 H 0.22261 0.37561 0.11194 0.0
H4050 H 0.22488 0.37329 0.1343 0.0
H4051 H 0.23726 0.37947 0.12719 0.0
C4052 C 0.23675 0.37689 0.12196 0.0
O4053 O 0.23125 0.37217 0.12211 0.0
H4054 H 0.23569 0.38107 0.11801 0.0
C4055 C 0.21042 0.37796 0.12483 0.0
C4056 C 0.21453 0.37641 0.13075 0.0
C4057 C 0.21326 0.37772 0.11803 0.0
C4058 C 0.22034 0.37587 0.11716 0.0
C4059 C 0.22451 0.37423 0.12302 0.0
C4060 C 0.22162 0.37456 0.1298 0.0
H4061 H 0.7043 0.12643 0.87958 0.0
H4062 H 0.72166 0.13082 0.89336 0.0
H4063 H 0.72425 0.13276 0.87102 0.0
H4064 H 0.73649 0.12673 0.87837 0.0
C4065 C 0.73594 0.12939 0.88354 0.0
O4066 O 0.73044 0.13411 0.88326 0.0
H4067 H 0.73484 0.12528 0.88756 0.0
C4068 C 0.70968 0.12813 0.88033 0.0
C4069 C 0.71387 0.1296 0.87444 0.0
C4070 C 0.71241 0.12852 0.88717 0.0
C4071 C 0.71947 0.13046 0.88812 0.0
C4072 C 0.72371 0.13202 0.88229 0.0
C4073 C 0.72093 0.13155 0.87547 0.0
H4074 H 0.12966 0.45536 0.1295 0.0
H4075 H 0.12516 0.47256 0.14345 0.0
H4076 H 0.12303 0.47531 0.12115 0.0
H4077 H 0.12853 0.4878 0.12832 0.0
C4078 C 0.12623 0.48699 0.13363 0.0
O4079 O 0.12165 0.48137 0.13346 0.0
H4080 H 0.13063 0.48588 0.13732 0.0
C4081 C 0.12791 0.46072 0.13031 0.0
C4082 C 0.12635 0.46495 0.12447 0.0
C4083 C 0.12753 0.46339 0.13718 0.0
C4084 C 0.12552 0.47042 0.13819 0.0
C4085 C 0.12387 0.4747 0.13241 0.0
C4086 C 0.12432 0.47197 0.12557 0.0
H4087 H 0.79931 0.88299 0.38094 0.0
H4088 H 0.7826 0.87514 0.39398 0.0
H4089 H 0.78044 0.87486 0.37152 0.0
H4090 H 0.76754 0.87872 0.37881 0.0
C4091 C 0.76839 0.8761 0.38396 0.0
O4092 O 0.77429 0.8719 0.38351 0.0
H4093 H 0.76918 0.88023 0.38802 0.0
C4094 C 0.79416 0.88062 0.38147 0.0
C4095 C 0.79024 0.87912 0.3754 0.0
C4096 C 0.79151 0.8792 0.3882 0.0
C4097 C 0.78477 0.87625 0.38884 0.0
C4098 C 0.7808 0.87467 0.38283 0.0
C4099 C 0.78357 0.87604 0.37612 0.0
H4100 H 0.8776 0.05114 0.13048 0.0
H4101 H 0.88196 0.03336 0.14372 0.0
H4102 H 0.88415 0.03152 0.12132 0.0
H4103 H 0.87849 0.01875 0.12818 0.0
C4104 C 0.88087 0.01935 0.13348 0.0
O4105 O 0.88548 0.02496 0.13338 0.0
H4106 H 0.87658 0.02036 0.13732 0.0
C4107 C 0.87932 0.04574 0.13106 0.0
C4108 C 0.88088 0.04175 0.12506 0.0
C4109 C 0.87966 0.04278 0.13781 0.0
C4110 C 0.88163 0.03571 0.13855 0.0
C4111 C 0.88328 0.03168 0.1326 0.0
C4112 C 0.88285 0.03468 0.12587 0.0
H4113 H 0.30088 0.62771 0.62628 0.0
H4114 H 0.28355 0.63237 0.61254 0.0
H4115 H 0.28091 0.63389 0.63492 0.0
H4116 H 0.2685 0.62827 0.6274 0.0
C4117 C 0.2692 0.63091 0.62223 0.0
O4118 O 0.27477 0.63554 0.62268 0.0
H4119 H 0.27033 0.62681 0.61821 0.0
C4120 C 0.29549 0.62942 0.62555 0.0
C4121 C 0.29128 0.63077 0.63145 0.0
C4122 C 0.29277 0.62993 0.61872 0.0
C4123 C 0.28572 0.6319 0.61778 0.0
C4124 C 0.28147 0.63336 0.62363 0.0
C4125 C 0.28423 0.63274 0.63044 0.0
H4126 H 0.13036 0.55082 0.37563 0.0
H4127 H 0.1251 0.53335 0.36225 0.0
H4128 H 0.12255 0.53158 0.38458 0.0
H4129 H 0.12835 0.51893 0.37784 0.0
C4130 C 0.1259 0.5194 0.37255 0.0
O4131 O 0.12133 0.52503 0.37251 0.0
H4132 H 0.13018 0.52028 0.36866 0.0
C4133 C 0.1283 0.54556 0.37496 0.0
C4134 C 0.12639 0.54165 0.38093 0.0
C4135 C 0.12788 0.54265 0.36818 0.0
C4136 C 0.12551 0.5357 0.36742 0.0
C4137 C 0.12362 0.53172 0.37332 0.0
C4138 C 0.12406 0.53469 0.38006 0.0
H4139 H 0.37006 0.45829 0.87586 0.0
H4140 H 0.37895 0.474 0.86227 0.0
H4141 H 0.38262 0.47496 0.88455 0.0
H4142 H 0.37994 0.48862 0.87879 0.0
C4143 C 0.38116 0.48771 0.87315 0.0
O4144 O 0.38462 0.48137 0.87247 0.0
H4145 H 0.37609 0.48757 0.87025 0.0
C4146 C 0.37316 0.46302 0.87516 0.0
C4147 C 0.37623 0.46626 0.88103 0.0
C4148 C 0.37418 0.4657 0.86837 0.0
C4149 C 0.37824 0.47179 0.86746 0.0
C4150 C 0.38118 0.4752 0.87331 0.0
C4151 C 0.38032 0.47233 0.88006 0.0
H4152 H 0.87951 0.79859 0.62118 0.0
H4153 H 0.89248 0.78185 0.62914 0.0
H4154 H 0.87003 0.77979 0.62943 0.0
H4155 H 0.87655 0.77299 0.64163 0.0
C4156 C 0.88198 0.7724 0.63957 0.0
O4157 O 0.88198 0.77361 0.63242 0.0
H4158 H 0.88535 0.77634 0.64228 0.0
C4159 C 0.88002 0.79345 0.62358 0.0
C4160 C 0.87394 0.78957 0.62514 0.0
C4161 C 0.88675 0.79076 0.62499 0.0
C4162 C 0.88735 0.78405 0.62801 0.0
C4163 C 0.88133 0.78014 0.62966 0.0
C4164 C 0.87464 0.7829 0.62823 0.0
H4165 H 0.95623 0.13013 0.37318 0.0
H4166 H 0.97368 0.14316 0.37934 0.0
H4167 H 0.97519 0.12074 0.38112 0.0
H4168 H 0.98269 0.12767 0.39243 0.0
C4169 C 0.9832 0.13301 0.39012 0.0
O4170 O 0.98178 0.13269 0.38301 0.0
H4171 H 0.97931 0.13647 0.3928 0.0
C4172 C 0.96146 0.13068 0.37537 0.0
C4173 C 0.96526 0.12462 0.37717 0.0
C4174 C 0.96441 0.13742 0.37609 0.0
C4175 C 0.9713 0.13803 0.37868 0.0
C4176 C 0.97516 0.13203 0.3805 0.0
C4177 C 0.97217 0.12534 0.37968 0.0
H4178 H 0.62477 0.20755 0.1211 0.0
H4179 H 0.61212 0.22518 0.1274 0.0
H4180 H 0.63424 0.22505 0.13188 0.0
H4181 H 0.62583 0.23178 0.1431 0.0
C4182 C 0.62113 0.23325 0.13997 0.0
O4183 O 0.62254 0.23228 0.13292 0.0
H4184 H 0.61671 0.2298 0.14164 0.0
C4185 C 0.62432 0.21264 0.12363 0.0
C4186 C 0.63031 0.21581 0.12654 0.0
C4187 C 0.61774 0.21595 0.1239 0.0
C4188 C 0.61715 0.22253 0.12717 0.0
C4189 C 0.62311 0.22582 0.13001 0.0
C4190 C 0.62968 0.22248 0.12965 0.0
H4191 H 0.54997 0.87501 0.87483 0.0
H4192 H 0.53212 0.86183 0.87906 0.0
H4193 H 0.53045 0.88421 0.88158 0.0
H4194 H 0.52359 0.87609 0.89275 0.0
C4195 C 0.52221 0.87123 0.88982 0.0
O4196 O 0.52382 0.87216 0.8828 0.0
H4197 H 0.52534 0.86681 0.89202 0.0
C4198 C 0.54457 0.87444 0.87655 0.0
C4199 C 0.54063 0.88045 0.87821 0.0
C4200 C 0.54157 0.86771 0.87681 0.0
C4201 C 0.53451 0.86699 0.87878 0.0
C4202 C 0.53053 0.87293 0.8806 0.0
C4203 C 0.53356 0.87965 0.88021 0.0
H4204 H 0.88039 0.20817 0.88778 0.0
H4205 H 0.89328 0.22455 0.87906 0.0
H4206 H 0.87087 0.2254 0.87661 0.0
H4207 H 0.87887 0.23089 0.86415 0.0
C4208 C 0.88377 0.23245 0.86691 0.0
O4209 O 0.88277 0.23188 0.87407 0.0
H4210 H 0.88805 0.22886 0.86518 0.0
C4211 C 0.88085 0.21309 0.88494 0.0
C4212 C 0.87478 0.21641 0.88237 0.0
C4213 C 0.88755 0.21594 0.88376 0.0
C4214 C 0.88816 0.22221 0.87993 0.0
C4215 C 0.88215 0.22562 0.87736 0.0
C4216 C 0.87548 0.22269 0.87854 0.0
H4217 H 0.54786 0.1309 0.63488 0.0
H4218 H 0.5302 0.14339 0.62844 0.0
H4219 H 0.53026 0.12115 0.62449 0.0
H4220 H 0.52308 0.12887 0.61325 0.0
C4221 C 0.52201 0.13386 0.6161 0.0
O4222 O 0.52303 0.13284 0.62321 0.0
H4223 H 0.52575 0.13789 0.61408 0.0
C4224 C 0.54278 0.13127 0.63234 0.0
C4225 C 0.53957 0.1252 0.62963 0.0
C4226 C 0.53945 0.13782 0.63193 0.0
C4227 C 0.53283 0.13835 0.62875 0.0
C4228 C 0.52952 0.13233 0.62608 0.0
C4229 C 0.53286 0.12576 0.62657 0.0
H4230 H 0.62542 0.79951 0.38247 0.0
H4231 H 0.61299 0.78151 0.3767 0.0
H4232 H 0.63541 0.78091 0.37442 0.0
H4233 H 0.62822 0.77343 0.3631 0.0
C4234 C 0.62308 0.77243 0.3657 0.0
O4235 O 0.62368 0.77383 0.3728 0.0
H4236 H 0.61914 0.776 0.36327 0.0
C4237 C 0.62504 0.79425 0.38032 0.0
C4238 C 0.63122 0.79069 0.37841 0.0
C4239 C 0.61842 0.79103 0.37975 0.0
C4240 C 0.61803 0.7841 0.37724 0.0
C4241 C 0.62414 0.78047 0.3753 0.0
C4242 C 0.63073 0.78374 0.37595 0.0
H4243 H 0.95561 0.87685 0.13122 0.0
H4244 H 0.97284 0.86298 0.12656 0.0
H4245 H 0.97532 0.88527 0.12401 0.0
H4246 H 0.98195 0.87713 0.11286 0.0
C4247 C 0.98303 0.87214 0.11571 0.0
O4248 O 0.98148 0.873 0.12275 0.0
H4249 H 0.9796 0.868 0.1134 0.0
C4250 C 0.96093 0.87605 0.12936 0.0
C4251 C 0.96506 0.88191 0.1276 0.0
C4252 C 0.96366 0.86921 0.12904 0.0
C4253 C 0.97065 0.86823 0.12689 0.0
C4254 C 0.97482 0.87401 0.12501 0.0
C4255 C 0.97205 0.88084 0.12545 0.0
H4256 H 0.6209 0.87938 0.79835 0.0
H4257 H 0.6288 0.89286 0.78199 0.0
H4258 H 0.62944 0.87047 0.77941 0.0
H4259 H 0.64184 0.87772 0.77352 0.0
C4260 C 0.63947 0.88295 0.77246 0.0
O4261 O 0.63231 0.8826 0.77354 0.0
H4262 H 0.64187 0.88679 0.77615 0.0
C4263 C 0.62333 0.88005 0.79325 0.0
C4264 C 0.625 0.87408 0.78924 0.0
C4265 C 0.62468 0.88686 0.79074 0.0
C4266 C 0.62773 0.88766 0.78405 0.0
C4267 C 0.62949 0.88176 0.78002 0.0
C4268 C 0.62815 0.87499 0.78262 0.0
H4269 H 0.87504 0.87133 0.54868 0.0
H4270 H 0.86236 0.87934 0.53174 0.0
H4271 H 0.88485 0.87935 0.52996 0.0
H4272 H 0.87846 0.89165 0.52318 0.0
C4273 C 0.87306 0.88959 0.52238 0.0
O4274 O 0.873 0.88244 0.52361 0.0
H4275 H 0.86953 0.89231 0.52616 0.0
C4276 C 0.87461 0.8737 0.54352 0.0
C4277 C 0.88076 0.87515 0.53971 0.0
C4278 C 0.86794 0.87519 0.54075 0.0
C4279 C 0.86745 0.87816 0.53401 0.0
C4280 C 0.87354 0.87971 0.53016 0.0
C4281 C 0.88018 0.87822 0.53301 0.0
H4282 H 0.88216 0.12521 0.30003 0.0
H4283 H 0.87634 0.11252 0.28223 0.0
H4284 H 0.87423 0.13496 0.28124 0.0
H4285 H 0.86303 0.12795 0.27358 0.0
C4286 C 0.86548 0.12269 0.27289 0.0
O4287 O 0.87257 0.12312 0.27435 0.0
H4288 H 0.86288 0.11901 0.27663 0.0
C4289 C 0.88002 0.12476 0.29478 0.0
C4290 C 0.87815 0.13089 0.29111 0.0
C4291 C 0.87942 0.11809 0.29166 0.0
C4292 C 0.87691 0.1176 0.28473 0.0
C4293 C 0.87503 0.12368 0.281 0.0
C4294 C 0.87572 0.13031 0.28416 0.0
H4295 H 0.63057 0.13494 0.04832 0.0
H4296 H 0.64326 0.12833 0.03086 0.0
H4297 H 0.62112 0.12385 0.03099 0.0
H4298 H 0.62941 0.11255 0.0244 0.0
C4299 C 0.63418 0.1156 0.02297 0.0
O4300 O 0.63285 0.12268 0.0238 0.0
H4301 H 0.6385 0.11392 0.02655 0.0
C4302 C 0.63102 0.13229 0.0433 0.0
C4303 C 0.62503 0.12933 0.04016 0.0
C4304 C 0.63759 0.13195 0.04 0.0
C4305 C 0.63821 0.12859 0.03347 0.0
C4306 C 0.63226 0.1257 0.03021 0.0
C4307 C 0.62567 0.12611 0.03353 0.0
H4308 H 0.62353 0.1254 0.70593 0.0
H4309 H 0.62913 0.1128 0.72386 0.0
H4310 H 0.63164 0.13521 0.72461 0.0
H4311 H 0.6429 0.12771 0.73196 0.0
C4312 C 0.64016 0.12267 0.73308 0.0
O4313 O 0.63309 0.12342 0.73163 0.0
H4314 H 0.6425 0.11857 0.72962 0.0
C4315 C 0.62567 0.12497 0.71119 0.0
C4316 C 0.62764 0.13111 0.71478 0.0
C4317 C 0.62616 0.11832 0.71437 0.0
C4318 C 0.62865 0.11787 0.72131 0.0
C4319 C 0.63064 0.12394 0.72497 0.0
C4320 C 0.63008 0.13055 0.72174 0.0
H4321 H 0.62988 0.86818 0.45936 0.0
H4322 H 0.64259 0.87699 0.47583 0.0
H4323 H 0.62014 0.87933 0.47647 0.0
H4324 H 0.62785 0.89179 0.48232 0.0
C4325 C 0.63287 0.8891 0.48365 0.0
O4326 O 0.63198 0.88193 0.48307 0.0
H4327 H 0.63694 0.89096 0.47988 0.0
C4328 C 0.63029 0.87103 0.46427 0.0
C4329 C 0.62417 0.87357 0.46753 0.0
C4330 C 0.63695 0.87224 0.46719 0.0
C4331 C 0.63749 0.87609 0.47345 0.0
C4332 C 0.63143 0.87863 0.47679 0.0
C4333 C 0.62479 0.87742 0.47381 0.0
H4334 H 0.88822 0.87852 0.20875 0.0
H4335 H 0.87988 0.8928 0.22414 0.0
H4336 H 0.87654 0.87058 0.22642 0.0
H4337 H 0.86437 0.87958 0.23088 0.0
C4338 C 0.86734 0.88431 0.23259 0.0
O4339 O 0.87445 0.88296 0.23211 0.0
H4340 H 0.8659 0.88875 0.22908 0.0
C4341 C 0.88534 0.87942 0.21358 0.0
C4342 C 0.88252 0.87368 0.21726 0.0
C4343 C 0.8844 0.88633 0.21598 0.0
C4344 C 0.88055 0.8875 0.22215 0.0
C4345 C 0.87772 0.88182 0.22591 0.0
C4346 C 0.87866 0.87493 0.22343 0.0
H4347 H 0.87493 0.13292 0.95662 0.0
H4348 H 0.86177 0.12549 0.97342 0.0
H4349 H 0.8842 0.12592 0.97603 0.0
H4350 H 0.87785 0.11367 0.98275 0.0
C4351 C 0.87238 0.11562 0.9834 0.0
O4352 O 0.87217 0.12274 0.98201 0.0
H4353 H 0.869 0.11274 0.9796 0.0
C4354 C 0.87437 0.13079 0.96188 0.0
C4355 C 0.88039 0.12966 0.96599 0.0
C4356 C 0.86764 0.1293 0.96447 0.0
C4357 C 0.86693 0.12663 0.97131 0.0
C4358 C 0.8729 0.12533 0.97543 0.0
C4359 C 0.87962 0.12684 0.97277 0.0
H4360 H 0.79971 0.62355 0.88054 0.0
H4361 H 0.78171 0.6293 0.89297 0.0
H4362 H 0.78111 0.6316 0.87054 0.0
H4363 H 0.77371 0.64295 0.87784 0.0
C4364 C 0.77263 0.64029 0.88293 0.0
O4365 O 0.77403 0.6332 0.88227 0.0
H4366 H 0.77613 0.64268 0.88696 0.0
C4367 C 0.79445 0.62569 0.88092 0.0
C4368 C 0.79089 0.62761 0.87474 0.0
C4369 C 0.79123 0.62625 0.88754 0.0
C4370 C 0.78429 0.62876 0.88793 0.0
C4371 C 0.78067 0.63071 0.88181 0.0
C4372 C 0.78395 0.63007 0.87523 0.0
H4373 H 0.29774 0.88413 0.12546 0.0
H4374 H 0.28093 0.87601 0.1127 0.0
H4375 H 0.27898 0.87608 0.13518 0.0
H4376 H 0.27202 0.8638 0.1289 0.0
C4377 C 0.27152 0.86576 0.12342 0.0
O4378 O 0.27274 0.87291 0.12329 0.0
H4379 H 0.27551 0.86298 0.12016 0.0
C4380 C 0.29259 0.88174 0.12502 0.0
C4381 C 0.28874 0.8803 0.13115 0.0
C4382 C 0.28987 0.88022 0.11832 0.0
C4383 C 0.28315 0.87721 0.1178 0.0
C4384 C 0.27927 0.87567 0.12387 0.0
C4385 C 0.28207 0.8772 0.13053 0.0
H4386 H 0.87079 0.54878 0.87563 0.0
H4387 H 0.87788 0.53133 0.86316 0.0
H4388 H 0.88142 0.53139 0.88546 0.0
H4389 H 0.89281 0.52419 0.87813 0.0
C4390 C 0.89018 0.52332 0.87299 0.0
O4391 O 0.88303 0.52423 0.87378 0.0
H4392 H 0.89231 0.52724 0.86921 0.0
C4393 C 0.87342 0.54374 0.87526 0.0
C4394 C 0.87614 0.54059 0.88136 0.0
C4395 C 0.874 0.54046 0.86868 0.0
C4396 C 0.87741 0.53394 0.8682 0.0
C4397 C 0.88003 0.53066 0.87425 0.0
C4398 C 0.87935 0.53395 0.88082 0.0
H4399 H 0.20634 0.12357 0.62532 0.0
H4400 H 0.22372 0.12977 0.61223 0.0
H4401 H 0.22537 0.13142 0.63465 0.0
H4402 H 0.23275 0.14277 0.62771 0.0
C4403 C 0.23333 0.14046 0.62238 0.0
O4404 O 0.2319 0.13335 0.62267 0.0
H4405 H 0.2295 0.14314 0.61886 0.0
C4406 C 0.21156 0.12575 0.62475 0.0
C4407 C 0.2154 0.12752 0.63081 0.0
C4408 C 0.21448 0.1265 0.618 0.0
C4409 C 0.22137 0.12908 0.61737 0.0
C4410 C 0.22527 0.13086 0.62336 0.0
C4411 C 0.22231 0.13001 0.63006 0.0
H4412 H 0.13444 0.9563 0.87543 0.0
H4413 H 0.12643 0.97327 0.8628 0.0
H4414 H 0.12646 0.97501 0.88529 0.0
H4415 H 0.11419 0.98193 0.87896 0.0
C4416 C 0.11622 0.98265 0.87353 0.0
O4417 O 0.12336 0.98139 0.87345 0.0
H4418 H 0.11347 0.97882 0.87007 0.0
C4419 C 0.13207 0.96146 0.87502 0.0
C4420 C 0.13063 0.96527 0.88118 0.0
C4421 C 0.13057 0.96425 0.86835 0.0
C4422 C 0.12761 0.971 0.86788 0.0
C4423 C 0.12608 0.97483 0.87398 0.0
C4424 C 0.12757 0.97196 0.88061 0.0
H4425 H 0.70554 0.38042 0.38049 0.0
H4426 H 0.72337 0.37559 0.39349 0.0
H4427 H 0.72506 0.37402 0.37103 0.0
H4428 H 0.733 0.36303 0.3778 0.0
C4429 C 0.73338 0.36524 0.38319 0.0
O4430 O 0.73168 0.3723 0.38301 0.0
H4431 H 0.72958 0.36234 0.38656 0.0
C4432 C 0.71093 0.37866 0.38099 0.0
C4433 C 0.71487 0.37723 0.37491 0.0
C4434 C 0.71393 0.37813 0.3877 0.0
C4435 C 0.72098 0.37607 0.38835 0.0
C4436 C 0.72496 0.37451 0.38234 0.0
C4437 C 0.72194 0.37521 0.37563 0.0
H4438 H 0.87045 0.45774 0.62889 0.0
H4439 H 0.87699 0.47448 0.64257 0.0
H4440 H 0.88151 0.4756 0.62047 0.0
H4441 H 0.89277 0.48155 0.6291 0.0
C4442 C 0.88974 0.48288 0.63391 0.0
O4443 O 0.88265 0.48211 0.63258 0.0
H4444 H 0.89141 0.4792 0.63814 0.0
C4445 C 0.87307 0.46274 0.62964 0.0
C4446 C 0.87604 0.46621 0.62385 0.0
C4447 C 0.87336 0.46567 0.6364 0.0
C4448 C 0.87675 0.47215 0.63739 0.0
C4449 C 0.87964 0.47574 0.63163 0.0
C4450 C 0.87924 0.4728 0.62488 0.0
H4451 H 0.63251 0.54979 0.13008 0.0
H4452 H 0.62662 0.53234 0.14323 0.0
H4453 H 0.62436 0.53083 0.12085 0.0
H4454 H 0.61291 0.52402 0.1285 0.0
C4455 C 0.61562 0.52288 0.13355 0.0
O4456 O 0.6227 0.52424 0.13284 0.0
H4457 H 0.6133 0.52637 0.13764 0.0
C4458 C 0.63033 0.54456 0.13067 0.0
C4459 C 0.62841 0.54076 0.12465 0.0
C4460 C 0.62974 0.54161 0.13742 0.0
C4461 C 0.62717 0.53471 0.13809 0.0
C4462 C 0.62521 0.53086 0.13212 0.0
C4463 C 0.62589 0.53385 0.12542 0.0
H4464 H 0.62636 0.70645 0.88275 0.0
H4465 H 0.61298 0.72297 0.87501 0.0
H4466 H 0.6354 0.7254 0.87436 0.0
H4467 H 0.62799 0.73816 0.8784 0.0
C4468 C 0.62284 0.7373 0.87576 0.0
O4469 O 0.6233 0.73139 0.87157 0.0
H4470 H 0.61879 0.73651 0.87989 0.0
C4471 C 0.62572 0.71158 0.88035 0.0
C4472 C 0.63171 0.71557 0.87872 0.0
C4473 C 0.61893 0.71415 0.87903 0.0
C4474 C 0.61817 0.72086 0.87605 0.0
C4475 C 0.6241 0.7249 0.87435 0.0
C4476 C 0.63085 0.72222 0.87562 0.0
H4477 H 0.5512 0.37555 0.12846 0.0
H4478 H 0.53335 0.36231 0.1244 0.0
H4479 H 0.53161 0.38468 0.1218 0.0
H4480 H 0.5188 0.37797 0.1276 0.0
C4481 C 0.5194 0.37262 0.12533 0.0
O4482 O 0.52498 0.37262 0.12071 0.0
H4483 H 0.52041 0.36888 0.1297 0.0
C4484 C 0.54579 0.37495 0.12677 0.0
C4485 C 0.54183 0.38095 0.12511 0.0
C4486 C 0.5428 0.36822 0.12657 0.0
C4487 C 0.53573 0.36748 0.12463 0.0
C4488 C 0.53171 0.37341 0.12287 0.0
C4489 C 0.53475 0.38013 0.12317 0.0
H4490 H 0.88058 0.30088 0.38099 0.0
H4491 H 0.89349 0.2836 0.3743 0.0
H4492 H 0.87101 0.2814 0.37466 0.0
H4493 H 0.87852 0.26879 0.37926 0.0
C4494 C 0.88355 0.26947 0.37635 0.0
O4495 O 0.88295 0.27508 0.37179 0.0
H4496 H 0.88774 0.27053 0.38029 0.0
C4497 C 0.88105 0.29555 0.37905 0.0
C4498 C 0.87497 0.2915 0.37806 0.0
C4499 C 0.88774 0.29278 0.3777 0.0
C4500 C 0.88836 0.28584 0.3753 0.0
C4501 C 0.88232 0.28176 0.37414 0.0
C4502 C 0.87563 0.28461 0.37547 0.0
H4503 H 0.95473 0.63096 0.63043 0.0
H4504 H 0.97268 0.64378 0.62546 0.0
H4505 H 0.97367 0.62142 0.62262 0.0
H4506 H 0.9868 0.62759 0.62814 0.0
C4507 C 0.9863 0.633 0.626 0.0
O4508 O 0.98062 0.63329 0.6215 0.0
H4509 H 0.98547 0.63663 0.63052 0.0
C4510 C 0.96003 0.63146 0.62842 0.0
C4511 C 0.96373 0.62539 0.62645 0.0
C4512 C 0.96317 0.63814 0.62811 0.0
C4513 C 0.97016 0.63869 0.62579 0.0
C4514 C 0.97393 0.63267 0.62383 0.0
C4515 C 0.97073 0.62603 0.62418 0.0
H4516 H 0.62582 0.30082 0.62565 0.0
H4517 H 0.61315 0.28294 0.63124 0.0
H4518 H 0.63555 0.28211 0.63379 0.0
H4519 H 0.62947 0.26867 0.62898 0.0
C4520 C 0.62401 0.26933 0.63093 0.0
O4521 O 0.62374 0.27515 0.63527 0.0
H4522 H 0.62051 0.2701 0.62631 0.0
C4523 C 0.62537 0.29557 0.62779 0.0
C4524 C 0.63149 0.29194 0.62976 0.0
C4525 C 0.61872 0.29241 0.62828 0.0
C4526 C 0.61823 0.28547 0.63077 0.0
C4527 C 0.62429 0.28177 0.63274 0.0
C4528 C 0.63091 0.285 0.63222 0.0
H4529 H 0.95635 0.37524 0.87364 0.0
H4530 H 0.97361 0.36252 0.88078 0.0
H4531 H 0.97514 0.38503 0.88154 0.0
H4532 H 0.98834 0.37833 0.87763 0.0
C4533 C 0.98754 0.37302 0.87995 0.0
O4534 O 0.98166 0.37315 0.88419 0.0
H4535 H 0.98678 0.36923 0.87556 0.0
C4536 C 0.96158 0.37482 0.87586 0.0
C4537 C 0.96537 0.38096 0.87738 0.0
C4538 C 0.96446 0.36814 0.87707 0.0
C4539 C 0.97128 0.36762 0.87984 0.0
C4540 C 0.9751 0.37371 0.88149 0.0
C4541 C 0.97212 0.38037 0.88032 0.0
H4542 H 0.87994 0.70812 0.12004 0.0
H4543 H 0.89311 0.72433 0.12873 0.0
H4544 H 0.87073 0.72515 0.13171 0.0
H4545 H 0.87669 0.73868 0.12843 0.0
C4546 C 0.88221 0.73796 0.13021 0.0
O4547 O 0.88269 0.73172 0.13389 0.0
H4548 H 0.88562 0.73776 0.12546 0.0
C4549 C 0.88052 0.71298 0.12297 0.0
C4550 C 0.87453 0.71626 0.12574 0.0
C4551 C 0.88725 0.71578 0.12407 0.0
C4552 C 0.88796 0.72202 0.12794 0.0
C4553 C 0.882 0.72545 0.13061 0.0
C4554 C 0.87531 0.72248 0.12964 0.0
H4555 H 0.55017 0.62989 0.37511 0.0
H4556 H 0.5329 0.64338 0.38071 0.0
H4557 H 0.53103 0.62106 0.3833 0.0
H4558 H 0.51801 0.62762 0.37835 0.0
C4559 C 0.51881 0.63305 0.38037 0.0
O4560 O 0.52461 0.63318 0.38472 0.0
H4561 H 0.51968 0.63654 0.37575 0.0
C4562 C 0.54494 0.63059 0.37726 0.0
C4563 C 0.54103 0.62465 0.37924 0.0
C4564 C 0.5421 0.63739 0.37774 0.0
C4565 C 0.53519 0.6382 0.38025 0.0
C4566 C 0.53122 0.63232 0.38222 0.0
C4567 C 0.53413 0.62556 0.38171 0.0
H4568 H 0.88316 0.62616 0.70622 0.0
H4569 H 0.87686 0.61286 0.72338 0.0
H4570 H 0.87257 0.63501 0.72415 0.0
H4571 H 0.87683 0.62935 0.73773 0.0
C4572 C 0.87538 0.62374 0.737 0.0
O4573 O 0.87147 0.62304 0.73093 0.0
H4574 H 0.88034 0.62067 0.73656 0.0
C4575 C 0.88065 0.62552 0.7113 0.0
C4576 C 0.87783 0.63141 0.71473 0.0
C4577 C 0.88035 0.61882 0.71435 0.0
C4578 C 0.87711 0.61799 0.72093 0.0
C4579 C 0.87439 0.62384 0.72449 0.0
C4580 C 0.87474 0.63053 0.72138 0.0
H4581 H 0.63012 0.6293 0.95491 0.0
H4582 H 0.64384 0.62489 0.97231 0.0
H4583 H 0.6215 0.62281 0.97479 0.0
H4584 H 0.62853 0.62835 0.98737 0.0
C4585 C 0.63387 0.62608 0.9866 0.0
O4586 O 0.63373 0.62145 0.98102 0.0
H4587 H 0.63753 0.6305 0.98546 0.0
C4588 C 0.63085 0.62758 0.96029 0.0
C4589 C 0.62496 0.62606 0.96446 0.0
C4590 C 0.63768 0.6272 0.96305 0.0
C4591 C 0.63861 0.62524 0.9701 0.0
C4592 C 0.63278 0.62362 0.97431 0.0
C4593 C 0.62597 0.62407 0.9715 0.0
H4594 H 0.6222 0.37961 0.20618 0.0
H4595 H 0.62833 0.39322 0.22315 0.0
H4596 H 0.63246 0.37107 0.22445 0.0
H4597 H 0.62753 0.37723 0.23762 0.0
C4598 C 0.62945 0.38272 0.23698 0.0
O4599 O 0.63352 0.38317 0.231 0.0
H4600 H 0.62476 0.38618 0.23648 0.0
C4601 C 0.62465 0.38034 0.21127 0.0
C4602 C 0.62738 0.37451 0.21487 0.0
C4603 C 0.62494 0.38711 0.21419 0.0
C4604 C 0.6281 0.38805 0.2208 0.0
C4605 C 0.63073 0.38225 0.22452 0.0
C4606 C 0.63038 0.37551 0.22155 0.0
H4607 H 0.87607 0.37281 0.45659 0.0
H4608 H 0.86339 0.37924 0.47414 0.0
H4609 H 0.88556 0.38351 0.47413 0.0
H4610 H 0.88029 0.37932 0.48795 0.0
C4611 C 0.87466 0.38076 0.48738 0.0
O4612 O 0.87383 0.38465 0.48131 0.0
H4613 H 0.87155 0.37582 0.48705 0.0
C4614 C 0.87562 0.37536 0.46167 0.0
C4615 C 0.88162 0.37821 0.46487 0.0
C4616 C 0.86903 0.37569 0.46495 0.0
C4617 C 0.86843 0.37897 0.47153 0.0
C4618 C 0.87441 0.3817 0.47487 0.0
C4619 C 0.88099 0.38133 0.47154 0.0
H4620 H 0.88422 0.38087 0.79937 0.0
H4621 H 0.87787 0.39414 0.78221 0.0
H4622 H 0.87403 0.37191 0.78126 0.0
H4623 H 0.87875 0.37792 0.76792 0.0
C4624 C 0.87684 0.38341 0.76854 0.0
O4625 O 0.87279 0.3839 0.77453 0.0
H4626 H 0.88154 0.38687 0.76901 0.0
C4627 C 0.88176 0.38149 0.79427 0.0
C4628 C 0.87909 0.37557 0.79077 0.0
C4629 C 0.88136 0.3882 0.79125 0.0
C4630 C 0.87818 0.389 0.78464 0.0
C4631 C 0.87562 0.38312 0.78101 0.0
C4632 C 0.87607 0.37642 0.78408 0.0
H4633 H 0.876 0.62994 0.05102 0.0
H4634 H 0.86285 0.62456 0.03342 0.0
H4635 H 0.88524 0.62256 0.03176 0.0
H4636 H 0.87847 0.62815 0.019 0.0
C4637 C 0.87319 0.62569 0.01953 0.0
O4638 O 0.87324 0.62109 0.02514 0.0
H4639 H 0.86932 0.62996 0.02047 0.0
C4640 C 0.87541 0.62792 0.04573 0.0
C4641 C 0.88144 0.6262 0.04184 0.0
C4642 C 0.86866 0.62738 0.04278 0.0
C4643 C 0.86799 0.62506 0.0358 0.0
C4644 C 0.87397 0.62335 0.03184 0.0
C4645 C 0.88067 0.62393 0.03486 0.0
H4646 H 0.62398 0.62593 0.30049 0.0
H4647 H 0.63068 0.61218 0.28386 0.0
H4648 H 0.63093 0.63455 0.28078 0.0
H4649 H 0.62621 0.62667 0.26851 0.0
C4650 C 0.62909 0.62165 0.26932 0.0
O4651 O 0.63358 0.62231 0.27498 0.0
H4652 H 0.62511 0.61749 0.2704 0.0
C4653 C 0.62602 0.6252 0.29522 0.0
C4654 C 0.62725 0.63109 0.29096 0.0
C4655 C 0.62725 0.61836 0.29275 0.0
C4656 C 0.62976 0.61742 0.28588 0.0
C4657 C 0.63114 0.62326 0.28159 0.0
C4658 C 0.62995 0.63008 0.28416 0.0
H4659 H 0.63084 0.37555 0.5503 0.0
H4660 H 0.64357 0.38091 0.5324 0.0
H4661 H 0.62118 0.38349 0.53147 0.0
H4662 H 0.62714 0.3787 0.51804 0.0
C4663 C 0.63265 0.38051 0.51876 0.0
O4664 O 0.63302 0.38488 0.52453 0.0
H4665 H 0.63597 0.37577 0.5196 0.0
C4666 C 0.63131 0.37763 0.54502 0.0
C4667 C 0.62521 0.37956 0.54136 0.0
C4668 C 0.63797 0.37807 0.54188 0.0
C4669 C 0.63849 0.38048 0.53492 0.0
C4670 C 0.63244 0.38243 0.53118 0.0
C4671 C 0.62581 0.38195 0.53439 0.0
H4672 H 0.70424 0.87939 0.62619 0.0
H4673 H 0.72143 0.8752 0.61214 0.0
H4674 H 0.72421 0.87265 0.63439 0.0
H4675 H 0.73633 0.8789 0.62709 0.0
C4676 C 0.7358 0.87631 0.62188 0.0
O4677 O 0.73028 0.87161 0.62206 0.0
H4678 H 0.73474 0.88047 0.61791 0.0
C4679 C 0.70959 0.87765 0.62534 0.0
C4680 C 0.71383 0.87598 0.63115 0.0
C4681 C 0.71226 0.87741 0.61846 0.0
C4682 C 0.71929 0.87544 0.6174 0.0
C4683 C 0.72357 0.8737 0.62315 0.0
C4684 C 0.72085 0.874 0.63 0.0
H4685 H 0.20615 0.62243 0.38052 0.0
H4686 H 0.22331 0.62837 0.39398 0.0
H4687 H 0.22421 0.63298 0.3719 0.0
H4688 H 0.23756 0.62814 0.37767 0.0
C4689 C 0.23696 0.62983 0.38323 0.0
O4690 O 0.23095 0.63383 0.38391 0.0
H4691 H 0.23652 0.62499 0.3865 0.0
C4692 C 0.21124 0.62488 0.38122 0.0
C4693 C 0.21473 0.62776 0.37539 0.0
C4694 C 0.21428 0.62506 0.38794 0.0
C4695 C 0.22087 0.62823 0.38883 0.0
C4696 C 0.22448 0.63101 0.38304 0.0
C4697 C 0.2214 0.63078 0.37633 0.0
H4698 H 0.63341 0.95636 0.62895 0.0
H4699 H 0.62788 0.97294 0.64326 0.0
H4700 H 0.6228 0.97483 0.62133 0.0
H4701 H 0.62815 0.98773 0.62767 0.0
C4702 C 0.62628 0.98706 0.63317 0.0
O4703 O 0.62224 0.98105 0.63363 0.0
H4704 H 0.63101 0.98655 0.63658 0.0
C4705 C 0.63099 0.96143 0.62992 0.0
C4706 C 0.62801 0.96517 0.62431 0.0
C4707 C 0.631 0.96417 0.63676 0.0
C4708 C 0.62788 0.97074 0.63802 0.0
C4709 C 0.625 0.97461 0.63244 0.0
C4710 C 0.62506 0.97182 0.6256 0.0
H4711 H 0.29869 0.3853 0.88046 0.0
H4712 H 0.2824 0.37683 0.89365 0.0
H4713 H 0.28149 0.37385 0.87128 0.0
H4714 H 0.26795 0.37729 0.87728 0.0
C4715 C 0.26873 0.37553 0.88279 0.0
O4716 O 0.27492 0.37176 0.88326 0.0
H4717 H 0.26905 0.38033 0.88613 0.0
C4718 C 0.2938 0.38243 0.88104 0.0
C4719 C 0.29047 0.3797 0.87505 0.0
C4720 C 0.291 0.38137 0.88778 0.0
C4721 C 0.28471 0.37758 0.88851 0.0
C4722 C 0.28123 0.37496 0.88255 0.0
C4723 C 0.28419 0.37589 0.87585 0.0
H4724 H 0.37185 0.54933 0.62987 0.0
H4725 H 0.37978 0.53301 0.64341 0.0
H4726 H 0.38098 0.5307 0.62098 0.0
H4727 H 0.37689 0.51782 0.62817 0.0
C4728 C 0.37936 0.5187 0.6334 0.0
O4729 O 0.38351 0.52464 0.63314 0.0
H4730 H 0.37503 0.51944 0.63727 0.0
C4731 C 0.37439 0.54429 0.63058 0.0
C4732 C 0.37628 0.54036 0.62463 0.0
C4733 C 0.3757 0.54176 0.63739 0.0
C4734 C 0.37879 0.53511 0.63821 0.0
C4735 C 0.38068 0.53111 0.6323 0.0
C4736 C 0.37953 0.5338 0.62552 0.0
H4737 H 0.79925 0.12198 0.12627 0.0
H4738 H 0.78189 0.12817 0.11322 0.0
H4739 H 0.78183 0.1333 0.13524 0.0
H4740 H 0.7678 0.12983 0.1304 0.0
C4741 C 0.76859 0.1304 0.12464 0.0
O4742 O 0.77473 0.13409 0.12342 0.0
H4743 H 0.76898 0.12502 0.12237 0.0
C4744 C 0.79422 0.1246 0.12569 0.0
C4745 C 0.79103 0.12771 0.13156 0.0
C4746 C 0.79099 0.12474 0.11908 0.0
C4747 C 0.78446 0.12806 0.1183 0.0
C4748 C 0.78112 0.13107 0.12415 0.0
C4749 C 0.78442 0.13091 0.13076 0.0
H4750 H 0.63002 0.05069 0.87513 0.0
H4751 H 0.6249 0.03295 0.86205 0.0
H4752 H 0.62213 0.03164 0.8844 0.0
H4753 H 0.62756 0.01861 0.87807 0.0
C4754 C 0.62541 0.01917 0.87267 0.0
O4755 O 0.62094 0.02488 0.87244 0.0
H4756 H 0.62992 0.02002 0.86904 0.0
C4757 C 0.62798 0.04541 0.87455 0.0
C4758 C 0.62601 0.04163 0.88057 0.0
C4759 C 0.62763 0.04237 0.86783 0.0
C4760 C 0.62527 0.0354 0.86718 0.0
C4761 C 0.6233 0.03155 0.87315 0.0
C4762 C 0.62369 0.03465 0.87983 0.0
H4763 H 0.87626 0.95467 0.37551 0.0
H4764 H 0.88067 0.97214 0.36187 0.0
H4765 H 0.88264 0.97455 0.38422 0.0
H4766 H 0.87675 0.98694 0.37704 0.0
C4767 C 0.87931 0.98635 0.37182 0.0
O4768 O 0.884 0.98083 0.37202 0.0
H4769 H 0.87511 0.98527 0.36789 0.0
C4770 C 0.87797 0.96006 0.3748 0.0
C4771 C 0.87945 0.96421 0.38072 0.0
C4772 C 0.87836 0.96285 0.36798 0.0
C4773 C 0.88031 0.96991 0.36709 0.0
C4774 C 0.88189 0.9741 0.37295 0.0
C4775 C 0.88142 0.97126 0.37974 0.0
H4776 H 0.37924 0.30039 0.12516 0.0
H4777 H 0.39293 0.28304 0.12993 0.0
H4778 H 0.3706 0.28069 0.13216 0.0
H4779 H 0.37851 0.27397 0.14339 0.0
C4780 C 0.38354 0.27288 0.14062 0.0
O4781 O 0.3828 0.27445 0.13358 0.0
H4782 H 0.38766 0.27628 0.14301 0.0
C4783 C 0.37997 0.29504 0.127 0.0
C4784 C 0.37407 0.29094 0.12867 0.0
C4785 C 0.3868 0.29227 0.12741 0.0
C4786 C 0.3877 0.28526 0.12954 0.0
C4787 C 0.38187 0.28113 0.13132 0.0
C4788 C 0.37507 0.28394 0.13079 0.0
H4789 H 0.45715 0.63032 0.87312 0.0
H4790 H 0.47478 0.64323 0.87896 0.0
H4791 H 0.476 0.62082 0.88122 0.0
H4792 H 0.48301 0.62824 0.89264 0.0
C4793 C 0.48404 0.63336 0.89003 0.0
O4794 O 0.48273 0.63274 0.88292 0.0
H4795 H 0.48045 0.63732 0.8924 0.0
C4796 C 0.4624 0.63083 0.87528 0.0
C4797 C 0.46612 0.62475 0.8772 0.0
C4798 C 0.46543 0.63754 0.87587 0.0
C4799 C 0.47234 0.63812 0.87841 0.0
C4800 C 0.47612 0.6321 0.88037 0.0
C4801 C 0.47304 0.62543 0.87969 0.0
H4802 H 0.12513 0.70565 0.62362 0.0
H4803 H 0.11252 0.72358 0.62918 0.0
H4804 H 0.13494 0.72445 0.63146 0.0
H4805 H 0.12795 0.73228 0.64252 0.0
C4806 C 0.12269 0.73293 0.64008 0.0
O4807 O 0.12314 0.73143 0.63299 0.0
H4808 H 0.11904 0.72918 0.64269 0.0
C4809 C 0.1247 0.71093 0.62571 0.0
C4810 C 0.13084 0.71457 0.6276 0.0
C4811 C 0.11805 0.71409 0.62623 0.0
C4812 C 0.11758 0.72105 0.62868 0.0
C4813 C 0.12366 0.72475 0.63058 0.0
C4814 C 0.13028 0.72154 0.62996 0.0
H4815 H 0.04999 0.37621 0.37324 0.0
H4816 H 0.03261 0.36302 0.37921 0.0
H4817 H 0.03103 0.3854 0.38142 0.0
H4818 H 0.02384 0.3781 0.39271 0.0
C4819 C 0.0231 0.37287 0.3902 0.0
O4820 O 0.02448 0.37339 0.3831 0.0
H4821 H 0.02684 0.36913 0.3927 0.0
C4822 C 0.04478 0.37561 0.37544 0.0
C4823 C 0.04097 0.38163 0.37737 0.0
C4824 C 0.04185 0.36886 0.37604 0.0
C4825 C 0.03497 0.36817 0.37864 0.0
C4826 C 0.0311 0.37413 0.38059 0.0
C4827 C 0.03407 0.38084 0.37989 0.0
H4828 H 0.38013 0.70846 0.38564 0.0
H4829 H 0.39392 0.72454 0.37765 0.0
H4830 H 0.37154 0.72699 0.37602 0.0
H4831 H 0.37958 0.73249 0.36376 0.0
C4832 C 0.38457 0.73389 0.36646 0.0
O4833 O 0.38378 0.73291 0.3736 0.0
H4834 H 0.38879 0.73041 0.36441 0.0
C4835 C 0.38092 0.71345 0.38302 0.0
C4836 C 0.37505 0.71739 0.38095 0.0
C4837 C 0.38778 0.7159 0.38179 0.0
C4838 C 0.38869 0.7225 0.37859 0.0
C4839 C 0.38285 0.72647 0.37648 0.0
C4840 C 0.37604 0.72388 0.3776 0.0
H4841 H 0.05026 0.62921 0.13077 0.0
H4842 H 0.03292 0.64293 0.1261 0.0
H4843 H 0.03042 0.62057 0.12419 0.0
H4844 H 0.02311 0.62798 0.11317 0.0
C4845 C 0.02255 0.63325 0.11563 0.0
O4846 O 0.02423 0.6328 0.12267 0.0
H4847 H 0.02625 0.63688 0.11292 0.0
C4848 C 0.0449 0.62994 0.129 0.0
C4849 C 0.04074 0.62404 0.12747 0.0
C4850 C 0.04215 0.63677 0.12857 0.0
C4851 C 0.03512 0.63769 0.12651 0.0
C4852 C 0.03093 0.63186 0.12486 0.0
C4853 C 0.03371 0.62504 0.12545 0.0
H4854 H 0.1253 0.29988 0.88145 0.0
H4855 H 0.11206 0.28216 0.87688 0.0
H4856 H 0.13446 0.28034 0.8747 0.0
H4857 H 0.12676 0.27335 0.86348 0.0
C4858 C 0.12172 0.27219 0.86622 0.0
O4859 O 0.1224 0.27379 0.87326 0.0
H4860 H 0.11758 0.27553 0.86379 0.0
C4861 C 0.12471 0.2945 0.87968 0.0
C4862 C 0.13072 0.29053 0.87807 0.0
C4863 C 0.11797 0.29156 0.8793 0.0
C4864 C 0.11723 0.28451 0.87725 0.0
C4865 C 0.12317 0.2805 0.87551 0.0
C4866 C 0.1299 0.28348 0.87602 0.0
H4867 H 0.45806 0.375 0.63513 0.0
H4868 H 0.4754 0.36214 0.62853 0.0
H4869 H 0.47549 0.38429 0.62407 0.0
H4870 H 0.48203 0.37592 0.61279 0.0
C4871 C 0.48344 0.37115 0.61586 0.0
O4872 O 0.48257 0.3725 0.62293 0.0
H4873 H 0.47988 0.36683 0.61417 0.0
C4874 C 0.46308 0.3745 0.63248 0.0
C4875 C 0.46627 0.38046 0.62953 0.0
C4876 C 0.46631 0.3679 0.63215 0.0
C4877 C 0.47283 0.36722 0.62879 0.0
C4878 C 0.47615 0.37314 0.62592 0.0
C4879 C 0.47289 0.37976 0.62632 0.0
H4880 H 0.12086 0.38018 0.29804 0.0
H4881 H 0.12727 0.39323 0.28077 0.0
H4882 H 0.13187 0.37111 0.28048 0.0
H4883 H 0.14299 0.37937 0.27379 0.0
C4884 C 0.13998 0.38423 0.27257 0.0
O4885 O 0.1329 0.38298 0.27348 0.0
H4886 H 0.14177 0.3884 0.27627 0.0
C4887 C 0.12347 0.38074 0.29301 0.0
C4888 C 0.12646 0.37483 0.28976 0.0
C4889 C 0.12372 0.38738 0.28982 0.0
C4890 C 0.12706 0.38814 0.28329 0.0
C4891 C 0.12995 0.38226 0.27991 0.0
C4892 C 0.1296 0.37561 0.28312 0.0
H4893 H 0.37694 0.37028 0.04916 0.0
H4894 H 0.36346 0.37662 0.03215 0.0
H4895 H 0.38561 0.38075 0.03106 0.0
H4896 H 0.37678 0.39212 0.0252 0.0
C4897 C 0.37213 0.389 0.02356 0.0
O4898 O 0.37356 0.38194 0.02447 0.0
H4899 H 0.3676 0.39057 0.02691 0.0
C4900 C 0.37625 0.37277 0.04408 0.0
C4901 C 0.38211 0.37553 0.04055 0.0
C4902 C 0.3695 0.37312 0.04111 0.0
C4903 C 0.36862 0.37634 0.03453 0.0
C4904 C 0.37443 0.37906 0.03091 0.0
C4905 C 0.38116 0.37862 0.0339 0.0
H4906 H 0.38075 0.62576 0.80014 0.0
H4907 H 0.37606 0.61278 0.78227 0.0
H4908 H 0.37418 0.63523 0.78068 0.0
H4909 H 0.36313 0.62818 0.773 0.0
C4910 C 0.36552 0.62289 0.77236 0.0
O4911 O 0.37258 0.62325 0.77401 0.0
H4912 H 0.36278 0.61926 0.77605 0.0
C4913 C 0.37899 0.62526 0.79475 0.0
C4914 C 0.37747 0.63134 0.79084 0.0
C4915 C 0.37854 0.61855 0.79172 0.0
C4916 C 0.37648 0.61792 0.78467 0.0
C4917 C 0.37483 0.62392 0.78072 0.0
C4918 C 0.37543 0.63062 0.78377 0.0
H4919 H 0.12929 0.63498 0.54822 0.0
H4920 H 0.14238 0.62832 0.53106 0.0
H4921 H 0.12013 0.62466 0.53029 0.0
H4922 H 0.12792 0.61332 0.52351 0.0
C4923 C 0.13298 0.61608 0.52256 0.0
O4924 O 0.13206 0.62321 0.52353 0.0
H4925 H 0.13689 0.61401 0.52639 0.0
C4926 C 0.12985 0.63246 0.54315 0.0
C4927 C 0.12389 0.62979 0.53972 0.0
C4928 C 0.13654 0.63199 0.54008 0.0
C4929 C 0.13727 0.62871 0.53351 0.0
C4930 C 0.13135 0.62611 0.52998 0.0
C4931 C 0.12467 0.6267 0.53305 0.0
H4932 H 0.12028 0.62673 0.20721 0.0
H4933 H 0.12639 0.61325 0.22429 0.0
H4934 H 0.13069 0.63538 0.22534 0.0
H4935 H 0.14196 0.62646 0.23127 0.0
C4936 C 0.13878 0.62184 0.23294 0.0
O4937 O 0.13175 0.62334 0.23197 0.0
H4938 H 0.14033 0.61727 0.22965 0.0
C4939 C 0.12273 0.62604 0.2123 0.0
C4940 C 0.12551 0.63189 0.21583 0.0
C4941 C 0.123 0.6193 0.21529 0.0
C4942 C 0.12617 0.61841 0.22189 0.0
C4943 C 0.12892 0.62421 0.22551 0.0
C4944 C 0.12854 0.63094 0.22251 0.0
H4945 H 0.12964 0.37287 0.95687 0.0
H4946 H 0.143 0.37899 0.97408 0.0
H4947 H 0.12063 0.38101 0.97593 0.0
H4948 H 0.12799 0.3924 0.98289 0.0
C4949 C 0.13321 0.3899 0.98369 0.0
O4950 O 0.13271 0.38279 0.98233 0.0
H4951 H 0.13697 0.39239 0.97996 0.0
C4952 C 0.1303 0.37508 0.96207 0.0
C4953 C 0.12431 0.37697 0.96595 0.0
C4954 C 0.13709 0.37574 0.96491 0.0
C4955 C 0.13783 0.37836 0.97178 0.0
C4956 C 0.13191 0.38027 0.97573 0.0
C4957 C 0.12517 0.3795 0.97284 0.0
H4958 H 0.38272 0.37991 0.70584 0.0
H4959 H 0.37693 0.393 0.72336 0.0
H4960 H 0.37439 0.37064 0.72471 0.0
H4961 H 0.36296 0.37863 0.73132 0.0
C4962 C 0.36584 0.38351 0.73276 0.0
O4963 O 0.3729 0.3826 0.73139 0.0
H4964 H 0.36371 0.38789 0.72952 0.0
C4965 C 0.38052 0.38049 0.71106 0.0
C4966 C 0.37852 0.37446 0.71482 0.0
C4967 C 0.38 0.38723 0.71405 0.0
C4968 C 0.37743 0.38787 0.72095 0.0
C4969 C 0.37539 0.3819 0.72476 0.0
C4970 C 0.37599 0.37522 0.72172 0.0
H4971 H 0.37627 0.63071 0.45541 0.0
H4972 H 0.3625 0.62587 0.47266 0.0
H4973 H 0.38486 0.62415 0.47528 0.0
H4974 H 0.37707 0.61276 0.48197 0.0
C4975 C 0.37198 0.61544 0.483 0.0
O4976 O 0.37261 0.62249 0.48139 0.0
H4977 H 0.36794 0.61296 0.47957 0.0
C4978 C 0.37553 0.62892 0.46076 0.0
C4979 C 0.38142 0.62745 0.46495 0.0
C4980 C 0.36869 0.62841 0.46347 0.0
C4981 C 0.36775 0.62634 0.47049 0.0
C4982 C 0.37357 0.62472 0.47471 0.0
C4983 C 0.38039 0.62538 0.47197 0.0
H4984 H 0.30038 0.12534 0.38108 0.0
H4985 H 0.28249 0.12996 0.39406 0.0
H4986 H 0.28089 0.13183 0.37161 0.0
H4987 H 0.27322 0.14286 0.3787 0.0
C4988 C 0.27251 0.14041 0.38396 0.0
O4989 O 0.27421 0.13336 0.38358 0.0
H4990 H 0.2761 0.14315 0.38768 0.0
C4991 C 0.29499 0.12709 0.38158 0.0
C4992 C 0.29107 0.12858 0.3755 0.0
C4993 C 0.29196 0.12753 0.38828 0.0
C4994 C 0.2849 0.12955 0.38892 0.0
C4995 C 0.28094 0.13118 0.38291 0.0
C4996 C 0.284 0.13059 0.37621 0.0
H4997 H 0.79973 0.38274 0.62568 0.0
H4998 H 0.78247 0.37664 0.61238 0.0
H4999 H 0.78075 0.37448 0.63475 0.0
H5000 H 0.77351 0.3632 0.62759 0.0
C5001 C 0.77297 0.36558 0.62229 0.0
O5002 O 0.7743 0.37271 0.6227 0.0
H5003 H 0.77688 0.36302 0.61877 0.0
C5004 C 0.79453 0.38051 0.62504 0.0
C5005 C 0.79069 0.37858 0.63104 0.0
C5006 C 0.79165 0.37988 0.61827 0.0
C5007 C 0.78479 0.37724 0.61754 0.0
C5008 C 0.78089 0.37528 0.62348 0.0
C5009 C 0.78381 0.37602 0.63021 0.0
H5010 H 0.37059 0.04791 0.37492 0.0
H5011 H 0.37744 0.0307 0.362 0.0
H5012 H 0.38114 0.03021 0.38426 0.0
H5013 H 0.39254 0.02349 0.37645 0.0
C5014 C 0.38974 0.0224 0.37144 0.0
O5015 O 0.38262 0.02332 0.3724 0.0
H5016 H 0.39174 0.02616 0.36743 0.0
C5017 C 0.37317 0.04286 0.37441 0.0
C5018 C 0.37589 0.03954 0.38041 0.0
C5019 C 0.37368 0.03973 0.36776 0.0
C5020 C 0.37703 0.0332 0.36709 0.0
C5021 C 0.37967 0.02975 0.37305 0.0
C5022 C 0.37906 0.0329 0.3797 0.0
H5023 H 0.70619 0.62341 0.12599 0.0
H5024 H 0.72357 0.62951 0.11284 0.0
H5025 H 0.7252 0.63141 0.13525 0.0
H5026 H 0.73251 0.64273 0.1282 0.0
C5027 C 0.73311 0.64037 0.12289 0.0
O5028 O 0.73172 0.63326 0.12325 0.0
H5029 H 0.72927 0.643 0.11934 0.0
C5030 C 0.71142 0.6256 0.1254 0.0
C5031 C 0.71525 0.62744 0.13144 0.0
C5032 C 0.71434 0.62628 0.11865 0.0
C5033 C 0.72122 0.62887 0.11799 0.0
C5034 C 0.72511 0.63074 0.12396 0.0
C5035 C 0.72215 0.62995 0.13067 0.0
H5036 H 0.63495 0.45759 0.37597 0.0
H5037 H 0.62714 0.47419 0.36273 0.0
H5038 H 0.62659 0.47649 0.38515 0.0
H5039 H 0.61416 0.48252 0.37792 0.0
C5040 C 0.61658 0.48368 0.37273 0.0
O5041 O 0.62373 0.48253 0.3731 0.0
H5042 H 0.61417 0.4801 0.36878 0.0
C5043 C 0.63256 0.46272 0.37537 0.0
C5044 C 0.63094 0.46667 0.3814 0.0
C5045 C 0.63121 0.46533 0.3686 0.0
C5046 C 0.62821 0.47205 0.36789 0.0
C5047 C 0.62649 0.47602 0.37385 0.0
C5048 C 0.62783 0.47333 0.38059 0.0
H5049 H 0.20691 0.88293 0.88068 0.0
H5050 H 0.22516 0.87775 0.89294 0.0
H5051 H 0.22548 0.87489 0.87055 0.0
H5052 H 0.2334 0.86388 0.87752 0.0
C5053 C 0.23404 0.86637 0.88277 0.0
O5054 O 0.23268 0.87348 0.88223 0.0
H5055 H 0.23019 0.86384 0.88639 0.0
C5056 C 0.21222 0.8809 0.88098 0.0
C5057 C 0.21572 0.87891 0.87479 0.0
C5058 C 0.21557 0.88054 0.88754 0.0
C5059 C 0.22252 0.87812 0.88791 0.0
C5060 C 0.22606 0.87602 0.8818 0.0
C5061 C 0.2227 0.87652 0.87524 0.0
H5062 H 0.37251 0.95608 0.13032 0.0
H5063 H 0.37966 0.97324 0.14315 0.0
H5064 H 0.37934 0.97536 0.12066 0.0
H5065 H 0.3917 0.98215 0.12722 0.0
C5066 C 0.38955 0.98303 0.13258 0.0
O5067 O 0.38243 0.98162 0.13257 0.0
H5068 H 0.39232 0.97941 0.13623 0.0
C5069 C 0.37457 0.96137 0.13077 0.0
C5070 C 0.37567 0.96537 0.12467 0.0
C5071 C 0.376 0.96413 0.13745 0.0
C5072 C 0.37858 0.97101 0.13803 0.0
C5073 C 0.3799 0.97501 0.13197 0.0
C5074 C 0.37844 0.97219 0.1253 0.0
H5075 H 0.13528 0.04888 0.63086 0.0
H5076 H 0.12866 0.03131 0.64343 0.0
H5077 H 0.12445 0.03149 0.62125 0.0
H5078 H 0.11311 0.02476 0.62942 0.0
C5079 C 0.11614 0.02333 0.6342 0.0
O5080 O 0.12322 0.02425 0.63293 0.0
H5081 H 0.1144 0.02685 0.63854 0.0
C5082 C 0.13269 0.04382 0.63128 0.0
C5083 C 0.12983 0.04068 0.62525 0.0
C5084 C 0.13232 0.04051 0.63785 0.0
C5085 C 0.12897 0.03396 0.6384 0.0
C5086 C 0.12618 0.0307 0.6324 0.0
C5087 C 0.12665 0.03404 0.62584 0.0
H5088 H 0.02151 0.15783 0.39555 0.0
H5089 H 0.02731 0.13688 0.40203 0.0
H5090 H 0.00977 0.1537 0.39265 0.0
H5091 H 0.01545 0.1328 0.39943 0.0
H5092 H 0.99562 0.12631 0.38741 0.0
H5093 H 0.00758 0.13043 0.38977 0.0
H5094 H 0.99918 0.14979 0.39813 0.0
H5095 H 0.9873 0.14572 0.39558 0.0
C5096 C 0.02029 0.15234 0.39635 0.0
C5097 C 0.02539 0.14769 0.39901 0.0
C5098 C 0.01352 0.14998 0.39476 0.0
C5099 C 0.01163 0.14291 0.3958 0.0
C5100 C 0.01672 0.13826 0.39847 0.0
C5101 C 0.02351 0.14062 0.40006 0.0
C5102 C 0.99638 0.13146 0.38972 0.0
C5103 C 0.99056 0.13568 0.39135 0.0
C5104 C 0.00321 0.1338 0.39112 0.0
C5105 C 0.00437 0.14044 0.39418 0.0
C5106 C 0.99852 0.14469 0.3957 0.0
C5107 C 0.9917 0.14235 0.39428 0.0
H5108 H 0.11325 0.77804 0.6383 0.0
H5109 H 0.10666 0.77133 0.65894 0.0
H5110 H 0.1169 0.76605 0.63557 0.0
H5111 H 0.11049 0.7594 0.65629 0.0
H5112 H 0.11056 0.73751 0.64641 0.0
H5113 H 0.10693 0.74959 0.6488 0.0
H5114 H 0.12578 0.75724 0.63876 0.0
H5115 H 0.12936 0.74511 0.63632 0.0
C5116 C 0.11259 0.77401 0.64226 0.0
C5117 C 0.10964 0.77566 0.64884 0.0
C5118 C 0.11475 0.76715 0.64072 0.0
C5119 C 0.11396 0.76174 0.6457 0.0
C5120 C 0.11108 0.76341 0.6523 0.0
C5121 C 0.10897 0.77028 0.65385 0.0
C5122 C 0.1139 0.74178 0.64469 0.0
C5123 C 0.12024 0.74039 0.64118 0.0
C5124 C 0.11185 0.7487 0.6461 0.0
C5125 C 0.11608 0.75439 0.64402 0.0
C5126 C 0.12237 0.75299 0.64038 0.0
C5127 C 0.12443 0.74606 0.639 0.0
H5128 H 0.47719 0.86972 0.89978 0.0
H5129 H 0.48361 0.8481 0.89733 0.0
H5130 H 0.48895 0.87358 0.89652 0.0
H5131 H 0.49544 0.85194 0.8944 0.0
H5132 H 0.51451 0.86097 0.88326 0.0
H5133 H 0.50231 0.85754 0.88547 0.0
H5134 H 0.50065 0.87387 0.90116 0.0
H5135 H 0.51274 0.87737 0.89877 0.0
C5136 C 0.4811 0.86578 0.89854 0.0
C5137 C 0.47943 0.85859 0.89884 0.0
C5138 C 0.48788 0.868 0.89674 0.0
C5139 C 0.49318 0.86308 0.8952 0.0
C5140 C 0.49149 0.85589 0.89547 0.0
C5141 C 0.48471 0.85368 0.89725 0.0
C5142 C 0.51147 0.86388 0.88709 0.0
C5143 C 0.51452 0.8695 0.89076 0.0
C5144 C 0.50451 0.86188 0.88842 0.0
C5145 C 0.50047 0.86542 0.8935 0.0
C5146 C 0.50354 0.87109 0.89712 0.0
C5147 C 0.51048 0.87309 0.89577 0.0
H5148 H 0.40274 0.23102 0.13935 0.0
H5149 H 0.39069 0.23149 0.15856 0.0
H5150 H 0.39856 0.24275 0.13642 0.0
H5151 H 0.38648 0.24324 0.15561 0.0
H5152 H 0.37544 0.26183 0.1452 0.0
H5153 H 0.37907 0.2497 0.14739 0.0
H5154 H 0.40005 0.25478 0.1404 0.0
H5155 H 0.39634 0.26689 0.13813 0.0
C5156 C 0.39923 0.23364 0.14297 0.0
C5157 C 0.3971 0.23031 0.14922 0.0
C5158 C 0.39683 0.24037 0.14128 0.0
C5159 C 0.39221 0.24397 0.14578 0.0
C5160 C 0.38997 0.24059 0.15197 0.0
C5161 C 0.39238 0.23385 0.15367 0.0
C5162 C 0.38081 0.26032 0.14411 0.0
C5163 C 0.38564 0.26529 0.14157 0.0
C5164 C 0.38291 0.25339 0.14539 0.0
C5165 C 0.38987 0.25126 0.14412 0.0
C5166 C 0.39464 0.25621 0.14138 0.0
C5167 C 0.39254 0.26315 0.14011 0.0
H5168 H 0.0288 0.86869 0.11045 0.0
H5169 H 0.02029 0.84872 0.1039 0.0
H5170 H 0.01701 0.87275 0.1134 0.0
H5171 H 0.00851 0.85277 0.10679 0.0
H5172 H 0.98905 0.85948 0.11884 0.0
H5173 H 1.00112 0.85565 0.11664 0.0
H5174 H 0.00601 0.87611 0.1081 0.0
H5175 H 0.994 0.87994 0.11047 0.0
C5176 C 0.02441 0.86519 0.10957 0.0
C5177 C 0.02551 0.85837 0.10695 0.0
C5178 C 0.01764 0.86751 0.11127 0.0
C5179 C 0.01179 0.86308 0.11037 0.0
C5180 C 0.0129 0.85628 0.1077 0.0
C5181 C 0.01966 0.85396 0.10602 0.0
C5182 C 0.99275 0.86315 0.11654 0.0
C5183 C 0.9906 0.86997 0.11477 0.0
C5184 C 0.99964 0.86095 0.11523 0.0
C5185 C 0.00455 0.86554 0.11212 0.0
C5186 C 1.00241 0.87245 0.11055 0.0
C5187 C 0.99552 0.87464 0.11187 0.0
H5188 H 0.39392 0.77398 0.34622 0.0
H5189 H 0.40034 0.77702 0.36777 0.0
H5190 H 0.38995 0.76213 0.3491 0.0
H5191 H 0.39642 0.76518 0.37062 0.0
H5192 H 0.39619 0.74098 0.371 0.0
H5193 H 0.39977 0.75303 0.36828 0.0
H5194 H 0.38102 0.75574 0.35578 0.0
H5195 H 0.37752 0.74366 0.35846 0.0
C5196 C 0.39442 0.77216 0.35159 0.0
C5197 C 0.39749 0.77646 0.35675 0.0
C5198 C 0.39215 0.76535 0.35324 0.0
C5199 C 0.3929 0.76268 0.36009 0.0
C5200 C 0.39588 0.76702 0.36527 0.0
C5201 C 0.39813 0.77381 0.36362 0.0
C5202 C 0.39284 0.74419 0.36771 0.0
C5203 C 0.38658 0.74142 0.36497 0.0
C5204 C 0.39486 0.75109 0.36617 0.0
C5205 C 0.39068 0.75536 0.36181 0.0
C5206 C 0.3844 0.75257 0.35909 0.0
C5207 C 0.38237 0.74568 0.36065 0.0
H5208 H 0.48189 0.1561 0.61341 0.0
H5209 H 0.47871 0.13718 0.60129 0.0
H5210 H 0.49376 0.15231 0.61624 0.0
H5211 H 0.49072 0.13353 0.60386 0.0
H5212 H 0.51017 0.12571 0.6157 0.0
H5213 H 0.49807 0.12935 0.6133 0.0
H5214 H 0.50506 0.15083 0.61099 0.0
H5215 H 0.51708 0.14717 0.61358 0.0
C5216 C 0.48371 0.15112 0.61135 0.0
C5217 C 0.47931 0.14694 0.60714 0.0
C5218 C 0.49057 0.14898 0.61291 0.0
C5219 C 0.49323 0.14261 0.61028 0.0
C5220 C 0.48883 0.13843 0.60605 0.0
C5221 C 0.48196 0.14057 0.6045 0.0
C5222 C 0.50908 0.1312 0.61468 0.0
C5223 C 0.51455 0.13615 0.61473 0.0
C5224 C 0.50217 0.13329 0.61326 0.0
C5225 C 0.50057 0.14038 0.6119 0.0
C5226 C 0.50607 0.14534 0.61208 0.0
C5227 C 0.51296 0.14325 0.61351 0.0
H5228 H 0.11501 0.23096 0.8479 0.0
H5229 H 0.10303 0.23007 0.86714 0.0
H5230 H 0.11911 0.24269 0.85101 0.0
H5231 H 0.1071 0.24181 0.87023 0.0
H5232 H 0.10902 0.26601 0.86875 0.0
H5233 H 0.10546 0.25388 0.8664 0.0
H5234 H 0.12648 0.24912 0.8593 0.0
H5235 H 0.12996 0.26128 0.86156 0.0
C5236 C 0.11332 0.23322 0.85283 0.0
C5237 C 0.10865 0.22956 0.85724 0.0
C5238 C 0.11567 0.23996 0.85462 0.0
C5239 C 0.11341 0.24322 0.86086 0.0
C5240 C 0.10885 0.23951 0.86533 0.0
C5241 C 0.10651 0.23278 0.86355 0.0
C5242 C 0.11287 0.26233 0.86673 0.0
C5243 C 0.11973 0.26458 0.86527 0.0
C5244 C 0.11085 0.25538 0.86541 0.0
C5245 C 0.11567 0.25052 0.86261 0.0
C5246 C 0.1226 0.25275 0.86134 0.0
C5247 C 0.12461 0.2597 0.86268 0.0
H5248 H 0.40793 0.02435 0.13967 0.0
H5249 H 0.38987 0.02405 0.15339 0.0
H5250 H 0.40484 0.01267 0.13538 0.0
H5251 H 0.38681 0.01239 0.14913 0.0
H5252 H 0.38845 0.98844 0.14582 0.0
H5253 H 0.39108 1.00038 0.14981 0.0
H5254 H 0.39604 0.00637 0.12849 0.0
H5255 H 0.3935 0.99439 0.12457 0.0
C5256 C 0.40326 0.02183 0.14172 0.0
C5257 C 0.39918 0.02514 0.14692 0.0
C5258 C 0.40149 0.01513 0.13926 0.0
C5259 C 0.39558 0.01156 0.14193 0.0
C5260 C 0.39146 0.01492 0.14705 0.0
C5261 C 0.39322 0.02161 0.1495 0.0
C5262 C 0.39009 0.99234 0.14201 0.0
C5263 C 0.39085 0.99049 0.13491 0.0
C5264 C 0.39156 0.99918 0.14427 0.0
C5265 C 0.39381 0.00434 0.13947 0.0
C5266 C 0.39443 1.0025 0.13234 0.0
C5267 C 0.39294 0.99566 0.13008 0.0
H5268 H 0.23249 0.14261 0.4066 0.0
H5269 H 0.22893 0.15387 0.38723 0.0
H5270 H 0.24434 0.13973 0.40276 0.0
H5271 H 0.2409 0.15126 0.38352 0.0
H5272 H 0.26055 0.13974 0.37598 0.0
H5273 H 0.2484 0.14176 0.37967 0.0
H5274 H 0.25552 0.1452 0.40095 0.0
H5275 H 0.2676 0.143 0.39725 0.0
C5276 C 0.23422 0.14445 0.4015 0.0
C5277 C 0.22972 0.14846 0.39722 0.0
C5278 C 0.24106 0.14287 0.39934 0.0
C5279 C 0.24361 0.14526 0.39283 0.0
C5280 C 0.2391 0.14925 0.38853 0.0
C5281 C 0.23225 0.15083 0.3907 0.0
C5282 C 0.25948 0.1409 0.38144 0.0
C5283 C 0.265 0.14131 0.38631 0.0
C5284 C 0.25254 0.14211 0.38356 0.0
C5285 C 0.25096 0.14371 0.3906 0.0
C5286 C 0.2565 0.14392 0.3955 0.0
C5287 C 0.26344 0.14271 0.39338 0.0
H5288 H 0.1166 0.98113 0.65242 0.0
H5289 H 0.09691 0.98233 0.64121 0.0
H5290 H 0.1196 0.99291 0.64844 0.0
H5291 H 0.09993 0.99413 0.63721 0.0
H5292 H 0.11056 0.01273 0.62614 0.0
H5293 H 0.10798 1.00062 0.62962 0.0
H5294 H 0.11599 0.00496 0.65041 0.0
H5295 H 0.11865 0.01703 0.64685 0.0
C5296 C 0.11288 0.98392 0.64914 0.0
C5297 C 0.10648 0.98078 0.64719 0.0
C5298 C 0.11461 0.99069 0.64686 0.0
C5299 C 0.11 0.9945 0.64253 0.0
C5300 C 0.10365 0.99132 0.64047 0.0
C5301 C 0.10192 0.98454 0.64276 0.0
C5302 C 0.11176 0.01107 0.63144 0.0
C5303 C 0.11472 0.01581 0.63626 0.0
C5304 C 0.11026 0.00415 0.63346 0.0
C5305 C 0.11174 1.00181 0.64031 0.0
C5306 C 0.11484 0.00655 0.64507 0.0
C5307 C 0.11632 0.01347 0.64306 0.0
H5308 H 0.27805 0.85394 0.88596 0.0
H5309 H 0.27282 0.86092 0.9069 0.0
H5310 H 0.26611 0.85658 0.88211 0.0
H5311 H 0.26102 0.86386 0.90299 0.0
H5312 H 0.23832 0.86116 0.89553 0.0
H5313 H 0.25024 0.8585 0.89941 0.0
H5314 H 0.25837 0.86633 0.87971 0.0
H5315 H 0.24637 0.86879 0.87579 0.0
C5316 C 0.27436 0.85602 0.88975 0.0
C5317 C 0.27642 0.85721 0.89674 0.0
C5318 C 0.26753 0.85763 0.88752 0.0
C5319 C 0.26258 0.86047 0.89223 0.0
C5320 C 0.26464 0.86162 0.89923 0.0
C5321 C 0.27146 0.86001 0.90146 0.0
C5322 C 0.24267 0.86232 0.89205 0.0
C5323 C 0.24144 0.86514 0.88534 0.0
C5324 C 0.24951 0.86084 0.89428 0.0
C5325 C 0.2553 0.86217 0.88987 0.0
C5326 C 0.25405 0.86512 0.8832 0.0
C5327 C 0.24719 0.86658 0.88097 0.0
H5328 H 0.39264 0.98229 0.34924 0.0
H5329 H 0.40524 0.97934 0.36787 0.0
H5330 H 0.38968 0.9941 0.35308 0.0
H5331 H 0.40254 0.99131 0.37157 0.0
H5332 H 0.39053 0.01059 0.37961 0.0
H5333 H 0.39307 0.99852 0.37595 0.0
H5334 H 0.39481 0.00549 0.35442 0.0
H5335 H 0.3921 0.01748 0.3581 0.0
C5336 C 0.39477 0.98415 0.35417 0.0
C5337 C 0.39916 0.97982 0.35825 0.0
C5338 C 0.39315 0.99097 0.35634 0.0
C5339 C 0.39588 0.99369 0.36264 0.0
C5340 C 0.40027 0.98937 0.36673 0.0
C5341 C 0.4019 0.98253 0.36456 0.0
C5342 C 0.39146 0.0095 0.3741 0.0
C5343 C 0.39122 0.01496 0.36915 0.0
C5344 C 0.39296 1.00261 0.372 0.0
C5345 C 0.3942 1.00102 0.36489 0.0
C5346 C 0.39382 0.00649 0.35993 0.0
C5347 C 0.39232 0.01337 0.36203 0.0
H5348 H 0.27747 0.15246 0.61914 0.0
H5349 H 0.27203 0.1458 0.59814 0.0
H5350 H 0.26555 0.14981 0.62304 0.0
H5351 H 0.26025 0.14287 0.6021 0.0
H5352 H 0.23763 0.14583 0.6097 0.0
H5353 H 0.24958 0.14836 0.60579 0.0
H5354 H 0.25767 0.14014 0.62535 0.0
H5355 H 0.24565 0.1378 0.62929 0.0
C5356 C 0.27374 0.15043 0.61535 0.0
C5357 C 0.27573 0.14934 0.60832 0.0
C5358 C 0.26692 0.14883 0.61761 0.0
C5359 C 0.26192 0.14611 0.61289 0.0
C5360 C 0.26392 0.14502 0.60587 0.0
C5361 C 0.27072 0.14663 0.60361 0.0
C5362 C 0.24198 0.14456 0.61314 0.0
C5363 C 0.24073 0.14167 0.61981 0.0
C5364 C 0.24883 0.14597 0.6109 0.0
C5365 C 0.25462 0.14448 0.61526 0.0
C5366 C 0.25335 0.14147 0.6219 0.0
C5367 C 0.24649 0.14007 0.62414 0.0
H5368 H 0.11702 0.02774 0.86441 0.0
H5369 H 0.09681 0.02067 0.8569 0.0
H5370 H 0.1198 0.0158 0.86816 0.0
H5371 H 0.09952 0.00878 0.86084 0.0
H5372 H 0.11003 0.98708 0.86127 0.0
H5373 H 0.10736 0.9991 0.85761 0.0
H5374 H 0.11643 0.00695 0.87688 0.0
H5375 H 0.11914 0.99489 0.88047 0.0
C5376 C 0.11316 0.02364 0.86357 0.0
C5377 C 0.1067 0.02517 0.86033 0.0
C5378 C 0.11473 0.01681 0.86579 0.0
C5379 C 0.10989 0.01132 0.86479 0.0
C5380 C 0.1034 0.01286 0.86162 0.0
C5381 C 0.10181 0.0197 0.85943 0.0
C5382 C 0.11145 0.99139 0.86471 0.0
C5383 C 0.11475 0.99007 0.87117 0.0
C5384 C 0.10989 0.99827 0.86264 0.0
C5385 C 0.11163 0.004 0.86697 0.0
C5386 C 0.11505 1.00267 0.87339 0.0
C5387 C 0.11658 0.99578 0.87547 0.0
H5388 H 0.23365 0.85869 0.09838 0.0
H5389 H 0.22739 0.85365 0.1196 0.0
H5390 H 0.24537 0.86163 0.10253 0.0
H5391 H 0.23923 0.85629 0.12371 0.0
H5392 H 0.25897 0.86873 0.12975 0.0
H5393 H 0.2471 0.86603 0.12561 0.0
H5394 H 0.25586 0.85641 0.107 0.0
H5395 H 0.26766 0.8593 0.11109 0.0
C5396 C 0.23477 0.8582 0.10394 0.0
C5397 C 0.22954 0.85596 0.10866 0.0
C5398 C 0.24153 0.85982 0.10631 0.0
C5399 C 0.24328 0.85921 0.11346 0.0
C5400 C 0.23806 0.85691 0.11818 0.0
C5401 C 0.23129 0.8553 0.11581 0.0
C5402 C 0.25832 0.86606 0.12477 0.0
C5403 C 0.26421 0.86419 0.12076 0.0
C5404 C 0.25154 0.86446 0.12241 0.0
C5405 C 0.2505 0.86096 0.11598 0.0
C5406 C 0.25643 0.85917 0.11194 0.0
C5407 C 0.2632 0.86079 0.11429 0.0
H5408 H 0.14113 0.38901 0.02909 0.0
H5409 H 0.14979 0.40872 0.02194 0.0
H5410 H 0.13764 0.38619 0.01708 0.0
H5411 H 0.14611 0.40599 0.00997 0.0
H5412 H 0.14571 0.39537 0.98841 0.0
H5413 H 0.14921 0.39789 1.0005 0.0
H5414 H 0.12936 0.3898 0.00792 0.0
H5415 H 0.12591 0.38722 0.99579 0.0
C5416 C 0.14228 0.39275 0.02496 0.0
C5417 C 0.14577 0.39909 0.02649 0.0
C5418 C 0.14022 0.39116 0.01808 0.0
C5419 C 0.14161 0.39585 0.01255 0.0
C5420 C 0.14503 0.40222 0.01409 0.0
C5421 C 0.14707 0.40383 0.02097 0.0
C5422 C 0.14212 0.39411 0.99264 0.0
C5423 C 0.13553 0.39113 0.99118 0.0
C5424 C 0.1441 0.3956 0.99956 0.0
C5425 C 0.13955 0.3941 0.00519 0.0
C5426 C 0.13301 0.39097 0.00372 0.0
C5427 C 0.13102 0.38951 0.99679 0.0
H5428 H 0.63713 0.10931 0.97735 0.0
H5429 H 0.65677 0.10172 0.98577 0.0
H5430 H 0.63326 0.1124 0.98918 0.0
H5431 H 0.65291 0.10477 0.99758 0.0
H5432 H 0.64699 0.11769 0.01684 0.0
H5433 H 0.65063 0.11493 0.00483 0.0
H5434 H 0.62972 0.10736 1.00028 0.0
H5435 H 0.6261 0.11028 0.01226 0.0
C5436 C 0.64059 0.10822 0.98173 0.0
C5437 C 0.64727 0.10529 0.98059 0.0
C5438 C 0.63838 0.11 0.98852 0.0
C5439 C 0.64278 0.10888 0.99435 0.0
C5440 C 0.64943 0.10585 0.99321 0.0
C5441 C 0.65164 0.10408 0.98643 0.0
C5442 C 0.6432 0.11545 0.01324 0.0
C5443 C 0.63631 0.1141 0.01549 0.0
C5444 C 0.64527 0.11382 0.00638 0.0
C5445 C 0.64049 0.11084 1.00159 0.0
C5446 C 0.63353 0.10968 0.0038 0.0
C5447 C 0.63146 0.11131 0.01067 0.0
H5448 H 0.14045 0.39023 0.22694 0.0
H5449 H 0.15835 0.40191 0.23451 0.0
H5450 H 0.13762 0.38676 0.23896 0.0
H5451 H 0.15564 0.39829 0.24651 0.0
H5452 H 0.14399 0.39718 0.26758 0.0
H5453 H 0.1467 0.40054 0.25548 0.0
H5454 H 0.14198 0.37943 0.2486 0.0
H5455 H 0.13921 0.37613 0.26073 0.0
C5456 C 0.14379 0.39205 0.23117 0.0
C5457 C 0.14962 0.39637 0.22975 0.0
C5458 C 0.14221 0.39001 0.23805 0.0
C5459 C 0.14639 0.39226 0.24371 0.0
C5460 C 0.15226 0.39652 0.24229 0.0
C5461 C 0.15386 0.39853 0.2354 0.0
C5462 C 0.14353 0.39327 0.26347 0.0
C5463 C 0.14144 0.38638 0.26508 0.0
C5464 C 0.14512 0.39518 0.25655 0.0
C5465 C 0.1446 0.39024 0.25107 0.0
C5466 C 0.14238 0.38337 0.25268 0.0
C5467 C 0.14083 0.38147 0.25961 0.0
H5468 H 0.86518 0.88948 0.47702 0.0
H5469 H 0.85587 0.90876 0.48451 0.0
H5470 H 0.86882 0.8866 0.48897 0.0
H5471 H 0.85968 0.90597 0.49642 0.0
H5472 H 0.86044 0.89486 0.51779 0.0
H5473 H 0.85686 0.89758 0.50575 0.0
H5474 H 0.87698 0.89034 0.49817 0.0
H5475 H 0.88049 0.88756 0.51024 0.0
C5476 C 0.86392 0.89312 0.48121 0.0
C5477 C 0.86021 0.89935 0.4798 0.0
C5478 C 0.86606 0.89149 0.48806 0.0
C5479 C 0.86452 0.89604 0.49367 0.0
C5480 C 0.86088 0.90231 0.49224 0.0
C5481 C 0.85877 0.90395 0.48539 0.0
C5482 C 0.86408 0.89386 0.51354 0.0
C5483 C 0.87077 0.89108 0.51493 0.0
C5484 C 0.86206 0.89545 0.50665 0.0
C5485 C 0.86666 0.89424 0.50099 0.0
C5486 C 0.8733 0.8913 0.5024 0.0
C5487 C 0.87532 0.88974 0.50929 0.0
H5488 H 0.84701 0.10629 0.23437 0.0
H5489 H 0.86741 0.11368 0.22776 0.0
H5490 H 0.8495 0.11013 0.24634 0.0
H5491 H 0.86998 0.11733 0.23978 0.0
H5492 H 0.86889 0.12959 0.26075 0.0
H5493 H 0.8665 0.12603 0.24861 0.0
H5494 H 0.8571 0.1068 0.25616 0.0
H5495 H 0.85944 0.11042 0.26825 0.0
C5496 C 0.85201 0.10877 0.23546 0.0
C5497 C 0.85701 0.10967 0.2301 0.0
C5498 C 0.85347 0.1109 0.24235 0.0
C5499 C 0.85996 0.11401 0.24404 0.0
C5500 C 0.86492 0.115 0.23866 0.0
C5501 C 0.86347 0.11285 0.23178 0.0
C5502 C 0.86635 0.12459 0.25978 0.0
C5503 C 0.86434 0.12029 0.26542 0.0
C5504 C 0.865 0.12254 0.25284 0.0
C5505 C 0.86157 0.11614 0.25141 0.0
C5506 C 0.85964 0.11181 0.25707 0.0
C5507 C 0.86103 0.11385 0.264 0.0
H5508 H 0.36853 0.6107 0.52881 0.0
H5509 H 0.3489 0.60314 0.52034 0.0
H5510 H 0.37251 0.61361 0.51698 0.0
H5511 H 0.35288 0.60601 0.50853 0.0
H5512 H 0.35917 0.61809 0.48891 0.0
H5513 H 0.35537 0.61587 0.501 0.0
H5514 H 0.37614 0.60828 0.50609 0.0
H5515 H 0.37993 0.61066 0.49406 0.0
C5516 C 0.36509 0.60959 0.52442 0.0
C5517 C 0.35839 0.60669 0.52554 0.0
C5518 C 0.36737 0.61127 0.51763 0.0
C5519 C 0.36301 0.61008 0.51178 0.0
C5520 C 0.35633 0.60713 0.51291 0.0
C5521 C 0.35405 0.60547 0.51969 0.0
C5522 C 0.36291 0.616 0.49266 0.0
C5523 C 0.36981 0.61449 0.49056 0.0
C5524 C 0.36073 0.61467 0.49956 0.0
C5525 C 0.36542 0.61183 0.50452 0.0
C5526 C 0.3724 0.61052 0.50244 0.0
C5527 C 0.37457 0.61185 0.49555 0.0
H5528 H 0.14733 0.59875 0.27142 0.0
H5529 H 0.15075 0.62035 0.27749 0.0
H5530 H 0.14418 0.60255 0.25963 0.0
H5531 H 0.14727 0.62418 0.26577 0.0
H5532 H 0.14852 0.62769 0.24185 0.0
H5533 H 0.15141 0.62419 0.25385 0.0
H5534 H 0.13515 0.60836 0.2531 0.0
H5535 H 0.13244 0.61177 0.24101 0.0
C5536 C 0.14743 0.60432 0.27024 0.0
C5537 C 0.14935 0.60923 0.27542 0.0
C5538 C 0.14551 0.60651 0.2635 0.0
C5539 C 0.14544 0.61368 0.26172 0.0
C5540 C 0.14733 0.61861 0.26691 0.0
C5541 C 0.14926 0.61641 0.27366 0.0
C5542 C 0.14553 0.62351 0.24429 0.0
C5543 C 0.14021 0.62004 0.24054 0.0
C5544 C 0.14716 0.62151 0.25118 0.0
C5545 C 0.14352 0.61599 0.25447 0.0
C5546 C 0.13813 0.61257 0.25071 0.0
C5547 C 0.13652 0.61456 0.24382 0.0
H5548 H 0.36804 0.39831 0.77632 0.0
H5549 H 0.3462 0.39323 0.77287 0.0
H5550 H 0.37085 0.39428 0.7645 0.0
H5551 H 0.34902 0.38917 0.76105 0.0
H5552 H 0.35758 0.37665 0.74243 0.0
H5553 H 0.35519 0.37997 0.7546 0.0
H5554 H 0.36891 0.39791 0.75236 0.0
H5555 H 0.37135 0.3945 0.7402 0.0
C5556 C 0.36382 0.39636 0.77303 0.0
C5557 C 0.35688 0.39614 0.77555 0.0
C5558 C 0.36544 0.39405 0.76624 0.0
C5559 C 0.36016 0.39143 0.7618 0.0
C5560 C 0.35324 0.39107 0.76436 0.0
C5561 C 0.35162 0.3934 0.77115 0.0
C5562 C 0.36013 0.38126 0.74457 0.0
C5563 C 0.3647 0.38529 0.7404 0.0
C5564 C 0.35872 0.3832 0.75152 0.0
C5565 C 0.36185 0.38922 0.75447 0.0
C5566 C 0.36648 0.39319 0.7503 0.0
C5567 C 0.36787 0.39126 0.74334 0.0
H5568 H 0.98259 0.8493 0.61354 0.0
H5569 H 0.97901 0.86837 0.60178 0.0
H5570 H 0.99385 0.85382 0.61751 0.0
H5571 H 0.99046 0.87279 0.60552 0.0
H5572 H 0.00671 0.88166 0.62138 0.0
H5573 H 0.99595 0.87717 0.61606 0.0
H5574 H 0.00557 0.85671 0.61397 0.0
H5575 H 0.01627 0.86122 0.61949 0.0
C5576 C 0.98421 0.85445 0.61177 0.0
C5577 C 0.97984 0.85849 0.6074 0.0
C5578 C 0.99073 0.85702 0.61398 0.0
C5579 C 0.99309 0.86369 0.61185 0.0
C5580 C 0.98879 0.86767 0.60733 0.0
C5581 C 0.98225 0.8651 0.60513 0.0
C5582 C 0.00654 0.87623 0.6197 0.0
C5583 C 0.01233 0.87179 0.62081 0.0
C5584 C 1.00038 0.87365 0.61661 0.0
C5585 C 0.99986 0.86656 0.61459 0.0
C5586 C 0.00574 0.86217 0.61555 0.0
C5587 C 0.01189 0.86476 0.61864 0.0
H5588 H 0.88896 0.22557 0.36627 0.0
H5589 H 0.90203 0.2357 0.35074 0.0
H5590 H 0.8851 0.23701 0.3705 0.0
H5591 H 0.898 0.24717 0.35484 0.0
H5592 H 0.89623 0.26576 0.37072 0.0
H5593 H 0.89952 0.25464 0.36517 0.0
H5594 H 0.87818 0.24726 0.3674 0.0
H5595 H 0.87497 0.25835 0.37303 0.0
C5596 C 0.89098 0.23024 0.36373 0.0
C5597 C 0.89584 0.2297 0.35819 0.0
C5598 C 0.88871 0.23681 0.3661 0.0
C5599 C 0.89124 0.24303 0.36302 0.0
C5600 C 0.89599 0.2425 0.35739 0.0
C5601 C 0.89825 0.23591 0.35498 0.0
C5602 C 0.89226 0.26176 0.36996 0.0
C5603 C 0.88538 0.26286 0.37238 0.0
C5604 C 0.89412 0.25541 0.36675 0.0
C5605 C 0.88913 0.25002 0.36589 0.0
C5606 C 0.88218 0.25124 0.36809 0.0
C5607 C 0.88032 0.2576 0.37128 0.0
H5608 H 0.51876 0.15579 0.10085 0.0
H5609 H 0.52982 0.13863 0.11074 0.0
H5610 H 0.50768 0.1513 0.10546 0.0
H5611 H 0.51876 0.13416 0.11536 0.0
H5612 H 0.49709 0.12475 0.11848 0.0
H5613 H 0.50763 0.12881 0.11234 0.0
H5614 H 0.50179 0.15032 0.11665 0.0
H5615 H 0.4912 0.14621 0.12265 0.0
C5616 C 0.51883 0.15106 0.10401 0.0
C5617 C 0.5252 0.1476 0.10545 0.0
C5618 C 0.51248 0.14849 0.10666 0.0
C5619 C 0.51231 0.14238 0.11082 0.0
C5620 C 0.51866 0.13882 0.1121 0.0
C5621 C 0.52502 0.14139 0.10945 0.0
C5622 C 0.49806 0.13034 0.11806 0.0
C5623 C 0.49341 0.13518 0.12112 0.0
C5624 C 0.50411 0.13267 0.11458 0.0
C5625 C 0.50561 0.1399 0.11405 0.0
C5626 C 0.50079 0.14473 0.1169 0.0
C5627 C 0.49474 0.14239 0.12037 0.0
H5628 H 0.59795 0.77145 0.85918 0.0
H5629 H 0.61911 0.77824 0.85467 0.0
H5630 H 0.60243 0.76032 0.86356 0.0
H5631 H 0.62359 0.76695 0.85875 0.0
H5632 H 0.62913 0.75026 0.87555 0.0
H5633 H 0.62511 0.76093 0.86971 0.0
H5634 H 0.60782 0.74939 0.86059 0.0
H5635 H 0.61177 0.73876 0.86664 0.0
C5636 C 0.60356 0.77056 0.85908 0.0
C5637 C 0.60817 0.7758 0.85664 0.0
C5638 C 0.60613 0.76412 0.8615 0.0
C5639 C 0.61338 0.76271 0.86154 0.0
C5640 C 0.61798 0.76787 0.85889 0.0
C5641 C 0.61541 0.77433 0.85647 0.0
C5642 C 0.62453 0.75 0.87221 0.0
C5643 C 0.6208 0.74367 0.87148 0.0
C5644 C 0.62223 0.75611 0.86883 0.0
C5645 C 0.61613 0.75605 0.86466 0.0
C5646 C 0.61249 0.74966 0.86382 0.0
C5647 C 0.61478 0.74355 0.86722 0.0
H5648 H 0.98577 0.15688 0.89986 0.0
H5649 H 0.97768 0.13569 0.89938 0.0
H5650 H 0.99701 0.1527 0.89542 0.0
H5651 H 0.98882 0.13155 0.89463 0.0
H5652 H 0.01161 0.12517 0.89148 0.0
H5653 H 1.00103 0.12956 0.89733 0.0
H5654 H 1.00191 0.14837 0.88465 0.0
H5655 H 0.01256 0.14403 0.87898 0.0
C5656 C 0.9864 0.15132 0.89887 0.0
C5657 C 0.98079 0.14663 0.89998 0.0
C5658 C 0.99283 0.14893 0.89623 0.0
C5659 C 0.99384 0.14179 0.89462 0.0
C5660 C 0.98828 0.13708 0.89587 0.0
C5661 C 0.98185 0.13947 0.89851 0.0
C5662 C 0.00954 0.13026 0.89 0.0
C5663 C 0.01281 0.13422 0.88472 0.0
C5664 C 0.00346 0.13276 0.89331 0.0
C5665 C 1.00055 0.1393 0.89143 0.0
C5666 C 0.00401 0.14335 0.88629 0.0
C5667 C 0.01009 0.14085 0.883 0.0
H5668 H 0.59859 0.23396 0.64396 0.0
H5669 H 0.61896 0.22872 0.65246 0.0
H5670 H 0.60316 0.24515 0.63984 0.0
H5671 H 0.62347 0.24009 0.64859 0.0
H5672 H 0.63091 0.25675 0.63249 0.0
H5673 H 0.62656 0.24593 0.63781 0.0
H5674 H 0.60725 0.25648 0.64339 0.0
H5675 H 0.61158 0.26725 0.63787 0.0
C5676 C 0.60405 0.2352 0.64498 0.0
C5677 C 0.60842 0.23039 0.64848 0.0
C5678 C 0.60665 0.24168 0.64269 0.0
C5679 C 0.6137 0.24355 0.64386 0.0
C5680 C 0.61804 0.2388 0.64752 0.0
C5681 C 0.61543 0.23231 0.64981 0.0
C5682 C 0.62577 0.25677 0.63493 0.0
C5683 C 0.62159 0.26285 0.63482 0.0
C5684 C 0.62328 0.25057 0.63801 0.0
C5685 C 0.61654 0.2503 0.64104 0.0
C5686 C 0.61243 0.25645 0.64103 0.0
C5687 C 0.61492 0.26264 0.63793 0.0
H5688 H 0.53101 0.86581 0.38823 0.0
H5689 H 0.52083 0.85471 0.4052 0.0
H5690 H 0.51962 0.86978 0.38398 0.0
H5691 H 0.50942 0.85887 0.40105 0.0
H5692 H 0.49035 0.86018 0.38576 0.0
H5693 H 0.50155 0.85678 0.3911 0.0
H5694 H 0.50982 0.87747 0.38679 0.0
H5695 H 0.49865 0.88079 0.3814 0.0
C5696 C 0.52634 0.86424 0.39108 0.0
C5697 C 0.52685 0.8599 0.39704 0.0
C5698 C 0.5198 0.86658 0.38868 0.0
C5699 C 0.51359 0.86464 0.39216 0.0
C5700 C 0.51409 0.86041 0.3982 0.0
C5701 C 0.52065 0.85809 0.40062 0.0
C5702 C 0.49456 0.864 0.38602 0.0
C5703 C 0.49367 0.87072 0.38313 0.0
C5704 C 0.50096 0.86207 0.3891 0.0
C5705 C 0.50661 0.86684 0.38934 0.0
C5706 C 0.50563 0.87364 0.3866 0.0
C5707 C 0.49922 0.87556 0.38355 0.0
H5708 H 0.90765 0.7726 0.14451 0.0
H5709 H 0.88729 0.77783 0.15302 0.0
H5710 H 0.90307 0.76142 0.14037 0.0
H5711 H 0.88278 0.76647 0.14916 0.0
H5712 H 0.8753 0.75038 0.13249 0.0
H5713 H 0.87967 0.76092 0.1383 0.0
H5714 H 0.89887 0.75003 0.14357 0.0
H5715 H 0.89452 0.73953 0.13754 0.0
C5716 C 0.9022 0.77135 0.14554 0.0
C5717 C 0.89783 0.77617 0.14903 0.0
C5718 C 0.89959 0.76487 0.14325 0.0
C5719 C 0.89254 0.76302 0.1444 0.0
C5720 C 0.88821 0.76775 0.14809 0.0
C5721 C 0.89082 0.77424 0.15038 0.0
C5722 C 0.88041 0.75021 0.135 0.0
C5723 C 0.88455 0.74411 0.13464 0.0
C5724 C 0.88291 0.75625 0.13836 0.0
C5725 C 0.88964 0.75636 0.14142 0.0
C5726 C 0.8937 0.75018 0.1412 0.0
C5727 C 0.8912 0.74414 0.13782 0.0
H5728 H 0.60185 0.98543 0.85171 0.0
H5729 H 0.61322 0.97553 0.86867 0.0
H5730 H 0.60599 0.99691 0.85564 0.0
H5731 H 0.61754 0.98697 0.87245 0.0
H5732 H 0.61961 0.00906 0.88117 0.0
H5733 H 0.61398 0.99804 0.87769 0.0
H5734 H 0.61695 0.00348 0.85585 0.0
H5735 H 0.62246 0.01455 0.85939 0.0
C5736 C 0.60518 0.9857 0.85632 0.0
C5737 C 0.60721 0.97954 0.85986 0.0
C5738 C 0.60762 0.99228 0.85852 0.0
C5739 C 0.61213 0.99288 0.86435 0.0
C5740 C 0.61403 0.98673 0.86798 0.0
C5741 C 0.61161 0.98015 0.86577 0.0
C5742 C 0.61901 0.00789 0.87563 0.0
C5743 C 0.62156 0.01258 0.87054 0.0
C5744 C 0.61583 1.00157 0.87363 0.0
C5745 C 0.61507 0.99983 0.86648 0.0
C5746 C 0.61739 0.00467 0.86139 0.0
C5747 C 0.62059 0.01098 0.8634 0.0
H5748 H 0.76989 0.85179 0.60269 0.0
H5749 H 0.77985 0.86565 0.61762 0.0
H5750 H 0.75837 0.85595 0.60651 0.0
H5751 H 0.76836 0.86996 0.62129 0.0
H5752 H 0.7465 0.8721 0.63061 0.0
H5753 H 0.75766 0.8666 0.62739 0.0
H5754 H 0.75133 0.8666 0.6056 0.0
H5755 H 0.74013 0.872 0.60888 0.0
C5756 C 0.76962 0.85567 0.60683 0.0
C5757 C 0.7758 0.8584 0.60983 0.0
C5758 C 0.76302 0.85812 0.60897 0.0
C5759 C 0.76243 0.86332 0.61419 0.0
C5760 C 0.76861 0.86591 0.6173 0.0
C5761 C 0.7752 0.86349 0.61515 0.0
C5762 C 0.7475 0.87088 0.62514 0.0
C5763 C 0.74252 0.87256 0.61997 0.0
C5764 C 0.7539 0.86777 0.62329 0.0
C5765 C 0.75543 0.86621 0.61622 0.0
C5766 C 0.75032 0.86767 0.61109 0.0
C5767 C 0.74393 0.87081 0.61294 0.0
H5768 H 0.90355 0.0203 0.35204 0.0
H5769 H 0.89082 0.03026 0.36795 0.0
H5770 H 0.8993 0.00881 0.35583 0.0
H5771 H 0.8864 0.01881 0.37159 0.0
H5772 H 0.8842 0.99676 0.38052 0.0
H5773 H 0.88979 0.00788 0.37726 0.0
H5774 H 0.88846 1.00205 0.35536 0.0
H5775 H 0.88299 0.9909 0.35869 0.0
C5776 C 0.8999 0.02004 0.35639 0.0
C5777 C 0.89752 0.02622 0.35967 0.0
C5778 C 0.8974 0.01345 0.35851 0.0
C5779 C 0.89248 0.01287 0.364 0.0
C5780 C 0.89023 0.01904 0.36739 0.0
C5781 C 0.89271 0.02562 0.36525 0.0
C5782 C 0.88514 0.99787 0.37502 0.0
C5783 C 0.88307 0.99305 0.36984 0.0
C5784 C 0.8883 0.00424 0.37314 0.0
C5785 C 0.88952 0.0059 0.36604 0.0
C5786 C 0.88766 1.00094 0.36088 0.0
C5787 C 0.88448 0.99458 0.36277 0.0
H5788 H 0.73473 0.14732 0.09838 0.0
H5789 H 0.72837 0.15143 0.11977 0.0
H5790 H 0.7459 0.14274 0.10257 0.0
H5791 H 0.73941 0.14652 0.12399 0.0
H5792 H 0.76236 0.14249 0.12933 0.0
H5793 H 0.75188 0.14835 0.12471 0.0
H5794 H 0.75034 0.1326 0.10843 0.0
H5795 H 0.7609 0.12692 0.11295 0.0
C5796 C 0.73572 0.1473 0.10398 0.0
C5797 C 0.73061 0.14975 0.10872 0.0
C5798 C 0.74211 0.14458 0.10639 0.0
C5799 C 0.74357 0.14421 0.11363 0.0
C5800 C 0.73851 0.14678 0.11837 0.0
C5801 C 0.73213 0.14951 0.11596 0.0
C5802 C 0.75979 0.14035 0.12473 0.0
C5803 C 0.76239 0.13423 0.12153 0.0
C5804 C 0.75376 0.14366 0.12211 0.0
C5805 C 0.75021 0.14093 0.11622 0.0
C5806 C 0.75296 0.13491 0.11292 0.0
C5807 C 0.75899 0.13162 0.11553 0.0
H5808 H 0.61214 0.03001 0.63701 0.0
H5809 H 0.60248 0.02011 0.65498 0.0
H5810 H 0.61666 0.01867 0.63318 0.0
H5811 H 0.6068 0.0087 0.65102 0.0
H5812 H 0.62387 0.99179 0.64653 0.0
H5813 H 0.61799 1.00262 0.65018 0.0
H5814 H 0.61325 0.00731 0.62849 0.0
H5815 H 0.61924 0.99652 0.62488 0.0
C5816 C 0.61094 0.02541 0.64012 0.0
C5817 C 0.60698 0.02599 0.64633 0.0
C5818 C 0.61347 0.01888 0.63788 0.0
C5819 C 0.61211 0.01275 0.64179 0.0
C5820 C 0.60801 0.01332 0.64792 0.0
C5821 C 0.60547 0.01985 0.65015 0.0
C5822 C 0.62152 0.99513 0.64257 0.0
C5823 C 0.62211 0.99341 0.63543 0.0
C5824 C 0.61812 1.00131 0.64465 0.0
C5825 C 0.6152 0.00589 0.63962 0.0
C5826 C 0.61555 0.00398 0.63249 0.0
C5827 C 0.61894 0.9978 0.63041 0.0
H5828 H 0.72726 0.85543 0.38791 0.0
H5829 H 0.73467 0.85893 0.40906 0.0
H5830 H 0.73848 0.85958 0.38331 0.0
H5831 H 0.74572 0.86338 0.40448 0.0
H5832 H 0.76707 0.86658 0.39472 0.0
H5833 H 0.75646 0.86052 0.39869 0.0
H5834 H 0.74462 0.8705 0.38209 0.0
H5835 H 0.75527 0.87634 0.37803 0.0
C5836 C 0.73129 0.85703 0.39158 0.0
C5837 C 0.73002 0.85689 0.39886 0.0
C5838 C 0.73771 0.85949 0.38894 0.0
C5839 C 0.74302 0.86187 0.39351 0.0
C5840 C 0.74181 0.86153 0.40079 0.0
C5841 C 0.73541 0.85907 0.40342 0.0
C5842 C 0.76221 0.86734 0.39185 0.0
C5843 C 0.76202 0.87183 0.386 0.0
C5844 C 0.75611 0.86394 0.39416 0.0
C5845 C 0.74965 0.86501 0.39072 0.0
C5846 C 0.7495 0.86943 0.3848 0.0
C5847 C 0.75561 0.87281 0.38248 0.0
H5848 H 0.90113 0.97796 0.13697 0.0
H5849 H 0.89519 0.98379 0.15808 0.0
H5850 H 0.89714 0.98939 0.13272 0.0
H5851 H 0.89093 0.99504 0.15379 0.0
H5852 H 0.88892 0.01711 0.1452 0.0
H5853 H 0.89439 0.00617 0.14913 0.0
H5854 H 0.88632 0.99559 0.13074 0.0
H5855 H 0.88105 0.00658 0.12676 0.0
C5856 C 0.89901 0.98169 0.14072 0.0
C5857 C 0.89845 0.97992 0.14787 0.0
C5858 C 0.89665 0.98822 0.13826 0.0
C5859 C 0.89367 0.99315 0.1429 0.0
C5860 C 0.89325 0.99143 0.15007 0.0
C5861 C 0.89561 0.98492 0.15252 0.0
C5862 C 0.88842 0.01245 0.14197 0.0
C5863 C 0.88464 0.01271 0.13564 0.0
C5864 C 0.89149 0.00617 0.14424 0.0
C5865 C 0.8908 0.99996 0.14026 0.0
C5866 C 0.88707 1.00027 0.13388 0.0
C5867 C 0.88402 0.00656 0.13161 0.0
H5868 H 0.77997 0.14007 0.88772 0.0
H5869 H 0.77006 0.15393 0.90269 0.0
H5870 H 0.76848 0.13577 0.88408 0.0
H5871 H 0.75853 0.14979 0.89888 0.0
H5872 H 0.74028 0.13373 0.89654 0.0
H5873 H 0.75148 0.13915 0.8998 0.0
H5874 H 0.75778 0.13911 0.87799 0.0
H5875 H 0.74662 0.1336 0.8748 0.0
C5876 C 0.77534 0.14223 0.89021 0.0
C5877 C 0.77596 0.14732 0.89553 0.0
C5878 C 0.76874 0.13982 0.88807 0.0
C5879 C 0.76257 0.14242 0.89119 0.0
C5880 C 0.76317 0.14761 0.89641 0.0
C5881 C 0.76978 0.15005 0.89854 0.0
C5882 C 0.74407 0.13492 0.89246 0.0
C5883 C 0.74266 0.13314 0.88545 0.0
C5884 C 0.75046 0.13806 0.89431 0.0
C5885 C 0.75557 0.13952 0.88917 0.0
C5886 C 0.75403 0.13795 0.88211 0.0
C5887 C 0.74763 0.13482 0.88027 0.0
H5888 H 0.85425 0.60039 0.98578 0.0
H5889 H 0.86604 0.61686 0.97556 0.0
H5890 H 0.85858 0.60439 0.99719 0.0
H5891 H 0.87019 0.62097 0.98694 0.0
H5892 H 0.88132 0.62317 0.00786 0.0
H5893 H 0.87777 0.61782 0.99674 0.0
H5894 H 0.85692 0.61446 0.00504 0.0
H5895 H 0.86055 0.61975 0.0162 0.0
C5896 C 0.85781 0.60482 0.98596 0.0
C5897 C 0.85978 0.60831 0.97975 0.0
C5898 C 0.86023 0.60716 0.9925 0.0
C5899 C 0.86472 0.61301 0.993 0.0
C5900 C 0.8668 0.6164 0.98677 0.0
C5901 C 0.86436 0.61409 0.98024 0.0
C5902 C 0.876 0.62123 0.00731 0.0
C5903 C 0.87119 0.6219 0.01286 0.0
C5904 C 0.87395 0.6182 1.00093 0.0
C5905 C 0.86704 0.61575 0.99996 0.0
C5906 C 0.8623 0.61623 0.00561 0.0
C5907 C 0.86435 0.61928 0.01199 0.0
H5908 H 0.36604 0.88875 0.03054 0.0
H5909 H 0.3534 0.90468 0.02051 0.0
H5910 H 0.36991 0.88459 0.01908 0.0
H5911 H 0.35744 0.90065 0.00902 0.0
H5912 H 0.35915 0.88521 0.99014 0.0
H5913 H 0.35579 0.89045 1.0014 0.0
H5914 H 0.37702 0.88778 0.00894 0.0
H5915 H 0.38031 0.88247 0.99772 0.0
C5916 C 0.36412 0.89139 0.02589 0.0
C5917 C 0.35938 0.89703 0.02646 0.0
C5918 C 0.3664 0.88905 0.01931 0.0
C5919 C 0.36398 0.89227 0.01311 0.0
C5920 C 0.35935 0.898 0.01368 0.0
C5921 C 0.35709 0.90036 0.02027 0.0
C5922 C 0.36308 0.88579 0.99422 0.0
C5923 C 0.36996 0.88336 0.99311 0.0
C5924 C 0.36118 0.88883 1.00064 0.0
C5925 C 0.36612 0.8895 0.0061 0.0
C5926 C 0.37306 0.88724 0.0049 0.0
C5927 C 0.37496 0.88423 0.99847 0.0
H5928 H 0.85189 0.59986 0.76876 0.0
H5929 H 0.86083 0.61763 0.77967 0.0
H5930 H 0.85639 0.60441 0.75766 0.0
H5931 H 0.86533 0.62217 0.76859 0.0
H5932 H 0.86806 0.63144 0.74677 0.0
H5933 H 0.86211 0.62721 0.75735 0.0
H5934 H 0.86759 0.60588 0.75185 0.0
H5935 H 0.87342 0.61015 0.74122 0.0
C5936 C 0.85482 0.60474 0.7688 0.0
C5937 C 0.85602 0.60836 0.77513 0.0
C5938 C 0.85741 0.60735 0.76243 0.0
C5939 C 0.86126 0.61365 0.76221 0.0
C5940 C 0.86231 0.61736 0.76853 0.0
C5941 C 0.85972 0.61475 0.7749 0.0
C5942 C 0.86794 0.62585 0.74782 0.0
C5943 C 0.87128 0.62112 0.74325 0.0
C5944 C 0.86457 0.62342 0.7539 0.0
C5945 C 0.86442 0.61621 0.75551 0.0
C5946 C 0.86755 0.61147 0.75077 0.0
C5947 C 0.87092 0.6139 0.7447 0.0
H5948 H 0.15308 0.10228 0.51991 0.0
H5949 H 0.13685 0.11448 0.53 0.0
H5950 H 0.14902 0.10637 0.50844 0.0
H5951 H 0.13293 0.11873 0.51858 0.0
H5952 H 0.12369 0.12063 0.49668 0.0
H5953 H 0.12727 0.11512 0.50773 0.0
H5954 H 0.14904 0.11723 0.50167 0.0
H5955 H 0.1454 0.12264 0.49058 0.0
C5956 C 0.14861 0.10578 0.51968 0.0
C5957 C 0.14531 0.10806 0.52589 0.0
C5958 C 0.14633 0.10819 0.51311 0.0
C5959 C 0.14067 0.11291 0.51258 0.0
C5960 C 0.13727 0.11505 0.51878 0.0
C5961 C 0.13956 0.11267 0.52534 0.0
C5962 C 0.12923 0.11987 0.49772 0.0
C5963 C 0.13428 0.12214 0.49285 0.0
C5964 C 0.13129 0.11675 0.50405 0.0
C5965 C 0.13845 0.11578 0.50563 0.0
C5966 C 0.14348 0.11784 0.50062 0.0
C5967 C 0.14142 0.12098 0.49429 0.0
H5968 H 0.14232 0.88664 0.77964 0.0
H5969 H 0.15353 0.90368 0.76971 0.0
H5970 H 0.13797 0.88284 0.76822 0.0
H5971 H 0.14937 0.89973 0.75824 0.0
H5972 H 0.13282 0.89591 0.7407 0.0
H5973 H 0.13838 0.89946 0.75173 0.0
H5974 H 0.1415 0.87764 0.75713 0.0
H5975 H 0.13583 0.87414 0.74613 0.0
C5976 C 0.14389 0.88956 0.77501 0.0
C5977 C 0.14825 0.89549 0.77561 0.0
C5978 C 0.14146 0.88733 0.76845 0.0
C5979 C 0.1433 0.89098 0.7623 0.0
C5980 C 0.14778 0.89683 0.76287 0.0
C5981 C 0.15023 0.89905 0.76945 0.0
C5982 C 0.13474 0.8919 0.74425 0.0
C5983 C 0.13379 0.88476 0.74265 0.0
C5984 C 0.13796 0.89392 0.75054 0.0
C5985 C 0.14034 0.88884 0.75536 0.0
C5986 C 0.13962 0.88169 0.75361 0.0
C5987 C 0.1364 0.87968 0.7473 0.0
H5988 H 0.65595 0.40306 0.48595 0.0
H5989 H 0.63754 0.39468 0.47568 0.0
H5990 H 0.65169 0.39864 0.4972 0.0
H5991 H 0.63329 0.39024 0.48691 0.0
H5992 H 0.62478 0.38778 0.50911 0.0
H5993 H 0.62875 0.39352 0.49831 0.0
H5994 H 0.65012 0.38755 0.50309 0.0
H5995 H 0.64611 0.38196 0.51394 0.0
C5996 C 0.65099 0.40027 0.48609 0.0
C5997 C 0.64711 0.3992 0.47989 0.0
C5998 C 0.64855 0.39772 0.49254 0.0
C5999 C 0.64216 0.39405 0.49298 0.0
C6000 C 0.63819 0.39313 0.48681 0.0
C6001 C 0.64063 0.39568 0.48035 0.0
C6002 C 0.63032 0.38774 0.50784 0.0
C6003 C 0.63513 0.38433 0.51227 0.0
C6004 C 0.6326 0.39098 0.50164 0.0
C6005 C 0.63976 0.39095 0.49977 0.0
C6006 C 0.64459 0.38773 0.50437 0.0
C6007 C 0.6423 0.38449 0.51056 0.0
H6008 H 0.86364 0.38795 0.72535 0.0
H6009 H 0.85229 0.40468 0.73563 0.0
H6010 H 0.86816 0.38405 0.73667 0.0
H6011 H 0.85665 0.40064 0.747 0.0
H6012 H 0.87359 0.39674 0.76425 0.0
H6013 H 0.86775 0.40041 0.75339 0.0
H6014 H 0.86475 0.37863 0.74773 0.0
H6015 H 0.87068 0.37503 0.75854 0.0
C6016 C 0.86208 0.39077 0.73003 0.0
C6017 C 0.85763 0.39665 0.72956 0.0
C6018 C 0.86461 0.38849 0.73654 0.0
C6019 C 0.86278 0.39203 0.74277 0.0
C6020 C 0.85822 0.39783 0.74231 0.0
C6021 C 0.85566 0.4001 0.7358 0.0
C6022 C 0.87162 0.39277 0.76069 0.0
C6023 C 0.87267 0.38562 0.76216 0.0
C6024 C 0.86825 0.39485 0.75449 0.0
C6025 C 0.86583 0.38981 0.74964 0.0
C6026 C 0.86665 0.38265 0.75128 0.0
C6027 C 0.87001 0.38058 0.75748 0.0
H6028 H 0.65408 0.60218 0.23566 0.0
H6029 H 0.64091 0.61771 0.22566 0.0
H6030 H 0.64986 0.60601 0.24715 0.0
H6031 H 0.63653 0.62138 0.23711 0.0
H6032 H 0.63399 0.63041 0.25897 0.0
H6033 H 0.6398 0.62722 0.24796 0.0
H6034 H 0.63908 0.60535 0.25399 0.0
H6035 H 0.63338 0.60861 0.26504 0.0
C6036 C 0.65033 0.60646 0.23591 0.0
C6037 C 0.64782 0.60962 0.22972 0.0
C6038 C 0.64785 0.6086 0.2425 0.0
C6039 C 0.64283 0.61399 0.24307 0.0
C6040 C 0.64045 0.61726 0.23689 0.0
C6041 C 0.6429 0.61511 0.23031 0.0
C6042 C 0.63513 0.62493 0.25794 0.0
C6043 C 0.63314 0.61974 0.26278 0.0
C6044 C 0.63842 0.62309 0.25162 0.0
C6045 C 0.63985 0.61601 0.25004 0.0
C6046 C 0.63811 0.61085 0.25504 0.0
C6047 C 0.63481 0.6127 0.26135 0.0
H6048 H 0.52973 0.6377 0.89532 0.0
H6049 H 0.52068 0.65655 0.9041 0.0
H6050 H 0.51801 0.63356 0.89215 0.0
H6051 H 0.50899 0.65241 0.90097 0.0
H6052 H 0.48967 0.64645 0.88829 0.0
H6053 H 0.50163 0.6504 0.89086 0.0
H6054 H 0.50717 0.62931 0.89718 0.0
H6055 H 0.49524 0.62539 0.89445 0.0
C6056 C 0.52524 0.64092 0.89664 0.0
C6057 C 0.52616 0.64747 0.89995 0.0
C6058 C 0.51852 0.63856 0.89482 0.0
C6059 C 0.51254 0.64267 0.89626 0.0
C6060 C 0.51347 0.64917 0.89964 0.0
C6061 C 0.52018 0.65154 0.90145 0.0
C6062 C 0.49348 0.64268 0.89019 0.0
C6063 C 0.49153 0.63565 0.89125 0.0
C6064 C 0.50031 0.64493 0.89171 0.0
C6065 C 0.50536 0.64019 0.89431 0.0
C6066 C 0.50344 0.6331 0.89516 0.0
C6067 C 0.49661 0.63085 0.89363 0.0
H6068 H 0.60389 0.27586 0.1387 0.0
H6069 H 0.61338 0.27408 0.15924 0.0
H6070 H 0.60782 0.26403 0.13585 0.0
H6071 H 0.61734 0.26224 0.15636 0.0
H6072 H 0.62892 0.24362 0.14634 0.0
H6073 H 0.62546 0.25575 0.14882 0.0
H6074 H 0.60531 0.25194 0.1391 0.0
H6075 H 0.60885 0.23984 0.13655 0.0
C6076 C 0.60678 0.27293 0.14263 0.0
C6077 C 0.60827 0.27593 0.14922 0.0
C6078 C 0.60904 0.26614 0.14099 0.0
C6079 C 0.61287 0.26215 0.14588 0.0
C6080 C 0.61447 0.26518 0.15243 0.0
C6081 C 0.6122 0.27198 0.15408 0.0
C6082 C 0.62376 0.2454 0.14473 0.0
C6083 C 0.61911 0.2408 0.14132 0.0
C6084 C 0.62176 0.25233 0.14618 0.0
C6085 C 0.61509 0.25482 0.1442 0.0
C6086 C 0.61051 0.25023 0.14065 0.0
C6087 C 0.61251 0.2433 0.13922 0.0
H6088 H 0.97803 0.36367 0.38831 0.0
H6089 H 0.98449 0.35706 0.40903 0.0
H6090 H 0.99005 0.36729 0.38571 0.0
H6091 H 0.99646 0.36087 0.4065 0.0
H6092 H 0.01844 0.36085 0.39671 0.0
H6093 H 0.00635 0.3573 0.39912 0.0
H6094 H 0.99882 0.37613 0.38894 0.0
H6095 H 0.01096 0.37962 0.38647 0.0
C6096 C 0.98201 0.363 0.39232 0.0
C6097 C 0.98029 0.36004 0.39887 0.0
C6098 C 0.98889 0.36514 0.39085 0.0
C6099 C 0.99424 0.36435 0.39588 0.0
C6100 C 0.9925 0.36147 0.40247 0.0
C6101 C 0.98561 0.35936 0.40395 0.0
C6102 C 0.0142 0.36421 0.39496 0.0
C6103 C 0.01562 0.37051 0.39139 0.0
C6104 C 0.00727 0.36221 0.39639 0.0
C6105 C 1.00161 0.36645 0.39426 0.0
C6106 C 0.00305 0.37271 0.3906 0.0
C6107 C 0.00999 0.37472 0.3892 0.0
H6108 H 0.88588 0.72853 0.65261 0.0
H6109 H 0.90661 0.73405 0.64525 0.0
H6110 H 0.8818 0.7404 0.64995 0.0
H6111 H 0.90247 0.74577 0.6423 0.0
H6112 H 0.89477 0.76837 0.64487 0.0
H6113 H 0.89883 0.75653 0.64767 0.0
H6114 H 0.87915 0.74805 0.64019 0.0
H6115 H 0.87506 0.75996 0.63757 0.0
C6116 C 0.88957 0.73227 0.65044 0.0
C6117 C 0.89658 0.73031 0.64914 0.0
C6118 C 0.88721 0.73906 0.64883 0.0
C6119 C 0.8918 0.74406 0.64589 0.0
C6120 C 0.8988 0.7421 0.64462 0.0
C6121 C 0.90116 0.73533 0.64623 0.0
C6122 C 0.89132 0.76396 0.64384 0.0
C6123 C 0.88458 0.76507 0.64108 0.0
C6124 C 0.89366 0.75717 0.6454 0.0
C6125 C 0.88931 0.7513 0.64418 0.0
C6126 C 0.88259 0.75243 0.64131 0.0
C6127 C 0.88026 0.75924 0.63977 0.0
H6128 H 0.52541 0.35243 0.61609 0.0
H6129 H 0.52442 0.36405 0.59663 0.0
H6130 H 0.51367 0.35648 0.61912 0.0
H6131 H 0.51265 0.36812 0.59968 0.0
H6132 H 0.49415 0.37919 0.61045 0.0
H6133 H 0.50622 0.37562 0.60785 0.0
H6134 H 0.50162 0.35473 0.61546 0.0
H6135 H 0.48959 0.35839 0.61815 0.0
C6136 C 0.52267 0.35582 0.61243 0.0
C6137 C 0.52586 0.35787 0.60608 0.0
C6138 C 0.51593 0.35814 0.61418 0.0
C6139 C 0.51218 0.3626 0.60964 0.0
C6140 C 0.51541 0.36476 0.60334 0.0
C6141 C 0.52217 0.36242 0.60159 0.0
C6142 C 0.49575 0.37385 0.61156 0.0
C6143 C 0.49094 0.36903 0.61441 0.0
C6144 C 0.50264 0.37178 0.61004 0.0
C6145 C 0.50489 0.36487 0.6114 0.0
C6146 C 0.50009 0.36011 0.6144 0.0
C6147 C 0.4932 0.36218 0.6159 0.0
H6148 H 0.88552 0.27739 0.85691 0.0
H6149 H 0.90679 0.26996 0.85428 0.0
H6150 H 0.88184 0.26561 0.86037 0.0
H6151 H 0.90306 0.25815 0.85745 0.0
H6152 H 0.89571 0.23949 0.87062 0.0
H6153 H 0.89924 0.25144 0.86747 0.0
H6154 H 0.87999 0.25398 0.85571 0.0
H6155 H 0.87643 0.2421 0.85903 0.0
C6156 C 0.88941 0.27325 0.85706 0.0
C6157 C 0.89645 0.27465 0.85531 0.0
C6158 C 0.88729 0.26647 0.85897 0.0
C6159 C 0.89215 0.26091 0.85921 0.0
C6160 C 0.89919 0.26231 0.85742 0.0
C6161 C 0.90131 0.26908 0.8555 0.0
C6162 C 0.89224 0.24264 0.86738 0.0
C6163 C 0.88581 0.23989 0.86506 0.0
C6164 C 0.89427 0.24946 0.86553 0.0
C6165 C 0.88992 0.25369 0.8613 0.0
C6166 C 0.88344 0.25093 0.85904 0.0
C6167 C 0.88141 0.24411 0.86091 0.0
H6168 H 0.98439 0.65035 0.09744 0.0
H6169 H 0.97724 0.64197 0.11727 0.0
H6170 H 0.99632 0.64655 0.10014 0.0
H6171 H 0.98923 0.63834 0.12006 0.0
H6172 H 0.01039 0.6262 0.11868 0.0
H6173 H 0.99826 0.62988 0.11638 0.0
H6174 H 0.00587 0.64963 0.10818 0.0
H6175 H 0.01794 0.6459 0.11044 0.0
C6176 C 0.98535 0.64766 0.10236 0.0
C6177 C 0.97985 0.64647 0.10714 0.0
C6178 C 0.99221 0.64556 0.10395 0.0
C6179 C 0.99375 0.64218 0.11034 0.0
C6180 C 0.98823 0.64089 0.11507 0.0
C6181 C 0.98137 0.64303 0.1135 0.0
C6182 C 0.00943 0.63134 0.11644 0.0
C6183 C 0.01508 0.63575 0.11469 0.0
C6184 C 1.0025 0.63346 0.11513 0.0
C6185 C 1.00109 0.64003 0.11203 0.0
C6186 C 0.00676 0.64449 0.11046 0.0
C6187 C 0.01368 0.64238 0.11179 0.0
H6188 H 0.59961 0.73578 0.35215 0.0
H6189 H 0.61865 0.72672 0.36052 0.0
H6190 H 0.60381 0.74747 0.35521 0.0
H6191 H 0.62285 0.73844 0.36362 0.0
H6192 H 0.63096 0.76122 0.36114 0.0
H6193 H 0.62699 0.74929 0.35851 0.0
H6194 H 0.60604 0.75483 0.36527 0.0
H6195 H 0.61004 0.7668 0.36774 0.0
C6196 C 0.60468 0.73627 0.3547 0.0
C6197 C 0.60878 0.73029 0.35611 0.0
C6198 C 0.60708 0.74299 0.35647 0.0
C6199 C 0.61366 0.74391 0.35971 0.0
C6200 C 0.6178 0.73794 0.36106 0.0
C6201 C 0.61539 0.73121 0.35927 0.0
C6202 C 0.62552 0.75986 0.36208 0.0
C6203 C 0.62077 0.76494 0.36455 0.0
C6204 C 0.62324 0.75302 0.36061 0.0
C6205 C 0.61618 0.7511 0.36161 0.0
C6206 C 0.61149 0.75615 0.3643 0.0
C6207 C 0.61377 0.76299 0.36576 0.0
H6208 H 0.89573 0.5285 0.63795 0.0
H6209 H 0.90481 0.51947 0.65668 0.0
H6210 H 0.89249 0.51677 0.63388 0.0
H6211 H 0.9016 0.50778 0.65262 0.0
H6212 H 0.88844 0.48861 0.64702 0.0
H6213 H 0.89133 0.50054 0.65084 0.0
H6214 H 0.89738 0.50582 0.62961 0.0
H6215 H 0.89435 0.49391 0.62582 0.0
C6216 C 0.89711 0.52401 0.64117 0.0
C6217 C 0.9005 0.52494 0.64766 0.0
C6218 C 0.89524 0.51728 0.63884 0.0
C6219 C 0.89674 0.51131 0.64294 0.0
C6220 C 0.90023 0.51225 0.64938 0.0
C6221 C 0.90209 0.51897 0.65171 0.0
C6222 C 0.89038 0.49234 0.64319 0.0
C6223 C 0.89129 0.49032 0.63616 0.0
C6224 C 0.89208 0.49916 0.64537 0.0
C6225 C 0.89467 0.50413 0.64055 0.0
C6226 C 0.89537 0.50215 0.63346 0.0
C6227 C 0.89368 0.49532 0.63129 0.0
H6228 H 0.73557 0.65288 0.90634 0.0
H6229 H 0.72693 0.64585 0.88658 0.0
H6230 H 0.74733 0.64994 0.90226 0.0
H6231 H 0.73871 0.64286 0.8825 0.0
H6232 H 0.76166 0.6455 0.8751 0.0
H6233 H 0.74969 0.64806 0.87895 0.0
H6234 H 0.75467 0.63999 0.89958 0.0
H6235 H 0.76669 0.6376 0.89571 0.0
C6236 C 0.73617 0.65065 0.90114 0.0
C6237 C 0.73029 0.64959 0.8968 0.0
C6238 C 0.74292 0.64895 0.8988 0.0
C6239 C 0.74399 0.64611 0.89206 0.0
C6240 C 0.73811 0.6451 0.88769 0.0
C6241 C 0.73135 0.64683 0.89003 0.0
C6242 C 0.76017 0.64425 0.88044 0.0
C6243 C 0.7651 0.64142 0.88514 0.0
C6244 C 0.7533 0.64569 0.88265 0.0
C6245 C 0.75121 0.64429 0.8896 0.0
C6246 C 0.75612 0.64127 0.89423 0.0
C6247 C 0.76299 0.63984 0.89202 0.0
H6248 H 0.59722 0.48154 0.14015 0.0
H6249 H 0.6159 0.48115 0.15303 0.0
H6250 H 0.60032 0.49328 0.13605 0.0
H6251 H 0.61897 0.49288 0.14895 0.0
H6252 H 0.61747 0.51696 0.1465 0.0
H6253 H 0.61497 0.50491 0.1502 0.0
H6254 H 0.60883 0.49973 0.12897 0.0
H6255 H 0.61124 0.51183 0.12535 0.0
C6256 C 0.60203 0.48392 0.14205 0.0
C6257 C 0.60628 0.48039 0.14696 0.0
C6258 C 0.60381 0.49066 0.13969 0.0
C6259 C 0.60989 0.49405 0.14219 0.0
C6260 C 0.61419 0.49048 0.14701 0.0
C6261 C 0.61242 0.48375 0.14936 0.0
C6262 C 0.61561 0.51322 0.14265 0.0
C6263 C 0.61446 0.51533 0.13568 0.0
C6264 C 0.61421 0.50631 0.14474 0.0
C6265 C 0.61165 0.50134 0.13989 0.0
C6266 C 0.61067 0.50344 0.13286 0.0
C6267 C 0.61209 0.51035 0.13078 0.0
H6268 H 0.77179 0.36036 0.40803 0.0
H6269 H 0.77759 0.35388 0.38708 0.0
H6270 H 0.76004 0.36322 0.40392 0.0
H6271 H 0.7657 0.35645 0.38302 0.0
H6272 H 0.74576 0.36823 0.37653 0.0
H6273 H 0.75776 0.36607 0.38066 0.0
H6274 H 0.74949 0.35762 0.40003 0.0
H6275 H 0.73756 0.35997 0.39595 0.0
C6276 C 0.77057 0.35956 0.40254 0.0
C6277 C 0.77567 0.35691 0.39789 0.0
C6278 C 0.76379 0.36112 0.40019 0.0
C6279 C 0.76189 0.36007 0.39313 0.0
C6280 C 0.76699 0.35741 0.38847 0.0
C6281 C 0.77378 0.35585 0.39082 0.0
C6282 C 0.74655 0.36596 0.38168 0.0
C6283 C 0.74076 0.36423 0.3859 0.0
C6284 C 0.75341 0.36467 0.38403 0.0
C6285 C 0.75461 0.36163 0.39067 0.0
C6286 C 0.74878 0.36003 0.39493 0.0
C6287 C 0.74194 0.36134 0.39258 0.0
H6288 H 0.89674 0.48487 0.84883 0.0
H6289 H 0.90273 0.47918 0.86996 0.0
H6290 H 0.89381 0.49665 0.8528 0.0
H6291 H 0.90009 0.4911 0.87389 0.0
H6292 H 0.88764 0.51093 0.87984 0.0
H6293 H 0.89034 0.49896 0.87597 0.0
H6294 H 0.8992 0.50727 0.85678 0.0
H6295 H 0.8963 0.51916 0.8606 0.0
C6296 C 0.89743 0.48612 0.85433 0.0
C6297 C 0.89994 0.48104 0.85907 0.0
C6298 C 0.89583 0.49292 0.8566 0.0
C6299 C 0.89672 0.49485 0.86367 0.0
C6300 C 0.89926 0.48979 0.86842 0.0
C6301 C 0.90086 0.48297 0.86615 0.0
C6302 C 0.89013 0.51016 0.87479 0.0
C6303 C 0.89174 0.51595 0.87051 0.0
C6304 C 0.89174 0.50332 0.87258 0.0
C6305 C 0.895 0.50213 0.86606 0.0
C6306 C 0.89659 0.50796 0.86179 0.0
C6307 C 0.89497 0.51478 0.86398 0.0
H6308 H 0.77178 0.64554 0.09861 0.0
H6309 H 0.77732 0.65219 0.11958 0.0
H6310 H 0.75996 0.64277 0.10259 0.0
H6311 H 0.76537 0.64971 0.1235 0.0
H6312 H 0.74543 0.63774 0.1298 0.0
H6313 H 0.75745 0.64008 0.12585 0.0
H6314 H 0.74934 0.64831 0.1063 0.0
H6315 H 0.73739 0.64577 0.11021 0.0
C6316 C 0.77048 0.64641 0.10408 0.0
C6317 C 0.77554 0.64906 0.10878 0.0
C6318 C 0.76367 0.64489 0.10635 0.0
C6319 C 0.76168 0.64601 0.11337 0.0
C6320 C 0.76672 0.6487 0.11807 0.0
C6321 C 0.77356 0.65021 0.1158 0.0
C6322 C 0.74626 0.64001 0.12465 0.0
C6323 C 0.74051 0.6416 0.12032 0.0
C6324 C 0.75313 0.64141 0.1224 0.0
C6325 C 0.75438 0.64442 0.11576 0.0
C6326 C 0.74859 0.64591 0.11141 0.0
C6327 C 0.74174 0.6445 0.11366 0.0
H6328 H 0.59721 0.52456 0.36547 0.0
H6329 H 0.61667 0.52562 0.35385 0.0
H6330 H 0.60029 0.5128 0.36952 0.0
H6331 H 0.61971 0.51386 0.35786 0.0
H6332 H 0.61874 0.48973 0.3599 0.0
H6333 H 0.61601 0.50173 0.35616 0.0
H6334 H 0.60856 0.5065 0.37706 0.0
H6335 H 0.61123 0.49447 0.38073 0.0
C6336 C 0.60218 0.52232 0.36383 0.0
C6337 C 0.60667 0.52605 0.35929 0.0
C6338 C 0.60394 0.51557 0.36615 0.0
C6339 C 0.61024 0.51236 0.364 0.0
C6340 C 0.61476 0.51611 0.35953 0.0
C6341 C 0.61301 0.52286 0.35722 0.0
C6342 C 0.61654 0.49338 0.36367 0.0
C6343 C 0.61515 0.49118 0.37057 0.0
C6344 C 0.61501 0.50025 0.36156 0.0
C6345 C 0.61204 0.50509 0.36631 0.0
C6346 C 0.61074 0.50289 0.37325 0.0
C6347 C 0.6123 0.49602 0.37536 0.0
H6348 H 0.7348 0.35913 0.59752 0.0
H6349 H 0.72864 0.35423 0.61879 0.0
H6350 H 0.74656 0.36203 0.60158 0.0
H6351 H 0.74052 0.35683 0.62282 0.0
H6352 H 0.76053 0.36894 0.62867 0.0
H6353 H 0.74857 0.36648 0.62462 0.0
H6354 H 0.75699 0.35661 0.60599 0.0
H6355 H 0.76888 0.35925 0.60998 0.0
C6356 C 0.73595 0.35868 0.60307 0.0
C6357 C 0.73074 0.35647 0.60783 0.0
C6358 C 0.74273 0.36026 0.60539 0.0
C6359 C 0.74452 0.35967 0.61254 0.0
C6360 C 0.73932 0.35743 0.6173 0.0
C6361 C 0.73252 0.35585 0.61497 0.0
C6362 C 0.75978 0.36629 0.62369 0.0
C6363 C 0.76561 0.3643 0.61963 0.0
C6364 C 0.75295 0.36483 0.62139 0.0
C6365 C 0.75179 0.36132 0.61498 0.0
C6366 C 0.75765 0.35939 0.6109 0.0
C6367 C 0.76448 0.36088 0.6132 0.0
H6368 H 0.63654 0.89632 0.52901 0.0
H6369 H 0.65616 0.90363 0.5203 0.0
H6370 H 0.6325 0.89316 0.51727 0.0
H6371 H 0.65212 0.90052 0.50856 0.0
H6372 H 0.64583 0.88734 0.48954 0.0
H6373 H 0.64968 0.89038 0.50142 0.0
H6374 H 0.62885 0.89803 0.50617 0.0
H6375 H 0.62501 0.89481 0.49434 0.0
C6376 C 0.63996 0.89733 0.52458 0.0
C6377 C 0.64669 0.90021 0.52561 0.0
C6378 C 0.63765 0.89551 0.51784 0.0
C6379 C 0.64199 0.89654 0.51195 0.0
C6380 C 0.64868 0.89951 0.51298 0.0
C6381 C 0.651 0.90131 0.51972 0.0
C6382 C 0.6421 0.88967 0.49315 0.0
C6383 C 0.63516 0.89093 0.49101 0.0
C6384 C 0.6443 0.89145 0.49994 0.0
C6385 C 0.6396 0.89451 0.50476 0.0
C6386 C 0.6326 0.89564 0.50263 0.0
C6387 C 0.63041 0.89385 0.49584 0.0
H6388 H 0.15624 0.6119 0.48316 0.0
H6389 H 0.13631 0.60188 0.47902 0.0
H6390 H 0.15232 0.61486 0.49495 0.0
H6391 H 0.1325 0.60457 0.49096 0.0
H6392 H 0.12526 0.61675 0.51045 0.0
H6393 H 0.12904 0.61422 0.49842 0.0
H6394 H 0.1499 0.60953 0.50606 0.0
H6395 H 0.14612 0.61225 0.51801 0.0
C6396 C 0.151 0.61034 0.48476 0.0
C6397 C 0.14658 0.60667 0.48011 0.0
C6398 C 0.14879 0.61196 0.49157 0.0
C6399 C 0.14209 0.60995 0.49394 0.0
C6400 C 0.13766 0.60627 0.4893 0.0
C6401 C 0.13988 0.60465 0.48247 0.0
C6402 C 0.13065 0.61519 0.50952 0.0
C6403 C 0.13538 0.61463 0.51514 0.0
C6404 C 0.13281 0.61369 0.50264 0.0
C6405 C 0.13978 0.61163 0.50125 0.0
C6406 C 0.14452 0.61117 0.5069 0.0
C6407 C 0.14236 0.61269 0.51376 0.0
H6408 H 0.64591 0.88713 0.72694 0.0
H6409 H 0.65393 0.90633 0.73597 0.0
H6410 H 0.64265 0.883 0.73863 0.0
H6411 H 0.65072 0.9022 0.74764 0.0
H6412 H 0.63775 0.896 0.76675 0.0
H6413 H 0.64059 0.89995 0.75485 0.0
H6414 H 0.64753 0.87898 0.74961 0.0
H6415 H 0.64452 0.87506 0.76146 0.0
C6416 C 0.64705 0.89044 0.73143 0.0
C6417 C 0.65016 0.89708 0.7305 0.0
C6418 C 0.64518 0.88807 0.73814 0.0
C6419 C 0.64638 0.89228 0.7441 0.0
C6420 C 0.64957 0.89888 0.74317 0.0
C6421 C 0.65143 0.90125 0.73647 0.0
C6422 C 0.63986 0.89226 0.76302 0.0
C6423 C 0.64099 0.88526 0.76503 0.0
C6424 C 0.64153 0.89451 0.75622 0.0
C6425 C 0.64435 0.8898 0.75127 0.0
C6426 C 0.64532 0.88275 0.75326 0.0
C6427 C 0.64364 0.8805 0.76005 0.0
H6428 H 0.37047 0.40074 0.97897 0.0
H6429 H 0.34884 0.39817 0.98534 0.0
H6430 H 0.37432 0.39723 0.99067 0.0
H6431 H 0.35268 0.39499 0.9971 0.0
H6432 H 0.36172 0.383 0.01567 0.0
H6433 H 0.35824 0.38578 0.00361 0.0
H6434 H 0.37464 0.40144 1.00256 0.0
H6435 H 0.3782 0.39848 0.01452 0.0
C6436 C 0.36653 0.39943 0.98285 0.0
C6437 C 0.35934 0.39976 0.98118 0.0
C6438 C 0.36874 0.39749 0.9896 0.0
C6439 C 0.36382 0.39582 0.99486 0.0
C6440 C 0.35663 0.39614 0.99318 0.0
C6441 C 0.35442 0.39807 0.98644 0.0
C6442 C 0.36461 0.38697 0.0128 0.0
C6443 C 0.37026 0.39047 0.01599 0.0
C6444 C 0.36259 0.38862 0.00593 0.0
C6445 C 0.36614 0.39386 1.00209 0.0
C6446 C 0.37185 0.39731 0.00529 0.0
C6447 C 0.37387 0.39564 0.01216 0.0
H6448 H 0.34724 0.60552 0.73437 0.0
H6449 H 0.36644 0.61497 0.72689 0.0
H6450 H 0.35005 0.60923 0.7463 0.0
H6451 H 0.36936 0.61853 0.73887 0.0
H6452 H 0.36795 0.63025 0.76025 0.0
H6453 H 0.36552 0.62665 0.74812 0.0
H6454 H 0.35847 0.60642 0.75561 0.0
H6455 H 0.36084 0.61007 0.76769 0.0
C6456 C 0.35204 0.60843 0.73526 0.0
C6457 C 0.35661 0.60995 0.72966 0.0
C6458 C 0.3537 0.61048 0.74212 0.0
C6459 C 0.35996 0.61414 0.74356 0.0
C6460 C 0.36448 0.61575 0.73795 0.0
C6461 C 0.36284 0.61366 0.73109 0.0
C6462 C 0.36593 0.62502 0.75926 0.0
C6463 C 0.36452 0.62047 0.76488 0.0
C6464 C 0.36455 0.62295 0.75233 0.0
C6465 C 0.36174 0.61626 0.75089 0.0
C6466 C 0.36051 0.61165 0.75653 0.0
C6467 C 0.36191 0.61372 0.76345 0.0
H6468 H 0.86353 0.11611 0.0286 0.0
H6469 H 0.85562 0.09616 0.02126 0.0
H6470 H 0.8672 0.11905 0.01667 0.0
H6471 H 0.85948 0.09901 0.00937 0.0
H6472 H 0.85997 0.10974 0.98784 0.0
H6473 H 0.85631 0.10706 0.99985 0.0
H6474 H 0.87579 0.11566 0.00769 0.0
H6475 H 0.87939 0.1184 0.99564 0.0
C6476 C 0.86258 0.11234 0.02444 0.0
C6477 C 0.85926 0.1059 0.02589 0.0
C6478 C 0.86475 0.114 0.01761 0.0
C6479 C 0.86362 0.10928 0.01205 0.0
C6480 C 0.86036 0.10281 0.01351 0.0
C6481 C 0.85822 0.10113 0.02035 0.0
C6482 C 0.86345 0.11106 0.99214 0.0
C6483 C 0.86999 0.11421 0.99083 0.0
C6484 C 0.86138 0.10949 0.99902 0.0
C6485 C 0.86578 0.11109 0.00474 0.0
C6486 C 0.87226 0.1144 0.00342 0.0
C6487 C 0.87434 0.11594 0.99653 0.0
H6488 H 0.6391 0.10336 0.77488 0.0
H6489 H 0.65828 0.11547 0.77442 0.0
H6490 H 0.63618 0.10752 0.76313 0.0
H6491 H 0.65533 0.11966 0.76267 0.0
H6492 H 0.64483 0.13073 0.74411 0.0
H6493 H 0.64709 0.12706 0.75622 0.0
H6494 H 0.64015 0.10607 0.7511 0.0
H6495 H 0.6378 0.10982 0.73902 0.0
C6496 C 0.64272 0.10688 0.77226 0.0
C6497 C 0.64895 0.10904 0.7756 0.0
C6498 C 0.64104 0.10927 0.76552 0.0
C6499 C 0.64553 0.11391 0.76193 0.0
C6500 C 0.6517 0.11617 0.76531 0.0
C6501 C 0.65339 0.11376 0.77206 0.0
C6502 C 0.64377 0.12535 0.74561 0.0
C6503 C 0.64121 0.12053 0.74064 0.0
C6504 C 0.6451 0.12323 0.75252 0.0
C6505 C 0.64385 0.11625 0.75464 0.0
C6506 C 0.64111 0.11149 0.74968 0.0
C6507 C 0.6398 0.11362 0.74276 0.0
H6508 H 0.85682 0.90743 0.27071 0.0
H6509 H 0.85482 0.88569 0.2769 0.0
H6510 H 0.86003 0.90377 0.25889 0.0
H6511 H 0.85836 0.88203 0.26515 0.0
H6512 H 0.85766 0.87811 0.24135 0.0
H6513 H 0.85428 0.88166 0.25321 0.0
H6514 H 0.86948 0.89851 0.25246 0.0
H6515 H 0.87268 0.89504 0.24051 0.0
C6516 C 0.85704 0.90186 0.26955 0.0
C6517 C 0.85553 0.89686 0.27478 0.0
C6518 C 0.85898 0.89976 0.26278 0.0
C6519 C 0.85949 0.8926 0.26104 0.0
C6520 C 0.85796 0.88759 0.26626 0.0
C6521 C 0.85601 0.88969 0.27304 0.0
C6522 C 0.86028 0.88255 0.24375 0.0
C6523 C 0.86546 0.88628 0.24004 0.0
C6524 C 0.85838 0.88457 0.25056 0.0
C6525 C 0.8616 0.89037 0.25382 0.0
C6526 C 0.86681 0.89408 0.25009 0.0
C6527 C 0.86869 0.89207 0.24328 0.0
H6528 H 0.48354 0.34788 0.11206 0.0
H6529 H 0.47806 0.36875 0.10504 0.0
H6530 H 0.49485 0.3522 0.11612 0.0
H6531 H 0.48954 0.37302 0.10883 0.0
H6532 H 0.50673 0.37953 0.12471 0.0
H6533 H 0.49572 0.37545 0.11957 0.0
H6534 H 0.50606 0.35652 0.1125 0.0
H6535 H 0.51703 0.36057 0.11784 0.0
C6536 C 0.48476 0.35339 0.11135 0.0
C6537 C 0.47984 0.35797 0.10828 0.0
C6538 C 0.4913 0.35586 0.1136 0.0
C6539 C 0.49314 0.36297 0.11283 0.0
C6540 C 0.48828 0.36753 0.1096 0.0
C6541 C 0.48172 0.36506 0.10735 0.0
C6542 C 0.50666 0.37453 0.12199 0.0
C6543 C 0.51274 0.37038 0.12163 0.0
C6544 C 0.50035 0.3722 0.11901 0.0
C6545 C 0.49997 0.36565 0.11561 0.0
C6546 C 0.50612 0.36155 0.11515 0.0
C6547 C 0.51242 0.36388 0.11815 0.0
H6548 H 0.40903 0.73481 0.85851 0.0
H6549 H 0.38782 0.72734 0.85553 0.0
H6550 H 0.40453 0.74586 0.86305 0.0
H6551 H 0.3833 0.73856 0.85976 0.0
H6552 H 0.37828 0.75543 0.87649 0.0
H6553 H 0.38229 0.74474 0.87067 0.0
H6554 H 0.39866 0.75657 0.86032 0.0
H6555 H 0.39474 0.76722 0.86634 0.0
C6556 C 0.4034 0.73554 0.85878 0.0
C6557 C 0.3988 0.73013 0.85672 0.0
C6558 C 0.40081 0.74193 0.8613 0.0
C6559 C 0.39353 0.74312 0.86182 0.0
C6560 C 0.38893 0.7378 0.85954 0.0
C6561 C 0.39153 0.73138 0.85703 0.0
C6562 C 0.38268 0.75575 0.8729 0.0
C6563 C 0.38614 0.76217 0.8718 0.0
C6564 C 0.38496 0.74963 0.86953 0.0
C6565 C 0.3908 0.74976 0.865 0.0
C6566 C 0.3942 0.75623 0.86382 0.0
C6567 C 0.39192 0.76235 0.86722 0.0
H6568 H 0.03012 0.63782 0.61479 0.0
H6569 H 0.01997 0.6535 0.60192 0.0
H6570 H 0.01871 0.63395 0.6191 0.0
H6571 H 0.00852 0.64948 0.60608 0.0
H6572 H 0.99055 0.64622 0.62232 0.0
H6573 H 1.00165 0.6498 0.61689 0.0
H6574 H 0.00795 0.62804 0.61555 0.0
H6575 H 0.99689 0.62452 0.62107 0.0
C6576 C 0.02545 0.64042 0.61285 0.0
C6577 C 0.02598 0.646 0.60803 0.0
C6578 C 0.01889 0.63815 0.61526 0.0
C6579 C 0.01268 0.6414 0.61294 0.0
C6580 C 0.01319 0.6469 0.60803 0.0
C6581 C 0.01976 0.64916 0.60559 0.0
C6582 C 0.99431 0.64223 0.62082 0.0
C6583 C 0.99293 0.63512 0.6222 0.0
C6584 C 1.00065 0.64426 0.61768 0.0
C6585 C 0.00573 0.63921 0.61583 0.0
C6586 C 0.00421 0.63207 0.61702 0.0
C6587 C 0.99787 0.63005 0.62014 0.0
H6588 H 0.11889 0.27748 0.35262 0.0
H6589 H 0.09862 0.27242 0.36145 0.0
H6590 H 0.12339 0.26611 0.35648 0.0
H6591 H 0.10318 0.26123 0.36558 0.0
H6592 H 0.11156 0.23921 0.36801 0.0
H6593 H 0.10721 0.24983 0.36222 0.0
H6594 H 0.12661 0.26047 0.36729 0.0
H6595 H 0.13098 0.24979 0.37287 0.0
C6596 C 0.11538 0.27393 0.35533 0.0
C6597 C 0.1084 0.27591 0.35676 0.0
C6598 C 0.11798 0.26744 0.35762 0.0
C6599 C 0.11367 0.26274 0.36139 0.0
C6600 C 0.10665 0.26466 0.36264 0.0
C6601 C 0.10405 0.27113 0.36035 0.0
C6602 C 0.11492 0.24379 0.36775 0.0
C6603 C 0.12163 0.24365 0.3708 0.0
C6604 C 0.11242 0.2499 0.3645 0.0
C6605 C 0.11654 0.25604 0.36429 0.0
C6606 C 0.12332 0.25583 0.36724 0.0
C6607 C 0.12582 0.24972 0.37046 0.0
H6608 H 0.47575 0.63846 0.39435 0.0
H6609 H 0.48655 0.65584 0.40415 0.0
H6610 H 0.48689 0.63414 0.38976 0.0
H6611 H 0.49769 0.65151 0.39958 0.0
H6612 H 0.51444 0.64654 0.3827 0.0
H6613 H 0.50366 0.65053 0.38844 0.0
H6614 H 0.49809 0.62897 0.39287 0.0
H6615 H 0.50882 0.62503 0.387 0.0
C6616 C 0.48052 0.6413 0.39562 0.0
C6617 C 0.48023 0.64753 0.3996 0.0
C6618 C 0.48692 0.63882 0.39299 0.0
C6619 C 0.49321 0.64249 0.39426 0.0
C6620 C 0.49294 0.64862 0.39838 0.0
C6621 C 0.48655 0.6511 0.40101 0.0
C6622 C 0.5109 0.64268 0.38493 0.0
C6623 C 0.51238 0.63548 0.38431 0.0
C6624 C 0.50475 0.64495 0.38826 0.0
C6625 C 0.49996 0.64007 0.39108 0.0
C6626 C 0.50158 0.63287 0.39065 0.0
C6627 C 0.50774 0.6306 0.38732 0.0
H6628 H 0.11896 0.7273 0.14986 0.0
H6629 H 0.09768 0.7336 0.14519 0.0
H6630 H 0.12319 0.73875 0.14597 0.0
H6631 H 0.10192 0.7449 0.141 0.0
H6632 H 0.11079 0.76684 0.13889 0.0
H6633 H 0.10695 0.75587 0.14438 0.0
H6634 H 0.12471 0.74513 0.13519 0.0
H6635 H 0.12862 0.75615 0.12992 0.0
C6636 C 0.11517 0.73113 0.14805 0.0
C6637 C 0.10797 0.72949 0.14781 0.0
C6638 C 0.11761 0.73768 0.14574 0.0
C6639 C 0.11291 0.74276 0.14312 0.0
C6640 C 0.1057 0.74117 0.14304 0.0
C6641 C 0.10327 0.73463 0.14536 0.0
C6642 C 0.11391 0.76215 0.13816 0.0
C6643 C 0.12005 0.76236 0.13407 0.0
C6644 C 0.11169 0.75584 0.14124 0.0
C6645 C 0.11551 0.74959 0.14024 0.0
C6646 C 0.1217 0.74985 0.13619 0.0
C6647 C 0.12393 0.75616 0.13314 0.0
H6648 H 0.02761 0.36875 0.90266 0.0
H6649 H 0.02317 0.34844 0.89356 0.0
H6650 H 0.01619 0.37301 0.89867 0.0
H6651 H 0.01193 0.35277 0.88933 0.0
H6652 H 0.98969 0.3606 0.88686 0.0
H6653 H 1.00039 0.35648 0.89269 0.0
H6654 H 0.01056 0.37618 0.8878 0.0
H6655 H 0.99981 0.38031 0.88217 0.0
C6656 C 0.02419 0.36517 0.89986 0.0
C6657 C 0.02635 0.35826 0.89839 0.0
C6658 C 0.01766 0.36764 0.8975 0.0
C6659 C 0.01312 0.36326 0.89364 0.0
C6660 C 0.01523 0.35629 0.89234 0.0
C6661 C 0.02173 0.35383 0.89469 0.0
C6662 C 0.9942 0.36406 0.88714 0.0
C6663 C 0.99393 0.37077 0.88409 0.0
C6664 C 1.00035 0.3617 0.89043 0.0
C6665 C 0.00638 0.36598 0.89069 0.0
C6666 C 0.00601 0.37277 0.88779 0.0
C6667 C 0.99986 0.37513 0.88452 0.0
H6668 H 0.38899 0.28041 0.63937 0.0
H6669 H 0.40238 0.27013 0.65451 0.0
H6670 H 0.38514 0.26901 0.63501 0.0
H6671 H 0.39836 0.2587 0.65029 0.0
H6672 H 0.39628 0.2402 0.63445 0.0
H6673 H 0.39971 0.25137 0.63983 0.0
H6674 H 0.37829 0.25868 0.6382 0.0
H6675 H 0.37493 0.24754 0.63275 0.0
C6676 C 0.39109 0.27572 0.64179 0.0
C6677 C 0.39602 0.2762 0.64727 0.0
C6678 C 0.38882 0.26917 0.63935 0.0
C6679 C 0.39144 0.26292 0.64229 0.0
C6680 C 0.39629 0.2634 0.64785 0.0
C6681 C 0.39853 0.26995 0.65033 0.0
C6682 C 0.39232 0.2442 0.6353 0.0
C6683 C 0.38537 0.24306 0.63311 0.0
C6684 C 0.39426 0.25058 0.63841 0.0
C6685 C 0.38928 0.25596 0.63941 0.0
C6686 C 0.38228 0.25471 0.6374 0.0
C6687 C 0.38034 0.24832 0.63431 0.0
H6688 H 0.10032 0.48556 0.35416 0.0
H6689 H 0.11698 0.47538 0.36569 0.0
H6690 H 0.10441 0.49699 0.35835 0.0
H6691 H 0.12118 0.48679 0.36971 0.0
H6692 H 0.12351 0.50775 0.38075 0.0
H6693 H 0.11813 0.49661 0.37732 0.0
H6694 H 0.11447 0.50483 0.35648 0.0
H6695 H 0.11979 0.51601 0.35999 0.0
C6696 C 0.10482 0.48576 0.35763 0.0
C6697 C 0.10833 0.47955 0.35957 0.0
C6698 C 0.1072 0.49231 0.35998 0.0
C6699 C 0.11314 0.49282 0.36435 0.0
C6700 C 0.11656 0.4866 0.36641 0.0
C6701 C 0.11419 0.48006 0.36404 0.0
C6702 C 0.12149 0.50719 0.37546 0.0
C6703 C 0.12208 0.51272 0.37062 0.0
C6704 C 0.11845 0.50079 0.37348 0.0
C6705 C 0.11591 0.49979 0.36661 0.0
C6706 C 0.11631 0.50543 0.36183 0.0
C6707 C 0.11938 0.51182 0.36382 0.0
H6708 H 0.28083 0.36653 0.11706 0.0
H6709 H 0.27065 0.35189 0.10306 0.0
H6710 H 0.2694 0.37095 0.12077 0.0
H6711 H 0.25919 0.35617 0.10693 0.0
H6712 H 0.24084 0.37215 0.10904 0.0
H6713 H 0.25203 0.36674 0.1057 0.0
H6714 H 0.25889 0.36773 0.12731 0.0
H6715 H 0.24774 0.37321 0.13058 0.0
C6716 C 0.27615 0.36423 0.1148 0.0
C6717 C 0.27667 0.35888 0.10974 0.0
C6718 C 0.26959 0.36671 0.11698 0.0
C6719 C 0.26336 0.36392 0.11415 0.0
C6720 C 0.26387 0.35848 0.10917 0.0
C6721 C 0.27045 0.35598 0.10701 0.0
C6722 C 0.24475 0.37116 0.11305 0.0
C6723 C 0.24349 0.37318 0.12003 0.0
C6724 C 0.25113 0.36804 0.11117 0.0
C6725 C 0.25639 0.36684 0.11623 0.0
C6726 C 0.25502 0.36868 0.12326 0.0
C6727 C 0.24862 0.37179 0.12514 0.0
H6728 H 0.40824 0.52436 0.86485 0.0
H6729 H 0.39193 0.5244 0.84908 0.0
H6730 H 0.40383 0.51317 0.86934 0.0
H6731 H 0.38756 0.51327 0.85353 0.0
H6732 H 0.38421 0.49057 0.85941 0.0
H6733 H 0.3902 0.50089 0.85458 0.0
H6734 H 0.39372 0.50862 0.87563 0.0
H6735 H 0.38788 0.49824 0.8804 0.0
C6736 C 0.40371 0.522 0.86235 0.0
C6737 C 0.40046 0.5253 0.85659 0.0
C6738 C 0.40119 0.51557 0.86492 0.0
C6739 C 0.39535 0.51229 0.86179 0.0
C6740 C 0.39215 0.51556 0.85599 0.0
C6741 C 0.39466 0.52197 0.85343 0.0
C6742 C 0.38636 0.49445 0.86298 0.0
C6743 C 0.38554 0.49366 0.87026 0.0
C6744 C 0.38974 0.50038 0.86023 0.0
C6745 C 0.39238 0.50564 0.86471 0.0
C6746 C 0.39181 0.50467 0.87202 0.0
C6747 C 0.38843 0.49874 0.87476 0.0
H6748 H 0.22734 0.65009 0.61849 0.0
H6749 H 0.23446 0.64649 0.59725 0.0
H6750 H 0.2387 0.64615 0.62295 0.0
H6751 H 0.24565 0.64226 0.6017 0.0
H6752 H 0.26729 0.64001 0.61122 0.0
H6753 H 0.25639 0.64553 0.60726 0.0
H6754 H 0.24518 0.63541 0.62421 0.0
H6755 H 0.25613 0.6301 0.62825 0.0
C6756 C 0.23134 0.6485 0.61477 0.0
C6757 C 0.22995 0.64857 0.60751 0.0
C6758 C 0.23783 0.64616 0.61733 0.0
C6759 C 0.24311 0.64383 0.6127 0.0
C6760 C 0.24177 0.64407 0.60544 0.0
C6761 C 0.23529 0.64641 0.60288 0.0
C6762 C 0.2625 0.63907 0.61415 0.0
C6763 C 0.26257 0.63472 0.6201 0.0
C6764 C 0.25624 0.64218 0.61185 0.0
C6765 C 0.24988 0.64093 0.61541 0.0
C6766 C 0.24998 0.63661 0.62141 0.0
C6767 C 0.25625 0.63353 0.62371 0.0
H6768 H 0.10242 0.5196 0.15586 0.0
H6769 H 0.1126 0.5303 0.13864 0.0
H6770 H 0.10704 0.50842 0.15166 0.0
H6771 H 0.11724 0.51913 0.13445 0.0
H6772 H 0.11998 0.4971 0.12546 0.0
H6773 H 0.11419 0.50793 0.12925 0.0
H6774 H 0.11813 0.50237 0.15091 0.0
H6775 H 0.12378 0.49149 0.14706 0.0
C6776 C 0.10565 0.51957 0.15118 0.0
C6777 C 0.10716 0.52587 0.14761 0.0
C6778 C 0.10832 0.51315 0.14877 0.0
C6779 C 0.11256 0.51285 0.14273 0.0
C6780 C 0.11392 0.51913 0.13907 0.0
C6781 C 0.11125 0.52555 0.14147 0.0
C6782 C 0.11958 0.49821 0.13102 0.0
C6783 C 0.12243 0.49354 0.13597 0.0
C6784 C 0.1163 0.50442 0.1332 0.0
C6785 C 0.11574 0.50607 0.14039 0.0
C6786 C 0.11841 0.50126 0.14534 0.0
C6787 C 0.12169 0.49506 0.14315 0.0
H6788 H 0.23593 0.3518 0.90519 0.0
H6789 H 0.22599 0.3615 0.88726 0.0
H6790 H 0.24736 0.35591 0.90107 0.0
H6791 H 0.23736 0.36579 0.88326 0.0
H6792 H 0.25929 0.36826 0.87468 0.0
H6793 H 0.2486 0.36222 0.87847 0.0
H6794 H 0.2536 0.36702 0.90008 0.0
H6795 H 0.26435 0.37295 0.89624 0.0
C6796 C 0.23619 0.35475 0.90033 0.0
C6797 C 0.23003 0.35634 0.89657 0.0
C6798 C 0.24274 0.35717 0.89801 0.0
C6799 C 0.2433 0.36121 0.89184 0.0
C6800 C 0.23715 0.36264 0.88799 0.0
C6801 C 0.23061 0.36024 0.89033 0.0
C6802 C 0.25812 0.36794 0.88024 0.0
C6803 C 0.26256 0.37115 0.88517 0.0
C6804 C 0.25198 0.36453 0.88241 0.0
C6805 C 0.25018 0.36421 0.88958 0.0
C6806 C 0.25483 0.36713 0.89453 0.0
C6807 C 0.26097 0.37055 0.89234 0.0
H6808 H 0.39308 0.47565 0.63706 0.0
H6809 H 0.40413 0.48564 0.65416 0.0
H6810 H 0.38857 0.48703 0.63332 0.0
H6811 H 0.39981 0.49708 0.65027 0.0
H6812 H 0.38274 0.51423 0.64665 0.0
H6813 H 0.38873 0.50339 0.65008 0.0
H6814 H 0.39182 0.49823 0.6282 0.0
H6815 H 0.38571 0.50902 0.62482 0.0
C6816 C 0.39459 0.48029 0.64 0.0
C6817 C 0.39894 0.47971 0.64594 0.0
C6818 C 0.39206 0.48683 0.6378 0.0
C6819 C 0.39381 0.49299 0.64149 0.0
C6820 C 0.39829 0.49244 0.64735 0.0
C6821 C 0.40084 0.48589 0.64953 0.0
C6822 C 0.38476 0.51078 0.6426 0.0
C6823 C 0.38365 0.51237 0.63548 0.0
C6824 C 0.38822 0.5046 0.64455 0.0
C6825 C 0.3907 0.49988 0.63942 0.0
C6826 C 0.38986 0.50166 0.63229 0.0
C6827 C 0.3864 0.50785 0.63034 0.0
H6828 H 0.27973 0.64464 0.38595 0.0
H6829 H 0.27076 0.65234 0.4053 0.0
H6830 H 0.26825 0.64029 0.38235 0.0
H6831 H 0.2592 0.6482 0.40159 0.0
H6832 H 0.24236 0.63122 0.39649 0.0
H6833 H 0.25325 0.63704 0.40006 0.0
H6834 H 0.2566 0.64378 0.37864 0.0
H6835 H 0.24577 0.63783 0.37511 0.0
C6836 C 0.27529 0.64545 0.38942 0.0
C6837 C 0.27619 0.64881 0.39594 0.0
C6838 C 0.26869 0.64302 0.38732 0.0
C6839 C 0.26278 0.64387 0.39168 0.0
C6840 C 0.26364 0.64738 0.39813 0.0
C6841 C 0.27026 0.64983 0.40023 0.0
C6842 C 0.24543 0.63399 0.39258 0.0
C6843 C 0.24332 0.63397 0.38551 0.0
C6844 C 0.25164 0.63736 0.39461 0.0
C6845 C 0.25586 0.64083 0.38962 0.0
C6846 C 0.25356 0.64105 0.3826 0.0
C6847 C 0.24735 0.63768 0.38057 0.0
H6848 H 0.34862 0.1061 0.48505 0.0
H6849 H 0.37001 0.10689 0.47752 0.0
H6850 H 0.35246 0.11051 0.49643 0.0
H6851 H 0.3738 0.1116 0.4888 0.0
H6852 H 0.37961 0.11499 0.51165 0.0
H6853 H 0.37553 0.10896 0.50105 0.0
H6854 H 0.35652 0.12135 0.50141 0.0
H6855 H 0.36056 0.12721 0.51208 0.0
C6856 C 0.35416 0.10715 0.48583 0.0
C6857 C 0.359 0.10615 0.48034 0.0
C6858 C 0.35635 0.10977 0.49234 0.0
C6859 C 0.36344 0.11146 0.49354 0.0
C6860 C 0.36831 0.1103 0.4881 0.0
C6861 C 0.36612 0.10768 0.48159 0.0
C6862 C 0.37454 0.11636 0.50947 0.0
C6863 C 0.37044 0.12162 0.51261 0.0
C6864 C 0.37222 0.11295 0.50338 0.0
C6865 C 0.36572 0.11471 0.50031 0.0
C6866 C 0.36152 0.11981 0.50363 0.0
C6867 C 0.36384 0.12321 0.50972 0.0
H6868 H 0.84907 0.39346 0.52267 0.0
H6869 H 0.86903 0.40315 0.52742 0.0
H6870 H 0.85369 0.38936 0.5115 0.0
H6871 H 0.87356 0.39932 0.51606 0.0
H6872 H 0.88164 0.38317 0.49976 0.0
H6873 H 0.87716 0.38859 0.51047 0.0
H6874 H 0.85744 0.3928 0.50002 0.0
H6875 H 0.86192 0.38717 0.48937 0.0
C6876 C 0.85444 0.39475 0.52132 0.0
C6877 C 0.85869 0.39858 0.52601 0.0
C6878 C 0.85707 0.39247 0.51485 0.0
C6879 C 0.86402 0.39399 0.51285 0.0
C6880 C 0.86822 0.39797 0.51745 0.0
C6881 C 0.86559 0.40024 0.52394 0.0
C6882 C 0.87639 0.38535 0.49974 0.0
C6883 C 0.87215 0.38482 0.49372 0.0
C6884 C 0.87382 0.38849 0.50586 0.0
C6885 C 0.86693 0.39115 0.50614 0.0
C6886 C 0.86274 0.39074 0.50005 0.0
C6887 C 0.86532 0.38758 0.49392 0.0
H6888 H 0.36164 0.11908 0.27995 0.0
H6889 H 0.35227 0.10103 0.26989 0.0
H6890 H 0.36605 0.12311 0.26863 0.0
H6891 H 0.35648 0.10519 0.25852 0.0
H6892 H 0.3733 0.11025 0.24151 0.0
H6893 H 0.36762 0.10634 0.25236 0.0
H6894 H 0.36246 0.12787 0.25736 0.0
H6895 H 0.36825 0.13173 0.24656 0.0
C6896 C 0.36048 0.11599 0.27532 0.0
C6897 C 0.35662 0.10971 0.27585 0.0
C6898 C 0.36295 0.11834 0.26881 0.0
C6899 C 0.36163 0.11447 0.26265 0.0
C6900 C 0.35766 0.10827 0.26316 0.0
C6901 C 0.35517 0.10592 0.26967 0.0
C6902 C 0.3709 0.11411 0.24493 0.0
C6903 C 0.3713 0.12129 0.24328 0.0
C6904 C 0.36761 0.11189 0.25112 0.0
C6905 C 0.36463 0.11679 0.25578 0.0
C6906 C 0.36481 0.12396 0.25396 0.0
C6907 C 0.36809 0.12618 0.24777 0.0
H6908 H 0.63911 0.60116 0.02521 0.0
H6909 H 0.65688 0.61524 0.02434 0.0
H6910 H 0.63498 0.60572 0.01395 0.0
H6911 H 0.65277 0.61978 0.01313 0.0
H6912 H 0.64721 0.6221 0.99008 0.0
H6913 H 0.65131 0.61659 1.00095 0.0
H6914 H 0.63 0.61624 0.00876 0.0
H6915 H 0.62594 0.62162 0.99782 0.0
C6916 C 0.64212 0.60525 0.02264 0.0
C6917 C 0.64836 0.6078 0.02569 0.0
C6918 C 0.63975 0.60787 0.01618 0.0
C6919 C 0.64355 0.6131 0.0126 0.0
C6920 C 0.64978 0.61565 0.01565 0.0
C6921 C 0.65214 0.61304 0.0221 0.0
C6922 C 0.64342 0.62081 0.99413 0.0
C6923 C 0.63629 0.62237 0.99317 0.0
C6924 C 0.64576 0.61769 1.00036 0.0
C6925 C 0.641 0.61603 0.00578 0.0
C6926 C 0.63381 0.6174 0.0047 0.0
C6927 C 0.63148 0.62052 0.99846 0.0
H6928 H 0.65371 0.40417 0.26998 0.0
H6929 H 0.64251 0.38729 0.28018 0.0
H6930 H 0.64947 0.40008 0.25858 0.0
H6931 H 0.6381 0.38334 0.26883 0.0
H6932 H 0.63568 0.37436 0.24696 0.0
H6933 H 0.64158 0.37799 0.25778 0.0
H6934 H 0.63841 0.39975 0.25215 0.0
H6935 H 0.63261 0.39606 0.24128 0.0
C6936 C 0.6504 0.39955 0.26979 0.0
C6937 C 0.64843 0.39607 0.27601 0.0
C6938 C 0.64791 0.39725 0.26325 0.0
C6939 C 0.64342 0.3914 0.26277 0.0
C6940 C 0.6416 0.38783 0.26898 0.0
C6941 C 0.64406 0.39014 0.27551 0.0
C6942 C 0.6363 0.37991 0.24803 0.0
C6943 C 0.6336 0.38494 0.24336 0.0
C6944 C 0.63965 0.382 0.25424 0.0
C6945 C 0.64041 0.38917 0.25589 0.0
C6946 C 0.63796 0.39419 0.25104 0.0
C6947 C 0.6346 0.3921 0.24484 0.0
H6948 H 0.15716 0.89252 0.98373 0.0
H6949 H 0.13717 0.90239 0.97957 0.0
H6950 H 0.15282 0.88841 0.99501 0.0
H6951 H 0.13289 0.8985 0.99104 0.0
H6952 H 0.12527 0.88237 0.00767 0.0
H6953 H 0.12943 0.88771 0.99677 0.0
H6954 H 0.14943 0.89205 0.00658 0.0
H6955 H 0.14527 0.88653 0.01743 0.0
C6956 C 0.15183 0.89384 0.98524 0.0
C6957 C 0.14749 0.89773 0.9807 0.0
C6958 C 0.14937 0.89155 0.99176 0.0
C6959 C 0.14249 0.89311 0.99396 0.0
C6960 C 0.13819 0.89714 0.98949 0.0
C6961 C 0.14066 0.89943 0.98294 0.0
C6962 C 0.13053 0.88452 0.0075 0.0
C6963 C 0.13497 0.88402 0.01337 0.0
C6964 C 0.13291 0.88762 1.00127 0.0
C6965 C 0.13978 0.8903 1.00077 0.0
C6966 C 0.14415 0.88996 0.00673 0.0
C6967 C 0.14177 0.88684 0.01296 0.0
H6968 H 0.34957 0.88921 0.23108 0.0
H6969 H 0.36494 0.9059 0.23124 0.0
H6970 H 0.3541 0.88496 0.24232 0.0
H6971 H 0.36944 0.90168 0.24242 0.0
H6972 H 0.3721 0.8963 0.26545 0.0
H6973 H 0.36651 0.90064 0.25472 0.0
H6974 H 0.36439 0.8793 0.24726 0.0
H6975 H 0.36985 0.87502 0.25807 0.0
C6976 C 0.35392 0.89196 0.23349 0.0
C6977 C 0.35686 0.89792 0.23025 0.0
C6978 C 0.35652 0.88952 0.23994 0.0
C6979 C 0.36212 0.89299 0.2433 0.0
C6980 C 0.36503 0.89896 0.24006 0.0
C6981 C 0.36244 0.90138 0.23363 0.0
C6982 C 0.37039 0.89257 0.26152 0.0
C6983 C 0.37148 0.88535 0.26253 0.0
C6984 C 0.36723 0.89503 0.25535 0.0
C6985 C 0.36506 0.89033 0.25007 0.0
C6986 C 0.36595 0.88308 0.25122 0.0
C6987 C 0.36911 0.88062 0.25739 0.0
H6988 H 0.14354 0.1187 0.72586 0.0
H6989 H 0.15375 0.10114 0.73595 0.0
H6990 H 0.13906 0.12261 0.73719 0.0
H6991 H 0.14945 0.10518 0.74734 0.0
H6992 H 0.13258 0.10965 0.76446 0.0
H6993 H 0.13832 0.1059 0.75358 0.0
H6994 H 0.14256 0.12759 0.74841 0.0
H6995 H 0.13671 0.13129 0.75924 0.0
C6996 C 0.14486 0.11569 0.7305 0.0
C6997 C 0.14898 0.10958 0.72998 0.0
C6998 C 0.14236 0.11798 0.73702 0.0
C6999 C 0.14389 0.11421 0.7432 0.0
C7000 C 0.14811 0.10817 0.74269 0.0
C7001 C 0.15064 0.1059 0.73617 0.0
C7002 C 0.1348 0.11359 0.761 0.0
C7003 C 0.13411 0.12075 0.76261 0.0
C7004 C 0.13812 0.11145 0.75479 0.0
C7005 C 0.14086 0.11645 0.75007 0.0
C7006 C 0.1404 0.12361 0.75185 0.0
C7007 C 0.13709 0.12573 0.75806 0.0
H7008 H 0.09497 0.13823 0.43213 0.0
H7009 H 0.081 0.1332 0.44927 0.0
H7010 H 0.10497 0.13461 0.43918 0.0
H7011 H 0.09106 0.12934 0.45631 0.0
H7012 H 0.11232 0.13205 0.46877 0.0
H7013 H 0.10146 0.13434 0.46226 0.0
H7014 H 0.11029 0.12415 0.44402 0.0
H7015 H 0.12111 0.12195 0.45048 0.0
C7016 C 0.09403 0.13634 0.43741 0.0
C7017 C 0.08718 0.13605 0.44015 0.0
C7018 C 0.09976 0.13418 0.44144 0.0
C7019 C 0.09883 0.13164 0.44831 0.0
C7020 C 0.09197 0.1313 0.45105 0.0
C7021 C 0.0862 0.13345 0.447 0.0
C7022 C 0.11187 0.13019 0.46342 0.0
C7023 C 0.1176 0.12691 0.46011 0.0
C7024 C 0.10565 0.1315 0.45968 0.0
C7025 C 0.10504 0.12954 0.45258 0.0
C7026 C 0.11064 0.1259 0.44942 0.0
C7027 C 0.11683 0.12461 0.45313 0.0
H7028 H 0.10984 0.83711 0.69713 0.0
H7029 H 0.13013 0.83711 0.687 0.0
H7030 H 0.11333 0.84725 0.70413 0.0
H7031 H 0.1337 0.84713 0.69416 0.0
H7032 H 0.13297 0.87064 0.70052 0.0
H7033 H 0.13064 0.85955 0.69457 0.0
H7034 H 0.12119 0.85137 0.71351 0.0
H7035 H 0.12338 0.86258 0.71942 0.0
C7036 C 0.11507 0.83924 0.69643 0.0
C7037 C 0.11968 0.83632 0.69146 0.0
C7038 C 0.1171 0.84501 0.70051 0.0
C7039 C 0.12379 0.84803 0.6997 0.0
C7040 C 0.12848 0.84498 0.69486 0.0
C7041 C 0.12646 0.83919 0.69081 0.0
C7042 C 0.13043 0.86646 0.70343 0.0
C7043 C 0.12831 0.86751 0.71042 0.0
C7044 C 0.12915 0.86008 0.70004 0.0
C7045 C 0.1257 0.85457 0.70355 0.0
C7046 C 0.12378 0.85553 0.71063 0.0
C7047 C 0.1251 0.86192 0.71404 0.0
H7048 H 0.41767 0.8597 0.94778 0.0
H7049 H 0.4198 0.88063 0.93927 0.0
H7050 H 0.40766 0.86356 0.95478 0.0
H7051 H 0.40993 0.88454 0.94645 0.0
H7052 H 0.38614 0.88523 0.95186 0.0
H7053 H 0.3973 0.88259 0.94622 0.0
H7054 H 0.40383 0.87097 0.96459 0.0
H7055 H 0.39253 0.87349 0.97017 0.0
C7056 C 0.41604 0.86514 0.94745 0.0
C7057 C 0.4195 0.86984 0.94291 0.0
C7058 C 0.41035 0.86738 0.95153 0.0
C7059 C 0.40797 0.87436 0.95116 0.0
C7060 C 0.41158 0.87911 0.9468 0.0
C7061 C 0.41728 0.87688 0.94274 0.0
C7062 C 0.38998 0.88216 0.95472 0.0
C7063 C 0.38843 0.87952 0.96144 0.0
C7064 C 0.39641 0.8807 0.95151 0.0
C7065 C 0.40146 0.87653 0.95493 0.0
C7066 C 0.40003 0.87412 0.96178 0.0
C7067 C 0.39359 0.87563 0.96501 0.0
H7068 H 0.38998 0.16028 0.18302 0.0
H7069 H 0.38299 0.17427 0.19944 0.0
H7070 H 0.3865 0.15023 0.19006 0.0
H7071 H 0.37924 0.16415 0.20643 0.0
H7072 H 0.38198 0.1434 0.21962 0.0
H7073 H 0.3842 0.15422 0.21301 0.0
H7074 H 0.37616 0.14434 0.19423 0.0
H7075 H 0.37406 0.13356 0.20079 0.0
C7076 C 0.3877 0.16122 0.18814 0.0
C7077 C 0.38681 0.16809 0.19067 0.0
C7078 C 0.38561 0.15544 0.19215 0.0
C7079 C 0.38254 0.15636 0.19881 0.0
C7080 C 0.38162 0.16324 0.20135 0.0
C7081 C 0.3837 0.16905 0.19731 0.0
C7082 C 0.38058 0.1436 0.21411 0.0
C7083 C 0.37794 0.13761 0.2107 0.0
C7084 C 0.38185 0.1498 0.21032 0.0
C7085 C 0.38047 0.15012 0.20306 0.0
C7086 C 0.37745 0.14423 0.19977 0.0
C7087 C 0.37622 0.13806 0.20354 0.0
H7088 H 0.08517 0.88023 0.06736 0.0
H7089 H 0.08693 0.85944 0.05843 0.0
H7090 H 0.09509 0.88412 0.06023 0.0
H7091 H 0.09697 0.86328 0.05146 0.0
H7092 H 0.11213 0.8734 0.03614 0.0
H7093 H 0.10084 0.87089 0.04176 0.0
H7094 H 0.10771 0.8819 0.06038 0.0
H7095 H 0.11888 0.88451 0.05472 0.0
C7096 C 0.08761 0.87651 0.06381 0.0
C7097 C 0.08528 0.86951 0.0635 0.0
C7098 C 0.09334 0.87873 0.05977 0.0
C7099 C 0.09685 0.87401 0.0553 0.0
C7100 C 0.09436 0.86707 0.0548 0.0
C7101 C 0.08865 0.86485 0.05887 0.0
C7102 C 0.11116 0.8754 0.04138 0.0
C7103 C 0.11641 0.87911 0.045 0.0
C7104 C 0.10472 0.87391 0.04462 0.0
C7105 C 0.10338 0.87615 0.05154 0.0
C7106 C 0.10853 0.88013 0.05503 0.0
C7107 C 0.11496 0.88158 0.05181 0.0
H7108 H 0.38353 0.83147 0.30543 0.0
H7109 H 0.38853 0.84536 0.32266 0.0
H7110 H 0.37953 0.84155 0.2985 0.0
H7111 H 0.38477 0.85538 0.31571 0.0
H7112 H 0.37191 0.8715 0.30466 0.0
H7113 H 0.37425 0.86064 0.311 0.0
H7114 H 0.38434 0.85205 0.29259 0.0
H7115 H 0.3819 0.86295 0.2862 0.0
C7116 C 0.38375 0.83666 0.30775 0.0
C7117 C 0.38638 0.83761 0.31459 0.0
C7118 C 0.38152 0.84244 0.30375 0.0
C7119 C 0.3818 0.84928 0.30655 0.0
C7120 C 0.38438 0.85019 0.31341 0.0
C7121 C 0.38662 0.84444 0.31737 0.0
C7122 C 0.37458 0.86727 0.30195 0.0
C7123 C 0.3768 0.86811 0.29496 0.0
C7124 C 0.37594 0.86105 0.30559 0.0
C7125 C 0.3796 0.85551 0.30235 0.0
C7126 C 0.38149 0.8562 0.29524 0.0
C7127 C 0.3801 0.86244 0.29157 0.0
H7128 H 0.41841 0.12624 0.56792 0.0
H7129 H 0.41962 0.14578 0.55647 0.0
H7130 H 0.40826 0.12275 0.5609 0.0
H7131 H 0.40937 0.14237 0.54956 0.0
H7132 H 0.39352 0.13214 0.53489 0.0
H7133 H 0.40487 0.13398 0.54069 0.0
H7134 H 0.396 0.12674 0.56027 0.0
H7135 H 0.38476 0.12481 0.55447 0.0
C7136 C 0.41657 0.12975 0.56384 0.0
C7137 C 0.41981 0.13631 0.56278 0.0
C7138 C 0.41072 0.12778 0.55986 0.0
C7139 C 0.40798 0.1323 0.55469 0.0
C7140 C 0.41138 0.13874 0.55345 0.0
C7141 C 0.41721 0.14073 0.55747 0.0
C7142 C 0.39406 0.13082 0.5404 0.0
C7143 C 0.38825 0.12837 0.54424 0.0
C7144 C 0.40053 0.13194 0.54373 0.0
C7145 C 0.40134 0.13054 0.55095 0.0
C7146 C 0.39559 0.12781 0.5547 0.0
C7147 C 0.38913 0.12676 0.55139 0.0
H7148 H 0.11008 0.16899 0.80745 0.0
H7149 H 0.1296 0.16755 0.81891 0.0
H7150 H 0.11344 0.15881 0.80043 0.0
H7151 H 0.13304 0.15748 0.81176 0.0
H7152 H 0.13116 0.13414 0.80484 0.0
H7153 H 0.12916 0.14526 0.81086 0.0
H7154 H 0.12174 0.15444 0.79149 0.0
H7155 H 0.12362 0.14322 0.78548 0.0
C7156 C 0.11511 0.16653 0.80844 0.0
C7157 C 0.11954 0.16906 0.81379 0.0
C7158 C 0.11708 0.16075 0.80435 0.0
C7159 C 0.12351 0.15731 0.80554 0.0
C7160 C 0.12803 0.15996 0.81075 0.0
C7161 C 0.12608 0.16578 0.81481 0.0
C7162 C 0.12914 0.13855 0.80185 0.0
C7163 C 0.12749 0.13779 0.79469 0.0
C7164 C 0.12806 0.14494 0.80529 0.0
C7165 C 0.12527 0.15074 0.80167 0.0
C7166 C 0.12383 0.15005 0.79445 0.0
C7167 C 0.12496 0.14365 0.79099 0.0
H7168 H 0.43568 0.09473 0.1443 0.0
H7169 H 0.44724 0.08194 0.12954 0.0
H7170 H 0.44333 0.10457 0.14182 0.0
H7171 H 0.45523 0.09174 0.12736 0.0
H7172 H 0.46256 0.11381 0.11944 0.0
H7173 H 0.45591 0.10305 0.12185 0.0
H7174 H 0.45474 0.10881 0.14379 0.0
H7175 H 0.4611 0.11962 0.14128 0.0
C7176 C 0.43985 0.094 0.14051 0.0
C7177 C 0.44077 0.08753 0.13708 0.0
C7178 C 0.44435 0.09964 0.13918 0.0
C7179 C 0.44997 0.09897 0.13443 0.0
C7180 C 0.45093 0.09248 0.13101 0.0
C7181 C 0.44639 0.08683 0.13233 0.0
C7182 C 0.46096 0.11268 0.12479 0.0
C7183 C 0.46227 0.11755 0.13017 0.0
C7184 C 0.45715 0.10653 0.12618 0.0
C7185 C 0.45466 0.1051 0.13301 0.0
C7186 C 0.45637 0.10981 0.13844 0.0
C7187 C 0.46008 0.11598 0.13702 0.0
H7188 H 0.1689 0.18766 0.37601 0.0
H7189 H 0.17001 0.19905 0.3956 0.0
H7190 H 0.15897 0.19491 0.37237 0.0
H7191 H 0.15997 0.20617 0.39203 0.0
H7192 H 0.14451 0.22114 0.38164 0.0
H7193 H 0.15575 0.21516 0.3836 0.0
H7194 H 0.14668 0.19575 0.37613 0.0
H7195 H 0.13555 0.20173 0.37409 0.0
C7196 C 0.16709 0.19177 0.3795 0.0
C7197 C 0.17023 0.19275 0.38612 0.0
C7198 C 0.16135 0.19588 0.37744 0.0
C7199 C 0.15864 0.2011 0.38192 0.0
C7200 C 0.16195 0.20225 0.38842 0.0
C7201 C 0.16766 0.19811 0.39051 0.0
C7202 C 0.14498 0.21563 0.38029 0.0
C7203 C 0.13915 0.21189 0.37775 0.0
C7204 C 0.15139 0.21219 0.38147 0.0
C7205 C 0.1521 0.20497 0.38006 0.0
C7206 C 0.14634 0.20132 0.37722 0.0
C7207 C 0.13994 0.20473 0.3761 0.0
H7208 H 0.05628 0.92476 0.63229 0.0
H7209 H 0.07257 0.91079 0.63964 0.0
H7210 H 0.0493 0.91462 0.62856 0.0
H7211 H 0.06554 0.90073 0.63619 0.0
H7212 H 0.05487 0.88393 0.62389 0.0
H7213 H 0.06145 0.8947 0.62591 0.0
H7214 H 0.04262 0.90479 0.63355 0.0
H7215 H 0.03599 0.89398 0.63139 0.0
C7216 C 0.05838 0.91953 0.63309 0.0
C7217 C 0.06498 0.91859 0.63629 0.0
C7218 C 0.05435 0.91372 0.63101 0.0
C7219 C 0.05686 0.90685 0.63205 0.0
C7220 C 0.06348 0.90593 0.63521 0.0
C7221 C 0.06748 0.91172 0.63728 0.0
C7222 C 0.05212 0.88847 0.62595 0.0
C7223 C 0.04493 0.88808 0.62756 0.0
C7224 C 0.0559 0.89464 0.62713 0.0
C7225 C 0.0526 0.90059 0.63001 0.0
C7226 C 0.04532 0.90032 0.6313 0.0
C7227 C 0.04152 0.89413 0.63007 0.0
H7228 H 0.33978 0.81038 0.89796 0.0
H7229 H 0.33393 0.81304 0.8762 0.0
H7230 H 0.34958 0.80292 0.89441 0.0
H7231 H 0.34367 0.80546 0.87267 0.0
H7232 H 0.3679 0.80125 0.87024 0.0
H7233 H 0.35672 0.80697 0.87291 0.0
H7234 H 0.35257 0.79133 0.88882 0.0
H7235 H 0.36378 0.78558 0.88606 0.0
C7236 C 0.34055 0.80933 0.89242 0.0
C7237 C 0.33609 0.81236 0.88736 0.0
C7238 C 0.34612 0.80499 0.89039 0.0
C7239 C 0.3474 0.80361 0.88326 0.0
C7240 C 0.34284 0.80647 0.87821 0.0
C7241 C 0.33723 0.81077 0.88023 0.0
C7242 C 0.36452 0.79897 0.8742 0.0
C7243 C 0.36666 0.79298 0.87792 0.0
C7244 C 0.35811 0.80222 0.87572 0.0
C7245 C 0.35377 0.79961 0.8811 0.0
C7246 C 0.35582 0.79348 0.88468 0.0
C7247 C 0.36219 0.79016 0.88307 0.0
H7248 H 0.44817 0.91833 0.35917 0.0
H7249 H 0.43939 0.92009 0.38001 0.0
H7250 H 0.45521 0.90834 0.36298 0.0
H7251 H 0.44661 0.91024 0.38388 0.0
H7252 H 0.45227 0.88651 0.38439 0.0
H7253 H 0.44654 0.89765 0.38178 0.0
H7254 H 0.46497 0.90449 0.37046 0.0
H7255 H 0.47065 0.89322 0.37294 0.0
C7256 C 0.44778 0.91662 0.36458 0.0
C7257 C 0.44316 0.91998 0.36926 0.0
C7258 C 0.45189 0.91094 0.36679 0.0
C7259 C 0.45147 0.90846 0.37374 0.0
C7260 C 0.44701 0.91196 0.37848 0.0
C7261 C 0.44292 0.91766 0.37627 0.0
C7262 C 0.45512 0.89042 0.38139 0.0
C7263 C 0.46189 0.88896 0.37882 0.0
C7264 C 0.45186 0.89683 0.37994 0.0
C7265 C 0.45528 0.90196 0.37587 0.0
C7266 C 0.46216 0.90062 0.37354 0.0
C7267 C 0.46545 0.8942 0.37502 0.0
H7268 H 0.33589 0.18877 0.63073 0.0
H7269 H 0.33715 0.19788 0.61 0.0
H7270 H 0.34582 0.19596 0.63449 0.0
H7271 H 0.34721 0.20489 0.61368 0.0
H7272 H 0.36259 0.22016 0.62341 0.0
H7273 H 0.35125 0.21453 0.62116 0.0
H7274 H 0.35834 0.19596 0.63212 0.0
H7275 H 0.36954 0.20165 0.6345 0.0
C7276 C 0.33823 0.19237 0.627 0.0
C7277 C 0.33575 0.19271 0.62005 0.0
C7278 C 0.34397 0.19644 0.62913 0.0
C7279 C 0.34735 0.20098 0.62438 0.0
C7280 C 0.3447 0.20151 0.6175 0.0
C7281 C 0.33898 0.19742 0.61536 0.0
C7282 C 0.36166 0.21493 0.62546 0.0
C7283 C 0.36698 0.21133 0.62909 0.0
C7284 C 0.35519 0.21168 0.62411 0.0
C7285 C 0.3539 0.20477 0.62641 0.0
C7286 C 0.35912 0.2013 0.63031 0.0
C7287 C 0.36557 0.20454 0.63163 0.0
H7288 H 0.05711 0.08125 0.87411 0.0
H7289 H 0.07314 0.09521 0.86619 0.0
H7290 H 0.05007 0.0914 0.87768 0.0
H7291 H 0.06604 0.10528 0.8695 0.0
H7292 H 0.05537 0.12222 0.88161 0.0
H7293 H 0.06204 0.11147 0.87975 0.0
H7294 H 0.04323 0.10106 0.87249 0.0
H7295 H 0.03652 0.11186 0.87447 0.0
C7296 C 0.05914 0.08648 0.87315 0.0
C7297 C 0.06568 0.08741 0.86984 0.0
C7298 C 0.05507 0.09229 0.87513 0.0
C7299 C 0.05749 0.09917 0.8739 0.0
C7300 C 0.06405 0.10007 0.87063 0.0
C7301 C 0.06809 0.09429 0.86864 0.0
C7302 C 0.05265 0.11762 0.87967 0.0
C7303 C 0.04544 0.11791 0.8781 0.0
C7304 C 0.05647 0.11146 0.87858 0.0
C7305 C 0.0532 0.10542 0.87585 0.0
C7306 C 0.04591 0.1056 0.87462 0.0
C7307 C 0.04206 0.11178 0.87575 0.0
H7308 H 0.17451 0.80456 0.12173 0.0
H7309 H 0.16078 0.82233 0.11852 0.0
H7310 H 0.16449 0.79759 0.12585 0.0
H7311 H 0.15082 0.81537 0.12242 0.0
H7312 H 0.13518 0.80395 0.1355 0.0
H7313 H 0.1461 0.81013 0.13301 0.0
H7314 H 0.15354 0.79225 0.1212 0.0
H7315 H 0.14257 0.78602 0.12377 0.0
C7316 C 0.16937 0.80698 0.12193 0.0
C7317 C 0.16844 0.81399 0.11976 0.0
C7318 C 0.16362 0.80298 0.12423 0.0
C7319 C 0.15685 0.80593 0.1245 0.0
C7320 C 0.15597 0.81295 0.12239 0.0
C7321 C 0.16167 0.81692 0.12006 0.0
C7322 C 0.13918 0.80131 0.13243 0.0
C7323 C 0.13798 0.79454 0.12975 0.0
C7324 C 0.14543 0.80486 0.13098 0.0
C7325 C 0.15065 0.80174 0.1268 0.0
C7326 C 0.14964 0.7948 0.12446 0.0
C7327 C 0.14336 0.79122 0.12593 0.0
H7328 H 0.14626 0.44848 0.0875 0.0
H7329 H 0.1254 0.43972 0.08599 0.0
H7330 H 0.14261 0.45545 0.09761 0.0
H7331 H 0.12168 0.44686 0.09597 0.0
H7332 H 0.12158 0.45229 0.11975 0.0
H7333 H 0.12403 0.44665 0.10854 0.0
H7334 H 0.13515 0.46519 0.10164 0.0
H7335 H 0.13281 0.47079 0.11299 0.0
C7336 C 0.14088 0.44809 0.08929 0.0
C7337 C 0.13614 0.44349 0.08596 0.0
C7338 C 0.13876 0.45215 0.09504 0.0
C7339 C 0.13186 0.4517 0.09762 0.0
C7340 C 0.12706 0.44727 0.09416 0.0
C7341 C 0.12917 0.44323 0.08839 0.0
C7342 C 0.1245 0.45519 0.11582 0.0
C7343 C 0.12705 0.46196 0.11728 0.0
C7344 C 0.12586 0.45198 0.10936 0.0
C7345 C 0.12982 0.45545 0.10419 0.0
C7346 C 0.13215 0.46234 0.10554 0.0
C7347 C 0.13075 0.46558 0.11201 0.0
H7348 H 0.63787 0.07266 0.91068 0.0
H7349 H 0.63324 0.05514 0.92433 0.0
H7350 H 0.63423 0.06579 0.90057 0.0
H7351 H 0.62934 0.04829 0.91416 0.0
H7352 H 0.63181 0.03629 0.89265 0.0
H7353 H 0.63418 0.0426 0.90361 0.0
H7354 H 0.62384 0.06097 0.89522 0.0
H7355 H 0.62157 0.05471 0.8843 0.0
C7356 C 0.63606 0.06733 0.91153 0.0
C7357 C 0.6359 0.06445 0.91832 0.0
C7358 C 0.63388 0.06341 0.90573 0.0
C7359 C 0.63144 0.05649 0.90654 0.0
C7360 C 0.63122 0.05359 0.91334 0.0
C7361 C 0.6334 0.05754 0.91917 0.0
C7362 C 0.62994 0.04163 0.89322 0.0
C7363 C 0.62659 0.04504 0.88758 0.0
C7364 C 0.63129 0.04525 0.89949 0.0
C7365 C 0.6293 0.05234 0.90026 0.0
C7366 C 0.6256 0.05558 0.89475 0.0
C7367 C 0.62428 0.05199 0.8885 0.0
H7368 H 0.18357 0.38793 0.1608 0.0
H7369 H 0.20135 0.3846 0.17449 0.0
H7370 H 0.19052 0.38415 0.15079 0.0
H7371 H 0.20831 0.3806 0.16442 0.0
H7372 H 0.21982 0.38295 0.14247 0.0
H7373 H 0.21362 0.38541 0.15348 0.0
H7374 H 0.19578 0.37356 0.146 0.0
H7375 H 0.20193 0.37118 0.13505 0.0
C7376 C 0.18898 0.38639 0.16167 0.0
C7377 C 0.19191 0.38661 0.16844 0.0
C7378 C 0.19295 0.38414 0.15594 0.0
C7379 C 0.19997 0.38202 0.1568 0.0
C7380 C 0.20293 0.38222 0.16357 0.0
C7381 C 0.19892 0.38445 0.16934 0.0
C7382 C 0.21464 0.38076 0.14326 0.0
C7383 C 0.21132 0.37696 0.13786 0.0
C7384 C 0.21108 0.38217 0.14956 0.0
C7385 C 0.20415 0.37979 0.15057 0.0
C7386 C 0.20103 0.37562 0.14533 0.0
C7387 C 0.20457 0.37423 0.13906 0.0
H7388 H 0.85954 0.94735 0.41757 0.0
H7389 H 0.88039 0.93852 0.41891 0.0
H7390 H 0.86315 0.95436 0.40748 0.0
H7391 H 0.88406 0.9457 0.40895 0.0
H7392 H 0.8842 0.95147 0.38527 0.0
H7393 H 0.88172 0.94568 0.3964 0.0
H7394 H 0.87059 0.96412 0.40352 0.0
H7395 H 0.87294 0.96987 0.39226 0.0
C7396 C 0.86491 0.94694 0.41575 0.0
C7397 C 0.86965 0.94232 0.41903 0.0
C7398 C 0.86701 0.95103 0.41001 0.0
C7399 C 0.8739 0.95058 0.40738 0.0
C7400 C 0.8787 0.94612 0.41079 0.0
C7401 C 0.87661 0.94205 0.41655 0.0
C7402 C 0.88126 0.95431 0.38923 0.0
C7403 C 0.87872 0.9611 0.38786 0.0
C7404 C 0.87989 0.95101 0.39564 0.0
C7405 C 0.87592 0.95441 0.40086 0.0
C7406 C 0.87359 0.96132 0.39959 0.0
C7407 C 0.875 0.96464 0.39317 0.0
H7408 H 0.82205 0.11503 0.16122 0.0
H7409 H 0.80593 0.12273 0.1752 0.0
H7410 H 0.81504 0.11853 0.15116 0.0
H7411 H 0.79897 0.1265 0.16505 0.0
H7412 H 0.78565 0.1237 0.14432 0.0
H7413 H 0.7922 0.12154 0.15519 0.0
H7414 H 0.81116 0.12895 0.14517 0.0
H7415 H 0.80465 0.13097 0.13435 0.0
C7416 C 0.81699 0.11747 0.16215 0.0
C7417 C 0.81454 0.11855 0.16903 0.0
C7418 C 0.81301 0.11957 0.15637 0.0
C7419 C 0.80645 0.12285 0.15728 0.0
C7420 C 0.80398 0.12396 0.16416 0.0
C7421 C 0.80799 0.12185 0.16997 0.0
C7422 C 0.79119 0.12498 0.14451 0.0
C7423 C 0.79466 0.12742 0.13847 0.0
C7424 C 0.79495 0.12375 0.15073 0.0
C7425 C 0.80224 0.12495 0.15102 0.0
C7426 C 0.80559 0.12778 0.14508 0.0
C7427 C 0.80186 0.12898 0.13889 0.0
H7428 H 0.37533 0.55828 0.58197 0.0
H7429 H 0.35997 0.56927 0.59455 0.0
H7430 H 0.37755 0.55026 0.59174 0.0
H7431 H 0.36249 0.56161 0.60437 0.0
H7432 H 0.36352 0.54404 0.61954 0.0
H7433 H 0.36089 0.55019 0.60864 0.0
H7434 H 0.38291 0.54972 0.6031 0.0
H7435 H 0.38543 0.54325 0.61394 0.0
C7436 C 0.37241 0.55899 0.5868 0.0
C7437 C 0.36749 0.56447 0.58746 0.0
C7438 C 0.37375 0.55443 0.59244 0.0
C7439 C 0.37019 0.55525 0.59887 0.0
C7440 C 0.36525 0.56071 0.59949 0.0
C7441 C 0.36389 0.56521 0.59386 0.0
C7442 C 0.36776 0.54516 0.61592 0.0
C7443 C 0.37467 0.54321 0.61757 0.0
C7444 C 0.36628 0.54874 0.6097 0.0
C7445 C 0.3717 0.5506 0.60502 0.0
C7446 C 0.37859 0.54835 0.60654 0.0
C7447 C 0.38005 0.54466 0.61274 0.0
H7448 H 0.18735 0.62978 0.33845 0.0
H7449 H 0.19846 0.61004 0.33719 0.0
H7450 H 0.19451 0.63316 0.34855 0.0
H7451 H 0.2055 0.61335 0.34738 0.0
H7452 H 0.22057 0.62346 0.36295 0.0
H7453 H 0.21458 0.62164 0.3517 0.0
H7454 H 0.19524 0.62922 0.36082 0.0
H7455 H 0.20124 0.63112 0.37197 0.0
C7456 C 0.19137 0.6262 0.34028 0.0
C7457 C 0.1923 0.61962 0.33704 0.0
C7458 C 0.19544 0.62811 0.3461 0.0
C7459 C 0.20056 0.62351 0.34879 0.0
C7460 C 0.20165 0.61704 0.34541 0.0
C7461 C 0.19755 0.61511 0.33961 0.0
C7462 C 0.21507 0.62485 0.36249 0.0
C7463 C 0.21136 0.62739 0.36835 0.0
C7464 C 0.21163 0.62375 0.35608 0.0
C7465 C 0.20442 0.62525 0.35537 0.0
C7466 C 0.2008 0.62806 0.36116 0.0
C7467 C 0.20423 0.6291 0.36757 0.0
H7468 H 0.32009 0.39468 0.84479 0.0
H7469 H 0.30905 0.379 0.83264 0.0
H7470 H 0.3124 0.39248 0.85467 0.0
H7471 H 0.30103 0.37708 0.84248 0.0
H7472 H 0.29371 0.37007 0.86486 0.0
H7473 H 0.30043 0.37211 0.85408 0.0
H7474 H 0.30086 0.39435 0.85866 0.0
H7475 H 0.2944 0.39223 0.86949 0.0
C7476 C 0.31602 0.39075 0.84422 0.0
C7477 C 0.31526 0.38698 0.83791 0.0
C7478 C 0.31151 0.38956 0.84987 0.0
C7479 C 0.30603 0.38463 0.84939 0.0
C7480 C 0.30522 0.38088 0.84307 0.0
C7481 C 0.30977 0.38204 0.83739 0.0
C7482 C 0.29517 0.37539 0.86348 0.0
C7483 C 0.29361 0.38098 0.86804 0.0
C7484 C 0.29901 0.37658 0.8573 0.0
C7485 C 0.30131 0.38339 0.85554 0.0
C7486 C 0.29937 0.38901 0.85993 0.0
C7487 C 0.29562 0.38781 0.86612 0.0
H7488 H 0.92436 0.87059 0.55482 0.0
H7489 H 0.91061 0.86176 0.57055 0.0
H7490 H 0.91416 0.87328 0.54745 0.0
H7491 H 0.9005 0.86442 0.56324 0.0
H7492 H 0.88453 0.86291 0.54605 0.0
H7493 H 0.89534 0.86032 0.55237 0.0
H7494 H 0.90352 0.88073 0.5468 0.0
H7495 H 0.89266 0.8833 0.54039 0.0
C7496 C 0.91917 0.86927 0.55673 0.0
C7497 C 0.91832 0.86588 0.56324 0.0
C7498 C 0.91333 0.8708 0.5525 0.0
C7499 C 0.90652 0.86897 0.5547 0.0
C7500 C 0.90568 0.86573 0.56129 0.0
C7501 C 0.91149 0.86421 0.56549 0.0
C7502 C 0.88865 0.86684 0.54615 0.0
C7503 C 0.8877 0.87335 0.54281 0.0
C7504 C 0.89483 0.86537 0.5498 0.0
C7505 C 0.90025 0.87037 0.55021 0.0
C7506 C 0.89946 0.87676 0.54658 0.0
C7507 C 0.89324 0.87823 0.5429 0.0
H7508 H 0.88475 0.17457 0.30522 0.0
H7509 H 0.89069 0.16078 0.32222 0.0
H7510 H 0.88107 0.16438 0.29827 0.0
H7511 H 0.88722 0.15066 0.31525 0.0
H7512 H 0.87418 0.13437 0.30442 0.0
H7513 H 0.87658 0.1452 0.31078 0.0
H7514 H 0.88622 0.15399 0.29222 0.0
H7515 H 0.88377 0.1431 0.28582 0.0
C7516 C 0.88525 0.16938 0.30748 0.0
C7517 C 0.88803 0.16849 0.31427 0.0
C7518 C 0.8832 0.16354 0.30348 0.0
C7519 C 0.88382 0.1567 0.30621 0.0
C7520 C 0.88658 0.15585 0.31301 0.0
C7521 C 0.88865 0.16165 0.31698 0.0
C7522 C 0.87679 0.13862 0.30168 0.0
C7523 C 0.87888 0.13784 0.29464 0.0
C7524 C 0.87818 0.14483 0.30533 0.0
C7525 C 0.8817 0.15043 0.30205 0.0
C7526 C 0.88348 0.14979 0.2949 0.0
C7527 C 0.88208 0.14355 0.29123 0.0
H7528 H 0.59527 0.14183 0.07139 0.0
H7529 H 0.58145 0.13399 0.05519 0.0
H7530 H 0.60539 0.13852 0.06438 0.0
H7531 H 0.59166 0.13041 0.04824 0.0
H7532 H 0.61222 0.13336 0.03489 0.0
H7533 H 0.60139 0.13549 0.0415 0.0
H7534 H 0.6116 0.12828 0.06044 0.0
H7535 H 0.62238 0.12628 0.05387 0.0
C7536 C 0.59438 0.13939 0.06632 0.0
C7537 C 0.58753 0.13822 0.06384 0.0
C7538 C 0.60021 0.1374 0.06233 0.0
C7539 C 0.59936 0.13415 0.05576 0.0
C7540 C 0.5925 0.13294 0.05327 0.0
C7541 C 0.58665 0.13493 0.05728 0.0
C7542 C 0.61209 0.13213 0.04044 0.0
C7543 C 0.61817 0.12975 0.04388 0.0
C7544 C 0.60589 0.13335 0.04423 0.0
C7545 C 0.60565 0.13217 0.05153 0.0
C7546 C 0.61164 0.12942 0.05487 0.0
C7547 C 0.61782 0.12825 0.0511 0.0
H7548 H 0.62665 0.83587 0.8138 0.0
H7549 H 0.60547 0.83595 0.80569 0.0
H7550 H 0.62941 0.84617 0.80668 0.0
H7551 H 0.60822 0.84622 0.79857 0.0
H7552 H 0.61287 0.86975 0.79549 0.0
H7553 H 0.61043 0.85851 0.80103 0.0
H7554 H 0.63087 0.85093 0.79474 0.0
H7555 H 0.63339 0.86234 0.78933 0.0
C7556 C 0.62262 0.838 0.8104 0.0
C7557 C 0.61581 0.83512 0.81038 0.0
C7558 C 0.6242 0.84391 0.80631 0.0
C7559 C 0.61902 0.84708 0.8021 0.0
C7560 C 0.6123 0.84401 0.80186 0.0
C7561 C 0.61072 0.83812 0.80594 0.0
C7562 C 0.61685 0.86569 0.79528 0.0
C7563 C 0.62335 0.86696 0.79203 0.0
C7564 C 0.61542 0.8592 0.7984 0.0
C7565 C 0.62045 0.8538 0.79834 0.0
C7566 C 0.6269 0.855 0.79493 0.0
C7567 C 0.62832 0.86151 0.79178 0.0
H7568 H 0.91048 0.14286 0.93544 0.0
H7569 H 0.92419 0.13484 0.95163 0.0
H7570 H 0.90032 0.14016 0.94267 0.0
H7571 H 0.91394 0.13211 0.95892 0.0
H7572 H 0.89248 0.12176 0.96585 0.0
H7573 H 0.90343 0.1244 0.95959 0.0
H7574 H 0.89495 0.1445 0.95336 0.0
H7575 H 0.88407 0.14183 0.9595 0.0
C7576 C 0.91134 0.14058 0.94058 0.0
C7577 C 0.91817 0.13915 0.94298 0.0
C7578 C 0.9055 0.13903 0.94473 0.0
C7579 C 0.90632 0.13601 0.95142 0.0
C7580 C 0.91313 0.13441 0.95378 0.0
C7581 C 0.919 0.13597 0.9496 0.0
C7582 C 0.89303 0.12678 0.96323 0.0
C7583 C 0.88739 0.13155 0.96307 0.0
C7584 C 0.89929 0.1283 0.95965 0.0
C7585 C 0.90002 0.13461 0.95586 0.0
C7586 C 0.8945 0.13951 0.95605 0.0
C7587 C 0.88827 0.138 0.9596 0.0
H7588 H 0.6155 0.1609 0.6834 0.0
H7589 H 0.62143 0.17474 0.70036 0.0
H7590 H 0.61891 0.15079 0.69042 0.0
H7591 H 0.62506 0.16457 0.70736 0.0
H7592 H 0.62218 0.14343 0.71996 0.0
H7593 H 0.61987 0.1543 0.71347 0.0
H7594 H 0.62941 0.14522 0.69499 0.0
H7595 H 0.63165 0.13441 0.70145 0.0
C7596 C 0.61753 0.16179 0.68864 0.0
C7597 C 0.61815 0.16864 0.69133 0.0
C7598 C 0.61957 0.15599 0.69264 0.0
C7599 C 0.6223 0.15686 0.69945 0.0
C7600 C 0.62295 0.16371 0.70216 0.0
C7601 C 0.62092 0.16954 0.69812 0.0
C7602 C 0.62388 0.14382 0.71455 0.0
C7603 C 0.62701 0.13803 0.71119 0.0
C7604 C 0.62256 0.15004 0.71083 0.0
C7605 C 0.62435 0.15059 0.70367 0.0
C7606 C 0.6278 0.14492 0.70044 0.0
C7607 C 0.6291 0.13872 0.70415 0.0
H7608 H 0.58101 0.87129 0.4507 0.0
H7609 H 0.59461 0.85986 0.4366 0.0
H7610 H 0.59107 0.8738 0.45833 0.0
H7611 H 0.60457 0.86231 0.44418 0.0
H7612 H 0.61949 0.8611 0.46233 0.0
H7613 H 0.60877 0.85884 0.45574 0.0
H7614 H 0.60236 0.88039 0.45871 0.0
H7615 H 0.61315 0.88265 0.46538 0.0
C7616 C 0.58614 0.86935 0.4492 0.0
C7617 C 0.58698 0.8653 0.44307 0.0
C7618 C 0.5919 0.87078 0.45357 0.0
C7619 C 0.59861 0.86818 0.45192 0.0
C7620 C 0.59945 0.86425 0.44572 0.0
C7621 C 0.59373 0.86284 0.44136 0.0
C7622 C 0.61578 0.86536 0.4616 0.0
C7623 C 0.61721 0.87208 0.46428 0.0
C7624 C 0.60965 0.86406 0.4578 0.0
C7625 C 0.60476 0.86946 0.45658 0.0
C7626 C 0.60601 0.87612 0.45957 0.0
C7627 C 0.61218 0.87741 0.46339 0.0
H7628 H 0.8799 0.83654 0.19138 0.0
H7629 H 0.89995 0.83417 0.20171 0.0
H7630 H 0.87735 0.84677 0.19869 0.0
H7631 H 0.89738 0.84434 0.20905 0.0
H7632 H 0.89483 0.86813 0.21255 0.0
H7633 H 0.89675 0.8568 0.20699 0.0
H7634 H 0.875 0.85136 0.21048 0.0
H7635 H 0.87303 0.86288 0.2159 0.0
C7636 C 0.8837 0.83812 0.19531 0.0
C7637 C 0.89016 0.83459 0.1959 0.0
C7638 C 0.88223 0.84398 0.19951 0.0
C7639 C 0.88719 0.84643 0.20441 0.0
C7640 C 0.89351 0.84269 0.20523 0.0
C7641 C 0.89498 0.83686 0.20102 0.0
C7642 C 0.89045 0.86451 0.21215 0.0
C7643 C 0.88376 0.86643 0.2146 0.0
C7644 C 0.89157 0.85797 0.20903 0.0
C7645 C 0.88603 0.85315 0.20827 0.0
C7646 C 0.87937 0.85498 0.21092 0.0
C7647 C 0.87825 0.86154 0.21408 0.0
H7648 H 0.57194 0.91024 0.86658 0.0
H7649 H 0.55448 0.9241 0.87076 0.0
H7650 H 0.56489 0.90022 0.87019 0.0
H7651 H 0.54743 0.91402 0.87458 0.0
H7652 H 0.53545 0.89239 0.87199 0.0
H7653 H 0.54182 0.90332 0.86959 0.0
H7654 H 0.55981 0.89523 0.8808 0.0
H7655 H 0.55348 0.88436 0.88314 0.0
C7656 C 0.56658 0.91115 0.86827 0.0
C7657 C 0.56376 0.91797 0.86834 0.0
C7658 C 0.56256 0.90541 0.87042 0.0
C7659 C 0.5556 0.90632 0.87273 0.0
C7660 C 0.55276 0.91314 0.87281 0.0
C7661 C 0.55682 0.91891 0.87068 0.0
C7662 C 0.54071 0.89302 0.87405 0.0
C7663 C 0.544 0.88748 0.87766 0.0
C7664 C 0.54436 0.89927 0.87268 0.0
C7665 C 0.55137 0.9001 0.87489 0.0
C7666 C 0.55449 0.8947 0.87886 0.0
C7667 C 0.55085 0.88848 0.88022 0.0
H7668 H 0.83654 0.81526 0.62692 0.0
H7669 H 0.83646 0.80754 0.60559 0.0
H7670 H 0.84662 0.8078 0.62958 0.0
H7671 H 0.84653 0.80009 0.60825 0.0
H7672 H 0.8699 0.79608 0.61303 0.0
H7673 H 0.85887 0.80202 0.61058 0.0
H7674 H 0.85093 0.79571 0.63087 0.0
H7675 H 0.86213 0.78989 0.63341 0.0
C7676 C 0.83859 0.81188 0.62283 0.0
C7677 C 0.83573 0.81206 0.61602 0.0
C7678 C 0.84437 0.8076 0.62436 0.0
C7679 C 0.84743 0.80338 0.61912 0.0
C7680 C 0.8444 0.80337 0.61238 0.0
C7681 C 0.83863 0.80765 0.61085 0.0
C7682 C 0.8658 0.79594 0.61697 0.0
C7683 C 0.86692 0.79257 0.62344 0.0
C7684 C 0.85944 0.79929 0.61554 0.0
C7685 C 0.854 0.79936 0.62053 0.0
C7686 C 0.85503 0.79582 0.62694 0.0
C7687 C 0.86142 0.79243 0.62837 0.0
H7688 H 0.94853 0.08703 0.35807 0.0
H7689 H 0.93871 0.0871 0.37852 0.0
H7690 H 0.95551 0.09726 0.36139 0.0
H7691 H 0.94585 0.09719 0.38191 0.0
H7692 H 0.95205 0.12069 0.38106 0.0
H7693 H 0.94611 0.1096 0.37873 0.0
H7694 H 0.96499 0.10148 0.36914 0.0
H7695 H 0.9709 0.11269 0.37135 0.0
C7696 C 0.9479 0.0892 0.36329 0.0
C7697 C 0.94302 0.08627 0.36801 0.0
C7698 C 0.95196 0.09502 0.36523 0.0
C7699 C 0.95122 0.09807 0.37191 0.0
C7700 C 0.94649 0.09502 0.37669 0.0
C7701 C 0.94245 0.08919 0.37477 0.0
C7702 C 0.95494 0.11653 0.37847 0.0
C7703 C 0.96193 0.11759 0.37634 0.0
C7704 C 0.95156 0.11015 0.3772 0.0
C7705 C 0.95506 0.10465 0.37373 0.0
C7706 C 0.96212 0.10563 0.37176 0.0
C7707 C 0.96553 0.11203 0.37308 0.0
H7708 H 0.66017 0.18453 0.11435 0.0
H7709 H 0.67392 0.20079 0.12216 0.0
H7710 H 0.65001 0.19154 0.11757 0.0
H7711 H 0.66368 0.20775 0.12564 0.0
H7712 H 0.64311 0.22105 0.12246 0.0
H7713 H 0.65396 0.21444 0.12042 0.0
H7714 H 0.64377 0.19555 0.12779 0.0
H7715 H 0.63297 0.20212 0.12971 0.0
C7716 C 0.66103 0.18961 0.11676 0.0
C7717 C 0.66787 0.19211 0.11795 0.0
C7718 C 0.65519 0.1936 0.11869 0.0
C7719 C 0.65601 0.2002 0.12191 0.0
C7720 C 0.66286 0.20271 0.12314 0.0
C7721 C 0.66872 0.19869 0.12121 0.0
C7722 C 0.64325 0.21551 0.12375 0.0
C7723 C 0.63717 0.21209 0.12616 0.0
C7724 C 0.64946 0.21172 0.12258 0.0
C7725 C 0.64971 0.20443 0.12383 0.0
C7726 C 0.64372 0.20111 0.12659 0.0
C7727 C 0.63753 0.20488 0.12772 0.0
H7728 H 0.57079 0.09548 0.64235 0.0
H7729 H 0.55463 0.08164 0.63448 0.0
H7730 H 0.56376 0.1056 0.63907 0.0
H7731 H 0.54764 0.09184 0.63095 0.0
H7732 H 0.53431 0.11246 0.6339 0.0
H7733 H 0.54091 0.10163 0.63612 0.0
H7734 H 0.55983 0.11171 0.62868 0.0
H7735 H 0.55327 0.12248 0.62655 0.0
C7736 C 0.56572 0.09459 0.63992 0.0
C7737 C 0.56327 0.08773 0.63872 0.0
C7738 C 0.56172 0.10041 0.63795 0.0
C7739 C 0.55515 0.09955 0.6347 0.0
C7740 C 0.55267 0.09269 0.63348 0.0
C7741 C 0.5567 0.08685 0.63544 0.0
C7742 C 0.53985 0.1123 0.63264 0.0
C7743 C 0.54329 0.11835 0.63015 0.0
C7744 C 0.54364 0.10611 0.63391 0.0
C7745 C 0.55093 0.10584 0.63269 0.0
C7746 C 0.55426 0.11178 0.62985 0.0
C7747 C 0.5505 0.11795 0.62861 0.0
H7748 H 0.66063 0.82233 0.39076 0.0
H7749 H 0.67465 0.8054 0.38518 0.0
H7750 H 0.65063 0.81524 0.38723 0.0
H7751 H 0.66458 0.79833 0.38142 0.0
H7752 H 0.6435 0.78561 0.38404 0.0
H7753 H 0.65429 0.79219 0.38645 0.0
H7754 H 0.64521 0.81057 0.37672 0.0
H7755 H 0.63448 0.80403 0.37437 0.0
C7756 C 0.66158 0.81708 0.38877 0.0
C7757 C 0.66845 0.81442 0.38829 0.0
C7758 C 0.65584 0.81304 0.38666 0.0
C7759 C 0.65679 0.80622 0.384 0.0
C7760 C 0.66366 0.80354 0.38348 0.0
C7761 C 0.66944 0.80762 0.38558 0.0
C7762 C 0.64387 0.79102 0.38231 0.0
C7763 C 0.6381 0.79433 0.3791 0.0
C7764 C 0.65005 0.79479 0.3837 0.0
C7765 C 0.65058 0.80195 0.38188 0.0
C7766 C 0.64493 0.80512 0.37835 0.0
C7767 C 0.63878 0.80137 0.37699 0.0
H7768 H 0.94903 0.9196 0.14658 0.0
H7769 H 0.93933 0.92005 0.12608 0.0
H7770 H 0.95595 0.90941 0.14309 0.0
H7771 H 0.94643 0.91 0.12251 0.0
H7772 H 0.95219 0.88633 0.12312 0.0
H7773 H 0.94653 0.89758 0.12533 0.0
H7774 H 0.96536 0.90507 0.13553 0.0
H7775 H 0.97098 0.89368 0.13346 0.0
C7776 C 0.94842 0.91756 0.14131 0.0
C7777 C 0.94357 0.92061 0.13664 0.0
C7778 C 0.95245 0.91176 0.13928 0.0
C7779 C 0.95173 0.90885 0.13253 0.0
C7780 C 0.94706 0.91205 0.12777 0.0
C7781 C 0.94304 0.91786 0.1298 0.0
C7782 C 0.95514 0.89039 0.1258 0.0
C7783 C 0.96201 0.88909 0.12818 0.0
C7784 C 0.95192 0.89687 0.12701 0.0
C7785 C 0.95547 0.90223 0.13064 0.0
C7786 C 0.96245 0.90102 0.13279 0.0
C7787 C 0.96569 0.89453 0.13154 0.0
H7788 H 0.84421 0.18615 0.89569 0.0
H7789 H 0.83115 0.20085 0.88437 0.0
H7790 H 0.85444 0.1934 0.89334 0.0
H7791 H 0.84148 0.20814 0.88198 0.0
H7792 H 0.86372 0.21461 0.87325 0.0
H7793 H 0.85275 0.20822 0.87542 0.0
H7794 H 0.8591 0.20472 0.89692 0.0
H7795 H 0.86999 0.21104 0.89475 0.0
C7796 C 0.8435 0.19098 0.89276 0.0
C7797 C 0.83682 0.19296 0.89031 0.0
C7798 C 0.84938 0.19514 0.89141 0.0
C7799 C 0.84877 0.20141 0.88755 0.0
C7800 C 0.84213 0.20333 0.88494 0.0
C7801 C 0.83621 0.19915 0.88631 0.0
C7802 C 0.86271 0.21256 0.87846 0.0
C7803 C 0.86777 0.21324 0.8838 0.0
C7804 C 0.85643 0.2089 0.87971 0.0
C7805 C 0.8551 0.20585 0.88631 0.0
C7806 C 0.86003 0.20684 0.89172 0.0
C7807 C 0.86627 0.21047 0.89048 0.0
H7808 H 0.86285 0.57154 0.91114 0.0
H7809 H 0.87125 0.55561 0.92493 0.0
H7810 H 0.86615 0.56455 0.901 0.0
H7811 H 0.87479 0.54866 0.9147 0.0
H7812 H 0.87194 0.53524 0.8941 0.0
H7813 H 0.86963 0.54179 0.90493 0.0
H7814 H 0.87664 0.56087 0.89484 0.0
H7815 H 0.87889 0.55436 0.88407 0.0
C7816 C 0.86539 0.56653 0.91201 0.0
C7817 C 0.86675 0.56413 0.91886 0.0
C7818 C 0.86738 0.56255 0.90618 0.0
C7819 C 0.87079 0.55605 0.90702 0.0
C7820 C 0.87214 0.55362 0.91387 0.0
C7821 C 0.87017 0.55763 0.91973 0.0
C7822 C 0.87309 0.54081 0.89425 0.0
C7823 C 0.8755 0.5443 0.8882 0.0
C7824 C 0.87176 0.54457 0.90045 0.0
C7825 C 0.87284 0.55188 0.90072 0.0
C7826 C 0.87558 0.55528 0.89477 0.0
C7827 C 0.87689 0.55154 0.8886 0.0
H7828 H 0.36204 0.93447 0.09509 0.0
H7829 H 0.37023 0.95034 0.08111 0.0
H7830 H 0.36484 0.94181 0.10513 0.0
H7831 H 0.37306 0.95776 0.09124 0.0
H7832 H 0.3835 0.96499 0.11254 0.0
H7833 H 0.38076 0.95858 0.1017 0.0
H7834 H 0.36069 0.95257 0.1104 0.0
H7835 H 0.36347 0.95886 0.12117 0.0
C7836 C 0.36438 0.93957 0.09415 0.0
C7837 C 0.36582 0.94185 0.08728 0.0
C7838 C 0.36599 0.94379 0.09992 0.0
C7839 C 0.36909 0.95043 0.099 0.0
C7840 C 0.3707 0.95267 0.09214 0.0
C7841 C 0.36908 0.94842 0.08634 0.0
C7842 C 0.37847 0.96238 0.11207 0.0
C7843 C 0.37374 0.96233 0.11774 0.0
C7844 C 0.3769 0.95871 0.10587 0.0
C7845 C 0.37056 0.95494 0.10523 0.0
C7846 C 0.3657 0.95524 0.11078 0.0
C7847 C 0.36728 0.95887 0.11695 0.0
H7848 H 0.80542 0.62095 0.83125 0.0
H7849 H 0.82251 0.61553 0.84513 0.0
H7850 H 0.79839 0.62463 0.84137 0.0
H7851 H 0.81546 0.61896 0.8552 0.0
H7852 H 0.80422 0.63166 0.87147 0.0
H7853 H 0.81074 0.62935 0.86071 0.0
H7854 H 0.79236 0.61959 0.85166 0.0
H7855 H 0.78581 0.62197 0.86247 0.0
C7856 C 0.80768 0.62057 0.83645 0.0
C7857 C 0.81453 0.61792 0.83737 0.0
C7858 C 0.80364 0.62261 0.84225 0.0
C7859 C 0.80636 0.62212 0.84911 0.0
C7860 C 0.81322 0.61951 0.85 0.0
C7861 C 0.81724 0.61746 0.84423 0.0
C7862 C 0.80156 0.62905 0.86717 0.0
C7863 C 0.79453 0.62692 0.86785 0.0
C7864 C 0.8053 0.62771 0.86101 0.0
C7865 C 0.80211 0.62418 0.85535 0.0
C7866 C 0.79497 0.62234 0.8559 0.0
C7867 C 0.79121 0.62371 0.86209 0.0
H7868 H 0.134 0.05581 0.58163 0.0
H7869 H 0.14232 0.07185 0.59534 0.0
H7870 H 0.13062 0.04882 0.5919 0.0
H7871 H 0.13919 0.06482 0.60552 0.0
H7872 H 0.12689 0.05443 0.62262 0.0
H7873 H 0.1289 0.061 0.61183 0.0
H7874 H 0.13591 0.04201 0.60157 0.0
H7875 H 0.13382 0.03541 0.61242 0.0
C7876 C 0.1351 0.05785 0.58683 0.0
C7877 C 0.13845 0.06439 0.58766 0.0
C7878 C 0.13322 0.05382 0.59271 0.0
C7879 C 0.13461 0.05627 0.59954 0.0
C7880 C 0.13795 0.06281 0.60034 0.0
C7881 C 0.13983 0.06681 0.59449 0.0
C7882 C 0.12884 0.05165 0.61805 0.0
C7883 C 0.13029 0.04442 0.6184 0.0
C7884 C 0.13001 0.05542 0.61187 0.0
C7885 C 0.13268 0.05206 0.60586 0.0
C7886 C 0.13382 0.04476 0.60609 0.0
C7887 C 0.13263 0.04097 0.6123 0.0
H7888 H 0.20073 0.8846 0.83131 0.0
H7889 H 0.18394 0.89077 0.84525 0.0
H7890 H 0.20784 0.88111 0.84145 0.0
H7891 H 0.19107 0.88751 0.85533 0.0
H7892 H 0.2023 0.87492 0.87174 0.0
H7893 H 0.19569 0.87708 0.86101 0.0
H7894 H 0.21407 0.88644 0.85155 0.0
H7895 H 0.22072 0.88423 0.86234 0.0
C7896 C 0.19855 0.88519 0.83653 0.0
C7897 C 0.19177 0.88798 0.83746 0.0
C7898 C 0.20265 0.88326 0.84234 0.0
C7899 C 0.20002 0.88401 0.84921 0.0
C7900 C 0.19323 0.88677 0.85012 0.0
C7901 C 0.18917 0.88872 0.84433 0.0
C7902 C 0.20495 0.87742 0.86736 0.0
C7903 C 0.21201 0.87949 0.86793 0.0
C7904 C 0.20115 0.87867 0.86121 0.0
C7905 C 0.20431 0.88204 0.85545 0.0
C7906 C 0.21148 0.88381 0.85588 0.0
C7907 C 0.21529 0.88254 0.86206 0.0
H7908 H 0.62929 0.44184 0.41945 0.0
H7909 H 0.65063 0.44953 0.41915 0.0
H7910 H 0.62655 0.44907 0.40922 0.0
H7911 H 0.64789 0.45677 0.40896 0.0
H7912 H 0.64303 0.46023 0.38555 0.0
H7913 H 0.6455 0.45453 0.39671 0.0
H7914 H 0.62522 0.46101 0.40455 0.0
H7915 H 0.62266 0.46657 0.39322 0.0
C7916 C 0.63337 0.44516 0.41728 0.0
C7917 C 0.6402 0.44504 0.42008 0.0
C7918 C 0.63179 0.44932 0.41142 0.0
C7919 C 0.63701 0.45345 0.40821 0.0
C7920 C 0.64377 0.45354 0.4112 0.0
C7921 C 0.64535 0.44939 0.41704 0.0
C7922 C 0.63909 0.46044 0.38965 0.0
C7923 C 0.63262 0.46379 0.38847 0.0
C7924 C 0.64054 0.45724 0.39609 0.0
C7925 C 0.63556 0.4573 0.40154 0.0
C7926 C 0.62915 0.4608 0.40044 0.0
C7927 C 0.6277 0.46405 0.39398 0.0
H7928 H 0.80676 0.3975 0.66894 0.0
H7929 H 0.81698 0.37725 0.66874 0.0
H7930 H 0.79989 0.39414 0.65866 0.0
H7931 H 0.80996 0.37381 0.65859 0.0
H7932 H 0.80391 0.3748 0.63506 0.0
H7933 H 0.80971 0.37708 0.64622 0.0
H7934 H 0.79061 0.38629 0.65428 0.0
H7935 H 0.78484 0.38414 0.64299 0.0
C7936 C 0.8075 0.39231 0.66674 0.0
C7937 C 0.81247 0.38767 0.66964 0.0
C7938 C 0.80351 0.39035 0.66089 0.0
C7939 C 0.80439 0.38371 0.65778 0.0
C7940 C 0.8092 0.37899 0.66081 0.0
C7941 C 0.81318 0.38094 0.66668 0.0
C7942 C 0.80094 0.37729 0.63922 0.0
C7943 C 0.79393 0.37934 0.63812 0.0
C7944 C 0.80424 0.37854 0.64565 0.0
C7945 C 0.80064 0.38189 0.65115 0.0
C7946 C 0.79356 0.38376 0.65013 0.0
C7947 C 0.79023 0.38247 0.64368 0.0
H7948 H 0.69871 0.60821 0.16899 0.0
H7949 H 0.68886 0.62864 0.16906 0.0
H7950 H 0.70566 0.6116 0.15877 0.0
H7951 H 0.69596 0.6321 0.15897 0.0
H7952 H 0.70206 0.63133 0.13544 0.0
H7953 H 0.69618 0.62897 0.14655 0.0
H7954 H 0.71511 0.61939 0.15456 0.0
H7955 H 0.72097 0.62162 0.14333 0.0
C7956 C 0.69806 0.61344 0.16686 0.0
C7957 C 0.69318 0.61813 0.16982 0.0
C7958 C 0.70211 0.61541 0.16105 0.0
C7959 C 0.70135 0.62212 0.15803 0.0
C7960 C 0.69662 0.62687 0.16112 0.0
C7961 C 0.6926 0.62491 0.16695 0.0
C7962 C 0.70498 0.62874 0.13958 0.0
C7963 C 0.71196 0.62661 0.13848 0.0
C7964 C 0.70163 0.62745 0.14598 0.0
C7965 C 0.70516 0.62397 0.15145 0.0
C7966 C 0.71222 0.62201 0.15043 0.0
C7967 C 0.71559 0.62335 0.14402 0.0
H7968 H 0.58842 0.64635 0.94757 0.0
H7969 H 0.58677 0.62552 0.93875 0.0
H7970 H 0.59842 0.64257 0.95463 0.0
H7971 H 0.59663 0.62168 0.94597 0.0
H7972 H 0.62035 0.6213 0.95175 0.0
H7973 H 0.60924 0.62386 0.94596 0.0
H7974 H 0.60222 0.63507 0.9644 0.0
H7975 H 0.61346 0.63262 0.97015 0.0
C7976 C 0.59016 0.64095 0.94717 0.0
C7977 C 0.58682 0.63626 0.94254 0.0
C7978 C 0.59584 0.63876 0.95129 0.0
C7979 C 0.59835 0.63182 0.95086 0.0
C7980 C 0.59488 0.62708 0.94638 0.0
C7981 C 0.58918 0.62926 0.94228 0.0
C7982 C 0.61641 0.62426 0.95459 0.0
C7983 C 0.61781 0.62681 0.96138 0.0
C7984 C 0.61001 0.62568 0.9513 0.0
C7985 C 0.60484 0.62971 0.9547 0.0
C7986 C 0.60612 0.63202 0.9616 0.0
C7987 C 0.61253 0.63056 0.96492 0.0
H7988 H 0.6091 0.33627 0.19929 0.0
H7989 H 0.62884 0.33707 0.18816 0.0
H7990 H 0.61256 0.34652 0.20617 0.0
H7991 H 0.63238 0.34722 0.19516 0.0
H7992 H 0.63068 0.37079 0.20145 0.0
H7993 H 0.62861 0.35956 0.19566 0.0
H7994 H 0.62088 0.35092 0.21516 0.0
H7995 H 0.62285 0.36225 0.22094 0.0
C7996 C 0.61421 0.3386 0.19835 0.0
C7997 C 0.61867 0.33588 0.19314 0.0
C7998 C 0.61622 0.34443 0.20235 0.0
C7999 C 0.62274 0.34771 0.2012 0.0
C8000 C 0.62729 0.34486 0.19613 0.0
C8001 C 0.6253 0.339 0.19216 0.0
C8002 C 0.62858 0.36647 0.20451 0.0
C8003 C 0.62688 0.36742 0.21163 0.0
C8004 C 0.62746 0.36002 0.20121 0.0
C8005 C 0.62456 0.35434 0.20494 0.0
C8006 C 0.62306 0.35521 0.21213 0.0
C8007 C 0.62425 0.36167 0.21545 0.0
H8008 H 0.91126 0.36542 0.43372 0.0
H8009 H 0.9252 0.37301 0.44993 0.0
H8010 H 0.90119 0.36885 0.44073 0.0
H8011 H 0.91503 0.37671 0.4569 0.0
H8012 H 0.89434 0.37394 0.47018 0.0
H8013 H 0.90517 0.3717 0.46361 0.0
H8014 H 0.89519 0.37925 0.44468 0.0
H8015 H 0.88441 0.38138 0.45121 0.0
C8016 C 0.91218 0.36782 0.43879 0.0
C8017 C 0.91905 0.36889 0.44127 0.0
C8018 C 0.90639 0.36988 0.44278 0.0
C8019 C 0.90728 0.37311 0.44937 0.0
C8020 C 0.91415 0.3742 0.45187 0.0
C8021 C 0.91998 0.37214 0.44785 0.0
C8022 C 0.89452 0.37523 0.46464 0.0
C8023 C 0.8885 0.37774 0.46119 0.0
C8024 C 0.90072 0.37395 0.46087 0.0
C8025 C 0.90102 0.37518 0.45358 0.0
C8026 C 0.8951 0.37806 0.45024 0.0
C8027 C 0.88892 0.37931 0.45399 0.0
H8028 H 0.89573 0.66969 0.69868 0.0
H8029 H 0.87622 0.66825 0.6872 0.0
H8030 H 0.89237 0.65949 0.70568 0.0
H8031 H 0.87278 0.65815 0.69432 0.0
H8032 H 0.87473 0.63479 0.70117 0.0
H8033 H 0.87674 0.64592 0.69517 0.0
H8034 H 0.884 0.6551 0.7146 0.0
H8035 H 0.8821 0.64386 0.72059 0.0
C8036 C 0.8907 0.66723 0.69768 0.0
C8037 C 0.88627 0.66976 0.69234 0.0
C8038 C 0.88874 0.66143 0.70175 0.0
C8039 C 0.88231 0.65799 0.70055 0.0
C8040 C 0.87779 0.66064 0.69534 0.0
C8041 C 0.87974 0.66647 0.6913 0.0
C8042 C 0.87672 0.6392 0.70417 0.0
C8043 C 0.87831 0.63844 0.71134 0.0
C8044 C 0.87781 0.6456 0.70074 0.0
C8045 C 0.88056 0.6514 0.70439 0.0
C8046 C 0.88195 0.65071 0.71163 0.0
C8047 C 0.8808 0.6443 0.71507 0.0
H8048 H 0.59576 0.36718 0.57284 0.0
H8049 H 0.58178 0.3719 0.55561 0.0
H8050 H 0.60572 0.37092 0.56581 0.0
H8051 H 0.5918 0.37589 0.5486 0.0
H8052 H 0.61309 0.3737 0.53619 0.0
H8053 H 0.60228 0.37115 0.54268 0.0
H8054 H 0.61091 0.38142 0.56098 0.0
H8055 H 0.62168 0.38386 0.55454 0.0
C8056 C 0.59481 0.36902 0.56754 0.0
C8057 C 0.58796 0.36919 0.56478 0.0
C8058 C 0.60052 0.37125 0.56353 0.0
C8059 C 0.59957 0.37375 0.55664 0.0
C8060 C 0.59272 0.37396 0.55387 0.0
C8061 C 0.58697 0.37174 0.55791 0.0
C8062 C 0.61261 0.37551 0.54156 0.0
C8063 C 0.61826 0.37889 0.54488 0.0
C8064 C 0.60642 0.37406 0.54528 0.0
C8065 C 0.60576 0.37598 0.5524 0.0
C8066 C 0.61129 0.3797 0.55557 0.0
C8067 C 0.61746 0.38113 0.55187 0.0
H8068 H 0.87758 0.33846 0.81792 0.0
H8069 H 0.89758 0.33772 0.80725 0.0
H8070 H 0.87417 0.34857 0.81081 0.0
H8071 H 0.89422 0.34794 0.80025 0.0
H8072 H 0.88387 0.36328 0.78498 0.0
H8073 H 0.88596 0.35208 0.791 0.0
H8074 H 0.87787 0.36095 0.81024 0.0
H8075 H 0.87571 0.37205 0.80423 0.0
C8076 C 0.88122 0.34041 0.814 0.0
C8077 C 0.88787 0.3373 0.81318 0.0
C8078 C 0.87928 0.34624 0.80997 0.0
C8079 C 0.88393 0.34908 0.80498 0.0
C8080 C 0.89049 0.34584 0.804 0.0
C8081 C 0.89245 0.34004 0.80807 0.0
C8082 C 0.88243 0.36278 0.79047 0.0
C8083 C 0.87966 0.36854 0.79415 0.0
C8084 C 0.88369 0.3564 0.79392 0.0
C8085 C 0.88211 0.35564 0.80111 0.0
C8086 C 0.87909 0.36133 0.8047 0.0
C8087 C 0.8779 0.36771 0.80127 0.0
H8088 H 0.91891 0.62551 0.06854 0.0
H8089 H 0.91829 0.64604 0.05891 0.0
H8090 H 0.90903 0.6218 0.06127 0.0
H8091 H 0.90827 0.6424 0.0518 0.0
H8092 H 0.89325 0.6323 0.03627 0.0
H8093 H 0.9044 0.63467 0.04223 0.0
H8094 H 0.89654 0.62447 0.06091 0.0
H8095 H 0.88552 0.62198 0.05492 0.0
C8096 C 0.91672 0.62921 0.06482 0.0
C8097 C 0.91938 0.63609 0.06435 0.0
C8098 C 0.91101 0.62711 0.0607 0.0
C8099 C 0.90783 0.63181 0.05598 0.0
C8100 C 0.91063 0.63862 0.05534 0.0
C8101 C 0.91632 0.64073 0.05948 0.0
C8102 C 0.89397 0.63045 0.0416 0.0
C8103 C 0.88849 0.62699 0.04514 0.0
C8104 C 0.90032 0.63187 0.04504 0.0
C8105 C 0.90135 0.6298 0.05207 0.0
C8106 C 0.89596 0.62609 0.05549 0.0
C8107 C 0.88961 0.62472 0.05207 0.0
H8108 H 0.60717 0.66859 0.30805 0.0
H8109 H 0.62854 0.66916 0.31562 0.0
H8110 H 0.61003 0.65853 0.30068 0.0
H8111 H 0.63141 0.65906 0.30824 0.0
H8112 H 0.63531 0.64307 0.29065 0.0
H8113 H 0.63265 0.65443 0.29615 0.0
H8114 H 0.61263 0.6463 0.30307 0.0
H8115 H 0.61521 0.63512 0.29748 0.0
C8116 C 0.61249 0.66657 0.30813 0.0
C8117 C 0.6176 0.66963 0.3125 0.0
C8118 C 0.61413 0.6608 0.3039 0.0
C8119 C 0.62093 0.65793 0.30392 0.0
C8120 C 0.62614 0.66117 0.30805 0.0
C8121 C 0.62449 0.66696 0.31229 0.0
C8122 C 0.6303 0.64378 0.29325 0.0
C8123 C 0.62549 0.6382 0.29368 0.0
C8124 C 0.6288 0.65025 0.29646 0.0
C8125 C 0.62243 0.65128 0.30007 0.0
C8126 C 0.61755 0.64574 0.30027 0.0
C8127 C 0.61906 0.6393 0.29712 0.0
H8128 H 0.93216 0.59564 0.63793 0.0
H8129 H 0.94952 0.5818 0.63328 0.0
H8130 H 0.93919 0.60568 0.63442 0.0
H8131 H 0.95653 0.5919 0.62951 0.0
H8132 H 0.96883 0.61319 0.63221 0.0
H8133 H 0.96234 0.60232 0.63448 0.0
H8134 H 0.94416 0.61107 0.62411 0.0
H8135 H 0.95061 0.62191 0.62193 0.0
C8136 C 0.93749 0.59473 0.63615 0.0
C8137 C 0.94028 0.5879 0.63594 0.0
C8138 C 0.9415 0.6005 0.63404 0.0
C8139 C 0.94843 0.59961 0.63164 0.0
C8140 C 0.95123 0.59278 0.63137 0.0
C8141 C 0.94719 0.58698 0.63347 0.0
C8142 C 0.96349 0.61272 0.63031 0.0
C8143 C 0.9602 0.61843 0.62698 0.0
C8144 C 0.95977 0.6065 0.63161 0.0
C8145 C 0.95268 0.60586 0.62958 0.0
C8146 C 0.94954 0.61144 0.6259 0.0
C8147 C 0.95325 0.61765 0.62463 0.0
H8148 H 0.66939 0.69866 0.8987 0.0
H8149 H 0.66967 0.69064 0.87749 0.0
H8150 H 0.65927 0.70595 0.89582 0.0
H8151 H 0.65951 0.69792 0.8746 0.0
H8152 H 0.64354 0.7154 0.87045 0.0
H8153 H 0.65487 0.70988 0.87309 0.0
H8154 H 0.64703 0.70368 0.89347 0.0
H8155 H 0.63587 0.70932 0.8909 0.0
C8156 C 0.66729 0.69846 0.89341 0.0
C8157 C 0.6703 0.694 0.88835 0.0
C8158 C 0.66149 0.70264 0.89176 0.0
C8159 C 0.65852 0.70247 0.88499 0.0
C8160 C 0.6617 0.69824 0.87984 0.0
C8161 C 0.66753 0.69405 0.8815 0.0
C8162 C 0.6443 0.71295 0.87553 0.0
C8163 C 0.6388 0.71275 0.88045 0.0
C8164 C 0.65076 0.70973 0.87702 0.0
C8165 C 0.65186 0.70631 0.88349 0.0
C8166 C 0.64641 0.70632 0.88847 0.0
C8167 C 0.63998 0.70949 0.88697 0.0
H8168 H 0.57339 0.41059 0.13633 0.0
H8169 H 0.55577 0.42447 0.13302 0.0
H8170 H 0.5663 0.40065 0.13262 0.0
H8171 H 0.54867 0.41449 0.12907 0.0
H8172 H 0.53677 0.39284 0.1315 0.0
H8173 H 0.54319 0.40374 0.13387 0.0
H8174 H 0.56093 0.39576 0.1222 0.0
H8175 H 0.55456 0.38491 0.11992 0.0
C8176 C 0.56799 0.41152 0.1348 0.0
C8177 C 0.56514 0.41833 0.13502 0.0
C8178 C 0.56394 0.40583 0.13258 0.0
C8179 C 0.55692 0.40676 0.1305 0.0
C8180 C 0.55405 0.41358 0.13067 0.0
C8181 C 0.55814 0.4193 0.13287 0.0
C8182 C 0.54198 0.39349 0.12933 0.0
C8183 C 0.5452 0.38799 0.1256 0.0
C8184 C 0.54567 0.39973 0.13069 0.0
C8185 C 0.55263 0.40058 0.12833 0.0
C8186 C 0.55565 0.39522 0.12425 0.0
C8187 C 0.55199 0.38901 0.12291 0.0
H8188 H 0.83139 0.30633 0.38397 0.0
H8189 H 0.84544 0.32256 0.39132 0.0
H8190 H 0.84152 0.29895 0.381 0.0
H8191 H 0.85546 0.31524 0.38839 0.0
H8192 H 0.87155 0.29826 0.39014 0.0
H8193 H 0.86079 0.30456 0.39288 0.0
H8194 H 0.8519 0.29805 0.37305 0.0
H8195 H 0.86275 0.29163 0.37033 0.0
C8196 C 0.83663 0.30834 0.3849 0.0
C8197 C 0.8376 0.315 0.38798 0.0
C8198 C 0.84242 0.30411 0.3832 0.0
C8199 C 0.8493 0.30645 0.38456 0.0
C8200 C 0.85024 0.31319 0.38744 0.0
C8201 C 0.84448 0.31739 0.38913 0.0
C8202 C 0.86729 0.29814 0.38637 0.0
C8203 C 0.86804 0.29454 0.37998 0.0
C8204 C 0.86113 0.30178 0.38793 0.0
C8205 C 0.85553 0.30194 0.38312 0.0
C8206 C 0.85611 0.29803 0.37686 0.0
C8207 C 0.86232 0.29435 0.37531 0.0
H8208 H 0.95007 0.42457 0.87315 0.0
H8209 H 0.9341 0.41072 0.8649 0.0
H8210 H 0.95747 0.41438 0.87583 0.0
H8211 H 0.94145 0.40063 0.86753 0.0
H8212 H 0.95877 0.38486 0.86533 0.0
H8213 H 0.95232 0.39563 0.86299 0.0
H8214 H 0.95824 0.40364 0.88337 0.0
H8215 H 0.96477 0.39277 0.88571 0.0
C8216 C 0.94812 0.41936 0.87197 0.0
C8217 C 0.94153 0.41848 0.86872 0.0
C8218 C 0.95236 0.41353 0.87349 0.0
C8219 C 0.9501 0.4067 0.87179 0.0
C8220 C 0.94344 0.40583 0.86874 0.0
C8221 C 0.93921 0.41162 0.86723 0.0
C8222 C 0.95871 0.38892 0.86931 0.0
C8223 C 0.96219 0.38792 0.87575 0.0
C8224 C 0.955 0.39509 0.86798 0.0
C8225 C 0.95465 0.40045 0.87305 0.0
C8226 C 0.95842 0.39962 0.87936 0.0
C8227 C 0.96216 0.3934 0.8807 0.0
H8228 H 0.84451 0.68679 0.11009 0.0
H8229 H 0.83243 0.69703 0.12634 0.0
H8230 H 0.85427 0.6946 0.11239 0.0
H8231 H 0.84213 0.70519 0.12837 0.0
H8232 H 0.86447 0.71261 0.13535 0.0
H8233 H 0.85375 0.70584 0.13319 0.0
H8234 H 0.8581 0.70623 0.1109 0.0
H8235 H 0.86889 0.71272 0.11314 0.0
C8236 C 0.84392 0.69072 0.11416 0.0
C8237 C 0.83767 0.69121 0.11807 0.0
C8238 C 0.8495 0.6953 0.1154 0.0
C8239 C 0.849 0.70059 0.12054 0.0
C8240 C 0.84273 0.70115 0.12441 0.0
C8241 C 0.83713 0.69651 0.12319 0.0
C8242 C 0.86305 0.71132 0.12999 0.0
C8243 C 0.86753 0.71311 0.12442 0.0
C8244 C 0.8569 0.70745 0.12874 0.0
C8245 C 0.85509 0.70536 0.12187 0.0
C8246 C 0.8594 0.70755 0.11628 0.0
C8247 C 0.86556 0.71132 0.11754 0.0
H8248 H 0.55712 0.58707 0.35996 0.0
H8249 H 0.56708 0.58672 0.38034 0.0
H8250 H 0.55023 0.59728 0.3635 0.0
H8251 H 0.56004 0.59681 0.38394 0.0
H8252 H 0.55415 0.62049 0.38322 0.0
H8253 H 0.5599 0.60929 0.3809 0.0
H8254 H 0.54086 0.60147 0.37137 0.0
H8255 H 0.53514 0.61278 0.37358 0.0
C8256 C 0.5578 0.58914 0.36522 0.0
C8257 C 0.56269 0.5861 0.36984 0.0
C8258 C 0.55379 0.59495 0.36727 0.0
C8259 C 0.5546 0.59789 0.374 0.0
C8260 C 0.55934 0.59472 0.3787 0.0
C8261 C 0.56333 0.58889 0.37666 0.0
C8262 C 0.55118 0.61636 0.38067 0.0
C8263 C 0.54421 0.61754 0.37853 0.0
C8264 C 0.55445 0.60992 0.37939 0.0
C8265 C 0.55085 0.60449 0.37592 0.0
C8266 C 0.5438 0.60558 0.37399 0.0
C8267 C 0.5405 0.61203 0.37531 0.0
H8268 H 0.66089 0.32336 0.61708 0.0
H8269 H 0.67492 0.30629 0.62223 0.0
H8270 H 0.65093 0.31633 0.62083 0.0
H8271 H 0.6649 0.29929 0.62623 0.0
H8272 H 0.64366 0.28675 0.62402 0.0
H8273 H 0.65446 0.29324 0.62145 0.0
H8274 H 0.64571 0.31166 0.63141 0.0
H8275 H 0.63495 0.3052 0.63388 0.0
C8276 C 0.66185 0.3181 0.61901 0.0
C8277 C 0.66871 0.31538 0.61931 0.0
C8278 C 0.65614 0.31409 0.62126 0.0
C8279 C 0.6571 0.30725 0.62388 0.0
C8280 C 0.66396 0.30452 0.6242 0.0
C8281 C 0.66971 0.30856 0.62197 0.0
C8282 C 0.64411 0.29214 0.62576 0.0
C8283 C 0.63842 0.29549 0.62907 0.0
C8284 C 0.65029 0.29587 0.62429 0.0
C8285 C 0.65091 0.30301 0.62612 0.0
C8286 C 0.64535 0.30622 0.62977 0.0
C8287 C 0.63919 0.30252 0.63121 0.0
H8288 H 0.62594 0.93891 0.58659 0.0
H8289 H 0.64581 0.94982 0.58596 0.0
H8290 H 0.6224 0.94594 0.59671 0.0
H8291 H 0.64234 0.95674 0.59618 0.0
H8292 H 0.63234 0.97142 0.61208 0.0
H8293 H 0.6341 0.96579 0.60064 0.0
H8294 H 0.62616 0.94628 0.60906 0.0
H8295 H 0.62432 0.95192 0.6204 0.0
C8296 C 0.62951 0.94287 0.58855 0.0
C8297 C 0.63618 0.94377 0.58549 0.0
C8298 C 0.62751 0.94687 0.59439 0.0
C8299 C 0.6321 0.95188 0.59728 0.0
C8300 C 0.63865 0.95297 0.59405 0.0
C8301 C 0.64067 0.94895 0.58824 0.0
C8302 C 0.63084 0.96597 0.61142 0.0
C8303 C 0.62823 0.9621 0.61714 0.0
C8304 C 0.63191 0.96273 0.6049 0.0
C8305 C 0.63031 0.95557 0.60394 0.0
C8306 C 0.6274 0.95181 0.60958 0.0
C8307 C 0.62639 0.95502 0.6161 0.0
H8308 H 0.14537 0.55799 0.41856 0.0
H8309 H 0.12504 0.56804 0.41862 0.0
H8310 H 0.14191 0.55104 0.40836 0.0
H8311 H 0.1215 0.56094 0.40855 0.0
H8312 H 0.1223 0.55478 0.38498 0.0
H8313 H 0.12455 0.56062 0.39614 0.0
H8314 H 0.13414 0.54168 0.40414 0.0
H8315 H 0.13203 0.53587 0.39287 0.0
C8316 C 0.14014 0.55868 0.41643 0.0
C8317 C 0.13551 0.56362 0.41938 0.0
C8318 C 0.13813 0.55463 0.41063 0.0
C8319 C 0.13143 0.55544 0.40762 0.0
C8320 C 0.12672 0.56023 0.4107 0.0
C8321 C 0.12873 0.56426 0.41651 0.0
C8322 C 0.12486 0.55185 0.38914 0.0
C8323 C 0.12704 0.54488 0.38802 0.0
C8324 C 0.12609 0.55518 0.39556 0.0
C8325 C 0.12955 0.55164 0.40104 0.0
C8326 C 0.13153 0.54459 0.40001 0.0
C8327 C 0.13026 0.54123 0.39357 0.0
H8328 H 0.69788 0.89539 0.66856 0.0
H8329 H 0.68858 0.87472 0.66964 0.0
H8330 H 0.70474 0.89178 0.65837 0.0
H8331 H 0.69562 0.87104 0.65958 0.0
H8332 H 0.70111 0.87128 0.63579 0.0
H8333 H 0.69553 0.87358 0.64707 0.0
H8334 H 0.71426 0.88425 0.65416 0.0
H8335 H 0.71978 0.8821 0.64276 0.0
C8336 C 0.69734 0.89005 0.66666 0.0
C8337 C 0.69262 0.88537 0.66989 0.0
C8338 C 0.70134 0.88795 0.66086 0.0
C8339 C 0.70072 0.88112 0.65813 0.0
C8340 C 0.69617 0.87636 0.6615 0.0
C8341 C 0.69219 0.87846 0.66731 0.0
C8342 C 0.70406 0.87408 0.63978 0.0
C8343 C 0.71086 0.87657 0.63836 0.0
C8344 C 0.70088 0.87534 0.64628 0.0
C8345 C 0.70443 0.87914 0.65152 0.0
C8346 C 0.71135 0.88139 0.65021 0.0
C8347 C 0.71454 0.88009 0.6437 0.0
H8348 H 0.3602 0.43744 0.91141 0.0
H8349 H 0.37738 0.44672 0.92297 0.0
H8350 H 0.36255 0.44521 0.90162 0.0
H8351 H 0.37948 0.45485 0.91327 0.0
H8352 H 0.386 0.46212 0.89072 0.0
H8353 H 0.38389 0.45538 0.90148 0.0
H8354 H 0.36151 0.45695 0.89797 0.0
H8355 H 0.36368 0.4634 0.88714 0.0
C8356 C 0.36449 0.44114 0.91188 0.0
C8357 C 0.36863 0.44138 0.91799 0.0
C8358 C 0.36577 0.44571 0.90629 0.0
C8359 C 0.37117 0.45073 0.90664 0.0
C8360 C 0.3753 0.45103 0.91277 0.0
C8361 C 0.37405 0.44641 0.91838 0.0
C8362 C 0.38064 0.4611 0.89235 0.0
C8363 C 0.375 0.46321 0.88809 0.0
C8364 C 0.37942 0.45725 0.89851 0.0
C8365 C 0.37252 0.4555 0.90055 0.0
C8366 C 0.36689 0.45801 0.89647 0.0
C8367 C 0.36812 0.46176 0.8903 0.0
H8368 H 0.30809 0.61016 0.6679 0.0
H8369 H 0.31678 0.63103 0.66975 0.0
H8370 H 0.30106 0.61397 0.6579 0.0
H8371 H 0.30957 0.6349 0.6599 0.0
H8372 H 0.30393 0.63554 0.6362 0.0
H8373 H 0.30967 0.63286 0.6473 0.0
H8374 H 0.29127 0.62143 0.65406 0.0
H8375 H 0.28558 0.62399 0.64282 0.0
C8376 C 0.30846 0.61557 0.66621 0.0
C8377 C 0.31305 0.62027 0.66961 0.0
C8378 C 0.30436 0.61779 0.66053 0.0
C8379 C 0.30476 0.62474 0.65807 0.0
C8380 C 0.30919 0.62949 0.6616 0.0
C8381 C 0.31328 0.62728 0.6673 0.0
C8382 C 0.30109 0.6325 0.64008 0.0
C8383 C 0.29432 0.62993 0.6386 0.0
C8384 C 0.30435 0.63101 0.64648 0.0
C8385 C 0.30095 0.62689 0.65158 0.0
C8386 C 0.29407 0.62454 0.65022 0.0
C8387 C 0.29078 0.62607 0.64381 0.0
H8388 H 0.86877 0.07293 0.09536 0.0
H8389 H 0.87262 0.0554 0.08149 0.0
H8390 H 0.87263 0.06593 0.10532 0.0
H8391 H 0.87669 0.0484 0.09151 0.0
H8392 H 0.87446 0.03652 0.11325 0.0
H8393 H 0.8719 0.04284 0.10233 0.0
H8394 H 0.88331 0.06084 0.11012 0.0
H8395 H 0.88581 0.05456 0.12098 0.0
C8396 C 0.87044 0.06757 0.09443 0.0
C8397 C 0.87035 0.06472 0.08763 0.0
C8398 C 0.87274 0.06358 0.10014 0.0
C8399 C 0.87501 0.05661 0.09921 0.0
C8400 C 0.87494 0.05374 0.0924 0.0
C8401 C 0.87267 0.05776 0.08666 0.0
C8402 C 0.87654 0.04177 0.11255 0.0
C8403 C 0.88025 0.04508 0.11801 0.0
C8404 C 0.87507 0.0454 0.1063 0.0
C8405 C 0.8773 0.0524 0.1054 0.0
C8406 C 0.88137 0.05552 0.11071 0.0
C8407 C 0.88282 0.05192 0.11693 0.0
H8408 H 0.68838 0.13038 0.83611 0.0
H8409 H 0.69712 0.10951 0.8377 0.0
H8410 H 0.69555 0.13413 0.84605 0.0
H8411 H 0.70412 0.1132 0.84777 0.0
H8412 H 0.71958 0.12303 0.86297 0.0
H8413 H 0.71389 0.12064 0.85168 0.0
H8414 H 0.69547 0.1319 0.85863 0.0
H8415 H 0.7012 0.13441 0.86978 0.0
C8416 C 0.69189 0.12661 0.83852 0.0
C8417 C 0.69214 0.11963 0.83612 0.0
C8418 C 0.69595 0.12875 0.84427 0.0
C8419 C 0.70039 0.12396 0.84774 0.0
C8420 C 0.70081 0.11704 0.84519 0.0
C8421 C 0.69673 0.1149 0.83946 0.0
C8422 C 0.71438 0.12511 0.86201 0.0
C8423 C 0.71082 0.12887 0.86728 0.0
C8424 C 0.71109 0.12368 0.85558 0.0
C8425 C 0.7042 0.12603 0.85426 0.0
C8426 C 0.70079 0.13005 0.85943 0.0
C8427 C 0.70405 0.13144 0.86585 0.0
H8428 H 0.80422 0.8842 0.33146 0.0
H8429 H 0.82043 0.89253 0.34498 0.0
H8430 H 0.7971 0.88137 0.34181 0.0
H8431 H 0.81336 0.88975 0.35522 0.0
H8432 H 0.7965 0.89137 0.37153 0.0
H8433 H 0.80257 0.89401 0.3606 0.0
H8434 H 0.79679 0.87365 0.35243 0.0
H8435 H 0.79064 0.87101 0.36345 0.0
C8436 C 0.80629 0.88538 0.33663 0.0
C8437 C 0.81286 0.88869 0.33738 0.0
C8438 C 0.80221 0.88376 0.34255 0.0
C8439 C 0.80462 0.88543 0.34934 0.0
C8440 C 0.81126 0.88856 0.35007 0.0
C8441 C 0.81532 0.89016 0.34418 0.0
C8442 C 0.7965 0.88746 0.3674 0.0
C8443 C 0.79319 0.88094 0.36839 0.0
C8444 C 0.8 0.88897 0.36114 0.0
C8445 C 0.80028 0.88399 0.35569 0.0
C8446 C 0.79666 0.8776 0.35653 0.0
C8447 C 0.79314 0.87609 0.36283 0.0
H8448 H 0.41931 0.37767 0.06751 0.0
H8449 H 0.42087 0.35811 0.05612 0.0
H8450 H 0.40907 0.38093 0.06051 0.0
H8451 H 0.41053 0.3613 0.04924 0.0
H8452 H 0.3945 0.37129 0.03453 0.0
H8453 H 0.40584 0.36954 0.04035 0.0
H8454 H 0.3969 0.37677 0.0599 0.0
H8455 H 0.38566 0.37864 0.05407 0.0
C8456 C 0.41753 0.3741 0.06345 0.0
C8457 C 0.42089 0.36761 0.0624 0.0
C8458 C 0.41162 0.37594 0.05948 0.0
C8459 C 0.40895 0.37136 0.05434 0.0
C8460 C 0.41247 0.36498 0.05312 0.0
C8461 C 0.41835 0.36312 0.05711 0.0
C8462 C 0.395 0.37262 0.04004 0.0
C8463 C 0.38918 0.37506 0.04386 0.0
C8464 C 0.40148 0.37155 0.04339 0.0
C8465 C 0.40227 0.37299 0.0506 0.0
C8466 C 0.3965 0.37567 0.05433 0.0
C8467 C 0.39003 0.37668 0.05101 0.0
H8468 H 0.3856 0.67488 0.80463 0.0
H8469 H 0.38954 0.66103 0.82216 0.0
H8470 H 0.38162 0.66483 0.79762 0.0
H8471 H 0.38579 0.65104 0.81515 0.0
H8472 H 0.3727 0.63529 0.80375 0.0
H8473 H 0.37519 0.64612 0.81007 0.0
H8474 H 0.38643 0.65408 0.79204 0.0
H8475 H 0.38387 0.64319 0.78567 0.0
C8476 C 0.3856 0.6697 0.80699 0.0
C8477 C 0.38792 0.66876 0.81395 0.0
C8478 C 0.38337 0.66394 0.80296 0.0
C8479 C 0.38336 0.65713 0.80583 0.0
C8480 C 0.38563 0.65622 0.8128 0.0
C8481 C 0.38788 0.66194 0.8168 0.0
C8482 C 0.37566 0.63937 0.80111 0.0
C8483 C 0.37817 0.63834 0.79424 0.0
C8484 C 0.37711 0.64557 0.80474 0.0
C8485 C 0.38112 0.65092 0.80161 0.0
C8486 C 0.38331 0.65007 0.7946 0.0
C8487 C 0.38184 0.64384 0.79095 0.0
H8488 H 0.0857 0.64764 0.55626 0.0
H8489 H 0.0872 0.6279 0.56734 0.0
H8490 H 0.0959 0.64444 0.54917 0.0
H8491 H 0.09728 0.62463 0.56013 0.0
H8492 H 0.12057 0.62662 0.55328 0.0
H8493 H 0.1095 0.62863 0.55936 0.0
H8494 H 0.10027 0.63621 0.54007 0.0
H8495 H 0.11145 0.63431 0.53399 0.0
C8496 C 0.08817 0.6426 0.55715 0.0
C8497 C 0.08566 0.63805 0.5624 0.0
C8498 C 0.09397 0.64073 0.55303 0.0
C8499 C 0.09742 0.63428 0.5541 0.0
C8500 C 0.09478 0.62966 0.55922 0.0
C8501 C 0.08896 0.63151 0.56331 0.0
C8502 C 0.11617 0.62869 0.55032 0.0
C8503 C 0.1169 0.63036 0.54317 0.0
C8504 C 0.1098 0.62978 0.55379 0.0
C8505 C 0.10399 0.6326 0.55021 0.0
C8506 C 0.10466 0.63409 0.543 0.0
C8507 C 0.11104 0.63294 0.5395 0.0
H8508 H 0.11409 0.34501 0.32083 0.0
H8509 H 0.1219 0.33114 0.30467 0.0
H8510 H 0.11741 0.35512 0.3138 0.0
H8511 H 0.12547 0.34134 0.29768 0.0
H8512 H 0.12239 0.36207 0.28439 0.0
H8513 H 0.12031 0.35117 0.29095 0.0
H8514 H 0.12779 0.3612 0.30988 0.0
H8515 H 0.12975 0.37204 0.30337 0.0
C8516 C 0.11651 0.34412 0.31576 0.0
C8517 C 0.11768 0.33725 0.3133 0.0
C8518 C 0.11851 0.34993 0.31176 0.0
C8519 C 0.12176 0.34906 0.30519 0.0
C8520 C 0.12295 0.3422 0.30271 0.0
C8521 C 0.12096 0.33636 0.30674 0.0
C8522 C 0.1237 0.36188 0.28993 0.0
C8523 C 0.12613 0.36793 0.29339 0.0
C8524 C 0.12251 0.35565 0.29368 0.0
C8525 C 0.12377 0.35535 0.30097 0.0
C8526 C 0.12659 0.3613 0.30432 0.0
C8527 C 0.12774 0.3675 0.30058 0.0
H8528 H 0.41982 0.62677 0.43961 0.0
H8529 H 0.41841 0.64755 0.4486 0.0
H8530 H 0.40981 0.62303 0.44668 0.0
H8531 H 0.40826 0.64387 0.4555 0.0
H8532 H 0.39289 0.63395 0.47077 0.0
H8533 H 0.40421 0.63636 0.46515 0.0
H8534 H 0.39727 0.62538 0.44655 0.0
H8535 H 0.38609 0.62284 0.45221 0.0
C8536 C 0.41743 0.63052 0.44315 0.0
C8537 C 0.4199 0.63747 0.4435 0.0
C8538 C 0.41165 0.62839 0.44716 0.0
C8539 C 0.4082 0.63316 0.45163 0.0
C8540 C 0.41082 0.64004 0.45216 0.0
C8541 C 0.41659 0.64218 0.44813 0.0
C8542 C 0.39385 0.63194 0.46554 0.0
C8543 C 0.38858 0.62825 0.46192 0.0
C8544 C 0.4003 0.63338 0.46229 0.0
C8545 C 0.40163 0.6311 0.45538 0.0
C8546 C 0.39646 0.62716 0.45189 0.0
C8547 C 0.39002 0.62576 0.45511 0.0
H8548 H 0.10816 0.67053 0.19999 0.0
H8549 H 0.12779 0.66901 0.18875 0.0
H8550 H 0.11134 0.66024 0.20695 0.0
H8551 H 0.13105 0.65882 0.19582 0.0
H8552 H 0.12875 0.6354 0.20233 0.0
H8553 H 0.12693 0.64662 0.19645 0.0
H8554 H 0.11954 0.65563 0.21592 0.0
H8555 H 0.12126 0.6443 0.22179 0.0
C8556 C 0.11318 0.66804 0.19905 0.0
C8557 C 0.1177 0.67057 0.19378 0.0
C8558 C 0.11504 0.66218 0.20309 0.0
C8559 C 0.12144 0.65868 0.20192 0.0
C8560 C 0.12605 0.66135 0.1968 0.0
C8561 C 0.12421 0.66723 0.19279 0.0
C8562 C 0.12677 0.63979 0.20537 0.0
C8563 C 0.1251 0.63895 0.21251 0.0
C8564 C 0.12579 0.64624 0.20201 0.0
C8565 C 0.12307 0.65203 0.20571 0.0
C8566 C 0.12158 0.65126 0.21291 0.0
C8567 C 0.12262 0.64479 0.21628 0.0
H8568 H 0.08637 0.35801 0.94998 0.0
H8569 H 0.08642 0.37834 0.93992 0.0
H8570 H 0.09668 0.36136 0.95682 0.0
H8571 H 0.09661 0.38177 0.94691 0.0
H8572 H 0.1202 0.38079 0.95277 0.0
H8573 H 0.109 0.37851 0.94703 0.0
H8574 H 0.1011 0.36917 0.96614 0.0
H8575 H 0.11242 0.37132 0.97185 0.0
C8576 C 0.08854 0.36322 0.94927 0.0
C8577 C 0.08559 0.36789 0.94436 0.0
C8578 C 0.09441 0.36517 0.95325 0.0
C8579 C 0.09749 0.37183 0.95239 0.0
C8580 C 0.09441 0.37657 0.94764 0.0
C8581 C 0.08852 0.37463 0.94368 0.0
C8582 C 0.11607 0.37827 0.95576 0.0
C8583 C 0.11722 0.37618 0.96275 0.0
C8584 C 0.10961 0.37702 0.95249 0.0
C8585 C 0.10414 0.37364 0.95611 0.0
C8586 C 0.10523 0.37172 0.96317 0.0
C8587 C 0.11169 0.37301 0.96647 0.0
H8588 H 0.39712 0.33658 0.69833 0.0
H8589 H 0.37694 0.33714 0.68797 0.0
H8590 H 0.39382 0.34682 0.7053 0.0
H8591 H 0.37357 0.34724 0.6951 0.0
H8592 H 0.37473 0.37067 0.70152 0.0
H8593 H 0.37693 0.35957 0.69557 0.0
H8594 H 0.38599 0.35114 0.71459 0.0
H8595 H 0.38393 0.36237 0.72052 0.0
C8596 C 0.39196 0.33886 0.69757 0.0
C8597 C 0.38732 0.33606 0.69254 0.0
C8598 C 0.39004 0.34468 0.70163 0.0
C8599 C 0.38344 0.34787 0.70075 0.0
C8600 C 0.37872 0.34495 0.69586 0.0
C8601 C 0.38063 0.33912 0.69182 0.0
C8602 C 0.37717 0.36644 0.70445 0.0
C8603 C 0.37921 0.36742 0.71148 0.0
C8604 C 0.37837 0.36005 0.70105 0.0
C8605 C 0.38166 0.35446 0.70459 0.0
C8606 C 0.38351 0.35536 0.71169 0.0
C8607 C 0.38228 0.36177 0.71511 0.0
H8608 H 0.06755 0.41913 0.37875 0.0
H8609 H 0.05727 0.41947 0.35853 0.0
H8610 H 0.06045 0.40904 0.38219 0.0
H8611 H 0.05034 0.40923 0.36189 0.0
H8612 H 0.0352 0.39363 0.37183 0.0
H8613 H 0.04105 0.40489 0.36971 0.0
H8614 H 0.06009 0.39668 0.37892 0.0
H8615 H 0.05421 0.38555 0.38118 0.0
C8616 C 0.06372 0.41711 0.37507 0.0
C8617 C 0.06302 0.4201 0.36835 0.0
C8618 C 0.0597 0.41127 0.37701 0.0
C8619 C 0.05485 0.40829 0.3723 0.0
C8620 C 0.05398 0.41142 0.36567 0.0
C8621 C 0.05802 0.41724 0.36371 0.0
C8622 C 0.0406 0.39429 0.37351 0.0
C8623 C 0.04426 0.38869 0.37663 0.0
C8624 C 0.04397 0.40071 0.37223 0.0
C8625 C 0.05105 0.40169 0.37412 0.0
C8626 C 0.05462 0.39615 0.37746 0.0
C8627 C 0.05127 0.38974 0.37869 0.0
H8628 H 0.33682 0.30757 0.10932 0.0
H8629 H 0.3361 0.31687 0.13 0.0
H8630 H 0.34692 0.30052 0.11284 0.0
H8631 H 0.34605 0.30965 0.13359 0.0
H8632 H 0.36968 0.30379 0.13325 0.0
H8633 H 0.35851 0.30956 0.13093 0.0
H8634 H 0.35106 0.29092 0.12035 0.0
H8635 H 0.36236 0.28519 0.12253 0.0
C8636 C 0.33878 0.30807 0.11464 0.0
C8637 C 0.33568 0.31284 0.11936 0.0
C8638 C 0.34452 0.30396 0.11668 0.0
C8639 C 0.34732 0.30453 0.1235 0.0
C8640 C 0.34408 0.30913 0.12828 0.0
C8641 C 0.33832 0.31322 0.12624 0.0
C8642 C 0.36564 0.3009 0.13046 0.0
C8643 C 0.36693 0.29405 0.12801 0.0
C8644 C 0.35921 0.30419 0.12919 0.0
C8645 C 0.35389 0.30072 0.12542 0.0
C8646 C 0.35507 0.29377 0.1232 0.0
C8647 C 0.36152 0.29046 0.12451 0.0
H8648 H 0.45268 0.581 0.86981 0.0
H8649 H 0.43528 0.59463 0.86468 0.0
H8650 H 0.45947 0.59121 0.87372 0.0
H8651 H 0.4421 0.60477 0.86833 0.0
H8652 H 0.45292 0.62106 0.88127 0.0
H8653 H 0.44669 0.61015 0.87884 0.0
H8654 H 0.46526 0.60175 0.86889 0.0
H8655 H 0.47154 0.6127 0.87142 0.0
C8656 C 0.4503 0.58616 0.86954 0.0
C8657 C 0.44344 0.587 0.8669 0.0
C8658 C 0.45421 0.59201 0.87172 0.0
C8659 C 0.45133 0.59881 0.87137 0.0
C8660 C 0.44446 0.59961 0.86877 0.0
C8661 C 0.44057 0.59379 0.86659 0.0
C8662 C 0.45569 0.61686 0.8786 0.0
C8663 C 0.46269 0.61777 0.87646 0.0
C8664 C 0.45211 0.61062 0.87718 0.0
C8665 C 0.45543 0.60511 0.87356 0.0
C8666 C 0.46255 0.60587 0.87172 0.0
C8667 C 0.46615 0.61214 0.87316 0.0
H8668 H 0.17441 0.70014 0.6211 0.0
H8669 H 0.16052 0.68304 0.61571 0.0
H8670 H 0.16428 0.70718 0.62477 0.0
H8671 H 0.15046 0.69009 0.61914 0.0
H8672 H 0.13421 0.70132 0.63182 0.0
H8673 H 0.14501 0.69485 0.62959 0.0
H8674 H 0.15394 0.71317 0.61963 0.0
H8675 H 0.14309 0.71968 0.62193 0.0
C8676 C 0.16921 0.69787 0.62072 0.0
C8677 C 0.16828 0.69103 0.61808 0.0
C8678 C 0.16341 0.70193 0.62276 0.0
C8679 C 0.15656 0.6992 0.62228 0.0
C8680 C 0.15566 0.69234 0.61969 0.0
C8681 C 0.16143 0.68831 0.61763 0.0
C8682 C 0.13849 0.70398 0.62919 0.0
C8683 C 0.13776 0.71098 0.62697 0.0
C8684 C 0.14468 0.70027 0.62789 0.0
C8685 C 0.15031 0.70345 0.62433 0.0
C8686 C 0.14972 0.71057 0.62241 0.0
C8687 C 0.14351 0.7143 0.62373 0.0
H8688 H 0.05754 0.58702 0.14706 0.0
H8689 H 0.06652 0.58593 0.12625 0.0
H8690 H 0.05049 0.59709 0.14349 0.0
H8691 H 0.05929 0.59587 0.12262 0.0
H8692 H 0.05349 0.61954 0.12272 0.0
H8693 H 0.05927 0.60839 0.12509 0.0
H8694 H 0.04079 0.60113 0.13607 0.0
H8695 H 0.03505 0.61242 0.13383 0.0
C8696 C 0.05797 0.58889 0.1417 0.0
C8697 C 0.06265 0.5857 0.13696 0.0
C8698 C 0.05386 0.59462 0.13963 0.0
C8699 C 0.05433 0.59731 0.13277 0.0
C8700 C 0.05885 0.59398 0.12796 0.0
C8701 C 0.06295 0.58823 0.13003 0.0
C8702 C 0.05064 0.61555 0.1256 0.0
C8703 C 0.04384 0.61689 0.12815 0.0
C8704 C 0.05393 0.60912 0.1269 0.0
C8705 C 0.05051 0.60386 0.1308 0.0
C8706 C 0.0436 0.6051 0.13312 0.0
C8707 C 0.04029 0.61154 0.13178 0.0
H8708 H 0.16063 0.32162 0.89 0.0
H8709 H 0.17439 0.30407 0.88586 0.0
H8710 H 0.15059 0.31465 0.88633 0.0
H8711 H 0.16429 0.2971 0.88198 0.0
H8712 H 0.14257 0.28526 0.88439 0.0
H8713 H 0.15351 0.29155 0.8869 0.0
H8714 H 0.14564 0.30963 0.87568 0.0
H8715 H 0.13475 0.30338 0.87323 0.0
C8716 C 0.16151 0.31626 0.88831 0.0
C8717 C 0.16832 0.3134 0.88826 0.0
C8718 C 0.15576 0.31228 0.88612 0.0
C8719 C 0.15663 0.30532 0.88381 0.0
C8720 C 0.16343 0.30243 0.88376 0.0
C8721 C 0.16922 0.30645 0.88593 0.0
C8722 C 0.14325 0.29052 0.88235 0.0
C8723 C 0.13776 0.29386 0.8787 0.0
C8724 C 0.14951 0.29413 0.88379 0.0
C8725 C 0.1504 0.30114 0.88159 0.0
C8726 C 0.14506 0.3043 0.8776 0.0
C8727 C 0.13883 0.30072 0.87618 0.0
H8728 H 0.45139 0.42414 0.63397 0.0
H8729 H 0.43533 0.41039 0.6422 0.0
H8730 H 0.45833 0.41389 0.63046 0.0
H8731 H 0.44232 0.40023 0.63894 0.0
H8732 H 0.45257 0.38321 0.62652 0.0
H8733 H 0.44609 0.39403 0.62855 0.0
H8734 H 0.46512 0.40413 0.63564 0.0
H8735 H 0.47166 0.39325 0.63351 0.0
C8736 C 0.44933 0.41894 0.63502 0.0
C8737 C 0.44281 0.41809 0.63839 0.0
C8738 C 0.45334 0.41308 0.63307 0.0
C8739 C 0.45087 0.40623 0.63439 0.0
C8740 C 0.44434 0.40541 0.63774 0.0
C8741 C 0.44037 0.41125 0.6397 0.0
C8742 C 0.45539 0.38775 0.62847 0.0
C8743 C 0.46261 0.38735 0.62994 0.0
C8744 C 0.45166 0.39395 0.62966 0.0
C8745 C 0.45505 0.39992 0.63238 0.0
C8746 C 0.46236 0.39964 0.63352 0.0
C8747 C 0.4661 0.39341 0.6323 0.0
H8748 H 0.34421 0.68946 0.3976 0.0
H8749 H 0.33246 0.69939 0.38092 0.0
H8750 H 0.35411 0.69704 0.39519 0.0
H8751 H 0.34228 0.70737 0.3788 0.0
H8752 H 0.36473 0.71401 0.37157 0.0
H8753 H 0.3538 0.7077 0.374 0.0
H8754 H 0.35844 0.70842 0.39623 0.0
H8755 H 0.36948 0.71438 0.3937 0.0
C8756 C 0.34371 0.69328 0.39342 0.0
C8757 C 0.33753 0.69373 0.3894 0.0
C8758 C 0.34938 0.69774 0.39211 0.0
C8759 C 0.34903 0.70288 0.38681 0.0
C8760 C 0.34279 0.70344 0.38287 0.0
C8761 C 0.33712 0.69891 0.38415 0.0
C8762 C 0.36332 0.71289 0.37697 0.0
C8763 C 0.36794 0.71462 0.38245 0.0
C8764 C 0.35705 0.70929 0.37838 0.0
C8765 C 0.35525 0.70743 0.38532 0.0
C8766 C 0.35972 0.70957 0.39081 0.0
C8767 C 0.36602 0.71305 0.38938 0.0
H8768 H 0.3709 0.05346 0.42434 0.0
H8769 H 0.36301 0.06995 0.4109 0.0
H8770 H 0.37445 0.04674 0.41396 0.0
H8771 H 0.3663 0.06318 0.40061 0.0
H8772 H 0.37886 0.05319 0.38349 0.0
H8773 H 0.37669 0.05945 0.39442 0.0
H8774 H 0.36933 0.04024 0.40399 0.0
H8775 H 0.3716 0.03393 0.393 0.0
C8776 C 0.36993 0.05566 0.41918 0.0
C8777 C 0.36664 0.06224 0.41846 0.0
C8778 C 0.37191 0.05178 0.41324 0.0
C8779 C 0.37069 0.05442 0.40644 0.0
C8780 C 0.36742 0.06101 0.40575 0.0
C8781 C 0.36544 0.06486 0.41166 0.0
C8782 C 0.37681 0.05029 0.38793 0.0
C8783 C 0.37531 0.04309 0.38735 0.0
C8784 C 0.37554 0.05388 0.3942 0.0
C8785 C 0.37272 0.05038 0.40005 0.0
C8786 C 0.37153 0.04309 0.39959 0.0
C8787 C 0.37283 0.03948 0.3933 0.0
H8788 H 0.87812 0.43884 0.58697 0.0
H8789 H 0.8586 0.45026 0.58534 0.0
H8790 H 0.88147 0.446 0.59706 0.0
H8791 H 0.86187 0.4573 0.59555 0.0
H8792 H 0.87196 0.47218 0.61138 0.0
H8793 H 0.87019 0.46625 0.60008 0.0
H8794 H 0.87734 0.44676 0.60924 0.0
H8795 H 0.87919 0.45269 0.62043 0.0
C8796 C 0.87458 0.44294 0.5887 0.0
C8797 C 0.86807 0.44395 0.58536 0.0
C8798 C 0.87647 0.447 0.59453 0.0
C8799 C 0.87192 0.4522 0.59714 0.0
C8800 C 0.86552 0.45339 0.59365 0.0
C8801 C 0.86361 0.4493 0.58784 0.0
C8802 C 0.87326 0.46666 0.61092 0.0
C8803 C 0.87567 0.46289 0.61679 0.0
C8804 C 0.87219 0.46325 0.60448 0.0
C8805 C 0.87359 0.45602 0.60376 0.0
C8806 C 0.87627 0.45234 0.60958 0.0
C8807 C 0.87727 0.45572 0.61601 0.0
H8808 H 0.32227 0.11657 0.34562 0.0
H8809 H 0.30475 0.12088 0.33187 0.0
H8810 H 0.3153 0.12019 0.35568 0.0
H8811 H 0.29778 0.1247 0.34199 0.0
H8812 H 0.28587 0.12224 0.36363 0.0
H8813 H 0.29221 0.11972 0.35272 0.0
H8814 H 0.3103 0.13083 0.36071 0.0
H8815 H 0.304 0.1333 0.37156 0.0
C8816 C 0.31692 0.11828 0.34474 0.0
C8817 C 0.31406 0.1184 0.33794 0.0
C8818 C 0.31294 0.12045 0.35051 0.0
C8819 C 0.30599 0.12278 0.34965 0.0
C8820 C 0.30311 0.1229 0.34284 0.0
C8821 C 0.30712 0.12077 0.33704 0.0
C8822 C 0.29115 0.12425 0.36298 0.0
C8823 C 0.29447 0.12788 0.36849 0.0
C8824 C 0.29479 0.12281 0.35674 0.0
C8825 C 0.30181 0.12497 0.35589 0.0
C8826 C 0.30497 0.12893 0.36126 0.0
C8827 C 0.30135 0.13037 0.36747 0.0
H8828 H 0.64757 0.55737 0.08715 0.0
H8829 H 0.62719 0.56733 0.0871 0.0
H8830 H 0.64414 0.5504 0.09734 0.0
H8831 H 0.62369 0.56021 0.09717 0.0
H8832 H 0.6245 0.55397 0.12071 0.0
H8833 H 0.62682 0.5599 0.10961 0.0
H8834 H 0.6363 0.54096 0.10148 0.0
H8835 H 0.6341 0.53506 0.11269 0.0
C8836 C 0.64234 0.55804 0.08928 0.0
C8837 C 0.63768 0.56296 0.08633 0.0
C8838 C 0.64034 0.55398 0.09508 0.0
C8839 C 0.63365 0.55475 0.09809 0.0
C8840 C 0.62892 0.55953 0.09502 0.0
C8841 C 0.6309 0.56357 0.0892 0.0
C8842 C 0.62705 0.55106 0.11654 0.0
C8843 C 0.62917 0.54406 0.1176 0.0
C8844 C 0.62833 0.55444 0.11015 0.0
C8845 C 0.63177 0.55092 0.10465 0.0
C8846 C 0.6337 0.54384 0.10563 0.0
C8847 C 0.63238 0.54044 0.11203 0.0
H8848 H 0.70125 0.38537 0.33133 0.0
H8849 H 0.68376 0.38963 0.34512 0.0
H8850 H 0.70822 0.38146 0.34142 0.0
H8851 H 0.69073 0.38592 0.35516 0.0
H8852 H 0.70195 0.37256 0.37088 0.0
H8853 H 0.69569 0.37517 0.36004 0.0
H8854 H 0.71381 0.38635 0.35222 0.0
H8855 H 0.72012 0.3837 0.36313 0.0
C8856 C 0.69889 0.38545 0.3365 0.0
C8857 C 0.69195 0.38784 0.33742 0.0
C8858 C 0.7029 0.38327 0.34228 0.0
C8859 C 0.70003 0.38334 0.34909 0.0
C8860 C 0.69309 0.3857 0.34998 0.0
C8861 C 0.68911 0.38791 0.34423 0.0
C8862 C 0.70462 0.37554 0.36683 0.0
C8863 C 0.7115 0.37801 0.3679 0.0
C8864 C 0.70102 0.37705 0.36063 0.0
C8865 C 0.7042 0.38107 0.35531 0.0
C8866 C 0.71122 0.38322 0.35621 0.0
C8867 C 0.71483 0.3817 0.36244 0.0
H8868 H 0.13543 0.95053 0.92487 0.0
H8869 H 0.14418 0.93464 0.91126 0.0
H8870 H 0.13267 0.95777 0.9146 0.0
H8871 H 0.14145 0.94181 0.90108 0.0
H8872 H 0.14286 0.95885 0.88491 0.0
H8873 H 0.1455 0.95261 0.89574 0.0
H8874 H 0.12516 0.9583 0.90401 0.0
H8875 H 0.12254 0.96464 0.89311 0.0
C8876 C 0.13672 0.94856 0.9197 0.0
C8877 C 0.14011 0.94204 0.9189 0.0
C8878 C 0.13514 0.95271 0.91381 0.0
C8879 C 0.13693 0.95042 0.90701 0.0
C8880 C 0.14017 0.94383 0.90624 0.0
C8881 C 0.14174 0.9397 0.91209 0.0
C8882 C 0.13895 0.95879 0.88904 0.0
C8883 C 0.13245 0.96216 0.88812 0.0
C8884 C 0.14045 0.95519 0.89525 0.0
C8885 C 0.13549 0.95483 0.9007 0.0
C8886 C 0.1291 0.95848 0.89992 0.0
C8887 C 0.1276 0.96211 0.89369 0.0
H8888 H 0.30332 0.88534 0.1749 0.0
H8889 H 0.31939 0.89364 0.1612 0.0
H8890 H 0.29606 0.88256 0.16464 0.0
H8891 H 0.31217 0.89091 0.15104 0.0
H8892 H 0.29515 0.89253 0.13489 0.0
H8893 H 0.30137 0.89517 0.14573 0.0
H8894 H 0.29553 0.87489 0.15406 0.0
H8895 H 0.28923 0.87225 0.14313 0.0
C8896 C 0.30532 0.88653 0.16971 0.0
C8897 C 0.3119 0.8898 0.16889 0.0
C8898 C 0.30116 0.88494 0.16383 0.0
C8899 C 0.30349 0.88661 0.15702 0.0
C8900 C 0.31013 0.88972 0.15621 0.0
C8901 C 0.31428 0.89129 0.16205 0.0
C8902 C 0.29517 0.88863 0.13903 0.0
C8903 C 0.29179 0.88214 0.13811 0.0
C8904 C 0.29875 0.89014 0.14525 0.0
C8905 C 0.29906 0.88519 0.15072 0.0
C8906 C 0.29539 0.87882 0.14995 0.0
C8907 C 0.29178 0.87731 0.1437 0.0
H8908 H 0.18904 0.12869 0.66846 0.0
H8909 H 0.19895 0.10828 0.66843 0.0
H8910 H 0.1961 0.13213 0.65833 0.0
H8911 H 0.20585 0.11164 0.65817 0.0
H8912 H 0.22111 0.12166 0.64268 0.0
H8913 H 0.21526 0.11941 0.65391 0.0
H8914 H 0.19632 0.129 0.64592 0.0
H8915 H 0.2022 0.13138 0.63482 0.0
C8916 C 0.19278 0.12496 0.66634 0.0
C8917 C 0.1934 0.11819 0.66925 0.0
C8918 C 0.19678 0.12691 0.66049 0.0
C8919 C 0.20151 0.12215 0.6574 0.0
C8920 C 0.20229 0.11546 0.66044 0.0
C8921 C 0.19828 0.1135 0.66628 0.0
C8922 C 0.21574 0.12339 0.64338 0.0
C8923 C 0.21211 0.12666 0.63785 0.0
C8924 C 0.21237 0.12204 0.64978 0.0
C8925 C 0.20531 0.124 0.65081 0.0
C8926 C 0.20177 0.12748 0.64535 0.0
C8927 C 0.20512 0.12878 0.63895 0.0
H8928 H 0.09966 0.18259 0.40408 0.0
H8929 H 0.08165 0.19176 0.3938 0.0
H8930 H 0.10725 0.19121 0.39857 0.0
H8931 H 0.08929 0.20059 0.38835 0.0
H8932 H 0.10725 0.21011 0.37431 0.0
H8933 H 0.09853 0.20233 0.37974 0.0
H8934 H 0.11004 0.20328 0.3993 0.0
H8935 H 0.1188 0.21077 0.39377 0.0
C8936 C 0.09731 0.18653 0.4007 0.0
C8937 C 0.09004 0.18656 0.39945 0.0
C8938 C 0.10166 0.1915 0.39755 0.0
C8939 C 0.09888 0.1967 0.3931 0.0
C8940 C 0.09161 0.19666 0.39173 0.0
C8941 C 0.08724 0.19161 0.39485 0.0
C8942 C 0.10782 0.20871 0.3798 0.0
C8943 C 0.11371 0.21095 0.38362 0.0
C8944 C 0.10283 0.20427 0.38292 0.0
C8945 C 0.10365 0.20205 0.38993 0.0
C8946 C 0.10934 0.20469 0.39384 0.0
C8947 C 0.11434 0.20903 0.3907 0.0
H8948 H 0.0711 0.84832 0.65587 0.0
H8949 H 0.0651 0.83112 0.64237 0.0
H8950 H 0.0624 0.85578 0.65032 0.0
H8951 H 0.0562 0.8386 0.63684 0.0
H8952 H 0.04731 0.85742 0.62359 0.0
H8953 H 0.05488 0.84863 0.62919 0.0
H8954 H 0.05017 0.85766 0.64949 0.0
H8955 H 0.0429 0.86656 0.64382 0.0
C8956 C 0.06783 0.84609 0.65178 0.0
C8957 C 0.06875 0.8391 0.64961 0.0
C8958 C 0.0628 0.85037 0.6486 0.0
C8959 C 0.0585 0.84778 0.64318 0.0
C8960 C 0.05944 0.84078 0.64097 0.0
C8961 C 0.06453 0.83649 0.64414 0.0
C8962 C 0.04782 0.8574 0.62926 0.0
C8963 C 0.04456 0.86263 0.6333 0.0
C8964 C 0.05214 0.85237 0.63248 0.0
C8965 C 0.05323 0.85249 0.6398 0.0
C8966 C 0.0496 0.85751 0.64384 0.0
C8967 C 0.04537 0.86256 0.64061 0.0
H8968 H 0.42344 0.8146 0.89498 0.0
H8969 H 0.40511 0.82775 0.89727 0.0
H8970 H 0.41643 0.80605 0.88834 0.0
H8971 H 0.39814 0.81923 0.89082 0.0
H8972 H 0.3882 0.80607 0.87434 0.0
H8973 H 0.39672 0.81438 0.87905 0.0
H8974 H 0.40662 0.79763 0.89072 0.0
H8975 H 0.39808 0.78928 0.88596 0.0
C8976 C 0.41794 0.81568 0.89402 0.0
C8977 C 0.41481 0.82182 0.89669 0.0
C8978 C 0.41392 0.81077 0.89027 0.0
C8979 C 0.40673 0.81196 0.88904 0.0
C8980 C 0.40368 0.81818 0.89159 0.0
C8981 C 0.40766 0.82304 0.89536 0.0
C8982 C 0.39224 0.80414 0.87786 0.0
C8983 C 0.3924 0.79704 0.87986 0.0
C8984 C 0.39711 0.8089 0.88057 0.0
C8985 C 0.40228 0.80669 0.88536 0.0
C8986 C 0.40273 0.7995 0.88702 0.0
C8987 C 0.39783 0.79472 0.8843 0.0
H8988 H 0.44467 0.16768 0.15609 0.0
H8989 H 0.43149 0.16842 0.13764 0.0
H8990 H 0.45296 0.16018 0.14988 0.0
H8991 H 0.43994 0.16118 0.13132 0.0
H8992 H 0.45025 0.13956 0.12722 0.0
H8993 H 0.44302 0.14898 0.1319 0.0
H8994 H 0.46151 0.15888 0.14058 0.0
H8995 H 0.46874 0.14925 0.13607 0.0
C8996 C 0.44359 0.16633 0.15068 0.0
C8997 C 0.43735 0.16858 0.14741 0.0
C8998 C 0.44839 0.16209 0.14708 0.0
C8999 C 0.44709 0.16001 0.14011 0.0
C9000 C 0.44105 0.16259 0.13672 0.0
C9001 C 0.43624 0.16681 0.14032 0.0
C9002 C 0.45278 0.14376 0.1301 0.0
C9003 C 0.46006 0.1436 0.13136 0.0
C9004 C 0.44865 0.14922 0.13271 0.0
C9005 C 0.45167 0.15469 0.13665 0.0
C9006 C 0.459 0.1547 0.13764 0.0
C9007 C 0.46315 0.14922 0.13501 0.0
H9008 H 0.0988 0.82888 0.11263 0.0
H9009 H 0.08186 0.81403 0.11006 0.0
H9010 H 0.10557 0.82013 0.11894 0.0
H9011 H 0.08858 0.80526 0.11667 0.0
H9012 H 0.1077 0.7897 0.11969 0.0
H9013 H 0.09904 0.79798 0.11502 0.0
H9014 H 0.10628 0.81372 0.1297 0.0
H9015 H 0.11501 0.8055 0.13419 0.0
C9016 C 0.0965 0.82375 0.11346 0.0
C9017 C 0.08982 0.82213 0.11077 0.0
C9018 C 0.10035 0.81874 0.11717 0.0
C9019 C 0.09762 0.81198 0.11835 0.0
C9020 C 0.09086 0.8104 0.11581 0.0
C9021 C 0.08698 0.81544 0.11209 0.0
C9022 C 0.10731 0.79488 0.12201 0.0
C9023 C 0.11207 0.797 0.12723 0.0
C9024 C 0.10236 0.79963 0.11934 0.0
C9025 C 0.10205 0.80657 0.12189 0.0
C9026 C 0.10649 0.80848 0.12748 0.0
C9027 C 0.11146 0.80377 0.13008 0.0
H9028 H 0.44165 0.83255 0.36019 0.0
H9029 H 0.42714 0.84992 0.36159 0.0
H9030 H 0.45037 0.83934 0.36681 0.0
H9031 H 0.43583 0.85674 0.36794 0.0
H9032 H 0.45021 0.86637 0.38333 0.0
H9033 H 0.44193 0.85767 0.3789 0.0
H9034 H 0.45789 0.84963 0.36491 0.0
H9035 H 0.46623 0.85827 0.3695 0.0
C9036 C 0.4403 0.83779 0.36196 0.0
C9037 C 0.43373 0.84072 0.36031 0.0
C9038 C 0.44531 0.8417 0.3657 0.0
C9039 C 0.44381 0.84859 0.36791 0.0
C9040 C 0.43715 0.85142 0.36641 0.0
C9041 C 0.43219 0.84754 0.36268 0.0
C9042 C 0.45197 0.86267 0.37939 0.0
C9043 C 0.45883 0.86305 0.3767 0.0
C9044 C 0.44723 0.8577 0.37682 0.0
C9045 C 0.4492 0.85303 0.37145 0.0
C9046 C 0.4562 0.85312 0.36907 0.0
C9047 C 0.46098 0.85807 0.37169 0.0
H9048 H 0.40592 0.17663 0.61095 0.0
H9049 H 0.4233 0.19114 0.60975 0.0
H9050 H 0.39908 0.18528 0.61733 0.0
H9051 H 0.41649 0.19981 0.61639 0.0
H9052 H 0.39759 0.21567 0.61926 0.0
H9053 H 0.40619 0.20737 0.61453 0.0
H9054 H 0.39818 0.19127 0.62838 0.0
H9055 H 0.38954 0.19952 0.63297 0.0
C9056 C 0.4083 0.18167 0.61209 0.0
C9057 C 0.41513 0.18322 0.60978 0.0
C9058 C 0.4044 0.18661 0.61584 0.0
C9059 C 0.40723 0.19325 0.6174 0.0
C9060 C 0.41414 0.19477 0.61523 0.0
C9061 C 0.41806 0.18978 0.61148 0.0
C9062 C 0.39779 0.2104 0.62138 0.0
C9063 C 0.39284 0.20821 0.6264 0.0
C9064 C 0.40271 0.20564 0.61868 0.0
C9065 C 0.4028 0.19861 0.62099 0.0
C9066 C 0.39815 0.19659 0.62636 0.0
C9067 C 0.39322 0.20132 0.62901 0.0
H9068 H 0.0728 0.16813 0.86621 0.0
H9069 H 0.06107 0.16718 0.8468 0.0
H9070 H 0.06396 0.16078 0.87189 0.0
H9071 H 0.05232 0.15974 0.85246 0.0
H9072 H 0.04638 0.13794 0.86204 0.0
H9073 H 0.05322 0.14734 0.85667 0.0
H9074 H 0.05119 0.15967 0.8756 0.0
H9075 H 0.0443 0.15017 0.88099 0.0
C9076 C 0.06826 0.16649 0.86319 0.0
C9077 C 0.06771 0.16817 0.85601 0.0
C9078 C 0.0632 0.16227 0.86645 0.0
C9079 C 0.05749 0.15961 0.8626 0.0
C9080 C 0.05673 0.16161 0.85553 0.0
C9081 C 0.06176 0.16586 0.85229 0.0
C9082 C 0.04733 0.1427 0.86501 0.0
C9083 C 0.04485 0.14333 0.87193 0.0
C9084 C 0.0512 0.1481 0.86193 0.0
C9085 C 0.05275 0.15425 0.86571 0.0
C9086 C 0.05011 0.15497 0.87258 0.0
C9087 C 0.04613 0.14958 0.87564 0.0
H9088 H 0.40766 0.08762 0.19431 0.0
H9089 H 0.38834 0.08761 0.18239 0.0
H9090 H 0.40218 0.09506 0.20318 0.0
H9091 H 0.38284 0.09496 0.19136 0.0
H9092 H 0.374 0.10546 0.21125 0.0
H9093 H 0.37908 0.09593 0.20418 0.0
H9094 H 0.39843 0.10763 0.20242 0.0
H9095 H 0.39336 0.11709 0.20942 0.0
C9096 C 0.40223 0.08915 0.19361 0.0
C9097 C 0.39848 0.08711 0.18757 0.0
C9098 C 0.39909 0.09339 0.1987 0.0
C9099 C 0.39211 0.09565 0.19793 0.0
C9100 C 0.38821 0.09326 0.19213 0.0
C9101 C 0.39137 0.08904 0.18699 0.0
C9102 C 0.37937 0.10591 0.20943 0.0
C9103 C 0.38329 0.112 0.21084 0.0
C9104 C 0.38226 0.10049 0.20536 0.0
C9105 C 0.38915 0.10103 0.20275 0.0
C9106 C 0.39314 0.10702 0.20442 0.0
C9107 C 0.39023 0.11245 0.20838 0.0
H9108 H 0.16575 0.15663 0.44327 0.0
H9109 H 0.16907 0.13766 0.43127 0.0
H9110 H 0.15847 0.15015 0.45153 0.0
H9111 H 0.16206 0.13109 0.43974 0.0
H9112 H 0.14053 0.12524 0.44943 0.0
H9113 H 0.14978 0.13041 0.44232 0.0
H9114 H 0.15769 0.14136 0.46057 0.0
H9115 H 0.1482 0.13638 0.46764 0.0
C9116 C 0.165 0.15106 0.44244 0.0
C9117 C 0.16791 0.1477 0.43654 0.0
C9118 C 0.1609 0.14731 0.44724 0.0
C9119 C 0.15962 0.1401 0.44628 0.0
C9120 C 0.16284 0.13666 0.44058 0.0
C9121 C 0.16693 0.14042 0.43576 0.0
C9122 C 0.14426 0.12873 0.45194 0.0
C9123 C 0.14356 0.13047 0.45908 0.0
C9124 C 0.14963 0.13163 0.44788 0.0
C9125 C 0.15448 0.13635 0.45085 0.0
C9126 C 0.15399 0.13782 0.45808 0.0
C9127 C 0.1486 0.13491 0.46215 0.0
H9128 H 0.11847 0.91886 0.68066 0.0
H9129 H 0.09972 0.9167 0.69325 0.0
H9130 H 0.12492 0.91166 0.68905 0.0
H9131 H 0.10607 0.90922 0.70144 0.0
H9132 H 0.1198 0.89861 0.71736 0.0
H9133 H 0.11503 0.90815 0.71023 0.0
H9134 H 0.12512 0.89942 0.69187 0.0
H9135 H 0.13011 0.89011 0.69903 0.0
C9136 C 0.11574 0.91694 0.68526 0.0
C9137 C 0.10855 0.9183 0.68623 0.0
C9138 C 0.11942 0.91273 0.69004 0.0
C9139 C 0.116 0.90977 0.69589 0.0
C9140 C 0.1089 0.91143 0.69703 0.0
C9141 C 0.10523 0.91565 0.69227 0.0
C9142 C 0.12113 0.89883 0.71183 0.0
C9143 C 0.12528 0.89355 0.70875 0.0
C9144 C 0.11833 0.90425 0.70772 0.0
C9145 C 0.11963 0.90454 0.70045 0.0
C9146 C 0.12404 0.89943 0.69745 0.0
C9147 C 0.12684 0.89403 0.70155 0.0
H9148 H 0.34958 0.86357 0.9258 0.0
H9149 H 0.33252 0.86078 0.94048 0.0
H9150 H 0.35626 0.8698 0.93468 0.0
H9151 H 0.33913 0.86733 0.94936 0.0
H9152 H 0.35791 0.87001 0.96523 0.0
H9153 H 0.34937 0.86556 0.95672 0.0
H9154 H 0.35713 0.88032 0.94131 0.0
H9155 H 0.36577 0.88457 0.94975 0.0
C9156 C 0.34723 0.86435 0.93092 0.0
C9157 C 0.34055 0.8616 0.93245 0.0
C9158 C 0.35102 0.86801 0.936 0.0
C9159 C 0.34824 0.86909 0.94276 0.0
C9160 C 0.34146 0.86654 0.94424 0.0
C9161 C 0.33764 0.86285 0.93913 0.0
C9162 C 0.35767 0.87239 0.96007 0.0
C9163 C 0.36254 0.87756 0.95811 0.0
C9164 C 0.35277 0.86986 0.95519 0.0
C9165 C 0.35263 0.8725 0.94828 0.0
C9166 C 0.3572 0.87803 0.94652 0.0
C9167 C 0.36213 0.8805 0.95136 0.0
H9168 H 0.38782 0.91929 0.32418 0.0
H9169 H 0.40668 0.91605 0.312 0.0
H9170 H 0.38116 0.91239 0.3157 0.0
H9171 H 0.4001 0.90888 0.30371 0.0
H9172 H 0.38616 0.89879 0.28762 0.0
H9173 H 0.39122 0.90821 0.29474 0.0
H9174 H 0.38045 0.90013 0.31301 0.0
H9175 H 0.3752 0.89094 0.30586 0.0
C9176 C 0.39053 0.9172 0.31965 0.0
C9177 C 0.39781 0.91817 0.31882 0.0
C9178 C 0.38673 0.91316 0.31482 0.0
C9179 C 0.3901 0.90999 0.30906 0.0
C9180 C 0.39731 0.91127 0.30805 0.0
C9181 C 0.4011 0.91531 0.31286 0.0
C9182 C 0.38475 0.89914 0.29312 0.0
C9183 C 0.38034 0.89407 0.29619 0.0
C9184 C 0.38771 0.90449 0.29722 0.0
C9185 C 0.3863 0.9049 0.30447 0.0
C9186 C 0.38161 0.90003 0.30744 0.0
C9187 C 0.37867 0.8947 0.30336 0.0
H9188 H 0.33917 0.15922 0.56198 0.0
H9189 H 0.338 0.13973 0.57356 0.0
H9190 H 0.34665 0.15358 0.55326 0.0
H9191 H 0.34539 0.13407 0.56474 0.0
H9192 H 0.35576 0.12512 0.54476 0.0
H9193 H 0.34646 0.13046 0.55193 0.0
H9194 H 0.35899 0.14924 0.5541 0.0
H9195 H 0.36821 0.14393 0.54697 0.0
C9196 C 0.34046 0.15372 0.56265 0.0
C9197 C 0.33807 0.14996 0.56854 0.0
C9198 C 0.34473 0.15048 0.55763 0.0
C9199 C 0.34667 0.1434 0.55835 0.0
C9200 C 0.34395 0.13952 0.56402 0.0
C9201 C 0.3397 0.14277 0.56907 0.0
C9202 C 0.35645 0.13042 0.5467 0.0
C9203 C 0.3627 0.13411 0.54535 0.0
C9204 C 0.35117 0.13345 0.55084 0.0
C9205 C 0.35199 0.14027 0.55358 0.0
C9206 C 0.35816 0.14401 0.55201 0.0
C9207 C 0.36346 0.14096 0.54798 0.0
H9208 H 0.1172 0.08748 0.82376 0.0
H9209 H 0.09797 0.08756 0.81171 0.0
H9210 H 0.12272 0.09499 0.81494 0.0
H9211 H 0.10346 0.09518 0.803 0.0
H9212 H 0.11228 0.11725 0.79695 0.0
H9213 H 0.10723 0.10781 0.80399 0.0
H9214 H 0.1265 0.096 0.80205 0.0
H9215 H 0.13156 0.10551 0.79493 0.0
C9216 C 0.11419 0.08896 0.81917 0.0
C9217 C 0.1071 0.08699 0.81851 0.0
C9218 C 0.11736 0.09328 0.81412 0.0
C9219 C 0.11349 0.09574 0.80833 0.0
C9220 C 0.10653 0.09346 0.80747 0.0
C9221 C 0.10338 0.08911 0.81248 0.0
C9222 C 0.11541 0.1126 0.79797 0.0
C9223 C 0.12231 0.11211 0.79542 0.0
C9224 C 0.11251 0.10718 0.80196 0.0
C9225 C 0.11647 0.10116 0.80357 0.0
C9226 C 0.12334 0.1006 0.80091 0.0
C9227 C 0.12621 0.106 0.79681 0.0
H9228 H 0.1557 0.86147 0.07951 0.0
H9229 H 0.17294 0.8602 0.06483 0.0
H9230 H 0.1488 0.86785 0.07091 0.0
H9231 H 0.16606 0.86686 0.05622 0.0
H9232 H 0.14707 0.86973 0.0405 0.0
H9233 H 0.15575 0.86505 0.04874 0.0
H9234 H 0.14776 0.87883 0.06491 0.0
H9235 H 0.13902 0.88335 0.05672 0.0
C9236 C 0.15804 0.86261 0.07444 0.0
C9237 C 0.16485 0.86026 0.07283 0.0
C9238 C 0.15411 0.86635 0.06953 0.0
C9239 C 0.15687 0.8679 0.06286 0.0
C9240 C 0.16376 0.86571 0.06129 0.0
C9241 C 0.16772 0.86196 0.06624 0.0
C9242 C 0.14729 0.87185 0.04577 0.0
C9243 C 0.14232 0.87683 0.048 0.0
C9244 C 0.15226 0.86918 0.0505 0.0
C9245 C 0.15238 0.87148 0.05753 0.0
C9246 C 0.14771 0.87681 0.05959 0.0
C9247 C 0.14272 0.87943 0.05489 0.0
H9248 H 0.1914 0.39686 0.08196 0.0
H9249 H 0.17669 0.39411 0.09899 0.0
H9250 H 0.20026 0.39028 0.08859 0.0
H9251 H 0.18552 0.3878 0.10567 0.0
H9252 H 0.20031 0.37259 0.1149 0.0
H9253 H 0.19201 0.37707 0.10624 0.0
H9254 H 0.20758 0.39193 0.09904 0.0
H9255 H 0.21595 0.38727 0.10762 0.0
C9256 C 0.19004 0.3948 0.08708 0.0
C9257 C 0.18336 0.39605 0.08997 0.0
C9258 C 0.19513 0.39108 0.09091 0.0
C9259 C 0.19361 0.3885 0.09767 0.0
C9260 C 0.18686 0.38961 0.10044 0.0
C9261 C 0.18181 0.39332 0.09665 0.0
C9262 C 0.20199 0.37673 0.11138 0.0
C9263 C 0.20874 0.37964 0.11197 0.0
C9264 C 0.19723 0.37933 0.10644 0.0
C9265 C 0.19907 0.38496 0.10203 0.0
C9266 C 0.20599 0.38757 0.10232 0.0
C9267 C 0.21079 0.38491 0.10724 0.0
H9268 H 0.6908 0.11012 0.92376 0.0
H9269 H 0.67612 0.1118 0.90656 0.0
H9270 H 0.69951 0.11671 0.91693 0.0
H9271 H 0.6848 0.1181 0.8997 0.0
H9272 H 0.69925 0.13335 0.88995 0.0
H9273 H 0.69101 0.12896 0.8987 0.0
H9274 H 0.70692 0.11483 0.9066 0.0
H9275 H 0.71523 0.11939 0.89791 0.0
C9276 C 0.68941 0.11195 0.91856 0.0
C9277 C 0.68279 0.11039 0.91568 0.0
C9278 C 0.69441 0.11567 0.91462 0.0
C9279 C 0.69286 0.11794 0.90775 0.0
C9280 C 0.68616 0.11654 0.90499 0.0
C9281 C 0.6812 0.11283 0.9089 0.0
C9282 C 0.70101 0.12938 0.89363 0.0
C9283 C 0.70785 0.12665 0.8932 0.0
C9284 C 0.69628 0.12684 0.89862 0.0
C9285 C 0.69825 0.12144 0.90327 0.0
C9286 C 0.70523 0.11901 0.90313 0.0
C9287 C 0.71 0.12161 0.89815 0.0
H9288 H 0.14426 0.42693 0.15635 0.0
H9289 H 0.14586 0.4415 0.17365 0.0
H9290 H 0.13801 0.43567 0.1495 0.0
H9291 H 0.13933 0.45026 0.16684 0.0
H9292 H 0.13666 0.46614 0.14795 0.0
H9293 H 0.14123 0.45776 0.15657 0.0
H9294 H 0.12716 0.44187 0.14851 0.0
H9295 H 0.12276 0.45019 0.13982 0.0
C9296 C 0.14323 0.432 0.15871 0.0
C9297 C 0.14563 0.43354 0.16552 0.0
C9298 C 0.13955 0.437 0.15481 0.0
C9299 C 0.13814 0.44368 0.15761 0.0
C9300 C 0.14038 0.44518 0.1645 0.0
C9301 C 0.14406 0.44014 0.16843 0.0
C9302 C 0.13446 0.46089 0.14814 0.0
C9303 C 0.12943 0.45878 0.14316 0.0
C9304 C 0.13706 0.45609 0.15308 0.0
C9305 C 0.13465 0.4491 0.15316 0.0
C9306 C 0.12927 0.44716 0.14848 0.0
C9307 C 0.12672 0.45192 0.14353 0.0
H9308 H 0.82487 0.88747 0.41872 0.0
H9309 H 0.81167 0.90591 0.418 0.0
H9310 H 0.81625 0.88104 0.41176 0.0
H9311 H 0.80323 0.8996 0.41077 0.0
H9312 H 0.78723 0.88591 0.40022 0.0
H9313 H 0.79464 0.89034 0.40974 0.0
H9314 H 0.81288 0.8814 0.39964 0.0
H9315 H 0.80547 0.87678 0.39032 0.0
C9316 C 0.82008 0.89013 0.41718 0.0
C9317 C 0.81901 0.89724 0.41886 0.0
C9318 C 0.81517 0.88646 0.41311 0.0
C9319 C 0.80908 0.88982 0.41062 0.0
C9320 C 0.80783 0.89682 0.41262 0.0
C9321 C 0.81273 0.90047 0.4167 0.0
C9322 C 0.7928 0.88476 0.40014 0.0
C9323 C 0.79578 0.88107 0.39448 0.0
C9324 C 0.79706 0.88735 0.40555 0.0
C9325 C 0.80438 0.88629 0.40544 0.0
C9326 C 0.80728 0.88228 0.39996 0.0
C9327 C 0.80303 0.87969 0.39456 0.0
H9328 H 0.86042 0.06393 0.17425 0.0
H9329 H 0.86305 0.07889 0.15741 0.0
H9330 H 0.86709 0.05521 0.1675 0.0
H9331 H 0.86944 0.07021 0.15063 0.0
H9332 H 0.88473 0.0557 0.14116 0.0
H9333 H 0.88022 0.06382 0.14997 0.0
H9334 H 0.86548 0.04802 0.15694 0.0
H9335 H 0.87018 0.03983 0.14821 0.0
C9336 C 0.86248 0.06538 0.16914 0.0
C9337 C 0.86116 0.07208 0.16634 0.0
C9338 C 0.86624 0.06037 0.16526 0.0
C9339 C 0.86881 0.062 0.15852 0.0
C9340 C 0.86764 0.06878 0.15583 0.0
C9341 C 0.86389 0.07374 0.15968 0.0
C9342 C 0.88061 0.05393 0.14466 0.0
C9343 C 0.87774 0.04718 0.14396 0.0
C9344 C 0.87799 0.05859 0.14969 0.0
C9345 C 0.87238 0.05663 0.15408 0.0
C9346 C 0.86982 0.0497 0.15367 0.0
C9347 C 0.8725 0.04501 0.14867 0.0
H9348 H 0.31487 0.61159 0.58246 0.0
H9349 H 0.32967 0.61454 0.59939 0.0
H9350 H 0.30597 0.61802 0.58916 0.0
H9351 H 0.32078 0.62064 0.60616 0.0
H9352 H 0.3057 0.63524 0.61584 0.0
H9353 H 0.31408 0.63108 0.6071 0.0
H9354 H 0.2987 0.61624 0.59945 0.0
H9355 H 0.29024 0.62061 0.60809 0.0
C9356 C 0.31624 0.61367 0.58757 0.0
C9357 C 0.32296 0.6125 0.59042 0.0
C9358 C 0.31112 0.61729 0.59144 0.0
C9359 C 0.31263 0.61985 0.59821 0.0
C9360 C 0.31943 0.61885 0.60093 0.0
C9361 C 0.32452 0.61525 0.59709 0.0
C9362 C 0.30409 0.63118 0.6122 0.0
C9363 C 0.29736 0.6282 0.61267 0.0
C9364 C 0.30889 0.62876 0.60722 0.0
C9365 C 0.30713 0.62322 0.60265 0.0
C9366 C 0.30023 0.62053 0.60285 0.0
C9367 C 0.29539 0.62302 0.6078 0.0
H9368 H 0.15588 0.5627 0.33924 0.0
H9369 H 0.13718 0.57537 0.33718 0.0
H9370 H 0.14949 0.55441 0.34655 0.0
H9371 H 0.13067 0.56688 0.34421 0.0
H9372 H 0.1253 0.55654 0.36554 0.0
H9373 H 0.13034 0.56384 0.35637 0.0
H9374 H 0.14054 0.54563 0.34746 0.0
H9375 H 0.13574 0.53836 0.35687 0.0
C9376 C 0.15038 0.56367 0.34027 0.0
C9377 C 0.14708 0.56977 0.3377 0.0
C9378 C 0.14667 0.55886 0.3444 0.0
C9379 C 0.13956 0.55999 0.34604 0.0
C9380 C 0.13617 0.5659 0.34316 0.0
C9381 C 0.13988 0.57073 0.33904 0.0
C9382 C 0.12861 0.55408 0.36162 0.0
C9383 C 0.13019 0.54688 0.36201 0.0
C9384 C 0.13143 0.55826 0.35629 0.0
C9385 C 0.1359 0.55535 0.35118 0.0
C9386 C 0.13721 0.54807 0.35137 0.0
C9387 C 0.13439 0.54388 0.35672 0.0
H9388 H 0.34987 0.4341 0.84844 0.0
H9389 H 0.36251 0.44099 0.83093 0.0
H9390 H 0.35505 0.44311 0.8558 0.0
H9391 H 0.36767 0.45021 0.83831 0.0
H9392 H 0.38067 0.46 0.8569 0.0
H9393 H 0.37543 0.45211 0.84818 0.0
H9394 H 0.35504 0.45537 0.85763 0.0
H9395 H 0.36036 0.46297 0.86645 0.0
C9396 C 0.35369 0.43763 0.84613 0.0
C9397 C 0.35572 0.43688 0.83908 0.0
C9398 C 0.35666 0.44283 0.85035 0.0
C9399 C 0.36171 0.44749 0.84764 0.0
C9400 C 0.36381 0.4467 0.84059 0.0
C9401 C 0.36086 0.44143 0.83636 0.0
C9402 C 0.37505 0.45911 0.857 0.0
C9403 C 0.37091 0.46202 0.86235 0.0
C9404 C 0.37204 0.4546 0.85201 0.0
C9405 C 0.36482 0.45298 0.85228 0.0
C9406 C 0.36064 0.45632 0.85738 0.0
C9407 C 0.36366 0.46073 0.86239 0.0
H9408 H 0.91798 0.82355 0.61705 0.0
H9409 H 0.91809 0.80984 0.59898 0.0
H9410 H 0.91052 0.81524 0.6233 0.0
H9411 H 0.91035 0.80171 0.60508 0.0
H9412 H 0.89889 0.78624 0.61867 0.0
H9413 H 0.90865 0.79341 0.61442 0.0
H9414 H 0.89843 0.812 0.62249 0.0
H9415 H 0.88889 0.80482 0.62698 0.0
C9416 C 0.91651 0.81872 0.61444 0.0
C9417 C 0.91858 0.81741 0.60747 0.0
C9418 C 0.91215 0.81399 0.618 0.0
C9419 C 0.90974 0.80784 0.61468 0.0
C9420 C 0.91212 0.80636 0.60784 0.0
C9421 C 0.91649 0.81107 0.60429 0.0
C9422 C 0.89882 0.79183 0.61967 0.0
C9423 C 0.89307 0.79496 0.62309 0.0
C9424 C 0.90437 0.79596 0.61717 0.0
C9425 C 0.90432 0.8033 0.61805 0.0
C9426 C 0.89871 0.80637 0.62176 0.0
C9427 C 0.89318 0.80225 0.62426 0.0
H9428 H 0.93213 0.16902 0.36754 0.0
H9429 H 0.94516 0.16781 0.34901 0.0
H9430 H 0.94047 0.16167 0.37388 0.0
H9431 H 0.95329 0.16016 0.35522 0.0
H9432 H 0.96897 0.149 0.3688 0.0
H9433 H 0.96188 0.15869 0.36426 0.0
H9434 H 0.94339 0.14951 0.37369 0.0
H9435 H 0.9505 0.14006 0.37847 0.0
C9436 C 0.93682 0.16728 0.36484 0.0
C9437 C 0.93792 0.16895 0.35773 0.0
C9438 C 0.94156 0.16298 0.36845 0.0
C9439 C 0.94752 0.16022 0.36504 0.0
C9440 C 0.9488 0.1622 0.35804 0.0
C9441 C 0.94408 0.16652 0.35444 0.0
C9442 C 0.96342 0.14915 0.37003 0.0
C9443 C 0.96029 0.14371 0.37393 0.0
C9444 C 0.95934 0.15466 0.36736 0.0
C9445 C 0.95204 0.15487 0.36855 0.0
C9446 C 0.94899 0.14958 0.37271 0.0
C9447 C 0.95306 0.1441 0.37538 0.0
H9448 H 0.58698 0.19669 0.09596 0.0
H9449 H 0.58682 0.18446 0.11508 0.0
H9450 H 0.59459 0.20533 0.10156 0.0
H9451 H 0.59431 0.19321 0.12072 0.0
H9452 H 0.60501 0.2129 0.12985 0.0
H9453 H 0.59541 0.20601 0.12465 0.0
H9454 H 0.60719 0.20429 0.10535 0.0
H9455 H 0.61672 0.2111 0.11054 0.0
C9456 C 0.58851 0.19587 0.10138 0.0
C9457 C 0.58637 0.18981 0.10503 0.0
C9458 C 0.59285 0.20084 0.10459 0.0
C9459 C 0.5951 0.19991 0.11155 0.0
C9460 C 0.59262 0.19409 0.11536 0.0
C9461 C 0.58831 0.18908 0.11212 0.0
C9462 C 0.60546 0.21113 0.12447 0.0
C9463 C 0.61159 0.21249 0.1206 0.0
C9464 C 0.60001 0.20716 0.12151 0.0
C9465 C 0.60055 0.20461 0.11459 0.0
C9466 C 0.60658 0.20623 0.11066 0.0
C9467 C 0.61205 0.21009 0.11364 0.0
H9468 H 0.57758 0.84789 0.86021 0.0
H9469 H 0.56247 0.8312 0.85745 0.0
H9470 H 0.56893 0.85473 0.86659 0.0
H9471 H 0.55379 0.838 0.86411 0.0
H9472 H 0.53858 0.85742 0.86722 0.0
H9473 H 0.54672 0.84864 0.8625 0.0
H9474 H 0.5625 0.85538 0.87736 0.0
H9475 H 0.55444 0.86423 0.88189 0.0
C9476 C 0.57241 0.84566 0.86102 0.0
C9477 C 0.57069 0.83903 0.85826 0.0
C9478 C 0.56746 0.84954 0.86477 0.0
C9479 C 0.56065 0.84691 0.8659 0.0
C9480 C 0.55897 0.8402 0.86329 0.0
C9481 C 0.56396 0.83628 0.85953 0.0
C9482 C 0.54374 0.8569 0.86956 0.0
C9483 C 0.54593 0.86155 0.87484 0.0
C9484 C 0.5484 0.85187 0.86687 0.0
C9485 C 0.55531 0.85139 0.86947 0.0
C9486 C 0.55729 0.85572 0.87511 0.0
C9487 C 0.55266 0.86077 0.87774 0.0
H9488 H 0.92012 0.19686 0.90972 0.0
H9489 H 0.918 0.18363 0.89139 0.0
H9490 H 0.91227 0.20547 0.9044 0.0
H9491 H 0.91028 0.19235 0.88602 0.0
H9492 H 0.89952 0.21199 0.87683 0.0
H9493 H 0.90929 0.20497 0.8815 0.0
H9494 H 0.89932 0.20472 0.90186 0.0
H9495 H 0.88961 0.21167 0.89721 0.0
C9496 C 0.91804 0.19581 0.90453 0.0
C9497 C 0.91961 0.18948 0.90104 0.0
C9498 C 0.91356 0.20076 0.90148 0.0
C9499 C 0.91061 0.19955 0.89482 0.0
C9500 C 0.91252 0.19345 0.89113 0.0
C9501 C 0.91696 0.18846 0.89422 0.0
C9502 C 0.8995 0.21051 0.88232 0.0
C9503 C 0.89381 0.21233 0.88666 0.0
C9504 C 0.90505 0.20646 0.88498 0.0
C9505 C 0.90507 0.2043 0.89205 0.0
C9506 C 0.8995 0.20637 0.89642 0.0
C9507 C 0.89392 0.2103 0.89375 0.0
H9508 H 0.56847 0.15901 0.65832 0.0
H9509 H 0.56415 0.17526 0.64309 0.0
H9510 H 0.55973 0.15152 0.65287 0.0
H9511 H 0.55526 0.16774 0.63763 0.0
H9512 H 0.54673 0.14816 0.62527 0.0
H9513 H 0.55423 0.15709 0.63073 0.0
H9514 H 0.54744 0.15008 0.65125 0.0
H9515 H 0.5402 0.14104 0.64573 0.0
C9516 C 0.56555 0.16104 0.65387 0.0
C9517 C 0.56697 0.16777 0.65118 0.0
C9518 C 0.56052 0.15674 0.65074 0.0
C9519 C 0.55672 0.15904 0.64484 0.0
C9520 C 0.55812 0.16578 0.64214 0.0
C9521 C 0.56321 0.17009 0.64527 0.0
C9522 C 0.54677 0.14867 0.63093 0.0
C9523 C 0.54292 0.14397 0.6351 0.0
C9524 C 0.55104 0.15377 0.63408 0.0
C9525 C 0.55152 0.15426 0.64144 0.0
C9526 C 0.54733 0.14977 0.64557 0.0
C9527 C 0.54313 0.14464 0.64243 0.0
H9528 H 0.58826 0.80982 0.40731 0.0
H9529 H 0.58615 0.82252 0.38862 0.0
H9530 H 0.59588 0.80176 0.40098 0.0
H9531 H 0.59346 0.81423 0.38217 0.0
H9532 H 0.61521 0.80477 0.37714 0.0
H9533 H 0.60567 0.81166 0.38204 0.0
H9534 H 0.59736 0.79305 0.39205 0.0
H9535 H 0.60716 0.7862 0.38738 0.0
C9536 C 0.58934 0.81084 0.40182 0.0
C9537 C 0.58667 0.8169 0.39852 0.0
C9538 C 0.59364 0.80615 0.39815 0.0
C9539 C 0.59536 0.80737 0.39107 0.0
C9540 C 0.59236 0.8132 0.38766 0.0
C9541 C 0.58808 0.81791 0.39133 0.0
C9542 C 0.61134 0.80214 0.38037 0.0
C9543 C 0.61202 0.79495 0.38195 0.0
C9544 C 0.6058 0.80608 0.38311 0.0
C9545 C 0.60074 0.80294 0.38748 0.0
C9546 C 0.60122 0.79567 0.38879 0.0
C9547 C 0.60679 0.79172 0.38605 0.0
H9548 H 0.94283 0.83212 0.14747 0.0
H9549 H 0.92813 0.84938 0.14717 0.0
H9550 H 0.95127 0.83924 0.14082 0.0
H9551 H 0.93655 0.85651 0.14077 0.0
H9552 H 0.95024 0.86653 0.12488 0.0
H9553 H 0.9422 0.85773 0.12955 0.0
H9554 H 0.95876 0.8496 0.14277 0.0
H9555 H 0.96685 0.85837 0.13797 0.0
C9556 C 0.94138 0.8374 0.14593 0.0
C9557 C 0.93483 0.84021 0.14788 0.0
C9558 C 0.94623 0.8415 0.14218 0.0
C9559 C 0.94459 0.84845 0.14025 0.0
C9560 C 0.93797 0.85115 0.14207 0.0
C9561 C 0.93316 0.84709 0.14582 0.0
C9562 C 0.95218 0.86281 0.12873 0.0
C9563 C 0.95915 0.86319 0.13113 0.0
C9564 C 0.94757 0.85778 0.13142 0.0
C9565 C 0.9498 0.85304 0.13663 0.0
C9566 C 0.95688 0.85315 0.13874 0.0
C9567 C 0.96152 0.85818 0.136 0.0
H9568 H 0.6169 0.91743 0.82419 0.0
H9569 H 0.59883 0.91806 0.81049 0.0
H9570 H 0.62303 0.91002 0.81575 0.0
H9571 H 0.60481 0.91036 0.80223 0.0
H9572 H 0.61834 0.89911 0.7865 0.0
H9573 H 0.61412 0.90871 0.79389 0.0
H9574 H 0.62209 0.89802 0.81226 0.0
H9575 H 0.62656 0.88863 0.80486 0.0
C9576 C 0.61426 0.91608 0.81934 0.0
C9577 C 0.60733 0.91829 0.81806 0.0
C9578 C 0.61775 0.91175 0.81453 0.0
C9579 C 0.61439 0.9095 0.80834 0.0
C9580 C 0.60759 0.91201 0.80691 0.0
C9581 C 0.60412 0.91636 0.8117 0.0
C9582 C 0.61932 0.89889 0.7921 0.0
C9583 C 0.62272 0.89306 0.79509 0.0
C9584 C 0.61683 0.90436 0.79635 0.0
C9585 C 0.6177 0.90413 0.80369 0.0
C9586 C 0.62137 0.89843 0.80663 0.0
C9587 C 0.62385 0.89299 0.80239 0.0
H9588 H 0.83668 0.84933 0.55996 0.0
H9589 H 0.8367 0.86749 0.57356 0.0
H9590 H 0.84431 0.85545 0.55175 0.0
H9591 H 0.84404 0.87376 0.56516 0.0
H9592 H 0.86569 0.87743 0.55474 0.0
H9593 H 0.85611 0.87302 0.56193 0.0
H9594 H 0.84599 0.86472 0.54338 0.0
H9595 H 0.85579 0.86889 0.53621 0.0
C9596 C 0.83823 0.85467 0.56116 0.0
C9597 C 0.83616 0.85787 0.56749 0.0
C9598 C 0.84254 0.85823 0.55639 0.0
C9599 C 0.84487 0.86509 0.55781 0.0
C9600 C 0.84246 0.86844 0.56395 0.0
C9601 C 0.83817 0.86487 0.56873 0.0
C9602 C 0.8614 0.87468 0.55218 0.0
C9603 C 0.86156 0.87341 0.54491 0.0
C9604 C 0.85585 0.87223 0.5563 0.0
C9605 C 0.85027 0.86847 0.55325 0.0
C9606 C 0.85025 0.86751 0.54592 0.0
C9607 C 0.85582 0.86996 0.54179 0.0
H9608 H 0.88834 0.08626 0.32361 0.0
H9609 H 0.90704 0.08837 0.31095 0.0
H9610 H 0.88187 0.09344 0.31522 0.0
H9611 H 0.90069 0.09584 0.30277 0.0
H9612 H 0.88705 0.10677 0.28701 0.0
H9613 H 0.89173 0.09709 0.29402 0.0
H9614 H 0.88168 0.10565 0.31248 0.0
H9615 H 0.87677 0.11508 0.30544 0.0
C9616 C 0.89105 0.08816 0.31899 0.0
C9617 C 0.89824 0.0868 0.31801 0.0
C9618 C 0.88736 0.09236 0.31422 0.0
C9619 C 0.89076 0.09532 0.30836 0.0
C9620 C 0.89786 0.09363 0.30719 0.0
C9621 C 0.90154 0.08942 0.31194 0.0
C9622 C 0.88571 0.10648 0.29254 0.0
C9623 C 0.8816 0.11175 0.29568 0.0
C9624 C 0.88846 0.10097 0.29657 0.0
C9625 C 0.88715 0.10061 0.30384 0.0
C9626 C 0.88276 0.1057 0.3069 0.0
C9627 C 0.88001 0.11118 0.30287 0.0
H9628 H 0.67545 0.1443 0.06358 0.0
H9629 H 0.65847 0.15808 0.06956 0.0
H9630 H 0.66783 0.13877 0.0548 0.0
H9631 H 0.65087 0.15253 0.06099 0.0
H9632 H 0.63976 0.14587 0.04174 0.0
H9633 H 0.64877 0.15155 0.04886 0.0
H9634 H 0.65777 0.13123 0.05358 0.0
H9635 H 0.64888 0.12563 0.04614 0.0
C9636 C 0.67009 0.14613 0.06303 0.0
C9637 C 0.66759 0.15168 0.0672 0.0
C9638 C 0.66572 0.14296 0.05801 0.0
C9639 C 0.65874 0.14525 0.0571 0.0
C9640 C 0.65626 0.15075 0.06136 0.0
C9641 C 0.66062 0.15393 0.06631 0.0
C9642 C 0.64377 0.14266 0.04419 0.0
C9643 C 0.64367 0.13534 0.04341 0.0
C9644 C 0.64889 0.14588 0.04833 0.0
C9645 C 0.65394 0.14185 0.05192 0.0
C9646 C 0.65401 0.13452 0.05087 0.0
C9647 C 0.64892 0.1313 0.04663 0.0
H9648 H 0.61707 0.08627 0.68269 0.0
H9649 H 0.59843 0.08836 0.69546 0.0
H9650 H 0.62355 0.09353 0.691 0.0
H9651 H 0.60479 0.09592 0.70354 0.0
H9652 H 0.61846 0.10708 0.71913 0.0
H9653 H 0.61374 0.09734 0.71222 0.0
H9654 H 0.62377 0.10571 0.69366 0.0
H9655 H 0.62873 0.11519 0.7006 0.0
C9656 C 0.61437 0.08818 0.68732 0.0
C9657 C 0.60719 0.08679 0.68835 0.0
C9658 C 0.61807 0.09243 0.69204 0.0
C9659 C 0.61469 0.09541 0.6979 0.0
C9660 C 0.60761 0.0937 0.69912 0.0
C9661 C 0.60392 0.08943 0.69442 0.0
C9662 C 0.61978 0.10674 0.7136 0.0
C9663 C 0.62391 0.11196 0.7104 0.0
C9664 C 0.61701 0.1012 0.70963 0.0
C9665 C 0.6183 0.10076 0.70235 0.0
C9666 C 0.6227 0.10581 0.69924 0.0
C9667 C 0.62547 0.11132 0.70321 0.0
H9668 H 0.66914 0.84625 0.44752 0.0
H9669 H 0.6673 0.86497 0.43481 0.0
H9670 H 0.66149 0.8515 0.45635 0.0
H9671 H 0.65973 0.87024 0.44371 0.0
H9672 H 0.64896 0.87917 0.46333 0.0
H9673 H 0.65872 0.87453 0.45627 0.0
H9674 H 0.64869 0.85418 0.45591 0.0
H9675 H 0.63903 0.8588 0.46292 0.0
C9676 C 0.66716 0.85151 0.44663 0.0
C9677 C 0.66876 0.85514 0.4404 0.0
C9678 C 0.66279 0.85452 0.4517 0.0
C9679 C 0.65995 0.86125 0.45069 0.0
C9680 C 0.66189 0.86507 0.44467 0.0
C9681 C 0.66623 0.86204 0.43957 0.0
C9682 C 0.64893 0.87368 0.46183 0.0
C9683 C 0.64324 0.86934 0.46363 0.0
C9684 C 0.65448 0.87104 0.45776 0.0
C9685 C 0.65447 0.86399 0.45553 0.0
C9686 C 0.6489 0.85961 0.4576 0.0
C9687 C 0.64334 0.86226 0.46157 0.0
H9688 H 0.89656 0.92428 0.19224 0.0
H9689 H 0.90762 0.90656 0.18342 0.0
H9690 H 0.89137 0.91656 0.20116 0.0
H9691 H 0.9024 0.89889 0.19214 0.0
H9692 H 0.89802 0.88758 0.21201 0.0
H9693 H 0.90318 0.89637 0.2043 0.0
H9694 H 0.88315 0.90697 0.20297 0.0
H9695 H 0.87806 0.89823 0.21094 0.0
C9696 C 0.89784 0.91874 0.19219 0.0
C9697 C 0.90258 0.91605 0.1872 0.0
C9698 C 0.89487 0.91432 0.19728 0.0
C9699 C 0.89655 0.90711 0.19746 0.0
C9700 C 0.90114 0.90443 0.19233 0.0
C9701 C 0.90413 0.90884 0.1873 0.0
C9702 C 0.89475 0.89184 0.21012 0.0
C9703 C 0.88763 0.89219 0.212 0.0
C9704 C 0.89768 0.89686 0.20567 0.0
C9705 C 0.89355 0.90231 0.20288 0.0
C9706 C 0.88649 0.90286 0.20503 0.0
C9707 C 0.88357 0.89786 0.20958 0.0
H9708 H 0.848 0.14736 0.92936 0.0
H9709 H 0.8299 0.14545 0.94287 0.0
H9710 H 0.85505 0.14092 0.9378 0.0
H9711 H 0.83699 0.13881 0.95137 0.0
H9712 H 0.8559 0.13694 0.96776 0.0
H9713 H 0.84696 0.14127 0.95956 0.0
H9714 H 0.85657 0.12932 0.94284 0.0
H9715 H 0.86552 0.12513 0.95099 0.0
C9716 C 0.84552 0.14552 0.93413 0.0
C9717 C 0.83841 0.14697 0.93548 0.0
C9718 C 0.84954 0.14175 0.93895 0.0
C9719 C 0.84658 0.13931 0.94526 0.0
C9720 C 0.83943 0.14064 0.94657 0.0
C9721 C 0.83536 0.14439 0.94169 0.0
C9722 C 0.85597 0.13512 0.96237 0.0
C9723 C 0.86145 0.13079 0.95997 0.0
C9724 C 0.85086 0.13758 0.95767 0.0
C9725 C 0.85113 0.13574 0.95052 0.0
C9726 C 0.85631 0.13097 0.94828 0.0
C9727 C 0.86142 0.12855 0.95294 0.0
H9728 H 0.80997 0.59878 0.91784 0.0
H9729 H 0.82264 0.61749 0.91992 0.0
H9730 H 0.80192 0.60507 0.91017 0.0
H9731 H 0.81438 0.6239 0.91255 0.0
H9732 H 0.80497 0.62886 0.89076 0.0
H9733 H 0.81184 0.62399 0.90033 0.0
H9734 H 0.79322 0.614 0.90863 0.0
H9735 H 0.78639 0.61864 0.89881 0.0
C9736 C 0.81099 0.60427 0.91675 0.0
C9737 C 0.81703 0.60759 0.91942 0.0
C9738 C 0.80631 0.60791 0.91241 0.0
C9739 C 0.80752 0.61499 0.91067 0.0
C9740 C 0.81334 0.61842 0.91368 0.0
C9741 C 0.81804 0.61476 0.91798 0.0
C9742 C 0.80233 0.62563 0.89463 0.0
C9743 C 0.79515 0.62405 0.89395 0.0
C9744 C 0.80626 0.62291 0.90019 0.0
C9745 C 0.80311 0.61856 0.90526 0.0
C9746 C 0.79584 0.61725 0.90477 0.0
C9747 C 0.79191 0.61997 0.89918 0.0
H9748 H 0.32275 0.88795 0.08717 0.0
H9749 H 0.30917 0.90613 0.08713 0.0
H9750 H 0.31434 0.88169 0.09451 0.0
H9751 H 0.30094 0.9 0.09476 0.0
H9752 H 0.28536 0.88651 0.10616 0.0
H9753 H 0.29257 0.89071 0.09639 0.0
H9754 H 0.31109 0.88246 0.10659 0.0
H9755 H 0.30388 0.87804 0.11614 0.0
C9756 C 0.31792 0.89058 0.08863 0.0
C9757 C 0.31668 0.89758 0.08662 0.0
C9758 C 0.31314 0.88702 0.09292 0.0
C9759 C 0.307 0.89036 0.09532 0.0
C9760 C 0.30558 0.89723 0.09299 0.0
C9761 C 0.31035 0.90079 0.08868 0.0
C9762 C 0.29095 0.88546 0.10622 0.0
C9763 C 0.29406 0.88201 0.11197 0.0
C9764 C 0.29509 0.88793 0.10066 0.0
C9765 C 0.30243 0.88699 0.10072 0.0
C9766 C 0.30546 0.88323 0.10631 0.0
C9767 C 0.30133 0.88077 0.11185 0.0
H9768 H 0.84692 0.55934 0.83693 0.0
H9769 H 0.86578 0.57195 0.8376 0.0
H9770 H 0.8524 0.55076 0.84471 0.0
H9771 H 0.87129 0.56326 0.84525 0.0
H9772 H 0.8804 0.5437 0.85621 0.0
H9773 H 0.87544 0.55054 0.84644 0.0
H9774 H 0.85566 0.55181 0.85746 0.0
H9775 H 0.86061 0.54506 0.86715 0.0
C9776 C 0.85226 0.56026 0.83868 0.0
C9777 C 0.85586 0.5664 0.83672 0.0
C9778 C 0.8554 0.55532 0.84311 0.0
C9779 C 0.86225 0.55637 0.84564 0.0
C9780 C 0.86602 0.56228 0.84334 0.0
C9781 C 0.86286 0.56726 0.83894 0.0
C9782 C 0.87496 0.54537 0.85646 0.0
C9783 C 0.87088 0.54389 0.86243 0.0
C9784 C 0.87215 0.5493 0.85091 0.0
C9785 C 0.86516 0.5517 0.85118 0.0
C9786 C 0.86103 0.54997 0.85705 0.0
C9787 C 0.86387 0.54615 0.86262 0.0
H9788 H 0.18193 0.11803 0.58664 0.0
H9789 H 0.19509 0.09958 0.58757 0.0
H9790 H 0.19031 0.12437 0.59395 0.0
H9791 H 0.20326 0.10578 0.59518 0.0
H9792 H 0.21896 0.1193 0.60633 0.0
H9793 H 0.21182 0.11483 0.59667 0.0
H9794 H 0.19337 0.12414 0.60605 0.0
H9795 H 0.20055 0.12889 0.61547 0.0
C9796 C 0.18666 0.11535 0.58831 0.0
C9797 C 0.18778 0.10826 0.58657 0.0
C9798 C 0.19143 0.11896 0.59259 0.0
C9799 C 0.19743 0.11557 0.59525 0.0
C9800 C 0.19873 0.10859 0.59321 0.0
C9801 C 0.19399 0.105 0.58891 0.0
C9802 C 0.21341 0.12053 0.60624 0.0
C9803 C 0.21032 0.12439 0.61172 0.0
C9804 C 0.20929 0.11789 0.60074 0.0
C9805 C 0.20199 0.11906 0.60059 0.0
C9806 C 0.19897 0.12318 0.60592 0.0
C9807 C 0.20308 0.12583 0.61139 0.0
H9808 H 0.15637 0.94525 0.83689 0.0
H9809 H 0.13825 0.9316 0.83694 0.0
H9810 H 0.15026 0.95341 0.84459 0.0
H9811 H 0.13199 0.93995 0.84434 0.0
H9812 H 0.12839 0.95026 0.86605 0.0
H9813 H 0.13278 0.94313 0.85643 0.0
H9814 H 0.14099 0.96174 0.84636 0.0
H9815 H 0.13684 0.96886 0.8562 0.0
C9816 C 0.15104 0.94403 0.83846 0.0
C9817 C 0.14785 0.9377 0.83638 0.0
C9818 C 0.14749 0.94877 0.84281 0.0
C9819 C 0.14065 0.94732 0.84516 0.0
C9820 C 0.13731 0.94118 0.84274 0.0
C9821 C 0.14087 0.93643 0.83841 0.0
C9822 C 0.13111 0.95284 0.86177 0.0
C9823 C 0.13236 0.96012 0.86195 0.0
C9824 C 0.13355 0.94876 0.85619 0.0
C9825 C 0.13729 0.95184 0.85061 0.0
C9826 C 0.13823 0.95918 0.85061 0.0
C9827 C 0.13578 0.96327 0.85622 0.0
H9828 H 0.67792 0.39431 0.40774 0.0
H9829 H 0.69309 0.39721 0.42435 0.0
H9830 H 0.68656 0.38793 0.4009 0.0
H9831 H 0.70176 0.39053 0.41756 0.0
H9832 H 0.71694 0.38753 0.39814 0.0
H9833 H 0.7088 0.39212 0.40698 0.0
H9834 H 0.69306 0.37729 0.40009 0.0
H9835 H 0.70111 0.37291 0.39115 0.0
C9836 C 0.6831 0.39353 0.40996 0.0
C9837 C 0.68484 0.39634 0.41656 0.0
C9838 C 0.68804 0.38978 0.40607 0.0
C9839 C 0.69487 0.38869 0.40867 0.0
C9840 C 0.69657 0.39132 0.41537 0.0
C9841 C 0.69159 0.39509 0.41929 0.0
C9842 C 0.71179 0.38517 0.39864 0.0
C9843 C 0.70961 0.37994 0.39392 0.0
C9844 C 0.70713 0.38778 0.40371 0.0
C9845 C 0.70022 0.38516 0.40417 0.0
C9846 C 0.69826 0.37956 0.39977 0.0
C9847 C 0.70288 0.37701 0.39468 0.0
H9848 H 0.84918 0.43396 0.65682 0.0
H9849 H 0.86021 0.44281 0.67453 0.0
H9850 H 0.85466 0.44247 0.64908 0.0
H9851 H 0.86561 0.45156 0.66677 0.0
H9852 H 0.87934 0.46095 0.64859 0.0
H9853 H 0.87395 0.45322 0.65739 0.0
H9854 H 0.85422 0.45447 0.64621 0.0
H9855 H 0.85971 0.46187 0.63735 0.0
C9856 C 0.85272 0.43781 0.65907 0.0
C9857 C 0.85419 0.43777 0.6663 0.0
C9858 C 0.85585 0.44272 0.65464 0.0
C9859 C 0.8605 0.44781 0.6573 0.0
C9860 C 0.86208 0.44771 0.66453 0.0
C9861 C 0.85898 0.44272 0.66898 0.0
C9862 C 0.87383 0.45962 0.64811 0.0
C9863 C 0.86994 0.46192 0.64229 0.0
C9864 C 0.87073 0.45521 0.65314 0.0
C9865 C 0.86367 0.4531 0.65246 0.0
C9866 C 0.85971 0.45579 0.64682 0.0
C9867 C 0.86283 0.46009 0.64177 0.0
H9868 H 0.63862 0.57393 0.16892 0.0
H9869 H 0.65723 0.56104 0.16736 0.0
H9870 H 0.63224 0.56557 0.16163 0.0
H9871 H 0.65096 0.55289 0.15978 0.0
H9872 H 0.63727 0.53711 0.14888 0.0
H9873 H 0.64194 0.54422 0.15847 0.0
H9874 H 0.63225 0.56266 0.14945 0.0
H9875 H 0.62734 0.55551 0.1401 0.0
C9876 C 0.64133 0.56927 0.16711 0.0
C9877 C 0.64847 0.56821 0.16867 0.0
C9878 C 0.63769 0.56451 0.16285 0.0
C9879 C 0.6411 0.55859 0.16002 0.0
C9880 C 0.64814 0.55736 0.16188 0.0
C9881 C 0.65177 0.56209 0.16616 0.0
C9882 C 0.63601 0.54265 0.14904 0.0
C9883 C 0.63199 0.54575 0.14367 0.0
C9884 C 0.63875 0.54675 0.1545 0.0
C9885 C 0.63754 0.55404 0.15472 0.0
C9886 C 0.63326 0.55707 0.14951 0.0
C9887 C 0.63051 0.55298 0.14408 0.0
H9888 H 0.58919 0.69407 0.906 0.0
H9889 H 0.58844 0.68081 0.8876 0.0
H9890 H 0.59651 0.70244 0.89969 0.0
H9891 H 0.59551 0.68934 0.88118 0.0
H9892 H 0.61693 0.70012 0.87685 0.0
H9893 H 0.60767 0.6927 0.88157 0.0
H9894 H 0.59749 0.71099 0.89036 0.0
H9895 H 0.60695 0.7184 0.88582 0.0
C9896 C 0.59051 0.69298 0.90057 0.0
C9897 C 0.5883 0.68671 0.89735 0.0
C9898 C 0.59464 0.69783 0.89692 0.0
C9899 C 0.59665 0.69655 0.88993 0.0
C9900 C 0.59414 0.69045 0.88659 0.0
C9901 C 0.59002 0.68559 0.89025 0.0
C9902 C 0.61269 0.70257 0.87975 0.0
C9903 C 0.61273 0.70984 0.88104 0.0
C9904 C 0.60733 0.69832 0.8824 0.0
C9905 C 0.60184 0.70123 0.88639 0.0
C9906 C 0.60169 0.70856 0.88739 0.0
C9907 C 0.60707 0.71282 0.88473 0.0
H9908 H 0.56368 0.33196 0.14645 0.0
H9909 H 0.57871 0.34873 0.14377 0.0
H9910 H 0.55503 0.33866 0.13965 0.0
H9911 H 0.57009 0.35547 0.13724 0.0
H9912 H 0.55575 0.36475 0.12165 0.0
H9913 H 0.5638 0.35598 0.12636 0.0
H9914 H 0.54787 0.34928 0.14109 0.0
H9915 H 0.53975 0.35798 0.1362 0.0
C9916 C 0.56515 0.33704 0.14436 0.0
C9917 C 0.57186 0.33984 0.1457 0.0
C9918 C 0.56019 0.3409 0.14052 0.0
C9919 C 0.56186 0.34761 0.13788 0.0
C9920 C 0.56864 0.35029 0.13908 0.0
C9921 C 0.57356 0.34646 0.14292 0.0
C9922 C 0.55394 0.36131 0.12581 0.0
C9923 C 0.54716 0.36209 0.12862 0.0
C9924 C 0.55855 0.35631 0.12854 0.0
C9925 C 0.55654 0.35202 0.1342 0.0
C9926 C 0.5496 0.35248 0.13671 0.0
C9927 C 0.54494 0.35746 0.13392 0.0
H9928 H 0.92481 0.31447 0.39496 0.0
H9929 H 0.90733 0.32887 0.39379 0.0
H9930 H 0.91801 0.30573 0.38837 0.0
H9931 H 0.90051 0.32016 0.38748 0.0
H9932 H 0.89045 0.30581 0.37256 0.0
H9933 H 0.8994 0.31405 0.37658 0.0
H9934 H 0.90781 0.29813 0.39041 0.0
H9935 H 0.89894 0.28982 0.38618 0.0
C9936 C 0.91955 0.31579 0.39323 0.0
C9937 C 0.91658 0.32233 0.39495 0.0
C9938 C 0.91564 0.31077 0.38952 0.0
C9939 C 0.90871 0.31223 0.38738 0.0
C9940 C 0.90586 0.31887 0.38893 0.0
C9941 C 0.90974 0.32384 0.39264 0.0
C9942 C 0.89432 0.30404 0.37635 0.0
C9943 C 0.89399 0.29721 0.37912 0.0
C9944 C 0.89941 0.30876 0.37869 0.0
C9945 C 0.90423 0.3068 0.38394 0.0
C9946 C 0.9042 0.29981 0.38635 0.0
C9947 C 0.89913 0.29505 0.38394 0.0
H9948 H 0.93122 0.66981 0.63762 0.0
H9949 H 0.94331 0.66665 0.65655 0.0
H9950 H 0.93971 0.66284 0.63104 0.0
H9951 H 0.9516 0.6594 0.65007 0.0
H9952 H 0.96768 0.6491 0.63632 0.0
H9953 H 0.9606 0.6586 0.64127 0.0
H9954 H 0.94236 0.65059 0.63038 0.0
H9955 H 0.94949 0.64133 0.62524 0.0
C9956 C 0.93574 0.66772 0.64036 0.0
C9957 C 0.93653 0.66873 0.64764 0.0
C9958 C 0.94057 0.66364 0.63661 0.0
C9959 C 0.9463 0.66047 0.64003 0.0
C9960 C 0.94728 0.66179 0.64723 0.0
C9961 C 0.94247 0.66587 0.65098 0.0
C9962 C 0.9622 0.64948 0.63486 0.0
C9963 C 0.95913 0.64441 0.63045 0.0
C9964 C 0.95812 0.65487 0.63776 0.0
C9965 C 0.95088 0.65533 0.63629 0.0
C9966 C 0.94792 0.65046 0.6316 0.0
C9967 C 0.95199 0.64509 0.62871 0.0
H9968 H 0.58686 0.32411 0.61862 0.0
H9969 H 0.58989 0.31175 0.59983 0.0
H9970 H 0.59389 0.31572 0.62526 0.0
H9971 H 0.59718 0.30356 0.60639 0.0
H9972 H 0.60767 0.28771 0.62029 0.0
H9973 H 0.59809 0.29469 0.61534 0.0
H9974 H 0.60616 0.31313 0.62582 0.0
H9975 H 0.6155 0.30612 0.63097 0.0
C9976 C 0.58893 0.31955 0.61592 0.0
C9977 C 0.58787 0.31866 0.60866 0.0
C9978 C 0.59304 0.31478 0.61972 0.0
C9979 C 0.59619 0.309 0.61635 0.0
C9980 C 0.59482 0.30791 0.60918 0.0
C9981 C 0.5907 0.31267 0.60539 0.0
C9982 C 0.60729 0.29322 0.62166 0.0
C9983 C 0.61239 0.29638 0.62596 0.0
C9984 C 0.60184 0.29724 0.61876 0.0
C9985 C 0.60138 0.3045 0.62012 0.0
C9986 C 0.60629 0.30756 0.6247 0.0
C9987 C 0.61172 0.30355 0.62759 0.0
H9988 H 0.94294 0.33889 0.85076 0.0
H9989 H 0.9322 0.33605 0.87055 0.0
H9990 H 0.95166 0.34624 0.85655 0.0
H9991 H 0.94093 0.34343 0.87633 0.0
H9992 H 0.95082 0.36543 0.88038 0.0
H9993 H 0.94342 0.35597 0.87598 0.0
H9994 H 0.96125 0.34702 0.86518 0.0
H9995 H 0.96865 0.35663 0.8695 0.0
C9996 C 0.94252 0.33969 0.85638 0.0
C9997 C 0.93682 0.33692 0.86017 0.0
C9998 C 0.94754 0.34391 0.8597 0.0
C9999 C 0.94697 0.34547 0.8669 0.0
C10000 C 0.94145 0.34243 0.87076 0.0
C10001 C 0.93644 0.33821 0.86744 0.0
C10002 C 0.95317 0.36139 0.87712 0.0
C10003 C 0.96029 0.3618 0.87523 0.0
C10004 C 0.94895 0.35593 0.87465 0.0
C10005 C 0.95173 0.35074 0.8702 0.0
C10006 C 0.95893 0.35098 0.86854 0.0
C10007 C 0.96318 0.35643 0.87106 0.0
H10008 H 0.91701 0.68288 0.11656 0.0
H10009 H 0.91868 0.69537 0.09768 0.0
H10010 H 0.90962 0.69192 0.12186 0.0
H10011 H 0.91121 0.70433 0.10295 0.0
H10012 H 0.88903 0.71141 0.1106 0.0
H10013 H 0.89848 0.70418 0.10587 0.0
H10014 H 0.90886 0.7045 0.12604 0.0
H10015 H 0.89932 0.71177 0.13079 0.0
C10016 C 0.91594 0.68762 0.11359 0.0
C10017 C 0.91837 0.68834 0.10665 0.0
C10018 C 0.91169 0.6928 0.11663 0.0
C10019 C 0.90977 0.6988 0.11279 0.0
C10020 C 0.9125 0.69971 0.106 0.0
C10021 C 0.91677 0.69456 0.10298 0.0
C10022 C 0.89338 0.71 0.114 0.0
C10023 C 0.89344 0.71212 0.12107 0.0
C10024 C 0.89881 0.70591 0.11128 0.0
C10025 C 0.90442 0.70376 0.11559 0.0
C10026 C 0.90459 0.70604 0.12262 0.0
C10027 C 0.89917 0.71023 0.12532 0.0
H10028 H 0.56214 0.66649 0.34984 0.0
H10029 H 0.57487 0.66835 0.36853 0.0
H10030 H 0.55387 0.65912 0.35619 0.0
H10031 H 0.5664 0.66125 0.375 0.0
H10032 H 0.55602 0.63991 0.38021 0.0
H10033 H 0.56334 0.64908 0.37518 0.0
H10034 H 0.5451 0.65818 0.36519 0.0
H10035 H 0.53781 0.64877 0.36999 0.0
C10036 C 0.56313 0.6654 0.35534 0.0
C10037 C 0.56924 0.66794 0.35864 0.0
C10038 C 0.55833 0.66124 0.35901 0.0
C10039 C 0.55948 0.65953 0.36611 0.0
C10040 C 0.5654 0.66237 0.36951 0.0
C10041 C 0.57022 0.66652 0.36582 0.0
C10042 C 0.55356 0.64387 0.37695 0.0
C10043 C 0.54634 0.64354 0.37542 0.0
C10044 C 0.55775 0.6492 0.37413 0.0
C10045 C 0.55483 0.65437 0.36974 0.0
C10046 C 0.54755 0.65423 0.36847 0.0
C10047 C 0.54335 0.64888 0.37128 0.0
H10048 H 0.88887 0.5881 0.68238 0.0
H10049 H 0.90814 0.58842 0.69438 0.0
H10050 H 0.8833 0.59559 0.69118 0.0
H10051 H 0.90259 0.59601 0.70307 0.0
H10052 H 0.89359 0.61797 0.70916 0.0
H10053 H 0.89871 0.60857 0.70213 0.0
H10054 H 0.87951 0.59664 0.70401 0.0
H10055 H 0.87437 0.60612 0.71111 0.0
C10056 C 0.89188 0.58963 0.68696 0.0
C10057 C 0.89899 0.58773 0.68761 0.0
C10058 C 0.88868 0.59394 0.692 0.0
C10059 C 0.89254 0.59646 0.69777 0.0
C10060 C 0.89952 0.59425 0.69861 0.0
C10061 C 0.9027 0.58992 0.69362 0.0
C10062 C 0.89049 0.61331 0.70813 0.0
C10063 C 0.88358 0.61277 0.71065 0.0
C10064 C 0.89343 0.60791 0.70414 0.0
C10065 C 0.88952 0.60187 0.70252 0.0
C10066 C 0.88264 0.60126 0.70516 0.0
C10067 C 0.87972 0.60664 0.70925 0.0
H10068 H 0.67404 0.646 0.94143 0.0
H10069 H 0.65704 0.64366 0.9266 0.0
H10070 H 0.66728 0.6394 0.95018 0.0
H10071 H 0.65023 0.63737 0.93533 0.0
H10072 H 0.6406 0.62225 0.94998 0.0
H10073 H 0.64933 0.62666 0.94172 0.0
H10074 H 0.65691 0.64112 0.95749 0.0
H10075 H 0.64827 0.63652 0.96582 0.0
C10076 C 0.6689 0.64402 0.94002 0.0
C10077 C 0.66605 0.6454 0.93334 0.0
C10078 C 0.66499 0.6403 0.94505 0.0
C10079 C 0.6582 0.63785 0.94347 0.0
C10080 C 0.65547 0.63908 0.93672 0.0
C10081 C 0.65935 0.64278 0.93173 0.0
C10082 C 0.64422 0.62629 0.9517 0.0
C10083 C 0.64372 0.6291 0.9585 0.0
C10084 C 0.6492 0.62885 0.94697 0.0
C10085 C 0.65375 0.63435 0.94889 0.0
C10086 C 0.65353 0.63687 0.95584 0.0
C10087 C 0.64857 0.63425 0.96061 0.0
H10088 H 0.61654 0.41767 0.18195 0.0
H10089 H 0.59718 0.4172 0.19377 0.0
H10090 H 0.62209 0.41021 0.1908 0.0
H10091 H 0.6027 0.40965 0.20251 0.0
H10092 H 0.61177 0.38782 0.20879 0.0
H10093 H 0.60668 0.39713 0.20163 0.0
H10094 H 0.62578 0.4092 0.20366 0.0
H10095 H 0.6309 0.3998 0.21089 0.0
C10096 C 0.61351 0.41611 0.1865 0.0
C10097 C 0.60638 0.41796 0.18708 0.0
C10098 C 0.61669 0.41183 0.19157 0.0
C10099 C 0.6128 0.40928 0.1973 0.0
C10100 C 0.60579 0.41143 0.19808 0.0
C10101 C 0.60263 0.41574 0.19305 0.0
C10102 C 0.61486 0.39248 0.20775 0.0
C10103 C 0.62173 0.39308 0.21036 0.0
C10104 C 0.61193 0.39784 0.2037 0.0
C10105 C 0.61582 0.4039 0.20209 0.0
C10106 C 0.62267 0.40457 0.2048 0.0
C10107 C 0.62557 0.39923 0.20896 0.0
H10108 H 0.83814 0.36705 0.43334 0.0
H10109 H 0.83821 0.34792 0.44555 0.0
H10110 H 0.84564 0.37265 0.44211 0.0
H10111 H 0.84582 0.35348 0.45422 0.0
H10112 H 0.86793 0.36234 0.46011 0.0
H10113 H 0.85841 0.3572 0.45325 0.0
H10114 H 0.84675 0.37659 0.45489 0.0
H10115 H 0.85635 0.38173 0.46182 0.0
C10116 C 0.83962 0.36408 0.43796 0.0
C10117 C 0.83765 0.35699 0.43868 0.0
C10118 C 0.84393 0.3673 0.44298 0.0
C10119 C 0.84639 0.36348 0.44881 0.0
C10120 C 0.8441 0.35652 0.44972 0.0
C10121 C 0.83976 0.35333 0.44474 0.0
C10122 C 0.8633 0.36547 0.45907 0.0
C10123 C 0.86287 0.37243 0.46146 0.0
C10124 C 0.85782 0.36252 0.45519 0.0
C10125 C 0.85183 0.36649 0.45353 0.0
C10126 C 0.85132 0.37342 0.45606 0.0
C10127 C 0.85678 0.37634 0.46006 0.0
H10128 H 0.88961 0.41854 0.8236 0.0
H10129 H 0.90873 0.41884 0.81139 0.0
H10130 H 0.88407 0.41113 0.81471 0.0
H10131 H 0.90323 0.41132 0.8026 0.0
H10132 H 0.89462 0.38924 0.79634 0.0
H10133 H 0.89962 0.39865 0.80344 0.0
H10134 H 0.88018 0.41023 0.80185 0.0
H10135 H 0.87517 0.40074 0.79467 0.0
C10136 C 0.89258 0.41716 0.81896 0.0
C10137 C 0.89966 0.41921 0.81827 0.0
C10138 C 0.88941 0.41291 0.81386 0.0
C10139 C 0.89325 0.41058 0.808 0.0
C10140 C 0.90018 0.41294 0.80713 0.0
C10141 C 0.90334 0.41722 0.81218 0.0
C10142 C 0.89144 0.39383 0.79745 0.0
C10143 C 0.88451 0.39426 0.79498 0.0
C10144 C 0.89431 0.39924 0.80147 0.0
C10145 C 0.89029 0.40518 0.8032 0.0
C10146 C 0.88339 0.40569 0.80062 0.0
C10147 C 0.88054 0.4003 0.79649 0.0
H10148 H 0.8375 0.63594 0.07551 0.0
H10149 H 0.83969 0.65488 0.06322 0.0
H10150 H 0.8445 0.62955 0.0669 0.0
H10151 H 0.84695 0.6486 0.0548 0.0
H10152 H 0.85729 0.63516 0.03854 0.0
H10153 H 0.84781 0.63977 0.04584 0.0
H10154 H 0.85671 0.62932 0.06392 0.0
H10155 H 0.86596 0.62448 0.05658 0.0
C10156 C 0.83938 0.63872 0.07092 0.0
C10157 C 0.83809 0.64595 0.0701 0.0
C10158 C 0.84347 0.63508 0.06602 0.0
C10159 C 0.84637 0.63857 0.06018 0.0
C10160 C 0.84478 0.64571 0.05919 0.0
C10161 C 0.84068 0.64935 0.06408 0.0
C10162 C 0.85712 0.63371 0.04404 0.0
C10163 C 0.86243 0.62951 0.04699 0.0
C10164 C 0.85173 0.63642 0.04824 0.0
C10165 C 0.85152 0.63498 0.0555 0.0
C10166 C 0.85664 0.6305 0.05836 0.0
C10167 C 0.86201 0.62779 0.05416 0.0
H10168 H 0.60976 0.59951 0.32877 0.0
H10169 H 0.61 0.58154 0.31495 0.0
H10170 H 0.61615 0.60632 0.32011 0.0
H10171 H 0.61665 0.58835 0.30626 0.0
H10172 H 0.61903 0.60693 0.28983 0.0
H10173 H 0.61457 0.59827 0.29824 0.0
H10174 H 0.62736 0.60757 0.31452 0.0
H10175 H 0.63165 0.61627 0.30617 0.0
C10176 C 0.61123 0.597 0.32388 0.0
C10177 C 0.60931 0.59 0.32252 0.0
C10178 C 0.61498 0.60088 0.31894 0.0
C10179 C 0.61695 0.59788 0.31248 0.0
C10180 C 0.61518 0.59083 0.31116 0.0
C10181 C 0.61142 0.58691 0.31616 0.0
C10182 C 0.621 0.607 0.29517 0.0
C10183 C 0.62561 0.61231 0.29738 0.0
C10184 C 0.61845 0.60204 0.29999 0.0
C10185 C 0.62051 0.6023 0.30709 0.0
C10186 C 0.62553 0.60732 0.30914 0.0
C10187 C 0.62802 0.61229 0.30435 0.0
H10188 H 0.66673 0.3499 0.56171 0.0
H10189 H 0.66973 0.36885 0.57382 0.0
H10190 H 0.65946 0.35634 0.55341 0.0
H10191 H 0.66273 0.37538 0.56532 0.0
H10192 H 0.64114 0.38095 0.55557 0.0
H10193 H 0.65046 0.37591 0.56268 0.0
H10194 H 0.65859 0.36517 0.54441 0.0
H10195 H 0.64904 0.37002 0.53733 0.0
C10196 C 0.66592 0.35547 0.56255 0.0
C10197 C 0.66873 0.35883 0.5685 0.0
C10198 C 0.66182 0.35919 0.55773 0.0
C10199 C 0.66045 0.36638 0.55871 0.0
C10200 C 0.66358 0.36983 0.56445 0.0
C10201 C 0.66767 0.36609 0.56929 0.0
C10202 C 0.64494 0.37754 0.55305 0.0
C10203 C 0.64428 0.37581 0.54591 0.0
C10204 C 0.65035 0.37471 0.55712 0.0
C10205 C 0.65527 0.37008 0.55414 0.0
C10206 C 0.65483 0.36863 0.5469 0.0
C10207 C 0.6494 0.37147 0.54282 0.0
H10208 H 0.69072 0.89632 0.58207 0.0
H10209 H 0.67609 0.89497 0.59934 0.0
H10210 H 0.69935 0.88964 0.5889 0.0
H10211 H 0.6847 0.88856 0.6062 0.0
H10212 H 0.69895 0.87293 0.61579 0.0
H10213 H 0.69071 0.87757 0.60715 0.0
H10214 H 0.70685 0.89141 0.59921 0.0
H10215 H 0.71514 0.88663 0.60779 0.0
C10216 C 0.68932 0.89455 0.58729 0.0
C10217 C 0.68274 0.89622 0.59018 0.0
C10218 C 0.69429 0.89078 0.59123 0.0
C10219 C 0.69273 0.88856 0.59811 0.0
C10220 C 0.68607 0.89009 0.6009 0.0
C10221 C 0.68114 0.89385 0.59699 0.0
C10222 C 0.70075 0.8769 0.61213 0.0
C10223 C 0.70765 0.87948 0.61251 0.0
C10224 C 0.69603 0.87958 0.6072 0.0
C10225 C 0.69807 0.88496 0.60256 0.0
C10226 C 0.7051 0.88725 0.60267 0.0
C10227 C 0.70986 0.88452 0.60759 0.0
H10228 H 0.19389 0.59674 0.41757 0.0
H10229 H 0.18216 0.61615 0.41835 0.0
H10230 H 0.2027 0.60237 0.41017 0.0
H10231 H 0.19106 0.62181 0.41104 0.0
H10232 H 0.21106 0.63078 0.40075 0.0
H10233 H 0.2039 0.62548 0.41009 0.0
H10234 H 0.2019 0.60656 0.39774 0.0
H10235 H 0.20901 0.61183 0.38849 0.0
C10236 C 0.19321 0.60222 0.41621 0.0
C10237 C 0.18725 0.60596 0.41847 0.0
C10238 C 0.19827 0.60545 0.41199 0.0
C10239 C 0.19753 0.61251 0.40996 0.0
C10240 C 0.1918 0.61637 0.41256 0.0
C10241 C 0.18671 0.61313 0.41676 0.0
C10242 C 0.20916 0.62545 0.40011 0.0
C10243 C 0.21054 0.62172 0.3939 0.0
C10244 C 0.20503 0.62244 0.40542 0.0
C10245 C 0.20234 0.6156 0.40465 0.0
C10246 C 0.20396 0.6118 0.39853 0.0
C10247 C 0.20798 0.61484 0.39321 0.0
H10248 H 0.65398 0.9308 0.6559 0.0
H10249 H 0.6456 0.94109 0.67428 0.0
H10250 H 0.64841 0.93949 0.64843 0.0
H10251 H 0.64008 0.94998 0.66675 0.0
H10252 H 0.62555 0.96001 0.64943 0.0
H10253 H 0.63095 0.95199 0.65796 0.0
H10254 H 0.64983 0.9515 0.64536 0.0
H10255 H 0.64434 0.95927 0.63682 0.0
C10256 C 0.651 0.93498 0.65835 0.0
C10257 C 0.65031 0.93532 0.66568 0.0
C10258 C 0.64782 0.94 0.65406 0.0
C10259 C 0.6439 0.94554 0.65698 0.0
C10260 C 0.64305 0.94578 0.66432 0.0
C10261 C 0.64621 0.9407 0.66864 0.0
C10262 C 0.63088 0.95824 0.64858 0.0
C10263 C 0.63451 0.96016 0.64245 0.0
C10264 C 0.63399 0.95366 0.65345 0.0
C10265 C 0.64079 0.95098 0.65228 0.0
C10266 C 0.64452 0.95328 0.64633 0.0
C10267 C 0.6414 0.95777 0.64146 0.0
H10268 H 0.31136 0.40762 0.91935 0.0
H10269 H 0.32397 0.38885 0.91747 0.0
H10270 H 0.30241 0.40235 0.91186 0.0
H10271 H 0.31494 0.38354 0.91008 0.0
H10272 H 0.29502 0.3746 0.89982 0.0
H10273 H 0.3023 0.37932 0.90937 0.0
H10274 H 0.30265 0.39951 0.89904 0.0
H10275 H 0.29542 0.39481 0.88957 0.0
C10276 C 0.3122 0.40235 0.91739 0.0
C10277 C 0.31845 0.39871 0.91893 0.0
C10278 C 0.30706 0.39932 0.91312 0.0
C10279 C 0.308 0.39256 0.91032 0.0
C10280 C 0.31404 0.38874 0.9122 0.0
C10281 C 0.31921 0.39179 0.91644 0.0
C10282 C 0.29657 0.38007 0.89968 0.0
C10283 C 0.29469 0.38434 0.89396 0.0
C10284 C 0.30077 0.38275 0.9051 0.0
C10285 C 0.30305 0.38978 0.90495 0.0
C10286 C 0.30092 0.3941 0.89936 0.0
C10287 C 0.29682 0.3914 0.89391 0.0
H10288 H 0.34907 0.56205 0.66745 0.0
H10289 H 0.36752 0.57524 0.66779 0.0
H10290 H 0.35521 0.55362 0.66006 0.0
H10291 H 0.37378 0.56665 0.66065 0.0
H10292 H 0.37776 0.55582 0.63925 0.0
H10293 H 0.37313 0.56327 0.64852 0.0
H10294 H 0.36451 0.54503 0.65891 0.0
H10295 H 0.36896 0.53756 0.64944 0.0
C10296 C 0.35447 0.56311 0.66603 0.0
C10297 C 0.35776 0.56938 0.66814 0.0
C10298 C 0.35803 0.55822 0.66185 0.0
C10299 C 0.36498 0.55947 0.6597 0.0
C10300 C 0.36839 0.56557 0.66212 0.0
C10301 C 0.36482 0.57046 0.66629 0.0
C10302 C 0.3749 0.55339 0.64353 0.0
C10303 C 0.37365 0.54611 0.64356 0.0
C10304 C 0.37231 0.55766 0.6489 0.0
C10305 C 0.36841 0.55477 0.65446 0.0
C10306 C 0.36742 0.54744 0.65466 0.0
C10307 C 0.37002 0.54315 0.64927 0.0
H10308 H 0.82212 0.09976 0.09918 0.0
H10309 H 0.81439 0.11145 0.08136 0.0
H10310 H 0.8134 0.10526 0.10665 0.0
H10311 H 0.80545 0.11692 0.08885 0.0
H10312 H 0.79617 0.13072 0.1071 0.0
H10313 H 0.80383 0.12514 0.09838 0.0
H10314 H 0.80124 0.10523 0.109 0.0
H10315 H 0.7939 0.1109 0.11781 0.0
C10316 C 0.81847 0.10344 0.09684 0.0
C10317 C 0.81889 0.10511 0.08966 0.0
C10318 C 0.81343 0.10659 0.10112 0.0
C10319 C 0.80862 0.11146 0.09835 0.0
C10320 C 0.80909 0.11321 0.09117 0.0
C10321 C 0.8142 0.11008 0.08688 0.0
C10322 C 0.79717 0.12513 0.10746 0.0
C10323 C 0.79451 0.12123 0.11311 0.0
C10324 C 0.80154 0.12192 0.10247 0.0
C10325 C 0.80327 0.11475 0.10305 0.0
C10326 C 0.8002 0.1108 0.10849 0.0
C10327 C 0.79593 0.11401 0.1135 0.0
H10328 H 0.65601 0.06242 0.83936 0.0
H10329 H 0.63713 0.07466 0.83647 0.0
H10330 H 0.64954 0.05411 0.84658 0.0
H10331 H 0.63057 0.06615 0.84343 0.0
H10332 H 0.62485 0.05613 0.86485 0.0
H10333 H 0.62999 0.06335 0.85566 0.0
H10334 H 0.64069 0.04515 0.84734 0.0
H10335 H 0.63576 0.03797 0.85676 0.0
C10336 C 0.65046 0.06329 0.84019 0.0
C10337 C 0.64713 0.06928 0.83741 0.0
C10338 C 0.64671 0.05847 0.84427 0.0
C10339 C 0.63953 0.05948 0.84565 0.0
C10340 C 0.63612 0.06527 0.84257 0.0
C10341 C 0.63987 0.07011 0.8385 0.0
C10342 C 0.62828 0.05366 0.86104 0.0
C10343 C 0.62997 0.04649 0.86161 0.0
C10344 C 0.63117 0.05779 0.85571 0.0
C10345 C 0.6358 0.05486 0.85076 0.0
C10346 C 0.63722 0.0476 0.85112 0.0
C10347 C 0.63433 0.04347 0.85647 0.0
H10348 H 0.85974 0.94153 0.33135 0.0
H10349 H 0.86183 0.92661 0.3483 0.0
H10350 H 0.86637 0.95019 0.33819 0.0
H10351 H 0.86816 0.93525 0.35519 0.0
H10352 H 0.88326 0.94975 0.36504 0.0
H10353 H 0.8789 0.94157 0.35622 0.0
H10354 H 0.86459 0.95745 0.34859 0.0
H10355 H 0.86914 0.96571 0.35733 0.0
C10356 C 0.86168 0.94008 0.3365 0.0
C10357 C 0.86021 0.93341 0.33931 0.0
C10358 C 0.86541 0.94506 0.34045 0.0
C10359 C 0.8678 0.94343 0.34726 0.0
C10360 C 0.86651 0.93667 0.34994 0.0
C10361 C 0.86278 0.93173 0.34602 0.0
C10362 C 0.87927 0.95152 0.3614 0.0
C10363 C 0.87648 0.95833 0.36191 0.0
C10364 C 0.87673 0.94683 0.35637 0.0
C10365 C 0.87129 0.9488 0.35177 0.0
C10366 C 0.86881 0.95576 0.35201 0.0
C10367 C 0.8714 0.96049 0.35702 0.0
H10368 H 0.40662 0.32783 0.10953 0.0
H10369 H 0.42396 0.31323 0.10927 0.0
H10370 H 0.39952 0.31936 0.11588 0.0
H10371 H 0.41686 0.30473 0.11587 0.0
H10372 H 0.39768 0.28909 0.11854 0.0
H10373 H 0.40648 0.2972 0.11382 0.0
H10374 H 0.39835 0.31368 0.12713 0.0
H10375 H 0.38952 0.30563 0.13171 0.0
C10376 C 0.40893 0.32281 0.11087 0.0
C10377 C 0.41583 0.32118 0.10884 0.0
C10378 C 0.40488 0.31797 0.1146 0.0
C10379 C 0.40762 0.31136 0.11642 0.0
C10380 C 0.41458 0.30976 0.11451 0.0
C10381 C 0.41866 0.31464 0.11079 0.0
C10382 C 0.39788 0.29441 0.12055 0.0
C10383 C 0.39286 0.29676 0.12541 0.0
C10384 C 0.40293 0.29906 0.11786 0.0
C10385 C 0.40304 0.30613 0.12001 0.0
C10386 C 0.3983 0.30832 0.12523 0.0
C10387 C 0.39326 0.30371 0.12787 0.0
H10388 H 0.43332 0.66922 0.86697 0.0
H10389 H 0.44571 0.66689 0.8481 0.0
H10390 H 0.44178 0.66206 0.87339 0.0
H10391 H 0.45396 0.65946 0.85443 0.0
H10392 H 0.46996 0.64882 0.8681 0.0
H10393 H 0.46285 0.65841 0.86335 0.0
H10394 H 0.44451 0.6498 0.87359 0.0
H10395 H 0.45165 0.64045 0.87854 0.0
C10396 C 0.4379 0.66727 0.86421 0.0
C10397 C 0.43878 0.66857 0.85699 0.0
C10398 C 0.44271 0.66309 0.86788 0.0
C10399 C 0.44852 0.6601 0.86442 0.0
C10400 C 0.44959 0.6617 0.85729 0.0
C10401 C 0.44479 0.66589 0.85363 0.0
C10402 C 0.46444 0.64908 0.86946 0.0
C10403 C 0.46135 0.64383 0.87363 0.0
C10404 C 0.46035 0.65453 0.86668 0.0
C10405 C 0.45308 0.65486 0.86803 0.0
C10406 C 0.45009 0.64978 0.87248 0.0
C10407 C 0.45417 0.64435 0.87525 0.0
H10408 H 0.08827 0.69493 0.59853 0.0
H10409 H 0.08605 0.68232 0.61726 0.0
H10410 H 0.0958 0.70306 0.60488 0.0
H10411 H 0.09328 0.69066 0.62373 0.0
H10412 H 0.11493 0.70034 0.62891 0.0
H10413 H 0.10548 0.69334 0.62397 0.0
H10414 H 0.0971 0.71182 0.61379 0.0
H10415 H 0.1068 0.71878 0.6185 0.0
C10416 C 0.08931 0.69394 0.60403 0.0
C10417 C 0.08663 0.68789 0.60734 0.0
C10418 C 0.09356 0.69866 0.60771 0.0
C10419 C 0.09522 0.6975 0.61481 0.0
C10420 C 0.09221 0.69167 0.61823 0.0
C10421 C 0.08798 0.68692 0.61454 0.0
C10422 C 0.11106 0.70292 0.62563 0.0
C10423 C 0.11169 0.7101 0.62401 0.0
C10424 C 0.10557 0.69892 0.62287 0.0
C10425 C 0.10052 0.70199 0.61843 0.0
C10426 C 0.10095 0.70925 0.6171 0.0
C10427 C 0.10647 0.71327 0.61986 0.0
H10428 H 0.06115 0.33902 0.34838 0.0
H10429 H 0.07407 0.33733 0.36696 0.0
H10430 H 0.05304 0.3466 0.3547 0.0
H10431 H 0.06576 0.34462 0.3734 0.0
H10432 H 0.05576 0.36618 0.37837 0.0
H10433 H 0.06289 0.35683 0.37341 0.0
H10434 H 0.0444 0.34784 0.36378 0.0
H10435 H 0.03731 0.35742 0.36851 0.0
C10436 C 0.06222 0.34019 0.35385 0.0
C10437 C 0.06833 0.33764 0.35712 0.0
C10438 C 0.05751 0.34447 0.35751 0.0
C10439 C 0.05877 0.34629 0.36456 0.0
C10440 C 0.06469 0.34343 0.36794 0.0
C10441 C 0.06941 0.33917 0.36427 0.0
C10442 C 0.05321 0.36221 0.3752 0.0
C10443 C 0.04598 0.36262 0.37376 0.0
C10444 C 0.05729 0.35678 0.37243 0.0
C10445 C 0.05424 0.35158 0.36815 0.0
C10446 C 0.04695 0.35181 0.36697 0.0
C10447 C 0.04286 0.35726 0.36974 0.0
H10448 H 0.4182 0.68246 0.38996 0.0
H10449 H 0.41828 0.69581 0.40831 0.0
H10450 H 0.41087 0.69096 0.38381 0.0
H10451 H 0.4107 0.70415 0.40228 0.0
H10452 H 0.39986 0.72011 0.38846 0.0
H10453 H 0.40934 0.71266 0.39292 0.0
H10454 H 0.39876 0.69435 0.38469 0.0
H10455 H 0.38949 0.70178 0.38004 0.0
C10456 C 0.41675 0.68725 0.39265 0.0
C10457 C 0.41879 0.68841 0.39966 0.0
C10458 C 0.41247 0.6921 0.38915 0.0
C10459 C 0.41011 0.69821 0.39257 0.0
C10460 C 0.41244 0.69953 0.39946 0.0
C10461 C 0.41672 0.69469 0.40295 0.0
C10462 C 0.39965 0.7145 0.3875 0.0
C10463 C 0.39389 0.71153 0.38396 0.0
C10464 C 0.40504 0.71023 0.39011 0.0
C10465 C 0.40481 0.70289 0.38921 0.0
C10466 C 0.39917 0.69997 0.38543 0.0
C10467 C 0.3938 0.70423 0.38284 0.0
H10468 H 0.0781 0.6564 0.14581 0.0
H10469 H 0.06343 0.67367 0.14679 0.0
H10470 H 0.06952 0.64941 0.1395 0.0
H10471 H 0.05483 0.6667 0.1402 0.0
H10472 H 0.03915 0.64761 0.13755 0.0
H10473 H 0.04737 0.65635 0.14217 0.0
H10474 H 0.06356 0.64831 0.12845 0.0
H10475 H 0.0554 0.63952 0.12398 0.0
C10476 C 0.07304 0.65872 0.14463 0.0
C10477 C 0.07143 0.66557 0.14687 0.0
C10478 C 0.06814 0.65474 0.14092 0.0
C10479 C 0.06148 0.65749 0.13931 0.0
C10480 C 0.0599 0.6644 0.1414 0.0
C10481 C 0.06484 0.66842 0.14511 0.0
C10482 C 0.04443 0.64782 0.13543 0.0
C10483 C 0.04667 0.64283 0.13048 0.0
C10484 C 0.04914 0.65284 0.13806 0.0
C10485 C 0.05616 0.65296 0.13577 0.0
C10486 C 0.05824 0.64825 0.13047 0.0
C10487 C 0.05356 0.64324 0.12788 0.0
H10488 H 0.09848 0.32744 0.89643 0.0
H10489 H 0.08136 0.31269 0.89829 0.0
H10490 H 0.10529 0.31879 0.89001 0.0
H10491 H 0.08815 0.304 0.89162 0.0
H10492 H 0.10745 0.28849 0.88863 0.0
H10493 H 0.0987 0.29666 0.89336 0.0
H10494 H 0.10593 0.31266 0.87899 0.0
H10495 H 0.11473 0.30457 0.87441 0.0
C10496 C 0.09615 0.32234 0.89542 0.0
C10497 C 0.08941 0.32073 0.89793 0.0
C10498 C 0.10003 0.3174 0.89166 0.0
C10499 C 0.09727 0.31069 0.89026 0.0
C10500 C 0.09045 0.30911 0.89264 0.0
C10501 C 0.08654 0.31409 0.8964 0.0
C10502 C 0.10704 0.29371 0.88639 0.0
C10503 C 0.11182 0.29594 0.88123 0.0
C10504 C 0.10203 0.29839 0.88909 0.0
C10505 C 0.1017 0.30536 0.88664 0.0
C10506 C 0.10616 0.30739 0.88112 0.0
C10507 C 0.11118 0.30275 0.87847 0.0
H10508 H 0.44241 0.33018 0.64441 0.0
H10509 H 0.43588 0.34747 0.65755 0.0
H10510 H 0.45136 0.3377 0.63902 0.0
H10511 H 0.44461 0.35497 0.65213 0.0
H10512 H 0.46409 0.36596 0.64603 0.0
H10513 H 0.45679 0.35703 0.6516 0.0
H10514 H 0.45286 0.34762 0.63131 0.0
H10515 H 0.46048 0.35644 0.62581 0.0
C10516 C 0.44287 0.33559 0.64613 0.0
C10517 C 0.43849 0.33821 0.65147 0.0
C10518 C 0.44799 0.3399 0.64304 0.0
C10519 C 0.44879 0.34693 0.64519 0.0
C10520 C 0.44432 0.34954 0.65047 0.0
C10521 C 0.43928 0.34523 0.65357 0.0
C10522 C 0.46178 0.36187 0.6428 0.0
C10523 C 0.46282 0.36185 0.63552 0.0
C10524 C 0.45753 0.3568 0.64597 0.0
C10525 C 0.4541 0.35167 0.6419 0.0
C10526 C 0.45544 0.35146 0.63462 0.0
C10527 C 0.45978 0.3565 0.63146 0.0
H10528 H 0.11083 0.42533 0.31307 0.0
H10529 H 0.09883 0.40772 0.32079 0.0
H10530 H 0.11625 0.41772 0.3042 0.0
H10531 H 0.10429 0.40013 0.31216 0.0
H10532 H 0.10991 0.38879 0.29274 0.0
H10533 H 0.10432 0.39769 0.30004 0.0
H10534 H 0.12434 0.40809 0.30265 0.0
H10535 H 0.12983 0.39928 0.29503 0.0
C10536 C 0.10938 0.41983 0.31289 0.0
C10537 C 0.10433 0.41714 0.31756 0.0
C10538 C 0.11248 0.41547 0.30782 0.0
C10539 C 0.11064 0.40831 0.30738 0.0
C10540 C 0.10569 0.40564 0.31217 0.0
C10541 C 0.10257 0.40999 0.31716 0.0
C10542 C 0.11306 0.39307 0.29477 0.0
C10543 C 0.12028 0.39337 0.29336 0.0
C10544 C 0.10989 0.39813 0.29902 0.0
C10545 C 0.11389 0.40354 0.30208 0.0
C10546 C 0.12108 0.40403 0.30037 0.0
C10547 C 0.12424 0.39899 0.29602 0.0
H10548 H 0.33845 0.36521 0.07303 0.0
H10549 H 0.33875 0.34581 0.06124 0.0
H10550 H 0.34614 0.37061 0.06429 0.0
H10551 H 0.34655 0.35118 0.05262 0.0
H10552 H 0.36861 0.35997 0.0466 0.0
H10553 H 0.35915 0.35501 0.05368 0.0
H10554 H 0.34732 0.37422 0.0514 0.0
H10555 H 0.35685 0.37921 0.04426 0.0
C10556 C 0.34003 0.36214 0.06851 0.0
C10557 C 0.33805 0.35504 0.0679 0.0
C10558 C 0.34445 0.36523 0.06351 0.0
C10559 C 0.34702 0.36129 0.05782 0.0
C10560 C 0.34476 0.35431 0.05702 0.0
C10561 C 0.3403 0.35124 0.06197 0.0
C10562 C 0.36396 0.36311 0.04757 0.0
C10563 C 0.36346 0.36998 0.04491 0.0
C10564 C 0.35853 0.36026 0.05157 0.0
C10565 C 0.35249 0.36422 0.05309 0.0
C10566 C 0.35193 0.37106 0.05034 0.0
C10567 C 0.35734 0.37389 0.04623 0.0
H10568 H 0.39774 0.58169 0.81215 0.0
H10569 H 0.39528 0.59829 0.8274 0.0
H10570 H 0.39099 0.58858 0.8036 0.0
H10571 H 0.38882 0.60522 0.81889 0.0
H10572 H 0.37355 0.61508 0.80464 0.0
H10573 H 0.37803 0.60609 0.81258 0.0
H10574 H 0.39258 0.59922 0.79657 0.0
H10575 H 0.3879 0.60812 0.78855 0.0
C10576 C 0.3957 0.58677 0.81369 0.0
C10577 C 0.39709 0.58947 0.82043 0.0
C10578 C 0.39189 0.59075 0.80879 0.0
C10579 C 0.38935 0.59747 0.81055 0.0
C10580 C 0.39059 0.60004 0.81736 0.0
C10581 C 0.39438 0.5961 0.82223 0.0
C10582 C 0.37762 0.61155 0.80278 0.0
C10583 C 0.38044 0.61233 0.79602 0.0
C10584 C 0.38022 0.60643 0.80734 0.0
C10585 C 0.38577 0.60202 0.80528 0.0
C10586 C 0.38828 0.6025 0.79833 0.0
C10587 C 0.38562 0.6076 0.79374 0.0
H10588 H 0.16762 0.65921 0.55977 0.0
H10589 H 0.16754 0.64001 0.57188 0.0
H10590 H 0.15989 0.65379 0.55113 0.0
H10591 H 0.15991 0.63456 0.56313 0.0
H10592 H 0.14911 0.62575 0.54329 0.0
H10593 H 0.15873 0.63072 0.55031 0.0
H10594 H 0.14724 0.65019 0.55217 0.0
H10595 H 0.1377 0.64524 0.54521 0.0
C10596 C 0.16601 0.65382 0.56057 0.0
C10597 C 0.16812 0.65009 0.56659 0.0
C10598 C 0.16159 0.65071 0.5556 0.0
C10599 C 0.15923 0.64377 0.55649 0.0
C10600 C 0.16168 0.63989 0.56228 0.0
C10601 C 0.16607 0.64303 0.56729 0.0
C10602 C 0.14871 0.63112 0.54513 0.0
C10603 C 0.14266 0.63511 0.54375 0.0
C10604 C 0.15418 0.63394 0.54917 0.0
C10605 C 0.15374 0.64085 0.55178 0.0
C10606 C 0.14778 0.64489 0.55017 0.0
C10607 C 0.14229 0.64204 0.54624 0.0
H10608 H 0.11496 0.58821 0.18343 0.0
H10609 H 0.09548 0.58881 0.19506 0.0
H10610 H 0.12039 0.59586 0.19218 0.0
H10611 H 0.10088 0.59657 0.20369 0.0
H10612 H 0.10988 0.61852 0.20973 0.0
H10613 H 0.10486 0.6091 0.20265 0.0
H10614 H 0.12393 0.59707 0.20507 0.0
H10615 H 0.12897 0.60657 0.21221 0.0
C10616 C 0.11187 0.58984 0.18792 0.0
C10617 C 0.10474 0.58796 0.18848 0.0
C10618 C 0.11499 0.59424 0.19292 0.0
C10619 C 0.11103 0.59688 0.19857 0.0
C10620 C 0.10402 0.59471 0.19933 0.0
C10621 C 0.10093 0.59028 0.19436 0.0
C10622 C 0.11298 0.61384 0.20879 0.0
C10623 C 0.11982 0.61328 0.21149 0.0
C10624 C 0.11009 0.60842 0.20478 0.0
C10625 C 0.114 0.60234 0.20331 0.0
C10626 C 0.12081 0.60171 0.2061 0.0
C10627 C 0.12368 0.60711 0.21021 0.0
H10628 H 0.16748 0.34862 0.94556 0.0
H10629 H 0.16832 0.367 0.93229 0.0
H10630 H 0.15981 0.35481 0.95367 0.0
H10631 H 0.16094 0.37333 0.9406 0.0
H10632 H 0.1395 0.37794 0.95092 0.0
H10633 H 0.14885 0.3731 0.94371 0.0
H10634 H 0.15833 0.3639 0.96218 0.0
H10635 H 0.14874 0.36847 0.96935 0.0
C10636 C 0.16611 0.35402 0.94442 0.0
C10637 C 0.16845 0.35727 0.9382 0.0
C10638 C 0.16177 0.35761 0.94913 0.0
C10639 C 0.15968 0.36457 0.94778 0.0
C10640 C 0.16233 0.36794 0.94176 0.0
C10641 C 0.16665 0.36433 0.93702 0.0
C10642 C 0.14357 0.37488 0.95345 0.0
C10643 C 0.1433 0.37352 0.9607 0.0
C10644 C 0.14901 0.37218 0.94932 0.0
C10645 C 0.15435 0.36807 0.95234 0.0
C10646 C 0.15425 0.36696 0.95965 0.0
C10647 C 0.14879 0.36965 0.96378 0.0
H10648 H 0.38907 0.41885 0.68192 0.0
H10649 H 0.40757 0.41736 0.69496 0.0
H10650 H 0.38265 0.41152 0.6902 0.0
H10651 H 0.40128 0.40972 0.70304 0.0
H10652 H 0.38755 0.39864 0.71865 0.0
H10653 H 0.39224 0.40828 0.71162 0.0
H10654 H 0.38265 0.39936 0.69307 0.0
H10655 H 0.3777 0.38997 0.70014 0.0
C10656 C 0.39175 0.41705 0.6866 0.0
C10657 C 0.39887 0.41864 0.68772 0.0
C10658 C 0.38809 0.41276 0.69131 0.0
C10659 C 0.39146 0.40993 0.69725 0.0
C10660 C 0.39848 0.41182 0.69855 0.0
C10661 C 0.40213 0.41613 0.69386 0.0
C10662 C 0.38632 0.39883 0.7131 0.0
C10663 C 0.38231 0.39348 0.70995 0.0
C10664 C 0.38908 0.40432 0.70905 0.0
C10665 C 0.38789 0.40459 0.70175 0.0
C10666 C 0.38363 0.39939 0.69868 0.0
C10667 C 0.38087 0.39394 0.70272 0.0
H10668 H 0.34922 0.64504 0.4272 0.0
H10669 H 0.33188 0.64629 0.44175 0.0
H10670 H 0.35613 0.6388 0.43589 0.0
H10671 H 0.33878 0.63978 0.45048 0.0
H10672 H 0.35779 0.63736 0.4663 0.0
H10673 H 0.34906 0.64182 0.45798 0.0
H10674 H 0.35724 0.6279 0.44203 0.0
H10675 H 0.36603 0.62361 0.45028 0.0
C10676 C 0.34686 0.64392 0.43225 0.0
C10677 C 0.34003 0.64623 0.43381 0.0
C10678 C 0.3508 0.64026 0.43722 0.0
C10679 C 0.34802 0.63876 0.4439 0.0
C10680 C 0.3411 0.6409 0.44541 0.0
C10681 C 0.33713 0.64457 0.4404 0.0
C10682 C 0.35761 0.63517 0.46105 0.0
C10683 C 0.36264 0.63022 0.4589 0.0
C10684 C 0.3526 0.6377 0.45629 0.0
C10685 C 0.35252 0.6353 0.44929 0.0
C10686 C 0.35726 0.62999 0.44731 0.0
C10687 C 0.36228 0.62751 0.45205 0.0
H10688 H 0.32775 0.11086 0.40825 0.0
H10689 H 0.31265 0.10829 0.42497 0.0
H10690 H 0.31917 0.11736 0.40144 0.0
H10691 H 0.30404 0.11506 0.41819 0.0
H10692 H 0.28886 0.11813 0.3987 0.0
H10693 H 0.29694 0.11347 0.40757 0.0
H10694 H 0.31283 0.12816 0.40071 0.0
H10695 H 0.30482 0.13262 0.39176 0.0
C10696 C 0.32259 0.11175 0.4105 0.0
C10697 C 0.32086 0.10899 0.41712 0.0
C10698 C 0.31769 0.11556 0.40662 0.0
C10699 C 0.3109 0.11677 0.40926 0.0
C10700 C 0.3092 0.11419 0.41598 0.0
C10701 C 0.31415 0.11036 0.41989 0.0
C10702 C 0.29403 0.12045 0.39922 0.0
C10703 C 0.29626 0.12566 0.3945 0.0
C10704 C 0.29866 0.1178 0.4043 0.0
C10705 C 0.30558 0.12035 0.40477 0.0
C10706 C 0.3076 0.12594 0.40038 0.0
C10707 C 0.30301 0.12853 0.39528 0.0
H10708 H 0.82403 0.38913 0.58695 0.0
H10709 H 0.81117 0.40773 0.58876 0.0
H10710 H 0.81568 0.38265 0.59417 0.0
H10711 H 0.803 0.40136 0.59625 0.0
H10712 H 0.78717 0.38746 0.60684 0.0
H10713 H 0.79433 0.39225 0.59733 0.0
H10714 H 0.81276 0.38258 0.60639 0.0
H10715 H 0.80557 0.37756 0.61567 0.0
C10716 C 0.81937 0.39181 0.5888 0.0
C10717 C 0.81832 0.39898 0.58732 0.0
C10718 C 0.81462 0.38812 0.59302 0.0
C10719 C 0.8087 0.39149 0.59588 0.0
C10720 C 0.80747 0.39856 0.59411 0.0
C10721 C 0.81221 0.40225 0.58988 0.0
C10722 C 0.79272 0.38623 0.60671 0.0
C10723 C 0.79581 0.38219 0.61206 0.0
C10724 C 0.79684 0.38904 0.6013 0.0
C10725 C 0.80414 0.38786 0.60111 0.0
C10726 C 0.80715 0.38356 0.60631 0.0
C10727 C 0.80304 0.38075 0.61169 0.0
H10728 H 0.3654 0.07194 0.3374 0.0
H10729 H 0.34653 0.05936 0.33653 0.0
H10730 H 0.37093 0.06309 0.34486 0.0
H10731 H 0.35201 0.05062 0.34412 0.0
H10732 H 0.36031 0.04445 0.36642 0.0
H10733 H 0.35534 0.05144 0.3569 0.0
H10734 H 0.37504 0.0503 0.34573 0.0
H10735 H 0.38002 0.04323 0.35532 0.0
C10736 C 0.36248 0.06723 0.33866 0.0
C10737 C 0.35547 0.06643 0.33644 0.0
C10738 C 0.36565 0.06216 0.34295 0.0
C10739 C 0.36187 0.05621 0.34514 0.0
C10740 C 0.35501 0.05522 0.34261 0.0
C10741 C 0.35187 0.06024 0.33828 0.0
C10742 C 0.36355 0.04563 0.36189 0.0
C10743 C 0.37055 0.04333 0.3616 0.0
C10744 C 0.36069 0.04959 0.35642 0.0
C10745 C 0.3648 0.05142 0.35056 0.0
C10746 C 0.37177 0.04899 0.35019 0.0
C10747 C 0.3746 0.04492 0.35564 0.0
H10748 H 0.69479 0.59878 0.08889 0.0
H10749 H 0.68197 0.61742 0.08719 0.0
H10750 H 0.70298 0.60508 0.0964 0.0
H10751 H 0.69035 0.62383 0.09444 0.0
H10752 H 0.70044 0.62872 0.11601 0.0
H10753 H 0.69326 0.62382 0.10665 0.0
H10754 H 0.71167 0.61413 0.09758 0.0
H10755 H 0.71882 0.6188 0.10716 0.0
C10756 C 0.69376 0.60425 0.09004 0.0
C10757 C 0.68766 0.60755 0.08751 0.0
C10758 C 0.69852 0.6079 0.09429 0.0
C10759 C 0.69731 0.61496 0.09609 0.0
C10760 C 0.6914 0.61837 0.09325 0.0
C10761 C 0.68662 0.61471 0.08902 0.0
C10762 C 0.70297 0.62555 0.11201 0.0
C10763 C 0.71019 0.62407 0.1124 0.0
C10764 C 0.69886 0.62281 0.10658 0.0
C10765 C 0.70187 0.61854 0.10136 0.0
C10766 C 0.70916 0.61732 0.10156 0.0
C10767 C 0.71328 0.62006 0.10702 0.0
H10768 H 0.63894 0.43216 0.33772 0.0
H10769 H 0.65707 0.4458 0.33733 0.0
H10770 H 0.63279 0.44057 0.34515 0.0
H10771 H 0.65106 0.45402 0.34504 0.0
H10772 H 0.63758 0.46969 0.35641 0.0
H10773 H 0.64179 0.46238 0.34673 0.0
H10774 H 0.63367 0.44394 0.35718 0.0
H10775 H 0.62922 0.45125 0.36664 0.0
C10776 C 0.64158 0.437 0.33912 0.0
C10777 C 0.64853 0.43825 0.33698 0.0
C10778 C 0.63808 0.44178 0.34347 0.0
C10779 C 0.64145 0.44794 0.34579 0.0
C10780 C 0.64827 0.44937 0.34334 0.0
C10781 C 0.65176 0.4446 0.33898 0.0
C10782 C 0.63656 0.46409 0.35655 0.0
C10783 C 0.63313 0.46105 0.36234 0.0
C10784 C 0.63904 0.45989 0.35104 0.0
C10785 C 0.63813 0.45255 0.35119 0.0
C10786 C 0.63442 0.44957 0.35684 0.0
C10787 C 0.63195 0.45376 0.36232 0.0
H10788 H 0.1934 0.90807 0.91511 0.0
H10789 H 0.18629 0.88771 0.92223 0.0
H10790 H 0.202 0.90241 0.90753 0.0
H10791 H 0.19482 0.88207 0.9145 0.0
H10792 H 0.20256 0.87644 0.89178 0.0
H10793 H 0.19556 0.88123 0.90139 0.0
H10794 H 0.21282 0.89475 0.90723 0.0
H10795 H 0.21984 0.88992 0.89756 0.0
C10796 C 0.19376 0.90239 0.91518 0.0
C10797 C 0.18909 0.89836 0.91926 0.0
C10798 C 0.19869 0.89915 0.91082 0.0
C10799 C 0.19905 0.89179 0.91038 0.0
C10800 C 0.19459 0.88775 0.91465 0.0
C10801 C 0.18969 0.89099 0.91906 0.0
C10802 C 0.20488 0.88037 0.89518 0.0
C10803 C 0.21172 0.88283 0.89392 0.0
C10804 C 0.2009 0.88308 0.90071 0.0
C10805 C 0.20364 0.88838 0.90506 0.0
C10806 C 0.21056 0.89069 0.90394 0.0
C10807 C 0.21459 0.8879 0.89845 0.0
H10808 H 0.35988 0.92825 0.15747 0.0
H10809 H 0.35873 0.94288 0.17475 0.0
H10810 H 0.36619 0.93686 0.15053 0.0
H10811 H 0.36532 0.95153 0.16783 0.0
H10812 H 0.36754 0.96722 0.14863 0.0
H10813 H 0.36331 0.959 0.15758 0.0
H10814 H 0.37704 0.94296 0.14926 0.0
H10815 H 0.38104 0.9511 0.14022 0.0
C10816 C 0.36104 0.9333 0.15981 0.0
C10817 C 0.35873 0.93491 0.16663 0.0
C10818 C 0.36475 0.93823 0.15586 0.0
C10819 C 0.3663 0.9449 0.15862 0.0
C10820 C 0.36417 0.94645 0.16553 0.0
C10821 C 0.36045 0.94149 0.16951 0.0
C10822 C 0.36976 0.96198 0.14885 0.0
C10823 C 0.37455 0.95975 0.14371 0.0
C10824 C 0.36735 0.95727 0.15397 0.0
C10825 C 0.36973 0.95027 0.15407 0.0
C10826 C 0.37495 0.94825 0.14924 0.0
C10827 C 0.37729 0.95291 0.14409 0.0
H10828 H 0.1599 0.05965 0.66902 0.0
H10829 H 0.14094 0.07212 0.66866 0.0
H10830 H 0.15434 0.051 0.66138 0.0
H10831 H 0.13535 0.06336 0.66115 0.0
H10832 H 0.12617 0.0437 0.65046 0.0
H10833 H 0.13128 0.05059 0.66011 0.0
H10834 H 0.15081 0.05199 0.64868 0.0
H10835 H 0.14571 0.04519 0.63909 0.0
C10836 C 0.15453 0.06052 0.66737 0.0
C10837 C 0.15091 0.06665 0.66937 0.0
C10838 C 0.15134 0.05555 0.66301 0.0
C10839 C 0.14443 0.05654 0.66061 0.0
C10840 C 0.14066 0.06243 0.66296 0.0
C10841 C 0.14387 0.06745 0.66728 0.0
C10842 C 0.13159 0.0454 0.65009 0.0
C10843 C 0.13555 0.04394 0.64404 0.0
C10844 C 0.13449 0.04937 0.65558 0.0
C10845 C 0.14145 0.05182 0.65515 0.0
C10846 C 0.14547 0.05011 0.6492 0.0
C10847 C 0.14254 0.04626 0.6437 0.0
loop_
_geom_bond_atom_site_label_1
_geom_bond_atom_site_label_2
_geom_bond_distance
_geom_bond_site_symmetry_2
_ccdc_geom_bond_type
C0 C1 1.264 . S
C0 C5 1.479 . S
C0 C10 1.465 . S
C1 C0 1.264 . S
C1 C3 1.339 . S
C1 H28 0.931 . S
C2 C3 1.395 . S
C2 C4 1.320 . S
C3 C1 1.339 . S
C3 C2 1.395 . S
C3 H29 0.929 . S
C4 C2 1.320 . S
C4 C5 1.405 . S
C4 H30 0.930 . S
C5 C0 1.479 . S
C5 C4 1.405 . S
C5 H31 0.931 . S
U6 O7 2.454 . S
U6 O8 2.458 . S
U6 C9 2.984 . S
U6 C10 2.847 . S
U6 C23 2.882 . S
U6 O24 2.441 . S
U6 O25 2.420 . S
U6 O26 2.455 . S
U6 O27 2.449 . S
O7 U6 2.454 . S
O7 C9 1.353 . S
O8 U6 2.458 . S
O8 C9 1.286 . S
C9 U6 2.984 . S
C9 O7 1.353 . S
C9 O8 1.286 . S
C9 C11 1.363 . S
C10 C0 1.465 . S
C10 U6 2.847 . S
C10 O24 1.249 . S
C10 O25 1.202 . S
C11 C9 1.363 . S
C11 C13 1.408 . S
C11 C16 1.342 . S
C12 C13 1.310 . S
C12 C15 1.461 . S
C12 H32 0.932 . S
C13 C11 1.408 . S
C13 C12 1.310 . S
C13 H33 0.930 . S
C14 C15 1.474 . S
C14 C16 1.285 . S
C14 H34 0.929 . S
C15 C12 1.461 . S
C15 C14 1.474 . S
C16 C11 1.342 . S
C16 C14 1.285 . S
C16 H35 0.930 . S
C17 C20 1.424 . S
C17 C22 1.245 . S
C17 C23 1.428 . S
C18 C21 1.260 . S
C18 C22 1.477 . S
C18 H36 0.932 . S
C19 C20 1.384 . S
C19 C21 1.479 . S
C19 H37 0.929 . S
C20 C17 1.424 . S
C20 C19 1.384 . S
C20 H38 0.928 . S
C21 C18 1.260 . S
C21 C19 1.479 . S
C22 C17 1.245 . S
C22 C18 1.477 . S
C22 H39 0.932 . S
C23 U6 2.882 . S
C23 C17 1.428 . S
C23 O26 1.301 . S
C23 O27 1.282 . S
O24 U6 2.441 . S
O24 C10 1.249 . S
O25 U6 2.420 . S
O25 C10 1.202 . S
O26 U6 2.455 . S
O26 C23 1.301 . S
O27 U6 2.449 . S
O27 C23 1.282 . S
H28 C1 0.931 . S
H29 C3 0.929 . S
H30 C4 0.930 . S
H31 C5 0.931 . S
H32 C12 0.932 . S
H33 C13 0.930 . S
H34 C14 0.929 . S
H35 C16 0.930 . S
H36 C18 0.932 . S
H37 C19 0.929 . S
H38 C20 0.928 . S
H39 C22 0.932 . S
C40 C41 1.264 . S
C40 C45 1.479 . S
C40 C50 1.465 . S
C41 C40 1.264 . S
C41 C43 1.339 . S
C41 H68 0.931 . S
C42 C43 1.395 . S
C42 C44 1.320 . S
C43 C41 1.339 . S
C43 C42 1.395 . S
C43 H69 0.929 . S
C44 C42 1.320 . S
C44 C45 1.405 . S
C44 H70 0.930 . S
C45 C40 1.479 . S
C45 C44 1.405 . S
C45 H71 0.931 . S
U46 O47 2.454 . S
U46 O48 2.458 . S
U46 C49 2.984 . S
U46 C50 2.847 . S
U46 C63 2.882 . S
U46 O64 2.441 . S
U46 O65 2.420 . S
U46 O66 2.455 . S
U46 O67 2.449 . S
O47 U46 2.454 . S
O47 C49 1.353 . S
O48 U46 2.458 . S
O48 C49 1.286 . S
C49 U46 2.984 . S
C49 O47 1.353 . S
C49 O48 1.286 . S
C49 C51 1.363 . S
C50 C40 1.465 . S
C50 U46 2.847 . S
C50 O64 1.249 . S
C50 O65 1.202 . S
C51 C49 1.363 . S
C51 C53 1.408 . S
C51 C56 1.342 . S
C52 C53 1.310 . S
C52 C55 1.461 . S
C52 H72 0.932 . S
C53 C51 1.408 . S
C53 C52 1.310 . S
C53 H73 0.930 . S
C54 C55 1.474 . S
C54 C56 1.285 . S
C54 H74 0.929 . S
C55 C52 1.461 . S
C55 C54 1.474 . S
C56 C51 1.342 . S
C56 C54 1.285 . S
C56 H75 0.930 . S
C57 C60 1.424 . S
C57 C62 1.245 . S
C57 C63 1.428 . S
C58 C61 1.260 . S
C58 C62 1.477 . S
C58 H76 0.932 . S
C59 C60 1.384 . S
C59 C61 1.479 . S
C59 H77 0.929 . S
C60 C57 1.424 . S
C60 C59 1.384 . S
C60 H78 0.928 . S
C61 C58 1.260 . S
C61 C59 1.479 . S
C62 C57 1.245 . S
C62 C58 1.477 . S
C62 H79 0.932 . S
C63 U46 2.882 . S
C63 C57 1.428 . S
C63 O66 1.301 . S
C63 O67 1.282 . S
O64 U46 2.441 . S
O64 C50 1.249 . S
O65 U46 2.420 . S
O65 C50 1.202 . S
O66 U46 2.455 . S
O66 C63 1.301 . S
O67 U46 2.449 . S
O67 C63 1.282 . S
H68 C41 0.931 . S
H69 C43 0.929 . S
H70 C44 0.930 . S
H71 C45 0.931 . S
H72 C52 0.932 . S
H73 C53 0.930 . S
H74 C54 0.929 . S
H75 C56 0.930 . S
H76 C58 0.932 . S
H77 C59 0.929 . S
H78 C60 0.928 . S
H79 C62 0.932 . S
C80 C81 1.264 . S
C80 C85 1.479 . S
C80 C90 1.465 . S
C81 C80 1.264 . S
C81 C83 1.339 . S
C81 H108 0.931 . S
C82 C83 1.395 . S
C82 C84 1.320 . S
C83 C81 1.339 . S
C83 C82 1.395 . S
C83 H109 0.929 . S
C84 C82 1.320 . S
C84 C85 1.405 . S
C84 H110 0.930 . S
C85 C80 1.479 . S
C85 C84 1.405 . S
C85 H111 0.931 . S
U86 O87 2.454 . S
U86 O88 2.458 . S
U86 C89 2.984 . S
U86 C90 2.847 . S
U86 C103 2.882 . S
U86 O104 2.441 . S
U86 O105 2.420 . S
U86 O106 2.455 . S
U86 O107 2.449 . S
O87 U86 2.454 . S
O87 C89 1.353 . S
O88 U86 2.458 . S
O88 C89 1.286 . S
C89 U86 2.984 . S
C89 O87 1.353 . S
C89 O88 1.286 . S
C89 C91 1.363 . S
C90 C80 1.465 . S
C90 U86 2.847 . S
C90 O104 1.249 . S
C90 O105 1.202 . S
C91 C89 1.363 . S
C91 C93 1.408 . S
C91 C96 1.342 . S
C92 C93 1.310 . S
C92 C95 1.461 . S
C92 H112 0.932 . S
C93 C91 1.408 . S
C93 C92 1.310 . S
C93 H113 0.930 . S
C94 C95 1.474 . S
C94 C96 1.285 . S
C94 H114 0.929 . S
C95 C92 1.461 . S
C95 C94 1.474 . S
C96 C91 1.342 . S
C96 C94 1.285 . S
C96 H115 0.930 . S
C97 C100 1.424 . S
C97 C102 1.245 . S
C97 C103 1.428 . S
C98 C101 1.260 . S
C98 C102 1.477 . S
C98 H116 0.932 . S
C99 C100 1.384 . S
C99 C101 1.479 . S
C99 H117 0.929 . S
C100 C97 1.424 . S
C100 C99 1.384 . S
C100 H118 0.928 . S
C101 C98 1.260 . S
C101 C99 1.479 . S
C102 C97 1.245 . S
C102 C98 1.477 . S
C102 H119 0.932 . S
C103 U86 2.882 . S
C103 C97 1.428 . S
C103 O106 1.301 . S
C103 O107 1.282 . S
O104 U86 2.441 . S
O104 C90 1.249 . S
O105 U86 2.420 . S
O105 C90 1.202 . S
O106 U86 2.455 . S
O106 C103 1.301 . S
O107 U86 2.449 . S
O107 C103 1.282 . S
H108 C81 0.931 . S
H109 C83 0.929 . S
H110 C84 0.930 . S
H111 C85 0.931 . S
H112 C92 0.932 . S
H113 C93 0.930 . S
H114 C94 0.929 . S
H115 C96 0.930 . S
H116 C98 0.932 . S
H117 C99 0.929 . S
H118 C100 0.928 . S
H119 C102 0.932 . S
C120 C121 1.264 . S
C120 C125 1.479 . S
C120 C130 1.465 . S
C121 C120 1.264 . S
C121 C123 1.339 . S
C121 H148 0.931 . S
C122 C123 1.395 . S
C122 C124 1.320 . S
C123 C121 1.339 . S
C123 C122 1.395 . S
C123 H149 0.929 . S
C124 C122 1.320 . S
C124 C125 1.405 . S
C124 H150 0.930 . S
C125 C120 1.479 . S
C125 C124 1.405 . S
C125 H151 0.931 . S
U126 O127 2.454 . S
U126 O128 2.458 . S
U126 C129 2.984 . S
U126 C130 2.847 . S
U126 C143 2.882 . S
U126 O144 2.441 . S
U126 O145 2.420 . S
U126 O146 2.455 . S
U126 O147 2.449 . S
O127 U126 2.454 . S
O127 C129 1.353 . S
O128 U126 2.458 . S
O128 C129 1.286 . S
C129 U126 2.984 . S
C129 O127 1.353 . S
C129 O128 1.286 . S
C129 C131 1.363 . S
C130 C120 1.465 . S
C130 U126 2.847 . S
C130 O144 1.249 . S
C130 O145 1.202 . S
C131 C129 1.363 . S
C131 C133 1.408 . S
C131 C136 1.342 . S
C132 C133 1.310 . S
C132 C135 1.461 . S
C132 H152 0.932 . S
C133 C131 1.408 . S
C133 C132 1.310 . S
C133 H153 0.930 . S
C134 C135 1.474 . S
C134 C136 1.285 . S
C134 H154 0.929 . S
C135 C132 1.461 . S
C135 C134 1.474 . S
C136 C131 1.342 . S
C136 C134 1.285 . S
C136 H155 0.930 . S
C137 C140 1.424 . S
C137 C142 1.245 . S
C137 C143 1.428 . S
C138 C141 1.260 . S
C138 C142 1.477 . S
C138 H156 0.932 . S
C139 C140 1.384 . S
C139 C141 1.479 . S
C139 H157 0.929 . S
C140 C137 1.424 . S
C140 C139 1.384 . S
C140 H158 0.928 . S
C141 C138 1.260 . S
C141 C139 1.479 . S
C142 C137 1.245 . S
C142 C138 1.477 . S
C142 H159 0.932 . S
C143 U126 2.882 . S
C143 C137 1.428 . S
C143 O146 1.301 . S
C143 O147 1.282 . S
O144 U126 2.441 . S
O144 C130 1.249 . S
O145 U126 2.420 . S
O145 C130 1.202 . S
O146 U126 2.455 . S
O146 C143 1.301 . S
O147 U126 2.449 . S
O147 C143 1.282 . S
H148 C121 0.931 . S
H149 C123 0.929 . S
H150 C124 0.930 . S
H151 C125 0.931 . S
H152 C132 0.932 . S
H153 C133 0.930 . S
H154 C134 0.929 . S
H155 C136 0.930 . S
H156 C138 0.932 . S
H157 C139 0.929 . S
H158 C140 0.928 . S
H159 C142 0.932 . S
C160 C161 1.264 . S
C160 C165 1.479 . S
C160 C170 1.465 . S
C161 C160 1.264 . S
C161 C163 1.339 . S
C161 H188 0.931 . S
C162 C163 1.395 . S
C162 C164 1.320 . S
C163 C161 1.339 . S
C163 C162 1.395 . S
C163 H189 0.929 . S
C164 C162 1.320 . S
C164 C165 1.405 . S
C164 H190 0.930 . S
C165 C160 1.479 . S
C165 C164 1.405 . S
C165 H191 0.931 . S
U166 O167 2.454 . S
U166 O168 2.458 . S
U166 C169 2.984 . S
U166 C170 2.847 . S
U166 C183 2.882 . S
U166 O184 2.441 . S
U166 O185 2.420 . S
U166 O186 2.455 . S
U166 O187 2.449 . S
O167 U166 2.454 . S
O167 C169 1.353 . S
O168 U166 2.458 . S
O168 C169 1.286 . S
C169 U166 2.984 . S
C169 O167 1.353 . S
C169 O168 1.286 . S
C169 C171 1.363 . S
C170 C160 1.465 . S
C170 U166 2.847 . S
C170 O184 1.249 . S
C170 O185 1.202 . S
C171 C169 1.363 . S
C171 C173 1.408 . S
C171 C176 1.342 . S
C172 C173 1.310 . S
C172 C175 1.461 . S
C172 H192 0.932 . S
C173 C171 1.408 . S
C173 C172 1.310 . S
C173 H193 0.930 . S
C174 C175 1.474 . S
C174 C176 1.285 . S
C174 H194 0.929 . S
C175 C172 1.461 . S
C175 C174 1.474 . S
C176 C171 1.342 . S
C176 C174 1.285 . S
C176 H195 0.930 . S
C177 C180 1.424 . S
C177 C182 1.245 . S
C177 C183 1.428 . S
C178 C181 1.260 . S
C178 C182 1.477 . S
C178 H196 0.932 . S
C179 C180 1.384 . S
C179 C181 1.479 . S
C179 H197 0.929 . S
C180 C177 1.424 . S
C180 C179 1.384 . S
C180 H198 0.928 . S
C181 C178 1.260 . S
C181 C179 1.479 . S
C182 C177 1.245 . S
C182 C178 1.477 . S
C182 H199 0.932 . S
C183 U166 2.882 . S
C183 C177 1.428 . S
C183 O186 1.301 . S
C183 O187 1.282 . S
O184 U166 2.441 . S
O184 C170 1.249 . S
O185 U166 2.420 . S
O185 C170 1.202 . S
O186 U166 2.455 . S
O186 C183 1.301 . S
O187 U166 2.449 . S
O187 C183 1.282 . S
H188 C161 0.931 . S
H189 C163 0.929 . S
H190 C164 0.930 . S
H191 C165 0.931 . S
H192 C172 0.932 . S
H193 C173 0.930 . S
H194 C174 0.929 . S
H195 C176 0.930 . S
H196 C178 0.932 . S
H197 C179 0.929 . S
H198 C180 0.928 . S
H199 C182 0.932 . S
C200 C201 1.264 . S
C200 C205 1.479 . S
C200 C210 1.465 . S
C201 C200 1.264 . S
C201 C203 1.339 . S
C201 H228 0.931 . S
C202 C203 1.395 . S
C202 C204 1.320 . S
C203 C201 1.339 . S
C203 C202 1.395 . S
C203 H229 0.929 . S
C204 C202 1.320 . S
C204 C205 1.405 . S
C204 H230 0.930 . S
C205 C200 1.479 . S
C205 C204 1.405 . S
C205 H231 0.931 . S
U206 O207 2.454 . S
U206 O208 2.458 . S
U206 C209 2.984 . S
U206 C210 2.847 . S
U206 C223 2.882 . S
U206 O224 2.441 . S
U206 O225 2.420 . S
U206 O226 2.455 . S
U206 O227 2.449 . S
O207 U206 2.454 . S
O207 C209 1.353 . S
O208 U206 2.458 . S
O208 C209 1.286 . S
C209 U206 2.984 . S
C209 O207 1.353 . S
C209 O208 1.286 . S
C209 C211 1.363 . S
C210 C200 1.465 . S
C210 U206 2.847 . S
C210 O224 1.249 . S
C210 O225 1.202 . S
C211 C209 1.363 . S
C211 C213 1.408 . S
C211 C216 1.342 . S
C212 C213 1.310 . S
C212 C215 1.461 . S
C212 H232 0.932 . S
C213 C211 1.408 . S
C213 C212 1.310 . S
C213 H233 0.930 . S
C214 C215 1.474 . S
C214 C216 1.285 . S
C214 H234 0.929 . S
C215 C212 1.461 . S
C215 C214 1.474 . S
C216 C211 1.342 . S
C216 C214 1.285 . S
C216 H235 0.930 . S
C217 C220 1.424 . S
C217 C222 1.245 . S
C217 C223 1.428 . S
C218 C221 1.260 . S
C218 C222 1.477 . S
C218 H236 0.932 . S
C219 C220 1.384 . S
C219 C221 1.479 . S
C219 H237 0.929 . S
C220 C217 1.424 . S
C220 C219 1.384 . S
C220 H238 0.928 . S
C221 C218 1.260 . S
C221 C219 1.479 . S
C222 C217 1.245 . S
C222 C218 1.477 . S
C222 H239 0.932 . S
C223 U206 2.882 . S
C223 C217 1.428 . S
C223 O226 1.301 . S
C223 O227 1.282 . S
O224 U206 2.441 . S
O224 C210 1.249 . S
O225 U206 2.420 . S
O225 C210 1.202 . S
O226 U206 2.455 . S
O226 C223 1.301 . S
O227 U206 2.449 . S
O227 C223 1.282 . S
H228 C201 0.931 . S
H229 C203 0.929 . S
H230 C204 0.930 . S
H231 C205 0.931 . S
H232 C212 0.932 . S
H233 C213 0.930 . S
H234 C214 0.929 . S
H235 C216 0.930 . S
H236 C218 0.932 . S
H237 C219 0.929 . S
H238 C220 0.928 . S
H239 C222 0.932 . S
C240 C241 1.264 . S
C240 C245 1.479 . S
C240 C250 1.465 . S
C241 C240 1.264 . S
C241 C243 1.339 . S
C241 H268 0.931 . S
C242 C243 1.395 . S
C242 C244 1.320 . S
C243 C241 1.339 . S
C243 C242 1.395 . S
C243 H269 0.929 . S
C244 C242 1.320 . S
C244 C245 1.405 . S
C244 H270 0.930 . S
C245 C240 1.479 . S
C245 C244 1.405 . S
C245 H271 0.931 . S
U246 O247 2.454 . S
U246 O248 2.458 . S
U246 C249 2.984 . S
U246 C250 2.847 . S
U246 C263 2.882 . S
U246 O264 2.441 . S
U246 O265 2.420 . S
U246 O266 2.455 . S
U246 O267 2.449 . S
O247 U246 2.454 . S
O247 C249 1.353 . S
O248 U246 2.458 . S
O248 C249 1.286 . S
C249 U246 2.984 . S
C249 O247 1.353 . S
C249 O248 1.286 . S
C249 C251 1.363 . S
C250 C240 1.465 . S
C250 U246 2.847 . S
C250 O264 1.249 . S
C250 O265 1.202 . S
C251 C249 1.363 . S
C251 C253 1.408 . S
C251 C256 1.342 . S
C252 C253 1.310 . S
C252 C255 1.461 . S
C252 H272 0.932 . S
C253 C251 1.408 . S
C253 C252 1.310 . S
C253 H273 0.930 . S
C254 C255 1.474 . S
C254 C256 1.285 . S
C254 H274 0.929 . S
C255 C252 1.461 . S
C255 C254 1.474 . S
C256 C251 1.342 . S
C256 C254 1.285 . S
C256 H275 0.930 . S
C257 C260 1.424 . S
C257 C262 1.245 . S
C257 C263 1.428 . S
C258 C261 1.260 . S
C258 C262 1.477 . S
C258 H276 0.932 . S
C259 C260 1.384 . S
C259 C261 1.479 . S
C259 H277 0.929 . S
C260 C257 1.424 . S
C260 C259 1.384 . S
C260 H278 0.928 . S
C261 C258 1.260 . S
C261 C259 1.479 . S
C262 C257 1.245 . S
C262 C258 1.477 . S
C262 H279 0.932 . S
C263 U246 2.882 . S
C263 C257 1.428 . S
C263 O266 1.301 . S
C263 O267 1.282 . S
O264 U246 2.441 . S
O264 C250 1.249 . S
O265 U246 2.420 . S
O265 C250 1.202 . S
O266 U246 2.455 . S
O266 C263 1.301 . S
O267 U246 2.449 . S
O267 C263 1.282 . S
H268 C241 0.931 . S
H269 C243 0.929 . S
H270 C244 0.930 . S
H271 C245 0.931 . S
H272 C252 0.932 . S
H273 C253 0.930 . S
H274 C254 0.929 . S
H275 C256 0.930 . S
H276 C258 0.932 . S
H277 C259 0.929 . S
H278 C260 0.928 . S
H279 C262 0.932 . S
C280 C281 1.264 . S
C280 C285 1.479 . S
C280 C290 1.465 . S
C281 C280 1.264 . S
C281 C283 1.339 . S
C281 H308 0.931 . S
C282 C283 1.395 . S
C282 C284 1.320 . S
C283 C281 1.339 . S
C283 C282 1.395 . S
C283 H309 0.929 . S
C284 C282 1.320 . S
C284 C285 1.405 . S
C284 H310 0.930 . S
C285 C280 1.479 . S
C285 C284 1.405 . S
C285 H311 0.931 . S
U286 O287 2.454 . S
U286 O288 2.458 . S
U286 C289 2.984 . S
U286 C290 2.847 . S
U286 C303 2.882 . S
U286 O304 2.441 . S
U286 O305 2.420 . S
U286 O306 2.455 . S
U286 O307 2.449 . S
O287 U286 2.454 . S
O287 C289 1.353 . S
O288 U286 2.458 . S
O288 C289 1.286 . S
C289 U286 2.984 . S
C289 O287 1.353 . S
C289 O288 1.286 . S
C289 C291 1.363 . S
C290 C280 1.465 . S
C290 U286 2.847 . S
C290 O304 1.249 . S
C290 O305 1.202 . S
C291 C289 1.363 . S
C291 C293 1.408 . S
C291 C296 1.342 . S
C292 C293 1.310 . S
C292 C295 1.461 . S
C292 H312 0.932 . S
C293 C291 1.408 . S
C293 C292 1.310 . S
C293 H313 0.930 . S
C294 C295 1.474 . S
C294 C296 1.285 . S
C294 H314 0.929 . S
C295 C292 1.461 . S
C295 C294 1.474 . S
C296 C291 1.342 . S
C296 C294 1.285 . S
C296 H315 0.930 . S
C297 C300 1.424 . S
C297 C302 1.245 . S
C297 C303 1.428 . S
C298 C301 1.260 . S
C298 C302 1.477 . S
C298 H316 0.932 . S
C299 C300 1.384 . S
C299 C301 1.479 . S
C299 H317 0.929 . S
C300 C297 1.424 . S
C300 C299 1.384 . S
C300 H318 0.928 . S
C301 C298 1.260 . S
C301 C299 1.479 . S
C302 C297 1.245 . S
C302 C298 1.477 . S
C302 H319 0.932 . S
C303 U286 2.882 . S
C303 C297 1.428 . S
C303 O306 1.301 . S
C303 O307 1.282 . S
O304 U286 2.441 . S
O304 C290 1.249 . S
O305 U286 2.420 . S
O305 C290 1.202 . S
O306 U286 2.455 . S
O306 C303 1.301 . S
O307 U286 2.449 . S
O307 C303 1.282 . S
H308 C281 0.931 . S
H309 C283 0.929 . S
H310 C284 0.930 . S
H311 C285 0.931 . S
H312 C292 0.932 . S
H313 C293 0.930 . S
H314 C294 0.929 . S
H315 C296 0.930 . S
H316 C298 0.932 . S
H317 C299 0.929 . S
H318 C300 0.928 . S
H319 C302 0.932 . S
C320 C321 1.264 . S
C320 C325 1.479 . S
C320 C330 1.465 . S
C321 C320 1.264 . S
C321 C323 1.339 . S
C321 H348 0.931 . S
C322 C323 1.395 . S
C322 C324 1.320 . S
C323 C321 1.339 . S
C323 C322 1.395 . S
C323 H349 0.929 . S
C324 C322 1.320 . S
C324 C325 1.405 . S
C324 H350 0.930 . S
C325 C320 1.479 . S
C325 C324 1.405 . S
C325 H351 0.931 . S
U326 O327 2.454 . S
U326 O328 2.458 . S
U326 C329 2.984 . S
U326 C330 2.847 . S
U326 C343 2.882 . S
U326 O344 2.441 . S
U326 O345 2.420 . S
U326 O346 2.455 . S
U326 O347 2.449 . S
O327 U326 2.454 . S
O327 C329 1.353 . S
O328 U326 2.458 . S
O328 C329 1.286 . S
C329 U326 2.984 . S
C329 O327 1.353 . S
C329 O328 1.286 . S
C329 C331 1.363 . S
C330 C320 1.465 . S
C330 U326 2.847 . S
C330 O344 1.249 . S
C330 O345 1.202 . S
C331 C329 1.363 . S
C331 C333 1.408 . S
C331 C336 1.342 . S
C332 C333 1.310 . S
C332 C335 1.461 . S
C332 H352 0.932 . S
C333 C331 1.408 . S
C333 C332 1.310 . S
C333 H353 0.930 . S
C334 C335 1.474 . S
C334 C336 1.285 . S
C334 H354 0.929 . S
C335 C332 1.461 . S
C335 C334 1.474 . S
C336 C331 1.342 . S
C336 C334 1.285 . S
C336 H355 0.930 . S
C337 C340 1.424 . S
C337 C342 1.245 . S
C337 C343 1.428 . S
C338 C341 1.260 . S
C338 C342 1.477 . S
C338 H356 0.932 . S
C339 C340 1.384 . S
C339 C341 1.479 . S
C339 H357 0.929 . S
C340 C337 1.424 . S
C340 C339 1.384 . S
C340 H358 0.928 . S
C341 C338 1.260 . S
C341 C339 1.479 . S
C342 C337 1.245 . S
C342 C338 1.477 . S
C342 H359 0.932 . S
C343 U326 2.882 . S
C343 C337 1.428 . S
C343 O346 1.301 . S
C343 O347 1.282 . S
O344 U326 2.441 . S
O344 C330 1.249 . S
O345 U326 2.420 . S
O345 C330 1.202 . S
O346 U326 2.455 . S
O346 C343 1.301 . S
O347 U326 2.449 . S
O347 C343 1.282 . S
H348 C321 0.931 . S
H349 C323 0.929 . S
H350 C324 0.930 . S
H351 C325 0.931 . S
H352 C332 0.932 . S
H353 C333 0.930 . S
H354 C334 0.929 . S
H355 C336 0.930 . S
H356 C338 0.932 . S
H357 C339 0.929 . S
H358 C340 0.928 . S
H359 C342 0.932 . S
C360 C361 1.264 . S
C360 C365 1.479 . S
C360 C370 1.465 . S
C361 C360 1.264 . S
C361 C363 1.339 . S
C361 H388 0.931 . S
C362 C363 1.395 . S
C362 C364 1.320 . S
C363 C361 1.339 . S
C363 C362 1.395 . S
C363 H389 0.929 . S
C364 C362 1.320 . S
C364 C365 1.405 . S
C364 H390 0.930 . S
C365 C360 1.479 . S
C365 C364 1.405 . S
C365 H391 0.931 . S
U366 O367 2.454 . S
U366 O368 2.458 . S
U366 C369 2.984 . S
U366 C370 2.847 . S
U366 C383 2.882 . S
U366 O384 2.441 . S
U366 O385 2.420 . S
U366 O386 2.455 . S
U366 O387 2.449 . S
O367 U366 2.454 . S
O367 C369 1.353 . S
O368 U366 2.458 . S
O368 C369 1.286 . S
C369 U366 2.984 . S
C369 O367 1.353 . S
C369 O368 1.286 . S
C369 C371 1.363 . S
C370 C360 1.465 . S
C370 U366 2.847 . S
C370 O384 1.249 . S
C370 O385 1.202 . S
C371 C369 1.363 . S
C371 C373 1.408 . S
C371 C376 1.342 . S
C372 C373 1.310 . S
C372 C375 1.461 . S
C372 H392 0.932 . S
C373 C371 1.408 . S
C373 C372 1.310 . S
C373 H393 0.930 . S
C374 C375 1.474 . S
C374 C376 1.285 . S
C374 H394 0.929 . S
C375 C372 1.461 . S
C375 C374 1.474 . S
C376 C371 1.342 . S
C376 C374 1.285 . S
C376 H395 0.930 . S
C377 C380 1.424 . S
C377 C382 1.245 . S
C377 C383 1.428 . S
C378 C381 1.260 . S
C378 C382 1.477 . S
C378 H396 0.932 . S
C379 C380 1.384 . S
C379 C381 1.479 . S
C379 H397 0.929 . S
C380 C377 1.424 . S
C380 C379 1.384 . S
C380 H398 0.928 . S
C381 C378 1.260 . S
C381 C379 1.479 . S
C382 C377 1.245 . S
C382 C378 1.477 . S
C382 H399 0.932 . S
C383 U366 2.882 . S
C383 C377 1.428 . S
C383 O386 1.301 . S
C383 O387 1.282 . S
O384 U366 2.441 . S
O384 C370 1.249 . S
O385 U366 2.420 . S
O385 C370 1.202 . S
O386 U366 2.455 . S
O386 C383 1.301 . S
O387 U366 2.449 . S
O387 C383 1.282 . S
H388 C361 0.931 . S
H389 C363 0.929 . S
H390 C364 0.930 . S
H391 C365 0.931 . S
H392 C372 0.932 . S
H393 C373 0.930 . S
H394 C374 0.929 . S
H395 C376 0.930 . S
H396 C378 0.932 . S
H397 C379 0.929 . S
H398 C380 0.928 . S
H399 C382 0.932 . S
C400 C401 1.264 . S
C400 C405 1.479 . S
C400 C410 1.465 . S
C401 C400 1.264 . S
C401 C403 1.339 . S
C401 H428 0.931 . S
C402 C403 1.395 . S
C402 C404 1.320 . S
C403 C401 1.339 . S
C403 C402 1.395 . S
C403 H429 0.929 . S
C404 C402 1.320 . S
C404 C405 1.405 . S
C404 H430 0.930 . S
C405 C400 1.479 . S
C405 C404 1.405 . S
C405 H431 0.931 . S
U406 O407 2.454 . S
U406 O408 2.458 . S
U406 C409 2.984 . S
U406 C410 2.847 . S
U406 C423 2.882 . S
U406 O424 2.441 . S
U406 O425 2.420 . S
U406 O426 2.455 . S
U406 O427 2.449 . S
O407 U406 2.454 . S
O407 C409 1.353 . S
O408 U406 2.458 . S
O408 C409 1.286 . S
C409 U406 2.984 . S
C409 O407 1.353 . S
C409 O408 1.286 . S
C409 C411 1.363 . S
C410 C400 1.465 . S
C410 U406 2.847 . S
C410 O424 1.249 . S
C410 O425 1.202 . S
C411 C409 1.363 . S
C411 C413 1.408 . S
C411 C416 1.342 . S
C412 C413 1.310 . S
C412 C415 1.461 . S
C412 H432 0.932 . S
C413 C411 1.408 . S
C413 C412 1.310 . S
C413 H433 0.930 . S
C414 C415 1.474 . S
C414 C416 1.285 . S
C414 H434 0.929 . S
C415 C412 1.461 . S
C415 C414 1.474 . S
C416 C411 1.342 . S
C416 C414 1.285 . S
C416 H435 0.930 . S
C417 C420 1.424 . S
C417 C422 1.245 . S
C417 C423 1.428 . S
C418 C421 1.260 . S
C418 C422 1.477 . S
C418 H436 0.932 . S
C419 C420 1.384 . S
C419 C421 1.479 . S
C419 H437 0.929 . S
C420 C417 1.424 . S
C420 C419 1.384 . S
C420 H438 0.928 . S
C421 C418 1.260 . S
C421 C419 1.479 . S
C422 C417 1.245 . S
C422 C418 1.477 . S
C422 H439 0.932 . S
C423 U406 2.882 . S
C423 C417 1.428 . S
C423 O426 1.301 . S
C423 O427 1.282 . S
O424 U406 2.441 . S
O424 C410 1.249 . S
O425 U406 2.420 . S
O425 C410 1.202 . S
O426 U406 2.455 . S
O426 C423 1.301 . S
O427 U406 2.449 . S
O427 C423 1.282 . S
H428 C401 0.931 . S
H429 C403 0.929 . S
H430 C404 0.930 . S
H431 C405 0.931 . S
H432 C412 0.932 . S
H433 C413 0.930 . S
H434 C414 0.929 . S
H435 C416 0.930 . S
H436 C418 0.932 . S
H437 C419 0.929 . S
H438 C420 0.928 . S
H439 C422 0.932 . S
C440 C441 1.264 . S
C440 C445 1.479 . S
C440 C450 1.465 . S
C441 C440 1.264 . S
C441 C443 1.339 . S
C441 H468 0.931 . S
C442 C443 1.395 . S
C442 C444 1.320 . S
C443 C441 1.339 . S
C443 C442 1.395 . S
C443 H469 0.929 . S
C444 C442 1.320 . S
C444 C445 1.405 . S
C444 H470 0.930 . S
C445 C440 1.479 . S
C445 C444 1.405 . S
C445 H471 0.931 . S
U446 O447 2.454 . S
U446 O448 2.458 . S
U446 C449 2.984 . S
U446 C450 2.847 . S
U446 C463 2.882 . S
U446 O464 2.441 . S
U446 O465 2.420 . S
U446 O466 2.455 . S
U446 O467 2.449 . S
O447 U446 2.454 . S
O447 C449 1.353 . S
O448 U446 2.458 . S
O448 C449 1.286 . S
C449 U446 2.984 . S
C449 O447 1.353 . S
C449 O448 1.286 . S
C449 C451 1.363 . S
C450 C440 1.465 . S
C450 U446 2.847 . S
C450 O464 1.249 . S
C450 O465 1.202 . S
C451 C449 1.363 . S
C451 C453 1.408 . S
C451 C456 1.342 . S
C452 C453 1.310 . S
C452 C455 1.461 . S
C452 H472 0.932 . S
C453 C451 1.408 . S
C453 C452 1.310 . S
C453 H473 0.930 . S
C454 C455 1.474 . S
C454 C456 1.285 . S
C454 H474 0.929 . S
C455 C452 1.461 . S
C455 C454 1.474 . S
C456 C451 1.342 . S
C456 C454 1.285 . S
C456 H475 0.930 . S
C457 C460 1.424 . S
C457 C462 1.245 . S
C457 C463 1.428 . S
C458 C461 1.260 . S
C458 C462 1.477 . S
C458 H476 0.932 . S
C459 C460 1.384 . S
C459 C461 1.479 . S
C459 H477 0.929 . S
C460 C457 1.424 . S
C460 C459 1.384 . S
C460 H478 0.928 . S
C461 C458 1.260 . S
C461 C459 1.479 . S
C462 C457 1.245 . S
C462 C458 1.477 . S
C462 H479 0.932 . S
C463 U446 2.882 . S
C463 C457 1.428 . S
C463 O466 1.301 . S
C463 O467 1.282 . S
O464 U446 2.441 . S
O464 C450 1.249 . S
O465 U446 2.420 . S
O465 C450 1.202 . S
O466 U446 2.455 . S
O466 C463 1.301 . S
O467 U446 2.449 . S
O467 C463 1.282 . S
H468 C441 0.931 . S
H469 C443 0.929 . S
H470 C444 0.930 . S
H471 C445 0.931 . S
H472 C452 0.932 . S
H473 C453 0.930 . S
H474 C454 0.929 . S
H475 C456 0.930 . S
H476 C458 0.932 . S
H477 C459 0.929 . S
H478 C460 0.928 . S
H479 C462 0.932 . S
C480 C481 1.264 . S
C480 C485 1.479 . S
C480 C490 1.465 . S
C481 C480 1.264 . S
C481 C483 1.339 . S
C481 H508 0.931 . S
C482 C483 1.395 . S
C482 C484 1.320 . S
C483 C481 1.339 . S
C483 C482 1.395 . S
C483 H509 0.929 . S
C484 C482 1.320 . S
C484 C485 1.405 . S
C484 H510 0.930 . S
C485 C480 1.479 . S
C485 C484 1.405 . S
C485 H511 0.931 . S
U486 O487 2.454 . S
U486 O488 2.458 . S
U486 C489 2.984 . S
U486 C490 2.847 . S
U486 C503 2.882 . S
U486 O504 2.441 . S
U486 O505 2.420 . S
U486 O506 2.455 . S
U486 O507 2.449 . S
O487 U486 2.454 . S
O487 C489 1.353 . S
O488 U486 2.458 . S
O488 C489 1.286 . S
C489 U486 2.984 . S
C489 O487 1.353 . S
C489 O488 1.286 . S
C489 C491 1.363 . S
C490 C480 1.465 . S
C490 U486 2.847 . S
C490 O504 1.249 . S
C490 O505 1.202 . S
C491 C489 1.363 . S
C491 C493 1.408 . S
C491 C496 1.342 . S
C492 C493 1.310 . S
C492 C495 1.461 . S
C492 H512 0.932 . S
C493 C491 1.408 . S
C493 C492 1.310 . S
C493 H513 0.930 . S
C494 C495 1.474 . S
C494 C496 1.285 . S
C494 H514 0.929 . S
C495 C492 1.461 . S
C495 C494 1.474 . S
C496 C491 1.342 . S
C496 C494 1.285 . S
C496 H515 0.930 . S
C497 C500 1.424 . S
C497 C502 1.245 . S
C497 C503 1.428 . S
C498 C501 1.260 . S
C498 C502 1.477 . S
C498 H516 0.932 . S
C499 C500 1.384 . S
C499 C501 1.479 . S
C499 H517 0.929 . S
C500 C497 1.424 . S
C500 C499 1.384 . S
C500 H518 0.928 . S
C501 C498 1.260 . S
C501 C499 1.479 . S
C502 C497 1.245 . S
C502 C498 1.477 . S
C502 H519 0.932 . S
C503 U486 2.882 . S
C503 C497 1.428 . S
C503 O506 1.301 . S
C503 O507 1.282 . S
O504 U486 2.441 . S
O504 C490 1.249 . S
O505 U486 2.420 . S
O505 C490 1.202 . S
O506 U486 2.455 . S
O506 C503 1.301 . S
O507 U486 2.449 . S
O507 C503 1.282 . S
H508 C481 0.931 . S
H509 C483 0.929 . S
H510 C484 0.930 . S
H511 C485 0.931 . S
H512 C492 0.932 . S
H513 C493 0.930 . S
H514 C494 0.929 . S
H515 C496 0.930 . S
H516 C498 0.932 . S
H517 C499 0.929 . S
H518 C500 0.928 . S
H519 C502 0.932 . S
C520 C521 1.264 . S
C520 C525 1.479 . S
C520 C530 1.465 . S
C521 C520 1.264 . S
C521 C523 1.339 . S
C521 H548 0.931 . S
C522 C523 1.395 . S
C522 C524 1.320 . S
C523 C521 1.339 . S
C523 C522 1.395 . S
C523 H549 0.929 . S
C524 C522 1.320 . S
C524 C525 1.405 . S
C524 H550 0.930 . S
C525 C520 1.479 . S
C525 C524 1.405 . S
C525 H551 0.931 . S
U526 O527 2.454 . S
U526 O528 2.458 . S
U526 C529 2.984 . S
U526 C530 2.847 . S
U526 C543 2.882 . S
U526 O544 2.441 . S
U526 O545 2.420 . S
U526 O546 2.455 . S
U526 O547 2.449 . S
O527 U526 2.454 . S
O527 C529 1.353 . S
O528 U526 2.458 . S
O528 C529 1.286 . S
C529 U526 2.984 . S
C529 O527 1.353 . S
C529 O528 1.286 . S
C529 C531 1.363 . S
C530 C520 1.465 . S
C530 U526 2.847 . S
C530 O544 1.249 . S
C530 O545 1.202 . S
C531 C529 1.363 . S
C531 C533 1.408 . S
C531 C536 1.342 . S
C532 C533 1.310 . S
C532 C535 1.461 . S
C532 H552 0.932 . S
C533 C531 1.408 . S
C533 C532 1.310 . S
C533 H553 0.930 . S
C534 C535 1.474 . S
C534 C536 1.285 . S
C534 H554 0.929 . S
C535 C532 1.461 . S
C535 C534 1.474 . S
C536 C531 1.342 . S
C536 C534 1.285 . S
C536 H555 0.930 . S
C537 C540 1.424 . S
C537 C542 1.245 . S
C537 C543 1.428 . S
C538 C541 1.260 . S
C538 C542 1.477 . S
C538 H556 0.932 . S
C539 C540 1.384 . S
C539 C541 1.479 . S
C539 H557 0.929 . S
C540 C537 1.424 . S
C540 C539 1.384 . S
C540 H558 0.928 . S
C541 C538 1.260 . S
C541 C539 1.479 . S
C542 C537 1.245 . S
C542 C538 1.477 . S
C542 H559 0.932 . S
C543 U526 2.882 . S
C543 C537 1.428 . S
C543 O546 1.301 . S
C543 O547 1.282 . S
O544 U526 2.441 . S
O544 C530 1.249 . S
O545 U526 2.420 . S
O545 C530 1.202 . S
O546 U526 2.455 . S
O546 C543 1.301 . S
O547 U526 2.449 . S
O547 C543 1.282 . S
H548 C521 0.931 . S
H549 C523 0.929 . S
H550 C524 0.930 . S
H551 C525 0.931 . S
H552 C532 0.932 . S
H553 C533 0.930 . S
H554 C534 0.929 . S
H555 C536 0.930 . S
H556 C538 0.932 . S
H557 C539 0.929 . S
H558 C540 0.928 . S
H559 C542 0.932 . S
C560 C561 1.264 . S
C560 C565 1.479 . S
C560 C570 1.465 . S
C561 C560 1.264 . S
C561 C563 1.339 . S
C561 H588 0.931 . S
C562 C563 1.395 . S
C562 C564 1.320 . S
C563 C561 1.339 . S
C563 C562 1.395 . S
C563 H589 0.929 . S
C564 C562 1.320 . S
C564 C565 1.405 . S
C564 H590 0.930 . S
C565 C560 1.479 . S
C565 C564 1.405 . S
C565 H591 0.931 . S
U566 O567 2.454 . S
U566 O568 2.458 . S
U566 C569 2.984 . S
U566 C570 2.847 . S
U566 C583 2.882 . S
U566 O584 2.441 . S
U566 O585 2.420 . S
U566 O586 2.455 . S
U566 O587 2.449 . S
O567 U566 2.454 . S
O567 C569 1.353 . S
O568 U566 2.458 . S
O568 C569 1.286 . S
C569 U566 2.984 . S
C569 O567 1.353 . S
C569 O568 1.286 . S
C569 C571 1.363 . S
C570 C560 1.465 . S
C570 U566 2.847 . S
C570 O584 1.249 . S
C570 O585 1.202 . S
C571 C569 1.363 . S
C571 C573 1.408 . S
C571 C576 1.342 . S
C572 C573 1.310 . S
C572 C575 1.461 . S
C572 H592 0.932 . S
C573 C571 1.408 . S
C573 C572 1.310 . S
C573 H593 0.930 . S
C574 C575 1.474 . S
C574 C576 1.285 . S
C574 H594 0.929 . S
C575 C572 1.461 . S
C575 C574 1.474 . S
C576 C571 1.342 . S
C576 C574 1.285 . S
C576 H595 0.930 . S
C577 C580 1.424 . S
C577 C582 1.245 . S
C577 C583 1.428 . S
C578 C581 1.260 . S
C578 C582 1.477 . S
C578 H596 0.932 . S
C579 C580 1.384 . S
C579 C581 1.479 . S
C579 H597 0.929 . S
C580 C577 1.424 . S
C580 C579 1.384 . S
C580 H598 0.928 . S
C581 C578 1.260 . S
C581 C579 1.479 . S
C582 C577 1.245 . S
C582 C578 1.477 . S
C582 H599 0.932 . S
C583 U566 2.882 . S
C583 C577 1.428 . S
C583 O586 1.301 . S
C583 O587 1.282 . S
O584 U566 2.441 . S
O584 C570 1.249 . S
O585 U566 2.420 . S
O585 C570 1.202 . S
O586 U566 2.455 . S
O586 C583 1.301 . S
O587 U566 2.449 . S
O587 C583 1.282 . S
H588 C561 0.931 . S
H589 C563 0.929 . S
H590 C564 0.930 . S
H591 C565 0.931 . S
H592 C572 0.932 . S
H593 C573 0.930 . S
H594 C574 0.929 . S
H595 C576 0.930 . S
H596 C578 0.932 . S
H597 C579 0.929 . S
H598 C580 0.928 . S
H599 C582 0.932 . S
C600 C601 1.264 . S
C600 C605 1.479 . S
C600 C610 1.465 . S
C601 C600 1.264 . S
C601 C603 1.339 . S
C601 H628 0.931 . S
C602 C603 1.395 . S
C602 C604 1.320 . S
C603 C601 1.339 . S
C603 C602 1.395 . S
C603 H629 0.929 . S
C604 C602 1.320 . S
C604 C605 1.405 . S
C604 H630 0.930 . S
C605 C600 1.479 . S
C605 C604 1.405 . S
C605 H631 0.931 . S
U606 O607 2.454 . S
U606 O608 2.458 . S
U606 C609 2.984 . S
U606 C610 2.847 . S
U606 C623 2.882 . S
U606 O624 2.441 . S
U606 O625 2.420 . S
U606 O626 2.455 . S
U606 O627 2.449 . S
O607 U606 2.454 . S
O607 C609 1.353 . S
O608 U606 2.458 . S
O608 C609 1.286 . S
C609 U606 2.984 . S
C609 O607 1.353 . S
C609 O608 1.286 . S
C609 C611 1.363 . S
C610 C600 1.465 . S
C610 U606 2.847 . S
C610 O624 1.249 . S
C610 O625 1.202 . S
C611 C609 1.363 . S
C611 C613 1.408 . S
C611 C616 1.342 . S
C612 C613 1.310 . S
C612 C615 1.461 . S
C612 H632 0.932 . S
C613 C611 1.408 . S
C613 C612 1.310 . S
C613 H633 0.930 . S
C614 C615 1.474 . S
C614 C616 1.285 . S
C614 H634 0.929 . S
C615 C612 1.461 . S
C615 C614 1.474 . S
C616 C611 1.342 . S
C616 C614 1.285 . S
C616 H635 0.930 . S
C617 C620 1.424 . S
C617 C622 1.245 . S
C617 C623 1.428 . S
C618 C621 1.260 . S
C618 C622 1.477 . S
C618 H636 0.932 . S
C619 C620 1.384 . S
C619 C621 1.479 . S
C619 H637 0.929 . S
C620 C617 1.424 . S
C620 C619 1.384 . S
C620 H638 0.928 . S
C621 C618 1.260 . S
C621 C619 1.479 . S
C622 C617 1.245 . S
C622 C618 1.477 . S
C622 H639 0.932 . S
C623 U606 2.882 . S
C623 C617 1.428 . S
C623 O626 1.301 . S
C623 O627 1.282 . S
O624 U606 2.441 . S
O624 C610 1.249 . S
O625 U606 2.420 . S
O625 C610 1.202 . S
O626 U606 2.455 . S
O626 C623 1.301 . S
O627 U606 2.449 . S
O627 C623 1.282 . S
H628 C601 0.931 . S
H629 C603 0.929 . S
H630 C604 0.930 . S
H631 C605 0.931 . S
H632 C612 0.932 . S
H633 C613 0.930 . S
H634 C614 0.929 . S
H635 C616 0.930 . S
H636 C618 0.932 . S
H637 C619 0.929 . S
H638 C620 0.928 . S
H639 C622 0.932 . S
C640 C641 1.264 . S
C640 C645 1.479 . S
C640 C650 1.465 . S
C641 C640 1.264 . S
C641 C643 1.339 . S
C641 H668 0.931 . S
C642 C643 1.395 . S
C642 C644 1.320 . S
C643 C641 1.339 . S
C643 C642 1.395 . S
C643 H669 0.929 . S
C644 C642 1.320 . S
C644 C645 1.405 . S
C644 H670 0.930 . S
C645 C640 1.479 . S
C645 C644 1.405 . S
C645 H671 0.931 . S
U646 O647 2.454 . S
U646 O648 2.458 . S
U646 C649 2.984 . S
U646 C650 2.847 . S
U646 C663 2.882 . S
U646 O664 2.441 . S
U646 O665 2.420 . S
U646 O666 2.455 . S
U646 O667 2.449 . S
O647 U646 2.454 . S
O647 C649 1.353 . S
O648 U646 2.458 . S
O648 C649 1.286 . S
C649 U646 2.984 . S
C649 O647 1.353 . S
C649 O648 1.286 . S
C649 C651 1.363 . S
C650 C640 1.465 . S
C650 U646 2.847 . S
C650 O664 1.249 . S
C650 O665 1.202 . S
C651 C649 1.363 . S
C651 C653 1.408 . S
C651 C656 1.342 . S
C652 C653 1.310 . S
C652 C655 1.461 . S
C652 H672 0.932 . S
C653 C651 1.408 . S
C653 C652 1.310 . S
C653 H673 0.930 . S
C654 C655 1.474 . S
C654 C656 1.285 . S
C654 H674 0.929 . S
C655 C652 1.461 . S
C655 C654 1.474 . S
C656 C651 1.342 . S
C656 C654 1.285 . S
C656 H675 0.930 . S
C657 C660 1.424 . S
C657 C662 1.245 . S
C657 C663 1.428 . S
C658 C661 1.260 . S
C658 C662 1.477 . S
C658 H676 0.932 . S
C659 C660 1.384 . S
C659 C661 1.479 . S
C659 H677 0.929 . S
C660 C657 1.424 . S
C660 C659 1.384 . S
C660 H678 0.928 . S
C661 C658 1.260 . S
C661 C659 1.479 . S
C662 C657 1.245 . S
C662 C658 1.477 . S
C662 H679 0.932 . S
C663 U646 2.882 . S
C663 C657 1.428 . S
C663 O666 1.301 . S
C663 O667 1.282 . S
O664 U646 2.441 . S
O664 C650 1.249 . S
O665 U646 2.420 . S
O665 C650 1.202 . S
O666 U646 2.455 . S
O666 C663 1.301 . S
O667 U646 2.449 . S
O667 C663 1.282 . S
H668 C641 0.931 . S
H669 C643 0.929 . S
H670 C644 0.930 . S
H671 C645 0.931 . S
H672 C652 0.932 . S
H673 C653 0.930 . S
H674 C654 0.929 . S
H675 C656 0.930 . S
H676 C658 0.932 . S
H677 C659 0.929 . S
H678 C660 0.928 . S
H679 C662 0.932 . S
C680 C681 1.264 . S
C680 C685 1.479 . S
C680 C690 1.465 . S
C681 C680 1.264 . S
C681 C683 1.339 . S
C681 H708 0.931 . S
C682 C683 1.395 . S
C682 C684 1.320 . S
C683 C681 1.339 . S
C683 C682 1.395 . S
C683 H709 0.929 . S
C684 C682 1.320 . S
C684 C685 1.405 . S
C684 H710 0.930 . S
C685 C680 1.479 . S
C685 C684 1.405 . S
C685 H711 0.931 . S
U686 O687 2.454 . S
U686 O688 2.458 . S
U686 C689 2.984 . S
U686 C690 2.847 . S
U686 C703 2.882 . S
U686 O704 2.441 . S
U686 O705 2.420 . S
U686 O706 2.455 . S
U686 O707 2.449 . S
O687 U686 2.454 . S
O687 C689 1.353 . S
O688 U686 2.458 . S
O688 C689 1.286 . S
C689 U686 2.984 . S
C689 O687 1.353 . S
C689 O688 1.286 . S
C689 C691 1.363 . S
C690 C680 1.465 . S
C690 U686 2.847 . S
C690 O704 1.249 . S
C690 O705 1.202 . S
C691 C689 1.363 . S
C691 C693 1.408 . S
C691 C696 1.342 . S
C692 C693 1.310 . S
C692 C695 1.461 . S
C692 H712 0.932 . S
C693 C691 1.408 . S
C693 C692 1.310 . S
C693 H713 0.930 . S
C694 C695 1.474 . S
C694 C696 1.285 . S
C694 H714 0.929 . S
C695 C692 1.461 . S
C695 C694 1.474 . S
C696 C691 1.342 . S
C696 C694 1.285 . S
C696 H715 0.930 . S
C697 C700 1.424 . S
C697 C702 1.245 . S
C697 C703 1.428 . S
C698 C701 1.260 . S
C698 C702 1.477 . S
C698 H716 0.932 . S
C699 C700 1.384 . S
C699 C701 1.479 . S
C699 H717 0.929 . S
C700 C697 1.424 . S
C700 C699 1.384 . S
C700 H718 0.928 . S
C701 C698 1.260 . S
C701 C699 1.479 . S
C702 C697 1.245 . S
C702 C698 1.477 . S
C702 H719 0.932 . S
C703 U686 2.882 . S
C703 C697 1.428 . S
C703 O706 1.301 . S
C703 O707 1.282 . S
O704 U686 2.441 . S
O704 C690 1.249 . S
O705 U686 2.420 . S
O705 C690 1.202 . S
O706 U686 2.455 . S
O706 C703 1.301 . S
O707 U686 2.449 . S
O707 C703 1.282 . S
H708 C681 0.931 . S
H709 C683 0.929 . S
H710 C684 0.930 . S
H711 C685 0.931 . S
H712 C692 0.932 . S
H713 C693 0.930 . S
H714 C694 0.929 . S
H715 C696 0.930 . S
H716 C698 0.932 . S
H717 C699 0.929 . S
H718 C700 0.928 . S
H719 C702 0.932 . S
C720 C721 1.264 . S
C720 C725 1.479 . S
C720 C730 1.465 . S
C721 C720 1.264 . S
C721 C723 1.339 . S
C721 H748 0.931 . S
C722 C723 1.395 . S
C722 C724 1.320 . S
C723 C721 1.339 . S
C723 C722 1.395 . S
C723 H749 0.929 . S
C724 C722 1.320 . S
C724 C725 1.405 . S
C724 H750 0.930 . S
C725 C720 1.479 . S
C725 C724 1.405 . S
C725 H751 0.931 . S
U726 O727 2.454 . S
U726 O728 2.458 . S
U726 C729 2.984 . S
U726 C730 2.847 . S
U726 C743 2.882 . S
U726 O744 2.441 . S
U726 O745 2.420 . S
U726 O746 2.455 . S
U726 O747 2.449 . S
O727 U726 2.454 . S
O727 C729 1.353 . S
O728 U726 2.458 . S
O728 C729 1.286 . S
C729 U726 2.984 . S
C729 O727 1.353 . S
C729 O728 1.286 . S
C729 C731 1.363 . S
C730 C720 1.465 . S
C730 U726 2.847 . S
C730 O744 1.249 . S
C730 O745 1.202 . S
C731 C729 1.363 . S
C731 C733 1.408 . S
C731 C736 1.342 . S
C732 C733 1.310 . S
C732 C735 1.461 . S
C732 H752 0.932 . S
C733 C731 1.408 . S
C733 C732 1.310 . S
C733 H753 0.930 . S
C734 C735 1.474 . S
C734 C736 1.285 . S
C734 H754 0.929 . S
C735 C732 1.461 . S
C735 C734 1.474 . S
C736 C731 1.342 . S
C736 C734 1.285 . S
C736 H755 0.930 . S
C737 C740 1.424 . S
C737 C742 1.245 . S
C737 C743 1.428 . S
C738 C741 1.260 . S
C738 C742 1.477 . S
C738 H756 0.932 . S
C739 C740 1.384 . S
C739 C741 1.479 . S
C739 H757 0.929 . S
C740 C737 1.424 . S
C740 C739 1.384 . S
C740 H758 0.928 . S
C741 C738 1.260 . S
C741 C739 1.479 . S
C742 C737 1.245 . S
C742 C738 1.477 . S
C742 H759 0.932 . S
C743 U726 2.882 . S
C743 C737 1.428 . S
C743 O746 1.301 . S
C743 O747 1.282 . S
O744 U726 2.441 . S
O744 C730 1.249 . S
O745 U726 2.420 . S
O745 C730 1.202 . S
O746 U726 2.455 . S
O746 C743 1.301 . S
O747 U726 2.449 . S
O747 C743 1.282 . S
H748 C721 0.931 . S
H749 C723 0.929 . S
H750 C724 0.930 . S
H751 C725 0.931 . S
H752 C732 0.932 . S
H753 C733 0.930 . S
H754 C734 0.929 . S
H755 C736 0.930 . S
H756 C738 0.932 . S
H757 C739 0.929 . S
H758 C740 0.928 . S
H759 C742 0.932 . S
C760 C761 1.264 . S
C760 C765 1.479 . S
C760 C770 1.465 . S
C761 C760 1.264 . S
C761 C763 1.339 . S
C761 H788 0.931 . S
C762 C763 1.395 . S
C762 C764 1.320 . S
C763 C761 1.339 . S
C763 C762 1.395 . S
C763 H789 0.929 . S
C764 C762 1.320 . S
C764 C765 1.405 . S
C764 H790 0.930 . S
C765 C760 1.479 . S
C765 C764 1.405 . S
C765 H791 0.931 . S
U766 O767 2.454 . S
U766 O768 2.458 . S
U766 C769 2.984 . S
U766 C770 2.847 . S
U766 C783 2.882 . S
U766 O784 2.441 . S
U766 O785 2.420 . S
U766 O786 2.455 . S
U766 O787 2.449 . S
O767 U766 2.454 . S
O767 C769 1.353 . S
O768 U766 2.458 . S
O768 C769 1.286 . S
C769 U766 2.984 . S
C769 O767 1.353 . S
C769 O768 1.286 . S
C769 C771 1.363 . S
C770 C760 1.465 . S
C770 U766 2.847 . S
C770 O784 1.249 . S
C770 O785 1.202 . S
C771 C769 1.363 . S
C771 C773 1.408 . S
C771 C776 1.342 . S
C772 C773 1.310 . S
C772 C775 1.461 . S
C772 H792 0.932 . S
C773 C771 1.408 . S
C773 C772 1.310 . S
C773 H793 0.930 . S
C774 C775 1.474 . S
C774 C776 1.285 . S
C774 H794 0.929 . S
C775 C772 1.461 . S
C775 C774 1.474 . S
C776 C771 1.342 . S
C776 C774 1.285 . S
C776 H795 0.930 . S
C777 C780 1.424 . S
C777 C782 1.245 . S
C777 C783 1.428 . S
C778 C781 1.260 . S
C778 C782 1.477 . S
C778 H796 0.932 . S
C779 C780 1.384 . S
C779 C781 1.479 . S
C779 H797 0.929 . S
C780 C777 1.424 . S
C780 C779 1.384 . S
C780 H798 0.928 . S
C781 C778 1.260 . S
C781 C779 1.479 . S
C782 C777 1.245 . S
C782 C778 1.477 . S
C782 H799 0.932 . S
C783 U766 2.882 . S
C783 C777 1.428 . S
C783 O786 1.301 . S
C783 O787 1.282 . S
O784 U766 2.441 . S
O784 C770 1.249 . S
O785 U766 2.420 . S
O785 C770 1.202 . S
O786 U766 2.455 . S
O786 C783 1.301 . S
O787 U766 2.449 . S
O787 C783 1.282 . S
H788 C761 0.931 . S
H789 C763 0.929 . S
H790 C764 0.930 . S
H791 C765 0.931 . S
H792 C772 0.932 . S
H793 C773 0.930 . S
H794 C774 0.929 . S
H795 C776 0.930 . S
H796 C778 0.932 . S
H797 C779 0.929 . S
H798 C780 0.928 . S
H799 C782 0.932 . S
C800 C801 1.264 . S
C800 C805 1.479 . S
C800 C810 1.465 . S
C801 C800 1.264 . S
C801 C803 1.339 . S
C801 H828 0.931 . S
C802 C803 1.395 . S
C802 C804 1.320 . S
C803 C801 1.339 . S
C803 C802 1.395 . S
C803 H829 0.929 . S
C804 C802 1.320 . S
C804 C805 1.405 . S
C804 H830 0.930 . S
C805 C800 1.479 . S
C805 C804 1.405 . S
C805 H831 0.931 . S
U806 O807 2.454 . S
U806 O808 2.458 . S
U806 C809 2.984 . S
U806 C810 2.847 . S
U806 C823 2.882 . S
U806 O824 2.441 . S
U806 O825 2.420 . S
U806 O826 2.455 . S
U806 O827 2.449 . S
O807 U806 2.454 . S
O807 C809 1.353 . S
O808 U806 2.458 . S
O808 C809 1.286 . S
C809 U806 2.984 . S
C809 O807 1.353 . S
C809 O808 1.286 . S
C809 C811 1.363 . S
C810 C800 1.465 . S
C810 U806 2.847 . S
C810 O824 1.249 . S
C810 O825 1.202 . S
C811 C809 1.363 . S
C811 C813 1.408 . S
C811 C816 1.342 . S
C812 C813 1.310 . S
C812 C815 1.461 . S
C812 H832 0.932 . S
C813 C811 1.408 . S
C813 C812 1.310 . S
C813 H833 0.930 . S
C814 C815 1.474 . S
C814 C816 1.285 . S
C814 H834 0.929 . S
C815 C812 1.461 . S
C815 C814 1.474 . S
C816 C811 1.342 . S
C816 C814 1.285 . S
C816 H835 0.930 . S
C817 C820 1.424 . S
C817 C822 1.245 . S
C817 C823 1.428 . S
C818 C821 1.260 . S
C818 C822 1.477 . S
C818 H836 0.932 . S
C819 C820 1.384 . S
C819 C821 1.479 . S
C819 H837 0.929 . S
C820 C817 1.424 . S
C820 C819 1.384 . S
C820 H838 0.928 . S
C821 C818 1.260 . S
C821 C819 1.479 . S
C822 C817 1.245 . S
C822 C818 1.477 . S
C822 H839 0.932 . S
C823 U806 2.882 . S
C823 C817 1.428 . S
C823 O826 1.301 . S
C823 O827 1.282 . S
O824 U806 2.441 . S
O824 C810 1.249 . S
O825 U806 2.420 . S
O825 C810 1.202 . S
O826 U806 2.455 . S
O826 C823 1.301 . S
O827 U806 2.449 . S
O827 C823 1.282 . S
H828 C801 0.931 . S
H829 C803 0.929 . S
H830 C804 0.930 . S
H831 C805 0.931 . S
H832 C812 0.932 . S
H833 C813 0.930 . S
H834 C814 0.929 . S
H835 C816 0.930 . S
H836 C818 0.932 . S
H837 C819 0.929 . S
H838 C820 0.928 . S
H839 C822 0.932 . S
C840 C841 1.264 . S
C840 C845 1.479 . S
C840 C850 1.465 . S
C841 C840 1.264 . S
C841 C843 1.339 . S
C841 H868 0.931 . S
C842 C843 1.395 . S
C842 C844 1.320 . S
C843 C841 1.339 . S
C843 C842 1.395 . S
C843 H869 0.929 . S
C844 C842 1.320 . S
C844 C845 1.405 . S
C844 H870 0.930 . S
C845 C840 1.479 . S
C845 C844 1.405 . S
C845 H871 0.931 . S
U846 O847 2.454 . S
U846 O848 2.458 . S
U846 C849 2.984 . S
U846 C850 2.847 . S
U846 C863 2.882 . S
U846 O864 2.441 . S
U846 O865 2.420 . S
U846 O866 2.455 . S
U846 O867 2.449 . S
O847 U846 2.454 . S
O847 C849 1.353 . S
O848 U846 2.458 . S
O848 C849 1.286 . S
C849 U846 2.984 . S
C849 O847 1.353 . S
C849 O848 1.286 . S
C849 C851 1.363 . S
C850 C840 1.465 . S
C850 U846 2.847 . S
C850 O864 1.249 . S
C850 O865 1.202 . S
C851 C849 1.363 . S
C851 C853 1.408 . S
C851 C856 1.342 . S
C852 C853 1.310 . S
C852 C855 1.461 . S
C852 H872 0.932 . S
C853 C851 1.408 . S
C853 C852 1.310 . S
C853 H873 0.930 . S
C854 C855 1.474 . S
C854 C856 1.285 . S
C854 H874 0.929 . S
C855 C852 1.461 . S
C855 C854 1.474 . S
C856 C851 1.342 . S
C856 C854 1.285 . S
C856 H875 0.930 . S
C857 C860 1.424 . S
C857 C862 1.245 . S
C857 C863 1.428 . S
C858 C861 1.260 . S
C858 C862 1.477 . S
C858 H876 0.932 . S
C859 C860 1.384 . S
C859 C861 1.479 . S
C859 H877 0.929 . S
C860 C857 1.424 . S
C860 C859 1.384 . S
C860 H878 0.928 . S
C861 C858 1.260 . S
C861 C859 1.479 . S
C862 C857 1.245 . S
C862 C858 1.477 . S
C862 H879 0.932 . S
C863 U846 2.882 . S
C863 C857 1.428 . S
C863 O866 1.301 . S
C863 O867 1.282 . S
O864 U846 2.441 . S
O864 C850 1.249 . S
O865 U846 2.420 . S
O865 C850 1.202 . S
O866 U846 2.455 . S
O866 C863 1.301 . S
O867 U846 2.449 . S
O867 C863 1.282 . S
H868 C841 0.931 . S
H869 C843 0.929 . S
H870 C844 0.930 . S
H871 C845 0.931 . S
H872 C852 0.932 . S
H873 C853 0.930 . S
H874 C854 0.929 . S
H875 C856 0.930 . S
H876 C858 0.932 . S
H877 C859 0.929 . S
H878 C860 0.928 . S
H879 C862 0.932 . S
C880 C881 1.264 . S
C880 C885 1.479 . S
C880 C890 1.465 . S
C881 C880 1.264 . S
C881 C883 1.339 . S
C881 H908 0.931 . S
C882 C883 1.395 . S
C882 C884 1.320 . S
C883 C881 1.339 . S
C883 C882 1.395 . S
C883 H909 0.929 . S
C884 C882 1.320 . S
C884 C885 1.405 . S
C884 H910 0.930 . S
C885 C880 1.479 . S
C885 C884 1.405 . S
C885 H911 0.931 . S
U886 O887 2.454 . S
U886 O888 2.458 . S
U886 C889 2.984 . S
U886 C890 2.847 . S
U886 C903 2.882 . S
U886 O904 2.441 . S
U886 O905 2.420 . S
U886 O906 2.455 . S
U886 O907 2.449 . S
O887 U886 2.454 . S
O887 C889 1.353 . S
O888 U886 2.458 . S
O888 C889 1.286 . S
C889 U886 2.984 . S
C889 O887 1.353 . S
C889 O888 1.286 . S
C889 C891 1.363 . S
C890 C880 1.465 . S
C890 U886 2.847 . S
C890 O904 1.249 . S
C890 O905 1.202 . S
C891 C889 1.363 . S
C891 C893 1.408 . S
C891 C896 1.342 . S
C892 C893 1.310 . S
C892 C895 1.461 . S
C892 H912 0.932 . S
C893 C891 1.408 . S
C893 C892 1.310 . S
C893 H913 0.930 . S
C894 C895 1.474 . S
C894 C896 1.285 . S
C894 H914 0.929 . S
C895 C892 1.461 . S
C895 C894 1.474 . S
C896 C891 1.342 . S
C896 C894 1.285 . S
C896 H915 0.930 . S
C897 C900 1.424 . S
C897 C902 1.245 . S
C897 C903 1.428 . S
C898 C901 1.260 . S
C898 C902 1.477 . S
C898 H916 0.932 . S
C899 C900 1.384 . S
C899 C901 1.479 . S
C899 H917 0.929 . S
C900 C897 1.424 . S
C900 C899 1.384 . S
C900 H918 0.928 . S
C901 C898 1.260 . S
C901 C899 1.479 . S
C902 C897 1.245 . S
C902 C898 1.477 . S
C902 H919 0.932 . S
C903 U886 2.882 . S
C903 C897 1.428 . S
C903 O906 1.301 . S
C903 O907 1.282 . S
O904 U886 2.441 . S
O904 C890 1.249 . S
O905 U886 2.420 . S
O905 C890 1.202 . S
O906 U886 2.455 . S
O906 C903 1.301 . S
O907 U886 2.449 . S
O907 C903 1.282 . S
H908 C881 0.931 . S
H909 C883 0.929 . S
H910 C884 0.930 . S
H911 C885 0.931 . S
H912 C892 0.932 . S
H913 C893 0.930 . S
H914 C894 0.929 . S
H915 C896 0.930 . S
H916 C898 0.932 . S
H917 C899 0.929 . S
H918 C900 0.928 . S
H919 C902 0.932 . S
C920 C921 1.264 . S
C920 C925 1.479 . S
C920 C930 1.465 . S
C921 C920 1.264 . S
C921 C923 1.339 . S
C921 H948 0.931 . S
C922 C923 1.395 . S
C922 C924 1.320 . S
C923 C921 1.339 . S
C923 C922 1.395 . S
C923 H949 0.929 . S
C924 C922 1.320 . S
C924 C925 1.405 . S
C924 H950 0.930 . S
C925 C920 1.479 . S
C925 C924 1.405 . S
C925 H951 0.931 . S
U926 O927 2.454 . S
U926 O928 2.458 . S
U926 C929 2.984 . S
U926 C930 2.847 . S
U926 C943 2.882 . S
U926 O944 2.441 . S
U926 O945 2.420 . S
U926 O946 2.455 . S
U926 O947 2.449 . S
O927 U926 2.454 . S
O927 C929 1.353 . S
O928 U926 2.458 . S
O928 C929 1.286 . S
C929 U926 2.984 . S
C929 O927 1.353 . S
C929 O928 1.286 . S
C929 C931 1.363 . S
C930 C920 1.465 . S
C930 U926 2.847 . S
C930 O944 1.249 . S
C930 O945 1.202 . S
C931 C929 1.363 . S
C931 C933 1.408 . S
C931 C936 1.342 . S
C932 C933 1.310 . S
C932 C935 1.461 . S
C932 H952 0.932 . S
C933 C931 1.408 . S
C933 C932 1.310 . S
C933 H953 0.930 . S
C934 C935 1.474 . S
C934 C936 1.285 . S
C934 H954 0.929 . S
C935 C932 1.461 . S
C935 C934 1.474 . S
C936 C931 1.342 . S
C936 C934 1.285 . S
C936 H955 0.930 . S
C937 C940 1.424 . S
C937 C942 1.245 . S
C937 C943 1.428 . S
C938 C941 1.260 . S
C938 C942 1.477 . S
C938 H956 0.932 . S
C939 C940 1.384 . S
C939 C941 1.479 . S
C939 H957 0.929 . S
C940 C937 1.424 . S
C940 C939 1.384 . S
C940 H958 0.928 . S
C941 C938 1.260 . S
C941 C939 1.479 . S
C942 C937 1.245 . S
C942 C938 1.477 . S
C942 H959 0.932 . S
C943 U926 2.882 . S
C943 C937 1.428 . S
C943 O946 1.301 . S
C943 O947 1.282 . S
O944 U926 2.441 . S
O944 C930 1.249 . S
O945 U926 2.420 . S
O945 C930 1.202 . S
O946 U926 2.455 . S
O946 C943 1.301 . S
O947 U926 2.449 . S
O947 C943 1.282 . S
H948 C921 0.931 . S
H949 C923 0.929 . S
H950 C924 0.930 . S
H951 C925 0.931 . S
H952 C932 0.932 . S
H953 C933 0.930 . S
H954 C934 0.929 . S
H955 C936 0.930 . S
H956 C938 0.932 . S
H957 C939 0.929 . S
H958 C940 0.928 . S
H959 C942 0.932 . S
C960 C961 1.264 . S
C960 C965 1.479 . S
C960 C970 1.465 . S
C961 C960 1.264 . S
C961 C963 1.339 . S
C961 H988 0.931 . S
C962 C963 1.395 . S
C962 C964 1.320 . S
C963 C961 1.339 . S
C963 C962 1.395 . S
C963 H989 0.929 . S
C964 C962 1.320 . S
C964 C965 1.405 . S
C964 H990 0.930 . S
C965 C960 1.479 . S
C965 C964 1.405 . S
C965 H991 0.931 . S
U966 O967 2.454 . S
U966 O968 2.458 . S
U966 C969 2.984 . S
U966 C970 2.847 . S
U966 C983 2.882 . S
U966 O984 2.441 . S
U966 O985 2.420 . S
U966 O986 2.455 . S
U966 O987 2.449 . S
O967 U966 2.454 . S
O967 C969 1.353 . S
O968 U966 2.458 . S
O968 C969 1.286 . S
C969 U966 2.984 . S
C969 O967 1.353 . S
C969 O968 1.286 . S
C969 C971 1.363 . S
C970 C960 1.465 . S
C970 U966 2.847 . S
C970 O984 1.249 . S
C970 O985 1.202 . S
C971 C969 1.363 . S
C971 C973 1.408 . S
C971 C976 1.342 . S
C972 C973 1.310 . S
C972 C975 1.461 . S
C972 H992 0.932 . S
C973 C971 1.408 . S
C973 C972 1.310 . S
C973 H993 0.930 . S
C974 C975 1.474 . S
C974 C976 1.285 . S
C974 H994 0.929 . S
C975 C972 1.461 . S
C975 C974 1.474 . S
C976 C971 1.342 . S
C976 C974 1.285 . S
C976 H995 0.930 . S
C977 C980 1.424 . S
C977 C982 1.245 . S
C977 C983 1.428 . S
C978 C981 1.260 . S
C978 C982 1.477 . S
C978 H996 0.932 . S
C979 C980 1.384 . S
C979 C981 1.479 . S
C979 H997 0.929 . S
C980 C977 1.424 . S
C980 C979 1.384 . S
C980 H998 0.928 . S
C981 C978 1.260 . S
C981 C979 1.479 . S
C982 C977 1.245 . S
C982 C978 1.477 . S
C982 H999 0.932 . S
C983 U966 2.882 . S
C983 C977 1.428 . S
C983 O986 1.301 . S
C983 O987 1.282 . S
O984 U966 2.441 . S
O984 C970 1.249 . S
O985 U966 2.420 . S
O985 C970 1.202 . S
O986 U966 2.455 . S
O986 C983 1.301 . S
O987 U966 2.449 . S
O987 C983 1.282 . S
H988 C961 0.931 . S
H989 C963 0.929 . S
H990 C964 0.930 . S
H991 C965 0.931 . S
H992 C972 0.932 . S
H993 C973 0.930 . S
H994 C974 0.929 . S
H995 C976 0.930 . S
H996 C978 0.932 . S
H997 C979 0.929 . S
H998 C980 0.928 . S
H999 C982 0.932 . S
C1000 C1001 1.264 . S
C1000 C1005 1.479 . S
C1000 C1010 1.465 . S
C1001 C1000 1.264 . S
C1001 C1003 1.339 . S
C1001 H1028 0.931 . S
C1002 C1003 1.395 . S
C1002 C1004 1.320 . S
C1003 C1001 1.339 . S
C1003 C1002 1.395 . S
C1003 H1029 0.929 . S
C1004 C1002 1.320 . S
C1004 C1005 1.405 . S
C1004 H1030 0.930 . S
C1005 C1000 1.479 . S
C1005 C1004 1.405 . S
C1005 H1031 0.931 . S
U1006 O1007 2.454 . S
U1006 O1008 2.458 . S
U1006 C1009 2.984 . S
U1006 C1010 2.847 . S
U1006 C1023 2.882 . S
U1006 O1024 2.441 . S
U1006 O1025 2.420 . S
U1006 O1026 2.455 . S
U1006 O1027 2.449 . S
O1007 U1006 2.454 . S
O1007 C1009 1.353 . S
O1008 U1006 2.458 . S
O1008 C1009 1.286 . S
C1009 U1006 2.984 . S
C1009 O1007 1.353 . S
C1009 O1008 1.286 . S
C1009 C1011 1.363 . S
C1010 C1000 1.465 . S
C1010 U1006 2.847 . S
C1010 O1024 1.249 . S
C1010 O1025 1.202 . S
C1011 C1009 1.363 . S
C1011 C1013 1.408 . S
C1011 C1016 1.342 . S
C1012 C1013 1.310 . S
C1012 C1015 1.461 . S
C1012 H1032 0.932 . S
C1013 C1011 1.408 . S
C1013 C1012 1.310 . S
C1013 H1033 0.930 . S
C1014 C1015 1.474 . S
C1014 C1016 1.285 . S
C1014 H1034 0.929 . S
C1015 C1012 1.461 . S
C1015 C1014 1.474 . S
C1016 C1011 1.342 . S
C1016 C1014 1.285 . S
C1016 H1035 0.930 . S
C1017 C1020 1.424 . S
C1017 C1022 1.245 . S
C1017 C1023 1.428 . S
C1018 C1021 1.260 . S
C1018 C1022 1.477 . S
C1018 H1036 0.932 . S
C1019 C1020 1.384 . S
C1019 C1021 1.479 . S
C1019 H1037 0.929 . S
C1020 C1017 1.424 . S
C1020 C1019 1.384 . S
C1020 H1038 0.928 . S
C1021 C1018 1.260 . S
C1021 C1019 1.479 . S
C1022 C1017 1.245 . S
C1022 C1018 1.477 . S
C1022 H1039 0.932 . S
C1023 U1006 2.882 . S
C1023 C1017 1.428 . S
C1023 O1026 1.301 . S
C1023 O1027 1.282 . S
O1024 U1006 2.441 . S
O1024 C1010 1.249 . S
O1025 U1006 2.420 . S
O1025 C1010 1.202 . S
O1026 U1006 2.455 . S
O1026 C1023 1.301 . S
O1027 U1006 2.449 . S
O1027 C1023 1.282 . S
H1028 C1001 0.931 . S
H1029 C1003 0.929 . S
H1030 C1004 0.930 . S
H1031 C1005 0.931 . S
H1032 C1012 0.932 . S
H1033 C1013 0.930 . S
H1034 C1014 0.929 . S
H1035 C1016 0.930 . S
H1036 C1018 0.932 . S
H1037 C1019 0.929 . S
H1038 C1020 0.928 . S
H1039 C1022 0.932 . S
C1040 C1041 1.264 . S
C1040 C1045 1.479 . S
C1040 C1050 1.465 . S
C1041 C1040 1.264 . S
C1041 C1043 1.339 . S
C1041 H1068 0.931 . S
C1042 C1043 1.395 . S
C1042 C1044 1.320 . S
C1043 C1041 1.339 . S
C1043 C1042 1.395 . S
C1043 H1069 0.929 . S
C1044 C1042 1.320 . S
C1044 C1045 1.405 . S
C1044 H1070 0.930 . S
C1045 C1040 1.479 . S
C1045 C1044 1.405 . S
C1045 H1071 0.931 . S
U1046 O1047 2.454 . S
U1046 O1048 2.458 . S
U1046 C1049 2.984 . S
U1046 C1050 2.847 . S
U1046 C1063 2.882 . S
U1046 O1064 2.441 . S
U1046 O1065 2.420 . S
U1046 O1066 2.455 . S
U1046 O1067 2.449 . S
O1047 U1046 2.454 . S
O1047 C1049 1.353 . S
O1048 U1046 2.458 . S
O1048 C1049 1.286 . S
C1049 U1046 2.984 . S
C1049 O1047 1.353 . S
C1049 O1048 1.286 . S
C1049 C1051 1.363 . S
C1050 C1040 1.465 . S
C1050 U1046 2.847 . S
C1050 O1064 1.249 . S
C1050 O1065 1.202 . S
C1051 C1049 1.363 . S
C1051 C1053 1.408 . S
C1051 C1056 1.342 . S
C1052 C1053 1.310 . S
C1052 C1055 1.461 . S
C1052 H1072 0.932 . S
C1053 C1051 1.408 . S
C1053 C1052 1.310 . S
C1053 H1073 0.930 . S
C1054 C1055 1.474 . S
C1054 C1056 1.285 . S
C1054 H1074 0.929 . S
C1055 C1052 1.461 . S
C1055 C1054 1.474 . S
C1056 C1051 1.342 . S
C1056 C1054 1.285 . S
C1056 H1075 0.930 . S
C1057 C1060 1.424 . S
C1057 C1062 1.245 . S
C1057 C1063 1.428 . S
C1058 C1061 1.260 . S
C1058 C1062 1.477 . S
C1058 H1076 0.932 . S
C1059 C1060 1.384 . S
C1059 C1061 1.479 . S
C1059 H1077 0.929 . S
C1060 C1057 1.424 . S
C1060 C1059 1.384 . S
C1060 H1078 0.928 . S
C1061 C1058 1.260 . S
C1061 C1059 1.479 . S
C1062 C1057 1.245 . S
C1062 C1058 1.477 . S
C1062 H1079 0.932 . S
C1063 U1046 2.882 . S
C1063 C1057 1.428 . S
C1063 O1066 1.301 . S
C1063 O1067 1.282 . S
O1064 U1046 2.441 . S
O1064 C1050 1.249 . S
O1065 U1046 2.420 . S
O1065 C1050 1.202 . S
O1066 U1046 2.455 . S
O1066 C1063 1.301 . S
O1067 U1046 2.449 . S
O1067 C1063 1.282 . S
H1068 C1041 0.931 . S
H1069 C1043 0.929 . S
H1070 C1044 0.930 . S
H1071 C1045 0.931 . S
H1072 C1052 0.932 . S
H1073 C1053 0.930 . S
H1074 C1054 0.929 . S
H1075 C1056 0.930 . S
H1076 C1058 0.932 . S
H1077 C1059 0.929 . S
H1078 C1060 0.928 . S
H1079 C1062 0.932 . S
C1080 C1081 1.264 . S
C1080 C1085 1.479 . S
C1080 C1090 1.465 . S
C1081 C1080 1.264 . S
C1081 C1083 1.339 . S
C1081 H1108 0.931 . S
C1082 C1083 1.395 . S
C1082 C1084 1.320 . S
C1083 C1081 1.339 . S
C1083 C1082 1.395 . S
C1083 H1109 0.929 . S
C1084 C1082 1.320 . S
C1084 C1085 1.405 . S
C1084 H1110 0.930 . S
C1085 C1080 1.479 . S
C1085 C1084 1.405 . S
C1085 H1111 0.931 . S
U1086 O1087 2.454 . S
U1086 O1088 2.458 . S
U1086 C1089 2.984 . S
U1086 C1090 2.847 . S
U1086 C1103 2.882 . S
U1086 O1104 2.441 . S
U1086 O1105 2.420 . S
U1086 O1106 2.455 . S
U1086 O1107 2.449 . S
O1087 U1086 2.454 . S
O1087 C1089 1.353 . S
O1088 U1086 2.458 . S
O1088 C1089 1.286 . S
C1089 U1086 2.984 . S
C1089 O1087 1.353 . S
C1089 O1088 1.286 . S
C1089 C1091 1.363 . S
C1090 C1080 1.465 . S
C1090 U1086 2.847 . S
C1090 O1104 1.249 . S
C1090 O1105 1.202 . S
C1091 C1089 1.363 . S
C1091 C1093 1.408 . S
C1091 C1096 1.342 . S
C1092 C1093 1.310 . S
C1092 C1095 1.461 . S
C1092 H1112 0.932 . S
C1093 C1091 1.408 . S
C1093 C1092 1.310 . S
C1093 H1113 0.930 . S
C1094 C1095 1.474 . S
C1094 C1096 1.285 . S
C1094 H1114 0.929 . S
C1095 C1092 1.461 . S
C1095 C1094 1.474 . S
C1096 C1091 1.342 . S
C1096 C1094 1.285 . S
C1096 H1115 0.930 . S
C1097 C1100 1.424 . S
C1097 C1102 1.245 . S
C1097 C1103 1.428 . S
C1098 C1101 1.260 . S
C1098 C1102 1.477 . S
C1098 H1116 0.932 . S
C1099 C1100 1.384 . S
C1099 C1101 1.479 . S
C1099 H1117 0.929 . S
C1100 C1097 1.424 . S
C1100 C1099 1.384 . S
C1100 H1118 0.928 . S
C1101 C1098 1.260 . S
C1101 C1099 1.479 . S
C1102 C1097 1.245 . S
C1102 C1098 1.477 . S
C1102 H1119 0.932 . S
C1103 U1086 2.882 . S
C1103 C1097 1.428 . S
C1103 O1106 1.301 . S
C1103 O1107 1.282 . S
O1104 U1086 2.441 . S
O1104 C1090 1.249 . S
O1105 U1086 2.420 . S
O1105 C1090 1.202 . S
O1106 U1086 2.455 . S
O1106 C1103 1.301 . S
O1107 U1086 2.449 . S
O1107 C1103 1.282 . S
H1108 C1081 0.931 . S
H1109 C1083 0.929 . S
H1110 C1084 0.930 . S
H1111 C1085 0.931 . S
H1112 C1092 0.932 . S
H1113 C1093 0.930 . S
H1114 C1094 0.929 . S
H1115 C1096 0.930 . S
H1116 C1098 0.932 . S
H1117 C1099 0.929 . S
H1118 C1100 0.928 . S
H1119 C1102 0.932 . S
C1120 C1121 1.264 . S
C1120 C1125 1.479 . S
C1120 C1130 1.465 . S
C1121 C1120 1.264 . S
C1121 C1123 1.339 . S
C1121 H1148 0.931 . S
C1122 C1123 1.395 . S
C1122 C1124 1.320 . S
C1123 C1121 1.339 . S
C1123 C1122 1.395 . S
C1123 H1149 0.929 . S
C1124 C1122 1.320 . S
C1124 C1125 1.405 . S
C1124 H1150 0.930 . S
C1125 C1120 1.479 . S
C1125 C1124 1.405 . S
C1125 H1151 0.931 . S
U1126 O1127 2.454 . S
U1126 O1128 2.458 . S
U1126 C1129 2.984 . S
U1126 C1130 2.847 . S
U1126 C1143 2.882 . S
U1126 O1144 2.441 . S
U1126 O1145 2.420 . S
U1126 O1146 2.455 . S
U1126 O1147 2.449 . S
O1127 U1126 2.454 . S
O1127 C1129 1.353 . S
O1128 U1126 2.458 . S
O1128 C1129 1.286 . S
C1129 U1126 2.984 . S
C1129 O1127 1.353 . S
C1129 O1128 1.286 . S
C1129 C1131 1.363 . S
C1130 C1120 1.465 . S
C1130 U1126 2.847 . S
C1130 O1144 1.249 . S
C1130 O1145 1.202 . S
C1131 C1129 1.363 . S
C1131 C1133 1.408 . S
C1131 C1136 1.342 . S
C1132 C1133 1.310 . S
C1132 C1135 1.461 . S
C1132 H1152 0.932 . S
C1133 C1131 1.408 . S
C1133 C1132 1.310 . S
C1133 H1153 0.930 . S
C1134 C1135 1.474 . S
C1134 C1136 1.285 . S
C1134 H1154 0.929 . S
C1135 C1132 1.461 . S
C1135 C1134 1.474 . S
C1136 C1131 1.342 . S
C1136 C1134 1.285 . S
C1136 H1155 0.930 . S
C1137 C1140 1.424 . S
C1137 C1142 1.245 . S
C1137 C1143 1.428 . S
C1138 C1141 1.260 . S
C1138 C1142 1.477 . S
C1138 H1156 0.932 . S
C1139 C1140 1.384 . S
C1139 C1141 1.479 . S
C1139 H1157 0.929 . S
C1140 C1137 1.424 . S
C1140 C1139 1.384 . S
C1140 H1158 0.928 . S
C1141 C1138 1.260 . S
C1141 C1139 1.479 . S
C1142 C1137 1.245 . S
C1142 C1138 1.477 . S
C1142 H1159 0.932 . S
C1143 U1126 2.882 . S
C1143 C1137 1.428 . S
C1143 O1146 1.301 . S
C1143 O1147 1.282 . S
O1144 U1126 2.441 . S
O1144 C1130 1.249 . S
O1145 U1126 2.420 . S
O1145 C1130 1.202 . S
O1146 U1126 2.455 . S
O1146 C1143 1.301 . S
O1147 U1126 2.449 . S
O1147 C1143 1.282 . S
H1148 C1121 0.931 . S
H1149 C1123 0.929 . S
H1150 C1124 0.930 . S
H1151 C1125 0.931 . S
H1152 C1132 0.932 . S
H1153 C1133 0.930 . S
H1154 C1134 0.929 . S
H1155 C1136 0.930 . S
H1156 C1138 0.932 . S
H1157 C1139 0.929 . S
H1158 C1140 0.928 . S
H1159 C1142 0.932 . S
C1160 C1161 1.264 . S
C1160 C1165 1.479 . S
C1160 C1170 1.465 . S
C1161 C1160 1.264 . S
C1161 C1163 1.339 . S
C1161 H1188 0.931 . S
C1162 C1163 1.395 . S
C1162 C1164 1.320 . S
C1163 C1161 1.339 . S
C1163 C1162 1.395 . S
C1163 H1189 0.929 . S
C1164 C1162 1.320 . S
C1164 C1165 1.405 . S
C1164 H1190 0.930 . S
C1165 C1160 1.479 . S
C1165 C1164 1.405 . S
C1165 H1191 0.931 . S
U1166 O1167 2.454 . S
U1166 O1168 2.458 . S
U1166 C1169 2.984 . S
U1166 C1170 2.847 . S
U1166 C1183 2.882 . S
U1166 O1184 2.441 . S
U1166 O1185 2.420 . S
U1166 O1186 2.455 . S
U1166 O1187 2.449 . S
O1167 U1166 2.454 . S
O1167 C1169 1.353 . S
O1168 U1166 2.458 . S
O1168 C1169 1.286 . S
C1169 U1166 2.984 . S
C1169 O1167 1.353 . S
C1169 O1168 1.286 . S
C1169 C1171 1.363 . S
C1170 C1160 1.465 . S
C1170 U1166 2.847 . S
C1170 O1184 1.249 . S
C1170 O1185 1.202 . S
C1171 C1169 1.363 . S
C1171 C1173 1.408 . S
C1171 C1176 1.342 . S
C1172 C1173 1.310 . S
C1172 C1175 1.461 . S
C1172 H1192 0.932 . S
C1173 C1171 1.408 . S
C1173 C1172 1.310 . S
C1173 H1193 0.930 . S
C1174 C1175 1.474 . S
C1174 C1176 1.285 . S
C1174 H1194 0.929 . S
C1175 C1172 1.461 . S
C1175 C1174 1.474 . S
C1176 C1171 1.342 . S
C1176 C1174 1.285 . S
C1176 H1195 0.930 . S
C1177 C1180 1.424 . S
C1177 C1182 1.245 . S
C1177 C1183 1.428 . S
C1178 C1181 1.260 . S
C1178 C1182 1.477 . S
C1178 H1196 0.932 . S
C1179 C1180 1.384 . S
C1179 C1181 1.479 . S
C1179 H1197 0.929 . S
C1180 C1177 1.424 . S
C1180 C1179 1.384 . S
C1180 H1198 0.928 . S
C1181 C1178 1.260 . S
C1181 C1179 1.479 . S
C1182 C1177 1.245 . S
C1182 C1178 1.477 . S
C1182 H1199 0.932 . S
C1183 U1166 2.882 . S
C1183 C1177 1.428 . S
C1183 O1186 1.301 . S
C1183 O1187 1.282 . S
O1184 U1166 2.441 . S
O1184 C1170 1.249 . S
O1185 U1166 2.420 . S
O1185 C1170 1.202 . S
O1186 U1166 2.455 . S
O1186 C1183 1.301 . S
O1187 U1166 2.449 . S
O1187 C1183 1.282 . S
H1188 C1161 0.931 . S
H1189 C1163 0.929 . S
H1190 C1164 0.930 . S
H1191 C1165 0.931 . S
H1192 C1172 0.932 . S
H1193 C1173 0.930 . S
H1194 C1174 0.929 . S
H1195 C1176 0.930 . S
H1196 C1178 0.932 . S
H1197 C1179 0.929 . S
H1198 C1180 0.928 . S
H1199 C1182 0.932 . S
C1200 C1201 1.264 . S
C1200 C1205 1.479 . S
C1200 C1210 1.465 . S
C1201 C1200 1.264 . S
C1201 C1203 1.339 . S
C1201 H1228 0.931 . S
C1202 C1203 1.395 . S
C1202 C1204 1.320 . S
C1203 C1201 1.339 . S
C1203 C1202 1.395 . S
C1203 H1229 0.929 . S
C1204 C1202 1.320 . S
C1204 C1205 1.405 . S
C1204 H1230 0.930 . S
C1205 C1200 1.479 . S
C1205 C1204 1.405 . S
C1205 H1231 0.931 . S
U1206 O1207 2.454 . S
U1206 O1208 2.458 . S
U1206 C1209 2.984 . S
U1206 C1210 2.847 . S
U1206 C1223 2.882 . S
U1206 O1224 2.441 . S
U1206 O1225 2.420 . S
U1206 O1226 2.455 . S
U1206 O1227 2.449 . S
O1207 U1206 2.454 . S
O1207 C1209 1.353 . S
O1208 U1206 2.458 . S
O1208 C1209 1.286 . S
C1209 U1206 2.984 . S
C1209 O1207 1.353 . S
C1209 O1208 1.286 . S
C1209 C1211 1.363 . S
C1210 C1200 1.465 . S
C1210 U1206 2.847 . S
C1210 O1224 1.249 . S
C1210 O1225 1.202 . S
C1211 C1209 1.363 . S
C1211 C1213 1.408 . S
C1211 C1216 1.342 . S
C1212 C1213 1.310 . S
C1212 C1215 1.461 . S
C1212 H1232 0.932 . S
C1213 C1211 1.408 . S
C1213 C1212 1.310 . S
C1213 H1233 0.930 . S
C1214 C1215 1.474 . S
C1214 C1216 1.285 . S
C1214 H1234 0.929 . S
C1215 C1212 1.461 . S
C1215 C1214 1.474 . S
C1216 C1211 1.342 . S
C1216 C1214 1.285 . S
C1216 H1235 0.930 . S
C1217 C1220 1.424 . S
C1217 C1222 1.245 . S
C1217 C1223 1.428 . S
C1218 C1221 1.260 . S
C1218 C1222 1.477 . S
C1218 H1236 0.932 . S
C1219 C1220 1.384 . S
C1219 C1221 1.479 . S
C1219 H1237 0.929 . S
C1220 C1217 1.424 . S
C1220 C1219 1.384 . S
C1220 H1238 0.928 . S
C1221 C1218 1.260 . S
C1221 C1219 1.479 . S
C1222 C1217 1.245 . S
C1222 C1218 1.477 . S
C1222 H1239 0.932 . S
C1223 U1206 2.882 . S
C1223 C1217 1.428 . S
C1223 O1226 1.301 . S
C1223 O1227 1.282 . S
O1224 U1206 2.441 . S
O1224 C1210 1.249 . S
O1225 U1206 2.420 . S
O1225 C1210 1.202 . S
O1226 U1206 2.455 . S
O1226 C1223 1.301 . S
O1227 U1206 2.449 . S
O1227 C1223 1.282 . S
H1228 C1201 0.931 . S
H1229 C1203 0.929 . S
H1230 C1204 0.930 . S
H1231 C1205 0.931 . S
H1232 C1212 0.932 . S
H1233 C1213 0.930 . S
H1234 C1214 0.929 . S
H1235 C1216 0.930 . S
H1236 C1218 0.932 . S
H1237 C1219 0.929 . S
H1238 C1220 0.928 . S
H1239 C1222 0.932 . S
C1240 C1241 1.264 . S
C1240 C1245 1.479 . S
C1240 C1250 1.465 . S
C1241 C1240 1.264 . S
C1241 C1243 1.339 . S
C1241 H1268 0.931 . S
C1242 C1243 1.395 . S
C1242 C1244 1.320 . S
C1243 C1241 1.339 . S
C1243 C1242 1.395 . S
C1243 H1269 0.929 . S
C1244 C1242 1.320 . S
C1244 C1245 1.405 . S
C1244 H1270 0.930 . S
C1245 C1240 1.479 . S
C1245 C1244 1.405 . S
C1245 H1271 0.931 . S
U1246 O1247 2.454 . S
U1246 O1248 2.458 . S
U1246 C1249 2.984 . S
U1246 C1250 2.847 . S
U1246 C1263 2.882 . S
U1246 O1264 2.441 . S
U1246 O1265 2.420 . S
U1246 O1266 2.455 . S
U1246 O1267 2.449 . S
O1247 U1246 2.454 . S
O1247 C1249 1.353 . S
O1248 U1246 2.458 . S
O1248 C1249 1.286 . S
C1249 U1246 2.984 . S
C1249 O1247 1.353 . S
C1249 O1248 1.286 . S
C1249 C1251 1.363 . S
C1250 C1240 1.465 . S
C1250 U1246 2.847 . S
C1250 O1264 1.249 . S
C1250 O1265 1.202 . S
C1251 C1249 1.363 . S
C1251 C1253 1.408 . S
C1251 C1256 1.342 . S
C1252 C1253 1.310 . S
C1252 C1255 1.461 . S
C1252 H1272 0.932 . S
C1253 C1251 1.408 . S
C1253 C1252 1.310 . S
C1253 H1273 0.930 . S
C1254 C1255 1.474 . S
C1254 C1256 1.285 . S
C1254 H1274 0.929 . S
C1255 C1252 1.461 . S
C1255 C1254 1.474 . S
C1256 C1251 1.342 . S
C1256 C1254 1.285 . S
C1256 H1275 0.930 . S
C1257 C1260 1.424 . S
C1257 C1262 1.245 . S
C1257 C1263 1.428 . S
C1258 C1261 1.260 . S
C1258 C1262 1.477 . S
C1258 H1276 0.932 . S
C1259 C1260 1.384 . S
C1259 C1261 1.479 . S
C1259 H1277 0.929 . S
C1260 C1257 1.424 . S
C1260 C1259 1.384 . S
C1260 H1278 0.928 . S
C1261 C1258 1.260 . S
C1261 C1259 1.479 . S
C1262 C1257 1.245 . S
C1262 C1258 1.477 . S
C1262 H1279 0.932 . S
C1263 U1246 2.882 . S
C1263 C1257 1.428 . S
C1263 O1266 1.301 . S
C1263 O1267 1.282 . S
O1264 U1246 2.441 . S
O1264 C1250 1.249 . S
O1265 U1246 2.420 . S
O1265 C1250 1.202 . S
O1266 U1246 2.455 . S
O1266 C1263 1.301 . S
O1267 U1246 2.449 . S
O1267 C1263 1.282 . S
H1268 C1241 0.931 . S
H1269 C1243 0.929 . S
H1270 C1244 0.930 . S
H1271 C1245 0.931 . S
H1272 C1252 0.932 . S
H1273 C1253 0.930 . S
H1274 C1254 0.929 . S
H1275 C1256 0.930 . S
H1276 C1258 0.932 . S
H1277 C1259 0.929 . S
H1278 C1260 0.928 . S
H1279 C1262 0.932 . S
C1280 C1281 1.264 . S
C1280 C1285 1.479 . S
C1280 C1290 1.465 . S
C1281 C1280 1.264 . S
C1281 C1283 1.339 . S
C1281 H1308 0.931 . S
C1282 C1283 1.395 . S
C1282 C1284 1.320 . S
C1283 C1281 1.339 . S
C1283 C1282 1.395 . S
C1283 H1309 0.929 . S
C1284 C1282 1.320 . S
C1284 C1285 1.405 . S
C1284 H1310 0.930 . S
C1285 C1280 1.479 . S
C1285 C1284 1.405 . S
C1285 H1311 0.931 . S
U1286 O1287 2.454 . S
U1286 O1288 2.458 . S
U1286 C1289 2.984 . S
U1286 C1290 2.847 . S
U1286 C1303 2.882 . S
U1286 O1304 2.441 . S
U1286 O1305 2.420 . S
U1286 O1306 2.455 . S
U1286 O1307 2.449 . S
O1287 U1286 2.454 . S
O1287 C1289 1.353 . S
O1288 U1286 2.458 . S
O1288 C1289 1.286 . S
C1289 U1286 2.984 . S
C1289 O1287 1.353 . S
C1289 O1288 1.286 . S
C1289 C1291 1.363 . S
C1290 C1280 1.465 . S
C1290 U1286 2.847 . S
C1290 O1304 1.249 . S
C1290 O1305 1.202 . S
C1291 C1289 1.363 . S
C1291 C1293 1.408 . S
C1291 C1296 1.342 . S
C1292 C1293 1.310 . S
C1292 C1295 1.461 . S
C1292 H1312 0.932 . S
C1293 C1291 1.408 . S
C1293 C1292 1.310 . S
C1293 H1313 0.930 . S
C1294 C1295 1.474 . S
C1294 C1296 1.285 . S
C1294 H1314 0.929 . S
C1295 C1292 1.461 . S
C1295 C1294 1.474 . S
C1296 C1291 1.342 . S
C1296 C1294 1.285 . S
C1296 H1315 0.930 . S
C1297 C1300 1.424 . S
C1297 C1302 1.245 . S
C1297 C1303 1.428 . S
C1298 C1301 1.260 . S
C1298 C1302 1.477 . S
C1298 H1316 0.932 . S
C1299 C1300 1.384 . S
C1299 C1301 1.479 . S
C1299 H1317 0.929 . S
C1300 C1297 1.424 . S
C1300 C1299 1.384 . S
C1300 H1318 0.928 . S
C1301 C1298 1.260 . S
C1301 C1299 1.479 . S
C1302 C1297 1.245 . S
C1302 C1298 1.477 . S
C1302 H1319 0.932 . S
C1303 U1286 2.882 . S
C1303 C1297 1.428 . S
C1303 O1306 1.301 . S
C1303 O1307 1.282 . S
O1304 U1286 2.441 . S
O1304 C1290 1.249 . S
O1305 U1286 2.420 . S
O1305 C1290 1.202 . S
O1306 U1286 2.455 . S
O1306 C1303 1.301 . S
O1307 U1286 2.449 . S
O1307 C1303 1.282 . S
H1308 C1281 0.931 . S
H1309 C1283 0.929 . S
H1310 C1284 0.930 . S
H1311 C1285 0.931 . S
H1312 C1292 0.932 . S
H1313 C1293 0.930 . S
H1314 C1294 0.929 . S
H1315 C1296 0.930 . S
H1316 C1298 0.932 . S
H1317 C1299 0.929 . S
H1318 C1300 0.928 . S
H1319 C1302 0.932 . S
C1320 C1321 1.264 . S
C1320 C1325 1.479 . S
C1320 C1330 1.465 . S
C1321 C1320 1.264 . S
C1321 C1323 1.339 . S
C1321 H1348 0.931 . S
C1322 C1323 1.395 . S
C1322 C1324 1.320 . S
C1323 C1321 1.339 . S
C1323 C1322 1.395 . S
C1323 H1349 0.929 . S
C1324 C1322 1.320 . S
C1324 C1325 1.405 . S
C1324 H1350 0.930 . S
C1325 C1320 1.479 . S
C1325 C1324 1.405 . S
C1325 H1351 0.931 . S
U1326 O1327 2.454 . S
U1326 O1328 2.458 . S
U1326 C1329 2.984 . S
U1326 C1330 2.847 . S
U1326 C1343 2.882 . S
U1326 O1344 2.441 . S
U1326 O1345 2.420 . S
U1326 O1346 2.455 . S
U1326 O1347 2.449 . S
O1327 U1326 2.454 . S
O1327 C1329 1.353 . S
O1328 U1326 2.458 . S
O1328 C1329 1.286 . S
C1329 U1326 2.984 . S
C1329 O1327 1.353 . S
C1329 O1328 1.286 . S
C1329 C1331 1.363 . S
C1330 C1320 1.465 . S
C1330 U1326 2.847 . S
C1330 O1344 1.249 . S
C1330 O1345 1.202 . S
C1331 C1329 1.363 . S
C1331 C1333 1.408 . S
C1331 C1336 1.342 . S
C1332 C1333 1.310 . S
C1332 C1335 1.461 . S
C1332 H1352 0.932 . S
C1333 C1331 1.408 . S
C1333 C1332 1.310 . S
C1333 H1353 0.930 . S
C1334 C1335 1.474 . S
C1334 C1336 1.285 . S
C1334 H1354 0.929 . S
C1335 C1332 1.461 . S
C1335 C1334 1.474 . S
C1336 C1331 1.342 . S
C1336 C1334 1.285 . S
C1336 H1355 0.930 . S
C1337 C1340 1.424 . S
C1337 C1342 1.245 . S
C1337 C1343 1.428 . S
C1338 C1341 1.260 . S
C1338 C1342 1.477 . S
C1338 H1356 0.932 . S
C1339 C1340 1.384 . S
C1339 C1341 1.479 . S
C1339 H1357 0.929 . S
C1340 C1337 1.424 . S
C1340 C1339 1.384 . S
C1340 H1358 0.928 . S
C1341 C1338 1.260 . S
C1341 C1339 1.479 . S
C1342 C1337 1.245 . S
C1342 C1338 1.477 . S
C1342 H1359 0.932 . S
C1343 U1326 2.882 . S
C1343 C1337 1.428 . S
C1343 O1346 1.301 . S
C1343 O1347 1.282 . S
O1344 U1326 2.441 . S
O1344 C1330 1.249 . S
O1345 U1326 2.420 . S
O1345 C1330 1.202 . S
O1346 U1326 2.455 . S
O1346 C1343 1.301 . S
O1347 U1326 2.449 . S
O1347 C1343 1.282 . S
H1348 C1321 0.931 . S
H1349 C1323 0.929 . S
H1350 C1324 0.930 . S
H1351 C1325 0.931 . S
H1352 C1332 0.932 . S
H1353 C1333 0.930 . S
H1354 C1334 0.929 . S
H1355 C1336 0.930 . S
H1356 C1338 0.932 . S
H1357 C1339 0.929 . S
H1358 C1340 0.928 . S
H1359 C1342 0.932 . S
C1360 C1361 1.264 . S
C1360 C1365 1.479 . S
C1360 C1370 1.465 . S
C1361 C1360 1.264 . S
C1361 C1363 1.339 . S
C1361 H1388 0.931 . S
C1362 C1363 1.395 . S
C1362 C1364 1.320 . S
C1363 C1361 1.339 . S
C1363 C1362 1.395 . S
C1363 H1389 0.929 . S
C1364 C1362 1.320 . S
C1364 C1365 1.405 . S
C1364 H1390 0.930 . S
C1365 C1360 1.479 . S
C1365 C1364 1.405 . S
C1365 H1391 0.931 . S
U1366 O1367 2.454 . S
U1366 O1368 2.458 . S
U1366 C1369 2.984 . S
U1366 C1370 2.847 . S
U1366 C1383 2.882 . S
U1366 O1384 2.441 . S
U1366 O1385 2.420 . S
U1366 O1386 2.455 . S
U1366 O1387 2.449 . S
O1367 U1366 2.454 . S
O1367 C1369 1.353 . S
O1368 U1366 2.458 . S
O1368 C1369 1.286 . S
C1369 U1366 2.984 . S
C1369 O1367 1.353 . S
C1369 O1368 1.286 . S
C1369 C1371 1.363 . S
C1370 C1360 1.465 . S
C1370 U1366 2.847 . S
C1370 O1384 1.249 . S
C1370 O1385 1.202 . S
C1371 C1369 1.363 . S
C1371 C1373 1.408 . S
C1371 C1376 1.342 . S
C1372 C1373 1.310 . S
C1372 C1375 1.461 . S
C1372 H1392 0.932 . S
C1373 C1371 1.408 . S
C1373 C1372 1.310 . S
C1373 H1393 0.930 . S
C1374 C1375 1.474 . S
C1374 C1376 1.285 . S
C1374 H1394 0.929 . S
C1375 C1372 1.461 . S
C1375 C1374 1.474 . S
C1376 C1371 1.342 . S
C1376 C1374 1.285 . S
C1376 H1395 0.930 . S
C1377 C1380 1.424 . S
C1377 C1382 1.245 . S
C1377 C1383 1.428 . S
C1378 C1381 1.260 . S
C1378 C1382 1.477 . S
C1378 H1396 0.932 . S
C1379 C1380 1.384 . S
C1379 C1381 1.479 . S
C1379 H1397 0.929 . S
C1380 C1377 1.424 . S
C1380 C1379 1.384 . S
C1380 H1398 0.928 . S
C1381 C1378 1.260 . S
C1381 C1379 1.479 . S
C1382 C1377 1.245 . S
C1382 C1378 1.477 . S
C1382 H1399 0.932 . S
C1383 U1366 2.882 . S
C1383 C1377 1.428 . S
C1383 O1386 1.301 . S
C1383 O1387 1.282 . S
O1384 U1366 2.441 . S
O1384 C1370 1.249 . S
O1385 U1366 2.420 . S
O1385 C1370 1.202 . S
O1386 U1366 2.455 . S
O1386 C1383 1.301 . S
O1387 U1366 2.449 . S
O1387 C1383 1.282 . S
H1388 C1361 0.931 . S
H1389 C1363 0.929 . S
H1390 C1364 0.930 . S
H1391 C1365 0.931 . S
H1392 C1372 0.932 . S
H1393 C1373 0.930 . S
H1394 C1374 0.929 . S
H1395 C1376 0.930 . S
H1396 C1378 0.932 . S
H1397 C1379 0.929 . S
H1398 C1380 0.928 . S
H1399 C1382 0.932 . S
C1400 C1401 1.264 . S
C1400 C1405 1.479 . S
C1400 C1410 1.465 . S
C1401 C1400 1.264 . S
C1401 C1403 1.339 . S
C1401 H1428 0.931 . S
C1402 C1403 1.395 . S
C1402 C1404 1.320 . S
C1403 C1401 1.339 . S
C1403 C1402 1.395 . S
C1403 H1429 0.929 . S
C1404 C1402 1.320 . S
C1404 C1405 1.405 . S
C1404 H1430 0.930 . S
C1405 C1400 1.479 . S
C1405 C1404 1.405 . S
C1405 H1431 0.931 . S
U1406 O1407 2.454 . S
U1406 O1408 2.458 . S
U1406 C1409 2.984 . S
U1406 C1410 2.847 . S
U1406 C1423 2.882 . S
U1406 O1424 2.441 . S
U1406 O1425 2.420 . S
U1406 O1426 2.455 . S
U1406 O1427 2.449 . S
O1407 U1406 2.454 . S
O1407 C1409 1.353 . S
O1408 U1406 2.458 . S
O1408 C1409 1.286 . S
C1409 U1406 2.984 . S
C1409 O1407 1.353 . S
C1409 O1408 1.286 . S
C1409 C1411 1.363 . S
C1410 C1400 1.465 . S
C1410 U1406 2.847 . S
C1410 O1424 1.249 . S
C1410 O1425 1.202 . S
C1411 C1409 1.363 . S
C1411 C1413 1.408 . S
C1411 C1416 1.342 . S
C1412 C1413 1.310 . S
C1412 C1415 1.461 . S
C1412 H1432 0.932 . S
C1413 C1411 1.408 . S
C1413 C1412 1.310 . S
C1413 H1433 0.930 . S
C1414 C1415 1.474 . S
C1414 C1416 1.285 . S
C1414 H1434 0.929 . S
C1415 C1412 1.461 . S
C1415 C1414 1.474 . S
C1416 C1411 1.342 . S
C1416 C1414 1.285 . S
C1416 H1435 0.930 . S
C1417 C1420 1.424 . S
C1417 C1422 1.245 . S
C1417 C1423 1.428 . S
C1418 C1421 1.260 . S
C1418 C1422 1.477 . S
C1418 H1436 0.932 . S
C1419 C1420 1.384 . S
C1419 C1421 1.479 . S
C1419 H1437 0.929 . S
C1420 C1417 1.424 . S
C1420 C1419 1.384 . S
C1420 H1438 0.928 . S
C1421 C1418 1.260 . S
C1421 C1419 1.479 . S
C1422 C1417 1.245 . S
C1422 C1418 1.477 . S
C1422 H1439 0.932 . S
C1423 U1406 2.882 . S
C1423 C1417 1.428 . S
C1423 O1426 1.301 . S
C1423 O1427 1.282 . S
O1424 U1406 2.441 . S
O1424 C1410 1.249 . S
O1425 U1406 2.420 . S
O1425 C1410 1.202 . S
O1426 U1406 2.455 . S
O1426 C1423 1.301 . S
O1427 U1406 2.449 . S
O1427 C1423 1.282 . S
H1428 C1401 0.931 . S
H1429 C1403 0.929 . S
H1430 C1404 0.930 . S
H1431 C1405 0.931 . S
H1432 C1412 0.932 . S
H1433 C1413 0.930 . S
H1434 C1414 0.929 . S
H1435 C1416 0.930 . S
H1436 C1418 0.932 . S
H1437 C1419 0.929 . S
H1438 C1420 0.928 . S
H1439 C1422 0.932 . S
C1440 C1441 1.264 . S
C1440 C1445 1.479 . S
C1440 C1450 1.465 . S
C1441 C1440 1.264 . S
C1441 C1443 1.339 . S
C1441 H1468 0.931 . S
C1442 C1443 1.395 . S
C1442 C1444 1.320 . S
C1443 C1441 1.339 . S
C1443 C1442 1.395 . S
C1443 H1469 0.929 . S
C1444 C1442 1.320 . S
C1444 C1445 1.405 . S
C1444 H1470 0.930 . S
C1445 C1440 1.479 . S
C1445 C1444 1.405 . S
C1445 H1471 0.931 . S
U1446 O1447 2.454 . S
U1446 O1448 2.458 . S
U1446 C1449 2.984 . S
U1446 C1450 2.847 . S
U1446 C1463 2.882 . S
U1446 O1464 2.441 . S
U1446 O1465 2.420 . S
U1446 O1466 2.455 . S
U1446 O1467 2.449 . S
O1447 U1446 2.454 . S
O1447 C1449 1.353 . S
O1448 U1446 2.458 . S
O1448 C1449 1.286 . S
C1449 U1446 2.984 . S
C1449 O1447 1.353 . S
C1449 O1448 1.286 . S
C1449 C1451 1.363 . S
C1450 C1440 1.465 . S
C1450 U1446 2.847 . S
C1450 O1464 1.249 . S
C1450 O1465 1.202 . S
C1451 C1449 1.363 . S
C1451 C1453 1.408 . S
C1451 C1456 1.342 . S
C1452 C1453 1.310 . S
C1452 C1455 1.461 . S
C1452 H1472 0.932 . S
C1453 C1451 1.408 . S
C1453 C1452 1.310 . S
C1453 H1473 0.930 . S
C1454 C1455 1.474 . S
C1454 C1456 1.285 . S
C1454 H1474 0.929 . S
C1455 C1452 1.461 . S
C1455 C1454 1.474 . S
C1456 C1451 1.342 . S
C1456 C1454 1.285 . S
C1456 H1475 0.930 . S
C1457 C1460 1.424 . S
C1457 C1462 1.245 . S
C1457 C1463 1.428 . S
C1458 C1461 1.260 . S
C1458 C1462 1.477 . S
C1458 H1476 0.932 . S
C1459 C1460 1.384 . S
C1459 C1461 1.479 . S
C1459 H1477 0.929 . S
C1460 C1457 1.424 . S
C1460 C1459 1.384 . S
C1460 H1478 0.928 . S
C1461 C1458 1.260 . S
C1461 C1459 1.479 . S
C1462 C1457 1.245 . S
C1462 C1458 1.477 . S
C1462 H1479 0.932 . S
C1463 U1446 2.882 . S
C1463 C1457 1.428 . S
C1463 O1466 1.301 . S
C1463 O1467 1.282 . S
O1464 U1446 2.441 . S
O1464 C1450 1.249 . S
O1465 U1446 2.420 . S
O1465 C1450 1.202 . S
O1466 U1446 2.455 . S
O1466 C1463 1.301 . S
O1467 U1446 2.449 . S
O1467 C1463 1.282 . S
H1468 C1441 0.931 . S
H1469 C1443 0.929 . S
H1470 C1444 0.930 . S
H1471 C1445 0.931 . S
H1472 C1452 0.932 . S
H1473 C1453 0.930 . S
H1474 C1454 0.929 . S
H1475 C1456 0.930 . S
H1476 C1458 0.932 . S
H1477 C1459 0.929 . S
H1478 C1460 0.928 . S
H1479 C1462 0.932 . S
C1480 C1481 1.264 . S
C1480 C1485 1.479 . S
C1480 C1490 1.465 . S
C1481 C1480 1.264 . S
C1481 C1483 1.339 . S
C1481 H1508 0.931 . S
C1482 C1483 1.395 . S
C1482 C1484 1.320 . S
C1483 C1481 1.339 . S
C1483 C1482 1.395 . S
C1483 H1509 0.929 . S
C1484 C1482 1.320 . S
C1484 C1485 1.405 . S
C1484 H1510 0.930 . S
C1485 C1480 1.479 . S
C1485 C1484 1.405 . S
C1485 H1511 0.931 . S
U1486 O1487 2.454 . S
U1486 O1488 2.458 . S
U1486 C1489 2.984 . S
U1486 C1490 2.847 . S
U1486 C1503 2.882 . S
U1486 O1504 2.441 . S
U1486 O1505 2.420 . S
U1486 O1506 2.455 . S
U1486 O1507 2.449 . S
O1487 U1486 2.454 . S
O1487 C1489 1.353 . S
O1488 U1486 2.458 . S
O1488 C1489 1.286 . S
C1489 U1486 2.984 . S
C1489 O1487 1.353 . S
C1489 O1488 1.286 . S
C1489 C1491 1.363 . S
C1490 C1480 1.465 . S
C1490 U1486 2.847 . S
C1490 O1504 1.249 . S
C1490 O1505 1.202 . S
C1491 C1489 1.363 . S
C1491 C1493 1.408 . S
C1491 C1496 1.342 . S
C1492 C1493 1.310 . S
C1492 C1495 1.461 . S
C1492 H1512 0.932 . S
C1493 C1491 1.408 . S
C1493 C1492 1.310 . S
C1493 H1513 0.930 . S
C1494 C1495 1.474 . S
C1494 C1496 1.285 . S
C1494 H1514 0.929 . S
C1495 C1492 1.461 . S
C1495 C1494 1.474 . S
C1496 C1491 1.342 . S
C1496 C1494 1.285 . S
C1496 H1515 0.930 . S
C1497 C1500 1.424 . S
C1497 C1502 1.245 . S
C1497 C1503 1.428 . S
C1498 C1501 1.260 . S
C1498 C1502 1.477 . S
C1498 H1516 0.932 . S
C1499 C1500 1.384 . S
C1499 C1501 1.479 . S
C1499 H1517 0.929 . S
C1500 C1497 1.424 . S
C1500 C1499 1.384 . S
C1500 H1518 0.928 . S
C1501 C1498 1.260 . S
C1501 C1499 1.479 . S
C1502 C1497 1.245 . S
C1502 C1498 1.477 . S
C1502 H1519 0.932 . S
C1503 U1486 2.882 . S
C1503 C1497 1.428 . S
C1503 O1506 1.301 . S
C1503 O1507 1.282 . S
O1504 U1486 2.441 . S
O1504 C1490 1.249 . S
O1505 U1486 2.420 . S
O1505 C1490 1.202 . S
O1506 U1486 2.455 . S
O1506 C1503 1.301 . S
O1507 U1486 2.449 . S
O1507 C1503 1.282 . S
H1508 C1481 0.931 . S
H1509 C1483 0.929 . S
H1510 C1484 0.930 . S
H1511 C1485 0.931 . S
H1512 C1492 0.932 . S
H1513 C1493 0.930 . S
H1514 C1494 0.929 . S
H1515 C1496 0.930 . S
H1516 C1498 0.932 . S
H1517 C1499 0.929 . S
H1518 C1500 0.928 . S
H1519 C1502 0.932 . S
C1520 C1521 1.264 . S
C1520 C1525 1.479 . S
C1520 C1530 1.465 . S
C1521 C1520 1.264 . S
C1521 C1523 1.339 . S
C1521 H1548 0.931 . S
C1522 C1523 1.395 . S
C1522 C1524 1.320 . S
C1523 C1521 1.339 . S
C1523 C1522 1.395 . S
C1523 H1549 0.929 . S
C1524 C1522 1.320 . S
C1524 C1525 1.405 . S
C1524 H1550 0.930 . S
C1525 C1520 1.479 . S
C1525 C1524 1.405 . S
C1525 H1551 0.931 . S
U1526 O1527 2.454 . S
U1526 O1528 2.458 . S
U1526 C1529 2.984 . S
U1526 C1530 2.847 . S
U1526 C1543 2.882 . S
U1526 O1544 2.441 . S
U1526 O1545 2.420 . S
U1526 O1546 2.455 . S
U1526 O1547 2.449 . S
O1527 U1526 2.454 . S
O1527 C1529 1.353 . S
O1528 U1526 2.458 . S
O1528 C1529 1.286 . S
C1529 U1526 2.984 . S
C1529 O1527 1.353 . S
C1529 O1528 1.286 . S
C1529 C1531 1.363 . S
C1530 C1520 1.465 . S
C1530 U1526 2.847 . S
C1530 O1544 1.249 . S
C1530 O1545 1.202 . S
C1531 C1529 1.363 . S
C1531 C1533 1.408 . S
C1531 C1536 1.342 . S
C1532 C1533 1.310 . S
C1532 C1535 1.461 . S
C1532 H1552 0.932 . S
C1533 C1531 1.408 . S
C1533 C1532 1.310 . S
C1533 H1553 0.930 . S
C1534 C1535 1.474 . S
C1534 C1536 1.285 . S
C1534 H1554 0.929 . S
C1535 C1532 1.461 . S
C1535 C1534 1.474 . S
C1536 C1531 1.342 . S
C1536 C1534 1.285 . S
C1536 H1555 0.930 . S
C1537 C1540 1.424 . S
C1537 C1542 1.245 . S
C1537 C1543 1.428 . S
C1538 C1541 1.260 . S
C1538 C1542 1.477 . S
C1538 H1556 0.932 . S
C1539 C1540 1.384 . S
C1539 C1541 1.479 . S
C1539 H1557 0.929 . S
C1540 C1537 1.424 . S
C1540 C1539 1.384 . S
C1540 H1558 0.928 . S
C1541 C1538 1.260 . S
C1541 C1539 1.479 . S
C1542 C1537 1.245 . S
C1542 C1538 1.477 . S
C1542 H1559 0.932 . S
C1543 U1526 2.882 . S
C1543 C1537 1.428 . S
C1543 O1546 1.301 . S
C1543 O1547 1.282 . S
O1544 U1526 2.441 . S
O1544 C1530 1.249 . S
O1545 U1526 2.420 . S
O1545 C1530 1.202 . S
O1546 U1526 2.455 . S
O1546 C1543 1.301 . S
O1547 U1526 2.449 . S
O1547 C1543 1.282 . S
H1548 C1521 0.931 . S
H1549 C1523 0.929 . S
H1550 C1524 0.930 . S
H1551 C1525 0.931 . S
H1552 C1532 0.932 . S
H1553 C1533 0.930 . S
H1554 C1534 0.929 . S
H1555 C1536 0.930 . S
H1556 C1538 0.932 . S
H1557 C1539 0.929 . S
H1558 C1540 0.928 . S
H1559 C1542 0.932 . S
C1560 C1561 1.264 . S
C1560 C1565 1.479 . S
C1560 C1570 1.465 . S
C1561 C1560 1.264 . S
C1561 C1563 1.339 . S
C1561 H1588 0.931 . S
C1562 C1563 1.395 . S
C1562 C1564 1.320 . S
C1563 C1561 1.339 . S
C1563 C1562 1.395 . S
C1563 H1589 0.929 . S
C1564 C1562 1.320 . S
C1564 C1565 1.405 . S
C1564 H1590 0.930 . S
C1565 C1560 1.479 . S
C1565 C1564 1.405 . S
C1565 H1591 0.931 . S
U1566 O1567 2.454 . S
U1566 O1568 2.458 . S
U1566 C1569 2.984 . S
U1566 C1570 2.847 . S
U1566 C1583 2.882 . S
U1566 O1584 2.441 . S
U1566 O1585 2.420 . S
U1566 O1586 2.455 . S
U1566 O1587 2.449 . S
O1567 U1566 2.454 . S
O1567 C1569 1.353 . S
O1568 U1566 2.458 . S
O1568 C1569 1.286 . S
C1569 U1566 2.984 . S
C1569 O1567 1.353 . S
C1569 O1568 1.286 . S
C1569 C1571 1.363 . S
C1570 C1560 1.465 . S
C1570 U1566 2.847 . S
C1570 O1584 1.249 . S
C1570 O1585 1.202 . S
C1571 C1569 1.363 . S
C1571 C1573 1.408 . S
C1571 C1576 1.342 . S
C1572 C1573 1.310 . S
C1572 C1575 1.461 . S
C1572 H1592 0.932 . S
C1573 C1571 1.408 . S
C1573 C1572 1.310 . S
C1573 H1593 0.930 . S
C1574 C1575 1.474 . S
C1574 C1576 1.285 . S
C1574 H1594 0.929 . S
C1575 C1572 1.461 . S
C1575 C1574 1.474 . S
C1576 C1571 1.342 . S
C1576 C1574 1.285 . S
C1576 H1595 0.930 . S
C1577 C1580 1.424 . S
C1577 C1582 1.245 . S
C1577 C1583 1.428 . S
C1578 C1581 1.260 . S
C1578 C1582 1.477 . S
C1578 H1596 0.932 . S
C1579 C1580 1.384 . S
C1579 C1581 1.479 . S
C1579 H1597 0.929 . S
C1580 C1577 1.424 . S
C1580 C1579 1.384 . S
C1580 H1598 0.928 . S
C1581 C1578 1.260 . S
C1581 C1579 1.479 . S
C1582 C1577 1.245 . S
C1582 C1578 1.477 . S
C1582 H1599 0.932 . S
C1583 U1566 2.882 . S
C1583 C1577 1.428 . S
C1583 O1586 1.301 . S
C1583 O1587 1.282 . S
O1584 U1566 2.441 . S
O1584 C1570 1.249 . S
O1585 U1566 2.420 . S
O1585 C1570 1.202 . S
O1586 U1566 2.455 . S
O1586 C1583 1.301 . S
O1587 U1566 2.449 . S
O1587 C1583 1.282 . S
H1588 C1561 0.931 . S
H1589 C1563 0.929 . S
H1590 C1564 0.930 . S
H1591 C1565 0.931 . S
H1592 C1572 0.932 . S
H1593 C1573 0.930 . S
H1594 C1574 0.929 . S
H1595 C1576 0.930 . S
H1596 C1578 0.932 . S
H1597 C1579 0.929 . S
H1598 C1580 0.928 . S
H1599 C1582 0.932 . S
C1600 C1601 1.264 . S
C1600 C1605 1.479 . S
C1600 C1610 1.465 . S
C1601 C1600 1.264 . S
C1601 C1603 1.339 . S
C1601 H1628 0.931 . S
C1602 C1603 1.395 . S
C1602 C1604 1.320 . S
C1603 C1601 1.339 . S
C1603 C1602 1.395 . S
C1603 H1629 0.929 . S
C1604 C1602 1.320 . S
C1604 C1605 1.405 . S
C1604 H1630 0.930 . S
C1605 C1600 1.479 . S
C1605 C1604 1.405 . S
C1605 H1631 0.931 . S
U1606 O1607 2.454 . S
U1606 O1608 2.458 . S
U1606 C1609 2.984 . S
U1606 C1610 2.847 . S
U1606 C1623 2.882 . S
U1606 O1624 2.441 . S
U1606 O1625 2.420 . S
U1606 O1626 2.455 . S
U1606 O1627 2.449 . S
O1607 U1606 2.454 . S
O1607 C1609 1.353 . S
O1608 U1606 2.458 . S
O1608 C1609 1.286 . S
C1609 U1606 2.984 . S
C1609 O1607 1.353 . S
C1609 O1608 1.286 . S
C1609 C1611 1.363 . S
C1610 C1600 1.465 . S
C1610 U1606 2.847 . S
C1610 O1624 1.249 . S
C1610 O1625 1.202 . S
C1611 C1609 1.363 . S
C1611 C1613 1.408 . S
C1611 C1616 1.342 . S
C1612 C1613 1.310 . S
C1612 C1615 1.461 . S
C1612 H1632 0.932 . S
C1613 C1611 1.408 . S
C1613 C1612 1.310 . S
C1613 H1633 0.930 . S
C1614 C1615 1.474 . S
C1614 C1616 1.285 . S
C1614 H1634 0.929 . S
C1615 C1612 1.461 . S
C1615 C1614 1.474 . S
C1616 C1611 1.342 . S
C1616 C1614 1.285 . S
C1616 H1635 0.930 . S
C1617 C1620 1.424 . S
C1617 C1622 1.245 . S
C1617 C1623 1.428 . S
C1618 C1621 1.260 . S
C1618 C1622 1.477 . S
C1618 H1636 0.932 . S
C1619 C1620 1.384 . S
C1619 C1621 1.479 . S
C1619 H1637 0.929 . S
C1620 C1617 1.424 . S
C1620 C1619 1.384 . S
C1620 H1638 0.928 . S
C1621 C1618 1.260 . S
C1621 C1619 1.479 . S
C1622 C1617 1.245 . S
C1622 C1618 1.477 . S
C1622 H1639 0.932 . S
C1623 U1606 2.882 . S
C1623 C1617 1.428 . S
C1623 O1626 1.301 . S
C1623 O1627 1.282 . S
O1624 U1606 2.441 . S
O1624 C1610 1.249 . S
O1625 U1606 2.420 . S
O1625 C1610 1.202 . S
O1626 U1606 2.455 . S
O1626 C1623 1.301 . S
O1627 U1606 2.449 . S
O1627 C1623 1.282 . S
H1628 C1601 0.931 . S
H1629 C1603 0.929 . S
H1630 C1604 0.930 . S
H1631 C1605 0.931 . S
H1632 C1612 0.932 . S
H1633 C1613 0.930 . S
H1634 C1614 0.929 . S
H1635 C1616 0.930 . S
H1636 C1618 0.932 . S
H1637 C1619 0.929 . S
H1638 C1620 0.928 . S
H1639 C1622 0.932 . S
C1640 C1641 1.264 . S
C1640 C1645 1.479 . S
C1640 C1650 1.465 . S
C1641 C1640 1.264 . S
C1641 C1643 1.339 . S
C1641 H1668 0.931 . S
C1642 C1643 1.395 . S
C1642 C1644 1.320 . S
C1643 C1641 1.339 . S
C1643 C1642 1.395 . S
C1643 H1669 0.929 . S
C1644 C1642 1.320 . S
C1644 C1645 1.405 . S
C1644 H1670 0.930 . S
C1645 C1640 1.479 . S
C1645 C1644 1.405 . S
C1645 H1671 0.931 . S
U1646 O1647 2.454 . S
U1646 O1648 2.458 . S
U1646 C1649 2.984 . S
U1646 C1650 2.847 . S
U1646 C1663 2.882 . S
U1646 O1664 2.441 . S
U1646 O1665 2.420 . S
U1646 O1666 2.455 . S
U1646 O1667 2.449 . S
O1647 U1646 2.454 . S
O1647 C1649 1.353 . S
O1648 U1646 2.458 . S
O1648 C1649 1.286 . S
C1649 U1646 2.984 . S
C1649 O1647 1.353 . S
C1649 O1648 1.286 . S
C1649 C1651 1.363 . S
C1650 C1640 1.465 . S
C1650 U1646 2.847 . S
C1650 O1664 1.249 . S
C1650 O1665 1.202 . S
C1651 C1649 1.363 . S
C1651 C1653 1.408 . S
C1651 C1656 1.342 . S
C1652 C1653 1.310 . S
C1652 C1655 1.461 . S
C1652 H1672 0.932 . S
C1653 C1651 1.408 . S
C1653 C1652 1.310 . S
C1653 H1673 0.930 . S
C1654 C1655 1.474 . S
C1654 C1656 1.285 . S
C1654 H1674 0.929 . S
C1655 C1652 1.461 . S
C1655 C1654 1.474 . S
C1656 C1651 1.342 . S
C1656 C1654 1.285 . S
C1656 H1675 0.930 . S
C1657 C1660 1.424 . S
C1657 C1662 1.245 . S
C1657 C1663 1.428 . S
C1658 C1661 1.260 . S
C1658 C1662 1.477 . S
C1658 H1676 0.932 . S
C1659 C1660 1.384 . S
C1659 C1661 1.479 . S
C1659 H1677 0.929 . S
C1660 C1657 1.424 . S
C1660 C1659 1.384 . S
C1660 H1678 0.928 . S
C1661 C1658 1.260 . S
C1661 C1659 1.479 . S
C1662 C1657 1.245 . S
C1662 C1658 1.477 . S
C1662 H1679 0.932 . S
C1663 U1646 2.882 . S
C1663 C1657 1.428 . S
C1663 O1666 1.301 . S
C1663 O1667 1.282 . S
O1664 U1646 2.441 . S
O1664 C1650 1.249 . S
O1665 U1646 2.420 . S
O1665 C1650 1.202 . S
O1666 U1646 2.455 . S
O1666 C1663 1.301 . S
O1667 U1646 2.449 . S
O1667 C1663 1.282 . S
H1668 C1641 0.931 . S
H1669 C1643 0.929 . S
H1670 C1644 0.930 . S
H1671 C1645 0.931 . S
H1672 C1652 0.932 . S
H1673 C1653 0.930 . S
H1674 C1654 0.929 . S
H1675 C1656 0.930 . S
H1676 C1658 0.932 . S
H1677 C1659 0.929 . S
H1678 C1660 0.928 . S
H1679 C1662 0.932 . S
C1680 C1681 1.264 . S
C1680 C1685 1.479 . S
C1680 C1690 1.465 . S
C1681 C1680 1.264 . S
C1681 C1683 1.339 . S
C1681 H1708 0.931 . S
C1682 C1683 1.395 . S
C1682 C1684 1.320 . S
C1683 C1681 1.339 . S
C1683 C1682 1.395 . S
C1683 H1709 0.929 . S
C1684 C1682 1.320 . S
C1684 C1685 1.405 . S
C1684 H1710 0.930 . S
C1685 C1680 1.479 . S
C1685 C1684 1.405 . S
C1685 H1711 0.931 . S
U1686 O1687 2.454 . S
U1686 O1688 2.458 . S
U1686 C1689 2.984 . S
U1686 C1690 2.847 . S
U1686 C1703 2.882 . S
U1686 O1704 2.441 . S
U1686 O1705 2.420 . S
U1686 O1706 2.455 . S
U1686 O1707 2.449 . S
O1687 U1686 2.454 . S
O1687 C1689 1.353 . S
O1688 U1686 2.458 . S
O1688 C1689 1.286 . S
C1689 U1686 2.984 . S
C1689 O1687 1.353 . S
C1689 O1688 1.286 . S
C1689 C1691 1.363 . S
C1690 C1680 1.465 . S
C1690 U1686 2.847 . S
C1690 O1704 1.249 . S
C1690 O1705 1.202 . S
C1691 C1689 1.363 . S
C1691 C1693 1.408 . S
C1691 C1696 1.342 . S
C1692 C1693 1.310 . S
C1692 C1695 1.461 . S
C1692 H1712 0.932 . S
C1693 C1691 1.408 . S
C1693 C1692 1.310 . S
C1693 H1713 0.930 . S
C1694 C1695 1.474 . S
C1694 C1696 1.285 . S
C1694 H1714 0.929 . S
C1695 C1692 1.461 . S
C1695 C1694 1.474 . S
C1696 C1691 1.342 . S
C1696 C1694 1.285 . S
C1696 H1715 0.930 . S
C1697 C1700 1.424 . S
C1697 C1702 1.245 . S
C1697 C1703 1.428 . S
C1698 C1701 1.260 . S
C1698 C1702 1.477 . S
C1698 H1716 0.932 . S
C1699 C1700 1.384 . S
C1699 C1701 1.479 . S
C1699 H1717 0.929 . S
C1700 C1697 1.424 . S
C1700 C1699 1.384 . S
C1700 H1718 0.928 . S
C1701 C1698 1.260 . S
C1701 C1699 1.479 . S
C1702 C1697 1.245 . S
C1702 C1698 1.477 . S
C1702 H1719 0.932 . S
C1703 U1686 2.882 . S
C1703 C1697 1.428 . S
C1703 O1706 1.301 . S
C1703 O1707 1.282 . S
O1704 U1686 2.441 . S
O1704 C1690 1.249 . S
O1705 U1686 2.420 . S
O1705 C1690 1.202 . S
O1706 U1686 2.455 . S
O1706 C1703 1.301 . S
O1707 U1686 2.449 . S
O1707 C1703 1.282 . S
H1708 C1681 0.931 . S
H1709 C1683 0.929 . S
H1710 C1684 0.930 . S
H1711 C1685 0.931 . S
H1712 C1692 0.932 . S
H1713 C1693 0.930 . S
H1714 C1694 0.929 . S
H1715 C1696 0.930 . S
H1716 C1698 0.932 . S
H1717 C1699 0.929 . S
H1718 C1700 0.928 . S
H1719 C1702 0.932 . S
C1720 C1721 1.264 . S
C1720 C1725 1.479 . S
C1720 C1730 1.465 . S
C1721 C1720 1.264 . S
C1721 C1723 1.339 . S
C1721 H1748 0.931 . S
C1722 C1723 1.395 . S
C1722 C1724 1.320 . S
C1723 C1721 1.339 . S
C1723 C1722 1.395 . S
C1723 H1749 0.929 . S
C1724 C1722 1.320 . S
C1724 C1725 1.405 . S
C1724 H1750 0.930 . S
C1725 C1720 1.479 . S
C1725 C1724 1.405 . S
C1725 H1751 0.931 . S
U1726 O1727 2.454 . S
U1726 O1728 2.458 . S
U1726 C1729 2.984 . S
U1726 C1730 2.847 . S
U1726 C1743 2.882 . S
U1726 O1744 2.441 . S
U1726 O1745 2.420 . S
U1726 O1746 2.455 . S
U1726 O1747 2.449 . S
O1727 U1726 2.454 . S
O1727 C1729 1.353 . S
O1728 U1726 2.458 . S
O1728 C1729 1.286 . S
C1729 U1726 2.984 . S
C1729 O1727 1.353 . S
C1729 O1728 1.286 . S
C1729 C1731 1.363 . S
C1730 C1720 1.465 . S
C1730 U1726 2.847 . S
C1730 O1744 1.249 . S
C1730 O1745 1.202 . S
C1731 C1729 1.363 . S
C1731 C1733 1.408 . S
C1731 C1736 1.342 . S
C1732 C1733 1.310 . S
C1732 C1735 1.461 . S
C1732 H1752 0.932 . S
C1733 C1731 1.408 . S
C1733 C1732 1.310 . S
C1733 H1753 0.930 . S
C1734 C1735 1.474 . S
C1734 C1736 1.285 . S
C1734 H1754 0.929 . S
C1735 C1732 1.461 . S
C1735 C1734 1.474 . S
C1736 C1731 1.342 . S
C1736 C1734 1.285 . S
C1736 H1755 0.930 . S
C1737 C1740 1.424 . S
C1737 C1742 1.245 . S
C1737 C1743 1.428 . S
C1738 C1741 1.260 . S
C1738 C1742 1.477 . S
C1738 H1756 0.932 . S
C1739 C1740 1.384 . S
C1739 C1741 1.479 . S
C1739 H1757 0.929 . S
C1740 C1737 1.424 . S
C1740 C1739 1.384 . S
C1740 H1758 0.928 . S
C1741 C1738 1.260 . S
C1741 C1739 1.479 . S
C1742 C1737 1.245 . S
C1742 C1738 1.477 . S
C1742 H1759 0.932 . S
C1743 U1726 2.882 . S
C1743 C1737 1.428 . S
C1743 O1746 1.301 . S
C1743 O1747 1.282 . S
O1744 U1726 2.441 . S
O1744 C1730 1.249 . S
O1745 U1726 2.420 . S
O1745 C1730 1.202 . S
O1746 U1726 2.455 . S
O1746 C1743 1.301 . S
O1747 U1726 2.449 . S
O1747 C1743 1.282 . S
H1748 C1721 0.931 . S
H1749 C1723 0.929 . S
H1750 C1724 0.930 . S
H1751 C1725 0.931 . S
H1752 C1732 0.932 . S
H1753 C1733 0.930 . S
H1754 C1734 0.929 . S
H1755 C1736 0.930 . S
H1756 C1738 0.932 . S
H1757 C1739 0.929 . S
H1758 C1740 0.928 . S
H1759 C1742 0.932 . S
C1760 C1761 1.264 . S
C1760 C1765 1.479 . S
C1760 C1770 1.465 . S
C1761 C1760 1.264 . S
C1761 C1763 1.339 . S
C1761 H1788 0.931 . S
C1762 C1763 1.395 . S
C1762 C1764 1.320 . S
C1763 C1761 1.339 . S
C1763 C1762 1.395 . S
C1763 H1789 0.929 . S
C1764 C1762 1.320 . S
C1764 C1765 1.405 . S
C1764 H1790 0.930 . S
C1765 C1760 1.479 . S
C1765 C1764 1.405 . S
C1765 H1791 0.931 . S
U1766 O1767 2.454 . S
U1766 O1768 2.458 . S
U1766 C1769 2.984 . S
U1766 C1770 2.847 . S
U1766 C1783 2.882 . S
U1766 O1784 2.441 . S
U1766 O1785 2.420 . S
U1766 O1786 2.455 . S
U1766 O1787 2.449 . S
O1767 U1766 2.454 . S
O1767 C1769 1.353 . S
O1768 U1766 2.458 . S
O1768 C1769 1.286 . S
C1769 U1766 2.984 . S
C1769 O1767 1.353 . S
C1769 O1768 1.286 . S
C1769 C1771 1.363 . S
C1770 C1760 1.465 . S
C1770 U1766 2.847 . S
C1770 O1784 1.249 . S
C1770 O1785 1.202 . S
C1771 C1769 1.363 . S
C1771 C1773 1.408 . S
C1771 C1776 1.342 . S
C1772 C1773 1.310 . S
C1772 C1775 1.461 . S
C1772 H1792 0.932 . S
C1773 C1771 1.408 . S
C1773 C1772 1.310 . S
C1773 H1793 0.930 . S
C1774 C1775 1.474 . S
C1774 C1776 1.285 . S
C1774 H1794 0.929 . S
C1775 C1772 1.461 . S
C1775 C1774 1.474 . S
C1776 C1771 1.342 . S
C1776 C1774 1.285 . S
C1776 H1795 0.930 . S
C1777 C1780 1.424 . S
C1777 C1782 1.245 . S
C1777 C1783 1.428 . S
C1778 C1781 1.260 . S
C1778 C1782 1.477 . S
C1778 H1796 0.932 . S
C1779 C1780 1.384 . S
C1779 C1781 1.479 . S
C1779 H1797 0.929 . S
C1780 C1777 1.424 . S
C1780 C1779 1.384 . S
C1780 H1798 0.928 . S
C1781 C1778 1.260 . S
C1781 C1779 1.479 . S
C1782 C1777 1.245 . S
C1782 C1778 1.477 . S
C1782 H1799 0.932 . S
C1783 U1766 2.882 . S
C1783 C1777 1.428 . S
C1783 O1786 1.301 . S
C1783 O1787 1.282 . S
O1784 U1766 2.441 . S
O1784 C1770 1.249 . S
O1785 U1766 2.420 . S
O1785 C1770 1.202 . S
O1786 U1766 2.455 . S
O1786 C1783 1.301 . S
O1787 U1766 2.449 . S
O1787 C1783 1.282 . S
H1788 C1761 0.931 . S
H1789 C1763 0.929 . S
H1790 C1764 0.930 . S
H1791 C1765 0.931 . S
H1792 C1772 0.932 . S
H1793 C1773 0.930 . S
H1794 C1774 0.929 . S
H1795 C1776 0.930 . S
H1796 C1778 0.932 . S
H1797 C1779 0.929 . S
H1798 C1780 0.928 . S
H1799 C1782 0.932 . S
C1800 C1801 1.264 . S
C1800 C1805 1.479 . S
C1800 C1810 1.465 . S
C1801 C1800 1.264 . S
C1801 C1803 1.339 . S
C1801 H1828 0.931 . S
C1802 C1803 1.395 . S
C1802 C1804 1.320 . S
C1803 C1801 1.339 . S
C1803 C1802 1.395 . S
C1803 H1829 0.929 . S
C1804 C1802 1.320 . S
C1804 C1805 1.405 . S
C1804 H1830 0.930 . S
C1805 C1800 1.479 . S
C1805 C1804 1.405 . S
C1805 H1831 0.931 . S
U1806 O1807 2.454 . S
U1806 O1808 2.458 . S
U1806 C1809 2.984 . S
U1806 C1810 2.847 . S
U1806 C1823 2.882 . S
U1806 O1824 2.441 . S
U1806 O1825 2.420 . S
U1806 O1826 2.455 . S
U1806 O1827 2.449 . S
O1807 U1806 2.454 . S
O1807 C1809 1.353 . S
O1808 U1806 2.458 . S
O1808 C1809 1.286 . S
C1809 U1806 2.984 . S
C1809 O1807 1.353 . S
C1809 O1808 1.286 . S
C1809 C1811 1.363 . S
C1810 C1800 1.465 . S
C1810 U1806 2.847 . S
C1810 O1824 1.249 . S
C1810 O1825 1.202 . S
C1811 C1809 1.363 . S
C1811 C1813 1.408 . S
C1811 C1816 1.342 . S
C1812 C1813 1.310 . S
C1812 C1815 1.461 . S
C1812 H1832 0.932 . S
C1813 C1811 1.408 . S
C1813 C1812 1.310 . S
C1813 H1833 0.930 . S
C1814 C1815 1.474 . S
C1814 C1816 1.285 . S
C1814 H1834 0.929 . S
C1815 C1812 1.461 . S
C1815 C1814 1.474 . S
C1816 C1811 1.342 . S
C1816 C1814 1.285 . S
C1816 H1835 0.930 . S
C1817 C1820 1.424 . S
C1817 C1822 1.245 . S
C1817 C1823 1.428 . S
C1818 C1821 1.260 . S
C1818 C1822 1.477 . S
C1818 H1836 0.932 . S
C1819 C1820 1.384 . S
C1819 C1821 1.479 . S
C1819 H1837 0.929 . S
C1820 C1817 1.424 . S
C1820 C1819 1.384 . S
C1820 H1838 0.928 . S
C1821 C1818 1.260 . S
C1821 C1819 1.479 . S
C1822 C1817 1.245 . S
C1822 C1818 1.477 . S
C1822 H1839 0.932 . S
C1823 U1806 2.882 . S
C1823 C1817 1.428 . S
C1823 O1826 1.301 . S
C1823 O1827 1.282 . S
O1824 U1806 2.441 . S
O1824 C1810 1.249 . S
O1825 U1806 2.420 . S
O1825 C1810 1.202 . S
O1826 U1806 2.455 . S
O1826 C1823 1.301 . S
O1827 U1806 2.449 . S
O1827 C1823 1.282 . S
H1828 C1801 0.931 . S
H1829 C1803 0.929 . S
H1830 C1804 0.930 . S
H1831 C1805 0.931 . S
H1832 C1812 0.932 . S
H1833 C1813 0.930 . S
H1834 C1814 0.929 . S
H1835 C1816 0.930 . S
H1836 C1818 0.932 . S
H1837 C1819 0.929 . S
H1838 C1820 0.928 . S
H1839 C1822 0.932 . S
C1840 C1841 1.264 . S
C1840 C1845 1.479 . S
C1840 C1850 1.465 . S
C1841 C1840 1.264 . S
C1841 C1843 1.339 . S
C1841 H1868 0.931 . S
C1842 C1843 1.395 . S
C1842 C1844 1.320 . S
C1843 C1841 1.339 . S
C1843 C1842 1.395 . S
C1843 H1869 0.929 . S
C1844 C1842 1.320 . S
C1844 C1845 1.405 . S
C1844 H1870 0.930 . S
C1845 C1840 1.479 . S
C1845 C1844 1.405 . S
C1845 H1871 0.931 . S
U1846 O1847 2.454 . S
U1846 O1848 2.458 . S
U1846 C1849 2.984 . S
U1846 C1850 2.847 . S
U1846 C1863 2.882 . S
U1846 O1864 2.441 . S
U1846 O1865 2.420 . S
U1846 O1866 2.455 . S
U1846 O1867 2.449 . S
O1847 U1846 2.454 . S
O1847 C1849 1.353 . S
O1848 U1846 2.458 . S
O1848 C1849 1.286 . S
C1849 U1846 2.984 . S
C1849 O1847 1.353 . S
C1849 O1848 1.286 . S
C1849 C1851 1.363 . S
C1850 C1840 1.465 . S
C1850 U1846 2.847 . S
C1850 O1864 1.249 . S
C1850 O1865 1.202 . S
C1851 C1849 1.363 . S
C1851 C1853 1.408 . S
C1851 C1856 1.342 . S
C1852 C1853 1.310 . S
C1852 C1855 1.461 . S
C1852 H1872 0.932 . S
C1853 C1851 1.408 . S
C1853 C1852 1.310 . S
C1853 H1873 0.930 . S
C1854 C1855 1.474 . S
C1854 C1856 1.285 . S
C1854 H1874 0.929 . S
C1855 C1852 1.461 . S
C1855 C1854 1.474 . S
C1856 C1851 1.342 . S
C1856 C1854 1.285 . S
C1856 H1875 0.930 . S
C1857 C1860 1.424 . S
C1857 C1862 1.245 . S
C1857 C1863 1.428 . S
C1858 C1861 1.260 . S
C1858 C1862 1.477 . S
C1858 H1876 0.932 . S
C1859 C1860 1.384 . S
C1859 C1861 1.479 . S
C1859 H1877 0.929 . S
C1860 C1857 1.424 . S
C1860 C1859 1.384 . S
C1860 H1878 0.928 . S
C1861 C1858 1.260 . S
C1861 C1859 1.479 . S
C1862 C1857 1.245 . S
C1862 C1858 1.477 . S
C1862 H1879 0.932 . S
C1863 U1846 2.882 . S
C1863 C1857 1.428 . S
C1863 O1866 1.301 . S
C1863 O1867 1.282 . S
O1864 U1846 2.441 . S
O1864 C1850 1.249 . S
O1865 U1846 2.420 . S
O1865 C1850 1.202 . S
O1866 U1846 2.455 . S
O1866 C1863 1.301 . S
O1867 U1846 2.449 . S
O1867 C1863 1.282 . S
H1868 C1841 0.931 . S
H1869 C1843 0.929 . S
H1870 C1844 0.930 . S
H1871 C1845 0.931 . S
H1872 C1852 0.932 . S
H1873 C1853 0.930 . S
H1874 C1854 0.929 . S
H1875 C1856 0.930 . S
H1876 C1858 0.932 . S
H1877 C1859 0.929 . S
H1878 C1860 0.928 . S
H1879 C1862 0.932 . S
C1880 C1881 1.264 . S
C1880 C1885 1.479 . S
C1880 C1890 1.465 . S
C1881 C1880 1.264 . S
C1881 C1883 1.339 . S
C1881 H1908 0.931 . S
C1882 C1883 1.395 . S
C1882 C1884 1.320 . S
C1883 C1881 1.339 . S
C1883 C1882 1.395 . S
C1883 H1909 0.929 . S
C1884 C1882 1.320 . S
C1884 C1885 1.405 . S
C1884 H1910 0.930 . S
C1885 C1880 1.479 . S
C1885 C1884 1.405 . S
C1885 H1911 0.931 . S
U1886 O1887 2.454 . S
U1886 O1888 2.458 . S
U1886 C1889 2.984 . S
U1886 C1890 2.847 . S
U1886 C1903 2.882 . S
U1886 O1904 2.441 . S
U1886 O1905 2.420 . S
U1886 O1906 2.455 . S
U1886 O1907 2.449 . S
O1887 U1886 2.454 . S
O1887 C1889 1.353 . S
O1888 U1886 2.458 . S
O1888 C1889 1.286 . S
C1889 U1886 2.984 . S
C1889 O1887 1.353 . S
C1889 O1888 1.286 . S
C1889 C1891 1.363 . S
C1890 C1880 1.465 . S
C1890 U1886 2.847 . S
C1890 O1904 1.249 . S
C1890 O1905 1.202 . S
C1891 C1889 1.363 . S
C1891 C1893 1.408 . S
C1891 C1896 1.342 . S
C1892 C1893 1.310 . S
C1892 C1895 1.461 . S
C1892 H1912 0.932 . S
C1893 C1891 1.408 . S
C1893 C1892 1.310 . S
C1893 H1913 0.930 . S
C1894 C1895 1.474 . S
C1894 C1896 1.285 . S
C1894 H1914 0.929 . S
C1895 C1892 1.461 . S
C1895 C1894 1.474 . S
C1896 C1891 1.342 . S
C1896 C1894 1.285 . S
C1896 H1915 0.930 . S
C1897 C1900 1.424 . S
C1897 C1902 1.245 . S
C1897 C1903 1.428 . S
C1898 C1901 1.260 . S
C1898 C1902 1.477 . S
C1898 H1916 0.932 . S
C1899 C1900 1.384 . S
C1899 C1901 1.479 . S
C1899 H1917 0.929 . S
C1900 C1897 1.424 . S
C1900 C1899 1.384 . S
C1900 H1918 0.928 . S
C1901 C1898 1.260 . S
C1901 C1899 1.479 . S
C1902 C1897 1.245 . S
C1902 C1898 1.477 . S
C1902 H1919 0.932 . S
C1903 U1886 2.882 . S
C1903 C1897 1.428 . S
C1903 O1906 1.301 . S
C1903 O1907 1.282 . S
O1904 U1886 2.441 . S
O1904 C1890 1.249 . S
O1905 U1886 2.420 . S
O1905 C1890 1.202 . S
O1906 U1886 2.455 . S
O1906 C1903 1.301 . S
O1907 U1886 2.449 . S
O1907 C1903 1.282 . S
H1908 C1881 0.931 . S
H1909 C1883 0.929 . S
H1910 C1884 0.930 . S
H1911 C1885 0.931 . S
H1912 C1892 0.932 . S
H1913 C1893 0.930 . S
H1914 C1894 0.929 . S
H1915 C1896 0.930 . S
H1916 C1898 0.932 . S
H1917 C1899 0.929 . S
H1918 C1900 0.928 . S
H1919 C1902 0.932 . S
C1920 C1921 1.264 . S
C1920 C1925 1.479 . S
C1920 C1930 1.465 . S
C1921 C1920 1.264 . S
C1921 C1923 1.339 . S
C1921 H1948 0.931 . S
C1922 C1923 1.395 . S
C1922 C1924 1.320 . S
C1923 C1921 1.339 . S
C1923 C1922 1.395 . S
C1923 H1949 0.929 . S
C1924 C1922 1.320 . S
C1924 C1925 1.405 . S
C1924 H1950 0.930 . S
C1925 C1920 1.479 . S
C1925 C1924 1.405 . S
C1925 H1951 0.931 . S
U1926 O1927 2.454 . S
U1926 O1928 2.458 . S
U1926 C1929 2.984 . S
U1926 C1930 2.847 . S
U1926 C1943 2.882 . S
U1926 O1944 2.441 . S
U1926 O1945 2.420 . S
U1926 O1946 2.455 . S
U1926 O1947 2.449 . S
O1927 U1926 2.454 . S
O1927 C1929 1.353 . S
O1928 U1926 2.458 . S
O1928 C1929 1.286 . S
C1929 U1926 2.984 . S
C1929 O1927 1.353 . S
C1929 O1928 1.286 . S
C1929 C1931 1.363 . S
C1930 C1920 1.465 . S
C1930 U1926 2.847 . S
C1930 O1944 1.249 . S
C1930 O1945 1.202 . S
C1931 C1929 1.363 . S
C1931 C1933 1.408 . S
C1931 C1936 1.342 . S
C1932 C1933 1.310 . S
C1932 C1935 1.461 . S
C1932 H1952 0.932 . S
C1933 C1931 1.408 . S
C1933 C1932 1.310 . S
C1933 H1953 0.930 . S
C1934 C1935 1.474 . S
C1934 C1936 1.285 . S
C1934 H1954 0.929 . S
C1935 C1932 1.461 . S
C1935 C1934 1.474 . S
C1936 C1931 1.342 . S
C1936 C1934 1.285 . S
C1936 H1955 0.930 . S
C1937 C1940 1.424 . S
C1937 C1942 1.245 . S
C1937 C1943 1.428 . S
C1938 C1941 1.260 . S
C1938 C1942 1.477 . S
C1938 H1956 0.932 . S
C1939 C1940 1.384 . S
C1939 C1941 1.479 . S
C1939 H1957 0.929 . S
C1940 C1937 1.424 . S
C1940 C1939 1.384 . S
C1940 H1958 0.928 . S
C1941 C1938 1.260 . S
C1941 C1939 1.479 . S
C1942 C1937 1.245 . S
C1942 C1938 1.477 . S
C1942 H1959 0.932 . S
C1943 U1926 2.882 . S
C1943 C1937 1.428 . S
C1943 O1946 1.301 . S
C1943 O1947 1.282 . S
O1944 U1926 2.441 . S
O1944 C1930 1.249 . S
O1945 U1926 2.420 . S
O1945 C1930 1.202 . S
O1946 U1926 2.455 . S
O1946 C1943 1.301 . S
O1947 U1926 2.449 . S
O1947 C1943 1.282 . S
H1948 C1921 0.931 . S
H1949 C1923 0.929 . S
H1950 C1924 0.930 . S
H1951 C1925 0.931 . S
H1952 C1932 0.932 . S
H1953 C1933 0.930 . S
H1954 C1934 0.929 . S
H1955 C1936 0.930 . S
H1956 C1938 0.932 . S
H1957 C1939 0.929 . S
H1958 C1940 0.928 . S
H1959 C1942 0.932 . S
C1960 C1961 1.264 . S
C1960 C1965 1.479 . S
C1960 C1970 1.465 . S
C1961 C1960 1.264 . S
C1961 C1963 1.339 . S
C1961 H1988 0.931 . S
C1962 C1963 1.395 . S
C1962 C1964 1.320 . S
C1963 C1961 1.339 . S
C1963 C1962 1.395 . S
C1963 H1989 0.929 . S
C1964 C1962 1.320 . S
C1964 C1965 1.405 . S
C1964 H1990 0.930 . S
C1965 C1960 1.479 . S
C1965 C1964 1.405 . S
C1965 H1991 0.931 . S
U1966 O1967 2.454 . S
U1966 O1968 2.458 . S
U1966 C1969 2.984 . S
U1966 C1970 2.847 . S
U1966 C1983 2.882 . S
U1966 O1984 2.441 . S
U1966 O1985 2.420 . S
U1966 O1986 2.455 . S
U1966 O1987 2.449 . S
O1967 U1966 2.454 . S
O1967 C1969 1.353 . S
O1968 U1966 2.458 . S
O1968 C1969 1.286 . S
C1969 U1966 2.984 . S
C1969 O1967 1.353 . S
C1969 O1968 1.286 . S
C1969 C1971 1.363 . S
C1970 C1960 1.465 . S
C1970 U1966 2.847 . S
C1970 O1984 1.249 . S
C1970 O1985 1.202 . S
C1971 C1969 1.363 . S
C1971 C1973 1.408 . S
C1971 C1976 1.342 . S
C1972 C1973 1.310 . S
C1972 C1975 1.461 . S
C1972 H1992 0.932 . S
C1973 C1971 1.408 . S
C1973 C1972 1.310 . S
C1973 H1993 0.930 . S
C1974 C1975 1.474 . S
C1974 C1976 1.285 . S
C1974 H1994 0.929 . S
C1975 C1972 1.461 . S
C1975 C1974 1.474 . S
C1976 C1971 1.342 . S
C1976 C1974 1.285 . S
C1976 H1995 0.930 . S
C1977 C1980 1.424 . S
C1977 C1982 1.245 . S
C1977 C1983 1.428 . S
C1978 C1981 1.260 . S
C1978 C1982 1.477 . S
C1978 H1996 0.932 . S
C1979 C1980 1.384 . S
C1979 C1981 1.479 . S
C1979 H1997 0.929 . S
C1980 C1977 1.424 . S
C1980 C1979 1.384 . S
C1980 H1998 0.928 . S
C1981 C1978 1.260 . S
C1981 C1979 1.479 . S
C1982 C1977 1.245 . S
C1982 C1978 1.477 . S
C1982 H1999 0.932 . S
C1983 U1966 2.882 . S
C1983 C1977 1.428 . S
C1983 O1986 1.301 . S
C1983 O1987 1.282 . S
O1984 U1966 2.441 . S
O1984 C1970 1.249 . S
O1985 U1966 2.420 . S
O1985 C1970 1.202 . S
O1986 U1966 2.455 . S
O1986 C1983 1.301 . S
O1987 U1966 2.449 . S
O1987 C1983 1.282 . S
H1988 C1961 0.931 . S
H1989 C1963 0.929 . S
H1990 C1964 0.930 . S
H1991 C1965 0.931 . S
H1992 C1972 0.932 . S
H1993 C1973 0.930 . S
H1994 C1974 0.929 . S
H1995 C1976 0.930 . S
H1996 C1978 0.932 . S
H1997 C1979 0.929 . S
H1998 C1980 0.928 . S
H1999 C1982 0.932 . S
C2000 C2001 1.264 . S
C2000 C2005 1.479 . S
C2000 C2010 1.465 . S
C2001 C2000 1.264 . S
C2001 C2003 1.339 . S
C2001 H2028 0.931 . S
C2002 C2003 1.395 . S
C2002 C2004 1.320 . S
C2003 C2001 1.339 . S
C2003 C2002 1.395 . S
C2003 H2029 0.929 . S
C2004 C2002 1.320 . S
C2004 C2005 1.405 . S
C2004 H2030 0.930 . S
C2005 C2000 1.479 . S
C2005 C2004 1.405 . S
C2005 H2031 0.931 . S
U2006 O2007 2.454 . S
U2006 O2008 2.458 . S
U2006 C2009 2.984 . S
U2006 C2010 2.847 . S
U2006 C2023 2.882 . S
U2006 O2024 2.441 . S
U2006 O2025 2.420 . S
U2006 O2026 2.455 . S
U2006 O2027 2.449 . S
O2007 U2006 2.454 . S
O2007 C2009 1.353 . S
O2008 U2006 2.458 . S
O2008 C2009 1.286 . S
C2009 U2006 2.984 . S
C2009 O2007 1.353 . S
C2009 O2008 1.286 . S
C2009 C2011 1.363 . S
C2010 C2000 1.465 . S
C2010 U2006 2.847 . S
C2010 O2024 1.249 . S
C2010 O2025 1.202 . S
C2011 C2009 1.363 . S
C2011 C2013 1.408 . S
C2011 C2016 1.342 . S
C2012 C2013 1.310 . S
C2012 C2015 1.461 . S
C2012 H2032 0.932 . S
C2013 C2011 1.408 . S
C2013 C2012 1.310 . S
C2013 H2033 0.930 . S
C2014 C2015 1.474 . S
C2014 C2016 1.285 . S
C2014 H2034 0.929 . S
C2015 C2012 1.461 . S
C2015 C2014 1.474 . S
C2016 C2011 1.342 . S
C2016 C2014 1.285 . S
C2016 H2035 0.930 . S
C2017 C2020 1.424 . S
C2017 C2022 1.245 . S
C2017 C2023 1.428 . S
C2018 C2021 1.260 . S
C2018 C2022 1.477 . S
C2018 H2036 0.932 . S
C2019 C2020 1.384 . S
C2019 C2021 1.479 . S
C2019 H2037 0.929 . S
C2020 C2017 1.424 . S
C2020 C2019 1.384 . S
C2020 H2038 0.928 . S
C2021 C2018 1.260 . S
C2021 C2019 1.479 . S
C2022 C2017 1.245 . S
C2022 C2018 1.477 . S
C2022 H2039 0.932 . S
C2023 U2006 2.882 . S
C2023 C2017 1.428 . S
C2023 O2026 1.301 . S
C2023 O2027 1.282 . S
O2024 U2006 2.441 . S
O2024 C2010 1.249 . S
O2025 U2006 2.420 . S
O2025 C2010 1.202 . S
O2026 U2006 2.455 . S
O2026 C2023 1.301 . S
O2027 U2006 2.449 . S
O2027 C2023 1.282 . S
H2028 C2001 0.931 . S
H2029 C2003 0.929 . S
H2030 C2004 0.930 . S
H2031 C2005 0.931 . S
H2032 C2012 0.932 . S
H2033 C2013 0.930 . S
H2034 C2014 0.929 . S
H2035 C2016 0.930 . S
H2036 C2018 0.932 . S
H2037 C2019 0.929 . S
H2038 C2020 0.928 . S
H2039 C2022 0.932 . S
C2040 C2041 1.264 . S
C2040 C2045 1.479 . S
C2040 C2050 1.465 . S
C2041 C2040 1.264 . S
C2041 C2043 1.339 . S
C2041 H2068 0.931 . S
C2042 C2043 1.395 . S
C2042 C2044 1.320 . S
C2043 C2041 1.339 . S
C2043 C2042 1.395 . S
C2043 H2069 0.929 . S
C2044 C2042 1.320 . S
C2044 C2045 1.405 . S
C2044 H2070 0.930 . S
C2045 C2040 1.479 . S
C2045 C2044 1.405 . S
C2045 H2071 0.931 . S
U2046 O2047 2.454 . S
U2046 O2048 2.458 . S
U2046 C2049 2.984 . S
U2046 C2050 2.847 . S
U2046 C2063 2.882 . S
U2046 O2064 2.441 . S
U2046 O2065 2.420 . S
U2046 O2066 2.455 . S
U2046 O2067 2.449 . S
O2047 U2046 2.454 . S
O2047 C2049 1.353 . S
O2048 U2046 2.458 . S
O2048 C2049 1.286 . S
C2049 U2046 2.984 . S
C2049 O2047 1.353 . S
C2049 O2048 1.286 . S
C2049 C2051 1.363 . S
C2050 C2040 1.465 . S
C2050 U2046 2.847 . S
C2050 O2064 1.249 . S
C2050 O2065 1.202 . S
C2051 C2049 1.363 . S
C2051 C2053 1.408 . S
C2051 C2056 1.342 . S
C2052 C2053 1.310 . S
C2052 C2055 1.461 . S
C2052 H2072 0.932 . S
C2053 C2051 1.408 . S
C2053 C2052 1.310 . S
C2053 H2073 0.930 . S
C2054 C2055 1.474 . S
C2054 C2056 1.285 . S
C2054 H2074 0.929 . S
C2055 C2052 1.461 . S
C2055 C2054 1.474 . S
C2056 C2051 1.342 . S
C2056 C2054 1.285 . S
C2056 H2075 0.930 . S
C2057 C2060 1.424 . S
C2057 C2062 1.245 . S
C2057 C2063 1.428 . S
C2058 C2061 1.260 . S
C2058 C2062 1.477 . S
C2058 H2076 0.932 . S
C2059 C2060 1.384 . S
C2059 C2061 1.479 . S
C2059 H2077 0.929 . S
C2060 C2057 1.424 . S
C2060 C2059 1.384 . S
C2060 H2078 0.928 . S
C2061 C2058 1.260 . S
C2061 C2059 1.479 . S
C2062 C2057 1.245 . S
C2062 C2058 1.477 . S
C2062 H2079 0.932 . S
C2063 U2046 2.882 . S
C2063 C2057 1.428 . S
C2063 O2066 1.301 . S
C2063 O2067 1.282 . S
O2064 U2046 2.441 . S
O2064 C2050 1.249 . S
O2065 U2046 2.420 . S
O2065 C2050 1.202 . S
O2066 U2046 2.455 . S
O2066 C2063 1.301 . S
O2067 U2046 2.449 . S
O2067 C2063 1.282 . S
H2068 C2041 0.931 . S
H2069 C2043 0.929 . S
H2070 C2044 0.930 . S
H2071 C2045 0.931 . S
H2072 C2052 0.932 . S
H2073 C2053 0.930 . S
H2074 C2054 0.929 . S
H2075 C2056 0.930 . S
H2076 C2058 0.932 . S
H2077 C2059 0.929 . S
H2078 C2060 0.928 . S
H2079 C2062 0.932 . S
C2080 C2081 1.264 . S
C2080 C2085 1.479 . S
C2080 C2090 1.465 . S
C2081 C2080 1.264 . S
C2081 C2083 1.339 . S
C2081 H2108 0.931 . S
C2082 C2083 1.395 . S
C2082 C2084 1.320 . S
C2083 C2081 1.339 . S
C2083 C2082 1.395 . S
C2083 H2109 0.929 . S
C2084 C2082 1.320 . S
C2084 C2085 1.405 . S
C2084 H2110 0.930 . S
C2085 C2080 1.479 . S
C2085 C2084 1.405 . S
C2085 H2111 0.931 . S
U2086 O2087 2.454 . S
U2086 O2088 2.458 . S
U2086 C2089 2.984 . S
U2086 C2090 2.847 . S
U2086 C2103 2.882 . S
U2086 O2104 2.441 . S
U2086 O2105 2.420 . S
U2086 O2106 2.455 . S
U2086 O2107 2.449 . S
O2087 U2086 2.454 . S
O2087 C2089 1.353 . S
O2088 U2086 2.458 . S
O2088 C2089 1.286 . S
C2089 U2086 2.984 . S
C2089 O2087 1.353 . S
C2089 O2088 1.286 . S
C2089 C2091 1.363 . S
C2090 C2080 1.465 . S
C2090 U2086 2.847 . S
C2090 O2104 1.249 . S
C2090 O2105 1.202 . S
C2091 C2089 1.363 . S
C2091 C2093 1.408 . S
C2091 C2096 1.342 . S
C2092 C2093 1.310 . S
C2092 C2095 1.461 . S
C2092 H2112 0.932 . S
C2093 C2091 1.408 . S
C2093 C2092 1.310 . S
C2093 H2113 0.930 . S
C2094 C2095 1.474 . S
C2094 C2096 1.285 . S
C2094 H2114 0.929 . S
C2095 C2092 1.461 . S
C2095 C2094 1.474 . S
C2096 C2091 1.342 . S
C2096 C2094 1.285 . S
C2096 H2115 0.930 . S
C2097 C2100 1.424 . S
C2097 C2102 1.245 . S
C2097 C2103 1.428 . S
C2098 C2101 1.260 . S
C2098 C2102 1.477 . S
C2098 H2116 0.932 . S
C2099 C2100 1.384 . S
C2099 C2101 1.479 . S
C2099 H2117 0.929 . S
C2100 C2097 1.424 . S
C2100 C2099 1.384 . S
C2100 H2118 0.928 . S
C2101 C2098 1.260 . S
C2101 C2099 1.479 . S
C2102 C2097 1.245 . S
C2102 C2098 1.477 . S
C2102 H2119 0.932 . S
C2103 U2086 2.882 . S
C2103 C2097 1.428 . S
C2103 O2106 1.301 . S
C2103 O2107 1.282 . S
O2104 U2086 2.441 . S
O2104 C2090 1.249 . S
O2105 U2086 2.420 . S
O2105 C2090 1.202 . S
O2106 U2086 2.455 . S
O2106 C2103 1.301 . S
O2107 U2086 2.449 . S
O2107 C2103 1.282 . S
H2108 C2081 0.931 . S
H2109 C2083 0.929 . S
H2110 C2084 0.930 . S
H2111 C2085 0.931 . S
H2112 C2092 0.932 . S
H2113 C2093 0.930 . S
H2114 C2094 0.929 . S
H2115 C2096 0.930 . S
H2116 C2098 0.932 . S
H2117 C2099 0.929 . S
H2118 C2100 0.928 . S
H2119 C2102 0.932 . S
C2120 C2121 1.264 . S
C2120 C2125 1.479 . S
C2120 C2130 1.465 . S
C2121 C2120 1.264 . S
C2121 C2123 1.339 . S
C2121 H2148 0.931 . S
C2122 C2123 1.395 . S
C2122 C2124 1.320 . S
C2123 C2121 1.339 . S
C2123 C2122 1.395 . S
C2123 H2149 0.929 . S
C2124 C2122 1.320 . S
C2124 C2125 1.405 . S
C2124 H2150 0.930 . S
C2125 C2120 1.479 . S
C2125 C2124 1.405 . S
C2125 H2151 0.931 . S
U2126 O2127 2.454 . S
U2126 O2128 2.458 . S
U2126 C2129 2.984 . S
U2126 C2130 2.847 . S
U2126 C2143 2.882 . S
U2126 O2144 2.441 . S
U2126 O2145 2.420 . S
U2126 O2146 2.455 . S
U2126 O2147 2.449 . S
O2127 U2126 2.454 . S
O2127 C2129 1.353 . S
O2128 U2126 2.458 . S
O2128 C2129 1.286 . S
C2129 U2126 2.984 . S
C2129 O2127 1.353 . S
C2129 O2128 1.286 . S
C2129 C2131 1.363 . S
C2130 C2120 1.465 . S
C2130 U2126 2.847 . S
C2130 O2144 1.249 . S
C2130 O2145 1.202 . S
C2131 C2129 1.363 . S
C2131 C2133 1.408 . S
C2131 C2136 1.342 . S
C2132 C2133 1.310 . S
C2132 C2135 1.461 . S
C2132 H2152 0.932 . S
C2133 C2131 1.408 . S
C2133 C2132 1.310 . S
C2133 H2153 0.930 . S
C2134 C2135 1.474 . S
C2134 C2136 1.285 . S
C2134 H2154 0.929 . S
C2135 C2132 1.461 . S
C2135 C2134 1.474 . S
C2136 C2131 1.342 . S
C2136 C2134 1.285 . S
C2136 H2155 0.930 . S
C2137 C2140 1.424 . S
C2137 C2142 1.245 . S
C2137 C2143 1.428 . S
C2138 C2141 1.260 . S
C2138 C2142 1.477 . S
C2138 H2156 0.932 . S
C2139 C2140 1.384 . S
C2139 C2141 1.479 . S
C2139 H2157 0.929 . S
C2140 C2137 1.424 . S
C2140 C2139 1.384 . S
C2140 H2158 0.928 . S
C2141 C2138 1.260 . S
C2141 C2139 1.479 . S
C2142 C2137 1.245 . S
C2142 C2138 1.477 . S
C2142 H2159 0.932 . S
C2143 U2126 2.882 . S
C2143 C2137 1.428 . S
C2143 O2146 1.301 . S
C2143 O2147 1.282 . S
O2144 U2126 2.441 . S
O2144 C2130 1.249 . S
O2145 U2126 2.420 . S
O2145 C2130 1.202 . S
O2146 U2126 2.455 . S
O2146 C2143 1.301 . S
O2147 U2126 2.449 . S
O2147 C2143 1.282 . S
H2148 C2121 0.931 . S
H2149 C2123 0.929 . S
H2150 C2124 0.930 . S
H2151 C2125 0.931 . S
H2152 C2132 0.932 . S
H2153 C2133 0.930 . S
H2154 C2134 0.929 . S
H2155 C2136 0.930 . S
H2156 C2138 0.932 . S
H2157 C2139 0.929 . S
H2158 C2140 0.928 . S
H2159 C2142 0.932 . S
C2160 C2161 1.264 . S
C2160 C2165 1.479 . S
C2160 C2170 1.465 . S
C2161 C2160 1.264 . S
C2161 C2163 1.339 . S
C2161 H2188 0.931 . S
C2162 C2163 1.395 . S
C2162 C2164 1.320 . S
C2163 C2161 1.339 . S
C2163 C2162 1.395 . S
C2163 H2189 0.929 . S
C2164 C2162 1.320 . S
C2164 C2165 1.405 . S
C2164 H2190 0.930 . S
C2165 C2160 1.479 . S
C2165 C2164 1.405 . S
C2165 H2191 0.931 . S
U2166 O2167 2.454 . S
U2166 O2168 2.458 . S
U2166 C2169 2.984 . S
U2166 C2170 2.847 . S
U2166 C2183 2.882 . S
U2166 O2184 2.441 . S
U2166 O2185 2.420 . S
U2166 O2186 2.455 . S
U2166 O2187 2.449 . S
O2167 U2166 2.454 . S
O2167 C2169 1.353 . S
O2168 U2166 2.458 . S
O2168 C2169 1.286 . S
C2169 U2166 2.984 . S
C2169 O2167 1.353 . S
C2169 O2168 1.286 . S
C2169 C2171 1.363 . S
C2170 C2160 1.465 . S
C2170 U2166 2.847 . S
C2170 O2184 1.249 . S
C2170 O2185 1.202 . S
C2171 C2169 1.363 . S
C2171 C2173 1.408 . S
C2171 C2176 1.342 . S
C2172 C2173 1.310 . S
C2172 C2175 1.461 . S
C2172 H2192 0.932 . S
C2173 C2171 1.408 . S
C2173 C2172 1.310 . S
C2173 H2193 0.930 . S
C2174 C2175 1.474 . S
C2174 C2176 1.285 . S
C2174 H2194 0.929 . S
C2175 C2172 1.461 . S
C2175 C2174 1.474 . S
C2176 C2171 1.342 . S
C2176 C2174 1.285 . S
C2176 H2195 0.930 . S
C2177 C2180 1.424 . S
C2177 C2182 1.245 . S
C2177 C2183 1.428 . S
C2178 C2181 1.260 . S
C2178 C2182 1.477 . S
C2178 H2196 0.932 . S
C2179 C2180 1.384 . S
C2179 C2181 1.479 . S
C2179 H2197 0.929 . S
C2180 C2177 1.424 . S
C2180 C2179 1.384 . S
C2180 H2198 0.928 . S
C2181 C2178 1.260 . S
C2181 C2179 1.479 . S
C2182 C2177 1.245 . S
C2182 C2178 1.477 . S
C2182 H2199 0.932 . S
C2183 U2166 2.882 . S
C2183 C2177 1.428 . S
C2183 O2186 1.301 . S
C2183 O2187 1.282 . S
O2184 U2166 2.441 . S
O2184 C2170 1.249 . S
O2185 U2166 2.420 . S
O2185 C2170 1.202 . S
O2186 U2166 2.455 . S
O2186 C2183 1.301 . S
O2187 U2166 2.449 . S
O2187 C2183 1.282 . S
H2188 C2161 0.931 . S
H2189 C2163 0.929 . S
H2190 C2164 0.930 . S
H2191 C2165 0.931 . S
H2192 C2172 0.932 . S
H2193 C2173 0.930 . S
H2194 C2174 0.929 . S
H2195 C2176 0.930 . S
H2196 C2178 0.932 . S
H2197 C2179 0.929 . S
H2198 C2180 0.928 . S
H2199 C2182 0.932 . S
C2200 C2201 1.264 . S
C2200 C2205 1.479 . S
C2200 C2210 1.465 . S
C2201 C2200 1.264 . S
C2201 C2203 1.339 . S
C2201 H2228 0.931 . S
C2202 C2203 1.395 . S
C2202 C2204 1.320 . S
C2203 C2201 1.339 . S
C2203 C2202 1.395 . S
C2203 H2229 0.929 . S
C2204 C2202 1.320 . S
C2204 C2205 1.405 . S
C2204 H2230 0.930 . S
C2205 C2200 1.479 . S
C2205 C2204 1.405 . S
C2205 H2231 0.931 . S
U2206 O2207 2.454 . S
U2206 O2208 2.458 . S
U2206 C2209 2.984 . S
U2206 C2210 2.847 . S
U2206 C2223 2.882 . S
U2206 O2224 2.441 . S
U2206 O2225 2.420 . S
U2206 O2226 2.455 . S
U2206 O2227 2.449 . S
O2207 U2206 2.454 . S
O2207 C2209 1.353 . S
O2208 U2206 2.458 . S
O2208 C2209 1.286 . S
C2209 U2206 2.984 . S
C2209 O2207 1.353 . S
C2209 O2208 1.286 . S
C2209 C2211 1.363 . S
C2210 C2200 1.465 . S
C2210 U2206 2.847 . S
C2210 O2224 1.249 . S
C2210 O2225 1.202 . S
C2211 C2209 1.363 . S
C2211 C2213 1.408 . S
C2211 C2216 1.342 . S
C2212 C2213 1.310 . S
C2212 C2215 1.461 . S
C2212 H2232 0.932 . S
C2213 C2211 1.408 . S
C2213 C2212 1.310 . S
C2213 H2233 0.930 . S
C2214 C2215 1.474 . S
C2214 C2216 1.285 . S
C2214 H2234 0.929 . S
C2215 C2212 1.461 . S
C2215 C2214 1.474 . S
C2216 C2211 1.342 . S
C2216 C2214 1.285 . S
C2216 H2235 0.930 . S
C2217 C2220 1.424 . S
C2217 C2222 1.245 . S
C2217 C2223 1.428 . S
C2218 C2221 1.260 . S
C2218 C2222 1.477 . S
C2218 H2236 0.932 . S
C2219 C2220 1.384 . S
C2219 C2221 1.479 . S
C2219 H2237 0.929 . S
C2220 C2217 1.424 . S
C2220 C2219 1.384 . S
C2220 H2238 0.928 . S
C2221 C2218 1.260 . S
C2221 C2219 1.479 . S
C2222 C2217 1.245 . S
C2222 C2218 1.477 . S
C2222 H2239 0.932 . S
C2223 U2206 2.882 . S
C2223 C2217 1.428 . S
C2223 O2226 1.301 . S
C2223 O2227 1.282 . S
O2224 U2206 2.441 . S
O2224 C2210 1.249 . S
O2225 U2206 2.420 . S
O2225 C2210 1.202 . S
O2226 U2206 2.455 . S
O2226 C2223 1.301 . S
O2227 U2206 2.449 . S
O2227 C2223 1.282 . S
H2228 C2201 0.931 . S
H2229 C2203 0.929 . S
H2230 C2204 0.930 . S
H2231 C2205 0.931 . S
H2232 C2212 0.932 . S
H2233 C2213 0.930 . S
H2234 C2214 0.929 . S
H2235 C2216 0.930 . S
H2236 C2218 0.932 . S
H2237 C2219 0.929 . S
H2238 C2220 0.928 . S
H2239 C2222 0.932 . S
C2240 C2241 1.264 . S
C2240 C2245 1.479 . S
C2240 C2250 1.465 . S
C2241 C2240 1.264 . S
C2241 C2243 1.339 . S
C2241 H2268 0.931 . S
C2242 C2243 1.395 . S
C2242 C2244 1.320 . S
C2243 C2241 1.339 . S
C2243 C2242 1.395 . S
C2243 H2269 0.929 . S
C2244 C2242 1.320 . S
C2244 C2245 1.405 . S
C2244 H2270 0.930 . S
C2245 C2240 1.479 . S
C2245 C2244 1.405 . S
C2245 H2271 0.931 . S
U2246 O2247 2.454 . S
U2246 O2248 2.458 . S
U2246 C2249 2.984 . S
U2246 C2250 2.847 . S
U2246 C2263 2.882 . S
U2246 O2264 2.441 . S
U2246 O2265 2.420 . S
U2246 O2266 2.455 . S
U2246 O2267 2.449 . S
O2247 U2246 2.454 . S
O2247 C2249 1.353 . S
O2248 U2246 2.458 . S
O2248 C2249 1.286 . S
C2249 U2246 2.984 . S
C2249 O2247 1.353 . S
C2249 O2248 1.286 . S
C2249 C2251 1.363 . S
C2250 C2240 1.465 . S
C2250 U2246 2.847 . S
C2250 O2264 1.249 . S
C2250 O2265 1.202 . S
C2251 C2249 1.363 . S
C2251 C2253 1.408 . S
C2251 C2256 1.342 . S
C2252 C2253 1.310 . S
C2252 C2255 1.461 . S
C2252 H2272 0.932 . S
C2253 C2251 1.408 . S
C2253 C2252 1.310 . S
C2253 H2273 0.930 . S
C2254 C2255 1.474 . S
C2254 C2256 1.285 . S
C2254 H2274 0.929 . S
C2255 C2252 1.461 . S
C2255 C2254 1.474 . S
C2256 C2251 1.342 . S
C2256 C2254 1.285 . S
C2256 H2275 0.930 . S
C2257 C2260 1.424 . S
C2257 C2262 1.245 . S
C2257 C2263 1.428 . S
C2258 C2261 1.260 . S
C2258 C2262 1.477 . S
C2258 H2276 0.932 . S
C2259 C2260 1.384 . S
C2259 C2261 1.479 . S
C2259 H2277 0.929 . S
C2260 C2257 1.424 . S
C2260 C2259 1.384 . S
C2260 H2278 0.928 . S
C2261 C2258 1.260 . S
C2261 C2259 1.479 . S
C2262 C2257 1.245 . S
C2262 C2258 1.477 . S
C2262 H2279 0.932 . S
C2263 U2246 2.882 . S
C2263 C2257 1.428 . S
C2263 O2266 1.301 . S
C2263 O2267 1.282 . S
O2264 U2246 2.441 . S
O2264 C2250 1.249 . S
O2265 U2246 2.420 . S
O2265 C2250 1.202 . S
O2266 U2246 2.455 . S
O2266 C2263 1.301 . S
O2267 U2246 2.449 . S
O2267 C2263 1.282 . S
H2268 C2241 0.931 . S
H2269 C2243 0.929 . S
H2270 C2244 0.930 . S
H2271 C2245 0.931 . S
H2272 C2252 0.932 . S
H2273 C2253 0.930 . S
H2274 C2254 0.929 . S
H2275 C2256 0.930 . S
H2276 C2258 0.932 . S
H2277 C2259 0.929 . S
H2278 C2260 0.928 . S
H2279 C2262 0.932 . S
C2280 C2281 1.264 . S
C2280 C2285 1.479 . S
C2280 C2290 1.465 . S
C2281 C2280 1.264 . S
C2281 C2283 1.339 . S
C2281 H2308 0.931 . S
C2282 C2283 1.395 . S
C2282 C2284 1.320 . S
C2283 C2281 1.339 . S
C2283 C2282 1.395 . S
C2283 H2309 0.929 . S
C2284 C2282 1.320 . S
C2284 C2285 1.405 . S
C2284 H2310 0.930 . S
C2285 C2280 1.479 . S
C2285 C2284 1.405 . S
C2285 H2311 0.931 . S
U2286 O2287 2.454 . S
U2286 O2288 2.458 . S
U2286 C2289 2.984 . S
U2286 C2290 2.847 . S
U2286 C2303 2.882 . S
U2286 O2304 2.441 . S
U2286 O2305 2.420 . S
U2286 O2306 2.455 . S
U2286 O2307 2.449 . S
O2287 U2286 2.454 . S
O2287 C2289 1.353 . S
O2288 U2286 2.458 . S
O2288 C2289 1.286 . S
C2289 U2286 2.984 . S
C2289 O2287 1.353 . S
C2289 O2288 1.286 . S
C2289 C2291 1.363 . S
C2290 C2280 1.465 . S
C2290 U2286 2.847 . S
C2290 O2304 1.249 . S
C2290 O2305 1.202 . S
C2291 C2289 1.363 . S
C2291 C2293 1.408 . S
C2291 C2296 1.342 . S
C2292 C2293 1.310 . S
C2292 C2295 1.461 . S
C2292 H2312 0.932 . S
C2293 C2291 1.408 . S
C2293 C2292 1.310 . S
C2293 H2313 0.930 . S
C2294 C2295 1.474 . S
C2294 C2296 1.285 . S
C2294 H2314 0.929 . S
C2295 C2292 1.461 . S
C2295 C2294 1.474 . S
C2296 C2291 1.342 . S
C2296 C2294 1.285 . S
C2296 H2315 0.930 . S
C2297 C2300 1.424 . S
C2297 C2302 1.245 . S
C2297 C2303 1.428 . S
C2298 C2301 1.260 . S
C2298 C2302 1.477 . S
C2298 H2316 0.932 . S
C2299 C2300 1.384 . S
C2299 C2301 1.479 . S
C2299 H2317 0.929 . S
C2300 C2297 1.424 . S
C2300 C2299 1.384 . S
C2300 H2318 0.928 . S
C2301 C2298 1.260 . S
C2301 C2299 1.479 . S
C2302 C2297 1.245 . S
C2302 C2298 1.477 . S
C2302 H2319 0.932 . S
C2303 U2286 2.882 . S
C2303 C2297 1.428 . S
C2303 O2306 1.301 . S
C2303 O2307 1.282 . S
O2304 U2286 2.441 . S
O2304 C2290 1.249 . S
O2305 U2286 2.420 . S
O2305 C2290 1.202 . S
O2306 U2286 2.455 . S
O2306 C2303 1.301 . S
O2307 U2286 2.449 . S
O2307 C2303 1.282 . S
H2308 C2281 0.931 . S
H2309 C2283 0.929 . S
H2310 C2284 0.930 . S
H2311 C2285 0.931 . S
H2312 C2292 0.932 . S
H2313 C2293 0.930 . S
H2314 C2294 0.929 . S
H2315 C2296 0.930 . S
H2316 C2298 0.932 . S
H2317 C2299 0.929 . S
H2318 C2300 0.928 . S
H2319 C2302 0.932 . S
C2320 C2321 1.264 . S
C2320 C2325 1.479 . S
C2320 C2330 1.465 . S
C2321 C2320 1.264 . S
C2321 C2323 1.339 . S
C2321 H2348 0.931 . S
C2322 C2323 1.395 . S
C2322 C2324 1.320 . S
C2323 C2321 1.339 . S
C2323 C2322 1.395 . S
C2323 H2349 0.929 . S
C2324 C2322 1.320 . S
C2324 C2325 1.405 . S
C2324 H2350 0.930 . S
C2325 C2320 1.479 . S
C2325 C2324 1.405 . S
C2325 H2351 0.931 . S
U2326 O2327 2.454 . S
U2326 O2328 2.458 . S
U2326 C2329 2.984 . S
U2326 C2330 2.847 . S
U2326 C2343 2.882 . S
U2326 O2344 2.441 . S
U2326 O2345 2.420 . S
U2326 O2346 2.455 . S
U2326 O2347 2.449 . S
O2327 U2326 2.454 . S
O2327 C2329 1.353 . S
O2328 U2326 2.458 . S
O2328 C2329 1.286 . S
C2329 U2326 2.984 . S
C2329 O2327 1.353 . S
C2329 O2328 1.286 . S
C2329 C2331 1.363 . S
C2330 C2320 1.465 . S
C2330 U2326 2.847 . S
C2330 O2344 1.249 . S
C2330 O2345 1.202 . S
C2331 C2329 1.363 . S
C2331 C2333 1.408 . S
C2331 C2336 1.342 . S
C2332 C2333 1.310 . S
C2332 C2335 1.461 . S
C2332 H2352 0.932 . S
C2333 C2331 1.408 . S
C2333 C2332 1.310 . S
C2333 H2353 0.930 . S
C2334 C2335 1.474 . S
C2334 C2336 1.285 . S
C2334 H2354 0.929 . S
C2335 C2332 1.461 . S
C2335 C2334 1.474 . S
C2336 C2331 1.342 . S
C2336 C2334 1.285 . S
C2336 H2355 0.930 . S
C2337 C2340 1.424 . S
C2337 C2342 1.245 . S
C2337 C2343 1.428 . S
C2338 C2341 1.260 . S
C2338 C2342 1.477 . S
C2338 H2356 0.932 . S
C2339 C2340 1.384 . S
C2339 C2341 1.479 . S
C2339 H2357 0.929 . S
C2340 C2337 1.424 . S
C2340 C2339 1.384 . S
C2340 H2358 0.928 . S
C2341 C2338 1.260 . S
C2341 C2339 1.479 . S
C2342 C2337 1.245 . S
C2342 C2338 1.477 . S
C2342 H2359 0.932 . S
C2343 U2326 2.882 . S
C2343 C2337 1.428 . S
C2343 O2346 1.301 . S
C2343 O2347 1.282 . S
O2344 U2326 2.441 . S
O2344 C2330 1.249 . S
O2345 U2326 2.420 . S
O2345 C2330 1.202 . S
O2346 U2326 2.455 . S
O2346 C2343 1.301 . S
O2347 U2326 2.449 . S
O2347 C2343 1.282 . S
H2348 C2321 0.931 . S
H2349 C2323 0.929 . S
H2350 C2324 0.930 . S
H2351 C2325 0.931 . S
H2352 C2332 0.932 . S
H2353 C2333 0.930 . S
H2354 C2334 0.929 . S
H2355 C2336 0.930 . S
H2356 C2338 0.932 . S
H2357 C2339 0.929 . S
H2358 C2340 0.928 . S
H2359 C2342 0.932 . S
C2360 C2361 1.264 . S
C2360 C2365 1.479 . S
C2360 C2370 1.465 . S
C2361 C2360 1.264 . S
C2361 C2363 1.339 . S
C2361 H2388 0.931 . S
C2362 C2363 1.395 . S
C2362 C2364 1.320 . S
C2363 C2361 1.339 . S
C2363 C2362 1.395 . S
C2363 H2389 0.929 . S
C2364 C2362 1.320 . S
C2364 C2365 1.405 . S
C2364 H2390 0.930 . S
C2365 C2360 1.479 . S
C2365 C2364 1.405 . S
C2365 H2391 0.931 . S
U2366 O2367 2.454 . S
U2366 O2368 2.458 . S
U2366 C2369 2.984 . S
U2366 C2370 2.847 . S
U2366 C2383 2.882 . S
U2366 O2384 2.441 . S
U2366 O2385 2.420 . S
U2366 O2386 2.455 . S
U2366 O2387 2.449 . S
O2367 U2366 2.454 . S
O2367 C2369 1.353 . S
O2368 U2366 2.458 . S
O2368 C2369 1.286 . S
C2369 U2366 2.984 . S
C2369 O2367 1.353 . S
C2369 O2368 1.286 . S
C2369 C2371 1.363 . S
C2370 C2360 1.465 . S
C2370 U2366 2.847 . S
C2370 O2384 1.249 . S
C2370 O2385 1.202 . S
C2371 C2369 1.363 . S
C2371 C2373 1.408 . S
C2371 C2376 1.342 . S
C2372 C2373 1.310 . S
C2372 C2375 1.461 . S
C2372 H2392 0.932 . S
C2373 C2371 1.408 . S
C2373 C2372 1.310 . S
C2373 H2393 0.930 . S
C2374 C2375 1.474 . S
C2374 C2376 1.285 . S
C2374 H2394 0.929 . S
C2375 C2372 1.461 . S
C2375 C2374 1.474 . S
C2376 C2371 1.342 . S
C2376 C2374 1.285 . S
C2376 H2395 0.930 . S
C2377 C2380 1.424 . S
C2377 C2382 1.245 . S
C2377 C2383 1.428 . S
C2378 C2381 1.260 . S
C2378 C2382 1.477 . S
C2378 H2396 0.932 . S
C2379 C2380 1.384 . S
C2379 C2381 1.479 . S
C2379 H2397 0.929 . S
C2380 C2377 1.424 . S
C2380 C2379 1.384 . S
C2380 H2398 0.928 . S
C2381 C2378 1.260 . S
C2381 C2379 1.479 . S
C2382 C2377 1.245 . S
C2382 C2378 1.477 . S
C2382 H2399 0.932 . S
C2383 U2366 2.882 . S
C2383 C2377 1.428 . S
C2383 O2386 1.301 . S
C2383 O2387 1.282 . S
O2384 U2366 2.441 . S
O2384 C2370 1.249 . S
O2385 U2366 2.420 . S
O2385 C2370 1.202 . S
O2386 U2366 2.455 . S
O2386 C2383 1.301 . S
O2387 U2366 2.449 . S
O2387 C2383 1.282 . S
H2388 C2361 0.931 . S
H2389 C2363 0.929 . S
H2390 C2364 0.930 . S
H2391 C2365 0.931 . S
H2392 C2372 0.932 . S
H2393 C2373 0.930 . S
H2394 C2374 0.929 . S
H2395 C2376 0.930 . S
H2396 C2378 0.932 . S
H2397 C2379 0.929 . S
H2398 C2380 0.928 . S
H2399 C2382 0.932 . S
C2400 C2401 1.264 . S
C2400 C2405 1.479 . S
C2400 C2410 1.465 . S
C2401 C2400 1.264 . S
C2401 C2403 1.339 . S
C2401 H2428 0.931 . S
C2402 C2403 1.395 . S
C2402 C2404 1.320 . S
C2403 C2401 1.339 . S
C2403 C2402 1.395 . S
C2403 H2429 0.929 . S
C2404 C2402 1.320 . S
C2404 C2405 1.405 . S
C2404 H2430 0.930 . S
C2405 C2400 1.479 . S
C2405 C2404 1.405 . S
C2405 H2431 0.931 . S
U2406 O2407 2.454 . S
U2406 O2408 2.458 . S
U2406 C2409 2.984 . S
U2406 C2410 2.847 . S
U2406 C2423 2.882 . S
U2406 O2424 2.441 . S
U2406 O2425 2.420 . S
U2406 O2426 2.455 . S
U2406 O2427 2.449 . S
O2407 U2406 2.454 . S
O2407 C2409 1.353 . S
O2408 U2406 2.458 . S
O2408 C2409 1.286 . S
C2409 U2406 2.984 . S
C2409 O2407 1.353 . S
C2409 O2408 1.286 . S
C2409 C2411 1.363 . S
C2410 C2400 1.465 . S
C2410 U2406 2.847 . S
C2410 O2424 1.249 . S
C2410 O2425 1.202 . S
C2411 C2409 1.363 . S
C2411 C2413 1.408 . S
C2411 C2416 1.342 . S
C2412 C2413 1.310 . S
C2412 C2415 1.461 . S
C2412 H2432 0.932 . S
C2413 C2411 1.408 . S
C2413 C2412 1.310 . S
C2413 H2433 0.930 . S
C2414 C2415 1.474 . S
C2414 C2416 1.285 . S
C2414 H2434 0.929 . S
C2415 C2412 1.461 . S
C2415 C2414 1.474 . S
C2416 C2411 1.342 . S
C2416 C2414 1.285 . S
C2416 H2435 0.930 . S
C2417 C2420 1.424 . S
C2417 C2422 1.245 . S
C2417 C2423 1.428 . S
C2418 C2421 1.260 . S
C2418 C2422 1.477 . S
C2418 H2436 0.932 . S
C2419 C2420 1.384 . S
C2419 C2421 1.479 . S
C2419 H2437 0.929 . S
C2420 C2417 1.424 . S
C2420 C2419 1.384 . S
C2420 H2438 0.928 . S
C2421 C2418 1.260 . S
C2421 C2419 1.479 . S
C2422 C2417 1.245 . S
C2422 C2418 1.477 . S
C2422 H2439 0.932 . S
C2423 U2406 2.882 . S
C2423 C2417 1.428 . S
C2423 O2426 1.301 . S
C2423 O2427 1.282 . S
O2424 U2406 2.441 . S
O2424 C2410 1.249 . S
O2425 U2406 2.420 . S
O2425 C2410 1.202 . S
O2426 U2406 2.455 . S
O2426 C2423 1.301 . S
O2427 U2406 2.449 . S
O2427 C2423 1.282 . S
H2428 C2401 0.931 . S
H2429 C2403 0.929 . S
H2430 C2404 0.930 . S
H2431 C2405 0.931 . S
H2432 C2412 0.932 . S
H2433 C2413 0.930 . S
H2434 C2414 0.929 . S
H2435 C2416 0.930 . S
H2436 C2418 0.932 . S
H2437 C2419 0.929 . S
H2438 C2420 0.928 . S
H2439 C2422 0.932 . S
C2440 C2441 1.264 . S
C2440 C2445 1.479 . S
C2440 C2450 1.465 . S
C2441 C2440 1.264 . S
C2441 C2443 1.339 . S
C2441 H2468 0.931 . S
C2442 C2443 1.395 . S
C2442 C2444 1.320 . S
C2443 C2441 1.339 . S
C2443 C2442 1.395 . S
C2443 H2469 0.929 . S
C2444 C2442 1.320 . S
C2444 C2445 1.405 . S
C2444 H2470 0.930 . S
C2445 C2440 1.479 . S
C2445 C2444 1.405 . S
C2445 H2471 0.931 . S
U2446 O2447 2.454 . S
U2446 O2448 2.458 . S
U2446 C2449 2.984 . S
U2446 C2450 2.847 . S
U2446 C2463 2.882 . S
U2446 O2464 2.441 . S
U2446 O2465 2.420 . S
U2446 O2466 2.455 . S
U2446 O2467 2.449 . S
O2447 U2446 2.454 . S
O2447 C2449 1.353 . S
O2448 U2446 2.458 . S
O2448 C2449 1.286 . S
C2449 U2446 2.984 . S
C2449 O2447 1.353 . S
C2449 O2448 1.286 . S
C2449 C2451 1.363 . S
C2450 C2440 1.465 . S
C2450 U2446 2.847 . S
C2450 O2464 1.249 . S
C2450 O2465 1.202 . S
C2451 C2449 1.363 . S
C2451 C2453 1.408 . S
C2451 C2456 1.342 . S
C2452 C2453 1.310 . S
C2452 C2455 1.461 . S
C2452 H2472 0.932 . S
C2453 C2451 1.408 . S
C2453 C2452 1.310 . S
C2453 H2473 0.930 . S
C2454 C2455 1.474 . S
C2454 C2456 1.285 . S
C2454 H2474 0.929 . S
C2455 C2452 1.461 . S
C2455 C2454 1.474 . S
C2456 C2451 1.342 . S
C2456 C2454 1.285 . S
C2456 H2475 0.930 . S
C2457 C2460 1.424 . S
C2457 C2462 1.245 . S
C2457 C2463 1.428 . S
C2458 C2461 1.260 . S
C2458 C2462 1.477 . S
C2458 H2476 0.932 . S
C2459 C2460 1.384 . S
C2459 C2461 1.479 . S
C2459 H2477 0.929 . S
C2460 C2457 1.424 . S
C2460 C2459 1.384 . S
C2460 H2478 0.928 . S
C2461 C2458 1.260 . S
C2461 C2459 1.479 . S
C2462 C2457 1.245 . S
C2462 C2458 1.477 . S
C2462 H2479 0.932 . S
C2463 U2446 2.882 . S
C2463 C2457 1.428 . S
C2463 O2466 1.301 . S
C2463 O2467 1.282 . S
O2464 U2446 2.441 . S
O2464 C2450 1.249 . S
O2465 U2446 2.420 . S
O2465 C2450 1.202 . S
O2466 U2446 2.455 . S
O2466 C2463 1.301 . S
O2467 U2446 2.449 . S
O2467 C2463 1.282 . S
H2468 C2441 0.931 . S
H2469 C2443 0.929 . S
H2470 C2444 0.930 . S
H2471 C2445 0.931 . S
H2472 C2452 0.932 . S
H2473 C2453 0.930 . S
H2474 C2454 0.929 . S
H2475 C2456 0.930 . S
H2476 C2458 0.932 . S
H2477 C2459 0.929 . S
H2478 C2460 0.928 . S
H2479 C2462 0.932 . S
C2480 C2481 1.264 . S
C2480 C2485 1.479 . S
C2480 C2490 1.465 . S
C2481 C2480 1.264 . S
C2481 C2483 1.339 . S
C2481 H2508 0.931 . S
C2482 C2483 1.395 . S
C2482 C2484 1.320 . S
C2483 C2481 1.339 . S
C2483 C2482 1.395 . S
C2483 H2509 0.929 . S
C2484 C2482 1.320 . S
C2484 C2485 1.405 . S
C2484 H2510 0.930 . S
C2485 C2480 1.479 . S
C2485 C2484 1.405 . S
C2485 H2511 0.931 . S
U2486 O2487 2.454 . S
U2486 O2488 2.458 . S
U2486 C2489 2.984 . S
U2486 C2490 2.847 . S
U2486 C2503 2.882 . S
U2486 O2504 2.441 . S
U2486 O2505 2.420 . S
U2486 O2506 2.455 . S
U2486 O2507 2.449 . S
O2487 U2486 2.454 . S
O2487 C2489 1.353 . S
O2488 U2486 2.458 . S
O2488 C2489 1.286 . S
C2489 U2486 2.984 . S
C2489 O2487 1.353 . S
C2489 O2488 1.286 . S
C2489 C2491 1.363 . S
C2490 C2480 1.465 . S
C2490 U2486 2.847 . S
C2490 O2504 1.249 . S
C2490 O2505 1.202 . S
C2491 C2489 1.363 . S
C2491 C2493 1.408 . S
C2491 C2496 1.342 . S
C2492 C2493 1.310 . S
C2492 C2495 1.461 . S
C2492 H2512 0.932 . S
C2493 C2491 1.408 . S
C2493 C2492 1.310 . S
C2493 H2513 0.930 . S
C2494 C2495 1.474 . S
C2494 C2496 1.285 . S
C2494 H2514 0.929 . S
C2495 C2492 1.461 . S
C2495 C2494 1.474 . S
C2496 C2491 1.342 . S
C2496 C2494 1.285 . S
C2496 H2515 0.930 . S
C2497 C2500 1.424 . S
C2497 C2502 1.245 . S
C2497 C2503 1.428 . S
C2498 C2501 1.260 . S
C2498 C2502 1.477 . S
C2498 H2516 0.932 . S
C2499 C2500 1.384 . S
C2499 C2501 1.479 . S
C2499 H2517 0.929 . S
C2500 C2497 1.424 . S
C2500 C2499 1.384 . S
C2500 H2518 0.928 . S
C2501 C2498 1.260 . S
C2501 C2499 1.479 . S
C2502 C2497 1.245 . S
C2502 C2498 1.477 . S
C2502 H2519 0.932 . S
C2503 U2486 2.882 . S
C2503 C2497 1.428 . S
C2503 O2506 1.301 . S
C2503 O2507 1.282 . S
O2504 U2486 2.441 . S
O2504 C2490 1.249 . S
O2505 U2486 2.420 . S
O2505 C2490 1.202 . S
O2506 U2486 2.455 . S
O2506 C2503 1.301 . S
O2507 U2486 2.449 . S
O2507 C2503 1.282 . S
H2508 C2481 0.931 . S
H2509 C2483 0.929 . S
H2510 C2484 0.930 . S
H2511 C2485 0.931 . S
H2512 C2492 0.932 . S
H2513 C2493 0.930 . S
H2514 C2494 0.929 . S
H2515 C2496 0.930 . S
H2516 C2498 0.932 . S
H2517 C2499 0.929 . S
H2518 C2500 0.928 . S
H2519 C2502 0.932 . S
C2520 C2521 1.264 . S
C2520 C2525 1.479 . S
C2520 C2530 1.465 . S
C2521 C2520 1.264 . S
C2521 C2523 1.339 . S
C2521 H2548 0.931 . S
C2522 C2523 1.395 . S
C2522 C2524 1.320 . S
C2523 C2521 1.339 . S
C2523 C2522 1.395 . S
C2523 H2549 0.929 . S
C2524 C2522 1.320 . S
C2524 C2525 1.405 . S
C2524 H2550 0.930 . S
C2525 C2520 1.479 . S
C2525 C2524 1.405 . S
C2525 H2551 0.931 . S
U2526 O2527 2.454 . S
U2526 O2528 2.458 . S
U2526 C2529 2.984 . S
U2526 C2530 2.847 . S
U2526 C2543 2.882 . S
U2526 O2544 2.441 . S
U2526 O2545 2.420 . S
U2526 O2546 2.455 . S
U2526 O2547 2.449 . S
O2527 U2526 2.454 . S
O2527 C2529 1.353 . S
O2528 U2526 2.458 . S
O2528 C2529 1.286 . S
C2529 U2526 2.984 . S
C2529 O2527 1.353 . S
C2529 O2528 1.286 . S
C2529 C2531 1.363 . S
C2530 C2520 1.465 . S
C2530 U2526 2.847 . S
C2530 O2544 1.249 . S
C2530 O2545 1.202 . S
C2531 C2529 1.363 . S
C2531 C2533 1.408 . S
C2531 C2536 1.342 . S
C2532 C2533 1.310 . S
C2532 C2535 1.461 . S
C2532 H2552 0.932 . S
C2533 C2531 1.408 . S
C2533 C2532 1.310 . S
C2533 H2553 0.930 . S
C2534 C2535 1.474 . S
C2534 C2536 1.285 . S
C2534 H2554 0.929 . S
C2535 C2532 1.461 . S
C2535 C2534 1.474 . S
C2536 C2531 1.342 . S
C2536 C2534 1.285 . S
C2536 H2555 0.930 . S
C2537 C2540 1.424 . S
C2537 C2542 1.245 . S
C2537 C2543 1.428 . S
C2538 C2541 1.260 . S
C2538 C2542 1.477 . S
C2538 H2556 0.932 . S
C2539 C2540 1.384 . S
C2539 C2541 1.479 . S
C2539 H2557 0.929 . S
C2540 C2537 1.424 . S
C2540 C2539 1.384 . S
C2540 H2558 0.928 . S
C2541 C2538 1.260 . S
C2541 C2539 1.479 . S
C2542 C2537 1.245 . S
C2542 C2538 1.477 . S
C2542 H2559 0.932 . S
C2543 U2526 2.882 . S
C2543 C2537 1.428 . S
C2543 O2546 1.301 . S
C2543 O2547 1.282 . S
O2544 U2526 2.441 . S
O2544 C2530 1.249 . S
O2545 U2526 2.420 . S
O2545 C2530 1.202 . S
O2546 U2526 2.455 . S
O2546 C2543 1.301 . S
O2547 U2526 2.449 . S
O2547 C2543 1.282 . S
H2548 C2521 0.931 . S
H2549 C2523 0.929 . S
H2550 C2524 0.930 . S
H2551 C2525 0.931 . S
H2552 C2532 0.932 . S
H2553 C2533 0.930 . S
H2554 C2534 0.929 . S
H2555 C2536 0.930 . S
H2556 C2538 0.932 . S
H2557 C2539 0.929 . S
H2558 C2540 0.928 . S
H2559 C2542 0.932 . S
C2560 C2561 1.264 . S
C2560 C2565 1.479 . S
C2560 C2570 1.465 . S
C2561 C2560 1.264 . S
C2561 C2563 1.339 . S
C2561 H2588 0.931 . S
C2562 C2563 1.395 . S
C2562 C2564 1.320 . S
C2563 C2561 1.339 . S
C2563 C2562 1.395 . S
C2563 H2589 0.929 . S
C2564 C2562 1.320 . S
C2564 C2565 1.405 . S
C2564 H2590 0.930 . S
C2565 C2560 1.479 . S
C2565 C2564 1.405 . S
C2565 H2591 0.931 . S
U2566 O2567 2.454 . S
U2566 O2568 2.458 . S
U2566 C2569 2.984 . S
U2566 C2570 2.847 . S
U2566 C2583 2.882 . S
U2566 O2584 2.441 . S
U2566 O2585 2.420 . S
U2566 O2586 2.455 . S
U2566 O2587 2.449 . S
O2567 U2566 2.454 . S
O2567 C2569 1.353 . S
O2568 U2566 2.458 . S
O2568 C2569 1.286 . S
C2569 U2566 2.984 . S
C2569 O2567 1.353 . S
C2569 O2568 1.286 . S
C2569 C2571 1.363 . S
C2570 C2560 1.465 . S
C2570 U2566 2.847 . S
C2570 O2584 1.249 . S
C2570 O2585 1.202 . S
C2571 C2569 1.363 . S
C2571 C2573 1.408 . S
C2571 C2576 1.342 . S
C2572 C2573 1.310 . S
C2572 C2575 1.461 . S
C2572 H2592 0.932 . S
C2573 C2571 1.408 . S
C2573 C2572 1.310 . S
C2573 H2593 0.930 . S
C2574 C2575 1.474 . S
C2574 C2576 1.285 . S
C2574 H2594 0.929 . S
C2575 C2572 1.461 . S
C2575 C2574 1.474 . S
C2576 C2571 1.342 . S
C2576 C2574 1.285 . S
C2576 H2595 0.930 . S
C2577 C2580 1.424 . S
C2577 C2582 1.245 . S
C2577 C2583 1.428 . S
C2578 C2581 1.260 . S
C2578 C2582 1.477 . S
C2578 H2596 0.932 . S
C2579 C2580 1.384 . S
C2579 C2581 1.479 . S
C2579 H2597 0.929 . S
C2580 C2577 1.424 . S
C2580 C2579 1.384 . S
C2580 H2598 0.928 . S
C2581 C2578 1.260 . S
C2581 C2579 1.479 . S
C2582 C2577 1.245 . S
C2582 C2578 1.477 . S
C2582 H2599 0.932 . S
C2583 U2566 2.882 . S
C2583 C2577 1.428 . S
C2583 O2586 1.301 . S
C2583 O2587 1.282 . S
O2584 U2566 2.441 . S
O2584 C2570 1.249 . S
O2585 U2566 2.420 . S
O2585 C2570 1.202 . S
O2586 U2566 2.455 . S
O2586 C2583 1.301 . S
O2587 U2566 2.449 . S
O2587 C2583 1.282 . S
H2588 C2561 0.931 . S
H2589 C2563 0.929 . S
H2590 C2564 0.930 . S
H2591 C2565 0.931 . S
H2592 C2572 0.932 . S
H2593 C2573 0.930 . S
H2594 C2574 0.929 . S
H2595 C2576 0.930 . S
H2596 C2578 0.932 . S
H2597 C2579 0.929 . S
H2598 C2580 0.928 . S
H2599 C2582 0.932 . S
C2600 C2601 1.264 . S
C2600 C2605 1.479 . S
C2600 C2610 1.465 . S
C2601 C2600 1.264 . S
C2601 C2603 1.339 . S
C2601 H2628 0.931 . S
C2602 C2603 1.395 . S
C2602 C2604 1.320 . S
C2603 C2601 1.339 . S
C2603 C2602 1.395 . S
C2603 H2629 0.929 . S
C2604 C2602 1.320 . S
C2604 C2605 1.405 . S
C2604 H2630 0.930 . S
C2605 C2600 1.479 . S
C2605 C2604 1.405 . S
C2605 H2631 0.931 . S
U2606 O2607 2.454 . S
U2606 O2608 2.458 . S
U2606 C2609 2.984 . S
U2606 C2610 2.847 . S
U2606 C2623 2.882 . S
U2606 O2624 2.441 . S
U2606 O2625 2.420 . S
U2606 O2626 2.455 . S
U2606 O2627 2.449 . S
O2607 U2606 2.454 . S
O2607 C2609 1.353 . S
O2608 U2606 2.458 . S
O2608 C2609 1.286 . S
C2609 U2606 2.984 . S
C2609 O2607 1.353 . S
C2609 O2608 1.286 . S
C2609 C2611 1.363 . S
C2610 C2600 1.465 . S
C2610 U2606 2.847 . S
C2610 O2624 1.249 . S
C2610 O2625 1.202 . S
C2611 C2609 1.363 . S
C2611 C2613 1.408 . S
C2611 C2616 1.342 . S
C2612 C2613 1.310 . S
C2612 C2615 1.461 . S
C2612 H2632 0.932 . S
C2613 C2611 1.408 . S
C2613 C2612 1.310 . S
C2613 H2633 0.930 . S
C2614 C2615 1.474 . S
C2614 C2616 1.285 . S
C2614 H2634 0.929 . S
C2615 C2612 1.461 . S
C2615 C2614 1.474 . S
C2616 C2611 1.342 . S
C2616 C2614 1.285 . S
C2616 H2635 0.930 . S
C2617 C2620 1.424 . S
C2617 C2622 1.245 . S
C2617 C2623 1.428 . S
C2618 C2621 1.260 . S
C2618 C2622 1.477 . S
C2618 H2636 0.932 . S
C2619 C2620 1.384 . S
C2619 C2621 1.479 . S
C2619 H2637 0.929 . S
C2620 C2617 1.424 . S
C2620 C2619 1.384 . S
C2620 H2638 0.928 . S
C2621 C2618 1.260 . S
C2621 C2619 1.479 . S
C2622 C2617 1.245 . S
C2622 C2618 1.477 . S
C2622 H2639 0.932 . S
C2623 U2606 2.882 . S
C2623 C2617 1.428 . S
C2623 O2626 1.301 . S
C2623 O2627 1.282 . S
O2624 U2606 2.441 . S
O2624 C2610 1.249 . S
O2625 U2606 2.420 . S
O2625 C2610 1.202 . S
O2626 U2606 2.455 . S
O2626 C2623 1.301 . S
O2627 U2606 2.449 . S
O2627 C2623 1.282 . S
H2628 C2601 0.931 . S
H2629 C2603 0.929 . S
H2630 C2604 0.930 . S
H2631 C2605 0.931 . S
H2632 C2612 0.932 . S
H2633 C2613 0.930 . S
H2634 C2614 0.929 . S
H2635 C2616 0.930 . S
H2636 C2618 0.932 . S
H2637 C2619 0.929 . S
H2638 C2620 0.928 . S
H2639 C2622 0.932 . S
C2640 C2641 1.264 . S
C2640 C2645 1.479 . S
C2640 C2650 1.465 . S
C2641 C2640 1.264 . S
C2641 C2643 1.339 . S
C2641 H2668 0.931 . S
C2642 C2643 1.395 . S
C2642 C2644 1.320 . S
C2643 C2641 1.339 . S
C2643 C2642 1.395 . S
C2643 H2669 0.929 . S
C2644 C2642 1.320 . S
C2644 C2645 1.405 . S
C2644 H2670 0.930 . S
C2645 C2640 1.479 . S
C2645 C2644 1.405 . S
C2645 H2671 0.931 . S
U2646 O2647 2.454 . S
U2646 O2648 2.458 . S
U2646 C2649 2.984 . S
U2646 C2650 2.847 . S
U2646 C2663 2.882 . S
U2646 O2664 2.441 . S
U2646 O2665 2.420 . S
U2646 O2666 2.455 . S
U2646 O2667 2.449 . S
O2647 U2646 2.454 . S
O2647 C2649 1.353 . S
O2648 U2646 2.458 . S
O2648 C2649 1.286 . S
C2649 U2646 2.984 . S
C2649 O2647 1.353 . S
C2649 O2648 1.286 . S
C2649 C2651 1.363 . S
C2650 C2640 1.465 . S
C2650 U2646 2.847 . S
C2650 O2664 1.249 . S
C2650 O2665 1.202 . S
C2651 C2649 1.363 . S
C2651 C2653 1.408 . S
C2651 C2656 1.342 . S
C2652 C2653 1.310 . S
C2652 C2655 1.461 . S
C2652 H2672 0.932 . S
C2653 C2651 1.408 . S
C2653 C2652 1.310 . S
C2653 H2673 0.930 . S
C2654 C2655 1.474 . S
C2654 C2656 1.285 . S
C2654 H2674 0.929 . S
C2655 C2652 1.461 . S
C2655 C2654 1.474 . S
C2656 C2651 1.342 . S
C2656 C2654 1.285 . S
C2656 H2675 0.930 . S
C2657 C2660 1.424 . S
C2657 C2662 1.245 . S
C2657 C2663 1.428 . S
C2658 C2661 1.260 . S
C2658 C2662 1.477 . S
C2658 H2676 0.932 . S
C2659 C2660 1.384 . S
C2659 C2661 1.479 . S
C2659 H2677 0.929 . S
C2660 C2657 1.424 . S
C2660 C2659 1.384 . S
C2660 H2678 0.928 . S
C2661 C2658 1.260 . S
C2661 C2659 1.479 . S
C2662 C2657 1.245 . S
C2662 C2658 1.477 . S
C2662 H2679 0.932 . S
C2663 U2646 2.882 . S
C2663 C2657 1.428 . S
C2663 O2666 1.301 . S
C2663 O2667 1.282 . S
O2664 U2646 2.441 . S
O2664 C2650 1.249 . S
O2665 U2646 2.420 . S
O2665 C2650 1.202 . S
O2666 U2646 2.455 . S
O2666 C2663 1.301 . S
O2667 U2646 2.449 . S
O2667 C2663 1.282 . S
H2668 C2641 0.931 . S
H2669 C2643 0.929 . S
H2670 C2644 0.930 . S
H2671 C2645 0.931 . S
H2672 C2652 0.932 . S
H2673 C2653 0.930 . S
H2674 C2654 0.929 . S
H2675 C2656 0.930 . S
H2676 C2658 0.932 . S
H2677 C2659 0.929 . S
H2678 C2660 0.928 . S
H2679 C2662 0.932 . S
C2680 C2681 1.264 . S
C2680 C2685 1.479 . S
C2680 C2690 1.465 . S
C2681 C2680 1.264 . S
C2681 C2683 1.339 . S
C2681 H2708 0.931 . S
C2682 C2683 1.395 . S
C2682 C2684 1.320 . S
C2683 C2681 1.339 . S
C2683 C2682 1.395 . S
C2683 H2709 0.929 . S
C2684 C2682 1.320 . S
C2684 C2685 1.405 . S
C2684 H2710 0.930 . S
C2685 C2680 1.479 . S
C2685 C2684 1.405 . S
C2685 H2711 0.931 . S
U2686 O2687 2.454 . S
U2686 O2688 2.458 . S
U2686 C2689 2.984 . S
U2686 C2690 2.847 . S
U2686 C2703 2.882 . S
U2686 O2704 2.441 . S
U2686 O2705 2.420 . S
U2686 O2706 2.455 . S
U2686 O2707 2.449 . S
O2687 U2686 2.454 . S
O2687 C2689 1.353 . S
O2688 U2686 2.458 . S
O2688 C2689 1.286 . S
C2689 U2686 2.984 . S
C2689 O2687 1.353 . S
C2689 O2688 1.286 . S
C2689 C2691 1.363 . S
C2690 C2680 1.465 . S
C2690 U2686 2.847 . S
C2690 O2704 1.249 . S
C2690 O2705 1.202 . S
C2691 C2689 1.363 . S
C2691 C2693 1.408 . S
C2691 C2696 1.342 . S
C2692 C2693 1.310 . S
C2692 C2695 1.461 . S
C2692 H2712 0.932 . S
C2693 C2691 1.408 . S
C2693 C2692 1.310 . S
C2693 H2713 0.930 . S
C2694 C2695 1.474 . S
C2694 C2696 1.285 . S
C2694 H2714 0.929 . S
C2695 C2692 1.461 . S
C2695 C2694 1.474 . S
C2696 C2691 1.342 . S
C2696 C2694 1.285 . S
C2696 H2715 0.930 . S
C2697 C2700 1.424 . S
C2697 C2702 1.245 . S
C2697 C2703 1.428 . S
C2698 C2701 1.260 . S
C2698 C2702 1.477 . S
C2698 H2716 0.932 . S
C2699 C2700 1.384 . S
C2699 C2701 1.479 . S
C2699 H2717 0.929 . S
C2700 C2697 1.424 . S
C2700 C2699 1.384 . S
C2700 H2718 0.928 . S
C2701 C2698 1.260 . S
C2701 C2699 1.479 . S
C2702 C2697 1.245 . S
C2702 C2698 1.477 . S
C2702 H2719 0.932 . S
C2703 U2686 2.882 . S
C2703 C2697 1.428 . S
C2703 O2706 1.301 . S
C2703 O2707 1.282 . S
O2704 U2686 2.441 . S
O2704 C2690 1.249 . S
O2705 U2686 2.420 . S
O2705 C2690 1.202 . S
O2706 U2686 2.455 . S
O2706 C2703 1.301 . S
O2707 U2686 2.449 . S
O2707 C2703 1.282 . S
H2708 C2681 0.931 . S
H2709 C2683 0.929 . S
H2710 C2684 0.930 . S
H2711 C2685 0.931 . S
H2712 C2692 0.932 . S
H2713 C2693 0.930 . S
H2714 C2694 0.929 . S
H2715 C2696 0.930 . S
H2716 C2698 0.932 . S
H2717 C2699 0.929 . S
H2718 C2700 0.928 . S
H2719 C2702 0.932 . S
C2720 C2721 1.264 . S
C2720 C2725 1.479 . S
C2720 C2730 1.465 . S
C2721 C2720 1.264 . S
C2721 C2723 1.339 . S
C2721 H2748 0.931 . S
C2722 C2723 1.395 . S
C2722 C2724 1.320 . S
C2723 C2721 1.339 . S
C2723 C2722 1.395 . S
C2723 H2749 0.929 . S
C2724 C2722 1.320 . S
C2724 C2725 1.405 . S
C2724 H2750 0.930 . S
C2725 C2720 1.479 . S
C2725 C2724 1.405 . S
C2725 H2751 0.931 . S
U2726 O2727 2.454 . S
U2726 O2728 2.458 . S
U2726 C2729 2.984 . S
U2726 C2730 2.847 . S
U2726 C2743 2.882 . S
U2726 O2744 2.441 . S
U2726 O2745 2.420 . S
U2726 O2746 2.455 . S
U2726 O2747 2.449 . S
O2727 U2726 2.454 . S
O2727 C2729 1.353 . S
O2728 U2726 2.458 . S
O2728 C2729 1.286 . S
C2729 U2726 2.984 . S
C2729 O2727 1.353 . S
C2729 O2728 1.286 . S
C2729 C2731 1.363 . S
C2730 C2720 1.465 . S
C2730 U2726 2.847 . S
C2730 O2744 1.249 . S
C2730 O2745 1.202 . S
C2731 C2729 1.363 . S
C2731 C2733 1.408 . S
C2731 C2736 1.342 . S
C2732 C2733 1.310 . S
C2732 C2735 1.461 . S
C2732 H2752 0.932 . S
C2733 C2731 1.408 . S
C2733 C2732 1.310 . S
C2733 H2753 0.930 . S
C2734 C2735 1.474 . S
C2734 C2736 1.285 . S
C2734 H2754 0.929 . S
C2735 C2732 1.461 . S
C2735 C2734 1.474 . S
C2736 C2731 1.342 . S
C2736 C2734 1.285 . S
C2736 H2755 0.930 . S
C2737 C2740 1.424 . S
C2737 C2742 1.245 . S
C2737 C2743 1.428 . S
C2738 C2741 1.260 . S
C2738 C2742 1.477 . S
C2738 H2756 0.932 . S
C2739 C2740 1.384 . S
C2739 C2741 1.479 . S
C2739 H2757 0.929 . S
C2740 C2737 1.424 . S
C2740 C2739 1.384 . S
C2740 H2758 0.928 . S
C2741 C2738 1.260 . S
C2741 C2739 1.479 . S
C2742 C2737 1.245 . S
C2742 C2738 1.477 . S
C2742 H2759 0.932 . S
C2743 U2726 2.882 . S
C2743 C2737 1.428 . S
C2743 O2746 1.301 . S
C2743 O2747 1.282 . S
O2744 U2726 2.441 . S
O2744 C2730 1.249 . S
O2745 U2726 2.420 . S
O2745 C2730 1.202 . S
O2746 U2726 2.455 . S
O2746 C2743 1.301 . S
O2747 U2726 2.449 . S
O2747 C2743 1.282 . S
H2748 C2721 0.931 . S
H2749 C2723 0.929 . S
H2750 C2724 0.930 . S
H2751 C2725 0.931 . S
H2752 C2732 0.932 . S
H2753 C2733 0.930 . S
H2754 C2734 0.929 . S
H2755 C2736 0.930 . S
H2756 C2738 0.932 . S
H2757 C2739 0.929 . S
H2758 C2740 0.928 . S
H2759 C2742 0.932 . S
C2760 C2761 1.264 . S
C2760 C2765 1.479 . S
C2760 C2770 1.465 . S
C2761 C2760 1.264 . S
C2761 C2763 1.339 . S
C2761 H2788 0.931 . S
C2762 C2763 1.395 . S
C2762 C2764 1.320 . S
C2763 C2761 1.339 . S
C2763 C2762 1.395 . S
C2763 H2789 0.929 . S
C2764 C2762 1.320 . S
C2764 C2765 1.405 . S
C2764 H2790 0.930 . S
C2765 C2760 1.479 . S
C2765 C2764 1.405 . S
C2765 H2791 0.931 . S
U2766 O2767 2.454 . S
U2766 O2768 2.458 . S
U2766 C2769 2.984 . S
U2766 C2770 2.847 . S
U2766 C2783 2.882 . S
U2766 O2784 2.441 . S
U2766 O2785 2.420 . S
U2766 O2786 2.455 . S
U2766 O2787 2.449 . S
O2767 U2766 2.454 . S
O2767 C2769 1.353 . S
O2768 U2766 2.458 . S
O2768 C2769 1.286 . S
C2769 U2766 2.984 . S
C2769 O2767 1.353 . S
C2769 O2768 1.286 . S
C2769 C2771 1.363 . S
C2770 C2760 1.465 . S
C2770 U2766 2.847 . S
C2770 O2784 1.249 . S
C2770 O2785 1.202 . S
C2771 C2769 1.363 . S
C2771 C2773 1.408 . S
C2771 C2776 1.342 . S
C2772 C2773 1.310 . S
C2772 C2775 1.461 . S
C2772 H2792 0.932 . S
C2773 C2771 1.408 . S
C2773 C2772 1.310 . S
C2773 H2793 0.930 . S
C2774 C2775 1.474 . S
C2774 C2776 1.285 . S
C2774 H2794 0.929 . S
C2775 C2772 1.461 . S
C2775 C2774 1.474 . S
C2776 C2771 1.342 . S
C2776 C2774 1.285 . S
C2776 H2795 0.930 . S
C2777 C2780 1.424 . S
C2777 C2782 1.245 . S
C2777 C2783 1.428 . S
C2778 C2781 1.260 . S
C2778 C2782 1.477 . S
C2778 H2796 0.932 . S
C2779 C2780 1.384 . S
C2779 C2781 1.479 . S
C2779 H2797 0.929 . S
C2780 C2777 1.424 . S
C2780 C2779 1.384 . S
C2780 H2798 0.928 . S
C2781 C2778 1.260 . S
C2781 C2779 1.479 . S
C2782 C2777 1.245 . S
C2782 C2778 1.477 . S
C2782 H2799 0.932 . S
C2783 U2766 2.882 . S
C2783 C2777 1.428 . S
C2783 O2786 1.301 . S
C2783 O2787 1.282 . S
O2784 U2766 2.441 . S
O2784 C2770 1.249 . S
O2785 U2766 2.420 . S
O2785 C2770 1.202 . S
O2786 U2766 2.455 . S
O2786 C2783 1.301 . S
O2787 U2766 2.449 . S
O2787 C2783 1.282 . S
H2788 C2761 0.931 . S
H2789 C2763 0.929 . S
H2790 C2764 0.930 . S
H2791 C2765 0.931 . S
H2792 C2772 0.932 . S
H2793 C2773 0.930 . S
H2794 C2774 0.929 . S
H2795 C2776 0.930 . S
H2796 C2778 0.932 . S
H2797 C2779 0.929 . S
H2798 C2780 0.928 . S
H2799 C2782 0.932 . S
C2800 C2801 1.264 . S
C2800 C2805 1.479 . S
C2800 C2810 1.465 . S
C2801 C2800 1.264 . S
C2801 C2803 1.339 . S
C2801 H2828 0.931 . S
C2802 C2803 1.395 . S
C2802 C2804 1.320 . S
C2803 C2801 1.339 . S
C2803 C2802 1.395 . S
C2803 H2829 0.929 . S
C2804 C2802 1.320 . S
C2804 C2805 1.405 . S
C2804 H2830 0.930 . S
C2805 C2800 1.479 . S
C2805 C2804 1.405 . S
C2805 H2831 0.931 . S
U2806 O2807 2.454 . S
U2806 O2808 2.458 . S
U2806 C2809 2.984 . S
U2806 C2810 2.847 . S
U2806 C2823 2.882 . S
U2806 O2824 2.441 . S
U2806 O2825 2.420 . S
U2806 O2826 2.455 . S
U2806 O2827 2.449 . S
O2807 U2806 2.454 . S
O2807 C2809 1.353 . S
O2808 U2806 2.458 . S
O2808 C2809 1.286 . S
C2809 U2806 2.984 . S
C2809 O2807 1.353 . S
C2809 O2808 1.286 . S
C2809 C2811 1.363 . S
C2810 C2800 1.465 . S
C2810 U2806 2.847 . S
C2810 O2824 1.249 . S
C2810 O2825 1.202 . S
C2811 C2809 1.363 . S
C2811 C2813 1.408 . S
C2811 C2816 1.342 . S
C2812 C2813 1.310 . S
C2812 C2815 1.461 . S
C2812 H2832 0.932 . S
C2813 C2811 1.408 . S
C2813 C2812 1.310 . S
C2813 H2833 0.930 . S
C2814 C2815 1.474 . S
C2814 C2816 1.285 . S
C2814 H2834 0.929 . S
C2815 C2812 1.461 . S
C2815 C2814 1.474 . S
C2816 C2811 1.342 . S
C2816 C2814 1.285 . S
C2816 H2835 0.930 . S
C2817 C2820 1.424 . S
C2817 C2822 1.245 . S
C2817 C2823 1.428 . S
C2818 C2821 1.260 . S
C2818 C2822 1.477 . S
C2818 H2836 0.932 . S
C2819 C2820 1.384 . S
C2819 C2821 1.479 . S
C2819 H2837 0.929 . S
C2820 C2817 1.424 . S
C2820 C2819 1.384 . S
C2820 H2838 0.928 . S
C2821 C2818 1.260 . S
C2821 C2819 1.479 . S
C2822 C2817 1.245 . S
C2822 C2818 1.477 . S
C2822 H2839 0.932 . S
C2823 U2806 2.882 . S
C2823 C2817 1.428 . S
C2823 O2826 1.301 . S
C2823 O2827 1.282 . S
O2824 U2806 2.441 . S
O2824 C2810 1.249 . S
O2825 U2806 2.420 . S
O2825 C2810 1.202 . S
O2826 U2806 2.455 . S
O2826 C2823 1.301 . S
O2827 U2806 2.449 . S
O2827 C2823 1.282 . S
H2828 C2801 0.931 . S
H2829 C2803 0.929 . S
H2830 C2804 0.930 . S
H2831 C2805 0.931 . S
H2832 C2812 0.932 . S
H2833 C2813 0.930 . S
H2834 C2814 0.929 . S
H2835 C2816 0.930 . S
H2836 C2818 0.932 . S
H2837 C2819 0.929 . S
H2838 C2820 0.928 . S
H2839 C2822 0.932 . S
C2840 C2841 1.264 . S
C2840 C2845 1.479 . S
C2840 C2850 1.465 . S
C2841 C2840 1.264 . S
C2841 C2843 1.339 . S
C2841 H2868 0.931 . S
C2842 C2843 1.395 . S
C2842 C2844 1.320 . S
C2843 C2841 1.339 . S
C2843 C2842 1.395 . S
C2843 H2869 0.929 . S
C2844 C2842 1.320 . S
C2844 C2845 1.405 . S
C2844 H2870 0.930 . S
C2845 C2840 1.479 . S
C2845 C2844 1.405 . S
C2845 H2871 0.931 . S
U2846 O2847 2.454 . S
U2846 O2848 2.458 . S
U2846 C2849 2.984 . S
U2846 C2850 2.847 . S
U2846 C2863 2.882 . S
U2846 O2864 2.441 . S
U2846 O2865 2.420 . S
U2846 O2866 2.455 . S
U2846 O2867 2.449 . S
O2847 U2846 2.454 . S
O2847 C2849 1.353 . S
O2848 U2846 2.458 . S
O2848 C2849 1.286 . S
C2849 U2846 2.984 . S
C2849 O2847 1.353 . S
C2849 O2848 1.286 . S
C2849 C2851 1.363 . S
C2850 C2840 1.465 . S
C2850 U2846 2.847 . S
C2850 O2864 1.249 . S
C2850 O2865 1.202 . S
C2851 C2849 1.363 . S
C2851 C2853 1.408 . S
C2851 C2856 1.342 . S
C2852 C2853 1.310 . S
C2852 C2855 1.461 . S
C2852 H2872 0.932 . S
C2853 C2851 1.408 . S
C2853 C2852 1.310 . S
C2853 H2873 0.930 . S
C2854 C2855 1.474 . S
C2854 C2856 1.285 . S
C2854 H2874 0.929 . S
C2855 C2852 1.461 . S
C2855 C2854 1.474 . S
C2856 C2851 1.342 . S
C2856 C2854 1.285 . S
C2856 H2875 0.930 . S
C2857 C2860 1.424 . S
C2857 C2862 1.245 . S
C2857 C2863 1.428 . S
C2858 C2861 1.260 . S
C2858 C2862 1.477 . S
C2858 H2876 0.932 . S
C2859 C2860 1.384 . S
C2859 C2861 1.479 . S
C2859 H2877 0.929 . S
C2860 C2857 1.424 . S
C2860 C2859 1.384 . S
C2860 H2878 0.928 . S
C2861 C2858 1.260 . S
C2861 C2859 1.479 . S
C2862 C2857 1.245 . S
C2862 C2858 1.477 . S
C2862 H2879 0.932 . S
C2863 U2846 2.882 . S
C2863 C2857 1.428 . S
C2863 O2866 1.301 . S
C2863 O2867 1.282 . S
O2864 U2846 2.441 . S
O2864 C2850 1.249 . S
O2865 U2846 2.420 . S
O2865 C2850 1.202 . S
O2866 U2846 2.455 . S
O2866 C2863 1.301 . S
O2867 U2846 2.449 . S
O2867 C2863 1.282 . S
H2868 C2841 0.931 . S
H2869 C2843 0.929 . S
H2870 C2844 0.930 . S
H2871 C2845 0.931 . S
H2872 C2852 0.932 . S
H2873 C2853 0.930 . S
H2874 C2854 0.929 . S
H2875 C2856 0.930 . S
H2876 C2858 0.932 . S
H2877 C2859 0.929 . S
H2878 C2860 0.928 . S
H2879 C2862 0.932 . S
C2880 C2881 1.264 . S
C2880 C2885 1.479 . S
C2880 C2890 1.465 . S
C2881 C2880 1.264 . S
C2881 C2883 1.339 . S
C2881 H2908 0.931 . S
C2882 C2883 1.395 . S
C2882 C2884 1.320 . S
C2883 C2881 1.339 . S
C2883 C2882 1.395 . S
C2883 H2909 0.929 . S
C2884 C2882 1.320 . S
C2884 C2885 1.405 . S
C2884 H2910 0.930 . S
C2885 C2880 1.479 . S
C2885 C2884 1.405 . S
C2885 H2911 0.931 . S
U2886 O2887 2.454 . S
U2886 O2888 2.458 . S
U2886 C2889 2.984 . S
U2886 C2890 2.847 . S
U2886 C2903 2.882 . S
U2886 O2904 2.441 . S
U2886 O2905 2.420 . S
U2886 O2906 2.455 . S
U2886 O2907 2.449 . S
O2887 U2886 2.454 . S
O2887 C2889 1.353 . S
O2888 U2886 2.458 . S
O2888 C2889 1.286 . S
C2889 U2886 2.984 . S
C2889 O2887 1.353 . S
C2889 O2888 1.286 . S
C2889 C2891 1.363 . S
C2890 C2880 1.465 . S
C2890 U2886 2.847 . S
C2890 O2904 1.249 . S
C2890 O2905 1.202 . S
C2891 C2889 1.363 . S
C2891 C2893 1.408 . S
C2891 C2896 1.342 . S
C2892 C2893 1.310 . S
C2892 C2895 1.461 . S
C2892 H2912 0.932 . S
C2893 C2891 1.408 . S
C2893 C2892 1.310 . S
C2893 H2913 0.930 . S
C2894 C2895 1.474 . S
C2894 C2896 1.285 . S
C2894 H2914 0.929 . S
C2895 C2892 1.461 . S
C2895 C2894 1.474 . S
C2896 C2891 1.342 . S
C2896 C2894 1.285 . S
C2896 H2915 0.930 . S
C2897 C2900 1.424 . S
C2897 C2902 1.245 . S
C2897 C2903 1.428 . S
C2898 C2901 1.260 . S
C2898 C2902 1.477 . S
C2898 H2916 0.932 . S
C2899 C2900 1.384 . S
C2899 C2901 1.479 . S
C2899 H2917 0.929 . S
C2900 C2897 1.424 . S
C2900 C2899 1.384 . S
C2900 H2918 0.928 . S
C2901 C2898 1.260 . S
C2901 C2899 1.479 . S
C2902 C2897 1.245 . S
C2902 C2898 1.477 . S
C2902 H2919 0.932 . S
C2903 U2886 2.882 . S
C2903 C2897 1.428 . S
C2903 O2906 1.301 . S
C2903 O2907 1.282 . S
O2904 U2886 2.441 . S
O2904 C2890 1.249 . S
O2905 U2886 2.420 . S
O2905 C2890 1.202 . S
O2906 U2886 2.455 . S
O2906 C2903 1.301 . S
O2907 U2886 2.449 . S
O2907 C2903 1.282 . S
H2908 C2881 0.931 . S
H2909 C2883 0.929 . S
H2910 C2884 0.930 . S
H2911 C2885 0.931 . S
H2912 C2892 0.932 . S
H2913 C2893 0.930 . S
H2914 C2894 0.929 . S
H2915 C2896 0.930 . S
H2916 C2898 0.932 . S
H2917 C2899 0.929 . S
H2918 C2900 0.928 . S
H2919 C2902 0.932 . S
C2920 C2921 1.264 . S
C2920 C2925 1.479 . S
C2920 C2930 1.465 . S
C2921 C2920 1.264 . S
C2921 C2923 1.339 . S
C2921 H2948 0.931 . S
C2922 C2923 1.395 . S
C2922 C2924 1.320 . S
C2923 C2921 1.339 . S
C2923 C2922 1.395 . S
C2923 H2949 0.929 . S
C2924 C2922 1.320 . S
C2924 C2925 1.405 . S
C2924 H2950 0.930 . S
C2925 C2920 1.479 . S
C2925 C2924 1.405 . S
C2925 H2951 0.931 . S
U2926 O2927 2.454 . S
U2926 O2928 2.458 . S
U2926 C2929 2.984 . S
U2926 C2930 2.847 . S
U2926 C2943 2.882 . S
U2926 O2944 2.441 . S
U2926 O2945 2.420 . S
U2926 O2946 2.455 . S
U2926 O2947 2.449 . S
O2927 U2926 2.454 . S
O2927 C2929 1.353 . S
O2928 U2926 2.458 . S
O2928 C2929 1.286 . S
C2929 U2926 2.984 . S
C2929 O2927 1.353 . S
C2929 O2928 1.286 . S
C2929 C2931 1.363 . S
C2930 C2920 1.465 . S
C2930 U2926 2.847 . S
C2930 O2944 1.249 . S
C2930 O2945 1.202 . S
C2931 C2929 1.363 . S
C2931 C2933 1.408 . S
C2931 C2936 1.342 . S
C2932 C2933 1.310 . S
C2932 C2935 1.461 . S
C2932 H2952 0.932 . S
C2933 C2931 1.408 . S
C2933 C2932 1.310 . S
C2933 H2953 0.930 . S
C2934 C2935 1.474 . S
C2934 C2936 1.285 . S
C2934 H2954 0.929 . S
C2935 C2932 1.461 . S
C2935 C2934 1.474 . S
C2936 C2931 1.342 . S
C2936 C2934 1.285 . S
C2936 H2955 0.930 . S
C2937 C2940 1.424 . S
C2937 C2942 1.245 . S
C2937 C2943 1.428 . S
C2938 C2941 1.260 . S
C2938 C2942 1.477 . S
C2938 H2956 0.932 . S
C2939 C2940 1.384 . S
C2939 C2941 1.479 . S
C2939 H2957 0.929 . S
C2940 C2937 1.424 . S
C2940 C2939 1.384 . S
C2940 H2958 0.928 . S
C2941 C2938 1.260 . S
C2941 C2939 1.479 . S
C2942 C2937 1.245 . S
C2942 C2938 1.477 . S
C2942 H2959 0.932 . S
C2943 U2926 2.882 . S
C2943 C2937 1.428 . S
C2943 O2946 1.301 . S
C2943 O2947 1.282 . S
O2944 U2926 2.441 . S
O2944 C2930 1.249 . S
O2945 U2926 2.420 . S
O2945 C2930 1.202 . S
O2946 U2926 2.455 . S
O2946 C2943 1.301 . S
O2947 U2926 2.449 . S
O2947 C2943 1.282 . S
H2948 C2921 0.931 . S
H2949 C2923 0.929 . S
H2950 C2924 0.930 . S
H2951 C2925 0.931 . S
H2952 C2932 0.932 . S
H2953 C2933 0.930 . S
H2954 C2934 0.929 . S
H2955 C2936 0.930 . S
H2956 C2938 0.932 . S
H2957 C2939 0.929 . S
H2958 C2940 0.928 . S
H2959 C2942 0.932 . S
C2960 C2961 1.264 . S
C2960 C2965 1.479 . S
C2960 C2970 1.465 . S
C2961 C2960 1.264 . S
C2961 C2963 1.339 . S
C2961 H2988 0.931 . S
C2962 C2963 1.395 . S
C2962 C2964 1.320 . S
C2963 C2961 1.339 . S
C2963 C2962 1.395 . S
C2963 H2989 0.929 . S
C2964 C2962 1.320 . S
C2964 C2965 1.405 . S
C2964 H2990 0.930 . S
C2965 C2960 1.479 . S
C2965 C2964 1.405 . S
C2965 H2991 0.931 . S
U2966 O2967 2.454 . S
U2966 O2968 2.458 . S
U2966 C2969 2.984 . S
U2966 C2970 2.847 . S
U2966 C2983 2.882 . S
U2966 O2984 2.441 . S
U2966 O2985 2.420 . S
U2966 O2986 2.455 . S
U2966 O2987 2.449 . S
O2967 U2966 2.454 . S
O2967 C2969 1.353 . S
O2968 U2966 2.458 . S
O2968 C2969 1.286 . S
C2969 U2966 2.984 . S
C2969 O2967 1.353 . S
C2969 O2968 1.286 . S
C2969 C2971 1.363 . S
C2970 C2960 1.465 . S
C2970 U2966 2.847 . S
C2970 O2984 1.249 . S
C2970 O2985 1.202 . S
C2971 C2969 1.363 . S
C2971 C2973 1.408 . S
C2971 C2976 1.342 . S
C2972 C2973 1.310 . S
C2972 C2975 1.461 . S
C2972 H2992 0.932 . S
C2973 C2971 1.408 . S
C2973 C2972 1.310 . S
C2973 H2993 0.930 . S
C2974 C2975 1.474 . S
C2974 C2976 1.285 . S
C2974 H2994 0.929 . S
C2975 C2972 1.461 . S
C2975 C2974 1.474 . S
C2976 C2971 1.342 . S
C2976 C2974 1.285 . S
C2976 H2995 0.930 . S
C2977 C2980 1.424 . S
C2977 C2982 1.245 . S
C2977 C2983 1.428 . S
C2978 C2981 1.260 . S
C2978 C2982 1.477 . S
C2978 H2996 0.932 . S
C2979 C2980 1.384 . S
C2979 C2981 1.479 . S
C2979 H2997 0.929 . S
C2980 C2977 1.424 . S
C2980 C2979 1.384 . S
C2980 H2998 0.928 . S
C2981 C2978 1.260 . S
C2981 C2979 1.479 . S
C2982 C2977 1.245 . S
C2982 C2978 1.477 . S
C2982 H2999 0.932 . S
C2983 U2966 2.882 . S
C2983 C2977 1.428 . S
C2983 O2986 1.301 . S
C2983 O2987 1.282 . S
O2984 U2966 2.441 . S
O2984 C2970 1.249 . S
O2985 U2966 2.420 . S
O2985 C2970 1.202 . S
O2986 U2966 2.455 . S
O2986 C2983 1.301 . S
O2987 U2966 2.449 . S
O2987 C2983 1.282 . S
H2988 C2961 0.931 . S
H2989 C2963 0.929 . S
H2990 C2964 0.930 . S
H2991 C2965 0.931 . S
H2992 C2972 0.932 . S
H2993 C2973 0.930 . S
H2994 C2974 0.929 . S
H2995 C2976 0.930 . S
H2996 C2978 0.932 . S
H2997 C2979 0.929 . S
H2998 C2980 0.928 . S
H2999 C2982 0.932 . S
C3000 C3001 1.264 . S
C3000 C3005 1.479 . S
C3000 C3010 1.465 . S
C3001 C3000 1.264 . S
C3001 C3003 1.339 . S
C3001 H3028 0.931 . S
C3002 C3003 1.395 . S
C3002 C3004 1.320 . S
C3003 C3001 1.339 . S
C3003 C3002 1.395 . S
C3003 H3029 0.929 . S
C3004 C3002 1.320 . S
C3004 C3005 1.405 . S
C3004 H3030 0.930 . S
C3005 C3000 1.479 . S
C3005 C3004 1.405 . S
C3005 H3031 0.931 . S
U3006 O3007 2.454 . S
U3006 O3008 2.458 . S
U3006 C3009 2.984 . S
U3006 C3010 2.847 . S
U3006 C3023 2.882 . S
U3006 O3024 2.441 . S
U3006 O3025 2.420 . S
U3006 O3026 2.455 . S
U3006 O3027 2.449 . S
O3007 U3006 2.454 . S
O3007 C3009 1.353 . S
O3008 U3006 2.458 . S
O3008 C3009 1.286 . S
C3009 U3006 2.984 . S
C3009 O3007 1.353 . S
C3009 O3008 1.286 . S
C3009 C3011 1.363 . S
C3010 C3000 1.465 . S
C3010 U3006 2.847 . S
C3010 O3024 1.249 . S
C3010 O3025 1.202 . S
C3011 C3009 1.363 . S
C3011 C3013 1.408 . S
C3011 C3016 1.342 . S
C3012 C3013 1.310 . S
C3012 C3015 1.461 . S
C3012 H3032 0.932 . S
C3013 C3011 1.408 . S
C3013 C3012 1.310 . S
C3013 H3033 0.930 . S
C3014 C3015 1.474 . S
C3014 C3016 1.285 . S
C3014 H3034 0.929 . S
C3015 C3012 1.461 . S
C3015 C3014 1.474 . S
C3016 C3011 1.342 . S
C3016 C3014 1.285 . S
C3016 H3035 0.930 . S
C3017 C3020 1.424 . S
C3017 C3022 1.245 . S
C3017 C3023 1.428 . S
C3018 C3021 1.260 . S
C3018 C3022 1.477 . S
C3018 H3036 0.932 . S
C3019 C3020 1.384 . S
C3019 C3021 1.479 . S
C3019 H3037 0.929 . S
C3020 C3017 1.424 . S
C3020 C3019 1.384 . S
C3020 H3038 0.928 . S
C3021 C3018 1.260 . S
C3021 C3019 1.479 . S
C3022 C3017 1.245 . S
C3022 C3018 1.477 . S
C3022 H3039 0.932 . S
C3023 U3006 2.882 . S
C3023 C3017 1.428 . S
C3023 O3026 1.301 . S
C3023 O3027 1.282 . S
O3024 U3006 2.441 . S
O3024 C3010 1.249 . S
O3025 U3006 2.420 . S
O3025 C3010 1.202 . S
O3026 U3006 2.455 . S
O3026 C3023 1.301 . S
O3027 U3006 2.449 . S
O3027 C3023 1.282 . S
H3028 C3001 0.931 . S
H3029 C3003 0.929 . S
H3030 C3004 0.930 . S
H3031 C3005 0.931 . S
H3032 C3012 0.932 . S
H3033 C3013 0.930 . S
H3034 C3014 0.929 . S
H3035 C3016 0.930 . S
H3036 C3018 0.932 . S
H3037 C3019 0.929 . S
H3038 C3020 0.928 . S
H3039 C3022 0.932 . S
C3040 C3041 1.264 . S
C3040 C3045 1.479 . S
C3040 C3050 1.465 . S
C3041 C3040 1.264 . S
C3041 C3043 1.339 . S
C3041 H3068 0.931 . S
C3042 C3043 1.395 . S
C3042 C3044 1.320 . S
C3043 C3041 1.339 . S
C3043 C3042 1.395 . S
C3043 H3069 0.929 . S
C3044 C3042 1.320 . S
C3044 C3045 1.405 . S
C3044 H3070 0.930 . S
C3045 C3040 1.479 . S
C3045 C3044 1.405 . S
C3045 H3071 0.931 . S
U3046 O3047 2.454 . S
U3046 O3048 2.458 . S
U3046 C3049 2.984 . S
U3046 C3050 2.847 . S
U3046 C3063 2.882 . S
U3046 O3064 2.441 . S
U3046 O3065 2.420 . S
U3046 O3066 2.455 . S
U3046 O3067 2.449 . S
O3047 U3046 2.454 . S
O3047 C3049 1.353 . S
O3048 U3046 2.458 . S
O3048 C3049 1.286 . S
C3049 U3046 2.984 . S
C3049 O3047 1.353 . S
C3049 O3048 1.286 . S
C3049 C3051 1.363 . S
C3050 C3040 1.465 . S
C3050 U3046 2.847 . S
C3050 O3064 1.249 . S
C3050 O3065 1.202 . S
C3051 C3049 1.363 . S
C3051 C3053 1.408 . S
C3051 C3056 1.342 . S
C3052 C3053 1.310 . S
C3052 C3055 1.461 . S
C3052 H3072 0.932 . S
C3053 C3051 1.408 . S
C3053 C3052 1.310 . S
C3053 H3073 0.930 . S
C3054 C3055 1.474 . S
C3054 C3056 1.285 . S
C3054 H3074 0.929 . S
C3055 C3052 1.461 . S
C3055 C3054 1.474 . S
C3056 C3051 1.342 . S
C3056 C3054 1.285 . S
C3056 H3075 0.930 . S
C3057 C3060 1.424 . S
C3057 C3062 1.245 . S
C3057 C3063 1.428 . S
C3058 C3061 1.260 . S
C3058 C3062 1.477 . S
C3058 H3076 0.932 . S
C3059 C3060 1.384 . S
C3059 C3061 1.479 . S
C3059 H3077 0.929 . S
C3060 C3057 1.424 . S
C3060 C3059 1.384 . S
C3060 H3078 0.928 . S
C3061 C3058 1.260 . S
C3061 C3059 1.479 . S
C3062 C3057 1.245 . S
C3062 C3058 1.477 . S
C3062 H3079 0.932 . S
C3063 U3046 2.882 . S
C3063 C3057 1.428 . S
C3063 O3066 1.301 . S
C3063 O3067 1.282 . S
O3064 U3046 2.441 . S
O3064 C3050 1.249 . S
O3065 U3046 2.420 . S
O3065 C3050 1.202 . S
O3066 U3046 2.455 . S
O3066 C3063 1.301 . S
O3067 U3046 2.449 . S
O3067 C3063 1.282 . S
H3068 C3041 0.931 . S
H3069 C3043 0.929 . S
H3070 C3044 0.930 . S
H3071 C3045 0.931 . S
H3072 C3052 0.932 . S
H3073 C3053 0.930 . S
H3074 C3054 0.929 . S
H3075 C3056 0.930 . S
H3076 C3058 0.932 . S
H3077 C3059 0.929 . S
H3078 C3060 0.928 . S
H3079 C3062 0.932 . S
C3080 C3081 1.264 . S
C3080 C3085 1.479 . S
C3080 C3090 1.465 . S
C3081 C3080 1.264 . S
C3081 C3083 1.339 . S
C3081 H3108 0.931 . S
C3082 C3083 1.395 . S
C3082 C3084 1.320 . S
C3083 C3081 1.339 . S
C3083 C3082 1.395 . S
C3083 H3109 0.929 . S
C3084 C3082 1.320 . S
C3084 C3085 1.405 . S
C3084 H3110 0.930 . S
C3085 C3080 1.479 . S
C3085 C3084 1.405 . S
C3085 H3111 0.931 . S
U3086 O3087 2.454 . S
U3086 O3088 2.458 . S
U3086 C3089 2.984 . S
U3086 C3090 2.847 . S
U3086 C3103 2.882 . S
U3086 O3104 2.441 . S
U3086 O3105 2.420 . S
U3086 O3106 2.455 . S
U3086 O3107 2.449 . S
O3087 U3086 2.454 . S
O3087 C3089 1.353 . S
O3088 U3086 2.458 . S
O3088 C3089 1.286 . S
C3089 U3086 2.984 . S
C3089 O3087 1.353 . S
C3089 O3088 1.286 . S
C3089 C3091 1.363 . S
C3090 C3080 1.465 . S
C3090 U3086 2.847 . S
C3090 O3104 1.249 . S
C3090 O3105 1.202 . S
C3091 C3089 1.363 . S
C3091 C3093 1.408 . S
C3091 C3096 1.342 . S
C3092 C3093 1.310 . S
C3092 C3095 1.461 . S
C3092 H3112 0.932 . S
C3093 C3091 1.408 . S
C3093 C3092 1.310 . S
C3093 H3113 0.930 . S
C3094 C3095 1.474 . S
C3094 C3096 1.285 . S
C3094 H3114 0.929 . S
C3095 C3092 1.461 . S
C3095 C3094 1.474 . S
C3096 C3091 1.342 . S
C3096 C3094 1.285 . S
C3096 H3115 0.930 . S
C3097 C3100 1.424 . S
C3097 C3102 1.245 . S
C3097 C3103 1.428 . S
C3098 C3101 1.260 . S
C3098 C3102 1.477 . S
C3098 H3116 0.932 . S
C3099 C3100 1.384 . S
C3099 C3101 1.479 . S
C3099 H3117 0.929 . S
C3100 C3097 1.424 . S
C3100 C3099 1.384 . S
C3100 H3118 0.928 . S
C3101 C3098 1.260 . S
C3101 C3099 1.479 . S
C3102 C3097 1.245 . S
C3102 C3098 1.477 . S
C3102 H3119 0.932 . S
C3103 U3086 2.882 . S
C3103 C3097 1.428 . S
C3103 O3106 1.301 . S
C3103 O3107 1.282 . S
O3104 U3086 2.441 . S
O3104 C3090 1.249 . S
O3105 U3086 2.420 . S
O3105 C3090 1.202 . S
O3106 U3086 2.455 . S
O3106 C3103 1.301 . S
O3107 U3086 2.449 . S
O3107 C3103 1.282 . S
H3108 C3081 0.931 . S
H3109 C3083 0.929 . S
H3110 C3084 0.930 . S
H3111 C3085 0.931 . S
H3112 C3092 0.932 . S
H3113 C3093 0.930 . S
H3114 C3094 0.929 . S
H3115 C3096 0.930 . S
H3116 C3098 0.932 . S
H3117 C3099 0.929 . S
H3118 C3100 0.928 . S
H3119 C3102 0.932 . S
C3120 C3121 1.264 . S
C3120 C3125 1.479 . S
C3120 C3130 1.465 . S
C3121 C3120 1.264 . S
C3121 C3123 1.339 . S
C3121 H3148 0.931 . S
C3122 C3123 1.395 . S
C3122 C3124 1.320 . S
C3123 C3121 1.339 . S
C3123 C3122 1.395 . S
C3123 H3149 0.929 . S
C3124 C3122 1.320 . S
C3124 C3125 1.405 . S
C3124 H3150 0.930 . S
C3125 C3120 1.479 . S
C3125 C3124 1.405 . S
C3125 H3151 0.931 . S
U3126 O3127 2.454 . S
U3126 O3128 2.458 . S
U3126 C3129 2.984 . S
U3126 C3130 2.847 . S
U3126 C3143 2.882 . S
U3126 O3144 2.441 . S
U3126 O3145 2.420 . S
U3126 O3146 2.455 . S
U3126 O3147 2.449 . S
O3127 U3126 2.454 . S
O3127 C3129 1.353 . S
O3128 U3126 2.458 . S
O3128 C3129 1.286 . S
C3129 U3126 2.984 . S
C3129 O3127 1.353 . S
C3129 O3128 1.286 . S
C3129 C3131 1.363 . S
C3130 C3120 1.465 . S
C3130 U3126 2.847 . S
C3130 O3144 1.249 . S
C3130 O3145 1.202 . S
C3131 C3129 1.363 . S
C3131 C3133 1.408 . S
C3131 C3136 1.342 . S
C3132 C3133 1.310 . S
C3132 C3135 1.461 . S
C3132 H3152 0.932 . S
C3133 C3131 1.408 . S
C3133 C3132 1.310 . S
C3133 H3153 0.930 . S
C3134 C3135 1.474 . S
C3134 C3136 1.285 . S
C3134 H3154 0.929 . S
C3135 C3132 1.461 . S
C3135 C3134 1.474 . S
C3136 C3131 1.342 . S
C3136 C3134 1.285 . S
C3136 H3155 0.930 . S
C3137 C3140 1.424 . S
C3137 C3142 1.245 . S
C3137 C3143 1.428 . S
C3138 C3141 1.260 . S
C3138 C3142 1.477 . S
C3138 H3156 0.932 . S
C3139 C3140 1.384 . S
C3139 C3141 1.479 . S
C3139 H3157 0.929 . S
C3140 C3137 1.424 . S
C3140 C3139 1.384 . S
C3140 H3158 0.928 . S
C3141 C3138 1.260 . S
C3141 C3139 1.479 . S
C3142 C3137 1.245 . S
C3142 C3138 1.477 . S
C3142 H3159 0.932 . S
C3143 U3126 2.882 . S
C3143 C3137 1.428 . S
C3143 O3146 1.301 . S
C3143 O3147 1.282 . S
O3144 U3126 2.441 . S
O3144 C3130 1.249 . S
O3145 U3126 2.420 . S
O3145 C3130 1.202 . S
O3146 U3126 2.455 . S
O3146 C3143 1.301 . S
O3147 U3126 2.449 . S
O3147 C3143 1.282 . S
H3148 C3121 0.931 . S
H3149 C3123 0.929 . S
H3150 C3124 0.930 . S
H3151 C3125 0.931 . S
H3152 C3132 0.932 . S
H3153 C3133 0.930 . S
H3154 C3134 0.929 . S
H3155 C3136 0.930 . S
H3156 C3138 0.932 . S
H3157 C3139 0.929 . S
H3158 C3140 0.928 . S
H3159 C3142 0.932 . S
C3160 C3161 1.264 . S
C3160 C3165 1.479 . S
C3160 C3170 1.465 . S
C3161 C3160 1.264 . S
C3161 C3163 1.339 . S
C3161 H3188 0.931 . S
C3162 C3163 1.395 . S
C3162 C3164 1.320 . S
C3163 C3161 1.339 . S
C3163 C3162 1.395 . S
C3163 H3189 0.929 . S
C3164 C3162 1.320 . S
C3164 C3165 1.405 . S
C3164 H3190 0.930 . S
C3165 C3160 1.479 . S
C3165 C3164 1.405 . S
C3165 H3191 0.931 . S
U3166 O3167 2.454 . S
U3166 O3168 2.458 . S
U3166 C3169 2.984 . S
U3166 C3170 2.847 . S
U3166 C3183 2.882 . S
U3166 O3184 2.441 . S
U3166 O3185 2.420 . S
U3166 O3186 2.455 . S
U3166 O3187 2.449 . S
O3167 U3166 2.454 . S
O3167 C3169 1.353 . S
O3168 U3166 2.458 . S
O3168 C3169 1.286 . S
C3169 U3166 2.984 . S
C3169 O3167 1.353 . S
C3169 O3168 1.286 . S
C3169 C3171 1.363 . S
C3170 C3160 1.465 . S
C3170 U3166 2.847 . S
C3170 O3184 1.249 . S
C3170 O3185 1.202 . S
C3171 C3169 1.363 . S
C3171 C3173 1.408 . S
C3171 C3176 1.342 . S
C3172 C3173 1.310 . S
C3172 C3175 1.461 . S
C3172 H3192 0.932 . S
C3173 C3171 1.408 . S
C3173 C3172 1.310 . S
C3173 H3193 0.930 . S
C3174 C3175 1.474 . S
C3174 C3176 1.285 . S
C3174 H3194 0.929 . S
C3175 C3172 1.461 . S
C3175 C3174 1.474 . S
C3176 C3171 1.342 . S
C3176 C3174 1.285 . S
C3176 H3195 0.930 . S
C3177 C3180 1.424 . S
C3177 C3182 1.245 . S
C3177 C3183 1.428 . S
C3178 C3181 1.260 . S
C3178 C3182 1.477 . S
C3178 H3196 0.932 . S
C3179 C3180 1.384 . S
C3179 C3181 1.479 . S
C3179 H3197 0.929 . S
C3180 C3177 1.424 . S
C3180 C3179 1.384 . S
C3180 H3198 0.928 . S
C3181 C3178 1.260 . S
C3181 C3179 1.479 . S
C3182 C3177 1.245 . S
C3182 C3178 1.477 . S
C3182 H3199 0.932 . S
C3183 U3166 2.882 . S
C3183 C3177 1.428 . S
C3183 O3186 1.301 . S
C3183 O3187 1.282 . S
O3184 U3166 2.441 . S
O3184 C3170 1.249 . S
O3185 U3166 2.420 . S
O3185 C3170 1.202 . S
O3186 U3166 2.455 . S
O3186 C3183 1.301 . S
O3187 U3166 2.449 . S
O3187 C3183 1.282 . S
H3188 C3161 0.931 . S
H3189 C3163 0.929 . S
H3190 C3164 0.930 . S
H3191 C3165 0.931 . S
H3192 C3172 0.932 . S
H3193 C3173 0.930 . S
H3194 C3174 0.929 . S
H3195 C3176 0.930 . S
H3196 C3178 0.932 . S
H3197 C3179 0.929 . S
H3198 C3180 0.928 . S
H3199 C3182 0.932 . S
C3200 C3201 1.264 . S
C3200 C3205 1.479 . S
C3200 C3210 1.465 . S
C3201 C3200 1.264 . S
C3201 C3203 1.339 . S
C3201 H3228 0.931 . S
C3202 C3203 1.395 . S
C3202 C3204 1.320 . S
C3203 C3201 1.339 . S
C3203 C3202 1.395 . S
C3203 H3229 0.929 . S
C3204 C3202 1.320 . S
C3204 C3205 1.405 . S
C3204 H3230 0.930 . S
C3205 C3200 1.479 . S
C3205 C3204 1.405 . S
C3205 H3231 0.931 . S
U3206 O3207 2.454 . S
U3206 O3208 2.458 . S
U3206 C3209 2.984 . S
U3206 C3210 2.847 . S
U3206 C3223 2.882 . S
U3206 O3224 2.441 . S
U3206 O3225 2.420 . S
U3206 O3226 2.455 . S
U3206 O3227 2.449 . S
O3207 U3206 2.454 . S
O3207 C3209 1.353 . S
O3208 U3206 2.458 . S
O3208 C3209 1.286 . S
C3209 U3206 2.984 . S
C3209 O3207 1.353 . S
C3209 O3208 1.286 . S
C3209 C3211 1.363 . S
C3210 C3200 1.465 . S
C3210 U3206 2.847 . S
C3210 O3224 1.249 . S
C3210 O3225 1.202 . S
C3211 C3209 1.363 . S
C3211 C3213 1.408 . S
C3211 C3216 1.342 . S
C3212 C3213 1.310 . S
C3212 C3215 1.461 . S
C3212 H3232 0.932 . S
C3213 C3211 1.408 . S
C3213 C3212 1.310 . S
C3213 H3233 0.930 . S
C3214 C3215 1.474 . S
C3214 C3216 1.285 . S
C3214 H3234 0.929 . S
C3215 C3212 1.461 . S
C3215 C3214 1.474 . S
C3216 C3211 1.342 . S
C3216 C3214 1.285 . S
C3216 H3235 0.930 . S
C3217 C3220 1.424 . S
C3217 C3222 1.245 . S
C3217 C3223 1.428 . S
C3218 C3221 1.260 . S
C3218 C3222 1.477 . S
C3218 H3236 0.932 . S
C3219 C3220 1.384 . S
C3219 C3221 1.479 . S
C3219 H3237 0.929 . S
C3220 C3217 1.424 . S
C3220 C3219 1.384 . S
C3220 H3238 0.928 . S
C3221 C3218 1.260 . S
C3221 C3219 1.479 . S
C3222 C3217 1.245 . S
C3222 C3218 1.477 . S
C3222 H3239 0.932 . S
C3223 U3206 2.882 . S
C3223 C3217 1.428 . S
C3223 O3226 1.301 . S
C3223 O3227 1.282 . S
O3224 U3206 2.441 . S
O3224 C3210 1.249 . S
O3225 U3206 2.420 . S
O3225 C3210 1.202 . S
O3226 U3206 2.455 . S
O3226 C3223 1.301 . S
O3227 U3206 2.449 . S
O3227 C3223 1.282 . S
H3228 C3201 0.931 . S
H3229 C3203 0.929 . S
H3230 C3204 0.930 . S
H3231 C3205 0.931 . S
H3232 C3212 0.932 . S
H3233 C3213 0.930 . S
H3234 C3214 0.929 . S
H3235 C3216 0.930 . S
H3236 C3218 0.932 . S
H3237 C3219 0.929 . S
H3238 C3220 0.928 . S
H3239 C3222 0.932 . S
C3240 C3241 1.264 . S
C3240 C3245 1.479 . S
C3240 C3250 1.465 . S
C3241 C3240 1.264 . S
C3241 C3243 1.339 . S
C3241 H3268 0.931 . S
C3242 C3243 1.395 . S
C3242 C3244 1.320 . S
C3243 C3241 1.339 . S
C3243 C3242 1.395 . S
C3243 H3269 0.929 . S
C3244 C3242 1.320 . S
C3244 C3245 1.405 . S
C3244 H3270 0.930 . S
C3245 C3240 1.479 . S
C3245 C3244 1.405 . S
C3245 H3271 0.931 . S
U3246 O3247 2.454 . S
U3246 O3248 2.458 . S
U3246 C3249 2.984 . S
U3246 C3250 2.847 . S
U3246 C3263 2.882 . S
U3246 O3264 2.441 . S
U3246 O3265 2.420 . S
U3246 O3266 2.455 . S
U3246 O3267 2.449 . S
O3247 U3246 2.454 . S
O3247 C3249 1.353 . S
O3248 U3246 2.458 . S
O3248 C3249 1.286 . S
C3249 U3246 2.984 . S
C3249 O3247 1.353 . S
C3249 O3248 1.286 . S
C3249 C3251 1.363 . S
C3250 C3240 1.465 . S
C3250 U3246 2.847 . S
C3250 O3264 1.249 . S
C3250 O3265 1.202 . S
C3251 C3249 1.363 . S
C3251 C3253 1.408 . S
C3251 C3256 1.342 . S
C3252 C3253 1.310 . S
C3252 C3255 1.461 . S
C3252 H3272 0.932 . S
C3253 C3251 1.408 . S
C3253 C3252 1.310 . S
C3253 H3273 0.930 . S
C3254 C3255 1.474 . S
C3254 C3256 1.285 . S
C3254 H3274 0.929 . S
C3255 C3252 1.461 . S
C3255 C3254 1.474 . S
C3256 C3251 1.342 . S
C3256 C3254 1.285 . S
C3256 H3275 0.930 . S
C3257 C3260 1.424 . S
C3257 C3262 1.245 . S
C3257 C3263 1.428 . S
C3258 C3261 1.260 . S
C3258 C3262 1.477 . S
C3258 H3276 0.932 . S
C3259 C3260 1.384 . S
C3259 C3261 1.479 . S
C3259 H3277 0.929 . S
C3260 C3257 1.424 . S
C3260 C3259 1.384 . S
C3260 H3278 0.928 . S
C3261 C3258 1.260 . S
C3261 C3259 1.479 . S
C3262 C3257 1.245 . S
C3262 C3258 1.477 . S
C3262 H3279 0.932 . S
C3263 U3246 2.882 . S
C3263 C3257 1.428 . S
C3263 O3266 1.301 . S
C3263 O3267 1.282 . S
O3264 U3246 2.441 . S
O3264 C3250 1.249 . S
O3265 U3246 2.420 . S
O3265 C3250 1.202 . S
O3266 U3246 2.455 . S
O3266 C3263 1.301 . S
O3267 U3246 2.449 . S
O3267 C3263 1.282 . S
H3268 C3241 0.931 . S
H3269 C3243 0.929 . S
H3270 C3244 0.930 . S
H3271 C3245 0.931 . S
H3272 C3252 0.932 . S
H3273 C3253 0.930 . S
H3274 C3254 0.929 . S
H3275 C3256 0.930 . S
H3276 C3258 0.932 . S
H3277 C3259 0.929 . S
H3278 C3260 0.928 . S
H3279 C3262 0.932 . S
C3280 C3281 1.264 . S
C3280 C3285 1.479 . S
C3280 C3290 1.465 . S
C3281 C3280 1.264 . S
C3281 C3283 1.339 . S
C3281 H3308 0.931 . S
C3282 C3283 1.395 . S
C3282 C3284 1.320 . S
C3283 C3281 1.339 . S
C3283 C3282 1.395 . S
C3283 H3309 0.929 . S
C3284 C3282 1.320 . S
C3284 C3285 1.405 . S
C3284 H3310 0.930 . S
C3285 C3280 1.479 . S
C3285 C3284 1.405 . S
C3285 H3311 0.931 . S
U3286 O3287 2.454 . S
U3286 O3288 2.458 . S
U3286 C3289 2.984 . S
U3286 C3290 2.847 . S
U3286 C3303 2.882 . S
U3286 O3304 2.441 . S
U3286 O3305 2.420 . S
U3286 O3306 2.455 . S
U3286 O3307 2.449 . S
O3287 U3286 2.454 . S
O3287 C3289 1.353 . S
O3288 U3286 2.458 . S
O3288 C3289 1.286 . S
C3289 U3286 2.984 . S
C3289 O3287 1.353 . S
C3289 O3288 1.286 . S
C3289 C3291 1.363 . S
C3290 C3280 1.465 . S
C3290 U3286 2.847 . S
C3290 O3304 1.249 . S
C3290 O3305 1.202 . S
C3291 C3289 1.363 . S
C3291 C3293 1.408 . S
C3291 C3296 1.342 . S
C3292 C3293 1.310 . S
C3292 C3295 1.461 . S
C3292 H3312 0.932 . S
C3293 C3291 1.408 . S
C3293 C3292 1.310 . S
C3293 H3313 0.930 . S
C3294 C3295 1.474 . S
C3294 C3296 1.285 . S
C3294 H3314 0.929 . S
C3295 C3292 1.461 . S
C3295 C3294 1.474 . S
C3296 C3291 1.342 . S
C3296 C3294 1.285 . S
C3296 H3315 0.930 . S
C3297 C3300 1.424 . S
C3297 C3302 1.245 . S
C3297 C3303 1.428 . S
C3298 C3301 1.260 . S
C3298 C3302 1.477 . S
C3298 H3316 0.932 . S
C3299 C3300 1.384 . S
C3299 C3301 1.479 . S
C3299 H3317 0.929 . S
C3300 C3297 1.424 . S
C3300 C3299 1.384 . S
C3300 H3318 0.928 . S
C3301 C3298 1.260 . S
C3301 C3299 1.479 . S
C3302 C3297 1.245 . S
C3302 C3298 1.477 . S
C3302 H3319 0.932 . S
C3303 U3286 2.882 . S
C3303 C3297 1.428 . S
C3303 O3306 1.301 . S
C3303 O3307 1.282 . S
O3304 U3286 2.441 . S
O3304 C3290 1.249 . S
O3305 U3286 2.420 . S
O3305 C3290 1.202 . S
O3306 U3286 2.455 . S
O3306 C3303 1.301 . S
O3307 U3286 2.449 . S
O3307 C3303 1.282 . S
H3308 C3281 0.931 . S
H3309 C3283 0.929 . S
H3310 C3284 0.930 . S
H3311 C3285 0.931 . S
H3312 C3292 0.932 . S
H3313 C3293 0.930 . S
H3314 C3294 0.929 . S
H3315 C3296 0.930 . S
H3316 C3298 0.932 . S
H3317 C3299 0.929 . S
H3318 C3300 0.928 . S
H3319 C3302 0.932 . S
C3320 C3321 1.264 . S
C3320 C3325 1.479 . S
C3320 C3330 1.465 . S
C3321 C3320 1.264 . S
C3321 C3323 1.339 . S
C3321 H3348 0.931 . S
C3322 C3323 1.395 . S
C3322 C3324 1.320 . S
C3323 C3321 1.339 . S
C3323 C3322 1.395 . S
C3323 H3349 0.929 . S
C3324 C3322 1.320 . S
C3324 C3325 1.405 . S
C3324 H3350 0.930 . S
C3325 C3320 1.479 . S
C3325 C3324 1.405 . S
C3325 H3351 0.931 . S
U3326 O3327 2.454 . S
U3326 O3328 2.458 . S
U3326 C3329 2.984 . S
U3326 C3330 2.847 . S
U3326 C3343 2.882 . S
U3326 O3344 2.441 . S
U3326 O3345 2.420 . S
U3326 O3346 2.455 . S
U3326 O3347 2.449 . S
O3327 U3326 2.454 . S
O3327 C3329 1.353 . S
O3328 U3326 2.458 . S
O3328 C3329 1.286 . S
C3329 U3326 2.984 . S
C3329 O3327 1.353 . S
C3329 O3328 1.286 . S
C3329 C3331 1.363 . S
C3330 C3320 1.465 . S
C3330 U3326 2.847 . S
C3330 O3344 1.249 . S
C3330 O3345 1.202 . S
C3331 C3329 1.363 . S
C3331 C3333 1.408 . S
C3331 C3336 1.342 . S
C3332 C3333 1.310 . S
C3332 C3335 1.461 . S
C3332 H3352 0.932 . S
C3333 C3331 1.408 . S
C3333 C3332 1.310 . S
C3333 H3353 0.930 . S
C3334 C3335 1.474 . S
C3334 C3336 1.285 . S
C3334 H3354 0.929 . S
C3335 C3332 1.461 . S
C3335 C3334 1.474 . S
C3336 C3331 1.342 . S
C3336 C3334 1.285 . S
C3336 H3355 0.930 . S
C3337 C3340 1.424 . S
C3337 C3342 1.245 . S
C3337 C3343 1.428 . S
C3338 C3341 1.260 . S
C3338 C3342 1.477 . S
C3338 H3356 0.932 . S
C3339 C3340 1.384 . S
C3339 C3341 1.479 . S
C3339 H3357 0.929 . S
C3340 C3337 1.424 . S
C3340 C3339 1.384 . S
C3340 H3358 0.928 . S
C3341 C3338 1.260 . S
C3341 C3339 1.479 . S
C3342 C3337 1.245 . S
C3342 C3338 1.477 . S
C3342 H3359 0.932 . S
C3343 U3326 2.882 . S
C3343 C3337 1.428 . S
C3343 O3346 1.301 . S
C3343 O3347 1.282 . S
O3344 U3326 2.441 . S
O3344 C3330 1.249 . S
O3345 U3326 2.420 . S
O3345 C3330 1.202 . S
O3346 U3326 2.455 . S
O3346 C3343 1.301 . S
O3347 U3326 2.449 . S
O3347 C3343 1.282 . S
H3348 C3321 0.931 . S
H3349 C3323 0.929 . S
H3350 C3324 0.930 . S
H3351 C3325 0.931 . S
H3352 C3332 0.932 . S
H3353 C3333 0.930 . S
H3354 C3334 0.929 . S
H3355 C3336 0.930 . S
H3356 C3338 0.932 . S
H3357 C3339 0.929 . S
H3358 C3340 0.928 . S
H3359 C3342 0.932 . S
C3360 C3361 1.264 . S
C3360 C3365 1.479 . S
C3360 C3370 1.465 . S
C3361 C3360 1.264 . S
C3361 C3363 1.339 . S
C3361 H3388 0.931 . S
C3362 C3363 1.395 . S
C3362 C3364 1.320 . S
C3363 C3361 1.339 . S
C3363 C3362 1.395 . S
C3363 H3389 0.929 . S
C3364 C3362 1.320 . S
C3364 C3365 1.405 . S
C3364 H3390 0.930 . S
C3365 C3360 1.479 . S
C3365 C3364 1.405 . S
C3365 H3391 0.931 . S
U3366 O3367 2.454 . S
U3366 O3368 2.458 . S
U3366 C3369 2.984 . S
U3366 C3370 2.847 . S
U3366 C3383 2.882 . S
U3366 O3384 2.441 . S
U3366 O3385 2.420 . S
U3366 O3386 2.455 . S
U3366 O3387 2.449 . S
O3367 U3366 2.454 . S
O3367 C3369 1.353 . S
O3368 U3366 2.458 . S
O3368 C3369 1.286 . S
C3369 U3366 2.984 . S
C3369 O3367 1.353 . S
C3369 O3368 1.286 . S
C3369 C3371 1.363 . S
C3370 C3360 1.465 . S
C3370 U3366 2.847 . S
C3370 O3384 1.249 . S
C3370 O3385 1.202 . S
C3371 C3369 1.363 . S
C3371 C3373 1.408 . S
C3371 C3376 1.342 . S
C3372 C3373 1.310 . S
C3372 C3375 1.461 . S
C3372 H3392 0.932 . S
C3373 C3371 1.408 . S
C3373 C3372 1.310 . S
C3373 H3393 0.930 . S
C3374 C3375 1.474 . S
C3374 C3376 1.285 . S
C3374 H3394 0.929 . S
C3375 C3372 1.461 . S
C3375 C3374 1.474 . S
C3376 C3371 1.342 . S
C3376 C3374 1.285 . S
C3376 H3395 0.930 . S
C3377 C3380 1.424 . S
C3377 C3382 1.245 . S
C3377 C3383 1.428 . S
C3378 C3381 1.260 . S
C3378 C3382 1.477 . S
C3378 H3396 0.932 . S
C3379 C3380 1.384 . S
C3379 C3381 1.479 . S
C3379 H3397 0.929 . S
C3380 C3377 1.424 . S
C3380 C3379 1.384 . S
C3380 H3398 0.928 . S
C3381 C3378 1.260 . S
C3381 C3379 1.479 . S
C3382 C3377 1.245 . S
C3382 C3378 1.477 . S
C3382 H3399 0.932 . S
C3383 U3366 2.882 . S
C3383 C3377 1.428 . S
C3383 O3386 1.301 . S
C3383 O3387 1.282 . S
O3384 U3366 2.441 . S
O3384 C3370 1.249 . S
O3385 U3366 2.420 . S
O3385 C3370 1.202 . S
O3386 U3366 2.455 . S
O3386 C3383 1.301 . S
O3387 U3366 2.449 . S
O3387 C3383 1.282 . S
H3388 C3361 0.931 . S
H3389 C3363 0.929 . S
H3390 C3364 0.930 . S
H3391 C3365 0.931 . S
H3392 C3372 0.932 . S
H3393 C3373 0.930 . S
H3394 C3374 0.929 . S
H3395 C3376 0.930 . S
H3396 C3378 0.932 . S
H3397 C3379 0.929 . S
H3398 C3380 0.928 . S
H3399 C3382 0.932 . S
C3400 C3401 1.264 . S
C3400 C3405 1.479 . S
C3400 C3410 1.465 . S
C3401 C3400 1.264 . S
C3401 C3403 1.339 . S
C3401 H3428 0.931 . S
C3402 C3403 1.395 . S
C3402 C3404 1.320 . S
C3403 C3401 1.339 . S
C3403 C3402 1.395 . S
C3403 H3429 0.929 . S
C3404 C3402 1.320 . S
C3404 C3405 1.405 . S
C3404 H3430 0.930 . S
C3405 C3400 1.479 . S
C3405 C3404 1.405 . S
C3405 H3431 0.931 . S
U3406 O3407 2.454 . S
U3406 O3408 2.458 . S
U3406 C3409 2.984 . S
U3406 C3410 2.847 . S
U3406 C3423 2.882 . S
U3406 O3424 2.441 . S
U3406 O3425 2.420 . S
U3406 O3426 2.455 . S
U3406 O3427 2.449 . S
O3407 U3406 2.454 . S
O3407 C3409 1.353 . S
O3408 U3406 2.458 . S
O3408 C3409 1.286 . S
C3409 U3406 2.984 . S
C3409 O3407 1.353 . S
C3409 O3408 1.286 . S
C3409 C3411 1.363 . S
C3410 C3400 1.465 . S
C3410 U3406 2.847 . S
C3410 O3424 1.249 . S
C3410 O3425 1.202 . S
C3411 C3409 1.363 . S
C3411 C3413 1.408 . S
C3411 C3416 1.342 . S
C3412 C3413 1.310 . S
C3412 C3415 1.461 . S
C3412 H3432 0.932 . S
C3413 C3411 1.408 . S
C3413 C3412 1.310 . S
C3413 H3433 0.930 . S
C3414 C3415 1.474 . S
C3414 C3416 1.285 . S
C3414 H3434 0.929 . S
C3415 C3412 1.461 . S
C3415 C3414 1.474 . S
C3416 C3411 1.342 . S
C3416 C3414 1.285 . S
C3416 H3435 0.930 . S
C3417 C3420 1.424 . S
C3417 C3422 1.245 . S
C3417 C3423 1.428 . S
C3418 C3421 1.260 . S
C3418 C3422 1.477 . S
C3418 H3436 0.932 . S
C3419 C3420 1.384 . S
C3419 C3421 1.479 . S
C3419 H3437 0.929 . S
C3420 C3417 1.424 . S
C3420 C3419 1.384 . S
C3420 H3438 0.928 . S
C3421 C3418 1.260 . S
C3421 C3419 1.479 . S
C3422 C3417 1.245 . S
C3422 C3418 1.477 . S
C3422 H3439 0.932 . S
C3423 U3406 2.882 . S
C3423 C3417 1.428 . S
C3423 O3426 1.301 . S
C3423 O3427 1.282 . S
O3424 U3406 2.441 . S
O3424 C3410 1.249 . S
O3425 U3406 2.420 . S
O3425 C3410 1.202 . S
O3426 U3406 2.455 . S
O3426 C3423 1.301 . S
O3427 U3406 2.449 . S
O3427 C3423 1.282 . S
H3428 C3401 0.931 . S
H3429 C3403 0.929 . S
H3430 C3404 0.930 . S
H3431 C3405 0.931 . S
H3432 C3412 0.932 . S
H3433 C3413 0.930 . S
H3434 C3414 0.929 . S
H3435 C3416 0.930 . S
H3436 C3418 0.932 . S
H3437 C3419 0.929 . S
H3438 C3420 0.928 . S
H3439 C3422 0.932 . S
C3440 C3441 1.264 . S
C3440 C3445 1.479 . S
C3440 C3450 1.465 . S
C3441 C3440 1.264 . S
C3441 C3443 1.339 . S
C3441 H3468 0.931 . S
C3442 C3443 1.395 . S
C3442 C3444 1.320 . S
C3443 C3441 1.339 . S
C3443 C3442 1.395 . S
C3443 H3469 0.929 . S
C3444 C3442 1.320 . S
C3444 C3445 1.405 . S
C3444 H3470 0.930 . S
C3445 C3440 1.479 . S
C3445 C3444 1.405 . S
C3445 H3471 0.931 . S
U3446 O3447 2.454 . S
U3446 O3448 2.458 . S
U3446 C3449 2.984 . S
U3446 C3450 2.847 . S
U3446 C3463 2.882 . S
U3446 O3464 2.441 . S
U3446 O3465 2.420 . S
U3446 O3466 2.455 . S
U3446 O3467 2.449 . S
O3447 U3446 2.454 . S
O3447 C3449 1.353 . S
O3448 U3446 2.458 . S
O3448 C3449 1.286 . S
C3449 U3446 2.984 . S
C3449 O3447 1.353 . S
C3449 O3448 1.286 . S
C3449 C3451 1.363 . S
C3450 C3440 1.465 . S
C3450 U3446 2.847 . S
C3450 O3464 1.249 . S
C3450 O3465 1.202 . S
C3451 C3449 1.363 . S
C3451 C3453 1.408 . S
C3451 C3456 1.342 . S
C3452 C3453 1.310 . S
C3452 C3455 1.461 . S
C3452 H3472 0.932 . S
C3453 C3451 1.408 . S
C3453 C3452 1.310 . S
C3453 H3473 0.930 . S
C3454 C3455 1.474 . S
C3454 C3456 1.285 . S
C3454 H3474 0.929 . S
C3455 C3452 1.461 . S
C3455 C3454 1.474 . S
C3456 C3451 1.342 . S
C3456 C3454 1.285 . S
C3456 H3475 0.930 . S
C3457 C3460 1.424 . S
C3457 C3462 1.245 . S
C3457 C3463 1.428 . S
C3458 C3461 1.260 . S
C3458 C3462 1.477 . S
C3458 H3476 0.932 . S
C3459 C3460 1.384 . S
C3459 C3461 1.479 . S
C3459 H3477 0.929 . S
C3460 C3457 1.424 . S
C3460 C3459 1.384 . S
C3460 H3478 0.928 . S
C3461 C3458 1.260 . S
C3461 C3459 1.479 . S
C3462 C3457 1.245 . S
C3462 C3458 1.477 . S
C3462 H3479 0.932 . S
C3463 U3446 2.882 . S
C3463 C3457 1.428 . S
C3463 O3466 1.301 . S
C3463 O3467 1.282 . S
O3464 U3446 2.441 . S
O3464 C3450 1.249 . S
O3465 U3446 2.420 . S
O3465 C3450 1.202 . S
O3466 U3446 2.455 . S
O3466 C3463 1.301 . S
O3467 U3446 2.449 . S
O3467 C3463 1.282 . S
H3468 C3441 0.931 . S
H3469 C3443 0.929 . S
H3470 C3444 0.930 . S
H3471 C3445 0.931 . S
H3472 C3452 0.932 . S
H3473 C3453 0.930 . S
H3474 C3454 0.929 . S
H3475 C3456 0.930 . S
H3476 C3458 0.932 . S
H3477 C3459 0.929 . S
H3478 C3460 0.928 . S
H3479 C3462 0.932 . S
C3480 C3481 1.264 . S
C3480 C3485 1.479 . S
C3480 C3490 1.465 . S
C3481 C3480 1.264 . S
C3481 C3483 1.339 . S
C3481 H3508 0.931 . S
C3482 C3483 1.395 . S
C3482 C3484 1.320 . S
C3483 C3481 1.339 . S
C3483 C3482 1.395 . S
C3483 H3509 0.929 . S
C3484 C3482 1.320 . S
C3484 C3485 1.405 . S
C3484 H3510 0.930 . S
C3485 C3480 1.479 . S
C3485 C3484 1.405 . S
C3485 H3511 0.931 . S
U3486 O3487 2.454 . S
U3486 O3488 2.458 . S
U3486 C3489 2.984 . S
U3486 C3490 2.847 . S
U3486 C3503 2.882 . S
U3486 O3504 2.441 . S
U3486 O3505 2.420 . S
U3486 O3506 2.455 . S
U3486 O3507 2.449 . S
O3487 U3486 2.454 . S
O3487 C3489 1.353 . S
O3488 U3486 2.458 . S
O3488 C3489 1.286 . S
C3489 U3486 2.984 . S
C3489 O3487 1.353 . S
C3489 O3488 1.286 . S
C3489 C3491 1.363 . S
C3490 C3480 1.465 . S
C3490 U3486 2.847 . S
C3490 O3504 1.249 . S
C3490 O3505 1.202 . S
C3491 C3489 1.363 . S
C3491 C3493 1.408 . S
C3491 C3496 1.342 . S
C3492 C3493 1.310 . S
C3492 C3495 1.461 . S
C3492 H3512 0.932 . S
C3493 C3491 1.408 . S
C3493 C3492 1.310 . S
C3493 H3513 0.930 . S
C3494 C3495 1.474 . S
C3494 C3496 1.285 . S
C3494 H3514 0.929 . S
C3495 C3492 1.461 . S
C3495 C3494 1.474 . S
C3496 C3491 1.342 . S
C3496 C3494 1.285 . S
C3496 H3515 0.930 . S
C3497 C3500 1.424 . S
C3497 C3502 1.245 . S
C3497 C3503 1.428 . S
C3498 C3501 1.260 . S
C3498 C3502 1.477 . S
C3498 H3516 0.932 . S
C3499 C3500 1.384 . S
C3499 C3501 1.479 . S
C3499 H3517 0.929 . S
C3500 C3497 1.424 . S
C3500 C3499 1.384 . S
C3500 H3518 0.928 . S
C3501 C3498 1.260 . S
C3501 C3499 1.479 . S
C3502 C3497 1.245 . S
C3502 C3498 1.477 . S
C3502 H3519 0.932 . S
C3503 U3486 2.882 . S
C3503 C3497 1.428 . S
C3503 O3506 1.301 . S
C3503 O3507 1.282 . S
O3504 U3486 2.441 . S
O3504 C3490 1.249 . S
O3505 U3486 2.420 . S
O3505 C3490 1.202 . S
O3506 U3486 2.455 . S
O3506 C3503 1.301 . S
O3507 U3486 2.449 . S
O3507 C3503 1.282 . S
H3508 C3481 0.931 . S
H3509 C3483 0.929 . S
H3510 C3484 0.930 . S
H3511 C3485 0.931 . S
H3512 C3492 0.932 . S
H3513 C3493 0.930 . S
H3514 C3494 0.929 . S
H3515 C3496 0.930 . S
H3516 C3498 0.932 . S
H3517 C3499 0.929 . S
H3518 C3500 0.928 . S
H3519 C3502 0.932 . S
C3520 C3521 1.264 . S
C3520 C3525 1.479 . S
C3520 C3530 1.465 . S
C3521 C3520 1.264 . S
C3521 C3523 1.339 . S
C3521 H3548 0.931 . S
C3522 C3523 1.395 . S
C3522 C3524 1.320 . S
C3523 C3521 1.339 . S
C3523 C3522 1.395 . S
C3523 H3549 0.929 . S
C3524 C3522 1.320 . S
C3524 C3525 1.405 . S
C3524 H3550 0.930 . S
C3525 C3520 1.479 . S
C3525 C3524 1.405 . S
C3525 H3551 0.931 . S
U3526 O3527 2.454 . S
U3526 O3528 2.458 . S
U3526 C3529 2.984 . S
U3526 C3530 2.847 . S
U3526 C3543 2.882 . S
U3526 O3544 2.441 . S
U3526 O3545 2.420 . S
U3526 O3546 2.455 . S
U3526 O3547 2.449 . S
O3527 U3526 2.454 . S
O3527 C3529 1.353 . S
O3528 U3526 2.458 . S
O3528 C3529 1.286 . S
C3529 U3526 2.984 . S
C3529 O3527 1.353 . S
C3529 O3528 1.286 . S
C3529 C3531 1.363 . S
C3530 C3520 1.465 . S
C3530 U3526 2.847 . S
C3530 O3544 1.249 . S
C3530 O3545 1.202 . S
C3531 C3529 1.363 . S
C3531 C3533 1.408 . S
C3531 C3536 1.342 . S
C3532 C3533 1.310 . S
C3532 C3535 1.461 . S
C3532 H3552 0.932 . S
C3533 C3531 1.408 . S
C3533 C3532 1.310 . S
C3533 H3553 0.930 . S
C3534 C3535 1.474 . S
C3534 C3536 1.285 . S
C3534 H3554 0.929 . S
C3535 C3532 1.461 . S
C3535 C3534 1.474 . S
C3536 C3531 1.342 . S
C3536 C3534 1.285 . S
C3536 H3555 0.930 . S
C3537 C3540 1.424 . S
C3537 C3542 1.245 . S
C3537 C3543 1.428 . S
C3538 C3541 1.260 . S
C3538 C3542 1.477 . S
C3538 H3556 0.932 . S
C3539 C3540 1.384 . S
C3539 C3541 1.479 . S
C3539 H3557 0.929 . S
C3540 C3537 1.424 . S
C3540 C3539 1.384 . S
C3540 H3558 0.928 . S
C3541 C3538 1.260 . S
C3541 C3539 1.479 . S
C3542 C3537 1.245 . S
C3542 C3538 1.477 . S
C3542 H3559 0.932 . S
C3543 U3526 2.882 . S
C3543 C3537 1.428 . S
C3543 O3546 1.301 . S
C3543 O3547 1.282 . S
O3544 U3526 2.441 . S
O3544 C3530 1.249 . S
O3545 U3526 2.420 . S
O3545 C3530 1.202 . S
O3546 U3526 2.455 . S
O3546 C3543 1.301 . S
O3547 U3526 2.449 . S
O3547 C3543 1.282 . S
H3548 C3521 0.931 . S
H3549 C3523 0.929 . S
H3550 C3524 0.930 . S
H3551 C3525 0.931 . S
H3552 C3532 0.932 . S
H3553 C3533 0.930 . S
H3554 C3534 0.929 . S
H3555 C3536 0.930 . S
H3556 C3538 0.932 . S
H3557 C3539 0.929 . S
H3558 C3540 0.928 . S
H3559 C3542 0.932 . S
C3560 C3561 1.264 . S
C3560 C3565 1.479 . S
C3560 C3570 1.465 . S
C3561 C3560 1.264 . S
C3561 C3563 1.339 . S
C3561 H3588 0.931 . S
C3562 C3563 1.395 . S
C3562 C3564 1.320 . S
C3563 C3561 1.339 . S
C3563 C3562 1.395 . S
C3563 H3589 0.929 . S
C3564 C3562 1.320 . S
C3564 C3565 1.405 . S
C3564 H3590 0.930 . S
C3565 C3560 1.479 . S
C3565 C3564 1.405 . S
C3565 H3591 0.931 . S
U3566 O3567 2.454 . S
U3566 O3568 2.458 . S
U3566 C3569 2.984 . S
U3566 C3570 2.847 . S
U3566 C3583 2.882 . S
U3566 O3584 2.441 . S
U3566 O3585 2.420 . S
U3566 O3586 2.455 . S
U3566 O3587 2.449 . S
O3567 U3566 2.454 . S
O3567 C3569 1.353 . S
O3568 U3566 2.458 . S
O3568 C3569 1.286 . S
C3569 U3566 2.984 . S
C3569 O3567 1.353 . S
C3569 O3568 1.286 . S
C3569 C3571 1.363 . S
C3570 C3560 1.465 . S
C3570 U3566 2.847 . S
C3570 O3584 1.249 . S
C3570 O3585 1.202 . S
C3571 C3569 1.363 . S
C3571 C3573 1.408 . S
C3571 C3576 1.342 . S
C3572 C3573 1.310 . S
C3572 C3575 1.461 . S
C3572 H3592 0.932 . S
C3573 C3571 1.408 . S
C3573 C3572 1.310 . S
C3573 H3593 0.930 . S
C3574 C3575 1.474 . S
C3574 C3576 1.285 . S
C3574 H3594 0.929 . S
C3575 C3572 1.461 . S
C3575 C3574 1.474 . S
C3576 C3571 1.342 . S
C3576 C3574 1.285 . S
C3576 H3595 0.930 . S
C3577 C3580 1.424 . S
C3577 C3582 1.245 . S
C3577 C3583 1.428 . S
C3578 C3581 1.260 . S
C3578 C3582 1.477 . S
C3578 H3596 0.932 . S
C3579 C3580 1.384 . S
C3579 C3581 1.479 . S
C3579 H3597 0.929 . S
C3580 C3577 1.424 . S
C3580 C3579 1.384 . S
C3580 H3598 0.928 . S
C3581 C3578 1.260 . S
C3581 C3579 1.479 . S
C3582 C3577 1.245 . S
C3582 C3578 1.477 . S
C3582 H3599 0.932 . S
C3583 U3566 2.882 . S
C3583 C3577 1.428 . S
C3583 O3586 1.301 . S
C3583 O3587 1.282 . S
O3584 U3566 2.441 . S
O3584 C3570 1.249 . S
O3585 U3566 2.420 . S
O3585 C3570 1.202 . S
O3586 U3566 2.455 . S
O3586 C3583 1.301 . S
O3587 U3566 2.449 . S
O3587 C3583 1.282 . S
H3588 C3561 0.931 . S
H3589 C3563 0.929 . S
H3590 C3564 0.930 . S
H3591 C3565 0.931 . S
H3592 C3572 0.932 . S
H3593 C3573 0.930 . S
H3594 C3574 0.929 . S
H3595 C3576 0.930 . S
H3596 C3578 0.932 . S
H3597 C3579 0.929 . S
H3598 C3580 0.928 . S
H3599 C3582 0.932 . S
C3600 C3601 1.264 . S
C3600 C3605 1.479 . S
C3600 C3610 1.465 . S
C3601 C3600 1.264 . S
C3601 C3603 1.339 . S
C3601 H3628 0.931 . S
C3602 C3603 1.395 . S
C3602 C3604 1.320 . S
C3603 C3601 1.339 . S
C3603 C3602 1.395 . S
C3603 H3629 0.929 . S
C3604 C3602 1.320 . S
C3604 C3605 1.405 . S
C3604 H3630 0.930 . S
C3605 C3600 1.479 . S
C3605 C3604 1.405 . S
C3605 H3631 0.931 . S
U3606 O3607 2.454 . S
U3606 O3608 2.458 . S
U3606 C3609 2.984 . S
U3606 C3610 2.847 . S
U3606 C3623 2.882 . S
U3606 O3624 2.441 . S
U3606 O3625 2.420 . S
U3606 O3626 2.455 . S
U3606 O3627 2.449 . S
O3607 U3606 2.454 . S
O3607 C3609 1.353 . S
O3608 U3606 2.458 . S
O3608 C3609 1.286 . S
C3609 U3606 2.984 . S
C3609 O3607 1.353 . S
C3609 O3608 1.286 . S
C3609 C3611 1.363 . S
C3610 C3600 1.465 . S
C3610 U3606 2.847 . S
C3610 O3624 1.249 . S
C3610 O3625 1.202 . S
C3611 C3609 1.363 . S
C3611 C3613 1.408 . S
C3611 C3616 1.342 . S
C3612 C3613 1.310 . S
C3612 C3615 1.461 . S
C3612 H3632 0.932 . S
C3613 C3611 1.408 . S
C3613 C3612 1.310 . S
C3613 H3633 0.930 . S
C3614 C3615 1.474 . S
C3614 C3616 1.285 . S
C3614 H3634 0.929 . S
C3615 C3612 1.461 . S
C3615 C3614 1.474 . S
C3616 C3611 1.342 . S
C3616 C3614 1.285 . S
C3616 H3635 0.930 . S
C3617 C3620 1.424 . S
C3617 C3622 1.245 . S
C3617 C3623 1.428 . S
C3618 C3621 1.260 . S
C3618 C3622 1.477 . S
C3618 H3636 0.932 . S
C3619 C3620 1.384 . S
C3619 C3621 1.479 . S
C3619 H3637 0.929 . S
C3620 C3617 1.424 . S
C3620 C3619 1.384 . S
C3620 H3638 0.928 . S
C3621 C3618 1.260 . S
C3621 C3619 1.479 . S
C3622 C3617 1.245 . S
C3622 C3618 1.477 . S
C3622 H3639 0.932 . S
C3623 U3606 2.882 . S
C3623 C3617 1.428 . S
C3623 O3626 1.301 . S
C3623 O3627 1.282 . S
O3624 U3606 2.441 . S
O3624 C3610 1.249 . S
O3625 U3606 2.420 . S
O3625 C3610 1.202 . S
O3626 U3606 2.455 . S
O3626 C3623 1.301 . S
O3627 U3606 2.449 . S
O3627 C3623 1.282 . S
H3628 C3601 0.931 . S
H3629 C3603 0.929 . S
H3630 C3604 0.930 . S
H3631 C3605 0.931 . S
H3632 C3612 0.932 . S
H3633 C3613 0.930 . S
H3634 C3614 0.929 . S
H3635 C3616 0.930 . S
H3636 C3618 0.932 . S
H3637 C3619 0.929 . S
H3638 C3620 0.928 . S
H3639 C3622 0.932 . S
C3640 C3641 1.264 . S
C3640 C3645 1.479 . S
C3640 C3650 1.465 . S
C3641 C3640 1.264 . S
C3641 C3643 1.339 . S
C3641 H3668 0.931 . S
C3642 C3643 1.395 . S
C3642 C3644 1.320 . S
C3643 C3641 1.339 . S
C3643 C3642 1.395 . S
C3643 H3669 0.929 . S
C3644 C3642 1.320 . S
C3644 C3645 1.405 . S
C3644 H3670 0.930 . S
C3645 C3640 1.479 . S
C3645 C3644 1.405 . S
C3645 H3671 0.931 . S
U3646 O3647 2.454 . S
U3646 O3648 2.458 . S
U3646 C3649 2.984 . S
U3646 C3650 2.847 . S
U3646 C3663 2.882 . S
U3646 O3664 2.441 . S
U3646 O3665 2.420 . S
U3646 O3666 2.455 . S
U3646 O3667 2.449 . S
O3647 U3646 2.454 . S
O3647 C3649 1.353 . S
O3648 U3646 2.458 . S
O3648 C3649 1.286 . S
C3649 U3646 2.984 . S
C3649 O3647 1.353 . S
C3649 O3648 1.286 . S
C3649 C3651 1.363 . S
C3650 C3640 1.465 . S
C3650 U3646 2.847 . S
C3650 O3664 1.249 . S
C3650 O3665 1.202 . S
C3651 C3649 1.363 . S
C3651 C3653 1.408 . S
C3651 C3656 1.342 . S
C3652 C3653 1.310 . S
C3652 C3655 1.461 . S
C3652 H3672 0.932 . S
C3653 C3651 1.408 . S
C3653 C3652 1.310 . S
C3653 H3673 0.930 . S
C3654 C3655 1.474 . S
C3654 C3656 1.285 . S
C3654 H3674 0.929 . S
C3655 C3652 1.461 . S
C3655 C3654 1.474 . S
C3656 C3651 1.342 . S
C3656 C3654 1.285 . S
C3656 H3675 0.930 . S
C3657 C3660 1.424 . S
C3657 C3662 1.245 . S
C3657 C3663 1.428 . S
C3658 C3661 1.260 . S
C3658 C3662 1.477 . S
C3658 H3676 0.932 . S
C3659 C3660 1.384 . S
C3659 C3661 1.479 . S
C3659 H3677 0.929 . S
C3660 C3657 1.424 . S
C3660 C3659 1.384 . S
C3660 H3678 0.928 . S
C3661 C3658 1.260 . S
C3661 C3659 1.479 . S
C3662 C3657 1.245 . S
C3662 C3658 1.477 . S
C3662 H3679 0.932 . S
C3663 U3646 2.882 . S
C3663 C3657 1.428 . S
C3663 O3666 1.301 . S
C3663 O3667 1.282 . S
O3664 U3646 2.441 . S
O3664 C3650 1.249 . S
O3665 U3646 2.420 . S
O3665 C3650 1.202 . S
O3666 U3646 2.455 . S
O3666 C3663 1.301 . S
O3667 U3646 2.449 . S
O3667 C3663 1.282 . S
H3668 C3641 0.931 . S
H3669 C3643 0.929 . S
H3670 C3644 0.930 . S
H3671 C3645 0.931 . S
H3672 C3652 0.932 . S
H3673 C3653 0.930 . S
H3674 C3654 0.929 . S
H3675 C3656 0.930 . S
H3676 C3658 0.932 . S
H3677 C3659 0.929 . S
H3678 C3660 0.928 . S
H3679 C3662 0.932 . S
C3680 C3681 1.264 . S
C3680 C3685 1.479 . S
C3680 C3690 1.465 . S
C3681 C3680 1.264 . S
C3681 C3683 1.339 . S
C3681 H3708 0.931 . S
C3682 C3683 1.395 . S
C3682 C3684 1.320 . S
C3683 C3681 1.339 . S
C3683 C3682 1.395 . S
C3683 H3709 0.929 . S
C3684 C3682 1.320 . S
C3684 C3685 1.405 . S
C3684 H3710 0.930 . S
C3685 C3680 1.479 . S
C3685 C3684 1.405 . S
C3685 H3711 0.931 . S
U3686 O3687 2.454 . S
U3686 O3688 2.458 . S
U3686 C3689 2.984 . S
U3686 C3690 2.847 . S
U3686 C3703 2.882 . S
U3686 O3704 2.441 . S
U3686 O3705 2.420 . S
U3686 O3706 2.455 . S
U3686 O3707 2.449 . S
O3687 U3686 2.454 . S
O3687 C3689 1.353 . S
O3688 U3686 2.458 . S
O3688 C3689 1.286 . S
C3689 U3686 2.984 . S
C3689 O3687 1.353 . S
C3689 O3688 1.286 . S
C3689 C3691 1.363 . S
C3690 C3680 1.465 . S
C3690 U3686 2.847 . S
C3690 O3704 1.249 . S
C3690 O3705 1.202 . S
C3691 C3689 1.363 . S
C3691 C3693 1.408 . S
C3691 C3696 1.342 . S
C3692 C3693 1.310 . S
C3692 C3695 1.461 . S
C3692 H3712 0.932 . S
C3693 C3691 1.408 . S
C3693 C3692 1.310 . S
C3693 H3713 0.930 . S
C3694 C3695 1.474 . S
C3694 C3696 1.285 . S
C3694 H3714 0.929 . S
C3695 C3692 1.461 . S
C3695 C3694 1.474 . S
C3696 C3691 1.342 . S
C3696 C3694 1.285 . S
C3696 H3715 0.930 . S
C3697 C3700 1.424 . S
C3697 C3702 1.245 . S
C3697 C3703 1.428 . S
C3698 C3701 1.260 . S
C3698 C3702 1.477 . S
C3698 H3716 0.932 . S
C3699 C3700 1.384 . S
C3699 C3701 1.479 . S
C3699 H3717 0.929 . S
C3700 C3697 1.424 . S
C3700 C3699 1.384 . S
C3700 H3718 0.928 . S
C3701 C3698 1.260 . S
C3701 C3699 1.479 . S
C3702 C3697 1.245 . S
C3702 C3698 1.477 . S
C3702 H3719 0.932 . S
C3703 U3686 2.882 . S
C3703 C3697 1.428 . S
C3703 O3706 1.301 . S
C3703 O3707 1.282 . S
O3704 U3686 2.441 . S
O3704 C3690 1.249 . S
O3705 U3686 2.420 . S
O3705 C3690 1.202 . S
O3706 U3686 2.455 . S
O3706 C3703 1.301 . S
O3707 U3686 2.449 . S
O3707 C3703 1.282 . S
H3708 C3681 0.931 . S
H3709 C3683 0.929 . S
H3710 C3684 0.930 . S
H3711 C3685 0.931 . S
H3712 C3692 0.932 . S
H3713 C3693 0.930 . S
H3714 C3694 0.929 . S
H3715 C3696 0.930 . S
H3716 C3698 0.932 . S
H3717 C3699 0.929 . S
H3718 C3700 0.928 . S
H3719 C3702 0.932 . S
C3720 C3721 1.264 . S
C3720 C3725 1.479 . S
C3720 C3730 1.465 . S
C3721 C3720 1.264 . S
C3721 C3723 1.339 . S
C3721 H3748 0.931 . S
C3722 C3723 1.395 . S
C3722 C3724 1.320 . S
C3723 C3721 1.339 . S
C3723 C3722 1.395 . S
C3723 H3749 0.929 . S
C3724 C3722 1.320 . S
C3724 C3725 1.405 . S
C3724 H3750 0.930 . S
C3725 C3720 1.479 . S
C3725 C3724 1.405 . S
C3725 H3751 0.931 . S
U3726 O3727 2.454 . S
U3726 O3728 2.458 . S
U3726 C3729 2.984 . S
U3726 C3730 2.847 . S
U3726 C3743 2.882 . S
U3726 O3744 2.441 . S
U3726 O3745 2.420 . S
U3726 O3746 2.455 . S
U3726 O3747 2.449 . S
O3727 U3726 2.454 . S
O3727 C3729 1.353 . S
O3728 U3726 2.458 . S
O3728 C3729 1.286 . S
C3729 U3726 2.984 . S
C3729 O3727 1.353 . S
C3729 O3728 1.286 . S
C3729 C3731 1.363 . S
C3730 C3720 1.465 . S
C3730 U3726 2.847 . S
C3730 O3744 1.249 . S
C3730 O3745 1.202 . S
C3731 C3729 1.363 . S
C3731 C3733 1.408 . S
C3731 C3736 1.342 . S
C3732 C3733 1.310 . S
C3732 C3735 1.461 . S
C3732 H3752 0.932 . S
C3733 C3731 1.408 . S
C3733 C3732 1.310 . S
C3733 H3753 0.930 . S
C3734 C3735 1.474 . S
C3734 C3736 1.285 . S
C3734 H3754 0.929 . S
C3735 C3732 1.461 . S
C3735 C3734 1.474 . S
C3736 C3731 1.342 . S
C3736 C3734 1.285 . S
C3736 H3755 0.930 . S
C3737 C3740 1.424 . S
C3737 C3742 1.245 . S
C3737 C3743 1.428 . S
C3738 C3741 1.260 . S
C3738 C3742 1.477 . S
C3738 H3756 0.932 . S
C3739 C3740 1.384 . S
C3739 C3741 1.479 . S
C3739 H3757 0.929 . S
C3740 C3737 1.424 . S
C3740 C3739 1.384 . S
C3740 H3758 0.928 . S
C3741 C3738 1.260 . S
C3741 C3739 1.479 . S
C3742 C3737 1.245 . S
C3742 C3738 1.477 . S
C3742 H3759 0.932 . S
C3743 U3726 2.882 . S
C3743 C3737 1.428 . S
C3743 O3746 1.301 . S
C3743 O3747 1.282 . S
O3744 U3726 2.441 . S
O3744 C3730 1.249 . S
O3745 U3726 2.420 . S
O3745 C3730 1.202 . S
O3746 U3726 2.455 . S
O3746 C3743 1.301 . S
O3747 U3726 2.449 . S
O3747 C3743 1.282 . S
H3748 C3721 0.931 . S
H3749 C3723 0.929 . S
H3750 C3724 0.930 . S
H3751 C3725 0.931 . S
H3752 C3732 0.932 . S
H3753 C3733 0.930 . S
H3754 C3734 0.929 . S
H3755 C3736 0.930 . S
H3756 C3738 0.932 . S
H3757 C3739 0.929 . S
H3758 C3740 0.928 . S
H3759 C3742 0.932 . S
C3760 C3761 1.264 . S
C3760 C3765 1.479 . S
C3760 C3770 1.465 . S
C3761 C3760 1.264 . S
C3761 C3763 1.339 . S
C3761 H3788 0.931 . S
C3762 C3763 1.395 . S
C3762 C3764 1.320 . S
C3763 C3761 1.339 . S
C3763 C3762 1.395 . S
C3763 H3789 0.929 . S
C3764 C3762 1.320 . S
C3764 C3765 1.405 . S
C3764 H3790 0.930 . S
C3765 C3760 1.479 . S
C3765 C3764 1.405 . S
C3765 H3791 0.931 . S
U3766 O3767 2.454 . S
U3766 O3768 2.458 . S
U3766 C3769 2.984 . S
U3766 C3770 2.847 . S
U3766 C3783 2.882 . S
U3766 O3784 2.441 . S
U3766 O3785 2.420 . S
U3766 O3786 2.455 . S
U3766 O3787 2.449 . S
O3767 U3766 2.454 . S
O3767 C3769 1.353 . S
O3768 U3766 2.458 . S
O3768 C3769 1.286 . S
C3769 U3766 2.984 . S
C3769 O3767 1.353 . S
C3769 O3768 1.286 . S
C3769 C3771 1.363 . S
C3770 C3760 1.465 . S
C3770 U3766 2.847 . S
C3770 O3784 1.249 . S
C3770 O3785 1.202 . S
C3771 C3769 1.363 . S
C3771 C3773 1.408 . S
C3771 C3776 1.342 . S
C3772 C3773 1.310 . S
C3772 C3775 1.461 . S
C3772 H3792 0.932 . S
C3773 C3771 1.408 . S
C3773 C3772 1.310 . S
C3773 H3793 0.930 . S
C3774 C3775 1.474 . S
C3774 C3776 1.285 . S
C3774 H3794 0.929 . S
C3775 C3772 1.461 . S
C3775 C3774 1.474 . S
C3776 C3771 1.342 . S
C3776 C3774 1.285 . S
C3776 H3795 0.930 . S
C3777 C3780 1.424 . S
C3777 C3782 1.245 . S
C3777 C3783 1.428 . S
C3778 C3781 1.260 . S
C3778 C3782 1.477 . S
C3778 H3796 0.932 . S
C3779 C3780 1.384 . S
C3779 C3781 1.479 . S
C3779 H3797 0.929 . S
C3780 C3777 1.424 . S
C3780 C3779 1.384 . S
C3780 H3798 0.928 . S
C3781 C3778 1.260 . S
C3781 C3779 1.479 . S
C3782 C3777 1.245 . S
C3782 C3778 1.477 . S
C3782 H3799 0.932 . S
C3783 U3766 2.882 . S
C3783 C3777 1.428 . S
C3783 O3786 1.301 . S
C3783 O3787 1.282 . S
O3784 U3766 2.441 . S
O3784 C3770 1.249 . S
O3785 U3766 2.420 . S
O3785 C3770 1.202 . S
O3786 U3766 2.455 . S
O3786 C3783 1.301 . S
O3787 U3766 2.449 . S
O3787 C3783 1.282 . S
H3788 C3761 0.931 . S
H3789 C3763 0.929 . S
H3790 C3764 0.930 . S
H3791 C3765 0.931 . S
H3792 C3772 0.932 . S
H3793 C3773 0.930 . S
H3794 C3774 0.929 . S
H3795 C3776 0.930 . S
H3796 C3778 0.932 . S
H3797 C3779 0.929 . S
H3798 C3780 0.928 . S
H3799 C3782 0.932 . S
C3800 C3801 1.264 . S
C3800 C3805 1.479 . S
C3800 C3810 1.465 . S
C3801 C3800 1.264 . S
C3801 C3803 1.339 . S
C3801 H3828 0.931 . S
C3802 C3803 1.395 . S
C3802 C3804 1.320 . S
C3803 C3801 1.339 . S
C3803 C3802 1.395 . S
C3803 H3829 0.929 . S
C3804 C3802 1.320 . S
C3804 C3805 1.405 . S
C3804 H3830 0.930 . S
C3805 C3800 1.479 . S
C3805 C3804 1.405 . S
C3805 H3831 0.931 . S
U3806 O3807 2.454 . S
U3806 O3808 2.458 . S
U3806 C3809 2.984 . S
U3806 C3810 2.847 . S
U3806 C3823 2.882 . S
U3806 O3824 2.441 . S
U3806 O3825 2.420 . S
U3806 O3826 2.455 . S
U3806 O3827 2.449 . S
O3807 U3806 2.454 . S
O3807 C3809 1.353 . S
O3808 U3806 2.458 . S
O3808 C3809 1.286 . S
C3809 U3806 2.984 . S
C3809 O3807 1.353 . S
C3809 O3808 1.286 . S
C3809 C3811 1.363 . S
C3810 C3800 1.465 . S
C3810 U3806 2.847 . S
C3810 O3824 1.249 . S
C3810 O3825 1.202 . S
C3811 C3809 1.363 . S
C3811 C3813 1.408 . S
C3811 C3816 1.342 . S
C3812 C3813 1.310 . S
C3812 C3815 1.461 . S
C3812 H3832 0.932 . S
C3813 C3811 1.408 . S
C3813 C3812 1.310 . S
C3813 H3833 0.930 . S
C3814 C3815 1.474 . S
C3814 C3816 1.285 . S
C3814 H3834 0.929 . S
C3815 C3812 1.461 . S
C3815 C3814 1.474 . S
C3816 C3811 1.342 . S
C3816 C3814 1.285 . S
C3816 H3835 0.930 . S
C3817 C3820 1.424 . S
C3817 C3822 1.245 . S
C3817 C3823 1.428 . S
C3818 C3821 1.260 . S
C3818 C3822 1.477 . S
C3818 H3836 0.932 . S
C3819 C3820 1.384 . S
C3819 C3821 1.479 . S
C3819 H3837 0.929 . S
C3820 C3817 1.424 . S
C3820 C3819 1.384 . S
C3820 H3838 0.928 . S
C3821 C3818 1.260 . S
C3821 C3819 1.479 . S
C3822 C3817 1.245 . S
C3822 C3818 1.477 . S
C3822 H3839 0.932 . S
C3823 U3806 2.882 . S
C3823 C3817 1.428 . S
C3823 O3826 1.301 . S
C3823 O3827 1.282 . S
O3824 U3806 2.441 . S
O3824 C3810 1.249 . S
O3825 U3806 2.420 . S
O3825 C3810 1.202 . S
O3826 U3806 2.455 . S
O3826 C3823 1.301 . S
O3827 U3806 2.449 . S
O3827 C3823 1.282 . S
H3828 C3801 0.931 . S
H3829 C3803 0.929 . S
H3830 C3804 0.930 . S
H3831 C3805 0.931 . S
H3832 C3812 0.932 . S
H3833 C3813 0.930 . S
H3834 C3814 0.929 . S
H3835 C3816 0.930 . S
H3836 C3818 0.932 . S
H3837 C3819 0.929 . S
H3838 C3820 0.928 . S
H3839 C3822 0.932 . S
H3840 C3847 0.929 . S
H3841 C3850 0.930 . S
H3842 C3852 0.929 . S
H3843 C3844 0.969 . S
C3844 H3843 0.969 . S
C3844 O3845 1.550 . S
C3844 H3846 0.973 . S
O3845 C3844 1.550 . S
O3845 C3851 1.412 . S
H3846 C3844 0.973 . S
C3847 H3840 0.929 . S
C3847 C3848 1.400 . S
C3847 C3849 1.364 . S
C3848 C3847 1.400 . S
C3848 C3852 1.377 . S
C3849 C3847 1.364 . S
C3849 C3850 1.374 . S
C3850 H3841 0.930 . S
C3850 C3849 1.374 . S
C3850 C3851 1.383 . S
C3851 O3845 1.412 . S
C3851 C3850 1.383 . S
C3851 C3852 1.394 . S
C3852 H3842 0.929 . S
C3852 C3848 1.377 . S
C3852 C3851 1.394 . S
H3853 C3860 0.929 . S
H3854 C3863 0.930 . S
H3855 C3865 0.929 . S
H3856 C3857 0.969 . S
C3857 H3856 0.969 . S
C3857 O3858 1.550 . S
C3857 H3859 0.973 . S
O3858 C3857 1.550 . S
O3858 C3864 1.412 . S
H3859 C3857 0.973 . S
C3860 H3853 0.929 . S
C3860 C3861 1.400 . S
C3860 C3862 1.364 . S
C3861 C3860 1.400 . S
C3861 C3865 1.377 . S
C3862 C3860 1.364 . S
C3862 C3863 1.374 . S
C3863 H3854 0.930 . S
C3863 C3862 1.374 . S
C3863 C3864 1.383 . S
C3864 O3858 1.412 . S
C3864 C3863 1.383 . S
C3864 C3865 1.394 . S
C3865 H3855 0.929 . S
C3865 C3861 1.377 . S
C3865 C3864 1.394 . S
H3866 C3873 0.929 . S
H3867 C3876 0.930 . S
H3868 C3878 0.929 . S
H3869 C3870 0.969 . S
C3870 H3869 0.969 . S
C3870 O3871 1.550 . S
C3870 H3872 0.973 . S
O3871 C3870 1.550 . S
O3871 C3877 1.412 . S
H3872 C3870 0.973 . S
C3873 H3866 0.929 . S
C3873 C3874 1.400 . S
C3873 C3875 1.364 . S
C3874 C3873 1.400 . S
C3874 C3878 1.377 . S
C3875 C3873 1.364 . S
C3875 C3876 1.374 . S
C3876 H3867 0.930 . S
C3876 C3875 1.374 . S
C3876 C3877 1.383 . S
C3877 O3871 1.412 . S
C3877 C3876 1.383 . S
C3877 C3878 1.394 . S
C3878 H3868 0.929 . S
C3878 C3874 1.377 . S
C3878 C3877 1.394 . S
H3879 C3886 0.929 . S
H3880 C3889 0.930 . S
H3881 C3891 0.929 . S
H3882 C3883 0.969 . S
C3883 H3882 0.969 . S
C3883 O3884 1.550 . S
C3883 H3885 0.973 . S
O3884 C3883 1.550 . S
O3884 C3890 1.412 . S
H3885 C3883 0.973 . S
C3886 H3879 0.929 . S
C3886 C3887 1.400 . S
C3886 C3888 1.364 . S
C3887 C3886 1.400 . S
C3887 C3891 1.377 . S
C3888 C3886 1.364 . S
C3888 C3889 1.374 . S
C3889 H3880 0.930 . S
C3889 C3888 1.374 . S
C3889 C3890 1.383 . S
C3890 O3884 1.412 . S
C3890 C3889 1.383 . S
C3890 C3891 1.394 . S
C3891 H3881 0.929 . S
C3891 C3887 1.377 . S
C3891 C3890 1.394 . S
H3892 C3899 0.929 . S
H3893 C3902 0.930 . S
H3894 C3904 0.929 . S
H3895 C3896 0.969 . S
C3896 H3895 0.969 . S
C3896 O3897 1.550 . S
C3896 H3898 0.973 . S
O3897 C3896 1.550 . S
O3897 C3903 1.412 . S
H3898 C3896 0.973 . S
C3899 H3892 0.929 . S
C3899 C3900 1.400 . S
C3899 C3901 1.364 . S
C3900 C3899 1.400 . S
C3900 C3904 1.377 . S
C3901 C3899 1.364 . S
C3901 C3902 1.374 . S
C3902 H3893 0.930 . S
C3902 C3901 1.374 . S
C3902 C3903 1.383 . S
C3903 O3897 1.412 . S
C3903 C3902 1.383 . S
C3903 C3904 1.394 . S
C3904 H3894 0.929 . S
C3904 C3900 1.377 . S
C3904 C3903 1.394 . S
H3905 C3912 0.929 . S
H3906 C3915 0.930 . S
H3907 C3917 0.929 . S
H3908 C3909 0.969 . S
C3909 H3908 0.969 . S
C3909 O3910 1.550 . S
C3909 H3911 0.973 . S
O3910 C3909 1.550 . S
O3910 C3916 1.412 . S
H3911 C3909 0.973 . S
C3912 H3905 0.929 . S
C3912 C3913 1.400 . S
C3912 C3914 1.364 . S
C3913 C3912 1.400 . S
C3913 C3917 1.377 . S
C3914 C3912 1.364 . S
C3914 C3915 1.374 . S
C3915 H3906 0.930 . S
C3915 C3914 1.374 . S
C3915 C3916 1.383 . S
C3916 O3910 1.412 . S
C3916 C3915 1.383 . S
C3916 C3917 1.394 . S
C3917 H3907 0.929 . S
C3917 C3913 1.377 . S
C3917 C3916 1.394 . S
H3918 C3925 0.929 . S
H3919 C3928 0.930 . S
H3920 C3930 0.929 . S
H3921 C3922 0.969 . S
C3922 H3921 0.969 . S
C3922 O3923 1.550 . S
C3922 H3924 0.973 . S
O3923 C3922 1.550 . S
O3923 C3929 1.412 . S
H3924 C3922 0.973 . S
C3925 H3918 0.929 . S
C3925 C3926 1.400 . S
C3925 C3927 1.364 . S
C3926 C3925 1.400 . S
C3926 C3930 1.377 . S
C3927 C3925 1.364 . S
C3927 C3928 1.374 . S
C3928 H3919 0.930 . S
C3928 C3927 1.374 . S
C3928 C3929 1.383 . S
C3929 O3923 1.412 . S
C3929 C3928 1.383 . S
C3929 C3930 1.394 . S
C3930 H3920 0.929 . S
C3930 C3926 1.377 . S
C3930 C3929 1.394 . S
H3931 C3938 0.929 . S
H3932 C3941 0.930 . S
H3933 C3943 0.929 . S
H3934 C3935 0.969 . S
C3935 H3934 0.969 . S
C3935 O3936 1.550 . S
C3935 H3937 0.973 . S
O3936 C3935 1.550 . S
O3936 C3942 1.412 . S
H3937 C3935 0.973 . S
C3938 H3931 0.929 . S
C3938 C3939 1.400 . S
C3938 C3940 1.364 . S
C3939 C3938 1.400 . S
C3939 C3943 1.377 . S
C3940 C3938 1.364 . S
C3940 C3941 1.374 . S
C3941 H3932 0.930 . S
C3941 C3940 1.374 . S
C3941 C3942 1.383 . S
C3942 O3936 1.412 . S
C3942 C3941 1.383 . S
C3942 C3943 1.394 . S
C3943 H3933 0.929 . S
C3943 C3939 1.377 . S
C3943 C3942 1.394 . S
H3944 C3951 0.929 . S
H3945 C3954 0.930 . S
H3946 C3956 0.929 . S
H3947 C3948 0.969 . S
C3948 H3947 0.969 . S
C3948 O3949 1.550 . S
C3948 H3950 0.973 . S
O3949 C3948 1.550 . S
O3949 C3955 1.412 . S
H3950 C3948 0.973 . S
C3951 H3944 0.929 . S
C3951 C3952 1.400 . S
C3951 C3953 1.364 . S
C3952 C3951 1.400 . S
C3952 C3956 1.377 . S
C3953 C3951 1.364 . S
C3953 C3954 1.374 . S
C3954 H3945 0.930 . S
C3954 C3953 1.374 . S
C3954 C3955 1.383 . S
C3955 O3949 1.412 . S
C3955 C3954 1.383 . S
C3955 C3956 1.394 . S
C3956 H3946 0.929 . S
C3956 C3952 1.377 . S
C3956 C3955 1.394 . S
H3957 C3964 0.929 . S
H3958 C3967 0.930 . S
H3959 C3969 0.929 . S
H3960 C3961 0.969 . S
C3961 H3960 0.969 . S
C3961 O3962 1.550 . S
C3961 H3963 0.973 . S
O3962 C3961 1.550 . S
O3962 C3968 1.412 . S
H3963 C3961 0.973 . S
C3964 H3957 0.929 . S
C3964 C3965 1.400 . S
C3964 C3966 1.364 . S
C3965 C3964 1.400 . S
C3965 C3969 1.377 . S
C3966 C3964 1.364 . S
C3966 C3967 1.374 . S
C3967 H3958 0.930 . S
C3967 C3966 1.374 . S
C3967 C3968 1.383 . S
C3968 O3962 1.412 . S
C3968 C3967 1.383 . S
C3968 C3969 1.394 . S
C3969 H3959 0.929 . S
C3969 C3965 1.377 . S
C3969 C3968 1.394 . S
H3970 C3977 0.929 . S
H3971 C3980 0.930 . S
H3972 C3982 0.929 . S
H3973 C3974 0.969 . S
C3974 H3973 0.969 . S
C3974 O3975 1.550 . S
C3974 H3976 0.973 . S
O3975 C3974 1.550 . S
O3975 C3981 1.412 . S
H3976 C3974 0.973 . S
C3977 H3970 0.929 . S
C3977 C3978 1.400 . S
C3977 C3979 1.364 . S
C3978 C3977 1.400 . S
C3978 C3982 1.377 . S
C3979 C3977 1.364 . S
C3979 C3980 1.374 . S
C3980 H3971 0.930 . S
C3980 C3979 1.374 . S
C3980 C3981 1.383 . S
C3981 O3975 1.412 . S
C3981 C3980 1.383 . S
C3981 C3982 1.394 . S
C3982 H3972 0.929 . S
C3982 C3978 1.377 . S
C3982 C3981 1.394 . S
H3983 C3990 0.929 . S
H3984 C3993 0.930 . S
H3985 C3995 0.929 . S
H3986 C3987 0.969 . S
C3987 H3986 0.969 . S
C3987 O3988 1.550 . S
C3987 H3989 0.973 . S
O3988 C3987 1.550 . S
O3988 C3994 1.412 . S
H3989 C3987 0.973 . S
C3990 H3983 0.929 . S
C3990 C3991 1.400 . S
C3990 C3992 1.364 . S
C3991 C3990 1.400 . S
C3991 C3995 1.377 . S
C3992 C3990 1.364 . S
C3992 C3993 1.374 . S
C3993 H3984 0.930 . S
C3993 C3992 1.374 . S
C3993 C3994 1.383 . S
C3994 O3988 1.412 . S
C3994 C3993 1.383 . S
C3994 C3995 1.394 . S
C3995 H3985 0.929 . S
C3995 C3991 1.377 . S
C3995 C3994 1.394 . S
H3996 C4003 0.929 . S
H3997 C4006 0.930 . S
H3998 C4008 0.929 . S
H3999 C4000 0.969 . S
C4000 H3999 0.969 . S
C4000 O4001 1.550 . S
C4000 H4002 0.973 . S
O4001 C4000 1.550 . S
O4001 C4007 1.412 . S
H4002 C4000 0.973 . S
C4003 H3996 0.929 . S
C4003 C4004 1.400 . S
C4003 C4005 1.364 . S
C4004 C4003 1.400 . S
C4004 C4008 1.377 . S
C4005 C4003 1.364 . S
C4005 C4006 1.374 . S
C4006 H3997 0.930 . S
C4006 C4005 1.374 . S
C4006 C4007 1.383 . S
C4007 O4001 1.412 . S
C4007 C4006 1.383 . S
C4007 C4008 1.394 . S
C4008 H3998 0.929 . S
C4008 C4004 1.377 . S
C4008 C4007 1.394 . S
H4009 C4016 0.929 . S
H4010 C4019 0.930 . S
H4011 C4021 0.929 . S
H4012 C4013 0.969 . S
C4013 H4012 0.969 . S
C4013 O4014 1.550 . S
C4013 H4015 0.973 . S
O4014 C4013 1.550 . S
O4014 C4020 1.412 . S
H4015 C4013 0.973 . S
C4016 H4009 0.929 . S
C4016 C4017 1.400 . S
C4016 C4018 1.364 . S
C4017 C4016 1.400 . S
C4017 C4021 1.377 . S
C4018 C4016 1.364 . S
C4018 C4019 1.374 . S
C4019 H4010 0.930 . S
C4019 C4018 1.374 . S
C4019 C4020 1.383 . S
C4020 O4014 1.412 . S
C4020 C4019 1.383 . S
C4020 C4021 1.394 . S
C4021 H4011 0.929 . S
C4021 C4017 1.377 . S
C4021 C4020 1.394 . S
H4022 C4029 0.929 . S
H4023 C4032 0.930 . S
H4024 C4034 0.929 . S
H4025 C4026 0.969 . S
C4026 H4025 0.969 . S
C4026 O4027 1.550 . S
C4026 H4028 0.973 . S
O4027 C4026 1.550 . S
O4027 C4033 1.412 . S
H4028 C4026 0.973 . S
C4029 H4022 0.929 . S
C4029 C4030 1.400 . S
C4029 C4031 1.364 . S
C4030 C4029 1.400 . S
C4030 C4034 1.377 . S
C4031 C4029 1.364 . S
C4031 C4032 1.374 . S
C4032 H4023 0.930 . S
C4032 C4031 1.374 . S
C4032 C4033 1.383 . S
C4033 O4027 1.412 . S
C4033 C4032 1.383 . S
C4033 C4034 1.394 . S
C4034 H4024 0.929 . S
C4034 C4030 1.377 . S
C4034 C4033 1.394 . S
H4035 C4042 0.929 . S
H4036 C4045 0.930 . S
H4037 C4047 0.929 . S
H4038 C4039 0.969 . S
C4039 H4038 0.969 . S
C4039 O4040 1.550 . S
C4039 H4041 0.973 . S
O4040 C4039 1.550 . S
O4040 C4046 1.412 . S
H4041 C4039 0.973 . S
C4042 H4035 0.929 . S
C4042 C4043 1.400 . S
C4042 C4044 1.364 . S
C4043 C4042 1.400 . S
C4043 C4047 1.377 . S
C4044 C4042 1.364 . S
C4044 C4045 1.374 . S
C4045 H4036 0.930 . S
C4045 C4044 1.374 . S
C4045 C4046 1.383 . S
C4046 O4040 1.412 . S
C4046 C4045 1.383 . S
C4046 C4047 1.394 . S
C4047 H4037 0.929 . S
C4047 C4043 1.377 . S
C4047 C4046 1.394 . S
H4048 C4055 0.929 . S
H4049 C4058 0.930 . S
H4050 C4060 0.929 . S
H4051 C4052 0.969 . S
C4052 H4051 0.969 . S
C4052 O4053 1.550 . S
C4052 H4054 0.973 . S
O4053 C4052 1.550 . S
O4053 C4059 1.412 . S
H4054 C4052 0.973 . S
C4055 H4048 0.929 . S
C4055 C4056 1.400 . S
C4055 C4057 1.364 . S
C4056 C4055 1.400 . S
C4056 C4060 1.377 . S
C4057 C4055 1.364 . S
C4057 C4058 1.374 . S
C4058 H4049 0.930 . S
C4058 C4057 1.374 . S
C4058 C4059 1.383 . S
C4059 O4053 1.412 . S
C4059 C4058 1.383 . S
C4059 C4060 1.394 . S
C4060 H4050 0.929 . S
C4060 C4056 1.377 . S
C4060 C4059 1.394 . S
H4061 C4068 0.929 . S
H4062 C4071 0.930 . S
H4063 C4073 0.929 . S
H4064 C4065 0.969 . S
C4065 H4064 0.969 . S
C4065 O4066 1.550 . S
C4065 H4067 0.973 . S
O4066 C4065 1.550 . S
O4066 C4072 1.412 . S
H4067 C4065 0.973 . S
C4068 H4061 0.929 . S
C4068 C4069 1.400 . S
C4068 C4070 1.364 . S
C4069 C4068 1.400 . S
C4069 C4073 1.377 . S
C4070 C4068 1.364 . S
C4070 C4071 1.374 . S
C4071 H4062 0.930 . S
C4071 C4070 1.374 . S
C4071 C4072 1.383 . S
C4072 O4066 1.412 . S
C4072 C4071 1.383 . S
C4072 C4073 1.394 . S
C4073 H4063 0.929 . S
C4073 C4069 1.377 . S
C4073 C4072 1.394 . S
H4074 C4081 0.929 . S
H4075 C4084 0.930 . S
H4076 C4086 0.929 . S
H4077 C4078 0.969 . S
C4078 H4077 0.969 . S
C4078 O4079 1.550 . S
C4078 H4080 0.973 . S
O4079 C4078 1.550 . S
O4079 C4085 1.412 . S
H4080 C4078 0.973 . S
C4081 H4074 0.929 . S
C4081 C4082 1.400 . S
C4081 C4083 1.364 . S
C4082 C4081 1.400 . S
C4082 C4086 1.377 . S
C4083 C4081 1.364 . S
C4083 C4084 1.374 . S
C4084 H4075 0.930 . S
C4084 C4083 1.374 . S
C4084 C4085 1.383 . S
C4085 O4079 1.412 . S
C4085 C4084 1.383 . S
C4085 C4086 1.394 . S
C4086 H4076 0.929 . S
C4086 C4082 1.377 . S
C4086 C4085 1.394 . S
H4087 C4094 0.929 . S
H4088 C4097 0.930 . S
H4089 C4099 0.929 . S
H4090 C4091 0.969 . S
C4091 H4090 0.969 . S
C4091 O4092 1.550 . S
C4091 H4093 0.973 . S
O4092 C4091 1.550 . S
O4092 C4098 1.412 . S
H4093 C4091 0.973 . S
C4094 H4087 0.929 . S
C4094 C4095 1.400 . S
C4094 C4096 1.364 . S
C4095 C4094 1.400 . S
C4095 C4099 1.377 . S
C4096 C4094 1.364 . S
C4096 C4097 1.374 . S
C4097 H4088 0.930 . S
C4097 C4096 1.374 . S
C4097 C4098 1.383 . S
C4098 O4092 1.412 . S
C4098 C4097 1.383 . S
C4098 C4099 1.394 . S
C4099 H4089 0.929 . S
C4099 C4095 1.377 . S
C4099 C4098 1.394 . S
H4100 C4107 0.929 . S
H4101 C4110 0.930 . S
H4102 C4112 0.929 . S
H4103 C4104 0.969 . S
C4104 H4103 0.969 . S
C4104 O4105 1.550 . S
C4104 H4106 0.973 . S
O4105 C4104 1.550 . S
O4105 C4111 1.412 . S
H4106 C4104 0.973 . S
C4107 H4100 0.929 . S
C4107 C4108 1.400 . S
C4107 C4109 1.364 . S
C4108 C4107 1.400 . S
C4108 C4112 1.377 . S
C4109 C4107 1.364 . S
C4109 C4110 1.374 . S
C4110 H4101 0.930 . S
C4110 C4109 1.374 . S
C4110 C4111 1.383 . S
C4111 O4105 1.412 . S
C4111 C4110 1.383 . S
C4111 C4112 1.394 . S
C4112 H4102 0.929 . S
C4112 C4108 1.377 . S
C4112 C4111 1.394 . S
H4113 C4120 0.929 . S
H4114 C4123 0.930 . S
H4115 C4125 0.929 . S
H4116 C4117 0.969 . S
C4117 H4116 0.969 . S
C4117 O4118 1.550 . S
C4117 H4119 0.973 . S
O4118 C4117 1.550 . S
O4118 C4124 1.412 . S
H4119 C4117 0.973 . S
C4120 H4113 0.929 . S
C4120 C4121 1.400 . S
C4120 C4122 1.364 . S
C4121 C4120 1.400 . S
C4121 C4125 1.377 . S
C4122 C4120 1.364 . S
C4122 C4123 1.374 . S
C4123 H4114 0.930 . S
C4123 C4122 1.374 . S
C4123 C4124 1.383 . S
C4124 O4118 1.412 . S
C4124 C4123 1.383 . S
C4124 C4125 1.394 . S
C4125 H4115 0.929 . S
C4125 C4121 1.377 . S
C4125 C4124 1.394 . S
H4126 C4133 0.929 . S
H4127 C4136 0.930 . S
H4128 C4138 0.929 . S
H4129 C4130 0.969 . S
C4130 H4129 0.969 . S
C4130 O4131 1.550 . S
C4130 H4132 0.973 . S
O4131 C4130 1.550 . S
O4131 C4137 1.412 . S
H4132 C4130 0.973 . S
C4133 H4126 0.929 . S
C4133 C4134 1.400 . S
C4133 C4135 1.364 . S
C4134 C4133 1.400 . S
C4134 C4138 1.377 . S
C4135 C4133 1.364 . S
C4135 C4136 1.374 . S
C4136 H4127 0.930 . S
C4136 C4135 1.374 . S
C4136 C4137 1.383 . S
C4137 O4131 1.412 . S
C4137 C4136 1.383 . S
C4137 C4138 1.394 . S
C4138 H4128 0.929 . S
C4138 C4134 1.377 . S
C4138 C4137 1.394 . S
H4139 C4146 0.929 . S
H4140 C4149 0.930 . S
H4141 C4151 0.929 . S
H4142 C4143 0.969 . S
C4143 H4142 0.969 . S
C4143 O4144 1.550 . S
C4143 H4145 0.973 . S
O4144 C4143 1.550 . S
O4144 C4150 1.412 . S
H4145 C4143 0.973 . S
C4146 H4139 0.929 . S
C4146 C4147 1.400 . S
C4146 C4148 1.364 . S
C4147 C4146 1.400 . S
C4147 C4151 1.377 . S
C4148 C4146 1.364 . S
C4148 C4149 1.374 . S
C4149 H4140 0.930 . S
C4149 C4148 1.374 . S
C4149 C4150 1.383 . S
C4150 O4144 1.412 . S
C4150 C4149 1.383 . S
C4150 C4151 1.394 . S
C4151 H4141 0.929 . S
C4151 C4147 1.377 . S
C4151 C4150 1.394 . S
H4152 C4159 0.929 . S
H4153 C4162 0.930 . S
H4154 C4164 0.929 . S
H4155 C4156 0.969 . S
C4156 H4155 0.969 . S
C4156 O4157 1.550 . S
C4156 H4158 0.973 . S
O4157 C4156 1.550 . S
O4157 C4163 1.412 . S
H4158 C4156 0.973 . S
C4159 H4152 0.929 . S
C4159 C4160 1.400 . S
C4159 C4161 1.364 . S
C4160 C4159 1.400 . S
C4160 C4164 1.377 . S
C4161 C4159 1.364 . S
C4161 C4162 1.374 . S
C4162 H4153 0.930 . S
C4162 C4161 1.374 . S
C4162 C4163 1.383 . S
C4163 O4157 1.412 . S
C4163 C4162 1.383 . S
C4163 C4164 1.394 . S
C4164 H4154 0.929 . S
C4164 C4160 1.377 . S
C4164 C4163 1.394 . S
H4165 C4172 0.929 . S
H4166 C4175 0.930 . S
H4167 C4177 0.929 . S
H4168 C4169 0.969 . S
C4169 H4168 0.969 . S
C4169 O4170 1.550 . S
C4169 H4171 0.973 . S
O4170 C4169 1.550 . S
O4170 C4176 1.412 . S
H4171 C4169 0.973 . S
C4172 H4165 0.929 . S
C4172 C4173 1.400 . S
C4172 C4174 1.364 . S
C4173 C4172 1.400 . S
C4173 C4177 1.377 . S
C4174 C4172 1.364 . S
C4174 C4175 1.374 . S
C4175 H4166 0.930 . S
C4175 C4174 1.374 . S
C4175 C4176 1.383 . S
C4176 O4170 1.412 . S
C4176 C4175 1.383 . S
C4176 C4177 1.394 . S
C4177 H4167 0.929 . S
C4177 C4173 1.377 . S
C4177 C4176 1.394 . S
H4178 C4185 0.929 . S
H4179 C4188 0.930 . S
H4180 C4190 0.929 . S
H4181 C4182 0.969 . S
C4182 H4181 0.969 . S
C4182 O4183 1.550 . S
C4182 H4184 0.973 . S
O4183 C4182 1.550 . S
O4183 C4189 1.412 . S
H4184 C4182 0.973 . S
C4185 H4178 0.929 . S
C4185 C4186 1.400 . S
C4185 C4187 1.364 . S
C4186 C4185 1.400 . S
C4186 C4190 1.377 . S
C4187 C4185 1.364 . S
C4187 C4188 1.374 . S
C4188 H4179 0.930 . S
C4188 C4187 1.374 . S
C4188 C4189 1.383 . S
C4189 O4183 1.412 . S
C4189 C4188 1.383 . S
C4189 C4190 1.394 . S
C4190 H4180 0.929 . S
C4190 C4186 1.377 . S
C4190 C4189 1.394 . S
H4191 C4198 0.929 . S
H4192 C4201 0.930 . S
H4193 C4203 0.929 . S
H4194 C4195 0.969 . S
C4195 H4194 0.969 . S
C4195 O4196 1.550 . S
C4195 H4197 0.973 . S
O4196 C4195 1.550 . S
O4196 C4202 1.412 . S
H4197 C4195 0.973 . S
C4198 H4191 0.929 . S
C4198 C4199 1.400 . S
C4198 C4200 1.364 . S
C4199 C4198 1.400 . S
C4199 C4203 1.377 . S
C4200 C4198 1.364 . S
C4200 C4201 1.374 . S
C4201 H4192 0.930 . S
C4201 C4200 1.374 . S
C4201 C4202 1.383 . S
C4202 O4196 1.412 . S
C4202 C4201 1.383 . S
C4202 C4203 1.394 . S
C4203 H4193 0.929 . S
C4203 C4199 1.377 . S
C4203 C4202 1.394 . S
H4204 C4211 0.929 . S
H4205 C4214 0.930 . S
H4206 C4216 0.929 . S
H4207 C4208 0.969 . S
C4208 H4207 0.969 . S
C4208 O4209 1.550 . S
C4208 H4210 0.973 . S
O4209 C4208 1.550 . S
O4209 C4215 1.412 . S
H4210 C4208 0.973 . S
C4211 H4204 0.929 . S
C4211 C4212 1.400 . S
C4211 C4213 1.364 . S
C4212 C4211 1.400 . S
C4212 C4216 1.377 . S
C4213 C4211 1.364 . S
C4213 C4214 1.374 . S
C4214 H4205 0.930 . S
C4214 C4213 1.374 . S
C4214 C4215 1.383 . S
C4215 O4209 1.412 . S
C4215 C4214 1.383 . S
C4215 C4216 1.394 . S
C4216 H4206 0.929 . S
C4216 C4212 1.377 . S
C4216 C4215 1.394 . S
H4217 C4224 0.929 . S
H4218 C4227 0.930 . S
H4219 C4229 0.929 . S
H4220 C4221 0.969 . S
C4221 H4220 0.969 . S
C4221 O4222 1.550 . S
C4221 H4223 0.973 . S
O4222 C4221 1.550 . S
O4222 C4228 1.412 . S
H4223 C4221 0.973 . S
C4224 H4217 0.929 . S
C4224 C4225 1.400 . S
C4224 C4226 1.364 . S
C4225 C4224 1.400 . S
C4225 C4229 1.377 . S
C4226 C4224 1.364 . S
C4226 C4227 1.374 . S
C4227 H4218 0.930 . S
C4227 C4226 1.374 . S
C4227 C4228 1.383 . S
C4228 O4222 1.412 . S
C4228 C4227 1.383 . S
C4228 C4229 1.394 . S
C4229 H4219 0.929 . S
C4229 C4225 1.377 . S
C4229 C4228 1.394 . S
H4230 C4237 0.929 . S
H4231 C4240 0.930 . S
H4232 C4242 0.929 . S
H4233 C4234 0.969 . S
C4234 H4233 0.969 . S
C4234 O4235 1.550 . S
C4234 H4236 0.973 . S
O4235 C4234 1.550 . S
O4235 C4241 1.412 . S
H4236 C4234 0.973 . S
C4237 H4230 0.929 . S
C4237 C4238 1.400 . S
C4237 C4239 1.364 . S
C4238 C4237 1.400 . S
C4238 C4242 1.377 . S
C4239 C4237 1.364 . S
C4239 C4240 1.374 . S
C4240 H4231 0.930 . S
C4240 C4239 1.374 . S
C4240 C4241 1.383 . S
C4241 O4235 1.412 . S
C4241 C4240 1.383 . S
C4241 C4242 1.394 . S
C4242 H4232 0.929 . S
C4242 C4238 1.377 . S
C4242 C4241 1.394 . S
H4243 C4250 0.929 . S
H4244 C4253 0.930 . S
H4245 C4255 0.929 . S
H4246 C4247 0.969 . S
C4247 H4246 0.969 . S
C4247 O4248 1.550 . S
C4247 H4249 0.973 . S
O4248 C4247 1.550 . S
O4248 C4254 1.412 . S
H4249 C4247 0.973 . S
C4250 H4243 0.929 . S
C4250 C4251 1.400 . S
C4250 C4252 1.364 . S
C4251 C4250 1.400 . S
C4251 C4255 1.377 . S
C4252 C4250 1.364 . S
C4252 C4253 1.374 . S
C4253 H4244 0.930 . S
C4253 C4252 1.374 . S
C4253 C4254 1.383 . S
C4254 O4248 1.412 . S
C4254 C4253 1.383 . S
C4254 C4255 1.394 . S
C4255 H4245 0.929 . S
C4255 C4251 1.377 . S
C4255 C4254 1.394 . S
H4256 C4263 0.929 . S
H4257 C4266 0.930 . S
H4258 C4268 0.929 . S
H4259 C4260 0.969 . S
C4260 H4259 0.969 . S
C4260 O4261 1.550 . S
C4260 H4262 0.973 . S
O4261 C4260 1.550 . S
O4261 C4267 1.412 . S
H4262 C4260 0.973 . S
C4263 H4256 0.929 . S
C4263 C4264 1.400 . S
C4263 C4265 1.364 . S
C4264 C4263 1.400 . S
C4264 C4268 1.377 . S
C4265 C4263 1.364 . S
C4265 C4266 1.374 . S
C4266 H4257 0.930 . S
C4266 C4265 1.374 . S
C4266 C4267 1.383 . S
C4267 O4261 1.412 . S
C4267 C4266 1.383 . S
C4267 C4268 1.394 . S
C4268 H4258 0.929 . S
C4268 C4264 1.377 . S
C4268 C4267 1.394 . S
H4269 C4276 0.929 . S
H4270 C4279 0.930 . S
H4271 C4281 0.929 . S
H4272 C4273 0.969 . S
C4273 H4272 0.969 . S
C4273 O4274 1.550 . S
C4273 H4275 0.973 . S
O4274 C4273 1.550 . S
O4274 C4280 1.412 . S
H4275 C4273 0.973 . S
C4276 H4269 0.929 . S
C4276 C4277 1.400 . S
C4276 C4278 1.364 . S
C4277 C4276 1.400 . S
C4277 C4281 1.377 . S
C4278 C4276 1.364 . S
C4278 C4279 1.374 . S
C4279 H4270 0.930 . S
C4279 C4278 1.374 . S
C4279 C4280 1.383 . S
C4280 O4274 1.412 . S
C4280 C4279 1.383 . S
C4280 C4281 1.394 . S
C4281 H4271 0.929 . S
C4281 C4277 1.377 . S
C4281 C4280 1.394 . S
H4282 C4289 0.929 . S
H4283 C4292 0.930 . S
H4284 C4294 0.929 . S
H4285 C4286 0.969 . S
C4286 H4285 0.969 . S
C4286 O4287 1.550 . S
C4286 H4288 0.973 . S
O4287 C4286 1.550 . S
O4287 C4293 1.412 . S
H4288 C4286 0.973 . S
C4289 H4282 0.929 . S
C4289 C4290 1.400 . S
C4289 C4291 1.364 . S
C4290 C4289 1.400 . S
C4290 C4294 1.377 . S
C4291 C4289 1.364 . S
C4291 C4292 1.374 . S
C4292 H4283 0.930 . S
C4292 C4291 1.374 . S
C4292 C4293 1.383 . S
C4293 O4287 1.412 . S
C4293 C4292 1.383 . S
C4293 C4294 1.394 . S
C4294 H4284 0.929 . S
C4294 C4290 1.377 . S
C4294 C4293 1.394 . S
H4295 C4302 0.929 . S
H4296 C4305 0.930 . S
H4297 C4307 0.929 . S
H4298 C4299 0.969 . S
C4299 H4298 0.969 . S
C4299 O4300 1.550 . S
C4299 H4301 0.973 . S
O4300 C4299 1.550 . S
O4300 C4306 1.412 . S
H4301 C4299 0.973 . S
C4302 H4295 0.929 . S
C4302 C4303 1.400 . S
C4302 C4304 1.364 . S
C4303 C4302 1.400 . S
C4303 C4307 1.377 . S
C4304 C4302 1.364 . S
C4304 C4305 1.374 . S
C4305 H4296 0.930 . S
C4305 C4304 1.374 . S
C4305 C4306 1.383 . S
C4306 O4300 1.412 . S
C4306 C4305 1.383 . S
C4306 C4307 1.394 . S
C4307 H4297 0.929 . S
C4307 C4303 1.377 . S
C4307 C4306 1.394 . S
H4308 C4315 0.929 . S
H4309 C4318 0.930 . S
H4310 C4320 0.929 . S
H4311 C4312 0.969 . S
C4312 H4311 0.969 . S
C4312 O4313 1.550 . S
C4312 H4314 0.973 . S
O4313 C4312 1.550 . S
O4313 C4319 1.412 . S
H4314 C4312 0.973 . S
C4315 H4308 0.929 . S
C4315 C4316 1.400 . S
C4315 C4317 1.364 . S
C4316 C4315 1.400 . S
C4316 C4320 1.377 . S
C4317 C4315 1.364 . S
C4317 C4318 1.374 . S
C4318 H4309 0.930 . S
C4318 C4317 1.374 . S
C4318 C4319 1.383 . S
C4319 O4313 1.412 . S
C4319 C4318 1.383 . S
C4319 C4320 1.394 . S
C4320 H4310 0.929 . S
C4320 C4316 1.377 . S
C4320 C4319 1.394 . S
H4321 C4328 0.929 . S
H4322 C4331 0.930 . S
H4323 C4333 0.929 . S
H4324 C4325 0.969 . S
C4325 H4324 0.969 . S
C4325 O4326 1.550 . S
C4325 H4327 0.973 . S
O4326 C4325 1.550 . S
O4326 C4332 1.412 . S
H4327 C4325 0.973 . S
C4328 H4321 0.929 . S
C4328 C4329 1.400 . S
C4328 C4330 1.364 . S
C4329 C4328 1.400 . S
C4329 C4333 1.377 . S
C4330 C4328 1.364 . S
C4330 C4331 1.374 . S
C4331 H4322 0.930 . S
C4331 C4330 1.374 . S
C4331 C4332 1.383 . S
C4332 O4326 1.412 . S
C4332 C4331 1.383 . S
C4332 C4333 1.394 . S
C4333 H4323 0.929 . S
C4333 C4329 1.377 . S
C4333 C4332 1.394 . S
H4334 C4341 0.929 . S
H4335 C4344 0.930 . S
H4336 C4346 0.929 . S
H4337 C4338 0.969 . S
C4338 H4337 0.969 . S
C4338 O4339 1.550 . S
C4338 H4340 0.973 . S
O4339 C4338 1.550 . S
O4339 C4345 1.412 . S
H4340 C4338 0.973 . S
C4341 H4334 0.929 . S
C4341 C4342 1.400 . S
C4341 C4343 1.364 . S
C4342 C4341 1.400 . S
C4342 C4346 1.377 . S
C4343 C4341 1.364 . S
C4343 C4344 1.374 . S
C4344 H4335 0.930 . S
C4344 C4343 1.374 . S
C4344 C4345 1.383 . S
C4345 O4339 1.412 . S
C4345 C4344 1.383 . S
C4345 C4346 1.394 . S
C4346 H4336 0.929 . S
C4346 C4342 1.377 . S
C4346 C4345 1.394 . S
H4347 C4354 0.929 . S
H4348 C4357 0.930 . S
H4349 C4359 0.929 . S
H4350 C4351 0.969 . S
C4351 H4350 0.969 . S
C4351 O4352 1.550 . S
C4351 H4353 0.973 . S
O4352 C4351 1.550 . S
O4352 C4358 1.412 . S
H4353 C4351 0.973 . S
C4354 H4347 0.929 . S
C4354 C4355 1.400 . S
C4354 C4356 1.364 . S
C4355 C4354 1.400 . S
C4355 C4359 1.377 . S
C4356 C4354 1.364 . S
C4356 C4357 1.374 . S
C4357 H4348 0.930 . S
C4357 C4356 1.374 . S
C4357 C4358 1.383 . S
C4358 O4352 1.412 . S
C4358 C4357 1.383 . S
C4358 C4359 1.394 . S
C4359 H4349 0.929 . S
C4359 C4355 1.377 . S
C4359 C4358 1.394 . S
H4360 C4367 0.929 . S
H4361 C4370 0.930 . S
H4362 C4372 0.929 . S
H4363 C4364 0.969 . S
C4364 H4363 0.969 . S
C4364 O4365 1.550 . S
C4364 H4366 0.973 . S
O4365 C4364 1.550 . S
O4365 C4371 1.412 . S
H4366 C4364 0.973 . S
C4367 H4360 0.929 . S
C4367 C4368 1.400 . S
C4367 C4369 1.364 . S
C4368 C4367 1.400 . S
C4368 C4372 1.377 . S
C4369 C4367 1.364 . S
C4369 C4370 1.374 . S
C4370 H4361 0.930 . S
C4370 C4369 1.374 . S
C4370 C4371 1.383 . S
C4371 O4365 1.412 . S
C4371 C4370 1.383 . S
C4371 C4372 1.394 . S
C4372 H4362 0.929 . S
C4372 C4368 1.377 . S
C4372 C4371 1.394 . S
H4373 C4380 0.929 . S
H4374 C4383 0.930 . S
H4375 C4385 0.929 . S
H4376 C4377 0.969 . S
C4377 H4376 0.969 . S
C4377 O4378 1.550 . S
C4377 H4379 0.973 . S
O4378 C4377 1.550 . S
O4378 C4384 1.412 . S
H4379 C4377 0.973 . S
C4380 H4373 0.929 . S
C4380 C4381 1.400 . S
C4380 C4382 1.364 . S
C4381 C4380 1.400 . S
C4381 C4385 1.377 . S
C4382 C4380 1.364 . S
C4382 C4383 1.374 . S
C4383 H4374 0.930 . S
C4383 C4382 1.374 . S
C4383 C4384 1.383 . S
C4384 O4378 1.412 . S
C4384 C4383 1.383 . S
C4384 C4385 1.394 . S
C4385 H4375 0.929 . S
C4385 C4381 1.377 . S
C4385 C4384 1.394 . S
H4386 C4393 0.929 . S
H4387 C4396 0.930 . S
H4388 C4398 0.929 . S
H4389 C4390 0.969 . S
C4390 H4389 0.969 . S
C4390 O4391 1.550 . S
C4390 H4392 0.973 . S
O4391 C4390 1.550 . S
O4391 C4397 1.412 . S
H4392 C4390 0.973 . S
C4393 H4386 0.929 . S
C4393 C4394 1.400 . S
C4393 C4395 1.364 . S
C4394 C4393 1.400 . S
C4394 C4398 1.377 . S
C4395 C4393 1.364 . S
C4395 C4396 1.374 . S
C4396 H4387 0.930 . S
C4396 C4395 1.374 . S
C4396 C4397 1.383 . S
C4397 O4391 1.412 . S
C4397 C4396 1.383 . S
C4397 C4398 1.394 . S
C4398 H4388 0.929 . S
C4398 C4394 1.377 . S
C4398 C4397 1.394 . S
H4399 C4406 0.929 . S
H4400 C4409 0.930 . S
H4401 C4411 0.929 . S
H4402 C4403 0.969 . S
C4403 H4402 0.969 . S
C4403 O4404 1.550 . S
C4403 H4405 0.973 . S
O4404 C4403 1.550 . S
O4404 C4410 1.412 . S
H4405 C4403 0.973 . S
C4406 H4399 0.929 . S
C4406 C4407 1.400 . S
C4406 C4408 1.364 . S
C4407 C4406 1.400 . S
C4407 C4411 1.377 . S
C4408 C4406 1.364 . S
C4408 C4409 1.374 . S
C4409 H4400 0.930 . S
C4409 C4408 1.374 . S
C4409 C4410 1.383 . S
C4410 O4404 1.412 . S
C4410 C4409 1.383 . S
C4410 C4411 1.394 . S
C4411 H4401 0.929 . S
C4411 C4407 1.377 . S
C4411 C4410 1.394 . S
H4412 C4419 0.929 . S
H4413 C4422 0.930 . S
H4414 C4424 0.929 . S
H4415 C4416 0.969 . S
C4416 H4415 0.969 . S
C4416 O4417 1.550 . S
C4416 H4418 0.973 . S
O4417 C4416 1.550 . S
O4417 C4423 1.412 . S
H4418 C4416 0.973 . S
C4419 H4412 0.929 . S
C4419 C4420 1.400 . S
C4419 C4421 1.364 . S
C4420 C4419 1.400 . S
C4420 C4424 1.377 . S
C4421 C4419 1.364 . S
C4421 C4422 1.374 . S
C4422 H4413 0.930 . S
C4422 C4421 1.374 . S
C4422 C4423 1.383 . S
C4423 O4417 1.412 . S
C4423 C4422 1.383 . S
C4423 C4424 1.394 . S
C4424 H4414 0.929 . S
C4424 C4420 1.377 . S
C4424 C4423 1.394 . S
H4425 C4432 0.929 . S
H4426 C4435 0.930 . S
H4427 C4437 0.929 . S
H4428 C4429 0.969 . S
C4429 H4428 0.969 . S
C4429 O4430 1.550 . S
C4429 H4431 0.973 . S
O4430 C4429 1.550 . S
O4430 C4436 1.412 . S
H4431 C4429 0.973 . S
C4432 H4425 0.929 . S
C4432 C4433 1.400 . S
C4432 C4434 1.364 . S
C4433 C4432 1.400 . S
C4433 C4437 1.377 . S
C4434 C4432 1.364 . S
C4434 C4435 1.374 . S
C4435 H4426 0.930 . S
C4435 C4434 1.374 . S
C4435 C4436 1.383 . S
C4436 O4430 1.412 . S
C4436 C4435 1.383 . S
C4436 C4437 1.394 . S
C4437 H4427 0.929 . S
C4437 C4433 1.377 . S
C4437 C4436 1.394 . S
H4438 C4445 0.929 . S
H4439 C4448 0.930 . S
H4440 C4450 0.929 . S
H4441 C4442 0.969 . S
C4442 H4441 0.969 . S
C4442 O4443 1.550 . S
C4442 H4444 0.973 . S
O4443 C4442 1.550 . S
O4443 C4449 1.412 . S
H4444 C4442 0.973 . S
C4445 H4438 0.929 . S
C4445 C4446 1.400 . S
C4445 C4447 1.364 . S
C4446 C4445 1.400 . S
C4446 C4450 1.377 . S
C4447 C4445 1.364 . S
C4447 C4448 1.374 . S
C4448 H4439 0.930 . S
C4448 C4447 1.374 . S
C4448 C4449 1.383 . S
C4449 O4443 1.412 . S
C4449 C4448 1.383 . S
C4449 C4450 1.394 . S
C4450 H4440 0.929 . S
C4450 C4446 1.377 . S
C4450 C4449 1.394 . S
H4451 C4458 0.929 . S
H4452 C4461 0.930 . S
H4453 C4463 0.929 . S
H4454 C4455 0.969 . S
C4455 H4454 0.969 . S
C4455 O4456 1.550 . S
C4455 H4457 0.973 . S
O4456 C4455 1.550 . S
O4456 C4462 1.412 . S
H4457 C4455 0.973 . S
C4458 H4451 0.929 . S
C4458 C4459 1.400 . S
C4458 C4460 1.364 . S
C4459 C4458 1.400 . S
C4459 C4463 1.377 . S
C4460 C4458 1.364 . S
C4460 C4461 1.374 . S
C4461 H4452 0.930 . S
C4461 C4460 1.374 . S
C4461 C4462 1.383 . S
C4462 O4456 1.412 . S
C4462 C4461 1.383 . S
C4462 C4463 1.394 . S
C4463 H4453 0.929 . S
C4463 C4459 1.377 . S
C4463 C4462 1.394 . S
H4464 C4471 0.929 . S
H4465 C4474 0.930 . S
H4466 C4476 0.929 . S
H4467 C4468 0.969 . S
C4468 H4467 0.969 . S
C4468 O4469 1.550 . S
C4468 H4470 0.973 . S
O4469 C4468 1.550 . S
O4469 C4475 1.412 . S
H4470 C4468 0.973 . S
C4471 H4464 0.929 . S
C4471 C4472 1.400 . S
C4471 C4473 1.364 . S
C4472 C4471 1.400 . S
C4472 C4476 1.377 . S
C4473 C4471 1.364 . S
C4473 C4474 1.374 . S
C4474 H4465 0.930 . S
C4474 C4473 1.374 . S
C4474 C4475 1.383 . S
C4475 O4469 1.412 . S
C4475 C4474 1.383 . S
C4475 C4476 1.394 . S
C4476 H4466 0.929 . S
C4476 C4472 1.377 . S
C4476 C4475 1.394 . S
H4477 C4484 0.929 . S
H4478 C4487 0.930 . S
H4479 C4489 0.929 . S
H4480 C4481 0.969 . S
C4481 H4480 0.969 . S
C4481 O4482 1.550 . S
C4481 H4483 0.973 . S
O4482 C4481 1.550 . S
O4482 C4488 1.412 . S
H4483 C4481 0.973 . S
C4484 H4477 0.929 . S
C4484 C4485 1.400 . S
C4484 C4486 1.364 . S
C4485 C4484 1.400 . S
C4485 C4489 1.377 . S
C4486 C4484 1.364 . S
C4486 C4487 1.374 . S
C4487 H4478 0.930 . S
C4487 C4486 1.374 . S
C4487 C4488 1.383 . S
C4488 O4482 1.412 . S
C4488 C4487 1.383 . S
C4488 C4489 1.394 . S
C4489 H4479 0.929 . S
C4489 C4485 1.377 . S
C4489 C4488 1.394 . S
H4490 C4497 0.929 . S
H4491 C4500 0.930 . S
H4492 C4502 0.929 . S
H4493 C4494 0.969 . S
C4494 H4493 0.969 . S
C4494 O4495 1.550 . S
C4494 H4496 0.973 . S
O4495 C4494 1.550 . S
O4495 C4501 1.412 . S
H4496 C4494 0.973 . S
C4497 H4490 0.929 . S
C4497 C4498 1.400 . S
C4497 C4499 1.364 . S
C4498 C4497 1.400 . S
C4498 C4502 1.377 . S
C4499 C4497 1.364 . S
C4499 C4500 1.374 . S
C4500 H4491 0.930 . S
C4500 C4499 1.374 . S
C4500 C4501 1.383 . S
C4501 O4495 1.412 . S
C4501 C4500 1.383 . S
C4501 C4502 1.394 . S
C4502 H4492 0.929 . S
C4502 C4498 1.377 . S
C4502 C4501 1.394 . S
H4503 C4510 0.929 . S
H4504 C4513 0.930 . S
H4505 C4515 0.929 . S
H4506 C4507 0.969 . S
C4507 H4506 0.969 . S
C4507 O4508 1.550 . S
C4507 H4509 0.973 . S
O4508 C4507 1.550 . S
O4508 C4514 1.412 . S
H4509 C4507 0.973 . S
C4510 H4503 0.929 . S
C4510 C4511 1.400 . S
C4510 C4512 1.364 . S
C4511 C4510 1.400 . S
C4511 C4515 1.377 . S
C4512 C4510 1.364 . S
C4512 C4513 1.374 . S
C4513 H4504 0.930 . S
C4513 C4512 1.374 . S
C4513 C4514 1.383 . S
C4514 O4508 1.412 . S
C4514 C4513 1.383 . S
C4514 C4515 1.394 . S
C4515 H4505 0.929 . S
C4515 C4511 1.377 . S
C4515 C4514 1.394 . S
H4516 C4523 0.929 . S
H4517 C4526 0.930 . S
H4518 C4528 0.929 . S
H4519 C4520 0.969 . S
C4520 H4519 0.969 . S
C4520 O4521 1.550 . S
C4520 H4522 0.973 . S
O4521 C4520 1.550 . S
O4521 C4527 1.412 . S
H4522 C4520 0.973 . S
C4523 H4516 0.929 . S
C4523 C4524 1.400 . S
C4523 C4525 1.364 . S
C4524 C4523 1.400 . S
C4524 C4528 1.377 . S
C4525 C4523 1.364 . S
C4525 C4526 1.374 . S
C4526 H4517 0.930 . S
C4526 C4525 1.374 . S
C4526 C4527 1.383 . S
C4527 O4521 1.412 . S
C4527 C4526 1.383 . S
C4527 C4528 1.394 . S
C4528 H4518 0.929 . S
C4528 C4524 1.377 . S
C4528 C4527 1.394 . S
H4529 C4536 0.929 . S
H4530 C4539 0.930 . S
H4531 C4541 0.929 . S
H4532 C4533 0.969 . S
C4533 H4532 0.969 . S
C4533 O4534 1.550 . S
C4533 H4535 0.973 . S
O4534 C4533 1.550 . S
O4534 C4540 1.412 . S
H4535 C4533 0.973 . S
C4536 H4529 0.929 . S
C4536 C4537 1.400 . S
C4536 C4538 1.364 . S
C4537 C4536 1.400 . S
C4537 C4541 1.377 . S
C4538 C4536 1.364 . S
C4538 C4539 1.374 . S
C4539 H4530 0.930 . S
C4539 C4538 1.374 . S
C4539 C4540 1.383 . S
C4540 O4534 1.412 . S
C4540 C4539 1.383 . S
C4540 C4541 1.394 . S
C4541 H4531 0.929 . S
C4541 C4537 1.377 . S
C4541 C4540 1.394 . S
H4542 C4549 0.929 . S
H4543 C4552 0.930 . S
H4544 C4554 0.929 . S
H4545 C4546 0.969 . S
C4546 H4545 0.969 . S
C4546 O4547 1.550 . S
C4546 H4548 0.973 . S
O4547 C4546 1.550 . S
O4547 C4553 1.412 . S
H4548 C4546 0.973 . S
C4549 H4542 0.929 . S
C4549 C4550 1.400 . S
C4549 C4551 1.364 . S
C4550 C4549 1.400 . S
C4550 C4554 1.377 . S
C4551 C4549 1.364 . S
C4551 C4552 1.374 . S
C4552 H4543 0.930 . S
C4552 C4551 1.374 . S
C4552 C4553 1.383 . S
C4553 O4547 1.412 . S
C4553 C4552 1.383 . S
C4553 C4554 1.394 . S
C4554 H4544 0.929 . S
C4554 C4550 1.377 . S
C4554 C4553 1.394 . S
H4555 C4562 0.929 . S
H4556 C4565 0.930 . S
H4557 C4567 0.929 . S
H4558 C4559 0.969 . S
C4559 H4558 0.969 . S
C4559 O4560 1.550 . S
C4559 H4561 0.973 . S
O4560 C4559 1.550 . S
O4560 C4566 1.412 . S
H4561 C4559 0.973 . S
C4562 H4555 0.929 . S
C4562 C4563 1.400 . S
C4562 C4564 1.364 . S
C4563 C4562 1.400 . S
C4563 C4567 1.377 . S
C4564 C4562 1.364 . S
C4564 C4565 1.374 . S
C4565 H4556 0.930 . S
C4565 C4564 1.374 . S
C4565 C4566 1.383 . S
C4566 O4560 1.412 . S
C4566 C4565 1.383 . S
C4566 C4567 1.394 . S
C4567 H4557 0.929 . S
C4567 C4563 1.377 . S
C4567 C4566 1.394 . S
H4568 C4575 0.929 . S
H4569 C4578 0.930 . S
H4570 C4580 0.929 . S
H4571 C4572 0.969 . S
C4572 H4571 0.969 . S
C4572 O4573 1.550 . S
C4572 H4574 0.973 . S
O4573 C4572 1.550 . S
O4573 C4579 1.412 . S
H4574 C4572 0.973 . S
C4575 H4568 0.929 . S
C4575 C4576 1.400 . S
C4575 C4577 1.364 . S
C4576 C4575 1.400 . S
C4576 C4580 1.377 . S
C4577 C4575 1.364 . S
C4577 C4578 1.374 . S
C4578 H4569 0.930 . S
C4578 C4577 1.374 . S
C4578 C4579 1.383 . S
C4579 O4573 1.412 . S
C4579 C4578 1.383 . S
C4579 C4580 1.394 . S
C4580 H4570 0.929 . S
C4580 C4576 1.377 . S
C4580 C4579 1.394 . S
H4581 C4588 0.929 . S
H4582 C4591 0.930 . S
H4583 C4593 0.929 . S
H4584 C4585 0.969 . S
C4585 H4584 0.969 . S
C4585 O4586 1.550 . S
C4585 H4587 0.973 . S
O4586 C4585 1.550 . S
O4586 C4592 1.412 . S
H4587 C4585 0.973 . S
C4588 H4581 0.929 . S
C4588 C4589 1.400 . S
C4588 C4590 1.364 . S
C4589 C4588 1.400 . S
C4589 C4593 1.377 . S
C4590 C4588 1.364 . S
C4590 C4591 1.374 . S
C4591 H4582 0.930 . S
C4591 C4590 1.374 . S
C4591 C4592 1.383 . S
C4592 O4586 1.412 . S
C4592 C4591 1.383 . S
C4592 C4593 1.394 . S
C4593 H4583 0.929 . S
C4593 C4589 1.377 . S
C4593 C4592 1.394 . S
H4594 C4601 0.929 . S
H4595 C4604 0.930 . S
H4596 C4606 0.929 . S
H4597 C4598 0.969 . S
C4598 H4597 0.969 . S
C4598 O4599 1.550 . S
C4598 H4600 0.973 . S
O4599 C4598 1.550 . S
O4599 C4605 1.412 . S
H4600 C4598 0.973 . S
C4601 H4594 0.929 . S
C4601 C4602 1.400 . S
C4601 C4603 1.364 . S
C4602 C4601 1.400 . S
C4602 C4606 1.377 . S
C4603 C4601 1.364 . S
C4603 C4604 1.374 . S
C4604 H4595 0.930 . S
C4604 C4603 1.374 . S
C4604 C4605 1.383 . S
C4605 O4599 1.412 . S
C4605 C4604 1.383 . S
C4605 C4606 1.394 . S
C4606 H4596 0.929 . S
C4606 C4602 1.377 . S
C4606 C4605 1.394 . S
H4607 C4614 0.929 . S
H4608 C4617 0.930 . S
H4609 C4619 0.929 . S
H4610 C4611 0.969 . S
C4611 H4610 0.969 . S
C4611 O4612 1.550 . S
C4611 H4613 0.973 . S
O4612 C4611 1.550 . S
O4612 C4618 1.412 . S
H4613 C4611 0.973 . S
C4614 H4607 0.929 . S
C4614 C4615 1.400 . S
C4614 C4616 1.364 . S
C4615 C4614 1.400 . S
C4615 C4619 1.377 . S
C4616 C4614 1.364 . S
C4616 C4617 1.374 . S
C4617 H4608 0.930 . S
C4617 C4616 1.374 . S
C4617 C4618 1.383 . S
C4618 O4612 1.412 . S
C4618 C4617 1.383 . S
C4618 C4619 1.394 . S
C4619 H4609 0.929 . S
C4619 C4615 1.377 . S
C4619 C4618 1.394 . S
H4620 C4627 0.929 . S
H4621 C4630 0.930 . S
H4622 C4632 0.929 . S
H4623 C4624 0.969 . S
C4624 H4623 0.969 . S
C4624 O4625 1.550 . S
C4624 H4626 0.973 . S
O4625 C4624 1.550 . S
O4625 C4631 1.412 . S
H4626 C4624 0.973 . S
C4627 H4620 0.929 . S
C4627 C4628 1.400 . S
C4627 C4629 1.364 . S
C4628 C4627 1.400 . S
C4628 C4632 1.377 . S
C4629 C4627 1.364 . S
C4629 C4630 1.374 . S
C4630 H4621 0.930 . S
C4630 C4629 1.374 . S
C4630 C4631 1.383 . S
C4631 O4625 1.412 . S
C4631 C4630 1.383 . S
C4631 C4632 1.394 . S
C4632 H4622 0.929 . S
C4632 C4628 1.377 . S
C4632 C4631 1.394 . S
H4633 C4640 0.929 . S
H4634 C4643 0.930 . S
H4635 C4645 0.929 . S
H4636 C4637 0.969 . S
C4637 H4636 0.969 . S
C4637 O4638 1.550 . S
C4637 H4639 0.973 . S
O4638 C4637 1.550 . S
O4638 C4644 1.412 . S
H4639 C4637 0.973 . S
C4640 H4633 0.929 . S
C4640 C4641 1.400 . S
C4640 C4642 1.364 . S
C4641 C4640 1.400 . S
C4641 C4645 1.377 . S
C4642 C4640 1.364 . S
C4642 C4643 1.374 . S
C4643 H4634 0.930 . S
C4643 C4642 1.374 . S
C4643 C4644 1.383 . S
C4644 O4638 1.412 . S
C4644 C4643 1.383 . S
C4644 C4645 1.394 . S
C4645 H4635 0.929 . S
C4645 C4641 1.377 . S
C4645 C4644 1.394 . S
H4646 C4653 0.929 . S
H4647 C4656 0.930 . S
H4648 C4658 0.929 . S
H4649 C4650 0.969 . S
C4650 H4649 0.969 . S
C4650 O4651 1.550 . S
C4650 H4652 0.973 . S
O4651 C4650 1.550 . S
O4651 C4657 1.412 . S
H4652 C4650 0.973 . S
C4653 H4646 0.929 . S
C4653 C4654 1.400 . S
C4653 C4655 1.364 . S
C4654 C4653 1.400 . S
C4654 C4658 1.377 . S
C4655 C4653 1.364 . S
C4655 C4656 1.374 . S
C4656 H4647 0.930 . S
C4656 C4655 1.374 . S
C4656 C4657 1.383 . S
C4657 O4651 1.412 . S
C4657 C4656 1.383 . S
C4657 C4658 1.394 . S
C4658 H4648 0.929 . S
C4658 C4654 1.377 . S
C4658 C4657 1.394 . S
H4659 C4666 0.929 . S
H4660 C4669 0.930 . S
H4661 C4671 0.929 . S
H4662 C4663 0.969 . S
C4663 H4662 0.969 . S
C4663 O4664 1.550 . S
C4663 H4665 0.973 . S
O4664 C4663 1.550 . S
O4664 C4670 1.412 . S
H4665 C4663 0.973 . S
C4666 H4659 0.929 . S
C4666 C4667 1.400 . S
C4666 C4668 1.364 . S
C4667 C4666 1.400 . S
C4667 C4671 1.377 . S
C4668 C4666 1.364 . S
C4668 C4669 1.374 . S
C4669 H4660 0.930 . S
C4669 C4668 1.374 . S
C4669 C4670 1.383 . S
C4670 O4664 1.412 . S
C4670 C4669 1.383 . S
C4670 C4671 1.394 . S
C4671 H4661 0.929 . S
C4671 C4667 1.377 . S
C4671 C4670 1.394 . S
H4672 C4679 0.929 . S
H4673 C4682 0.930 . S
H4674 C4684 0.929 . S
H4675 C4676 0.969 . S
C4676 H4675 0.969 . S
C4676 O4677 1.550 . S
C4676 H4678 0.973 . S
O4677 C4676 1.550 . S
O4677 C4683 1.412 . S
H4678 C4676 0.973 . S
C4679 H4672 0.929 . S
C4679 C4680 1.400 . S
C4679 C4681 1.364 . S
C4680 C4679 1.400 . S
C4680 C4684 1.377 . S
C4681 C4679 1.364 . S
C4681 C4682 1.374 . S
C4682 H4673 0.930 . S
C4682 C4681 1.374 . S
C4682 C4683 1.383 . S
C4683 O4677 1.412 . S
C4683 C4682 1.383 . S
C4683 C4684 1.394 . S
C4684 H4674 0.929 . S
C4684 C4680 1.377 . S
C4684 C4683 1.394 . S
H4685 C4692 0.929 . S
H4686 C4695 0.930 . S
H4687 C4697 0.929 . S
H4688 C4689 0.969 . S
C4689 H4688 0.969 . S
C4689 O4690 1.550 . S
C4689 H4691 0.973 . S
O4690 C4689 1.550 . S
O4690 C4696 1.412 . S
H4691 C4689 0.973 . S
C4692 H4685 0.929 . S
C4692 C4693 1.400 . S
C4692 C4694 1.364 . S
C4693 C4692 1.400 . S
C4693 C4697 1.377 . S
C4694 C4692 1.364 . S
C4694 C4695 1.374 . S
C4695 H4686 0.930 . S
C4695 C4694 1.374 . S
C4695 C4696 1.383 . S
C4696 O4690 1.412 . S
C4696 C4695 1.383 . S
C4696 C4697 1.394 . S
C4697 H4687 0.929 . S
C4697 C4693 1.377 . S
C4697 C4696 1.394 . S
H4698 C4705 0.929 . S
H4699 C4708 0.930 . S
H4700 C4710 0.929 . S
H4701 C4702 0.969 . S
C4702 H4701 0.969 . S
C4702 O4703 1.550 . S
C4702 H4704 0.973 . S
O4703 C4702 1.550 . S
O4703 C4709 1.412 . S
H4704 C4702 0.973 . S
C4705 H4698 0.929 . S
C4705 C4706 1.400 . S
C4705 C4707 1.364 . S
C4706 C4705 1.400 . S
C4706 C4710 1.377 . S
C4707 C4705 1.364 . S
C4707 C4708 1.374 . S
C4708 H4699 0.930 . S
C4708 C4707 1.374 . S
C4708 C4709 1.383 . S
C4709 O4703 1.412 . S
C4709 C4708 1.383 . S
C4709 C4710 1.394 . S
C4710 H4700 0.929 . S
C4710 C4706 1.377 . S
C4710 C4709 1.394 . S
H4711 C4718 0.929 . S
H4712 C4721 0.930 . S
H4713 C4723 0.929 . S
H4714 C4715 0.969 . S
C4715 H4714 0.969 . S
C4715 O4716 1.550 . S
C4715 H4717 0.973 . S
O4716 C4715 1.550 . S
O4716 C4722 1.412 . S
H4717 C4715 0.973 . S
C4718 H4711 0.929 . S
C4718 C4719 1.400 . S
C4718 C4720 1.364 . S
C4719 C4718 1.400 . S
C4719 C4723 1.377 . S
C4720 C4718 1.364 . S
C4720 C4721 1.374 . S
C4721 H4712 0.930 . S
C4721 C4720 1.374 . S
C4721 C4722 1.383 . S
C4722 O4716 1.412 . S
C4722 C4721 1.383 . S
C4722 C4723 1.394 . S
C4723 H4713 0.929 . S
C4723 C4719 1.377 . S
C4723 C4722 1.394 . S
H4724 C4731 0.929 . S
H4725 C4734 0.930 . S
H4726 C4736 0.929 . S
H4727 C4728 0.969 . S
C4728 H4727 0.969 . S
C4728 O4729 1.550 . S
C4728 H4730 0.973 . S
O4729 C4728 1.550 . S
O4729 C4735 1.412 . S
H4730 C4728 0.973 . S
C4731 H4724 0.929 . S
C4731 C4732 1.400 . S
C4731 C4733 1.364 . S
C4732 C4731 1.400 . S
C4732 C4736 1.377 . S
C4733 C4731 1.364 . S
C4733 C4734 1.374 . S
C4734 H4725 0.930 . S
C4734 C4733 1.374 . S
C4734 C4735 1.383 . S
C4735 O4729 1.412 . S
C4735 C4734 1.383 . S
C4735 C4736 1.394 . S
C4736 H4726 0.929 . S
C4736 C4732 1.377 . S
C4736 C4735 1.394 . S
H4737 C4744 0.929 . S
H4738 C4747 0.930 . S
H4739 C4749 0.929 . S
H4740 C4741 0.969 . S
C4741 H4740 0.969 . S
C4741 O4742 1.550 . S
C4741 H4743 0.973 . S
O4742 C4741 1.550 . S
O4742 C4748 1.412 . S
H4743 C4741 0.973 . S
C4744 H4737 0.929 . S
C4744 C4745 1.400 . S
C4744 C4746 1.364 . S
C4745 C4744 1.400 . S
C4745 C4749 1.377 . S
C4746 C4744 1.364 . S
C4746 C4747 1.374 . S
C4747 H4738 0.930 . S
C4747 C4746 1.374 . S
C4747 C4748 1.383 . S
C4748 O4742 1.412 . S
C4748 C4747 1.383 . S
C4748 C4749 1.394 . S
C4749 H4739 0.929 . S
C4749 C4745 1.377 . S
C4749 C4748 1.394 . S
H4750 C4757 0.929 . S
H4751 C4760 0.930 . S
H4752 C4762 0.929 . S
H4753 C4754 0.969 . S
C4754 H4753 0.969 . S
C4754 O4755 1.550 . S
C4754 H4756 0.973 . S
O4755 C4754 1.550 . S
O4755 C4761 1.412 . S
H4756 C4754 0.973 . S
C4757 H4750 0.929 . S
C4757 C4758 1.400 . S
C4757 C4759 1.364 . S
C4758 C4757 1.400 . S
C4758 C4762 1.377 . S
C4759 C4757 1.364 . S
C4759 C4760 1.374 . S
C4760 H4751 0.930 . S
C4760 C4759 1.374 . S
C4760 C4761 1.383 . S
C4761 O4755 1.412 . S
C4761 C4760 1.383 . S
C4761 C4762 1.394 . S
C4762 H4752 0.929 . S
C4762 C4758 1.377 . S
C4762 C4761 1.394 . S
H4763 C4770 0.929 . S
H4764 C4773 0.930 . S
H4765 C4775 0.929 . S
H4766 C4767 0.969 . S
C4767 H4766 0.969 . S
C4767 O4768 1.550 . S
C4767 H4769 0.973 . S
O4768 C4767 1.550 . S
O4768 C4774 1.412 . S
H4769 C4767 0.973 . S
C4770 H4763 0.929 . S
C4770 C4771 1.400 . S
C4770 C4772 1.364 . S
C4771 C4770 1.400 . S
C4771 C4775 1.377 . S
C4772 C4770 1.364 . S
C4772 C4773 1.374 . S
C4773 H4764 0.930 . S
C4773 C4772 1.374 . S
C4773 C4774 1.383 . S
C4774 O4768 1.412 . S
C4774 C4773 1.383 . S
C4774 C4775 1.394 . S
C4775 H4765 0.929 . S
C4775 C4771 1.377 . S
C4775 C4774 1.394 . S
H4776 C4783 0.929 . S
H4777 C4786 0.930 . S
H4778 C4788 0.929 . S
H4779 C4780 0.969 . S
C4780 H4779 0.969 . S
C4780 O4781 1.550 . S
C4780 H4782 0.973 . S
O4781 C4780 1.550 . S
O4781 C4787 1.412 . S
H4782 C4780 0.973 . S
C4783 H4776 0.929 . S
C4783 C4784 1.400 . S
C4783 C4785 1.364 . S
C4784 C4783 1.400 . S
C4784 C4788 1.377 . S
C4785 C4783 1.364 . S
C4785 C4786 1.374 . S
C4786 H4777 0.930 . S
C4786 C4785 1.374 . S
C4786 C4787 1.383 . S
C4787 O4781 1.412 . S
C4787 C4786 1.383 . S
C4787 C4788 1.394 . S
C4788 H4778 0.929 . S
C4788 C4784 1.377 . S
C4788 C4787 1.394 . S
H4789 C4796 0.929 . S
H4790 C4799 0.930 . S
H4791 C4801 0.929 . S
H4792 C4793 0.969 . S
C4793 H4792 0.969 . S
C4793 O4794 1.550 . S
C4793 H4795 0.973 . S
O4794 C4793 1.550 . S
O4794 C4800 1.412 . S
H4795 C4793 0.973 . S
C4796 H4789 0.929 . S
C4796 C4797 1.400 . S
C4796 C4798 1.364 . S
C4797 C4796 1.400 . S
C4797 C4801 1.377 . S
C4798 C4796 1.364 . S
C4798 C4799 1.374 . S
C4799 H4790 0.930 . S
C4799 C4798 1.374 . S
C4799 C4800 1.383 . S
C4800 O4794 1.412 . S
C4800 C4799 1.383 . S
C4800 C4801 1.394 . S
C4801 H4791 0.929 . S
C4801 C4797 1.377 . S
C4801 C4800 1.394 . S
H4802 C4809 0.929 . S
H4803 C4812 0.930 . S
H4804 C4814 0.929 . S
H4805 C4806 0.969 . S
C4806 H4805 0.969 . S
C4806 O4807 1.550 . S
C4806 H4808 0.973 . S
O4807 C4806 1.550 . S
O4807 C4813 1.412 . S
H4808 C4806 0.973 . S
C4809 H4802 0.929 . S
C4809 C4810 1.400 . S
C4809 C4811 1.364 . S
C4810 C4809 1.400 . S
C4810 C4814 1.377 . S
C4811 C4809 1.364 . S
C4811 C4812 1.374 . S
C4812 H4803 0.930 . S
C4812 C4811 1.374 . S
C4812 C4813 1.383 . S
C4813 O4807 1.412 . S
C4813 C4812 1.383 . S
C4813 C4814 1.394 . S
C4814 H4804 0.929 . S
C4814 C4810 1.377 . S
C4814 C4813 1.394 . S
H4815 C4822 0.929 . S
H4816 C4825 0.930 . S
H4817 C4827 0.929 . S
H4818 C4819 0.969 . S
C4819 H4818 0.969 . S
C4819 O4820 1.550 . S
C4819 H4821 0.973 . S
O4820 C4819 1.550 . S
O4820 C4826 1.412 . S
H4821 C4819 0.973 . S
C4822 H4815 0.929 . S
C4822 C4823 1.400 . S
C4822 C4824 1.364 . S
C4823 C4822 1.400 . S
C4823 C4827 1.377 . S
C4824 C4822 1.364 . S
C4824 C4825 1.374 . S
C4825 H4816 0.930 . S
C4825 C4824 1.374 . S
C4825 C4826 1.383 . S
C4826 O4820 1.412 . S
C4826 C4825 1.383 . S
C4826 C4827 1.394 . S
C4827 H4817 0.929 . S
C4827 C4823 1.377 . S
C4827 C4826 1.394 . S
H4828 C4835 0.929 . S
H4829 C4838 0.930 . S
H4830 C4840 0.929 . S
H4831 C4832 0.969 . S
C4832 H4831 0.969 . S
C4832 O4833 1.550 . S
C4832 H4834 0.973 . S
O4833 C4832 1.550 . S
O4833 C4839 1.412 . S
H4834 C4832 0.973 . S
C4835 H4828 0.929 . S
C4835 C4836 1.400 . S
C4835 C4837 1.364 . S
C4836 C4835 1.400 . S
C4836 C4840 1.377 . S
C4837 C4835 1.364 . S
C4837 C4838 1.374 . S
C4838 H4829 0.930 . S
C4838 C4837 1.374 . S
C4838 C4839 1.383 . S
C4839 O4833 1.412 . S
C4839 C4838 1.383 . S
C4839 C4840 1.394 . S
C4840 H4830 0.929 . S
C4840 C4836 1.377 . S
C4840 C4839 1.394 . S
H4841 C4848 0.929 . S
H4842 C4851 0.930 . S
H4843 C4853 0.929 . S
H4844 C4845 0.969 . S
C4845 H4844 0.969 . S
C4845 O4846 1.550 . S
C4845 H4847 0.973 . S
O4846 C4845 1.550 . S
O4846 C4852 1.412 . S
H4847 C4845 0.973 . S
C4848 H4841 0.929 . S
C4848 C4849 1.400 . S
C4848 C4850 1.364 . S
C4849 C4848 1.400 . S
C4849 C4853 1.377 . S
C4850 C4848 1.364 . S
C4850 C4851 1.374 . S
C4851 H4842 0.930 . S
C4851 C4850 1.374 . S
C4851 C4852 1.383 . S
C4852 O4846 1.412 . S
C4852 C4851 1.383 . S
C4852 C4853 1.394 . S
C4853 H4843 0.929 . S
C4853 C4849 1.377 . S
C4853 C4852 1.394 . S
H4854 C4861 0.929 . S
H4855 C4864 0.930 . S
H4856 C4866 0.929 . S
H4857 C4858 0.969 . S
C4858 H4857 0.969 . S
C4858 O4859 1.550 . S
C4858 H4860 0.973 . S
O4859 C4858 1.550 . S
O4859 C4865 1.412 . S
H4860 C4858 0.973 . S
C4861 H4854 0.929 . S
C4861 C4862 1.400 . S
C4861 C4863 1.364 . S
C4862 C4861 1.400 . S
C4862 C4866 1.377 . S
C4863 C4861 1.364 . S
C4863 C4864 1.374 . S
C4864 H4855 0.930 . S
C4864 C4863 1.374 . S
C4864 C4865 1.383 . S
C4865 O4859 1.412 . S
C4865 C4864 1.383 . S
C4865 C4866 1.394 . S
C4866 H4856 0.929 . S
C4866 C4862 1.377 . S
C4866 C4865 1.394 . S
H4867 C4874 0.929 . S
H4868 C4877 0.930 . S
H4869 C4879 0.929 . S
H4870 C4871 0.969 . S
C4871 H4870 0.969 . S
C4871 O4872 1.550 . S
C4871 H4873 0.973 . S
O4872 C4871 1.550 . S
O4872 C4878 1.412 . S
H4873 C4871 0.973 . S
C4874 H4867 0.929 . S
C4874 C4875 1.400 . S
C4874 C4876 1.364 . S
C4875 C4874 1.400 . S
C4875 C4879 1.377 . S
C4876 C4874 1.364 . S
C4876 C4877 1.374 . S
C4877 H4868 0.930 . S
C4877 C4876 1.374 . S
C4877 C4878 1.383 . S
C4878 O4872 1.412 . S
C4878 C4877 1.383 . S
C4878 C4879 1.394 . S
C4879 H4869 0.929 . S
C4879 C4875 1.377 . S
C4879 C4878 1.394 . S
H4880 C4887 0.929 . S
H4881 C4890 0.930 . S
H4882 C4892 0.929 . S
H4883 C4884 0.969 . S
C4884 H4883 0.969 . S
C4884 O4885 1.550 . S
C4884 H4886 0.973 . S
O4885 C4884 1.550 . S
O4885 C4891 1.412 . S
H4886 C4884 0.973 . S
C4887 H4880 0.929 . S
C4887 C4888 1.400 . S
C4887 C4889 1.364 . S
C4888 C4887 1.400 . S
C4888 C4892 1.377 . S
C4889 C4887 1.364 . S
C4889 C4890 1.374 . S
C4890 H4881 0.930 . S
C4890 C4889 1.374 . S
C4890 C4891 1.383 . S
C4891 O4885 1.412 . S
C4891 C4890 1.383 . S
C4891 C4892 1.394 . S
C4892 H4882 0.929 . S
C4892 C4888 1.377 . S
C4892 C4891 1.394 . S
H4893 C4900 0.929 . S
H4894 C4903 0.930 . S
H4895 C4905 0.929 . S
H4896 C4897 0.969 . S
C4897 H4896 0.969 . S
C4897 O4898 1.550 . S
C4897 H4899 0.973 . S
O4898 C4897 1.550 . S
O4898 C4904 1.412 . S
H4899 C4897 0.973 . S
C4900 H4893 0.929 . S
C4900 C4901 1.400 . S
C4900 C4902 1.364 . S
C4901 C4900 1.400 . S
C4901 C4905 1.377 . S
C4902 C4900 1.364 . S
C4902 C4903 1.374 . S
C4903 H4894 0.930 . S
C4903 C4902 1.374 . S
C4903 C4904 1.383 . S
C4904 O4898 1.412 . S
C4904 C4903 1.383 . S
C4904 C4905 1.394 . S
C4905 H4895 0.929 . S
C4905 C4901 1.377 . S
C4905 C4904 1.394 . S
H4906 C4913 0.929 . S
H4907 C4916 0.930 . S
H4908 C4918 0.929 . S
H4909 C4910 0.969 . S
C4910 H4909 0.969 . S
C4910 O4911 1.550 . S
C4910 H4912 0.973 . S
O4911 C4910 1.550 . S
O4911 C4917 1.412 . S
H4912 C4910 0.973 . S
C4913 H4906 0.929 . S
C4913 C4914 1.400 . S
C4913 C4915 1.364 . S
C4914 C4913 1.400 . S
C4914 C4918 1.377 . S
C4915 C4913 1.364 . S
C4915 C4916 1.374 . S
C4916 H4907 0.930 . S
C4916 C4915 1.374 . S
C4916 C4917 1.383 . S
C4917 O4911 1.412 . S
C4917 C4916 1.383 . S
C4917 C4918 1.394 . S
C4918 H4908 0.929 . S
C4918 C4914 1.377 . S
C4918 C4917 1.394 . S
H4919 C4926 0.929 . S
H4920 C4929 0.930 . S
H4921 C4931 0.929 . S
H4922 C4923 0.969 . S
C4923 H4922 0.969 . S
C4923 O4924 1.550 . S
C4923 H4925 0.973 . S
O4924 C4923 1.550 . S
O4924 C4930 1.412 . S
H4925 C4923 0.973 . S
C4926 H4919 0.929 . S
C4926 C4927 1.400 . S
C4926 C4928 1.364 . S
C4927 C4926 1.400 . S
C4927 C4931 1.377 . S
C4928 C4926 1.364 . S
C4928 C4929 1.374 . S
C4929 H4920 0.930 . S
C4929 C4928 1.374 . S
C4929 C4930 1.383 . S
C4930 O4924 1.412 . S
C4930 C4929 1.383 . S
C4930 C4931 1.394 . S
C4931 H4921 0.929 . S
C4931 C4927 1.377 . S
C4931 C4930 1.394 . S
H4932 C4939 0.929 . S
H4933 C4942 0.930 . S
H4934 C4944 0.929 . S
H4935 C4936 0.969 . S
C4936 H4935 0.969 . S
C4936 O4937 1.550 . S
C4936 H4938 0.973 . S
O4937 C4936 1.550 . S
O4937 C4943 1.412 . S
H4938 C4936 0.973 . S
C4939 H4932 0.929 . S
C4939 C4940 1.400 . S
C4939 C4941 1.364 . S
C4940 C4939 1.400 . S
C4940 C4944 1.377 . S
C4941 C4939 1.364 . S
C4941 C4942 1.374 . S
C4942 H4933 0.930 . S
C4942 C4941 1.374 . S
C4942 C4943 1.383 . S
C4943 O4937 1.412 . S
C4943 C4942 1.383 . S
C4943 C4944 1.394 . S
C4944 H4934 0.929 . S
C4944 C4940 1.377 . S
C4944 C4943 1.394 . S
H4945 C4952 0.929 . S
H4946 C4955 0.930 . S
H4947 C4957 0.929 . S
H4948 C4949 0.969 . S
C4949 H4948 0.969 . S
C4949 O4950 1.550 . S
C4949 H4951 0.973 . S
O4950 C4949 1.550 . S
O4950 C4956 1.412 . S
H4951 C4949 0.973 . S
C4952 H4945 0.929 . S
C4952 C4953 1.400 . S
C4952 C4954 1.364 . S
C4953 C4952 1.400 . S
C4953 C4957 1.377 . S
C4954 C4952 1.364 . S
C4954 C4955 1.374 . S
C4955 H4946 0.930 . S
C4955 C4954 1.374 . S
C4955 C4956 1.383 . S
C4956 O4950 1.412 . S
C4956 C4955 1.383 . S
C4956 C4957 1.394 . S
C4957 H4947 0.929 . S
C4957 C4953 1.377 . S
C4957 C4956 1.394 . S
H4958 C4965 0.929 . S
H4959 C4968 0.930 . S
H4960 C4970 0.929 . S
H4961 C4962 0.969 . S
C4962 H4961 0.969 . S
C4962 O4963 1.550 . S
C4962 H4964 0.973 . S
O4963 C4962 1.550 . S
O4963 C4969 1.412 . S
H4964 C4962 0.973 . S
C4965 H4958 0.929 . S
C4965 C4966 1.400 . S
C4965 C4967 1.364 . S
C4966 C4965 1.400 . S
C4966 C4970 1.377 . S
C4967 C4965 1.364 . S
C4967 C4968 1.374 . S
C4968 H4959 0.930 . S
C4968 C4967 1.374 . S
C4968 C4969 1.383 . S
C4969 O4963 1.412 . S
C4969 C4968 1.383 . S
C4969 C4970 1.394 . S
C4970 H4960 0.929 . S
C4970 C4966 1.377 . S
C4970 C4969 1.394 . S
H4971 C4978 0.929 . S
H4972 C4981 0.930 . S
H4973 C4983 0.929 . S
H4974 C4975 0.969 . S
C4975 H4974 0.969 . S
C4975 O4976 1.550 . S
C4975 H4977 0.973 . S
O4976 C4975 1.550 . S
O4976 C4982 1.412 . S
H4977 C4975 0.973 . S
C4978 H4971 0.929 . S
C4978 C4979 1.400 . S
C4978 C4980 1.364 . S
C4979 C4978 1.400 . S
C4979 C4983 1.377 . S
C4980 C4978 1.364 . S
C4980 C4981 1.374 . S
C4981 H4972 0.930 . S
C4981 C4980 1.374 . S
C4981 C4982 1.383 . S
C4982 O4976 1.412 . S
C4982 C4981 1.383 . S
C4982 C4983 1.394 . S
C4983 H4973 0.929 . S
C4983 C4979 1.377 . S
C4983 C4982 1.394 . S
H4984 C4991 0.929 . S
H4985 C4994 0.930 . S
H4986 C4996 0.929 . S
H4987 C4988 0.969 . S
C4988 H4987 0.969 . S
C4988 O4989 1.550 . S
C4988 H4990 0.973 . S
O4989 C4988 1.550 . S
O4989 C4995 1.412 . S
H4990 C4988 0.973 . S
C4991 H4984 0.929 . S
C4991 C4992 1.400 . S
C4991 C4993 1.364 . S
C4992 C4991 1.400 . S
C4992 C4996 1.377 . S
C4993 C4991 1.364 . S
C4993 C4994 1.374 . S
C4994 H4985 0.930 . S
C4994 C4993 1.374 . S
C4994 C4995 1.383 . S
C4995 O4989 1.412 . S
C4995 C4994 1.383 . S
C4995 C4996 1.394 . S
C4996 H4986 0.929 . S
C4996 C4992 1.377 . S
C4996 C4995 1.394 . S
H4997 C5004 0.929 . S
H4998 C5007 0.930 . S
H4999 C5009 0.929 . S
H5000 C5001 0.969 . S
C5001 H5000 0.969 . S
C5001 O5002 1.550 . S
C5001 H5003 0.973 . S
O5002 C5001 1.550 . S
O5002 C5008 1.412 . S
H5003 C5001 0.973 . S
C5004 H4997 0.929 . S
C5004 C5005 1.400 . S
C5004 C5006 1.364 . S
C5005 C5004 1.400 . S
C5005 C5009 1.377 . S
C5006 C5004 1.364 . S
C5006 C5007 1.374 . S
C5007 H4998 0.930 . S
C5007 C5006 1.374 . S
C5007 C5008 1.383 . S
C5008 O5002 1.412 . S
C5008 C5007 1.383 . S
C5008 C5009 1.394 . S
C5009 H4999 0.929 . S
C5009 C5005 1.377 . S
C5009 C5008 1.394 . S
H5010 C5017 0.929 . S
H5011 C5020 0.930 . S
H5012 C5022 0.929 . S
H5013 C5014 0.969 . S
C5014 H5013 0.969 . S
C5014 O5015 1.550 . S
C5014 H5016 0.973 . S
O5015 C5014 1.550 . S
O5015 C5021 1.412 . S
H5016 C5014 0.973 . S
C5017 H5010 0.929 . S
C5017 C5018 1.400 . S
C5017 C5019 1.364 . S
C5018 C5017 1.400 . S
C5018 C5022 1.377 . S
C5019 C5017 1.364 . S
C5019 C5020 1.374 . S
C5020 H5011 0.930 . S
C5020 C5019 1.374 . S
C5020 C5021 1.383 . S
C5021 O5015 1.412 . S
C5021 C5020 1.383 . S
C5021 C5022 1.394 . S
C5022 H5012 0.929 . S
C5022 C5018 1.377 . S
C5022 C5021 1.394 . S
H5023 C5030 0.929 . S
H5024 C5033 0.930 . S
H5025 C5035 0.929 . S
H5026 C5027 0.969 . S
C5027 H5026 0.969 . S
C5027 O5028 1.550 . S
C5027 H5029 0.973 . S
O5028 C5027 1.550 . S
O5028 C5034 1.412 . S
H5029 C5027 0.973 . S
C5030 H5023 0.929 . S
C5030 C5031 1.400 . S
C5030 C5032 1.364 . S
C5031 C5030 1.400 . S
C5031 C5035 1.377 . S
C5032 C5030 1.364 . S
C5032 C5033 1.374 . S
C5033 H5024 0.930 . S
C5033 C5032 1.374 . S
C5033 C5034 1.383 . S
C5034 O5028 1.412 . S
C5034 C5033 1.383 . S
C5034 C5035 1.394 . S
C5035 H5025 0.929 . S
C5035 C5031 1.377 . S
C5035 C5034 1.394 . S
H5036 C5043 0.929 . S
H5037 C5046 0.930 . S
H5038 C5048 0.929 . S
H5039 C5040 0.969 . S
C5040 H5039 0.969 . S
C5040 O5041 1.550 . S
C5040 H5042 0.973 . S
O5041 C5040 1.550 . S
O5041 C5047 1.412 . S
H5042 C5040 0.973 . S
C5043 H5036 0.929 . S
C5043 C5044 1.400 . S
C5043 C5045 1.364 . S
C5044 C5043 1.400 . S
C5044 C5048 1.377 . S
C5045 C5043 1.364 . S
C5045 C5046 1.374 . S
C5046 H5037 0.930 . S
C5046 C5045 1.374 . S
C5046 C5047 1.383 . S
C5047 O5041 1.412 . S
C5047 C5046 1.383 . S
C5047 C5048 1.394 . S
C5048 H5038 0.929 . S
C5048 C5044 1.377 . S
C5048 C5047 1.394 . S
H5049 C5056 0.929 . S
H5050 C5059 0.930 . S
H5051 C5061 0.929 . S
H5052 C5053 0.969 . S
C5053 H5052 0.969 . S
C5053 O5054 1.550 . S
C5053 H5055 0.973 . S
O5054 C5053 1.550 . S
O5054 C5060 1.412 . S
H5055 C5053 0.973 . S
C5056 H5049 0.929 . S
C5056 C5057 1.400 . S
C5056 C5058 1.364 . S
C5057 C5056 1.400 . S
C5057 C5061 1.377 . S
C5058 C5056 1.364 . S
C5058 C5059 1.374 . S
C5059 H5050 0.930 . S
C5059 C5058 1.374 . S
C5059 C5060 1.383 . S
C5060 O5054 1.412 . S
C5060 C5059 1.383 . S
C5060 C5061 1.394 . S
C5061 H5051 0.929 . S
C5061 C5057 1.377 . S
C5061 C5060 1.394 . S
H5062 C5069 0.929 . S
H5063 C5072 0.930 . S
H5064 C5074 0.929 . S
H5065 C5066 0.969 . S
C5066 H5065 0.969 . S
C5066 O5067 1.550 . S
C5066 H5068 0.973 . S
O5067 C5066 1.550 . S
O5067 C5073 1.412 . S
H5068 C5066 0.973 . S
C5069 H5062 0.929 . S
C5069 C5070 1.400 . S
C5069 C5071 1.364 . S
C5070 C5069 1.400 . S
C5070 C5074 1.377 . S
C5071 C5069 1.364 . S
C5071 C5072 1.374 . S
C5072 H5063 0.930 . S
C5072 C5071 1.374 . S
C5072 C5073 1.383 . S
C5073 O5067 1.412 . S
C5073 C5072 1.383 . S
C5073 C5074 1.394 . S
C5074 H5064 0.929 . S
C5074 C5070 1.377 . S
C5074 C5073 1.394 . S
H5075 C5082 0.929 . S
H5076 C5085 0.930 . S
H5077 C5087 0.929 . S
H5078 C5079 0.969 . S
C5079 H5078 0.969 . S
C5079 O5080 1.550 . S
C5079 H5081 0.973 . S
O5080 C5079 1.550 . S
O5080 C5086 1.412 . S
H5081 C5079 0.973 . S
C5082 H5075 0.929 . S
C5082 C5083 1.400 . S
C5082 C5084 1.364 . S
C5083 C5082 1.400 . S
C5083 C5087 1.377 . S
C5084 C5082 1.364 . S
C5084 C5085 1.374 . S
C5085 H5076 0.930 . S
C5085 C5084 1.374 . S
C5085 C5086 1.383 . S
C5086 O5080 1.412 . S
C5086 C5085 1.383 . S
C5086 C5087 1.394 . S
C5087 H5077 0.929 . S
C5087 C5083 1.377 . S
C5087 C5086 1.394 . S
H5088 C5096 0.950 . S
H5089 C5101 0.950 . S
H5090 C5098 0.950 . S
H5091 C5100 0.950 . S
H5092 C5102 0.950 . S
H5093 C5104 0.961 1_455 S
H5094 C5106 0.950 . S
H5095 C5107 0.950 . S
C5096 H5088 0.950 . S
C5096 C5097 1.386 . S
C5096 C5098 1.391 . S
C5097 C5096 1.386 . S
C5097 C5101 1.393 . S
C5098 H5090 0.950 . S
C5098 C5096 1.391 . S
C5098 C5099 1.400 . S
C5099 C5098 1.400 . S
C5099 C5100 1.398 . S
C5099 C5105 1.606 . S
C5100 H5091 0.950 . S
C5100 C5099 1.398 . S
C5100 C5101 1.391 . S
C5101 H5089 0.950 . S
C5101 C5097 1.393 . S
C5101 C5100 1.391 . S
C5102 H5092 0.950 . S
C5102 C5103 1.386 . S
C5102 C5104 1.379 . S
C5103 C5102 1.386 . S
C5103 C5107 1.393 . S
C5104 H5093 0.961 1_655 S
C5104 C5102 1.379 . S
C5104 C5105 1.393 1_655 S
C5105 C5099 1.606 . S
C5105 C5104 1.393 1_455 S
C5105 C5106 1.295 1_455 S
C5106 H5094 0.950 . S
C5106 C5105 1.295 1_655 S
C5106 C5107 1.391 . S
C5107 H5095 0.950 . S
C5107 C5103 1.393 . S
C5107 C5106 1.391 . S
H5108 C5116 0.950 . S
H5109 C5121 0.950 . S
H5110 C5118 0.950 . S
H5111 C5120 0.950 . S
H5112 C5122 0.950 . S
H5113 C5124 0.950 . S
H5114 C5126 0.950 . S
H5115 C5127 0.950 . S
C5116 H5108 0.950 . S
C5116 C5117 1.386 . S
C5116 C5118 1.391 . S
C5117 C5116 1.386 . S
C5117 C5121 1.393 . S
C5118 H5110 0.950 . S
C5118 C5116 1.391 . S
C5118 C5119 1.400 . S
C5119 C5118 1.400 . S
C5119 C5120 1.398 . S
C5119 C5125 1.491 . S
C5120 H5111 0.950 . S
C5120 C5119 1.398 . S
C5120 C5121 1.391 . S
C5121 H5109 0.950 . S
C5121 C5117 1.393 . S
C5121 C5120 1.391 . S
C5122 H5112 0.950 . S
C5122 C5123 1.386 . S
C5122 C5124 1.391 . S
C5123 C5122 1.386 . S
C5123 C5127 1.393 . S
C5124 H5113 0.950 . S
C5124 C5122 1.391 . S
C5124 C5125 1.400 . S
C5125 C5119 1.491 . S
C5125 C5124 1.400 . S
C5125 C5126 1.398 . S
C5126 H5114 0.950 . S
C5126 C5125 1.398 . S
C5126 C5127 1.391 . S
C5127 H5115 0.950 . S
C5127 C5123 1.393 . S
C5127 C5126 1.391 . S
H5128 C5136 0.950 . S
H5129 C5141 0.950 . S
H5130 C5138 0.950 . S
H5131 C5140 0.950 . S
H5132 C5142 0.950 . S
H5133 C5144 0.950 . S
H5134 C5146 0.950 . S
H5135 C5147 0.950 . S
C5136 H5128 0.950 . S
C5136 C5137 1.386 . S
C5136 C5138 1.391 . S
C5137 C5136 1.386 . S
C5137 C5141 1.393 . S
C5138 H5130 0.950 . S
C5138 C5136 1.391 . S
C5138 C5139 1.400 . S
C5139 C5138 1.400 . S
C5139 C5140 1.398 . S
C5139 C5145 1.491 . S
C5140 H5131 0.950 . S
C5140 C5139 1.398 . S
C5140 C5141 1.391 . S
C5141 H5129 0.950 . S
C5141 C5137 1.393 . S
C5141 C5140 1.391 . S
C5142 H5132 0.950 . S
C5142 C5143 1.386 . S
C5142 C5144 1.391 . S
C5143 C5142 1.386 . S
C5143 C5147 1.393 . S
C5144 H5133 0.950 . S
C5144 C5142 1.391 . S
C5144 C5145 1.400 . S
C5145 C5139 1.491 . S
C5145 C5144 1.400 . S
C5145 C5146 1.398 . S
C5146 H5134 0.950 . S
C5146 C5145 1.398 . S
C5146 C5147 1.391 . S
C5147 H5135 0.950 . S
C5147 C5143 1.393 . S
C5147 C5146 1.391 . S
H5148 C5156 0.950 . S
H5149 C5161 0.950 . S
H5150 C5158 0.950 . S
H5151 C5160 0.950 . S
H5152 C5162 0.950 . S
H5153 C5164 0.950 . S
H5154 C5166 0.950 . S
H5155 C5167 0.950 . S
C5156 H5148 0.950 . S
C5156 C5157 1.386 . S
C5156 C5158 1.391 . S
C5157 C5156 1.386 . S
C5157 C5161 1.393 . S
C5158 H5150 0.950 . S
C5158 C5156 1.391 . S
C5158 C5159 1.400 . S
C5159 C5158 1.400 . S
C5159 C5160 1.398 . S
C5159 C5165 1.491 . S
C5160 H5151 0.950 . S
C5160 C5159 1.398 . S
C5160 C5161 1.391 . S
C5161 H5149 0.950 . S
C5161 C5157 1.393 . S
C5161 C5160 1.391 . S
C5162 H5152 0.950 . S
C5162 C5163 1.386 . S
C5162 C5164 1.391 . S
C5163 C5162 1.386 . S
C5163 C5167 1.393 . S
C5164 H5153 0.950 . S
C5164 C5162 1.391 . S
C5164 C5165 1.400 . S
C5165 C5159 1.491 . S
C5165 C5164 1.400 . S
C5165 C5166 1.398 . S
C5166 H5154 0.950 . S
C5166 C5165 1.398 . S
C5166 C5167 1.391 . S
C5167 H5155 0.950 . S
C5167 C5163 1.393 . S
C5167 C5166 1.391 . S
H5168 C5176 0.950 . S
H5169 C5181 0.950 . S
H5170 C5178 0.950 . S
H5171 C5180 0.950 . S
H5172 C5182 0.950 . S
H5173 C5184 0.950 . S
H5174 C5186 0.950 1_455 S
H5175 C5187 0.950 . S
C5176 H5168 0.950 . S
C5176 C5177 1.386 . S
C5176 C5178 1.391 . S
C5177 C5176 1.386 . S
C5177 C5181 1.393 . S
C5178 H5170 0.950 . S
C5178 C5176 1.391 . S
C5178 C5179 1.400 . S
C5179 C5178 1.400 . S
C5179 C5180 1.398 . S
C5179 C5185 1.615 . S
C5180 H5171 0.950 . S
C5180 C5179 1.398 . S
C5180 C5181 1.391 . S
C5181 H5169 0.950 . S
C5181 C5177 1.393 . S
C5181 C5180 1.391 . S
C5182 H5172 0.950 . S
C5182 C5183 1.386 . S
C5182 C5184 1.391 . S
C5183 C5182 1.386 . S
C5183 C5187 1.393 . S
C5184 H5173 0.950 . S
C5184 C5182 1.391 . S
C5184 C5185 1.317 1_655 S
C5185 C5179 1.615 . S
C5185 C5184 1.317 1_455 S
C5185 C5186 1.365 1_455 S
C5186 H5174 0.950 1_655 S
C5186 C5185 1.365 1_655 S
C5186 C5187 1.391 . S
C5187 H5175 0.950 . S
C5187 C5183 1.393 . S
C5187 C5186 1.391 . S
H5188 C5196 0.950 . S
H5189 C5201 0.950 . S
H5190 C5198 0.950 . S
H5191 C5200 0.950 . S
H5192 C5202 0.950 . S
H5193 C5204 0.950 . S
H5194 C5206 0.950 . S
H5195 C5207 0.950 . S
C5196 H5188 0.950 . S
C5196 C5197 1.386 . S
C5196 C5198 1.391 . S
C5197 C5196 1.386 . S
C5197 C5201 1.393 . S
C5198 H5190 0.950 . S
C5198 C5196 1.391 . S
C5198 C5199 1.400 . S
C5199 C5198 1.400 . S
C5199 C5200 1.398 . S
C5199 C5205 1.491 . S
C5200 H5191 0.950 . S
C5200 C5199 1.398 . S
C5200 C5201 1.391 . S
C5201 H5189 0.950 . S
C5201 C5197 1.393 . S
C5201 C5200 1.391 . S
C5202 H5192 0.950 . S
C5202 C5203 1.386 . S
C5202 C5204 1.391 . S
C5203 C5202 1.386 . S
C5203 C5207 1.393 . S
C5204 H5193 0.950 . S
C5204 C5202 1.391 . S
C5204 C5205 1.400 . S
C5205 C5199 1.491 . S
C5205 C5204 1.400 . S
C5205 C5206 1.398 . S
C5206 H5194 0.950 . S
C5206 C5205 1.398 . S
C5206 C5207 1.391 . S
C5207 H5195 0.950 . S
C5207 C5203 1.393 . S
C5207 C5206 1.391 . S
H5208 C5216 0.950 . S
H5209 C5221 0.950 . S
H5210 C5218 0.950 . S
H5211 C5220 0.950 . S
H5212 C5222 0.950 . S
H5213 C5224 0.950 . S
H5214 C5226 0.950 . S
H5215 C5227 0.950 . S
C5216 H5208 0.950 . S
C5216 C5217 1.386 . S
C5216 C5218 1.391 . S
C5217 C5216 1.386 . S
C5217 C5221 1.393 . S
C5218 H5210 0.950 . S
C5218 C5216 1.391 . S
C5218 C5219 1.400 . S
C5219 C5218 1.400 . S
C5219 C5220 1.398 . S
C5219 C5225 1.491 . S
C5220 H5211 0.950 . S
C5220 C5219 1.398 . S
C5220 C5221 1.391 . S
C5221 H5209 0.950 . S
C5221 C5217 1.393 . S
C5221 C5220 1.391 . S
C5222 H5212 0.950 . S
C5222 C5223 1.386 . S
C5222 C5224 1.391 . S
C5223 C5222 1.386 . S
C5223 C5227 1.393 . S
C5224 H5213 0.950 . S
C5224 C5222 1.391 . S
C5224 C5225 1.400 . S
C5225 C5219 1.491 . S
C5225 C5224 1.400 . S
C5225 C5226 1.398 . S
C5226 H5214 0.950 . S
C5226 C5225 1.398 . S
C5226 C5227 1.391 . S
C5227 H5215 0.950 . S
C5227 C5223 1.393 . S
C5227 C5226 1.391 . S
H5228 C5236 0.950 . S
H5229 C5241 0.950 . S
H5230 C5238 0.950 . S
H5231 C5240 0.950 . S
H5232 C5242 0.950 . S
H5233 C5244 0.950 . S
H5234 C5246 0.950 . S
H5235 C5247 0.950 . S
C5236 H5228 0.950 . S
C5236 C5237 1.386 . S
C5236 C5238 1.391 . S
C5237 C5236 1.386 . S
C5237 C5241 1.393 . S
C5238 H5230 0.950 . S
C5238 C5236 1.391 . S
C5238 C5239 1.400 . S
C5239 C5238 1.400 . S
C5239 C5240 1.398 . S
C5239 C5245 1.491 . S
C5240 H5231 0.950 . S
C5240 C5239 1.398 . S
C5240 C5241 1.391 . S
C5241 H5229 0.950 . S
C5241 C5237 1.393 . S
C5241 C5240 1.391 . S
C5242 H5232 0.950 . S
C5242 C5243 1.386 . S
C5242 C5244 1.391 . S
C5243 C5242 1.386 . S
C5243 C5247 1.393 . S
C5244 H5233 0.950 . S
C5244 C5242 1.391 . S
C5244 C5245 1.400 . S
C5245 C5239 1.491 . S
C5245 C5244 1.400 . S
C5245 C5246 1.398 . S
C5246 H5234 0.950 . S
C5246 C5245 1.398 . S
C5246 C5247 1.391 . S
C5247 H5235 0.950 . S
C5247 C5243 1.393 . S
C5247 C5246 1.391 . S
H5248 C5256 0.950 . S
H5249 C5261 0.950 . S
H5250 C5258 0.950 . S
H5251 C5260 0.950 . S
H5252 C5262 0.950 . S
H5253 C5264 0.929 1_545 S
H5254 C5266 1.023 . S
H5255 C5267 0.950 . S
C5256 H5248 0.950 . S
C5256 C5257 1.386 . S
C5256 C5258 1.391 . S
C5257 C5256 1.386 . S
C5257 C5261 1.393 . S
C5258 H5250 0.950 . S
C5258 C5256 1.391 . S
C5258 C5259 1.400 . S
C5259 C5258 1.400 . S
C5259 C5260 1.398 . S
C5259 C5265 1.615 . S
C5260 H5251 0.950 . S
C5260 C5259 1.398 . S
C5260 C5261 1.391 . S
C5261 H5249 0.950 . S
C5261 C5257 1.393 . S
C5261 C5260 1.391 . S
C5262 H5252 0.950 . S
C5262 C5263 1.386 . S
C5262 C5264 1.391 . S
C5263 C5262 1.386 . S
C5263 C5267 1.393 . S
C5264 H5253 0.929 1_565 S
C5264 C5262 1.391 . S
C5264 C5265 1.349 1_565 S
C5265 C5259 1.615 . S
C5265 C5264 1.349 1_545 S
C5265 C5266 1.332 1_545 S
C5266 H5254 1.023 . S
C5266 C5265 1.332 1_565 S
C5266 C5267 1.391 . S
C5267 H5255 0.950 . S
C5267 C5263 1.393 . S
C5267 C5266 1.391 . S
H5268 C5276 0.950 . S
H5269 C5281 0.950 . S
H5270 C5278 0.950 . S
H5271 C5280 0.950 . S
H5272 C5282 0.950 . S
H5273 C5284 0.950 . S
H5274 C5286 0.950 . S
H5275 C5287 0.950 . S
C5276 H5268 0.950 . S
C5276 C5277 1.386 . S
C5276 C5278 1.391 . S
C5277 C5276 1.386 . S
C5277 C5281 1.393 . S
C5278 H5270 0.950 . S
C5278 C5276 1.391 . S
C5278 C5279 1.400 . S
C5279 C5278 1.400 . S
C5279 C5280 1.398 . S
C5279 C5285 1.491 . S
C5280 H5271 0.950 . S
C5280 C5279 1.398 . S
C5280 C5281 1.391 . S
C5281 H5269 0.950 . S
C5281 C5277 1.393 . S
C5281 C5280 1.391 . S
C5282 H5272 0.950 . S
C5282 C5283 1.386 . S
C5282 C5284 1.391 . S
C5283 C5282 1.386 . S
C5283 C5287 1.393 . S
C5284 H5273 0.950 . S
C5284 C5282 1.391 . S
C5284 C5285 1.400 . S
C5285 C5279 1.491 . S
C5285 C5284 1.400 . S
C5285 C5286 1.398 . S
C5286 H5274 0.950 . S
C5286 C5285 1.398 . S
C5286 C5287 1.391 . S
C5287 H5275 0.950 . S
C5287 C5283 1.393 . S
C5287 C5286 1.391 . S
H5288 C5296 0.950 . S
H5289 C5301 0.950 . S
H5290 C5298 0.950 . S
H5291 C5300 0.950 . S
H5292 C5302 0.950 . S
H5293 C5304 0.950 . S
H5294 C5306 0.907 1_565 S
H5295 C5307 0.950 . S
C5296 H5288 0.950 . S
C5296 C5297 1.386 . S
C5296 C5298 1.391 . S
C5297 C5296 1.386 . S
C5297 C5301 1.393 . S
C5298 H5290 0.950 . S
C5298 C5296 1.391 . S
C5298 C5299 1.400 . S
C5299 C5298 1.400 . S
C5299 C5300 1.398 . S
C5299 C5305 1.600 . S
C5300 H5291 0.950 . S
C5300 C5299 1.398 . S
C5300 C5301 1.391 . S
C5301 H5289 0.950 . S
C5301 C5297 1.393 . S
C5301 C5300 1.391 . S
C5302 H5292 0.950 . S
C5302 C5303 1.386 . S
C5302 C5304 1.391 . S
C5303 C5302 1.386 . S
C5303 C5307 1.393 . S
C5304 H5293 0.950 . S
C5304 C5302 1.391 . S
C5304 C5305 1.336 1_545 S
C5305 C5299 1.600 . S
C5305 C5304 1.336 1_565 S
C5305 C5306 1.358 1_565 S
C5306 H5294 0.907 1_545 S
C5306 C5305 1.358 1_545 S
C5306 C5307 1.391 . S
C5307 H5295 0.950 . S
C5307 C5303 1.393 . S
C5307 C5306 1.391 . S
H5308 C5316 0.950 . S
H5309 C5321 0.950 . S
H5310 C5318 0.950 . S
H5311 C5320 0.950 . S
H5312 C5322 0.950 . S
H5313 C5324 0.950 . S
H5314 C5326 0.950 . S
H5315 C5327 0.950 . S
C5316 H5308 0.950 . S
C5316 C5317 1.386 . S
C5316 C5318 1.391 . S
C5317 C5316 1.386 . S
C5317 C5321 1.393 . S
C5318 H5310 0.950 . S
C5318 C5316 1.391 . S
C5318 C5319 1.400 . S
C5319 C5318 1.400 . S
C5319 C5320 1.398 . S
C5319 C5325 1.491 . S
C5320 H5311 0.950 . S
C5320 C5319 1.398 . S
C5320 C5321 1.391 . S
C5321 H5309 0.950 . S
C5321 C5317 1.393 . S
C5321 C5320 1.391 . S
C5322 H5312 0.950 . S
C5322 C5323 1.386 . S
C5322 C5324 1.391 . S
C5323 C5322 1.386 . S
C5323 C5327 1.393 . S
C5324 H5313 0.950 . S
C5324 C5322 1.391 . S
C5324 C5325 1.400 . S
C5325 C5319 1.491 . S
C5325 C5324 1.400 . S
C5325 C5326 1.398 . S
C5326 H5314 0.950 . S
C5326 C5325 1.398 . S
C5326 C5327 1.391 . S
C5327 H5315 0.950 . S
C5327 C5323 1.393 . S
C5327 C5326 1.391 . S
H5328 C5336 0.950 . S
H5329 C5341 0.950 . S
H5330 C5338 0.950 . S
H5331 C5340 0.950 . S
H5332 C5342 0.950 . S
H5333 C5344 0.880 1_565 S
H5334 C5346 0.950 . S
H5335 C5347 0.950 . S
C5336 H5328 0.950 . S
C5336 C5337 1.386 . S
C5336 C5338 1.391 . S
C5337 C5336 1.386 . S
C5337 C5341 1.393 . S
C5338 H5330 0.950 . S
C5338 C5336 1.391 . S
C5338 C5339 1.400 . S
C5339 C5338 1.400 . S
C5339 C5340 1.398 . S
C5339 C5345 1.602 . S
C5340 H5331 0.950 . S
C5340 C5339 1.398 . S
C5340 C5341 1.391 . S
C5341 H5329 0.950 . S
C5341 C5337 1.393 . S
C5341 C5340 1.391 . S
C5342 H5332 0.950 . S
C5342 C5343 1.386 . S
C5342 C5344 1.480 . S
C5343 C5342 1.386 . S
C5343 C5347 1.393 . S
C5344 H5333 0.880 1_545 S
C5344 C5342 1.480 . S
C5344 C5345 1.377 1_545 S
C5345 C5339 1.602 . S
C5345 C5344 1.377 1_565 S
C5345 C5346 1.308 1_565 S
C5346 H5334 0.950 . S
C5346 C5345 1.308 1_545 S
C5346 C5347 1.391 . S
C5347 H5335 0.950 . S
C5347 C5343 1.393 . S
C5347 C5346 1.391 . S
H5348 C5356 0.950 . S
H5349 C5361 0.950 . S
H5350 C5358 0.950 . S
H5351 C5360 0.950 . S
H5352 C5362 0.950 . S
H5353 C5364 0.950 . S
H5354 C5366 0.950 . S
H5355 C5367 0.950 . S
C5356 H5348 0.950 . S
C5356 C5357 1.386 . S
C5356 C5358 1.391 . S
C5357 C5356 1.386 . S
C5357 C5361 1.393 . S
C5358 H5350 0.950 . S
C5358 C5356 1.391 . S
C5358 C5359 1.400 . S
C5359 C5358 1.400 . S
C5359 C5360 1.398 . S
C5359 C5365 1.491 . S
C5360 H5351 0.950 . S
C5360 C5359 1.398 . S
C5360 C5361 1.391 . S
C5361 H5349 0.950 . S
C5361 C5357 1.393 . S
C5361 C5360 1.391 . S
C5362 H5352 0.950 . S
C5362 C5363 1.386 . S
C5362 C5364 1.391 . S
C5363 C5362 1.386 . S
C5363 C5367 1.393 . S
C5364 H5353 0.950 . S
C5364 C5362 1.391 . S
C5364 C5365 1.400 . S
C5365 C5359 1.491 . S
C5365 C5364 1.400 . S
C5365 C5366 1.398 . S
C5366 H5354 0.950 . S
C5366 C5365 1.398 . S
C5366 C5367 1.391 . S
C5367 H5355 0.950 . S
C5367 C5363 1.393 . S
C5367 C5366 1.391 . S
H5368 C5376 0.950 . S
H5369 C5381 0.950 . S
H5370 C5378 0.950 . S
H5371 C5380 0.950 . S
H5372 C5382 0.950 . S
H5373 C5384 0.950 . S
H5374 C5386 0.950 1_545 S
H5375 C5387 0.950 . S
C5376 H5368 0.950 . S
C5376 C5377 1.386 . S
C5376 C5378 1.391 . S
C5377 C5376 1.386 . S
C5377 C5381 1.393 . S
C5378 H5370 0.950 . S
C5378 C5376 1.391 . S
C5378 C5379 1.400 . S
C5379 C5378 1.400 . S
C5379 C5380 1.398 . S
C5379 C5385 1.602 . S
C5380 H5371 0.950 . S
C5380 C5379 1.398 . S
C5380 C5381 1.391 . S
C5381 H5369 0.950 . S
C5381 C5377 1.393 . S
C5381 C5380 1.391 . S
C5382 H5372 0.950 . S
C5382 C5383 1.386 . S
C5382 C5384 1.391 . S
C5383 C5382 1.386 . S
C5383 C5387 1.393 . S
C5384 H5373 0.950 . S
C5384 C5382 1.391 . S
C5384 C5385 1.317 1_565 S
C5385 C5379 1.602 . S
C5385 C5384 1.317 1_545 S
C5385 C5386 1.374 1_545 S
C5386 H5374 0.950 1_565 S
C5386 C5385 1.374 1_565 S
C5386 C5387 1.391 . S
C5387 H5375 0.950 . S
C5387 C5383 1.393 . S
C5387 C5386 1.391 . S
H5388 C5396 0.950 . S
H5389 C5401 0.950 . S
H5390 C5398 0.950 . S
H5391 C5400 0.950 . S
H5392 C5402 0.950 . S
H5393 C5404 0.950 . S
H5394 C5406 0.950 . S
H5395 C5407 0.950 . S
C5396 H5388 0.950 . S
C5396 C5397 1.386 . S
C5396 C5398 1.391 . S
C5397 C5396 1.386 . S
C5397 C5401 1.393 . S
C5398 H5390 0.950 . S
C5398 C5396 1.391 . S
C5398 C5399 1.400 . S
C5399 C5398 1.400 . S
C5399 C5400 1.398 . S
C5399 C5405 1.491 . S
C5400 H5391 0.950 . S
C5400 C5399 1.398 . S
C5400 C5401 1.391 . S
C5401 H5389 0.950 . S
C5401 C5397 1.393 . S
C5401 C5400 1.391 . S
C5402 H5392 0.950 . S
C5402 C5403 1.386 . S
C5402 C5404 1.391 . S
C5403 C5402 1.386 . S
C5403 C5407 1.393 . S
C5404 H5393 0.950 . S
C5404 C5402 1.391 . S
C5404 C5405 1.400 . S
C5405 C5399 1.491 . S
C5405 C5404 1.400 . S
C5405 C5406 1.398 . S
C5406 H5394 0.950 . S
C5406 C5405 1.398 . S
C5406 C5407 1.391 . S
C5407 H5395 0.950 . S
C5407 C5403 1.393 . S
C5407 C5406 1.391 . S
H5408 C5416 0.950 . S
H5409 C5421 0.950 . S
H5410 C5418 0.950 . S
H5411 C5420 0.950 . S
H5412 C5422 0.950 . S
H5413 C5424 0.950 . S
H5414 C5426 0.864 1_554 S
H5415 C5427 0.950 . S
C5416 H5408 0.950 . S
C5416 C5417 1.386 . S
C5416 C5418 1.391 . S
C5417 C5416 1.386 . S
C5417 C5421 1.393 . S
C5418 H5410 0.950 . S
C5418 C5416 1.391 . S
C5418 C5419 1.400 . S
C5419 C5418 1.400 . S
C5419 C5420 1.398 . S
C5419 C5425 1.603 . S
C5420 H5411 0.950 . S
C5420 C5419 1.398 . S
C5420 C5421 1.391 . S
C5421 H5409 0.950 . S
C5421 C5417 1.393 . S
C5421 C5420 1.391 . S
C5422 H5412 0.950 . S
C5422 C5423 1.386 . S
C5422 C5424 1.391 . S
C5423 C5422 1.386 . S
C5423 C5427 1.393 . S
C5424 H5413 0.950 . S
C5424 C5422 1.391 . S
C5424 C5425 1.312 1_556 S
C5425 C5419 1.603 . S
C5425 C5424 1.312 1_554 S
C5425 C5426 1.369 1_554 S
C5426 H5414 0.864 1_556 S
C5426 C5425 1.369 1_556 S
C5426 C5427 1.506 . S
C5427 H5415 0.950 . S
C5427 C5423 1.393 . S
C5427 C5426 1.506 . S
H5428 C5436 0.950 . S
H5429 C5441 0.950 . S
H5430 C5438 0.950 . S
H5431 C5440 0.950 . S
H5432 C5442 0.950 . S
H5433 C5444 0.950 . S
H5434 C5446 0.863 1_556 S
H5435 C5447 0.950 . S
C5436 H5428 0.950 . S
C5436 C5437 1.386 . S
C5436 C5438 1.391 . S
C5437 C5436 1.386 . S
C5437 C5441 1.393 . S
C5438 H5430 0.950 . S
C5438 C5436 1.391 . S
C5438 C5439 1.400 . S
C5439 C5438 1.400 . S
C5439 C5440 1.398 . S
C5439 C5445 1.614 . S
C5440 H5431 0.950 . S
C5440 C5439 1.398 . S
C5440 C5441 1.391 . S
C5441 H5429 0.950 . S
C5441 C5437 1.393 . S
C5441 C5440 1.391 . S
C5442 H5432 0.950 . S
C5442 C5443 1.386 . S
C5442 C5444 1.391 . S
C5443 C5442 1.386 . S
C5443 C5447 1.393 . S
C5444 H5433 0.950 . S
C5444 C5442 1.391 . S
C5444 C5445 1.307 1_554 S
C5445 C5439 1.614 . S
C5445 C5444 1.307 1_556 S
C5445 C5446 1.365 1_556 S
C5446 H5434 0.863 1_554 S
C5446 C5445 1.365 1_554 S
C5446 C5447 1.511 . S
C5447 H5435 0.950 . S
C5447 C5443 1.393 . S
C5447 C5446 1.511 . S
H5448 C5456 0.950 . S
H5449 C5461 0.950 . S
H5450 C5458 0.950 . S
H5451 C5460 0.950 . S
H5452 C5462 0.950 . S
H5453 C5464 0.950 . S
H5454 C5466 0.950 . S
H5455 C5467 0.950 . S
C5456 H5448 0.950 . S
C5456 C5457 1.386 . S
C5456 C5458 1.391 . S
C5457 C5456 1.386 . S
C5457 C5461 1.393 . S
C5458 H5450 0.950 . S
C5458 C5456 1.391 . S
C5458 C5459 1.400 . S
C5459 C5458 1.400 . S
C5459 C5460 1.398 . S
C5459 C5465 1.491 . S
C5460 H5451 0.950 . S
C5460 C5459 1.398 . S
C5460 C5461 1.391 . S
C5461 H5449 0.950 . S
C5461 C5457 1.393 . S
C5461 C5460 1.391 . S
C5462 H5452 0.950 . S
C5462 C5463 1.386 . S
C5462 C5464 1.391 . S
C5463 C5462 1.386 . S
C5463 C5467 1.393 . S
C5464 H5453 0.950 . S
C5464 C5462 1.391 . S
C5464 C5465 1.400 . S
C5465 C5459 1.491 . S
C5465 C5464 1.400 . S
C5465 C5466 1.398 . S
C5466 H5454 0.950 . S
C5466 C5465 1.398 . S
C5466 C5467 1.391 . S
C5467 H5455 0.950 . S
C5467 C5463 1.393 . S
C5467 C5466 1.391 . S
H5468 C5476 0.950 . S
H5469 C5481 0.950 . S
H5470 C5478 0.950 . S
H5471 C5480 0.950 . S
H5472 C5482 0.950 . S
H5473 C5484 0.950 . S
H5474 C5486 0.950 . S
H5475 C5487 0.950 . S
C5476 H5468 0.950 . S
C5476 C5477 1.386 . S
C5476 C5478 1.391 . S
C5477 C5476 1.386 . S
C5477 C5481 1.393 . S
C5478 H5470 0.950 . S
C5478 C5476 1.391 . S
C5478 C5479 1.400 . S
C5479 C5478 1.400 . S
C5479 C5480 1.398 . S
C5479 C5485 1.491 . S
C5480 H5471 0.950 . S
C5480 C5479 1.398 . S
C5480 C5481 1.391 . S
C5481 H5469 0.950 . S
C5481 C5477 1.393 . S
C5481 C5480 1.391 . S
C5482 H5472 0.950 . S
C5482 C5483 1.386 . S
C5482 C5484 1.391 . S
C5483 C5482 1.386 . S
C5483 C5487 1.393 . S
C5484 H5473 0.950 . S
C5484 C5482 1.391 . S
C5484 C5485 1.400 . S
C5485 C5479 1.491 . S
C5485 C5484 1.400 . S
C5485 C5486 1.398 . S
C5486 H5474 0.950 . S
C5486 C5485 1.398 . S
C5486 C5487 1.391 . S
C5487 H5475 0.950 . S
C5487 C5483 1.393 . S
C5487 C5486 1.391 . S
H5488 C5496 0.950 . S
H5489 C5501 0.950 . S
H5490 C5498 0.950 . S
H5491 C5500 0.950 . S
H5492 C5502 0.950 . S
H5493 C5504 0.950 . S
H5494 C5506 0.950 . S
H5495 C5507 0.950 . S
C5496 H5488 0.950 . S
C5496 C5497 1.386 . S
C5496 C5498 1.391 . S
C5497 C5496 1.386 . S
C5497 C5501 1.393 . S
C5498 H5490 0.950 . S
C5498 C5496 1.391 . S
C5498 C5499 1.400 . S
C5499 C5498 1.400 . S
C5499 C5500 1.398 . S
C5499 C5505 1.491 . S
C5500 H5491 0.950 . S
C5500 C5499 1.398 . S
C5500 C5501 1.391 . S
C5501 H5489 0.950 . S
C5501 C5497 1.393 . S
C5501 C5500 1.391 . S
C5502 H5492 0.950 . S
C5502 C5503 1.386 . S
C5502 C5504 1.391 . S
C5503 C5502 1.386 . S
C5503 C5507 1.393 . S
C5504 H5493 0.950 . S
C5504 C5502 1.391 . S
C5504 C5505 1.400 . S
C5505 C5499 1.491 . S
C5505 C5504 1.400 . S
C5505 C5506 1.398 . S
C5506 H5494 0.950 . S
C5506 C5505 1.398 . S
C5506 C5507 1.391 . S
C5507 H5495 0.950 . S
C5507 C5503 1.393 . S
C5507 C5506 1.391 . S
H5508 C5516 0.950 . S
H5509 C5521 0.950 . S
H5510 C5518 0.950 . S
H5511 C5520 0.950 . S
H5512 C5522 0.950 . S
H5513 C5524 0.950 . S
H5514 C5526 0.950 . S
H5515 C5527 0.950 . S
C5516 H5508 0.950 . S
C5516 C5517 1.386 . S
C5516 C5518 1.391 . S
C5517 C5516 1.386 . S
C5517 C5521 1.393 . S
C5518 H5510 0.950 . S
C5518 C5516 1.391 . S
C5518 C5519 1.400 . S
C5519 C5518 1.400 . S
C5519 C5520 1.398 . S
C5519 C5525 1.491 . S
C5520 H5511 0.950 . S
C5520 C5519 1.398 . S
C5520 C5521 1.391 . S
C5521 H5509 0.950 . S
C5521 C5517 1.393 . S
C5521 C5520 1.391 . S
C5522 H5512 0.950 . S
C5522 C5523 1.386 . S
C5522 C5524 1.391 . S
C5523 C5522 1.386 . S
C5523 C5527 1.393 . S
C5524 H5513 0.950 . S
C5524 C5522 1.391 . S
C5524 C5525 1.400 . S
C5525 C5519 1.491 . S
C5525 C5524 1.400 . S
C5525 C5526 1.398 . S
C5526 H5514 0.950 . S
C5526 C5525 1.398 . S
C5526 C5527 1.391 . S
C5527 H5515 0.950 . S
C5527 C5523 1.393 . S
C5527 C5526 1.391 . S
H5528 C5536 0.950 . S
H5529 C5541 0.950 . S
H5530 C5538 0.950 . S
H5531 C5540 0.950 . S
H5532 C5542 0.950 . S
H5533 C5544 0.950 . S
H5534 C5546 0.950 . S
H5535 C5547 0.950 . S
C5536 H5528 0.950 . S
C5536 C5537 1.386 . S
C5536 C5538 1.391 . S
C5537 C5536 1.386 . S
C5537 C5541 1.393 . S
C5538 H5530 0.950 . S
C5538 C5536 1.391 . S
C5538 C5539 1.400 . S
C5539 C5538 1.400 . S
C5539 C5540 1.398 . S
C5539 C5545 1.491 . S
C5540 H5531 0.950 . S
C5540 C5539 1.398 . S
C5540 C5541 1.391 . S
C5541 H5529 0.950 . S
C5541 C5537 1.393 . S
C5541 C5540 1.391 . S
C5542 H5532 0.950 . S
C5542 C5543 1.386 . S
C5542 C5544 1.391 . S
C5543 C5542 1.386 . S
C5543 C5547 1.393 . S
C5544 H5533 0.950 . S
C5544 C5542 1.391 . S
C5544 C5545 1.400 . S
C5545 C5539 1.491 . S
C5545 C5544 1.400 . S
C5545 C5546 1.398 . S
C5546 H5534 0.950 . S
C5546 C5545 1.398 . S
C5546 C5547 1.391 . S
C5547 H5535 0.950 . S
C5547 C5543 1.393 . S
C5547 C5546 1.391 . S
H5548 C5556 0.950 . S
H5549 C5561 0.950 . S
H5550 C5558 0.950 . S
H5551 C5560 0.950 . S
H5552 C5562 0.950 . S
H5553 C5564 0.950 . S
H5554 C5566 0.950 . S
H5555 C5567 0.950 . S
C5556 H5548 0.950 . S
C5556 C5557 1.386 . S
C5556 C5558 1.391 . S
C5557 C5556 1.386 . S
C5557 C5561 1.393 . S
C5558 H5550 0.950 . S
C5558 C5556 1.391 . S
C5558 C5559 1.400 . S
C5559 C5558 1.400 . S
C5559 C5560 1.398 . S
C5559 C5565 1.491 . S
C5560 H5551 0.950 . S
C5560 C5559 1.398 . S
C5560 C5561 1.391 . S
C5561 H5549 0.950 . S
C5561 C5557 1.393 . S
C5561 C5560 1.391 . S
C5562 H5552 0.950 . S
C5562 C5563 1.386 . S
C5562 C5564 1.391 . S
C5563 C5562 1.386 . S
C5563 C5567 1.393 . S
C5564 H5553 0.950 . S
C5564 C5562 1.391 . S
C5564 C5565 1.400 . S
C5565 C5559 1.491 . S
C5565 C5564 1.400 . S
C5565 C5566 1.398 . S
C5566 H5554 0.950 . S
C5566 C5565 1.398 . S
C5566 C5567 1.391 . S
C5567 H5555 0.950 . S
C5567 C5563 1.393 . S
C5567 C5566 1.391 . S
H5568 C5576 0.950 . S
H5569 C5581 0.950 . S
H5570 C5578 0.950 . S
H5571 C5580 0.950 . S
H5572 C5582 0.950 . S
H5573 C5584 0.862 1_655 S
H5574 C5586 0.950 . S
H5575 C5587 0.950 . S
C5576 H5568 0.950 . S
C5576 C5577 1.386 . S
C5576 C5578 1.391 . S
C5577 C5576 1.386 . S
C5577 C5581 1.393 . S
C5578 H5570 0.950 . S
C5578 C5576 1.391 . S
C5578 C5579 1.400 . S
C5579 C5578 1.400 . S
C5579 C5580 1.398 . S
C5579 C5585 1.613 . S
C5580 H5571 0.950 . S
C5580 C5579 1.398 . S
C5580 C5581 1.391 . S
C5581 H5569 0.950 . S
C5581 C5577 1.393 . S
C5581 C5580 1.391 . S
C5582 H5572 0.950 . S
C5582 C5583 1.386 . S
C5582 C5584 1.513 . S
C5583 C5582 1.386 . S
C5583 C5587 1.393 . S
C5584 H5573 0.862 1_455 S
C5584 C5582 1.513 . S
C5584 C5585 1.367 1_455 S
C5585 C5579 1.613 . S
C5585 C5584 1.367 1_655 S
C5585 C5586 1.306 1_655 S
C5586 H5574 0.950 . S
C5586 C5585 1.306 1_455 S
C5586 C5587 1.391 . S
C5587 H5575 0.950 . S
C5587 C5583 1.393 . S
C5587 C5586 1.391 . S
H5588 C5596 0.950 . S
H5589 C5601 0.950 . S
H5590 C5598 0.950 . S
H5591 C5600 0.950 . S
H5592 C5602 0.950 . S
H5593 C5604 0.950 . S
H5594 C5606 0.950 . S
H5595 C5607 0.950 . S
C5596 H5588 0.950 . S
C5596 C5597 1.386 . S
C5596 C5598 1.391 . S
C5597 C5596 1.386 . S
C5597 C5601 1.393 . S
C5598 H5590 0.950 . S
C5598 C5596 1.391 . S
C5598 C5599 1.400 . S
C5599 C5598 1.400 . S
C5599 C5600 1.398 . S
C5599 C5605 1.491 . S
C5600 H5591 0.950 . S
C5600 C5599 1.398 . S
C5600 C5601 1.391 . S
C5601 H5589 0.950 . S
C5601 C5597 1.393 . S
C5601 C5600 1.391 . S
C5602 H5592 0.950 . S
C5602 C5603 1.386 . S
C5602 C5604 1.391 . S
C5603 C5602 1.386 . S
C5603 C5607 1.393 . S
C5604 H5593 0.950 . S
C5604 C5602 1.391 . S
C5604 C5605 1.400 . S
C5605 C5599 1.491 . S
C5605 C5604 1.400 . S
C5605 C5606 1.398 . S
C5606 H5594 0.950 . S
C5606 C5605 1.398 . S
C5606 C5607 1.391 . S
C5607 H5595 0.950 . S
C5607 C5603 1.393 . S
C5607 C5606 1.391 . S
H5608 C5616 0.950 . S
H5609 C5621 0.950 . S
H5610 C5618 0.950 . S
H5611 C5620 0.950 . S
H5612 C5622 0.950 . S
H5613 C5624 0.950 . S
H5614 C5626 0.950 . S
H5615 C5627 0.950 . S
C5616 H5608 0.950 . S
C5616 C5617 1.386 . S
C5616 C5618 1.391 . S
C5617 C5616 1.386 . S
C5617 C5621 1.393 . S
C5618 H5610 0.950 . S
C5618 C5616 1.391 . S
C5618 C5619 1.400 . S
C5619 C5618 1.400 . S
C5619 C5620 1.398 . S
C5619 C5625 1.491 . S
C5620 H5611 0.950 . S
C5620 C5619 1.398 . S
C5620 C5621 1.391 . S
C5621 H5609 0.950 . S
C5621 C5617 1.393 . S
C5621 C5620 1.391 . S
C5622 H5612 0.950 . S
C5622 C5623 1.386 . S
C5622 C5624 1.391 . S
C5623 C5622 1.386 . S
C5623 C5627 1.393 . S
C5624 H5613 0.950 . S
C5624 C5622 1.391 . S
C5624 C5625 1.400 . S
C5625 C5619 1.491 . S
C5625 C5624 1.400 . S
C5625 C5626 1.398 . S
C5626 H5614 0.950 . S
C5626 C5625 1.398 . S
C5626 C5627 1.391 . S
C5627 H5615 0.950 . S
C5627 C5623 1.393 . S
C5627 C5626 1.391 . S
H5628 C5636 0.950 . S
H5629 C5641 0.950 . S
H5630 C5638 0.950 . S
H5631 C5640 0.950 . S
H5632 C5642 0.950 . S
H5633 C5644 0.950 . S
H5634 C5646 0.950 . S
H5635 C5647 0.950 . S
C5636 H5628 0.950 . S
C5636 C5637 1.386 . S
C5636 C5638 1.391 . S
C5637 C5636 1.386 . S
C5637 C5641 1.393 . S
C5638 H5630 0.950 . S
C5638 C5636 1.391 . S
C5638 C5639 1.400 . S
C5639 C5638 1.400 . S
C5639 C5640 1.398 . S
C5639 C5645 1.491 . S
C5640 H5631 0.950 . S
C5640 C5639 1.398 . S
C5640 C5641 1.391 . S
C5641 H5629 0.950 . S
C5641 C5637 1.393 . S
C5641 C5640 1.391 . S
C5642 H5632 0.950 . S
C5642 C5643 1.386 . S
C5642 C5644 1.391 . S
C5643 C5642 1.386 . S
C5643 C5647 1.393 . S
C5644 H5633 0.950 . S
C5644 C5642 1.391 . S
C5644 C5645 1.400 . S
C5645 C5639 1.491 . S
C5645 C5644 1.400 . S
C5645 C5646 1.398 . S
C5646 H5634 0.950 . S
C5646 C5645 1.398 . S
C5646 C5647 1.391 . S
C5647 H5635 0.950 . S
C5647 C5643 1.393 . S
C5647 C5646 1.391 . S
H5648 C5656 0.950 . S
H5649 C5661 0.950 . S
H5650 C5658 0.950 . S
H5651 C5660 0.950 . S
H5652 C5662 0.950 . S
H5653 C5664 0.950 . S
H5654 C5666 0.916 1_655 S
H5655 C5667 0.950 . S
C5656 H5648 0.950 . S
C5656 C5657 1.386 . S
C5656 C5658 1.391 . S
C5657 C5656 1.386 . S
C5657 C5661 1.393 . S
C5658 H5650 0.950 . S
C5658 C5656 1.391 . S
C5658 C5659 1.400 . S
C5659 C5658 1.400 . S
C5659 C5660 1.398 . S
C5659 C5665 1.616 . S
C5660 H5651 0.950 . S
C5660 C5659 1.398 . S
C5660 C5661 1.391 . S
C5661 H5649 0.950 . S
C5661 C5657 1.393 . S
C5661 C5660 1.391 . S
C5662 H5652 0.950 . S
C5662 C5663 1.386 . S
C5662 C5664 1.391 . S
C5663 C5662 1.386 . S
C5663 C5667 1.393 . S
C5664 H5653 0.950 . S
C5664 C5662 1.391 . S
C5664 C5665 1.333 1_455 S
C5665 C5659 1.616 . S
C5665 C5664 1.333 1_655 S
C5665 C5666 1.348 1_655 S
C5666 H5654 0.916 1_455 S
C5666 C5665 1.348 1_455 S
C5666 C5667 1.391 . S
C5667 H5655 0.950 . S
C5667 C5663 1.393 . S
C5667 C5666 1.391 . S
H5668 C5676 0.950 . S
H5669 C5681 0.950 . S
H5670 C5678 0.950 . S
H5671 C5680 0.950 . S
H5672 C5682 0.950 . S
H5673 C5684 0.950 . S
H5674 C5686 0.950 . S
H5675 C5687 0.950 . S
C5676 H5668 0.950 . S
C5676 C5677 1.386 . S
C5676 C5678 1.391 . S
C5677 C5676 1.386 . S
C5677 C5681 1.393 . S
C5678 H5670 0.950 . S
C5678 C5676 1.391 . S
C5678 C5679 1.400 . S
C5679 C5678 1.400 . S
C5679 C5680 1.398 . S
C5679 C5685 1.491 . S
C5680 H5671 0.950 . S
C5680 C5679 1.398 . S
C5680 C5681 1.391 . S
C5681 H5669 0.950 . S
C5681 C5677 1.393 . S
C5681 C5680 1.391 . S
C5682 H5672 0.950 . S
C5682 C5683 1.386 . S
C5682 C5684 1.391 . S
C5683 C5682 1.386 . S
C5683 C5687 1.393 . S
C5684 H5673 0.950 . S
C5684 C5682 1.391 . S
C5684 C5685 1.400 . S
C5685 C5679 1.491 . S
C5685 C5684 1.400 . S
C5685 C5686 1.398 . S
C5686 H5674 0.950 . S
C5686 C5685 1.398 . S
C5686 C5687 1.391 . S
C5687 H5675 0.950 . S
C5687 C5683 1.393 . S
C5687 C5686 1.391 . S
H5688 C5696 0.950 . S
H5689 C5701 0.950 . S
H5690 C5698 0.950 . S
H5691 C5700 0.950 . S
H5692 C5702 0.950 . S
H5693 C5704 0.950 . S
H5694 C5706 0.950 . S
H5695 C5707 0.950 . S
C5696 H5688 0.950 . S
C5696 C5697 1.386 . S
C5696 C5698 1.391 . S
C5697 C5696 1.386 . S
C5697 C5701 1.393 . S
C5698 H5690 0.950 . S
C5698 C5696 1.391 . S
C5698 C5699 1.400 . S
C5699 C5698 1.400 . S
C5699 C5700 1.398 . S
C5699 C5705 1.491 . S
C5700 H5691 0.950 . S
C5700 C5699 1.398 . S
C5700 C5701 1.391 . S
C5701 H5689 0.950 . S
C5701 C5697 1.393 . S
C5701 C5700 1.391 . S
C5702 H5692 0.950 . S
C5702 C5703 1.386 . S
C5702 C5704 1.391 . S
C5703 C5702 1.386 . S
C5703 C5707 1.393 . S
C5704 H5693 0.950 . S
C5704 C5702 1.391 . S
C5704 C5705 1.400 . S
C5705 C5699 1.491 . S
C5705 C5704 1.400 . S
C5705 C5706 1.398 . S
C5706 H5694 0.950 . S
C5706 C5705 1.398 . S
C5706 C5707 1.391 . S
C5707 H5695 0.950 . S
C5707 C5703 1.393 . S
C5707 C5706 1.391 . S
H5708 C5716 0.950 . S
H5709 C5721 0.950 . S
H5710 C5718 0.950 . S
H5711 C5720 0.950 . S
H5712 C5722 0.950 . S
H5713 C5724 0.950 . S
H5714 C5726 0.950 . S
H5715 C5727 0.950 . S
C5716 H5708 0.950 . S
C5716 C5717 1.386 . S
C5716 C5718 1.391 . S
C5717 C5716 1.386 . S
C5717 C5721 1.393 . S
C5718 H5710 0.950 . S
C5718 C5716 1.391 . S
C5718 C5719 1.400 . S
C5719 C5718 1.400 . S
C5719 C5720 1.398 . S
C5719 C5725 1.491 . S
C5720 H5711 0.950 . S
C5720 C5719 1.398 . S
C5720 C5721 1.391 . S
C5721 H5709 0.950 . S
C5721 C5717 1.393 . S
C5721 C5720 1.391 . S
C5722 H5712 0.950 . S
C5722 C5723 1.386 . S
C5722 C5724 1.391 . S
C5723 C5722 1.386 . S
C5723 C5727 1.393 . S
C5724 H5713 0.950 . S
C5724 C5722 1.391 . S
C5724 C5725 1.400 . S
C5725 C5719 1.491 . S
C5725 C5724 1.400 . S
C5725 C5726 1.398 . S
C5726 H5714 0.950 . S
C5726 C5725 1.398 . S
C5726 C5727 1.391 . S
C5727 H5715 0.950 . S
C5727 C5723 1.393 . S
C5727 C5726 1.391 . S
H5728 C5736 0.950 . S
H5729 C5741 0.950 . S
H5730 C5738 0.950 . S
H5731 C5740 0.950 . S
H5732 C5742 0.950 . S
H5733 C5744 0.929 1_565 S
H5734 C5746 0.950 . S
H5735 C5747 0.950 . S
C5736 H5728 0.950 . S
C5736 C5737 1.386 . S
C5736 C5738 1.391 . S
C5737 C5736 1.386 . S
C5737 C5741 1.393 . S
C5738 H5730 0.950 . S
C5738 C5736 1.391 . S
C5738 C5739 1.400 . S
C5739 C5738 1.400 . S
C5739 C5740 1.398 . S
C5739 C5745 1.604 . S
C5740 H5731 0.950 . S
C5740 C5739 1.398 . S
C5740 C5741 1.391 . S
C5741 H5729 0.950 . S
C5741 C5737 1.393 . S
C5741 C5740 1.391 . S
C5742 H5732 0.950 . S
C5742 C5743 1.386 . S
C5742 C5744 1.415 . S
C5743 C5742 1.386 . S
C5743 C5747 1.393 . S
C5744 H5733 0.929 1_545 S
C5744 C5742 1.415 . S
C5744 C5745 1.388 1_545 S
C5745 C5739 1.604 . S
C5745 C5744 1.388 1_565 S
C5745 C5746 1.300 1_565 S
C5746 H5734 0.950 . S
C5746 C5745 1.300 1_545 S
C5746 C5747 1.391 . S
C5747 H5735 0.950 . S
C5747 C5743 1.393 . S
C5747 C5746 1.391 . S
H5748 C5756 0.950 . S
H5749 C5761 0.950 . S
H5750 C5758 0.950 . S
H5751 C5760 0.950 . S
H5752 C5762 0.950 . S
H5753 C5764 0.950 . S
H5754 C5766 0.950 . S
H5755 C5767 0.950 . S
C5756 H5748 0.950 . S
C5756 C5757 1.386 . S
C5756 C5758 1.391 . S
C5757 C5756 1.386 . S
C5757 C5761 1.393 . S
C5758 H5750 0.950 . S
C5758 C5756 1.391 . S
C5758 C5759 1.400 . S
C5759 C5758 1.400 . S
C5759 C5760 1.398 . S
C5759 C5765 1.491 . S
C5760 H5751 0.950 . S
C5760 C5759 1.398 . S
C5760 C5761 1.391 . S
C5761 H5749 0.950 . S
C5761 C5757 1.393 . S
C5761 C5760 1.391 . S
C5762 H5752 0.950 . S
C5762 C5763 1.386 . S
C5762 C5764 1.391 . S
C5763 C5762 1.386 . S
C5763 C5767 1.393 . S
C5764 H5753 0.950 . S
C5764 C5762 1.391 . S
C5764 C5765 1.400 . S
C5765 C5759 1.491 . S
C5765 C5764 1.400 . S
C5765 C5766 1.398 . S
C5766 H5754 0.950 . S
C5766 C5765 1.398 . S
C5766 C5767 1.391 . S
C5767 H5755 0.950 . S
C5767 C5763 1.393 . S
C5767 C5766 1.391 . S
H5768 C5776 0.950 . S
H5769 C5781 0.950 . S
H5770 C5778 0.950 . S
H5771 C5780 0.950 . S
H5772 C5782 0.950 . S
H5773 C5784 0.961 1_545 S
H5774 C5786 0.950 . S
H5775 C5787 0.950 . S
C5776 H5768 0.950 . S
C5776 C5777 1.386 . S
C5776 C5778 1.391 . S
C5777 C5776 1.386 . S
C5777 C5781 1.393 . S
C5778 H5770 0.950 . S
C5778 C5776 1.391 . S
C5778 C5779 1.400 . S
C5779 C5778 1.400 . S
C5779 C5780 1.398 . S
C5779 C5785 1.606 . S
C5780 H5771 0.950 . S
C5780 C5779 1.398 . S
C5780 C5781 1.391 . S
C5781 H5769 0.950 . S
C5781 C5777 1.393 . S
C5781 C5780 1.391 . S
C5782 H5772 0.950 . S
C5782 C5783 1.386 . S
C5782 C5784 1.379 . S
C5783 C5782 1.386 . S
C5783 C5787 1.393 . S
C5784 H5773 0.961 1_565 S
C5784 C5782 1.379 . S
C5784 C5785 1.393 1_565 S
C5785 C5779 1.606 . S
C5785 C5784 1.393 1_545 S
C5785 C5786 1.295 1_545 S
C5786 H5774 0.950 . S
C5786 C5785 1.295 1_565 S
C5786 C5787 1.391 . S
C5787 H5775 0.950 . S
C5787 C5783 1.393 . S
C5787 C5786 1.391 . S
H5788 C5796 0.950 . S
H5789 C5801 0.950 . S
H5790 C5798 0.950 . S
H5791 C5800 0.950 . S
H5792 C5802 0.950 . S
H5793 C5804 0.950 . S
H5794 C5806 0.950 . S
H5795 C5807 0.950 . S
C5796 H5788 0.950 . S
C5796 C5797 1.386 . S
C5796 C5798 1.391 . S
C5797 C5796 1.386 . S
C5797 C5801 1.393 . S
C5798 H5790 0.950 . S
C5798 C5796 1.391 . S
C5798 C5799 1.400 . S
C5799 C5798 1.400 . S
C5799 C5800 1.398 . S
C5799 C5805 1.491 . S
C5800 H5791 0.950 . S
C5800 C5799 1.398 . S
C5800 C5801 1.391 . S
C5801 H5789 0.950 . S
C5801 C5797 1.393 . S
C5801 C5800 1.391 . S
C5802 H5792 0.950 . S
C5802 C5803 1.386 . S
C5802 C5804 1.391 . S
C5803 C5802 1.386 . S
C5803 C5807 1.393 . S
C5804 H5793 0.950 . S
C5804 C5802 1.391 . S
C5804 C5805 1.400 . S
C5805 C5799 1.491 . S
C5805 C5804 1.400 . S
C5805 C5806 1.398 . S
C5806 H5794 0.950 . S
C5806 C5805 1.398 . S
C5806 C5807 1.391 . S
C5807 H5795 0.950 . S
C5807 C5803 1.393 . S
C5807 C5806 1.391 . S
H5808 C5816 0.950 . S
H5809 C5821 0.950 . S
H5810 C5818 0.950 . S
H5811 C5820 0.950 . S
H5812 C5822 0.950 . S
H5813 C5824 0.950 . S
H5814 C5826 0.939 1_545 S
H5815 C5827 0.950 . S
C5816 H5808 0.950 . S
C5816 C5817 1.386 . S
C5816 C5818 1.391 . S
C5817 C5816 1.386 . S
C5817 C5821 1.393 . S
C5818 H5810 0.950 . S
C5818 C5816 1.391 . S
C5818 C5819 1.400 . S
C5819 C5818 1.400 . S
C5819 C5820 1.398 . S
C5819 C5825 1.612 . S
C5820 H5811 0.950 . S
C5820 C5819 1.398 . S
C5820 C5821 1.391 . S
C5821 H5809 0.950 . S
C5821 C5817 1.393 . S
C5821 C5820 1.391 . S
C5822 H5812 0.950 . S
C5822 C5823 1.386 . S
C5822 C5824 1.391 . S
C5823 C5822 1.386 . S
C5823 C5827 1.393 . S
C5824 H5813 0.950 . S
C5824 C5822 1.391 . S
C5824 C5825 1.296 1_565 S
C5825 C5819 1.612 . S
C5825 C5824 1.296 1_545 S
C5825 C5826 1.386 1_545 S
C5826 H5814 0.939 1_565 S
C5826 C5825 1.386 1_565 S
C5826 C5827 1.403 . S
C5827 H5815 0.950 . S
C5827 C5823 1.393 . S
C5827 C5826 1.403 . S
H5828 C5836 0.950 . S
H5829 C5841 0.950 . S
H5830 C5838 0.950 . S
H5831 C5840 0.950 . S
H5832 C5842 0.950 . S
H5833 C5844 0.950 . S
H5834 C5846 0.950 . S
H5835 C5847 0.950 . S
C5836 H5828 0.950 . S
C5836 C5837 1.386 . S
C5836 C5838 1.391 . S
C5837 C5836 1.386 . S
C5837 C5841 1.393 . S
C5838 H5830 0.950 . S
C5838 C5836 1.391 . S
C5838 C5839 1.400 . S
C5839 C5838 1.400 . S
C5839 C5840 1.398 . S
C5839 C5845 1.491 . S
C5840 H5831 0.950 . S
C5840 C5839 1.398 . S
C5840 C5841 1.391 . S
C5841 H5829 0.950 . S
C5841 C5837 1.393 . S
C5841 C5840 1.391 . S
C5842 H5832 0.950 . S
C5842 C5843 1.386 . S
C5842 C5844 1.391 . S
C5843 C5842 1.386 . S
C5843 C5847 1.393 . S
C5844 H5833 0.950 . S
C5844 C5842 1.391 . S
C5844 C5845 1.400 . S
C5845 C5839 1.491 . S
C5845 C5844 1.400 . S
C5845 C5846 1.398 . S
C5846 H5834 0.950 . S
C5846 C5845 1.398 . S
C5846 C5847 1.391 . S
C5847 H5835 0.950 . S
C5847 C5843 1.393 . S
C5847 C5846 1.391 . S
H5848 C5856 0.950 . S
H5849 C5861 0.950 . S
H5850 C5858 0.950 . S
H5851 C5860 0.950 . S
H5852 C5862 0.950 . S
H5853 C5864 0.950 . S
H5854 C5866 0.956 1_565 S
H5855 C5867 0.950 . S
C5856 H5848 0.950 . S
C5856 C5857 1.386 . S
C5856 C5858 1.391 . S
C5857 C5856 1.386 . S
C5857 C5861 1.393 . S
C5858 H5850 0.950 . S
C5858 C5856 1.391 . S
C5858 C5859 1.400 . S
C5859 C5858 1.400 . S
C5859 C5860 1.398 . S
C5859 C5865 1.606 . S
C5860 H5851 0.950 . S
C5860 C5859 1.398 . S
C5860 C5861 1.391 . S
C5861 H5849 0.950 . S
C5861 C5857 1.393 . S
C5861 C5860 1.391 . S
C5862 H5852 0.950 . S
C5862 C5863 1.386 . S
C5862 C5864 1.391 . S
C5863 C5862 1.386 . S
C5863 C5867 1.393 . S
C5864 H5853 0.950 . S
C5864 C5862 1.391 . S
C5864 C5865 1.297 1_545 S
C5865 C5859 1.606 . S
C5865 C5864 1.297 1_565 S
C5865 C5866 1.390 1_565 S
C5866 H5854 0.956 1_545 S
C5866 C5865 1.390 1_545 S
C5866 C5867 1.384 . S
C5867 H5855 0.950 . S
C5867 C5863 1.393 . S
C5867 C5866 1.384 . S
H5868 C5876 0.950 . S
H5869 C5881 0.950 . S
H5870 C5878 0.950 . S
H5871 C5880 0.950 . S
H5872 C5882 0.950 . S
H5873 C5884 0.950 . S
H5874 C5886 0.950 . S
H5875 C5887 0.950 . S
C5876 H5868 0.950 . S
C5876 C5877 1.386 . S
C5876 C5878 1.391 . S
C5877 C5876 1.386 . S
C5877 C5881 1.393 . S
C5878 H5870 0.950 . S
C5878 C5876 1.391 . S
C5878 C5879 1.400 . S
C5879 C5878 1.400 . S
C5879 C5880 1.398 . S
C5879 C5885 1.491 . S
C5880 H5871 0.950 . S
C5880 C5879 1.398 . S
C5880 C5881 1.391 . S
C5881 H5869 0.950 . S
C5881 C5877 1.393 . S
C5881 C5880 1.391 . S
C5882 H5872 0.950 . S
C5882 C5883 1.386 . S
C5882 C5884 1.391 . S
C5883 C5882 1.386 . S
C5883 C5887 1.393 . S
C5884 H5873 0.950 . S
C5884 C5882 1.391 . S
C5884 C5885 1.400 . S
C5885 C5879 1.491 . S
C5885 C5884 1.400 . S
C5885 C5886 1.398 . S
C5886 H5874 0.950 . S
C5886 C5885 1.398 . S
C5886 C5887 1.391 . S
C5887 H5875 0.950 . S
C5887 C5883 1.393 . S
C5887 C5886 1.391 . S
H5888 C5896 0.950 . S
H5889 C5901 0.950 . S
H5890 C5898 0.950 . S
H5891 C5900 0.950 . S
H5892 C5902 0.950 . S
H5893 C5904 0.867 1_556 S
H5894 C5906 0.950 . S
H5895 C5907 0.950 . S
C5896 H5888 0.950 . S
C5896 C5897 1.386 . S
C5896 C5898 1.391 . S
C5897 C5896 1.386 . S
C5897 C5901 1.393 . S
C5898 H5890 0.950 . S
C5898 C5896 1.391 . S
C5898 C5899 1.400 . S
C5899 C5898 1.400 . S
C5899 C5900 1.398 . S
C5899 C5905 1.599 . S
C5900 H5891 0.950 . S
C5900 C5899 1.398 . S
C5900 C5901 1.391 . S
C5901 H5889 0.950 . S
C5901 C5897 1.393 . S
C5901 C5900 1.391 . S
C5902 H5892 0.950 . S
C5902 C5903 1.386 . S
C5902 C5904 1.391 . S
C5903 C5902 1.386 . S
C5903 C5907 1.393 . S
C5904 H5893 0.867 1_554 S
C5904 C5902 1.391 . S
C5904 C5905 1.363 1_554 S
C5905 C5899 1.599 . S
C5905 C5904 1.363 1_556 S
C5905 C5906 1.330 1_556 S
C5906 H5894 0.950 . S
C5906 C5905 1.330 1_554 S
C5906 C5907 1.391 . S
C5907 H5895 0.950 . S
C5907 C5903 1.393 . S
C5907 C5906 1.391 . S
H5908 C5916 0.950 . S
H5909 C5921 0.950 . S
H5910 C5918 0.950 . S
H5911 C5920 0.950 . S
H5912 C5922 0.950 . S
H5913 C5924 0.950 . S
H5914 C5926 0.950 1_554 S
H5915 C5927 0.950 . S
C5916 H5908 0.950 . S
C5916 C5917 1.386 . S
C5916 C5918 1.391 . S
C5917 C5916 1.386 . S
C5917 C5921 1.393 . S
C5918 H5910 0.950 . S
C5918 C5916 1.391 . S
C5918 C5919 1.400 . S
C5919 C5918 1.400 . S
C5919 C5920 1.398 . S
C5919 C5925 1.615 . S
C5920 H5911 0.950 . S
C5920 C5919 1.398 . S
C5920 C5921 1.391 . S
C5921 H5909 0.950 . S
C5921 C5917 1.393 . S
C5921 C5920 1.391 . S
C5922 H5912 0.950 . S
C5922 C5923 1.386 . S
C5922 C5924 1.391 . S
C5923 C5922 1.386 . S
C5923 C5927 1.393 . S
C5924 H5913 0.950 . S
C5924 C5922 1.391 . S
C5924 C5925 1.317 1_556 S
C5925 C5919 1.615 . S
C5925 C5924 1.317 1_554 S
C5925 C5926 1.365 1_554 S
C5926 H5914 0.950 1_556 S
C5926 C5925 1.365 1_556 S
C5926 C5927 1.391 . S
C5927 H5915 0.950 . S
C5927 C5923 1.393 . S
C5927 C5926 1.391 . S
H5928 C5936 0.950 . S
H5929 C5941 0.950 . S
H5930 C5938 0.950 . S
H5931 C5940 0.950 . S
H5932 C5942 0.950 . S
H5933 C5944 0.950 . S
H5934 C5946 0.950 . S
H5935 C5947 0.950 . S
C5936 H5928 0.950 . S
C5936 C5937 1.386 . S
C5936 C5938 1.391 . S
C5937 C5936 1.386 . S
C5937 C5941 1.393 . S
C5938 H5930 0.950 . S
C5938 C5936 1.391 . S
C5938 C5939 1.400 . S
C5939 C5938 1.400 . S
C5939 C5940 1.398 . S
C5939 C5945 1.491 . S
C5940 H5931 0.950 . S
C5940 C5939 1.398 . S
C5940 C5941 1.391 . S
C5941 H5929 0.950 . S
C5941 C5937 1.393 . S
C5941 C5940 1.391 . S
C5942 H5932 0.950 . S
C5942 C5943 1.386 . S
C5942 C5944 1.391 . S
C5943 C5942 1.386 . S
C5943 C5947 1.393 . S
C5944 H5933 0.950 . S
C5944 C5942 1.391 . S
C5944 C5945 1.400 . S
C5945 C5939 1.491 . S
C5945 C5944 1.400 . S
C5945 C5946 1.398 . S
C5946 H5934 0.950 . S
C5946 C5945 1.398 . S
C5946 C5947 1.391 . S
C5947 H5935 0.950 . S
C5947 C5943 1.393 . S
C5947 C5946 1.391 . S
H5948 C5956 0.950 . S
H5949 C5961 0.950 . S
H5950 C5958 0.950 . S
H5951 C5960 0.950 . S
H5952 C5962 0.950 . S
H5953 C5964 0.950 . S
H5954 C5966 0.950 . S
H5955 C5967 0.950 . S
C5956 H5948 0.950 . S
C5956 C5957 1.386 . S
C5956 C5958 1.391 . S
C5957 C5956 1.386 . S
C5957 C5961 1.393 . S
C5958 H5950 0.950 . S
C5958 C5956 1.391 . S
C5958 C5959 1.400 . S
C5959 C5958 1.400 . S
C5959 C5960 1.398 . S
C5959 C5965 1.491 . S
C5960 H5951 0.950 . S
C5960 C5959 1.398 . S
C5960 C5961 1.391 . S
C5961 H5949 0.950 . S
C5961 C5957 1.393 . S
C5961 C5960 1.391 . S
C5962 H5952 0.950 . S
C5962 C5963 1.386 . S
C5962 C5964 1.391 . S
C5963 C5962 1.386 . S
C5963 C5967 1.393 . S
C5964 H5953 0.950 . S
C5964 C5962 1.391 . S
C5964 C5965 1.400 . S
C5965 C5959 1.491 . S
C5965 C5964 1.400 . S
C5965 C5966 1.398 . S
C5966 H5954 0.950 . S
C5966 C5965 1.398 . S
C5966 C5967 1.391 . S
C5967 H5955 0.950 . S
C5967 C5963 1.393 . S
C5967 C5966 1.391 . S
H5968 C5976 0.950 . S
H5969 C5981 0.950 . S
H5970 C5978 0.950 . S
H5971 C5980 0.950 . S
H5972 C5982 0.950 . S
H5973 C5984 0.950 . S
H5974 C5986 0.950 . S
H5975 C5987 0.950 . S
C5976 H5968 0.950 . S
C5976 C5977 1.386 . S
C5976 C5978 1.391 . S
C5977 C5976 1.386 . S
C5977 C5981 1.393 . S
C5978 H5970 0.950 . S
C5978 C5976 1.391 . S
C5978 C5979 1.400 . S
C5979 C5978 1.400 . S
C5979 C5980 1.398 . S
C5979 C5985 1.491 . S
C5980 H5971 0.950 . S
C5980 C5979 1.398 . S
C5980 C5981 1.391 . S
C5981 H5969 0.950 . S
C5981 C5977 1.393 . S
C5981 C5980 1.391 . S
C5982 H5972 0.950 . S
C5982 C5983 1.386 . S
C5982 C5984 1.391 . S
C5983 C5982 1.386 . S
C5983 C5987 1.393 . S
C5984 H5973 0.950 . S
C5984 C5982 1.391 . S
C5984 C5985 1.400 . S
C5985 C5979 1.491 . S
C5985 C5984 1.400 . S
C5985 C5986 1.398 . S
C5986 H5974 0.950 . S
C5986 C5985 1.398 . S
C5986 C5987 1.391 . S
C5987 H5975 0.950 . S
C5987 C5983 1.393 . S
C5987 C5986 1.391 . S
H5988 C5996 0.950 . S
H5989 C6001 0.950 . S
H5990 C5998 0.950 . S
H5991 C6000 0.950 . S
H5992 C6002 0.950 . S
H5993 C6004 0.950 . S
H5994 C6006 0.950 . S
H5995 C6007 0.950 . S
C5996 H5988 0.950 . S
C5996 C5997 1.386 . S
C5996 C5998 1.391 . S
C5997 C5996 1.386 . S
C5997 C6001 1.393 . S
C5998 H5990 0.950 . S
C5998 C5996 1.391 . S
C5998 C5999 1.400 . S
C5999 C5998 1.400 . S
C5999 C6000 1.398 . S
C5999 C6005 1.491 . S
C6000 H5991 0.950 . S
C6000 C5999 1.398 . S
C6000 C6001 1.391 . S
C6001 H5989 0.950 . S
C6001 C5997 1.393 . S
C6001 C6000 1.391 . S
C6002 H5992 0.950 . S
C6002 C6003 1.386 . S
C6002 C6004 1.391 . S
C6003 C6002 1.386 . S
C6003 C6007 1.393 . S
C6004 H5993 0.950 . S
C6004 C6002 1.391 . S
C6004 C6005 1.400 . S
C6005 C5999 1.491 . S
C6005 C6004 1.400 . S
C6005 C6006 1.398 . S
C6006 H5994 0.950 . S
C6006 C6005 1.398 . S
C6006 C6007 1.391 . S
C6007 H5995 0.950 . S
C6007 C6003 1.393 . S
C6007 C6006 1.391 . S
H6008 C6016 0.950 . S
H6009 C6021 0.950 . S
H6010 C6018 0.950 . S
H6011 C6020 0.950 . S
H6012 C6022 0.950 . S
H6013 C6024 0.950 . S
H6014 C6026 0.950 . S
H6015 C6027 0.950 . S
C6016 H6008 0.950 . S
C6016 C6017 1.386 . S
C6016 C6018 1.391 . S
C6017 C6016 1.386 . S
C6017 C6021 1.393 . S
C6018 H6010 0.950 . S
C6018 C6016 1.391 . S
C6018 C6019 1.400 . S
C6019 C6018 1.400 . S
C6019 C6020 1.398 . S
C6019 C6025 1.491 . S
C6020 H6011 0.950 . S
C6020 C6019 1.398 . S
C6020 C6021 1.391 . S
C6021 H6009 0.950 . S
C6021 C6017 1.393 . S
C6021 C6020 1.391 . S
C6022 H6012 0.950 . S
C6022 C6023 1.386 . S
C6022 C6024 1.391 . S
C6023 C6022 1.386 . S
C6023 C6027 1.393 . S
C6024 H6013 0.950 . S
C6024 C6022 1.391 . S
C6024 C6025 1.400 . S
C6025 C6019 1.491 . S
C6025 C6024 1.400 . S
C6025 C6026 1.398 . S
C6026 H6014 0.950 . S
C6026 C6025 1.398 . S
C6026 C6027 1.391 . S
C6027 H6015 0.950 . S
C6027 C6023 1.393 . S
C6027 C6026 1.391 . S
H6028 C6036 0.950 . S
H6029 C6041 0.950 . S
H6030 C6038 0.950 . S
H6031 C6040 0.950 . S
H6032 C6042 0.950 . S
H6033 C6044 0.950 . S
H6034 C6046 0.950 . S
H6035 C6047 0.950 . S
C6036 H6028 0.950 . S
C6036 C6037 1.386 . S
C6036 C6038 1.391 . S
C6037 C6036 1.386 . S
C6037 C6041 1.393 . S
C6038 H6030 0.950 . S
C6038 C6036 1.391 . S
C6038 C6039 1.400 . S
C6039 C6038 1.400 . S
C6039 C6040 1.398 . S
C6039 C6045 1.491 . S
C6040 H6031 0.950 . S
C6040 C6039 1.398 . S
C6040 C6041 1.391 . S
C6041 H6029 0.950 . S
C6041 C6037 1.393 . S
C6041 C6040 1.391 . S
C6042 H6032 0.950 . S
C6042 C6043 1.386 . S
C6042 C6044 1.391 . S
C6043 C6042 1.386 . S
C6043 C6047 1.393 . S
C6044 H6033 0.950 . S
C6044 C6042 1.391 . S
C6044 C6045 1.400 . S
C6045 C6039 1.491 . S
C6045 C6044 1.400 . S
C6045 C6046 1.398 . S
C6046 H6034 0.950 . S
C6046 C6045 1.398 . S
C6046 C6047 1.391 . S
C6047 H6035 0.950 . S
C6047 C6043 1.393 . S
C6047 C6046 1.391 . S
H6048 C6056 0.950 . S
H6049 C6061 0.950 . S
H6050 C6058 0.950 . S
H6051 C6060 0.950 . S
H6052 C6062 0.950 . S
H6053 C6064 0.950 . S
H6054 C6066 0.950 . S
H6055 C6067 0.950 . S
C6056 H6048 0.950 . S
C6056 C6057 1.386 . S
C6056 C6058 1.391 . S
C6057 C6056 1.386 . S
C6057 C6061 1.393 . S
C6058 H6050 0.950 . S
C6058 C6056 1.391 . S
C6058 C6059 1.400 . S
C6059 C6058 1.400 . S
C6059 C6060 1.398 . S
C6059 C6065 1.491 . S
C6060 H6051 0.950 . S
C6060 C6059 1.398 . S
C6060 C6061 1.391 . S
C6061 H6049 0.950 . S
C6061 C6057 1.393 . S
C6061 C6060 1.391 . S
C6062 H6052 0.950 . S
C6062 C6063 1.386 . S
C6062 C6064 1.391 . S
C6063 C6062 1.386 . S
C6063 C6067 1.393 . S
C6064 H6053 0.950 . S
C6064 C6062 1.391 . S
C6064 C6065 1.400 . S
C6065 C6059 1.491 . S
C6065 C6064 1.400 . S
C6065 C6066 1.398 . S
C6066 H6054 0.950 . S
C6066 C6065 1.398 . S
C6066 C6067 1.391 . S
C6067 H6055 0.950 . S
C6067 C6063 1.393 . S
C6067 C6066 1.391 . S
H6068 C6076 0.950 . S
H6069 C6081 0.950 . S
H6070 C6078 0.950 . S
H6071 C6080 0.950 . S
H6072 C6082 0.950 . S
H6073 C6084 0.950 . S
H6074 C6086 0.950 . S
H6075 C6087 0.950 . S
C6076 H6068 0.950 . S
C6076 C6077 1.386 . S
C6076 C6078 1.391 . S
C6077 C6076 1.386 . S
C6077 C6081 1.393 . S
C6078 H6070 0.950 . S
C6078 C6076 1.391 . S
C6078 C6079 1.400 . S
C6079 C6078 1.400 . S
C6079 C6080 1.398 . S
C6079 C6085 1.491 . S
C6080 H6071 0.950 . S
C6080 C6079 1.398 . S
C6080 C6081 1.391 . S
C6081 H6069 0.950 . S
C6081 C6077 1.393 . S
C6081 C6080 1.391 . S
C6082 H6072 0.950 . S
C6082 C6083 1.386 . S
C6082 C6084 1.391 . S
C6083 C6082 1.386 . S
C6083 C6087 1.393 . S
C6084 H6073 0.950 . S
C6084 C6082 1.391 . S
C6084 C6085 1.400 . S
C6085 C6079 1.491 . S
C6085 C6084 1.400 . S
C6085 C6086 1.398 . S
C6086 H6074 0.950 . S
C6086 C6085 1.398 . S
C6086 C6087 1.391 . S
C6087 H6075 0.950 . S
C6087 C6083 1.393 . S
C6087 C6086 1.391 . S
H6088 C6096 0.950 . S
H6089 C6101 0.950 . S
H6090 C6098 0.950 . S
H6091 C6100 0.950 . S
H6092 C6102 0.950 . S
H6093 C6104 0.950 . S
H6094 C6106 0.950 1_655 S
H6095 C6107 0.950 . S
C6096 H6088 0.950 . S
C6096 C6097 1.386 . S
C6096 C6098 1.391 . S
C6097 C6096 1.386 . S
C6097 C6101 1.393 . S
C6098 H6090 0.950 . S
C6098 C6096 1.391 . S
C6098 C6099 1.400 . S
C6099 C6098 1.400 . S
C6099 C6100 1.398 . S
C6099 C6105 1.602 . S
C6100 H6091 0.950 . S
C6100 C6099 1.398 . S
C6100 C6101 1.391 . S
C6101 H6089 0.950 . S
C6101 C6097 1.393 . S
C6101 C6100 1.391 . S
C6102 H6092 0.950 . S
C6102 C6103 1.386 . S
C6102 C6104 1.391 . S
C6103 C6102 1.386 . S
C6103 C6107 1.393 . S
C6104 H6093 0.950 . S
C6104 C6102 1.391 . S
C6104 C6105 1.318 1_455 S
C6105 C6099 1.602 . S
C6105 C6104 1.318 1_655 S
C6105 C6106 1.373 1_655 S
C6106 H6094 0.950 1_455 S
C6106 C6105 1.373 1_455 S
C6106 C6107 1.391 . S
C6107 H6095 0.950 . S
C6107 C6103 1.393 . S
C6107 C6106 1.391 . S
H6108 C6116 0.950 . S
H6109 C6121 0.950 . S
H6110 C6118 0.950 . S
H6111 C6120 0.950 . S
H6112 C6122 0.950 . S
H6113 C6124 0.950 . S
H6114 C6126 0.950 . S
H6115 C6127 0.950 . S
C6116 H6108 0.950 . S
C6116 C6117 1.386 . S
C6116 C6118 1.391 . S
C6117 C6116 1.386 . S
C6117 C6121 1.393 . S
C6118 H6110 0.950 . S
C6118 C6116 1.391 . S
C6118 C6119 1.400 . S
C6119 C6118 1.400 . S
C6119 C6120 1.398 . S
C6119 C6125 1.491 . S
C6120 H6111 0.950 . S
C6120 C6119 1.398 . S
C6120 C6121 1.391 . S
C6121 H6109 0.950 . S
C6121 C6117 1.393 . S
C6121 C6120 1.391 . S
C6122 H6112 0.950 . S
C6122 C6123 1.386 . S
C6122 C6124 1.391 . S
C6123 C6122 1.386 . S
C6123 C6127 1.393 . S
C6124 H6113 0.950 . S
C6124 C6122 1.391 . S
C6124 C6125 1.400 . S
C6125 C6119 1.491 . S
C6125 C6124 1.400 . S
C6125 C6126 1.398 . S
C6126 H6114 0.950 . S
C6126 C6125 1.398 . S
C6126 C6127 1.391 . S
C6127 H6115 0.950 . S
C6127 C6123 1.393 . S
C6127 C6126 1.391 . S
H6128 C6136 0.950 . S
H6129 C6141 0.950 . S
H6130 C6138 0.950 . S
H6131 C6140 0.950 . S
H6132 C6142 0.950 . S
H6133 C6144 0.950 . S
H6134 C6146 0.950 . S
H6135 C6147 0.950 . S
C6136 H6128 0.950 . S
C6136 C6137 1.386 . S
C6136 C6138 1.391 . S
C6137 C6136 1.386 . S
C6137 C6141 1.393 . S
C6138 H6130 0.950 . S
C6138 C6136 1.391 . S
C6138 C6139 1.400 . S
C6139 C6138 1.400 . S
C6139 C6140 1.398 . S
C6139 C6145 1.491 . S
C6140 H6131 0.950 . S
C6140 C6139 1.398 . S
C6140 C6141 1.391 . S
C6141 H6129 0.950 . S
C6141 C6137 1.393 . S
C6141 C6140 1.391 . S
C6142 H6132 0.950 . S
C6142 C6143 1.386 . S
C6142 C6144 1.391 . S
C6143 C6142 1.386 . S
C6143 C6147 1.393 . S
C6144 H6133 0.950 . S
C6144 C6142 1.391 . S
C6144 C6145 1.400 . S
C6145 C6139 1.491 . S
C6145 C6144 1.400 . S
C6145 C6146 1.398 . S
C6146 H6134 0.950 . S
C6146 C6145 1.398 . S
C6146 C6147 1.391 . S
C6147 H6135 0.950 . S
C6147 C6143 1.393 . S
C6147 C6146 1.391 . S
H6148 C6156 0.950 . S
H6149 C6161 0.950 . S
H6150 C6158 0.950 . S
H6151 C6160 0.950 . S
H6152 C6162 0.950 . S
H6153 C6164 0.950 . S
H6154 C6166 0.950 . S
H6155 C6167 0.950 . S
C6156 H6148 0.950 . S
C6156 C6157 1.386 . S
C6156 C6158 1.391 . S
C6157 C6156 1.386 . S
C6157 C6161 1.393 . S
C6158 H6150 0.950 . S
C6158 C6156 1.391 . S
C6158 C6159 1.400 . S
C6159 C6158 1.400 . S
C6159 C6160 1.398 . S
C6159 C6165 1.491 . S
C6160 H6151 0.950 . S
C6160 C6159 1.398 . S
C6160 C6161 1.391 . S
C6161 H6149 0.950 . S
C6161 C6157 1.393 . S
C6161 C6160 1.391 . S
C6162 H6152 0.950 . S
C6162 C6163 1.386 . S
C6162 C6164 1.391 . S
C6163 C6162 1.386 . S
C6163 C6167 1.393 . S
C6164 H6153 0.950 . S
C6164 C6162 1.391 . S
C6164 C6165 1.400 . S
C6165 C6159 1.491 . S
C6165 C6164 1.400 . S
C6165 C6166 1.398 . S
C6166 H6154 0.950 . S
C6166 C6165 1.398 . S
C6166 C6167 1.391 . S
C6167 H6155 0.950 . S
C6167 C6163 1.393 . S
C6167 C6166 1.391 . S
H6168 C6176 0.950 . S
H6169 C6181 0.950 . S
H6170 C6178 0.950 . S
H6171 C6180 0.950 . S
H6172 C6182 0.950 . S
H6173 C6184 0.901 1_655 S
H6174 C6186 0.950 . S
H6175 C6187 0.950 . S
C6176 H6168 0.950 . S
C6176 C6177 1.386 . S
C6176 C6178 1.391 . S
C6177 C6176 1.386 . S
C6177 C6181 1.393 . S
C6178 H6170 0.950 . S
C6178 C6176 1.391 . S
C6178 C6179 1.400 . S
C6179 C6178 1.400 . S
C6179 C6180 1.398 . S
C6179 C6185 1.612 . S
C6180 H6171 0.950 . S
C6180 C6179 1.398 . S
C6180 C6181 1.391 . S
C6181 H6169 0.950 . S
C6181 C6177 1.393 . S
C6181 C6180 1.391 . S
C6182 H6172 0.950 . S
C6182 C6183 1.386 . S
C6182 C6184 1.451 . S
C6183 C6182 1.386 . S
C6183 C6187 1.393 . S
C6184 H6173 0.901 1_455 S
C6184 C6182 1.451 . S
C6184 C6185 1.380 1_455 S
C6185 C6179 1.612 . S
C6185 C6184 1.380 1_655 S
C6185 C6186 1.300 1_655 S
C6186 H6174 0.950 . S
C6186 C6185 1.300 1_455 S
C6186 C6187 1.391 . S
C6187 H6175 0.950 . S
C6187 C6183 1.393 . S
C6187 C6186 1.391 . S
H6188 C6196 0.950 . S
H6189 C6201 0.950 . S
H6190 C6198 0.950 . S
H6191 C6200 0.950 . S
H6192 C6202 0.950 . S
H6193 C6204 0.950 . S
H6194 C6206 0.950 . S
H6195 C6207 0.950 . S
C6196 H6188 0.950 . S
C6196 C6197 1.386 . S
C6196 C6198 1.391 . S
C6197 C6196 1.386 . S
C6197 C6201 1.393 . S
C6198 H6190 0.950 . S
C6198 C6196 1.391 . S
C6198 C6199 1.400 . S
C6199 C6198 1.400 . S
C6199 C6200 1.398 . S
C6199 C6205 1.491 . S
C6200 H6191 0.950 . S
C6200 C6199 1.398 . S
C6200 C6201 1.391 . S
C6201 H6189 0.950 . S
C6201 C6197 1.393 . S
C6201 C6200 1.391 . S
C6202 H6192 0.950 . S
C6202 C6203 1.386 . S
C6202 C6204 1.391 . S
C6203 C6202 1.386 . S
C6203 C6207 1.393 . S
C6204 H6193 0.950 . S
C6204 C6202 1.391 . S
C6204 C6205 1.400 . S
C6205 C6199 1.491 . S
C6205 C6204 1.400 . S
C6205 C6206 1.398 . S
C6206 H6194 0.950 . S
C6206 C6205 1.398 . S
C6206 C6207 1.391 . S
C6207 H6195 0.950 . S
C6207 C6203 1.393 . S
C6207 C6206 1.391 . S
H6208 C6216 0.950 . S
H6209 C6221 0.950 . S
H6210 C6218 0.950 . S
H6211 C6220 0.950 . S
H6212 C6222 0.950 . S
H6213 C6224 0.950 . S
H6214 C6226 0.950 . S
H6215 C6227 0.950 . S
C6216 H6208 0.950 . S
C6216 C6217 1.386 . S
C6216 C6218 1.391 . S
C6217 C6216 1.386 . S
C6217 C6221 1.393 . S
C6218 H6210 0.950 . S
C6218 C6216 1.391 . S
C6218 C6219 1.400 . S
C6219 C6218 1.400 . S
C6219 C6220 1.398 . S
C6219 C6225 1.491 . S
C6220 H6211 0.950 . S
C6220 C6219 1.398 . S
C6220 C6221 1.391 . S
C6221 H6209 0.950 . S
C6221 C6217 1.393 . S
C6221 C6220 1.391 . S
C6222 H6212 0.950 . S
C6222 C6223 1.386 . S
C6222 C6224 1.391 . S
C6223 C6222 1.386 . S
C6223 C6227 1.393 . S
C6224 H6213 0.950 . S
C6224 C6222 1.391 . S
C6224 C6225 1.400 . S
C6225 C6219 1.491 . S
C6225 C6224 1.400 . S
C6225 C6226 1.398 . S
C6226 H6214 0.950 . S
C6226 C6225 1.398 . S
C6226 C6227 1.391 . S
C6227 H6215 0.950 . S
C6227 C6223 1.393 . S
C6227 C6226 1.391 . S
H6228 C6236 0.950 . S
H6229 C6241 0.950 . S
H6230 C6238 0.950 . S
H6231 C6240 0.950 . S
H6232 C6242 0.950 . S
H6233 C6244 0.950 . S
H6234 C6246 0.950 . S
H6235 C6247 0.950 . S
C6236 H6228 0.950 . S
C6236 C6237 1.386 . S
C6236 C6238 1.391 . S
C6237 C6236 1.386 . S
C6237 C6241 1.393 . S
C6238 H6230 0.950 . S
C6238 C6236 1.391 . S
C6238 C6239 1.400 . S
C6239 C6238 1.400 . S
C6239 C6240 1.398 . S
C6239 C6245 1.491 . S
C6240 H6231 0.950 . S
C6240 C6239 1.398 . S
C6240 C6241 1.391 . S
C6241 H6229 0.950 . S
C6241 C6237 1.393 . S
C6241 C6240 1.391 . S
C6242 H6232 0.950 . S
C6242 C6243 1.386 . S
C6242 C6244 1.391 . S
C6243 C6242 1.386 . S
C6243 C6247 1.393 . S
C6244 H6233 0.950 . S
C6244 C6242 1.391 . S
C6244 C6245 1.400 . S
C6245 C6239 1.491 . S
C6245 C6244 1.400 . S
C6245 C6246 1.398 . S
C6246 H6234 0.950 . S
C6246 C6245 1.398 . S
C6246 C6247 1.391 . S
C6247 H6235 0.950 . S
C6247 C6243 1.393 . S
C6247 C6246 1.391 . S
H6248 C6256 0.950 . S
H6249 C6261 0.950 . S
H6250 C6258 0.950 . S
H6251 C6260 0.950 . S
H6252 C6262 0.950 . S
H6253 C6264 0.950 . S
H6254 C6266 0.950 . S
H6255 C6267 0.950 . S
C6256 H6248 0.950 . S
C6256 C6257 1.386 . S
C6256 C6258 1.391 . S
C6257 C6256 1.386 . S
C6257 C6261 1.393 . S
C6258 H6250 0.950 . S
C6258 C6256 1.391 . S
C6258 C6259 1.400 . S
C6259 C6258 1.400 . S
C6259 C6260 1.398 . S
C6259 C6265 1.491 . S
C6260 H6251 0.950 . S
C6260 C6259 1.398 . S
C6260 C6261 1.391 . S
C6261 H6249 0.950 . S
C6261 C6257 1.393 . S
C6261 C6260 1.391 . S
C6262 H6252 0.950 . S
C6262 C6263 1.386 . S
C6262 C6264 1.391 . S
C6263 C6262 1.386 . S
C6263 C6267 1.393 . S
C6264 H6253 0.950 . S
C6264 C6262 1.391 . S
C6264 C6265 1.400 . S
C6265 C6259 1.491 . S
C6265 C6264 1.400 . S
C6265 C6266 1.398 . S
C6266 H6254 0.950 . S
C6266 C6265 1.398 . S
C6266 C6267 1.391 . S
C6267 H6255 0.950 . S
C6267 C6263 1.393 . S
C6267 C6266 1.391 . S
H6268 C6276 0.950 . S
H6269 C6281 0.950 . S
H6270 C6278 0.950 . S
H6271 C6280 0.950 . S
H6272 C6282 0.950 . S
H6273 C6284 0.950 . S
H6274 C6286 0.950 . S
H6275 C6287 0.950 . S
C6276 H6268 0.950 . S
C6276 C6277 1.386 . S
C6276 C6278 1.391 . S
C6277 C6276 1.386 . S
C6277 C6281 1.393 . S
C6278 H6270 0.950 . S
C6278 C6276 1.391 . S
C6278 C6279 1.400 . S
C6279 C6278 1.400 . S
C6279 C6280 1.398 . S
C6279 C6285 1.491 . S
C6280 H6271 0.950 . S
C6280 C6279 1.398 . S
C6280 C6281 1.391 . S
C6281 H6269 0.950 . S
C6281 C6277 1.393 . S
C6281 C6280 1.391 . S
C6282 H6272 0.950 . S
C6282 C6283 1.386 . S
C6282 C6284 1.391 . S
C6283 C6282 1.386 . S
C6283 C6287 1.393 . S
C6284 H6273 0.950 . S
C6284 C6282 1.391 . S
C6284 C6285 1.400 . S
C6285 C6279 1.491 . S
C6285 C6284 1.400 . S
C6285 C6286 1.398 . S
C6286 H6274 0.950 . S
C6286 C6285 1.398 . S
C6286 C6287 1.391 . S
C6287 H6275 0.950 . S
C6287 C6283 1.393 . S
C6287 C6286 1.391 . S
H6288 C6296 0.950 . S
H6289 C6301 0.950 . S
H6290 C6298 0.950 . S
H6291 C6300 0.950 . S
H6292 C6302 0.950 . S
H6293 C6304 0.950 . S
H6294 C6306 0.950 . S
H6295 C6307 0.950 . S
C6296 H6288 0.950 . S
C6296 C6297 1.386 . S
C6296 C6298 1.391 . S
C6297 C6296 1.386 . S
C6297 C6301 1.393 . S
C6298 H6290 0.950 . S
C6298 C6296 1.391 . S
C6298 C6299 1.400 . S
C6299 C6298 1.400 . S
C6299 C6300 1.398 . S
C6299 C6305 1.491 . S
C6300 H6291 0.950 . S
C6300 C6299 1.398 . S
C6300 C6301 1.391 . S
C6301 H6289 0.950 . S
C6301 C6297 1.393 . S
C6301 C6300 1.391 . S
C6302 H6292 0.950 . S
C6302 C6303 1.386 . S
C6302 C6304 1.391 . S
C6303 C6302 1.386 . S
C6303 C6307 1.393 . S
C6304 H6293 0.950 . S
C6304 C6302 1.391 . S
C6304 C6305 1.400 . S
C6305 C6299 1.491 . S
C6305 C6304 1.400 . S
C6305 C6306 1.398 . S
C6306 H6294 0.950 . S
C6306 C6305 1.398 . S
C6306 C6307 1.391 . S
C6307 H6295 0.950 . S
C6307 C6303 1.393 . S
C6307 C6306 1.391 . S
H6308 C6316 0.950 . S
H6309 C6321 0.950 . S
H6310 C6318 0.950 . S
H6311 C6320 0.950 . S
H6312 C6322 0.950 . S
H6313 C6324 0.950 . S
H6314 C6326 0.950 . S
H6315 C6327 0.950 . S
C6316 H6308 0.950 . S
C6316 C6317 1.386 . S
C6316 C6318 1.391 . S
C6317 C6316 1.386 . S
C6317 C6321 1.393 . S
C6318 H6310 0.950 . S
C6318 C6316 1.391 . S
C6318 C6319 1.400 . S
C6319 C6318 1.400 . S
C6319 C6320 1.398 . S
C6319 C6325 1.491 . S
C6320 H6311 0.950 . S
C6320 C6319 1.398 . S
C6320 C6321 1.391 . S
C6321 H6309 0.950 . S
C6321 C6317 1.393 . S
C6321 C6320 1.391 . S
C6322 H6312 0.950 . S
C6322 C6323 1.386 . S
C6322 C6324 1.391 . S
C6323 C6322 1.386 . S
C6323 C6327 1.393 . S
C6324 H6313 0.950 . S
C6324 C6322 1.391 . S
C6324 C6325 1.400 . S
C6325 C6319 1.491 . S
C6325 C6324 1.400 . S
C6325 C6326 1.398 . S
C6326 H6314 0.950 . S
C6326 C6325 1.398 . S
C6326 C6327 1.391 . S
C6327 H6315 0.950 . S
C6327 C6323 1.393 . S
C6327 C6326 1.391 . S
H6328 C6336 0.950 . S
H6329 C6341 0.950 . S
H6330 C6338 0.950 . S
H6331 C6340 0.950 . S
H6332 C6342 0.950 . S
H6333 C6344 0.950 . S
H6334 C6346 0.950 . S
H6335 C6347 0.950 . S
C6336 H6328 0.950 . S
C6336 C6337 1.386 . S
C6336 C6338 1.391 . S
C6337 C6336 1.386 . S
C6337 C6341 1.393 . S
C6338 H6330 0.950 . S
C6338 C6336 1.391 . S
C6338 C6339 1.400 . S
C6339 C6338 1.400 . S
C6339 C6340 1.398 . S
C6339 C6345 1.491 . S
C6340 H6331 0.950 . S
C6340 C6339 1.398 . S
C6340 C6341 1.391 . S
C6341 H6329 0.950 . S
C6341 C6337 1.393 . S
C6341 C6340 1.391 . S
C6342 H6332 0.950 . S
C6342 C6343 1.386 . S
C6342 C6344 1.391 . S
C6343 C6342 1.386 . S
C6343 C6347 1.393 . S
C6344 H6333 0.950 . S
C6344 C6342 1.391 . S
C6344 C6345 1.400 . S
C6345 C6339 1.491 . S
C6345 C6344 1.400 . S
C6345 C6346 1.398 . S
C6346 H6334 0.950 . S
C6346 C6345 1.398 . S
C6346 C6347 1.391 . S
C6347 H6335 0.950 . S
C6347 C6343 1.393 . S
C6347 C6346 1.391 . S
H6348 C6356 0.950 . S
H6349 C6361 0.950 . S
H6350 C6358 0.950 . S
H6351 C6360 0.950 . S
H6352 C6362 0.950 . S
H6353 C6364 0.950 . S
H6354 C6366 0.950 . S
H6355 C6367 0.950 . S
C6356 H6348 0.950 . S
C6356 C6357 1.386 . S
C6356 C6358 1.391 . S
C6357 C6356 1.386 . S
C6357 C6361 1.393 . S
C6358 H6350 0.950 . S
C6358 C6356 1.391 . S
C6358 C6359 1.400 . S
C6359 C6358 1.400 . S
C6359 C6360 1.398 . S
C6359 C6365 1.491 . S
C6360 H6351 0.950 . S
C6360 C6359 1.398 . S
C6360 C6361 1.391 . S
C6361 H6349 0.950 . S
C6361 C6357 1.393 . S
C6361 C6360 1.391 . S
C6362 H6352 0.950 . S
C6362 C6363 1.386 . S
C6362 C6364 1.391 . S
C6363 C6362 1.386 . S
C6363 C6367 1.393 . S
C6364 H6353 0.950 . S
C6364 C6362 1.391 . S
C6364 C6365 1.400 . S
C6365 C6359 1.491 . S
C6365 C6364 1.400 . S
C6365 C6366 1.398 . S
C6366 H6354 0.950 . S
C6366 C6365 1.398 . S
C6366 C6367 1.391 . S
C6367 H6355 0.950 . S
C6367 C6363 1.393 . S
C6367 C6366 1.391 . S
H6368 C6376 0.950 . S
H6369 C6381 0.950 . S
H6370 C6378 0.950 . S
H6371 C6380 0.950 . S
H6372 C6382 0.950 . S
H6373 C6384 0.950 . S
H6374 C6386 0.950 . S
H6375 C6387 0.950 . S
C6376 H6368 0.950 . S
C6376 C6377 1.386 . S
C6376 C6378 1.391 . S
C6377 C6376 1.386 . S
C6377 C6381 1.393 . S
C6378 H6370 0.950 . S
C6378 C6376 1.391 . S
C6378 C6379 1.400 . S
C6379 C6378 1.400 . S
C6379 C6380 1.398 . S
C6379 C6385 1.491 . S
C6380 H6371 0.950 . S
C6380 C6379 1.398 . S
C6380 C6381 1.391 . S
C6381 H6369 0.950 . S
C6381 C6377 1.393 . S
C6381 C6380 1.391 . S
C6382 H6372 0.950 . S
C6382 C6383 1.386 . S
C6382 C6384 1.391 . S
C6383 C6382 1.386 . S
C6383 C6387 1.393 . S
C6384 H6373 0.950 . S
C6384 C6382 1.391 . S
C6384 C6385 1.400 . S
C6385 C6379 1.491 . S
C6385 C6384 1.400 . S
C6385 C6386 1.398 . S
C6386 H6374 0.950 . S
C6386 C6385 1.398 . S
C6386 C6387 1.391 . S
C6387 H6375 0.950 . S
C6387 C6383 1.393 . S
C6387 C6386 1.391 . S
H6388 C6396 0.950 . S
H6389 C6401 0.950 . S
H6390 C6398 0.950 . S
H6391 C6400 0.950 . S
H6392 C6402 0.950 . S
H6393 C6404 0.950 . S
H6394 C6406 0.950 . S
H6395 C6407 0.950 . S
C6396 H6388 0.950 . S
C6396 C6397 1.386 . S
C6396 C6398 1.391 . S
C6397 C6396 1.386 . S
C6397 C6401 1.393 . S
C6398 H6390 0.950 . S
C6398 C6396 1.391 . S
C6398 C6399 1.400 . S
C6399 C6398 1.400 . S
C6399 C6400 1.398 . S
C6399 C6405 1.491 . S
C6400 H6391 0.950 . S
C6400 C6399 1.398 . S
C6400 C6401 1.391 . S
C6401 H6389 0.950 . S
C6401 C6397 1.393 . S
C6401 C6400 1.391 . S
C6402 H6392 0.950 . S
C6402 C6403 1.386 . S
C6402 C6404 1.391 . S
C6403 C6402 1.386 . S
C6403 C6407 1.393 . S
C6404 H6393 0.950 . S
C6404 C6402 1.391 . S
C6404 C6405 1.400 . S
C6405 C6399 1.491 . S
C6405 C6404 1.400 . S
C6405 C6406 1.398 . S
C6406 H6394 0.950 . S
C6406 C6405 1.398 . S
C6406 C6407 1.391 . S
C6407 H6395 0.950 . S
C6407 C6403 1.393 . S
C6407 C6406 1.391 . S
H6408 C6416 0.950 . S
H6409 C6421 0.950 . S
H6410 C6418 0.950 . S
H6411 C6420 0.950 . S
H6412 C6422 0.950 . S
H6413 C6424 0.950 . S
H6414 C6426 0.950 . S
H6415 C6427 0.950 . S
C6416 H6408 0.950 . S
C6416 C6417 1.386 . S
C6416 C6418 1.391 . S
C6417 C6416 1.386 . S
C6417 C6421 1.393 . S
C6418 H6410 0.950 . S
C6418 C6416 1.391 . S
C6418 C6419 1.400 . S
C6419 C6418 1.400 . S
C6419 C6420 1.398 . S
C6419 C6425 1.491 . S
C6420 H6411 0.950 . S
C6420 C6419 1.398 . S
C6420 C6421 1.391 . S
C6421 H6409 0.950 . S
C6421 C6417 1.393 . S
C6421 C6420 1.391 . S
C6422 H6412 0.950 . S
C6422 C6423 1.386 . S
C6422 C6424 1.391 . S
C6423 C6422 1.386 . S
C6423 C6427 1.393 . S
C6424 H6413 0.950 . S
C6424 C6422 1.391 . S
C6424 C6425 1.400 . S
C6425 C6419 1.491 . S
C6425 C6424 1.400 . S
C6425 C6426 1.398 . S
C6426 H6414 0.950 . S
C6426 C6425 1.398 . S
C6426 C6427 1.391 . S
C6427 H6415 0.950 . S
C6427 C6423 1.393 . S
C6427 C6426 1.391 . S
H6428 C6436 0.950 . S
H6429 C6441 0.950 . S
H6430 C6438 0.950 . S
H6431 C6440 0.950 . S
H6432 C6442 0.950 . S
H6433 C6444 0.950 . S
H6434 C6446 0.909 1_556 S
H6435 C6447 0.950 . S
C6436 H6428 0.950 . S
C6436 C6437 1.386 . S
C6436 C6438 1.391 . S
C6437 C6436 1.386 . S
C6437 C6441 1.393 . S
C6438 H6430 0.950 . S
C6438 C6436 1.391 . S
C6438 C6439 1.400 . S
C6439 C6438 1.400 . S
C6439 C6440 1.398 . S
C6439 C6445 1.616 . S
C6440 H6431 0.950 . S
C6440 C6439 1.398 . S
C6440 C6441 1.391 . S
C6441 H6429 0.950 . S
C6441 C6437 1.393 . S
C6441 C6440 1.391 . S
C6442 H6432 0.950 . S
C6442 C6443 1.386 . S
C6442 C6444 1.391 . S
C6443 C6442 1.386 . S
C6443 C6447 1.393 . S
C6444 H6433 0.950 . S
C6444 C6442 1.391 . S
C6444 C6445 1.332 1_554 S
C6445 C6439 1.616 . S
C6445 C6444 1.332 1_556 S
C6445 C6446 1.349 1_556 S
C6446 H6434 0.909 1_554 S
C6446 C6445 1.349 1_554 S
C6446 C6447 1.391 . S
C6447 H6435 0.950 . S
C6447 C6443 1.393 . S
C6447 C6446 1.391 . S
H6448 C6456 0.950 . S
H6449 C6461 0.950 . S
H6450 C6458 0.950 . S
H6451 C6460 0.950 . S
H6452 C6462 0.950 . S
H6453 C6464 0.950 . S
H6454 C6466 0.950 . S
H6455 C6467 0.950 . S
C6456 H6448 0.950 . S
C6456 C6457 1.386 . S
C6456 C6458 1.391 . S
C6457 C6456 1.386 . S
C6457 C6461 1.393 . S
C6458 H6450 0.950 . S
C6458 C6456 1.391 . S
C6458 C6459 1.400 . S
C6459 C6458 1.400 . S
C6459 C6460 1.398 . S
C6459 C6465 1.491 . S
C6460 H6451 0.950 . S
C6460 C6459 1.398 . S
C6460 C6461 1.391 . S
C6461 H6449 0.950 . S
C6461 C6457 1.393 . S
C6461 C6460 1.391 . S
C6462 H6452 0.950 . S
C6462 C6463 1.386 . S
C6462 C6464 1.391 . S
C6463 C6462 1.386 . S
C6463 C6467 1.393 . S
C6464 H6453 0.950 . S
C6464 C6462 1.391 . S
C6464 C6465 1.400 . S
C6465 C6459 1.491 . S
C6465 C6464 1.400 . S
C6465 C6466 1.398 . S
C6466 H6454 0.950 . S
C6466 C6465 1.398 . S
C6466 C6467 1.391 . S
C6467 H6455 0.950 . S
C6467 C6463 1.393 . S
C6467 C6466 1.391 . S
H6468 C6476 0.950 . S
H6469 C6481 0.950 . S
H6470 C6478 0.950 . S
H6471 C6480 0.950 . S
H6472 C6482 0.950 . S
H6473 C6484 0.950 . S
H6474 C6486 0.897 1_554 S
H6475 C6487 0.950 . S
C6476 H6468 0.950 . S
C6476 C6477 1.386 . S
C6476 C6478 1.391 . S
C6477 C6476 1.386 . S
C6477 C6481 1.393 . S
C6478 H6470 0.950 . S
C6478 C6476 1.391 . S
C6478 C6479 1.400 . S
C6479 C6478 1.400 . S
C6479 C6480 1.398 . S
C6479 C6485 1.604 . S
C6480 H6471 0.950 . S
C6480 C6479 1.398 . S
C6480 C6481 1.391 . S
C6481 H6469 0.950 . S
C6481 C6477 1.393 . S
C6481 C6480 1.391 . S
C6482 H6472 0.950 . S
C6482 C6483 1.386 . S
C6482 C6484 1.391 . S
C6483 C6482 1.386 . S
C6483 C6487 1.393 . S
C6484 H6473 0.950 . S
C6484 C6482 1.391 . S
C6484 C6485 1.306 1_556 S
C6485 C6479 1.604 . S
C6485 C6484 1.306 1_554 S
C6485 C6486 1.379 1_554 S
C6486 H6474 0.897 1_556 S
C6486 C6485 1.379 1_556 S
C6486 C6487 1.456 . S
C6487 H6475 0.950 . S
C6487 C6483 1.393 . S
C6487 C6486 1.456 . S
H6488 C6496 0.950 . S
H6489 C6501 0.950 . S
H6490 C6498 0.950 . S
H6491 C6500 0.950 . S
H6492 C6502 0.950 . S
H6493 C6504 0.950 . S
H6494 C6506 0.950 . S
H6495 C6507 0.950 . S
C6496 H6488 0.950 . S
C6496 C6497 1.386 . S
C6496 C6498 1.391 . S
C6497 C6496 1.386 . S
C6497 C6501 1.393 . S
C6498 H6490 0.950 . S
C6498 C6496 1.391 . S
C6498 C6499 1.400 . S
C6499 C6498 1.400 . S
C6499 C6500 1.398 . S
C6499 C6505 1.491 . S
C6500 H6491 0.950 . S
C6500 C6499 1.398 . S
C6500 C6501 1.391 . S
C6501 H6489 0.950 . S
C6501 C6497 1.393 . S
C6501 C6500 1.391 . S
C6502 H6492 0.950 . S
C6502 C6503 1.386 . S
C6502 C6504 1.391 . S
C6503 C6502 1.386 . S
C6503 C6507 1.393 . S
C6504 H6493 0.950 . S
C6504 C6502 1.391 . S
C6504 C6505 1.400 . S
C6505 C6499 1.491 . S
C6505 C6504 1.400 . S
C6505 C6506 1.398 . S
C6506 H6494 0.950 . S
C6506 C6505 1.398 . S
C6506 C6507 1.391 . S
C6507 H6495 0.950 . S
C6507 C6503 1.393 . S
C6507 C6506 1.391 . S
H6508 C6516 0.950 . S
H6509 C6521 0.950 . S
H6510 C6518 0.950 . S
H6511 C6520 0.950 . S
H6512 C6522 0.950 . S
H6513 C6524 0.950 . S
H6514 C6526 0.950 . S
H6515 C6527 0.950 . S
C6516 H6508 0.950 . S
C6516 C6517 1.386 . S
C6516 C6518 1.391 . S
C6517 C6516 1.386 . S
C6517 C6521 1.393 . S
C6518 H6510 0.950 . S
C6518 C6516 1.391 . S
C6518 C6519 1.400 . S
C6519 C6518 1.400 . S
C6519 C6520 1.398 . S
C6519 C6525 1.491 . S
C6520 H6511 0.950 . S
C6520 C6519 1.398 . S
C6520 C6521 1.391 . S
C6521 H6509 0.950 . S
C6521 C6517 1.393 . S
C6521 C6520 1.391 . S
C6522 H6512 0.950 . S
C6522 C6523 1.386 . S
C6522 C6524 1.391 . S
C6523 C6522 1.386 . S
C6523 C6527 1.393 . S
C6524 H6513 0.950 . S
C6524 C6522 1.391 . S
C6524 C6525 1.400 . S
C6525 C6519 1.491 . S
C6525 C6524 1.400 . S
C6525 C6526 1.398 . S
C6526 H6514 0.950 . S
C6526 C6525 1.398 . S
C6526 C6527 1.391 . S
C6527 H6515 0.950 . S
C6527 C6523 1.393 . S
C6527 C6526 1.391 . S
H6528 C6536 0.950 . S
H6529 C6541 0.950 . S
H6530 C6538 0.950 . S
H6531 C6540 0.950 . S
H6532 C6542 0.950 . S
H6533 C6544 0.950 . S
H6534 C6546 0.950 . S
H6535 C6547 0.950 . S
C6536 H6528 0.950 . S
C6536 C6537 1.386 . S
C6536 C6538 1.391 . S
C6537 C6536 1.386 . S
C6537 C6541 1.393 . S
C6538 H6530 0.950 . S
C6538 C6536 1.391 . S
C6538 C6539 1.400 . S
C6539 C6538 1.400 . S
C6539 C6540 1.398 . S
C6539 C6545 1.491 . S
C6540 H6531 0.950 . S
C6540 C6539 1.398 . S
C6540 C6541 1.391 . S
C6541 H6529 0.950 . S
C6541 C6537 1.393 . S
C6541 C6540 1.391 . S
C6542 H6532 0.950 . S
C6542 C6543 1.386 . S
C6542 C6544 1.391 . S
C6543 C6542 1.386 . S
C6543 C6547 1.393 . S
C6544 H6533 0.950 . S
C6544 C6542 1.391 . S
C6544 C6545 1.400 . S
C6545 C6539 1.491 . S
C6545 C6544 1.400 . S
C6545 C6546 1.398 . S
C6546 H6534 0.950 . S
C6546 C6545 1.398 . S
C6546 C6547 1.391 . S
C6547 H6535 0.950 . S
C6547 C6543 1.393 . S
C6547 C6546 1.391 . S
H6548 C6556 0.950 . S
H6549 C6561 0.950 . S
H6550 C6558 0.950 . S
H6551 C6560 0.950 . S
H6552 C6562 0.950 . S
H6553 C6564 0.950 . S
H6554 C6566 0.950 . S
H6555 C6567 0.950 . S
C6556 H6548 0.950 . S
C6556 C6557 1.386 . S
C6556 C6558 1.391 . S
C6557 C6556 1.386 . S
C6557 C6561 1.393 . S
C6558 H6550 0.950 . S
C6558 C6556 1.391 . S
C6558 C6559 1.400 . S
C6559 C6558 1.400 . S
C6559 C6560 1.398 . S
C6559 C6565 1.491 . S
C6560 H6551 0.950 . S
C6560 C6559 1.398 . S
C6560 C6561 1.391 . S
C6561 H6549 0.950 . S
C6561 C6557 1.393 . S
C6561 C6560 1.391 . S
C6562 H6552 0.950 . S
C6562 C6563 1.386 . S
C6562 C6564 1.391 . S
C6563 C6562 1.386 . S
C6563 C6567 1.393 . S
C6564 H6553 0.950 . S
C6564 C6562 1.391 . S
C6564 C6565 1.400 . S
C6565 C6559 1.491 . S
C6565 C6564 1.400 . S
C6565 C6566 1.398 . S
C6566 H6554 0.950 . S
C6566 C6565 1.398 . S
C6566 C6567 1.391 . S
C6567 H6555 0.950 . S
C6567 C6563 1.393 . S
C6567 C6566 1.391 . S
H6568 C6576 0.950 . S
H6569 C6581 0.950 . S
H6570 C6578 0.950 . S
H6571 C6580 0.950 . S
H6572 C6582 0.950 . S
H6573 C6584 0.950 . S
H6574 C6586 0.920 1_455 S
H6575 C6587 0.950 . S
C6576 H6568 0.950 . S
C6576 C6577 1.386 . S
C6576 C6578 1.391 . S
C6577 C6576 1.386 . S
C6577 C6581 1.393 . S
C6578 H6570 0.950 . S
C6578 C6576 1.391 . S
C6578 C6579 1.400 . S
C6579 C6578 1.400 . S
C6579 C6580 1.398 . S
C6579 C6585 1.613 . S
C6580 H6571 0.950 . S
C6580 C6579 1.398 . S
C6580 C6581 1.391 . S
C6581 H6569 0.950 . S
C6581 C6577 1.393 . S
C6581 C6580 1.391 . S
C6582 H6572 0.950 . S
C6582 C6583 1.386 . S
C6582 C6584 1.391 . S
C6583 C6582 1.386 . S
C6583 C6587 1.393 . S
C6584 H6573 0.950 . S
C6584 C6582 1.391 . S
C6584 C6585 1.298 1_655 S
C6585 C6579 1.613 . S
C6585 C6584 1.298 1_455 S
C6585 C6586 1.382 1_455 S
C6586 H6574 0.920 1_655 S
C6586 C6585 1.382 1_655 S
C6586 C6587 1.427 . S
C6587 H6575 0.950 . S
C6587 C6583 1.393 . S
C6587 C6586 1.427 . S
H6588 C6596 0.950 . S
H6589 C6601 0.950 . S
H6590 C6598 0.950 . S
H6591 C6600 0.950 . S
H6592 C6602 0.950 . S
H6593 C6604 0.950 . S
H6594 C6606 0.950 . S
H6595 C6607 0.950 . S
C6596 H6588 0.950 . S
C6596 C6597 1.386 . S
C6596 C6598 1.391 . S
C6597 C6596 1.386 . S
C6597 C6601 1.393 . S
C6598 H6590 0.950 . S
C6598 C6596 1.391 . S
C6598 C6599 1.400 . S
C6599 C6598 1.400 . S
C6599 C6600 1.398 . S
C6599 C6605 1.491 . S
C6600 H6591 0.950 . S
C6600 C6599 1.398 . S
C6600 C6601 1.391 . S
C6601 H6589 0.950 . S
C6601 C6597 1.393 . S
C6601 C6600 1.391 . S
C6602 H6592 0.950 . S
C6602 C6603 1.386 . S
C6602 C6604 1.391 . S
C6603 C6602 1.386 . S
C6603 C6607 1.393 . S
C6604 H6593 0.950 . S
C6604 C6602 1.391 . S
C6604 C6605 1.400 . S
C6605 C6599 1.491 . S
C6605 C6604 1.400 . S
C6605 C6606 1.398 . S
C6606 H6594 0.950 . S
C6606 C6605 1.398 . S
C6606 C6607 1.391 . S
C6607 H6595 0.950 . S
C6607 C6603 1.393 . S
C6607 C6606 1.391 . S
H6608 C6616 0.950 . S
H6609 C6621 0.950 . S
H6610 C6618 0.950 . S
H6611 C6620 0.950 . S
H6612 C6622 0.950 . S
H6613 C6624 0.950 . S
H6614 C6626 0.950 . S
H6615 C6627 0.950 . S
C6616 H6608 0.950 . S
C6616 C6617 1.386 . S
C6616 C6618 1.391 . S
C6617 C6616 1.386 . S
C6617 C6621 1.393 . S
C6618 H6610 0.950 . S
C6618 C6616 1.391 . S
C6618 C6619 1.400 . S
C6619 C6618 1.400 . S
C6619 C6620 1.398 . S
C6619 C6625 1.491 . S
C6620 H6611 0.950 . S
C6620 C6619 1.398 . S
C6620 C6621 1.391 . S
C6621 H6609 0.950 . S
C6621 C6617 1.393 . S
C6621 C6620 1.391 . S
C6622 H6612 0.950 . S
C6622 C6623 1.386 . S
C6622 C6624 1.391 . S
C6623 C6622 1.386 . S
C6623 C6627 1.393 . S
C6624 H6613 0.950 . S
C6624 C6622 1.391 . S
C6624 C6625 1.400 . S
C6625 C6619 1.491 . S
C6625 C6624 1.400 . S
C6625 C6626 1.398 . S
C6626 H6614 0.950 . S
C6626 C6625 1.398 . S
C6626 C6627 1.391 . S
C6627 H6615 0.950 . S
C6627 C6623 1.393 . S
C6627 C6626 1.391 . S
H6628 C6636 0.950 . S
H6629 C6641 0.950 . S
H6630 C6638 0.950 . S
H6631 C6640 0.950 . S
H6632 C6642 0.950 . S
H6633 C6644 0.950 . S
H6634 C6646 0.950 . S
H6635 C6647 0.950 . S
C6636 H6628 0.950 . S
C6636 C6637 1.386 . S
C6636 C6638 1.391 . S
C6637 C6636 1.386 . S
C6637 C6641 1.393 . S
C6638 H6630 0.950 . S
C6638 C6636 1.391 . S
C6638 C6639 1.400 . S
C6639 C6638 1.400 . S
C6639 C6640 1.398 . S
C6639 C6645 1.491 . S
C6640 H6631 0.950 . S
C6640 C6639 1.398 . S
C6640 C6641 1.391 . S
C6641 H6629 0.950 . S
C6641 C6637 1.393 . S
C6641 C6640 1.391 . S
C6642 H6632 0.950 . S
C6642 C6643 1.386 . S
C6642 C6644 1.391 . S
C6643 C6642 1.386 . S
C6643 C6647 1.393 . S
C6644 H6633 0.950 . S
C6644 C6642 1.391 . S
C6644 C6645 1.400 . S
C6645 C6639 1.491 . S
C6645 C6644 1.400 . S
C6645 C6646 1.398 . S
C6646 H6634 0.950 . S
C6646 C6645 1.398 . S
C6646 C6647 1.391 . S
C6647 H6635 0.950 . S
C6647 C6643 1.393 . S
C6647 C6646 1.391 . S
H6648 C6656 0.950 . S
H6649 C6661 0.950 . S
H6650 C6658 0.950 . S
H6651 C6660 0.950 . S
H6652 C6662 0.950 . S
H6653 C6664 0.950 . S
H6654 C6666 0.950 1_455 S
H6655 C6667 0.950 . S
C6656 H6648 0.950 . S
C6656 C6657 1.386 . S
C6656 C6658 1.391 . S
C6657 C6656 1.386 . S
C6657 C6661 1.393 . S
C6658 H6650 0.950 . S
C6658 C6656 1.391 . S
C6658 C6659 1.400 . S
C6659 C6658 1.400 . S
C6659 C6660 1.398 . S
C6659 C6665 1.600 . S
C6660 H6651 0.950 . S
C6660 C6659 1.398 . S
C6660 C6661 1.391 . S
C6661 H6649 0.950 . S
C6661 C6657 1.393 . S
C6661 C6660 1.391 . S
C6662 H6652 0.950 . S
C6662 C6663 1.386 . S
C6662 C6664 1.391 . S
C6663 C6662 1.386 . S
C6663 C6667 1.393 . S
C6664 H6653 0.950 . S
C6664 C6662 1.391 . S
C6664 C6665 1.328 1_655 S
C6665 C6659 1.600 . S
C6665 C6664 1.328 1_455 S
C6665 C6666 1.365 1_455 S
C6666 H6654 0.950 1_655 S
C6666 C6665 1.365 1_655 S
C6666 C6667 1.391 . S
C6667 H6655 0.950 . S
C6667 C6663 1.393 . S
C6667 C6666 1.391 . S
H6668 C6676 0.950 . S
H6669 C6681 0.950 . S
H6670 C6678 0.950 . S
H6671 C6680 0.950 . S
H6672 C6682 0.950 . S
H6673 C6684 0.950 . S
H6674 C6686 0.950 . S
H6675 C6687 0.950 . S
C6676 H6668 0.950 . S
C6676 C6677 1.386 . S
C6676 C6678 1.391 . S
C6677 C6676 1.386 . S
C6677 C6681 1.393 . S
C6678 H6670 0.950 . S
C6678 C6676 1.391 . S
C6678 C6679 1.400 . S
C6679 C6678 1.400 . S
C6679 C6680 1.398 . S
C6679 C6685 1.491 . S
C6680 H6671 0.950 . S
C6680 C6679 1.398 . S
C6680 C6681 1.391 . S
C6681 H6669 0.950 . S
C6681 C6677 1.393 . S
C6681 C6680 1.391 . S
C6682 H6672 0.950 . S
C6682 C6683 1.386 . S
C6682 C6684 1.391 . S
C6683 C6682 1.386 . S
C6683 C6687 1.393 . S
C6684 H6673 0.950 . S
C6684 C6682 1.391 . S
C6684 C6685 1.400 . S
C6685 C6679 1.491 . S
C6685 C6684 1.400 . S
C6685 C6686 1.398 . S
C6686 H6674 0.950 . S
C6686 C6685 1.398 . S
C6686 C6687 1.391 . S
C6687 H6675 0.950 . S
C6687 C6683 1.393 . S
C6687 C6686 1.391 . S
H6688 C6696 0.950 . S
H6689 C6701 0.950 . S
H6690 C6698 0.950 . S
H6691 C6700 0.950 . S
H6692 C6702 0.950 . S
H6693 C6704 0.950 . S
H6694 C6706 0.950 . S
H6695 C6707 0.950 . S
C6696 H6688 0.950 . S
C6696 C6697 1.386 . S
C6696 C6698 1.391 . S
C6697 C6696 1.386 . S
C6697 C6701 1.393 . S
C6698 H6690 0.950 . S
C6698 C6696 1.391 . S
C6698 C6699 1.400 . S
C6699 C6698 1.400 . S
C6699 C6700 1.398 . S
C6699 C6705 1.491 . S
C6700 H6691 0.950 . S
C6700 C6699 1.398 . S
C6700 C6701 1.391 . S
C6701 H6689 0.950 . S
C6701 C6697 1.393 . S
C6701 C6700 1.391 . S
C6702 H6692 0.950 . S
C6702 C6703 1.386 . S
C6702 C6704 1.391 . S
C6703 C6702 1.386 . S
C6703 C6707 1.393 . S
C6704 H6693 0.950 . S
C6704 C6702 1.391 . S
C6704 C6705 1.400 . S
C6705 C6699 1.491 . S
C6705 C6704 1.400 . S
C6705 C6706 1.398 . S
C6706 H6694 0.950 . S
C6706 C6705 1.398 . S
C6706 C6707 1.391 . S
C6707 H6695 0.950 . S
C6707 C6703 1.393 . S
C6707 C6706 1.391 . S
H6708 C6716 0.950 . S
H6709 C6721 0.950 . S
H6710 C6718 0.950 . S
H6711 C6720 0.950 . S
H6712 C6722 0.950 . S
H6713 C6724 0.950 . S
H6714 C6726 0.950 . S
H6715 C6727 0.950 . S
C6716 H6708 0.950 . S
C6716 C6717 1.386 . S
C6716 C6718 1.391 . S
C6717 C6716 1.386 . S
C6717 C6721 1.393 . S
C6718 H6710 0.950 . S
C6718 C6716 1.391 . S
C6718 C6719 1.400 . S
C6719 C6718 1.400 . S
C6719 C6720 1.398 . S
C6719 C6725 1.491 . S
C6720 H6711 0.950 . S
C6720 C6719 1.398 . S
C6720 C6721 1.391 . S
C6721 H6709 0.950 . S
C6721 C6717 1.393 . S
C6721 C6720 1.391 . S
C6722 H6712 0.950 . S
C6722 C6723 1.386 . S
C6722 C6724 1.391 . S
C6723 C6722 1.386 . S
C6723 C6727 1.393 . S
C6724 H6713 0.950 . S
C6724 C6722 1.391 . S
C6724 C6725 1.400 . S
C6725 C6719 1.491 . S
C6725 C6724 1.400 . S
C6725 C6726 1.398 . S
C6726 H6714 0.950 . S
C6726 C6725 1.398 . S
C6726 C6727 1.391 . S
C6727 H6715 0.950 . S
C6727 C6723 1.393 . S
C6727 C6726 1.391 . S
H6728 C6736 0.950 . S
H6729 C6741 0.950 . S
H6730 C6738 0.950 . S
H6731 C6740 0.950 . S
H6732 C6742 0.950 . S
H6733 C6744 0.950 . S
H6734 C6746 0.950 . S
H6735 C6747 0.950 . S
C6736 H6728 0.950 . S
C6736 C6737 1.386 . S
C6736 C6738 1.391 . S
C6737 C6736 1.386 . S
C6737 C6741 1.393 . S
C6738 H6730 0.950 . S
C6738 C6736 1.391 . S
C6738 C6739 1.400 . S
C6739 C6738 1.400 . S
C6739 C6740 1.398 . S
C6739 C6745 1.491 . S
C6740 H6731 0.950 . S
C6740 C6739 1.398 . S
C6740 C6741 1.391 . S
C6741 H6729 0.950 . S
C6741 C6737 1.393 . S
C6741 C6740 1.391 . S
C6742 H6732 0.950 . S
C6742 C6743 1.386 . S
C6742 C6744 1.391 . S
C6743 C6742 1.386 . S
C6743 C6747 1.393 . S
C6744 H6733 0.950 . S
C6744 C6742 1.391 . S
C6744 C6745 1.400 . S
C6745 C6739 1.491 . S
C6745 C6744 1.400 . S
C6745 C6746 1.398 . S
C6746 H6734 0.950 . S
C6746 C6745 1.398 . S
C6746 C6747 1.391 . S
C6747 H6735 0.950 . S
C6747 C6743 1.393 . S
C6747 C6746 1.391 . S
H6748 C6756 0.950 . S
H6749 C6761 0.950 . S
H6750 C6758 0.950 . S
H6751 C6760 0.950 . S
H6752 C6762 0.950 . S
H6753 C6764 0.950 . S
H6754 C6766 0.950 . S
H6755 C6767 0.950 . S
C6756 H6748 0.950 . S
C6756 C6757 1.386 . S
C6756 C6758 1.391 . S
C6757 C6756 1.386 . S
C6757 C6761 1.393 . S
C6758 H6750 0.950 . S
C6758 C6756 1.391 . S
C6758 C6759 1.400 . S
C6759 C6758 1.400 . S
C6759 C6760 1.398 . S
C6759 C6765 1.491 . S
C6760 H6751 0.950 . S
C6760 C6759 1.398 . S
C6760 C6761 1.391 . S
C6761 H6749 0.950 . S
C6761 C6757 1.393 . S
C6761 C6760 1.391 . S
C6762 H6752 0.950 . S
C6762 C6763 1.386 . S
C6762 C6764 1.391 . S
C6763 C6762 1.386 . S
C6763 C6767 1.393 . S
C6764 H6753 0.950 . S
C6764 C6762 1.391 . S
C6764 C6765 1.400 . S
C6765 C6759 1.491 . S
C6765 C6764 1.400 . S
C6765 C6766 1.398 . S
C6766 H6754 0.950 . S
C6766 C6765 1.398 . S
C6766 C6767 1.391 . S
C6767 H6755 0.950 . S
C6767 C6763 1.393 . S
C6767 C6766 1.391 . S
H6768 C6776 0.950 . S
H6769 C6781 0.950 . S
H6770 C6778 0.950 . S
H6771 C6780 0.950 . S
H6772 C6782 0.950 . S
H6773 C6784 0.950 . S
H6774 C6786 0.950 . S
H6775 C6787 0.950 . S
C6776 H6768 0.950 . S
C6776 C6777 1.386 . S
C6776 C6778 1.391 . S
C6777 C6776 1.386 . S
C6777 C6781 1.393 . S
C6778 H6770 0.950 . S
C6778 C6776 1.391 . S
C6778 C6779 1.400 . S
C6779 C6778 1.400 . S
C6779 C6780 1.398 . S
C6779 C6785 1.491 . S
C6780 H6771 0.950 . S
C6780 C6779 1.398 . S
C6780 C6781 1.391 . S
C6781 H6769 0.950 . S
C6781 C6777 1.393 . S
C6781 C6780 1.391 . S
C6782 H6772 0.950 . S
C6782 C6783 1.386 . S
C6782 C6784 1.391 . S
C6783 C6782 1.386 . S
C6783 C6787 1.393 . S
C6784 H6773 0.950 . S
C6784 C6782 1.391 . S
C6784 C6785 1.400 . S
C6785 C6779 1.491 . S
C6785 C6784 1.400 . S
C6785 C6786 1.398 . S
C6786 H6774 0.950 . S
C6786 C6785 1.398 . S
C6786 C6787 1.391 . S
C6787 H6775 0.950 . S
C6787 C6783 1.393 . S
C6787 C6786 1.391 . S
H6788 C6796 0.950 . S
H6789 C6801 0.950 . S
H6790 C6798 0.950 . S
H6791 C6800 0.950 . S
H6792 C6802 0.950 . S
H6793 C6804 0.950 . S
H6794 C6806 0.950 . S
H6795 C6807 0.950 . S
C6796 H6788 0.950 . S
C6796 C6797 1.386 . S
C6796 C6798 1.391 . S
C6797 C6796 1.386 . S
C6797 C6801 1.393 . S
C6798 H6790 0.950 . S
C6798 C6796 1.391 . S
C6798 C6799 1.400 . S
C6799 C6798 1.400 . S
C6799 C6800 1.398 . S
C6799 C6805 1.491 . S
C6800 H6791 0.950 . S
C6800 C6799 1.398 . S
C6800 C6801 1.391 . S
C6801 H6789 0.950 . S
C6801 C6797 1.393 . S
C6801 C6800 1.391 . S
C6802 H6792 0.950 . S
C6802 C6803 1.386 . S
C6802 C6804 1.391 . S
C6803 C6802 1.386 . S
C6803 C6807 1.393 . S
C6804 H6793 0.950 . S
C6804 C6802 1.391 . S
C6804 C6805 1.400 . S
C6805 C6799 1.491 . S
C6805 C6804 1.400 . S
C6805 C6806 1.398 . S
C6806 H6794 0.950 . S
C6806 C6805 1.398 . S
C6806 C6807 1.391 . S
C6807 H6795 0.950 . S
C6807 C6803 1.393 . S
C6807 C6806 1.391 . S
H6808 C6816 0.950 . S
H6809 C6821 0.950 . S
H6810 C6818 0.950 . S
H6811 C6820 0.950 . S
H6812 C6822 0.950 . S
H6813 C6824 0.950 . S
H6814 C6826 0.950 . S
H6815 C6827 0.950 . S
C6816 H6808 0.950 . S
C6816 C6817 1.386 . S
C6816 C6818 1.391 . S
C6817 C6816 1.386 . S
C6817 C6821 1.393 . S
C6818 H6810 0.950 . S
C6818 C6816 1.391 . S
C6818 C6819 1.400 . S
C6819 C6818 1.400 . S
C6819 C6820 1.398 . S
C6819 C6825 1.491 . S
C6820 H6811 0.950 . S
C6820 C6819 1.398 . S
C6820 C6821 1.391 . S
C6821 H6809 0.950 . S
C6821 C6817 1.393 . S
C6821 C6820 1.391 . S
C6822 H6812 0.950 . S
C6822 C6823 1.386 . S
C6822 C6824 1.391 . S
C6823 C6822 1.386 . S
C6823 C6827 1.393 . S
C6824 H6813 0.950 . S
C6824 C6822 1.391 . S
C6824 C6825 1.400 . S
C6825 C6819 1.491 . S
C6825 C6824 1.400 . S
C6825 C6826 1.398 . S
C6826 H6814 0.950 . S
C6826 C6825 1.398 . S
C6826 C6827 1.391 . S
C6827 H6815 0.950 . S
C6827 C6823 1.393 . S
C6827 C6826 1.391 . S
H6828 C6836 0.950 . S
H6829 C6841 0.950 . S
H6830 C6838 0.950 . S
H6831 C6840 0.950 . S
H6832 C6842 0.950 . S
H6833 C6844 0.950 . S
H6834 C6846 0.950 . S
H6835 C6847 0.950 . S
C6836 H6828 0.950 . S
C6836 C6837 1.386 . S
C6836 C6838 1.391 . S
C6837 C6836 1.386 . S
C6837 C6841 1.393 . S
C6838 H6830 0.950 . S
C6838 C6836 1.391 . S
C6838 C6839 1.400 . S
C6839 C6838 1.400 . S
C6839 C6840 1.398 . S
C6839 C6845 1.491 . S
C6840 H6831 0.950 . S
C6840 C6839 1.398 . S
C6840 C6841 1.391 . S
C6841 H6829 0.950 . S
C6841 C6837 1.393 . S
C6841 C6840 1.391 . S
C6842 H6832 0.950 . S
C6842 C6843 1.386 . S
C6842 C6844 1.391 . S
C6843 C6842 1.386 . S
C6843 C6847 1.393 . S
C6844 H6833 0.950 . S
C6844 C6842 1.391 . S
C6844 C6845 1.400 . S
C6845 C6839 1.491 . S
C6845 C6844 1.400 . S
C6845 C6846 1.398 . S
C6846 H6834 0.950 . S
C6846 C6845 1.398 . S
C6846 C6847 1.391 . S
C6847 H6835 0.950 . S
C6847 C6843 1.393 . S
C6847 C6846 1.391 . S
H6848 C6856 0.950 . S
H6849 C6861 0.950 . S
H6850 C6858 0.950 . S
H6851 C6860 0.950 . S
H6852 C6862 0.950 . S
H6853 C6864 0.950 . S
H6854 C6866 0.950 . S
H6855 C6867 0.950 . S
C6856 H6848 0.950 . S
C6856 C6857 1.386 . S
C6856 C6858 1.391 . S
C6857 C6856 1.386 . S
C6857 C6861 1.393 . S
C6858 H6850 0.950 . S
C6858 C6856 1.391 . S
C6858 C6859 1.400 . S
C6859 C6858 1.400 . S
C6859 C6860 1.398 . S
C6859 C6865 1.491 . S
C6860 H6851 0.950 . S
C6860 C6859 1.398 . S
C6860 C6861 1.391 . S
C6861 H6849 0.950 . S
C6861 C6857 1.393 . S
C6861 C6860 1.391 . S
C6862 H6852 0.950 . S
C6862 C6863 1.386 . S
C6862 C6864 1.391 . S
C6863 C6862 1.386 . S
C6863 C6867 1.393 . S
C6864 H6853 0.950 . S
C6864 C6862 1.391 . S
C6864 C6865 1.400 . S
C6865 C6859 1.491 . S
C6865 C6864 1.400 . S
C6865 C6866 1.398 . S
C6866 H6854 0.950 . S
C6866 C6865 1.398 . S
C6866 C6867 1.391 . S
C6867 H6855 0.950 . S
C6867 C6863 1.393 . S
C6867 C6866 1.391 . S
H6868 C6876 0.950 . S
H6869 C6881 0.950 . S
H6870 C6878 0.950 . S
H6871 C6880 0.950 . S
H6872 C6882 0.950 . S
H6873 C6884 0.950 . S
H6874 C6886 0.950 . S
H6875 C6887 0.950 . S
C6876 H6868 0.950 . S
C6876 C6877 1.386 . S
C6876 C6878 1.391 . S
C6877 C6876 1.386 . S
C6877 C6881 1.393 . S
C6878 H6870 0.950 . S
C6878 C6876 1.391 . S
C6878 C6879 1.400 . S
C6879 C6878 1.400 . S
C6879 C6880 1.398 . S
C6879 C6885 1.491 . S
C6880 H6871 0.950 . S
C6880 C6879 1.398 . S
C6880 C6881 1.391 . S
C6881 H6869 0.950 . S
C6881 C6877 1.393 . S
C6881 C6880 1.391 . S
C6882 H6872 0.950 . S
C6882 C6883 1.386 . S
C6882 C6884 1.391 . S
C6883 C6882 1.386 . S
C6883 C6887 1.393 . S
C6884 H6873 0.950 . S
C6884 C6882 1.391 . S
C6884 C6885 1.400 . S
C6885 C6879 1.491 . S
C6885 C6884 1.400 . S
C6885 C6886 1.398 . S
C6886 H6874 0.950 . S
C6886 C6885 1.398 . S
C6886 C6887 1.391 . S
C6887 H6875 0.950 . S
C6887 C6883 1.393 . S
C6887 C6886 1.391 . S
H6888 C6896 0.950 . S
H6889 C6901 0.950 . S
H6890 C6898 0.950 . S
H6891 C6900 0.950 . S
H6892 C6902 0.950 . S
H6893 C6904 0.950 . S
H6894 C6906 0.950 . S
H6895 C6907 0.950 . S
C6896 H6888 0.950 . S
C6896 C6897 1.386 . S
C6896 C6898 1.391 . S
C6897 C6896 1.386 . S
C6897 C6901 1.393 . S
C6898 H6890 0.950 . S
C6898 C6896 1.391 . S
C6898 C6899 1.400 . S
C6899 C6898 1.400 . S
C6899 C6900 1.398 . S
C6899 C6905 1.491 . S
C6900 H6891 0.950 . S
C6900 C6899 1.398 . S
C6900 C6901 1.391 . S
C6901 H6889 0.950 . S
C6901 C6897 1.393 . S
C6901 C6900 1.391 . S
C6902 H6892 0.950 . S
C6902 C6903 1.386 . S
C6902 C6904 1.391 . S
C6903 C6902 1.386 . S
C6903 C6907 1.393 . S
C6904 H6893 0.950 . S
C6904 C6902 1.391 . S
C6904 C6905 1.400 . S
C6905 C6899 1.491 . S
C6905 C6904 1.400 . S
C6905 C6906 1.398 . S
C6906 H6894 0.950 . S
C6906 C6905 1.398 . S
C6906 C6907 1.391 . S
C6907 H6895 0.950 . S
C6907 C6903 1.393 . S
C6907 C6906 1.391 . S
H6908 C6916 0.950 . S
H6909 C6921 0.950 . S
H6910 C6918 0.950 . S
H6911 C6920 0.950 . S
H6912 C6922 0.950 . S
H6913 C6924 0.960 . S
H6914 C6926 0.950 . S
H6915 C6927 0.950 . S
C6916 H6908 0.950 . S
C6916 C6917 1.386 . S
C6916 C6918 1.391 . S
C6917 C6916 1.386 . S
C6917 C6921 1.393 . S
C6918 H6910 0.950 . S
C6918 C6916 1.391 . S
C6918 C6919 1.400 . S
C6919 C6918 1.400 . S
C6919 C6920 1.398 . S
C6919 C6925 1.599 . S
C6920 H6911 0.950 . S
C6920 C6919 1.398 . S
C6920 C6921 1.391 . S
C6921 H6909 0.950 . S
C6921 C6917 1.393 . S
C6921 C6920 1.391 . S
C6922 H6912 0.950 . S
C6922 C6923 1.386 . S
C6922 C6924 1.391 . S
C6923 C6922 1.386 . S
C6923 C6927 1.393 . S
C6924 H6913 0.960 . S
C6924 C6922 1.391 . S
C6924 C6925 1.352 1_556 S
C6925 C6919 1.599 . S
C6925 C6924 1.352 1_554 S
C6925 C6926 1.342 1_554 S
C6926 H6914 0.950 . S
C6926 C6925 1.342 1_556 S
C6926 C6927 1.391 . S
C6927 H6915 0.950 . S
C6927 C6923 1.393 . S
C6927 C6926 1.391 . S
H6928 C6936 0.950 . S
H6929 C6941 0.950 . S
H6930 C6938 0.950 . S
H6931 C6940 0.950 . S
H6932 C6942 0.950 . S
H6933 C6944 0.950 . S
H6934 C6946 0.950 . S
H6935 C6947 0.950 . S
C6936 H6928 0.950 . S
C6936 C6937 1.386 . S
C6936 C6938 1.391 . S
C6937 C6936 1.386 . S
C6937 C6941 1.393 . S
C6938 H6930 0.950 . S
C6938 C6936 1.391 . S
C6938 C6939 1.400 . S
C6939 C6938 1.400 . S
C6939 C6940 1.398 . S
C6939 C6945 1.491 . S
C6940 H6931 0.950 . S
C6940 C6939 1.398 . S
C6940 C6941 1.391 . S
C6941 H6929 0.950 . S
C6941 C6937 1.393 . S
C6941 C6940 1.391 . S
C6942 H6932 0.950 . S
C6942 C6943 1.386 . S
C6942 C6944 1.391 . S
C6943 C6942 1.386 . S
C6943 C6947 1.393 . S
C6944 H6933 0.950 . S
C6944 C6942 1.391 . S
C6944 C6945 1.400 . S
C6945 C6939 1.491 . S
C6945 C6944 1.400 . S
C6945 C6946 1.398 . S
C6946 H6934 0.950 . S
C6946 C6945 1.398 . S
C6946 C6947 1.391 . S
C6947 H6935 0.950 . S
C6947 C6943 1.393 . S
C6947 C6946 1.391 . S
H6948 C6956 0.950 . S
H6949 C6961 0.950 . S
H6950 C6958 0.950 . S
H6951 C6960 0.950 . S
H6952 C6962 0.950 . S
H6953 C6964 0.850 1_556 S
H6954 C6966 0.950 . S
H6955 C6967 0.950 . S
C6956 H6948 0.950 . S
C6956 C6957 1.386 . S
C6956 C6958 1.391 . S
C6957 C6956 1.386 . S
C6957 C6961 1.393 . S
C6958 H6950 0.950 . S
C6958 C6956 1.391 . S
C6958 C6959 1.400 . S
C6959 C6958 1.400 . S
C6959 C6960 1.398 . S
C6959 C6965 1.613 . S
C6960 H6951 0.950 . S
C6960 C6959 1.398 . S
C6960 C6961 1.391 . S
C6961 H6949 0.950 . S
C6961 C6957 1.393 . S
C6961 C6960 1.391 . S
C6962 H6952 0.950 . S
C6962 C6963 1.386 . S
C6962 C6964 1.536 . S
C6963 C6962 1.386 . S
C6963 C6967 1.393 . S
C6964 H6953 0.850 1_554 S
C6964 C6962 1.536 . S
C6964 C6965 1.360 1_554 S
C6965 C6959 1.613 . S
C6965 C6964 1.360 1_556 S
C6965 C6966 1.309 1_556 S
C6966 H6954 0.950 . S
C6966 C6965 1.309 1_554 S
C6966 C6967 1.391 . S
C6967 H6955 0.950 . S
C6967 C6963 1.393 . S
C6967 C6966 1.391 . S
H6968 C6976 0.950 . S
H6969 C6981 0.950 . S
H6970 C6978 0.950 . S
H6971 C6980 0.950 . S
H6972 C6982 0.950 . S
H6973 C6984 0.950 . S
H6974 C6986 0.950 . S
H6975 C6987 0.950 . S
C6976 H6968 0.950 . S
C6976 C6977 1.386 . S
C6976 C6978 1.391 . S
C6977 C6976 1.386 . S
C6977 C6981 1.393 . S
C6978 H6970 0.950 . S
C6978 C6976 1.391 . S
C6978 C6979 1.400 . S
C6979 C6978 1.400 . S
C6979 C6980 1.398 . S
C6979 C6985 1.491 . S
C6980 H6971 0.950 . S
C6980 C6979 1.398 . S
C6980 C6981 1.391 . S
C6981 H6969 0.950 . S
C6981 C6977 1.393 . S
C6981 C6980 1.391 . S
C6982 H6972 0.950 . S
C6982 C6983 1.386 . S
C6982 C6984 1.391 . S
C6983 C6982 1.386 . S
C6983 C6987 1.393 . S
C6984 H6973 0.950 . S
C6984 C6982 1.391 . S
C6984 C6985 1.400 . S
C6985 C6979 1.491 . S
C6985 C6984 1.400 . S
C6985 C6986 1.398 . S
C6986 H6974 0.950 . S
C6986 C6985 1.398 . S
C6986 C6987 1.391 . S
C6987 H6975 0.950 . S
C6987 C6983 1.393 . S
C6987 C6986 1.391 . S
H6988 C6996 0.950 . S
H6989 C7001 0.950 . S
H6990 C6998 0.950 . S
H6991 C7000 0.950 . S
H6992 C7002 0.950 . S
H6993 C7004 0.950 . S
H6994 C7006 0.950 . S
H6995 C7007 0.950 . S
C6996 H6988 0.950 . S
C6996 C6997 1.386 . S
C6996 C6998 1.391 . S
C6997 C6996 1.386 . S
C6997 C7001 1.393 . S
C6998 H6990 0.950 . S
C6998 C6996 1.391 . S
C6998 C6999 1.400 . S
C6999 C6998 1.400 . S
C6999 C7000 1.398 . S
C6999 C7005 1.491 . S
C7000 H6991 0.950 . S
C7000 C6999 1.398 . S
C7000 C7001 1.391 . S
C7001 H6989 0.950 . S
C7001 C6997 1.393 . S
C7001 C7000 1.391 . S
C7002 H6992 0.950 . S
C7002 C7003 1.386 . S
C7002 C7004 1.391 . S
C7003 C7002 1.386 . S
C7003 C7007 1.393 . S
C7004 H6993 0.950 . S
C7004 C7002 1.391 . S
C7004 C7005 1.400 . S
C7005 C6999 1.491 . S
C7005 C7004 1.400 . S
C7005 C7006 1.398 . S
C7006 H6994 0.950 . S
C7006 C7005 1.398 . S
C7006 C7007 1.391 . S
C7007 H6995 0.950 . S
C7007 C7003 1.393 . S
C7007 C7006 1.391 . S
H7008 C7016 0.950 . S
H7009 C7021 0.950 . S
H7010 C7018 0.950 . S
H7011 C7020 0.950 . S
H7012 C7022 0.950 . S
H7013 C7024 0.950 . S
H7014 C7026 0.950 . S
H7015 C7027 0.950 . S
C7016 H7008 0.950 . S
C7016 C7017 1.386 . S
C7016 C7018 1.391 . S
C7017 C7016 1.386 . S
C7017 C7021 1.393 . S
C7018 H7010 0.950 . S
C7018 C7016 1.391 . S
C7018 C7019 1.400 . S
C7019 C7018 1.400 . S
C7019 C7020 1.398 . S
C7019 C7025 1.491 . S
C7020 H7011 0.950 . S
C7020 C7019 1.398 . S
C7020 C7021 1.391 . S
C7021 H7009 0.950 . S
C7021 C7017 1.393 . S
C7021 C7020 1.391 . S
C7022 H7012 0.950 . S
C7022 C7023 1.386 . S
C7022 C7024 1.391 . S
C7023 C7022 1.386 . S
C7023 C7027 1.393 . S
C7024 H7013 0.950 . S
C7024 C7022 1.391 . S
C7024 C7025 1.400 . S
C7025 C7019 1.491 . S
C7025 C7024 1.400 . S
C7025 C7026 1.398 . S
C7026 H7014 0.950 . S
C7026 C7025 1.398 . S
C7026 C7027 1.391 . S
C7027 H7015 0.950 . S
C7027 C7023 1.393 . S
C7027 C7026 1.391 . S
H7028 C7036 0.950 . S
H7029 C7041 0.950 . S
H7030 C7038 0.950 . S
H7031 C7040 0.950 . S
H7032 C7042 0.950 . S
H7033 C7044 0.950 . S
H7034 C7046 0.950 . S
H7035 C7047 0.950 . S
C7036 H7028 0.950 . S
C7036 C7037 1.386 . S
C7036 C7038 1.391 . S
C7037 C7036 1.386 . S
C7037 C7041 1.393 . S
C7038 H7030 0.950 . S
C7038 C7036 1.391 . S
C7038 C7039 1.400 . S
C7039 C7038 1.400 . S
C7039 C7040 1.398 . S
C7039 C7045 1.491 . S
C7040 H7031 0.950 . S
C7040 C7039 1.398 . S
C7040 C7041 1.391 . S
C7041 H7029 0.950 . S
C7041 C7037 1.393 . S
C7041 C7040 1.391 . S
C7042 H7032 0.950 . S
C7042 C7043 1.386 . S
C7042 C7044 1.391 . S
C7043 C7042 1.386 . S
C7043 C7047 1.393 . S
C7044 H7033 0.950 . S
C7044 C7042 1.391 . S
C7044 C7045 1.400 . S
C7045 C7039 1.491 . S
C7045 C7044 1.400 . S
C7045 C7046 1.398 . S
C7046 H7034 0.950 . S
C7046 C7045 1.398 . S
C7046 C7047 1.391 . S
C7047 H7035 0.950 . S
C7047 C7043 1.393 . S
C7047 C7046 1.391 . S
H7048 C7056 0.950 . S
H7049 C7061 0.950 . S
H7050 C7058 0.950 . S
H7051 C7060 0.950 . S
H7052 C7062 0.950 . S
H7053 C7064 0.950 . S
H7054 C7066 0.950 . S
H7055 C7067 0.950 . S
C7056 H7048 0.950 . S
C7056 C7057 1.386 . S
C7056 C7058 1.391 . S
C7057 C7056 1.386 . S
C7057 C7061 1.393 . S
C7058 H7050 0.950 . S
C7058 C7056 1.391 . S
C7058 C7059 1.400 . S
C7059 C7058 1.400 . S
C7059 C7060 1.398 . S
C7059 C7065 1.491 . S
C7060 H7051 0.950 . S
C7060 C7059 1.398 . S
C7060 C7061 1.391 . S
C7061 H7049 0.950 . S
C7061 C7057 1.393 . S
C7061 C7060 1.391 . S
C7062 H7052 0.950 . S
C7062 C7063 1.386 . S
C7062 C7064 1.391 . S
C7063 C7062 1.386 . S
C7063 C7067 1.393 . S
C7064 H7053 0.950 . S
C7064 C7062 1.391 . S
C7064 C7065 1.400 . S
C7065 C7059 1.491 . S
C7065 C7064 1.400 . S
C7065 C7066 1.398 . S
C7066 H7054 0.950 . S
C7066 C7065 1.398 . S
C7066 C7067 1.391 . S
C7067 H7055 0.950 . S
C7067 C7063 1.393 . S
C7067 C7066 1.391 . S
H7068 C7076 0.950 . S
H7069 C7081 0.950 . S
H7070 C7078 0.950 . S
H7071 C7080 0.950 . S
H7072 C7082 0.950 . S
H7073 C7084 0.950 . S
H7074 C7086 0.950 . S
H7075 C7087 0.950 . S
C7076 H7068 0.950 . S
C7076 C7077 1.386 . S
C7076 C7078 1.391 . S
C7077 C7076 1.386 . S
C7077 C7081 1.393 . S
C7078 H7070 0.950 . S
C7078 C7076 1.391 . S
C7078 C7079 1.400 . S
C7079 C7078 1.400 . S
C7079 C7080 1.398 . S
C7079 C7085 1.491 . S
C7080 H7071 0.950 . S
C7080 C7079 1.398 . S
C7080 C7081 1.391 . S
C7081 H7069 0.950 . S
C7081 C7077 1.393 . S
C7081 C7080 1.391 . S
C7082 H7072 0.950 . S
C7082 C7083 1.386 . S
C7082 C7084 1.391 . S
C7083 C7082 1.386 . S
C7083 C7087 1.393 . S
C7084 H7073 0.950 . S
C7084 C7082 1.391 . S
C7084 C7085 1.400 . S
C7085 C7079 1.491 . S
C7085 C7084 1.400 . S
C7085 C7086 1.398 . S
C7086 H7074 0.950 . S
C7086 C7085 1.398 . S
C7086 C7087 1.391 . S
C7087 H7075 0.950 . S
C7087 C7083 1.393 . S
C7087 C7086 1.391 . S
H7088 C7096 0.950 . S
H7089 C7101 0.950 . S
H7090 C7098 0.950 . S
H7091 C7100 0.950 . S
H7092 C7102 0.950 . S
H7093 C7104 0.950 . S
H7094 C7106 0.950 . S
H7095 C7107 0.950 . S
C7096 H7088 0.950 . S
C7096 C7097 1.386 . S
C7096 C7098 1.391 . S
C7097 C7096 1.386 . S
C7097 C7101 1.393 . S
C7098 H7090 0.950 . S
C7098 C7096 1.391 . S
C7098 C7099 1.400 . S
C7099 C7098 1.400 . S
C7099 C7100 1.398 . S
C7099 C7105 1.491 . S
C7100 H7091 0.950 . S
C7100 C7099 1.398 . S
C7100 C7101 1.391 . S
C7101 H7089 0.950 . S
C7101 C7097 1.393 . S
C7101 C7100 1.391 . S
C7102 H7092 0.950 . S
C7102 C7103 1.386 . S
C7102 C7104 1.391 . S
C7103 C7102 1.386 . S
C7103 C7107 1.393 . S
C7104 H7093 0.950 . S
C7104 C7102 1.391 . S
C7104 C7105 1.400 . S
C7105 C7099 1.491 . S
C7105 C7104 1.400 . S
C7105 C7106 1.398 . S
C7106 H7094 0.950 . S
C7106 C7105 1.398 . S
C7106 C7107 1.391 . S
C7107 H7095 0.950 . S
C7107 C7103 1.393 . S
C7107 C7106 1.391 . S
H7108 C7116 0.950 . S
H7109 C7121 0.950 . S
H7110 C7118 0.950 . S
H7111 C7120 0.950 . S
H7112 C7122 0.950 . S
H7113 C7124 0.950 . S
H7114 C7126 0.950 . S
H7115 C7127 0.950 . S
C7116 H7108 0.950 . S
C7116 C7117 1.386 . S
C7116 C7118 1.391 . S
C7117 C7116 1.386 . S
C7117 C7121 1.393 . S
C7118 H7110 0.950 . S
C7118 C7116 1.391 . S
C7118 C7119 1.400 . S
C7119 C7118 1.400 . S
C7119 C7120 1.398 . S
C7119 C7125 1.491 . S
C7120 H7111 0.950 . S
C7120 C7119 1.398 . S
C7120 C7121 1.391 . S
C7121 H7109 0.950 . S
C7121 C7117 1.393 . S
C7121 C7120 1.391 . S
C7122 H7112 0.950 . S
C7122 C7123 1.386 . S
C7122 C7124 1.391 . S
C7123 C7122 1.386 . S
C7123 C7127 1.393 . S
C7124 H7113 0.950 . S
C7124 C7122 1.391 . S
C7124 C7125 1.400 . S
C7125 C7119 1.491 . S
C7125 C7124 1.400 . S
C7125 C7126 1.398 . S
C7126 H7114 0.950 . S
C7126 C7125 1.398 . S
C7126 C7127 1.391 . S
C7127 H7115 0.950 . S
C7127 C7123 1.393 . S
C7127 C7126 1.391 . S
H7128 C7136 0.950 . S
H7129 C7141 0.950 . S
H7130 C7138 0.950 . S
H7131 C7140 0.950 . S
H7132 C7142 0.950 . S
H7133 C7144 0.950 . S
H7134 C7146 0.950 . S
H7135 C7147 0.950 . S
C7136 H7128 0.950 . S
C7136 C7137 1.386 . S
C7136 C7138 1.391 . S
C7137 C7136 1.386 . S
C7137 C7141 1.393 . S
C7138 H7130 0.950 . S
C7138 C7136 1.391 . S
C7138 C7139 1.400 . S
C7139 C7138 1.400 . S
C7139 C7140 1.398 . S
C7139 C7145 1.491 . S
C7140 H7131 0.950 . S
C7140 C7139 1.398 . S
C7140 C7141 1.391 . S
C7141 H7129 0.950 . S
C7141 C7137 1.393 . S
C7141 C7140 1.391 . S
C7142 H7132 0.950 . S
C7142 C7143 1.386 . S
C7142 C7144 1.391 . S
C7143 C7142 1.386 . S
C7143 C7147 1.393 . S
C7144 H7133 0.950 . S
C7144 C7142 1.391 . S
C7144 C7145 1.400 . S
C7145 C7139 1.491 . S
C7145 C7144 1.400 . S
C7145 C7146 1.398 . S
C7146 H7134 0.950 . S
C7146 C7145 1.398 . S
C7146 C7147 1.391 . S
C7147 H7135 0.950 . S
C7147 C7143 1.393 . S
C7147 C7146 1.391 . S
H7148 C7156 0.950 . S
H7149 C7161 0.950 . S
H7150 C7158 0.950 . S
H7151 C7160 0.950 . S
H7152 C7162 0.950 . S
H7153 C7164 0.950 . S
H7154 C7166 0.950 . S
H7155 C7167 0.950 . S
C7156 H7148 0.950 . S
C7156 C7157 1.386 . S
C7156 C7158 1.391 . S
C7157 C7156 1.386 . S
C7157 C7161 1.393 . S
C7158 H7150 0.950 . S
C7158 C7156 1.391 . S
C7158 C7159 1.400 . S
C7159 C7158 1.400 . S
C7159 C7160 1.398 . S
C7159 C7165 1.491 . S
C7160 H7151 0.950 . S
C7160 C7159 1.398 . S
C7160 C7161 1.391 . S
C7161 H7149 0.950 . S
C7161 C7157 1.393 . S
C7161 C7160 1.391 . S
C7162 H7152 0.950 . S
C7162 C7163 1.386 . S
C7162 C7164 1.391 . S
C7163 C7162 1.386 . S
C7163 C7167 1.393 . S
C7164 H7153 0.950 . S
C7164 C7162 1.391 . S
C7164 C7165 1.400 . S
C7165 C7159 1.491 . S
C7165 C7164 1.400 . S
C7165 C7166 1.398 . S
C7166 H7154 0.950 . S
C7166 C7165 1.398 . S
C7166 C7167 1.391 . S
C7167 H7155 0.950 . S
C7167 C7163 1.393 . S
C7167 C7166 1.391 . S
H7168 C7176 0.950 . S
H7169 C7181 0.950 . S
H7170 C7178 0.950 . S
H7171 C7180 0.950 . S
H7172 C7182 0.950 . S
H7173 C7184 0.950 . S
H7174 C7186 0.950 . S
H7175 C7187 0.950 . S
C7176 H7168 0.950 . S
C7176 C7177 1.386 . S
C7176 C7178 1.391 . S
C7177 C7176 1.386 . S
C7177 C7181 1.393 . S
C7178 H7170 0.950 . S
C7178 C7176 1.391 . S
C7178 C7179 1.400 . S
C7179 C7178 1.400 . S
C7179 C7180 1.398 . S
C7179 C7185 1.491 . S
C7180 H7171 0.950 . S
C7180 C7179 1.398 . S
C7180 C7181 1.391 . S
C7181 H7169 0.950 . S
C7181 C7177 1.393 . S
C7181 C7180 1.391 . S
C7182 H7172 0.950 . S
C7182 C7183 1.386 . S
C7182 C7184 1.391 . S
C7183 C7182 1.386 . S
C7183 C7187 1.393 . S
C7184 H7173 0.950 . S
C7184 C7182 1.391 . S
C7184 C7185 1.400 . S
C7185 C7179 1.491 . S
C7185 C7184 1.400 . S
C7185 C7186 1.398 . S
C7186 H7174 0.950 . S
C7186 C7185 1.398 . S
C7186 C7187 1.391 . S
C7187 H7175 0.950 . S
C7187 C7183 1.393 . S
C7187 C7186 1.391 . S
H7188 C7196 0.950 . S
H7189 C7201 0.950 . S
H7190 C7198 0.950 . S
H7191 C7200 0.950 . S
H7192 C7202 0.950 . S
H7193 C7204 0.950 . S
H7194 C7206 0.950 . S
H7195 C7207 0.950 . S
C7196 H7188 0.950 . S
C7196 C7197 1.386 . S
C7196 C7198 1.391 . S
C7197 C7196 1.386 . S
C7197 C7201 1.393 . S
C7198 H7190 0.950 . S
C7198 C7196 1.391 . S
C7198 C7199 1.400 . S
C7199 C7198 1.400 . S
C7199 C7200 1.398 . S
C7199 C7205 1.491 . S
C7200 H7191 0.950 . S
C7200 C7199 1.398 . S
C7200 C7201 1.391 . S
C7201 H7189 0.950 . S
C7201 C7197 1.393 . S
C7201 C7200 1.391 . S
C7202 H7192 0.950 . S
C7202 C7203 1.386 . S
C7202 C7204 1.391 . S
C7203 C7202 1.386 . S
C7203 C7207 1.393 . S
C7204 H7193 0.950 . S
C7204 C7202 1.391 . S
C7204 C7205 1.400 . S
C7205 C7199 1.491 . S
C7205 C7204 1.400 . S
C7205 C7206 1.398 . S
C7206 H7194 0.950 . S
C7206 C7205 1.398 . S
C7206 C7207 1.391 . S
C7207 H7195 0.950 . S
C7207 C7203 1.393 . S
C7207 C7206 1.391 . S
H7208 C7216 0.950 . S
H7209 C7221 0.950 . S
H7210 C7218 0.950 . S
H7211 C7220 0.950 . S
H7212 C7222 0.950 . S
H7213 C7224 0.950 . S
H7214 C7226 0.950 . S
H7215 C7227 0.950 . S
C7216 H7208 0.950 . S
C7216 C7217 1.386 . S
C7216 C7218 1.391 . S
C7217 C7216 1.386 . S
C7217 C7221 1.393 . S
C7218 H7210 0.950 . S
C7218 C7216 1.391 . S
C7218 C7219 1.400 . S
C7219 C7218 1.400 . S
C7219 C7220 1.398 . S
C7219 C7225 1.491 . S
C7220 H7211 0.950 . S
C7220 C7219 1.398 . S
C7220 C7221 1.391 . S
C7221 H7209 0.950 . S
C7221 C7217 1.393 . S
C7221 C7220 1.391 . S
C7222 H7212 0.950 . S
C7222 C7223 1.386 . S
C7222 C7224 1.391 . S
C7223 C7222 1.386 . S
C7223 C7227 1.393 . S
C7224 H7213 0.950 . S
C7224 C7222 1.391 . S
C7224 C7225 1.400 . S
C7225 C7219 1.491 . S
C7225 C7224 1.400 . S
C7225 C7226 1.398 . S
C7226 H7214 0.950 . S
C7226 C7225 1.398 . S
C7226 C7227 1.391 . S
C7227 H7215 0.950 . S
C7227 C7223 1.393 . S
C7227 C7226 1.391 . S
H7228 C7236 0.950 . S
H7229 C7241 0.950 . S
H7230 C7238 0.950 . S
H7231 C7240 0.950 . S
H7232 C7242 0.950 . S
H7233 C7244 0.950 . S
H7234 C7246 0.950 . S
H7235 C7247 0.950 . S
C7236 H7228 0.950 . S
C7236 C7237 1.386 . S
C7236 C7238 1.391 . S
C7237 C7236 1.386 . S
C7237 C7241 1.393 . S
C7238 H7230 0.950 . S
C7238 C7236 1.391 . S
C7238 C7239 1.400 . S
C7239 C7238 1.400 . S
C7239 C7240 1.398 . S
C7239 C7245 1.491 . S
C7240 H7231 0.950 . S
C7240 C7239 1.398 . S
C7240 C7241 1.391 . S
C7241 H7229 0.950 . S
C7241 C7237 1.393 . S
C7241 C7240 1.391 . S
C7242 H7232 0.950 . S
C7242 C7243 1.386 . S
C7242 C7244 1.391 . S
C7243 C7242 1.386 . S
C7243 C7247 1.393 . S
C7244 H7233 0.950 . S
C7244 C7242 1.391 . S
C7244 C7245 1.400 . S
C7245 C7239 1.491 . S
C7245 C7244 1.400 . S
C7245 C7246 1.398 . S
C7246 H7234 0.950 . S
C7246 C7245 1.398 . S
C7246 C7247 1.391 . S
C7247 H7235 0.950 . S
C7247 C7243 1.393 . S
C7247 C7246 1.391 . S
H7248 C7256 0.950 . S
H7249 C7261 0.950 . S
H7250 C7258 0.950 . S
H7251 C7260 0.950 . S
H7252 C7262 0.950 . S
H7253 C7264 0.950 . S
H7254 C7266 0.950 . S
H7255 C7267 0.950 . S
C7256 H7248 0.950 . S
C7256 C7257 1.386 . S
C7256 C7258 1.391 . S
C7257 C7256 1.386 . S
C7257 C7261 1.393 . S
C7258 H7250 0.950 . S
C7258 C7256 1.391 . S
C7258 C7259 1.400 . S
C7259 C7258 1.400 . S
C7259 C7260 1.398 . S
C7259 C7265 1.491 . S
C7260 H7251 0.950 . S
C7260 C7259 1.398 . S
C7260 C7261 1.391 . S
C7261 H7249 0.950 . S
C7261 C7257 1.393 . S
C7261 C7260 1.391 . S
C7262 H7252 0.950 . S
C7262 C7263 1.386 . S
C7262 C7264 1.391 . S
C7263 C7262 1.386 . S
C7263 C7267 1.393 . S
C7264 H7253 0.950 . S
C7264 C7262 1.391 . S
C7264 C7265 1.400 . S
C7265 C7259 1.491 . S
C7265 C7264 1.400 . S
C7265 C7266 1.398 . S
C7266 H7254 0.950 . S
C7266 C7265 1.398 . S
C7266 C7267 1.391 . S
C7267 H7255 0.950 . S
C7267 C7263 1.393 . S
C7267 C7266 1.391 . S
H7268 C7276 0.950 . S
H7269 C7281 0.950 . S
H7270 C7278 0.950 . S
H7271 C7280 0.950 . S
H7272 C7282 0.950 . S
H7273 C7284 0.950 . S
H7274 C7286 0.950 . S
H7275 C7287 0.950 . S
C7276 H7268 0.950 . S
C7276 C7277 1.386 . S
C7276 C7278 1.391 . S
C7277 C7276 1.386 . S
C7277 C7281 1.393 . S
C7278 H7270 0.950 . S
C7278 C7276 1.391 . S
C7278 C7279 1.400 . S
C7279 C7278 1.400 . S
C7279 C7280 1.398 . S
C7279 C7285 1.491 . S
C7280 H7271 0.950 . S
C7280 C7279 1.398 . S
C7280 C7281 1.391 . S
C7281 H7269 0.950 . S
C7281 C7277 1.393 . S
C7281 C7280 1.391 . S
C7282 H7272 0.950 . S
C7282 C7283 1.386 . S
C7282 C7284 1.391 . S
C7283 C7282 1.386 . S
C7283 C7287 1.393 . S
C7284 H7273 0.950 . S
C7284 C7282 1.391 . S
C7284 C7285 1.400 . S
C7285 C7279 1.491 . S
C7285 C7284 1.400 . S
C7285 C7286 1.398 . S
C7286 H7274 0.950 . S
C7286 C7285 1.398 . S
C7286 C7287 1.391 . S
C7287 H7275 0.950 . S
C7287 C7283 1.393 . S
C7287 C7286 1.391 . S
H7288 C7296 0.950 . S
H7289 C7301 0.950 . S
H7290 C7298 0.950 . S
H7291 C7300 0.950 . S
H7292 C7302 0.950 . S
H7293 C7304 0.950 . S
H7294 C7306 0.950 . S
H7295 C7307 0.950 . S
C7296 H7288 0.950 . S
C7296 C7297 1.386 . S
C7296 C7298 1.391 . S
C7297 C7296 1.386 . S
C7297 C7301 1.393 . S
C7298 H7290 0.950 . S
C7298 C7296 1.391 . S
C7298 C7299 1.400 . S
C7299 C7298 1.400 . S
C7299 C7300 1.398 . S
C7299 C7305 1.491 . S
C7300 H7291 0.950 . S
C7300 C7299 1.398 . S
C7300 C7301 1.391 . S
C7301 H7289 0.950 . S
C7301 C7297 1.393 . S
C7301 C7300 1.391 . S
C7302 H7292 0.950 . S
C7302 C7303 1.386 . S
C7302 C7304 1.391 . S
C7303 C7302 1.386 . S
C7303 C7307 1.393 . S
C7304 H7293 0.950 . S
C7304 C7302 1.391 . S
C7304 C7305 1.400 . S
C7305 C7299 1.491 . S
C7305 C7304 1.400 . S
C7305 C7306 1.398 . S
C7306 H7294 0.950 . S
C7306 C7305 1.398 . S
C7306 C7307 1.391 . S
C7307 H7295 0.950 . S
C7307 C7303 1.393 . S
C7307 C7306 1.391 . S
H7308 C7316 0.950 . S
H7309 C7321 0.950 . S
H7310 C7318 0.950 . S
H7311 C7320 0.950 . S
H7312 C7322 0.950 . S
H7313 C7324 0.950 . S
H7314 C7326 0.950 . S
H7315 C7327 0.950 . S
C7316 H7308 0.950 . S
C7316 C7317 1.386 . S
C7316 C7318 1.391 . S
C7317 C7316 1.386 . S
C7317 C7321 1.393 . S
C7318 H7310 0.950 . S
C7318 C7316 1.391 . S
C7318 C7319 1.400 . S
C7319 C7318 1.400 . S
C7319 C7320 1.398 . S
C7319 C7325 1.491 . S
C7320 H7311 0.950 . S
C7320 C7319 1.398 . S
C7320 C7321 1.391 . S
C7321 H7309 0.950 . S
C7321 C7317 1.393 . S
C7321 C7320 1.391 . S
C7322 H7312 0.950 . S
C7322 C7323 1.386 . S
C7322 C7324 1.391 . S
C7323 C7322 1.386 . S
C7323 C7327 1.393 . S
C7324 H7313 0.950 . S
C7324 C7322 1.391 . S
C7324 C7325 1.400 . S
C7325 C7319 1.491 . S
C7325 C7324 1.400 . S
C7325 C7326 1.398 . S
C7326 H7314 0.950 . S
C7326 C7325 1.398 . S
C7326 C7327 1.391 . S
C7327 H7315 0.950 . S
C7327 C7323 1.393 . S
C7327 C7326 1.391 . S
H7328 C7336 0.950 . S
H7329 C7341 0.950 . S
H7330 C7338 0.950 . S
H7331 C7340 0.950 . S
H7332 C7342 0.950 . S
H7333 C7344 0.950 . S
H7334 C7346 0.950 . S
H7335 C7347 0.950 . S
C7336 H7328 0.950 . S
C7336 C7337 1.386 . S
C7336 C7338 1.391 . S
C7337 C7336 1.386 . S
C7337 C7341 1.393 . S
C7338 H7330 0.950 . S
C7338 C7336 1.391 . S
C7338 C7339 1.400 . S
C7339 C7338 1.400 . S
C7339 C7340 1.398 . S
C7339 C7345 1.491 . S
C7340 H7331 0.950 . S
C7340 C7339 1.398 . S
C7340 C7341 1.391 . S
C7341 H7329 0.950 . S
C7341 C7337 1.393 . S
C7341 C7340 1.391 . S
C7342 H7332 0.950 . S
C7342 C7343 1.386 . S
C7342 C7344 1.391 . S
C7343 C7342 1.386 . S
C7343 C7347 1.393 . S
C7344 H7333 0.950 . S
C7344 C7342 1.391 . S
C7344 C7345 1.400 . S
C7345 C7339 1.491 . S
C7345 C7344 1.400 . S
C7345 C7346 1.398 . S
C7346 H7334 0.950 . S
C7346 C7345 1.398 . S
C7346 C7347 1.391 . S
C7347 H7335 0.950 . S
C7347 C7343 1.393 . S
C7347 C7346 1.391 . S
H7348 C7356 0.950 . S
H7349 C7361 0.950 . S
H7350 C7358 0.950 . S
H7351 C7360 0.950 . S
H7352 C7362 0.950 . S
H7353 C7364 0.950 . S
H7354 C7366 0.950 . S
H7355 C7367 0.950 . S
C7356 H7348 0.950 . S
C7356 C7357 1.386 . S
C7356 C7358 1.391 . S
C7357 C7356 1.386 . S
C7357 C7361 1.393 . S
C7358 H7350 0.950 . S
C7358 C7356 1.391 . S
C7358 C7359 1.400 . S
C7359 C7358 1.400 . S
C7359 C7360 1.398 . S
C7359 C7365 1.491 . S
C7360 H7351 0.950 . S
C7360 C7359 1.398 . S
C7360 C7361 1.391 . S
C7361 H7349 0.950 . S
C7361 C7357 1.393 . S
C7361 C7360 1.391 . S
C7362 H7352 0.950 . S
C7362 C7363 1.386 . S
C7362 C7364 1.391 . S
C7363 C7362 1.386 . S
C7363 C7367 1.393 . S
C7364 H7353 0.950 . S
C7364 C7362 1.391 . S
C7364 C7365 1.400 . S
C7365 C7359 1.491 . S
C7365 C7364 1.400 . S
C7365 C7366 1.398 . S
C7366 H7354 0.950 . S
C7366 C7365 1.398 . S
C7366 C7367 1.391 . S
C7367 H7355 0.950 . S
C7367 C7363 1.393 . S
C7367 C7366 1.391 . S
H7368 C7376 0.950 . S
H7369 C7381 0.950 . S
H7370 C7378 0.950 . S
H7371 C7380 0.950 . S
H7372 C7382 0.950 . S
H7373 C7384 0.950 . S
H7374 C7386 0.950 . S
H7375 C7387 0.950 . S
C7376 H7368 0.950 . S
C7376 C7377 1.386 . S
C7376 C7378 1.391 . S
C7377 C7376 1.386 . S
C7377 C7381 1.393 . S
C7378 H7370 0.950 . S
C7378 C7376 1.391 . S
C7378 C7379 1.400 . S
C7379 C7378 1.400 . S
C7379 C7380 1.398 . S
C7379 C7385 1.491 . S
C7380 H7371 0.950 . S
C7380 C7379 1.398 . S
C7380 C7381 1.391 . S
C7381 H7369 0.950 . S
C7381 C7377 1.393 . S
C7381 C7380 1.391 . S
C7382 H7372 0.950 . S
C7382 C7383 1.386 . S
C7382 C7384 1.391 . S
C7383 C7382 1.386 . S
C7383 C7387 1.393 . S
C7384 H7373 0.950 . S
C7384 C7382 1.391 . S
C7384 C7385 1.400 . S
C7385 C7379 1.491 . S
C7385 C7384 1.400 . S
C7385 C7386 1.398 . S
C7386 H7374 0.950 . S
C7386 C7385 1.398 . S
C7386 C7387 1.391 . S
C7387 H7375 0.950 . S
C7387 C7383 1.393 . S
C7387 C7386 1.391 . S
H7388 C7396 0.950 . S
H7389 C7401 0.950 . S
H7390 C7398 0.950 . S
H7391 C7400 0.950 . S
H7392 C7402 0.950 . S
H7393 C7404 0.950 . S
H7394 C7406 0.950 . S
H7395 C7407 0.950 . S
C7396 H7388 0.950 . S
C7396 C7397 1.386 . S
C7396 C7398 1.391 . S
C7397 C7396 1.386 . S
C7397 C7401 1.393 . S
C7398 H7390 0.950 . S
C7398 C7396 1.391 . S
C7398 C7399 1.400 . S
C7399 C7398 1.400 . S
C7399 C7400 1.398 . S
C7399 C7405 1.491 . S
C7400 H7391 0.950 . S
C7400 C7399 1.398 . S
C7400 C7401 1.391 . S
C7401 H7389 0.950 . S
C7401 C7397 1.393 . S
C7401 C7400 1.391 . S
C7402 H7392 0.950 . S
C7402 C7403 1.386 . S
C7402 C7404 1.391 . S
C7403 C7402 1.386 . S
C7403 C7407 1.393 . S
C7404 H7393 0.950 . S
C7404 C7402 1.391 . S
C7404 C7405 1.400 . S
C7405 C7399 1.491 . S
C7405 C7404 1.400 . S
C7405 C7406 1.398 . S
C7406 H7394 0.950 . S
C7406 C7405 1.398 . S
C7406 C7407 1.391 . S
C7407 H7395 0.950 . S
C7407 C7403 1.393 . S
C7407 C7406 1.391 . S
H7408 C7416 0.950 . S
H7409 C7421 0.950 . S
H7410 C7418 0.950 . S
H7411 C7420 0.950 . S
H7412 C7422 0.950 . S
H7413 C7424 0.950 . S
H7414 C7426 0.950 . S
H7415 C7427 0.950 . S
C7416 H7408 0.950 . S
C7416 C7417 1.386 . S
C7416 C7418 1.391 . S
C7417 C7416 1.386 . S
C7417 C7421 1.393 . S
C7418 H7410 0.950 . S
C7418 C7416 1.391 . S
C7418 C7419 1.400 . S
C7419 C7418 1.400 . S
C7419 C7420 1.398 . S
C7419 C7425 1.491 . S
C7420 H7411 0.950 . S
C7420 C7419 1.398 . S
C7420 C7421 1.391 . S
C7421 H7409 0.950 . S
C7421 C7417 1.393 . S
C7421 C7420 1.391 . S
C7422 H7412 0.950 . S
C7422 C7423 1.386 . S
C7422 C7424 1.391 . S
C7423 C7422 1.386 . S
C7423 C7427 1.393 . S
C7424 H7413 0.950 . S
C7424 C7422 1.391 . S
C7424 C7425 1.400 . S
C7425 C7419 1.491 . S
C7425 C7424 1.400 . S
C7425 C7426 1.398 . S
C7426 H7414 0.950 . S
C7426 C7425 1.398 . S
C7426 C7427 1.391 . S
C7427 H7415 0.950 . S
C7427 C7423 1.393 . S
C7427 C7426 1.391 . S
H7428 C7436 0.950 . S
H7429 C7441 0.950 . S
H7430 C7438 0.950 . S
H7431 C7440 0.950 . S
H7432 C7442 0.950 . S
H7433 C7444 0.950 . S
H7434 C7446 0.950 . S
H7435 C7447 0.950 . S
C7436 H7428 0.950 . S
C7436 C7437 1.386 . S
C7436 C7438 1.391 . S
C7437 C7436 1.386 . S
C7437 C7441 1.393 . S
C7438 H7430 0.950 . S
C7438 C7436 1.391 . S
C7438 C7439 1.400 . S
C7439 C7438 1.400 . S
C7439 C7440 1.398 . S
C7439 C7445 1.491 . S
C7440 H7431 0.950 . S
C7440 C7439 1.398 . S
C7440 C7441 1.391 . S
C7441 H7429 0.950 . S
C7441 C7437 1.393 . S
C7441 C7440 1.391 . S
C7442 H7432 0.950 . S
C7442 C7443 1.386 . S
C7442 C7444 1.391 . S
C7443 C7442 1.386 . S
C7443 C7447 1.393 . S
C7444 H7433 0.950 . S
C7444 C7442 1.391 . S
C7444 C7445 1.400 . S
C7445 C7439 1.491 . S
C7445 C7444 1.400 . S
C7445 C7446 1.398 . S
C7446 H7434 0.950 . S
C7446 C7445 1.398 . S
C7446 C7447 1.391 . S
C7447 H7435 0.950 . S
C7447 C7443 1.393 . S
C7447 C7446 1.391 . S
H7448 C7456 0.950 . S
H7449 C7461 0.950 . S
H7450 C7458 0.950 . S
H7451 C7460 0.950 . S
H7452 C7462 0.950 . S
H7453 C7464 0.950 . S
H7454 C7466 0.950 . S
H7455 C7467 0.950 . S
C7456 H7448 0.950 . S
C7456 C7457 1.386 . S
C7456 C7458 1.391 . S
C7457 C7456 1.386 . S
C7457 C7461 1.393 . S
C7458 H7450 0.950 . S
C7458 C7456 1.391 . S
C7458 C7459 1.400 . S
C7459 C7458 1.400 . S
C7459 C7460 1.398 . S
C7459 C7465 1.491 . S
C7460 H7451 0.950 . S
C7460 C7459 1.398 . S
C7460 C7461 1.391 . S
C7461 H7449 0.950 . S
C7461 C7457 1.393 . S
C7461 C7460 1.391 . S
C7462 H7452 0.950 . S
C7462 C7463 1.386 . S
C7462 C7464 1.391 . S
C7463 C7462 1.386 . S
C7463 C7467 1.393 . S
C7464 H7453 0.950 . S
C7464 C7462 1.391 . S
C7464 C7465 1.400 . S
C7465 C7459 1.491 . S
C7465 C7464 1.400 . S
C7465 C7466 1.398 . S
C7466 H7454 0.950 . S
C7466 C7465 1.398 . S
C7466 C7467 1.391 . S
C7467 H7455 0.950 . S
C7467 C7463 1.393 . S
C7467 C7466 1.391 . S
H7468 C7476 0.950 . S
H7469 C7481 0.950 . S
H7470 C7478 0.950 . S
H7471 C7480 0.950 . S
H7472 C7482 0.950 . S
H7473 C7484 0.950 . S
H7474 C7486 0.950 . S
H7475 C7487 0.950 . S
C7476 H7468 0.950 . S
C7476 C7477 1.386 . S
C7476 C7478 1.391 . S
C7477 C7476 1.386 . S
C7477 C7481 1.393 . S
C7478 H7470 0.950 . S
C7478 C7476 1.391 . S
C7478 C7479 1.400 . S
C7479 C7478 1.400 . S
C7479 C7480 1.398 . S
C7479 C7485 1.491 . S
C7480 H7471 0.950 . S
C7480 C7479 1.398 . S
C7480 C7481 1.391 . S
C7481 H7469 0.950 . S
C7481 C7477 1.393 . S
C7481 C7480 1.391 . S
C7482 H7472 0.950 . S
C7482 C7483 1.386 . S
C7482 C7484 1.391 . S
C7483 C7482 1.386 . S
C7483 C7487 1.393 . S
C7484 H7473 0.950 . S
C7484 C7482 1.391 . S
C7484 C7485 1.400 . S
C7485 C7479 1.491 . S
C7485 C7484 1.400 . S
C7485 C7486 1.398 . S
C7486 H7474 0.950 . S
C7486 C7485 1.398 . S
C7486 C7487 1.391 . S
C7487 H7475 0.950 . S
C7487 C7483 1.393 . S
C7487 C7486 1.391 . S
H7488 C7496 0.950 . S
H7489 C7501 0.950 . S
H7490 C7498 0.950 . S
H7491 C7500 0.950 . S
H7492 C7502 0.950 . S
H7493 C7504 0.950 . S
H7494 C7506 0.950 . S
H7495 C7507 0.950 . S
C7496 H7488 0.950 . S
C7496 C7497 1.386 . S
C7496 C7498 1.391 . S
C7497 C7496 1.386 . S
C7497 C7501 1.393 . S
C7498 H7490 0.950 . S
C7498 C7496 1.391 . S
C7498 C7499 1.400 . S
C7499 C7498 1.400 . S
C7499 C7500 1.398 . S
C7499 C7505 1.491 . S
C7500 H7491 0.950 . S
C7500 C7499 1.398 . S
C7500 C7501 1.391 . S
C7501 H7489 0.950 . S
C7501 C7497 1.393 . S
C7501 C7500 1.391 . S
C7502 H7492 0.950 . S
C7502 C7503 1.386 . S
C7502 C7504 1.391 . S
C7503 C7502 1.386 . S
C7503 C7507 1.393 . S
C7504 H7493 0.950 . S
C7504 C7502 1.391 . S
C7504 C7505 1.400 . S
C7505 C7499 1.491 . S
C7505 C7504 1.400 . S
C7505 C7506 1.398 . S
C7506 H7494 0.950 . S
C7506 C7505 1.398 . S
C7506 C7507 1.391 . S
C7507 H7495 0.950 . S
C7507 C7503 1.393 . S
C7507 C7506 1.391 . S
H7508 C7516 0.950 . S
H7509 C7521 0.950 . S
H7510 C7518 0.950 . S
H7511 C7520 0.950 . S
H7512 C7522 0.950 . S
H7513 C7524 0.950 . S
H7514 C7526 0.950 . S
H7515 C7527 0.950 . S
C7516 H7508 0.950 . S
C7516 C7517 1.386 . S
C7516 C7518 1.391 . S
C7517 C7516 1.386 . S
C7517 C7521 1.393 . S
C7518 H7510 0.950 . S
C7518 C7516 1.391 . S
C7518 C7519 1.400 . S
C7519 C7518 1.400 . S
C7519 C7520 1.398 . S
C7519 C7525 1.491 . S
C7520 H7511 0.950 . S
C7520 C7519 1.398 . S
C7520 C7521 1.391 . S
C7521 H7509 0.950 . S
C7521 C7517 1.393 . S
C7521 C7520 1.391 . S
C7522 H7512 0.950 . S
C7522 C7523 1.386 . S
C7522 C7524 1.391 . S
C7523 C7522 1.386 . S
C7523 C7527 1.393 . S
C7524 H7513 0.950 . S
C7524 C7522 1.391 . S
C7524 C7525 1.400 . S
C7525 C7519 1.491 . S
C7525 C7524 1.400 . S
C7525 C7526 1.398 . S
C7526 H7514 0.950 . S
C7526 C7525 1.398 . S
C7526 C7527 1.391 . S
C7527 H7515 0.950 . S
C7527 C7523 1.393 . S
C7527 C7526 1.391 . S
H7528 C7536 0.950 . S
H7529 C7541 0.950 . S
H7530 C7538 0.950 . S
H7531 C7540 0.950 . S
H7532 C7542 0.950 . S
H7533 C7544 0.950 . S
H7534 C7546 0.950 . S
H7535 C7547 0.950 . S
C7536 H7528 0.950 . S
C7536 C7537 1.386 . S
C7536 C7538 1.391 . S
C7537 C7536 1.386 . S
C7537 C7541 1.393 . S
C7538 H7530 0.950 . S
C7538 C7536 1.391 . S
C7538 C7539 1.400 . S
C7539 C7538 1.400 . S
C7539 C7540 1.398 . S
C7539 C7545 1.491 . S
C7540 H7531 0.950 . S
C7540 C7539 1.398 . S
C7540 C7541 1.391 . S
C7541 H7529 0.950 . S
C7541 C7537 1.393 . S
C7541 C7540 1.391 . S
C7542 H7532 0.950 . S
C7542 C7543 1.386 . S
C7542 C7544 1.391 . S
C7543 C7542 1.386 . S
C7543 C7547 1.393 . S
C7544 H7533 0.950 . S
C7544 C7542 1.391 . S
C7544 C7545 1.400 . S
C7545 C7539 1.491 . S
C7545 C7544 1.400 . S
C7545 C7546 1.398 . S
C7546 H7534 0.950 . S
C7546 C7545 1.398 . S
C7546 C7547 1.391 . S
C7547 H7535 0.950 . S
C7547 C7543 1.393 . S
C7547 C7546 1.391 . S
H7548 C7556 0.950 . S
H7549 C7561 0.950 . S
H7550 C7558 0.950 . S
H7551 C7560 0.950 . S
H7552 C7562 0.950 . S
H7553 C7564 0.950 . S
H7554 C7566 0.950 . S
H7555 C7567 0.950 . S
C7556 H7548 0.950 . S
C7556 C7557 1.386 . S
C7556 C7558 1.391 . S
C7557 C7556 1.386 . S
C7557 C7561 1.393 . S
C7558 H7550 0.950 . S
C7558 C7556 1.391 . S
C7558 C7559 1.400 . S
C7559 C7558 1.400 . S
C7559 C7560 1.398 . S
C7559 C7565 1.491 . S
C7560 H7551 0.950 . S
C7560 C7559 1.398 . S
C7560 C7561 1.391 . S
C7561 H7549 0.950 . S
C7561 C7557 1.393 . S
C7561 C7560 1.391 . S
C7562 H7552 0.950 . S
C7562 C7563 1.386 . S
C7562 C7564 1.391 . S
C7563 C7562 1.386 . S
C7563 C7567 1.393 . S
C7564 H7553 0.950 . S
C7564 C7562 1.391 . S
C7564 C7565 1.400 . S
C7565 C7559 1.491 . S
C7565 C7564 1.400 . S
C7565 C7566 1.398 . S
C7566 H7554 0.950 . S
C7566 C7565 1.398 . S
C7566 C7567 1.391 . S
C7567 H7555 0.950 . S
C7567 C7563 1.393 . S
C7567 C7566 1.391 . S
H7568 C7576 0.950 . S
H7569 C7581 0.950 . S
H7570 C7578 0.950 . S
H7571 C7580 0.950 . S
H7572 C7582 0.950 . S
H7573 C7584 0.950 . S
H7574 C7586 0.950 . S
H7575 C7587 0.950 . S
C7576 H7568 0.950 . S
C7576 C7577 1.386 . S
C7576 C7578 1.391 . S
C7577 C7576 1.386 . S
C7577 C7581 1.393 . S
C7578 H7570 0.950 . S
C7578 C7576 1.391 . S
C7578 C7579 1.400 . S
C7579 C7578 1.400 . S
C7579 C7580 1.398 . S
C7579 C7585 1.491 . S
C7580 H7571 0.950 . S
C7580 C7579 1.398 . S
C7580 C7581 1.391 . S
C7581 H7569 0.950 . S
C7581 C7577 1.393 . S
C7581 C7580 1.391 . S
C7582 H7572 0.950 . S
C7582 C7583 1.386 . S
C7582 C7584 1.391 . S
C7583 C7582 1.386 . S
C7583 C7587 1.393 . S
C7584 H7573 0.950 . S
C7584 C7582 1.391 . S
C7584 C7585 1.400 . S
C7585 C7579 1.491 . S
C7585 C7584 1.400 . S
C7585 C7586 1.398 . S
C7586 H7574 0.950 . S
C7586 C7585 1.398 . S
C7586 C7587 1.391 . S
C7587 H7575 0.950 . S
C7587 C7583 1.393 . S
C7587 C7586 1.391 . S
H7588 C7596 0.950 . S
H7589 C7601 0.950 . S
H7590 C7598 0.950 . S
H7591 C7600 0.950 . S
H7592 C7602 0.950 . S
H7593 C7604 0.950 . S
H7594 C7606 0.950 . S
H7595 C7607 0.950 . S
C7596 H7588 0.950 . S
C7596 C7597 1.386 . S
C7596 C7598 1.391 . S
C7597 C7596 1.386 . S
C7597 C7601 1.393 . S
C7598 H7590 0.950 . S
C7598 C7596 1.391 . S
C7598 C7599 1.400 . S
C7599 C7598 1.400 . S
C7599 C7600 1.398 . S
C7599 C7605 1.491 . S
C7600 H7591 0.950 . S
C7600 C7599 1.398 . S
C7600 C7601 1.391 . S
C7601 H7589 0.950 . S
C7601 C7597 1.393 . S
C7601 C7600 1.391 . S
C7602 H7592 0.950 . S
C7602 C7603 1.386 . S
C7602 C7604 1.391 . S
C7603 C7602 1.386 . S
C7603 C7607 1.393 . S
C7604 H7593 0.950 . S
C7604 C7602 1.391 . S
C7604 C7605 1.400 . S
C7605 C7599 1.491 . S
C7605 C7604 1.400 . S
C7605 C7606 1.398 . S
C7606 H7594 0.950 . S
C7606 C7605 1.398 . S
C7606 C7607 1.391 . S
C7607 H7595 0.950 . S
C7607 C7603 1.393 . S
C7607 C7606 1.391 . S
H7608 C7616 0.950 . S
H7609 C7621 0.950 . S
H7610 C7618 0.950 . S
H7611 C7620 0.950 . S
H7612 C7622 0.950 . S
H7613 C7624 0.950 . S
H7614 C7626 0.950 . S
H7615 C7627 0.950 . S
C7616 H7608 0.950 . S
C7616 C7617 1.386 . S
C7616 C7618 1.391 . S
C7617 C7616 1.386 . S
C7617 C7621 1.393 . S
C7618 H7610 0.950 . S
C7618 C7616 1.391 . S
C7618 C7619 1.400 . S
C7619 C7618 1.400 . S
C7619 C7620 1.398 . S
C7619 C7625 1.491 . S
C7620 H7611 0.950 . S
C7620 C7619 1.398 . S
C7620 C7621 1.391 . S
C7621 H7609 0.950 . S
C7621 C7617 1.393 . S
C7621 C7620 1.391 . S
C7622 H7612 0.950 . S
C7622 C7623 1.386 . S
C7622 C7624 1.391 . S
C7623 C7622 1.386 . S
C7623 C7627 1.393 . S
C7624 H7613 0.950 . S
C7624 C7622 1.391 . S
C7624 C7625 1.400 . S
C7625 C7619 1.491 . S
C7625 C7624 1.400 . S
C7625 C7626 1.398 . S
C7626 H7614 0.950 . S
C7626 C7625 1.398 . S
C7626 C7627 1.391 . S
C7627 H7615 0.950 . S
C7627 C7623 1.393 . S
C7627 C7626 1.391 . S
H7628 C7636 0.950 . S
H7629 C7641 0.950 . S
H7630 C7638 0.950 . S
H7631 C7640 0.950 . S
H7632 C7642 0.950 . S
H7633 C7644 0.950 . S
H7634 C7646 0.950 . S
H7635 C7647 0.950 . S
C7636 H7628 0.950 . S
C7636 C7637 1.386 . S
C7636 C7638 1.391 . S
C7637 C7636 1.386 . S
C7637 C7641 1.393 . S
C7638 H7630 0.950 . S
C7638 C7636 1.391 . S
C7638 C7639 1.400 . S
C7639 C7638 1.400 . S
C7639 C7640 1.398 . S
C7639 C7645 1.491 . S
C7640 H7631 0.950 . S
C7640 C7639 1.398 . S
C7640 C7641 1.391 . S
C7641 H7629 0.950 . S
C7641 C7637 1.393 . S
C7641 C7640 1.391 . S
C7642 H7632 0.950 . S
C7642 C7643 1.386 . S
C7642 C7644 1.391 . S
C7643 C7642 1.386 . S
C7643 C7647 1.393 . S
C7644 H7633 0.950 . S
C7644 C7642 1.391 . S
C7644 C7645 1.400 . S
C7645 C7639 1.491 . S
C7645 C7644 1.400 . S
C7645 C7646 1.398 . S
C7646 H7634 0.950 . S
C7646 C7645 1.398 . S
C7646 C7647 1.391 . S
C7647 H7635 0.950 . S
C7647 C7643 1.393 . S
C7647 C7646 1.391 . S
H7648 C7656 0.950 . S
H7649 C7661 0.950 . S
H7650 C7658 0.950 . S
H7651 C7660 0.950 . S
H7652 C7662 0.950 . S
H7653 C7664 0.950 . S
H7654 C7666 0.950 . S
H7655 C7667 0.950 . S
C7656 H7648 0.950 . S
C7656 C7657 1.386 . S
C7656 C7658 1.391 . S
C7657 C7656 1.386 . S
C7657 C7661 1.393 . S
C7658 H7650 0.950 . S
C7658 C7656 1.391 . S
C7658 C7659 1.400 . S
C7659 C7658 1.400 . S
C7659 C7660 1.398 . S
C7659 C7665 1.491 . S
C7660 H7651 0.950 . S
C7660 C7659 1.398 . S
C7660 C7661 1.391 . S
C7661 H7649 0.950 . S
C7661 C7657 1.393 . S
C7661 C7660 1.391 . S
C7662 H7652 0.950 . S
C7662 C7663 1.386 . S
C7662 C7664 1.391 . S
C7663 C7662 1.386 . S
C7663 C7667 1.393 . S
C7664 H7653 0.950 . S
C7664 C7662 1.391 . S
C7664 C7665 1.400 . S
C7665 C7659 1.491 . S
C7665 C7664 1.400 . S
C7665 C7666 1.398 . S
C7666 H7654 0.950 . S
C7666 C7665 1.398 . S
C7666 C7667 1.391 . S
C7667 H7655 0.950 . S
C7667 C7663 1.393 . S
C7667 C7666 1.391 . S
H7668 C7676 0.950 . S
H7669 C7681 0.950 . S
H7670 C7678 0.950 . S
H7671 C7680 0.950 . S
H7672 C7682 0.950 . S
H7673 C7684 0.950 . S
H7674 C7686 0.950 . S
H7675 C7687 0.950 . S
C7676 H7668 0.950 . S
C7676 C7677 1.386 . S
C7676 C7678 1.391 . S
C7677 C7676 1.386 . S
C7677 C7681 1.393 . S
C7678 H7670 0.950 . S
C7678 C7676 1.391 . S
C7678 C7679 1.400 . S
C7679 C7678 1.400 . S
C7679 C7680 1.398 . S
C7679 C7685 1.491 . S
C7680 H7671 0.950 . S
C7680 C7679 1.398 . S
C7680 C7681 1.391 . S
C7681 H7669 0.950 . S
C7681 C7677 1.393 . S
C7681 C7680 1.391 . S
C7682 H7672 0.950 . S
C7682 C7683 1.386 . S
C7682 C7684 1.391 . S
C7683 C7682 1.386 . S
C7683 C7687 1.393 . S
C7684 H7673 0.950 . S
C7684 C7682 1.391 . S
C7684 C7685 1.400 . S
C7685 C7679 1.491 . S
C7685 C7684 1.400 . S
C7685 C7686 1.398 . S
C7686 H7674 0.950 . S
C7686 C7685 1.398 . S
C7686 C7687 1.391 . S
C7687 H7675 0.950 . S
C7687 C7683 1.393 . S
C7687 C7686 1.391 . S
H7688 C7696 0.950 . S
H7689 C7701 0.950 . S
H7690 C7698 0.950 . S
H7691 C7700 0.950 . S
H7692 C7702 0.950 . S
H7693 C7704 0.950 . S
H7694 C7706 0.950 . S
H7695 C7707 0.950 . S
C7696 H7688 0.950 . S
C7696 C7697 1.386 . S
C7696 C7698 1.391 . S
C7697 C7696 1.386 . S
C7697 C7701 1.393 . S
C7698 H7690 0.950 . S
C7698 C7696 1.391 . S
C7698 C7699 1.400 . S
C7699 C7698 1.400 . S
C7699 C7700 1.398 . S
C7699 C7705 1.491 . S
C7700 H7691 0.950 . S
C7700 C7699 1.398 . S
C7700 C7701 1.391 . S
C7701 H7689 0.950 . S
C7701 C7697 1.393 . S
C7701 C7700 1.391 . S
C7702 H7692 0.950 . S
C7702 C7703 1.386 . S
C7702 C7704 1.391 . S
C7703 C7702 1.386 . S
C7703 C7707 1.393 . S
C7704 H7693 0.950 . S
C7704 C7702 1.391 . S
C7704 C7705 1.400 . S
C7705 C7699 1.491 . S
C7705 C7704 1.400 . S
C7705 C7706 1.398 . S
C7706 H7694 0.950 . S
C7706 C7705 1.398 . S
C7706 C7707 1.391 . S
C7707 H7695 0.950 . S
C7707 C7703 1.393 . S
C7707 C7706 1.391 . S
H7708 C7716 0.950 . S
H7709 C7721 0.950 . S
H7710 C7718 0.950 . S
H7711 C7720 0.950 . S
H7712 C7722 0.950 . S
H7713 C7724 0.950 . S
H7714 C7726 0.950 . S
H7715 C7727 0.950 . S
C7716 H7708 0.950 . S
C7716 C7717 1.386 . S
C7716 C7718 1.391 . S
C7717 C7716 1.386 . S
C7717 C7721 1.393 . S
C7718 H7710 0.950 . S
C7718 C7716 1.391 . S
C7718 C7719 1.400 . S
C7719 C7718 1.400 . S
C7719 C7720 1.398 . S
C7719 C7725 1.491 . S
C7720 H7711 0.950 . S
C7720 C7719 1.398 . S
C7720 C7721 1.391 . S
C7721 H7709 0.950 . S
C7721 C7717 1.393 . S
C7721 C7720 1.391 . S
C7722 H7712 0.950 . S
C7722 C7723 1.386 . S
C7722 C7724 1.391 . S
C7723 C7722 1.386 . S
C7723 C7727 1.393 . S
C7724 H7713 0.950 . S
C7724 C7722 1.391 . S
C7724 C7725 1.400 . S
C7725 C7719 1.491 . S
C7725 C7724 1.400 . S
C7725 C7726 1.398 . S
C7726 H7714 0.950 . S
C7726 C7725 1.398 . S
C7726 C7727 1.391 . S
C7727 H7715 0.950 . S
C7727 C7723 1.393 . S
C7727 C7726 1.391 . S
H7728 C7736 0.950 . S
H7729 C7741 0.950 . S
H7730 C7738 0.950 . S
H7731 C7740 0.950 . S
H7732 C7742 0.950 . S
H7733 C7744 0.950 . S
H7734 C7746 0.950 . S
H7735 C7747 0.950 . S
C7736 H7728 0.950 . S
C7736 C7737 1.386 . S
C7736 C7738 1.391 . S
C7737 C7736 1.386 . S
C7737 C7741 1.393 . S
C7738 H7730 0.950 . S
C7738 C7736 1.391 . S
C7738 C7739 1.400 . S
C7739 C7738 1.400 . S
C7739 C7740 1.398 . S
C7739 C7745 1.491 . S
C7740 H7731 0.950 . S
C7740 C7739 1.398 . S
C7740 C7741 1.391 . S
C7741 H7729 0.950 . S
C7741 C7737 1.393 . S
C7741 C7740 1.391 . S
C7742 H7732 0.950 . S
C7742 C7743 1.386 . S
C7742 C7744 1.391 . S
C7743 C7742 1.386 . S
C7743 C7747 1.393 . S
C7744 H7733 0.950 . S
C7744 C7742 1.391 . S
C7744 C7745 1.400 . S
C7745 C7739 1.491 . S
C7745 C7744 1.400 . S
C7745 C7746 1.398 . S
C7746 H7734 0.950 . S
C7746 C7745 1.398 . S
C7746 C7747 1.391 . S
C7747 H7735 0.950 . S
C7747 C7743 1.393 . S
C7747 C7746 1.391 . S
H7748 C7756 0.950 . S
H7749 C7761 0.950 . S
H7750 C7758 0.950 . S
H7751 C7760 0.950 . S
H7752 C7762 0.950 . S
H7753 C7764 0.950 . S
H7754 C7766 0.950 . S
H7755 C7767 0.950 . S
C7756 H7748 0.950 . S
C7756 C7757 1.386 . S
C7756 C7758 1.391 . S
C7757 C7756 1.386 . S
C7757 C7761 1.393 . S
C7758 H7750 0.950 . S
C7758 C7756 1.391 . S
C7758 C7759 1.400 . S
C7759 C7758 1.400 . S
C7759 C7760 1.398 . S
C7759 C7765 1.491 . S
C7760 H7751 0.950 . S
C7760 C7759 1.398 . S
C7760 C7761 1.391 . S
C7761 H7749 0.950 . S
C7761 C7757 1.393 . S
C7761 C7760 1.391 . S
C7762 H7752 0.950 . S
C7762 C7763 1.386 . S
C7762 C7764 1.391 . S
C7763 C7762 1.386 . S
C7763 C7767 1.393 . S
C7764 H7753 0.950 . S
C7764 C7762 1.391 . S
C7764 C7765 1.400 . S
C7765 C7759 1.491 . S
C7765 C7764 1.400 . S
C7765 C7766 1.398 . S
C7766 H7754 0.950 . S
C7766 C7765 1.398 . S
C7766 C7767 1.391 . S
C7767 H7755 0.950 . S
C7767 C7763 1.393 . S
C7767 C7766 1.391 . S
H7768 C7776 0.950 . S
H7769 C7781 0.950 . S
H7770 C7778 0.950 . S
H7771 C7780 0.950 . S
H7772 C7782 0.950 . S
H7773 C7784 0.950 . S
H7774 C7786 0.950 . S
H7775 C7787 0.950 . S
C7776 H7768 0.950 . S
C7776 C7777 1.386 . S
C7776 C7778 1.391 . S
C7777 C7776 1.386 . S
C7777 C7781 1.393 . S
C7778 H7770 0.950 . S
C7778 C7776 1.391 . S
C7778 C7779 1.400 . S
C7779 C7778 1.400 . S
C7779 C7780 1.398 . S
C7779 C7785 1.491 . S
C7780 H7771 0.950 . S
C7780 C7779 1.398 . S
C7780 C7781 1.391 . S
C7781 H7769 0.950 . S
C7781 C7777 1.393 . S
C7781 C7780 1.391 . S
C7782 H7772 0.950 . S
C7782 C7783 1.386 . S
C7782 C7784 1.391 . S
C7783 C7782 1.386 . S
C7783 C7787 1.393 . S
C7784 H7773 0.950 . S
C7784 C7782 1.391 . S
C7784 C7785 1.400 . S
C7785 C7779 1.491 . S
C7785 C7784 1.400 . S
C7785 C7786 1.398 . S
C7786 H7774 0.950 . S
C7786 C7785 1.398 . S
C7786 C7787 1.391 . S
C7787 H7775 0.950 . S
C7787 C7783 1.393 . S
C7787 C7786 1.391 . S
H7788 C7796 0.950 . S
H7789 C7801 0.950 . S
H7790 C7798 0.950 . S
H7791 C7800 0.950 . S
H7792 C7802 0.950 . S
H7793 C7804 0.950 . S
H7794 C7806 0.950 . S
H7795 C7807 0.950 . S
C7796 H7788 0.950 . S
C7796 C7797 1.386 . S
C7796 C7798 1.391 . S
C7797 C7796 1.386 . S
C7797 C7801 1.393 . S
C7798 H7790 0.950 . S
C7798 C7796 1.391 . S
C7798 C7799 1.400 . S
C7799 C7798 1.400 . S
C7799 C7800 1.398 . S
C7799 C7805 1.491 . S
C7800 H7791 0.950 . S
C7800 C7799 1.398 . S
C7800 C7801 1.391 . S
C7801 H7789 0.950 . S
C7801 C7797 1.393 . S
C7801 C7800 1.391 . S
C7802 H7792 0.950 . S
C7802 C7803 1.386 . S
C7802 C7804 1.391 . S
C7803 C7802 1.386 . S
C7803 C7807 1.393 . S
C7804 H7793 0.950 . S
C7804 C7802 1.391 . S
C7804 C7805 1.400 . S
C7805 C7799 1.491 . S
C7805 C7804 1.400 . S
C7805 C7806 1.398 . S
C7806 H7794 0.950 . S
C7806 C7805 1.398 . S
C7806 C7807 1.391 . S
C7807 H7795 0.950 . S
C7807 C7803 1.393 . S
C7807 C7806 1.391 . S
H7808 C7816 0.950 . S
H7809 C7821 0.950 . S
H7810 C7818 0.950 . S
H7811 C7820 0.950 . S
H7812 C7822 0.950 . S
H7813 C7824 0.950 . S
H7814 C7826 0.950 . S
H7815 C7827 0.950 . S
C7816 H7808 0.950 . S
C7816 C7817 1.386 . S
C7816 C7818 1.391 . S
C7817 C7816 1.386 . S
C7817 C7821 1.393 . S
C7818 H7810 0.950 . S
C7818 C7816 1.391 . S
C7818 C7819 1.400 . S
C7819 C7818 1.400 . S
C7819 C7820 1.398 . S
C7819 C7825 1.491 . S
C7820 H7811 0.950 . S
C7820 C7819 1.398 . S
C7820 C7821 1.391 . S
C7821 H7809 0.950 . S
C7821 C7817 1.393 . S
C7821 C7820 1.391 . S
C7822 H7812 0.950 . S
C7822 C7823 1.386 . S
C7822 C7824 1.391 . S
C7823 C7822 1.386 . S
C7823 C7827 1.393 . S
C7824 H7813 0.950 . S
C7824 C7822 1.391 . S
C7824 C7825 1.400 . S
C7825 C7819 1.491 . S
C7825 C7824 1.400 . S
C7825 C7826 1.398 . S
C7826 H7814 0.950 . S
C7826 C7825 1.398 . S
C7826 C7827 1.391 . S
C7827 H7815 0.950 . S
C7827 C7823 1.393 . S
C7827 C7826 1.391 . S
H7828 C7836 0.950 . S
H7829 C7841 0.950 . S
H7830 C7838 0.950 . S
H7831 C7840 0.950 . S
H7832 C7842 0.950 . S
H7833 C7844 0.950 . S
H7834 C7846 0.950 . S
H7835 C7847 0.950 . S
C7836 H7828 0.950 . S
C7836 C7837 1.386 . S
C7836 C7838 1.391 . S
C7837 C7836 1.386 . S
C7837 C7841 1.393 . S
C7838 H7830 0.950 . S
C7838 C7836 1.391 . S
C7838 C7839 1.400 . S
C7839 C7838 1.400 . S
C7839 C7840 1.398 . S
C7839 C7845 1.491 . S
C7840 H7831 0.950 . S
C7840 C7839 1.398 . S
C7840 C7841 1.391 . S
C7841 H7829 0.950 . S
C7841 C7837 1.393 . S
C7841 C7840 1.391 . S
C7842 H7832 0.950 . S
C7842 C7843 1.386 . S
C7842 C7844 1.391 . S
C7843 C7842 1.386 . S
C7843 C7847 1.393 . S
C7844 H7833 0.950 . S
C7844 C7842 1.391 . S
C7844 C7845 1.400 . S
C7845 C7839 1.491 . S
C7845 C7844 1.400 . S
C7845 C7846 1.398 . S
C7846 H7834 0.950 . S
C7846 C7845 1.398 . S
C7846 C7847 1.391 . S
C7847 H7835 0.950 . S
C7847 C7843 1.393 . S
C7847 C7846 1.391 . S
H7848 C7856 0.950 . S
H7849 C7861 0.950 . S
H7850 C7858 0.950 . S
H7851 C7860 0.950 . S
H7852 C7862 0.950 . S
H7853 C7864 0.950 . S
H7854 C7866 0.950 . S
H7855 C7867 0.950 . S
C7856 H7848 0.950 . S
C7856 C7857 1.386 . S
C7856 C7858 1.391 . S
C7857 C7856 1.386 . S
C7857 C7861 1.393 . S
C7858 H7850 0.950 . S
C7858 C7856 1.391 . S
C7858 C7859 1.400 . S
C7859 C7858 1.400 . S
C7859 C7860 1.398 . S
C7859 C7865 1.491 . S
C7860 H7851 0.950 . S
C7860 C7859 1.398 . S
C7860 C7861 1.391 . S
C7861 H7849 0.950 . S
C7861 C7857 1.393 . S
C7861 C7860 1.391 . S
C7862 H7852 0.950 . S
C7862 C7863 1.386 . S
C7862 C7864 1.391 . S
C7863 C7862 1.386 . S
C7863 C7867 1.393 . S
C7864 H7853 0.950 . S
C7864 C7862 1.391 . S
C7864 C7865 1.400 . S
C7865 C7859 1.491 . S
C7865 C7864 1.400 . S
C7865 C7866 1.398 . S
C7866 H7854 0.950 . S
C7866 C7865 1.398 . S
C7866 C7867 1.391 . S
C7867 H7855 0.950 . S
C7867 C7863 1.393 . S
C7867 C7866 1.391 . S
H7868 C7876 0.950 . S
H7869 C7881 0.950 . S
H7870 C7878 0.950 . S
H7871 C7880 0.950 . S
H7872 C7882 0.950 . S
H7873 C7884 0.950 . S
H7874 C7886 0.950 . S
H7875 C7887 0.950 . S
C7876 H7868 0.950 . S
C7876 C7877 1.386 . S
C7876 C7878 1.391 . S
C7877 C7876 1.386 . S
C7877 C7881 1.393 . S
C7878 H7870 0.950 . S
C7878 C7876 1.391 . S
C7878 C7879 1.400 . S
C7879 C7878 1.400 . S
C7879 C7880 1.398 . S
C7879 C7885 1.491 . S
C7880 H7871 0.950 . S
C7880 C7879 1.398 . S
C7880 C7881 1.391 . S
C7881 H7869 0.950 . S
C7881 C7877 1.393 . S
C7881 C7880 1.391 . S
C7882 H7872 0.950 . S
C7882 C7883 1.386 . S
C7882 C7884 1.391 . S
C7883 C7882 1.386 . S
C7883 C7887 1.393 . S
C7884 H7873 0.950 . S
C7884 C7882 1.391 . S
C7884 C7885 1.400 . S
C7885 C7879 1.491 . S
C7885 C7884 1.400 . S
C7885 C7886 1.398 . S
C7886 H7874 0.950 . S
C7886 C7885 1.398 . S
C7886 C7887 1.391 . S
C7887 H7875 0.950 . S
C7887 C7883 1.393 . S
C7887 C7886 1.391 . S
H7888 C7896 0.950 . S
H7889 C7901 0.950 . S
H7890 C7898 0.950 . S
H7891 C7900 0.950 . S
H7892 C7902 0.950 . S
H7893 C7904 0.950 . S
H7894 C7906 0.950 . S
H7895 C7907 0.950 . S
C7896 H7888 0.950 . S
C7896 C7897 1.386 . S
C7896 C7898 1.391 . S
C7897 C7896 1.386 . S
C7897 C7901 1.393 . S
C7898 H7890 0.950 . S
C7898 C7896 1.391 . S
C7898 C7899 1.400 . S
C7899 C7898 1.400 . S
C7899 C7900 1.398 . S
C7899 C7905 1.491 . S
C7900 H7891 0.950 . S
C7900 C7899 1.398 . S
C7900 C7901 1.391 . S
C7901 H7889 0.950 . S
C7901 C7897 1.393 . S
C7901 C7900 1.391 . S
C7902 H7892 0.950 . S
C7902 C7903 1.386 . S
C7902 C7904 1.391 . S
C7903 C7902 1.386 . S
C7903 C7907 1.393 . S
C7904 H7893 0.950 . S
C7904 C7902 1.391 . S
C7904 C7905 1.400 . S
C7905 C7899 1.491 . S
C7905 C7904 1.400 . S
C7905 C7906 1.398 . S
C7906 H7894 0.950 . S
C7906 C7905 1.398 . S
C7906 C7907 1.391 . S
C7907 H7895 0.950 . S
C7907 C7903 1.393 . S
C7907 C7906 1.391 . S
H7908 C7916 0.950 . S
H7909 C7921 0.950 . S
H7910 C7918 0.950 . S
H7911 C7920 0.950 . S
H7912 C7922 0.950 . S
H7913 C7924 0.950 . S
H7914 C7926 0.950 . S
H7915 C7927 0.950 . S
C7916 H7908 0.950 . S
C7916 C7917 1.386 . S
C7916 C7918 1.391 . S
C7917 C7916 1.386 . S
C7917 C7921 1.393 . S
C7918 H7910 0.950 . S
C7918 C7916 1.391 . S
C7918 C7919 1.400 . S
C7919 C7918 1.400 . S
C7919 C7920 1.398 . S
C7919 C7925 1.491 . S
C7920 H7911 0.950 . S
C7920 C7919 1.398 . S
C7920 C7921 1.391 . S
C7921 H7909 0.950 . S
C7921 C7917 1.393 . S
C7921 C7920 1.391 . S
C7922 H7912 0.950 . S
C7922 C7923 1.386 . S
C7922 C7924 1.391 . S
C7923 C7922 1.386 . S
C7923 C7927 1.393 . S
C7924 H7913 0.950 . S
C7924 C7922 1.391 . S
C7924 C7925 1.400 . S
C7925 C7919 1.491 . S
C7925 C7924 1.400 . S
C7925 C7926 1.398 . S
C7926 H7914 0.950 . S
C7926 C7925 1.398 . S
C7926 C7927 1.391 . S
C7927 H7915 0.950 . S
C7927 C7923 1.393 . S
C7927 C7926 1.391 . S
H7928 C7936 0.950 . S
H7929 C7941 0.950 . S
H7930 C7938 0.950 . S
H7931 C7940 0.950 . S
H7932 C7942 0.950 . S
H7933 C7944 0.950 . S
H7934 C7946 0.950 . S
H7935 C7947 0.950 . S
C7936 H7928 0.950 . S
C7936 C7937 1.386 . S
C7936 C7938 1.391 . S
C7937 C7936 1.386 . S
C7937 C7941 1.393 . S
C7938 H7930 0.950 . S
C7938 C7936 1.391 . S
C7938 C7939 1.400 . S
C7939 C7938 1.400 . S
C7939 C7940 1.398 . S
C7939 C7945 1.491 . S
C7940 H7931 0.950 . S
C7940 C7939 1.398 . S
C7940 C7941 1.391 . S
C7941 H7929 0.950 . S
C7941 C7937 1.393 . S
C7941 C7940 1.391 . S
C7942 H7932 0.950 . S
C7942 C7943 1.386 . S
C7942 C7944 1.391 . S
C7943 C7942 1.386 . S
C7943 C7947 1.393 . S
C7944 H7933 0.950 . S
C7944 C7942 1.391 . S
C7944 C7945 1.400 . S
C7945 C7939 1.491 . S
C7945 C7944 1.400 . S
C7945 C7946 1.398 . S
C7946 H7934 0.950 . S
C7946 C7945 1.398 . S
C7946 C7947 1.391 . S
C7947 H7935 0.950 . S
C7947 C7943 1.393 . S
C7947 C7946 1.391 . S
H7948 C7956 0.950 . S
H7949 C7961 0.950 . S
H7950 C7958 0.950 . S
H7951 C7960 0.950 . S
H7952 C7962 0.950 . S
H7953 C7964 0.950 . S
H7954 C7966 0.950 . S
H7955 C7967 0.950 . S
C7956 H7948 0.950 . S
C7956 C7957 1.386 . S
C7956 C7958 1.391 . S
C7957 C7956 1.386 . S
C7957 C7961 1.393 . S
C7958 H7950 0.950 . S
C7958 C7956 1.391 . S
C7958 C7959 1.400 . S
C7959 C7958 1.400 . S
C7959 C7960 1.398 . S
C7959 C7965 1.491 . S
C7960 H7951 0.950 . S
C7960 C7959 1.398 . S
C7960 C7961 1.391 . S
C7961 H7949 0.950 . S
C7961 C7957 1.393 . S
C7961 C7960 1.391 . S
C7962 H7952 0.950 . S
C7962 C7963 1.386 . S
C7962 C7964 1.391 . S
C7963 C7962 1.386 . S
C7963 C7967 1.393 . S
C7964 H7953 0.950 . S
C7964 C7962 1.391 . S
C7964 C7965 1.400 . S
C7965 C7959 1.491 . S
C7965 C7964 1.400 . S
C7965 C7966 1.398 . S
C7966 H7954 0.950 . S
C7966 C7965 1.398 . S
C7966 C7967 1.391 . S
C7967 H7955 0.950 . S
C7967 C7963 1.393 . S
C7967 C7966 1.391 . S
H7968 C7976 0.950 . S
H7969 C7981 0.950 . S
H7970 C7978 0.950 . S
H7971 C7980 0.950 . S
H7972 C7982 0.950 . S
H7973 C7984 0.950 . S
H7974 C7986 0.950 . S
H7975 C7987 0.950 . S
C7976 H7968 0.950 . S
C7976 C7977 1.386 . S
C7976 C7978 1.391 . S
C7977 C7976 1.386 . S
C7977 C7981 1.393 . S
C7978 H7970 0.950 . S
C7978 C7976 1.391 . S
C7978 C7979 1.400 . S
C7979 C7978 1.400 . S
C7979 C7980 1.398 . S
C7979 C7985 1.491 . S
C7980 H7971 0.950 . S
C7980 C7979 1.398 . S
C7980 C7981 1.391 . S
C7981 H7969 0.950 . S
C7981 C7977 1.393 . S
C7981 C7980 1.391 . S
C7982 H7972 0.950 . S
C7982 C7983 1.386 . S
C7982 C7984 1.391 . S
C7983 C7982 1.386 . S
C7983 C7987 1.393 . S
C7984 H7973 0.950 . S
C7984 C7982 1.391 . S
C7984 C7985 1.400 . S
C7985 C7979 1.491 . S
C7985 C7984 1.400 . S
C7985 C7986 1.398 . S
C7986 H7974 0.950 . S
C7986 C7985 1.398 . S
C7986 C7987 1.391 . S
C7987 H7975 0.950 . S
C7987 C7983 1.393 . S
C7987 C7986 1.391 . S
H7988 C7996 0.950 . S
H7989 C8001 0.950 . S
H7990 C7998 0.950 . S
H7991 C8000 0.950 . S
H7992 C8002 0.950 . S
H7993 C8004 0.950 . S
H7994 C8006 0.950 . S
H7995 C8007 0.950 . S
C7996 H7988 0.950 . S
C7996 C7997 1.386 . S
C7996 C7998 1.391 . S
C7997 C7996 1.386 . S
C7997 C8001 1.393 . S
C7998 H7990 0.950 . S
C7998 C7996 1.391 . S
C7998 C7999 1.400 . S
C7999 C7998 1.400 . S
C7999 C8000 1.398 . S
C7999 C8005 1.491 . S
C8000 H7991 0.950 . S
C8000 C7999 1.398 . S
C8000 C8001 1.391 . S
C8001 H7989 0.950 . S
C8001 C7997 1.393 . S
C8001 C8000 1.391 . S
C8002 H7992 0.950 . S
C8002 C8003 1.386 . S
C8002 C8004 1.391 . S
C8003 C8002 1.386 . S
C8003 C8007 1.393 . S
C8004 H7993 0.950 . S
C8004 C8002 1.391 . S
C8004 C8005 1.400 . S
C8005 C7999 1.491 . S
C8005 C8004 1.400 . S
C8005 C8006 1.398 . S
C8006 H7994 0.950 . S
C8006 C8005 1.398 . S
C8006 C8007 1.391 . S
C8007 H7995 0.950 . S
C8007 C8003 1.393 . S
C8007 C8006 1.391 . S
H8008 C8016 0.950 . S
H8009 C8021 0.950 . S
H8010 C8018 0.950 . S
H8011 C8020 0.950 . S
H8012 C8022 0.950 . S
H8013 C8024 0.950 . S
H8014 C8026 0.950 . S
H8015 C8027 0.950 . S
C8016 H8008 0.950 . S
C8016 C8017 1.386 . S
C8016 C8018 1.391 . S
C8017 C8016 1.386 . S
C8017 C8021 1.393 . S
C8018 H8010 0.950 . S
C8018 C8016 1.391 . S
C8018 C8019 1.400 . S
C8019 C8018 1.400 . S
C8019 C8020 1.398 . S
C8019 C8025 1.491 . S
C8020 H8011 0.950 . S
C8020 C8019 1.398 . S
C8020 C8021 1.391 . S
C8021 H8009 0.950 . S
C8021 C8017 1.393 . S
C8021 C8020 1.391 . S
C8022 H8012 0.950 . S
C8022 C8023 1.386 . S
C8022 C8024 1.391 . S
C8023 C8022 1.386 . S
C8023 C8027 1.393 . S
C8024 H8013 0.950 . S
C8024 C8022 1.391 . S
C8024 C8025 1.400 . S
C8025 C8019 1.491 . S
C8025 C8024 1.400 . S
C8025 C8026 1.398 . S
C8026 H8014 0.950 . S
C8026 C8025 1.398 . S
C8026 C8027 1.391 . S
C8027 H8015 0.950 . S
C8027 C8023 1.393 . S
C8027 C8026 1.391 . S
H8028 C8036 0.950 . S
H8029 C8041 0.950 . S
H8030 C8038 0.950 . S
H8031 C8040 0.950 . S
H8032 C8042 0.950 . S
H8033 C8044 0.950 . S
H8034 C8046 0.950 . S
H8035 C8047 0.950 . S
C8036 H8028 0.950 . S
C8036 C8037 1.386 . S
C8036 C8038 1.391 . S
C8037 C8036 1.386 . S
C8037 C8041 1.393 . S
C8038 H8030 0.950 . S
C8038 C8036 1.391 . S
C8038 C8039 1.400 . S
C8039 C8038 1.400 . S
C8039 C8040 1.398 . S
C8039 C8045 1.491 . S
C8040 H8031 0.950 . S
C8040 C8039 1.398 . S
C8040 C8041 1.391 . S
C8041 H8029 0.950 . S
C8041 C8037 1.393 . S
C8041 C8040 1.391 . S
C8042 H8032 0.950 . S
C8042 C8043 1.386 . S
C8042 C8044 1.391 . S
C8043 C8042 1.386 . S
C8043 C8047 1.393 . S
C8044 H8033 0.950 . S
C8044 C8042 1.391 . S
C8044 C8045 1.400 . S
C8045 C8039 1.491 . S
C8045 C8044 1.400 . S
C8045 C8046 1.398 . S
C8046 H8034 0.950 . S
C8046 C8045 1.398 . S
C8046 C8047 1.391 . S
C8047 H8035 0.950 . S
C8047 C8043 1.393 . S
C8047 C8046 1.391 . S
H8048 C8056 0.950 . S
H8049 C8061 0.950 . S
H8050 C8058 0.950 . S
H8051 C8060 0.950 . S
H8052 C8062 0.950 . S
H8053 C8064 0.950 . S
H8054 C8066 0.950 . S
H8055 C8067 0.950 . S
C8056 H8048 0.950 . S
C8056 C8057 1.386 . S
C8056 C8058 1.391 . S
C8057 C8056 1.386 . S
C8057 C8061 1.393 . S
C8058 H8050 0.950 . S
C8058 C8056 1.391 . S
C8058 C8059 1.400 . S
C8059 C8058 1.400 . S
C8059 C8060 1.398 . S
C8059 C8065 1.491 . S
C8060 H8051 0.950 . S
C8060 C8059 1.398 . S
C8060 C8061 1.391 . S
C8061 H8049 0.950 . S
C8061 C8057 1.393 . S
C8061 C8060 1.391 . S
C8062 H8052 0.950 . S
C8062 C8063 1.386 . S
C8062 C8064 1.391 . S
C8063 C8062 1.386 . S
C8063 C8067 1.393 . S
C8064 H8053 0.950 . S
C8064 C8062 1.391 . S
C8064 C8065 1.400 . S
C8065 C8059 1.491 . S
C8065 C8064 1.400 . S
C8065 C8066 1.398 . S
C8066 H8054 0.950 . S
C8066 C8065 1.398 . S
C8066 C8067 1.391 . S
C8067 H8055 0.950 . S
C8067 C8063 1.393 . S
C8067 C8066 1.391 . S
H8068 C8076 0.950 . S
H8069 C8081 0.950 . S
H8070 C8078 0.950 . S
H8071 C8080 0.950 . S
H8072 C8082 0.950 . S
H8073 C8084 0.950 . S
H8074 C8086 0.950 . S
H8075 C8087 0.950 . S
C8076 H8068 0.950 . S
C8076 C8077 1.386 . S
C8076 C8078 1.391 . S
C8077 C8076 1.386 . S
C8077 C8081 1.393 . S
C8078 H8070 0.950 . S
C8078 C8076 1.391 . S
C8078 C8079 1.400 . S
C8079 C8078 1.400 . S
C8079 C8080 1.398 . S
C8079 C8085 1.491 . S
C8080 H8071 0.950 . S
C8080 C8079 1.398 . S
C8080 C8081 1.391 . S
C8081 H8069 0.950 . S
C8081 C8077 1.393 . S
C8081 C8080 1.391 . S
C8082 H8072 0.950 . S
C8082 C8083 1.386 . S
C8082 C8084 1.391 . S
C8083 C8082 1.386 . S
C8083 C8087 1.393 . S
C8084 H8073 0.950 . S
C8084 C8082 1.391 . S
C8084 C8085 1.400 . S
C8085 C8079 1.491 . S
C8085 C8084 1.400 . S
C8085 C8086 1.398 . S
C8086 H8074 0.950 . S
C8086 C8085 1.398 . S
C8086 C8087 1.391 . S
C8087 H8075 0.950 . S
C8087 C8083 1.393 . S
C8087 C8086 1.391 . S
H8088 C8096 0.950 . S
H8089 C8101 0.950 . S
H8090 C8098 0.950 . S
H8091 C8100 0.950 . S
H8092 C8102 0.950 . S
H8093 C8104 0.950 . S
H8094 C8106 0.950 . S
H8095 C8107 0.950 . S
C8096 H8088 0.950 . S
C8096 C8097 1.386 . S
C8096 C8098 1.391 . S
C8097 C8096 1.386 . S
C8097 C8101 1.393 . S
C8098 H8090 0.950 . S
C8098 C8096 1.391 . S
C8098 C8099 1.400 . S
C8099 C8098 1.400 . S
C8099 C8100 1.398 . S
C8099 C8105 1.491 . S
C8100 H8091 0.950 . S
C8100 C8099 1.398 . S
C8100 C8101 1.391 . S
C8101 H8089 0.950 . S
C8101 C8097 1.393 . S
C8101 C8100 1.391 . S
C8102 H8092 0.950 . S
C8102 C8103 1.386 . S
C8102 C8104 1.391 . S
C8103 C8102 1.386 . S
C8103 C8107 1.393 . S
C8104 H8093 0.950 . S
C8104 C8102 1.391 . S
C8104 C8105 1.400 . S
C8105 C8099 1.491 . S
C8105 C8104 1.400 . S
C8105 C8106 1.398 . S
C8106 H8094 0.950 . S
C8106 C8105 1.398 . S
C8106 C8107 1.391 . S
C8107 H8095 0.950 . S
C8107 C8103 1.393 . S
C8107 C8106 1.391 . S
H8108 C8116 0.950 . S
H8109 C8121 0.950 . S
H8110 C8118 0.950 . S
H8111 C8120 0.950 . S
H8112 C8122 0.950 . S
H8113 C8124 0.950 . S
H8114 C8126 0.950 . S
H8115 C8127 0.950 . S
C8116 H8108 0.950 . S
C8116 C8117 1.386 . S
C8116 C8118 1.391 . S
C8117 C8116 1.386 . S
C8117 C8121 1.393 . S
C8118 H8110 0.950 . S
C8118 C8116 1.391 . S
C8118 C8119 1.400 . S
C8119 C8118 1.400 . S
C8119 C8120 1.398 . S
C8119 C8125 1.491 . S
C8120 H8111 0.950 . S
C8120 C8119 1.398 . S
C8120 C8121 1.391 . S
C8121 H8109 0.950 . S
C8121 C8117 1.393 . S
C8121 C8120 1.391 . S
C8122 H8112 0.950 . S
C8122 C8123 1.386 . S
C8122 C8124 1.391 . S
C8123 C8122 1.386 . S
C8123 C8127 1.393 . S
C8124 H8113 0.950 . S
C8124 C8122 1.391 . S
C8124 C8125 1.400 . S
C8125 C8119 1.491 . S
C8125 C8124 1.400 . S
C8125 C8126 1.398 . S
C8126 H8114 0.950 . S
C8126 C8125 1.398 . S
C8126 C8127 1.391 . S
C8127 H8115 0.950 . S
C8127 C8123 1.393 . S
C8127 C8126 1.391 . S
H8128 C8136 0.950 . S
H8129 C8141 0.950 . S
H8130 C8138 0.950 . S
H8131 C8140 0.950 . S
H8132 C8142 0.950 . S
H8133 C8144 0.950 . S
H8134 C8146 0.950 . S
H8135 C8147 0.950 . S
C8136 H8128 0.950 . S
C8136 C8137 1.386 . S
C8136 C8138 1.391 . S
C8137 C8136 1.386 . S
C8137 C8141 1.393 . S
C8138 H8130 0.950 . S
C8138 C8136 1.391 . S
C8138 C8139 1.400 . S
C8139 C8138 1.400 . S
C8139 C8140 1.398 . S
C8139 C8145 1.491 . S
C8140 H8131 0.950 . S
C8140 C8139 1.398 . S
C8140 C8141 1.391 . S
C8141 H8129 0.950 . S
C8141 C8137 1.393 . S
C8141 C8140 1.391 . S
C8142 H8132 0.950 . S
C8142 C8143 1.386 . S
C8142 C8144 1.391 . S
C8143 C8142 1.386 . S
C8143 C8147 1.393 . S
C8144 H8133 0.950 . S
C8144 C8142 1.391 . S
C8144 C8145 1.400 . S
C8145 C8139 1.491 . S
C8145 C8144 1.400 . S
C8145 C8146 1.398 . S
C8146 H8134 0.950 . S
C8146 C8145 1.398 . S
C8146 C8147 1.391 . S
C8147 H8135 0.950 . S
C8147 C8143 1.393 . S
C8147 C8146 1.391 . S
H8148 C8156 0.950 . S
H8149 C8161 0.950 . S
H8150 C8158 0.950 . S
H8151 C8160 0.950 . S
H8152 C8162 0.950 . S
H8153 C8164 0.950 . S
H8154 C8166 0.950 . S
H8155 C8167 0.950 . S
C8156 H8148 0.950 . S
C8156 C8157 1.386 . S
C8156 C8158 1.391 . S
C8157 C8156 1.386 . S
C8157 C8161 1.393 . S
C8158 H8150 0.950 . S
C8158 C8156 1.391 . S
C8158 C8159 1.400 . S
C8159 C8158 1.400 . S
C8159 C8160 1.398 . S
C8159 C8165 1.491 . S
C8160 H8151 0.950 . S
C8160 C8159 1.398 . S
C8160 C8161 1.391 . S
C8161 H8149 0.950 . S
C8161 C8157 1.393 . S
C8161 C8160 1.391 . S
C8162 H8152 0.950 . S
C8162 C8163 1.386 . S
C8162 C8164 1.391 . S
C8163 C8162 1.386 . S
C8163 C8167 1.393 . S
C8164 H8153 0.950 . S
C8164 C8162 1.391 . S
C8164 C8165 1.400 . S
C8165 C8159 1.491 . S
C8165 C8164 1.400 . S
C8165 C8166 1.398 . S
C8166 H8154 0.950 . S
C8166 C8165 1.398 . S
C8166 C8167 1.391 . S
C8167 H8155 0.950 . S
C8167 C8163 1.393 . S
C8167 C8166 1.391 . S
H8168 C8176 0.950 . S
H8169 C8181 0.950 . S
H8170 C8178 0.950 . S
H8171 C8180 0.950 . S
H8172 C8182 0.950 . S
H8173 C8184 0.950 . S
H8174 C8186 0.950 . S
H8175 C8187 0.950 . S
C8176 H8168 0.950 . S
C8176 C8177 1.386 . S
C8176 C8178 1.391 . S
C8177 C8176 1.386 . S
C8177 C8181 1.393 . S
C8178 H8170 0.950 . S
C8178 C8176 1.391 . S
C8178 C8179 1.400 . S
C8179 C8178 1.400 . S
C8179 C8180 1.398 . S
C8179 C8185 1.491 . S
C8180 H8171 0.950 . S
C8180 C8179 1.398 . S
C8180 C8181 1.391 . S
C8181 H8169 0.950 . S
C8181 C8177 1.393 . S
C8181 C8180 1.391 . S
C8182 H8172 0.950 . S
C8182 C8183 1.386 . S
C8182 C8184 1.391 . S
C8183 C8182 1.386 . S
C8183 C8187 1.393 . S
C8184 H8173 0.950 . S
C8184 C8182 1.391 . S
C8184 C8185 1.400 . S
C8185 C8179 1.491 . S
C8185 C8184 1.400 . S
C8185 C8186 1.398 . S
C8186 H8174 0.950 . S
C8186 C8185 1.398 . S
C8186 C8187 1.391 . S
C8187 H8175 0.950 . S
C8187 C8183 1.393 . S
C8187 C8186 1.391 . S
H8188 C8196 0.950 . S
H8189 C8201 0.950 . S
H8190 C8198 0.950 . S
H8191 C8200 0.950 . S
H8192 C8202 0.950 . S
H8193 C8204 0.950 . S
H8194 C8206 0.950 . S
H8195 C8207 0.950 . S
C8196 H8188 0.950 . S
C8196 C8197 1.386 . S
C8196 C8198 1.391 . S
C8197 C8196 1.386 . S
C8197 C8201 1.393 . S
C8198 H8190 0.950 . S
C8198 C8196 1.391 . S
C8198 C8199 1.400 . S
C8199 C8198 1.400 . S
C8199 C8200 1.398 . S
C8199 C8205 1.491 . S
C8200 H8191 0.950 . S
C8200 C8199 1.398 . S
C8200 C8201 1.391 . S
C8201 H8189 0.950 . S
C8201 C8197 1.393 . S
C8201 C8200 1.391 . S
C8202 H8192 0.950 . S
C8202 C8203 1.386 . S
C8202 C8204 1.391 . S
C8203 C8202 1.386 . S
C8203 C8207 1.393 . S
C8204 H8193 0.950 . S
C8204 C8202 1.391 . S
C8204 C8205 1.400 . S
C8205 C8199 1.491 . S
C8205 C8204 1.400 . S
C8205 C8206 1.398 . S
C8206 H8194 0.950 . S
C8206 C8205 1.398 . S
C8206 C8207 1.391 . S
C8207 H8195 0.950 . S
C8207 C8203 1.393 . S
C8207 C8206 1.391 . S
H8208 C8216 0.950 . S
H8209 C8221 0.950 . S
H8210 C8218 0.950 . S
H8211 C8220 0.950 . S
H8212 C8222 0.950 . S
H8213 C8224 0.950 . S
H8214 C8226 0.950 . S
H8215 C8227 0.950 . S
C8216 H8208 0.950 . S
C8216 C8217 1.386 . S
C8216 C8218 1.391 . S
C8217 C8216 1.386 . S
C8217 C8221 1.393 . S
C8218 H8210 0.950 . S
C8218 C8216 1.391 . S
C8218 C8219 1.400 . S
C8219 C8218 1.400 . S
C8219 C8220 1.398 . S
C8219 C8225 1.491 . S
C8220 H8211 0.950 . S
C8220 C8219 1.398 . S
C8220 C8221 1.391 . S
C8221 H8209 0.950 . S
C8221 C8217 1.393 . S
C8221 C8220 1.391 . S
C8222 H8212 0.950 . S
C8222 C8223 1.386 . S
C8222 C8224 1.391 . S
C8223 C8222 1.386 . S
C8223 C8227 1.393 . S
C8224 H8213 0.950 . S
C8224 C8222 1.391 . S
C8224 C8225 1.400 . S
C8225 C8219 1.491 . S
C8225 C8224 1.400 . S
C8225 C8226 1.398 . S
C8226 H8214 0.950 . S
C8226 C8225 1.398 . S
C8226 C8227 1.391 . S
C8227 H8215 0.950 . S
C8227 C8223 1.393 . S
C8227 C8226 1.391 . S
H8228 C8236 0.950 . S
H8229 C8241 0.950 . S
H8230 C8238 0.950 . S
H8231 C8240 0.950 . S
H8232 C8242 0.950 . S
H8233 C8244 0.950 . S
H8234 C8246 0.950 . S
H8235 C8247 0.950 . S
C8236 H8228 0.950 . S
C8236 C8237 1.386 . S
C8236 C8238 1.391 . S
C8237 C8236 1.386 . S
C8237 C8241 1.393 . S
C8238 H8230 0.950 . S
C8238 C8236 1.391 . S
C8238 C8239 1.400 . S
C8239 C8238 1.400 . S
C8239 C8240 1.398 . S
C8239 C8245 1.491 . S
C8240 H8231 0.950 . S
C8240 C8239 1.398 . S
C8240 C8241 1.391 . S
C8241 H8229 0.950 . S
C8241 C8237 1.393 . S
C8241 C8240 1.391 . S
C8242 H8232 0.950 . S
C8242 C8243 1.386 . S
C8242 C8244 1.391 . S
C8243 C8242 1.386 . S
C8243 C8247 1.393 . S
C8244 H8233 0.950 . S
C8244 C8242 1.391 . S
C8244 C8245 1.400 . S
C8245 C8239 1.491 . S
C8245 C8244 1.400 . S
C8245 C8246 1.398 . S
C8246 H8234 0.950 . S
C8246 C8245 1.398 . S
C8246 C8247 1.391 . S
C8247 H8235 0.950 . S
C8247 C8243 1.393 . S
C8247 C8246 1.391 . S
H8248 C8256 0.950 . S
H8249 C8261 0.950 . S
H8250 C8258 0.950 . S
H8251 C8260 0.950 . S
H8252 C8262 0.950 . S
H8253 C8264 0.950 . S
H8254 C8266 0.950 . S
H8255 C8267 0.950 . S
C8256 H8248 0.950 . S
C8256 C8257 1.386 . S
C8256 C8258 1.391 . S
C8257 C8256 1.386 . S
C8257 C8261 1.393 . S
C8258 H8250 0.950 . S
C8258 C8256 1.391 . S
C8258 C8259 1.400 . S
C8259 C8258 1.400 . S
C8259 C8260 1.398 . S
C8259 C8265 1.491 . S
C8260 H8251 0.950 . S
C8260 C8259 1.398 . S
C8260 C8261 1.391 . S
C8261 H8249 0.950 . S
C8261 C8257 1.393 . S
C8261 C8260 1.391 . S
C8262 H8252 0.950 . S
C8262 C8263 1.386 . S
C8262 C8264 1.391 . S
C8263 C8262 1.386 . S
C8263 C8267 1.393 . S
C8264 H8253 0.950 . S
C8264 C8262 1.391 . S
C8264 C8265 1.400 . S
C8265 C8259 1.491 . S
C8265 C8264 1.400 . S
C8265 C8266 1.398 . S
C8266 H8254 0.950 . S
C8266 C8265 1.398 . S
C8266 C8267 1.391 . S
C8267 H8255 0.950 . S
C8267 C8263 1.393 . S
C8267 C8266 1.391 . S
H8268 C8276 0.950 . S
H8269 C8281 0.950 . S
H8270 C8278 0.950 . S
H8271 C8280 0.950 . S
H8272 C8282 0.950 . S
H8273 C8284 0.950 . S
H8274 C8286 0.950 . S
H8275 C8287 0.950 . S
C8276 H8268 0.950 . S
C8276 C8277 1.386 . S
C8276 C8278 1.391 . S
C8277 C8276 1.386 . S
C8277 C8281 1.393 . S
C8278 H8270 0.950 . S
C8278 C8276 1.391 . S
C8278 C8279 1.400 . S
C8279 C8278 1.400 . S
C8279 C8280 1.398 . S
C8279 C8285 1.491 . S
C8280 H8271 0.950 . S
C8280 C8279 1.398 . S
C8280 C8281 1.391 . S
C8281 H8269 0.950 . S
C8281 C8277 1.393 . S
C8281 C8280 1.391 . S
C8282 H8272 0.950 . S
C8282 C8283 1.386 . S
C8282 C8284 1.391 . S
C8283 C8282 1.386 . S
C8283 C8287 1.393 . S
C8284 H8273 0.950 . S
C8284 C8282 1.391 . S
C8284 C8285 1.400 . S
C8285 C8279 1.491 . S
C8285 C8284 1.400 . S
C8285 C8286 1.398 . S
C8286 H8274 0.950 . S
C8286 C8285 1.398 . S
C8286 C8287 1.391 . S
C8287 H8275 0.950 . S
C8287 C8283 1.393 . S
C8287 C8286 1.391 . S
H8288 C8296 0.950 . S
H8289 C8301 0.950 . S
H8290 C8298 0.950 . S
H8291 C8300 0.950 . S
H8292 C8302 0.950 . S
H8293 C8304 0.950 . S
H8294 C8306 0.950 . S
H8295 C8307 0.950 . S
C8296 H8288 0.950 . S
C8296 C8297 1.386 . S
C8296 C8298 1.391 . S
C8297 C8296 1.386 . S
C8297 C8301 1.393 . S
C8298 H8290 0.950 . S
C8298 C8296 1.391 . S
C8298 C8299 1.400 . S
C8299 C8298 1.400 . S
C8299 C8300 1.398 . S
C8299 C8305 1.491 . S
C8300 H8291 0.950 . S
C8300 C8299 1.398 . S
C8300 C8301 1.391 . S
C8301 H8289 0.950 . S
C8301 C8297 1.393 . S
C8301 C8300 1.391 . S
C8302 H8292 0.950 . S
C8302 C8303 1.386 . S
C8302 C8304 1.391 . S
C8303 C8302 1.386 . S
C8303 C8307 1.393 . S
C8304 H8293 0.950 . S
C8304 C8302 1.391 . S
C8304 C8305 1.400 . S
C8305 C8299 1.491 . S
C8305 C8304 1.400 . S
C8305 C8306 1.398 . S
C8306 H8294 0.950 . S
C8306 C8305 1.398 . S
C8306 C8307 1.391 . S
C8307 H8295 0.950 . S
C8307 C8303 1.393 . S
C8307 C8306 1.391 . S
H8308 C8316 0.950 . S
H8309 C8321 0.950 . S
H8310 C8318 0.950 . S
H8311 C8320 0.950 . S
H8312 C8322 0.950 . S
H8313 C8324 0.950 . S
H8314 C8326 0.950 . S
H8315 C8327 0.950 . S
C8316 H8308 0.950 . S
C8316 C8317 1.386 . S
C8316 C8318 1.391 . S
C8317 C8316 1.386 . S
C8317 C8321 1.393 . S
C8318 H8310 0.950 . S
C8318 C8316 1.391 . S
C8318 C8319 1.400 . S
C8319 C8318 1.400 . S
C8319 C8320 1.398 . S
C8319 C8325 1.491 . S
C8320 H8311 0.950 . S
C8320 C8319 1.398 . S
C8320 C8321 1.391 . S
C8321 H8309 0.950 . S
C8321 C8317 1.393 . S
C8321 C8320 1.391 . S
C8322 H8312 0.950 . S
C8322 C8323 1.386 . S
C8322 C8324 1.391 . S
C8323 C8322 1.386 . S
C8323 C8327 1.393 . S
C8324 H8313 0.950 . S
C8324 C8322 1.391 . S
C8324 C8325 1.400 . S
C8325 C8319 1.491 . S
C8325 C8324 1.400 . S
C8325 C8326 1.398 . S
C8326 H8314 0.950 . S
C8326 C8325 1.398 . S
C8326 C8327 1.391 . S
C8327 H8315 0.950 . S
C8327 C8323 1.393 . S
C8327 C8326 1.391 . S
H8328 C8336 0.950 . S
H8329 C8341 0.950 . S
H8330 C8338 0.950 . S
H8331 C8340 0.950 . S
H8332 C8342 0.950 . S
H8333 C8344 0.950 . S
H8334 C8346 0.950 . S
H8335 C8347 0.950 . S
C8336 H8328 0.950 . S
C8336 C8337 1.386 . S
C8336 C8338 1.391 . S
C8337 C8336 1.386 . S
C8337 C8341 1.393 . S
C8338 H8330 0.950 . S
C8338 C8336 1.391 . S
C8338 C8339 1.400 . S
C8339 C8338 1.400 . S
C8339 C8340 1.398 . S
C8339 C8345 1.491 . S
C8340 H8331 0.950 . S
C8340 C8339 1.398 . S
C8340 C8341 1.391 . S
C8341 H8329 0.950 . S
C8341 C8337 1.393 . S
C8341 C8340 1.391 . S
C8342 H8332 0.950 . S
C8342 C8343 1.386 . S
C8342 C8344 1.391 . S
C8343 C8342 1.386 . S
C8343 C8347 1.393 . S
C8344 H8333 0.950 . S
C8344 C8342 1.391 . S
C8344 C8345 1.400 . S
C8345 C8339 1.491 . S
C8345 C8344 1.400 . S
C8345 C8346 1.398 . S
C8346 H8334 0.950 . S
C8346 C8345 1.398 . S
C8346 C8347 1.391 . S
C8347 H8335 0.950 . S
C8347 C8343 1.393 . S
C8347 C8346 1.391 . S
H8348 C8356 0.950 . S
H8349 C8361 0.950 . S
H8350 C8358 0.950 . S
H8351 C8360 0.950 . S
H8352 C8362 0.950 . S
H8353 C8364 0.950 . S
H8354 C8366 0.950 . S
H8355 C8367 0.950 . S
C8356 H8348 0.950 . S
C8356 C8357 1.386 . S
C8356 C8358 1.391 . S
C8357 C8356 1.386 . S
C8357 C8361 1.393 . S
C8358 H8350 0.950 . S
C8358 C8356 1.391 . S
C8358 C8359 1.400 . S
C8359 C8358 1.400 . S
C8359 C8360 1.398 . S
C8359 C8365 1.491 . S
C8360 H8351 0.950 . S
C8360 C8359 1.398 . S
C8360 C8361 1.391 . S
C8361 H8349 0.950 . S
C8361 C8357 1.393 . S
C8361 C8360 1.391 . S
C8362 H8352 0.950 . S
C8362 C8363 1.386 . S
C8362 C8364 1.391 . S
C8363 C8362 1.386 . S
C8363 C8367 1.393 . S
C8364 H8353 0.950 . S
C8364 C8362 1.391 . S
C8364 C8365 1.400 . S
C8365 C8359 1.491 . S
C8365 C8364 1.400 . S
C8365 C8366 1.398 . S
C8366 H8354 0.950 . S
C8366 C8365 1.398 . S
C8366 C8367 1.391 . S
C8367 H8355 0.950 . S
C8367 C8363 1.393 . S
C8367 C8366 1.391 . S
H8368 C8376 0.950 . S
H8369 C8381 0.950 . S
H8370 C8378 0.950 . S
H8371 C8380 0.950 . S
H8372 C8382 0.950 . S
H8373 C8384 0.950 . S
H8374 C8386 0.950 . S
H8375 C8387 0.950 . S
C8376 H8368 0.950 . S
C8376 C8377 1.386 . S
C8376 C8378 1.391 . S
C8377 C8376 1.386 . S
C8377 C8381 1.393 . S
C8378 H8370 0.950 . S
C8378 C8376 1.391 . S
C8378 C8379 1.400 . S
C8379 C8378 1.400 . S
C8379 C8380 1.398 . S
C8379 C8385 1.491 . S
C8380 H8371 0.950 . S
C8380 C8379 1.398 . S
C8380 C8381 1.391 . S
C8381 H8369 0.950 . S
C8381 C8377 1.393 . S
C8381 C8380 1.391 . S
C8382 H8372 0.950 . S
C8382 C8383 1.386 . S
C8382 C8384 1.391 . S
C8383 C8382 1.386 . S
C8383 C8387 1.393 . S
C8384 H8373 0.950 . S
C8384 C8382 1.391 . S
C8384 C8385 1.400 . S
C8385 C8379 1.491 . S
C8385 C8384 1.400 . S
C8385 C8386 1.398 . S
C8386 H8374 0.950 . S
C8386 C8385 1.398 . S
C8386 C8387 1.391 . S
C8387 H8375 0.950 . S
C8387 C8383 1.393 . S
C8387 C8386 1.391 . S
H8388 C8396 0.950 . S
H8389 C8401 0.950 . S
H8390 C8398 0.950 . S
H8391 C8400 0.950 . S
H8392 C8402 0.950 . S
H8393 C8404 0.950 . S
H8394 C8406 0.950 . S
H8395 C8407 0.950 . S
C8396 H8388 0.950 . S
C8396 C8397 1.386 . S
C8396 C8398 1.391 . S
C8397 C8396 1.386 . S
C8397 C8401 1.393 . S
C8398 H8390 0.950 . S
C8398 C8396 1.391 . S
C8398 C8399 1.400 . S
C8399 C8398 1.400 . S
C8399 C8400 1.398 . S
C8399 C8405 1.491 . S
C8400 H8391 0.950 . S
C8400 C8399 1.398 . S
C8400 C8401 1.391 . S
C8401 H8389 0.950 . S
C8401 C8397 1.393 . S
C8401 C8400 1.391 . S
C8402 H8392 0.950 . S
C8402 C8403 1.386 . S
C8402 C8404 1.391 . S
C8403 C8402 1.386 . S
C8403 C8407 1.393 . S
C8404 H8393 0.950 . S
C8404 C8402 1.391 . S
C8404 C8405 1.400 . S
C8405 C8399 1.491 . S
C8405 C8404 1.400 . S
C8405 C8406 1.398 . S
C8406 H8394 0.950 . S
C8406 C8405 1.398 . S
C8406 C8407 1.391 . S
C8407 H8395 0.950 . S
C8407 C8403 1.393 . S
C8407 C8406 1.391 . S
H8408 C8416 0.950 . S
H8409 C8421 0.950 . S
H8410 C8418 0.950 . S
H8411 C8420 0.950 . S
H8412 C8422 0.950 . S
H8413 C8424 0.950 . S
H8414 C8426 0.950 . S
H8415 C8427 0.950 . S
C8416 H8408 0.950 . S
C8416 C8417 1.386 . S
C8416 C8418 1.391 . S
C8417 C8416 1.386 . S
C8417 C8421 1.393 . S
C8418 H8410 0.950 . S
C8418 C8416 1.391 . S
C8418 C8419 1.400 . S
C8419 C8418 1.400 . S
C8419 C8420 1.398 . S
C8419 C8425 1.491 . S
C8420 H8411 0.950 . S
C8420 C8419 1.398 . S
C8420 C8421 1.391 . S
C8421 H8409 0.950 . S
C8421 C8417 1.393 . S
C8421 C8420 1.391 . S
C8422 H8412 0.950 . S
C8422 C8423 1.386 . S
C8422 C8424 1.391 . S
C8423 C8422 1.386 . S
C8423 C8427 1.393 . S
C8424 H8413 0.950 . S
C8424 C8422 1.391 . S
C8424 C8425 1.400 . S
C8425 C8419 1.491 . S
C8425 C8424 1.400 . S
C8425 C8426 1.398 . S
C8426 H8414 0.950 . S
C8426 C8425 1.398 . S
C8426 C8427 1.391 . S
C8427 H8415 0.950 . S
C8427 C8423 1.393 . S
C8427 C8426 1.391 . S
H8428 C8436 0.950 . S
H8429 C8441 0.950 . S
H8430 C8438 0.950 . S
H8431 C8440 0.950 . S
H8432 C8442 0.950 . S
H8433 C8444 0.950 . S
H8434 C8446 0.950 . S
H8435 C8447 0.950 . S
C8436 H8428 0.950 . S
C8436 C8437 1.386 . S
C8436 C8438 1.391 . S
C8437 C8436 1.386 . S
C8437 C8441 1.393 . S
C8438 H8430 0.950 . S
C8438 C8436 1.391 . S
C8438 C8439 1.400 . S
C8439 C8438 1.400 . S
C8439 C8440 1.398 . S
C8439 C8445 1.491 . S
C8440 H8431 0.950 . S
C8440 C8439 1.398 . S
C8440 C8441 1.391 . S
C8441 H8429 0.950 . S
C8441 C8437 1.393 . S
C8441 C8440 1.391 . S
C8442 H8432 0.950 . S
C8442 C8443 1.386 . S
C8442 C8444 1.391 . S
C8443 C8442 1.386 . S
C8443 C8447 1.393 . S
C8444 H8433 0.950 . S
C8444 C8442 1.391 . S
C8444 C8445 1.400 . S
C8445 C8439 1.491 . S
C8445 C8444 1.400 . S
C8445 C8446 1.398 . S
C8446 H8434 0.950 . S
C8446 C8445 1.398 . S
C8446 C8447 1.391 . S
C8447 H8435 0.950 . S
C8447 C8443 1.393 . S
C8447 C8446 1.391 . S
H8448 C8456 0.950 . S
H8449 C8461 0.950 . S
H8450 C8458 0.950 . S
H8451 C8460 0.950 . S
H8452 C8462 0.950 . S
H8453 C8464 0.950 . S
H8454 C8466 0.950 . S
H8455 C8467 0.950 . S
C8456 H8448 0.950 . S
C8456 C8457 1.386 . S
C8456 C8458 1.391 . S
C8457 C8456 1.386 . S
C8457 C8461 1.393 . S
C8458 H8450 0.950 . S
C8458 C8456 1.391 . S
C8458 C8459 1.400 . S
C8459 C8458 1.400 . S
C8459 C8460 1.398 . S
C8459 C8465 1.491 . S
C8460 H8451 0.950 . S
C8460 C8459 1.398 . S
C8460 C8461 1.391 . S
C8461 H8449 0.950 . S
C8461 C8457 1.393 . S
C8461 C8460 1.391 . S
C8462 H8452 0.950 . S
C8462 C8463 1.386 . S
C8462 C8464 1.391 . S
C8463 C8462 1.386 . S
C8463 C8467 1.393 . S
C8464 H8453 0.950 . S
C8464 C8462 1.391 . S
C8464 C8465 1.400 . S
C8465 C8459 1.491 . S
C8465 C8464 1.400 . S
C8465 C8466 1.398 . S
C8466 H8454 0.950 . S
C8466 C8465 1.398 . S
C8466 C8467 1.391 . S
C8467 H8455 0.950 . S
C8467 C8463 1.393 . S
C8467 C8466 1.391 . S
H8468 C8476 0.950 . S
H8469 C8481 0.950 . S
H8470 C8478 0.950 . S
H8471 C8480 0.950 . S
H8472 C8482 0.950 . S
H8473 C8484 0.950 . S
H8474 C8486 0.950 . S
H8475 C8487 0.950 . S
C8476 H8468 0.950 . S
C8476 C8477 1.386 . S
C8476 C8478 1.391 . S
C8477 C8476 1.386 . S
C8477 C8481 1.393 . S
C8478 H8470 0.950 . S
C8478 C8476 1.391 . S
C8478 C8479 1.400 . S
C8479 C8478 1.400 . S
C8479 C8480 1.398 . S
C8479 C8485 1.491 . S
C8480 H8471 0.950 . S
C8480 C8479 1.398 . S
C8480 C8481 1.391 . S
C8481 H8469 0.950 . S
C8481 C8477 1.393 . S
C8481 C8480 1.391 . S
C8482 H8472 0.950 . S
C8482 C8483 1.386 . S
C8482 C8484 1.391 . S
C8483 C8482 1.386 . S
C8483 C8487 1.393 . S
C8484 H8473 0.950 . S
C8484 C8482 1.391 . S
C8484 C8485 1.400 . S
C8485 C8479 1.491 . S
C8485 C8484 1.400 . S
C8485 C8486 1.398 . S
C8486 H8474 0.950 . S
C8486 C8485 1.398 . S
C8486 C8487 1.391 . S
C8487 H8475 0.950 . S
C8487 C8483 1.393 . S
C8487 C8486 1.391 . S
H8488 C8496 0.950 . S
H8489 C8501 0.950 . S
H8490 C8498 0.950 . S
H8491 C8500 0.950 . S
H8492 C8502 0.950 . S
H8493 C8504 0.950 . S
H8494 C8506 0.950 . S
H8495 C8507 0.950 . S
C8496 H8488 0.950 . S
C8496 C8497 1.386 . S
C8496 C8498 1.391 . S
C8497 C8496 1.386 . S
C8497 C8501 1.393 . S
C8498 H8490 0.950 . S
C8498 C8496 1.391 . S
C8498 C8499 1.400 . S
C8499 C8498 1.400 . S
C8499 C8500 1.398 . S
C8499 C8505 1.491 . S
C8500 H8491 0.950 . S
C8500 C8499 1.398 . S
C8500 C8501 1.391 . S
C8501 H8489 0.950 . S
C8501 C8497 1.393 . S
C8501 C8500 1.391 . S
C8502 H8492 0.950 . S
C8502 C8503 1.386 . S
C8502 C8504 1.391 . S
C8503 C8502 1.386 . S
C8503 C8507 1.393 . S
C8504 H8493 0.950 . S
C8504 C8502 1.391 . S
C8504 C8505 1.400 . S
C8505 C8499 1.491 . S
C8505 C8504 1.400 . S
C8505 C8506 1.398 . S
C8506 H8494 0.950 . S
C8506 C8505 1.398 . S
C8506 C8507 1.391 . S
C8507 H8495 0.950 . S
C8507 C8503 1.393 . S
C8507 C8506 1.391 . S
H8508 C8516 0.950 . S
H8509 C8521 0.950 . S
H8510 C8518 0.950 . S
H8511 C8520 0.950 . S
H8512 C8522 0.950 . S
H8513 C8524 0.950 . S
H8514 C8526 0.950 . S
H8515 C8527 0.950 . S
C8516 H8508 0.950 . S
C8516 C8517 1.386 . S
C8516 C8518 1.391 . S
C8517 C8516 1.386 . S
C8517 C8521 1.393 . S
C8518 H8510 0.950 . S
C8518 C8516 1.391 . S
C8518 C8519 1.400 . S
C8519 C8518 1.400 . S
C8519 C8520 1.398 . S
C8519 C8525 1.491 . S
C8520 H8511 0.950 . S
C8520 C8519 1.398 . S
C8520 C8521 1.391 . S
C8521 H8509 0.950 . S
C8521 C8517 1.393 . S
C8521 C8520 1.391 . S
C8522 H8512 0.950 . S
C8522 C8523 1.386 . S
C8522 C8524 1.391 . S
C8523 C8522 1.386 . S
C8523 C8527 1.393 . S
C8524 H8513 0.950 . S
C8524 C8522 1.391 . S
C8524 C8525 1.400 . S
C8525 C8519 1.491 . S
C8525 C8524 1.400 . S
C8525 C8526 1.398 . S
C8526 H8514 0.950 . S
C8526 C8525 1.398 . S
C8526 C8527 1.391 . S
C8527 H8515 0.950 . S
C8527 C8523 1.393 . S
C8527 C8526 1.391 . S
H8528 C8536 0.950 . S
H8529 C8541 0.950 . S
H8530 C8538 0.950 . S
H8531 C8540 0.950 . S
H8532 C8542 0.950 . S
H8533 C8544 0.950 . S
H8534 C8546 0.950 . S
H8535 C8547 0.950 . S
C8536 H8528 0.950 . S
C8536 C8537 1.386 . S
C8536 C8538 1.391 . S
C8537 C8536 1.386 . S
C8537 C8541 1.393 . S
C8538 H8530 0.950 . S
C8538 C8536 1.391 . S
C8538 C8539 1.400 . S
C8539 C8538 1.400 . S
C8539 C8540 1.398 . S
C8539 C8545 1.491 . S
C8540 H8531 0.950 . S
C8540 C8539 1.398 . S
C8540 C8541 1.391 . S
C8541 H8529 0.950 . S
C8541 C8537 1.393 . S
C8541 C8540 1.391 . S
C8542 H8532 0.950 . S
C8542 C8543 1.386 . S
C8542 C8544 1.391 . S
C8543 C8542 1.386 . S
C8543 C8547 1.393 . S
C8544 H8533 0.950 . S
C8544 C8542 1.391 . S
C8544 C8545 1.400 . S
C8545 C8539 1.491 . S
C8545 C8544 1.400 . S
C8545 C8546 1.398 . S
C8546 H8534 0.950 . S
C8546 C8545 1.398 . S
C8546 C8547 1.391 . S
C8547 H8535 0.950 . S
C8547 C8543 1.393 . S
C8547 C8546 1.391 . S
H8548 C8556 0.950 . S
H8549 C8561 0.950 . S
H8550 C8558 0.950 . S
H8551 C8560 0.950 . S
H8552 C8562 0.950 . S
H8553 C8564 0.950 . S
H8554 C8566 0.950 . S
H8555 C8567 0.950 . S
C8556 H8548 0.950 . S
C8556 C8557 1.386 . S
C8556 C8558 1.391 . S
C8557 C8556 1.386 . S
C8557 C8561 1.393 . S
C8558 H8550 0.950 . S
C8558 C8556 1.391 . S
C8558 C8559 1.400 . S
C8559 C8558 1.400 . S
C8559 C8560 1.398 . S
C8559 C8565 1.491 . S
C8560 H8551 0.950 . S
C8560 C8559 1.398 . S
C8560 C8561 1.391 . S
C8561 H8549 0.950 . S
C8561 C8557 1.393 . S
C8561 C8560 1.391 . S
C8562 H8552 0.950 . S
C8562 C8563 1.386 . S
C8562 C8564 1.391 . S
C8563 C8562 1.386 . S
C8563 C8567 1.393 . S
C8564 H8553 0.950 . S
C8564 C8562 1.391 . S
C8564 C8565 1.400 . S
C8565 C8559 1.491 . S
C8565 C8564 1.400 . S
C8565 C8566 1.398 . S
C8566 H8554 0.950 . S
C8566 C8565 1.398 . S
C8566 C8567 1.391 . S
C8567 H8555 0.950 . S
C8567 C8563 1.393 . S
C8567 C8566 1.391 . S
H8568 C8576 0.950 . S
H8569 C8581 0.950 . S
H8570 C8578 0.950 . S
H8571 C8580 0.950 . S
H8572 C8582 0.950 . S
H8573 C8584 0.950 . S
H8574 C8586 0.950 . S
H8575 C8587 0.950 . S
C8576 H8568 0.950 . S
C8576 C8577 1.386 . S
C8576 C8578 1.391 . S
C8577 C8576 1.386 . S
C8577 C8581 1.393 . S
C8578 H8570 0.950 . S
C8578 C8576 1.391 . S
C8578 C8579 1.400 . S
C8579 C8578 1.400 . S
C8579 C8580 1.398 . S
C8579 C8585 1.491 . S
C8580 H8571 0.950 . S
C8580 C8579 1.398 . S
C8580 C8581 1.391 . S
C8581 H8569 0.950 . S
C8581 C8577 1.393 . S
C8581 C8580 1.391 . S
C8582 H8572 0.950 . S
C8582 C8583 1.386 . S
C8582 C8584 1.391 . S
C8583 C8582 1.386 . S
C8583 C8587 1.393 . S
C8584 H8573 0.950 . S
C8584 C8582 1.391 . S
C8584 C8585 1.400 . S
C8585 C8579 1.491 . S
C8585 C8584 1.400 . S
C8585 C8586 1.398 . S
C8586 H8574 0.950 . S
C8586 C8585 1.398 . S
C8586 C8587 1.391 . S
C8587 H8575 0.950 . S
C8587 C8583 1.393 . S
C8587 C8586 1.391 . S
H8588 C8596 0.950 . S
H8589 C8601 0.950 . S
H8590 C8598 0.950 . S
H8591 C8600 0.950 . S
H8592 C8602 0.950 . S
H8593 C8604 0.950 . S
H8594 C8606 0.950 . S
H8595 C8607 0.950 . S
C8596 H8588 0.950 . S
C8596 C8597 1.386 . S
C8596 C8598 1.391 . S
C8597 C8596 1.386 . S
C8597 C8601 1.393 . S
C8598 H8590 0.950 . S
C8598 C8596 1.391 . S
C8598 C8599 1.400 . S
C8599 C8598 1.400 . S
C8599 C8600 1.398 . S
C8599 C8605 1.491 . S
C8600 H8591 0.950 . S
C8600 C8599 1.398 . S
C8600 C8601 1.391 . S
C8601 H8589 0.950 . S
C8601 C8597 1.393 . S
C8601 C8600 1.391 . S
C8602 H8592 0.950 . S
C8602 C8603 1.386 . S
C8602 C8604 1.391 . S
C8603 C8602 1.386 . S
C8603 C8607 1.393 . S
C8604 H8593 0.950 . S
C8604 C8602 1.391 . S
C8604 C8605 1.400 . S
C8605 C8599 1.491 . S
C8605 C8604 1.400 . S
C8605 C8606 1.398 . S
C8606 H8594 0.950 . S
C8606 C8605 1.398 . S
C8606 C8607 1.391 . S
C8607 H8595 0.950 . S
C8607 C8603 1.393 . S
C8607 C8606 1.391 . S
H8608 C8616 0.950 . S
H8609 C8621 0.950 . S
H8610 C8618 0.950 . S
H8611 C8620 0.950 . S
H8612 C8622 0.950 . S
H8613 C8624 0.950 . S
H8614 C8626 0.950 . S
H8615 C8627 0.950 . S
C8616 H8608 0.950 . S
C8616 C8617 1.386 . S
C8616 C8618 1.391 . S
C8617 C8616 1.386 . S
C8617 C8621 1.393 . S
C8618 H8610 0.950 . S
C8618 C8616 1.391 . S
C8618 C8619 1.400 . S
C8619 C8618 1.400 . S
C8619 C8620 1.398 . S
C8619 C8625 1.491 . S
C8620 H8611 0.950 . S
C8620 C8619 1.398 . S
C8620 C8621 1.391 . S
C8621 H8609 0.950 . S
C8621 C8617 1.393 . S
C8621 C8620 1.391 . S
C8622 H8612 0.950 . S
C8622 C8623 1.386 . S
C8622 C8624 1.391 . S
C8623 C8622 1.386 . S
C8623 C8627 1.393 . S
C8624 H8613 0.950 . S
C8624 C8622 1.391 . S
C8624 C8625 1.400 . S
C8625 C8619 1.491 . S
C8625 C8624 1.400 . S
C8625 C8626 1.398 . S
C8626 H8614 0.950 . S
C8626 C8625 1.398 . S
C8626 C8627 1.391 . S
C8627 H8615 0.950 . S
C8627 C8623 1.393 . S
C8627 C8626 1.391 . S
H8628 C8636 0.950 . S
H8629 C8641 0.950 . S
H8630 C8638 0.950 . S
H8631 C8640 0.950 . S
H8632 C8642 0.950 . S
H8633 C8644 0.950 . S
H8634 C8646 0.950 . S
H8635 C8647 0.950 . S
C8636 H8628 0.950 . S
C8636 C8637 1.386 . S
C8636 C8638 1.391 . S
C8637 C8636 1.386 . S
C8637 C8641 1.393 . S
C8638 H8630 0.950 . S
C8638 C8636 1.391 . S
C8638 C8639 1.400 . S
C8639 C8638 1.400 . S
C8639 C8640 1.398 . S
C8639 C8645 1.491 . S
C8640 H8631 0.950 . S
C8640 C8639 1.398 . S
C8640 C8641 1.391 . S
C8641 H8629 0.950 . S
C8641 C8637 1.393 . S
C8641 C8640 1.391 . S
C8642 H8632 0.950 . S
C8642 C8643 1.386 . S
C8642 C8644 1.391 . S
C8643 C8642 1.386 . S
C8643 C8647 1.393 . S
C8644 H8633 0.950 . S
C8644 C8642 1.391 . S
C8644 C8645 1.400 . S
C8645 C8639 1.491 . S
C8645 C8644 1.400 . S
C8645 C8646 1.398 . S
C8646 H8634 0.950 . S
C8646 C8645 1.398 . S
C8646 C8647 1.391 . S
C8647 H8635 0.950 . S
C8647 C8643 1.393 . S
C8647 C8646 1.391 . S
H8648 C8656 0.950 . S
H8649 C8661 0.950 . S
H8650 C8658 0.950 . S
H8651 C8660 0.950 . S
H8652 C8662 0.950 . S
H8653 C8664 0.950 . S
H8654 C8666 0.950 . S
H8655 C8667 0.950 . S
C8656 H8648 0.950 . S
C8656 C8657 1.386 . S
C8656 C8658 1.391 . S
C8657 C8656 1.386 . S
C8657 C8661 1.393 . S
C8658 H8650 0.950 . S
C8658 C8656 1.391 . S
C8658 C8659 1.400 . S
C8659 C8658 1.400 . S
C8659 C8660 1.398 . S
C8659 C8665 1.491 . S
C8660 H8651 0.950 . S
C8660 C8659 1.398 . S
C8660 C8661 1.391 . S
C8661 H8649 0.950 . S
C8661 C8657 1.393 . S
C8661 C8660 1.391 . S
C8662 H8652 0.950 . S
C8662 C8663 1.386 . S
C8662 C8664 1.391 . S
C8663 C8662 1.386 . S
C8663 C8667 1.393 . S
C8664 H8653 0.950 . S
C8664 C8662 1.391 . S
C8664 C8665 1.400 . S
C8665 C8659 1.491 . S
C8665 C8664 1.400 . S
C8665 C8666 1.398 . S
C8666 H8654 0.950 . S
C8666 C8665 1.398 . S
C8666 C8667 1.391 . S
C8667 H8655 0.950 . S
C8667 C8663 1.393 . S
C8667 C8666 1.391 . S
H8668 C8676 0.950 . S
H8669 C8681 0.950 . S
H8670 C8678 0.950 . S
H8671 C8680 0.950 . S
H8672 C8682 0.950 . S
H8673 C8684 0.950 . S
H8674 C8686 0.950 . S
H8675 C8687 0.950 . S
C8676 H8668 0.950 . S
C8676 C8677 1.386 . S
C8676 C8678 1.391 . S
C8677 C8676 1.386 . S
C8677 C8681 1.393 . S
C8678 H8670 0.950 . S
C8678 C8676 1.391 . S
C8678 C8679 1.400 . S
C8679 C8678 1.400 . S
C8679 C8680 1.398 . S
C8679 C8685 1.491 . S
C8680 H8671 0.950 . S
C8680 C8679 1.398 . S
C8680 C8681 1.391 . S
C8681 H8669 0.950 . S
C8681 C8677 1.393 . S
C8681 C8680 1.391 . S
C8682 H8672 0.950 . S
C8682 C8683 1.386 . S
C8682 C8684 1.391 . S
C8683 C8682 1.386 . S
C8683 C8687 1.393 . S
C8684 H8673 0.950 . S
C8684 C8682 1.391 . S
C8684 C8685 1.400 . S
C8685 C8679 1.491 . S
C8685 C8684 1.400 . S
C8685 C8686 1.398 . S
C8686 H8674 0.950 . S
C8686 C8685 1.398 . S
C8686 C8687 1.391 . S
C8687 H8675 0.950 . S
C8687 C8683 1.393 . S
C8687 C8686 1.391 . S
H8688 C8696 0.950 . S
H8689 C8701 0.950 . S
H8690 C8698 0.950 . S
H8691 C8700 0.950 . S
H8692 C8702 0.950 . S
H8693 C8704 0.950 . S
H8694 C8706 0.950 . S
H8695 C8707 0.950 . S
C8696 H8688 0.950 . S
C8696 C8697 1.386 . S
C8696 C8698 1.391 . S
C8697 C8696 1.386 . S
C8697 C8701 1.393 . S
C8698 H8690 0.950 . S
C8698 C8696 1.391 . S
C8698 C8699 1.400 . S
C8699 C8698 1.400 . S
C8699 C8700 1.398 . S
C8699 C8705 1.491 . S
C8700 H8691 0.950 . S
C8700 C8699 1.398 . S
C8700 C8701 1.391 . S
C8701 H8689 0.950 . S
C8701 C8697 1.393 . S
C8701 C8700 1.391 . S
C8702 H8692 0.950 . S
C8702 C8703 1.386 . S
C8702 C8704 1.391 . S
C8703 C8702 1.386 . S
C8703 C8707 1.393 . S
C8704 H8693 0.950 . S
C8704 C8702 1.391 . S
C8704 C8705 1.400 . S
C8705 C8699 1.491 . S
C8705 C8704 1.400 . S
C8705 C8706 1.398 . S
C8706 H8694 0.950 . S
C8706 C8705 1.398 . S
C8706 C8707 1.391 . S
C8707 H8695 0.950 . S
C8707 C8703 1.393 . S
C8707 C8706 1.391 . S
H8708 C8716 0.950 . S
H8709 C8721 0.950 . S
H8710 C8718 0.950 . S
H8711 C8720 0.950 . S
H8712 C8722 0.950 . S
H8713 C8724 0.950 . S
H8714 C8726 0.950 . S
H8715 C8727 0.950 . S
C8716 H8708 0.950 . S
C8716 C8717 1.386 . S
C8716 C8718 1.391 . S
C8717 C8716 1.386 . S
C8717 C8721 1.393 . S
C8718 H8710 0.950 . S
C8718 C8716 1.391 . S
C8718 C8719 1.400 . S
C8719 C8718 1.400 . S
C8719 C8720 1.398 . S
C8719 C8725 1.491 . S
C8720 H8711 0.950 . S
C8720 C8719 1.398 . S
C8720 C8721 1.391 . S
C8721 H8709 0.950 . S
C8721 C8717 1.393 . S
C8721 C8720 1.391 . S
C8722 H8712 0.950 . S
C8722 C8723 1.386 . S
C8722 C8724 1.391 . S
C8723 C8722 1.386 . S
C8723 C8727 1.393 . S
C8724 H8713 0.950 . S
C8724 C8722 1.391 . S
C8724 C8725 1.400 . S
C8725 C8719 1.491 . S
C8725 C8724 1.400 . S
C8725 C8726 1.398 . S
C8726 H8714 0.950 . S
C8726 C8725 1.398 . S
C8726 C8727 1.391 . S
C8727 H8715 0.950 . S
C8727 C8723 1.393 . S
C8727 C8726 1.391 . S
H8728 C8736 0.950 . S
H8729 C8741 0.950 . S
H8730 C8738 0.950 . S
H8731 C8740 0.950 . S
H8732 C8742 0.950 . S
H8733 C8744 0.950 . S
H8734 C8746 0.950 . S
H8735 C8747 0.950 . S
C8736 H8728 0.950 . S
C8736 C8737 1.386 . S
C8736 C8738 1.391 . S
C8737 C8736 1.386 . S
C8737 C8741 1.393 . S
C8738 H8730 0.950 . S
C8738 C8736 1.391 . S
C8738 C8739 1.400 . S
C8739 C8738 1.400 . S
C8739 C8740 1.398 . S
C8739 C8745 1.491 . S
C8740 H8731 0.950 . S
C8740 C8739 1.398 . S
C8740 C8741 1.391 . S
C8741 H8729 0.950 . S
C8741 C8737 1.393 . S
C8741 C8740 1.391 . S
C8742 H8732 0.950 . S
C8742 C8743 1.386 . S
C8742 C8744 1.391 . S
C8743 C8742 1.386 . S
C8743 C8747 1.393 . S
C8744 H8733 0.950 . S
C8744 C8742 1.391 . S
C8744 C8745 1.400 . S
C8745 C8739 1.491 . S
C8745 C8744 1.400 . S
C8745 C8746 1.398 . S
C8746 H8734 0.950 . S
C8746 C8745 1.398 . S
C8746 C8747 1.391 . S
C8747 H8735 0.950 . S
C8747 C8743 1.393 . S
C8747 C8746 1.391 . S
H8748 C8756 0.950 . S
H8749 C8761 0.950 . S
H8750 C8758 0.950 . S
H8751 C8760 0.950 . S
H8752 C8762 0.950 . S
H8753 C8764 0.950 . S
H8754 C8766 0.950 . S
H8755 C8767 0.950 . S
C8756 H8748 0.950 . S
C8756 C8757 1.386 . S
C8756 C8758 1.391 . S
C8757 C8756 1.386 . S
C8757 C8761 1.393 . S
C8758 H8750 0.950 . S
C8758 C8756 1.391 . S
C8758 C8759 1.400 . S
C8759 C8758 1.400 . S
C8759 C8760 1.398 . S
C8759 C8765 1.491 . S
C8760 H8751 0.950 . S
C8760 C8759 1.398 . S
C8760 C8761 1.391 . S
C8761 H8749 0.950 . S
C8761 C8757 1.393 . S
C8761 C8760 1.391 . S
C8762 H8752 0.950 . S
C8762 C8763 1.386 . S
C8762 C8764 1.391 . S
C8763 C8762 1.386 . S
C8763 C8767 1.393 . S
C8764 H8753 0.950 . S
C8764 C8762 1.391 . S
C8764 C8765 1.400 . S
C8765 C8759 1.491 . S
C8765 C8764 1.400 . S
C8765 C8766 1.398 . S
C8766 H8754 0.950 . S
C8766 C8765 1.398 . S
C8766 C8767 1.391 . S
C8767 H8755 0.950 . S
C8767 C8763 1.393 . S
C8767 C8766 1.391 . S
H8768 C8776 0.950 . S
H8769 C8781 0.950 . S
H8770 C8778 0.950 . S
H8771 C8780 0.950 . S
H8772 C8782 0.950 . S
H8773 C8784 0.950 . S
H8774 C8786 0.950 . S
H8775 C8787 0.950 . S
C8776 H8768 0.950 . S
C8776 C8777 1.386 . S
C8776 C8778 1.391 . S
C8777 C8776 1.386 . S
C8777 C8781 1.393 . S
C8778 H8770 0.950 . S
C8778 C8776 1.391 . S
C8778 C8779 1.400 . S
C8779 C8778 1.400 . S
C8779 C8780 1.398 . S
C8779 C8785 1.491 . S
C8780 H8771 0.950 . S
C8780 C8779 1.398 . S
C8780 C8781 1.391 . S
C8781 H8769 0.950 . S
C8781 C8777 1.393 . S
C8781 C8780 1.391 . S
C8782 H8772 0.950 . S
C8782 C8783 1.386 . S
C8782 C8784 1.391 . S
C8783 C8782 1.386 . S
C8783 C8787 1.393 . S
C8784 H8773 0.950 . S
C8784 C8782 1.391 . S
C8784 C8785 1.400 . S
C8785 C8779 1.491 . S
C8785 C8784 1.400 . S
C8785 C8786 1.398 . S
C8786 H8774 0.950 . S
C8786 C8785 1.398 . S
C8786 C8787 1.391 . S
C8787 H8775 0.950 . S
C8787 C8783 1.393 . S
C8787 C8786 1.391 . S
H8788 C8796 0.950 . S
H8789 C8801 0.950 . S
H8790 C8798 0.950 . S
H8791 C8800 0.950 . S
H8792 C8802 0.950 . S
H8793 C8804 0.950 . S
H8794 C8806 0.950 . S
H8795 C8807 0.950 . S
C8796 H8788 0.950 . S
C8796 C8797 1.386 . S
C8796 C8798 1.391 . S
C8797 C8796 1.386 . S
C8797 C8801 1.393 . S
C8798 H8790 0.950 . S
C8798 C8796 1.391 . S
C8798 C8799 1.400 . S
C8799 C8798 1.400 . S
C8799 C8800 1.398 . S
C8799 C8805 1.491 . S
C8800 H8791 0.950 . S
C8800 C8799 1.398 . S
C8800 C8801 1.391 . S
C8801 H8789 0.950 . S
C8801 C8797 1.393 . S
C8801 C8800 1.391 . S
C8802 H8792 0.950 . S
C8802 C8803 1.386 . S
C8802 C8804 1.391 . S
C8803 C8802 1.386 . S
C8803 C8807 1.393 . S
C8804 H8793 0.950 . S
C8804 C8802 1.391 . S
C8804 C8805 1.400 . S
C8805 C8799 1.491 . S
C8805 C8804 1.400 . S
C8805 C8806 1.398 . S
C8806 H8794 0.950 . S
C8806 C8805 1.398 . S
C8806 C8807 1.391 . S
C8807 H8795 0.950 . S
C8807 C8803 1.393 . S
C8807 C8806 1.391 . S
H8808 C8816 0.950 . S
H8809 C8821 0.950 . S
H8810 C8818 0.950 . S
H8811 C8820 0.950 . S
H8812 C8822 0.950 . S
H8813 C8824 0.950 . S
H8814 C8826 0.950 . S
H8815 C8827 0.950 . S
C8816 H8808 0.950 . S
C8816 C8817 1.386 . S
C8816 C8818 1.391 . S
C8817 C8816 1.386 . S
C8817 C8821 1.393 . S
C8818 H8810 0.950 . S
C8818 C8816 1.391 . S
C8818 C8819 1.400 . S
C8819 C8818 1.400 . S
C8819 C8820 1.398 . S
C8819 C8825 1.491 . S
C8820 H8811 0.950 . S
C8820 C8819 1.398 . S
C8820 C8821 1.391 . S
C8821 H8809 0.950 . S
C8821 C8817 1.393 . S
C8821 C8820 1.391 . S
C8822 H8812 0.950 . S
C8822 C8823 1.386 . S
C8822 C8824 1.391 . S
C8823 C8822 1.386 . S
C8823 C8827 1.393 . S
C8824 H8813 0.950 . S
C8824 C8822 1.391 . S
C8824 C8825 1.400 . S
C8825 C8819 1.491 . S
C8825 C8824 1.400 . S
C8825 C8826 1.398 . S
C8826 H8814 0.950 . S
C8826 C8825 1.398 . S
C8826 C8827 1.391 . S
C8827 H8815 0.950 . S
C8827 C8823 1.393 . S
C8827 C8826 1.391 . S
H8828 C8836 0.950 . S
H8829 C8841 0.950 . S
H8830 C8838 0.950 . S
H8831 C8840 0.950 . S
H8832 C8842 0.950 . S
H8833 C8844 0.950 . S
H8834 C8846 0.950 . S
H8835 C8847 0.950 . S
C8836 H8828 0.950 . S
C8836 C8837 1.386 . S
C8836 C8838 1.391 . S
C8837 C8836 1.386 . S
C8837 C8841 1.393 . S
C8838 H8830 0.950 . S
C8838 C8836 1.391 . S
C8838 C8839 1.400 . S
C8839 C8838 1.400 . S
C8839 C8840 1.398 . S
C8839 C8845 1.491 . S
C8840 H8831 0.950 . S
C8840 C8839 1.398 . S
C8840 C8841 1.391 . S
C8841 H8829 0.950 . S
C8841 C8837 1.393 . S
C8841 C8840 1.391 . S
C8842 H8832 0.950 . S
C8842 C8843 1.386 . S
C8842 C8844 1.391 . S
C8843 C8842 1.386 . S
C8843 C8847 1.393 . S
C8844 H8833 0.950 . S
C8844 C8842 1.391 . S
C8844 C8845 1.400 . S
C8845 C8839 1.491 . S
C8845 C8844 1.400 . S
C8845 C8846 1.398 . S
C8846 H8834 0.950 . S
C8846 C8845 1.398 . S
C8846 C8847 1.391 . S
C8847 H8835 0.950 . S
C8847 C8843 1.393 . S
C8847 C8846 1.391 . S
H8848 C8856 0.950 . S
H8849 C8861 0.950 . S
H8850 C8858 0.950 . S
H8851 C8860 0.950 . S
H8852 C8862 0.950 . S
H8853 C8864 0.950 . S
H8854 C8866 0.950 . S
H8855 C8867 0.950 . S
C8856 H8848 0.950 . S
C8856 C8857 1.386 . S
C8856 C8858 1.391 . S
C8857 C8856 1.386 . S
C8857 C8861 1.393 . S
C8858 H8850 0.950 . S
C8858 C8856 1.391 . S
C8858 C8859 1.400 . S
C8859 C8858 1.400 . S
C8859 C8860 1.398 . S
C8859 C8865 1.491 . S
C8860 H8851 0.950 . S
C8860 C8859 1.398 . S
C8860 C8861 1.391 . S
C8861 H8849 0.950 . S
C8861 C8857 1.393 . S
C8861 C8860 1.391 . S
C8862 H8852 0.950 . S
C8862 C8863 1.386 . S
C8862 C8864 1.391 . S
C8863 C8862 1.386 . S
C8863 C8867 1.393 . S
C8864 H8853 0.950 . S
C8864 C8862 1.391 . S
C8864 C8865 1.400 . S
C8865 C8859 1.491 . S
C8865 C8864 1.400 . S
C8865 C8866 1.398 . S
C8866 H8854 0.950 . S
C8866 C8865 1.398 . S
C8866 C8867 1.391 . S
C8867 H8855 0.950 . S
C8867 C8863 1.393 . S
C8867 C8866 1.391 . S
H8868 C8876 0.950 . S
H8869 C8881 0.950 . S
H8870 C8878 0.950 . S
H8871 C8880 0.950 . S
H8872 C8882 0.950 . S
H8873 C8884 0.950 . S
H8874 C8886 0.950 . S
H8875 C8887 0.950 . S
C8876 H8868 0.950 . S
C8876 C8877 1.386 . S
C8876 C8878 1.391 . S
C8877 C8876 1.386 . S
C8877 C8881 1.393 . S
C8878 H8870 0.950 . S
C8878 C8876 1.391 . S
C8878 C8879 1.400 . S
C8879 C8878 1.400 . S
C8879 C8880 1.398 . S
C8879 C8885 1.491 . S
C8880 H8871 0.950 . S
C8880 C8879 1.398 . S
C8880 C8881 1.391 . S
C8881 H8869 0.950 . S
C8881 C8877 1.393 . S
C8881 C8880 1.391 . S
C8882 H8872 0.950 . S
C8882 C8883 1.386 . S
C8882 C8884 1.391 . S
C8883 C8882 1.386 . S
C8883 C8887 1.393 . S
C8884 H8873 0.950 . S
C8884 C8882 1.391 . S
C8884 C8885 1.400 . S
C8885 C8879 1.491 . S
C8885 C8884 1.400 . S
C8885 C8886 1.398 . S
C8886 H8874 0.950 . S
C8886 C8885 1.398 . S
C8886 C8887 1.391 . S
C8887 H8875 0.950 . S
C8887 C8883 1.393 . S
C8887 C8886 1.391 . S
H8888 C8896 0.950 . S
H8889 C8901 0.950 . S
H8890 C8898 0.950 . S
H8891 C8900 0.950 . S
H8892 C8902 0.950 . S
H8893 C8904 0.950 . S
H8894 C8906 0.950 . S
H8895 C8907 0.950 . S
C8896 H8888 0.950 . S
C8896 C8897 1.386 . S
C8896 C8898 1.391 . S
C8897 C8896 1.386 . S
C8897 C8901 1.393 . S
C8898 H8890 0.950 . S
C8898 C8896 1.391 . S
C8898 C8899 1.400 . S
C8899 C8898 1.400 . S
C8899 C8900 1.398 . S
C8899 C8905 1.491 . S
C8900 H8891 0.950 . S
C8900 C8899 1.398 . S
C8900 C8901 1.391 . S
C8901 H8889 0.950 . S
C8901 C8897 1.393 . S
C8901 C8900 1.391 . S
C8902 H8892 0.950 . S
C8902 C8903 1.386 . S
C8902 C8904 1.391 . S
C8903 C8902 1.386 . S
C8903 C8907 1.393 . S
C8904 H8893 0.950 . S
C8904 C8902 1.391 . S
C8904 C8905 1.400 . S
C8905 C8899 1.491 . S
C8905 C8904 1.400 . S
C8905 C8906 1.398 . S
C8906 H8894 0.950 . S
C8906 C8905 1.398 . S
C8906 C8907 1.391 . S
C8907 H8895 0.950 . S
C8907 C8903 1.393 . S
C8907 C8906 1.391 . S
H8908 C8916 0.950 . S
H8909 C8921 0.950 . S
H8910 C8918 0.950 . S
H8911 C8920 0.950 . S
H8912 C8922 0.950 . S
H8913 C8924 0.950 . S
H8914 C8926 0.950 . S
H8915 C8927 0.950 . S
C8916 H8908 0.950 . S
C8916 C8917 1.386 . S
C8916 C8918 1.391 . S
C8917 C8916 1.386 . S
C8917 C8921 1.393 . S
C8918 H8910 0.950 . S
C8918 C8916 1.391 . S
C8918 C8919 1.400 . S
C8919 C8918 1.400 . S
C8919 C8920 1.398 . S
C8919 C8925 1.491 . S
C8920 H8911 0.950 . S
C8920 C8919 1.398 . S
C8920 C8921 1.391 . S
C8921 H8909 0.950 . S
C8921 C8917 1.393 . S
C8921 C8920 1.391 . S
C8922 H8912 0.950 . S
C8922 C8923 1.386 . S
C8922 C8924 1.391 . S
C8923 C8922 1.386 . S
C8923 C8927 1.393 . S
C8924 H8913 0.950 . S
C8924 C8922 1.391 . S
C8924 C8925 1.400 . S
C8925 C8919 1.491 . S
C8925 C8924 1.400 . S
C8925 C8926 1.398 . S
C8926 H8914 0.950 . S
C8926 C8925 1.398 . S
C8926 C8927 1.391 . S
C8927 H8915 0.950 . S
C8927 C8923 1.393 . S
C8927 C8926 1.391 . S
H8928 C8936 0.950 . S
H8929 C8941 0.950 . S
H8930 C8938 0.950 . S
H8931 C8940 0.950 . S
H8932 C8942 0.950 . S
H8933 C8944 0.950 . S
H8934 C8946 0.950 . S
H8935 C8947 0.950 . S
C8936 H8928 0.950 . S
C8936 C8937 1.386 . S
C8936 C8938 1.391 . S
C8937 C8936 1.386 . S
C8937 C8941 1.393 . S
C8938 H8930 0.950 . S
C8938 C8936 1.391 . S
C8938 C8939 1.400 . S
C8939 C8938 1.400 . S
C8939 C8940 1.398 . S
C8939 C8945 1.491 . S
C8940 H8931 0.950 . S
C8940 C8939 1.398 . S
C8940 C8941 1.391 . S
C8941 H8929 0.950 . S
C8941 C8937 1.393 . S
C8941 C8940 1.391 . S
C8942 H8932 0.950 . S
C8942 C8943 1.386 . S
C8942 C8944 1.391 . S
C8943 C8942 1.386 . S
C8943 C8947 1.393 . S
C8944 H8933 0.950 . S
C8944 C8942 1.391 . S
C8944 C8945 1.400 . S
C8945 C8939 1.491 . S
C8945 C8944 1.400 . S
C8945 C8946 1.398 . S
C8946 H8934 0.950 . S
C8946 C8945 1.398 . S
C8946 C8947 1.391 . S
C8947 H8935 0.950 . S
C8947 C8943 1.393 . S
C8947 C8946 1.391 . S
H8948 C8956 0.950 . S
H8949 C8961 0.950 . S
H8950 C8958 0.950 . S
H8951 C8960 0.950 . S
H8952 C8962 0.950 . S
H8953 C8964 0.950 . S
H8954 C8966 0.950 . S
H8955 C8967 0.950 . S
C8956 H8948 0.950 . S
C8956 C8957 1.386 . S
C8956 C8958 1.391 . S
C8957 C8956 1.386 . S
C8957 C8961 1.393 . S
C8958 H8950 0.950 . S
C8958 C8956 1.391 . S
C8958 C8959 1.400 . S
C8959 C8958 1.400 . S
C8959 C8960 1.398 . S
C8959 C8965 1.491 . S
C8960 H8951 0.950 . S
C8960 C8959 1.398 . S
C8960 C8961 1.391 . S
C8961 H8949 0.950 . S
C8961 C8957 1.393 . S
C8961 C8960 1.391 . S
C8962 H8952 0.950 . S
C8962 C8963 1.386 . S
C8962 C8964 1.391 . S
C8963 C8962 1.386 . S
C8963 C8967 1.393 . S
C8964 H8953 0.950 . S
C8964 C8962 1.391 . S
C8964 C8965 1.400 . S
C8965 C8959 1.491 . S
C8965 C8964 1.400 . S
C8965 C8966 1.398 . S
C8966 H8954 0.950 . S
C8966 C8965 1.398 . S
C8966 C8967 1.391 . S
C8967 H8955 0.950 . S
C8967 C8963 1.393 . S
C8967 C8966 1.391 . S
H8968 C8976 0.950 . S
H8969 C8981 0.950 . S
H8970 C8978 0.950 . S
H8971 C8980 0.950 . S
H8972 C8982 0.950 . S
H8973 C8984 0.950 . S
H8974 C8986 0.950 . S
H8975 C8987 0.950 . S
C8976 H8968 0.950 . S
C8976 C8977 1.386 . S
C8976 C8978 1.391 . S
C8977 C8976 1.386 . S
C8977 C8981 1.393 . S
C8978 H8970 0.950 . S
C8978 C8976 1.391 . S
C8978 C8979 1.400 . S
C8979 C8978 1.400 . S
C8979 C8980 1.398 . S
C8979 C8985 1.491 . S
C8980 H8971 0.950 . S
C8980 C8979 1.398 . S
C8980 C8981 1.391 . S
C8981 H8969 0.950 . S
C8981 C8977 1.393 . S
C8981 C8980 1.391 . S
C8982 H8972 0.950 . S
C8982 C8983 1.386 . S
C8982 C8984 1.391 . S
C8983 C8982 1.386 . S
C8983 C8987 1.393 . S
C8984 H8973 0.950 . S
C8984 C8982 1.391 . S
C8984 C8985 1.400 . S
C8985 C8979 1.491 . S
C8985 C8984 1.400 . S
C8985 C8986 1.398 . S
C8986 H8974 0.950 . S
C8986 C8985 1.398 . S
C8986 C8987 1.391 . S
C8987 H8975 0.950 . S
C8987 C8983 1.393 . S
C8987 C8986 1.391 . S
H8988 C8996 0.950 . S
H8989 C9001 0.950 . S
H8990 C8998 0.950 . S
H8991 C9000 0.950 . S
H8992 C9002 0.950 . S
H8993 C9004 0.950 . S
H8994 C9006 0.950 . S
H8995 C9007 0.950 . S
C8996 H8988 0.950 . S
C8996 C8997 1.386 . S
C8996 C8998 1.391 . S
C8997 C8996 1.386 . S
C8997 C9001 1.393 . S
C8998 H8990 0.950 . S
C8998 C8996 1.391 . S
C8998 C8999 1.400 . S
C8999 C8998 1.400 . S
C8999 C9000 1.398 . S
C8999 C9005 1.491 . S
C9000 H8991 0.950 . S
C9000 C8999 1.398 . S
C9000 C9001 1.391 . S
C9001 H8989 0.950 . S
C9001 C8997 1.393 . S
C9001 C9000 1.391 . S
C9002 H8992 0.950 . S
C9002 C9003 1.386 . S
C9002 C9004 1.391 . S
C9003 C9002 1.386 . S
C9003 C9007 1.393 . S
C9004 H8993 0.950 . S
C9004 C9002 1.391 . S
C9004 C9005 1.400 . S
C9005 C8999 1.491 . S
C9005 C9004 1.400 . S
C9005 C9006 1.398 . S
C9006 H8994 0.950 . S
C9006 C9005 1.398 . S
C9006 C9007 1.391 . S
C9007 H8995 0.950 . S
C9007 C9003 1.393 . S
C9007 C9006 1.391 . S
H9008 C9016 0.950 . S
H9009 C9021 0.950 . S
H9010 C9018 0.950 . S
H9011 C9020 0.950 . S
H9012 C9022 0.950 . S
H9013 C9024 0.950 . S
H9014 C9026 0.950 . S
H9015 C9027 0.950 . S
C9016 H9008 0.950 . S
C9016 C9017 1.386 . S
C9016 C9018 1.391 . S
C9017 C9016 1.386 . S
C9017 C9021 1.393 . S
C9018 H9010 0.950 . S
C9018 C9016 1.391 . S
C9018 C9019 1.400 . S
C9019 C9018 1.400 . S
C9019 C9020 1.398 . S
C9019 C9025 1.491 . S
C9020 H9011 0.950 . S
C9020 C9019 1.398 . S
C9020 C9021 1.391 . S
C9021 H9009 0.950 . S
C9021 C9017 1.393 . S
C9021 C9020 1.391 . S
C9022 H9012 0.950 . S
C9022 C9023 1.386 . S
C9022 C9024 1.391 . S
C9023 C9022 1.386 . S
C9023 C9027 1.393 . S
C9024 H9013 0.950 . S
C9024 C9022 1.391 . S
C9024 C9025 1.400 . S
C9025 C9019 1.491 . S
C9025 C9024 1.400 . S
C9025 C9026 1.398 . S
C9026 H9014 0.950 . S
C9026 C9025 1.398 . S
C9026 C9027 1.391 . S
C9027 H9015 0.950 . S
C9027 C9023 1.393 . S
C9027 C9026 1.391 . S
H9028 C9036 0.950 . S
H9029 C9041 0.950 . S
H9030 C9038 0.950 . S
H9031 C9040 0.950 . S
H9032 C9042 0.950 . S
H9033 C9044 0.950 . S
H9034 C9046 0.950 . S
H9035 C9047 0.950 . S
C9036 H9028 0.950 . S
C9036 C9037 1.386 . S
C9036 C9038 1.391 . S
C9037 C9036 1.386 . S
C9037 C9041 1.393 . S
C9038 H9030 0.950 . S
C9038 C9036 1.391 . S
C9038 C9039 1.400 . S
C9039 C9038 1.400 . S
C9039 C9040 1.398 . S
C9039 C9045 1.491 . S
C9040 H9031 0.950 . S
C9040 C9039 1.398 . S
C9040 C9041 1.391 . S
C9041 H9029 0.950 . S
C9041 C9037 1.393 . S
C9041 C9040 1.391 . S
C9042 H9032 0.950 . S
C9042 C9043 1.386 . S
C9042 C9044 1.391 . S
C9043 C9042 1.386 . S
C9043 C9047 1.393 . S
C9044 H9033 0.950 . S
C9044 C9042 1.391 . S
C9044 C9045 1.400 . S
C9045 C9039 1.491 . S
C9045 C9044 1.400 . S
C9045 C9046 1.398 . S
C9046 H9034 0.950 . S
C9046 C9045 1.398 . S
C9046 C9047 1.391 . S
C9047 H9035 0.950 . S
C9047 C9043 1.393 . S
C9047 C9046 1.391 . S
H9048 C9056 0.950 . S
H9049 C9061 0.950 . S
H9050 C9058 0.950 . S
H9051 C9060 0.950 . S
H9052 C9062 0.950 . S
H9053 C9064 0.950 . S
H9054 C9066 0.950 . S
H9055 C9067 0.950 . S
C9056 H9048 0.950 . S
C9056 C9057 1.386 . S
C9056 C9058 1.391 . S
C9057 C9056 1.386 . S
C9057 C9061 1.393 . S
C9058 H9050 0.950 . S
C9058 C9056 1.391 . S
C9058 C9059 1.400 . S
C9059 C9058 1.400 . S
C9059 C9060 1.398 . S
C9059 C9065 1.491 . S
C9060 H9051 0.950 . S
C9060 C9059 1.398 . S
C9060 C9061 1.391 . S
C9061 H9049 0.950 . S
C9061 C9057 1.393 . S
C9061 C9060 1.391 . S
C9062 H9052 0.950 . S
C9062 C9063 1.386 . S
C9062 C9064 1.391 . S
C9063 C9062 1.386 . S
C9063 C9067 1.393 . S
C9064 H9053 0.950 . S
C9064 C9062 1.391 . S
C9064 C9065 1.400 . S
C9065 C9059 1.491 . S
C9065 C9064 1.400 . S
C9065 C9066 1.398 . S
C9066 H9054 0.950 . S
C9066 C9065 1.398 . S
C9066 C9067 1.391 . S
C9067 H9055 0.950 . S
C9067 C9063 1.393 . S
C9067 C9066 1.391 . S
H9068 C9076 0.950 . S
H9069 C9081 0.950 . S
H9070 C9078 0.950 . S
H9071 C9080 0.950 . S
H9072 C9082 0.950 . S
H9073 C9084 0.950 . S
H9074 C9086 0.950 . S
H9075 C9087 0.950 . S
C9076 H9068 0.950 . S
C9076 C9077 1.386 . S
C9076 C9078 1.391 . S
C9077 C9076 1.386 . S
C9077 C9081 1.393 . S
C9078 H9070 0.950 . S
C9078 C9076 1.391 . S
C9078 C9079 1.400 . S
C9079 C9078 1.400 . S
C9079 C9080 1.398 . S
C9079 C9085 1.491 . S
C9080 H9071 0.950 . S
C9080 C9079 1.398 . S
C9080 C9081 1.391 . S
C9081 H9069 0.950 . S
C9081 C9077 1.393 . S
C9081 C9080 1.391 . S
C9082 H9072 0.950 . S
C9082 C9083 1.386 . S
C9082 C9084 1.391 . S
C9083 C9082 1.386 . S
C9083 C9087 1.393 . S
C9084 H9073 0.950 . S
C9084 C9082 1.391 . S
C9084 C9085 1.400 . S
C9085 C9079 1.491 . S
C9085 C9084 1.400 . S
C9085 C9086 1.398 . S
C9086 H9074 0.950 . S
C9086 C9085 1.398 . S
C9086 C9087 1.391 . S
C9087 H9075 0.950 . S
C9087 C9083 1.393 . S
C9087 C9086 1.391 . S
H9088 C9096 0.950 . S
H9089 C9101 0.950 . S
H9090 C9098 0.950 . S
H9091 C9100 0.950 . S
H9092 C9102 0.950 . S
H9093 C9104 0.950 . S
H9094 C9106 0.950 . S
H9095 C9107 0.950 . S
C9096 H9088 0.950 . S
C9096 C9097 1.386 . S
C9096 C9098 1.391 . S
C9097 C9096 1.386 . S
C9097 C9101 1.393 . S
C9098 H9090 0.950 . S
C9098 C9096 1.391 . S
C9098 C9099 1.400 . S
C9099 C9098 1.400 . S
C9099 C9100 1.398 . S
C9099 C9105 1.491 . S
C9100 H9091 0.950 . S
C9100 C9099 1.398 . S
C9100 C9101 1.391 . S
C9101 H9089 0.950 . S
C9101 C9097 1.393 . S
C9101 C9100 1.391 . S
C9102 H9092 0.950 . S
C9102 C9103 1.386 . S
C9102 C9104 1.391 . S
C9103 C9102 1.386 . S
C9103 C9107 1.393 . S
C9104 H9093 0.950 . S
C9104 C9102 1.391 . S
C9104 C9105 1.400 . S
C9105 C9099 1.491 . S
C9105 C9104 1.400 . S
C9105 C9106 1.398 . S
C9106 H9094 0.950 . S
C9106 C9105 1.398 . S
C9106 C9107 1.391 . S
C9107 H9095 0.950 . S
C9107 C9103 1.393 . S
C9107 C9106 1.391 . S
H9108 C9116 0.950 . S
H9109 C9121 0.950 . S
H9110 C9118 0.950 . S
H9111 C9120 0.950 . S
H9112 C9122 0.950 . S
H9113 C9124 0.950 . S
H9114 C9126 0.950 . S
H9115 C9127 0.950 . S
C9116 H9108 0.950 . S
C9116 C9117 1.386 . S
C9116 C9118 1.391 . S
C9117 C9116 1.386 . S
C9117 C9121 1.393 . S
C9118 H9110 0.950 . S
C9118 C9116 1.391 . S
C9118 C9119 1.400 . S
C9119 C9118 1.400 . S
C9119 C9120 1.398 . S
C9119 C9125 1.491 . S
C9120 H9111 0.950 . S
C9120 C9119 1.398 . S
C9120 C9121 1.391 . S
C9121 H9109 0.950 . S
C9121 C9117 1.393 . S
C9121 C9120 1.391 . S
C9122 H9112 0.950 . S
C9122 C9123 1.386 . S
C9122 C9124 1.391 . S
C9123 C9122 1.386 . S
C9123 C9127 1.393 . S
C9124 H9113 0.950 . S
C9124 C9122 1.391 . S
C9124 C9125 1.400 . S
C9125 C9119 1.491 . S
C9125 C9124 1.400 . S
C9125 C9126 1.398 . S
C9126 H9114 0.950 . S
C9126 C9125 1.398 . S
C9126 C9127 1.391 . S
C9127 H9115 0.950 . S
C9127 C9123 1.393 . S
C9127 C9126 1.391 . S
H9128 C9136 0.950 . S
H9129 C9141 0.950 . S
H9130 C9138 0.950 . S
H9131 C9140 0.950 . S
H9132 C9142 0.950 . S
H9133 C9144 0.950 . S
H9134 C9146 0.950 . S
H9135 C9147 0.950 . S
C9136 H9128 0.950 . S
C9136 C9137 1.386 . S
C9136 C9138 1.391 . S
C9137 C9136 1.386 . S
C9137 C9141 1.393 . S
C9138 H9130 0.950 . S
C9138 C9136 1.391 . S
C9138 C9139 1.400 . S
C9139 C9138 1.400 . S
C9139 C9140 1.398 . S
C9139 C9145 1.491 . S
C9140 H9131 0.950 . S
C9140 C9139 1.398 . S
C9140 C9141 1.391 . S
C9141 H9129 0.950 . S
C9141 C9137 1.393 . S
C9141 C9140 1.391 . S
C9142 H9132 0.950 . S
C9142 C9143 1.386 . S
C9142 C9144 1.391 . S
C9143 C9142 1.386 . S
C9143 C9147 1.393 . S
C9144 H9133 0.950 . S
C9144 C9142 1.391 . S
C9144 C9145 1.400 . S
C9145 C9139 1.491 . S
C9145 C9144 1.400 . S
C9145 C9146 1.398 . S
C9146 H9134 0.950 . S
C9146 C9145 1.398 . S
C9146 C9147 1.391 . S
C9147 H9135 0.950 . S
C9147 C9143 1.393 . S
C9147 C9146 1.391 . S
H9148 C9156 0.950 . S
H9149 C9161 0.950 . S
H9150 C9158 0.950 . S
H9151 C9160 0.950 . S
H9152 C9162 0.950 . S
H9153 C9164 0.950 . S
H9154 C9166 0.950 . S
H9155 C9167 0.950 . S
C9156 H9148 0.950 . S
C9156 C9157 1.386 . S
C9156 C9158 1.391 . S
C9157 C9156 1.386 . S
C9157 C9161 1.393 . S
C9158 H9150 0.950 . S
C9158 C9156 1.391 . S
C9158 C9159 1.400 . S
C9159 C9158 1.400 . S
C9159 C9160 1.398 . S
C9159 C9165 1.491 . S
C9160 H9151 0.950 . S
C9160 C9159 1.398 . S
C9160 C9161 1.391 . S
C9161 H9149 0.950 . S
C9161 C9157 1.393 . S
C9161 C9160 1.391 . S
C9162 H9152 0.950 . S
C9162 C9163 1.386 . S
C9162 C9164 1.391 . S
C9163 C9162 1.386 . S
C9163 C9167 1.393 . S
C9164 H9153 0.950 . S
C9164 C9162 1.391 . S
C9164 C9165 1.400 . S
C9165 C9159 1.491 . S
C9165 C9164 1.400 . S
C9165 C9166 1.398 . S
C9166 H9154 0.950 . S
C9166 C9165 1.398 . S
C9166 C9167 1.391 . S
C9167 H9155 0.950 . S
C9167 C9163 1.393 . S
C9167 C9166 1.391 . S
H9168 C9176 0.950 . S
H9169 C9181 0.950 . S
H9170 C9178 0.950 . S
H9171 C9180 0.950 . S
H9172 C9182 0.950 . S
H9173 C9184 0.950 . S
H9174 C9186 0.950 . S
H9175 C9187 0.950 . S
C9176 H9168 0.950 . S
C9176 C9177 1.386 . S
C9176 C9178 1.391 . S
C9177 C9176 1.386 . S
C9177 C9181 1.393 . S
C9178 H9170 0.950 . S
C9178 C9176 1.391 . S
C9178 C9179 1.400 . S
C9179 C9178 1.400 . S
C9179 C9180 1.398 . S
C9179 C9185 1.491 . S
C9180 H9171 0.950 . S
C9180 C9179 1.398 . S
C9180 C9181 1.391 . S
C9181 H9169 0.950 . S
C9181 C9177 1.393 . S
C9181 C9180 1.391 . S
C9182 H9172 0.950 . S
C9182 C9183 1.386 . S
C9182 C9184 1.391 . S
C9183 C9182 1.386 . S
C9183 C9187 1.393 . S
C9184 H9173 0.950 . S
C9184 C9182 1.391 . S
C9184 C9185 1.400 . S
C9185 C9179 1.491 . S
C9185 C9184 1.400 . S
C9185 C9186 1.398 . S
C9186 H9174 0.950 . S
C9186 C9185 1.398 . S
C9186 C9187 1.391 . S
C9187 H9175 0.950 . S
C9187 C9183 1.393 . S
C9187 C9186 1.391 . S
H9188 C9196 0.950 . S
H9189 C9201 0.950 . S
H9190 C9198 0.950 . S
H9191 C9200 0.950 . S
H9192 C9202 0.950 . S
H9193 C9204 0.950 . S
H9194 C9206 0.950 . S
H9195 C9207 0.950 . S
C9196 H9188 0.950 . S
C9196 C9197 1.386 . S
C9196 C9198 1.391 . S
C9197 C9196 1.386 . S
C9197 C9201 1.393 . S
C9198 H9190 0.950 . S
C9198 C9196 1.391 . S
C9198 C9199 1.400 . S
C9199 C9198 1.400 . S
C9199 C9200 1.398 . S
C9199 C9205 1.491 . S
C9200 H9191 0.950 . S
C9200 C9199 1.398 . S
C9200 C9201 1.391 . S
C9201 H9189 0.950 . S
C9201 C9197 1.393 . S
C9201 C9200 1.391 . S
C9202 H9192 0.950 . S
C9202 C9203 1.386 . S
C9202 C9204 1.391 . S
C9203 C9202 1.386 . S
C9203 C9207 1.393 . S
C9204 H9193 0.950 . S
C9204 C9202 1.391 . S
C9204 C9205 1.400 . S
C9205 C9199 1.491 . S
C9205 C9204 1.400 . S
C9205 C9206 1.398 . S
C9206 H9194 0.950 . S
C9206 C9205 1.398 . S
C9206 C9207 1.391 . S
C9207 H9195 0.950 . S
C9207 C9203 1.393 . S
C9207 C9206 1.391 . S
H9208 C9216 0.950 . S
H9209 C9221 0.950 . S
H9210 C9218 0.950 . S
H9211 C9220 0.950 . S
H9212 C9222 0.950 . S
H9213 C9224 0.950 . S
H9214 C9226 0.950 . S
H9215 C9227 0.950 . S
C9216 H9208 0.950 . S
C9216 C9217 1.386 . S
C9216 C9218 1.391 . S
C9217 C9216 1.386 . S
C9217 C9221 1.393 . S
C9218 H9210 0.950 . S
C9218 C9216 1.391 . S
C9218 C9219 1.400 . S
C9219 C9218 1.400 . S
C9219 C9220 1.398 . S
C9219 C9225 1.491 . S
C9220 H9211 0.950 . S
C9220 C9219 1.398 . S
C9220 C9221 1.391 . S
C9221 H9209 0.950 . S
C9221 C9217 1.393 . S
C9221 C9220 1.391 . S
C9222 H9212 0.950 . S
C9222 C9223 1.386 . S
C9222 C9224 1.391 . S
C9223 C9222 1.386 . S
C9223 C9227 1.393 . S
C9224 H9213 0.950 . S
C9224 C9222 1.391 . S
C9224 C9225 1.400 . S
C9225 C9219 1.491 . S
C9225 C9224 1.400 . S
C9225 C9226 1.398 . S
C9226 H9214 0.950 . S
C9226 C9225 1.398 . S
C9226 C9227 1.391 . S
C9227 H9215 0.950 . S
C9227 C9223 1.393 . S
C9227 C9226 1.391 . S
H9228 C9236 0.950 . S
H9229 C9241 0.950 . S
H9230 C9238 0.950 . S
H9231 C9240 0.950 . S
H9232 C9242 0.950 . S
H9233 C9244 0.950 . S
H9234 C9246 0.950 . S
H9235 C9247 0.950 . S
C9236 H9228 0.950 . S
C9236 C9237 1.386 . S
C9236 C9238 1.391 . S
C9237 C9236 1.386 . S
C9237 C9241 1.393 . S
C9238 H9230 0.950 . S
C9238 C9236 1.391 . S
C9238 C9239 1.400 . S
C9239 C9238 1.400 . S
C9239 C9240 1.398 . S
C9239 C9245 1.491 . S
C9240 H9231 0.950 . S
C9240 C9239 1.398 . S
C9240 C9241 1.391 . S
C9241 H9229 0.950 . S
C9241 C9237 1.393 . S
C9241 C9240 1.391 . S
C9242 H9232 0.950 . S
C9242 C9243 1.386 . S
C9242 C9244 1.391 . S
C9243 C9242 1.386 . S
C9243 C9247 1.393 . S
C9244 H9233 0.950 . S
C9244 C9242 1.391 . S
C9244 C9245 1.400 . S
C9245 C9239 1.491 . S
C9245 C9244 1.400 . S
C9245 C9246 1.398 . S
C9246 H9234 0.950 . S
C9246 C9245 1.398 . S
C9246 C9247 1.391 . S
C9247 H9235 0.950 . S
C9247 C9243 1.393 . S
C9247 C9246 1.391 . S
H9248 C9256 0.950 . S
H9249 C9261 0.950 . S
H9250 C9258 0.950 . S
H9251 C9260 0.950 . S
H9252 C9262 0.950 . S
H9253 C9264 0.950 . S
H9254 C9266 0.950 . S
H9255 C9267 0.950 . S
C9256 H9248 0.950 . S
C9256 C9257 1.386 . S
C9256 C9258 1.391 . S
C9257 C9256 1.386 . S
C9257 C9261 1.393 . S
C9258 H9250 0.950 . S
C9258 C9256 1.391 . S
C9258 C9259 1.400 . S
C9259 C9258 1.400 . S
C9259 C9260 1.398 . S
C9259 C9265 1.491 . S
C9260 H9251 0.950 . S
C9260 C9259 1.398 . S
C9260 C9261 1.391 . S
C9261 H9249 0.950 . S
C9261 C9257 1.393 . S
C9261 C9260 1.391 . S
C9262 H9252 0.950 . S
C9262 C9263 1.386 . S
C9262 C9264 1.391 . S
C9263 C9262 1.386 . S
C9263 C9267 1.393 . S
C9264 H9253 0.950 . S
C9264 C9262 1.391 . S
C9264 C9265 1.400 . S
C9265 C9259 1.491 . S
C9265 C9264 1.400 . S
C9265 C9266 1.398 . S
C9266 H9254 0.950 . S
C9266 C9265 1.398 . S
C9266 C9267 1.391 . S
C9267 H9255 0.950 . S
C9267 C9263 1.393 . S
C9267 C9266 1.391 . S
H9268 C9276 0.950 . S
H9269 C9281 0.950 . S
H9270 C9278 0.950 . S
H9271 C9280 0.950 . S
H9272 C9282 0.950 . S
H9273 C9284 0.950 . S
H9274 C9286 0.950 . S
H9275 C9287 0.950 . S
C9276 H9268 0.950 . S
C9276 C9277 1.386 . S
C9276 C9278 1.391 . S
C9277 C9276 1.386 . S
C9277 C9281 1.393 . S
C9278 H9270 0.950 . S
C9278 C9276 1.391 . S
C9278 C9279 1.400 . S
C9279 C9278 1.400 . S
C9279 C9280 1.398 . S
C9279 C9285 1.491 . S
C9280 H9271 0.950 . S
C9280 C9279 1.398 . S
C9280 C9281 1.391 . S
C9281 H9269 0.950 . S
C9281 C9277 1.393 . S
C9281 C9280 1.391 . S
C9282 H9272 0.950 . S
C9282 C9283 1.386 . S
C9282 C9284 1.391 . S
C9283 C9282 1.386 . S
C9283 C9287 1.393 . S
C9284 H9273 0.950 . S
C9284 C9282 1.391 . S
C9284 C9285 1.400 . S
C9285 C9279 1.491 . S
C9285 C9284 1.400 . S
C9285 C9286 1.398 . S
C9286 H9274 0.950 . S
C9286 C9285 1.398 . S
C9286 C9287 1.391 . S
C9287 H9275 0.950 . S
C9287 C9283 1.393 . S
C9287 C9286 1.391 . S
H9288 C9296 0.950 . S
H9289 C9301 0.950 . S
H9290 C9298 0.950 . S
H9291 C9300 0.950 . S
H9292 C9302 0.950 . S
H9293 C9304 0.950 . S
H9294 C9306 0.950 . S
H9295 C9307 0.950 . S
C9296 H9288 0.950 . S
C9296 C9297 1.386 . S
C9296 C9298 1.391 . S
C9297 C9296 1.386 . S
C9297 C9301 1.393 . S
C9298 H9290 0.950 . S
C9298 C9296 1.391 . S
C9298 C9299 1.400 . S
C9299 C9298 1.400 . S
C9299 C9300 1.398 . S
C9299 C9305 1.491 . S
C9300 H9291 0.950 . S
C9300 C9299 1.398 . S
C9300 C9301 1.391 . S
C9301 H9289 0.950 . S
C9301 C9297 1.393 . S
C9301 C9300 1.391 . S
C9302 H9292 0.950 . S
C9302 C9303 1.386 . S
C9302 C9304 1.391 . S
C9303 C9302 1.386 . S
C9303 C9307 1.393 . S
C9304 H9293 0.950 . S
C9304 C9302 1.391 . S
C9304 C9305 1.400 . S
C9305 C9299 1.491 . S
C9305 C9304 1.400 . S
C9305 C9306 1.398 . S
C9306 H9294 0.950 . S
C9306 C9305 1.398 . S
C9306 C9307 1.391 . S
C9307 H9295 0.950 . S
C9307 C9303 1.393 . S
C9307 C9306 1.391 . S
H9308 C9316 0.950 . S
H9309 C9321 0.950 . S
H9310 C9318 0.950 . S
H9311 C9320 0.950 . S
H9312 C9322 0.950 . S
H9313 C9324 0.950 . S
H9314 C9326 0.950 . S
H9315 C9327 0.950 . S
C9316 H9308 0.950 . S
C9316 C9317 1.386 . S
C9316 C9318 1.391 . S
C9317 C9316 1.386 . S
C9317 C9321 1.393 . S
C9318 H9310 0.950 . S
C9318 C9316 1.391 . S
C9318 C9319 1.400 . S
C9319 C9318 1.400 . S
C9319 C9320 1.398 . S
C9319 C9325 1.491 . S
C9320 H9311 0.950 . S
C9320 C9319 1.398 . S
C9320 C9321 1.391 . S
C9321 H9309 0.950 . S
C9321 C9317 1.393 . S
C9321 C9320 1.391 . S
C9322 H9312 0.950 . S
C9322 C9323 1.386 . S
C9322 C9324 1.391 . S
C9323 C9322 1.386 . S
C9323 C9327 1.393 . S
C9324 H9313 0.950 . S
C9324 C9322 1.391 . S
C9324 C9325 1.400 . S
C9325 C9319 1.491 . S
C9325 C9324 1.400 . S
C9325 C9326 1.398 . S
C9326 H9314 0.950 . S
C9326 C9325 1.398 . S
C9326 C9327 1.391 . S
C9327 H9315 0.950 . S
C9327 C9323 1.393 . S
C9327 C9326 1.391 . S
H9328 C9336 0.950 . S
H9329 C9341 0.950 . S
H9330 C9338 0.950 . S
H9331 C9340 0.950 . S
H9332 C9342 0.950 . S
H9333 C9344 0.950 . S
H9334 C9346 0.950 . S
H9335 C9347 0.950 . S
C9336 H9328 0.950 . S
C9336 C9337 1.386 . S
C9336 C9338 1.391 . S
C9337 C9336 1.386 . S
C9337 C9341 1.393 . S
C9338 H9330 0.950 . S
C9338 C9336 1.391 . S
C9338 C9339 1.400 . S
C9339 C9338 1.400 . S
C9339 C9340 1.398 . S
C9339 C9345 1.491 . S
C9340 H9331 0.950 . S
C9340 C9339 1.398 . S
C9340 C9341 1.391 . S
C9341 H9329 0.950 . S
C9341 C9337 1.393 . S
C9341 C9340 1.391 . S
C9342 H9332 0.950 . S
C9342 C9343 1.386 . S
C9342 C9344 1.391 . S
C9343 C9342 1.386 . S
C9343 C9347 1.393 . S
C9344 H9333 0.950 . S
C9344 C9342 1.391 . S
C9344 C9345 1.400 . S
C9345 C9339 1.491 . S
C9345 C9344 1.400 . S
C9345 C9346 1.398 . S
C9346 H9334 0.950 . S
C9346 C9345 1.398 . S
C9346 C9347 1.391 . S
C9347 H9335 0.950 . S
C9347 C9343 1.393 . S
C9347 C9346 1.391 . S
H9348 C9356 0.950 . S
H9349 C9361 0.950 . S
H9350 C9358 0.950 . S
H9351 C9360 0.950 . S
H9352 C9362 0.950 . S
H9353 C9364 0.950 . S
H9354 C9366 0.950 . S
H9355 C9367 0.950 . S
C9356 H9348 0.950 . S
C9356 C9357 1.386 . S
C9356 C9358 1.391 . S
C9357 C9356 1.386 . S
C9357 C9361 1.393 . S
C9358 H9350 0.950 . S
C9358 C9356 1.391 . S
C9358 C9359 1.400 . S
C9359 C9358 1.400 . S
C9359 C9360 1.398 . S
C9359 C9365 1.491 . S
C9360 H9351 0.950 . S
C9360 C9359 1.398 . S
C9360 C9361 1.391 . S
C9361 H9349 0.950 . S
C9361 C9357 1.393 . S
C9361 C9360 1.391 . S
C9362 H9352 0.950 . S
C9362 C9363 1.386 . S
C9362 C9364 1.391 . S
C9363 C9362 1.386 . S
C9363 C9367 1.393 . S
C9364 H9353 0.950 . S
C9364 C9362 1.391 . S
C9364 C9365 1.400 . S
C9365 C9359 1.491 . S
C9365 C9364 1.400 . S
C9365 C9366 1.398 . S
C9366 H9354 0.950 . S
C9366 C9365 1.398 . S
C9366 C9367 1.391 . S
C9367 H9355 0.950 . S
C9367 C9363 1.393 . S
C9367 C9366 1.391 . S
H9368 C9376 0.950 . S
H9369 C9381 0.950 . S
H9370 C9378 0.950 . S
H9371 C9380 0.950 . S
H9372 C9382 0.950 . S
H9373 C9384 0.950 . S
H9374 C9386 0.950 . S
H9375 C9387 0.950 . S
C9376 H9368 0.950 . S
C9376 C9377 1.386 . S
C9376 C9378 1.391 . S
C9377 C9376 1.386 . S
C9377 C9381 1.393 . S
C9378 H9370 0.950 . S
C9378 C9376 1.391 . S
C9378 C9379 1.400 . S
C9379 C9378 1.400 . S
C9379 C9380 1.398 . S
C9379 C9385 1.491 . S
C9380 H9371 0.950 . S
C9380 C9379 1.398 . S
C9380 C9381 1.391 . S
C9381 H9369 0.950 . S
C9381 C9377 1.393 . S
C9381 C9380 1.391 . S
C9382 H9372 0.950 . S
C9382 C9383 1.386 . S
C9382 C9384 1.391 . S
C9383 C9382 1.386 . S
C9383 C9387 1.393 . S
C9384 H9373 0.950 . S
C9384 C9382 1.391 . S
C9384 C9385 1.400 . S
C9385 C9379 1.491 . S
C9385 C9384 1.400 . S
C9385 C9386 1.398 . S
C9386 H9374 0.950 . S
C9386 C9385 1.398 . S
C9386 C9387 1.391 . S
C9387 H9375 0.950 . S
C9387 C9383 1.393 . S
C9387 C9386 1.391 . S
H9388 C9396 0.950 . S
H9389 C9401 0.950 . S
H9390 C9398 0.950 . S
H9391 C9400 0.950 . S
H9392 C9402 0.950 . S
H9393 C9404 0.950 . S
H9394 C9406 0.950 . S
H9395 C9407 0.950 . S
C9396 H9388 0.950 . S
C9396 C9397 1.386 . S
C9396 C9398 1.391 . S
C9397 C9396 1.386 . S
C9397 C9401 1.393 . S
C9398 H9390 0.950 . S
C9398 C9396 1.391 . S
C9398 C9399 1.400 . S
C9399 C9398 1.400 . S
C9399 C9400 1.398 . S
C9399 C9405 1.491 . S
C9400 H9391 0.950 . S
C9400 C9399 1.398 . S
C9400 C9401 1.391 . S
C9401 H9389 0.950 . S
C9401 C9397 1.393 . S
C9401 C9400 1.391 . S
C9402 H9392 0.950 . S
C9402 C9403 1.386 . S
C9402 C9404 1.391 . S
C9403 C9402 1.386 . S
C9403 C9407 1.393 . S
C9404 H9393 0.950 . S
C9404 C9402 1.391 . S
C9404 C9405 1.400 . S
C9405 C9399 1.491 . S
C9405 C9404 1.400 . S
C9405 C9406 1.398 . S
C9406 H9394 0.950 . S
C9406 C9405 1.398 . S
C9406 C9407 1.391 . S
C9407 H9395 0.950 . S
C9407 C9403 1.393 . S
C9407 C9406 1.391 . S
H9408 C9416 0.950 . S
H9409 C9421 0.950 . S
H9410 C9418 0.950 . S
H9411 C9420 0.950 . S
H9412 C9422 0.950 . S
H9413 C9424 0.950 . S
H9414 C9426 0.950 . S
H9415 C9427 0.950 . S
C9416 H9408 0.950 . S
C9416 C9417 1.386 . S
C9416 C9418 1.391 . S
C9417 C9416 1.386 . S
C9417 C9421 1.393 . S
C9418 H9410 0.950 . S
C9418 C9416 1.391 . S
C9418 C9419 1.400 . S
C9419 C9418 1.400 . S
C9419 C9420 1.398 . S
C9419 C9425 1.491 . S
C9420 H9411 0.950 . S
C9420 C9419 1.398 . S
C9420 C9421 1.391 . S
C9421 H9409 0.950 . S
C9421 C9417 1.393 . S
C9421 C9420 1.391 . S
C9422 H9412 0.950 . S
C9422 C9423 1.386 . S
C9422 C9424 1.391 . S
C9423 C9422 1.386 . S
C9423 C9427 1.393 . S
C9424 H9413 0.950 . S
C9424 C9422 1.391 . S
C9424 C9425 1.400 . S
C9425 C9419 1.491 . S
C9425 C9424 1.400 . S
C9425 C9426 1.398 . S
C9426 H9414 0.950 . S
C9426 C9425 1.398 . S
C9426 C9427 1.391 . S
C9427 H9415 0.950 . S
C9427 C9423 1.393 . S
C9427 C9426 1.391 . S
H9428 C9436 0.950 . S
H9429 C9441 0.950 . S
H9430 C9438 0.950 . S
H9431 C9440 0.950 . S
H9432 C9442 0.950 . S
H9433 C9444 0.950 . S
H9434 C9446 0.950 . S
H9435 C9447 0.950 . S
C9436 H9428 0.950 . S
C9436 C9437 1.386 . S
C9436 C9438 1.391 . S
C9437 C9436 1.386 . S
C9437 C9441 1.393 . S
C9438 H9430 0.950 . S
C9438 C9436 1.391 . S
C9438 C9439 1.400 . S
C9439 C9438 1.400 . S
C9439 C9440 1.398 . S
C9439 C9445 1.491 . S
C9440 H9431 0.950 . S
C9440 C9439 1.398 . S
C9440 C9441 1.391 . S
C9441 H9429 0.950 . S
C9441 C9437 1.393 . S
C9441 C9440 1.391 . S
C9442 H9432 0.950 . S
C9442 C9443 1.386 . S
C9442 C9444 1.391 . S
C9443 C9442 1.386 . S
C9443 C9447 1.393 . S
C9444 H9433 0.950 . S
C9444 C9442 1.391 . S
C9444 C9445 1.400 . S
C9445 C9439 1.491 . S
C9445 C9444 1.400 . S
C9445 C9446 1.398 . S
C9446 H9434 0.950 . S
C9446 C9445 1.398 . S
C9446 C9447 1.391 . S
C9447 H9435 0.950 . S
C9447 C9443 1.393 . S
C9447 C9446 1.391 . S
H9448 C9456 0.950 . S
H9449 C9461 0.950 . S
H9450 C9458 0.950 . S
H9451 C9460 0.950 . S
H9452 C9462 0.950 . S
H9453 C9464 0.950 . S
H9454 C9466 0.950 . S
H9455 C9467 0.950 . S
C9456 H9448 0.950 . S
C9456 C9457 1.386 . S
C9456 C9458 1.391 . S
C9457 C9456 1.386 . S
C9457 C9461 1.393 . S
C9458 H9450 0.950 . S
C9458 C9456 1.391 . S
C9458 C9459 1.400 . S
C9459 C9458 1.400 . S
C9459 C9460 1.398 . S
C9459 C9465 1.491 . S
C9460 H9451 0.950 . S
C9460 C9459 1.398 . S
C9460 C9461 1.391 . S
C9461 H9449 0.950 . S
C9461 C9457 1.393 . S
C9461 C9460 1.391 . S
C9462 H9452 0.950 . S
C9462 C9463 1.386 . S
C9462 C9464 1.391 . S
C9463 C9462 1.386 . S
C9463 C9467 1.393 . S
C9464 H9453 0.950 . S
C9464 C9462 1.391 . S
C9464 C9465 1.400 . S
C9465 C9459 1.491 . S
C9465 C9464 1.400 . S
C9465 C9466 1.398 . S
C9466 H9454 0.950 . S
C9466 C9465 1.398 . S
C9466 C9467 1.391 . S
C9467 H9455 0.950 . S
C9467 C9463 1.393 . S
C9467 C9466 1.391 . S
H9468 C9476 0.950 . S
H9469 C9481 0.950 . S
H9470 C9478 0.950 . S
H9471 C9480 0.950 . S
H9472 C9482 0.950 . S
H9473 C9484 0.950 . S
H9474 C9486 0.950 . S
H9475 C9487 0.950 . S
C9476 H9468 0.950 . S
C9476 C9477 1.386 . S
C9476 C9478 1.391 . S
C9477 C9476 1.386 . S
C9477 C9481 1.393 . S
C9478 H9470 0.950 . S
C9478 C9476 1.391 . S
C9478 C9479 1.400 . S
C9479 C9478 1.400 . S
C9479 C9480 1.398 . S
C9479 C9485 1.491 . S
C9480 H9471 0.950 . S
C9480 C9479 1.398 . S
C9480 C9481 1.391 . S
C9481 H9469 0.950 . S
C9481 C9477 1.393 . S
C9481 C9480 1.391 . S
C9482 H9472 0.950 . S
C9482 C9483 1.386 . S
C9482 C9484 1.391 . S
C9483 C9482 1.386 . S
C9483 C9487 1.393 . S
C9484 H9473 0.950 . S
C9484 C9482 1.391 . S
C9484 C9485 1.400 . S
C9485 C9479 1.491 . S
C9485 C9484 1.400 . S
C9485 C9486 1.398 . S
C9486 H9474 0.950 . S
C9486 C9485 1.398 . S
C9486 C9487 1.391 . S
C9487 H9475 0.950 . S
C9487 C9483 1.393 . S
C9487 C9486 1.391 . S
H9488 C9496 0.950 . S
H9489 C9501 0.950 . S
H9490 C9498 0.950 . S
H9491 C9500 0.950 . S
H9492 C9502 0.950 . S
H9493 C9504 0.950 . S
H9494 C9506 0.950 . S
H9495 C9507 0.950 . S
C9496 H9488 0.950 . S
C9496 C9497 1.386 . S
C9496 C9498 1.391 . S
C9497 C9496 1.386 . S
C9497 C9501 1.393 . S
C9498 H9490 0.950 . S
C9498 C9496 1.391 . S
C9498 C9499 1.400 . S
C9499 C9498 1.400 . S
C9499 C9500 1.398 . S
C9499 C9505 1.491 . S
C9500 H9491 0.950 . S
C9500 C9499 1.398 . S
C9500 C9501 1.391 . S
C9501 H9489 0.950 . S
C9501 C9497 1.393 . S
C9501 C9500 1.391 . S
C9502 H9492 0.950 . S
C9502 C9503 1.386 . S
C9502 C9504 1.391 . S
C9503 C9502 1.386 . S
C9503 C9507 1.393 . S
C9504 H9493 0.950 . S
C9504 C9502 1.391 . S
C9504 C9505 1.400 . S
C9505 C9499 1.491 . S
C9505 C9504 1.400 . S
C9505 C9506 1.398 . S
C9506 H9494 0.950 . S
C9506 C9505 1.398 . S
C9506 C9507 1.391 . S
C9507 H9495 0.950 . S
C9507 C9503 1.393 . S
C9507 C9506 1.391 . S
H9508 C9516 0.950 . S
H9509 C9521 0.950 . S
H9510 C9518 0.950 . S
H9511 C9520 0.950 . S
H9512 C9522 0.950 . S
H9513 C9524 0.950 . S
H9514 C9526 0.950 . S
H9515 C9527 0.950 . S
C9516 H9508 0.950 . S
C9516 C9517 1.386 . S
C9516 C9518 1.391 . S
C9517 C9516 1.386 . S
C9517 C9521 1.393 . S
C9518 H9510 0.950 . S
C9518 C9516 1.391 . S
C9518 C9519 1.400 . S
C9519 C9518 1.400 . S
C9519 C9520 1.398 . S
C9519 C9525 1.491 . S
C9520 H9511 0.950 . S
C9520 C9519 1.398 . S
C9520 C9521 1.391 . S
C9521 H9509 0.950 . S
C9521 C9517 1.393 . S
C9521 C9520 1.391 . S
C9522 H9512 0.950 . S
C9522 C9523 1.386 . S
C9522 C9524 1.391 . S
C9523 C9522 1.386 . S
C9523 C9527 1.393 . S
C9524 H9513 0.950 . S
C9524 C9522 1.391 . S
C9524 C9525 1.400 . S
C9525 C9519 1.491 . S
C9525 C9524 1.400 . S
C9525 C9526 1.398 . S
C9526 H9514 0.950 . S
C9526 C9525 1.398 . S
C9526 C9527 1.391 . S
C9527 H9515 0.950 . S
C9527 C9523 1.393 . S
C9527 C9526 1.391 . S
H9528 C9536 0.950 . S
H9529 C9541 0.950 . S
H9530 C9538 0.950 . S
H9531 C9540 0.950 . S
H9532 C9542 0.950 . S
H9533 C9544 0.950 . S
H9534 C9546 0.950 . S
H9535 C9547 0.950 . S
C9536 H9528 0.950 . S
C9536 C9537 1.386 . S
C9536 C9538 1.391 . S
C9537 C9536 1.386 . S
C9537 C9541 1.393 . S
C9538 H9530 0.950 . S
C9538 C9536 1.391 . S
C9538 C9539 1.400 . S
C9539 C9538 1.400 . S
C9539 C9540 1.398 . S
C9539 C9545 1.491 . S
C9540 H9531 0.950 . S
C9540 C9539 1.398 . S
C9540 C9541 1.391 . S
C9541 H9529 0.950 . S
C9541 C9537 1.393 . S
C9541 C9540 1.391 . S
C9542 H9532 0.950 . S
C9542 C9543 1.386 . S
C9542 C9544 1.391 . S
C9543 C9542 1.386 . S
C9543 C9547 1.393 . S
C9544 H9533 0.950 . S
C9544 C9542 1.391 . S
C9544 C9545 1.400 . S
C9545 C9539 1.491 . S
C9545 C9544 1.400 . S
C9545 C9546 1.398 . S
C9546 H9534 0.950 . S
C9546 C9545 1.398 . S
C9546 C9547 1.391 . S
C9547 H9535 0.950 . S
C9547 C9543 1.393 . S
C9547 C9546 1.391 . S
H9548 C9556 0.950 . S
H9549 C9561 0.950 . S
H9550 C9558 0.950 . S
H9551 C9560 0.950 . S
H9552 C9562 0.950 . S
H9553 C9564 0.950 . S
H9554 C9566 0.950 . S
H9555 C9567 0.950 . S
C9556 H9548 0.950 . S
C9556 C9557 1.386 . S
C9556 C9558 1.391 . S
C9557 C9556 1.386 . S
C9557 C9561 1.393 . S
C9558 H9550 0.950 . S
C9558 C9556 1.391 . S
C9558 C9559 1.400 . S
C9559 C9558 1.400 . S
C9559 C9560 1.398 . S
C9559 C9565 1.491 . S
C9560 H9551 0.950 . S
C9560 C9559 1.398 . S
C9560 C9561 1.391 . S
C9561 H9549 0.950 . S
C9561 C9557 1.393 . S
C9561 C9560 1.391 . S
C9562 H9552 0.950 . S
C9562 C9563 1.386 . S
C9562 C9564 1.391 . S
C9563 C9562 1.386 . S
C9563 C9567 1.393 . S
C9564 H9553 0.950 . S
C9564 C9562 1.391 . S
C9564 C9565 1.400 . S
C9565 C9559 1.491 . S
C9565 C9564 1.400 . S
C9565 C9566 1.398 . S
C9566 H9554 0.950 . S
C9566 C9565 1.398 . S
C9566 C9567 1.391 . S
C9567 H9555 0.950 . S
C9567 C9563 1.393 . S
C9567 C9566 1.391 . S
H9568 C9576 0.950 . S
H9569 C9581 0.950 . S
H9570 C9578 0.950 . S
H9571 C9580 0.950 . S
H9572 C9582 0.950 . S
H9573 C9584 0.950 . S
H9574 C9586 0.950 . S
H9575 C9587 0.950 . S
C9576 H9568 0.950 . S
C9576 C9577 1.386 . S
C9576 C9578 1.391 . S
C9577 C9576 1.386 . S
C9577 C9581 1.393 . S
C9578 H9570 0.950 . S
C9578 C9576 1.391 . S
C9578 C9579 1.400 . S
C9579 C9578 1.400 . S
C9579 C9580 1.398 . S
C9579 C9585 1.491 . S
C9580 H9571 0.950 . S
C9580 C9579 1.398 . S
C9580 C9581 1.391 . S
C9581 H9569 0.950 . S
C9581 C9577 1.393 . S
C9581 C9580 1.391 . S
C9582 H9572 0.950 . S
C9582 C9583 1.386 . S
C9582 C9584 1.391 . S
C9583 C9582 1.386 . S
C9583 C9587 1.393 . S
C9584 H9573 0.950 . S
C9584 C9582 1.391 . S
C9584 C9585 1.400 . S
C9585 C9579 1.491 . S
C9585 C9584 1.400 . S
C9585 C9586 1.398 . S
C9586 H9574 0.950 . S
C9586 C9585 1.398 . S
C9586 C9587 1.391 . S
C9587 H9575 0.950 . S
C9587 C9583 1.393 . S
C9587 C9586 1.391 . S
H9588 C9596 0.950 . S
H9589 C9601 0.950 . S
H9590 C9598 0.950 . S
H9591 C9600 0.950 . S
H9592 C9602 0.950 . S
H9593 C9604 0.950 . S
H9594 C9606 0.950 . S
H9595 C9607 0.950 . S
C9596 H9588 0.950 . S
C9596 C9597 1.386 . S
C9596 C9598 1.391 . S
C9597 C9596 1.386 . S
C9597 C9601 1.393 . S
C9598 H9590 0.950 . S
C9598 C9596 1.391 . S
C9598 C9599 1.400 . S
C9599 C9598 1.400 . S
C9599 C9600 1.398 . S
C9599 C9605 1.491 . S
C9600 H9591 0.950 . S
C9600 C9599 1.398 . S
C9600 C9601 1.391 . S
C9601 H9589 0.950 . S
C9601 C9597 1.393 . S
C9601 C9600 1.391 . S
C9602 H9592 0.950 . S
C9602 C9603 1.386 . S
C9602 C9604 1.391 . S
C9603 C9602 1.386 . S
C9603 C9607 1.393 . S
C9604 H9593 0.950 . S
C9604 C9602 1.391 . S
C9604 C9605 1.400 . S
C9605 C9599 1.491 . S
C9605 C9604 1.400 . S
C9605 C9606 1.398 . S
C9606 H9594 0.950 . S
C9606 C9605 1.398 . S
C9606 C9607 1.391 . S
C9607 H9595 0.950 . S
C9607 C9603 1.393 . S
C9607 C9606 1.391 . S
H9608 C9616 0.950 . S
H9609 C9621 0.950 . S
H9610 C9618 0.950 . S
H9611 C9620 0.950 . S
H9612 C9622 0.950 . S
H9613 C9624 0.950 . S
H9614 C9626 0.950 . S
H9615 C9627 0.950 . S
C9616 H9608 0.950 . S
C9616 C9617 1.386 . S
C9616 C9618 1.391 . S
C9617 C9616 1.386 . S
C9617 C9621 1.393 . S
C9618 H9610 0.950 . S
C9618 C9616 1.391 . S
C9618 C9619 1.400 . S
C9619 C9618 1.400 . S
C9619 C9620 1.398 . S
C9619 C9625 1.491 . S
C9620 H9611 0.950 . S
C9620 C9619 1.398 . S
C9620 C9621 1.391 . S
C9621 H9609 0.950 . S
C9621 C9617 1.393 . S
C9621 C9620 1.391 . S
C9622 H9612 0.950 . S
C9622 C9623 1.386 . S
C9622 C9624 1.391 . S
C9623 C9622 1.386 . S
C9623 C9627 1.393 . S
C9624 H9613 0.950 . S
C9624 C9622 1.391 . S
C9624 C9625 1.400 . S
C9625 C9619 1.491 . S
C9625 C9624 1.400 . S
C9625 C9626 1.398 . S
C9626 H9614 0.950 . S
C9626 C9625 1.398 . S
C9626 C9627 1.391 . S
C9627 H9615 0.950 . S
C9627 C9623 1.393 . S
C9627 C9626 1.391 . S
H9628 C9636 0.950 . S
H9629 C9641 0.950 . S
H9630 C9638 0.950 . S
H9631 C9640 0.950 . S
H9632 C9642 0.950 . S
H9633 C9644 0.950 . S
H9634 C9646 0.950 . S
H9635 C9647 0.950 . S
C9636 H9628 0.950 . S
C9636 C9637 1.386 . S
C9636 C9638 1.391 . S
C9637 C9636 1.386 . S
C9637 C9641 1.393 . S
C9638 H9630 0.950 . S
C9638 C9636 1.391 . S
C9638 C9639 1.400 . S
C9639 C9638 1.400 . S
C9639 C9640 1.398 . S
C9639 C9645 1.491 . S
C9640 H9631 0.950 . S
C9640 C9639 1.398 . S
C9640 C9641 1.391 . S
C9641 H9629 0.950 . S
C9641 C9637 1.393 . S
C9641 C9640 1.391 . S
C9642 H9632 0.950 . S
C9642 C9643 1.386 . S
C9642 C9644 1.391 . S
C9643 C9642 1.386 . S
C9643 C9647 1.393 . S
C9644 H9633 0.950 . S
C9644 C9642 1.391 . S
C9644 C9645 1.400 . S
C9645 C9639 1.491 . S
C9645 C9644 1.400 . S
C9645 C9646 1.398 . S
C9646 H9634 0.950 . S
C9646 C9645 1.398 . S
C9646 C9647 1.391 . S
C9647 H9635 0.950 . S
C9647 C9643 1.393 . S
C9647 C9646 1.391 . S
H9648 C9656 0.950 . S
H9649 C9661 0.950 . S
H9650 C9658 0.950 . S
H9651 C9660 0.950 . S
H9652 C9662 0.950 . S
H9653 C9664 0.950 . S
H9654 C9666 0.950 . S
H9655 C9667 0.950 . S
C9656 H9648 0.950 . S
C9656 C9657 1.386 . S
C9656 C9658 1.391 . S
C9657 C9656 1.386 . S
C9657 C9661 1.393 . S
C9658 H9650 0.950 . S
C9658 C9656 1.391 . S
C9658 C9659 1.400 . S
C9659 C9658 1.400 . S
C9659 C9660 1.398 . S
C9659 C9665 1.491 . S
C9660 H9651 0.950 . S
C9660 C9659 1.398 . S
C9660 C9661 1.391 . S
C9661 H9649 0.950 . S
C9661 C9657 1.393 . S
C9661 C9660 1.391 . S
C9662 H9652 0.950 . S
C9662 C9663 1.386 . S
C9662 C9664 1.391 . S
C9663 C9662 1.386 . S
C9663 C9667 1.393 . S
C9664 H9653 0.950 . S
C9664 C9662 1.391 . S
C9664 C9665 1.400 . S
C9665 C9659 1.491 . S
C9665 C9664 1.400 . S
C9665 C9666 1.398 . S
C9666 H9654 0.950 . S
C9666 C9665 1.398 . S
C9666 C9667 1.391 . S
C9667 H9655 0.950 . S
C9667 C9663 1.393 . S
C9667 C9666 1.391 . S
H9668 C9676 0.950 . S
H9669 C9681 0.950 . S
H9670 C9678 0.950 . S
H9671 C9680 0.950 . S
H9672 C9682 0.950 . S
H9673 C9684 0.950 . S
H9674 C9686 0.950 . S
H9675 C9687 0.950 . S
C9676 H9668 0.950 . S
C9676 C9677 1.386 . S
C9676 C9678 1.391 . S
C9677 C9676 1.386 . S
C9677 C9681 1.393 . S
C9678 H9670 0.950 . S
C9678 C9676 1.391 . S
C9678 C9679 1.400 . S
C9679 C9678 1.400 . S
C9679 C9680 1.398 . S
C9679 C9685 1.491 . S
C9680 H9671 0.950 . S
C9680 C9679 1.398 . S
C9680 C9681 1.391 . S
C9681 H9669 0.950 . S
C9681 C9677 1.393 . S
C9681 C9680 1.391 . S
C9682 H9672 0.950 . S
C9682 C9683 1.386 . S
C9682 C9684 1.391 . S
C9683 C9682 1.386 . S
C9683 C9687 1.393 . S
C9684 H9673 0.950 . S
C9684 C9682 1.391 . S
C9684 C9685 1.400 . S
C9685 C9679 1.491 . S
C9685 C9684 1.400 . S
C9685 C9686 1.398 . S
C9686 H9674 0.950 . S
C9686 C9685 1.398 . S
C9686 C9687 1.391 . S
C9687 H9675 0.950 . S
C9687 C9683 1.393 . S
C9687 C9686 1.391 . S
H9688 C9696 0.950 . S
H9689 C9701 0.950 . S
H9690 C9698 0.950 . S
H9691 C9700 0.950 . S
H9692 C9702 0.950 . S
H9693 C9704 0.950 . S
H9694 C9706 0.950 . S
H9695 C9707 0.950 . S
C9696 H9688 0.950 . S
C9696 C9697 1.386 . S
C9696 C9698 1.391 . S
C9697 C9696 1.386 . S
C9697 C9701 1.393 . S
C9698 H9690 0.950 . S
C9698 C9696 1.391 . S
C9698 C9699 1.400 . S
C9699 C9698 1.400 . S
C9699 C9700 1.398 . S
C9699 C9705 1.491 . S
C9700 H9691 0.950 . S
C9700 C9699 1.398 . S
C9700 C9701 1.391 . S
C9701 H9689 0.950 . S
C9701 C9697 1.393 . S
C9701 C9700 1.391 . S
C9702 H9692 0.950 . S
C9702 C9703 1.386 . S
C9702 C9704 1.391 . S
C9703 C9702 1.386 . S
C9703 C9707 1.393 . S
C9704 H9693 0.950 . S
C9704 C9702 1.391 . S
C9704 C9705 1.400 . S
C9705 C9699 1.491 . S
C9705 C9704 1.400 . S
C9705 C9706 1.398 . S
C9706 H9694 0.950 . S
C9706 C9705 1.398 . S
C9706 C9707 1.391 . S
C9707 H9695 0.950 . S
C9707 C9703 1.393 . S
C9707 C9706 1.391 . S
H9708 C9716 0.950 . S
H9709 C9721 0.950 . S
H9710 C9718 0.950 . S
H9711 C9720 0.950 . S
H9712 C9722 0.950 . S
H9713 C9724 0.950 . S
H9714 C9726 0.950 . S
H9715 C9727 0.950 . S
C9716 H9708 0.950 . S
C9716 C9717 1.386 . S
C9716 C9718 1.391 . S
C9717 C9716 1.386 . S
C9717 C9721 1.393 . S
C9718 H9710 0.950 . S
C9718 C9716 1.391 . S
C9718 C9719 1.400 . S
C9719 C9718 1.400 . S
C9719 C9720 1.398 . S
C9719 C9725 1.491 . S
C9720 H9711 0.950 . S
C9720 C9719 1.398 . S
C9720 C9721 1.391 . S
C9721 H9709 0.950 . S
C9721 C9717 1.393 . S
C9721 C9720 1.391 . S
C9722 H9712 0.950 . S
C9722 C9723 1.386 . S
C9722 C9724 1.391 . S
C9723 C9722 1.386 . S
C9723 C9727 1.393 . S
C9724 H9713 0.950 . S
C9724 C9722 1.391 . S
C9724 C9725 1.400 . S
C9725 C9719 1.491 . S
C9725 C9724 1.400 . S
C9725 C9726 1.398 . S
C9726 H9714 0.950 . S
C9726 C9725 1.398 . S
C9726 C9727 1.391 . S
C9727 H9715 0.950 . S
C9727 C9723 1.393 . S
C9727 C9726 1.391 . S
H9728 C9736 0.950 . S
H9729 C9741 0.950 . S
H9730 C9738 0.950 . S
H9731 C9740 0.950 . S
H9732 C9742 0.950 . S
H9733 C9744 0.950 . S
H9734 C9746 0.950 . S
H9735 C9747 0.950 . S
C9736 H9728 0.950 . S
C9736 C9737 1.386 . S
C9736 C9738 1.391 . S
C9737 C9736 1.386 . S
C9737 C9741 1.393 . S
C9738 H9730 0.950 . S
C9738 C9736 1.391 . S
C9738 C9739 1.400 . S
C9739 C9738 1.400 . S
C9739 C9740 1.398 . S
C9739 C9745 1.491 . S
C9740 H9731 0.950 . S
C9740 C9739 1.398 . S
C9740 C9741 1.391 . S
C9741 H9729 0.950 . S
C9741 C9737 1.393 . S
C9741 C9740 1.391 . S
C9742 H9732 0.950 . S
C9742 C9743 1.386 . S
C9742 C9744 1.391 . S
C9743 C9742 1.386 . S
C9743 C9747 1.393 . S
C9744 H9733 0.950 . S
C9744 C9742 1.391 . S
C9744 C9745 1.400 . S
C9745 C9739 1.491 . S
C9745 C9744 1.400 . S
C9745 C9746 1.398 . S
C9746 H9734 0.950 . S
C9746 C9745 1.398 . S
C9746 C9747 1.391 . S
C9747 H9735 0.950 . S
C9747 C9743 1.393 . S
C9747 C9746 1.391 . S
H9748 C9756 0.950 . S
H9749 C9761 0.950 . S
H9750 C9758 0.950 . S
H9751 C9760 0.950 . S
H9752 C9762 0.950 . S
H9753 C9764 0.950 . S
H9754 C9766 0.950 . S
H9755 C9767 0.950 . S
C9756 H9748 0.950 . S
C9756 C9757 1.386 . S
C9756 C9758 1.391 . S
C9757 C9756 1.386 . S
C9757 C9761 1.393 . S
C9758 H9750 0.950 . S
C9758 C9756 1.391 . S
C9758 C9759 1.400 . S
C9759 C9758 1.400 . S
C9759 C9760 1.398 . S
C9759 C9765 1.491 . S
C9760 H9751 0.950 . S
C9760 C9759 1.398 . S
C9760 C9761 1.391 . S
C9761 H9749 0.950 . S
C9761 C9757 1.393 . S
C9761 C9760 1.391 . S
C9762 H9752 0.950 . S
C9762 C9763 1.386 . S
C9762 C9764 1.391 . S
C9763 C9762 1.386 . S
C9763 C9767 1.393 . S
C9764 H9753 0.950 . S
C9764 C9762 1.391 . S
C9764 C9765 1.400 . S
C9765 C9759 1.491 . S
C9765 C9764 1.400 . S
C9765 C9766 1.398 . S
C9766 H9754 0.950 . S
C9766 C9765 1.398 . S
C9766 C9767 1.391 . S
C9767 H9755 0.950 . S
C9767 C9763 1.393 . S
C9767 C9766 1.391 . S
H9768 C9776 0.950 . S
H9769 C9781 0.950 . S
H9770 C9778 0.950 . S
H9771 C9780 0.950 . S
H9772 C9782 0.950 . S
H9773 C9784 0.950 . S
H9774 C9786 0.950 . S
H9775 C9787 0.950 . S
C9776 H9768 0.950 . S
C9776 C9777 1.386 . S
C9776 C9778 1.391 . S
C9777 C9776 1.386 . S
C9777 C9781 1.393 . S
C9778 H9770 0.950 . S
C9778 C9776 1.391 . S
C9778 C9779 1.400 . S
C9779 C9778 1.400 . S
C9779 C9780 1.398 . S
C9779 C9785 1.491 . S
C9780 H9771 0.950 . S
C9780 C9779 1.398 . S
C9780 C9781 1.391 . S
C9781 H9769 0.950 . S
C9781 C9777 1.393 . S
C9781 C9780 1.391 . S
C9782 H9772 0.950 . S
C9782 C9783 1.386 . S
C9782 C9784 1.391 . S
C9783 C9782 1.386 . S
C9783 C9787 1.393 . S
C9784 H9773 0.950 . S
C9784 C9782 1.391 . S
C9784 C9785 1.400 . S
C9785 C9779 1.491 . S
C9785 C9784 1.400 . S
C9785 C9786 1.398 . S
C9786 H9774 0.950 . S
C9786 C9785 1.398 . S
C9786 C9787 1.391 . S
C9787 H9775 0.950 . S
C9787 C9783 1.393 . S
C9787 C9786 1.391 . S
H9788 C9796 0.950 . S
H9789 C9801 0.950 . S
H9790 C9798 0.950 . S
H9791 C9800 0.950 . S
H9792 C9802 0.950 . S
H9793 C9804 0.950 . S
H9794 C9806 0.950 . S
H9795 C9807 0.950 . S
C9796 H9788 0.950 . S
C9796 C9797 1.386 . S
C9796 C9798 1.391 . S
C9797 C9796 1.386 . S
C9797 C9801 1.393 . S
C9798 H9790 0.950 . S
C9798 C9796 1.391 . S
C9798 C9799 1.400 . S
C9799 C9798 1.400 . S
C9799 C9800 1.398 . S
C9799 C9805 1.491 . S
C9800 H9791 0.950 . S
C9800 C9799 1.398 . S
C9800 C9801 1.391 . S
C9801 H9789 0.950 . S
C9801 C9797 1.393 . S
C9801 C9800 1.391 . S
C9802 H9792 0.950 . S
C9802 C9803 1.386 . S
C9802 C9804 1.391 . S
C9803 C9802 1.386 . S
C9803 C9807 1.393 . S
C9804 H9793 0.950 . S
C9804 C9802 1.391 . S
C9804 C9805 1.400 . S
C9805 C9799 1.491 . S
C9805 C9804 1.400 . S
C9805 C9806 1.398 . S
C9806 H9794 0.950 . S
C9806 C9805 1.398 . S
C9806 C9807 1.391 . S
C9807 H9795 0.950 . S
C9807 C9803 1.393 . S
C9807 C9806 1.391 . S
H9808 C9816 0.950 . S
H9809 C9821 0.950 . S
H9810 C9818 0.950 . S
H9811 C9820 0.950 . S
H9812 C9822 0.950 . S
H9813 C9824 0.950 . S
H9814 C9826 0.950 . S
H9815 C9827 0.950 . S
C9816 H9808 0.950 . S
C9816 C9817 1.386 . S
C9816 C9818 1.391 . S
C9817 C9816 1.386 . S
C9817 C9821 1.393 . S
C9818 H9810 0.950 . S
C9818 C9816 1.391 . S
C9818 C9819 1.400 . S
C9819 C9818 1.400 . S
C9819 C9820 1.398 . S
C9819 C9825 1.491 . S
C9820 H9811 0.950 . S
C9820 C9819 1.398 . S
C9820 C9821 1.391 . S
C9821 H9809 0.950 . S
C9821 C9817 1.393 . S
C9821 C9820 1.391 . S
C9822 H9812 0.950 . S
C9822 C9823 1.386 . S
C9822 C9824 1.391 . S
C9823 C9822 1.386 . S
C9823 C9827 1.393 . S
C9824 H9813 0.950 . S
C9824 C9822 1.391 . S
C9824 C9825 1.400 . S
C9825 C9819 1.491 . S
C9825 C9824 1.400 . S
C9825 C9826 1.398 . S
C9826 H9814 0.950 . S
C9826 C9825 1.398 . S
C9826 C9827 1.391 . S
C9827 H9815 0.950 . S
C9827 C9823 1.393 . S
C9827 C9826 1.391 . S
H9828 C9836 0.950 . S
H9829 C9841 0.950 . S
H9830 C9838 0.950 . S
H9831 C9840 0.950 . S
H9832 C9842 0.950 . S
H9833 C9844 0.950 . S
H9834 C9846 0.950 . S
H9835 C9847 0.950 . S
C9836 H9828 0.950 . S
C9836 C9837 1.386 . S
C9836 C9838 1.391 . S
C9837 C9836 1.386 . S
C9837 C9841 1.393 . S
C9838 H9830 0.950 . S
C9838 C9836 1.391 . S
C9838 C9839 1.400 . S
C9839 C9838 1.400 . S
C9839 C9840 1.398 . S
C9839 C9845 1.491 . S
C9840 H9831 0.950 . S
C9840 C9839 1.398 . S
C9840 C9841 1.391 . S
C9841 H9829 0.950 . S
C9841 C9837 1.393 . S
C9841 C9840 1.391 . S
C9842 H9832 0.950 . S
C9842 C9843 1.386 . S
C9842 C9844 1.391 . S
C9843 C9842 1.386 . S
C9843 C9847 1.393 . S
C9844 H9833 0.950 . S
C9844 C9842 1.391 . S
C9844 C9845 1.400 . S
C9845 C9839 1.491 . S
C9845 C9844 1.400 . S
C9845 C9846 1.398 . S
C9846 H9834 0.950 . S
C9846 C9845 1.398 . S
C9846 C9847 1.391 . S
C9847 H9835 0.950 . S
C9847 C9843 1.393 . S
C9847 C9846 1.391 . S
H9848 C9856 0.950 . S
H9849 C9861 0.950 . S
H9850 C9858 0.950 . S
H9851 C9860 0.950 . S
H9852 C9862 0.950 . S
H9853 C9864 0.950 . S
H9854 C9866 0.950 . S
H9855 C9867 0.950 . S
C9856 H9848 0.950 . S
C9856 C9857 1.386 . S
C9856 C9858 1.391 . S
C9857 C9856 1.386 . S
C9857 C9861 1.393 . S
C9858 H9850 0.950 . S
C9858 C9856 1.391 . S
C9858 C9859 1.400 . S
C9859 C9858 1.400 . S
C9859 C9860 1.398 . S
C9859 C9865 1.491 . S
C9860 H9851 0.950 . S
C9860 C9859 1.398 . S
C9860 C9861 1.391 . S
C9861 H9849 0.950 . S
C9861 C9857 1.393 . S
C9861 C9860 1.391 . S
C9862 H9852 0.950 . S
C9862 C9863 1.386 . S
C9862 C9864 1.391 . S
C9863 C9862 1.386 . S
C9863 C9867 1.393 . S
C9864 H9853 0.950 . S
C9864 C9862 1.391 . S
C9864 C9865 1.400 . S
C9865 C9859 1.491 . S
C9865 C9864 1.400 . S
C9865 C9866 1.398 . S
C9866 H9854 0.950 . S
C9866 C9865 1.398 . S
C9866 C9867 1.391 . S
C9867 H9855 0.950 . S
C9867 C9863 1.393 . S
C9867 C9866 1.391 . S
H9868 C9876 0.950 . S
H9869 C9881 0.950 . S
H9870 C9878 0.950 . S
H9871 C9880 0.950 . S
H9872 C9882 0.950 . S
H9873 C9884 0.950 . S
H9874 C9886 0.950 . S
H9875 C9887 0.950 . S
C9876 H9868 0.950 . S
C9876 C9877 1.386 . S
C9876 C9878 1.391 . S
C9877 C9876 1.386 . S
C9877 C9881 1.393 . S
C9878 H9870 0.950 . S
C9878 C9876 1.391 . S
C9878 C9879 1.400 . S
C9879 C9878 1.400 . S
C9879 C9880 1.398 . S
C9879 C9885 1.491 . S
C9880 H9871 0.950 . S
C9880 C9879 1.398 . S
C9880 C9881 1.391 . S
C9881 H9869 0.950 . S
C9881 C9877 1.393 . S
C9881 C9880 1.391 . S
C9882 H9872 0.950 . S
C9882 C9883 1.386 . S
C9882 C9884 1.391 . S
C9883 C9882 1.386 . S
C9883 C9887 1.393 . S
C9884 H9873 0.950 . S
C9884 C9882 1.391 . S
C9884 C9885 1.400 . S
C9885 C9879 1.491 . S
C9885 C9884 1.400 . S
C9885 C9886 1.398 . S
C9886 H9874 0.950 . S
C9886 C9885 1.398 . S
C9886 C9887 1.391 . S
C9887 H9875 0.950 . S
C9887 C9883 1.393 . S
C9887 C9886 1.391 . S
H9888 C9896 0.950 . S
H9889 C9901 0.950 . S
H9890 C9898 0.950 . S
H9891 C9900 0.950 . S
H9892 C9902 0.950 . S
H9893 C9904 0.950 . S
H9894 C9906 0.950 . S
H9895 C9907 0.950 . S
C9896 H9888 0.950 . S
C9896 C9897 1.386 . S
C9896 C9898 1.391 . S
C9897 C9896 1.386 . S
C9897 C9901 1.393 . S
C9898 H9890 0.950 . S
C9898 C9896 1.391 . S
C9898 C9899 1.400 . S
C9899 C9898 1.400 . S
C9899 C9900 1.398 . S
C9899 C9905 1.491 . S
C9900 H9891 0.950 . S
C9900 C9899 1.398 . S
C9900 C9901 1.391 . S
C9901 H9889 0.950 . S
C9901 C9897 1.393 . S
C9901 C9900 1.391 . S
C9902 H9892 0.950 . S
C9902 C9903 1.386 . S
C9902 C9904 1.391 . S
C9903 C9902 1.386 . S
C9903 C9907 1.393 . S
C9904 H9893 0.950 . S
C9904 C9902 1.391 . S
C9904 C9905 1.400 . S
C9905 C9899 1.491 . S
C9905 C9904 1.400 . S
C9905 C9906 1.398 . S
C9906 H9894 0.950 . S
C9906 C9905 1.398 . S
C9906 C9907 1.391 . S
C9907 H9895 0.950 . S
C9907 C9903 1.393 . S
C9907 C9906 1.391 . S
H9908 C9916 0.950 . S
H9909 C9921 0.950 . S
H9910 C9918 0.950 . S
H9911 C9920 0.950 . S
H9912 C9922 0.950 . S
H9913 C9924 0.950 . S
H9914 C9926 0.950 . S
H9915 C9927 0.950 . S
C9916 H9908 0.950 . S
C9916 C9917 1.386 . S
C9916 C9918 1.391 . S
C9917 C9916 1.386 . S
C9917 C9921 1.393 . S
C9918 H9910 0.950 . S
C9918 C9916 1.391 . S
C9918 C9919 1.400 . S
C9919 C9918 1.400 . S
C9919 C9920 1.398 . S
C9919 C9925 1.491 . S
C9920 H9911 0.950 . S
C9920 C9919 1.398 . S
C9920 C9921 1.391 . S
C9921 H9909 0.950 . S
C9921 C9917 1.393 . S
C9921 C9920 1.391 . S
C9922 H9912 0.950 . S
C9922 C9923 1.386 . S
C9922 C9924 1.391 . S
C9923 C9922 1.386 . S
C9923 C9927 1.393 . S
C9924 H9913 0.950 . S
C9924 C9922 1.391 . S
C9924 C9925 1.400 . S
C9925 C9919 1.491 . S
C9925 C9924 1.400 . S
C9925 C9926 1.398 . S
C9926 H9914 0.950 . S
C9926 C9925 1.398 . S
C9926 C9927 1.391 . S
C9927 H9915 0.950 . S
C9927 C9923 1.393 . S
C9927 C9926 1.391 . S
H9928 C9936 0.950 . S
H9929 C9941 0.950 . S
H9930 C9938 0.950 . S
H9931 C9940 0.950 . S
H9932 C9942 0.950 . S
H9933 C9944 0.950 . S
H9934 C9946 0.950 . S
H9935 C9947 0.950 . S
C9936 H9928 0.950 . S
C9936 C9937 1.386 . S
C9936 C9938 1.391 . S
C9937 C9936 1.386 . S
C9937 C9941 1.393 . S
C9938 H9930 0.950 . S
C9938 C9936 1.391 . S
C9938 C9939 1.400 . S
C9939 C9938 1.400 . S
C9939 C9940 1.398 . S
C9939 C9945 1.491 . S
C9940 H9931 0.950 . S
C9940 C9939 1.398 . S
C9940 C9941 1.391 . S
C9941 H9929 0.950 . S
C9941 C9937 1.393 . S
C9941 C9940 1.391 . S
C9942 H9932 0.950 . S
C9942 C9943 1.386 . S
C9942 C9944 1.391 . S
C9943 C9942 1.386 . S
C9943 C9947 1.393 . S
C9944 H9933 0.950 . S
C9944 C9942 1.391 . S
C9944 C9945 1.400 . S
C9945 C9939 1.491 . S
C9945 C9944 1.400 . S
C9945 C9946 1.398 . S
C9946 H9934 0.950 . S
C9946 C9945 1.398 . S
C9946 C9947 1.391 . S
C9947 H9935 0.950 . S
C9947 C9943 1.393 . S
C9947 C9946 1.391 . S
H9948 C9956 0.950 . S
H9949 C9961 0.950 . S
H9950 C9958 0.950 . S
H9951 C9960 0.950 . S
H9952 C9962 0.950 . S
H9953 C9964 0.950 . S
H9954 C9966 0.950 . S
H9955 C9967 0.950 . S
C9956 H9948 0.950 . S
C9956 C9957 1.386 . S
C9956 C9958 1.391 . S
C9957 C9956 1.386 . S
C9957 C9961 1.393 . S
C9958 H9950 0.950 . S
C9958 C9956 1.391 . S
C9958 C9959 1.400 . S
C9959 C9958 1.400 . S
C9959 C9960 1.398 . S
C9959 C9965 1.491 . S
C9960 H9951 0.950 . S
C9960 C9959 1.398 . S
C9960 C9961 1.391 . S
C9961 H9949 0.950 . S
C9961 C9957 1.393 . S
C9961 C9960 1.391 . S
C9962 H9952 0.950 . S
C9962 C9963 1.386 . S
C9962 C9964 1.391 . S
C9963 C9962 1.386 . S
C9963 C9967 1.393 . S
C9964 H9953 0.950 . S
C9964 C9962 1.391 . S
C9964 C9965 1.400 . S
C9965 C9959 1.491 . S
C9965 C9964 1.400 . S
C9965 C9966 1.398 . S
C9966 H9954 0.950 . S
C9966 C9965 1.398 . S
C9966 C9967 1.391 . S
C9967 H9955 0.950 . S
C9967 C9963 1.393 . S
C9967 C9966 1.391 . S
H9968 C9976 0.950 . S
H9969 C9981 0.950 . S
H9970 C9978 0.950 . S
H9971 C9980 0.950 . S
H9972 C9982 0.950 . S
H9973 C9984 0.950 . S
H9974 C9986 0.950 . S
H9975 C9987 0.950 . S
C9976 H9968 0.950 . S
C9976 C9977 1.386 . S
C9976 C9978 1.391 . S
C9977 C9976 1.386 . S
C9977 C9981 1.393 . S
C9978 H9970 0.950 . S
C9978 C9976 1.391 . S
C9978 C9979 1.400 . S
C9979 C9978 1.400 . S
C9979 C9980 1.398 . S
C9979 C9985 1.491 . S
C9980 H9971 0.950 . S
C9980 C9979 1.398 . S
C9980 C9981 1.391 . S
C9981 H9969 0.950 . S
C9981 C9977 1.393 . S
C9981 C9980 1.391 . S
C9982 H9972 0.950 . S
C9982 C9983 1.386 . S
C9982 C9984 1.391 . S
C9983 C9982 1.386 . S
C9983 C9987 1.393 . S
C9984 H9973 0.950 . S
C9984 C9982 1.391 . S
C9984 C9985 1.400 . S
C9985 C9979 1.491 . S
C9985 C9984 1.400 . S
C9985 C9986 1.398 . S
C9986 H9974 0.950 . S
C9986 C9985 1.398 . S
C9986 C9987 1.391 . S
C9987 H9975 0.950 . S
C9987 C9983 1.393 . S
C9987 C9986 1.391 . S
H9988 C9996 0.950 . S
H9989 C10001 0.950 . S
H9990 C9998 0.950 . S
H9991 C10000 0.950 . S
H9992 C10002 0.950 . S
H9993 C10004 0.950 . S
H9994 C10006 0.950 . S
H9995 C10007 0.950 . S
C9996 H9988 0.950 . S
C9996 C9997 1.386 . S
C9996 C9998 1.391 . S
C9997 C9996 1.386 . S
C9997 C10001 1.393 . S
C9998 H9990 0.950 . S
C9998 C9996 1.391 . S
C9998 C9999 1.400 . S
C9999 C9998 1.400 . S
C9999 C10000 1.398 . S
C9999 C10005 1.491 . S
C10000 H9991 0.950 . S
C10000 C9999 1.398 . S
C10000 C10001 1.391 . S
C10001 H9989 0.950 . S
C10001 C9997 1.393 . S
C10001 C10000 1.391 . S
C10002 H9992 0.950 . S
C10002 C10003 1.386 . S
C10002 C10004 1.391 . S
C10003 C10002 1.386 . S
C10003 C10007 1.393 . S
C10004 H9993 0.950 . S
C10004 C10002 1.391 . S
C10004 C10005 1.400 . S
C10005 C9999 1.491 . S
C10005 C10004 1.400 . S
C10005 C10006 1.398 . S
C10006 H9994 0.950 . S
C10006 C10005 1.398 . S
C10006 C10007 1.391 . S
C10007 H9995 0.950 . S
C10007 C10003 1.393 . S
C10007 C10006 1.391 . S
H10008 C10016 0.950 . S
H10009 C10021 0.950 . S
H10010 C10018 0.950 . S
H10011 C10020 0.950 . S
H10012 C10022 0.950 . S
H10013 C10024 0.950 . S
H10014 C10026 0.950 . S
H10015 C10027 0.950 . S
C10016 H10008 0.950 . S
C10016 C10017 1.386 . S
C10016 C10018 1.391 . S
C10017 C10016 1.386 . S
C10017 C10021 1.393 . S
C10018 H10010 0.950 . S
C10018 C10016 1.391 . S
C10018 C10019 1.400 . S
C10019 C10018 1.400 . S
C10019 C10020 1.398 . S
C10019 C10025 1.491 . S
C10020 H10011 0.950 . S
C10020 C10019 1.398 . S
C10020 C10021 1.391 . S
C10021 H10009 0.950 . S
C10021 C10017 1.393 . S
C10021 C10020 1.391 . S
C10022 H10012 0.950 . S
C10022 C10023 1.386 . S
C10022 C10024 1.391 . S
C10023 C10022 1.386 . S
C10023 C10027 1.393 . S
C10024 H10013 0.950 . S
C10024 C10022 1.391 . S
C10024 C10025 1.400 . S
C10025 C10019 1.491 . S
C10025 C10024 1.400 . S
C10025 C10026 1.398 . S
C10026 H10014 0.950 . S
C10026 C10025 1.398 . S
C10026 C10027 1.391 . S
C10027 H10015 0.950 . S
C10027 C10023 1.393 . S
C10027 C10026 1.391 . S
H10028 C10036 0.950 . S
H10029 C10041 0.950 . S
H10030 C10038 0.950 . S
H10031 C10040 0.950 . S
H10032 C10042 0.950 . S
H10033 C10044 0.950 . S
H10034 C10046 0.950 . S
H10035 C10047 0.950 . S
C10036 H10028 0.950 . S
C10036 C10037 1.386 . S
C10036 C10038 1.391 . S
C10037 C10036 1.386 . S
C10037 C10041 1.393 . S
C10038 H10030 0.950 . S
C10038 C10036 1.391 . S
C10038 C10039 1.400 . S
C10039 C10038 1.400 . S
C10039 C10040 1.398 . S
C10039 C10045 1.491 . S
C10040 H10031 0.950 . S
C10040 C10039 1.398 . S
C10040 C10041 1.391 . S
C10041 H10029 0.950 . S
C10041 C10037 1.393 . S
C10041 C10040 1.391 . S
C10042 H10032 0.950 . S
C10042 C10043 1.386 . S
C10042 C10044 1.391 . S
C10043 C10042 1.386 . S
C10043 C10047 1.393 . S
C10044 H10033 0.950 . S
C10044 C10042 1.391 . S
C10044 C10045 1.400 . S
C10045 C10039 1.491 . S
C10045 C10044 1.400 . S
C10045 C10046 1.398 . S
C10046 H10034 0.950 . S
C10046 C10045 1.398 . S
C10046 C10047 1.391 . S
C10047 H10035 0.950 . S
C10047 C10043 1.393 . S
C10047 C10046 1.391 . S
H10048 C10056 0.950 . S
H10049 C10061 0.950 . S
H10050 C10058 0.950 . S
H10051 C10060 0.950 . S
H10052 C10062 0.950 . S
H10053 C10064 0.950 . S
H10054 C10066 0.950 . S
H10055 C10067 0.950 . S
C10056 H10048 0.950 . S
C10056 C10057 1.386 . S
C10056 C10058 1.391 . S
C10057 C10056 1.386 . S
C10057 C10061 1.393 . S
C10058 H10050 0.950 . S
C10058 C10056 1.391 . S
C10058 C10059 1.400 . S
C10059 C10058 1.400 . S
C10059 C10060 1.398 . S
C10059 C10065 1.491 . S
C10060 H10051 0.950 . S
C10060 C10059 1.398 . S
C10060 C10061 1.391 . S
C10061 H10049 0.950 . S
C10061 C10057 1.393 . S
C10061 C10060 1.391 . S
C10062 H10052 0.950 . S
C10062 C10063 1.386 . S
C10062 C10064 1.391 . S
C10063 C10062 1.386 . S
C10063 C10067 1.393 . S
C10064 H10053 0.950 . S
C10064 C10062 1.391 . S
C10064 C10065 1.400 . S
C10065 C10059 1.491 . S
C10065 C10064 1.400 . S
C10065 C10066 1.398 . S
C10066 H10054 0.950 . S
C10066 C10065 1.398 . S
C10066 C10067 1.391 . S
C10067 H10055 0.950 . S
C10067 C10063 1.393 . S
C10067 C10066 1.391 . S
H10068 C10076 0.950 . S
H10069 C10081 0.950 . S
H10070 C10078 0.950 . S
H10071 C10080 0.950 . S
H10072 C10082 0.950 . S
H10073 C10084 0.950 . S
H10074 C10086 0.950 . S
H10075 C10087 0.950 . S
C10076 H10068 0.950 . S
C10076 C10077 1.386 . S
C10076 C10078 1.391 . S
C10077 C10076 1.386 . S
C10077 C10081 1.393 . S
C10078 H10070 0.950 . S
C10078 C10076 1.391 . S
C10078 C10079 1.400 . S
C10079 C10078 1.400 . S
C10079 C10080 1.398 . S
C10079 C10085 1.491 . S
C10080 H10071 0.950 . S
C10080 C10079 1.398 . S
C10080 C10081 1.391 . S
C10081 H10069 0.950 . S
C10081 C10077 1.393 . S
C10081 C10080 1.391 . S
C10082 H10072 0.950 . S
C10082 C10083 1.386 . S
C10082 C10084 1.391 . S
C10083 C10082 1.386 . S
C10083 C10087 1.393 . S
C10084 H10073 0.950 . S
C10084 C10082 1.391 . S
C10084 C10085 1.400 . S
C10085 C10079 1.491 . S
C10085 C10084 1.400 . S
C10085 C10086 1.398 . S
C10086 H10074 0.950 . S
C10086 C10085 1.398 . S
C10086 C10087 1.391 . S
C10087 H10075 0.950 . S
C10087 C10083 1.393 . S
C10087 C10086 1.391 . S
H10088 C10096 0.950 . S
H10089 C10101 0.950 . S
H10090 C10098 0.950 . S
H10091 C10100 0.950 . S
H10092 C10102 0.950 . S
H10093 C10104 0.950 . S
H10094 C10106 0.950 . S
H10095 C10107 0.950 . S
C10096 H10088 0.950 . S
C10096 C10097 1.386 . S
C10096 C10098 1.391 . S
C10097 C10096 1.386 . S
C10097 C10101 1.393 . S
C10098 H10090 0.950 . S
C10098 C10096 1.391 . S
C10098 C10099 1.400 . S
C10099 C10098 1.400 . S
C10099 C10100 1.398 . S
C10099 C10105 1.491 . S
C10100 H10091 0.950 . S
C10100 C10099 1.398 . S
C10100 C10101 1.391 . S
C10101 H10089 0.950 . S
C10101 C10097 1.393 . S
C10101 C10100 1.391 . S
C10102 H10092 0.950 . S
C10102 C10103 1.386 . S
C10102 C10104 1.391 . S
C10103 C10102 1.386 . S
C10103 C10107 1.393 . S
C10104 H10093 0.950 . S
C10104 C10102 1.391 . S
C10104 C10105 1.400 . S
C10105 C10099 1.491 . S
C10105 C10104 1.400 . S
C10105 C10106 1.398 . S
C10106 H10094 0.950 . S
C10106 C10105 1.398 . S
C10106 C10107 1.391 . S
C10107 H10095 0.950 . S
C10107 C10103 1.393 . S
C10107 C10106 1.391 . S
H10108 C10116 0.950 . S
H10109 C10121 0.950 . S
H10110 C10118 0.950 . S
H10111 C10120 0.950 . S
H10112 C10122 0.950 . S
H10113 C10124 0.950 . S
H10114 C10126 0.950 . S
H10115 C10127 0.950 . S
C10116 H10108 0.950 . S
C10116 C10117 1.386 . S
C10116 C10118 1.391 . S
C10117 C10116 1.386 . S
C10117 C10121 1.393 . S
C10118 H10110 0.950 . S
C10118 C10116 1.391 . S
C10118 C10119 1.400 . S
C10119 C10118 1.400 . S
C10119 C10120 1.398 . S
C10119 C10125 1.491 . S
C10120 H10111 0.950 . S
C10120 C10119 1.398 . S
C10120 C10121 1.391 . S
C10121 H10109 0.950 . S
C10121 C10117 1.393 . S
C10121 C10120 1.391 . S
C10122 H10112 0.950 . S
C10122 C10123 1.386 . S
C10122 C10124 1.391 . S
C10123 C10122 1.386 . S
C10123 C10127 1.393 . S
C10124 H10113 0.950 . S
C10124 C10122 1.391 . S
C10124 C10125 1.400 . S
C10125 C10119 1.491 . S
C10125 C10124 1.400 . S
C10125 C10126 1.398 . S
C10126 H10114 0.950 . S
C10126 C10125 1.398 . S
C10126 C10127 1.391 . S
C10127 H10115 0.950 . S
C10127 C10123 1.393 . S
C10127 C10126 1.391 . S
H10128 C10136 0.950 . S
H10129 C10141 0.950 . S
H10130 C10138 0.950 . S
H10131 C10140 0.950 . S
H10132 C10142 0.950 . S
H10133 C10144 0.950 . S
H10134 C10146 0.950 . S
H10135 C10147 0.950 . S
C10136 H10128 0.950 . S
C10136 C10137 1.386 . S
C10136 C10138 1.391 . S
C10137 C10136 1.386 . S
C10137 C10141 1.393 . S
C10138 H10130 0.950 . S
C10138 C10136 1.391 . S
C10138 C10139 1.400 . S
C10139 C10138 1.400 . S
C10139 C10140 1.398 . S
C10139 C10145 1.491 . S
C10140 H10131 0.950 . S
C10140 C10139 1.398 . S
C10140 C10141 1.391 . S
C10141 H10129 0.950 . S
C10141 C10137 1.393 . S
C10141 C10140 1.391 . S
C10142 H10132 0.950 . S
C10142 C10143 1.386 . S
C10142 C10144 1.391 . S
C10143 C10142 1.386 . S
C10143 C10147 1.393 . S
C10144 H10133 0.950 . S
C10144 C10142 1.391 . S
C10144 C10145 1.400 . S
C10145 C10139 1.491 . S
C10145 C10144 1.400 . S
C10145 C10146 1.398 . S
C10146 H10134 0.950 . S
C10146 C10145 1.398 . S
C10146 C10147 1.391 . S
C10147 H10135 0.950 . S
C10147 C10143 1.393 . S
C10147 C10146 1.391 . S
H10148 C10156 0.950 . S
H10149 C10161 0.950 . S
H10150 C10158 0.950 . S
H10151 C10160 0.950 . S
H10152 C10162 0.950 . S
H10153 C10164 0.950 . S
H10154 C10166 0.950 . S
H10155 C10167 0.950 . S
C10156 H10148 0.950 . S
C10156 C10157 1.386 . S
C10156 C10158 1.391 . S
C10157 C10156 1.386 . S
C10157 C10161 1.393 . S
C10158 H10150 0.950 . S
C10158 C10156 1.391 . S
C10158 C10159 1.400 . S
C10159 C10158 1.400 . S
C10159 C10160 1.398 . S
C10159 C10165 1.491 . S
C10160 H10151 0.950 . S
C10160 C10159 1.398 . S
C10160 C10161 1.391 . S
C10161 H10149 0.950 . S
C10161 C10157 1.393 . S
C10161 C10160 1.391 . S
C10162 H10152 0.950 . S
C10162 C10163 1.386 . S
C10162 C10164 1.391 . S
C10163 C10162 1.386 . S
C10163 C10167 1.393 . S
C10164 H10153 0.950 . S
C10164 C10162 1.391 . S
C10164 C10165 1.400 . S
C10165 C10159 1.491 . S
C10165 C10164 1.400 . S
C10165 C10166 1.398 . S
C10166 H10154 0.950 . S
C10166 C10165 1.398 . S
C10166 C10167 1.391 . S
C10167 H10155 0.950 . S
C10167 C10163 1.393 . S
C10167 C10166 1.391 . S
H10168 C10176 0.950 . S
H10169 C10181 0.950 . S
H10170 C10178 0.950 . S
H10171 C10180 0.950 . S
H10172 C10182 0.950 . S
H10173 C10184 0.950 . S
H10174 C10186 0.950 . S
H10175 C10187 0.950 . S
C10176 H10168 0.950 . S
C10176 C10177 1.386 . S
C10176 C10178 1.391 . S
C10177 C10176 1.386 . S
C10177 C10181 1.393 . S
C10178 H10170 0.950 . S
C10178 C10176 1.391 . S
C10178 C10179 1.400 . S
C10179 C10178 1.400 . S
C10179 C10180 1.398 . S
C10179 C10185 1.491 . S
C10180 H10171 0.950 . S
C10180 C10179 1.398 . S
C10180 C10181 1.391 . S
C10181 H10169 0.950 . S
C10181 C10177 1.393 . S
C10181 C10180 1.391 . S
C10182 H10172 0.950 . S
C10182 C10183 1.386 . S
C10182 C10184 1.391 . S
C10183 C10182 1.386 . S
C10183 C10187 1.393 . S
C10184 H10173 0.950 . S
C10184 C10182 1.391 . S
C10184 C10185 1.400 . S
C10185 C10179 1.491 . S
C10185 C10184 1.400 . S
C10185 C10186 1.398 . S
C10186 H10174 0.950 . S
C10186 C10185 1.398 . S
C10186 C10187 1.391 . S
C10187 H10175 0.950 . S
C10187 C10183 1.393 . S
C10187 C10186 1.391 . S
H10188 C10196 0.950 . S
H10189 C10201 0.950 . S
H10190 C10198 0.950 . S
H10191 C10200 0.950 . S
H10192 C10202 0.950 . S
H10193 C10204 0.950 . S
H10194 C10206 0.950 . S
H10195 C10207 0.950 . S
C10196 H10188 0.950 . S
C10196 C10197 1.386 . S
C10196 C10198 1.391 . S
C10197 C10196 1.386 . S
C10197 C10201 1.393 . S
C10198 H10190 0.950 . S
C10198 C10196 1.391 . S
C10198 C10199 1.400 . S
C10199 C10198 1.400 . S
C10199 C10200 1.398 . S
C10199 C10205 1.491 . S
C10200 H10191 0.950 . S
C10200 C10199 1.398 . S
C10200 C10201 1.391 . S
C10201 H10189 0.950 . S
C10201 C10197 1.393 . S
C10201 C10200 1.391 . S
C10202 H10192 0.950 . S
C10202 C10203 1.386 . S
C10202 C10204 1.391 . S
C10203 C10202 1.386 . S
C10203 C10207 1.393 . S
C10204 H10193 0.950 . S
C10204 C10202 1.391 . S
C10204 C10205 1.400 . S
C10205 C10199 1.491 . S
C10205 C10204 1.400 . S
C10205 C10206 1.398 . S
C10206 H10194 0.950 . S
C10206 C10205 1.398 . S
C10206 C10207 1.391 . S
C10207 H10195 0.950 . S
C10207 C10203 1.393 . S
C10207 C10206 1.391 . S
H10208 C10216 0.950 . S
H10209 C10221 0.950 . S
H10210 C10218 0.950 . S
H10211 C10220 0.950 . S
H10212 C10222 0.950 . S
H10213 C10224 0.950 . S
H10214 C10226 0.950 . S
H10215 C10227 0.950 . S
C10216 H10208 0.950 . S
C10216 C10217 1.386 . S
C10216 C10218 1.391 . S
C10217 C10216 1.386 . S
C10217 C10221 1.393 . S
C10218 H10210 0.950 . S
C10218 C10216 1.391 . S
C10218 C10219 1.400 . S
C10219 C10218 1.400 . S
C10219 C10220 1.398 . S
C10219 C10225 1.491 . S
C10220 H10211 0.950 . S
C10220 C10219 1.398 . S
C10220 C10221 1.391 . S
C10221 H10209 0.950 . S
C10221 C10217 1.393 . S
C10221 C10220 1.391 . S
C10222 H10212 0.950 . S
C10222 C10223 1.386 . S
C10222 C10224 1.391 . S
C10223 C10222 1.386 . S
C10223 C10227 1.393 . S
C10224 H10213 0.950 . S
C10224 C10222 1.391 . S
C10224 C10225 1.400 . S
C10225 C10219 1.491 . S
C10225 C10224 1.400 . S
C10225 C10226 1.398 . S
C10226 H10214 0.950 . S
C10226 C10225 1.398 . S
C10226 C10227 1.391 . S
C10227 H10215 0.950 . S
C10227 C10223 1.393 . S
C10227 C10226 1.391 . S
H10228 C10236 0.950 . S
H10229 C10241 0.950 . S
H10230 C10238 0.950 . S
H10231 C10240 0.950 . S
H10232 C10242 0.950 . S
H10233 C10244 0.950 . S
H10234 C10246 0.950 . S
H10235 C10247 0.950 . S
C10236 H10228 0.950 . S
C10236 C10237 1.386 . S
C10236 C10238 1.391 . S
C10237 C10236 1.386 . S
C10237 C10241 1.393 . S
C10238 H10230 0.950 . S
C10238 C10236 1.391 . S
C10238 C10239 1.400 . S
C10239 C10238 1.400 . S
C10239 C10240 1.398 . S
C10239 C10245 1.491 . S
C10240 H10231 0.950 . S
C10240 C10239 1.398 . S
C10240 C10241 1.391 . S
C10241 H10229 0.950 . S
C10241 C10237 1.393 . S
C10241 C10240 1.391 . S
C10242 H10232 0.950 . S
C10242 C10243 1.386 . S
C10242 C10244 1.391 . S
C10243 C10242 1.386 . S
C10243 C10247 1.393 . S
C10244 H10233 0.950 . S
C10244 C10242 1.391 . S
C10244 C10245 1.400 . S
C10245 C10239 1.491 . S
C10245 C10244 1.400 . S
C10245 C10246 1.398 . S
C10246 H10234 0.950 . S
C10246 C10245 1.398 . S
C10246 C10247 1.391 . S
C10247 H10235 0.950 . S
C10247 C10243 1.393 . S
C10247 C10246 1.391 . S
H10248 C10256 0.950 . S
H10249 C10261 0.950 . S
H10250 C10258 0.950 . S
H10251 C10260 0.950 . S
H10252 C10262 0.950 . S
H10253 C10264 0.950 . S
H10254 C10266 0.950 . S
H10255 C10267 0.950 . S
C10256 H10248 0.950 . S
C10256 C10257 1.386 . S
C10256 C10258 1.391 . S
C10257 C10256 1.386 . S
C10257 C10261 1.393 . S
C10258 H10250 0.950 . S
C10258 C10256 1.391 . S
C10258 C10259 1.400 . S
C10259 C10258 1.400 . S
C10259 C10260 1.398 . S
C10259 C10265 1.491 . S
C10260 H10251 0.950 . S
C10260 C10259 1.398 . S
C10260 C10261 1.391 . S
C10261 H10249 0.950 . S
C10261 C10257 1.393 . S
C10261 C10260 1.391 . S
C10262 H10252 0.950 . S
C10262 C10263 1.386 . S
C10262 C10264 1.391 . S
C10263 C10262 1.386 . S
C10263 C10267 1.393 . S
C10264 H10253 0.950 . S
C10264 C10262 1.391 . S
C10264 C10265 1.400 . S
C10265 C10259 1.491 . S
C10265 C10264 1.400 . S
C10265 C10266 1.398 . S
C10266 H10254 0.950 . S
C10266 C10265 1.398 . S
C10266 C10267 1.391 . S
C10267 H10255 0.950 . S
C10267 C10263 1.393 . S
C10267 C10266 1.391 . S
H10268 C10276 0.950 . S
H10269 C10281 0.950 . S
H10270 C10278 0.950 . S
H10271 C10280 0.950 . S
H10272 C10282 0.950 . S
H10273 C10284 0.950 . S
H10274 C10286 0.950 . S
H10275 C10287 0.950 . S
C10276 H10268 0.950 . S
C10276 C10277 1.386 . S
C10276 C10278 1.391 . S
C10277 C10276 1.386 . S
C10277 C10281 1.393 . S
C10278 H10270 0.950 . S
C10278 C10276 1.391 . S
C10278 C10279 1.400 . S
C10279 C10278 1.400 . S
C10279 C10280 1.398 . S
C10279 C10285 1.491 . S
C10280 H10271 0.950 . S
C10280 C10279 1.398 . S
C10280 C10281 1.391 . S
C10281 H10269 0.950 . S
C10281 C10277 1.393 . S
C10281 C10280 1.391 . S
C10282 H10272 0.950 . S
C10282 C10283 1.386 . S
C10282 C10284 1.391 . S
C10283 C10282 1.386 . S
C10283 C10287 1.393 . S
C10284 H10273 0.950 . S
C10284 C10282 1.391 . S
C10284 C10285 1.400 . S
C10285 C10279 1.491 . S
C10285 C10284 1.400 . S
C10285 C10286 1.398 . S
C10286 H10274 0.950 . S
C10286 C10285 1.398 . S
C10286 C10287 1.391 . S
C10287 H10275 0.950 . S
C10287 C10283 1.393 . S
C10287 C10286 1.391 . S
H10288 C10296 0.950 . S
H10289 C10301 0.950 . S
H10290 C10298 0.950 . S
H10291 C10300 0.950 . S
H10292 C10302 0.950 . S
H10293 C10304 0.950 . S
H10294 C10306 0.950 . S
H10295 C10307 0.950 . S
C10296 H10288 0.950 . S
C10296 C10297 1.386 . S
C10296 C10298 1.391 . S
C10297 C10296 1.386 . S
C10297 C10301 1.393 . S
C10298 H10290 0.950 . S
C10298 C10296 1.391 . S
C10298 C10299 1.400 . S
C10299 C10298 1.400 . S
C10299 C10300 1.398 . S
C10299 C10305 1.491 . S
C10300 H10291 0.950 . S
C10300 C10299 1.398 . S
C10300 C10301 1.391 . S
C10301 H10289 0.950 . S
C10301 C10297 1.393 . S
C10301 C10300 1.391 . S
C10302 H10292 0.950 . S
C10302 C10303 1.386 . S
C10302 C10304 1.391 . S
C10303 C10302 1.386 . S
C10303 C10307 1.393 . S
C10304 H10293 0.950 . S
C10304 C10302 1.391 . S
C10304 C10305 1.400 . S
C10305 C10299 1.491 . S
C10305 C10304 1.400 . S
C10305 C10306 1.398 . S
C10306 H10294 0.950 . S
C10306 C10305 1.398 . S
C10306 C10307 1.391 . S
C10307 H10295 0.950 . S
C10307 C10303 1.393 . S
C10307 C10306 1.391 . S
H10308 C10316 0.950 . S
H10309 C10321 0.950 . S
H10310 C10318 0.950 . S
H10311 C10320 0.950 . S
H10312 C10322 0.950 . S
H10313 C10324 0.950 . S
H10314 C10326 0.950 . S
H10315 C10327 0.950 . S
C10316 H10308 0.950 . S
C10316 C10317 1.386 . S
C10316 C10318 1.391 . S
C10317 C10316 1.386 . S
C10317 C10321 1.393 . S
C10318 H10310 0.950 . S
C10318 C10316 1.391 . S
C10318 C10319 1.400 . S
C10319 C10318 1.400 . S
C10319 C10320 1.398 . S
C10319 C10325 1.491 . S
C10320 H10311 0.950 . S
C10320 C10319 1.398 . S
C10320 C10321 1.391 . S
C10321 H10309 0.950 . S
C10321 C10317 1.393 . S
C10321 C10320 1.391 . S
C10322 H10312 0.950 . S
C10322 C10323 1.386 . S
C10322 C10324 1.391 . S
C10323 C10322 1.386 . S
C10323 C10327 1.393 . S
C10324 H10313 0.950 . S
C10324 C10322 1.391 . S
C10324 C10325 1.400 . S
C10325 C10319 1.491 . S
C10325 C10324 1.400 . S
C10325 C10326 1.398 . S
C10326 H10314 0.950 . S
C10326 C10325 1.398 . S
C10326 C10327 1.391 . S
C10327 H10315 0.950 . S
C10327 C10323 1.393 . S
C10327 C10326 1.391 . S
H10328 C10336 0.950 . S
H10329 C10341 0.950 . S
H10330 C10338 0.950 . S
H10331 C10340 0.950 . S
H10332 C10342 0.950 . S
H10333 C10344 0.950 . S
H10334 C10346 0.950 . S
H10335 C10347 0.950 . S
C10336 H10328 0.950 . S
C10336 C10337 1.386 . S
C10336 C10338 1.391 . S
C10337 C10336 1.386 . S
C10337 C10341 1.393 . S
C10338 H10330 0.950 . S
C10338 C10336 1.391 . S
C10338 C10339 1.400 . S
C10339 C10338 1.400 . S
C10339 C10340 1.398 . S
C10339 C10345 1.491 . S
C10340 H10331 0.950 . S
C10340 C10339 1.398 . S
C10340 C10341 1.391 . S
C10341 H10329 0.950 . S
C10341 C10337 1.393 . S
C10341 C10340 1.391 . S
C10342 H10332 0.950 . S
C10342 C10343 1.386 . S
C10342 C10344 1.391 . S
C10343 C10342 1.386 . S
C10343 C10347 1.393 . S
C10344 H10333 0.950 . S
C10344 C10342 1.391 . S
C10344 C10345 1.400 . S
C10345 C10339 1.491 . S
C10345 C10344 1.400 . S
C10345 C10346 1.398 . S
C10346 H10334 0.950 . S
C10346 C10345 1.398 . S
C10346 C10347 1.391 . S
C10347 H10335 0.950 . S
C10347 C10343 1.393 . S
C10347 C10346 1.391 . S
H10348 C10356 0.950 . S
H10349 C10361 0.950 . S
H10350 C10358 0.950 . S
H10351 C10360 0.950 . S
H10352 C10362 0.950 . S
H10353 C10364 0.950 . S
H10354 C10366 0.950 . S
H10355 C10367 0.950 . S
C10356 H10348 0.950 . S
C10356 C10357 1.386 . S
C10356 C10358 1.391 . S
C10357 C10356 1.386 . S
C10357 C10361 1.393 . S
C10358 H10350 0.950 . S
C10358 C10356 1.391 . S
C10358 C10359 1.400 . S
C10359 C10358 1.400 . S
C10359 C10360 1.398 . S
C10359 C10365 1.491 . S
C10360 H10351 0.950 . S
C10360 C10359 1.398 . S
C10360 C10361 1.391 . S
C10361 H10349 0.950 . S
C10361 C10357 1.393 . S
C10361 C10360 1.391 . S
C10362 H10352 0.950 . S
C10362 C10363 1.386 . S
C10362 C10364 1.391 . S
C10363 C10362 1.386 . S
C10363 C10367 1.393 . S
C10364 H10353 0.950 . S
C10364 C10362 1.391 . S
C10364 C10365 1.400 . S
C10365 C10359 1.491 . S
C10365 C10364 1.400 . S
C10365 C10366 1.398 . S
C10366 H10354 0.950 . S
C10366 C10365 1.398 . S
C10366 C10367 1.391 . S
C10367 H10355 0.950 . S
C10367 C10363 1.393 . S
C10367 C10366 1.391 . S
H10368 C10376 0.950 . S
H10369 C10381 0.950 . S
H10370 C10378 0.950 . S
H10371 C10380 0.950 . S
H10372 C10382 0.950 . S
H10373 C10384 0.950 . S
H10374 C10386 0.950 . S
H10375 C10387 0.950 . S
C10376 H10368 0.950 . S
C10376 C10377 1.386 . S
C10376 C10378 1.391 . S
C10377 C10376 1.386 . S
C10377 C10381 1.393 . S
C10378 H10370 0.950 . S
C10378 C10376 1.391 . S
C10378 C10379 1.400 . S
C10379 C10378 1.400 . S
C10379 C10380 1.398 . S
C10379 C10385 1.491 . S
C10380 H10371 0.950 . S
C10380 C10379 1.398 . S
C10380 C10381 1.391 . S
C10381 H10369 0.950 . S
C10381 C10377 1.393 . S
C10381 C10380 1.391 . S
C10382 H10372 0.950 . S
C10382 C10383 1.386 . S
C10382 C10384 1.391 . S
C10383 C10382 1.386 . S
C10383 C10387 1.393 . S
C10384 H10373 0.950 . S
C10384 C10382 1.391 . S
C10384 C10385 1.400 . S
C10385 C10379 1.491 . S
C10385 C10384 1.400 . S
C10385 C10386 1.398 . S
C10386 H10374 0.950 . S
C10386 C10385 1.398 . S
C10386 C10387 1.391 . S
C10387 H10375 0.950 . S
C10387 C10383 1.393 . S
C10387 C10386 1.391 . S
H10388 C10396 0.950 . S
H10389 C10401 0.950 . S
H10390 C10398 0.950 . S
H10391 C10400 0.950 . S
H10392 C10402 0.950 . S
H10393 C10404 0.950 . S
H10394 C10406 0.950 . S
H10395 C10407 0.950 . S
C10396 H10388 0.950 . S
C10396 C10397 1.386 . S
C10396 C10398 1.391 . S
C10397 C10396 1.386 . S
C10397 C10401 1.393 . S
C10398 H10390 0.950 . S
C10398 C10396 1.391 . S
C10398 C10399 1.400 . S
C10399 C10398 1.400 . S
C10399 C10400 1.398 . S
C10399 C10405 1.491 . S
C10400 H10391 0.950 . S
C10400 C10399 1.398 . S
C10400 C10401 1.391 . S
C10401 H10389 0.950 . S
C10401 C10397 1.393 . S
C10401 C10400 1.391 . S
C10402 H10392 0.950 . S
C10402 C10403 1.386 . S
C10402 C10404 1.391 . S
C10403 C10402 1.386 . S
C10403 C10407 1.393 . S
C10404 H10393 0.950 . S
C10404 C10402 1.391 . S
C10404 C10405 1.400 . S
C10405 C10399 1.491 . S
C10405 C10404 1.400 . S
C10405 C10406 1.398 . S
C10406 H10394 0.950 . S
C10406 C10405 1.398 . S
C10406 C10407 1.391 . S
C10407 H10395 0.950 . S
C10407 C10403 1.393 . S
C10407 C10406 1.391 . S
H10408 C10416 0.950 . S
H10409 C10421 0.950 . S
H10410 C10418 0.950 . S
H10411 C10420 0.950 . S
H10412 C10422 0.950 . S
H10413 C10424 0.950 . S
H10414 C10426 0.950 . S
H10415 C10427 0.950 . S
C10416 H10408 0.950 . S
C10416 C10417 1.386 . S
C10416 C10418 1.391 . S
C10417 C10416 1.386 . S
C10417 C10421 1.393 . S
C10418 H10410 0.950 . S
C10418 C10416 1.391 . S
C10418 C10419 1.400 . S
C10419 C10418 1.400 . S
C10419 C10420 1.398 . S
C10419 C10425 1.491 . S
C10420 H10411 0.950 . S
C10420 C10419 1.398 . S
C10420 C10421 1.391 . S
C10421 H10409 0.950 . S
C10421 C10417 1.393 . S
C10421 C10420 1.391 . S
C10422 H10412 0.950 . S
C10422 C10423 1.386 . S
C10422 C10424 1.391 . S
C10423 C10422 1.386 . S
C10423 C10427 1.393 . S
C10424 H10413 0.950 . S
C10424 C10422 1.391 . S
C10424 C10425 1.400 . S
C10425 C10419 1.491 . S
C10425 C10424 1.400 . S
C10425 C10426 1.398 . S
C10426 H10414 0.950 . S
C10426 C10425 1.398 . S
C10426 C10427 1.391 . S
C10427 H10415 0.950 . S
C10427 C10423 1.393 . S
C10427 C10426 1.391 . S
H10428 C10436 0.950 . S
H10429 C10441 0.950 . S
H10430 C10438 0.950 . S
H10431 C10440 0.950 . S
H10432 C10442 0.950 . S
H10433 C10444 0.950 . S
H10434 C10446 0.950 . S
H10435 C10447 0.950 . S
C10436 H10428 0.950 . S
C10436 C10437 1.386 . S
C10436 C10438 1.391 . S
C10437 C10436 1.386 . S
C10437 C10441 1.393 . S
C10438 H10430 0.950 . S
C10438 C10436 1.391 . S
C10438 C10439 1.400 . S
C10439 C10438 1.400 . S
C10439 C10440 1.398 . S
C10439 C10445 1.491 . S
C10440 H10431 0.950 . S
C10440 C10439 1.398 . S
C10440 C10441 1.391 . S
C10441 H10429 0.950 . S
C10441 C10437 1.393 . S
C10441 C10440 1.391 . S
C10442 H10432 0.950 . S
C10442 C10443 1.386 . S
C10442 C10444 1.391 . S
C10443 C10442 1.386 . S
C10443 C10447 1.393 . S
C10444 H10433 0.950 . S
C10444 C10442 1.391 . S
C10444 C10445 1.400 . S
C10445 C10439 1.491 . S
C10445 C10444 1.400 . S
C10445 C10446 1.398 . S
C10446 H10434 0.950 . S
C10446 C10445 1.398 . S
C10446 C10447 1.391 . S
C10447 H10435 0.950 . S
C10447 C10443 1.393 . S
C10447 C10446 1.391 . S
H10448 C10456 0.950 . S
H10449 C10461 0.950 . S
H10450 C10458 0.950 . S
H10451 C10460 0.950 . S
H10452 C10462 0.950 . S
H10453 C10464 0.950 . S
H10454 C10466 0.950 . S
H10455 C10467 0.950 . S
C10456 H10448 0.950 . S
C10456 C10457 1.386 . S
C10456 C10458 1.391 . S
C10457 C10456 1.386 . S
C10457 C10461 1.393 . S
C10458 H10450 0.950 . S
C10458 C10456 1.391 . S
C10458 C10459 1.400 . S
C10459 C10458 1.400 . S
C10459 C10460 1.398 . S
C10459 C10465 1.491 . S
C10460 H10451 0.950 . S
C10460 C10459 1.398 . S
C10460 C10461 1.391 . S
C10461 H10449 0.950 . S
C10461 C10457 1.393 . S
C10461 C10460 1.391 . S
C10462 H10452 0.950 . S
C10462 C10463 1.386 . S
C10462 C10464 1.391 . S
C10463 C10462 1.386 . S
C10463 C10467 1.393 . S
C10464 H10453 0.950 . S
C10464 C10462 1.391 . S
C10464 C10465 1.400 . S
C10465 C10459 1.491 . S
C10465 C10464 1.400 . S
C10465 C10466 1.398 . S
C10466 H10454 0.950 . S
C10466 C10465 1.398 . S
C10466 C10467 1.391 . S
C10467 H10455 0.950 . S
C10467 C10463 1.393 . S
C10467 C10466 1.391 . S
H10468 C10476 0.950 . S
H10469 C10481 0.950 . S
H10470 C10478 0.950 . S
H10471 C10480 0.950 . S
H10472 C10482 0.950 . S
H10473 C10484 0.950 . S
H10474 C10486 0.950 . S
H10475 C10487 0.950 . S
C10476 H10468 0.950 . S
C10476 C10477 1.386 . S
C10476 C10478 1.391 . S
C10477 C10476 1.386 . S
C10477 C10481 1.393 . S
C10478 H10470 0.950 . S
C10478 C10476 1.391 . S
C10478 C10479 1.400 . S
C10479 C10478 1.400 . S
C10479 C10480 1.398 . S
C10479 C10485 1.491 . S
C10480 H10471 0.950 . S
C10480 C10479 1.398 . S
C10480 C10481 1.391 . S
C10481 H10469 0.950 . S
C10481 C10477 1.393 . S
C10481 C10480 1.391 . S
C10482 H10472 0.950 . S
C10482 C10483 1.386 . S
C10482 C10484 1.391 . S
C10483 C10482 1.386 . S
C10483 C10487 1.393 . S
C10484 H10473 0.950 . S
C10484 C10482 1.391 . S
C10484 C10485 1.400 . S
C10485 C10479 1.491 . S
C10485 C10484 1.400 . S
C10485 C10486 1.398 . S
C10486 H10474 0.950 . S
C10486 C10485 1.398 . S
C10486 C10487 1.391 . S
C10487 H10475 0.950 . S
C10487 C10483 1.393 . S
C10487 C10486 1.391 . S
H10488 C10496 0.950 . S
H10489 C10501 0.950 . S
H10490 C10498 0.950 . S
H10491 C10500 0.950 . S
H10492 C10502 0.950 . S
H10493 C10504 0.950 . S
H10494 C10506 0.950 . S
H10495 C10507 0.950 . S
C10496 H10488 0.950 . S
C10496 C10497 1.386 . S
C10496 C10498 1.391 . S
C10497 C10496 1.386 . S
C10497 C10501 1.393 . S
C10498 H10490 0.950 . S
C10498 C10496 1.391 . S
C10498 C10499 1.400 . S
C10499 C10498 1.400 . S
C10499 C10500 1.398 . S
C10499 C10505 1.491 . S
C10500 H10491 0.950 . S
C10500 C10499 1.398 . S
C10500 C10501 1.391 . S
C10501 H10489 0.950 . S
C10501 C10497 1.393 . S
C10501 C10500 1.391 . S
C10502 H10492 0.950 . S
C10502 C10503 1.386 . S
C10502 C10504 1.391 . S
C10503 C10502 1.386 . S
C10503 C10507 1.393 . S
C10504 H10493 0.950 . S
C10504 C10502 1.391 . S
C10504 C10505 1.400 . S
C10505 C10499 1.491 . S
C10505 C10504 1.400 . S
C10505 C10506 1.398 . S
C10506 H10494 0.950 . S
C10506 C10505 1.398 . S
C10506 C10507 1.391 . S
C10507 H10495 0.950 . S
C10507 C10503 1.393 . S
C10507 C10506 1.391 . S
H10508 C10516 0.950 . S
H10509 C10521 0.950 . S
H10510 C10518 0.950 . S
H10511 C10520 0.950 . S
H10512 C10522 0.950 . S
H10513 C10524 0.950 . S
H10514 C10526 0.950 . S
H10515 C10527 0.950 . S
C10516 H10508 0.950 . S
C10516 C10517 1.386 . S
C10516 C10518 1.391 . S
C10517 C10516 1.386 . S
C10517 C10521 1.393 . S
C10518 H10510 0.950 . S
C10518 C10516 1.391 . S
C10518 C10519 1.400 . S
C10519 C10518 1.400 . S
C10519 C10520 1.398 . S
C10519 C10525 1.491 . S
C10520 H10511 0.950 . S
C10520 C10519 1.398 . S
C10520 C10521 1.391 . S
C10521 H10509 0.950 . S
C10521 C10517 1.393 . S
C10521 C10520 1.391 . S
C10522 H10512 0.950 . S
C10522 C10523 1.386 . S
C10522 C10524 1.391 . S
C10523 C10522 1.386 . S
C10523 C10527 1.393 . S
C10524 H10513 0.950 . S
C10524 C10522 1.391 . S
C10524 C10525 1.400 . S
C10525 C10519 1.491 . S
C10525 C10524 1.400 . S
C10525 C10526 1.398 . S
C10526 H10514 0.950 . S
C10526 C10525 1.398 . S
C10526 C10527 1.391 . S
C10527 H10515 0.950 . S
C10527 C10523 1.393 . S
C10527 C10526 1.391 . S
H10528 C10536 0.950 . S
H10529 C10541 0.950 . S
H10530 C10538 0.950 . S
H10531 C10540 0.950 . S
H10532 C10542 0.950 . S
H10533 C10544 0.950 . S
H10534 C10546 0.950 . S
H10535 C10547 0.950 . S
C10536 H10528 0.950 . S
C10536 C10537 1.386 . S
C10536 C10538 1.391 . S
C10537 C10536 1.386 . S
C10537 C10541 1.393 . S
C10538 H10530 0.950 . S
C10538 C10536 1.391 . S
C10538 C10539 1.400 . S
C10539 C10538 1.400 . S
C10539 C10540 1.398 . S
C10539 C10545 1.491 . S
C10540 H10531 0.950 . S
C10540 C10539 1.398 . S
C10540 C10541 1.391 . S
C10541 H10529 0.950 . S
C10541 C10537 1.393 . S
C10541 C10540 1.391 . S
C10542 H10532 0.950 . S
C10542 C10543 1.386 . S
C10542 C10544 1.391 . S
C10543 C10542 1.386 . S
C10543 C10547 1.393 . S
C10544 H10533 0.950 . S
C10544 C10542 1.391 . S
C10544 C10545 1.400 . S
C10545 C10539 1.491 . S
C10545 C10544 1.400 . S
C10545 C10546 1.398 . S
C10546 H10534 0.950 . S
C10546 C10545 1.398 . S
C10546 C10547 1.391 . S
C10547 H10535 0.950 . S
C10547 C10543 1.393 . S
C10547 C10546 1.391 . S
H10548 C10556 0.950 . S
H10549 C10561 0.950 . S
H10550 C10558 0.950 . S
H10551 C10560 0.950 . S
H10552 C10562 0.950 . S
H10553 C10564 0.950 . S
H10554 C10566 0.950 . S
H10555 C10567 0.950 . S
C10556 H10548 0.950 . S
C10556 C10557 1.386 . S
C10556 C10558 1.391 . S
C10557 C10556 1.386 . S
C10557 C10561 1.393 . S
C10558 H10550 0.950 . S
C10558 C10556 1.391 . S
C10558 C10559 1.400 . S
C10559 C10558 1.400 . S
C10559 C10560 1.398 . S
C10559 C10565 1.491 . S
C10560 H10551 0.950 . S
C10560 C10559 1.398 . S
C10560 C10561 1.391 . S
C10561 H10549 0.950 . S
C10561 C10557 1.393 . S
C10561 C10560 1.391 . S
C10562 H10552 0.950 . S
C10562 C10563 1.386 . S
C10562 C10564 1.391 . S
C10563 C10562 1.386 . S
C10563 C10567 1.393 . S
C10564 H10553 0.950 . S
C10564 C10562 1.391 . S
C10564 C10565 1.400 . S
C10565 C10559 1.491 . S
C10565 C10564 1.400 . S
C10565 C10566 1.398 . S
C10566 H10554 0.950 . S
C10566 C10565 1.398 . S
C10566 C10567 1.391 . S
C10567 H10555 0.950 . S
C10567 C10563 1.393 . S
C10567 C10566 1.391 . S
H10568 C10576 0.950 . S
H10569 C10581 0.950 . S
H10570 C10578 0.950 . S
H10571 C10580 0.950 . S
H10572 C10582 0.950 . S
H10573 C10584 0.950 . S
H10574 C10586 0.950 . S
H10575 C10587 0.950 . S
C10576 H10568 0.950 . S
C10576 C10577 1.386 . S
C10576 C10578 1.391 . S
C10577 C10576 1.386 . S
C10577 C10581 1.393 . S
C10578 H10570 0.950 . S
C10578 C10576 1.391 . S
C10578 C10579 1.400 . S
C10579 C10578 1.400 . S
C10579 C10580 1.398 . S
C10579 C10585 1.491 . S
C10580 H10571 0.950 . S
C10580 C10579 1.398 . S
C10580 C10581 1.391 . S
C10581 H10569 0.950 . S
C10581 C10577 1.393 . S
C10581 C10580 1.391 . S
C10582 H10572 0.950 . S
C10582 C10583 1.386 . S
C10582 C10584 1.391 . S
C10583 C10582 1.386 . S
C10583 C10587 1.393 . S
C10584 H10573 0.950 . S
C10584 C10582 1.391 . S
C10584 C10585 1.400 . S
C10585 C10579 1.491 . S
C10585 C10584 1.400 . S
C10585 C10586 1.398 . S
C10586 H10574 0.950 . S
C10586 C10585 1.398 . S
C10586 C10587 1.391 . S
C10587 H10575 0.950 . S
C10587 C10583 1.393 . S
C10587 C10586 1.391 . S
H10588 C10596 0.950 . S
H10589 C10601 0.950 . S
H10590 C10598 0.950 . S
H10591 C10600 0.950 . S
H10592 C10602 0.950 . S
H10593 C10604 0.950 . S
H10594 C10606 0.950 . S
H10595 C10607 0.950 . S
C10596 H10588 0.950 . S
C10596 C10597 1.386 . S
C10596 C10598 1.391 . S
C10597 C10596 1.386 . S
C10597 C10601 1.393 . S
C10598 H10590 0.950 . S
C10598 C10596 1.391 . S
C10598 C10599 1.400 . S
C10599 C10598 1.400 . S
C10599 C10600 1.398 . S
C10599 C10605 1.491 . S
C10600 H10591 0.950 . S
C10600 C10599 1.398 . S
C10600 C10601 1.391 . S
C10601 H10589 0.950 . S
C10601 C10597 1.393 . S
C10601 C10600 1.391 . S
C10602 H10592 0.950 . S
C10602 C10603 1.386 . S
C10602 C10604 1.391 . S
C10603 C10602 1.386 . S
C10603 C10607 1.393 . S
C10604 H10593 0.950 . S
C10604 C10602 1.391 . S
C10604 C10605 1.400 . S
C10605 C10599 1.491 . S
C10605 C10604 1.400 . S
C10605 C10606 1.398 . S
C10606 H10594 0.950 . S
C10606 C10605 1.398 . S
C10606 C10607 1.391 . S
C10607 H10595 0.950 . S
C10607 C10603 1.393 . S
C10607 C10606 1.391 . S
H10608 C10616 0.950 . S
H10609 C10621 0.950 . S
H10610 C10618 0.950 . S
H10611 C10620 0.950 . S
H10612 C10622 0.950 . S
H10613 C10624 0.950 . S
H10614 C10626 0.950 . S
H10615 C10627 0.950 . S
C10616 H10608 0.950 . S
C10616 C10617 1.386 . S
C10616 C10618 1.391 . S
C10617 C10616 1.386 . S
C10617 C10621 1.393 . S
C10618 H10610 0.950 . S
C10618 C10616 1.391 . S
C10618 C10619 1.400 . S
C10619 C10618 1.400 . S
C10619 C10620 1.398 . S
C10619 C10625 1.491 . S
C10620 H10611 0.950 . S
C10620 C10619 1.398 . S
C10620 C10621 1.391 . S
C10621 H10609 0.950 . S
C10621 C10617 1.393 . S
C10621 C10620 1.391 . S
C10622 H10612 0.950 . S
C10622 C10623 1.386 . S
C10622 C10624 1.391 . S
C10623 C10622 1.386 . S
C10623 C10627 1.393 . S
C10624 H10613 0.950 . S
C10624 C10622 1.391 . S
C10624 C10625 1.400 . S
C10625 C10619 1.491 . S
C10625 C10624 1.400 . S
C10625 C10626 1.398 . S
C10626 H10614 0.950 . S
C10626 C10625 1.398 . S
C10626 C10627 1.391 . S
C10627 H10615 0.950 . S
C10627 C10623 1.393 . S
C10627 C10626 1.391 . S
H10628 C10636 0.950 . S
H10629 C10641 0.950 . S
H10630 C10638 0.950 . S
H10631 C10640 0.950 . S
H10632 C10642 0.950 . S
H10633 C10644 0.950 . S
H10634 C10646 0.950 . S
H10635 C10647 0.950 . S
C10636 H10628 0.950 . S
C10636 C10637 1.386 . S
C10636 C10638 1.391 . S
C10637 C10636 1.386 . S
C10637 C10641 1.393 . S
C10638 H10630 0.950 . S
C10638 C10636 1.391 . S
C10638 C10639 1.400 . S
C10639 C10638 1.400 . S
C10639 C10640 1.398 . S
C10639 C10645 1.491 . S
C10640 H10631 0.950 . S
C10640 C10639 1.398 . S
C10640 C10641 1.391 . S
C10641 H10629 0.950 . S
C10641 C10637 1.393 . S
C10641 C10640 1.391 . S
C10642 H10632 0.950 . S
C10642 C10643 1.386 . S
C10642 C10644 1.391 . S
C10643 C10642 1.386 . S
C10643 C10647 1.393 . S
C10644 H10633 0.950 . S
C10644 C10642 1.391 . S
C10644 C10645 1.400 . S
C10645 C10639 1.491 . S
C10645 C10644 1.400 . S
C10645 C10646 1.398 . S
C10646 H10634 0.950 . S
C10646 C10645 1.398 . S
C10646 C10647 1.391 . S
C10647 H10635 0.950 . S
C10647 C10643 1.393 . S
C10647 C10646 1.391 . S
H10648 C10656 0.950 . S
H10649 C10661 0.950 . S
H10650 C10658 0.950 . S
H10651 C10660 0.950 . S
H10652 C10662 0.950 . S
H10653 C10664 0.950 . S
H10654 C10666 0.950 . S
H10655 C10667 0.950 . S
C10656 H10648 0.950 . S
C10656 C10657 1.386 . S
C10656 C10658 1.391 . S
C10657 C10656 1.386 . S
C10657 C10661 1.393 . S
C10658 H10650 0.950 . S
C10658 C10656 1.391 . S
C10658 C10659 1.400 . S
C10659 C10658 1.400 . S
C10659 C10660 1.398 . S
C10659 C10665 1.491 . S
C10660 H10651 0.950 . S
C10660 C10659 1.398 . S
C10660 C10661 1.391 . S
C10661 H10649 0.950 . S
C10661 C10657 1.393 . S
C10661 C10660 1.391 . S
C10662 H10652 0.950 . S
C10662 C10663 1.386 . S
C10662 C10664 1.391 . S
C10663 C10662 1.386 . S
C10663 C10667 1.393 . S
C10664 H10653 0.950 . S
C10664 C10662 1.391 . S
C10664 C10665 1.400 . S
C10665 C10659 1.491 . S
C10665 C10664 1.400 . S
C10665 C10666 1.398 . S
C10666 H10654 0.950 . S
C10666 C10665 1.398 . S
C10666 C10667 1.391 . S
C10667 H10655 0.950 . S
C10667 C10663 1.393 . S
C10667 C10666 1.391 . S
H10668 C10676 0.950 . S
H10669 C10681 0.950 . S
H10670 C10678 0.950 . S
H10671 C10680 0.950 . S
H10672 C10682 0.950 . S
H10673 C10684 0.950 . S
H10674 C10686 0.950 . S
H10675 C10687 0.950 . S
C10676 H10668 0.950 . S
C10676 C10677 1.386 . S
C10676 C10678 1.391 . S
C10677 C10676 1.386 . S
C10677 C10681 1.393 . S
C10678 H10670 0.950 . S
C10678 C10676 1.391 . S
C10678 C10679 1.400 . S
C10679 C10678 1.400 . S
C10679 C10680 1.398 . S
C10679 C10685 1.491 . S
C10680 H10671 0.950 . S
C10680 C10679 1.398 . S
C10680 C10681 1.391 . S
C10681 H10669 0.950 . S
C10681 C10677 1.393 . S
C10681 C10680 1.391 . S
C10682 H10672 0.950 . S
C10682 C10683 1.386 . S
C10682 C10684 1.391 . S
C10683 C10682 1.386 . S
C10683 C10687 1.393 . S
C10684 H10673 0.950 . S
C10684 C10682 1.391 . S
C10684 C10685 1.400 . S
C10685 C10679 1.491 . S
C10685 C10684 1.400 . S
C10685 C10686 1.398 . S
C10686 H10674 0.950 . S
C10686 C10685 1.398 . S
C10686 C10687 1.391 . S
C10687 H10675 0.950 . S
C10687 C10683 1.393 . S
C10687 C10686 1.391 . S
H10688 C10696 0.950 . S
H10689 C10701 0.950 . S
H10690 C10698 0.950 . S
H10691 C10700 0.950 . S
H10692 C10702 0.950 . S
H10693 C10704 0.950 . S
H10694 C10706 0.950 . S
H10695 C10707 0.950 . S
C10696 H10688 0.950 . S
C10696 C10697 1.386 . S
C10696 C10698 1.391 . S
C10697 C10696 1.386 . S
C10697 C10701 1.393 . S
C10698 H10690 0.950 . S
C10698 C10696 1.391 . S
C10698 C10699 1.400 . S
C10699 C10698 1.400 . S
C10699 C10700 1.398 . S
C10699 C10705 1.491 . S
C10700 H10691 0.950 . S
C10700 C10699 1.398 . S
C10700 C10701 1.391 . S
C10701 H10689 0.950 . S
C10701 C10697 1.393 . S
C10701 C10700 1.391 . S
C10702 H10692 0.950 . S
C10702 C10703 1.386 . S
C10702 C10704 1.391 . S
C10703 C10702 1.386 . S
C10703 C10707 1.393 . S
C10704 H10693 0.950 . S
C10704 C10702 1.391 . S
C10704 C10705 1.400 . S
C10705 C10699 1.491 . S
C10705 C10704 1.400 . S
C10705 C10706 1.398 . S
C10706 H10694 0.950 . S
C10706 C10705 1.398 . S
C10706 C10707 1.391 . S
C10707 H10695 0.950 . S
C10707 C10703 1.393 . S
C10707 C10706 1.391 . S
H10708 C10716 0.950 . S
H10709 C10721 0.950 . S
H10710 C10718 0.950 . S
H10711 C10720 0.950 . S
H10712 C10722 0.950 . S
H10713 C10724 0.950 . S
H10714 C10726 0.950 . S
H10715 C10727 0.950 . S
C10716 H10708 0.950 . S
C10716 C10717 1.386 . S
C10716 C10718 1.391 . S
C10717 C10716 1.386 . S
C10717 C10721 1.393 . S
C10718 H10710 0.950 . S
C10718 C10716 1.391 . S
C10718 C10719 1.400 . S
C10719 C10718 1.400 . S
C10719 C10720 1.398 . S
C10719 C10725 1.491 . S
C10720 H10711 0.950 . S
C10720 C10719 1.398 . S
C10720 C10721 1.391 . S
C10721 H10709 0.950 . S
C10721 C10717 1.393 . S
C10721 C10720 1.391 . S
C10722 H10712 0.950 . S
C10722 C10723 1.386 . S
C10722 C10724 1.391 . S
C10723 C10722 1.386 . S
C10723 C10727 1.393 . S
C10724 H10713 0.950 . S
C10724 C10722 1.391 . S
C10724 C10725 1.400 . S
C10725 C10719 1.491 . S
C10725 C10724 1.400 . S
C10725 C10726 1.398 . S
C10726 H10714 0.950 . S
C10726 C10725 1.398 . S
C10726 C10727 1.391 . S
C10727 H10715 0.950 . S
C10727 C10723 1.393 . S
C10727 C10726 1.391 . S
H10728 C10736 0.950 . S
H10729 C10741 0.950 . S
H10730 C10738 0.950 . S
H10731 C10740 0.950 . S
H10732 C10742 0.950 . S
H10733 C10744 0.950 . S
H10734 C10746 0.950 . S
H10735 C10747 0.950 . S
C10736 H10728 0.950 . S
C10736 C10737 1.386 . S
C10736 C10738 1.391 . S
C10737 C10736 1.386 . S
C10737 C10741 1.393 . S
C10738 H10730 0.950 . S
C10738 C10736 1.391 . S
C10738 C10739 1.400 . S
C10739 C10738 1.400 . S
C10739 C10740 1.398 . S
C10739 C10745 1.491 . S
C10740 H10731 0.950 . S
C10740 C10739 1.398 . S
C10740 C10741 1.391 . S
C10741 H10729 0.950 . S
C10741 C10737 1.393 . S
C10741 C10740 1.391 . S
C10742 H10732 0.950 . S
C10742 C10743 1.386 . S
C10742 C10744 1.391 . S
C10743 C10742 1.386 . S
C10743 C10747 1.393 . S
C10744 H10733 0.950 . S
C10744 C10742 1.391 . S
C10744 C10745 1.400 . S
C10745 C10739 1.491 . S
C10745 C10744 1.400 . S
C10745 C10746 1.398 . S
C10746 H10734 0.950 . S
C10746 C10745 1.398 . S
C10746 C10747 1.391 . S
C10747 H10735 0.950 . S
C10747 C10743 1.393 . S
C10747 C10746 1.391 . S
H10748 C10756 0.950 . S
H10749 C10761 0.950 . S
H10750 C10758 0.950 . S
H10751 C10760 0.950 . S
H10752 C10762 0.950 . S
H10753 C10764 0.950 . S
H10754 C10766 0.950 . S
H10755 C10767 0.950 . S
C10756 H10748 0.950 . S
C10756 C10757 1.386 . S
C10756 C10758 1.391 . S
C10757 C10756 1.386 . S
C10757 C10761 1.393 . S
C10758 H10750 0.950 . S
C10758 C10756 1.391 . S
C10758 C10759 1.400 . S
C10759 C10758 1.400 . S
C10759 C10760 1.398 . S
C10759 C10765 1.491 . S
C10760 H10751 0.950 . S
C10760 C10759 1.398 . S
C10760 C10761 1.391 . S
C10761 H10749 0.950 . S
C10761 C10757 1.393 . S
C10761 C10760 1.391 . S
C10762 H10752 0.950 . S
C10762 C10763 1.386 . S
C10762 C10764 1.391 . S
C10763 C10762 1.386 . S
C10763 C10767 1.393 . S
C10764 H10753 0.950 . S
C10764 C10762 1.391 . S
C10764 C10765 1.400 . S
C10765 C10759 1.491 . S
C10765 C10764 1.400 . S
C10765 C10766 1.398 . S
C10766 H10754 0.950 . S
C10766 C10765 1.398 . S
C10766 C10767 1.391 . S
C10767 H10755 0.950 . S
C10767 C10763 1.393 . S
C10767 C10766 1.391 . S
H10768 C10776 0.950 . S
H10769 C10781 0.950 . S
H10770 C10778 0.950 . S
H10771 C10780 0.950 . S
H10772 C10782 0.950 . S
H10773 C10784 0.950 . S
H10774 C10786 0.950 . S
H10775 C10787 0.950 . S
C10776 H10768 0.950 . S
C10776 C10777 1.386 . S
C10776 C10778 1.391 . S
C10777 C10776 1.386 . S
C10777 C10781 1.393 . S
C10778 H10770 0.950 . S
C10778 C10776 1.391 . S
C10778 C10779 1.400 . S
C10779 C10778 1.400 . S
C10779 C10780 1.398 . S
C10779 C10785 1.491 . S
C10780 H10771 0.950 . S
C10780 C10779 1.398 . S
C10780 C10781 1.391 . S
C10781 H10769 0.950 . S
C10781 C10777 1.393 . S
C10781 C10780 1.391 . S
C10782 H10772 0.950 . S
C10782 C10783 1.386 . S
C10782 C10784 1.391 . S
C10783 C10782 1.386 . S
C10783 C10787 1.393 . S
C10784 H10773 0.950 . S
C10784 C10782 1.391 . S
C10784 C10785 1.400 . S
C10785 C10779 1.491 . S
C10785 C10784 1.400 . S
C10785 C10786 1.398 . S
C10786 H10774 0.950 . S
C10786 C10785 1.398 . S
C10786 C10787 1.391 . S
C10787 H10775 0.950 . S
C10787 C10783 1.393 . S
C10787 C10786 1.391 . S
H10788 C10796 0.950 . S
H10789 C10801 0.950 . S
H10790 C10798 0.950 . S
H10791 C10800 0.950 . S
H10792 C10802 0.950 . S
H10793 C10804 0.950 . S
H10794 C10806 0.950 . S
H10795 C10807 0.950 . S
C10796 H10788 0.950 . S
C10796 C10797 1.386 . S
C10796 C10798 1.391 . S
C10797 C10796 1.386 . S
C10797 C10801 1.393 . S
C10798 H10790 0.950 . S
C10798 C10796 1.391 . S
C10798 C10799 1.400 . S
C10799 C10798 1.400 . S
C10799 C10800 1.398 . S
C10799 C10805 1.491 . S
C10800 H10791 0.950 . S
C10800 C10799 1.398 . S
C10800 C10801 1.391 . S
C10801 H10789 0.950 . S
C10801 C10797 1.393 . S
C10801 C10800 1.391 . S
C10802 H10792 0.950 . S
C10802 C10803 1.386 . S
C10802 C10804 1.391 . S
C10803 C10802 1.386 . S
C10803 C10807 1.393 . S
C10804 H10793 0.950 . S
C10804 C10802 1.391 . S
C10804 C10805 1.400 . S
C10805 C10799 1.491 . S
C10805 C10804 1.400 . S
C10805 C10806 1.398 . S
C10806 H10794 0.950 . S
C10806 C10805 1.398 . S
C10806 C10807 1.391 . S
C10807 H10795 0.950 . S
C10807 C10803 1.393 . S
C10807 C10806 1.391 . S
H10808 C10816 0.950 . S
H10809 C10821 0.950 . S
H10810 C10818 0.950 . S
H10811 C10820 0.950 . S
H10812 C10822 0.950 . S
H10813 C10824 0.950 . S
H10814 C10826 0.950 . S
H10815 C10827 0.950 . S
C10816 H10808 0.950 . S
C10816 C10817 1.386 . S
C10816 C10818 1.391 . S
C10817 C10816 1.386 . S
C10817 C10821 1.393 . S
C10818 H10810 0.950 . S
C10818 C10816 1.391 . S
C10818 C10819 1.400 . S
C10819 C10818 1.400 . S
C10819 C10820 1.398 . S
C10819 C10825 1.491 . S
C10820 H10811 0.950 . S
C10820 C10819 1.398 . S
C10820 C10821 1.391 . S
C10821 H10809 0.950 . S
C10821 C10817 1.393 . S
C10821 C10820 1.391 . S
C10822 H10812 0.950 . S
C10822 C10823 1.386 . S
C10822 C10824 1.391 . S
C10823 C10822 1.386 . S
C10823 C10827 1.393 . S
C10824 H10813 0.950 . S
C10824 C10822 1.391 . S
C10824 C10825 1.400 . S
C10825 C10819 1.491 . S
C10825 C10824 1.400 . S
C10825 C10826 1.398 . S
C10826 H10814 0.950 . S
C10826 C10825 1.398 . S
C10826 C10827 1.391 . S
C10827 H10815 0.950 . S
C10827 C10823 1.393 . S
C10827 C10826 1.391 . S
H10828 C10836 0.950 . S
H10829 C10841 0.950 . S
H10830 C10838 0.950 . S
H10831 C10840 0.950 . S
H10832 C10842 0.950 . S
H10833 C10844 0.950 . S
H10834 C10846 0.950 . S
H10835 C10847 0.950 . S
C10836 H10828 0.950 . S
C10836 C10837 1.386 . S
C10836 C10838 1.391 . S
C10837 C10836 1.386 . S
C10837 C10841 1.393 . S
C10838 H10830 0.950 . S
C10838 C10836 1.391 . S
C10838 C10839 1.400 . S
C10839 C10838 1.400 . S
C10839 C10840 1.398 . S
C10839 C10845 1.491 . S
C10840 H10831 0.950 . S
C10840 C10839 1.398 . S
C10840 C10841 1.391 . S
C10841 H10829 0.950 . S
C10841 C10837 1.393 . S
C10841 C10840 1.391 . S
C10842 H10832 0.950 . S
C10842 C10843 1.386 . S
C10842 C10844 1.391 . S
C10843 C10842 1.386 . S
C10843 C10847 1.393 . S
C10844 H10833 0.950 . S
C10844 C10842 1.391 . S
C10844 C10845 1.400 . S
C10845 C10839 1.491 . S
C10845 C10844 1.400 . S
C10845 C10846 1.398 . S
C10846 H10834 0.950 . S
C10846 C10845 1.398 . S
C10846 C10847 1.391 . S
C10847 H10835 0.950 . S
C10847 C10843 1.393 . S
C10847 C10846 1.391 . S
C5103 C4169 1.497 . S
C5097 C15 1.552 . S
C5123 C4806 1.477 . S
C5117 C55 1.550 . S
C5143 C4195 1.505 . S
C5137 C95 1.558 . S
C5163 C4780 1.478 . S
C5157 C135 1.549 . S
C5183 C4247 1.500 . S
C5177 C175 1.559 . S
C5197 C215 1.554 . S
C5203 C4832 1.502 . S
C5223 C4221 1.489 . S
C5217 C255 1.549 . S
C5243 C4858 1.503 . S
C5237 C295 1.559 . S
C5263 C5066 1.505 . S
C5257 C335 1.559 . S
C5277 C375 1.550 . S
C5283 C4988 1.490 . S
C5303 C5079 1.477 . S
C5297 C415 1.549 . S
C5317 C455 1.558 . S
C5323 C5053 1.493 . S
C5343 C5014 1.489 . S
C5337 C495 1.549 . S
C5363 C4403 1.483 . S
C5357 C535 1.554 . S
C5383 C4416 1.477 . S
C5377 C575 1.550 . S
C5397 C615 1.551 . S
C5403 C4377 1.493 . S
C5417 C655 1.551 . S
C5423 C4949 1.478 . S
C5443 C4299 1.497 . S
C5437 C695 1.559 . S
C5463 C4884 1.480 . S
C5457 C735 1.553 . S
C5483 C4273 1.479 . S
C5477 C775 1.552 . S
C5497 C815 1.557 . S
C5503 C4286 1.505 . S
C5523 C4975 1.501 . S
C5517 C855 1.559 . S
C5543 C4936 1.477 . S
C5537 C895 1.550 . S
C5557 C935 1.553 . S
C5563 C4962 1.480 . S
C5577 C975 1.560 . S
C5583 C3857 1.436 . S
C5597 C1015 1.561 . S
C5603 C4494 1.457 . S
C5623 C3883 1.445 . S
C5617 C1055 1.561 . S
C5637 C1095 1.560 . S
C5643 C4468 1.434 . S
C5663 C3935 1.451 . S
C5657 C1135 1.562 . S
C5677 C1175 1.560 . S
C5683 C4520 1.435 . S
C5703 C3909 1.453 . S
C5697 C1215 1.561 . S
C5723 C4546 1.431 . S
C5717 C1255 1.558 . S
C5737 C1295 1.555 . S
C5743 C4754 1.432 . S
C5763 C4676 1.438 . S
C5757 C1335 1.554 . S
C5777 C1375 1.557 . S
C5783 C4767 1.431 . S
C5803 C4741 1.454 . S
C5797 C1415 1.561 . S
C5823 C4702 1.464 . S
C5817 C1455 1.559 . S
C5837 C1495 1.557 . S
C5843 C4091 1.466 . S
C5857 C1535 1.556 . S
C5863 C4104 1.466 . S
C5883 C4065 1.458 . S
C5877 C1575 1.561 . S
C5897 C1615 1.553 . S
C5903 C4637 1.443 . S
C5923 C3987 1.456 . S
C5917 C1655 1.561 . S
C5937 C1695 1.561 . S
C5943 C4572 1.444 . S
C5963 C3961 1.434 . S
C5957 C1735 1.554 . S
C5977 C1775 1.558 . S
C5983 C3974 1.466 . S
C6003 C4663 1.447 . S
C5997 C1815 1.562 . S
C6023 C4624 1.464 . S
C6017 C1855 1.559 . S
C6043 C4650 1.431 . S
C6037 C1895 1.556 . S
C6057 C1935 1.558 . S
C6063 C4793 1.494 . S
C6083 C4182 1.477 . S
C6077 C1975 1.549 . S
C6103 C4819 1.477 . S
C6097 C2015 1.550 . S
C6123 C4156 1.488 . S
C6117 C2055 1.556 . S
C6137 C2095 1.549 . S
C6143 C4871 1.478 . S
C6163 C4208 1.505 . S
C6157 C2135 1.558 . S
C6183 C4845 1.504 . S
C6177 C2175 1.556 . S
C6203 C4234 1.487 . S
C6197 C2215 1.549 . S
C6217 C2255 1.559 . S
C6223 C4442 1.497 . S
C6243 C4364 1.487 . S
C6237 C2295 1.549 . S
C6263 C4455 1.504 . S
C6257 C2335 1.559 . S
C6277 C2375 1.553 . S
C6283 C4429 1.500 . S
C6297 C2415 1.554 . S
C6303 C4390 1.502 . S
C6317 C2455 1.550 . S
C6323 C5027 1.492 . S
C6337 C2495 1.558 . S
C6343 C5040 1.505 . S
C6363 C5001 1.501 . S
C6357 C2535 1.554 . S
C6377 C2575 1.559 . S
C6383 C4325 1.498 . S
C6403 C4923 1.493 . S
C6397 C2615 1.551 . S
C6423 C4260 1.502 . S
C6417 C2655 1.559 . S
C6443 C4897 1.503 . S
C6437 C2695 1.559 . S
C6457 C2735 1.555 . S
C6463 C4910 1.503 . S
C6477 C2775 1.552 . S
C6483 C4351 1.479 . S
C6503 C4312 1.480 . S
C6497 C2815 1.548 . S
C6517 C2855 1.550 . S
C6523 C4338 1.477 . S
C6537 C2895 1.560 . S
C6543 C4481 1.435 . S
C6563 C3870 1.434 . S
C6557 C2935 1.560 . S
C6583 C4507 1.463 . S
C6577 C2975 1.560 . S
C6597 C3015 1.555 . S
C6603 C3844 1.463 . S
C6623 C4559 1.451 . S
C6617 C3055 1.553 . S
C6643 C3896 1.466 . S
C6637 C3095 1.557 . S
C6657 C3135 1.553 . S
C6663 C4533 1.456 . S
C6677 C3175 1.561 . S
C6683 C3922 1.459 . S
C6703 C4130 1.442 . S
C6697 C3215 1.553 . S
C6717 C3255 1.560 . S
C6723 C4052 1.461 . S
C6743 C4143 1.447 . S
C6737 C3295 1.553 . S
C6763 C4117 1.466 . S
C6757 C3335 1.557 . S
C6777 C3375 1.561 . S
C6783 C4078 1.442 . S
C6797 C3415 1.554 . S
C6803 C4715 1.436 . S
C6823 C4728 1.466 . S
C6817 C3455 1.558 . S
C6837 C3495 1.559 . S
C6843 C4689 1.465 . S
C6863 C4013 1.449 . S
C6857 C3535 1.562 . S
C6883 C4611 1.432 . S
C6877 C3575 1.559 . S
C6897 C3615 1.559 . S
C6903 C3948 1.465 . S
C6917 C3655 1.553 . S
C6923 C4585 1.447 . S
C6937 C3695 1.554 . S
C6943 C4598 1.437 . S
C6957 C3735 1.561 . S
C6963 C4039 1.437 . S
C6977 C3775 1.553 . S
C6983 C4000 1.447 . S
C7003 C4026 1.466 . S
C6997 C3815 1.558 . S
C7023 C3965 1.557 . S
C7017 C2 1.540 . S
C7043 C3978 1.538 . S
C7037 C42 1.531 . S
C7057 C82 1.539 . S
C7063 C3991 1.544 . S
C7077 C122 1.541 . S
C7083 C3952 1.557 . S
C7097 C162 1.524 . S
C7103 C4043 1.552 . S
C7123 C4004 1.536 . S
C7117 C202 1.527 . S
C7143 C4017 1.550 . S
C7137 C242 1.523 . S
C7157 C282 1.535 . S
C7163 C4030 1.540 . S
C7177 C322 1.541 . S
C7183 C3887 1.546 . S
C7197 C362 1.524 . S
C7203 C3848 1.551 . S
C7217 C402 1.520 . S
C7223 C3861 1.537 . S
C7243 C3874 1.550 . S
C7237 C442 1.543 . S
C7257 C482 1.543 . S
C7263 C3913 1.549 . S
C7277 C522 1.519 . S
C7283 C3926 1.545 . S
C7297 C562 1.521 . S
C7303 C3939 1.536 . S
C7317 C602 1.527 . S
C7323 C3900 1.536 . S
C7343 C4082 1.541 . S
C7337 C642 1.535 . S
C7357 C682 1.540 . S
C7363 C4758 1.557 . S
C7383 C4056 1.557 . S
C7377 C722 1.535 . S
C7403 C4771 1.539 . S
C7397 C762 1.534 . S
C7417 C802 1.541 . S
C7423 C4745 1.557 . S
C7437 C842 1.520 . S
C7443 C4732 1.547 . S
C7463 C4693 1.549 . S
C7457 C882 1.522 . S
C7483 C4719 1.546 . S
C7477 C922 1.540 . S
C7503 C4277 1.562 . S
C7497 C962 1.592 . S
C7523 C4290 1.564 . S
C7517 C1002 1.591 . S
C7543 C4303 1.547 . S
C7537 C1042 1.590 . S
C7557 C1082 1.592 . S
C7563 C4264 1.561 . S
C7577 C1122 1.588 . S
C7583 C4355 1.547 . S
C7603 C4316 1.546 . S
C7597 C1162 1.589 . S
C7617 C1202 1.592 . S
C7623 C4329 1.562 . S
C7643 C4342 1.560 . S
C7637 C1242 1.592 . S
C7657 C1282 1.590 . S
C7663 C4199 1.547 . S
C7683 C4160 1.559 . S
C7677 C1322 1.592 . S
C7697 C1362 1.587 . S
C7703 C4173 1.556 . S
C7723 C4186 1.547 . S
C7717 C1402 1.590 . S
C7743 C4225 1.546 . S
C7737 C1442 1.589 . S
C7757 C1482 1.588 . S
C7763 C4238 1.546 . S
C7783 C4251 1.552 . S
C7777 C1522 1.587 . S
C7803 C4212 1.547 . S
C7797 C1562 1.588 . S
C7823 C4394 1.547 . S
C7817 C1602 1.590 . S
C7843 C5070 1.549 . S
C7837 C1642 1.587 . S
C7863 C4368 1.565 . S
C7857 C1682 1.591 . S
C7877 C1722 1.591 . S
C7883 C5083 1.565 . S
C7897 C1762 1.591 . S
C7903 C5057 1.565 . S
C7923 C5044 1.560 . S
C7917 C1802 1.592 . S
C7943 C5005 1.556 . S
C7937 C1842 1.587 . S
C7963 C5031 1.554 . S
C7957 C1882 1.587 . S
C7977 C1922 1.536 . S
C7983 C4589 1.541 . S
C8003 C4602 1.541 . S
C7997 C1962 1.536 . S
C8017 C2002 1.543 . S
C8023 C4615 1.556 . S
C8043 C4576 1.538 . S
C8037 C2042 1.531 . S
C8057 C2082 1.539 . S
C8063 C4667 1.558 . S
C8077 C2122 1.522 . S
C8083 C4628 1.549 . S
C8097 C2162 1.520 . S
C8103 C4641 1.546 . S
C8117 C2202 1.543 . S
C8123 C4654 1.552 . S
C8137 C2242 1.539 . S
C8143 C4511 1.558 . S
C8163 C4472 1.555 . S
C8157 C2282 1.543 . S
C8183 C4485 1.556 . S
C8177 C2322 1.542 . S
C8197 C2362 1.519 . S
C8203 C4498 1.538 . S
C8217 C2402 1.518 . S
C8223 C4537 1.539 . S
C8237 C2442 1.541 . S
C8243 C4550 1.547 . S
C8257 C2482 1.539 . S
C8263 C4563 1.544 . S
C8277 C2522 1.535 . S
C8283 C4524 1.557 . S
C8303 C4706 1.549 . S
C8297 C2562 1.522 . S
C8323 C4134 1.542 . S
C8317 C2602 1.537 . S
C8343 C4680 1.545 . S
C8337 C2642 1.540 . S
C8363 C4147 1.548 . S
C8357 C2682 1.542 . S
C8383 C4121 1.544 . S
C8377 C2722 1.539 . S
C8403 C4108 1.556 . S
C8397 C2762 1.542 . S
C8417 C2802 1.518 . S
C8423 C4069 1.543 . S
C8443 C4095 1.540 . S
C8437 C2842 1.518 . S
C8457 C2882 1.592 . S
C8463 C4901 1.556 . S
C8477 C2922 1.591 . S
C8483 C4914 1.564 . S
C8503 C4927 1.555 . S
C8497 C2962 1.587 . S
C8517 C3002 1.589 . S
C8523 C4888 1.546 . S
C8543 C4979 1.550 . S
C8537 C3042 1.591 . S
C8557 C3082 1.587 . S
C8563 C4940 1.552 . S
C8577 C3122 1.588 . S
C8583 C4953 1.562 . S
C8603 C4966 1.557 . S
C8597 C3162 1.587 . S
C8623 C4823 1.548 . S
C8617 C3202 1.590 . S
C8643 C4784 1.562 . S
C8637 C3242 1.588 . S
C8663 C4797 1.565 . S
C8657 C3282 1.590 . S
C8683 C4810 1.565 . S
C8677 C3322 1.591 . S
C8697 C3362 1.587 . S
C8703 C4849 1.553 . S
C8723 C4862 1.546 . S
C8717 C3402 1.589 . S
C8737 C3442 1.591 . S
C8743 C4875 1.564 . S
C8757 C3482 1.587 . S
C8763 C4836 1.551 . S
C8777 C3522 1.591 . S
C8783 C5018 1.566 . S
C8797 C3562 1.591 . S
C8803 C4446 1.551 . S
C8817 C3602 1.589 . S
C8823 C4992 1.546 . S
C8843 C4459 1.556 . S
C8837 C3642 1.587 . S
C8857 C3682 1.591 . S
C8863 C4433 1.565 . S
C8877 C3722 1.591 . S
C8883 C4420 1.564 . S
C8897 C3762 1.592 . S
C8903 C4381 1.562 . S
C8923 C4407 1.549 . S
C8917 C3802 1.591 . S
C8937 C21 1.615 . S
C8943 C3849 1.638 . S
C8957 C61 1.615 . S
C8963 C3862 1.637 . S
C8977 C101 1.625 . S
C8983 C3875 1.657 . S
C9003 C3888 1.654 . S
C8997 C141 1.618 . S
C9023 C3901 1.636 . S
C9017 C181 1.625 . S
C9037 C221 1.627 . S
C9043 C3914 1.657 . S
C9057 C261 1.617 . S
C9063 C3927 1.637 . S
C9077 C301 1.637 . S
C9083 C3940 1.650 . S
C9103 C3953 1.642 . S
C9097 C341 1.612 . S
C9123 C3966 1.652 . S
C9117 C381 1.616 . S
C9137 C421 1.628 . S
C9143 C3979 1.637 . S
C9163 C3992 1.636 . S
C9157 C461 1.625 . S
C9177 C501 1.631 . S
C9183 C4005 1.639 . S
C9197 C541 1.612 . S
C9203 C4018 1.643 . S
C9217 C581 1.637 . S
C9223 C4031 1.652 . S
C9237 C621 1.617 . S
C9243 C4044 1.636 . S
C9257 C661 1.633 . S
C9263 C4057 1.656 . S
C9277 C701 1.629 . S
C9283 C4070 1.657 . S
C9303 C4083 1.636 . S
C9297 C741 1.624 . S
C9323 C4096 1.643 . S
C9317 C781 1.635 . S
C9343 C4109 1.657 . S
C9337 C821 1.631 . S
C9363 C4122 1.656 . S
C9357 C861 1.632 . S
C9377 C901 1.614 . S
C9383 C4135 1.649 . S
C9403 C4148 1.640 . S
C9397 C941 1.613 . S
C9417 C981 1.689 . S
C9423 C4161 1.660 . S
C9437 C1021 1.688 . S
C9443 C4174 1.656 . S
C9457 C1061 1.696 . S
C9463 C4187 1.648 . S
C9483 C4200 1.659 . S
C9477 C1101 1.692 . S
C9497 C1141 1.696 . S
C9503 C4213 1.649 . S
C9523 C4226 1.657 . S
C9517 C1181 1.693 . S
C9537 C1221 1.695 . S
C9543 C4239 1.643 . S
C9557 C1261 1.693 . S
C9563 C4252 1.641 . S
C9583 C4265 1.656 . S
C9577 C1301 1.688 . S
C9597 C1341 1.696 . S
C9603 C4278 1.646 . S
C9623 C4291 1.660 . S
C9617 C1381 1.689 . S
C9637 C1421 1.691 . S
C9643 C4304 1.645 . S
C9663 C4317 1.653 . S
C9657 C1461 1.689 . S
C9683 C4330 1.648 . S
C9677 C1501 1.696 . S
C9703 C4343 1.644 . S
C9697 C1541 1.691 . S
C9717 C1581 1.692 . S
C9723 C4356 1.660 . S
C9737 C1621 1.696 . S
C9743 C4369 1.648 . S
C9757 C1661 1.688 . S
C9763 C4382 1.657 . S
C9777 C1701 1.696 . S
C9783 C4395 1.648 . S
C9797 C1741 1.689 . S
C9803 C4408 1.661 . S
C9817 C1781 1.695 . S
C9823 C4421 1.643 . S
C9843 C4434 1.660 . S
C9837 C1821 1.692 . S
C9857 C1861 1.694 . S
C9863 C4447 1.657 . S
C9883 C4460 1.655 . S
C9877 C1901 1.689 . S
C9897 C1941 1.621 . S
C9903 C4473 1.655 . S
C9923 C4486 1.657 . S
C9917 C1981 1.631 . S
C9943 C4499 1.655 . S
C9937 C2021 1.635 . S
C9963 C4512 1.644 . S
C9957 C2061 1.636 . S
C9977 C2101 1.637 . S
C9983 C4525 1.645 . S
C9997 C2141 1.614 . S
C10003 C4538 1.639 . S
C10023 C4551 1.652 . S
C10017 C2181 1.637 . S
C10043 C4564 1.646 . S
C10037 C2221 1.612 . S
C10057 C2261 1.637 . S
C10063 C4577 1.650 . S
C10077 C2301 1.626 . S
C10083 C4590 1.657 . S
C10097 C2341 1.637 . S
C10103 C4603 1.647 . S
C10117 C2381 1.637 . S
C10123 C4616 1.649 . S
C10137 C2421 1.636 . S
C10143 C4629 1.653 . S
C10163 C4642 1.641 . S
C10157 C2461 1.633 . S
C10183 C4655 1.637 . S
C10177 C2501 1.617 . S
C10203 C4668 1.645 . S
C10197 C2541 1.612 . S
C10223 C4681 1.657 . S
C10217 C2581 1.632 . S
C10237 C2621 1.612 . S
C10243 C4694 1.645 . S
C10257 C2661 1.616 . S
C10263 C4707 1.637 . S
C10283 C4720 1.646 . S
C10277 C2701 1.612 . S
C10297 C2741 1.613 . S
C10303 C4733 1.647 . S
C10323 C4746 1.637 . S
C10317 C2781 1.616 . S
C10343 C4759 1.646 . S
C10337 C2821 1.612 . S
C10363 C4772 1.657 . S
C10357 C2861 1.627 . S
C10377 C2901 1.693 . S
C10383 C4785 1.659 . S
C10397 C2941 1.689 . S
C10403 C4798 1.660 . S
C10417 C2981 1.696 . S
C10423 C4811 1.647 . S
C10437 C3021 1.696 . S
C10443 C4824 1.647 . S
C10463 C4837 1.661 . S
C10457 C3061 1.689 . S
C10483 C4850 1.661 . S
C10477 C3101 1.690 . S
C10503 C4863 1.660 . S
C10497 C3141 1.692 . S
C10517 C3181 1.691 . S
C10523 C4876 1.645 . S
C10537 C3221 1.691 . S
C10543 C4889 1.645 . S
C10563 C4902 1.651 . S
C10557 C3261 1.689 . S
C10583 C4915 1.641 . S
C10577 C3301 1.694 . S
C10603 C4928 1.648 . S
C10597 C3341 1.696 . S
C10623 C4941 1.649 . S
C10617 C3381 1.690 . S
C10643 C4954 1.642 . S
C10637 C3421 1.695 . S
C10663 C4967 1.657 . S
C10657 C3461 1.689 . S
C10683 C4980 1.660 . S
C10677 C3501 1.691 . S
C10703 C4993 1.660 . S
C10697 C3541 1.692 . S
C10723 C5006 1.655 . S
C10717 C3581 1.689 . S
C10743 C5019 1.652 . S
C10737 C3621 1.689 . S
C10757 C3661 1.696 . S
C10763 C5032 1.646 . S
C10783 C5045 1.655 . S
C10777 C3701 1.689 . S
C10797 C3741 1.694 . S
C10803 C5058 1.656 . S
C10823 C5071 1.661 . S
C10817 C3781 1.691 . S
C10843 C5084 1.652 . S
C10837 C3821 1.695 . S
