# Generated by pormake.
# Topology rtl, (3,6)-cn, num edge types: 1
# Building blocks:
#     Node 0, Type 0, BuildingBlock: QEWDON_clean_linker_0, # of connection points: 3
#     Node 1, Type 0, BuildingBlock: QEWDON_clean_linker_0, # of connection points: 3
#     Node 2, Type 0, BuildingBlock: QEWDON_clean_linker_0, # of connection points: 3
#     Node 3, Type 0, BuildingBlock: QEWDON_clean_linker_0, # of connection points: 3
#     Node 4, Type 1, BuildingBlock: KUMJIN_clean_sbu_1, # of connection points: 6
#     Node 5, Type 1, BuildingBlock: KUMJIN_clean_sbu_1, # of connection points: 6
#     Edge 6, Type (0, 1), BuildingBlock: MIFKUJ_clean_linker_0, # of connection points: 2
#     Edge 7, Type (0, 1), BuildingBlock: MIFKUJ_clean_linker_0, # of connection points: 2
#     Edge 8, Type (0, 1), BuildingBlock: MIFKUJ_clean_linker_0, # of connection points: 2
#     Edge 9, Type (0, 1), BuildingBlock: MIFKUJ_clean_linker_0, # of connection points: 2
#     Edge 10, Type (0, 1), BuildingBlock: MIFKUJ_clean_linker_0, # of connection points: 2
#     Edge 11, Type (0, 1), BuildingBlock: MIFKUJ_clean_linker_0, # of connection points: 2
#     Edge 12, Type (0, 1), BuildingBlock: MIFKUJ_clean_linker_0, # of connection points: 2
#     Edge 13, Type (0, 1), BuildingBlock: MIFKUJ_clean_linker_0, # of connection points: 2
#     Edge 14, Type (0, 1), BuildingBlock: MIFKUJ_clean_linker_0, # of connection points: 2
#     Edge 15, Type (0, 1), BuildingBlock: MIFKUJ_clean_linker_0, # of connection points: 2
#     Edge 16, Type (0, 1), BuildingBlock: MIFKUJ_clean_linker_0, # of connection points: 2
#     Edge 17, Type (0, 1), BuildingBlock: MIFKUJ_clean_linker_0, # of connection points: 2
# Relax obj value: 0.084
# Max RMSD: 0.264
# Mean RMSD: 0.205
data_MOF--net-rtl--node1-KUMJIN_clean_sbu_1--node2-QEWDON_clean_linker_0--edge1-MIFKUJ_clean_linker_0
_symmetry_space_group_name_H-M    P1
_symmetry_Int_Tables_number       1
_symmetry_cell_setting            triclinic
loop_
_symmetry_equiv_pos_as_xyz
'x, y, z'
_cell_length_a     48.305411
_cell_length_b     47.853922
_cell_length_c     33.644736
_cell_angle_alpha  81.153265
_cell_angle_beta   100.4736
_cell_angle_gamma 90.837849
loop_
_atom_site_label
_atom_site_type_symbol
_atom_site_fract_x
_atom_site_fract_y
_atom_site_fract_z
_atom_type_partial_charge
H0 H 0.26902 0.85031 0.08615 0.0
C1 C 0.25487 0.85722 0.0575 0.0
C2 C 0.23098 0.87389 0.05695 0.0
C3 C 0.26141 0.85128 0.0205 0.0
H4 H 0.19546 0.89739 0.01956 0.0
C5 C 0.21368 0.88437 0.01965 0.0
C6 C 0.21978 0.87854 0.98262 0.0
C7 C 0.24342 0.86158 0.98339 0.0
C8 C 0.28971 0.84042 0.01864 0.0
H9 H 0.24899 0.85794 0.95479 0.0
C10 C 0.29945 0.81253 0.03533 0.0
C11 C 0.32637 0.8036 0.03058 0.0
C12 C 0.30696 0.85888 0.99769 0.0
H13 H 0.29996 0.88031 0.98475 0.0
C14 C 0.33319 0.85002 0.99273 0.0
H15 H 0.28629 0.79804 0.05142 0.0
C16 C 0.34277 0.82268 0.00882 0.0
H17 H 0.36312 0.81629 1.00375 0.0
H18 H 0.34609 0.86439 0.97608 0.0
H19 H 0.70586 0.74155 0.56869 0.0
C20 C 0.69358 0.73421 0.59208 0.0
C21 C 0.67048 0.71667 0.58304 0.0
C22 C 0.70147 0.74094 0.63185 0.0
H23 H 0.63917 0.6908 0.60518 0.0
C24 C 0.65587 0.70502 0.61384 0.0
C25 C 0.6632 0.71085 0.65423 0.0
C26 C 0.68512 0.73037 0.66168 0.0
C27 C 0.72825 0.75632 0.64438 0.0
H28 H 0.69028 0.7373 0.69103 0.0
C29 C 0.73906 0.77794 0.61767 0.0
C30 C 0.76458 0.7913 0.63147 0.0
C31 C 0.74391 0.74834 0.68419 0.0
H32 H 0.73741 0.73106 0.7051 0.0
C33 C 0.76862 0.762 0.69777 0.0
H34 H 0.72793 0.78431 0.58667 0.0
C35 C 0.77885 0.78336 0.67172 0.0
H36 H 0.79839 0.79343 0.68278 0.0
H37 H 0.78015 0.75568 0.72852 0.0
H38 H 0.78769 0.17756 0.08398 0.0
C39 C 0.79689 0.17208 0.05909 0.0
C40 C 0.82204 0.15562 0.06772 0.0
C41 C 0.78328 0.18056 0.01807 0.0
H42 H 0.85141 0.13364 0.04161 0.0
C43 C 0.83285 0.14724 0.03533 0.0
C44 C 0.81965 0.15547 0.99492 0.0
C45 C 0.79551 0.17263 0.98632 0.0
C46 C 0.75456 0.19409 0.00706 0.0
H47 H 0.78558 0.17887 0.95463 0.0
C48 C 0.74676 0.21808 0.02299 0.0
C49 C 0.71936 0.23027 0.00924 0.0
C50 C 0.73455 0.18268 0.97812 0.0
H51 H 0.73945 0.16404 0.96594 0.0
C52 C 0.70808 0.19504 0.96407 0.0
H53 H 0.76168 0.22713 0.04548 0.0
C54 C 0.70059 0.21864 0.97922 0.0
H55 H 0.67982 0.22789 0.96737 0.0
H56 H 0.69322 0.18622 0.94128 0.0
H57 H 0.3561 0.27822 0.50923 0.0
C58 C 0.36204 0.29125 0.48289 0.0
C59 C 0.38023 0.31433 0.4885 0.0
C60 C 0.3535 0.2837 0.44352 0.0
H61 H 0.40261 0.34806 0.45813 0.0
C62 C 0.38904 0.33004 0.45434 0.0
C63 C 0.38102 0.32284 0.41528 0.0
C64 C 0.36254 0.30034 0.4098 0.0
C65 C 0.3397 0.25602 0.43758 0.0
H66 H 0.35656 0.29467 0.37945 0.0
C67 C 0.31611 0.24577 0.4551 0.0
C68 C 0.3044 0.2192 0.44782 0.0
C69 C 0.35118 0.23921 0.41357 0.0
H70 H 0.36965 0.24583 0.40072 0.0
C71 C 0.33936 0.21355 0.40586 0.0
H72 H 0.30713 0.25816 0.4741 0.0
C73 C 0.31616 0.20371 0.42253 0.0
H74 H 0.30735 0.1837 0.41557 0.0
H75 H 0.34833 0.20112 0.38693 0.0
Eu76 Eu 0.03929 0.98727 0.49538 0.0
C77 C 0.98451 0.10613 0.50599 0.0
N78 N 0.00926 0.09349 0.52597 0.0
C79 C 0.03164 0.13857 0.52507 0.0
C80 C 0.98228 0.13582 0.49595 0.0
C81 C 0.03258 0.1092 0.53621 0.0
C82 C 1.00637 0.15196 0.50499 0.0
C83 C 0.93451 0.10221 0.47985 0.0
C84 C 0.96093 0.08944 0.49713 0.0
C85 C 0.93207 0.13181 0.47187 0.0
C86 C 0.95595 0.14854 0.47884 0.0
Eu87 Eu 1.00648 0.04457 0.54804 0.0
N88 N 0.96359 0.06081 0.50667 0.0
C89 C 0.91115 0.08485 0.47238 0.0
C90 C 0.94099 0.04383 0.499 0.0
C91 C 0.9145 0.05554 0.48131 0.0
H92 H 0.0517 0.0994 0.55427 0.0
H93 H 0.89658 0.04197 0.47543 0.0
H94 H 1.0015 0.92913 0.48059 0.0
H95 H 0.15194 0.99188 0.54929 0.0
H96 H 0.94327 0.02131 0.5066 0.0
H97 H 0.89038 0.09379 0.46026 0.0
H98 H 0.10499 0.00962 0.51255 0.0
H99 H 0.05019 0.15093 0.5331 0.0
H100 H 0.91173 0.14204 0.46083 0.0
H101 H 0.95368 0.17135 0.47197 0.0
H102 H 1.00259 0.87833 0.51064 0.0
H103 H 1.0055 0.17481 0.49748 0.0
H104 H 0.15732 0.94251 0.58434 0.0
N105 N 0.03981 0.93809 0.51783 0.0
C106 C 0.06381 0.92723 0.54269 0.0
C107 C 0.01975 0.89193 0.52053 0.0
C108 C 0.06624 0.89821 0.55884 0.0
C109 C 0.01872 0.92072 0.50449 0.0
C110 C 0.04338 0.88073 0.54859 0.0
N111 N 0.08394 0.97263 0.5327 0.0
C112 C 0.10697 0.98913 0.53108 0.0
C113 C 0.11306 0.93348 0.57037 0.0
C114 C 0.08682 0.94481 0.54926 0.0
C115 C 0.13658 0.95088 0.57089 0.0
C116 C 0.13362 0.97874 0.55079 0.0
H117 H 0.04434 0.85833 0.56051 0.0
H118 H 0.09393 0.86519 0.59605 0.0
H119 H 0.13516 0.89596 0.60537 0.0
O120 O 0.05692 1.00238 0.43993 0.0
O121 O 0.04775 0.98093 0.56559 0.0
O122 O 0.04659 0.02464 0.58624 0.0
O123 O 0.04753 0.95823 0.45522 0.0
O124 O 0.0564 0.03253 0.48908 0.0
O125 O 0.05311 0.05016 0.5481 0.0
O126 O 0.98306 0.03254 0.59828 0.0
O127 O 1.00022 0.05034 0.47794 0.0
O128 O 0.99714 1.00545 0.46089 0.0
O129 O 1.00097 0.07409 0.58915 0.0
O130 O 0.98876 1.00005 0.55679 0.0
O131 O 0.99391 0.97708 0.50252 0.0
C132 C 0.05388 0.99774 0.59343 0.0
C133 C 0.05273 0.97317 0.38729 0.0
C134 C 0.07194 0.96068 0.33011 0.0
C135 C 0.04456 0.95552 0.31045 0.0
C136 C 0.02547 0.96821 0.36713 0.0
C137 C 0.02146 0.95955 0.32871 0.0
C138 C 0.07593 0.96985 0.3684 0.0
C139 C 0.06537 0.04903 0.5166 0.0
C140 C 0.05799 0.97708 0.43035 0.0
C141 C 0.09176 0.88737 0.58297 0.0
C142 C 0.11523 0.9049 0.58831 0.0
C143 C 0.99114 0.03262 0.45225 0.0
C144 C 0.99278 0.05745 0.65538 0.0
C145 C 0.97634 0.06581 0.717 0.0
C146 C 1.00444 0.06687 0.73689 0.0
C147 C 0.02071 0.05838 0.67587 0.0
C148 C 0.97055 0.06073 0.67625 0.0
C149 C 0.02646 0.0629 0.71653 0.0
C150 C 0.9814 0.98049 0.5334 0.0
C151 C 0.98656 0.05695 0.61108 0.0
H152 H 0.04112 0.94813 0.28109 0.0
H153 H 1.00749 0.97009 0.3817 0.0
H154 H 1.00046 0.95528 0.31347 0.0
H155 H 0.09712 0.97285 0.3844 0.0
H156 H 0.00931 0.07116 0.76809 0.0
H157 H 0.03801 0.05658 0.65997 0.0
H158 H 0.94892 0.06086 0.66024 0.0
H159 H 0.04805 0.06407 0.732 0.0
Eu160 Eu 0.49602 0.50162 0.99322 0.0
C161 C 0.61558 0.54375 0.0593 0.0
N162 N 0.60124 0.52018 0.07125 0.0
C163 C 0.64293 0.49178 0.07783 0.0
C164 C 0.64383 0.54193 0.05418 0.0
C165 C 0.61522 0.49477 0.08339 0.0
C166 C 0.65712 0.51537 0.06229 0.0
C167 C 0.61814 0.59505 0.04791 0.0
C168 C 0.60303 0.57006 0.0564 0.0
C169 C 0.64563 0.59324 0.04037 0.0
C170 C 0.65847 0.56674 0.04363 0.0
Eu171 Eu 0.55493 0.52822 0.0822 0.0
N172 N 0.5765 0.57127 0.06408 0.0
C173 C 0.60536 0.6211 0.04829 0.0
C174 C 0.56485 0.59626 0.06778 0.0
C175 C 0.5787 0.62167 0.05881 0.0
H176 H 0.60553 0.47683 0.09877 0.0
H177 H 0.56907 0.64157 0.06076 0.0
H178 H 0.4404 0.54616 0.97005 0.0
H179 H 0.50054 0.38705 0.03765 0.0
H180 H 0.54512 0.59626 0.07844 0.0
H181 H 0.61622 0.64077 0.04178 0.0
H182 H 0.51904 0.43394 0.016 0.0
H183 H 0.65357 0.47142 0.08665 0.0
H184 H 0.65747 0.61219 0.03334 0.0
H185 H 0.68014 0.56569 0.03953 0.0
H186 H 0.39008 0.54504 0.97539 0.0
H187 H 0.67881 0.5131 0.05888 0.0
H188 H 0.45091 0.38245 0.04565 0.0
N189 N 0.44822 0.50332 0.99768 0.0
C190 C 0.43694 0.47822 0.0111 0.0
C191 C 0.40307 0.52618 0.98591 0.0
C192 C 0.40814 0.47647 0.01376 0.0
C193 C 0.43164 0.52682 0.98339 0.0
C194 C 0.39134 0.50099 1.00172 0.0
N195 N 0.48176 0.45605 0.0179 0.0
C196 C 0.49822 0.43247 0.02292 0.0
C197 C 0.44235 0.42748 0.03271 0.0
C198 C 0.45406 0.45396 0.02117 0.0
C199 C 0.45943 0.40327 0.03894 0.0
C200 C 0.48747 0.40577 0.03411 0.0
H201 H 0.36914 0.5005 1.00339 0.0
H202 H 0.37478 0.44854 0.02946 0.0
H203 H 0.40441 0.40567 0.04472 0.0
O204 O 0.48686 0.47518 0.94465 0.0
O205 O 0.48751 0.49608 0.05895 0.0
O206 O 0.53141 0.48814 0.09873 0.0
O207 O 0.47587 0.52038 0.93136 0.0
O208 O 0.53961 0.48172 1.00283 0.0
O209 O 0.55656 0.48228 0.07135 0.0
O210 O 0.5476 0.54476 0.13875 0.0
O211 O 0.54847 0.55432 0.01799 0.0
O212 O 0.53672 0.52022 0.97742 0.0
O213 O 0.58667 0.52364 0.13596 0.0
O214 O 0.51129 0.54868 0.07179 0.0
O215 O 0.49078 0.54727 1.00346 0.0
C216 C 0.50395 0.48555 0.09358 0.0
C217 C 0.46389 0.4932 0.87467 0.0
C218 C 0.45609 0.46604 0.81766 0.0
C219 C 0.44109 0.48916 0.79283 0.0
C220 C 0.44858 0.51589 0.84908 0.0
C221 C 0.43728 0.51382 0.8085 0.0
C222 C 0.46742 0.46794 0.85886 0.0
C223 C 0.55734 0.47289 0.0368 0.0
C224 C 0.47554 0.49624 0.91764 0.0
C225 C 0.39684 0.45027 0.02713 0.0
C226 C 0.41379 0.42583 0.0361 0.0
C227 C 0.54594 0.54556 0.98228 0.0
C228 C 0.58636 0.53917 0.19996 0.0
C229 C 0.59292 0.56168 0.26158 0.0
C230 C 0.61752 0.54523 0.27704 0.0
C231 C 0.6108 0.52271 0.21703 0.0
C232 C 0.57738 0.55892 0.22244 0.0
C233 C 0.62625 0.52588 0.25502 0.0
C234 C 0.49286 0.55769 0.03818 0.0
C235 C 0.573 0.53677 0.15734 0.0
H236 H 0.43206 0.48798 0.7612 0.0
H237 H 0.4452 0.5353 0.86047 0.0
H238 H 0.42547 0.53142 0.78909 0.0
H239 H 0.47887 0.45004 0.87821 0.0
H240 H 0.63031 0.54755 0.30631 0.0
H241 H 0.61848 0.50754 0.20065 0.0
H242 H 0.55888 0.57209 0.20962 0.0
H243 H 0.64527 0.51343 0.2673 0.0
H244 H 0.25184 0.24246 0.44531 0.0
H245 H 0.20945 0.21626 0.45954 0.0
H246 H 0.25956 0.14006 0.50134 0.0
H247 H 0.30164 0.16605 0.48851 0.0
H248 H 0.21372 0.13304 0.44074 0.0
H249 H 0.23428 0.16838 0.56772 0.0
H250 H 0.24348 0.20396 0.61407 0.0
H251 H 0.16197 0.2417 0.56441 0.0
H252 H 0.1525 0.20661 0.51717 0.0
H253 H 0.12049 0.04317 0.55437 0.0
H254 H 0.15976 0.07403 0.54061 0.0
H255 H 0.10173 0.13235 0.45649 0.0
H256 H 0.06274 0.09984 0.46681 0.0
H257 H 0.14933 0.14988 0.53411 0.0
H258 H 0.12933 0.1116 0.40711 0.0
H259 H 0.12177 0.07411 0.36384 0.0
H260 H 0.2045 0.04025 0.41579 0.0
H261 H 0.21219 0.07701 0.46049 0.0
C262 C 0.25389 0.22037 0.45885 0.0
C263 C 0.28009 0.2063 0.46552 0.0
C264 C 0.22963 0.20533 0.46658 0.0
C265 C 0.23123 0.17602 0.48086 0.0
C266 C 0.25766 0.1625 0.48983 0.0
C267 C 0.28176 0.17748 0.4827 0.0
C268 C 0.20548 0.15883 0.48453 0.0
C269 C 0.19971 0.13671 0.46129 0.0
C270 C 0.18696 0.16367 0.51093 0.0
C271 C 0.19286 0.18518 0.53848 0.0
C272 C 0.21849 0.18453 0.56625 0.0
C273 C 0.22371 0.20454 0.59278 0.0
C274 C 0.20337 0.22516 0.59207 0.0
C275 C 0.17775 0.22578 0.56483 0.0
C276 C 0.17245 0.20586 0.53815 0.0
C277 C 0.11624 0.06209 0.53194 0.0
C278 C 0.08879 0.06858 0.51038 0.0
C279 C 0.13864 0.07988 0.52449 0.0
C280 C 0.13374 0.10524 0.49698 0.0
C281 C 0.10605 0.11258 0.47716 0.0
C282 C 0.08384 0.09409 0.48312 0.0
C283 C 0.15755 0.12437 0.49011 0.0
C284 C 0.16312 0.14658 0.51309 0.0
C285 C 0.17601 0.11947 0.46365 0.0
C286 C 0.17106 0.0967 0.4379 0.0
C287 C 0.14564 0.09576 0.41011 0.0
C288 C 0.14139 0.07472 0.38513 0.0
C289 C 0.16257 0.0547 0.38723 0.0
C290 C 0.18804 0.05566 0.41437 0.0
C291 C 0.19232 0.07656 0.43962 0.0
H292 H 0.15931 0.03853 0.36766 0.0
H293 H 0.20742 0.24058 0.61274 0.0
H294 H 0.30238 0.75206 0.0189 0.0
H295 H 0.328 0.70668 0.02773 0.0
H296 H 0.40343 0.74512 0.08361 0.0
H297 H 0.37797 0.78982 0.0761 0.0
H298 H 0.40682 0.7225 0.00976 0.0
H299 H 0.38029 0.69703 0.14115 0.0
H300 H 0.34712 0.68801 0.18923 0.0
H301 H 0.30766 0.62328 0.12399 0.0
H302 H 0.34043 0.63219 0.07518 0.0
H303 H 0.50653 0.61319 0.03684 0.0
H304 H 0.47763 0.6517 0.04666 0.0
H305 H 0.40623 0.5961 0.04487 0.0
H306 H 0.43735 0.55628 0.04502 0.0
H307 H 0.39815 0.62781 0.08979 0.0
H308 H 0.42501 0.65439 0.95604 0.0
H309 H 0.45905 0.6642 0.90922 0.0
H310 H 0.49732 0.72808 0.97725 0.0
H311 H 0.46367 0.71849 0.02456 0.0
C312 C 0.32409 0.75044 0.03458 0.0
C313 C 0.33826 0.77459 0.04638 0.0
C314 C 0.33877 0.72459 0.03933 0.0
C315 C 0.36776 0.72268 0.05577 0.0
C316 C 0.38118 0.74615 0.07058 0.0
C317 C 0.36654 0.77167 0.06637 0.0
C318 C 0.3851 0.69779 0.0531 0.0
C319 C 0.40502 0.70175 0.02732 0.0
C320 C 0.38241 0.67069 0.07536 0.0
C321 C 0.36253 0.66552 0.10426 0.0
C322 C 0.36432 0.68111 0.13679 0.0
C323 C 0.34566 0.67595 0.16425 0.0
C324 C 0.32523 0.65515 0.15959 0.0
C325 C 0.32346 0.63942 0.12751 0.0
C326 C 0.34208 0.6445 0.09996 0.0
C327 C 0.48495 0.609 0.03984 0.0
C328 C 0.47418 0.58169 0.03948 0.0
C329 C 0.46793 0.63141 0.04395 0.0
C330 C 0.43897 0.62768 0.04431 0.0
C331 C 0.42824 0.60014 0.04398 0.0
C332 C 0.44585 0.57734 0.04276 0.0
C333 C 0.42009 0.65213 0.04577 0.0
C334 C 0.39981 0.64826 0.07142 0.0
C335 C 0.42226 0.67944 0.02299 0.0
C336 C 0.44193 0.68563 0.99385 0.0
C337 C 0.44069 0.67052 0.96094 0.0
C338 C 0.45993 0.67602 0.93437 0.0
C339 C 0.48035 0.69672 0.94029 0.0
C340 C 0.4815 0.71206 0.97267 0.0
C341 C 0.46231 0.70666 0.99929 0.0
H342 H 0.49528 0.70089 0.91975 0.0
H343 H 0.31082 0.65116 0.18091 0.0
H344 H 0.75541 0.8484 0.61576 0.0
H345 H 0.78912 0.88377 0.59358 0.0
H346 H 0.84056 0.81721 0.57059 0.0
H347 H 0.80692 0.78208 0.59262 0.0
H348 H 0.87007 0.84895 0.62265 0.0
H349 H 0.80696 0.86589 0.49346 0.0
H350 H 0.7622 0.87821 0.44588 0.0
H351 H 0.7615 0.9595 0.48485 0.0
H352 H 0.80601 0.94745 0.53327 0.0
H353 H 0.96882 0.92628 0.51757 0.0
H354 H 0.92966 0.89712 0.53286 0.0
H355 H 0.89668 0.96501 0.58167 0.0
H356 H 0.9375 0.99378 0.56929 0.0
H357 H 0.85678 0.93578 0.51928 0.0
H358 H 0.91955 0.91976 0.64726 0.0
H359 H 0.96432 0.90823 0.6951 0.0
H360 H 0.96524 0.82587 0.65961 0.0
H361 H 0.92075 0.83714 0.61079 0.0
C362 C 0.77323 0.84158 0.60404 0.0
C363 C 0.77831 0.81262 0.605 0.0
C364 C 0.79264 0.86173 0.59178 0.0
C365 C 0.81752 0.85316 0.58061 0.0
C366 C 0.82159 0.82436 0.57911 0.0
C367 C 0.80217 0.80432 0.5911 0.0
C368 C 0.84063 0.8735 0.5746 0.0
C369 C 0.86718 0.86773 0.59964 0.0
C370 C 0.83671 0.89864 0.54575 0.0
C371 C 0.80962 0.90562 0.51739 0.0
C372 C 0.79707 0.88624 0.4923 0.0
C373 C 0.77178 0.89321 0.46509 0.0
C374 C 0.75896 0.91958 0.46244 0.0
C375 C 0.7714 0.93904 0.48701 0.0
C376 C 0.79665 0.93215 0.51436 0.0
C377 C 0.95371 0.9352 0.53166 0.0
C378 C 0.95678 0.96263 0.54175 0.0
C379 C 0.93105 0.91837 0.54041 0.0
C380 C 0.91019 0.92891 0.55826 0.0
C381 C 0.91259 0.95646 0.56783 0.0
C382 C 0.93598 0.97288 0.56058 0.0
C383 C 0.88607 0.91085 0.56681 0.0
C384 C 0.85948 0.91704 0.54236 0.0
C385 C 0.88985 0.88614 0.59634 0.0
C386 C 0.917 0.87948 0.62487 0.0
C387 C 0.92952 0.89936 0.64912 0.0
C388 C 0.9548 0.89283 0.67654 0.0
C389 C 0.96768 0.86637 0.68029 0.0
C390 C 0.95529 0.84639 0.65658 0.0
C391 C 0.93004 0.85285 0.629 0.0
H392 H 0.98719 0.86131 0.70166 0.0
H393 H 0.73943 0.92497 0.44124 0.0
H394 H 0.74217 0.28352 0.01099 0.0
H395 H 0.71746 0.32631 0.01962 0.0
H396 H 0.647 0.27555 0.04761 0.0
H397 H 0.67162 0.23314 0.03988 0.0
H398 H 0.63008 0.31927 0.98672 0.0
H399 H 0.68739 0.30496 0.12003 0.0
H400 H 0.73136 0.29847 0.17092 0.0
H401 H 0.75962 0.37978 0.12156 0.0
H402 H 0.71599 0.38653 0.06985 0.0
H403 H 0.55571 0.41893 0.07683 0.0
H404 H 0.58537 0.3784 0.07298 0.0
H405 H 0.63298 0.43305 0.99692 0.0
H406 H 0.60166 0.47302 0.99758 0.0
H407 H 0.66201 0.38924 0.0793 0.0
H408 H 0.60274 0.40298 0.94548 0.0
H409 H 0.55774 0.40852 0.89688 0.0
H410 H 0.53235 0.32656 0.94835 0.0
H411 H 0.57683 0.32099 0.99842 0.0
C412 C 0.72186 0.28146 0.02041 0.0
C413 C 0.70884 0.25495 0.02473 0.0
C414 C 0.7076 0.30594 0.02492 0.0
C415 C 0.68012 0.30424 0.0337 0.0
C416 C 0.66797 0.27754 0.04038 0.0
C417 C 0.68221 0.25325 0.0363 0.0
C418 C 0.66317 0.33009 0.03388 0.0
C419 C 0.63705 0.33444 0.00719 0.0
C420 C 0.67227 0.35021 0.06006 0.0
C421 C 0.69863 0.34606 0.09072 0.0
C422 C 0.70314 0.3213 0.1197 0.0
C423 C 0.72796 0.31761 0.14876 0.0
C424 C 0.74833 0.33865 0.14937 0.0
C425 C 0.74387 0.36346 0.12096 0.0
C426 C 0.71911 0.36723 0.09176 0.0
C427 C 0.57234 0.42213 0.05897 0.0
C428 C 0.57623 0.44886 0.03694 0.0
C429 C 0.58928 0.39906 0.05689 0.0
C430 C 0.6112 0.40271 0.03436 0.0
C431 C 0.61594 0.42974 0.01399 0.0
C432 C 0.5981 0.45247 0.01436 0.0
C433 C 0.62916 0.37827 0.03219 0.0
C434 C 0.65528 0.37414 0.05863 0.0
C435 C 0.61999 0.35828 0.00587 0.0
C436 C 0.5929 0.36187 0.97643 0.0
C437 C 0.58731 0.38643 0.94719 0.0
C438 C 0.56193 0.38952 0.9192 0.0
C439 C 0.54211 0.36798 0.91968 0.0
C440 C 0.54764 0.34331 0.94818 0.0
C441 C 0.57291 0.34022 0.97647 0.0
H442 H 0.52255 0.37034 0.89781 0.0
H443 H 0.76752 0.33578 0.17195 0.0
H444 H 0.24551 0.92203 0.0886 0.0
H445 H 0.22467 0.94066 0.14076 0.0
H446 H 0.17779 0.86371 0.1589 0.0
H447 H 0.19843 0.84535 0.10651 0.0
H448 H 0.14415 0.90942 0.14402 0.0
H449 H 0.23352 0.88091 0.23219 0.0
H450 H 0.28526 0.88081 0.25193 0.0
H451 H 0.28359 0.97076 0.24967 0.0
H452 H 0.23184 0.97141 0.22944 0.0
H453 H 0.08902 0.90934 0.31935 0.0
H454 H 0.12344 0.8991 0.27813 0.0
H455 H 0.14313 0.9877 0.25648 0.0
H456 H 0.10859 0.99801 0.29822 0.0
H457 H 0.19195 0.94405 0.27039 0.0
H458 H 0.10402 0.97356 0.18446 0.0
H459 H 0.05231 0.97525 0.16428 0.0
H460 H 0.05166 0.88601 0.16003 0.0
H461 H 0.10338 0.88374 0.18078 0.0
C462 C 0.23149 0.90882 0.10488 0.0
C463 C 0.22397 0.88205 0.09449 0.0
C464 C 0.21951 0.91948 0.13448 0.0
C465 C 0.19976 0.90353 0.15393 0.0
C466 C 0.19306 0.87634 0.14442 0.0
C467 C 0.20504 0.86571 0.1149 0.0
C468 C 0.1842 0.91578 0.18159 0.0
C469 C 0.1547 0.91673 0.1718 0.0
C470 C 0.19786 0.92664 0.21686 0.0
C471 C 0.22889 0.92624 0.22893 0.0
C472 C 0.24422 0.90069 0.23558 0.0
C473 C 0.27353 0.90053 0.24693 0.0
C474 C 0.28771 0.92577 0.25195 0.0
C475 C 0.27259 0.95123 0.24572 0.0
C476 C 0.24327 0.9515 0.23435 0.0
C477 C 0.10112 0.92651 0.30644 0.0
C478 C 0.09611 0.95444 0.31144 0.0
C479 C 0.12075 0.92067 0.28304 0.0
C480 C 0.13557 0.94268 0.26403 0.0
C481 C 0.13196 0.97045 0.2711 0.0
C482 C 0.11227 0.97631 0.29477 0.0
C483 C 0.15213 0.93656 0.23335 0.0
C484 C 0.18161 0.93695 0.24236 0.0
C485 C 0.13856 0.92725 0.19695 0.0
C486 C 0.1075 0.92844 0.18451 0.0
C487 C 0.09281 0.95425 0.1796 0.0
C488 C 0.06351 0.95533 0.16798 0.0
C489 C 0.0487 0.93074 0.16097 0.0
C490 C 0.06316 0.90503 0.16551 0.0
C491 C 0.09247 0.90384 0.17715 0.0
H492 H 0.02601 0.93161 0.15193 0.0
H493 H 0.3104 0.9256 0.26076 0.0
H494 H 0.61893 0.67137 0.65052 0.0
H495 H 0.60022 0.64462 0.70481 0.0
H496 H 0.65406 0.68701 0.79265 0.0
H497 H 0.67519 0.71293 0.73927 0.0
H498 H 0.65315 0.63359 0.82182 0.0
H499 H 0.58034 0.70255 0.76019 0.0
H500 H 0.54699 0.72924 0.70322 0.0
H501 H 0.50695 0.65193 0.67619 0.0
H502 H 0.54025 0.62475 0.73275 0.0
H503 H 0.57578 0.59483 0.98304 0.0
H504 H 0.59639 0.62157 0.92831 0.0
H505 H 0.55538 0.56741 0.84501 0.0
H506 H 0.53685 0.53881 0.90116 0.0
H507 H 0.54976 0.62648 0.81398 0.0
H508 H 0.62191 0.55775 0.87398 0.0
H509 H 0.65533 0.53004 0.92969 0.0
H510 H 0.69664 0.6063 0.95879 0.0
H511 H 0.66318 0.63454 0.90352 0.0
C512 C 0.62758 0.67567 0.68071 0.0
C513 C 0.64933 0.69543 0.68847 0.0
C514 C 0.61616 0.66007 0.71232 0.0
C515 C 0.62516 0.66408 0.75296 0.0
C516 C 0.64654 0.68356 0.76145 0.0
C517 C 0.65851 0.69884 0.72995 0.0
C518 C 0.61258 0.64753 0.78651 0.0
C519 C 0.63055 0.63251 0.82037 0.0
C520 C 0.58305 0.64529 0.78431 0.0
C521 C 0.56283 0.66163 0.75059 0.0
C522 C 0.56448 0.69124 0.74199 0.0
C523 C 0.54559 0.70646 0.70979 0.0
C524 C 0.52488 0.69229 0.68609 0.0
C525 C 0.52299 0.66288 0.69459 0.0
C526 C 0.54182 0.64757 0.72676 0.0
C527 C 0.572 0.58786 0.95374 0.0
C528 C 0.55594 0.56368 0.9475 0.0
C529 C 0.58342 0.60352 0.92208 0.0
C530 C 0.57788 0.59621 0.88265 0.0
C531 C 0.56035 0.57316 0.87539 0.0
C532 C 0.54981 0.55681 0.90759 0.0
C533 C 0.59033 0.61281 0.84917 0.0
C534 C 0.57235 0.62779 0.81543 0.0
C535 C 0.61981 0.61504 0.85147 0.0
C536 C 0.63984 0.59827 0.88494 0.0
C537 C 0.63794 0.56864 0.89254 0.0
C538 C 0.65694 0.55283 0.92393 0.0
C539 C 0.6781 0.5664 0.94774 0.0
C540 C 0.68026 0.59583 0.94027 0.0
C541 C 0.66128 0.61175 0.9089 0.0
H542 H 0.69284 0.5541 0.97196 0.0
H543 H 0.51026 0.7041 0.66117 0.0
H544 H 0.87748 0.1615 0.09788 0.0
H545 H 0.90469 0.13813 0.16249 0.0
H546 H 0.82866 0.10135 0.19656 0.0
H547 H 0.8012 0.12538 0.13182 0.0
H548 H 0.85986 0.1186 0.25949 0.0
H549 H 0.87918 0.06167 0.16268 0.0
H550 H 0.8932 0.05261 0.09886 0.0
H551 H 0.97476 0.08706 0.13576 0.0
H552 H 0.9611 0.09661 0.19963 0.0
H553 H 0.93745 0.01774 0.42267 0.0
H554 H 0.90681 0.0386 0.35858 0.0
H555 H 0.97419 0.09298 0.32779 0.0
H556 H 1.00426 0.07329 0.39302 0.0
H557 H 0.94616 0.06281 0.26251 0.0
H558 H 0.92067 0.13502 0.33871 0.0
H559 H 0.90227 0.15786 0.38945 0.0
H560 H 0.83433 0.09883 0.38847 0.0
H561 H 0.8516 0.07676 0.33566 0.0
C562 C 0.86651 0.14876 0.11947 0.0
C563 C 0.83719 0.1454 0.10994 0.0
C564 C 0.88216 0.13503 0.15615 0.0
C565 C 0.86896 0.11721 0.18406 0.0
C566 C 0.83944 0.11473 0.17538 0.0
C567 C 0.82368 0.12869 0.13863 0.0
C568 C 0.8859 0.1021 0.22284 0.0
C569 C 0.87827 0.10574 0.2599 0.0
C570 C 0.91061 0.0861 0.22383 0.0
C571 C 0.91906 0.07999 0.18581 0.0
C572 C 0.90006 0.06743 0.15709 0.0
C573 C 0.90794 0.06219 0.12093 0.0
C574 C 0.93484 0.06929 0.11324 0.0
C575 C 0.95394 0.08156 0.14177 0.0
C576 C 0.94616 0.08684 0.17799 0.0
C577 C 0.94562 0.03419 0.40219 0.0
C578 C 0.97316 0.04395 0.41265 0.0
C579 C 0.92811 0.04617 0.36571 0.0
C580 C 0.93816 0.06742 0.33835 0.0
C581 C 0.96592 0.07672 0.34845 0.0
C582 C 0.98308 0.06545 0.38561 0.0
C583 C 0.91991 0.07944 0.29888 0.0
C584 C 0.92735 0.07512 0.2618 0.0
C585 C 0.89504 0.09493 0.29758 0.0
C586 C 0.88772 0.10393 0.33423 0.0
C587 C 0.90217 0.12656 0.35007 0.0
C588 C 0.89167 0.13966 0.37862 0.0
C589 C 0.8672 0.12972 0.39242 0.0
C590 C 0.85326 0.10652 0.37777 0.0
C591 C 0.86329 0.09382 0.34834 0.0
H592 H 0.85914 0.13989 0.41464 0.0
H593 H 0.94089 0.06526 0.08519 0.0
H594 H 0.43424 0.32854 0.51773 0.0
H595 H 0.45155 0.34914 0.57895 0.0
H596 H 0.37053 0.33679 0.61543 0.0
H597 H 0.35232 0.31799 0.55197 0.0
H598 H 0.38745 0.38742 0.62383 0.0
H599 H 0.43499 0.29576 0.66372 0.0
H600 H 0.46534 0.25748 0.65334 0.0
H601 H 0.53365 0.31543 0.64648 0.0
H602 H 0.50361 0.35409 0.65643 0.0
H603 H 0.42172 0.42083 0.81971 0.0
H604 H 0.41457 0.3879 0.76979 0.0
H605 H 0.48679 0.4218 0.7211 0.0
H606 H 0.49372 0.45507 0.77078 0.0
H607 H 0.47718 0.3603 0.71954 0.0
H608 H 0.43313 0.45089 0.67542 0.0
H609 H 0.40526 0.49226 0.6814 0.0
H610 H 0.33302 0.43982 0.69 0.0
H611 H 0.36069 0.39799 0.68481 0.0
C612 C 0.42001 0.33015 0.53875 0.0
C613 C 0.39169 0.32196 0.5296 0.0
C614 C 0.43014 0.3416 0.57422 0.0
C615 C 0.41257 0.34423 0.60241 0.0
C616 C 0.38459 0.33493 0.59426 0.0
C617 C 0.37423 0.32389 0.55821 0.0
C618 C 0.4228 0.35836 0.63884 0.0
C619 C 0.40674 0.38094 0.64518 0.0
C620 C 0.44882 0.35116 0.66567 0.0
C621 C 0.46704 0.32779 0.66068 0.0
C622 C 0.45647 0.30032 0.65992 0.0
C623 C 0.47361 0.27857 0.6541 0.0
C624 C 0.5014 0.28403 0.64922 0.0
C625 C 0.51214 0.31123 0.65029 0.0
C626 C 0.49509 0.33304 0.65612 0.0
C627 C 0.43682 0.4203 0.79963 0.0
C628 C 0.4584 0.44023 0.79924 0.0
C629 C 0.43261 0.40167 0.77093 0.0
C630 C 0.44997 0.40264 0.74147 0.0
C631 C 0.47324 0.42062 0.74365 0.0
C632 C 0.47727 0.4395 0.77214 0.0
C633 C 0.44114 0.38829 0.70513 0.0
C634 C 0.45764 0.36622 0.69848 0.0
C635 C 0.41582 0.39623 0.67741 0.0
C636 C 0.39907 0.42127 0.68038 0.0
C637 C 0.4114 0.44813 0.67908 0.0
C638 C 0.39562 0.47167 0.68221 0.0
C639 C 0.36742 0.46866 0.68627 0.0
C640 C 0.3549 0.4421 0.68701 0.0
C641 C 0.37061 0.41847 0.68397 0.0
H642 H 0.35523 0.48691 0.6887 0.0
H643 H 0.51462 0.26717 0.64465 0.0
H644 H 0.68812 0.66924 0.56068 0.0
H645 H 0.66779 0.64794 0.50053 0.0
H646 H 0.61282 0.7207 0.45598 0.0
H647 H 0.63271 0.74155 0.51733 0.0
H648 H 0.58404 0.67317 0.44857 0.0
H649 H 0.67108 0.70887 0.41146 0.0
H650 H 0.7225 0.71549 0.42403 0.0
H651 H 0.73568 0.62565 0.43869 0.0
H652 H 0.68434 0.61849 0.4267 0.0
H653 H 0.58449 0.61928 0.24178 0.0
H654 H 0.5887 0.65265 0.29144 0.0
H655 H 0.59281 0.58258 0.38958 0.0
H656 H 0.58678 0.54967 0.34049 0.0
H657 H 0.64347 0.63523 0.36292 0.0
H658 H 0.55692 0.60026 0.41639 0.0
H659 H 0.5057 0.59329 0.40687 0.0
H660 H 0.49173 0.6821 0.36405 0.0
H661 H 0.54305 0.68932 0.37171 0.0
C662 C 0.67231 0.68099 0.53736 0.0
C663 C 0.66258 0.70737 0.5427 0.0
C664 C 0.66056 0.66879 0.50312 0.0
C665 C 0.63906 0.68291 0.47323 0.0
C666 C 0.62952 0.7095 0.4784 0.0
C667 C 0.64114 0.7216 0.51299 0.0
C668 C 0.62628 0.66944 0.43725 0.0
C669 C 0.59703 0.66528 0.42948 0.0
C670 C 0.64309 0.65885 0.41239 0.0
C671 C 0.67391 0.66317 0.41823 0.0
C672 C 0.68497 0.69054 0.41739 0.0
C673 C 0.71409 0.69438 0.42446 0.0
C674 C 0.73235 0.67101 0.43216 0.0
C675 C 0.72152 0.64374 0.43266 0.0
C676 C 0.69242 0.63978 0.42564 0.0
C677 C 0.58453 0.6112 0.27368 0.0
C678 C 0.58532 0.5819 0.28734 0.0
C679 C 0.58713 0.63023 0.30205 0.0
C680 C 0.59046 0.62012 0.34419 0.0
C681 C 0.58911 0.59099 0.35727 0.0
C682 C 0.58593 0.57215 0.32911 0.0
C683 C 0.60146 0.63864 0.37477 0.0
C684 C 0.63047 0.64365 0.38154 0.0
C685 C 0.58449 0.64966 0.39891 0.0
C686 C 0.55377 0.64514 0.39321 0.0
C687 C 0.54297 0.61813 0.40372 0.0
C688 C 0.5139 0.61417 0.39894 0.0
C689 C 0.49544 0.6372 0.38448 0.0
C690 C 0.50604 0.66424 0.37484 0.0
C691 C 0.53511 0.66824 0.3792 0.0
H692 H 0.47294 0.63412 0.38107 0.0
H693 H 0.75489 0.67403 0.4377 0.0
H694 H 0.8582 0.18003 0.95197 0.0
H695 H 0.87878 0.16079 0.90024 0.0
H696 H 0.82646 0.08719 0.9129 0.0
H697 H 0.80637 0.10632 0.96548 0.0
H698 H 0.87944 0.07238 0.90997 0.0
H699 H 0.81091 0.13954 0.82829 0.0
H700 H 0.78719 0.18621 0.80824 0.0
H701 H 0.865 0.22449 0.78596 0.0
H702 H 0.88923 0.17811 0.80629 0.0
H703 H 0.93448 0.03144 0.74115 0.0
H704 H 0.9006 0.0423 0.78349 0.0
H705 H 0.93466 0.12627 0.78361 0.0
H706 H 0.96759 0.11562 0.74088 0.0
H707 H 0.88193 0.13037 0.77525 0.0
H708 H 0.95198 0.06542 0.86415 0.0
H709 H 0.9774 0.01998 0.88922 0.0
H710 H 0.8994 0.97843 0.90202 0.0
H711 H 0.87348 0.02353 0.87634 0.0
C712 C 0.851 0.15991 0.94327 0.0
C713 C 0.83056 0.14475 0.96192 0.0
C714 C 0.86265 0.14892 0.91377 0.0
C715 C 0.8538 0.12275 0.90212 0.0
C716 C 0.83347 0.10748 0.92117 0.0
C717 C 0.8219 0.11844 0.95087 0.0
C718 C 0.86611 0.11138 0.87038 0.0
C719 C 0.87961 0.0848 0.88018 0.0
C720 C 0.86652 0.12763 0.8317 0.0
C721 C 0.85185 0.1554 0.81886 0.0
C722 C 0.82295 0.15794 0.81922 0.0
C723 C 0.80943 0.18433 0.80781 0.0
C724 C 0.82458 0.2083 0.79584 0.0
C725 C 0.85328 0.20591 0.79518 0.0
C726 C 0.8669 0.17958 0.80655 0.0
C727 C 0.93423 0.0523 0.74983 0.0
C728 C 0.95362 0.07271 0.73815 0.0
C729 C 0.91515 0.05841 0.77433 0.0
C730 C 0.91536 0.08497 0.78751 0.0
C731 C 0.93406 0.10559 0.77417 0.0
C732 C 0.95295 0.09952 0.74983 0.0
C733 C 0.89666 0.09191 0.81543 0.0
C734 C 0.88157 0.11764 0.80476 0.0
C735 C 0.89516 0.07494 0.85346 0.0
C736 C 0.91075 0.04774 0.86763 0.0
C737 C 0.94022 0.04652 0.87178 0.0
C738 C 0.95472 0.02084 0.88621 0.0
C739 C 0.94001 0.99631 0.89703 0.0
C740 C 0.91076 0.99741 0.89345 0.0
C741 C 0.89616 0.02301 0.8789 0.0
H742 H 0.95129 0.97647 0.90833 0.0
H743 H 0.81407 0.22872 0.78706 0.0
H744 H 0.43662 0.33327 0.4158 0.0
H745 H 0.45824 0.36012 0.36197 0.0
H746 H 0.37647 0.37356 0.2844 0.0
H747 H 0.35489 0.34566 0.33794 0.0
H748 H 0.41229 0.36291 0.24138 0.0
H749 H 0.41419 0.42557 0.34137 0.0
H750 H 0.42609 0.43838 0.41065 0.0
H751 H 0.51404 0.42675 0.41051 0.0
H752 H 0.50264 0.41343 0.34146 0.0
H753 H 0.4481 0.47481 0.09624 0.0
H754 H 0.42833 0.44585 0.15025 0.0
H755 H 0.51164 0.43031 0.22213 0.0
H756 H 0.53167 0.45865 0.16774 0.0
H757 H 0.47655 0.44213 0.26943 0.0
H758 H 0.47675 0.37557 0.17733 0.0
H759 H 0.46734 0.35231 0.11587 0.0
H760 H 0.3786 0.36728 0.10464 0.0
H761 H 0.38751 0.39034 0.16642 0.0
C762 C 0.42325 0.34201 0.38724 0.0
C763 C 0.39398 0.33779 0.38125 0.0
C764 C 0.43562 0.35754 0.35657 0.0
C765 C 0.41895 0.36977 0.31949 0.0
C766 C 0.3898 0.36469 0.31292 0.0
C767 C 0.37745 0.34872 0.34343 0.0
C768 C 0.43186 0.38729 0.28716 0.0
C769 C 0.42582 0.38065 0.24743 0.0
C770 C 0.45063 0.40967 0.29526 0.0
C771 C 0.45754 0.41834 0.33635 0.0
C772 C 0.43606 0.42565 0.35618 0.0
C773 C 0.44271 0.43298 0.39542 0.0
C774 C 0.4708 0.43333 0.415 0.0
C775 C 0.4923 0.42645 0.39532 0.0
C776 C 0.48575 0.41903 0.35611 0.0
C777 C 0.46232 0.46487 0.1231 0.0
C778 C 0.49157 0.46866 0.12697 0.0
C779 C 0.45094 0.44833 0.15417 0.0
C780 C 0.46849 0.43549 0.19017 0.0
C781 C 0.49764 0.43981 0.19461 0.0
C782 C 0.50906 0.45605 0.16333 0.0
C783 C 0.45636 0.41805 0.22341 0.0
C784 C 0.46268 0.42466 0.26333 0.0
C785 C 0.43798 0.39544 0.21574 0.0
C786 C 0.43281 0.38486 0.17611 0.0
C787 C 0.45528 0.37428 0.16136 0.0
C788 C 0.45 0.36082 0.1268 0.0
C789 C 0.42236 0.35813 0.10655 0.0
C790 C 0.39996 0.36921 0.12053 0.0
C791 C 0.40511 0.38243 0.15531 0.0
H792 H 0.41831 0.34767 0.0798 0.0
H793 H 0.47591 0.43899 0.44539 0.0
H794 H 0.2002 0.93316 0.96067 0.0
H795 H 0.17191 0.95469 0.89567 0.0
H796 H 0.17198 0.87511 0.85027 0.0
H797 H 0.20067 0.85362 0.91504 0.0
H798 H 0.18191 0.91589 0.79468 0.0
H799 H 0.11387 0.90207 0.88353 0.0
H800 H 0.09489 0.90715 0.94532 0.0
H801 H 0.09221 0.99746 0.91142 0.0
H802 H 0.1117 0.99294 0.8498 0.0
H803 H 0.06985 0.94256 0.62394 0.0
H804 H 0.09934 0.9243 0.6894 0.0
H805 H 0.10419 1.00803 0.72237 0.0
H806 H 0.07623 0.02682 0.65575 0.0
H807 H 0.09209 0.96761 0.78469 0.0
H808 H 0.16074 0.982 0.69825 0.0
H809 H 0.18733 0.97854 0.64316 0.0
H810 H 0.19071 0.88806 0.67461 0.0
H811 H 0.16394 0.89096 0.72968 0.0
C812 C 0.19392 0.92017 0.93697 0.0
C813 C 0.20244 0.89158 0.94313 0.0
C814 C 0.17771 0.93251 0.89982 0.0
C815 C 0.16931 0.91642 0.86823 0.0
C816 C 0.17807 0.88796 0.8742 0.0
C817 C 0.1945 0.87568 0.9112 0.0
C818 C 0.15211 0.92929 0.82846 0.0
C819 C 0.16198 0.9267 0.79252 0.0
C820 C 0.12665 0.94445 0.82561 0.0
C821 C 0.11449 0.94717 0.86226 0.0
C822 C 0.10941 0.92302 0.88939 0.0
C823 C 0.09856 0.9258 0.92439 0.0
C824 C 0.09241 0.95262 0.93235 0.0
C825 C 0.09702 0.97671 0.90525 0.0
C826 C 0.10797 0.97405 0.87029 0.0
C827 C 0.07771 0.95728 0.64452 0.0
C828 C 0.07101 0.98631 0.63396 0.0
C829 C 0.0944 0.94673 0.68222 0.0
C830 C 0.1042 0.96484 0.71069 0.0
C831 C 0.09695 0.99368 0.70082 0.0
C832 C 0.08082 1.00436 0.6627 0.0
C833 C 0.12166 0.95351 0.75094 0.0
C834 C 0.11188 0.95654 0.78691 0.0
C835 C 0.14723 0.93867 0.75395 0.0
C836 C 0.16026 0.93669 0.71793 0.0
C837 C 0.16676 0.96134 0.69298 0.0
C838 C 0.18214 0.9595 0.66209 0.0
C839 C 0.19116 0.93313 0.65596 0.0
C840 C 0.18405 0.90849 0.6798 0.0
C841 C 0.16875 0.91021 0.71079 0.0
H842 H 0.2033 0.93176 0.63226 0.0
H843 H 0.08401 0.95472 0.95946 0.0
loop_
_geom_bond_atom_site_label_1
_geom_bond_atom_site_label_2
_geom_bond_distance
_geom_bond_site_symmetry_2
_ccdc_geom_bond_type
H0 C1 0.949 . S
C1 H0 0.949 . S
C1 C2 1.395 . S
C1 C3 1.391 . S
C2 C1 1.395 . S
C2 C5 1.390 . S
C3 C1 1.391 . S
C3 C7 1.387 1_554 S
C3 C8 1.491 . S
H4 C5 0.950 . S
C5 C2 1.390 . S
C5 H4 0.950 . S
C5 C6 1.378 1_554 S
C6 C5 1.378 1_556 S
C6 C7 1.409 . S
C7 C3 1.387 1_556 S
C7 C6 1.409 . S
C7 H9 0.951 . S
C8 C3 1.491 . S
C8 C10 1.382 . S
C8 C12 1.404 1_554 S
H9 C7 0.951 . S
C10 C8 1.382 . S
C10 C11 1.390 . S
C10 H15 0.949 . S
C11 C10 1.390 . S
C11 C16 1.399 . S
C12 C8 1.404 1_556 S
C12 H13 0.950 . S
C12 C14 1.375 . S
H13 C12 0.950 . S
C14 C12 1.375 . S
C14 C16 1.382 1_556 S
C14 H18 0.950 . S
H15 C10 0.949 . S
C16 C11 1.399 . S
C16 C14 1.382 1_554 S
C16 H17 0.952 . S
H17 C16 0.952 . S
H18 C14 0.950 . S
H19 C20 0.949 . S
C20 H19 0.949 . S
C20 C21 1.395 . S
C20 C22 1.391 . S
C21 C20 1.395 . S
C21 C24 1.390 . S
C22 C20 1.391 . S
C22 C26 1.387 . S
C22 C27 1.491 . S
H23 C24 0.950 . S
C24 C21 1.390 . S
C24 H23 0.950 . S
C24 C25 1.378 . S
C25 C24 1.378 . S
C25 C26 1.409 . S
C26 C22 1.387 . S
C26 C25 1.409 . S
C26 H28 0.951 . S
C27 C22 1.491 . S
C27 C29 1.382 . S
C27 C31 1.404 . S
H28 C26 0.951 . S
C29 C27 1.382 . S
C29 C30 1.390 . S
C29 H34 0.949 . S
C30 C29 1.390 . S
C30 C35 1.399 . S
C31 C27 1.404 . S
C31 H32 0.950 . S
C31 C33 1.375 . S
H32 C31 0.950 . S
C33 C31 1.375 . S
C33 C35 1.382 . S
C33 H37 0.950 . S
H34 C29 0.949 . S
C35 C30 1.399 . S
C35 C33 1.382 . S
C35 H36 0.952 . S
H36 C35 0.952 . S
H37 C33 0.950 . S
H38 C39 0.949 . S
C39 H38 0.949 . S
C39 C40 1.395 . S
C39 C41 1.391 . S
C40 C39 1.395 . S
C40 C43 1.390 . S
C41 C39 1.391 . S
C41 C45 1.387 1_554 S
C41 C46 1.491 1_554 S
H42 C43 0.950 . S
C43 C40 1.390 . S
C43 H42 0.950 . S
C43 C44 1.378 1_554 S
C44 C43 1.378 1_556 S
C44 C45 1.409 . S
C45 C41 1.387 1_556 S
C45 C44 1.409 . S
C45 H47 0.951 . S
C46 C41 1.491 1_556 S
C46 C48 1.382 1_556 S
C46 C50 1.404 . S
H47 C45 0.951 . S
C48 C46 1.382 1_554 S
C48 C49 1.390 . S
C48 H53 0.949 . S
C49 C48 1.390 . S
C49 C54 1.399 1_554 S
C50 C46 1.404 . S
C50 H51 0.950 . S
C50 C52 1.375 . S
H51 C50 0.950 . S
C52 C50 1.375 . S
C52 C54 1.382 . S
C52 H56 0.950 . S
H53 C48 0.949 . S
C54 C49 1.399 1_556 S
C54 C52 1.382 . S
C54 H55 0.952 . S
H55 C54 0.952 . S
H56 C52 0.950 . S
H57 C58 0.949 . S
C58 H57 0.949 . S
C58 C59 1.395 . S
C58 C60 1.391 . S
C59 C58 1.395 . S
C59 C62 1.390 . S
C60 C58 1.391 . S
C60 C64 1.387 . S
C60 C65 1.491 . S
H61 C62 0.950 . S
C62 C59 1.390 . S
C62 H61 0.950 . S
C62 C63 1.378 . S
C63 C62 1.378 . S
C63 C64 1.409 . S
C64 C60 1.387 . S
C64 C63 1.409 . S
C64 H66 0.951 . S
C65 C60 1.491 . S
C65 C67 1.382 . S
C65 C69 1.404 . S
H66 C64 0.951 . S
C67 C65 1.382 . S
C67 C68 1.390 . S
C67 H72 0.949 . S
C68 C67 1.390 . S
C68 C73 1.399 . S
C69 C65 1.404 . S
C69 H70 0.950 . S
C69 C71 1.375 . S
H70 C69 0.950 . S
C71 C69 1.375 . S
C71 C73 1.382 . S
C71 H75 0.950 . S
H72 C67 0.949 . S
C73 C68 1.399 . S
C73 C71 1.382 . S
C73 H74 0.952 . S
H74 C73 0.952 . S
H75 C71 0.950 . S
Eu76 N105 2.600 . S
Eu76 N111 2.562 . S
Eu76 O120 2.462 . S
Eu76 O121 2.373 . S
Eu76 O123 2.432 . S
Eu76 O124 2.291 1_565 S
Eu76 O128 2.335 1_565 S
Eu76 O131 2.372 1_455 S
Eu76 C140 2.787 . S
C77 N78 1.365 . S
C77 C80 1.405 . S
C77 C84 1.448 . S
N78 C77 1.365 . S
N78 C81 1.319 1_655 S
N78 Eu87 2.600 . S
C79 C81 1.397 . S
C79 C82 1.367 1_455 S
C79 H99 0.931 . S
C80 C77 1.405 . S
C80 C82 1.403 . S
C80 C86 1.439 . S
C81 N78 1.319 1_455 S
C81 C79 1.397 . S
C81 H92 0.930 . S
C82 C79 1.367 1_655 S
C82 C80 1.403 . S
C82 H103 0.929 . S
C83 C84 1.430 . S
C83 C85 1.387 . S
C83 C89 1.404 . S
C84 C77 1.448 . S
C84 C83 1.430 . S
C84 N88 1.351 . S
C85 C83 1.387 . S
C85 C86 1.374 . S
C85 H100 0.931 . S
C86 C80 1.439 . S
C86 C85 1.374 . S
C86 H101 0.931 . S
Eu87 N78 2.600 . S
Eu87 N88 2.562 . S
Eu87 O122 2.335 1_655 S
Eu87 O125 2.372 1_655 S
Eu87 O126 2.462 . S
Eu87 O127 2.373 . S
Eu87 O129 2.432 1_655 S
Eu87 O130 2.291 1_545 S
Eu87 C151 2.787 . S
N88 C84 1.351 . S
N88 Eu87 2.562 . S
N88 C90 1.325 . S
C89 C83 1.404 . S
C89 C91 1.366 . S
C89 H97 0.930 . S
C90 N88 1.325 . S
C90 C91 1.416 . S
C90 H96 0.929 . S
C91 C89 1.366 . S
C91 C90 1.416 . S
C91 H93 0.930 . S
H92 C81 0.930 . S
H93 C91 0.930 . S
H94 C109 0.930 1_655 S
H95 C116 0.930 . S
H96 C90 0.929 . S
H97 C89 0.930 . S
H98 C112 0.929 . S
H99 C79 0.931 . S
H100 C85 0.931 . S
H101 C86 0.931 . S
H102 C107 0.931 1_655 S
H103 C82 0.929 . S
H104 C115 0.930 . S
N105 Eu76 2.600 . S
N105 C106 1.365 . S
N105 C109 1.319 . S
C106 N105 1.365 . S
C106 C108 1.405 . S
C106 C114 1.448 . S
C107 H102 0.931 1_455 S
C107 C109 1.397 . S
C107 C110 1.367 . S
C108 C106 1.405 . S
C108 C110 1.403 . S
C108 C141 1.439 . S
C109 H94 0.930 1_455 S
C109 N105 1.319 . S
C109 C107 1.397 . S
C110 C107 1.367 . S
C110 C108 1.403 . S
C110 H117 0.929 . S
N111 Eu76 2.562 . S
N111 C112 1.325 . S
N111 C114 1.351 . S
C112 H98 0.929 . S
C112 N111 1.325 . S
C112 C116 1.416 . S
C113 C114 1.430 . S
C113 C115 1.404 . S
C113 C142 1.387 . S
C114 C106 1.448 . S
C114 N111 1.351 . S
C114 C113 1.430 . S
C115 H104 0.930 . S
C115 C113 1.404 . S
C115 C116 1.366 . S
C116 H95 0.930 . S
C116 C112 1.416 . S
C116 C115 1.366 . S
H117 C110 0.929 . S
H118 C141 0.931 . S
H119 C142 0.931 . S
O120 Eu76 2.462 . S
O120 C140 1.252 . S
O121 Eu76 2.373 . S
O121 C132 1.249 . S
O122 Eu87 2.335 1_455 S
O122 C132 1.264 1_545 S
O123 Eu76 2.432 . S
O123 C140 1.268 . S
O124 Eu76 2.291 1_545 S
O124 C139 1.255 . S
O125 Eu87 2.372 1_455 S
O125 C139 1.257 . S
O126 Eu87 2.462 . S
O126 C151 1.252 . S
O127 Eu87 2.373 . S
O127 C143 1.249 . S
O128 Eu76 2.335 1_545 S
O128 C143 1.264 1_455 S
O129 Eu87 2.432 1_455 S
O129 C151 1.268 1_455 S
O130 Eu87 2.291 1_565 S
O130 C150 1.255 . S
O131 Eu76 2.372 1_655 S
O131 C150 1.257 . S
C132 O121 1.249 . S
C132 O122 1.264 1_565 S
C133 C136 1.382 . S
C133 C138 1.390 . S
C133 C140 1.506 . S
C134 C135 1.398 . S
C134 C138 1.392 . S
C135 C134 1.398 . S
C135 C137 1.372 . S
C135 H152 0.931 . S
C136 C133 1.382 . S
C136 C137 1.390 . S
C136 H153 0.931 . S
C137 C135 1.372 . S
C137 C136 1.390 . S
C137 H154 0.929 . S
C138 C133 1.390 . S
C138 C134 1.392 . S
C138 H155 0.930 . S
C139 O124 1.255 . S
C139 O125 1.257 . S
C140 Eu76 2.787 . S
C140 O120 1.252 . S
C140 O123 1.268 . S
C140 C133 1.506 . S
C141 C108 1.439 . S
C141 H118 0.931 . S
C141 C142 1.374 . S
C142 C113 1.387 . S
C142 H119 0.931 . S
C142 C141 1.374 . S
C143 O127 1.249 . S
C143 O128 1.264 1_655 S
C144 C147 1.382 . S
C144 C148 1.390 . S
C144 C151 1.506 . S
C145 C146 1.398 . S
C145 C148 1.392 . S
C146 C145 1.398 . S
C146 C149 1.372 . S
C146 H156 0.931 . S
C147 C144 1.382 . S
C147 C149 1.390 . S
C147 H157 0.931 1_655 S
C148 C144 1.390 . S
C148 C145 1.392 . S
C148 H158 0.930 . S
C149 C146 1.372 . S
C149 C147 1.390 . S
C149 H159 0.929 . S
C150 O130 1.255 . S
C150 O131 1.257 . S
C151 Eu87 2.787 . S
C151 O126 1.252 . S
C151 O129 1.268 1_655 S
C151 C144 1.506 . S
H152 C135 0.931 . S
H153 C136 0.931 . S
H154 C137 0.929 . S
H155 C138 0.930 . S
H156 C146 0.931 . S
H157 C147 0.931 1_455 S
H158 C148 0.930 . S
H159 C149 0.929 . S
Eu160 N189 2.600 . S
Eu160 N195 2.562 1_556 S
Eu160 O204 2.462 . S
Eu160 O205 2.373 1_556 S
Eu160 O207 2.432 . S
Eu160 O208 2.291 1_556 S
Eu160 O212 2.335 . S
Eu160 O215 2.372 1_556 S
Eu160 C224 2.787 . S
C161 N162 1.365 . S
C161 C164 1.405 . S
C161 C168 1.448 . S
N162 C161 1.365 . S
N162 C165 1.319 . S
N162 Eu171 2.600 . S
C163 C165 1.397 . S
C163 C166 1.367 . S
C163 H183 0.931 . S
C164 C161 1.405 . S
C164 C166 1.403 . S
C164 C170 1.439 . S
C165 N162 1.319 . S
C165 C163 1.397 . S
C165 H176 0.930 . S
C166 C163 1.367 . S
C166 C164 1.403 . S
C166 H187 0.929 . S
C167 C168 1.430 . S
C167 C169 1.387 . S
C167 C173 1.404 . S
C168 C161 1.448 . S
C168 C167 1.430 . S
C168 N172 1.351 . S
C169 C167 1.387 . S
C169 C170 1.374 . S
C169 H184 0.931 . S
C170 C164 1.439 . S
C170 C169 1.374 . S
C170 H185 0.931 . S
Eu171 N162 2.600 . S
Eu171 N172 2.562 . S
Eu171 O206 2.335 . S
Eu171 O209 2.372 . S
Eu171 O210 2.462 . S
Eu171 O211 2.373 . S
Eu171 O213 2.432 . S
Eu171 O214 2.291 . S
Eu171 C235 2.787 . S
N172 C168 1.351 . S
N172 Eu171 2.562 . S
N172 C174 1.325 . S
C173 C167 1.404 . S
C173 C175 1.366 . S
C173 H181 0.930 . S
C174 N172 1.325 . S
C174 C175 1.416 . S
C174 H180 0.929 . S
C175 C173 1.366 . S
C175 C174 1.416 . S
C175 H177 0.930 . S
H176 C165 0.930 . S
H177 C175 0.930 . S
H178 C193 0.930 . S
H179 C200 0.930 . S
H180 C174 0.929 . S
H181 C173 0.930 . S
H182 C196 0.929 . S
H183 C163 0.931 . S
H184 C169 0.931 . S
H185 C170 0.931 . S
H186 C191 0.931 . S
H187 C166 0.929 . S
H188 C199 0.930 . S
N189 Eu160 2.600 . S
N189 C190 1.365 1_556 S
N189 C193 1.319 . S
C190 N189 1.365 1_554 S
C190 C192 1.405 . S
C190 C198 1.448 . S
C191 H186 0.931 . S
C191 C193 1.397 . S
C191 C194 1.367 1_556 S
C192 C190 1.405 . S
C192 C194 1.403 . S
C192 C225 1.439 . S
C193 H178 0.930 . S
C193 N189 1.319 . S
C193 C191 1.397 . S
C194 C191 1.367 1_554 S
C194 C192 1.403 . S
C194 H201 0.929 . S
N195 Eu160 2.562 1_554 S
N195 C196 1.325 . S
N195 C198 1.351 . S
C196 H182 0.929 . S
C196 N195 1.325 . S
C196 C200 1.416 . S
C197 C198 1.430 . S
C197 C199 1.404 . S
C197 C226 1.387 . S
C198 C190 1.448 . S
C198 N195 1.351 . S
C198 C197 1.430 . S
C199 H188 0.930 . S
C199 C197 1.404 . S
C199 C200 1.366 . S
C200 H179 0.930 . S
C200 C196 1.416 . S
C200 C199 1.366 . S
H201 C194 0.929 . S
H202 C225 0.931 . S
H203 C226 0.931 . S
O204 Eu160 2.462 . S
O204 C224 1.252 . S
O205 Eu160 2.373 1_554 S
O205 C216 1.249 . S
O206 Eu171 2.335 . S
O206 C216 1.264 . S
O207 Eu160 2.432 . S
O207 C224 1.268 . S
O208 Eu160 2.291 1_554 S
O208 C223 1.255 . S
O209 Eu171 2.372 . S
O209 C223 1.257 . S
O210 Eu171 2.462 . S
O210 C235 1.252 . S
O211 Eu171 2.373 . S
O211 C227 1.249 1_554 S
O212 Eu160 2.335 . S
O212 C227 1.264 . S
O213 Eu171 2.432 . S
O213 C235 1.268 . S
O214 Eu171 2.291 . S
O214 C234 1.255 . S
O215 Eu160 2.372 1_554 S
O215 C234 1.257 . S
C216 O205 1.249 . S
C216 O206 1.264 . S
C217 C220 1.382 . S
C217 C222 1.390 . S
C217 C224 1.506 . S
C218 C219 1.398 . S
C218 C222 1.392 . S
C219 C218 1.398 . S
C219 C221 1.372 . S
C219 H236 0.931 . S
C220 C217 1.382 . S
C220 C221 1.390 . S
C220 H237 0.931 . S
C221 C219 1.372 . S
C221 C220 1.390 . S
C221 H238 0.929 . S
C222 C217 1.390 . S
C222 C218 1.392 . S
C222 H239 0.930 . S
C223 O208 1.255 . S
C223 O209 1.257 . S
C224 Eu160 2.787 . S
C224 O204 1.252 . S
C224 O207 1.268 . S
C224 C217 1.506 . S
C225 C192 1.439 . S
C225 H202 0.931 . S
C225 C226 1.374 . S
C226 C197 1.387 . S
C226 H203 0.931 . S
C226 C225 1.374 . S
C227 O211 1.249 1_556 S
C227 O212 1.264 . S
C228 C231 1.382 . S
C228 C232 1.390 . S
C228 C235 1.506 . S
C229 C230 1.398 . S
C229 C232 1.392 . S
C230 C229 1.398 . S
C230 C233 1.372 . S
C230 H240 0.931 . S
C231 C228 1.382 . S
C231 C233 1.390 . S
C231 H241 0.931 . S
C232 C228 1.390 . S
C232 C229 1.392 . S
C232 H242 0.930 . S
C233 C230 1.372 . S
C233 C231 1.390 . S
C233 H243 0.929 . S
C234 O214 1.255 . S
C234 O215 1.257 . S
C235 Eu171 2.787 . S
C235 O210 1.252 . S
C235 O213 1.268 . S
C235 C228 1.506 . S
H236 C219 0.931 . S
H237 C220 0.931 . S
H238 C221 0.929 . S
H239 C222 0.930 . S
H240 C230 0.931 . S
H241 C231 0.931 . S
H242 C232 0.930 . S
H243 C233 0.929 . S
H244 C262 0.951 . S
H245 C264 0.951 . S
H246 C266 0.950 . S
H247 C267 0.950 . S
H248 C269 0.950 . S
H249 C272 0.950 . S
H250 C273 0.950 . S
H251 C275 0.950 . S
H252 C276 0.950 . S
H253 C277 0.951 . S
H254 C279 0.951 . S
H255 C281 0.950 . S
H256 C282 0.950 . S
H257 C284 0.950 . S
H258 C287 0.950 . S
H259 C288 0.950 . S
H260 C290 0.950 . S
H261 C291 0.950 . S
C262 H244 0.951 . S
C262 C263 1.366 . S
C262 C264 1.388 . S
C263 C262 1.366 . S
C263 C267 1.385 . S
C264 H245 0.951 . S
C264 C262 1.388 . S
C264 C265 1.366 . S
C265 C264 1.366 . S
C265 C266 1.414 . S
C265 C268 1.499 . S
C266 H246 0.950 . S
C266 C265 1.414 . S
C266 C267 1.374 . S
C267 H247 0.950 . S
C267 C263 1.385 . S
C267 C266 1.374 . S
C268 C265 1.499 . S
C268 C269 1.373 . S
C268 C270 1.389 . S
C269 H248 0.950 . S
C269 C268 1.373 . S
C269 C285 1.377 . S
C270 C268 1.389 . S
C270 C271 1.524 . S
C270 C284 1.377 . S
C271 C270 1.524 . S
C271 C272 1.397 . S
C271 C276 1.363 . S
C272 H249 0.950 . S
C272 C271 1.397 . S
C272 C273 1.334 . S
C273 H250 0.950 . S
C273 C272 1.334 . S
C273 C274 1.287 . S
C274 C273 1.287 . S
C274 C275 1.524 . S
C274 H293 0.913 . S
C275 H251 0.950 . S
C275 C274 1.524 . S
C275 C276 1.415 . S
C276 H252 0.950 . S
C276 C271 1.363 . S
C276 C275 1.415 . S
C277 H253 0.951 . S
C277 C278 1.366 . S
C277 C279 1.388 . S
C278 C277 1.366 . S
C278 C282 1.385 . S
C279 H254 0.951 . S
C279 C277 1.388 . S
C279 C280 1.366 . S
C280 C279 1.366 . S
C280 C281 1.414 . S
C280 C283 1.499 . S
C281 H255 0.950 . S
C281 C280 1.414 . S
C281 C282 1.374 . S
C282 H256 0.950 . S
C282 C278 1.385 . S
C282 C281 1.374 . S
C283 C280 1.499 . S
C283 C284 1.373 . S
C283 C285 1.389 . S
C284 H257 0.950 . S
C284 C270 1.377 . S
C284 C283 1.373 . S
C285 C269 1.377 . S
C285 C283 1.389 . S
C285 C286 1.524 . S
C286 C285 1.524 . S
C286 C287 1.397 . S
C286 C291 1.363 . S
C287 H258 0.950 . S
C287 C286 1.397 . S
C287 C288 1.334 . S
C288 H259 0.950 . S
C288 C287 1.334 . S
C288 C289 1.287 . S
C289 C288 1.287 . S
C289 C290 1.524 . S
C289 H292 0.999 . S
C290 H260 0.950 . S
C290 C289 1.524 . S
C290 C291 1.415 . S
C291 H261 0.950 . S
C291 C286 1.363 . S
C291 C290 1.415 . S
H292 C289 0.999 . S
H293 C274 0.913 . S
H294 C312 0.951 . S
H295 C314 0.951 . S
H296 C316 0.950 . S
H297 C317 0.950 . S
H298 C319 0.950 . S
H299 C322 0.950 . S
H300 C323 0.950 . S
H301 C325 0.950 . S
H302 C326 0.950 . S
H303 C327 0.951 . S
H304 C329 0.951 . S
H305 C331 0.950 . S
H306 C332 0.950 . S
H307 C334 0.950 . S
H308 C337 0.950 . S
H309 C338 0.950 . S
H310 C340 0.950 . S
H311 C341 0.936 1_554 S
C312 H294 0.951 . S
C312 C313 1.366 . S
C312 C314 1.388 . S
C313 C312 1.366 . S
C313 C317 1.385 . S
C314 H295 0.951 . S
C314 C312 1.388 . S
C314 C315 1.366 . S
C315 C314 1.366 . S
C315 C316 1.414 . S
C315 C318 1.499 . S
C316 H296 0.950 . S
C316 C315 1.414 . S
C316 C317 1.374 . S
C317 H297 0.950 . S
C317 C313 1.385 . S
C317 C316 1.374 . S
C318 C315 1.499 . S
C318 C319 1.373 . S
C318 C320 1.389 . S
C319 H298 0.950 . S
C319 C318 1.373 . S
C319 C335 1.377 . S
C320 C318 1.389 . S
C320 C321 1.524 . S
C320 C334 1.377 . S
C321 C320 1.524 . S
C321 C322 1.397 . S
C321 C326 1.363 . S
C322 H299 0.950 . S
C322 C321 1.397 . S
C322 C323 1.334 . S
C323 H300 0.950 . S
C323 C322 1.334 . S
C323 C324 1.287 . S
C324 C323 1.287 . S
C324 C325 1.524 . S
C324 H343 0.913 . S
C325 H301 0.950 . S
C325 C324 1.524 . S
C325 C326 1.415 . S
C326 H302 0.950 . S
C326 C321 1.363 . S
C326 C325 1.415 . S
C327 H303 0.951 . S
C327 C328 1.366 . S
C327 C329 1.388 . S
C328 C327 1.366 . S
C328 C332 1.385 . S
C329 H304 0.951 . S
C329 C327 1.388 . S
C329 C330 1.366 . S
C330 C329 1.366 . S
C330 C331 1.414 . S
C330 C333 1.499 . S
C331 H305 0.950 . S
C331 C330 1.414 . S
C331 C332 1.374 . S
C332 H306 0.950 . S
C332 C328 1.385 . S
C332 C331 1.374 . S
C333 C330 1.499 . S
C333 C334 1.373 . S
C333 C335 1.389 . S
C334 H307 0.950 . S
C334 C320 1.377 . S
C334 C333 1.373 . S
C335 C319 1.377 . S
C335 C333 1.389 . S
C335 C336 1.524 1_554 S
C336 C335 1.524 1_556 S
C336 C337 1.397 . S
C336 C341 1.364 . S
C337 H308 0.950 . S
C337 C336 1.397 . S
C337 C338 1.334 . S
C338 H309 0.950 . S
C338 C337 1.334 . S
C338 C339 1.287 . S
C339 C338 1.287 . S
C339 C340 1.524 . S
C339 H342 0.999 . S
C340 H310 0.950 . S
C340 C339 1.524 . S
C340 C341 1.428 . S
C341 H311 0.936 1_556 S
C341 C336 1.364 . S
C341 C340 1.428 . S
H342 C339 0.999 . S
H343 C324 0.913 . S
H344 C362 0.951 . S
H345 C364 0.951 . S
H346 C366 0.950 . S
H347 C367 0.950 . S
H348 C369 0.950 . S
H349 C372 0.950 . S
H350 C373 0.950 . S
H351 C375 0.950 . S
H352 C376 0.950 . S
H353 C377 0.951 . S
H354 C379 0.951 . S
H355 C381 0.950 . S
H356 C382 0.950 . S
H357 C384 0.950 . S
H358 C387 0.950 . S
H359 C388 0.950 . S
H360 C390 0.950 . S
H361 C391 0.950 . S
C362 H344 0.951 . S
C362 C363 1.366 . S
C362 C364 1.388 . S
C363 C362 1.366 . S
C363 C367 1.385 . S
C364 H345 0.951 . S
C364 C362 1.388 . S
C364 C365 1.366 . S
C365 C364 1.366 . S
C365 C366 1.414 . S
C365 C368 1.499 . S
C366 H346 0.950 . S
C366 C365 1.414 . S
C366 C367 1.374 . S
C367 H347 0.950 . S
C367 C363 1.385 . S
C367 C366 1.374 . S
C368 C365 1.499 . S
C368 C369 1.373 . S
C368 C370 1.389 . S
C369 H348 0.950 . S
C369 C368 1.373 . S
C369 C385 1.377 . S
C370 C368 1.389 . S
C370 C371 1.524 . S
C370 C384 1.377 . S
C371 C370 1.524 . S
C371 C372 1.397 . S
C371 C376 1.363 . S
C372 H349 0.950 . S
C372 C371 1.397 . S
C372 C373 1.334 . S
C373 H350 0.950 . S
C373 C372 1.334 . S
C373 C374 1.287 . S
C374 C373 1.287 . S
C374 C375 1.524 . S
C374 H393 0.913 . S
C375 H351 0.950 . S
C375 C374 1.524 . S
C375 C376 1.415 . S
C376 H352 0.950 . S
C376 C371 1.363 . S
C376 C375 1.415 . S
C377 H353 0.951 . S
C377 C378 1.366 . S
C377 C379 1.388 . S
C378 C377 1.366 . S
C378 C382 1.385 . S
C379 H354 0.951 . S
C379 C377 1.388 . S
C379 C380 1.366 . S
C380 C379 1.366 . S
C380 C381 1.414 . S
C380 C383 1.499 . S
C381 H355 0.950 . S
C381 C380 1.414 . S
C381 C382 1.374 . S
C382 H356 0.950 . S
C382 C378 1.385 . S
C382 C381 1.374 . S
C383 C380 1.499 . S
C383 C384 1.373 . S
C383 C385 1.389 . S
C384 H357 0.950 . S
C384 C370 1.377 . S
C384 C383 1.373 . S
C385 C369 1.377 . S
C385 C383 1.389 . S
C385 C386 1.524 . S
C386 C385 1.524 . S
C386 C387 1.397 . S
C386 C391 1.363 . S
C387 H358 0.950 . S
C387 C386 1.397 . S
C387 C388 1.334 . S
C388 H359 0.950 . S
C388 C387 1.334 . S
C388 C389 1.287 . S
C389 C388 1.287 . S
C389 C390 1.524 . S
C389 H392 0.999 . S
C390 H360 0.950 . S
C390 C389 1.524 . S
C390 C391 1.415 . S
C391 H361 0.950 . S
C391 C386 1.363 . S
C391 C390 1.415 . S
H392 C389 0.999 . S
H393 C374 0.913 . S
H394 C412 0.951 . S
H395 C414 0.951 . S
H396 C416 0.950 . S
H397 C417 0.950 . S
H398 C419 0.950 1_556 S
H399 C422 0.950 . S
H400 C423 0.950 . S
H401 C425 0.950 . S
H402 C426 0.950 . S
H403 C427 0.951 . S
H404 C429 0.951 . S
H405 C431 0.950 . S
H406 C432 0.950 . S
H407 C434 0.950 . S
H408 C437 0.950 . S
H409 C438 0.950 . S
H410 C440 0.950 . S
H411 C441 0.950 . S
C412 H394 0.951 . S
C412 C413 1.366 . S
C412 C414 1.388 . S
C413 C412 1.366 . S
C413 C417 1.385 . S
C414 H395 0.951 . S
C414 C412 1.388 . S
C414 C415 1.366 . S
C415 C414 1.366 . S
C415 C416 1.414 . S
C415 C418 1.499 . S
C416 H396 0.950 . S
C416 C415 1.414 . S
C416 C417 1.374 . S
C417 H397 0.950 . S
C417 C413 1.385 . S
C417 C416 1.374 . S
C418 C415 1.499 . S
C418 C419 1.373 . S
C418 C420 1.389 . S
C419 H398 0.950 1_554 S
C419 C418 1.373 . S
C419 C435 1.377 1_554 S
C420 C418 1.389 . S
C420 C421 1.524 . S
C420 C434 1.377 . S
C421 C420 1.524 . S
C421 C422 1.397 . S
C421 C426 1.363 . S
C422 H399 0.950 . S
C422 C421 1.397 . S
C422 C423 1.334 . S
C423 H400 0.950 . S
C423 C422 1.334 . S
C423 C424 1.287 . S
C424 C423 1.287 . S
C424 C425 1.524 . S
C424 H443 0.913 . S
C425 H401 0.950 . S
C425 C424 1.524 . S
C425 C426 1.415 . S
C426 H402 0.950 . S
C426 C421 1.363 . S
C426 C425 1.415 . S
C427 H403 0.951 . S
C427 C428 1.366 . S
C427 C429 1.388 . S
C428 C427 1.366 . S
C428 C432 1.385 . S
C429 H404 0.951 . S
C429 C427 1.388 . S
C429 C430 1.366 . S
C430 C429 1.366 . S
C430 C431 1.414 . S
C430 C433 1.499 . S
C431 H405 0.950 . S
C431 C430 1.414 . S
C431 C432 1.374 . S
C432 H406 0.950 . S
C432 C428 1.385 . S
C432 C431 1.374 . S
C433 C430 1.499 . S
C433 C434 1.373 . S
C433 C435 1.389 1_554 S
C434 H407 0.950 . S
C434 C420 1.377 . S
C434 C433 1.373 . S
C435 C419 1.377 1_556 S
C435 C433 1.389 1_556 S
C435 C436 1.524 . S
C436 C435 1.524 . S
C436 C437 1.397 . S
C436 C441 1.363 . S
C437 H408 0.950 . S
C437 C436 1.397 . S
C437 C438 1.334 . S
C438 H409 0.950 . S
C438 C437 1.334 . S
C438 C439 1.287 . S
C439 C438 1.287 . S
C439 C440 1.524 . S
C439 H442 0.999 . S
C440 H410 0.950 . S
C440 C439 1.524 . S
C440 C441 1.415 . S
C441 H411 0.950 . S
C441 C436 1.363 . S
C441 C440 1.415 . S
H442 C439 0.999 . S
H443 C424 0.913 . S
H444 C462 0.951 . S
H445 C464 0.951 . S
H446 C466 0.950 . S
H447 C467 0.950 . S
H448 C469 0.950 . S
H449 C472 0.950 . S
H450 C473 0.950 . S
H451 C475 0.950 . S
H452 C476 0.950 . S
H453 C477 0.951 . S
H454 C479 0.951 . S
H455 C481 0.950 . S
H456 C482 0.950 . S
H457 C484 0.950 . S
H458 C487 0.950 . S
H459 C488 0.950 . S
H460 C490 0.950 . S
H461 C491 0.950 . S
C462 H444 0.951 . S
C462 C463 1.366 . S
C462 C464 1.388 . S
C463 C462 1.366 . S
C463 C467 1.385 . S
C464 H445 0.951 . S
C464 C462 1.388 . S
C464 C465 1.366 . S
C465 C464 1.366 . S
C465 C466 1.414 . S
C465 C468 1.499 . S
C466 H446 0.950 . S
C466 C465 1.414 . S
C466 C467 1.374 . S
C467 H447 0.950 . S
C467 C463 1.385 . S
C467 C466 1.374 . S
C468 C465 1.499 . S
C468 C469 1.373 . S
C468 C470 1.389 . S
C469 H448 0.950 . S
C469 C468 1.373 . S
C469 C485 1.377 . S
C470 C468 1.389 . S
C470 C471 1.524 . S
C470 C484 1.377 . S
C471 C470 1.524 . S
C471 C472 1.397 . S
C471 C476 1.363 . S
C472 H449 0.950 . S
C472 C471 1.397 . S
C472 C473 1.334 . S
C473 H450 0.950 . S
C473 C472 1.334 . S
C473 C474 1.287 . S
C474 C473 1.287 . S
C474 C475 1.524 . S
C474 H493 0.913 . S
C475 H451 0.950 . S
C475 C474 1.524 . S
C475 C476 1.415 . S
C476 H452 0.950 . S
C476 C471 1.363 . S
C476 C475 1.415 . S
C477 H453 0.951 . S
C477 C478 1.366 . S
C477 C479 1.388 . S
C478 C477 1.366 . S
C478 C482 1.385 . S
C479 H454 0.951 . S
C479 C477 1.388 . S
C479 C480 1.366 . S
C480 C479 1.366 . S
C480 C481 1.414 . S
C480 C483 1.499 . S
C481 H455 0.950 . S
C481 C480 1.414 . S
C481 C482 1.374 . S
C482 H456 0.950 . S
C482 C478 1.385 . S
C482 C481 1.374 . S
C483 C480 1.499 . S
C483 C484 1.373 . S
C483 C485 1.389 . S
C484 H457 0.950 . S
C484 C470 1.377 . S
C484 C483 1.373 . S
C485 C469 1.377 . S
C485 C483 1.389 . S
C485 C486 1.524 . S
C486 C485 1.524 . S
C486 C487 1.397 . S
C486 C491 1.363 . S
C487 H458 0.950 . S
C487 C486 1.397 . S
C487 C488 1.334 . S
C488 H459 0.950 . S
C488 C487 1.334 . S
C488 C489 1.287 . S
C489 C488 1.287 . S
C489 C490 1.524 . S
C489 H492 0.999 . S
C490 H460 0.950 . S
C490 C489 1.524 . S
C490 C491 1.415 . S
C491 H461 0.950 . S
C491 C486 1.363 . S
C491 C490 1.415 . S
H492 C489 0.999 . S
H493 C474 0.913 . S
H494 C512 0.951 . S
H495 C514 0.951 . S
H496 C516 0.950 . S
H497 C517 0.950 . S
H498 C519 0.950 . S
H499 C522 0.950 . S
H500 C523 0.950 . S
H501 C525 0.950 . S
H502 C526 0.950 . S
H503 C527 0.951 . S
H504 C529 0.951 . S
H505 C531 0.950 . S
H506 C532 0.950 . S
H507 C534 0.950 . S
H508 C537 0.950 . S
H509 C538 0.950 . S
H510 C540 0.950 . S
H511 C541 0.950 . S
C512 H494 0.951 . S
C512 C513 1.366 . S
C512 C514 1.388 . S
C513 C512 1.366 . S
C513 C517 1.385 . S
C514 H495 0.951 . S
C514 C512 1.388 . S
C514 C515 1.366 . S
C515 C514 1.366 . S
C515 C516 1.414 . S
C515 C518 1.499 . S
C516 H496 0.950 . S
C516 C515 1.414 . S
C516 C517 1.374 . S
C517 H497 0.950 . S
C517 C513 1.385 . S
C517 C516 1.374 . S
C518 C515 1.499 . S
C518 C519 1.373 . S
C518 C520 1.389 . S
C519 H498 0.950 . S
C519 C518 1.373 . S
C519 C535 1.377 . S
C520 C518 1.389 . S
C520 C521 1.524 . S
C520 C534 1.377 . S
C521 C520 1.524 . S
C521 C522 1.397 . S
C521 C526 1.363 . S
C522 H499 0.950 . S
C522 C521 1.397 . S
C522 C523 1.334 . S
C523 H500 0.950 . S
C523 C522 1.334 . S
C523 C524 1.287 . S
C524 C523 1.287 . S
C524 C525 1.524 . S
C524 H543 0.913 . S
C525 H501 0.950 . S
C525 C524 1.524 . S
C525 C526 1.415 . S
C526 H502 0.950 . S
C526 C521 1.363 . S
C526 C525 1.415 . S
C527 H503 0.951 . S
C527 C528 1.366 . S
C527 C529 1.388 . S
C528 C527 1.366 . S
C528 C532 1.385 . S
C529 H504 0.951 . S
C529 C527 1.388 . S
C529 C530 1.366 . S
C530 C529 1.366 . S
C530 C531 1.414 . S
C530 C533 1.499 . S
C531 H505 0.950 . S
C531 C530 1.414 . S
C531 C532 1.374 . S
C532 H506 0.950 . S
C532 C528 1.385 . S
C532 C531 1.374 . S
C533 C530 1.499 . S
C533 C534 1.373 . S
C533 C535 1.389 . S
C534 H507 0.950 . S
C534 C520 1.377 . S
C534 C533 1.373 . S
C535 C519 1.377 . S
C535 C533 1.389 . S
C535 C536 1.524 . S
C536 C535 1.524 . S
C536 C537 1.397 . S
C536 C541 1.363 . S
C537 H508 0.950 . S
C537 C536 1.397 . S
C537 C538 1.334 . S
C538 H509 0.950 . S
C538 C537 1.334 . S
C538 C539 1.287 . S
C539 C538 1.287 . S
C539 C540 1.524 . S
C539 H542 0.999 . S
C540 H510 0.950 . S
C540 C539 1.524 . S
C540 C541 1.415 . S
C541 H511 0.950 . S
C541 C536 1.363 . S
C541 C540 1.415 . S
H542 C539 0.999 . S
H543 C524 0.913 . S
H544 C562 0.951 . S
H545 C564 0.951 . S
H546 C566 0.950 . S
H547 C567 0.950 . S
H548 C569 0.950 . S
H549 C572 0.950 . S
H550 C573 0.950 . S
H551 C575 0.950 . S
H552 C576 0.950 . S
H553 C577 0.951 . S
H554 C579 0.951 . S
H555 C581 0.950 . S
H556 C582 0.950 . S
H557 C584 0.950 . S
H558 C587 0.950 . S
H559 C588 0.950 . S
H560 C590 0.950 . S
H561 C591 0.950 . S
C562 H544 0.951 . S
C562 C563 1.366 . S
C562 C564 1.388 . S
C563 C562 1.366 . S
C563 C567 1.385 . S
C564 H545 0.951 . S
C564 C562 1.388 . S
C564 C565 1.366 . S
C565 C564 1.366 . S
C565 C566 1.414 . S
C565 C568 1.499 . S
C566 H546 0.950 . S
C566 C565 1.414 . S
C566 C567 1.374 . S
C567 H547 0.950 . S
C567 C563 1.385 . S
C567 C566 1.374 . S
C568 C565 1.499 . S
C568 C569 1.373 . S
C568 C570 1.389 . S
C569 H548 0.950 . S
C569 C568 1.373 . S
C569 C585 1.377 . S
C570 C568 1.389 . S
C570 C571 1.524 . S
C570 C584 1.377 . S
C571 C570 1.524 . S
C571 C572 1.397 . S
C571 C576 1.363 . S
C572 H549 0.950 . S
C572 C571 1.397 . S
C572 C573 1.334 . S
C573 H550 0.950 . S
C573 C572 1.334 . S
C573 C574 1.287 . S
C574 C573 1.287 . S
C574 C575 1.524 . S
C574 H593 0.913 . S
C575 H551 0.950 . S
C575 C574 1.524 . S
C575 C576 1.415 . S
C576 H552 0.950 . S
C576 C571 1.363 . S
C576 C575 1.415 . S
C577 H553 0.951 . S
C577 C578 1.366 . S
C577 C579 1.388 . S
C578 C577 1.366 . S
C578 C582 1.385 . S
C579 H554 0.951 . S
C579 C577 1.388 . S
C579 C580 1.366 . S
C580 C579 1.366 . S
C580 C581 1.414 . S
C580 C583 1.499 . S
C581 H555 0.950 . S
C581 C580 1.414 . S
C581 C582 1.374 . S
C582 H556 0.950 . S
C582 C578 1.385 . S
C582 C581 1.374 . S
C583 C580 1.499 . S
C583 C584 1.373 . S
C583 C585 1.389 . S
C584 H557 0.950 . S
C584 C570 1.377 . S
C584 C583 1.373 . S
C585 C569 1.377 . S
C585 C583 1.389 . S
C585 C586 1.524 . S
C586 C585 1.524 . S
C586 C587 1.397 . S
C586 C591 1.363 . S
C587 H558 0.950 . S
C587 C586 1.397 . S
C587 C588 1.334 . S
C588 H559 0.950 . S
C588 C587 1.334 . S
C588 C589 1.287 . S
C589 C588 1.287 . S
C589 C590 1.524 . S
C589 H592 0.999 . S
C590 H560 0.950 . S
C590 C589 1.524 . S
C590 C591 1.415 . S
C591 H561 0.950 . S
C591 C586 1.363 . S
C591 C590 1.415 . S
H592 C589 0.999 . S
H593 C574 0.913 . S
H594 C612 0.951 . S
H595 C614 0.951 . S
H596 C616 0.950 . S
H597 C617 0.950 . S
H598 C619 0.950 . S
H599 C622 0.950 . S
H600 C623 0.950 . S
H601 C625 0.950 . S
H602 C626 0.950 . S
H603 C627 0.951 . S
H604 C629 0.951 . S
H605 C631 0.950 . S
H606 C632 0.950 . S
H607 C634 0.950 . S
H608 C637 0.950 . S
H609 C638 0.950 . S
H610 C640 0.950 . S
H611 C641 0.950 . S
C612 H594 0.951 . S
C612 C613 1.366 . S
C612 C614 1.388 . S
C613 C612 1.366 . S
C613 C617 1.385 . S
C614 H595 0.951 . S
C614 C612 1.388 . S
C614 C615 1.366 . S
C615 C614 1.366 . S
C615 C616 1.414 . S
C615 C618 1.499 . S
C616 H596 0.950 . S
C616 C615 1.414 . S
C616 C617 1.374 . S
C617 H597 0.950 . S
C617 C613 1.385 . S
C617 C616 1.374 . S
C618 C615 1.499 . S
C618 C619 1.373 . S
C618 C620 1.389 . S
C619 H598 0.950 . S
C619 C618 1.373 . S
C619 C635 1.377 . S
C620 C618 1.389 . S
C620 C621 1.524 . S
C620 C634 1.377 . S
C621 C620 1.524 . S
C621 C622 1.397 . S
C621 C626 1.363 . S
C622 H599 0.950 . S
C622 C621 1.397 . S
C622 C623 1.334 . S
C623 H600 0.950 . S
C623 C622 1.334 . S
C623 C624 1.287 . S
C624 C623 1.287 . S
C624 C625 1.524 . S
C624 H643 0.913 . S
C625 H601 0.950 . S
C625 C624 1.524 . S
C625 C626 1.415 . S
C626 H602 0.950 . S
C626 C621 1.363 . S
C626 C625 1.415 . S
C627 H603 0.951 . S
C627 C628 1.366 . S
C627 C629 1.388 . S
C628 C627 1.366 . S
C628 C632 1.385 . S
C629 H604 0.951 . S
C629 C627 1.388 . S
C629 C630 1.366 . S
C630 C629 1.366 . S
C630 C631 1.414 . S
C630 C633 1.499 . S
C631 H605 0.950 . S
C631 C630 1.414 . S
C631 C632 1.374 . S
C632 H606 0.950 . S
C632 C628 1.385 . S
C632 C631 1.374 . S
C633 C630 1.499 . S
C633 C634 1.373 . S
C633 C635 1.389 . S
C634 H607 0.950 . S
C634 C620 1.377 . S
C634 C633 1.373 . S
C635 C619 1.377 . S
C635 C633 1.389 . S
C635 C636 1.524 . S
C636 C635 1.524 . S
C636 C637 1.397 . S
C636 C641 1.363 . S
C637 H608 0.950 . S
C637 C636 1.397 . S
C637 C638 1.334 . S
C638 H609 0.950 . S
C638 C637 1.334 . S
C638 C639 1.287 . S
C639 C638 1.287 . S
C639 C640 1.524 . S
C639 H642 0.999 . S
C640 H610 0.950 . S
C640 C639 1.524 . S
C640 C641 1.415 . S
C641 H611 0.950 . S
C641 C636 1.363 . S
C641 C640 1.415 . S
H642 C639 0.999 . S
H643 C624 0.913 . S
H644 C662 0.951 . S
H645 C664 0.951 . S
H646 C666 0.950 . S
H647 C667 0.950 . S
H648 C669 0.950 . S
H649 C672 0.950 . S
H650 C673 0.950 . S
H651 C675 0.950 . S
H652 C676 0.950 . S
H653 C677 0.951 . S
H654 C679 0.951 . S
H655 C681 0.950 . S
H656 C682 0.950 . S
H657 C684 0.950 . S
H658 C687 0.950 . S
H659 C688 0.950 . S
H660 C690 0.950 . S
H661 C691 0.950 . S
C662 H644 0.951 . S
C662 C663 1.366 . S
C662 C664 1.388 . S
C663 C662 1.366 . S
C663 C667 1.385 . S
C664 H645 0.951 . S
C664 C662 1.388 . S
C664 C665 1.366 . S
C665 C664 1.366 . S
C665 C666 1.414 . S
C665 C668 1.499 . S
C666 H646 0.950 . S
C666 C665 1.414 . S
C666 C667 1.374 . S
C667 H647 0.950 . S
C667 C663 1.385 . S
C667 C666 1.374 . S
C668 C665 1.499 . S
C668 C669 1.373 . S
C668 C670 1.389 . S
C669 H648 0.950 . S
C669 C668 1.373 . S
C669 C685 1.377 . S
C670 C668 1.389 . S
C670 C671 1.524 . S
C670 C684 1.377 . S
C671 C670 1.524 . S
C671 C672 1.397 . S
C671 C676 1.363 . S
C672 H649 0.950 . S
C672 C671 1.397 . S
C672 C673 1.334 . S
C673 H650 0.950 . S
C673 C672 1.334 . S
C673 C674 1.287 . S
C674 C673 1.287 . S
C674 C675 1.524 . S
C674 H693 0.913 . S
C675 H651 0.950 . S
C675 C674 1.524 . S
C675 C676 1.415 . S
C676 H652 0.950 . S
C676 C671 1.363 . S
C676 C675 1.415 . S
C677 H653 0.951 . S
C677 C678 1.366 . S
C677 C679 1.388 . S
C678 C677 1.366 . S
C678 C682 1.385 . S
C679 H654 0.951 . S
C679 C677 1.388 . S
C679 C680 1.366 . S
C680 C679 1.366 . S
C680 C681 1.414 . S
C680 C683 1.499 . S
C681 H655 0.950 . S
C681 C680 1.414 . S
C681 C682 1.374 . S
C682 H656 0.950 . S
C682 C678 1.385 . S
C682 C681 1.374 . S
C683 C680 1.499 . S
C683 C684 1.373 . S
C683 C685 1.389 . S
C684 H657 0.950 . S
C684 C670 1.377 . S
C684 C683 1.373 . S
C685 C669 1.377 . S
C685 C683 1.389 . S
C685 C686 1.524 . S
C686 C685 1.524 . S
C686 C687 1.397 . S
C686 C691 1.363 . S
C687 H658 0.950 . S
C687 C686 1.397 . S
C687 C688 1.334 . S
C688 H659 0.950 . S
C688 C687 1.334 . S
C688 C689 1.287 . S
C689 C688 1.287 . S
C689 C690 1.524 . S
C689 H692 0.999 . S
C690 H660 0.950 . S
C690 C689 1.524 . S
C690 C691 1.415 . S
C691 H661 0.950 . S
C691 C686 1.363 . S
C691 C690 1.415 . S
H692 C689 0.999 . S
H693 C674 0.913 . S
H694 C712 0.951 . S
H695 C714 0.951 . S
H696 C716 0.950 . S
H697 C717 0.950 . S
H698 C719 0.950 . S
H699 C722 0.950 . S
H700 C723 0.950 . S
H701 C725 0.950 . S
H702 C726 0.950 . S
H703 C727 0.951 . S
H704 C729 0.951 . S
H705 C731 0.950 . S
H706 C732 0.950 . S
H707 C734 0.950 . S
H708 C737 0.950 . S
H709 C738 0.950 . S
H710 C740 0.950 . S
H711 C741 0.950 . S
C712 H694 0.951 . S
C712 C713 1.366 . S
C712 C714 1.388 . S
C713 C712 1.366 . S
C713 C717 1.385 . S
C714 H695 0.951 . S
C714 C712 1.388 . S
C714 C715 1.366 . S
C715 C714 1.366 . S
C715 C716 1.414 . S
C715 C718 1.499 . S
C716 H696 0.950 . S
C716 C715 1.414 . S
C716 C717 1.374 . S
C717 H697 0.950 . S
C717 C713 1.385 . S
C717 C716 1.374 . S
C718 C715 1.499 . S
C718 C719 1.373 . S
C718 C720 1.389 . S
C719 H698 0.950 . S
C719 C718 1.373 . S
C719 C735 1.377 . S
C720 C718 1.389 . S
C720 C721 1.524 . S
C720 C734 1.377 . S
C721 C720 1.524 . S
C721 C722 1.397 . S
C721 C726 1.363 . S
C722 H699 0.950 . S
C722 C721 1.397 . S
C722 C723 1.334 . S
C723 H700 0.950 . S
C723 C722 1.334 . S
C723 C724 1.287 . S
C724 C723 1.287 . S
C724 C725 1.524 . S
C724 H743 0.913 . S
C725 H701 0.950 . S
C725 C724 1.524 . S
C725 C726 1.415 . S
C726 H702 0.950 . S
C726 C721 1.363 . S
C726 C725 1.415 . S
C727 H703 0.951 . S
C727 C728 1.366 . S
C727 C729 1.388 . S
C728 C727 1.366 . S
C728 C732 1.385 . S
C729 H704 0.951 . S
C729 C727 1.388 . S
C729 C730 1.366 . S
C730 C729 1.366 . S
C730 C731 1.414 . S
C730 C733 1.499 . S
C731 H705 0.950 . S
C731 C730 1.414 . S
C731 C732 1.374 . S
C732 H706 0.950 . S
C732 C728 1.385 . S
C732 C731 1.374 . S
C733 C730 1.499 . S
C733 C734 1.373 . S
C733 C735 1.389 . S
C734 H707 0.950 . S
C734 C720 1.377 . S
C734 C733 1.373 . S
C735 C719 1.377 . S
C735 C733 1.389 . S
C735 C736 1.524 . S
C736 C735 1.524 . S
C736 C737 1.397 . S
C736 C741 1.363 . S
C737 H708 0.950 . S
C737 C736 1.397 . S
C737 C738 1.334 . S
C738 H709 0.950 . S
C738 C737 1.334 . S
C738 C739 1.287 1_545 S
C739 C738 1.287 1_565 S
C739 C740 1.524 . S
C739 H742 0.999 . S
C740 H710 0.950 . S
C740 C739 1.524 . S
C740 C741 1.415 1_565 S
C741 H711 0.950 . S
C741 C736 1.363 . S
C741 C740 1.415 1_545 S
H742 C739 0.999 . S
H743 C724 0.913 . S
H744 C762 0.951 . S
H745 C764 0.951 . S
H746 C766 0.950 . S
H747 C767 0.950 . S
H748 C769 0.950 . S
H749 C772 0.950 . S
H750 C773 0.950 . S
H751 C775 0.950 . S
H752 C776 0.950 . S
H753 C777 0.951 . S
H754 C779 0.951 . S
H755 C781 0.950 . S
H756 C782 0.950 . S
H757 C784 0.950 . S
H758 C787 0.950 . S
H759 C788 0.950 . S
H760 C790 0.950 . S
H761 C791 0.950 . S
C762 H744 0.951 . S
C762 C763 1.366 . S
C762 C764 1.388 . S
C763 C762 1.366 . S
C763 C767 1.385 . S
C764 H745 0.951 . S
C764 C762 1.388 . S
C764 C765 1.366 . S
C765 C764 1.366 . S
C765 C766 1.414 . S
C765 C768 1.499 . S
C766 H746 0.950 . S
C766 C765 1.414 . S
C766 C767 1.374 . S
C767 H747 0.950 . S
C767 C763 1.385 . S
C767 C766 1.374 . S
C768 C765 1.499 . S
C768 C769 1.373 . S
C768 C770 1.389 . S
C769 H748 0.950 . S
C769 C768 1.373 . S
C769 C785 1.377 . S
C770 C768 1.389 . S
C770 C771 1.524 . S
C770 C784 1.377 . S
C771 C770 1.524 . S
C771 C772 1.397 . S
C771 C776 1.363 . S
C772 H749 0.950 . S
C772 C771 1.397 . S
C772 C773 1.334 . S
C773 H750 0.950 . S
C773 C772 1.334 . S
C773 C774 1.287 . S
C774 C773 1.287 . S
C774 C775 1.524 . S
C774 H793 0.913 . S
C775 H751 0.950 . S
C775 C774 1.524 . S
C775 C776 1.415 . S
C776 H752 0.950 . S
C776 C771 1.363 . S
C776 C775 1.415 . S
C777 H753 0.951 . S
C777 C778 1.366 . S
C777 C779 1.388 . S
C778 C777 1.366 . S
C778 C782 1.385 . S
C779 H754 0.951 . S
C779 C777 1.388 . S
C779 C780 1.366 . S
C780 C779 1.366 . S
C780 C781 1.414 . S
C780 C783 1.499 . S
C781 H755 0.950 . S
C781 C780 1.414 . S
C781 C782 1.374 . S
C782 H756 0.950 . S
C782 C778 1.385 . S
C782 C781 1.374 . S
C783 C780 1.499 . S
C783 C784 1.373 . S
C783 C785 1.389 . S
C784 H757 0.950 . S
C784 C770 1.377 . S
C784 C783 1.373 . S
C785 C769 1.377 . S
C785 C783 1.389 . S
C785 C786 1.524 . S
C786 C785 1.524 . S
C786 C787 1.397 . S
C786 C791 1.363 . S
C787 H758 0.950 . S
C787 C786 1.397 . S
C787 C788 1.334 . S
C788 H759 0.950 . S
C788 C787 1.334 . S
C788 C789 1.287 . S
C789 C788 1.287 . S
C789 C790 1.524 . S
C789 H792 0.999 . S
C790 H760 0.950 . S
C790 C789 1.524 . S
C790 C791 1.415 . S
C791 H761 0.950 . S
C791 C786 1.363 . S
C791 C790 1.415 . S
H792 C789 0.999 . S
H793 C774 0.913 . S
H794 C812 0.951 . S
H795 C814 0.951 . S
H796 C816 0.950 . S
H797 C817 0.950 . S
H798 C819 0.950 . S
H799 C822 0.950 . S
H800 C823 0.950 . S
H801 C825 0.950 . S
H802 C826 0.950 . S
H803 C827 0.951 . S
H804 C829 0.951 . S
H805 C831 0.950 . S
H806 C832 0.950 1_545 S
H807 C834 0.950 . S
H808 C837 0.950 . S
H809 C838 0.950 . S
H810 C840 0.950 . S
H811 C841 0.950 . S
C812 H794 0.951 . S
C812 C813 1.366 . S
C812 C814 1.388 . S
C813 C812 1.366 . S
C813 C817 1.385 . S
C814 H795 0.951 . S
C814 C812 1.388 . S
C814 C815 1.366 . S
C815 C814 1.366 . S
C815 C816 1.414 . S
C815 C818 1.499 . S
C816 H796 0.950 . S
C816 C815 1.414 . S
C816 C817 1.374 . S
C817 H797 0.950 . S
C817 C813 1.385 . S
C817 C816 1.374 . S
C818 C815 1.499 . S
C818 C819 1.373 . S
C818 C820 1.389 . S
C819 H798 0.950 . S
C819 C818 1.373 . S
C819 C835 1.377 . S
C820 C818 1.389 . S
C820 C821 1.524 . S
C820 C834 1.377 . S
C821 C820 1.524 . S
C821 C822 1.397 . S
C821 C826 1.363 . S
C822 H799 0.950 . S
C822 C821 1.397 . S
C822 C823 1.334 . S
C823 H800 0.950 . S
C823 C822 1.334 . S
C823 C824 1.287 . S
C824 C823 1.287 . S
C824 C825 1.524 . S
C824 H843 0.913 . S
C825 H801 0.950 . S
C825 C824 1.524 . S
C825 C826 1.415 . S
C826 H802 0.950 . S
C826 C821 1.363 . S
C826 C825 1.415 . S
C827 H803 0.951 . S
C827 C828 1.366 . S
C827 C829 1.388 . S
C828 C827 1.366 . S
C828 C832 1.385 . S
C829 H804 0.951 . S
C829 C827 1.388 . S
C829 C830 1.366 . S
C830 C829 1.366 . S
C830 C831 1.414 . S
C830 C833 1.499 . S
C831 H805 0.950 . S
C831 C830 1.414 . S
C831 C832 1.374 . S
C832 H806 0.950 1_565 S
C832 C828 1.385 . S
C832 C831 1.374 . S
C833 C830 1.499 . S
C833 C834 1.373 . S
C833 C835 1.389 . S
C834 H807 0.950 . S
C834 C820 1.377 . S
C834 C833 1.373 . S
C835 C819 1.377 . S
C835 C833 1.389 . S
C835 C836 1.524 . S
C836 C835 1.524 . S
C836 C837 1.397 . S
C836 C841 1.363 . S
C837 H808 0.950 . S
C837 C836 1.397 . S
C837 C838 1.334 . S
C838 H809 0.950 . S
C838 C837 1.334 . S
C838 C839 1.287 . S
C839 C838 1.287 . S
C839 C840 1.524 . S
C839 H842 0.999 . S
C840 H810 0.950 . S
C840 C839 1.524 . S
C840 C841 1.415 . S
C841 H811 0.950 . S
C841 C836 1.363 . S
C841 C840 1.415 . S
H842 C839 0.999 . S
H843 C824 0.913 . S
C278 C139 1.734 . S
C263 C68 1.690 . S
C313 C11 1.611 . S
C328 C234 1.745 . S
C363 C30 1.660 . S
C378 C150 1.758 . S
C413 C49 1.656 . S
C428 C223 1.713 . S
C478 C134 1.541 . S
C463 C2 1.704 . S
C528 C227 1.823 . S
C513 C25 1.821 . S
C563 C40 1.715 . S
C578 C143 1.731 . S
C613 C59 1.691 . S
C628 C218 1.523 . S
C678 C229 1.451 . S
C663 C21 1.614 . S
C728 C145 1.452 . S
C713 C44 1.639 . S
C778 C216 1.704 . S
C763 C63 1.706 . S
C813 C6 1.645 . S
C828 C132 1.647 . S
