# Generated by pormake.
# Topology rtl, (3,6)-cn, num edge types: 1
# Building blocks:
#     Node 0, Type 0, BuildingBlock: PAMTOO_clean_linker_0, # of connection points: 3
#     Node 1, Type 0, BuildingBlock: PAMTOO_clean_linker_0, # of connection points: 3
#     Node 2, Type 0, BuildingBlock: PAMTOO_clean_linker_0, # of connection points: 3
#     Node 3, Type 0, BuildingBlock: PAMTOO_clean_linker_0, # of connection points: 3
#     Node 4, Type 1, BuildingBlock: CIFDUS_clean_sbu_1, # of connection points: 6
#     Node 5, Type 1, BuildingBlock: CIFDUS_clean_sbu_1, # of connection points: 6
#     Edge 6, Type (0, 1), BuildingBlock: FUNLAD_clean_linker_1, # of connection points: 2
#     Edge 7, Type (0, 1), BuildingBlock: FUNLAD_clean_linker_1, # of connection points: 2
#     Edge 8, Type (0, 1), BuildingBlock: FUNLAD_clean_linker_1, # of connection points: 2
#     Edge 9, Type (0, 1), BuildingBlock: FUNLAD_clean_linker_1, # of connection points: 2
#     Edge 10, Type (0, 1), BuildingBlock: FUNLAD_clean_linker_1, # of connection points: 2
#     Edge 11, Type (0, 1), BuildingBlock: FUNLAD_clean_linker_1, # of connection points: 2
#     Edge 12, Type (0, 1), BuildingBlock: FUNLAD_clean_linker_1, # of connection points: 2
#     Edge 13, Type (0, 1), BuildingBlock: FUNLAD_clean_linker_1, # of connection points: 2
#     Edge 14, Type (0, 1), BuildingBlock: FUNLAD_clean_linker_1, # of connection points: 2
#     Edge 15, Type (0, 1), BuildingBlock: FUNLAD_clean_linker_1, # of connection points: 2
#     Edge 16, Type (0, 1), BuildingBlock: FUNLAD_clean_linker_1, # of connection points: 2
#     Edge 17, Type (0, 1), BuildingBlock: FUNLAD_clean_linker_1, # of connection points: 2
# Relax obj value: 0.020
# Max RMSD: 0.114
# Mean RMSD: 0.090
data_MOF--net-rtl--node1-CIFDUS_clean_sbu_1--node2-PAMTOO_clean_linker_0--edge1-FUNLAD_clean_linker_1
_symmetry_space_group_name_H-M    P1
_symmetry_Int_Tables_number       1
_symmetry_cell_setting            triclinic
loop_
_symmetry_equiv_pos_as_xyz
'x, y, z'
_cell_length_a     36.221729
_cell_length_b     36.637048
_cell_length_c     22.755925
_cell_angle_alpha  91.761144
_cell_angle_beta   98.136956
_cell_angle_gamma 89.667021
loop_
_atom_site_label
_atom_site_type_symbol
_atom_site_fract_x
_atom_site_fract_y
_atom_site_fract_z
_atom_type_partial_charge
H0 H 0.16616 0.90486 0.07822 0.0
H1 H 0.25038 0.84583 0.1906 0.0
H2 H 0.23285 0.82296 1.00283 0.0
H3 H 0.23948 0.75958 0.10143 0.0
C4 C 0.26633 0.77104 0.12414 0.0
O5 O 0.27168 0.80573 0.10469 0.0
H6 H 0.26538 0.77256 0.17282 0.0
C7 C 0.18704 0.88352 0.08402 0.0
C8 C 0.19648 0.86419 0.03364 0.0
C9 C 0.20628 0.87704 0.14113 0.0
C10 C 0.23508 0.85101 0.14716 0.0
C11 C 0.24399 0.83093 0.09775 0.0
C12 C 0.22501 0.83784 0.04108 0.0
H13 H 0.65748 0.65214 0.58218 0.0
H14 H 0.72709 0.72927 0.50966 0.0
H15 H 0.74276 0.71166 0.69662 0.0
H16 H 0.75681 0.78364 0.67834 0.0
C17 C 0.76155 0.78324 0.63106 0.0
O18 O 0.76605 0.74753 0.61196 0.0
H19 H 0.73703 0.79575 0.60392 0.0
C20 C 0.6799 0.67202 0.5881 0.0
C21 C 0.69873 0.67939 0.64541 0.0
C22 C 0.68966 0.68928 0.53824 0.0
C23 C 0.71861 0.71535 0.54674 0.0
C24 C 0.73763 0.72318 0.60401 0.0
C25 C 0.72795 0.70495 0.65298 0.0
H26 H 0.91739 0.1795 0.04938 0.0
H27 H 0.83784 0.23701 0.92707 0.0
H28 H 0.84366 0.25943 0.11395 0.0
H29 H 0.76629 0.24761 0.03004 0.0
C30 C 0.77312 0.26752 0.99724 0.0
O31 O 0.81056 0.27623 1.00799 0.0
H32 H 0.76649 0.25472 0.95202 0.0
C33 C 0.89459 0.19877 0.04158 0.0
C34 C 0.88211 0.21802 0.08972 0.0
C35 C 0.87828 0.20451 0.98274 0.0
C36 C 0.84998 0.23093 0.97194 0.0
C37 C 0.83746 0.2505 0.01918 0.0
C38 C 0.8535 0.24403 0.07779 0.0
H39 H 0.37083 0.39368 0.50069 0.0
H40 H 0.3019 0.31523 0.57119 0.0
H41 H 0.30529 0.31682 0.38326 0.0
H42 H 0.23449 0.29584 0.402 0.0
C43 C 0.23922 0.28736 0.44901 0.0
O44 O 0.2771 0.28403 0.46733 0.0
H45 H 0.22715 0.30842 0.477 0.0
C46 C 0.35108 0.37132 0.49387 0.0
C47 C 0.33862 0.35799 0.43585 0.0
C48 C 0.33858 0.35566 0.54323 0.0
C49 C 0.31219 0.32728 0.53375 0.0
C50 C 0.30037 0.31314 0.47606 0.0
C51 C 0.3142 0.32811 0.42756 0.0
O52 O 0.99412 0.05726 0.47424 0.0
Mn53 Mn 0.01701 0.02153 0.54134 0.0
O54 O 0.95312 0.02432 0.41074 0.0
Mn55 Mn 0.96854 0.97963 0.44015 0.0
O56 O 0.03968 0.98601 0.60916 0.0
O57 O 0.05813 0.05853 0.56463 0.0
Mn58 Mn 0.06606 0.06311 0.64281 0.0
O59 O 0.98362 0.04699 0.59919 0.0
O60 O 0.08178 0.01831 0.67151 0.0
O61 O 0.05062 0.99631 0.48306 0.0
O62 O 1.01225 0.96144 0.41815 0.0
O63 O 0.09884 0.09451 0.61637 0.0
O64 O 0.02213 0.08046 0.66596 0.0
C65 C 0.94949 0.96014 0.51759 0.0
C66 C 0.96869 0.05443 0.42858 0.0
C67 C 0.06538 0.98839 0.65456 0.0
C68 C 0.08382 0.08296 0.56408 0.0
C69 C 0.98957 0.06964 0.64389 0.0
C70 C 0.0446 0.97302 0.43915 0.0
O71 O 0.97562 0.98437 0.51834 0.0
O72 O 0.93508 0.94861 0.46495 0.0
O73 O 0.54445 0.56141 0.11025 0.0
Mn74 Mn 0.52201 0.52437 0.04202 0.0
O75 O 0.57583 0.52874 0.18301 0.0
Mn76 Mn 0.5588 0.48386 0.15122 0.0
O77 O 0.49947 0.48798 0.97189 0.0
O78 O 0.48637 0.56423 0.01097 0.0
Mn79 Mn 0.48654 0.56742 0.93388 0.0
O80 O 0.56277 0.54228 0.99226 0.0
O81 O 0.46908 0.52305 0.90087 0.0
O82 O 0.48145 0.50653 0.0932 0.0
O83 O 0.51152 0.47102 0.16346 0.0
O84 O 0.45376 0.60258 0.95378 0.0
O85 O 0.5345 0.57974 0.92346 0.0
C86 C 0.58325 0.45908 0.07993 0.0
C87 C 0.56567 0.55919 0.16037 0.0
C88 C 0.47839 0.49187 0.92167 0.0
C89 C 0.46221 0.59053 1.00693 0.0
C90 C 0.56373 0.56492 0.95043 0.0
C91 C 0.48165 0.48476 0.13672 0.0
O92 O 0.55844 0.48491 0.07353 0.0
O93 O 0.59203 0.44872 0.13406 0.0
H94 H 0.22591 0.23853 0.49832 0.0
C95 C 0.2202 0.25151 0.45565 0.0
H96 H 0.18788 0.25037 0.37087 0.0
H97 H 0.18004 0.08635 0.49715 0.0
H98 H 0.24594 0.08052 0.48698 0.0
H99 H 0.27886 0.13028 0.44532 0.0
H100 H 0.24633 0.1862 0.41404 0.0
C101 C 0.19481 0.23661 0.41261 0.0
C102 C 0.17363 0.20301 0.42303 0.0
C103 C 0.19276 0.17012 0.43903 0.0
C104 C 0.1737 0.14123 0.46218 0.0
C105 C 0.19357 0.10911 0.4797 0.0
C106 C 0.23118 0.10539 0.47374 0.0
C107 C 0.24972 0.13342 0.45031 0.0
C108 C 0.23086 0.16546 0.43298 0.0
H109 H 0.08096 0.09064 0.4663 0.0
C110 C 0.09497 0.09881 0.51007 0.0
H111 H 0.13623 0.13138 0.56111 0.0
H112 H 0.12635 0.25787 0.38059 0.0
H113 H 0.0594 0.26024 0.38088 0.0
H114 H 0.02669 0.21015 0.42197 0.0
H115 H 0.06076 0.15733 0.46274 0.0
C116 C 0.12189 0.12455 0.51691 0.0
C117 C 0.13563 0.14505 0.46895 0.0
C118 C 0.11527 0.17545 0.44448 0.0
C119 C 0.13427 0.20445 0.42106 0.0
C120 C 0.11342 0.23506 0.39871 0.0
C121 C 0.07497 0.23679 0.39872 0.0
C122 C 0.05655 0.20862 0.42194 0.0
C123 C 0.07641 0.17844 0.44524 0.0
H124 H 0.30413 0.74586 0.06479 0.0
C125 C 0.29726 0.74612 0.10979 0.0
H126 H 0.30732 0.72213 0.19389 0.0
H127 H 0.36495 0.60041 1.0011 0.0
H128 H 0.29896 0.59245 0.96512 0.0
H129 H 0.25172 0.63036 1.00646 0.0
H130 H 0.27013 0.67666 0.08346 0.0
C131 C 0.31389 0.72207 0.14876 0.0
C132 C 0.34158 0.69494 0.13126 0.0
C133 C 0.33019 0.66719 0.08774 0.0
C134 C 0.35734 0.64493 0.06464 0.0
C135 C 0.34538 0.61816 0.01989 0.0
C136 C 0.30763 0.61318 0.99913 0.0
C137 C 0.28103 0.63454 0.02238 0.0
C138 C 0.292 0.6612 0.06626 0.0
H139 H 0.44436 0.59074 0.09699 0.0
C140 C 0.44365 0.60563 0.05631 0.0
H141 H 0.42285 0.6507 1.00623 0.0
H142 H 0.37216 0.74043 0.22261 0.0
H143 H 0.4378 0.74476 0.26362 0.0
H144 H 0.48471 0.70571 0.22358 0.0
H145 H 0.46623 0.6619 0.14225 0.0
C146 C 0.42329 0.63642 0.0475 0.0
C147 C 0.39575 0.65002 0.08557 0.0
C148 C 0.40678 0.67481 0.13365 0.0
C149 C 0.37963 0.69729 0.15672 0.0
C150 C 0.39159 0.72262 0.20364 0.0
C151 C 0.42915 0.72538 0.22749 0.0
C152 C 0.45559 0.7034 0.20491 0.0
C153 C 0.4447 0.67849 0.15825 0.0
H154 H 0.80621 0.80289 0.58158 0.0
C155 C 0.7956 0.80519 0.62392 0.0
H156 H 0.79938 0.83305 0.70703 0.0
H157 H 0.95598 0.86349 0.58613 0.0
H158 H 0.96927 0.79879 0.60003 0.0
H159 H 0.92498 0.75925 0.64138 0.0
H160 H 0.86702 0.78394 0.66843 0.0
C161 C 0.81108 0.82946 0.66584 0.0
C162 C 0.84189 0.85417 0.6546 0.0
C163 C 0.8762 0.83954 0.64132 0.0
C164 C 0.90204 0.86241 0.6185 0.0
C165 C 0.93546 0.84701 0.60337 0.0
C166 C 0.94346 0.8101 0.61147 0.0
C167 C 0.91849 0.78784 0.63471 0.0
C168 C 0.88523 0.80225 0.64964 0.0
H169 H 0.94716 0.9556 0.61495 0.0
C170 C 0.93637 0.94512 0.57074 0.0
H171 H 0.90106 0.90747 0.51801 0.0
H172 H 0.78289 0.89268 0.68861 0.0
H173 H 0.77296 0.95809 0.68278 0.0
H174 H 0.81835 0.99754 0.64398 0.0
H175 H 0.87414 0.9717 0.61089 0.0
C176 C 0.91062 0.91824 0.56258 0.0
C177 C 0.89388 0.89982 0.60972 0.0
C178 C 0.86223 0.91537 0.63087 0.0
C179 C 0.83611 0.89253 0.6534 0.0
C180 C 0.8038 0.90866 0.67157 0.0
C181 C 0.79772 0.94619 0.66836 0.0
C182 C 0.82326 0.96841 0.64645 0.0
C183 C 0.85508 0.95328 0.62748 0.0
H184 H 0.74928 0.31268 0.04809 0.0
C185 C 0.74983 0.30124 1.00357 0.0
H186 H 0.72872 0.30455 0.91262 0.0
H187 H 0.57904 0.37986 0.97179 0.0
H188 H 0.55611 0.32474 0.91673 0.0
H189 H 0.59988 0.27947 0.88303 0.0
H190 H 0.66674 0.28886 0.90426 0.0
C191 C 0.72887 0.31648 0.95694 0.0
C192 C 0.70249 0.34705 0.96583 0.0
C193 C 0.66343 0.3416 0.95118 0.0
C194 C 0.63808 0.36769 0.97065 0.0
C195 C 0.59934 0.36087 0.95802 0.0
C196 C 0.58586 0.32942 0.92639 0.0
C197 C 0.61052 0.30394 0.90737 0.0
C198 C 0.64887 0.3097 0.91978 0.0
H199 H 0.59526 0.45164 0.98645 0.0
C200 C 0.60225 0.44279 0.03179 0.0
H201 H 0.63601 0.40952 0.09183 0.0
H202 H 0.77475 0.37083 0.98561 0.0
H203 H 0.79708 0.42787 0.03527 0.0
H204 H 0.75308 0.4723 0.07074 0.0
H205 H 0.68633 0.46007 0.05615 0.0
C206 C 0.62877 0.41722 0.04588 0.0
C207 C 0.65184 0.39905 1.0044 0.0
C208 C 0.69053 0.40662 0.01224 0.0
C209 C 0.71591 0.38075 0.99266 0.0
C210 C 0.75441 0.38915 1.00113 0.0
C211 C 0.76753 0.42187 0.02915 0.0
C212 C 0.74275 0.4469 0.04909 0.0
C213 C 0.70464 0.43951 0.04082 0.0
H214 H 0.22 0.89949 0.2332 0.0
C215 C 0.19803 0.89755 0.19533 0.0
H216 H 0.14143 0.90923 0.16503 0.0
H217 H 0.14015 0.91961 0.45565 0.0
H218 H 0.16094 0.85634 0.45759 0.0
H219 H 0.17792 0.82537 0.36737 0.0
H220 H 0.17513 0.85739 0.2755 0.0
C221 C 0.16414 0.91107 0.20162 0.0
C222 C 0.1561 0.92958 0.25794 0.0
C223 C 0.1569 0.90978 0.31088 0.0
C224 C 0.14519 0.92693 0.36215 0.0
C225 C 0.14746 0.90722 0.41504 0.0
C226 C 0.15949 0.87106 0.4168 0.0
C227 C 0.1692 0.85369 0.36607 0.0
C228 C 0.16779 0.87259 0.31358 0.0
H229 H 0.06878 0.93398 0.38113 0.0
C230 C 0.0751 0.9586 0.40865 0.0
H231 H 0.113 1.00232 0.42835 0.0
H232 H 0.15546 0.97666 0.16684 0.0
H233 H 0.13437 0.03969 0.16588 0.0
H234 H 0.11145 0.06829 0.25345 0.0
H235 H 0.10975 0.03418 0.34269 0.0
C236 C 0.10705 0.97624 0.40501 0.0
C237 C 0.13048 0.96289 0.35956 0.0
C238 C 0.13206 0.98344 0.30821 0.0
C239 C 0.14489 0.96678 0.25741 0.0
C240 C 0.14558 0.98781 0.20638 0.0
C241 C 0.13365 0.02404 0.20528 0.0
C242 C 0.12076 0.04015 0.2546 0.0
C243 C 0.11984 0.02022 0.30553 0.0
H244 H 0.65801 0.64814 0.68687 0.0
C245 C 0.68556 0.66055 0.69558 0.0
H246 H 0.73262 0.66877 0.76172 0.0
H247 H 0.6219 0.65634 0.95614 0.0
H248 H 0.64578 0.71815 0.97559 0.0
H249 H 0.68921 0.74401 0.91358 0.0
H250 H 0.70914 0.7083 0.83189 0.0
C251 C 0.70503 0.65709 0.7501 0.0
C252 C 0.68739 0.63871 0.79671 0.0
C253 C 0.67696 0.65961 0.84509 0.0
C254 C 0.65167 0.64483 0.88049 0.0
C255 C 0.64072 0.66656 0.92755 0.0
C256 C 0.65432 0.70193 0.93927 0.0
C257 C 0.67881 0.71649 0.90437 0.0
C258 C 0.68999 0.69574 0.85761 0.0
H259 H 0.62506 0.55975 0.95084 0.0
C260 C 0.60005 0.57398 0.93162 0.0
H261 H 0.57732 0.61436 0.87263 0.0
H262 H 0.7105 0.58842 0.71876 0.0
H263 H 0.6888 0.52572 0.70197 0.0
H264 H 0.64279 0.50082 0.76032 0.0
H265 H 0.61864 0.53811 0.83624 0.0
C266 C 0.60208 0.59918 0.89031 0.0
C267 C 0.63698 0.60928 0.86746 0.0
C268 C 0.65083 0.58691 0.82354 0.0
C269 C 0.67652 0.60155 0.78869 0.0
C270 C 0.69016 0.57878 0.74522 0.0
C271 C 0.6781 0.54278 0.73542 0.0
C272 C 0.65224 0.52875 0.76836 0.0
C273 C 0.63857 0.55046 0.81184 0.0
H274 H 0.89681 0.23399 0.1853 0.0
C275 C 0.89899 0.21211 0.15258 0.0
H276 H 0.91701 0.15785 0.13948 0.0
H277 H 0.03662 0.12889 0.35157 0.0
H278 H 0.07606 0.13948 0.27612 0.0
H279 H 0.05023 0.16659 0.18102 0.0
H280 H 0.98464 0.18306 0.16073 0.0
C281 C 0.91501 0.18034 0.171 0.0
C282 C 0.93194 0.17392 0.23372 0.0
C283 C 0.97056 0.16561 0.24591 0.0
C284 C 0.98566 0.15057 0.30122 0.0
C285 C 0.02386 0.14083 0.31076 0.0
C286 C 0.04681 0.14676 0.26778 0.0
C287 C 0.03225 0.16199 0.21422 0.0
C288 C 0.99458 0.17121 0.20306 0.0
H289 H 0.93263 0.08123 0.35773 0.0
C290 C 0.95649 0.08601 0.3919 0.0
H291 H 0.99946 0.12323 0.42427 0.0
H292 H 0.85707 0.1893 0.2282 0.0
H293 H 0.81995 0.1851 0.30814 0.0
H294 H 0.84786 0.16412 0.40659 0.0
H295 H 0.91324 0.14629 0.42495 0.0
C296 C 0.97428 0.11817 0.39313 0.0
C297 C 0.96218 0.14426 0.34461 0.0
C298 C 0.92487 0.15718 0.33551 0.0
C299 C 0.90932 0.171 0.27951 0.0
C300 C 0.87093 0.18013 0.2703 0.0
C301 C 0.84916 0.17764 0.31586 0.0
C302 C 0.86483 0.16571 0.37124 0.0
C303 C 0.90221 0.15542 0.38112 0.0
H304 H 0.33261 0.37446 0.63526 0.0
C305 C 0.3526 0.36942 0.60454 0.0
H306 H 0.40886 0.37025 0.59128 0.0
H307 H 0.46723 0.49906 0.76433 0.0
H308 H 0.47538 0.52196 0.66826 0.0
H309 H 0.45016 0.48829 0.57598 0.0
H310 H 0.41715 0.43141 0.57906 0.0
C311 C 0.38913 0.37622 0.62211 0.0
C312 C 0.40354 0.3964 0.67897 0.0
C313 C 0.42253 0.42999 0.67632 0.0
C314 C 0.43611 0.45004 0.7295 0.0
C315 C 0.45549 0.48317 0.72535 0.0
C316 C 0.46056 0.49657 0.67047 0.0
C317 C 0.44647 0.47756 0.61855 0.0
C318 C 0.42765 0.44474 0.6211 0.0
H319 H 0.4821 0.43439 0.88741 0.0
C320 C 0.46595 0.45948 0.88296 0.0
H321 H 0.42155 0.48809 0.83473 0.0
H322 H 0.37479 0.33013 0.70151 0.0
H323 H 0.36598 0.3079 0.7979 0.0
H324 H 0.38544 0.34489 0.88935 0.0
H325 H 0.41462 0.4041 0.8851 0.0
C326 C 0.43724 0.46267 0.8384 0.0
C327 C 0.42998 0.43717 0.78552 0.0
C328 C 0.41221 0.40305 0.7885 0.0
C329 C 0.3996 0.38231 0.7353 0.0
C330 C 0.38348 0.34763 0.74004 0.0
C331 C 0.37852 0.33444 0.79517 0.0
C332 C 0.38957 0.35523 0.8467 0.0
C333 C 0.40625 0.38916 0.84367 0.0
H334 H 0.6495 0.65531 0.47852 0.0
C335 C 0.66934 0.67756 0.47896 0.0
H336 H 0.69421 0.7123 0.42275 0.0
H337 H 0.66745 0.58902 0.21689 0.0
H338 H 0.73502 0.59409 0.23321 0.0
H339 H 0.76665 0.63531 0.3121 0.0
H340 H 0.73102 0.67182 0.375 0.0
C341 C 0.67424 0.69081 0.42604 0.0
C342 C 0.65508 0.67269 0.37018 0.0
C343 C 0.6763 0.65221 0.33303 0.0
C344 C 0.65809 0.62809 0.288 0.0
C345 C 0.67998 0.60734 0.25229 0.0
C346 C 0.71873 0.61011 0.26102 0.0
C347 C 0.73653 0.63335 0.3054 0.0
C348 C 0.71573 0.65414 0.34123 0.0
H349 H 0.57202 0.61945 0.17385 0.0
C350 C 0.57948 0.59321 0.19324 0.0
H351 H 0.60997 0.56556 0.26449 0.0
H352 H 0.6062 0.71508 0.42287 0.0
H353 H 0.53846 0.7118 0.40406 0.0
H354 H 0.50685 0.66807 0.32908 0.0
H355 H 0.54256 0.62773 0.27198 0.0
C356 C 0.60155 0.59185 0.24611 0.0
C357 C 0.61873 0.6244 0.28015 0.0
C358 C 0.5973 0.64764 0.31319 0.0
C359 C 0.61554 0.67216 0.35772 0.0
C360 C 0.59362 0.69533 0.38977 0.0
C361 C 0.55481 0.69384 0.37917 0.0
C362 C 0.53701 0.66925 0.33687 0.0
C363 C 0.55786 0.64625 0.30431 0.0
H364 H 0.92071 0.17203 0.94311 0.0
C365 C 0.89277 0.18345 0.93381 0.0
H366 H 0.8449 0.18701 0.86871 0.0
H367 H 0.94215 0.16464 0.65828 0.0
H368 H 0.91922 0.22662 0.64295 0.0
H369 H 0.88264 0.257 0.71401 0.0
H370 H 0.86872 0.22573 0.80076 0.0
C371 C 0.87308 0.17668 0.87978 0.0
C372 C 0.89025 0.15645 0.83251 0.0
C373 C 0.89744 0.17492 0.78149 0.0
C374 C 0.91878 0.15754 0.74072 0.0
C375 C 0.92636 0.17682 0.69083 0.0
C376 C 0.91327 0.2123 0.68144 0.0
C377 C 0.89264 0.22939 0.72143 0.0
C378 C 0.88482 0.21111 0.77104 0.0
H379 H 0.92983 0.07291 0.657 0.0
C380 C 0.95764 0.08336 0.67249 0.0
H381 H 0.99059 0.11898 0.7332 0.0
H382 H 0.874 0.1105 0.91784 0.0
H383 H 0.8955 0.04798 0.93136 0.0
H384 H 0.93455 0.01872 0.86278 0.0
H385 H 0.95189 0.05158 0.77979 0.0
C386 C 0.96299 0.10789 0.71826 0.0
C387 C 0.93278 0.12178 0.75093 0.0
C388 C 0.92297 0.10221 0.79917 0.0
C389 C 0.90129 0.11942 0.83964 0.0
C390 C 0.89136 0.09907 0.8869 0.0
C391 C 0.90331 0.06312 0.89491 0.0
C392 C 0.92525 0.04662 0.85624 0.0
C393 C 0.93507 0.0658 0.80885 0.0
H394 H 0.35982 0.35506 0.34917 0.0
C395 C 0.35256 0.37373 0.38382 0.0
H396 H 0.34834 0.42862 0.41238 0.0
H397 H 0.47996 0.48713 0.28835 0.0
H398 H 0.50086 0.50136 0.39254 0.0
H399 H 0.4651 0.48068 0.46978 0.0
H400 H 0.4082 0.44604 0.44358 0.0
C401 C 0.35644 0.40996 0.37841 0.0
C402 C 0.37582 0.42529 0.33088 0.0
C403 C 0.40899 0.44582 0.34728 0.0
C404 C 0.43009 0.4571 0.30289 0.0
C405 C 0.46324 0.47735 0.32041 0.0
C406 C 0.47548 0.48584 0.38002 0.0
C407 C 0.45529 0.47427 0.42349 0.0
C408 C 0.42252 0.45443 0.40767 0.0
H409 H 0.42325 0.49581 0.15291 0.0
C410 C 0.44675 0.47724 0.16147 0.0
H411 H 0.46988 0.43182 0.20847 0.0
H412 H 0.30917 0.39453 0.28294 0.0
H413 H 0.28814 0.38132 0.17832 0.0
H414 H 0.32679 0.39775 0.10212 0.0
H415 H 0.38649 0.42816 0.13003 0.0
C416 C 0.44605 0.45004 0.20002 0.0
C417 C 0.41846 0.4474 0.24232 0.0
C418 C 0.38399 0.42936 0.22548 0.0
C419 C 0.3623 0.4188 0.26972 0.0
C420 C 0.32739 0.40185 0.25143 0.0
C421 C 0.31488 0.39439 0.19151 0.0
C422 C 0.33662 0.40371 0.14857 0.0
C423 C 0.37082 0.42102 0.16511 0.0
H424 H 0.19766 0.87457 0.93855 0.0
C425 C 0.17946 0.87379 0.9726 0.0
H426 H 0.12485 0.88109 0.99237 0.0
H427 H 0.07488 1.00227 0.80844 0.0
H428 H 0.06802 0.03234 0.90268 0.0
H429 H 0.08918 1.00236 0.99713 0.0
H430 H 0.11686 0.94217 0.99803 0.0
C431 C 0.14317 0.88263 0.95864 0.0
C432 C 0.12818 0.89935 0.90073 0.0
C433 C 0.11215 0.93481 0.90114 0.0
C434 C 0.10084 0.95257 0.84672 0.0
C435 C 0.0847 0.98786 0.84849 0.0
C436 C 0.08044 1.0054 0.90227 0.0
C437 C 0.09226 0.98848 0.95541 0.0
C438 C 0.10803 0.95372 0.95517 0.0
H439 H 0.05378 0.93451 0.691 0.0
C440 C 0.0737 0.95676 0.69384 0.0
H441 H 0.12231 0.98083 0.7408 0.0
H442 H 0.14924 0.82848 0.88259 0.0
H443 H 0.15541 0.79847 0.78782 0.0
H444 H 0.13991 0.83103 0.69418 0.0
H445 H 0.11737 0.89364 0.6946 0.0
C446 C 0.10292 0.95809 0.73797 0.0
C447 C 0.10623 0.93538 0.79185 0.0
C448 C 0.12001 0.89915 0.79104 0.0
C449 C 0.13033 0.88084 0.84543 0.0
C450 C 0.14254 0.84415 0.84297 0.0
C451 C 0.1459 0.82652 0.78882 0.0
C452 C 0.13709 0.84483 0.73606 0.0
C453 C 0.12425 0.88074 0.73689 0.0
loop_
_geom_bond_atom_site_label_1
_geom_bond_atom_site_label_2
_geom_bond_distance
_geom_bond_site_symmetry_2
_ccdc_geom_bond_type
H0 C7 0.929 . S
H1 C10 0.930 . S
H2 C12 0.929 1_556 S
H3 C4 0.969 . S
C4 H3 0.969 . S
C4 O5 1.550 . S
C4 H6 0.973 . S
O5 C4 1.550 . S
O5 C11 1.412 . S
H6 C4 0.973 . S
C7 H0 0.929 . S
C7 C8 1.400 . S
C7 C9 1.364 . S
C8 C7 1.400 . S
C8 C12 1.377 . S
C9 C7 1.364 . S
C9 C10 1.374 . S
C10 H1 0.930 . S
C10 C9 1.374 . S
C10 C11 1.383 . S
C11 O5 1.412 . S
C11 C10 1.383 . S
C11 C12 1.394 . S
C12 H2 0.929 1_554 S
C12 C8 1.377 . S
C12 C11 1.394 . S
H13 C20 0.929 . S
H14 C23 0.930 . S
H15 C25 0.929 . S
H16 C17 0.969 . S
C17 H16 0.969 . S
C17 O18 1.550 . S
C17 H19 0.973 . S
O18 C17 1.550 . S
O18 C24 1.412 . S
H19 C17 0.973 . S
C20 H13 0.929 . S
C20 C21 1.400 . S
C20 C22 1.364 . S
C21 C20 1.400 . S
C21 C25 1.377 . S
C22 C20 1.364 . S
C22 C23 1.374 . S
C23 H14 0.930 . S
C23 C22 1.374 . S
C23 C24 1.383 . S
C24 O18 1.412 . S
C24 C23 1.383 . S
C24 C25 1.394 . S
C25 H15 0.929 . S
C25 C21 1.377 . S
C25 C24 1.394 . S
H26 C33 0.929 . S
H27 C36 0.930 . S
H28 C38 0.929 . S
H29 C30 0.969 . S
C30 H29 0.969 . S
C30 O31 1.550 1_556 S
C30 H32 0.973 . S
O31 C30 1.550 1_554 S
O31 C37 1.412 . S
H32 C30 0.973 . S
C33 H26 0.929 . S
C33 C34 1.400 . S
C33 C35 1.364 1_554 S
C34 C33 1.400 . S
C34 C38 1.377 . S
C35 C33 1.364 1_556 S
C35 C36 1.374 . S
C36 H27 0.930 . S
C36 C35 1.374 . S
C36 C37 1.383 1_556 S
C37 O31 1.412 . S
C37 C36 1.383 1_554 S
C37 C38 1.394 . S
C38 H28 0.929 . S
C38 C34 1.377 . S
C38 C37 1.394 . S
H39 C46 0.929 . S
H40 C49 0.930 . S
H41 C51 0.929 . S
H42 C43 0.969 . S
C43 H42 0.969 . S
C43 O44 1.550 . S
C43 H45 0.973 . S
O44 C43 1.550 . S
O44 C50 1.412 . S
H45 C43 0.973 . S
C46 H39 0.929 . S
C46 C47 1.400 . S
C46 C48 1.364 . S
C47 C46 1.400 . S
C47 C51 1.377 . S
C48 C46 1.364 . S
C48 C49 1.374 . S
C49 H40 0.930 . S
C49 C48 1.374 . S
C49 C50 1.383 . S
C50 O44 1.412 . S
C50 C49 1.383 . S
C50 C51 1.394 . S
C51 H41 0.929 . S
C51 C47 1.377 . S
C51 C50 1.394 . S
O52 Mn53 2.163 1_655 S
O52 C66 1.244 . S
Mn53 O52 2.163 1_455 S
Mn53 O56 2.160 1_545 S
Mn53 O57 2.221 . S
Mn53 O59 2.163 1_455 S
Mn53 O61 2.160 1_545 S
Mn53 O71 2.221 1_445 S
O54 Mn55 2.087 1_545 S
O54 C66 1.256 . S
Mn55 O54 2.087 1_565 S
Mn55 O62 2.089 1_655 S
Mn55 O71 2.290 . S
Mn55 O72 2.251 . S
O56 Mn53 2.160 1_565 S
O56 C67 1.239 . S
O57 Mn53 2.221 . S
O57 Mn58 2.290 . S
O57 C68 1.278 . S
Mn58 O57 2.290 . S
Mn58 O60 2.089 . S
Mn58 O63 2.251 . S
Mn58 O64 2.087 . S
O59 Mn53 2.163 1_655 S
O59 C69 1.244 . S
O60 Mn58 2.089 . S
O60 C67 1.256 1_545 S
O61 Mn53 2.160 1_565 S
O61 C70 1.239 . S
O62 Mn55 2.089 1_455 S
O62 C70 1.256 . S
O63 Mn58 2.251 . S
O63 C68 1.241 . S
O64 Mn58 2.087 . S
O64 C69 1.256 1_455 S
C65 O71 1.278 . S
C65 O72 1.241 . S
C66 O52 1.244 . S
C66 O54 1.256 . S
C67 O56 1.239 . S
C67 O60 1.256 1_565 S
C68 O57 1.278 . S
C68 O63 1.241 . S
C69 O59 1.244 . S
C69 O64 1.256 1_655 S
C70 O61 1.239 . S
C70 O62 1.256 . S
O71 Mn53 2.221 1_665 S
O71 Mn55 2.290 . S
O71 C65 1.278 . S
O72 Mn55 2.251 . S
O72 C65 1.241 . S
O73 Mn74 2.163 . S
O73 C87 1.244 . S
Mn74 O73 2.163 . S
Mn74 O77 2.160 1_554 S
Mn74 O78 2.221 . S
Mn74 O80 2.163 1_554 S
Mn74 O82 2.160 . S
Mn74 O92 2.221 . S
O75 Mn76 2.087 . S
O75 C87 1.256 . S
Mn76 O75 2.087 . S
Mn76 O83 2.089 . S
Mn76 O92 2.290 . S
Mn76 O93 2.251 . S
O77 Mn74 2.160 1_556 S
O77 C88 1.239 . S
O78 Mn74 2.221 . S
O78 Mn79 2.290 1_554 S
O78 C89 1.278 . S
Mn79 O78 2.290 1_556 S
Mn79 O81 2.089 . S
Mn79 O84 2.251 . S
Mn79 O85 2.087 . S
O80 Mn74 2.163 1_556 S
O80 C90 1.244 . S
O81 Mn79 2.089 . S
O81 C88 1.256 . S
O82 Mn74 2.160 . S
O82 C91 1.239 . S
O83 Mn76 2.089 . S
O83 C91 1.256 . S
O84 Mn79 2.251 . S
O84 C89 1.241 1_556 S
O85 Mn79 2.087 . S
O85 C90 1.256 . S
C86 O92 1.278 . S
C86 O93 1.241 . S
C87 O73 1.244 . S
C87 O75 1.256 . S
C88 O77 1.239 . S
C88 O81 1.256 . S
C89 O78 1.278 . S
C89 O84 1.241 1_554 S
C90 O80 1.244 . S
C90 O85 1.256 . S
C91 O82 1.239 . S
C91 O83 1.256 . S
O92 Mn74 2.221 . S
O92 Mn76 2.290 . S
O92 C86 1.278 . S
O93 Mn76 2.251 . S
O93 C86 1.241 . S
H94 C95 0.951 . S
C95 H94 0.951 . S
C95 C101 1.265 . S
H96 C101 0.950 . S
H97 C105 0.949 . S
H98 C106 0.950 . S
H99 C107 0.951 . S
H100 C108 0.951 . S
C101 C95 1.265 . S
C101 H96 0.950 . S
C101 C102 1.478 . S
C102 C101 1.478 . S
C102 C103 1.397 . S
C102 C119 1.394 . S
C103 C102 1.397 . S
C103 C104 1.438 . S
C103 C108 1.429 . S
C104 C103 1.438 . S
C104 C105 1.428 . S
C104 C117 1.394 . S
C105 H97 0.949 . S
C105 C104 1.428 . S
C105 C106 1.345 . S
C106 H98 0.950 . S
C106 C105 1.345 . S
C106 C107 1.424 . S
C107 H99 0.951 . S
C107 C106 1.424 . S
C107 C108 1.347 . S
C108 H100 0.951 . S
C108 C103 1.429 . S
C108 C107 1.347 . S
H109 C110 0.951 . S
C110 H109 0.951 . S
C110 C116 1.265 . S
H111 C116 0.950 . S
H112 C120 0.949 . S
H113 C121 0.950 . S
H114 C122 0.951 . S
H115 C123 0.951 . S
C116 C110 1.265 . S
C116 H111 0.950 . S
C116 C117 1.478 . S
C117 C104 1.394 . S
C117 C116 1.478 . S
C117 C118 1.397 . S
C118 C117 1.397 . S
C118 C119 1.438 . S
C118 C123 1.429 . S
C119 C102 1.394 . S
C119 C118 1.438 . S
C119 C120 1.428 . S
C120 H112 0.949 . S
C120 C119 1.428 . S
C120 C121 1.345 . S
C121 H113 0.950 . S
C121 C120 1.345 . S
C121 C122 1.424 . S
C122 H114 0.951 . S
C122 C121 1.424 . S
C122 C123 1.347 . S
C123 H115 0.951 . S
C123 C118 1.429 . S
C123 C122 1.347 . S
H124 C125 0.951 . S
C125 H124 0.951 . S
C125 C131 1.265 . S
H126 C131 0.950 . S
H127 C135 0.949 . S
H128 C136 0.950 . S
H129 C137 0.951 . S
H130 C138 0.951 . S
C131 C125 1.265 . S
C131 H126 0.950 . S
C131 C132 1.478 . S
C132 C131 1.478 . S
C132 C133 1.397 . S
C132 C149 1.394 . S
C133 C132 1.397 . S
C133 C134 1.438 . S
C133 C138 1.429 1_554 S
C134 C133 1.438 . S
C134 C135 1.428 1_554 S
C134 C147 1.394 . S
C135 H127 0.949 . S
C135 C134 1.428 1_556 S
C135 C136 1.345 . S
C136 H128 0.950 . S
C136 C135 1.345 . S
C136 C137 1.424 . S
C137 H129 0.951 . S
C137 C136 1.424 . S
C137 C138 1.347 . S
C138 H130 0.951 . S
C138 C133 1.429 1_556 S
C138 C137 1.347 . S
H139 C140 0.951 . S
C140 H139 0.951 . S
C140 C146 1.265 . S
H141 C146 0.950 . S
H142 C150 0.949 . S
H143 C151 0.950 . S
H144 C152 0.951 . S
H145 C153 0.951 . S
C146 C140 1.265 . S
C146 H141 0.950 . S
C146 C147 1.478 . S
C147 C134 1.394 . S
C147 C146 1.478 . S
C147 C148 1.397 . S
C148 C147 1.397 . S
C148 C149 1.438 . S
C148 C153 1.429 . S
C149 C132 1.394 . S
C149 C148 1.438 . S
C149 C150 1.428 . S
C150 H142 0.949 . S
C150 C149 1.428 . S
C150 C151 1.345 . S
C151 H143 0.950 . S
C151 C150 1.345 . S
C151 C152 1.424 . S
C152 H144 0.951 . S
C152 C151 1.424 . S
C152 C153 1.347 . S
C153 H145 0.951 . S
C153 C148 1.429 . S
C153 C152 1.347 . S
H154 C155 0.951 . S
C155 H154 0.951 . S
C155 C161 1.265 . S
H156 C161 0.950 . S
H157 C165 0.949 . S
H158 C166 0.950 . S
H159 C167 0.951 . S
H160 C168 0.951 . S
C161 C155 1.265 . S
C161 H156 0.950 . S
C161 C162 1.478 . S
C162 C161 1.478 . S
C162 C163 1.397 . S
C162 C179 1.394 . S
C163 C162 1.397 . S
C163 C164 1.438 . S
C163 C168 1.429 . S
C164 C163 1.438 . S
C164 C165 1.428 . S
C164 C177 1.394 . S
C165 H157 0.949 . S
C165 C164 1.428 . S
C165 C166 1.345 . S
C166 H158 0.950 . S
C166 C165 1.345 . S
C166 C167 1.424 . S
C167 H159 0.951 . S
C167 C166 1.424 . S
C167 C168 1.347 . S
C168 H160 0.951 . S
C168 C163 1.429 . S
C168 C167 1.347 . S
H169 C170 0.951 . S
C170 H169 0.951 . S
C170 C176 1.265 . S
H171 C176 0.950 . S
H172 C180 0.949 . S
H173 C181 0.950 . S
H174 C182 0.951 . S
H175 C183 0.951 . S
C176 C170 1.265 . S
C176 H171 0.950 . S
C176 C177 1.478 . S
C177 C164 1.394 . S
C177 C176 1.478 . S
C177 C178 1.397 . S
C178 C177 1.397 . S
C178 C179 1.438 . S
C178 C183 1.429 . S
C179 C162 1.394 . S
C179 C178 1.438 . S
C179 C180 1.428 . S
C180 H172 0.949 . S
C180 C179 1.428 . S
C180 C181 1.345 . S
C181 H173 0.950 . S
C181 C180 1.345 . S
C181 C182 1.424 . S
C182 H174 0.951 . S
C182 C181 1.424 . S
C182 C183 1.347 . S
C183 H175 0.951 . S
C183 C178 1.429 . S
C183 C182 1.347 . S
H184 C185 0.951 . S
C185 H184 0.951 . S
C185 C191 1.265 1_556 S
H186 C191 0.950 . S
H187 C195 0.949 . S
H188 C196 0.950 . S
H189 C197 0.951 . S
H190 C198 0.951 . S
C191 C185 1.265 1_554 S
C191 H186 0.950 . S
C191 C192 1.478 . S
C192 C191 1.478 . S
C192 C193 1.397 1_554 S
C192 C209 1.394 . S
C193 C192 1.397 1_556 S
C193 C194 1.438 . S
C193 C198 1.429 . S
C194 C193 1.438 . S
C194 C195 1.428 . S
C194 C207 1.394 1_556 S
C195 H187 0.949 . S
C195 C194 1.428 . S
C195 C196 1.345 . S
C196 H188 0.950 . S
C196 C195 1.345 . S
C196 C197 1.424 . S
C197 H189 0.951 . S
C197 C196 1.424 . S
C197 C198 1.347 . S
C198 H190 0.951 . S
C198 C193 1.429 . S
C198 C197 1.347 . S
H199 C200 0.951 . S
C200 H199 0.951 . S
C200 C206 1.265 . S
H201 C206 0.950 1_556 S
H202 C210 0.949 . S
H203 C211 0.950 . S
H204 C212 0.951 . S
H205 C213 0.951 . S
C206 C200 1.265 . S
C206 H201 0.950 1_554 S
C206 C207 1.478 . S
C207 C194 1.394 1_554 S
C207 C206 1.478 . S
C207 C208 1.397 . S
C208 C207 1.397 . S
C208 C209 1.438 . S
C208 C213 1.429 . S
C209 C192 1.394 . S
C209 C208 1.438 . S
C209 C210 1.428 . S
C210 H202 0.949 . S
C210 C209 1.428 . S
C210 C211 1.345 . S
C211 H203 0.950 . S
C211 C210 1.345 . S
C211 C212 1.424 . S
C212 H204 0.951 . S
C212 C211 1.424 . S
C212 C213 1.347 . S
C213 H205 0.951 . S
C213 C208 1.429 . S
C213 C212 1.347 . S
H214 C215 0.951 . S
C215 H214 0.951 . S
C215 C221 1.265 . S
H216 C221 0.950 . S
H217 C225 0.949 . S
H218 C226 0.950 . S
H219 C227 0.951 . S
H220 C228 0.951 . S
C221 C215 1.265 . S
C221 H216 0.950 . S
C221 C222 1.478 . S
C222 C221 1.478 . S
C222 C223 1.397 . S
C222 C239 1.394 . S
C223 C222 1.397 . S
C223 C224 1.438 . S
C223 C228 1.429 . S
C224 C223 1.438 . S
C224 C225 1.428 . S
C224 C237 1.394 . S
C225 H217 0.949 . S
C225 C224 1.428 . S
C225 C226 1.345 . S
C226 H218 0.950 . S
C226 C225 1.345 . S
C226 C227 1.424 . S
C227 H219 0.951 . S
C227 C226 1.424 . S
C227 C228 1.347 . S
C228 H220 0.951 . S
C228 C223 1.429 . S
C228 C227 1.347 . S
H229 C230 0.951 . S
C230 H229 0.951 . S
C230 C236 1.265 . S
H231 C236 0.950 . S
H232 C240 0.949 . S
H233 C241 0.950 . S
H234 C242 0.951 . S
H235 C243 0.951 1_545 S
C236 C230 1.265 . S
C236 H231 0.950 . S
C236 C237 1.478 . S
C237 C224 1.394 . S
C237 C236 1.478 . S
C237 C238 1.397 . S
C238 C237 1.397 . S
C238 C239 1.438 . S
C238 C243 1.429 . S
C239 C222 1.394 . S
C239 C238 1.438 . S
C239 C240 1.428 . S
C240 H232 0.949 . S
C240 C239 1.428 . S
C240 C241 1.345 . S
C241 H233 0.950 . S
C241 C240 1.345 . S
C241 C242 1.424 1_565 S
C242 H234 0.951 . S
C242 C241 1.424 1_545 S
C242 C243 1.347 1_545 S
C243 H235 0.951 1_565 S
C243 C238 1.429 . S
C243 C242 1.347 1_565 S
H244 C245 0.951 . S
C245 H244 0.951 . S
C245 C251 1.265 . S
H246 C251 0.950 . S
H247 C255 0.949 . S
H248 C256 0.950 . S
H249 C257 0.951 . S
H250 C258 0.951 . S
C251 C245 1.265 . S
C251 H246 0.950 . S
C251 C252 1.478 . S
C252 C251 1.478 . S
C252 C253 1.397 . S
C252 C269 1.394 . S
C253 C252 1.397 . S
C253 C254 1.438 . S
C253 C258 1.429 . S
C254 C253 1.438 . S
C254 C255 1.428 . S
C254 C267 1.394 . S
C255 H247 0.949 . S
C255 C254 1.428 . S
C255 C256 1.345 . S
C256 H248 0.950 . S
C256 C255 1.345 . S
C256 C257 1.424 . S
C257 H249 0.951 . S
C257 C256 1.424 . S
C257 C258 1.347 . S
C258 H250 0.951 . S
C258 C253 1.429 . S
C258 C257 1.347 . S
H259 C260 0.951 . S
C260 H259 0.951 . S
C260 C266 1.265 . S
H261 C266 0.950 . S
H262 C270 0.949 . S
H263 C271 0.950 . S
H264 C272 0.951 . S
H265 C273 0.951 . S
C266 C260 1.265 . S
C266 H261 0.950 . S
C266 C267 1.478 . S
C267 C254 1.394 . S
C267 C266 1.478 . S
C267 C268 1.397 . S
C268 C267 1.397 . S
C268 C269 1.438 . S
C268 C273 1.429 . S
C269 C252 1.394 . S
C269 C268 1.438 . S
C269 C270 1.428 . S
C270 H262 0.949 . S
C270 C269 1.428 . S
C270 C271 1.345 . S
C271 H263 0.950 . S
C271 C270 1.345 . S
C271 C272 1.424 . S
C272 H264 0.951 . S
C272 C271 1.424 . S
C272 C273 1.347 . S
C273 H265 0.951 . S
C273 C268 1.429 . S
C273 C272 1.347 . S
H274 C275 0.951 . S
C275 H274 0.951 . S
C275 C281 1.265 . S
H276 C281 0.950 . S
H277 C285 0.949 . S
H278 C286 0.950 . S
H279 C287 0.951 . S
H280 C288 0.951 . S
C281 C275 1.265 . S
C281 H276 0.950 . S
C281 C282 1.478 . S
C282 C281 1.478 . S
C282 C283 1.397 . S
C282 C299 1.394 . S
C283 C282 1.397 . S
C283 C284 1.438 . S
C283 C288 1.429 . S
C284 C283 1.438 . S
C284 C285 1.428 . S
C284 C297 1.394 . S
C285 H277 0.949 . S
C285 C284 1.428 . S
C285 C286 1.345 . S
C286 H278 0.950 . S
C286 C285 1.345 . S
C286 C287 1.424 . S
C287 H279 0.951 . S
C287 C286 1.424 . S
C287 C288 1.347 . S
C288 H280 0.951 . S
C288 C283 1.429 . S
C288 C287 1.347 . S
H289 C290 0.951 . S
C290 H289 0.951 . S
C290 C296 1.265 . S
H291 C296 0.950 . S
H292 C300 0.949 . S
H293 C301 0.950 . S
H294 C302 0.951 . S
H295 C303 0.951 . S
C296 C290 1.265 . S
C296 H291 0.950 . S
C296 C297 1.478 . S
C297 C284 1.394 . S
C297 C296 1.478 . S
C297 C298 1.397 . S
C298 C297 1.397 . S
C298 C299 1.438 . S
C298 C303 1.429 . S
C299 C282 1.394 . S
C299 C298 1.438 . S
C299 C300 1.428 . S
C300 H292 0.949 . S
C300 C299 1.428 . S
C300 C301 1.345 . S
C301 H293 0.950 . S
C301 C300 1.345 . S
C301 C302 1.424 . S
C302 H294 0.951 . S
C302 C301 1.424 . S
C302 C303 1.347 . S
C303 H295 0.951 . S
C303 C298 1.429 . S
C303 C302 1.347 . S
H304 C305 0.951 . S
C305 H304 0.951 . S
C305 C311 1.265 . S
H306 C311 0.950 . S
H307 C315 0.949 . S
H308 C316 0.950 . S
H309 C317 0.951 . S
H310 C318 0.951 . S
C311 C305 1.265 . S
C311 H306 0.950 . S
C311 C312 1.478 . S
C312 C311 1.478 . S
C312 C313 1.397 . S
C312 C329 1.394 . S
C313 C312 1.397 . S
C313 C314 1.438 . S
C313 C318 1.429 . S
C314 C313 1.438 . S
C314 C315 1.428 . S
C314 C327 1.394 . S
C315 H307 0.949 . S
C315 C314 1.428 . S
C315 C316 1.345 . S
C316 H308 0.950 . S
C316 C315 1.345 . S
C316 C317 1.424 . S
C317 H309 0.951 . S
C317 C316 1.424 . S
C317 C318 1.347 . S
C318 H310 0.951 . S
C318 C313 1.429 . S
C318 C317 1.347 . S
H319 C320 0.951 . S
C320 H319 0.951 . S
C320 C326 1.265 . S
H321 C326 0.950 . S
H322 C330 0.949 . S
H323 C331 0.950 . S
H324 C332 0.951 . S
H325 C333 0.951 . S
C326 C320 1.265 . S
C326 H321 0.950 . S
C326 C327 1.478 . S
C327 C314 1.394 . S
C327 C326 1.478 . S
C327 C328 1.397 . S
C328 C327 1.397 . S
C328 C329 1.438 . S
C328 C333 1.429 . S
C329 C312 1.394 . S
C329 C328 1.438 . S
C329 C330 1.428 . S
C330 H322 0.949 . S
C330 C329 1.428 . S
C330 C331 1.345 . S
C331 H323 0.950 . S
C331 C330 1.345 . S
C331 C332 1.424 . S
C332 H324 0.951 . S
C332 C331 1.424 . S
C332 C333 1.347 . S
C333 H325 0.951 . S
C333 C328 1.429 . S
C333 C332 1.347 . S
H334 C335 0.951 . S
C335 H334 0.951 . S
C335 C341 1.265 . S
H336 C341 0.950 . S
H337 C345 0.949 . S
H338 C346 0.950 . S
H339 C347 0.951 . S
H340 C348 0.951 . S
C341 C335 1.265 . S
C341 H336 0.950 . S
C341 C342 1.478 . S
C342 C341 1.478 . S
C342 C343 1.397 . S
C342 C359 1.394 . S
C343 C342 1.397 . S
C343 C344 1.438 . S
C343 C348 1.429 . S
C344 C343 1.438 . S
C344 C345 1.428 . S
C344 C357 1.394 . S
C345 H337 0.949 . S
C345 C344 1.428 . S
C345 C346 1.345 . S
C346 H338 0.950 . S
C346 C345 1.345 . S
C346 C347 1.424 . S
C347 H339 0.951 . S
C347 C346 1.424 . S
C347 C348 1.347 . S
C348 H340 0.951 . S
C348 C343 1.429 . S
C348 C347 1.347 . S
H349 C350 0.951 . S
C350 H349 0.951 . S
C350 C356 1.265 . S
H351 C356 0.950 . S
H352 C360 0.949 . S
H353 C361 0.950 . S
H354 C362 0.951 . S
H355 C363 0.951 . S
C356 C350 1.265 . S
C356 H351 0.950 . S
C356 C357 1.478 . S
C357 C344 1.394 . S
C357 C356 1.478 . S
C357 C358 1.397 . S
C358 C357 1.397 . S
C358 C359 1.438 . S
C358 C363 1.429 . S
C359 C342 1.394 . S
C359 C358 1.438 . S
C359 C360 1.428 . S
C360 H352 0.949 . S
C360 C359 1.428 . S
C360 C361 1.345 . S
C361 H353 0.950 . S
C361 C360 1.345 . S
C361 C362 1.424 . S
C362 H354 0.951 . S
C362 C361 1.424 . S
C362 C363 1.347 . S
C363 H355 0.951 . S
C363 C358 1.429 . S
C363 C362 1.347 . S
H364 C365 0.951 . S
C365 H364 0.951 . S
C365 C371 1.265 . S
H366 C371 0.950 . S
H367 C375 0.949 . S
H368 C376 0.950 . S
H369 C377 0.951 . S
H370 C378 0.951 . S
C371 C365 1.265 . S
C371 H366 0.950 . S
C371 C372 1.478 . S
C372 C371 1.478 . S
C372 C373 1.397 . S
C372 C389 1.394 . S
C373 C372 1.397 . S
C373 C374 1.438 . S
C373 C378 1.429 . S
C374 C373 1.438 . S
C374 C375 1.428 . S
C374 C387 1.394 . S
C375 H367 0.949 . S
C375 C374 1.428 . S
C375 C376 1.345 . S
C376 H368 0.950 . S
C376 C375 1.345 . S
C376 C377 1.424 . S
C377 H369 0.951 . S
C377 C376 1.424 . S
C377 C378 1.347 . S
C378 H370 0.951 . S
C378 C373 1.429 . S
C378 C377 1.347 . S
H379 C380 0.951 . S
C380 H379 0.951 . S
C380 C386 1.265 . S
H381 C386 0.950 . S
H382 C390 0.949 . S
H383 C391 0.950 . S
H384 C392 0.951 . S
H385 C393 0.951 . S
C386 C380 1.265 . S
C386 H381 0.950 . S
C386 C387 1.478 . S
C387 C374 1.394 . S
C387 C386 1.478 . S
C387 C388 1.397 . S
C388 C387 1.397 . S
C388 C389 1.438 . S
C388 C393 1.429 . S
C389 C372 1.394 . S
C389 C388 1.438 . S
C389 C390 1.428 . S
C390 H382 0.949 . S
C390 C389 1.428 . S
C390 C391 1.345 . S
C391 H383 0.950 . S
C391 C390 1.345 . S
C391 C392 1.424 . S
C392 H384 0.951 . S
C392 C391 1.424 . S
C392 C393 1.347 . S
C393 H385 0.951 . S
C393 C388 1.429 . S
C393 C392 1.347 . S
H394 C395 0.951 . S
C395 H394 0.951 . S
C395 C401 1.265 . S
H396 C401 0.950 . S
H397 C405 0.949 . S
H398 C406 0.950 . S
H399 C407 0.951 . S
H400 C408 0.951 . S
C401 C395 1.265 . S
C401 H396 0.950 . S
C401 C402 1.478 . S
C402 C401 1.478 . S
C402 C403 1.397 . S
C402 C419 1.394 . S
C403 C402 1.397 . S
C403 C404 1.438 . S
C403 C408 1.429 . S
C404 C403 1.438 . S
C404 C405 1.428 . S
C404 C417 1.394 . S
C405 H397 0.949 . S
C405 C404 1.428 . S
C405 C406 1.345 . S
C406 H398 0.950 . S
C406 C405 1.345 . S
C406 C407 1.424 . S
C407 H399 0.951 . S
C407 C406 1.424 . S
C407 C408 1.347 . S
C408 H400 0.951 . S
C408 C403 1.429 . S
C408 C407 1.347 . S
H409 C410 0.951 . S
C410 H409 0.951 . S
C410 C416 1.265 . S
H411 C416 0.950 . S
H412 C420 0.949 . S
H413 C421 0.950 . S
H414 C422 0.951 . S
H415 C423 0.951 . S
C416 C410 1.265 . S
C416 H411 0.950 . S
C416 C417 1.478 . S
C417 C404 1.394 . S
C417 C416 1.478 . S
C417 C418 1.397 . S
C418 C417 1.397 . S
C418 C419 1.438 . S
C418 C423 1.429 . S
C419 C402 1.394 . S
C419 C418 1.438 . S
C419 C420 1.428 . S
C420 H412 0.949 . S
C420 C419 1.428 . S
C420 C421 1.345 . S
C421 H413 0.950 . S
C421 C420 1.345 . S
C421 C422 1.424 . S
C422 H414 0.951 . S
C422 C421 1.424 . S
C422 C423 1.347 . S
C423 H415 0.951 . S
C423 C418 1.429 . S
C423 C422 1.347 . S
H424 C425 0.951 . S
C425 H424 0.951 . S
C425 C431 1.265 . S
H426 C431 0.950 . S
H427 C435 0.949 1_545 S
H428 C436 0.950 . S
H429 C437 0.951 . S
H430 C438 0.951 . S
C431 C425 1.265 . S
C431 H426 0.950 . S
C431 C432 1.478 . S
C432 C431 1.478 . S
C432 C433 1.397 . S
C432 C449 1.394 . S
C433 C432 1.397 . S
C433 C434 1.438 . S
C433 C438 1.429 . S
C434 C433 1.438 . S
C434 C435 1.428 . S
C434 C447 1.394 . S
C435 H427 0.949 1_565 S
C435 C434 1.428 . S
C435 C436 1.345 1_565 S
C436 H428 0.950 . S
C436 C435 1.345 1_545 S
C436 C437 1.424 . S
C437 H429 0.951 . S
C437 C436 1.424 . S
C437 C438 1.347 1_545 S
C438 H430 0.951 . S
C438 C433 1.429 . S
C438 C437 1.347 1_565 S
H439 C440 0.951 . S
C440 H439 0.951 . S
C440 C446 1.265 . S
H441 C446 0.950 . S
H442 C450 0.949 . S
H443 C451 0.950 . S
H444 C452 0.951 . S
H445 C453 0.951 . S
C446 C440 1.265 . S
C446 H441 0.950 . S
C446 C447 1.478 . S
C447 C434 1.394 . S
C447 C446 1.478 . S
C447 C448 1.397 . S
C448 C447 1.397 . S
C448 C449 1.438 . S
C448 C453 1.429 . S
C449 C432 1.394 . S
C449 C448 1.438 . S
C449 C450 1.428 . S
C450 H442 0.949 . S
C450 C449 1.428 . S
C450 C451 1.345 . S
C451 H443 0.950 . S
C451 C450 1.345 . S
C451 C452 1.424 . S
C452 H444 0.951 . S
C452 C451 1.424 . S
C452 C453 1.347 . S
C453 H445 0.951 . S
C453 C448 1.429 . S
C453 C452 1.347 . S
C110 C68 1.270 . S
C95 C43 1.345 . S
C125 C4 1.443 . S
C140 C89 1.250 . S
C155 C17 1.508 . S
C170 C65 1.380 . S
C185 C30 1.554 . S
C200 C86 1.375 . S
C230 C70 1.411 . S
C215 C9 1.475 . S
C260 C90 1.542 . S
C245 C21 1.557 . S
C275 C34 1.554 . S
C290 C66 1.463 . S
C305 C48 1.503 . S
C320 C88 1.440 . S
C350 C87 1.470 . S
C335 C22 1.515 . S
C380 C69 1.550 . S
C365 C35 1.532 . S
C410 C91 1.448 . S
C395 C47 1.486 . S
C425 C8 1.496 1_556 S
C440 C67 1.417 . S
