# Generated by pormake.
# Topology nom, (4,4)-cn, num edge types: 1
# Building blocks:
#     Node 0, Type 0, BuildingBlock: GIZVER_clean_linker_0, # of connection points: 4
#     Node 1, Type 0, BuildingBlock: GIZVER_clean_linker_0, # of connection points: 4
#     Node 2, Type 0, BuildingBlock: GIZVER_clean_linker_0, # of connection points: 4
#     Node 3, Type 0, BuildingBlock: GIZVER_clean_linker_0, # of connection points: 4
#     Node 4, Type 0, BuildingBlock: GIZVER_clean_linker_0, # of connection points: 4
#     Node 5, Type 0, BuildingBlock: GIZVER_clean_linker_0, # of connection points: 4
#     Node 6, Type 1, BuildingBlock: NAHDIM_clean_sbu_0, # of connection points: 4
#     Node 7, Type 1, BuildingBlock: NAHDIM_clean_sbu_0, # of connection points: 4
#     Node 8, Type 1, BuildingBlock: NAHDIM_clean_sbu_0, # of connection points: 4
#     Node 9, Type 1, BuildingBlock: NAHDIM_clean_sbu_0, # of connection points: 4
#     Node 10, Type 1, BuildingBlock: NAHDIM_clean_sbu_0, # of connection points: 4
#     Node 11, Type 1, BuildingBlock: NAHDIM_clean_sbu_0, # of connection points: 4
#     Edge 12, Type (0, 1), BuildingBlock: XIVTED_clean_linker_0, # of connection points: 2
#     Edge 13, Type (0, 1), BuildingBlock: XIVTED_clean_linker_0, # of connection points: 2
#     Edge 14, Type (0, 1), BuildingBlock: XIVTED_clean_linker_0, # of connection points: 2
#     Edge 15, Type (0, 1), BuildingBlock: XIVTED_clean_linker_0, # of connection points: 2
#     Edge 16, Type (0, 1), BuildingBlock: XIVTED_clean_linker_0, # of connection points: 2
#     Edge 17, Type (0, 1), BuildingBlock: XIVTED_clean_linker_0, # of connection points: 2
#     Edge 18, Type (0, 1), BuildingBlock: XIVTED_clean_linker_0, # of connection points: 2
#     Edge 19, Type (0, 1), BuildingBlock: XIVTED_clean_linker_0, # of connection points: 2
#     Edge 20, Type (0, 1), BuildingBlock: XIVTED_clean_linker_0, # of connection points: 2
#     Edge 21, Type (0, 1), BuildingBlock: XIVTED_clean_linker_0, # of connection points: 2
#     Edge 22, Type (0, 1), BuildingBlock: XIVTED_clean_linker_0, # of connection points: 2
#     Edge 23, Type (0, 1), BuildingBlock: XIVTED_clean_linker_0, # of connection points: 2
#     Edge 24, Type (0, 1), BuildingBlock: XIVTED_clean_linker_0, # of connection points: 2
#     Edge 25, Type (0, 1), BuildingBlock: XIVTED_clean_linker_0, # of connection points: 2
#     Edge 26, Type (0, 1), BuildingBlock: XIVTED_clean_linker_0, # of connection points: 2
#     Edge 27, Type (0, 1), BuildingBlock: XIVTED_clean_linker_0, # of connection points: 2
#     Edge 28, Type (0, 1), BuildingBlock: XIVTED_clean_linker_0, # of connection points: 2
#     Edge 29, Type (0, 1), BuildingBlock: XIVTED_clean_linker_0, # of connection points: 2
#     Edge 30, Type (0, 1), BuildingBlock: XIVTED_clean_linker_0, # of connection points: 2
#     Edge 31, Type (0, 1), BuildingBlock: XIVTED_clean_linker_0, # of connection points: 2
#     Edge 32, Type (0, 1), BuildingBlock: XIVTED_clean_linker_0, # of connection points: 2
#     Edge 33, Type (0, 1), BuildingBlock: XIVTED_clean_linker_0, # of connection points: 2
#     Edge 34, Type (0, 1), BuildingBlock: XIVTED_clean_linker_0, # of connection points: 2
#     Edge 35, Type (0, 1), BuildingBlock: XIVTED_clean_linker_0, # of connection points: 2
# Relax obj value: 0.022
# Max RMSD: 0.125
# Mean RMSD: 0.093
data_MOF--net-nom--node1-NAHDIM_clean_sbu_0--node2-GIZVER_clean_linker_0--edge1-XIVTED_clean_linker_0
_symmetry_space_group_name_H-M    P1
_symmetry_Int_Tables_number       1
_symmetry_cell_setting            triclinic
loop_
_symmetry_equiv_pos_as_xyz
'x, y, z'
_cell_length_a     45.382829
_cell_length_b     46.817299
_cell_length_c     47.994329
_cell_angle_alpha  90.03128
_cell_angle_beta   90.65488
_cell_angle_gamma 121.01024
loop_
_atom_site_label
_atom_site_type_symbol
_atom_site_fract_x
_atom_site_fract_y
_atom_site_fract_z
_atom_type_partial_charge
H0 H 0.97159 0.56925 0.33073 0.0
H1 H 1.00077 0.56372 0.24679 0.0
H2 H 0.90776 0.48253 0.28031 0.0
H3 H 0.01754 0.61839 0.30949 0.0
H4 H 0.02285 0.61876 0.2726 0.0
H5 H 0.04424 0.59332 0.34043 0.0
H6 H 0.13852 0.60543 0.31008 0.0
H7 H 0.07 0.61579 0.25395 0.0
C8 C 0.96707 0.55541 0.31146 0.0
C9 C 0.93756 0.52362 0.30844 0.0
C10 C 0.99018 0.56981 0.28935 0.0
C11 C 0.98343 0.55225 0.26407 0.0
C12 C 0.95386 0.52056 0.26071 0.0
C13 C 0.93152 0.50623 0.2832 0.0
C14 C 0.02073 0.60473 0.29193 0.0
C15 C 0.05324 0.60401 0.29655 0.0
C16 C 0.06136 0.59764 0.32327 0.0
C17 C 0.09184 0.59758 0.32802 0.0
C18 C 0.11415 0.60377 0.30588 0.0
C19 C 0.10684 0.61081 0.27911 0.0
C20 C 0.07599 0.61042 0.2745 0.0
H21 H 0.43311 0.97934 0.50105 0.0
H22 H 0.44941 0.99848 0.41314 0.0
H23 H 0.44422 0.91156 0.44816 0.0
H24 H 0.42287 0.02044 0.47909 0.0
H25 H 0.42545 0.02549 0.44211 0.0
H26 H 0.47797 0.04522 0.50783 0.0
H27 H 0.56044 0.13722 0.47568 0.0
H28 H 0.4762 0.07075 0.42195 0.0
C29 C 0.43821 0.97284 0.48072 0.0
C30 C 0.43957 0.94375 0.47747 0.0
C31 C 0.4423 0.99296 0.4576 0.0
C32 C 0.44732 0.98354 0.4311 0.0
C33 C 0.44828 0.95427 0.42758 0.0
C34 C 0.4452 0.93503 0.45096 0.0
C35 C 0.43885 0.02311 0.46073 0.0
C36 C 0.47371 0.05417 0.46433 0.0
C37 C 0.49023 0.06195 0.49052 0.0
C38 C 0.52171 0.09177 0.49473 0.0
C39 C 0.53707 0.11335 0.47221 0.0
C40 C 0.5208 0.10613 0.44595 0.0
C41 C 0.4892 0.07628 0.44205 0.0
H42 H 0.4329 0.48402 0.58096 0.0
H43 H 0.45621 0.47896 0.66733 0.0
H44 H 0.44119 0.55767 0.63911 0.0
H45 H 0.42884 0.43412 0.5983 0.0
H46 H 0.42741 0.4279 0.63506 0.0
H47 H 0.4863 0.46545 0.57468 0.0
H48 H 0.56415 0.45125 0.61244 0.0
H49 H 0.47607 0.43242 0.65956 0.0
C50 C 0.43847 0.4946 0.6018 0.0
C51 C 0.43753 0.52361 0.60723 0.0
C52 C 0.44534 0.4785 0.62344 0.0
C53 C 0.45162 0.49178 0.65058 0.0
C54 C 0.45065 0.52069 0.65634 0.0
C55 C 0.44399 0.53654 0.63448 0.0
C56 C 0.44275 0.44553 0.61825 0.0
C57 C 0.47786 0.44948 0.61745 0.0
C58 C 0.49674 0.45959 0.59273 0.0
C59 C 0.52805 0.46048 0.59079 0.0
C60 C 0.54096 0.45236 0.61425 0.0
C61 C 0.52238 0.44208 0.63909 0.0
C62 C 0.49093 0.44099 0.64065 0.0
H63 H 0.96109 0.40633 0.74865 0.0
H64 H 0.99975 0.44047 0.83189 0.0
H65 H 0.90227 0.42682 0.80596 0.0
H66 H 1.01051 0.40489 0.76508 0.0
H67 H 0.01918 0.40802 0.80172 0.0
H68 H 0.03806 0.45548 0.73564 0.0
H69 H 0.13015 0.54007 0.76875 0.0
H70 H 0.06362 0.46016 0.82294 0.0
C71 C 0.95865 0.4152 0.76886 0.0
C72 C 0.92928 0.41678 0.77467 0.0
C73 C 0.9844 0.42417 0.78938 0.0
C74 C 0.98033 0.43439 0.81588 0.0
C75 C 0.95089 0.43573 0.82202 0.0
C76 C 0.92588 0.42747 0.80108 0.0
C77 C 1.01504 0.42071 0.78382 0.0
C78 C 0.04683 0.45446 0.77985 0.0
C79 C 0.05476 0.46884 0.75324 0.0
C80 C 0.08473 0.49987 0.74914 0.0
C81 C 0.10618 0.51684 0.77204 0.0
C82 C 0.09891 0.50269 0.79865 0.0
C83 C 0.0691 0.47147 0.8025 0.0
H84 H 0.61333 0.0758 0.00664 0.0
H85 H 0.57287 0.03826 0.92447 0.0
H86 H 0.59072 0.13383 0.95095 0.0
H87 H 0.61524 0.02885 -0.01151 0.0
H88 H 0.60757 0.01942 0.95206 0.0
H89 H 0.55731 0.01298 0.01684 0.0
H90 H 0.48275 0.90991 0.00132 0.0
H91 H 0.56412 0.96376 0.94332 0.0
C92 C 0.60306 0.07827 -0.01311 0.0
C93 C 0.60172 0.10706 -0.01844 0.0
C94 C 0.59227 0.05319 0.96642 0.0
C95 C 0.58032 0.05723 0.94045 0.0
C96 C 0.57956 0.08627 0.93463 0.0
C97 C 0.58958 0.11062 0.95558 0.0
C98 C 0.59665 0.02372 0.97115 0.0
C99 C 0.56297 0.99275 -0.02192 0.0
C100 C 0.54644 0.99142 0.00312 0.0
C101 C 0.51704 0.96173 0.01124 0.0
C102 C 0.50432 0.93337 -0.00572 0.0
C103 C 0.52149 0.93371 0.97014 0.0
C104 C 0.55028 0.96367 0.9616 0.0
H105 H 0.61297 0.56014 0.08334 0.0
H106 H 0.58526 0.56192 0.16848 0.0
H107 H 0.59765 0.482 0.13897 0.0
H108 H 0.61677 0.60966 0.10169 0.0
H109 H 0.61629 0.61429 0.13863 0.0
H110 H 0.55875 0.57509 0.07592 0.0
H111 H 0.47981 0.59001 0.10863 0.0
H112 H 0.56826 0.61349 0.15915 0.0
C113 C 0.60576 0.54852 0.10362 0.0
C114 C 0.60486 0.5185 0.10837 0.0
C115 C 0.59842 0.56412 0.12523 0.0
C116 C 0.59022 0.54949 0.15171 0.0
C117 C 0.5896 0.51966 0.15684 0.0
C118 C 0.59635 0.5041 0.13489 0.0
C119 C 0.6018 0.59753 0.12076 0.0
C120 C 0.5669 0.59387 0.11805 0.0
C121 C 0.54815 0.58202 0.09295 0.0
C122 C 0.51652 0.58032 0.08942 0.0
C123 C 0.50334 0.58965 0.11163 0.0
C124 C 0.52183 0.60176 0.13677 0.0
C125 C 0.55358 0.60366 0.13995 0.0
C126 C 0.62606 0.3287 0.36327 0.0
O127 O 0.6556 0.34449 0.35036 0.0
O128 O 0.68681 0.41973 0.37323 0.0
Zn129 Zn 0.63498 0.39504 0.37314 0.0
O130 O 0.61784 0.40846 0.40616 0.0
C131 C 0.6257 0.4379 0.33745 0.0
O132 O 0.64297 0.45868 0.35797 0.0
O133 O 0.61366 0.34514 0.3738 0.0
C134 C 0.63655 0.433 0.42224 0.0
O135 O 0.66984 0.45095 0.41816 0.0
C136 C 0.70574 0.41152 0.38646 0.0
O137 O 0.69152 0.38455 0.40179 0.0
O138 O 0.61898 0.40803 0.33889 0.0
C139 C 0.32997 0.7218 0.55596 0.0
O140 O 0.34688 0.70662 0.56163 0.0
O141 O 0.30662 0.63889 0.54301 0.0
Zn142 Zn 0.27258 0.65459 0.54438 0.0
O143 O 0.24347 0.64333 0.50942 0.0
C144 C 0.2307 0.60411 0.58428 0.0
O145 O 0.24267 0.58736 0.57162 0.0
O146 O 0.2984 0.70461 0.54885 0.0
C147 C 0.21866 0.61428 0.50332 0.0
O148 O 0.21198 0.58915 0.51956 0.0
C149 C 0.30545 0.6165 0.52722 0.0
O150 O 0.28014 0.60108 0.50905 0.0
O151 O 0.2407 0.63371 0.57669 0.0
C152 C 0.61276 0.31357 0.72887 0.0
O153 O 0.64218 0.32639 0.74251 0.0
O154 O 0.67094 0.28061 0.72122 0.0
Zn155 Zn 0.61904 0.25453 0.72013 0.0
O156 O 0.60198 0.22447 0.6864 0.0
C157 C 0.60649 0.20085 0.75524 0.0
O158 O 0.62235 0.1959 0.73476 0.0
O159 O 0.59921 0.28442 0.71847 0.0
C160 C 0.62087 0.21807 0.67148 0.0
O161 O 0.65374 0.23203 0.67764 0.0
C162 C 0.68984 0.30673 0.7072 0.0
O163 O 0.67554 0.31886 0.69088 0.0
O164 O 0.60192 0.22541 0.754 0.0
C165 C 0.42438 0.6987 0.9056 0.0
O166 O 0.41332 0.67653 0.9256 0.0
O167 O 0.34861 0.61429 0.87523 0.0
Zn168 Zn 0.40053 0.63909 0.87509 0.0
O169 O 0.41835 0.62238 0.90572 0.0
C170 C 0.40792 0.59903 0.83573 0.0
O171 O 0.38974 0.57707 0.85487 0.0
O172 O 0.42118 0.68874 0.8805 0.0
C173 C 0.39972 0.59757 0.92113 0.0
O174 O 0.36616 0.58118 0.91771 0.0
C175 C 0.33087 0.62799 0.8783 0.0
O176 O 0.34658 0.66042 0.8819 0.0
O177 O 0.41591 0.62913 0.8392 0.0
C178 C 0.72456 0.41384 0.0274 0.0
O179 O 0.71004 0.3845 0.01513 0.0
O180 O 0.75715 0.35606 0.03853 0.0
Zn181 Zn 0.78467 0.40637 0.03787 0.0
O182 O 0.81651 0.42486 0.07108 0.0
C183 C 0.83836 0.41505 0.00265 0.0
O184 O 0.84305 0.39952 0.02345 0.0
O185 O 0.75471 0.42657 0.03772 0.0
C186 C 0.82373 0.40805 0.08758 0.0
O187 O 0.80922 0.37575 0.08373 0.0
C188 C 0.72962 0.33828 0.05196 0.0
O189 O 0.717 0.35275 0.06712 0.0
O190 O 0.81397 0.42088 0.0038 0.0
C191 C 0.41954 0.72316 0.21911 0.0
O192 O 0.38835 0.7076 0.22928 0.0
O193 O 0.35587 0.74408 0.21177 0.0
Zn194 Zn 0.40701 0.77771 0.21333 0.0
O195 O 0.42335 0.81114 0.18214 0.0
C196 C 0.39815 0.81181 0.25892 0.0
O197 O 0.36811 0.80046 0.2466 0.0
O198 O 0.43285 0.75329 0.21146 0.0
C199 C 0.41391 0.83215 0.17827 0.0
O200 O 0.39012 0.83146 0.19405 0.0
C201 C 0.33341 0.74234 0.19463 0.0
O202 O 0.34267 0.76414 0.17447 0.0
O203 O 0.41899 0.80405 0.24906 0.0
H204 H 0.14779 0.58557 0.26624 0.0
H205 H 0.27691 0.74398 0.17599 0.0
H206 H 0.12769 0.66307 0.24305 0.0
H207 H 0.30647 0.68453 0.22394 0.0
H208 H 0.2169 0.70608 0.18917 0.0
H209 H 0.20024 0.61291 0.2388 0.0
C210 C 0.1541 0.60804 0.25499 0.0
C211 C 0.13368 0.62243 0.25743 0.0
C212 C 0.23653 0.70115 0.19644 0.0
C213 C 0.19361 0.65376 0.22596 0.0
C214 C 0.27071 0.72267 0.18889 0.0
C215 C 0.29672 0.71761 0.19923 0.0
C216 C 0.22837 0.67421 0.2141 0.0
C217 C 0.28727 0.68961 0.21585 0.0
C218 C 0.18403 0.62362 0.23935 0.0
C219 C 0.14268 0.65113 0.24185 0.0
N220 N 0.25391 0.66909 0.22289 0.0
N221 N 0.17229 0.66616 0.22709 0.0
H222 H 0.58702 0.14293 0.42757 0.0
H223 H 0.5586 0.28639 0.37543 0.0
H224 H 0.48638 0.12988 0.41634 0.0
H225 H 0.65335 0.28834 0.36136 0.0
H226 H 0.53109 0.22767 0.3878 0.0
H227 H 0.6115 0.1942 0.40028 0.0
C228 C 0.57002 0.15052 0.4188 0.0
C229 C 0.53469 0.13234 0.42436 0.0
C230 C 0.55777 0.24075 0.38163 0.0
C231 C 0.56249 0.19117 0.39369 0.0
C232 C 0.57354 0.27434 0.3747 0.0
C233 C 0.60841 0.29234 0.36767 0.0
C234 C 0.57716 0.22513 0.38209 0.0
C235 C 0.62643 0.27539 0.36678 0.0
C236 C 0.58396 0.17975 0.40325 0.0
C237 C 0.51373 0.14311 0.41247 0.0
N238 N 0.61075 0.24284 0.37439 0.0
N239 N 0.52803 0.17216 0.39813 0.0
H240 H 0.38353 0.49113 0.57022 0.0
H241 H 0.36774 0.65039 0.55397 0.0
H242 H 0.46324 0.58967 0.59618 0.0
H243 H 0.30042 0.55815 0.51031 0.0
H244 H 0.40585 0.62974 0.56574 0.0
H245 H 0.35614 0.51583 0.54348 0.0
C246 C 0.39581 0.51801 0.56969 0.0
C247 C 0.42542 0.53834 0.58586 0.0
C248 C 0.383 0.61413 0.55326 0.0
C249 C 0.39371 0.5667 0.5559 0.0
C250 C 0.36115 0.62588 0.54662 0.0
C251 C 0.33064 0.60578 0.53145 0.0
C252 C 0.37403 0.58177 0.5451 0.0
C253 C 0.3236 0.57439 0.52219 0.0
C254 C 0.37999 0.5321 0.55457 0.0
C255 C 0.44 0.57302 0.58452 0.0
N256 N 0.34484 0.5631 0.52956 0.0
N257 N 0.42368 0.58605 0.57026 0.0
H258 H 0.89569 0.35536 0.75011 0.0
H259 H 0.73763 0.37206 0.69653 0.0
H260 H 0.89468 0.44673 0.75599 0.0
H261 H 0.72796 0.28011 0.72464 0.0
H262 H 0.79985 0.40055 0.70559 0.0
H263 H 0.83909 0.32871 0.72701 0.0
C264 C 0.88398 0.37005 0.74575 0.0
C265 C 0.89965 0.40318 0.75503 0.0
C266 C 0.78406 0.37406 0.70944 0.0
C267 C 0.83503 0.3729 0.72906 0.0
C268 C 0.74865 0.35781 0.70426 0.0
C269 C 0.72762 0.32379 0.7102 0.0
C270 C 0.7985 0.35599 0.72014 0.0
C271 C 0.7432 0.30647 0.72016 0.0
C272 C 0.8516 0.35478 0.73287 0.0
C273 C 0.88323 0.42105 0.74925 0.0
N274 N 0.77769 0.32278 0.72487 0.0
N275 N 0.85163 0.4056 0.73682 0.0
H276 H 0.52312 0.88368 -0.00388 0.0
H277 H 0.44184 0.75174 0.87055 0.0
H278 H 0.50007 0.91032 0.91633 0.0
H279 H 0.44503 0.72735 0.95684 0.0
H280 H 0.46938 0.81093 0.88398 0.0
H281 H 0.50244 0.82761 -0.02129 0.0
C282 C 0.51382 0.87761 0.97477 0.0
C283 C 0.5128 0.90135 0.9577 0.0
C284 C 0.46404 0.79251 0.89985 0.0
C285 C 0.48866 0.83695 0.93757 0.0
C286 C 0.44839 0.75881 0.89225 0.0
C287 C 0.44102 0.73455 0.91264 0.0
C288 C 0.47267 0.80186 0.92795 0.0
C289 C 0.45 0.74505 0.9404 0.0
C290 C 0.50191 0.84558 0.96484 0.0
C291 C 0.50105 0.89251 0.93009 0.0
N292 N 0.46535 0.7778 0.94717 0.0
N293 N 0.48905 0.86074 0.92086 0.0
H294 H 0.57465 0.4535 0.09119 0.0
H295 H 0.75051 0.47977 0.0384 0.0
H296 H 0.66407 0.55079 0.07865 0.0
H297 H 0.65468 0.38693 0.02603 0.0
H298 H 0.71845 0.5067 0.0505 0.0
H299 H 0.60172 0.42881 0.06437 0.0
C300 C 0.59969 0.46968 0.08225 0.0
C301 C 0.61729 0.50417 0.08727 0.0
C302 C 0.70436 0.48055 0.04477 0.0
C303 C 0.64865 0.47615 0.05711 0.0
C304 C 0.72267 0.46512 0.03798 0.0
C305 C 0.70522 0.43098 0.03151 0.0
C306 C 0.6683 0.46159 0.04565 0.0
C307 C 0.66913 0.41329 0.031 0.0
C308 C 0.61512 0.45562 0.06696 0.0
C309 C 0.64959 0.5241 0.07518 0.0
N310 N 0.65184 0.42867 0.03846 0.0
N311 N 0.66451 0.50974 0.0611 0.0
H312 H 0.47381 0.91334 0.49581 0.0
H313 H 0.30226 0.76154 0.55187 0.0
H314 H 0.38244 0.91754 0.50967 0.0
H315 H 0.39952 0.76584 0.55609 0.0
H316 H 0.33275 0.82116 0.54222 0.0
H317 H 0.44978 0.86284 0.52395 0.0
C318 C 0.44906 0.90405 0.50546 0.0
C319 C 0.4299 0.91934 0.50026 0.0
C320 C 0.34751 0.80922 0.5457 0.0
C321 C 0.40182 0.86121 0.53179 0.0
C322 C 0.33008 0.77512 0.55111 0.0
C323 C 0.34834 0.75857 0.55431 0.0
C324 C 0.38343 0.82683 0.543 0.0
C325 C 0.38438 0.77751 0.55348 0.0
C326 C 0.43528 0.8752 0.52144 0.0
C327 C 0.39802 0.90647 0.51322 0.0
N328 N 0.40071 0.81052 0.5474 0.0
N329 N 0.38463 0.87771 0.52791 0.0
H330 H 0.58671 0.46825 0.66236 0.0
H331 H 0.5465 0.29152 0.71285 0.0
H332 H 0.48398 0.38257 0.66541 0.0
H333 H 0.64287 0.38154 0.73172 0.0
H334 H 0.52229 0.32524 0.69837 0.0
H335 H 0.60718 0.43855 0.69107 0.0
C336 C 0.56837 0.44344 0.6696 0.0
C337 C 0.53367 0.42773 0.66135 0.0
C338 C 0.54859 0.33768 0.70603 0.0
C339 C 0.55691 0.3934 0.6937 0.0
C340 C 0.56248 0.31842 0.71419 0.0
C341 C 0.59686 0.33376 0.72321 0.0
C342 C 0.5694 0.37259 0.70637 0.0
C343 C 0.61627 0.3687 0.72479 0.0
C344 C 0.58004 0.42649 0.68597 0.0
C345 C 0.51092 0.39564 0.67138 0.0
N346 N 0.60243 0.38697 0.71601 0.0
N347 N 0.52304 0.37931 0.6866 0.0
H348 H 0.13045 0.56739 0.81642 0.0
H349 H 0.28978 0.56004 0.87541 0.0
H350 H 0.1285 0.47548 0.83023 0.0
H351 H 0.28559 0.65008 0.8741 0.0
H352 H 0.22827 0.52776 0.86472 0.0
H353 H 0.18379 0.59712 0.84381 0.0
C354 C 0.14087 0.5534 0.82587 0.0
C355 C 0.12532 0.51905 0.82092 0.0
C356 C 0.24067 0.55453 0.86714 0.0
C357 C 0.18673 0.55288 0.85163 0.0
C358 C 0.27586 0.57301 0.87315 0.0
C359 C 0.293 0.60789 0.87519 0.0
C360 C 0.22251 0.57105 0.8628 0.0
C361 C 0.27354 0.62328 0.87241 0.0
C362 C 0.17137 0.57034 0.84141 0.0
C363 C 0.13972 0.50199 0.83362 0.0
N364 N 0.23944 0.60481 0.86595 0.0
N365 N 0.17002 0.51919 0.84794 0.0
H366 H 0.57363 0.14253 0.00116 0.0
H367 H 0.75512 0.29964 0.03509 0.0
H368 H 0.66596 0.13779 0.00501 0.0
H369 H 0.66136 0.29359 0.06104 0.0
H370 H 0.72276 0.23984 0.02519 0.0
H371 H 0.6043 0.1968 0.02489 0.0
C372 C 0.60016 0.15265 0.0076 0.0
C373 C 0.61737 0.13581 0.00109 0.0
C374 C 0.70931 0.25147 0.03341 0.0
C375 C 0.65279 0.19805 0.02755 0.0
C376 C 0.72774 0.28564 0.03892 0.0
C377 C 0.71082 0.30163 0.04865 0.0
C378 C 0.67356 0.23322 0.0371 0.0
C379 C 0.67537 0.28224 0.05349 0.0
C380 C 0.61766 0.18358 0.0211 0.0
C381 C 0.65174 0.14992 0.00979 0.0
N382 N 0.65778 0.24911 0.04723 0.0
N383 N 0.66853 0.18053 0.02212 0.0
H384 H 0.45778 0.57365 0.15919 0.0
H385 H 0.48672 0.74885 0.20452 0.0
H386 H 0.55764 0.66347 0.16094 0.0
H387 H 0.39365 0.65593 0.22217 0.0
H388 H 0.51433 0.71777 0.19157 0.0
H389 H 0.43485 0.60237 0.18576 0.0
C390 C 0.475 0.59925 0.16572 0.0
C391 C 0.50957 0.61631 0.15778 0.0
C392 C 0.48801 0.70418 0.19862 0.0
C393 C 0.48347 0.64956 0.1876 0.0
C394 C 0.47218 0.72192 0.20592 0.0
C395 C 0.43768 0.70495 0.21412 0.0
C396 C 0.46908 0.66918 0.19913 0.0
C397 C 0.42022 0.67005 0.21579 0.0
C398 C 0.46194 0.61566 0.18084 0.0
C399 C 0.53086 0.64941 0.16676 0.0
N400 N 0.43595 0.6533 0.20798 0.0
N401 N 0.51734 0.66516 0.18078 0.0
H402 H 0.90389 0.46104 0.33072 0.0
H403 H 0.74464 0.47605 0.36973 0.0
H404 H 0.90803 0.5551 0.33306 0.0
H405 H 0.75233 0.39147 0.39436 0.0
H406 H 0.80567 0.50626 0.35857 0.0
H407 H 0.85032 0.43576 0.35694 0.0
C408 C 0.89388 0.47651 0.33735 0.0
C409 C 0.9102 0.51012 0.3296 0.0
C410 C 0.79419 0.48127 0.36679 0.0
C411 C 0.84871 0.48131 0.35896 0.0
C412 C 0.75929 0.46395 0.37302 0.0
C413 C 0.74335 0.43109 0.38268 0.0
C414 C 0.81319 0.46541 0.36968 0.0
C415 C 0.76362 0.41674 0.38685 0.0
C416 C 0.86333 0.4621 0.35227 0.0
C417 C 0.89629 0.52913 0.3387 0.0
N418 N 0.79741 0.4338 0.37986 0.0
N419 N 0.86597 0.51431 0.35244 0.0
H420 H 0.09844 0.63552 0.37328 0.0
H421 H 0.17811 0.55643 0.47412 0.0
H422 H 0.1116 0.5548 0.3468 0.0
H423 H 0.20887 0.66034 0.47687 0.0
H424 H 0.14183 0.54881 0.43311 0.0
H425 H 0.12616 0.63746 0.41801 0.0
C426 C 0.10645 0.61771 0.3772 0.0
C427 C 0.10285 0.59498 0.35649 0.0
C428 C 0.15648 0.57319 0.44283 0.0
C429 C 0.13455 0.59718 0.40719 0.0
C430 C 0.17711 0.57757 0.46616 0.0
C431 C 0.19668 0.60912 0.4787 0.0
C432 C 0.1549 0.60039 0.43247 0.0
C433 C 0.19447 0.63568 0.46762 0.0
C434 C 0.12252 0.61904 0.40252 0.0
C435 C 0.11406 0.57272 0.36233 0.0
N436 N 0.17381 0.63069 0.44519 0.0
N437 N 0.12952 0.57439 0.3872 0.0
H438 H 0.58924 0.12154 0.51161 0.0
H439 H 0.55295 0.17933 0.65694 0.0
H440 H 0.48766 0.08847 0.54229 0.0
H441 H 0.65432 0.20414 0.63138 0.0
H442 H 0.52851 0.143 0.61626 0.0
H443 H 0.61356 0.14841 0.55668 0.0
C444 C 0.57205 0.11954 0.52798 0.0
C445 C 0.53641 0.10294 0.52315 0.0
C446 C 0.55609 0.1562 0.6196 0.0
C447 C 0.56399 0.13382 0.57459 0.0
C448 C 0.57009 0.17708 0.6428 0.0
C449 C 0.60578 0.19504 0.64744 0.0
C450 C 0.57791 0.15341 0.60072 0.0
C451 C 0.62668 0.19089 0.62853 0.0
C452 C 0.58592 0.13486 0.55368 0.0
C453 C 0.51526 0.1008 0.54514 0.0
N454 N 0.61245 0.17071 0.60586 0.0
N455 N 0.52941 0.11643 0.56977 0.0
H456 H 0.4203 0.48281 0.70249 0.0
H457 H 0.44797 0.63801 0.79288 0.0
H458 H 0.48336 0.58497 0.67628 0.0
H459 H 0.39307 0.53638 0.82178 0.0
H460 H 0.46441 0.6196 0.75128 0.0
H461 H 0.41454 0.50242 0.74802 0.0
C462 C 0.43359 0.50939 0.70649 0.0
C463 C 0.45209 0.53227 0.68541 0.0
C464 C 0.44895 0.60137 0.76682 0.0
C465 C 0.44479 0.55493 0.73732 0.0
C466 C 0.43944 0.61185 0.79052 0.0
C467 C 0.41887 0.58866 0.81073 0.0
C468 C 0.43766 0.56743 0.76325 0.0
C469 C 0.40877 0.55511 0.80667 0.0
C470 C 0.43 0.52059 0.73244 0.0
C471 C 0.46833 0.56644 0.69175 0.0
N472 N 0.41808 0.54549 0.78333 0.0
N473 N 0.46396 0.57673 0.71702 0.0
H474 H 0.96225 0.41185 0.87053 0.0
H475 H 0.83818 0.45034 0.95718 0.0
H476 H 0.92223 0.47188 0.83937 0.0
H477 H 0.88882 0.40131 -0.00833 0.0
H478 H 0.87248 0.46255 0.9152 0.0
H479 H 0.94065 0.41289 0.91656 0.0
C480 C 0.94963 0.42592 0.87348 0.0
C481 C 0.9437 0.44148 0.85093 0.0
C482 C 0.87632 0.44938 0.93205 0.0
C483 C 0.91802 0.44197 0.90349 0.0
C484 C 0.85664 0.4423 0.956 0.0
C485 C 0.86036 0.42444 -0.02216 0.0
C486 C 0.89969 0.43831 0.92983 0.0
C487 C 0.88489 0.4149 0.97526 0.0
C488 C 0.937 0.42625 0.89976 0.0
C489 C 0.92675 0.45896 0.85602 0.0
N490 N 0.90338 0.42168 0.95158 0.0
N491 N 0.9141 0.45835 0.88166 0.0
H492 H 0.45088 0.939 0.02685 0.0
H493 H 0.47802 0.85727 0.15732 0.0
H494 H 0.55217 0.97147 0.05978 0.0
H495 H 0.38807 0.86599 0.15076 0.0
H496 H 0.50517 0.89904 0.12093 0.0
H497 H 0.42647 0.91396 0.07201 0.0
C498 C 0.46802 0.94192 0.04397 0.0
C499 C 0.50351 0.95722 0.03974 0.0
C500 C 0.47965 0.89213 0.12768 0.0
C501 C 0.47587 0.92765 0.09073 0.0
C502 C 0.46401 0.86803 0.1482 0.0
C503 C 0.43065 0.85797 0.1568 0.0
C504 C 0.4615 0.90569 0.11516 0.0
C505 C 0.41381 0.87303 0.14458 0.0
C506 C 0.45412 0.92749 0.06962 0.0
C507 C 0.52469 0.96003 0.06234 0.0
N508 N 0.4292 0.89579 0.12397 0.0
N509 N 0.51046 0.94461 0.0867 0.0
H510 H 0.55414 0.4546 0.17421 0.0
H511 H 0.63903 0.50082 0.32687 0.0
H512 H 0.61864 0.55531 0.20488 0.0
H513 H 0.5881 0.4014 0.29188 0.0
H514 H 0.62384 0.52019 0.28497 0.0
H515 H 0.55797 0.4338 0.22002 0.0
C516 C 0.56876 0.47234 0.19067 0.0
C517 C 0.5864 0.50676 0.18559 0.0
C518 C 0.61581 0.4941 0.28652 0.0
C519 C 0.5909 0.48313 0.23801 0.0
C520 C 0.6245 0.483 0.31043 0.0
C521 C 0.61513 0.44949 0.31276 0.0
C522 C 0.59758 0.47153 0.26475 0.0
C523 C 0.59611 0.42751 0.29087 0.0
C524 C 0.57093 0.46045 0.2168 0.0
C525 C 0.60445 0.5286 0.20783 0.0
N526 N 0.58812 0.43896 0.2677 0.0
N527 N 0.60652 0.51641 0.23297 0.0
H528 H 0.40834 0.95001 0.38298 0.0
H529 H 0.45538 0.8356 0.29262 0.0
H530 H 0.48492 0.92662 0.4086 0.0
H531 H 0.36473 0.84196 0.27895 0.0
H532 H 0.47222 0.87543 0.33125 0.0
H533 H 0.39901 0.91846 0.33993 0.0
C534 C 0.42379 0.9389 0.37924 0.0
C535 C 0.44733 0.94079 0.39943 0.0
C536 C 0.44869 0.86812 0.31974 0.0
C537 C 0.43622 0.90401 0.35053 0.0
C538 C 0.43902 0.84535 0.29774 0.0
C539 C 0.40847 0.83526 0.28267 0.0
C540 C 0.42781 0.88108 0.32652 0.0
C541 C 0.38834 0.8488 0.29013 0.0
C542 C 0.41815 0.92054 0.35482 0.0
C543 C 0.46627 0.92545 0.39366 0.0
N544 N 0.39838 0.87102 0.31152 0.0
N545 N 0.46012 0.90747 0.36982 0.0
H546 H 0.59691 0.49668 0.57895 0.0
H547 H 0.56812 0.40648 0.43179 0.0
H548 H 0.4973 0.43273 0.54075 0.0
H549 H 0.66861 0.47855 0.46465 0.0
H550 H 0.54201 0.41894 0.47034 0.0
H551 H 0.62401 0.4943 0.5359 0.0
C552 C 0.58077 0.48258 0.56134 0.0
C553 C 0.5448 0.4647 0.5635 0.0
C554 C 0.56978 0.43222 0.46908 0.0
C555 C 0.57555 0.46158 0.51435 0.0
C556 C 0.58473 0.425 0.4471 0.0
C557 C 0.62064 0.44128 0.44512 0.0
C558 C 0.59081 0.45572 0.48944 0.0
C559 C 0.64082 0.46527 0.46545 0.0
C560 C 0.59623 0.48122 0.5368 0.0
C561 C 0.52509 0.44709 0.53999 0.0
N562 N 0.62562 0.47158 0.48691 0.0
N563 N 0.54073 0.44564 0.51654 0.0
H564 H 0.08767 0.4662 0.70384 0.0
H565 H 0.2045 0.63292 0.61775 0.0
H566 H 0.1103 0.56353 0.73054 0.0
H567 H 0.19764 0.53906 0.60088 0.0
H568 H 0.16223 0.60619 0.65458 0.0
H569 H 0.1187 0.49063 0.66073 0.0
C570 C 0.0984 0.49257 0.70028 0.0
C571 C 0.09666 0.51296 0.72082 0.0
C572 C 0.16988 0.59143 0.64272 0.0
C573 C 0.1328 0.54116 0.67193 0.0
C574 C 0.19406 0.60668 0.62174 0.0
C575 C 0.20488 0.58827 0.6064 0.0
C576 C 0.15628 0.55749 0.64832 0.0
C577 C 0.19031 0.5543 0.61236 0.0
C578 C 0.11646 0.50657 0.67584 0.0
C579 C 0.11142 0.54705 0.71532 0.0
N580 N 0.16683 0.54003 0.63291 0.0
N581 N 0.12917 0.56016 0.69151 0.0
H582 H 0.60169 0.07392 0.8857 0.0
H583 H 0.57136 0.20248 0.80079 0.0
H584 H 0.54454 0.11697 0.91784 0.0
H585 H 0.61628 0.1489 0.76561 0.0
H586 H 0.55676 0.16792 0.84241 0.0
H587 H 0.60143 0.09626 0.83997 0.0
C588 C 0.58831 0.08736 0.88304 0.0
C589 C 0.57345 0.09388 0.90581 0.0
C590 C 0.56952 0.16352 0.82547 0.0
C591 C 0.57403 0.12051 0.85352 0.0
C592 C 0.57797 0.18333 0.80173 0.0
C593 C 0.59544 0.17885 0.77981 0.0
C594 C 0.57882 0.13922 0.82738 0.0
C595 C 0.6031 0.15346 0.78209 0.0
C596 C 0.58849 0.10044 0.85691 0.0
C597 C 0.55696 0.11193 0.90102 0.0
N598 N 0.59503 0.13483 0.80555 0.0
N599 N 0.55814 0.12503 0.87552 0.0
H600 H 0.54647 0.60354 0.03886 0.0
H601 H 0.36823 0.55161 0.9626 0.0
H602 H 0.44754 0.54244 0.07687 0.0
H603 H 0.4682 0.6221 0.93013 0.0
H604 H 0.39626 0.53984 0.00103 0.0
H605 H 0.51755 0.60122 -0.00493 0.0
C606 C 0.51864 0.58893 0.03783 0.0
C607 C 0.49938 0.57346 0.06166 0.0
C608 C 0.41201 0.55766 -0.01466 0.0
C609 C 0.46606 0.57145 0.01173 0.0
C610 C 0.39604 0.5644 0.96341 0.0
C611 C 0.41592 0.58821 0.94333 0.0
C612 C 0.44808 0.57477 -0.01289 0.0
C613 C 0.45184 0.60387 0.94533 0.0
C614 C 0.50212 0.58792 0.01287 0.0
C615 C 0.46336 0.55524 0.05912 0.0
N616 N 0.46675 0.59703 0.96692 0.0
N617 N 0.44784 0.55508 0.03469 0.0
H618 H 0.92668 0.45445 0.24774 0.0
H619 H 0.86378 0.47499 0.09739 0.0
H620 H 0.95606 0.54927 0.21064 0.0
H621 H 0.83959 0.37986 0.13094 0.0
H622 H 0.90194 0.50272 0.13714 0.0
H623 H 0.8996 0.42683 0.20351 0.0
C624 C 0.92788 0.46948 0.23014 0.0
C625 C 0.94339 0.50418 0.23294 0.0
C626 C 0.8885 0.47579 0.13577 0.0
C627 C 0.91225 0.47279 0.18241 0.0
C628 C 0.86657 0.4599 0.1131 0.0
C629 C 0.84816 0.425 0.11098 0.0
C630 C 0.89193 0.4567 0.15669 0.0
C631 C 0.85311 0.40681 0.13182 0.0
C632 C 0.91243 0.45372 0.20492 0.0
C633 C 0.94458 0.52251 0.20941 0.0
N634 N 0.8743 0.42287 0.15396 0.0
N635 N 0.92881 0.50655 0.18526 0.0
loop_
_geom_bond_atom_site_label_1
_geom_bond_atom_site_label_2
_geom_bond_distance
_geom_bond_site_symmetry_2
_ccdc_geom_bond_type
H0 C8 0.930 . S
H1 C11 0.930 . S
H2 C13 0.930 . S
H3 C14 0.970 1_655 S
H4 C14 0.970 . S
H5 C16 0.930 . S
H6 C18 0.930 . S
H7 C20 0.930 . S
C8 H0 0.930 . S
C8 C9 1.382 . S
C8 C10 1.426 . S
C9 C8 1.382 . S
C9 C13 1.389 . S
C10 C8 1.426 . S
C10 C11 1.375 . S
C10 C14 1.532 1_655 S
C11 H1 0.930 . S
C11 C10 1.375 . S
C11 C12 1.416 . S
C12 C11 1.416 . S
C12 C13 1.371 . S
C13 H2 0.930 . S
C13 C9 1.389 . S
C13 C12 1.371 . S
C14 H3 0.970 1_455 S
C14 H4 0.970 . S
C14 C10 1.532 1_455 S
C14 C15 1.499 . S
C15 C14 1.499 . S
C15 C16 1.370 . S
C15 C20 1.415 . S
C16 H5 0.930 . S
C16 C15 1.370 . S
C16 C17 1.407 . S
C17 C16 1.407 . S
C17 C18 1.365 . S
C18 H6 0.930 . S
C18 C17 1.365 . S
C18 C19 1.393 . S
C19 C18 1.393 . S
C19 C20 1.387 . S
C20 H7 0.930 . S
C20 C15 1.415 . S
C20 C19 1.387 . S
H21 C29 0.930 . S
H22 C32 0.930 . S
H23 C34 0.930 . S
H24 C35 0.970 . S
H25 C35 0.970 . S
H26 C37 0.930 . S
H27 C39 0.930 . S
H28 C41 0.930 . S
C29 H21 0.930 . S
C29 C30 1.382 . S
C29 C31 1.426 . S
C30 C29 1.382 . S
C30 C34 1.389 . S
C31 C29 1.426 . S
C31 C32 1.375 . S
C31 C35 1.532 1_565 S
C32 H22 0.930 . S
C32 C31 1.375 . S
C32 C33 1.416 . S
C33 C32 1.416 . S
C33 C34 1.371 . S
C34 H23 0.930 . S
C34 C30 1.389 . S
C34 C33 1.371 . S
C35 H24 0.970 . S
C35 H25 0.970 . S
C35 C31 1.532 1_545 S
C35 C36 1.499 . S
C36 C35 1.499 . S
C36 C37 1.370 . S
C36 C41 1.415 . S
C37 H26 0.930 . S
C37 C36 1.370 . S
C37 C38 1.407 . S
C38 C37 1.407 . S
C38 C39 1.365 . S
C39 H27 0.930 . S
C39 C38 1.365 . S
C39 C40 1.393 . S
C40 C39 1.393 . S
C40 C41 1.387 . S
C41 H28 0.930 . S
C41 C36 1.415 . S
C41 C40 1.387 . S
H42 C50 0.930 . S
H43 C53 0.930 . S
H44 C55 0.930 . S
H45 C56 0.970 . S
H46 C56 0.970 . S
H47 C58 0.930 . S
H48 C60 0.930 . S
H49 C62 0.930 . S
C50 H42 0.930 . S
C50 C51 1.382 . S
C50 C52 1.426 . S
C51 C50 1.382 . S
C51 C55 1.389 . S
C52 C50 1.426 . S
C52 C53 1.375 . S
C52 C56 1.532 . S
C53 H43 0.930 . S
C53 C52 1.375 . S
C53 C54 1.416 . S
C54 C53 1.416 . S
C54 C55 1.371 . S
C55 H44 0.930 . S
C55 C51 1.389 . S
C55 C54 1.371 . S
C56 H45 0.970 . S
C56 H46 0.970 . S
C56 C52 1.532 . S
C56 C57 1.499 . S
C57 C56 1.499 . S
C57 C58 1.370 . S
C57 C62 1.415 . S
C58 H47 0.930 . S
C58 C57 1.370 . S
C58 C59 1.407 . S
C59 C58 1.407 . S
C59 C60 1.365 . S
C60 H48 0.930 . S
C60 C59 1.365 . S
C60 C61 1.393 . S
C61 C60 1.393 . S
C61 C62 1.387 . S
C62 H49 0.930 . S
C62 C57 1.415 . S
C62 C61 1.387 . S
H63 C71 0.930 . S
H64 C74 0.930 . S
H65 C76 0.930 . S
H66 C77 0.970 1_655 S
H67 C77 0.970 . S
H68 C79 0.930 . S
H69 C81 0.930 . S
H70 C83 0.930 . S
C71 H63 0.930 . S
C71 C72 1.382 . S
C71 C73 1.426 . S
C72 C71 1.382 . S
C72 C76 1.389 . S
C73 C71 1.426 . S
C73 C74 1.375 . S
C73 C77 1.532 1_655 S
C74 H64 0.930 . S
C74 C73 1.375 . S
C74 C75 1.416 . S
C75 C74 1.416 . S
C75 C76 1.371 . S
C76 H65 0.930 . S
C76 C72 1.389 . S
C76 C75 1.371 . S
C77 H66 0.970 1_455 S
C77 H67 0.970 . S
C77 C73 1.532 1_455 S
C77 C78 1.499 . S
C78 C77 1.499 . S
C78 C79 1.370 . S
C78 C83 1.415 . S
C79 H68 0.930 . S
C79 C78 1.370 . S
C79 C80 1.407 . S
C80 C79 1.407 . S
C80 C81 1.365 . S
C81 H69 0.930 . S
C81 C80 1.365 . S
C81 C82 1.393 . S
C82 C81 1.393 . S
C82 C83 1.387 . S
C83 H70 0.930 . S
C83 C78 1.415 . S
C83 C82 1.387 . S
H84 C92 0.930 . S
H85 C95 0.930 . S
H86 C97 0.930 . S
H87 C98 0.970 1_554 S
H88 C98 0.970 . S
H89 C100 0.930 . S
H90 C102 0.930 . S
H91 C104 0.930 . S
C92 H84 0.930 . S
C92 C93 1.382 1_554 S
C92 C94 1.426 1_554 S
C93 C92 1.382 1_556 S
C93 C97 1.389 . S
C94 C92 1.426 1_556 S
C94 C95 1.375 . S
C94 C98 1.532 . S
C95 H85 0.930 . S
C95 C94 1.375 . S
C95 C96 1.416 . S
C96 C95 1.416 . S
C96 C97 1.371 . S
C97 H86 0.930 . S
C97 C93 1.389 . S
C97 C96 1.371 . S
C98 H87 0.970 1_556 S
C98 H88 0.970 . S
C98 C94 1.532 . S
C98 C99 1.499 1_545 S
C99 C98 1.499 1_565 S
C99 C100 1.370 1_556 S
C99 C104 1.415 . S
C100 H89 0.930 . S
C100 C99 1.370 1_554 S
C100 C101 1.407 . S
C101 C100 1.407 . S
C101 C102 1.365 . S
C102 H90 0.930 . S
C102 C101 1.365 . S
C102 C103 1.393 1_554 S
C103 C102 1.393 1_556 S
C103 C104 1.387 . S
C104 H91 0.930 . S
C104 C99 1.415 . S
C104 C103 1.387 . S
H105 C113 0.930 . S
H106 C116 0.930 . S
H107 C118 0.930 . S
H108 C119 0.970 . S
H109 C119 0.970 . S
H110 C121 0.930 . S
H111 C123 0.930 . S
H112 C125 0.930 . S
C113 H105 0.930 . S
C113 C114 1.382 . S
C113 C115 1.426 . S
C114 C113 1.382 . S
C114 C118 1.389 . S
C115 C113 1.426 . S
C115 C116 1.375 . S
C115 C119 1.532 . S
C116 H106 0.930 . S
C116 C115 1.375 . S
C116 C117 1.416 . S
C117 C116 1.416 . S
C117 C118 1.371 . S
C118 H107 0.930 . S
C118 C114 1.389 . S
C118 C117 1.371 . S
C119 H108 0.970 . S
C119 H109 0.970 . S
C119 C115 1.532 . S
C119 C120 1.499 . S
C120 C119 1.499 . S
C120 C121 1.370 . S
C120 C125 1.415 . S
C121 H110 0.930 . S
C121 C120 1.370 . S
C121 C122 1.407 . S
C122 C121 1.407 . S
C122 C123 1.365 . S
C123 H111 0.930 . S
C123 C122 1.365 . S
C123 C124 1.393 . S
C124 C123 1.393 . S
C124 C125 1.387 . S
C125 H112 0.930 . S
C125 C120 1.415 . S
C125 C124 1.387 . S
C126 O127 1.160 . S
C126 O133 1.185 . S
O127 C126 1.160 . S
O128 Zn129 1.899 . S
O128 C136 1.284 . S
Zn129 O128 1.899 . S
Zn129 O130 2.032 . S
Zn129 O133 2.086 . S
Zn129 O138 1.977 . S
O130 Zn129 2.032 . S
O130 C134 1.278 . S
C131 O132 1.203 . S
C131 O138 1.267 . S
O132 C131 1.203 . S
O133 C126 1.185 . S
O133 Zn129 2.086 . S
C134 O130 1.278 . S
C134 O135 1.211 . S
O135 C134 1.211 . S
C136 O128 1.284 . S
C136 O137 1.273 . S
O137 C136 1.273 . S
O138 Zn129 1.977 . S
O138 C131 1.267 . S
C139 O140 1.160 . S
C139 O146 1.185 . S
O140 C139 1.160 . S
O141 Zn142 1.899 . S
O141 C149 1.284 . S
Zn142 O141 1.899 . S
Zn142 O143 2.032 . S
Zn142 O146 2.086 . S
Zn142 O151 1.977 . S
O143 Zn142 2.032 . S
O143 C147 1.278 . S
C144 O145 1.203 . S
C144 O151 1.267 . S
O145 C144 1.203 . S
O146 C139 1.185 . S
O146 Zn142 2.086 . S
C147 O143 1.278 . S
C147 O148 1.211 . S
O148 C147 1.211 . S
C149 O141 1.284 . S
C149 O150 1.273 . S
O150 C149 1.273 . S
O151 Zn142 1.977 . S
O151 C144 1.267 . S
C152 O153 1.160 . S
C152 O159 1.185 . S
O153 C152 1.160 . S
O154 Zn155 1.899 . S
O154 C162 1.284 . S
Zn155 O154 1.899 . S
Zn155 O156 2.032 . S
Zn155 O159 2.086 . S
Zn155 O164 1.977 . S
O156 Zn155 2.032 . S
O156 C160 1.278 . S
C157 O158 1.203 . S
C157 O164 1.267 . S
O158 C157 1.203 . S
O159 C152 1.185 . S
O159 Zn155 2.086 . S
C160 O156 1.278 . S
C160 O161 1.211 . S
O161 C160 1.211 . S
C162 O154 1.284 . S
C162 O163 1.273 . S
O163 C162 1.273 . S
O164 Zn155 1.977 . S
O164 C157 1.267 . S
C165 O166 1.160 . S
C165 O172 1.185 . S
O166 C165 1.160 . S
O167 Zn168 1.899 . S
O167 C175 1.284 . S
Zn168 O167 1.899 . S
Zn168 O169 2.032 . S
Zn168 O172 2.086 . S
Zn168 O177 1.977 . S
O169 Zn168 2.032 . S
O169 C173 1.278 . S
C170 O171 1.203 . S
C170 O177 1.267 . S
O171 C170 1.203 . S
O172 C165 1.185 . S
O172 Zn168 2.086 . S
C173 O169 1.278 . S
C173 O174 1.211 . S
O174 C173 1.211 . S
C175 O167 1.284 . S
C175 O176 1.273 . S
O176 C175 1.273 . S
O177 Zn168 1.977 . S
O177 C170 1.267 . S
C178 O179 1.160 . S
C178 O185 1.185 . S
O179 C178 1.160 . S
O180 Zn181 1.899 . S
O180 C188 1.284 . S
Zn181 O180 1.899 . S
Zn181 O182 2.032 . S
Zn181 O185 2.086 . S
Zn181 O190 1.977 . S
O182 Zn181 2.032 . S
O182 C186 1.278 . S
C183 O184 1.203 . S
C183 O190 1.267 . S
O184 C183 1.203 . S
O185 C178 1.185 . S
O185 Zn181 2.086 . S
C186 O182 1.278 . S
C186 O187 1.211 . S
O187 C186 1.211 . S
C188 O180 1.284 . S
C188 O189 1.273 . S
O189 C188 1.273 . S
O190 Zn181 1.977 . S
O190 C183 1.267 . S
C191 O192 1.160 . S
C191 O198 1.185 . S
O192 C191 1.160 . S
O193 Zn194 1.899 . S
O193 C201 1.284 . S
Zn194 O193 1.899 . S
Zn194 O195 2.032 . S
Zn194 O198 2.086 . S
Zn194 O203 1.977 . S
O195 Zn194 2.032 . S
O195 C199 1.278 . S
C196 O197 1.203 . S
C196 O203 1.267 . S
O197 C196 1.203 . S
O198 C191 1.185 . S
O198 Zn194 2.086 . S
C199 O195 1.278 . S
C199 O200 1.211 . S
O200 C199 1.211 . S
C201 O193 1.284 . S
C201 O202 1.273 . S
O202 C201 1.273 . S
O203 Zn194 1.977 . S
O203 C196 1.267 . S
H204 C210 0.930 . S
H205 C214 0.930 . S
H206 C219 0.929 . S
H207 C217 0.929 . S
H208 C212 0.929 . S
H209 C218 0.929 . S
C210 H204 0.930 . S
C210 C211 1.367 . S
C210 C218 1.378 . S
C211 C210 1.367 . S
C211 C219 1.433 . S
C212 H208 0.929 . S
C212 C214 1.378 . S
C212 C216 1.350 . S
C213 C216 1.463 . S
C213 C218 1.350 . S
C213 N221 1.427 . S
C214 H205 0.930 . S
C214 C212 1.378 . S
C214 C215 1.367 . S
C215 C214 1.367 . S
C215 C217 1.433 . S
C216 C212 1.350 . S
C216 C213 1.463 . S
C216 N220 1.427 . S
C217 H207 0.929 . S
C217 C215 1.433 . S
C217 N220 1.384 . S
C218 H209 0.929 . S
C218 C210 1.378 . S
C218 C213 1.350 . S
C219 H206 0.929 . S
C219 C211 1.433 . S
C219 N221 1.384 . S
N220 C216 1.427 . S
N220 C217 1.384 . S
N221 C213 1.427 . S
N221 C219 1.384 . S
H222 C228 0.930 . S
H223 C232 0.930 . S
H224 C237 0.929 . S
H225 C235 0.929 . S
H226 C230 0.929 . S
H227 C236 0.929 . S
C228 H222 0.930 . S
C228 C229 1.367 . S
C228 C236 1.378 . S
C229 C228 1.367 . S
C229 C237 1.433 . S
C230 H226 0.929 . S
C230 C232 1.378 . S
C230 C234 1.350 . S
C231 C234 1.463 . S
C231 C236 1.350 . S
C231 N239 1.427 . S
C232 H223 0.930 . S
C232 C230 1.378 . S
C232 C233 1.367 . S
C233 C232 1.367 . S
C233 C235 1.433 . S
C234 C230 1.350 . S
C234 C231 1.463 . S
C234 N238 1.427 . S
C235 H225 0.929 . S
C235 C233 1.433 . S
C235 N238 1.384 . S
C236 H227 0.929 . S
C236 C228 1.378 . S
C236 C231 1.350 . S
C237 H224 0.929 . S
C237 C229 1.433 . S
C237 N239 1.384 . S
N238 C234 1.427 . S
N238 C235 1.384 . S
N239 C231 1.427 . S
N239 C237 1.384 . S
H240 C246 0.930 . S
H241 C250 0.930 . S
H242 C255 0.929 . S
H243 C253 0.929 . S
H244 C248 0.929 . S
H245 C254 0.929 . S
C246 H240 0.930 . S
C246 C247 1.367 . S
C246 C254 1.378 . S
C247 C246 1.367 . S
C247 C255 1.433 . S
C248 H244 0.929 . S
C248 C250 1.378 . S
C248 C252 1.350 . S
C249 C252 1.463 . S
C249 C254 1.350 . S
C249 N257 1.427 . S
C250 H241 0.930 . S
C250 C248 1.378 . S
C250 C251 1.367 . S
C251 C250 1.367 . S
C251 C253 1.433 . S
C252 C248 1.350 . S
C252 C249 1.463 . S
C252 N256 1.427 . S
C253 H243 0.929 . S
C253 C251 1.433 . S
C253 N256 1.384 . S
C254 H245 0.929 . S
C254 C246 1.378 . S
C254 C249 1.350 . S
C255 H242 0.929 . S
C255 C247 1.433 . S
C255 N257 1.384 . S
N256 C252 1.427 . S
N256 C253 1.384 . S
N257 C249 1.427 . S
N257 C255 1.384 . S
H258 C264 0.930 . S
H259 C268 0.930 . S
H260 C273 0.929 . S
H261 C271 0.929 . S
H262 C266 0.929 . S
H263 C272 0.929 . S
C264 H258 0.930 . S
C264 C265 1.367 . S
C264 C272 1.378 . S
C265 C264 1.367 . S
C265 C273 1.433 . S
C266 H262 0.929 . S
C266 C268 1.378 . S
C266 C270 1.350 . S
C267 C270 1.463 . S
C267 C272 1.350 . S
C267 N275 1.427 . S
C268 H259 0.930 . S
C268 C266 1.378 . S
C268 C269 1.367 . S
C269 C268 1.367 . S
C269 C271 1.433 . S
C270 C266 1.350 . S
C270 C267 1.463 . S
C270 N274 1.427 . S
C271 H261 0.929 . S
C271 C269 1.433 . S
C271 N274 1.384 . S
C272 H263 0.929 . S
C272 C264 1.378 . S
C272 C267 1.350 . S
C273 H260 0.929 . S
C273 C265 1.433 . S
C273 N275 1.384 . S
N274 C270 1.427 . S
N274 C271 1.384 . S
N275 C267 1.427 . S
N275 C273 1.384 . S
H276 C282 0.930 1_554 S
H277 C286 0.930 . S
H278 C291 0.929 . S
H279 C289 0.929 . S
H280 C284 0.929 . S
H281 C290 0.929 . S
C282 H276 0.930 1_556 S
C282 C283 1.367 . S
C282 C290 1.378 . S
C283 C282 1.367 . S
C283 C291 1.433 . S
C284 H280 0.929 . S
C284 C286 1.378 . S
C284 C288 1.350 . S
C285 C288 1.463 . S
C285 C290 1.350 . S
C285 N293 1.427 . S
C286 H277 0.930 . S
C286 C284 1.378 . S
C286 C287 1.367 . S
C287 C286 1.367 . S
C287 C289 1.433 . S
C288 C284 1.350 . S
C288 C285 1.463 . S
C288 N292 1.427 . S
C289 H279 0.929 . S
C289 C287 1.433 . S
C289 N292 1.384 . S
C290 H281 0.929 . S
C290 C282 1.378 . S
C290 C285 1.350 . S
C291 H278 0.929 . S
C291 C283 1.433 . S
C291 N293 1.384 . S
N292 C288 1.427 . S
N292 C289 1.384 . S
N293 C285 1.427 . S
N293 C291 1.384 . S
H294 C300 0.930 . S
H295 C304 0.930 . S
H296 C309 0.929 . S
H297 C307 0.929 . S
H298 C302 0.929 . S
H299 C308 0.929 . S
C300 H294 0.930 . S
C300 C301 1.367 . S
C300 C308 1.378 . S
C301 C300 1.367 . S
C301 C309 1.433 . S
C302 H298 0.929 . S
C302 C304 1.378 . S
C302 C306 1.350 . S
C303 C306 1.463 . S
C303 C308 1.350 . S
C303 N311 1.427 . S
C304 H295 0.930 . S
C304 C302 1.378 . S
C304 C305 1.367 . S
C305 C304 1.367 . S
C305 C307 1.433 . S
C306 C302 1.350 . S
C306 C303 1.463 . S
C306 N310 1.427 . S
C307 H297 0.929 . S
C307 C305 1.433 . S
C307 N310 1.384 . S
C308 H299 0.929 . S
C308 C300 1.378 . S
C308 C303 1.350 . S
C309 H296 0.929 . S
C309 C301 1.433 . S
C309 N311 1.384 . S
N310 C306 1.427 . S
N310 C307 1.384 . S
N311 C303 1.427 . S
N311 C309 1.384 . S
H312 C318 0.930 . S
H313 C322 0.930 . S
H314 C327 0.929 . S
H315 C325 0.929 . S
H316 C320 0.929 . S
H317 C326 0.929 . S
C318 H312 0.930 . S
C318 C319 1.367 . S
C318 C326 1.378 . S
C319 C318 1.367 . S
C319 C327 1.433 . S
C320 H316 0.929 . S
C320 C322 1.378 . S
C320 C324 1.350 . S
C321 C324 1.463 . S
C321 C326 1.350 . S
C321 N329 1.427 . S
C322 H313 0.930 . S
C322 C320 1.378 . S
C322 C323 1.367 . S
C323 C322 1.367 . S
C323 C325 1.433 . S
C324 C320 1.350 . S
C324 C321 1.463 . S
C324 N328 1.427 . S
C325 H315 0.929 . S
C325 C323 1.433 . S
C325 N328 1.384 . S
C326 H317 0.929 . S
C326 C318 1.378 . S
C326 C321 1.350 . S
C327 H314 0.929 . S
C327 C319 1.433 . S
C327 N329 1.384 . S
N328 C324 1.427 . S
N328 C325 1.384 . S
N329 C321 1.427 . S
N329 C327 1.384 . S
H330 C336 0.930 . S
H331 C340 0.930 . S
H332 C345 0.929 . S
H333 C343 0.929 . S
H334 C338 0.929 . S
H335 C344 0.929 . S
C336 H330 0.930 . S
C336 C337 1.367 . S
C336 C344 1.378 . S
C337 C336 1.367 . S
C337 C345 1.433 . S
C338 H334 0.929 . S
C338 C340 1.378 . S
C338 C342 1.350 . S
C339 C342 1.463 . S
C339 C344 1.350 . S
C339 N347 1.427 . S
C340 H331 0.930 . S
C340 C338 1.378 . S
C340 C341 1.367 . S
C341 C340 1.367 . S
C341 C343 1.433 . S
C342 C338 1.350 . S
C342 C339 1.463 . S
C342 N346 1.427 . S
C343 H333 0.929 . S
C343 C341 1.433 . S
C343 N346 1.384 . S
C344 H335 0.929 . S
C344 C336 1.378 . S
C344 C339 1.350 . S
C345 H332 0.929 . S
C345 C337 1.433 . S
C345 N347 1.384 . S
N346 C342 1.427 . S
N346 C343 1.384 . S
N347 C339 1.427 . S
N347 C345 1.384 . S
H348 C354 0.930 . S
H349 C358 0.930 . S
H350 C363 0.929 . S
H351 C361 0.929 . S
H352 C356 0.929 . S
H353 C362 0.929 . S
C354 H348 0.930 . S
C354 C355 1.367 . S
C354 C362 1.378 . S
C355 C354 1.367 . S
C355 C363 1.433 . S
C356 H352 0.929 . S
C356 C358 1.378 . S
C356 C360 1.350 . S
C357 C360 1.463 . S
C357 C362 1.350 . S
C357 N365 1.427 . S
C358 H349 0.930 . S
C358 C356 1.378 . S
C358 C359 1.367 . S
C359 C358 1.367 . S
C359 C361 1.433 . S
C360 C356 1.350 . S
C360 C357 1.463 . S
C360 N364 1.427 . S
C361 H351 0.929 . S
C361 C359 1.433 . S
C361 N364 1.384 . S
C362 H353 0.929 . S
C362 C354 1.378 . S
C362 C357 1.350 . S
C363 H350 0.929 . S
C363 C355 1.433 . S
C363 N365 1.384 . S
N364 C360 1.427 . S
N364 C361 1.384 . S
N365 C357 1.427 . S
N365 C363 1.384 . S
H366 C372 0.930 . S
H367 C376 0.930 . S
H368 C381 0.929 . S
H369 C379 0.929 . S
H370 C374 0.929 . S
H371 C380 0.929 . S
C372 H366 0.930 . S
C372 C373 1.367 . S
C372 C380 1.378 . S
C373 C372 1.367 . S
C373 C381 1.433 1_554 S
C374 H370 0.929 . S
C374 C376 1.378 . S
C374 C378 1.350 . S
C375 C378 1.463 . S
C375 C380 1.350 . S
C375 N383 1.427 . S
C376 H367 0.930 . S
C376 C374 1.378 . S
C376 C377 1.367 . S
C377 C376 1.367 . S
C377 C379 1.433 . S
C378 C374 1.350 . S
C378 C375 1.463 . S
C378 N382 1.427 . S
C379 H369 0.929 . S
C379 C377 1.433 . S
C379 N382 1.384 . S
C380 H371 0.929 . S
C380 C372 1.378 . S
C380 C375 1.350 . S
C381 H368 0.929 . S
C381 C373 1.433 1_556 S
C381 N383 1.384 1_556 S
N382 C378 1.427 . S
N382 C379 1.384 . S
N383 C375 1.427 . S
N383 C381 1.384 1_554 S
H384 C390 0.930 . S
H385 C394 0.930 . S
H386 C399 0.929 . S
H387 C397 0.929 . S
H388 C392 0.929 . S
H389 C398 0.929 . S
C390 H384 0.930 . S
C390 C391 1.367 . S
C390 C398 1.378 . S
C391 C390 1.367 . S
C391 C399 1.433 . S
C392 H388 0.929 . S
C392 C394 1.378 . S
C392 C396 1.350 . S
C393 C396 1.463 . S
C393 C398 1.350 . S
C393 N401 1.427 . S
C394 H385 0.930 . S
C394 C392 1.378 . S
C394 C395 1.367 . S
C395 C394 1.367 . S
C395 C397 1.433 . S
C396 C392 1.350 . S
C396 C393 1.463 . S
C396 N400 1.427 . S
C397 H387 0.929 . S
C397 C395 1.433 . S
C397 N400 1.384 . S
C398 H389 0.929 . S
C398 C390 1.378 . S
C398 C393 1.350 . S
C399 H386 0.929 . S
C399 C391 1.433 . S
C399 N401 1.384 . S
N400 C396 1.427 . S
N400 C397 1.384 . S
N401 C393 1.427 . S
N401 C399 1.384 . S
H402 C408 0.930 . S
H403 C412 0.930 . S
H404 C417 0.929 . S
H405 C415 0.929 . S
H406 C410 0.929 . S
H407 C416 0.929 . S
C408 H402 0.930 . S
C408 C409 1.367 . S
C408 C416 1.378 . S
C409 C408 1.367 . S
C409 C417 1.433 . S
C410 H406 0.929 . S
C410 C412 1.378 . S
C410 C414 1.350 . S
C411 C414 1.463 . S
C411 C416 1.350 . S
C411 N419 1.427 . S
C412 H403 0.930 . S
C412 C410 1.378 . S
C412 C413 1.367 . S
C413 C412 1.367 . S
C413 C415 1.433 . S
C414 C410 1.350 . S
C414 C411 1.463 . S
C414 N418 1.427 . S
C415 H405 0.929 . S
C415 C413 1.433 . S
C415 N418 1.384 . S
C416 H407 0.929 . S
C416 C408 1.378 . S
C416 C411 1.350 . S
C417 H404 0.929 . S
C417 C409 1.433 . S
C417 N419 1.384 . S
N418 C414 1.427 . S
N418 C415 1.384 . S
N419 C411 1.427 . S
N419 C417 1.384 . S
H420 C426 0.930 . S
H421 C430 0.930 . S
H422 C435 0.929 . S
H423 C433 0.929 . S
H424 C428 0.929 . S
H425 C434 0.929 . S
C426 H420 0.930 . S
C426 C427 1.367 . S
C426 C434 1.378 . S
C427 C426 1.367 . S
C427 C435 1.433 . S
C428 H424 0.929 . S
C428 C430 1.378 . S
C428 C432 1.350 . S
C429 C432 1.463 . S
C429 C434 1.350 . S
C429 N437 1.427 . S
C430 H421 0.930 . S
C430 C428 1.378 . S
C430 C431 1.367 . S
C431 C430 1.367 . S
C431 C433 1.433 . S
C432 C428 1.350 . S
C432 C429 1.463 . S
C432 N436 1.427 . S
C433 H423 0.929 . S
C433 C431 1.433 . S
C433 N436 1.384 . S
C434 H425 0.929 . S
C434 C426 1.378 . S
C434 C429 1.350 . S
C435 H422 0.929 . S
C435 C427 1.433 . S
C435 N437 1.384 . S
N436 C432 1.427 . S
N436 C433 1.384 . S
N437 C429 1.427 . S
N437 C435 1.384 . S
H438 C444 0.930 . S
H439 C448 0.930 . S
H440 C453 0.929 . S
H441 C451 0.929 . S
H442 C446 0.929 . S
H443 C452 0.929 . S
C444 H438 0.930 . S
C444 C445 1.367 . S
C444 C452 1.378 . S
C445 C444 1.367 . S
C445 C453 1.433 . S
C446 H442 0.929 . S
C446 C448 1.378 . S
C446 C450 1.350 . S
C447 C450 1.463 . S
C447 C452 1.350 . S
C447 N455 1.427 . S
C448 H439 0.930 . S
C448 C446 1.378 . S
C448 C449 1.367 . S
C449 C448 1.367 . S
C449 C451 1.433 . S
C450 C446 1.350 . S
C450 C447 1.463 . S
C450 N454 1.427 . S
C451 H441 0.929 . S
C451 C449 1.433 . S
C451 N454 1.384 . S
C452 H443 0.929 . S
C452 C444 1.378 . S
C452 C447 1.350 . S
C453 H440 0.929 . S
C453 C445 1.433 . S
C453 N455 1.384 . S
N454 C450 1.427 . S
N454 C451 1.384 . S
N455 C447 1.427 . S
N455 C453 1.384 . S
H456 C462 0.930 . S
H457 C466 0.930 . S
H458 C471 0.929 . S
H459 C469 0.929 . S
H460 C464 0.929 . S
H461 C470 0.929 . S
C462 H456 0.930 . S
C462 C463 1.367 . S
C462 C470 1.378 . S
C463 C462 1.367 . S
C463 C471 1.433 . S
C464 H460 0.929 . S
C464 C466 1.378 . S
C464 C468 1.350 . S
C465 C468 1.463 . S
C465 C470 1.350 . S
C465 N473 1.427 . S
C466 H457 0.930 . S
C466 C464 1.378 . S
C466 C467 1.367 . S
C467 C466 1.367 . S
C467 C469 1.433 . S
C468 C464 1.350 . S
C468 C465 1.463 . S
C468 N472 1.427 . S
C469 H459 0.929 . S
C469 C467 1.433 . S
C469 N472 1.384 . S
C470 H461 0.929 . S
C470 C462 1.378 . S
C470 C465 1.350 . S
C471 H458 0.929 . S
C471 C463 1.433 . S
C471 N473 1.384 . S
N472 C468 1.427 . S
N472 C469 1.384 . S
N473 C465 1.427 . S
N473 C471 1.384 . S
H474 C480 0.930 . S
H475 C484 0.930 . S
H476 C489 0.929 . S
H477 C487 0.928 . S
H478 C482 0.929 . S
H479 C488 0.929 . S
C480 H474 0.930 . S
C480 C481 1.367 . S
C480 C488 1.378 . S
C481 C480 1.367 . S
C481 C489 1.433 . S
C482 H478 0.929 . S
C482 C484 1.378 . S
C482 C486 1.350 . S
C483 C486 1.463 . S
C483 C488 1.350 . S
C483 N491 1.427 . S
C484 H475 0.930 . S
C484 C482 1.378 . S
C484 C485 1.367 . S
C485 C484 1.367 . S
C485 C487 1.433 . S
C486 C482 1.350 . S
C486 C483 1.463 . S
C486 N490 1.427 . S
C487 H477 0.928 . S
C487 C485 1.433 . S
C487 N490 1.384 . S
C488 H479 0.929 . S
C488 C480 1.378 . S
C488 C483 1.350 . S
C489 H476 0.929 . S
C489 C481 1.433 . S
C489 N491 1.384 . S
N490 C486 1.427 . S
N490 C487 1.384 . S
N491 C483 1.427 . S
N491 C489 1.384 . S
H492 C498 0.930 . S
H493 C502 0.930 . S
H494 C507 0.929 . S
H495 C505 0.929 . S
H496 C500 0.929 . S
H497 C506 0.929 . S
C498 H492 0.930 . S
C498 C499 1.367 . S
C498 C506 1.378 . S
C499 C498 1.367 . S
C499 C507 1.433 . S
C500 H496 0.929 . S
C500 C502 1.378 . S
C500 C504 1.350 . S
C501 C504 1.463 . S
C501 C506 1.350 . S
C501 N509 1.427 . S
C502 H493 0.930 . S
C502 C500 1.378 . S
C502 C503 1.367 . S
C503 C502 1.367 . S
C503 C505 1.433 . S
C504 C500 1.350 . S
C504 C501 1.463 . S
C504 N508 1.427 . S
C505 H495 0.929 . S
C505 C503 1.433 . S
C505 N508 1.384 . S
C506 H497 0.929 . S
C506 C498 1.378 . S
C506 C501 1.350 . S
C507 H494 0.929 . S
C507 C499 1.433 . S
C507 N509 1.384 . S
N508 C504 1.427 . S
N508 C505 1.384 . S
N509 C501 1.427 . S
N509 C507 1.384 . S
H510 C516 0.930 . S
H511 C520 0.930 . S
H512 C525 0.929 . S
H513 C523 0.929 . S
H514 C518 0.929 . S
H515 C524 0.929 . S
C516 H510 0.930 . S
C516 C517 1.367 . S
C516 C524 1.378 . S
C517 C516 1.367 . S
C517 C525 1.433 . S
C518 H514 0.929 . S
C518 C520 1.378 . S
C518 C522 1.350 . S
C519 C522 1.463 . S
C519 C524 1.350 . S
C519 N527 1.427 . S
C520 H511 0.930 . S
C520 C518 1.378 . S
C520 C521 1.367 . S
C521 C520 1.367 . S
C521 C523 1.433 . S
C522 C518 1.350 . S
C522 C519 1.463 . S
C522 N526 1.427 . S
C523 H513 0.929 . S
C523 C521 1.433 . S
C523 N526 1.384 . S
C524 H515 0.929 . S
C524 C516 1.378 . S
C524 C519 1.350 . S
C525 H512 0.929 . S
C525 C517 1.433 . S
C525 N527 1.384 . S
N526 C522 1.427 . S
N526 C523 1.384 . S
N527 C519 1.427 . S
N527 C525 1.384 . S
H528 C534 0.930 . S
H529 C538 0.930 . S
H530 C543 0.929 . S
H531 C541 0.929 . S
H532 C536 0.929 . S
H533 C542 0.929 . S
C534 H528 0.930 . S
C534 C535 1.367 . S
C534 C542 1.378 . S
C535 C534 1.367 . S
C535 C543 1.433 . S
C536 H532 0.929 . S
C536 C538 1.378 . S
C536 C540 1.350 . S
C537 C540 1.463 . S
C537 C542 1.350 . S
C537 N545 1.427 . S
C538 H529 0.930 . S
C538 C536 1.378 . S
C538 C539 1.367 . S
C539 C538 1.367 . S
C539 C541 1.433 . S
C540 C536 1.350 . S
C540 C537 1.463 . S
C540 N544 1.427 . S
C541 H531 0.929 . S
C541 C539 1.433 . S
C541 N544 1.384 . S
C542 H533 0.929 . S
C542 C534 1.378 . S
C542 C537 1.350 . S
C543 H530 0.929 . S
C543 C535 1.433 . S
C543 N545 1.384 . S
N544 C540 1.427 . S
N544 C541 1.384 . S
N545 C537 1.427 . S
N545 C543 1.384 . S
H546 C552 0.930 . S
H547 C556 0.930 . S
H548 C561 0.929 . S
H549 C559 0.929 . S
H550 C554 0.929 . S
H551 C560 0.929 . S
C552 H546 0.930 . S
C552 C553 1.367 . S
C552 C560 1.378 . S
C553 C552 1.367 . S
C553 C561 1.433 . S
C554 H550 0.929 . S
C554 C556 1.378 . S
C554 C558 1.350 . S
C555 C558 1.463 . S
C555 C560 1.350 . S
C555 N563 1.427 . S
C556 H547 0.930 . S
C556 C554 1.378 . S
C556 C557 1.367 . S
C557 C556 1.367 . S
C557 C559 1.433 . S
C558 C554 1.350 . S
C558 C555 1.463 . S
C558 N562 1.427 . S
C559 H549 0.929 . S
C559 C557 1.433 . S
C559 N562 1.384 . S
C560 H551 0.929 . S
C560 C552 1.378 . S
C560 C555 1.350 . S
C561 H548 0.929 . S
C561 C553 1.433 . S
C561 N563 1.384 . S
N562 C558 1.427 . S
N562 C559 1.384 . S
N563 C555 1.427 . S
N563 C561 1.384 . S
H564 C570 0.930 . S
H565 C574 0.930 . S
H566 C579 0.929 . S
H567 C577 0.929 . S
H568 C572 0.929 . S
H569 C578 0.929 . S
C570 H564 0.930 . S
C570 C571 1.367 . S
C570 C578 1.378 . S
C571 C570 1.367 . S
C571 C579 1.433 . S
C572 H568 0.929 . S
C572 C574 1.378 . S
C572 C576 1.350 . S
C573 C576 1.463 . S
C573 C578 1.350 . S
C573 N581 1.427 . S
C574 H565 0.930 . S
C574 C572 1.378 . S
C574 C575 1.367 . S
C575 C574 1.367 . S
C575 C577 1.433 . S
C576 C572 1.350 . S
C576 C573 1.463 . S
C576 N580 1.427 . S
C577 H567 0.929 . S
C577 C575 1.433 . S
C577 N580 1.384 . S
C578 H569 0.929 . S
C578 C570 1.378 . S
C578 C573 1.350 . S
C579 H566 0.929 . S
C579 C571 1.433 . S
C579 N581 1.384 . S
N580 C576 1.427 . S
N580 C577 1.384 . S
N581 C573 1.427 . S
N581 C579 1.384 . S
H582 C588 0.930 . S
H583 C592 0.930 . S
H584 C597 0.929 . S
H585 C595 0.929 . S
H586 C590 0.929 . S
H587 C596 0.929 . S
C588 H582 0.930 . S
C588 C589 1.367 . S
C588 C596 1.378 . S
C589 C588 1.367 . S
C589 C597 1.433 . S
C590 H586 0.929 . S
C590 C592 1.378 . S
C590 C594 1.350 . S
C591 C594 1.463 . S
C591 C596 1.350 . S
C591 N599 1.427 . S
C592 H583 0.930 . S
C592 C590 1.378 . S
C592 C593 1.367 . S
C593 C592 1.367 . S
C593 C595 1.433 . S
C594 C590 1.350 . S
C594 C591 1.463 . S
C594 N598 1.427 . S
C595 H585 0.929 . S
C595 C593 1.433 . S
C595 N598 1.384 . S
C596 H587 0.929 . S
C596 C588 1.378 . S
C596 C591 1.350 . S
C597 H584 0.929 . S
C597 C589 1.433 . S
C597 N599 1.384 . S
N598 C594 1.427 . S
N598 C595 1.384 . S
N599 C591 1.427 . S
N599 C597 1.384 . S
H600 C606 0.930 . S
H601 C610 0.930 . S
H602 C615 0.929 . S
H603 C613 0.929 . S
H604 C608 0.929 . S
H605 C614 0.929 . S
C606 H600 0.930 . S
C606 C607 1.367 . S
C606 C614 1.378 . S
C607 C606 1.367 . S
C607 C615 1.433 . S
C608 H604 0.929 . S
C608 C610 1.378 . S
C608 C612 1.350 1_556 S
C609 C612 1.463 . S
C609 C614 1.350 . S
C609 N617 1.427 . S
C610 H601 0.930 . S
C610 C608 1.378 . S
C610 C611 1.367 . S
C611 C610 1.367 . S
C611 C613 1.433 . S
C612 C608 1.350 1_554 S
C612 C609 1.463 . S
C612 N616 1.427 . S
C613 H603 0.929 . S
C613 C611 1.433 . S
C613 N616 1.384 1_556 S
C614 H605 0.929 . S
C614 C606 1.378 . S
C614 C609 1.350 . S
C615 H602 0.929 . S
C615 C607 1.433 . S
C615 N617 1.384 . S
N616 C612 1.427 . S
N616 C613 1.384 1_554 S
N617 C609 1.427 . S
N617 C615 1.384 . S
H618 C624 0.930 . S
H619 C628 0.930 . S
H620 C633 0.929 . S
H621 C631 0.929 . S
H622 C626 0.929 . S
H623 C632 0.929 . S
C624 H618 0.930 . S
C624 C625 1.367 . S
C624 C632 1.378 . S
C625 C624 1.367 . S
C625 C633 1.433 . S
C626 H622 0.929 . S
C626 C628 1.378 . S
C626 C630 1.350 . S
C627 C630 1.463 . S
C627 C632 1.350 . S
C627 N635 1.427 . S
C628 H619 0.930 . S
C628 C626 1.378 . S
C628 C629 1.367 . S
C629 C628 1.367 . S
C629 C631 1.433 . S
C630 C626 1.350 . S
C630 C627 1.463 . S
C630 N634 1.427 . S
C631 H621 0.929 . S
C631 C629 1.433 . S
C631 N634 1.384 . S
C632 H623 0.929 . S
C632 C624 1.378 . S
C632 C627 1.350 . S
C633 H620 0.929 . S
C633 C625 1.433 . S
C633 N635 1.384 . S
N634 C630 1.427 . S
N634 C631 1.384 . S
N635 C627 1.427 . S
N635 C633 1.384 . S
C215 C201 1.566 . S
C211 C19 1.483 . S
C229 C40 1.452 . S
C233 C126 1.494 . S
C247 C51 1.460 . S
C251 C149 1.589 . S
C265 C72 1.385 . S
C269 C162 1.481 . S
C287 C165 1.517 . S
C283 C103 1.473 . S
C301 C114 1.388 . S
C305 C178 1.456 . S
C319 C30 1.392 . S
C323 C139 1.462 . S
C337 C61 1.482 . S
C341 C152 1.523 . S
C355 C82 1.412 . S
C359 C175 1.479 . S
C377 C188 1.583 . S
C373 C93 1.465 1_554 S
C395 C191 1.493 . S
C391 C124 1.452 . S
C413 C136 1.571 . S
C409 C9 1.473 . S
C427 C17 1.431 . S
C431 C147 1.472 . S
C445 C38 1.416 . S
C449 C160 1.454 . S
C467 C170 1.480 . S
C463 C54 1.418 . S
C481 C75 1.413 . S
C485 C183 1.465 1_556 S
C503 C199 1.488 . S
C499 C101 1.448 . S
C521 C131 1.442 . S
C517 C117 1.400 . S
C539 C196 1.446 . S
C535 C33 1.380 . S
C553 C59 1.442 . S
C557 C134 1.480 . S
C575 C144 1.460 . S
C571 C80 1.412 . S
C589 C96 1.412 . S
C593 C157 1.478 . S
C607 C122 1.398 . S
C611 C173 1.447 . S
C625 C12 1.427 . S
C629 C186 1.464 . S
