# Generated by pormake.
# Topology eea, (3,6)-cn, num edge types: 1
# Building blocks:
#     Node 0, Type 0, BuildingBlock: PAMTOO_clean_linker_0, # of connection points: 3
#     Node 1, Type 0, BuildingBlock: PAMTOO_clean_linker_0, # of connection points: 3
#     Node 2, Type 0, BuildingBlock: PAMTOO_clean_linker_0, # of connection points: 3
#     Node 3, Type 0, BuildingBlock: PAMTOO_clean_linker_0, # of connection points: 3
#     Node 4, Type 0, BuildingBlock: PAMTOO_clean_linker_0, # of connection points: 3
#     Node 5, Type 0, BuildingBlock: PAMTOO_clean_linker_0, # of connection points: 3
#     Node 6, Type 0, BuildingBlock: PAMTOO_clean_linker_0, # of connection points: 3
#     Node 7, Type 0, BuildingBlock: PAMTOO_clean_linker_0, # of connection points: 3
#     Node 8, Type 0, BuildingBlock: PAMTOO_clean_linker_0, # of connection points: 3
#     Node 9, Type 0, BuildingBlock: PAMTOO_clean_linker_0, # of connection points: 3
#     Node 10, Type 0, BuildingBlock: PAMTOO_clean_linker_0, # of connection points: 3
#     Node 11, Type 0, BuildingBlock: PAMTOO_clean_linker_0, # of connection points: 3
#     Node 12, Type 0, BuildingBlock: PAMTOO_clean_linker_0, # of connection points: 3
#     Node 13, Type 0, BuildingBlock: PAMTOO_clean_linker_0, # of connection points: 3
#     Node 14, Type 0, BuildingBlock: PAMTOO_clean_linker_0, # of connection points: 3
#     Node 15, Type 0, BuildingBlock: PAMTOO_clean_linker_0, # of connection points: 3
#     Node 16, Type 0, BuildingBlock: PAMTOO_clean_linker_0, # of connection points: 3
#     Node 17, Type 0, BuildingBlock: PAMTOO_clean_linker_0, # of connection points: 3
#     Node 18, Type 1, BuildingBlock: KUMBOL_clean_sbu_0, # of connection points: 6
#     Node 19, Type 1, BuildingBlock: KUMBOL_clean_sbu_0, # of connection points: 6
#     Node 20, Type 1, BuildingBlock: KUMBOL_clean_sbu_0, # of connection points: 6
#     Node 21, Type 1, BuildingBlock: KUMBOL_clean_sbu_0, # of connection points: 6
#     Node 22, Type 1, BuildingBlock: KUMBOL_clean_sbu_0, # of connection points: 6
#     Node 23, Type 1, BuildingBlock: KUMBOL_clean_sbu_0, # of connection points: 6
#     Node 24, Type 1, BuildingBlock: KUMBOL_clean_sbu_0, # of connection points: 6
#     Node 25, Type 1, BuildingBlock: KUMBOL_clean_sbu_0, # of connection points: 6
#     Node 26, Type 1, BuildingBlock: KUMBOL_clean_sbu_0, # of connection points: 6
#     Edge 27, Type (0, 1), BuildingBlock: ZUJKAS_clean_linker_0, # of connection points: 2
#     Edge 28, Type (0, 1), BuildingBlock: ZUJKAS_clean_linker_0, # of connection points: 2
#     Edge 29, Type (0, 1), BuildingBlock: ZUJKAS_clean_linker_0, # of connection points: 2
#     Edge 30, Type (0, 1), BuildingBlock: ZUJKAS_clean_linker_0, # of connection points: 2
#     Edge 31, Type (0, 1), BuildingBlock: ZUJKAS_clean_linker_0, # of connection points: 2
#     Edge 32, Type (0, 1), BuildingBlock: ZUJKAS_clean_linker_0, # of connection points: 2
#     Edge 33, Type (0, 1), BuildingBlock: ZUJKAS_clean_linker_0, # of connection points: 2
#     Edge 34, Type (0, 1), BuildingBlock: ZUJKAS_clean_linker_0, # of connection points: 2
#     Edge 35, Type (0, 1), BuildingBlock: ZUJKAS_clean_linker_0, # of connection points: 2
#     Edge 36, Type (0, 1), BuildingBlock: ZUJKAS_clean_linker_0, # of connection points: 2
#     Edge 37, Type (0, 1), BuildingBlock: ZUJKAS_clean_linker_0, # of connection points: 2
#     Edge 38, Type (0, 1), BuildingBlock: ZUJKAS_clean_linker_0, # of connection points: 2
#     Edge 39, Type (0, 1), BuildingBlock: ZUJKAS_clean_linker_0, # of connection points: 2
#     Edge 40, Type (0, 1), BuildingBlock: ZUJKAS_clean_linker_0, # of connection points: 2
#     Edge 41, Type (0, 1), BuildingBlock: ZUJKAS_clean_linker_0, # of connection points: 2
#     Edge 42, Type (0, 1), BuildingBlock: ZUJKAS_clean_linker_0, # of connection points: 2
#     Edge 43, Type (0, 1), BuildingBlock: ZUJKAS_clean_linker_0, # of connection points: 2
#     Edge 44, Type (0, 1), BuildingBlock: ZUJKAS_clean_linker_0, # of connection points: 2
#     Edge 45, Type (0, 1), BuildingBlock: ZUJKAS_clean_linker_0, # of connection points: 2
#     Edge 46, Type (0, 1), BuildingBlock: ZUJKAS_clean_linker_0, # of connection points: 2
#     Edge 47, Type (0, 1), BuildingBlock: ZUJKAS_clean_linker_0, # of connection points: 2
#     Edge 48, Type (0, 1), BuildingBlock: ZUJKAS_clean_linker_0, # of connection points: 2
#     Edge 49, Type (0, 1), BuildingBlock: ZUJKAS_clean_linker_0, # of connection points: 2
#     Edge 50, Type (0, 1), BuildingBlock: ZUJKAS_clean_linker_0, # of connection points: 2
#     Edge 51, Type (0, 1), BuildingBlock: ZUJKAS_clean_linker_0, # of connection points: 2
#     Edge 52, Type (0, 1), BuildingBlock: ZUJKAS_clean_linker_0, # of connection points: 2
#     Edge 53, Type (0, 1), BuildingBlock: ZUJKAS_clean_linker_0, # of connection points: 2
#     Edge 54, Type (0, 1), BuildingBlock: ZUJKAS_clean_linker_0, # of connection points: 2
#     Edge 55, Type (0, 1), BuildingBlock: ZUJKAS_clean_linker_0, # of connection points: 2
#     Edge 56, Type (0, 1), BuildingBlock: ZUJKAS_clean_linker_0, # of connection points: 2
#     Edge 57, Type (0, 1), BuildingBlock: ZUJKAS_clean_linker_0, # of connection points: 2
#     Edge 58, Type (0, 1), BuildingBlock: ZUJKAS_clean_linker_0, # of connection points: 2
#     Edge 59, Type (0, 1), BuildingBlock: ZUJKAS_clean_linker_0, # of connection points: 2
#     Edge 60, Type (0, 1), BuildingBlock: ZUJKAS_clean_linker_0, # of connection points: 2
#     Edge 61, Type (0, 1), BuildingBlock: ZUJKAS_clean_linker_0, # of connection points: 2
#     Edge 62, Type (0, 1), BuildingBlock: ZUJKAS_clean_linker_0, # of connection points: 2
#     Edge 63, Type (0, 1), BuildingBlock: ZUJKAS_clean_linker_0, # of connection points: 2
#     Edge 64, Type (0, 1), BuildingBlock: ZUJKAS_clean_linker_0, # of connection points: 2
#     Edge 65, Type (0, 1), BuildingBlock: ZUJKAS_clean_linker_0, # of connection points: 2
#     Edge 66, Type (0, 1), BuildingBlock: ZUJKAS_clean_linker_0, # of connection points: 2
#     Edge 67, Type (0, 1), BuildingBlock: ZUJKAS_clean_linker_0, # of connection points: 2
#     Edge 68, Type (0, 1), BuildingBlock: ZUJKAS_clean_linker_0, # of connection points: 2
#     Edge 69, Type (0, 1), BuildingBlock: ZUJKAS_clean_linker_0, # of connection points: 2
#     Edge 70, Type (0, 1), BuildingBlock: ZUJKAS_clean_linker_0, # of connection points: 2
#     Edge 71, Type (0, 1), BuildingBlock: ZUJKAS_clean_linker_0, # of connection points: 2
#     Edge 72, Type (0, 1), BuildingBlock: ZUJKAS_clean_linker_0, # of connection points: 2
#     Edge 73, Type (0, 1), BuildingBlock: ZUJKAS_clean_linker_0, # of connection points: 2
#     Edge 74, Type (0, 1), BuildingBlock: ZUJKAS_clean_linker_0, # of connection points: 2
#     Edge 75, Type (0, 1), BuildingBlock: ZUJKAS_clean_linker_0, # of connection points: 2
#     Edge 76, Type (0, 1), BuildingBlock: ZUJKAS_clean_linker_0, # of connection points: 2
#     Edge 77, Type (0, 1), BuildingBlock: ZUJKAS_clean_linker_0, # of connection points: 2
#     Edge 78, Type (0, 1), BuildingBlock: ZUJKAS_clean_linker_0, # of connection points: 2
#     Edge 79, Type (0, 1), BuildingBlock: ZUJKAS_clean_linker_0, # of connection points: 2
#     Edge 80, Type (0, 1), BuildingBlock: ZUJKAS_clean_linker_0, # of connection points: 2
# Relax obj value: 0.022
# Max RMSD: 0.153
# Mean RMSD: 0.113
data_MOF--net-eea--node1-KUMBOL_clean_sbu_0--node2-PAMTOO_clean_linker_0--edge1-ZUJKAS_clean_linker_0
_symmetry_space_group_name_H-M    P1
_symmetry_Int_Tables_number       1
_symmetry_cell_setting            triclinic
loop_
_symmetry_equiv_pos_as_xyz
'x, y, z'
_cell_length_a     71.186637
_cell_length_b     72.802759
_cell_length_c     82.353081
_cell_angle_alpha  90.148547
_cell_angle_beta   90.120295
_cell_angle_gamma 120.00175
loop_
_atom_site_label
_atom_site_type_symbol
_atom_site_fract_x
_atom_site_fract_y
_atom_site_fract_z
_atom_type_partial_charge
H0 H 0.23839 0.08179 0.43361 0.0
H1 H 0.2387 0.14101 0.43061 0.0
H2 H 0.21042 0.09541 0.39217 0.0
H3 H 0.23292 0.13824 0.37984 0.0
C4 C 0.23347 0.14699 0.3911 0.0
O5 O 0.21941 0.1329 0.4024 0.0
H6 H 0.25044 0.15498 0.39581 0.0
C7 C 0.23428 0.09229 0.42721 0.0
C8 C 0.22382 0.08608 0.41203 0.0
C9 C 0.23968 0.11202 0.43415 0.0
C10 C 0.2344 0.12558 0.42569 0.0
C11 C 0.22403 0.11957 0.41056 0.0
C12 C 0.21862 0.09986 0.40382 0.0
H13 H 0.93862 0.15878 0.43145 0.0
H14 H 0.88341 0.09559 0.42846 0.0
H15 H 0.92823 0.1202 0.38891 0.0
H16 H 0.88378 0.092 0.37677 0.0
C17 C 0.87626 0.08523 0.3887 0.0
O18 O 0.89225 0.08768 0.39949 0.0
H19 H 0.86819 0.09409 0.393 0.0
C20 C 0.92915 0.14399 0.42489 0.0
C21 C 0.9359 0.1416 0.40936 0.0
C22 C 0.91026 0.12755 0.432 0.0
C23 C 0.89797 0.10855 0.42327 0.0
C24 C 0.90445 0.10597 0.40779 0.0
C25 C 0.92349 0.12235 0.40094 0.0
H26 H 0.86192 0.7863 0.43381 0.0
H27 H 0.92448 0.79088 0.43142 0.0
H28 H 0.9012 0.81104 0.39088 0.0
H29 H 0.92645 0.78967 0.38145 0.0
C30 C 0.93624 0.79278 0.39272 0.0
O31 O 0.93374 0.80712 0.40222 0.0
H32 H 0.93012 0.77751 0.39931 0.0
C33 C 0.8767 0.79061 0.42719 0.0
C34 C 0.87933 0.79885 0.41139 0.0
C35 C 0.89281 0.78764 0.43452 0.0
C36 C 0.91192 0.7931 0.42592 0.0
C37 C 0.91503 0.80164 0.41025 0.0
C38 C 0.89879 0.80462 0.40304 0.0
H39 H 0.08322 0.22789 0.59734 0.0
H40 H 0.13926 0.22002 0.59809 0.0
H41 H 0.09648 0.20045 0.63906 0.0
H42 H 0.14336 0.22015 0.64808 0.0
C43 C 0.14963 0.21749 0.63648 0.0
O44 O 0.13218 0.20344 0.62703 0.0
H45 H 0.15887 0.23302 0.63019 0.0
C46 C 0.09338 0.22299 0.6036 0.0
C47 C 0.08747 0.21404 0.6192 0.0
C48 C 0.11196 0.22521 0.59579 0.0
C49 C 0.12469 0.21817 0.60376 0.0
C50 C 0.11921 0.2094 0.61934 0.0
C51 C 0.10052 0.20715 0.62698 0.0
H52 H 0.78959 0.85882 0.59432 0.0
H53 H 0.79331 0.91956 0.59869 0.0
H54 H 0.816 0.89677 0.63756 0.0
H55 H 0.79654 0.92049 0.65074 0.0
C56 C 0.79493 0.92724 0.63908 0.0
O57 O 0.80939 0.92716 0.62797 0.0
H58 H 0.77797 0.91724 0.63457 0.0
C59 C 0.7944 0.87332 0.60106 0.0
C60 C 0.80349 0.87585 0.61666 0.0
C61 C 0.79069 0.88898 0.59435 0.0
C62 C 0.79593 0.90721 0.60356 0.0
C63 C 0.8048 0.90977 0.61913 0.0
C64 C 0.80881 0.89431 0.62557 0.0
H65 H 0.15718 0.92658 0.5951 0.0
H66 H 0.0956 0.86863 0.59663 0.0
H67 H 0.11665 0.91104 0.63745 0.0
H68 H 0.09369 0.8658 0.64631 0.0
C69 C 0.08368 0.85892 0.63517 0.0
O70 O 0.08538 0.87527 0.62562 0.0
H71 H 0.08993 0.84978 0.6285 0.0
C72 C 0.14254 0.91578 0.60157 0.0
C73 C 0.13914 0.92117 0.61728 0.0
C74 C 0.1271 0.89685 0.59396 0.0
C75 C 0.10767 0.88342 0.60214 0.0
C76 C 0.10396 0.8886 0.61776 0.0
C77 C 0.11962 0.90742 0.62528 0.0
H78 H 0.90529 0.4164 0.76606 0.0
H79 H 0.90145 0.47334 0.76104 0.0
H80 H 0.88091 0.42855 0.72188 0.0
H81 H 0.90047 0.47137 0.70937 0.0
C82 C 0.90068 0.4795 0.72087 0.0
O83 O 0.88593 0.46486 0.73155 0.0
H84 H 0.91744 0.48699 0.72596 0.0
C85 C 0.90108 0.42635 0.75898 0.0
C86 C 0.89258 0.41994 0.74323 0.0
C87 C 0.9044 0.44558 0.76561 0.0
C88 C 0.89911 0.45847 0.75623 0.0
C89 C 0.89063 0.45221 0.74055 0.0
C90 C 0.8872 0.43297 0.73413 0.0
H91 H 0.60497 0.49318 0.76319 0.0
H92 H 0.55076 0.42945 0.76186 0.0
H93 H 0.59334 0.45375 0.72091 0.0
H94 H 0.54863 0.42477 0.71005 0.0
C95 C 0.54175 0.41833 0.72221 0.0
O96 O 0.55829 0.42108 0.73252 0.0
H97 H 0.5339 0.42733 0.72671 0.0
C98 C 0.59534 0.47832 0.75675 0.0
C99 C 0.60154 0.47568 0.74108 0.0
C100 C 0.57721 0.46172 0.76444 0.0
C101 C 0.56501 0.44231 0.75623 0.0
C102 C 0.57074 0.43956 0.74054 0.0
C103 C 0.58913 0.45608 0.73308 0.0
H104 H 0.52585 0.1141 0.76271 0.0
H105 H 0.58936 0.12053 0.76122 0.0
H106 H 0.56726 0.14286 0.72142 0.0
H107 H 0.59631 0.12772 0.70978 0.0
C108 C 0.60245 0.12621 0.72184 0.0
O109 O 0.59968 0.13897 0.73292 0.0
H110 H 0.59272 0.10925 0.72549 0.0
C111 C 0.54094 0.11888 0.75641 0.0
C112 C 0.54425 0.12842 0.74104 0.0
C113 C 0.55701 0.11593 0.76393 0.0
C114 C 0.57683 0.12289 0.75584 0.0
C115 C 0.58053 0.13258 0.74057 0.0
C116 C 0.56433 0.13553 0.73327 0.0
H117 H 0.75062 0.56175 0.93245 0.0
H118 H 0.80703 0.55449 0.93359 0.0
H119 H 0.76404 0.5348 0.97441 0.0
H120 H 0.81102 0.55472 0.98352 0.0
C121 C 0.81726 0.55185 0.97198 0.0
O122 O 0.79978 0.53784 0.96254 0.0
H123 H 0.82669 0.56727 0.96558 0.0
C124 C 0.76087 0.55703 0.93882 0.0
C125 C 0.7549 0.54812 0.95442 0.0
C126 C 0.77959 0.55944 0.93111 0.0
C127 C 0.79239 0.55257 0.93919 0.0
C128 C 0.78687 0.54383 0.95479 0.0
C129 C 0.76808 0.54147 0.96232 0.0
H130 H 0.45084 0.19067 0.92872 0.0
H131 H 0.4537 0.25089 0.93384 0.0
H132 H 0.47639 0.22767 0.9725 0.0
H133 H 0.4569 0.2514 0.9854 0.0
C134 C 0.45606 0.25882 0.97384 0.0
O135 O 0.47062 0.25862 0.96292 0.0
H136 H 0.43914 0.24942 0.96911 0.0
C137 C 0.45481 0.20466 0.93589 0.0
C138 C 0.46399 0.20704 0.95144 0.0
C139 C 0.45105 0.22035 0.92937 0.0
C140 C 0.45678 0.23873 0.93851 0.0
C141 C 0.46589 0.24125 0.95399 0.0
C142 C 0.46965 0.22558 0.96038 0.0
H143 H 0.82296 0.25858 0.92809 0.0
H144 H 0.76265 0.19945 0.93115 0.0
H145 H 0.78083 0.24573 0.96915 0.0
H146 H 0.75738 0.20299 0.98226 0.0
C147 C 0.75037 0.19413 0.97075 0.0
O148 O 0.7512 0.20803 0.959 0.0
H149 H 0.76031 0.18693 0.967 0.0
C150 C 0.80808 0.24817 0.93448 0.0
C151 C 0.80389 0.25472 0.94946 0.0
C152 C 0.79338 0.22833 0.92765 0.0
C153 C 0.77414 0.21491 0.93605 0.0
C154 C 0.76975 0.22116 0.95102 0.0
C155 C 0.78454 0.24102 0.95766 0.0
H156 H 0.57006 0.74906 0.09984 0.0
H157 H 0.56721 0.8066 0.09568 0.0
H158 H 0.5433 0.76114 0.05693 0.0
H159 H 0.5648 0.80383 0.04421 0.0
C160 C 0.56518 0.81246 0.05549 0.0
O161 O 0.55061 0.79831 0.06651 0.0
H162 H 0.58201 0.82013 0.06047 0.0
C163 C 0.56529 0.75891 0.09318 0.0
C164 C 0.55589 0.75243 0.07769 0.0
C165 C 0.56938 0.77835 0.09992 0.0
C166 C 0.56425 0.79155 0.0908 0.0
C167 C 0.55509 0.78534 0.0753 0.0
C168 C 0.5507 0.76579 0.06885 0.0
H169 H 0.27165 0.82519 0.09652 0.0
H170 H 0.21745 0.7615 0.09421 0.0
H171 H 0.26206 0.78604 0.05443 0.0
H172 H 0.21795 0.75734 0.04241 0.0
C173 C 0.21041 0.75076 0.05437 0.0
O174 O 0.22637 0.75334 0.06524 0.0
H175 H 0.20237 0.75974 0.05849 0.0
C176 C 0.26231 0.81037 0.08997 0.0
C177 C 0.26925 0.80781 0.07457 0.0
C178 C 0.24381 0.79373 0.09725 0.0
C179 C 0.23197 0.77439 0.0889 0.0
C180 C 0.23846 0.77173 0.07345 0.0
C181 C 0.25723 0.78828 0.06641 0.0
H182 H 0.19339 0.44888 0.09761 0.0
H183 H 0.25669 0.45482 0.09562 0.0
H184 H 0.23465 0.47805 0.05635 0.0
H185 H 0.26304 0.46247 0.04419 0.0
C186 C 0.26941 0.46085 0.05611 0.0
O187 O 0.26693 0.47357 0.06741 0.0
H188 H 0.25971 0.44388 0.05972 0.0
C189 C 0.20844 0.45363 0.09125 0.0
C190 C 0.21176 0.46343 0.076 0.0
C191 C 0.22446 0.45045 0.09858 0.0
C192 C 0.2442 0.45735 0.09038 0.0
C193 C 0.24787 0.46726 0.07519 0.0
C194 C 0.23175 0.47051 0.06812 0.0
H195 H 0.41647 0.89377 0.26288 0.0
H196 H 0.47189 0.88484 0.26439 0.0
H197 H 0.42955 0.86762 0.30547 0.0
H198 H 0.47657 0.88702 0.31458 0.0
C199 C 0.48266 0.88399 0.30303 0.0
O200 O 0.46504 0.86979 0.29378 0.0
H201 H 0.49193 0.89933 0.29651 0.0
C202 C 0.42636 0.88864 0.26925 0.0
C203 C 0.4205 0.88039 0.28507 0.0
C204 C 0.44487 0.89042 0.26159 0.0
C205 C 0.45766 0.88381 0.27003 0.0
C206 C 0.45222 0.87571 0.28582 0.0
C207 C 0.43357 0.87383 0.29325 0.0
H208 H 0.11771 0.52361 0.2606 0.0
H209 H 0.12418 0.58548 0.26419 0.0
H210 H 0.14811 0.56309 0.30263 0.0
H211 H 0.12976 0.58786 0.31593 0.0
C212 C 0.12822 0.59471 0.30429 0.0
O213 O 0.1421 0.59391 0.29301 0.0
H214 H 0.11102 0.58505 0.30018 0.0
C215 C 0.12329 0.53835 0.26721 0.0
C216 C 0.13354 0.54131 0.28239 0.0
C217 C 0.12008 0.55427 0.26046 0.0
C218 C 0.12689 0.57321 0.2691 0.0
C219 C 0.13662 0.57611 0.28439 0.0
C220 C 0.1402 0.56038 0.29091 0.0
H221 H 0.48731 0.59439 0.26168 0.0
H222 H 0.42742 0.53498 0.26476 0.0
H223 H 0.44741 0.57922 0.30441 0.0
H224 H 0.42451 0.53547 0.31628 0.0
C225 C 0.41697 0.52734 0.30463 0.0
O226 O 0.41741 0.54197 0.29376 0.0
H227 H 0.42662 0.52029 0.29985 0.0
C228 C 0.47266 0.58379 0.26825 0.0
C229 C 0.46932 0.58946 0.28388 0.0
C230 C 0.4577 0.56424 0.26119 0.0
C231 C 0.43921 0.55009 0.27001 0.0
C232 C 0.43558 0.55552 0.28556 0.0
C233 C 0.45056 0.57515 0.29245 0.0
Gd234 Gd 0.51049 0.01552 0.03415 0.0
Gd235 Gd 0.49359 0.99436 0.99227 0.0
C236 C 0.42666 0.93766 0.98112 0.0
C237 C 0.43551 0.91084 0.97277 0.0
C238 C 0.46413 0.94607 0.98066 0.0
C239 C 0.44887 0.952 0.98392 0.0
C240 C 0.45768 0.92558 0.9747 0.0
C241 C 0.42002 0.9169 0.97591 0.0
C242 C 0.4119 0.94487 0.98302 0.0
C243 C 0.41942 0.96591 0.98749 0.0
N244 N 0.4559 0.97227 0.9887 0.0
C245 C 0.44159 0.97952 0.99011 0.0
H246 H 0.44707 0.99574 0.99346 0.0
C247 C 0.50113 0.95674 0.977 0.0
N248 N 0.48539 0.96089 0.9822 0.0
C249 C 0.49557 0.93654 0.97124 0.0
C250 C 0.47375 0.9208 0.97028 0.0
H251 H 0.51802 0.96888 0.97776 0.0
H252 H 0.40301 0.9056 0.97387 0.0
H253 H 0.55798 0.01617 0.03424 0.0
H254 H 0.39477 0.93451 0.98066 0.0
H255 H 0.40815 0.97171 0.98881 0.0
H256 H 0.43021 0.89495 0.96834 0.0
H257 H 0.48372 0.03947 0.04744 0.0
H258 H 0.60839 0.07881 0.04645 0.0
H259 H 0.59664 0.04163 0.03903 0.0
H260 H 0.56974 0.11549 0.05806 0.0
H261 H 0.5081 0.93316 0.96753 0.0
H262 H 0.46947 0.90522 0.96568 0.0
H263 H 0.59825 0.10641 0.05316 0.0
H264 H 0.49189 0.07485 0.0572 0.0
N265 N 0.54778 0.0387 0.03851 0.0
C266 C 0.59135 0.06769 0.0443 0.0
C267 C 0.58478 0.04671 0.04017 0.0
C268 C 0.57579 0.07392 0.04607 0.0
C269 C 0.55383 0.0588 0.0432 0.0
C270 C 0.56279 0.0323 0.03747 0.0
N271 N 0.51685 0.04849 0.04411 0.0
C272 C 0.53785 0.06388 0.04605 0.0
C273 C 0.50498 0.072 0.05406 0.0
C274 C 0.52652 0.08829 0.05546 0.0
C275 C 0.5004 0.05198 0.04857 0.0
C276 C 0.54329 0.08425 0.05171 0.0
H277 H 0.53002 0.10375 0.05981 0.0
O278 O 0.49307 0.00595 0.05704 0.0
O279 O 0.48478 0.99126 0.01829 0.0
O280 O 0.48473 0.01949 0.99894 0.0
O281 O 0.50906 0.04053 0.01916 0.0
O282 O 0.47442 0.00342 0.03642 0.0
O283 O 0.52039 1.00122 0.05298 0.0
O284 O 0.51076 0.00317 0.96924 0.0
O285 O 0.51952 0.01829 0.00812 0.0
O286 O 0.5203 0.99109 0.02749 0.0
O287 O 0.49659 0.9699 0.00694 0.0
O288 O 0.52952 0.00607 0.98969 0.0
O289 O 0.4843 0.00916 0.97342 0.0
C290 C 0.46807 0.98977 0.02475 0.0
C291 C 0.56521 0.09969 0.05385 0.0
C292 C 0.58143 0.09452 0.05106 0.0
C293 C 0.50597 0.99999 0.06335 0.0
C294 C 0.51383 0.0076 0.07996 0.0
C295 C 0.52948 0.02887 0.0827 0.0
C296 C 0.50567 0.99356 0.0932 0.0
C297 C 0.51323 1.00076 0.10912 0.0
C298 C 0.53693 0.03614 0.09838 0.0
C299 C 0.52889 0.02225 0.1115 0.0
C300 C 0.49525 0.03749 0.00728 0.0
C301 C 0.53606 0.01953 1.0015 0.0
C302 C 0.49826 0.00962 0.96295 0.0
C303 C 0.4899 0.00173 0.94648 0.0
C304 C 0.47307 0.98082 0.94419 0.0
C305 C 0.49881 0.01507 0.93292 0.0
C306 C 0.49087 0.00752 0.91712 0.0
C307 C 0.46527 0.97317 0.92865 0.0
C308 C 0.47409 0.98634 0.91521 0.0
C309 C 0.5104 0.97321 0.01891 0.0
H310 H 0.53595 0.03988 0.07275 0.0
H311 H 0.4937 0.97706 0.09105 0.0
H312 H 0.54894 0.05263 0.10039 0.0
H313 H 0.53477 0.02845 0.12357 0.0
H314 H 0.46595 0.97037 0.9544 0.0
H315 H 0.51166 0.03132 0.93472 0.0
H316 H 0.45236 0.95694 0.92701 0.0
H317 H 0.4679 0.97981 0.90328 0.0
Gd318 Gd 0.99807 0.49384 0.03299 0.0
Gd319 Gd 0.02242 0.49847 0.99254 0.0
C320 C 0.08053 0.48921 0.98407 0.0
C321 C 0.10832 0.52441 0.97566 0.0
C322 C 0.07222 0.51759 0.98263 0.0
C323 C 0.06595 0.4968 0.9863 0.0
C324 C 0.09337 0.53156 0.97701 0.0
C325 C 0.10187 0.50323 0.97907 0.0
C326 C 0.07296 0.46758 0.98628 0.0
C327 C 0.05138 0.45411 0.99053 0.0
N328 N 0.04509 0.48358 0.99078 0.0
C329 C 0.03753 0.46236 0.99255 0.0
H330 H 0.02086 0.45162 0.99568 0.0
C331 C 0.06174 0.54328 0.97802 0.0
N332 N 0.05716 0.52375 0.98349 0.0
C333 C 0.0826 0.55784 0.97265 0.0
C334 C 0.09857 0.55204 0.97231 0.0
H335 H 0.04939 0.54777 0.97823 0.0
H336 H 0.11334 0.49772 0.97743 0.0
H337 H 0.9966 0.53923 0.03145 0.0
H338 H 0.08351 0.46103 0.9844 0.0
H339 H 0.04532 0.43732 0.99212 0.0
H340 H 0.12469 0.53493 0.97146 0.0
H341 H 0.97351 0.44433 0.04738 0.0
H342 H 0.93102 0.52459 0.03831 0.0
H343 H 0.96957 0.55084 0.03329 0.0
H344 H 0.89378 0.45037 0.05063 0.0
H345 H 0.08632 0.57347 0.96871 0.0
H346 H 0.11466 0.56326 0.96797 0.0
H347 H 0.90271 0.48692 0.04442 0.0
H348 H 0.9368 0.41669 0.05584 0.0
N349 N 0.97359 0.50658 0.03501 0.0
C350 C 0.94282 0.51938 0.03753 0.0
C351 C 0.96458 0.53425 0.03474 0.0
C352 C 0.93669 0.49807 0.03977 0.0
C353 C 0.9527 0.49212 0.03856 0.0
C354 C 0.97988 0.52758 0.03372 0.0
N355 N 0.96383 0.46688 0.0417 0.0
C356 C 0.94764 0.47159 0.04201 0.0
C357 C 0.93961 0.43203 0.0519 0.0
C358 C 0.92252 0.43628 0.05151 0.0
C359 C 0.96037 0.44771 0.04715 0.0
C360 C 0.92649 0.45637 0.04678 0.0
H361 H 0.90648 0.42414 0.05525 0.0
O362 O 0.00687 0.48704 0.05654 0.0
O363 O 0.02443 0.49359 0.01883 0.0
O364 O 0.99612 0.46444 0.99824 0.0
O365 O 0.97362 0.46678 0.01766 0.0
O366 O 0.01113 0.47134 0.03682 0.0
O367 O 0.00944 0.51756 0.05219 0.0
O368 O 0.01576 0.50658 0.96865 0.0
O369 O 0.99658 0.49944 0.00671 0.0
O370 O 0.02346 0.52808 0.02704 0.0
O371 O 0.0464 0.5262 0.00769 0.0
O372 O 0.01012 0.5215 0.98854 0.0
O373 O 0.00847 0.47445 0.97368 0.0
C374 C 0.02596 0.47904 0.02584 0.0
C375 C 0.9102 0.4619 0.04718 0.0
C376 C 0.91529 0.48271 0.04365 0.0
C377 C 0.01083 0.50507 0.06285 0.0
C378 C 1.00104 0.50384 0.0788 0.0
C379 C 0.97863 0.4955 0.08029 0.0
C380 C 0.01418 0.51046 0.09276 0.0
C381 C 1.00496 0.50838 0.10827 0.0
C382 C 0.96934 0.49338 0.09554 0.0
C383 C 0.98232 0.49959 0.10945 0.0
C384 C 0.97732 0.45648 0.006 0.0
C385 C 0.99546 0.51419 0.99965 0.0
C386 C 0.00941 0.48776 0.96269 0.0
C387 C 0.0187 0.48703 0.94694 0.0
C388 C 0.03861 0.48752 0.94605 0.0
C389 C 0.00742 0.4857 0.93259 0.0
C390 C 0.0159 0.48474 0.91738 0.0
C391 C 0.04723 0.48679 0.93103 0.0
C392 C 0.03598 0.48541 0.91677 0.0
C393 C 0.04226 0.5364 0.01923 0.0
H394 H 0.9683 0.4905 0.06973 0.0
H395 H 0.03155 0.51728 0.09144 0.0
H396 H 0.95197 0.48669 0.09659 0.0
H397 H 0.9745 0.49718 0.12113 0.0
H398 H 0.04743 0.48832 0.95691 0.0
H399 H 0.99187 0.485 0.93331 0.0
H400 H 0.06265 0.48725 0.93046 0.0
H401 H 0.04307 0.485 0.90524 0.0
Gd402 Gd 0.50983 0.51634 0.9926 0.0
Gd403 Gd 0.5271 0.51117 0.03397 0.0
C404 C 0.59246 0.5159 0.04417 0.0
C405 C 0.58168 0.47998 0.05252 0.0
C406 C 0.55439 0.48931 0.04526 0.0
C407 C 0.57046 0.50979 0.04187 0.0
C408 C 0.55977 0.47427 0.05097 0.0
C409 C 0.59801 0.50077 0.04914 0.0
C410 C 0.60819 0.53718 0.0419 0.0
C411 C 0.60176 0.55184 0.03785 0.0
N412 N 0.56451 0.52404 0.03727 0.0
C413 C 0.57972 0.54501 0.03578 0.0
H414 H 0.57501 0.55653 0.03265 0.0
C415 C 0.517 0.46527 0.04901 0.0
N416 N 0.53342 0.48446 0.04388 0.0
C417 C 0.5215 0.44975 0.05461 0.0
C418 C 0.54297 0.45417 0.05541 0.0
H419 H 0.50037 0.46173 0.04835 0.0
H420 H 0.61484 0.50512 0.0508 0.0
H421 H 0.46167 0.47134 0.99298 0.0
H422 H 0.62525 0.54252 0.04362 0.0
H423 H 0.61377 0.5684 0.03631 0.0
H424 H 0.58616 0.4686 0.05675 0.0
H425 H 0.53744 0.56623 0.97902 0.0
H426 H 0.41219 0.48641 0.98199 0.0
H427 H 0.42311 0.45997 0.98884 0.0
H428 H 0.45233 0.56073 0.97022 0.0
H429 H 0.50842 0.43439 0.0583 0.0
H430 H 0.54643 0.44217 0.05984 0.0
H431 H 0.42321 0.52416 0.97545 0.0
H432 H 0.53003 0.59414 0.96946 0.0
N433 N 0.47262 0.50402 0.9889 0.0
C434 C 0.42918 0.49151 0.98385 0.0
C435 C 0.43528 0.47654 0.98766 0.0
C436 C 0.44513 0.5128 0.982 0.0
C437 C 0.46702 0.51859 0.98449 0.0
C438 C 0.45721 0.48307 0.98999 0.0
N439 N 0.50421 0.54366 0.98304 0.0
C440 C 0.48334 0.53911 0.98152 0.0
C441 C 0.51675 0.57876 0.97288 0.0
C442 C 0.49539 0.57462 0.97194 0.0
C443 C 0.52089 0.56291 0.97826 0.0
C444 C 0.47833 0.55449 0.97602 0.0
H445 H 0.49222 0.58689 0.96768 0.0
O446 O 0.52708 0.52307 0.9697 0.0
O447 O 0.53566 0.51654 0.00787 0.0
O448 O 0.53702 0.54532 0.02759 0.0
O449 O 0.5125 0.54319 0.00783 0.0
O450 O 0.54597 0.53887 0.98982 0.0
O451 O 0.49811 0.49263 0.97335 0.0
O452 O 0.50991 0.50435 0.05691 0.0
O453 O 0.5011 0.5106 0.01868 0.0
O454 O 0.49951 0.48211 0.99898 0.0
O455 O 0.52356 0.48374 0.01902 0.0
O456 O 0.49105 0.48845 0.03688 0.0
O457 O 0.53857 0.53499 0.05309 0.0
C458 C 0.55237 0.53119 1.00121 0.0
C459 C 0.45652 0.54908 0.97428 0.0
C460 C 0.43995 0.52826 0.97726 0.0
C461 C 0.51302 0.50505 0.96311 0.0
C462 C 0.50564 0.50628 0.94665 0.0
C463 C 0.49179 0.51451 0.94421 0.0
C464 C 0.51299 0.49975 0.93319 0.0
C465 C 0.50675 0.50166 0.91727 0.0
C466 C 0.48558 0.51653 0.92857 0.0
C467 C 0.49307 0.51031 0.91518 0.0
C468 C 0.52659 0.55339 0.01963 0.0
C469 C 0.48448 0.49585 0.02538 0.0
C470 C 0.52388 0.52246 0.06342 0.0
C471 C 0.53151 0.52141 0.07982 0.0
C472 C 0.54853 0.51718 0.08201 0.0
C473 C 0.52128 0.52407 0.09347 0.0
C474 C 0.52782 0.52226 0.10927 0.0
C475 C 0.55511 0.51541 0.09761 0.0
C476 C 0.54482 0.51785 0.11117 0.0
C477 C 0.5094 0.47368 0.00721 0.0
H478 H 0.48589 0.51951 0.95436 0.0
H479 H 0.52343 0.49309 0.93518 0.0
H480 H 0.47506 0.52312 0.92679 0.0
H481 H 0.48836 0.51259 0.90319 0.0
H482 H 0.5567 0.51524 0.07171 0.0
H483 H 0.50802 0.5272 0.09179 0.0
H484 H 0.56826 0.51214 0.09919 0.0
H485 H 0.55037 0.51661 0.12315 0.0
Gd486 Gd 0.17691 0.34881 0.36803 0.0
Gd487 Gd 0.16038 0.32734 0.32623 0.0
C488 C 0.09349 0.2706 0.31507 0.0
C489 C 0.10236 0.24374 0.3069 0.0
C490 C 0.13096 0.27902 0.31471 0.0
C491 C 0.1157 0.28497 0.31785 0.0
C492 C 0.12453 0.25849 0.30885 0.0
C493 C 0.08686 0.24981 0.30996 0.0
C494 C 0.07871 0.27779 0.31692 0.0
C495 C 0.08621 0.29887 0.32127 0.0
N496 N 0.1227 0.30527 0.32255 0.0
C497 C 0.10839 0.31252 0.32387 0.0
H498 H 0.11386 0.32877 0.32714 0.0
C499 C 0.16797 0.28965 0.31121 0.0
N500 N 0.15221 0.29383 0.31629 0.0
C501 C 0.16243 0.26943 0.30552 0.0
C502 C 0.14061 0.25369 0.30453 0.0
H503 H 0.18486 0.30179 0.312 0.0
H504 H 0.06985 0.23848 0.30793 0.0
H505 H 0.22448 0.34961 0.3683 0.0
H506 H 0.06157 0.26739 0.3146 0.0
H507 H 0.07493 0.30466 0.32254 0.0
H508 H 0.09708 0.22783 0.30254 0.0
H509 H 0.14999 0.37252 0.38145 0.0
H510 H 0.27473 0.41236 0.38042 0.0
H511 H 0.2631 0.37517 0.37312 0.0
H512 H 0.23583 0.44878 0.39203 0.0
H513 H 0.17497 0.26602 0.30189 0.0
H514 H 0.13635 0.23809 0.3 0.0
H515 H 0.26445 0.43988 0.38706 0.0
H516 H 0.15801 0.40777 0.39141 0.0
N517 N 0.21418 0.37211 0.37238 0.0
C518 C 0.25771 0.4012 0.37824 0.0
C519 C 0.25121 0.38022 0.37418 0.0
C520 C 0.2421 0.40737 0.37994 0.0
C521 C 0.22016 0.39221 0.37703 0.0
C522 C 0.22924 0.36575 0.37146 0.0
N523 N 0.18315 0.38174 0.37797 0.0
C524 C 0.20412 0.3972 0.3799 0.0
C525 C 0.17113 0.40504 0.38815 0.0
C526 C 0.19264 0.42141 0.38952 0.0
C527 C 0.16665 0.38509 0.38255 0.0
C528 C 0.20947 0.41751 0.38563 0.0
H529 H 0.19608 0.43681 0.39395 0.0
O530 O 0.15908 0.33893 0.39074 0.0
O531 O 0.15133 0.32436 0.3522 0.0
O532 O 0.15156 0.35263 0.33251 0.0
O533 O 0.17536 0.37373 0.35297 0.0
O534 O 0.14084 0.33677 0.37005 0.0
O535 O 0.18704 0.33511 0.38718 0.0
O536 O 0.17779 0.33607 0.30332 0.0
O537 O 0.18616 0.35146 0.34207 0.0
O538 O 0.18676 0.3243 0.36172 0.0
O539 O 0.16335 0.30298 0.34109 0.0
O540 O 0.1963 0.33898 0.32391 0.0
O541 O 0.15119 0.34194 0.30717 0.0
C542 C 0.13458 0.32297 0.3585 0.0
C543 C 0.23137 0.43302 0.38777 0.0
C544 C 0.24766 0.42795 0.38494 0.0
C545 C 0.17229 0.33357 0.39735 0.0
C546 C 0.17976 0.34158 0.41394 0.0
C547 C 0.19575 0.36279 0.41648 0.0
C548 C 0.1706 0.32809 0.42739 0.0
C549 C 0.17722 0.3359 0.44332 0.0
C550 C 0.20245 0.37057 0.43218 0.0
C551 C 0.19325 0.35729 0.44551 0.0
C552 C 0.16189 0.37067 0.34083 0.0
C553 C 0.20275 0.35261 0.3356 0.0
C554 C 0.16534 0.34248 0.29686 0.0
C555 C 0.15731 0.33469 0.28034 0.0
C556 C 0.141 0.3136 0.2778 0.0
C557 C 0.16602 0.34837 0.26695 0.0
C558 C 0.15841 0.34102 0.25107 0.0
C559 C 0.13352 0.30616 0.26216 0.0
C560 C 0.14214 0.31969 0.24888 0.0
C561 C 0.17702 0.30639 0.35319 0.0
H562 H 0.20307 0.37335 0.40637 0.0
H563 H 0.15814 0.3117 0.42546 0.0
H564 H 0.21483 0.38698 0.43401 0.0
H565 H 0.1989 0.3637 0.45757 0.0
H566 H 0.13406 0.30289 0.28788 0.0
H567 H 0.17845 0.36475 0.26895 0.0
H568 H 0.12101 0.2898 0.26031 0.0
H569 H 0.13619 0.31336 0.23686 0.0
Gd570 Gd 0.66522 0.82745 0.36811 0.0
Gd571 Gd 0.68841 0.83242 0.32731 0.0
C572 C 0.74676 0.82366 0.31848 0.0
C573 C 0.77437 0.85899 0.31018 0.0
C574 C 0.73815 0.85185 0.31714 0.0
C575 C 0.73204 0.83107 0.32074 0.0
C576 C 0.75926 0.86596 0.31153 0.0
C577 C 0.76809 0.83784 0.31356 0.0
C578 C 0.73933 0.80203 0.32055 0.0
C579 C 0.71773 0.78839 0.32467 0.0
N580 N 0.71118 0.81769 0.32515 0.0
C581 C 0.70374 0.79647 0.32675 0.0
H582 H 0.68707 0.78561 0.32979 0.0
C583 C 0.72735 0.87731 0.31255 0.0
N584 N 0.72296 0.85785 0.31804 0.0
C585 C 0.74816 0.89198 0.30715 0.0
C586 C 0.76427 0.88638 0.30682 0.0
H587 H 0.7149 0.88166 0.31281 0.0
H588 H 0.77968 0.83248 0.31191 0.0
H589 H 0.6641 0.87299 0.36682 0.0
H590 H 0.74997 0.79561 0.31858 0.0
H591 H 0.71178 0.77159 0.32612 0.0
H592 H 0.79071 0.86963 0.306 0.0
H593 H 0.64084 0.77771 0.38191 0.0
H594 H 0.60008 0.85969 0.37845 0.0
H595 H 0.63799 0.88528 0.37108 0.0
H596 H 0.56262 0.78539 0.39038 0.0
H597 H 0.75172 0.90757 0.3032 0.0
H598 H 0.78032 0.8977 0.30247 0.0
H599 H 0.57183 0.82221 0.38511 0.0
H600 H 0.60463 0.75043 0.39154 0.0
N601 N 0.64108 0.84047 0.371 0.0
C602 C 0.61142 0.85411 0.37637 0.0
C603 C 0.63282 0.86861 0.37228 0.0
C604 C 0.60502 0.83265 0.37814 0.0
C605 C 0.62048 0.82626 0.37545 0.0
C606 C 0.64758 0.86153 0.36984 0.0
N607 N 0.63129 0.80065 0.37742 0.0
C608 C 0.61538 0.80565 0.37869 0.0
C609 C 0.60741 0.76587 0.38791 0.0
C610 C 0.59061 0.77049 0.38868 0.0
C611 C 0.62788 0.78134 0.38248 0.0
C612 C 0.59458 0.79071 0.38436 0.0
H613 H 0.57483 0.75856 0.39306 0.0
O614 O 0.67371 0.82017 0.39163 0.0
O615 O 0.69132 0.82738 0.35347 0.0
O616 O 0.66226 0.79832 0.33302 0.0
O617 O 0.64026 0.80052 0.35294 0.0
O618 O 0.67821 0.80482 0.37125 0.0
O619 O 0.67828 0.85146 0.38705 0.0
O620 O 0.68152 0.8407 0.30356 0.0
O621 O 0.66269 0.83298 0.342 0.0
O622 O 0.69034 0.86175 0.36215 0.0
O623 O 0.71277 0.86017 0.34225 0.0
O624 O 0.67566 0.85526 0.32399 0.0
O625 O 0.67433 0.80855 0.30836 0.0
C626 C 0.69291 0.8127 0.3602 0.0
C627 C 0.57874 0.79667 0.38615 0.0
C628 C 0.58399 0.81764 0.38313 0.0
C629 C 0.67898 0.83866 0.39777 0.0
C630 C 0.66999 0.83853 0.41384 0.0
C631 C 0.64813 0.83271 0.41561 0.0
C632 C 0.68343 0.84423 0.42759 0.0
C633 C 0.67509 0.84405 0.44313 0.0
C634 C 0.63972 0.83242 0.43094 0.0
C635 C 0.65305 0.838 0.44464 0.0
C636 C 0.64367 0.79026 0.34108 0.0
C637 C 0.66124 0.84774 0.33526 0.0
C638 C 0.67518 0.82193 0.29748 0.0
C639 C 0.68445 0.82135 0.28167 0.0
C640 C 0.70457 0.82228 0.28071 0.0
C641 C 0.67289 0.81954 0.26737 0.0
C642 C 0.68128 0.81848 0.25215 0.0
C643 C 0.71312 0.82151 0.26567 0.0
C644 C 0.70157 0.81959 0.25146 0.0
C645 C 0.7089 0.87024 0.35402 0.0
H646 H 0.63758 0.8284 0.40522 0.0
H647 H 0.7004 0.84903 0.42614 0.0
H648 H 0.62278 0.82779 0.43221 0.0
H649 H 0.64602 0.83732 0.45642 0.0
H650 H 0.71361 0.82344 0.29152 0.0
H651 H 0.65718 0.8185 0.26813 0.0
H652 H 0.72869 0.82231 0.26504 0.0
H653 H 0.70855 0.81908 0.23991 0.0
Gd654 Gd 0.17625 0.85053 0.3244 0.0
Gd655 Gd 0.19384 0.84519 0.36555 0.0
C656 C 0.26015 0.85107 0.37359 0.0
C657 C 0.2503 0.81526 0.38162 0.0
C658 C 0.2223 0.82413 0.37574 0.0
C659 C 0.23797 0.84469 0.37216 0.0
C660 C 0.22825 0.80929 0.38092 0.0
C661 C 0.26623 0.83611 0.37794 0.0
C662 C 0.27553 0.87242 0.37108 0.0
C663 C 0.26859 0.88691 0.36789 0.0
N664 N 0.23149 0.85875 0.36819 0.0
C665 C 0.24638 0.87982 0.3667 0.0
H666 H 0.2413 0.8912 0.36413 0.0
C667 C 0.18523 0.79974 0.3805 0.0
N668 N 0.20119 0.81898 0.37506 0.0
C669 C 0.1903 0.78444 0.38568 0.0
C670 C 0.21189 0.78913 0.38569 0.0
H671 H 0.16851 0.79601 0.38039 0.0
H672 H 0.2832 0.84066 0.37891 0.0
H673 H 0.12893 0.80453 0.32497 0.0
H674 H 0.29273 0.87795 0.37199 0.0
H675 H 0.28033 0.90353 0.36625 0.0
H676 H 0.25521 0.80403 0.3854 0.0
H677 H 0.2023 0.90057 0.31124 0.0
H678 H 0.07802 0.81712 0.31317 0.0
H679 H 0.09019 0.79181 0.32042 0.0
H680 H 0.11573 0.89171 0.30224 0.0
H681 H 0.17757 0.76903 0.38963 0.0
H682 H 0.21578 0.77728 0.38975 0.0
H683 H 0.08762 0.85461 0.30698 0.0
H684 H 0.19357 0.9277 0.30188 0.0
N685 N 0.13878 0.837 0.32097 0.0
C686 C 0.09509 0.82289 0.31535 0.0
C687 C 0.1019 0.80854 0.31937 0.0
C688 C 0.11043 0.84444 0.31381 0.0
C689 C 0.13247 0.85106 0.3166 0.0
C690 C 0.12394 0.81586 0.32196 0.0
N691 N 0.16935 0.87717 0.31527 0.0
C692 C 0.14825 0.87186 0.31377 0.0
C693 C 0.18068 0.91209 0.30525 0.0
C694 C 0.15905 0.90716 0.3043 0.0
C695 C 0.18556 0.8967 0.31052 0.0
C696 C 0.1425 0.88672 0.30827 0.0
H697 H 0.1553 0.91905 0.30007 0.0
O698 O 0.19345 0.85831 0.30146 0.0
O699 O 0.20228 0.85075 0.33942 0.0
O700 O 0.20321 0.8793 0.35954 0.0
O701 O 0.17858 0.87709 0.33985 0.0
O702 O 0.21227 0.87359 0.32177 0.0
O703 O 0.16522 0.82724 0.30487 0.0
O704 O 0.17727 0.83769 0.38878 0.0
O705 O 0.16773 0.84456 0.35043 0.0
O706 O 0.16667 0.81632 0.33027 0.0
O707 O 0.19036 0.81781 0.35057 0.0
O708 O 0.15772 0.82223 0.36841 0.0
O709 O 0.20496 0.86891 0.38471 0.0
C710 C 0.21887 0.86568 0.33287 0.0
C711 C 0.1205 0.88049 0.30632 0.0
C712 C 0.10449 0.85936 0.30902 0.0
C713 C 0.1799 0.8402 0.29472 0.0
C714 C 0.17234 0.84132 0.27831 0.0
C715 C 0.15868 0.84976 0.27587 0.0
C716 C 0.17936 0.83442 0.26488 0.0
C717 C 0.17302 0.8362 0.24897 0.0
C718 C 0.15234 0.85162 0.26022 0.0
C719 C 0.15953 0.84505 0.24686 0.0
C720 C 0.19263 0.88729 0.35167 0.0
C721 C 0.15111 0.82971 0.35699 0.0
C722 C 0.19085 0.85601 0.3952 0.0
C723 C 0.19929 0.8554 0.41139 0.0
C724 C 0.2164 0.85124 0.41309 0.0
C725 C 0.19 0.85879 0.42532 0.0
C726 C 0.19776 0.85801 0.44093 0.0
C727 C 0.22407 0.85029 0.42847 0.0
C728 C 0.21483 0.85358 0.4423 0.0
C729 C 0.17651 0.80789 0.33856 0.0
H730 H 0.15305 0.85505 0.28599 0.0
H731 H 0.18964 0.82759 0.26689 0.0
H732 H 0.14196 0.85837 0.25844 0.0
H733 H 0.15474 0.84722 0.23486 0.0
H734 H 0.22382 0.84871 0.40257 0.0
H735 H 0.17697 0.86229 0.42394 0.0
H736 H 0.23719 0.84692 0.42968 0.0
H737 H 0.22092 0.85242 0.45409 0.0
Gd738 Gd 0.8442 0.68249 0.7031 0.0
Gd739 Gd 0.82764 0.66085 0.6613 0.0
C740 C 0.76148 0.60234 0.65171 0.0
C741 C 0.77138 0.5761 0.64382 0.0
C742 C 0.79934 0.61215 0.65042 0.0
C743 C 0.78364 0.61751 0.65363 0.0
C744 C 0.79344 0.59157 0.64503 0.0
C745 C 0.75542 0.58147 0.6472 0.0
C746 C 0.74613 0.60877 0.65393 0.0
C747 C 0.7531 0.63002 0.65734 0.0
N748 N 0.79011 0.63787 0.65779 0.0
C749 C 0.77529 0.64451 0.65901 0.0
H750 H 0.78042 0.66084 0.66176 0.0
C751 C 0.83651 0.6239 0.6463 0.0
N752 N 0.82046 0.62754 0.65156 0.0
C753 C 0.83149 0.6037 0.64092 0.0
C754 C 0.80987 0.58737 0.64051 0.0
H755 H 0.85325 0.63645 0.6467 0.0
H756 H 0.73847 0.56954 0.64584 0.0
H757 H 0.89102 0.68173 0.70316 0.0
H758 H 0.72894 0.59759 0.65265 0.0
H759 H 0.7414 0.63526 0.65877 0.0
H760 H 0.7665 0.56011 0.63988 0.0
H761 H 0.81871 0.70758 0.71639 0.0
H762 H 0.94248 0.74347 0.71596 0.0
H763 H 0.92975 0.70621 0.70832 0.0
H764 H 0.90574 0.78216 0.727 0.0
H765 H 0.84429 0.60073 0.63714 0.0
H766 H 0.80602 0.57175 0.63629 0.0
H767 H 0.93346 0.77197 0.72235 0.0
H768 H 0.82786 0.74322 0.72626 0.0
N769 N 0.8817 0.70498 0.7072 0.0
C770 C 0.92541 0.73284 0.71352 0.0
C771 C 0.91828 0.7118 0.70928 0.0
C772 C 0.91036 0.73978 0.71497 0.0
C773 C 0.8883 0.72522 0.71182 0.0
C774 C 0.89623 0.69795 0.70635 0.0
N775 N 0.85159 0.71587 0.71279 0.0
C776 C 0.87274 0.73088 0.71464 0.0
C777 C 0.84064 0.73999 0.72298 0.0
C778 C 0.86236 0.75591 0.7243 0.0
C779 C 0.83552 0.71983 0.71742 0.0
C780 C 0.87874 0.75135 0.72041 0.0
H781 H 0.8663 0.77145 0.72875 0.0
O782 O 0.82643 0.67343 0.72585 0.0
O783 O 0.81853 0.65818 0.68729 0.0
O784 O 0.81856 0.68598 0.66748 0.0
O785 O 0.84251 0.7072 0.68787 0.0
O786 O 0.80829 0.67096 0.70511 0.0
O787 O 0.85359 0.66831 0.72237 0.0
O788 O 0.84584 0.67117 0.6388 0.0
O789 O 0.85327 0.68505 0.67717 0.0
O790 O 0.85345 0.65749 0.69698 0.0
O791 O 0.83032 0.63638 0.67614 0.0
O792 O 0.8637 0.67275 0.65914 0.0
O793 O 0.81685 0.67337 0.64167 0.0
C794 C 0.8019 0.65708 0.6936 0.0
C795 C 0.90079 0.7663 0.72269 0.0
C796 C 0.91657 0.76049 0.72004 0.0
C797 C 0.83912 0.66745 0.73251 0.0
C798 C 0.8468 0.67544 0.74907 0.0
C799 C 0.86297 0.6966 0.75156 0.0
C800 C 0.83769 0.66199 0.76255 0.0
C801 C 0.84452 0.66979 0.77845 0.0
C802 C 0.86988 0.70437 0.76723 0.0
C803 C 0.86072 0.69113 0.78059 0.0
C804 C 0.82896 0.70407 0.67575 0.0
C805 C 0.86998 0.68633 0.67087 0.0
C806 C 0.83216 0.6756 0.63181 0.0
C807 C 0.82547 0.66727 0.61518 0.0
C808 C 0.81206 0.64546 0.61257 0.0
C809 C 0.83304 0.68107 0.60178 0.0
C810 C 0.82749 0.67307 0.58575 0.0
C811 C 0.80662 0.63737 0.59684 0.0
C812 C 0.81437 0.65097 0.58355 0.0
C813 C 0.84378 0.63965 0.68835 0.0
H814 H 0.87025 0.70712 0.74142 0.0
H815 H 0.8251 0.64565 0.76067 0.0
H816 H 0.88239 0.72074 0.76902 0.0
H817 H 0.86652 0.69753 0.79263 0.0
H818 H 0.80594 0.63464 0.62265 0.0
H819 H 0.84307 0.69797 0.6039 0.0
H820 H 0.79649 0.62046 0.59494 0.0
H821 H 0.81024 0.64402 0.57151 0.0
Gd822 Gd 0.3301 0.16008 0.70252 0.0
Gd823 Gd 0.35524 0.16543 0.66231 0.0
C824 C 0.41612 0.16001 0.65667 0.0
C825 C 0.44313 0.19592 0.64908 0.0
C826 C 0.40575 0.18683 0.65374 0.0
C827 C 0.40034 0.16629 0.65748 0.0
C828 C 0.42707 0.20176 0.64908 0.0
C829 C 0.43767 0.17507 0.65289 0.0
C830 C 0.40964 0.13866 0.6592 0.0
C831 C 0.38777 0.12407 0.66183 0.0
N832 N 0.37932 0.15212 0.6609 0.0
C833 C 0.3727 0.13106 0.66243 0.0
H834 H 0.35588 0.1196 0.66456 0.0
C835 C 0.39364 0.21102 0.64799 0.0
N836 N 0.38979 0.19183 0.6537 0.0
C837 C 0.41455 0.22642 0.64333 0.0
C838 C 0.43142 0.22188 0.64409 0.0
H839 H 0.38065 0.21463 0.64751 0.0
H840 H 0.45008 0.17062 0.65243 0.0
H841 H 0.32923 0.20568 0.70107 0.0
H842 H 0.42127 0.1332 0.65874 0.0
H843 H 0.3825 0.10745 0.66348 0.0
H844 H 0.45967 0.20723 0.64572 0.0
H845 H 0.30476 0.10977 0.71514 0.0
H846 H 0.26494 0.19249 0.71154 0.0
H847 H 0.30312 0.21808 0.70489 0.0
H848 H 0.22663 0.11786 0.72228 0.0
H849 H 0.41766 0.24179 0.63919 0.0
H850 H 0.44759 0.2338 0.64042 0.0
H851 H 0.23634 0.15493 0.71761 0.0
H852 H 0.26802 0.08229 0.72361 0.0
N853 N 0.30595 0.17313 0.70476 0.0
C854 C 0.27628 0.18687 0.70965 0.0
C855 C 0.29783 0.20137 0.70596 0.0
C856 C 0.26971 0.16535 0.71123 0.0
C857 C 0.28516 0.1589 0.70875 0.0
C858 C 0.31259 0.19424 0.70375 0.0
N859 N 0.29566 0.13305 0.71074 0.0
C860 C 0.2798 0.13815 0.71173 0.0
C861 C 0.2711 0.09791 0.72026 0.0
C862 C 0.25438 0.10268 0.72078 0.0
C863 C 0.29186 0.1135 0.71548 0.0
C864 C 0.25872 0.12312 0.71683 0.0
H865 H 0.23837 0.09066 0.72469 0.0
O866 O 0.33738 0.1523 0.72629 0.0
O867 O 0.35667 0.15999 0.68862 0.0
O868 O 0.32949 0.13117 0.66801 0.0
O869 O 0.30609 0.13355 0.68654 0.0
O870 O 0.34293 0.13746 0.70643 0.0
O871 O 0.34238 0.18377 0.72172 0.0
O872 O 0.34759 0.1728 0.63851 0.0
O873 O 0.32896 0.16589 0.67631 0.0
O874 O 0.35568 0.19443 0.697 0.0
O875 O 0.37889 0.19301 0.67768 0.0
O876 O 0.34232 0.18803 0.65826 0.0
O877 O 0.34326 0.14163 0.6432 0.0
C878 C 0.35797 0.14531 0.69563 0.0
C879 C 0.24294 0.12919 0.71844 0.0
C880 C 0.24848 0.1503 0.71578 0.0
C881 C 0.34249 0.17073 0.7325 0.0
C882 C 0.33278 0.17036 0.74831 0.0
C883 C 0.31084 0.16446 0.7495 0.0
C884 C 0.34553 0.17569 0.76244 0.0
C885 C 0.33635 0.17493 0.77773 0.0
C886 C 0.30164 0.16372 0.76459 0.0
C887 C 0.31427 0.16887 0.77865 0.0
C888 C 0.31033 0.12317 0.67526 0.0
C889 C 0.32763 0.18057 0.66934 0.0
C890 C 0.343 0.15452 0.63234 0.0
C891 C 0.35318 0.15523 0.61666 0.0
C892 C 0.37445 0.1589 0.61596 0.0
C893 C 0.34157 0.15248 0.60221 0.0
C894 C 0.35115 0.15346 0.58704 0.0
C895 C 0.38412 0.16001 0.60102 0.0
C896 C 0.37262 0.15738 0.58664 0.0
C897 C 0.37458 0.20294 0.6893 0.0
H898 H 0.3008 0.16042 0.73882 0.0
H899 H 0.36247 0.1801 0.76155 0.0
H900 H 0.28468 0.15916 0.76538 0.0
H901 H 0.30683 0.16838 0.79022 0.0
H902 H 0.38359 0.16089 0.62692 0.0
H903 H 0.325 0.14933 0.60283 0.0
H904 H 0.40061 0.16299 0.60058 0.0
H905 H 0.38064 0.15862 0.5752 0.0
Gd906 Gd 0.84201 0.18198 0.65921 0.0
Gd907 Gd 0.86162 0.17813 0.70008 0.0
C908 C 0.92792 0.18361 0.70718 0.0
C909 C 0.91803 0.14801 0.71585 0.0
C910 C 0.89006 0.157 0.71016 0.0
C911 C 0.90573 0.17736 0.70609 0.0
C912 C 0.89601 0.14222 0.71549 0.0
C913 C 0.93396 0.16867 0.71168 0.0
C914 C 0.94334 0.20481 0.70421 0.0
C915 C 0.93647 0.21933 0.70087 0.0
N916 N 0.89929 0.19141 0.70198 0.0
C917 C 0.91427 0.21238 0.70003 0.0
H918 H 0.90925 0.22377 0.69735 0.0
C919 C 0.85312 0.13304 0.7157 0.0
N920 N 0.86901 0.15204 0.7098 0.0
C921 C 0.85818 0.1178 0.72104 0.0
C922 C 0.87969 0.12229 0.72073 0.0
H923 H 0.83645 0.12945 0.71584 0.0
H924 H 0.95091 0.1731 0.7124 0.0
H925 H 0.79432 0.13648 0.66061 0.0
H926 H 0.96054 0.21024 0.70485 0.0
H927 H 0.94826 0.23585 0.69887 0.0
H928 H 0.92292 0.13681 0.71973 0.0
H929 H 0.86837 0.23181 0.64544 0.0
H930 H 0.74368 0.15013 0.65031 0.0
H931 H 0.75554 0.12435 0.657 0.0
H932 H 0.78219 0.22434 0.63802 0.0
H933 H 0.84549 0.10259 0.72535 0.0
H934 H 0.88358 0.11049 0.72491 0.0
H935 H 0.75376 0.1876 0.64363 0.0
H936 H 0.85996 0.25921 0.63626 0.0
N937 N 0.80456 0.16896 0.65628 0.0
C938 C 0.76079 0.15558 0.6519 0.0
C939 C 0.76741 0.14098 0.65565 0.0
C940 C 0.77637 0.17694 0.64979 0.0
C941 C 0.79843 0.18318 0.65192 0.0
C942 C 0.78948 0.14795 0.65767 0.0
N943 N 0.83539 0.20873 0.64982 0.0
C944 C 0.81437 0.20375 0.64864 0.0
C945 C 0.84699 0.24369 0.63975 0.0
C946 C 0.82545 0.23909 0.63913 0.0
C947 C 0.85168 0.22814 0.64491 0.0
C948 C 0.80879 0.21881 0.64333 0.0
H949 H 0.82184 0.25113 0.63503 0.0
O950 O 0.8577 0.18877 0.63564 0.0
O951 O 0.86868 0.18274 0.67372 0.0
O952 O 0.87109 0.21199 0.69321 0.0
O953 O 0.84514 0.20902 0.67446 0.0
O954 O 0.87794 0.20458 0.65538 0.0
O955 O 0.8305 0.15751 0.6406 0.0
O956 O 0.84595 0.17183 0.72364 0.0
O957 O 0.83475 0.17693 0.68553 0.0
O958 O 0.83221 0.14797 0.66594 0.0
O959 O 0.8572 0.15019 0.68539 0.0
O960 O 0.82574 0.15548 0.70417 0.0
O961 O 0.87383 0.20263 0.71869 0.0
C962 C 0.88498 0.19721 0.66656 0.0
C963 C 0.78682 0.21296 0.64195 0.0
C964 C 0.77064 0.19205 0.64515 0.0
C965 C 0.8442 0.17007 0.62974 0.0
C966 C 0.83527 0.16966 0.61354 0.0
C967 C 0.81863 0.17445 0.61156 0.0
C968 C 0.84356 0.16454 0.59986 0.0
C969 C 0.83523 0.16412 0.58423 0.0
C970 C 0.81036 0.17417 0.59614 0.0
C971 C 0.81856 0.16907 0.58256 0.0
C972 C 0.86009 0.21973 0.68563 0.0
C973 C 0.81853 0.16242 0.69277 0.0
C974 C 0.86004 0.19027 0.72959 0.0
C975 C 0.869 0.19002 0.74565 0.0
C976 C 0.88672 0.18673 0.74707 0.0
C977 C 0.85948 0.19268 0.75973 0.0
C978 C 0.86759 0.19205 0.77524 0.0
C979 C 0.89478 0.18595 0.76234 0.0
C980 C 0.88529 0.18853 0.77633 0.0
C981 C 0.84254 0.13982 0.67394 0.0
H982 H 0.81205 0.17841 0.62188 0.0
H983 H 0.85628 0.16063 0.60145 0.0
H984 H 0.79757 0.17799 0.59471 0.0
H985 H 0.81204 0.16927 0.57071 0.0
H986 H 0.89431 0.18473 0.73642 0.0
H987 H 0.84594 0.19548 0.75857 0.0
H988 H 0.90838 0.18326 0.76334 0.0
H989 H 0.89169 0.18751 0.78803 0.0
H990 H 0.30247 0.8063 0.05892 0.0
H991 H 0.33609 0.83621 0.04843 0.0
H992 H 0.31411 0.87931 0.0628 0.0
H993 H 0.28068 0.84962 0.0734 0.0
H994 H 0.34409 0.86645 0.02507 0.0
H995 H 0.37267 0.90475 0.08524 0.0
H996 H 0.3504 0.87797 0.08294 0.0
H997 H 0.34613 0.90014 0.08015 0.0
C998 C 0.30476 0.82215 0.05972 0.0
C999 C 0.28903 0.82563 0.06718 0.0
C1000 C 0.324 0.83922 0.05377 0.0
C1001 C 0.32785 0.86006 0.05517 0.0
C1002 C 0.31179 0.86345 0.06201 0.0
H1003 H 0.42973 0.98674 0.03254 0.0
H1004 H 0.39523 0.95442 0.03813 0.0
C1005 C 0.29266 0.84646 0.06804 0.0
C1006 C 0.34866 0.87833 0.04957 0.0
H1007 H 0.39157 0.92544 0.06223 0.0
C1008 C 0.3546 0.87926 0.03321 0.0
C1009 C 0.36242 0.89501 0.06022 0.0
C1010 C 0.35773 0.89437 0.07815 0.0
C1011 C 0.37353 0.89677 0.02711 0.0
C1012 C 0.38691 0.91372 0.03767 0.0
C1013 C 0.38117 0.91256 0.05409 0.0
C1014 C 0.40692 0.93295 0.03209 0.0
C1015 C 0.3786 0.89746 0.00931 0.0
C1016 C 0.4249 0.93164 0.02664 0.0
C1017 C 0.4446 0.9501 0.02341 0.0
C1018 C 0.44664 0.97019 0.02551 0.0
C1019 C 0.4285 0.97144 0.03061 0.0
C1020 C 0.40883 0.95301 0.03382 0.0
H1021 H 0.36503 0.88456 1.00232 0.0
H1022 H 0.3821 0.91292 0.00421 0.0
H1023 H 0.39321 0.89591 0.00768 0.0
H1024 H 0.42402 0.9164 0.0256 0.0
H1025 H 0.45844 0.94862 0.01997 0.0
H1026 H 0.21439 0.4988 0.06172 0.0
H1027 H 0.18426 0.50329 0.05196 0.0
H1028 H 0.13909 0.43797 0.06347 0.0
H1029 H 0.16892 0.43356 0.07345 0.0
H1030 H 0.15376 0.48433 0.02833 0.0
H1031 H 0.11269 0.46747 0.08781 0.0
H1032 H 0.1399 0.47204 0.08555 0.0
H1033 H 0.11689 0.44631 0.08123 0.0
C1034 C 0.19803 0.48539 0.06205 0.0
C1035 C 0.19401 0.46591 0.06857 0.0
C1036 C 0.18081 0.48798 0.05653 0.0
C1037 C 0.15927 0.47114 0.05741 0.0
C1038 C 0.15542 0.45143 0.06318 0.0
H1039 H 0.02961 0.44517 0.03489 0.0
H1040 H 0.06277 0.44421 0.04124 0.0
C1041 C 0.17253 0.44889 0.0688 0.0
C1042 C 0.14075 0.47398 0.05225 0.0
H1043 H 0.09181 0.46686 0.06488 0.0
C1044 C 0.14031 0.48072 0.03637 0.0
C1045 C 0.12321 0.46944 0.06276 0.0
C1046 C 0.12327 0.46364 0.08034 0.0
C1047 C 0.12248 0.48216 0.0305 0.0
C1048 C 0.10455 0.47682 0.04081 0.0
C1049 C 0.10531 0.47064 0.05684 0.0
C1050 C 0.08466 0.47714 0.03533 0.0
C1051 C 0.1226 0.48847 0.0131 0.0
C1052 C 0.08577 0.4959 0.02975 0.0
C1053 C 0.06678 0.49639 0.026 0.0
C1054 C 0.04626 0.47815 0.02775 0.0
C1055 C 0.04519 0.45939 0.03321 0.0
C1056 C 0.06415 0.45886 0.03688 0.0
H1057 H 0.13517 0.48745 0.00581 0.0
H1058 H 0.10657 0.47809 0.00748 0.0
H1059 H 0.12595 0.50507 0.01263 0.0
H1060 H 0.10125 0.5104 0.02887 0.0
H1061 H 0.06818 0.51126 0.02229 0.0
H1062 H 0.56248 0.74411 0.04638 0.0
H1063 H 0.55669 0.71051 0.03516 0.0
H1064 H 0.53588 0.68126 0.08213 0.0
H1065 H 0.54066 0.71445 0.09326 0.0
H1066 H 0.57626 0.6879 0.04375 0.0
H1067 H 0.48747 0.6394 0.05286 0.0
H1068 H 0.50196 0.66795 0.05453 0.0
H1069 H 0.5019 0.65197 0.0712 0.0
C1070 C 0.55627 0.73042 0.05425 0.0
C1071 C 0.55194 0.73195 0.07071 0.0
C1072 C 0.55315 0.71129 0.04785 0.0
C1073 C 0.54558 0.69332 0.05775 0.0
C1074 C 0.54132 0.69481 0.07418 0.0
H1075 H 0.55649 0.58136 0.0414 0.0
H1076 H 0.56162 0.61576 0.04992 0.0
C1077 C 0.54433 0.71388 0.08058 0.0
C1078 C 0.5428 0.6732 0.05106 0.0
H1079 H 0.50598 0.62055 0.04656 0.0
C1080 C 0.56086 0.67319 0.04425 0.0
C1081 C 0.52263 0.6541 0.05153 0.0
C1082 C 0.50233 0.65333 0.05777 0.0
C1083 C 0.55941 0.65446 0.03821 0.0
C1084 C 0.53948 0.63519 0.03937 0.0
C1085 C 0.52131 0.63531 0.04585 0.0
C1086 C 0.53697 0.61469 0.03386 0.0
C1087 C 0.57914 0.65558 0.03047 0.0
C1088 C 0.52106 0.60242 0.0223 0.0
C1089 C 0.51784 0.58262 0.0176 0.0
C1090 C 0.53056 0.5747 0.02431 0.0
C1091 C 0.54654 0.58704 0.03588 0.0
C1092 C 0.54962 0.6068 0.04067 0.0
H1093 H 0.59078 0.67189 0.02629 0.0
H1094 H 0.5876 0.651 0.03953 0.0
H1095 H 0.57456 0.64457 0.01995 0.0
H1096 H 0.51098 0.6081 0.01699 0.0
H1097 H 0.50509 0.57341 0.00892 0.0
H1098 H 0.81752 0.26443 0.98115 0.0
H1099 H 0.8456 0.29858 0.99216 0.0
H1100 H 0.85555 0.32626 0.9445 0.0
H1101 H 0.82703 0.29256 0.93356 0.0
H1102 H 0.8886 0.32113 0.98417 0.0
H1103 H 0.84989 0.36939 0.97192 0.0
H1104 H 0.83512 0.34079 0.97087 0.0
H1105 H 0.85167 0.35613 0.9541 0.0
C1106 C 0.82538 0.27791 0.97308 0.0
C1107 C 0.82 0.27572 0.95646 0.0
C1108 C 0.84156 0.29737 0.97937 0.0
C1109 C 0.85254 0.31508 0.9692 0.0
C1110 C 0.84706 0.31297 0.95265 0.0
H1111 H 0.97865 0.42759 0.98516 0.0
H1112 H 0.94851 0.39303 0.97684 0.0
C1113 C 0.8309 0.29358 0.94638 0.0
C1114 C 0.87034 0.33552 0.97568 0.0
H1115 H 0.8877 0.38847 0.97834 0.0
C1116 C 0.88834 0.33584 0.98301 0.0
C1117 C 0.8699 0.35468 0.97436 0.0
C1118 C 0.85051 0.35526 0.96754 0.0
C1119 C 0.90612 0.35485 0.98868 0.0
C1120 C 0.9061 0.37415 0.98667 0.0
C1121 C 0.88787 0.37374 0.9797 0.0
C1122 C 0.92464 0.39494 0.99191 0.0
C1123 C 0.92459 0.354 0.99699 0.0
C1124 C 0.92121 0.40782 1.00279 0.0
C1125 C 0.93831 0.4277 0.00737 0.0
C1126 C 0.95934 0.43517 1.00124 0.0
C1127 C 0.96275 0.42229 0.99026 0.0
C1128 C 0.94554 0.40242 0.98559 0.0
H1129 H 0.91942 0.33789 1.00171 0.0
H1130 H 0.93779 0.35809 0.9881 0.0
H1131 H 0.93122 0.3655 0.00722 0.0
H1132 H 0.90521 0.40252 0.00772 0.0
H1133 H 0.9349 0.43731 0.01554 0.0
H1134 H 0.7239 0.51452 0.97205 0.0
H1135 H 0.69011 0.51036 0.98333 0.0
H1136 H 0.70663 0.57223 0.96546 0.0
H1137 H 0.7406 0.57676 0.95461 0.0
H1138 H 0.69024 0.565 0.99691 0.0
H1139 H 0.6368 0.4979 0.95612 0.0
H1140 H 0.65566 0.49404 0.9681 0.0
H1141 H 0.66559 0.51419 0.95275 0.0
C1142 C 0.72046 0.52734 0.97069 0.0
C1143 C 0.73491 0.54589 0.96224 0.0
C1144 C 0.70101 0.52484 0.97699 0.0
C1145 C 0.69558 0.5408 0.97497 0.0
C1146 C 0.71032 0.5596 0.96705 0.0
H1147 H 0.59043 0.56535 0.99251 0.0
H1148 H 0.62527 0.56726 0.98775 0.0
C1149 C 0.7297 0.5621 0.96075 0.0
C1150 C 0.67451 0.53804 0.98088 0.0
H1151 H 0.61963 0.50875 0.97513 0.0
C1152 C 0.67478 0.55262 0.99221 0.0
C1153 C 0.65431 0.52188 0.97479 0.0
C1154 C 0.65294 0.50618 0.96217 0.0
C1155 C 0.6555 0.55159 0.99754 0.0
C1156 C 0.6353 0.53575 0.99115 0.0
C1157 C 0.63503 0.52086 0.9801 0.0
C1158 C 0.61437 0.53492 0.99505 0.0
C1159 C 0.65713 0.56751 0.01004 0.0
C1160 C 0.5963 0.51595 1.00034 0.0
C1161 C 0.57622 0.51477 1.0028 0.0
C1162 C 0.57387 0.53261 1.00026 0.0
C1163 C 0.59191 0.55151 0.99494 0.0
C1164 C 0.6119 0.55265 0.99234 0.0
H1165 H 0.67162 0.57276 0.01794 0.0
H1166 H 0.65887 0.58174 0.00374 0.0
H1167 H 0.64253 0.56098 0.01782 0.0
H1168 H 0.59763 0.50195 1.00234 0.0
H1169 H 0.56248 0.49977 0.00637 0.0
H1170 H 0.49863 0.21129 0.9692 0.0
H1171 H 0.50408 0.18293 0.97997 0.0
H1172 H 0.44245 0.13607 0.95995 0.0
H1173 H 0.43659 0.16418 0.94948 0.0
H1174 H 0.47442 0.1469 1.00148 0.0
H1175 H 0.48913 0.12245 0.94097 0.0
H1176 H 0.49178 0.14812 0.94462 0.0
H1177 H 0.46537 0.12506 0.94255 0.0
C1178 C 0.48613 0.19496 0.96724 0.0
C1179 C 0.46726 0.19 0.95835 0.0
C1180 C 0.48931 0.17881 0.97335 0.0
C1181 C 0.47378 0.15749 0.97055 0.0
C1182 C 0.45476 0.15247 0.96199 0.0
H1183 H 0.46318 0.03593 0.98798 0.0
H1184 H 0.45788 0.06536 0.98015 0.0
C1185 C 0.45151 0.16856 0.95595 0.0
C1186 C 0.47745 0.14038 0.97642 0.0
H1187 H 0.48584 0.10063 0.96323 0.0
C1188 C 0.47705 0.13681 0.99317 0.0
C1189 C 0.4808 0.12731 0.96549 0.0
C1190 C 0.48198 0.13094 0.94739 0.0
C1191 C 0.47936 0.12006 0.9993 0.0
C1192 C 0.48263 0.10691 0.98835 0.0
C1193 C 0.48325 0.11068 0.97159 0.0
C1194 C 0.48532 0.08903 0.99391 0.0
C1195 C 0.47765 0.11623 0.01737 0.0
C1196 C 0.50256 0.0926 0.00421 0.0
C1197 C 0.50558 0.07578 0.00878 0.0
C1198 C 0.49153 0.05512 0.00299 0.0
C1199 C 0.47429 0.05162 0.99267 0.0
C1200 C 0.47122 0.06842 0.98818 0.0
H1201 H 0.46931 0.12378 0.02349 0.0
H1202 H 0.46873 0.099 0.0201 0.0
H1203 H 0.49419 0.12318 0.02264 0.0
H1204 H 0.51396 0.10845 0.00844 0.0
H1205 H 0.51923 0.0791 0.01654 0.0
H1206 H 0.73113 0.15158 0.96375 0.0
H1207 H 0.69422 0.12349 0.97024 0.0
H1208 H 0.68061 0.16999 0.99109 0.0
H1209 H 0.71764 0.19819 0.98456 0.0
H1210 H 0.67592 0.11375 1.00218 0.0
H1211 H 0.62849 0.13492 0.96016 0.0
H1212 H 0.65713 0.14465 0.95751 0.0
H1213 H 0.64807 0.156 0.97284 0.0
C1214 C 0.72019 0.15581 0.96958 0.0
C1215 C 0.7272 0.17702 0.9737 0.0
C1216 C 0.69914 0.13977 0.9733 0.0
C1217 C 0.68461 0.14465 0.98105 0.0
C1218 C 0.69144 0.16589 0.98491 0.0
H1219 H 0.54839 0.06125 0.00732 0.0
H1220 H 0.58479 0.09215 0.00451 0.0
C1221 C 0.71256 0.18195 0.98123 0.0
C1222 C 0.66271 0.12732 0.98572 0.0
H1223 H 0.60862 0.10646 0.97805 0.0
C1224 C 0.66118 0.11216 0.99693 0.0
C1225 C 0.64351 0.12539 0.97898 0.0
C1226 C 0.64424 0.14098 0.96661 0.0
C1227 C 0.64101 0.09507 1.00156 0.0
C1228 C 0.62177 0.09274 0.9945 0.0
C1229 C 0.6233 0.10819 0.98351 0.0
C1230 C 0.60002 0.07392 0.99764 0.0
C1231 C 0.64067 0.07984 0.01411 0.0
C1232 C 0.59634 0.05334 0.99476 0.0
C1233 C 0.57566 0.03569 0.99672 0.0
C1234 C 0.55816 0.0382 1.00151 0.0
C1235 C 0.5617 0.05877 0.00419 0.0
C1236 C 0.58248 0.07645 1.0024 0.0
H1237 H 0.65486 0.08777 0.02242 0.0
H1238 H 0.62567 0.07295 0.02146 0.0
H1239 H 0.64152 0.06674 0.00789 0.0
H1240 H 0.60933 0.05092 0.99054 0.0
H1241 H 0.57323 0.02004 0.99416 0.0
H1242 H 0.82773 0.52688 0.95277 0.0
H1243 H 0.8552 0.51667 0.95809 0.0
H1244 H 0.87073 0.55031 0.00378 0.0
H1245 H 0.84281 0.55983 0.99875 0.0
H1246 H 0.89726 0.54067 0.96108 0.0
H1247 H 0.86738 0.49659 0.01855 0.0
H1248 H 0.85096 0.50358 0.00617 0.0
H1249 H 0.87068 0.5226 0.02012 0.0
C1250 C 0.83658 0.53155 0.96416 0.0
C1251 C 0.83256 0.54354 0.97561 0.0
C1252 C 0.8524 0.52584 0.96715 0.0
C1253 C 0.86478 0.53223 0.98155 0.0
C1254 C 0.86095 0.54446 0.99287 0.0
H1255 H 0.994 0.54988 0.99321 0.0
H1256 H 0.96189 0.55344 0.98892 0.0
C1257 C 0.84503 0.55 0.98995 0.0
C1258 C 0.88274 0.52753 0.98421 0.0
H1259 H 0.90462 0.50863 0.01206 0.0
C1260 C 0.8987 0.53347 0.97218 0.0
C1261 C 0.88462 0.51783 0.99857 0.0
C1262 C 0.86736 0.50957 0.0115 0.0
C1263 C 0.91669 0.53061 0.97428 0.0
C1264 C 0.91925 0.52213 0.98905 0.0
C1265 C 0.90295 0.51551 1.00087 0.0
C1266 C 0.93876 0.52012 0.99245 0.0
C1267 C 0.93262 0.53648 0.96051 0.0
C1268 C 0.93656 0.50039 0.99652 0.0
C1269 C 0.95493 0.49844 0.99925 0.0
C1270 C 0.97586 0.51624 0.99819 0.0
C1271 C 0.97804 0.53596 0.99422 0.0
C1272 C 0.9597 0.53795 0.99163 0.0
H1273 H 0.92498 0.53614 0.94865 0.0
H1274 H 0.94629 0.55284 0.96246 0.0
H1275 H 0.93926 0.52557 0.95981 0.0
H1276 H 0.92062 0.4864 0.99728 0.0
H1277 H 0.95275 0.48294 1.0019 0.0
H1278 H 0.48631 0.28752 0.99485 0.0
H1279 H 0.49545 0.32438 0.99981 0.0
H1280 H 0.44807 0.31765 0.96402 0.0
H1281 H 0.43888 0.28081 0.95908 0.0
H1282 H 0.50992 0.35844 0.97651 0.0
H1283 H 0.43175 0.33911 0.00562 0.0
H1284 H 0.44054 0.31987 0.0034 0.0
H1285 H 0.42962 0.32669 0.98628 0.0
C1286 C 0.4778 0.29395 0.98816 0.0
C1287 C 0.46156 0.28131 0.97689 0.0
C1288 C 0.48305 0.31493 0.99094 0.0
C1289 C 0.47214 0.32355 0.98248 0.0
C1290 C 0.45632 0.31111 0.9709 0.0
H1291 H 0.47745 0.44529 0.98691 0.0
H1292 H 0.46907 0.40922 0.98024 0.0
C1293 C 0.45112 0.29015 0.96808 0.0
C1294 C 0.47747 0.34564 0.98568 0.0
H1295 H 0.45653 0.37532 1.00073 0.0
C1296 C 0.4983 0.36218 0.98183 0.0
C1297 C 0.4622 0.35037 0.99256 0.0
C1298 C 0.43981 0.33311 0.99735 0.0
C1299 C 0.5042 0.38345 0.98451 0.0
C1300 C 0.489 0.3882 0.99156 0.0
C1301 C 0.46813 0.37162 0.99532 0.0
C1302 C 0.49448 0.41023 0.99535 0.0
C1303 C 0.52651 0.40064 0.97947 0.0
C1304 C 0.51143 0.42267 0.00616 0.0
C1305 C 0.51637 0.44333 0.0099 0.0
C1306 C 0.50421 0.45183 0.00312 0.0
C1307 C 0.48715 0.43926 0.99236 0.0
C1308 C 0.4823 0.41862 0.98855 0.0
H1309 H 0.53365 0.39484 0.9702 0.0
H1310 H 0.52605 0.41457 0.9745 0.0
H1311 H 0.53741 0.40593 0.99023 0.0
H1312 H 0.52076 0.41636 0.0118 0.0
H1313 H 0.52979 0.45261 0.01808 0.0
H1314 H 0.17063 0.72862 0.06901 0.0
H1315 H 0.14252 0.6915 0.06452 0.0
H1316 H 0.18468 0.68375 0.03113 0.0
H1317 H 0.21283 0.72087 0.03567 0.0
H1318 H 0.12323 0.67371 0.03409 0.0
H1319 H 0.16288 0.63182 0.06108 0.0
H1320 H 0.1718 0.65933 0.06538 0.0
H1321 H 0.17912 0.65197 0.04661 0.0
C1322 C 0.1739 0.7189 0.06082 0.0
C1323 C 0.19373 0.72759 0.05252 0.0
C1324 C 0.15788 0.69774 0.05827 0.0
C1325 C 0.16154 0.68482 0.04757 0.0
C1326 C 0.1816 0.69333 0.03961 0.0
H1327 H 0.08473 0.55713 0.00949 0.0
H1328 H 0.113 0.59315 0.01636 0.0
C1329 C 0.19761 0.71452 0.04213 0.0
C1330 C 0.14393 0.66284 0.04401 0.0
H1331 H 0.13065 0.61085 0.04587 0.0
C1332 C 0.12477 0.65994 0.03676 0.0
C1333 C 0.14605 0.64493 0.04743 0.0
C1334 C 0.16598 0.64706 0.05568 0.0
C1335 C 0.10783 0.63964 0.0325 0.0
C1336 C 0.1099 0.62169 0.03592 0.0
C1337 C 0.12905 0.6246 0.04325 0.0
C1338 C 0.09252 0.59979 0.03179 0.0
C1339 C 0.08816 0.6377 0.02391 0.0
C1340 C 0.07161 0.59137 0.03832 0.0
C1341 C 0.05527 0.57084 0.03423 0.0
C1342 C 0.05954 0.5582 0.02361 0.0
C1343 C 0.08066 0.56653 0.0174 0.0
C1344 C 0.09694 0.58709 0.02143 0.0
H1345 H 0.09161 0.65293 0.01828 0.0
H1346 H 0.08229 0.62529 0.01431 0.0
H1347 H 0.07492 0.6332 0.03284 0.0
H1348 H 0.06795 0.60066 0.04667 0.0
H1349 H 0.03929 0.5649 0.03939 0.0
H1350 H 0.2891 0.43768 0.06362 0.0
H1351 H 0.32631 0.44617 0.05773 0.0
H1352 H 0.34013 0.50638 0.03788 0.0
H1353 H 0.30277 0.49789 0.0438 0.0
H1354 H 0.34487 0.45456 0.02623 0.0
H1355 H 0.3925 0.52219 0.06828 0.0
H1356 H 0.36383 0.50406 0.0709 0.0
H1357 H 0.37302 0.52423 0.05561 0.0
C1358 C 0.30017 0.45286 0.05823 0.0
C1359 C 0.29306 0.46716 0.05419 0.0
C1360 C 0.32142 0.45768 0.05483 0.0
C1361 C 0.33612 0.47697 0.04745 0.0
C1362 C 0.32923 0.49154 0.04379 0.0
H1363 H 0.4726 0.5261 0.02031 0.0
H1364 H 0.43643 0.52193 0.0238 0.0
C1365 C 0.3079 0.48668 0.04715 0.0
C1366 C 0.35811 0.48109 0.04273 0.0
H1367 H 0.41232 0.51312 0.05025 0.0
C1368 C 0.35963 0.46739 0.03147 0.0
C1369 C 0.37739 0.49796 0.04942 0.0
C1370 C 0.37675 0.51291 0.06182 0.0
C1371 C 0.37979 0.46998 0.02676 0.0
C1372 C 0.39913 0.48647 0.03379 0.0
C1373 C 0.39761 0.50048 0.04481 0.0
C1374 C 0.42089 0.4888 0.03055 0.0
C1375 C 0.38003 0.45506 0.01412 0.0
C1376 C 0.4244 0.47168 0.03318 0.0
C1377 C 0.44492 0.47394 0.03085 0.0
C1378 C 0.46252 0.4934 0.02591 0.0
C1379 C 0.4592 0.5107 0.02355 0.0
C1380 C 0.43856 0.50838 0.02573 0.0
H1381 H 0.36578 0.44911 0.00587 0.0
H1382 H 0.39496 0.46281 0.00671 0.0
H1383 H 0.3792 0.44112 0.02026 0.0
H1384 H 0.41138 0.45662 0.03745 0.0
H1385 H 0.44714 0.46051 0.03319 0.0
H1386 H 0.53442 0.80955 0.03409 0.0
H1387 H 0.52451 0.83661 0.02779 0.0
H1388 H 0.57185 0.87908 0.06255 0.0
H1389 H 0.5818 0.85209 0.06883 0.0
H1390 H 0.50965 0.85754 0.04986 0.0
H1391 H 0.58719 0.91363 0.01967 0.0
H1392 H 0.57889 0.88609 0.02298 0.0
H1393 H 0.5899 0.90479 0.03944 0.0
C1394 C 0.54275 0.82474 0.04026 0.0
C1395 C 0.55919 0.82903 0.05163 0.0
C1396 C 0.53706 0.8401 0.03672 0.0
C1397 C 0.54774 0.85993 0.0445 0.0
C1398 C 0.56376 0.86402 0.05618 0.0
H1399 H 0.54214 0.97558 0.03907 0.0
H1400 H 0.55023 0.94752 0.04543 0.0
C1401 C 0.5694 0.84865 0.05976 0.0
C1402 C 0.542 0.87632 0.04051 0.0
H1403 H 0.56247 0.92583 0.02447 0.0
C1404 C 0.52112 0.87245 0.04424 0.0
C1405 C 0.55707 0.8957 0.03321 0.0
C1406 C 0.57947 0.90033 0.02844 0.0
C1407 C 0.51503 0.88772 0.04119 0.0
C1408 C 0.53012 0.90714 0.03389 0.0
C1409 C 0.55096 0.91093 0.03008 0.0
C1410 C 0.52473 0.92388 0.03021 0.0
C1411 C 0.49271 0.88314 0.04618 0.0
C1412 C 0.50779 0.91992 0.01947 0.0
C1413 C 0.50301 0.93589 0.01588 0.0
C1414 C 0.51532 0.95623 0.02279 0.0
C1415 C 0.53234 0.96014 0.03352 0.0
C1416 C 0.53702 0.94412 0.03715 0.0
H1417 H 0.48544 0.87031 0.05537 0.0
H1418 H 0.49324 0.89755 0.05124 0.0
H1419 H 0.4819 0.87792 0.03537 0.0
H1420 H 0.49834 0.90452 0.01375 0.0
H1421 H 0.48961 0.93223 0.00775 0.0
H1422 H 0.96862 0.13976 0.39319 0.0
H1423 H 1.00225 0.16948 0.38252 0.0
H1424 H 0.98149 0.21313 0.39802 0.0
H1425 H 0.94804 0.18363 0.40877 0.0
H1426 H 0.01007 0.20011 0.35943 0.0
H1427 H 0.04055 0.23767 0.41959 0.0
H1428 H 0.01801 0.21103 0.41734 0.0
H1429 H 0.01401 0.23342 0.41504 0.0
C1430 C 0.97118 0.15569 0.39422 0.0
C1431 C 0.95579 0.15936 0.40203 0.0
C1432 C 0.99043 0.17266 0.38816 0.0
C1433 C 0.99463 0.19359 0.3898 0.0
C1434 C 0.97891 0.19719 0.39704 0.0
H1435 H 0.09629 0.31995 0.36638 0.0
H1436 H 0.06185 0.28767 0.37219 0.0
C1437 C 0.95978 0.1803 0.40316 0.0
C1438 C 0.01542 0.21174 0.38403 0.0
H1439 H 0.059 0.2585 0.39651 0.0
C1440 C 0.0209 0.21278 0.36755 0.0
C1441 C 0.02959 0.22825 0.39466 0.0
C1442 C 0.02539 0.22748 0.41267 0.0
C1443 C 0.03978 0.23022 0.36133 0.0
C1444 C 0.05356 0.247 0.37187 0.0
C1445 C 0.04829 0.24574 0.38839 0.0
C1446 C 0.0735 0.26618 0.36614 0.0
C1447 C 0.04439 0.2311 0.34342 0.0
C1448 C 0.09143 0.26483 0.36062 0.0
C1449 C 0.11111 0.28327 0.3573 0.0
C1450 C 0.11316 0.30338 0.35935 0.0
C1451 C 0.09505 0.30465 0.36449 0.0
C1452 C 0.07541 0.28624 0.36782 0.0
H1453 H 0.03081 0.21802 0.33656 0.0
H1454 H 0.04733 0.24645 0.33847 0.0
H1455 H 0.05922 0.23003 0.34144 0.0
H1456 H 0.09052 0.24957 0.3596 0.0
H1457 H 0.12492 0.28177 0.35381 0.0
H1458 H 0.88187 0.83309 0.39524 0.0
H1459 H 0.85166 0.83723 0.38515 0.0
H1460 H 0.80633 0.77331 0.40002 0.0
H1461 H 0.83626 0.76932 0.41038 0.0
H1462 H 0.8203 0.817 0.36255 0.0
H1463 H 0.78133 0.80512 0.42256 0.0
H1464 H 0.80826 0.809 0.42021 0.0
H1465 H 0.78481 0.78318 0.41701 0.0
C1466 C 0.86546 0.81991 0.39626 0.0
C1467 C 0.86144 0.80099 0.40383 0.0
C1468 C 0.84819 0.8223 0.39054 0.0
C1469 C 0.82659 0.80581 0.39224 0.0
C1470 C 0.82271 0.78657 0.39908 0.0
H1471 H 0.69683 0.77901 0.36929 0.0
H1472 H 0.73011 0.77831 0.37571 0.0
C1473 C 0.83988 0.78425 0.40492 0.0
C1474 C 0.80804 0.80851 0.38687 0.0
H1475 H 0.75971 0.80287 0.39959 0.0
C1476 C 0.80717 0.81415 0.3707 0.0
C1477 C 0.7909 0.80496 0.3975 0.0
C1478 C 0.79145 0.80046 0.41532 0.0
C1479 C 0.78929 0.81545 0.36472 0.0
C1480 C 0.77177 0.81104 0.37519 0.0
C1481 C 0.77293 0.80595 0.39146 0.0
C1482 C 0.75184 0.81119 0.3696 0.0
C1483 C 0.78886 0.82059 0.34708 0.0
C1484 C 0.75284 0.82984 0.36388 0.0
C1485 C 0.73378 0.83023 0.36016 0.0
C1486 C 0.71331 0.81194 0.36201 0.0
C1487 C 0.71237 0.79326 0.36753 0.0
C1488 C 0.73139 0.79287 0.37123 0.0
H1489 H 0.80173 0.81987 0.33997 0.0
H1490 H 0.7729 0.8093 0.34173 0.0
H1491 H 0.79128 0.83681 0.34598 0.0
H1492 H 0.7683 0.84435 0.3629 0.0
H1493 H 0.73508 0.84504 0.35639 0.0
H1494 H 0.22859 0.07782 0.3803 0.0
H1495 H 0.22191 0.04418 0.3685 0.0
H1496 H 0.20248 0.01447 0.41543 0.0
H1497 H 0.20822 0.04773 0.42717 0.0
H1498 H 0.2417 0.02151 0.37613 0.0
H1499 H 0.15325 0.97276 0.38666 0.0
H1500 H 0.16774 0.00129 0.38847 0.0
H1501 H 0.16819 0.9852 0.40485 0.0
C1502 C 0.22247 0.06401 0.38804 0.0
C1503 C 0.21889 0.06546 0.40468 0.0
C1504 C 0.21883 0.04485 0.38131 0.0
C1505 C 0.21144 0.02676 0.39104 0.0
C1506 C 0.20778 0.02812 0.40762 0.0
H1507 H 0.22271 0.9154 0.37327 0.0
H1508 H 0.2276 0.94963 0.382 0.0
C1509 C 0.21133 0.04722 0.41435 0.0
C1510 C 0.20847 0.00669 0.38404 0.0
H1511 H 0.17168 0.95399 0.3797 0.0
C1512 C 0.22635 0.00676 0.37679 0.0
C1513 C 0.18836 0.98754 0.38472 0.0
C1514 C 0.16824 0.98667 0.39144 0.0
C1515 C 0.2248 0.98809 0.37056 0.0
C1516 C 0.20497 0.96875 0.37194 0.0
C1517 C 0.18695 0.96878 0.37882 0.0
C1518 C 0.20247 0.94827 0.36634 0.0
C1519 C 0.24434 0.98931 0.36239 0.0
C1520 C 0.18636 0.93588 0.35494 0.0
C1521 C 0.18329 0.91617 0.35011 0.0
C1522 C 0.19636 0.90847 0.35652 0.0
C1523 C 0.21249 0.92091 0.36797 0.0
C1524 C 0.21543 0.94058 0.37288 0.0
H1525 H 0.25577 0.00563 0.3581 0.0
H1526 H 0.25315 0.98483 0.37122 0.0
H1527 H 0.23949 0.97827 0.35187 0.0
H1528 H 0.17603 0.94141 0.34985 0.0
H1529 H 0.17042 0.90687 0.34153 0.0
H1530 H 0.48454 0.59788 0.31529 0.0
H1531 H 0.51279 0.6317 0.32663 0.0
H1532 H 0.52015 0.6614 0.28003 0.0
H1533 H 0.49143 0.62802 0.26881 0.0
H1534 H 0.55532 0.65523 0.31779 0.0
H1535 H 0.5149 0.70275 0.30987 0.0
H1536 H 0.50049 0.67421 0.30805 0.0
H1537 H 0.51615 0.69047 0.2913 0.0
C1538 C 0.49186 0.61172 0.30754 0.0
C1539 C 0.48566 0.6102 0.29113 0.0
C1540 C 0.50814 0.631 0.31401 0.0
C1541 C 0.51844 0.64918 0.30424 0.0
C1542 C 0.51219 0.64773 0.2879 0.0
H1543 H 0.64437 0.76198 0.31926 0.0
H1544 H 0.61412 0.72748 0.31104 0.0
C1545 C 0.49591 0.62852 0.28145 0.0
C1546 C 0.5363 0.66948 0.31089 0.0
H1547 H 0.55301 0.72213 0.31523 0.0
C1548 C 0.55475 0.66983 0.31735 0.0
C1549 C 0.53546 0.68849 0.31053 0.0
C1550 C 0.51559 0.68898 0.30472 0.0
C1551 C 0.57259 0.68876 0.32308 0.0
C1552 C 0.57218 0.70796 0.32198 0.0
C1553 C 0.55348 0.70749 0.3159 0.0
C1554 C 0.59081 0.72872 0.32719 0.0
C1555 C 0.59157 0.68791 0.33045 0.0
C1556 C 0.58771 0.74124 0.33866 0.0
C1557 C 0.60487 0.76112 0.34318 0.0
C1558 C 0.62563 0.76894 0.33641 0.0
C1559 C 0.62869 0.75641 0.32486 0.0
C1560 C 0.61143 0.73656 0.32024 0.0
H1561 H 0.58676 0.67171 0.33479 0.0
H1562 H 0.6043 0.69229 0.3211 0.0
H1563 H 0.59867 0.69917 0.34079 0.0
H1564 H 0.57192 0.73567 0.34408 0.0
H1565 H 0.6017 0.77045 0.35182 0.0
H1566 H 0.40748 0.90997 0.28514 0.0
H1567 H 0.37389 0.90652 0.29586 0.0
H1568 H 0.35491 0.84376 0.31311 0.0
H1569 H 0.38868 0.84719 0.30247 0.0
H1570 H 0.33309 0.87799 0.28652 0.0
H1571 H 0.34187 0.86888 0.35253 0.0
H1572 H 0.36433 0.87797 0.33862 0.0
H1573 H 0.34463 0.8502 0.33995 0.0
C1574 C 0.39622 0.89545 0.29128 0.0
C1575 C 0.40077 0.87881 0.29285 0.0
C1576 C 0.37702 0.89353 0.29747 0.0
C1577 C 0.36185 0.87496 0.30546 0.0
C1578 C 0.3665 0.85844 0.30734 0.0
H1579 H 0.22868 0.8338 0.33653 0.0
H1580 H 0.26345 0.83567 0.33096 0.0
C1581 C 0.38582 0.8604 0.3012 0.0
C1582 C 0.34065 0.87256 0.31074 0.0
H1583 H 0.3078 0.86378 0.34361 0.0
C1584 C 0.32766 0.87496 0.29903 0.0
C1585 C 0.33336 0.86842 0.32704 0.0
C1586 C 0.34683 0.86639 0.34031 0.0
C1587 C 0.30774 0.87337 0.3031 0.0
C1588 C 0.3006 0.86957 0.31941 0.0
C1589 C 0.31333 0.86677 0.33113 0.0
C1590 C 0.28015 0.86886 0.32441 0.0
C1591 C 0.29433 0.87558 0.28985 0.0
C1592 C 0.27809 0.887 0.32299 0.0
C1593 C 0.25832 0.886 0.32629 0.0
C1594 C 0.24025 0.86692 0.33132 0.0
C1595 C 0.24242 0.84885 0.33306 0.0
C1596 C 0.26227 0.84987 0.3298 0.0
H1597 H 0.29937 0.87332 0.27759 0.0
H1598 H 0.27683 0.86391 0.29145 0.0
H1599 H 0.2964 0.89172 0.2904 0.0
H1600 H 0.29171 0.90187 0.319 0.0
H1601 H 0.25704 0.9001 0.3247 0.0
H1602 H 0.14663 0.51657 0.26657 0.0
H1603 H 0.15093 0.48783 0.27776 0.0
H1604 H 0.13358 0.49961 0.32522 0.0
H1605 H 0.12838 0.52784 0.314 0.0
H1606 H 0.17834 0.48888 0.30174 0.0
H1607 H 0.09232 0.43617 0.31911 0.0
H1608 H 0.10079 0.45878 0.30601 0.0
H1609 H 0.10448 0.4624 0.32762 0.0
C1610 C 0.14346 0.51289 0.27935 0.0
C1611 C 0.13697 0.52439 0.28936 0.0
C1612 C 0.14609 0.49657 0.28575 0.0
C1613 C 0.14225 0.49137 0.30226 0.0
C1614 C 0.13622 0.50309 0.31237 0.0
H1615 H 0.18342 0.41165 0.35203 0.0
H1616 H 0.17835 0.441 0.34363 0.0
C1617 C 0.13352 0.51939 0.30597 0.0
C1618 C 0.14481 0.47381 0.30883 0.0
H1619 H 0.11735 0.42549 0.32725 0.0
C1620 C 0.16503 0.47502 0.30734 0.0
C1621 C 0.12732 0.45565 0.31595 0.0
C1622 C 0.10494 0.45299 0.31716 0.0
C1623 C 0.16827 0.45856 0.31278 0.0
C1624 C 0.15092 0.44061 0.32022 0.0
C1625 C 0.13068 0.43937 0.32169 0.0
C1626 C 0.15323 0.42258 0.32601 0.0
C1627 C 0.19008 0.4603 0.31012 0.0
C1628 C 0.14025 0.4023 0.31931 0.0
C1629 C 0.14283 0.38535 0.32428 0.0
C1630 C 0.15842 0.38837 0.33611 0.0
C1631 C 0.17113 0.40867 0.34301 0.0
C1632 C 0.16844 0.42556 0.33809 0.0
H1633 H 0.19964 0.47224 0.3007 0.0
H1634 H 0.1995 0.4653 0.32162 0.0
H1635 H 0.1882 0.44479 0.3064 0.0
H1636 H 0.12835 0.39965 0.31001 0.0
H1637 H 0.13273 0.36996 0.31872 0.0
H1638 H 0.39789 0.48467 0.29805 0.0
H1639 H 0.36104 0.45659 0.30468 0.0
H1640 H 0.34733 0.50315 0.32523 0.0
H1641 H 0.3843 0.53136 0.31858 0.0
H1642 H 0.34254 0.44697 0.33655 0.0
H1643 H 0.2954 0.468 0.29413 0.0
H1644 H 0.32404 0.47769 0.2916 0.0
H1645 H 0.31492 0.48911 0.30681 0.0
C1646 C 0.38695 0.48893 0.30385 0.0
C1647 C 0.39388 0.51018 0.30778 0.0
C1648 C 0.36593 0.47288 0.30765 0.0
C1649 C 0.35137 0.47779 0.31532 0.0
C1650 C 0.35817 0.49904 0.31909 0.0
H1651 H 0.21494 0.39436 0.34109 0.0
H1652 H 0.25134 0.42529 0.33831 0.0
C1653 C 0.37926 0.51511 0.31534 0.0
C1654 C 0.32944 0.46048 0.31994 0.0
H1655 H 0.27541 0.43956 0.312 0.0
C1656 C 0.32784 0.44535 0.33122 0.0
C1657 C 0.31029 0.45852 0.31308 0.0
C1658 C 0.31111 0.47407 0.30064 0.0
C1659 C 0.30764 0.42826 0.3358 0.0
C1660 C 0.28844 0.4259 0.32861 0.0
C1661 C 0.29005 0.44132 0.31756 0.0
C1662 C 0.26667 0.40708 0.33169 0.0
C1663 C 0.30721 0.41307 0.34841 0.0
C1664 C 0.26304 0.38649 0.32892 0.0
C1665 C 0.24237 0.36883 0.33087 0.0
C1666 C 0.22482 0.37133 0.33553 0.0
C1667 C 0.2283 0.3919 0.33807 0.0
C1668 C 0.24907 0.4096 0.33629 0.0
H1669 H 0.32133 0.42104 0.35679 0.0
H1670 H 0.29215 0.40617 0.35569 0.0
H1671 H 0.30815 0.39997 0.34226 0.0
H1672 H 0.27608 0.38407 0.32481 0.0
H1673 H 0.23999 0.35318 0.32842 0.0
H1674 H 0.50432 0.8873 0.33132 0.0
H1675 H 0.53251 0.87813 0.33638 0.0
H1676 H 0.52473 0.85374 0.28754 0.0
H1677 H 0.49687 0.86352 0.28231 0.0
H1678 H 0.53297 0.84129 0.33592 0.0
H1679 H 0.58902 0.89508 0.28888 0.0
H1680 H 0.56501 0.89568 0.29495 0.0
H1681 H 0.56294 0.87548 0.28122 0.0
C1682 C 0.50842 0.87972 0.32173 0.0
C1683 C 0.49807 0.87577 0.30651 0.0
C1684 C 0.52459 0.87452 0.32461 0.0
C1685 C 0.53104 0.86546 0.31231 0.0
C1686 C 0.5204 0.86107 0.29717 0.0
H1687 H 0.61878 0.81561 0.33598 0.0
H1688 H 0.58646 0.81817 0.33021 0.0
C1689 C 0.50426 0.8664 0.29424 0.0
C1690 C 0.54916 0.86111 0.3154 0.0
H1691 H 0.59997 0.87379 0.30287 0.0
C1692 C 0.54765 0.8484 0.32869 0.0
C1693 C 0.5684 0.87047 0.30606 0.0
C1694 C 0.57161 0.88509 0.29207 0.0
C1695 C 0.56485 0.84507 0.33309 0.0
C1696 C 0.58417 0.85438 0.32374 0.0
C1697 C 0.5854 0.86672 0.3102 0.0
C1698 C 0.60366 0.85243 0.32796 0.0
C1699 C 0.56221 0.8322 0.34809 0.0
C1700 C 0.62445 0.87063 0.3282 0.0
C1701 C 0.64302 0.86905 0.33096 0.0
C1702 C 0.64129 0.84933 0.33408 0.0
C1703 C 0.62058 0.83112 0.33412 0.0
C1704 C 0.60201 0.83261 0.33088 0.0
H1705 H 0.5503 0.83248 0.35664 0.0
H1706 H 0.55613 0.81543 0.34456 0.0
H1707 H 0.57781 0.8382 0.35453 0.0
H1708 H 0.6264 0.88615 0.32601 0.0
H1709 H 0.6588 0.8833 0.33063 0.0
H1710 H 0.15845 0.62412 0.32499 0.0
H1711 H 0.1669 0.66083 0.32962 0.0
H1712 H 0.11955 0.65292 0.29337 0.0
H1713 H 0.11104 0.6162 0.28878 0.0
H1714 H 0.18092 0.69502 0.30658 0.0
H1715 H 0.10148 0.67316 0.33467 0.0
H1716 H 0.11104 0.65452 0.33249 0.0
H1717 H 0.10016 0.66121 0.31526 0.0
C1718 C 0.14984 0.63027 0.31808 0.0
C1719 C 0.13375 0.61731 0.30683 0.0
C1720 C 0.15469 0.65118 0.32068 0.0
C1721 C 0.14354 0.6594 0.31205 0.0
C1722 C 0.12799 0.64669 0.3004 0.0
H1723 H 0.14527 0.77961 0.31772 0.0
H1724 H 0.13789 0.744 0.31048 0.0
C1725 C 0.12318 0.62581 0.29776 0.0
C1726 C 0.14816 0.68128 0.31529 0.0
H1727 H 0.12565 0.70961 0.33029 0.0
C1728 C 0.16887 0.69826 0.31177 0.0
C1729 C 0.13235 0.68537 0.32201 0.0
C1730 C 0.11004 0.66764 0.32647 0.0
C1731 C 0.17416 0.71933 0.31465 0.0
C1732 C 0.15843 0.72342 0.32158 0.0
C1733 C 0.13766 0.70642 0.32497 0.0
C1734 C 0.16329 0.7452 0.32571 0.0
C1735 C 0.1964 0.73699 0.30999 0.0
C1736 C 0.17988 0.75759 0.33679 0.0
C1737 C 0.18424 0.77798 0.34087 0.0
C1738 C 0.17184 0.78627 0.33416 0.0
C1739 C 0.15513 0.77375 0.32313 0.0
C1740 C 0.15086 0.75337 0.31899 0.0
H1741 H 0.20398 0.73171 0.30068 0.0
H1742 H 0.19568 0.75088 0.30521 0.0
H1743 H 0.20706 0.74216 0.32088 0.0
H1744 H 0.18938 0.75145 0.34239 0.0
H1745 H 0.19742 0.78725 0.34923 0.0
H1746 H 0.83657 0.06272 0.40342 0.0
H1747 H 0.80867 0.02554 0.39885 0.0
H1748 H 0.85081 0.01851 0.36498 0.0
H1749 H 0.87876 0.05568 0.36959 0.0
H1750 H 0.78908 0.00768 0.36852 0.0
H1751 H 0.82998 0.96656 0.39475 0.0
H1752 H 0.83865 0.99399 0.39914 0.0
H1753 H 0.84583 0.9868 0.38023 0.0
C1754 C 0.83988 0.05315 0.3951 0.0
C1755 C 0.85965 0.06206 0.38669 0.0
C1756 C 0.82398 0.03196 0.3925 0.0
C1757 C 0.8277 0.01921 0.38165 0.0
C1758 C 0.84769 0.02795 0.37357 0.0
H1759 H 0.75116 0.89122 0.3438 0.0
H1760 H 0.77936 0.92736 0.35045 0.0
C1761 C 0.86358 0.04917 0.37613 0.0
C1762 C 0.81023 0.99715 0.37813 0.0
H1763 H 0.79756 0.94532 0.37982 0.0
C1764 C 0.79086 0.99402 0.37109 0.0
C1765 C 0.81265 0.97938 0.38139 0.0
C1766 C 0.83281 0.98174 0.38942 0.0
C1767 C 0.77401 0.97364 0.36691 0.0
C1768 C 0.77638 0.95582 0.37021 0.0
C1769 C 0.79574 0.95896 0.3773 0.0
C1770 C 0.75906 0.93383 0.36622 0.0
C1771 C 0.75409 0.97145 0.35857 0.0
C1772 C 0.73829 0.92527 0.37302 0.0
C1773 C 0.72198 0.90466 0.36906 0.0
C1774 C 0.72617 0.8921 0.3583 0.0
C1775 C 0.74716 0.90056 0.35182 0.0
C1776 C 0.7634 0.9212 0.35572 0.0
H1777 H 0.75728 0.98661 0.35297 0.0
H1778 H 0.74816 0.95902 0.34898 0.0
H1779 H 0.741 0.96686 0.36764 0.0
H1780 H 0.73469 0.93451 0.38147 0.0
H1781 H 0.7061 0.89862 0.37443 0.0
H1782 H 0.95277 0.78805 0.36409 0.0
H1783 H 0.99005 0.79716 0.35793 0.0
H1784 H 0.01024 0.82415 0.40583 0.0
H1785 H 0.97269 0.81443 0.41219 0.0
H1786 H 0.02815 0.83405 0.35673 0.0
H1787 H 0.03238 0.78296 0.40478 0.0
H1788 H 0.00735 0.78195 0.39928 0.0
H1789 H 0.02668 0.80284 0.41224 0.0
C1790 C 0.96521 0.79618 0.37324 0.0
C1791 C 0.95984 0.80088 0.38852 0.0
C1792 C 0.98654 0.80135 0.36972 0.0
C1793 C 1.00303 0.81114 0.38145 0.0
C1794 C 0.99781 0.81627 0.39665 0.0
H1795 H 0.14093 0.86145 0.35558 0.0
H1796 H 0.1058 0.85848 0.36128 0.0
C1797 C 0.97639 0.81096 0.40022 0.0
C1798 C 0.02543 0.81542 0.37776 0.0
H1799 H 0.06432 0.80387 0.38986 0.0
C1800 C 0.03608 0.82744 0.36397 0.0
C1801 C 0.03578 0.80669 0.3871 0.0
C1802 C 0.02492 0.79273 0.40159 0.0
C1803 C 0.05654 0.83077 0.35916 0.0
C1804 C 0.06702 0.82216 0.36856 0.0
C1805 C 0.05645 0.81044 0.38252 0.0
C1806 C 0.08844 0.82428 0.36401 0.0
C1807 C 0.0662 0.84287 0.34371 0.0
C1808 C 0.09088 0.80624 0.36391 0.0
C1809 C 0.11113 0.80804 0.36109 0.0
C1810 C 0.1294 0.82784 0.35783 0.0
C1811 C 0.12702 0.84588 0.35756 0.0
C1812 C 0.10682 0.84415 0.36078 0.0
H1813 H 0.05353 0.8422 0.33543 0.0
H1814 H 0.07751 0.85978 0.34669 0.0
H1815 H 0.07528 0.8365 0.33719 0.0
H1816 H 0.07713 0.79069 0.36633 0.0
H1817 H 0.11258 0.79393 0.36159 0.0
H1818 H 0.20282 0.14378 0.36941 0.0
H1819 H 0.19247 0.17051 0.36302 0.0
H1820 H 0.23853 0.21289 0.3985 0.0
H1821 H 0.24894 0.18624 0.40485 0.0
H1822 H 0.17651 0.19083 0.38455 0.0
H1823 H 0.25492 0.24805 0.35602 0.0
H1824 H 0.24689 0.22058 0.35929 0.0
H1825 H 0.25706 0.23913 0.3759 0.0
C1826 C 0.21077 0.15887 0.37574 0.0
C1827 C 0.22702 0.16325 0.38731 0.0
C1828 C 0.20483 0.17405 0.37214 0.0
C1829 C 0.21505 0.19379 0.38008 0.0
C1830 C 0.23081 0.19792 0.392 0.0
H1831 H 0.20831 0.30886 0.37392 0.0
H1832 H 0.21648 0.28095 0.38061 0.0
C1833 C 0.2367 0.18274 0.39563 0.0
C1834 C 0.20919 0.21007 0.37594 0.0
H1835 H 0.22971 0.25978 0.36024 0.0
C1836 C 0.18807 0.20588 0.37917 0.0
C1837 C 0.22436 0.22965 0.36894 0.0
C1838 C 0.24704 0.23464 0.36468 0.0
C1839 C 0.18183 0.22102 0.37592 0.0
C1840 C 0.19703 0.24064 0.36894 0.0
C1841 C 0.21811 0.24474 0.36562 0.0
C1842 C 0.19152 0.25727 0.36508 0.0
C1843 C 0.15924 0.21608 0.3804 0.0
C1844 C 0.17484 0.25326 0.35404 0.0
C1845 C 0.17 0.26914 0.35027 0.0
C1846 C 0.18199 0.28946 0.35727 0.0
C1847 C 0.19874 0.29343 0.36828 0.0
C1848 C 0.20348 0.2775 0.37211 0.0
H1849 H 0.15179 0.20316 0.38951 0.0
H1850 H 0.15933 0.23032 0.38536 0.0
H1851 H 0.14883 0.2108 0.36938 0.0
H1852 H 0.16566 0.23789 0.34823 0.0
H1853 H 0.15679 0.26543 0.34192 0.0
H1854 H 0.61339 0.51766 0.74052 0.0
H1855 H 0.64649 0.54722 0.72938 0.0
H1856 H 0.66692 0.50368 0.71294 0.0
H1857 H 0.63372 0.47395 0.72402 0.0
H1858 H 0.68774 0.55908 0.73891 0.0
H1859 H 0.67818 0.54052 0.67294 0.0
H1860 H 0.6559 0.52785 0.68703 0.0
H1861 H 0.67561 0.51936 0.68563 0.0
C1862 C 0.62488 0.51434 0.73447 0.0
C1863 C 0.62095 0.49344 0.73323 0.0
C1864 C 0.64374 0.53126 0.72804 0.0
C1865 C 0.65912 0.5277 0.72016 0.0
C1866 C 0.6551 0.50681 0.71863 0.0
H1867 H 0.79176 0.61567 0.68965 0.0
H1868 H 0.75665 0.58381 0.6947 0.0
C1869 C 0.63613 0.48982 0.72501 0.0
C1870 C 0.67999 0.54605 0.71472 0.0
H1871 H 0.71231 0.56899 0.68163 0.0
C1872 C 0.69303 0.56127 0.72637 0.0
C1873 C 0.687 0.54883 0.69836 0.0
C1874 C 0.67338 0.53339 0.68522 0.0
C1875 C 0.71284 0.5791 0.72216 0.0
C1876 C 0.71972 0.58202 0.70581 0.0
C1877 C 0.70691 0.56672 0.69414 0.0
C1878 C 0.74016 0.60107 0.70075 0.0
C1879 C 0.72643 0.59458 0.73532 0.0
C1880 C 0.74234 0.62127 0.70202 0.0
C1881 C 0.7623 0.63944 0.69904 0.0
C1882 C 0.78036 0.63773 0.69448 0.0
C1883 C 0.77801 0.61747 0.69276 0.0
C1884 C 0.75799 0.59926 0.69571 0.0
H1885 H 0.72138 0.58764 0.74763 0.0
H1886 H 0.74387 0.59979 0.7337 0.0
H1887 H 0.72458 0.60882 0.73465 0.0
H1888 H 0.72872 0.62299 0.70578 0.0
H1889 H 0.76377 0.65489 0.70061 0.0
H1890 H 0.5012 0.09871 0.73938 0.0
H1891 H 0.47134 0.10297 0.72929 0.0
H1892 H 0.51671 0.16732 0.71544 0.0
H1893 H 0.54684 0.16308 0.72548 0.0
H1894 H 0.45982 0.13089 0.74096 0.0
H1895 H 0.47829 0.14541 0.67521 0.0
H1896 H 0.49117 0.13494 0.68819 0.0
H1897 H 0.50005 0.1628 0.68851 0.0
C1898 C 0.50489 0.11375 0.73409 0.0
C1899 C 0.52644 0.13061 0.73335 0.0
C1900 C 0.48777 0.11614 0.72826 0.0
C1901 C 0.49168 0.13541 0.72148 0.0
C1902 C 0.51324 0.15215 0.72032 0.0
H1903 H 0.40031 0.17748 0.69302 0.0
H1904 H 0.43319 0.17563 0.69858 0.0
C1905 C 0.53047 0.14973 0.7261 0.0
C1906 C 0.47298 0.1382 0.7168 0.0
H1907 H 0.44904 0.14912 0.68503 0.0
C1908 C 0.45748 0.13482 0.72871 0.0
C1909 C 0.46994 0.14352 0.70084 0.0
C1910 C 0.48562 0.14671 0.68739 0.0
C1911 C 0.4391 0.13652 0.72515 0.0
C1912 C 0.43583 0.14143 0.70915 0.0
C1913 C 0.4515 0.14525 0.69727 0.0
C1914 C 0.41601 0.14226 0.7046 0.0
C1915 C 0.42342 0.13329 0.73864 0.0
C1916 C 0.39542 0.12406 0.70582 0.0
C1917 C 0.37664 0.12506 0.70256 0.0
C1918 C 0.37807 0.14419 0.6977 0.0
C1919 C 0.39869 0.16239 0.69633 0.0
C1920 C 0.4175 0.16137 0.69958 0.0
H1921 H 0.43095 0.1351 0.7508 0.0
H1922 H 0.41745 0.14471 0.73765 0.0
H1923 H 0.40925 0.11701 0.73776 0.0
H1924 H 0.39385 0.10908 0.7095 0.0
H1925 H 0.36095 0.11087 0.70388 0.0
H1926 H 0.85845 0.39024 0.72511 0.0
H1927 H 0.85357 0.35679 0.71417 0.0
H1928 H 0.91509 0.37071 0.73468 0.0
H1929 H 0.92033 0.4043 0.74539 0.0
H1930 H 0.8825 0.35001 0.69278 0.0
H1931 H 0.87005 0.31135 0.75302 0.0
H1932 H 0.86742 0.33451 0.74987 0.0
H1933 H 0.89382 0.33713 0.75131 0.0
C1934 C 0.87104 0.38628 0.72716 0.0
C1935 C 0.88969 0.39984 0.73625 0.0
C1936 C 0.86818 0.36715 0.72096 0.0
C1937 C 0.88384 0.36122 0.72383 0.0
C1938 C 0.90266 0.37487 0.7326 0.0
H1939 H 0.89364 0.24957 0.70397 0.0
H1940 H 0.89992 0.28448 0.71219 0.0
C1941 C 0.90556 0.39401 0.73876 0.0
C1942 C 0.88048 0.34066 0.71777 0.0
H1943 H 0.87294 0.29286 0.73041 0.0
C1944 C 0.88032 0.33745 0.70096 0.0
C1945 C 0.87771 0.32441 0.72853 0.0
C1946 C 0.87707 0.32685 0.7467 0.0
C1947 C 0.87788 0.31845 0.6946 0.0
C1948 C 0.87508 0.30217 0.70537 0.0
C1949 C 0.87517 0.30541 0.72219 0.0
C1950 C 0.87186 0.28153 0.69954 0.0
C1951 C 0.87882 0.3162 0.67644 0.0
C1952 C 0.85395 0.26828 0.68974 0.0
C1953 C 0.85034 0.24834 0.68498 0.0
C1954 C 0.86449 0.24122 0.69005 0.0
C1955 C 0.88244 0.25456 0.69984 0.0
C1956 C 0.88607 0.27452 0.70454 0.0
H1957 H 0.88698 0.33188 0.67034 0.0
H1958 H 0.88754 0.30759 0.6733 0.0
H1959 H 0.86207 0.30702 0.67155 0.0
H1960 H 0.84247 0.27314 0.68608 0.0
H1961 H 0.83616 0.23834 0.67766 0.0
H1962 H 0.13378 0.94952 0.6361 0.0
H1963 H 0.16208 0.98302 0.64779 0.0
H1964 H 0.21126 0.97175 0.62757 0.0
H1965 H 0.18319 0.9379 0.61651 0.0
H1966 H 0.22117 0.98696 0.65843 0.0
H1967 H 0.19804 0.03675 0.62207 0.0
H1968 H 0.1765 0.01726 0.63432 0.0
H1969 H 0.18724 0.0089 0.61796 0.0
C1970 C 0.15061 0.95403 0.63431 0.0
C1971 C 0.15616 0.94109 0.62516 0.0
C1972 C 0.16679 0.97333 0.64083 0.0
C1973 C 0.18882 0.98016 0.63823 0.0
C1974 C 0.19439 0.96695 0.62959 0.0
H1975 H 0.31332 0.09322 0.65687 0.0
H1976 H 0.2838 0.05822 0.64861 0.0
C1977 C 0.17828 0.94766 0.62315 0.0
C1978 C 0.20618 1.00109 0.64437 0.0
H1979 H 0.22573 0.05448 0.64171 0.0
C1980 C 0.22217 0.00172 0.65476 0.0
C1981 C 0.20754 0.02038 0.63953 0.0
C1982 C 0.19155 0.0209 0.62774 0.0
C1983 C 0.23935 0.02106 0.66055 0.0
C1984 C 0.24069 0.04029 0.65569 0.0
C1985 C 0.22463 0.03969 0.64543 0.0
C1986 C 0.25872 0.06126 0.66102 0.0
C1987 C 0.25578 0.02077 0.67199 0.0
C1988 C 0.25437 0.0747 0.67052 0.0
C1989 C 0.27116 0.0947 0.67523 0.0
C1990 C 0.29268 0.10175 0.67045 0.0
C1991 C 0.29698 0.08828 0.66083 0.0
C1992 C 0.28014 0.06821 0.65618 0.0
H1993 H 0.24979 0.00486 0.67744 0.0
H1994 H 0.27085 0.02503 0.6652 0.0
H1995 H 0.25994 0.03257 0.68191 0.0
H1996 H 0.23793 0.06971 0.67429 0.0
H1997 H 0.26717 0.10473 0.68244 0.0
H1998 H 0.07437 0.24351 0.62015 0.0
H1999 H 0.04053 0.23947 0.63083 0.0
H2000 H 0.02161 0.17619 0.64673 0.0
H2001 H 0.05562 0.18017 0.63607 0.0
H2002 H 0.99984 0.21038 0.62056 0.0
H2003 H 0.00762 0.20037 0.68661 0.0
H2004 H 0.03044 0.2103 0.67296 0.0
H2005 H 0.0112 0.18237 0.67377 0.0
C2006 C 0.06308 0.22875 0.62599 0.0
C2007 C 0.06769 0.21211 0.62714 0.0
C2008 C 0.04375 0.22649 0.63216 0.0
C2009 C 0.02851 0.20759 0.63972 0.0
C2010 C 0.03325 0.1911 0.64126 0.0
H2011 H 0.89504 0.16558 0.67055 0.0
H2012 H 0.92989 0.16759 0.66501 0.0
C2013 C 0.0527 0.19337 0.63513 0.0
C2014 C 0.00713 0.20484 0.64483 0.0
H2015 H 0.9738 0.19554 0.67745 0.0
C2016 C 0.99422 0.20719 0.63302 0.0
C2017 C 0.99962 0.20048 0.66106 0.0
C2018 C 0.01298 0.1984 0.67439 0.0
C2019 C 0.97418 0.20539 0.63694 0.0
C2020 C 0.96686 0.20145 0.6532 0.0
C2021 C 0.97948 0.19866 0.665 0.0
C2022 C 0.94632 0.20065 0.65808 0.0
C2023 C 0.96085 0.20751 0.62357 0.0
C2024 C 0.9441 0.21866 0.6564 0.0
C2025 C 0.92428 0.21757 0.65965 0.0
C2026 C 0.90636 0.19855 0.66493 0.0
C2027 C 0.90868 0.1806 0.6669 0.0
C2028 C 0.92857 0.1817 0.66366 0.0
H2029 H 0.96594 0.2051 0.61138 0.0
H2030 H 0.94333 0.19591 0.62515 0.0
H2031 H 0.96301 0.22369 0.62397 0.0
H2032 H 0.95762 0.23351 0.65228 0.0
H2033 H 0.92286 0.23158 0.65788 0.0
H2034 H 0.79605 0.8611 0.64791 0.0
H2035 H 0.80133 0.83305 0.65937 0.0
H2036 H 0.82272 0.8236 0.61274 0.0
H2037 H 0.81844 0.85224 0.60135 0.0
H2038 H 0.78159 0.79131 0.65084 0.0
H2039 H 0.87048 0.82886 0.64263 0.0
H2040 H 0.85624 0.84345 0.64068 0.0
H2041 H 0.85641 0.82734 0.62413 0.0
C2042 C 0.80227 0.85333 0.64016 0.0
C2043 C 0.80694 0.859 0.62373 0.0
C2044 C 0.8051 0.83719 0.6467 0.0
C2045 C 0.81271 0.82646 0.63697 0.0
C2046 C 0.81726 0.83197 0.62055 0.0
H2047 H 0.79995 0.7035 0.65355 0.0
H2048 H 0.79562 0.73326 0.64499 0.0
C2049 C 0.81453 0.84817 0.61401 0.0
C2050 C 0.81518 0.80901 0.64383 0.0
H2051 H 0.85158 0.79198 0.64902 0.0
C2052 C 0.79692 0.7915 0.65056 0.0
C2053 C 0.83527 0.80945 0.64366 0.0
C2054 C 0.85577 0.82838 0.63754 0.0
C2055 C 0.79808 0.77416 0.65676 0.0
C2056 C 0.81793 0.77417 0.65587 0.0
C2057 C 0.83631 0.79191 0.64952 0.0
C2058 C 0.82004 0.75594 0.66142 0.0
C2059 C 0.77811 0.75615 0.66438 0.0
C2060 C 0.83558 0.75893 0.6732 0.0
C2061 C 0.83834 0.74204 0.67794 0.0
C2062 C 0.82554 0.72178 0.67105 0.0
C2063 C 0.80996 0.71883 0.65923 0.0
C2064 C 0.80733 0.73579 0.6544 0.0
H2065 H 0.76657 0.76129 0.66842 0.0
H2066 H 0.76966 0.7433 0.65527 0.0
H2067 H 0.78242 0.74955 0.67496 0.0
H2068 H 0.8457 0.7744 0.67865 0.0
H2069 H 0.85079 0.74503 0.68682 0.0
H2070 H 0.06837 0.83752 0.66366 0.0
H2071 H 0.0313 0.81009 0.6703 0.0
H2072 H 0.00943 0.81814 0.62336 0.0
H2073 H 0.04669 0.84513 0.61649 0.0
H2074 H 0.99323 0.81014 0.67255 0.0
H2075 H 0.98787 0.75528 0.6235 0.0
H2076 H 0.01302 0.77869 0.62893 0.0
H2077 H 0.99345 0.78081 0.61642 0.0
C2078 C 0.05559 0.8336 0.65484 0.0
C2079 C 0.06036 0.84375 0.63968 0.0
C2080 C 0.03442 0.81791 0.65863 0.0
C2081 C 0.01757 0.81185 0.64727 0.0
C2082 C 0.02219 0.82226 0.63222 0.0
H2083 H 0.88029 0.72793 0.67288 0.0
H2084 H 0.91564 0.75923 0.66777 0.0
C2085 C 0.04344 0.83786 0.62837 0.0
C2086 C 0.99538 0.79427 0.65116 0.0
H2087 H 0.95623 0.74491 0.63887 0.0
C2088 C 0.9851 0.79584 0.6652 0.0
C2089 C 0.98486 0.77554 0.64165 0.0
C2090 C 0.99541 0.77232 0.62687 0.0
C2091 C 0.96476 0.77918 0.6701 0.0
C2092 C 0.95411 0.76047 0.66052 0.0
C2093 C 0.96431 0.75911 0.64632 0.0
C2094 C 0.93276 0.74178 0.66504 0.0
C2095 C 0.95538 0.78165 0.68579 0.0
C2096 C 0.93027 0.72135 0.66502 0.0
C2097 C 0.90994 0.70342 0.66752 0.0
C2098 C 0.89172 0.7055 0.67057 0.0
C2099 C 0.89419 0.72589 0.67106 0.0
C2100 C 0.91448 0.74385 0.66817 0.0
H2101 H 0.96817 0.79338 0.69402 0.0
H2102 H 0.94389 0.78738 0.68315 0.0
H2103 H 0.94653 0.76634 0.69222 0.0
H2104 H 0.94402 0.71921 0.66265 0.0
H2105 H 0.90838 0.68784 0.66687 0.0
H2106 H 0.17068 0.21979 0.66487 0.0
H2107 H 0.19893 0.21065 0.66976 0.0
H2108 H 0.19258 0.18849 0.62033 0.0
H2109 H 0.16464 0.19823 0.61529 0.0
H2110 H 0.19932 0.1738 0.66832 0.0
H2111 H 0.25686 0.22986 0.62301 0.0
H2112 H 0.23268 0.23018 0.62899 0.0
H2113 H 0.23101 0.21063 0.61476 0.0
C2114 C 0.17511 0.21271 0.6551 0.0
C2115 C 0.16514 0.20936 0.63978 0.0
C2116 C 0.19132 0.20754 0.65789 0.0
C2117 C 0.19816 0.1991 0.64538 0.0
C2118 C 0.18792 0.19533 0.63012 0.0
H2119 H 0.28521 0.14844 0.66895 0.0
H2120 H 0.25311 0.15117 0.66272 0.0
C2121 C 0.17175 0.20064 0.62729 0.0
C2122 C 0.21619 0.19463 0.64845 0.0
H2123 H 0.26744 0.20801 0.63659 0.0
C2124 C 0.21424 0.18128 0.66139 0.0
C2125 C 0.23574 0.20446 0.63948 0.0
C2126 C 0.23937 0.21973 0.62588 0.0
C2127 C 0.23131 0.17779 0.66583 0.0
C2128 C 0.25096 0.1876 0.65687 0.0
C2129 C 0.25262 0.20056 0.64364 0.0
C2130 C 0.27034 0.18551 0.66121 0.0
C2131 C 0.22815 0.16423 0.68049 0.0
C2132 C 0.29112 0.20371 0.66196 0.0
C2133 C 0.30959 0.20204 0.66494 0.0
C2134 C 0.30776 0.18222 0.66784 0.0
C2135 C 0.28706 0.16401 0.66732 0.0
C2136 C 0.26862 0.1656 0.66381 0.0
H2137 H 0.216 0.16417 0.68897 0.0
H2138 H 0.22215 0.14762 0.67653 0.0
H2139 H 0.24354 0.16991 0.68715 0.0
H2140 H 0.29313 0.2193 0.66002 0.0
H2141 H 0.32538 0.21629 0.66502 0.0
H2142 H 0.83439 0.9626 0.64494 0.0
H2143 H 0.84211 0.99889 0.65048 0.0
H2144 H 0.77398 0.97812 0.64625 0.0
H2145 H 0.76618 0.94187 0.64053 0.0
H2146 H 0.82783 0.02439 0.62905 0.0
H2147 H 0.79677 0.00891 0.6925 0.0
H2148 H 0.80568 0.99259 0.68234 0.0
H2149 H 0.78012 0.99023 0.67705 0.0
C2150 C 0.82112 0.96587 0.64504 0.0
C2151 C 0.79975 0.94959 0.64203 0.0
C2152 C 0.82553 0.98651 0.64823 0.0
C2153 C 0.80859 0.99106 0.64876 0.0
C2154 C 0.78722 0.97483 0.6459 0.0
H2155 H 0.81044 0.11115 0.65382 0.0
H2156 H 0.80223 0.07505 0.64728 0.0
C2157 C 0.78282 0.95421 0.64259 0.0
C2158 C 0.81326 0.0128 0.65242 0.0
H2159 H 0.80848 0.0431 0.68201 0.0
C2160 C 0.82359 0.02853 0.64059 0.0
C2161 C 0.80777 0.01802 0.66754 0.0
C2162 C 0.79708 0.00165 0.68069 0.0
C2163 C 0.82842 0.04945 0.64349 0.0
C2164 C 0.82278 0.05462 0.65856 0.0
C2165 C 0.81262 0.03894 0.67043 0.0
C2166 C 0.8278 0.07642 0.66237 0.0
C2167 C 0.83975 0.06601 0.63057 0.0
C2168 C 0.84485 0.08897 0.67302 0.0
C2169 C 0.84972 0.10962 0.67668 0.0
C2170 C 0.83737 0.11795 0.66996 0.0
C2171 C 0.82024 0.10524 0.65926 0.0
C2172 C 0.81552 0.08463 0.65549 0.0
H2173 H 0.84523 0.05998 0.62027 0.0
H2174 H 0.8285 0.07112 0.62579 0.0
H2175 H 0.85402 0.0802 0.63584 0.0
H2176 H 0.85453 0.08285 0.67837 0.0
H2177 H 0.8633 0.11906 0.68467 0.0
H2178 H 0.54289 0.38832 0.70278 0.0
H2179 H 0.5145 0.35109 0.69893 0.0
H2180 H 0.47494 0.35896 0.73474 0.0
H2181 H 0.50326 0.39615 0.73857 0.0
H2182 H 0.49368 0.31691 0.72219 0.0
H2183 H 0.43608 0.33772 0.6934 0.0
H2184 H 0.46465 0.3566 0.69561 0.0
H2185 H 0.44692 0.34993 0.71277 0.0
C2186 C 0.52814 0.38201 0.70984 0.0
C2187 C 0.52501 0.39513 0.72071 0.0
C2188 C 0.51198 0.3608 0.70766 0.0
C2189 C 0.49245 0.3524 0.71632 0.0
C2190 C 0.4897 0.36525 0.7277 0.0
H2191 H 0.3714 0.23133 0.70951 0.0
H2192 H 0.40008 0.26705 0.71704 0.0
C2193 C 0.50588 0.38643 0.72991 0.0
C2194 C 0.47479 0.33033 0.71318 0.0
H2195 H 0.42337 0.3014 0.69792 0.0
C2196 C 0.4783 0.31348 0.71689 0.0
C2197 C 0.45471 0.32592 0.70632 0.0
C2198 C 0.45031 0.34345 0.70165 0.0
C2199 C 0.46218 0.29229 0.71405 0.0
C2200 C 0.4422 0.28788 0.70693 0.0
C2201 C 0.43865 0.30477 0.70337 0.0
C2202 C 0.42495 0.26595 0.7027 0.0
C2203 C 0.46658 0.27485 0.71898 0.0
C2204 C 0.42929 0.25348 0.69203 0.0
C2205 C 0.413 0.23302 0.68781 0.0
C2206 C 0.39183 0.22466 0.69392 0.0
C2207 C 0.38747 0.23723 0.70455 0.0
C2208 C 0.40386 0.25768 0.70885 0.0
H2209 H 0.47928 0.28028 0.72857 0.0
H2210 H 0.45166 0.26078 0.72352 0.0
H2211 H 0.47249 0.26993 0.70829 0.0
H2212 H 0.44528 0.25964 0.68682 0.0
H2213 H 0.41708 0.22375 0.67979 0.0
H2214 H 0.62235 0.10377 0.73102 0.0
H2215 H 0.6597 0.11222 0.72578 0.0
H2216 H 0.67324 0.1711 0.70349 0.0
H2217 H 0.63575 0.16265 0.70877 0.0
H2218 H 0.67838 0.11884 0.69446 0.0
H2219 H 0.72559 0.18903 0.73433 0.0
H2220 H 0.69693 0.17096 0.73708 0.0
H2221 H 0.7061 0.19023 0.72111 0.0
C2222 C 0.63338 0.11867 0.72523 0.0
C2223 C 0.62615 0.13257 0.72029 0.0
C2224 C 0.65471 0.12346 0.7222 0.0
C2225 C 0.66938 0.14236 0.71433 0.0
C2226 C 0.66237 0.15658 0.7098 0.0
H2227 H 0.80579 0.19194 0.68734 0.0
H2228 H 0.76942 0.18721 0.69088 0.0
C2229 C 0.64096 0.15174 0.71278 0.0
C2230 C 0.69144 0.14636 0.70996 0.0
H2231 H 0.7456 0.17935 0.71699 0.0
C2232 C 0.69309 0.13208 0.69939 0.0
C2233 C 0.71065 0.16374 0.71623 0.0
C2234 C 0.70987 0.17933 0.72792 0.0
C2235 C 0.71332 0.13465 0.69491 0.0
C2236 C 0.73262 0.15174 0.7015 0.0
C2237 C 0.73095 0.16625 0.71188 0.0
C2238 C 0.75454 0.15437 0.69835 0.0
C2239 C 0.71363 0.11907 0.68296 0.0
C2240 C 0.75854 0.13763 0.70141 0.0
C2241 C 0.77918 0.1402 0.69899 0.0
C2242 C 0.79642 0.1596 0.69357 0.0
C2243 C 0.79266 0.17656 0.69091 0.0
C2244 C 0.77189 0.17391 0.69313 0.0
H2245 H 0.69931 0.1125 0.67474 0.0
H2246 H 0.72848 0.12648 0.67546 0.0
H2247 H 0.713 0.10559 0.6897 0.0
H2248 H 0.7458 0.12264 0.70603 0.0
H2249 H 0.78176 0.12704 0.7016 0.0
H2250 H 0.87051 0.47764 0.69936 0.0
H2251 H 0.86031 0.50475 0.69415 0.0
H2252 H 0.90639 0.54531 0.73038 0.0
H2253 H 0.91661 0.51826 0.73557 0.0
H2254 H 0.84445 0.52383 0.71731 0.0
H2255 H 0.92229 0.58249 0.68875 0.0
H2256 H 0.91427 0.55484 0.69093 0.0
H2257 H 0.92466 0.57243 0.7081 0.0
C2258 C 0.87853 0.49244 0.70608 0.0
C2259 C 0.89468 0.49619 0.71756 0.0
C2260 C 0.87267 0.50782 0.70316 0.0
C2261 C 0.88289 0.52713 0.71168 0.0
C2262 C 0.89866 0.53067 0.72345 0.0
H2263 H 0.8752 0.64201 0.70889 0.0
H2264 H 0.88369 0.61416 0.71502 0.0
C2265 C 0.90446 0.51527 0.72641 0.0
C2266 C 0.87691 0.5435 0.7084 0.0
H2267 H 0.89688 0.59368 0.69386 0.0
C2268 C 0.85584 0.53909 0.71213 0.0
C2269 C 0.89188 0.56336 0.70169 0.0
C2270 C 0.91451 0.5686 0.69699 0.0
C2271 C 0.84944 0.55424 0.7096 0.0
C2272 C 0.86441 0.5741 0.70283 0.0
C2273 C 0.88546 0.57846 0.69908 0.0
C2274 C 0.8586 0.59062 0.69949 0.0
C2275 C 0.82691 0.54901 0.71456 0.0
C2276 C 0.8417 0.58662 0.68868 0.0
C2277 C 0.83668 0.60246 0.68524 0.0
C2278 C 0.84873 0.62271 0.69232 0.0
C2279 C 0.86562 0.62663 0.70318 0.0
C2280 C 0.87054 0.61074 0.70668 0.0
H2281 H 0.81981 0.53593 0.72354 0.0
H2282 H 0.82698 0.56309 0.71985 0.0
H2283 H 0.81621 0.54384 0.70369 0.0
H2284 H 0.83253 0.57133 0.68276 0.0
H2285 H 0.82335 0.59877 0.67704 0.0
H2286 H 0.41805 0.88363 0.23544 0.0
H2287 H 0.42808 0.8994 0.20839 0.0
H2288 H 0.49537 0.9334 0.22279 0.0
H2289 H 0.48551 0.91793 0.2499 0.0
H2290 H 0.44921 0.94233 0.20016 0.0
H2291 H 0.49697 0.90528 0.1801 0.0
H2292 H 0.47894 0.89574 0.19732 0.0
H2293 H 0.50553 0.91867 0.19933 0.0
C2294 C 0.43499 0.89451 0.23289 0.0
C2295 C 0.45097 0.89946 0.2449 0.0
C2296 C 0.4407 0.90343 0.21738 0.0
C2297 C 0.4625 0.91734 0.21346 0.0
C2298 C 0.47849 0.92232 0.22539 0.0
H2299 H 0.53641 0.99877 0.13494 0.0
H2300 H 0.52263 0.97731 0.15942 0.0
C2301 C 0.47281 0.91344 0.24091 0.0
C2302 C 0.46848 0.92734 0.19714 0.0
H2303 H 0.50008 0.93387 0.16403 0.0
C2304 C 0.46015 0.94031 0.19217 0.0
C2305 C 0.48274 0.92468 0.18672 0.0
C2306 C 0.49142 0.91018 0.19104 0.0
C2307 C 0.46633 0.95133 0.17736 0.0
C2308 C 0.48092 0.94899 0.16707 0.0
C2309 C 0.4889 0.93567 0.1719 0.0
C2310 C 0.48906 0.96115 0.1517 0.0
C2311 C 0.45785 0.96604 0.17317 0.0
C2312 C 0.47485 0.95889 0.13898 0.0
C2313 C 0.48268 0.97132 0.12495 0.0
C2314 C 0.50491 0.98621 0.12335 0.0
C2315 C 0.51915 0.9878 0.13588 0.0
C2316 C 0.51132 0.97541 0.14986 0.0
H2317 H 0.45094 0.96977 0.18393 0.0
H2318 H 0.4709 0.98113 0.16803 0.0
H2319 H 0.44481 0.95834 0.16392 0.0
H2320 H 0.45766 0.94768 0.13997 0.0
H2321 H 0.47125 0.96969 0.11558 0.0
H2322 H 0.13504 0.57922 0.2336 0.0
H2323 H 0.11739 0.57277 0.20694 0.0
H2324 H 0.0626 0.51552 0.22518 0.0
H2325 H 0.08074 0.52144 0.25154 0.0
H2326 H 0.07293 0.50827 0.1967 0.0
H2327 H 0.06967 0.58258 0.19306 0.0
H2328 H 0.09684 0.58747 0.19531 0.0
H2329 H 0.0775 0.57458 0.21137 0.0
C2330 C 0.11918 0.56535 0.23186 0.0
C2331 C 0.10916 0.55084 0.24455 0.0
C2332 C 0.10903 0.56174 0.21669 0.0
C2333 C 0.08844 0.54388 0.21411 0.0
C2334 C 0.07845 0.52943 0.22686 0.0
H2335 H 0.99971 0.5261 0.13615 0.0
H2336 H 0.02046 0.53429 0.16128 0.0
C2337 C 0.08878 0.53281 0.2419 0.0
C2338 C 0.07746 0.53979 0.19806 0.0
H2339 H 0.06023 0.56154 0.16908 0.0
C2340 C 0.07007 0.5199 0.19069 0.0
C2341 C 0.07351 0.55487 0.19028 0.0
C2342 C 0.07959 0.57597 0.19799 0.0
C2343 C 0.05873 0.51458 0.17589 0.0
C2344 C 0.05544 0.52992 0.16784 0.0
C2345 C 0.06295 0.54987 0.17515 0.0
C2346 C 0.04326 0.52526 0.15227 0.0
C2347 C 0.04973 0.49231 0.16941 0.0
C2348 C 0.04933 0.51778 0.13868 0.0
C2349 C 0.03704 0.51241 0.12438 0.0
C2350 C 0.01871 0.51493 0.12322 0.0
C2351 C 0.01331 0.52335 0.13666 0.0
C2352 C 0.02535 0.52831 0.15103 0.0
H2353 H 0.04797 0.48106 0.17918 0.0
H2354 H 0.03364 0.48648 0.16358 0.0
H2355 H 0.06103 0.49215 0.16023 0.0
H2356 H 0.06346 0.51588 0.13915 0.0
H2357 H 0.0417 0.50587 0.11439 0.0
H2358 H 0.45468 0.52704 0.2509 0.0
H2359 H 0.46421 0.51931 0.22413 0.0
H2360 H 0.4788 0.58114 0.20739 0.0
H2361 H 0.46973 0.58908 0.23416 0.0
H2362 H 0.44879 0.51778 0.19343 0.0
H2363 H 0.53473 0.58191 0.19767 0.0
H2364 H 0.5167 0.57368 0.21485 0.0
H2365 H 0.51589 0.59129 0.19994 0.0
C2366 C 0.45977 0.5389 0.24146 0.0
C2367 C 0.46173 0.55876 0.24466 0.0
C2368 C 0.46525 0.53449 0.22619 0.0
C2369 C 0.47271 0.54983 0.21387 0.0
C2370 C 0.47372 0.5693 0.21685 0.0
H2371 H 0.51804 0.55358 0.11498 0.0
H2372 H 0.50285 0.55961 0.13982 0.0
C2373 C 0.46846 0.57379 0.23212 0.0
C2374 C 0.47978 0.54563 0.198 0.0
H2375 H 0.52302 0.56439 0.17223 0.0
C2376 C 0.46503 0.52793 0.18881 0.0
C2377 C 0.50103 0.55886 0.19201 0.0
C2378 C 0.51808 0.57737 0.20169 0.0
C2379 C 0.47089 0.52327 0.17371 0.0
C2380 C 0.49204 0.53661 0.16771 0.0
C2381 C 0.50675 0.55432 0.17683 0.0
C2382 C 0.49959 0.53205 0.15227 0.0
C2383 C 0.45441 0.50427 0.16418 0.0
C2384 C 0.50274 0.51455 0.15109 0.0
C2385 C 0.5115 0.51115 0.13699 0.0
C2386 C 0.51722 0.52515 0.1238 0.0
C2387 C 0.5136 0.54242 0.12489 0.0
C2388 C 0.50501 0.54592 0.13907 0.0
H2389 H 0.43769 0.49815 0.16884 0.0
H2390 H 0.45481 0.5083 0.15114 0.0
H2391 H 0.45841 0.4914 0.16509 0.0
H2392 H 0.49889 0.50381 0.16123 0.0
H2393 H 0.51395 0.49763 0.13646 0.0
H2394 H 0.89518 0.42111 0.79284 0.0
H2395 H 0.91325 0.43147 0.81923 0.0
H2396 H 0.95279 0.49571 0.80238 0.0
H2397 H 0.93541 0.48526 0.77567 0.0
H2398 H 0.97676 0.48085 0.81643 0.0
H2399 H 0.90802 0.46479 0.85656 0.0
H2400 H 0.90239 0.44225 0.84422 0.0
H2401 H 0.90651 0.46625 0.83475 0.0
C2402 C 0.9077 0.43746 0.79474 0.0
C2403 C 0.91393 0.45234 0.78211 0.0
C2404 C 0.91779 0.44343 0.80992 0.0
C2405 C 0.93412 0.46444 0.81286 0.0
C2406 C 0.94008 0.47944 0.8004 0.0
H2407 H 0.99438 0.50582 0.90908 0.0
H2408 H 0.9749 0.50274 0.88371 0.0
C2409 C 0.93004 0.47347 0.78518 0.0
C2410 C 0.9462 0.47023 0.82846 0.0
H2411 H 0.93963 0.46753 0.86961 0.0
C2412 C 0.96868 0.4782 0.82805 0.0
C2413 C 0.93571 0.46706 0.84362 0.0
C2414 C 0.91187 0.45983 0.84484 0.0
C2415 C 0.9808 0.48221 0.84239 0.0
C2416 C 0.97006 0.47771 0.85752 0.0
C2417 C 0.94777 0.47067 0.85797 0.0
C2418 C 0.98158 0.47947 0.87295 0.0
C2419 C 1.00498 0.49113 0.84119 0.0
C2420 C 0.99138 0.4671 0.87539 0.0
C2421 C 1.00244 0.46879 0.88983 0.0
C2422 C 1.00377 0.48277 0.90217 0.0
C2423 C 0.99353 0.49483 0.89983 0.0
C2424 C 0.98249 0.49316 0.88534 0.0
H2425 H 0.01144 0.4995 0.82949 0.0
H2426 H 0.01368 0.50234 0.85131 0.0
H2427 H 0.00853 0.47795 0.84183 0.0
H2428 H 0.99038 0.45603 0.86615 0.0
H2429 H 0.00976 0.45896 0.8914 0.0
H2430 H 0.57181 0.49418 0.77525 0.0
H2431 H 0.56133 0.49922 0.80244 0.0
H2432 H 0.55871 0.44152 0.81827 0.0
H2433 H 0.56834 0.43601 0.79083 0.0
H2434 H 0.52544 0.44276 0.82956 0.0
H2435 H 0.5975 0.52073 0.84229 0.0
H2436 H 0.58417 0.52172 0.82412 0.0
H2437 H 0.596 0.50487 0.82495 0.0
C2438 C 0.56912 0.48266 0.78458 0.0
C2439 C 0.57099 0.46477 0.78098 0.0
C2440 C 0.5633 0.48563 0.80016 0.0
C2441 C 0.55977 0.47106 0.81258 0.0
C2442 C 0.56148 0.45307 0.80895 0.0
H2443 H 0.54673 0.50517 0.91251 0.0
H2444 H 0.5597 0.49541 0.88835 0.0
C2445 C 0.56694 0.44991 0.79328 0.0
C2446 C 0.55344 0.47416 0.82915 0.0
H2447 H 0.56648 0.511 0.85925 0.0
C2448 C 0.53458 0.45761 0.83612 0.0
C2449 C 0.56559 0.49332 0.83798 0.0
C2450 C 0.58706 0.51105 0.83202 0.0
C2451 C 0.52708 0.45997 0.85132 0.0
C2452 C 0.53829 0.47972 0.85954 0.0
C2453 C 0.55763 0.49596 0.85288 0.0
C2454 C 0.52988 0.48417 0.8747 0.0
C2455 C 0.50733 0.44115 0.85842 0.0
C2456 C 0.50878 0.48108 0.87517 0.0
C2457 C 0.50114 0.48616 0.8891 0.0
C2458 C 0.51459 0.49501 0.90282 0.0
C2459 C 0.53575 0.49809 0.90233 0.0
C2460 C 0.54328 0.4927 0.88844 0.0
H2461 H 0.50569 0.42599 0.85397 0.0
H2462 H 0.50797 0.44127 0.87189 0.0
H2463 H 0.49258 0.44152 0.85455 0.0
H2464 H 0.49827 0.47508 0.86463 0.0
H2465 H 0.48466 0.48323 0.88904 0.0
H2466 H 0.5194 0.08187 0.77483 0.0
H2467 H 0.51175 0.06593 0.80175 0.0
H2468 H 0.57759 0.10936 0.81659 0.0
H2469 H 0.58515 0.12611 0.78981 0.0
H2470 H 0.52955 0.04587 0.8178 0.0
H2471 H 0.5436 0.11702 0.85283 0.0
H2472 H 0.54134 0.11564 0.83098 0.0
H2473 H 0.56613 0.12069 0.84068 0.0
C2474 C 0.53222 0.08828 0.78386 0.0
C2475 C 0.55284 0.1055 0.78016 0.0
C2476 C 0.52785 0.07901 0.79924 0.0
C2477 C 0.54395 0.08666 0.81133 0.0
C2478 C 0.56474 0.10348 0.8076 0.0
H2479 H 0.53353 0.03674 0.91041 0.0
H2480 H 0.54814 0.0571 0.88531 0.0
C2481 C 0.56912 0.11286 0.79219 0.0
C2482 C 0.53882 0.07667 0.82769 0.0
H2483 H 0.53507 0.08624 0.86794 0.0
C2484 C 0.53086 0.05474 0.82875 0.0
C2485 C 0.54055 0.08824 0.84203 0.0
C2486 C 0.54819 0.11166 0.84164 0.0
C2487 C 0.52431 0.04405 0.84364 0.0
C2488 C 0.52561 0.05553 0.85788 0.0
C2489 C 0.53414 0.07753 0.85698 0.0
C2490 C 0.51689 0.04457 0.87357 0.0
C2491 C 0.51584 0.02048 0.84406 0.0
C2492 C 0.49447 0.0313 0.87542 0.0
C2493 C 0.48607 0.01985 0.88974 0.0
C2494 C 0.49991 0.02133 0.90254 0.0
C2495 C 0.52237 0.03528 0.90086 0.0
C2496 C 0.53078 0.04685 0.8865 0.0
H2497 H 0.52022 0.01483 0.83292 0.0
H2498 H 0.52226 0.0162 0.85482 0.0
H2499 H 0.49789 0.012 0.84498 0.0
H2500 H 0.48345 0.02959 0.86568 0.0
H2501 H 0.46866 0.00969 0.89071 0.0
H2502 H 0.12636 0.21263 0.5694 0.0
H2503 H 0.13689 0.22968 0.54269 0.0
H2504 H 0.12196 0.27739 0.55857 0.0
H2505 H 0.11174 0.2607 0.58528 0.0
H2506 H 0.11075 0.23923 0.52013 0.0
H2507 H 0.1855 0.31104 0.54151 0.0
H2508 H 0.1723 0.2868 0.55311 0.0
H2509 H 0.16147 0.30442 0.55295 0.0
C2510 C 0.12548 0.22684 0.56723 0.0
C2511 C 0.11825 0.23532 0.57949 0.0
C2512 C 0.13136 0.23647 0.55194 0.0
C2513 C 0.13038 0.2549 0.54871 0.0
C2514 C 0.12304 0.26331 0.56086 0.0
H2515 H 0.16303 0.34499 0.47131 0.0
H2516 H 0.15063 0.32384 0.49606 0.0
C2517 C 0.11704 0.25364 0.57608 0.0
C2518 C 0.13706 0.26548 0.53267 0.0
H2519 H 0.17389 0.31183 0.51468 0.0
C2520 C 0.12464 0.25504 0.51886 0.0
C2521 C 0.15518 0.28609 0.53109 0.0
C2522 C 0.16954 0.29774 0.54541 0.0
C2523 C 0.12945 0.26498 0.50358 0.0
C2524 C 0.14743 0.28575 0.50205 0.0
C2525 C 0.16005 0.29597 0.51585 0.0
C2526 C 0.15327 0.29754 0.48642 0.0
C2527 C 0.11478 0.25346 0.48938 0.0
C2528 C 0.15866 0.28973 0.47263 0.0
C2529 C 0.16567 0.3018 0.45838 0.0
C2530 C 0.16772 0.32203 0.45775 0.0
C2531 C 0.16187 0.32957 0.47146 0.0
C2532 C 0.15473 0.31748 0.48561 0.0
H2533 H 0.09878 0.24036 0.49341 0.0
H2534 H 0.11211 0.26448 0.48172 0.0
H2535 H 0.12248 0.24646 0.48177 0.0
H2536 H 0.15812 0.27461 0.47303 0.0
H2537 H 0.1703 0.29568 0.44808 0.0
H2538 H 0.79946 0.87271 0.56724 0.0
H2539 H 0.78231 0.86653 0.54046 0.0
H2540 H 0.74311 0.89253 0.55732 0.0
H2541 H 0.75977 0.89837 0.58422 0.0
H2542 H 0.73641 0.84109 0.53406 0.0
H2543 H 0.77052 0.92466 0.51431 0.0
H2544 H 0.78242 0.91703 0.53046 0.0
H2545 H 0.75855 0.91885 0.53418 0.0
C2546 C 0.78713 0.87705 0.56528 0.0
C2547 C 0.78098 0.88603 0.57789 0.0
C2548 C 0.77747 0.87363 0.54995 0.0
C2549 C 0.76168 0.87933 0.5469 0.0
C2550 C 0.75559 0.88842 0.55937 0.0
H2551 H 0.67572 0.86772 0.46921 0.0
H2552 H 0.69758 0.87596 0.4939 0.0
C2553 C 0.76516 0.89177 0.57473 0.0
C2554 C 0.75075 0.87479 0.53091 0.0
H2555 H 0.7419 0.89828 0.49827 0.0
C2556 C 0.73773 0.85355 0.52614 0.0
C2557 C 0.75253 0.89114 0.5207 0.0
C2558 C 0.76689 0.91423 0.52505 0.0
C2559 C 0.72581 0.84817 0.5116 0.0
C2560 C 0.7274 0.86452 0.50142 0.0
C2561 C 0.74073 0.88579 0.5061 0.0
C2562 C 0.71469 0.85988 0.48619 0.0
C2563 C 0.71102 0.82502 0.50757 0.0
C2564 C 0.71732 0.8484 0.47356 0.0
C2565 C 0.70463 0.84341 0.4595 0.0
C2566 C 0.68922 0.85 0.45777 0.0
C2567 C 0.68711 0.86203 0.47028 0.0
C2568 C 0.69973 0.86692 0.48434 0.0
H2569 H 0.70755 0.81479 0.51842 0.0
H2570 H 0.69539 0.82229 0.50243 0.0
H2571 H 0.71895 0.81999 0.4984 0.0
H2572 H 0.7291 0.84318 0.47461 0.0
H2573 H 0.70659 0.83402 0.45015 0.0
H2574 H 0.16545 0.90155 0.58298 0.0
H2575 H 0.17363 0.89339 0.55608 0.0
H2576 H 0.10729 0.86982 0.54128 0.0
H2577 H 0.09912 0.87877 0.56808 0.0
H2578 H 0.15629 0.85512 0.54036 0.0
H2579 H 0.14093 0.91134 0.50503 0.0
H2580 H 0.1434 0.91258 0.52688 0.0
H2581 H 0.11874 0.89282 0.51736 0.0
C2582 C 0.15263 0.89492 0.57396 0.0
C2583 C 0.13168 0.89108 0.57766 0.0
C2584 C 0.15731 0.8901 0.55861 0.0
C2585 C 0.14118 0.88131 0.54657 0.0
C2586 C 0.12011 0.877 0.55027 0.0
H2587 H 0.15483 0.84445 0.4473 0.0
H2588 H 0.13932 0.84924 0.47244 0.0
C2589 C 0.11541 0.88189 0.56566 0.0
C2590 C 0.14662 0.87643 0.53031 0.0
H2591 H 0.15098 0.88982 0.49016 0.0
C2592 C 0.15502 0.86264 0.52939 0.0
C2593 C 0.14489 0.8862 0.51597 0.0
C2594 C 0.13667 0.9017 0.51629 0.0
C2595 C 0.16208 0.85863 0.5146 0.0
C2596 C 0.16089 0.86882 0.50037 0.0
C2597 C 0.15186 0.88207 0.50113 0.0
C2598 C 0.17017 0.86681 0.48483 0.0
C2599 C 0.17096 0.84366 0.5143 0.0
C2600 C 0.19266 0.87556 0.48338 0.0
C2601 C 0.20158 0.87306 0.46903 0.0
C2602 C 0.18819 0.86168 0.45581 0.0
C2603 C 0.16565 0.85342 0.45717 0.0
C2604 C 0.15673 0.85604 0.47155 0.0
H2605 H 0.16618 0.83345 0.52525 0.0
H2606 H 0.16523 0.83337 0.50333 0.0
H2607 H 0.18894 0.85301 0.5139 0.0
H2608 H 0.20333 0.88424 0.49341 0.0
H2609 H 0.21903 0.88007 0.46831 0.0
H2610 H 0.60088 0.8179 0.11007 0.0
H2611 H 0.61879 0.82786 0.13662 0.0
H2612 H 0.57917 0.76348 0.15311 0.0
H2613 H 0.56052 0.75359 0.12691 0.0
H2614 H 0.58399 0.79279 0.17633 0.0
H2615 H 0.66371 0.81188 0.15031 0.0
H2616 H 0.65202 0.8266 0.1418 0.0
H2617 H 0.63879 0.79837 0.13882 0.0
C2618 C 0.59572 0.80594 0.11943 0.0
C2619 C 0.57943 0.78488 0.1163 0.0
C2620 C 0.60615 0.81161 0.13454 0.0
C2621 C 0.60061 0.79631 0.14671 0.0
C2622 C 0.58381 0.7755 0.14384 0.0
H2623 H 0.67469 0.79162 0.2269 0.0
H2624 H 0.65474 0.78751 0.20172 0.0
C2625 C 0.57331 0.76984 0.1288 0.0
C2626 C 0.61272 0.80162 0.16227 0.0
H2627 H 0.66271 0.81732 0.17844 0.0
C2628 C 0.60123 0.79827 0.17682 0.0
C2629 C 0.63515 0.80851 0.16284 0.0
C2630 C 0.64815 0.81139 0.14764 0.0
C2631 C 0.61152 0.80138 0.19197 0.0
C2632 C 0.63398 0.80841 0.19252 0.0
C2633 C 0.64551 0.81205 0.17796 0.0
C2634 C 0.64565 0.81089 0.20801 0.0
C2635 C 0.59812 0.79637 0.2072 0.0
C2636 C 0.64722 0.82547 0.21988 0.0
C2637 C 0.6586 0.82782 0.23433 0.0
C2638 C 0.66881 0.81581 0.23703 0.0
C2639 C 0.66723 0.80128 0.22508 0.0
C2640 C 0.65577 0.79886 0.21072 0.0
H2641 H 0.58048 0.78651 0.20461 0.0
H2642 H 0.60277 0.78788 0.2161 0.0
H2643 H 0.60101 0.81139 0.21291 0.0
H2644 H 0.63991 0.83523 0.21789 0.0
H2645 H 0.65979 0.83933 0.24324 0.0
H2646 H 0.23789 0.82611 0.10742 0.0
H2647 H 0.22691 0.83139 0.13435 0.0
H2648 H 0.22381 0.77374 0.15091 0.0
H2649 H 0.23396 0.76799 0.12371 0.0
H2650 H 0.19051 0.77548 0.16184 0.0
H2651 H 0.26314 0.8532 0.17421 0.0
H2652 H 0.24999 0.85405 0.15589 0.0
H2653 H 0.26152 0.83696 0.15709 0.0
C2654 C 0.23494 0.81463 0.11685 0.0
C2655 C 0.23689 0.79672 0.11355 0.0
C2656 C 0.22884 0.81773 0.13227 0.0
C2657 C 0.2251 0.80328 0.14484 0.0
C2658 C 0.22676 0.7852 0.14147 0.0
H2659 H 0.21274 0.83914 0.24423 0.0
H2660 H 0.22532 0.82876 0.2202 0.0
C2661 C 0.23251 0.7819 0.12595 0.0
C2662 C 0.21877 0.8067 0.1613 0.0
H2663 H 0.23218 0.84401 0.19106 0.0
C2664 C 0.19977 0.79039 0.16831 0.0
C2665 C 0.23108 0.82594 0.16999 0.0
C2666 C 0.25269 0.84341 0.16398 0.0
C2667 C 0.19232 0.79308 0.18342 0.0
C2668 C 0.20374 0.81291 0.1915 0.0
C2669 C 0.22319 0.82891 0.18479 0.0
C2670 C 0.1955 0.81769 0.20659 0.0
C2671 C 0.17242 0.7745 0.1906 0.0
C2672 C 0.17452 0.81492 0.20704 0.0
C2673 C 0.16708 0.82034 0.22091 0.0
C2674 C 0.18063 0.82924 0.23457 0.0
C2675 C 0.20167 0.83202 0.23409 0.0
C2676 C 0.20899 0.82628 0.22028 0.0
H2677 H 0.17054 0.75919 0.18628 0.0
H2678 H 0.17306 0.77476 0.20407 0.0
H2679 H 0.1578 0.77507 0.18666 0.0
H2680 H 0.16396 0.80889 0.19653 0.0
H2681 H 0.15068 0.81764 0.22084 0.0
H2682 H 0.25275 0.46058 0.12432 0.0
H2683 H 0.24498 0.44451 0.15141 0.0
H2684 H 0.17909 0.40114 0.13677 0.0
H2685 H 0.18676 0.41662 0.10964 0.0
H2686 H 0.18544 0.42557 0.16726 0.0
H2687 H 0.23255 0.38337 0.16475 0.0
H2688 H 0.24583 0.41064 0.15837 0.0
H2689 H 0.22371 0.39082 0.14661 0.0
C2690 C 0.23671 0.44737 0.12677 0.0
C2691 C 0.22036 0.44 0.11478 0.0
C2692 C 0.23229 0.43827 0.14227 0.0
C2693 C 0.21147 0.42162 0.14607 0.0
C2694 C 0.19524 0.41402 0.1341 0.0
H2695 H 0.13597 0.34316 0.22482 0.0
H2696 H 0.1504 0.36446 0.20039 0.0
C2697 C 0.19965 0.423 0.11862 0.0
C2698 C 0.20617 0.4125 0.16265 0.0
H2699 H 0.21336 0.38017 0.1888 0.0
C2700 C 0.19164 0.41575 0.17203 0.0
C2701 C 0.21446 0.3999 0.16889 0.0
C2702 C 0.22993 0.39579 0.15918 0.0
C2703 C 0.1849 0.40645 0.1874 0.0
C2704 C 0.19243 0.39305 0.19338 0.0
C2705 C 0.20753 0.39037 0.18421 0.0
C2706 C 0.1838 0.38064 0.20859 0.0
C2707 C 0.16981 0.41114 0.19709 0.0
C2708 C 0.19779 0.38224 0.22127 0.0
C2709 C 0.18958 0.36977 0.23524 0.0
C2710 C 0.16722 0.3553 0.23673 0.0
C2711 C 0.15329 0.35393 0.22404 0.0
C2712 C 0.16149 0.36634 0.21012 0.0
H2713 H 0.17145 0.4266 0.19358 0.0
H2714 H 0.1528 0.39864 0.19464 0.0
H2715 H 0.17295 0.41144 0.21033 0.0
H2716 H 0.21509 0.39305 0.22031 0.0
H2717 H 0.2008 0.37105 0.24467 0.0
H2718 H 0.79425 0.54696 0.90481 0.0
H2719 H 0.80472 0.56394 0.87807 0.0
H2720 H 0.78934 0.61141 0.89376 0.0
H2721 H 0.77915 0.59477 0.92049 0.0
H2722 H 0.77822 0.57332 0.85544 0.0
H2723 H 0.85305 0.64517 0.8767 0.0
H2724 H 0.83998 0.6209 0.88827 0.0
H2725 H 0.82904 0.63842 0.88821 0.0
C2726 C 0.79325 0.5611 0.90259 0.0
C2727 C 0.78589 0.56953 0.91481 0.0
C2728 C 0.7991 0.57069 0.88729 0.0
C2729 C 0.79796 0.58902 0.88399 0.0
C2730 C 0.79052 0.59738 0.8961 0.0
H2731 H 0.83069 0.67909 0.80653 0.0
H2732 H 0.81835 0.658 0.83132 0.0
C2733 C 0.78455 0.58776 0.91134 0.0
C2734 C 0.8046 0.59956 0.86793 0.0
H2735 H 0.84143 0.64585 0.84986 0.0
C2736 C 0.79212 0.58911 0.85415 0.0
C2737 C 0.82273 0.62015 0.86631 0.0
C2738 C 0.83713 0.63182 0.88061 0.0
C2739 C 0.79688 0.59904 0.83886 0.0
C2740 C 0.81489 0.61978 0.83728 0.0
C2741 C 0.82757 0.63001 0.85106 0.0
C2742 C 0.82069 0.63156 0.82163 0.0
C2743 C 0.78213 0.58751 0.8247 0.0
C2744 C 0.82591 0.62365 0.80781 0.0
C2745 C 0.83287 0.63568 0.79353 0.0
C2746 C 0.83506 0.65598 0.79292 0.0
C2747 C 0.8294 0.66362 0.80667 0.0
C2748 C 0.82231 0.65156 0.82085 0.0
H2749 H 0.76611 0.57448 0.82878 0.0
H2750 H 0.7795 0.59855 0.81702 0.0
H2751 H 0.78972 0.58041 0.81709 0.0
H2752 H 0.82525 0.60848 0.80819 0.0
H2753 H 0.83735 0.62948 0.7832 0.0
H2754 H 0.41555 0.1847 0.91794 0.0
H2755 H 0.39813 0.17923 0.89133 0.0
H2756 H 0.44507 0.24322 0.87781 0.0
H2757 H 0.46275 0.24883 0.90445 0.0
H2758 H 0.38232 0.20809 0.87736 0.0
H2759 H 0.44415 0.20109 0.84061 0.0
H2760 H 0.44091 0.19547 0.86211 0.0
H2761 H 0.45325 0.22235 0.85524 0.0
C2762 C 0.42229 0.19755 0.90925 0.0
C2763 C 0.44057 0.21716 0.91323 0.0
C2764 C 0.41227 0.19442 0.89411 0.0
C2765 C 0.42047 0.21077 0.88264 0.0
C2766 C 0.43867 0.23039 0.88651 0.0
H2767 H 0.37706 0.20874 0.78291 0.0
H2768 H 0.39812 0.21859 0.80824 0.0
C2769 C 0.44863 0.2336 0.90173 0.0
C2770 C 0.4095 0.20729 0.86676 0.0
H2771 H 0.41352 0.19753 0.82675 0.0
C2772 C 0.38914 0.20587 0.86626 0.0
C2773 C 0.41861 0.2046 0.85236 0.0
C2774 C 0.4404 0.20584 0.85246 0.0
C2775 C 0.37747 0.20163 0.85167 0.0
C2776 C 0.38619 0.19815 0.83732 0.0
C2777 C 0.40683 0.20008 0.83778 0.0
C2778 C 0.37383 0.19189 0.82186 0.0
C2779 C 0.35602 0.20113 0.85175 0.0
C2780 C 0.35348 0.17334 0.82103 0.0
C2781 C 0.34144 0.16775 0.80664 0.0
C2782 C 0.34965 0.18044 0.79274 0.0
C2783 C 0.37037 0.19862 0.79342 0.0
C2784 C 0.38236 0.2043 0.80788 0.0
H2785 H 0.35491 0.21033 0.86212 0.0
H2786 H 0.35347 0.20762 0.8403 0.0
H2787 H 0.34269 0.18448 0.853 0.0
H2788 H 0.34687 0.1632 0.83153 0.0
H2789 H 0.32572 0.15342 0.80638 0.0
H2790 H 0.83234 0.23375 0.91737 0.0
H2791 H 0.84125 0.22538 0.89078 0.0
H2792 H 0.7746 0.19886 0.87564 0.0
H2793 H 0.76569 0.20801 0.90209 0.0
H2794 H 0.82583 0.18727 0.87512 0.0
H2795 H 0.80697 0.24083 0.83943 0.0
H2796 H 0.80924 0.2422 0.86128 0.0
H2797 H 0.78511 0.22168 0.85167 0.0
C2798 C 0.81959 0.22635 0.90834 0.0
C2799 C 0.79835 0.22183 0.9118 0.0
C2800 C 0.82468 0.22142 0.89318 0.0
C2801 C 0.80869 0.21185 0.88111 0.0
C2802 C 0.78731 0.20667 0.88465 0.0
H2803 H 0.82439 0.17679 0.78183 0.0
H2804 H 0.80846 0.18056 0.80711 0.0
C2805 C 0.78219 0.21167 0.89984 0.0
C2806 C 0.81464 0.20732 0.86491 0.0
H2807 H 0.81831 0.22024 0.82469 0.0
C2808 C 0.82408 0.19441 0.86409 0.0
C2809 C 0.81232 0.21661 0.8505 0.0
C2810 C 0.80303 0.23125 0.85069 0.0
C2811 C 0.83155 0.19078 0.84934 0.0
C2812 C 0.8297 0.20047 0.83504 0.0
C2813 C 0.81968 0.21286 0.83571 0.0
C2814 C 0.83922 0.19885 0.81949 0.0
C2815 C 0.84149 0.17671 0.84915 0.0
C2816 C 0.86179 0.20832 0.81798 0.0
C2817 C 0.87095 0.20642 0.80355 0.0
C2818 C 0.85772 0.19493 0.79029 0.0
C2819 C 0.83508 0.18587 0.79172 0.0
C2820 C 0.82593 0.1879 0.80619 0.0
H2821 H 0.83709 0.16657 0.86013 0.0
H2822 H 0.83625 0.16638 0.83819 0.0
H2823 H 0.85942 0.18676 0.84881 0.0
H2824 H 0.87234 0.21718 0.82802 0.0
H2825 H 0.88844 0.21402 0.80278 0.0
H2826 H 0.27296 0.10655 0.4448 0.0
H2827 H 0.29064 0.11559 0.47136 0.0
H2828 H 0.2509 0.14207 0.48585 0.0
H2829 H 0.23243 0.13226 0.45947 0.0
H2830 H 0.31409 0.15454 0.48623 0.0
H2831 H 0.24143 0.10114 0.52275 0.0
H2832 H 0.24203 0.0991 0.50094 0.0
H2833 H 0.23847 0.11959 0.51009 0.0
C2834 C 0.26775 0.11404 0.4537 0.0
C2835 C 0.25108 0.11844 0.45007 0.0
C2836 C 0.278 0.11936 0.46883 0.0
C2837 C 0.27184 0.12918 0.48067 0.0
C2838 C 0.25559 0.1341 0.477 0.0
H2839 H 0.32337 0.16811 0.57939 0.0
H2840 H 0.30377 0.16334 0.5538 0.0
C2841 C 0.24524 0.12871 0.46185 0.0
C2842 C 0.28268 0.13435 0.49677 0.0
H2843 H 0.27389 0.12287 0.5372 0.0
C2844 C 0.30529 0.14768 0.49738 0.0
C2845 C 0.27114 0.12541 0.5113 0.0
C2846 C 0.24696 0.11037 0.51131 0.0
C2847 C 0.3167 0.1521 0.5121 0.0
C2848 C 0.30522 0.14279 0.52655 0.0
C2849 C 0.28258 0.12996 0.52605 0.0
C2850 C 0.31664 0.14535 0.54214 0.0
C2851 C 0.34097 0.16662 0.51212 0.0
C2852 C 0.32999 0.13644 0.54409 0.0
C2853 C 0.34099 0.13891 0.5587 0.0
C2854 C 0.3389 0.15039 0.57167 0.0
C2855 C 0.3252 0.15902 0.56972 0.0
C2856 C 0.31409 0.15643 0.5551 0.0
H2857 H 0.34661 0.17633 0.50091 0.0
H2858 H 0.34623 0.17738 0.52282 0.0
H2859 H 0.34901 0.15693 0.51281 0.0
H2860 H 0.33182 0.1275 0.5343 0.0
H2861 H 0.35101 0.13166 0.55988 0.0
H2862 H 0.86907 0.11516 0.44249 0.0
H2863 H 0.85792 0.12051 0.46936 0.0
H2864 H 0.92447 0.15174 0.48558 0.0
H2865 H 0.93576 0.14621 0.45883 0.0
H2866 H 0.86463 0.10706 0.50047 0.0
H2867 H 0.90443 0.19486 0.49599 0.0
H2868 H 0.8996 0.17807 0.47848 0.0
H2869 H 0.92162 0.18381 0.4921 0.0
C2870 C 0.88133 0.12299 0.4518 0.0
C2871 C 0.90334 0.13037 0.44845 0.0
C2872 C 0.87494 0.12612 0.46713 0.0
C2873 C 0.89041 0.13679 0.47937 0.0
C2874 C 0.91233 0.14384 0.47619 0.0
H2875 H 0.87763 0.17681 0.577 0.0
H2876 H 0.89168 0.16897 0.55239 0.0
C2877 C 0.91874 0.1407 0.46088 0.0
C2878 C 0.88354 0.14048 0.49547 0.0
H2879 H 0.88772 0.17949 0.52091 0.0
C2880 C 0.86967 0.12288 0.50496 0.0
C2881 C 0.89027 0.16115 0.50133 0.0
C2882 C 0.90466 0.1806 0.49144 0.0
C2883 C 0.86236 0.12541 0.52019 0.0
C2884 C 0.86872 0.14607 0.5259 0.0
C2885 C 0.88288 0.16367 0.51652 0.0
C2886 C 0.86015 0.14978 0.54124 0.0
C2887 C 0.84809 0.10592 0.53008 0.0
C2888 C 0.83778 0.14164 0.54313 0.0
C2889 C 0.82971 0.14596 0.5572 0.0
C2890 C 0.84385 0.1587 0.56964 0.0
C2891 C 0.86627 0.16672 0.56776 0.0
C2892 C 0.87433 0.16238 0.55366 0.0
H2893 H 0.85016 0.09232 0.52648 0.0
H2894 H 0.85165 0.10902 0.54326 0.0
H2895 H 0.83085 0.10124 0.52802 0.0
H2896 H 0.82655 0.13224 0.53359 0.0
H2897 H 0.81235 0.13935 0.5583 0.0
H2898 H 0.89418 0.75247 0.4441 0.0
H2899 H 0.88467 0.73532 0.47078 0.0
H2900 H 0.87494 0.78558 0.48899 0.0
H2901 H 0.88332 0.80206 0.46211 0.0
H2902 H 0.90028 0.74519 0.50012 0.0
H2903 H 0.81836 0.73622 0.501 0.0
H2904 H 0.83532 0.74511 0.48325 0.0
H2905 H 0.83924 0.76344 0.49942 0.0
C2906 C 0.89008 0.75984 0.45386 0.0
C2907 C 0.88925 0.77844 0.45105 0.0
C2908 C 0.88463 0.75005 0.46909 0.0
C2909 C 0.87849 0.75881 0.48186 0.0
C2910 C 0.87882 0.77804 0.47924 0.0
H2911 H 0.86659 0.71022 0.5816 0.0
H2912 H 0.87943 0.73252 0.55744 0.0
C2913 C 0.8838 0.78757 0.46393 0.0
C2914 C 0.87148 0.74763 0.49777 0.0
H2915 H 0.83026 0.72805 0.5254 0.0
C2916 C 0.88493 0.74139 0.50562 0.0
C2917 C 0.85129 0.74235 0.50491 0.0
C2918 C 0.83513 0.74692 0.49663 0.0
C2919 C 0.87878 0.72999 0.52028 0.0
C2920 C 0.85893 0.72535 0.52769 0.0
C2921 C 0.84558 0.73176 0.51989 0.0
C2922 C 0.8509 0.71267 0.54291 0.0
C2923 C 0.89327 0.72234 0.52726 0.0
C2924 C 0.83008 0.69469 0.54323 0.0
C2925 C 0.82236 0.68233 0.55722 0.0
C2926 C 0.83535 0.68737 0.57128 0.0
C2927 C 0.85602 0.70575 0.57109 0.0
C2928 C 0.86359 0.71837 0.55713 0.0
H2929 H 0.90415 0.72173 0.51789 0.0
H2930 H 0.90364 0.73349 0.53691 0.0
H2931 H 0.88361 0.70631 0.53264 0.0
H2932 H 0.81979 0.69 0.53253 0.0
H2933 H 0.80611 0.66875 0.55693 0.0
loop_
_geom_bond_atom_site_label_1
_geom_bond_atom_site_label_2
_geom_bond_distance
_geom_bond_site_symmetry_2
_ccdc_geom_bond_type
H0 C7 0.929 . S
H1 C10 0.930 . S
H2 C12 0.929 . S
H3 C4 0.969 . S
C4 H3 0.969 . S
C4 O5 1.550 . S
C4 H6 0.973 . S
O5 C4 1.550 . S
O5 C11 1.412 . S
H6 C4 0.973 . S
C7 H0 0.929 . S
C7 C8 1.400 . S
C7 C9 1.364 . S
C8 C7 1.400 . S
C8 C12 1.377 . S
C9 C7 1.364 . S
C9 C10 1.374 . S
C10 H1 0.930 . S
C10 C9 1.374 . S
C10 C11 1.383 . S
C11 O5 1.412 . S
C11 C10 1.383 . S
C11 C12 1.394 . S
C12 H2 0.929 . S
C12 C8 1.377 . S
C12 C11 1.394 . S
H13 C20 0.929 . S
H14 C23 0.930 . S
H15 C25 0.929 . S
H16 C17 0.969 . S
C17 H16 0.969 . S
C17 O18 1.550 . S
C17 H19 0.973 . S
O18 C17 1.550 . S
O18 C24 1.412 . S
H19 C17 0.973 . S
C20 H13 0.929 . S
C20 C21 1.400 . S
C20 C22 1.364 . S
C21 C20 1.400 . S
C21 C25 1.377 . S
C22 C20 1.364 . S
C22 C23 1.374 . S
C23 H14 0.930 . S
C23 C22 1.374 . S
C23 C24 1.383 . S
C24 O18 1.412 . S
C24 C23 1.383 . S
C24 C25 1.394 . S
C25 H15 0.929 . S
C25 C21 1.377 . S
C25 C24 1.394 . S
H26 C33 0.929 . S
H27 C36 0.930 . S
H28 C38 0.929 . S
H29 C30 0.969 . S
C30 H29 0.969 . S
C30 O31 1.550 . S
C30 H32 0.973 . S
O31 C30 1.550 . S
O31 C37 1.412 . S
H32 C30 0.973 . S
C33 H26 0.929 . S
C33 C34 1.400 . S
C33 C35 1.364 . S
C34 C33 1.400 . S
C34 C38 1.377 . S
C35 C33 1.364 . S
C35 C36 1.374 . S
C36 H27 0.930 . S
C36 C35 1.374 . S
C36 C37 1.383 . S
C37 O31 1.412 . S
C37 C36 1.383 . S
C37 C38 1.394 . S
C38 H28 0.929 . S
C38 C34 1.377 . S
C38 C37 1.394 . S
H39 C46 0.929 . S
H40 C49 0.930 . S
H41 C51 0.929 . S
H42 C43 0.969 . S
C43 H42 0.969 . S
C43 O44 1.550 . S
C43 H45 0.973 . S
O44 C43 1.550 . S
O44 C50 1.412 . S
H45 C43 0.973 . S
C46 H39 0.929 . S
C46 C47 1.400 . S
C46 C48 1.364 . S
C47 C46 1.400 . S
C47 C51 1.377 . S
C48 C46 1.364 . S
C48 C49 1.374 . S
C49 H40 0.930 . S
C49 C48 1.374 . S
C49 C50 1.383 . S
C50 O44 1.412 . S
C50 C49 1.383 . S
C50 C51 1.394 . S
C51 H41 0.929 . S
C51 C47 1.377 . S
C51 C50 1.394 . S
H52 C59 0.929 . S
H53 C62 0.930 . S
H54 C64 0.929 . S
H55 C56 0.969 . S
C56 H55 0.969 . S
C56 O57 1.550 . S
C56 H58 0.973 . S
O57 C56 1.550 . S
O57 C63 1.412 . S
H58 C56 0.973 . S
C59 H52 0.929 . S
C59 C60 1.400 . S
C59 C61 1.364 . S
C60 C59 1.400 . S
C60 C64 1.377 . S
C61 C59 1.364 . S
C61 C62 1.374 . S
C62 H53 0.930 . S
C62 C61 1.374 . S
C62 C63 1.383 . S
C63 O57 1.412 . S
C63 C62 1.383 . S
C63 C64 1.394 . S
C64 H54 0.929 . S
C64 C60 1.377 . S
C64 C63 1.394 . S
H65 C72 0.929 . S
H66 C75 0.930 . S
H67 C77 0.929 . S
H68 C69 0.969 . S
C69 H68 0.969 . S
C69 O70 1.550 . S
C69 H71 0.973 . S
O70 C69 1.550 . S
O70 C76 1.412 . S
H71 C69 0.973 . S
C72 H65 0.929 . S
C72 C73 1.400 . S
C72 C74 1.364 . S
C73 C72 1.400 . S
C73 C77 1.377 . S
C74 C72 1.364 . S
C74 C75 1.374 . S
C75 H66 0.930 . S
C75 C74 1.374 . S
C75 C76 1.383 . S
C76 O70 1.412 . S
C76 C75 1.383 . S
C76 C77 1.394 . S
C77 H67 0.929 . S
C77 C73 1.377 . S
C77 C76 1.394 . S
H78 C85 0.929 . S
H79 C88 0.930 . S
H80 C90 0.929 . S
H81 C82 0.969 . S
C82 H81 0.969 . S
C82 O83 1.550 . S
C82 H84 0.973 . S
O83 C82 1.550 . S
O83 C89 1.412 . S
H84 C82 0.973 . S
C85 H78 0.929 . S
C85 C86 1.400 . S
C85 C87 1.364 . S
C86 C85 1.400 . S
C86 C90 1.377 . S
C87 C85 1.364 . S
C87 C88 1.374 . S
C88 H79 0.930 . S
C88 C87 1.374 . S
C88 C89 1.383 . S
C89 O83 1.412 . S
C89 C88 1.383 . S
C89 C90 1.394 . S
C90 H80 0.929 . S
C90 C86 1.377 . S
C90 C89 1.394 . S
H91 C98 0.929 . S
H92 C101 0.930 . S
H93 C103 0.929 . S
H94 C95 0.969 . S
C95 H94 0.969 . S
C95 O96 1.550 . S
C95 H97 0.973 . S
O96 C95 1.550 . S
O96 C102 1.412 . S
H97 C95 0.973 . S
C98 H91 0.929 . S
C98 C99 1.400 . S
C98 C100 1.364 . S
C99 C98 1.400 . S
C99 C103 1.377 . S
C100 C98 1.364 . S
C100 C101 1.374 . S
C101 H92 0.930 . S
C101 C100 1.374 . S
C101 C102 1.383 . S
C102 O96 1.412 . S
C102 C101 1.383 . S
C102 C103 1.394 . S
C103 H93 0.929 . S
C103 C99 1.377 . S
C103 C102 1.394 . S
H104 C111 0.929 . S
H105 C114 0.930 . S
H106 C116 0.929 . S
H107 C108 0.969 . S
C108 H107 0.969 . S
C108 O109 1.550 . S
C108 H110 0.973 . S
O109 C108 1.550 . S
O109 C115 1.412 . S
H110 C108 0.973 . S
C111 H104 0.929 . S
C111 C112 1.400 . S
C111 C113 1.364 . S
C112 C111 1.400 . S
C112 C116 1.377 . S
C113 C111 1.364 . S
C113 C114 1.374 . S
C114 H105 0.930 . S
C114 C113 1.374 . S
C114 C115 1.383 . S
C115 O109 1.412 . S
C115 C114 1.383 . S
C115 C116 1.394 . S
C116 H106 0.929 . S
C116 C112 1.377 . S
C116 C115 1.394 . S
H117 C124 0.929 . S
H118 C127 0.930 . S
H119 C129 0.929 . S
H120 C121 0.969 . S
C121 H120 0.969 . S
C121 O122 1.550 . S
C121 H123 0.973 . S
O122 C121 1.550 . S
O122 C128 1.412 . S
H123 C121 0.973 . S
C124 H117 0.929 . S
C124 C125 1.400 . S
C124 C126 1.364 . S
C125 C124 1.400 . S
C125 C129 1.377 . S
C126 C124 1.364 . S
C126 C127 1.374 . S
C127 H118 0.930 . S
C127 C126 1.374 . S
C127 C128 1.383 . S
C128 O122 1.412 . S
C128 C127 1.383 . S
C128 C129 1.394 . S
C129 H119 0.929 . S
C129 C125 1.377 . S
C129 C128 1.394 . S
H130 C137 0.929 . S
H131 C140 0.930 . S
H132 C142 0.929 . S
H133 C134 0.969 . S
C134 H133 0.969 . S
C134 O135 1.550 . S
C134 H136 0.973 . S
O135 C134 1.550 . S
O135 C141 1.412 . S
H136 C134 0.973 . S
C137 H130 0.929 . S
C137 C138 1.400 . S
C137 C139 1.364 . S
C138 C137 1.400 . S
C138 C142 1.377 . S
C139 C137 1.364 . S
C139 C140 1.374 . S
C140 H131 0.930 . S
C140 C139 1.374 . S
C140 C141 1.383 . S
C141 O135 1.412 . S
C141 C140 1.383 . S
C141 C142 1.394 . S
C142 H132 0.929 . S
C142 C138 1.377 . S
C142 C141 1.394 . S
H143 C150 0.929 . S
H144 C153 0.930 . S
H145 C155 0.929 . S
H146 C147 0.969 . S
C147 H146 0.969 . S
C147 O148 1.550 . S
C147 H149 0.973 . S
O148 C147 1.550 . S
O148 C154 1.412 . S
H149 C147 0.973 . S
C150 H143 0.929 . S
C150 C151 1.400 . S
C150 C152 1.364 . S
C151 C150 1.400 . S
C151 C155 1.377 . S
C152 C150 1.364 . S
C152 C153 1.374 . S
C153 H144 0.930 . S
C153 C152 1.374 . S
C153 C154 1.383 . S
C154 O148 1.412 . S
C154 C153 1.383 . S
C154 C155 1.394 . S
C155 H145 0.929 . S
C155 C151 1.377 . S
C155 C154 1.394 . S
H156 C163 0.929 . S
H157 C166 0.930 . S
H158 C168 0.929 . S
H159 C160 0.969 . S
C160 H159 0.969 . S
C160 O161 1.550 . S
C160 H162 0.973 . S
O161 C160 1.550 . S
O161 C167 1.412 . S
H162 C160 0.973 . S
C163 H156 0.929 . S
C163 C164 1.400 . S
C163 C165 1.364 . S
C164 C163 1.400 . S
C164 C168 1.377 . S
C165 C163 1.364 . S
C165 C166 1.374 . S
C166 H157 0.930 . S
C166 C165 1.374 . S
C166 C167 1.383 . S
C167 O161 1.412 . S
C167 C166 1.383 . S
C167 C168 1.394 . S
C168 H158 0.929 . S
C168 C164 1.377 . S
C168 C167 1.394 . S
H169 C176 0.929 . S
H170 C179 0.930 . S
H171 C181 0.929 . S
H172 C173 0.969 . S
C173 H172 0.969 . S
C173 O174 1.550 . S
C173 H175 0.973 . S
O174 C173 1.550 . S
O174 C180 1.412 . S
H175 C173 0.973 . S
C176 H169 0.929 . S
C176 C177 1.400 . S
C176 C178 1.364 . S
C177 C176 1.400 . S
C177 C181 1.377 . S
C178 C176 1.364 . S
C178 C179 1.374 . S
C179 H170 0.930 . S
C179 C178 1.374 . S
C179 C180 1.383 . S
C180 O174 1.412 . S
C180 C179 1.383 . S
C180 C181 1.394 . S
C181 H171 0.929 . S
C181 C177 1.377 . S
C181 C180 1.394 . S
H182 C189 0.929 . S
H183 C192 0.930 . S
H184 C194 0.929 . S
H185 C186 0.969 . S
C186 H185 0.969 . S
C186 O187 1.550 . S
C186 H188 0.973 . S
O187 C186 1.550 . S
O187 C193 1.412 . S
H188 C186 0.973 . S
C189 H182 0.929 . S
C189 C190 1.400 . S
C189 C191 1.364 . S
C190 C189 1.400 . S
C190 C194 1.377 . S
C191 C189 1.364 . S
C191 C192 1.374 . S
C192 H183 0.930 . S
C192 C191 1.374 . S
C192 C193 1.383 . S
C193 O187 1.412 . S
C193 C192 1.383 . S
C193 C194 1.394 . S
C194 H184 0.929 . S
C194 C190 1.377 . S
C194 C193 1.394 . S
H195 C202 0.929 . S
H196 C205 0.930 . S
H197 C207 0.929 . S
H198 C199 0.969 . S
C199 H198 0.969 . S
C199 O200 1.550 . S
C199 H201 0.973 . S
O200 C199 1.550 . S
O200 C206 1.412 . S
H201 C199 0.973 . S
C202 H195 0.929 . S
C202 C203 1.400 . S
C202 C204 1.364 . S
C203 C202 1.400 . S
C203 C207 1.377 . S
C204 C202 1.364 . S
C204 C205 1.374 . S
C205 H196 0.930 . S
C205 C204 1.374 . S
C205 C206 1.383 . S
C206 O200 1.412 . S
C206 C205 1.383 . S
C206 C207 1.394 . S
C207 H197 0.929 . S
C207 C203 1.377 . S
C207 C206 1.394 . S
H208 C215 0.929 . S
H209 C218 0.930 . S
H210 C220 0.929 . S
H211 C212 0.969 . S
C212 H211 0.969 . S
C212 O213 1.550 . S
C212 H214 0.973 . S
O213 C212 1.550 . S
O213 C219 1.412 . S
H214 C212 0.973 . S
C215 H208 0.929 . S
C215 C216 1.400 . S
C215 C217 1.364 . S
C216 C215 1.400 . S
C216 C220 1.377 . S
C217 C215 1.364 . S
C217 C218 1.374 . S
C218 H209 0.930 . S
C218 C217 1.374 . S
C218 C219 1.383 . S
C219 O213 1.412 . S
C219 C218 1.383 . S
C219 C220 1.394 . S
C220 H210 0.929 . S
C220 C216 1.377 . S
C220 C219 1.394 . S
H221 C228 0.929 . S
H222 C231 0.930 . S
H223 C233 0.929 . S
H224 C225 0.969 . S
C225 H224 0.969 . S
C225 O226 1.550 . S
C225 H227 0.973 . S
O226 C225 1.550 . S
O226 C232 1.412 . S
H227 C225 0.973 . S
C228 H221 0.929 . S
C228 C229 1.400 . S
C228 C230 1.364 . S
C229 C228 1.400 . S
C229 C233 1.377 . S
C230 C228 1.364 . S
C230 C231 1.374 . S
C231 H222 0.930 . S
C231 C230 1.374 . S
C231 C232 1.383 . S
C232 O226 1.412 . S
C232 C231 1.383 . S
C232 C233 1.394 . S
C233 H223 0.929 . S
C233 C229 1.377 . S
C233 C232 1.394 . S
Gd234 N265 2.661 . S
Gd234 N271 2.601 . S
Gd234 O278 2.545 . S
Gd234 O279 2.606 1_545 S
Gd234 O281 2.429 . S
Gd234 O282 2.545 1_545 S
Gd234 O283 2.412 1_545 S
Gd234 O285 2.362 . S
Gd234 O286 2.324 1_545 S
Gd234 C293 2.828 . S
Gd235 N244 2.661 . S
Gd235 N248 2.601 . S
Gd235 O279 2.362 1_556 S
Gd235 O280 2.324 1_565 S
Gd235 O284 2.545 . S
Gd235 O285 2.606 1_566 S
Gd235 O287 2.429 1_556 S
Gd235 O288 2.545 1_565 S
Gd235 O289 2.412 1_565 S
Gd235 C302 2.828 1_565 S
C236 C239 1.417 . S
C236 C241 1.431 . S
C236 C242 1.412 . S
C237 C240 1.437 . S
C237 C241 1.317 . S
C237 H256 0.929 . S
C238 C239 1.426 . S
C238 C240 1.413 . S
C238 N248 1.359 . S
C239 C236 1.417 . S
C239 C238 1.426 . S
C239 N244 1.350 . S
C240 C237 1.437 . S
C240 C238 1.413 . S
C240 C250 1.391 . S
C241 C236 1.431 . S
C241 C237 1.317 . S
C241 H252 0.930 . S
C242 C236 1.412 . S
C242 C243 1.355 . S
C242 H254 0.930 . S
C243 C242 1.355 . S
C243 C245 1.402 . S
C243 H255 0.930 . S
N244 Gd235 2.661 . S
N244 C239 1.350 . S
N244 C245 1.307 . S
C245 C243 1.402 . S
C245 N244 1.307 . S
C245 H246 0.941 . S
H246 C245 0.941 . S
C247 N248 1.334 . S
C247 C249 1.394 . S
C247 H251 0.930 . S
N248 Gd235 2.601 . S
N248 C238 1.359 . S
N248 C247 1.334 . S
C249 C247 1.394 . S
C249 C250 1.359 . S
C249 H261 0.930 . S
C250 C240 1.391 . S
C250 C249 1.359 . S
C250 H262 0.929 . S
H251 C247 0.930 . S
H252 C241 0.930 . S
H253 C270 0.930 . S
H254 C242 0.930 . S
H255 C243 0.930 . S
H256 C237 0.929 . S
H257 C275 0.930 . S
H258 C266 0.930 . S
H259 C267 0.930 . S
H260 C291 0.929 . S
H261 C249 0.930 . S
H262 C250 0.929 . S
H263 C292 0.930 . S
H264 C273 0.930 . S
N265 Gd234 2.661 . S
N265 C269 1.350 . S
N265 C270 1.307 . S
C266 H258 0.930 . S
C266 C267 1.355 . S
C266 C268 1.412 . S
C267 H259 0.930 . S
C267 C266 1.355 . S
C267 C270 1.402 . S
C268 C266 1.412 . S
C268 C269 1.417 . S
C268 C292 1.431 . S
C269 N265 1.350 . S
C269 C268 1.417 . S
C269 C272 1.426 . S
C270 H253 0.930 . S
C270 N265 1.307 . S
C270 C267 1.402 . S
N271 Gd234 2.601 . S
N271 C272 1.359 . S
N271 C275 1.334 . S
C272 C269 1.426 . S
C272 N271 1.359 . S
C272 C276 1.413 . S
C273 H264 0.930 . S
C273 C274 1.359 . S
C273 C275 1.394 . S
C274 C273 1.359 . S
C274 C276 1.391 . S
C274 H277 0.929 . S
C275 H257 0.930 . S
C275 N271 1.334 . S
C275 C273 1.394 . S
C276 C272 1.413 . S
C276 C274 1.391 . S
C276 C291 1.437 . S
H277 C274 0.929 . S
O278 Gd234 2.545 . S
O278 C293 1.258 . S
O279 Gd234 2.606 1_565 S
O279 Gd235 2.362 1_554 S
O279 C290 1.284 . S
O280 Gd235 2.324 1_545 S
O280 C300 1.254 1_556 S
O281 Gd234 2.429 . S
O281 C300 1.268 . S
O282 Gd234 2.545 1_565 S
O282 C290 1.250 . S
O283 Gd234 2.412 1_565 S
O283 C293 1.252 1_565 S
O284 Gd235 2.545 . S
O284 C302 1.258 1_565 S
O285 Gd234 2.362 . S
O285 Gd235 2.606 1_544 S
O285 C301 1.284 1_554 S
O286 Gd234 2.324 1_565 S
O286 C309 1.254 . S
O287 Gd235 2.429 1_554 S
O287 C309 1.268 . S
O288 Gd235 2.545 1_545 S
O288 C301 1.250 . S
O289 Gd235 2.412 1_545 S
O289 C302 1.252 . S
C290 O279 1.284 . S
C290 O282 1.250 . S
C291 H260 0.929 . S
C291 C276 1.437 . S
C291 C292 1.317 . S
C292 H263 0.930 . S
C292 C268 1.431 . S
C292 C291 1.317 . S
C293 Gd234 2.828 . S
C293 O278 1.258 . S
C293 O283 1.252 1_545 S
C293 C294 1.499 . S
C294 C293 1.499 . S
C294 C295 1.403 . S
C294 C296 1.370 1_545 S
C295 C294 1.403 . S
C295 C298 1.398 . S
C295 H310 0.930 . S
C296 C294 1.370 1_565 S
C296 C297 1.391 . S
C296 H311 0.930 . S
C297 C296 1.391 . S
C297 C299 1.387 . S
C298 C295 1.398 . S
C298 C299 1.380 1_545 S
C298 H312 0.930 . S
C299 C297 1.387 . S
C299 C298 1.380 1_565 S
C299 H313 0.930 . S
C300 O280 1.254 1_554 S
C300 O281 1.268 . S
C301 O285 1.284 1_556 S
C301 O288 1.250 . S
C302 Gd235 2.828 1_545 S
C302 O284 1.258 1_545 S
C302 O289 1.252 . S
C302 C303 1.497 . S
C303 C302 1.497 . S
C303 C304 1.395 1_545 S
C303 C305 1.380 . S
C304 C303 1.395 1_565 S
C304 C307 1.401 . S
C304 H314 0.930 . S
C305 C303 1.380 . S
C305 C306 1.391 . S
C305 H315 0.930 . S
C306 C305 1.391 . S
C306 C308 1.387 . S
C307 C304 1.401 . S
C307 C308 1.363 1_565 S
C307 H316 0.944 . S
C308 C306 1.387 . S
C308 C307 1.363 1_545 S
C308 H317 0.930 . S
C309 O286 1.254 . S
C309 O287 1.268 . S
H310 C295 0.930 . S
H311 C296 0.930 . S
H312 C298 0.930 . S
H313 C299 0.930 . S
H314 C304 0.930 . S
H315 C305 0.930 . S
H316 C307 0.944 . S
H317 C308 0.930 . S
Gd318 N349 2.661 . S
Gd318 N355 2.601 . S
Gd318 O362 2.545 . S
Gd318 O363 2.606 1_655 S
Gd318 O365 2.429 . S
Gd318 O366 2.545 1_655 S
Gd318 O367 2.412 1_655 S
Gd318 O369 2.362 . S
Gd318 O370 2.324 1_655 S
Gd318 C377 2.828 1_655 S
Gd319 N328 2.661 . S
Gd319 N332 2.601 . S
Gd319 O363 2.362 1_556 S
Gd319 O364 2.324 1_455 S
Gd319 O368 2.545 . S
Gd319 O369 2.606 1_456 S
Gd319 O371 2.429 1_556 S
Gd319 O372 2.545 1_455 S
Gd319 O373 2.417 . S
Gd319 C386 2.828 . S
C320 C323 1.417 . S
C320 C325 1.431 . S
C320 C326 1.412 . S
C321 C324 1.437 . S
C321 C325 1.317 . S
C321 H340 0.929 . S
C322 C323 1.426 . S
C322 C324 1.413 . S
C322 N332 1.359 . S
C323 C320 1.417 . S
C323 C322 1.426 . S
C323 N328 1.350 . S
C324 C321 1.437 . S
C324 C322 1.413 . S
C324 C334 1.391 . S
C325 C320 1.431 . S
C325 C321 1.317 . S
C325 H336 0.930 . S
C326 C320 1.412 . S
C326 C327 1.355 . S
C326 H338 0.930 . S
C327 C326 1.355 . S
C327 C329 1.402 . S
C327 H339 0.930 . S
N328 Gd319 2.661 . S
N328 C323 1.350 . S
N328 C329 1.307 . S
C329 C327 1.402 . S
C329 N328 1.307 . S
C329 H330 0.930 . S
H330 C329 0.930 . S
C331 N332 1.334 . S
C331 C333 1.394 . S
C331 H335 0.930 . S
N332 Gd319 2.601 . S
N332 C322 1.359 . S
N332 C331 1.334 . S
C333 C331 1.394 . S
C333 C334 1.359 . S
C333 H345 0.930 . S
C334 C324 1.391 . S
C334 C333 1.359 . S
C334 H346 0.929 . S
H335 C331 0.930 . S
H336 C325 0.930 . S
H337 C354 0.926 . S
H338 C326 0.930 . S
H339 C327 0.930 . S
H340 C321 0.929 . S
H341 C359 0.930 . S
H342 C350 0.930 . S
H343 C351 0.930 . S
H344 C375 0.929 . S
H345 C333 0.930 . S
H346 C334 0.929 . S
H347 C376 0.930 . S
H348 C357 0.930 . S
N349 Gd318 2.661 . S
N349 C353 1.350 . S
N349 C354 1.307 . S
C350 H342 0.930 . S
C350 C351 1.355 . S
C350 C352 1.412 . S
C351 H343 0.930 . S
C351 C350 1.355 . S
C351 C354 1.402 . S
C352 C350 1.412 . S
C352 C353 1.417 . S
C352 C376 1.431 . S
C353 N349 1.350 . S
C353 C352 1.417 . S
C353 C356 1.426 . S
C354 H337 0.926 . S
C354 N349 1.307 . S
C354 C351 1.402 . S
N355 Gd318 2.601 . S
N355 C356 1.359 . S
N355 C359 1.334 . S
C356 C353 1.426 . S
C356 N355 1.359 . S
C356 C360 1.413 . S
C357 H348 0.930 . S
C357 C358 1.359 . S
C357 C359 1.394 . S
C358 C357 1.359 . S
C358 C360 1.391 . S
C358 H361 0.929 . S
C359 H341 0.930 . S
C359 N355 1.334 . S
C359 C357 1.394 . S
C360 C356 1.413 . S
C360 C358 1.391 . S
C360 C375 1.437 . S
H361 C358 0.929 . S
O362 Gd318 2.545 . S
O362 C377 1.258 1_655 S
O363 Gd318 2.606 1_455 S
O363 Gd319 2.362 1_554 S
O363 C374 1.284 . S
O364 Gd319 2.324 1_655 S
O364 C384 1.254 1_556 S
O365 Gd318 2.429 . S
O365 C384 1.268 . S
O366 Gd318 2.545 1_455 S
O366 C374 1.250 . S
O367 Gd318 2.412 1_455 S
O367 C377 1.252 . S
O368 Gd319 2.545 . S
O368 C386 1.258 . S
O369 Gd318 2.362 . S
O369 Gd319 2.606 1_654 S
O369 C385 1.284 1_554 S
O370 Gd318 2.324 1_455 S
O370 C393 1.254 . S
O371 Gd319 2.429 1_554 S
O371 C393 1.268 . S
O372 Gd319 2.545 1_655 S
O372 C385 1.250 . S
O373 Gd319 2.417 . S
O373 C386 1.250 . S
C374 O363 1.284 . S
C374 O366 1.250 . S
C375 H344 0.929 . S
C375 C360 1.437 . S
C375 C376 1.317 . S
C376 H347 0.930 . S
C376 C352 1.431 . S
C376 C375 1.317 . S
C377 Gd318 2.828 1_455 S
C377 O362 1.258 1_455 S
C377 O367 1.252 . S
C377 C378 1.497 . S
C378 C377 1.497 . S
C378 C379 1.395 1_455 S
C378 C380 1.380 . S
C379 C378 1.395 1_655 S
C379 C382 1.398 . S
C379 H394 0.930 . S
C380 C378 1.380 . S
C380 C381 1.391 . S
C380 H395 0.930 . S
C381 C380 1.391 . S
C381 C383 1.387 . S
C382 C379 1.398 . S
C382 C383 1.380 1_655 S
C382 H396 0.930 . S
C383 C381 1.387 . S
C383 C382 1.380 1_455 S
C383 H397 0.930 . S
C384 O364 1.254 1_554 S
C384 O365 1.268 . S
C385 O369 1.284 1_556 S
C385 O372 1.250 . S
C386 Gd319 2.828 . S
C386 O368 1.258 . S
C386 O373 1.250 . S
C386 C387 1.497 . S
C387 C386 1.497 . S
C387 C388 1.395 . S
C387 C389 1.380 1_455 S
C388 C387 1.395 . S
C388 C391 1.398 . S
C388 H398 0.930 . S
C389 C387 1.380 1_655 S
C389 C390 1.391 . S
C389 H399 0.930 . S
C390 C389 1.391 . S
C390 C392 1.387 . S
C391 C388 1.398 . S
C391 C392 1.380 1_455 S
C391 H400 0.930 . S
C392 C390 1.387 . S
C392 C391 1.380 1_655 S
C392 H401 0.930 . S
C393 O370 1.254 . S
C393 O371 1.268 . S
H394 C379 0.930 . S
H395 C380 0.930 . S
H396 C382 0.930 . S
H397 C383 0.930 . S
H398 C388 0.930 . S
H399 C389 0.930 . S
H400 C391 0.930 . S
H401 C392 0.930 . S
Gd402 N433 2.661 . S
Gd402 N439 2.601 . S
Gd402 O446 2.545 . S
Gd402 O447 2.606 1_556 S
Gd402 O449 2.429 1_556 S
Gd402 O450 2.545 . S
Gd402 O451 2.412 . S
Gd402 O453 2.362 1_556 S
Gd402 O454 2.324 . S
Gd402 C461 2.828 . S
Gd403 N412 2.661 . S
Gd403 N416 2.601 . S
Gd403 O447 2.362 . S
Gd403 O448 2.324 . S
Gd403 O452 2.545 . S
Gd403 O453 2.606 . S
Gd403 O455 2.429 . S
Gd403 O456 2.545 . S
Gd403 O457 2.412 . S
Gd403 C470 2.828 . S
C404 C407 1.417 . S
C404 C409 1.431 . S
C404 C410 1.412 . S
C405 C408 1.437 . S
C405 C409 1.317 . S
C405 H424 0.929 . S
C406 C407 1.426 . S
C406 C408 1.413 . S
C406 N416 1.359 . S
C407 C404 1.417 . S
C407 C406 1.426 . S
C407 N412 1.350 . S
C408 C405 1.437 . S
C408 C406 1.413 . S
C408 C418 1.391 . S
C409 C404 1.431 . S
C409 C405 1.317 . S
C409 H420 0.930 . S
C410 C404 1.412 . S
C410 C411 1.355 . S
C410 H422 0.930 . S
C411 C410 1.355 . S
C411 C413 1.402 . S
C411 H423 0.930 . S
N412 Gd403 2.661 . S
N412 C407 1.350 . S
N412 C413 1.307 . S
C413 C411 1.402 . S
C413 N412 1.307 . S
C413 H414 0.930 . S
H414 C413 0.930 . S
C415 N416 1.334 . S
C415 C417 1.394 . S
C415 H419 0.930 . S
N416 Gd403 2.601 . S
N416 C406 1.359 . S
N416 C415 1.334 . S
C417 C415 1.394 . S
C417 C418 1.359 . S
C417 H429 0.930 . S
C418 C408 1.391 . S
C418 C417 1.359 . S
C418 H430 0.929 . S
H419 C415 0.930 . S
H420 C409 0.930 . S
H421 C438 0.930 . S
H422 C410 0.930 . S
H423 C411 0.930 . S
H424 C405 0.929 . S
H425 C443 0.930 . S
H426 C434 0.930 . S
H427 C435 0.930 . S
H428 C459 0.929 . S
H429 C417 0.930 . S
H430 C418 0.929 . S
H431 C460 0.930 . S
H432 C441 0.930 . S
N433 Gd402 2.661 . S
N433 C437 1.350 . S
N433 C438 1.307 . S
C434 H426 0.930 . S
C434 C435 1.355 . S
C434 C436 1.412 . S
C435 H427 0.930 . S
C435 C434 1.355 . S
C435 C438 1.402 . S
C436 C434 1.412 . S
C436 C437 1.417 . S
C436 C460 1.431 . S
C437 N433 1.350 . S
C437 C436 1.417 . S
C437 C440 1.426 . S
C438 H421 0.930 . S
C438 N433 1.307 . S
C438 C435 1.402 . S
N439 Gd402 2.601 . S
N439 C440 1.359 . S
N439 C443 1.334 . S
C440 C437 1.426 . S
C440 N439 1.359 . S
C440 C444 1.413 . S
C441 H432 0.930 . S
C441 C442 1.359 . S
C441 C443 1.394 . S
C442 C441 1.359 . S
C442 C444 1.391 . S
C442 H445 0.929 . S
C443 H425 0.930 . S
C443 N439 1.334 . S
C443 C441 1.394 . S
C444 C440 1.413 . S
C444 C442 1.391 . S
C444 C459 1.437 . S
H445 C442 0.929 . S
O446 Gd402 2.545 . S
O446 C461 1.258 . S
O447 Gd402 2.606 1_554 S
O447 Gd403 2.362 . S
O447 C458 1.284 1_554 S
O448 Gd403 2.324 . S
O448 C468 1.254 . S
O449 Gd402 2.429 1_554 S
O449 C468 1.268 . S
O450 Gd402 2.545 . S
O450 C458 1.250 . S
O451 Gd402 2.412 . S
O451 C461 1.252 . S
O452 Gd403 2.545 . S
O452 C470 1.258 . S
O453 Gd402 2.362 1_554 S
O453 Gd403 2.606 . S
O453 C469 1.284 . S
O454 Gd402 2.324 . S
O454 C477 1.254 1_556 S
O455 Gd403 2.429 . S
O455 C477 1.268 . S
O456 Gd403 2.545 . S
O456 C469 1.250 . S
O457 Gd403 2.412 . S
O457 C470 1.252 . S
C458 O447 1.284 1_556 S
C458 O450 1.250 . S
C459 H428 0.929 . S
C459 C444 1.437 . S
C459 C460 1.317 . S
C460 H431 0.930 . S
C460 C436 1.431 . S
C460 C459 1.317 . S
C461 Gd402 2.828 . S
C461 O446 1.258 . S
C461 O451 1.252 . S
C461 C462 1.497 . S
C462 C461 1.497 . S
C462 C463 1.395 . S
C462 C464 1.380 . S
C463 C462 1.395 . S
C463 C466 1.398 . S
C463 H478 0.930 . S
C464 C462 1.380 . S
C464 C465 1.391 . S
C464 H479 0.930 . S
C465 C464 1.391 . S
C465 C467 1.387 . S
C466 C463 1.398 . S
C466 C467 1.380 . S
C466 H480 0.930 . S
C467 C465 1.387 . S
C467 C466 1.380 . S
C467 H481 0.930 . S
C468 O448 1.254 . S
C468 O449 1.268 . S
C469 O453 1.284 . S
C469 O456 1.250 . S
C470 Gd403 2.828 . S
C470 O452 1.258 . S
C470 O457 1.252 . S
C470 C471 1.497 . S
C471 C470 1.497 . S
C471 C472 1.395 . S
C471 C473 1.380 . S
C472 C471 1.395 . S
C472 C475 1.398 . S
C472 H482 0.930 . S
C473 C471 1.380 . S
C473 C474 1.391 . S
C473 H483 0.930 . S
C474 C473 1.391 . S
C474 C476 1.387 . S
C475 C472 1.398 . S
C475 C476 1.380 . S
C475 H484 0.930 . S
C476 C474 1.387 . S
C476 C475 1.380 . S
C476 H485 0.930 . S
C477 O454 1.254 1_554 S
C477 O455 1.268 . S
H478 C463 0.930 . S
H479 C464 0.930 . S
H480 C466 0.930 . S
H481 C467 0.930 . S
H482 C472 0.930 . S
H483 C473 0.930 . S
H484 C475 0.930 . S
H485 C476 0.930 . S
Gd486 N517 2.661 . S
Gd486 N523 2.601 . S
Gd486 O530 2.545 . S
Gd486 O531 2.606 . S
Gd486 O533 2.429 . S
Gd486 O534 2.545 . S
Gd486 O535 2.412 . S
Gd486 O537 2.362 . S
Gd486 O538 2.324 . S
Gd486 C545 2.828 . S
Gd487 N496 2.661 . S
Gd487 N500 2.601 . S
Gd487 O531 2.362 . S
Gd487 O532 2.324 . S
Gd487 O536 2.545 . S
Gd487 O537 2.606 . S
Gd487 O539 2.429 . S
Gd487 O540 2.545 . S
Gd487 O541 2.412 . S
Gd487 C554 2.828 . S
C488 C491 1.417 . S
C488 C493 1.431 . S
C488 C494 1.412 . S
C489 C492 1.437 . S
C489 C493 1.317 . S
C489 H508 0.929 . S
C490 C491 1.426 . S
C490 C492 1.413 . S
C490 N500 1.359 . S
C491 C488 1.417 . S
C491 C490 1.426 . S
C491 N496 1.350 . S
C492 C489 1.437 . S
C492 C490 1.413 . S
C492 C502 1.391 . S
C493 C488 1.431 . S
C493 C489 1.317 . S
C493 H504 0.930 . S
C494 C488 1.412 . S
C494 C495 1.355 . S
C494 H506 0.930 . S
C495 C494 1.355 . S
C495 C497 1.402 . S
C495 H507 0.930 . S
N496 Gd487 2.661 . S
N496 C491 1.350 . S
N496 C497 1.307 . S
C497 C495 1.402 . S
C497 N496 1.307 . S
C497 H498 0.930 . S
H498 C497 0.930 . S
C499 N500 1.334 . S
C499 C501 1.394 . S
C499 H503 0.930 . S
N500 Gd487 2.601 . S
N500 C490 1.359 . S
N500 C499 1.334 . S
C501 C499 1.394 . S
C501 C502 1.359 . S
C501 H513 0.930 . S
C502 C492 1.391 . S
C502 C501 1.359 . S
C502 H514 0.929 . S
H503 C499 0.930 . S
H504 C493 0.930 . S
H505 C522 0.930 . S
H506 C494 0.930 . S
H507 C495 0.930 . S
H508 C489 0.929 . S
H509 C527 0.930 . S
H510 C518 0.930 . S
H511 C519 0.930 . S
H512 C543 0.929 . S
H513 C501 0.930 . S
H514 C502 0.929 . S
H515 C544 0.930 . S
H516 C525 0.930 . S
N517 Gd486 2.661 . S
N517 C521 1.350 . S
N517 C522 1.307 . S
C518 H510 0.930 . S
C518 C519 1.355 . S
C518 C520 1.412 . S
C519 H511 0.930 . S
C519 C518 1.355 . S
C519 C522 1.402 . S
C520 C518 1.412 . S
C520 C521 1.417 . S
C520 C544 1.431 . S
C521 N517 1.350 . S
C521 C520 1.417 . S
C521 C524 1.426 . S
C522 H505 0.930 . S
C522 N517 1.307 . S
C522 C519 1.402 . S
N523 Gd486 2.601 . S
N523 C524 1.359 . S
N523 C527 1.334 . S
C524 C521 1.426 . S
C524 N523 1.359 . S
C524 C528 1.413 . S
C525 H516 0.930 . S
C525 C526 1.359 . S
C525 C527 1.394 . S
C526 C525 1.359 . S
C526 C528 1.391 . S
C526 H529 0.929 . S
C527 H509 0.930 . S
C527 N523 1.334 . S
C527 C525 1.394 . S
C528 C524 1.413 . S
C528 C526 1.391 . S
C528 C543 1.437 . S
H529 C526 0.929 . S
O530 Gd486 2.545 . S
O530 C545 1.258 . S
O531 Gd486 2.606 . S
O531 Gd487 2.362 . S
O531 C542 1.284 . S
O532 Gd487 2.324 . S
O532 C552 1.254 . S
O533 Gd486 2.429 . S
O533 C552 1.268 . S
O534 Gd486 2.545 . S
O534 C542 1.250 . S
O535 Gd486 2.412 . S
O535 C545 1.252 . S
O536 Gd487 2.545 . S
O536 C554 1.258 . S
O537 Gd486 2.362 . S
O537 Gd487 2.606 . S
O537 C553 1.284 . S
O538 Gd486 2.324 . S
O538 C561 1.254 . S
O539 Gd487 2.429 . S
O539 C561 1.268 . S
O540 Gd487 2.545 . S
O540 C553 1.250 . S
O541 Gd487 2.412 . S
O541 C554 1.252 . S
C542 O531 1.284 . S
C542 O534 1.250 . S
C543 H512 0.929 . S
C543 C528 1.437 . S
C543 C544 1.317 . S
C544 H515 0.930 . S
C544 C520 1.431 . S
C544 C543 1.317 . S
C545 Gd486 2.828 . S
C545 O530 1.258 . S
C545 O535 1.252 . S
C545 C546 1.497 . S
C546 C545 1.497 . S
C546 C547 1.395 . S
C546 C548 1.380 . S
C547 C546 1.395 . S
C547 C550 1.398 . S
C547 H562 0.930 . S
C548 C546 1.380 . S
C548 C549 1.391 . S
C548 H563 0.930 . S
C549 C548 1.391 . S
C549 C551 1.387 . S
C550 C547 1.398 . S
C550 C551 1.380 . S
C550 H564 0.930 . S
C551 C549 1.387 . S
C551 C550 1.380 . S
C551 H565 0.930 . S
C552 O532 1.254 . S
C552 O533 1.268 . S
C553 O537 1.284 . S
C553 O540 1.250 . S
C554 Gd487 2.828 . S
C554 O536 1.258 . S
C554 O541 1.252 . S
C554 C555 1.497 . S
C555 C554 1.497 . S
C555 C556 1.395 . S
C555 C557 1.380 . S
C556 C555 1.395 . S
C556 C559 1.398 . S
C556 H566 0.930 . S
C557 C555 1.380 . S
C557 C558 1.391 . S
C557 H567 0.930 . S
C558 C557 1.391 . S
C558 C560 1.387 . S
C559 C556 1.398 . S
C559 C560 1.380 . S
C559 H568 0.930 . S
C560 C558 1.387 . S
C560 C559 1.380 . S
C560 H569 0.930 . S
C561 O538 1.254 . S
C561 O539 1.268 . S
H562 C547 0.930 . S
H563 C548 0.930 . S
H564 C550 0.930 . S
H565 C551 0.930 . S
H566 C556 0.930 . S
H567 C557 0.930 . S
H568 C559 0.930 . S
H569 C560 0.930 . S
Gd570 N601 2.661 . S
Gd570 N607 2.601 . S
Gd570 O614 2.545 . S
Gd570 O615 2.606 . S
Gd570 O617 2.429 . S
Gd570 O618 2.545 . S
Gd570 O619 2.412 . S
Gd570 O621 2.362 . S
Gd570 O622 2.324 . S
Gd570 C629 2.828 . S
Gd571 N580 2.661 . S
Gd571 N584 2.601 . S
Gd571 O615 2.362 . S
Gd571 O616 2.324 . S
Gd571 O620 2.545 . S
Gd571 O621 2.606 . S
Gd571 O623 2.429 . S
Gd571 O624 2.545 . S
Gd571 O625 2.412 . S
Gd571 C638 2.828 . S
C572 C575 1.417 . S
C572 C577 1.431 . S
C572 C578 1.412 . S
C573 C576 1.437 . S
C573 C577 1.317 . S
C573 H592 0.929 . S
C574 C575 1.426 . S
C574 C576 1.413 . S
C574 N584 1.359 . S
C575 C572 1.417 . S
C575 C574 1.426 . S
C575 N580 1.350 . S
C576 C573 1.437 . S
C576 C574 1.413 . S
C576 C586 1.391 . S
C577 C572 1.431 . S
C577 C573 1.317 . S
C577 H588 0.930 . S
C578 C572 1.412 . S
C578 C579 1.355 . S
C578 H590 0.930 . S
C579 C578 1.355 . S
C579 C581 1.402 . S
C579 H591 0.930 . S
N580 Gd571 2.661 . S
N580 C575 1.350 . S
N580 C581 1.307 . S
C581 C579 1.402 . S
C581 N580 1.307 . S
C581 H582 0.930 . S
H582 C581 0.930 . S
C583 N584 1.334 . S
C583 C585 1.394 . S
C583 H587 0.930 . S
N584 Gd571 2.601 . S
N584 C574 1.359 . S
N584 C583 1.334 . S
C585 C583 1.394 . S
C585 C586 1.359 . S
C585 H597 0.930 . S
C586 C576 1.391 . S
C586 C585 1.359 . S
C586 H598 0.929 . S
H587 C583 0.930 . S
H588 C577 0.930 . S
H589 C606 0.930 . S
H590 C578 0.930 . S
H591 C579 0.930 . S
H592 C573 0.929 . S
H593 C611 0.930 . S
H594 C602 0.930 . S
H595 C603 0.930 . S
H596 C627 0.929 . S
H597 C585 0.930 . S
H598 C586 0.929 . S
H599 C628 0.930 . S
H600 C609 0.930 . S
N601 Gd570 2.661 . S
N601 C605 1.350 . S
N601 C606 1.307 . S
C602 H594 0.930 . S
C602 C603 1.355 . S
C602 C604 1.412 . S
C603 H595 0.930 . S
C603 C602 1.355 . S
C603 C606 1.402 . S
C604 C602 1.412 . S
C604 C605 1.417 . S
C604 C628 1.431 . S
C605 N601 1.350 . S
C605 C604 1.417 . S
C605 C608 1.426 . S
C606 H589 0.930 . S
C606 N601 1.307 . S
C606 C603 1.402 . S
N607 Gd570 2.601 . S
N607 C608 1.359 . S
N607 C611 1.334 . S
C608 C605 1.426 . S
C608 N607 1.359 . S
C608 C612 1.413 . S
C609 H600 0.930 . S
C609 C610 1.359 . S
C609 C611 1.394 . S
C610 C609 1.359 . S
C610 C612 1.391 . S
C610 H613 0.929 . S
C611 H593 0.930 . S
C611 N607 1.334 . S
C611 C609 1.394 . S
C612 C608 1.413 . S
C612 C610 1.391 . S
C612 C627 1.437 . S
H613 C610 0.929 . S
O614 Gd570 2.545 . S
O614 C629 1.258 . S
O615 Gd570 2.606 . S
O615 Gd571 2.362 . S
O615 C626 1.284 . S
O616 Gd571 2.324 . S
O616 C636 1.254 . S
O617 Gd570 2.429 . S
O617 C636 1.268 . S
O618 Gd570 2.545 . S
O618 C626 1.250 . S
O619 Gd570 2.412 . S
O619 C629 1.252 . S
O620 Gd571 2.545 . S
O620 C638 1.258 . S
O621 Gd570 2.362 . S
O621 Gd571 2.606 . S
O621 C637 1.284 . S
O622 Gd570 2.324 . S
O622 C645 1.254 . S
O623 Gd571 2.429 . S
O623 C645 1.268 . S
O624 Gd571 2.545 . S
O624 C637 1.250 . S
O625 Gd571 2.412 . S
O625 C638 1.252 . S
C626 O615 1.284 . S
C626 O618 1.250 . S
C627 H596 0.929 . S
C627 C612 1.437 . S
C627 C628 1.317 . S
C628 H599 0.930 . S
C628 C604 1.431 . S
C628 C627 1.317 . S
C629 Gd570 2.828 . S
C629 O614 1.258 . S
C629 O619 1.252 . S
C629 C630 1.497 . S
C630 C629 1.497 . S
C630 C631 1.395 . S
C630 C632 1.380 . S
C631 C630 1.395 . S
C631 C634 1.398 . S
C631 H646 0.930 . S
C632 C630 1.380 . S
C632 C633 1.391 . S
C632 H647 0.930 . S
C633 C632 1.391 . S
C633 C635 1.387 . S
C634 C631 1.398 . S
C634 C635 1.380 . S
C634 H648 0.930 . S
C635 C633 1.387 . S
C635 C634 1.380 . S
C635 H649 0.930 . S
C636 O616 1.254 . S
C636 O617 1.268 . S
C637 O621 1.284 . S
C637 O624 1.250 . S
C638 Gd571 2.828 . S
C638 O620 1.258 . S
C638 O625 1.252 . S
C638 C639 1.497 . S
C639 C638 1.497 . S
C639 C640 1.395 . S
C639 C641 1.380 . S
C640 C639 1.395 . S
C640 C643 1.398 . S
C640 H650 0.930 . S
C641 C639 1.380 . S
C641 C642 1.391 . S
C641 H651 0.930 . S
C642 C641 1.391 . S
C642 C644 1.387 . S
C643 C640 1.398 . S
C643 C644 1.380 . S
C643 H652 0.930 . S
C644 C642 1.387 . S
C644 C643 1.380 . S
C644 H653 0.930 . S
C645 O622 1.254 . S
C645 O623 1.268 . S
H646 C631 0.930 . S
H647 C632 0.930 . S
H648 C634 0.930 . S
H649 C635 0.930 . S
H650 C640 0.930 . S
H651 C641 0.930 . S
H652 C643 0.930 . S
H653 C644 0.930 . S
Gd654 N685 2.661 . S
Gd654 N691 2.601 . S
Gd654 O698 2.545 . S
Gd654 O699 2.606 . S
Gd654 O701 2.429 . S
Gd654 O702 2.545 . S
Gd654 O703 2.412 . S
Gd654 O705 2.362 . S
Gd654 O706 2.324 . S
Gd654 C713 2.828 . S
Gd655 N664 2.661 . S
Gd655 N668 2.601 . S
Gd655 O699 2.362 . S
Gd655 O700 2.324 . S
Gd655 O704 2.545 . S
Gd655 O705 2.606 . S
Gd655 O707 2.429 . S
Gd655 O708 2.545 . S
Gd655 O709 2.412 . S
Gd655 C722 2.828 . S
C656 C659 1.417 . S
C656 C661 1.431 . S
C656 C662 1.412 . S
C657 C660 1.437 . S
C657 C661 1.317 . S
C657 H676 0.929 . S
C658 C659 1.426 . S
C658 C660 1.413 . S
C658 N668 1.359 . S
C659 C656 1.417 . S
C659 C658 1.426 . S
C659 N664 1.350 . S
C660 C657 1.437 . S
C660 C658 1.413 . S
C660 C670 1.391 . S
C661 C656 1.431 . S
C661 C657 1.317 . S
C661 H672 0.930 . S
C662 C656 1.412 . S
C662 C663 1.355 . S
C662 H674 0.930 . S
C663 C662 1.355 . S
C663 C665 1.402 . S
C663 H675 0.930 . S
N664 Gd655 2.661 . S
N664 C659 1.350 . S
N664 C665 1.307 . S
C665 C663 1.402 . S
C665 N664 1.307 . S
C665 H666 0.930 . S
H666 C665 0.930 . S
C667 N668 1.334 . S
C667 C669 1.394 . S
C667 H671 0.930 . S
N668 Gd655 2.601 . S
N668 C658 1.359 . S
N668 C667 1.334 . S
C669 C667 1.394 . S
C669 C670 1.359 . S
C669 H681 0.930 . S
C670 C660 1.391 . S
C670 C669 1.359 . S
C670 H682 0.929 . S
H671 C667 0.930 . S
H672 C661 0.930 . S
H673 C690 0.930 . S
H674 C662 0.930 . S
H675 C663 0.930 . S
H676 C657 0.929 . S
H677 C695 0.930 . S
H678 C686 0.930 . S
H679 C687 0.930 . S
H680 C711 0.929 . S
H681 C669 0.930 . S
H682 C670 0.929 . S
H683 C712 0.930 . S
H684 C693 0.930 . S
N685 Gd654 2.661 . S
N685 C689 1.350 . S
N685 C690 1.307 . S
C686 H678 0.930 . S
C686 C687 1.355 . S
C686 C688 1.412 . S
C687 H679 0.930 . S
C687 C686 1.355 . S
C687 C690 1.402 . S
C688 C686 1.412 . S
C688 C689 1.417 . S
C688 C712 1.431 . S
C689 N685 1.350 . S
C689 C688 1.417 . S
C689 C692 1.426 . S
C690 H673 0.930 . S
C690 N685 1.307 . S
C690 C687 1.402 . S
N691 Gd654 2.601 . S
N691 C692 1.359 . S
N691 C695 1.334 . S
C692 C689 1.426 . S
C692 N691 1.359 . S
C692 C696 1.413 . S
C693 H684 0.930 . S
C693 C694 1.359 . S
C693 C695 1.394 . S
C694 C693 1.359 . S
C694 C696 1.391 . S
C694 H697 0.929 . S
C695 H677 0.930 . S
C695 N691 1.334 . S
C695 C693 1.394 . S
C696 C692 1.413 . S
C696 C694 1.391 . S
C696 C711 1.437 . S
H697 C694 0.929 . S
O698 Gd654 2.545 . S
O698 C713 1.258 . S
O699 Gd654 2.606 . S
O699 Gd655 2.362 . S
O699 C710 1.284 . S
O700 Gd655 2.324 . S
O700 C720 1.254 . S
O701 Gd654 2.429 . S
O701 C720 1.268 . S
O702 Gd654 2.545 . S
O702 C710 1.250 . S
O703 Gd654 2.412 . S
O703 C713 1.252 . S
O704 Gd655 2.545 . S
O704 C722 1.258 . S
O705 Gd654 2.362 . S
O705 Gd655 2.606 . S
O705 C721 1.284 . S
O706 Gd654 2.324 . S
O706 C729 1.254 . S
O707 Gd655 2.429 . S
O707 C729 1.268 . S
O708 Gd655 2.545 . S
O708 C721 1.250 . S
O709 Gd655 2.412 . S
O709 C722 1.252 . S
C710 O699 1.284 . S
C710 O702 1.250 . S
C711 H680 0.929 . S
C711 C696 1.437 . S
C711 C712 1.317 . S
C712 H683 0.930 . S
C712 C688 1.431 . S
C712 C711 1.317 . S
C713 Gd654 2.828 . S
C713 O698 1.258 . S
C713 O703 1.252 . S
C713 C714 1.497 . S
C714 C713 1.497 . S
C714 C715 1.395 . S
C714 C716 1.380 . S
C715 C714 1.395 . S
C715 C718 1.398 . S
C715 H730 0.930 . S
C716 C714 1.380 . S
C716 C717 1.391 . S
C716 H731 0.930 . S
C717 C716 1.391 . S
C717 C719 1.387 . S
C718 C715 1.398 . S
C718 C719 1.380 . S
C718 H732 0.930 . S
C719 C717 1.387 . S
C719 C718 1.380 . S
C719 H733 0.930 . S
C720 O700 1.254 . S
C720 O701 1.268 . S
C721 O705 1.284 . S
C721 O708 1.250 . S
C722 Gd655 2.828 . S
C722 O704 1.258 . S
C722 O709 1.252 . S
C722 C723 1.497 . S
C723 C722 1.497 . S
C723 C724 1.395 . S
C723 C725 1.380 . S
C724 C723 1.395 . S
C724 C727 1.398 . S
C724 H734 0.930 . S
C725 C723 1.380 . S
C725 C726 1.391 . S
C725 H735 0.930 . S
C726 C725 1.391 . S
C726 C728 1.387 . S
C727 C724 1.398 . S
C727 C728 1.380 . S
C727 H736 0.930 . S
C728 C726 1.387 . S
C728 C727 1.380 . S
C728 H737 0.930 . S
C729 O706 1.254 . S
C729 O707 1.268 . S
H730 C715 0.930 . S
H731 C716 0.930 . S
H732 C718 0.930 . S
H733 C719 0.930 . S
H734 C724 0.930 . S
H735 C725 0.930 . S
H736 C727 0.930 . S
H737 C728 0.930 . S
Gd738 N769 2.661 . S
Gd738 N775 2.601 . S
Gd738 O782 2.545 . S
Gd738 O783 2.606 . S
Gd738 O785 2.429 . S
Gd738 O786 2.545 . S
Gd738 O787 2.412 . S
Gd738 O789 2.362 . S
Gd738 O790 2.324 . S
Gd738 C797 2.828 . S
Gd739 N748 2.661 . S
Gd739 N752 2.601 . S
Gd739 O783 2.362 . S
Gd739 O784 2.324 . S
Gd739 O788 2.545 . S
Gd739 O789 2.606 . S
Gd739 O791 2.429 . S
Gd739 O792 2.545 . S
Gd739 O793 2.412 . S
Gd739 C806 2.828 . S
C740 C743 1.417 . S
C740 C745 1.431 . S
C740 C746 1.412 . S
C741 C744 1.437 . S
C741 C745 1.317 . S
C741 H760 0.929 . S
C742 C743 1.426 . S
C742 C744 1.413 . S
C742 N752 1.359 . S
C743 C740 1.417 . S
C743 C742 1.426 . S
C743 N748 1.350 . S
C744 C741 1.437 . S
C744 C742 1.413 . S
C744 C754 1.391 . S
C745 C740 1.431 . S
C745 C741 1.317 . S
C745 H756 0.930 . S
C746 C740 1.412 . S
C746 C747 1.355 . S
C746 H758 0.930 . S
C747 C746 1.355 . S
C747 C749 1.402 . S
C747 H759 0.930 . S
N748 Gd739 2.661 . S
N748 C743 1.350 . S
N748 C749 1.307 . S
C749 C747 1.402 . S
C749 N748 1.307 . S
C749 H750 0.930 . S
H750 C749 0.930 . S
C751 N752 1.334 . S
C751 C753 1.394 . S
C751 H755 0.930 . S
N752 Gd739 2.601 . S
N752 C742 1.359 . S
N752 C751 1.334 . S
C753 C751 1.394 . S
C753 C754 1.359 . S
C753 H765 0.930 . S
C754 C744 1.391 . S
C754 C753 1.359 . S
C754 H766 0.929 . S
H755 C751 0.930 . S
H756 C745 0.930 . S
H757 C774 0.930 . S
H758 C746 0.930 . S
H759 C747 0.930 . S
H760 C741 0.929 . S
H761 C779 0.930 . S
H762 C770 0.930 . S
H763 C771 0.930 . S
H764 C795 0.929 . S
H765 C753 0.930 . S
H766 C754 0.929 . S
H767 C796 0.930 . S
H768 C777 0.930 . S
N769 Gd738 2.661 . S
N769 C773 1.350 . S
N769 C774 1.307 . S
C770 H762 0.930 . S
C770 C771 1.355 . S
C770 C772 1.412 . S
C771 H763 0.930 . S
C771 C770 1.355 . S
C771 C774 1.402 . S
C772 C770 1.412 . S
C772 C773 1.417 . S
C772 C796 1.431 . S
C773 N769 1.350 . S
C773 C772 1.417 . S
C773 C776 1.426 . S
C774 H757 0.930 . S
C774 N769 1.307 . S
C774 C771 1.402 . S
N775 Gd738 2.601 . S
N775 C776 1.359 . S
N775 C779 1.334 . S
C776 C773 1.426 . S
C776 N775 1.359 . S
C776 C780 1.413 . S
C777 H768 0.930 . S
C777 C778 1.359 . S
C777 C779 1.394 . S
C778 C777 1.359 . S
C778 C780 1.391 . S
C778 H781 0.929 . S
C779 H761 0.930 . S
C779 N775 1.334 . S
C779 C777 1.394 . S
C780 C776 1.413 . S
C780 C778 1.391 . S
C780 C795 1.437 . S
H781 C778 0.929 . S
O782 Gd738 2.545 . S
O782 C797 1.258 . S
O783 Gd738 2.606 . S
O783 Gd739 2.362 . S
O783 C794 1.284 . S
O784 Gd739 2.324 . S
O784 C804 1.254 . S
O785 Gd738 2.429 . S
O785 C804 1.268 . S
O786 Gd738 2.545 . S
O786 C794 1.250 . S
O787 Gd738 2.412 . S
O787 C797 1.252 . S
O788 Gd739 2.545 . S
O788 C806 1.258 . S
O789 Gd738 2.362 . S
O789 Gd739 2.606 . S
O789 C805 1.284 . S
O790 Gd738 2.324 . S
O790 C813 1.254 . S
O791 Gd739 2.429 . S
O791 C813 1.268 . S
O792 Gd739 2.545 . S
O792 C805 1.250 . S
O793 Gd739 2.412 . S
O793 C806 1.252 . S
C794 O783 1.284 . S
C794 O786 1.250 . S
C795 H764 0.929 . S
C795 C780 1.437 . S
C795 C796 1.317 . S
C796 H767 0.930 . S
C796 C772 1.431 . S
C796 C795 1.317 . S
C797 Gd738 2.828 . S
C797 O782 1.258 . S
C797 O787 1.252 . S
C797 C798 1.497 . S
C798 C797 1.497 . S
C798 C799 1.395 . S
C798 C800 1.380 . S
C799 C798 1.395 . S
C799 C802 1.398 . S
C799 H814 0.930 . S
C800 C798 1.380 . S
C800 C801 1.391 . S
C800 H815 0.930 . S
C801 C800 1.391 . S
C801 C803 1.387 . S
C802 C799 1.398 . S
C802 C803 1.380 . S
C802 H816 0.930 . S
C803 C801 1.387 . S
C803 C802 1.380 . S
C803 H817 0.930 . S
C804 O784 1.254 . S
C804 O785 1.268 . S
C805 O789 1.284 . S
C805 O792 1.250 . S
C806 Gd739 2.828 . S
C806 O788 1.258 . S
C806 O793 1.252 . S
C806 C807 1.497 . S
C807 C806 1.497 . S
C807 C808 1.395 . S
C807 C809 1.380 . S
C808 C807 1.395 . S
C808 C811 1.398 . S
C808 H818 0.930 . S
C809 C807 1.380 . S
C809 C810 1.391 . S
C809 H819 0.930 . S
C810 C809 1.391 . S
C810 C812 1.387 . S
C811 C808 1.398 . S
C811 C812 1.380 . S
C811 H820 0.930 . S
C812 C810 1.387 . S
C812 C811 1.380 . S
C812 H821 0.930 . S
C813 O790 1.254 . S
C813 O791 1.268 . S
H814 C799 0.930 . S
H815 C800 0.930 . S
H816 C802 0.930 . S
H817 C803 0.930 . S
H818 C808 0.930 . S
H819 C809 0.930 . S
H820 C811 0.930 . S
H821 C812 0.930 . S
Gd822 N853 2.661 . S
Gd822 N859 2.601 . S
Gd822 O866 2.545 . S
Gd822 O867 2.606 . S
Gd822 O869 2.429 . S
Gd822 O870 2.545 . S
Gd822 O871 2.412 . S
Gd822 O873 2.362 . S
Gd822 O874 2.324 . S
Gd822 C881 2.828 . S
Gd823 N832 2.661 . S
Gd823 N836 2.601 . S
Gd823 O867 2.362 . S
Gd823 O868 2.324 . S
Gd823 O872 2.545 . S
Gd823 O873 2.606 . S
Gd823 O875 2.429 . S
Gd823 O876 2.545 . S
Gd823 O877 2.412 . S
Gd823 C890 2.828 . S
C824 C827 1.417 . S
C824 C829 1.431 . S
C824 C830 1.412 . S
C825 C828 1.437 . S
C825 C829 1.317 . S
C825 H844 0.929 . S
C826 C827 1.426 . S
C826 C828 1.413 . S
C826 N836 1.359 . S
C827 C824 1.417 . S
C827 C826 1.426 . S
C827 N832 1.350 . S
C828 C825 1.437 . S
C828 C826 1.413 . S
C828 C838 1.391 . S
C829 C824 1.431 . S
C829 C825 1.317 . S
C829 H840 0.930 . S
C830 C824 1.412 . S
C830 C831 1.355 . S
C830 H842 0.930 . S
C831 C830 1.355 . S
C831 C833 1.402 . S
C831 H843 0.930 . S
N832 Gd823 2.661 . S
N832 C827 1.350 . S
N832 C833 1.307 . S
C833 C831 1.402 . S
C833 N832 1.307 . S
C833 H834 0.930 . S
H834 C833 0.930 . S
C835 N836 1.334 . S
C835 C837 1.394 . S
C835 H839 0.930 . S
N836 Gd823 2.601 . S
N836 C826 1.359 . S
N836 C835 1.334 . S
C837 C835 1.394 . S
C837 C838 1.359 . S
C837 H849 0.930 . S
C838 C828 1.391 . S
C838 C837 1.359 . S
C838 H850 0.929 . S
H839 C835 0.930 . S
H840 C829 0.930 . S
H841 C858 0.930 . S
H842 C830 0.930 . S
H843 C831 0.930 . S
H844 C825 0.929 . S
H845 C863 0.930 . S
H846 C854 0.930 . S
H847 C855 0.930 . S
H848 C879 0.929 . S
H849 C837 0.930 . S
H850 C838 0.929 . S
H851 C880 0.930 . S
H852 C861 0.930 . S
N853 Gd822 2.661 . S
N853 C857 1.350 . S
N853 C858 1.307 . S
C854 H846 0.930 . S
C854 C855 1.355 . S
C854 C856 1.412 . S
C855 H847 0.930 . S
C855 C854 1.355 . S
C855 C858 1.402 . S
C856 C854 1.412 . S
C856 C857 1.417 . S
C856 C880 1.431 . S
C857 N853 1.350 . S
C857 C856 1.417 . S
C857 C860 1.426 . S
C858 H841 0.930 . S
C858 N853 1.307 . S
C858 C855 1.402 . S
N859 Gd822 2.601 . S
N859 C860 1.359 . S
N859 C863 1.334 . S
C860 C857 1.426 . S
C860 N859 1.359 . S
C860 C864 1.413 . S
C861 H852 0.930 . S
C861 C862 1.359 . S
C861 C863 1.394 . S
C862 C861 1.359 . S
C862 C864 1.391 . S
C862 H865 0.929 . S
C863 H845 0.930 . S
C863 N859 1.334 . S
C863 C861 1.394 . S
C864 C860 1.413 . S
C864 C862 1.391 . S
C864 C879 1.437 . S
H865 C862 0.929 . S
O866 Gd822 2.545 . S
O866 C881 1.258 . S
O867 Gd822 2.606 . S
O867 Gd823 2.362 . S
O867 C878 1.284 . S
O868 Gd823 2.324 . S
O868 C888 1.254 . S
O869 Gd822 2.429 . S
O869 C888 1.268 . S
O870 Gd822 2.545 . S
O870 C878 1.250 . S
O871 Gd822 2.412 . S
O871 C881 1.252 . S
O872 Gd823 2.545 . S
O872 C890 1.258 . S
O873 Gd822 2.362 . S
O873 Gd823 2.606 . S
O873 C889 1.284 . S
O874 Gd822 2.324 . S
O874 C897 1.254 . S
O875 Gd823 2.429 . S
O875 C897 1.268 . S
O876 Gd823 2.545 . S
O876 C889 1.250 . S
O877 Gd823 2.412 . S
O877 C890 1.252 . S
C878 O867 1.284 . S
C878 O870 1.250 . S
C879 H848 0.929 . S
C879 C864 1.437 . S
C879 C880 1.317 . S
C880 H851 0.930 . S
C880 C856 1.431 . S
C880 C879 1.317 . S
C881 Gd822 2.828 . S
C881 O866 1.258 . S
C881 O871 1.252 . S
C881 C882 1.497 . S
C882 C881 1.497 . S
C882 C883 1.395 . S
C882 C884 1.380 . S
C883 C882 1.395 . S
C883 C886 1.398 . S
C883 H898 0.930 . S
C884 C882 1.380 . S
C884 C885 1.391 . S
C884 H899 0.930 . S
C885 C884 1.391 . S
C885 C887 1.387 . S
C886 C883 1.398 . S
C886 C887 1.380 . S
C886 H900 0.930 . S
C887 C885 1.387 . S
C887 C886 1.380 . S
C887 H901 0.930 . S
C888 O868 1.254 . S
C888 O869 1.268 . S
C889 O873 1.284 . S
C889 O876 1.250 . S
C890 Gd823 2.828 . S
C890 O872 1.258 . S
C890 O877 1.252 . S
C890 C891 1.497 . S
C891 C890 1.497 . S
C891 C892 1.395 . S
C891 C893 1.380 . S
C892 C891 1.395 . S
C892 C895 1.398 . S
C892 H902 0.930 . S
C893 C891 1.380 . S
C893 C894 1.391 . S
C893 H903 0.930 . S
C894 C893 1.391 . S
C894 C896 1.387 . S
C895 C892 1.398 . S
C895 C896 1.380 . S
C895 H904 0.930 . S
C896 C894 1.387 . S
C896 C895 1.380 . S
C896 H905 0.930 . S
C897 O874 1.254 . S
C897 O875 1.268 . S
H898 C883 0.930 . S
H899 C884 0.930 . S
H900 C886 0.930 . S
H901 C887 0.930 . S
H902 C892 0.930 . S
H903 C893 0.930 . S
H904 C895 0.930 . S
H905 C896 0.930 . S
Gd906 N937 2.661 . S
Gd906 N943 2.601 . S
Gd906 O950 2.545 . S
Gd906 O951 2.606 . S
Gd906 O953 2.429 . S
Gd906 O954 2.545 . S
Gd906 O955 2.412 . S
Gd906 O957 2.362 . S
Gd906 O958 2.324 . S
Gd906 C965 2.828 . S
Gd907 N916 2.661 . S
Gd907 N920 2.601 . S
Gd907 O951 2.362 . S
Gd907 O952 2.324 . S
Gd907 O956 2.545 . S
Gd907 O957 2.606 . S
Gd907 O959 2.429 . S
Gd907 O960 2.545 . S
Gd907 O961 2.412 . S
Gd907 C974 2.828 . S
C908 C911 1.417 . S
C908 C913 1.431 . S
C908 C914 1.412 . S
C909 C912 1.437 . S
C909 C913 1.317 . S
C909 H928 0.929 . S
C910 C911 1.426 . S
C910 C912 1.413 . S
C910 N920 1.359 . S
C911 C908 1.417 . S
C911 C910 1.426 . S
C911 N916 1.350 . S
C912 C909 1.437 . S
C912 C910 1.413 . S
C912 C922 1.391 . S
C913 C908 1.431 . S
C913 C909 1.317 . S
C913 H924 0.930 . S
C914 C908 1.412 . S
C914 C915 1.355 . S
C914 H926 0.930 . S
C915 C914 1.355 . S
C915 C917 1.402 . S
C915 H927 0.930 . S
N916 Gd907 2.661 . S
N916 C911 1.350 . S
N916 C917 1.307 . S
C917 C915 1.402 . S
C917 N916 1.307 . S
C917 H918 0.930 . S
H918 C917 0.930 . S
C919 N920 1.334 . S
C919 C921 1.394 . S
C919 H923 0.930 . S
N920 Gd907 2.601 . S
N920 C910 1.359 . S
N920 C919 1.334 . S
C921 C919 1.394 . S
C921 C922 1.359 . S
C921 H933 0.930 . S
C922 C912 1.391 . S
C922 C921 1.359 . S
C922 H934 0.929 . S
H923 C919 0.930 . S
H924 C913 0.930 . S
H925 C942 0.930 . S
H926 C914 0.930 . S
H927 C915 0.930 . S
H928 C909 0.929 . S
H929 C947 0.930 . S
H930 C938 0.930 . S
H931 C939 0.930 . S
H932 C963 0.929 . S
H933 C921 0.930 . S
H934 C922 0.929 . S
H935 C964 0.930 . S
H936 C945 0.930 . S
N937 Gd906 2.661 . S
N937 C941 1.350 . S
N937 C942 1.307 . S
C938 H930 0.930 . S
C938 C939 1.355 . S
C938 C940 1.412 . S
C939 H931 0.930 . S
C939 C938 1.355 . S
C939 C942 1.402 . S
C940 C938 1.412 . S
C940 C941 1.417 . S
C940 C964 1.431 . S
C941 N937 1.350 . S
C941 C940 1.417 . S
C941 C944 1.426 . S
C942 H925 0.930 . S
C942 N937 1.307 . S
C942 C939 1.402 . S
N943 Gd906 2.601 . S
N943 C944 1.359 . S
N943 C947 1.334 . S
C944 C941 1.426 . S
C944 N943 1.359 . S
C944 C948 1.413 . S
C945 H936 0.930 . S
C945 C946 1.359 . S
C945 C947 1.394 . S
C946 C945 1.359 . S
C946 C948 1.391 . S
C946 H949 0.929 . S
C947 H929 0.930 . S
C947 N943 1.334 . S
C947 C945 1.394 . S
C948 C944 1.413 . S
C948 C946 1.391 . S
C948 C963 1.437 . S
H949 C946 0.929 . S
O950 Gd906 2.545 . S
O950 C965 1.258 . S
O951 Gd906 2.606 . S
O951 Gd907 2.362 . S
O951 C962 1.284 . S
O952 Gd907 2.324 . S
O952 C972 1.254 . S
O953 Gd906 2.429 . S
O953 C972 1.268 . S
O954 Gd906 2.545 . S
O954 C962 1.250 . S
O955 Gd906 2.412 . S
O955 C965 1.252 . S
O956 Gd907 2.545 . S
O956 C974 1.258 . S
O957 Gd906 2.362 . S
O957 Gd907 2.606 . S
O957 C973 1.284 . S
O958 Gd906 2.324 . S
O958 C981 1.254 . S
O959 Gd907 2.429 . S
O959 C981 1.268 . S
O960 Gd907 2.545 . S
O960 C973 1.250 . S
O961 Gd907 2.412 . S
O961 C974 1.252 . S
C962 O951 1.284 . S
C962 O954 1.250 . S
C963 H932 0.929 . S
C963 C948 1.437 . S
C963 C964 1.317 . S
C964 H935 0.930 . S
C964 C940 1.431 . S
C964 C963 1.317 . S
C965 Gd906 2.828 . S
C965 O950 1.258 . S
C965 O955 1.252 . S
C965 C966 1.497 . S
C966 C965 1.497 . S
C966 C967 1.395 . S
C966 C968 1.380 . S
C967 C966 1.395 . S
C967 C970 1.398 . S
C967 H982 0.930 . S
C968 C966 1.380 . S
C968 C969 1.391 . S
C968 H983 0.930 . S
C969 C968 1.391 . S
C969 C971 1.387 . S
C970 C967 1.398 . S
C970 C971 1.380 . S
C970 H984 0.930 . S
C971 C969 1.387 . S
C971 C970 1.380 . S
C971 H985 0.930 . S
C972 O952 1.254 . S
C972 O953 1.268 . S
C973 O957 1.284 . S
C973 O960 1.250 . S
C974 Gd907 2.828 . S
C974 O956 1.258 . S
C974 O961 1.252 . S
C974 C975 1.497 . S
C975 C974 1.497 . S
C975 C976 1.395 . S
C975 C977 1.380 . S
C976 C975 1.395 . S
C976 C979 1.398 . S
C976 H986 0.930 . S
C977 C975 1.380 . S
C977 C978 1.391 . S
C977 H987 0.930 . S
C978 C977 1.391 . S
C978 C980 1.387 . S
C979 C976 1.398 . S
C979 C980 1.380 . S
C979 H988 0.930 . S
C980 C978 1.387 . S
C980 C979 1.380 . S
C980 H989 0.930 . S
C981 O958 1.254 . S
C981 O959 1.268 . S
H982 C967 0.930 . S
H983 C968 0.930 . S
H984 C970 0.930 . S
H985 C971 0.930 . S
H986 C976 0.930 . S
H987 C977 0.930 . S
H988 C979 0.930 . S
H989 C980 0.930 . S
H990 C998 0.929 . S
H991 C1000 0.930 . S
H992 C1002 0.930 . S
H993 C1005 0.929 . S
H994 C1008 0.930 . S
H995 C1010 0.960 . S
H996 C1010 0.960 . S
H997 C1010 0.960 . S
C998 H990 0.929 . S
C998 C999 1.377 . S
C998 C1000 1.384 . S
C999 C998 1.377 . S
C999 C1005 1.390 . S
C1000 H991 0.930 . S
C1000 C998 1.384 . S
C1000 C1001 1.372 . S
C1001 C1000 1.372 . S
C1001 C1002 1.400 . S
C1001 C1006 1.490 . S
C1002 H992 0.930 . S
C1002 C1001 1.400 . S
C1002 C1005 1.386 . S
H1003 C1019 0.930 . S
H1004 C1020 0.931 . S
C1005 H993 0.929 . S
C1005 C999 1.390 . S
C1005 C1002 1.386 . S
C1006 C1001 1.490 . S
C1006 C1008 1.395 . S
C1006 C1009 1.403 . S
H1007 C1013 0.930 . S
C1008 H994 0.930 . S
C1008 C1006 1.395 . S
C1008 C1011 1.403 . S
C1009 C1006 1.403 . S
C1009 C1010 1.524 . S
C1009 C1013 1.400 . S
C1010 H995 0.960 . S
C1010 H996 0.960 . S
C1010 H997 0.960 . S
C1010 C1009 1.524 . S
C1011 C1008 1.403 . S
C1011 C1012 1.392 . S
C1011 C1015 1.495 . S
C1012 C1011 1.392 . S
C1012 C1013 1.385 . S
C1012 C1014 1.478 . S
C1013 H1007 0.930 . S
C1013 C1009 1.400 . S
C1013 C1012 1.385 . S
C1014 C1012 1.478 . S
C1014 C1016 1.381 . S
C1014 C1020 1.383 . S
C1015 C1011 1.495 . S
C1015 H1021 0.959 . S
C1015 H1022 0.961 . S
C1015 H1023 0.960 . S
C1016 C1014 1.381 . S
C1016 C1017 1.394 . S
C1016 H1024 0.930 . S
C1017 C1016 1.394 . S
C1017 C1018 1.383 . S
C1017 H1025 0.929 . S
C1018 C1017 1.383 . S
C1018 C1019 1.377 . S
C1019 H1003 0.930 . S
C1019 C1018 1.377 . S
C1019 C1020 1.379 . S
C1020 H1004 0.931 . S
C1020 C1014 1.383 . S
C1020 C1019 1.379 . S
H1021 C1015 0.959 . S
H1022 C1015 0.961 . S
H1023 C1015 0.960 . S
H1024 C1016 0.930 . S
H1025 C1017 0.929 . S
H1026 C1034 0.929 . S
H1027 C1036 0.930 . S
H1028 C1038 0.930 . S
H1029 C1041 0.929 . S
H1030 C1044 0.930 . S
H1031 C1046 0.960 . S
H1032 C1046 0.960 . S
H1033 C1046 0.960 . S
C1034 H1026 0.929 . S
C1034 C1035 1.377 . S
C1034 C1036 1.384 . S
C1035 C1034 1.377 . S
C1035 C1041 1.390 . S
C1036 H1027 0.930 . S
C1036 C1034 1.384 . S
C1036 C1037 1.372 . S
C1037 C1036 1.372 . S
C1037 C1038 1.400 . S
C1037 C1042 1.490 . S
C1038 H1028 0.930 . S
C1038 C1037 1.400 . S
C1038 C1041 1.386 . S
H1039 C1055 0.930 . S
H1040 C1056 0.931 . S
C1041 H1029 0.929 . S
C1041 C1035 1.390 . S
C1041 C1038 1.386 . S
C1042 C1037 1.490 . S
C1042 C1044 1.395 . S
C1042 C1045 1.403 . S
H1043 C1049 0.930 . S
C1044 H1030 0.930 . S
C1044 C1042 1.395 . S
C1044 C1047 1.403 . S
C1045 C1042 1.403 . S
C1045 C1046 1.524 . S
C1045 C1049 1.400 . S
C1046 H1031 0.960 . S
C1046 H1032 0.960 . S
C1046 H1033 0.960 . S
C1046 C1045 1.524 . S
C1047 C1044 1.403 . S
C1047 C1048 1.392 . S
C1047 C1051 1.495 . S
C1048 C1047 1.392 . S
C1048 C1049 1.385 . S
C1048 C1050 1.478 . S
C1049 H1043 0.930 . S
C1049 C1045 1.400 . S
C1049 C1048 1.385 . S
C1050 C1048 1.478 . S
C1050 C1052 1.381 . S
C1050 C1056 1.383 . S
C1051 C1047 1.495 . S
C1051 H1057 0.959 . S
C1051 H1058 0.961 . S
C1051 H1059 0.960 . S
C1052 C1050 1.381 . S
C1052 C1053 1.394 . S
C1052 H1060 0.930 . S
C1053 C1052 1.394 . S
C1053 C1054 1.383 . S
C1053 H1061 0.929 . S
C1054 C1053 1.383 . S
C1054 C1055 1.377 . S
C1055 H1039 0.930 . S
C1055 C1054 1.377 . S
C1055 C1056 1.379 . S
C1056 H1040 0.931 . S
C1056 C1050 1.383 . S
C1056 C1055 1.379 . S
H1057 C1051 0.959 . S
H1058 C1051 0.961 . S
H1059 C1051 0.960 . S
H1060 C1052 0.930 . S
H1061 C1053 0.929 . S
H1062 C1070 0.929 . S
H1063 C1072 0.930 . S
H1064 C1074 0.930 . S
H1065 C1077 0.929 . S
H1066 C1080 0.930 . S
H1067 C1082 0.960 . S
H1068 C1082 0.960 . S
H1069 C1082 0.960 . S
C1070 H1062 0.929 . S
C1070 C1071 1.377 . S
C1070 C1072 1.384 . S
C1071 C1070 1.377 . S
C1071 C1077 1.390 . S
C1072 H1063 0.930 . S
C1072 C1070 1.384 . S
C1072 C1073 1.372 . S
C1073 C1072 1.372 . S
C1073 C1074 1.400 . S
C1073 C1078 1.490 . S
C1074 H1064 0.930 . S
C1074 C1073 1.400 . S
C1074 C1077 1.386 . S
H1075 C1091 0.930 . S
H1076 C1092 0.931 . S
C1077 H1065 0.929 . S
C1077 C1071 1.390 . S
C1077 C1074 1.386 . S
C1078 C1073 1.490 . S
C1078 C1080 1.395 . S
C1078 C1081 1.403 . S
H1079 C1085 0.930 . S
C1080 H1066 0.930 . S
C1080 C1078 1.395 . S
C1080 C1083 1.403 . S
C1081 C1078 1.403 . S
C1081 C1082 1.524 . S
C1081 C1085 1.400 . S
C1082 H1067 0.960 . S
C1082 H1068 0.960 . S
C1082 H1069 0.960 . S
C1082 C1081 1.524 . S
C1083 C1080 1.403 . S
C1083 C1084 1.392 . S
C1083 C1087 1.495 . S
C1084 C1083 1.392 . S
C1084 C1085 1.385 . S
C1084 C1086 1.478 . S
C1085 H1079 0.930 . S
C1085 C1081 1.400 . S
C1085 C1084 1.385 . S
C1086 C1084 1.478 . S
C1086 C1088 1.381 . S
C1086 C1092 1.383 . S
C1087 C1083 1.495 . S
C1087 H1093 0.959 . S
C1087 H1094 0.961 . S
C1087 H1095 0.960 . S
C1088 C1086 1.381 . S
C1088 C1089 1.394 . S
C1088 H1096 0.930 . S
C1089 C1088 1.394 . S
C1089 C1090 1.383 . S
C1089 H1097 0.929 . S
C1090 C1089 1.383 . S
C1090 C1091 1.377 . S
C1091 H1075 0.930 . S
C1091 C1090 1.377 . S
C1091 C1092 1.379 . S
C1092 H1076 0.931 . S
C1092 C1086 1.383 . S
C1092 C1091 1.379 . S
H1093 C1087 0.959 . S
H1094 C1087 0.961 . S
H1095 C1087 0.960 . S
H1096 C1088 0.930 . S
H1097 C1089 0.929 . S
H1098 C1106 0.929 . S
H1099 C1108 0.930 . S
H1100 C1110 0.930 . S
H1101 C1113 0.929 . S
H1102 C1116 0.930 . S
H1103 C1118 0.960 . S
H1104 C1118 0.960 . S
H1105 C1118 0.960 . S
C1106 H1098 0.929 . S
C1106 C1107 1.377 . S
C1106 C1108 1.384 . S
C1107 C1106 1.377 . S
C1107 C1113 1.390 . S
C1108 H1099 0.930 . S
C1108 C1106 1.384 . S
C1108 C1109 1.372 . S
C1109 C1108 1.372 . S
C1109 C1110 1.400 . S
C1109 C1114 1.490 . S
C1110 H1100 0.930 . S
C1110 C1109 1.400 . S
C1110 C1113 1.386 . S
H1111 C1127 0.930 . S
H1112 C1128 0.931 . S
C1113 H1101 0.929 . S
C1113 C1107 1.390 . S
C1113 C1110 1.386 . S
C1114 C1109 1.490 . S
C1114 C1116 1.395 . S
C1114 C1117 1.403 . S
H1115 C1121 0.930 . S
C1116 H1102 0.930 . S
C1116 C1114 1.395 . S
C1116 C1119 1.403 . S
C1117 C1114 1.403 . S
C1117 C1118 1.524 . S
C1117 C1121 1.400 . S
C1118 H1103 0.960 . S
C1118 H1104 0.960 . S
C1118 H1105 0.960 . S
C1118 C1117 1.524 . S
C1119 C1116 1.403 . S
C1119 C1120 1.392 . S
C1119 C1123 1.495 . S
C1120 C1119 1.392 . S
C1120 C1121 1.385 . S
C1120 C1122 1.478 . S
C1121 H1115 0.930 . S
C1121 C1117 1.400 . S
C1121 C1120 1.385 . S
C1122 C1120 1.478 . S
C1122 C1124 1.381 1_556 S
C1122 C1128 1.383 . S
C1123 C1119 1.495 . S
C1123 H1129 0.959 . S
C1123 H1130 0.961 . S
C1123 H1131 0.997 . S
C1124 C1122 1.381 1_554 S
C1124 C1125 1.394 . S
C1124 H1132 0.930 . S
C1125 C1124 1.394 . S
C1125 C1126 1.383 1_554 S
C1125 H1133 0.929 . S
C1126 C1125 1.383 1_556 S
C1126 C1127 1.377 . S
C1127 H1111 0.930 . S
C1127 C1126 1.377 . S
C1127 C1128 1.379 . S
C1128 H1112 0.931 . S
C1128 C1122 1.383 . S
C1128 C1127 1.379 . S
H1129 C1123 0.959 . S
H1130 C1123 0.961 . S
H1131 C1123 0.997 . S
H1132 C1124 0.930 . S
H1133 C1125 0.929 . S
H1134 C1142 0.929 . S
H1135 C1144 0.930 . S
H1136 C1146 0.930 . S
H1137 C1149 0.929 . S
H1138 C1152 0.930 . S
H1139 C1154 0.960 . S
H1140 C1154 0.960 . S
H1141 C1154 0.960 . S
C1142 H1134 0.929 . S
C1142 C1143 1.377 . S
C1142 C1144 1.384 . S
C1143 C1142 1.377 . S
C1143 C1149 1.390 . S
C1144 H1135 0.930 . S
C1144 C1142 1.384 . S
C1144 C1145 1.372 . S
C1145 C1144 1.372 . S
C1145 C1146 1.400 . S
C1145 C1150 1.490 . S
C1146 H1136 0.930 . S
C1146 C1145 1.400 . S
C1146 C1149 1.386 . S
H1147 C1163 0.930 . S
H1148 C1164 0.931 . S
C1149 H1137 0.929 . S
C1149 C1143 1.390 . S
C1149 C1146 1.386 . S
C1150 C1145 1.490 . S
C1150 C1152 1.395 . S
C1150 C1153 1.403 . S
H1151 C1157 0.930 . S
C1152 H1138 0.930 . S
C1152 C1150 1.395 . S
C1152 C1155 1.403 . S
C1153 C1150 1.403 . S
C1153 C1154 1.524 . S
C1153 C1157 1.400 . S
C1154 H1139 0.960 . S
C1154 H1140 0.960 . S
C1154 H1141 0.960 . S
C1154 C1153 1.524 . S
C1155 C1152 1.403 . S
C1155 C1156 1.392 . S
C1155 C1159 1.495 1_556 S
C1156 C1155 1.392 . S
C1156 C1157 1.385 . S
C1156 C1158 1.478 . S
C1157 H1151 0.930 . S
C1157 C1153 1.400 . S
C1157 C1156 1.385 . S
C1158 C1156 1.478 . S
C1158 C1160 1.381 1_556 S
C1158 C1164 1.383 . S
C1159 C1155 1.495 1_554 S
C1159 H1165 0.959 . S
C1159 H1166 0.961 . S
C1159 H1167 0.960 . S
C1160 C1158 1.381 1_554 S
C1160 C1161 1.394 . S
C1160 H1168 0.930 . S
C1161 C1160 1.394 . S
C1161 C1162 1.356 1_554 S
C1161 H1169 0.929 . S
C1162 C1161 1.356 1_556 S
C1162 C1163 1.419 . S
C1163 H1147 0.930 . S
C1163 C1162 1.419 . S
C1163 C1164 1.379 . S
C1164 H1148 0.931 . S
C1164 C1158 1.383 . S
C1164 C1163 1.379 . S
H1165 C1159 0.959 . S
H1166 C1159 0.961 . S
H1167 C1159 0.960 . S
H1168 C1160 0.930 . S
H1169 C1161 0.929 . S
H1170 C1178 0.929 . S
H1171 C1180 0.930 . S
H1172 C1182 0.930 . S
H1173 C1185 0.929 . S
H1174 C1188 0.930 . S
H1175 C1190 0.960 . S
H1176 C1190 0.960 . S
H1177 C1190 0.960 . S
C1178 H1170 0.929 . S
C1178 C1179 1.377 . S
C1178 C1180 1.384 . S
C1179 C1178 1.377 . S
C1179 C1185 1.390 . S
C1180 H1171 0.930 . S
C1180 C1178 1.384 . S
C1180 C1181 1.372 . S
C1181 C1180 1.372 . S
C1181 C1182 1.400 . S
C1181 C1186 1.490 . S
C1182 H1172 0.930 . S
C1182 C1181 1.400 . S
C1182 C1185 1.386 . S
H1183 C1199 0.951 . S
H1184 C1200 0.931 . S
C1185 H1173 0.929 . S
C1185 C1179 1.390 . S
C1185 C1182 1.386 . S
C1186 C1181 1.490 . S
C1186 C1188 1.395 . S
C1186 C1189 1.403 . S
H1187 C1193 0.930 . S
C1188 H1174 0.930 . S
C1188 C1186 1.395 . S
C1188 C1191 1.403 . S
C1189 C1186 1.403 . S
C1189 C1190 1.524 . S
C1189 C1193 1.400 . S
C1190 H1175 0.960 . S
C1190 H1176 0.960 . S
C1190 H1177 0.960 . S
C1190 C1189 1.524 . S
C1191 C1188 1.403 . S
C1191 C1192 1.392 . S
C1191 C1195 1.495 1_556 S
C1192 C1191 1.392 . S
C1192 C1193 1.385 . S
C1192 C1194 1.478 . S
C1193 H1187 0.930 . S
C1193 C1189 1.400 . S
C1193 C1192 1.385 . S
C1194 C1192 1.478 . S
C1194 C1196 1.381 . S
C1194 C1200 1.383 . S
C1195 C1191 1.495 1_554 S
C1195 H1201 0.959 . S
C1195 H1202 0.961 . S
C1195 H1203 0.960 . S
C1196 C1194 1.381 . S
C1196 C1197 1.394 . S
C1196 H1204 0.930 . S
C1197 C1196 1.394 . S
C1197 C1198 1.381 1_556 S
C1197 H1205 0.929 . S
C1198 C1197 1.381 1_554 S
C1198 C1199 1.375 . S
C1199 H1183 0.951 . S
C1199 C1198 1.375 . S
C1199 C1200 1.366 1_554 S
C1200 H1184 0.931 . S
C1200 C1194 1.383 . S
C1200 C1199 1.366 1_556 S
H1201 C1195 0.959 . S
H1202 C1195 0.961 . S
H1203 C1195 0.960 . S
H1204 C1196 0.930 . S
H1205 C1197 0.929 . S
H1206 C1214 0.929 . S
H1207 C1216 0.930 . S
H1208 C1218 0.930 . S
H1209 C1221 0.929 . S
H1210 C1224 0.930 . S
H1211 C1226 0.960 . S
H1212 C1226 0.960 . S
H1213 C1226 0.960 . S
C1214 H1206 0.929 . S
C1214 C1215 1.377 . S
C1214 C1216 1.384 . S
C1215 C1214 1.377 . S
C1215 C1221 1.390 . S
C1216 H1207 0.930 . S
C1216 C1214 1.384 . S
C1216 C1217 1.372 . S
C1217 C1216 1.372 . S
C1217 C1218 1.400 . S
C1217 C1222 1.490 . S
C1218 H1208 0.930 . S
C1218 C1217 1.400 . S
C1218 C1221 1.386 . S
H1219 C1235 0.930 . S
H1220 C1236 0.931 . S
C1221 H1209 0.929 . S
C1221 C1215 1.390 . S
C1221 C1218 1.386 . S
C1222 C1217 1.490 . S
C1222 C1224 1.395 . S
C1222 C1225 1.403 . S
H1223 C1229 0.930 . S
C1224 H1210 0.930 . S
C1224 C1222 1.395 . S
C1224 C1227 1.403 . S
C1225 C1222 1.403 . S
C1225 C1226 1.524 . S
C1225 C1229 1.400 . S
C1226 H1211 0.960 . S
C1226 H1212 0.960 . S
C1226 H1213 0.960 . S
C1226 C1225 1.524 . S
C1227 C1224 1.403 . S
C1227 C1228 1.392 . S
C1227 C1231 1.495 . S
C1228 C1227 1.392 . S
C1228 C1229 1.385 . S
C1228 C1230 1.478 . S
C1229 H1223 0.930 . S
C1229 C1225 1.400 . S
C1229 C1228 1.385 . S
C1230 C1228 1.478 . S
C1230 C1232 1.381 . S
C1230 C1236 1.383 1_556 S
C1231 C1227 1.495 . S
C1231 H1237 0.959 . S
C1231 H1238 0.919 1_556 S
C1231 H1239 0.960 . S
C1232 C1230 1.381 . S
C1232 C1233 1.394 . S
C1232 H1240 0.930 . S
C1233 C1232 1.394 . S
C1233 C1234 1.383 . S
C1233 H1241 0.929 . S
C1234 C1233 1.383 . S
C1234 C1235 1.377 1_556 S
C1235 H1219 0.930 . S
C1235 C1234 1.377 1_554 S
C1235 C1236 1.379 . S
C1236 H1220 0.931 . S
C1236 C1230 1.383 1_554 S
C1236 C1235 1.379 . S
H1237 C1231 0.959 . S
H1238 C1231 0.919 1_554 S
H1239 C1231 0.960 . S
H1240 C1232 0.930 . S
H1241 C1233 0.929 . S
H1242 C1250 0.929 . S
H1243 C1252 0.930 . S
H1244 C1254 0.930 . S
H1245 C1257 0.929 . S
H1246 C1260 0.930 . S
H1247 C1262 0.960 . S
H1248 C1262 0.968 . S
H1249 C1262 0.960 . S
C1250 H1242 0.929 . S
C1250 C1251 1.377 . S
C1250 C1252 1.384 . S
C1251 C1250 1.377 . S
C1251 C1257 1.390 . S
C1252 H1243 0.930 . S
C1252 C1250 1.384 . S
C1252 C1253 1.372 . S
C1253 C1252 1.372 . S
C1253 C1254 1.400 . S
C1253 C1258 1.490 . S
C1254 H1244 0.930 . S
C1254 C1253 1.400 . S
C1254 C1257 1.386 . S
H1255 C1271 0.970 . S
H1256 C1272 0.931 . S
C1257 H1245 0.929 . S
C1257 C1251 1.390 . S
C1257 C1254 1.386 . S
C1258 C1253 1.490 . S
C1258 C1260 1.395 . S
C1258 C1261 1.403 . S
H1259 C1265 0.930 1_554 S
C1260 H1246 0.930 . S
C1260 C1258 1.395 . S
C1260 C1263 1.403 . S
C1261 C1258 1.403 . S
C1261 C1262 1.524 1_556 S
C1261 C1265 1.400 . S
C1262 H1247 0.960 . S
C1262 H1248 0.968 . S
C1262 H1249 0.960 . S
C1262 C1261 1.524 1_554 S
C1263 C1260 1.403 . S
C1263 C1264 1.392 . S
C1263 C1267 1.495 . S
C1264 C1263 1.392 . S
C1264 C1265 1.385 . S
C1264 C1266 1.478 . S
C1265 H1259 0.930 1_556 S
C1265 C1261 1.400 . S
C1265 C1264 1.385 . S
C1266 C1264 1.478 . S
C1266 C1268 1.381 . S
C1266 C1272 1.383 . S
C1267 C1263 1.495 . S
C1267 H1273 0.959 . S
C1267 H1274 0.961 . S
C1267 H1275 0.960 . S
C1268 C1266 1.381 . S
C1268 C1269 1.394 . S
C1268 H1276 0.930 . S
C1269 C1268 1.394 . S
C1269 C1270 1.383 . S
C1269 H1277 0.929 . S
C1270 C1269 1.383 . S
C1270 C1271 1.359 1_556 S
C1271 H1255 0.970 . S
C1271 C1270 1.359 1_554 S
C1271 C1272 1.361 1_554 S
C1272 H1256 0.931 . S
C1272 C1266 1.383 . S
C1272 C1271 1.361 1_556 S
H1273 C1267 0.959 . S
H1274 C1267 0.961 . S
H1275 C1267 0.960 . S
H1276 C1268 0.930 . S
H1277 C1269 0.929 . S
H1278 C1286 0.929 . S
H1279 C1288 0.930 . S
H1280 C1290 0.930 . S
H1281 C1293 0.929 . S
H1282 C1296 0.930 . S
H1283 C1298 0.960 1_554 S
H1284 C1298 0.960 1_554 S
H1285 C1298 0.960 . S
C1286 H1278 0.929 . S
C1286 C1287 1.377 . S
C1286 C1288 1.384 . S
C1287 C1286 1.377 . S
C1287 C1293 1.390 . S
C1288 H1279 0.930 . S
C1288 C1286 1.384 . S
C1288 C1289 1.372 . S
C1289 C1288 1.372 . S
C1289 C1290 1.400 . S
C1289 C1294 1.490 . S
C1290 H1280 0.930 . S
C1290 C1289 1.400 . S
C1290 C1293 1.386 . S
H1291 C1307 0.930 . S
H1292 C1308 0.931 . S
C1293 H1281 0.929 . S
C1293 C1287 1.390 . S
C1293 C1290 1.386 . S
C1294 C1289 1.490 . S
C1294 C1296 1.395 . S
C1294 C1297 1.403 . S
H1295 C1301 0.970 . S
C1296 H1282 0.930 . S
C1296 C1294 1.395 . S
C1296 C1299 1.403 . S
C1297 C1294 1.403 . S
C1297 C1298 1.524 . S
C1297 C1301 1.400 . S
C1298 H1283 0.960 1_556 S
C1298 H1284 0.960 1_556 S
C1298 H1285 0.960 . S
C1298 C1297 1.524 . S
C1299 C1296 1.403 . S
C1299 C1300 1.392 . S
C1299 C1303 1.495 . S
C1300 C1299 1.392 . S
C1300 C1301 1.385 . S
C1300 C1302 1.478 . S
C1301 H1295 0.970 . S
C1301 C1297 1.400 . S
C1301 C1300 1.385 . S
C1302 C1300 1.478 . S
C1302 C1304 1.386 1_556 S
C1302 C1308 1.383 . S
C1303 C1299 1.495 . S
C1303 H1309 0.959 . S
C1303 H1310 0.961 . S
C1303 H1311 0.960 . S
C1304 C1302 1.386 1_554 S
C1304 C1305 1.392 . S
C1304 H1312 0.928 . S
C1305 C1304 1.392 . S
C1305 C1306 1.383 1_554 S
C1305 H1313 0.929 . S
C1306 C1305 1.383 1_556 S
C1306 C1307 1.377 . S
C1307 H1291 0.930 . S
C1307 C1306 1.377 . S
C1307 C1308 1.379 . S
C1308 H1292 0.931 . S
C1308 C1302 1.383 . S
C1308 C1307 1.379 . S
H1309 C1303 0.959 . S
H1310 C1303 0.961 . S
H1311 C1303 0.960 . S
H1312 C1304 0.928 . S
H1313 C1305 0.929 . S
H1314 C1322 0.929 . S
H1315 C1324 0.930 . S
H1316 C1326 0.930 . S
H1317 C1329 0.929 . S
H1318 C1332 0.930 . S
H1319 C1334 0.960 . S
H1320 C1334 0.960 . S
H1321 C1334 0.960 . S
C1322 H1314 0.929 . S
C1322 C1323 1.377 . S
C1322 C1324 1.384 . S
C1323 C1322 1.377 . S
C1323 C1329 1.390 . S
C1324 H1315 0.930 . S
C1324 C1322 1.384 . S
C1324 C1325 1.372 . S
C1325 C1324 1.372 . S
C1325 C1326 1.400 . S
C1325 C1330 1.490 . S
C1326 H1316 0.930 . S
C1326 C1325 1.400 . S
C1326 C1329 1.386 . S
H1327 C1343 0.930 . S
H1328 C1344 0.931 . S
C1329 H1317 0.929 . S
C1329 C1323 1.390 . S
C1329 C1326 1.386 . S
C1330 C1325 1.490 . S
C1330 C1332 1.395 . S
C1330 C1333 1.403 . S
H1331 C1337 0.930 . S
C1332 H1318 0.930 . S
C1332 C1330 1.395 . S
C1332 C1335 1.403 . S
C1333 C1330 1.403 . S
C1333 C1334 1.524 . S
C1333 C1337 1.400 . S
C1334 H1319 0.960 . S
C1334 H1320 0.960 . S
C1334 H1321 0.960 . S
C1334 C1333 1.524 . S
C1335 C1332 1.403 . S
C1335 C1336 1.392 . S
C1335 C1339 1.495 . S
C1336 C1335 1.392 . S
C1336 C1337 1.385 . S
C1336 C1338 1.478 . S
C1337 H1331 0.930 . S
C1337 C1333 1.400 . S
C1337 C1336 1.385 . S
C1338 C1336 1.478 . S
C1338 C1340 1.381 . S
C1338 C1344 1.383 . S
C1339 C1335 1.495 . S
C1339 H1345 0.959 . S
C1339 H1346 0.961 . S
C1339 H1347 0.960 . S
C1340 C1338 1.381 . S
C1340 C1341 1.394 . S
C1340 H1348 0.930 . S
C1341 C1340 1.394 . S
C1341 C1342 1.383 . S
C1341 H1349 0.929 . S
C1342 C1341 1.383 . S
C1342 C1343 1.377 . S
C1343 H1327 0.930 . S
C1343 C1342 1.377 . S
C1343 C1344 1.379 . S
C1344 H1328 0.931 . S
C1344 C1338 1.383 . S
C1344 C1343 1.379 . S
H1345 C1339 0.959 . S
H1346 C1339 0.961 . S
H1347 C1339 0.960 . S
H1348 C1340 0.930 . S
H1349 C1341 0.929 . S
H1350 C1358 0.929 . S
H1351 C1360 0.930 . S
H1352 C1362 0.930 . S
H1353 C1365 0.929 . S
H1354 C1368 0.930 . S
H1355 C1370 0.960 . S
H1356 C1370 0.960 . S
H1357 C1370 0.960 . S
C1358 H1350 0.929 . S
C1358 C1359 1.377 . S
C1358 C1360 1.384 . S
C1359 C1358 1.377 . S
C1359 C1365 1.390 . S
C1360 H1351 0.930 . S
C1360 C1358 1.384 . S
C1360 C1361 1.372 . S
C1361 C1360 1.372 . S
C1361 C1362 1.400 . S
C1361 C1366 1.490 . S
C1362 H1352 0.930 . S
C1362 C1361 1.400 . S
C1362 C1365 1.386 . S
H1363 C1379 0.930 . S
H1364 C1380 0.931 . S
C1365 H1353 0.929 . S
C1365 C1359 1.390 . S
C1365 C1362 1.386 . S
C1366 C1361 1.490 . S
C1366 C1368 1.395 . S
C1366 C1369 1.403 . S
H1367 C1373 0.930 . S
C1368 H1354 0.930 . S
C1368 C1366 1.395 . S
C1368 C1371 1.403 . S
C1369 C1366 1.403 . S
C1369 C1370 1.524 . S
C1369 C1373 1.400 . S
C1370 H1355 0.960 . S
C1370 H1356 0.960 . S
C1370 H1357 0.960 . S
C1370 C1369 1.524 . S
C1371 C1368 1.403 . S
C1371 C1372 1.392 . S
C1371 C1375 1.495 . S
C1372 C1371 1.392 . S
C1372 C1373 1.385 . S
C1372 C1374 1.478 . S
C1373 H1367 0.930 . S
C1373 C1369 1.400 . S
C1373 C1372 1.385 . S
C1374 C1372 1.478 . S
C1374 C1376 1.381 . S
C1374 C1380 1.383 . S
C1375 C1371 1.495 . S
C1375 H1381 0.959 . S
C1375 H1382 0.961 . S
C1375 H1383 0.960 . S
C1376 C1374 1.381 . S
C1376 C1377 1.394 . S
C1376 H1384 0.930 . S
C1377 C1376 1.394 . S
C1377 C1378 1.383 . S
C1377 H1385 0.929 . S
C1378 C1377 1.383 . S
C1378 C1379 1.377 . S
C1379 H1363 0.930 . S
C1379 C1378 1.377 . S
C1379 C1380 1.379 . S
C1380 H1364 0.931 . S
C1380 C1374 1.383 . S
C1380 C1379 1.379 . S
H1381 C1375 0.959 . S
H1382 C1375 0.961 . S
H1383 C1375 0.960 . S
H1384 C1376 0.930 . S
H1385 C1377 0.929 . S
H1386 C1394 0.929 . S
H1387 C1396 0.930 . S
H1388 C1398 0.930 . S
H1389 C1401 0.929 . S
H1390 C1404 0.930 . S
H1391 C1406 0.960 . S
H1392 C1406 0.960 . S
H1393 C1406 0.960 . S
C1394 H1386 0.929 . S
C1394 C1395 1.377 . S
C1394 C1396 1.384 . S
C1395 C1394 1.377 . S
C1395 C1401 1.390 . S
C1396 H1387 0.930 . S
C1396 C1394 1.384 . S
C1396 C1397 1.372 . S
C1397 C1396 1.372 . S
C1397 C1398 1.400 . S
C1397 C1402 1.490 . S
C1398 H1388 0.930 . S
C1398 C1397 1.400 . S
C1398 C1401 1.386 . S
H1399 C1415 0.930 . S
H1400 C1416 0.931 . S
C1401 H1389 0.929 . S
C1401 C1395 1.390 . S
C1401 C1398 1.386 . S
C1402 C1397 1.490 . S
C1402 C1404 1.395 . S
C1402 C1405 1.403 . S
H1403 C1409 0.930 . S
C1404 H1390 0.930 . S
C1404 C1402 1.395 . S
C1404 C1407 1.403 . S
C1405 C1402 1.403 . S
C1405 C1406 1.524 . S
C1405 C1409 1.400 . S
C1406 H1391 0.960 . S
C1406 H1392 0.960 . S
C1406 H1393 0.960 . S
C1406 C1405 1.524 . S
C1407 C1404 1.403 . S
C1407 C1408 1.392 . S
C1407 C1411 1.495 . S
C1408 C1407 1.392 . S
C1408 C1409 1.385 . S
C1408 C1410 1.478 . S
C1409 H1403 0.930 . S
C1409 C1405 1.400 . S
C1409 C1408 1.385 . S
C1410 C1408 1.478 . S
C1410 C1412 1.381 . S
C1410 C1416 1.383 . S
C1411 C1407 1.495 . S
C1411 H1417 0.959 . S
C1411 H1418 0.961 . S
C1411 H1419 0.960 . S
C1412 C1410 1.381 . S
C1412 C1413 1.394 . S
C1412 H1420 0.930 . S
C1413 C1412 1.394 . S
C1413 C1414 1.383 . S
C1413 H1421 0.929 . S
C1414 C1413 1.383 . S
C1414 C1415 1.377 . S
C1415 H1399 0.930 . S
C1415 C1414 1.377 . S
C1415 C1416 1.379 . S
C1416 H1400 0.931 . S
C1416 C1410 1.383 . S
C1416 C1415 1.379 . S
H1417 C1411 0.959 . S
H1418 C1411 0.961 . S
H1419 C1411 0.960 . S
H1420 C1412 0.930 . S
H1421 C1413 0.929 . S
H1422 C1430 0.929 . S
H1423 C1432 0.930 . S
H1424 C1434 0.930 . S
H1425 C1437 0.929 . S
H1426 C1440 0.930 . S
H1427 C1442 0.960 . S
H1428 C1442 0.960 . S
H1429 C1442 0.960 1_655 S
C1430 H1422 0.929 . S
C1430 C1431 1.377 . S
C1430 C1432 1.384 . S
C1431 C1430 1.377 . S
C1431 C1437 1.390 . S
C1432 H1423 0.930 . S
C1432 C1430 1.384 . S
C1432 C1433 1.372 . S
C1433 C1432 1.372 . S
C1433 C1434 1.400 . S
C1433 C1438 1.490 . S
C1434 H1424 0.930 . S
C1434 C1433 1.400 . S
C1434 C1437 1.386 . S
H1435 C1451 0.930 . S
H1436 C1452 0.931 . S
C1437 H1425 0.929 . S
C1437 C1431 1.390 . S
C1437 C1434 1.386 . S
C1438 C1433 1.490 . S
C1438 C1440 1.395 . S
C1438 C1441 1.403 1_655 S
H1439 C1445 0.930 . S
C1440 H1426 0.930 . S
C1440 C1438 1.395 . S
C1440 C1443 1.403 1_655 S
C1441 C1438 1.403 1_455 S
C1441 C1442 1.524 . S
C1441 C1445 1.400 . S
C1442 H1427 0.960 . S
C1442 H1428 0.960 . S
C1442 H1429 0.960 1_455 S
C1442 C1441 1.524 . S
C1443 C1440 1.403 1_455 S
C1443 C1444 1.392 . S
C1443 C1447 1.495 . S
C1444 C1443 1.392 . S
C1444 C1445 1.385 . S
C1444 C1446 1.478 . S
C1445 H1439 0.930 . S
C1445 C1441 1.400 . S
C1445 C1444 1.385 . S
C1446 C1444 1.478 . S
C1446 C1448 1.381 . S
C1446 C1452 1.383 . S
C1447 C1443 1.495 . S
C1447 H1453 0.959 . S
C1447 H1454 0.961 . S
C1447 H1455 0.960 . S
C1448 C1446 1.381 . S
C1448 C1449 1.394 . S
C1448 H1456 0.930 . S
C1449 C1448 1.394 . S
C1449 C1450 1.383 . S
C1449 H1457 0.929 . S
C1450 C1449 1.383 . S
C1450 C1451 1.377 . S
C1451 H1435 0.930 . S
C1451 C1450 1.377 . S
C1451 C1452 1.379 . S
C1452 H1436 0.931 . S
C1452 C1446 1.383 . S
C1452 C1451 1.379 . S
H1453 C1447 0.959 . S
H1454 C1447 0.961 . S
H1455 C1447 0.960 . S
H1456 C1448 0.930 . S
H1457 C1449 0.929 . S
H1458 C1466 0.929 . S
H1459 C1468 0.930 . S
H1460 C1470 0.930 . S
H1461 C1473 0.929 . S
H1462 C1476 0.930 . S
H1463 C1478 0.960 . S
H1464 C1478 0.960 . S
H1465 C1478 0.960 . S
C1466 H1458 0.929 . S
C1466 C1467 1.377 . S
C1466 C1468 1.384 . S
C1467 C1466 1.377 . S
C1467 C1473 1.390 . S
C1468 H1459 0.930 . S
C1468 C1466 1.384 . S
C1468 C1469 1.372 . S
C1469 C1468 1.372 . S
C1469 C1470 1.400 . S
C1469 C1474 1.490 . S
C1470 H1460 0.930 . S
C1470 C1469 1.400 . S
C1470 C1473 1.386 . S
H1471 C1487 0.930 . S
H1472 C1488 0.931 . S
C1473 H1461 0.929 . S
C1473 C1467 1.390 . S
C1473 C1470 1.386 . S
C1474 C1469 1.490 . S
C1474 C1476 1.395 . S
C1474 C1477 1.403 . S
H1475 C1481 0.930 . S
C1476 H1462 0.930 . S
C1476 C1474 1.395 . S
C1476 C1479 1.403 . S
C1477 C1474 1.403 . S
C1477 C1478 1.524 . S
C1477 C1481 1.400 . S
C1478 H1463 0.960 . S
C1478 H1464 0.960 . S
C1478 H1465 0.960 . S
C1478 C1477 1.524 . S
C1479 C1476 1.403 . S
C1479 C1480 1.392 . S
C1479 C1483 1.495 . S
C1480 C1479 1.392 . S
C1480 C1481 1.385 . S
C1480 C1482 1.478 . S
C1481 H1475 0.930 . S
C1481 C1477 1.400 . S
C1481 C1480 1.385 . S
C1482 C1480 1.478 . S
C1482 C1484 1.381 . S
C1482 C1488 1.383 . S
C1483 C1479 1.495 . S
C1483 H1489 0.959 . S
C1483 H1490 0.961 . S
C1483 H1491 0.960 . S
C1484 C1482 1.381 . S
C1484 C1485 1.394 . S
C1484 H1492 0.930 . S
C1485 C1484 1.394 . S
C1485 C1486 1.383 . S
C1485 H1493 0.929 . S
C1486 C1485 1.383 . S
C1486 C1487 1.377 . S
C1487 H1471 0.930 . S
C1487 C1486 1.377 . S
C1487 C1488 1.379 . S
C1488 H1472 0.931 . S
C1488 C1482 1.383 . S
C1488 C1487 1.379 . S
H1489 C1483 0.959 . S
H1490 C1483 0.961 . S
H1491 C1483 0.960 . S
H1492 C1484 0.930 . S
H1493 C1485 0.929 . S
H1494 C1502 0.929 . S
H1495 C1504 0.930 . S
H1496 C1506 0.930 . S
H1497 C1509 0.929 . S
H1498 C1512 0.930 . S
H1499 C1514 0.960 1_565 S
H1500 C1514 0.960 . S
H1501 C1514 0.960 . S
C1502 H1494 0.929 . S
C1502 C1503 1.377 . S
C1502 C1504 1.384 . S
C1503 C1502 1.377 . S
C1503 C1509 1.390 . S
C1504 H1495 0.930 . S
C1504 C1502 1.384 . S
C1504 C1505 1.372 . S
C1505 C1504 1.372 . S
C1505 C1506 1.400 . S
C1505 C1510 1.490 . S
C1506 H1496 0.930 . S
C1506 C1505 1.400 . S
C1506 C1509 1.386 . S
H1507 C1523 0.930 . S
H1508 C1524 0.931 . S
C1509 H1497 0.929 . S
C1509 C1503 1.390 . S
C1509 C1506 1.386 . S
C1510 C1505 1.490 . S
C1510 C1512 1.395 . S
C1510 C1513 1.403 . S
H1511 C1517 0.930 . S
C1512 H1498 0.930 . S
C1512 C1510 1.395 . S
C1512 C1515 1.457 . S
C1513 C1510 1.403 . S
C1513 C1514 1.524 . S
C1513 C1517 1.400 1_545 S
C1514 H1499 0.960 1_545 S
C1514 H1500 0.960 . S
C1514 H1501 0.960 . S
C1514 C1513 1.524 . S
C1515 C1512 1.457 . S
C1515 C1516 1.372 1_545 S
C1515 C1519 1.466 1_545 S
C1516 C1515 1.372 1_565 S
C1516 C1517 1.385 . S
C1516 C1518 1.478 . S
C1517 H1511 0.930 . S
C1517 C1513 1.400 1_565 S
C1517 C1516 1.385 . S
C1518 C1516 1.478 . S
C1518 C1520 1.381 . S
C1518 C1524 1.383 . S
C1519 C1515 1.466 1_565 S
C1519 H1525 0.959 1_565 S
C1519 H1526 0.961 . S
C1519 H1527 0.960 . S
C1520 C1518 1.381 . S
C1520 C1521 1.394 . S
C1520 H1528 0.930 . S
C1521 C1520 1.394 . S
C1521 C1522 1.383 . S
C1521 H1529 0.929 . S
C1522 C1521 1.383 . S
C1522 C1523 1.377 . S
C1523 H1507 0.930 . S
C1523 C1522 1.377 . S
C1523 C1524 1.379 . S
C1524 H1508 0.931 . S
C1524 C1518 1.383 . S
C1524 C1523 1.379 . S
H1525 C1519 0.959 1_545 S
H1526 C1519 0.961 . S
H1527 C1519 0.960 . S
H1528 C1520 0.930 . S
H1529 C1521 0.929 . S
H1530 C1538 0.929 . S
H1531 C1540 0.930 . S
H1532 C1542 0.930 . S
H1533 C1545 0.929 . S
H1534 C1548 0.930 . S
H1535 C1550 0.960 . S
H1536 C1550 0.960 . S
H1537 C1550 0.960 . S
C1538 H1530 0.929 . S
C1538 C1539 1.377 . S
C1538 C1540 1.384 . S
C1539 C1538 1.377 . S
C1539 C1545 1.390 . S
C1540 H1531 0.930 . S
C1540 C1538 1.384 . S
C1540 C1541 1.372 . S
C1541 C1540 1.372 . S
C1541 C1542 1.400 . S
C1541 C1546 1.490 . S
C1542 H1532 0.930 . S
C1542 C1541 1.400 . S
C1542 C1545 1.386 . S
H1543 C1559 0.930 . S
H1544 C1560 0.931 . S
C1545 H1533 0.929 . S
C1545 C1539 1.390 . S
C1545 C1542 1.386 . S
C1546 C1541 1.490 . S
C1546 C1548 1.395 . S
C1546 C1549 1.403 . S
H1547 C1553 0.930 . S
C1548 H1534 0.930 . S
C1548 C1546 1.395 . S
C1548 C1551 1.403 . S
C1549 C1546 1.403 . S
C1549 C1550 1.524 . S
C1549 C1553 1.400 . S
C1550 H1535 0.960 . S
C1550 H1536 0.960 . S
C1550 H1537 0.960 . S
C1550 C1549 1.524 . S
C1551 C1548 1.403 . S
C1551 C1552 1.392 . S
C1551 C1555 1.495 . S
C1552 C1551 1.392 . S
C1552 C1553 1.385 . S
C1552 C1554 1.478 . S
C1553 H1547 0.930 . S
C1553 C1549 1.400 . S
C1553 C1552 1.385 . S
C1554 C1552 1.478 . S
C1554 C1556 1.381 . S
C1554 C1560 1.383 . S
C1555 C1551 1.495 . S
C1555 H1561 0.959 . S
C1555 H1562 0.961 . S
C1555 H1563 0.960 . S
C1556 C1554 1.381 . S
C1556 C1557 1.394 . S
C1556 H1564 0.930 . S
C1557 C1556 1.394 . S
C1557 C1558 1.383 . S
C1557 H1565 0.929 . S
C1558 C1557 1.383 . S
C1558 C1559 1.377 . S
C1559 H1543 0.930 . S
C1559 C1558 1.377 . S
C1559 C1560 1.379 . S
C1560 H1544 0.931 . S
C1560 C1554 1.383 . S
C1560 C1559 1.379 . S
H1561 C1555 0.959 . S
H1562 C1555 0.961 . S
H1563 C1555 0.960 . S
H1564 C1556 0.930 . S
H1565 C1557 0.929 . S
H1566 C1574 0.929 . S
H1567 C1576 0.930 . S
H1568 C1578 0.930 . S
H1569 C1581 0.929 . S
H1570 C1584 0.930 . S
H1571 C1586 0.960 . S
H1572 C1586 0.960 . S
H1573 C1586 0.960 . S
C1574 H1566 0.929 . S
C1574 C1575 1.377 . S
C1574 C1576 1.384 . S
C1575 C1574 1.377 . S
C1575 C1581 1.390 . S
C1576 H1567 0.930 . S
C1576 C1574 1.384 . S
C1576 C1577 1.372 . S
C1577 C1576 1.372 . S
C1577 C1578 1.400 . S
C1577 C1582 1.490 . S
C1578 H1568 0.930 . S
C1578 C1577 1.400 . S
C1578 C1581 1.386 . S
H1579 C1595 0.930 . S
H1580 C1596 0.931 . S
C1581 H1569 0.929 . S
C1581 C1575 1.390 . S
C1581 C1578 1.386 . S
C1582 C1577 1.490 . S
C1582 C1584 1.395 . S
C1582 C1585 1.403 . S
H1583 C1589 0.930 . S
C1584 H1570 0.930 . S
C1584 C1582 1.395 . S
C1584 C1587 1.403 . S
C1585 C1582 1.403 . S
C1585 C1586 1.524 . S
C1585 C1589 1.400 . S
C1586 H1571 0.960 . S
C1586 H1572 0.960 . S
C1586 H1573 0.960 . S
C1586 C1585 1.524 . S
C1587 C1584 1.403 . S
C1587 C1588 1.392 . S
C1587 C1591 1.495 . S
C1588 C1587 1.392 . S
C1588 C1589 1.385 . S
C1588 C1590 1.478 . S
C1589 H1583 0.930 . S
C1589 C1585 1.400 . S
C1589 C1588 1.385 . S
C1590 C1588 1.478 . S
C1590 C1592 1.381 . S
C1590 C1596 1.383 . S
C1591 C1587 1.495 . S
C1591 H1597 0.959 . S
C1591 H1598 0.961 . S
C1591 H1599 0.960 . S
C1592 C1590 1.381 . S
C1592 C1593 1.394 . S
C1592 H1600 0.930 . S
C1593 C1592 1.394 . S
C1593 C1594 1.383 . S
C1593 H1601 0.929 . S
C1594 C1593 1.383 . S
C1594 C1595 1.377 . S
C1595 H1579 0.930 . S
C1595 C1594 1.377 . S
C1595 C1596 1.379 . S
C1596 H1580 0.931 . S
C1596 C1590 1.383 . S
C1596 C1595 1.379 . S
H1597 C1591 0.959 . S
H1598 C1591 0.961 . S
H1599 C1591 0.960 . S
H1600 C1592 0.930 . S
H1601 C1593 0.929 . S
H1602 C1610 0.929 . S
H1603 C1612 0.930 . S
H1604 C1614 0.930 . S
H1605 C1617 0.929 . S
H1606 C1620 0.930 . S
H1607 C1622 0.960 . S
H1608 C1622 0.960 . S
H1609 C1622 0.960 . S
C1610 H1602 0.929 . S
C1610 C1611 1.377 . S
C1610 C1612 1.384 . S
C1611 C1610 1.377 . S
C1611 C1617 1.390 . S
C1612 H1603 0.930 . S
C1612 C1610 1.384 . S
C1612 C1613 1.372 . S
C1613 C1612 1.372 . S
C1613 C1614 1.400 . S
C1613 C1618 1.490 . S
C1614 H1604 0.930 . S
C1614 C1613 1.400 . S
C1614 C1617 1.386 . S
H1615 C1631 0.930 . S
H1616 C1632 0.931 . S
C1617 H1605 0.929 . S
C1617 C1611 1.390 . S
C1617 C1614 1.386 . S
C1618 C1613 1.490 . S
C1618 C1620 1.395 . S
C1618 C1621 1.403 . S
H1619 C1625 0.930 . S
C1620 H1606 0.930 . S
C1620 C1618 1.395 . S
C1620 C1623 1.403 . S
C1621 C1618 1.403 . S
C1621 C1622 1.524 . S
C1621 C1625 1.400 . S
C1622 H1607 0.960 . S
C1622 H1608 0.960 . S
C1622 H1609 0.960 . S
C1622 C1621 1.524 . S
C1623 C1620 1.403 . S
C1623 C1624 1.392 . S
C1623 C1627 1.495 . S
C1624 C1623 1.392 . S
C1624 C1625 1.385 . S
C1624 C1626 1.478 . S
C1625 H1619 0.930 . S
C1625 C1621 1.400 . S
C1625 C1624 1.385 . S
C1626 C1624 1.478 . S
C1626 C1628 1.381 . S
C1626 C1632 1.383 . S
C1627 C1623 1.495 . S
C1627 H1633 0.959 . S
C1627 H1634 0.961 . S
C1627 H1635 0.960 . S
C1628 C1626 1.381 . S
C1628 C1629 1.394 . S
C1628 H1636 0.930 . S
C1629 C1628 1.394 . S
C1629 C1630 1.383 . S
C1629 H1637 0.929 . S
C1630 C1629 1.383 . S
C1630 C1631 1.377 . S
C1631 H1615 0.930 . S
C1631 C1630 1.377 . S
C1631 C1632 1.379 . S
C1632 H1616 0.931 . S
C1632 C1626 1.383 . S
C1632 C1631 1.379 . S
H1633 C1627 0.959 . S
H1634 C1627 0.961 . S
H1635 C1627 0.960 . S
H1636 C1628 0.930 . S
H1637 C1629 0.929 . S
H1638 C1646 0.929 . S
H1639 C1648 0.930 . S
H1640 C1650 0.930 . S
H1641 C1653 0.929 . S
H1642 C1656 0.930 . S
H1643 C1658 0.960 . S
H1644 C1658 0.960 . S
H1645 C1658 0.960 . S
C1646 H1638 0.929 . S
C1646 C1647 1.377 . S
C1646 C1648 1.384 . S
C1647 C1646 1.377 . S
C1647 C1653 1.390 . S
C1648 H1639 0.930 . S
C1648 C1646 1.384 . S
C1648 C1649 1.372 . S
C1649 C1648 1.372 . S
C1649 C1650 1.400 . S
C1649 C1654 1.490 . S
C1650 H1640 0.930 . S
C1650 C1649 1.400 . S
C1650 C1653 1.386 . S
H1651 C1667 0.930 . S
H1652 C1668 0.931 . S
C1653 H1641 0.929 . S
C1653 C1647 1.390 . S
C1653 C1650 1.386 . S
C1654 C1649 1.490 . S
C1654 C1656 1.395 . S
C1654 C1657 1.403 . S
H1655 C1661 0.930 . S
C1656 H1642 0.930 . S
C1656 C1654 1.395 . S
C1656 C1659 1.403 . S
C1657 C1654 1.403 . S
C1657 C1658 1.524 . S
C1657 C1661 1.400 . S
C1658 H1643 0.960 . S
C1658 H1644 0.960 . S
C1658 H1645 0.960 . S
C1658 C1657 1.524 . S
C1659 C1656 1.403 . S
C1659 C1660 1.392 . S
C1659 C1663 1.495 . S
C1660 C1659 1.392 . S
C1660 C1661 1.385 . S
C1660 C1662 1.478 . S
C1661 H1655 0.930 . S
C1661 C1657 1.400 . S
C1661 C1660 1.385 . S
C1662 C1660 1.478 . S
C1662 C1664 1.381 . S
C1662 C1668 1.383 . S
C1663 C1659 1.495 . S
C1663 H1669 0.959 . S
C1663 H1670 0.961 . S
C1663 H1671 0.960 . S
C1664 C1662 1.381 . S
C1664 C1665 1.394 . S
C1664 H1672 0.930 . S
C1665 C1664 1.394 . S
C1665 C1666 1.383 . S
C1665 H1673 0.929 . S
C1666 C1665 1.383 . S
C1666 C1667 1.377 . S
C1667 H1651 0.930 . S
C1667 C1666 1.377 . S
C1667 C1668 1.379 . S
C1668 H1652 0.931 . S
C1668 C1662 1.383 . S
C1668 C1667 1.379 . S
H1669 C1663 0.959 . S
H1670 C1663 0.961 . S
H1671 C1663 0.960 . S
H1672 C1664 0.930 . S
H1673 C1665 0.929 . S
H1674 C1682 0.929 . S
H1675 C1684 0.930 . S
H1676 C1686 0.930 . S
H1677 C1689 0.929 . S
H1678 C1692 0.930 . S
H1679 C1694 0.960 . S
H1680 C1694 0.960 . S
H1681 C1694 0.960 . S
C1682 H1674 0.929 . S
C1682 C1683 1.377 . S
C1682 C1684 1.384 . S
C1683 C1682 1.377 . S
C1683 C1689 1.390 . S
C1684 H1675 0.930 . S
C1684 C1682 1.384 . S
C1684 C1685 1.372 . S
C1685 C1684 1.372 . S
C1685 C1686 1.400 . S
C1685 C1690 1.490 . S
C1686 H1676 0.930 . S
C1686 C1685 1.400 . S
C1686 C1689 1.386 . S
H1687 C1703 0.930 . S
H1688 C1704 0.931 . S
C1689 H1677 0.929 . S
C1689 C1683 1.390 . S
C1689 C1686 1.386 . S
C1690 C1685 1.490 . S
C1690 C1692 1.395 . S
C1690 C1693 1.403 . S
H1691 C1697 0.930 . S
C1692 H1678 0.930 . S
C1692 C1690 1.395 . S
C1692 C1695 1.403 . S
C1693 C1690 1.403 . S
C1693 C1694 1.524 . S
C1693 C1697 1.400 . S
C1694 H1679 0.960 . S
C1694 H1680 0.960 . S
C1694 H1681 0.960 . S
C1694 C1693 1.524 . S
C1695 C1692 1.403 . S
C1695 C1696 1.392 . S
C1695 C1699 1.495 . S
C1696 C1695 1.392 . S
C1696 C1697 1.385 . S
C1696 C1698 1.478 . S
C1697 H1691 0.930 . S
C1697 C1693 1.400 . S
C1697 C1696 1.385 . S
C1698 C1696 1.478 . S
C1698 C1700 1.381 . S
C1698 C1704 1.383 . S
C1699 C1695 1.495 . S
C1699 H1705 0.959 . S
C1699 H1706 0.961 . S
C1699 H1707 0.960 . S
C1700 C1698 1.381 . S
C1700 C1701 1.394 . S
C1700 H1708 0.930 . S
C1701 C1700 1.394 . S
C1701 C1702 1.383 . S
C1701 H1709 0.929 . S
C1702 C1701 1.383 . S
C1702 C1703 1.377 . S
C1703 H1687 0.930 . S
C1703 C1702 1.377 . S
C1703 C1704 1.379 . S
C1704 H1688 0.931 . S
C1704 C1698 1.383 . S
C1704 C1703 1.379 . S
H1705 C1699 0.959 . S
H1706 C1699 0.961 . S
H1707 C1699 0.960 . S
H1708 C1700 0.930 . S
H1709 C1701 0.929 . S
H1710 C1718 0.929 . S
H1711 C1720 0.930 . S
H1712 C1722 0.930 . S
H1713 C1725 0.929 . S
H1714 C1728 0.930 . S
H1715 C1730 0.960 . S
H1716 C1730 0.960 . S
H1717 C1730 0.960 . S
C1718 H1710 0.929 . S
C1718 C1719 1.377 . S
C1718 C1720 1.384 . S
C1719 C1718 1.377 . S
C1719 C1725 1.390 . S
C1720 H1711 0.930 . S
C1720 C1718 1.384 . S
C1720 C1721 1.372 . S
C1721 C1720 1.372 . S
C1721 C1722 1.400 . S
C1721 C1726 1.490 . S
C1722 H1712 0.930 . S
C1722 C1721 1.400 . S
C1722 C1725 1.386 . S
H1723 C1739 0.930 . S
H1724 C1740 0.931 . S
C1725 H1713 0.929 . S
C1725 C1719 1.390 . S
C1725 C1722 1.386 . S
C1726 C1721 1.490 . S
C1726 C1728 1.395 . S
C1726 C1729 1.403 . S
H1727 C1733 0.930 . S
C1728 H1714 0.930 . S
C1728 C1726 1.395 . S
C1728 C1731 1.403 . S
C1729 C1726 1.403 . S
C1729 C1730 1.524 . S
C1729 C1733 1.400 . S
C1730 H1715 0.960 . S
C1730 H1716 0.960 . S
C1730 H1717 0.960 . S
C1730 C1729 1.524 . S
C1731 C1728 1.403 . S
C1731 C1732 1.392 . S
C1731 C1735 1.495 . S
C1732 C1731 1.392 . S
C1732 C1733 1.385 . S
C1732 C1734 1.478 . S
C1733 H1727 0.930 . S
C1733 C1729 1.400 . S
C1733 C1732 1.385 . S
C1734 C1732 1.478 . S
C1734 C1736 1.381 . S
C1734 C1740 1.383 . S
C1735 C1731 1.495 . S
C1735 H1741 0.959 . S
C1735 H1742 0.961 . S
C1735 H1743 0.960 . S
C1736 C1734 1.381 . S
C1736 C1737 1.394 . S
C1736 H1744 0.930 . S
C1737 C1736 1.394 . S
C1737 C1738 1.383 . S
C1737 H1745 0.929 . S
C1738 C1737 1.383 . S
C1738 C1739 1.377 . S
C1739 H1723 0.930 . S
C1739 C1738 1.377 . S
C1739 C1740 1.379 . S
C1740 H1724 0.931 . S
C1740 C1734 1.383 . S
C1740 C1739 1.379 . S
H1741 C1735 0.959 . S
H1742 C1735 0.961 . S
H1743 C1735 0.960 . S
H1744 C1736 0.930 . S
H1745 C1737 0.929 . S
H1746 C1754 0.929 . S
H1747 C1756 0.929 1_565 S
H1748 C1758 0.931 . S
H1749 C1761 0.929 . S
H1750 C1764 0.930 . S
H1751 C1766 0.960 . S
H1752 C1766 0.960 . S
H1753 C1766 0.960 . S
C1754 H1746 0.929 . S
C1754 C1755 1.377 . S
C1754 C1756 1.384 . S
C1755 C1754 1.377 . S
C1755 C1761 1.390 . S
C1756 H1747 0.929 1_545 S
C1756 C1754 1.384 . S
C1756 C1757 1.372 1_545 S
C1757 C1756 1.372 1_565 S
C1757 C1758 1.400 1_565 S
C1757 C1762 1.490 . S
C1758 H1748 0.931 . S
C1758 C1757 1.400 1_545 S
C1758 C1761 1.386 . S
H1759 C1775 0.930 . S
H1760 C1776 0.931 . S
C1761 H1749 0.929 . S
C1761 C1755 1.390 . S
C1761 C1758 1.386 . S
C1762 C1757 1.490 . S
C1762 C1764 1.395 . S
C1762 C1765 1.403 . S
H1763 C1769 0.930 . S
C1764 H1750 0.930 . S
C1764 C1762 1.395 . S
C1764 C1767 1.403 . S
C1765 C1762 1.403 . S
C1765 C1766 1.524 . S
C1765 C1769 1.400 . S
C1766 H1751 0.960 . S
C1766 H1752 0.960 . S
C1766 H1753 0.960 . S
C1766 C1765 1.524 . S
C1767 C1764 1.403 . S
C1767 C1768 1.392 . S
C1767 C1771 1.495 . S
C1768 C1767 1.392 . S
C1768 C1769 1.385 . S
C1768 C1770 1.478 . S
C1769 H1763 0.930 . S
C1769 C1765 1.400 . S
C1769 C1768 1.385 . S
C1770 C1768 1.478 . S
C1770 C1772 1.381 . S
C1770 C1776 1.383 . S
C1771 C1767 1.495 . S
C1771 H1777 0.959 . S
C1771 H1778 0.961 . S
C1771 H1779 0.960 . S
C1772 C1770 1.381 . S
C1772 C1773 1.394 . S
C1772 H1780 0.930 . S
C1773 C1772 1.394 . S
C1773 C1774 1.383 . S
C1773 H1781 0.929 . S
C1774 C1773 1.383 . S
C1774 C1775 1.377 . S
C1775 H1759 0.930 . S
C1775 C1774 1.377 . S
C1775 C1776 1.379 . S
C1776 H1760 0.931 . S
C1776 C1770 1.383 . S
C1776 C1775 1.379 . S
H1777 C1771 0.959 . S
H1778 C1771 0.961 . S
H1779 C1771 0.960 . S
H1780 C1772 0.930 . S
H1781 C1773 0.929 . S
H1782 C1790 0.929 . S
H1783 C1792 0.931 . S
H1784 C1794 0.930 . S
H1785 C1797 0.929 . S
H1786 C1800 0.930 . S
H1787 C1802 0.960 . S
H1788 C1802 0.960 . S
H1789 C1802 0.960 . S
C1790 H1782 0.929 . S
C1790 C1791 1.377 . S
C1790 C1792 1.381 1_655 S
C1791 C1790 1.377 . S
C1791 C1797 1.390 . S
C1792 H1783 0.931 . S
C1792 C1790 1.381 1_455 S
C1792 C1793 1.374 . S
C1793 C1792 1.374 . S
C1793 C1794 1.400 . S
C1793 C1798 1.490 . S
C1794 H1784 0.930 . S
C1794 C1793 1.400 . S
C1794 C1797 1.386 1_455 S
H1795 C1811 0.930 . S
H1796 C1812 0.931 . S
C1797 H1785 0.929 . S
C1797 C1791 1.390 . S
C1797 C1794 1.386 1_655 S
C1798 C1793 1.490 . S
C1798 C1800 1.395 . S
C1798 C1801 1.403 . S
H1799 C1805 0.930 . S
C1800 H1786 0.930 . S
C1800 C1798 1.395 . S
C1800 C1803 1.403 . S
C1801 C1798 1.403 . S
C1801 C1802 1.524 . S
C1801 C1805 1.400 . S
C1802 H1787 0.960 . S
C1802 H1788 0.960 . S
C1802 H1789 0.960 . S
C1802 C1801 1.524 . S
C1803 C1800 1.403 . S
C1803 C1804 1.392 . S
C1803 C1807 1.495 . S
C1804 C1803 1.392 . S
C1804 C1805 1.385 . S
C1804 C1806 1.478 . S
C1805 H1799 0.930 . S
C1805 C1801 1.400 . S
C1805 C1804 1.385 . S
C1806 C1804 1.478 . S
C1806 C1808 1.381 . S
C1806 C1812 1.383 . S
C1807 C1803 1.495 . S
C1807 H1813 0.959 . S
C1807 H1814 0.961 . S
C1807 H1815 0.960 . S
C1808 C1806 1.381 . S
C1808 C1809 1.394 . S
C1808 H1816 0.930 . S
C1809 C1808 1.394 . S
C1809 C1810 1.383 . S
C1809 H1817 0.929 . S
C1810 C1809 1.383 . S
C1810 C1811 1.377 . S
C1811 H1795 0.930 . S
C1811 C1810 1.377 . S
C1811 C1812 1.379 . S
C1812 H1796 0.931 . S
C1812 C1806 1.383 . S
C1812 C1811 1.379 . S
H1813 C1807 0.959 . S
H1814 C1807 0.961 . S
H1815 C1807 0.960 . S
H1816 C1808 0.930 . S
H1817 C1809 0.929 . S
H1818 C1826 0.929 . S
H1819 C1828 0.930 . S
H1820 C1830 0.930 . S
H1821 C1833 0.929 . S
H1822 C1836 0.930 . S
H1823 C1838 0.960 . S
H1824 C1838 0.960 . S
H1825 C1838 0.960 . S
C1826 H1818 0.929 . S
C1826 C1827 1.377 . S
C1826 C1828 1.384 . S
C1827 C1826 1.377 . S
C1827 C1833 1.390 . S
C1828 H1819 0.930 . S
C1828 C1826 1.384 . S
C1828 C1829 1.372 . S
C1829 C1828 1.372 . S
C1829 C1830 1.400 . S
C1829 C1834 1.490 . S
C1830 H1820 0.930 . S
C1830 C1829 1.400 . S
C1830 C1833 1.386 . S
H1831 C1847 0.930 . S
H1832 C1848 0.931 . S
C1833 H1821 0.929 . S
C1833 C1827 1.390 . S
C1833 C1830 1.386 . S
C1834 C1829 1.490 . S
C1834 C1836 1.395 . S
C1834 C1837 1.403 . S
H1835 C1841 0.930 . S
C1836 H1822 0.930 . S
C1836 C1834 1.395 . S
C1836 C1839 1.403 . S
C1837 C1834 1.403 . S
C1837 C1838 1.524 . S
C1837 C1841 1.400 . S
C1838 H1823 0.960 . S
C1838 H1824 0.960 . S
C1838 H1825 0.960 . S
C1838 C1837 1.524 . S
C1839 C1836 1.403 . S
C1839 C1840 1.392 . S
C1839 C1843 1.495 . S
C1840 C1839 1.392 . S
C1840 C1841 1.385 . S
C1840 C1842 1.478 . S
C1841 H1835 0.930 . S
C1841 C1837 1.400 . S
C1841 C1840 1.385 . S
C1842 C1840 1.478 . S
C1842 C1844 1.381 . S
C1842 C1848 1.383 . S
C1843 C1839 1.495 . S
C1843 H1849 0.959 . S
C1843 H1850 0.961 . S
C1843 H1851 0.960 . S
C1844 C1842 1.381 . S
C1844 C1845 1.394 . S
C1844 H1852 0.930 . S
C1845 C1844 1.394 . S
C1845 C1846 1.383 . S
C1845 H1853 0.929 . S
C1846 C1845 1.383 . S
C1846 C1847 1.377 . S
C1847 H1831 0.930 . S
C1847 C1846 1.377 . S
C1847 C1848 1.379 . S
C1848 H1832 0.931 . S
C1848 C1842 1.383 . S
C1848 C1847 1.379 . S
H1849 C1843 0.959 . S
H1850 C1843 0.961 . S
H1851 C1843 0.960 . S
H1852 C1844 0.930 . S
H1853 C1845 0.929 . S
H1854 C1862 0.929 . S
H1855 C1864 0.930 . S
H1856 C1866 0.930 . S
H1857 C1869 0.929 . S
H1858 C1872 0.930 . S
H1859 C1874 0.960 . S
H1860 C1874 0.960 . S
H1861 C1874 0.960 . S
C1862 H1854 0.929 . S
C1862 C1863 1.377 . S
C1862 C1864 1.384 . S
C1863 C1862 1.377 . S
C1863 C1869 1.390 . S
C1864 H1855 0.930 . S
C1864 C1862 1.384 . S
C1864 C1865 1.372 . S
C1865 C1864 1.372 . S
C1865 C1866 1.400 . S
C1865 C1870 1.490 . S
C1866 H1856 0.930 . S
C1866 C1865 1.400 . S
C1866 C1869 1.386 . S
H1867 C1883 0.930 . S
H1868 C1884 0.931 . S
C1869 H1857 0.929 . S
C1869 C1863 1.390 . S
C1869 C1866 1.386 . S
C1870 C1865 1.490 . S
C1870 C1872 1.395 . S
C1870 C1873 1.403 . S
H1871 C1877 0.930 . S
C1872 H1858 0.930 . S
C1872 C1870 1.395 . S
C1872 C1875 1.403 . S
C1873 C1870 1.403 . S
C1873 C1874 1.524 . S
C1873 C1877 1.400 . S
C1874 H1859 0.960 . S
C1874 H1860 0.960 . S
C1874 H1861 0.960 . S
C1874 C1873 1.524 . S
C1875 C1872 1.403 . S
C1875 C1876 1.392 . S
C1875 C1879 1.495 . S
C1876 C1875 1.392 . S
C1876 C1877 1.385 . S
C1876 C1878 1.478 . S
C1877 H1871 0.930 . S
C1877 C1873 1.400 . S
C1877 C1876 1.385 . S
C1878 C1876 1.478 . S
C1878 C1880 1.381 . S
C1878 C1884 1.383 . S
C1879 C1875 1.495 . S
C1879 H1885 0.959 . S
C1879 H1886 0.961 . S
C1879 H1887 0.960 . S
C1880 C1878 1.381 . S
C1880 C1881 1.394 . S
C1880 H1888 0.930 . S
C1881 C1880 1.394 . S
C1881 C1882 1.383 . S
C1881 H1889 0.929 . S
C1882 C1881 1.383 . S
C1882 C1883 1.377 . S
C1883 H1867 0.930 . S
C1883 C1882 1.377 . S
C1883 C1884 1.379 . S
C1884 H1868 0.931 . S
C1884 C1878 1.383 . S
C1884 C1883 1.379 . S
H1885 C1879 0.959 . S
H1886 C1879 0.961 . S
H1887 C1879 0.960 . S
H1888 C1880 0.930 . S
H1889 C1881 0.929 . S
H1890 C1898 0.929 . S
H1891 C1900 0.930 . S
H1892 C1902 0.930 . S
H1893 C1905 0.929 . S
H1894 C1908 0.930 . S
H1895 C1910 0.960 . S
H1896 C1910 0.960 . S
H1897 C1910 0.960 . S
C1898 H1890 0.929 . S
C1898 C1899 1.377 . S
C1898 C1900 1.384 . S
C1899 C1898 1.377 . S
C1899 C1905 1.390 . S
C1900 H1891 0.930 . S
C1900 C1898 1.384 . S
C1900 C1901 1.372 . S
C1901 C1900 1.372 . S
C1901 C1902 1.400 . S
C1901 C1906 1.490 . S
C1902 H1892 0.930 . S
C1902 C1901 1.400 . S
C1902 C1905 1.386 . S
H1903 C1919 0.930 . S
H1904 C1920 0.931 . S
C1905 H1893 0.929 . S
C1905 C1899 1.390 . S
C1905 C1902 1.386 . S
C1906 C1901 1.490 . S
C1906 C1908 1.395 . S
C1906 C1909 1.403 . S
H1907 C1913 0.930 . S
C1908 H1894 0.930 . S
C1908 C1906 1.395 . S
C1908 C1911 1.403 . S
C1909 C1906 1.403 . S
C1909 C1910 1.524 . S
C1909 C1913 1.400 . S
C1910 H1895 0.960 . S
C1910 H1896 0.960 . S
C1910 H1897 0.960 . S
C1910 C1909 1.524 . S
C1911 C1908 1.403 . S
C1911 C1912 1.392 . S
C1911 C1915 1.495 . S
C1912 C1911 1.392 . S
C1912 C1913 1.385 . S
C1912 C1914 1.478 . S
C1913 H1907 0.930 . S
C1913 C1909 1.400 . S
C1913 C1912 1.385 . S
C1914 C1912 1.478 . S
C1914 C1916 1.381 . S
C1914 C1920 1.383 . S
C1915 C1911 1.495 . S
C1915 H1921 0.959 . S
C1915 H1922 0.961 . S
C1915 H1923 0.960 . S
C1916 C1914 1.381 . S
C1916 C1917 1.394 . S
C1916 H1924 0.930 . S
C1917 C1916 1.394 . S
C1917 C1918 1.383 . S
C1917 H1925 0.929 . S
C1918 C1917 1.383 . S
C1918 C1919 1.377 . S
C1919 H1903 0.930 . S
C1919 C1918 1.377 . S
C1919 C1920 1.379 . S
C1920 H1904 0.931 . S
C1920 C1914 1.383 . S
C1920 C1919 1.379 . S
H1921 C1915 0.959 . S
H1922 C1915 0.961 . S
H1923 C1915 0.960 . S
H1924 C1916 0.930 . S
H1925 C1917 0.929 . S
H1926 C1934 0.929 . S
H1927 C1936 0.930 . S
H1928 C1938 0.930 . S
H1929 C1941 0.929 . S
H1930 C1944 0.930 . S
H1931 C1946 0.960 . S
H1932 C1946 0.960 . S
H1933 C1946 0.960 . S
C1934 H1926 0.929 . S
C1934 C1935 1.377 . S
C1934 C1936 1.384 . S
C1935 C1934 1.377 . S
C1935 C1941 1.390 . S
C1936 H1927 0.930 . S
C1936 C1934 1.384 . S
C1936 C1937 1.372 . S
C1937 C1936 1.372 . S
C1937 C1938 1.400 . S
C1937 C1942 1.490 . S
C1938 H1928 0.930 . S
C1938 C1937 1.400 . S
C1938 C1941 1.386 . S
H1939 C1955 0.930 . S
H1940 C1956 0.931 . S
C1941 H1929 0.929 . S
C1941 C1935 1.390 . S
C1941 C1938 1.386 . S
C1942 C1937 1.490 . S
C1942 C1944 1.395 . S
C1942 C1945 1.403 . S
H1943 C1949 0.930 . S
C1944 H1930 0.930 . S
C1944 C1942 1.395 . S
C1944 C1947 1.403 . S
C1945 C1942 1.403 . S
C1945 C1946 1.524 . S
C1945 C1949 1.400 . S
C1946 H1931 0.960 . S
C1946 H1932 0.960 . S
C1946 H1933 0.960 . S
C1946 C1945 1.524 . S
C1947 C1944 1.403 . S
C1947 C1948 1.392 . S
C1947 C1951 1.495 . S
C1948 C1947 1.392 . S
C1948 C1949 1.385 . S
C1948 C1950 1.478 . S
C1949 H1943 0.930 . S
C1949 C1945 1.400 . S
C1949 C1948 1.385 . S
C1950 C1948 1.478 . S
C1950 C1952 1.381 . S
C1950 C1956 1.383 . S
C1951 C1947 1.495 . S
C1951 H1957 0.959 . S
C1951 H1958 0.961 . S
C1951 H1959 0.960 . S
C1952 C1950 1.381 . S
C1952 C1953 1.394 . S
C1952 H1960 0.930 . S
C1953 C1952 1.394 . S
C1953 C1954 1.383 . S
C1953 H1961 0.929 . S
C1954 C1953 1.383 . S
C1954 C1955 1.377 . S
C1955 H1939 0.930 . S
C1955 C1954 1.377 . S
C1955 C1956 1.379 . S
C1956 H1940 0.931 . S
C1956 C1950 1.383 . S
C1956 C1955 1.379 . S
H1957 C1951 0.959 . S
H1958 C1951 0.961 . S
H1959 C1951 0.960 . S
H1960 C1952 0.930 . S
H1961 C1953 0.929 . S
H1962 C1970 0.929 . S
H1963 C1972 0.930 . S
H1964 C1974 0.930 . S
H1965 C1977 0.929 . S
H1966 C1980 0.930 . S
H1967 C1982 0.960 . S
H1968 C1982 0.960 . S
H1969 C1982 0.960 . S
C1970 H1962 0.929 . S
C1970 C1971 1.377 . S
C1970 C1972 1.384 . S
C1971 C1970 1.377 . S
C1971 C1977 1.390 . S
C1972 H1963 0.930 . S
C1972 C1970 1.384 . S
C1972 C1973 1.372 . S
C1973 C1972 1.372 . S
C1973 C1974 1.400 . S
C1973 C1978 1.490 . S
C1974 H1964 0.930 . S
C1974 C1973 1.400 . S
C1974 C1977 1.386 . S
H1975 C1991 0.930 . S
H1976 C1992 0.931 . S
C1977 H1965 0.929 . S
C1977 C1971 1.390 . S
C1977 C1974 1.386 . S
C1978 C1973 1.490 . S
C1978 C1980 1.395 . S
C1978 C1981 1.403 1_565 S
H1979 C1985 0.930 . S
C1980 H1966 0.930 . S
C1980 C1978 1.395 . S
C1980 C1983 1.403 1_565 S
C1981 C1978 1.403 1_545 S
C1981 C1982 1.524 . S
C1981 C1985 1.400 . S
C1982 H1967 0.960 . S
C1982 H1968 0.960 . S
C1982 H1969 0.960 . S
C1982 C1981 1.524 . S
C1983 C1980 1.403 1_545 S
C1983 C1984 1.392 . S
C1983 C1987 1.495 . S
C1984 C1983 1.392 . S
C1984 C1985 1.385 . S
C1984 C1986 1.478 . S
C1985 H1979 0.930 . S
C1985 C1981 1.400 . S
C1985 C1984 1.385 . S
C1986 C1984 1.478 . S
C1986 C1988 1.381 . S
C1986 C1992 1.383 . S
C1987 C1983 1.495 . S
C1987 H1993 0.959 1_545 S
C1987 H1994 0.961 . S
C1987 H1995 0.960 . S
C1988 C1986 1.381 . S
C1988 C1989 1.394 . S
C1988 H1996 0.930 . S
C1989 C1988 1.394 . S
C1989 C1990 1.383 . S
C1989 H1997 0.929 . S
C1990 C1989 1.383 . S
C1990 C1991 1.377 . S
C1991 H1975 0.930 . S
C1991 C1990 1.377 . S
C1991 C1992 1.379 . S
C1992 H1976 0.931 . S
C1992 C1986 1.383 . S
C1992 C1991 1.379 . S
H1993 C1987 0.959 1_565 S
H1994 C1987 0.961 . S
H1995 C1987 0.960 . S
H1996 C1988 0.930 . S
H1997 C1989 0.929 . S
H1998 C2006 0.929 . S
H1999 C2008 0.930 . S
H2000 C2010 0.930 . S
H2001 C2013 0.929 . S
H2002 C2016 0.930 . S
H2003 C2018 0.960 . S
H2004 C2018 0.960 . S
H2005 C2018 0.960 . S
C2006 H1998 0.929 . S
C2006 C2007 1.377 . S
C2006 C2008 1.384 . S
C2007 C2006 1.377 . S
C2007 C2013 1.390 . S
C2008 H1999 0.930 . S
C2008 C2006 1.384 . S
C2008 C2009 1.372 . S
C2009 C2008 1.372 . S
C2009 C2010 1.400 . S
C2009 C2014 1.490 . S
C2010 H2000 0.930 . S
C2010 C2009 1.400 . S
C2010 C2013 1.386 . S
H2011 C2027 0.930 . S
H2012 C2028 0.931 . S
C2013 H2001 0.929 . S
C2013 C2007 1.390 . S
C2013 C2010 1.386 . S
C2014 C2009 1.490 . S
C2014 C2016 1.395 . S
C2014 C2017 1.403 . S
H2015 C2021 0.930 . S
C2016 H2002 0.930 . S
C2016 C2014 1.395 . S
C2016 C2019 1.403 1_455 S
C2017 C2014 1.403 . S
C2017 C2018 1.524 . S
C2017 C2021 1.400 1_455 S
C2018 H2003 0.960 . S
C2018 H2004 0.960 . S
C2018 H2005 0.960 . S
C2018 C2017 1.524 . S
C2019 C2016 1.403 1_655 S
C2019 C2020 1.392 . S
C2019 C2023 1.495 . S
C2020 C2019 1.392 . S
C2020 C2021 1.385 . S
C2020 C2022 1.478 . S
C2021 H2015 0.930 . S
C2021 C2017 1.400 1_655 S
C2021 C2020 1.385 . S
C2022 C2020 1.478 . S
C2022 C2024 1.381 . S
C2022 C2028 1.383 . S
C2023 C2019 1.495 . S
C2023 H2029 0.959 . S
C2023 H2030 0.961 . S
C2023 H2031 0.960 . S
C2024 C2022 1.381 . S
C2024 C2025 1.394 . S
C2024 H2032 0.930 . S
C2025 C2024 1.394 . S
C2025 C2026 1.383 . S
C2025 H2033 0.929 . S
C2026 C2025 1.383 . S
C2026 C2027 1.377 . S
C2027 H2011 0.930 . S
C2027 C2026 1.377 . S
C2027 C2028 1.379 . S
C2028 H2012 0.931 . S
C2028 C2022 1.383 . S
C2028 C2027 1.379 . S
H2029 C2023 0.959 . S
H2030 C2023 0.961 . S
H2031 C2023 0.960 . S
H2032 C2024 0.930 . S
H2033 C2025 0.929 . S
H2034 C2042 0.929 . S
H2035 C2044 0.930 . S
H2036 C2046 0.930 . S
H2037 C2049 0.929 . S
H2038 C2052 0.930 . S
H2039 C2054 0.960 . S
H2040 C2054 0.960 . S
H2041 C2054 0.960 . S
C2042 H2034 0.929 . S
C2042 C2043 1.377 . S
C2042 C2044 1.384 . S
C2043 C2042 1.377 . S
C2043 C2049 1.390 . S
C2044 H2035 0.930 . S
C2044 C2042 1.384 . S
C2044 C2045 1.372 . S
C2045 C2044 1.372 . S
C2045 C2046 1.400 . S
C2045 C2050 1.490 . S
C2046 H2036 0.930 . S
C2046 C2045 1.400 . S
C2046 C2049 1.386 . S
H2047 C2063 0.930 . S
H2048 C2064 0.931 . S
C2049 H2037 0.929 . S
C2049 C2043 1.390 . S
C2049 C2046 1.386 . S
C2050 C2045 1.490 . S
C2050 C2052 1.395 . S
C2050 C2053 1.403 . S
H2051 C2057 0.930 . S
C2052 H2038 0.930 . S
C2052 C2050 1.395 . S
C2052 C2055 1.403 . S
C2053 C2050 1.403 . S
C2053 C2054 1.524 . S
C2053 C2057 1.400 . S
C2054 H2039 0.960 . S
C2054 H2040 0.960 . S
C2054 H2041 0.960 . S
C2054 C2053 1.524 . S
C2055 C2052 1.403 . S
C2055 C2056 1.392 . S
C2055 C2059 1.495 . S
C2056 C2055 1.392 . S
C2056 C2057 1.385 . S
C2056 C2058 1.478 . S
C2057 H2051 0.930 . S
C2057 C2053 1.400 . S
C2057 C2056 1.385 . S
C2058 C2056 1.478 . S
C2058 C2060 1.381 . S
C2058 C2064 1.383 . S
C2059 C2055 1.495 . S
C2059 H2065 0.959 . S
C2059 H2066 0.961 . S
C2059 H2067 0.960 . S
C2060 C2058 1.381 . S
C2060 C2061 1.394 . S
C2060 H2068 0.930 . S
C2061 C2060 1.394 . S
C2061 C2062 1.383 . S
C2061 H2069 0.929 . S
C2062 C2061 1.383 . S
C2062 C2063 1.377 . S
C2063 H2047 0.930 . S
C2063 C2062 1.377 . S
C2063 C2064 1.379 . S
C2064 H2048 0.931 . S
C2064 C2058 1.383 . S
C2064 C2063 1.379 . S
H2065 C2059 0.959 . S
H2066 C2059 0.961 . S
H2067 C2059 0.960 . S
H2068 C2060 0.930 . S
H2069 C2061 0.929 . S
H2070 C2078 0.929 . S
H2071 C2080 0.930 . S
H2072 C2082 0.930 . S
H2073 C2085 0.929 . S
H2074 C2088 0.930 . S
H2075 C2090 0.960 . S
H2076 C2090 0.960 . S
H2077 C2090 0.960 . S
C2078 H2070 0.929 . S
C2078 C2079 1.377 . S
C2078 C2080 1.384 . S
C2079 C2078 1.377 . S
C2079 C2085 1.390 . S
C2080 H2071 0.930 . S
C2080 C2078 1.384 . S
C2080 C2081 1.372 1_455 S
C2081 C2080 1.372 1_655 S
C2081 C2082 1.400 . S
C2081 C2086 1.490 . S
C2082 H2072 0.930 . S
C2082 C2081 1.400 . S
C2082 C2085 1.386 1_655 S
H2083 C2099 0.930 . S
H2084 C2100 0.931 . S
C2085 H2073 0.929 . S
C2085 C2079 1.390 . S
C2085 C2082 1.386 1_455 S
C2086 C2081 1.490 . S
C2086 C2088 1.395 . S
C2086 C2089 1.403 . S
H2087 C2093 0.930 . S
C2088 H2074 0.930 . S
C2088 C2086 1.395 . S
C2088 C2091 1.403 . S
C2089 C2086 1.403 . S
C2089 C2090 1.524 . S
C2089 C2093 1.400 . S
C2090 H2075 0.960 . S
C2090 H2076 0.960 . S
C2090 H2077 0.960 . S
C2090 C2089 1.524 . S
C2091 C2088 1.403 . S
C2091 C2092 1.392 . S
C2091 C2095 1.495 . S
C2092 C2091 1.392 . S
C2092 C2093 1.385 . S
C2092 C2094 1.478 . S
C2093 H2087 0.930 . S
C2093 C2089 1.400 . S
C2093 C2092 1.385 . S
C2094 C2092 1.478 . S
C2094 C2096 1.381 . S
C2094 C2100 1.383 . S
C2095 C2091 1.495 . S
C2095 H2101 0.959 . S
C2095 H2102 0.961 . S
C2095 H2103 0.960 . S
C2096 C2094 1.381 . S
C2096 C2097 1.394 . S
C2096 H2104 0.930 . S
C2097 C2096 1.394 . S
C2097 C2098 1.383 . S
C2097 H2105 0.929 . S
C2098 C2097 1.383 . S
C2098 C2099 1.377 . S
C2099 H2083 0.930 . S
C2099 C2098 1.377 . S
C2099 C2100 1.379 . S
C2100 H2084 0.931 . S
C2100 C2094 1.383 . S
C2100 C2099 1.379 . S
H2101 C2095 0.959 . S
H2102 C2095 0.961 . S
H2103 C2095 0.960 . S
H2104 C2096 0.930 . S
H2105 C2097 0.929 . S
H2106 C2114 0.929 . S
H2107 C2116 0.930 . S
H2108 C2118 0.930 . S
H2109 C2121 0.929 . S
H2110 C2124 0.930 . S
H2111 C2126 0.960 . S
H2112 C2126 0.960 . S
H2113 C2126 0.960 . S
C2114 H2106 0.929 . S
C2114 C2115 1.377 . S
C2114 C2116 1.384 . S
C2115 C2114 1.377 . S
C2115 C2121 1.390 . S
C2116 H2107 0.930 . S
C2116 C2114 1.384 . S
C2116 C2117 1.372 . S
C2117 C2116 1.372 . S
C2117 C2118 1.400 . S
C2117 C2122 1.490 . S
C2118 H2108 0.930 . S
C2118 C2117 1.400 . S
C2118 C2121 1.386 . S
H2119 C2135 0.930 . S
H2120 C2136 0.931 . S
C2121 H2109 0.929 . S
C2121 C2115 1.390 . S
C2121 C2118 1.386 . S
C2122 C2117 1.490 . S
C2122 C2124 1.395 . S
C2122 C2125 1.403 . S
H2123 C2129 0.930 . S
C2124 H2110 0.930 . S
C2124 C2122 1.395 . S
C2124 C2127 1.403 . S
C2125 C2122 1.403 . S
C2125 C2126 1.524 . S
C2125 C2129 1.400 . S
C2126 H2111 0.960 . S
C2126 H2112 0.960 . S
C2126 H2113 0.960 . S
C2126 C2125 1.524 . S
C2127 C2124 1.403 . S
C2127 C2128 1.392 . S
C2127 C2131 1.495 . S
C2128 C2127 1.392 . S
C2128 C2129 1.385 . S
C2128 C2130 1.478 . S
C2129 H2123 0.930 . S
C2129 C2125 1.400 . S
C2129 C2128 1.385 . S
C2130 C2128 1.478 . S
C2130 C2132 1.381 . S
C2130 C2136 1.383 . S
C2131 C2127 1.495 . S
C2131 H2137 0.959 . S
C2131 H2138 0.961 . S
C2131 H2139 0.960 . S
C2132 C2130 1.381 . S
C2132 C2133 1.394 . S
C2132 H2140 0.930 . S
C2133 C2132 1.394 . S
C2133 C2134 1.383 . S
C2133 H2141 0.929 . S
C2134 C2133 1.383 . S
C2134 C2135 1.377 . S
C2135 H2119 0.930 . S
C2135 C2134 1.377 . S
C2135 C2136 1.379 . S
C2136 H2120 0.931 . S
C2136 C2130 1.383 . S
C2136 C2135 1.379 . S
H2137 C2131 0.959 . S
H2138 C2131 0.961 . S
H2139 C2131 0.960 . S
H2140 C2132 0.930 . S
H2141 C2133 0.929 . S
H2142 C2150 0.929 . S
H2143 C2152 0.930 . S
H2144 C2154 0.896 1_545 S
H2145 C2157 0.929 . S
H2146 C2160 0.930 . S
H2147 C2162 0.960 . S
H2148 C2162 0.960 . S
H2149 C2162 0.960 . S
C2150 H2142 0.929 . S
C2150 C2151 1.377 . S
C2150 C2152 1.384 1_565 S
C2151 C2150 1.377 . S
C2151 C2157 1.390 . S
C2152 H2143 0.930 . S
C2152 C2150 1.384 1_545 S
C2152 C2153 1.372 . S
C2153 C2152 1.372 . S
C2153 C2154 1.400 1_545 S
C2153 C2158 1.490 . S
C2154 H2144 0.896 1_565 S
C2154 C2153 1.400 1_565 S
C2154 C2157 1.386 . S
H2155 C2171 0.930 . S
H2156 C2172 0.931 . S
C2157 H2145 0.929 . S
C2157 C2151 1.390 . S
C2157 C2154 1.386 . S
C2158 C2153 1.490 . S
C2158 C2160 1.395 . S
C2158 C2161 1.403 . S
H2159 C2165 0.930 . S
C2160 H2146 0.930 . S
C2160 C2158 1.395 . S
C2160 C2163 1.403 . S
C2161 C2158 1.403 . S
C2161 C2162 1.524 . S
C2161 C2165 1.400 . S
C2162 H2147 0.960 . S
C2162 H2148 0.960 . S
C2162 H2149 0.960 . S
C2162 C2161 1.524 . S
C2163 C2160 1.403 . S
C2163 C2164 1.392 . S
C2163 C2167 1.495 . S
C2164 C2163 1.392 . S
C2164 C2165 1.385 . S
C2164 C2166 1.478 . S
C2165 H2159 0.930 . S
C2165 C2161 1.400 . S
C2165 C2164 1.385 . S
C2166 C2164 1.478 . S
C2166 C2168 1.381 . S
C2166 C2172 1.383 . S
C2167 C2163 1.495 . S
C2167 H2173 0.959 . S
C2167 H2174 0.961 . S
C2167 H2175 0.960 . S
C2168 C2166 1.381 . S
C2168 C2169 1.394 . S
C2168 H2176 0.930 . S
C2169 C2168 1.394 . S
C2169 C2170 1.383 . S
C2169 H2177 0.929 . S
C2170 C2169 1.383 . S
C2170 C2171 1.377 . S
C2171 H2155 0.930 . S
C2171 C2170 1.377 . S
C2171 C2172 1.379 . S
C2172 H2156 0.931 . S
C2172 C2166 1.383 . S
C2172 C2171 1.379 . S
H2173 C2167 0.959 . S
H2174 C2167 0.961 . S
H2175 C2167 0.960 . S
H2176 C2168 0.930 . S
H2177 C2169 0.929 . S
H2178 C2186 0.929 . S
H2179 C2188 0.930 . S
H2180 C2190 0.930 . S
H2181 C2193 0.929 . S
H2182 C2196 0.930 . S
H2183 C2198 0.960 . S
H2184 C2198 0.960 . S
H2185 C2198 0.960 . S
C2186 H2178 0.929 . S
C2186 C2187 1.377 . S
C2186 C2188 1.384 . S
C2187 C2186 1.377 . S
C2187 C2193 1.390 . S
C2188 H2179 0.930 . S
C2188 C2186 1.384 . S
C2188 C2189 1.372 . S
C2189 C2188 1.372 . S
C2189 C2190 1.400 . S
C2189 C2194 1.490 . S
C2190 H2180 0.930 . S
C2190 C2189 1.400 . S
C2190 C2193 1.386 . S
H2191 C2207 0.930 . S
H2192 C2208 0.931 . S
C2193 H2181 0.929 . S
C2193 C2187 1.390 . S
C2193 C2190 1.386 . S
C2194 C2189 1.490 . S
C2194 C2196 1.395 . S
C2194 C2197 1.403 . S
H2195 C2201 0.930 . S
C2196 H2182 0.930 . S
C2196 C2194 1.395 . S
C2196 C2199 1.403 . S
C2197 C2194 1.403 . S
C2197 C2198 1.524 . S
C2197 C2201 1.400 . S
C2198 H2183 0.960 . S
C2198 H2184 0.960 . S
C2198 H2185 0.960 . S
C2198 C2197 1.524 . S
C2199 C2196 1.403 . S
C2199 C2200 1.392 . S
C2199 C2203 1.495 . S
C2200 C2199 1.392 . S
C2200 C2201 1.385 . S
C2200 C2202 1.478 . S
C2201 H2195 0.930 . S
C2201 C2197 1.400 . S
C2201 C2200 1.385 . S
C2202 C2200 1.478 . S
C2202 C2204 1.381 . S
C2202 C2208 1.383 . S
C2203 C2199 1.495 . S
C2203 H2209 0.959 . S
C2203 H2210 0.961 . S
C2203 H2211 0.960 . S
C2204 C2202 1.381 . S
C2204 C2205 1.394 . S
C2204 H2212 0.930 . S
C2205 C2204 1.394 . S
C2205 C2206 1.383 . S
C2205 H2213 0.929 . S
C2206 C2205 1.383 . S
C2206 C2207 1.377 . S
C2207 H2191 0.930 . S
C2207 C2206 1.377 . S
C2207 C2208 1.379 . S
C2208 H2192 0.931 . S
C2208 C2202 1.383 . S
C2208 C2207 1.379 . S
H2209 C2203 0.959 . S
H2210 C2203 0.961 . S
H2211 C2203 0.960 . S
H2212 C2204 0.930 . S
H2213 C2205 0.929 . S
H2214 C2222 0.929 . S
H2215 C2224 0.930 . S
H2216 C2226 0.930 . S
H2217 C2229 0.929 . S
H2218 C2232 0.930 . S
H2219 C2234 0.960 . S
H2220 C2234 0.960 . S
H2221 C2234 0.960 . S
C2222 H2214 0.929 . S
C2222 C2223 1.377 . S
C2222 C2224 1.384 . S
C2223 C2222 1.377 . S
C2223 C2229 1.390 . S
C2224 H2215 0.930 . S
C2224 C2222 1.384 . S
C2224 C2225 1.372 . S
C2225 C2224 1.372 . S
C2225 C2226 1.400 . S
C2225 C2230 1.490 . S
C2226 H2216 0.930 . S
C2226 C2225 1.400 . S
C2226 C2229 1.386 . S
H2227 C2243 0.930 . S
H2228 C2244 0.931 . S
C2229 H2217 0.929 . S
C2229 C2223 1.390 . S
C2229 C2226 1.386 . S
C2230 C2225 1.490 . S
C2230 C2232 1.395 . S
C2230 C2233 1.403 . S
H2231 C2237 0.930 . S
C2232 H2218 0.930 . S
C2232 C2230 1.395 . S
C2232 C2235 1.403 . S
C2233 C2230 1.403 . S
C2233 C2234 1.524 . S
C2233 C2237 1.400 . S
C2234 H2219 0.960 . S
C2234 H2220 0.960 . S
C2234 H2221 0.960 . S
C2234 C2233 1.524 . S
C2235 C2232 1.403 . S
C2235 C2236 1.392 . S
C2235 C2239 1.495 . S
C2236 C2235 1.392 . S
C2236 C2237 1.385 . S
C2236 C2238 1.478 . S
C2237 H2231 0.930 . S
C2237 C2233 1.400 . S
C2237 C2236 1.385 . S
C2238 C2236 1.478 . S
C2238 C2240 1.381 . S
C2238 C2244 1.383 . S
C2239 C2235 1.495 . S
C2239 H2245 0.959 . S
C2239 H2246 0.961 . S
C2239 H2247 0.960 . S
C2240 C2238 1.381 . S
C2240 C2241 1.394 . S
C2240 H2248 0.930 . S
C2241 C2240 1.394 . S
C2241 C2242 1.383 . S
C2241 H2249 0.929 . S
C2242 C2241 1.383 . S
C2242 C2243 1.377 . S
C2243 H2227 0.930 . S
C2243 C2242 1.377 . S
C2243 C2244 1.379 . S
C2244 H2228 0.931 . S
C2244 C2238 1.383 . S
C2244 C2243 1.379 . S
H2245 C2239 0.959 . S
H2246 C2239 0.961 . S
H2247 C2239 0.960 . S
H2248 C2240 0.930 . S
H2249 C2241 0.929 . S
H2250 C2258 0.929 . S
H2251 C2260 0.930 . S
H2252 C2262 0.930 . S
H2253 C2265 0.929 . S
H2254 C2268 0.930 . S
H2255 C2270 0.960 . S
H2256 C2270 0.960 . S
H2257 C2270 0.960 . S
C2258 H2250 0.929 . S
C2258 C2259 1.377 . S
C2258 C2260 1.384 . S
C2259 C2258 1.377 . S
C2259 C2265 1.390 . S
C2260 H2251 0.930 . S
C2260 C2258 1.384 . S
C2260 C2261 1.372 . S
C2261 C2260 1.372 . S
C2261 C2262 1.400 . S
C2261 C2266 1.490 . S
C2262 H2252 0.930 . S
C2262 C2261 1.400 . S
C2262 C2265 1.386 . S
H2263 C2279 0.930 . S
H2264 C2280 0.931 . S
C2265 H2253 0.929 . S
C2265 C2259 1.390 . S
C2265 C2262 1.386 . S
C2266 C2261 1.490 . S
C2266 C2268 1.395 . S
C2266 C2269 1.403 . S
H2267 C2273 0.930 . S
C2268 H2254 0.930 . S
C2268 C2266 1.395 . S
C2268 C2271 1.403 . S
C2269 C2266 1.403 . S
C2269 C2270 1.524 . S
C2269 C2273 1.400 . S
C2270 H2255 0.960 . S
C2270 H2256 0.960 . S
C2270 H2257 0.960 . S
C2270 C2269 1.524 . S
C2271 C2268 1.403 . S
C2271 C2272 1.392 . S
C2271 C2275 1.495 . S
C2272 C2271 1.392 . S
C2272 C2273 1.385 . S
C2272 C2274 1.478 . S
C2273 H2267 0.930 . S
C2273 C2269 1.400 . S
C2273 C2272 1.385 . S
C2274 C2272 1.478 . S
C2274 C2276 1.381 . S
C2274 C2280 1.383 . S
C2275 C2271 1.495 . S
C2275 H2281 0.959 . S
C2275 H2282 0.961 . S
C2275 H2283 0.960 . S
C2276 C2274 1.381 . S
C2276 C2277 1.394 . S
C2276 H2284 0.930 . S
C2277 C2276 1.394 . S
C2277 C2278 1.383 . S
C2277 H2285 0.929 . S
C2278 C2277 1.383 . S
C2278 C2279 1.377 . S
C2279 H2263 0.930 . S
C2279 C2278 1.377 . S
C2279 C2280 1.379 . S
C2280 H2264 0.931 . S
C2280 C2274 1.383 . S
C2280 C2279 1.379 . S
H2281 C2275 0.959 . S
H2282 C2275 0.961 . S
H2283 C2275 0.960 . S
H2284 C2276 0.930 . S
H2285 C2277 0.929 . S
H2286 C2294 0.929 . S
H2287 C2296 0.930 . S
H2288 C2298 0.930 . S
H2289 C2301 0.929 . S
H2290 C2304 0.930 . S
H2291 C2306 0.960 . S
H2292 C2306 0.960 . S
H2293 C2306 0.960 . S
C2294 H2286 0.929 . S
C2294 C2295 1.377 . S
C2294 C2296 1.384 . S
C2295 C2294 1.377 . S
C2295 C2301 1.390 . S
C2296 H2287 0.930 . S
C2296 C2294 1.384 . S
C2296 C2297 1.372 . S
C2297 C2296 1.372 . S
C2297 C2298 1.400 . S
C2297 C2302 1.490 . S
C2298 H2288 0.930 . S
C2298 C2297 1.400 . S
C2298 C2301 1.386 . S
H2299 C2315 0.930 . S
H2300 C2316 0.931 . S
C2301 H2289 0.929 . S
C2301 C2295 1.390 . S
C2301 C2298 1.386 . S
C2302 C2297 1.490 . S
C2302 C2304 1.395 . S
C2302 C2305 1.403 . S
H2303 C2309 0.930 . S
C2304 H2290 0.930 . S
C2304 C2302 1.395 . S
C2304 C2307 1.403 . S
C2305 C2302 1.403 . S
C2305 C2306 1.524 . S
C2305 C2309 1.400 . S
C2306 H2291 0.960 . S
C2306 H2292 0.960 . S
C2306 H2293 0.960 . S
C2306 C2305 1.524 . S
C2307 C2304 1.403 . S
C2307 C2308 1.392 . S
C2307 C2311 1.495 . S
C2308 C2307 1.392 . S
C2308 C2309 1.385 . S
C2308 C2310 1.478 . S
C2309 H2303 0.930 . S
C2309 C2305 1.400 . S
C2309 C2308 1.385 . S
C2310 C2308 1.478 . S
C2310 C2312 1.381 . S
C2310 C2316 1.383 . S
C2311 C2307 1.495 . S
C2311 H2317 0.959 . S
C2311 H2318 0.961 . S
C2311 H2319 0.960 . S
C2312 C2310 1.381 . S
C2312 C2313 1.394 . S
C2312 H2320 0.930 . S
C2313 C2312 1.394 . S
C2313 C2314 1.383 . S
C2313 H2321 0.929 . S
C2314 C2313 1.383 . S
C2314 C2315 1.377 . S
C2315 H2299 0.930 . S
C2315 C2314 1.377 . S
C2315 C2316 1.379 . S
C2316 H2300 0.931 . S
C2316 C2310 1.383 . S
C2316 C2315 1.379 . S
H2317 C2311 0.959 . S
H2318 C2311 0.961 . S
H2319 C2311 0.960 . S
H2320 C2312 0.930 . S
H2321 C2313 0.929 . S
H2322 C2330 0.929 . S
H2323 C2332 0.930 . S
H2324 C2334 0.930 . S
H2325 C2337 0.929 . S
H2326 C2340 0.930 . S
H2327 C2342 0.960 . S
H2328 C2342 0.960 . S
H2329 C2342 0.960 . S
C2330 H2322 0.929 . S
C2330 C2331 1.377 . S
C2330 C2332 1.384 . S
C2331 C2330 1.377 . S
C2331 C2337 1.390 . S
C2332 H2323 0.930 . S
C2332 C2330 1.384 . S
C2332 C2333 1.372 . S
C2333 C2332 1.372 . S
C2333 C2334 1.400 . S
C2333 C2338 1.490 . S
C2334 H2324 0.930 . S
C2334 C2333 1.400 . S
C2334 C2337 1.386 . S
H2335 C2351 0.930 . S
H2336 C2352 0.931 . S
C2337 H2325 0.929 . S
C2337 C2331 1.390 . S
C2337 C2334 1.386 . S
C2338 C2333 1.490 . S
C2338 C2340 1.395 . S
C2338 C2341 1.403 . S
H2339 C2345 0.930 . S
C2340 H2326 0.930 . S
C2340 C2338 1.395 . S
C2340 C2343 1.403 . S
C2341 C2338 1.403 . S
C2341 C2342 1.524 . S
C2341 C2345 1.400 . S
C2342 H2327 0.960 . S
C2342 H2328 0.960 . S
C2342 H2329 0.960 . S
C2342 C2341 1.524 . S
C2343 C2340 1.403 . S
C2343 C2344 1.392 . S
C2343 C2347 1.495 . S
C2344 C2343 1.392 . S
C2344 C2345 1.385 . S
C2344 C2346 1.478 . S
C2345 H2339 0.930 . S
C2345 C2341 1.400 . S
C2345 C2344 1.385 . S
C2346 C2344 1.478 . S
C2346 C2348 1.381 . S
C2346 C2352 1.383 . S
C2347 C2343 1.495 . S
C2347 H2353 0.959 . S
C2347 H2354 0.961 . S
C2347 H2355 0.960 . S
C2348 C2346 1.381 . S
C2348 C2349 1.394 . S
C2348 H2356 0.930 . S
C2349 C2348 1.394 . S
C2349 C2350 1.383 . S
C2349 H2357 0.929 . S
C2350 C2349 1.383 . S
C2350 C2351 1.377 . S
C2351 H2335 0.930 . S
C2351 C2350 1.377 . S
C2351 C2352 1.379 . S
C2352 H2336 0.931 . S
C2352 C2346 1.383 . S
C2352 C2351 1.379 . S
H2353 C2347 0.959 . S
H2354 C2347 0.961 . S
H2355 C2347 0.960 . S
H2356 C2348 0.930 . S
H2357 C2349 0.929 . S
H2358 C2366 0.929 . S
H2359 C2368 0.930 . S
H2360 C2370 0.930 . S
H2361 C2373 0.929 . S
H2362 C2376 0.930 . S
H2363 C2378 0.960 . S
H2364 C2378 0.960 . S
H2365 C2378 0.960 . S
C2366 H2358 0.929 . S
C2366 C2367 1.377 . S
C2366 C2368 1.384 . S
C2367 C2366 1.377 . S
C2367 C2373 1.390 . S
C2368 H2359 0.930 . S
C2368 C2366 1.384 . S
C2368 C2369 1.372 . S
C2369 C2368 1.372 . S
C2369 C2370 1.400 . S
C2369 C2374 1.490 . S
C2370 H2360 0.930 . S
C2370 C2369 1.400 . S
C2370 C2373 1.386 . S
H2371 C2387 0.930 . S
H2372 C2388 0.931 . S
C2373 H2361 0.929 . S
C2373 C2367 1.390 . S
C2373 C2370 1.386 . S
C2374 C2369 1.490 . S
C2374 C2376 1.395 . S
C2374 C2377 1.403 . S
H2375 C2381 0.930 . S
C2376 H2362 0.930 . S
C2376 C2374 1.395 . S
C2376 C2379 1.403 . S
C2377 C2374 1.403 . S
C2377 C2378 1.524 . S
C2377 C2381 1.400 . S
C2378 H2363 0.960 . S
C2378 H2364 0.960 . S
C2378 H2365 0.960 . S
C2378 C2377 1.524 . S
C2379 C2376 1.403 . S
C2379 C2380 1.392 . S
C2379 C2383 1.495 . S
C2380 C2379 1.392 . S
C2380 C2381 1.385 . S
C2380 C2382 1.478 . S
C2381 H2375 0.930 . S
C2381 C2377 1.400 . S
C2381 C2380 1.385 . S
C2382 C2380 1.478 . S
C2382 C2384 1.381 . S
C2382 C2388 1.383 . S
C2383 C2379 1.495 . S
C2383 H2389 0.959 . S
C2383 H2390 0.961 . S
C2383 H2391 0.960 . S
C2384 C2382 1.381 . S
C2384 C2385 1.394 . S
C2384 H2392 0.930 . S
C2385 C2384 1.394 . S
C2385 C2386 1.383 . S
C2385 H2393 0.929 . S
C2386 C2385 1.383 . S
C2386 C2387 1.377 . S
C2387 H2371 0.930 . S
C2387 C2386 1.377 . S
C2387 C2388 1.379 . S
C2388 H2372 0.931 . S
C2388 C2382 1.383 . S
C2388 C2387 1.379 . S
H2389 C2383 0.959 . S
H2390 C2383 0.961 . S
H2391 C2383 0.960 . S
H2392 C2384 0.930 . S
H2393 C2385 0.929 . S
H2394 C2402 0.929 . S
H2395 C2404 0.930 . S
H2396 C2406 0.930 . S
H2397 C2409 0.929 . S
H2398 C2412 0.930 . S
H2399 C2414 0.960 . S
H2400 C2414 0.960 . S
H2401 C2414 0.960 . S
C2402 H2394 0.929 . S
C2402 C2403 1.377 . S
C2402 C2404 1.384 . S
C2403 C2402 1.377 . S
C2403 C2409 1.390 . S
C2404 H2395 0.930 . S
C2404 C2402 1.384 . S
C2404 C2405 1.372 . S
C2405 C2404 1.372 . S
C2405 C2406 1.400 . S
C2405 C2410 1.490 . S
C2406 H2396 0.930 . S
C2406 C2405 1.400 . S
C2406 C2409 1.386 . S
H2407 C2423 0.930 . S
H2408 C2424 0.931 . S
C2409 H2397 0.929 . S
C2409 C2403 1.390 . S
C2409 C2406 1.386 . S
C2410 C2405 1.490 . S
C2410 C2412 1.395 . S
C2410 C2413 1.403 . S
H2411 C2417 0.930 . S
C2412 H2398 0.930 . S
C2412 C2410 1.395 . S
C2412 C2415 1.403 . S
C2413 C2410 1.403 . S
C2413 C2414 1.524 . S
C2413 C2417 1.400 . S
C2414 H2399 0.960 . S
C2414 H2400 0.960 . S
C2414 H2401 0.960 . S
C2414 C2413 1.524 . S
C2415 C2412 1.403 . S
C2415 C2416 1.392 . S
C2415 C2419 1.495 . S
C2416 C2415 1.392 . S
C2416 C2417 1.385 . S
C2416 C2418 1.478 . S
C2417 H2411 0.930 . S
C2417 C2413 1.400 . S
C2417 C2416 1.385 . S
C2418 C2416 1.478 . S
C2418 C2420 1.381 . S
C2418 C2424 1.383 . S
C2419 C2415 1.495 . S
C2419 H2425 0.959 . S
C2419 H2426 0.961 . S
C2419 H2427 0.960 . S
C2420 C2418 1.381 . S
C2420 C2421 1.394 . S
C2420 H2428 0.930 . S
C2421 C2420 1.394 . S
C2421 C2422 1.383 . S
C2421 H2429 0.929 . S
C2422 C2421 1.383 . S
C2422 C2423 1.377 . S
C2423 H2407 0.930 . S
C2423 C2422 1.377 . S
C2423 C2424 1.379 . S
C2424 H2408 0.931 . S
C2424 C2418 1.383 . S
C2424 C2423 1.379 . S
H2425 C2419 0.959 . S
H2426 C2419 0.961 . S
H2427 C2419 0.960 . S
H2428 C2420 0.930 . S
H2429 C2421 0.929 . S
H2430 C2438 0.929 . S
H2431 C2440 0.930 . S
H2432 C2442 0.930 . S
H2433 C2445 0.929 . S
H2434 C2448 0.930 . S
H2435 C2450 0.960 . S
H2436 C2450 0.960 . S
H2437 C2450 0.960 . S
C2438 H2430 0.929 . S
C2438 C2439 1.377 . S
C2438 C2440 1.384 . S
C2439 C2438 1.377 . S
C2439 C2445 1.390 . S
C2440 H2431 0.930 . S
C2440 C2438 1.384 . S
C2440 C2441 1.372 . S
C2441 C2440 1.372 . S
C2441 C2442 1.400 . S
C2441 C2446 1.490 . S
C2442 H2432 0.930 . S
C2442 C2441 1.400 . S
C2442 C2445 1.386 . S
H2443 C2459 0.930 . S
H2444 C2460 0.931 . S
C2445 H2433 0.929 . S
C2445 C2439 1.390 . S
C2445 C2442 1.386 . S
C2446 C2441 1.490 . S
C2446 C2448 1.395 . S
C2446 C2449 1.403 . S
H2447 C2453 0.930 . S
C2448 H2434 0.930 . S
C2448 C2446 1.395 . S
C2448 C2451 1.403 . S
C2449 C2446 1.403 . S
C2449 C2450 1.524 . S
C2449 C2453 1.400 . S
C2450 H2435 0.960 . S
C2450 H2436 0.960 . S
C2450 H2437 0.960 . S
C2450 C2449 1.524 . S
C2451 C2448 1.403 . S
C2451 C2452 1.392 . S
C2451 C2455 1.495 . S
C2452 C2451 1.392 . S
C2452 C2453 1.385 . S
C2452 C2454 1.478 . S
C2453 H2447 0.930 . S
C2453 C2449 1.400 . S
C2453 C2452 1.385 . S
C2454 C2452 1.478 . S
C2454 C2456 1.381 . S
C2454 C2460 1.383 . S
C2455 C2451 1.495 . S
C2455 H2461 0.959 . S
C2455 H2462 0.961 . S
C2455 H2463 0.960 . S
C2456 C2454 1.381 . S
C2456 C2457 1.394 . S
C2456 H2464 0.930 . S
C2457 C2456 1.394 . S
C2457 C2458 1.383 . S
C2457 H2465 0.929 . S
C2458 C2457 1.383 . S
C2458 C2459 1.377 . S
C2459 H2443 0.930 . S
C2459 C2458 1.377 . S
C2459 C2460 1.379 . S
C2460 H2444 0.931 . S
C2460 C2454 1.383 . S
C2460 C2459 1.379 . S
H2461 C2455 0.959 . S
H2462 C2455 0.961 . S
H2463 C2455 0.960 . S
H2464 C2456 0.930 . S
H2465 C2457 0.929 . S
H2466 C2474 0.929 . S
H2467 C2476 0.930 . S
H2468 C2478 0.930 . S
H2469 C2481 0.929 . S
H2470 C2484 0.930 . S
H2471 C2486 0.960 . S
H2472 C2486 0.960 . S
H2473 C2486 0.960 . S
C2474 H2466 0.929 . S
C2474 C2475 1.377 . S
C2474 C2476 1.384 . S
C2475 C2474 1.377 . S
C2475 C2481 1.390 . S
C2476 H2467 0.930 . S
C2476 C2474 1.384 . S
C2476 C2477 1.372 . S
C2477 C2476 1.372 . S
C2477 C2478 1.400 . S
C2477 C2482 1.490 . S
C2478 H2468 0.930 . S
C2478 C2477 1.400 . S
C2478 C2481 1.386 . S
H2479 C2495 0.930 . S
H2480 C2496 0.931 . S
C2481 H2469 0.929 . S
C2481 C2475 1.390 . S
C2481 C2478 1.386 . S
C2482 C2477 1.490 . S
C2482 C2484 1.395 . S
C2482 C2485 1.403 . S
H2483 C2489 0.930 . S
C2484 H2470 0.930 . S
C2484 C2482 1.395 . S
C2484 C2487 1.403 . S
C2485 C2482 1.403 . S
C2485 C2486 1.524 . S
C2485 C2489 1.400 . S
C2486 H2471 0.960 . S
C2486 H2472 0.960 . S
C2486 H2473 0.960 . S
C2486 C2485 1.524 . S
C2487 C2484 1.403 . S
C2487 C2488 1.392 . S
C2487 C2491 1.495 . S
C2488 C2487 1.392 . S
C2488 C2489 1.385 . S
C2488 C2490 1.478 . S
C2489 H2483 0.930 . S
C2489 C2485 1.400 . S
C2489 C2488 1.385 . S
C2490 C2488 1.478 . S
C2490 C2492 1.381 . S
C2490 C2496 1.383 . S
C2491 C2487 1.495 . S
C2491 H2497 0.959 . S
C2491 H2498 0.961 . S
C2491 H2499 0.960 . S
C2492 C2490 1.381 . S
C2492 C2493 1.394 . S
C2492 H2500 0.930 . S
C2493 C2492 1.394 . S
C2493 C2494 1.383 . S
C2493 H2501 0.929 . S
C2494 C2493 1.383 . S
C2494 C2495 1.377 . S
C2495 H2479 0.930 . S
C2495 C2494 1.377 . S
C2495 C2496 1.379 . S
C2496 H2480 0.931 . S
C2496 C2490 1.383 . S
C2496 C2495 1.379 . S
H2497 C2491 0.959 . S
H2498 C2491 0.961 . S
H2499 C2491 0.960 . S
H2500 C2492 0.930 . S
H2501 C2493 0.929 . S
H2502 C2510 0.929 . S
H2503 C2512 0.930 . S
H2504 C2514 0.930 . S
H2505 C2517 0.929 . S
H2506 C2520 0.930 . S
H2507 C2522 0.960 . S
H2508 C2522 0.960 . S
H2509 C2522 0.960 . S
C2510 H2502 0.929 . S
C2510 C2511 1.377 . S
C2510 C2512 1.384 . S
C2511 C2510 1.377 . S
C2511 C2517 1.390 . S
C2512 H2503 0.930 . S
C2512 C2510 1.384 . S
C2512 C2513 1.372 . S
C2513 C2512 1.372 . S
C2513 C2514 1.400 . S
C2513 C2518 1.490 . S
C2514 H2504 0.930 . S
C2514 C2513 1.400 . S
C2514 C2517 1.386 . S
H2515 C2531 0.930 . S
H2516 C2532 0.931 . S
C2517 H2505 0.929 . S
C2517 C2511 1.390 . S
C2517 C2514 1.386 . S
C2518 C2513 1.490 . S
C2518 C2520 1.395 . S
C2518 C2521 1.403 . S
H2519 C2525 0.930 . S
C2520 H2506 0.930 . S
C2520 C2518 1.395 . S
C2520 C2523 1.403 . S
C2521 C2518 1.403 . S
C2521 C2522 1.524 . S
C2521 C2525 1.400 . S
C2522 H2507 0.960 . S
C2522 H2508 0.960 . S
C2522 H2509 0.960 . S
C2522 C2521 1.524 . S
C2523 C2520 1.403 . S
C2523 C2524 1.392 . S
C2523 C2527 1.495 . S
C2524 C2523 1.392 . S
C2524 C2525 1.385 . S
C2524 C2526 1.478 . S
C2525 H2519 0.930 . S
C2525 C2521 1.400 . S
C2525 C2524 1.385 . S
C2526 C2524 1.478 . S
C2526 C2528 1.381 . S
C2526 C2532 1.383 . S
C2527 C2523 1.495 . S
C2527 H2533 0.959 . S
C2527 H2534 0.961 . S
C2527 H2535 0.960 . S
C2528 C2526 1.381 . S
C2528 C2529 1.394 . S
C2528 H2536 0.930 . S
C2529 C2528 1.394 . S
C2529 C2530 1.383 . S
C2529 H2537 0.929 . S
C2530 C2529 1.383 . S
C2530 C2531 1.377 . S
C2531 H2515 0.930 . S
C2531 C2530 1.377 . S
C2531 C2532 1.379 . S
C2532 H2516 0.931 . S
C2532 C2526 1.383 . S
C2532 C2531 1.379 . S
H2533 C2527 0.959 . S
H2534 C2527 0.961 . S
H2535 C2527 0.960 . S
H2536 C2528 0.930 . S
H2537 C2529 0.929 . S
H2538 C2546 0.929 . S
H2539 C2548 0.930 . S
H2540 C2550 0.930 . S
H2541 C2553 0.929 . S
H2542 C2556 0.930 . S
H2543 C2558 0.960 . S
H2544 C2558 0.960 . S
H2545 C2558 0.960 . S
C2546 H2538 0.929 . S
C2546 C2547 1.377 . S
C2546 C2548 1.384 . S
C2547 C2546 1.377 . S
C2547 C2553 1.390 . S
C2548 H2539 0.930 . S
C2548 C2546 1.384 . S
C2548 C2549 1.372 . S
C2549 C2548 1.372 . S
C2549 C2550 1.400 . S
C2549 C2554 1.490 . S
C2550 H2540 0.930 . S
C2550 C2549 1.400 . S
C2550 C2553 1.386 . S
H2551 C2567 0.930 . S
H2552 C2568 0.931 . S
C2553 H2541 0.929 . S
C2553 C2547 1.390 . S
C2553 C2550 1.386 . S
C2554 C2549 1.490 . S
C2554 C2556 1.395 . S
C2554 C2557 1.403 . S
H2555 C2561 0.930 . S
C2556 H2542 0.930 . S
C2556 C2554 1.395 . S
C2556 C2559 1.403 . S
C2557 C2554 1.403 . S
C2557 C2558 1.524 . S
C2557 C2561 1.400 . S
C2558 H2543 0.960 . S
C2558 H2544 0.960 . S
C2558 H2545 0.960 . S
C2558 C2557 1.524 . S
C2559 C2556 1.403 . S
C2559 C2560 1.392 . S
C2559 C2563 1.495 . S
C2560 C2559 1.392 . S
C2560 C2561 1.385 . S
C2560 C2562 1.478 . S
C2561 H2555 0.930 . S
C2561 C2557 1.400 . S
C2561 C2560 1.385 . S
C2562 C2560 1.478 . S
C2562 C2564 1.381 . S
C2562 C2568 1.383 . S
C2563 C2559 1.495 . S
C2563 H2569 0.959 . S
C2563 H2570 0.961 . S
C2563 H2571 0.960 . S
C2564 C2562 1.381 . S
C2564 C2565 1.394 . S
C2564 H2572 0.930 . S
C2565 C2564 1.394 . S
C2565 C2566 1.383 . S
C2565 H2573 0.929 . S
C2566 C2565 1.383 . S
C2566 C2567 1.377 . S
C2567 H2551 0.930 . S
C2567 C2566 1.377 . S
C2567 C2568 1.379 . S
C2568 H2552 0.931 . S
C2568 C2562 1.383 . S
C2568 C2567 1.379 . S
H2569 C2563 0.959 . S
H2570 C2563 0.961 . S
H2571 C2563 0.960 . S
H2572 C2564 0.930 . S
H2573 C2565 0.929 . S
H2574 C2582 0.929 . S
H2575 C2584 0.930 . S
H2576 C2586 0.930 . S
H2577 C2589 0.929 . S
H2578 C2592 0.930 . S
H2579 C2594 0.960 . S
H2580 C2594 0.960 . S
H2581 C2594 0.960 . S
C2582 H2574 0.929 . S
C2582 C2583 1.377 . S
C2582 C2584 1.384 . S
C2583 C2582 1.377 . S
C2583 C2589 1.390 . S
C2584 H2575 0.930 . S
C2584 C2582 1.384 . S
C2584 C2585 1.372 . S
C2585 C2584 1.372 . S
C2585 C2586 1.400 . S
C2585 C2590 1.490 . S
C2586 H2576 0.930 . S
C2586 C2585 1.400 . S
C2586 C2589 1.386 . S
H2587 C2603 0.930 . S
H2588 C2604 0.931 . S
C2589 H2577 0.929 . S
C2589 C2583 1.390 . S
C2589 C2586 1.386 . S
C2590 C2585 1.490 . S
C2590 C2592 1.395 . S
C2590 C2593 1.403 . S
H2591 C2597 0.930 . S
C2592 H2578 0.930 . S
C2592 C2590 1.395 . S
C2592 C2595 1.403 . S
C2593 C2590 1.403 . S
C2593 C2594 1.524 . S
C2593 C2597 1.400 . S
C2594 H2579 0.960 . S
C2594 H2580 0.960 . S
C2594 H2581 0.960 . S
C2594 C2593 1.524 . S
C2595 C2592 1.403 . S
C2595 C2596 1.392 . S
C2595 C2599 1.495 . S
C2596 C2595 1.392 . S
C2596 C2597 1.385 . S
C2596 C2598 1.478 . S
C2597 H2591 0.930 . S
C2597 C2593 1.400 . S
C2597 C2596 1.385 . S
C2598 C2596 1.478 . S
C2598 C2600 1.381 . S
C2598 C2604 1.383 . S
C2599 C2595 1.495 . S
C2599 H2605 0.959 . S
C2599 H2606 0.961 . S
C2599 H2607 0.960 . S
C2600 C2598 1.381 . S
C2600 C2601 1.394 . S
C2600 H2608 0.930 . S
C2601 C2600 1.394 . S
C2601 C2602 1.383 . S
C2601 H2609 0.929 . S
C2602 C2601 1.383 . S
C2602 C2603 1.377 . S
C2603 H2587 0.930 . S
C2603 C2602 1.377 . S
C2603 C2604 1.379 . S
C2604 H2588 0.931 . S
C2604 C2598 1.383 . S
C2604 C2603 1.379 . S
H2605 C2599 0.959 . S
H2606 C2599 0.961 . S
H2607 C2599 0.960 . S
H2608 C2600 0.930 . S
H2609 C2601 0.929 . S
H2610 C2618 0.929 . S
H2611 C2620 0.930 . S
H2612 C2622 0.930 . S
H2613 C2625 0.929 . S
H2614 C2628 0.930 . S
H2615 C2630 0.960 . S
H2616 C2630 0.960 . S
H2617 C2630 0.960 . S
C2618 H2610 0.929 . S
C2618 C2619 1.377 . S
C2618 C2620 1.384 . S
C2619 C2618 1.377 . S
C2619 C2625 1.390 . S
C2620 H2611 0.930 . S
C2620 C2618 1.384 . S
C2620 C2621 1.372 . S
C2621 C2620 1.372 . S
C2621 C2622 1.400 . S
C2621 C2626 1.490 . S
C2622 H2612 0.930 . S
C2622 C2621 1.400 . S
C2622 C2625 1.386 . S
H2623 C2639 0.930 . S
H2624 C2640 0.931 . S
C2625 H2613 0.929 . S
C2625 C2619 1.390 . S
C2625 C2622 1.386 . S
C2626 C2621 1.490 . S
C2626 C2628 1.395 . S
C2626 C2629 1.403 . S
H2627 C2633 0.930 . S
C2628 H2614 0.930 . S
C2628 C2626 1.395 . S
C2628 C2631 1.403 . S
C2629 C2626 1.403 . S
C2629 C2630 1.524 . S
C2629 C2633 1.400 . S
C2630 H2615 0.960 . S
C2630 H2616 0.960 . S
C2630 H2617 0.960 . S
C2630 C2629 1.524 . S
C2631 C2628 1.403 . S
C2631 C2632 1.392 . S
C2631 C2635 1.495 . S
C2632 C2631 1.392 . S
C2632 C2633 1.385 . S
C2632 C2634 1.478 . S
C2633 H2627 0.930 . S
C2633 C2629 1.400 . S
C2633 C2632 1.385 . S
C2634 C2632 1.478 . S
C2634 C2636 1.381 . S
C2634 C2640 1.383 . S
C2635 C2631 1.495 . S
C2635 H2641 0.959 . S
C2635 H2642 0.961 . S
C2635 H2643 0.960 . S
C2636 C2634 1.381 . S
C2636 C2637 1.394 . S
C2636 H2644 0.930 . S
C2637 C2636 1.394 . S
C2637 C2638 1.383 . S
C2637 H2645 0.929 . S
C2638 C2637 1.383 . S
C2638 C2639 1.377 . S
C2639 H2623 0.930 . S
C2639 C2638 1.377 . S
C2639 C2640 1.379 . S
C2640 H2624 0.931 . S
C2640 C2634 1.383 . S
C2640 C2639 1.379 . S
H2641 C2635 0.959 . S
H2642 C2635 0.961 . S
H2643 C2635 0.960 . S
H2644 C2636 0.930 . S
H2645 C2637 0.929 . S
H2646 C2654 0.929 . S
H2647 C2656 0.930 . S
H2648 C2658 0.930 . S
H2649 C2661 0.929 . S
H2650 C2664 0.930 . S
H2651 C2666 0.960 . S
H2652 C2666 0.960 . S
H2653 C2666 0.960 . S
C2654 H2646 0.929 . S
C2654 C2655 1.377 . S
C2654 C2656 1.384 . S
C2655 C2654 1.377 . S
C2655 C2661 1.390 . S
C2656 H2647 0.930 . S
C2656 C2654 1.384 . S
C2656 C2657 1.372 . S
C2657 C2656 1.372 . S
C2657 C2658 1.400 . S
C2657 C2662 1.490 . S
C2658 H2648 0.930 . S
C2658 C2657 1.400 . S
C2658 C2661 1.386 . S
H2659 C2675 0.930 . S
H2660 C2676 0.931 . S
C2661 H2649 0.929 . S
C2661 C2655 1.390 . S
C2661 C2658 1.386 . S
C2662 C2657 1.490 . S
C2662 C2664 1.395 . S
C2662 C2665 1.403 . S
H2663 C2669 0.930 . S
C2664 H2650 0.930 . S
C2664 C2662 1.395 . S
C2664 C2667 1.403 . S
C2665 C2662 1.403 . S
C2665 C2666 1.524 . S
C2665 C2669 1.400 . S
C2666 H2651 0.960 . S
C2666 H2652 0.960 . S
C2666 H2653 0.960 . S
C2666 C2665 1.524 . S
C2667 C2664 1.403 . S
C2667 C2668 1.392 . S
C2667 C2671 1.495 . S
C2668 C2667 1.392 . S
C2668 C2669 1.385 . S
C2668 C2670 1.478 . S
C2669 H2663 0.930 . S
C2669 C2665 1.400 . S
C2669 C2668 1.385 . S
C2670 C2668 1.478 . S
C2670 C2672 1.381 . S
C2670 C2676 1.383 . S
C2671 C2667 1.495 . S
C2671 H2677 0.959 . S
C2671 H2678 0.961 . S
C2671 H2679 0.960 . S
C2672 C2670 1.381 . S
C2672 C2673 1.394 . S
C2672 H2680 0.930 . S
C2673 C2672 1.394 . S
C2673 C2674 1.383 . S
C2673 H2681 0.929 . S
C2674 C2673 1.383 . S
C2674 C2675 1.377 . S
C2675 H2659 0.930 . S
C2675 C2674 1.377 . S
C2675 C2676 1.379 . S
C2676 H2660 0.931 . S
C2676 C2670 1.383 . S
C2676 C2675 1.379 . S
H2677 C2671 0.959 . S
H2678 C2671 0.961 . S
H2679 C2671 0.960 . S
H2680 C2672 0.930 . S
H2681 C2673 0.929 . S
H2682 C2690 0.929 . S
H2683 C2692 0.930 . S
H2684 C2694 0.930 . S
H2685 C2697 0.929 . S
H2686 C2700 0.930 . S
H2687 C2702 0.960 . S
H2688 C2702 0.960 . S
H2689 C2702 0.960 . S
C2690 H2682 0.929 . S
C2690 C2691 1.377 . S
C2690 C2692 1.384 . S
C2691 C2690 1.377 . S
C2691 C2697 1.390 . S
C2692 H2683 0.930 . S
C2692 C2690 1.384 . S
C2692 C2693 1.372 . S
C2693 C2692 1.372 . S
C2693 C2694 1.400 . S
C2693 C2698 1.490 . S
C2694 H2684 0.930 . S
C2694 C2693 1.400 . S
C2694 C2697 1.386 . S
H2695 C2711 0.930 . S
H2696 C2712 0.931 . S
C2697 H2685 0.929 . S
C2697 C2691 1.390 . S
C2697 C2694 1.386 . S
C2698 C2693 1.490 . S
C2698 C2700 1.395 . S
C2698 C2701 1.403 . S
H2699 C2705 0.930 . S
C2700 H2686 0.930 . S
C2700 C2698 1.395 . S
C2700 C2703 1.403 . S
C2701 C2698 1.403 . S
C2701 C2702 1.524 . S
C2701 C2705 1.400 . S
C2702 H2687 0.960 . S
C2702 H2688 0.960 . S
C2702 H2689 0.960 . S
C2702 C2701 1.524 . S
C2703 C2700 1.403 . S
C2703 C2704 1.392 . S
C2703 C2707 1.495 . S
C2704 C2703 1.392 . S
C2704 C2705 1.385 . S
C2704 C2706 1.478 . S
C2705 H2699 0.930 . S
C2705 C2701 1.400 . S
C2705 C2704 1.385 . S
C2706 C2704 1.478 . S
C2706 C2708 1.381 . S
C2706 C2712 1.383 . S
C2707 C2703 1.495 . S
C2707 H2713 0.959 . S
C2707 H2714 0.961 . S
C2707 H2715 0.960 . S
C2708 C2706 1.381 . S
C2708 C2709 1.394 . S
C2708 H2716 0.930 . S
C2709 C2708 1.394 . S
C2709 C2710 1.383 . S
C2709 H2717 0.929 . S
C2710 C2709 1.383 . S
C2710 C2711 1.377 . S
C2711 H2695 0.930 . S
C2711 C2710 1.377 . S
C2711 C2712 1.379 . S
C2712 H2696 0.931 . S
C2712 C2706 1.383 . S
C2712 C2711 1.379 . S
H2713 C2707 0.959 . S
H2714 C2707 0.961 . S
H2715 C2707 0.960 . S
H2716 C2708 0.930 . S
H2717 C2709 0.929 . S
H2718 C2726 0.929 . S
H2719 C2728 0.930 . S
H2720 C2730 0.930 . S
H2721 C2733 0.929 . S
H2722 C2736 0.930 . S
H2723 C2738 0.960 . S
H2724 C2738 0.960 . S
H2725 C2738 0.960 . S
C2726 H2718 0.929 . S
C2726 C2727 1.377 . S
C2726 C2728 1.384 . S
C2727 C2726 1.377 . S
C2727 C2733 1.390 . S
C2728 H2719 0.930 . S
C2728 C2726 1.384 . S
C2728 C2729 1.372 . S
C2729 C2728 1.372 . S
C2729 C2730 1.400 . S
C2729 C2734 1.490 . S
C2730 H2720 0.930 . S
C2730 C2729 1.400 . S
C2730 C2733 1.386 . S
H2731 C2747 0.930 . S
H2732 C2748 0.931 . S
C2733 H2721 0.929 . S
C2733 C2727 1.390 . S
C2733 C2730 1.386 . S
C2734 C2729 1.490 . S
C2734 C2736 1.395 . S
C2734 C2737 1.403 . S
H2735 C2741 0.930 . S
C2736 H2722 0.930 . S
C2736 C2734 1.395 . S
C2736 C2739 1.403 . S
C2737 C2734 1.403 . S
C2737 C2738 1.524 . S
C2737 C2741 1.400 . S
C2738 H2723 0.960 . S
C2738 H2724 0.960 . S
C2738 H2725 0.960 . S
C2738 C2737 1.524 . S
C2739 C2736 1.403 . S
C2739 C2740 1.392 . S
C2739 C2743 1.495 . S
C2740 C2739 1.392 . S
C2740 C2741 1.385 . S
C2740 C2742 1.478 . S
C2741 H2735 0.930 . S
C2741 C2737 1.400 . S
C2741 C2740 1.385 . S
C2742 C2740 1.478 . S
C2742 C2744 1.381 . S
C2742 C2748 1.383 . S
C2743 C2739 1.495 . S
C2743 H2749 0.959 . S
C2743 H2750 0.961 . S
C2743 H2751 0.960 . S
C2744 C2742 1.381 . S
C2744 C2745 1.394 . S
C2744 H2752 0.930 . S
C2745 C2744 1.394 . S
C2745 C2746 1.383 . S
C2745 H2753 0.929 . S
C2746 C2745 1.383 . S
C2746 C2747 1.377 . S
C2747 H2731 0.930 . S
C2747 C2746 1.377 . S
C2747 C2748 1.379 . S
C2748 H2732 0.931 . S
C2748 C2742 1.383 . S
C2748 C2747 1.379 . S
H2749 C2743 0.959 . S
H2750 C2743 0.961 . S
H2751 C2743 0.960 . S
H2752 C2744 0.930 . S
H2753 C2745 0.929 . S
H2754 C2762 0.929 . S
H2755 C2764 0.930 . S
H2756 C2766 0.930 . S
H2757 C2769 0.929 . S
H2758 C2772 0.930 . S
H2759 C2774 0.960 . S
H2760 C2774 0.960 . S
H2761 C2774 0.960 . S
C2762 H2754 0.929 . S
C2762 C2763 1.377 . S
C2762 C2764 1.384 . S
C2763 C2762 1.377 . S
C2763 C2769 1.390 . S
C2764 H2755 0.930 . S
C2764 C2762 1.384 . S
C2764 C2765 1.372 . S
C2765 C2764 1.372 . S
C2765 C2766 1.400 . S
C2765 C2770 1.490 . S
C2766 H2756 0.930 . S
C2766 C2765 1.400 . S
C2766 C2769 1.386 . S
H2767 C2783 0.930 . S
H2768 C2784 0.931 . S
C2769 H2757 0.929 . S
C2769 C2763 1.390 . S
C2769 C2766 1.386 . S
C2770 C2765 1.490 . S
C2770 C2772 1.395 . S
C2770 C2773 1.403 . S
H2771 C2777 0.930 . S
C2772 H2758 0.930 . S
C2772 C2770 1.395 . S
C2772 C2775 1.403 . S
C2773 C2770 1.403 . S
C2773 C2774 1.524 . S
C2773 C2777 1.400 . S
C2774 H2759 0.960 . S
C2774 H2760 0.960 . S
C2774 H2761 0.960 . S
C2774 C2773 1.524 . S
C2775 C2772 1.403 . S
C2775 C2776 1.392 . S
C2775 C2779 1.495 . S
C2776 C2775 1.392 . S
C2776 C2777 1.385 . S
C2776 C2778 1.478 . S
C2777 H2771 0.930 . S
C2777 C2773 1.400 . S
C2777 C2776 1.385 . S
C2778 C2776 1.478 . S
C2778 C2780 1.381 . S
C2778 C2784 1.383 . S
C2779 C2775 1.495 . S
C2779 H2785 0.959 . S
C2779 H2786 0.961 . S
C2779 H2787 0.960 . S
C2780 C2778 1.381 . S
C2780 C2781 1.394 . S
C2780 H2788 0.930 . S
C2781 C2780 1.394 . S
C2781 C2782 1.383 . S
C2781 H2789 0.929 . S
C2782 C2781 1.383 . S
C2782 C2783 1.377 . S
C2783 H2767 0.930 . S
C2783 C2782 1.377 . S
C2783 C2784 1.379 . S
C2784 H2768 0.931 . S
C2784 C2778 1.383 . S
C2784 C2783 1.379 . S
H2785 C2779 0.959 . S
H2786 C2779 0.961 . S
H2787 C2779 0.960 . S
H2788 C2780 0.930 . S
H2789 C2781 0.929 . S
H2790 C2798 0.929 . S
H2791 C2800 0.930 . S
H2792 C2802 0.930 . S
H2793 C2805 0.929 . S
H2794 C2808 0.930 . S
H2795 C2810 0.960 . S
H2796 C2810 0.960 . S
H2797 C2810 0.960 . S
C2798 H2790 0.929 . S
C2798 C2799 1.377 . S
C2798 C2800 1.384 . S
C2799 C2798 1.377 . S
C2799 C2805 1.390 . S
C2800 H2791 0.930 . S
C2800 C2798 1.384 . S
C2800 C2801 1.372 . S
C2801 C2800 1.372 . S
C2801 C2802 1.400 . S
C2801 C2806 1.490 . S
C2802 H2792 0.930 . S
C2802 C2801 1.400 . S
C2802 C2805 1.386 . S
H2803 C2819 0.930 . S
H2804 C2820 0.931 . S
C2805 H2793 0.929 . S
C2805 C2799 1.390 . S
C2805 C2802 1.386 . S
C2806 C2801 1.490 . S
C2806 C2808 1.395 . S
C2806 C2809 1.403 . S
H2807 C2813 0.930 . S
C2808 H2794 0.930 . S
C2808 C2806 1.395 . S
C2808 C2811 1.403 . S
C2809 C2806 1.403 . S
C2809 C2810 1.524 . S
C2809 C2813 1.400 . S
C2810 H2795 0.960 . S
C2810 H2796 0.960 . S
C2810 H2797 0.960 . S
C2810 C2809 1.524 . S
C2811 C2808 1.403 . S
C2811 C2812 1.392 . S
C2811 C2815 1.495 . S
C2812 C2811 1.392 . S
C2812 C2813 1.385 . S
C2812 C2814 1.478 . S
C2813 H2807 0.930 . S
C2813 C2809 1.400 . S
C2813 C2812 1.385 . S
C2814 C2812 1.478 . S
C2814 C2816 1.381 . S
C2814 C2820 1.383 . S
C2815 C2811 1.495 . S
C2815 H2821 0.959 . S
C2815 H2822 0.961 . S
C2815 H2823 0.960 . S
C2816 C2814 1.381 . S
C2816 C2817 1.394 . S
C2816 H2824 0.930 . S
C2817 C2816 1.394 . S
C2817 C2818 1.383 . S
C2817 H2825 0.929 . S
C2818 C2817 1.383 . S
C2818 C2819 1.377 . S
C2819 H2803 0.930 . S
C2819 C2818 1.377 . S
C2819 C2820 1.379 . S
C2820 H2804 0.931 . S
C2820 C2814 1.383 . S
C2820 C2819 1.379 . S
H2821 C2815 0.959 . S
H2822 C2815 0.961 . S
H2823 C2815 0.960 . S
H2824 C2816 0.930 . S
H2825 C2817 0.929 . S
H2826 C2834 0.929 . S
H2827 C2836 0.930 . S
H2828 C2838 0.930 . S
H2829 C2841 0.929 . S
H2830 C2844 0.930 . S
H2831 C2846 0.960 . S
H2832 C2846 0.960 . S
H2833 C2846 0.960 . S
C2834 H2826 0.929 . S
C2834 C2835 1.377 . S
C2834 C2836 1.384 . S
C2835 C2834 1.377 . S
C2835 C2841 1.390 . S
C2836 H2827 0.930 . S
C2836 C2834 1.384 . S
C2836 C2837 1.372 . S
C2837 C2836 1.372 . S
C2837 C2838 1.400 . S
C2837 C2842 1.490 . S
C2838 H2828 0.930 . S
C2838 C2837 1.400 . S
C2838 C2841 1.386 . S
H2839 C2855 0.930 . S
H2840 C2856 0.931 . S
C2841 H2829 0.929 . S
C2841 C2835 1.390 . S
C2841 C2838 1.386 . S
C2842 C2837 1.490 . S
C2842 C2844 1.395 . S
C2842 C2845 1.403 . S
H2843 C2849 0.930 . S
C2844 H2830 0.930 . S
C2844 C2842 1.395 . S
C2844 C2847 1.403 . S
C2845 C2842 1.403 . S
C2845 C2846 1.524 . S
C2845 C2849 1.400 . S
C2846 H2831 0.960 . S
C2846 H2832 0.960 . S
C2846 H2833 0.960 . S
C2846 C2845 1.524 . S
C2847 C2844 1.403 . S
C2847 C2848 1.392 . S
C2847 C2851 1.495 . S
C2848 C2847 1.392 . S
C2848 C2849 1.385 . S
C2848 C2850 1.478 . S
C2849 H2843 0.930 . S
C2849 C2845 1.400 . S
C2849 C2848 1.385 . S
C2850 C2848 1.478 . S
C2850 C2852 1.381 . S
C2850 C2856 1.383 . S
C2851 C2847 1.495 . S
C2851 H2857 0.959 . S
C2851 H2858 0.961 . S
C2851 H2859 0.960 . S
C2852 C2850 1.381 . S
C2852 C2853 1.394 . S
C2852 H2860 0.930 . S
C2853 C2852 1.394 . S
C2853 C2854 1.383 . S
C2853 H2861 0.929 . S
C2854 C2853 1.383 . S
C2854 C2855 1.377 . S
C2855 H2839 0.930 . S
C2855 C2854 1.377 . S
C2855 C2856 1.379 . S
C2856 H2840 0.931 . S
C2856 C2850 1.383 . S
C2856 C2855 1.379 . S
H2857 C2851 0.959 . S
H2858 C2851 0.961 . S
H2859 C2851 0.960 . S
H2860 C2852 0.930 . S
H2861 C2853 0.929 . S
H2862 C2870 0.929 . S
H2863 C2872 0.930 . S
H2864 C2874 0.930 . S
H2865 C2877 0.929 . S
H2866 C2880 0.930 . S
H2867 C2882 0.960 . S
H2868 C2882 0.960 . S
H2869 C2882 0.960 . S
C2870 H2862 0.929 . S
C2870 C2871 1.377 . S
C2870 C2872 1.384 . S
C2871 C2870 1.377 . S
C2871 C2877 1.390 . S
C2872 H2863 0.930 . S
C2872 C2870 1.384 . S
C2872 C2873 1.372 . S
C2873 C2872 1.372 . S
C2873 C2874 1.400 . S
C2873 C2878 1.490 . S
C2874 H2864 0.930 . S
C2874 C2873 1.400 . S
C2874 C2877 1.386 . S
H2875 C2891 0.930 . S
H2876 C2892 0.931 . S
C2877 H2865 0.929 . S
C2877 C2871 1.390 . S
C2877 C2874 1.386 . S
C2878 C2873 1.490 . S
C2878 C2880 1.395 . S
C2878 C2881 1.403 . S
H2879 C2885 0.930 . S
C2880 H2866 0.930 . S
C2880 C2878 1.395 . S
C2880 C2883 1.403 . S
C2881 C2878 1.403 . S
C2881 C2882 1.524 . S
C2881 C2885 1.400 . S
C2882 H2867 0.960 . S
C2882 H2868 0.960 . S
C2882 H2869 0.960 . S
C2882 C2881 1.524 . S
C2883 C2880 1.403 . S
C2883 C2884 1.392 . S
C2883 C2887 1.495 . S
C2884 C2883 1.392 . S
C2884 C2885 1.385 . S
C2884 C2886 1.478 . S
C2885 H2879 0.930 . S
C2885 C2881 1.400 . S
C2885 C2884 1.385 . S
C2886 C2884 1.478 . S
C2886 C2888 1.381 . S
C2886 C2892 1.383 . S
C2887 C2883 1.495 . S
C2887 H2893 0.959 . S
C2887 H2894 0.961 . S
C2887 H2895 0.960 . S
C2888 C2886 1.381 . S
C2888 C2889 1.394 . S
C2888 H2896 0.930 . S
C2889 C2888 1.394 . S
C2889 C2890 1.383 . S
C2889 H2897 0.929 . S
C2890 C2889 1.383 . S
C2890 C2891 1.377 . S
C2891 H2875 0.930 . S
C2891 C2890 1.377 . S
C2891 C2892 1.379 . S
C2892 H2876 0.931 . S
C2892 C2886 1.383 . S
C2892 C2891 1.379 . S
H2893 C2887 0.959 . S
H2894 C2887 0.961 . S
H2895 C2887 0.960 . S
H2896 C2888 0.930 . S
H2897 C2889 0.929 . S
H2898 C2906 0.929 . S
H2899 C2908 0.930 . S
H2900 C2910 0.930 . S
H2901 C2913 0.929 . S
H2902 C2916 0.930 . S
H2903 C2918 0.960 . S
H2904 C2918 0.960 . S
H2905 C2918 0.960 . S
C2906 H2898 0.929 . S
C2906 C2907 1.377 . S
C2906 C2908 1.384 . S
C2907 C2906 1.377 . S
C2907 C2913 1.390 . S
C2908 H2899 0.930 . S
C2908 C2906 1.384 . S
C2908 C2909 1.372 . S
C2909 C2908 1.372 . S
C2909 C2910 1.400 . S
C2909 C2914 1.490 . S
C2910 H2900 0.930 . S
C2910 C2909 1.400 . S
C2910 C2913 1.386 . S
H2911 C2927 0.930 . S
H2912 C2928 0.931 . S
C2913 H2901 0.929 . S
C2913 C2907 1.390 . S
C2913 C2910 1.386 . S
C2914 C2909 1.490 . S
C2914 C2916 1.395 . S
C2914 C2917 1.403 . S
H2915 C2921 0.930 . S
C2916 H2902 0.930 . S
C2916 C2914 1.395 . S
C2916 C2919 1.403 . S
C2917 C2914 1.403 . S
C2917 C2918 1.524 . S
C2917 C2921 1.400 . S
C2918 H2903 0.960 . S
C2918 H2904 0.960 . S
C2918 H2905 0.960 . S
C2918 C2917 1.524 . S
C2919 C2916 1.403 . S
C2919 C2920 1.392 . S
C2919 C2923 1.495 . S
C2920 C2919 1.392 . S
C2920 C2921 1.385 . S
C2920 C2922 1.478 . S
C2921 H2915 0.930 . S
C2921 C2917 1.400 . S
C2921 C2920 1.385 . S
C2922 C2920 1.478 . S
C2922 C2924 1.381 . S
C2922 C2928 1.383 . S
C2923 C2919 1.495 . S
C2923 H2929 0.959 . S
C2923 H2930 0.961 . S
C2923 H2931 0.960 . S
C2924 C2922 1.381 . S
C2924 C2925 1.394 . S
C2924 H2932 0.930 . S
C2925 C2924 1.394 . S
C2925 C2926 1.383 . S
C2925 H2933 0.929 . S
C2926 C2925 1.383 . S
C2926 C2927 1.377 . S
C2927 H2911 0.930 . S
C2927 C2926 1.377 . S
C2927 C2928 1.379 . S
C2928 H2912 0.931 . S
C2928 C2922 1.383 . S
C2928 C2927 1.379 . S
H2929 C2923 0.959 . S
H2930 C2923 0.961 . S
H2931 C2923 0.960 . S
H2932 C2924 0.930 . S
H2933 C2925 0.929 . S
C999 C177 1.434 . S
C1018 C290 1.396 . S
C1035 C190 1.461 . S
C1054 C374 1.430 . S
C1071 C164 1.431 . S
C1090 C468 1.406 . S
C1107 C151 1.407 . S
C1126 C384 1.380 1_556 S
C1162 C458 1.377 . S
C1143 C125 1.413 . S
C1179 C138 1.379 . S
C1198 C300 1.373 . S
C1234 C301 1.418 . S
C1215 C147 1.435 . S
C1270 C385 1.426 . S
C1251 C121 1.464 . S
C1287 C134 1.462 . S
C1306 C477 1.498 1_556 S
C1323 C173 1.420 . S
C1342 C393 1.417 . S
C1359 C186 1.404 . S
C1378 C469 1.386 . S
C1414 C309 1.441 . S
C1395 C160 1.411 . S
C1450 C542 1.401 . S
C1431 C21 1.433 . S
C1467 C34 1.462 . S
C1486 C626 1.425 . S
C1503 C8 1.431 . S
C1522 C720 1.408 . S
C1539 C229 1.407 . S
C1558 C636 1.388 . S
C1575 C203 1.412 . S
C1594 C710 1.319 . S
C1611 C216 1.379 . S
C1630 C552 1.385 . S
C1647 C225 1.433 . S
C1666 C553 1.429 . S
C1683 C199 1.453 . S
C1702 C637 1.482 . S
C1738 C729 1.473 . S
C1719 C212 1.452 . S
C1755 C17 1.420 . S
C1774 C645 1.417 . S
C1810 C721 1.428 . S
C1791 C30 1.404 . S
C1827 C4 1.399 . S
C1846 C561 1.415 . S
C1882 C794 1.341 . S
C1863 C99 1.434 . S
C1899 C112 1.461 . S
C1918 C878 1.373 . S
C1954 C972 1.404 . S
C1935 C86 1.429 . S
C1990 C888 1.380 . S
C1971 C73 1.406 . S
C2026 C962 1.319 . S
C2007 C47 1.412 . S
C2043 C60 1.383 . S
C2062 C804 1.357 . S
C2079 C69 1.433 . S
C2098 C805 1.459 . S
C2115 C43 1.458 . S
C2134 C889 1.480 . S
C2170 C981 1.493 . S
C2151 C56 1.463 . S
C2187 C95 1.419 . S
C2206 C897 1.443 . S
C2223 C108 1.405 . S
C2242 C973 1.384 . S
C2259 C82 1.409 . S
C2278 C813 1.445 . S
C2295 C204 1.552 . S
C2314 C297 1.419 . S
C2350 C381 1.497 . S
C2331 C217 1.626 . S
C2367 C230 1.564 . S
C2386 C474 1.372 . S
C2403 C87 1.595 . S
C2422 C390 1.381 . S
C2439 C100 1.577 . S
C2458 C465 1.430 . S
C2494 C306 1.311 . S
C2475 C113 1.520 . S
C2511 C48 1.552 . S
C2530 C549 1.452 . S
C2547 C61 1.624 . S
C2566 C633 1.460 . S
C2583 C74 1.563 . S
C2602 C726 1.350 . S
C2619 C165 1.598 . S
C2638 C642 1.432 . S
C2674 C717 1.430 . S
C2655 C178 1.577 . S
C2691 C191 1.524 . S
C2710 C558 1.392 . S
C2727 C126 1.552 . S
C2746 C801 1.456 . S
C2763 C139 1.621 . S
C2782 C885 1.445 . S
C2818 C978 1.345 . S
C2799 C152 1.563 . S
C2835 C9 1.594 . S
C2854 C894 1.365 . S
C2871 C22 1.578 . S
C2890 C969 1.448 . S
C2907 C35 1.520 . S
C2926 C810 1.331 . S
