# Generated by pormake.
# Topology eea, (3,6)-cn, num edge types: 1
# Building blocks:
#     Node 0, Type 0, BuildingBlock: BETDAH_clean_linker_0, # of connection points: 3
#     Node 1, Type 0, BuildingBlock: BETDAH_clean_linker_0, # of connection points: 3
#     Node 2, Type 0, BuildingBlock: BETDAH_clean_linker_0, # of connection points: 3
#     Node 3, Type 0, BuildingBlock: BETDAH_clean_linker_0, # of connection points: 3
#     Node 4, Type 0, BuildingBlock: BETDAH_clean_linker_0, # of connection points: 3
#     Node 5, Type 0, BuildingBlock: BETDAH_clean_linker_0, # of connection points: 3
#     Node 6, Type 0, BuildingBlock: BETDAH_clean_linker_0, # of connection points: 3
#     Node 7, Type 0, BuildingBlock: BETDAH_clean_linker_0, # of connection points: 3
#     Node 8, Type 0, BuildingBlock: BETDAH_clean_linker_0, # of connection points: 3
#     Node 9, Type 0, BuildingBlock: BETDAH_clean_linker_0, # of connection points: 3
#     Node 10, Type 0, BuildingBlock: BETDAH_clean_linker_0, # of connection points: 3
#     Node 11, Type 0, BuildingBlock: BETDAH_clean_linker_0, # of connection points: 3
#     Node 12, Type 0, BuildingBlock: BETDAH_clean_linker_0, # of connection points: 3
#     Node 13, Type 0, BuildingBlock: BETDAH_clean_linker_0, # of connection points: 3
#     Node 14, Type 0, BuildingBlock: BETDAH_clean_linker_0, # of connection points: 3
#     Node 15, Type 0, BuildingBlock: BETDAH_clean_linker_0, # of connection points: 3
#     Node 16, Type 0, BuildingBlock: BETDAH_clean_linker_0, # of connection points: 3
#     Node 17, Type 0, BuildingBlock: BETDAH_clean_linker_0, # of connection points: 3
#     Node 18, Type 1, BuildingBlock: CUKXOW_clean_sbu_0, # of connection points: 6
#     Node 19, Type 1, BuildingBlock: CUKXOW_clean_sbu_0, # of connection points: 6
#     Node 20, Type 1, BuildingBlock: CUKXOW_clean_sbu_0, # of connection points: 6
#     Node 21, Type 1, BuildingBlock: CUKXOW_clean_sbu_0, # of connection points: 6
#     Node 22, Type 1, BuildingBlock: CUKXOW_clean_sbu_0, # of connection points: 6
#     Node 23, Type 1, BuildingBlock: CUKXOW_clean_sbu_0, # of connection points: 6
#     Node 24, Type 1, BuildingBlock: CUKXOW_clean_sbu_0, # of connection points: 6
#     Node 25, Type 1, BuildingBlock: CUKXOW_clean_sbu_0, # of connection points: 6
#     Node 26, Type 1, BuildingBlock: CUKXOW_clean_sbu_0, # of connection points: 6
#     Edge 27, Type (0, 1), BuildingBlock: UVAHIK_clean_linker_0, # of connection points: 2
#     Edge 28, Type (0, 1), BuildingBlock: UVAHIK_clean_linker_0, # of connection points: 2
#     Edge 29, Type (0, 1), BuildingBlock: UVAHIK_clean_linker_0, # of connection points: 2
#     Edge 30, Type (0, 1), BuildingBlock: UVAHIK_clean_linker_0, # of connection points: 2
#     Edge 31, Type (0, 1), BuildingBlock: UVAHIK_clean_linker_0, # of connection points: 2
#     Edge 32, Type (0, 1), BuildingBlock: UVAHIK_clean_linker_0, # of connection points: 2
#     Edge 33, Type (0, 1), BuildingBlock: UVAHIK_clean_linker_0, # of connection points: 2
#     Edge 34, Type (0, 1), BuildingBlock: UVAHIK_clean_linker_0, # of connection points: 2
#     Edge 35, Type (0, 1), BuildingBlock: UVAHIK_clean_linker_0, # of connection points: 2
#     Edge 36, Type (0, 1), BuildingBlock: UVAHIK_clean_linker_0, # of connection points: 2
#     Edge 37, Type (0, 1), BuildingBlock: UVAHIK_clean_linker_0, # of connection points: 2
#     Edge 38, Type (0, 1), BuildingBlock: UVAHIK_clean_linker_0, # of connection points: 2
#     Edge 39, Type (0, 1), BuildingBlock: UVAHIK_clean_linker_0, # of connection points: 2
#     Edge 40, Type (0, 1), BuildingBlock: UVAHIK_clean_linker_0, # of connection points: 2
#     Edge 41, Type (0, 1), BuildingBlock: UVAHIK_clean_linker_0, # of connection points: 2
#     Edge 42, Type (0, 1), BuildingBlock: UVAHIK_clean_linker_0, # of connection points: 2
#     Edge 43, Type (0, 1), BuildingBlock: UVAHIK_clean_linker_0, # of connection points: 2
#     Edge 44, Type (0, 1), BuildingBlock: UVAHIK_clean_linker_0, # of connection points: 2
#     Edge 45, Type (0, 1), BuildingBlock: UVAHIK_clean_linker_0, # of connection points: 2
#     Edge 46, Type (0, 1), BuildingBlock: UVAHIK_clean_linker_0, # of connection points: 2
#     Edge 47, Type (0, 1), BuildingBlock: UVAHIK_clean_linker_0, # of connection points: 2
#     Edge 48, Type (0, 1), BuildingBlock: UVAHIK_clean_linker_0, # of connection points: 2
#     Edge 49, Type (0, 1), BuildingBlock: UVAHIK_clean_linker_0, # of connection points: 2
#     Edge 50, Type (0, 1), BuildingBlock: UVAHIK_clean_linker_0, # of connection points: 2
#     Edge 51, Type (0, 1), BuildingBlock: UVAHIK_clean_linker_0, # of connection points: 2
#     Edge 52, Type (0, 1), BuildingBlock: UVAHIK_clean_linker_0, # of connection points: 2
#     Edge 53, Type (0, 1), BuildingBlock: UVAHIK_clean_linker_0, # of connection points: 2
#     Edge 54, Type (0, 1), BuildingBlock: UVAHIK_clean_linker_0, # of connection points: 2
#     Edge 55, Type (0, 1), BuildingBlock: UVAHIK_clean_linker_0, # of connection points: 2
#     Edge 56, Type (0, 1), BuildingBlock: UVAHIK_clean_linker_0, # of connection points: 2
#     Edge 57, Type (0, 1), BuildingBlock: UVAHIK_clean_linker_0, # of connection points: 2
#     Edge 58, Type (0, 1), BuildingBlock: UVAHIK_clean_linker_0, # of connection points: 2
#     Edge 59, Type (0, 1), BuildingBlock: UVAHIK_clean_linker_0, # of connection points: 2
#     Edge 60, Type (0, 1), BuildingBlock: UVAHIK_clean_linker_0, # of connection points: 2
#     Edge 61, Type (0, 1), BuildingBlock: UVAHIK_clean_linker_0, # of connection points: 2
#     Edge 62, Type (0, 1), BuildingBlock: UVAHIK_clean_linker_0, # of connection points: 2
#     Edge 63, Type (0, 1), BuildingBlock: UVAHIK_clean_linker_0, # of connection points: 2
#     Edge 64, Type (0, 1), BuildingBlock: UVAHIK_clean_linker_0, # of connection points: 2
#     Edge 65, Type (0, 1), BuildingBlock: UVAHIK_clean_linker_0, # of connection points: 2
#     Edge 66, Type (0, 1), BuildingBlock: UVAHIK_clean_linker_0, # of connection points: 2
#     Edge 67, Type (0, 1), BuildingBlock: UVAHIK_clean_linker_0, # of connection points: 2
#     Edge 68, Type (0, 1), BuildingBlock: UVAHIK_clean_linker_0, # of connection points: 2
#     Edge 69, Type (0, 1), BuildingBlock: UVAHIK_clean_linker_0, # of connection points: 2
#     Edge 70, Type (0, 1), BuildingBlock: UVAHIK_clean_linker_0, # of connection points: 2
#     Edge 71, Type (0, 1), BuildingBlock: UVAHIK_clean_linker_0, # of connection points: 2
#     Edge 72, Type (0, 1), BuildingBlock: UVAHIK_clean_linker_0, # of connection points: 2
#     Edge 73, Type (0, 1), BuildingBlock: UVAHIK_clean_linker_0, # of connection points: 2
#     Edge 74, Type (0, 1), BuildingBlock: UVAHIK_clean_linker_0, # of connection points: 2
#     Edge 75, Type (0, 1), BuildingBlock: UVAHIK_clean_linker_0, # of connection points: 2
#     Edge 76, Type (0, 1), BuildingBlock: UVAHIK_clean_linker_0, # of connection points: 2
#     Edge 77, Type (0, 1), BuildingBlock: UVAHIK_clean_linker_0, # of connection points: 2
#     Edge 78, Type (0, 1), BuildingBlock: UVAHIK_clean_linker_0, # of connection points: 2
#     Edge 79, Type (0, 1), BuildingBlock: UVAHIK_clean_linker_0, # of connection points: 2
#     Edge 80, Type (0, 1), BuildingBlock: UVAHIK_clean_linker_0, # of connection points: 2
# Relax obj value: 0.032
# Max RMSD: 0.153
# Mean RMSD: 0.093
data_MOF--net-eea--node1-CUKXOW_clean_sbu_0--node2-BETDAH_clean_linker_0--edge1-UVAHIK_clean_linker_0
_symmetry_space_group_name_H-M    P1
_symmetry_Int_Tables_number       1
_symmetry_cell_setting            triclinic
loop_
_symmetry_equiv_pos_as_xyz
'x, y, z'
_cell_length_a     76.588459
_cell_length_b     73.232077
_cell_length_c     66.008731
_cell_angle_alpha  93.05932
_cell_angle_beta   93.131818
_cell_angle_gamma 119.91035
loop_
_atom_site_label
_atom_site_type_symbol
_atom_site_fract_x
_atom_site_fract_y
_atom_site_fract_z
_atom_type_partial_charge
H0 H 0.24409 0.08969 0.44088 0.0
H1 H 0.27137 0.15596 0.4316 0.0
H2 H 0.24761 0.10927 0.3803 0.0
C3 C 0.2484 0.10219 0.43085 0.0
C4 C 0.24452 0.09685 0.40969 0.0
C5 C 0.25846 0.12349 0.4391 0.0
C6 C 0.26342 0.13943 0.42576 0.0
C7 C 0.25934 0.13418 0.4046 0.0
C8 C 0.25035 0.11305 0.39667 0.0
N9 N 0.26556 0.1501 0.39098 0.0
C10 C 0.25802 0.16382 0.39054 0.0
H11 H 0.92019 0.17062 0.4486 0.0
H12 H 0.86044 0.11853 0.42836 0.0
H13 H 0.9053 0.14473 0.38601 0.0
C14 C 0.9093 0.15924 0.43669 0.0
C15 C 0.91508 0.15953 0.41682 0.0
C16 C 0.88948 0.14471 0.44111 0.0
C17 C 0.87581 0.12966 0.42543 0.0
C18 C 0.88163 0.12968 0.40559 0.0
C19 C 0.90102 0.14482 0.40139 0.0
N20 N 0.86824 0.11518 0.38928 0.0
C21 C 0.85212 0.09524 0.39162 0.0
H22 H 0.84368 0.74634 0.45589 0.0
H23 H 0.88511 0.72656 0.43705 0.0
H24 H 0.85519 0.74492 0.39279 0.0
C25 C 0.85169 0.74381 0.44402 0.0
C26 C 0.84788 0.74693 0.42379 0.0
C27 C 0.86499 0.73636 0.44895 0.0
C28 C 0.8749 0.73241 0.43348 0.0
C29 C 0.87119 0.73546 0.41326 0.0
C30 C 0.85764 0.74247 0.40849 0.0
N31 N 0.88032 0.7308 0.39728 0.0
C32 C 0.90107 0.73913 0.39788 0.0
H33 H 0.08691 0.25984 0.56786 0.0
H34 H 0.14781 0.27762 0.58987 0.0
H35 H 0.10102 0.25393 0.63041 0.0
C36 C 0.09771 0.2614 0.58012 0.0
C37 C 0.09121 0.25535 0.59943 0.0
C38 C 0.11816 0.26979 0.5766 0.0
C39 C 0.13205 0.27138 0.59243 0.0
C40 C 0.12571 0.26543 0.61173 0.0
C41 C 0.10552 0.25792 0.61525 0.0
N42 N 0.13947 0.26747 0.62811 0.0
C43 C 0.15335 0.26072 0.62607 0.0
H44 H 0.75705 0.83138 0.5774 0.0
H45 H 0.74721 0.88321 0.59358 0.0
H46 H 0.76788 0.85748 0.63971 0.0
C47 C 0.75715 0.84273 0.58871 0.0
C48 C 0.76305 0.84261 0.60919 0.0
C49 C 0.7511 0.85711 0.58281 0.0
C50 C 0.75199 0.87215 0.59772 0.0
C51 C 0.75815 0.87229 0.61822 0.0
C52 C 0.76321 0.85727 0.62385 0.0
N53 N 0.75905 0.88703 0.63369 0.0
C54 C 0.76167 0.90674 0.6302 0.0
H55 H 0.16431 0.91878 0.57236 0.0
H56 H 0.12508 0.85283 0.5806 0.0
H57 H 0.1496 0.89908 0.63226 0.0
C58 C 0.15631 0.9063 0.58212 0.0
C59 C 0.15833 0.91152 0.60323 0.0
C60 C 0.14469 0.88512 0.57363 0.0
C61 C 0.13396 0.86928 0.58659 0.0
C62 C 0.13565 0.87444 0.60765 0.0
C63 C 0.14814 0.89537 0.61592 0.0
N64 N 0.12592 0.85849 0.62091 0.0
C65 C 0.10499 0.84679 0.62046 0.0
H66 H 0.91225 0.42102 0.77698 0.0
H67 H 0.93037 0.48527 0.7655 0.0
H68 H 0.90774 0.43659 0.71586 0.0
C69 C 0.91419 0.43269 0.76654 0.0
C70 C 0.90903 0.42626 0.74564 0.0
C71 C 0.92236 0.45404 0.77398 0.0
C72 C 0.92402 0.46875 0.76018 0.0
C73 C 0.9186 0.46233 0.73922 0.0
C74 C 0.91164 0.44131 0.73207 0.0
N75 N 0.92077 0.47678 0.72476 0.0
C76 C 0.91793 0.4939 0.72856 0.0
H77 H 0.58432 0.51431 0.78077 0.0
H78 H 0.53116 0.45243 0.76823 0.0
H79 H 0.5792 0.47284 0.72932 0.0
C80 C 0.57594 0.49921 0.77169 0.0
C81 C 0.5843 0.49545 0.75463 0.0
C82 C 0.55676 0.48382 0.77688 0.0
C83 C 0.54577 0.46459 0.76436 0.0
C84 C 0.55383 0.46091 0.747 0.0
C85 C 0.57297 0.47626 0.74238 0.0
N86 N 0.54339 0.44198 0.73376 0.0
C87 C 0.52523 0.42422 0.73696 0.0
H88 H 0.51127 0.07758 0.78426 0.0
H89 H 0.55046 0.05624 0.76188 0.0
H90 H 0.52066 0.07748 0.72051 0.0
C91 C 0.51841 0.07465 0.77174 0.0
C92 C 0.51459 0.07897 0.75201 0.0
C93 C 0.53109 0.06618 0.7754 0.0
C94 C 0.5406 0.0627 0.75924 0.0
C95 C 0.53697 0.06708 0.73952 0.0
C96 C 0.52373 0.07474 0.73593 0.0
N97 N 0.54591 0.06319 0.72288 0.0
C98 C 0.56659 0.07095 0.72339 0.0
H99 H 0.75105 0.58628 0.89728 0.0
H100 H 0.8132 0.60891 0.91913 0.0
H101 H 0.76748 0.58616 0.96069 0.0
C102 C 0.76245 0.58967 0.90963 0.0
C103 C 0.7566 0.58483 0.92937 0.0
C104 C 0.78289 0.59861 0.90568 0.0
C105 C 0.79736 0.60183 0.92167 0.0
C106 C 0.79165 0.59713 0.9414 0.0
C107 C 0.77149 0.58914 0.94523 0.0
N108 N 0.80609 0.60112 0.95784 0.0
C109 C 0.81973 0.59394 0.95681 0.0
H110 H 0.41723 0.16025 0.91584 0.0
H111 H 0.4149 0.21682 0.93194 0.0
H112 H 0.4355 0.1903 0.97709 0.0
C113 C 0.4195 0.17279 0.92701 0.0
C114 C 0.42663 0.17306 0.9472 0.0
C115 C 0.4152 0.18851 0.92118 0.0
C116 C 0.41851 0.20486 0.93592 0.0
C117 C 0.42577 0.20534 0.95607 0.0
C118 C 0.42963 0.18945 0.96154 0.0
N119 N 0.42903 0.22127 0.97148 0.0
C120 C 0.43162 0.24094 0.96789 0.0
H121 H 0.83238 0.24613 0.90476 0.0
H122 H 0.78895 0.18379 0.9198 0.0
H123 H 0.82026 0.23462 0.9671 0.0
C124 C 0.82388 0.23555 0.9159 0.0
C125 C 0.82771 0.24314 0.9366 0.0
C126 C 0.81018 0.21407 0.90969 0.0
C127 C 0.79952 0.20037 0.92435 0.0
C128 C 0.80314 0.20792 0.94502 0.0
C129 C 0.81745 0.22907 0.95105 0.0
N130 N 0.79353 0.19427 0.96022 0.0
C131 C 0.77275 0.18083 0.95922 0.0
H132 H 0.58273 0.75695 0.10144 0.0
H133 H 0.60445 0.82206 0.09041 0.0
H134 H 0.58285 0.77409 0.04023 0.0
C135 C 0.58585 0.76896 0.09105 0.0
C136 C 0.58171 0.76294 0.07002 0.0
C137 C 0.59453 0.79032 0.09873 0.0
C138 C 0.59769 0.80552 0.08495 0.0
C139 C 0.59334 0.79955 0.06385 0.0
C140 C 0.5859 0.77846 0.05653 0.0
N141 N 0.59723 0.81457 0.04953 0.0
C142 C 0.5931 0.83093 0.0522 0.0
H143 H 0.25311 0.84041 0.11229 0.0
H144 H 0.19435 0.78604 0.09374 0.0
H145 H 0.23967 0.80907 0.05172 0.0
C146 C 0.24263 0.828 0.10086 0.0
C147 C 0.24882 0.82681 0.08138 0.0
C148 C 0.22296 0.81335 0.10561 0.0
C149 C 0.20964 0.79715 0.09058 0.0
C150 C 0.21576 0.79573 0.07117 0.0
C151 C 0.23514 0.81059 0.0667 0.0
N152 N 0.20277 0.77978 0.05559 0.0
C153 C 0.18573 0.76093 0.05898 0.0
H154 H 0.17527 0.4102 0.1189 0.0
H155 H 0.22165 0.39774 0.1 0.0
H156 H 0.19093 0.41667 0.05718 0.0
C157 C 0.18442 0.40946 0.10731 0.0
C158 C 0.18179 0.41486 0.08774 0.0
C159 C 0.19866 0.4031 0.11201 0.0
C160 C 0.21045 0.40233 0.09668 0.0
C161 C 0.20754 0.4072 0.0769 0.0
C162 C 0.19314 0.41318 0.07255 0.0
N163 N 0.21843 0.40581 0.06078 0.0
C164 C 0.23742 0.4078 0.0634 0.0
H165 H 0.4174 0.92803 0.23046 0.0
H166 H 0.47418 0.93191 0.24883 0.0
H167 H 0.42752 0.91108 0.28947 0.0
C168 C 0.42711 0.92606 0.24158 0.0
C169 C 0.41977 0.91826 0.26014 0.0
C170 C 0.44683 0.93128 0.23731 0.0
C171 C 0.45914 0.92841 0.25197 0.0
C172 C 0.45207 0.92115 0.27078 0.0
C173 C 0.43263 0.9164 0.27478 0.0
N174 N 0.46404 0.91863 0.28627 0.0
C175 C 0.48139 0.91769 0.28339 0.0
H176 H 0.08512 0.49618 0.24823 0.0
H177 H 0.09083 0.55708 0.26254 0.0
H178 H 0.11056 0.52933 0.30765 0.0
C179 C 0.0896 0.50982 0.25899 0.0
C180 C 0.09826 0.51079 0.2786 0.0
C181 C 0.08676 0.52642 0.25317 0.0
C182 C 0.09299 0.54428 0.26704 0.0
C183 C 0.10142 0.54522 0.28683 0.0
C184 C 0.1038 0.52838 0.29249 0.0
N185 N 0.1077 0.56271 0.30153 0.0
C186 C 0.1086 0.5816 0.29762 0.0
H187 H 0.49602 0.58574 0.24476 0.0
H188 H 0.45907 0.51918 0.25193 0.0
H189 H 0.48265 0.56449 0.30439 0.0
C190 C 0.48848 0.57295 0.25434 0.0
C191 C 0.49053 0.57769 0.27553 0.0
C192 C 0.47753 0.55187 0.24552 0.0
C193 C 0.46742 0.53556 0.25823 0.0
C194 C 0.46918 0.54022 0.2794 0.0
C195 C 0.48107 0.56114 0.28799 0.0
N196 N 0.46029 0.52386 0.29241 0.0
C197 C 0.43946 0.51114 0.29217 0.0
Tb198 Tb 0.52952 0.02147 0.01089 0.0
C199 C 0.52151 0.9739 0.01169 0.0
Tb200 Tb 0.4859 0.9837 0.00872 0.0
O201 O 0.52809 0.03072 0.04272 0.0
O202 O 0.51124 0.99936 0.03043 0.0
O203 O 0.53446 0.99422 0.00958 0.0
C204 C 0.44911 0.95745 0.01976 0.0
O205 O 0.50191 0.96648 0.01326 0.0
C206 C 0.50168 0.99344 0.97394 0.0
C207 C 0.49379 0.03094 0.00775 0.0
O208 O 0.45377 0.96012 0.00108 0.0
O209 O 0.46515 0.96943 0.03208 0.0
O210 O 0.48778 0.97435 0.97704 0.0
O211 O 0.50427 0.00583 0.98918 0.0
O212 O 0.48123 0.01103 0.01145 0.0
O213 O 0.51301 0.03791 0.00454 0.0
C214 C 0.56669 0.04784 0.00088 0.0
O215 O 0.55954 0.04965 0.01779 0.0
O216 O 0.55293 0.03119 0.98965 0.0
C217 C 0.51405 0.01174 0.04574 0.0
Tb218 Tb 0.98357 0.50942 0.01273 0.0
C219 C 0.02808 0.54473 0.02628 0.0
Tb220 Tb 0.01547 0.49613 0.02052 0.0
O221 O 0.98696 0.52055 0.04495 0.0
O222 O 0.99211 0.49598 0.03626 0.0
O223 O 0.01079 0.54037 0.01611 0.0
C224 C 0.04366 0.48788 0.0354 0.0
O225 O 0.03193 0.52975 0.03164 0.0
C226 C 0.00564 0.49712 0.9821 0.0
C227 C 0.97099 0.46083 0.00665 0.0
O228 O 0.04561 0.49957 0.02063 0.0
O229 O 0.02592 0.48093 0.0418 0.0
O230 O 0.01224 0.48498 0.98841 0.0
O231 O 0.00682 0.50937 0.99693 0.0
O232 O 0.98824 0.46514 0.01688 0.0
O233 O 0.96705 0.47582 0.00155 0.0
C234 C 0.95526 0.5174 0.99765 0.0
O235 O 0.97253 0.52331 0.99046 0.0
O236 O 0.95391 0.50695 0.01332 0.0
C237 C 0.99331 0.50817 0.05116 0.0
Tb238 Tb 0.47767 0.49512 0.00705 0.0
C239 C 0.48994 0.45952 0.00297 0.0
Tb240 Tb 0.52262 0.50838 0.00439 0.0
O241 O 0.47679 0.50656 0.97687 0.0
O242 O 0.4961 0.49537 0.98446 0.0
O243 O 0.47585 0.46435 0.00733 0.0
C244 C 0.55757 0.51653 0.9907 0.0
O245 O 0.50884 0.47404 1.00027 0.0
C246 C 0.51271 0.51222 0.04111 0.0
C247 C 0.51022 0.54321 0.00952 0.0
O248 O 0.55048 0.50689 0.00687 0.0
O249 O 0.54499 0.52157 0.98233 0.0
O250 O 0.53088 0.52348 0.03566 0.0
O251 O 0.50186 0.49826 0.02688 0.0
O252 O 0.52263 0.53795 0.00104 0.0
O253 O 0.49278 0.52893 0.01574 0.0
C254 C 0.44024 0.48011 0.01785 0.0
O255 O 0.45659 0.49478 0.02834 0.0
O256 O 0.44496 0.47405 0.00121 0.0
C257 C 0.49146 0.50404 0.97105 0.0
Tb258 Tb 0.19658 0.35424 0.34668 0.0
C259 C 0.18535 0.30619 0.34902 0.0
Tb260 Tb 0.15181 0.31915 0.34498 0.0
O261 O 0.19666 0.3642 0.3788 0.0
O262 O 0.17718 0.33337 0.36669 0.0
O263 O 0.19898 0.32552 0.34478 0.0
C264 C 0.1144 0.29515 0.3557 0.0
O265 O 0.16655 0.30107 0.3525 0.0
C266 C 0.16702 0.32695 0.30956 0.0
C267 C 0.16294 0.36694 0.34126 0.0
O268 O 0.12194 0.2904 0.3405 0.0
O269 O 0.12786 0.31345 0.3647 0.0
O270 O 0.15122 0.30915 0.31274 0.0
O271 O 0.17129 0.33976 0.32492 0.0
O272 O 0.1494 0.34792 0.34629 0.0
O273 O 0.18162 0.37173 0.33763 0.0
C274 C 0.23456 0.37888 0.33766 0.0
O275 O 0.2258 0.38375 0.35153 0.0
O276 O 0.22198 0.3601 0.32899 0.0
C277 C 0.18123 0.34616 0.382 0.0
Tb278 Tb 0.65404 0.84431 0.34066 0.0
C279 C 0.70016 0.87728 0.34659 0.0
Tb280 Tb 0.68311 0.82762 0.3464 0.0
O281 O 0.66191 0.85804 0.37235 0.0
O282 O 0.66226 0.83037 0.36397 0.0
O283 O 0.68231 0.87332 0.33825 0.0
C284 C 0.71067 0.81796 0.36028 0.0
O285 O 0.70344 0.86198 0.35219 0.0
C286 C 0.67079 0.82734 0.30855 0.0
C287 C 0.63677 0.79463 0.34031 0.0
O288 O 0.70425 0.81632 0.34133 0.0
O289 O 0.70165 0.82516 0.3715 0.0
O290 O 0.67573 0.81391 0.31485 0.0
O291 O 0.67472 0.84131 0.32288 0.0
O292 O 0.65471 0.79836 0.34823 0.0
O293 O 0.63354 0.81005 0.33501 0.0
C294 C 0.62664 0.85466 0.32804 0.0
O295 O 0.6344 0.84631 0.31638 0.0
O296 O 0.63414 0.85693 0.34668 0.0
C297 C 0.66636 0.84419 0.37843 0.0
Tb298 Tb 0.13999 0.82966 0.33595 0.0
C299 C 0.15239 0.79595 0.32526 0.0
Tb300 Tb 0.18462 0.84537 0.32973 0.0
O301 O 0.13126 0.81702 0.30378 0.0
O302 O 0.15948 0.84339 0.31291 0.0
O303 O 0.13927 0.7996 0.33439 0.0
C304 C 0.2197 0.85466 0.31544 0.0
O305 O 0.16981 0.81144 0.32 0.0
C306 C 0.17655 0.84522 0.36775 0.0
C307 C 0.17224 0.87911 0.34061 0.0
O308 O 0.21245 0.84386 0.33089 0.0
O309 O 0.20721 0.86023 0.30802 0.0
O310 O 0.19409 0.85794 0.36164 0.0
O311 O 0.16532 0.83205 0.35309 0.0
O312 O 0.18544 0.87548 0.3316 0.0
O313 O 0.15464 0.86362 0.34553 0.0
C314 C 0.10473 0.82004 0.35017 0.0
O315 O 0.11815 0.81626 0.35857 0.0
O316 O 0.11113 0.82925 0.33369 0.0
C317 C 0.14874 0.83043 0.29801 0.0
Tb318 Tb 0.86505 0.68903 0.67854 0.0
C319 C 0.8551 0.64369 0.68854 0.0
Tb320 Tb 0.82069 0.65622 0.68425 0.0
O321 O 0.87375 0.68919 0.71077 0.0
O322 O 0.84481 0.68309 0.70116 0.0
O323 O 0.86793 0.66115 0.68044 0.0
C324 C 0.78563 0.62894 0.698 0.0
O325 O 0.83669 0.63945 0.69267 0.0
C326 C 0.82943 0.66173 0.64644 0.0
C327 C 0.83054 0.70109 0.67329 0.0
O328 O 0.79082 0.62758 0.67985 0.0
O329 O 0.80024 0.64559 0.70848 0.0
O330 O 0.81157 0.65577 0.65221 0.0
O331 O 0.84079 0.66239 0.66137 0.0
O332 O 0.81826 0.68448 0.68283 0.0
O333 O 0.84843 0.70452 0.66816 0.0
C334 C 0.90015 0.717 0.66534 0.0
O335 O 0.89232 0.72043 0.68103 0.0
O336 O 0.8882 0.69787 0.65711 0.0
C337 C 0.85586 0.68359 0.71623 0.0
Tb338 Tb 0.31851 0.17717 0.6792 0.0
C339 C 0.36363 0.21111 0.69168 0.0
Tb340 Tb 0.34887 0.16183 0.68668 0.0
O341 O 0.3235 0.18946 0.71129 0.0
O342 O 0.32655 0.16345 0.70277 0.0
O343 O 0.34646 0.20745 0.6818 0.0
C344 C 0.37677 0.15297 0.70111 0.0
O345 O 0.36675 0.19563 0.69699 0.0
C346 C 0.33834 0.16216 0.64831 0.0
C347 C 0.30367 0.12787 0.67446 0.0
O348 O 0.37802 0.16335 0.68542 0.0
O349 O 0.35978 0.1476 0.70878 0.0
O350 O 0.34411 0.14941 0.6548 0.0
O351 O 0.34063 0.17524 0.66288 0.0
O352 O 0.32087 0.13158 0.68434 0.0
O353 O 0.30057 0.14333 0.66899 0.0
C354 C 0.29083 0.18624 0.66445 0.0
O355 O 0.28929 0.17568 0.68009 0.0
O356 O 0.30796 0.19168 0.65711 0.0
C357 C 0.32892 0.17635 0.7175 0.0
Tb358 Tb 0.80947 0.16006 0.67362 0.0
C359 C 0.82051 0.12525 0.66313 0.0
Tb360 Tb 0.854 0.17429 0.66821 0.0
O361 O 0.80105 0.14787 0.64136 0.0
O362 O 0.8296 0.17347 0.65096 0.0
O363 O 0.80766 0.12951 0.67205 0.0
C364 C 0.88908 0.18295 0.6541 0.0
O365 O 0.83837 0.14033 0.65829 0.0
C366 C 0.84532 0.1739 0.70608 0.0
C367 C 0.84292 0.20897 0.67957 0.0
O368 O 0.88178 0.17255 0.66977 0.0
O369 O 0.87662 0.18843 0.64638 0.0
O370 O 0.86317 0.18615 0.70034 0.0
O371 O 0.83403 0.16118 0.69116 0.0
O372 O 0.85583 0.20492 0.67048 0.0
O373 O 0.82507 0.19378 0.68428 0.0
C374 C 0.77372 0.15145 0.68597 0.0
O375 O 0.78191 0.16219 0.67073 0.0
O376 O 0.78569 0.14564 0.69427 0.0
C377 C 0.81882 0.1608 0.6359 0.0
C378 C 0.27254 0.84944 0.05666 0.0
C379 C 0.26956 0.84214 0.07618 0.0
C380 C 0.29202 0.86238 0.05104 0.0
C381 C 0.34469 0.89913 0.07083 0.0
H382 H 0.35723 0.883 0.01909 0.0
C383 C 0.42617 0.94051 0.04681 0.0
C384 C 0.42873 0.94379 0.02617 0.0
C385 C 0.40686 0.92807 0.05312 0.0
C386 C 0.35396 0.88797 0.03344 0.0
H387 H 0.28489 0.84337 0.10529 0.0
H388 H 0.31896 0.86646 0.09557 0.0
H389 H 0.32338 0.8622 0.0299 0.0
H390 H 0.41325 0.93682 0.99591 0.0
H391 H 0.37944 0.9156 0.00689 0.0
H392 H 0.37507 0.92516 0.07424 0.0
C393 C 0.30611 0.862 0.08463 0.0
C394 C 0.33455 0.87597 0.03966 0.0
C395 C 0.28658 0.84884 0.09021 0.0
C396 C 0.41168 0.9344 0.01191 0.0
C397 C 0.39232 0.92214 0.01823 0.0
C398 C 0.36406 0.9113 0.06451 0.0
C399 C 0.30903 0.86859 0.06487 0.0
C400 C 0.3297 0.88142 0.05841 0.0
C401 C 0.38963 0.91883 0.03894 0.0
C402 C 0.36898 0.90587 0.04572 0.0
H403 H 0.25979 0.84505 0.04561 0.0
H404 H 0.2938 0.86754 0.03583 0.0
H405 H 0.34132 0.90381 0.08527 0.0
H406 H 0.43911 0.94752 0.05812 0.0
H407 H 0.40549 0.92559 0.06911 0.0
C408 C 0.14857 0.41344 0.09113 0.0
C409 C 0.16751 0.42262 0.08322 0.0
C410 C 0.13537 0.42106 0.08708 0.0
C411 C 0.13405 0.46778 0.06974 0.0
H412 H 0.07658 0.42804 0.0584 0.0
C413 C 0.07734 0.49039 0.03466 0.0
C414 C 0.05857 0.48207 0.04276 0.0
C415 C 0.09098 0.4839 0.04085 0.0
C416 C 0.09257 0.43935 0.06177 0.0
H417 H 0.18747 0.44717 0.065 0.0
H418 H 0.16422 0.45994 0.05736 0.0
H419 H 0.09958 0.41497 0.06653 0.0
H420 H 0.03943 0.4609 0.06394 0.0
H421 H 0.06326 0.4495 0.07472 0.0
H422 H 0.12699 0.49211 0.06455 0.0
C423 C 0.15967 0.44709 0.06699 0.0
C424 C 0.10575 0.43187 0.06646 0.0
C425 C 0.17289 0.43955 0.07112 0.0
C426 C 0.0538 0.46749 0.05742 0.0
C427 C 0.06737 0.46089 0.0635 0.0
C428 C 0.12087 0.47524 0.06492 0.0
C429 C 0.14076 0.43797 0.07495 0.0
C430 C 0.12667 0.44598 0.07043 0.0
C431 C 0.08603 0.46888 0.05514 0.0
C432 C 0.1 0.46109 0.06083 0.0
H433 H 0.14385 0.40024 0.10034 0.0
H434 H 0.12101 0.4138 0.09364 0.0
H435 H 0.15002 0.47913 0.07307 0.0
H436 H 0.08135 0.50165 0.02332 0.0
H437 H 0.10518 0.4902 0.03402 0.0
C438 C 0.55729 0.72422 0.07105 0.0
C439 C 0.57346 0.74048 0.06224 0.0
C440 C 0.54996 0.70304 0.06426 0.0
C441 C 0.5505 0.66812 0.02144 0.0
H442 H 0.53429 0.62753 0.06189 0.0
C443 C 0.53373 0.58167 0.00536 0.0
C444 C 0.51657 0.56589 0.01348 0.0
C445 C 0.54031 0.6031 0.01027 0.0
C446 C 0.53859 0.63864 0.05038 0.0
H447 H 0.59464 0.74733 0.0394 0.0
H448 H 0.58216 0.71034 0.02777 0.0
H449 H 0.54653 0.66458 0.07249 0.0
H450 H 0.49271 0.56033 0.03289 0.0
H451 H 0.50423 0.59759 0.04143 0.0
H452 H 0.54288 0.64202 0.99942 0.0
C453 C 0.5748 0.71391 0.03964 0.0
C454 C 0.54555 0.6599 0.05644 0.0
C455 C 0.58201 0.73512 0.04632 0.0
C456 C 0.50597 0.57202 0.02632 0.0
C457 C 0.51264 0.5934 0.03135 0.0
C458 C 0.54369 0.64683 0.01541 0.0
C459 C 0.55877 0.69757 0.04862 0.0
C460 C 0.55149 0.67493 0.04205 0.0
C461 C 0.52999 0.60918 0.02355 0.0
C462 C 0.53754 0.63185 0.02981 0.0
H463 H 0.55021 0.7279 0.08315 0.0
H464 H 0.53731 0.69094 0.07125 0.0
H465 H 0.55469 0.67916 0.00989 0.0
H466 H 0.54225 0.57749 0.99542 0.0
H467 H 0.5538 0.61493 0.00412 0.0
C468 C 0.85706 0.27074 0.96003 0.0
C469 C 0.84278 0.26559 0.94327 0.0
C470 C 0.87095 0.29184 0.96669 0.0
C471 C 0.89402 0.34635 0.95056 0.0
H472 H 0.90804 0.36237 0.00865 0.0
C473 C 0.94001 0.43351 0.98491 0.0
C474 C 0.95585 0.43848 0.99994 0.0
C475 C 0.92614 0.41245 0.97799 0.0
C476 C 0.90439 0.3581 0.99238 0.0
H477 H 0.83183 0.2785 0.92035 0.0
H478 H 0.85582 0.31543 0.9322 0.0
H479 H 0.88396 0.32567 0.99644 0.0
H480 H 0.96939 0.42518 0.01963 0.0
H481 H 0.94502 0.3884 0.00766 0.0
H482 H 0.91427 0.37896 0.94662 0.0
C483 C 0.85659 0.30316 0.93997 0.0
C484 C 0.89063 0.33704 0.98535 0.0
C485 C 0.8428 0.28201 0.9332 0.0
C486 C 0.95737 0.42191 0.00805 0.0
C487 C 0.94336 0.40083 0.00127 0.0
C488 C 0.90765 0.36745 0.95762 0.0
C489 C 0.8708 0.30836 0.95687 0.0
C490 C 0.88532 0.33086 0.96434 0.0
C491 C 0.92767 0.39589 0.98608 0.0
C492 C 0.91303 0.37353 0.9786 0.0
H493 H 0.85762 0.2584 0.96789 0.0
H494 H 0.88193 0.29519 0.97946 0.0
H495 H 0.89057 0.34215 0.93428 0.0
H496 H 0.93846 0.44588 0.97825 0.0
H497 H 0.9141 0.40911 0.96639 0.0
C498 C 0.7228 0.58277 0.92475 0.0
C499 C 0.73509 0.57558 0.93367 0.0
C500 C 0.70293 0.57483 0.92978 0.0
C501 C 0.6711 0.55069 0.97101 0.0
H502 H 0.62639 0.53579 0.93049 0.0
C503 C 0.5892 0.51449 0.99269 0.0
C504 C 0.57711 0.52157 0.98323 0.0
C505 C 0.60797 0.51978 0.98586 0.0
C506 C 0.63875 0.54011 0.94203 0.0
H507 H 0.73579 0.55366 0.95413 0.0
H508 H 0.70128 0.5401 0.96309 0.0
H509 H 0.66012 0.54756 0.91975 0.0
H510 H 0.57492 0.53953 0.95917 0.0
H511 H 0.60787 0.54923 0.94754 0.0
H512 H 0.65 0.54377 0.99334 0.0
C513 C 0.70711 0.55207 0.95243 0.0
C514 C 0.65804 0.5468 0.93585 0.0
C515 C 0.72689 0.55989 0.94732 0.0
C516 C 0.58397 0.53384 0.96671 0.0
C517 C 0.60279 0.53926 0.95996 0.0
C518 C 0.65187 0.54417 0.9772 0.0
C519 C 0.695 0.55963 0.94391 0.0
C520 C 0.67441 0.55217 0.95029 0.0
C521 C 0.61509 0.53239 0.96952 0.0
C522 C 0.63544 0.53882 0.9628 0.0
H523 H 0.7287 0.595 0.91436 0.0
H524 H 0.69399 0.58108 0.9231 0.0
H525 H 0.68349 0.55504 0.98252 0.0
H526 H 0.58417 0.50489 0.00539 0.0
H527 H 0.61688 0.51392 0.99337 0.0
C528 C 0.42732 0.1492 0.97291 0.0
C529 C 0.43123 0.15651 0.95344 0.0
C530 C 0.4329 0.13483 0.97941 0.0
C531 C 0.44391 0.09386 0.96193 0.0
H532 H 0.47657 0.1086 0.01367 0.0
C533 C 0.46466 0.03662 0.99931 0.0
C534 C 0.48549 0.04508 0.00449 0.0
C535 C 0.45712 0.04979 0.994 0.0
C536 C 0.46742 0.10429 0.99923 0.0
H537 H 0.44372 0.15388 0.9254 0.0
H538 H 0.45278 0.12817 0.93658 0.0
H539 H 0.46471 0.13205 0.0019 0.0
H540 H 0.51459 0.07406 0.009 0.0
H541 H 0.50129 0.0971 1.00023 0.0
H542 H 0.44657 0.06605 0.9593 0.0
C543 C 0.4455 0.13379 0.94679 0.0
C544 C 0.46056 0.11761 0.99255 0.0
C545 C 0.44021 0.14844 0.94038 0.0
C546 C 0.49848 0.06707 0.00503 0.0
C547 C 0.49088 0.08026 1.00008 0.0
C548 C 0.45048 0.08034 0.96878 0.0
C549 C 0.44218 0.12711 0.96648 0.0
C550 C 0.44888 0.11261 0.97377 0.0
C551 C 0.47019 0.0717 0.99415 0.0
C552 C 0.46243 0.08553 0.98741 0.0
H553 H 0.41998 0.15461 0.98323 0.0
H554 H 0.42991 0.12969 0.99456 0.0
H555 H 0.43485 0.08961 0.94744 0.0
H556 H 0.45426 0.01974 0.99864 0.0
H557 H 0.44107 0.04283 0.98963 0.0
C558 C 0.73869 0.15061 0.94765 0.0
C559 C 0.75148 0.16806 0.96154 0.0
C560 C 0.71828 0.13778 0.95091 0.0
C561 C 0.68458 0.12272 0.9923 0.0
H562 H 0.64131 0.10187 0.94873 0.0
C563 C 0.60097 0.07979 0.00873 0.0
C564 C 0.58735 0.06206 0.99548 0.0
C565 C 0.62074 0.09293 0.00389 0.0
C566 C 0.65324 0.10737 0.96103 0.0
H567 H 0.75347 0.18631 0.98931 0.0
H568 H 0.71789 0.1641 0.995 0.0
H569 H 0.67636 0.12429 0.94131 0.0
H570 H 0.5835 0.04422 0.9667 0.0
H571 H 0.61815 0.06696 0.95834 0.0
H572 H 0.66165 0.10576 0.01201 0.0
C573 C 0.72345 0.16004 0.98176 0.0
C574 C 0.67331 0.12022 0.95676 0.0
C575 C 0.74375 0.17282 0.97846 0.0
C576 C 0.59373 0.05782 0.97718 0.0
C577 C 0.61354 0.07092 0.97235 0.0
C578 C 0.66458 0.10986 0.99655 0.0
C579 C 0.71052 0.14222 0.96817 0.0
C580 C 0.68919 0.12816 0.97239 0.0
C581 C 0.62734 0.08856 0.98572 0.0
C582 C 0.64863 0.10212 0.981 0.0
H583 H 0.74451 0.14673 0.93451 0.0
H584 H 0.70873 0.1241 0.94023 0.0
H585 H 0.6965 0.12823 0.00462 0.0
H586 H 0.59637 0.08347 0.02288 0.0
H587 H 0.63084 0.10658 0.01437 0.0
C588 C 0.84774 0.59016 0.94444 0.0
C589 C 0.83267 0.58496 0.95778 0.0
C590 C 0.86039 0.58149 0.94594 0.0
C591 C 0.86419 0.53758 0.96713 0.0
H592 H 0.92198 0.57471 0.96622 0.0
C593 C 0.92266 0.51689 1.00001 0.0
C594 C 0.94016 0.52285 0.99002 0.0
C595 C 0.90889 0.5231 0.99355 0.0
C596 C 0.90586 0.56403 0.96618 0.0
H597 H 0.81859 0.56685 0.98289 0.0
H598 H 0.84072 0.55183 0.98573 0.0
H599 H 0.8991 0.58821 0.95932 0.0
H600 H 0.95685 0.53943 0.96516 0.0
H601 H 0.93268 0.55018 0.95372 0.0
H602 H 0.87096 0.5135 0.97436 0.0
C603 C 0.84273 0.56227 0.97394 0.0
C604 C 0.89274 0.57177 0.96222 0.0
C605 C 0.83017 0.57095 0.97245 0.0
C606 C 0.94348 0.53472 0.97318 0.0
C607 C 0.92971 0.54096 0.96671 0.0
C608 C 0.87729 0.52983 0.97108 0.0
C609 C 0.85803 0.56747 0.96075 0.0
C610 C 0.87179 0.55874 0.96302 0.0
C611 C 0.91235 0.5354 0.97696 0.0
C612 C 0.89831 0.54307 0.971 0.0
H613 H 0.84976 0.60093 0.93298 0.0
H614 H 0.87193 0.58566 0.93546 0.0
H615 H 0.84809 0.52702 0.96749 0.0
H616 H 0.91978 0.50777 0.01307 0.0
H617 H 0.89583 0.51879 0.00196 0.0
C618 C 0.42205 0.26819 0.97314 0.0
C619 C 0.43603 0.26242 0.96715 0.0
C620 C 0.42748 0.28953 0.97537 0.0
C621 C 0.47268 0.34222 0.98633 0.0
H622 H 0.43617 0.3625 0.97113 0.0
C623 C 0.49784 0.43105 0.99322 0.0
C624 C 0.48401 0.43689 0.9998 0.0
C625 C 0.4919 0.40975 0.98887 0.0
C626 C 0.44646 0.35704 0.97568 0.0
H627 H 0.46623 0.27377 0.95823 0.0
H628 H 0.47576 0.31115 0.96183 0.0
H629 H 0.4257 0.32535 0.96287 0.0
H630 H 0.45313 0.42479 0.00739 0.0
H631 H 0.44291 0.38765 1.00013 0.0
H632 H 0.49335 0.37377 0.99934 0.0
C633 C 0.4607 0.29935 0.96501 0.0
C634 C 0.44047 0.33576 0.97089 0.0
C635 C 0.45523 0.27802 0.96276 0.0
C636 C 0.46419 0.42089 0.00229 0.0
C637 C 0.45826 0.39958 0.99797 0.0
C638 C 0.47864 0.36345 0.99116 0.0
C639 C 0.44703 0.30538 0.97177 0.0
C640 C 0.45352 0.32811 0.97617 0.0
C641 C 0.472 0.39376 0.99104 0.0
C642 C 0.4656 0.37112 0.98593 0.0
H643 H 0.40722 0.25629 0.97682 0.0
H644 H 0.41667 0.29364 0.98077 0.0
H645 H 0.48295 0.33675 0.99098 0.0
H646 H 0.5132 0.44291 0.99101 0.0
H647 H 0.50281 0.40585 0.98334 0.0
C648 C 0.17116 0.7252 0.0703 0.0
C649 C 0.16861 0.74022 0.06034 0.0
C650 C 0.15528 0.70427 0.06932 0.0
C651 C 0.10002 0.66947 0.05606 0.0
H652 H 0.1146 0.62679 0.04323 0.0
C653 C 0.041 0.58359 0.02525 0.0
C654 C 0.04366 0.56717 0.03201 0.0
C655 C 0.05584 0.60474 0.03046 0.0
C656 C 0.11027 0.63844 0.04711 0.0
H657 H 0.14778 0.74582 0.04199 0.0
H658 H 0.11989 0.70918 0.04016 0.0
H659 H 0.141 0.66371 0.04999 0.0
H660 H 0.06389 0.56021 0.04994 0.0
H661 H 0.08961 0.59705 0.05916 0.0
H662 H 0.06923 0.64416 0.05295 0.0
C663 C 0.13397 0.71347 0.04896 0.0
C664 C 0.12542 0.65963 0.05101 0.0
C665 C 0.14989 0.73439 0.04994 0.0
C666 C 0.0614 0.57242 0.04431 0.0
C667 C 0.0762 0.59357 0.04955 0.0
C668 C 0.08484 0.64824 0.0522 0.0
C669 C 0.13663 0.69806 0.05828 0.0
C670 C 0.12048 0.67543 0.05538 0.0
C671 C 0.07367 0.61 0.04259 0.0
C672 C 0.08978 0.63249 0.04752 0.0
H673 H 0.1856 0.7295 0.07833 0.0
H674 H 0.15772 0.69286 0.07688 0.0
H675 H 0.09574 0.68124 0.05961 0.0
H676 H 0.02755 0.58014 0.01573 0.0
H677 H 0.05351 0.61698 0.02461 0.0
C678 C 0.26146 0.39972 0.04803 0.0
C679 C 0.25761 0.41131 0.06285 0.0
C680 C 0.28135 0.40533 0.04495 0.0
C681 C 0.33463 0.43666 0.06679 0.0
H682 H 0.34561 0.44127 0.01005 0.0
C683 C 0.41596 0.47994 0.04174 0.0
C684 C 0.41957 0.47134 0.02404 0.0
C685 C 0.39627 0.47165 0.04745 0.0
C686 C 0.34281 0.43977 0.02595 0.0
H687 H 0.27094 0.43724 0.08658 0.0
H688 H 0.30594 0.44713 0.08131 0.0
H689 H 0.31116 0.42762 0.0189 0.0
H690 H 0.40571 0.44712 0.99866 0.0
H691 H 0.37145 0.43234 0.00877 0.0
H692 H 0.36637 0.44883 0.07381 0.0
C693 C 0.29368 0.4336 0.07218 0.0
C694 C 0.32304 0.43194 0.03102 0.0
C695 C 0.27373 0.428 0.0752 0.0
C696 C 0.40328 0.45415 0.01229 0.0
C697 C 0.38365 0.44577 0.01805 0.0
C698 C 0.35447 0.44438 0.0617 0.0
C699 C 0.29769 0.42268 0.05662 0.0
C700 C 0.31871 0.43031 0.05148 0.0
C701 C 0.37986 0.45451 0.0356 0.0
C702 C 0.3588 0.44606 0.0412 0.0
H703 H 0.24913 0.38686 0.03828 0.0
H704 H 0.28397 0.39645 0.03304 0.0
H705 H 0.33172 0.43546 0.08268 0.0
H706 H 0.42831 0.4932 0.05107 0.0
H707 H 0.39389 0.47894 0.06091 0.0
C708 C 0.56719 0.84131 0.05309 0.0
C709 C 0.58744 0.84696 0.05193 0.0
C710 C 0.56103 0.85609 0.05011 0.0
C711 C 0.57589 0.90502 0.02511 0.0
H712 H 0.53444 0.90663 0.05503 0.0
C713 C 0.55042 0.96681 0.01491 0.0
C714 C 0.52958 0.95947 0.01478 0.0
C715 C 0.55814 0.95363 0.01962 0.0
C716 C 0.5459 0.90623 0.04641 0.0
H717 H 0.61733 0.87221 0.04723 0.0
H718 H 0.60674 0.89835 0.04237 0.0
H719 H 0.5471 0.88326 0.06424 0.0
H720 H 0.50047 0.93221 0.01893 0.0
H721 H 0.51391 0.90929 0.0269 0.0
H722 H 0.5746 0.92796 0.00723 0.0
C723 C 0.5955 0.88249 0.04534 0.0
C724 C 0.55318 0.89285 0.0517 0.0
C725 C 0.60163 0.86766 0.04831 0.0
C726 C 0.51661 0.93847 0.01895 0.0
C727 C 0.52433 0.92535 0.0237 0.0
C728 C 0.56864 0.91845 0.01984 0.0
C729 C 0.57505 0.87678 0.04585 0.0
C730 C 0.56814 0.89193 0.04101 0.0
C731 C 0.54521 0.93284 0.02437 0.0
C732 C 0.55341 0.91906 0.0303 0.0
H733 H 0.556 0.82528 0.05563 0.0
H734 H 0.54514 0.85105 0.05036 0.0
H735 H 0.58719 0.90448 0.01633 0.0
H736 H 0.56087 0.98289 0.0118 0.0
H737 H 0.57432 0.95992 0.0201 0.0
C738 C 0.93839 0.18613 0.39455 0.0
C739 C 0.93573 0.17512 0.41195 0.0
C740 C 0.95776 0.19981 0.38911 0.0
C741 C 0.01209 0.22933 0.40872 0.0
H742 H 0.01998 0.22916 0.35119 0.0
C743 C 0.0873 0.28906 0.37834 0.0
C744 C 0.09401 0.28171 0.36215 0.0
C745 C 0.06806 0.27629 0.38466 0.0
C746 C 0.01812 0.22928 0.36733 0.0
H747 H 0.95127 0.17001 0.4375 0.0
H748 H 0.98521 0.19368 0.42785 0.0
H749 H 0.98659 0.20649 0.36206 0.0
H750 H 0.0861 0.25528 0.33998 0.0
H751 H 0.05265 0.23275 0.35122 0.0
H752 H 0.0438 0.25162 0.414 0.0
C753 C 0.97232 0.19203 0.41856 0.0
C754 C 0.99887 0.21648 0.37357 0.0
C755 C 0.95289 0.17844 0.42409 0.0
C756 C 0.08121 0.26136 0.35242 0.0
C757 C 0.06201 0.24852 0.35881 0.0
C758 C 0.03139 0.24206 0.40248 0.0
C759 C 0.97499 0.2027 0.40085 0.0
C760 C 0.99557 0.21638 0.39433 0.0
C761 C 0.05517 0.25583 0.375 0.0
C762 C 0.03465 0.24222 0.3817 0.0
H763 H 0.92543 0.18413 0.38509 0.0
H764 H 0.95923 0.20813 0.37566 0.0
H765 H 0.01009 0.22981 0.42481 0.0
H766 H 0.0969 0.30473 0.38609 0.0
H767 H 0.06321 0.28258 0.39695 0.0
C768 C 0.82109 0.74704 0.40007 0.0
C769 C 0.83362 0.7546 0.41852 0.0
C770 C 0.80834 0.75484 0.39467 0.0
C771 C 0.78085 0.77927 0.41481 0.0
H772 H 0.78292 0.79875 0.36104 0.0
C773 C 0.73341 0.81676 0.3882 0.0
C774 C 0.72538 0.81192 0.36774 0.0
C775 C 0.74733 0.81086 0.39511 0.0
C776 C 0.7819 0.79311 0.376 0.0
H777 H 0.84222 0.77619 0.44587 0.0
H778 H 0.81934 0.78925 0.43663 0.0
H779 H 0.80532 0.78575 0.37185 0.0
H780 H 0.7252 0.7969 0.33851 0.0
H781 H 0.74881 0.78592 0.35058 0.0
H782 H 0.75694 0.78588 0.41878 0.0
C783 C 0.81961 0.77735 0.42637 0.0
C784 C 0.79483 0.78577 0.3822 0.0
C785 C 0.83263 0.76979 0.43167 0.0
C786 C 0.73133 0.80098 0.35434 0.0
C787 C 0.745 0.79484 0.36126 0.0
C788 C 0.76766 0.78633 0.4085 0.0
C789 C 0.80755 0.77013 0.40771 0.0
C790 C 0.79432 0.77864 0.40159 0.0
C791 C 0.75329 0.79978 0.38171 0.0
C792 C 0.7679 0.79317 0.38892 0.0
H793 H 0.82102 0.73498 0.38978 0.0
H794 H 0.79894 0.74878 0.38032 0.0
H795 H 0.7801 0.77373 0.4298 0.0
H796 H 0.72905 0.82524 0.39882 0.0
H797 H 0.75356 0.81518 0.41088 0.0
C798 C 0.24337 0.06884 0.38513 0.0
C799 C 0.23519 0.07443 0.40124 0.0
C800 C 0.23518 0.04765 0.37776 0.0
C801 C 0.20391 0.99331 0.39271 0.0
H802 H 0.20165 0.97741 0.33523 0.0
C803 C 0.16657 0.90606 0.35952 0.0
C804 C 0.17772 0.90133 0.34611 0.0
C805 C 0.1724 0.92706 0.36556 0.0
C806 C 0.20229 0.98164 0.35134 0.0
H807 H 0.21163 0.06228 0.42185 0.0
H808 H 0.19709 0.0253 0.4088 0.0
H809 H 0.21372 0.01428 0.34696 0.0
H810 H 0.20352 0.91502 0.32822 0.0
H811 H 0.2136 0.95163 0.33871 0.0
H812 H 0.19243 0.96063 0.39704 0.0
C813 C 0.21013 0.03722 0.40214 0.0
C814 C 0.20925 0.00277 0.35809 0.0
C815 C 0.21841 0.05841 0.40959 0.0
C816 C 0.19459 0.91808 0.33858 0.0
C817 C 0.20032 0.93908 0.34449 0.0
C818 C 0.19683 0.97217 0.38594 0.0
C819 C 0.21853 0.03154 0.38624 0.0
C820 C 0.21031 0.00891 0.37889 0.0
C821 C 0.1894 0.9438 0.3582 0.0
C822 C 0.1961 0.96612 0.36521 0.0
H823 H 0.25648 0.08081 0.37858 0.0
H824 H 0.24227 0.04387 0.36575 0.0
H825 H 0.20483 0.99748 0.40888 0.0
H826 H 0.15352 0.89355 0.36567 0.0
H827 H 0.16358 0.93022 0.376 0.0
C828 C 0.50149 0.61621 0.27647 0.0
C829 C 0.50337 0.59987 0.28457 0.0
C830 C 0.51442 0.63726 0.28414 0.0
C831 C 0.55192 0.67126 0.32772 0.0
H832 H 0.57111 0.71297 0.28834 0.0
C833 C 0.6217 0.75582 0.34415 0.0
C834 C 0.61988 0.77247 0.33666 0.0
C835 C 0.60631 0.7348 0.3393 0.0
C836 C 0.56571 0.70156 0.29956 0.0
H837 H 0.5201 0.59266 0.30715 0.0
H838 H 0.54302 0.62941 0.32025 0.0
H839 H 0.5465 0.67628 0.27701 0.0
H840 H 0.6002 0.78006 0.31856 0.0
H841 H 0.5735 0.74344 0.31007 0.0
H842 H 0.57176 0.69667 0.35014 0.0
C843 C 0.53127 0.62602 0.3083 0.0
C844 C 0.55153 0.6805 0.29309 0.0
C845 C 0.51818 0.60494 0.30077 0.0
C846 C 0.60213 0.76765 0.32462 0.0
C847 C 0.58686 0.74666 0.31963 0.0
C848 C 0.56629 0.69234 0.33416 0.0
C849 C 0.52972 0.64249 0.29993 0.0
C850 C 0.54444 0.66504 0.30706 0.0
C851 C 0.58889 0.73 0.32669 0.0
C852 C 0.57332 0.7077 0.32013 0.0
H853 H 0.49002 0.6127 0.26415 0.0
H854 H 0.51245 0.64944 0.2776 0.0
H855 H 0.54661 0.65988 0.33897 0.0
H856 H 0.63515 0.75897 0.35348 0.0
H857 H 0.60835 0.72227 0.34486 0.0
C858 C 0.38747 0.89358 0.27458 0.0
C859 C 0.39864 0.91168 0.26429 0.0
C860 C 0.36791 0.88764 0.27923 0.0
C861 C 0.32346 0.89157 0.26456 0.0
H862 H 0.31124 0.87978 0.32024 0.0
C863 C 0.24748 0.87528 0.29372 0.0
C864 C 0.23945 0.86048 0.30814 0.0
C865 C 0.26674 0.88163 0.28764 0.0
C866 C 0.31425 0.88268 0.30455 0.0
H867 H 0.39776 0.9375 0.25049 0.0
H868 H 0.36322 0.92669 0.25822 0.0
H869 H 0.34507 0.8906 0.31074 0.0
H870 H 0.24473 0.8401 0.32701 0.0
H871 H 0.27801 0.85055 0.31595 0.0
H872 H 0.29251 0.88315 0.25819 0.0
C873 C 0.3698 0.91724 0.26271 0.0
C874 C 0.33368 0.88899 0.29916 0.0
C875 C 0.38952 0.92336 0.25825 0.0
C876 C 0.25069 0.85169 0.31599 0.0
C877 C 0.26982 0.85783 0.30976 0.0
C878 C 0.3039 0.88499 0.26989 0.0
C879 C 0.35894 0.89947 0.27346 0.0
C880 C 0.33844 0.8934 0.27911 0.0
C881 C 0.27823 0.8731 0.29573 0.0
C882 C 0.29904 0.88036 0.28994 0.0
H883 H 0.3938 0.8839 0.279 0.0
H884 H 0.35971 0.87367 0.28724 0.0
H885 H 0.32675 0.89474 0.24895 0.0
H886 H 0.23906 0.8823 0.28747 0.0
H887 H 0.2728 0.89358 0.27699 0.0
C888 C 0.09588 0.48438 0.30255 0.0
C889 C 0.10236 0.49395 0.28446 0.0
C890 C 0.10092 0.46948 0.30873 0.0
C891 C 0.12211 0.43586 0.29028 0.0
H892 H 0.13336 0.43501 0.34814 0.0
C893 C 0.16603 0.39715 0.32272 0.0
C894 C 0.15609 0.38201 0.33649 0.0
C895 C 0.15864 0.41024 0.31675 0.0
C896 C 0.13013 0.43502 0.33195 0.0
H897 H 0.11917 0.49559 0.25866 0.0
H898 H 0.12873 0.47033 0.26973 0.0
H899 H 0.12188 0.45871 0.33663 0.0
H900 H 0.13097 0.36914 0.35526 0.0
H901 H 0.11844 0.39265 0.34526 0.0
H902 H 0.13134 0.41282 0.28576 0.0
C903 C 0.11916 0.47363 0.2789 0.0
C904 C 0.12341 0.44849 0.3253 0.0
C905 C 0.11378 0.48821 0.27255 0.0
C906 C 0.13893 0.38066 0.34462 0.0
C907 C 0.13179 0.39409 0.33895 0.0
C908 C 0.12921 0.42274 0.29694 0.0
C909 C 0.11291 0.46412 0.29716 0.0
C910 C 0.11937 0.44918 0.30434 0.0
C911 C 0.14141 0.40876 0.32472 0.0
C912 C 0.13335 0.42226 0.31782 0.0
H913 H 0.08692 0.48847 0.31192 0.0
H914 H 0.0954 0.46221 0.32261 0.0
H915 H 0.11873 0.43548 0.27408 0.0
H916 H 0.1792 0.39849 0.31606 0.0
H917 H 0.16639 0.42153 0.30585 0.0
C918 C 0.40651 0.47826 0.28438 0.0
C919 C 0.41816 0.49861 0.29444 0.0
C920 C 0.38621 0.4656 0.28801 0.0
C921 C 0.35143 0.45882 0.32712 0.0
H922 H 0.3093 0.42393 0.28404 0.0
C923 C 0.26727 0.41316 0.34201 0.0
C924 C 0.25532 0.39266 0.33227 0.0
C925 C 0.28693 0.42626 0.33683 0.0
C926 C 0.32093 0.4334 0.29628 0.0
H927 H 0.41819 0.5221 0.31573 0.0
H928 H 0.38269 0.50014 0.32203 0.0
H929 H 0.34393 0.44658 0.27565 0.0
H930 H 0.25437 0.36971 0.30946 0.0
H931 H 0.28884 0.39242 0.30063 0.0
H932 H 0.3286 0.44556 0.34778 0.0
C933 C 0.38911 0.49377 0.31152 0.0
C934 C 0.34077 0.4464 0.29146 0.0
C935 C 0.40934 0.50639 0.30783 0.0
C936 C 0.2633 0.38548 0.31721 0.0
C937 C 0.28298 0.39855 0.31205 0.0
C938 C 0.33165 0.4458 0.33194 0.0
C939 C 0.37737 0.47312 0.30187 0.0
C940 C 0.35623 0.4593 0.30683 0.0
C941 C 0.29506 0.4191 0.32183 0.0
C942 C 0.31613 0.43295 0.31659 0.0
H943 H 0.41319 0.472 0.27406 0.0
H944 H 0.37763 0.44972 0.28047 0.0
H945 H 0.36307 0.46827 0.33937 0.0
H946 H 0.26141 0.41912 0.3536 0.0
H947 H 0.29567 0.4421 0.34445 0.0
C948 C 0.50013 0.90154 0.26898 0.0
C949 C 0.49876 0.91501 0.28388 0.0
C950 C 0.51521 0.89613 0.27157 0.0
C951 C 0.5436 0.88879 0.31292 0.0
H952 H 0.57859 0.88826 0.2729 0.0
C953 C 0.60793 0.87347 0.33523 0.0
C954 C 0.61228 0.86144 0.32138 0.0
C955 C 0.59445 0.88016 0.32927 0.0
C956 C 0.56871 0.88803 0.28413 0.0
H957 H 0.51204 0.93411 0.31261 0.0
H958 H 0.53841 0.92473 0.31722 0.0
H959 H 0.55483 0.90052 0.26435 0.0
H960 H 0.60617 0.84699 0.29041 0.0
H961 H 0.58194 0.85812 0.28003 0.0
H962 H 0.55683 0.87588 0.33256 0.0
C963 C 0.52794 0.91829 0.30359 0.0
C964 C 0.55521 0.89514 0.27925 0.0
C965 C 0.513 0.92377 0.30091 0.0
C966 C 0.603 0.85625 0.30137 0.0
C967 C 0.58926 0.86276 0.29542 0.0
C968 C 0.55683 0.88148 0.3177 0.0
C969 C 0.52884 0.90396 0.28924 0.0
C970 C 0.54279 0.89591 0.29376 0.0
C971 C 0.58474 0.8747 0.30937 0.0
C972 C 0.56983 0.88134 0.30353 0.0
H973 H 0.48905 0.8945 0.25583 0.0
H974 H 0.51554 0.88498 0.26035 0.0
H975 H 0.53383 0.88873 0.32422 0.0
H976 H 0.61508 0.8779 0.3507 0.0
H977 H 0.59177 0.88977 0.34029 0.0
C978 C 0.12772 0.61775 0.28732 0.0
C979 C 0.11097 0.60224 0.29599 0.0
C980 C 0.13146 0.63853 0.28803 0.0
C981 C 0.1082 0.6718 0.29762 0.0
H982 H 0.1636 0.71589 0.31376 0.0
C983 C 0.12951 0.7569 0.32653 0.0
C984 C 0.14731 0.77374 0.32044 0.0
C985 C 0.12474 0.73596 0.322 0.0
C986 C 0.1481 0.70383 0.30896 0.0
H987 H 0.08474 0.59564 0.31178 0.0
H988 H 0.0912 0.63199 0.31314 0.0
H989 H 0.15558 0.67931 0.30785 0.0
H990 H 0.17392 0.78167 0.30451 0.0
H991 H 0.1655 0.74517 0.29651 0.0
H992 H 0.1007 0.69635 0.29897 0.0
C993 C 0.10134 0.62822 0.30555 0.0
C994 C 0.1435 0.68284 0.30554 0.0
C995 C 0.09765 0.60745 0.30484 0.0
C996 C 0.16015 0.76912 0.30958 0.0
C997 C 0.15537 0.74818 0.30505 0.0
C998 C 0.1128 0.69282 0.30102 0.0
C999 C 0.11852 0.6441 0.29749 0.0
C1000 C 0.12347 0.66654 0.29997 0.0
C1001 C 0.13764 0.73134 0.31125 0.0
C1002 C 0.13279 0.70907 0.30688 0.0
H1003 H 0.13821 0.61395 0.28051 0.0
H1004 H 0.14465 0.65031 0.28144 0.0
H1005 H 0.09266 0.65967 0.29309 0.0
H1006 H 0.11927 0.75984 0.33494 0.0
H1007 H 0.1111 0.72339 0.32725 0.0
C1008 C 0.81692 0.06757 0.38146 0.0
C1009 C 0.83597 0.07365 0.39118 0.0
C1010 C 0.80203 0.04618 0.37841 0.0
C1011 C 0.79696 0.9934 0.37315 0.0
H1012 H 0.74003 0.97375 0.37676 0.0
C1013 C 0.73507 0.90472 0.36154 0.0
C1014 C 0.71665 0.8996 0.35068 0.0
C1015 C 0.74987 0.92585 0.36703 0.0
C1016 C 0.75586 0.97903 0.37548 0.0
H1017 H 0.85463 0.06279 0.40581 0.0
H1018 H 0.82851 0.02527 0.40079 0.0
H1019 H 0.76501 0.01079 0.3867 0.0
H1020 H 0.69963 0.91278 0.33658 0.0
H1021 H 0.72553 0.94952 0.34588 0.0
H1022 H 0.78778 0.96167 0.36177 0.0
C1023 C 0.82503 0.03688 0.39532 0.0
C1024 C 0.77017 1.00025 0.38122 0.0
C1025 C 0.83989 0.0583 0.39838 0.0
C1026 C 0.7136 0.9161 0.345 0.0
C1027 C 0.72838 0.9372 0.35048 0.0
C1028 C 0.78263 0.97217 0.36741 0.0
C1029 C 0.80605 0.03054 0.38495 0.0
C1030 C 0.79088 0.00773 0.37998 0.0
C1031 C 0.74658 0.94233 0.36179 0.0
C1032 C 0.7619 0.96478 0.36834 0.0
H1033 H 0.81377 0.07928 0.37559 0.0
H1034 H 0.78769 0.04185 0.37016 0.0
H1035 H 0.81276 0.9987 0.37169 0.0
H1036 H 0.7379 0.89242 0.36628 0.0
H1037 H 0.76366 0.92925 0.37587 0.0
C1038 C 0.9306 0.76186 0.38028 0.0
C1039 C 0.92243 0.74892 0.39603 0.0
C1040 C 0.95118 0.77105 0.37777 0.0
C1041 C 0.99507 0.76439 0.38923 0.0
H1042 H 0.02488 0.82117 0.37235 0.0
C1043 C 0.07965 0.80364 0.37561 0.0
C1044 C 0.08501 0.814 0.35776 0.0
C1045 C 0.0606 0.79704 0.38236 0.0
C1046 C 0.01672 0.80525 0.37694 0.0
H1047 H 0.92882 0.73539 0.42175 0.0
H1048 H 0.96511 0.75164 0.41753 0.0
H1049 H 0.99012 0.8072 0.38076 0.0
H1050 H 0.07498 0.82597 0.33314 0.0
H1051 H 0.0416 0.81433 0.3448 0.0
H1052 H 0.02158 0.76234 0.38512 0.0
C1053 C 0.95564 0.75456 0.40697 0.0
C1054 C 0.99682 0.79725 0.38177 0.0
C1055 C 0.93498 0.74536 0.40946 0.0
C1056 C 0.07119 0.81803 0.34697 0.0
C1057 C 0.05215 0.81147 0.35373 0.0
C1058 C 0.015 0.77242 0.38443 0.0
C1059 C 0.96394 0.76746 0.39102 0.0
C1060 C 0.98565 0.7766 0.38764 0.0
C1061 C 0.04657 0.80074 0.3714 0.0
C1062 C 0.02594 0.79282 0.37793 0.0
H1063 H 0.92102 0.76466 0.36973 0.0
H1064 H 0.95698 0.78058 0.36513 0.0
H1065 H 0.98681 0.74834 0.39346 0.0
H1066 H 0.09011 0.80044 0.38426 0.0
H1067 H 0.05684 0.78905 0.39617 0.0
C1068 C 0.23775 0.17421 0.36933 0.0
C1069 C 0.24966 0.17736 0.38745 0.0
C1070 C 0.23015 0.18767 0.36564 0.0
C1071 C 0.23913 0.24112 0.38072 0.0
H1072 H 0.18525 0.21879 0.35368 0.0
C1073 C 0.21187 0.29558 0.34925 0.0
C1074 C 0.192 0.29062 0.35228 0.0
C1075 C 0.21852 0.28144 0.35356 0.0
C1076 C 0.20027 0.22528 0.36138 0.0
H1077 H 0.26299 0.19655 0.41612 0.0
H1078 H 0.24951 0.22014 0.40988 0.0
H1079 H 0.19714 0.19463 0.36226 0.0
H1080 H 0.16344 0.26665 0.36193 0.0
H1081 H 0.17509 0.24212 0.36958 0.0
H1082 H 0.24213 0.27175 0.38015 0.0
C1083 C 0.24619 0.20746 0.39836 0.0
C1084 C 0.20718 0.21144 0.36611 0.0
C1085 C 0.2538 0.19395 0.40202 0.0
C1086 C 0.17883 0.27099 0.35935 0.0
C1087 C 0.18549 0.25686 0.36367 0.0
C1088 C 0.23222 0.25496 0.37599 0.0
C1089 C 0.23435 0.20453 0.38006 0.0
C1090 C 0.22673 0.2192 0.37575 0.0
C1091 C 0.20547 0.26199 0.36101 0.0
C1092 C 0.21274 0.24722 0.36617 0.0
H1093 H 0.23452 0.16149 0.35787 0.0
H1094 H 0.22136 0.18513 0.35128 0.0
H1095 H 0.25434 0.24766 0.38796 0.0
H1096 H 0.22241 0.3105 0.34373 0.0
H1097 H 0.23389 0.28573 0.35099 0.0
C1098 C 0.60952 0.51423 0.72948 0.0
C1099 C 0.60507 0.51109 0.74984 0.0
C1100 C 0.62934 0.52732 0.72484 0.0
C1101 C 0.67903 0.57121 0.74482 0.0
H1102 H 0.69893 0.54769 0.70423 0.0
C1103 C 0.76229 0.61625 0.72557 0.0
C1104 C 0.76572 0.61474 0.70504 0.0
C1105 C 0.7431 0.60331 0.73198 0.0
C1106 C 0.69358 0.55466 0.71539 0.0
H1107 H 0.61808 0.51991 0.78131 0.0
H1108 H 0.65267 0.5433 0.77313 0.0
H1109 H 0.66446 0.5266 0.71336 0.0
H1110 H 0.75198 0.5987 0.67509 0.0
H1111 H 0.71842 0.57665 0.68601 0.0
H1112 H 0.70789 0.59951 0.74647 0.0
C1113 C 0.64071 0.53544 0.76082 0.0
C1114 C 0.67383 0.54252 0.72066 0.0
C1115 C 0.62088 0.52212 0.76548 0.0
C1116 C 0.74975 0.60004 0.69105 0.0
C1117 C 0.73053 0.58731 0.69738 0.0
C1118 C 0.69874 0.58351 0.73935 0.0
C1119 C 0.64517 0.53783 0.74044 0.0
C1120 C 0.66631 0.5507 0.73531 0.0
C1121 C 0.72691 0.58877 0.71792 0.0
C1122 C 0.70624 0.57544 0.72445 0.0
H1123 H 0.59768 0.5064 0.71706 0.0
H1124 H 0.63231 0.52918 0.709 0.0
H1125 H 0.67355 0.57793 0.75609 0.0
H1126 H 0.77443 0.62744 0.73667 0.0
H1127 H 0.741 0.60466 0.74796 0.0
C1128 C 0.50575 0.10331 0.73454 0.0
C1129 C 0.50096 0.08765 0.7481 0.0
C1130 C 0.49273 0.11112 0.7304 0.0
C1131 C 0.4512 0.11632 0.75024 0.0
H1132 H 0.4397 0.12247 0.69388 0.0
C1133 C 0.38792 0.13371 0.72383 0.0
C1134 C 0.39174 0.14712 0.70819 0.0
C1135 C 0.40166 0.12718 0.72958 0.0
C1136 C 0.44295 0.12116 0.70974 0.0
H1137 H 0.47866 0.06797 0.76799 0.0
H1138 H 0.45603 0.08178 0.76089 0.0
H1139 H 0.46293 0.10983 0.70229 0.0
H1140 H 0.4131 0.16481 0.68675 0.0
H1141 H 0.43727 0.15382 0.69702 0.0
H1142 H 0.43126 0.12775 0.75769 0.0
C1143 C 0.46997 0.08812 0.7536 0.0
C1144 C 0.45625 0.11386 0.71454 0.0
C1145 C 0.48296 0.08023 0.75767 0.0
C1146 C 0.40973 0.15434 0.69877 0.0
C1147 C 0.4235 0.14791 0.70456 0.0
C1148 C 0.43794 0.12373 0.74544 0.0
C1149 C 0.47465 0.10353 0.73979 0.0
C1150 C 0.46054 0.11137 0.73483 0.0
C1151 C 0.41951 0.13401 0.71984 0.0
C1152 C 0.43368 0.12626 0.72512 0.0
H1153 H 0.51967 0.10968 0.7272 0.0
H1154 H 0.49691 0.12324 0.71994 0.0
H1155 H 0.45437 0.11477 0.76604 0.0
H1156 H 0.37412 0.12792 0.73131 0.0
H1157 H 0.39801 0.11632 0.74126 0.0
C1158 C 0.88612 0.38735 0.74748 0.0
C1159 C 0.90136 0.4039 0.738 0.0
C1160 C 0.87921 0.36628 0.74058 0.0
C1161 C 0.87881 0.33228 0.69638 0.0
H1162 H 0.86595 0.29142 0.73627 0.0
C1163 C 0.86555 0.24789 0.67736 0.0
C1164 C 0.84889 0.23128 0.68533 0.0
C1165 C 0.87147 0.26895 0.68325 0.0
C1166 C 0.86931 0.30262 0.72494 0.0
H1167 H 0.92141 0.41141 0.71397 0.0
H1168 H 0.9097 0.37466 0.70217 0.0
H1169 H 0.87733 0.32816 0.74758 0.0
H1170 H 0.82541 0.2238 0.70575 0.0
H1171 H 0.83588 0.26056 0.71609 0.0
H1172 H 0.87118 0.30666 0.67381 0.0
C1173 C 0.9027 0.37788 0.71462 0.0
C1174 C 0.87577 0.32368 0.7314 0.0
C1175 C 0.90947 0.39896 0.72141 0.0
C1176 C 0.83826 0.2362 0.69925 0.0
C1177 C 0.84432 0.25725 0.7053 0.0
C1178 C 0.87253 0.31124 0.68995 0.0
C1179 C 0.88752 0.36126 0.72416 0.0
C1180 C 0.88057 0.33879 0.71721 0.0
C1181 C 0.86101 0.27385 0.6974 0.0
C1182 C 0.86767 0.29618 0.70416 0.0
H1183 H 0.87942 0.39072 0.76013 0.0
H1184 H 0.86722 0.35394 0.74804 0.0
H1185 H 0.88204 0.34337 0.68499 0.0
H1186 H 0.87405 0.24464 0.66659 0.0
H1187 H 0.88449 0.28143 0.67703 0.0
C1188 C 0.17106 0.9504 0.60311 0.0
C1189 C 0.17175 0.93373 0.61197 0.0
C1190 C 0.18435 0.97139 0.61074 0.0
C1191 C 0.21973 0.0047 0.65572 0.0
H1192 H 0.24266 0.04652 0.6168 0.0
C1193 C 0.28869 0.08882 0.67659 0.0
C1194 C 0.2876 0.10567 0.66857 0.0
C1195 C 0.27384 0.06786 0.67042 0.0
C1196 C 0.23623 0.03507 0.62787 0.0
H1197 H 0.18687 0.92595 0.6358 0.0
H1198 H 0.21033 0.96256 0.64894 0.0
H1199 H 0.21809 0.00997 0.60472 0.0
H1200 H 0.26997 0.11366 0.6478 0.0
H1201 H 0.24418 0.07712 0.63703 0.0
H1202 H 0.23831 0.02987 0.67882 0.0
C1203 C 0.19924 0.95947 0.63636 0.0
C1204 C 0.22208 0.0141 0.62097 0.0
C1205 C 0.18582 0.93847 0.62882 0.0
C1206 C 0.27126 0.10109 0.65435 0.0
C1207 C 0.25654 0.08014 0.64806 0.0
C1208 C 0.23401 0.02566 0.66261 0.0
C1209 C 0.19879 0.97622 0.62732 0.0
C1210 C 0.21363 0.99862 0.6348 0.0
C1211 C 0.25771 0.0633 0.65595 0.0
C1212 C 0.2424 0.04107 0.64875 0.0
H1213 H 0.16018 0.9472 0.59028 0.0
H1214 H 0.18327 0.98383 0.60365 0.0
H1215 H 0.21332 0.9933 0.66684 0.0
H1216 H 0.30106 0.09179 0.68757 0.0
H1217 H 0.27524 0.05521 0.67664 0.0
C1218 C 0.06047 0.22978 0.61574 0.0
C1219 C 0.06962 0.24649 0.60328 0.0
C1220 C 0.0405 0.22201 0.62019 0.0
C1221 C 0.99253 0.21874 0.60277 0.0
H1222 H 0.98151 0.21094 0.65927 0.0
C1223 C 0.91631 0.20215 0.63134 0.0
C1224 C 0.90885 0.18859 0.64686 0.0
C1225 C 0.93554 0.20838 0.62519 0.0
C1226 C 0.98421 0.21268 0.64337 0.0
H1227 H 0.06471 0.26789 0.58551 0.0
H1228 H 0.02966 0.25402 0.59305 0.0
H1229 H 0.01564 0.22317 0.64987 0.0
H1230 H 0.9152 0.17035 0.66773 0.0
H1231 H 0.94853 0.18073 0.65669 0.0
H1232 H 0.96105 0.20806 0.5962 0.0
C1233 C 0.03803 0.24695 0.5993 0.0
C1234 C 0.00381 0.21976 0.63801 0.0
C1235 C 0.05809 0.25486 0.59496 0.0
C1236 C 0.92069 0.18095 0.65581 0.0
C1237 C 0.93984 0.18703 0.64957 0.0
C1238 C 0.97285 0.21148 0.6081 0.0
C1239 C 0.02911 0.23061 0.61216 0.0
C1240 C 0.00819 0.2229 0.61767 0.0
C1241 C 0.94762 0.20104 0.63436 0.0
C1242 C 0.96845 0.20839 0.62849 0.0
H1243 H 0.06874 0.22264 0.62205 0.0
H1244 H 0.03392 0.20916 0.62987 0.0
H1245 H 0.99544 0.22082 0.58694 0.0
H1246 H 0.90746 0.20828 0.62421 0.0
H1247 H 0.9411 0.21938 0.61362 0.0
C1248 C 0.78296 0.82421 0.60458 0.0
C1249 C 0.76918 0.82727 0.61536 0.0
C1250 C 0.78927 0.81031 0.61084 0.0
C1251 C 0.79188 0.78287 0.65569 0.0
H1252 H 0.80201 0.74935 0.61567 0.0
C1253 C 0.80749 0.71603 0.67613 0.0
C1254 C 0.82373 0.71588 0.66733 0.0
C1255 C 0.80073 0.72962 0.66999 0.0
C1256 C 0.79938 0.75873 0.62701 0.0
H1257 H 0.75074 0.81778 0.64075 0.0
H1258 H 0.76132 0.79313 0.65142 0.0
H1259 H 0.78991 0.77257 0.60433 0.0
H1260 H 0.84547 0.72974 0.64503 0.0
H1261 H 0.83356 0.75331 0.63426 0.0
H1262 H 0.80105 0.76866 0.67834 0.0
C1263 C 0.76773 0.80186 0.63847 0.0
C1264 C 0.7925 0.7721 0.62054 0.0
C1265 C 0.76159 0.81592 0.63232 0.0
C1266 C 0.83303 0.72957 0.65224 0.0
C1267 C 0.82611 0.74295 0.64593 0.0
C1268 C 0.79856 0.76933 0.66215 0.0
C1269 C 0.78178 0.79899 0.6279 0.0
C1270 C 0.78875 0.78443 0.63479 0.0
C1271 C 0.80989 0.7431 0.65472 0.0
C1272 C 0.80248 0.75722 0.64788 0.0
H1273 H 0.78924 0.83296 0.59158 0.0
H1274 H 0.80035 0.8088 0.60252 0.0
H1275 H 0.78951 0.79238 0.66712 0.0
H1276 H 0.8 0.70566 0.68778 0.0
H1277 H 0.78809 0.72929 0.67692 0.0
C1278 C 0.07094 0.81586 0.61111 0.0
C1279 C 0.08357 0.83534 0.62243 0.0
C1280 C 0.05042 0.80415 0.61432 0.0
C1281 C 0.01604 0.79722 0.65384 0.0
H1282 H 0.97361 0.76661 0.60983 0.0
C1283 C 0.9321 0.75204 0.66917 0.0
C1284 C 0.92007 0.7319 0.65871 0.0
C1285 C 0.9515 0.76566 0.66365 0.0
C1286 C 0.98531 0.77492 0.6223 0.0
H1287 H 0.08515 0.85833 0.64551 0.0
H1288 H 0.04929 0.83804 0.6511 0.0
H1289 H 0.0086 0.78851 0.60202 0.0
H1290 H 0.91854 0.71031 0.634 0.0
H1291 H 0.95252 0.73392 0.62452 0.0
H1292 H 0.99295 0.78344 0.67415 0.0
C1293 C 0.05509 0.8316 0.63992 0.0
C1294 C 0.00534 0.78748 0.61782 0.0
C1295 C 0.07554 0.84327 0.63665 0.0
C1296 C 0.92754 0.72578 0.64232 0.0
C1297 C 0.94696 0.73937 0.63682 0.0
C1298 C 0.99606 0.78464 0.65832 0.0
C1299 C 0.04234 0.81176 0.629 0.0
C1300 C 0.02094 0.79874 0.63355 0.0
C1301 C 0.95928 0.75938 0.64759 0.0
C1302 C 0.98044 0.77329 0.64263 0.0
H1303 H 0.07699 0.8095 0.60012 0.0
H1304 H 0.04105 0.78886 0.6058 0.0
H1305 H 0.02774 0.80537 0.66634 0.0
H1306 H 0.92663 0.75717 0.6818 0.0
H1307 H 0.96043 0.78109 0.67204 0.0
C1308 C 0.1631 0.23602 0.63883 0.0
C1309 C 0.16655 0.25201 0.6262 0.0
C1310 C 0.17606 0.22779 0.63981 0.0
C1311 C 0.228 0.24105 0.6312 0.0
H1312 H 0.20692 0.18152 0.63764 0.0
C1313 C 0.28 0.20514 0.64095 0.0
C1314 C 0.27594 0.19201 0.65687 0.0
C1315 C 0.26628 0.21147 0.63451 0.0
C1316 C 0.21304 0.1982 0.63593 0.0
H1317 H 0.18577 0.27198 0.60445 0.0
H1318 H 0.2086 0.25746 0.60595 0.0
H1319 H 0.18356 0.19444 0.63086 0.0
H1320 H 0.25431 0.1748 0.67827 0.0
H1321 H 0.23035 0.18582 0.66707 0.0
H1322 H 0.2575 0.24481 0.63656 0.0
C1323 C 0.196 0.25138 0.61527 0.0
C1324 C 0.19966 0.20561 0.63206 0.0
C1325 C 0.18296 0.25961 0.61431 0.0
C1326 C 0.25778 0.18492 0.66594 0.0
C1327 C 0.24402 0.19114 0.65944 0.0
C1328 C 0.24139 0.23361 0.635 0.0
C1329 C 0.19274 0.23542 0.62812 0.0
C1330 C 0.20697 0.22721 0.63008 0.0
C1331 C 0.2482 0.20464 0.64378 0.0
C1332 C 0.23405 0.21217 0.63781 0.0
H1333 H 0.1505 0.23006 0.64817 0.0
H1334 H 0.17329 0.21581 0.65013 0.0
H1335 H 0.23415 0.25781 0.62997 0.0
H1336 H 0.2939 0.21076 0.63367 0.0
H1337 H 0.26983 0.22172 0.62229 0.0
C1338 C 0.75345 0.93471 0.63752 0.0
C1339 C 0.76591 0.9281 0.6289 0.0
C1340 C 0.75889 0.95604 0.63858 0.0
C1341 C 0.80398 0.00899 0.64028 0.0
H1342 H 0.76463 0.02728 0.63323 0.0
C1343 C 0.82687 0.09743 0.64722 0.0
C1344 C 0.81444 0.1028 0.65791 0.0
C1345 C 0.8209 0.07622 0.64202 0.0
C1346 C 0.77578 0.02241 0.63541 0.0
H1347 H 0.79338 0.93793 0.61421 0.0
H1348 H 0.80289 0.97531 0.61577 0.0
H1349 H 0.75394 0.98993 0.62631 0.0
H1350 H 0.78594 0.08999 0.67153 0.0
H1351 H 0.7757 0.05313 0.6627 0.0
H1352 H 0.82575 0.04139 0.64968 0.0
C1353 C 0.78903 0.96418 0.6219 0.0
C1354 C 0.76965 0.00101 0.63142 0.0
C1355 C 0.78355 0.94282 0.62083 0.0
C1356 C 0.7959 0.08647 0.66327 0.0
C1357 C 0.78994 0.0653 0.65806 0.0
C1358 C 0.8101 0.03038 0.64429 0.0
C1359 C 0.77694 0.9711 0.63112 0.0
C1360 C 0.78364 0.99401 0.634 0.0
C1361 C 0.80234 0.0599 0.64736 0.0
C1362 C 0.79603 0.03732 0.64211 0.0
H1363 H 0.73986 0.92352 0.64401 0.0
H1364 H 0.74936 0.96085 0.64599 0.0
H1365 H 0.81509 0.0041 0.64275 0.0
H1366 H 0.84119 0.10958 0.64273 0.0
H1367 H 0.83071 0.07261 0.63358 0.0
C1368 C 0.50809 0.38791 0.74689 0.0
C1369 C 0.50713 0.40404 0.73735 0.0
C1370 C 0.49161 0.36726 0.74432 0.0
C1371 C 0.43703 0.3346 0.7265 0.0
H1372 H 0.4511 0.29165 0.71293 0.0
C1373 C 0.3779 0.25028 0.69114 0.0
C1374 C 0.37971 0.2333 0.69773 0.0
C1375 C 0.39297 0.27118 0.69717 0.0
C1376 C 0.44687 0.30335 0.71697 0.0
H1377 H 0.48844 0.41188 0.71821 0.0
H1378 H 0.45948 0.37575 0.71367 0.0
H1379 H 0.47778 0.32799 0.72247 0.0
H1380 H 0.39871 0.22505 0.71611 0.0
H1381 H 0.42478 0.26139 0.72675 0.0
H1382 H 0.40607 0.3099 0.72085 0.0
C1383 C 0.47277 0.37895 0.72333 0.0
C1384 C 0.46219 0.32422 0.72247 0.0
C1385 C 0.4893 0.3996 0.7259 0.0
C1386 C 0.39689 0.23772 0.71056 0.0
C1387 C 0.4119 0.25859 0.71663 0.0
C1388 C 0.42167 0.31368 0.72105 0.0
C1389 C 0.47395 0.36244 0.73208 0.0
C1390 C 0.45747 0.34011 0.72724 0.0
C1391 C 0.41017 0.2756 0.70997 0.0
C1392 C 0.42641 0.29781 0.71614 0.0
H1393 H 0.52185 0.39108 0.75566 0.0
H1394 H 0.49288 0.35496 0.75149 0.0
H1395 H 0.43291 0.34645 0.73025 0.0
H1396 H 0.36489 0.24746 0.68123 0.0
H1397 H 0.39128 0.28389 0.69153 0.0
C1398 C 0.59693 0.09547 0.70777 0.0
C1399 C 0.58796 0.08035 0.72165 0.0
C1400 C 0.61745 0.10419 0.70517 0.0
C1401 C 0.66589 0.11253 0.72913 0.0
H1402 H 0.6808 0.11802 0.67364 0.0
C1403 C 0.74547 0.13227 0.70768 0.0
C1404 C 0.75342 0.14544 0.69195 0.0
C1405 C 0.72567 0.12536 0.71242 0.0
C1406 C 0.67697 0.1169 0.68925 0.0
H1407 H 0.59292 0.06249 0.74402 0.0
H1408 H 0.62904 0.07767 0.73945 0.0
H1409 H 0.64554 0.10384 0.6799 0.0
H1410 H 0.74734 0.16237 0.66929 0.0
H1411 H 0.71288 0.15062 0.67771 0.0
H1412 H 0.69741 0.12558 0.73844 0.0
C1413 C 0.62031 0.08296 0.73067 0.0
C1414 C 0.65673 0.10873 0.69284 0.0
C1415 C 0.5997 0.07421 0.73323 0.0
C1416 C 0.7415 0.1521 0.68141 0.0
C1417 C 0.72174 0.14525 0.68616 0.0
C1418 C 0.6862 0.12077 0.72554 0.0
C1419 C 0.62935 0.09788 0.71642 0.0
C1420 C 0.65094 0.10649 0.71281 0.0
C1421 C 0.71347 0.13154 0.70151 0.0
C1422 C 0.69198 0.12309 0.70554 0.0
H1423 H 0.58802 0.10043 0.69877 0.0
H1424 H 0.624 0.11588 0.69433 0.0
H1425 H 0.66193 0.1112 0.7447 0.0
H1426 H 0.75438 0.12691 0.71604 0.0
H1427 H 0.71974 0.11467 0.7242 0.0
C1428 C 0.92738 0.53042 0.72276 0.0
C1429 C 0.91357 0.51089 0.7293 0.0
C1430 C 0.92196 0.54585 0.72038 0.0
C1431 C 0.88434 0.5616 0.73279 0.0
H1432 H 0.89779 0.58838 0.68237 0.0
C1433 C 0.84904 0.60995 0.70251 0.0
C1434 C 0.86184 0.62856 0.69363 0.0
C1435 C 0.85571 0.59603 0.70778 0.0
C1436 C 0.89413 0.58129 0.69665 0.0
H1437 H 0.88363 0.49197 0.739 0.0
H1438 H 0.874 0.51893 0.73486 0.0
H1439 H 0.90942 0.56409 0.69097 0.0
H1440 H 0.8918 0.64715 0.68348 0.0
H1441 H 0.9034 0.62305 0.69281 0.0
H1442 H 0.86892 0.57877 0.73838 0.0
C1443 C 0.88909 0.52255 0.7318 0.0
C1444 C 0.90083 0.56736 0.7016 0.0
C1445 C 0.89455 0.50713 0.73415 0.0
C1446 C 0.88145 0.6329 0.69015 0.0
C1447 C 0.8881 0.61902 0.69543 0.0
C1448 C 0.87765 0.57559 0.72785 0.0
C1449 C 0.90257 0.54191 0.72442 0.0
C1450 C 0.89601 0.55733 0.71971 0.0
C1451 C 0.87532 0.6004 0.7043 0.0
C1452 C 0.88244 0.58557 0.7097 0.0
H1453 H 0.9421 0.53349 0.71882 0.0
H1454 H 0.93279 0.56071 0.71497 0.0
H1455 H 0.88052 0.55427 0.74694 0.0
H1456 H 0.83386 0.60609 0.70545 0.0
H1457 H 0.84539 0.5817 0.71435 0.0
C1458 C 0.4749 0.95572 0.217 0.0
C1459 C 0.45453 0.94 0.21771 0.0
C1460 C 0.48191 0.96439 0.19875 0.0
C1461 C 0.46619 0.97621 0.151 0.0
H1462 H 0.51088 0.97359 0.12891 0.0
C1463 C 0.50762 0.01881 0.08126 0.0
C1464 C 0.50697 0.00463 0.06567 0.0
C1465 C 0.5013 0.01188 0.1003 0.0
C1466 C 0.49848 0.97452 0.13502 0.0
H1467 H 0.42579 0.92071 0.19939 0.0
H1468 H 0.43793 0.9366 0.16787 0.0
H1469 H 0.49988 0.95966 0.16172 0.0
H1470 H 0.4994 0.97223 0.05761 0.0
H1471 H 0.48894 0.96035 0.09102 0.0
H1472 H 0.46494 0.99127 0.12435 0.0
C1473 C 0.44836 0.94212 0.18153 0.0
C1474 C 0.49225 0.96665 0.15373 0.0
C1475 C 0.44143 0.93313 0.19964 0.0
C1476 C 0.49997 0.98347 0.06936 0.0
C1477 C 0.49408 0.97669 0.08845 0.0
C1478 C 0.47271 0.98453 0.13249 0.0
C1479 C 0.46863 0.95782 0.18095 0.0
C1480 C 0.47589 0.96718 0.16172 0.0
C1481 C 0.49474 0.99083 0.10407 0.0
C1482 C 0.48873 0.98347 0.12427 0.0
H1483 H 0.48538 0.96171 0.2306 0.0
H1484 H 0.49761 0.97655 0.19862 0.0
H1485 H 0.45357 0.97684 0.15696 0.0
H1486 H 0.51295 0.03518 0.07871 0.0
H1487 H 0.50191 0.02301 0.1122 0.0
C1488 C 0.05779 0.50754 0.22625 0.0
C1489 C 0.07701 0.52485 0.23267 0.0
C1490 C 0.04851 0.50587 0.20687 0.0
C1491 C 0.05212 0.53716 0.1626 0.0
H1492 H 0.01617 0.48133 0.1352 0.0
C1493 C 0.00662 0.49412 0.07793 0.0
C1494 C 0.00197 0.50943 0.07208 0.0
C1495 C 0.01582 0.49601 0.09743 0.0
C1496 C 0.02638 0.49709 0.14241 0.0
H1497 H 0.10179 0.55387 0.22396 0.0
H1498 H 0.08618 0.55054 0.1897 0.0
H1499 H 0.03296 0.48479 0.16849 0.0
H1500 H 0.00222 0.53816 0.08231 0.0
H1501 H 0.01709 0.54089 0.11666 0.0
H1502 H 0.04654 0.54948 0.13598 0.0
C1503 C 0.0778 0.53856 0.19978 0.0
C1504 C 0.03577 0.49909 0.16182 0.0
C1505 C 0.08687 0.54045 0.21936 0.0
C1506 C 0.00588 0.52623 0.08635 0.0
C1507 C 0.01467 0.52791 0.106 0.0
C1508 C 0.04306 0.53517 0.14301 0.0
C1509 C 0.05845 0.52124 0.19322 0.0
C1510 C 0.04868 0.51915 0.17231 0.0
C1511 C 0.02004 0.51298 0.11179 0.0
C1512 C 0.02993 0.5151 0.13264 0.0
H1513 H 0.04981 0.49543 0.23637 0.0
H1514 H 0.03344 0.49258 0.20273 0.0
H1515 H 0.06167 0.55291 0.17017 0.0
H1516 H 0.00308 0.48061 0.06747 0.0
H1517 H 0.01982 0.48425 0.10108 0.0
C1518 C 0.49593 0.55881 0.21399 0.0
C1519 C 0.47803 0.54701 0.22339 0.0
C1520 C 0.49679 0.55444 0.19337 0.0
C1521 C 0.4749 0.5127 0.15158 0.0
H1522 H 0.50109 0.55953 0.11827 0.0
C1523 C 0.48719 0.50074 0.06686 0.0
C1524 C 0.50614 0.51548 0.06089 0.0
C1525 C 0.48126 0.50408 0.08577 0.0
C1526 C 0.49387 0.54627 0.12738 0.0
H1527 H 0.44698 0.52111 0.21828 0.0
H1528 H 0.44872 0.51314 0.18215 0.0
H1529 H 0.49521 0.56616 0.15309 0.0
H1530 H 0.53379 0.5451 0.06991 0.0
H1531 H 0.52378 0.55072 0.10295 0.0
H1532 H 0.47423 0.4929 0.1261 0.0
C1533 C 0.46201 0.52591 0.19091 0.0
C1534 C 0.49043 0.55007 0.1473 0.0
C1535 C 0.46105 0.53044 0.2116 0.0
C1536 C 0.51907 0.53352 0.07411 0.0
C1537 C 0.51321 0.53683 0.09297 0.0
C1538 C 0.47849 0.5089 0.13164 0.0
C1539 C 0.47987 0.53798 0.18159 0.0
C1540 C 0.4813 0.53342 0.15976 0.0
C1541 C 0.49423 0.52219 0.09907 0.0
C1542 C 0.48844 0.52572 0.11946 0.0
H1543 H 0.50952 0.57124 0.22263 0.0
H1544 H 0.5109 0.56372 0.18672 0.0
H1545 H 0.46794 0.49958 0.16089 0.0
H1546 H 0.47705 0.48655 0.05703 0.0
H1547 H 0.4665 0.49254 0.08992 0.0
C1548 C 0.92798 0.4766 0.80683 0.0
C1549 C 0.93003 0.46081 0.79591 0.0
C1550 C 0.93487 0.48229 0.82758 0.0
C1551 C 0.94377 0.46052 0.87261 0.0
H1552 H 0.98364 0.51775 0.89412 0.0
C1553 C 0.99068 0.4765 0.94847 0.0
C1554 C 0.99593 0.49464 0.96142 0.0
C1555 C 0.98119 0.47353 0.92897 0.0
C1556 C 0.97221 0.50176 0.88848 0.0
H1557 H 0.94207 0.4396 0.79821 0.0
H1558 H 0.95318 0.44889 0.83429 0.0
H1559 H 0.96935 0.51075 0.85854 0.0
H1560 H 0.99618 0.52434 0.96393 0.0
H1561 H 0.97881 0.51885 0.92993 0.0
H1562 H 0.94638 0.45133 0.90225 0.0
C1563 C 0.94607 0.45668 0.82684 0.0
C1564 C 0.96409 0.49778 0.86811 0.0
C1565 C 0.93954 0.45127 0.80617 0.0
C1566 C 0.99177 0.50996 0.95441 0.0
C1567 C 0.9821 0.50693 0.93484 0.0
C1568 C 0.95164 0.4645 0.89294 0.0
C1569 C 0.94366 0.47209 0.8378 0.0
C1570 C 0.95023 0.47703 0.85989 0.0
C1571 C 0.97658 0.48858 0.92192 0.0
C1572 C 0.96644 0.48504 0.901 0.0
H1573 H 0.92068 0.48425 0.79948 0.0
H1574 H 0.93289 0.49426 0.83576 0.0
H1575 H 0.93287 0.44442 0.86668 0.0
H1576 H 0.99383 0.46449 0.95343 0.0
H1577 H 0.97769 0.45948 0.91932 0.0
C1578 C 0.52762 0.48009 0.79603 0.0
C1579 C 0.5485 0.48778 0.79555 0.0
C1580 C 0.51997 0.48347 0.81374 0.0
C1581 C 0.53363 0.51768 0.8614 0.0
H1582 H 0.49185 0.46822 0.88369 0.0
C1583 C 0.4927 0.51534 0.93556 0.0
C1584 C 0.49752 0.50485 0.95013 0.0
C1585 C 0.49788 0.51492 0.91553 0.0
C1586 C 0.5033 0.48218 0.87744 0.0
H1587 H 0.57758 0.50497 0.81365 0.0
H1588 H 0.56425 0.51144 0.84413 0.0
H1589 H 0.50267 0.46446 0.85023 0.0
H1590 H 0.51161 0.48589 0.95532 0.0
H1591 H 0.52003 0.48472 0.92038 0.0
H1592 H 0.5344 0.53529 0.8889 0.0
C1593 C 0.55388 0.50289 0.83072 0.0
C1594 C 0.50945 0.48005 0.85835 0.0
C1595 C 0.5615 0.4992 0.81318 0.0
C1596 C 0.5077 0.49414 0.94443 0.0
C1597 C 0.51247 0.49338 0.92445 0.0
C1598 C 0.52718 0.51987 0.88036 0.0
C1599 C 0.53304 0.49493 0.83123 0.0
C1600 C 0.52499 0.4977 0.85035 0.0
C1601 C 0.5075 0.50363 0.90983 0.0
C1602 C 0.51228 0.50204 0.88867 0.0
H1603 H 0.51715 0.47156 0.7827 0.0
H1604 H 0.50383 0.47724 0.81373 0.0
H1605 H 0.5456 0.53153 0.85552 0.0
H1606 H 0.4849 0.52373 0.93962 0.0
H1607 H 0.49398 0.52298 0.90441 0.0
C1608 C 0.53793 0.07403 0.81327 0.0
C1609 C 0.53332 0.05994 0.79592 0.0
C1610 C 0.53763 0.06734 0.83274 0.0
C1611 C 0.53467 0.02328 0.86132 0.0
H1612 H 0.51118 0.0443 0.90019 0.0
C1613 C 0.50381 0.98623 0.93682 0.0
C1614 C 0.50877 0.00068 0.95398 0.0
C1615 C 0.50911 0.9935 0.91763 0.0
C1616 C 0.51796 0.03844 0.88958 0.0
H1617 H 0.52537 0.02803 0.7852 0.0
H1618 H 0.52424 0.01608 0.81917 0.0
H1619 H 0.51646 0.05719 0.86667 0.0
H1620 H 0.52375 0.034 0.96473 0.0
H1621 H 0.5329 0.04659 0.93142 0.0
H1622 H 0.53539 0.00394 0.88433 0.0
C1623 C 0.52855 0.03245 0.81786 0.0
C1624 C 0.52111 0.04592 0.87036 0.0
C1625 C 0.52915 0.03925 0.79837 0.0
C1626 C 0.51968 0.02246 0.95178 0.0
C1627 C 0.52484 0.02969 0.93269 0.0
C1628 C 0.53128 0.0156 0.88056 0.0
C1629 C 0.53235 0.04628 0.8353 0.0
C1630 C 0.52958 0.03853 0.85597 0.0
C1631 C 0.51927 0.01532 0.91535 0.0
C1632 C 0.52297 0.0232 0.89489 0.0
H1633 H 0.54142 0.09014 0.81176 0.0
H1634 H 0.54118 0.07862 0.84578 0.0
H1635 H 0.5414 0.01737 0.85073 0.0
H1636 H 0.49542 0.96935 0.93814 0.0
H1637 H 0.50457 0.98208 0.90448 0.0
C1638 C 0.11434 0.26565 0.53836 0.0
C1639 C 0.1251 0.27771 0.55667 0.0
C1640 C 0.12037 0.27361 0.51962 0.0
C1641 C 0.16383 0.3154 0.49569 0.0
H1642 H 0.12261 0.3026 0.45168 0.0
C1643 C 0.18215 0.35407 0.41955 0.0
C1644 C 0.17372 0.33976 0.40201 0.0
C1645 C 0.17588 0.34737 0.43866 0.0
C1646 C 0.13428 0.30625 0.46383 0.0
H1647 H 0.15051 0.3076 0.56976 0.0
H1648 H 0.16082 0.32174 0.53715 0.0
H1649 H 0.1126 0.28904 0.48458 0.0
H1650 H 0.15207 0.30732 0.39062 0.0
H1651 H 0.14077 0.29582 0.42381 0.0
H1652 H 0.18547 0.33287 0.47487 0.0
C1653 C 0.14802 0.30591 0.53715 0.0
C1654 C 0.12857 0.29838 0.48266 0.0
C1655 C 0.1421 0.29784 0.55587 0.0
C1656 C 0.15863 0.31879 0.40383 0.0
C1657 C 0.15216 0.31219 0.42284 0.0
C1658 C 0.16952 0.32346 0.47692 0.0
C1659 C 0.13718 0.29394 0.51876 0.0
C1660 C 0.14327 0.30268 0.4988 0.0
C1661 C 0.16089 0.32633 0.44049 0.0
C1662 C 0.15481 0.31882 0.46075 0.0
H1663 H 0.10129 0.24999 0.53854 0.0
H1664 H 0.11191 0.26374 0.50581 0.0
H1665 H 0.1756 0.31879 0.50761 0.0
H1666 H 0.19384 0.37031 0.41856 0.0
H1667 H 0.18276 0.35863 0.45203 0.0
C1668 C 0.74732 0.87425 0.55197 0.0
C1669 C 0.74324 0.85586 0.56129 0.0
C1670 C 0.73949 0.87288 0.53193 0.0
C1671 C 0.6996 0.8347 0.49208 0.0
H1672 H 0.73062 0.87757 0.45633 0.0
C1673 C 0.6755 0.82736 0.40591 0.0
C1674 C 0.67574 0.84522 0.39887 0.0
C1675 C 0.68423 0.82846 0.42546 0.0
C1676 C 0.72177 0.86554 0.46619 0.0
H1677 H 0.72746 0.82155 0.55666 0.0
H1678 H 0.71478 0.81926 0.52161 0.0
H1679 H 0.74507 0.87986 0.49088 0.0
H1680 H 0.6854 0.87825 0.40646 0.0
H1681 H 0.70084 0.88025 0.44052 0.0
H1682 H 0.67648 0.82022 0.46713 0.0
C1683 C 0.72365 0.83476 0.52988 0.0
C1684 C 0.72998 0.86689 0.48604 0.0
C1685 C 0.73126 0.83611 0.54996 0.0
C1686 C 0.68498 0.86424 0.41157 0.0
C1687 C 0.69393 0.86542 0.43098 0.0
C1688 C 0.69152 0.83322 0.47215 0.0
C1689 C 0.72753 0.8531 0.5206 0.0
C1690 C 0.71896 0.85155 0.49931 0.0
C1691 C 0.69354 0.84752 0.43818 0.0
C1692 C 0.70247 0.84869 0.45905 0.0
H1693 H 0.75664 0.88976 0.56011 0.0
H1694 H 0.74261 0.88737 0.52545 0.0
H1695 H 0.69046 0.82281 0.50191 0.0
H1696 H 0.6684 0.8125 0.3964 0.0
H1697 H 0.68383 0.81446 0.43059 0.0
C1698 C 0.12773 0.863 0.54008 0.0
C1699 C 0.14494 0.87964 0.55157 0.0
C1700 C 0.12839 0.85793 0.51945 0.0
C1701 C 0.15485 0.8811 0.47511 0.0
H1702 H 0.14187 0.82459 0.45507 0.0
C1703 C 0.1827 0.86641 0.40072 0.0
C1704 C 0.17049 0.84767 0.3881 0.0
C1705 C 0.17721 0.86931 0.41991 0.0
C1706 C 0.14519 0.84037 0.46026 0.0
H1707 H 0.17654 0.90336 0.55026 0.0
H1708 H 0.17728 0.89509 0.51434 0.0
H1709 H 0.13597 0.83138 0.49002 0.0
H1710 H 0.14342 0.81686 0.3859 0.0
H1711 H 0.13321 0.82217 0.41922 0.0
H1712 H 0.16397 0.89026 0.44558 0.0
C1713 C 0.16328 0.88611 0.52129 0.0
C1714 C 0.14184 0.84422 0.4803 0.0
C1715 C 0.16277 0.89093 0.54188 0.0
C1716 C 0.15277 0.83169 0.39513 0.0
C1717 C 0.14713 0.83464 0.41434 0.0
C1718 C 0.15794 0.87722 0.45507 0.0
C1719 C 0.14613 0.86961 0.50986 0.0
C1720 C 0.14714 0.86475 0.48803 0.0
C1721 C 0.15927 0.85356 0.42695 0.0
C1722 C 0.15371 0.85695 0.44754 0.0
H1723 H 0.1137 0.85405 0.54693 0.0
H1724 H 0.11495 0.84514 0.51091 0.0
H1725 H 0.15879 0.89702 0.48063 0.0
H1726 H 0.19654 0.87895 0.39575 0.0
H1727 H 0.18724 0.88385 0.42933 0.0
C1728 C 0.60934 0.78605 0.13178 0.0
C1729 C 0.60121 0.79657 0.12093 0.0
C1730 C 0.61505 0.79107 0.15263 0.0
C1731 C 0.63338 0.83206 0.19405 0.0
H1732 H 0.61219 0.78512 0.22774 0.0
C1733 C 0.65847 0.84183 0.28098 0.0
C1734 C 0.66154 0.82572 0.28783 0.0
C1735 C 0.64938 0.83961 0.26126 0.0
C1736 C 0.61838 0.79841 0.21857 0.0
H1737 H 0.59346 0.8213 0.1237 0.0
H1738 H 0.60423 0.83059 0.16031 0.0
H1739 H 0.59984 0.77912 0.19185 0.0
H1740 H 0.658 0.79497 0.27941 0.0
H1741 H 0.64281 0.79134 0.24515 0.0
H1742 H 0.65269 0.85118 0.22056 0.0
C1743 C 0.60577 0.81818 0.15244 0.0
C1744 C 0.61119 0.79497 0.19805 0.0
C1745 C 0.59969 0.81289 0.13149 0.0
C1746 C 0.65569 0.80759 0.27461 0.0
C1747 C 0.64676 0.80542 0.25499 0.0
C1748 C 0.6408 0.83549 0.21463 0.0
C1749 C 0.6132 0.80704 0.16321 0.0
C1750 C 0.61896 0.81162 0.18548 0.0
C1751 C 0.64331 0.82128 0.24807 0.0
C1752 C 0.63378 0.81855 0.22698 0.0
H1753 H 0.61147 0.77393 0.12415 0.0
H1754 H 0.62112 0.78254 0.16051 0.0
H1755 H 0.63963 0.84514 0.18462 0.0
H1756 H 0.66315 0.85612 0.29079 0.0
H1757 H 0.64694 0.85213 0.25644 0.0
C1758 C 0.22235 0.83513 0.1362 0.0
C1759 C 0.21615 0.81518 0.12602 0.0
C1760 C 0.21553 0.83684 0.15505 0.0
C1761 C 0.1906 0.80569 0.19835 0.0
H1762 H 0.17986 0.85142 0.21023 0.0
C1763 C 0.14697 0.80943 0.26607 0.0
C1764 C 0.15606 0.82881 0.27818 0.0
C1765 C 0.15453 0.80774 0.24766 0.0
C1766 C 0.18292 0.83865 0.20716 0.0
H1767 H 0.19815 0.78134 0.12817 0.0
H1768 H 0.18551 0.7843 0.16039 0.0
H1769 H 0.19252 0.8484 0.17789 0.0
H1770 H 0.17978 0.86168 0.28051 0.0
H1771 H 0.19284 0.85883 0.24816 0.0
H1772 H 0.18035 0.79568 0.22751 0.0
C1773 C 0.19601 0.7987 0.15405 0.0
C1774 C 0.19029 0.83696 0.18866 0.0
C1775 C 0.20303 0.79699 0.13533 0.0
C1776 C 0.17261 0.84654 0.27146 0.0
C1777 C 0.17999 0.84493 0.25294 0.0
C1778 C 0.18294 0.80723 0.21673 0.0
C1779 C 0.20211 0.81865 0.16417 0.0
C1780 C 0.1943 0.82048 0.18399 0.0
C1781 C 0.17109 0.82549 0.2409 0.0
C1782 C 0.17908 0.82375 0.22134 0.0
H1783 H 0.23221 0.84952 0.12946 0.0
H1784 H 0.22087 0.85249 0.16247 0.0
H1785 H 0.19383 0.79303 0.19555 0.0
H1786 H 0.13425 0.79551 0.27099 0.0
H1787 H 0.14731 0.7926 0.23862 0.0
C1788 C 0.20384 0.37972 0.13544 0.0
C1789 C 0.20059 0.39677 0.13276 0.0
C1790 C 0.20375 0.37262 0.15474 0.0
C1791 C 0.20356 0.38702 0.2102 0.0
H1792 H 0.1801 0.32669 0.21317 0.0
C1793 C 0.19114 0.35336 0.28799 0.0
C1794 C 0.1741 0.33349 0.28943 0.0
C1795 C 0.19721 0.36045 0.26901 0.0
C1796 C 0.18645 0.34356 0.2127 0.0
H1797 H 0.19592 0.42046 0.14872 0.0
H1798 H 0.19427 0.4073 0.1817 0.0
H1799 H 0.18515 0.34071 0.18021 0.0
H1800 H 0.14992 0.30536 0.27219 0.0
H1801 H 0.15948 0.31822 0.239 0.0
H1802 H 0.20323 0.3898 0.24239 0.0
C1803 C 0.19742 0.3996 0.16914 0.0
C1804 C 0.18975 0.35172 0.19369 0.0
C1805 C 0.19796 0.40695 0.15 0.0
C1806 C 0.16326 0.3207 0.2715 0.0
C1807 C 0.16891 0.32807 0.25244 0.0
C1808 C 0.19976 0.37884 0.22911 0.0
C1809 C 0.20008 0.38216 0.17182 0.0
C1810 C 0.19812 0.37357 0.19213 0.0
C1811 C 0.18586 0.34821 0.2509 0.0
C1812 C 0.19098 0.35694 0.23069 0.0
H1813 H 0.20582 0.37137 0.12255 0.0
H1814 H 0.2063 0.35946 0.15615 0.0
H1815 H 0.21051 0.40398 0.20983 0.0
H1816 H 0.19962 0.3637 0.30154 0.0
H1817 H 0.21066 0.37574 0.26868 0.0
C1818 C 0.80477 0.60351 0.87694 0.0
C1819 C 0.78923 0.60557 0.88521 0.0
C1820 C 0.81152 0.61131 0.8583 0.0
C1821 C 0.81218 0.6498 0.82364 0.0
H1822 H 0.82847 0.62056 0.78513 0.0
C1823 C 0.83143 0.67499 0.74258 0.0
C1824 C 0.84861 0.67533 0.73579 0.0
C1825 C 0.82401 0.66628 0.7607 0.0
C1826 C 0.82413 0.62899 0.79582 0.0
H1827 H 0.76849 0.61732 0.88011 0.0
H1828 H 0.77968 0.63013 0.84738 0.0
H1829 H 0.8153 0.60507 0.81659 0.0
H1830 H 0.87176 0.66721 0.74254 0.0
H1831 H 0.85888 0.65205 0.77432 0.0
H1832 H 0.82083 0.6736 0.80274 0.0
C1833 C 0.78696 0.62286 0.85547 0.0
C1834 C 0.81661 0.62014 0.81387 0.0
C1835 C 0.78032 0.6152 0.87414 0.0
C1836 C 0.85848 0.66714 0.74752 0.0
C1837 C 0.851 0.6583 0.76557 0.0
C1838 C 0.81956 0.65856 0.80554 0.0
C1839 C 0.80283 0.62128 0.84742 0.0
C1840 C 0.81057 0.63046 0.82804 0.0
C1841 C 0.83365 0.65772 0.77233 0.0
C1842 C 0.82567 0.64829 0.79147 0.0
H1843 H 0.81183 0.59595 0.88491 0.0
H1844 H 0.82388 0.60995 0.85266 0.0
H1845 H 0.80807 0.65842 0.83435 0.0
H1846 H 0.8237 0.68142 0.73385 0.0
H1847 H 0.81054 0.66594 0.76544 0.0
C1848 C 0.41235 0.20628 0.89041 0.0
C1849 C 0.40697 0.18761 0.89986 0.0
C1850 C 0.4044 0.20537 0.87055 0.0
C1851 C 0.38352 0.17173 0.8227 0.0
H1852 H 0.35717 0.20416 0.81193 0.0
C1853 C 0.33862 0.16025 0.74521 0.0
C1854 C 0.33837 0.1778 0.73802 0.0
C1855 C 0.34742 0.16166 0.7648 0.0
C1856 C 0.36479 0.19528 0.81449 0.0
H1857 H 0.38863 0.1533 0.89557 0.0
H1858 H 0.37552 0.15184 0.86069 0.0
H1859 H 0.37227 0.20666 0.84616 0.0
H1860 H 0.34755 0.21072 0.74523 0.0
H1861 H 0.36364 0.21355 0.77902 0.0
H1862 H 0.3767 0.16077 0.79104 0.0
C1863 C 0.38591 0.16714 0.86878 0.0
C1864 C 0.37334 0.19666 0.83418 0.0
C1865 C 0.39355 0.16803 0.88876 0.0
C1866 C 0.34733 0.19687 0.75056 0.0
C1867 C 0.35645 0.19842 0.76999 0.0
C1868 C 0.3753 0.17062 0.80291 0.0
C1869 C 0.39117 0.18579 0.85952 0.0
C1870 C 0.38266 0.18479 0.8385 0.0
C1871 C 0.35648 0.18078 0.7775 0.0
C1872 C 0.36568 0.18227 0.79853 0.0
H1873 H 0.4229 0.22164 0.89825 0.0
H1874 H 0.40883 0.21999 0.86367 0.0
H1875 H 0.39081 0.16257 0.82562 0.0
H1876 H 0.33165 0.14531 0.73584 0.0
H1877 H 0.34677 0.1476 0.77006 0.0
C1878 C 0.80638 0.21632 0.87202 0.0
C1879 C 0.80861 0.20577 0.88827 0.0
C1880 C 0.80736 0.20994 0.85196 0.0
C1881 C 0.83208 0.18702 0.82386 0.0
H1882 H 0.79526 0.18003 0.77743 0.0
C1883 C 0.85303 0.19216 0.74103 0.0
C1884 C 0.83946 0.17537 0.72678 0.0
C1885 C 0.84776 0.19396 0.76066 0.0
C1886 C 0.80556 0.18181 0.7903 0.0
H1887 H 0.81318 0.18004 0.89625 0.0
H1888 H 0.81523 0.16911 0.8612 0.0
H1889 H 0.78778 0.18619 0.81202 0.0
H1890 H 0.8101 0.14689 0.7221 0.0
H1891 H 0.80041 0.1506 0.75626 0.0
H1892 H 0.85024 0.18343 0.80219 0.0
C1893 C 0.81254 0.18217 0.864 0.0
C1894 C 0.80135 0.18543 0.81001 0.0
C1895 C 0.81122 0.18832 0.88401 0.0
C1896 C 0.82054 0.16033 0.73256 0.0
C1897 C 0.81509 0.16236 0.75212 0.0
C1898 C 0.83648 0.18382 0.80418 0.0
C1899 C 0.81096 0.19313 0.84783 0.0
C1900 C 0.81462 0.18814 0.82697 0.0
C1901 C 0.82872 0.17915 0.76636 0.0
C1902 C 0.82334 0.18132 0.78721 0.0
H1903 H 0.80432 0.2298 0.87491 0.0
H1904 H 0.80622 0.21873 0.83977 0.0
H1905 H 0.84266 0.18925 0.83665 0.0
H1906 H 0.86773 0.20398 0.73701 0.0
H1907 H 0.8585 0.20711 0.77133 0.0
C1908 C 0.27153 0.11699 0.47204 0.0
C1909 C 0.26491 0.12891 0.46139 0.0
C1910 C 0.27757 0.12173 0.49286 0.0
C1911 C 0.29882 0.16399 0.5339 0.0
H1912 H 0.27837 0.11773 0.56841 0.0
C1913 C 0.32541 0.17567 0.62041 0.0
C1914 C 0.32868 0.15984 0.62764 0.0
C1915 C 0.31597 0.17289 0.60078 0.0
C1916 C 0.28438 0.13082 0.55899 0.0
H1917 H 0.25987 0.15555 0.46452 0.0
H1918 H 0.27111 0.16423 0.50101 0.0
H1919 H 0.26507 0.11119 0.53278 0.0
H1920 H 0.32506 0.12892 0.62001 0.0
H1921 H 0.3092 0.12428 0.58581 0.0
H1922 H 0.31876 0.18347 0.55992 0.0
C1923 C 0.27132 0.15103 0.49304 0.0
C1924 C 0.27666 0.12707 0.53861 0.0
C1925 C 0.26496 0.14608 0.47215 0.0
C1926 C 0.32263 0.14136 0.61487 0.0
C1927 C 0.31332 0.13861 0.59532 0.0
C1928 C 0.30672 0.16773 0.55433 0.0
C1929 C 0.27749 0.13874 0.50361 0.0
C1930 C 0.2841 0.14349 0.52574 0.0
C1931 C 0.30973 0.15425 0.58801 0.0
C1932 C 0.29992 0.15105 0.56699 0.0
H1933 H 0.27238 0.1041 0.46426 0.0
H1934 H 0.28266 0.11226 0.50053 0.0
H1935 H 0.30488 0.17691 0.52427 0.0
H1936 H 0.33036 0.19026 0.62981 0.0
H1937 H 0.31343 0.18526 0.59567 0.0
C1938 C 0.8691 0.12756 0.47041 0.0
C1939 C 0.88287 0.14593 0.46177 0.0
C1940 C 0.86234 0.12894 0.48941 0.0
C1941 C 0.85883 0.16736 0.52596 0.0
H1942 H 0.84753 0.12455 0.56338 0.0
C1943 C 0.84299 0.17648 0.60949 0.0
C1944 C 0.82607 0.15905 0.61607 0.0
C1945 C 0.85001 0.17475 0.59078 0.0
C1946 C 0.85052 0.13654 0.55301 0.0
H1947 H 0.90024 0.18024 0.4666 0.0
H1948 H 0.88938 0.18254 0.49996 0.0
H1949 H 0.86001 0.12183 0.53076 0.0
H1950 H 0.80326 0.12613 0.60849 0.0
H1951 H 0.81567 0.12299 0.5758 0.0
H1952 H 0.84975 0.18228 0.54851 0.0
C1953 C 0.88335 0.16704 0.49188 0.0
C1954 C 0.85759 0.13496 0.53426 0.0
C1955 C 0.88991 0.16568 0.47281 0.0
C1956 C 0.8163 0.13983 0.60368 0.0
C1957 C 0.82348 0.13799 0.58509 0.0
C1958 C 0.85202 0.16907 0.5448 0.0
C1959 C 0.86931 0.14872 0.50038 0.0
C1960 C 0.86182 0.15034 0.52044 0.0
C1961 C 0.84036 0.15546 0.57841 0.0
C1962 C 0.84775 0.15367 0.55849 0.0
H1963 H 0.8635 0.11205 0.46252 0.0
H1964 H 0.85136 0.11447 0.49529 0.0
H1965 H 0.86145 0.17927 0.51561 0.0
H1966 H 0.85067 0.19152 0.61873 0.0
H1967 H 0.86313 0.18843 0.58606 0.0
C1968 C 0.8641 0.71135 0.47378 0.0
C1969 C 0.86734 0.73145 0.47005 0.0
C1970 C 0.86369 0.70571 0.49373 0.0
C1971 C 0.85457 0.72058 0.54489 0.0
H1972 H 0.86852 0.67899 0.56108 0.0
C1973 C 0.82363 0.67523 0.61454 0.0
C1974 C 0.83597 0.67029 0.62679 0.0
C1975 C 0.82978 0.68398 0.59619 0.0
C1976 C 0.86481 0.69084 0.55694 0.0
H1977 H 0.87398 0.76188 0.48411 0.0
H1978 H 0.87407 0.75241 0.51899 0.0
H1979 H 0.87683 0.69298 0.52808 0.0
H1980 H 0.86392 0.66965 0.62912 0.0
H1981 H 0.87523 0.68584 0.59734 0.0
H1982 H 0.84301 0.71888 0.57385 0.0
C1983 C 0.87112 0.74068 0.50657 0.0
C1984 C 0.86933 0.69867 0.53787 0.0
C1985 C 0.87122 0.74619 0.48662 0.0
C1986 C 0.85443 0.67389 0.62019 0.0
C1987 C 0.86072 0.68286 0.60184 0.0
C1988 C 0.85026 0.71295 0.56398 0.0
C1989 C 0.86677 0.72016 0.51039 0.0
C1990 C 0.86391 0.71335 0.53143 0.0
C1991 C 0.8485 0.68813 0.58967 0.0
C1992 C 0.85488 0.69761 0.57009 0.0
H1993 H 0.86088 0.69963 0.46124 0.0
H1994 H 0.86001 0.68968 0.49597 0.0
H1995 H 0.84992 0.73165 0.54047 0.0
H1996 H 0.80924 0.67249 0.6192 0.0
H1997 H 0.81971 0.6873 0.58702 0.0
loop_
_geom_bond_atom_site_label_1
_geom_bond_atom_site_label_2
_geom_bond_distance
_geom_bond_site_symmetry_2
_ccdc_geom_bond_type
H0 C3 0.929 . S
H1 C6 0.929 . S
H2 C8 0.930 . S
C3 H0 0.929 . S
C3 C4 1.398 . S
C3 C5 1.396 . S
C4 C3 1.398 . S
C4 C8 1.407 . S
C5 C3 1.396 . S
C5 C6 1.394 . S
C6 H1 0.929 . S
C6 C5 1.394 . S
C6 C7 1.382 . S
C7 C6 1.382 . S
C7 C8 1.392 . S
C7 N9 1.420 . S
C8 H2 0.930 . S
C8 C4 1.407 . S
C8 C7 1.392 . S
N9 C7 1.420 . S
N9 C10 1.244 . S
C10 N9 1.244 . S
H11 C14 0.929 . S
H12 C17 0.929 . S
H13 C19 0.930 . S
C14 H11 0.929 . S
C14 C15 1.398 . S
C14 C16 1.396 . S
C15 C14 1.398 . S
C15 C19 1.407 . S
C16 C14 1.396 . S
C16 C17 1.394 . S
C17 H12 0.929 . S
C17 C16 1.394 . S
C17 C18 1.382 . S
C18 C17 1.382 . S
C18 C19 1.392 . S
C18 N20 1.420 . S
C19 H13 0.930 . S
C19 C15 1.407 . S
C19 C18 1.392 . S
N20 C18 1.420 . S
N20 C21 1.244 . S
C21 N20 1.244 . S
H22 C25 0.929 . S
H23 C28 0.929 . S
H24 C30 0.930 . S
C25 H22 0.929 . S
C25 C26 1.398 . S
C25 C27 1.396 . S
C26 C25 1.398 . S
C26 C30 1.407 . S
C27 C25 1.396 . S
C27 C28 1.394 . S
C28 H23 0.929 . S
C28 C27 1.394 . S
C28 C29 1.382 . S
C29 C28 1.382 . S
C29 C30 1.392 . S
C29 N31 1.420 . S
C30 H24 0.930 . S
C30 C26 1.407 . S
C30 C29 1.392 . S
N31 C29 1.420 . S
N31 C32 1.244 . S
C32 N31 1.244 . S
H33 C36 0.929 . S
H34 C39 0.929 . S
H35 C41 0.930 . S
C36 H33 0.929 . S
C36 C37 1.398 . S
C36 C38 1.396 . S
C37 C36 1.398 . S
C37 C41 1.407 . S
C38 C36 1.396 . S
C38 C39 1.394 . S
C39 H34 0.929 . S
C39 C38 1.394 . S
C39 C40 1.382 . S
C40 C39 1.382 . S
C40 C41 1.392 . S
C40 N42 1.420 . S
C41 H35 0.930 . S
C41 C37 1.407 . S
C41 C40 1.392 . S
N42 C40 1.420 . S
N42 C43 1.244 . S
C43 N42 1.244 . S
H44 C47 0.929 . S
H45 C50 0.929 . S
H46 C52 0.930 . S
C47 H44 0.929 . S
C47 C48 1.398 . S
C47 C49 1.396 . S
C48 C47 1.398 . S
C48 C52 1.407 . S
C49 C47 1.396 . S
C49 C50 1.394 . S
C50 H45 0.929 . S
C50 C49 1.394 . S
C50 C51 1.382 . S
C51 C50 1.382 . S
C51 C52 1.392 . S
C51 N53 1.420 . S
C52 H46 0.930 . S
C52 C48 1.407 . S
C52 C51 1.392 . S
N53 C51 1.420 . S
N53 C54 1.244 . S
C54 N53 1.244 . S
H55 C58 0.929 . S
H56 C61 0.929 . S
H57 C63 0.930 . S
C58 H55 0.929 . S
C58 C59 1.398 . S
C58 C60 1.396 . S
C59 C58 1.398 . S
C59 C63 1.407 . S
C60 C58 1.396 . S
C60 C61 1.394 . S
C61 H56 0.929 . S
C61 C60 1.394 . S
C61 C62 1.382 . S
C62 C61 1.382 . S
C62 C63 1.392 . S
C62 N64 1.420 . S
C63 H57 0.930 . S
C63 C59 1.407 . S
C63 C62 1.392 . S
N64 C62 1.420 . S
N64 C65 1.244 . S
C65 N64 1.244 . S
H66 C69 0.929 . S
H67 C72 0.929 . S
H68 C74 0.930 . S
C69 H66 0.929 . S
C69 C70 1.398 . S
C69 C71 1.396 . S
C70 C69 1.398 . S
C70 C74 1.407 . S
C71 C69 1.396 . S
C71 C72 1.394 . S
C72 H67 0.929 . S
C72 C71 1.394 . S
C72 C73 1.382 . S
C73 C72 1.382 . S
C73 C74 1.392 . S
C73 N75 1.420 . S
C74 H68 0.930 . S
C74 C70 1.407 . S
C74 C73 1.392 . S
N75 C73 1.420 . S
N75 C76 1.244 . S
C76 N75 1.244 . S
H77 C80 0.929 . S
H78 C83 0.929 . S
H79 C85 0.930 . S
C80 H77 0.929 . S
C80 C81 1.398 . S
C80 C82 1.396 . S
C81 C80 1.398 . S
C81 C85 1.407 . S
C82 C80 1.396 . S
C82 C83 1.394 . S
C83 H78 0.929 . S
C83 C82 1.394 . S
C83 C84 1.382 . S
C84 C83 1.382 . S
C84 C85 1.392 . S
C84 N86 1.420 . S
C85 H79 0.930 . S
C85 C81 1.407 . S
C85 C84 1.392 . S
N86 C84 1.420 . S
N86 C87 1.244 . S
C87 N86 1.244 . S
H88 C91 0.929 . S
H89 C94 0.929 . S
H90 C96 0.930 . S
C91 H88 0.929 . S
C91 C92 1.398 . S
C91 C93 1.396 . S
C92 C91 1.398 . S
C92 C96 1.407 . S
C93 C91 1.396 . S
C93 C94 1.394 . S
C94 H89 0.929 . S
C94 C93 1.394 . S
C94 C95 1.382 . S
C95 C94 1.382 . S
C95 C96 1.392 . S
C95 N97 1.420 . S
C96 H90 0.930 . S
C96 C92 1.407 . S
C96 C95 1.392 . S
N97 C95 1.420 . S
N97 C98 1.244 . S
C98 N97 1.244 . S
H99 C102 0.929 . S
H100 C105 0.929 . S
H101 C107 0.930 . S
C102 H99 0.929 . S
C102 C103 1.398 . S
C102 C104 1.396 . S
C103 C102 1.398 . S
C103 C107 1.407 . S
C104 C102 1.396 . S
C104 C105 1.394 . S
C105 H100 0.929 . S
C105 C104 1.394 . S
C105 C106 1.382 . S
C106 C105 1.382 . S
C106 C107 1.392 . S
C106 N108 1.420 . S
C107 H101 0.930 . S
C107 C103 1.407 . S
C107 C106 1.392 . S
N108 C106 1.420 . S
N108 C109 1.244 . S
C109 N108 1.244 . S
H110 C113 0.929 . S
H111 C116 0.929 . S
H112 C118 0.930 . S
C113 H110 0.929 . S
C113 C114 1.398 . S
C113 C115 1.396 . S
C114 C113 1.398 . S
C114 C118 1.407 . S
C115 C113 1.396 . S
C115 C116 1.394 . S
C116 H111 0.929 . S
C116 C115 1.394 . S
C116 C117 1.382 . S
C117 C116 1.382 . S
C117 C118 1.392 . S
C117 N119 1.420 . S
C118 H112 0.930 . S
C118 C114 1.407 . S
C118 C117 1.392 . S
N119 C117 1.420 . S
N119 C120 1.244 . S
C120 N119 1.244 . S
H121 C124 0.929 . S
H122 C127 0.929 . S
H123 C129 0.930 . S
C124 H121 0.929 . S
C124 C125 1.398 . S
C124 C126 1.396 . S
C125 C124 1.398 . S
C125 C129 1.407 . S
C126 C124 1.396 . S
C126 C127 1.394 . S
C127 H122 0.929 . S
C127 C126 1.394 . S
C127 C128 1.382 . S
C128 C127 1.382 . S
C128 C129 1.392 . S
C128 N130 1.420 . S
C129 H123 0.930 . S
C129 C125 1.407 . S
C129 C128 1.392 . S
N130 C128 1.420 . S
N130 C131 1.244 . S
C131 N130 1.244 . S
H132 C135 0.929 . S
H133 C138 0.929 . S
H134 C140 0.930 . S
C135 H132 0.929 . S
C135 C136 1.398 . S
C135 C137 1.396 . S
C136 C135 1.398 . S
C136 C140 1.407 . S
C137 C135 1.396 . S
C137 C138 1.394 . S
C138 H133 0.929 . S
C138 C137 1.394 . S
C138 C139 1.382 . S
C139 C138 1.382 . S
C139 C140 1.392 . S
C139 N141 1.420 . S
C140 H134 0.930 . S
C140 C136 1.407 . S
C140 C139 1.392 . S
N141 C139 1.420 . S
N141 C142 1.244 . S
C142 N141 1.244 . S
H143 C146 0.929 . S
H144 C149 0.929 . S
H145 C151 0.930 . S
C146 H143 0.929 . S
C146 C147 1.398 . S
C146 C148 1.396 . S
C147 C146 1.398 . S
C147 C151 1.407 . S
C148 C146 1.396 . S
C148 C149 1.394 . S
C149 H144 0.929 . S
C149 C148 1.394 . S
C149 C150 1.382 . S
C150 C149 1.382 . S
C150 C151 1.392 . S
C150 N152 1.420 . S
C151 H145 0.930 . S
C151 C147 1.407 . S
C151 C150 1.392 . S
N152 C150 1.420 . S
N152 C153 1.244 . S
C153 N152 1.244 . S
H154 C157 0.929 . S
H155 C160 0.929 . S
H156 C162 0.930 . S
C157 H154 0.929 . S
C157 C158 1.398 . S
C157 C159 1.396 . S
C158 C157 1.398 . S
C158 C162 1.407 . S
C159 C157 1.396 . S
C159 C160 1.394 . S
C160 H155 0.929 . S
C160 C159 1.394 . S
C160 C161 1.382 . S
C161 C160 1.382 . S
C161 C162 1.392 . S
C161 N163 1.420 . S
C162 H156 0.930 . S
C162 C158 1.407 . S
C162 C161 1.392 . S
N163 C161 1.420 . S
N163 C164 1.244 . S
C164 N163 1.244 . S
H165 C168 0.929 . S
H166 C171 0.929 . S
H167 C173 0.930 . S
C168 H165 0.929 . S
C168 C169 1.398 . S
C168 C170 1.396 . S
C169 C168 1.398 . S
C169 C173 1.407 . S
C170 C168 1.396 . S
C170 C171 1.394 . S
C171 H166 0.929 . S
C171 C170 1.394 . S
C171 C172 1.382 . S
C172 C171 1.382 . S
C172 C173 1.392 . S
C172 N174 1.420 . S
C173 H167 0.930 . S
C173 C169 1.407 . S
C173 C172 1.392 . S
N174 C172 1.420 . S
N174 C175 1.244 . S
C175 N174 1.244 . S
H176 C179 0.929 . S
H177 C182 0.929 . S
H178 C184 0.930 . S
C179 H176 0.929 . S
C179 C180 1.398 . S
C179 C181 1.396 . S
C180 C179 1.398 . S
C180 C184 1.407 . S
C181 C179 1.396 . S
C181 C182 1.394 . S
C182 H177 0.929 . S
C182 C181 1.394 . S
C182 C183 1.382 . S
C183 C182 1.382 . S
C183 C184 1.392 . S
C183 N185 1.420 . S
C184 H178 0.930 . S
C184 C180 1.407 . S
C184 C183 1.392 . S
N185 C183 1.420 . S
N185 C186 1.244 . S
C186 N185 1.244 . S
H187 C190 0.929 . S
H188 C193 0.929 . S
H189 C195 0.930 . S
C190 H187 0.929 . S
C190 C191 1.398 . S
C190 C192 1.396 . S
C191 C190 1.398 . S
C191 C195 1.407 . S
C192 C190 1.396 . S
C192 C193 1.394 . S
C193 H188 0.929 . S
C193 C192 1.394 . S
C193 C194 1.382 . S
C194 C193 1.382 . S
C194 C195 1.392 . S
C194 N196 1.420 . S
C195 H189 0.930 . S
C195 C191 1.407 . S
C195 C194 1.392 . S
N196 C194 1.420 . S
N196 C197 1.244 . S
C197 N196 1.244 . S
Tb198 O201 2.453 . S
Tb198 O202 2.596 1_545 S
Tb198 O203 2.374 1_545 S
Tb198 O211 2.343 1_554 S
Tb198 O213 2.353 . S
Tb198 O215 2.427 . S
Tb198 O216 2.527 . S
C199 O203 1.251 . S
C199 O205 1.239 1_554 S
Tb200 O202 2.343 1_556 S
Tb200 O205 2.359 . S
Tb200 O208 2.427 1_556 S
Tb200 O209 2.513 1_556 S
Tb200 O210 2.453 . S
Tb200 O211 2.596 1_565 S
Tb200 O212 2.373 1_566 S
O201 Tb198 2.453 . S
O201 C217 1.245 1_545 S
O202 Tb198 2.596 1_565 S
O202 Tb200 2.343 1_554 S
O202 C217 1.259 . S
O203 Tb198 2.374 1_565 S
O203 C199 1.251 . S
C204 O208 1.275 . S
C204 O209 1.246 . S
O205 C199 1.239 1_556 S
O205 Tb200 2.359 . S
C206 O210 1.245 1_545 S
C206 O211 1.259 . S
C207 O212 1.252 . S
C207 O213 1.263 . S
O208 Tb200 2.427 1_554 S
O208 C204 1.275 . S
O209 Tb200 2.513 1_554 S
O209 C204 1.246 . S
O210 Tb200 2.453 . S
O210 C206 1.245 1_565 S
O211 Tb198 2.343 1_556 S
O211 Tb200 2.596 1_545 S
O211 C206 1.259 . S
O212 Tb200 2.373 1_544 S
O212 C207 1.252 . S
O213 Tb198 2.353 . S
O213 C207 1.263 . S
C214 O215 1.275 1_556 S
C214 O216 1.241 1_556 S
O215 Tb198 2.427 . S
O215 C214 1.275 1_554 S
O216 Tb198 2.527 . S
O216 C214 1.241 1_554 S
C217 O201 1.245 1_565 S
C217 O202 1.259 . S
Tb218 O221 2.453 . S
Tb218 O222 2.596 1_655 S
Tb218 O223 2.374 1_655 S
Tb218 O231 2.343 1_554 S
Tb218 O233 2.353 . S
Tb218 O235 2.427 1_554 S
Tb218 O236 2.513 1_554 S
C219 O223 1.251 . S
C219 O225 1.263 . S
Tb220 O222 2.343 1_556 S
Tb220 O225 2.353 1_556 S
Tb220 O228 2.427 1_556 S
Tb220 O229 2.513 1_556 S
Tb220 O230 2.453 . S
Tb220 O231 2.596 1_455 S
Tb220 O232 2.383 1_455 S
O221 Tb218 2.453 . S
O221 C237 1.245 1_655 S
O222 Tb218 2.596 1_455 S
O222 Tb220 2.343 1_554 S
O222 C237 1.259 . S
O223 Tb218 2.374 1_455 S
O223 C219 1.251 . S
C224 O228 1.275 . S
C224 O229 1.246 . S
O225 C219 1.263 . S
O225 Tb220 2.353 1_554 S
C226 O230 1.245 1_655 S
C226 O231 1.259 . S
C227 O232 1.239 1_554 S
C227 O233 1.263 . S
O228 Tb220 2.427 1_554 S
O228 C224 1.275 . S
O229 Tb220 2.513 1_554 S
O229 C224 1.246 . S
O230 Tb220 2.453 . S
O230 C226 1.245 1_455 S
O231 Tb218 2.343 1_556 S
O231 Tb220 2.596 1_655 S
O231 C226 1.259 . S
O232 Tb220 2.383 1_655 S
O232 C227 1.239 1_556 S
O233 Tb218 2.353 . S
O233 C227 1.263 . S
C234 O235 1.275 . S
C234 O236 1.246 . S
O235 Tb218 2.427 1_556 S
O235 C234 1.275 . S
O236 Tb218 2.513 1_556 S
O236 C234 1.246 . S
C237 O221 1.245 1_455 S
C237 O222 1.259 . S
Tb238 O241 2.446 1_554 S
Tb238 O242 2.594 1_554 S
Tb238 O243 2.375 . S
Tb238 O251 2.350 . S
Tb238 O253 2.354 . S
Tb238 O255 2.431 . S
Tb238 O256 2.518 . S
C239 O243 1.251 . S
C239 O245 1.263 . S
Tb240 O242 2.343 1_554 S
Tb240 O245 2.353 . S
Tb240 O248 2.427 . S
Tb240 O249 2.531 . S
Tb240 O250 2.453 . S
Tb240 O251 2.596 . S
Tb240 O252 2.374 . S
O241 Tb238 2.446 1_556 S
O241 C257 1.245 . S
O242 Tb238 2.594 1_556 S
O242 Tb240 2.343 1_556 S
O242 C257 1.259 . S
O243 Tb238 2.375 . S
O243 C239 1.251 . S
C244 O248 1.275 1_556 S
C244 O249 1.241 1_556 S
O245 C239 1.263 . S
O245 Tb240 2.353 . S
C246 O250 1.245 . S
C246 O251 1.259 . S
C247 O252 1.250 . S
C247 O253 1.263 . S
O248 Tb240 2.427 . S
O248 C244 1.275 1_554 S
O249 Tb240 2.531 . S
O249 C244 1.241 1_554 S
O250 Tb240 2.453 . S
O250 C246 1.245 . S
O251 Tb238 2.350 . S
O251 Tb240 2.596 . S
O251 C246 1.259 . S
O252 Tb240 2.374 . S
O252 C247 1.250 . S
O253 Tb238 2.354 . S
O253 C247 1.263 . S
C254 O255 1.275 . S
C254 O256 1.246 . S
O255 Tb238 2.431 . S
O255 C254 1.275 . S
O256 Tb238 2.518 . S
O256 C254 1.246 . S
C257 O241 1.245 . S
C257 O242 1.259 . S
Tb258 O261 2.453 . S
Tb258 O262 2.596 . S
Tb258 O263 2.374 . S
Tb258 O271 2.343 . S
Tb258 O273 2.353 . S
Tb258 O275 2.427 . S
Tb258 O276 2.513 . S
C259 O263 1.251 . S
C259 O265 1.263 . S
Tb260 O262 2.343 . S
Tb260 O265 2.353 . S
Tb260 O268 2.427 . S
Tb260 O269 2.513 . S
Tb260 O270 2.453 . S
Tb260 O271 2.596 . S
Tb260 O272 2.374 . S
O261 Tb258 2.453 . S
O261 C277 1.245 . S
O262 Tb258 2.596 . S
O262 Tb260 2.343 . S
O262 C277 1.259 . S
O263 Tb258 2.374 . S
O263 C259 1.251 . S
C264 O268 1.275 . S
C264 O269 1.246 . S
O265 C259 1.263 . S
O265 Tb260 2.353 . S
C266 O270 1.245 . S
C266 O271 1.259 . S
C267 O272 1.250 . S
C267 O273 1.263 . S
O268 Tb260 2.427 . S
O268 C264 1.275 . S
O269 Tb260 2.513 . S
O269 C264 1.246 . S
O270 Tb260 2.453 . S
O270 C266 1.245 . S
O271 Tb258 2.343 . S
O271 Tb260 2.596 . S
O271 C266 1.259 . S
O272 Tb260 2.374 . S
O272 C267 1.250 . S
O273 Tb258 2.353 . S
O273 C267 1.263 . S
C274 O275 1.275 . S
C274 O276 1.246 . S
O275 Tb258 2.427 . S
O275 C274 1.275 . S
O276 Tb258 2.513 . S
O276 C274 1.246 . S
C277 O261 1.245 . S
C277 O262 1.259 . S
Tb278 O281 2.453 . S
Tb278 O282 2.596 . S
Tb278 O283 2.374 . S
Tb278 O291 2.343 . S
Tb278 O293 2.353 . S
Tb278 O295 2.427 . S
Tb278 O296 2.513 . S
C279 O283 1.251 . S
C279 O285 1.263 . S
Tb280 O282 2.343 . S
Tb280 O285 2.353 . S
Tb280 O288 2.427 . S
Tb280 O289 2.513 . S
Tb280 O290 2.453 . S
Tb280 O291 2.596 . S
Tb280 O292 2.374 . S
O281 Tb278 2.453 . S
O281 C297 1.245 . S
O282 Tb278 2.596 . S
O282 Tb280 2.343 . S
O282 C297 1.259 . S
O283 Tb278 2.374 . S
O283 C279 1.251 . S
C284 O288 1.275 . S
C284 O289 1.246 . S
O285 C279 1.263 . S
O285 Tb280 2.353 . S
C286 O290 1.245 . S
C286 O291 1.259 . S
C287 O292 1.250 . S
C287 O293 1.263 . S
O288 Tb280 2.427 . S
O288 C284 1.275 . S
O289 Tb280 2.513 . S
O289 C284 1.246 . S
O290 Tb280 2.453 . S
O290 C286 1.245 . S
O291 Tb278 2.343 . S
O291 Tb280 2.596 . S
O291 C286 1.259 . S
O292 Tb280 2.374 . S
O292 C287 1.250 . S
O293 Tb278 2.353 . S
O293 C287 1.263 . S
C294 O295 1.275 . S
C294 O296 1.246 . S
O295 Tb278 2.427 . S
O295 C294 1.275 . S
O296 Tb278 2.513 . S
O296 C294 1.246 . S
C297 O281 1.245 . S
C297 O282 1.259 . S
Tb298 O301 2.453 . S
Tb298 O302 2.596 . S
Tb298 O303 2.374 . S
Tb298 O311 2.343 . S
Tb298 O313 2.353 . S
Tb298 O315 2.427 . S
Tb298 O316 2.513 . S
C299 O303 1.251 . S
C299 O305 1.263 . S
Tb300 O302 2.343 . S
Tb300 O305 2.353 . S
Tb300 O308 2.427 . S
Tb300 O309 2.513 . S
Tb300 O310 2.453 . S
Tb300 O311 2.596 . S
Tb300 O312 2.374 . S
O301 Tb298 2.453 . S
O301 C317 1.245 . S
O302 Tb298 2.596 . S
O302 Tb300 2.343 . S
O302 C317 1.259 . S
O303 Tb298 2.374 . S
O303 C299 1.251 . S
C304 O308 1.275 . S
C304 O309 1.246 . S
O305 C299 1.263 . S
O305 Tb300 2.353 . S
C306 O310 1.245 . S
C306 O311 1.259 . S
C307 O312 1.250 . S
C307 O313 1.263 . S
O308 Tb300 2.427 . S
O308 C304 1.275 . S
O309 Tb300 2.513 . S
O309 C304 1.246 . S
O310 Tb300 2.453 . S
O310 C306 1.245 . S
O311 Tb298 2.343 . S
O311 Tb300 2.596 . S
O311 C306 1.259 . S
O312 Tb300 2.374 . S
O312 C307 1.250 . S
O313 Tb298 2.353 . S
O313 C307 1.263 . S
C314 O315 1.275 . S
C314 O316 1.246 . S
O315 Tb298 2.427 . S
O315 C314 1.275 . S
O316 Tb298 2.513 . S
O316 C314 1.246 . S
C317 O301 1.245 . S
C317 O302 1.259 . S
Tb318 O321 2.453 . S
Tb318 O322 2.596 . S
Tb318 O323 2.374 . S
Tb318 O331 2.343 . S
Tb318 O333 2.353 . S
Tb318 O335 2.427 . S
Tb318 O336 2.513 . S
C319 O323 1.251 . S
C319 O325 1.263 . S
Tb320 O322 2.343 . S
Tb320 O325 2.353 . S
Tb320 O328 2.427 . S
Tb320 O329 2.513 . S
Tb320 O330 2.453 . S
Tb320 O331 2.596 . S
Tb320 O332 2.374 . S
O321 Tb318 2.453 . S
O321 C337 1.245 . S
O322 Tb318 2.596 . S
O322 Tb320 2.343 . S
O322 C337 1.259 . S
O323 Tb318 2.374 . S
O323 C319 1.251 . S
C324 O328 1.275 . S
C324 O329 1.246 . S
O325 C319 1.263 . S
O325 Tb320 2.353 . S
C326 O330 1.245 . S
C326 O331 1.259 . S
C327 O332 1.250 . S
C327 O333 1.263 . S
O328 Tb320 2.427 . S
O328 C324 1.275 . S
O329 Tb320 2.513 . S
O329 C324 1.246 . S
O330 Tb320 2.453 . S
O330 C326 1.245 . S
O331 Tb318 2.343 . S
O331 Tb320 2.596 . S
O331 C326 1.259 . S
O332 Tb320 2.374 . S
O332 C327 1.250 . S
O333 Tb318 2.353 . S
O333 C327 1.263 . S
C334 O335 1.275 . S
C334 O336 1.246 . S
O335 Tb318 2.427 . S
O335 C334 1.275 . S
O336 Tb318 2.513 . S
O336 C334 1.246 . S
C337 O321 1.245 . S
C337 O322 1.259 . S
Tb338 O341 2.453 . S
Tb338 O342 2.596 . S
Tb338 O343 2.374 . S
Tb338 O351 2.343 . S
Tb338 O353 2.353 . S
Tb338 O355 2.427 . S
Tb338 O356 2.513 . S
C339 O343 1.251 . S
C339 O345 1.263 . S
Tb340 O342 2.343 . S
Tb340 O345 2.353 . S
Tb340 O348 2.427 . S
Tb340 O349 2.513 . S
Tb340 O350 2.453 . S
Tb340 O351 2.596 . S
Tb340 O352 2.374 . S
O341 Tb338 2.453 . S
O341 C357 1.245 . S
O342 Tb338 2.596 . S
O342 Tb340 2.343 . S
O342 C357 1.259 . S
O343 Tb338 2.374 . S
O343 C339 1.251 . S
C344 O348 1.275 . S
C344 O349 1.246 . S
O345 C339 1.263 . S
O345 Tb340 2.353 . S
C346 O350 1.245 . S
C346 O351 1.259 . S
C347 O352 1.250 . S
C347 O353 1.263 . S
O348 Tb340 2.427 . S
O348 C344 1.275 . S
O349 Tb340 2.513 . S
O349 C344 1.246 . S
O350 Tb340 2.453 . S
O350 C346 1.245 . S
O351 Tb338 2.343 . S
O351 Tb340 2.596 . S
O351 C346 1.259 . S
O352 Tb340 2.374 . S
O352 C347 1.250 . S
O353 Tb338 2.353 . S
O353 C347 1.263 . S
C354 O355 1.275 . S
C354 O356 1.246 . S
O355 Tb338 2.427 . S
O355 C354 1.275 . S
O356 Tb338 2.513 . S
O356 C354 1.246 . S
C357 O341 1.245 . S
C357 O342 1.259 . S
Tb358 O361 2.453 . S
Tb358 O362 2.596 . S
Tb358 O363 2.374 . S
Tb358 O371 2.343 . S
Tb358 O373 2.353 . S
Tb358 O375 2.427 . S
Tb358 O376 2.513 . S
C359 O363 1.251 . S
C359 O365 1.263 . S
Tb360 O362 2.343 . S
Tb360 O365 2.353 . S
Tb360 O368 2.427 . S
Tb360 O369 2.513 . S
Tb360 O370 2.453 . S
Tb360 O371 2.596 . S
Tb360 O372 2.374 . S
O361 Tb358 2.453 . S
O361 C377 1.245 . S
O362 Tb358 2.596 . S
O362 Tb360 2.343 . S
O362 C377 1.259 . S
O363 Tb358 2.374 . S
O363 C359 1.251 . S
C364 O368 1.275 . S
C364 O369 1.246 . S
O365 C359 1.263 . S
O365 Tb360 2.353 . S
C366 O370 1.245 . S
C366 O371 1.259 . S
C367 O372 1.250 . S
C367 O373 1.263 . S
O368 Tb360 2.427 . S
O368 C364 1.275 . S
O369 Tb360 2.513 . S
O369 C364 1.246 . S
O370 Tb360 2.453 . S
O370 C366 1.245 . S
O371 Tb358 2.343 . S
O371 Tb360 2.596 . S
O371 C366 1.259 . S
O372 Tb360 2.374 . S
O372 C367 1.250 . S
O373 Tb358 2.353 . S
O373 C367 1.263 . S
C374 O375 1.275 . S
C374 O376 1.246 . S
O375 Tb358 2.427 . S
O375 C374 1.275 . S
O376 Tb358 2.513 . S
O376 C374 1.246 . S
C377 O361 1.245 . S
C377 O362 1.259 . S
C378 C379 1.349 . S
C378 C380 1.327 . S
C378 H403 0.950 . S
C379 C378 1.349 . S
C379 C395 1.349 . S
C380 C378 1.327 . S
C380 C399 1.429 . S
C380 H404 0.950 . S
C381 C398 1.574 . S
C381 C400 1.368 . S
C381 H405 0.949 . S
H382 C386 0.949 . S
C383 C384 1.349 . S
C383 C385 1.327 . S
C383 H406 0.950 . S
C384 C383 1.349 . S
C384 C396 1.349 . S
C385 C383 1.327 . S
C385 C401 1.429 . S
C385 H407 0.950 . S
C386 H382 0.949 . S
C386 C394 1.574 . S
C386 C402 1.368 . S
H387 C395 0.950 . S
H388 C393 0.950 . S
H389 C394 0.949 . S
H390 C396 1.004 . S
H391 C397 0.950 . S
H392 C398 0.949 . S
C393 H388 0.950 . S
C393 C395 1.327 . S
C393 C399 1.429 . S
C394 C386 1.574 . S
C394 H389 0.949 . S
C394 C400 1.368 . S
C395 C379 1.349 . S
C395 H387 0.950 . S
C395 C393 1.327 . S
C396 C384 1.349 . S
C396 H390 1.004 . S
C396 C397 1.327 . S
C397 H391 0.950 . S
C397 C396 1.327 . S
C397 C401 1.429 . S
C398 C381 1.574 . S
C398 H392 0.949 . S
C398 C402 1.368 . S
C399 C380 1.429 . S
C399 C393 1.429 . S
C399 C400 1.523 . S
C400 C381 1.368 . S
C400 C394 1.368 . S
C400 C399 1.523 . S
C401 C385 1.429 . S
C401 C397 1.429 . S
C401 C402 1.523 . S
C402 C386 1.368 . S
C402 C398 1.368 . S
C402 C401 1.523 . S
H403 C378 0.950 . S
H404 C380 0.950 . S
H405 C381 0.949 . S
H406 C383 0.950 . S
H407 C385 0.950 . S
C408 C409 1.349 . S
C408 C410 1.327 . S
C408 H433 0.950 . S
C409 C408 1.349 . S
C409 C425 1.349 . S
C410 C408 1.327 . S
C410 C429 1.429 . S
C410 H434 0.950 . S
C411 C428 1.574 . S
C411 C430 1.368 . S
C411 H435 0.949 . S
H412 C416 0.949 . S
C413 C414 1.349 . S
C413 C415 1.327 . S
C413 H436 0.950 . S
C414 C413 1.349 . S
C414 C426 1.349 . S
C415 C413 1.327 . S
C415 C431 1.429 . S
C415 H437 0.950 . S
C416 H412 0.949 . S
C416 C424 1.574 . S
C416 C432 1.368 . S
H417 C425 0.950 . S
H418 C423 0.950 . S
H419 C424 0.949 . S
H420 C426 0.950 . S
H421 C427 0.950 . S
H422 C428 0.949 . S
C423 H418 0.950 . S
C423 C425 1.327 . S
C423 C429 1.429 . S
C424 C416 1.574 . S
C424 H419 0.949 . S
C424 C430 1.368 . S
C425 C409 1.349 . S
C425 H417 0.950 . S
C425 C423 1.327 . S
C426 C414 1.349 . S
C426 H420 0.950 . S
C426 C427 1.327 . S
C427 H421 0.950 . S
C427 C426 1.327 . S
C427 C431 1.429 . S
C428 C411 1.574 . S
C428 H422 0.949 . S
C428 C432 1.368 . S
C429 C410 1.429 . S
C429 C423 1.429 . S
C429 C430 1.523 . S
C430 C411 1.368 . S
C430 C424 1.368 . S
C430 C429 1.523 . S
C431 C415 1.429 . S
C431 C427 1.429 . S
C431 C432 1.523 . S
C432 C416 1.368 . S
C432 C428 1.368 . S
C432 C431 1.523 . S
H433 C408 0.950 . S
H434 C410 0.950 . S
H435 C411 0.949 . S
H436 C413 0.950 . S
H437 C415 0.950 . S
C438 C439 1.349 . S
C438 C440 1.327 . S
C438 H463 0.950 . S
C439 C438 1.349 . S
C439 C455 1.349 . S
C440 C438 1.327 . S
C440 C459 1.429 . S
C440 H464 0.950 . S
C441 C458 1.574 . S
C441 C460 1.368 . S
C441 H465 0.949 . S
H442 C446 0.949 . S
C443 C444 1.349 . S
C443 C445 1.327 . S
C443 H466 0.950 . S
C444 C443 1.349 . S
C444 C456 1.349 . S
C445 C443 1.327 . S
C445 C461 1.429 . S
C445 H467 0.950 . S
C446 H442 0.949 . S
C446 C454 1.574 . S
C446 C462 1.368 . S
H447 C455 0.950 . S
H448 C453 0.950 . S
H449 C454 0.949 . S
H450 C456 0.950 . S
H451 C457 0.950 . S
H452 C458 0.949 . S
C453 H448 0.950 . S
C453 C455 1.327 . S
C453 C459 1.429 . S
C454 C446 1.574 . S
C454 H449 0.949 . S
C454 C460 1.368 . S
C455 C439 1.349 . S
C455 H447 0.950 . S
C455 C453 1.327 . S
C456 C444 1.349 . S
C456 H450 0.950 . S
C456 C457 1.327 . S
C457 H451 0.950 . S
C457 C456 1.327 . S
C457 C461 1.429 . S
C458 C441 1.574 . S
C458 H452 0.949 . S
C458 C462 1.368 . S
C459 C440 1.429 . S
C459 C453 1.429 . S
C459 C460 1.523 . S
C460 C441 1.368 . S
C460 C454 1.368 . S
C460 C459 1.523 . S
C461 C445 1.429 . S
C461 C457 1.429 . S
C461 C462 1.523 . S
C462 C446 1.368 . S
C462 C458 1.368 . S
C462 C461 1.523 . S
H463 C438 0.950 . S
H464 C440 0.950 . S
H465 C441 0.949 . S
H466 C443 0.950 . S
H467 C445 0.950 . S
C468 C469 1.349 . S
C468 C470 1.327 . S
C468 H493 0.950 . S
C469 C468 1.349 . S
C469 C485 1.349 . S
C470 C468 1.327 . S
C470 C489 1.429 . S
C470 H494 0.950 . S
C471 C488 1.574 . S
C471 C490 1.368 . S
C471 H495 0.949 . S
H472 C476 0.947 . S
C473 C474 1.349 . S
C473 C475 1.327 . S
C473 H496 0.950 . S
C474 C473 1.349 . S
C474 C486 1.349 1_556 S
C475 C473 1.327 . S
C475 C491 1.429 . S
C475 H497 0.950 . S
C476 H472 0.947 . S
C476 C484 1.574 . S
C476 C492 1.368 . S
H477 C485 0.950 . S
H478 C483 0.950 . S
H479 C484 0.949 . S
H480 C486 0.950 . S
H481 C487 0.939 1_554 S
H482 C488 0.949 . S
C483 H478 0.950 . S
C483 C485 1.327 . S
C483 C489 1.429 . S
C484 C476 1.574 . S
C484 H479 0.949 . S
C484 C490 1.368 . S
C485 C469 1.349 . S
C485 H477 0.950 . S
C485 C483 1.327 . S
C486 C474 1.349 1_554 S
C486 H480 0.950 . S
C486 C487 1.325 1_554 S
C487 H481 0.939 1_556 S
C487 C486 1.325 1_556 S
C487 C491 1.441 . S
C488 C471 1.574 . S
C488 H482 0.949 . S
C488 C492 1.368 . S
C489 C470 1.429 . S
C489 C483 1.429 . S
C489 C490 1.523 . S
C490 C471 1.368 . S
C490 C484 1.368 . S
C490 C489 1.523 . S
C491 C475 1.429 . S
C491 C487 1.441 . S
C491 C492 1.523 . S
C492 C476 1.368 . S
C492 C488 1.368 . S
C492 C491 1.523 . S
H493 C468 0.950 . S
H494 C470 0.950 . S
H495 C471 0.949 . S
H496 C473 0.950 . S
H497 C475 0.950 . S
C498 C499 1.349 . S
C498 C500 1.327 . S
C498 H523 0.950 . S
C499 C498 1.349 . S
C499 C515 1.349 . S
C500 C498 1.327 . S
C500 C519 1.429 . S
C500 H524 0.950 . S
C501 C518 1.574 . S
C501 C520 1.368 . S
C501 H525 0.949 . S
H502 C506 0.949 . S
C503 C504 1.349 . S
C503 C505 1.327 . S
C503 H526 0.950 1_556 S
C504 C503 1.349 . S
C504 C516 1.349 . S
C505 C503 1.327 . S
C505 C521 1.429 . S
C505 H527 0.950 . S
C506 H502 0.949 . S
C506 C514 1.574 . S
C506 C522 1.368 . S
H507 C515 0.950 . S
H508 C513 0.950 . S
H509 C514 0.949 . S
H510 C516 0.950 . S
H511 C517 0.950 . S
H512 C518 0.949 . S
C513 H508 0.950 . S
C513 C515 1.327 . S
C513 C519 1.429 . S
C514 C506 1.574 . S
C514 H509 0.949 . S
C514 C520 1.368 . S
C515 C499 1.349 . S
C515 H507 0.950 . S
C515 C513 1.327 . S
C516 C504 1.349 . S
C516 H510 0.950 . S
C516 C517 1.327 . S
C517 H511 0.950 . S
C517 C516 1.327 . S
C517 C521 1.429 . S
C518 C501 1.574 . S
C518 H512 0.949 . S
C518 C522 1.368 . S
C519 C500 1.429 . S
C519 C513 1.429 . S
C519 C520 1.523 . S
C520 C501 1.368 . S
C520 C514 1.368 . S
C520 C519 1.523 . S
C521 C505 1.429 . S
C521 C517 1.429 . S
C521 C522 1.523 . S
C522 C506 1.368 . S
C522 C518 1.368 . S
C522 C521 1.523 . S
H523 C498 0.950 . S
H524 C500 0.950 . S
H525 C501 0.949 . S
H526 C503 0.950 1_554 S
H527 C505 0.950 . S
C528 C529 1.349 . S
C528 C530 1.327 . S
C528 H553 0.950 . S
C529 C528 1.349 . S
C529 C545 1.349 . S
C530 C528 1.327 . S
C530 C549 1.429 . S
C530 H554 0.944 1_556 S
C531 C548 1.574 . S
C531 C550 1.368 . S
C531 H555 0.949 . S
H532 C536 0.949 . S
C533 C534 1.366 . S
C533 C535 1.327 . S
C533 H556 0.950 . S
C534 C533 1.366 . S
C534 C546 1.336 1_556 S
C535 C533 1.327 . S
C535 C551 1.429 . S
C535 H557 0.950 . S
C536 H532 0.949 . S
C536 C544 1.574 1_554 S
C536 C552 1.368 1_554 S
H537 C545 0.950 . S
H538 C543 0.950 . S
H539 C544 0.949 1_554 S
H540 C546 0.950 . S
H541 C547 0.950 . S
H542 C548 0.949 . S
C543 H538 0.950 . S
C543 C545 1.327 . S
C543 C549 1.429 . S
C544 C536 1.574 1_556 S
C544 H539 0.949 1_556 S
C544 C550 1.368 . S
C545 C529 1.349 . S
C545 H537 0.950 . S
C545 C543 1.327 . S
C546 C534 1.336 1_554 S
C546 H540 0.950 . S
C546 C547 1.327 . S
C547 H541 0.950 . S
C547 C546 1.327 . S
C547 C551 1.429 1_554 S
C548 C531 1.574 . S
C548 H542 0.949 . S
C548 C552 1.368 . S
C549 C530 1.429 . S
C549 C543 1.429 . S
C549 C550 1.523 . S
C550 C531 1.368 . S
C550 C544 1.368 . S
C550 C549 1.523 . S
C551 C535 1.429 . S
C551 C547 1.429 1_556 S
C551 C552 1.523 . S
C552 C536 1.368 1_556 S
C552 C548 1.368 . S
C552 C551 1.523 . S
H553 C528 0.950 . S
H554 C530 0.944 1_554 S
H555 C531 0.949 . S
H556 C533 0.950 . S
H557 C535 0.950 . S
C558 C559 1.349 . S
C558 C560 1.327 . S
C558 H583 0.950 . S
C559 C558 1.349 . S
C559 C575 1.349 . S
C560 C558 1.327 . S
C560 C579 1.429 . S
C560 H584 0.950 . S
C561 C578 1.574 . S
C561 C580 1.368 . S
C561 H585 0.949 . S
H562 C566 0.949 . S
C563 C564 1.358 . S
C563 C565 1.333 . S
C563 H586 0.934 1_556 S
C564 C563 1.358 . S
C564 C576 1.349 . S
C565 C563 1.333 . S
C565 C581 1.429 . S
C565 H587 0.950 1_556 S
C566 H562 0.949 . S
C566 C574 1.574 . S
C566 C582 1.368 . S
H567 C575 0.950 . S
H568 C573 0.950 . S
H569 C574 0.949 . S
H570 C576 0.950 . S
H571 C577 0.950 . S
H572 C578 0.949 . S
C573 H568 0.950 . S
C573 C575 1.327 . S
C573 C579 1.429 . S
C574 C566 1.574 . S
C574 H569 0.949 . S
C574 C580 1.368 . S
C575 C559 1.349 . S
C575 H567 0.950 . S
C575 C573 1.327 . S
C576 C564 1.349 . S
C576 H570 0.950 . S
C576 C577 1.327 . S
C577 H571 0.950 . S
C577 C576 1.327 . S
C577 C581 1.429 . S
C578 C561 1.574 . S
C578 H572 0.949 . S
C578 C582 1.368 . S
C579 C560 1.429 . S
C579 C573 1.429 . S
C579 C580 1.523 . S
C580 C561 1.368 . S
C580 C574 1.368 . S
C580 C579 1.523 . S
C581 C565 1.429 . S
C581 C577 1.429 . S
C581 C582 1.523 . S
C582 C566 1.368 . S
C582 C578 1.368 . S
C582 C581 1.523 . S
H583 C558 0.950 . S
H584 C560 0.950 . S
H585 C561 0.949 . S
H586 C563 0.934 1_554 S
H587 C565 0.950 1_554 S
C588 C589 1.349 . S
C588 C590 1.327 . S
C588 H613 0.950 . S
C589 C588 1.349 . S
C589 C605 1.349 . S
C590 C588 1.327 . S
C590 C609 1.429 . S
C590 H614 0.950 . S
C591 C608 1.574 . S
C591 C610 1.368 . S
C591 H615 0.949 . S
H592 C596 0.949 . S
C593 C594 1.349 . S
C593 C595 1.327 . S
C593 H616 0.950 1_556 S
C594 C593 1.349 . S
C594 C606 1.349 . S
C595 C593 1.327 . S
C595 C611 1.429 . S
C595 H617 0.950 . S
C596 H592 0.949 . S
C596 C604 1.574 . S
C596 C612 1.368 . S
H597 C605 0.950 . S
H598 C603 0.950 . S
H599 C604 0.949 . S
H600 C606 0.950 . S
H601 C607 0.950 . S
H602 C608 0.949 . S
C603 H598 0.950 . S
C603 C605 1.327 . S
C603 C609 1.429 . S
C604 C596 1.574 . S
C604 H599 0.949 . S
C604 C610 1.368 . S
C605 C589 1.349 . S
C605 H597 0.950 . S
C605 C603 1.327 . S
C606 C594 1.349 . S
C606 H600 0.950 . S
C606 C607 1.327 . S
C607 H601 0.950 . S
C607 C606 1.327 . S
C607 C611 1.429 . S
C608 C591 1.574 . S
C608 H602 0.949 . S
C608 C612 1.368 . S
C609 C590 1.429 . S
C609 C603 1.429 . S
C609 C610 1.523 . S
C610 C591 1.368 . S
C610 C604 1.368 . S
C610 C609 1.523 . S
C611 C595 1.429 . S
C611 C607 1.429 . S
C611 C612 1.523 . S
C612 C596 1.368 . S
C612 C608 1.368 . S
C612 C611 1.523 . S
H613 C588 0.950 . S
H614 C590 0.950 . S
H615 C591 0.949 . S
H616 C593 0.950 1_554 S
H617 C595 0.950 . S
C618 C619 1.349 . S
C618 C620 1.327 . S
C618 H643 0.950 . S
C619 C618 1.349 . S
C619 C635 1.349 . S
C620 C618 1.327 . S
C620 C639 1.429 . S
C620 H644 0.950 . S
C621 C638 1.574 . S
C621 C640 1.368 1_554 S
C621 H645 0.949 . S
H622 C626 0.949 . S
C623 C624 1.349 . S
C623 C625 1.327 . S
C623 H646 0.950 . S
C624 C623 1.349 . S
C624 C636 1.349 1_554 S
C625 C623 1.327 . S
C625 C641 1.429 1_554 S
C625 H647 0.950 . S
C626 H622 0.949 . S
C626 C634 1.574 . S
C626 C642 1.368 . S
H627 C635 0.947 . S
H628 C633 0.950 1_554 S
H629 C634 0.949 . S
H630 C636 0.950 . S
H631 C637 0.950 . S
H632 C638 0.949 . S
C633 H628 0.950 1_556 S
C633 C635 1.327 . S
C633 C639 1.429 . S
C634 C626 1.574 . S
C634 H629 0.949 . S
C634 C640 1.368 . S
C635 C619 1.349 . S
C635 H627 0.947 . S
C635 C633 1.327 . S
C636 C624 1.349 1_556 S
C636 H630 0.950 . S
C636 C637 1.327 . S
C637 H631 0.950 . S
C637 C636 1.327 . S
C637 C641 1.429 . S
C638 C621 1.574 . S
C638 H632 0.949 . S
C638 C642 1.368 1_554 S
C639 C620 1.429 . S
C639 C633 1.429 . S
C639 C640 1.523 . S
C640 C621 1.368 1_556 S
C640 C634 1.368 . S
C640 C639 1.523 . S
C641 C625 1.429 1_556 S
C641 C637 1.429 . S
C641 C642 1.523 . S
C642 C626 1.368 . S
C642 C638 1.368 1_556 S
C642 C641 1.523 . S
H643 C618 0.950 . S
H644 C620 0.950 . S
H645 C621 0.949 . S
H646 C623 0.950 . S
H647 C625 0.950 . S
C648 C649 1.349 . S
C648 C650 1.327 . S
C648 H673 0.950 . S
C649 C648 1.349 . S
C649 C665 1.349 . S
C650 C648 1.327 . S
C650 C669 1.429 . S
C650 H674 0.950 . S
C651 C668 1.574 . S
C651 C670 1.368 . S
C651 H675 0.949 . S
H652 C656 0.949 . S
C653 C654 1.349 . S
C653 C655 1.327 . S
C653 H676 0.950 1_554 S
C654 C653 1.349 . S
C654 C666 1.349 . S
C655 C653 1.327 . S
C655 C671 1.429 . S
C655 H677 0.950 1_554 S
C656 H652 0.949 . S
C656 C664 1.574 . S
C656 C672 1.368 . S
H657 C665 0.950 . S
H658 C663 0.950 . S
H659 C664 0.949 . S
H660 C666 0.950 . S
H661 C667 0.950 . S
H662 C668 0.949 . S
C663 H658 0.950 . S
C663 C665 1.327 . S
C663 C669 1.429 . S
C664 C656 1.574 . S
C664 H659 0.949 . S
C664 C670 1.368 . S
C665 C649 1.349 . S
C665 H657 0.950 . S
C665 C663 1.327 . S
C666 C654 1.349 . S
C666 H660 0.950 . S
C666 C667 1.327 . S
C667 H661 0.950 . S
C667 C666 1.327 . S
C667 C671 1.429 . S
C668 C651 1.574 . S
C668 H662 0.949 . S
C668 C672 1.368 . S
C669 C650 1.429 . S
C669 C663 1.429 . S
C669 C670 1.523 . S
C670 C651 1.368 . S
C670 C664 1.368 . S
C670 C669 1.523 . S
C671 C655 1.429 . S
C671 C667 1.429 . S
C671 C672 1.523 . S
C672 C656 1.368 . S
C672 C668 1.368 . S
C672 C671 1.523 . S
H673 C648 0.950 . S
H674 C650 0.950 . S
H675 C651 0.949 . S
H676 C653 0.950 1_556 S
H677 C655 0.950 1_556 S
C678 C679 1.349 . S
C678 C680 1.327 . S
C678 H703 0.950 . S
C679 C678 1.349 . S
C679 C695 1.349 . S
C680 C678 1.327 . S
C680 C699 1.429 . S
C680 H704 0.950 . S
C681 C698 1.574 . S
C681 C700 1.368 . S
C681 H705 0.949 . S
H682 C686 0.949 . S
C683 C684 1.349 . S
C683 C685 1.327 . S
C683 H706 0.950 . S
C684 C683 1.349 . S
C684 C696 1.349 . S
C685 C683 1.327 . S
C685 C701 1.429 . S
C685 H707 0.950 . S
C686 H682 0.949 . S
C686 C694 1.574 . S
C686 C702 1.368 . S
H687 C695 0.950 . S
H688 C693 0.950 . S
H689 C694 0.949 . S
H690 C696 0.950 . S
H691 C697 0.950 . S
H692 C698 0.949 . S
C693 H688 0.950 . S
C693 C695 1.327 . S
C693 C699 1.429 . S
C694 C686 1.574 . S
C694 H689 0.949 . S
C694 C700 1.368 . S
C695 C679 1.349 . S
C695 H687 0.950 . S
C695 C693 1.327 . S
C696 C684 1.349 . S
C696 H690 0.950 . S
C696 C697 1.327 . S
C697 H691 0.950 . S
C697 C696 1.327 . S
C697 C701 1.429 . S
C698 C681 1.574 . S
C698 H692 0.949 . S
C698 C702 1.368 . S
C699 C680 1.429 . S
C699 C693 1.429 . S
C699 C700 1.523 . S
C700 C681 1.368 . S
C700 C694 1.368 . S
C700 C699 1.523 . S
C701 C685 1.429 . S
C701 C697 1.429 . S
C701 C702 1.523 . S
C702 C686 1.368 . S
C702 C698 1.368 . S
C702 C701 1.523 . S
H703 C678 0.950 . S
H704 C680 0.950 . S
H705 C681 0.949 . S
H706 C683 0.950 . S
H707 C685 0.950 . S
C708 C709 1.349 . S
C708 C710 1.327 . S
C708 H733 0.950 . S
C709 C708 1.349 . S
C709 C725 1.349 . S
C710 C708 1.327 . S
C710 C729 1.429 . S
C710 H734 0.950 . S
C711 C728 1.574 . S
C711 C730 1.368 . S
C711 H735 0.949 . S
H712 C716 0.949 . S
C713 C714 1.349 . S
C713 C715 1.327 . S
C713 H736 0.950 . S
C714 C713 1.349 . S
C714 C726 1.349 . S
C715 C713 1.327 . S
C715 C731 1.429 . S
C715 H737 0.950 . S
C716 H712 0.949 . S
C716 C724 1.574 . S
C716 C732 1.368 . S
H717 C725 0.950 . S
H718 C723 0.950 . S
H719 C724 0.949 . S
H720 C726 0.938 1_556 S
H721 C727 0.950 . S
H722 C728 0.949 . S
C723 H718 0.950 . S
C723 C725 1.327 . S
C723 C729 1.429 . S
C724 C716 1.574 . S
C724 H719 0.949 . S
C724 C730 1.368 . S
C725 C709 1.349 . S
C725 H717 0.950 . S
C725 C723 1.327 . S
C726 C714 1.349 . S
C726 H720 0.938 1_554 S
C726 C727 1.327 . S
C727 H721 0.950 . S
C727 C726 1.327 . S
C727 C731 1.429 . S
C728 C711 1.574 . S
C728 H722 0.949 . S
C728 C732 1.368 . S
C729 C710 1.429 . S
C729 C723 1.429 . S
C729 C730 1.523 . S
C730 C711 1.368 . S
C730 C724 1.368 . S
C730 C729 1.523 . S
C731 C715 1.429 . S
C731 C727 1.429 . S
C731 C732 1.523 . S
C732 C716 1.368 . S
C732 C728 1.368 . S
C732 C731 1.523 . S
H733 C708 0.950 . S
H734 C710 0.950 . S
H735 C711 0.949 . S
H736 C713 0.950 . S
H737 C715 0.950 . S
C738 C739 1.349 . S
C738 C740 1.327 . S
C738 H763 0.950 . S
C739 C738 1.349 . S
C739 C755 1.349 . S
C740 C738 1.327 . S
C740 C759 1.429 . S
C740 H764 0.950 . S
C741 C758 1.574 1_655 S
C741 C760 1.368 . S
C741 H765 0.949 . S
H742 C746 0.960 . S
C743 C744 1.349 . S
C743 C745 1.327 . S
C743 H766 0.950 . S
C744 C743 1.349 . S
C744 C756 1.349 . S
C745 C743 1.327 . S
C745 C761 1.429 . S
C745 H767 0.950 . S
C746 H742 0.960 . S
C746 C754 1.549 1_455 S
C746 C762 1.382 . S
H747 C755 0.950 . S
H748 C753 0.950 . S
H749 C754 0.949 . S
H750 C756 0.950 . S
H751 C757 0.950 . S
H752 C758 0.949 . S
C753 H748 0.950 . S
C753 C755 1.327 . S
C753 C759 1.429 . S
C754 C746 1.549 1_655 S
C754 H749 0.949 . S
C754 C760 1.368 . S
C755 C739 1.349 . S
C755 H747 0.950 . S
C755 C753 1.327 . S
C756 C744 1.349 . S
C756 H750 0.950 . S
C756 C757 1.327 . S
C757 H751 0.950 . S
C757 C756 1.327 . S
C757 C761 1.429 . S
C758 C741 1.574 1_455 S
C758 H752 0.949 . S
C758 C762 1.368 . S
C759 C740 1.429 . S
C759 C753 1.429 . S
C759 C760 1.523 . S
C760 C741 1.368 . S
C760 C754 1.368 . S
C760 C759 1.523 . S
C761 C745 1.429 . S
C761 C757 1.429 . S
C761 C762 1.523 . S
C762 C746 1.382 . S
C762 C758 1.368 . S
C762 C761 1.523 . S
H763 C738 0.950 . S
H764 C740 0.950 . S
H765 C741 0.949 . S
H766 C743 0.950 . S
H767 C745 0.950 . S
C768 C769 1.349 . S
C768 C770 1.327 . S
C768 H793 0.950 . S
C769 C768 1.349 . S
C769 C785 1.349 . S
C770 C768 1.327 . S
C770 C789 1.429 . S
C770 H794 0.950 . S
C771 C788 1.574 . S
C771 C790 1.368 . S
C771 H795 0.949 . S
H772 C776 0.949 . S
C773 C774 1.349 . S
C773 C775 1.327 . S
C773 H796 0.950 . S
C774 C773 1.349 . S
C774 C786 1.349 . S
C775 C773 1.327 . S
C775 C791 1.429 . S
C775 H797 0.950 . S
C776 H772 0.949 . S
C776 C784 1.574 . S
C776 C792 1.368 . S
H777 C785 0.950 . S
H778 C783 0.950 . S
H779 C784 0.949 . S
H780 C786 0.950 . S
H781 C787 0.950 . S
H782 C788 0.949 . S
C783 H778 0.950 . S
C783 C785 1.327 . S
C783 C789 1.429 . S
C784 C776 1.574 . S
C784 H779 0.949 . S
C784 C790 1.368 . S
C785 C769 1.349 . S
C785 H777 0.950 . S
C785 C783 1.327 . S
C786 C774 1.349 . S
C786 H780 0.950 . S
C786 C787 1.327 . S
C787 H781 0.950 . S
C787 C786 1.327 . S
C787 C791 1.429 . S
C788 C771 1.574 . S
C788 H782 0.949 . S
C788 C792 1.368 . S
C789 C770 1.429 . S
C789 C783 1.429 . S
C789 C790 1.523 . S
C790 C771 1.368 . S
C790 C784 1.368 . S
C790 C789 1.523 . S
C791 C775 1.429 . S
C791 C787 1.429 . S
C791 C792 1.523 . S
C792 C776 1.368 . S
C792 C788 1.368 . S
C792 C791 1.523 . S
H793 C768 0.950 . S
H794 C770 0.950 . S
H795 C771 0.949 . S
H796 C773 0.950 . S
H797 C775 0.950 . S
C798 C799 1.349 . S
C798 C800 1.327 . S
C798 H823 0.950 . S
C799 C798 1.349 . S
C799 C815 1.349 . S
C800 C798 1.327 . S
C800 C819 1.429 . S
C800 H824 0.950 . S
C801 C818 1.574 1_545 S
C801 C820 1.368 . S
C801 H825 0.949 . S
H802 C806 0.949 . S
C803 C804 1.349 . S
C803 C805 1.327 . S
C803 H826 0.950 . S
C804 C803 1.349 . S
C804 C816 1.349 . S
C805 C803 1.327 . S
C805 C821 1.429 . S
C805 H827 0.950 . S
C806 H802 0.949 . S
C806 C814 1.574 1_565 S
C806 C822 1.368 . S
H807 C815 0.950 . S
H808 C813 0.950 . S
H809 C814 0.949 . S
H810 C816 0.950 . S
H811 C817 0.950 . S
H812 C818 0.949 . S
C813 H808 0.950 . S
C813 C815 1.327 . S
C813 C819 1.429 . S
C814 C806 1.574 1_545 S
C814 H809 0.949 . S
C814 C820 1.368 . S
C815 C799 1.349 . S
C815 H807 0.950 . S
C815 C813 1.327 . S
C816 C804 1.349 . S
C816 H810 0.950 . S
C816 C817 1.327 . S
C817 H811 0.950 . S
C817 C816 1.327 . S
C817 C821 1.429 . S
C818 C801 1.574 1_565 S
C818 H812 0.949 . S
C818 C822 1.368 . S
C819 C800 1.429 . S
C819 C813 1.429 . S
C819 C820 1.523 . S
C820 C801 1.368 . S
C820 C814 1.368 . S
C820 C819 1.523 . S
C821 C805 1.429 . S
C821 C817 1.429 . S
C821 C822 1.523 . S
C822 C806 1.368 . S
C822 C818 1.368 . S
C822 C821 1.523 . S
H823 C798 0.950 . S
H824 C800 0.950 . S
H825 C801 0.949 . S
H826 C803 0.950 . S
H827 C805 0.950 . S
C828 C829 1.349 . S
C828 C830 1.327 . S
C828 H853 0.950 . S
C829 C828 1.349 . S
C829 C845 1.349 . S
C830 C828 1.327 . S
C830 C849 1.429 . S
C830 H854 0.950 . S
C831 C848 1.574 . S
C831 C850 1.368 . S
C831 H855 0.949 . S
H832 C836 0.949 . S
C833 C834 1.349 . S
C833 C835 1.327 . S
C833 H856 0.950 . S
C834 C833 1.349 . S
C834 C846 1.349 . S
C835 C833 1.327 . S
C835 C851 1.429 . S
C835 H857 0.950 . S
C836 H832 0.949 . S
C836 C844 1.574 . S
C836 C852 1.368 . S
H837 C845 0.950 . S
H838 C843 0.950 . S
H839 C844 0.949 . S
H840 C846 0.950 . S
H841 C847 0.950 . S
H842 C848 0.949 . S
C843 H838 0.950 . S
C843 C845 1.327 . S
C843 C849 1.429 . S
C844 C836 1.574 . S
C844 H839 0.949 . S
C844 C850 1.368 . S
C845 C829 1.349 . S
C845 H837 0.950 . S
C845 C843 1.327 . S
C846 C834 1.349 . S
C846 H840 0.950 . S
C846 C847 1.327 . S
C847 H841 0.950 . S
C847 C846 1.327 . S
C847 C851 1.429 . S
C848 C831 1.574 . S
C848 H842 0.949 . S
C848 C852 1.368 . S
C849 C830 1.429 . S
C849 C843 1.429 . S
C849 C850 1.523 . S
C850 C831 1.368 . S
C850 C844 1.368 . S
C850 C849 1.523 . S
C851 C835 1.429 . S
C851 C847 1.429 . S
C851 C852 1.523 . S
C852 C836 1.368 . S
C852 C848 1.368 . S
C852 C851 1.523 . S
H853 C828 0.950 . S
H854 C830 0.950 . S
H855 C831 0.949 . S
H856 C833 0.950 . S
H857 C835 0.950 . S
C858 C859 1.349 . S
C858 C860 1.327 . S
C858 H883 0.950 . S
C859 C858 1.349 . S
C859 C875 1.349 . S
C860 C858 1.327 . S
C860 C879 1.429 . S
C860 H884 0.950 . S
C861 C878 1.574 . S
C861 C880 1.368 . S
C861 H885 0.949 . S
H862 C866 0.949 . S
C863 C864 1.349 . S
C863 C865 1.327 . S
C863 H886 0.950 . S
C864 C863 1.349 . S
C864 C876 1.349 . S
C865 C863 1.327 . S
C865 C881 1.429 . S
C865 H887 0.950 . S
C866 H862 0.949 . S
C866 C874 1.574 . S
C866 C882 1.368 . S
H867 C875 0.950 . S
H868 C873 0.950 . S
H869 C874 0.949 . S
H870 C876 0.950 . S
H871 C877 0.950 . S
H872 C878 0.949 . S
C873 H868 0.950 . S
C873 C875 1.327 . S
C873 C879 1.429 . S
C874 C866 1.574 . S
C874 H869 0.949 . S
C874 C880 1.368 . S
C875 C859 1.349 . S
C875 H867 0.950 . S
C875 C873 1.327 . S
C876 C864 1.349 . S
C876 H870 0.950 . S
C876 C877 1.327 . S
C877 H871 0.950 . S
C877 C876 1.327 . S
C877 C881 1.429 . S
C878 C861 1.574 . S
C878 H872 0.949 . S
C878 C882 1.368 . S
C879 C860 1.429 . S
C879 C873 1.429 . S
C879 C880 1.523 . S
C880 C861 1.368 . S
C880 C874 1.368 . S
C880 C879 1.523 . S
C881 C865 1.429 . S
C881 C877 1.429 . S
C881 C882 1.523 . S
C882 C866 1.368 . S
C882 C878 1.368 . S
C882 C881 1.523 . S
H883 C858 0.950 . S
H884 C860 0.950 . S
H885 C861 0.949 . S
H886 C863 0.950 . S
H887 C865 0.950 . S
C888 C889 1.349 . S
C888 C890 1.327 . S
C888 H913 0.950 . S
C889 C888 1.349 . S
C889 C905 1.349 . S
C890 C888 1.327 . S
C890 C909 1.429 . S
C890 H914 0.950 . S
C891 C908 1.574 . S
C891 C910 1.368 . S
C891 H915 0.949 . S
H892 C896 0.949 . S
C893 C894 1.349 . S
C893 C895 1.327 . S
C893 H916 0.950 . S
C894 C893 1.349 . S
C894 C906 1.349 . S
C895 C893 1.327 . S
C895 C911 1.429 . S
C895 H917 0.950 . S
C896 H892 0.949 . S
C896 C904 1.574 . S
C896 C912 1.368 . S
H897 C905 0.950 . S
H898 C903 0.950 . S
H899 C904 0.949 . S
H900 C906 0.950 . S
H901 C907 0.950 . S
H902 C908 0.949 . S
C903 H898 0.950 . S
C903 C905 1.327 . S
C903 C909 1.429 . S
C904 C896 1.574 . S
C904 H899 0.949 . S
C904 C910 1.368 . S
C905 C889 1.349 . S
C905 H897 0.950 . S
C905 C903 1.327 . S
C906 C894 1.349 . S
C906 H900 0.950 . S
C906 C907 1.327 . S
C907 H901 0.950 . S
C907 C906 1.327 . S
C907 C911 1.429 . S
C908 C891 1.574 . S
C908 H902 0.949 . S
C908 C912 1.368 . S
C909 C890 1.429 . S
C909 C903 1.429 . S
C909 C910 1.523 . S
C910 C891 1.368 . S
C910 C904 1.368 . S
C910 C909 1.523 . S
C911 C895 1.429 . S
C911 C907 1.429 . S
C911 C912 1.523 . S
C912 C896 1.368 . S
C912 C908 1.368 . S
C912 C911 1.523 . S
H913 C888 0.950 . S
H914 C890 0.950 . S
H915 C891 0.949 . S
H916 C893 0.950 . S
H917 C895 0.950 . S
C918 C919 1.349 . S
C918 C920 1.327 . S
C918 H943 0.950 . S
C919 C918 1.349 . S
C919 C935 1.349 . S
C920 C918 1.327 . S
C920 C939 1.429 . S
C920 H944 0.950 . S
C921 C938 1.574 . S
C921 C940 1.368 . S
C921 H945 0.949 . S
H922 C926 0.949 . S
C923 C924 1.349 . S
C923 C925 1.327 . S
C923 H946 0.950 . S
C924 C923 1.349 . S
C924 C936 1.349 . S
C925 C923 1.327 . S
C925 C941 1.429 . S
C925 H947 0.950 . S
C926 H922 0.949 . S
C926 C934 1.574 . S
C926 C942 1.368 . S
H927 C935 0.950 . S
H928 C933 0.950 . S
H929 C934 0.949 . S
H930 C936 0.950 . S
H931 C937 0.950 . S
H932 C938 0.949 . S
C933 H928 0.950 . S
C933 C935 1.327 . S
C933 C939 1.429 . S
C934 C926 1.574 . S
C934 H929 0.949 . S
C934 C940 1.368 . S
C935 C919 1.349 . S
C935 H927 0.950 . S
C935 C933 1.327 . S
C936 C924 1.349 . S
C936 H930 0.950 . S
C936 C937 1.327 . S
C937 H931 0.950 . S
C937 C936 1.327 . S
C937 C941 1.429 . S
C938 C921 1.574 . S
C938 H932 0.949 . S
C938 C942 1.368 . S
C939 C920 1.429 . S
C939 C933 1.429 . S
C939 C940 1.523 . S
C940 C921 1.368 . S
C940 C934 1.368 . S
C940 C939 1.523 . S
C941 C925 1.429 . S
C941 C937 1.429 . S
C941 C942 1.523 . S
C942 C926 1.368 . S
C942 C938 1.368 . S
C942 C941 1.523 . S
H943 C918 0.950 . S
H944 C920 0.950 . S
H945 C921 0.949 . S
H946 C923 0.950 . S
H947 C925 0.950 . S
C948 C949 1.349 . S
C948 C950 1.327 . S
C948 H973 0.950 . S
C949 C948 1.349 . S
C949 C965 1.349 . S
C950 C948 1.327 . S
C950 C969 1.429 . S
C950 H974 0.950 . S
C951 C968 1.574 . S
C951 C970 1.368 . S
C951 H975 0.949 . S
H952 C956 0.949 . S
C953 C954 1.349 . S
C953 C955 1.327 . S
C953 H976 0.950 . S
C954 C953 1.349 . S
C954 C966 1.349 . S
C955 C953 1.327 . S
C955 C971 1.429 . S
C955 H977 0.950 . S
C956 H952 0.949 . S
C956 C964 1.574 . S
C956 C972 1.368 . S
H957 C965 0.950 . S
H958 C963 0.950 . S
H959 C964 0.949 . S
H960 C966 0.950 . S
H961 C967 0.950 . S
H962 C968 0.949 . S
C963 H958 0.950 . S
C963 C965 1.327 . S
C963 C969 1.429 . S
C964 C956 1.574 . S
C964 H959 0.949 . S
C964 C970 1.368 . S
C965 C949 1.349 . S
C965 H957 0.950 . S
C965 C963 1.327 . S
C966 C954 1.349 . S
C966 H960 0.950 . S
C966 C967 1.327 . S
C967 H961 0.950 . S
C967 C966 1.327 . S
C967 C971 1.429 . S
C968 C951 1.574 . S
C968 H962 0.949 . S
C968 C972 1.368 . S
C969 C950 1.429 . S
C969 C963 1.429 . S
C969 C970 1.523 . S
C970 C951 1.368 . S
C970 C964 1.368 . S
C970 C969 1.523 . S
C971 C955 1.429 . S
C971 C967 1.429 . S
C971 C972 1.523 . S
C972 C956 1.368 . S
C972 C968 1.368 . S
C972 C971 1.523 . S
H973 C948 0.950 . S
H974 C950 0.950 . S
H975 C951 0.949 . S
H976 C953 0.950 . S
H977 C955 0.950 . S
C978 C979 1.349 . S
C978 C980 1.327 . S
C978 H1003 0.950 . S
C979 C978 1.349 . S
C979 C995 1.349 . S
C980 C978 1.327 . S
C980 C999 1.429 . S
C980 H1004 0.950 . S
C981 C998 1.574 . S
C981 C1000 1.368 . S
C981 H1005 0.949 . S
H982 C986 0.949 . S
C983 C984 1.349 . S
C983 C985 1.327 . S
C983 H1006 0.950 . S
C984 C983 1.349 . S
C984 C996 1.349 . S
C985 C983 1.327 . S
C985 C1001 1.429 . S
C985 H1007 0.950 . S
C986 H982 0.949 . S
C986 C994 1.574 . S
C986 C1002 1.368 . S
H987 C995 0.950 . S
H988 C993 0.950 . S
H989 C994 0.949 . S
H990 C996 0.950 . S
H991 C997 0.950 . S
H992 C998 0.949 . S
C993 H988 0.950 . S
C993 C995 1.327 . S
C993 C999 1.429 . S
C994 C986 1.574 . S
C994 H989 0.949 . S
C994 C1000 1.368 . S
C995 C979 1.349 . S
C995 H987 0.950 . S
C995 C993 1.327 . S
C996 C984 1.349 . S
C996 H990 0.950 . S
C996 C997 1.327 . S
C997 H991 0.950 . S
C997 C996 1.327 . S
C997 C1001 1.429 . S
C998 C981 1.574 . S
C998 H992 0.949 . S
C998 C1002 1.368 . S
C999 C980 1.429 . S
C999 C993 1.429 . S
C999 C1000 1.523 . S
C1000 C981 1.368 . S
C1000 C994 1.368 . S
C1000 C999 1.523 . S
C1001 C985 1.429 . S
C1001 C997 1.429 . S
C1001 C1002 1.523 . S
C1002 C986 1.368 . S
C1002 C998 1.368 . S
C1002 C1001 1.523 . S
H1003 C978 0.950 . S
H1004 C980 0.950 . S
H1005 C981 0.949 . S
H1006 C983 0.950 . S
H1007 C985 0.950 . S
C1008 C1009 1.349 . S
C1008 C1010 1.327 . S
C1008 H1033 0.950 . S
C1009 C1008 1.349 . S
C1009 C1025 1.349 . S
C1010 C1008 1.327 . S
C1010 C1029 1.429 . S
C1010 H1034 0.950 . S
C1011 C1028 1.574 . S
C1011 C1030 1.368 . S
C1011 H1035 0.949 . S
H1012 C1016 0.949 . S
C1013 C1014 1.349 . S
C1013 C1015 1.327 . S
C1013 H1036 0.950 . S
C1014 C1013 1.349 . S
C1014 C1026 1.349 . S
C1015 C1013 1.327 . S
C1015 C1031 1.429 . S
C1015 H1037 0.950 . S
C1016 H1012 0.949 . S
C1016 C1024 1.574 . S
C1016 C1032 1.368 . S
H1017 C1025 0.950 . S
H1018 C1023 0.950 . S
H1019 C1024 0.949 . S
H1020 C1026 0.950 . S
H1021 C1027 0.950 . S
H1022 C1028 0.949 . S
C1023 H1018 0.950 . S
C1023 C1025 1.327 . S
C1023 C1029 1.429 . S
C1024 C1016 1.574 . S
C1024 H1019 0.949 . S
C1024 C1030 1.368 . S
C1025 C1009 1.349 . S
C1025 H1017 0.950 . S
C1025 C1023 1.327 . S
C1026 C1014 1.349 . S
C1026 H1020 0.950 . S
C1026 C1027 1.327 . S
C1027 H1021 0.950 . S
C1027 C1026 1.327 . S
C1027 C1031 1.429 . S
C1028 C1011 1.574 . S
C1028 H1022 0.949 . S
C1028 C1032 1.368 . S
C1029 C1010 1.429 . S
C1029 C1023 1.429 . S
C1029 C1030 1.523 1_545 S
C1030 C1011 1.368 . S
C1030 C1024 1.368 . S
C1030 C1029 1.523 1_565 S
C1031 C1015 1.429 . S
C1031 C1027 1.429 . S
C1031 C1032 1.523 . S
C1032 C1016 1.368 . S
C1032 C1028 1.368 . S
C1032 C1031 1.523 . S
H1033 C1008 0.950 . S
H1034 C1010 0.950 . S
H1035 C1011 0.949 . S
H1036 C1013 0.950 . S
H1037 C1015 0.950 . S
C1038 C1039 1.349 . S
C1038 C1040 1.327 . S
C1038 H1063 0.950 . S
C1039 C1038 1.349 . S
C1039 C1055 1.349 . S
C1040 C1038 1.327 . S
C1040 C1059 1.429 . S
C1040 H1064 0.950 . S
C1041 C1058 1.574 . S
C1041 C1060 1.368 . S
C1041 H1065 0.949 . S
H1042 C1046 0.949 . S
C1043 C1044 1.349 . S
C1043 C1045 1.327 . S
C1043 H1066 0.950 . S
C1044 C1043 1.349 . S
C1044 C1056 1.349 . S
C1045 C1043 1.327 . S
C1045 C1061 1.429 . S
C1045 H1067 0.950 . S
C1046 H1042 0.949 . S
C1046 C1054 1.574 . S
C1046 C1062 1.368 . S
H1047 C1055 0.950 . S
H1048 C1053 0.950 1_455 S
H1049 C1054 0.949 . S
H1050 C1056 0.950 . S
H1051 C1057 0.950 . S
H1052 C1058 0.949 . S
C1053 H1048 0.950 1_655 S
C1053 C1055 1.327 . S
C1053 C1059 1.429 . S
C1054 C1046 1.574 . S
C1054 H1049 0.949 . S
C1054 C1060 1.368 . S
C1055 C1039 1.349 . S
C1055 H1047 0.950 . S
C1055 C1053 1.327 . S
C1056 C1044 1.349 . S
C1056 H1050 0.950 . S
C1056 C1057 1.327 . S
C1057 H1051 0.950 . S
C1057 C1056 1.327 . S
C1057 C1061 1.429 . S
C1058 C1041 1.574 . S
C1058 H1052 0.949 . S
C1058 C1062 1.368 . S
C1059 C1040 1.429 . S
C1059 C1053 1.429 . S
C1059 C1060 1.523 1_655 S
C1060 C1041 1.368 . S
C1060 C1054 1.368 . S
C1060 C1059 1.523 1_455 S
C1061 C1045 1.429 . S
C1061 C1057 1.429 . S
C1061 C1062 1.523 . S
C1062 C1046 1.368 . S
C1062 C1058 1.368 . S
C1062 C1061 1.523 . S
H1063 C1038 0.950 . S
H1064 C1040 0.950 . S
H1065 C1041 0.949 . S
H1066 C1043 0.950 . S
H1067 C1045 0.950 . S
C1068 C1069 1.349 . S
C1068 C1070 1.327 . S
C1068 H1093 0.950 . S
C1069 C1068 1.349 . S
C1069 C1085 1.349 . S
C1070 C1068 1.327 . S
C1070 C1089 1.429 . S
C1070 H1094 0.950 . S
C1071 C1088 1.574 . S
C1071 C1090 1.368 . S
C1071 H1095 0.949 . S
H1072 C1076 0.949 . S
C1073 C1074 1.349 . S
C1073 C1075 1.327 . S
C1073 H1096 0.950 . S
C1074 C1073 1.349 . S
C1074 C1086 1.349 . S
C1075 C1073 1.327 . S
C1075 C1091 1.429 . S
C1075 H1097 0.950 . S
C1076 H1072 0.949 . S
C1076 C1084 1.574 . S
C1076 C1092 1.368 . S
H1077 C1085 0.950 . S
H1078 C1083 0.950 . S
H1079 C1084 0.949 . S
H1080 C1086 0.950 . S
H1081 C1087 0.950 . S
H1082 C1088 0.949 . S
C1083 H1078 0.950 . S
C1083 C1085 1.327 . S
C1083 C1089 1.429 . S
C1084 C1076 1.574 . S
C1084 H1079 0.949 . S
C1084 C1090 1.368 . S
C1085 C1069 1.349 . S
C1085 H1077 0.950 . S
C1085 C1083 1.327 . S
C1086 C1074 1.349 . S
C1086 H1080 0.950 . S
C1086 C1087 1.327 . S
C1087 H1081 0.950 . S
C1087 C1086 1.327 . S
C1087 C1091 1.429 . S
C1088 C1071 1.574 . S
C1088 H1082 0.949 . S
C1088 C1092 1.368 . S
C1089 C1070 1.429 . S
C1089 C1083 1.429 . S
C1089 C1090 1.523 . S
C1090 C1071 1.368 . S
C1090 C1084 1.368 . S
C1090 C1089 1.523 . S
C1091 C1075 1.429 . S
C1091 C1087 1.429 . S
C1091 C1092 1.523 . S
C1092 C1076 1.368 . S
C1092 C1088 1.368 . S
C1092 C1091 1.523 . S
H1093 C1068 0.950 . S
H1094 C1070 0.950 . S
H1095 C1071 0.949 . S
H1096 C1073 0.950 . S
H1097 C1075 0.950 . S
C1098 C1099 1.349 . S
C1098 C1100 1.327 . S
C1098 H1123 0.950 . S
C1099 C1098 1.349 . S
C1099 C1115 1.349 . S
C1100 C1098 1.327 . S
C1100 C1119 1.429 . S
C1100 H1124 0.950 . S
C1101 C1118 1.574 . S
C1101 C1120 1.368 . S
C1101 H1125 0.949 . S
H1102 C1106 0.949 . S
C1103 C1104 1.349 . S
C1103 C1105 1.327 . S
C1103 H1126 0.950 . S
C1104 C1103 1.349 . S
C1104 C1116 1.349 . S
C1105 C1103 1.327 . S
C1105 C1121 1.429 . S
C1105 H1127 0.950 . S
C1106 H1102 0.949 . S
C1106 C1114 1.574 . S
C1106 C1122 1.368 . S
H1107 C1115 0.950 . S
H1108 C1113 0.950 . S
H1109 C1114 0.949 . S
H1110 C1116 0.950 . S
H1111 C1117 0.950 . S
H1112 C1118 0.949 . S
C1113 H1108 0.950 . S
C1113 C1115 1.327 . S
C1113 C1119 1.429 . S
C1114 C1106 1.574 . S
C1114 H1109 0.949 . S
C1114 C1120 1.368 . S
C1115 C1099 1.349 . S
C1115 H1107 0.950 . S
C1115 C1113 1.327 . S
C1116 C1104 1.349 . S
C1116 H1110 0.950 . S
C1116 C1117 1.327 . S
C1117 H1111 0.950 . S
C1117 C1116 1.327 . S
C1117 C1121 1.429 . S
C1118 C1101 1.574 . S
C1118 H1112 0.949 . S
C1118 C1122 1.368 . S
C1119 C1100 1.429 . S
C1119 C1113 1.429 . S
C1119 C1120 1.523 . S
C1120 C1101 1.368 . S
C1120 C1114 1.368 . S
C1120 C1119 1.523 . S
C1121 C1105 1.429 . S
C1121 C1117 1.429 . S
C1121 C1122 1.523 . S
C1122 C1106 1.368 . S
C1122 C1118 1.368 . S
C1122 C1121 1.523 . S
H1123 C1098 0.950 . S
H1124 C1100 0.950 . S
H1125 C1101 0.949 . S
H1126 C1103 0.950 . S
H1127 C1105 0.950 . S
C1128 C1129 1.349 . S
C1128 C1130 1.327 . S
C1128 H1153 0.950 . S
C1129 C1128 1.349 . S
C1129 C1145 1.349 . S
C1130 C1128 1.327 . S
C1130 C1149 1.429 . S
C1130 H1154 0.950 . S
C1131 C1148 1.574 . S
C1131 C1150 1.368 . S
C1131 H1155 0.949 . S
H1132 C1136 0.949 . S
C1133 C1134 1.349 . S
C1133 C1135 1.327 . S
C1133 H1156 0.950 . S
C1134 C1133 1.349 . S
C1134 C1146 1.349 . S
C1135 C1133 1.327 . S
C1135 C1151 1.429 . S
C1135 H1157 0.950 . S
C1136 H1132 0.949 . S
C1136 C1144 1.574 . S
C1136 C1152 1.368 . S
H1137 C1145 0.950 . S
H1138 C1143 0.950 . S
H1139 C1144 0.949 . S
H1140 C1146 0.950 . S
H1141 C1147 0.950 . S
H1142 C1148 0.949 . S
C1143 H1138 0.950 . S
C1143 C1145 1.327 . S
C1143 C1149 1.429 . S
C1144 C1136 1.574 . S
C1144 H1139 0.949 . S
C1144 C1150 1.368 . S
C1145 C1129 1.349 . S
C1145 H1137 0.950 . S
C1145 C1143 1.327 . S
C1146 C1134 1.349 . S
C1146 H1140 0.950 . S
C1146 C1147 1.327 . S
C1147 H1141 0.950 . S
C1147 C1146 1.327 . S
C1147 C1151 1.429 . S
C1148 C1131 1.574 . S
C1148 H1142 0.949 . S
C1148 C1152 1.368 . S
C1149 C1130 1.429 . S
C1149 C1143 1.429 . S
C1149 C1150 1.523 . S
C1150 C1131 1.368 . S
C1150 C1144 1.368 . S
C1150 C1149 1.523 . S
C1151 C1135 1.429 . S
C1151 C1147 1.429 . S
C1151 C1152 1.523 . S
C1152 C1136 1.368 . S
C1152 C1148 1.368 . S
C1152 C1151 1.523 . S
H1153 C1128 0.950 . S
H1154 C1130 0.950 . S
H1155 C1131 0.949 . S
H1156 C1133 0.950 . S
H1157 C1135 0.950 . S
C1158 C1159 1.349 . S
C1158 C1160 1.327 . S
C1158 H1183 0.950 . S
C1159 C1158 1.349 . S
C1159 C1175 1.349 . S
C1160 C1158 1.327 . S
C1160 C1179 1.429 . S
C1160 H1184 0.950 . S
C1161 C1178 1.574 . S
C1161 C1180 1.368 . S
C1161 H1185 0.949 . S
H1162 C1166 0.949 . S
C1163 C1164 1.349 . S
C1163 C1165 1.327 . S
C1163 H1186 0.950 . S
C1164 C1163 1.349 . S
C1164 C1176 1.349 . S
C1165 C1163 1.327 . S
C1165 C1181 1.429 . S
C1165 H1187 0.950 . S
C1166 H1162 0.949 . S
C1166 C1174 1.574 . S
C1166 C1182 1.368 . S
H1167 C1175 0.950 . S
H1168 C1173 0.950 . S
H1169 C1174 0.949 . S
H1170 C1176 0.950 . S
H1171 C1177 0.950 . S
H1172 C1178 0.949 . S
C1173 H1168 0.950 . S
C1173 C1175 1.327 . S
C1173 C1179 1.429 . S
C1174 C1166 1.574 . S
C1174 H1169 0.949 . S
C1174 C1180 1.368 . S
C1175 C1159 1.349 . S
C1175 H1167 0.950 . S
C1175 C1173 1.327 . S
C1176 C1164 1.349 . S
C1176 H1170 0.950 . S
C1176 C1177 1.327 . S
C1177 H1171 0.950 . S
C1177 C1176 1.327 . S
C1177 C1181 1.429 . S
C1178 C1161 1.574 . S
C1178 H1172 0.949 . S
C1178 C1182 1.368 . S
C1179 C1160 1.429 . S
C1179 C1173 1.429 . S
C1179 C1180 1.523 . S
C1180 C1161 1.368 . S
C1180 C1174 1.368 . S
C1180 C1179 1.523 . S
C1181 C1165 1.429 . S
C1181 C1177 1.429 . S
C1181 C1182 1.523 . S
C1182 C1166 1.368 . S
C1182 C1178 1.368 . S
C1182 C1181 1.523 . S
H1183 C1158 0.950 . S
H1184 C1160 0.950 . S
H1185 C1161 0.949 . S
H1186 C1163 0.950 . S
H1187 C1165 0.950 . S
C1188 C1189 1.349 . S
C1188 C1190 1.327 . S
C1188 H1213 0.950 . S
C1189 C1188 1.349 . S
C1189 C1205 1.349 . S
C1190 C1188 1.327 . S
C1190 C1209 1.429 . S
C1190 H1214 0.950 . S
C1191 C1208 1.574 1_565 S
C1191 C1210 1.368 . S
C1191 H1215 0.949 . S
H1192 C1196 0.949 . S
C1193 C1194 1.349 . S
C1193 C1195 1.327 . S
C1193 H1216 0.950 . S
C1194 C1193 1.349 . S
C1194 C1206 1.349 . S
C1195 C1193 1.327 . S
C1195 C1211 1.429 . S
C1195 H1217 0.950 . S
C1196 H1192 0.949 . S
C1196 C1204 1.574 1_545 S
C1196 C1212 1.368 . S
H1197 C1205 0.950 . S
H1198 C1203 0.950 . S
H1199 C1204 0.949 . S
H1200 C1206 0.950 . S
H1201 C1207 0.950 . S
H1202 C1208 0.949 . S
C1203 H1198 0.950 . S
C1203 C1205 1.327 . S
C1203 C1209 1.429 . S
C1204 C1196 1.574 1_565 S
C1204 H1199 0.949 . S
C1204 C1210 1.368 . S
C1205 C1189 1.349 . S
C1205 H1197 0.950 . S
C1205 C1203 1.327 . S
C1206 C1194 1.349 . S
C1206 H1200 0.950 . S
C1206 C1207 1.327 . S
C1207 H1201 0.950 . S
C1207 C1206 1.327 . S
C1207 C1211 1.429 . S
C1208 C1191 1.574 1_545 S
C1208 H1202 0.949 . S
C1208 C1212 1.368 . S
C1209 C1190 1.429 . S
C1209 C1203 1.429 . S
C1209 C1210 1.523 . S
C1210 C1191 1.368 . S
C1210 C1204 1.368 . S
C1210 C1209 1.523 . S
C1211 C1195 1.429 . S
C1211 C1207 1.429 . S
C1211 C1212 1.523 . S
C1212 C1196 1.368 . S
C1212 C1208 1.368 . S
C1212 C1211 1.523 . S
H1213 C1188 0.950 . S
H1214 C1190 0.950 . S
H1215 C1191 0.949 . S
H1216 C1193 0.950 . S
H1217 C1195 0.950 . S
C1218 C1219 1.349 . S
C1218 C1220 1.327 . S
C1218 H1243 0.950 . S
C1219 C1218 1.349 . S
C1219 C1235 1.349 . S
C1220 C1218 1.327 . S
C1220 C1239 1.429 . S
C1220 H1244 0.950 . S
C1221 C1238 1.574 1_455 S
C1221 C1240 1.368 . S
C1221 H1245 0.949 . S
H1222 C1226 0.949 . S
C1223 C1224 1.349 . S
C1223 C1225 1.327 . S
C1223 H1246 0.950 . S
C1224 C1223 1.349 . S
C1224 C1236 1.349 . S
C1225 C1223 1.327 . S
C1225 C1241 1.429 . S
C1225 H1247 0.950 . S
C1226 H1222 0.949 . S
C1226 C1234 1.574 1_655 S
C1226 C1242 1.368 . S
H1227 C1235 0.950 . S
H1228 C1233 0.950 . S
H1229 C1234 0.949 . S
H1230 C1236 0.950 . S
H1231 C1237 0.950 . S
H1232 C1238 0.949 . S
C1233 H1228 0.950 . S
C1233 C1235 1.327 . S
C1233 C1239 1.429 . S
C1234 C1226 1.574 1_455 S
C1234 H1229 0.949 . S
C1234 C1240 1.368 . S
C1235 C1219 1.349 . S
C1235 H1227 0.950 . S
C1235 C1233 1.327 . S
C1236 C1224 1.349 . S
C1236 H1230 0.950 . S
C1236 C1237 1.327 . S
C1237 H1231 0.950 . S
C1237 C1236 1.327 . S
C1237 C1241 1.429 . S
C1238 C1221 1.574 1_655 S
C1238 H1232 0.949 . S
C1238 C1242 1.368 . S
C1239 C1220 1.429 . S
C1239 C1233 1.429 . S
C1239 C1240 1.523 . S
C1240 C1221 1.368 . S
C1240 C1234 1.368 . S
C1240 C1239 1.523 . S
C1241 C1225 1.429 . S
C1241 C1237 1.429 . S
C1241 C1242 1.523 . S
C1242 C1226 1.368 . S
C1242 C1238 1.368 . S
C1242 C1241 1.523 . S
H1243 C1218 0.950 . S
H1244 C1220 0.950 . S
H1245 C1221 0.949 . S
H1246 C1223 0.950 . S
H1247 C1225 0.950 . S
C1248 C1249 1.349 . S
C1248 C1250 1.327 . S
C1248 H1273 0.950 . S
C1249 C1248 1.349 . S
C1249 C1265 1.349 . S
C1250 C1248 1.327 . S
C1250 C1269 1.429 . S
C1250 H1274 0.950 . S
C1251 C1268 1.574 . S
C1251 C1270 1.368 . S
C1251 H1275 0.949 . S
H1252 C1256 0.949 . S
C1253 C1254 1.349 . S
C1253 C1255 1.327 . S
C1253 H1276 0.950 . S
C1254 C1253 1.349 . S
C1254 C1266 1.349 . S
C1255 C1253 1.327 . S
C1255 C1271 1.429 . S
C1255 H1277 0.950 . S
C1256 H1252 0.949 . S
C1256 C1264 1.574 . S
C1256 C1272 1.368 . S
H1257 C1265 0.950 . S
H1258 C1263 0.950 . S
H1259 C1264 0.949 . S
H1260 C1266 0.950 . S
H1261 C1267 0.950 . S
H1262 C1268 0.949 . S
C1263 H1258 0.950 . S
C1263 C1265 1.327 . S
C1263 C1269 1.429 . S
C1264 C1256 1.574 . S
C1264 H1259 0.949 . S
C1264 C1270 1.368 . S
C1265 C1249 1.349 . S
C1265 H1257 0.950 . S
C1265 C1263 1.327 . S
C1266 C1254 1.349 . S
C1266 H1260 0.950 . S
C1266 C1267 1.327 . S
C1267 H1261 0.950 . S
C1267 C1266 1.327 . S
C1267 C1271 1.429 . S
C1268 C1251 1.574 . S
C1268 H1262 0.949 . S
C1268 C1272 1.368 . S
C1269 C1250 1.429 . S
C1269 C1263 1.429 . S
C1269 C1270 1.523 . S
C1270 C1251 1.368 . S
C1270 C1264 1.368 . S
C1270 C1269 1.523 . S
C1271 C1255 1.429 . S
C1271 C1267 1.429 . S
C1271 C1272 1.523 . S
C1272 C1256 1.368 . S
C1272 C1268 1.368 . S
C1272 C1271 1.523 . S
H1273 C1248 0.950 . S
H1274 C1250 0.950 . S
H1275 C1251 0.949 . S
H1276 C1253 0.950 . S
H1277 C1255 0.950 . S
C1278 C1279 1.349 . S
C1278 C1280 1.327 . S
C1278 H1303 0.950 . S
C1279 C1278 1.349 . S
C1279 C1295 1.349 . S
C1280 C1278 1.327 . S
C1280 C1299 1.429 . S
C1280 H1304 0.950 . S
C1281 C1298 1.574 . S
C1281 C1300 1.368 . S
C1281 H1305 0.949 1_655 S
H1282 C1286 0.949 . S
C1283 C1284 1.349 . S
C1283 C1285 1.327 . S
C1283 H1306 0.950 . S
C1284 C1283 1.349 . S
C1284 C1296 1.349 . S
C1285 C1283 1.327 . S
C1285 C1301 1.429 . S
C1285 H1307 0.950 . S
C1286 H1282 0.949 . S
C1286 C1294 1.574 . S
C1286 C1302 1.368 . S
H1287 C1295 0.950 . S
H1288 C1293 0.950 . S
H1289 C1294 0.949 . S
H1290 C1296 0.950 . S
H1291 C1297 0.950 . S
H1292 C1298 0.949 . S
C1293 H1288 0.950 . S
C1293 C1295 1.327 . S
C1293 C1299 1.429 . S
C1294 C1286 1.574 . S
C1294 H1289 0.949 . S
C1294 C1300 1.368 . S
C1295 C1279 1.349 . S
C1295 H1287 0.950 . S
C1295 C1293 1.327 . S
C1296 C1284 1.349 . S
C1296 H1290 0.950 . S
C1296 C1297 1.327 . S
C1297 H1291 0.950 . S
C1297 C1296 1.327 . S
C1297 C1301 1.429 . S
C1298 C1281 1.574 . S
C1298 H1292 0.949 . S
C1298 C1302 1.368 . S
C1299 C1280 1.429 . S
C1299 C1293 1.429 . S
C1299 C1300 1.523 1_455 S
C1300 C1281 1.368 . S
C1300 C1294 1.368 . S
C1300 C1299 1.523 1_655 S
C1301 C1285 1.429 . S
C1301 C1297 1.429 . S
C1301 C1302 1.523 . S
C1302 C1286 1.368 . S
C1302 C1298 1.368 . S
C1302 C1301 1.523 . S
H1303 C1278 0.950 . S
H1304 C1280 0.950 . S
H1305 C1281 0.949 1_455 S
H1306 C1283 0.950 . S
H1307 C1285 0.950 . S
C1308 C1309 1.349 . S
C1308 C1310 1.327 . S
C1308 H1333 0.950 . S
C1309 C1308 1.349 . S
C1309 C1325 1.349 . S
C1310 C1308 1.327 . S
C1310 C1329 1.429 . S
C1310 H1334 0.950 . S
C1311 C1328 1.574 . S
C1311 C1330 1.368 . S
C1311 H1335 0.949 . S
H1312 C1316 0.949 . S
C1313 C1314 1.349 . S
C1313 C1315 1.327 . S
C1313 H1336 0.950 . S
C1314 C1313 1.349 . S
C1314 C1326 1.349 . S
C1315 C1313 1.327 . S
C1315 C1331 1.429 . S
C1315 H1337 0.950 . S
C1316 H1312 0.949 . S
C1316 C1324 1.574 . S
C1316 C1332 1.368 . S
H1317 C1325 0.950 . S
H1318 C1323 0.950 . S
H1319 C1324 0.949 . S
H1320 C1326 0.950 . S
H1321 C1327 0.950 . S
H1322 C1328 0.949 . S
C1323 H1318 0.950 . S
C1323 C1325 1.327 . S
C1323 C1329 1.429 . S
C1324 C1316 1.574 . S
C1324 H1319 0.949 . S
C1324 C1330 1.368 . S
C1325 C1309 1.349 . S
C1325 H1317 0.950 . S
C1325 C1323 1.327 . S
C1326 C1314 1.349 . S
C1326 H1320 0.950 . S
C1326 C1327 1.327 . S
C1327 H1321 0.950 . S
C1327 C1326 1.327 . S
C1327 C1331 1.429 . S
C1328 C1311 1.574 . S
C1328 H1322 0.949 . S
C1328 C1332 1.368 . S
C1329 C1310 1.429 . S
C1329 C1323 1.429 . S
C1329 C1330 1.523 . S
C1330 C1311 1.368 . S
C1330 C1324 1.368 . S
C1330 C1329 1.523 . S
C1331 C1315 1.429 . S
C1331 C1327 1.429 . S
C1331 C1332 1.523 . S
C1332 C1316 1.368 . S
C1332 C1328 1.368 . S
C1332 C1331 1.523 . S
H1333 C1308 0.950 . S
H1334 C1310 0.950 . S
H1335 C1311 0.949 . S
H1336 C1313 0.950 . S
H1337 C1315 0.950 . S
C1338 C1339 1.349 . S
C1338 C1340 1.327 . S
C1338 H1363 0.950 . S
C1339 C1338 1.349 . S
C1339 C1355 1.349 . S
C1340 C1338 1.327 . S
C1340 C1359 1.429 . S
C1340 H1364 0.950 . S
C1341 C1358 1.574 . S
C1341 C1360 1.368 . S
C1341 H1365 0.949 . S
H1342 C1346 0.949 . S
C1343 C1344 1.349 . S
C1343 C1345 1.327 . S
C1343 H1366 0.950 . S
C1344 C1343 1.349 . S
C1344 C1356 1.349 . S
C1345 C1343 1.327 . S
C1345 C1361 1.429 . S
C1345 H1367 0.950 . S
C1346 H1342 0.949 . S
C1346 C1354 1.574 . S
C1346 C1362 1.368 . S
H1347 C1355 0.950 . S
H1348 C1353 0.950 . S
H1349 C1354 0.949 . S
H1350 C1356 0.950 . S
H1351 C1357 0.950 . S
H1352 C1358 0.949 . S
C1353 H1348 0.950 . S
C1353 C1355 1.327 . S
C1353 C1359 1.429 . S
C1354 C1346 1.574 . S
C1354 H1349 0.949 . S
C1354 C1360 1.368 . S
C1355 C1339 1.349 . S
C1355 H1347 0.950 . S
C1355 C1353 1.327 . S
C1356 C1344 1.349 . S
C1356 H1350 0.950 . S
C1356 C1357 1.327 . S
C1357 H1351 0.950 . S
C1357 C1356 1.327 . S
C1357 C1361 1.429 . S
C1358 C1341 1.574 . S
C1358 H1352 0.949 . S
C1358 C1362 1.368 . S
C1359 C1340 1.429 . S
C1359 C1353 1.429 . S
C1359 C1360 1.523 1_565 S
C1360 C1341 1.368 . S
C1360 C1354 1.368 . S
C1360 C1359 1.523 1_545 S
C1361 C1345 1.429 . S
C1361 C1357 1.429 . S
C1361 C1362 1.523 . S
C1362 C1346 1.368 . S
C1362 C1358 1.368 . S
C1362 C1361 1.523 . S
H1363 C1338 0.950 . S
H1364 C1340 0.950 . S
H1365 C1341 0.949 . S
H1366 C1343 0.950 . S
H1367 C1345 0.950 . S
C1368 C1369 1.349 . S
C1368 C1370 1.327 . S
C1368 H1393 0.950 . S
C1369 C1368 1.349 . S
C1369 C1385 1.349 . S
C1370 C1368 1.327 . S
C1370 C1389 1.429 . S
C1370 H1394 0.950 . S
C1371 C1388 1.574 . S
C1371 C1390 1.368 . S
C1371 H1395 0.949 . S
H1372 C1376 0.949 . S
C1373 C1374 1.349 . S
C1373 C1375 1.327 . S
C1373 H1396 0.950 . S
C1374 C1373 1.349 . S
C1374 C1386 1.349 . S
C1375 C1373 1.327 . S
C1375 C1391 1.429 . S
C1375 H1397 0.950 . S
C1376 H1372 0.949 . S
C1376 C1384 1.574 . S
C1376 C1392 1.368 . S
H1377 C1385 0.950 . S
H1378 C1383 0.950 . S
H1379 C1384 0.949 . S
H1380 C1386 0.950 . S
H1381 C1387 0.950 . S
H1382 C1388 0.949 . S
C1383 H1378 0.950 . S
C1383 C1385 1.327 . S
C1383 C1389 1.429 . S
C1384 C1376 1.574 . S
C1384 H1379 0.949 . S
C1384 C1390 1.368 . S
C1385 C1369 1.349 . S
C1385 H1377 0.950 . S
C1385 C1383 1.327 . S
C1386 C1374 1.349 . S
C1386 H1380 0.950 . S
C1386 C1387 1.327 . S
C1387 H1381 0.950 . S
C1387 C1386 1.327 . S
C1387 C1391 1.429 . S
C1388 C1371 1.574 . S
C1388 H1382 0.949 . S
C1388 C1392 1.368 . S
C1389 C1370 1.429 . S
C1389 C1383 1.429 . S
C1389 C1390 1.523 . S
C1390 C1371 1.368 . S
C1390 C1384 1.368 . S
C1390 C1389 1.523 . S
C1391 C1375 1.429 . S
C1391 C1387 1.429 . S
C1391 C1392 1.523 . S
C1392 C1376 1.368 . S
C1392 C1388 1.368 . S
C1392 C1391 1.523 . S
H1393 C1368 0.950 . S
H1394 C1370 0.950 . S
H1395 C1371 0.949 . S
H1396 C1373 0.950 . S
H1397 C1375 0.950 . S
C1398 C1399 1.349 . S
C1398 C1400 1.327 . S
C1398 H1423 0.950 . S
C1399 C1398 1.349 . S
C1399 C1415 1.349 . S
C1400 C1398 1.327 . S
C1400 C1419 1.429 . S
C1400 H1424 0.950 . S
C1401 C1418 1.574 . S
C1401 C1420 1.368 . S
C1401 H1425 0.949 . S
H1402 C1406 0.949 . S
C1403 C1404 1.349 . S
C1403 C1405 1.327 . S
C1403 H1426 0.950 . S
C1404 C1403 1.349 . S
C1404 C1416 1.349 . S
C1405 C1403 1.327 . S
C1405 C1421 1.429 . S
C1405 H1427 0.950 . S
C1406 H1402 0.949 . S
C1406 C1414 1.574 . S
C1406 C1422 1.368 . S
H1407 C1415 0.950 . S
H1408 C1413 0.950 . S
H1409 C1414 0.949 . S
H1410 C1416 0.950 . S
H1411 C1417 0.950 . S
H1412 C1418 0.949 . S
C1413 H1408 0.950 . S
C1413 C1415 1.327 . S
C1413 C1419 1.429 . S
C1414 C1406 1.574 . S
C1414 H1409 0.949 . S
C1414 C1420 1.368 . S
C1415 C1399 1.349 . S
C1415 H1407 0.950 . S
C1415 C1413 1.327 . S
C1416 C1404 1.349 . S
C1416 H1410 0.950 . S
C1416 C1417 1.327 . S
C1417 H1411 0.950 . S
C1417 C1416 1.327 . S
C1417 C1421 1.429 . S
C1418 C1401 1.574 . S
C1418 H1412 0.949 . S
C1418 C1422 1.368 . S
C1419 C1400 1.429 . S
C1419 C1413 1.429 . S
C1419 C1420 1.523 . S
C1420 C1401 1.368 . S
C1420 C1414 1.368 . S
C1420 C1419 1.523 . S
C1421 C1405 1.429 . S
C1421 C1417 1.429 . S
C1421 C1422 1.523 . S
C1422 C1406 1.368 . S
C1422 C1418 1.368 . S
C1422 C1421 1.523 . S
H1423 C1398 0.950 . S
H1424 C1400 0.950 . S
H1425 C1401 0.949 . S
H1426 C1403 0.950 . S
H1427 C1405 0.950 . S
C1428 C1429 1.349 . S
C1428 C1430 1.327 . S
C1428 H1453 0.950 . S
C1429 C1428 1.349 . S
C1429 C1445 1.349 . S
C1430 C1428 1.327 . S
C1430 C1449 1.429 . S
C1430 H1454 0.950 . S
C1431 C1448 1.574 . S
C1431 C1450 1.368 . S
C1431 H1455 0.949 . S
H1432 C1436 0.949 . S
C1433 C1434 1.349 . S
C1433 C1435 1.327 . S
C1433 H1456 0.950 . S
C1434 C1433 1.349 . S
C1434 C1446 1.349 . S
C1435 C1433 1.327 . S
C1435 C1451 1.429 . S
C1435 H1457 0.950 . S
C1436 H1432 0.949 . S
C1436 C1444 1.574 . S
C1436 C1452 1.368 . S
H1437 C1445 0.950 . S
H1438 C1443 0.950 . S
H1439 C1444 0.949 . S
H1440 C1446 0.950 . S
H1441 C1447 0.950 . S
H1442 C1448 0.949 . S
C1443 H1438 0.950 . S
C1443 C1445 1.327 . S
C1443 C1449 1.429 . S
C1444 C1436 1.574 . S
C1444 H1439 0.949 . S
C1444 C1450 1.368 . S
C1445 C1429 1.349 . S
C1445 H1437 0.950 . S
C1445 C1443 1.327 . S
C1446 C1434 1.349 . S
C1446 H1440 0.950 . S
C1446 C1447 1.327 . S
C1447 H1441 0.950 . S
C1447 C1446 1.327 . S
C1447 C1451 1.429 . S
C1448 C1431 1.574 . S
C1448 H1442 0.949 . S
C1448 C1452 1.368 . S
C1449 C1430 1.429 . S
C1449 C1443 1.429 . S
C1449 C1450 1.523 . S
C1450 C1431 1.368 . S
C1450 C1444 1.368 . S
C1450 C1449 1.523 . S
C1451 C1435 1.429 . S
C1451 C1447 1.429 . S
C1451 C1452 1.523 . S
C1452 C1436 1.368 . S
C1452 C1448 1.368 . S
C1452 C1451 1.523 . S
H1453 C1428 0.950 . S
H1454 C1430 0.950 . S
H1455 C1431 0.949 . S
H1456 C1433 0.950 . S
H1457 C1435 0.950 . S
C1458 C1459 1.349 . S
C1458 C1460 1.327 . S
C1458 H1483 0.950 . S
C1459 C1458 1.349 . S
C1459 C1475 1.349 . S
C1460 C1458 1.327 . S
C1460 C1479 1.429 . S
C1460 H1484 0.950 . S
C1461 C1478 1.574 . S
C1461 C1480 1.368 . S
C1461 H1485 0.949 . S
H1462 C1466 0.949 . S
C1463 C1464 1.349 . S
C1463 C1465 1.327 . S
C1463 H1486 0.950 . S
C1464 C1463 1.349 . S
C1464 C1476 1.349 . S
C1465 C1463 1.327 . S
C1465 C1481 1.429 . S
C1465 H1487 0.950 . S
C1466 H1462 0.949 . S
C1466 C1474 1.574 . S
C1466 C1482 1.368 . S
H1467 C1475 0.950 . S
H1468 C1473 0.950 . S
H1469 C1474 0.949 . S
H1470 C1476 0.950 . S
H1471 C1477 0.950 . S
H1472 C1478 0.949 . S
C1473 H1468 0.950 . S
C1473 C1475 1.327 . S
C1473 C1479 1.429 . S
C1474 C1466 1.574 . S
C1474 H1469 0.949 . S
C1474 C1480 1.368 . S
C1475 C1459 1.349 . S
C1475 H1467 0.950 . S
C1475 C1473 1.327 . S
C1476 C1464 1.349 . S
C1476 H1470 0.950 . S
C1476 C1477 1.327 . S
C1477 H1471 0.950 . S
C1477 C1476 1.327 . S
C1477 C1481 1.429 . S
C1478 C1461 1.574 . S
C1478 H1472 0.949 . S
C1478 C1482 1.368 . S
C1479 C1460 1.429 . S
C1479 C1473 1.429 . S
C1479 C1480 1.523 . S
C1480 C1461 1.368 . S
C1480 C1474 1.368 . S
C1480 C1479 1.523 . S
C1481 C1465 1.429 . S
C1481 C1477 1.429 . S
C1481 C1482 1.523 . S
C1482 C1466 1.368 . S
C1482 C1478 1.368 . S
C1482 C1481 1.523 . S
H1483 C1458 0.950 . S
H1484 C1460 0.950 . S
H1485 C1461 0.949 . S
H1486 C1463 0.950 . S
H1487 C1465 0.950 . S
C1488 C1489 1.349 . S
C1488 C1490 1.327 . S
C1488 H1513 0.950 . S
C1489 C1488 1.349 . S
C1489 C1505 1.349 . S
C1490 C1488 1.327 . S
C1490 C1509 1.429 . S
C1490 H1514 0.950 . S
C1491 C1508 1.574 . S
C1491 C1510 1.368 . S
C1491 H1515 0.949 . S
H1492 C1496 0.949 . S
C1493 C1494 1.349 . S
C1493 C1495 1.327 . S
C1493 H1516 0.950 . S
C1494 C1493 1.349 . S
C1494 C1506 1.349 . S
C1495 C1493 1.327 . S
C1495 C1511 1.429 . S
C1495 H1517 0.950 . S
C1496 H1492 0.949 . S
C1496 C1504 1.574 . S
C1496 C1512 1.368 . S
H1497 C1505 0.950 . S
H1498 C1503 0.950 . S
H1499 C1504 0.949 . S
H1500 C1506 0.950 1_655 S
H1501 C1507 0.950 . S
H1502 C1508 0.949 . S
C1503 H1498 0.950 . S
C1503 C1505 1.327 . S
C1503 C1509 1.429 . S
C1504 C1496 1.574 . S
C1504 H1499 0.949 . S
C1504 C1510 1.368 . S
C1505 C1489 1.349 . S
C1505 H1497 0.950 . S
C1505 C1503 1.327 . S
C1506 C1494 1.349 . S
C1506 H1500 0.950 1_455 S
C1506 C1507 1.327 . S
C1507 H1501 0.950 . S
C1507 C1506 1.327 . S
C1507 C1511 1.429 . S
C1508 C1491 1.574 . S
C1508 H1502 0.949 . S
C1508 C1512 1.368 . S
C1509 C1490 1.429 . S
C1509 C1503 1.429 . S
C1509 C1510 1.523 . S
C1510 C1491 1.368 . S
C1510 C1504 1.368 . S
C1510 C1509 1.523 . S
C1511 C1495 1.429 . S
C1511 C1507 1.429 . S
C1511 C1512 1.523 . S
C1512 C1496 1.368 . S
C1512 C1508 1.368 . S
C1512 C1511 1.523 . S
H1513 C1488 0.950 . S
H1514 C1490 0.950 . S
H1515 C1491 0.949 . S
H1516 C1493 0.950 . S
H1517 C1495 0.950 . S
C1518 C1519 1.349 . S
C1518 C1520 1.327 . S
C1518 H1543 0.950 . S
C1519 C1518 1.349 . S
C1519 C1535 1.349 . S
C1520 C1518 1.327 . S
C1520 C1539 1.429 . S
C1520 H1544 0.950 . S
C1521 C1538 1.574 . S
C1521 C1540 1.368 . S
C1521 H1545 0.949 . S
H1522 C1526 0.949 . S
C1523 C1524 1.349 . S
C1523 C1525 1.327 . S
C1523 H1546 0.950 . S
C1524 C1523 1.349 . S
C1524 C1536 1.349 . S
C1525 C1523 1.327 . S
C1525 C1541 1.429 . S
C1525 H1547 0.950 . S
C1526 H1522 0.949 . S
C1526 C1534 1.574 . S
C1526 C1542 1.368 . S
H1527 C1535 0.950 . S
H1528 C1533 0.950 . S
H1529 C1534 0.949 . S
H1530 C1536 0.950 . S
H1531 C1537 0.950 . S
H1532 C1538 0.949 . S
C1533 H1528 0.950 . S
C1533 C1535 1.327 . S
C1533 C1539 1.429 . S
C1534 C1526 1.574 . S
C1534 H1529 0.949 . S
C1534 C1540 1.368 . S
C1535 C1519 1.349 . S
C1535 H1527 0.950 . S
C1535 C1533 1.327 . S
C1536 C1524 1.349 . S
C1536 H1530 0.950 . S
C1536 C1537 1.327 . S
C1537 H1531 0.950 . S
C1537 C1536 1.327 . S
C1537 C1541 1.429 . S
C1538 C1521 1.574 . S
C1538 H1532 0.949 . S
C1538 C1542 1.368 . S
C1539 C1520 1.429 . S
C1539 C1533 1.429 . S
C1539 C1540 1.523 . S
C1540 C1521 1.368 . S
C1540 C1534 1.368 . S
C1540 C1539 1.523 . S
C1541 C1525 1.429 . S
C1541 C1537 1.429 . S
C1541 C1542 1.523 . S
C1542 C1526 1.368 . S
C1542 C1538 1.368 . S
C1542 C1541 1.523 . S
H1543 C1518 0.950 . S
H1544 C1520 0.950 . S
H1545 C1521 0.949 . S
H1546 C1523 0.950 . S
H1547 C1525 0.950 . S
C1548 C1549 1.349 . S
C1548 C1550 1.327 . S
C1548 H1573 0.950 . S
C1549 C1548 1.349 . S
C1549 C1565 1.349 . S
C1550 C1548 1.327 . S
C1550 C1569 1.429 . S
C1550 H1574 0.950 . S
C1551 C1568 1.574 . S
C1551 C1570 1.368 . S
C1551 H1575 0.949 . S
H1552 C1556 0.949 . S
C1553 C1554 1.349 . S
C1553 C1555 1.327 . S
C1553 H1576 0.950 . S
C1554 C1553 1.349 . S
C1554 C1566 1.349 . S
C1555 C1553 1.327 . S
C1555 C1571 1.429 . S
C1555 H1577 0.950 . S
C1556 H1552 0.949 . S
C1556 C1564 1.574 . S
C1556 C1572 1.368 . S
H1557 C1565 0.950 . S
H1558 C1563 0.950 . S
H1559 C1564 0.949 . S
H1560 C1566 0.950 . S
H1561 C1567 0.950 . S
H1562 C1568 0.949 . S
C1563 H1558 0.950 . S
C1563 C1565 1.327 . S
C1563 C1569 1.429 . S
C1564 C1556 1.574 . S
C1564 H1559 0.949 . S
C1564 C1570 1.368 . S
C1565 C1549 1.349 . S
C1565 H1557 0.950 . S
C1565 C1563 1.327 . S
C1566 C1554 1.349 . S
C1566 H1560 0.950 . S
C1566 C1567 1.327 . S
C1567 H1561 0.950 . S
C1567 C1566 1.327 . S
C1567 C1571 1.429 . S
C1568 C1551 1.574 . S
C1568 H1562 0.949 . S
C1568 C1572 1.368 . S
C1569 C1550 1.429 . S
C1569 C1563 1.429 . S
C1569 C1570 1.523 . S
C1570 C1551 1.368 . S
C1570 C1564 1.368 . S
C1570 C1569 1.523 . S
C1571 C1555 1.429 . S
C1571 C1567 1.429 . S
C1571 C1572 1.523 . S
C1572 C1556 1.368 . S
C1572 C1568 1.368 . S
C1572 C1571 1.523 . S
H1573 C1548 0.950 . S
H1574 C1550 0.950 . S
H1575 C1551 0.949 . S
H1576 C1553 0.950 . S
H1577 C1555 0.950 . S
C1578 C1579 1.349 . S
C1578 C1580 1.327 . S
C1578 H1603 0.950 . S
C1579 C1578 1.349 . S
C1579 C1595 1.349 . S
C1580 C1578 1.327 . S
C1580 C1599 1.429 . S
C1580 H1604 0.950 . S
C1581 C1598 1.574 . S
C1581 C1600 1.368 . S
C1581 H1605 0.949 . S
H1582 C1586 0.949 . S
C1583 C1584 1.349 . S
C1583 C1585 1.327 . S
C1583 H1606 0.950 . S
C1584 C1583 1.349 . S
C1584 C1596 1.349 . S
C1585 C1583 1.327 . S
C1585 C1601 1.429 . S
C1585 H1607 0.950 . S
C1586 H1582 0.949 . S
C1586 C1594 1.574 . S
C1586 C1602 1.368 . S
H1587 C1595 0.950 . S
H1588 C1593 0.950 . S
H1589 C1594 0.949 . S
H1590 C1596 0.950 . S
H1591 C1597 0.950 . S
H1592 C1598 0.949 . S
C1593 H1588 0.950 . S
C1593 C1595 1.327 . S
C1593 C1599 1.429 . S
C1594 C1586 1.574 . S
C1594 H1589 0.949 . S
C1594 C1600 1.368 . S
C1595 C1579 1.349 . S
C1595 H1587 0.950 . S
C1595 C1593 1.327 . S
C1596 C1584 1.349 . S
C1596 H1590 0.950 . S
C1596 C1597 1.327 . S
C1597 H1591 0.950 . S
C1597 C1596 1.327 . S
C1597 C1601 1.429 . S
C1598 C1581 1.574 . S
C1598 H1592 0.949 . S
C1598 C1602 1.368 . S
C1599 C1580 1.429 . S
C1599 C1593 1.429 . S
C1599 C1600 1.523 . S
C1600 C1581 1.368 . S
C1600 C1594 1.368 . S
C1600 C1599 1.523 . S
C1601 C1585 1.429 . S
C1601 C1597 1.429 . S
C1601 C1602 1.523 . S
C1602 C1586 1.368 . S
C1602 C1598 1.368 . S
C1602 C1601 1.523 . S
H1603 C1578 0.950 . S
H1604 C1580 0.950 . S
H1605 C1581 0.949 . S
H1606 C1583 0.950 . S
H1607 C1585 0.950 . S
C1608 C1609 1.349 . S
C1608 C1610 1.327 . S
C1608 H1633 0.950 . S
C1609 C1608 1.349 . S
C1609 C1625 1.349 . S
C1610 C1608 1.327 . S
C1610 C1629 1.429 . S
C1610 H1634 0.950 . S
C1611 C1628 1.574 . S
C1611 C1630 1.368 . S
C1611 H1635 0.949 . S
H1612 C1616 0.949 . S
C1613 C1614 1.349 . S
C1613 C1615 1.327 . S
C1613 H1636 0.950 1_545 S
C1614 C1613 1.349 . S
C1614 C1626 1.349 . S
C1615 C1613 1.327 . S
C1615 C1631 1.429 . S
C1615 H1637 0.950 . S
C1616 H1612 0.949 . S
C1616 C1624 1.574 . S
C1616 C1632 1.368 . S
H1617 C1625 0.950 . S
H1618 C1623 0.950 . S
H1619 C1624 0.949 . S
H1620 C1626 0.950 . S
H1621 C1627 0.950 . S
H1622 C1628 0.949 . S
C1623 H1618 0.950 . S
C1623 C1625 1.327 . S
C1623 C1629 1.429 . S
C1624 C1616 1.574 . S
C1624 H1619 0.949 . S
C1624 C1630 1.368 . S
C1625 C1609 1.349 . S
C1625 H1617 0.950 . S
C1625 C1623 1.327 . S
C1626 C1614 1.349 . S
C1626 H1620 0.950 . S
C1626 C1627 1.327 . S
C1627 H1621 0.950 . S
C1627 C1626 1.327 . S
C1627 C1631 1.429 . S
C1628 C1611 1.574 . S
C1628 H1622 0.949 . S
C1628 C1632 1.368 . S
C1629 C1610 1.429 . S
C1629 C1623 1.429 . S
C1629 C1630 1.523 . S
C1630 C1611 1.368 . S
C1630 C1624 1.368 . S
C1630 C1629 1.523 . S
C1631 C1615 1.429 . S
C1631 C1627 1.429 . S
C1631 C1632 1.523 . S
C1632 C1616 1.368 . S
C1632 C1628 1.368 . S
C1632 C1631 1.523 . S
H1633 C1608 0.950 . S
H1634 C1610 0.950 . S
H1635 C1611 0.949 . S
H1636 C1613 0.950 1_565 S
H1637 C1615 0.950 . S
C1638 C1639 1.349 . S
C1638 C1640 1.327 . S
C1638 H1663 0.950 . S
C1639 C1638 1.349 . S
C1639 C1655 1.349 . S
C1640 C1638 1.327 . S
C1640 C1659 1.429 . S
C1640 H1664 0.950 . S
C1641 C1658 1.574 . S
C1641 C1660 1.368 . S
C1641 H1665 0.949 . S
H1642 C1646 0.949 . S
C1643 C1644 1.349 . S
C1643 C1645 1.327 . S
C1643 H1666 0.950 . S
C1644 C1643 1.349 . S
C1644 C1656 1.349 . S
C1645 C1643 1.327 . S
C1645 C1661 1.429 . S
C1645 H1667 0.950 . S
C1646 H1642 0.949 . S
C1646 C1654 1.574 . S
C1646 C1662 1.368 . S
H1647 C1655 0.950 . S
H1648 C1653 0.950 . S
H1649 C1654 0.949 . S
H1650 C1656 0.950 . S
H1651 C1657 0.950 . S
H1652 C1658 0.949 . S
C1653 H1648 0.950 . S
C1653 C1655 1.327 . S
C1653 C1659 1.429 . S
C1654 C1646 1.574 . S
C1654 H1649 0.949 . S
C1654 C1660 1.368 . S
C1655 C1639 1.349 . S
C1655 H1647 0.950 . S
C1655 C1653 1.327 . S
C1656 C1644 1.349 . S
C1656 H1650 0.950 . S
C1656 C1657 1.327 . S
C1657 H1651 0.950 . S
C1657 C1656 1.327 . S
C1657 C1661 1.429 . S
C1658 C1641 1.574 . S
C1658 H1652 0.949 . S
C1658 C1662 1.368 . S
C1659 C1640 1.429 . S
C1659 C1653 1.429 . S
C1659 C1660 1.523 . S
C1660 C1641 1.368 . S
C1660 C1654 1.368 . S
C1660 C1659 1.523 . S
C1661 C1645 1.429 . S
C1661 C1657 1.429 . S
C1661 C1662 1.523 . S
C1662 C1646 1.368 . S
C1662 C1658 1.368 . S
C1662 C1661 1.523 . S
H1663 C1638 0.950 . S
H1664 C1640 0.950 . S
H1665 C1641 0.949 . S
H1666 C1643 0.950 . S
H1667 C1645 0.950 . S
C1668 C1669 1.349 . S
C1668 C1670 1.327 . S
C1668 H1693 0.950 . S
C1669 C1668 1.349 . S
C1669 C1685 1.349 . S
C1670 C1668 1.327 . S
C1670 C1689 1.429 . S
C1670 H1694 0.950 . S
C1671 C1688 1.574 . S
C1671 C1690 1.368 . S
C1671 H1695 0.949 . S
H1672 C1676 0.949 . S
C1673 C1674 1.349 . S
C1673 C1675 1.327 . S
C1673 H1696 0.950 . S
C1674 C1673 1.349 . S
C1674 C1686 1.349 . S
C1675 C1673 1.327 . S
C1675 C1691 1.429 . S
C1675 H1697 0.950 . S
C1676 H1672 0.949 . S
C1676 C1684 1.574 . S
C1676 C1692 1.368 . S
H1677 C1685 0.950 . S
H1678 C1683 0.950 . S
H1679 C1684 0.949 . S
H1680 C1686 0.950 . S
H1681 C1687 0.950 . S
H1682 C1688 0.949 . S
C1683 H1678 0.950 . S
C1683 C1685 1.327 . S
C1683 C1689 1.429 . S
C1684 C1676 1.574 . S
C1684 H1679 0.949 . S
C1684 C1690 1.368 . S
C1685 C1669 1.349 . S
C1685 H1677 0.950 . S
C1685 C1683 1.327 . S
C1686 C1674 1.349 . S
C1686 H1680 0.950 . S
C1686 C1687 1.327 . S
C1687 H1681 0.950 . S
C1687 C1686 1.327 . S
C1687 C1691 1.429 . S
C1688 C1671 1.574 . S
C1688 H1682 0.949 . S
C1688 C1692 1.368 . S
C1689 C1670 1.429 . S
C1689 C1683 1.429 . S
C1689 C1690 1.523 . S
C1690 C1671 1.368 . S
C1690 C1684 1.368 . S
C1690 C1689 1.523 . S
C1691 C1675 1.429 . S
C1691 C1687 1.429 . S
C1691 C1692 1.523 . S
C1692 C1676 1.368 . S
C1692 C1688 1.368 . S
C1692 C1691 1.523 . S
H1693 C1668 0.950 . S
H1694 C1670 0.950 . S
H1695 C1671 0.949 . S
H1696 C1673 0.950 . S
H1697 C1675 0.950 . S
C1698 C1699 1.349 . S
C1698 C1700 1.327 . S
C1698 H1723 0.950 . S
C1699 C1698 1.349 . S
C1699 C1715 1.349 . S
C1700 C1698 1.327 . S
C1700 C1719 1.429 . S
C1700 H1724 0.950 . S
C1701 C1718 1.574 . S
C1701 C1720 1.368 . S
C1701 H1725 0.949 . S
H1702 C1706 0.949 . S
C1703 C1704 1.349 . S
C1703 C1705 1.327 . S
C1703 H1726 0.950 . S
C1704 C1703 1.349 . S
C1704 C1716 1.349 . S
C1705 C1703 1.327 . S
C1705 C1721 1.429 . S
C1705 H1727 0.950 . S
C1706 H1702 0.949 . S
C1706 C1714 1.574 . S
C1706 C1722 1.368 . S
H1707 C1715 0.950 . S
H1708 C1713 0.950 . S
H1709 C1714 0.949 . S
H1710 C1716 0.950 . S
H1711 C1717 0.950 . S
H1712 C1718 0.949 . S
C1713 H1708 0.950 . S
C1713 C1715 1.327 . S
C1713 C1719 1.429 . S
C1714 C1706 1.574 . S
C1714 H1709 0.949 . S
C1714 C1720 1.368 . S
C1715 C1699 1.349 . S
C1715 H1707 0.950 . S
C1715 C1713 1.327 . S
C1716 C1704 1.349 . S
C1716 H1710 0.950 . S
C1716 C1717 1.327 . S
C1717 H1711 0.950 . S
C1717 C1716 1.327 . S
C1717 C1721 1.429 . S
C1718 C1701 1.574 . S
C1718 H1712 0.949 . S
C1718 C1722 1.368 . S
C1719 C1700 1.429 . S
C1719 C1713 1.429 . S
C1719 C1720 1.523 . S
C1720 C1701 1.368 . S
C1720 C1714 1.368 . S
C1720 C1719 1.523 . S
C1721 C1705 1.429 . S
C1721 C1717 1.429 . S
C1721 C1722 1.523 . S
C1722 C1706 1.368 . S
C1722 C1718 1.368 . S
C1722 C1721 1.523 . S
H1723 C1698 0.950 . S
H1724 C1700 0.950 . S
H1725 C1701 0.949 . S
H1726 C1703 0.950 . S
H1727 C1705 0.950 . S
C1728 C1729 1.349 . S
C1728 C1730 1.327 . S
C1728 H1753 0.950 . S
C1729 C1728 1.349 . S
C1729 C1745 1.349 . S
C1730 C1728 1.327 . S
C1730 C1749 1.429 . S
C1730 H1754 0.950 . S
C1731 C1748 1.574 . S
C1731 C1750 1.368 . S
C1731 H1755 0.949 . S
H1732 C1736 0.949 . S
C1733 C1734 1.349 . S
C1733 C1735 1.327 . S
C1733 H1756 0.950 . S
C1734 C1733 1.349 . S
C1734 C1746 1.349 . S
C1735 C1733 1.327 . S
C1735 C1751 1.429 . S
C1735 H1757 0.950 . S
C1736 H1732 0.949 . S
C1736 C1744 1.574 . S
C1736 C1752 1.368 . S
H1737 C1745 0.950 . S
H1738 C1743 0.950 . S
H1739 C1744 0.949 . S
H1740 C1746 0.950 . S
H1741 C1747 0.950 . S
H1742 C1748 0.949 . S
C1743 H1738 0.950 . S
C1743 C1745 1.327 . S
C1743 C1749 1.429 . S
C1744 C1736 1.574 . S
C1744 H1739 0.949 . S
C1744 C1750 1.368 . S
C1745 C1729 1.349 . S
C1745 H1737 0.950 . S
C1745 C1743 1.327 . S
C1746 C1734 1.349 . S
C1746 H1740 0.950 . S
C1746 C1747 1.327 . S
C1747 H1741 0.950 . S
C1747 C1746 1.327 . S
C1747 C1751 1.429 . S
C1748 C1731 1.574 . S
C1748 H1742 0.949 . S
C1748 C1752 1.368 . S
C1749 C1730 1.429 . S
C1749 C1743 1.429 . S
C1749 C1750 1.523 . S
C1750 C1731 1.368 . S
C1750 C1744 1.368 . S
C1750 C1749 1.523 . S
C1751 C1735 1.429 . S
C1751 C1747 1.429 . S
C1751 C1752 1.523 . S
C1752 C1736 1.368 . S
C1752 C1748 1.368 . S
C1752 C1751 1.523 . S
H1753 C1728 0.950 . S
H1754 C1730 0.950 . S
H1755 C1731 0.949 . S
H1756 C1733 0.950 . S
H1757 C1735 0.950 . S
C1758 C1759 1.349 . S
C1758 C1760 1.327 . S
C1758 H1783 0.950 . S
C1759 C1758 1.349 . S
C1759 C1775 1.349 . S
C1760 C1758 1.327 . S
C1760 C1779 1.429 . S
C1760 H1784 0.950 . S
C1761 C1778 1.574 . S
C1761 C1780 1.368 . S
C1761 H1785 0.949 . S
H1762 C1766 0.949 . S
C1763 C1764 1.349 . S
C1763 C1765 1.327 . S
C1763 H1786 0.950 . S
C1764 C1763 1.349 . S
C1764 C1776 1.349 . S
C1765 C1763 1.327 . S
C1765 C1781 1.429 . S
C1765 H1787 0.950 . S
C1766 H1762 0.949 . S
C1766 C1774 1.574 . S
C1766 C1782 1.368 . S
H1767 C1775 0.950 . S
H1768 C1773 0.950 . S
H1769 C1774 0.949 . S
H1770 C1776 0.950 . S
H1771 C1777 0.950 . S
H1772 C1778 0.949 . S
C1773 H1768 0.950 . S
C1773 C1775 1.327 . S
C1773 C1779 1.429 . S
C1774 C1766 1.574 . S
C1774 H1769 0.949 . S
C1774 C1780 1.368 . S
C1775 C1759 1.349 . S
C1775 H1767 0.950 . S
C1775 C1773 1.327 . S
C1776 C1764 1.349 . S
C1776 H1770 0.950 . S
C1776 C1777 1.327 . S
C1777 H1771 0.950 . S
C1777 C1776 1.327 . S
C1777 C1781 1.429 . S
C1778 C1761 1.574 . S
C1778 H1772 0.949 . S
C1778 C1782 1.368 . S
C1779 C1760 1.429 . S
C1779 C1773 1.429 . S
C1779 C1780 1.523 . S
C1780 C1761 1.368 . S
C1780 C1774 1.368 . S
C1780 C1779 1.523 . S
C1781 C1765 1.429 . S
C1781 C1777 1.429 . S
C1781 C1782 1.523 . S
C1782 C1766 1.368 . S
C1782 C1778 1.368 . S
C1782 C1781 1.523 . S
H1783 C1758 0.950 . S
H1784 C1760 0.950 . S
H1785 C1761 0.949 . S
H1786 C1763 0.950 . S
H1787 C1765 0.950 . S
C1788 C1789 1.349 . S
C1788 C1790 1.327 . S
C1788 H1813 0.950 . S
C1789 C1788 1.349 . S
C1789 C1805 1.349 . S
C1790 C1788 1.327 . S
C1790 C1809 1.429 . S
C1790 H1814 0.950 . S
C1791 C1808 1.574 . S
C1791 C1810 1.368 . S
C1791 H1815 0.949 . S
H1792 C1796 0.949 . S
C1793 C1794 1.349 . S
C1793 C1795 1.327 . S
C1793 H1816 0.950 . S
C1794 C1793 1.349 . S
C1794 C1806 1.349 . S
C1795 C1793 1.327 . S
C1795 C1811 1.429 . S
C1795 H1817 0.950 . S
C1796 H1792 0.949 . S
C1796 C1804 1.574 . S
C1796 C1812 1.368 . S
H1797 C1805 0.950 . S
H1798 C1803 0.950 . S
H1799 C1804 0.949 . S
H1800 C1806 0.950 . S
H1801 C1807 0.950 . S
H1802 C1808 0.949 . S
C1803 H1798 0.950 . S
C1803 C1805 1.327 . S
C1803 C1809 1.429 . S
C1804 C1796 1.574 . S
C1804 H1799 0.949 . S
C1804 C1810 1.368 . S
C1805 C1789 1.349 . S
C1805 H1797 0.950 . S
C1805 C1803 1.327 . S
C1806 C1794 1.349 . S
C1806 H1800 0.950 . S
C1806 C1807 1.327 . S
C1807 H1801 0.950 . S
C1807 C1806 1.327 . S
C1807 C1811 1.429 . S
C1808 C1791 1.574 . S
C1808 H1802 0.949 . S
C1808 C1812 1.368 . S
C1809 C1790 1.429 . S
C1809 C1803 1.429 . S
C1809 C1810 1.523 . S
C1810 C1791 1.368 . S
C1810 C1804 1.368 . S
C1810 C1809 1.523 . S
C1811 C1795 1.429 . S
C1811 C1807 1.429 . S
C1811 C1812 1.523 . S
C1812 C1796 1.368 . S
C1812 C1808 1.368 . S
C1812 C1811 1.523 . S
H1813 C1788 0.950 . S
H1814 C1790 0.950 . S
H1815 C1791 0.949 . S
H1816 C1793 0.950 . S
H1817 C1795 0.950 . S
C1818 C1819 1.349 . S
C1818 C1820 1.327 . S
C1818 H1843 0.950 . S
C1819 C1818 1.349 . S
C1819 C1835 1.349 . S
C1820 C1818 1.327 . S
C1820 C1839 1.429 . S
C1820 H1844 0.950 . S
C1821 C1838 1.574 . S
C1821 C1840 1.368 . S
C1821 H1845 0.949 . S
H1822 C1826 0.949 . S
C1823 C1824 1.349 . S
C1823 C1825 1.327 . S
C1823 H1846 0.950 . S
C1824 C1823 1.349 . S
C1824 C1836 1.349 . S
C1825 C1823 1.327 . S
C1825 C1841 1.429 . S
C1825 H1847 0.950 . S
C1826 H1822 0.949 . S
C1826 C1834 1.574 . S
C1826 C1842 1.368 . S
H1827 C1835 0.950 . S
H1828 C1833 0.950 . S
H1829 C1834 0.949 . S
H1830 C1836 0.950 . S
H1831 C1837 0.950 . S
H1832 C1838 0.949 . S
C1833 H1828 0.950 . S
C1833 C1835 1.327 . S
C1833 C1839 1.429 . S
C1834 C1826 1.574 . S
C1834 H1829 0.949 . S
C1834 C1840 1.368 . S
C1835 C1819 1.349 . S
C1835 H1827 0.950 . S
C1835 C1833 1.327 . S
C1836 C1824 1.349 . S
C1836 H1830 0.950 . S
C1836 C1837 1.327 . S
C1837 H1831 0.950 . S
C1837 C1836 1.327 . S
C1837 C1841 1.429 . S
C1838 C1821 1.574 . S
C1838 H1832 0.949 . S
C1838 C1842 1.368 . S
C1839 C1820 1.429 . S
C1839 C1833 1.429 . S
C1839 C1840 1.523 . S
C1840 C1821 1.368 . S
C1840 C1834 1.368 . S
C1840 C1839 1.523 . S
C1841 C1825 1.429 . S
C1841 C1837 1.429 . S
C1841 C1842 1.523 . S
C1842 C1826 1.368 . S
C1842 C1838 1.368 . S
C1842 C1841 1.523 . S
H1843 C1818 0.950 . S
H1844 C1820 0.950 . S
H1845 C1821 0.949 . S
H1846 C1823 0.950 . S
H1847 C1825 0.950 . S
C1848 C1849 1.349 . S
C1848 C1850 1.327 . S
C1848 H1873 0.950 . S
C1849 C1848 1.349 . S
C1849 C1865 1.349 . S
C1850 C1848 1.327 . S
C1850 C1869 1.429 . S
C1850 H1874 0.950 . S
C1851 C1868 1.574 . S
C1851 C1870 1.368 . S
C1851 H1875 0.949 . S
H1852 C1856 0.949 . S
C1853 C1854 1.349 . S
C1853 C1855 1.327 . S
C1853 H1876 0.950 . S
C1854 C1853 1.349 . S
C1854 C1866 1.349 . S
C1855 C1853 1.327 . S
C1855 C1871 1.429 . S
C1855 H1877 0.950 . S
C1856 H1852 0.949 . S
C1856 C1864 1.574 . S
C1856 C1872 1.368 . S
H1857 C1865 0.950 . S
H1858 C1863 0.950 . S
H1859 C1864 0.949 . S
H1860 C1866 0.950 . S
H1861 C1867 0.950 . S
H1862 C1868 0.949 . S
C1863 H1858 0.950 . S
C1863 C1865 1.327 . S
C1863 C1869 1.429 . S
C1864 C1856 1.574 . S
C1864 H1859 0.949 . S
C1864 C1870 1.368 . S
C1865 C1849 1.349 . S
C1865 H1857 0.950 . S
C1865 C1863 1.327 . S
C1866 C1854 1.349 . S
C1866 H1860 0.950 . S
C1866 C1867 1.327 . S
C1867 H1861 0.950 . S
C1867 C1866 1.327 . S
C1867 C1871 1.429 . S
C1868 C1851 1.574 . S
C1868 H1862 0.949 . S
C1868 C1872 1.368 . S
C1869 C1850 1.429 . S
C1869 C1863 1.429 . S
C1869 C1870 1.523 . S
C1870 C1851 1.368 . S
C1870 C1864 1.368 . S
C1870 C1869 1.523 . S
C1871 C1855 1.429 . S
C1871 C1867 1.429 . S
C1871 C1872 1.523 . S
C1872 C1856 1.368 . S
C1872 C1868 1.368 . S
C1872 C1871 1.523 . S
H1873 C1848 0.950 . S
H1874 C1850 0.950 . S
H1875 C1851 0.949 . S
H1876 C1853 0.950 . S
H1877 C1855 0.950 . S
C1878 C1879 1.349 . S
C1878 C1880 1.327 . S
C1878 H1903 0.950 . S
C1879 C1878 1.349 . S
C1879 C1895 1.349 . S
C1880 C1878 1.327 . S
C1880 C1899 1.429 . S
C1880 H1904 0.950 . S
C1881 C1898 1.574 . S
C1881 C1900 1.368 . S
C1881 H1905 0.949 . S
H1882 C1886 0.949 . S
C1883 C1884 1.349 . S
C1883 C1885 1.327 . S
C1883 H1906 0.950 . S
C1884 C1883 1.349 . S
C1884 C1896 1.349 . S
C1885 C1883 1.327 . S
C1885 C1901 1.429 . S
C1885 H1907 0.950 . S
C1886 H1882 0.949 . S
C1886 C1894 1.574 . S
C1886 C1902 1.368 . S
H1887 C1895 0.950 . S
H1888 C1893 0.950 . S
H1889 C1894 0.949 . S
H1890 C1896 0.950 . S
H1891 C1897 0.950 . S
H1892 C1898 0.949 . S
C1893 H1888 0.950 . S
C1893 C1895 1.327 . S
C1893 C1899 1.429 . S
C1894 C1886 1.574 . S
C1894 H1889 0.949 . S
C1894 C1900 1.368 . S
C1895 C1879 1.349 . S
C1895 H1887 0.950 . S
C1895 C1893 1.327 . S
C1896 C1884 1.349 . S
C1896 H1890 0.950 . S
C1896 C1897 1.327 . S
C1897 H1891 0.950 . S
C1897 C1896 1.327 . S
C1897 C1901 1.429 . S
C1898 C1881 1.574 . S
C1898 H1892 0.949 . S
C1898 C1902 1.368 . S
C1899 C1880 1.429 . S
C1899 C1893 1.429 . S
C1899 C1900 1.523 . S
C1900 C1881 1.368 . S
C1900 C1894 1.368 . S
C1900 C1899 1.523 . S
C1901 C1885 1.429 . S
C1901 C1897 1.429 . S
C1901 C1902 1.523 . S
C1902 C1886 1.368 . S
C1902 C1898 1.368 . S
C1902 C1901 1.523 . S
H1903 C1878 0.950 . S
H1904 C1880 0.950 . S
H1905 C1881 0.949 . S
H1906 C1883 0.950 . S
H1907 C1885 0.950 . S
C1908 C1909 1.349 . S
C1908 C1910 1.327 . S
C1908 H1933 0.950 . S
C1909 C1908 1.349 . S
C1909 C1925 1.349 . S
C1910 C1908 1.327 . S
C1910 C1929 1.429 . S
C1910 H1934 0.950 . S
C1911 C1928 1.574 . S
C1911 C1930 1.368 . S
C1911 H1935 0.949 . S
H1912 C1916 0.949 . S
C1913 C1914 1.349 . S
C1913 C1915 1.327 . S
C1913 H1936 0.950 . S
C1914 C1913 1.349 . S
C1914 C1926 1.349 . S
C1915 C1913 1.327 . S
C1915 C1931 1.429 . S
C1915 H1937 0.950 . S
C1916 H1912 0.949 . S
C1916 C1924 1.574 . S
C1916 C1932 1.368 . S
H1917 C1925 0.950 . S
H1918 C1923 0.950 . S
H1919 C1924 0.949 . S
H1920 C1926 0.950 . S
H1921 C1927 0.950 . S
H1922 C1928 0.949 . S
C1923 H1918 0.950 . S
C1923 C1925 1.327 . S
C1923 C1929 1.429 . S
C1924 C1916 1.574 . S
C1924 H1919 0.949 . S
C1924 C1930 1.368 . S
C1925 C1909 1.349 . S
C1925 H1917 0.950 . S
C1925 C1923 1.327 . S
C1926 C1914 1.349 . S
C1926 H1920 0.950 . S
C1926 C1927 1.327 . S
C1927 H1921 0.950 . S
C1927 C1926 1.327 . S
C1927 C1931 1.429 . S
C1928 C1911 1.574 . S
C1928 H1922 0.949 . S
C1928 C1932 1.368 . S
C1929 C1910 1.429 . S
C1929 C1923 1.429 . S
C1929 C1930 1.523 . S
C1930 C1911 1.368 . S
C1930 C1924 1.368 . S
C1930 C1929 1.523 . S
C1931 C1915 1.429 . S
C1931 C1927 1.429 . S
C1931 C1932 1.523 . S
C1932 C1916 1.368 . S
C1932 C1928 1.368 . S
C1932 C1931 1.523 . S
H1933 C1908 0.950 . S
H1934 C1910 0.950 . S
H1935 C1911 0.949 . S
H1936 C1913 0.950 . S
H1937 C1915 0.950 . S
C1938 C1939 1.349 . S
C1938 C1940 1.327 . S
C1938 H1963 0.950 . S
C1939 C1938 1.349 . S
C1939 C1955 1.349 . S
C1940 C1938 1.327 . S
C1940 C1959 1.429 . S
C1940 H1964 0.950 . S
C1941 C1958 1.574 . S
C1941 C1960 1.368 . S
C1941 H1965 0.949 . S
H1942 C1946 0.949 . S
C1943 C1944 1.349 . S
C1943 C1945 1.327 . S
C1943 H1966 0.950 . S
C1944 C1943 1.349 . S
C1944 C1956 1.349 . S
C1945 C1943 1.327 . S
C1945 C1961 1.429 . S
C1945 H1967 0.950 . S
C1946 H1942 0.949 . S
C1946 C1954 1.574 . S
C1946 C1962 1.368 . S
H1947 C1955 0.950 . S
H1948 C1953 0.950 . S
H1949 C1954 0.949 . S
H1950 C1956 0.950 . S
H1951 C1957 0.950 . S
H1952 C1958 0.949 . S
C1953 H1948 0.950 . S
C1953 C1955 1.327 . S
C1953 C1959 1.429 . S
C1954 C1946 1.574 . S
C1954 H1949 0.949 . S
C1954 C1960 1.368 . S
C1955 C1939 1.349 . S
C1955 H1947 0.950 . S
C1955 C1953 1.327 . S
C1956 C1944 1.349 . S
C1956 H1950 0.950 . S
C1956 C1957 1.327 . S
C1957 H1951 0.950 . S
C1957 C1956 1.327 . S
C1957 C1961 1.429 . S
C1958 C1941 1.574 . S
C1958 H1952 0.949 . S
C1958 C1962 1.368 . S
C1959 C1940 1.429 . S
C1959 C1953 1.429 . S
C1959 C1960 1.523 . S
C1960 C1941 1.368 . S
C1960 C1954 1.368 . S
C1960 C1959 1.523 . S
C1961 C1945 1.429 . S
C1961 C1957 1.429 . S
C1961 C1962 1.523 . S
C1962 C1946 1.368 . S
C1962 C1958 1.368 . S
C1962 C1961 1.523 . S
H1963 C1938 0.950 . S
H1964 C1940 0.950 . S
H1965 C1941 0.949 . S
H1966 C1943 0.950 . S
H1967 C1945 0.950 . S
C1968 C1969 1.349 . S
C1968 C1970 1.327 . S
C1968 H1993 0.950 . S
C1969 C1968 1.349 . S
C1969 C1985 1.349 . S
C1970 C1968 1.327 . S
C1970 C1989 1.429 . S
C1970 H1994 0.950 . S
C1971 C1988 1.574 . S
C1971 C1990 1.368 . S
C1971 H1995 0.949 . S
H1972 C1976 0.949 . S
C1973 C1974 1.349 . S
C1973 C1975 1.327 . S
C1973 H1996 0.950 . S
C1974 C1973 1.349 . S
C1974 C1986 1.349 . S
C1975 C1973 1.327 . S
C1975 C1991 1.429 . S
C1975 H1997 0.950 . S
C1976 H1972 0.949 . S
C1976 C1984 1.574 . S
C1976 C1992 1.368 . S
H1977 C1985 0.950 . S
H1978 C1983 0.950 . S
H1979 C1984 0.949 . S
H1980 C1986 0.950 . S
H1981 C1987 0.950 . S
H1982 C1988 0.949 . S
C1983 H1978 0.950 . S
C1983 C1985 1.327 . S
C1983 C1989 1.429 . S
C1984 C1976 1.574 . S
C1984 H1979 0.949 . S
C1984 C1990 1.368 . S
C1985 C1969 1.349 . S
C1985 H1977 0.950 . S
C1985 C1983 1.327 . S
C1986 C1974 1.349 . S
C1986 H1980 0.950 . S
C1986 C1987 1.327 . S
C1987 H1981 0.950 . S
C1987 C1986 1.327 . S
C1987 C1991 1.429 . S
C1988 C1971 1.574 . S
C1988 H1982 0.949 . S
C1988 C1992 1.368 . S
C1989 C1970 1.429 . S
C1989 C1983 1.429 . S
C1989 C1990 1.523 . S
C1990 C1971 1.368 . S
C1990 C1984 1.368 . S
C1990 C1989 1.523 . S
C1991 C1975 1.429 . S
C1991 C1987 1.429 . S
C1991 C1992 1.523 . S
C1992 C1976 1.368 . S
C1992 C1988 1.368 . S
C1992 C1991 1.523 . S
H1993 C1968 0.950 . S
H1994 C1970 0.950 . S
H1995 C1971 0.949 . S
H1996 C1973 0.950 . S
H1997 C1975 0.950 . S
C379 C147 1.568 . S
C384 C204 1.548 . S
C409 C158 1.544 . S
C414 C224 1.519 . S
C439 C136 1.517 . S
C444 C247 1.522 . S
C469 C125 1.408 . S
C474 C227 1.410 1_556 S
C504 C244 1.416 . S
C499 C103 1.434 . S
C529 C114 1.435 . S
C534 C207 1.431 1_556 S
C564 C214 1.553 . S
C559 C131 1.573 . S
C594 C234 1.451 . S
C589 C109 1.475 . S
C619 C120 1.559 . S
C624 C239 1.574 . S
C649 C153 1.438 . S
C654 C219 1.447 . S
C679 C164 1.429 . S
C684 C254 1.407 . S
C714 C199 1.519 . S
C709 C142 1.512 . S
C744 C264 1.548 . S
C739 C15 1.568 . S
C769 C26 1.545 . S
C774 C284 1.520 . S
C799 C4 1.518 . S
C804 C307 1.523 . S
C829 C191 1.408 . S
C834 C287 1.410 . S
C859 C169 1.433 . S
C864 C304 1.416 . S
C889 C180 1.435 . S
C894 C267 1.437 . S
C919 C197 1.573 . S
C924 C274 1.553 . S
C949 C175 1.474 . S
C954 C294 1.451 . S
C984 C299 1.573 . S
C979 C186 1.558 . S
C1009 C21 1.438 . S
C1014 C279 1.447 . S
C1044 C314 1.407 . S
C1039 C32 1.429 . S
C1069 C10 1.512 . S
C1074 C259 1.519 . S
C1104 C324 1.548 . S
C1099 C81 1.568 . S
C1129 C92 1.544 . S
C1134 C344 1.519 . S
C1164 C367 1.523 . S
C1159 C70 1.518 . S
C1194 C347 1.410 . S
C1189 C59 1.408 . S
C1224 C364 1.416 . S
C1219 C37 1.434 . S
C1249 C48 1.435 . S
C1254 C327 1.437 . S
C1279 C65 1.572 . S
C1284 C334 1.553 . S
C1309 C43 1.475 . S
C1314 C354 1.451 . S
C1344 C359 1.573 . S
C1339 C54 1.559 . S
C1369 C87 1.438 . S
C1374 C339 1.448 . S
C1399 C98 1.429 . S
C1404 C374 1.407 . S
C1429 C76 1.512 . S
C1434 C319 1.519 . S
C1459 C170 1.315 . S
C1464 C217 1.267 . S
C1494 C237 1.684 . S
C1489 C181 1.767 . S
C1519 C192 1.521 . S
C1524 C246 1.490 . S
C1549 C71 1.725 . S
C1554 C226 1.677 . S
C1579 C82 1.596 . S
C1584 C257 1.530 . S
C1614 C206 1.267 . S
C1609 C93 1.288 . S
C1639 C38 1.315 . S
C1644 C277 1.267 . S
C1669 C49 1.767 . S
C1674 C297 1.684 . S
C1699 C60 1.522 . S
C1704 C306 1.490 . S
C1729 C137 1.725 . S
C1734 C286 1.676 . S
C1764 C317 1.529 . S
C1759 C148 1.596 . S
C1789 C159 1.288 . S
C1794 C266 1.267 . S
C1819 C104 1.315 . S
C1824 C337 1.267 . S
C1849 C115 1.767 . S
C1854 C357 1.684 . S
C1884 C366 1.490 . S
C1879 C126 1.522 . S
C1909 C5 1.725 . S
C1914 C346 1.677 . S
C1939 C16 1.596 . S
C1944 C377 1.530 . S
C1969 C27 1.288 . S
C1974 C326 1.267 . S
