# Generated by pormake.
# Topology rtl, (3,6)-cn, num edge types: 1
# Building blocks:
#     Node 0, Type 0, BuildingBlock: BELTOD_clean_linker_0, # of connection points: 3
#     Node 1, Type 0, BuildingBlock: BELTOD_clean_linker_0, # of connection points: 3
#     Node 2, Type 0, BuildingBlock: BELTOD_clean_linker_0, # of connection points: 3
#     Node 3, Type 0, BuildingBlock: BELTOD_clean_linker_0, # of connection points: 3
#     Node 4, Type 1, BuildingBlock: KUMBOL_clean_sbu_1, # of connection points: 6
#     Node 5, Type 1, BuildingBlock: KUMBOL_clean_sbu_1, # of connection points: 6
#     Edge 6, Type (0, 1), BuildingBlock: KIFKEQ_clean_linker_1, # of connection points: 2
#     Edge 7, Type (0, 1), BuildingBlock: KIFKEQ_clean_linker_1, # of connection points: 2
#     Edge 8, Type (0, 1), BuildingBlock: KIFKEQ_clean_linker_1, # of connection points: 2
#     Edge 9, Type (0, 1), BuildingBlock: KIFKEQ_clean_linker_1, # of connection points: 2
#     Edge 10, Type (0, 1), BuildingBlock: KIFKEQ_clean_linker_1, # of connection points: 2
#     Edge 11, Type (0, 1), BuildingBlock: KIFKEQ_clean_linker_1, # of connection points: 2
#     Edge 12, Type (0, 1), BuildingBlock: KIFKEQ_clean_linker_1, # of connection points: 2
#     Edge 13, Type (0, 1), BuildingBlock: KIFKEQ_clean_linker_1, # of connection points: 2
#     Edge 14, Type (0, 1), BuildingBlock: KIFKEQ_clean_linker_1, # of connection points: 2
#     Edge 15, Type (0, 1), BuildingBlock: KIFKEQ_clean_linker_1, # of connection points: 2
#     Edge 16, Type (0, 1), BuildingBlock: KIFKEQ_clean_linker_1, # of connection points: 2
#     Edge 17, Type (0, 1), BuildingBlock: KIFKEQ_clean_linker_1, # of connection points: 2
# Relax obj value: 0.019
# Max RMSD: 0.098
# Mean RMSD: 0.063
data_MOF--net-rtl--node1-KUMBOL_clean_sbu_1--node2-BELTOD_clean_linker_0--edge1-KIFKEQ_clean_linker_1
_symmetry_space_group_name_H-M    P1
_symmetry_Int_Tables_number       1
_symmetry_cell_setting            triclinic
loop_
_symmetry_equiv_pos_as_xyz
'x, y, z'
_cell_length_a     37.819977
_cell_length_b     38.381698
_cell_length_c     33.156342
_cell_angle_alpha  78.779244
_cell_angle_beta   99.786328
_cell_angle_gamma 90.569719
loop_
_atom_site_label
_atom_site_type_symbol
_atom_site_fract_x
_atom_site_fract_y
_atom_site_fract_z
_atom_type_partial_charge
P0 P 0.25721 0.89191 0.01752 0.0
H1 H 0.24615 0.94982 0.05947 0.0
H2 H 0.21022 0.95631 0.11205 0.0
H3 H 0.1746 0.84851 0.11554 0.0
H4 H 0.21196 0.84182 0.06419 0.0
H5 H 0.33111 0.86598 0.04787 0.0
H6 H 0.36097 0.80918 0.05244 0.0
H7 H 0.25905 0.76529 0.00864 0.0
H8 H 0.22977 0.82311 1.00191 0.0
H9 H 0.17954 0.88527 0.98961 0.0
H10 H 0.27266 0.9188 0.93436 0.0
O11 O 0.28921 0.92219 0.01807 0.0
H12 H 0.14166 0.8992 0.92086 0.0
H13 H 0.23505 0.93224 0.86538 0.0
C14 C 0.23225 0.89516 0.05839 0.0
C15 C 0.23104 0.92739 0.072 0.0
C16 C 0.21007 0.9312 0.10178 0.0
C17 C 0.18929 0.90299 0.11805 0.0
C18 C 0.19065 0.87062 0.10429 0.0
C19 C 0.21197 0.86676 0.07475 0.0
C20 C 0.27827 0.84883 0.02432 0.0
C21 C 0.31516 0.84415 0.03927 0.0
C22 C 0.33219 0.81141 0.04223 0.0
C23 C 0.31252 0.78241 0.03092 0.0
C24 C 0.27524 0.78708 0.01693 0.0
C25 C 0.25834 0.82005 0.01347 0.0
C26 C 0.22881 0.90181 0.96718 0.0
C27 C 0.19186 0.89574 0.96276 0.0
C28 C 0.17024 0.90343 0.92333 0.0
C29 C 0.18529 0.91714 0.88768 0.0
C30 C 0.2225 0.92242 0.89229 0.0
C31 C 0.24405 0.91466 0.93168 0.0
P32 P 0.73172 0.6458 0.64831 0.0
H33 H 0.75806 0.61153 0.58818 0.0
H34 H 0.73059 0.59795 0.52138 0.0
H35 H 0.6311 0.64777 0.53132 0.0
H36 H 0.66001 0.66359 0.5968 0.0
H37 H 0.80456 0.65941 0.63389 0.0
H38 H 0.83738 0.71357 0.6162 0.0
H39 H 0.74438 0.77631 0.62061 0.0
H40 H 0.71161 0.72142 0.63902 0.0
H41 H 0.66331 0.61061 0.65689 0.0
H42 H 0.73586 0.6755 0.7238 0.0
O43 O 0.76164 0.61294 0.66993 0.0
H44 H 0.62743 0.60186 0.71241 0.0
H45 H 0.70065 0.66537 0.78062 0.0
C46 C 0.71059 0.63716 0.59834 0.0
C47 C 0.7303 0.61949 0.57597 0.0
C48 C 0.71438 0.61151 0.53776 0.0
C49 C 0.67815 0.62078 0.52113 0.0
C50 C 0.65898 0.64007 0.54289 0.0
C51 C 0.6753 0.64872 0.58077 0.0
C52 C 0.75594 0.68639 0.63871 0.0
C53 C 0.79131 0.68476 0.63165 0.0
C54 C 0.80996 0.71583 0.62106 0.0
C55 C 0.79349 0.74933 0.61682 0.0
C56 C 0.75795 0.75092 0.62408 0.0
C57 C 0.73921 0.71964 0.63459 0.0
C58 C 0.70143 0.64516 0.68509 0.0
C59 C 0.67085 0.62414 0.68269 0.0
C60 C 0.65047 0.6188 0.71472 0.0
C61 C 0.6611 0.63319 0.75061 0.0
C62 C 0.69174 0.65421 0.75311 0.0
C63 C 0.71167 0.66023 0.72053 0.0
P64 P 0.85001 0.23201 0.04434 0.0
H65 H 0.89583 0.25202 0.9815 0.0
H66 H 0.90689 0.22624 0.92354 0.0
H67 H 0.82287 0.151 0.9451 0.0
H68 H 0.81385 0.17562 0.00531 0.0
H69 H 0.83376 0.30446 0.05169 0.0
H70 H 0.77806 0.33603 0.05076 0.0
H71 H 0.71801 0.24363 0.0272 0.0
H72 H 0.77422 0.21193 0.02823 0.0
H73 H 0.89765 0.16959 0.06721 0.0
H74 H 0.8182 0.21669 0.12071 0.0
O75 O 0.88358 0.25963 0.05305 0.0
H76 H 0.91381 0.12601 0.13213 0.0
H77 H 0.83437 0.17337 0.18569 0.0
C78 C 0.85392 0.21585 0.99773 0.0
C79 C 0.87955 0.23015 0.97365 0.0
C80 C 0.88562 0.21548 0.94002 0.0
C81 C 0.86576 0.18642 0.92921 0.0
C82 C 0.83912 0.17296 0.95269 0.0
C83 C 0.83349 0.18738 0.98684 0.0
C84 C 0.80821 0.25589 0.03959 0.0
C85 C 0.8087 0.29096 0.04592 0.0
C86 C 0.77678 0.30896 0.04572 0.0
C87 C 0.74364 0.29225 0.03917 0.0
C88 C 0.74312 0.2573 0.03199 0.0
C89 C 0.77522 0.23918 0.03246 0.0
C90 C 0.85626 0.19597 0.08879 0.0
C91 C 0.88303 0.17 0.09252 0.0
C92 C 0.89245 0.14528 0.12975 0.0
C93 C 0.87539 0.14629 0.16403 0.0
C94 C 0.84763 0.17156 0.15964 0.0
C95 C 0.83837 0.1964 0.12244 0.0
P96 P 0.36501 0.27633 0.48463 0.0
H97 H 0.33943 0.26553 0.564 0.0
H98 H 0.3427 0.3007 0.61799 0.0
H99 H 0.3899 0.38602 0.54032 0.0
H100 H 0.38812 0.34972 0.4872 0.0
H101 H 0.35333 0.20397 0.52621 0.0
H102 H 0.30009 0.16789 0.52893 0.0
H103 H 0.2366 0.25246 0.44294 0.0
H104 H 0.2903 0.28858 0.44023 0.0
H105 H 0.41357 0.26325 0.42944 0.0
H106 H 0.33003 0.33974 0.42653 0.0
O107 O 0.40106 0.24995 0.50486 0.0
H108 H 0.42505 0.29476 0.36223 0.0
H109 H 0.34025 0.37091 0.35772 0.0
C110 C 0.36252 0.30532 0.5209 0.0
C111 C 0.34988 0.29206 0.55817 0.0
C112 C 0.35173 0.31234 0.58915 0.0
C113 C 0.3664 0.34644 0.58367 0.0
C114 C 0.37877 0.35978 0.54597 0.0
C115 C 0.37723 0.33923 0.51513 0.0
C116 C 0.32601 0.24879 0.48241 0.0
C117 C 0.32813 0.21466 0.5074 0.0
C118 C 0.29754 0.19413 0.50928 0.0
C119 C 0.26407 0.20734 0.48627 0.0
C120 C 0.26207 0.2414 0.46071 0.0
C121 C 0.29277 0.26207 0.45909 0.0
C122 C 0.37119 0.29931 0.43334 0.0
C123 C 0.39739 0.28673 0.41414 0.0
C124 C 0.4037 0.30469 0.37525 0.0
C125 C 0.38356 0.33548 0.35416 0.0
C126 C 0.35665 0.3476 0.37315 0.0
C127 C 0.35053 0.32964 0.41238 0.0
C128 C 0.91772 0.08539 0.482 0.0
C129 C 0.86047 0.05652 0.47984 0.0
C130 C 0.89709 0.05758 0.49719 0.0
C131 C 0.84568 0.08271 0.44537 0.0
C132 C 0.90269 0.11273 0.44883 0.0
C133 C 0.86676 0.11078 0.42989 0.0
N134 N 0.95242 0.08622 0.5007 0.0
C135 C 0.97281 0.11512 0.49046 0.0
C136 C 0.92404 0.14155 0.43642 0.0
C137 C 0.95908 0.14301 0.45779 0.0
Gd138 Gd 0.02675 0.96627 0.5063 0.0
Gd139 Gd 0.97458 0.03731 0.553 0.0
N140 N 0.91223 0.03301 0.53083 0.0
C141 C 0.83953 0.03 0.49868 0.0
C142 C 0.89115 0.00926 0.55154 0.0
C143 C 0.8548 0.00674 0.53523 0.0
H144 H 0.90215 0.99232 0.5809 0.0
H145 H 0.83848 0.98717 0.55117 0.0
H146 H 0.1125 0.98856 0.52164 0.0
H147 H 1.00004 0.11593 0.50673 0.0
H148 H 0.16926 0.96648 0.5689 0.0
H149 H 0.81129 0.02824 0.48634 0.0
H150 H 0.8177 0.0821 0.43129 0.0
H151 H 0.9734 0.89493 0.5083 0.0
H152 H 0.9135 0.16312 0.41103 0.0
H153 H 0.97556 0.16548 0.44895 0.0
H154 H 0.13649 0.85791 0.65234 0.0
H155 H 0.85479 0.1313 0.404 0.0
H156 H 0.01897 0.8146 0.61224 0.0
H157 H 0.96937 0.83652 0.55395 0.0
N158 N 0.02223 0.90802 0.54379 0.0
C159 C 0.05103 0.89523 0.57328 0.0
C160 C 0.99421 0.88648 0.53499 0.0
C161 C 0.02031 0.84072 0.59307 0.0
C162 C 0.99225 0.85301 0.56024 0.0
C163 C 0.05075 0.86139 0.59906 0.0
H164 H 0.08149 0.82294 0.64902 0.0
N165 N 0.08181 0.94635 0.54832 0.0
C166 C 0.08203 0.91475 0.57514 0.0
C167 C 0.14505 0.92052 0.60101 0.0
C168 C 0.11351 0.90124 0.60282 0.0
C169 C 0.11284 0.96423 0.54451 0.0
C170 C 0.14485 0.95182 0.57118 0.0
O171 O 0.98037 0.04557 0.48502 0.0
O172 O 0.97338 0.98993 0.47157 0.0
O173 O 0.04667 0.98307 0.44798 0.0
O174 O 0.03871 0.92748 0.47056 0.0
O175 O 0.96185 0.97881 0.57013 0.0
O176 O 0.96791 0.95764 0.51122 0.0
O177 O 0.05033 0.98228 0.56743 0.0
O178 O 1.00088 0.98856 0.59655 0.0
O179 O 0.94645 0.05626 0.59718 0.0
O180 O 1.00022 0.07307 0.59141 0.0
O181 O 0.04791 0.02233 0.49549 0.0
O182 O 0.03204 0.05111 0.54609 0.0
C183 C 0.96873 0.02431 0.45947 0.0
C184 C 0.95306 0.95656 0.54461 0.0
C185 C 0.02897 0.94766 0.39799 0.0
C186 C 0.03377 0.93866 0.32817 0.0
C187 C 0.97511 0.94476 0.34752 0.0
C188 C 0.99146 0.94854 0.3874 0.0
C189 C 0.99602 0.93972 0.31809 0.0
C190 C 0.04998 0.94294 0.36838 0.0
C191 C 0.04653 0.95124 0.43993 0.0
C192 C 0.11272 0.86855 0.6304 0.0
C193 C 0.08136 0.84867 0.62856 0.0
H194 H 0.16984 0.91102 0.62172 0.0
C195 C 0.03483 0.97984 0.6003 0.0
C196 C 0.05198 0.04762 0.51785 0.0
C197 C 0.98473 0.06491 0.65852 0.0
C198 C 0.97352 0.07208 0.72708 0.0
C199 C 0.027 0.03991 0.72091 0.0
C200 C 0.01666 0.04586 0.67771 0.0
C201 C 0.00586 0.05311 0.74543 0.0
C202 C 0.96309 0.07757 0.68332 0.0
C203 C 0.97428 0.07251 0.61269 0.0
H204 H 0.94613 0.94541 0.3395 0.0
H205 H 0.97491 0.95189 0.41006 0.0
H206 H 0.98257 0.93605 0.28772 0.0
H207 H 0.07897 0.94285 0.37672 0.0
H208 H 0.05182 0.02548 0.73541 0.0
H209 H 0.03388 0.03599 0.6593 0.0
H210 H 0.0154 0.04905 0.77872 0.0
H211 H 0.9382 0.0917 0.66831 0.0
C212 C 0.60629 0.53854 0.04222 0.0
C213 C 0.6051 0.6009 0.00964 0.0
C214 C 0.58923 0.57153 0.03178 0.0
C215 C 0.6377 0.59605 0.99625 0.0
C216 C 0.63996 0.53392 0.03089 0.0
C217 C 0.65507 0.56258 0.0068 0.0
N218 N 0.591 0.51158 0.06577 0.0
C219 C 0.60998 0.48073 0.08326 0.0
C220 C 0.65794 0.501 0.04538 0.0
C221 C 0.64322 0.47454 0.07246 0.0
Gd222 Gd 0.45519 0.48642 0.99611 0.0
Gd223 Gd 0.5329 0.52299 0.07766 0.0
N224 N 0.55726 0.57502 0.04413 0.0
C225 C 0.5879 0.63426 1.00213 0.0
C226 C 0.54134 0.60774 0.03911 0.0
C227 C 0.55617 0.63778 0.01752 0.0
H228 H 0.5166 0.61026 0.05066 0.0
H229 H 0.54303 0.66355 0.01255 0.0
H230 H 0.49114 0.40966 0.9826 0.0
H231 H 0.59959 0.46089 0.10578 0.0
H232 H 0.48583 0.34542 0.0075 0.0
H233 H 0.59921 0.65751 0.9852 0.0
H234 H 0.65006 0.61813 0.97853 0.0
H235 H 0.38132 0.52456 0.01106 0.0
H236 H 0.68384 0.4963 0.03734 0.0
H237 H 0.65763 0.44954 0.0854 0.0
H238 H 0.38515 0.33658 0.07936 0.0
H239 H 0.68067 0.55942 0.99723 0.0
H240 H 0.31943 0.44411 0.07421 0.0
H241 H 0.32765 0.50722 0.04345 0.0
N242 N 0.40299 0.47194 0.02427 0.0
C243 C 0.398 0.437 0.03875 0.0
C244 C 0.37762 0.497 0.02429 0.0
C245 C 0.34281 0.45158 0.0599 0.0
C246 C 0.34735 0.48725 0.04258 0.0
C247 C 0.36809 0.42587 0.0577 0.0
H248 H 0.34155 0.38047 0.0883 0.0
N249 N 0.45011 0.4242 0.01342 0.0
C250 C 0.42266 0.41242 0.03379 0.0
C251 C 0.44167 0.35156 0.03908 0.0
C252 C 0.4179 0.37581 0.04756 0.0
C253 C 0.47157 0.40056 1.00226 0.0
C254 C 0.46821 0.36399 0.01566 0.0
O255 O 0.51852 0.54914 0.00916 0.0
O256 O 0.50735 0.50328 0.97469 0.0
O257 O 0.43007 0.46618 0.94066 0.0
O258 O 0.42694 0.52279 0.94238 0.0
O259 O 0.47721 0.54694 0.06958 0.0
O260 O 0.44916 0.54381 1.00233 0.0
O261 O 0.44822 0.48601 0.06295 0.0
O262 O 0.50448 0.4729 0.10089 0.0
O263 O 0.52153 0.55117 0.12479 0.0
O264 O 0.57135 0.52153 0.13509 0.0
O265 O 0.51164 0.46318 0.00524 0.0
O266 O 0.53584 0.46451 0.07384 0.0
C267 C 0.52255 0.53359 0.97836 0.0
C268 C 0.45357 0.55858 0.03559 0.0
C269 C 0.3972 0.50571 0.87865 0.0
C270 C 0.37954 0.49202 0.80907 0.0
C271 C 0.35791 0.54648 0.82476 0.0
C272 C 0.37681 0.53753 0.86541 0.0
C273 C 0.3594 0.52405 0.79666 0.0
C274 C 0.39806 0.48268 0.85047 0.0
C275 C 0.41861 0.49786 0.92113 0.0
C276 C 0.38901 0.36457 0.06815 0.0
C277 C 0.36412 0.38956 0.07317 0.0
H278 H 0.43894 0.32321 0.04913 0.0
C279 C 0.46952 0.46958 0.09656 0.0
C280 C 0.53403 0.45074 0.04006 0.0
C281 C 0.54542 0.52565 0.19409 0.0
C282 C 0.55603 0.52961 0.26773 0.0
C283 C 0.51449 0.48659 0.24281 0.0
C284 C 0.52133 0.49824 0.20236 0.0
C285 C 0.53153 0.50231 0.27533 0.0
C286 C 0.56305 0.54103 0.22692 0.0
C287 C 0.55056 0.53986 0.15102 0.0
H288 H 0.34226 0.57105 0.81489 0.0
H289 H 0.37558 0.55564 0.88648 0.0
H290 H 0.34459 0.53165 0.76519 0.0
H291 H 0.41405 0.45827 0.86019 0.0
H292 H 0.49572 0.46552 0.2489 0.0
H293 H 0.50744 0.48627 0.17745 0.0
H294 H 0.52585 0.49292 0.3065 0.0
H295 H 0.58143 0.56247 0.22053 0.0
H296 H 0.21025 0.19611 0.42369 0.0
H297 H 0.24401 0.17 0.55734 0.0
H298 H 0.15748 0.1593 0.43019 0.0
H299 H 0.19181 0.13285 0.56376 0.0
H300 H 0.07613 0.09786 0.56389 0.0
H301 H 0.12571 0.13811 0.55506 0.0
H302 H 0.14455 0.09499 0.44943 0.0
H303 H 0.09482 0.05484 0.45792 0.0
C304 C 0.2063 0.18267 0.45444 0.0
C305 C 0.2314 0.18583 0.48997 0.0
C306 C 0.17626 0.16137 0.45813 0.0
C307 C 0.17048 0.14311 0.49749 0.0
C308 C 0.19529 0.14679 0.53303 0.0
C309 C 0.22541 0.16779 0.52931 0.0
C310 C 0.09068 0.09699 0.53864 0.0
C311 C 0.08147 0.07292 0.51174 0.0
C312 C 0.11924 0.11999 0.53372 0.0
C313 C 0.13914 0.1197 0.50161 0.0
C314 C 0.12954 0.09612 0.47424 0.0
C315 C 0.10115 0.07293 0.47932 0.0
H316 H 0.36952 0.75064 0.08868 0.0
H317 H 0.29785 0.73565 0.97738 0.0
H318 H 0.4025 0.69676 0.08895 0.0
H319 H 0.32909 0.68009 0.97967 0.0
H320 H 0.41773 0.60443 0.96765 0.0
H321 H 0.38266 0.65748 0.96705 0.0
H322 H 0.40127 0.63497 0.10204 0.0
H323 H 0.43771 0.58307 0.10243 0.0
C324 C 0.36062 0.7358 0.06432 0.0
C325 C 0.33108 0.74786 0.03281 0.0
C326 C 0.37925 0.70443 0.06489 0.0
C327 C 0.36857 0.68383 0.03435 0.0
C328 C 0.33853 0.69544 0.00336 0.0
C329 C 0.32017 0.72712 1.00246 0.0
C330 C 0.41421 0.61083 0.99715 0.0
C331 C 0.43071 0.58975 0.03506 0.0
C332 C 0.39389 0.64116 0.99687 0.0
C333 C 0.38913 0.65079 0.03452 0.0
C334 C 0.40496 0.62901 0.07241 0.0
C335 C 0.42573 0.59906 0.07266 0.0
H336 H 0.83592 0.76229 0.55686 0.0
H337 H 0.79634 0.8107 0.64819 0.0
H338 H 0.87203 0.81403 0.53913 0.0
H339 H 0.83177 0.86325 0.62943 0.0
H340 H 0.93663 0.92723 0.62085 0.0
H341 H 0.89523 0.87928 0.63704 0.0
H342 H 0.86732 0.87638 0.50587 0.0
H343 H 0.9089 0.92412 0.48985 0.0
C344 C 0.83483 0.78407 0.57308 0.0
C345 C 0.81347 0.78219 0.60423 0.0
C346 C 0.85523 0.81396 0.56254 0.0
C347 C 0.85484 0.84284 0.58284 0.0
C348 C 0.83296 0.84131 0.61348 0.0
C349 C 0.81239 0.81137 0.62394 0.0
C350 C 0.92136 0.91655 0.59548 0.0
C351 C 0.92628 0.92911 0.55414 0.0
C352 C 0.89754 0.88917 0.60472 0.0
C353 C 0.8781 0.87379 0.57279 0.0
C354 C 0.88232 0.88718 0.5313 0.0
C355 C 0.90607 0.91457 0.52209 0.0
H356 H 0.67932 0.29586 0.98577 0.0
H357 H 0.73204 0.33166 0.09602 0.0
H358 H 0.62513 0.32986 0.98667 0.0
H359 H 0.67843 0.36617 0.09636 0.0
H360 H 0.5675 0.40196 0.10658 0.0
H361 H 0.6157 0.35976 0.10726 0.0
H362 H 0.6077 0.39353 0.97385 0.0
H363 H 0.5596 0.43557 0.97323 0.0
C364 C 0.67922 0.31073 0.01036 0.0
C365 C 0.71001 0.31129 0.04065 0.0
C366 C 0.64832 0.3304 0.0107 0.0
C367 C 0.6475 0.35073 0.04157 0.0
C368 C 0.67802 0.3505 0.07243 0.0
C369 C 0.7089 0.33106 0.07194 0.0
C370 C 0.57595 0.40015 0.07741 0.0
C371 C 0.56024 0.42244 0.03998 0.0
C372 C 0.60355 0.37607 0.07779 0.0
C373 C 0.61575 0.37355 0.04066 0.0
C374 C 0.59876 0.39463 1.00294 0.0
C375 C 0.57126 0.4188 1.0026 0.0
H376 H 0.14979 0.96211 0.11953 0.0
H377 H 0.1755 0.85442 0.18587 0.0
H378 H 0.11309 0.9705 0.17042 0.0
H379 H 0.13679 0.86208 0.23527 0.0
H380 H 0.09636 0.8993 0.34194 0.0
H381 H 0.13374 0.89112 0.29151 0.0
H382 H 0.05805 0.95458 0.19285 0.0
H383 H 0.02192 0.96473 0.24371 0.0
C384 C 0.14766 0.94017 0.14497 0.0
C385 C 0.1659 0.90764 0.14864 0.0
C386 C 0.12608 0.94483 0.17387 0.0
C387 C 0.12182 0.91697 0.20703 0.0
C388 C 0.13977 0.8843 0.2105 0.0
C389 C 0.16162 0.87973 0.18176 0.0
C390 C 0.08792 0.91197 0.30959 0.0
C391 C 0.05615 0.93287 0.29704 0.0
C392 C 0.10912 0.90679 0.2805 0.0
C393 C 0.09898 0.92212 0.23798 0.0
C394 C 0.06703 0.94275 0.22537 0.0
C395 C 0.04598 0.94817 0.25452 0.0
H396 H 0.58923 0.63976 0.75039 0.0
H397 H 0.68939 0.60428 0.83127 0.0
H398 H 0.55674 0.61839 0.80818 0.0
H399 H 0.6568 0.58223 0.88879 0.0
H400 H 0.52054 0.60313 0.93968 0.0
H401 H 0.55536 0.63089 0.8862 0.0
H402 H 0.6081 0.52995 0.89434 0.0
H403 H 0.57264 0.50212 0.94688 0.0
C404 C 0.60425 0.62773 0.78065 0.0
C405 C 0.64177 0.62371 0.78646 0.0
C406 C 0.58573 0.61565 0.81365 0.0
C407 C 0.60433 0.59861 0.85277 0.0
C408 C 0.6419 0.5952 0.85884 0.0
C409 C 0.6605 0.60798 0.82609 0.0
C410 C 0.53958 0.58701 0.92988 0.0
C411 C 0.54381 0.55053 0.94689 0.0
C412 C 0.5594 0.60281 0.89941 0.0
C413 C 0.58435 0.58251 0.88627 0.0
C414 C 0.58914 0.54618 0.90411 0.0
C415 C 0.5687 0.53023 0.93379 0.0
H416 H 0.83624 0.10894 0.21991 0.0
H417 H 0.94496 0.133 0.20186 0.0
H418 H 0.85892 0.0766 0.29088 0.0
H419 H 0.96745 0.10046 0.27223 0.0
H420 H 0.98555 0.08761 0.41532 0.0
H421 H 0.96237 0.11398 0.34279 0.0
H422 H 0.89821 0.02166 0.33078 0.0
H423 H 0.92119 0.99534 0.40411 0.0
C424 C 0.86494 0.10699 0.23095 0.0
C425 C 0.88881 0.12353 0.20535 0.0
C426 C 0.87789 0.0883 0.27137 0.0
C427 C 0.9149 0.08625 0.28704 0.0
C428 C 0.93876 0.1019 0.26103 0.0
C429 C 0.92589 0.12023 0.22061 0.0
C430 C 0.96635 0.07302 0.39731 0.0
C431 C 0.95504 0.03952 0.41528 0.0
C432 C 0.95336 0.08795 0.35568 0.0
C433 C 0.92864 0.06977 0.33113 0.0
C434 C 0.91716 0.03626 0.3491 0.0
C435 C 0.93046 0.02114 0.39083 0.0
H436 H 0.31961 0.35004 0.63791 0.0
H437 H 0.4209 0.39021 0.60705 0.0
H438 H 0.32589 0.38298 0.6945 0.0
H439 H 0.42634 0.42405 0.66279 0.0
H440 H 0.39477 0.51202 0.73065 0.0
H441 H 0.39317 0.47589 0.67735 0.0
H442 H 0.36651 0.38423 0.7641 0.0
H443 H 0.36815 0.42058 0.81763 0.0
C444 C 0.34334 0.36564 0.64326 0.0
C445 C 0.36972 0.36737 0.61765 0.0
C446 C 0.34688 0.38454 0.67573 0.0
C447 C 0.37664 0.40602 0.68314 0.0
C448 C 0.40294 0.40795 0.65757 0.0
C449 C 0.39965 0.38871 0.6254 0.0
C450 C 0.38877 0.4841 0.73838 0.0
C451 C 0.38141 0.46911 0.77818 0.0
C452 C 0.38807 0.46338 0.70797 0.0
C453 C 0.37956 0.42728 0.71649 0.0
C454 C 0.37284 0.41208 0.75657 0.0
C455 C 0.37405 0.43274 0.78726 0.0
H456 H 0.62508 0.65594 0.45917 0.0
H457 H 0.69053 0.55943 0.49414 0.0
H458 H 0.59531 0.63585 0.39665 0.0
H459 H 0.66208 0.54072 0.43066 0.0
H460 H 0.62768 0.53957 0.29001 0.0
H461 H 0.65761 0.56373 0.34988 0.0
H462 H 0.55471 0.58125 0.38327 0.0
H463 H 0.52484 0.55664 0.32377 0.0
C464 C 0.6332 0.63052 0.45376 0.0
C465 C 0.66046 0.60947 0.482 0.0
C466 C 0.61625 0.61918 0.41775 0.0
C467 C 0.62661 0.58688 0.40876 0.0
C468 C 0.65398 0.56601 0.43654 0.0
C469 C 0.67043 0.57696 0.47286 0.0
C470 C 0.61152 0.54887 0.30998 0.0
C471 C 0.57401 0.54613 0.30245 0.0
C472 C 0.62859 0.56251 0.34425 0.0
C473 C 0.60842 0.5743 0.37113 0.0
C474 C 0.57084 0.57254 0.36287 0.0
C475 C 0.55382 0.55827 0.32907 0.0
H476 H 0.86329 0.11553 0.92466 0.0
H477 H 0.88813 0.21809 0.85629 0.0
H478 H 0.88221 0.08718 0.87235 0.0
H479 H 0.91046 0.1895 0.80644 0.0
H480 H 0.93341 0.13452 0.70737 0.0
H481 H 0.90056 0.1601 0.75168 0.0
H482 H 0.93407 0.07096 0.85268 0.0
H483 H 0.96365 0.0437 0.80709 0.0
C484 C 0.87252 0.13218 0.89839 0.0
C485 C 0.87445 0.16923 0.89522 0.0
C486 C 0.88408 0.11575 0.86862 0.0
C487 C 0.89858 0.13579 0.83525 0.0
C488 C 0.89926 0.17297 0.8313 0.0
C489 C 0.88701 0.18944 0.86055 0.0
C490 C 0.93299 0.11981 0.73863 0.0
C491 C 0.95164 0.08702 0.75352 0.0
C492 C 0.91459 0.13489 0.76446 0.0
C493 C 0.91488 0.11802 0.80623 0.0
C494 C 0.93271 0.08478 0.82071 0.0
C495 C 0.95044 0.06936 0.79463 0.0
H496 H 0.38237 0.4078 0.32473 0.0
H497 H 0.40308 0.30782 0.29043 0.0
H498 H 0.40002 0.43959 0.26018 0.0
H499 H 0.42183 0.33976 0.22682 0.0
H500 H 0.49908 0.4118 0.15292 0.0
H501 H 0.47508 0.37914 0.21296 0.0
H502 H 0.3814 0.44884 0.18013 0.0
H503 H 0.40554 0.48158 0.11998 0.0
C504 C 0.39017 0.39253 0.30331 0.0
C505 C 0.39157 0.35512 0.31324 0.0
C506 C 0.4004 0.41081 0.26635 0.0
C507 C 0.4126 0.39215 0.23866 0.0
C508 C 0.41309 0.35485 0.24791 0.0
C509 C 0.40247 0.33658 0.28453 0.0
C510 C 0.47328 0.42 0.15844 0.0
C511 C 0.45407 0.44908 0.13174 0.0
C512 C 0.45945 0.40121 0.19264 0.0
C513 C 0.42634 0.41141 0.20121 0.0
C514 C 0.40705 0.44048 0.1744 0.0
C515 C 0.4207 0.459 0.13982 0.0
H516 H 0.13008 0.8791 0.85406 0.0
H517 H 0.18854 0.97569 0.82676 0.0
H518 H 0.09323 0.8937 0.78473 0.0
H519 H 0.15174 0.99029 0.75766 0.0
H520 H 0.10689 0.9859 0.62281 0.0
H521 H 0.14285 0.96936 0.69216 0.0
H522 H 0.04712 0.93662 0.74291 0.0
H523 H 0.01136 0.95179 0.67292 0.0
C524 C 0.13485 0.90359 0.83341 0.0
C525 C 0.16236 0.92615 0.84583 0.0
C526 C 0.11374 0.91195 0.79371 0.0
C527 C 0.11969 0.94305 0.76561 0.0
C528 C 0.14693 0.96578 0.77826 0.0
C529 C 0.16802 0.95742 0.81786 0.0
C530 C 0.09366 0.97451 0.64862 0.0
C531 C 0.05646 0.96961 0.64239 0.0
C532 C 0.11415 0.96554 0.68849 0.0
C533 C 0.09784 0.95174 0.72311 0.0
C534 C 0.06056 0.94677 0.71683 0.0
C535 C 0.04006 0.95568 0.67684 0.0
loop_
_geom_bond_atom_site_label_1
_geom_bond_atom_site_label_2
_geom_bond_distance
_geom_bond_site_symmetry_2
_ccdc_geom_bond_type
P0 O11 1.490 . S
P0 C14 1.812 . S
P0 C20 1.803 . S
P0 C26 1.819 1_554 S
H1 C15 0.941 . S
H2 C16 0.939 . S
H3 C18 0.940 . S
H4 C19 0.940 . S
H5 C21 0.939 . S
H6 C22 0.942 . S
H7 C24 0.940 . S
H8 C25 0.939 . S
H9 C27 0.941 . S
H10 C31 0.939 . S
O11 P0 1.490 . S
H12 C28 0.939 . S
H13 C30 0.940 . S
C14 P0 1.812 . S
C14 C15 1.389 . S
C14 C19 1.391 . S
C15 H1 0.941 . S
C15 C14 1.389 . S
C15 C16 1.397 . S
C16 H2 0.939 . S
C16 C15 1.397 . S
C16 C17 1.378 . S
C17 C16 1.378 . S
C17 C18 1.378 . S
C18 H3 0.940 . S
C18 C17 1.378 . S
C18 C19 1.396 . S
C19 H4 0.940 . S
C19 C14 1.391 . S
C19 C18 1.396 . S
C20 P0 1.803 . S
C20 C21 1.378 . S
C20 C25 1.400 . S
C21 H5 0.939 . S
C21 C20 1.378 . S
C21 C22 1.361 . S
C22 H6 0.942 . S
C22 C21 1.361 . S
C22 C23 1.369 . S
C23 C22 1.369 . S
C23 C24 1.404 . S
C24 H7 0.940 . S
C24 C23 1.404 . S
C24 C25 1.389 . S
C25 H8 0.939 . S
C25 C20 1.400 . S
C25 C24 1.389 . S
C26 P0 1.819 1_556 S
C26 C27 1.391 . S
C26 C31 1.391 . S
C27 H9 0.941 . S
C27 C26 1.391 . S
C27 C28 1.396 . S
C28 H12 0.939 . S
C28 C27 1.396 . S
C28 C29 1.397 . S
C29 C28 1.397 . S
C29 C30 1.385 . S
C30 H13 0.940 . S
C30 C29 1.385 . S
C30 C31 1.388 . S
C31 H10 0.939 . S
C31 C26 1.391 . S
C31 C30 1.388 . S
P32 O43 1.490 . S
P32 C46 1.812 . S
P32 C52 1.803 . S
P32 C58 1.819 . S
H33 C47 0.941 . S
H34 C48 0.939 . S
H35 C50 0.940 . S
H36 C51 0.940 . S
H37 C53 0.939 . S
H38 C54 0.942 . S
H39 C56 0.940 . S
H40 C57 0.939 . S
H41 C59 0.941 . S
H42 C63 0.939 . S
O43 P32 1.490 . S
H44 C60 0.939 . S
H45 C62 0.940 . S
C46 P32 1.812 . S
C46 C47 1.389 . S
C46 C51 1.391 . S
C47 H33 0.941 . S
C47 C46 1.389 . S
C47 C48 1.397 . S
C48 H34 0.939 . S
C48 C47 1.397 . S
C48 C49 1.378 . S
C49 C48 1.378 . S
C49 C50 1.378 . S
C50 H35 0.940 . S
C50 C49 1.378 . S
C50 C51 1.396 . S
C51 H36 0.940 . S
C51 C46 1.391 . S
C51 C50 1.396 . S
C52 P32 1.803 . S
C52 C53 1.378 . S
C52 C57 1.400 . S
C53 H37 0.939 . S
C53 C52 1.378 . S
C53 C54 1.361 . S
C54 H38 0.942 . S
C54 C53 1.361 . S
C54 C55 1.369 . S
C55 C54 1.369 . S
C55 C56 1.404 . S
C56 H39 0.940 . S
C56 C55 1.404 . S
C56 C57 1.389 . S
C57 H40 0.939 . S
C57 C52 1.400 . S
C57 C56 1.389 . S
C58 P32 1.819 . S
C58 C59 1.391 . S
C58 C63 1.391 . S
C59 H41 0.941 . S
C59 C58 1.391 . S
C59 C60 1.396 . S
C60 H44 0.939 . S
C60 C59 1.396 . S
C60 C61 1.397 . S
C61 C60 1.397 . S
C61 C62 1.385 . S
C62 H45 0.940 . S
C62 C61 1.385 . S
C62 C63 1.388 . S
C63 H42 0.939 . S
C63 C58 1.391 . S
C63 C62 1.388 . S
P64 O75 1.490 . S
P64 C78 1.812 . S
P64 C84 1.803 . S
P64 C90 1.819 . S
H65 C79 0.941 . S
H66 C80 0.939 . S
H67 C82 0.940 . S
H68 C83 0.940 . S
H69 C85 0.939 . S
H70 C86 0.942 . S
H71 C88 0.940 . S
H72 C89 0.939 . S
H73 C91 0.941 . S
H74 C95 0.939 . S
O75 P64 1.490 . S
H76 C92 0.939 . S
H77 C94 0.940 . S
C78 P64 1.812 . S
C78 C79 1.389 1_554 S
C78 C83 1.391 . S
C79 H65 0.941 . S
C79 C78 1.389 1_556 S
C79 C80 1.397 . S
C80 H66 0.939 . S
C80 C79 1.397 . S
C80 C81 1.378 . S
C81 C80 1.378 . S
C81 C82 1.378 . S
C82 H67 0.940 . S
C82 C81 1.378 . S
C82 C83 1.396 1_556 S
C83 H68 0.940 . S
C83 C78 1.391 . S
C83 C82 1.396 1_554 S
C84 P64 1.803 . S
C84 C85 1.378 . S
C84 C89 1.400 . S
C85 H69 0.939 . S
C85 C84 1.378 . S
C85 C86 1.361 . S
C86 H70 0.942 . S
C86 C85 1.361 . S
C86 C87 1.369 . S
C87 C86 1.369 . S
C87 C88 1.404 . S
C88 H71 0.940 . S
C88 C87 1.404 . S
C88 C89 1.389 . S
C89 H72 0.939 . S
C89 C84 1.400 . S
C89 C88 1.389 . S
C90 P64 1.819 . S
C90 C91 1.391 . S
C90 C95 1.391 . S
C91 H73 0.941 . S
C91 C90 1.391 . S
C91 C92 1.396 . S
C92 H76 0.939 . S
C92 C91 1.396 . S
C92 C93 1.397 . S
C93 C92 1.397 . S
C93 C94 1.385 . S
C94 H77 0.940 . S
C94 C93 1.385 . S
C94 C95 1.388 . S
C95 H74 0.939 . S
C95 C90 1.391 . S
C95 C94 1.388 . S
P96 O107 1.490 . S
P96 C110 1.812 . S
P96 C116 1.803 . S
P96 C122 1.819 . S
H97 C111 0.941 . S
H98 C112 0.939 . S
H99 C114 0.940 . S
H100 C115 0.940 . S
H101 C117 0.939 . S
H102 C118 0.942 . S
H103 C120 0.940 . S
H104 C121 0.939 . S
H105 C123 0.941 . S
H106 C127 0.939 . S
O107 P96 1.490 . S
H108 C124 0.939 . S
H109 C126 0.940 . S
C110 P96 1.812 . S
C110 C111 1.389 . S
C110 C115 1.391 . S
C111 H97 0.941 . S
C111 C110 1.389 . S
C111 C112 1.397 . S
C112 H98 0.939 . S
C112 C111 1.397 . S
C112 C113 1.378 . S
C113 C112 1.378 . S
C113 C114 1.378 . S
C114 H99 0.940 . S
C114 C113 1.378 . S
C114 C115 1.396 . S
C115 H100 0.940 . S
C115 C110 1.391 . S
C115 C114 1.396 . S
C116 P96 1.803 . S
C116 C117 1.378 . S
C116 C121 1.400 . S
C117 H101 0.939 . S
C117 C116 1.378 . S
C117 C118 1.361 . S
C118 H102 0.942 . S
C118 C117 1.361 . S
C118 C119 1.369 . S
C119 C118 1.369 . S
C119 C120 1.404 . S
C120 H103 0.940 . S
C120 C119 1.404 . S
C120 C121 1.389 . S
C121 H104 0.939 . S
C121 C116 1.400 . S
C121 C120 1.389 . S
C122 P96 1.819 . S
C122 C123 1.391 . S
C122 C127 1.391 . S
C123 H105 0.941 . S
C123 C122 1.391 . S
C123 C124 1.396 . S
C124 H108 0.939 . S
C124 C123 1.396 . S
C124 C125 1.397 . S
C125 C124 1.397 . S
C125 C126 1.385 . S
C126 H109 0.940 . S
C126 C125 1.385 . S
C126 C127 1.388 . S
C127 H106 0.939 . S
C127 C122 1.391 . S
C127 C126 1.388 . S
C128 C130 1.422 . S
C128 C132 1.415 . S
C128 N134 1.369 . S
C129 C130 1.421 . S
C129 C131 1.417 . S
C129 C141 1.422 . S
C130 C128 1.422 . S
C130 C129 1.421 . S
C130 N140 1.359 . S
C131 C129 1.417 . S
C131 C133 1.329 . S
C131 H150 0.930 . S
C132 C128 1.415 . S
C132 C133 1.437 . S
C132 C136 1.413 . S
C133 C131 1.329 . S
C133 C132 1.437 . S
C133 H155 0.929 . S
N134 C128 1.369 . S
N134 C135 1.319 1_655 S
N134 Gd139 2.622 . S
C135 N134 1.319 1_455 S
C135 C137 1.378 1_455 S
C135 H147 0.949 . S
C136 C132 1.413 . S
C136 C137 1.348 . S
C136 H152 0.931 . S
C137 C135 1.378 1_655 S
C137 C136 1.348 . S
C137 H153 0.930 1_655 S
Gd138 N158 2.622 . S
Gd138 N165 2.570 . S
Gd138 O172 2.347 1_465 S
Gd138 O173 2.468 . S
Gd138 O174 2.427 . S
Gd138 O176 2.388 1_455 S
Gd138 O177 2.386 . S
Gd138 O181 2.307 1_565 S
Gd138 C191 2.805 . S
Gd139 N134 2.622 . S
Gd139 N140 2.570 . S
Gd139 O171 2.386 . S
Gd139 O175 2.307 1_545 S
Gd139 O178 2.353 1_655 S
Gd139 O179 2.468 . S
Gd139 O180 2.427 . S
Gd139 O182 2.388 1_655 S
Gd139 C203 2.805 . S
N140 C130 1.359 . S
N140 Gd139 2.570 . S
N140 C142 1.343 . S
C141 C129 1.422 . S
C141 C143 1.321 . S
C141 H149 0.931 . S
C142 N140 1.343 . S
C142 C143 1.390 . S
C142 H144 0.931 . S
C143 C141 1.321 . S
C143 C142 1.390 . S
C143 H145 0.930 . S
H144 C142 0.931 . S
H145 C143 0.930 . S
H146 C169 0.931 . S
H147 C135 0.949 . S
H148 C170 0.930 . S
H149 C141 0.931 . S
H150 C131 0.930 . S
H151 C160 0.929 1_655 S
H152 C136 0.931 . S
H153 C137 0.930 1_455 S
H154 C192 0.930 . S
H155 C133 0.929 . S
H156 C161 0.931 . S
H157 C162 0.930 1_655 S
N158 Gd138 2.622 . S
N158 C159 1.369 . S
N158 C160 1.338 . S
C159 N158 1.369 . S
C159 C163 1.415 . S
C159 C166 1.422 . S
C160 H151 0.929 1_455 S
C160 N158 1.338 . S
C160 C162 1.378 . S
C161 H156 0.931 . S
C161 C162 1.348 . S
C161 C163 1.413 . S
C162 H157 0.930 1_455 S
C162 C160 1.378 . S
C162 C161 1.348 . S
C163 C159 1.415 . S
C163 C161 1.413 . S
C163 C193 1.437 . S
H164 C193 0.929 . S
N165 Gd138 2.570 . S
N165 C166 1.359 . S
N165 C169 1.343 . S
C166 C159 1.422 . S
C166 N165 1.359 . S
C166 C168 1.421 . S
C167 C168 1.422 . S
C167 C170 1.321 . S
C167 H194 0.931 . S
C168 C166 1.421 . S
C168 C167 1.422 . S
C168 C192 1.417 . S
C169 H146 0.931 . S
C169 N165 1.343 . S
C169 C170 1.390 . S
C170 H148 0.930 . S
C170 C167 1.321 . S
C170 C169 1.390 . S
O171 Gd139 2.386 . S
O171 C183 1.265 . S
O172 Gd138 2.347 1_645 S
O172 C183 1.252 . S
O173 Gd138 2.468 . S
O173 C191 1.263 . S
O174 Gd138 2.427 . S
O174 C191 1.252 . S
O175 Gd139 2.307 1_565 S
O175 C184 1.261 . S
O176 Gd138 2.388 1_655 S
O176 C184 1.252 . S
O177 Gd138 2.386 . S
O177 C195 1.265 . S
O178 Gd139 2.353 1_455 S
O178 C195 1.242 1_545 S
O179 Gd139 2.468 . S
O179 C203 1.263 . S
O180 Gd139 2.427 . S
O180 C203 1.252 . S
O181 Gd138 2.307 1_545 S
O181 C196 1.261 . S
O182 Gd139 2.388 1_455 S
O182 C196 1.252 . S
C183 O171 1.265 . S
C183 O172 1.252 . S
C184 O175 1.261 . S
C184 O176 1.252 . S
C185 C188 1.394 . S
C185 C190 1.370 . S
C185 C191 1.500 . S
C186 C189 1.383 . S
C186 C190 1.395 . S
C187 C188 1.396 . S
C187 C189 1.365 . S
C187 H204 0.929 . S
C188 C185 1.394 . S
C188 C187 1.396 . S
C188 H205 0.930 . S
C189 C186 1.383 . S
C189 C187 1.365 . S
C189 H206 0.931 . S
C190 C185 1.370 . S
C190 C186 1.395 . S
C190 H207 0.930 . S
C191 Gd138 2.805 . S
C191 O173 1.263 . S
C191 O174 1.252 . S
C191 C185 1.500 . S
C192 H154 0.930 . S
C192 C168 1.417 . S
C192 C193 1.329 . S
C193 C163 1.437 . S
C193 H164 0.929 . S
C193 C192 1.329 . S
H194 C167 0.931 . S
C195 O177 1.265 . S
C195 O178 1.242 1_565 S
C196 O181 1.261 . S
C196 O182 1.252 . S
C197 C200 1.394 . S
C197 C202 1.370 . S
C197 C203 1.500 . S
C198 C201 1.383 . S
C198 C202 1.395 . S
C199 C200 1.396 . S
C199 C201 1.365 . S
C199 H208 0.929 . S
C200 C197 1.394 . S
C200 C199 1.396 . S
C200 H209 0.930 . S
C201 C198 1.383 . S
C201 C199 1.365 . S
C201 H210 0.931 . S
C202 C197 1.370 . S
C202 C198 1.395 . S
C202 H211 0.930 . S
C203 Gd139 2.805 . S
C203 O179 1.263 . S
C203 O180 1.252 . S
C203 C197 1.500 . S
H204 C187 0.929 . S
H205 C188 0.930 . S
H206 C189 0.931 . S
H207 C190 0.930 . S
H208 C199 0.929 . S
H209 C200 0.930 . S
H210 C201 0.931 . S
H211 C202 0.930 . S
C212 C214 1.422 . S
C212 C216 1.415 . S
C212 N218 1.369 . S
C213 C214 1.421 . S
C213 C215 1.417 . S
C213 C225 1.422 . S
C214 C212 1.422 . S
C214 C213 1.421 . S
C214 N224 1.359 . S
C215 C213 1.417 . S
C215 C217 1.329 . S
C215 H234 0.930 . S
C216 C212 1.415 . S
C216 C217 1.437 . S
C216 C220 1.413 . S
C217 C215 1.329 . S
C217 C216 1.437 . S
C217 H239 0.929 . S
N218 C212 1.369 . S
N218 C219 1.338 . S
N218 Gd223 2.622 . S
C219 N218 1.338 . S
C219 C221 1.378 . S
C219 H231 0.929 . S
C220 C216 1.413 . S
C220 C221 1.348 . S
C220 H236 0.931 . S
C221 C219 1.378 . S
C221 C220 1.348 . S
C221 H237 0.930 . S
Gd222 N242 2.622 . S
Gd222 N249 2.570 1_556 S
Gd222 O256 2.353 . S
Gd222 O257 2.468 . S
Gd222 O258 2.427 . S
Gd222 O260 2.386 1_556 S
Gd222 O261 2.386 1_556 S
Gd222 O265 2.307 1_556 S
Gd222 C275 2.805 . S
Gd223 N218 2.622 . S
Gd223 N224 2.570 . S
Gd223 O255 2.368 1_554 S
Gd223 O259 2.307 . S
Gd223 O262 2.353 . S
Gd223 O263 2.468 . S
Gd223 O264 2.427 . S
Gd223 O266 2.388 . S
Gd223 C287 2.805 . S
N224 C214 1.359 . S
N224 Gd223 2.570 . S
N224 C226 1.343 . S
C225 C213 1.422 . S
C225 C227 1.321 . S
C225 H233 0.931 . S
C226 N224 1.343 . S
C226 C227 1.390 . S
C226 H228 0.931 . S
C227 C225 1.321 . S
C227 C226 1.390 . S
C227 H229 0.930 . S
H228 C226 0.931 . S
H229 C227 0.930 . S
H230 C253 0.931 . S
H231 C219 0.929 . S
H232 C254 0.930 . S
H233 C225 0.931 . S
H234 C215 0.930 . S
H235 C244 0.929 . S
H236 C220 0.931 . S
H237 C221 0.930 . S
H238 C276 0.930 . S
H239 C217 0.929 . S
H240 C245 0.931 . S
H241 C246 0.930 . S
N242 Gd222 2.622 . S
N242 C243 1.369 1_556 S
N242 C244 1.338 . S
C243 N242 1.369 1_554 S
C243 C247 1.415 . S
C243 C250 1.422 . S
C244 H235 0.929 . S
C244 N242 1.338 . S
C244 C246 1.378 . S
C245 H240 0.931 . S
C245 C246 1.348 1_554 S
C245 C247 1.413 . S
C246 H241 0.930 . S
C246 C244 1.378 . S
C246 C245 1.348 1_556 S
C247 C243 1.415 . S
C247 C245 1.413 . S
C247 C277 1.437 . S
H248 C277 0.929 . S
N249 Gd222 2.570 1_554 S
N249 C250 1.359 . S
N249 C253 1.343 . S
C250 C243 1.422 . S
C250 N249 1.359 . S
C250 C252 1.421 . S
C251 C252 1.422 . S
C251 C254 1.321 . S
C251 H278 0.931 . S
C252 C250 1.421 . S
C252 C251 1.422 . S
C252 C276 1.417 . S
C253 H230 0.931 . S
C253 N249 1.343 . S
C253 C254 1.390 . S
C254 H232 0.930 . S
C254 C251 1.321 . S
C254 C253 1.390 . S
O255 Gd223 2.368 1_556 S
O255 C267 1.279 . S
O256 Gd222 2.353 . S
O256 C267 1.242 . S
O257 Gd222 2.468 . S
O257 C275 1.263 . S
O258 Gd222 2.427 . S
O258 C275 1.252 . S
O259 Gd223 2.307 . S
O259 C268 1.261 . S
O260 Gd222 2.386 1_554 S
O260 C268 1.254 . S
O261 Gd222 2.386 1_554 S
O261 C279 1.265 . S
O262 Gd223 2.353 . S
O262 C279 1.242 . S
O263 Gd223 2.468 . S
O263 C287 1.263 . S
O264 Gd223 2.427 . S
O264 C287 1.252 . S
O265 Gd222 2.307 1_554 S
O265 C280 1.261 . S
O266 Gd223 2.388 . S
O266 C280 1.252 . S
C267 O255 1.279 . S
C267 O256 1.242 . S
C268 O259 1.261 . S
C268 O260 1.254 . S
C269 C272 1.394 . S
C269 C274 1.370 . S
C269 C275 1.500 . S
C270 C273 1.383 . S
C270 C274 1.395 . S
C271 C272 1.396 . S
C271 C273 1.365 . S
C271 H288 0.929 . S
C272 C269 1.394 . S
C272 C271 1.396 . S
C272 H289 0.930 . S
C273 C270 1.383 . S
C273 C271 1.365 . S
C273 H290 0.931 . S
C274 C269 1.370 . S
C274 C270 1.395 . S
C274 H291 0.930 . S
C275 Gd222 2.805 . S
C275 O257 1.263 . S
C275 O258 1.252 . S
C275 C269 1.500 . S
C276 H238 0.930 . S
C276 C252 1.417 . S
C276 C277 1.329 . S
C277 C247 1.437 . S
C277 H248 0.929 . S
C277 C276 1.329 . S
H278 C251 0.931 . S
C279 O261 1.265 . S
C279 O262 1.242 . S
C280 O265 1.261 . S
C280 O266 1.252 . S
C281 C284 1.394 . S
C281 C286 1.370 . S
C281 C287 1.500 . S
C282 C285 1.383 . S
C282 C286 1.395 . S
C283 C284 1.396 . S
C283 C285 1.365 . S
C283 H292 0.929 . S
C284 C281 1.394 . S
C284 C283 1.396 . S
C284 H293 0.930 . S
C285 C282 1.383 . S
C285 C283 1.365 . S
C285 H294 0.931 . S
C286 C281 1.370 . S
C286 C282 1.395 . S
C286 H295 0.930 . S
C287 Gd223 2.805 . S
C287 O263 1.263 . S
C287 O264 1.252 . S
C287 C281 1.500 . S
H288 C271 0.929 . S
H289 C272 0.930 . S
H290 C273 0.931 . S
H291 C274 0.930 . S
H292 C283 0.929 . S
H293 C284 0.930 . S
H294 C285 0.931 . S
H295 C286 0.930 . S
H296 C304 0.950 . S
H297 C309 0.950 . S
H298 C306 0.950 . S
H299 C308 0.950 . S
H300 C310 0.950 . S
H301 C312 0.950 . S
H302 C314 0.950 . S
H303 C315 0.950 . S
C304 H296 0.950 . S
C304 C305 1.386 . S
C304 C306 1.391 . S
C305 C304 1.386 . S
C305 C309 1.393 . S
C306 H298 0.950 . S
C306 C304 1.391 . S
C306 C307 1.400 . S
C307 C306 1.400 . S
C307 C308 1.398 . S
C307 C313 1.491 . S
C308 H299 0.950 . S
C308 C307 1.398 . S
C308 C309 1.391 . S
C309 H297 0.950 . S
C309 C305 1.393 . S
C309 C308 1.391 . S
C310 H300 0.950 . S
C310 C311 1.386 . S
C310 C312 1.391 . S
C311 C310 1.386 . S
C311 C315 1.393 . S
C312 H301 0.950 . S
C312 C310 1.391 . S
C312 C313 1.400 . S
C313 C307 1.491 . S
C313 C312 1.400 . S
C313 C314 1.398 . S
C314 H302 0.950 . S
C314 C313 1.398 . S
C314 C315 1.391 . S
C315 H303 0.950 . S
C315 C311 1.393 . S
C315 C314 1.391 . S
H316 C324 0.950 . S
H317 C329 0.950 . S
H318 C326 0.950 . S
H319 C328 0.950 . S
H320 C330 0.950 . S
H321 C332 0.950 . S
H322 C334 0.950 . S
H323 C335 0.950 . S
C324 H316 0.950 . S
C324 C325 1.386 . S
C324 C326 1.391 . S
C325 C324 1.386 . S
C325 C329 1.393 . S
C326 H318 0.950 . S
C326 C324 1.391 . S
C326 C327 1.400 . S
C327 C326 1.400 . S
C327 C328 1.398 . S
C327 C333 1.491 . S
C328 H319 0.950 . S
C328 C327 1.398 . S
C328 C329 1.391 . S
C329 H317 0.950 . S
C329 C325 1.393 . S
C329 C328 1.391 . S
C330 H320 0.950 . S
C330 C331 1.386 . S
C330 C332 1.391 . S
C331 C330 1.386 . S
C331 C335 1.393 . S
C332 H321 0.950 . S
C332 C330 1.391 . S
C332 C333 1.400 . S
C333 C327 1.491 . S
C333 C332 1.400 . S
C333 C334 1.398 . S
C334 H322 0.950 . S
C334 C333 1.398 . S
C334 C335 1.391 . S
C335 H323 0.950 . S
C335 C331 1.393 . S
C335 C334 1.391 . S
H336 C344 0.950 . S
H337 C349 0.950 . S
H338 C346 0.950 . S
H339 C348 0.950 . S
H340 C350 0.950 . S
H341 C352 0.950 . S
H342 C354 0.950 . S
H343 C355 0.950 . S
C344 H336 0.950 . S
C344 C345 1.386 . S
C344 C346 1.391 . S
C345 C344 1.386 . S
C345 C349 1.393 . S
C346 H338 0.950 . S
C346 C344 1.391 . S
C346 C347 1.400 . S
C347 C346 1.400 . S
C347 C348 1.398 . S
C347 C353 1.491 . S
C348 H339 0.950 . S
C348 C347 1.398 . S
C348 C349 1.391 . S
C349 H337 0.950 . S
C349 C345 1.393 . S
C349 C348 1.391 . S
C350 H340 0.950 . S
C350 C351 1.386 . S
C350 C352 1.391 . S
C351 C350 1.386 . S
C351 C355 1.393 . S
C352 H341 0.950 . S
C352 C350 1.391 . S
C352 C353 1.400 . S
C353 C347 1.491 . S
C353 C352 1.400 . S
C353 C354 1.398 . S
C354 H342 0.950 . S
C354 C353 1.398 . S
C354 C355 1.391 . S
C355 H343 0.950 . S
C355 C351 1.393 . S
C355 C354 1.391 . S
H356 C364 0.950 1_556 S
H357 C369 0.950 . S
H358 C366 0.950 1_556 S
H359 C368 0.950 . S
H360 C370 0.950 . S
H361 C372 0.950 . S
H362 C374 0.950 1_556 S
H363 C375 0.950 1_556 S
C364 H356 0.950 1_554 S
C364 C365 1.386 . S
C364 C366 1.391 . S
C365 C364 1.386 . S
C365 C369 1.393 . S
C366 H358 0.950 1_554 S
C366 C364 1.391 . S
C366 C367 1.400 . S
C367 C366 1.400 . S
C367 C368 1.398 . S
C367 C373 1.491 . S
C368 H359 0.950 . S
C368 C367 1.398 . S
C368 C369 1.391 . S
C369 H357 0.950 . S
C369 C365 1.393 . S
C369 C368 1.391 . S
C370 H360 0.950 . S
C370 C371 1.386 . S
C370 C372 1.391 . S
C371 C370 1.386 . S
C371 C375 1.393 . S
C372 H361 0.950 . S
C372 C370 1.391 . S
C372 C373 1.400 . S
C373 C367 1.491 . S
C373 C372 1.400 . S
C373 C374 1.398 . S
C374 H362 0.950 1_554 S
C374 C373 1.398 . S
C374 C375 1.391 . S
C375 H363 0.950 1_554 S
C375 C371 1.393 . S
C375 C374 1.391 . S
H376 C384 0.950 . S
H377 C389 0.950 . S
H378 C386 0.950 . S
H379 C388 0.950 . S
H380 C390 0.950 . S
H381 C392 0.950 . S
H382 C394 0.950 . S
H383 C395 0.950 1_545 S
C384 H376 0.950 . S
C384 C385 1.386 . S
C384 C386 1.391 . S
C385 C384 1.386 . S
C385 C389 1.393 . S
C386 H378 0.950 . S
C386 C384 1.391 . S
C386 C387 1.400 . S
C387 C386 1.400 . S
C387 C388 1.398 . S
C387 C393 1.491 . S
C388 H379 0.950 . S
C388 C387 1.398 . S
C388 C389 1.391 . S
C389 H377 0.950 . S
C389 C385 1.393 . S
C389 C388 1.391 . S
C390 H380 0.950 . S
C390 C391 1.386 . S
C390 C392 1.391 . S
C391 C390 1.386 . S
C391 C395 1.393 . S
C392 H381 0.950 . S
C392 C390 1.391 . S
C392 C393 1.400 . S
C393 C387 1.491 . S
C393 C392 1.400 . S
C393 C394 1.398 . S
C394 H382 0.950 . S
C394 C393 1.398 . S
C394 C395 1.391 . S
C395 H383 0.950 1_565 S
C395 C391 1.393 . S
C395 C394 1.391 . S
H396 C404 0.950 . S
H397 C409 0.950 . S
H398 C406 0.950 . S
H399 C408 0.950 . S
H400 C410 0.950 . S
H401 C412 0.950 . S
H402 C414 0.950 . S
H403 C415 0.950 . S
C404 H396 0.950 . S
C404 C405 1.386 . S
C404 C406 1.391 . S
C405 C404 1.386 . S
C405 C409 1.393 . S
C406 H398 0.950 . S
C406 C404 1.391 . S
C406 C407 1.400 . S
C407 C406 1.400 . S
C407 C408 1.398 . S
C407 C413 1.491 . S
C408 H399 0.950 . S
C408 C407 1.398 . S
C408 C409 1.391 . S
C409 H397 0.950 . S
C409 C405 1.393 . S
C409 C408 1.391 . S
C410 H400 0.950 . S
C410 C411 1.386 . S
C410 C412 1.391 . S
C411 C410 1.386 . S
C411 C415 1.393 . S
C412 H401 0.950 . S
C412 C410 1.391 . S
C412 C413 1.400 . S
C413 C407 1.491 . S
C413 C412 1.400 . S
C413 C414 1.398 . S
C414 H402 0.950 . S
C414 C413 1.398 . S
C414 C415 1.391 . S
C415 H403 0.950 . S
C415 C411 1.393 . S
C415 C414 1.391 . S
H416 C424 0.950 . S
H417 C429 0.950 . S
H418 C426 0.950 . S
H419 C428 0.950 . S
H420 C430 0.950 . S
H421 C432 0.950 . S
H422 C434 0.950 . S
H423 C435 0.950 . S
C424 H416 0.950 . S
C424 C425 1.386 . S
C424 C426 1.391 . S
C425 C424 1.386 . S
C425 C429 1.393 . S
C426 H418 0.950 . S
C426 C424 1.391 . S
C426 C427 1.400 . S
C427 C426 1.400 . S
C427 C428 1.398 . S
C427 C433 1.491 . S
C428 H419 0.950 . S
C428 C427 1.398 . S
C428 C429 1.391 . S
C429 H417 0.950 . S
C429 C425 1.393 . S
C429 C428 1.391 . S
C430 H420 0.950 . S
C430 C431 1.386 . S
C430 C432 1.391 . S
C431 C430 1.386 . S
C431 C435 1.393 . S
C432 H421 0.950 . S
C432 C430 1.391 . S
C432 C433 1.400 . S
C433 C427 1.491 . S
C433 C432 1.400 . S
C433 C434 1.398 . S
C434 H422 0.950 . S
C434 C433 1.398 . S
C434 C435 1.391 . S
C435 H423 0.950 . S
C435 C431 1.393 . S
C435 C434 1.391 . S
H436 C444 0.950 . S
H437 C449 0.950 . S
H438 C446 0.950 . S
H439 C448 0.950 . S
H440 C450 0.950 . S
H441 C452 0.950 . S
H442 C454 0.950 . S
H443 C455 0.950 . S
C444 H436 0.950 . S
C444 C445 1.386 . S
C444 C446 1.391 . S
C445 C444 1.386 . S
C445 C449 1.393 . S
C446 H438 0.950 . S
C446 C444 1.391 . S
C446 C447 1.400 . S
C447 C446 1.400 . S
C447 C448 1.398 . S
C447 C453 1.491 . S
C448 H439 0.950 . S
C448 C447 1.398 . S
C448 C449 1.391 . S
C449 H437 0.950 . S
C449 C445 1.393 . S
C449 C448 1.391 . S
C450 H440 0.950 . S
C450 C451 1.386 . S
C450 C452 1.391 . S
C451 C450 1.386 . S
C451 C455 1.393 . S
C452 H441 0.950 . S
C452 C450 1.391 . S
C452 C453 1.400 . S
C453 C447 1.491 . S
C453 C452 1.400 . S
C453 C454 1.398 . S
C454 H442 0.950 . S
C454 C453 1.398 . S
C454 C455 1.391 . S
C455 H443 0.950 . S
C455 C451 1.393 . S
C455 C454 1.391 . S
H456 C464 0.950 . S
H457 C469 0.950 . S
H458 C466 0.950 . S
H459 C468 0.950 . S
H460 C470 0.950 . S
H461 C472 0.950 . S
H462 C474 0.950 . S
H463 C475 0.950 . S
C464 H456 0.950 . S
C464 C465 1.386 . S
C464 C466 1.391 . S
C465 C464 1.386 . S
C465 C469 1.393 . S
C466 H458 0.950 . S
C466 C464 1.391 . S
C466 C467 1.400 . S
C467 C466 1.400 . S
C467 C468 1.398 . S
C467 C473 1.491 . S
C468 H459 0.950 . S
C468 C467 1.398 . S
C468 C469 1.391 . S
C469 H457 0.950 . S
C469 C465 1.393 . S
C469 C468 1.391 . S
C470 H460 0.950 . S
C470 C471 1.386 . S
C470 C472 1.391 . S
C471 C470 1.386 . S
C471 C475 1.393 . S
C472 H461 0.950 . S
C472 C470 1.391 . S
C472 C473 1.400 . S
C473 C467 1.491 . S
C473 C472 1.400 . S
C473 C474 1.398 . S
C474 H462 0.950 . S
C474 C473 1.398 . S
C474 C475 1.391 . S
C475 H463 0.950 . S
C475 C471 1.393 . S
C475 C474 1.391 . S
H476 C484 0.950 . S
H477 C489 0.950 . S
H478 C486 0.950 . S
H479 C488 0.950 . S
H480 C490 0.950 . S
H481 C492 0.950 . S
H482 C494 0.950 . S
H483 C495 0.950 . S
C484 H476 0.950 . S
C484 C485 1.386 . S
C484 C486 1.391 . S
C485 C484 1.386 . S
C485 C489 1.393 . S
C486 H478 0.950 . S
C486 C484 1.391 . S
C486 C487 1.400 . S
C487 C486 1.400 . S
C487 C488 1.398 . S
C487 C493 1.491 . S
C488 H479 0.950 . S
C488 C487 1.398 . S
C488 C489 1.391 . S
C489 H477 0.950 . S
C489 C485 1.393 . S
C489 C488 1.391 . S
C490 H480 0.950 . S
C490 C491 1.386 . S
C490 C492 1.391 . S
C491 C490 1.386 . S
C491 C495 1.393 . S
C492 H481 0.950 . S
C492 C490 1.391 . S
C492 C493 1.400 . S
C493 C487 1.491 . S
C493 C492 1.400 . S
C493 C494 1.398 . S
C494 H482 0.950 . S
C494 C493 1.398 . S
C494 C495 1.391 . S
C495 H483 0.950 . S
C495 C491 1.393 . S
C495 C494 1.391 . S
H496 C504 0.950 . S
H497 C509 0.950 . S
H498 C506 0.950 . S
H499 C508 0.950 . S
H500 C510 0.950 . S
H501 C512 0.950 . S
H502 C514 0.950 . S
H503 C515 0.950 . S
C504 H496 0.950 . S
C504 C505 1.386 . S
C504 C506 1.391 . S
C505 C504 1.386 . S
C505 C509 1.393 . S
C506 H498 0.950 . S
C506 C504 1.391 . S
C506 C507 1.400 . S
C507 C506 1.400 . S
C507 C508 1.398 . S
C507 C513 1.491 . S
C508 H499 0.950 . S
C508 C507 1.398 . S
C508 C509 1.391 . S
C509 H497 0.950 . S
C509 C505 1.393 . S
C509 C508 1.391 . S
C510 H500 0.950 . S
C510 C511 1.386 . S
C510 C512 1.391 . S
C511 C510 1.386 . S
C511 C515 1.393 . S
C512 H501 0.950 . S
C512 C510 1.391 . S
C512 C513 1.400 . S
C513 C507 1.491 . S
C513 C512 1.400 . S
C513 C514 1.398 . S
C514 H502 0.950 . S
C514 C513 1.398 . S
C514 C515 1.391 . S
C515 H503 0.950 . S
C515 C511 1.393 . S
C515 C514 1.391 . S
H516 C524 0.950 . S
H517 C529 0.950 . S
H518 C526 0.950 . S
H519 C528 0.950 . S
H520 C530 0.950 . S
H521 C532 0.950 . S
H522 C534 0.950 . S
H523 C535 0.950 . S
C524 H516 0.950 . S
C524 C525 1.386 . S
C524 C526 1.391 . S
C525 C524 1.386 . S
C525 C529 1.393 . S
C526 H518 0.950 . S
C526 C524 1.391 . S
C526 C527 1.400 . S
C527 C526 1.400 . S
C527 C528 1.398 . S
C527 C533 1.491 . S
C528 H519 0.950 . S
C528 C527 1.398 . S
C528 C529 1.391 . S
C529 H517 0.950 . S
C529 C525 1.393 . S
C529 C528 1.391 . S
C530 H520 0.950 . S
C530 C531 1.386 . S
C530 C532 1.391 . S
C531 C530 1.386 . S
C531 C535 1.393 . S
C532 H521 0.950 . S
C532 C530 1.391 . S
C532 C533 1.400 . S
C533 C527 1.491 . S
C533 C532 1.400 . S
C533 C534 1.398 . S
C534 H522 0.950 . S
C534 C533 1.398 . S
C534 C535 1.391 . S
C535 H523 0.950 . S
C535 C531 1.393 . S
C535 C534 1.391 . S
C311 C196 1.614 . S
C305 C119 1.618 . S
C325 C23 1.612 . S
C331 C268 1.585 . S
C345 C55 1.569 . S
C351 C184 1.625 . S
C365 C87 1.543 . S
C371 C280 1.588 . S
C391 C186 1.401 . S
C385 C17 1.545 . S
C411 C267 1.605 . S
C405 C61 1.527 . S
C425 C93 1.502 . S
C431 C183 1.597 . S
C445 C113 1.516 . S
C451 C270 1.374 . S
C471 C282 1.391 . S
C465 C49 1.492 . S
C491 C198 1.380 . S
C485 C81 1.507 . S
C511 C279 1.604 . S
C505 C125 1.592 . S
C525 C29 1.586 . S
C531 C195 1.596 . S
