# Generated by pormake.
# Topology apo, (3,6)-cn, num edge types: 1
# Building blocks:
#     Node 0, Type 0, BuildingBlock: BELTOD_clean_linker_0, # of connection points: 3
#     Node 1, Type 0, BuildingBlock: BELTOD_clean_linker_0, # of connection points: 3
#     Node 2, Type 0, BuildingBlock: BELTOD_clean_linker_0, # of connection points: 3
#     Node 3, Type 0, BuildingBlock: BELTOD_clean_linker_0, # of connection points: 3
#     Node 4, Type 0, BuildingBlock: BELTOD_clean_linker_0, # of connection points: 3
#     Node 5, Type 0, BuildingBlock: BELTOD_clean_linker_0, # of connection points: 3
#     Node 6, Type 0, BuildingBlock: BELTOD_clean_linker_0, # of connection points: 3
#     Node 7, Type 0, BuildingBlock: BELTOD_clean_linker_0, # of connection points: 3
#     Node 8, Type 1, BuildingBlock: KUMBUR_clean_sbu_1, # of connection points: 6
#     Node 9, Type 1, BuildingBlock: KUMBUR_clean_sbu_1, # of connection points: 6
#     Node 10, Type 1, BuildingBlock: KUMBUR_clean_sbu_1, # of connection points: 6
#     Node 11, Type 1, BuildingBlock: KUMBUR_clean_sbu_1, # of connection points: 6
#     Edge 12, Type (0, 1), BuildingBlock: AJUNOK_clean_linker_0, # of connection points: 2
#     Edge 13, Type (0, 1), BuildingBlock: AJUNOK_clean_linker_0, # of connection points: 2
#     Edge 14, Type (0, 1), BuildingBlock: AJUNOK_clean_linker_0, # of connection points: 2
#     Edge 15, Type (0, 1), BuildingBlock: AJUNOK_clean_linker_0, # of connection points: 2
#     Edge 16, Type (0, 1), BuildingBlock: AJUNOK_clean_linker_0, # of connection points: 2
#     Edge 17, Type (0, 1), BuildingBlock: AJUNOK_clean_linker_0, # of connection points: 2
#     Edge 18, Type (0, 1), BuildingBlock: AJUNOK_clean_linker_0, # of connection points: 2
#     Edge 19, Type (0, 1), BuildingBlock: AJUNOK_clean_linker_0, # of connection points: 2
#     Edge 20, Type (0, 1), BuildingBlock: AJUNOK_clean_linker_0, # of connection points: 2
#     Edge 21, Type (0, 1), BuildingBlock: AJUNOK_clean_linker_0, # of connection points: 2
#     Edge 22, Type (0, 1), BuildingBlock: AJUNOK_clean_linker_0, # of connection points: 2
#     Edge 23, Type (0, 1), BuildingBlock: AJUNOK_clean_linker_0, # of connection points: 2
#     Edge 24, Type (0, 1), BuildingBlock: AJUNOK_clean_linker_0, # of connection points: 2
#     Edge 25, Type (0, 1), BuildingBlock: AJUNOK_clean_linker_0, # of connection points: 2
#     Edge 26, Type (0, 1), BuildingBlock: AJUNOK_clean_linker_0, # of connection points: 2
#     Edge 27, Type (0, 1), BuildingBlock: AJUNOK_clean_linker_0, # of connection points: 2
#     Edge 28, Type (0, 1), BuildingBlock: AJUNOK_clean_linker_0, # of connection points: 2
#     Edge 29, Type (0, 1), BuildingBlock: AJUNOK_clean_linker_0, # of connection points: 2
#     Edge 30, Type (0, 1), BuildingBlock: AJUNOK_clean_linker_0, # of connection points: 2
#     Edge 31, Type (0, 1), BuildingBlock: AJUNOK_clean_linker_0, # of connection points: 2
#     Edge 32, Type (0, 1), BuildingBlock: AJUNOK_clean_linker_0, # of connection points: 2
#     Edge 33, Type (0, 1), BuildingBlock: AJUNOK_clean_linker_0, # of connection points: 2
#     Edge 34, Type (0, 1), BuildingBlock: AJUNOK_clean_linker_0, # of connection points: 2
#     Edge 35, Type (0, 1), BuildingBlock: AJUNOK_clean_linker_0, # of connection points: 2
# Relax obj value: 0.007
# Max RMSD: 0.128
# Mean RMSD: 0.093
data_MOF--net-apo--node1-KUMBUR_clean_sbu_1--node2-BELTOD_clean_linker_0--edge1-AJUNOK_clean_linker_0
_symmetry_space_group_name_H-M    P1
_symmetry_Int_Tables_number       1
_symmetry_cell_setting            triclinic
loop_
_symmetry_equiv_pos_as_xyz
'x, y, z'
_cell_length_a     21.324664
_cell_length_b     36.923275
_cell_length_c     47.877646
_cell_angle_alpha  89.671334
_cell_angle_beta   90.049655
_cell_angle_gamma 90.2372
loop_
_atom_site_label
_atom_site_type_symbol
_atom_site_fract_x
_atom_site_fract_y
_atom_site_fract_z
_atom_type_partial_charge
P0 P 0.33876 0.35887 0.39634 0.0
H1 H 0.38091 0.31016 0.44057 0.0
H2 H 0.38415 0.31553 0.49148 0.0
H3 H 0.28205 0.41605 0.48579 0.0
H4 H 0.27819 0.41023 0.43481 0.0
H5 H 0.34402 0.32478 0.34222 0.0
H6 H 0.27409 0.28385 0.317 0.0
H7 H 0.14214 0.28753 0.38524 0.0
H8 H 0.21283 0.32896 0.41055 0.0
H9 H 0.42058 0.42083 0.40538 0.0
H10 H 0.26067 0.39571 0.35369 0.0
O11 O 0.40991 0.34194 0.39036 0.0
H12 H 0.43459 0.47824 0.38035 0.0
H13 H 0.27417 0.45327 0.32875 0.0
C14 C 0.33009 0.36004 0.43387 0.0
C15 C 0.35847 0.33313 0.45029 0.0
C16 C 0.36083 0.33638 0.47939 0.0
C17 C 0.33459 0.36662 0.49264 0.0
C18 C 0.30294 0.39251 0.4762 0.0
C19 C 0.30071 0.38924 0.44704 0.0
C20 C 0.28414 0.32945 0.37844 0.0
C21 C 0.30012 0.31677 0.35184 0.0
C22 C 0.26012 0.29338 0.33743 0.0
C23 C 0.20272 0.28239 0.34915 0.0
C24 C 0.18587 0.29579 0.3756 0.0
C25 C 0.22634 0.31923 0.39014 0.0
C26 C 0.33985 0.40388 0.38136 0.0
C27 C 0.38756 0.42808 0.38909 0.0
C28 C 0.3953 0.461 0.37487 0.0
C29 C 0.35524 0.47038 0.35266 0.0
C30 C 0.30582 0.44671 0.34574 0.0
C31 C 0.29804 0.41379 0.36003 0.0
P32 P 0.29607 0.09762 0.90578 0.0
H33 H 0.33541 0.0363 0.87201 0.0
H34 H 0.27777 0.99255 0.8434 0.0
H35 H 0.10472 0.04748 0.8618 0.0
H36 H 0.16242 0.09104 0.89106 0.0
H37 H 0.40215 0.14659 0.91103 0.0
H38 H 0.43913 0.19786 0.88298 0.0
H39 H 0.27514 0.18917 0.83049 0.0
H40 H 0.23774 0.13787 0.85892 0.0
H41 H 0.22495 0.05101 0.94297 0.0
H42 H 0.28047 0.16339 0.94002 0.0
O43 O 0.36237 0.07705 0.91525 0.0
H44 H 0.18661 0.05881 0.99043 0.0
H45 H 0.24041 0.1717 0.98751 0.0
C46 C 0.25301 0.06655 0.884 0.0
C47 C 0.28504 0.0389 0.87009 0.0
C48 C 0.25226 0.01394 0.85377 0.0
C49 C 0.1871 0.01672 0.85068 0.0
C50 C 0.15507 0.04492 0.86402 0.0
C51 C 0.18787 0.06967 0.88068 0.0
C52 C 0.31795 0.13792 0.88669 0.0
C53 C 0.37394 0.15575 0.89357 0.0
C54 C 0.39518 0.18492 0.87747 0.0
C55 C 0.36068 0.19688 0.8542 0.0
C56 C 0.30282 0.18024 0.8482 0.0
C57 C 0.28156 0.1509 0.86437 0.0
C58 C 0.25471 0.10668 0.93775 0.0
C59 C 0.22702 0.0777 0.95221 0.0
C60 C 0.20505 0.08223 0.9794 0.0
C61 C 0.21072 0.11585 0.99286 0.0
C62 C 0.23615 0.14535 0.97788 0.0
C63 C 0.25845 0.1407 0.9506 0.0
P64 P 0.85715 0.14749 0.61862 0.0
H65 H 0.90817 0.19697 0.57759 0.0
H66 H 0.90881 0.19755 0.5267 0.0
H67 H 0.79304 0.10135 0.52589 0.0
H68 H 0.79274 0.10076 0.57741 0.0
H69 H 0.85528 0.18006 0.67324 0.0
H70 H 0.78212 0.22028 0.69684 0.0
H71 H 0.66066 0.21827 0.62464 0.0
H72 H 0.73479 0.1779 0.60087 0.0
H73 H 0.93268 0.08432 0.60687 0.0
H74 H 0.77958 0.11132 0.66171 0.0
O75 O 0.92784 0.16397 0.62667 0.0
H76 H 0.94737 0.02717 0.63214 0.0
H77 H 0.79364 0.0541 0.68676 0.0
C78 C 0.85145 0.14848 0.58118 0.0
C79 C 0.88287 0.17596 0.56656 0.0
C80 C 0.88341 0.1762 0.5375 0.0
C81 C 0.85173 0.14923 0.52247 0.0
C82 C 0.81799 0.12237 0.53708 0.0
C83 C 0.81789 0.12199 0.56639 0.0
C84 C 0.80086 0.17646 0.63523 0.0
C85 C 0.81304 0.18835 0.66241 0.0
C86 C 0.7711 0.21118 0.67592 0.0
C87 C 0.71603 0.22262 0.66247 0.0
C88 C 0.70333 0.21031 0.63527 0.0
C89 C 0.74543 0.18717 0.62176 0.0
C90 C 0.85545 0.10216 0.63251 0.0
C91 C 0.9012 0.07752 0.62388 0.0
C92 C 0.90957 0.04492 0.63832 0.0
C93 C 0.87241 0.03659 0.66172 0.0
C94 C 0.82383 0.06026 0.66917 0.0
C95 C 0.81552 0.09289 0.65471 0.0
P96 P 0.79324 0.40447 0.10749 0.0
H97 H 0.82807 0.47257 0.13436 0.0
H98 H 0.76913 0.51683 0.16133 0.0
H99 H 0.60106 0.45275 0.15122 0.0
H100 H 0.66012 0.40831 0.12424 0.0
H101 H 0.88312 0.34689 0.09953 0.0
H102 H 0.91518 0.29527 0.12815 0.0
H103 H 0.76989 0.31994 0.18776 0.0
H104 H 0.73926 0.37245 0.15942 0.0
H105 H 0.8278 0.42478 0.05048 0.0
H106 H 0.67905 0.36451 0.0905 0.0
O107 O 0.86345 0.42295 0.10119 0.0
H108 H 0.78367 0.411 1.005 0.0
H109 H 0.63065 0.35369 0.04499 0.0
C110 C 0.74851 0.43715 0.12698 0.0
C111 C 0.77848 0.468 0.1377 0.0
C112 C 0.74482 0.49339 0.15308 0.0
C113 C 0.68072 0.48813 0.15833 0.0
C114 C 0.65063 0.45726 0.14759 0.0
C115 C 0.68428 0.43198 0.132 0.0
C116 C 0.80872 0.36356 0.12719 0.0
C117 C 0.85753 0.34095 0.11856 0.0
C118 C 0.87565 0.3113 0.13491 0.0
C119 C 0.84461 0.3032 0.16012 0.0
C120 C 0.7948 0.32553 0.1685 0.0
C121 C 0.77693 0.35543 0.15215 0.0
C122 C 0.75722 0.39539 0.07403 0.0
C123 C 0.78506 0.40893 0.04957 0.0
C124 C 0.75912 0.40143 0.02342 0.0
C125 C 0.70379 0.38077 0.02103 0.0
C126 C 0.67435 0.36865 0.04578 0.0
C127 C 0.70145 0.37533 0.07197 0.0
P128 P 0.78369 0.60679 0.60596 0.0
H129 H 0.82261 0.65066 0.55891 0.0
H130 H 0.78039 0.65798 0.51191 0.0
H131 H 0.61542 0.59696 0.53572 0.0
H132 H 0.65864 0.58908 0.58274 0.0
H133 H 0.88629 0.61695 0.64458 0.0
H134 H 0.92222 0.66824 0.67222 0.0
H135 H 0.76836 0.73248 0.64092 0.0
H136 H 0.73169 0.68032 0.61339 0.0
H137 H 0.76086 0.52993 0.59951 0.0
H138 H 0.70719 0.61389 0.6569 0.0
O139 O 0.84902 0.58562 0.59618 0.0
H140 H 0.70456 0.48514 0.62771 0.0
H141 H 0.64921 0.56923 0.68493 0.0
C142 C 0.74391 0.61939 0.57428 0.0
C143 C 0.77654 0.63976 0.55427 0.0
C144 C 0.7521 0.64409 0.52744 0.0
C145 C 0.69417 0.62837 0.52022 0.0
C146 C 0.66008 0.60941 0.54075 0.0
C147 C 0.68476 0.60499 0.56765 0.0
C148 C 0.80741 0.64519 0.62642 0.0
C149 C 0.86037 0.64209 0.64351 0.0
C150 C 0.88101 0.67147 0.65921 0.0
C151 C 0.84903 0.70464 0.65815 0.0
C152 C 0.79425 0.70733 0.64187 0.0
C153 C 0.77353 0.6777 0.62606 0.0
C154 C 0.73887 0.57502 0.62637 0.0
C155 C 0.73654 0.53872 0.61812 0.0
C156 C 0.70378 0.51323 0.63408 0.0
C157 C 0.67192 0.52375 0.65837 0.0
C158 C 0.67354 0.56036 0.66635 0.0
C159 C 0.70653 0.58588 0.65035 0.0
P160 P 0.83751 0.85641 0.11454 0.0
H161 H 0.89819 0.87254 0.16713 0.0
H162 H 0.92199 0.92865 0.1915 0.0
H163 H 0.8266 0.98941 0.12693 0.0
H164 H 0.80474 0.93273 0.10199 0.0
H165 H 0.78895 0.78415 0.10408 0.0
H166 H 0.71709 0.74538 0.1307 0.0
H167 H 0.66684 0.83651 0.18206 0.0
H168 H 0.73999 0.87489 0.15589 0.0
H169 H 0.93793 0.86384 0.07439 0.0
H170 H 0.73578 0.86384 0.07279 0.0
O171 O 0.89912 0.8301 0.12147 0.0
H172 H 0.94056 0.87236 0.02387 0.0
H173 H 0.73807 0.87368 0.02191 0.0
C174 C 0.85107 0.89854 0.13246 0.0
C175 C 0.88279 0.89793 0.15806 0.0
C176 C 0.896 0.93007 0.17208 0.0
C177 C 0.87705 0.96364 0.16099 0.0
C178 C 0.84336 0.96412 0.13566 0.0
C179 C 0.83042 0.93174 0.12149 0.0
C180 C 0.77049 0.83225 0.12819 0.0
C181 C 0.76135 0.79599 0.12065 0.0
C182 C 0.72034 0.77383 0.13592 0.0
C183 C 0.68777 0.78763 0.15903 0.0
C184 C 0.69291 0.82481 0.16496 0.0
C185 C 0.73426 0.8469 0.14977 0.0
C186 C 0.8367 0.86282 0.07724 0.0
C187 C 0.89401 0.8657 0.0631 0.0
C188 C 0.8955 0.87086 0.03423 0.0
C189 C 0.83956 0.87405 0.01894 0.0
C190 C 0.78193 0.87108 0.03316 0.0
C191 C 0.78052 0.86566 0.06218 0.0
P192 P 0.29182 0.89934 0.40655 0.0
H193 H 0.33505 0.90434 0.46405 0.0
H194 H 0.28497 0.89421 0.50897 0.0
H195 H 0.11445 0.86146 0.46745 0.0
H196 H 0.16488 0.87257 0.42177 0.0
H197 H 0.40221 0.88637 0.37287 0.0
H198 H 0.43642 0.83611 0.34414 0.0
H199 H 0.26868 0.77654 0.36595 0.0
H200 H 0.23517 0.82704 0.39575 0.0
H201 H 0.28167 0.97763 0.40408 0.0
H202 H 0.19709 0.88626 0.3626 0.0
O203 O 0.35705 0.92253 0.41406 0.0
H204 H 0.22493 0.01892 0.37338 0.0
H205 H 0.13808 0.9277 0.33225 0.0
C206 C 0.25376 0.88934 0.43943 0.0
C207 C 0.28674 0.89528 0.46434 0.0
C208 C 0.25785 0.88982 0.49013 0.0
C209 C 0.19537 0.87792 0.4917 0.0
C210 C 0.16242 0.87117 0.46677 0.0
C211 C 0.1913 0.87721 0.44075 0.0
C212 C 0.31651 0.86035 0.38683 0.0
C213 C 0.37284 0.86243 0.37182 0.0
C214 C 0.39209 0.8338 0.35504 0.0
C215 C 0.35475 0.80261 0.35235 0.0
C216 C 0.29841 0.80028 0.36763 0.0
C217 C 0.27924 0.82907 0.38465 0.0
C218 C 0.2446 0.92889 0.38525 0.0
C219 C 0.25065 0.96642 0.3884 0.0
C220 C 0.21796 0.99004 0.37089 0.0
C221 C 0.17776 0.9766 0.35006 0.0
C222 C 0.17003 0.93887 0.34757 0.0
C223 C 0.20326 0.91517 0.36507 0.0
P224 P 0.34922 0.6431 0.89592 0.0
H225 H 0.41562 0.62749 0.84477 0.0
H226 H 0.43173 0.57215 0.81823 0.0
H227 H 0.30925 0.51413 0.87491 0.0
H228 H 0.29498 0.56976 0.90206 0.0
H229 H 0.35 0.71993 0.88165 0.0
H230 H 0.27651 0.75858 0.85657 0.0
H231 H 0.14465 0.6697 0.85182 0.0
H232 H 0.21987 0.63051 0.87641 0.0
H233 H 0.4253 0.60483 0.93657 0.0
H234 H 0.24964 0.66226 0.93599 0.0
O235 O 0.41828 0.66434 0.89361 0.0
H236 H 0.42117 0.60074 0.98769 0.0
H237 H 0.24524 0.65817 0.98695 0.0
C238 C 0.35567 0.60238 0.87577 0.0
C239 C 0.39237 0.60284 0.85156 0.0
C240 C 0.40109 0.57125 0.83626 0.0
C241 C 0.37262 0.53861 0.84473 0.0
C242 C 0.33316 0.53865 0.86831 0.0
C243 C 0.32475 0.57038 0.88375 0.0
C244 C 0.29081 0.67219 0.88051 0.0
C245 C 0.3053 0.70865 0.87533 0.0
C246 C 0.26306 0.73083 0.86107 0.0
C247 C 0.20514 0.71708 0.85185 0.0
C248 C 0.18956 0.68082 0.85807 0.0
C249 C 0.23219 0.65851 0.8723 0.0
C250 C 0.33779 0.6338 0.93252 0.0
C251 C 0.38512 0.61579 0.94741 0.0
C252 C 0.38289 0.61356 0.97656 0.0
C253 C 0.33278 0.62895 0.99125 0.0
C254 C 0.28389 0.64549 0.97614 0.0
C255 C 0.28645 0.64798 0.94699 0.0
Tb256 Tb 0.07179 0.1354 0.22667 0.0
C257 C 0.79787 0.11224 0.25887 0.0
N258 N 0.83358 0.14278 0.26082 0.0
C259 C 0.74929 0.17767 0.24117 0.0
C260 C 0.73747 0.11303 0.24686 0.0
C261 C 0.80821 0.17562 0.25391 0.0
C262 C 0.71422 0.14614 0.23713 0.0
C263 C 0.78229 0.04915 0.27186 0.0
C264 C 0.81974 0.08066 0.27116 0.0
C265 C 0.7234 0.04935 0.25873 0.0
C266 C 0.70111 0.0812 0.24618 0.0
Tb267 Tb 0.9292 0.13513 0.2821 0.0
N268 N 0.87722 0.08128 0.28337 0.0
C269 C 0.80453 0.01876 0.28641 0.0
C270 C 0.89761 0.05256 0.29901 0.0
C271 C 0.86206 0.02067 0.30038 0.0
H272 H 0.83204 0.20055 0.25891 0.0
H273 H 0.87893 0.99766 0.31226 0.0
H274 H 0.17893 0.08079 0.25312 0.0
H275 H 0.08311 0.27667 0.1949 0.0
H276 H 0.94151 0.05424 0.3102 0.0
H277 H 0.77706 0.99405 0.28752 0.0
H278 H 0.03874 0.21538 0.19544 0.0
H279 H 0.73025 0.20371 0.23516 0.0
H280 H 0.69409 0.02531 0.25878 0.0
H281 H 0.65479 0.08126 0.23686 0.0
H282 H 0.28589 0.08578 0.27224 0.0
H283 H 0.66804 0.14792 0.22778 0.0
H284 H 0.18538 0.28872 0.21748 0.0
N285 N 0.17043 0.13714 0.24475 0.0
C286 C 0.2001 0.16969 0.2438 0.0
C287 C 0.26203 0.1097 0.26462 0.0
C288 C 0.26136 0.17389 0.25441 0.0
C289 C 0.201 0.10702 0.25409 0.0
C290 C 0.29216 0.14337 0.26506 0.0
N291 N 0.11005 0.19326 0.22158 0.0
C292 C 0.08094 0.22038 0.20707 0.0
C293 C 0.19715 0.23331 0.23143 0.0
C294 C 0.16835 0.19889 0.23239 0.0
C295 C 0.16499 0.26183 0.21861 0.0
C296 C 0.1071 0.25517 0.20598 0.0
H297 H 0.33936 0.14541 0.27332 0.0
H298 H 0.33648 0.21217 0.26237 0.0
H299 H 0.28017 0.26428 0.24235 0.0
O300 O 0.10997 0.14275 0.18606 0.0
O301 O 0.08645 0.15543 0.26944 0.0
O302 O 0.99311 0.18189 0.28159 0.0
O303 O 0.1042 0.08931 0.20578 0.0
O304 O 0.98545 0.16381 0.21461 0.0
O305 O 0.93855 0.18395 0.2554 0.0
O306 O 0.94619 0.1311 0.32544 0.0
O307 O 0.93959 0.08992 0.25273 0.0
O308 O 0.97753 0.11875 0.21435 0.0
O309 O 0.85902 0.15175 0.30979 0.0
O310 O 0.01586 0.1074 0.29408 0.0
O311 O 0.06351 0.08691 0.25348 0.0
C312 C 0.05476 0.18046 0.2828 0.0
C313 C 0.14992 0.09135 0.15935 0.0
C314 C 0.17698 0.09129 0.10986 0.0
C315 C 0.20396 0.05696 0.11323 0.0
C316 C 0.17705 0.05691 0.16219 0.0
C317 C 0.20404 0.03994 0.13926 0.0
C318 C 0.15013 0.10869 0.13299 0.0
C319 C 0.94791 0.18602 0.22815 0.0
C320 C 0.12071 0.10822 0.18394 0.0
C321 C 0.28965 0.20829 0.25408 0.0
C322 C 0.25751 0.23797 0.24273 0.0
C323 C 0.9481 0.09127 0.22564 0.0
C324 C 0.88807 0.16934 0.35514 0.0
C325 C 0.87194 0.17898 0.40478 0.0
C326 C 0.87102 0.2165 0.40005 0.0
C327 C 0.88722 0.2069 0.35059 0.0
C328 C 0.88085 0.15545 0.38232 0.0
C329 C 0.87886 0.23036 0.37305 0.0
C330 C 0.05158 0.08427 0.28052 0.0
C331 C 0.89147 0.14387 0.33189 0.0
H332 H 0.22479 0.04325 0.09559 0.0
H333 H 0.17755 0.04307 0.1822 0.0
H334 H 0.22487 0.01342 0.14165 0.0
H335 H 0.1289 0.13512 0.13038 0.0
H336 H 0.86445 0.235 0.41728 0.0
H337 H 0.8919 0.21794 0.32969 0.0
H338 H 0.88119 0.12642 0.38593 0.0
H339 H 0.87798 0.25933 0.36951 0.0
Tb340 Tb 0.42854 0.36099 0.73148 0.0
C341 C 0.71421 0.3917 0.76805 0.0
N342 N 0.67969 0.36083 0.76565 0.0
C343 C 0.76804 0.33056 0.74543 0.0
C344 C 0.77676 0.39344 0.75861 0.0
C345 C 0.70644 0.33007 0.75543 0.0
C346 C 0.80322 0.36248 0.7468 0.0
C347 C 0.72153 0.45371 0.78424 0.0
C348 C 0.687 0.42143 0.78067 0.0
C349 C 0.78358 0.45577 0.77453 0.0
C350 C 0.81111 0.42572 0.76172 0.0
Tb351 Tb 0.58063 0.36322 0.7839 0.0
N352 N 0.62633 0.4187 0.78925 0.0
C353 C 0.6926 0.48287 0.79755 0.0
C354 C 0.59903 0.44641 0.80341 0.0
C355 C 0.63123 0.47907 0.80736 0.0
H356 H 0.68151 0.3047 0.75614 0.0
H357 H 0.609 0.50111 0.81833 0.0
H358 H 0.32616 0.41743 0.76049 0.0
H359 H 0.42855 0.21568 0.71717 0.0
H360 H 0.55325 0.44321 0.81238 0.0
H361 H 0.71748 0.50816 0.80071 0.0
H362 H 0.4728 0.27698 0.71366 0.0
H363 H 0.78875 0.30612 0.73723 0.0
H364 H 0.81081 0.48039 0.77698 0.0
H365 H 0.85922 0.4276 0.75457 0.0
H366 H 0.22063 0.41288 0.7812 0.0
H367 H 0.85118 0.36267 0.73934 0.0
H368 H 0.32284 0.2063 0.7372 0.0
N369 N 0.33305 0.36094 0.75247 0.0
C370 C 0.30387 0.32811 0.75328 0.0
C371 C 0.24373 0.38881 0.77363 0.0
C372 C 0.24341 0.32435 0.7648 0.0
C373 C 0.30395 0.39122 0.76225 0.0
C374 C 0.21332 0.35526 0.77494 0.0
N375 N 0.39558 0.30226 0.73362 0.0
C376 C 0.42797 0.27342 0.72347 0.0
C377 C 0.30835 0.26324 0.74544 0.0
C378 C 0.33614 0.29785 0.74366 0.0
C379 C 0.34249 0.23338 0.73612 0.0
C380 C 0.40236 0.23854 0.72496 0.0
H381 H 0.16673 0.35349 0.78386 0.0
H382 H 0.16888 0.28649 0.77498 0.0
H383 H 0.22567 0.23305 0.75814 0.0
O384 O 0.41439 0.3476 0.68895 0.0
O385 O 0.42379 0.33711 0.77389 0.0
O386 O 0.52239 0.31504 0.77996 0.0
O387 O 0.35814 0.38781 0.70901 0.0
O388 O 0.51726 0.33983 0.71515 0.0
O389 O 0.5691 0.31884 0.75424 0.0
O390 O 0.57221 0.3649 0.82882 0.0
O391 O 0.58706 0.40088 0.74846 0.0
O392 O 0.49398 0.4049 0.72227 0.0
O393 O 0.64598 0.3354 0.80749 0.0
O394 O 0.49201 0.38909 0.79595 0.0
O395 O 0.44136 0.41018 0.75599 0.0
C396 C 0.46246 0.314 0.78562 0.0
C397 C 0.37446 0.39542 0.66044 0.0
C398 C 0.36453 0.403 0.60983 0.0
C399 C 0.36869 0.44064 0.61308 0.0
C400 C 0.37933 0.43327 0.66308 0.0
C401 C 0.37634 0.45563 0.63953 0.0
C402 C 0.36765 0.38033 0.63357 0.0
C403 C 0.5632 0.32165 0.72695 0.0
C404 C 0.371 0.37194 0.68559 0.0
C405 C 0.21538 0.28992 0.76623 0.0
C406 C 0.24777 0.25947 0.75664 0.0
C407 C 0.55235 0.4142 0.72809 0.0
C408 C 0.65055 0.33086 0.85738 0.0
C409 C 0.66939 0.33219 0.90783 0.0
C410 C 0.71321 0.30413 0.9047 0.0
C411 C 0.69363 0.3022 0.85528 0.0
C412 C 0.6384 0.34601 0.8839 0.0
C413 C 0.72478 0.28916 0.87871 0.0
C414 C 0.45625 0.41275 0.78268 0.0
C415 C 0.62224 0.34487 0.8312 0.0
H416 H 0.3662 0.45845 0.59504 0.0
H417 H 0.38473 0.44571 0.68338 0.0
H418 H 0.3797 0.48472 0.64181 0.0
H419 H 0.36342 0.35125 0.63118 0.0
H420 H 0.73915 0.29387 0.92252 0.0
H421 H 0.70406 0.28993 0.83533 0.0
H422 H 0.60567 0.36822 0.8859 0.0
H423 H 0.75846 0.26749 0.87667 0.0
Tb424 Tb 0.07424 0.864 0.72858 0.0
C425 C 0.79725 0.83707 0.76905 0.0
N426 N 0.83137 0.86803 0.76633 0.0
C427 C 0.74216 0.89866 0.74706 0.0
C428 C 0.73444 0.83541 0.75991 0.0
C429 C 0.80437 0.89897 0.7563 0.0
C430 C 0.70714 0.86669 0.74869 0.0
C431 C 0.79253 0.77379 0.78282 0.0
C432 C 0.82606 0.80666 0.78049 0.0
C433 C 0.73003 0.77196 0.77359 0.0
C434 C 0.70103 0.8027 0.76223 0.0
Tb435 Tb 0.93022 0.8657 0.78402 0.0
N436 N 0.88694 0.80927 0.789 0.0
C437 C 0.82275 0.74373 0.79443 0.0
C438 C 0.91557 0.78036 0.80147 0.0
C439 C 0.88434 0.74712 0.80395 0.0
H440 H 0.82993 0.92422 0.7559 0.0
H441 H 0.90756 0.72424 0.81362 0.0
H442 H 0.17468 0.80548 0.75907 0.0
H443 H 0.11332 0.99885 0.68921 0.0
H444 H 0.96162 0.78265 0.81035 0.0
H445 H 0.79865 0.71797 0.79655 0.0
H446 H 0.05682 0.94049 0.69422 0.0
H447 H 0.72109 0.92319 0.73895 0.0
H448 H 0.7036 0.74691 0.77522 0.0
H449 H 0.65275 0.80087 0.75529 0.0
H450 H 0.27349 0.80912 0.78517 0.0
H451 H 0.65894 0.86655 0.74151 0.0
H452 H 0.2127 0.00894 0.71489 0.0
N453 N 0.16876 0.86243 0.75166 0.0
C454 C 0.20168 0.89408 0.75151 0.0
C455 C 0.25319 0.83344 0.77631 0.0
C456 C 0.26029 0.89708 0.76496 0.0
C457 C 0.19583 0.83171 0.76219 0.0
C458 C 0.28504 0.86643 0.77818 0.0
N459 N 0.12204 0.91881 0.72333 0.0
C460 C 0.09956 0.94499 0.7058 0.0
C461 C 0.21215 0.95569 0.73411 0.0
C462 C 0.17826 0.923 0.73628 0.0
C463 C 0.18797 0.98341 0.71721 0.0
C464 C 0.13178 0.97785 0.70273 0.0
H465 H 0.32993 0.86757 0.78876 0.0
H466 H 0.33815 0.93301 0.77428 0.0
H467 H 0.29589 0.98436 0.74726 0.0
O468 O 0.06187 0.86238 0.68386 0.0
O469 O 0.06243 0.91056 0.75633 0.0
O470 O 0.02382 0.88462 0.79631 0.0
O471 O 0.14437 0.8409 0.70477 0.0
O472 O 0.98587 0.88907 0.71517 0.0
O473 O 0.94187 0.91209 0.75576 0.0
O474 O 0.8946 0.85823 0.82506 0.0
O475 O 0.91382 0.84017 0.74295 0.0
O476 O 0.01123 0.81789 0.7339 0.0
O477 O 0.89446 0.9113 0.80453 0.0
O478 O 0.01555 0.83777 0.79812 0.0
O479 O 0.06548 0.81758 0.75783 0.0
C480 C 0.05722 0.90959 0.78358 0.0
C481 C 0.14345 0.83203 0.65531 0.0
C482 C 0.15766 0.83192 0.60456 0.0
C483 C 0.20002 0.80305 0.60758 0.0
C484 C 0.186 0.80316 0.65749 0.0
C485 C 0.2139 0.78883 0.63379 0.0
C486 C 0.12919 0.84647 0.62867 0.0
C487 C 0.95108 0.91291 0.72848 0.0
C488 C 0.11624 0.84689 0.68122 0.0
C489 C 0.29327 0.93011 0.76388 0.0
C490 C 0.26931 0.95933 0.74843 0.0
C491 C 0.95092 0.81856 0.72885 0.0
C492 C 0.84966 0.90878 0.85112 0.0
C493 C 0.82906 0.91109 0.9012 0.0
C494 C 0.79257 0.94216 0.89698 0.0
C495 C 0.81298 0.93993 0.8474 0.0
C496 C 0.85717 0.89408 0.87818 0.0
C497 C 0.78438 0.95636 0.87021 0.0
C498 C 0.05593 0.8167 0.78516 0.0
C499 C 0.87999 0.89233 0.82664 0.0
H500 H 0.22363 0.79186 0.58957 0.0
H501 H 0.19785 0.79151 0.67762 0.0
H502 H 0.24688 0.76676 0.63577 0.0
H503 H 0.0967 0.86884 0.62675 0.0
H504 H 0.77074 0.95557 0.91452 0.0
H505 H 0.80619 0.95155 0.82679 0.0
H506 H 0.88586 0.87025 0.88141 0.0
H507 H 0.75614 0.98034 0.86714 0.0
Tb508 Tb 0.42075 0.63883 0.22822 0.0
C509 C 0.70344 0.65025 0.27847 0.0
N510 N 0.66403 0.6228 0.27126 0.0
C511 C 0.75074 0.58976 0.2523 0.0
C512 C 0.76807 0.64877 0.27243 0.0
C513 C 0.68722 0.59214 0.2593 0.0
C514 C 0.79129 0.61832 0.25868 0.0
C515 C 0.71888 0.70721 0.30256 0.0
C516 C 0.67927 0.67913 0.29323 0.0
C517 C 0.78311 0.70623 0.29617 0.0
C518 C 0.80762 0.67714 0.28105 0.0
Tb519 Tb 0.56253 0.62901 0.28579 0.0
N520 N 0.61675 0.67948 0.2986 0.0
C521 C 0.69261 0.73545 0.31798 0.0
C522 C 0.59115 0.70646 0.31419 0.0
C523 C 0.62843 0.73507 0.32378 0.0
H524 H 0.65771 0.56881 0.2561 0.0
H525 H 0.60779 0.75652 0.33598 0.0
H526 H 0.32038 0.69404 0.25921 0.0
H527 H 0.40516 0.49862 0.19624 0.0
H528 H 0.54249 0.70556 0.32004 0.0
H529 H 0.72141 0.75759 0.3255 0.0
H530 H 0.45666 0.55767 0.20103 0.0
H531 H 0.76865 0.56549 0.24261 0.0
H532 H 0.81425 0.72771 0.30296 0.0
H533 H 0.85739 0.67651 0.27656 0.0
H534 H 0.21117 0.69061 0.27618 0.0
H535 H 0.84066 0.61612 0.25367 0.0
H536 H 0.29656 0.48988 0.21315 0.0
N537 N 0.32238 0.63906 0.2462 0.0
C538 C 0.28978 0.60759 0.24304 0.0
C539 C 0.2329 0.66703 0.26705 0.0
C540 C 0.22729 0.60452 0.25225 0.0
C541 C 0.29495 0.66878 0.25769 0.0
C542 C 0.19893 0.63477 0.26436 0.0
N543 N 0.3814 0.58164 0.22335 0.0
C544 C 0.41105 0.55399 0.21003 0.0
C545 C 0.28818 0.54478 0.22829 0.0
C546 C 0.32032 0.57795 0.23142 0.0
C547 C 0.31963 0.5158 0.21596 0.0
C548 C 0.38109 0.52055 0.20656 0.0
H549 H 0.15088 0.63352 0.27166 0.0
H550 H 0.14723 0.56853 0.25619 0.0
H551 H 0.20032 0.51636 0.23511 0.0
O552 O 0.40086 0.62985 0.18555 0.0
O553 O 0.40122 0.61351 0.26925 0.0
O554 O 0.49509 0.58681 0.27587 0.0
O555 O 0.36894 0.67867 0.2066 0.0
O556 O 0.50847 0.61437 0.21348 0.0
O557 O 0.54925 0.58846 0.25327 0.0
O558 O 0.54937 0.62873 0.32963 0.0
O559 O 0.5814 0.67217 0.25473 0.0
O560 O 0.5026 0.67264 0.22046 0.0
O561 O 0.60712 0.58909 0.30957 0.0
O562 O 0.47657 0.65881 0.29618 0.0
O563 O 0.43722 0.68527 0.25561 0.0
C564 C 0.43616 0.5898 0.28228 0.0
C565 C 0.34193 0.67311 0.15723 0.0
C566 C 0.32265 0.66738 0.10716 0.0
C567 C 0.28548 0.69861 0.10799 0.0
C568 C 0.30473 0.7044 0.15749 0.0
C569 C 0.27679 0.71702 0.13299 0.0
C570 C 0.35126 0.65467 0.13181 0.0
C571 C 0.54956 0.59344 0.22609 0.0
C572 C 0.37112 0.6604 0.18347 0.0
C573 C 0.19537 0.57142 0.24927 0.0
C574 C 0.22569 0.54168 0.23732 0.0
C575 C 0.55639 0.68374 0.23101 0.0
C576 C 0.64063 0.60887 0.35372 0.0
C577 C 0.67508 0.61853 0.40156 0.0
C578 C 0.73767 0.61859 0.39259 0.0
C579 C 0.70389 0.6086 0.34521 0.0
C580 C 0.62642 0.61362 0.38214 0.0
C581 C 0.75191 0.6136 0.36454 0.0
C582 C 0.44864 0.68556 0.28272 0.0
C583 C 0.58991 0.60281 0.33324 0.0
H584 H 0.26343 0.70885 0.08915 0.0
H585 H 0.29709 0.71917 0.17666 0.0
H586 H 0.24823 0.74118 0.13339 0.0
H587 H 0.38019 0.63062 0.13115 0.0
H588 H 0.77557 0.62215 0.40744 0.0
H589 H 0.71665 0.60402 0.3237 0.0
H590 H 0.57804 0.61341 0.3891 0.0
H591 H 0.80033 0.61329 0.35778 0.0
C592 C 0.11413 0.03267 0.34333 0.0
C593 C 0.14358 0.00238 0.33158 0.0
C594 C 0.08431 0.05856 0.32661 0.0
C595 C 0.08243 0.05539 0.29731 0.0
H596 H 0.11421 0.03651 0.36575 0.0
H597 H 0.06322 0.08154 0.3369 0.0
S598 S 0.15115 0.98045 0.2561 0.0
N599 N 0.16895 0.97042 0.28881 0.0
N600 N 0.11087 0.01851 0.2573 0.0
C601 C 0.11063 0.02479 0.28524 0.0
C602 C 0.14151 0.99843 0.30237 0.0
C603 C 0.38693 0.50451 0.80006 0.0
C604 C 0.38697 0.50468 0.82946 0.0
C605 C 0.40741 0.47426 0.78511 0.0
C606 C 0.42881 0.44293 0.79896 0.0
H607 H 0.37213 0.52828 0.78848 0.0
H608 H 0.40825 0.47594 0.76251 0.0
S609 S 0.43513 0.42884 0.87582 0.0
N610 N 0.4086 0.47049 0.8719 0.0
N611 N 0.44498 0.41319 0.84392 0.0
C612 C 0.42656 0.4422 0.82838 0.0
C613 C 0.40613 0.47313 0.84359 0.0
C614 C 0.64905 0.49541 0.70489 0.0
C615 C 0.63892 0.49638 0.67585 0.0
C616 C 0.6204 0.46897 0.72172 0.0
C617 C 0.58083 0.44248 0.71018 0.0
H618 H 0.68005 0.51491 0.71466 0.0
H619 H 0.62856 0.46967 0.74392 0.0
S620 S 0.53823 0.43335 0.63543 0.0
N621 N 0.58487 0.46912 0.63639 0.0
N622 N 0.5328 0.41876 0.668 0.0
C623 C 0.56977 0.44333 0.68125 0.0
C624 C 0.59858 0.47034 0.6641 0.0
C625 C 0.8846 0.99862 0.20549 0.0
C626 C 0.89234 0.99758 0.17635 0.0
C627 C 0.90297 0.02886 0.22098 0.0
C628 C 0.92853 0.05993 0.20814 0.0
H629 H 0.86482 0.97561 0.21658 0.0
H630 H 0.89811 0.02731 0.24334 0.0
S631 S 0.96078 0.07079 0.13231 0.0
N632 N 0.92976 0.02987 0.13516 0.0
N633 N 0.96176 0.08744 0.16422 0.0
C634 C 0.93613 0.05948 0.1789 0.0
C635 C 0.91831 0.02828 0.16305 0.0
C636 C 0.89787 0.97073 0.66721 0.0
C637 C 0.88776 0.00475 0.67943 0.0
C638 C 0.91707 0.94099 0.68335 0.0
C639 C 0.92686 0.94415 0.71231 0.0
H640 H 0.89139 0.96718 0.64495 0.0
H641 H 0.92478 0.91538 0.67299 0.0
S642 S 0.90967 0.02791 0.75413 0.0
N643 N 0.89097 0.04026 0.72202 0.0
N644 N 0.92603 0.98434 0.75245 0.0
C645 C 0.91632 0.97798 0.72484 0.0
C646 C 0.89706 0.00827 0.70837 0.0
C647 C 0.64636 0.55157 0.16838 0.0
C648 C 0.6459 0.51452 0.17552 0.0
C649 C 0.61422 0.57701 0.18463 0.0
C650 C 0.58191 0.56628 0.20886 0.0
H651 H 0.67136 0.56088 0.14999 0.0
H652 H 0.6155 0.60529 0.17849 0.0
S653 S 0.56643 0.47259 0.23656 0.0
N654 N 0.61009 0.46843 0.20829 0.0
N655 N 0.55048 0.51616 0.23903 0.0
C656 C 0.58123 0.52934 0.21625 0.0
C657 C 0.61301 0.50347 0.19951 0.0
C658 C 0.37344 0.49885 0.30577 0.0
C659 C 0.36894 0.50276 0.33495 0.0
C660 C 0.39312 0.52768 0.28868 0.0
C661 C 0.40735 0.56169 0.30001 0.0
H662 H 0.36454 0.47283 0.29618 0.0
H663 H 0.39938 0.52294 0.26661 0.0
S664 S 0.40116 0.58692 0.37462 0.0
N665 N 0.37918 0.54394 0.37423 0.0
N666 N 0.41488 0.59823 0.34175 0.0
C667 C 0.40145 0.56644 0.32888 0.0
C668 C 0.38244 0.53696 0.34645 0.0
C669 C 0.14698 0.95399 0.8427 0.0
C670 C 0.15289 0.99005 0.8335 0.0
C671 C 0.11518 0.92818 0.82654 0.0
C672 C 0.08947 0.93745 0.80041 0.0
H673 H 0.16679 0.94579 0.86259 0.0
H674 H 0.11159 0.90065 0.83435 0.0
S675 S 0.09221 0.02855 0.7673 0.0
N676 N 0.1303 0.03396 0.79705 0.0
N677 N 0.0712 0.98546 0.7664 0.0
C678 C 0.09539 0.97347 0.791 0.0
C679 C 0.12693 0.99979 0.80765 0.0
C680 C 0.14053 0.10152 0.03348 0.0
C681 C 0.19522 0.11841 0.02312 0.0
C682 C 0.13168 0.09601 0.06222 0.0
C683 C 0.17688 0.10751 0.0816 0.0
H684 H 0.10603 0.09058 0.01917 0.0
H685 H 0.09135 0.08047 0.06919 0.0
S686 S 0.32476 0.15632 0.06598 0.0
N687 N 0.29287 0.1491 0.03505 0.0
N688 N 0.27524 0.13909 0.08906 0.0
C689 C 0.2292 0.12687 0.07184 0.0
C690 C 0.23855 0.13236 0.04258 0.0
C691 C 0.29041 0.38218 0.53976 0.0
C692 C 0.34215 0.37204 0.52333 0.0
C693 C 0.29739 0.39026 0.56824 0.0
C694 C 0.35627 0.38828 0.58137 0.0
H695 H 0.24432 0.38453 0.53041 0.0
H696 H 0.25683 0.39917 0.57991 0.0
S697 S 0.50676 0.36404 0.54804 0.0
N698 N 0.45467 0.36103 0.52258 0.0
N699 N 0.46707 0.37577 0.57616 0.0
C700 C 0.40807 0.3775 0.5655 0.0
C701 C 0.40118 0.36942 0.53649 0.0
C702 C 0.68447 0.39455 0.96996 0.0
C703 C 0.68053 0.37004 0.9927 0.0
C704 C 0.67469 0.38312 0.94229 0.0
C705 C 0.65997 0.34684 0.93639 0.0
H706 H 0.69823 0.42243 0.97341 0.0
H707 H 0.68306 0.40216 0.92539 0.0
S708 S 0.63495 0.27297 0.98799 0.0
N709 N 0.65541 0.30823 0.007 0.0
N710 N 0.63357 0.28769 0.9554 0.0
C711 C 0.64996 0.323 0.95897 0.0
C712 C 0.66109 0.33431 0.987 0.0
C713 C 0.91408 0.15274 0.47854 0.0
C714 C 0.8551 0.1499 0.49159 0.0
C715 C 0.9191 0.16006 0.44991 0.0
C716 C 0.86533 0.16487 0.43346 0.0
H717 H 0.95667 0.15073 0.4908 0.0
H718 H 0.96525 0.16364 0.44082 0.0
S719 S 0.70032 0.15705 0.45679 0.0
N720 N 0.74194 0.14994 0.48543 0.0
N721 N 0.75162 0.16377 0.43141 0.0
C722 C 0.80618 0.1601 0.44579 0.0
C723 C 0.80099 0.15248 0.47495 0.0
C724 C 0.80385 0.86157 0.9698 0.0
C725 C 0.8415 0.88163 0.98839 0.0
C726 C 0.80281 0.8697 0.94108 0.0
C727 C 0.83921 0.89819 0.9301 0.0
H728 H 0.77439 0.83978 0.97757 0.0
H729 H 0.77164 0.85455 0.92756 0.0
S730 S 0.94602 0.9586 0.96941 0.0
N731 N 0.91653 0.93106 0.99337 0.0
N732 N 0.91462 0.94589 0.93947 0.0
C733 C 0.87812 0.91777 0.94821 0.0
C734 C 0.87932 0.90959 0.97734 0.0
C735 C 0.65872 0.59497 0.47769 0.0
C736 C 0.67392 0.62811 0.49056 0.0
C737 C 0.65326 0.59251 0.44856 0.0
C738 C 0.66259 0.62313 0.43154 0.0
H739 H 0.65557 0.57029 0.48996 0.0
H740 H 0.64617 0.56615 0.43922 0.0
S741 S 0.69314 0.71687 0.4549 0.0
N742 N 0.68995 0.69287 0.4841 0.0
N743 N 0.68081 0.6879 0.42931 0.0
C744 C 0.67284 0.65675 0.44416 0.0
C745 C 0.67818 0.65935 0.47372 0.0
C746 C 0.38684 0.64678 0.03561 0.0
C747 C 0.33438 0.63131 0.02221 0.0
C748 C 0.385 0.65566 0.0641 0.0
C749 C 0.33082 0.64911 0.08004 0.0
H750 H 0.42804 0.65424 0.02363 0.0
H751 H 0.42452 0.66985 0.07322 0.0
S752 S 0.18536 0.60377 0.05614 0.0
N753 N 0.23 0.60574 0.02798 0.0
N754 N 0.22661 0.62264 0.08144 0.0
C755 C 0.28011 0.63119 0.06746 0.0
C756 C 0.28186 0.62223 0.03854 0.0
C757 C 0.14794 0.83434 0.5258 0.0
C758 C 0.16791 0.86975 0.51956 0.0
C759 C 0.13811 0.82325 0.55353 0.0
C760 C 0.14796 0.84713 0.57601 0.0
H761 H 0.14478 0.8143 0.50941 0.0
H762 H 0.12723 0.795 0.55755 0.0
S763 S 0.18747 0.94476 0.57005 0.0
N764 N 0.18714 0.93022 0.53748 0.0
N765 N 0.16948 0.90926 0.58968 0.0
C766 C 0.16132 0.88359 0.56978 0.0
C767 C 0.17136 0.89488 0.54151 0.0
C768 C 0.18857 0.22402 0.32346 0.0
C769 C 0.16226 0.25612 0.33381 0.0
C770 C 0.15293 0.19948 0.30777 0.0
C771 C 0.0898 0.20635 0.30094 0.0
H772 H 0.23725 0.21767 0.32768 0.0
H773 H 0.17531 0.1748 0.30105 0.0
S774 S 0.99823 0.28641 0.32348 0.0
N775 N 0.06861 0.29306 0.33699 0.0
N776 N 0.00206 0.24764 0.30657 0.0
C777 C 0.06253 0.23815 0.31156 0.0
C778 C 0.09865 0.26286 0.32811 0.0
C779 C 0.35034 0.25664 0.82935 0.0
C780 C 0.38633 0.22592 0.83589 0.0
C781 C 0.37531 0.28504 0.81316 0.0
C782 C 0.43687 0.28353 0.80256 0.0
H783 H 0.30305 0.25911 0.83735 0.0
H784 H 0.34635 0.30855 0.80928 0.0
S785 S 0.54811 0.20713 0.81169 0.0
N786 N 0.48504 0.19454 0.82924 0.0
N787 N 0.53187 0.24746 0.79863 0.0
C788 C 0.4727 0.25241 0.80841 0.0
C789 C 0.44741 0.22371 0.82505 0.0
C790 C 0.65364 0.23843 0.70475 0.0
C791 C 0.67239 0.24707 0.67735 0.0
C792 C 0.61712 0.26232 0.72037 0.0
C793 C 0.59858 0.29603 0.70933 0.0
H794 H 0.66785 0.21309 0.71431 0.0
H795 H 0.60405 0.25448 0.74142 0.0
S796 S 0.63402 0.3313 0.63844 0.0
N797 N 0.66833 0.29126 0.63954 0.0
N798 N 0.59993 0.3364 0.66912 0.0
C799 C 0.6154 0.3046 0.68171 0.0
C800 C 0.65236 0.28011 0.66569 0.0
C801 C 0.87654 0.27662 0.20665 0.0
C802 C 0.86562 0.27211 0.17782 0.0
C803 C 0.90137 0.24841 0.22314 0.0
C804 C 0.91596 0.21461 0.21141 0.0
H805 H 0.86785 0.30254 0.21637 0.0
H806 H 0.91103 0.25349 0.24499 0.0
S807 S 0.88925 0.18752 0.13774 0.0
N808 N 0.86645 0.23015 0.13891 0.0
N809 N 0.91279 0.17739 0.16966 0.0
C810 C 0.90281 0.20935 0.18288 0.0
C811 C 0.87777 0.23798 0.16616 0.0
C812 C 0.83496 0.75587 0.69198 0.0
C813 C 0.87385 0.73611 0.67397 0.0
C814 C 0.85962 0.78339 0.70897 0.0
C815 C 0.92418 0.79172 0.70898 0.0
H816 H 0.78551 0.74935 0.69354 0.0
H817 H 0.82787 0.79756 0.72253 0.0
S818 S 0.04364 0.75156 0.66202 0.0
N819 N 0.97812 0.72994 0.65431 0.0
N820 N 0.025 0.78024 0.68694 0.0
C821 C 0.96279 0.7732 0.68997 0.0
C822 C 0.93752 0.74575 0.67237 0.0
C823 C 0.61176 0.73642 0.16699 0.0
C824 C 0.65277 0.76259 0.17799 0.0
C825 C 0.58122 0.7113 0.18441 0.0
C826 C 0.59059 0.71101 0.21361 0.0
H827 H 0.60318 0.73532 0.1447 0.0
H828 H 0.55043 0.6916 0.17473 0.0
S829 S 0.69201 0.77489 0.25279 0.0
N830 N 0.70127 0.78689 0.21983 0.0
N831 N 0.64194 0.74065 0.25262 0.0
C832 C 0.63087 0.7374 0.22487 0.0
C833 C 0.66222 0.76296 0.20708 0.0
C834 C 0.37719 0.73683 0.3436 0.0
C835 C 0.37521 0.77275 0.33367 0.0
C836 C 0.40063 0.70877 0.32694 0.0
C837 C 0.42206 0.71545 0.29954 0.0
H838 H 0.36208 0.73052 0.36467 0.0
H839 H 0.40204 0.68162 0.33561 0.0
S840 S 0.42493 0.80445 0.26332 0.0
N841 N 0.39508 0.81321 0.29436 0.0
N842 N 0.43903 0.76052 0.26317 0.0
C843 C 0.41907 0.75105 0.28916 0.0
C844 C 0.39578 0.77966 0.30619 0.0
C845 C 0.15063 0.77635 0.84443 0.0
C846 C 0.16245 0.7408 0.83538 0.0
C847 C 0.11488 0.80039 0.82828 0.0
C848 C 0.09042 0.78999 0.80228 0.0
H849 H 0.16965 0.78579 0.86409 0.0
H850 H 0.1078 0.82766 0.83587 0.0
S851 S 0.10477 0.69972 0.76954 0.0
N852 N 0.14456 0.69609 0.79904 0.0
N853 N 0.07749 0.74151 0.76869 0.0
C854 C 0.10055 0.75442 0.79317 0.0
C855 C 0.1364 0.72974 0.80976 0.0
loop_
_geom_bond_atom_site_label_1
_geom_bond_atom_site_label_2
_geom_bond_distance
_geom_bond_site_symmetry_2
_ccdc_geom_bond_type
P0 O11 1.490 . S
P0 C14 1.812 . S
P0 C20 1.803 . S
P0 C26 1.819 . S
H1 C15 0.941 . S
H2 C16 0.939 . S
H3 C18 0.940 . S
H4 C19 0.940 . S
H5 C21 0.939 . S
H6 C22 0.942 . S
H7 C24 0.940 . S
H8 C25 0.939 . S
H9 C27 0.941 . S
H10 C31 0.939 . S
O11 P0 1.490 . S
H12 C28 0.939 . S
H13 C30 0.940 . S
C14 P0 1.812 . S
C14 C15 1.389 . S
C14 C19 1.391 . S
C15 H1 0.941 . S
C15 C14 1.389 . S
C15 C16 1.397 . S
C16 H2 0.939 . S
C16 C15 1.397 . S
C16 C17 1.378 . S
C17 C16 1.378 . S
C17 C18 1.378 . S
C18 H3 0.940 . S
C18 C17 1.378 . S
C18 C19 1.396 . S
C19 H4 0.940 . S
C19 C14 1.391 . S
C19 C18 1.396 . S
C20 P0 1.803 . S
C20 C21 1.378 . S
C20 C25 1.400 . S
C21 H5 0.939 . S
C21 C20 1.378 . S
C21 C22 1.361 . S
C22 H6 0.942 . S
C22 C21 1.361 . S
C22 C23 1.369 . S
C23 C22 1.369 . S
C23 C24 1.404 . S
C24 H7 0.940 . S
C24 C23 1.404 . S
C24 C25 1.389 . S
C25 H8 0.939 . S
C25 C20 1.400 . S
C25 C24 1.389 . S
C26 P0 1.819 . S
C26 C27 1.391 . S
C26 C31 1.391 . S
C27 H9 0.941 . S
C27 C26 1.391 . S
C27 C28 1.396 . S
C28 H12 0.939 . S
C28 C27 1.396 . S
C28 C29 1.397 . S
C29 C28 1.397 . S
C29 C30 1.385 . S
C30 H13 0.940 . S
C30 C29 1.385 . S
C30 C31 1.388 . S
C31 H10 0.939 . S
C31 C26 1.391 . S
C31 C30 1.388 . S
P32 O43 1.490 . S
P32 C46 1.812 . S
P32 C52 1.803 . S
P32 C58 1.819 . S
H33 C47 0.941 . S
H34 C48 0.939 1_565 S
H35 C50 0.940 . S
H36 C51 0.940 . S
H37 C53 0.939 . S
H38 C54 0.942 . S
H39 C56 0.940 . S
H40 C57 0.939 . S
H41 C59 0.941 . S
H42 C63 0.939 . S
O43 P32 1.490 . S
H44 C60 0.939 . S
H45 C62 0.940 . S
C46 P32 1.812 . S
C46 C47 1.389 . S
C46 C51 1.391 . S
C47 H33 0.941 . S
C47 C46 1.389 . S
C47 C48 1.397 . S
C48 H34 0.939 1_545 S
C48 C47 1.397 . S
C48 C49 1.378 . S
C49 C48 1.378 . S
C49 C50 1.378 . S
C50 H35 0.940 . S
C50 C49 1.378 . S
C50 C51 1.396 . S
C51 H36 0.940 . S
C51 C46 1.391 . S
C51 C50 1.396 . S
C52 P32 1.803 . S
C52 C53 1.378 . S
C52 C57 1.400 . S
C53 H37 0.939 . S
C53 C52 1.378 . S
C53 C54 1.361 . S
C54 H38 0.942 . S
C54 C53 1.361 . S
C54 C55 1.369 . S
C55 C54 1.369 . S
C55 C56 1.404 . S
C56 H39 0.940 . S
C56 C55 1.404 . S
C56 C57 1.389 . S
C57 H40 0.939 . S
C57 C52 1.400 . S
C57 C56 1.389 . S
C58 P32 1.819 . S
C58 C59 1.391 . S
C58 C63 1.391 . S
C59 H41 0.941 . S
C59 C58 1.391 . S
C59 C60 1.396 . S
C60 H44 0.939 . S
C60 C59 1.396 . S
C60 C61 1.397 . S
C61 C60 1.397 . S
C61 C62 1.385 . S
C62 H45 0.940 . S
C62 C61 1.385 . S
C62 C63 1.388 . S
C63 H42 0.939 . S
C63 C58 1.391 . S
C63 C62 1.388 . S
P64 O75 1.490 . S
P64 C78 1.812 . S
P64 C84 1.803 . S
P64 C90 1.819 . S
H65 C79 0.941 . S
H66 C80 0.939 . S
H67 C82 0.940 . S
H68 C83 0.940 . S
H69 C85 0.939 . S
H70 C86 0.942 . S
H71 C88 0.940 . S
H72 C89 0.939 . S
H73 C91 0.941 . S
H74 C95 0.939 . S
O75 P64 1.490 . S
H76 C92 0.939 . S
H77 C94 0.940 . S
C78 P64 1.812 . S
C78 C79 1.389 . S
C78 C83 1.391 . S
C79 H65 0.941 . S
C79 C78 1.389 . S
C79 C80 1.397 . S
C80 H66 0.939 . S
C80 C79 1.397 . S
C80 C81 1.378 . S
C81 C80 1.378 . S
C81 C82 1.378 . S
C82 H67 0.940 . S
C82 C81 1.378 . S
C82 C83 1.396 . S
C83 H68 0.940 . S
C83 C78 1.391 . S
C83 C82 1.396 . S
C84 P64 1.803 . S
C84 C85 1.378 . S
C84 C89 1.400 . S
C85 H69 0.939 . S
C85 C84 1.378 . S
C85 C86 1.361 . S
C86 H70 0.942 . S
C86 C85 1.361 . S
C86 C87 1.369 . S
C87 C86 1.369 . S
C87 C88 1.404 . S
C88 H71 0.940 . S
C88 C87 1.404 . S
C88 C89 1.389 . S
C89 H72 0.939 . S
C89 C84 1.400 . S
C89 C88 1.389 . S
C90 P64 1.819 . S
C90 C91 1.391 . S
C90 C95 1.391 . S
C91 H73 0.941 . S
C91 C90 1.391 . S
C91 C92 1.396 . S
C92 H76 0.939 . S
C92 C91 1.396 . S
C92 C93 1.397 . S
C93 C92 1.397 . S
C93 C94 1.385 . S
C94 H77 0.940 . S
C94 C93 1.385 . S
C94 C95 1.388 . S
C95 H74 0.939 . S
C95 C90 1.391 . S
C95 C94 1.388 . S
P96 O107 1.490 . S
P96 C110 1.812 . S
P96 C116 1.803 . S
P96 C122 1.819 . S
H97 C111 0.941 . S
H98 C112 0.939 . S
H99 C114 0.940 . S
H100 C115 0.940 . S
H101 C117 0.939 . S
H102 C118 0.942 . S
H103 C120 0.940 . S
H104 C121 0.939 . S
H105 C123 0.941 . S
H106 C127 0.939 . S
O107 P96 1.490 . S
H108 C124 0.939 . S
H109 C126 0.940 . S
C110 P96 1.812 . S
C110 C111 1.389 . S
C110 C115 1.391 . S
C111 H97 0.941 . S
C111 C110 1.389 . S
C111 C112 1.397 . S
C112 H98 0.939 . S
C112 C111 1.397 . S
C112 C113 1.378 . S
C113 C112 1.378 . S
C113 C114 1.378 . S
C114 H99 0.940 . S
C114 C113 1.378 . S
C114 C115 1.396 . S
C115 H100 0.940 . S
C115 C110 1.391 . S
C115 C114 1.396 . S
C116 P96 1.803 . S
C116 C117 1.378 . S
C116 C121 1.400 . S
C117 H101 0.939 . S
C117 C116 1.378 . S
C117 C118 1.361 . S
C118 H102 0.942 . S
C118 C117 1.361 . S
C118 C119 1.369 . S
C119 C118 1.369 . S
C119 C120 1.404 . S
C120 H103 0.940 . S
C120 C119 1.404 . S
C120 C121 1.389 . S
C121 H104 0.939 . S
C121 C116 1.400 . S
C121 C120 1.389 . S
C122 P96 1.819 . S
C122 C123 1.391 . S
C122 C127 1.391 . S
C123 H105 0.941 . S
C123 C122 1.391 . S
C123 C124 1.396 . S
C124 H108 0.939 . S
C124 C123 1.396 . S
C124 C125 1.397 . S
C125 C124 1.397 . S
C125 C126 1.385 . S
C126 H109 0.940 . S
C126 C125 1.385 . S
C126 C127 1.388 . S
C127 H106 0.939 . S
C127 C122 1.391 . S
C127 C126 1.388 . S
P128 O139 1.490 . S
P128 C142 1.812 . S
P128 C148 1.803 . S
P128 C154 1.819 . S
H129 C143 0.941 . S
H130 C144 0.939 . S
H131 C146 0.940 . S
H132 C147 0.940 . S
H133 C149 0.939 . S
H134 C150 0.942 . S
H135 C152 0.940 . S
H136 C153 0.939 . S
H137 C155 0.941 . S
H138 C159 0.939 . S
O139 P128 1.490 . S
H140 C156 0.939 . S
H141 C158 0.940 . S
C142 P128 1.812 . S
C142 C143 1.389 . S
C142 C147 1.391 . S
C143 H129 0.941 . S
C143 C142 1.389 . S
C143 C144 1.397 . S
C144 H130 0.939 . S
C144 C143 1.397 . S
C144 C145 1.378 . S
C145 C144 1.378 . S
C145 C146 1.378 . S
C146 H131 0.940 . S
C146 C145 1.378 . S
C146 C147 1.396 . S
C147 H132 0.940 . S
C147 C142 1.391 . S
C147 C146 1.396 . S
C148 P128 1.803 . S
C148 C149 1.378 . S
C148 C153 1.400 . S
C149 H133 0.939 . S
C149 C148 1.378 . S
C149 C150 1.361 . S
C150 H134 0.942 . S
C150 C149 1.361 . S
C150 C151 1.369 . S
C151 C150 1.369 . S
C151 C152 1.404 . S
C152 H135 0.940 . S
C152 C151 1.404 . S
C152 C153 1.389 . S
C153 H136 0.939 . S
C153 C148 1.400 . S
C153 C152 1.389 . S
C154 P128 1.819 . S
C154 C155 1.391 . S
C154 C159 1.391 . S
C155 H137 0.941 . S
C155 C154 1.391 . S
C155 C156 1.396 . S
C156 H140 0.939 . S
C156 C155 1.396 . S
C156 C157 1.397 . S
C157 C156 1.397 . S
C157 C158 1.385 . S
C158 H141 0.940 . S
C158 C157 1.385 . S
C158 C159 1.388 . S
C159 H138 0.939 . S
C159 C154 1.391 . S
C159 C158 1.388 . S
P160 O171 1.490 . S
P160 C174 1.812 . S
P160 C180 1.803 . S
P160 C186 1.819 . S
H161 C175 0.941 . S
H162 C176 0.939 . S
H163 C178 0.940 . S
H164 C179 0.940 . S
H165 C181 0.939 . S
H166 C182 0.942 . S
H167 C184 0.940 . S
H168 C185 0.939 . S
H169 C187 0.941 . S
H170 C191 0.939 . S
O171 P160 1.490 . S
H172 C188 0.939 . S
H173 C190 0.940 . S
C174 P160 1.812 . S
C174 C175 1.389 . S
C174 C179 1.391 . S
C175 H161 0.941 . S
C175 C174 1.389 . S
C175 C176 1.397 . S
C176 H162 0.939 . S
C176 C175 1.397 . S
C176 C177 1.378 . S
C177 C176 1.378 . S
C177 C178 1.378 . S
C178 H163 0.940 . S
C178 C177 1.378 . S
C178 C179 1.396 . S
C179 H164 0.940 . S
C179 C174 1.391 . S
C179 C178 1.396 . S
C180 P160 1.803 . S
C180 C181 1.378 . S
C180 C185 1.400 . S
C181 H165 0.939 . S
C181 C180 1.378 . S
C181 C182 1.361 . S
C182 H166 0.942 . S
C182 C181 1.361 . S
C182 C183 1.369 . S
C183 C182 1.369 . S
C183 C184 1.404 . S
C184 H167 0.940 . S
C184 C183 1.404 . S
C184 C185 1.389 . S
C185 H168 0.939 . S
C185 C180 1.400 . S
C185 C184 1.389 . S
C186 P160 1.819 . S
C186 C187 1.391 . S
C186 C191 1.391 . S
C187 H169 0.941 . S
C187 C186 1.391 . S
C187 C188 1.396 . S
C188 H172 0.939 . S
C188 C187 1.396 . S
C188 C189 1.397 . S
C189 C188 1.397 . S
C189 C190 1.385 . S
C190 H173 0.940 . S
C190 C189 1.385 . S
C190 C191 1.388 . S
C191 H170 0.939 . S
C191 C186 1.391 . S
C191 C190 1.388 . S
P192 O203 1.490 . S
P192 C206 1.812 . S
P192 C212 1.803 . S
P192 C218 1.819 . S
H193 C207 0.941 . S
H194 C208 0.939 . S
H195 C210 0.940 . S
H196 C211 0.940 . S
H197 C213 0.939 . S
H198 C214 0.942 . S
H199 C216 0.940 . S
H200 C217 0.939 . S
H201 C219 0.941 . S
H202 C223 0.939 . S
O203 P192 1.490 . S
H204 C220 0.939 1_545 S
H205 C222 0.940 . S
C206 P192 1.812 . S
C206 C207 1.389 . S
C206 C211 1.391 . S
C207 H193 0.941 . S
C207 C206 1.389 . S
C207 C208 1.397 . S
C208 H194 0.939 . S
C208 C207 1.397 . S
C208 C209 1.378 . S
C209 C208 1.378 . S
C209 C210 1.378 . S
C210 H195 0.940 . S
C210 C209 1.378 . S
C210 C211 1.396 . S
C211 H196 0.940 . S
C211 C206 1.391 . S
C211 C210 1.396 . S
C212 P192 1.803 . S
C212 C213 1.378 . S
C212 C217 1.400 . S
C213 H197 0.939 . S
C213 C212 1.378 . S
C213 C214 1.361 . S
C214 H198 0.942 . S
C214 C213 1.361 . S
C214 C215 1.369 . S
C215 C214 1.369 . S
C215 C216 1.404 . S
C216 H199 0.940 . S
C216 C215 1.404 . S
C216 C217 1.389 . S
C217 H200 0.939 . S
C217 C212 1.400 . S
C217 C216 1.389 . S
C218 P192 1.819 . S
C218 C219 1.391 . S
C218 C223 1.391 . S
C219 H201 0.941 . S
C219 C218 1.391 . S
C219 C220 1.396 . S
C220 H204 0.939 1_565 S
C220 C219 1.396 . S
C220 C221 1.397 . S
C221 C220 1.397 . S
C221 C222 1.385 . S
C222 H205 0.940 . S
C222 C221 1.385 . S
C222 C223 1.388 . S
C223 H202 0.939 . S
C223 C218 1.391 . S
C223 C222 1.388 . S
P224 O235 1.490 . S
P224 C238 1.812 . S
P224 C244 1.803 . S
P224 C250 1.819 . S
H225 C239 0.941 . S
H226 C240 0.939 . S
H227 C242 0.940 . S
H228 C243 0.940 . S
H229 C245 0.939 . S
H230 C246 0.942 . S
H231 C248 0.940 . S
H232 C249 0.939 . S
H233 C251 0.941 . S
H234 C255 0.939 . S
O235 P224 1.490 . S
H236 C252 0.939 . S
H237 C254 0.940 . S
C238 P224 1.812 . S
C238 C239 1.389 . S
C238 C243 1.391 . S
C239 H225 0.941 . S
C239 C238 1.389 . S
C239 C240 1.397 . S
C240 H226 0.939 . S
C240 C239 1.397 . S
C240 C241 1.378 . S
C241 C240 1.378 . S
C241 C242 1.378 . S
C242 H227 0.940 . S
C242 C241 1.378 . S
C242 C243 1.396 . S
C243 H228 0.940 . S
C243 C238 1.391 . S
C243 C242 1.396 . S
C244 P224 1.803 . S
C244 C245 1.378 . S
C244 C249 1.400 . S
C245 H229 0.939 . S
C245 C244 1.378 . S
C245 C246 1.361 . S
C246 H230 0.942 . S
C246 C245 1.361 . S
C246 C247 1.369 . S
C247 C246 1.369 . S
C247 C248 1.404 . S
C248 H231 0.940 . S
C248 C247 1.404 . S
C248 C249 1.389 . S
C249 H232 0.939 . S
C249 C244 1.400 . S
C249 C248 1.389 . S
C250 P224 1.819 . S
C250 C251 1.391 . S
C250 C255 1.391 . S
C251 H233 0.941 . S
C251 C250 1.391 . S
C251 C252 1.396 . S
C252 H236 0.939 . S
C252 C251 1.396 . S
C252 C253 1.397 . S
C253 C252 1.397 . S
C253 C254 1.385 . S
C254 H237 0.940 . S
C254 C253 1.385 . S
C254 C255 1.388 . S
C255 H234 0.939 . S
C255 C250 1.391 . S
C255 C254 1.388 . S
Tb256 N285 2.617 . S
Tb256 N291 2.572 . S
Tb256 O300 2.465 . S
Tb256 O301 2.387 . S
Tb256 O303 2.428 . S
Tb256 O304 2.308 . S
Tb256 O308 2.349 . S
Tb256 O311 2.393 . S
Tb256 C320 2.802 . S
C257 N258 1.379 . S
C257 C260 1.416 . S
C257 C264 1.424 . S
N258 C257 1.379 . S
N258 C261 1.334 . S
N258 Tb267 2.617 . S
C259 C261 1.390 . S
C259 C262 1.339 . S
C259 H279 0.930 . S
C260 C257 1.416 . S
C260 C262 1.416 . S
C260 C266 1.448 . S
C261 N258 1.334 . S
C261 C259 1.390 . S
C261 H272 0.930 . S
C262 C259 1.339 . S
C262 C260 1.416 . S
C262 H283 0.930 . S
C263 C264 1.413 . S
C263 C265 1.427 . S
C263 C269 1.416 . S
C264 C257 1.424 . S
C264 C263 1.413 . S
C264 N268 1.361 . S
C265 C263 1.427 . S
C265 C266 1.328 . S
C265 H280 0.929 . S
C266 C260 1.448 . S
C266 C265 1.328 . S
C266 H281 0.930 . S
Tb267 N258 2.617 . S
Tb267 N268 2.572 . S
Tb267 O302 2.349 1_655 S
Tb267 O305 2.393 . S
Tb267 O306 2.465 . S
Tb267 O307 2.387 . S
Tb267 O309 2.428 . S
Tb267 O310 2.308 1_655 S
Tb267 C331 2.802 . S
N268 C264 1.361 . S
N268 Tb267 2.572 . S
N268 C270 1.340 . S
C269 C263 1.416 . S
C269 C271 1.332 . S
C269 H277 0.931 1_545 S
C270 N268 1.340 . S
C270 C271 1.407 . S
C270 H276 0.930 . S
C271 C269 1.332 . S
C271 C270 1.407 . S
C271 H273 0.929 1_545 S
H272 C261 0.930 . S
H273 C271 0.929 1_565 S
H274 C289 0.930 . S
H275 C296 0.929 . S
H276 C270 0.930 . S
H277 C269 0.931 1_565 S
H278 C292 0.930 . S
H279 C259 0.930 . S
H280 C265 0.929 . S
H281 C266 0.930 . S
H282 C287 0.930 . S
H283 C262 0.930 . S
H284 C295 0.931 . S
N285 Tb256 2.617 . S
N285 C286 1.379 . S
N285 C289 1.334 . S
C286 N285 1.379 . S
C286 C288 1.416 . S
C286 C294 1.424 . S
C287 H282 0.930 . S
C287 C289 1.390 . S
C287 C290 1.339 . S
C288 C286 1.416 . S
C288 C290 1.416 . S
C288 C321 1.448 . S
C289 H274 0.930 . S
C289 N285 1.334 . S
C289 C287 1.390 . S
C290 C287 1.339 . S
C290 C288 1.416 . S
C290 H297 0.930 . S
N291 Tb256 2.572 . S
N291 C292 1.340 . S
N291 C294 1.361 . S
C292 H278 0.930 . S
C292 N291 1.340 . S
C292 C296 1.407 . S
C293 C294 1.413 . S
C293 C295 1.416 . S
C293 C322 1.427 . S
C294 C286 1.424 . S
C294 N291 1.361 . S
C294 C293 1.413 . S
C295 H284 0.931 . S
C295 C293 1.416 . S
C295 C296 1.332 . S
C296 H275 0.929 . S
C296 C292 1.407 . S
C296 C295 1.332 . S
H297 C290 0.930 . S
H298 C321 0.930 . S
H299 C322 0.929 . S
O300 Tb256 2.465 . S
O300 C320 1.264 . S
O301 Tb256 2.387 . S
O301 C312 1.264 . S
O302 Tb267 2.349 1_455 S
O302 C312 1.243 . S
O303 Tb256 2.428 . S
O303 C320 1.256 . S
O304 Tb256 2.308 . S
O304 C319 1.266 1_455 S
O305 Tb267 2.393 . S
O305 C319 1.248 . S
O306 Tb267 2.465 . S
O306 C331 1.264 . S
O307 Tb267 2.387 . S
O307 C323 1.264 . S
O308 Tb256 2.349 . S
O308 C323 1.243 1_455 S
O309 Tb267 2.428 . S
O309 C331 1.256 . S
O310 Tb267 2.308 1_455 S
O310 C330 1.266 . S
O311 Tb256 2.393 . S
O311 C330 1.248 . S
C312 O301 1.264 . S
C312 O302 1.243 . S
C313 C316 1.399 . S
C313 C318 1.383 . S
C313 C320 1.496 . S
C314 C315 1.399 . S
C314 C318 1.389 . S
C315 C314 1.399 . S
C315 C317 1.380 . S
C315 H332 0.929 . S
C316 C313 1.399 . S
C316 C317 1.392 . S
C316 H333 0.929 . S
C317 C315 1.380 . S
C317 C316 1.392 . S
C317 H334 0.929 . S
C318 C313 1.383 . S
C318 C314 1.389 . S
C318 H335 0.931 . S
C319 O304 1.266 1_655 S
C319 O305 1.248 . S
C320 Tb256 2.802 . S
C320 O300 1.264 . S
C320 O303 1.256 . S
C320 C313 1.496 . S
C321 C288 1.448 . S
C321 H298 0.930 . S
C321 C322 1.328 . S
C322 C293 1.427 . S
C322 H299 0.929 . S
C322 C321 1.328 . S
C323 O307 1.264 . S
C323 O308 1.243 1_655 S
C324 C327 1.399 . S
C324 C328 1.383 . S
C324 C331 1.496 . S
C325 C326 1.399 . S
C325 C328 1.389 . S
C326 C325 1.399 . S
C326 C329 1.380 . S
C326 H336 0.929 . S
C327 C324 1.399 . S
C327 C329 1.392 . S
C327 H337 0.929 . S
C328 C324 1.383 . S
C328 C325 1.389 . S
C328 H338 0.931 . S
C329 C326 1.380 . S
C329 C327 1.392 . S
C329 H339 0.929 . S
C330 O310 1.266 . S
C330 O311 1.248 . S
C331 Tb267 2.802 . S
C331 O306 1.264 . S
C331 O309 1.256 . S
C331 C324 1.496 . S
H332 C315 0.929 . S
H333 C316 0.929 . S
H334 C317 0.929 . S
H335 C318 0.931 . S
H336 C326 0.929 . S
H337 C327 0.929 . S
H338 C328 0.931 . S
H339 C329 0.929 . S
Tb340 N369 2.617 . S
Tb340 N375 2.572 . S
Tb340 O384 2.465 . S
Tb340 O385 2.387 . S
Tb340 O387 2.428 . S
Tb340 O388 2.308 . S
Tb340 O392 2.349 . S
Tb340 O395 2.393 . S
Tb340 C404 2.802 . S
C341 N342 1.379 . S
C341 C344 1.416 . S
C341 C348 1.424 . S
N342 C341 1.379 . S
N342 C345 1.334 . S
N342 Tb351 2.617 . S
C343 C345 1.390 . S
C343 C346 1.339 . S
C343 H363 0.930 . S
C344 C341 1.416 . S
C344 C346 1.416 . S
C344 C350 1.448 . S
C345 N342 1.334 . S
C345 C343 1.390 . S
C345 H356 0.930 . S
C346 C343 1.339 . S
C346 C344 1.416 . S
C346 H367 0.930 . S
C347 C348 1.413 . S
C347 C349 1.427 . S
C347 C353 1.416 . S
C348 C341 1.424 . S
C348 C347 1.413 . S
C348 N352 1.361 . S
C349 C347 1.427 . S
C349 C350 1.328 . S
C349 H364 0.929 . S
C350 C344 1.448 . S
C350 C349 1.328 . S
C350 H365 0.930 . S
Tb351 N342 2.617 . S
Tb351 N352 2.572 . S
Tb351 O386 2.349 . S
Tb351 O389 2.393 . S
Tb351 O390 2.465 . S
Tb351 O391 2.387 . S
Tb351 O393 2.428 . S
Tb351 O394 2.308 . S
Tb351 C415 2.802 . S
N352 C348 1.361 . S
N352 Tb351 2.572 . S
N352 C354 1.340 . S
C353 C347 1.416 . S
C353 C355 1.332 . S
C353 H361 0.931 . S
C354 N352 1.340 . S
C354 C355 1.407 . S
C354 H360 0.930 . S
C355 C353 1.332 . S
C355 C354 1.407 . S
C355 H357 0.929 . S
H356 C345 0.930 . S
H357 C355 0.929 . S
H358 C373 0.930 . S
H359 C380 0.929 . S
H360 C354 0.930 . S
H361 C353 0.931 . S
H362 C376 0.930 . S
H363 C343 0.930 . S
H364 C349 0.929 . S
H365 C350 0.930 . S
H366 C371 0.930 . S
H367 C346 0.930 . S
H368 C379 0.931 . S
N369 Tb340 2.617 . S
N369 C370 1.379 . S
N369 C373 1.334 . S
C370 N369 1.379 . S
C370 C372 1.416 . S
C370 C378 1.424 . S
C371 H366 0.930 . S
C371 C373 1.390 . S
C371 C374 1.339 . S
C372 C370 1.416 . S
C372 C374 1.416 . S
C372 C405 1.448 . S
C373 H358 0.930 . S
C373 N369 1.334 . S
C373 C371 1.390 . S
C374 C371 1.339 . S
C374 C372 1.416 . S
C374 H381 0.930 . S
N375 Tb340 2.572 . S
N375 C376 1.340 . S
N375 C378 1.361 . S
C376 H362 0.930 . S
C376 N375 1.340 . S
C376 C380 1.407 . S
C377 C378 1.413 . S
C377 C379 1.416 . S
C377 C406 1.427 . S
C378 C370 1.424 . S
C378 N375 1.361 . S
C378 C377 1.413 . S
C379 H368 0.931 . S
C379 C377 1.416 . S
C379 C380 1.332 . S
C380 H359 0.929 . S
C380 C376 1.407 . S
C380 C379 1.332 . S
H381 C374 0.930 . S
H382 C405 0.930 . S
H383 C406 0.929 . S
O384 Tb340 2.465 . S
O384 C404 1.264 . S
O385 Tb340 2.387 . S
O385 C396 1.264 . S
O386 Tb351 2.349 . S
O386 C396 1.243 . S
O387 Tb340 2.428 . S
O387 C404 1.256 . S
O388 Tb340 2.308 . S
O388 C403 1.266 . S
O389 Tb351 2.393 . S
O389 C403 1.248 . S
O390 Tb351 2.465 . S
O390 C415 1.264 . S
O391 Tb351 2.387 . S
O391 C407 1.264 . S
O392 Tb340 2.349 . S
O392 C407 1.243 . S
O393 Tb351 2.428 . S
O393 C415 1.256 . S
O394 Tb351 2.308 . S
O394 C414 1.266 . S
O395 Tb340 2.393 . S
O395 C414 1.248 . S
C396 O385 1.264 . S
C396 O386 1.243 . S
C397 C400 1.399 . S
C397 C402 1.383 . S
C397 C404 1.496 . S
C398 C399 1.399 . S
C398 C402 1.389 . S
C399 C398 1.399 . S
C399 C401 1.380 . S
C399 H416 0.929 . S
C400 C397 1.399 . S
C400 C401 1.392 . S
C400 H417 0.929 . S
C401 C399 1.380 . S
C401 C400 1.392 . S
C401 H418 0.929 . S
C402 C397 1.383 . S
C402 C398 1.389 . S
C402 H419 0.931 . S
C403 O388 1.266 . S
C403 O389 1.248 . S
C404 Tb340 2.802 . S
C404 O384 1.264 . S
C404 O387 1.256 . S
C404 C397 1.496 . S
C405 C372 1.448 . S
C405 H382 0.930 . S
C405 C406 1.328 . S
C406 C377 1.427 . S
C406 H383 0.929 . S
C406 C405 1.328 . S
C407 O391 1.264 . S
C407 O392 1.243 . S
C408 C411 1.399 . S
C408 C412 1.383 . S
C408 C415 1.496 . S
C409 C410 1.399 . S
C409 C412 1.389 . S
C410 C409 1.399 . S
C410 C413 1.380 . S
C410 H420 0.929 . S
C411 C408 1.399 . S
C411 C413 1.392 . S
C411 H421 0.929 . S
C412 C408 1.383 . S
C412 C409 1.389 . S
C412 H422 0.931 . S
C413 C410 1.380 . S
C413 C411 1.392 . S
C413 H423 0.929 . S
C414 O394 1.266 . S
C414 O395 1.248 . S
C415 Tb351 2.802 . S
C415 O390 1.264 . S
C415 O393 1.256 . S
C415 C408 1.496 . S
H416 C399 0.929 . S
H417 C400 0.929 . S
H418 C401 0.929 . S
H419 C402 0.931 . S
H420 C410 0.929 . S
H421 C411 0.929 . S
H422 C412 0.931 . S
H423 C413 0.929 . S
Tb424 N453 2.617 . S
Tb424 N459 2.572 . S
Tb424 O468 2.465 . S
Tb424 O469 2.387 . S
Tb424 O471 2.428 . S
Tb424 O472 2.312 . S
Tb424 O476 2.350 1_455 S
Tb424 O479 2.393 . S
Tb424 C488 2.802 . S
C425 N426 1.379 . S
C425 C428 1.416 . S
C425 C432 1.424 . S
N426 C425 1.379 . S
N426 C429 1.334 . S
N426 Tb435 2.617 . S
C427 C429 1.390 . S
C427 C430 1.339 . S
C427 H447 0.930 . S
C428 C425 1.416 . S
C428 C430 1.416 . S
C428 C434 1.448 . S
C429 N426 1.334 . S
C429 C427 1.390 . S
C429 H440 0.930 . S
C430 C427 1.339 . S
C430 C428 1.416 . S
C430 H451 0.930 . S
C431 C432 1.413 . S
C431 C433 1.427 . S
C431 C437 1.416 . S
C432 C425 1.424 . S
C432 C431 1.413 . S
C432 N436 1.361 . S
C433 C431 1.427 . S
C433 C434 1.328 . S
C433 H448 0.929 . S
C434 C428 1.448 . S
C434 C433 1.328 . S
C434 H449 0.930 . S
Tb435 N426 2.617 . S
Tb435 N436 2.572 . S
Tb435 O470 2.349 1_655 S
Tb435 O473 2.393 . S
Tb435 O474 2.465 . S
Tb435 O475 2.387 . S
Tb435 O477 2.428 . S
Tb435 O478 2.308 1_655 S
Tb435 C499 2.802 . S
N436 C432 1.361 . S
N436 Tb435 2.572 . S
N436 C438 1.340 . S
C437 C431 1.416 . S
C437 C439 1.332 . S
C437 H445 0.931 . S
C438 N436 1.340 . S
C438 C439 1.407 . S
C438 H444 0.930 . S
C439 C437 1.332 . S
C439 C438 1.407 . S
C439 H441 0.929 . S
H440 C429 0.930 . S
H441 C439 0.929 . S
H442 C457 0.930 . S
H443 C464 0.929 1_545 S
H444 C438 0.930 . S
H445 C437 0.931 . S
H446 C460 0.930 . S
H447 C427 0.930 . S
H448 C433 0.929 . S
H449 C434 0.930 . S
H450 C455 0.930 . S
H451 C430 0.930 . S
H452 C463 0.931 1_545 S
N453 Tb424 2.617 . S
N453 C454 1.379 . S
N453 C457 1.334 . S
C454 N453 1.379 . S
C454 C456 1.416 . S
C454 C462 1.424 . S
C455 H450 0.930 . S
C455 C457 1.390 . S
C455 C458 1.339 . S
C456 C454 1.416 . S
C456 C458 1.416 . S
C456 C489 1.448 . S
C457 H442 0.930 . S
C457 N453 1.334 . S
C457 C455 1.390 . S
C458 C455 1.339 . S
C458 C456 1.416 . S
C458 H465 0.930 . S
N459 Tb424 2.572 . S
N459 C460 1.340 . S
N459 C462 1.361 . S
C460 H446 0.930 . S
C460 N459 1.340 . S
C460 C464 1.407 . S
C461 C462 1.413 . S
C461 C463 1.416 . S
C461 C490 1.427 . S
C462 C454 1.424 . S
C462 N459 1.361 . S
C462 C461 1.413 . S
C463 H452 0.931 1_565 S
C463 C461 1.416 . S
C463 C464 1.332 . S
C464 H443 0.929 1_565 S
C464 C460 1.407 . S
C464 C463 1.332 . S
H465 C458 0.930 . S
H466 C489 0.930 . S
H467 C490 0.929 . S
O468 Tb424 2.465 . S
O468 C488 1.264 . S
O469 Tb424 2.387 . S
O469 C480 1.264 . S
O470 Tb435 2.349 1_455 S
O470 C480 1.243 . S
O471 Tb424 2.428 . S
O471 C488 1.256 . S
O472 Tb424 2.312 . S
O472 C487 1.262 1_455 S
O473 Tb435 2.393 . S
O473 C487 1.248 . S
O474 Tb435 2.465 . S
O474 C499 1.264 . S
O475 Tb435 2.387 . S
O475 C491 1.264 . S
O476 Tb424 2.350 1_655 S
O476 C491 1.243 . S
O477 Tb435 2.428 . S
O477 C499 1.256 . S
O478 Tb435 2.308 1_455 S
O478 C498 1.266 . S
O479 Tb424 2.393 . S
O479 C498 1.248 . S
C480 O469 1.264 . S
C480 O470 1.243 . S
C481 C484 1.399 . S
C481 C486 1.383 . S
C481 C488 1.496 . S
C482 C483 1.399 . S
C482 C486 1.389 . S
C483 C482 1.399 . S
C483 C485 1.380 . S
C483 H500 0.929 . S
C484 C481 1.399 . S
C484 C485 1.392 . S
C484 H501 0.929 . S
C485 C483 1.380 . S
C485 C484 1.392 . S
C485 H502 0.929 . S
C486 C481 1.383 . S
C486 C482 1.389 . S
C486 H503 0.931 . S
C487 O472 1.262 1_655 S
C487 O473 1.248 . S
C488 Tb424 2.802 . S
C488 O468 1.264 . S
C488 O471 1.256 . S
C488 C481 1.496 . S
C489 C456 1.448 . S
C489 H466 0.930 . S
C489 C490 1.328 . S
C490 C461 1.427 . S
C490 H467 0.929 . S
C490 C489 1.328 . S
C491 O475 1.264 . S
C491 O476 1.243 . S
C492 C495 1.399 . S
C492 C496 1.383 . S
C492 C499 1.496 . S
C493 C494 1.399 . S
C493 C496 1.389 . S
C494 C493 1.399 . S
C494 C497 1.380 . S
C494 H504 0.929 . S
C495 C492 1.399 . S
C495 C497 1.392 . S
C495 H505 0.929 . S
C496 C492 1.383 . S
C496 C493 1.389 . S
C496 H506 0.931 . S
C497 C494 1.380 . S
C497 C495 1.392 . S
C497 H507 0.929 . S
C498 O478 1.266 . S
C498 O479 1.248 . S
C499 Tb435 2.802 . S
C499 O474 1.264 . S
C499 O477 1.256 . S
C499 C492 1.496 . S
H500 C483 0.929 . S
H501 C484 0.929 . S
H502 C485 0.929 . S
H503 C486 0.931 . S
H504 C494 0.929 . S
H505 C495 0.929 . S
H506 C496 0.931 . S
H507 C497 0.929 . S
Tb508 N537 2.617 . S
Tb508 N543 2.572 . S
Tb508 O552 2.465 . S
Tb508 O553 2.387 . S
Tb508 O555 2.428 . S
Tb508 O556 2.308 . S
Tb508 O560 2.349 . S
Tb508 O563 2.393 . S
Tb508 C572 2.802 . S
C509 N510 1.379 . S
C509 C512 1.416 . S
C509 C516 1.424 . S
N510 C509 1.379 . S
N510 C513 1.334 . S
N510 Tb519 2.617 . S
C511 C513 1.390 . S
C511 C514 1.339 . S
C511 H531 0.930 . S
C512 C509 1.416 . S
C512 C514 1.416 . S
C512 C518 1.448 . S
C513 N510 1.334 . S
C513 C511 1.390 . S
C513 H524 0.930 . S
C514 C511 1.339 . S
C514 C512 1.416 . S
C514 H535 0.930 . S
C515 C516 1.413 . S
C515 C517 1.427 . S
C515 C521 1.416 . S
C516 C509 1.424 . S
C516 C515 1.413 . S
C516 N520 1.361 . S
C517 C515 1.427 . S
C517 C518 1.328 . S
C517 H532 0.929 . S
C518 C512 1.448 . S
C518 C517 1.328 . S
C518 H533 0.930 . S
Tb519 N510 2.617 . S
Tb519 N520 2.572 . S
Tb519 O554 2.349 . S
Tb519 O557 2.393 . S
Tb519 O558 2.465 . S
Tb519 O559 2.387 . S
Tb519 O561 2.428 . S
Tb519 O562 2.308 . S
Tb519 C583 2.802 . S
N520 C516 1.361 . S
N520 Tb519 2.572 . S
N520 C522 1.340 . S
C521 C515 1.416 . S
C521 C523 1.332 . S
C521 H529 0.931 . S
C522 N520 1.340 . S
C522 C523 1.407 . S
C522 H528 0.930 . S
C523 C521 1.332 . S
C523 C522 1.407 . S
C523 H525 0.929 . S
H524 C513 0.930 . S
H525 C523 0.929 . S
H526 C541 0.930 . S
H527 C548 0.929 . S
H528 C522 0.930 . S
H529 C521 0.931 . S
H530 C544 0.930 . S
H531 C511 0.930 . S
H532 C517 0.929 . S
H533 C518 0.930 . S
H534 C539 0.930 . S
H535 C514 0.930 . S
H536 C547 0.931 . S
N537 Tb508 2.617 . S
N537 C538 1.379 . S
N537 C541 1.334 . S
C538 N537 1.379 . S
C538 C540 1.416 . S
C538 C546 1.424 . S
C539 H534 0.930 . S
C539 C541 1.390 . S
C539 C542 1.339 . S
C540 C538 1.416 . S
C540 C542 1.416 . S
C540 C573 1.448 . S
C541 H526 0.930 . S
C541 N537 1.334 . S
C541 C539 1.390 . S
C542 C539 1.339 . S
C542 C540 1.416 . S
C542 H549 0.930 . S
N543 Tb508 2.572 . S
N543 C544 1.340 . S
N543 C546 1.361 . S
C544 H530 0.930 . S
C544 N543 1.340 . S
C544 C548 1.407 . S
C545 C546 1.413 . S
C545 C547 1.416 . S
C545 C574 1.427 . S
C546 C538 1.424 . S
C546 N543 1.361 . S
C546 C545 1.413 . S
C547 H536 0.931 . S
C547 C545 1.416 . S
C547 C548 1.332 . S
C548 H527 0.929 . S
C548 C544 1.407 . S
C548 C547 1.332 . S
H549 C542 0.930 . S
H550 C573 0.930 . S
H551 C574 0.929 . S
O552 Tb508 2.465 . S
O552 C572 1.264 . S
O553 Tb508 2.387 . S
O553 C564 1.264 . S
O554 Tb519 2.349 . S
O554 C564 1.243 . S
O555 Tb508 2.428 . S
O555 C572 1.256 . S
O556 Tb508 2.308 . S
O556 C571 1.266 . S
O557 Tb519 2.393 . S
O557 C571 1.248 . S
O558 Tb519 2.465 . S
O558 C583 1.264 . S
O559 Tb519 2.387 . S
O559 C575 1.264 . S
O560 Tb508 2.349 . S
O560 C575 1.243 . S
O561 Tb519 2.428 . S
O561 C583 1.256 . S
O562 Tb519 2.308 . S
O562 C582 1.266 . S
O563 Tb508 2.393 . S
O563 C582 1.248 . S
C564 O553 1.264 . S
C564 O554 1.243 . S
C565 C568 1.399 . S
C565 C570 1.383 . S
C565 C572 1.496 . S
C566 C567 1.399 . S
C566 C570 1.389 . S
C567 C566 1.399 . S
C567 C569 1.380 . S
C567 H584 0.929 . S
C568 C565 1.399 . S
C568 C569 1.392 . S
C568 H585 0.929 . S
C569 C567 1.380 . S
C569 C568 1.392 . S
C569 H586 0.929 . S
C570 C565 1.383 . S
C570 C566 1.389 . S
C570 H587 0.931 . S
C571 O556 1.266 . S
C571 O557 1.248 . S
C572 Tb508 2.802 . S
C572 O552 1.264 . S
C572 O555 1.256 . S
C572 C565 1.496 . S
C573 C540 1.448 . S
C573 H550 0.930 . S
C573 C574 1.328 . S
C574 C545 1.427 . S
C574 H551 0.929 . S
C574 C573 1.328 . S
C575 O559 1.264 . S
C575 O560 1.243 . S
C576 C579 1.399 . S
C576 C580 1.383 . S
C576 C583 1.496 . S
C577 C578 1.399 . S
C577 C580 1.389 . S
C578 C577 1.399 . S
C578 C581 1.380 . S
C578 H588 0.929 . S
C579 C576 1.399 . S
C579 C581 1.392 . S
C579 H589 0.929 . S
C580 C576 1.383 . S
C580 C577 1.389 . S
C580 H590 0.931 . S
C581 C578 1.380 . S
C581 C579 1.392 . S
C581 H591 0.929 . S
C582 O562 1.266 . S
C582 O563 1.248 . S
C583 Tb519 2.802 . S
C583 O558 1.264 . S
C583 O561 1.256 . S
C583 C576 1.496 . S
H584 C567 0.929 . S
H585 C568 0.929 . S
H586 C569 0.929 . S
H587 C570 0.931 . S
H588 C578 0.929 . S
H589 C579 0.929 . S
H590 C580 0.931 . S
H591 C581 0.929 . S
C592 C593 1.361 1_545 S
C592 C594 1.419 . S
C592 H596 0.930 . S
C593 C592 1.361 1_565 S
C593 C602 1.425 1_565 S
C594 C592 1.419 . S
C594 C595 1.363 . S
C594 H597 0.929 . S
C595 C594 1.363 . S
C595 C601 1.428 . S
H596 C592 0.930 . S
H597 C594 0.929 . S
S598 N599 1.613 1_545 S
S598 N600 1.610 . S
N599 S598 1.613 1_565 S
N599 C602 1.350 1_565 S
N600 S598 1.610 . S
N600 C601 1.351 . S
C601 C595 1.428 . S
C601 N600 1.351 . S
C601 C602 1.434 . S
C602 C593 1.425 1_545 S
C602 N599 1.350 1_545 S
C602 C601 1.434 . S
C603 C604 1.369 . S
C603 C605 1.419 . S
C603 H607 0.930 . S
C604 C603 1.369 . S
C604 C613 1.429 . S
C605 C603 1.419 . S
C605 C606 1.363 . S
C605 H608 0.929 . S
C606 C605 1.363 . S
C606 C612 1.428 . S
H607 C603 0.930 . S
H608 C605 0.929 . S
S609 N610 1.613 . S
S609 N611 1.610 . S
N610 S609 1.613 . S
N610 C613 1.350 . S
N611 S609 1.610 . S
N611 C612 1.351 . S
C612 C606 1.428 . S
C612 N611 1.351 . S
C612 C613 1.434 . S
C613 C604 1.429 . S
C613 N610 1.350 . S
C613 C612 1.434 . S
C614 C615 1.369 . S
C614 C616 1.419 . S
C614 H618 0.930 . S
C615 C614 1.369 . S
C615 C624 1.429 . S
C616 C614 1.419 . S
C616 C617 1.363 . S
C616 H619 0.929 . S
C617 C616 1.363 . S
C617 C623 1.428 . S
H618 C614 0.930 . S
H619 C616 0.929 . S
S620 N621 1.613 . S
S620 N622 1.610 . S
N621 S620 1.613 . S
N621 C624 1.350 . S
N622 S620 1.610 . S
N622 C623 1.351 . S
C623 C617 1.428 . S
C623 N622 1.351 . S
C623 C624 1.434 . S
C624 C615 1.429 . S
C624 N621 1.350 . S
C624 C623 1.434 . S
C625 C626 1.369 . S
C625 C627 1.419 . S
C625 H629 0.930 1_545 S
C626 C625 1.369 . S
C626 C635 1.429 . S
C627 C625 1.419 . S
C627 C628 1.363 . S
C627 H630 0.929 . S
C628 C627 1.363 . S
C628 C634 1.428 . S
H629 C625 0.930 1_565 S
H630 C627 0.929 . S
S631 N632 1.613 . S
S631 N633 1.610 . S
N632 S631 1.613 . S
N632 C635 1.350 . S
N633 S631 1.610 . S
N633 C634 1.351 . S
C634 C628 1.428 . S
C634 N633 1.351 . S
C634 C635 1.434 . S
C635 C626 1.429 . S
C635 N632 1.350 . S
C635 C634 1.434 . S
C636 C637 1.339 1_565 S
C636 C638 1.419 . S
C636 H640 0.930 . S
C637 C636 1.339 1_545 S
C637 C646 1.436 . S
C638 C636 1.419 . S
C638 C639 1.363 . S
C638 H641 0.929 . S
C639 C638 1.363 . S
C639 C645 1.428 . S
H640 C636 0.930 . S
H641 C638 0.929 . S
S642 N643 1.613 . S
S642 N644 1.610 1_545 S
N643 S642 1.613 . S
N643 C646 1.350 . S
N644 S642 1.610 1_565 S
N644 C645 1.351 . S
C645 C639 1.428 . S
C645 N644 1.351 . S
C645 C646 1.434 1_565 S
C646 C637 1.436 . S
C646 N643 1.350 . S
C646 C645 1.434 1_545 S
C647 C648 1.369 . S
C647 C649 1.419 . S
C647 H651 0.930 . S
C648 C647 1.369 . S
C648 C657 1.429 . S
C649 C647 1.419 . S
C649 C650 1.363 . S
C649 H652 0.929 . S
C650 C649 1.363 . S
C650 C656 1.428 . S
H651 C647 0.930 . S
H652 C649 0.929 . S
S653 N654 1.613 . S
S653 N655 1.610 . S
N654 S653 1.613 . S
N654 C657 1.350 . S
N655 S653 1.610 . S
N655 C656 1.351 . S
C656 C650 1.428 . S
C656 N655 1.351 . S
C656 C657 1.434 . S
C657 C648 1.429 . S
C657 N654 1.350 . S
C657 C656 1.434 . S
C658 C659 1.369 . S
C658 C660 1.419 . S
C658 H662 0.930 . S
C659 C658 1.369 . S
C659 C668 1.429 . S
C660 C658 1.419 . S
C660 C661 1.363 . S
C660 H663 0.929 . S
C661 C660 1.363 . S
C661 C667 1.428 . S
H662 C658 0.930 . S
H663 C660 0.929 . S
S664 N665 1.613 . S
S664 N666 1.610 . S
N665 S664 1.613 . S
N665 C668 1.350 . S
N666 S664 1.610 . S
N666 C667 1.351 . S
C667 C661 1.428 . S
C667 N666 1.351 . S
C667 C668 1.434 . S
C668 C659 1.429 . S
C668 N665 1.350 . S
C668 C667 1.434 . S
C669 C670 1.369 . S
C669 C671 1.419 . S
C669 H673 0.930 . S
C670 C669 1.369 . S
C670 C679 1.429 1_565 S
C671 C669 1.419 . S
C671 C672 1.363 . S
C671 H674 0.929 . S
C672 C671 1.363 . S
C672 C678 1.428 . S
H673 C669 0.930 . S
H674 C671 0.929 . S
S675 N676 1.613 . S
S675 N677 1.610 1_545 S
N676 S675 1.613 . S
N676 C679 1.350 . S
N677 S675 1.610 1_565 S
N677 C678 1.351 . S
C678 C672 1.428 . S
C678 N677 1.351 . S
C678 C679 1.434 1_565 S
C679 C670 1.429 1_545 S
C679 N676 1.350 . S
C679 C678 1.434 1_545 S
C680 C681 1.369 . S
C680 C682 1.419 . S
C680 H684 0.933 . S
C681 C680 1.369 . S
C681 C690 1.429 . S
C682 C680 1.419 . S
C682 C683 1.363 . S
C682 H685 0.929 . S
C683 C682 1.363 . S
C683 C689 1.428 . S
H684 C680 0.933 . S
H685 C682 0.929 . S
S686 N687 1.613 . S
S686 N688 1.610 . S
N687 S686 1.613 . S
N687 C690 1.350 . S
N688 S686 1.610 . S
N688 C689 1.351 . S
C689 C683 1.428 . S
C689 N688 1.351 . S
C689 C690 1.434 . S
C690 C681 1.429 . S
C690 N687 1.350 . S
C690 C689 1.434 . S
C691 C692 1.369 . S
C691 C693 1.419 . S
C691 H695 0.930 . S
C692 C691 1.369 . S
C692 C701 1.429 . S
C693 C691 1.419 . S
C693 C694 1.363 . S
C693 H696 0.929 . S
C694 C693 1.363 . S
C694 C700 1.428 . S
H695 C691 0.930 . S
H696 C693 0.929 . S
S697 N698 1.613 . S
S697 N699 1.610 . S
N698 S697 1.613 . S
N698 C701 1.350 . S
N699 S697 1.610 . S
N699 C700 1.351 . S
C700 C694 1.428 . S
C700 N699 1.351 . S
C700 C701 1.434 . S
C701 C692 1.429 . S
C701 N698 1.350 . S
C701 C700 1.434 . S
C702 C703 1.369 . S
C702 C704 1.419 . S
C702 H706 0.930 . S
C703 C702 1.369 . S
C703 C712 1.429 . S
C704 C702 1.419 . S
C704 C705 1.363 . S
C704 H707 0.929 . S
C705 C704 1.363 . S
C705 C711 1.428 . S
H706 C702 0.930 . S
H707 C704 0.929 . S
S708 N709 1.613 . S
S708 N710 1.610 . S
N709 S708 1.613 . S
N709 C712 1.350 . S
N710 S708 1.610 . S
N710 C711 1.351 . S
C711 C705 1.428 . S
C711 N710 1.351 . S
C711 C712 1.434 . S
C712 C703 1.429 . S
C712 N709 1.350 . S
C712 C711 1.434 . S
C713 C714 1.369 . S
C713 C715 1.419 . S
C713 H717 0.930 . S
C714 C713 1.369 . S
C714 C723 1.429 . S
C715 C713 1.419 . S
C715 C716 1.363 . S
C715 H718 0.929 . S
C716 C715 1.363 . S
C716 C722 1.428 . S
H717 C713 0.930 . S
H718 C715 0.929 . S
S719 N720 1.613 . S
S719 N721 1.610 . S
N720 S719 1.613 . S
N720 C723 1.350 . S
N721 S719 1.610 . S
N721 C722 1.351 . S
C722 C716 1.428 . S
C722 N721 1.351 . S
C722 C723 1.434 . S
C723 C714 1.429 . S
C723 N720 1.350 . S
C723 C722 1.434 . S
C724 C725 1.369 . S
C724 C726 1.419 . S
C724 H728 0.930 . S
C725 C724 1.369 . S
C725 C734 1.429 . S
C726 C724 1.419 . S
C726 C727 1.363 . S
C726 H729 0.929 . S
C727 C726 1.363 . S
C727 C733 1.428 . S
H728 C724 0.930 . S
H729 C726 0.929 . S
S730 N731 1.613 . S
S730 N732 1.610 . S
N731 S730 1.613 . S
N731 C734 1.350 . S
N732 S730 1.610 . S
N732 C733 1.351 . S
C733 C727 1.428 . S
C733 N732 1.351 . S
C733 C734 1.434 . S
C734 C725 1.429 . S
C734 N731 1.350 . S
C734 C733 1.434 . S
C735 C736 1.369 . S
C735 C737 1.419 . S
C735 H739 0.930 . S
C736 C735 1.369 . S
C736 C745 1.429 . S
C737 C735 1.419 . S
C737 C738 1.363 . S
C737 H740 0.929 . S
C738 C737 1.363 . S
C738 C744 1.428 . S
H739 C735 0.930 . S
H740 C737 0.929 . S
S741 N742 1.613 . S
S741 N743 1.610 . S
N742 S741 1.613 . S
N742 C745 1.350 . S
N743 S741 1.610 . S
N743 C744 1.351 . S
C744 C738 1.428 . S
C744 N743 1.351 . S
C744 C745 1.434 . S
C745 C736 1.429 . S
C745 N742 1.350 . S
C745 C744 1.434 . S
C746 C747 1.369 . S
C746 C748 1.419 . S
C746 H750 0.930 1_554 S
C747 C746 1.369 . S
C747 C756 1.429 . S
C748 C746 1.419 . S
C748 C749 1.363 . S
C748 H751 0.929 . S
C749 C748 1.363 . S
C749 C755 1.428 . S
H750 C746 0.930 1_556 S
H751 C748 0.929 . S
S752 N753 1.613 . S
S752 N754 1.610 . S
N753 S752 1.613 . S
N753 C756 1.350 . S
N754 S752 1.610 . S
N754 C755 1.351 . S
C755 C749 1.428 . S
C755 N754 1.351 . S
C755 C756 1.434 . S
C756 C747 1.429 . S
C756 N753 1.350 . S
C756 C755 1.434 . S
C757 C758 1.369 . S
C757 C759 1.419 . S
C757 H761 0.930 . S
C758 C757 1.369 . S
C758 C767 1.429 . S
C759 C757 1.419 . S
C759 C760 1.363 . S
C759 H762 0.929 . S
C760 C759 1.363 . S
C760 C766 1.428 . S
H761 C757 0.930 . S
H762 C759 0.929 . S
S763 N764 1.613 . S
S763 N765 1.610 . S
N764 S763 1.613 . S
N764 C767 1.350 . S
N765 S763 1.610 . S
N765 C766 1.351 . S
C766 C760 1.428 . S
C766 N765 1.351 . S
C766 C767 1.434 . S
C767 C758 1.429 . S
C767 N764 1.350 . S
C767 C766 1.434 . S
C768 C769 1.369 . S
C768 C770 1.419 . S
C768 H772 0.930 . S
C769 C768 1.369 . S
C769 C778 1.429 . S
C770 C768 1.419 . S
C770 C771 1.363 . S
C770 H773 0.929 . S
C771 C770 1.363 . S
C771 C777 1.428 . S
H772 C768 0.930 . S
H773 C770 0.929 . S
S774 N775 1.613 1_655 S
S774 N776 1.610 . S
N775 S774 1.613 1_455 S
N775 C778 1.350 . S
N776 S774 1.610 . S
N776 C777 1.351 1_655 S
C777 C771 1.428 . S
C777 N776 1.351 1_455 S
C777 C778 1.434 . S
C778 C769 1.429 . S
C778 N775 1.350 . S
C778 C777 1.434 . S
C779 C780 1.369 . S
C779 C781 1.419 . S
C779 H783 0.930 . S
C780 C779 1.369 . S
C780 C789 1.429 . S
C781 C779 1.419 . S
C781 C782 1.363 . S
C781 H784 0.929 . S
C782 C781 1.363 . S
C782 C788 1.428 . S
H783 C779 0.930 . S
H784 C781 0.929 . S
S785 N786 1.613 . S
S785 N787 1.610 . S
N786 S785 1.613 . S
N786 C789 1.350 . S
N787 S785 1.610 . S
N787 C788 1.351 . S
C788 C782 1.428 . S
C788 N787 1.351 . S
C788 C789 1.434 . S
C789 C780 1.429 . S
C789 N786 1.350 . S
C789 C788 1.434 . S
C790 C791 1.369 . S
C790 C792 1.419 . S
C790 H794 0.930 . S
C791 C790 1.369 . S
C791 C800 1.429 . S
C792 C790 1.419 . S
C792 C793 1.363 . S
C792 H795 0.929 . S
C793 C792 1.363 . S
C793 C799 1.428 . S
H794 C790 0.930 . S
H795 C792 0.929 . S
S796 N797 1.613 . S
S796 N798 1.610 . S
N797 S796 1.613 . S
N797 C800 1.350 . S
N798 S796 1.610 . S
N798 C799 1.351 . S
C799 C793 1.428 . S
C799 N798 1.351 . S
C799 C800 1.434 . S
C800 C791 1.429 . S
C800 N797 1.350 . S
C800 C799 1.434 . S
C801 C802 1.369 . S
C801 C803 1.419 . S
C801 H805 0.930 . S
C802 C801 1.369 . S
C802 C811 1.429 . S
C803 C801 1.419 . S
C803 C804 1.363 . S
C803 H806 0.929 . S
C804 C803 1.363 . S
C804 C810 1.428 . S
H805 C801 0.930 . S
H806 C803 0.929 . S
S807 N808 1.613 . S
S807 N809 1.610 . S
N808 S807 1.613 . S
N808 C811 1.350 . S
N809 S807 1.610 . S
N809 C810 1.351 . S
C810 C804 1.428 . S
C810 N809 1.351 . S
C810 C811 1.434 . S
C811 C802 1.429 . S
C811 N808 1.350 . S
C811 C810 1.434 . S
C812 C813 1.369 . S
C812 C814 1.419 . S
C812 H816 0.930 . S
C813 C812 1.369 . S
C813 C822 1.429 . S
C814 C812 1.419 . S
C814 C815 1.363 . S
C814 H817 0.929 . S
C815 C814 1.363 . S
C815 C821 1.428 . S
H816 C812 0.930 . S
H817 C814 0.929 . S
S818 N819 1.613 1_455 S
S818 N820 1.610 . S
N819 S818 1.613 1_655 S
N819 C822 1.350 . S
N820 S818 1.610 . S
N820 C821 1.351 1_455 S
C821 C815 1.428 . S
C821 N820 1.351 1_655 S
C821 C822 1.434 . S
C822 C813 1.429 . S
C822 N819 1.350 . S
C822 C821 1.434 . S
C823 C824 1.369 . S
C823 C825 1.419 . S
C823 H827 0.930 . S
C824 C823 1.369 . S
C824 C833 1.429 . S
C825 C823 1.419 . S
C825 C826 1.363 . S
C825 H828 0.929 . S
C826 C825 1.363 . S
C826 C832 1.428 . S
H827 C823 0.930 . S
H828 C825 0.929 . S
S829 N830 1.613 . S
S829 N831 1.610 . S
N830 S829 1.613 . S
N830 C833 1.350 . S
N831 S829 1.610 . S
N831 C832 1.351 . S
C832 C826 1.428 . S
C832 N831 1.351 . S
C832 C833 1.434 . S
C833 C824 1.429 . S
C833 N830 1.350 . S
C833 C832 1.434 . S
C834 C835 1.369 . S
C834 C836 1.419 . S
C834 H838 0.930 . S
C835 C834 1.369 . S
C835 C844 1.429 . S
C836 C834 1.419 . S
C836 C837 1.363 . S
C836 H839 0.929 . S
C837 C836 1.363 . S
C837 C843 1.428 . S
H838 C834 0.930 . S
H839 C836 0.929 . S
S840 N841 1.613 . S
S840 N842 1.610 . S
N841 S840 1.613 . S
N841 C844 1.350 . S
N842 S840 1.610 . S
N842 C843 1.351 . S
C843 C837 1.428 . S
C843 N842 1.351 . S
C843 C844 1.434 . S
C844 C835 1.429 . S
C844 N841 1.350 . S
C844 C843 1.434 . S
C845 C846 1.369 . S
C845 C847 1.419 . S
C845 H849 0.930 . S
C846 C845 1.369 . S
C846 C855 1.429 . S
C847 C845 1.419 . S
C847 C848 1.363 . S
C847 H850 0.929 . S
C848 C847 1.363 . S
C848 C854 1.428 . S
H849 C845 0.930 . S
H850 C847 0.929 . S
S851 N852 1.606 1_655 S
S851 N853 1.609 1_655 S
N852 S851 1.606 1_455 S
N852 C855 1.350 . S
N853 S851 1.609 1_455 S
N853 C854 1.351 . S
C854 C848 1.428 . S
C854 N853 1.351 . S
C854 C855 1.434 . S
C855 C846 1.429 . S
C855 N852 1.350 . S
C855 C854 1.434 . S
C593 C221 1.486 . S
C595 C330 1.478 . S
C606 C414 1.486 . S
C604 C241 1.449 . S
C617 C407 1.486 . S
C615 C157 1.479 . S
C626 C177 1.439 1_545 S
C628 C323 1.491 . S
C639 C487 1.477 . S
C637 C93 1.466 . S
C650 C571 1.483 . S
C648 C113 1.492 . S
C659 C29 1.435 . S
C661 C564 1.485 . S
C670 C49 1.491 1_565 S
C672 C480 1.493 . S
C683 C314 1.313 . S
C681 C61 1.514 1_554 S
C694 C398 1.330 . S
C692 C17 1.458 . S
C705 C409 1.390 . S
C703 C125 1.525 1_556 S
C716 C325 1.389 . S
C714 C81 1.486 . S
C727 C493 1.317 . S
C725 C189 1.451 1_556 S
C736 C145 1.510 . S
C738 C577 1.329 . S
C749 C566 1.389 . S
C747 C253 1.473 1_554 S
C758 C209 1.520 . S
C760 C482 1.398 . S
C771 C312 1.550 . S
C769 C23 1.498 . S
C782 C396 1.564 . S
C780 C55 1.552 . S
C791 C87 1.488 . S
C793 C403 1.534 . S
C804 C319 1.547 . S
C802 C119 1.542 . S
C815 C491 1.550 . S
C813 C151 1.547 . S
C824 C183 1.486 . S
C826 C575 1.565 . S
C835 C215 1.534 . S
C837 C582 1.531 . S
C846 C247 1.488 . S
C848 C498 1.544 . S
