# Generated by pormake.
# Topology ctn, (3,4)-cn, num edge types: 1
# Building blocks:
#     Node 0, Type 0, BuildingBlock: MIDCAF_clean_linker_0, # of connection points: 3
#     Node 1, Type 0, BuildingBlock: MIDCAF_clean_linker_0, # of connection points: 3
#     Node 2, Type 0, BuildingBlock: MIDCAF_clean_linker_0, # of connection points: 3
#     Node 3, Type 0, BuildingBlock: MIDCAF_clean_linker_0, # of connection points: 3
#     Node 4, Type 0, BuildingBlock: MIDCAF_clean_linker_0, # of connection points: 3
#     Node 5, Type 0, BuildingBlock: MIDCAF_clean_linker_0, # of connection points: 3
#     Node 6, Type 0, BuildingBlock: MIDCAF_clean_linker_0, # of connection points: 3
#     Node 7, Type 0, BuildingBlock: MIDCAF_clean_linker_0, # of connection points: 3
#     Node 8, Type 0, BuildingBlock: MIDCAF_clean_linker_0, # of connection points: 3
#     Node 9, Type 0, BuildingBlock: MIDCAF_clean_linker_0, # of connection points: 3
#     Node 10, Type 0, BuildingBlock: MIDCAF_clean_linker_0, # of connection points: 3
#     Node 11, Type 0, BuildingBlock: MIDCAF_clean_linker_0, # of connection points: 3
#     Node 12, Type 0, BuildingBlock: MIDCAF_clean_linker_0, # of connection points: 3
#     Node 13, Type 0, BuildingBlock: MIDCAF_clean_linker_0, # of connection points: 3
#     Node 14, Type 0, BuildingBlock: MIDCAF_clean_linker_0, # of connection points: 3
#     Node 15, Type 0, BuildingBlock: MIDCAF_clean_linker_0, # of connection points: 3
#     Node 16, Type 1, BuildingBlock: NAHDIM_clean_sbu_0, # of connection points: 4
#     Node 17, Type 1, BuildingBlock: NAHDIM_clean_sbu_0, # of connection points: 4
#     Node 18, Type 1, BuildingBlock: NAHDIM_clean_sbu_0, # of connection points: 4
#     Node 19, Type 1, BuildingBlock: NAHDIM_clean_sbu_0, # of connection points: 4
#     Node 20, Type 1, BuildingBlock: NAHDIM_clean_sbu_0, # of connection points: 4
#     Node 21, Type 1, BuildingBlock: NAHDIM_clean_sbu_0, # of connection points: 4
#     Node 22, Type 1, BuildingBlock: NAHDIM_clean_sbu_0, # of connection points: 4
#     Node 23, Type 1, BuildingBlock: NAHDIM_clean_sbu_0, # of connection points: 4
#     Node 24, Type 1, BuildingBlock: NAHDIM_clean_sbu_0, # of connection points: 4
#     Node 25, Type 1, BuildingBlock: NAHDIM_clean_sbu_0, # of connection points: 4
#     Node 26, Type 1, BuildingBlock: NAHDIM_clean_sbu_0, # of connection points: 4
#     Node 27, Type 1, BuildingBlock: NAHDIM_clean_sbu_0, # of connection points: 4
#     Edge 28, Type (0, 1), BuildingBlock: CIFDUS_clean_linker_0, # of connection points: 2
#     Edge 29, Type (0, 1), BuildingBlock: CIFDUS_clean_linker_0, # of connection points: 2
#     Edge 30, Type (0, 1), BuildingBlock: CIFDUS_clean_linker_0, # of connection points: 2
#     Edge 31, Type (0, 1), BuildingBlock: CIFDUS_clean_linker_0, # of connection points: 2
#     Edge 32, Type (0, 1), BuildingBlock: CIFDUS_clean_linker_0, # of connection points: 2
#     Edge 33, Type (0, 1), BuildingBlock: CIFDUS_clean_linker_0, # of connection points: 2
#     Edge 34, Type (0, 1), BuildingBlock: CIFDUS_clean_linker_0, # of connection points: 2
#     Edge 35, Type (0, 1), BuildingBlock: CIFDUS_clean_linker_0, # of connection points: 2
#     Edge 36, Type (0, 1), BuildingBlock: CIFDUS_clean_linker_0, # of connection points: 2
#     Edge 37, Type (0, 1), BuildingBlock: CIFDUS_clean_linker_0, # of connection points: 2
#     Edge 38, Type (0, 1), BuildingBlock: CIFDUS_clean_linker_0, # of connection points: 2
#     Edge 39, Type (0, 1), BuildingBlock: CIFDUS_clean_linker_0, # of connection points: 2
#     Edge 40, Type (0, 1), BuildingBlock: CIFDUS_clean_linker_0, # of connection points: 2
#     Edge 41, Type (0, 1), BuildingBlock: CIFDUS_clean_linker_0, # of connection points: 2
#     Edge 42, Type (0, 1), BuildingBlock: CIFDUS_clean_linker_0, # of connection points: 2
#     Edge 43, Type (0, 1), BuildingBlock: CIFDUS_clean_linker_0, # of connection points: 2
#     Edge 44, Type (0, 1), BuildingBlock: CIFDUS_clean_linker_0, # of connection points: 2
#     Edge 45, Type (0, 1), BuildingBlock: CIFDUS_clean_linker_0, # of connection points: 2
#     Edge 46, Type (0, 1), BuildingBlock: CIFDUS_clean_linker_0, # of connection points: 2
#     Edge 47, Type (0, 1), BuildingBlock: CIFDUS_clean_linker_0, # of connection points: 2
#     Edge 48, Type (0, 1), BuildingBlock: CIFDUS_clean_linker_0, # of connection points: 2
#     Edge 49, Type (0, 1), BuildingBlock: CIFDUS_clean_linker_0, # of connection points: 2
#     Edge 50, Type (0, 1), BuildingBlock: CIFDUS_clean_linker_0, # of connection points: 2
#     Edge 51, Type (0, 1), BuildingBlock: CIFDUS_clean_linker_0, # of connection points: 2
#     Edge 52, Type (0, 1), BuildingBlock: CIFDUS_clean_linker_0, # of connection points: 2
#     Edge 53, Type (0, 1), BuildingBlock: CIFDUS_clean_linker_0, # of connection points: 2
#     Edge 54, Type (0, 1), BuildingBlock: CIFDUS_clean_linker_0, # of connection points: 2
#     Edge 55, Type (0, 1), BuildingBlock: CIFDUS_clean_linker_0, # of connection points: 2
#     Edge 56, Type (0, 1), BuildingBlock: CIFDUS_clean_linker_0, # of connection points: 2
#     Edge 57, Type (0, 1), BuildingBlock: CIFDUS_clean_linker_0, # of connection points: 2
#     Edge 58, Type (0, 1), BuildingBlock: CIFDUS_clean_linker_0, # of connection points: 2
#     Edge 59, Type (0, 1), BuildingBlock: CIFDUS_clean_linker_0, # of connection points: 2
#     Edge 60, Type (0, 1), BuildingBlock: CIFDUS_clean_linker_0, # of connection points: 2
#     Edge 61, Type (0, 1), BuildingBlock: CIFDUS_clean_linker_0, # of connection points: 2
#     Edge 62, Type (0, 1), BuildingBlock: CIFDUS_clean_linker_0, # of connection points: 2
#     Edge 63, Type (0, 1), BuildingBlock: CIFDUS_clean_linker_0, # of connection points: 2
#     Edge 64, Type (0, 1), BuildingBlock: CIFDUS_clean_linker_0, # of connection points: 2
#     Edge 65, Type (0, 1), BuildingBlock: CIFDUS_clean_linker_0, # of connection points: 2
#     Edge 66, Type (0, 1), BuildingBlock: CIFDUS_clean_linker_0, # of connection points: 2
#     Edge 67, Type (0, 1), BuildingBlock: CIFDUS_clean_linker_0, # of connection points: 2
#     Edge 68, Type (0, 1), BuildingBlock: CIFDUS_clean_linker_0, # of connection points: 2
#     Edge 69, Type (0, 1), BuildingBlock: CIFDUS_clean_linker_0, # of connection points: 2
#     Edge 70, Type (0, 1), BuildingBlock: CIFDUS_clean_linker_0, # of connection points: 2
#     Edge 71, Type (0, 1), BuildingBlock: CIFDUS_clean_linker_0, # of connection points: 2
#     Edge 72, Type (0, 1), BuildingBlock: CIFDUS_clean_linker_0, # of connection points: 2
#     Edge 73, Type (0, 1), BuildingBlock: CIFDUS_clean_linker_0, # of connection points: 2
#     Edge 74, Type (0, 1), BuildingBlock: CIFDUS_clean_linker_0, # of connection points: 2
#     Edge 75, Type (0, 1), BuildingBlock: CIFDUS_clean_linker_0, # of connection points: 2
# Relax obj value: 0.002
# Max RMSD: 0.033
# Mean RMSD: 0.017
data_MOF--net-ctn--node1-NAHDIM_clean_sbu_0--node2-MIDCAF_clean_linker_0--edge1-CIFDUS_clean_linker_0
_symmetry_space_group_name_H-M    P1
_symmetry_Int_Tables_number       1
_symmetry_cell_setting            triclinic
loop_
_symmetry_equiv_pos_as_xyz
'x, y, z'
_cell_length_a     60.268509
_cell_length_b     60.590162
_cell_length_c     60.028032
_cell_angle_alpha  91.202878
_cell_angle_beta   90.049832
_cell_angle_gamma 92.239601
loop_
_atom_site_label
_atom_site_type_symbol
_atom_site_fract_x
_atom_site_fract_y
_atom_site_fract_z
_atom_type_partial_charge
C0 C 0.9894 0.05415 0.1126 0.0
C1 C 0.99534 0.03935 0.12909 0.0
C2 C 0.01347 0.02587 0.12516 0.0
C3 C 0.02536 0.02717 0.10518 0.0
H4 H 0.08338 0.00756 0.07405 0.0
H5 H 0.11708 0.98736 0.06777 0.0
H6 H 0.11988 0.01011 6e-05 0.0
H7 H 0.08662 0.0307 0.00641 0.0
H8 H 0.05856 0.07216 0.99415 0.0
H9 H 0.04686 0.09844 0.96668 0.0
H10 H 0.98623 0.10766 0.00338 0.0
H11 H 0.99771 0.08131 0.03079 0.0
H12 H 0.99612 0.06711 0.08043 0.0
H13 H 0.97577 0.06504 0.11521 0.0
H14 H 0.01833 0.01412 0.13742 0.0
H15 H 0.03919 0.01651 0.10269 0.0
N16 N 0.0504 0.03181 0.06396 0.0
N17 N 0.05492 0.04741 0.02872 0.0
N18 N 0.02514 0.05726 0.05136 0.0
C19 C 0.06198 0.0336 0.04458 0.0
C20 C 0.03651 0.05928 0.03196 0.0
C21 C 0.03193 0.04361 0.06746 0.0
C22 C 0.08225 0.02086 0.04078 0.0
C23 C 0.09116 0.00827 0.05781 0.0
C24 C 0.11045 0.99658 0.05418 0.0
C25 C 0.12125 0.99715 0.03343 0.0
C26 C 0.11223 0.0096 0.01637 0.0
C27 C 0.09302 0.02132 0.02 0.0
C28 C 0.02913 0.07464 0.01478 0.0
C29 C 0.04267 0.07967 0.99635 0.0
C30 C 0.03604 0.09482 0.98065 0.0
C31 C 0.01566 0.10514 0.98292 0.0
C32 C 0.00193 0.09982 0.00108 0.0
C33 C 0.00862 0.08481 0.01687 0.0
C34 C 0.01937 0.04197 0.08867 0.0
C35 C 0.00121 0.05541 0.09265 0.0
C36 C 0.24723 0.64604 0.25253 0.0
C37 C 0.23353 0.63862 0.2347 0.0
C38 C 0.23367 0.65089 0.21506 0.0
C39 C 0.24718 0.67005 0.21329 0.0
H40 H 0.25893 0.72335 0.17355 0.0
H41 H 0.25388 0.74806 0.14266 0.0
H42 H 0.30337 0.79391 0.17094 0.0
H43 H 0.30834 0.76938 0.20206 0.0
H44 H 0.34086 0.75005 0.23953 0.0
H45 H 0.3705 0.7574 0.26669 0.0
H46 H 0.34005 0.70942 0.31046 0.0
H47 H 0.31033 0.70201 0.28341 0.0
H48 H 0.27117 0.6703 0.2648 0.0
H49 H 0.24729 0.63721 0.26803 0.0
H50 H 0.22362 0.6455 0.20086 0.0
H51 H 0.24695 0.67896 0.19784 0.0
N52 N 0.27341 0.71106 0.21151 0.0
N53 N 0.3029 0.73398 0.22495 0.0
N54 N 0.29169 0.70234 0.24447 0.0
C55 C 0.28688 0.72941 0.2094 0.0
C56 C 0.30543 0.72052 0.24254 0.0
C57 C 0.27568 0.69745 0.229 0.0
C58 C 0.28404 0.74433 0.19038 0.0
C59 C 0.26878 0.73868 0.17325 0.0
C60 C 0.26595 0.75279 0.15544 0.0
C61 C 0.27823 0.77293 0.15435 0.0
C62 C 0.2935 0.77861 0.17143 0.0
C63 C 0.29642 0.76445 0.18921 0.0
C64 C 0.32319 0.7254 0.25924 0.0
C65 C 0.34039 0.7411 0.25497 0.0
C66 C 0.35746 0.74524 0.27045 0.0
C67 C 0.35759 0.73395 0.29066 0.0
C68 C 0.34028 0.71848 0.29509 0.0
C69 C 0.32333 0.71417 0.27951 0.0
C70 C 0.26102 0.67735 0.23105 0.0
C71 C 0.26086 0.66511 0.25071 0.0
C72 C 0.99337 0.39463 0.9968 0.0
C73 C 0.97801 0.38703 0.98046 0.0
C74 C 0.95808 0.39807 0.97818 0.0
C75 C 0.95356 0.41622 0.99193 0.0
H76 H 0.91294 0.46891 0.99695 0.0
H77 H 0.88116 0.49108 0.9892 0.0
H78 H 0.89047 0.52555 0.05246 0.0
H79 H 0.9226 0.50379 0.06004 0.0
H80 H 0.95965 0.48559 0.09412 0.0
H81 H 0.98251 0.4941 0.12677 0.0
H82 H 0.03861 0.4654 0.09373 0.0
H83 H 0.01531 0.45586 0.06154 0.0
H84 H 0.001 0.41809 0.02309 0.0
H85 H 0.00902 0.3867 0.9988 0.0
H86 H 0.94571 0.39246 0.96602 0.0
H87 H 0.93793 0.42414 0.98978 0.0
N88 N 0.94542 0.45448 0.01966 0.0
N89 N 0.95323 0.47627 0.05162 0.0
N90 N 0.97671 0.4478 0.04138 0.0
C91 C 0.94014 0.47142 0.03361 0.0
C92 C 0.97157 0.4646 0.05557 0.0
C93 C 0.96362 0.44255 0.02344 0.0
C94 C 0.92043 0.48456 0.02912 0.0
C95 C 0.90824 0.48118 0.00926 0.0
C96 C 0.88991 0.49383 0.00484 0.0
C97 C 0.88326 0.51011 0.02019 0.0
C98 C 0.89534 0.51338 0.04011 0.0
C99 C 0.91372 0.50079 0.04451 0.0
C100 C 0.98566 0.47003 0.07526 0.0
C101 C 0.97687 0.4811 0.09384 0.0
C102 C 0.99007 0.48611 0.11254 0.0
C103 C 0.01252 0.48054 0.11297 0.0
C104 C 0.02132 0.46959 0.09425 0.0
C105 C 0.00799 0.46423 0.07569 0.0
C106 C 0.96881 0.4237 0.00842 0.0
C107 C 0.9888 0.41273 0.01066 0.0
C108 C 0.74525 0.76907 0.13728 0.0
C109 C 0.73373 0.74847 0.13686 0.0
C110 C 0.71822 0.74364 0.15367 0.0
C111 C 0.71408 0.75926 0.17045 0.0
H112 H 0.66183 0.78313 0.20838 0.0
H113 H 0.62787 0.7791 0.23 0.0
H114 H 0.65401 0.82697 0.27847 0.0
H115 H 0.68823 0.8311 0.25682 0.0
H116 H 0.73469 0.85799 0.24454 0.0
H117 H 0.76189 0.88836 0.25081 0.0
H118 H 0.79212 0.87363 0.18722 0.0
H119 H 0.76553 0.84297 0.18129 0.0
H120 H 0.75047 0.80033 0.15402 0.0
H121 H 0.75741 0.77312 0.12457 0.0
H122 H 0.70901 0.72792 0.15361 0.0
H123 H 0.70192 0.75508 0.18311 0.0
N124 N 0.70264 0.79451 0.2013 0.0
N125 N 0.71326 0.82687 0.22136 0.0
N126 N 0.73567 0.81389 0.19236 0.0
C127 C 0.69848 0.80964 0.21763 0.0
C128 C 0.73189 0.82912 0.2087 0.0
C129 C 0.72121 0.79648 0.18864 0.0
C130 C 0.67782 0.80742 0.23087 0.0
C131 C 0.66043 0.79284 0.22363 0.0
C132 C 0.64087 0.79063 0.23592 0.0
C133 C 0.63829 0.80278 0.25585 0.0
C134 C 0.65563 0.81733 0.26319 0.0
C135 C 0.67516 0.81974 0.25075 0.0
C136 C 0.74796 0.84795 0.21246 0.0
C137 C 0.74714 0.86125 0.2319 0.0
C138 C 0.76268 0.87873 0.23545 0.0
C139 C 0.77927 0.8834 0.21957 0.0
C140 C 0.77987 0.87025 0.20003 0.0
C141 C 0.7645 0.8527 0.19657 0.0
C142 C 0.7256 0.77991 0.1709 0.0
C143 C 0.74133 0.78458 0.1542 0.0
C144 C 0.04128 0.90627 0.5218 0.0
C145 C 0.02685 0.8885 0.51536 0.0
C146 C 0.01354 0.89051 0.49631 0.0
C147 C 0.01459 0.9099 0.48404 0.0
H148 H 0.98347 0.94213 0.43343 0.0
H149 H 0.95896 0.94703 0.40179 0.0
H150 H 0.99262 0.00959 0.38839 0.0
H151 H 0.0168 0.00503 0.42025 0.0
H152 H 0.05044 0.026 0.45637 0.0
H153 H 0.0792 0.05423 0.46545 0.0
H154 H 0.1103 0.00921 0.5095 0.0
H155 H 0.08173 0.98092 0.50046 0.0
H156 H 0.05364 0.93894 0.51513 0.0
H157 H 0.05149 0.90542 0.53659 0.0
H158 H 0.00243 0.87703 0.49074 0.0
H159 H 0.00413 0.91086 0.46944 0.0
N160 N 0.01618 0.95122 0.46032 0.0
N161 N 0.03264 0.98632 0.45437 0.0
N162 N 0.04546 0.96464 0.48316 0.0
C163 C 0.01729 0.97019 0.44858 0.0
C164 C 0.04679 0.98367 0.47164 0.0
C165 C 0.03021 0.94834 0.47768 0.0
C166 C 0.00216 0.97317 0.42946 0.0
C167 C 0.98565 0.95698 0.4238 0.0
C168 C 0.97164 0.95972 0.40557 0.0
C169 C 0.97384 0.9787 0.39255 0.0
C170 C 0.99027 0.99492 0.39826 0.0
C171 C 0.00424 0.99222 0.41649 0.0
C172 C 0.06379 0.00113 0.47761 0.0
C173 C 0.06337 0.0221 0.46803 0.0
C174 C 0.07975 0.03834 0.47333 0.0
C175 C 0.09699 0.03387 0.48813 0.0
C176 C 0.09731 0.01302 0.49786 0.0
C177 C 0.08086 0.99686 0.49274 0.0
C178 C 0.02902 0.92769 0.49053 0.0
C179 C 0.04239 0.92559 0.50953 0.0
C180 C 0.25764 0.77103 0.85519 0.0
C181 C 0.2413 0.78487 0.86358 0.0
C182 C 0.21993 0.78334 0.85419 0.0
C183 C 0.21499 0.7683 0.83676 0.0
H184 H 0.16538 0.74847 0.79303 0.0
H185 H 0.13096 0.75134 0.77212 0.0
H186 H 0.15505 0.70649 0.72168 0.0
H187 H 0.18958 0.70354 0.7425 0.0
H188 H 0.22671 0.6695 0.76285 0.0
H189 H 0.25128 0.63913 0.75571 0.0
H190 H 0.30273 0.67297 0.79486 0.0
H191 H 0.27825 0.70345 0.80207 0.0
H192 H 0.26563 0.74536 0.8319 0.0
H193 H 0.27421 0.77172 0.86224 0.0
H194 H 0.20706 0.79395 0.86019 0.0
H195 H 0.19832 0.76757 0.82994 0.0
N196 N 0.20653 0.73911 0.79871 0.0
N197 N 0.21576 0.70826 0.77691 0.0
N198 N 0.24016 0.722 0.80481 0.0
C199 C 0.20138 0.72433 0.782 0.0
C200 C 0.23518 0.70696 0.78827 0.0
C201 C 0.2259 0.73811 0.81016 0.0
C202 C 0.1803 0.72579 0.76945 0.0
C203 C 0.1634 0.73919 0.77749 0.0
C204 C 0.1436 0.74076 0.7656 0.0
C205 C 0.14035 0.72915 0.74529 0.0
C206 C 0.1572 0.71576 0.73721 0.0
C207 C 0.17692 0.71399 0.74922 0.0
C208 C 0.25045 0.68893 0.78312 0.0
C209 C 0.24329 0.67059 0.76986 0.0
C210 C 0.25731 0.65311 0.76585 0.0
C211 C 0.27887 0.65366 0.7748 0.0
C212 C 0.28624 0.67217 0.78764 0.0
C213 C 0.27214 0.68956 0.79186 0.0
C214 C 0.23127 0.75429 0.82845 0.0
C215 C 0.25266 0.75584 0.83789 0.0
C216 C 0.01831 0.59344 0.51214 0.0
C217 C 0.00498 0.59835 0.53062 0.0
C218 C 0.98554 0.58535 0.53426 0.0
C219 C 0.97941 0.56797 0.51952 0.0
H220 H 0.93758 0.5132 0.51182 0.0
H221 H 0.90519 0.48951 0.51951 0.0
H222 H 0.90904 0.46029 0.45346 0.0
H223 H 0.94141 0.4843 0.44549 0.0
H224 H 0.98658 0.49654 0.41569 0.0
H225 H 0.00703 0.49558 0.38043 0.0
H226 H 0.04172 0.55691 0.39905 0.0
H227 H 0.02146 0.55807 0.43384 0.0
H228 H 0.02272 0.57314 0.48314 0.0
H229 H 0.03325 0.60332 0.50875 0.0
H230 H 0.97505 0.58863 0.5485 0.0
H231 H 0.96422 0.55842 0.52268 0.0
N232 N 0.96814 0.53165 0.48849 0.0
N233 N 0.97268 0.51427 0.4535 0.0
N234 N 0.99647 0.54399 0.46469 0.0
C235 C 0.96156 0.51581 0.4732 0.0
C236 C 0.9902 0.52838 0.44916 0.0
C237 C 0.98562 0.54576 0.48437 0.0
C238 C 0.94217 0.50076 0.47798 0.0
C239 C 0.93163 0.50173 0.49887 0.0
C240 C 0.9131 0.48801 0.50338 0.0
C241 C 0.90454 0.47298 0.48712 0.0
C242 C 0.9151 0.47186 0.46626 0.0
C243 C 0.93374 0.48556 0.46175 0.0
C244 C 0.00231 0.52737 0.42766 0.0
C245 C 0.99852 0.50983 0.41221 0.0
C246 C 0.0103 0.50922 0.39208 0.0
C247 C 0.02587 0.52625 0.38694 0.0
C248 C 0.02959 0.54372 0.40237 0.0
C249 C 0.01803 0.54426 0.42245 0.0
C250 C 0.99253 0.56336 0.50075 0.0
C251 C 0.01215 0.5762 0.49736 0.0
C252 C 0.84907 0.74666 0.72798 0.0
C253 C 0.85913 0.76386 0.71581 0.0
C254 C 0.85211 0.78551 0.71926 0.0
C255 C 0.8353 0.78985 0.7346 0.0
H256 H 0.79301 0.83782 0.75603 0.0
H257 H 0.77358 0.87225 0.75498 0.0
H258 H 0.72586 0.8469 0.80256 0.0
H259 H 0.74514 0.81227 0.80357 0.0
H260 H 0.76047 0.76935 0.83182 0.0
H261 H 0.75389 0.74205 0.86064 0.0
H262 H 0.79469 0.69635 0.82473 0.0
H263 H 0.80105 0.72332 0.79582 0.0
H264 H 0.82519 0.73735 0.75264 0.0
H265 H 0.85432 0.72986 0.7258 0.0
H266 H 0.85951 0.79904 0.70997 0.0
H267 H 0.83029 0.80672 0.73694 0.0
N268 N 0.79786 0.79676 0.7643 0.0
N269 N 0.7765 0.78519 0.79491 0.0
N270 N 0.80236 0.76171 0.77895 0.0
C271 C 0.78198 0.80088 0.77975 0.0
C272 C 0.78668 0.76555 0.79461 0.0
C273 C 0.80807 0.77717 0.76376 0.0
C274 C 0.77061 0.82217 0.77982 0.0
C275 C 0.77841 0.83953 0.76634 0.0
C276 C 0.76737 0.85936 0.76583 0.0
C277 C 0.74819 0.86227 0.77866 0.0
C278 C 0.74049 0.84504 0.79232 0.0
C279 C 0.75163 0.82524 0.79297 0.0
C280 C 0.78141 0.74864 0.81153 0.0
C281 C 0.76788 0.75342 0.82995 0.0
C282 C 0.7642 0.73783 0.84653 0.0
C283 C 0.77386 0.71709 0.845 0.0
C284 C 0.78685 0.71209 0.8263 0.0
C285 C 0.79061 0.72768 0.80979 0.0
C286 C 0.82541 0.77266 0.74699 0.0
C287 C 0.83247 0.75102 0.74346 0.0
C288 C 0.36258 0.25968 0.25383 0.0
C289 C 0.36946 0.27616 0.23893 0.0
C290 C 0.35602 0.29441 0.23625 0.0
C291 C 0.33612 0.29602 0.24809 0.0
H292 H 0.27703 0.33013 0.25195 0.0
H293 H 0.24948 0.35719 0.24346 0.0
H294 H 0.20333 0.3253 0.28868 0.0
H295 H 0.2306 0.29812 0.297 0.0
H296 H 0.24463 0.24901 0.3174 0.0
H297 H 0.23812 0.22268 0.34705 0.0
H298 H 0.30851 0.22501 0.36173 0.0
H299 H 0.31497 0.2501 0.3312 0.0
H300 H 0.33813 0.24819 0.27692 0.0
H301 H 0.3722 0.24514 0.25599 0.0
H302 H 0.36094 0.30755 0.22511 0.0
H303 H 0.32615 0.31026 0.24563 0.0
N304 N 0.29266 0.29536 0.2699 0.0
N305 N 0.26895 0.28135 0.29771 0.0
N306 N 0.30396 0.26667 0.29238 0.0
C307 C 0.27297 0.29577 0.28099 0.0
C308 C 0.28444 0.26687 0.30355 0.0
C309 C 0.30818 0.28071 0.27545 0.0
C310 C 0.25611 0.31192 0.27521 0.0
C311 C 0.26098 0.32879 0.26001 0.0
C312 C 0.24524 0.34439 0.25522 0.0
C313 C 0.22425 0.34339 0.26542 0.0
C314 C 0.21927 0.32637 0.28036 0.0
C315 C 0.23501 0.31086 0.28523 0.0
C316 C 0.2803 0.25151 0.32196 0.0
C317 C 0.25866 0.24381 0.327 0.0
C318 C 0.25495 0.22881 0.34411 0.0
C319 C 0.27278 0.22158 0.35691 0.0
C320 C 0.29439 0.22967 0.35197 0.0
C321 C 0.29812 0.24423 0.33456 0.0
C322 C 0.32933 0.27949 0.26299 0.0
C323 C 0.34288 0.26137 0.26577 0.0
C324 C 0.49257 0.90707 0.49169 0.0
C325 C 0.48181 0.90672 0.4709 0.0
C326 C 0.46644 0.92293 0.46655 0.0
C327 C 0.46175 0.93901 0.4827 0.0
H328 H 0.4244 0.99322 0.4935 0.0
H329 H 0.39475 0.01841 0.48686 0.0
H330 H 0.39669 0.03907 0.5562 0.0
H331 H 0.42674 0.01437 0.56276 0.0
H332 H 0.46621 0.00013 0.59234 0.0
H333 H 0.4856 0.00163 0.62789 0.0
H334 H 0.52418 0.94632 0.60691 0.0
H335 H 0.5051 0.945 0.57108 0.0
H336 H 0.4965 0.92289 0.5237 0.0
H337 H 0.50472 0.89496 0.49544 0.0
H338 H 0.45769 0.92296 0.45078 0.0
H339 H 0.44967 0.95111 0.47878 0.0
N340 N 0.45106 0.9708 0.51704 0.0
N341 N 0.45643 0.98635 0.55278 0.0
N342 N 0.47761 0.95669 0.5409 0.0
C343 C 0.44568 0.98599 0.53289 0.0
C344 C 0.47245 0.97181 0.55693 0.0
C345 C 0.46699 0.95608 0.5209 0.0
C346 C 0.42796 0.00168 0.52869 0.0
C347 C 0.41857 0.00317 0.50735 0.0
C348 C 0.40147 0.01755 0.50354 0.0
C349 C 0.39326 0.03071 0.52101 0.0
C350 C 0.40281 0.0294 0.5423 0.0
C351 C 0.41999 0.01511 0.54608 0.0
C352 C 0.48409 0.97246 0.57874 0.0
C353 C 0.4788 0.98824 0.59523 0.0
C354 C 0.48982 0.98903 0.61572 0.0
C355 C 0.50641 0.97408 0.62025 0.0
C356 C 0.51166 0.95824 0.60383 0.0
C357 C 0.50062 0.95743 0.58332 0.0
C358 C 0.47238 0.93929 0.50359 0.0
C359 C 0.48794 0.92318 0.50785 0.0
C360 C 0.23276 0.26348 0.63462 0.0
C361 C 0.2143 0.25147 0.62574 0.0
C362 C 0.19352 0.25332 0.63601 0.0
C363 C 0.19122 0.26693 0.65485 0.0
H364 H 0.15912 0.26851 0.71887 0.0
H365 H 0.12677 0.2639 0.74307 0.0
H366 H 0.13632 0.33131 0.76691 0.0
H367 H 0.16881 0.33598 0.74292 0.0
H368 H 0.22355 0.3508 0.74304 0.0
H369 H 0.25009 0.38145 0.75036 0.0
H370 H 0.27968 0.37081 0.68574 0.0
H371 H 0.25311 0.34013 0.67824 0.0
H372 H 0.2449 0.28659 0.65964 0.0
H373 H 0.24893 0.2624 0.6269 0.0
H374 H 0.17908 0.24408 0.62955 0.0
H375 H 0.17495 0.26803 0.66235 0.0
N376 N 0.18899 0.29159 0.69666 0.0
N377 N 0.20156 0.32197 0.71865 0.0
N378 N 0.22224 0.31074 0.68764 0.0
C379 C 0.1862 0.30542 0.71444 0.0
C380 C 0.21965 0.32472 0.70537 0.0
C381 C 0.20696 0.29414 0.68319 0.0
C382 C 0.16655 0.30261 0.72899 0.0
C383 C 0.15433 0.28237 0.72924 0.0
C384 C 0.1359 0.27967 0.74315 0.0
C385 C 0.12912 0.29726 0.7568 0.0
C386 C 0.14117 0.31755 0.75642 0.0
C387 C 0.15981 0.32015 0.74279 0.0
C388 C 0.23615 0.343 0.71002 0.0
C389 C 0.23571 0.35493 0.73036 0.0
C390 C 0.25099 0.37241 0.73464 0.0
C391 C 0.26691 0.3785 0.71861 0.0
C392 C 0.26744 0.36657 0.69831 0.0
C393 C 0.25229 0.34893 0.6941 0.0
C394 C 0.2096 0.27926 0.66359 0.0
C395 C 0.2304 0.27739 0.65327 0.0
C396 C 0.74453 0.13662 0.74623 0.0
C397 C 0.72707 0.1319 0.73117 0.0
C398 C 0.72281 0.14719 0.71453 0.0
C399 C 0.7359 0.16671 0.71291 0.0
H400 H 0.74976 0.22107 0.67248 0.0
H401 H 0.74644 0.24648 0.64179 0.0
H402 H 0.79834 0.28904 0.6709 0.0
H403 H 0.80203 0.26358 0.70126 0.0
H404 H 0.83226 0.24471 0.73955 0.0
H405 H 0.86154 0.25105 0.76735 0.0
H406 H 0.83027 0.20171 0.80903 0.0
H407 H 0.80097 0.1953 0.78139 0.0
H408 H 0.77079 0.15906 0.75667 0.0
H409 H 0.74803 0.12535 0.75944 0.0
H410 H 0.70954 0.14392 0.70259 0.0
H411 H 0.73227 0.17808 0.69983 0.0
N412 N 0.76523 0.20609 0.7094 0.0
N413 N 0.7944 0.22889 0.7239 0.0
N414 N 0.7834 0.19655 0.74218 0.0
C415 C 0.7786 0.22467 0.70803 0.0
C416 C 0.79687 0.21495 0.74105 0.0
C417 C 0.76758 0.19192 0.72647 0.0
C418 C 0.77621 0.24017 0.68939 0.0
C419 C 0.76048 0.23583 0.67236 0.0
C420 C 0.75849 0.25047 0.6548 0.0
C421 C 0.77216 0.26978 0.65385 0.0
C422 C 0.78778 0.27415 0.67092 0.0
C423 C 0.78979 0.25956 0.68844 0.0
C424 C 0.81428 0.21944 0.75818 0.0
C425 C 0.83154 0.23528 0.75468 0.0
C426 C 0.84838 0.23884 0.77052 0.0
C427 C 0.84817 0.22684 0.7903 0.0
C428 C 0.83074 0.21131 0.79401 0.0
C429 C 0.81404 0.20757 0.77808 0.0
C430 C 0.75343 0.17139 0.72799 0.0
C431 C 0.7575 0.1561 0.74469 0.0
C432 C 0.49085 0.55505 0.60244 0.0
C433 C 0.49244 0.53665 0.6161 0.0
C434 C 0.50827 0.52089 0.61092 0.0
C435 C 0.52205 0.52338 0.59231 0.0
H436 H 0.57751 0.49886 0.56049 0.0
H437 H 0.60755 0.47416 0.55249 0.0
H438 H 0.6217 0.50846 0.49146 0.0
H439 H 0.59146 0.5329 0.49914 0.0
H440 H 0.56244 0.57298 0.48516 0.0
H441 H 0.55213 0.60086 0.45862 0.0
H442 H 0.49618 0.61713 0.49989 0.0
H443 H 0.50613 0.58929 0.52616 0.0
H444 H 0.50255 0.57179 0.57358 0.0
H445 H 0.47866 0.56735 0.60584 0.0
H446 H 0.51001 0.50663 0.62127 0.0
H447 H 0.53394 0.51085 0.58867 0.0
N448 N 0.551 0.53052 0.55389 0.0
N449 N 0.5582 0.54841 0.52016 0.0
N450 N 0.52908 0.55952 0.54304 0.0
C451 C 0.56331 0.53269 0.535 0.0
C452 C 0.54107 0.56188 0.52408 0.0
C453 C 0.53388 0.54397 0.55804 0.0
C454 C 0.58193 0.51789 0.53044 0.0
C455 C 0.58701 0.5012 0.54536 0.0
C456 C 0.60434 0.48708 0.54085 0.0
C457 C 0.61701 0.4893 0.52132 0.0
C458 C 0.61207 0.50609 0.5065 0.0
C459 C 0.59476 0.5202 0.51099 0.0
C460 C 0.53514 0.57882 0.50784 0.0
C461 C 0.54791 0.58247 0.48856 0.0
C462 C 0.54207 0.5985 0.47339 0.0
C463 C 0.52329 0.61111 0.47712 0.0
C464 C 0.51055 0.60744 0.49635 0.0
C465 C 0.51639 0.59154 0.51152 0.0
C466 C 0.52014 0.54161 0.57841 0.0
C467 C 0.50448 0.55748 0.58382 0.0
C468 C 0.53819 0.43433 0.03096 0.0
C469 C 0.52183 0.41745 0.02761 0.0
C470 C 0.50817 0.41787 0.00865 0.0
C471 C 0.51078 0.43488 0.99339 0.0
H472 H 0.47715 0.46706 0.94264 0.0
H473 H 0.45216 0.46957 0.9107 0.0
H474 H 0.4983 0.51617 0.88039 0.0
H475 H 0.52321 0.51381 0.912 0.0
H476 H 0.55513 0.54201 0.95035 0.0
H477 H 0.58746 0.56725 0.95183 0.0
H478 H 0.6237 0.51889 0.98755 0.0
H479 H 0.5909 0.49411 0.98702 0.0
H480 H 0.55377 0.46395 0.01873 0.0
H481 H 0.5491 0.43431 0.04531 0.0
H482 H 0.49527 0.40518 0.00575 0.0
H483 H 0.49994 0.4347 0.97898 0.0
N484 N 0.51525 0.47186 0.96365 0.0
N485 N 0.53582 0.50253 0.95059 0.0
N486 N 0.54804 0.48411 0.98196 0.0
C487 C 0.51798 0.48824 0.94866 0.0
C488 C 0.5509 0.5006 0.96714 0.0
C489 C 0.53019 0.46972 0.9804 0.0
C490 C 0.50225 0.49016 0.92988 0.0
C491 C 0.48194 0.47789 0.92919 0.0
C492 C 0.46757 0.47938 0.91099 0.0
C493 C 0.4734 0.49294 0.89305 0.0
C494 C 0.49353 0.50538 0.89388 0.0
C495 C 0.50774 0.50409 0.9121 0.0
C496 C 0.57047 0.51606 0.96857 0.0
C497 C 0.56999 0.5368 0.9586 0.0
C498 C 0.58862 0.55123 0.95931 0.0
C499 C 0.60833 0.54513 0.96968 0.0
C500 C 0.60874 0.52436 0.97974 0.0
C501 C 0.58995 0.51007 0.97935 0.0
C502 C 0.52724 0.45176 0.99666 0.0
C503 C 0.54093 0.45125 0.01563 0.0
C504 C 0.73179 0.27135 0.36745 0.0
C505 C 0.71717 0.28731 0.37522 0.0
C506 C 0.6975 0.29034 0.36323 0.0
C507 C 0.69254 0.27767 0.34401 0.0
H508 H 0.65676 0.27841 0.28395 0.0
H509 H 0.62592 0.28732 0.26001 0.0
H510 H 0.62724 0.22228 0.22914 0.0
H511 H 0.6586 0.21367 0.25249 0.0
H512 H 0.70562 0.1898 0.25578 0.0
H513 H 0.72772 0.15809 0.2467 0.0
H514 H 0.76439 0.16847 0.30815 0.0
H515 H 0.74272 0.20051 0.31703 0.0
H516 H 0.73845 0.24646 0.34288 0.0
H517 H 0.74728 0.26884 0.37602 0.0
H518 H 0.68571 0.30227 0.36889 0.0
H519 H 0.67715 0.28035 0.33532 0.0
N520 N 0.68433 0.25266 0.30291 0.0
N521 N 0.69152 0.22223 0.27961 0.0
N522 N 0.71386 0.23004 0.31097 0.0
C523 C 0.67916 0.23996 0.28457 0.0
C524 C 0.70893 0.21717 0.2927 0.0
C525 C 0.70165 0.2478 0.31622 0.0
C526 C 0.66022 0.24533 0.27014 0.0
C527 C 0.65049 0.266 0.27205 0.0
C528 C 0.6327 0.27108 0.25838 0.0
C529 C 0.62402 0.25554 0.2426 0.0
C530 C 0.63371 0.23482 0.24079 0.0
C531 C 0.65165 0.22983 0.2543 0.0
C532 C 0.72235 0.19778 0.28716 0.0
C533 C 0.7184 0.18538 0.26738 0.0
C534 C 0.73101 0.16709 0.26221 0.0
C535 C 0.74783 0.16071 0.2767 0.0
C536 C 0.75179 0.17311 0.29645 0.0
C537 C 0.73924 0.19144 0.30161 0.0
C538 C 0.70707 0.26156 0.33638 0.0
C539 C 0.72677 0.25859 0.34832 0.0
C540 C 0.50469 0.10369 0.00232 0.0
C541 C 0.49156 0.10955 0.02067 0.0
C542 C 0.47251 0.09639 0.02549 0.0
C543 C 0.46673 0.07778 0.01224 0.0
H544 H 0.41783 0.0293 0.00227 0.0
H545 H 0.38512 0.00623 0.01095 0.0
H546 H 0.40396 0.95839 0.96083 0.0
H547 H 0.43686 0.9813 0.95218 0.0
H548 H 0.47656 0.99403 0.9189 0.0
H549 H 0.50018 0.98553 0.88712 0.0
H550 H 0.54185 0.04345 0.90261 0.0
H551 H 0.51866 0.05177 0.93449 0.0
H552 H 0.50946 0.08123 0.97503 0.0
H553 H 0.5193 0.11366 0.99796 0.0
H554 H 0.46217 0.10033 0.03966 0.0
H555 H 0.45197 0.068 0.01648 0.0
N556 N 0.45556 0.0393 0.98425 0.0
N557 N 0.46314 0.01611 0.95359 0.0
N558 N 0.48664 0.04691 0.96191 0.0
C559 C 0.45008 0.0212 0.97131 0.0
C560 C 0.48145 0.02894 0.94877 0.0
C561 C 0.47385 0.05222 0.97968 0.0
C562 C 0.43007 0.00719 0.97651 0.0
C563 C 0.41508 0.01386 0.99307 0.0
C564 C 0.39623 0.00071 0.99798 0.0
C565 C 0.39196 0.98051 0.98658 0.0
C566 C 0.40692 0.97378 0.97007 0.0
C567 C 0.42572 0.987 0.96503 0.0
C568 C 0.49567 0.02358 0.92936 0.0
C569 C 0.49077 0.00495 0.91558 0.0
C570 C 0.50425 0.00011 0.89728 0.0
C571 C 0.52294 0.01377 0.89237 0.0
C572 C 0.52779 0.03238 0.90612 0.0
C573 C 0.51436 0.03722 0.92437 0.0
C574 C 0.47987 0.07192 0.99385 0.0
C575 C 0.49893 0.08513 0.98907 0.0
C576 C 0.22161 0.91532 0.01902 0.0
O577 O 0.23678 0.92319 0.00528 0.0
O578 O 0.24254 0.86011 0.99131 0.0
Zn579 Zn 0.25014 0.87801 0.01936 0.0
O580 O 0.27752 0.89771 0.01468 0.0
C581 C 0.25921 0.83702 0.04117 0.0
O582 O 0.25927 0.8292 0.0206 0.0
O583 O 0.22397 0.89639 0.02726 0.0
C584 C 0.29665 0.88958 0.01407 0.0
O585 O 0.29835 0.86824 0.01672 0.0
C586 C 0.25336 0.86157 0.97319 0.0
O587 O 0.27027 0.87583 0.97192 0.0
O588 O 0.25573 0.85737 0.04467 0.0
C589 C 0.14973 0.44816 0.24911 0.0
O590 O 0.12866 0.44245 0.24622 0.0
O591 O 0.11362 0.49197 0.27416 0.0
Zn592 Zn 0.1332 0.49206 0.24682 0.0
O593 O 0.15028 0.52139 0.24409 0.0
C594 C 0.09546 0.49299 0.21695 0.0
O595 O 0.08793 0.50648 0.23232 0.0
O596 O 0.15557 0.46854 0.24992 0.0
C597 C 0.1443 0.53722 0.23217 0.0
O598 O 0.12574 0.53503 0.22073 0.0
C599 C 0.10521 0.50946 0.28189 0.0
O600 O 0.10963 0.52829 0.27206 0.0
O601 O 0.11444 0.48491 0.21948 0.0
C602 C 0.78988 0.59836 0.00257 0.0
O603 O 0.77265 0.58969 0.99166 0.0
O604 O 0.76757 0.65419 0.97615 0.0
Zn605 Zn 0.76289 0.63651 0.00389 0.0
O606 O 0.7353 0.6167 0.00187 0.0
C607 C 0.75073 0.6765 0.02585 0.0
O608 O 0.74509 0.68128 0.00542 0.0
O609 O 0.78954 0.61834 0.00941 0.0
C610 C 0.71931 0.61987 0.98866 0.0
O611 O 0.72046 0.63678 0.97532 0.0
C612 C 0.76762 0.64683 0.95619 0.0
O613 O 0.76484 0.62549 0.95225 0.0
O614 O 0.75892 0.6579 0.02954 0.0
C615 C 0.83396 0.06505 0.25709 0.0
O616 O 0.82461 0.04779 0.24672 0.0
O617 O 0.8897 0.032 0.28689 0.0
Zn618 Zn 0.87093 0.0363 0.25951 0.0
O619 O 0.84909 0.01037 0.25574 0.0
C620 C 0.91102 0.03785 0.232 0.0
O621 O 0.92139 0.03596 0.25107 0.0
O622 O 0.8539 0.06412 0.26384 0.0
C623 C 0.85329 0.99373 0.24343 0.0
O624 O 0.87245 0.99323 0.23305 0.0
C625 C 0.89686 0.01316 0.2915 0.0
O626 O 0.89209 0.99626 0.27805 0.0
O627 O 0.88996 0.03868 0.23184 0.0
C628 C 0.28204 0.09219 0.49269 0.0
O629 O 0.26589 0.08599 0.47895 0.0
O630 O 0.25469 0.14415 0.47297 0.0
Zn631 Zn 0.25276 0.12718 0.50152 0.0
O632 O 0.22649 0.10552 0.50038 0.0
C633 C 0.24029 0.16577 0.52739 0.0
O634 O 0.23034 0.17082 0.50883 0.0
O635 O 0.2803 0.1098 0.50432 0.0
C636 C 0.20696 0.10969 0.50673 0.0
O637 O 0.20291 0.12937 0.51497 0.0
C638 C 0.23767 0.15004 0.46242 0.0
O639 O 0.21777 0.14487 0.47003 0.0
O640 O 0.25085 0.14804 0.52813 0.0
C641 C 0.34068 0.53972 0.76206 0.0
O642 O 0.33375 0.52005 0.76853 0.0
O643 O 0.39583 0.50972 0.77572 0.0
Zn644 Zn 0.37786 0.51496 0.74797 0.0
O645 O 0.35716 0.48865 0.74198 0.0
C646 C 0.4036 0.50285 0.70933 0.0
O647 O 0.39546 0.48306 0.714 0.0
O648 O 0.35959 0.54191 0.7528 0.0
C649 C 0.34502 0.48793 0.72464 0.0
O650 O 0.34632 0.50446 0.71081 0.0
C651 C 0.41521 0.50223 0.77435 0.0
O652 O 0.42353 0.49783 0.75463 0.0
O653 O 0.3983 0.51926 0.72151 0.0
C654 C 0.71887 0.40862 0.51299 0.0
O655 O 0.72138 0.40091 0.49257 0.0
O656 O 0.74761 0.36211 0.49466 0.0
Zn657 Zn 0.75596 0.38102 0.52168 0.0
O658 O 0.78479 0.39789 0.51543 0.0
C659 C 0.74226 0.35128 0.55586 0.0
O660 O 0.72283 0.35443 0.54675 0.0
O661 O 0.73184 0.40251 0.52821 0.0
C662 C 0.78769 0.4064 0.49641 0.0
O663 O 0.7718 0.40402 0.48146 0.0
C664 C 0.75409 0.34248 0.4924 0.0
O665 O 0.76634 0.33429 0.5081 0.0
O666 O 0.75938 0.36132 0.54809 0.0
C667 C 0.66601 0.96133 0.76373 0.0
O668 O 0.67637 0.98079 0.76535 0.0
O669 O 0.60735 0.99145 0.78027 0.0
Zn670 Zn 0.62721 0.9868 0.75377 0.0
O671 O 0.6467 0.01415 0.74946 0.0
C672 C 0.58807 0.9829 0.7253 0.0
O673 O 0.57745 0.98794 0.74371 0.0
O674 O 0.64544 0.96018 0.75898 0.0
C675 C 0.63763 0.03212 0.74492 0.0
O676 O 0.61588 0.03227 0.74347 0.0
C677 C 0.61579 0.99687 0.7991 0.0
O678 O 0.63748 -0.00061 0.80086 0.0
O679 O 0.60903 0.98137 0.72585 0.0
C680 C 0.99801 0.20534 0.90106 0.0
O681 O 0.97834 0.20427 0.89161 0.0
O682 O 0.9789 0.24039 0.85696 0.0
Zn683 Zn 0.00517 0.24703 0.87715 0.0
O684 O 0.00025 0.27443 0.89602 0.0
C685 C 0.03196 0.2652 0.84169 0.0
O686 O 0.0139 0.27585 0.83759 0.0
O687 O 0.01129 0.22163 0.8972 0.0
C688 C 0.98995 0.29069 0.88864 0.0
O689 O 0.98205 0.28965 0.86824 0.0
C690 C 0.95887 0.24179 0.86326 0.0
O691 O 0.95469 0.24702 0.88415 0.0
O692 O 0.03214 0.25203 0.85788 0.0
C693 C 0.5077 0.71516 0.39997 0.0
O694 O 0.48665 0.71812 0.39576 0.0
O695 O 0.4885 0.75114 0.3568 0.0
Zn696 Zn 0.51444 0.75706 0.37771 0.0
O697 O 0.50721 0.7805 0.40046 0.0
C698 C 0.53995 0.7746 0.34069 0.0
O699 O 0.52034 0.77545 0.33123 0.0
O700 O 0.5222 0.72946 0.39366 0.0
C701 C 0.50491 0.80033 0.39468 0.0
O702 O 0.507 0.80526 0.37356 0.0
C703 C 0.46849 0.75383 0.36264 0.0
O704 O 0.46428 0.76028 0.38319 0.0
O705 O 0.54133 0.76746 0.36037 0.0
C706 C 0.99893 0.7836 0.59034 0.0
O707 O 0.97971 0.77326 0.59376 0.0
O708 O 0.98686 0.76066 0.64368 0.0
Zn709 Zn 0.01217 0.75341 0.62311 0.0
O710 O 0.00504 0.72479 0.60653 0.0
C711 C 0.03982 0.74425 0.66077 0.0
O712 O 0.02053 0.73928 0.66993 0.0
O713 O 0.01586 0.7778 0.60107 0.0
C714 C 0.01955 0.71079 0.60179 0.0
O715 O 0.0403 0.71501 0.60773 0.0
C716 C 0.96813 0.75036 0.64213 0.0
O717 O 0.96528 0.73457 0.62695 0.0
O718 O 0.04037 0.75089 0.64082 0.0
C719 C 0.50483 0.30833 0.0991 0.0
O720 O 0.50231 0.31307 0.12038 0.0
O721 O 0.47183 0.27147 0.13345 0.0
Zn722 Zn 0.49823 0.26405 0.11456 0.0
O723 O 0.4907 0.23565 0.09774 0.0
C724 C 0.52904 0.27138 0.15175 0.0
O725 O 0.51469 0.2859 0.15839 0.0
O726 O 0.5039 0.28823 0.09259 0.0
C727 C 0.50552 0.22254 0.09146 0.0
O728 O 0.52644 0.22761 0.09606 0.0
C729 C 0.468 0.26169 0.15164 0.0
O730 O 0.48156 0.24664 0.15819 0.0
O731 O 0.52548 0.26047 0.13369 0.0
H732 H 0.2167 0.79239 0.90067 0.0
H733 H 0.27766 0.8129 0.86817 0.0
H734 H 0.28652 0.83881 0.89896 0.0
H735 H 0.27711 0.85534 0.93525 0.0
H736 H 0.21649 0.83423 0.96815 0.0
H737 H 0.20723 0.80902 0.93696 0.0
C738 C 0.23183 0.80268 0.90026 0.0
C739 C 0.24649 0.80076 0.88218 0.0
C740 C 0.23687 0.81743 0.91807 0.0
C741 C 0.26621 0.81394 0.88201 0.0
C742 C 0.27123 0.82882 0.89956 0.0
C743 C 0.26182 0.84532 0.93557 0.0
C744 C 0.24751 0.84672 0.954 0.0
C745 C 0.25671 0.83066 0.9177 0.0
C746 C 0.22783 0.83347 0.95419 0.0
C747 C 0.22251 0.81904 0.93635 0.0
H748 H 0.04657 0.49161 0.36745 0.0
H749 H 0.03364 0.56046 0.35893 0.0
H750 H 0.05689 0.56127 0.32568 0.0
H751 H 0.08181 0.54286 0.29974 0.0
H752 H 0.09485 0.47395 0.30791 0.0
H753 H 0.07056 0.47271 0.34046 0.0
C754 C 0.04861 0.50669 0.35812 0.0
C755 C 0.03851 0.52597 0.36572 0.0
C756 C 0.06213 0.50708 0.33904 0.0
C757 C 0.04149 0.54547 0.35359 0.0
C758 C 0.05474 0.54594 0.33455 0.0
C759 C 0.07935 0.52755 0.30861 0.0
C760 C 0.09026 0.50857 0.30145 0.0
C761 C 0.06536 0.52693 0.32728 0.0
C762 C 0.08673 0.48884 0.31309 0.0
C763 C 0.07282 0.4881 0.33171 0.0
H764 H 0.77686 0.72567 0.88943 0.0
H765 H 0.76541 0.67243 0.84147 0.0
H766 H 0.76291 0.64585 0.87155 0.0
H767 H 0.76411 0.63777 0.91156 0.0
H768 H 0.77529 0.69141 0.95929 0.0
H769 H 0.77761 0.71774 0.92922 0.0
C770 C 0.77352 0.70829 0.88558 0.0
C771 C 0.77126 0.70105 0.86326 0.0
C772 C 0.77215 0.69313 0.90291 0.0
C773 C 0.76738 0.6784 0.85851 0.0
C774 C 0.7659 0.6632 0.8757 0.0
C775 C 0.76712 0.65521 0.91538 0.0
C776 C 0.76956 0.66254 0.93767 0.0
C777 C 0.76836 0.67037 0.89797 0.0
C778 C 0.77336 0.68524 0.9423 0.0
C779 C 0.77466 0.70036 0.92511 0.0
H780 H 0.95433 0.01616 0.37959 0.0
H781 H 0.96059 0.9474 0.36134 0.0
H782 H 0.93702 0.95192 0.3288 0.0
H783 H 0.91522 0.9755 0.30518 0.0
H784 H 0.90958 0.04448 0.32291 0.0
H785 H 0.9326 0.03981 0.35585 0.0
C786 C 0.9507 0.0022 0.36839 0.0
C787 C 0.95924 0.98147 0.37293 0.0
C788 C 0.93731 0.00496 0.34959 0.0
C789 C 0.95402 0.96347 0.35844 0.0
C790 C 0.94066 0.96607 0.33973 0.0
C791 C 0.919 0.98953 0.31623 0.0
C792 C 0.91069 0.01031 0.31154 0.0
C793 C 0.93227 0.98675 0.33512 0.0
C794 C 0.91576 0.0283 0.32609 0.0
C795 C 0.92892 0.02565 0.34495 0.0
H796 H 0.2445 0.22008 0.6184 0.0
H797 H 0.18906 0.25101 0.58818 0.0
H798 H 0.19252 0.22748 0.55486 0.0
H799 H 0.21112 0.19806 0.5345 0.0
H800 H 0.26565 0.16591 0.56518 0.0
H801 H 0.26279 0.19001 0.59816 0.0
C802 C 0.2333 0.22169 0.60443 0.0
C803 C 0.2166 0.23722 0.60563 0.0
C804 C 0.2352 0.20791 0.58548 0.0
C805 C 0.20195 0.23903 0.58761 0.0
C806 C 0.20396 0.22566 0.56857 0.0
C807 C 0.22244 0.19637 0.54836 0.0
C808 C 0.23863 0.1803 0.54736 0.0
C809 C 0.22049 0.21003 0.56735 0.0
C810 C 0.25302 0.17815 0.56556 0.0
C811 C 0.25142 0.19194 0.5844 0.0
H812 H 0.4698 0.4991 0.62802 0.0
H813 H 0.48049 0.56777 0.64694 0.0
H814 H 0.45372 0.56351 0.67724 0.0
H815 H 0.42701 0.54035 0.69812 0.0
H816 H 0.41656 0.47157 0.67925 0.0
H817 H 0.44358 0.4758 0.64927 0.0
C818 C 0.46648 0.51305 0.63896 0.0
C819 C 0.47711 0.53371 0.63524 0.0
C820 C 0.45103 0.5105 0.65629 0.0
C821 C 0.47236 0.55174 0.64933 0.0
C822 C 0.45709 0.54931 0.66668 0.0
C823 C 0.4306 0.52629 0.68743 0.0
C824 C 0.41972 0.50569 0.69092 0.0
C825 C 0.44622 0.5288 0.67023 0.0
C826 C 0.42466 0.48763 0.67695 0.0
C827 C 0.44014 0.49001 0.65979 0.0
H828 H 0.73435 0.28347 0.6343 0.0
H829 H 0.80578 0.29113 0.63133 0.0
H830 H 0.80285 0.31731 0.60123 0.0
H831 H 0.78007 0.33791 0.57555 0.0
H832 H 0.70864 0.32964 0.57796 0.0
H833 H 0.71156 0.30369 0.60827 0.0
C834 C 0.74928 0.29068 0.62692 0.0
C835 C 0.77024 0.28535 0.63515 0.0
C836 C 0.7475 0.30565 0.60949 0.0
C837 C 0.78941 0.29515 0.62557 0.0
C838 C 0.78777 0.31005 0.60826 0.0
C839 C 0.76513 0.33048 0.58273 0.0
C840 C 0.74417 0.33577 0.57448 0.0
C841 C 0.76691 0.31546 0.60011 0.0
C842 C 0.725 0.32589 0.58395 0.0
C843 C 0.72664 0.31102 0.6013 0.0
H844 H 0.55069 0.97043 0.6274 0.0
H845 H 0.48893 0.9805 0.66179 0.0
H846 H 0.50869 0.98391 0.6973 0.0
H847 H 0.54354 0.98458 0.7185 0.0
H848 H 0.60527 0.97414 0.6841 0.0
H849 H 0.5854 0.97 0.64874 0.0
C850 C 0.54151 0.97308 0.64269 0.0
C851 C 0.51837 0.97527 0.64191 0.0
C852 C 0.55296 0.97497 0.66306 0.0
C853 C 0.50679 0.97905 0.66187 0.0
C854 C 0.51805 0.9809 0.6822 0.0
C855 C 0.55266 0.98134 0.70329 0.0
C856 C 0.57587 0.97974 0.70398 0.0
C857 C 0.54115 0.97902 0.68298 0.0
C858 C 0.5874 0.97548 0.68409 0.0
C859 C 0.57606 0.97312 0.66383 0.0
H860 H 0.89245 0.22854 0.78228 0.0
H861 H 0.84454 0.23219 0.83541 0.0
H862 H 0.87455 0.23697 0.86277 0.0
H863 H 0.91442 0.2402 0.8715 0.0
H864 H 0.96225 0.23595 0.81822 0.0
H865 H 0.93226 0.23138 0.79102 0.0
C866 C 0.88861 0.23058 0.79983 0.0
C867 C 0.86636 0.23012 0.80683 0.0
C868 C 0.90592 0.23315 0.81544 0.0
C869 C 0.86158 0.23237 0.82966 0.0
C870 C 0.87871 0.23516 0.84528 0.0
C871 C 0.91829 0.23826 0.85395 0.0
C872 C 0.94056 0.23844 0.84694 0.0
C873 C 0.90095 0.23554 0.83836 0.0
C874 C 0.94527 0.23582 0.82411 0.0
C875 C 0.92812 0.23325 0.80851 0.0
H876 H 0.48584 0.86278 0.4774 0.0
H877 H 0.48793 0.91169 0.42614 0.0
H878 H 0.49487 0.88308 0.39801 0.0
H879 H 0.50059 0.84423 0.38803 0.0
H880 H 0.4989 0.79538 0.43943 0.0
H881 H 0.49177 0.82397 0.46745 0.0
C882 C 0.48804 0.86721 0.4601 0.0
C883 C 0.48639 0.88934 0.45389 0.0
C884 C 0.49209 0.8507 0.44404 0.0
C885 C 0.48889 0.89475 0.43134 0.0
C886 C 0.49296 0.87841 0.41526 0.0
C887 C 0.49864 0.83981 0.40535 0.0
C888 C 0.50029 0.81768 0.41159 0.0
C889 C 0.49457 0.85633 0.42142 0.0
C890 C 0.49773 0.81228 0.43413 0.0
C891 C 0.49365 0.82862 0.4502 0.0
H892 H 0.12069 0.26447 0.78593 0.0
H893 H 0.09391 0.32388 0.76045 0.0
H894 H 0.06132 0.31915 0.78442 0.0
H895 H 0.04044 0.29797 0.81242 0.0
H896 H 0.06791 0.23924 0.83895 0.0
H897 H 0.10026 0.24382 0.81475 0.0
C898 C 0.10763 0.27629 0.7856 0.0
C899 C 0.10955 0.29442 0.77144 0.0
C900 C 0.08914 0.27359 0.7996 0.0
C901 C 0.09276 0.30985 0.77133 0.0
C902 C 0.07414 0.30711 0.78496 0.0
C903 C 0.05349 0.28616 0.81289 0.0
C904 C 0.05173 0.26824 0.82738 0.0
C905 C 0.07215 0.28903 0.79914 0.0
C906 C 0.06888 0.2532 0.82796 0.0
C907 C 0.08736 0.25577 0.81411 0.0
H908 H 0.55057 0.64159 0.45719 0.0
H909 H 0.48187 0.61934 0.46169 0.0
H910 H 0.47106 0.64919 0.43775 0.0
H911 H 0.48094 0.68233 0.41664 0.0
H912 H 0.54966 0.7047 0.41215 0.0
H913 H 0.56064 0.67391 0.43473 0.0
C914 C 0.53328 0.64309 0.45266 0.0
C915 C 0.51705 0.62834 0.46131 0.0
C916 C 0.52716 0.66035 0.43895 0.0
C917 C 0.49466 0.63067 0.45551 0.0
C918 C 0.48847 0.64768 0.44176 0.0
C919 C 0.49833 0.68044 0.42049 0.0
C920 C 0.51441 0.69588 0.41278 0.0
C921 C 0.50454 0.66277 0.43359 0.0
C922 C 0.5369 0.69311 0.41791 0.0
C923 C 0.54322 0.6755 0.43085 0.0
H924 H 0.89895 0.78597 0.71184 0.0
H925 H 0.85966 0.73099 0.68418 0.0
H926 H 0.88986 0.72211 0.65879 0.0
H927 H 0.92754 0.7296 0.64492 0.0
H928 H 0.96723 0.7842 0.67295 0.0
H929 H 0.93671 0.79367 0.69767 0.0
C930 C 0.89696 0.7722 0.70008 0.0
C931 C 0.87715 0.75915 0.69984 0.0
C932 C 0.91446 0.76708 0.68568 0.0
C933 C 0.87486 0.74115 0.68477 0.0
C934 C 0.89207 0.7361 0.67023 0.0
C935 C 0.92953 0.7436 0.6564 0.0
C936 C 0.94965 0.75615 0.65708 0.0
C937 C 0.91199 0.74887 0.67064 0.0
C938 C 0.95194 0.77422 0.67211 0.0
C939 C 0.93448 0.77967 0.68624 0.0
H940 H 0.98971 0.86416 0.52652 0.0
H941 H 0.06097 0.86711 0.53441 0.0
H942 H 0.05865 0.83487 0.55811 0.0
H943 H 0.03636 0.80632 0.57724 0.0
H944 H 0.96516 0.8029 0.56866 0.0
H945 H 0.96758 0.83461 0.54428 0.0
C946 C 0.00478 0.85757 0.53314 0.0
C947 C 0.02547 0.86814 0.52877 0.0
C948 C 0.00335 0.83894 0.54666 0.0
C949 C 0.04478 0.85953 0.5378 0.0
C950 C 0.0435 0.84102 0.55126 0.0
C951 C 0.02136 0.81246 0.56999 0.0
C952 C 0.00061 0.80229 0.57487 0.0
C953 C 0.02285 0.8307 0.55596 0.0
C954 C 0.98136 0.8104 0.56522 0.0
C955 C 0.98271 0.82857 0.55129 0.0
H956 H 0.13602 0.73644 0.70104 0.0
H957 H 0.09792 0.7265 0.76103 0.0
H958 H 0.06344 0.73019 0.74017 0.0
H959 H 0.04417 0.73629 0.70492 0.0
H960 H 0.08233 0.74699 0.64501 0.0
H961 H 0.11672 0.74285 0.66578 0.0
C962 C 0.12014 0.73492 0.70948 0.0
C963 C 0.11948 0.73115 0.73251 0.0
C964 C 0.10042 0.73722 0.69742 0.0
C965 C 0.09883 0.72956 0.74333 0.0
C966 C 0.07913 0.73159 0.73141 0.0
C967 C 0.06 0.73769 0.69639 0.0
C968 C 0.06065 0.74192 0.67344 0.0
C969 C 0.07973 0.73546 0.70846 0.0
C970 C 0.08134 0.7438 0.66268 0.0
C971 C 0.10102 0.7414 0.67453 0.0
H972 H 0.97775 0.62954 0.54676 0.0
H973 H 0.0459 0.61028 0.54757 0.0
H974 H 0.05638 0.64319 0.56998 0.0
H975 H 0.04636 0.67794 0.5884 0.0
H976 H 0.97814 0.69723 0.58739 0.0
H977 H 0.96751 0.66369 0.56619 0.0
C978 C 0.99483 0.63239 0.55212 0.0
C979 C 0.01102 0.61751 0.5455 0.0
C980 C 0.00076 0.65139 0.56488 0.0
C981 C 0.03317 0.62161 0.55227 0.0
C982 C 0.03916 0.64038 0.56512 0.0
C983 C 0.02915 0.67479 0.58361 0.0
C984 C 0.01311 0.69014 0.58942 0.0
C985 C 0.02313 0.6555 0.57133 0.0
C986 C 0.99087 0.68575 0.58309 0.0
C987 C 0.98475 0.66655 0.57097 0.0
H988 H 0.77259 0.92427 0.23778 0.0
H989 H 0.82358 0.88407 0.20964 0.0
H990 H 0.85073 0.91471 0.21415 0.0
H991 H 0.86006 0.95292 0.2259 0.0
H992 H 0.8096 0.9927 0.25556 0.0
H993 H 0.7823 0.96206 0.25098 0.0
C994 C 0.7897 0.92208 0.2329 0.0
C995 C 0.79593 0.90189 0.22323 0.0
C996 C 0.80535 0.93969 0.23582 0.0
C997 C 0.81816 0.89953 0.21673 0.0
C998 C 0.83377 0.917 0.21943 0.0
C999 C 0.84308 0.9549 0.23135 0.0
C1000 C 0.83686 0.97508 0.24096 0.0
C1001 C 0.82753 0.93719 0.22884 0.0
C1002 C 0.81484 0.97732 0.24812 0.0
C1003 C 0.7992 0.95982 0.24548 0.0
H1004 H 0.7923 0.15625 0.28253 0.0
H1005 H 0.73303 0.12093 0.25879 0.0
H1006 H 0.75456 0.08863 0.24996 0.0
H1007 H 0.79 0.07013 0.24965 0.0
H1008 H 0.84911 0.1049 0.27456 0.0
H1009 H 0.82777 0.13759 0.28251 0.0
C1010 C 0.78404 0.14142 0.27562 0.0
C1011 C 0.76106 0.14108 0.27131 0.0
C1012 C 0.79648 0.12278 0.27082 0.0
C1013 C 0.75073 0.12181 0.26198 0.0
C1014 C 0.76301 0.10326 0.25706 0.0
C1015 C 0.79826 0.08487 0.25675 0.0
C1016 C 0.82113 0.08504 0.26148 0.0
C1017 C 0.78587 0.10355 0.26144 0.0
C1018 C 0.83152 0.10428 0.27077 0.0
C1019 C 0.81933 0.123 0.27533 0.0
H1020 H 0.38952 0.93607 0.99225 0.0
H1021 H 0.34954 0.99359 0.993 0.0
H1022 H 0.3166 0.97066 0.00188 0.0
H1023 H 0.29909 0.9342 0.00904 0.0
H1024 H 0.3392 0.87668 0.00838 0.0
H1025 H 0.37208 0.89966 -0.00028 0.0
C1026 C 0.37356 0.94355 0.99419 0.0
C1027 C 0.37198 0.96649 0.99192 0.0
C1028 C 0.35471 0.93027 -0.00068 0.0
C1029 C 0.35124 0.976 0.99486 0.0
C1030 C 0.33238 0.96288 -0.00016 0.0
C1031 C 0.31502 0.92668 0.00704 0.0
C1032 C 0.31663 0.90373 0.00934 0.0
C1033 C 0.33392 0.94 0.00209 0.0
C1034 C 0.33744 0.8943 0.00673 0.0
C1035 C 0.35628 0.90742 0.00174 0.0
H1036 H 0.23151 0.38786 0.26326 0.0
H1037 H 0.17976 0.33678 0.25772 0.0
H1038 H 0.15219 0.36464 0.252 0.0
H1039 H 0.1427 0.40351 0.24919 0.0
H1040 H 0.19452 0.45459 0.25479 0.0
H1041 H 0.22214 0.4267 0.25964 0.0
C1042 C 0.21424 0.38282 0.26052 0.0
C1043 C 0.2077 0.36029 0.26094 0.0
C1044 C 0.19847 0.39891 0.2573 0.0
C1045 C 0.18519 0.35404 0.25772 0.0
C1046 C 0.16943 0.36994 0.25437 0.0
C1047 C 0.16004 0.40856 0.25142 0.0
C1048 C 0.16648 0.43114 0.25167 0.0
C1049 C 0.17586 0.39244 0.25428 0.0
C1050 C 0.18905 0.43735 0.25457 0.0
C1051 C 0.20489 0.4214 0.25734 0.0
H1052 H 0.14125 0.02781 0.48825 0.0
H1053 H 0.09291 0.07764 0.49855 0.0
H1054 H 0.12269 0.10546 0.50595 0.0
H1055 H 0.16251 0.11562 0.50895 0.0
H1056 H 0.21073 0.06576 0.49755 0.0
H1057 H 0.18093 0.03789 0.49138 0.0
C1058 C 0.13726 0.04472 0.49234 0.0
C1059 C 0.11496 0.05068 0.49295 0.0
C1060 C 0.15442 0.06059 0.49638 0.0
C1061 C 0.10999 0.07272 0.49785 0.0
C1062 C 0.12699 0.08858 0.50216 0.0
C1063 C 0.16649 0.09863 0.50525 0.0
C1064 C 0.1888 0.09278 0.50376 0.0
C1065 C 0.14927 0.08272 0.5014 0.0
C1066 C 0.19369 0.07072 0.49876 0.0
C1067 C 0.17667 0.05476 0.49522 0.0
H1068 H 0.68205 0.12658 0.72842 0.0
H1069 H 0.74146 0.09048 0.73831 0.0
H1070 H 0.71911 0.0565 0.74343 0.0
H1071 H 0.68271 0.03712 0.74573 0.0
H1072 H 0.62322 0.07313 0.73571 0.0
H1073 H 0.64559 0.10695 0.72985 0.0
C1074 C 0.6901 0.11121 0.73143 0.0
C1075 C 0.71338 0.11109 0.73306 0.0
C1076 C 0.67714 0.09171 0.73441 0.0
C1077 C 0.72355 0.09109 0.73726 0.0
C1078 C 0.71079 0.07163 0.74011 0.0
C1079 C 0.67462 0.05235 0.74224 0.0
C1080 C 0.65131 0.05256 0.74123 0.0
C1081 C 0.68757 0.07177 0.73889 0.0
C1082 C 0.64113 0.07246 0.73664 0.0
C1083 C 0.65391 0.09184 0.73326 0.0
H1084 H 0.35629 0.0218 0.49583 0.0
H1085 H 0.38792 0.07257 0.53774 0.0
H1086 H 0.35636 0.09603 0.53269 0.0
H1087 H 0.31961 0.10196 0.51671 0.0
H1088 H 0.28852 0.05152 0.47398 0.0
H1089 H 0.32027 0.02829 0.47871 0.0
C1090 C 0.35646 0.03812 0.50361 0.0
C1091 C 0.37446 0.04535 0.5172 0.0
C1092 C 0.33836 0.05161 0.50048 0.0
C1093 C 0.37416 0.06643 0.52746 0.0
C1094 C 0.35617 0.07992 0.52448 0.0
C1095 C 0.31979 0.08591 0.50839 0.0
C1096 C 0.30166 0.07848 0.49508 0.0
C1097 C 0.33813 0.07262 0.51113 0.0
C1098 C 0.30223 0.05767 0.48433 0.0
C1099 C 0.32038 0.04434 0.48705 0.0
H1100 H 0.64792 0.47423 0.54992 0.0
H1101 H 0.6268 0.46994 0.48119 0.0
H1102 H 0.65657 0.44499 0.47255 0.0
H1103 H 0.68834 0.42411 0.48449 0.0
H1104 H 0.70923 0.42784 0.55332 0.0
H1105 H 0.67966 0.45307 0.56195 0.0
C1106 C 0.64971 0.46769 0.53309 0.0
C1107 C 0.63515 0.47401 0.51624 0.0
C1108 C 0.66681 0.45322 0.52824 0.0
C1109 C 0.63794 0.46562 0.49444 0.0
C1110 C 0.65489 0.45123 0.48949 0.0
C1111 C 0.68647 0.43043 0.50139 0.0
C1112 C 0.70102 0.42406 0.51821 0.0
C1113 C 0.66941 0.44492 0.50626 0.0
C1114 C 0.69829 0.43245 0.54002 0.0
C1115 C 0.68137 0.44689 0.54499 0.0
H1116 H 0.73562 0.2735 0.41371 0.0
H1117 H 0.71049 0.33128 0.38297 0.0
H1118 H 0.71902 0.35321 0.41668 0.0
H1119 H 0.73425 0.35617 0.45464 0.0
H1120 H 0.76071 0.29868 0.48475 0.0
H1121 H 0.75134 0.27656 0.45137 0.0
C1122 C 0.73223 0.29094 0.41426 0.0
C1123 C 0.72242 0.30068 0.39577 0.0
C1124 C 0.73747 0.30355 0.43357 0.0
C1125 C 0.71775 0.32324 0.39702 0.0
C1126 C 0.72275 0.33585 0.41625 0.0
C1127 C 0.73792 0.33879 0.45393 0.0
C1128 C 0.74816 0.32911 0.47219 0.0
C1129 C 0.73265 0.32619 0.43461 0.0
C1130 C 0.75289 0.30658 0.47094 0.0
C1131 C 0.74752 0.2939 0.45185 0.0
H1132 H 0.56806 0.0164 0.89057 0.0
H1133 H 0.51006 2e-05 0.85043 0.0
H1134 H 0.53365 0.99293 0.81818 0.0
H1135 H 0.57069 0.99231 0.80115 0.0
H1136 H 0.6286 0.00931 0.84129 0.0
H1137 H 0.60504 0.01553 0.87367 0.0
C1138 C 0.56056 0.01144 0.87472 0.0
C1139 C 0.53732 0.00882 0.87293 0.0
C1140 C 0.57419 0.00759 0.85621 0.0
C1141 C 0.52791 0.00194 0.85236 0.0
C1142 C 0.54137 0.99803 0.83386 0.0
C1143 C 0.57818 0.99736 0.81698 0.0
C1144 C 0.6014 0.00039 0.81874 0.0
C1145 C 0.56453 0.00092 0.83557 0.0
C1146 C 0.61079 0.00688 0.83941 0.0
C1147 C 0.59733 0.01044 0.85797 0.0
H1148 H 0.23721 0.21861 0.38515 0.0
H1149 H 0.29964 0.18876 0.37038 0.0
H1150 H 0.2945 0.1645 0.40189 0.0
H1151 H 0.27253 0.1519 0.43397 0.0
H1152 H 0.20867 0.17932 0.44667 0.0
H1153 H 0.21386 0.20392 0.41519 0.0
C1154 C 0.24955 0.20655 0.38847 0.0
C1155 C 0.26894 0.20585 0.37542 0.0
C1156 C 0.24621 0.19211 0.40623 0.0
C1157 C 0.28482 0.19023 0.38039 0.0
C1158 C 0.28182 0.17614 0.39833 0.0
C1159 C 0.25975 0.16324 0.42978 0.0
C1160 C 0.24034 0.16394 0.44266 0.0
C1161 C 0.26267 0.17705 0.41146 0.0
C1162 C 0.22375 0.17846 0.43694 0.0
C1163 C 0.22674 0.19258 0.419 0.0
H1164 H 0.48576 0.48906 0.84998 0.0
H1165 H 0.42865 0.4988 0.8917 0.0
H1166 H 0.40532 0.50229 0.85859 0.0
H1167 H 0.40161 0.50377 0.81771 0.0
H1168 H 0.45905 0.49338 0.77638 0.0
H1169 H 0.48182 0.48907 0.80942 0.0
C1170 C 0.46821 0.49201 0.85179 0.0
C1171 C 0.45894 0.49388 0.87317 0.0
C1172 C 0.455 0.49396 0.83277 0.0
C1173 C 0.43611 0.49725 0.87536 0.0
C1174 C 0.42282 0.49935 0.85646 0.0
C1175 C 0.4191 0.50055 0.81595 0.0
C1176 C 0.42862 0.49905 0.79459 0.0
C1177 C 0.43214 0.49793 0.83507 0.0
C1178 C 0.45128 0.49465 0.79259 0.0
C1179 C 0.46435 0.4922 0.81149 0.0
H1180 H 0.73423 0.75589 0.0926 0.0
H1181 H 0.74167 0.70468 0.14052 0.0
H1182 H 0.74804 0.67783 0.11037 0.0
H1183 H 0.75136 0.66902 0.07036 0.0
H1184 H 0.74261 0.72019 0.02252 0.0
H1185 H 0.73701 0.747 0.05267 0.0
C1186 C 0.73741 0.73888 0.0964 0.0
C1187 C 0.73761 0.73224 0.11867 0.0
C1188 C 0.74081 0.72356 0.07903 0.0
C1189 C 0.74135 0.71009 0.12344 0.0
C1190 C 0.74505 0.69479 0.10624 0.0
C1191 C 0.74831 0.68605 0.06655 0.0
C1192 C 0.74748 0.69261 0.04425 0.0
C1193 C 0.7448 0.70134 0.08397 0.0
C1194 C 0.74329 0.71469 0.03955 0.0
C1195 C 0.74011 0.73006 0.05678 0.0
H1196 H 0.95057 0.04055 0.13469 0.0
H1197 H 0.01175 0.03558 0.17134 0.0
H1198 H 0.99109 0.03447 0.2063 0.0
H1199 H 0.95572 0.03558 0.22653 0.0
H1200 H 0.89463 0.04128 0.18981 0.0
H1201 H 0.91527 0.04183 0.15487 0.0
C1202 C 0.95942 0.03942 0.15033 0.0
C1203 C 0.9827 0.03819 0.15035 0.0
C1204 C 0.94747 0.03904 0.17039 0.0
C1205 C 0.99383 0.03629 0.17078 0.0
C1206 C 0.98204 0.03581 0.19081 0.0
C1207 C 0.9469 0.03697 0.2109 0.0
C1208 C 0.92365 0.03844 0.21084 0.0
C1209 C 0.95887 0.03725 0.19082 0.0
C1210 C 0.91252 0.04017 0.19039 0.0
C1211 C 0.92431 0.04046 0.17037 0.0
H1212 H 0.27482 0.76198 0.11029 0.0
H1213 H 0.27451 0.81774 0.15616 0.0
H1214 H 0.26881 0.84254 0.12525 0.0
H1215 H 0.2634 0.84829 0.08523 0.0
H1216 H 0.26375 0.79239 0.03942 0.0
H1217 H 0.26974 0.76776 0.07029 0.0
C1218 C 0.27334 0.77954 0.11353 0.0
C1219 C 0.27503 0.78799 0.1355 0.0
C1220 C 0.27003 0.79368 0.0957 0.0
C1221 C 0.27348 0.81084 0.13938 0.0
C1222 C 0.2701 0.82501 0.12173 0.0
C1223 C 0.26477 0.83072 0.08198 0.0
C1224 C 0.26306 0.82223 0.06002 0.0
C1225 C 0.2683 0.81661 0.09982 0.0
C1226 C 0.265 0.79941 0.05614 0.0
C1227 C 0.26841 0.78528 0.07379 0.0
H1228 H 0.04556 0.45653 0.13061 0.0
H1229 H 0.01141 0.5174 0.14022 0.0
H1230 H 0.03345 0.52608 0.17348 0.0
H1231 H 0.06253 0.51663 0.19982 0.0
H1232 H 0.0987 0.45734 0.18874 0.0
H1233 H 0.07609 0.44811 0.15574 0.0
C1234 C 0.04312 0.47188 0.13972 0.0
C1235 C 0.02661 0.48615 0.13288 0.0
C1236 C 0.05627 0.47712 0.15857 0.0
C1237 C 0.02357 0.50579 0.14526 0.0
C1238 C 0.03631 0.5109 0.16423 0.0
C1239 C 0.06543 0.50166 0.19019 0.0
C1240 C 0.08214 0.48761 0.19676 0.0
C1241 C 0.05264 0.49666 0.17108 0.0
C1242 C 0.08593 0.46844 0.18398 0.0
C1243 C 0.07299 0.46313 0.16515 0.0
H1244 H 0.40189 0.73618 0.28234 0.0
H1245 H 0.35418 0.74089 0.33558 0.0
H1246 H 0.38426 0.74752 0.36256 0.0
H1247 H 0.4241 0.75204 0.37098 0.0
H1248 H 0.47182 0.7466 0.31774 0.0
H1249 H 0.44175 0.74032 0.29081 0.0
C1250 C 0.3981 0.73883 0.29984 0.0
C1251 C 0.37587 0.73812 0.30696 0.0
C1252 C 0.41546 0.74248 0.31525 0.0
C1253 C 0.37119 0.74121 0.32972 0.0
C1254 C 0.38836 0.74508 0.34513 0.0
C1255 C 0.42793 0.74951 0.35349 0.0
C1256 C 0.45019 0.74983 0.34641 0.0
C1257 C 0.41056 0.74574 0.33809 0.0
C1258 C 0.45485 0.74639 0.32368 0.0
C1259 C 0.43766 0.74283 0.30824 0.0
H1260 H 0.96922 0.38141 0.93615 0.0
H1261 H 0.99704 0.34865 0.99228 0.0
H1262 H 0.00379 0.31627 0.96874 0.0
H1263 H 0.00088 0.29686 0.93245 0.0
H1264 H 0.9718 0.32926 0.87673 0.0
H1265 H 0.96613 0.362 0.90002 0.0
C1266 C 0.97658 0.36713 0.94331 0.0
C1267 C 0.98257 0.36751 0.96598 0.0
C1268 C 0.9801 0.34843 0.92978 0.0
C1269 C 0.99251 0.34897 0.97483 0.0
C1270 C 0.99623 0.33036 0.96142 0.0
C1271 C 0.99333 0.31109 0.92538 0.0
C1272 C 0.98675 0.31056 0.90287 0.0
C1273 C 0.98999 0.32987 0.9389 0.0
C1274 C 0.97697 0.32916 0.89401 0.0
C1275 C 0.97373 0.34793 0.9073 0.0
H1276 H 0.63483 0.79621 0.30032 0.0
H1277 H 0.5956 0.80239 0.24081 0.0
H1278 H 0.56159 0.79505 0.26201 0.0
H1279 H 0.54318 0.78548 0.2971 0.0
H1280 H 0.58249 0.77833 0.35649 0.0
H1281 H 0.61627 0.78764 0.33573 0.0
C1282 C 0.6188 0.79624 0.29209 0.0
C1283 C 0.61769 0.7998 0.26907 0.0
C1284 C 0.59936 0.79174 0.30432 0.0
C1285 C 0.59685 0.79949 0.25851 0.0
C1286 C 0.57742 0.79534 0.27061 0.0
C1287 C 0.55911 0.78607 0.30555 0.0
C1288 C 0.56029 0.78114 0.3283 0.0
C1289 C 0.5785 0.79119 0.29347 0.0
C1290 C 0.5811 0.78196 0.33897 0.0
C1291 C 0.60044 0.78729 0.32712 0.0
H1292 H 0.04115 0.13892 0.96652 0.0
H1293 H 0.97509 0.10896 0.96329 0.0
H1294 H 0.9638 0.13717 0.9375 0.0
H1295 H 0.97266 0.17058 0.91618 0.0
H1296 H 0.03873 0.20069 0.91994 0.0
H1297 H 0.05007 0.17208 0.94504 0.0
C1298 C 0.02435 0.13843 0.95997 0.0
C1299 C 0.00899 0.12186 0.96675 0.0
C1300 C 0.01796 0.15475 0.94527 0.0
C1301 C 0.98717 0.12166 0.95845 0.0
C1302 C 0.98073 0.13773 0.94365 0.0
C1303 C 0.98956 0.17086 0.92244 0.0
C1304 C 0.0048 0.18778 0.91616 0.0
C1305 C 0.99597 0.15442 0.93702 0.0
C1306 C 0.02662 0.18791 0.92451 0.0
C1307 C 0.03315 0.17153 0.93887 0.0
H1308 H 0.37712 0.28677 0.19554 0.0
H1309 H 0.40883 0.26032 0.25319 0.0
H1310 H 0.44191 0.25337 0.23124 0.0
H1311 H 0.4615 0.25376 0.19545 0.0
H1312 H 0.43077 0.28201 0.13829 0.0
H1313 H 0.39781 0.28967 0.16042 0.0
C1314 C 0.39139 0.27985 0.20344 0.0
C1315 C 0.3903 0.27384 0.22595 0.0
C1316 C 0.41054 0.27616 0.1908 0.0
C1317 C 0.40894 0.26465 0.23578 0.0
C1318 C 0.42796 0.26078 0.22327 0.0
C1319 C 0.44759 0.2616 0.18785 0.0
C1320 C 0.44847 0.26711 0.16524 0.0
C1321 C 0.42883 0.26619 0.20071 0.0
C1322 C 0.43047 0.27757 0.15568 0.0
C1323 C 0.41161 0.28193 0.16831 0.0
H1324 H 0.51663 0.37339 0.01874 0.0
H1325 H 0.52083 0.42124 0.07296 0.0
H1326 H 0.51621 0.3917 0.09986 0.0
H1327 H 0.51059 0.35236 0.10794 0.0
H1328 H 0.50662 0.30442 0.0537 0.0
H1329 H 0.51141 0.33393 0.02685 0.0
C1330 C 0.51637 0.37733 0.03645 0.0
C1331 C 0.51902 0.39945 0.04386 0.0
C1332 C 0.51375 0.36027 0.0518 0.0
C1333 C 0.51901 0.40431 0.06685 0.0
C1334 C 0.51628 0.38745 0.08223 0.0
C1335 C 0.51078 0.34834 0.09025 0.0
C1336 C 0.50819 0.32621 0.08286 0.0
C1337 C 0.51361 0.36538 0.07489 0.0
C1338 C 0.50858 0.32131 0.05987 0.0
C1339 C 0.51129 0.33818 0.04448 0.0
H1340 H 0.61727 0.24412 0.1988 0.0
H1341 H 0.58754 0.27888 0.25404 0.0
H1342 H 0.55618 0.28763 0.23057 0.0
H1343 H 0.53669 0.28471 0.19466 0.0
H1344 H 0.56537 0.24823 0.14003 0.0
H1345 H 0.59745 0.24056 0.16312 0.0
C1346 C 0.60384 0.2534 0.20582 0.0
C1347 C 0.60489 0.26084 0.2282 0.0
C1348 C 0.5856 0.25803 0.19236 0.0
C1349 C 0.58744 0.27322 0.2368 0.0
C1350 C 0.56938 0.27811 0.22343 0.0
C1351 C 0.55 0.27516 0.18776 0.0
C1352 C 0.54865 0.26711 0.16563 0.0
C1353 C 0.56826 0.27056 0.20121 0.0
C1354 C 0.56597 0.2546 0.15702 0.0
C1355 C 0.58433 0.25021 0.17021 0.0
H1356 H 0.46409 0.14056 0.03711 0.0
H1357 H 0.53287 0.12328 0.03537 0.0
H1358 H 0.54323 0.15662 0.0571 0.0
H1359 H 0.53285 0.19085 0.07626 0.0
H1360 H 0.46397 0.20793 0.07833 0.0
H1361 H 0.45358 0.17435 0.05705 0.0
C1362 C 0.48131 0.14395 0.04171 0.0
C1363 C 0.49767 0.12946 0.03456 0.0
C1364 C 0.48716 0.16312 0.05425 0.0
C1365 C 0.51997 0.13429 0.04039 0.0
C1366 C 0.52591 0.1533 0.05291 0.0
C1367 C 0.51555 0.18724 0.0721 0.0
C1368 C 0.49925 0.20195 0.07886 0.0
C1369 C 0.50966 0.16789 0.05983 0.0
C1370 C 0.4769 0.19694 0.07333 0.0
C1371 C 0.47092 0.17772 0.06115 0.0
H1372 H 0.27761 0.41209 0.69095 0.0
H1373 H 0.29138 0.3874 0.75619 0.0
H1374 H 0.31688 0.41904 0.76378 0.0
H1375 H 0.33506 0.45375 0.75193 0.0
H1376 H 0.32081 0.47881 0.68687 0.0
H1377 H 0.29579 0.44691 0.6791 0.0
C1378 C 0.28637 0.41357 0.70673 0.0
C1379 C 0.28269 0.39745 0.72297 0.0
C1380 C 0.30086 0.43186 0.71102 0.0
C1381 C 0.29384 0.39971 0.74351 0.0
C1382 C 0.30846 0.41774 0.74782 0.0
C1383 C 0.32652 0.45223 0.73603 0.0
C1384 C 0.32984 0.46863 0.72 0.0
C1385 C 0.31205 0.43394 0.73172 0.0
C1386 C 0.31854 0.46645 0.69952 0.0
C1387 C 0.30424 0.4482 0.69505 0.0
H1388 H 0.2679 0.6102 0.77943 0.0
H1389 H 0.32252 0.65474 0.76239 0.0
H1390 H 0.34654 0.62344 0.75676 0.0
H1391 H 0.35192 0.58335 0.75669 0.0
H1392 H 0.29726 0.53908 0.77465 0.0
H1393 H 0.27335 0.57031 0.77977 0.0
C1394 C 0.28502 0.61302 0.7743 0.0
C1395 C 0.29341 0.63471 0.77122 0.0
C1396 C 0.29873 0.595 0.77129 0.0
C1397 C 0.31573 0.63818 0.76498 0.0
C1398 C 0.32943 0.6203 0.76169 0.0
C1399 C 0.33477 0.58054 0.76169 0.0
C1400 C 0.32641 0.55888 0.76524 0.0
C1401 C 0.32111 0.59863 0.76482 0.0
C1402 C 0.30418 0.55555 0.77185 0.0
C1403 C 0.29045 0.57341 0.77476 0.0
H1404 H 0.86904 0.4638 0.45994 0.0
H1405 H 0.89483 0.45057 0.52518 0.0
H1406 H 0.86108 0.42881 0.53383 0.0
H1407 H 0.82398 0.41397 0.52308 0.0
H1408 H 0.79834 0.42709 0.45769 0.0
H1409 H 0.83235 0.44822 0.44885 0.0
C1410 C 0.8674 0.45592 0.47594 0.0
C1411 C 0.88443 0.45887 0.49189 0.0
C1412 C 0.84793 0.44343 0.48082 0.0
C1413 C 0.88186 0.44881 0.51269 0.0
C1414 C 0.8626 0.43628 0.51763 0.0
C1415 C 0.82583 0.42142 0.50688 0.0
C1416 C 0.80857 0.41896 0.49111 0.0
C1417 C 0.84546 0.4336 0.50187 0.0
C1418 C 0.81131 0.42871 0.47018 0.0
C1419 C 0.83078 0.44081 0.46509 0.0
H1420 H 0.70368 0.86632 0.77452 0.0
H1421 H 0.76535 0.9047 0.77944 0.0
H1422 H 0.74538 0.93877 0.77564 0.0
H1423 H 0.71044 0.95758 0.77023 0.0
H1424 H 0.64883 0.919 0.76482 0.0
H1425 H 0.66872 0.88514 0.7697 0.0
C1426 C 0.7127 0.88217 0.77503 0.0
C1427 C 0.73595 0.88299 0.77728 0.0
C1428 C 0.70114 0.90166 0.77269 0.0
C1429 C 0.74747 0.90362 0.77753 0.0
C1430 C 0.73605 0.92311 0.77542 0.0
C1431 C 0.70134 0.94178 0.77018 0.0
C1432 C 0.67817 0.94088 0.76712 0.0
C1433 C 0.7129 0.92231 0.77285 0.0
C1434 C 0.66667 0.92022 0.76707 0.0
C1435 C 0.67802 0.90082 0.76988 0.0
H1436 H 0.63907 0.5518 0.00289 0.0
H1437 H 0.62297 0.57263 0.9366 0.0
H1438 H 0.65526 0.59808 0.93702 0.0
H1439 H 0.68838 0.6142 0.95595 0.0
H1440 H 0.70598 0.59139 0.02101 0.0
H1441 H 0.67306 0.56657 0.02106 0.0
C1442 C 0.64273 0.56164 0.98837 0.0
C1443 C 0.62839 0.56031 0.96982 0.0
C1444 C 0.66168 0.57586 0.98845 0.0
C1445 C 0.63334 0.57357 0.95135 0.0
C1446 C 0.65195 0.58803 0.95146 0.0
C1447 C 0.68497 0.60383 0.97015 0.0
C1448 C 0.69952 0.60471 0.98848 0.0
C1449 C 0.66621 0.58934 0.96993 0.0
C1450 C 0.69504 0.59099 0.00667 0.0
C1451 C 0.67621 0.57682 0.00673 0.0
H1452 H 0.1913 0.63101 0.21915 0.0
H1453 H 0.24382 0.59989 0.25427 0.0
H1454 H 0.22066 0.56616 0.2572 0.0
H1455 H 0.1858 0.54518 0.24918 0.0
H1456 H 0.13388 0.57581 0.21271 0.0
H1457 H 0.15668 0.60988 0.21063 0.0
C1458 C 0.19781 0.61679 0.22724 0.0
C1459 C 0.21931 0.61808 0.23649 0.0
C1460 C 0.18453 0.5973 0.22858 0.0
C1461 C 0.22724 0.59955 0.24729 0.0
C1462 C 0.21406 0.58017 0.24884 0.0
C1463 C 0.17944 0.55932 0.24081 0.0
C1464 C 0.15814 0.55791 0.23112 0.0
C1465 C 0.1927 0.57883 0.23951 0.0
C1466 C 0.15022 0.57638 0.22027 0.0
C1467 C 0.16324 0.59591 0.21908 0.0
H1468 H 0.87935 0.55422 0.02811 0.0
H1469 H 0.84354 0.49648 0.00141 0.0
H1470 H 0.8118 0.51876 0.99313 0.0
H1471 H 0.79404 0.5545 0.99387 0.0
H1472 H 0.82943 0.61206 0.02157 0.0
H1473 H 0.86138 0.58988 0.02933 0.0
C1474 C 0.86452 0.54645 0.0207 0.0
C1475 C 0.86387 0.5237 0.01538 0.0
C1476 C 0.84623 0.55931 0.01619 0.0
C1477 C 0.84463 0.514 0.00541 0.0
C1478 C 0.82641 0.52671 0.00079 0.0
C1479 C 0.80874 0.56223 0.00157 0.0
C1480 C 0.80931 0.58492 0.00711 0.0
C1481 C 0.82703 0.54937 0.00611 0.0
C1482 C 0.82851 0.59462 0.01715 0.0
C1483 C 0.84681 0.58195 0.0216 0.0
H1484 H 0.13057 0.9559 0.04731 0.0
H1485 H 0.15841 0.01089 0.01066 0.0
H1486 H 0.19174 0.99049 0.00299 0.0
H1487 H 0.21291 0.95696 0.00635 0.0
H1488 H 0.18553 0.90225 0.04374 0.0
H1489 H 0.1523 0.92279 0.05173 0.0
C1490 C 0.14403 0.96354 0.03788 0.0
C1491 C 0.14186 0.98488 0.02949 0.0
C1492 C 0.16328 0.95178 0.03366 0.0
C1493 C 0.15941 0.99436 0.01702 0.0
C1494 C 0.17856 0.98276 0.01272 0.0
C1495 C 0.19971 0.94952 0.01629 0.0
C1496 C 0.20173 0.92806 0.02436 0.0
C1497 C 0.18063 0.96142 0.02086 0.0
C1498 C 0.18445 0.91874 0.03729 0.0
C1499 C 0.16541 0.93046 0.04186 0.0
loop_
_geom_bond_atom_site_label_1
_geom_bond_atom_site_label_2
_geom_bond_distance
_geom_bond_site_symmetry_2
_ccdc_geom_bond_type
C0 C1 1.384 . S
C0 H13 0.947 . S
C0 C35 1.382 . S
C1 C0 1.384 . S
C1 C2 1.397 . S
C2 C1 1.397 . S
C2 C3 1.363 1_655 S
C2 H14 0.949 1_655 S
C3 C2 1.363 1_455 S
C3 H15 0.950 . S
C3 C34 1.383 . S
H4 C23 0.948 . S
H5 C24 0.946 . S
H6 C26 0.953 . S
H7 C27 0.945 . S
H8 C29 0.952 . S
H9 C30 0.949 . S
H10 C32 0.950 . S
H11 C33 0.948 . S
H12 C35 0.951 . S
H13 C0 0.947 . S
H14 C2 0.949 1_455 S
H15 C3 0.950 . S
N16 C19 1.382 . S
N16 C21 1.363 . S
N17 C19 1.371 . S
N17 C20 1.372 . S
N18 C20 1.361 . S
N18 C21 1.377 . S
C19 N16 1.382 . S
C19 N17 1.371 . S
C19 C22 1.480 . S
C20 N17 1.372 . S
C20 N18 1.361 . S
C20 C28 1.457 . S
C21 N16 1.363 . S
C21 N18 1.377 . S
C21 C34 1.479 . S
C22 C19 1.480 . S
C22 C23 1.383 . S
C22 C27 1.385 . S
C23 H4 0.948 . S
C23 C22 1.383 . S
C23 C24 1.388 1_545 S
C24 H5 0.946 . S
C24 C23 1.388 1_565 S
C24 C25 1.384 . S
C25 C24 1.384 . S
C25 C26 1.377 1_565 S
C26 H6 0.953 . S
C26 C25 1.377 1_545 S
C26 C27 1.369 . S
C27 H7 0.945 . S
C27 C22 1.385 . S
C27 C26 1.369 . S
C28 C20 1.457 . S
C28 C29 1.372 1_554 S
C28 C33 1.364 . S
C29 H8 0.952 . S
C29 C28 1.372 1_556 S
C29 C30 1.389 . S
C30 H9 0.949 . S
C30 C29 1.389 . S
C30 C31 1.387 . S
C31 C30 1.387 . S
C31 C32 1.372 1_556 S
C32 H10 0.950 . S
C32 C31 1.372 1_554 S
C32 C33 1.379 . S
C33 H11 0.948 . S
C33 C28 1.364 . S
C33 C32 1.379 . S
C34 C3 1.383 . S
C34 C21 1.479 . S
C34 C35 1.398 1_455 S
C35 C0 1.382 . S
C35 H12 0.951 . S
C35 C34 1.398 1_655 S
C36 C37 1.384 . S
C36 H49 0.947 . S
C36 C71 1.382 . S
C37 C36 1.384 . S
C37 C38 1.378 . S
C38 C37 1.378 . S
C38 C39 1.378 . S
C38 H50 0.952 . S
C39 C38 1.378 . S
C39 H51 0.950 . S
C39 C70 1.383 . S
H40 C59 0.947 . S
H41 C60 0.946 . S
H42 C62 0.953 . S
H43 C63 0.945 . S
H44 C65 0.952 . S
H45 C66 0.949 . S
H46 C68 0.950 . S
H47 C69 0.948 . S
H48 C71 0.951 . S
H49 C36 0.947 . S
H50 C38 0.952 . S
H51 C39 0.950 . S
N52 C55 1.382 . S
N52 C57 1.363 . S
N53 C55 1.371 . S
N53 C56 1.372 . S
N54 C56 1.361 . S
N54 C57 1.377 . S
C55 N52 1.382 . S
C55 N53 1.371 . S
C55 C58 1.480 . S
C56 N53 1.372 . S
C56 N54 1.361 . S
C56 C64 1.457 . S
C57 N52 1.363 . S
C57 N54 1.377 . S
C57 C70 1.479 . S
C58 C55 1.480 . S
C58 C59 1.383 . S
C58 C63 1.385 . S
C59 H40 0.947 . S
C59 C58 1.383 . S
C59 C60 1.388 . S
C60 H41 0.946 . S
C60 C59 1.388 . S
C60 C61 1.384 . S
C61 C60 1.384 . S
C61 C62 1.377 . S
C62 H42 0.953 . S
C62 C61 1.377 . S
C62 C63 1.369 . S
C63 H43 0.945 . S
C63 C58 1.385 . S
C63 C62 1.369 . S
C64 C56 1.457 . S
C64 C65 1.372 . S
C64 C69 1.364 . S
C65 H44 0.952 . S
C65 C64 1.372 . S
C65 C66 1.389 . S
C66 H45 0.949 . S
C66 C65 1.389 . S
C66 C67 1.387 . S
C67 C66 1.387 . S
C67 C68 1.372 . S
C68 H46 0.950 . S
C68 C67 1.372 . S
C68 C69 1.379 . S
C69 H47 0.948 . S
C69 C64 1.364 . S
C69 C68 1.379 . S
C70 C39 1.383 . S
C70 C57 1.479 . S
C70 C71 1.398 . S
C71 C36 1.382 . S
C71 H48 0.951 . S
C71 C70 1.398 . S
C72 C73 1.384 . S
C72 H85 0.948 1_655 S
C72 C107 1.382 1_556 S
C73 C72 1.384 . S
C73 C74 1.378 . S
C74 C73 1.378 . S
C74 C75 1.378 . S
C74 H86 0.952 . S
C75 C74 1.378 . S
C75 H87 0.950 . S
C75 C106 1.383 1_556 S
H76 C95 0.974 . S
H77 C96 0.946 1_556 S
H78 C98 0.953 . S
H79 C99 0.945 . S
H80 C101 0.952 . S
H81 C102 0.949 . S
H82 C104 0.950 . S
H83 C105 0.948 . S
H84 C107 0.951 . S
H85 C72 0.948 1_455 S
H86 C74 0.952 . S
H87 C75 0.950 . S
N88 C91 1.382 . S
N88 C93 1.363 . S
N89 C91 1.371 . S
N89 C92 1.372 . S
N90 C92 1.361 . S
N90 C93 1.377 . S
C91 N88 1.382 . S
C91 N89 1.371 . S
C91 C94 1.480 . S
C92 N89 1.372 . S
C92 N90 1.361 . S
C92 C100 1.457 . S
C93 N88 1.363 . S
C93 N90 1.377 . S
C93 C106 1.479 . S
C94 C91 1.480 . S
C94 C95 1.383 . S
C94 C99 1.385 . S
C95 H76 0.974 . S
C95 C94 1.383 . S
C95 C96 1.388 . S
C96 H77 0.946 1_554 S
C96 C95 1.388 . S
C96 C97 1.384 . S
C97 C96 1.384 . S
C97 C98 1.377 . S
C98 H78 0.953 . S
C98 C97 1.377 . S
C98 C99 1.369 . S
C99 H79 0.945 . S
C99 C94 1.385 . S
C99 C98 1.369 . S
C100 C92 1.457 . S
C100 C101 1.372 . S
C100 C105 1.364 1_655 S
C101 H80 0.952 . S
C101 C100 1.372 . S
C101 C102 1.389 1_655 S
C102 H81 0.949 . S
C102 C101 1.389 1_455 S
C102 C103 1.387 . S
C103 C102 1.387 . S
C103 C104 1.372 . S
C104 H82 0.950 . S
C104 C103 1.372 . S
C104 C105 1.379 . S
C105 H83 0.948 . S
C105 C100 1.364 1_455 S
C105 C104 1.379 . S
C106 C75 1.383 1_554 S
C106 C93 1.479 . S
C106 C107 1.398 . S
C107 C72 1.382 1_554 S
C107 H84 0.951 . S
C107 C106 1.398 . S
C108 C109 1.384 . S
C108 H121 0.947 . S
C108 C143 1.382 . S
C109 C108 1.384 . S
C109 C110 1.378 . S
C110 C109 1.378 . S
C110 C111 1.378 . S
C110 H122 0.952 . S
C111 C110 1.378 . S
C111 H123 0.950 . S
C111 C142 1.383 . S
H112 C131 0.947 . S
H113 C132 0.946 . S
H114 C134 0.953 . S
H115 C135 0.945 . S
H116 C137 0.952 . S
H117 C138 0.949 . S
H118 C140 0.950 . S
H119 C141 0.948 . S
H120 C143 0.951 . S
H121 C108 0.947 . S
H122 C110 0.952 . S
H123 C111 0.950 . S
N124 C127 1.382 . S
N124 C129 1.363 . S
N125 C127 1.371 . S
N125 C128 1.372 . S
N126 C128 1.361 . S
N126 C129 1.377 . S
C127 N124 1.382 . S
C127 N125 1.371 . S
C127 C130 1.480 . S
C128 N125 1.372 . S
C128 N126 1.361 . S
C128 C136 1.457 . S
C129 N124 1.363 . S
C129 N126 1.377 . S
C129 C142 1.479 . S
C130 C127 1.480 . S
C130 C131 1.383 . S
C130 C135 1.385 . S
C131 H112 0.947 . S
C131 C130 1.383 . S
C131 C132 1.388 . S
C132 H113 0.946 . S
C132 C131 1.388 . S
C132 C133 1.384 . S
C133 C132 1.384 . S
C133 C134 1.377 . S
C134 H114 0.953 . S
C134 C133 1.377 . S
C134 C135 1.369 . S
C135 H115 0.945 . S
C135 C130 1.385 . S
C135 C134 1.369 . S
C136 C128 1.457 . S
C136 C137 1.372 . S
C136 C141 1.364 . S
C137 H116 0.952 . S
C137 C136 1.372 . S
C137 C138 1.389 . S
C138 H117 0.949 . S
C138 C137 1.389 . S
C138 C139 1.387 . S
C139 C138 1.387 . S
C139 C140 1.372 . S
C140 H118 0.950 . S
C140 C139 1.372 . S
C140 C141 1.379 . S
C141 H119 0.948 . S
C141 C136 1.364 . S
C141 C140 1.379 . S
C142 C111 1.383 . S
C142 C129 1.479 . S
C142 C143 1.398 . S
C143 C108 1.382 . S
C143 H120 0.951 . S
C143 C142 1.398 . S
C144 C145 1.384 . S
C144 H157 0.947 . S
C144 C179 1.382 . S
C145 C144 1.384 . S
C145 C146 1.378 . S
C146 C145 1.378 . S
C146 C147 1.378 . S
C146 H158 0.950 1_455 S
C147 C146 1.378 . S
C147 H159 0.950 . S
C147 C178 1.383 . S
H148 C167 0.947 . S
H149 C168 0.946 . S
H150 C170 0.954 . S
H151 C171 0.945 1_545 S
H152 C173 0.952 . S
H153 C174 0.949 . S
H154 C176 0.950 . S
H155 C177 0.948 . S
H156 C179 0.951 . S
H157 C144 0.947 . S
H158 C146 0.950 1_655 S
H159 C147 0.950 . S
N160 C163 1.382 . S
N160 C165 1.363 . S
N161 C163 1.371 . S
N161 C164 1.372 . S
N162 C164 1.361 . S
N162 C165 1.377 . S
C163 N160 1.382 . S
C163 N161 1.371 . S
C163 C166 1.480 . S
C164 N161 1.372 . S
C164 N162 1.361 . S
C164 C172 1.482 . S
C165 N160 1.363 . S
C165 N162 1.377 . S
C165 C178 1.479 . S
C166 C163 1.480 . S
C166 C167 1.383 1_455 S
C166 C171 1.385 . S
C167 H148 0.947 . S
C167 C166 1.383 1_655 S
C167 C168 1.388 . S
C168 H149 0.946 . S
C168 C167 1.388 . S
C168 C169 1.384 . S
C169 C168 1.384 . S
C169 C170 1.375 1_665 S
C170 H150 0.954 . S
C170 C169 1.375 1_445 S
C170 C171 1.369 1_545 S
C171 H151 0.945 1_565 S
C171 C166 1.385 . S
C171 C170 1.369 1_565 S
C172 C164 1.482 . S
C172 C173 1.335 1_565 S
C172 C177 1.377 . S
C173 H152 0.952 . S
C173 C172 1.335 1_545 S
C173 C174 1.389 . S
C174 H153 0.949 . S
C174 C173 1.389 . S
C174 C175 1.387 . S
C175 C174 1.387 . S
C175 C176 1.372 . S
C176 H154 0.950 . S
C176 C175 1.372 . S
C176 C177 1.379 1_545 S
C177 H155 0.948 . S
C177 C172 1.377 . S
C177 C176 1.379 1_565 S
C178 C147 1.383 . S
C178 C165 1.479 . S
C178 C179 1.398 . S
C179 C144 1.382 . S
C179 H156 0.951 . S
C179 C178 1.398 . S
C180 C181 1.384 . S
C180 H193 0.947 . S
C180 C215 1.382 . S
C181 C180 1.384 . S
C181 C182 1.378 . S
C182 C181 1.378 . S
C182 C183 1.378 . S
C182 H194 0.952 . S
C183 C182 1.378 . S
C183 H195 0.950 . S
C183 C214 1.383 . S
H184 C203 0.947 . S
H185 C204 0.946 . S
H186 C206 0.953 . S
H187 C207 0.945 . S
H188 C209 0.952 . S
H189 C210 0.949 . S
H190 C212 0.950 . S
H191 C213 0.948 . S
H192 C215 0.951 . S
H193 C180 0.947 . S
H194 C182 0.952 . S
H195 C183 0.950 . S
N196 C199 1.382 . S
N196 C201 1.363 . S
N197 C199 1.371 . S
N197 C200 1.372 . S
N198 C200 1.361 . S
N198 C201 1.377 . S
C199 N196 1.382 . S
C199 N197 1.371 . S
C199 C202 1.480 . S
C200 N197 1.372 . S
C200 N198 1.361 . S
C200 C208 1.457 . S
C201 N196 1.363 . S
C201 N198 1.377 . S
C201 C214 1.479 . S
C202 C199 1.480 . S
C202 C203 1.383 . S
C202 C207 1.385 . S
C203 H184 0.947 . S
C203 C202 1.383 . S
C203 C204 1.388 . S
C204 H185 0.946 . S
C204 C203 1.388 . S
C204 C205 1.384 . S
C205 C204 1.384 . S
C205 C206 1.377 . S
C206 H186 0.953 . S
C206 C205 1.377 . S
C206 C207 1.369 . S
C207 H187 0.945 . S
C207 C202 1.385 . S
C207 C206 1.369 . S
C208 C200 1.457 . S
C208 C209 1.372 . S
C208 C213 1.364 . S
C209 H188 0.952 . S
C209 C208 1.372 . S
C209 C210 1.389 . S
C210 H189 0.949 . S
C210 C209 1.389 . S
C210 C211 1.387 . S
C211 C210 1.387 . S
C211 C212 1.372 . S
C212 H190 0.950 . S
C212 C211 1.372 . S
C212 C213 1.379 . S
C213 H191 0.948 . S
C213 C208 1.364 . S
C213 C212 1.379 . S
C214 C183 1.383 . S
C214 C201 1.479 . S
C214 C215 1.398 . S
C215 C180 1.382 . S
C215 H192 0.951 . S
C215 C214 1.398 . S
C216 C217 1.384 . S
C216 H229 0.947 1_655 S
C216 C251 1.382 . S
C217 C216 1.384 . S
C217 C218 1.378 . S
C218 C217 1.378 . S
C218 C219 1.378 . S
C218 H230 0.952 . S
C219 C218 1.378 . S
C219 H231 0.950 . S
C219 C250 1.383 . S
H220 C239 0.947 . S
H221 C240 0.946 . S
H222 C242 0.953 . S
H223 C243 0.945 . S
H224 C245 0.952 . S
H225 C246 0.947 1_655 S
H226 C248 0.950 . S
H227 C249 0.948 . S
H228 C251 0.951 . S
H229 C216 0.947 1_455 S
H230 C218 0.952 . S
H231 C219 0.950 . S
N232 C235 1.382 . S
N232 C237 1.363 . S
N233 C235 1.371 . S
N233 C236 1.372 . S
N234 C236 1.361 . S
N234 C237 1.377 . S
C235 N232 1.382 . S
C235 N233 1.371 . S
C235 C238 1.480 . S
C236 N233 1.372 . S
C236 N234 1.361 . S
C236 C244 1.457 . S
C237 N232 1.363 . S
C237 N234 1.377 . S
C237 C250 1.479 . S
C238 C235 1.480 . S
C238 C239 1.383 . S
C238 C243 1.385 . S
C239 H220 0.947 . S
C239 C238 1.383 . S
C239 C240 1.388 . S
C240 H221 0.946 . S
C240 C239 1.388 . S
C240 C241 1.384 . S
C241 C240 1.384 . S
C241 C242 1.377 . S
C242 H222 0.953 . S
C242 C241 1.377 . S
C242 C243 1.369 . S
C243 H223 0.945 . S
C243 C238 1.385 . S
C243 C242 1.369 . S
C244 C236 1.457 . S
C244 C245 1.372 . S
C244 C249 1.364 1_655 S
C245 H224 0.952 . S
C245 C244 1.372 . S
C245 C246 1.389 1_655 S
C246 H225 0.947 1_455 S
C246 C245 1.389 1_455 S
C246 C247 1.387 . S
C247 C246 1.387 . S
C247 C248 1.372 . S
C248 H226 0.950 . S
C248 C247 1.372 . S
C248 C249 1.379 . S
C249 H227 0.948 . S
C249 C244 1.364 1_455 S
C249 C248 1.379 . S
C250 C219 1.383 . S
C250 C237 1.479 . S
C250 C251 1.398 . S
C251 C216 1.382 . S
C251 H228 0.951 . S
C251 C250 1.398 . S
C252 C253 1.384 . S
C252 H265 0.947 . S
C252 C287 1.382 . S
C253 C252 1.384 . S
C253 C254 1.378 . S
C254 C253 1.378 . S
C254 C255 1.378 . S
C254 H266 0.952 . S
C255 C254 1.378 . S
C255 H267 0.950 . S
C255 C286 1.383 . S
H256 C275 0.947 . S
H257 C276 0.946 . S
H258 C278 0.953 . S
H259 C279 0.945 . S
H260 C281 0.952 . S
H261 C282 0.949 . S
H262 C284 0.950 . S
H263 C285 0.948 . S
H264 C287 0.951 . S
H265 C252 0.947 . S
H266 C254 0.952 . S
H267 C255 0.950 . S
N268 C271 1.382 . S
N268 C273 1.363 . S
N269 C271 1.371 . S
N269 C272 1.372 . S
N270 C272 1.361 . S
N270 C273 1.377 . S
C271 N268 1.382 . S
C271 N269 1.371 . S
C271 C274 1.480 . S
C272 N269 1.372 . S
C272 N270 1.361 . S
C272 C280 1.457 . S
C273 N268 1.363 . S
C273 N270 1.377 . S
C273 C286 1.479 . S
C274 C271 1.480 . S
C274 C275 1.383 . S
C274 C279 1.385 . S
C275 H256 0.947 . S
C275 C274 1.383 . S
C275 C276 1.388 . S
C276 H257 0.946 . S
C276 C275 1.388 . S
C276 C277 1.384 . S
C277 C276 1.384 . S
C277 C278 1.377 . S
C278 H258 0.953 . S
C278 C277 1.377 . S
C278 C279 1.369 . S
C279 H259 0.945 . S
C279 C274 1.385 . S
C279 C278 1.369 . S
C280 C272 1.457 . S
C280 C281 1.372 . S
C280 C285 1.364 . S
C281 H260 0.952 . S
C281 C280 1.372 . S
C281 C282 1.389 . S
C282 H261 0.949 . S
C282 C281 1.389 . S
C282 C283 1.387 . S
C283 C282 1.387 . S
C283 C284 1.372 . S
C284 H262 0.950 . S
C284 C283 1.372 . S
C284 C285 1.379 . S
C285 H263 0.948 . S
C285 C280 1.364 . S
C285 C284 1.379 . S
C286 C255 1.383 . S
C286 C273 1.479 . S
C286 C287 1.398 . S
C287 C252 1.382 . S
C287 H264 0.951 . S
C287 C286 1.398 . S
C288 C289 1.384 . S
C288 H301 0.947 . S
C288 C323 1.382 . S
C289 C288 1.384 . S
C289 C290 1.378 . S
C290 C289 1.378 . S
C290 C291 1.378 . S
C290 H302 0.952 . S
C291 C290 1.378 . S
C291 H303 0.950 . S
C291 C322 1.383 . S
H292 C311 0.947 . S
H293 C312 0.946 . S
H294 C314 0.953 . S
H295 C315 0.945 . S
H296 C317 0.952 . S
H297 C318 0.949 . S
H298 C320 0.950 . S
H299 C321 0.948 . S
H300 C323 0.951 . S
H301 C288 0.947 . S
H302 C290 0.952 . S
H303 C291 0.950 . S
N304 C307 1.382 . S
N304 C309 1.363 . S
N305 C307 1.371 . S
N305 C308 1.372 . S
N306 C308 1.361 . S
N306 C309 1.377 . S
C307 N304 1.382 . S
C307 N305 1.371 . S
C307 C310 1.480 . S
C308 N305 1.372 . S
C308 N306 1.361 . S
C308 C316 1.457 . S
C309 N304 1.363 . S
C309 N306 1.377 . S
C309 C322 1.479 . S
C310 C307 1.480 . S
C310 C311 1.383 . S
C310 C315 1.385 . S
C311 H292 0.947 . S
C311 C310 1.383 . S
C311 C312 1.388 . S
C312 H293 0.946 . S
C312 C311 1.388 . S
C312 C313 1.384 . S
C313 C312 1.384 . S
C313 C314 1.377 . S
C314 H294 0.953 . S
C314 C313 1.377 . S
C314 C315 1.369 . S
C315 H295 0.945 . S
C315 C310 1.385 . S
C315 C314 1.369 . S
C316 C308 1.457 . S
C316 C317 1.372 . S
C316 C321 1.364 . S
C317 H296 0.952 . S
C317 C316 1.372 . S
C317 C318 1.389 . S
C318 H297 0.949 . S
C318 C317 1.389 . S
C318 C319 1.387 . S
C319 C318 1.387 . S
C319 C320 1.372 . S
C320 H298 0.950 . S
C320 C319 1.372 . S
C320 C321 1.379 . S
C321 H299 0.948 . S
C321 C316 1.364 . S
C321 C320 1.379 . S
C322 C291 1.383 . S
C322 C309 1.479 . S
C322 C323 1.398 . S
C323 C288 1.382 . S
C323 H300 0.951 . S
C323 C322 1.398 . S
C324 C325 1.384 . S
C324 H337 0.947 . S
C324 C359 1.382 . S
C325 C324 1.384 . S
C325 C326 1.378 . S
C326 C325 1.378 . S
C326 C327 1.378 . S
C326 H338 0.952 . S
C327 C326 1.378 . S
C327 H339 0.950 . S
C327 C358 1.383 . S
H328 C347 0.947 . S
H329 C348 0.946 . S
H330 C350 0.953 . S
H331 C351 0.945 . S
H332 C353 0.957 . S
H333 C354 0.949 1_545 S
H334 C356 0.950 . S
H335 C357 0.948 . S
H336 C359 0.951 . S
H337 C324 0.947 . S
H338 C326 0.952 . S
H339 C327 0.950 . S
N340 C343 1.382 . S
N340 C345 1.363 . S
N341 C343 1.371 . S
N341 C344 1.372 . S
N342 C344 1.361 . S
N342 C345 1.377 . S
C343 N340 1.382 . S
C343 N341 1.371 . S
C343 C346 1.514 . S
C344 N341 1.372 . S
C344 N342 1.361 . S
C344 C352 1.457 . S
C345 N340 1.363 . S
C345 N342 1.377 . S
C345 C358 1.479 . S
C346 C343 1.514 . S
C346 C347 1.393 . S
C346 C351 1.342 1_565 S
C347 H328 0.947 . S
C347 C346 1.393 . S
C347 C348 1.388 1_565 S
C348 H329 0.946 . S
C348 C347 1.388 1_545 S
C348 C349 1.384 . S
C349 C348 1.384 . S
C349 C350 1.377 . S
C350 H330 0.953 . S
C350 C349 1.377 . S
C350 C351 1.369 . S
C351 H331 0.945 . S
C351 C346 1.342 1_545 S
C351 C350 1.369 . S
C352 C344 1.457 . S
C352 C353 1.372 . S
C352 C357 1.364 . S
C353 H332 0.957 . S
C353 C352 1.372 . S
C353 C354 1.389 . S
C354 H333 0.949 1_565 S
C354 C353 1.389 . S
C354 C355 1.387 . S
C355 C354 1.387 . S
C355 C356 1.372 . S
C356 H334 0.950 . S
C356 C355 1.372 . S
C356 C357 1.379 . S
C357 H335 0.948 . S
C357 C352 1.364 . S
C357 C356 1.379 . S
C358 C327 1.383 . S
C358 C345 1.479 . S
C358 C359 1.398 . S
C359 C324 1.382 . S
C359 H336 0.951 . S
C359 C358 1.398 . S
C360 C361 1.384 . S
C360 H373 0.947 . S
C360 C395 1.382 . S
C361 C360 1.384 . S
C361 C362 1.378 . S
C362 C361 1.378 . S
C362 C363 1.378 . S
C362 H374 0.952 . S
C363 C362 1.378 . S
C363 H375 0.950 . S
C363 C394 1.383 . S
H364 C383 0.947 . S
H365 C384 0.946 . S
H366 C386 0.953 . S
H367 C387 0.945 . S
H368 C389 0.952 . S
H369 C390 0.949 . S
H370 C392 0.950 . S
H371 C393 0.948 . S
H372 C395 0.951 . S
H373 C360 0.947 . S
H374 C362 0.952 . S
H375 C363 0.950 . S
N376 C379 1.382 . S
N376 C381 1.363 . S
N377 C379 1.371 . S
N377 C380 1.372 . S
N378 C380 1.361 . S
N378 C381 1.377 . S
C379 N376 1.382 . S
C379 N377 1.371 . S
C379 C382 1.480 . S
C380 N377 1.372 . S
C380 N378 1.361 . S
C380 C388 1.457 . S
C381 N376 1.363 . S
C381 N378 1.377 . S
C381 C394 1.479 . S
C382 C379 1.480 . S
C382 C383 1.383 . S
C382 C387 1.385 . S
C383 H364 0.947 . S
C383 C382 1.383 . S
C383 C384 1.388 . S
C384 H365 0.946 . S
C384 C383 1.388 . S
C384 C385 1.384 . S
C385 C384 1.384 . S
C385 C386 1.377 . S
C386 H366 0.953 . S
C386 C385 1.377 . S
C386 C387 1.369 . S
C387 H367 0.945 . S
C387 C382 1.385 . S
C387 C386 1.369 . S
C388 C380 1.457 . S
C388 C389 1.372 . S
C388 C393 1.364 . S
C389 H368 0.952 . S
C389 C388 1.372 . S
C389 C390 1.389 . S
C390 H369 0.949 . S
C390 C389 1.389 . S
C390 C391 1.387 . S
C391 C390 1.387 . S
C391 C392 1.372 . S
C392 H370 0.950 . S
C392 C391 1.372 . S
C392 C393 1.379 . S
C393 H371 0.948 . S
C393 C388 1.364 . S
C393 C392 1.379 . S
C394 C363 1.383 . S
C394 C381 1.479 . S
C394 C395 1.398 . S
C395 C360 1.382 . S
C395 H372 0.951 . S
C395 C394 1.398 . S
C396 C397 1.384 . S
C396 H409 0.947 . S
C396 C431 1.382 . S
C397 C396 1.384 . S
C397 C398 1.378 . S
C398 C397 1.378 . S
C398 C399 1.378 . S
C398 H410 0.952 . S
C399 C398 1.378 . S
C399 H411 0.950 . S
C399 C430 1.383 . S
H400 C419 0.947 . S
H401 C420 0.946 . S
H402 C422 0.953 . S
H403 C423 0.945 . S
H404 C425 0.952 . S
H405 C426 0.949 . S
H406 C428 0.950 . S
H407 C429 0.948 . S
H408 C431 0.951 . S
H409 C396 0.947 . S
H410 C398 0.952 . S
H411 C399 0.950 . S
N412 C415 1.382 . S
N412 C417 1.363 . S
N413 C415 1.371 . S
N413 C416 1.372 . S
N414 C416 1.361 . S
N414 C417 1.377 . S
C415 N412 1.382 . S
C415 N413 1.371 . S
C415 C418 1.480 . S
C416 N413 1.372 . S
C416 N414 1.361 . S
C416 C424 1.457 . S
C417 N412 1.363 . S
C417 N414 1.377 . S
C417 C430 1.479 . S
C418 C415 1.480 . S
C418 C419 1.383 . S
C418 C423 1.385 . S
C419 H400 0.947 . S
C419 C418 1.383 . S
C419 C420 1.388 . S
C420 H401 0.946 . S
C420 C419 1.388 . S
C420 C421 1.384 . S
C421 C420 1.384 . S
C421 C422 1.377 . S
C422 H402 0.953 . S
C422 C421 1.377 . S
C422 C423 1.369 . S
C423 H403 0.945 . S
C423 C418 1.385 . S
C423 C422 1.369 . S
C424 C416 1.457 . S
C424 C425 1.372 . S
C424 C429 1.364 . S
C425 H404 0.952 . S
C425 C424 1.372 . S
C425 C426 1.389 . S
C426 H405 0.949 . S
C426 C425 1.389 . S
C426 C427 1.387 . S
C427 C426 1.387 . S
C427 C428 1.372 . S
C428 H406 0.950 . S
C428 C427 1.372 . S
C428 C429 1.379 . S
C429 H407 0.948 . S
C429 C424 1.364 . S
C429 C428 1.379 . S
C430 C399 1.383 . S
C430 C417 1.479 . S
C430 C431 1.398 . S
C431 C396 1.382 . S
C431 H408 0.951 . S
C431 C430 1.398 . S
C432 C433 1.384 . S
C432 H445 0.947 . S
C432 C467 1.382 . S
C433 C432 1.384 . S
C433 C434 1.378 . S
C434 C433 1.378 . S
C434 C435 1.378 . S
C434 H446 0.952 . S
C435 C434 1.378 . S
C435 H447 0.950 . S
C435 C466 1.383 . S
H436 C455 0.947 . S
H437 C456 0.946 . S
H438 C458 0.953 . S
H439 C459 0.945 . S
H440 C461 0.952 . S
H441 C462 0.949 . S
H442 C464 0.950 . S
H443 C465 0.948 . S
H444 C467 0.951 . S
H445 C432 0.947 . S
H446 C434 0.952 . S
H447 C435 0.950 . S
N448 C451 1.382 . S
N448 C453 1.363 . S
N449 C451 1.371 . S
N449 C452 1.372 . S
N450 C452 1.361 . S
N450 C453 1.377 . S
C451 N448 1.382 . S
C451 N449 1.371 . S
C451 C454 1.480 . S
C452 N449 1.372 . S
C452 N450 1.361 . S
C452 C460 1.457 . S
C453 N448 1.363 . S
C453 N450 1.377 . S
C453 C466 1.479 . S
C454 C451 1.480 . S
C454 C455 1.383 . S
C454 C459 1.385 . S
C455 H436 0.947 . S
C455 C454 1.383 . S
C455 C456 1.388 . S
C456 H437 0.946 . S
C456 C455 1.388 . S
C456 C457 1.384 . S
C457 C456 1.384 . S
C457 C458 1.377 . S
C458 H438 0.953 . S
C458 C457 1.377 . S
C458 C459 1.369 . S
C459 H439 0.945 . S
C459 C454 1.385 . S
C459 C458 1.369 . S
C460 C452 1.457 . S
C460 C461 1.372 . S
C460 C465 1.364 . S
C461 H440 0.952 . S
C461 C460 1.372 . S
C461 C462 1.389 . S
C462 H441 0.949 . S
C462 C461 1.389 . S
C462 C463 1.387 . S
C463 C462 1.387 . S
C463 C464 1.372 . S
C464 H442 0.950 . S
C464 C463 1.372 . S
C464 C465 1.379 . S
C465 H443 0.948 . S
C465 C460 1.364 . S
C465 C464 1.379 . S
C466 C435 1.383 . S
C466 C453 1.479 . S
C466 C467 1.398 . S
C467 C432 1.382 . S
C467 H444 0.951 . S
C467 C466 1.398 . S
C468 C469 1.384 . S
C468 H481 0.947 . S
C468 C503 1.382 . S
C469 C468 1.384 . S
C469 C470 1.378 1_554 S
C470 C469 1.378 1_556 S
C470 C471 1.378 . S
C470 H482 0.952 . S
C471 C470 1.378 . S
C471 H483 0.950 . S
C471 C502 1.383 . S
H472 C491 0.947 . S
H473 C492 0.946 . S
H474 C494 0.953 . S
H475 C495 0.945 . S
H476 C497 0.952 . S
H477 C498 0.949 . S
H478 C500 0.950 . S
H479 C501 0.948 . S
H480 C503 0.951 . S
H481 C468 0.947 . S
H482 C470 0.952 . S
H483 C471 0.950 . S
N484 C487 1.382 . S
N484 C489 1.363 . S
N485 C487 1.371 . S
N485 C488 1.372 . S
N486 C488 1.361 . S
N486 C489 1.377 . S
C487 N484 1.382 . S
C487 N485 1.371 . S
C487 C490 1.480 . S
C488 N485 1.372 . S
C488 N486 1.361 . S
C488 C496 1.457 . S
C489 N484 1.363 . S
C489 N486 1.377 . S
C489 C502 1.479 . S
C490 C487 1.480 . S
C490 C491 1.383 . S
C490 C495 1.385 . S
C491 H472 0.947 . S
C491 C490 1.383 . S
C491 C492 1.388 . S
C492 H473 0.946 . S
C492 C491 1.388 . S
C492 C493 1.384 . S
C493 C492 1.384 . S
C493 C494 1.377 . S
C494 H474 0.953 . S
C494 C493 1.377 . S
C494 C495 1.369 . S
C495 H475 0.945 . S
C495 C490 1.385 . S
C495 C494 1.369 . S
C496 C488 1.457 . S
C496 C497 1.372 . S
C496 C501 1.364 . S
C497 H476 0.952 . S
C497 C496 1.372 . S
C497 C498 1.389 . S
C498 H477 0.949 . S
C498 C497 1.389 . S
C498 C499 1.387 . S
C499 C498 1.387 . S
C499 C500 1.372 . S
C500 H478 0.950 . S
C500 C499 1.372 . S
C500 C501 1.379 . S
C501 H479 0.948 . S
C501 C496 1.364 . S
C501 C500 1.379 . S
C502 C471 1.383 . S
C502 C489 1.479 . S
C502 C503 1.398 1_556 S
C503 C468 1.382 . S
C503 H480 0.951 . S
C503 C502 1.398 1_554 S
C504 C505 1.384 . S
C504 H517 0.947 . S
C504 C539 1.382 . S
C505 C504 1.384 . S
C505 C506 1.378 . S
C506 C505 1.378 . S
C506 C507 1.378 . S
C506 H518 0.952 . S
C507 C506 1.378 . S
C507 H519 0.950 . S
C507 C538 1.383 . S
H508 C527 0.947 . S
H509 C528 0.946 . S
H510 C530 0.953 . S
H511 C531 0.945 . S
H512 C533 0.952 . S
H513 C534 0.949 . S
H514 C536 0.950 . S
H515 C537 0.948 . S
H516 C539 0.951 . S
H517 C504 0.947 . S
H518 C506 0.952 . S
H519 C507 0.950 . S
N520 C523 1.382 . S
N520 C525 1.363 . S
N521 C523 1.371 . S
N521 C524 1.372 . S
N522 C524 1.361 . S
N522 C525 1.377 . S
C523 N520 1.382 . S
C523 N521 1.371 . S
C523 C526 1.480 . S
C524 N521 1.372 . S
C524 N522 1.361 . S
C524 C532 1.457 . S
C525 N520 1.363 . S
C525 N522 1.377 . S
C525 C538 1.479 . S
C526 C523 1.480 . S
C526 C527 1.383 . S
C526 C531 1.385 . S
C527 H508 0.947 . S
C527 C526 1.383 . S
C527 C528 1.388 . S
C528 H509 0.946 . S
C528 C527 1.388 . S
C528 C529 1.384 . S
C529 C528 1.384 . S
C529 C530 1.377 . S
C530 H510 0.953 . S
C530 C529 1.377 . S
C530 C531 1.369 . S
C531 H511 0.945 . S
C531 C526 1.385 . S
C531 C530 1.369 . S
C532 C524 1.457 . S
C532 C533 1.372 . S
C532 C537 1.364 . S
C533 H512 0.952 . S
C533 C532 1.372 . S
C533 C534 1.389 . S
C534 H513 0.949 . S
C534 C533 1.389 . S
C534 C535 1.387 . S
C535 C534 1.387 . S
C535 C536 1.372 . S
C536 H514 0.950 . S
C536 C535 1.372 . S
C536 C537 1.379 . S
C537 H515 0.948 . S
C537 C532 1.364 . S
C537 C536 1.379 . S
C538 C507 1.383 . S
C538 C525 1.479 . S
C538 C539 1.398 . S
C539 C504 1.382 . S
C539 H516 0.951 . S
C539 C538 1.398 . S
C540 C541 1.384 . S
C540 H553 0.947 . S
C540 C575 1.382 1_554 S
C541 C540 1.384 . S
C541 C542 1.378 . S
C542 C541 1.378 . S
C542 C543 1.378 . S
C542 H554 0.952 . S
C543 C542 1.378 . S
C543 H555 0.950 . S
C543 C574 1.383 1_554 S
H544 C563 0.947 1_554 S
H545 C564 0.946 1_554 S
H546 C566 0.953 . S
H547 C567 0.945 . S
H548 C569 0.952 . S
H549 C570 0.985 . S
H550 C572 0.950 . S
H551 C573 0.948 . S
H552 C575 0.951 . S
H553 C540 0.947 . S
H554 C542 0.952 . S
H555 C543 0.950 . S
N556 C559 1.382 . S
N556 C561 1.363 . S
N557 C559 1.371 . S
N557 C560 1.372 . S
N558 C560 1.361 . S
N558 C561 1.377 . S
C559 N556 1.382 . S
C559 N557 1.371 . S
C559 C562 1.480 . S
C560 N557 1.372 . S
C560 N558 1.361 . S
C560 C568 1.457 . S
C561 N556 1.363 . S
C561 N558 1.377 . S
C561 C574 1.479 . S
C562 C559 1.480 . S
C562 C563 1.383 . S
C562 C567 1.385 1_545 S
C563 H544 0.947 1_556 S
C563 C562 1.383 . S
C563 C564 1.388 . S
C564 H545 0.946 1_556 S
C564 C563 1.388 . S
C564 C565 1.384 1_545 S
C565 C564 1.384 1_565 S
C565 C566 1.377 . S
C566 H546 0.953 . S
C566 C565 1.377 . S
C566 C567 1.369 . S
C567 H547 0.945 . S
C567 C562 1.385 1_565 S
C567 C566 1.369 . S
C568 C560 1.457 . S
C568 C569 1.372 . S
C568 C573 1.364 . S
C569 H548 0.952 . S
C569 C568 1.372 . S
C569 C570 1.389 . S
C570 H549 0.985 . S
C570 C569 1.389 . S
C570 C571 1.387 . S
C571 C570 1.387 . S
C571 C572 1.372 . S
C572 H550 0.950 . S
C572 C571 1.372 . S
C572 C573 1.379 . S
C573 H551 0.948 . S
C573 C568 1.364 . S
C573 C572 1.379 . S
C574 C543 1.383 1_556 S
C574 C561 1.479 . S
C574 C575 1.398 . S
C575 C540 1.382 1_556 S
C575 H552 0.951 . S
C575 C574 1.398 . S
C576 O577 1.160 1_554 S
C576 O583 1.185 . S
O577 C576 1.160 1_556 S
O578 Zn579 1.899 1_556 S
O578 C586 1.284 . S
Zn579 O578 1.899 1_554 S
Zn579 O580 2.032 . S
Zn579 O583 2.086 . S
Zn579 O588 1.977 . S
O580 Zn579 2.032 . S
O580 C584 1.278 . S
C581 O582 1.203 . S
C581 O588 1.267 . S
O582 C581 1.203 . S
O583 C576 1.185 . S
O583 Zn579 2.086 . S
C584 O580 1.278 . S
C584 O585 1.211 . S
O585 C584 1.211 . S
C586 O578 1.284 . S
C586 O587 1.273 . S
O587 C586 1.273 . S
O588 Zn579 1.977 . S
O588 C581 1.267 . S
C589 O590 1.160 . S
C589 O596 1.185 . S
O590 C589 1.160 . S
O591 Zn592 1.899 . S
O591 C599 1.284 . S
Zn592 O591 1.899 . S
Zn592 O593 2.032 . S
Zn592 O596 2.086 . S
Zn592 O601 1.977 . S
O593 Zn592 2.032 . S
O593 C597 1.278 . S
C594 O595 1.203 . S
C594 O601 1.267 . S
O595 C594 1.203 . S
O596 C589 1.185 . S
O596 Zn592 2.086 . S
C597 O593 1.278 . S
C597 O598 1.211 . S
O598 C597 1.211 . S
C599 O591 1.284 . S
C599 O600 1.273 . S
O600 C599 1.273 . S
O601 Zn592 1.977 . S
O601 C594 1.267 . S
C602 O603 1.160 1_554 S
C602 O609 1.185 . S
O603 C602 1.160 1_556 S
O604 Zn605 1.899 1_556 S
O604 C612 1.284 . S
Zn605 O604 1.899 1_554 S
Zn605 O606 2.032 1_554 S
Zn605 O609 2.086 . S
Zn605 O614 1.977 . S
O606 Zn605 2.032 1_556 S
O606 C610 1.278 . S
C607 O608 1.203 . S
C607 O614 1.267 . S
O608 C607 1.203 . S
O609 C602 1.185 . S
O609 Zn605 2.086 . S
C610 O606 1.278 . S
C610 O611 1.211 1_556 S
O611 C610 1.211 1_554 S
C612 O604 1.284 . S
C612 O613 1.273 . S
O613 C612 1.273 . S
O614 Zn605 1.977 . S
O614 C607 1.267 . S
C615 O616 1.160 . S
C615 O622 1.185 . S
O616 C615 1.160 . S
O617 Zn618 1.899 . S
O617 C625 1.284 . S
Zn618 O617 1.899 . S
Zn618 O619 2.032 1_545 S
Zn618 O622 2.086 . S
Zn618 O627 1.977 . S
O619 Zn618 2.032 1_565 S
O619 C623 1.278 . S
C620 O621 1.203 . S
C620 O627 1.267 . S
O621 C620 1.203 . S
O622 C615 1.185 . S
O622 Zn618 2.086 . S
C623 O619 1.278 . S
C623 O624 1.211 . S
O624 C623 1.211 . S
C625 O617 1.284 . S
C625 O626 1.273 1_545 S
O626 C625 1.273 1_565 S
O627 Zn618 1.977 . S
O627 C620 1.267 . S
C628 O629 1.160 . S
C628 O635 1.185 . S
O629 C628 1.160 . S
O630 Zn631 1.899 . S
O630 C638 1.284 . S
Zn631 O630 1.899 . S
Zn631 O632 2.032 . S
Zn631 O635 2.086 . S
Zn631 O640 1.977 . S
O632 Zn631 2.032 . S
O632 C636 1.278 . S
C633 O634 1.203 . S
C633 O640 1.267 . S
O634 C633 1.203 . S
O635 C628 1.185 . S
O635 Zn631 2.086 . S
C636 O632 1.278 . S
C636 O637 1.211 . S
O637 C636 1.211 . S
C638 O630 1.284 . S
C638 O639 1.273 . S
O639 C638 1.273 . S
O640 Zn631 1.977 . S
O640 C633 1.267 . S
C641 O642 1.160 . S
C641 O648 1.185 . S
O642 C641 1.160 . S
O643 Zn644 1.899 . S
O643 C651 1.284 . S
Zn644 O643 1.899 . S
Zn644 O645 2.032 . S
Zn644 O648 2.086 . S
Zn644 O653 1.977 . S
O645 Zn644 2.032 . S
O645 C649 1.278 . S
C646 O647 1.203 . S
C646 O653 1.267 . S
O647 C646 1.203 . S
O648 C641 1.185 . S
O648 Zn644 2.086 . S
C649 O645 1.278 . S
C649 O650 1.211 . S
O650 C649 1.211 . S
C651 O643 1.284 . S
C651 O652 1.273 . S
O652 C651 1.273 . S
O653 Zn644 1.977 . S
O653 C646 1.267 . S
C654 O655 1.160 . S
C654 O661 1.185 . S
O655 C654 1.160 . S
O656 Zn657 1.899 . S
O656 C664 1.284 . S
Zn657 O656 1.899 . S
Zn657 O658 2.032 . S
Zn657 O661 2.086 . S
Zn657 O666 1.977 . S
O658 Zn657 2.032 . S
O658 C662 1.278 . S
C659 O660 1.203 . S
C659 O666 1.267 . S
O660 C659 1.203 . S
O661 C654 1.185 . S
O661 Zn657 2.086 . S
C662 O658 1.278 . S
C662 O663 1.211 . S
O663 C662 1.211 . S
C664 O656 1.284 . S
C664 O665 1.273 . S
O665 C664 1.273 . S
O666 Zn657 1.977 . S
O666 C659 1.267 . S
C667 O668 1.160 . S
C667 O674 1.185 . S
O668 C667 1.160 . S
O669 Zn670 1.899 . S
O669 C677 1.284 1_565 S
Zn670 O669 1.899 . S
Zn670 O671 2.032 1_565 S
Zn670 O674 2.086 . S
Zn670 O679 1.977 . S
O671 Zn670 2.032 1_545 S
O671 C675 1.278 . S
C672 O673 1.203 1_565 S
C672 O679 1.267 . S
O673 C672 1.203 1_545 S
O674 C667 1.185 . S
O674 Zn670 2.086 . S
C675 O671 1.278 . S
C675 O676 1.211 . S
O676 C675 1.211 . S
C677 O669 1.284 1_545 S
C677 O678 1.273 . S
O678 C677 1.273 . S
O679 Zn670 1.977 . S
O679 C672 1.267 . S
C680 O681 1.160 1_455 S
C680 O687 1.185 . S
O681 C680 1.160 1_655 S
O682 Zn683 1.899 1_655 S
O682 C690 1.284 . S
Zn683 O682 1.899 1_455 S
Zn683 O684 2.032 1_455 S
Zn683 O687 2.086 . S
Zn683 O692 1.977 . S
O684 Zn683 2.032 1_655 S
O684 C688 1.277 1_655 S
C685 O686 1.203 . S
C685 O692 1.267 . S
O686 C685 1.203 . S
O687 C680 1.185 . S
O687 Zn683 2.086 . S
C688 O684 1.277 1_455 S
C688 O689 1.213 . S
O689 C688 1.213 . S
C690 O682 1.284 . S
C690 O691 1.273 . S
O691 C690 1.273 . S
O692 Zn683 1.977 . S
O692 C685 1.267 . S
C693 O694 1.160 . S
C693 O700 1.185 . S
O694 C693 1.160 . S
O695 Zn696 1.899 . S
O695 C703 1.284 . S
Zn696 O695 1.899 . S
Zn696 O697 2.032 . S
Zn696 O700 2.086 . S
Zn696 O705 1.977 . S
O697 Zn696 2.032 . S
O697 C701 1.278 . S
C698 O699 1.203 . S
C698 O705 1.267 . S
O699 C698 1.203 . S
O700 C693 1.185 . S
O700 Zn696 2.086 . S
C701 O697 1.278 . S
C701 O702 1.211 . S
O702 C701 1.211 . S
C703 O695 1.284 . S
C703 O704 1.273 . S
O704 C703 1.273 . S
O705 Zn696 1.977 . S
O705 C698 1.267 . S
C706 O707 1.160 1_455 S
C706 O713 1.185 . S
O707 C706 1.160 1_655 S
O708 Zn709 1.899 1_655 S
O708 C716 1.284 . S
Zn709 O708 1.899 1_455 S
Zn709 O710 2.032 1_455 S
Zn709 O713 2.086 . S
Zn709 O718 1.977 . S
O710 Zn709 2.032 1_655 S
O710 C714 1.277 1_655 S
C711 O712 1.203 . S
C711 O718 1.267 . S
O712 C711 1.203 . S
O713 C706 1.185 . S
O713 Zn709 2.086 . S
C714 O710 1.277 1_455 S
C714 O715 1.212 . S
O715 C714 1.212 . S
C716 O708 1.284 . S
C716 O717 1.273 . S
O717 C716 1.273 . S
O718 Zn709 1.977 . S
O718 C711 1.267 . S
C719 O720 1.160 . S
C719 O726 1.185 . S
O720 C719 1.160 . S
O721 Zn722 1.899 . S
O721 C729 1.284 . S
Zn722 O721 1.899 . S
Zn722 O723 2.032 . S
Zn722 O726 2.086 . S
Zn722 O731 1.977 . S
O723 Zn722 2.032 . S
O723 C727 1.278 . S
C724 O725 1.203 . S
C724 O731 1.267 . S
O725 C724 1.203 . S
O726 C719 1.185 . S
O726 Zn722 2.086 . S
C727 O723 1.278 . S
C727 O728 1.211 . S
O728 C727 1.211 . S
C729 O721 1.284 . S
C729 O730 1.273 . S
O730 C729 1.273 . S
O731 Zn722 1.977 . S
O731 C724 1.267 . S
H732 C738 0.930 . S
H733 C741 0.930 . S
H734 C742 0.930 . S
H735 C743 0.930 . S
H736 C746 0.930 . S
H737 C747 0.930 . S
C738 H732 0.930 . S
C738 C739 1.355 . S
C738 C740 1.415 . S
C739 C738 1.355 . S
C739 C741 1.419 . S
C740 C738 1.415 . S
C740 C745 1.425 . S
C740 C747 1.409 . S
C741 H733 0.930 . S
C741 C739 1.419 . S
C741 C742 1.362 . S
C742 H734 0.930 . S
C742 C741 1.362 . S
C742 C745 1.409 . S
C743 H735 0.930 . S
C743 C744 1.355 . S
C743 C745 1.415 . S
C744 C743 1.355 . S
C744 C746 1.419 . S
C745 C740 1.425 . S
C745 C742 1.409 . S
C745 C743 1.415 . S
C746 H736 0.930 . S
C746 C744 1.419 . S
C746 C747 1.362 . S
C747 H737 0.930 . S
C747 C740 1.409 . S
C747 C746 1.362 . S
H748 C754 0.930 . S
H749 C757 0.930 . S
H750 C758 0.930 . S
H751 C759 0.930 . S
H752 C762 0.930 . S
H753 C763 0.930 . S
C754 H748 0.930 . S
C754 C755 1.355 . S
C754 C756 1.415 . S
C755 C754 1.355 . S
C755 C757 1.419 . S
C756 C754 1.415 . S
C756 C761 1.425 . S
C756 C763 1.409 . S
C757 H749 0.930 . S
C757 C755 1.419 . S
C757 C758 1.362 . S
C758 H750 0.930 . S
C758 C757 1.362 . S
C758 C761 1.409 . S
C759 H751 0.930 . S
C759 C760 1.355 . S
C759 C761 1.415 . S
C760 C759 1.355 . S
C760 C762 1.419 . S
C761 C756 1.425 . S
C761 C758 1.409 . S
C761 C759 1.415 . S
C762 H752 0.930 . S
C762 C760 1.419 . S
C762 C763 1.362 . S
C763 H753 0.930 . S
C763 C756 1.409 . S
C763 C762 1.362 . S
H764 C770 0.930 . S
H765 C773 0.930 . S
H766 C774 0.930 . S
H767 C775 0.930 . S
H768 C778 0.930 . S
H769 C779 0.930 . S
C770 H764 0.930 . S
C770 C771 1.355 . S
C770 C772 1.415 . S
C771 C770 1.355 . S
C771 C773 1.419 . S
C772 C770 1.415 . S
C772 C777 1.425 . S
C772 C779 1.409 . S
C773 H765 0.930 . S
C773 C771 1.419 . S
C773 C774 1.362 . S
C774 H766 0.930 . S
C774 C773 1.362 . S
C774 C777 1.409 . S
C775 H767 0.930 . S
C775 C776 1.355 . S
C775 C777 1.415 . S
C776 C775 1.355 . S
C776 C778 1.419 . S
C777 C772 1.425 . S
C777 C774 1.409 . S
C777 C775 1.415 . S
C778 H768 0.930 . S
C778 C776 1.419 . S
C778 C779 1.362 . S
C779 H769 0.930 . S
C779 C772 1.409 . S
C779 C778 1.362 . S
H780 C786 0.930 . S
H781 C789 0.930 . S
H782 C790 0.930 . S
H783 C791 0.930 . S
H784 C794 0.930 . S
H785 C795 0.930 . S
C786 H780 0.930 . S
C786 C787 1.355 1_545 S
C786 C788 1.415 . S
C787 C786 1.355 1_565 S
C787 C789 1.419 . S
C788 C786 1.415 . S
C788 C793 1.425 1_545 S
C788 C795 1.409 . S
C789 H781 0.930 . S
C789 C787 1.419 . S
C789 C790 1.362 . S
C790 H782 0.930 . S
C790 C789 1.362 . S
C790 C793 1.409 . S
C791 H783 0.930 . S
C791 C792 1.355 1_565 S
C791 C793 1.415 . S
C792 C791 1.355 1_545 S
C792 C794 1.419 . S
C793 C788 1.425 1_565 S
C793 C790 1.409 . S
C793 C791 1.415 . S
C794 H784 0.930 . S
C794 C792 1.419 . S
C794 C795 1.362 . S
C795 H785 0.930 . S
C795 C788 1.409 . S
C795 C794 1.362 . S
H796 C802 0.930 . S
H797 C805 0.930 . S
H798 C806 0.930 . S
H799 C807 0.930 . S
H800 C810 0.930 . S
H801 C811 0.930 . S
C802 H796 0.930 . S
C802 C803 1.355 . S
C802 C804 1.415 . S
C803 C802 1.355 . S
C803 C805 1.419 . S
C804 C802 1.415 . S
C804 C809 1.425 . S
C804 C811 1.409 . S
C805 H797 0.930 . S
C805 C803 1.419 . S
C805 C806 1.362 . S
C806 H798 0.930 . S
C806 C805 1.362 . S
C806 C809 1.409 . S
C807 H799 0.930 . S
C807 C808 1.355 . S
C807 C809 1.415 . S
C808 C807 1.355 . S
C808 C810 1.419 . S
C809 C804 1.425 . S
C809 C806 1.409 . S
C809 C807 1.415 . S
C810 H800 0.930 . S
C810 C808 1.419 . S
C810 C811 1.362 . S
C811 H801 0.930 . S
C811 C804 1.409 . S
C811 C810 1.362 . S
H812 C818 0.930 . S
H813 C821 0.930 . S
H814 C822 0.930 . S
H815 C823 0.930 . S
H816 C826 0.930 . S
H817 C827 0.930 . S
C818 H812 0.930 . S
C818 C819 1.355 . S
C818 C820 1.415 . S
C819 C818 1.355 . S
C819 C821 1.419 . S
C820 C818 1.415 . S
C820 C825 1.425 . S
C820 C827 1.409 . S
C821 H813 0.930 . S
C821 C819 1.419 . S
C821 C822 1.362 . S
C822 H814 0.930 . S
C822 C821 1.362 . S
C822 C825 1.409 . S
C823 H815 0.930 . S
C823 C824 1.355 . S
C823 C825 1.415 . S
C824 C823 1.355 . S
C824 C826 1.419 . S
C825 C820 1.425 . S
C825 C822 1.409 . S
C825 C823 1.415 . S
C826 H816 0.930 . S
C826 C824 1.419 . S
C826 C827 1.362 . S
C827 H817 0.930 . S
C827 C820 1.409 . S
C827 C826 1.362 . S
H828 C834 0.930 . S
H829 C837 0.930 . S
H830 C838 0.930 . S
H831 C839 0.930 . S
H832 C842 0.930 . S
H833 C843 0.930 . S
C834 H828 0.930 . S
C834 C835 1.355 . S
C834 C836 1.415 . S
C835 C834 1.355 . S
C835 C837 1.419 . S
C836 C834 1.415 . S
C836 C841 1.425 . S
C836 C843 1.409 . S
C837 H829 0.930 . S
C837 C835 1.419 . S
C837 C838 1.362 . S
C838 H830 0.930 . S
C838 C837 1.362 . S
C838 C841 1.409 . S
C839 H831 0.930 . S
C839 C840 1.355 . S
C839 C841 1.415 . S
C840 C839 1.355 . S
C840 C842 1.419 . S
C841 C836 1.425 . S
C841 C838 1.409 . S
C841 C839 1.415 . S
C842 H832 0.930 . S
C842 C840 1.419 . S
C842 C843 1.362 . S
C843 H833 0.930 . S
C843 C836 1.409 . S
C843 C842 1.362 . S
H844 C850 0.930 . S
H845 C853 0.930 . S
H846 C854 0.930 . S
H847 C855 0.930 . S
H848 C858 0.930 . S
H849 C859 0.930 . S
C850 H844 0.930 . S
C850 C851 1.355 . S
C850 C852 1.415 . S
C851 C850 1.355 . S
C851 C853 1.419 . S
C852 C850 1.415 . S
C852 C857 1.425 . S
C852 C859 1.409 . S
C853 H845 0.930 . S
C853 C851 1.419 . S
C853 C854 1.362 . S
C854 H846 0.930 . S
C854 C853 1.362 . S
C854 C857 1.409 . S
C855 H847 0.930 . S
C855 C856 1.355 . S
C855 C857 1.415 . S
C856 C855 1.355 . S
C856 C858 1.419 . S
C857 C852 1.425 . S
C857 C854 1.409 . S
C857 C855 1.415 . S
C858 H848 0.930 . S
C858 C856 1.419 . S
C858 C859 1.362 . S
C859 H849 0.930 . S
C859 C852 1.409 . S
C859 C858 1.362 . S
H860 C866 0.930 . S
H861 C869 0.930 . S
H862 C870 0.930 . S
H863 C871 0.930 . S
H864 C874 0.930 . S
H865 C875 0.930 . S
C866 H860 0.930 . S
C866 C867 1.355 . S
C866 C868 1.415 . S
C867 C866 1.355 . S
C867 C869 1.419 . S
C868 C866 1.415 . S
C868 C873 1.425 . S
C868 C875 1.409 . S
C869 H861 0.930 . S
C869 C867 1.419 . S
C869 C870 1.362 . S
C870 H862 0.930 . S
C870 C869 1.362 . S
C870 C873 1.409 . S
C871 H863 0.930 . S
C871 C872 1.355 . S
C871 C873 1.415 . S
C872 C871 1.355 . S
C872 C874 1.419 . S
C873 C868 1.425 . S
C873 C870 1.409 . S
C873 C871 1.415 . S
C874 H864 0.930 . S
C874 C872 1.419 . S
C874 C875 1.362 . S
C875 H865 0.930 . S
C875 C868 1.409 . S
C875 C874 1.362 . S
H876 C882 0.930 . S
H877 C885 0.930 . S
H878 C886 0.930 . S
H879 C887 0.930 . S
H880 C890 0.930 . S
H881 C891 0.930 . S
C882 H876 0.930 . S
C882 C883 1.355 . S
C882 C884 1.415 . S
C883 C882 1.355 . S
C883 C885 1.419 . S
C884 C882 1.415 . S
C884 C889 1.425 . S
C884 C891 1.409 . S
C885 H877 0.930 . S
C885 C883 1.419 . S
C885 C886 1.362 . S
C886 H878 0.930 . S
C886 C885 1.362 . S
C886 C889 1.409 . S
C887 H879 0.930 . S
C887 C888 1.355 . S
C887 C889 1.415 . S
C888 C887 1.355 . S
C888 C890 1.419 . S
C889 C884 1.425 . S
C889 C886 1.409 . S
C889 C887 1.415 . S
C890 H880 0.930 . S
C890 C888 1.419 . S
C890 C891 1.362 . S
C891 H881 0.930 . S
C891 C884 1.409 . S
C891 C890 1.362 . S
H892 C898 0.930 . S
H893 C901 0.930 . S
H894 C902 0.930 . S
H895 C903 0.930 . S
H896 C906 0.930 . S
H897 C907 0.930 . S
C898 H892 0.930 . S
C898 C899 1.355 . S
C898 C900 1.415 . S
C899 C898 1.355 . S
C899 C901 1.419 . S
C900 C898 1.415 . S
C900 C905 1.425 . S
C900 C907 1.409 . S
C901 H893 0.930 . S
C901 C899 1.419 . S
C901 C902 1.362 . S
C902 H894 0.930 . S
C902 C901 1.362 . S
C902 C905 1.409 . S
C903 H895 0.930 . S
C903 C904 1.355 . S
C903 C905 1.415 . S
C904 C903 1.355 . S
C904 C906 1.419 . S
C905 C900 1.425 . S
C905 C902 1.409 . S
C905 C903 1.415 . S
C906 H896 0.930 . S
C906 C904 1.419 . S
C906 C907 1.362 . S
C907 H897 0.930 . S
C907 C900 1.409 . S
C907 C906 1.362 . S
H908 C914 0.930 . S
H909 C917 0.930 . S
H910 C918 0.930 . S
H911 C919 0.930 . S
H912 C922 0.930 . S
H913 C923 0.930 . S
C914 H908 0.930 . S
C914 C915 1.355 . S
C914 C916 1.415 . S
C915 C914 1.355 . S
C915 C917 1.419 . S
C916 C914 1.415 . S
C916 C921 1.425 . S
C916 C923 1.409 . S
C917 H909 0.930 . S
C917 C915 1.419 . S
C917 C918 1.362 . S
C918 H910 0.930 . S
C918 C917 1.362 . S
C918 C921 1.409 . S
C919 H911 0.930 . S
C919 C920 1.355 . S
C919 C921 1.415 . S
C920 C919 1.355 . S
C920 C922 1.419 . S
C921 C916 1.425 . S
C921 C918 1.409 . S
C921 C919 1.415 . S
C922 H912 0.930 . S
C922 C920 1.419 . S
C922 C923 1.362 . S
C923 H913 0.930 . S
C923 C916 1.409 . S
C923 C922 1.362 . S
H924 C930 0.930 . S
H925 C933 0.930 . S
H926 C934 0.930 . S
H927 C935 0.930 . S
H928 C938 0.930 . S
H929 C939 0.930 . S
C930 H924 0.930 . S
C930 C931 1.355 . S
C930 C932 1.415 . S
C931 C930 1.355 . S
C931 C933 1.419 . S
C932 C930 1.415 . S
C932 C937 1.425 . S
C932 C939 1.409 . S
C933 H925 0.930 . S
C933 C931 1.419 . S
C933 C934 1.362 . S
C934 H926 0.930 . S
C934 C933 1.362 . S
C934 C937 1.409 . S
C935 H927 0.930 . S
C935 C936 1.355 . S
C935 C937 1.415 . S
C936 C935 1.355 . S
C936 C938 1.419 . S
C937 C932 1.425 . S
C937 C934 1.409 . S
C937 C935 1.415 . S
C938 H928 0.930 . S
C938 C936 1.419 . S
C938 C939 1.362 . S
C939 H929 0.930 . S
C939 C932 1.409 . S
C939 C938 1.362 . S
H940 C946 0.930 1_655 S
H941 C949 0.930 . S
H942 C950 0.930 . S
H943 C951 0.930 . S
H944 C954 0.930 . S
H945 C955 0.930 . S
C946 H940 0.930 1_455 S
C946 C947 1.355 . S
C946 C948 1.415 . S
C947 C946 1.355 . S
C947 C949 1.419 . S
C948 C946 1.415 . S
C948 C953 1.425 . S
C948 C955 1.409 1_455 S
C949 H941 0.930 . S
C949 C947 1.419 . S
C949 C950 1.362 . S
C950 H942 0.930 . S
C950 C949 1.362 . S
C950 C953 1.409 . S
C951 H943 0.930 . S
C951 C952 1.355 . S
C951 C953 1.415 . S
C952 C951 1.355 . S
C952 C954 1.419 1_455 S
C953 C948 1.425 . S
C953 C950 1.409 . S
C953 C951 1.415 . S
C954 H944 0.930 . S
C954 C952 1.419 1_655 S
C954 C955 1.362 . S
C955 H945 0.930 . S
C955 C948 1.409 1_655 S
C955 C954 1.362 . S
H956 C962 0.930 . S
H957 C965 0.930 . S
H958 C966 0.930 . S
H959 C967 0.930 . S
H960 C970 0.930 . S
H961 C971 0.930 . S
C962 H956 0.930 . S
C962 C963 1.355 . S
C962 C964 1.415 . S
C963 C962 1.355 . S
C963 C965 1.419 . S
C964 C962 1.415 . S
C964 C969 1.425 . S
C964 C971 1.409 . S
C965 H957 0.930 . S
C965 C963 1.419 . S
C965 C966 1.362 . S
C966 H958 0.930 . S
C966 C965 1.362 . S
C966 C969 1.409 . S
C967 H959 0.930 . S
C967 C968 1.355 . S
C967 C969 1.415 . S
C968 C967 1.355 . S
C968 C970 1.419 . S
C969 C964 1.425 . S
C969 C966 1.409 . S
C969 C967 1.415 . S
C970 H960 0.930 . S
C970 C968 1.419 . S
C970 C971 1.362 . S
C971 H961 0.930 . S
C971 C964 1.409 . S
C971 C970 1.362 . S
H972 C978 0.930 . S
H973 C981 0.930 . S
H974 C982 0.930 . S
H975 C983 0.930 . S
H976 C986 0.930 . S
H977 C987 0.930 . S
C978 H972 0.930 . S
C978 C979 1.355 . S
C978 C980 1.415 . S
C979 C978 1.355 . S
C979 C981 1.419 1_655 S
C980 C978 1.415 . S
C980 C985 1.424 1_655 S
C980 C987 1.409 . S
C981 H973 0.930 . S
C981 C979 1.419 1_455 S
C981 C982 1.362 . S
C982 H974 0.930 . S
C982 C981 1.362 . S
C982 C985 1.410 . S
C983 H975 0.930 . S
C983 C984 1.355 1_455 S
C983 C985 1.415 . S
C984 C983 1.355 1_655 S
C984 C986 1.419 . S
C985 C980 1.424 1_455 S
C985 C982 1.410 . S
C985 C983 1.415 . S
C986 H976 0.930 . S
C986 C984 1.419 . S
C986 C987 1.362 . S
C987 H977 0.930 . S
C987 C980 1.409 . S
C987 C986 1.362 . S
H988 C994 0.930 . S
H989 C997 0.930 . S
H990 C998 0.930 . S
H991 C999 0.930 . S
H992 C1002 0.930 . S
H993 C1003 0.930 . S
C994 H988 0.930 . S
C994 C995 1.355 . S
C994 C996 1.415 . S
C995 C994 1.355 . S
C995 C997 1.419 . S
C996 C994 1.415 . S
C996 C1001 1.425 . S
C996 C1003 1.409 . S
C997 H989 0.930 . S
C997 C995 1.419 . S
C997 C998 1.362 . S
C998 H990 0.930 . S
C998 C997 1.362 . S
C998 C1001 1.409 . S
C999 H991 0.930 . S
C999 C1000 1.355 . S
C999 C1001 1.415 . S
C1000 C999 1.355 . S
C1000 C1002 1.419 . S
C1001 C996 1.425 . S
C1001 C998 1.409 . S
C1001 C999 1.415 . S
C1002 H992 0.930 . S
C1002 C1000 1.419 . S
C1002 C1003 1.362 . S
C1003 H993 0.930 . S
C1003 C996 1.409 . S
C1003 C1002 1.362 . S
H1004 C1010 0.930 . S
H1005 C1013 0.930 . S
H1006 C1014 0.930 . S
H1007 C1015 0.930 . S
H1008 C1018 0.930 . S
H1009 C1019 0.930 . S
C1010 H1004 0.930 . S
C1010 C1011 1.355 . S
C1010 C1012 1.415 . S
C1011 C1010 1.355 . S
C1011 C1013 1.419 . S
C1012 C1010 1.415 . S
C1012 C1017 1.425 . S
C1012 C1019 1.409 . S
C1013 H1005 0.930 . S
C1013 C1011 1.419 . S
C1013 C1014 1.362 . S
C1014 H1006 0.930 . S
C1014 C1013 1.362 . S
C1014 C1017 1.409 . S
C1015 H1007 0.930 . S
C1015 C1016 1.355 . S
C1015 C1017 1.415 . S
C1016 C1015 1.355 . S
C1016 C1018 1.419 . S
C1017 C1012 1.425 . S
C1017 C1014 1.409 . S
C1017 C1015 1.415 . S
C1018 H1008 0.930 . S
C1018 C1016 1.419 . S
C1018 C1019 1.362 . S
C1019 H1009 0.930 . S
C1019 C1012 1.409 . S
C1019 C1018 1.362 . S
H1020 C1026 0.930 1_554 S
H1021 C1029 0.930 . S
H1022 C1030 0.930 . S
H1023 C1031 0.930 . S
H1024 C1034 0.930 . S
H1025 C1035 0.930 . S
C1026 H1020 0.930 1_556 S
C1026 C1027 1.355 . S
C1026 C1028 1.420 . S
C1027 C1026 1.355 . S
C1027 C1029 1.419 . S
C1028 C1026 1.420 . S
C1028 C1033 1.445 . S
C1028 C1035 1.386 1_556 S
C1029 H1021 0.930 . S
C1029 C1027 1.419 . S
C1029 C1030 1.362 . S
C1030 H1022 0.930 . S
C1030 C1029 1.362 . S
C1030 C1033 1.409 . S
C1031 H1023 0.930 . S
C1031 C1032 1.355 1_556 S
C1031 C1033 1.415 . S
C1032 C1031 1.355 1_554 S
C1032 C1034 1.419 . S
C1033 C1028 1.445 . S
C1033 C1030 1.409 . S
C1033 C1031 1.415 . S
C1034 H1024 0.930 . S
C1034 C1032 1.419 . S
C1034 C1035 1.362 . S
C1035 H1025 0.930 . S
C1035 C1028 1.386 1_554 S
C1035 C1034 1.362 . S
H1036 C1042 0.930 . S
H1037 C1045 0.930 . S
H1038 C1046 0.930 . S
H1039 C1047 0.930 . S
H1040 C1050 0.930 . S
H1041 C1051 0.930 . S
C1042 H1036 0.930 . S
C1042 C1043 1.355 . S
C1042 C1044 1.415 . S
C1043 C1042 1.355 . S
C1043 C1045 1.419 . S
C1044 C1042 1.415 . S
C1044 C1049 1.425 . S
C1044 C1051 1.409 . S
C1045 H1037 0.930 . S
C1045 C1043 1.419 . S
C1045 C1046 1.362 . S
C1046 H1038 0.930 . S
C1046 C1045 1.362 . S
C1046 C1049 1.409 . S
C1047 H1039 0.930 . S
C1047 C1048 1.355 . S
C1047 C1049 1.415 . S
C1048 C1047 1.355 . S
C1048 C1050 1.419 . S
C1049 C1044 1.425 . S
C1049 C1046 1.409 . S
C1049 C1047 1.415 . S
C1050 H1040 0.930 . S
C1050 C1048 1.419 . S
C1050 C1051 1.362 . S
C1051 H1041 0.930 . S
C1051 C1044 1.409 . S
C1051 C1050 1.362 . S
H1052 C1058 0.930 . S
H1053 C1061 0.930 . S
H1054 C1062 0.930 . S
H1055 C1063 0.930 . S
H1056 C1066 0.930 . S
H1057 C1067 0.930 . S
C1058 H1052 0.930 . S
C1058 C1059 1.355 . S
C1058 C1060 1.415 . S
C1059 C1058 1.355 . S
C1059 C1061 1.419 . S
C1060 C1058 1.415 . S
C1060 C1065 1.425 . S
C1060 C1067 1.409 . S
C1061 H1053 0.930 . S
C1061 C1059 1.419 . S
C1061 C1062 1.362 . S
C1062 H1054 0.930 . S
C1062 C1061 1.362 . S
C1062 C1065 1.409 . S
C1063 H1055 0.930 . S
C1063 C1064 1.355 . S
C1063 C1065 1.415 . S
C1064 C1063 1.355 . S
C1064 C1066 1.419 . S
C1065 C1060 1.425 . S
C1065 C1062 1.409 . S
C1065 C1063 1.415 . S
C1066 H1056 0.930 . S
C1066 C1064 1.419 . S
C1066 C1067 1.362 . S
C1067 H1057 0.930 . S
C1067 C1060 1.409 . S
C1067 C1066 1.362 . S
H1068 C1074 0.930 . S
H1069 C1077 0.930 . S
H1070 C1078 0.930 . S
H1071 C1079 0.930 . S
H1072 C1082 0.930 . S
H1073 C1083 0.930 . S
C1074 H1068 0.930 . S
C1074 C1075 1.355 . S
C1074 C1076 1.415 . S
C1075 C1074 1.355 . S
C1075 C1077 1.419 . S
C1076 C1074 1.415 . S
C1076 C1081 1.425 . S
C1076 C1083 1.409 . S
C1077 H1069 0.930 . S
C1077 C1075 1.419 . S
C1077 C1078 1.362 . S
C1078 H1070 0.930 . S
C1078 C1077 1.362 . S
C1078 C1081 1.409 . S
C1079 H1071 0.930 . S
C1079 C1080 1.355 . S
C1079 C1081 1.415 . S
C1080 C1079 1.355 . S
C1080 C1082 1.419 . S
C1081 C1076 1.425 . S
C1081 C1078 1.409 . S
C1081 C1079 1.415 . S
C1082 H1072 0.930 . S
C1082 C1080 1.419 . S
C1082 C1083 1.362 . S
C1083 H1073 0.930 . S
C1083 C1076 1.409 . S
C1083 C1082 1.362 . S
H1084 C1090 0.930 . S
H1085 C1093 0.930 . S
H1086 C1094 0.930 . S
H1087 C1095 0.930 . S
H1088 C1098 0.930 . S
H1089 C1099 0.930 . S
C1090 H1084 0.930 . S
C1090 C1091 1.355 . S
C1090 C1092 1.415 . S
C1091 C1090 1.355 . S
C1091 C1093 1.419 . S
C1092 C1090 1.415 . S
C1092 C1097 1.425 . S
C1092 C1099 1.409 . S
C1093 H1085 0.930 . S
C1093 C1091 1.419 . S
C1093 C1094 1.362 . S
C1094 H1086 0.930 . S
C1094 C1093 1.362 . S
C1094 C1097 1.409 . S
C1095 H1087 0.930 . S
C1095 C1096 1.355 . S
C1095 C1097 1.415 . S
C1096 C1095 1.355 . S
C1096 C1098 1.419 . S
C1097 C1092 1.425 . S
C1097 C1094 1.409 . S
C1097 C1095 1.415 . S
C1098 H1088 0.930 . S
C1098 C1096 1.419 . S
C1098 C1099 1.362 . S
C1099 H1089 0.930 . S
C1099 C1092 1.409 . S
C1099 C1098 1.362 . S
H1100 C1106 0.930 . S
H1101 C1109 0.930 . S
H1102 C1110 0.930 . S
H1103 C1111 0.930 . S
H1104 C1114 0.930 . S
H1105 C1115 0.930 . S
C1106 H1100 0.930 . S
C1106 C1107 1.355 . S
C1106 C1108 1.415 . S
C1107 C1106 1.355 . S
C1107 C1109 1.419 . S
C1108 C1106 1.415 . S
C1108 C1113 1.425 . S
C1108 C1115 1.409 . S
C1109 H1101 0.930 . S
C1109 C1107 1.419 . S
C1109 C1110 1.362 . S
C1110 H1102 0.930 . S
C1110 C1109 1.362 . S
C1110 C1113 1.409 . S
C1111 H1103 0.930 . S
C1111 C1112 1.355 . S
C1111 C1113 1.415 . S
C1112 C1111 1.355 . S
C1112 C1114 1.419 . S
C1113 C1108 1.425 . S
C1113 C1110 1.409 . S
C1113 C1111 1.415 . S
C1114 H1104 0.930 . S
C1114 C1112 1.419 . S
C1114 C1115 1.362 . S
C1115 H1105 0.930 . S
C1115 C1108 1.409 . S
C1115 C1114 1.362 . S
H1116 C1122 0.930 . S
H1117 C1125 0.930 . S
H1118 C1126 0.930 . S
H1119 C1127 0.930 . S
H1120 C1130 0.930 . S
H1121 C1131 0.930 . S
C1122 H1116 0.930 . S
C1122 C1123 1.355 . S
C1122 C1124 1.415 . S
C1123 C1122 1.355 . S
C1123 C1125 1.419 . S
C1124 C1122 1.415 . S
C1124 C1129 1.425 . S
C1124 C1131 1.409 . S
C1125 H1117 0.930 . S
C1125 C1123 1.419 . S
C1125 C1126 1.362 . S
C1126 H1118 0.930 . S
C1126 C1125 1.362 . S
C1126 C1129 1.409 . S
C1127 H1119 0.930 . S
C1127 C1128 1.355 . S
C1127 C1129 1.415 . S
C1128 C1127 1.355 . S
C1128 C1130 1.419 . S
C1129 C1124 1.425 . S
C1129 C1126 1.409 . S
C1129 C1127 1.415 . S
C1130 H1120 0.930 . S
C1130 C1128 1.419 . S
C1130 C1131 1.362 . S
C1131 H1121 0.930 . S
C1131 C1124 1.409 . S
C1131 C1130 1.362 . S
H1132 C1138 0.930 . S
H1133 C1141 0.930 . S
H1134 C1142 0.930 . S
H1135 C1143 0.930 . S
H1136 C1146 0.930 . S
H1137 C1147 0.930 . S
C1138 H1132 0.930 . S
C1138 C1139 1.355 . S
C1138 C1140 1.415 . S
C1139 C1138 1.355 . S
C1139 C1141 1.419 . S
C1140 C1138 1.415 . S
C1140 C1145 1.425 . S
C1140 C1147 1.409 . S
C1141 H1133 0.930 . S
C1141 C1139 1.419 . S
C1141 C1142 1.362 . S
C1142 H1134 0.930 . S
C1142 C1141 1.362 . S
C1142 C1145 1.409 . S
C1143 H1135 0.930 . S
C1143 C1144 1.355 . S
C1143 C1145 1.415 . S
C1144 C1143 1.355 . S
C1144 C1146 1.419 . S
C1145 C1140 1.425 . S
C1145 C1142 1.409 . S
C1145 C1143 1.415 . S
C1146 H1136 0.930 . S
C1146 C1144 1.419 . S
C1146 C1147 1.362 . S
C1147 H1137 0.930 . S
C1147 C1140 1.409 . S
C1147 C1146 1.362 . S
H1148 C1154 0.930 . S
H1149 C1157 0.930 . S
H1150 C1158 0.930 . S
H1151 C1159 0.930 . S
H1152 C1162 0.930 . S
H1153 C1163 0.930 . S
C1154 H1148 0.930 . S
C1154 C1155 1.355 . S
C1154 C1156 1.415 . S
C1155 C1154 1.355 . S
C1155 C1157 1.419 . S
C1156 C1154 1.415 . S
C1156 C1161 1.425 . S
C1156 C1163 1.409 . S
C1157 H1149 0.930 . S
C1157 C1155 1.419 . S
C1157 C1158 1.362 . S
C1158 H1150 0.930 . S
C1158 C1157 1.362 . S
C1158 C1161 1.409 . S
C1159 H1151 0.930 . S
C1159 C1160 1.355 . S
C1159 C1161 1.415 . S
C1160 C1159 1.355 . S
C1160 C1162 1.419 . S
C1161 C1156 1.425 . S
C1161 C1158 1.409 . S
C1161 C1159 1.415 . S
C1162 H1152 0.930 . S
C1162 C1160 1.419 . S
C1162 C1163 1.362 . S
C1163 H1153 0.930 . S
C1163 C1156 1.409 . S
C1163 C1162 1.362 . S
H1164 C1170 0.930 . S
H1165 C1173 0.930 . S
H1166 C1174 0.930 . S
H1167 C1175 0.930 . S
H1168 C1178 0.930 . S
H1169 C1179 0.930 . S
C1170 H1164 0.930 . S
C1170 C1171 1.355 . S
C1170 C1172 1.415 . S
C1171 C1170 1.355 . S
C1171 C1173 1.419 . S
C1172 C1170 1.415 . S
C1172 C1177 1.425 . S
C1172 C1179 1.409 . S
C1173 H1165 0.930 . S
C1173 C1171 1.419 . S
C1173 C1174 1.362 . S
C1174 H1166 0.930 . S
C1174 C1173 1.362 . S
C1174 C1177 1.409 . S
C1175 H1167 0.930 . S
C1175 C1176 1.355 . S
C1175 C1177 1.415 . S
C1176 C1175 1.355 . S
C1176 C1178 1.419 . S
C1177 C1172 1.425 . S
C1177 C1174 1.409 . S
C1177 C1175 1.415 . S
C1178 H1168 0.930 . S
C1178 C1176 1.419 . S
C1178 C1179 1.362 . S
C1179 H1169 0.930 . S
C1179 C1172 1.409 . S
C1179 C1178 1.362 . S
H1180 C1186 0.930 . S
H1181 C1189 0.930 . S
H1182 C1190 0.930 . S
H1183 C1191 0.930 . S
H1184 C1194 0.930 . S
H1185 C1195 0.930 . S
C1186 H1180 0.930 . S
C1186 C1187 1.355 . S
C1186 C1188 1.415 . S
C1187 C1186 1.355 . S
C1187 C1189 1.419 . S
C1188 C1186 1.415 . S
C1188 C1193 1.425 . S
C1188 C1195 1.409 . S
C1189 H1181 0.930 . S
C1189 C1187 1.419 . S
C1189 C1190 1.362 . S
C1190 H1182 0.930 . S
C1190 C1189 1.362 . S
C1190 C1193 1.409 . S
C1191 H1183 0.930 . S
C1191 C1192 1.355 . S
C1191 C1193 1.415 . S
C1192 C1191 1.355 . S
C1192 C1194 1.419 . S
C1193 C1188 1.425 . S
C1193 C1190 1.409 . S
C1193 C1191 1.415 . S
C1194 H1184 0.930 . S
C1194 C1192 1.419 . S
C1194 C1195 1.362 . S
C1195 H1185 0.930 . S
C1195 C1188 1.409 . S
C1195 C1194 1.362 . S
H1196 C1202 0.930 . S
H1197 C1205 0.930 . S
H1198 C1206 0.930 . S
H1199 C1207 0.930 . S
H1200 C1210 0.930 . S
H1201 C1211 0.930 . S
C1202 H1196 0.930 . S
C1202 C1203 1.355 . S
C1202 C1204 1.415 . S
C1203 C1202 1.355 . S
C1203 C1205 1.419 . S
C1204 C1202 1.415 . S
C1204 C1209 1.425 . S
C1204 C1211 1.409 . S
C1205 H1197 0.930 . S
C1205 C1203 1.419 . S
C1205 C1206 1.362 . S
C1206 H1198 0.930 . S
C1206 C1205 1.362 . S
C1206 C1209 1.409 . S
C1207 H1199 0.930 . S
C1207 C1208 1.355 . S
C1207 C1209 1.415 . S
C1208 C1207 1.355 . S
C1208 C1210 1.419 . S
C1209 C1204 1.425 . S
C1209 C1206 1.409 . S
C1209 C1207 1.415 . S
C1210 H1200 0.930 . S
C1210 C1208 1.419 . S
C1210 C1211 1.362 . S
C1211 H1201 0.930 . S
C1211 C1204 1.409 . S
C1211 C1210 1.362 . S
H1212 C1218 0.930 . S
H1213 C1221 0.930 . S
H1214 C1222 0.930 . S
H1215 C1223 0.930 . S
H1216 C1226 0.930 . S
H1217 C1227 0.930 . S
C1218 H1212 0.930 . S
C1218 C1219 1.355 . S
C1218 C1220 1.415 . S
C1219 C1218 1.355 . S
C1219 C1221 1.419 . S
C1220 C1218 1.415 . S
C1220 C1225 1.425 . S
C1220 C1227 1.409 . S
C1221 H1213 0.930 . S
C1221 C1219 1.419 . S
C1221 C1222 1.362 . S
C1222 H1214 0.930 . S
C1222 C1221 1.362 . S
C1222 C1225 1.409 . S
C1223 H1215 0.930 . S
C1223 C1224 1.355 . S
C1223 C1225 1.415 . S
C1224 C1223 1.355 . S
C1224 C1226 1.419 . S
C1225 C1220 1.425 . S
C1225 C1222 1.409 . S
C1225 C1223 1.415 . S
C1226 H1216 0.930 . S
C1226 C1224 1.419 . S
C1226 C1227 1.362 . S
C1227 H1217 0.930 . S
C1227 C1220 1.409 . S
C1227 C1226 1.362 . S
H1228 C1234 0.930 . S
H1229 C1237 0.930 . S
H1230 C1238 0.930 . S
H1231 C1239 0.930 . S
H1232 C1242 0.930 . S
H1233 C1243 0.930 . S
C1234 H1228 0.930 . S
C1234 C1235 1.355 . S
C1234 C1236 1.415 . S
C1235 C1234 1.355 . S
C1235 C1237 1.419 . S
C1236 C1234 1.415 . S
C1236 C1241 1.425 . S
C1236 C1243 1.409 . S
C1237 H1229 0.930 . S
C1237 C1235 1.419 . S
C1237 C1238 1.362 . S
C1238 H1230 0.930 . S
C1238 C1237 1.362 . S
C1238 C1241 1.409 . S
C1239 H1231 0.930 . S
C1239 C1240 1.355 . S
C1239 C1241 1.415 . S
C1240 C1239 1.355 . S
C1240 C1242 1.419 . S
C1241 C1236 1.425 . S
C1241 C1238 1.409 . S
C1241 C1239 1.415 . S
C1242 H1232 0.930 . S
C1242 C1240 1.419 . S
C1242 C1243 1.362 . S
C1243 H1233 0.930 . S
C1243 C1236 1.409 . S
C1243 C1242 1.362 . S
H1244 C1250 0.930 . S
H1245 C1253 0.930 . S
H1246 C1254 0.930 . S
H1247 C1255 0.930 . S
H1248 C1258 0.930 . S
H1249 C1259 0.930 . S
C1250 H1244 0.930 . S
C1250 C1251 1.355 . S
C1250 C1252 1.415 . S
C1251 C1250 1.355 . S
C1251 C1253 1.419 . S
C1252 C1250 1.415 . S
C1252 C1257 1.425 . S
C1252 C1259 1.409 . S
C1253 H1245 0.930 . S
C1253 C1251 1.419 . S
C1253 C1254 1.362 . S
C1254 H1246 0.930 . S
C1254 C1253 1.362 . S
C1254 C1257 1.409 . S
C1255 H1247 0.930 . S
C1255 C1256 1.355 . S
C1255 C1257 1.415 . S
C1256 C1255 1.355 . S
C1256 C1258 1.419 . S
C1257 C1252 1.425 . S
C1257 C1254 1.409 . S
C1257 C1255 1.415 . S
C1258 H1248 0.930 . S
C1258 C1256 1.419 . S
C1258 C1259 1.362 . S
C1259 H1249 0.930 . S
C1259 C1252 1.409 . S
C1259 C1258 1.362 . S
H1260 C1266 0.930 . S
H1261 C1269 0.930 1_455 S
H1262 C1270 0.930 . S
H1263 C1271 0.930 . S
H1264 C1274 0.930 . S
H1265 C1275 0.930 . S
C1266 H1260 0.930 . S
C1266 C1267 1.355 . S
C1266 C1268 1.415 . S
C1267 C1266 1.355 . S
C1267 C1269 1.419 . S
C1268 C1266 1.415 . S
C1268 C1273 1.425 . S
C1268 C1275 1.409 . S
C1269 H1261 0.930 1_655 S
C1269 C1267 1.419 . S
C1269 C1270 1.362 1_655 S
C1270 H1262 0.930 . S
C1270 C1269 1.362 1_455 S
C1270 C1273 1.409 1_455 S
C1271 H1263 0.930 . S
C1271 C1272 1.355 1_455 S
C1271 C1273 1.415 1_455 S
C1272 C1271 1.355 1_655 S
C1272 C1274 1.419 . S
C1273 C1268 1.425 . S
C1273 C1270 1.409 1_655 S
C1273 C1271 1.415 1_655 S
C1274 H1264 0.930 . S
C1274 C1272 1.419 . S
C1274 C1275 1.362 . S
C1275 H1265 0.930 . S
C1275 C1268 1.409 . S
C1275 C1274 1.362 . S
H1276 C1282 0.930 . S
H1277 C1285 0.930 . S
H1278 C1286 0.930 . S
H1279 C1287 0.930 . S
H1280 C1290 0.930 . S
H1281 C1291 0.930 . S
C1282 H1276 0.930 . S
C1282 C1283 1.355 . S
C1282 C1284 1.415 . S
C1283 C1282 1.355 . S
C1283 C1285 1.419 . S
C1284 C1282 1.415 . S
C1284 C1289 1.425 . S
C1284 C1291 1.409 . S
C1285 H1277 0.930 . S
C1285 C1283 1.419 . S
C1285 C1286 1.362 . S
C1286 H1278 0.930 . S
C1286 C1285 1.362 . S
C1286 C1289 1.409 . S
C1287 H1279 0.930 . S
C1287 C1288 1.355 . S
C1287 C1289 1.415 . S
C1288 C1287 1.355 . S
C1288 C1290 1.419 . S
C1289 C1284 1.425 . S
C1289 C1286 1.409 . S
C1289 C1287 1.415 . S
C1290 H1280 0.930 . S
C1290 C1288 1.419 . S
C1290 C1291 1.362 . S
C1291 H1281 0.930 . S
C1291 C1284 1.409 . S
C1291 C1290 1.362 . S
H1292 C1298 0.930 . S
H1293 C1301 0.930 1_655 S
H1294 C1302 0.930 . S
H1295 C1303 0.930 1_655 S
H1296 C1306 0.930 . S
H1297 C1307 0.930 . S
C1298 H1292 0.930 . S
C1298 C1299 1.355 . S
C1298 C1300 1.415 . S
C1299 C1298 1.355 . S
C1299 C1301 1.419 . S
C1300 C1298 1.415 . S
C1300 C1305 1.425 . S
C1300 C1307 1.409 . S
C1301 H1293 0.930 1_455 S
C1301 C1299 1.419 . S
C1301 C1302 1.362 1_455 S
C1302 H1294 0.930 . S
C1302 C1301 1.362 1_655 S
C1302 C1305 1.409 1_655 S
C1303 H1295 0.930 1_455 S
C1303 C1304 1.355 . S
C1303 C1305 1.415 . S
C1304 C1303 1.355 . S
C1304 C1306 1.419 . S
C1305 C1300 1.425 . S
C1305 C1302 1.409 1_455 S
C1305 C1303 1.415 . S
C1306 H1296 0.930 . S
C1306 C1304 1.419 . S
C1306 C1307 1.362 . S
C1307 H1297 0.930 . S
C1307 C1300 1.409 . S
C1307 C1306 1.362 . S
H1308 C1314 0.930 . S
H1309 C1317 0.930 . S
H1310 C1318 0.930 . S
H1311 C1319 0.930 . S
H1312 C1322 0.930 . S
H1313 C1323 0.930 . S
C1314 H1308 0.930 . S
C1314 C1315 1.355 . S
C1314 C1316 1.415 . S
C1315 C1314 1.355 . S
C1315 C1317 1.419 . S
C1316 C1314 1.415 . S
C1316 C1321 1.425 . S
C1316 C1323 1.409 . S
C1317 H1309 0.930 . S
C1317 C1315 1.419 . S
C1317 C1318 1.362 . S
C1318 H1310 0.930 . S
C1318 C1317 1.362 . S
C1318 C1321 1.409 . S
C1319 H1311 0.930 . S
C1319 C1320 1.355 . S
C1319 C1321 1.415 . S
C1320 C1319 1.355 . S
C1320 C1322 1.419 . S
C1321 C1316 1.425 . S
C1321 C1318 1.409 . S
C1321 C1319 1.415 . S
C1322 H1312 0.930 . S
C1322 C1320 1.419 . S
C1322 C1323 1.362 . S
C1323 H1313 0.930 . S
C1323 C1316 1.409 . S
C1323 C1322 1.362 . S
H1324 C1330 0.930 . S
H1325 C1333 0.930 . S
H1326 C1334 0.930 . S
H1327 C1335 0.930 . S
H1328 C1338 0.930 . S
H1329 C1339 0.930 . S
C1330 H1324 0.930 . S
C1330 C1331 1.355 . S
C1330 C1332 1.415 . S
C1331 C1330 1.355 . S
C1331 C1333 1.419 . S
C1332 C1330 1.415 . S
C1332 C1337 1.425 . S
C1332 C1339 1.409 . S
C1333 H1325 0.930 . S
C1333 C1331 1.419 . S
C1333 C1334 1.362 . S
C1334 H1326 0.930 . S
C1334 C1333 1.362 . S
C1334 C1337 1.409 . S
C1335 H1327 0.930 . S
C1335 C1336 1.355 . S
C1335 C1337 1.415 . S
C1336 C1335 1.355 . S
C1336 C1338 1.419 . S
C1337 C1332 1.425 . S
C1337 C1334 1.409 . S
C1337 C1335 1.415 . S
C1338 H1328 0.930 . S
C1338 C1336 1.419 . S
C1338 C1339 1.362 . S
C1339 H1329 0.930 . S
C1339 C1332 1.409 . S
C1339 C1338 1.362 . S
H1340 C1346 0.930 . S
H1341 C1349 0.930 . S
H1342 C1350 0.930 . S
H1343 C1351 0.930 . S
H1344 C1354 0.930 . S
H1345 C1355 0.930 . S
C1346 H1340 0.930 . S
C1346 C1347 1.355 . S
C1346 C1348 1.415 . S
C1347 C1346 1.355 . S
C1347 C1349 1.419 . S
C1348 C1346 1.415 . S
C1348 C1353 1.425 . S
C1348 C1355 1.409 . S
C1349 H1341 0.930 . S
C1349 C1347 1.419 . S
C1349 C1350 1.362 . S
C1350 H1342 0.930 . S
C1350 C1349 1.362 . S
C1350 C1353 1.409 . S
C1351 H1343 0.930 . S
C1351 C1352 1.355 . S
C1351 C1353 1.415 . S
C1352 C1351 1.355 . S
C1352 C1354 1.419 . S
C1353 C1348 1.425 . S
C1353 C1350 1.409 . S
C1353 C1351 1.415 . S
C1354 H1344 0.930 . S
C1354 C1352 1.419 . S
C1354 C1355 1.362 . S
C1355 H1345 0.930 . S
C1355 C1348 1.409 . S
C1355 C1354 1.362 . S
H1356 C1362 0.930 . S
H1357 C1365 0.930 . S
H1358 C1366 0.930 . S
H1359 C1367 0.930 . S
H1360 C1370 0.930 . S
H1361 C1371 0.930 . S
C1362 H1356 0.930 . S
C1362 C1363 1.355 . S
C1362 C1364 1.415 . S
C1363 C1362 1.355 . S
C1363 C1365 1.419 . S
C1364 C1362 1.415 . S
C1364 C1369 1.425 . S
C1364 C1371 1.409 . S
C1365 H1357 0.930 . S
C1365 C1363 1.419 . S
C1365 C1366 1.362 . S
C1366 H1358 0.930 . S
C1366 C1365 1.362 . S
C1366 C1369 1.409 . S
C1367 H1359 0.930 . S
C1367 C1368 1.355 . S
C1367 C1369 1.415 . S
C1368 C1367 1.355 . S
C1368 C1370 1.419 . S
C1369 C1364 1.425 . S
C1369 C1366 1.409 . S
C1369 C1367 1.415 . S
C1370 H1360 0.930 . S
C1370 C1368 1.419 . S
C1370 C1371 1.362 . S
C1371 H1361 0.930 . S
C1371 C1364 1.409 . S
C1371 C1370 1.362 . S
H1372 C1378 0.930 . S
H1373 C1381 0.930 . S
H1374 C1382 0.930 . S
H1375 C1383 0.930 . S
H1376 C1386 0.930 . S
H1377 C1387 0.930 . S
C1378 H1372 0.930 . S
C1378 C1379 1.355 . S
C1378 C1380 1.415 . S
C1379 C1378 1.355 . S
C1379 C1381 1.419 . S
C1380 C1378 1.415 . S
C1380 C1385 1.425 . S
C1380 C1387 1.409 . S
C1381 H1373 0.930 . S
C1381 C1379 1.419 . S
C1381 C1382 1.362 . S
C1382 H1374 0.930 . S
C1382 C1381 1.362 . S
C1382 C1385 1.409 . S
C1383 H1375 0.930 . S
C1383 C1384 1.355 . S
C1383 C1385 1.415 . S
C1384 C1383 1.355 . S
C1384 C1386 1.419 . S
C1385 C1380 1.425 . S
C1385 C1382 1.409 . S
C1385 C1383 1.415 . S
C1386 H1376 0.930 . S
C1386 C1384 1.419 . S
C1386 C1387 1.362 . S
C1387 H1377 0.930 . S
C1387 C1380 1.409 . S
C1387 C1386 1.362 . S
H1388 C1394 0.930 . S
H1389 C1397 0.930 . S
H1390 C1398 0.930 . S
H1391 C1399 0.930 . S
H1392 C1402 0.930 . S
H1393 C1403 0.930 . S
C1394 H1388 0.930 . S
C1394 C1395 1.355 . S
C1394 C1396 1.415 . S
C1395 C1394 1.355 . S
C1395 C1397 1.419 . S
C1396 C1394 1.415 . S
C1396 C1401 1.425 . S
C1396 C1403 1.409 . S
C1397 H1389 0.930 . S
C1397 C1395 1.419 . S
C1397 C1398 1.362 . S
C1398 H1390 0.930 . S
C1398 C1397 1.362 . S
C1398 C1401 1.409 . S
C1399 H1391 0.930 . S
C1399 C1400 1.355 . S
C1399 C1401 1.415 . S
C1400 C1399 1.355 . S
C1400 C1402 1.419 . S
C1401 C1396 1.425 . S
C1401 C1398 1.409 . S
C1401 C1399 1.415 . S
C1402 H1392 0.930 . S
C1402 C1400 1.419 . S
C1402 C1403 1.362 . S
C1403 H1393 0.930 . S
C1403 C1396 1.409 . S
C1403 C1402 1.362 . S
H1404 C1410 0.930 . S
H1405 C1413 0.930 . S
H1406 C1414 0.930 . S
H1407 C1415 0.930 . S
H1408 C1418 0.930 . S
H1409 C1419 0.930 . S
C1410 H1404 0.930 . S
C1410 C1411 1.355 . S
C1410 C1412 1.415 . S
C1411 C1410 1.355 . S
C1411 C1413 1.419 . S
C1412 C1410 1.415 . S
C1412 C1417 1.425 . S
C1412 C1419 1.409 . S
C1413 H1405 0.930 . S
C1413 C1411 1.419 . S
C1413 C1414 1.362 . S
C1414 H1406 0.930 . S
C1414 C1413 1.362 . S
C1414 C1417 1.409 . S
C1415 H1407 0.930 . S
C1415 C1416 1.355 . S
C1415 C1417 1.415 . S
C1416 C1415 1.355 . S
C1416 C1418 1.419 . S
C1417 C1412 1.425 . S
C1417 C1414 1.409 . S
C1417 C1415 1.415 . S
C1418 H1408 0.930 . S
C1418 C1416 1.419 . S
C1418 C1419 1.362 . S
C1419 H1409 0.930 . S
C1419 C1412 1.409 . S
C1419 C1418 1.362 . S
H1420 C1426 0.930 . S
H1421 C1429 0.930 . S
H1422 C1430 0.930 . S
H1423 C1431 0.930 . S
H1424 C1434 0.930 . S
H1425 C1435 0.930 . S
C1426 H1420 0.930 . S
C1426 C1427 1.355 . S
C1426 C1428 1.415 . S
C1427 C1426 1.355 . S
C1427 C1429 1.419 . S
C1428 C1426 1.415 . S
C1428 C1433 1.425 . S
C1428 C1435 1.409 . S
C1429 H1421 0.930 . S
C1429 C1427 1.419 . S
C1429 C1430 1.362 . S
C1430 H1422 0.930 . S
C1430 C1429 1.362 . S
C1430 C1433 1.409 . S
C1431 H1423 0.930 . S
C1431 C1432 1.355 . S
C1431 C1433 1.415 . S
C1432 C1431 1.355 . S
C1432 C1434 1.419 . S
C1433 C1428 1.425 . S
C1433 C1430 1.409 . S
C1433 C1431 1.415 . S
C1434 H1424 0.930 . S
C1434 C1432 1.419 . S
C1434 C1435 1.362 . S
C1435 H1425 0.930 . S
C1435 C1428 1.409 . S
C1435 C1434 1.362 . S
H1436 C1442 0.930 1_554 S
H1437 C1445 0.930 . S
H1438 C1446 0.930 . S
H1439 C1447 0.930 . S
H1440 C1450 0.930 . S
H1441 C1451 0.930 . S
C1442 H1436 0.930 1_556 S
C1442 C1443 1.355 . S
C1442 C1444 1.415 . S
C1443 C1442 1.355 . S
C1443 C1445 1.419 . S
C1444 C1442 1.415 . S
C1444 C1449 1.425 . S
C1444 C1451 1.409 1_556 S
C1445 H1437 0.930 . S
C1445 C1443 1.419 . S
C1445 C1446 1.362 . S
C1446 H1438 0.930 . S
C1446 C1445 1.362 . S
C1446 C1449 1.409 . S
C1447 H1439 0.930 . S
C1447 C1448 1.355 . S
C1447 C1449 1.415 . S
C1448 C1447 1.355 . S
C1448 C1450 1.419 1_556 S
C1449 C1444 1.425 . S
C1449 C1446 1.409 . S
C1449 C1447 1.415 . S
C1450 H1440 0.930 . S
C1450 C1448 1.419 1_554 S
C1450 C1451 1.362 . S
C1451 H1441 0.930 . S
C1451 C1444 1.409 1_554 S
C1451 C1450 1.362 . S
H1452 C1458 0.930 . S
H1453 C1461 0.930 . S
H1454 C1462 0.930 . S
H1455 C1463 0.930 . S
H1456 C1466 0.930 . S
H1457 C1467 0.930 . S
C1458 H1452 0.930 . S
C1458 C1459 1.355 . S
C1458 C1460 1.415 . S
C1459 C1458 1.355 . S
C1459 C1461 1.419 . S
C1460 C1458 1.415 . S
C1460 C1465 1.425 . S
C1460 C1467 1.409 . S
C1461 H1453 0.930 . S
C1461 C1459 1.419 . S
C1461 C1462 1.362 . S
C1462 H1454 0.930 . S
C1462 C1461 1.362 . S
C1462 C1465 1.409 . S
C1463 H1455 0.930 . S
C1463 C1464 1.355 . S
C1463 C1465 1.415 . S
C1464 C1463 1.355 . S
C1464 C1466 1.419 . S
C1465 C1460 1.425 . S
C1465 C1462 1.409 . S
C1465 C1463 1.415 . S
C1466 H1456 0.930 . S
C1466 C1464 1.419 . S
C1466 C1467 1.362 . S
C1467 H1457 0.930 . S
C1467 C1460 1.409 . S
C1467 C1466 1.362 . S
H1468 C1474 0.930 . S
H1469 C1477 0.930 . S
H1470 C1478 0.930 . S
H1471 C1479 0.930 . S
H1472 C1482 0.930 . S
H1473 C1483 0.930 . S
C1474 H1468 0.930 . S
C1474 C1475 1.355 . S
C1474 C1476 1.415 . S
C1475 C1474 1.355 . S
C1475 C1477 1.419 . S
C1476 C1474 1.415 . S
C1476 C1481 1.425 . S
C1476 C1483 1.409 . S
C1477 H1469 0.930 . S
C1477 C1475 1.419 . S
C1477 C1478 1.362 . S
C1478 H1470 0.930 . S
C1478 C1477 1.362 . S
C1478 C1481 1.409 . S
C1479 H1471 0.930 . S
C1479 C1480 1.355 . S
C1479 C1481 1.415 . S
C1480 C1479 1.355 . S
C1480 C1482 1.419 . S
C1481 C1476 1.425 . S
C1481 C1478 1.409 . S
C1481 C1479 1.415 . S
C1482 H1472 0.930 . S
C1482 C1480 1.419 . S
C1482 C1483 1.362 . S
C1483 H1473 0.930 . S
C1483 C1476 1.409 . S
C1483 C1482 1.362 . S
H1484 C1490 0.930 . S
H1485 C1493 0.930 1_545 S
H1486 C1494 0.930 . S
H1487 C1495 0.930 . S
H1488 C1498 0.930 . S
H1489 C1499 0.930 . S
C1490 H1484 0.930 . S
C1490 C1491 1.355 . S
C1490 C1492 1.415 . S
C1491 C1490 1.355 . S
C1491 C1493 1.419 . S
C1492 C1490 1.415 . S
C1492 C1497 1.425 . S
C1492 C1499 1.409 . S
C1493 H1485 0.930 1_565 S
C1493 C1491 1.419 . S
C1493 C1494 1.362 . S
C1494 H1486 0.930 . S
C1494 C1493 1.362 . S
C1494 C1497 1.409 . S
C1495 H1487 0.930 . S
C1495 C1496 1.355 . S
C1495 C1497 1.415 . S
C1496 C1495 1.355 . S
C1496 C1498 1.419 . S
C1497 C1492 1.425 . S
C1497 C1494 1.409 . S
C1497 C1495 1.415 . S
C1498 H1488 0.930 . S
C1498 C1496 1.419 . S
C1498 C1499 1.362 . S
C1499 H1489 0.930 . S
C1499 C1492 1.409 . S
C1499 C1498 1.362 . S
C744 C586 1.418 . S
C739 C181 1.415 . S
C760 C599 1.599 . S
C755 C247 1.599 . S
C771 C283 1.461 . S
C776 C612 1.456 . S
C792 C625 1.526 . S
C787 C169 1.511 . S
C808 C633 1.475 . S
C803 C361 1.485 . S
C824 C646 1.396 . S
C819 C433 1.424 . S
C835 C421 1.499 . S
C840 C659 1.493 . S
C856 C672 1.509 . S
C851 C355 1.523 . S
C867 C427 1.450 . S
C872 C690 1.443 . S
C888 C701 1.530 . S
C883 C325 1.531 . S
C899 C385 1.450 . S
C904 C685 1.455 . S
C920 C693 1.461 . S
C915 C463 1.472 . S
C931 C253 1.509 . S
C936 C716 1.507 . S
C947 C145 1.504 . S
C952 C706 1.456 . S
C963 C205 1.490 . S
C968 C711 1.479 . S
C979 C217 1.559 . S
C984 C714 1.519 1_655 S
C995 C139 1.457 . S
C1000 C623 1.460 . S
C1011 C535 1.424 . S
C1016 C615 1.389 . S
C1032 C584 1.494 . S
C1027 C565 1.551 . S
C1048 C589 1.510 . S
C1043 C313 1.494 . S
C1059 C175 1.551 . S
C1064 C636 1.538 . S
C1080 C675 1.471 . S
C1075 C397 1.524 . S
C1096 C628 1.488 . S
C1091 C349 1.496 . S
C1112 C654 1.466 . S
C1107 C457 1.476 . S
C1128 C664 1.402 . S
C1123 C505 1.410 . S
C1139 C571 1.604 . S
C1144 C677 1.580 . S
C1155 C319 1.450 . S
C1160 C638 1.435 . S
C1176 C651 1.508 . S
C1171 C493 1.529 . S
C1187 C109 1.485 . S
C1192 C607 1.443 . S
C1208 C620 1.432 . S
C1203 C1 1.413 . S
C1224 C581 1.479 . S
C1219 C61 1.503 . S
C1240 C594 1.522 . S
C1235 C103 1.522 . S
C1251 C67 1.452 . S
C1256 C703 1.447 . S
C1267 C73 1.537 . S
C1272 C688 1.486 1_655 S
C1283 C133 1.459 . S
C1288 C698 1.446 . S
C1299 C31 1.486 . S
C1304 C680 1.482 . S
C1320 C729 1.500 . S
C1315 C289 1.507 . S
C1336 C719 1.507 . S
C1331 C469 1.518 . S
C1352 C724 1.479 . S
C1347 C529 1.489 . S
C1363 C541 1.560 . S
C1368 C727 1.518 . S
C1379 C391 1.463 . S
C1384 C649 1.410 . S
C1400 C641 1.422 . S
C1395 C211 1.422 . S
C1416 C662 1.511 . S
C1411 C241 1.549 . S
C1432 C667 1.469 . S
C1427 C277 1.508 . S
C1443 C499 1.547 . S
C1448 C610 1.523 . S
C1464 C597 1.485 . S
C1459 C37 1.519 . S
C1475 C97 1.511 . S
C1480 C602 1.455 . S
C1496 C576 1.423 . S
C1491 C25 1.460 . S
