# Generated by pormake.
# Topology pyr, (3,6)-cn, num edge types: 1
# Building blocks:
#     Node 0, Type 0, BuildingBlock: BETDIP_clean_linker_0, # of connection points: 3
#     Node 1, Type 0, BuildingBlock: BETDIP_clean_linker_0, # of connection points: 3
#     Node 2, Type 0, BuildingBlock: BETDIP_clean_linker_0, # of connection points: 3
#     Node 3, Type 0, BuildingBlock: BETDIP_clean_linker_0, # of connection points: 3
#     Node 4, Type 0, BuildingBlock: BETDIP_clean_linker_0, # of connection points: 3
#     Node 5, Type 0, BuildingBlock: BETDIP_clean_linker_0, # of connection points: 3
#     Node 6, Type 0, BuildingBlock: BETDIP_clean_linker_0, # of connection points: 3
#     Node 7, Type 0, BuildingBlock: BETDIP_clean_linker_0, # of connection points: 3
#     Node 8, Type 1, BuildingBlock: BETGAK_clean_sbu_0, # of connection points: 6
#     Node 9, Type 1, BuildingBlock: BETGAK_clean_sbu_0, # of connection points: 6
#     Node 10, Type 1, BuildingBlock: BETGAK_clean_sbu_0, # of connection points: 6
#     Node 11, Type 1, BuildingBlock: BETGAK_clean_sbu_0, # of connection points: 6
#     Edge 12, Type (0, 1), BuildingBlock: XIVTED_clean_linker_0, # of connection points: 2
#     Edge 13, Type (0, 1), BuildingBlock: XIVTED_clean_linker_0, # of connection points: 2
#     Edge 14, Type (0, 1), BuildingBlock: XIVTED_clean_linker_0, # of connection points: 2
#     Edge 15, Type (0, 1), BuildingBlock: XIVTED_clean_linker_0, # of connection points: 2
#     Edge 16, Type (0, 1), BuildingBlock: XIVTED_clean_linker_0, # of connection points: 2
#     Edge 17, Type (0, 1), BuildingBlock: XIVTED_clean_linker_0, # of connection points: 2
#     Edge 18, Type (0, 1), BuildingBlock: XIVTED_clean_linker_0, # of connection points: 2
#     Edge 19, Type (0, 1), BuildingBlock: XIVTED_clean_linker_0, # of connection points: 2
#     Edge 20, Type (0, 1), BuildingBlock: XIVTED_clean_linker_0, # of connection points: 2
#     Edge 21, Type (0, 1), BuildingBlock: XIVTED_clean_linker_0, # of connection points: 2
#     Edge 22, Type (0, 1), BuildingBlock: XIVTED_clean_linker_0, # of connection points: 2
#     Edge 23, Type (0, 1), BuildingBlock: XIVTED_clean_linker_0, # of connection points: 2
#     Edge 24, Type (0, 1), BuildingBlock: XIVTED_clean_linker_0, # of connection points: 2
#     Edge 25, Type (0, 1), BuildingBlock: XIVTED_clean_linker_0, # of connection points: 2
#     Edge 26, Type (0, 1), BuildingBlock: XIVTED_clean_linker_0, # of connection points: 2
#     Edge 27, Type (0, 1), BuildingBlock: XIVTED_clean_linker_0, # of connection points: 2
#     Edge 28, Type (0, 1), BuildingBlock: XIVTED_clean_linker_0, # of connection points: 2
#     Edge 29, Type (0, 1), BuildingBlock: XIVTED_clean_linker_0, # of connection points: 2
#     Edge 30, Type (0, 1), BuildingBlock: XIVTED_clean_linker_0, # of connection points: 2
#     Edge 31, Type (0, 1), BuildingBlock: XIVTED_clean_linker_0, # of connection points: 2
#     Edge 32, Type (0, 1), BuildingBlock: XIVTED_clean_linker_0, # of connection points: 2
#     Edge 33, Type (0, 1), BuildingBlock: XIVTED_clean_linker_0, # of connection points: 2
#     Edge 34, Type (0, 1), BuildingBlock: XIVTED_clean_linker_0, # of connection points: 2
#     Edge 35, Type (0, 1), BuildingBlock: XIVTED_clean_linker_0, # of connection points: 2
# Relax obj value: 0.131
# Max RMSD: 0.168
# Mean RMSD: 0.137
data_MOF--net-pyr--node1-BETGAK_clean_sbu_0--node2-BETDIP_clean_linker_0--edge1-XIVTED_clean_linker_0
_symmetry_space_group_name_H-M    P1
_symmetry_Int_Tables_number       1
_symmetry_cell_setting            triclinic
loop_
_symmetry_equiv_pos_as_xyz
'x, y, z'
_cell_length_a     38.412522
_cell_length_b     39.851708
_cell_length_c     37.306969
_cell_angle_alpha  91.266828
_cell_angle_beta   87.508201
_cell_angle_gamma 107.70026
loop_
_atom_site_label
_atom_site_type_symbol
_atom_site_fract_x
_atom_site_fract_y
_atom_site_fract_z
_atom_type_partial_charge
H0 H 0.33093 0.3302 0.23986 0.0
H1 H 0.40114 0.31392 0.15337 0.0
H2 H 0.38113 0.2476 0.24609 0.0
H3 H 0.35784 0.3913 0.21737 0.0
C4 C 0.34865 0.38117 0.19099 0.0
C5 C 0.35 0.31694 0.22935 0.0
C6 C 0.35415 0.28803 0.24774 0.0
C7 C 0.36761 0.32681 0.19571 0.0
C8 C 0.38901 0.30724 0.18006 0.0
C9 C 0.39408 0.27867 0.19818 0.0
C10 C 0.37752 0.26994 0.23242 0.0
N11 N 0.36046 0.3535 0.17534 0.0
H12 H 0.17045 0.82823 0.7249 0.0
H13 H 0.20454 0.80053 0.6199 0.0
H14 H 0.27373 0.80758 0.70839 0.0
H15 H 0.15105 0.80486 0.6022 0.0
C16 C 0.14509 0.82362 0.62116 0.0
C17 C 0.19021 0.82054 0.70766 0.0
C18 C 0.22284 0.8183 0.7216 0.0
C19 C 0.18342 0.81467 0.6711 0.0
C20 C 0.2089 0.80481 0.64829 0.0
C21 C 0.24128 0.80192 0.66191 0.0
C22 C 0.24809 0.80881 0.69838 0.0
N23 N 0.15278 0.82271 0.65794 0.0
H24 H 0.72494 0.4499 0.8505 0.0
H25 H 0.63203 0.35688 0.8425 0.0
H26 H 0.71394 0.36158 0.9191 0.0
H27 H 0.63106 0.37808 0.78561 0.0
C28 C 0.63962 0.4066 0.78811 0.0
C29 C 0.70991 0.42365 0.85955 0.0
C30 C 0.72393 0.40796 0.8868 0.0
C31 C 0.67723 0.40543 0.84273 0.0
C32 C 0.65772 0.37088 0.85428 0.0
C33 C 0.67058 0.35488 0.88229 0.0
C34 C 0.70373 0.37374 0.89793 0.0
N35 N 0.66464 0.42315 0.8152 0.0
H36 H 0.8237 0.66572 0.34872 0.0
H37 H 0.91816 0.75817 0.34375 0.0
H38 H 0.83589 0.74808 0.42793 0.0
H39 H 0.93304 0.73523 0.29282 0.0
C40 C 0.91591 0.70838 0.28862 0.0
C41 C 0.83891 0.69126 0.35935 0.0
C42 C 0.82568 0.70448 0.39058 0.0
C43 C 0.8721 0.71008 0.34197 0.0
C44 C 0.89232 0.74326 0.35618 0.0
C45 C 0.87954 0.75686 0.38767 0.0
C46 C 0.84623 0.73728 0.40432 0.0
N47 N 0.88415 0.69387 0.3112 0.0
H48 H 0.64291 0.80093 0.94775 0.0
H49 H 0.71862 0.76615 0.87965 0.0
H50 H 0.69668 0.863 0.85708 0.0
H51 H 0.6627 0.70092 0.90879 0.0
C52 C 0.68093 0.71864 0.92719 0.0
C53 C 0.6612 0.80458 0.92422 0.0
C54 C 0.66677 0.8343 0.90262 0.0
C55 C 0.67896 0.7794 0.91556 0.0
C56 C 0.70371 0.7848 0.8858 0.0
C57 C 0.71051 0.81504 0.86472 0.0
C58 C 0.69111 0.83919 0.8727 0.0
N59 N 0.67323 0.74999 0.93835 0.0
H60 H 0.7226 0.14064 0.44522 0.0
H61 H 0.71346 0.1988 0.54146 0.0
H62 H 0.63972 0.19255 0.45601 0.0
H63 H 0.73993 0.15461 0.56408 0.0
C64 C 0.76003 0.15561 0.5424 0.0
C65 C 0.70811 0.15557 0.46119 0.0
C66 C 0.6789 0.16423 0.44694 0.0
C67 C 0.72013 0.16722 0.49532 0.0
C68 C 0.70309 0.18831 0.51568 0.0
C69 C 0.67384 0.19744 0.5016 0.0
C70 C 0.6616 0.18486 0.46743 0.0
N71 N 0.75165 0.15978 0.50652 0.0
H72 H 0.33465 0.68503 0.22682 0.0
H73 H 0.42717 0.7792 0.22668 0.0
H74 H 0.34395 0.766 0.14947 0.0
H75 H 0.37609 0.66161 0.25181 0.0
C76 C 0.39144 0.68206 0.26978 0.0
C77 C 0.34991 0.71006 0.21515 0.0
C78 C 0.33509 0.72308 0.18635 0.0
C79 C 0.38338 0.73018 0.22991 0.0
C80 C 0.4017 0.7637 0.21538 0.0
C81 C 0.38807 0.77677 0.18582 0.0
C82 C 0.35485 0.75607 0.17181 0.0
N83 N 0.3987 0.71815 0.25986 0.0
H84 H 0.1388 0.35284 0.7376 0.0
H85 H 0.22697 0.44992 0.72547 0.0
H86 H 0.2202 0.36428 0.65193 0.0
H87 H 0.21408 0.45886 0.78234 0.0
C88 C 0.18509 0.44627 0.78769 0.0
C89 C 0.16359 0.36833 0.72361 0.0
C90 C 0.17691 0.35435 0.69272 0.0
C91 C 0.18166 0.40254 0.73636 0.0
C92 C 0.21344 0.42308 0.71733 0.0
C93 C 0.22719 0.40957 0.68649 0.0
C94 C 0.20895 0.37517 0.6749 0.0
N95 N 0.1664 0.41581 0.76732 0.0
La96 La 0.03585 0.06711 0.51397 0.0
La97 La 0.01699 1.03245 0.5857 0.0
C98 C 0.04759 0.10795 0.46107 0.0
C99 C 0.08159 0.13388 0.44826 0.0
C100 C 0.1147 0.13508 0.46353 0.0
C101 C 0.14776 0.15667 0.44897 0.0
C102 C 0.14823 0.17759 0.41905 0.0
C103 C 0.11487 0.1777 0.40495 0.0
C104 C 0.08171 0.1558 0.4194 0.0
C105 C 0.07952 1.031 0.53301 0.0
C106 C 0.0662 0.11291 0.58282 0.0
C107 C 1.01151 1.0035 0.64568 0.0
C108 C 0.98076 0.97747 0.66427 0.0
C109 C 0.94497 0.97924 0.66198 0.0
C110 C 0.91584 0.95487 0.67979 0.0
C111 C 0.92168 0.92786 0.70004 0.0
C112 C 0.95752 0.92575 0.70178 0.0
C113 C 0.98682 0.9504 0.68403 0.0
C114 C 0.96195 0.04818 0.55719 0.0
C115 C 0.99129 0.98838 0.51563 0.0
O116 O 0.04791 0.07532 0.45892 0.0
O117 O 0.03419 0.11486 0.49213 0.0
O118 O 0.07174 1.03467 0.5003 0.0
O119 O 0.06533 0.04939 0.55293 0.0
O120 O 0.06779 0.11026 0.54738 0.0
O121 O 0.04816 0.0858 0.60316 0.0
O122 O 1.00723 1.03449 0.64116 0.0
O123 O 0.02515 0.99218 0.61672 0.0
O124 O 0.95852 1.02159 0.57768 0.0
O125 O 0.99516 0.06583 0.55531 0.0
O126 O 1.00471 0.98801 0.54772 0.0
O127 O 0.99337 1.01859 0.50018 0.0
H128 H 0.11506 0.11835 0.48592 0.0
H129 H 0.17305 0.15633 0.46052 0.0
H130 H 0.11453 0.19337 0.38169 0.0
H131 H 0.05635 0.15513 0.40735 0.0
H132 H 0.93944 0.99976 0.64676 0.0
H133 H 0.88882 0.95781 0.67836 0.0
H134 H 0.96294 0.90505 0.71679 0.0
H135 H 0.01419 0.94839 0.6858 0.0
La136 La 0.5576 0.07124 0.04658 0.0
La137 La 0.49501 0.05276 1.00312 0.0
C138 C 0.61893 0.08932 0.07483 0.0
C139 C 0.62862 0.09518 0.11262 0.0
C140 C 0.60798 0.07237 0.13924 0.0
C141 C 0.61514 0.07958 0.17534 0.0
C142 C 0.64286 0.10987 0.18558 0.0
C143 C 0.66386 0.13245 0.15892 0.0
C144 C 0.65681 0.12509 0.12266 0.0
C145 C 0.50412 1.01659 0.07261 0.0
C146 C 0.49772 0.10433 0.07089 0.0
C147 C 0.43104 1.03238 0.98021 0.0
C148 C 0.40492 1.00281 0.96231 0.0
C149 C 0.37897 1.01017 0.94123 0.0
C150 C 0.35376 0.98316 0.92327 0.0
C151 C 0.3538 0.94804 0.92618 0.0
C152 C 0.37984 0.94065 0.94763 0.0
C153 C 0.40531 0.96791 0.96558 0.0
C154 C 0.54789 0.10869 0.97819 0.0
C155 C 0.55575 1.02201 0.97976 0.0
O156 O 0.60147 0.05689 0.06578 0.0
O157 O 0.60434 0.11177 0.06158 0.0
O158 O 0.52471 0.04188 0.09147 0.0
O159 O 0.51412 1.02221 0.03996 0.0
O160 O 0.53182 0.10551 0.07542 0.0
O161 O 0.47831 0.08422 0.0457 0.0
O162 O 0.45975 0.04987 0.96096 0.0
O163 O 0.43901 1.02762 1.01306 0.0
O164 O 0.52719 0.0841 0.95856 0.0
O165 O 0.53786 0.1018 1.01057 0.0
O166 O 0.51986 1.01398 0.98214 0.0
O167 O 0.57601 0.04968 0.99732 0.0
H168 H 0.58573 0.04931 0.1323 0.0
H169 H 0.59816 0.062 0.19529 0.0
H170 H 0.68557 0.15586 0.16611 0.0
H171 H 0.67284 0.14309 0.10251 0.0
H172 H 0.37846 1.03702 0.93832 0.0
H173 H 0.33483 0.99004 0.90632 0.0
H174 H 0.38054 0.91389 0.95052 0.0
H175 H 0.42528 0.96181 0.9818 0.0
La176 La 0.52468 0.52977 0.51013 0.0
La177 La 0.52274 0.58828 0.55843 0.0
C178 C 0.54638 0.48441 0.47592 0.0
C179 C 0.55794 0.45452 0.4874 0.0
C180 C 0.54045 0.43388 0.51687 0.0
C181 C 0.553 0.40672 0.52859 0.0
C182 C 0.58352 0.4001 0.51134 0.0
C183 C 0.60106 0.42097 0.48202 0.0
C184 C 0.58831 0.4479 0.47012 0.0
C185 C 0.4608 0.52123 0.54402 0.0
C186 C 0.55152 0.5307 0.59155 0.0
C187 C 0.50218 0.63359 0.59409 0.0
C188 C 0.47594 0.65334 0.58862 0.0
C189 C 0.43827 0.63758 0.59551 0.0
C190 C 0.41374 0.6567 0.59148 0.0
C191 C 0.42626 0.69202 0.58055 0.0
C192 C 0.46384 0.70758 0.57299 0.0
C193 C 0.48845 0.68846 0.57711 0.0
C194 C 0.58678 0.59595 0.52575 0.0
C195 C 0.49533 0.58614 0.47736 0.0
O196 O 0.51182 0.48189 0.48161 0.0
O197 O 0.56799 0.51547 0.48476 0.0
O198 O 0.46483 0.51051 0.51148 0.0
O199 O 0.49191 0.53413 0.55688 0.0
O200 O 0.54846 0.5164 0.55889 0.0
O201 O 0.54104 0.55893 0.59883 0.0
O202 O 0.53155 0.64136 0.57294 0.0
O203 O 0.48831 0.59958 0.5988 0.0
O204 O 0.58232 0.60582 0.55853 0.0
O205 O 0.55593 0.58396 0.51198 0.0
O206 O 0.49308 0.59714 0.51109 0.0
O207 O 0.51152 0.56186 0.46955 0.0
H208 H 0.51734 0.43897 0.53107 0.0
H209 H 0.53917 0.3912 0.55141 0.0
H210 H 0.62435 0.41613 0.46793 0.0
H211 H 0.60233 0.46376 0.44757 0.0
H212 H 0.42768 0.61063 0.60463 0.0
H213 H 0.38508 0.64411 0.59824 0.0
H214 H 0.47432 0.73467 0.56429 0.0
H215 H 0.51732 0.70132 0.57166 0.0
La216 La 0.02892 0.52933 0.0516 0.0
La217 La 0.03196 0.59811 1.01995 0.0
C218 C 0.04348 0.47415 0.0682 0.0
C219 C 0.07613 0.46593 0.07948 0.0
C220 C 0.07225 0.43429 0.09718 0.0
C221 C 0.10313 0.42613 0.10795 0.0
C222 C 0.1383 0.44975 0.10154 0.0
C223 C 0.14206 0.48148 0.08384 0.0
C224 C 0.11123 0.48934 0.0726 0.0
C225 C 0.99388 0.56649 0.09021 0.0
C226 C 0.0984 0.59784 0.06498 0.0
C227 C 0.01669 0.6527 1.00263 0.0
C228 C 0.98242 0.66013 0.9955 0.0
C229 C 0.9832 0.6896 0.97531 0.0
C230 C 0.95066 0.69672 0.96831 0.0
C231 C 0.9168 0.67424 0.98116 0.0
C232 C 0.9162 0.64474 1.00143 0.0
C233 C 0.94872 0.63788 1.00871 0.0
C234 C 0.06825 0.56185 0.98206 0.0
C235 C 0.96211 0.52982 1.00783 0.0
O236 O 0.02968 0.49257 0.09095 0.0
O237 O 0.04499 0.48541 1.03533 0.0
O238 O 0.98315 0.53234 0.08785 0.0
O239 O 0.02393 0.57798 0.07289 0.0
O240 O 0.08458 0.56296 0.06458 0.0
O241 O 0.08071 0.61799 0.05119 0.0
O242 O 0.02678 0.63202 0.97944 0.0
O243 O 0.02018 0.6444 1.03572 0.0
O244 O 0.07852 0.59595 0.98494 0.0
O245 O 0.03766 0.54967 0.99845 0.0
O246 O 0.97561 0.56468 1.00924 0.0
O247 O 0.98037 0.50959 1.02025 0.0
H248 H 0.04536 0.41589 0.10262 0.0
H249 H 0.09949 0.40159 0.12173 0.0
H250 H 0.16887 0.49994 0.07818 0.0
H251 H 0.11488 0.51355 0.0583 0.0
H252 H 1.00897 0.70706 0.96492 0.0
H253 H 0.95193 0.71949 0.9524 0.0
H254 H 0.8906 0.62722 1.01208 0.0
H255 H 0.9475 0.61527 1.02483 0.0
H256 H 0.32894 0.32474 0.30151 0.0
H257 H 0.20441 0.1517 0.40042 0.0
H258 H 0.32374 0.21889 0.26762 0.0
H259 H 0.17164 0.2458 0.395 0.0
H260 H 0.2599 0.18065 0.36473 0.0
H261 H 0.28203 0.29992 0.34837 0.0
C262 C 0.31835 0.29639 0.30398 0.0
C263 C 0.33031 0.274 0.28005 0.0
C264 C 0.24075 0.19508 0.37173 0.0
C265 C 0.27749 0.24571 0.33431 0.0
C266 C 0.20923 0.1787 0.39223 0.0
C267 C 0.18339 0.1964 0.4005 0.0
C268 C 0.24669 0.22952 0.3597 0.0
C269 C 0.19078 0.2312 0.38884 0.0
C270 C 0.29172 0.28235 0.33084 0.0
C271 C 0.31611 0.23745 0.28544 0.0
N272 N 0.22181 0.24668 0.36889 0.0
N273 N 0.29043 0.22453 0.31187 0.0
H274 H 0.20792 0.87169 0.76106 0.0
H275 H 0.36681 0.89172 0.89042 0.0
H276 H 0.26076 0.79067 0.76797 0.0
H277 H 0.28203 0.94052 0.91323 0.0
H278 H 0.32745 0.85242 0.84747 0.0
H279 H 0.23278 0.89553 0.8183 0.0
C280 C 0.22401 0.85832 0.77489 0.0
C281 C 0.23263 0.82934 0.75917 0.0
C282 C 0.31724 0.87133 0.86238 0.0
C283 C 0.26224 0.85743 0.82443 0.0
C284 C 0.33966 0.89372 0.88704 0.0
C285 C 0.32806 0.92002 0.90497 0.0
C286 C 0.28327 0.87565 0.85524 0.0
C287 C 0.29261 0.92141 0.8992 0.0
C288 C 0.23842 0.87216 0.80759 0.0
C289 C 0.25424 0.81368 0.77842 0.0
N290 N 0.27176 0.90004 0.87434 0.0
N291 N 0.2689 0.82834 0.80968 0.0
H292 H 0.64693 0.47838 0.78547 0.0
H293 H 0.5629 0.46582 0.59001 0.0
H294 H 0.60544 0.38121 0.72642 0.0
H295 H 0.57245 0.55552 0.65995 0.0
H296 H 0.58475 0.43701 0.6375 0.0
H297 H 0.62607 0.50937 0.73825 0.0
C298 C 0.6336 0.46356 0.76257 0.0
C299 C 0.62802 0.42702 0.75998 0.0
C300 C 0.58211 0.463 0.64258 0.0
C301 C 0.60427 0.46248 0.70555 0.0
C302 C 0.56966 0.47963 0.61529 0.0
C303 C 0.56558 0.51331 0.62071 0.0
C304 C 0.59119 0.48011 0.67582 0.0
C305 C 0.57492 0.52956 0.65439 0.0
C306 C 0.62157 0.48127 0.73565 0.0
C307 C 0.61037 0.40932 0.72965 0.0
N308 N 0.58738 0.51294 0.68049 0.0
N309 N 0.5994 0.42712 0.70374 0.0
H310 H 0.97357 0.7298 0.24073 0.0
H311 H 0.93273 0.54444 0.13504 0.0
H312 H 0.88162 0.63938 0.26765 0.0
H313 H 0.0236 0.63597 0.10866 0.0
H314 H 0.91242 0.57871 0.18257 0.0
H315 H 0.99131 0.69599 0.19146 0.0
C316 C 0.95707 0.70281 0.23623 0.0
C317 C 0.9261 0.6875 0.25844 0.0
C318 C 0.9367 0.59137 0.16628 0.0
C319 C 0.94627 0.64832 0.20184 0.0
C320 C 0.94827 0.5718 0.13908 0.0
C321 C 0.97988 0.58734 0.11773 0.0
C322 C 0.95692 0.62679 0.17232 0.0
C323 C 0.99896 0.62291 0.12425 0.0
C324 C 0.9672 0.68347 0.20805 0.0
C325 C 0.90573 0.65236 0.25129 0.0
N326 N 0.98728 0.64131 0.15092 0.0
N327 N 0.91619 0.634 0.22372 0.0
H328 H 0.44619 0.25207 0.22393 0.0
H329 H 0.43422 0.11889 0.05911 0.0
H330 H 0.38296 0.25082 0.13087 0.0
H331 H 0.52515 0.14532 0.12957 0.0
H332 H 0.41049 0.16212 0.09032 0.0
H333 H 0.47195 0.20882 0.19409 0.0
C334 C 0.43799 0.24288 0.19715 0.0
C335 C 0.41262 0.25515 0.17971 0.0
C336 C 0.43562 0.15846 0.09899 0.0
C337 C 0.4413 0.20551 0.14587 0.0
C338 C 0.4491 0.13358 0.08135 0.0
C339 C 0.48183 0.12853 0.09165 0.0
C340 C 0.45473 0.17828 0.12746 0.0
C341 C 0.49989 0.14847 0.12065 0.0
C342 C 0.45267 0.2183 0.18017 0.0
C343 C 0.40283 0.24243 0.14506 0.0
N344 N 0.48605 0.17249 0.13762 0.0
N345 N 0.41695 0.21812 0.12941 0.0
H346 H 0.13323 0.83644 0.55213 0.0
H347 H 0.09949 1.02141 0.60019 0.0
H348 H 0.13213 0.87838 0.65967 0.0
H349 H 0.08844 0.97531 0.49402 0.0
H350 H 0.11494 0.97039 0.62179 0.0
H351 H 0.11888 0.88787 0.52954 0.0
C352 C 0.12969 0.85635 0.57095 0.0
C353 C 0.13382 0.85317 0.60772 0.0
C354 C 0.10926 0.97143 0.59373 0.0
C355 C 0.11792 0.91207 0.58226 0.0
C356 C 0.10056 1.00056 0.58143 0.0
C357 C 0.09245 1.00228 0.54544 0.0
C358 C 0.11005 0.94395 0.56973 0.0
C359 C 0.09452 0.97488 0.52204 0.0
C360 C 0.12166 0.88571 0.55809 0.0
C361 C 0.12918 0.87972 0.63106 0.0
N362 N 0.10298 0.9467 0.53463 0.0
N363 N 0.1216 0.90809 0.6179 0.0
H364 H 0.7773 0.38009 0.9076 0.0
H365 H 0.91391 0.56153 0.98103 0.0
H366 H 0.75313 0.47886 0.90446 0.0
H367 H 0.92839 0.45946 0.9949 0.0
H368 H 0.85645 0.53296 0.9513 0.0
H369 H 0.83382 0.40974 0.93737 0.0
C370 C 0.78361 0.408 0.91333 0.0
C371 C 0.75975 0.42671 0.90365 0.0
C372 C 0.87217 0.51683 0.96093 0.0
C373 C 0.82567 0.46136 0.93764 0.0
C374 C 0.90507 0.53314 0.978 0.0
C375 C 0.9263 0.51299 0.99071 0.0
C376 C 0.86031 0.48001 0.95619 0.0
C377 C 0.91317 0.47625 0.98575 0.0
C378 C 0.81621 0.42503 0.93025 0.0
C379 C 0.7705 0.46319 0.91108 0.0
N380 N 0.8813 0.46109 0.9689 0.0
N381 N 0.80249 0.47923 0.92764 0.0
H382 H 0.76024 0.6671 0.36121 0.0
H383 H 0.65407 0.62445 0.55276 0.0
H384 H 0.81113 0.69543 0.46295 0.0
H385 H 0.60057 0.59341 0.45276 0.0
H386 H 0.71242 0.64745 0.51963 0.0
H387 H 0.7024 0.63693 0.39333 0.0
C388 C 0.75939 0.66674 0.39026 0.0
C389 C 0.79065 0.68419 0.40935 0.0
C390 C 0.68805 0.63549 0.50479 0.0
C391 C 0.72437 0.64987 0.44631 0.0
C392 C 0.65467 0.6223 0.52375 0.0
C393 C 0.62239 0.6072 0.50548 0.0
C394 C 0.68935 0.6338 0.4671 0.0
C395 C 0.62484 0.60496 0.46787 0.0
C396 C 0.72628 0.64964 0.40858 0.0
C397 C 0.7877 0.683 0.44702 0.0
N398 N 0.65772 0.61834 0.44989 0.0
N399 N 0.75526 0.66633 0.46414 0.0
H400 H 0.30732 0.35224 0.13331 0.0
H401 H 0.19584 0.49209 0.13803 0.0
H402 H 0.32569 0.43709 0.21095 0.0
H403 H 0.15507 0.38824 0.09124 0.0
H404 H 0.24943 0.47719 0.15755 0.0
H405 H 0.25735 0.37026 0.10979 0.0
C406 C 0.30112 0.37493 0.14514 0.0
C407 C 0.32059 0.39329 0.17414 0.0
C408 C 0.22875 0.45771 0.14298 0.0
C409 C 0.26353 0.41391 0.14739 0.0
C410 C 0.19832 0.46623 0.13172 0.0
C411 C 0.171 0.44127 0.11315 0.0
C412 C 0.23211 0.42419 0.13511 0.0
C413 C 0.17536 0.40807 0.10584 0.0
C414 C 0.27246 0.38504 0.13184 0.0
C415 C 0.31125 0.42231 0.18856 0.0
N416 N 0.20542 0.40052 0.11673 0.0
N417 N 0.28335 0.43179 0.17502 0.0
H418 H 0.63489 0.29498 0.84361 0.0
H419 H 0.58098 0.16892 1.01658 0.0
H420 H 0.6593 0.33139 0.95207 0.0
H421 H 0.55879 0.13099 0.90831 0.0
H422 H 0.60948 0.22858 0.99334 0.0
H423 H 0.60552 0.23527 0.86652 0.0
C424 C 0.63385 0.2906 0.87223 0.0
C425 C 0.65002 0.31854 0.89576 0.0
C426 C 0.59847 0.20724 0.97458 0.0
C427 C 0.61656 0.24974 0.92233 0.0
C428 C 0.58229 0.17308 0.98789 0.0
C429 C 0.56743 0.14477 0.96442 0.0
C430 C 0.59987 0.2134 0.93742 0.0
C431 C 0.56987 0.15193 0.92746 0.0
C432 C 0.61728 0.25635 0.88531 0.0
C433 C 0.64793 0.31082 0.93265 0.0
N434 N 0.58561 0.18538 0.91517 0.0
N435 N 0.63172 0.2774 0.94466 0.0
H436 H 0.90937 0.82176 0.35567 0.0
H437 H 0.97677 0.92152 0.54151 0.0
H438 H 0.89671 0.77021 0.4579 0.0
H439 H 0.97005 0.97717 0.4454 0.0
H440 H 0.95264 0.8658 0.50942 0.0
H441 H 0.93759 0.87862 0.38585 0.0
C442 C 0.91298 0.82234 0.38434 0.0
C443 C 0.90049 0.79117 0.40429 0.0
C444 C 0.95634 0.89015 0.49527 0.0
C445 C 0.93251 0.85606 0.43904 0.0
C446 C 0.97014 0.92211 0.51365 0.0
C447 C 0.97533 0.9543 0.49631 0.0
C448 C 0.94781 0.89003 0.45899 0.0
C449 C 0.9663 0.9531 0.46003 0.0
C450 C 0.92878 0.85481 0.4016 0.0
C451 C 0.90558 0.79357 0.44146 0.0
N452 N 0.95308 0.92156 0.44258 0.0
N453 N 0.92108 0.82528 0.45752 0.0
H454 H 0.31436 0.83595 0.65516 0.0
H455 H 0.35594 0.67221 0.55714 0.0
H456 H 0.23056 0.74582 0.61561 0.0
H457 H 0.43762 0.75996 0.60382 0.0
H458 H 0.31099 0.70405 0.56685 0.0
H459 H 0.36083 0.8142 0.62462 0.0
C460 C 0.30581 0.81174 0.63962 0.0
C461 C 0.26874 0.79222 0.6384 0.0
C462 C 0.3389 0.71654 0.57443 0.0
C463 C 0.32165 0.76696 0.60368 0.0
C464 C 0.36453 0.69832 0.56905 0.0
C465 C 0.40046 0.71316 0.58027 0.0
C466 C 0.34926 0.74976 0.59128 0.0
C467 C 0.41029 0.74743 0.59472 0.0
C468 C 0.33229 0.79934 0.62215 0.0
C469 C 0.25894 0.76145 0.61736 0.0
N470 N 0.38471 0.76433 0.60026 0.0
N471 N 0.28532 0.74939 0.60128 0.0
H472 H 0.77965 0.81076 0.87017 0.0
H473 H 0.85079 0.89874 0.67967 0.0
H474 H 0.71 0.83919 0.79649 0.0
H475 H 0.92138 0.90098 0.76729 0.0
H476 H 0.79853 0.86503 0.71693 0.0
H477 H 0.83115 0.83139 0.82698 0.0
C478 C 0.77505 0.82074 0.8446 0.0
C479 C 0.74055 0.82343 0.83691 0.0
C480 C 0.82554 0.87266 0.72782 0.0
C481 C 0.7994 0.84736 0.78763 0.0
C482 C 0.8554 0.89205 0.70666 0.0
C483 C 0.89057 0.90331 0.72052 0.0
C484 C 0.83086 0.86415 0.76302 0.0
C485 C 0.8949 0.89285 0.75534 0.0
C486 C 0.8045 0.83274 0.82012 0.0
C487 C 0.73625 0.83702 0.80358 0.0
N488 N 0.86535 0.8741 0.77548 0.0
N489 N 0.7654 0.84864 0.78019 0.0
H490 H 0.66934 0.10042 0.41367 0.0
H491 H 0.65325 0.17365 0.21917 0.0
H492 H 0.66743 0.20626 0.39471 0.0
H493 H 0.64492 0.06525 0.23955 0.0
H494 H 0.65954 0.18642 0.28336 0.0
H495 H 0.66003 0.08684 0.34993 0.0
C496 C 0.66668 0.12069 0.39607 0.0
C497 C 0.66917 0.15449 0.40939 0.0
C498 C 0.65634 0.15984 0.2738 0.0
C499 C 0.65882 0.13931 0.33653 0.0
C500 C 0.6531 0.15263 0.23715 0.0
C501 C 0.64862 0.11837 0.22408 0.0
C502 C 0.65525 0.13261 0.2975 0.0
C503 C 0.64799 0.09196 0.24858 0.0
C504 C 0.66136 0.11296 0.35974 0.0
C505 C 0.66527 0.17975 0.38558 0.0
N506 N 0.65131 0.09965 0.28412 0.0
N507 N 0.66055 0.17172 0.35022 0.0
H508 H 0.42452 0.72073 0.32943 0.0
H509 H 0.48044 0.55946 0.40943 0.0
H510 H 0.39543 0.6166 0.28257 0.0
H511 H 0.47479 0.6474 0.47637 0.0
H512 H 0.45603 0.5838 0.36027 0.0
H513 H 0.44938 0.69843 0.38077 0.0
C514 C 0.4235 0.69329 0.32978 0.0
C515 C 0.40788 0.67055 0.30142 0.0
C516 C 0.46005 0.59787 0.38567 0.0
C517 C 0.43659 0.64488 0.36006 0.0
C518 C 0.47415 0.58397 0.4139 0.0
C519 C 0.47977 0.60121 0.44744 0.0
C520 C 0.45181 0.62979 0.39031 0.0
C521 C 0.47084 0.63297 0.45119 0.0
C522 C 0.43756 0.68053 0.3592 0.0
C523 C 0.40719 0.63516 0.30366 0.0
N524 N 0.45758 0.64631 0.42302 0.0
N525 N 0.42143 0.6236 0.33208 0.0
H526 H 0.21519 0.50561 0.82595 0.0
H527 H 0.03978 0.4938 0.95643 0.0
H528 H 0.11392 0.42171 0.81709 0.0
H529 H 0.13462 0.58535 0.94685 0.0
H530 H 0.06733 0.46401 0.90974 0.0
H531 H 0.18714 0.53214 0.87418 0.0
C532 C 0.18696 0.49272 0.83422 0.0
C533 C 0.16693 0.46144 0.8173 0.0
C534 C 0.08211 0.49057 0.91795 0.0
C535 C 0.13432 0.49179 0.87305 0.0
C536 C 0.06648 0.50753 0.94471 0.0
C537 C 0.08491 0.54218 0.95553 0.0
C538 C 0.11659 0.50828 0.90213 0.0
C539 C 0.11936 0.55871 0.93931 0.0
C540 C 0.17089 0.50794 0.8618 0.0
C541 C 0.13041 0.44591 0.82925 0.0
N542 N 0.134 0.54168 0.91359 0.0
N543 N 0.11529 0.4612 0.85642 0.0
H544 H 0.67339 0.87169 0.96502 0.0
H545 H 0.52714 0.96888 0.93123 0.0
H546 H 0.62192 0.85955 0.86315 0.0
H547 H 0.62376 1.0175 0.99089 0.0
H548 H 0.55445 0.92322 0.91015 0.0
H549 H 0.64735 0.9194 0.98078 0.0
C550 C 0.6563 0.87895 0.94617 0.0
C551 C 0.6496 0.86181 0.91286 0.0
C552 C 0.56969 0.9442 0.92752 0.0
C553 C 0.61971 0.91592 0.93064 0.0
C554 C 0.55421 0.9702 0.9395 0.0
C555 C 0.57324 0.99705 0.96278 0.0
C556 C 0.60387 0.94464 0.93974 0.0
C557 C 0.60817 0.99744 0.97282 0.0
C558 C 0.64174 0.90625 0.955 0.0
C559 C 0.62761 0.8723 0.8891 0.0
N560 N 0.62211 0.97134 0.96169 0.0
N561 N 0.61309 0.89857 0.89857 0.0
H562 H 0.76919 0.11411 0.59619 0.0
H563 H 0.96414 0.10649 0.51927 0.0
H564 H 0.82282 0.16915 0.5011 0.0
H565 H 0.89269 1.02572 0.58671 0.0
H566 H 0.91624 0.13528 0.5178 0.0
H567 H 0.81911 0.0878 0.60009 0.0
C568 C 0.79175 0.12099 0.57651 0.0
C569 C 0.7919 0.14344 0.54815 0.0
C570 C 0.91102 0.11116 0.53278 0.0
C571 C 0.84857 0.1137 0.55225 0.0
C572 C 0.93825 0.09471 0.53348 0.0
C573 C 0.93223 0.06372 0.55301 0.0
C574 C 0.87782 0.09672 0.55217 0.0
C575 C 0.89831 0.04953 0.57118 0.0
C576 C 0.81995 0.1058 0.57852 0.0
C577 C 0.82156 0.15158 0.52317 0.0
N578 N 0.87241 0.06631 0.57054 0.0
N579 N 0.84871 0.13666 0.52577 0.0
H580 H 0.28091 0.74954 0.16575 0.0
H581 H 0.14484 0.56641 0.09583 0.0
H582 H 0.30555 0.6513 0.17268 0.0
H583 H 0.13264 0.66842 0.076 0.0
H584 H 0.20146 0.5954 0.12672 0.0
H585 H 0.22441 0.7188 0.13659 0.0
C586 C 0.27459 0.72145 0.16105 0.0
C587 C 0.2987 0.70325 0.17134 0.0
C588 C 0.18642 0.61141 0.11553 0.0
C589 C 0.23286 0.66737 0.13794 0.0
C590 C 0.15402 0.59486 0.09775 0.0
C591 C 0.1337 0.61487 0.08296 0.0
C592 C 0.19864 0.64834 0.11894 0.0
C593 C 0.14717 0.65172 0.0867 0.0
C594 C 0.24206 0.70382 0.14441 0.0
C595 C 0.28801 0.66656 0.16533 0.0
N596 N 0.17851 0.6671 0.10429 0.0
N597 N 0.25606 0.6499 0.14892 0.0
H598 H 0.23729 0.41592 0.61355 0.0
H599 H 0.44971 0.52795 0.6168 0.0
H600 H 0.29284 0.45204 0.71166 0.0
H601 H 0.39251 0.48802 0.52047 0.0
H602 H 0.39212 0.50471 0.65206 0.0
H603 H 0.29308 0.44631 0.57929 0.0
C604 C 0.26127 0.4303 0.62795 0.0
C605 C 0.26038 0.43099 0.66565 0.0
C606 C 0.39212 0.50123 0.62319 0.0
C607 C 0.32481 0.46625 0.62629 0.0
C608 C 0.42497 0.51458 0.60304 0.0
C609 C 0.42592 0.50978 0.56564 0.0
C610 C 0.35996 0.48294 0.60581 0.0
C611 C 0.39308 0.49217 0.54924 0.0
C612 C 0.29317 0.4478 0.6083 0.0
C613 C 0.29219 0.45079 0.68268 0.0
N614 N 0.36159 0.4793 0.56939 0.0
N615 N 0.32317 0.46737 0.66291 0.0
H616 H 0.70015 0.65967 0.91248 0.0
H617 H 0.90195 0.7373 0.98559 0.0
H618 H 0.73952 0.76212 0.96256 0.0
H619 H 0.85286 0.6275 0.95935 0.0
H620 H 0.8443 0.74831 0.97319 0.0
H621 H 0.75752 0.64854 0.9258 0.0
C622 C 0.72087 0.67972 0.92644 0.0
C623 C 0.7151 0.71171 0.93658 0.0
C624 C 0.84614 0.7218 0.97022 0.0
C625 C 0.78085 0.69946 0.95157 0.0
C626 C 0.87908 0.71556 0.97705 0.0
C627 C 0.88217 0.68144 0.9735 0.0
C628 C 0.81617 0.69379 0.9594 0.0
C629 C 0.85155 0.65414 0.96276 0.0
C630 C 0.75355 0.67339 0.93404 0.0
C631 C 0.74279 0.73697 0.95444 0.0
N632 N 0.81989 0.66094 0.95596 0.0
N633 N 0.77457 0.73036 0.96123 0.0
H634 H 0.42322 0.83986 0.21963 0.0
H635 H 0.47169 0.95355 1.0377 0.0
H636 H 0.3974 0.79487 0.11424 0.0
H637 H 0.49384 0.99864 0.1435 0.0
H638 H 0.44463 0.89523 0.06493 0.0
H639 H 0.45071 0.89778 0.19213 0.0
C640 C 0.42358 0.84198 0.19072 0.0
C641 C 0.40759 0.81213 0.16943 0.0
C642 C 0.45533 0.91789 0.08222 0.0
C643 C 0.43886 0.87896 0.13752 0.0
C644 C 0.47067 0.95125 0.06664 0.0
C645 C 0.48512 0.98116 0.08827 0.0
C646 C 0.45443 0.91423 0.1198 0.0
C647 C 0.48308 0.97642 0.12567 0.0
C648 C 0.43906 0.87523 0.17499 0.0
C649 C 0.40871 0.81699 0.132 0.0
N650 N 0.46823 0.94378 0.14014 0.0
N651 N 0.42389 0.84953 0.11738 0.0
H652 H 0.14449 0.29232 0.72967 0.0
H653 H 0.10403 0.17473 0.54964 0.0
H654 H 0.16571 0.33392 0.6224 0.0
H655 H 0.06885 0.1313 0.65482 0.0
H656 H 0.12933 0.23265 0.57698 0.0
H657 H 0.11779 0.23309 0.70404 0.0
C658 C 0.1433 0.28914 0.70081 0.0
C659 C 0.15784 0.31831 0.67825 0.0
C660 C 0.11617 0.2105 0.5942 0.0
C661 C 0.12773 0.25041 0.64869 0.0
C662 C 0.1018 0.17722 0.57856 0.0
C663 C 0.08417 0.14781 0.59985 0.0
C664 C 0.11315 0.21481 0.6316 0.0
C665 C 0.0822 0.15308 0.63725 0.0
C666 C 0.12827 0.25525 0.68618 0.0
C667 C 0.15567 0.31232 0.64098 0.0
N668 N 0.09644 0.18586 0.6519 0.0
N669 N 0.14117 0.27924 0.6275 0.0
H670 H 0.60223 0.19378 0.51469 0.0
H671 H 0.65379 0.40105 0.52195 0.0
H672 H 0.71216 0.26203 0.52739 0.0
H673 H 0.54258 0.33248 0.52674 0.0
H674 H 0.67519 0.35053 0.53297 0.0
H675 H 0.579 0.24338 0.52912 0.0
C676 C 0.62136 0.21908 0.52143 0.0
C677 C 0.65913 0.22403 0.51946 0.0
C678 C 0.64606 0.34655 0.53219 0.0
C679 C 0.63298 0.28101 0.53514 0.0
C680 C 0.63388 0.37535 0.52567 0.0
C681 C 0.59644 0.37076 0.52285 0.0
C682 C 0.62062 0.31282 0.53535 0.0
C683 C 0.57172 0.3371 0.5286 0.0
C684 C 0.60815 0.2474 0.52958 0.0
C685 C 0.68282 0.25716 0.52862 0.0
N686 N 0.58428 0.30928 0.53397 0.0
N687 N 0.66941 0.28462 0.53534 0.0
loop_
_geom_bond_atom_site_label_1
_geom_bond_atom_site_label_2
_geom_bond_distance
_geom_bond_site_symmetry_2
_ccdc_geom_bond_type
H0 C5 0.930 . S
H1 C8 0.930 . S
H2 C10 0.930 . S
H3 C4 1.016 . S
C4 H3 1.016 . S
C4 N11 1.286 . S
C5 H0 0.930 . S
C5 C6 1.397 . S
C5 C7 1.361 . S
C6 C5 1.397 . S
C6 C10 1.390 . S
C7 C5 1.361 . S
C7 C8 1.393 . S
C7 N11 1.413 . S
C8 H1 0.930 . S
C8 C7 1.393 . S
C8 C9 1.399 . S
C9 C8 1.399 . S
C9 C10 1.381 . S
C10 H2 0.930 . S
C10 C6 1.390 . S
C10 C9 1.381 . S
N11 C4 1.286 . S
N11 C7 1.413 . S
H12 C17 0.930 . S
H13 C20 0.930 . S
H14 C22 0.930 . S
H15 C16 1.016 . S
C16 H15 1.016 . S
C16 N23 1.286 . S
C17 H12 0.930 . S
C17 C18 1.397 . S
C17 C19 1.361 . S
C18 C17 1.397 . S
C18 C22 1.390 . S
C19 C17 1.361 . S
C19 C20 1.393 . S
C19 N23 1.413 . S
C20 H13 0.930 . S
C20 C19 1.393 . S
C20 C21 1.399 . S
C21 C20 1.399 . S
C21 C22 1.381 . S
C22 H14 0.930 . S
C22 C18 1.390 . S
C22 C21 1.381 . S
N23 C16 1.286 . S
N23 C19 1.413 . S
H24 C29 0.930 . S
H25 C32 0.930 . S
H26 C34 0.930 . S
H27 C28 1.016 . S
C28 H27 1.016 . S
C28 N35 1.286 . S
C29 H24 0.930 . S
C29 C30 1.397 . S
C29 C31 1.361 . S
C30 C29 1.397 . S
C30 C34 1.390 . S
C31 C29 1.361 . S
C31 C32 1.393 . S
C31 N35 1.413 . S
C32 H25 0.930 . S
C32 C31 1.393 . S
C32 C33 1.399 . S
C33 C32 1.399 . S
C33 C34 1.381 . S
C34 H26 0.930 . S
C34 C30 1.390 . S
C34 C33 1.381 . S
N35 C28 1.286 . S
N35 C31 1.413 . S
H36 C41 0.930 . S
H37 C44 0.930 . S
H38 C46 0.930 . S
H39 C40 1.016 . S
C40 H39 1.016 . S
C40 N47 1.286 . S
C41 H36 0.930 . S
C41 C42 1.397 . S
C41 C43 1.361 . S
C42 C41 1.397 . S
C42 C46 1.390 . S
C43 C41 1.361 . S
C43 C44 1.393 . S
C43 N47 1.413 . S
C44 H37 0.930 . S
C44 C43 1.393 . S
C44 C45 1.399 . S
C45 C44 1.399 . S
C45 C46 1.381 . S
C46 H38 0.930 . S
C46 C42 1.390 . S
C46 C45 1.381 . S
N47 C40 1.286 . S
N47 C43 1.413 . S
H48 C53 0.930 . S
H49 C56 0.930 . S
H50 C58 0.930 . S
H51 C52 1.016 . S
C52 H51 1.016 . S
C52 N59 1.286 . S
C53 H48 0.930 . S
C53 C54 1.397 . S
C53 C55 1.361 . S
C54 C53 1.397 . S
C54 C58 1.390 . S
C55 C53 1.361 . S
C55 C56 1.393 . S
C55 N59 1.413 . S
C56 H49 0.930 . S
C56 C55 1.393 . S
C56 C57 1.399 . S
C57 C56 1.399 . S
C57 C58 1.381 . S
C58 H50 0.930 . S
C58 C54 1.390 . S
C58 C57 1.381 . S
N59 C52 1.286 . S
N59 C55 1.413 . S
H60 C65 0.930 . S
H61 C68 0.930 . S
H62 C70 0.930 . S
H63 C64 1.016 . S
C64 H63 1.016 . S
C64 N71 1.286 . S
C65 H60 0.930 . S
C65 C66 1.397 . S
C65 C67 1.361 . S
C66 C65 1.397 . S
C66 C70 1.390 . S
C67 C65 1.361 . S
C67 C68 1.393 . S
C67 N71 1.413 . S
C68 H61 0.930 . S
C68 C67 1.393 . S
C68 C69 1.399 . S
C69 C68 1.399 . S
C69 C70 1.381 . S
C70 H62 0.930 . S
C70 C66 1.390 . S
C70 C69 1.381 . S
N71 C64 1.286 . S
N71 C67 1.413 . S
H72 C77 0.930 . S
H73 C80 0.930 . S
H74 C82 0.930 . S
H75 C76 1.016 . S
C76 H75 1.016 . S
C76 N83 1.286 . S
C77 H72 0.930 . S
C77 C78 1.397 . S
C77 C79 1.361 . S
C78 C77 1.397 . S
C78 C82 1.390 . S
C79 C77 1.361 . S
C79 C80 1.393 . S
C79 N83 1.413 . S
C80 H73 0.930 . S
C80 C79 1.393 . S
C80 C81 1.399 . S
C81 C80 1.399 . S
C81 C82 1.381 . S
C82 H74 0.930 . S
C82 C78 1.390 . S
C82 C81 1.381 . S
N83 C76 1.286 . S
N83 C79 1.413 . S
H84 C89 0.930 . S
H85 C92 0.930 . S
H86 C94 0.930 . S
H87 C88 1.016 . S
C88 H87 1.016 . S
C88 N95 1.286 . S
C89 H84 0.930 . S
C89 C90 1.397 . S
C89 C91 1.361 . S
C90 C89 1.397 . S
C90 C94 1.390 . S
C91 C89 1.361 . S
C91 C92 1.393 . S
C91 N95 1.413 . S
C92 H85 0.930 . S
C92 C91 1.393 . S
C92 C93 1.399 . S
C93 C92 1.399 . S
C93 C94 1.381 . S
C94 H86 0.930 . S
C94 C90 1.390 . S
C94 C93 1.381 . S
N95 C88 1.286 . S
N95 C91 1.413 . S
La96 C98 2.928 . S
La96 O116 2.521 . S
La96 O117 2.628 . S
La96 O118 2.554 1_545 S
La96 O119 2.757 1_545 S
La96 O120 2.470 . S
La96 O125 2.482 1_455 S
La96 O127 2.503 1_445 S
La97 C107 2.943 . S
La97 O119 2.491 1_655 S
La97 O121 2.489 1_665 S
La97 O122 2.528 . S
La97 O123 2.647 . S
La97 O124 2.541 1_565 S
La97 O125 2.746 1_565 S
La97 O126 2.481 . S
C98 La96 2.928 . S
C98 C99 1.503 . S
C98 O116 1.261 . S
C98 O117 1.243 . S
C99 C98 1.503 . S
C99 C100 1.394 . S
C99 C104 1.373 . S
C100 C99 1.394 . S
C100 C101 1.380 . S
C100 H128 0.930 . S
C101 C100 1.380 . S
C101 C102 1.376 . S
C101 H129 0.930 . S
C102 C101 1.376 . S
C102 C103 1.370 . S
C103 C102 1.370 . S
C103 C104 1.396 . S
C103 H130 0.929 . S
C104 C99 1.373 . S
C104 C103 1.396 . S
C104 H131 0.929 . S
C105 O118 1.240 . S
C105 O119 1.289 . S
C106 O120 1.258 . S
C106 O121 1.256 . S
C107 La97 2.943 . S
C107 C108 1.503 . S
C107 O122 1.261 . S
C107 O123 1.243 . S
C108 C107 1.503 . S
C108 C109 1.394 . S
C108 C113 1.373 . S
C109 C108 1.394 . S
C109 C110 1.380 . S
C109 H132 0.930 . S
C110 C109 1.380 . S
C110 C111 1.376 . S
C110 H133 0.930 . S
C111 C110 1.376 . S
C111 C112 1.370 . S
C112 C111 1.370 . S
C112 C113 1.396 . S
C112 H134 0.929 . S
C113 C108 1.373 . S
C113 C112 1.396 . S
C113 H135 0.929 . S
C114 O124 1.240 . S
C114 O125 1.289 . S
C115 O126 1.258 . S
C115 O127 1.256 . S
O116 La96 2.521 . S
O116 C98 1.261 . S
O117 La96 2.628 . S
O117 C98 1.243 . S
O118 La96 2.554 1_565 S
O118 C105 1.240 . S
O119 La96 2.757 1_565 S
O119 La97 2.491 1_455 S
O119 C105 1.289 . S
O120 La96 2.470 . S
O120 C106 1.258 . S
O121 La97 2.489 1_445 S
O121 C106 1.256 . S
O122 La97 2.528 . S
O122 C107 1.261 . S
O123 La97 2.647 . S
O123 C107 1.243 . S
O124 La97 2.541 1_545 S
O124 C114 1.240 . S
O125 La96 2.482 1_655 S
O125 La97 2.746 1_545 S
O125 C114 1.289 . S
O126 La97 2.481 . S
O126 C115 1.258 . S
O127 La96 2.503 1_665 S
O127 C115 1.256 . S
H128 C100 0.930 . S
H129 C101 0.930 . S
H130 C103 0.929 . S
H131 C104 0.929 . S
H132 C109 0.930 . S
H133 C110 0.930 . S
H134 C112 0.929 . S
H135 C113 0.929 . S
La136 C138 2.928 . S
La136 O156 2.521 . S
La136 O157 2.628 . S
La136 O158 2.554 1_545 S
La136 O159 2.757 1_545 S
La136 O160 2.470 . S
La136 O165 2.481 . S
La136 O167 2.503 1_544 S
La137 C147 2.928 1_545 S
La137 O159 2.482 1_546 S
La137 O161 2.503 1_556 S
La137 O162 2.521 1_545 S
La137 O163 2.628 1_545 S
La137 O164 2.554 . S
La137 O165 2.757 1_556 S
La137 O166 2.470 1_545 S
C138 La136 2.928 . S
C138 C139 1.503 . S
C138 O156 1.261 . S
C138 O157 1.243 . S
C139 C138 1.503 . S
C139 C140 1.394 . S
C139 C144 1.373 . S
C140 C139 1.394 . S
C140 C141 1.380 . S
C140 H168 0.930 . S
C141 C140 1.380 . S
C141 C142 1.376 . S
C141 H169 0.930 . S
C142 C141 1.376 . S
C142 C143 1.370 . S
C143 C142 1.370 . S
C143 C144 1.396 . S
C143 H170 0.929 . S
C144 C139 1.373 . S
C144 C143 1.396 . S
C144 H171 0.929 . S
C145 O158 1.240 . S
C145 O159 1.289 . S
C146 O160 1.258 . S
C146 O161 1.256 . S
C147 La137 2.928 1_565 S
C147 C148 1.503 . S
C147 O162 1.261 . S
C147 O163 1.243 . S
C148 C147 1.503 . S
C148 C149 1.394 . S
C148 C153 1.373 . S
C149 C148 1.394 . S
C149 C150 1.380 . S
C149 H172 0.930 . S
C150 C149 1.380 . S
C150 C151 1.376 . S
C150 H173 0.930 . S
C151 C150 1.376 . S
C151 C152 1.370 . S
C152 C151 1.370 . S
C152 C153 1.396 . S
C152 H174 0.929 . S
C153 C148 1.373 . S
C153 C152 1.396 . S
C153 H175 0.929 . S
C154 O164 1.240 . S
C154 O165 1.291 1_556 S
C155 O166 1.258 . S
C155 O167 1.256 . S
O156 La136 2.521 . S
O156 C138 1.261 . S
O157 La136 2.628 . S
O157 C138 1.243 . S
O158 La136 2.554 1_565 S
O158 C145 1.240 . S
O159 La136 2.757 1_565 S
O159 La137 2.482 1_564 S
O159 C145 1.289 . S
O160 La136 2.470 . S
O160 C146 1.258 . S
O161 La137 2.503 1_554 S
O161 C146 1.256 . S
O162 La137 2.521 1_565 S
O162 C147 1.261 . S
O163 La137 2.628 1_565 S
O163 C147 1.243 . S
O164 La137 2.554 . S
O164 C154 1.240 . S
O165 La136 2.481 . S
O165 La137 2.757 1_554 S
O165 C154 1.291 1_554 S
O166 La137 2.470 1_565 S
O166 C155 1.258 . S
O167 La136 2.503 1_566 S
O167 C155 1.256 . S
H168 C140 0.930 . S
H169 C141 0.930 . S
H170 C143 0.929 . S
H171 C144 0.929 . S
H172 C149 0.930 . S
H173 C150 0.930 . S
H174 C152 0.929 . S
H175 C153 0.929 . S
La176 C178 2.928 . S
La176 O196 2.521 . S
La176 O197 2.628 . S
La176 O198 2.554 . S
La176 O199 2.757 . S
La176 O200 2.470 . S
La176 O205 2.482 . S
La176 O207 2.503 . S
La177 C187 2.928 . S
La177 O199 2.482 . S
La177 O201 2.503 . S
La177 O202 2.521 . S
La177 O203 2.628 . S
La177 O204 2.554 . S
La177 O205 2.757 . S
La177 O206 2.470 . S
C178 La176 2.928 . S
C178 C179 1.503 . S
C178 O196 1.261 . S
C178 O197 1.243 . S
C179 C178 1.503 . S
C179 C180 1.394 . S
C179 C184 1.373 . S
C180 C179 1.394 . S
C180 C181 1.380 . S
C180 H208 0.930 . S
C181 C180 1.380 . S
C181 C182 1.376 . S
C181 H209 0.930 . S
C182 C181 1.376 . S
C182 C183 1.370 . S
C183 C182 1.370 . S
C183 C184 1.396 . S
C183 H210 0.929 . S
C184 C179 1.373 . S
C184 C183 1.396 . S
C184 H211 0.929 . S
C185 O198 1.240 . S
C185 O199 1.289 . S
C186 O200 1.258 . S
C186 O201 1.256 . S
C187 La177 2.928 . S
C187 C188 1.503 . S
C187 O202 1.261 . S
C187 O203 1.243 . S
C188 C187 1.503 . S
C188 C189 1.394 . S
C188 C193 1.373 . S
C189 C188 1.394 . S
C189 C190 1.380 . S
C189 H212 0.930 . S
C190 C189 1.380 . S
C190 C191 1.376 . S
C190 H213 0.930 . S
C191 C190 1.376 . S
C191 C192 1.370 . S
C192 C191 1.370 . S
C192 C193 1.396 . S
C192 H214 0.929 . S
C193 C188 1.373 . S
C193 C192 1.396 . S
C193 H215 0.929 . S
C194 O204 1.240 . S
C194 O205 1.289 . S
C195 O206 1.258 . S
C195 O207 1.256 . S
O196 La176 2.521 . S
O196 C178 1.261 . S
O197 La176 2.628 . S
O197 C178 1.243 . S
O198 La176 2.554 . S
O198 C185 1.240 . S
O199 La176 2.757 . S
O199 La177 2.482 . S
O199 C185 1.289 . S
O200 La176 2.470 . S
O200 C186 1.258 . S
O201 La177 2.503 . S
O201 C186 1.256 . S
O202 La177 2.521 . S
O202 C187 1.261 . S
O203 La177 2.628 . S
O203 C187 1.243 . S
O204 La177 2.554 . S
O204 C194 1.240 . S
O205 La176 2.482 . S
O205 La177 2.757 . S
O205 C194 1.289 . S
O206 La177 2.470 . S
O206 C195 1.258 . S
O207 La176 2.503 . S
O207 C195 1.256 . S
H208 C180 0.930 . S
H209 C181 0.930 . S
H210 C183 0.929 . S
H211 C184 0.929 . S
H212 C189 0.930 . S
H213 C190 0.930 . S
H214 C192 0.929 . S
H215 C193 0.929 . S
La216 C218 2.928 . S
La216 O236 2.521 . S
La216 O237 2.628 . S
La216 O238 2.554 1_455 S
La216 O239 2.757 1_455 S
La216 O240 2.470 . S
La216 O245 2.482 1_554 S
La216 O247 2.503 1_454 S
La217 C227 2.928 1_455 S
La217 O239 2.482 1_456 S
La217 O241 2.503 1_556 S
La217 O242 2.521 1_455 S
La217 O243 2.628 1_455 S
La217 O244 2.554 . S
La217 O245 2.757 . S
La217 O246 2.470 1_455 S
C218 La216 2.928 . S
C218 C219 1.503 . S
C218 O236 1.261 . S
C218 O237 1.243 . S
C219 C218 1.503 . S
C219 C220 1.394 . S
C219 C224 1.373 . S
C220 C219 1.394 . S
C220 C221 1.380 . S
C220 H248 0.930 . S
C221 C220 1.380 . S
C221 C222 1.376 . S
C221 H249 0.930 . S
C222 C221 1.376 . S
C222 C223 1.370 . S
C223 C222 1.370 . S
C223 C224 1.396 . S
C223 H250 0.929 . S
C224 C219 1.373 . S
C224 C223 1.396 . S
C224 H251 0.929 . S
C225 O238 1.240 . S
C225 O239 1.289 . S
C226 O240 1.258 . S
C226 O241 1.256 . S
C227 La217 2.928 1_655 S
C227 C228 1.503 . S
C227 O242 1.261 . S
C227 O243 1.243 . S
C228 C227 1.503 . S
C228 C229 1.394 . S
C228 C233 1.373 . S
C229 C228 1.394 . S
C229 C230 1.380 . S
C229 H252 0.930 . S
C230 C229 1.380 . S
C230 C231 1.376 . S
C230 H253 0.930 . S
C231 C230 1.376 . S
C231 C232 1.370 . S
C232 C231 1.370 . S
C232 C233 1.396 . S
C232 H254 0.929 . S
C233 C228 1.373 . S
C233 C232 1.396 . S
C233 H255 0.929 . S
C234 O244 1.240 . S
C234 O245 1.289 . S
C235 O246 1.258 . S
C235 O247 1.256 . S
O236 La216 2.521 . S
O236 C218 1.261 . S
O237 La216 2.628 . S
O237 C218 1.243 . S
O238 La216 2.554 1_655 S
O238 C225 1.240 . S
O239 La216 2.757 1_655 S
O239 La217 2.482 1_654 S
O239 C225 1.289 . S
O240 La216 2.470 . S
O240 C226 1.258 . S
O241 La217 2.503 1_554 S
O241 C226 1.256 . S
O242 La217 2.521 1_655 S
O242 C227 1.261 . S
O243 La217 2.628 1_655 S
O243 C227 1.243 . S
O244 La217 2.554 . S
O244 C234 1.240 . S
O245 La216 2.482 1_556 S
O245 La217 2.757 . S
O245 C234 1.289 . S
O246 La217 2.470 1_655 S
O246 C235 1.258 . S
O247 La216 2.503 1_656 S
O247 C235 1.256 . S
H248 C220 0.930 . S
H249 C221 0.930 . S
H250 C223 0.929 . S
H251 C224 0.929 . S
H252 C229 0.930 . S
H253 C230 0.930 . S
H254 C232 0.929 . S
H255 C233 0.929 . S
H256 C262 0.930 . S
H257 C266 0.930 . S
H258 C271 0.929 . S
H259 C269 0.929 . S
H260 C264 0.929 . S
H261 C270 0.929 . S
C262 H256 0.930 . S
C262 C263 1.367 . S
C262 C270 1.378 . S
C263 C262 1.367 . S
C263 C271 1.433 . S
C264 H260 0.929 . S
C264 C266 1.378 . S
C264 C268 1.350 . S
C265 C268 1.463 . S
C265 C270 1.350 . S
C265 N273 1.427 . S
C266 H257 0.930 . S
C266 C264 1.378 . S
C266 C267 1.367 . S
C267 C266 1.367 . S
C267 C269 1.433 . S
C268 C264 1.350 . S
C268 C265 1.463 . S
C268 N272 1.427 . S
C269 H259 0.929 . S
C269 C267 1.433 . S
C269 N272 1.384 . S
C270 H261 0.929 . S
C270 C262 1.378 . S
C270 C265 1.350 . S
C271 H258 0.929 . S
C271 C263 1.433 . S
C271 N273 1.384 . S
N272 C268 1.427 . S
N272 C269 1.384 . S
N273 C265 1.427 . S
N273 C271 1.384 . S
H274 C280 0.930 . S
H275 C284 0.930 . S
H276 C289 0.929 . S
H277 C287 0.929 . S
H278 C282 0.929 . S
H279 C288 0.929 . S
C280 H274 0.930 . S
C280 C281 1.367 . S
C280 C288 1.378 . S
C281 C280 1.367 . S
C281 C289 1.433 . S
C282 H278 0.929 . S
C282 C284 1.378 . S
C282 C286 1.350 . S
C283 C286 1.463 . S
C283 C288 1.350 . S
C283 N291 1.427 . S
C284 H275 0.930 . S
C284 C282 1.378 . S
C284 C285 1.367 . S
C285 C284 1.367 . S
C285 C287 1.433 . S
C286 C282 1.350 . S
C286 C283 1.463 . S
C286 N290 1.427 . S
C287 H277 0.929 . S
C287 C285 1.433 . S
C287 N290 1.384 . S
C288 H279 0.929 . S
C288 C280 1.378 . S
C288 C283 1.350 . S
C289 H276 0.929 . S
C289 C281 1.433 . S
C289 N291 1.384 . S
N290 C286 1.427 . S
N290 C287 1.384 . S
N291 C283 1.427 . S
N291 C289 1.384 . S
H292 C298 0.930 . S
H293 C302 0.930 . S
H294 C307 0.929 . S
H295 C305 0.929 . S
H296 C300 0.929 . S
H297 C306 0.929 . S
C298 H292 0.930 . S
C298 C299 1.367 . S
C298 C306 1.378 . S
C299 C298 1.367 . S
C299 C307 1.433 . S
C300 H296 0.929 . S
C300 C302 1.378 . S
C300 C304 1.350 . S
C301 C304 1.463 . S
C301 C306 1.350 . S
C301 N309 1.427 . S
C302 H293 0.930 . S
C302 C300 1.378 . S
C302 C303 1.367 . S
C303 C302 1.367 . S
C303 C305 1.433 . S
C304 C300 1.350 . S
C304 C301 1.463 . S
C304 N308 1.427 . S
C305 H295 0.929 . S
C305 C303 1.433 . S
C305 N308 1.384 . S
C306 H297 0.929 . S
C306 C298 1.378 . S
C306 C301 1.350 . S
C307 H294 0.929 . S
C307 C299 1.433 . S
C307 N309 1.384 . S
N308 C304 1.427 . S
N308 C305 1.384 . S
N309 C301 1.427 . S
N309 C307 1.384 . S
H310 C316 0.930 . S
H311 C320 0.930 . S
H312 C325 0.929 . S
H313 C323 0.929 . S
H314 C318 0.929 . S
H315 C324 0.929 . S
C316 H310 0.930 . S
C316 C317 1.367 . S
C316 C324 1.378 . S
C317 C316 1.367 . S
C317 C325 1.433 . S
C318 H314 0.929 . S
C318 C320 1.378 . S
C318 C322 1.350 . S
C319 C322 1.463 . S
C319 C324 1.350 . S
C319 N327 1.427 . S
C320 H311 0.930 . S
C320 C318 1.378 . S
C320 C321 1.367 . S
C321 C320 1.367 . S
C321 C323 1.433 . S
C322 C318 1.350 . S
C322 C319 1.463 . S
C322 N326 1.427 . S
C323 H313 0.929 . S
C323 C321 1.433 . S
C323 N326 1.384 . S
C324 H315 0.929 . S
C324 C316 1.378 . S
C324 C319 1.350 . S
C325 H312 0.929 . S
C325 C317 1.433 . S
C325 N327 1.384 . S
N326 C322 1.427 . S
N326 C323 1.384 . S
N327 C319 1.427 . S
N327 C325 1.384 . S
H328 C334 0.930 . S
H329 C338 0.930 . S
H330 C343 0.929 . S
H331 C341 0.929 . S
H332 C336 0.929 . S
H333 C342 0.929 . S
C334 H328 0.930 . S
C334 C335 1.367 . S
C334 C342 1.378 . S
C335 C334 1.367 . S
C335 C343 1.433 . S
C336 H332 0.929 . S
C336 C338 1.378 . S
C336 C340 1.350 . S
C337 C340 1.463 . S
C337 C342 1.350 . S
C337 N345 1.427 . S
C338 H329 0.930 . S
C338 C336 1.378 . S
C338 C339 1.367 . S
C339 C338 1.367 . S
C339 C341 1.433 . S
C340 C336 1.350 . S
C340 C337 1.463 . S
C340 N344 1.427 . S
C341 H331 0.929 . S
C341 C339 1.433 . S
C341 N344 1.384 . S
C342 H333 0.929 . S
C342 C334 1.378 . S
C342 C337 1.350 . S
C343 H330 0.929 . S
C343 C335 1.433 . S
C343 N345 1.384 . S
N344 C340 1.427 . S
N344 C341 1.384 . S
N345 C337 1.427 . S
N345 C343 1.384 . S
H346 C352 0.930 . S
H347 C356 0.930 1_545 S
H348 C361 0.929 . S
H349 C359 0.929 . S
H350 C354 0.929 . S
H351 C360 0.929 . S
C352 H346 0.930 . S
C352 C353 1.367 . S
C352 C360 1.378 . S
C353 C352 1.367 . S
C353 C361 1.433 . S
C354 H350 0.929 . S
C354 C356 1.378 . S
C354 C358 1.350 . S
C355 C358 1.463 . S
C355 C360 1.350 . S
C355 N363 1.427 . S
C356 H347 0.930 1_565 S
C356 C354 1.378 . S
C356 C357 1.367 . S
C357 C356 1.367 . S
C357 C359 1.433 . S
C358 C354 1.350 . S
C358 C355 1.463 . S
C358 N362 1.427 . S
C359 H349 0.929 . S
C359 C357 1.433 . S
C359 N362 1.384 . S
C360 H351 0.929 . S
C360 C352 1.378 . S
C360 C355 1.350 . S
C361 H348 0.929 . S
C361 C353 1.433 . S
C361 N363 1.384 . S
N362 C358 1.427 . S
N362 C359 1.384 . S
N363 C355 1.427 . S
N363 C361 1.384 . S
H364 C370 0.930 . S
H365 C374 0.930 . S
H366 C379 0.929 . S
H367 C377 0.929 . S
H368 C372 0.929 . S
H369 C378 0.929 . S
C370 H364 0.930 . S
C370 C371 1.367 . S
C370 C378 1.378 . S
C371 C370 1.367 . S
C371 C379 1.433 . S
C372 H368 0.929 . S
C372 C374 1.378 . S
C372 C376 1.350 . S
C373 C376 1.463 . S
C373 C378 1.350 . S
C373 N381 1.427 . S
C374 H365 0.930 . S
C374 C372 1.378 . S
C374 C375 1.367 . S
C375 C374 1.367 . S
C375 C377 1.433 . S
C376 C372 1.350 . S
C376 C373 1.463 . S
C376 N380 1.427 . S
C377 H367 0.929 . S
C377 C375 1.433 . S
C377 N380 1.384 . S
C378 H369 0.929 . S
C378 C370 1.378 . S
C378 C373 1.350 . S
C379 H366 0.929 . S
C379 C371 1.433 . S
C379 N381 1.384 . S
N380 C376 1.427 . S
N380 C377 1.384 . S
N381 C373 1.427 . S
N381 C379 1.384 . S
H382 C388 0.930 . S
H383 C392 0.930 . S
H384 C397 0.929 . S
H385 C395 0.929 . S
H386 C390 0.929 . S
H387 C396 0.929 . S
C388 H382 0.930 . S
C388 C389 1.367 . S
C388 C396 1.378 . S
C389 C388 1.367 . S
C389 C397 1.433 . S
C390 H386 0.929 . S
C390 C392 1.378 . S
C390 C394 1.350 . S
C391 C394 1.463 . S
C391 C396 1.350 . S
C391 N399 1.427 . S
C392 H383 0.930 . S
C392 C390 1.378 . S
C392 C393 1.367 . S
C393 C392 1.367 . S
C393 C395 1.433 . S
C394 C390 1.350 . S
C394 C391 1.463 . S
C394 N398 1.427 . S
C395 H385 0.929 . S
C395 C393 1.433 . S
C395 N398 1.384 . S
C396 H387 0.929 . S
C396 C388 1.378 . S
C396 C391 1.350 . S
C397 H384 0.929 . S
C397 C389 1.433 . S
C397 N399 1.384 . S
N398 C394 1.427 . S
N398 C395 1.384 . S
N399 C391 1.427 . S
N399 C397 1.384 . S
H400 C406 0.930 . S
H401 C410 0.930 . S
H402 C415 0.929 . S
H403 C413 0.929 . S
H404 C408 0.929 . S
H405 C414 0.929 . S
C406 H400 0.930 . S
C406 C407 1.367 . S
C406 C414 1.378 . S
C407 C406 1.367 . S
C407 C415 1.433 . S
C408 H404 0.929 . S
C408 C410 1.378 . S
C408 C412 1.350 . S
C409 C412 1.463 . S
C409 C414 1.350 . S
C409 N417 1.427 . S
C410 H401 0.930 . S
C410 C408 1.378 . S
C410 C411 1.367 . S
C411 C410 1.367 . S
C411 C413 1.433 . S
C412 C408 1.350 . S
C412 C409 1.463 . S
C412 N416 1.427 . S
C413 H403 0.929 . S
C413 C411 1.433 . S
C413 N416 1.384 . S
C414 H405 0.929 . S
C414 C406 1.378 . S
C414 C409 1.350 . S
C415 H402 0.929 . S
C415 C407 1.433 . S
C415 N417 1.384 . S
N416 C412 1.427 . S
N416 C413 1.384 . S
N417 C409 1.427 . S
N417 C415 1.384 . S
H418 C424 0.930 . S
H419 C428 0.930 . S
H420 C433 0.929 . S
H421 C431 0.929 . S
H422 C426 0.929 . S
H423 C432 0.929 . S
C424 H418 0.930 . S
C424 C425 1.367 . S
C424 C432 1.378 . S
C425 C424 1.367 . S
C425 C433 1.433 . S
C426 H422 0.929 . S
C426 C428 1.378 . S
C426 C430 1.350 . S
C427 C430 1.463 . S
C427 C432 1.350 . S
C427 N435 1.427 . S
C428 H419 0.930 . S
C428 C426 1.378 . S
C428 C429 1.367 . S
C429 C428 1.367 . S
C429 C431 1.433 . S
C430 C426 1.350 . S
C430 C427 1.463 . S
C430 N434 1.427 . S
C431 H421 0.929 . S
C431 C429 1.433 . S
C431 N434 1.384 . S
C432 H423 0.929 . S
C432 C424 1.378 . S
C432 C427 1.350 . S
C433 H420 0.929 . S
C433 C425 1.433 . S
C433 N435 1.384 . S
N434 C430 1.427 . S
N434 C431 1.384 . S
N435 C427 1.427 . S
N435 C433 1.384 . S
H436 C442 0.930 . S
H437 C446 0.930 . S
H438 C451 0.929 . S
H439 C449 0.929 . S
H440 C444 0.929 . S
H441 C450 0.929 . S
C442 H436 0.930 . S
C442 C443 1.367 . S
C442 C450 1.378 . S
C443 C442 1.367 . S
C443 C451 1.433 . S
C444 H440 0.929 . S
C444 C446 1.378 . S
C444 C448 1.350 . S
C445 C448 1.463 . S
C445 C450 1.350 . S
C445 N453 1.427 . S
C446 H437 0.930 . S
C446 C444 1.378 . S
C446 C447 1.367 . S
C447 C446 1.367 . S
C447 C449 1.433 . S
C448 C444 1.350 . S
C448 C445 1.463 . S
C448 N452 1.427 . S
C449 H439 0.929 . S
C449 C447 1.433 . S
C449 N452 1.384 . S
C450 H441 0.929 . S
C450 C442 1.378 . S
C450 C445 1.350 . S
C451 H438 0.929 . S
C451 C443 1.433 . S
C451 N453 1.384 . S
N452 C448 1.427 . S
N452 C449 1.384 . S
N453 C445 1.427 . S
N453 C451 1.384 . S
H454 C460 0.930 . S
H455 C464 0.930 . S
H456 C469 0.929 . S
H457 C467 0.929 . S
H458 C462 0.929 . S
H459 C468 0.929 . S
C460 H454 0.930 . S
C460 C461 1.367 . S
C460 C468 1.378 . S
C461 C460 1.367 . S
C461 C469 1.433 . S
C462 H458 0.929 . S
C462 C464 1.378 . S
C462 C466 1.350 . S
C463 C466 1.463 . S
C463 C468 1.350 . S
C463 N471 1.427 . S
C464 H455 0.930 . S
C464 C462 1.378 . S
C464 C465 1.367 . S
C465 C464 1.367 . S
C465 C467 1.433 . S
C466 C462 1.350 . S
C466 C463 1.463 . S
C466 N470 1.427 . S
C467 H457 0.929 . S
C467 C465 1.433 . S
C467 N470 1.384 . S
C468 H459 0.929 . S
C468 C460 1.378 . S
C468 C463 1.350 . S
C469 H456 0.929 . S
C469 C461 1.433 . S
C469 N471 1.384 . S
N470 C466 1.427 . S
N470 C467 1.384 . S
N471 C463 1.427 . S
N471 C469 1.384 . S
H472 C478 0.930 . S
H473 C482 0.930 . S
H474 C487 0.929 . S
H475 C485 0.929 . S
H476 C480 0.929 . S
H477 C486 0.929 . S
C478 H472 0.930 . S
C478 C479 1.367 . S
C478 C486 1.378 . S
C479 C478 1.367 . S
C479 C487 1.433 . S
C480 H476 0.929 . S
C480 C482 1.378 . S
C480 C484 1.350 . S
C481 C484 1.463 . S
C481 C486 1.350 . S
C481 N489 1.427 . S
C482 H473 0.930 . S
C482 C480 1.378 . S
C482 C483 1.367 . S
C483 C482 1.367 . S
C483 C485 1.433 . S
C484 C480 1.350 . S
C484 C481 1.463 . S
C484 N488 1.427 . S
C485 H475 0.929 . S
C485 C483 1.433 . S
C485 N488 1.384 . S
C486 H477 0.929 . S
C486 C478 1.378 . S
C486 C481 1.350 . S
C487 H474 0.929 . S
C487 C479 1.433 . S
C487 N489 1.384 . S
N488 C484 1.427 . S
N488 C485 1.384 . S
N489 C481 1.427 . S
N489 C487 1.384 . S
H490 C496 0.930 . S
H491 C500 0.930 . S
H492 C505 0.929 . S
H493 C503 0.929 . S
H494 C498 0.929 . S
H495 C504 0.929 . S
C496 H490 0.930 . S
C496 C497 1.367 . S
C496 C504 1.378 . S
C497 C496 1.367 . S
C497 C505 1.433 . S
C498 H494 0.929 . S
C498 C500 1.378 . S
C498 C502 1.350 . S
C499 C502 1.463 . S
C499 C504 1.350 . S
C499 N507 1.427 . S
C500 H491 0.930 . S
C500 C498 1.378 . S
C500 C501 1.367 . S
C501 C500 1.367 . S
C501 C503 1.433 . S
C502 C498 1.350 . S
C502 C499 1.463 . S
C502 N506 1.427 . S
C503 H493 0.929 . S
C503 C501 1.433 . S
C503 N506 1.384 . S
C504 H495 0.929 . S
C504 C496 1.378 . S
C504 C499 1.350 . S
C505 H492 0.929 . S
C505 C497 1.433 . S
C505 N507 1.384 . S
N506 C502 1.427 . S
N506 C503 1.384 . S
N507 C499 1.427 . S
N507 C505 1.384 . S
H508 C514 0.930 . S
H509 C518 0.930 . S
H510 C523 0.929 . S
H511 C521 0.929 . S
H512 C516 0.929 . S
H513 C522 0.929 . S
C514 H508 0.930 . S
C514 C515 1.367 . S
C514 C522 1.378 . S
C515 C514 1.367 . S
C515 C523 1.433 . S
C516 H512 0.929 . S
C516 C518 1.378 . S
C516 C520 1.350 . S
C517 C520 1.463 . S
C517 C522 1.350 . S
C517 N525 1.427 . S
C518 H509 0.930 . S
C518 C516 1.378 . S
C518 C519 1.367 . S
C519 C518 1.367 . S
C519 C521 1.433 . S
C520 C516 1.350 . S
C520 C517 1.463 . S
C520 N524 1.427 . S
C521 H511 0.929 . S
C521 C519 1.433 . S
C521 N524 1.384 . S
C522 H513 0.929 . S
C522 C514 1.378 . S
C522 C517 1.350 . S
C523 H510 0.929 . S
C523 C515 1.433 . S
C523 N525 1.384 . S
N524 C520 1.427 . S
N524 C521 1.384 . S
N525 C517 1.427 . S
N525 C523 1.384 . S
H526 C532 0.930 . S
H527 C536 0.930 . S
H528 C541 0.929 . S
H529 C539 0.929 . S
H530 C534 0.929 . S
H531 C540 0.929 . S
C532 H526 0.930 . S
C532 C533 1.367 . S
C532 C540 1.378 . S
C533 C532 1.367 . S
C533 C541 1.433 . S
C534 H530 0.929 . S
C534 C536 1.378 . S
C534 C538 1.350 . S
C535 C538 1.463 . S
C535 C540 1.350 . S
C535 N543 1.427 . S
C536 H527 0.930 . S
C536 C534 1.378 . S
C536 C537 1.367 . S
C537 C536 1.367 . S
C537 C539 1.433 . S
C538 C534 1.350 . S
C538 C535 1.463 . S
C538 N542 1.427 . S
C539 H529 0.929 . S
C539 C537 1.433 . S
C539 N542 1.384 . S
C540 H531 0.929 . S
C540 C532 1.378 . S
C540 C535 1.350 . S
C541 H528 0.929 . S
C541 C533 1.433 . S
C541 N543 1.384 . S
N542 C538 1.427 . S
N542 C539 1.384 . S
N543 C535 1.427 . S
N543 C541 1.384 . S
H544 C550 0.930 . S
H545 C554 0.930 . S
H546 C559 0.929 . S
H547 C557 0.929 . S
H548 C552 0.929 . S
H549 C558 0.929 . S
C550 H544 0.930 . S
C550 C551 1.367 . S
C550 C558 1.378 . S
C551 C550 1.367 . S
C551 C559 1.433 . S
C552 H548 0.929 . S
C552 C554 1.378 . S
C552 C556 1.350 . S
C553 C556 1.463 . S
C553 C558 1.350 . S
C553 N561 1.427 . S
C554 H545 0.930 . S
C554 C552 1.378 . S
C554 C555 1.367 . S
C555 C554 1.367 . S
C555 C557 1.433 . S
C556 C552 1.350 . S
C556 C553 1.463 . S
C556 N560 1.427 . S
C557 H547 0.929 . S
C557 C555 1.433 . S
C557 N560 1.384 . S
C558 H549 0.929 . S
C558 C550 1.378 . S
C558 C553 1.350 . S
C559 H546 0.929 . S
C559 C551 1.433 . S
C559 N561 1.384 . S
N560 C556 1.427 . S
N560 C557 1.384 . S
N561 C553 1.427 . S
N561 C559 1.384 . S
H562 C568 0.930 . S
H563 C572 0.930 . S
H564 C577 0.929 . S
H565 C575 0.929 . S
H566 C570 0.929 . S
H567 C576 0.929 . S
C568 H562 0.930 . S
C568 C569 1.367 . S
C568 C576 1.378 . S
C569 C568 1.367 . S
C569 C577 1.433 . S
C570 H566 0.929 . S
C570 C572 1.378 . S
C570 C574 1.350 . S
C571 C574 1.463 . S
C571 C576 1.350 . S
C571 N579 1.427 . S
C572 H563 0.930 . S
C572 C570 1.378 . S
C572 C573 1.367 . S
C573 C572 1.367 . S
C573 C575 1.433 . S
C574 C570 1.350 . S
C574 C571 1.463 . S
C574 N578 1.427 . S
C575 H565 0.929 . S
C575 C573 1.433 . S
C575 N578 1.384 . S
C576 H567 0.929 . S
C576 C568 1.378 . S
C576 C571 1.350 . S
C577 H564 0.929 . S
C577 C569 1.433 . S
C577 N579 1.384 . S
N578 C574 1.427 . S
N578 C575 1.384 . S
N579 C571 1.427 . S
N579 C577 1.384 . S
H580 C586 0.930 . S
H581 C590 0.930 . S
H582 C595 0.929 . S
H583 C593 0.929 . S
H584 C588 0.929 . S
H585 C594 0.929 . S
C586 H580 0.930 . S
C586 C587 1.367 . S
C586 C594 1.378 . S
C587 C586 1.367 . S
C587 C595 1.433 . S
C588 H584 0.929 . S
C588 C590 1.378 . S
C588 C592 1.350 . S
C589 C592 1.463 . S
C589 C594 1.350 . S
C589 N597 1.427 . S
C590 H581 0.930 . S
C590 C588 1.378 . S
C590 C591 1.367 . S
C591 C590 1.367 . S
C591 C593 1.433 . S
C592 C588 1.350 . S
C592 C589 1.463 . S
C592 N596 1.427 . S
C593 H583 0.929 . S
C593 C591 1.433 . S
C593 N596 1.384 . S
C594 H585 0.929 . S
C594 C586 1.378 . S
C594 C589 1.350 . S
C595 H582 0.929 . S
C595 C587 1.433 . S
C595 N597 1.384 . S
N596 C592 1.427 . S
N596 C593 1.384 . S
N597 C589 1.427 . S
N597 C595 1.384 . S
H598 C604 0.930 . S
H599 C608 0.930 . S
H600 C613 0.929 . S
H601 C611 0.929 . S
H602 C606 0.929 . S
H603 C612 0.929 . S
C604 H598 0.930 . S
C604 C605 1.367 . S
C604 C612 1.378 . S
C605 C604 1.367 . S
C605 C613 1.433 . S
C606 H602 0.929 . S
C606 C608 1.378 . S
C606 C610 1.350 . S
C607 C610 1.463 . S
C607 C612 1.350 . S
C607 N615 1.427 . S
C608 H599 0.930 . S
C608 C606 1.378 . S
C608 C609 1.367 . S
C609 C608 1.367 . S
C609 C611 1.433 . S
C610 C606 1.350 . S
C610 C607 1.463 . S
C610 N614 1.427 . S
C611 H601 0.929 . S
C611 C609 1.433 . S
C611 N614 1.384 . S
C612 H603 0.929 . S
C612 C604 1.378 . S
C612 C607 1.350 . S
C613 H600 0.929 . S
C613 C605 1.433 . S
C613 N615 1.384 . S
N614 C610 1.427 . S
N614 C611 1.384 . S
N615 C607 1.427 . S
N615 C613 1.384 . S
H616 C622 0.930 . S
H617 C626 0.930 . S
H618 C631 0.929 . S
H619 C629 0.929 . S
H620 C624 0.929 . S
H621 C630 0.929 . S
C622 H616 0.930 . S
C622 C623 1.367 . S
C622 C630 1.378 . S
C623 C622 1.367 . S
C623 C631 1.433 . S
C624 H620 0.929 . S
C624 C626 1.378 . S
C624 C628 1.350 . S
C625 C628 1.463 . S
C625 C630 1.350 . S
C625 N633 1.427 . S
C626 H617 0.930 . S
C626 C624 1.378 . S
C626 C627 1.367 . S
C627 C626 1.367 . S
C627 C629 1.433 . S
C628 C624 1.350 . S
C628 C625 1.463 . S
C628 N632 1.427 . S
C629 H619 0.929 . S
C629 C627 1.433 . S
C629 N632 1.384 . S
C630 H621 0.929 . S
C630 C622 1.378 . S
C630 C625 1.350 . S
C631 H618 0.929 . S
C631 C623 1.433 . S
C631 N633 1.384 . S
N632 C628 1.427 . S
N632 C629 1.384 . S
N633 C625 1.427 . S
N633 C631 1.384 . S
H634 C640 0.930 . S
H635 C644 0.930 . S
H636 C649 0.929 . S
H637 C647 0.929 . S
H638 C642 0.929 . S
H639 C648 0.929 . S
C640 H634 0.930 . S
C640 C641 1.367 . S
C640 C648 1.378 . S
C641 C640 1.367 . S
C641 C649 1.433 . S
C642 H638 0.929 . S
C642 C644 1.378 . S
C642 C646 1.350 . S
C643 C646 1.463 . S
C643 C648 1.350 . S
C643 N651 1.427 . S
C644 H635 0.930 . S
C644 C642 1.378 . S
C644 C645 1.367 . S
C645 C644 1.367 . S
C645 C647 1.433 . S
C646 C642 1.350 . S
C646 C643 1.463 . S
C646 N650 1.427 . S
C647 H637 0.929 . S
C647 C645 1.433 . S
C647 N650 1.384 . S
C648 H639 0.929 . S
C648 C640 1.378 . S
C648 C643 1.350 . S
C649 H636 0.929 . S
C649 C641 1.433 . S
C649 N651 1.384 . S
N650 C646 1.427 . S
N650 C647 1.384 . S
N651 C643 1.427 . S
N651 C649 1.384 . S
H652 C658 0.930 . S
H653 C662 0.930 . S
H654 C667 0.929 . S
H655 C665 0.929 . S
H656 C660 0.929 . S
H657 C666 0.929 . S
C658 H652 0.930 . S
C658 C659 1.367 . S
C658 C666 1.378 . S
C659 C658 1.367 . S
C659 C667 1.433 . S
C660 H656 0.929 . S
C660 C662 1.378 . S
C660 C664 1.350 . S
C661 C664 1.463 . S
C661 C666 1.350 . S
C661 N669 1.427 . S
C662 H653 0.930 . S
C662 C660 1.378 . S
C662 C663 1.367 . S
C663 C662 1.367 . S
C663 C665 1.433 . S
C664 C660 1.350 . S
C664 C661 1.463 . S
C664 N668 1.427 . S
C665 H655 0.929 . S
C665 C663 1.433 . S
C665 N668 1.384 . S
C666 H657 0.929 . S
C666 C658 1.378 . S
C666 C661 1.350 . S
C667 H654 0.929 . S
C667 C659 1.433 . S
C667 N669 1.384 . S
N668 C664 1.427 . S
N668 C665 1.384 . S
N669 C661 1.427 . S
N669 C667 1.384 . S
H670 C676 0.930 . S
H671 C680 0.930 . S
H672 C685 0.929 . S
H673 C683 0.929 . S
H674 C678 0.929 . S
H675 C684 0.929 . S
C676 H670 0.930 . S
C676 C677 1.367 . S
C676 C684 1.378 . S
C677 C676 1.367 . S
C677 C685 1.433 . S
C678 H674 0.929 . S
C678 C680 1.378 . S
C678 C682 1.350 . S
C679 C682 1.463 . S
C679 C684 1.350 . S
C679 N687 1.427 . S
C680 H671 0.930 . S
C680 C678 1.378 . S
C680 C681 1.367 . S
C681 C680 1.367 . S
C681 C683 1.433 . S
C682 C678 1.350 . S
C682 C679 1.463 . S
C682 N686 1.427 . S
C683 H673 0.929 . S
C683 C681 1.433 . S
C683 N686 1.384 . S
C684 H675 0.929 . S
C684 C676 1.378 . S
C684 C679 1.350 . S
C685 H672 0.929 . S
C685 C677 1.433 . S
C685 N687 1.384 . S
N686 C682 1.427 . S
N686 C683 1.384 . S
N687 C679 1.427 . S
N687 C685 1.384 . S
C263 C6 1.032 . S
C267 C102 1.051 . S
C281 C18 1.234 . S
C285 C151 1.226 . S
C303 C186 2.592 . S
C299 C28 2.655 . S
C317 C40 1.818 . S
C321 C225 1.771 . S
C339 C146 2.313 . S
C335 C9 2.218 . S
C357 C105 0.819 . S
C353 C16 0.829 . S
C375 C235 1.887 . S
C371 C30 1.930 . S
C393 C194 1.311 . S
C389 C42 1.344 . S
C407 C4 1.452 . S
C411 C222 1.481 . S
C429 C154 2.514 . S
C425 C33 2.605 . S
C443 C45 2.085 . S
C447 C115 2.066 . S
C461 C21 1.025 . S
C465 C191 1.035 . S
C483 C111 1.072 . S
C479 C57 1.048 . S
C497 C66 1.259 . S
C501 C142 1.246 . S
C515 C76 2.704 . S
C519 C195 2.633 . S
C533 C88 1.751 . S
C537 C234 1.711 . S
C551 C54 2.198 . S
C555 C155 2.301 . S
C573 C114 0.935 . S
C569 C64 0.950 . S
C591 C226 1.796 . S
C587 C78 1.848 . S
C609 C185 1.359 . S
C605 C93 1.380 . S
C623 C52 1.426 . S
C627 C231 1.491 . S
C645 C145 2.506 . S
C641 C81 2.596 . S
C663 C106 2.049 . S
C659 C90 2.063 . S
C677 C69 1.011 . S
C681 C182 1.045 . S
