# Generated by pormake.
# Topology zzz, (3,6)-cn, num edge types: 1
# Building blocks:
#     Node 0, Type 0, BuildingBlock: BETDIP_clean_linker_0, # of connection points: 3
#     Node 1, Type 0, BuildingBlock: BETDIP_clean_linker_0, # of connection points: 3
#     Node 2, Type 0, BuildingBlock: BETDIP_clean_linker_0, # of connection points: 3
#     Node 3, Type 0, BuildingBlock: BETDIP_clean_linker_0, # of connection points: 3
#     Node 4, Type 0, BuildingBlock: BETDIP_clean_linker_0, # of connection points: 3
#     Node 5, Type 0, BuildingBlock: BETDIP_clean_linker_0, # of connection points: 3
#     Node 6, Type 0, BuildingBlock: BETDIP_clean_linker_0, # of connection points: 3
#     Node 7, Type 0, BuildingBlock: BETDIP_clean_linker_0, # of connection points: 3
#     Node 8, Type 1, BuildingBlock: KUMBUR_clean_sbu_0, # of connection points: 6
#     Node 9, Type 1, BuildingBlock: KUMBUR_clean_sbu_0, # of connection points: 6
#     Node 10, Type 1, BuildingBlock: KUMBUR_clean_sbu_0, # of connection points: 6
#     Node 11, Type 1, BuildingBlock: KUMBUR_clean_sbu_0, # of connection points: 6
#     Edge 12, Type (0, 1), BuildingBlock: ZUJKAS_clean_linker_0, # of connection points: 2
#     Edge 13, Type (0, 1), BuildingBlock: ZUJKAS_clean_linker_0, # of connection points: 2
#     Edge 14, Type (0, 1), BuildingBlock: ZUJKAS_clean_linker_0, # of connection points: 2
#     Edge 15, Type (0, 1), BuildingBlock: ZUJKAS_clean_linker_0, # of connection points: 2
#     Edge 16, Type (0, 1), BuildingBlock: ZUJKAS_clean_linker_0, # of connection points: 2
#     Edge 17, Type (0, 1), BuildingBlock: ZUJKAS_clean_linker_0, # of connection points: 2
#     Edge 18, Type (0, 1), BuildingBlock: ZUJKAS_clean_linker_0, # of connection points: 2
#     Edge 19, Type (0, 1), BuildingBlock: ZUJKAS_clean_linker_0, # of connection points: 2
#     Edge 20, Type (0, 1), BuildingBlock: ZUJKAS_clean_linker_0, # of connection points: 2
#     Edge 21, Type (0, 1), BuildingBlock: ZUJKAS_clean_linker_0, # of connection points: 2
#     Edge 22, Type (0, 1), BuildingBlock: ZUJKAS_clean_linker_0, # of connection points: 2
#     Edge 23, Type (0, 1), BuildingBlock: ZUJKAS_clean_linker_0, # of connection points: 2
#     Edge 24, Type (0, 1), BuildingBlock: ZUJKAS_clean_linker_0, # of connection points: 2
#     Edge 25, Type (0, 1), BuildingBlock: ZUJKAS_clean_linker_0, # of connection points: 2
#     Edge 26, Type (0, 1), BuildingBlock: ZUJKAS_clean_linker_0, # of connection points: 2
#     Edge 27, Type (0, 1), BuildingBlock: ZUJKAS_clean_linker_0, # of connection points: 2
#     Edge 28, Type (0, 1), BuildingBlock: ZUJKAS_clean_linker_0, # of connection points: 2
#     Edge 29, Type (0, 1), BuildingBlock: ZUJKAS_clean_linker_0, # of connection points: 2
#     Edge 30, Type (0, 1), BuildingBlock: ZUJKAS_clean_linker_0, # of connection points: 2
#     Edge 31, Type (0, 1), BuildingBlock: ZUJKAS_clean_linker_0, # of connection points: 2
#     Edge 32, Type (0, 1), BuildingBlock: ZUJKAS_clean_linker_0, # of connection points: 2
#     Edge 33, Type (0, 1), BuildingBlock: ZUJKAS_clean_linker_0, # of connection points: 2
#     Edge 34, Type (0, 1), BuildingBlock: ZUJKAS_clean_linker_0, # of connection points: 2
#     Edge 35, Type (0, 1), BuildingBlock: ZUJKAS_clean_linker_0, # of connection points: 2
# Relax obj value: 0.146
# Max RMSD: 0.151
# Mean RMSD: 0.112
data_MOF--net-zzz--node1-KUMBUR_clean_sbu_0--node2-BETDIP_clean_linker_0--edge1-ZUJKAS_clean_linker_0
_symmetry_space_group_name_H-M    P1
_symmetry_Int_Tables_number       1
_symmetry_cell_setting            triclinic
loop_
_symmetry_equiv_pos_as_xyz
'x, y, z'
_cell_length_a     65.633946
_cell_length_b     65.416569
_cell_length_c     18.874549
_cell_angle_alpha  90.637103
_cell_angle_beta   90.043127
_cell_angle_gamma 89.963674
loop_
_atom_site_label
_atom_site_type_symbol
_atom_site_fract_x
_atom_site_fract_y
_atom_site_fract_z
_atom_type_partial_charge
H0 H 0.77193 0.54207 0.24156 0.0
H1 H 0.75692 0.57121 0.04484 0.0
H2 H 0.81751 0.57587 0.12655 0.0
H3 H 0.72671 0.57971 0.14101 0.0
C4 C 0.72464 0.56336 0.13255 0.0
C5 C 0.77637 0.55162 0.19771 0.0
C6 C 0.79684 0.55832 0.19128 0.0
C7 C 0.76166 0.55704 0.14625 0.0
C8 C 0.76772 0.5683 0.08705 0.0
C9 C 0.78786 0.5748 0.07968 0.0
C10 C 0.802 0.57056 0.13305 0.0
N11 N 0.74109 0.55013 0.15067 0.0
H12 H 0.01252 0.77917 0.22271 0.0
H13 H 0.97585 0.76373 0.04027 0.0
H14 H 0.97051 0.82307 0.1349 0.0
H15 H 0.97322 0.73256 0.12698 0.0
C16 C 0.98936 0.73108 0.11492 0.0
C17 C 1.00077 0.78323 0.18509 0.0
C18 C 0.99247 0.80335 0.18566 0.0
C19 C 0.99403 0.76845 0.13441 0.0
C20 C 0.97985 0.7743 0.08267 0.0
C21 C 0.97168 0.794 0.08242 0.0
C22 C 0.97722 0.80793 0.13574 0.0
N23 N 1.00223 0.74815 0.1316 0.0
H24 H 0.76625 1.00871 0.24573 0.0
H25 H 0.76968 0.96811 0.06438 0.0
H26 H 0.71464 0.97177 0.18683 0.0
H27 H 0.80408 0.96456 0.12804 0.0
C28 C 0.80648 0.98073 0.11822 0.0
C29 C 0.7594 0.99718 0.21165 0.0
C30 C 0.7392 0.99068 0.22416 0.0
C31 C 0.77082 0.98849 0.15526 0.0
C32 C 0.76144 0.97407 0.10987 0.0
C33 C 0.74121 0.96798 0.12085 0.0
C34 C 0.73045 0.97602 0.17893 0.0
N35 N 0.79128 0.99487 0.14196 0.0
H36 H 0.55312 0.78354 0.30156 0.0
H37 H 0.53558 0.78775 0.08166 0.0
H38 H 0.52489 0.73235 0.19524 0.0
H39 H 0.57205 0.80454 0.09637 0.0
C40 C 0.5637 0.81571 0.12812 0.0
C41 C 0.54649 0.77673 0.25434 0.0
C42 C 0.53913 0.75643 0.25573 0.0
C43 C 0.5454 0.7881 0.19103 0.0
C44 C 0.53669 0.77909 0.13013 0.0
C45 C 0.52942 0.75899 0.1313 0.0
C46 C 0.53066 0.74788 0.19411 0.0
N47 N 0.55271 0.80862 0.18826 0.0
H48 H 0.27674 0.51303 1.00813 0.0
H49 H 0.28169 0.48126 0.2068 0.0
H50 H 0.2273 0.47568 0.08264 0.0
H51 H 0.29587 0.51622 0.22826 0.0
C52 C 0.30777 0.5128 0.1898 0.0
C53 C 0.27055 0.50257 0.04662 0.0
C54 C 0.25066 0.49458 0.03735 0.0
C55 C 0.28196 0.49778 0.10803 0.0
C56 C 0.27335 0.48482 0.15892 0.0
C57 C 0.25387 0.47666 0.14925 0.0
C58 C 0.24276 0.48136 0.08832 0.0
N59 N 0.3017 0.5064 0.12029 0.0
H60 H 0.03575 0.2651 0.01334 0.0
H61 H 0.04621 0.27351 0.23757 0.0
H62 H 0.04654 0.21331 0.14884 0.0
H63 H 0.01265 0.29295 0.2037 0.0
C64 C 0.02322 0.30276 0.1755 0.0
C65 C 0.03892 0.25868 0.06479 0.0
C66 C 0.04186 0.23718 0.07182 0.0
C67 C 0.03982 0.27185 0.12536 0.0
C68 C 0.04474 0.26356 0.19152 0.0
C69 C 0.04725 0.24258 0.19944 0.0
C70 C 0.04524 0.2296 0.14046 0.0
N71 N 0.0355 0.29329 0.12165 0.0
H72 H 0.27705 0.04006 1.00137 0.0
H73 H 0.27564 0.07391 0.19884 0.0
H74 H 0.32885 0.07581 0.06714 0.0
H75 H 0.25966 0.04091 0.22558 0.0
C76 C 0.24778 0.04354 0.18651 0.0
C77 C 0.28413 0.05056 0.03866 0.0
C78 C 0.30409 0.05779 0.02599 0.0
C79 C 0.2737 0.05634 0.10133 0.0
C80 C 0.2834 0.06946 0.15042 0.0
C81 C 0.3032 0.07666 0.13826 0.0
C82 C 0.31322 0.07101 0.0755 0.0
N83 N 0.25378 0.04861 0.11608 0.0
H84 H 0.49955 0.27019 0.97361 0.0
H85 H 0.47685 0.26411 0.18614 0.0
H86 H 0.47492 0.32248 0.08355 0.0
H87 H 0.51385 0.24793 0.17812 0.0
C88 C 0.50606 0.23674 0.14473 0.0
C89 C 0.49234 0.27684 0.02002 0.0
C90 C 0.48672 0.29771 0.02069 0.0
C91 C 0.48907 0.26477 0.08063 0.0
C92 C 0.47978 0.2736 0.14062 0.0
C93 C 0.47462 0.2944 0.14289 0.0
C94 C 0.47806 0.30622 0.08226 0.0
N95 N 0.49572 0.24401 0.08333 0.0
Tb96 Tb 0.03598 0.01944 0.68347 0.0
C97 C 0.96273 1.00592 0.48766 0.0
C98 C 0.97185 0.97632 0.41615 0.0
C99 C 0.93623 0.98359 0.44056 0.0
C100 C 0.97751 0.9934 0.45808 0.0
C101 C 0.94189 1.00146 0.47747 0.0
C102 C 0.95119 0.97106 0.40982 0.0
C103 C 0.93383 0.03394 0.53253 0.0
N104 N 0.96878 0.02329 0.52186 0.0
C105 C 0.95466 0.03775 0.54122 0.0
C106 C 0.9274 0.01555 0.50181 0.0
Tb107 Tb 1.00334 0.02752 0.53379 0.0
N108 N 0.99732 0.99913 0.46446 0.0
C109 C 1.01188 0.98987 0.42312 0.0
C110 C 0.98699 0.96575 0.37863 0.0
C111 C 1.00701 0.97288 0.38076 0.0
H112 H 0.95917 0.05215 0.56448 0.0
H113 H 0.01874 0.96524 0.35007 0.0
H114 H 0.94657 0.95781 0.3788 0.0
H115 H 0.92274 0.04522 0.54955 0.0
H116 H 0.0274 0.99524 0.42347 0.0
H117 H 1.00999 0.06748 0.90316 0.0
H118 H 0.98327 0.95259 0.34576 0.0
H119 H 0.08391 1.00849 0.63854 0.0
H120 H 1.00786 0.03881 0.82046 0.0
H121 H 0.11772 0.0248 0.64907 0.0
H122 H 0.9203 0.97978 0.43297 0.0
H123 H 0.04036 0.08979 0.90463 0.0
H124 H 0.0758 0.0965 0.86107 0.0
H125 H 0.91125 1.01271 0.49487 0.0
H126 H 0.10543 0.08471 0.79203 0.0
N127 N 0.03638 0.04478 0.76977 0.0
C128 C 0.02115 0.04827 0.81808 0.0
C129 C 0.03951 0.07712 0.86725 0.0
C130 C 0.05578 0.07251 0.82225 0.0
C131 C 0.02237 0.06457 0.86656 0.0
C132 C 0.05387 0.05582 0.7746 0.0
H133 H 0.12141 0.05756 0.71465 0.0
N134 N 0.06849 0.03202 0.6964 0.0
C135 C 0.10455 0.0319 0.67358 0.0
C136 C 0.07053 0.04921 0.73632 0.0
C137 C 0.0854 0.02266 0.66806 0.0
C138 C 0.10655 0.05044 0.71029 0.0
C139 C 0.08952 0.05908 0.7437 0.0
O140 O 0.05529 1.00168 0.74709 0.0
O141 O 0.01922 1.00486 0.59746 0.0
O142 O 0.98343 0.01522 0.61615 0.0
O143 O 1.00353 0.02074 0.71745 0.0
O144 O 0.04805 0.9946 0.61676 0.0
O145 O 0.02298 0.99728 0.74997 0.0
O146 O 1.00181 0.03119 0.42331 0.0
O147 O 0.0206 0.04123 0.61955 0.0
O148 O 0.05285 0.03513 0.59869 0.0
O149 O 0.03527 0.02384 0.49968 0.0
O150 O 0.99362 0.05481 0.59516 0.0
O151 O 1.00527 0.05722 0.49137 0.0
C152 C 0.03191 0.99104 0.58023 0.0
C153 C 0.04346 0.96754 0.74491 0.0
C154 C 0.0283 0.93418 0.71789 0.0
C155 C 0.02683 0.95404 0.74718 0.0
C156 C 0.04676 0.92804 0.68625 0.0
C157 C 0.06201 0.96064 0.71585 0.0
C158 C 0.06354 0.94108 0.68633 0.0
C159 C 0.98586 0.01607 0.68603 0.0
C160 C 0.04067 0.98937 0.76457 0.0
C161 C 0.09107 0.07669 0.78659 0.0
C162 C 0.0742 0.0834 0.82587 0.0
C163 C 1.00901 0.05583 0.63742 0.0
C164 C 0.02494 0.0563 0.38595 0.0
C165 C 0.03771 0.07211 0.41041 0.0
C166 C 0.05591 0.07675 0.37482 0.0
C167 C 0.0612 0.06538 0.31387 0.0
C168 C 0.03041 0.04532 0.32438 0.0
C169 C 0.04847 0.04983 0.28885 0.0
C170 C 0.05186 0.03143 0.5297 0.0
C171 C 1.00669 0.05035 0.42681 0.0
H172 H 0.01275 0.95912 0.77155 0.0
H173 H 0.0483 0.91315 0.66122 0.0
H174 H 0.07516 0.9706 0.71328 0.0
H175 H 0.0777 0.93614 0.66225 0.0
H176 H 0.03333 0.081 0.45673 0.0
H177 H 0.07512 0.06855 0.28534 0.0
H178 H 0.02091 0.03303 0.30431 0.0
H179 H 0.05267 0.04115 0.24192 0.0
Tb180 Tb 0.52595 0.04574 0.69144 0.0
C181 C 0.5464 0.96503 0.53859 0.0
C182 C 0.56728 0.97331 0.4375 0.0
C183 C 0.57014 0.93983 0.49111 0.0
C184 C 0.55263 0.97893 0.48881 0.0
C185 C 0.55486 0.94521 0.53993 0.0
C186 C 0.57624 0.95382 0.43967 0.0
C187 C 0.53111 0.93686 0.63283 0.0
N188 N 0.53131 0.97064 0.58369 0.0
C189 C 0.52301 0.95658 0.62869 0.0
C190 C 0.54727 0.9312 0.58878 0.0
Tb191 Tb 0.51878 1.00323 0.57238 0.0
N192 N 0.54353 0.99757 0.48829 0.0
C193 C 0.5479 1.01098 0.43527 0.0
C194 C 0.57209 0.98724 0.38444 0.0
C195 C 0.56234 1.00614 0.38333 0.0
H196 H 0.51052 0.96082 0.66311 0.0
H197 H 0.56588 0.01701 0.34232 0.0
H198 H 0.58766 0.9493 0.4011 0.0
H199 H 0.52486 0.92604 0.66994 0.0
H200 H 0.54068 0.02568 0.43274 0.0
H201 H 0.47751 0.03095 0.91717 0.0
H202 H 0.58315 0.98347 0.34374 0.0
H203 H 0.53508 0.08858 0.60453 0.0
H204 H 0.50307 0.02259 0.82753 0.0
H205 H 0.52121 0.1236 0.59976 0.0
H206 H 0.57692 0.92472 0.49146 0.0
H207 H 0.46059 0.06467 0.91733 0.0
H208 H 0.45658 0.09919 0.86199 0.0
H209 H 0.55342 0.91586 0.59167 0.0
H210 H 0.46804 0.12424 0.77422 0.0
N211 N 0.50068 0.05105 0.77386 0.0
C212 C 0.49595 0.03736 0.82565 0.0
C213 C 0.47176 0.06103 0.87688 0.0
C214 C 0.47691 0.07521 0.82503 0.0
C215 C 0.48132 0.04202 0.87711 0.0
C216 C 0.49174 0.06977 0.77414 0.0
H217 H 0.49225 0.13354 0.67661 0.0
N218 N 0.51364 0.07843 0.68132 0.0
C219 C 0.51458 0.11257 0.63533 0.0
C220 C 0.49836 0.08391 0.7258 0.0
C221 C 0.52241 0.09271 0.63828 0.0
C222 C 0.49819 0.1181 0.67856 0.0
C223 C 0.49013 0.10383 0.72555 0.0
O224 O 0.53998 0.04313 0.79116 0.0
O225 O 0.54011 0.02431 0.61873 0.0
O226 O 0.53908 0.99334 0.6574 0.0
O227 O 0.52917 0.01598 0.74654 0.0
O228 O 0.55044 0.05342 0.61612 0.0
O229 O 0.54943 0.06622 0.71709 0.0
O230 O 0.49578 0.9821 0.54815 0.0
O231 O 0.50457 0.02479 0.64451 0.0
O232 O 0.50633 0.05612 0.60513 0.0
O233 O 0.51568 0.03291 0.51665 0.0
O234 O 0.49456 0.99565 0.64885 0.0
O235 O 0.50349 1.00604 0.47492 0.0
C236 C 0.553 0.03556 0.58903 0.0
C237 C 0.57475 0.05288 0.79004 0.0
C238 C 0.60367 0.02945 0.79172 0.0
C239 C 0.58285 0.03317 0.77951 0.0
C240 C 0.61623 0.04588 0.81325 0.0
C241 C 0.58754 0.06896 0.81116 0.0
C242 C 0.6082 0.06546 0.82243 0.0
C243 C 0.53713 0.99825 0.72524 0.0
C244 C 0.55321 0.05741 0.77706 0.0
C245 C 0.47465 0.10905 0.77379 0.0
C246 C 0.46814 0.0948 0.82375 0.0
C247 C 0.49167 1.01363 0.6745 0.0
C248 C 0.46885 0.99618 0.48512 0.0
C249 C 0.46132 0.01604 0.49741 0.0
C250 C 0.44026 0.01993 0.49468 0.0
C251 C 0.42688 1.00348 0.48121 0.0
C252 C 0.45526 0.9801 0.47186 0.0
C253 C 0.43436 0.98374 0.47028 0.0
C254 C 0.50807 0.05087 0.53741 0.0
C255 C 0.49065 0.99154 0.49061 0.0
H256 H 0.57303 0.02083 0.76199 0.0
H257 H 0.6322 0.04355 0.82507 0.0
H258 H 0.58152 0.08425 0.81881 0.0
H259 H 0.618 0.07791 0.83922 0.0
H260 H 0.47179 0.0284 0.50903 0.0
H261 H 0.41061 1.00589 0.47671 0.0
H262 H 0.46083 0.96467 0.4633 0.0
H263 H 0.42392 0.97127 0.45968 0.0
Tb264 Tb 0.54419 0.51974 0.57113 0.0
C265 C 0.4604 0.50871 0.71125 0.0
C266 C 0.43538 0.52579 0.63885 0.0
C267 C 0.42523 0.49707 0.71129 0.0
C268 C 0.45564 0.52341 0.66234 0.0
C269 C 0.44522 0.49555 0.73736 0.0
C270 C 0.4203 0.51223 0.66225 0.0
C271 C 0.4702 0.48186 0.81801 0.0
N272 N 0.47975 0.50808 0.73614 0.0
C273 C 0.48463 0.49543 0.79106 0.0
C274 C 0.45045 0.48175 0.79048 0.0
Tb275 Tb 0.50233 0.53098 0.68884 0.0
N276 N 0.47067 0.53614 0.64088 0.0
C277 C 0.466 0.5527 0.60034 0.0
C278 C 0.43075 0.54224 0.59497 0.0
C279 C 0.44607 0.55602 0.57714 0.0
H280 H 0.49986 0.49532 0.81264 0.0
H281 H 0.44258 0.56934 0.54599 0.0
H282 H 0.40469 0.51367 0.64422 0.0
H283 H 0.47431 0.47151 0.86001 0.0
H284 H 0.4775 0.5635 0.5852 0.0
H285 H 0.60172 0.48087 0.72609 0.0
H286 H 0.41534 0.54479 0.57645 0.0
H287 H 0.54906 0.55514 0.44764 0.0
H288 H 0.5678 0.48606 0.67625 0.0
H289 H 0.57564 0.57838 0.40371 0.0
H290 H 0.41337 0.48701 0.73026 0.0
H291 H 0.62962 0.50482 0.69832 0.0
H292 H 0.64163 0.5355 0.63127 0.0
H293 H 0.43925 0.47133 0.8118 0.0
H294 H 0.63453 0.56215 0.54342 0.0
N295 N 0.57556 0.51326 0.62102 0.0
C296 C 0.57952 0.49676 0.66287 0.0
C297 C 0.6146 0.50727 0.6761 0.0
C298 C 0.61084 0.5235 0.63042 0.0
C299 C 0.59892 0.4937 0.69167 0.0
C300 C 0.591 0.52595 0.60288 0.0
H301 H 0.61005 0.57803 0.45733 0.0
N302 N 0.56803 0.54192 0.5267 0.0
C303 C 0.57906 0.56796 0.44624 0.0
C304 C 0.58707 0.54086 0.554 0.0
C305 C 0.56405 0.55469 0.4712 0.0
C306 C 0.59843 0.56777 0.4768 0.0
C307 C 0.60275 0.55388 0.5306 0.0
O308 O 0.54789 0.51344 0.46279 0.0
O309 O 0.51141 0.52127 0.58435 0.0
O310 O 0.50093 0.4984 0.66048 0.0
O311 O 0.53508 0.49263 0.63409 0.0
O312 O 0.52265 0.53057 0.48999 0.0
O313 O 0.55047 0.48941 0.53965 0.0
O314 O 0.49798 0.53945 0.79567 0.0
O315 O 0.5349 0.52938 0.67524 0.0
O316 O 0.54533 0.55251 0.59752 0.0
O317 O 0.51123 0.55794 0.62543 0.0
O318 O 0.52405 0.52154 0.77164 0.0
O319 O 0.49579 0.56168 0.71204 0.0
C320 C 0.5061 0.52767 0.52435 0.0
C321 C 0.53416 0.48185 0.4298 0.0
C322 C 0.50548 0.45819 0.41919 0.0
C323 C 0.51958 0.46906 0.46123 0.0
C324 C 0.5059 0.46081 0.34511 0.0
C325 C 0.53427 0.48411 0.35603 0.0
C326 C 0.52011 0.47376 0.31407 0.0
C327 C 0.51682 0.486 0.65426 0.0
C328 C 0.54871 0.49384 0.47266 0.0
C329 C 0.62232 0.55217 0.56012 0.0
C330 C 0.62636 0.53699 0.61005 0.0
C331 C 0.54044 0.52358 0.7356 0.0
C332 C 0.47336 0.56601 0.80729 0.0
C333 C 0.47008 0.58714 0.80587 0.0
C334 C 0.45192 0.59566 0.83192 0.0
C335 C 0.43685 0.58276 0.85937 0.0
C336 C 0.45807 0.55319 0.83396 0.0
C337 C 0.43988 0.56159 0.85969 0.0
C338 C 0.52937 0.56478 0.60511 0.0
C339 C 0.49267 0.558 0.77878 0.0
H340 H 0.51927 0.46748 0.51813 0.0
H341 H 0.49577 0.45231 0.31044 0.0
H342 H 0.54526 0.49404 0.33089 0.0
H343 H 0.52034 0.47552 0.25712 0.0
H344 H 0.48195 0.59707 0.78587 0.0
H345 H 0.42283 0.58907 0.88053 0.0
H346 H 0.46015 0.53679 0.83517 0.0
H347 H 0.42818 0.55167 0.88048 0.0
Tb348 Tb 0.0294 0.53954 0.5678 0.0
C349 C 0.03148 0.46072 0.73132 0.0
C350 C 0.01955 0.43554 0.64603 0.0
C351 C 0.04339 0.42557 0.73782 0.0
C352 C 0.02039 0.45595 0.67097 0.0
C353 C 0.04239 0.44537 0.76709 0.0
C354 C 0.03191 0.42063 0.67744 0.0
C355 C 0.04684 0.46903 0.86495 0.0
N356 N 0.02944 0.47977 0.75969 0.0
C357 C 0.03565 0.48365 0.82783 0.0
C358 C 0.05073 0.45 0.8336 0.0
Tb359 Tb 1.0119 0.5027 0.69206 0.0
N360 N 1.00836 0.4707 0.64264 0.0
C361 C 0.99307 0.46527 0.59679 0.0
C362 C 1.00515 0.4304 0.59418 0.0
C363 C 0.99138 0.44519 0.57157 0.0
H364 H 0.03262 0.49823 0.85294 0.0
H365 H 0.97924 0.44116 0.53535 0.0
H366 H 0.03179 0.40499 0.65797 0.0
H367 H 0.0524 0.47245 0.91775 0.0
H368 H 0.98211 0.47617 0.5784 0.0
H369 H 0.07425 0.59335 0.72545 0.0
H370 H 1.00378 0.41485 0.57437 0.0
H371 H 0.99669 0.54833 0.43755 0.0
H372 H 0.06593 0.5601 0.67533 0.0
H373 H 0.97736 0.57748 0.38987 0.0
H374 H 0.05199 0.41366 0.76387 0.0
H375 H 0.05372 0.62369 0.69544 0.0
H376 H 0.02539 0.63892 0.6242 0.0
H377 H 0.0592 0.43863 0.86282 0.0
H378 H 0.99898 0.63466 0.53255 0.0
N379 N 0.03993 0.57042 0.61654 0.0
C380 C 0.0565 0.57274 0.66033 0.0
C381 C 0.04986 0.60893 0.67255 0.0
C382 C 0.03377 0.60685 0.62461 0.0
C383 C 0.06147 0.59185 0.68949 0.0
C384 C 0.02929 0.58723 0.59669 0.0
H385 H 0.98127 0.6119 0.44382 0.0
N386 N 1.01134 0.56597 0.51844 0.0
C387 C 0.98767 0.5798 0.434 0.0
C388 C 0.01442 0.58489 0.54594 0.0
C389 C 0.99872 0.56334 0.46103 0.0
C390 C 0.98986 0.59916 0.46475 0.0
C391 C 1.0036 0.60198 0.52069 0.0
O392 O 0.03635 0.54321 0.46021 0.0
O393 O 0.02543 0.50692 0.58776 0.0
O394 O 0.04522 0.5023 0.70478 0.0
O395 O 0.0555 0.52926 0.63241 0.0
O396 O 0.01668 0.51773 0.49109 0.0
O397 O 0.06015 0.53799 0.53594 0.0
O398 O 0.99259 0.48476 0.75505 0.0
O399 O 0.01709 0.53456 0.67143 0.0
O400 O 0.99611 0.5427 0.58197 0.0
O401 O 0.98813 0.50958 0.61337 0.0
O402 O 0.02258 0.52495 0.77231 0.0
O403 O 0.98655 0.51655 0.74206 0.0
C404 C 0.01912 0.50136 0.52688 0.0
C405 C 0.06156 0.51939 0.42708 0.0
C406 C 0.08237 0.48853 0.4139 0.0
C407 C 0.07744 0.50671 0.4507 0.0
C408 C 0.07085 0.48295 0.35381 0.0
C409 C 0.05066 0.51367 0.36573 0.0
C410 C 0.05515 0.49547 0.33003 0.0
C411 C 0.05937 0.51463 0.67885 0.0
C412 C 0.05513 0.53754 0.46908 0.0
C413 C 1.0073 0.62138 0.55057 0.0
C414 C 0.02235 0.62381 0.60262 0.0
C415 C 0.02287 0.54075 0.732 0.0
C416 C 0.95823 0.49442 0.73752 0.0
C417 C 0.94368 0.51012 0.73345 0.0
C418 C 0.92448 0.50661 0.70217 0.0
C419 C 0.91991 0.48688 0.67621 0.0
C420 C 0.95307 0.47473 0.71278 0.0
C421 C 0.93406 0.47107 0.68218 0.0
C422 C 0.98281 0.52756 0.58762 0.0
C423 C 0.97915 0.49917 0.76202 0.0
H424 H 0.08591 0.51092 0.49791 0.0
H425 H 0.0744 0.46927 0.32344 0.0
H426 H 0.03831 0.52304 0.3461 0.0
H427 H 0.04651 0.49111 0.28339 0.0
H428 H 0.94747 0.52512 0.7545 0.0
H429 H 0.9055 0.48366 0.65053 0.0
H430 H 0.96384 0.46222 0.71556 0.0
H431 H 0.93037 0.45595 0.66211 0.0
H432 H 0.23486 0.03029 0.31325 0.0
H433 H 0.20017 0.02881 0.35972 0.0
H434 H 0.17703 0.05224 0.16287 0.0
H435 H 0.21204 0.05373 0.11565 0.0
H436 H 0.16093 0.07202 0.29053 0.0
H437 H 0.1551 0.98761 0.30275 0.0
H438 H 0.17773 0.99779 0.34342 0.0
H439 H 0.17398 1.00038 0.24957 0.0
C440 C 0.22238 0.03495 0.27945 0.0
C441 C 0.2262 0.04195 0.21056 0.0
C442 C 0.20252 0.03406 0.30611 0.0
C443 C 0.18589 0.04018 0.26469 0.0
C444 C 0.1896 0.04732 0.19575 0.0
H445 H 0.06111 1.01356 0.40177 0.0
H446 H 0.09236 0.01707 0.33242 0.0
C447 C 0.20959 0.04809 0.16867 0.0
C448 C 0.16484 0.03939 0.2948 0.0
H449 H 0.13034 1.00666 0.368 0.0
C450 C 0.15413 0.05771 0.30678 0.0
C451 C 0.15584 0.02074 0.31567 0.0
C452 C 0.16614 1.00048 0.30169 0.0
C453 C 0.13502 0.05793 0.34108 0.0
C454 C 0.12642 0.03932 0.36478 0.0
C455 C 0.13688 0.02097 0.35054 0.0
C456 C 0.10678 0.03842 0.40507 0.0
C457 C 0.12423 0.07811 0.35117 0.0
C458 C 0.10426 0.04926 0.46926 0.0
C459 C 0.0863 0.04733 0.50894 0.0
C460 C 0.07048 0.03437 0.48581 0.0
C461 C 0.07293 0.02371 0.42123 0.0
C462 C 0.09087 0.02565 0.38154 0.0
H463 H 0.12924 0.08948 0.31153 0.0
H464 H 0.10749 0.07624 0.34699 0.0
H465 H 0.12781 0.08438 0.40461 0.0
H466 H 0.11637 0.0589 0.48966 0.0
H467 H 0.08486 0.05594 0.55802 0.0
H468 H 0.4859 0.20293 0.08701 0.0
H469 H 0.48348 0.16857 0.13872 0.0
H470 H 0.52002 0.18875 0.31616 0.0
H471 H 0.52282 0.22258 0.26432 0.0
H472 H 0.53267 0.15236 0.26852 0.0
H473 H 0.44869 0.15044 0.30457 0.0
H474 H 0.45717 0.15452 0.21535 0.0
H475 H 0.46218 0.17354 0.28253 0.0
C476 C 0.49345 0.19994 0.13686 0.0
C477 C 0.50458 0.21546 0.17161 0.0
C478 C 0.49191 0.18035 0.16678 0.0
C479 C 0.50133 0.17604 0.23212 0.0
C480 C 0.51258 0.19157 0.26593 0.0
H481 H 0.48496 0.08554 0.55464 0.0
H482 H 0.48214 0.1143 0.47357 0.0
C483 C 0.51418 0.21095 0.23615 0.0
C484 C 0.50004 0.15546 0.26586 0.0
H485 H 0.46708 0.12135 0.3408 0.0
C486 C 0.5183 0.14552 0.28371 0.0
C487 C 0.48132 0.14656 0.28667 0.0
C488 C 0.4612 0.15684 0.27197 0.0
C489 C 0.51843 0.12734 0.32287 0.0
C490 C 0.49972 0.11835 0.3434 0.0
C491 C 0.48141 0.12807 0.32455 0.0
C492 C 0.49907 0.09971 0.38859 0.0
C493 C 0.53871 0.1185 0.3448 0.0
C494 C 0.50863 0.08144 0.36702 0.0
C495 C 0.51057 0.06505 0.41389 0.0
C496 C 0.5029 0.06654 0.48337 0.0
C497 C 0.49172 0.08413 0.50251 0.0
C498 C 0.48992 0.10056 0.45584 0.0
H499 H 0.55124 0.12982 0.3401 0.0
H500 H 0.53822 0.11311 0.40036 0.0
H501 H 0.54243 0.10526 0.30991 0.0
H502 H 0.51523 0.08009 0.31462 0.0
H503 H 0.51882 0.05162 0.39643 0.0
H504 H 0.34368 0.50197 0.11981 0.0
H505 H 0.37856 0.50326 0.16858 0.0
H506 H 0.35491 0.52692 0.36618 0.0
H507 H 0.32044 0.52582 0.31793 0.0
H508 H 0.38785 0.54879 0.31794 0.0
H509 H 0.40515 0.46564 0.31724 0.0
H510 H 0.3971 0.47617 0.23414 0.0
H511 H 0.37958 0.4754 0.30703 0.0
C512 C 0.34599 0.50748 0.17352 0.0
C513 C 0.3293 0.51386 0.21499 0.0
C514 C 0.36591 0.50803 0.20163 0.0
C515 C 0.36942 0.51495 0.27159 0.0
C516 C 0.3527 0.52145 0.31231 0.0
H517 H 0.47518 0.49982 0.54794 0.0
H518 H 0.44248 0.49715 0.48506 0.0
C519 C 0.33296 0.52085 0.28453 0.0
C520 C 0.39037 0.51629 0.30277 0.0
H521 H 0.43107 0.48782 0.35812 0.0
C522 C 0.39734 0.53545 0.32647 0.0
C523 C 0.40271 0.4989 0.31467 0.0
C524 C 0.3958 0.4778 0.29254 0.0
C525 C 0.41602 0.53776 0.36229 0.0
C526 C 0.42857 0.5204 0.37411 0.0
C527 C 0.42164 0.50119 0.34965 0.0
C528 C 0.44868 0.5218 0.41228 0.0
C529 C 0.42158 0.55887 0.38869 0.0
C530 C 0.46349 0.53613 0.39204 0.0
C531 C 0.4818 0.53813 0.42975 0.0
C532 C 0.48605 0.52564 0.48804 0.0
C533 C 0.47192 0.51036 0.50561 0.0
C534 C 0.45333 0.50864 0.46878 0.0
H535 H 0.40781 0.56836 0.39866 0.0
H536 H 0.43051 0.55825 0.43817 0.0
H537 H 0.4308 0.56666 0.3478 0.0
H538 H 0.46095 0.54584 0.34686 0.0
H539 H 0.49272 0.54953 0.41318 0.0
H540 H 0.04544 0.33594 0.12285 0.0
H541 H 0.04797 0.37049 0.17633 0.0
H542 H 1.01087 0.35093 0.35149 0.0
H543 H 1.00775 0.31718 0.29749 0.0
H544 H 0.99704 0.3852 0.30572 0.0
H545 H 0.08051 0.39431 0.3386 0.0
H546 H 0.07245 0.3891 0.24925 0.0
H547 H 0.06894 0.37006 0.3161 0.0
C548 C 0.03796 0.33908 0.1729 0.0
C549 C 0.0263 0.3238 0.2057 0.0
C550 C 0.03955 0.35881 0.20393 0.0
C551 C 0.02979 0.3635 0.26884 0.0
C552 C 0.01854 0.34798 0.3016 0.0
H553 H 0.04602 0.46952 0.5561 0.0
H554 H 0.04915 0.43669 0.49157 0.0
C555 C 0.01676 0.32857 0.27048 0.0
C556 C 0.02977 0.38463 0.30158 0.0
H557 H 0.06002 0.42297 0.36877 0.0
C558 C 1.01089 0.39339 0.31949 0.0
C559 C 0.04773 0.39547 0.32044 0.0
C560 C 0.06858 0.38673 0.30579 0.0
C561 C 1.00934 0.41215 0.35632 0.0
C562 C 0.02724 0.42333 0.37413 0.0
C563 C 0.04622 0.41468 0.35555 0.0
C564 C 0.02645 0.4438 0.41197 0.0
C565 C 0.9883 0.41919 0.37769 0.0
C566 C 0.01335 0.4593 0.38815 0.0
C567 C 1.01096 0.47757 0.42665 0.0
C568 C 0.02202 0.48131 0.48931 0.0
C569 C 0.03648 0.46667 0.51022 0.0
C570 C 0.0385 0.44801 0.47246 0.0
H571 H 0.97774 0.40606 0.38404 0.0
H572 H 0.98862 0.42791 0.42811 0.0
H573 H 0.98194 0.42905 0.33565 0.0
H574 H 1.00469 0.45723 0.33979 0.0
H575 H 1.00031 0.48887 0.40726 0.0
H576 H 0.81608 0.01758 0.0543 0.0
H577 H 0.84617 0.02485 0.98075 0.0
H578 H 0.86953 0.96454 0.02253 0.0
H579 H 0.83938 0.95707 0.09335 0.0
H580 H 0.88681 0.02618 1.00247 0.0
H581 H 0.87081 0.9638 0.81084 0.0
H582 H 0.85262 0.97168 0.87728 0.0
H583 H 0.87295 0.95433 0.89925 0.0
C584 C 0.82771 1.00595 0.04797 0.0
C585 C 0.82529 0.98668 0.07924 0.0
C586 C 0.84491 1.01009 1.00581 0.0
C587 C 0.85999 0.99506 0.99422 0.0
C588 C 0.85791 0.9762 0.02836 0.0
H589 H 0.98361 0.01392 0.83213 0.0
H590 H 0.95339 1.00972 0.90568 0.0
C591 C 0.84072 0.972 0.06953 0.0
C592 C 0.87783 0.99881 0.94639 0.0
H593 H 0.90419 0.97822 0.80634 0.0
C594 C 0.89051 0.01577 0.95926 0.0
C595 C 0.88261 0.98552 0.88883 0.0
C596 C 0.8689 0.96796 0.8677 0.0
C597 C 0.90801 0.01944 0.91778 0.0
C598 C 0.91341 1.00547 0.8628 0.0
C599 C 0.9004 0.98882 0.8489 0.0
C600 C 0.93215 1.00795 0.81802 0.0
C601 C 0.92024 0.03854 0.93253 0.0
C602 C 0.93074 1.00731 0.74368 0.0
C603 C 0.94815 1.00941 0.70132 0.0
C604 C 0.96751 1.01258 0.73173 0.0
C605 C 0.96899 1.01245 0.80623 0.0
C606 C 0.95159 1.01009 0.84871 0.0
H607 H 0.91086 0.05048 0.95927 0.0
H608 H 0.9331 0.03479 0.96832 0.0
H609 H 0.92654 0.04497 0.88298 0.0
H610 H 0.91609 1.00529 0.71811 0.0
H611 H 0.94633 1.0085 0.64459 0.0
H612 H 0.58573 0.83159 0.02173 0.0
H613 H 0.58284 0.86527 0.9681 0.0
H614 H 0.53627 0.88184 0.11918 0.0
H615 H 0.53906 0.84784 0.1731 0.0
H616 H 0.52533 0.89039 0.98101 0.0
H617 H 0.60245 0.92122 0.03284 0.0
H618 H 0.60313 0.89642 0.9914 0.0
H619 H 0.59252 0.89932 0.07886 0.0
C620 C 0.57509 0.84252 0.04435 0.0
C621 C 0.56273 0.83709 0.10194 0.0
C622 C 0.57354 0.86186 0.01383 0.0
C623 C 0.55959 0.87634 0.04015 0.0
C624 C 0.5473 0.87103 0.09828 0.0
H625 H 0.52408 0.99518 0.86305 0.0
H626 H 0.52994 0.9669 0.94459 0.0
C627 C 0.54894 0.85162 0.12924 0.0
C628 C 0.55696 0.89629 1.00327 0.0
H629 H 0.58316 0.93773 0.9417 0.0
C630 C 0.53789 0.9009 0.9735 0.0
C631 C 0.57338 0.91003 0.99287 0.0
C632 C 0.59397 0.90662 0.02628 0.0
C633 C 0.53502 0.91836 0.9316 0.0
C634 C 0.55156 0.93176 0.91972 0.0
C635 C 0.57051 0.92743 0.95064 0.0
C636 C 0.54952 0.9499 0.87311 0.0
C637 C 0.51449 0.92196 0.89788 0.0
C638 C 0.55914 0.95013 0.80673 0.0
C639 C 0.55578 0.96627 0.75991 0.0
C640 C 0.54278 0.9826 0.77854 0.0
C641 C 0.53405 0.98285 0.84662 0.0
C642 C 0.53731 0.96662 0.89327 0.0
H643 H 0.50424 0.90855 0.90296 0.0
H644 H 0.50707 0.93531 0.92387 0.0
H645 H 0.51629 0.92549 0.84079 0.0
H646 H 0.56877 0.9375 0.79022 0.0
H647 H 0.56306 0.96574 0.70843 0.0
H648 H 0.71553 0.52537 0.0731 0.0
H649 H 0.68505 0.51626 1.0032 0.0
H650 H 0.6614 0.57717 0.03491 0.0
H651 H 0.69159 0.58625 0.10425 0.0
H652 H 0.63243 0.54622 0.05823 0.0
H653 H 0.6717 0.53593 0.7993 0.0
H654 H 0.68175 0.52155 0.87215 0.0
H655 H 0.68346 0.54893 0.8737 0.0
C656 C 0.70374 0.53672 0.06553 0.0
C657 C 0.70592 0.55653 0.09437 0.0
C658 C 0.68641 0.53157 0.02504 0.0
C659 C 0.67099 0.54611 0.01292 0.0
C660 C 0.67305 0.5657 0.04314 0.0
H661 H 0.57005 0.5526 0.71255 0.0
H662 H 0.60218 0.5571 0.77809 0.0
C663 C 0.69032 0.57086 0.08293 0.0
C664 C 0.6525 0.54119 0.96968 0.0
H665 H 0.63621 0.5301 0.80114 0.0
C666 C 0.63329 0.54254 1.00213 0.0
C667 C 0.65354 0.53672 0.89614 0.0
C668 C 0.67367 0.53582 0.85778 0.0
C669 C 0.61517 0.53951 0.96342 0.0
C670 C 0.61619 0.53478 0.89008 0.0
C671 C 0.6354 0.53354 0.85739 0.0
C672 C 0.59742 0.53126 0.84681 0.0
C673 C 0.59503 0.54194 1.00114 0.0
C674 C 0.5842 0.51506 0.86254 0.0
C675 C 0.56595 0.51245 0.825 0.0
C676 C 0.5607 0.52569 0.76979 0.0
C677 C 0.57397 0.54183 0.75349 0.0
C678 C 0.59227 0.54446 0.7912 0.0
H679 H 0.59669 0.55043 0.05214 0.0
H680 H 0.58386 0.55013 0.96753 0.0
H681 H 0.58875 0.5266 0.01281 0.0
H682 H 0.58789 0.50453 0.90454 0.0
H683 H 0.55588 0.50004 0.83921 0.0
H684 H 0.02685 0.72138 0.0524 0.0
H685 H 0.03524 0.69024 0.98326 0.0
H686 H 0.97454 0.66734 0.01831 0.0
H687 H 0.96629 0.69801 0.08718 0.0
H688 H 1.00292 0.63799 0.04099 0.0
H689 H 0.01722 0.67459 0.78164 0.0
H690 H 0.03225 0.68422 0.85435 0.0
H691 H 1.00513 0.68796 0.85454 0.0
C692 C 0.01538 0.70964 0.04554 0.0
C693 C 0.9959 0.71218 0.07558 0.0
C694 C 0.0201 0.6919 1.00536 0.0
C695 C 1.00544 0.67639 0.99438 0.0
C696 C 0.98615 0.67895 0.02543 0.0
H697 H 0.99696 0.57247 0.6978 0.0
H698 H 0.99386 0.60583 0.75888 0.0
C699 C 0.98146 0.69655 0.06505 0.0
C700 C 1.0099 0.65721 0.95248 0.0
H701 H 0.02191 0.63875 0.78672 0.0
C702 C 1.00719 0.63823 0.9855 0.0
C703 C 0.01516 0.65732 0.87956 0.0
C704 C 0.01746 0.67707 0.83997 0.0
C705 C 1.00955 0.61958 0.94825 0.0
C706 C 0.01511 0.61965 0.87567 0.0
C707 C 0.01778 0.6386 0.84234 0.0
C708 C 0.01807 0.60016 0.83414 0.0
C709 C 1.00548 0.59989 0.98673 0.0
C710 C 0.03296 0.58594 0.85467 0.0
C711 C 0.03474 0.56699 0.81977 0.0
C712 C 0.02204 0.56187 0.76226 0.0
C713 C 1.00733 0.57618 0.74071 0.0
C714 C 1.0055 0.59521 0.77588 0.0
H715 H 0.99636 0.6025 0.0356 0.0
H716 H 0.99726 0.5888 0.95215 0.0
H717 H 0.0202 0.59293 1.00242 0.0
H718 H 0.04304 0.58938 0.89865 0.0
H719 H 0.04605 0.55618 0.83811 0.0
H720 H 0.02748 0.21222 0.26711 0.0
H721 H 0.04005 0.19234 0.36564 0.0
H722 H 0.09155 0.23299 0.38768 0.0
H723 H 0.079 0.2528 0.28673 0.0
H724 H 0.10473 0.19628 0.37155 0.0
H725 H 0.04626 0.18967 0.57357 0.0
H726 H 0.03269 0.18776 0.49163 0.0
H727 H 0.04645 0.21097 0.51322 0.0
C728 C 0.04114 0.21727 0.29439 0.0
C729 C 0.05241 0.23382 0.26905 0.0
C730 C 0.04821 0.20609 0.35167 0.0
C731 C 0.06666 0.21129 0.38527 0.0
C732 C 0.07718 0.22881 0.36326 0.0
H733 H 0.06565 0.08914 0.51065 0.0
H734 H 0.07914 0.12257 0.5467 0.0
C735 C 0.07002 0.2401 0.30569 0.0
C736 C 0.07655 0.19578 0.43066 0.0
H737 H 0.05951 0.15526 0.52449 0.0
C738 C 0.0953 0.1877 0.40779 0.0
C739 C 0.06518 0.18492 0.48149 0.0
C740 C 0.04666 0.19403 0.51687 0.0
C741 C 0.10051 0.16738 0.42217 0.0
C742 C 0.08629 0.15495 0.4578 0.0
C743 C 0.07001 0.16439 0.4938 0.0
C744 C 0.08419 0.13292 0.43956 0.0
C745 C 0.12007 0.15884 0.39231 0.0
C746 C 0.08315 0.12727 0.36753 0.0
C747 C 0.07535 0.10836 0.34694 0.0
C748 C 0.06821 0.09465 0.39781 0.0
C749 C 0.07075 0.09955 0.47015 0.0
C750 C 0.07863 0.11857 0.49087 0.0
H751 H 0.13273 0.16979 0.40188 0.0
H752 H 0.12407 0.14391 0.41614 0.0
H753 H 0.11858 0.15687 0.33404 0.0
H754 H 0.08659 0.13816 0.32647 0.0
H755 H 0.0734 0.10522 0.29088 0.0
H756 H 0.32717 0.11083 0.12718 0.0
H757 H 0.35334 0.12196 0.21207 0.0
H758 H 0.33224 0.07694 0.36019 0.0
H759 H 0.30592 0.06617 0.27682 0.0
H760 H 0.35015 0.11208 0.42739 0.0
H761 H 0.3987 0.07951 0.21074 0.0
H762 H 0.38351 0.10162 0.19191 0.0
H763 H 0.37137 0.07746 0.20751 0.0
C764 C 0.32772 0.10383 0.1789 0.0
C765 C 0.31479 0.08738 0.19497 0.0
C766 C 0.34264 0.11021 0.2273 0.0
C767 C 0.34506 0.09991 0.29161 0.0
C768 C 0.33068 0.08509 0.3108 0.0
H769 H 0.40487 0.03333 0.55659 0.0
H770 H 0.38611 0.06353 0.52271 0.0
C771 C 0.31563 0.0789 0.26295 0.0
C772 C 0.36445 0.10093 0.33176 0.0
H773 H 0.41191 0.08016 0.32351 0.0
C774 C 0.36393 0.10567 0.4045 0.0
C775 C 0.3826 0.09299 0.30166 0.0
C776 C 0.38422 0.0875 0.22383 0.0
C777 C 0.38035 0.10072 0.44904 0.0
C778 C 0.39736 0.09024 0.42022 0.0
C779 C 0.39885 0.08797 0.34627 0.0
C780 C 0.41094 0.07715 0.46379 0.0
C781 C 0.3788 0.10585 0.52688 0.0
C782 C 0.43165 0.07501 0.44603 0.0
C783 C 0.44213 0.05705 0.46241 0.0
C784 C 0.43215 0.04117 0.49815 0.0
C785 C 0.41267 0.04491 0.5263 0.0
C786 C 0.40204 0.06257 0.50834 0.0
H787 H 0.37214 0.12134 0.5344 0.0
H788 H 0.36834 0.09487 0.55267 0.0
H789 H 0.39386 0.10533 0.55365 0.0
H790 H 0.43901 0.08614 0.41252 0.0
H791 H 0.45724 0.05487 0.4406 0.0
H792 H 0.44812 0.32675 0.16029 0.0
H793 H 0.44475 0.3484 0.26529 0.0
H794 H 0.47987 0.30532 0.3861 0.0
H795 H 0.48524 0.28466 0.27998 0.0
H796 H 0.43335 0.34893 0.4053 0.0
H797 H 0.51808 0.35279 0.38124 0.0
H798 H 0.50274 0.33973 0.31607 0.0
H799 H 0.50744 0.32828 0.40083 0.0
C800 C 0.45518 0.32181 0.20904 0.0
C801 C 0.46774 0.30437 0.21032 0.0
C802 C 0.45288 0.33405 0.26957 0.0
C803 C 0.46268 0.32883 0.33294 0.0
C804 C 0.47272 0.30995 0.33711 0.0
H805 H 0.5133 0.43294 0.53208 0.0
H806 H 0.49663 0.40053 0.55461 0.0
C807 C 0.47558 0.29801 0.27609 0.0
C808 C 0.46558 0.34485 0.38822 0.0
H809 H 0.5022 0.37757 0.44788 0.0
C810 C 0.44843 0.35497 0.4162 0.0
C811 C 0.48529 0.35259 0.40344 0.0
C812 C 0.50445 0.34293 0.37366 0.0
C813 C 0.4504 0.37359 0.45354 0.0
C814 C 0.46995 0.38234 0.46211 0.0
C815 C 0.48715 0.37099 0.44125 0.0
C816 C 0.47315 0.40452 0.47572 0.0
C817 C 0.43145 0.38412 0.48039 0.0
C818 C 0.46411 0.41859 0.42959 0.0
C819 C 0.47324 0.4375 0.41799 0.0
C820 C 0.49194 0.44238 0.45047 0.0
C821 C 0.49914 0.42967 0.50481 0.0
C822 C 0.48961 0.411 0.51793 0.0
H823 H 0.42049 0.37272 0.5012 0.0
H824 H 0.43492 0.39549 0.52282 0.0
H825 H 0.42385 0.39201 0.43581 0.0
H826 H 0.45144 0.41414 0.39606 0.0
H827 H 0.4667 0.44739 0.37832 0.0
H828 H 0.24175 0.43674 0.15306 0.0
H829 H 0.21733 0.42207 0.23704 0.0
H830 H 0.2167 0.47911 0.35437 0.0
H831 H 0.24207 0.49306 0.27391 0.0
H832 H 0.2084 0.44834 0.44105 0.0
H833 H 0.16103 0.44032 0.19625 0.0
H834 H 0.18326 0.4245 0.20134 0.0
H835 H 0.18589 0.45179 0.19409 0.0
C836 C 0.2369 0.44573 0.19855 0.0
C837 C 0.24351 0.466 0.20724 0.0
C838 C 0.22286 0.43746 0.24604 0.0
C839 C 0.21461 0.44974 0.3005 0.0
C840 C 0.22273 0.46934 0.31266 0.0
H841 H 0.11926 0.50307 0.45838 0.0
H842 H 0.15133 0.48476 0.45756 0.0
C843 C 0.23718 0.47736 0.2666 0.0
C844 C 0.19539 0.44416 0.33692 0.0
H845 H 0.14442 0.44118 0.30344 0.0
C846 C 0.19444 0.4462 0.41113 0.0
C847 C 0.1771 0.44112 0.29808 0.0
C848 C 0.17673 0.43942 0.21812 0.0
C849 C 0.17564 0.44749 0.44643 0.0
C850 C 0.15746 0.44658 0.4065 0.0
C851 C 0.15843 0.44194 0.33389 0.0
C852 C 0.13803 0.45522 0.43309 0.0
C853 C 0.17541 0.45119 0.52537 0.0
C854 C 0.11968 0.44459 0.4228 0.0
C855 C 0.10114 0.45512 0.42333 0.0
C856 C 0.10073 0.47648 0.43303 0.0
C857 C 0.11892 0.48664 0.45095 0.0
C858 C 0.13739 0.4761 0.45096 0.0
H859 H 0.18854 0.4435 0.55106 0.0
H860 H 0.17681 0.46784 0.53627 0.0
H861 H 0.16105 0.44565 0.54961 0.0
H862 H 0.11984 0.42849 0.40867 0.0
H863 H 0.08731 0.44676 0.41135 0.0
H864 H 0.98607 0.79333 0.94903 0.0
H865 H 0.9764 0.81658 0.85571 0.0
H866 H 0.92374 0.83557 0.9767 0.0
H867 H 0.9345 0.81321 0.07354 0.0
H868 H 0.94838 0.82906 0.76813 0.0
H869 H 0.95445 0.88709 0.98706 0.0
H870 H 0.95957 0.86056 1.00308 0.0
H871 H 0.93378 0.86926 0.99043 0.0
C872 C 0.97202 0.8019 0.95476 0.0
C873 C 0.96125 0.80183 0.01885 0.0
C874 C 0.96644 0.81525 0.90119 0.0
C875 C 0.94979 0.82854 0.9103 0.0
C876 C 0.93716 0.82615 0.96979 0.0
H877 H 0.987 0.94221 0.70978 0.0
H878 H 0.95907 0.91858 0.73601 0.0
C879 C 0.94314 0.81321 0.02467 0.0
C880 C 0.94873 0.84694 0.86484 0.0
H881 H 0.96189 0.89739 0.87397 0.0
C882 C 0.95064 0.84416 0.79108 0.0
C883 C 0.95134 0.86686 0.89432 0.0
C884 C 0.94977 0.87123 0.97294 0.0
C885 C 0.95803 0.85989 0.74816 0.0
C886 C 0.96311 0.87886 0.7796 0.0
C887 C 0.95808 0.88266 0.85055 0.0
C888 C 0.97865 0.89228 0.74814 0.0
C889 C 0.96228 0.85558 0.671 0.0
C890 C 0.99882 0.88525 0.74649 0.0
C891 C 0.0148 0.89876 0.73479 0.0
C892 C 1.01097 0.91961 0.72311 0.0
C893 C 0.99058 0.92638 0.72039 0.0
C894 C 0.97455 0.91286 0.73394 0.0
H895 H 0.95224 0.84326 0.64996 0.0
H896 H 0.96014 0.86956 0.63896 0.0
H897 H 0.97833 0.85048 0.66495 0.0
H898 H 1.00233 0.86952 0.75922 0.0
H899 H 0.03021 0.89295 0.73851 0.0
H900 H 0.71601 0.9352 0.14163 0.0
H901 H 0.68945 0.92338 0.0599 0.0
H902 H 0.71369 0.96264 0.89821 0.0
H903 H 0.74028 0.97403 0.97877 0.0
H904 H 0.66354 0.95116 0.02899 0.0
H905 H 0.68875 0.91995 0.77384 0.0
H906 H 0.7049 0.91941 0.85149 0.0
H907 H 0.70467 0.9414 0.79446 0.0
C908 C 0.71616 0.94056 0.08753 0.0
C909 C 0.72998 0.95578 0.06682 0.0
C910 C 0.70105 0.93371 0.04073 0.0
C911 C 0.69944 0.9421 0.97272 0.0
C912 C 0.71473 0.95551 0.94959 0.0
H913 H 0.641 0.01756 0.7419 0.0
H914 H 0.65897 0.98655 0.77369 0.0
C915 C 0.72995 0.9622 0.9961 0.0
C916 C 0.67961 0.94182 0.93468 0.0
H917 H 0.66088 0.94626 0.76708 0.0
C918 C 0.66262 0.94932 0.9719 0.0
C919 C 0.67819 0.93906 0.86049 0.0
C920 C 0.69511 0.92928 0.81815 0.0
C921 C 0.64568 0.95727 0.93639 0.0
C922 C 0.64551 0.95715 0.86115 0.0
C923 C 0.66113 0.94677 0.82454 0.0
C924 C 0.63278 0.97199 0.82157 0.0
C925 C 0.62949 0.96795 0.98015 0.0
C926 C 0.61163 0.97351 0.83199 0.0
C927 C 0.60149 0.9918 0.81687 0.0
C928 C 0.61225 1.00842 0.78843 0.0
C929 C 0.63252 1.00539 0.76681 0.0
C930 C 0.64275 0.98745 0.78397 0.0
H931 H 0.63322 0.9683 0.03759 0.0
H932 H 0.62752 0.98397 0.96258 0.0
H933 H 0.61477 0.95983 0.97384 0.0
H934 H 0.60338 0.96139 0.85786 0.0
H935 H 0.58578 0.99347 0.83334 0.0
H936 H 0.53824 0.72159 0.0763 0.0
H937 H 0.51959 0.70292 0.98504 0.0
H938 H 0.48131 0.75556 0.95046 0.0
H939 H 0.49978 0.77426 0.04421 0.0
H940 H 0.45891 0.72251 0.97199 0.0
H941 H 0.51659 0.70182 0.77392 0.0
H942 H 0.5267 0.6959 0.85934 0.0
H943 H 0.52076 0.72209 0.83811 0.0
C944 C 0.52609 0.72932 0.04838 0.0
C945 C 0.52032 0.74927 0.06761 0.0
C946 C 0.5156 0.71874 0.99546 0.0
C947 C 0.49925 0.72795 0.9599 0.0
C948 C 0.49402 0.74825 0.97669 0.0
H949 H 0.45595 0.62273 0.7241 0.0
H950 H 0.46063 0.65978 0.73579 0.0
C951 C 0.50459 0.75892 0.02996 0.0
C952 C 0.4862 0.71509 0.9134 0.0
H953 H 0.49083 0.675 0.79834 0.0
C954 C 0.46567 0.71254 0.93217 0.0
C955 C 0.49465 0.70254 0.85953 0.0
C956 C 0.51583 0.70596 0.83112 0.0
C957 C 0.45424 0.69609 0.90514 0.0
C958 C 0.46385 0.68156 0.86018 0.0
C959 C 0.48349 0.68572 0.83437 0.0
C960 C 0.4556 0.66062 0.8492 0.0
C961 C 0.43233 0.69398 0.92778 0.0
C962 C 0.45036 0.64885 0.9084 0.0
C963 C 0.44729 0.62782 0.90147 0.0
C964 C 0.4499 0.61811 0.83555 0.0
C965 C 0.45386 0.62997 0.7755 0.0
C966 C 0.45655 0.65109 0.7822 0.0
H967 H 0.42496 0.70925 0.93165 0.0
H968 H 0.42346 0.68426 0.89032 0.0
H969 H 0.43174 0.68714 0.98127 0.0
H970 H 0.4502 0.65556 0.96107 0.0
H971 H 0.44457 0.61893 0.94862 0.0
H972 H 0.78524 0.55482 0.95475 0.0
H973 H 0.80682 0.56009 0.85215 0.0
H974 H 0.82881 0.61664 0.94424 0.0
H975 H 0.8082 0.6104 0.05044 0.0
H976 H 0.81722 0.58461 0.75 0.0
H977 H 0.87985 0.58515 0.95106 0.0
H978 H 0.8538 0.58122 0.97674 0.0
H979 H 0.86252 0.60631 0.95257 0.0
C980 C 0.79418 0.56871 0.95215 0.0
C981 C 0.7954 0.58202 0.0107 0.0
C982 C 0.80654 0.57177 0.8933 0.0
C983 C 0.8201 0.58838 0.8915 0.0
C984 C 0.81913 0.60327 0.94572 0.0
H985 H 0.93083 0.54779 0.68085 0.0
H986 H 0.9063 0.57542 0.70094 0.0
C987 C 0.80721 0.59985 1.00593 0.0
C988 C 0.83726 0.58747 0.84023 0.0
H989 H 0.88779 0.57511 0.83731 0.0
C990 C 0.83278 0.58315 0.76868 0.0
C991 C 0.85774 0.58582 0.86402 0.0
C992 C 0.86386 0.58975 0.9402 0.0
C993 C 0.84755 0.57468 0.72329 0.0
C994 C 0.86726 0.57089 0.74976 0.0
C995 C 0.87253 0.57797 0.81761 0.0
C996 C 0.88071 0.55525 0.71751 0.0
C997 C 0.84153 0.56826 0.64933 0.0
C998 C 0.87432 0.53481 0.71856 0.0
C999 C 0.88836 0.51901 0.70973 0.0
C1000 C 0.90911 0.52333 0.69899 0.0
C1001 C 0.91511 0.54388 0.69138 0.0
C1002 C 0.90107 0.55973 0.70153 0.0
H1003 H 0.82971 0.57864 0.62773 0.0
H1004 H 0.85491 0.56809 0.61337 0.0
H1005 H 0.83502 0.55262 0.65063 0.0
H1006 H 0.85876 0.53101 0.73236 0.0
H1007 H 0.8831 0.50347 0.71655 0.0
H1008 H 0.06394 0.20156 0.05654 0.0
H1009 H 0.05849 0.1736 0.97544 0.0
H1010 H 0.01597 0.21015 0.8569 0.0
H1011 H 0.01893 0.2375 0.94648 0.0
H1012 H 1.00151 0.17659 0.84985 0.0
H1013 H 0.08124 0.15785 0.79885 0.0
H1014 H 0.07805 0.15572 0.89235 0.0
H1015 H 0.07452 0.18021 0.84998 0.0
C1016 C 0.05302 0.20378 0.01436 0.0
C1017 C 0.04135 0.22191 0.01064 0.0
C1018 C 0.05042 0.1877 0.96575 0.0
C1019 C 0.03721 0.18944 0.90751 0.0
C1020 C 0.02632 0.20802 0.90089 0.0
H1021 H 0.04256 0.08048 0.62209 0.0
H1022 H 0.0486 0.11404 0.67735 0.0
C1023 C 0.02824 0.22395 0.95191 0.0
C1024 C 0.03387 0.17136 0.85765 0.0
H1025 H 0.05767 0.1292 0.78665 0.0
C1026 C 0.01397 0.16654 0.83499 0.0
C1027 C 0.04989 0.15816 0.83473 0.0
C1028 C 0.07209 0.16348 0.84461 0.0
C1029 C 1.00963 0.14891 0.79366 0.0
C1030 C 0.02528 0.13438 0.77885 0.0
C1031 C 0.0453 0.13963 0.79897 0.0
C1032 C 0.02139 0.11385 0.74297 0.0
C1033 C 0.98831 0.14672 0.7645 0.0
C1034 C 1.00423 0.10194 0.76039 0.0
C1035 C 1.00035 0.08319 0.72601 0.0
C1036 C 0.01428 0.07489 0.6772 0.0
C1037 C 0.0318 0.08625 0.66096 0.0
C1038 C 0.03521 0.10554 0.69282 0.0
H1039 H 0.98143 0.16194 0.75448 0.0
H1040 H 0.98805 0.13783 0.71408 0.0
H1041 H 0.97854 0.13905 0.80412 0.0
H1042 H 0.99376 0.10695 0.80118 0.0
H1043 H 0.98663 0.07484 0.73913 0.0
H1044 H 0.31437 0.07817 0.90607 0.0
H1045 H 0.34283 0.07024 0.82613 0.0
H1046 H 0.35377 0.01434 0.93928 0.0
H1047 H 0.3248 0.02193 0.01675 0.0
H1048 H 0.38035 0.06908 0.86154 0.0
H1049 H 0.364 0.99328 0.7454 0.0
H1050 H 0.34475 1.00809 0.79094 0.0
H1051 H 0.36223 0.99232 0.83998 0.0
C1052 C 0.32227 0.06373 0.91142 0.0
C1053 C 0.31699 0.05037 0.96623 0.0
C1054 C 0.33873 0.05928 0.86631 0.0
C1055 C 0.35052 0.04151 0.87556 0.0
C1056 C 0.3447 0.0278 0.92891 0.0
H1057 H 0.46868 0.99336 0.76934 0.0
H1058 H 0.4344 1.00157 0.81173 0.0
C1059 C 0.32806 0.03212 0.97336 0.0
C1060 C 0.37018 0.03861 0.83586 0.0
H1061 H 0.39945 1.00313 0.74832 0.0
C1062 C 0.38437 0.05472 0.83589 0.0
C1063 C 0.37559 0.02 0.80156 0.0
C1064 C 0.36072 1.00255 0.79376 0.0
C1065 C 0.40399 0.05245 0.80652 0.0
C1066 C 0.40986 0.03344 0.77574 0.0
C1067 C 0.39533 0.01761 0.77298 0.0
C1068 C 0.43117 0.02911 0.75004 0.0
C1069 C 0.41839 0.07032 0.81172 0.0
C1070 C 0.44116 0.04176 0.70098 0.0
C1071 C 0.46112 0.03734 0.67825 0.0
C1072 C 0.47141 0.01992 0.70287 0.0
C1073 C 0.46127 1.00705 0.75033 0.0
C1074 C 0.44157 1.01169 0.7742 0.0
H1075 H 0.41396 0.08122 0.85457 0.0
H1076 H 0.43407 0.06506 0.82187 0.0
H1077 H 0.41823 0.07871 0.76096 0.0
H1078 H 0.43344 0.05489 0.67922 0.0
H1079 H 0.46822 0.0472 0.63981 0.0
H1080 H 0.5234 0.31136 0.97061 0.0
H1081 H 0.52894 0.34113 0.89435 0.0
H1082 H 0.46412 0.34611 0.86152 0.0
H1083 H 0.4586 0.31686 0.93917 0.0
H1084 H 0.51988 0.35302 0.75749 0.0
H1085 H 0.47704 0.40111 0.94947 0.0
H1086 H 0.48448 0.37522 0.9685 0.0
H1087 H 0.4623 0.38015 0.91517 0.0
C1088 C 0.51042 0.31847 0.94529 0.0
C1089 C 0.49058 0.3117 0.96034 0.0
C1090 C 0.51357 0.3356 0.90215 0.0
C1091 C 0.49692 0.3463 0.87345 0.0
C1092 C 0.47721 0.33854 0.88435 0.0
H1093 H 0.48133 0.46413 0.66618 0.0
H1094 H 0.47688 0.42959 0.71212 0.0
C1095 C 0.47406 0.32162 0.92792 0.0
C1096 C 0.49996 0.3662 0.83615 0.0
H1097 H 0.48637 0.41674 0.84191 0.0
C1098 C 0.51256 0.36695 0.77599 0.0
C1099 C 0.49061 0.38455 0.86039 0.0
C1100 C 0.47803 0.38534 0.9273 0.0
C1101 C 0.51565 0.3853 0.7387 0.0
C1102 C 0.50605 0.40358 0.76248 0.0
C1103 C 0.49354 0.40279 0.8228 0.0
C1104 C 0.50906 0.42385 0.72753 0.0
C1105 C 0.52904 0.38474 0.67379 0.0
C1106 C 0.52863 0.43227 0.71967 0.0
C1107 C 0.53121 0.45207 0.69314 0.0
C1108 C 0.51428 0.46415 0.6749 0.0
C1109 C 0.49473 0.45546 0.6807 0.0
C1110 C 0.49216 0.43563 0.70689 0.0
H1111 H 0.52865 0.36944 0.64763 0.0
H1112 H 0.5245 0.39639 0.63461 0.0
H1113 H 0.54501 0.3878 0.69 0.0
H1114 H 0.54194 0.42379 0.73629 0.0
H1115 H 0.54648 0.45813 0.6895 0.0
H1116 H 0.24407 0.47635 0.90832 0.0
H1117 H 0.21454 0.48151 0.83038 0.0
H1118 H 0.19389 0.53064 0.96676 0.0
H1119 H 0.22372 0.5259 0.04259 0.0
H1120 H 0.17677 0.47536 0.86202 0.0
H1121 H 0.18164 0.55599 0.78177 0.0
H1122 H 0.20278 0.54294 0.82248 0.0
H1123 H 0.18285 0.55404 0.87627 0.0
C1124 C 0.23371 0.48886 0.9195 0.0
C1125 C 0.23655 0.50117 0.98017 0.0
C1126 C 0.21664 0.49166 0.87552 0.0
C1127 C 0.2019 0.50669 0.89161 0.0
C1128 C 0.20518 0.51939 0.95125 0.0
H1129 H 0.07273 0.49814 0.80379 0.0
H1130 H 0.10733 0.49579 0.84905 0.0
C1131 C 0.22231 0.51671 0.99473 0.0
C1132 C 0.18219 0.50766 0.85105 0.0
H1133 H 0.14827 0.54059 0.77445 0.0
C1134 C 0.17073 0.48963 0.84213 0.0
C1135 C 0.17417 0.52612 0.8237 0.0
C1136 C 0.18613 0.5458 0.82585 0.0
C1137 C 0.15141 0.48966 0.80943 0.0
C1138 C 0.14279 0.50836 0.7866 0.0
C1139 C 0.15456 0.52626 0.79285 0.0
C1140 C 0.12147 0.50971 0.75795 0.0
C1141 C 0.14055 0.46952 0.79915 0.0
C1142 C 0.11742 0.51898 0.69247 0.0
C1143 C 0.09736 0.52049 0.66663 0.0
C1144 C 0.0808 0.51269 0.70542 0.0
C1145 C 0.08494 0.50367 0.77118 0.0
C1146 C 0.1049 0.50233 0.79728 0.0
H1147 H 0.15152 0.45659 0.79638 0.0
H1148 H 0.13035 0.46687 0.84498 0.0
H1149 H 0.13123 0.46939 0.75003 0.0
H1150 H 0.1298 0.52499 0.66105 0.0
H1151 H 0.09488 0.52773 0.61608 0.0
H1152 H 0.99816 0.8435 0.15105 0.0
H1153 H 1.0048 0.87244 0.22783 0.0
H1154 H 0.01291 0.83215 0.4049 0.0
H1155 H 1.00394 0.80271 0.32832 0.0
H1156 H 0.99399 0.86398 0.45152 0.0
H1157 H 0.05622 0.89498 0.29138 0.0
H1158 H 0.03407 0.89332 0.23651 0.0
H1159 H 0.04532 0.87032 0.2718 0.0
C1160 C 1.00106 0.84056 0.20648 0.0
C1161 C 1.0 0.82051 0.2332 0.0
C1162 C 1.00537 0.85733 0.25048 0.0
C1163 C 1.00994 0.8548 0.32253 0.0
C1164 C 1.00955 0.83473 0.34953 0.0
H1165 H 0.05952 0.96505 0.52421 0.0
H1166 H 0.05454 0.93092 0.47484 0.0
C1167 C 1.00465 0.81779 0.30543 0.0
C1168 C 0.01441 0.87329 0.36866 0.0
H1169 H 0.03907 0.91933 0.36746 0.0
C1170 C 1.00415 0.87592 0.43366 0.0
C1171 C 0.02798 0.88894 0.34721 0.0
C1172 C 0.04167 0.88659 0.28334 0.0
C1173 C 1.0066 0.89377 0.47605 0.0
C1174 C 0.01891 0.91014 0.45156 0.0
C1175 C 0.02942 0.9072 0.38716 0.0
C1176 C 0.02184 0.93018 0.49135 0.0
C1177 C 0.99641 0.89439 0.54752 0.0
C1178 C 1.00543 0.94137 0.52104 0.0
C1179 C 1.0085 0.96088 0.55202 0.0
C1180 C 0.02786 0.97012 0.55083 0.0
C1181 C 0.04429 0.95868 0.5239 0.0
C1182 C 0.04138 0.93906 0.49521 0.0
H1183 H 0.99453 0.87878 0.56914 0.0
H1184 H 1.00535 0.90361 0.58595 0.0
H1185 H 0.98099 0.90118 0.5423 0.0
H1186 H 0.99007 0.93547 0.51818 0.0
H1187 H 0.99563 0.969 0.57464 0.0
H1188 H 0.7158 0.02493 0.21863 0.0
H1189 H 0.68671 0.03329 0.29497 0.0
H1190 H 0.70224 0.98303 0.43083 0.0
H1191 H 0.73101 0.97439 0.35303 0.0
H1192 H 0.6638 0.98064 0.39359 0.0
H1193 H 0.67715 0.06003 0.48364 0.0
H1194 H 0.67872 0.05779 0.38907 0.0
H1195 H 0.69695 0.04464 0.44356 0.0
C1196 C 0.7135 0.01626 0.26655 0.0
C1197 C 0.72602 0.99938 0.28105 0.0
C1198 C 0.69679 0.021 0.31024 0.0
C1199 C 0.69226 1.009 0.36969 0.0
C1200 C 0.70538 0.99266 0.38582 0.0
H1201 H 0.57769 1.00289 0.62228 0.0
H1202 H 0.612 0.9957 0.577 0.0
C1203 C 0.722 0.98786 0.34186 0.0
C1204 C 0.6727 1.01199 0.40975 0.0
H1205 H 0.6427 0.048 0.49118 0.0
C1206 C 0.65929 0.99534 0.41563 0.0
C1207 C 0.6667 0.03109 0.43909 0.0
C1208 C 0.68074 0.04933 0.43922 0.0
C1209 C 0.63983 0.99742 0.44653 0.0
C1210 C 0.63342 0.01675 0.4734 0.0
C1211 C 0.64721 0.03322 0.46978 0.0
C1212 C 0.61233 0.02065 0.50219 0.0
C1213 C 0.62621 0.9789 0.44716 0.0
C1214 C 0.60103 0.0375 0.47797 0.0
C1215 C 0.58168 0.04195 0.50553 0.0
C1216 C 0.57273 0.02935 0.55655 0.0
C1217 C 0.58386 1.01245 0.58108 0.0
C1218 C 0.60354 1.00832 0.5549 0.0
H1219 H 0.63045 0.96765 0.40515 0.0
H1220 H 0.62767 0.9712 0.49901 0.0
H1221 H 0.61013 0.98325 0.43948 0.0
H1222 H 0.60724 0.04738 0.43771 0.0
H1223 H 0.5736 0.05527 0.48657 0.0
H1224 H 0.50743 0.74259 0.33347 0.0
H1225 H 0.50737 0.71263 0.41008 0.0
H1226 H 0.57267 0.70828 0.3907 0.0
H1227 H 0.57271 0.73849 0.31437 0.0
H1228 H 0.52044 0.67529 0.35697 0.0
H1229 H 0.56376 0.69503 0.60099 0.0
H1230 H 0.55314 0.71424 0.54361 0.0
H1231 H 0.57625 0.70124 0.5193 0.0
C1232 C 0.52186 0.73579 0.34828 0.0
C1233 C 0.54012 0.74312 0.3191 0.0
C1234 C 0.5218 0.71853 0.39148 0.0
C1235 C 0.54001 0.70812 0.4066 0.0
C1236 C 0.55845 0.71619 0.38112 0.0
H1237 H 0.56444 0.58671 0.5803 0.0
H1238 H 0.5673 0.62144 0.53394 0.0
C1239 C 0.55851 0.73355 0.33779 0.0
C1240 C 0.53921 0.68759 0.4407 0.0
H1241 H 0.55545 0.65998 0.58319 0.0
C1242 C 0.528 0.67202 0.4067 0.0
C1243 C 0.54929 0.68314 0.50509 0.0
C1244 C 0.56117 0.6993 0.54488 0.0
C1245 C 0.52668 0.65223 0.43474 0.0
C1246 C 0.53643 0.64783 0.49983 0.0
C1247 C 0.54786 0.66331 0.53359 0.0
C1248 C 0.53484 0.62722 0.53306 0.0
C1249 C 0.51523 0.63606 0.39322 0.0
C1250 C 0.51572 0.61899 0.55032 0.0
C1251 C 0.51402 0.59901 0.57572 0.0
C1252 C 0.53141 0.58671 0.58494 0.0
C1253 C 0.55065 0.59543 0.57168 0.0
C1254 C 0.55234 0.61541 0.5458 0.0
H1255 H 0.51372 0.64015 0.33647 0.0
H1256 H 0.52294 0.62099 0.39657 0.0
H1257 H 0.49966 0.63453 0.41535 0.0
H1258 H 0.502 0.62794 0.54301 0.0
H1259 H 0.49896 0.5931 0.58653 0.0
H1260 H 0.79564 0.55369 0.33766 0.0
H1261 H 0.82427 0.54606 0.41714 0.0
H1262 H 0.86459 0.54225 0.23708 0.0
H1263 H 0.83612 0.54781 0.15823 0.0
H1264 H 0.87499 0.51481 0.31987 0.0
H1265 H 0.86629 0.58435 0.48819 0.0
H1266 H 0.84423 0.56817 0.48609 0.0
H1267 H 0.85234 0.5807 0.4067 0.0
C1268 C 0.81056 0.55093 0.31507 0.0
C1269 C 0.81351 0.55199 0.24127 0.0
C1270 C 0.82708 0.54695 0.3608 0.0
C1271 C 0.84698 0.54429 0.33387 0.0
C1272 C 0.84963 0.54449 0.26006 0.0
H1273 H 0.96338 0.56296 0.54658 0.0
H1274 H 0.93016 0.56617 0.48873 0.0
C1275 C 0.83321 0.54798 0.21468 0.0
C1276 C 0.86524 0.54106 0.38071 0.0
H1277 H 0.89264 0.5616 0.51882 0.0
C1278 C 0.87879 0.52511 0.3633 0.0
C1279 C 0.87056 0.55457 0.43712 0.0
C1280 C 0.85775 0.57304 0.45542 0.0
C1281 C 0.89756 0.52268 0.39831 0.0
C1282 C 0.90265 0.53578 0.45618 0.0
C1283 C 0.88886 0.55142 0.47503 0.0
C1284 C 0.92253 0.53402 0.49528 0.0
C1285 C 0.91214 0.50673 0.36968 0.0
C1286 C 0.92939 0.51508 0.52049 0.0
C1287 C 0.94881 0.51309 0.55057 0.0
C1288 C 0.9617 0.53012 0.55906 0.0
C1289 C 0.95428 0.54935 0.53845 0.0
C1290 C 0.93506 0.55125 0.50631 0.0
H1291 H 0.90896 0.50303 0.31314 0.0
H1292 H 0.9282 0.5119 0.37395 0.0
H1293 H 0.91033 0.49241 0.39998 0.0
H1294 H 0.91983 0.50166 0.51619 0.0
H1295 H 0.95368 0.49807 0.56683 0.0
loop_
_geom_bond_atom_site_label_1
_geom_bond_atom_site_label_2
_geom_bond_distance
_geom_bond_site_symmetry_2
_ccdc_geom_bond_type
H0 C5 0.930 . S
H1 C8 0.930 . S
H2 C10 0.930 . S
H3 C4 1.016 . S
C4 H3 1.016 . S
C4 N11 1.286 . S
C5 H0 0.930 . S
C5 C6 1.397 . S
C5 C7 1.361 . S
C6 C5 1.397 . S
C6 C10 1.390 . S
C7 C5 1.361 . S
C7 C8 1.393 . S
C7 N11 1.413 . S
C8 H1 0.930 . S
C8 C7 1.393 . S
C8 C9 1.399 . S
C9 C8 1.399 . S
C9 C10 1.381 . S
C10 H2 0.930 . S
C10 C6 1.390 . S
C10 C9 1.381 . S
N11 C4 1.286 . S
N11 C7 1.413 . S
H12 C17 0.930 . S
H13 C20 0.930 . S
H14 C22 0.930 . S
H15 C16 1.016 . S
C16 H15 1.016 . S
C16 N23 1.286 . S
C17 H12 0.930 . S
C17 C18 1.397 . S
C17 C19 1.361 . S
C18 C17 1.397 . S
C18 C22 1.390 . S
C19 C17 1.361 . S
C19 C20 1.393 . S
C19 N23 1.413 . S
C20 H13 0.930 . S
C20 C19 1.393 . S
C20 C21 1.399 . S
C21 C20 1.399 . S
C21 C22 1.381 . S
C22 H14 0.930 . S
C22 C18 1.390 . S
C22 C21 1.381 . S
N23 C16 1.286 . S
N23 C19 1.413 . S
H24 C29 0.930 . S
H25 C32 0.930 . S
H26 C34 0.930 . S
H27 C28 1.016 . S
C28 H27 1.016 . S
C28 N35 1.286 . S
C29 H24 0.930 . S
C29 C30 1.397 . S
C29 C31 1.361 . S
C30 C29 1.397 . S
C30 C34 1.390 . S
C31 C29 1.361 . S
C31 C32 1.393 . S
C31 N35 1.413 . S
C32 H25 0.930 . S
C32 C31 1.393 . S
C32 C33 1.399 . S
C33 C32 1.399 . S
C33 C34 1.381 . S
C34 H26 0.930 . S
C34 C30 1.390 . S
C34 C33 1.381 . S
N35 C28 1.286 . S
N35 C31 1.413 . S
H36 C41 0.930 . S
H37 C44 0.930 . S
H38 C46 0.930 . S
H39 C40 1.016 . S
C40 H39 1.016 . S
C40 N47 1.286 . S
C41 H36 0.930 . S
C41 C42 1.397 . S
C41 C43 1.361 . S
C42 C41 1.397 . S
C42 C46 1.390 . S
C43 C41 1.361 . S
C43 C44 1.393 . S
C43 N47 1.413 . S
C44 H37 0.930 . S
C44 C43 1.393 . S
C44 C45 1.399 . S
C45 C44 1.399 . S
C45 C46 1.381 . S
C46 H38 0.930 . S
C46 C42 1.390 . S
C46 C45 1.381 . S
N47 C40 1.286 . S
N47 C43 1.413 . S
H48 C53 0.930 . S
H49 C56 0.930 . S
H50 C58 0.930 . S
H51 C52 1.016 . S
C52 H51 1.016 . S
C52 N59 1.286 . S
C53 H48 0.930 . S
C53 C54 1.397 . S
C53 C55 1.361 1_556 S
C54 C53 1.397 . S
C54 C58 1.390 . S
C55 C53 1.361 1_554 S
C55 C56 1.393 . S
C55 N59 1.413 . S
C56 H49 0.930 . S
C56 C55 1.393 . S
C56 C57 1.399 . S
C57 C56 1.399 . S
C57 C58 1.381 1_554 S
C58 H50 0.930 . S
C58 C54 1.390 . S
C58 C57 1.381 1_556 S
N59 C52 1.286 . S
N59 C55 1.413 . S
H60 C65 0.930 . S
H61 C68 0.930 . S
H62 C70 0.930 . S
H63 C64 1.016 . S
C64 H63 1.016 . S
C64 N71 1.286 . S
C65 H60 0.930 . S
C65 C66 1.397 . S
C65 C67 1.361 1_556 S
C66 C65 1.397 . S
C66 C70 1.390 . S
C67 C65 1.361 1_554 S
C67 C68 1.393 . S
C67 N71 1.413 . S
C68 H61 0.930 . S
C68 C67 1.393 . S
C68 C69 1.399 . S
C69 C68 1.399 . S
C69 C70 1.381 1_554 S
C70 H62 0.930 . S
C70 C66 1.390 . S
C70 C69 1.381 1_556 S
N71 C64 1.286 . S
N71 C67 1.413 . S
H72 C77 0.930 . S
H73 C80 0.930 . S
H74 C82 0.930 . S
H75 C76 1.016 . S
C76 H75 1.016 . S
C76 N83 1.286 . S
C77 H72 0.930 . S
C77 C78 1.397 . S
C77 C79 1.361 1_556 S
C78 C77 1.397 . S
C78 C82 1.390 . S
C79 C77 1.361 1_554 S
C79 C80 1.393 . S
C79 N83 1.413 . S
C80 H73 0.930 . S
C80 C79 1.393 . S
C80 C81 1.399 . S
C81 C80 1.399 . S
C81 C82 1.381 1_554 S
C82 H74 0.930 . S
C82 C78 1.390 . S
C82 C81 1.381 1_556 S
N83 C76 1.286 . S
N83 C79 1.413 . S
H84 C89 0.930 . S
H85 C92 0.930 . S
H86 C94 0.930 . S
H87 C88 1.016 . S
C88 H87 1.016 . S
C88 N95 1.286 . S
C89 H84 0.930 . S
C89 C90 1.397 . S
C89 C91 1.361 1_556 S
C90 C89 1.397 . S
C90 C94 1.390 . S
C91 C89 1.361 1_554 S
C91 C92 1.393 . S
C91 N95 1.413 . S
C92 H85 0.930 . S
C92 C91 1.393 . S
C92 C93 1.399 . S
C93 C92 1.399 . S
C93 C94 1.381 1_554 S
C94 H86 0.930 . S
C94 C90 1.390 . S
C94 C93 1.381 1_556 S
N95 C88 1.286 . S
N95 C91 1.413 . S
Tb96 N127 2.660 1_565 S
Tb96 N134 2.594 1_565 S
Tb96 O140 2.546 . S
Tb96 O141 2.610 1_455 S
Tb96 O143 2.330 1_455 S
Tb96 O144 2.552 . S
Tb96 O145 2.413 . S
Tb96 O147 2.362 1_565 S
Tb96 O148 2.421 . S
Tb96 C160 2.833 . S
C97 C100 1.411 1_545 S
C97 C101 1.414 . S
C97 N104 1.359 . S
C98 C100 1.449 . S
C98 C102 1.432 . S
C98 C110 1.410 . S
C99 C101 1.444 1_565 S
C99 C102 1.317 . S
C99 H122 0.929 . S
C100 C97 1.411 1_565 S
C100 C98 1.449 . S
C100 N108 1.350 1_565 S
C101 C97 1.414 . S
C101 C99 1.444 1_545 S
C101 C106 1.385 . S
C102 C98 1.432 . S
C102 C99 1.317 . S
C102 H114 0.930 . S
C103 C105 1.392 . S
C103 C106 1.370 . S
C103 H115 0.931 . S
N104 C97 1.359 . S
N104 C105 1.327 . S
N104 Tb107 2.600 . S
C105 C103 1.392 . S
C105 N104 1.327 . S
C105 H112 0.930 . S
C106 C101 1.385 . S
C106 C103 1.370 . S
C106 H125 0.930 . S
Tb107 N104 2.600 . S
Tb107 N108 2.660 . S
Tb107 O141 2.362 1_545 S
Tb107 O142 2.421 . S
Tb107 O146 2.546 . S
Tb107 O147 2.610 1_655 S
Tb107 O149 2.320 1_655 S
Tb107 O150 2.552 1_655 S
Tb107 O151 2.413 . S
Tb107 C171 2.833 . S
N108 C100 1.350 1_545 S
N108 Tb107 2.660 . S
N108 C109 1.305 1_645 S
C109 N108 1.305 1_465 S
C109 C111 1.407 . S
C109 H116 0.930 . S
C110 C98 1.410 . S
C110 C111 1.345 1_655 S
C110 H118 0.930 . S
C111 C109 1.407 . S
C111 C110 1.345 1_455 S
C111 H113 0.930 . S
H112 C105 0.930 . S
H113 C111 0.930 . S
H114 C102 0.930 . S
H115 C103 0.931 . S
H116 C109 0.930 . S
H117 C131 0.930 1_655 S
H118 C110 0.930 . S
H119 C137 0.930 . S
H120 C128 0.930 1_655 S
H121 C135 0.931 . S
H122 C99 0.929 . S
H123 C129 0.930 . S
H124 C162 0.930 . S
H125 C106 0.930 . S
H126 C161 0.929 . S
N127 Tb96 2.660 1_545 S
N127 C128 1.305 . S
N127 C132 1.360 . S
C128 H120 0.930 1_455 S
C128 N127 1.305 . S
C128 C131 1.407 . S
C129 H123 0.930 . S
C129 C130 1.410 . S
C129 C131 1.345 . S
C130 C129 1.410 . S
C130 C132 1.417 . S
C130 C162 1.432 . S
C131 H117 0.930 1_455 S
C131 C128 1.407 . S
C131 C129 1.345 . S
C132 N127 1.360 . S
C132 C130 1.417 . S
C132 C136 1.432 . S
H133 C138 0.930 . S
N134 Tb96 2.594 1_545 S
N134 C136 1.375 . S
N134 C137 1.315 1_545 S
C135 H121 0.931 . S
C135 C137 1.392 . S
C135 C138 1.370 1_565 S
C136 C132 1.432 . S
C136 N134 1.375 . S
C136 C139 1.414 . S
C137 H119 0.930 . S
C137 N134 1.315 1_565 S
C137 C135 1.392 . S
C138 H133 0.930 . S
C138 C135 1.370 1_545 S
C138 C139 1.385 . S
C139 C136 1.414 . S
C139 C138 1.385 . S
C139 C161 1.444 . S
O140 Tb96 2.546 . S
O140 C160 1.251 . S
O141 Tb96 2.610 1_655 S
O141 Tb107 2.362 1_565 S
O141 C152 1.283 . S
O142 Tb107 2.421 . S
O142 C159 1.262 . S
O143 Tb96 2.330 1_655 S
O143 C159 1.245 1_565 S
O144 Tb96 2.552 . S
O144 C152 1.243 1_455 S
O145 Tb96 2.413 . S
O145 C160 1.256 . S
O146 Tb107 2.546 . S
O146 C171 1.251 . S
O147 Tb96 2.362 1_545 S
O147 Tb107 2.610 1_455 S
O147 C163 1.283 . S
O148 Tb96 2.421 . S
O148 C170 1.262 1_565 S
O149 Tb107 2.320 1_455 S
O149 C170 1.260 . S
O150 Tb107 2.552 1_455 S
O150 C163 1.243 . S
O151 Tb107 2.413 . S
O151 C171 1.254 . S
C152 O141 1.283 . S
C152 O144 1.243 1_655 S
C153 C155 1.382 . S
C153 C157 1.393 . S
C153 C160 1.500 . S
C154 C155 1.400 . S
C154 C156 1.384 . S
C155 C153 1.382 . S
C155 C154 1.400 . S
C155 H172 0.930 1_455 S
C156 C154 1.384 . S
C156 C158 1.392 . S
C156 H173 0.931 . S
C157 C153 1.393 . S
C157 C158 1.401 . S
C157 H174 0.930 . S
C158 C156 1.392 . S
C158 C157 1.401 . S
C158 H175 0.930 . S
C159 O142 1.262 . S
C159 O143 1.245 1_545 S
C160 Tb96 2.833 . S
C160 O140 1.251 . S
C160 O145 1.256 . S
C160 C153 1.500 . S
C161 H126 0.929 . S
C161 C139 1.444 . S
C161 C162 1.317 . S
C162 H124 0.930 . S
C162 C130 1.432 . S
C162 C161 1.317 . S
C163 O147 1.283 . S
C163 O150 1.243 . S
C164 C165 1.347 1_655 S
C164 C168 1.393 . S
C164 C171 1.500 . S
C165 C164 1.347 1_455 S
C165 C166 1.398 1_455 S
C165 H176 0.968 . S
C166 C165 1.398 1_655 S
C166 C167 1.399 . S
C167 C166 1.399 . S
C167 C169 1.392 . S
C167 H177 0.931 . S
C168 C164 1.393 . S
C168 C169 1.401 . S
C168 H178 0.930 . S
C169 C167 1.392 . S
C169 C168 1.401 . S
C169 H179 0.930 . S
C170 O148 1.262 1_545 S
C170 O149 1.260 . S
C171 Tb107 2.833 . S
C171 O146 1.251 . S
C171 O151 1.254 . S
C171 C164 1.500 . S
H172 C155 0.930 1_655 S
H173 C156 0.931 . S
H174 C157 0.930 . S
H175 C158 0.930 . S
H176 C165 0.968 . S
H177 C167 0.931 . S
H178 C168 0.930 . S
H179 C169 0.930 . S
Tb180 N211 2.660 . S
Tb180 N218 2.600 . S
Tb180 O224 2.546 . S
Tb180 O225 2.610 . S
Tb180 O227 2.320 1_545 S
Tb180 O228 2.552 . S
Tb180 O229 2.413 . S
Tb180 O231 2.362 . S
Tb180 O232 2.421 . S
Tb180 C244 2.833 . S
C181 C184 1.432 . S
C181 C185 1.414 . S
C181 N188 1.359 . S
C182 C184 1.417 . S
C182 C186 1.432 . S
C182 C194 1.410 . S
C183 C185 1.444 . S
C183 C186 1.317 . S
C183 H206 0.929 . S
C184 C181 1.432 . S
C184 C182 1.417 . S
C184 N192 1.360 . S
C185 C181 1.414 . S
C185 C183 1.444 . S
C185 C190 1.385 . S
C186 C182 1.432 . S
C186 C183 1.317 . S
C186 H198 0.930 . S
C187 C189 1.392 . S
C187 C190 1.370 . S
C187 H199 0.931 . S
N188 C181 1.359 . S
N188 C189 1.327 . S
N188 Tb191 2.600 . S
C189 C187 1.392 . S
C189 N188 1.327 . S
C189 H196 0.930 . S
C190 C185 1.385 . S
C190 C187 1.370 . S
C190 H209 0.930 . S
Tb191 N188 2.600 . S
Tb191 N192 2.660 . S
Tb191 O225 2.362 1_565 S
Tb191 O226 2.421 . S
Tb191 O230 2.546 . S
Tb191 O231 2.610 1_565 S
Tb191 O233 2.320 1_565 S
Tb191 O234 2.552 1_565 S
Tb191 O235 2.413 1_565 S
Tb191 C255 2.833 . S
N192 C184 1.360 . S
N192 Tb191 2.660 . S
N192 C193 1.305 1_565 S
C193 N192 1.305 1_545 S
C193 C195 1.407 . S
C193 H200 0.930 . S
C194 C182 1.410 . S
C194 C195 1.345 1_565 S
C194 H202 0.930 . S
C195 C193 1.407 . S
C195 C194 1.345 1_545 S
C195 H197 0.930 . S
H196 C189 0.930 . S
H197 C195 0.930 . S
H198 C186 0.930 . S
H199 C187 0.931 . S
H200 C193 0.930 . S
H201 C215 0.930 1_565 S
H202 C194 0.930 . S
H203 C221 0.930 . S
H204 C212 0.930 1_565 S
H205 C219 0.931 . S
H206 C183 0.929 . S
H207 C213 0.930 . S
H208 C246 0.930 . S
H209 C190 0.930 . S
H210 C245 0.929 . S
N211 Tb180 2.660 . S
N211 C212 1.305 . S
N211 C216 1.360 . S
C212 H204 0.930 1_545 S
C212 N211 1.305 . S
C212 C215 1.407 . S
C213 H207 0.930 . S
C213 C214 1.410 . S
C213 C215 1.345 . S
C214 C213 1.410 . S
C214 C216 1.417 . S
C214 C246 1.432 . S
C215 H201 0.930 1_545 S
C215 C212 1.407 . S
C215 C213 1.345 . S
C216 N211 1.360 . S
C216 C214 1.417 . S
C216 C220 1.432 . S
H217 C222 0.930 . S
N218 Tb180 2.600 . S
N218 C220 1.359 . S
N218 C221 1.327 . S
C219 H205 0.931 . S
C219 C221 1.392 . S
C219 C222 1.370 . S
C220 C216 1.432 . S
C220 N218 1.359 . S
C220 C223 1.414 . S
C221 H203 0.930 . S
C221 N218 1.327 . S
C221 C219 1.392 . S
C222 H217 0.930 . S
C222 C219 1.370 . S
C222 C223 1.385 . S
C223 C220 1.414 . S
C223 C222 1.385 . S
C223 C245 1.444 . S
O224 Tb180 2.546 . S
O224 C244 1.251 . S
O225 Tb180 2.610 . S
O225 Tb191 2.362 1_545 S
O225 C236 1.282 . S
O226 Tb191 2.421 . S
O226 C243 1.262 . S
O227 Tb180 2.320 1_565 S
O227 C243 1.260 . S
O228 Tb180 2.552 . S
O228 C236 1.259 . S
O229 Tb180 2.413 . S
O229 C244 1.256 . S
O230 Tb191 2.546 . S
O230 C255 1.251 . S
O231 Tb180 2.362 . S
O231 Tb191 2.610 1_545 S
O231 C247 1.283 . S
O232 Tb180 2.421 . S
O232 C254 1.262 . S
O233 Tb191 2.320 1_545 S
O233 C254 1.260 . S
O234 Tb191 2.552 1_545 S
O234 C247 1.243 . S
O235 Tb191 2.413 1_545 S
O235 C255 1.256 1_545 S
C236 O225 1.282 . S
C236 O228 1.259 . S
C237 C239 1.382 . S
C237 C241 1.393 . S
C237 C244 1.500 . S
C238 C239 1.400 . S
C238 C240 1.384 . S
C239 C237 1.382 . S
C239 C238 1.400 . S
C239 H256 0.930 . S
C240 C238 1.384 . S
C240 C242 1.392 . S
C240 H257 0.931 . S
C241 C237 1.393 . S
C241 C242 1.401 . S
C241 H258 0.930 . S
C242 C240 1.392 . S
C242 C241 1.401 . S
C242 H259 0.930 . S
C243 O226 1.262 . S
C243 O227 1.260 . S
C244 Tb180 2.833 . S
C244 O224 1.251 . S
C244 O229 1.256 . S
C244 C237 1.500 . S
C245 H210 0.929 . S
C245 C223 1.444 . S
C245 C246 1.317 . S
C246 H208 0.930 . S
C246 C214 1.432 . S
C246 C245 1.317 . S
C247 O231 1.283 . S
C247 O234 1.243 . S
C248 C249 1.382 1_565 S
C248 C252 1.393 . S
C248 C255 1.500 . S
C249 C248 1.382 1_545 S
C249 C250 1.400 . S
C249 H260 0.930 . S
C250 C249 1.400 . S
C250 C251 1.384 1_545 S
C251 C250 1.384 1_565 S
C251 C253 1.392 . S
C251 H261 0.931 . S
C252 C248 1.393 . S
C252 C253 1.401 . S
C252 H262 0.930 . S
C253 C251 1.392 . S
C253 C252 1.401 . S
C253 H263 0.930 . S
C254 O232 1.262 . S
C254 O233 1.260 . S
C255 Tb191 2.833 . S
C255 O230 1.251 . S
C255 O235 1.256 1_565 S
C255 C248 1.500 . S
H256 C239 0.930 . S
H257 C240 0.931 . S
H258 C241 0.930 . S
H259 C242 0.930 . S
H260 C249 0.930 . S
H261 C251 0.931 . S
H262 C252 0.930 . S
H263 C253 0.930 . S
Tb264 N295 2.660 . S
Tb264 N302 2.600 . S
Tb264 O308 2.546 . S
Tb264 O309 2.610 . S
Tb264 O311 2.320 . S
Tb264 O312 2.552 . S
Tb264 O313 2.413 . S
Tb264 O315 2.362 . S
Tb264 O316 2.421 . S
Tb264 C328 2.833 . S
C265 C268 1.432 . S
C265 C269 1.414 . S
C265 N272 1.359 . S
C266 C268 1.417 . S
C266 C270 1.432 . S
C266 C278 1.410 . S
C267 C269 1.444 . S
C267 C270 1.317 . S
C267 H290 0.929 . S
C268 C265 1.432 . S
C268 C266 1.417 . S
C268 N276 1.360 . S
C269 C265 1.414 . S
C269 C267 1.444 . S
C269 C274 1.385 . S
C270 C266 1.432 . S
C270 C267 1.317 . S
C270 H282 0.930 . S
C271 C273 1.392 . S
C271 C274 1.370 . S
C271 H283 0.931 . S
N272 C265 1.359 . S
N272 C273 1.327 . S
N272 Tb275 2.600 . S
C273 C271 1.392 . S
C273 N272 1.327 . S
C273 H280 0.930 . S
C274 C269 1.385 . S
C274 C271 1.370 . S
C274 H293 0.930 . S
Tb275 N272 2.600 . S
Tb275 N276 2.660 . S
Tb275 O309 2.362 . S
Tb275 O310 2.421 . S
Tb275 O314 2.546 . S
Tb275 O315 2.610 . S
Tb275 O317 2.320 . S
Tb275 O318 2.552 . S
Tb275 O319 2.413 . S
Tb275 C339 2.833 . S
N276 C268 1.360 . S
N276 Tb275 2.660 . S
N276 C277 1.305 . S
C277 N276 1.305 . S
C277 C279 1.407 . S
C277 H284 0.930 . S
C278 C266 1.410 . S
C278 C279 1.345 . S
C278 H286 0.930 . S
C279 C277 1.407 . S
C279 C278 1.345 . S
C279 H281 0.930 . S
H280 C273 0.930 . S
H281 C279 0.930 . S
H282 C270 0.930 . S
H283 C271 0.931 . S
H284 C277 0.930 . S
H285 C299 0.930 . S
H286 C278 0.930 . S
H287 C305 0.930 . S
H288 C296 0.930 . S
H289 C303 0.931 . S
H290 C267 0.929 . S
H291 C297 0.930 . S
H292 C330 0.930 . S
H293 C274 0.930 . S
H294 C329 0.929 . S
N295 Tb264 2.660 . S
N295 C296 1.305 . S
N295 C300 1.360 . S
C296 H288 0.930 . S
C296 N295 1.305 . S
C296 C299 1.407 . S
C297 H291 0.930 . S
C297 C298 1.410 . S
C297 C299 1.345 . S
C298 C297 1.410 . S
C298 C300 1.417 . S
C298 C330 1.432 . S
C299 H285 0.930 . S
C299 C296 1.407 . S
C299 C297 1.345 . S
C300 N295 1.360 . S
C300 C298 1.417 . S
C300 C304 1.432 . S
H301 C306 0.930 . S
N302 Tb264 2.600 . S
N302 C304 1.359 . S
N302 C305 1.327 . S
C303 H289 0.931 . S
C303 C305 1.392 . S
C303 C306 1.370 . S
C304 C300 1.432 . S
C304 N302 1.359 . S
C304 C307 1.414 . S
C305 H287 0.930 . S
C305 N302 1.327 . S
C305 C303 1.392 . S
C306 H301 0.930 . S
C306 C303 1.370 . S
C306 C307 1.385 . S
C307 C304 1.414 . S
C307 C306 1.385 . S
C307 C329 1.444 . S
O308 Tb264 2.546 . S
O308 C328 1.251 . S
O309 Tb264 2.610 . S
O309 Tb275 2.362 . S
O309 C320 1.283 . S
O310 Tb275 2.421 . S
O310 C327 1.262 . S
O311 Tb264 2.320 . S
O311 C327 1.260 . S
O312 Tb264 2.552 . S
O312 C320 1.243 . S
O313 Tb264 2.413 . S
O313 C328 1.256 . S
O314 Tb275 2.546 . S
O314 C339 1.251 . S
O315 Tb264 2.362 . S
O315 Tb275 2.610 . S
O315 C331 1.283 . S
O316 Tb264 2.421 . S
O316 C338 1.262 . S
O317 Tb275 2.320 . S
O317 C338 1.260 . S
O318 Tb275 2.552 . S
O318 C331 1.243 . S
O319 Tb275 2.413 . S
O319 C339 1.256 . S
C320 O309 1.283 . S
C320 O312 1.243 . S
C321 C323 1.382 . S
C321 C325 1.393 . S
C321 C328 1.500 . S
C322 C323 1.400 . S
C322 C324 1.384 . S
C323 C321 1.382 . S
C323 C322 1.400 . S
C323 H340 0.930 . S
C324 C322 1.384 . S
C324 C326 1.392 . S
C324 H341 0.931 . S
C325 C321 1.393 . S
C325 C326 1.401 . S
C325 H342 0.930 . S
C326 C324 1.392 . S
C326 C325 1.401 . S
C326 H343 0.930 . S
C327 O310 1.262 . S
C327 O311 1.260 . S
C328 Tb264 2.833 . S
C328 O308 1.251 . S
C328 O313 1.256 . S
C328 C321 1.500 . S
C329 H294 0.929 . S
C329 C307 1.444 . S
C329 C330 1.317 . S
C330 H292 0.930 . S
C330 C298 1.432 . S
C330 C329 1.317 . S
C331 O315 1.283 . S
C331 O318 1.243 . S
C332 C333 1.382 . S
C332 C336 1.393 . S
C332 C339 1.500 . S
C333 C332 1.382 . S
C333 C334 1.400 . S
C333 H344 0.930 . S
C334 C333 1.400 . S
C334 C335 1.384 . S
C335 C334 1.384 . S
C335 C337 1.392 . S
C335 H345 0.931 . S
C336 C332 1.393 . S
C336 C337 1.401 . S
C336 H346 0.930 . S
C337 C335 1.392 . S
C337 C336 1.401 . S
C337 H347 0.930 1_556 S
C338 O316 1.262 . S
C338 O317 1.260 . S
C339 Tb275 2.833 . S
C339 O314 1.251 . S
C339 O319 1.256 . S
C339 C332 1.500 . S
H340 C323 0.930 . S
H341 C324 0.931 . S
H342 C325 0.930 . S
H343 C326 0.930 . S
H344 C333 0.930 . S
H345 C335 0.931 . S
H346 C336 0.930 . S
H347 C337 0.930 1_554 S
Tb348 N379 2.660 . S
Tb348 N386 2.600 . S
Tb348 O392 2.546 . S
Tb348 O393 2.610 . S
Tb348 O395 2.320 . S
Tb348 O396 2.552 . S
Tb348 O397 2.413 . S
Tb348 O399 2.362 . S
Tb348 O400 2.421 1_455 S
Tb348 C412 2.833 . S
C349 C352 1.432 . S
C349 C353 1.414 . S
C349 N356 1.359 . S
C350 C352 1.417 . S
C350 C354 1.432 . S
C350 C362 1.410 . S
C351 C353 1.444 . S
C351 C354 1.317 . S
C351 H374 0.929 . S
C352 C349 1.432 . S
C352 C350 1.417 . S
C352 N360 1.360 . S
C353 C349 1.414 . S
C353 C351 1.444 . S
C353 C358 1.385 1_655 S
C354 C350 1.432 . S
C354 C351 1.317 . S
C354 H366 0.930 . S
C355 C357 1.392 . S
C355 C358 1.370 . S
C355 H367 0.931 . S
N356 C349 1.359 . S
N356 C357 1.327 1_655 S
N356 Tb359 2.600 . S
C357 C355 1.392 . S
C357 N356 1.327 1_455 S
C357 H364 0.930 . S
C358 C353 1.385 1_455 S
C358 C355 1.370 . S
C358 H377 0.930 . S
Tb359 N356 2.600 . S
Tb359 N360 2.660 . S
Tb359 O393 2.362 1_655 S
Tb359 O394 2.421 1_655 S
Tb359 O398 2.546 . S
Tb359 O399 2.610 1_655 S
Tb359 O401 2.320 . S
Tb359 O402 2.552 . S
Tb359 O403 2.413 . S
Tb359 C423 2.833 . S
N360 C352 1.360 . S
N360 Tb359 2.660 . S
N360 C361 1.305 . S
C361 N360 1.305 . S
C361 C363 1.407 . S
C361 H368 0.930 . S
C362 C350 1.410 . S
C362 C363 1.345 . S
C362 H370 0.930 . S
C363 C361 1.407 . S
C363 C362 1.345 . S
C363 H365 0.930 . S
H364 C357 0.930 . S
H365 C363 0.930 . S
H366 C354 0.930 . S
H367 C355 0.931 . S
H368 C361 0.930 . S
H369 C383 0.930 . S
H370 C362 0.930 . S
H371 C389 0.930 1_655 S
H372 C380 0.930 . S
H373 C387 0.931 1_655 S
H374 C351 0.929 . S
H375 C381 0.930 . S
H376 C414 0.930 . S
H377 C358 0.930 . S
H378 C413 0.929 . S
N379 Tb348 2.660 . S
N379 C380 1.305 . S
N379 C384 1.360 . S
C380 H372 0.930 . S
C380 N379 1.305 . S
C380 C383 1.407 . S
C381 H375 0.930 . S
C381 C382 1.410 . S
C381 C383 1.345 . S
C382 C381 1.410 . S
C382 C384 1.417 . S
C382 C414 1.432 . S
C383 H369 0.930 . S
C383 C380 1.407 . S
C383 C381 1.345 . S
C384 N379 1.360 . S
C384 C382 1.417 . S
C384 C388 1.432 . S
H385 C390 0.930 . S
N386 Tb348 2.600 . S
N386 C388 1.359 . S
N386 C389 1.327 . S
C387 H373 0.931 1_455 S
C387 C389 1.392 . S
C387 C390 1.370 . S
C388 C384 1.432 . S
C388 N386 1.359 . S
C388 C391 1.414 . S
C389 H371 0.930 1_455 S
C389 N386 1.327 . S
C389 C387 1.392 . S
C390 H385 0.930 . S
C390 C387 1.370 . S
C390 C391 1.385 . S
C391 C388 1.414 . S
C391 C390 1.385 . S
C391 C413 1.444 . S
O392 Tb348 2.546 . S
O392 C412 1.251 . S
O393 Tb348 2.610 . S
O393 Tb359 2.362 1_455 S
O393 C404 1.283 . S
O394 Tb359 2.421 1_455 S
O394 C411 1.262 . S
O395 Tb348 2.320 . S
O395 C411 1.260 . S
O396 Tb348 2.552 . S
O396 C404 1.243 . S
O397 Tb348 2.413 . S
O397 C412 1.256 . S
O398 Tb359 2.546 . S
O398 C423 1.251 . S
O399 Tb348 2.362 . S
O399 Tb359 2.610 1_455 S
O399 C415 1.283 1_455 S
O400 Tb348 2.421 1_655 S
O400 C422 1.262 . S
O401 Tb359 2.320 . S
O401 C422 1.260 . S
O402 Tb359 2.552 . S
O402 C415 1.243 . S
O403 Tb359 2.413 . S
O403 C423 1.256 . S
C404 O393 1.283 . S
C404 O396 1.243 . S
C405 C407 1.382 . S
C405 C409 1.393 . S
C405 C412 1.500 . S
C406 C407 1.400 . S
C406 C408 1.384 . S
C407 C405 1.382 . S
C407 C406 1.400 . S
C407 H424 0.930 . S
C408 C406 1.384 . S
C408 C410 1.392 . S
C408 H425 0.931 . S
C409 C405 1.393 . S
C409 C410 1.401 . S
C409 H426 0.930 . S
C410 C408 1.392 . S
C410 C409 1.401 . S
C410 H427 0.930 . S
C411 O394 1.262 . S
C411 O395 1.260 . S
C412 Tb348 2.833 . S
C412 O392 1.251 . S
C412 O397 1.256 . S
C412 C405 1.500 . S
C413 H378 0.929 . S
C413 C391 1.444 . S
C413 C414 1.317 . S
C414 H376 0.930 . S
C414 C382 1.432 . S
C414 C413 1.317 . S
C415 O399 1.283 1_655 S
C415 O402 1.243 . S
C416 C417 1.382 . S
C416 C420 1.393 . S
C416 C423 1.500 . S
C417 C416 1.382 . S
C417 C418 1.400 . S
C417 H428 0.930 . S
C418 C417 1.400 . S
C418 C419 1.384 . S
C419 C418 1.384 . S
C419 C421 1.392 . S
C419 H429 0.931 . S
C420 C416 1.393 . S
C420 C421 1.401 . S
C420 H430 0.930 . S
C421 C419 1.392 . S
C421 C420 1.401 . S
C421 H431 0.930 1_556 S
C422 O400 1.262 . S
C422 O401 1.260 . S
C423 Tb359 2.833 . S
C423 O398 1.251 . S
C423 O403 1.256 . S
C423 C416 1.500 . S
H424 C407 0.930 . S
H425 C408 0.931 . S
H426 C409 0.930 . S
H427 C410 0.930 . S
H428 C417 0.930 . S
H429 C419 0.931 . S
H430 C420 0.930 . S
H431 C421 0.930 1_554 S
H432 C440 0.929 . S
H433 C442 0.930 . S
H434 C444 0.930 . S
H435 C447 0.929 . S
H436 C450 0.930 . S
H437 C452 0.960 1_565 S
H438 C452 0.960 . S
H439 C452 0.960 . S
C440 H432 0.929 . S
C440 C441 1.377 . S
C440 C442 1.384 . S
C441 C440 1.377 . S
C441 C447 1.390 . S
C442 H433 0.930 . S
C442 C440 1.384 . S
C442 C443 1.372 . S
C443 C442 1.372 . S
C443 C444 1.400 . S
C443 C448 1.490 . S
C444 H434 0.930 . S
C444 C443 1.400 . S
C444 C447 1.386 . S
H445 C461 0.930 . S
H446 C462 0.931 . S
C447 H435 0.929 . S
C447 C441 1.390 . S
C447 C444 1.386 . S
C448 C443 1.490 . S
C448 C450 1.395 . S
C448 C451 1.403 . S
H449 C455 0.930 . S
C450 H436 0.930 . S
C450 C448 1.395 . S
C450 C453 1.403 . S
C451 C448 1.403 . S
C451 C452 1.524 . S
C451 C455 1.400 . S
C452 H437 0.960 1_545 S
C452 H438 0.960 . S
C452 H439 0.960 . S
C452 C451 1.524 . S
C453 C450 1.403 . S
C453 C454 1.392 . S
C453 C457 1.495 . S
C454 C453 1.392 . S
C454 C455 1.385 . S
C454 C456 1.478 . S
C455 H449 0.930 . S
C455 C451 1.400 . S
C455 C454 1.385 . S
C456 C454 1.478 . S
C456 C458 1.381 . S
C456 C462 1.383 . S
C457 C453 1.495 . S
C457 H463 0.959 . S
C457 H464 0.961 . S
C457 H465 0.960 . S
C458 C456 1.381 . S
C458 C459 1.394 . S
C458 H466 0.930 . S
C459 C458 1.394 . S
C459 C460 1.383 . S
C459 H467 0.929 . S
C460 C459 1.383 . S
C460 C461 1.377 . S
C461 H445 0.930 . S
C461 C460 1.377 . S
C461 C462 1.379 . S
C462 H446 0.931 . S
C462 C456 1.383 . S
C462 C461 1.379 . S
H463 C457 0.959 . S
H464 C457 0.961 . S
H465 C457 0.960 . S
H466 C458 0.930 . S
H467 C459 0.929 . S
H468 C476 0.929 . S
H469 C478 0.930 . S
H470 C480 0.930 . S
H471 C483 0.929 . S
H472 C486 0.930 . S
H473 C488 0.960 . S
H474 C488 0.960 . S
H475 C488 0.960 . S
C476 H468 0.929 . S
C476 C477 1.377 . S
C476 C478 1.384 . S
C477 C476 1.377 . S
C477 C483 1.390 . S
C478 H469 0.930 . S
C478 C476 1.384 . S
C478 C479 1.372 . S
C479 C478 1.372 . S
C479 C480 1.400 . S
C479 C484 1.490 . S
C480 H470 0.930 . S
C480 C479 1.400 . S
C480 C483 1.386 . S
H481 C497 0.930 . S
H482 C498 0.931 . S
C483 H471 0.929 . S
C483 C477 1.390 . S
C483 C480 1.386 . S
C484 C479 1.490 . S
C484 C486 1.395 . S
C484 C487 1.403 . S
H485 C491 0.930 . S
C486 H472 0.930 . S
C486 C484 1.395 . S
C486 C489 1.403 . S
C487 C484 1.403 . S
C487 C488 1.524 . S
C487 C491 1.400 . S
C488 H473 0.960 . S
C488 H474 0.960 . S
C488 H475 0.960 . S
C488 C487 1.524 . S
C489 C486 1.403 . S
C489 C490 1.392 . S
C489 C493 1.495 . S
C490 C489 1.392 . S
C490 C491 1.385 . S
C490 C492 1.478 . S
C491 H485 0.930 . S
C491 C487 1.400 . S
C491 C490 1.385 . S
C492 C490 1.478 . S
C492 C494 1.381 . S
C492 C498 1.383 . S
C493 C489 1.495 . S
C493 H499 0.959 . S
C493 H500 0.961 . S
C493 H501 0.960 . S
C494 C492 1.381 . S
C494 C495 1.394 . S
C494 H502 0.930 . S
C495 C494 1.394 . S
C495 C496 1.383 . S
C495 H503 0.929 . S
C496 C495 1.383 . S
C496 C497 1.377 . S
C497 H481 0.930 . S
C497 C496 1.377 . S
C497 C498 1.379 . S
C498 H482 0.931 . S
C498 C492 1.383 . S
C498 C497 1.379 . S
H499 C493 0.959 . S
H500 C493 0.961 . S
H501 C493 0.960 . S
H502 C494 0.930 . S
H503 C495 0.929 . S
H504 C512 0.929 . S
H505 C514 0.930 . S
H506 C516 0.930 . S
H507 C519 0.929 . S
H508 C522 0.930 . S
H509 C524 0.960 . S
H510 C524 0.960 . S
H511 C524 0.960 . S
C512 H504 0.929 . S
C512 C513 1.377 . S
C512 C514 1.384 . S
C513 C512 1.377 . S
C513 C519 1.390 . S
C514 H505 0.930 . S
C514 C512 1.384 . S
C514 C515 1.372 . S
C515 C514 1.372 . S
C515 C516 1.400 . S
C515 C520 1.490 . S
C516 H506 0.930 . S
C516 C515 1.400 . S
C516 C519 1.386 . S
H517 C533 0.930 . S
H518 C534 0.931 . S
C519 H507 0.929 . S
C519 C513 1.390 . S
C519 C516 1.386 . S
C520 C515 1.490 . S
C520 C522 1.395 . S
C520 C523 1.403 . S
H521 C527 0.930 . S
C522 H508 0.930 . S
C522 C520 1.395 . S
C522 C525 1.403 . S
C523 C520 1.403 . S
C523 C524 1.524 . S
C523 C527 1.400 . S
C524 H509 0.960 . S
C524 H510 0.960 . S
C524 H511 0.960 . S
C524 C523 1.524 . S
C525 C522 1.403 . S
C525 C526 1.392 . S
C525 C529 1.495 . S
C526 C525 1.392 . S
C526 C527 1.385 . S
C526 C528 1.478 . S
C527 H521 0.930 . S
C527 C523 1.400 . S
C527 C526 1.385 . S
C528 C526 1.478 . S
C528 C530 1.381 . S
C528 C534 1.383 . S
C529 C525 1.495 . S
C529 H535 0.959 . S
C529 H536 0.961 . S
C529 H537 0.960 . S
C530 C528 1.381 . S
C530 C531 1.394 . S
C530 H538 0.930 . S
C531 C530 1.394 . S
C531 C532 1.383 . S
C531 H539 0.929 . S
C532 C531 1.383 . S
C532 C533 1.377 . S
C533 H517 0.930 . S
C533 C532 1.377 . S
C533 C534 1.379 . S
C534 H518 0.931 . S
C534 C528 1.383 . S
C534 C533 1.379 . S
H535 C529 0.959 . S
H536 C529 0.961 . S
H537 C529 0.960 . S
H538 C530 0.930 . S
H539 C531 0.929 . S
H540 C548 0.929 . S
H541 C550 0.930 . S
H542 C552 0.930 . S
H543 C555 0.929 . S
H544 C558 0.930 . S
H545 C560 0.960 . S
H546 C560 0.960 . S
H547 C560 0.960 . S
C548 H540 0.929 . S
C548 C549 1.377 . S
C548 C550 1.384 . S
C549 C548 1.377 . S
C549 C555 1.390 . S
C550 H541 0.930 . S
C550 C548 1.384 . S
C550 C551 1.372 . S
C551 C550 1.372 . S
C551 C552 1.400 . S
C551 C556 1.490 . S
C552 H542 0.930 . S
C552 C551 1.400 . S
C552 C555 1.386 . S
H553 C569 0.930 . S
H554 C570 0.931 . S
C555 H543 0.929 . S
C555 C549 1.390 . S
C555 C552 1.386 . S
C556 C551 1.490 . S
C556 C558 1.395 . S
C556 C559 1.403 . S
H557 C563 0.930 . S
C558 H544 0.930 . S
C558 C556 1.395 . S
C558 C561 1.403 . S
C559 C556 1.403 . S
C559 C560 1.524 . S
C559 C563 1.400 . S
C560 H545 0.960 . S
C560 H546 0.960 . S
C560 H547 0.960 . S
C560 C559 1.524 . S
C561 C558 1.403 . S
C561 C562 1.392 . S
C561 C565 1.495 1_455 S
C562 C561 1.392 . S
C562 C563 1.385 . S
C562 C564 1.478 . S
C563 H557 0.930 . S
C563 C559 1.400 . S
C563 C562 1.385 . S
C564 C562 1.478 . S
C564 C566 1.381 . S
C564 C570 1.383 . S
C565 C561 1.495 1_655 S
C565 H571 0.959 . S
C565 H572 0.961 . S
C565 H573 0.960 . S
C566 C564 1.381 . S
C566 C567 1.394 . S
C566 H574 0.930 . S
C567 C566 1.394 . S
C567 C568 1.383 . S
C567 H575 0.929 . S
C568 C567 1.383 . S
C568 C569 1.377 . S
C569 H553 0.930 . S
C569 C568 1.377 . S
C569 C570 1.379 . S
C570 H554 0.931 . S
C570 C564 1.383 . S
C570 C569 1.379 . S
H571 C565 0.959 . S
H572 C565 0.961 . S
H573 C565 0.960 . S
H574 C566 0.930 . S
H575 C567 0.929 . S
H576 C584 0.929 . S
H577 C586 0.930 . S
H578 C588 0.930 . S
H579 C591 0.929 . S
H580 C594 0.930 1_544 S
H581 C596 0.960 . S
H582 C596 0.960 . S
H583 C596 0.960 . S
C584 H576 0.929 . S
C584 C585 1.377 . S
C584 C586 1.384 . S
C585 C584 1.377 . S
C585 C591 1.390 . S
C586 H577 0.930 . S
C586 C584 1.384 . S
C586 C587 1.372 . S
C587 C586 1.372 . S
C587 C588 1.400 . S
C587 C592 1.490 1_554 S
C588 H578 0.930 . S
C588 C587 1.400 . S
C588 C591 1.386 . S
H589 C605 0.930 . S
H590 C606 0.931 . S
C591 H579 0.929 . S
C591 C585 1.390 . S
C591 C588 1.386 . S
C592 C587 1.490 1_556 S
C592 C594 1.395 . S
C592 C595 1.403 . S
H593 C599 0.930 . S
C594 H580 0.930 1_566 S
C594 C592 1.395 . S
C594 C597 1.409 . S
C595 C592 1.403 . S
C595 C596 1.524 . S
C595 C599 1.400 . S
C596 H581 0.960 . S
C596 H582 0.960 . S
C596 H583 0.960 . S
C596 C595 1.524 . S
C597 C594 1.409 . S
C597 C598 1.406 . S
C597 C601 1.477 1_565 S
C598 C597 1.406 . S
C598 C599 1.385 . S
C598 C600 1.478 . S
C599 H593 0.930 . S
C599 C595 1.400 . S
C599 C598 1.385 . S
C600 C598 1.478 . S
C600 C602 1.381 1_565 S
C600 C606 1.383 . S
C601 C597 1.477 1_545 S
C601 H607 0.959 . S
C601 H608 0.961 . S
C601 H609 0.960 . S
C602 C600 1.381 1_545 S
C602 C603 1.394 . S
C602 H610 0.930 . S
C603 C602 1.394 . S
C603 C604 1.383 1_545 S
C603 H611 0.929 . S
C604 C603 1.383 1_565 S
C604 C605 1.377 . S
C605 H589 0.930 . S
C605 C604 1.377 . S
C605 C606 1.379 . S
C606 H590 0.931 . S
C606 C600 1.383 . S
C606 C605 1.379 . S
H607 C601 0.959 . S
H608 C601 0.961 . S
H609 C601 0.960 . S
H610 C602 0.930 . S
H611 C603 0.929 . S
H612 C620 0.929 . S
H613 C622 0.930 1_556 S
H614 C624 0.930 . S
H615 C627 0.929 . S
H616 C630 0.930 . S
H617 C632 0.960 . S
H618 C632 0.960 . S
H619 C632 0.960 . S
C620 H612 0.929 . S
C620 C621 1.377 . S
C620 C622 1.384 . S
C621 C620 1.377 . S
C621 C627 1.390 . S
C622 H613 0.930 1_554 S
C622 C620 1.384 . S
C622 C623 1.372 . S
C623 C622 1.372 . S
C623 C624 1.400 . S
C623 C628 1.490 1_554 S
C624 H614 0.930 . S
C624 C623 1.400 . S
C624 C627 1.386 . S
H625 C641 0.930 . S
H626 C642 0.931 . S
C627 H615 0.929 . S
C627 C621 1.390 . S
C627 C624 1.386 . S
C628 C623 1.490 1_556 S
C628 C630 1.395 . S
C628 C631 1.403 . S
H629 C635 0.930 . S
C630 H616 0.930 . S
C630 C628 1.395 . S
C630 C633 1.403 . S
C631 C628 1.403 . S
C631 C632 1.524 1_556 S
C631 C635 1.400 . S
C632 H617 0.960 . S
C632 H618 0.960 . S
C632 H619 0.960 . S
C632 C631 1.524 1_554 S
C633 C630 1.403 . S
C633 C634 1.392 . S
C633 C637 1.495 . S
C634 C633 1.392 . S
C634 C635 1.385 . S
C634 C636 1.478 . S
C635 H629 0.930 . S
C635 C631 1.400 . S
C635 C634 1.385 . S
C636 C634 1.478 . S
C636 C638 1.381 . S
C636 C642 1.383 . S
C637 C633 1.495 . S
C637 H643 0.959 . S
C637 H644 0.961 . S
C637 H645 0.960 . S
C638 C636 1.381 . S
C638 C639 1.394 . S
C638 H646 0.930 . S
C639 C638 1.394 . S
C639 C640 1.383 . S
C639 H647 0.929 . S
C640 C639 1.383 . S
C640 C641 1.377 . S
C641 H625 0.930 . S
C641 C640 1.377 . S
C641 C642 1.379 . S
C642 H626 0.931 . S
C642 C636 1.383 . S
C642 C641 1.379 . S
H643 C637 0.959 . S
H644 C637 0.961 . S
H645 C637 0.960 . S
H646 C638 0.930 . S
H647 C639 0.929 . S
H648 C656 0.929 . S
H649 C658 0.930 . S
H650 C660 0.930 1_556 S
H651 C663 0.929 . S
H652 C666 0.930 . S
H653 C668 0.960 . S
H654 C668 0.960 . S
H655 C668 0.960 . S
C656 H648 0.929 . S
C656 C657 1.377 . S
C656 C658 1.384 . S
C657 C656 1.377 . S
C657 C663 1.390 . S
C658 H649 0.930 . S
C658 C656 1.384 . S
C658 C659 1.372 . S
C659 C658 1.372 . S
C659 C660 1.400 . S
C659 C664 1.490 1_554 S
C660 H650 0.930 1_554 S
C660 C659 1.400 . S
C660 C663 1.386 . S
H661 C677 0.930 . S
H662 C678 0.931 . S
C663 H651 0.929 . S
C663 C657 1.390 . S
C663 C660 1.386 . S
C664 C659 1.490 1_556 S
C664 C666 1.395 1_556 S
C664 C667 1.403 . S
H665 C671 0.930 . S
C666 H652 0.930 . S
C666 C664 1.395 1_554 S
C666 C669 1.403 1_554 S
C667 C664 1.403 . S
C667 C668 1.524 . S
C667 C671 1.400 . S
C668 H653 0.960 . S
C668 H654 0.960 . S
C668 H655 0.960 . S
C668 C667 1.524 . S
C669 C666 1.403 1_556 S
C669 C670 1.392 . S
C669 C673 1.495 . S
C670 C669 1.392 . S
C670 C671 1.385 . S
C670 C672 1.478 . S
C671 H665 0.930 . S
C671 C667 1.400 . S
C671 C670 1.385 . S
C672 C670 1.478 . S
C672 C674 1.381 . S
C672 C678 1.383 . S
C673 C669 1.495 . S
C673 H679 0.959 1_556 S
C673 H680 0.961 . S
C673 H681 0.960 . S
C674 C672 1.381 . S
C674 C675 1.394 . S
C674 H682 0.930 . S
C675 C674 1.394 . S
C675 C676 1.383 . S
C675 H683 0.929 . S
C676 C675 1.383 . S
C676 C677 1.377 . S
C677 H661 0.930 . S
C677 C676 1.377 . S
C677 C678 1.379 . S
C678 H662 0.931 . S
C678 C672 1.383 . S
C678 C677 1.379 . S
H679 C673 0.959 1_554 S
H680 C673 0.961 . S
H681 C673 0.960 . S
H682 C674 0.930 . S
H683 C675 0.929 . S
H684 C692 0.929 . S
H685 C694 0.930 . S
H686 C696 0.930 . S
H687 C699 0.929 . S
H688 C702 0.930 1_554 S
H689 C704 0.960 . S
H690 C704 0.960 . S
H691 C704 0.960 . S
C692 H684 0.929 . S
C692 C693 1.377 . S
C692 C694 1.384 . S
C693 C692 1.377 . S
C693 C699 1.390 . S
C694 H685 0.930 . S
C694 C692 1.384 . S
C694 C695 1.372 . S
C695 C694 1.372 . S
C695 C696 1.400 . S
C695 C700 1.490 1_554 S
C696 H686 0.930 . S
C696 C695 1.400 . S
C696 C699 1.386 . S
H697 C713 0.930 . S
H698 C714 0.931 . S
C699 H687 0.929 . S
C699 C693 1.390 . S
C699 C696 1.386 . S
C700 C695 1.490 1_556 S
C700 C702 1.395 . S
C700 C703 1.403 . S
H701 C707 0.930 . S
C702 H688 0.930 1_556 S
C702 C700 1.395 . S
C702 C705 1.403 . S
C703 C700 1.403 . S
C703 C704 1.524 . S
C703 C707 1.400 . S
C704 H689 0.960 . S
C704 H690 0.960 . S
C704 H691 0.960 . S
C704 C703 1.524 . S
C705 C702 1.403 . S
C705 C706 1.392 . S
C705 C709 1.495 1_655 S
C706 C705 1.392 . S
C706 C707 1.385 . S
C706 C708 1.478 . S
C707 H701 0.930 . S
C707 C703 1.400 . S
C707 C706 1.385 . S
C708 C706 1.478 . S
C708 C710 1.385 1_655 S
C708 C714 1.383 . S
C709 C705 1.495 1_455 S
C709 H715 0.959 . S
C709 H716 0.961 . S
C709 H717 0.960 . S
C710 C708 1.385 1_455 S
C710 C711 1.393 . S
C710 H718 0.927 . S
C711 C710 1.393 . S
C711 C712 1.383 1_455 S
C711 H719 0.929 . S
C712 C711 1.383 1_655 S
C712 C713 1.377 . S
C713 H697 0.930 . S
C713 C712 1.377 . S
C713 C714 1.379 . S
C714 H698 0.931 . S
C714 C708 1.383 . S
C714 C713 1.379 . S
H715 C709 0.959 . S
H716 C709 0.961 . S
H717 C709 0.960 . S
H718 C710 0.927 . S
H719 C711 0.929 . S
H720 C728 0.929 . S
H721 C730 0.930 . S
H722 C732 0.930 . S
H723 C735 0.929 . S
H724 C738 0.930 . S
H725 C740 0.960 . S
H726 C740 0.960 . S
H727 C740 0.960 . S
C728 H720 0.929 . S
C728 C729 1.377 . S
C728 C730 1.384 . S
C729 C728 1.377 . S
C729 C735 1.390 . S
C730 H721 0.930 . S
C730 C728 1.384 . S
C730 C731 1.372 . S
C731 C730 1.372 . S
C731 C732 1.400 . S
C731 C736 1.490 . S
C732 H722 0.930 . S
C732 C731 1.400 . S
C732 C735 1.386 . S
H733 C749 0.930 . S
H734 C750 0.931 . S
C735 H723 0.929 . S
C735 C729 1.390 . S
C735 C732 1.386 . S
C736 C731 1.490 . S
C736 C738 1.395 . S
C736 C739 1.403 . S
H737 C743 0.930 . S
C738 H724 0.930 . S
C738 C736 1.395 . S
C738 C741 1.403 . S
C739 C736 1.403 . S
C739 C740 1.524 . S
C739 C743 1.400 . S
C740 H725 0.960 . S
C740 H726 0.960 . S
C740 H727 0.960 . S
C740 C739 1.524 . S
C741 C738 1.403 . S
C741 C742 1.392 . S
C741 C745 1.495 . S
C742 C741 1.392 . S
C742 C743 1.385 . S
C742 C744 1.478 . S
C743 H737 0.930 . S
C743 C739 1.400 . S
C743 C742 1.385 . S
C744 C742 1.478 . S
C744 C746 1.369 1_455 S
C744 C750 1.383 . S
C745 C741 1.495 . S
C745 H751 0.959 . S
C745 H752 0.961 . S
C745 H753 0.960 1_455 S
C746 C744 1.369 1_655 S
C746 C747 1.398 . S
C746 H754 0.938 . S
C747 C746 1.398 . S
C747 C748 1.383 1_655 S
C747 H755 0.929 . S
C748 C747 1.383 1_455 S
C748 C749 1.377 . S
C749 H733 0.930 . S
C749 C748 1.377 . S
C749 C750 1.379 . S
C750 H734 0.931 . S
C750 C744 1.383 . S
C750 C749 1.379 . S
H751 C745 0.959 . S
H752 C745 0.961 . S
H753 C745 0.960 1_655 S
H754 C746 0.938 . S
H755 C747 0.929 . S
H756 C764 0.929 . S
H757 C766 0.930 . S
H758 C768 0.930 . S
H759 C771 0.929 . S
H760 C774 0.930 . S
H761 C776 0.960 . S
H762 C776 0.960 . S
H763 C776 0.960 . S
C764 H756 0.929 . S
C764 C765 1.377 . S
C764 C766 1.384 . S
C765 C764 1.377 . S
C765 C771 1.390 . S
C766 H757 0.930 . S
C766 C764 1.384 . S
C766 C767 1.372 . S
C767 C766 1.372 . S
C767 C768 1.400 . S
C767 C772 1.490 . S
C768 H758 0.930 . S
C768 C767 1.400 . S
C768 C771 1.386 . S
H769 C785 0.930 . S
H770 C786 0.931 1_565 S
C771 H759 0.929 . S
C771 C765 1.390 . S
C771 C768 1.386 . S
C772 C767 1.490 . S
C772 C774 1.395 . S
C772 C775 1.403 . S
H773 C779 0.930 . S
C774 H760 0.930 . S
C774 C772 1.395 . S
C774 C777 1.403 . S
C775 C772 1.403 . S
C775 C776 1.524 . S
C775 C779 1.400 . S
C776 H761 0.960 . S
C776 H762 0.960 . S
C776 H763 0.960 . S
C776 C775 1.524 . S
C777 C774 1.403 . S
C777 C778 1.392 . S
C777 C781 1.495 . S
C778 C777 1.392 . S
C778 C779 1.385 . S
C778 C780 1.478 . S
C779 H773 0.930 . S
C779 C775 1.400 . S
C779 C778 1.385 . S
C780 C778 1.478 . S
C780 C782 1.381 . S
C780 C786 1.383 . S
C781 C777 1.495 . S
C781 H787 0.959 . S
C781 H788 0.961 . S
C781 H789 0.960 . S
C782 C780 1.381 . S
C782 C783 1.394 . S
C782 H790 0.930 . S
C783 C782 1.394 . S
C783 C784 1.383 . S
C783 H791 0.929 . S
C784 C783 1.383 . S
C784 C785 1.377 1_545 S
C785 H769 0.930 . S
C785 C784 1.377 1_565 S
C785 C786 1.379 1_565 S
C786 H770 0.931 1_545 S
C786 C780 1.383 . S
C786 C785 1.379 1_545 S
H787 C781 0.959 . S
H788 C781 0.961 . S
H789 C781 0.960 . S
H790 C782 0.930 . S
H791 C783 0.929 . S
H792 C800 0.929 . S
H793 C802 0.930 . S
H794 C804 0.930 . S
H795 C807 0.929 . S
H796 C810 0.930 . S
H797 C812 0.960 . S
H798 C812 0.960 . S
H799 C812 0.960 . S
C800 H792 0.929 . S
C800 C801 1.377 . S
C800 C802 1.384 . S
C801 C800 1.377 . S
C801 C807 1.390 . S
C802 H793 0.930 . S
C802 C800 1.384 . S
C802 C803 1.372 . S
C803 C802 1.372 . S
C803 C804 1.400 . S
C803 C808 1.490 . S
C804 H794 0.930 . S
C804 C803 1.400 . S
C804 C807 1.386 . S
H805 C821 0.930 . S
H806 C822 0.931 . S
C807 H795 0.929 . S
C807 C801 1.390 . S
C807 C804 1.386 . S
C808 C803 1.490 . S
C808 C810 1.395 . S
C808 C811 1.403 . S
H809 C815 0.930 . S
C810 H796 0.930 . S
C810 C808 1.395 . S
C810 C813 1.403 . S
C811 C808 1.403 . S
C811 C812 1.524 . S
C811 C815 1.400 . S
C812 H797 0.960 . S
C812 H798 0.960 . S
C812 H799 0.960 . S
C812 C811 1.524 . S
C813 C810 1.403 . S
C813 C814 1.392 . S
C813 C817 1.495 . S
C814 C813 1.392 . S
C814 C815 1.385 . S
C814 C816 1.478 . S
C815 H809 0.930 . S
C815 C811 1.400 . S
C815 C814 1.385 . S
C816 C814 1.478 . S
C816 C818 1.381 . S
C816 C822 1.383 . S
C817 C813 1.495 . S
C817 H823 0.959 . S
C817 H824 0.961 . S
C817 H825 0.960 . S
C818 C816 1.381 . S
C818 C819 1.394 . S
C818 H826 0.930 . S
C819 C818 1.394 . S
C819 C820 1.383 . S
C819 H827 0.929 . S
C820 C819 1.383 . S
C820 C821 1.377 . S
C821 H805 0.930 . S
C821 C820 1.377 . S
C821 C822 1.379 . S
C822 H806 0.931 . S
C822 C816 1.383 . S
C822 C821 1.379 . S
H823 C817 0.959 . S
H824 C817 0.961 . S
H825 C817 0.960 . S
H826 C818 0.930 . S
H827 C819 0.929 . S
H828 C836 0.929 . S
H829 C838 0.930 . S
H830 C840 0.930 . S
H831 C843 0.929 . S
H832 C846 0.930 . S
H833 C848 0.960 . S
H834 C848 0.960 . S
H835 C848 0.960 . S
C836 H828 0.929 . S
C836 C837 1.377 . S
C836 C838 1.384 . S
C837 C836 1.377 . S
C837 C843 1.390 . S
C838 H829 0.930 . S
C838 C836 1.384 . S
C838 C839 1.372 . S
C839 C838 1.372 . S
C839 C840 1.400 . S
C839 C844 1.490 . S
C840 H830 0.930 . S
C840 C839 1.400 . S
C840 C843 1.386 . S
H841 C857 0.930 . S
H842 C858 0.931 . S
C843 H831 0.929 . S
C843 C837 1.390 . S
C843 C840 1.386 . S
C844 C839 1.490 . S
C844 C846 1.395 . S
C844 C847 1.403 . S
H845 C851 0.930 . S
C846 H832 0.930 . S
C846 C844 1.395 . S
C846 C849 1.403 . S
C847 C844 1.403 . S
C847 C848 1.524 . S
C847 C851 1.400 . S
C848 H833 0.960 . S
C848 H834 0.960 . S
C848 H835 0.960 . S
C848 C847 1.524 . S
C849 C846 1.403 . S
C849 C850 1.392 . S
C849 C853 1.495 . S
C850 C849 1.392 . S
C850 C851 1.385 . S
C850 C852 1.478 . S
C851 H845 0.930 . S
C851 C847 1.400 . S
C851 C850 1.385 . S
C852 C850 1.478 . S
C852 C854 1.381 . S
C852 C858 1.383 . S
C853 C849 1.495 . S
C853 H859 0.959 . S
C853 H860 0.961 . S
C853 H861 0.960 . S
C854 C852 1.381 . S
C854 C855 1.394 . S
C854 H862 0.930 . S
C855 C854 1.394 . S
C855 C856 1.383 . S
C855 H863 0.929 . S
C856 C855 1.383 . S
C856 C857 1.377 . S
C857 H841 0.930 . S
C857 C856 1.377 . S
C857 C858 1.379 . S
C858 H842 0.931 . S
C858 C852 1.383 . S
C858 C857 1.379 . S
H859 C853 0.959 . S
H860 C853 0.961 . S
H861 C853 0.960 . S
H862 C854 0.930 . S
H863 C855 0.929 . S
H864 C872 0.929 . S
H865 C874 0.930 . S
H866 C876 0.915 1_556 S
H867 C879 0.929 . S
H868 C882 0.930 . S
H869 C884 0.960 . S
H870 C884 0.960 1_554 S
H871 C884 0.960 . S
C872 H864 0.929 . S
C872 C873 1.377 . S
C872 C874 1.384 . S
C873 C872 1.377 . S
C873 C879 1.390 . S
C874 H865 0.930 . S
C874 C872 1.384 . S
C874 C875 1.372 . S
C875 C874 1.372 . S
C875 C876 1.400 . S
C875 C880 1.490 . S
C876 H866 0.915 1_554 S
C876 C875 1.400 . S
C876 C879 1.386 . S
H877 C893 0.929 . S
H878 C894 0.931 . S
C879 H867 0.929 . S
C879 C873 1.390 . S
C879 C876 1.386 . S
C880 C875 1.490 . S
C880 C882 1.395 . S
C880 C883 1.403 . S
H881 C887 0.930 . S
C882 H868 0.930 . S
C882 C880 1.395 . S
C882 C885 1.403 . S
C883 C880 1.403 . S
C883 C884 1.524 1_554 S
C883 C887 1.400 1_554 S
C884 H869 0.960 . S
C884 H870 0.960 1_556 S
C884 H871 0.960 . S
C884 C883 1.524 1_556 S
C885 C882 1.403 . S
C885 C886 1.392 1_554 S
C885 C889 1.495 1_655 S
C886 C885 1.392 1_556 S
C886 C887 1.385 . S
C886 C888 1.478 . S
C887 H881 0.930 . S
C887 C883 1.400 1_556 S
C887 C886 1.385 . S
C888 C886 1.478 . S
C888 C890 1.389 . S
C888 C894 1.383 . S
C889 C885 1.495 1_455 S
C889 H895 0.959 . S
C889 H896 0.961 1_554 S
C889 H897 0.960 . S
C890 C888 1.389 . S
C890 C891 1.386 1_655 S
C890 H898 0.930 1_556 S
C891 C890 1.386 1_455 S
C891 C892 1.383 . S
C891 H899 0.929 . S
C892 C891 1.383 . S
C892 C893 1.386 . S
C893 H877 0.929 . S
C893 C892 1.386 . S
C893 C894 1.370 1_455 S
C894 H878 0.931 . S
C894 C888 1.383 . S
C894 C893 1.370 1_655 S
H895 C889 0.959 . S
H896 C889 0.961 1_556 S
H897 C889 0.960 . S
H898 C890 0.930 1_554 S
H899 C891 0.929 . S
H900 C908 0.929 . S
H901 C910 0.930 . S
H902 C912 0.930 . S
H903 C915 0.929 . S
H904 C918 0.930 . S
H905 C920 0.960 . S
H906 C920 0.960 . S
H907 C920 0.960 . S
C908 H900 0.929 . S
C908 C909 1.377 . S
C908 C910 1.384 . S
C909 C908 1.377 . S
C909 C915 1.390 . S
C910 H901 0.930 . S
C910 C908 1.384 . S
C910 C911 1.372 . S
C911 C910 1.372 . S
C911 C912 1.400 . S
C911 C916 1.490 . S
C912 H902 0.930 . S
C912 C911 1.400 . S
C912 C915 1.386 . S
H913 C929 0.930 . S
H914 C930 0.931 . S
C915 H903 0.929 . S
C915 C909 1.390 . S
C915 C912 1.386 . S
C916 C911 1.490 . S
C916 C918 1.395 . S
C916 C919 1.403 1_554 S
H917 C923 0.930 . S
C918 H904 0.930 . S
C918 C916 1.395 . S
C918 C921 1.403 . S
C919 C916 1.403 1_556 S
C919 C920 1.524 . S
C919 C923 1.400 . S
C920 H905 0.960 . S
C920 H906 0.960 . S
C920 H907 0.960 . S
C920 C919 1.524 . S
C921 C918 1.403 . S
C921 C922 1.392 1_554 S
C921 C925 1.495 . S
C922 C921 1.392 1_556 S
C922 C923 1.385 . S
C922 C924 1.478 . S
C923 H917 0.930 . S
C923 C919 1.400 . S
C923 C922 1.385 . S
C924 C922 1.478 . S
C924 C926 1.381 . S
C924 C930 1.383 1_565 S
C925 C921 1.495 . S
C925 H931 0.959 . S
C925 H932 0.961 . S
C925 H933 0.960 . S
C926 C924 1.381 . S
C926 C927 1.394 . S
C926 H934 0.930 . S
C927 C926 1.394 . S
C927 C928 1.383 1_565 S
C927 H935 0.929 . S
C928 C927 1.383 1_545 S
C928 C929 1.377 . S
C929 H913 0.930 . S
C929 C928 1.377 . S
C929 C930 1.379 . S
C930 H914 0.931 . S
C930 C924 1.383 1_545 S
C930 C929 1.379 . S
H931 C925 0.959 . S
H932 C925 0.961 . S
H933 C925 0.960 . S
H934 C926 0.930 . S
H935 C927 0.929 . S
H936 C944 0.929 . S
H937 C946 0.930 . S
H938 C948 0.930 . S
H939 C951 0.929 . S
H940 C954 0.930 . S
H941 C956 0.960 . S
H942 C956 0.960 . S
H943 C956 0.960 . S
C944 H936 0.929 . S
C944 C945 1.377 . S
C944 C946 1.384 . S
C945 C944 1.377 . S
C945 C951 1.390 . S
C946 H937 0.930 . S
C946 C944 1.384 . S
C946 C947 1.372 . S
C947 C946 1.372 . S
C947 C948 1.400 . S
C947 C952 1.490 . S
C948 H938 0.930 . S
C948 C947 1.400 . S
C948 C951 1.386 . S
H949 C965 0.930 . S
H950 C966 0.931 . S
C951 H939 0.929 . S
C951 C945 1.390 . S
C951 C948 1.386 . S
C952 C947 1.490 . S
C952 C954 1.395 . S
C952 C955 1.403 1_554 S
H953 C959 0.930 . S
C954 H940 0.930 . S
C954 C952 1.395 . S
C954 C957 1.403 . S
C955 C952 1.403 1_556 S
C955 C956 1.524 . S
C955 C959 1.400 . S
C956 H941 0.960 . S
C956 H942 0.960 . S
C956 H943 0.960 . S
C956 C955 1.524 . S
C957 C954 1.403 . S
C957 C958 1.392 1_554 S
C957 C961 1.495 . S
C958 C957 1.392 1_556 S
C958 C959 1.385 . S
C958 C960 1.478 . S
C959 H953 0.930 . S
C959 C955 1.400 . S
C959 C958 1.385 . S
C960 C958 1.478 . S
C960 C962 1.381 . S
C960 C966 1.383 . S
C961 C957 1.495 . S
C961 H967 0.959 . S
C961 H968 0.961 . S
C961 H969 0.960 . S
C962 C960 1.381 . S
C962 C963 1.394 . S
C962 H970 0.930 1_556 S
C963 C962 1.394 . S
C963 C964 1.383 . S
C963 H971 0.929 . S
C964 C963 1.383 . S
C964 C965 1.377 . S
C965 H949 0.930 . S
C965 C964 1.377 . S
C965 C966 1.379 . S
C966 H950 0.931 . S
C966 C960 1.383 . S
C966 C965 1.379 . S
H967 C961 0.959 . S
H968 C961 0.961 . S
H969 C961 0.960 . S
H970 C962 0.930 1_554 S
H971 C963 0.929 . S
H972 C980 0.929 . S
H973 C982 0.930 . S
H974 C984 0.930 1_556 S
H975 C987 0.929 . S
H976 C990 0.930 . S
H977 C992 0.960 1_556 S
H978 C992 0.960 . S
H979 C992 0.960 1_556 S
C980 H972 0.929 . S
C980 C981 1.377 . S
C980 C982 1.384 . S
C981 C980 1.377 . S
C981 C987 1.390 . S
C982 H973 0.930 . S
C982 C980 1.384 . S
C982 C983 1.372 . S
C983 C982 1.372 . S
C983 C984 1.400 . S
C983 C988 1.490 . S
C984 H974 0.930 1_554 S
C984 C983 1.400 . S
C984 C987 1.386 . S
H985 C1001 0.930 . S
H986 C1002 0.931 . S
C987 H975 0.929 . S
C987 C981 1.390 . S
C987 C984 1.386 . S
C988 C983 1.490 . S
C988 C990 1.395 . S
C988 C991 1.403 . S
H989 C995 0.930 . S
C990 H976 0.930 . S
C990 C988 1.395 . S
C990 C993 1.403 . S
C991 C988 1.403 . S
C991 C992 1.524 . S
C991 C995 1.400 1_554 S
C992 H977 0.960 1_554 S
C992 H978 0.960 . S
C992 H979 0.960 1_554 S
C992 C991 1.524 . S
C993 C990 1.403 . S
C993 C994 1.392 1_554 S
C993 C997 1.495 . S
C994 C993 1.392 1_556 S
C994 C995 1.385 . S
C994 C996 1.478 . S
C995 H989 0.930 . S
C995 C991 1.400 1_556 S
C995 C994 1.385 . S
C996 C994 1.478 . S
C996 C998 1.381 . S
C996 C1002 1.383 . S
C997 C993 1.495 . S
C997 H1003 0.959 . S
C997 H1004 0.961 1_554 S
C997 H1005 0.960 . S
C998 C996 1.381 . S
C998 C999 1.394 . S
C998 H1006 0.930 1_556 S
C999 C998 1.394 . S
C999 C1000 1.383 . S
C999 H1007 0.929 . S
C1000 C999 1.383 . S
C1000 C1001 1.377 . S
C1001 H985 0.930 . S
C1001 C1000 1.377 . S
C1001 C1002 1.379 . S
C1002 H986 0.931 . S
C1002 C996 1.383 . S
C1002 C1001 1.379 . S
H1003 C997 0.959 . S
H1004 C997 0.961 1_556 S
H1005 C997 0.960 . S
H1006 C998 0.930 1_554 S
H1007 C999 0.929 . S
H1008 C1016 0.929 . S
H1009 C1018 0.930 . S
H1010 C1020 0.930 . S
H1011 C1023 0.929 . S
H1012 C1026 0.930 . S
H1013 C1028 0.960 . S
H1014 C1028 0.960 . S
H1015 C1028 0.960 . S
C1016 H1008 0.929 . S
C1016 C1017 1.377 . S
C1016 C1018 1.384 . S
C1017 C1016 1.377 . S
C1017 C1023 1.390 . S
C1018 H1009 0.930 . S
C1018 C1016 1.384 . S
C1018 C1019 1.372 . S
C1019 C1018 1.372 . S
C1019 C1020 1.400 . S
C1019 C1024 1.490 . S
C1020 H1010 0.930 . S
C1020 C1019 1.400 . S
C1020 C1023 1.386 . S
H1021 C1037 0.930 . S
H1022 C1038 0.931 . S
C1023 H1011 0.929 . S
C1023 C1017 1.390 . S
C1023 C1020 1.386 . S
C1024 C1019 1.490 . S
C1024 C1026 1.395 . S
C1024 C1027 1.403 . S
H1025 C1031 0.930 . S
C1026 H1012 0.930 . S
C1026 C1024 1.395 . S
C1026 C1029 1.403 . S
C1027 C1024 1.403 . S
C1027 C1028 1.524 . S
C1027 C1031 1.400 . S
C1028 H1013 0.960 . S
C1028 H1014 0.960 . S
C1028 H1015 0.960 . S
C1028 C1027 1.524 . S
C1029 C1026 1.403 . S
C1029 C1030 1.392 . S
C1029 C1033 1.495 . S
C1030 C1029 1.392 . S
C1030 C1031 1.385 . S
C1030 C1032 1.478 . S
C1031 H1025 0.930 . S
C1031 C1027 1.400 . S
C1031 C1030 1.385 . S
C1032 C1030 1.478 . S
C1032 C1034 1.381 . S
C1032 C1038 1.383 . S
C1033 C1029 1.495 . S
C1033 H1039 0.959 . S
C1033 H1040 0.961 1_455 S
C1033 H1041 0.960 . S
C1034 C1032 1.381 . S
C1034 C1035 1.394 . S
C1034 H1042 0.930 . S
C1035 C1034 1.394 . S
C1035 C1036 1.383 . S
C1035 H1043 0.929 . S
C1036 C1035 1.383 . S
C1036 C1037 1.377 . S
C1037 H1021 0.930 . S
C1037 C1036 1.377 . S
C1037 C1038 1.379 . S
C1038 H1022 0.931 . S
C1038 C1032 1.383 . S
C1038 C1037 1.379 . S
H1039 C1033 0.959 . S
H1040 C1033 0.961 1_655 S
H1041 C1033 0.960 . S
H1042 C1034 0.930 . S
H1043 C1035 0.929 . S
H1044 C1052 0.929 . S
H1045 C1054 0.930 . S
H1046 C1056 0.930 . S
H1047 C1059 0.929 . S
H1048 C1062 0.930 . S
H1049 C1064 0.960 1_565 S
H1050 C1064 0.960 . S
H1051 C1064 0.960 . S
C1052 H1044 0.929 . S
C1052 C1053 1.377 . S
C1052 C1054 1.384 . S
C1053 C1052 1.377 . S
C1053 C1059 1.390 . S
C1054 H1045 0.930 . S
C1054 C1052 1.384 . S
C1054 C1055 1.372 . S
C1055 C1054 1.372 . S
C1055 C1056 1.400 . S
C1055 C1060 1.490 . S
C1056 H1046 0.930 . S
C1056 C1055 1.400 . S
C1056 C1059 1.386 . S
H1057 C1073 0.930 . S
H1058 C1074 0.931 . S
C1059 H1047 0.929 . S
C1059 C1053 1.390 . S
C1059 C1056 1.386 . S
C1060 C1055 1.490 . S
C1060 C1062 1.395 . S
C1060 C1063 1.403 . S
H1061 C1067 0.930 . S
C1062 H1048 0.930 . S
C1062 C1060 1.395 . S
C1062 C1065 1.403 . S
C1063 C1060 1.403 . S
C1063 C1064 1.524 . S
C1063 C1067 1.400 . S
C1064 H1049 0.960 1_545 S
C1064 H1050 0.960 . S
C1064 H1051 0.960 . S
C1064 C1063 1.524 . S
C1065 C1062 1.403 . S
C1065 C1066 1.392 . S
C1065 C1069 1.495 . S
C1066 C1065 1.392 . S
C1066 C1067 1.385 . S
C1066 C1068 1.478 . S
C1067 H1061 0.930 . S
C1067 C1063 1.400 . S
C1067 C1066 1.385 . S
C1068 C1066 1.478 . S
C1068 C1070 1.381 . S
C1068 C1074 1.383 . S
C1069 C1065 1.495 . S
C1069 H1075 0.959 . S
C1069 H1076 0.961 . S
C1069 H1077 0.960 . S
C1070 C1068 1.381 . S
C1070 C1071 1.394 . S
C1070 H1078 0.930 . S
C1071 C1070 1.394 . S
C1071 C1072 1.383 . S
C1071 H1079 0.929 . S
C1072 C1071 1.383 . S
C1072 C1073 1.377 . S
C1073 H1057 0.930 . S
C1073 C1072 1.377 . S
C1073 C1074 1.379 . S
C1074 H1058 0.931 . S
C1074 C1068 1.383 . S
C1074 C1073 1.379 . S
H1075 C1069 0.959 . S
H1076 C1069 0.961 . S
H1077 C1069 0.960 . S
H1078 C1070 0.930 . S
H1079 C1071 0.929 . S
H1080 C1088 0.929 . S
H1081 C1090 0.930 . S
H1082 C1092 0.930 . S
H1083 C1095 0.929 . S
H1084 C1098 0.930 . S
H1085 C1100 0.960 . S
H1086 C1100 0.960 . S
H1087 C1100 0.960 . S
C1088 H1080 0.929 . S
C1088 C1089 1.377 . S
C1088 C1090 1.384 . S
C1089 C1088 1.377 . S
C1089 C1095 1.390 . S
C1090 H1081 0.930 . S
C1090 C1088 1.384 . S
C1090 C1091 1.372 . S
C1091 C1090 1.372 . S
C1091 C1092 1.400 . S
C1091 C1096 1.490 . S
C1092 H1082 0.930 . S
C1092 C1091 1.400 . S
C1092 C1095 1.386 . S
H1093 C1109 0.930 . S
H1094 C1110 0.931 . S
C1095 H1083 0.929 . S
C1095 C1089 1.390 . S
C1095 C1092 1.386 . S
C1096 C1091 1.490 . S
C1096 C1098 1.395 . S
C1096 C1099 1.403 . S
H1097 C1103 0.930 . S
C1098 H1084 0.930 . S
C1098 C1096 1.395 . S
C1098 C1101 1.403 . S
C1099 C1096 1.403 . S
C1099 C1100 1.524 . S
C1099 C1103 1.400 . S
C1100 H1085 0.960 . S
C1100 H1086 0.960 . S
C1100 H1087 0.960 . S
C1100 C1099 1.524 . S
C1101 C1098 1.403 . S
C1101 C1102 1.392 . S
C1101 C1105 1.495 . S
C1102 C1101 1.392 . S
C1102 C1103 1.385 . S
C1102 C1104 1.478 . S
C1103 H1097 0.930 . S
C1103 C1099 1.400 . S
C1103 C1102 1.385 . S
C1104 C1102 1.478 . S
C1104 C1106 1.381 . S
C1104 C1110 1.383 . S
C1105 C1101 1.495 . S
C1105 H1111 0.959 . S
C1105 H1112 0.961 . S
C1105 H1113 0.960 . S
C1106 C1104 1.381 . S
C1106 C1107 1.394 . S
C1106 H1114 0.930 . S
C1107 C1106 1.394 . S
C1107 C1108 1.383 . S
C1107 H1115 0.929 . S
C1108 C1107 1.383 . S
C1108 C1109 1.377 . S
C1109 H1093 0.930 . S
C1109 C1108 1.377 . S
C1109 C1110 1.379 . S
C1110 H1094 0.931 . S
C1110 C1104 1.383 . S
C1110 C1109 1.379 . S
H1111 C1105 0.959 . S
H1112 C1105 0.961 . S
H1113 C1105 0.960 . S
H1114 C1106 0.930 . S
H1115 C1107 0.929 . S
H1116 C1124 0.929 . S
H1117 C1126 0.930 . S
H1118 C1128 0.930 . S
H1119 C1131 0.929 . S
H1120 C1134 0.930 . S
H1121 C1136 0.960 . S
H1122 C1136 0.960 . S
H1123 C1136 0.960 . S
C1124 H1116 0.929 . S
C1124 C1125 1.377 . S
C1124 C1126 1.384 . S
C1125 C1124 1.377 . S
C1125 C1131 1.390 . S
C1126 H1117 0.930 . S
C1126 C1124 1.384 . S
C1126 C1127 1.372 . S
C1127 C1126 1.372 . S
C1127 C1128 1.400 . S
C1127 C1132 1.490 . S
C1128 H1118 0.930 . S
C1128 C1127 1.400 . S
C1128 C1131 1.386 . S
H1129 C1145 0.930 . S
H1130 C1146 0.931 . S
C1131 H1119 0.929 . S
C1131 C1125 1.390 . S
C1131 C1128 1.386 . S
C1132 C1127 1.490 . S
C1132 C1134 1.395 . S
C1132 C1135 1.403 . S
H1133 C1139 0.930 . S
C1134 H1120 0.930 . S
C1134 C1132 1.395 . S
C1134 C1137 1.403 . S
C1135 C1132 1.403 . S
C1135 C1136 1.524 . S
C1135 C1139 1.400 . S
C1136 H1121 0.960 . S
C1136 H1122 0.960 . S
C1136 H1123 0.960 . S
C1136 C1135 1.524 . S
C1137 C1134 1.403 . S
C1137 C1138 1.392 . S
C1137 C1141 1.495 . S
C1138 C1137 1.392 . S
C1138 C1139 1.385 . S
C1138 C1140 1.478 . S
C1139 H1133 0.930 . S
C1139 C1135 1.400 . S
C1139 C1138 1.385 . S
C1140 C1138 1.478 . S
C1140 C1142 1.381 . S
C1140 C1146 1.383 . S
C1141 C1137 1.495 . S
C1141 H1147 0.959 . S
C1141 H1148 0.961 . S
C1141 H1149 0.960 . S
C1142 C1140 1.381 . S
C1142 C1143 1.394 . S
C1142 H1150 0.930 . S
C1143 C1142 1.394 . S
C1143 C1144 1.383 . S
C1143 H1151 0.929 . S
C1144 C1143 1.383 . S
C1144 C1145 1.377 . S
C1145 H1129 0.930 . S
C1145 C1144 1.377 . S
C1145 C1146 1.379 . S
C1146 H1130 0.931 . S
C1146 C1140 1.383 . S
C1146 C1145 1.379 . S
H1147 C1141 0.959 . S
H1148 C1141 0.961 . S
H1149 C1141 0.960 . S
H1150 C1142 0.930 . S
H1151 C1143 0.929 . S
H1152 C1160 0.929 . S
H1153 C1162 0.930 . S
H1154 C1164 0.930 . S
H1155 C1167 0.929 . S
H1156 C1170 0.930 . S
H1157 C1172 0.960 . S
H1158 C1172 0.960 . S
H1159 C1172 0.960 1_655 S
C1160 H1152 0.929 . S
C1160 C1161 1.377 . S
C1160 C1162 1.384 . S
C1161 C1160 1.377 . S
C1161 C1167 1.390 . S
C1162 H1153 0.930 . S
C1162 C1160 1.384 . S
C1162 C1163 1.372 . S
C1163 C1162 1.372 . S
C1163 C1164 1.400 . S
C1163 C1168 1.490 . S
C1164 H1154 0.930 . S
C1164 C1163 1.400 . S
C1164 C1167 1.386 . S
H1165 C1181 0.930 . S
H1166 C1182 0.931 . S
C1167 H1155 0.929 . S
C1167 C1161 1.390 . S
C1167 C1164 1.386 . S
C1168 C1163 1.490 . S
C1168 C1170 1.395 . S
C1168 C1171 1.403 . S
H1169 C1175 0.930 . S
C1170 H1156 0.930 . S
C1170 C1168 1.395 . S
C1170 C1173 1.403 . S
C1171 C1168 1.403 . S
C1171 C1172 1.524 1_655 S
C1171 C1175 1.400 . S
C1172 H1157 0.960 . S
C1172 H1158 0.960 . S
C1172 H1159 0.960 1_455 S
C1172 C1171 1.524 1_455 S
C1173 C1170 1.403 . S
C1173 C1174 1.392 . S
C1173 C1177 1.495 . S
C1174 C1173 1.392 . S
C1174 C1175 1.385 . S
C1174 C1176 1.478 . S
C1175 H1169 0.930 . S
C1175 C1171 1.400 . S
C1175 C1174 1.385 . S
C1176 C1174 1.478 . S
C1176 C1178 1.381 . S
C1176 C1182 1.383 . S
C1177 C1173 1.495 . S
C1177 H1183 0.959 . S
C1177 H1184 0.961 . S
C1177 H1185 0.960 . S
C1178 C1176 1.381 . S
C1178 C1179 1.394 . S
C1178 H1186 0.930 . S
C1179 C1178 1.394 . S
C1179 C1180 1.383 . S
C1179 H1187 0.929 . S
C1180 C1179 1.383 . S
C1180 C1181 1.377 . S
C1181 H1165 0.930 . S
C1181 C1180 1.377 . S
C1181 C1182 1.379 . S
C1182 H1166 0.931 . S
C1182 C1176 1.383 . S
C1182 C1181 1.379 . S
H1183 C1177 0.959 . S
H1184 C1177 0.961 . S
H1185 C1177 0.960 . S
H1186 C1178 0.930 . S
H1187 C1179 0.929 . S
H1188 C1196 0.929 . S
H1189 C1198 0.930 . S
H1190 C1200 0.930 . S
H1191 C1203 0.929 . S
H1192 C1206 0.930 . S
H1193 C1208 0.960 . S
H1194 C1208 0.960 . S
H1195 C1208 0.960 1_565 S
C1196 H1188 0.929 . S
C1196 C1197 1.377 . S
C1196 C1198 1.384 . S
C1197 C1196 1.377 . S
C1197 C1203 1.390 . S
C1198 H1189 0.930 . S
C1198 C1196 1.384 . S
C1198 C1199 1.372 . S
C1199 C1198 1.372 . S
C1199 C1200 1.400 . S
C1199 C1204 1.490 . S
C1200 H1190 0.930 . S
C1200 C1199 1.400 . S
C1200 C1203 1.386 . S
H1201 C1217 0.930 . S
H1202 C1218 0.931 . S
C1203 H1191 0.929 . S
C1203 C1197 1.390 . S
C1203 C1200 1.386 . S
C1204 C1199 1.490 . S
C1204 C1206 1.395 . S
C1204 C1207 1.403 . S
H1205 C1211 0.928 . S
C1206 H1192 0.930 . S
C1206 C1204 1.395 . S
C1206 C1209 1.403 . S
C1207 C1204 1.403 . S
C1207 C1208 1.524 1_565 S
C1207 C1211 1.400 . S
C1208 H1193 0.960 . S
C1208 H1194 0.960 . S
C1208 H1195 0.960 1_545 S
C1208 C1207 1.524 1_545 S
C1209 C1206 1.403 . S
C1209 C1210 1.392 . S
C1209 C1213 1.495 . S
C1210 C1209 1.392 . S
C1210 C1211 1.385 . S
C1210 C1212 1.478 . S
C1211 H1205 0.928 . S
C1211 C1207 1.400 . S
C1211 C1210 1.385 . S
C1212 C1210 1.478 . S
C1212 C1214 1.381 . S
C1212 C1218 1.383 . S
C1213 C1209 1.495 . S
C1213 H1219 0.959 . S
C1213 H1220 0.961 . S
C1213 H1221 0.960 . S
C1214 C1212 1.381 . S
C1214 C1215 1.394 . S
C1214 H1222 0.930 . S
C1215 C1214 1.394 . S
C1215 C1216 1.383 . S
C1215 H1223 0.929 . S
C1216 C1215 1.383 . S
C1216 C1217 1.377 . S
C1217 H1201 0.930 . S
C1217 C1216 1.377 . S
C1217 C1218 1.379 . S
C1218 H1202 0.931 . S
C1218 C1212 1.383 . S
C1218 C1217 1.379 . S
H1219 C1213 0.959 . S
H1220 C1213 0.961 . S
H1221 C1213 0.960 . S
H1222 C1214 0.930 . S
H1223 C1215 0.929 . S
H1224 C1232 0.929 . S
H1225 C1234 0.930 . S
H1226 C1236 0.930 . S
H1227 C1239 0.929 . S
H1228 C1242 0.930 . S
H1229 C1244 0.960 . S
H1230 C1244 0.960 . S
H1231 C1244 0.960 . S
C1232 H1224 0.929 . S
C1232 C1233 1.377 . S
C1232 C1234 1.384 . S
C1233 C1232 1.377 . S
C1233 C1239 1.390 . S
C1234 H1225 0.930 . S
C1234 C1232 1.384 . S
C1234 C1235 1.372 . S
C1235 C1234 1.372 . S
C1235 C1236 1.400 . S
C1235 C1240 1.490 . S
C1236 H1226 0.930 . S
C1236 C1235 1.400 . S
C1236 C1239 1.386 . S
H1237 C1253 0.930 . S
H1238 C1254 0.931 . S
C1239 H1227 0.929 . S
C1239 C1233 1.390 . S
C1239 C1236 1.386 . S
C1240 C1235 1.490 . S
C1240 C1242 1.395 . S
C1240 C1243 1.403 . S
H1241 C1247 0.930 . S
C1242 H1228 0.930 . S
C1242 C1240 1.395 . S
C1242 C1245 1.403 . S
C1243 C1240 1.403 . S
C1243 C1244 1.524 . S
C1243 C1247 1.400 . S
C1244 H1229 0.960 . S
C1244 H1230 0.960 . S
C1244 H1231 0.960 . S
C1244 C1243 1.524 . S
C1245 C1242 1.403 . S
C1245 C1246 1.392 . S
C1245 C1249 1.495 . S
C1246 C1245 1.392 . S
C1246 C1247 1.385 . S
C1246 C1248 1.478 . S
C1247 H1241 0.930 . S
C1247 C1243 1.400 . S
C1247 C1246 1.385 . S
C1248 C1246 1.478 . S
C1248 C1250 1.381 . S
C1248 C1254 1.383 . S
C1249 C1245 1.495 . S
C1249 H1255 0.959 . S
C1249 H1256 0.961 . S
C1249 H1257 0.960 . S
C1250 C1248 1.381 . S
C1250 C1251 1.394 . S
C1250 H1258 0.930 . S
C1251 C1250 1.394 . S
C1251 C1252 1.383 . S
C1251 H1259 0.929 . S
C1252 C1251 1.383 . S
C1252 C1253 1.377 . S
C1253 H1237 0.930 . S
C1253 C1252 1.377 . S
C1253 C1254 1.379 . S
C1254 H1238 0.931 . S
C1254 C1248 1.383 . S
C1254 C1253 1.379 . S
H1255 C1249 0.959 . S
H1256 C1249 0.961 . S
H1257 C1249 0.960 . S
H1258 C1250 0.930 . S
H1259 C1251 0.929 . S
H1260 C1268 0.929 . S
H1261 C1270 0.930 . S
H1262 C1272 0.930 . S
H1263 C1275 0.929 . S
H1264 C1278 0.930 . S
H1265 C1280 0.960 . S
H1266 C1280 0.960 . S
H1267 C1280 0.960 . S
C1268 H1260 0.929 . S
C1268 C1269 1.377 . S
C1268 C1270 1.384 . S
C1269 C1268 1.377 . S
C1269 C1275 1.390 . S
C1270 H1261 0.930 . S
C1270 C1268 1.384 . S
C1270 C1271 1.372 . S
C1271 C1270 1.372 . S
C1271 C1272 1.400 . S
C1271 C1276 1.490 . S
C1272 H1262 0.930 . S
C1272 C1271 1.400 . S
C1272 C1275 1.386 . S
H1273 C1289 0.930 . S
H1274 C1290 0.931 . S
C1275 H1263 0.929 . S
C1275 C1269 1.390 . S
C1275 C1272 1.386 . S
C1276 C1271 1.490 . S
C1276 C1278 1.395 . S
C1276 C1279 1.403 . S
H1277 C1283 0.930 . S
C1278 H1264 0.930 . S
C1278 C1276 1.395 . S
C1278 C1281 1.403 . S
C1279 C1276 1.403 . S
C1279 C1280 1.524 . S
C1279 C1283 1.400 . S
C1280 H1265 0.960 . S
C1280 H1266 0.960 . S
C1280 H1267 0.960 . S
C1280 C1279 1.524 . S
C1281 C1278 1.403 . S
C1281 C1282 1.392 . S
C1281 C1285 1.495 . S
C1282 C1281 1.392 . S
C1282 C1283 1.385 . S
C1282 C1284 1.478 . S
C1283 H1277 0.930 . S
C1283 C1279 1.400 . S
C1283 C1282 1.385 . S
C1284 C1282 1.478 . S
C1284 C1286 1.381 . S
C1284 C1290 1.383 . S
C1285 C1281 1.495 . S
C1285 H1291 0.959 . S
C1285 H1292 0.961 . S
C1285 H1293 0.960 . S
C1286 C1284 1.381 . S
C1286 C1287 1.394 . S
C1286 H1294 0.930 . S
C1287 C1286 1.394 . S
C1287 C1288 1.383 . S
C1287 H1295 0.929 . S
C1288 C1287 1.383 . S
C1288 C1289 1.377 . S
C1289 H1273 0.930 . S
C1289 C1288 1.377 . S
C1289 C1290 1.379 . S
C1290 H1274 0.931 . S
C1290 C1284 1.383 . S
C1290 C1289 1.379 . S
H1291 C1285 0.959 . S
H1292 C1285 0.961 . S
H1293 C1285 0.960 . S
H1294 C1286 0.930 . S
H1295 C1287 0.929 . S
C441 C76 1.784 . S
C460 C170 1.864 . S
C496 C254 1.870 . S
C477 C88 1.820 . S
C532 C320 1.913 . S
C513 C52 1.943 . S
C568 C404 1.879 . S
C549 C64 1.916 . S
C604 C159 1.835 1_565 S
C585 C28 1.796 . S
C621 C40 1.835 . S
C640 C243 1.896 . S
C657 C4 1.947 . S
C676 C331 1.876 . S
C693 C16 1.918 . S
C712 C415 1.869 . S
C748 C166 0.472 1_455 S
C729 C69 0.483 . S
C784 C250 0.586 . S
C765 C81 0.439 . S
C820 C322 0.597 . S
C801 C93 0.418 . S
C837 C57 0.458 . S
C856 C406 0.589 . S
C873 C21 0.493 . S
C892 C154 0.438 . S
C928 C238 0.520 . S
C909 C33 0.483 . S
C964 C334 0.407 . S
C945 C45 0.457 . S
C981 C9 0.468 . S
C1000 C418 0.466 . S
C1017 C66 1.968 . S
C1036 C163 1.996 . S
C1053 C78 1.935 . S
C1072 C247 1.977 . S
C1108 C327 1.937 . S
C1089 C90 1.817 . S
C1144 C411 1.990 . S
C1125 C54 1.864 . S
C1161 C18 1.946 . S
C1180 C152 2.021 . S
C1216 C236 1.975 1_565 S
C1197 C30 1.910 . S
C1252 C338 1.938 . S
C1233 C42 1.808 . S
C1269 C6 1.846 . S
C1288 C422 1.964 . S
