# Generated by pormake.
# Topology pyr, (3,6)-cn, num edge types: 1
# Building blocks:
#     Node 0, Type 0, BuildingBlock: ESEHIV_clean_linker_0, # of connection points: 3
#     Node 1, Type 0, BuildingBlock: ESEHIV_clean_linker_0, # of connection points: 3
#     Node 2, Type 0, BuildingBlock: ESEHIV_clean_linker_0, # of connection points: 3
#     Node 3, Type 0, BuildingBlock: ESEHIV_clean_linker_0, # of connection points: 3
#     Node 4, Type 0, BuildingBlock: ESEHIV_clean_linker_0, # of connection points: 3
#     Node 5, Type 0, BuildingBlock: ESEHIV_clean_linker_0, # of connection points: 3
#     Node 6, Type 0, BuildingBlock: ESEHIV_clean_linker_0, # of connection points: 3
#     Node 7, Type 0, BuildingBlock: ESEHIV_clean_linker_0, # of connection points: 3
#     Node 8, Type 1, BuildingBlock: INOVEN_clean_sbu_0, # of connection points: 6
#     Node 9, Type 1, BuildingBlock: INOVEN_clean_sbu_0, # of connection points: 6
#     Node 10, Type 1, BuildingBlock: INOVEN_clean_sbu_0, # of connection points: 6
#     Node 11, Type 1, BuildingBlock: INOVEN_clean_sbu_0, # of connection points: 6
#     Edge 12, Type (0, 1), BuildingBlock: XIVTED_clean_linker_0, # of connection points: 2
#     Edge 13, Type (0, 1), BuildingBlock: XIVTED_clean_linker_0, # of connection points: 2
#     Edge 14, Type (0, 1), BuildingBlock: XIVTED_clean_linker_0, # of connection points: 2
#     Edge 15, Type (0, 1), BuildingBlock: XIVTED_clean_linker_0, # of connection points: 2
#     Edge 16, Type (0, 1), BuildingBlock: XIVTED_clean_linker_0, # of connection points: 2
#     Edge 17, Type (0, 1), BuildingBlock: XIVTED_clean_linker_0, # of connection points: 2
#     Edge 18, Type (0, 1), BuildingBlock: XIVTED_clean_linker_0, # of connection points: 2
#     Edge 19, Type (0, 1), BuildingBlock: XIVTED_clean_linker_0, # of connection points: 2
#     Edge 20, Type (0, 1), BuildingBlock: XIVTED_clean_linker_0, # of connection points: 2
#     Edge 21, Type (0, 1), BuildingBlock: XIVTED_clean_linker_0, # of connection points: 2
#     Edge 22, Type (0, 1), BuildingBlock: XIVTED_clean_linker_0, # of connection points: 2
#     Edge 23, Type (0, 1), BuildingBlock: XIVTED_clean_linker_0, # of connection points: 2
#     Edge 24, Type (0, 1), BuildingBlock: XIVTED_clean_linker_0, # of connection points: 2
#     Edge 25, Type (0, 1), BuildingBlock: XIVTED_clean_linker_0, # of connection points: 2
#     Edge 26, Type (0, 1), BuildingBlock: XIVTED_clean_linker_0, # of connection points: 2
#     Edge 27, Type (0, 1), BuildingBlock: XIVTED_clean_linker_0, # of connection points: 2
#     Edge 28, Type (0, 1), BuildingBlock: XIVTED_clean_linker_0, # of connection points: 2
#     Edge 29, Type (0, 1), BuildingBlock: XIVTED_clean_linker_0, # of connection points: 2
#     Edge 30, Type (0, 1), BuildingBlock: XIVTED_clean_linker_0, # of connection points: 2
#     Edge 31, Type (0, 1), BuildingBlock: XIVTED_clean_linker_0, # of connection points: 2
#     Edge 32, Type (0, 1), BuildingBlock: XIVTED_clean_linker_0, # of connection points: 2
#     Edge 33, Type (0, 1), BuildingBlock: XIVTED_clean_linker_0, # of connection points: 2
#     Edge 34, Type (0, 1), BuildingBlock: XIVTED_clean_linker_0, # of connection points: 2
#     Edge 35, Type (0, 1), BuildingBlock: XIVTED_clean_linker_0, # of connection points: 2
# Relax obj value: 0.132
# Max RMSD: 0.141
# Mean RMSD: 0.064
data_MOF--net-pyr--node1-INOVEN_clean_sbu_0--node2-ESEHIV_clean_linker_0--edge1-XIVTED_clean_linker_0
_symmetry_space_group_name_H-M    P1
_symmetry_Int_Tables_number       1
_symmetry_cell_setting            triclinic
loop_
_symmetry_equiv_pos_as_xyz
'x, y, z'
_cell_length_a     36.62031
_cell_length_b     37.999944
_cell_length_c     33.398208
_cell_angle_alpha  90.879407
_cell_angle_beta   88.290151
_cell_angle_gamma 102.78008
loop_
_atom_site_label
_atom_site_type_symbol
_atom_site_fract_x
_atom_site_fract_y
_atom_site_fract_z
_atom_type_partial_charge
H0 H 0.31925 0.36861 0.25356 0.0
H1 H 0.37017 0.28144 0.28432 0.0
H2 H 0.38254 0.32267 0.16454 0.0
C3 C 0.33736 0.3504 0.2457 0.0
C4 C 0.35098 0.3493 0.20603 0.0
C5 C 0.3434 0.32561 0.27411 0.0
C6 C 0.36602 0.30143 0.26314 0.0
C7 C 0.38072 0.30051 0.22391 0.0
C8 C 0.37317 0.32462 0.19543 0.0
H9 H 0.10567 0.82324 0.814 0.0
H10 H 0.19713 0.76939 0.81846 0.0
H11 H 0.15541 0.79064 0.70523 0.0
C12 C 0.12577 0.81013 0.79906 0.0
C13 C 0.12757 0.80908 0.75694 0.0
C14 C 0.15172 0.79734 0.82183 0.0
C15 C 0.1765 0.77911 0.80183 0.0
C16 C 0.17717 0.77566 0.75994 0.0
C17 C 0.1527 0.79076 0.73763 0.0
H18 H 0.6927 0.348 0.92918 0.0
H19 H 0.69521 0.44081 0.85593 0.0
H20 H 0.60633 0.3462 0.84446 0.0
C21 C 0.68016 0.36176 0.90701 0.0
C22 C 0.64671 0.34325 0.88956 0.0
C23 C 0.69806 0.39713 0.89571 0.0
C24 C 0.68216 0.41361 0.86503 0.0
C25 C 0.64955 0.39525 0.84559 0.0
C26 C 0.63204 0.36003 0.85822 0.0
H27 H 0.82481 0.73418 0.43102 0.0
H28 H 0.91422 0.73203 0.34507 0.0
H29 H 0.81609 0.64461 0.3494 0.0
C30 C 0.83665 0.72085 0.40658 0.0
C31 C 0.81624 0.68747 0.39234 0.0
C32 C 0.87205 0.73729 0.39009 0.0
C33 C 0.88685 0.71986 0.35773 0.0
C34 C 0.8672 0.68593 0.34297 0.0
C35 C 0.83194 0.6701 0.36082 0.0
H36 H 0.63492 0.81177 0.84773 0.0
H37 H 0.69531 0.72802 0.86381 0.0
H38 H 0.63615 0.76471 0.96309 0.0
C39 C 0.64193 0.7908 0.86561 0.0
C40 C 0.63002 0.78831 0.906 0.0
C41 C 0.66663 0.77006 0.85007 0.0
C42 C 0.6766 0.74447 0.87515 0.0
C43 C 0.667 0.74334 0.91621 0.0
C44 C 0.64303 0.76483 0.93128 0.0
H45 H 0.81718 0.30739 0.34318 0.0
H46 H 0.89313 0.23639 0.35226 0.0
H47 H 0.85398 0.28351 0.4584 0.0
C48 C 0.83525 0.29495 0.36068 0.0
C49 C 0.83539 0.30025 0.40239 0.0
C50 C 0.85518 0.27126 0.34216 0.0
C51 C 0.87724 0.25451 0.36597 0.0
C52 C 0.87633 0.25813 0.40783 0.0
C53 C 0.8552 0.28098 0.42604 0.0
H54 H 0.32944 0.74938 0.18727 0.0
H55 H 0.32775 0.65773 0.26194 0.0
H56 H 0.41622 0.7529 0.27211 0.0
C57 C 0.3422 0.73611 0.20972 0.0
C58 C 0.37557 0.7551 0.227 0.0
C59 C 0.32454 0.70089 0.22166 0.0
C60 C 0.3407 0.68485 0.25247 0.0
C61 C 0.37338 0.70353 0.27151 0.0
C62 C 0.39055 0.73874 0.25851 0.0
H63 H 0.11223 0.35561 0.77193 0.0
H64 H 0.20656 0.35669 0.69159 0.0
H65 H 0.20726 0.44613 0.77198 0.0
C66 C 0.13969 0.36882 0.7603 0.0
C67 C 0.15761 0.40286 0.7762 0.0
C68 C 0.15698 0.35186 0.72943 0.0
C69 C 0.19273 0.36951 0.71489 0.0
C70 C 0.21113 0.40344 0.72975 0.0
C71 C 0.19331 0.41997 0.7604 0.0
Gd72 Gd 0.05048 0.04696 0.53496 0.0
Gd73 Gd 0.99229 1.02883 0.60143 0.0
C74 C 0.05381 0.1037 0.61032 0.0
C75 C 0.09974 0.07486 0.48112 0.0
C76 C 0.12377 0.11026 0.47192 0.0
C77 C 0.16015 0.11164 0.45694 0.0
C78 C 0.1119 0.14251 0.47946 0.0
C79 C 0.17258 0.17714 0.45583 0.0
C80 C 0.13609 0.17578 0.47112 0.0
C81 C 0.18436 0.14473 0.44905 0.0
C82 C 0.05986 0.99462 0.58461 0.0
C83 C 0.98626 0.97589 0.52445 0.0
C84 C 0.95099 1.00741 0.66392 0.0
C85 C 0.91595 0.98014 0.66954 0.0
C86 C 0.88932 0.98551 0.69859 0.0
C87 C 0.90879 0.94863 0.6458 0.0
C88 C 0.8498 0.92702 0.68203 0.0
C89 C 0.8761 0.92219 0.65217 0.0
C90 C 0.8564 0.95919 0.70474 0.0
C91 C 0.97068 0.06218 0.53806 0.0
O92 O 0.06724 0.09674 0.57449 0.0
O93 O 0.02584 0.08061 0.62805 0.0
O94 O 0.10801 0.06002 0.51376 0.0
O95 O 0.06356 0.07069 0.47626 0.0
O96 O 0.0656 0.99374 0.54627 0.0
O97 O 0.05045 1.02341 0.59505 0.0
O98 O 0.98111 0.97782 0.56378 0.0
O99 O 1.00735 1.00337 0.5046 0.0
O100 O 0.94849 1.03608 0.64389 0.0
O101 O 0.98054 0.9949 0.65353 0.0
O102 O 0.94884 1.03614 0.5576 0.0
O103 O 1.00235 0.0694 0.55352 0.0
H104 H 0.16984 0.08701 0.45126 0.0
H105 H 0.08407 0.14198 0.49171 0.0
H106 H 0.12636 0.20038 0.47664 0.0
H107 H 0.21204 0.14487 0.43656 0.0
H108 H 0.89426 1.00978 0.71694 0.0
H109 H 0.92875 0.94416 0.62276 0.0
H110 H 0.87159 0.89777 0.63411 0.0
H111 H 0.8368 0.9634 0.7283 0.0
Gd112 Gd 0.54446 0.05558 0.07583 0.0
Gd113 Gd 0.47315 1.04332 1.0388 0.0
C114 C 0.49025 0.10045 0.11221 0.0
C115 C 0.61532 0.06882 0.08972 0.0
C116 C 0.64656 0.09889 0.09928 0.0
C117 C 0.68255 0.09784 0.08469 0.0
C118 C 0.64145 0.12752 0.12424 0.0
C119 C 0.7089 0.15142 0.1238 0.0
C120 C 0.67243 0.15357 0.13649 0.0
C121 C 0.71349 0.12394 0.09673 0.0
C122 C 0.49322 1.00069 0.11151 0.0
C123 C 0.52743 0.99723 1.00396 0.0
C124 C 0.40243 1.03058 1.02402 0.0
C125 C 0.37059 1.00012 1.01834 0.0
C126 C 0.33962 1.00591 0.9981 0.0
C127 C 0.37031 0.96573 1.03327 0.0
C128 C 0.30804 0.94298 1.0071 0.0
C129 C 0.33921 0.93732 1.02769 0.0
C130 C 0.30868 0.97766 0.99243 0.0
C131 C 0.52445 0.09839 1.00363 0.0
O132 O 0.52599 0.10283 0.10366 0.0
O133 O 0.46483 0.07501 0.09523 0.0
O134 O 0.58922 0.05919 0.11749 0.0
O135 O 0.60209 0.06853 1.05381 0.0
O136 O 0.5175 1.02455 0.13052 0.0
O137 O 0.49776 1.0064 0.07444 0.0
O138 O 0.49164 0.99538 1.01196 0.0
O139 O 0.5527 1.02308 1.02039 0.0
O140 O 0.42861 1.03578 0.99593 0.0
O141 O 0.41567 1.03498 1.06006 0.0
O142 O 0.50029 0.07468 0.98437 0.0
O143 O 0.5196 0.09255 1.04062 0.0
H144 H 0.68688 0.0761 0.06501 0.0
H145 H 0.61375 0.12898 0.13547 0.0
H146 H 0.66791 0.17416 0.15766 0.0
H147 H 0.74113 0.12186 0.08595 0.0
H148 H 0.33948 1.03232 0.98635 0.0
H149 H 0.39408 0.96089 1.04912 0.0
H150 H 0.33959 0.91099 1.03941 0.0
H151 H 0.28568 0.98286 0.97552 0.0
Gd152 Gd 0.5176 0.5202 0.53201 0.0
Gd153 Gd 0.50486 0.57852 0.58539 0.0
C154 C 0.54828 0.51881 0.61983 0.0
C155 C 0.54012 0.48136 0.47631 0.0
C156 C 0.57011 0.46132 0.47336 0.0
C157 C 0.58371 0.44844 0.50784 0.0
C158 C 0.58701 0.45705 0.436 0.0
C159 C 0.63157 0.42795 0.46756 0.0
C160 C 0.61746 0.44049 0.43308 0.0
C161 C 0.61409 0.43173 0.50494 0.0
C162 C 0.4543 0.50181 0.57835 0.0
C163 C 0.47428 0.5798 0.49759 0.0
C164 C 0.48178 0.61635 0.64172 0.0
C165 C 0.44897 0.63277 0.64823 0.0
C166 C 0.45253 0.66994 0.64253 0.0
C167 C 0.41393 0.61167 0.66045 0.0
C168 C 0.38668 0.66457 0.66091 0.0
C169 C 0.38314 0.62738 0.66661 0.0
C170 C 0.42171 0.68565 0.64868 0.0
C171 C 0.56868 0.59688 0.53974 0.0
O172 O 0.55184 0.50772 0.58257 0.0
O173 O 0.52977 0.54439 0.62816 0.0
O174 O 0.51225 0.46878 0.50124 0.0
O175 O 0.55148 0.51643 0.4785 0.0
O176 O 0.47637 0.48036 0.56932 0.0
O177 O 0.46549 0.53161 0.56067 0.0
O178 O 0.46983 0.5901 0.53501 0.0
O179 O 0.49363 0.5549 0.48914 0.0
O180 O 0.50614 0.63051 0.61376 0.0
O181 O 0.47533 0.58109 0.64199 0.0
O182 O 0.54698 0.61857 0.54918 0.0
O183 O 0.55706 0.56701 0.55712 0.0
H184 H 0.57125 0.45183 0.53706 0.0
H185 H 0.57698 0.46699 0.40913 0.0
H186 H 0.62998 0.43751 0.40378 0.0
H187 H 0.6245 0.42264 0.53205 0.0
H188 H 0.47918 0.68692 0.63332 0.0
H189 H 0.41022 0.58301 0.66556 0.0
H190 H 0.35676 0.61048 0.67674 0.0
H191 H 0.4253 0.71432 0.64371 0.0
Gd192 Gd 0.01527 0.51114 0.07371 0.0
Gd193 Gd 0.00965 0.58494 1.0364 0.0
C194 C 0.08259 0.58185 0.08899 0.0
C195 C 0.03686 0.45173 0.08184 0.0
C196 C 0.0745 0.44368 0.08455 0.0
C197 C 0.09369 0.4495 0.12073 0.0
C198 C 0.09224 0.43141 1.05084 0.0
C199 C 0.14796 0.4323 0.08925 0.0
C200 C 0.12862 0.42569 1.0532 0.0
C201 C 0.12993 0.444 0.12299 0.0
C202 C 0.97396 0.54588 0.12424 0.0
C203 C 0.9413 0.51596 1.02545 0.0
C204 C 0.9968 0.64797 1.02507 0.0
C205 C 0.96047 0.65839 1.02522 0.0
C206 C 0.95673 0.69038 1.00715 0.0
C207 C 0.92855 0.63473 1.0412 0.0
C208 C 0.88908 0.67381 1.01897 0.0
C209 C 0.89318 0.64228 1.03798 0.0
C210 C 0.92126 0.69817 1.00424 0.0
C211 C 0.03787 0.53955 0.98685 0.0
O212 O 0.0687 0.54708 0.09557 0.0
O213 O 0.06575 0.6015 0.06625 0.0
O214 O 0.02608 0.46972 0.11209 0.0
O215 O 0.02807 0.46265 1.04703 0.0
O216 O 0.9804 0.51427 0.13109 0.0
O217 O 0.98874 0.55575 0.09052 0.0
O218 O 0.95119 0.55154 1.02882 0.0
O219 O 0.96323 0.49469 1.03692 0.0
O220 O 1.00238 0.62655 0.99557 0.0
O221 O 1.00654 0.63771 1.05964 0.0
O222 O 0.01783 0.56148 0.97507 0.0
O223 O 0.04425 0.5448 1.02377 0.0
H224 H 0.0809 0.45861 0.14745 0.0
H225 H 0.07815 0.42658 1.02257 0.0
H226 H 0.1418 0.41659 1.02673 0.0
H227 H 0.14369 0.44846 0.15148 0.0
H228 H 0.98103 0.70883 0.99448 0.0
H229 H 0.93085 0.60997 1.0555 0.0
H230 H 0.86897 0.62325 1.04998 0.0
H231 H 0.91884 0.72254 0.98914 0.0
H232 H 0.27005 0.32989 0.28601 0.0
H233 H 0.24719 0.20089 0.4705 0.0
H234 H 0.3637 0.30722 0.34861 0.0
H235 H 0.1552 0.23157 0.4129 0.0
H236 H 0.2906 0.25048 0.43691 0.0
H237 H 0.22907 0.30665 0.34231 0.0
C238 C 0.28239 0.32107 0.31204 0.0
C239 C 0.3205 0.31993 0.31202 0.0
C240 C 0.26087 0.24691 0.43225 0.0
C241 C 0.27292 0.29171 0.37634 0.0
C242 C 0.2361 0.21855 0.45134 0.0
C243 C 0.19769 0.21167 0.44368 0.0
C244 C 0.24712 0.26819 0.40489 0.0
C245 C 0.18465 0.23576 0.41936 0.0
C246 C 0.2587 0.30738 0.3442 0.0
C247 C 0.33435 0.30764 0.34671 0.0
N248 N 0.20942 0.2625 0.40014 0.0
N249 N 0.31043 0.29325 0.37709 0.0
H250 H 0.14055 0.85999 0.85797 0.0
H251 H 0.30984 0.87332 0.98547 0.0
H252 H 0.17924 0.76327 0.88369 0.0
H253 H 0.2332 0.94347 1.00728 0.0
H254 H 0.25929 0.82892 0.95551 0.0
H255 H 0.16781 0.88697 0.91892 0.0
C256 C 0.15365 0.84368 0.87677 0.0
C257 C 0.15845 0.80939 0.86435 0.0
C258 C 0.25327 0.85361 0.96786 0.0
C259 C 0.19167 0.84157 0.93406 0.0
C260 C 0.28216 0.87903 0.98505 0.0
C261 C 0.27606 0.91269 0.99782 0.0
C262 C 0.21835 0.86226 0.96279 0.0
C263 C 0.23953 0.91845 0.99641 0.0
C264 C 0.16963 0.8595 0.91178 0.0
C265 C 0.17631 0.7904 0.8907 0.0
N266 N 0.2123 0.8939 0.97821 0.0
N267 N 0.19341 0.8072 0.9236 0.0
H268 H 0.62382 0.3662 0.77286 0.0
H269 H 0.55872 0.54199 0.6981 0.0
H270 H 0.63963 0.46503 0.84178 0.0
H271 H 0.57458 0.45619 0.61798 0.0
H272 H 0.58313 0.51224 0.75272 0.0
H273 H 0.60004 0.39629 0.71795 0.0
C274 C 0.62208 0.39415 0.77661 0.0
C275 C 0.6339 0.41302 0.81217 0.0
C276 C 0.5814 0.49997 0.72317 0.0
C277 C 0.60653 0.44781 0.7491 0.0
C278 C 0.5674 0.51696 0.69187 0.0
C279 C 0.5646 0.50176 0.65311 0.0
C280 C 0.59224 0.46709 0.71609 0.0
C281 C 0.57635 0.46915 0.64716 0.0
C282 C 0.60873 0.41141 0.74508 0.0
C283 C 0.63127 0.4494 0.81491 0.0
N284 N 0.58935 0.45287 0.67824 0.0
N285 N 0.61776 0.46546 0.78403 0.0
H286 H 0.90632 0.71391 0.27387 0.0
H287 H 0.93839 0.52183 0.19435 0.0
H288 H 0.86524 0.61325 0.33523 0.0
H289 H 0.96874 0.61794 0.12319 0.0
H290 H 0.91249 0.55587 0.24625 0.0
H291 H 0.93104 0.68081 0.21937 0.0
C292 C 0.9026 0.68493 0.2761 0.0
C293 C 0.88337 0.66652 0.30946 0.0
C294 C 0.92465 0.56968 0.21927 0.0
C295 C 0.91163 0.62825 0.24667 0.0
C296 C 0.93946 0.55016 0.18945 0.0
C297 C 0.9559 0.56694 0.15409 0.0
C298 C 0.92635 0.60668 0.21428 0.0
C299 C 0.95637 0.60381 0.14973 0.0
C300 C 0.91654 0.666 0.24473 0.0
C301 C 0.87924 0.62879 0.3101 0.0
N302 N 0.94206 0.62247 0.17948 0.0
N303 N 0.89322 0.61112 0.27947 0.0
H304 H 0.35664 0.22876 0.23886 0.0
H305 H 0.52968 0.1693 0.12698 0.0
H306 H 0.44652 0.30506 0.18048 0.0
H307 H 0.42232 0.09731 0.14927 0.0
H308 H 0.50521 0.21874 0.15778 0.0
H309 H 0.38607 0.17979 0.21706 0.0
C310 C 0.38286 0.23522 0.22181 0.0
C311 C 0.39933 0.27102 0.21159 0.0
C312 C 0.48721 0.19202 0.1562 0.0
C313 C 0.433 0.21501 0.18629 0.0
C314 C 0.5012 0.16376 0.13898 0.0
C315 C 0.47789 0.12922 0.13549 0.0
C316 C 0.44988 0.18546 0.17046 0.0
C317 C 0.44114 0.12358 0.15117 0.0
C318 C 0.3995 0.20724 0.20918 0.0
C319 C 0.43292 0.27778 0.18882 0.0
N320 N 0.42826 0.15143 0.16792 0.0
N321 N 0.44876 0.24999 0.17694 0.0
H322 H 0.09606 0.79618 0.68242 0.0
H323 H 0.05913 0.9956 0.66649 0.0
H324 H 0.1163 0.87604 0.77744 0.0
H325 H 0.06739 0.92705 0.56401 0.0
H326 H 0.06789 0.9472 0.7104 0.0
H327 H 0.07344 0.83936 0.64129 0.0
C328 C 0.09538 0.82252 0.69486 0.0
C329 C 0.10828 0.83233 0.73354 0.0
C330 C 0.06756 0.94268 0.6783 0.0
C331 C 0.08218 0.88169 0.68675 0.0
C332 C 0.06253 0.97025 0.65332 0.0
C333 C 0.063 0.96533 0.61169 0.0
C334 C 0.07289 0.90999 0.66144 0.0
C335 C 0.06734 0.93199 0.59603 0.0
C336 C 0.0824 0.84711 0.67139 0.0
C337 C 0.10614 0.86677 0.74819 0.0
N338 N 0.07229 0.9056 0.62091 0.0
N339 N 0.09363 0.89019 0.72472 0.0
H340 H 0.71917 0.39026 0.97378 0.0
H341 H 0.9028 0.54633 0.97148 0.0
H342 H 0.7582 0.44871 0.86505 0.0
H343 H 0.89656 0.44837 1.0374 0.0
H344 H 0.84354 0.51844 0.93981 0.0
H345 H 0.77791 0.41854 1.00487 0.0
C346 C 0.73994 0.40871 0.95607 0.0
C347 C 0.73331 0.41631 0.91605 0.0
C348 C 0.85518 0.50314 0.96126 0.0
C349 C 0.80055 0.45024 0.95287 0.0
C350 C 0.88886 0.51905 0.97953 0.0
C351 C 0.90476 0.49963 1.00715 0.0
C352 C 0.83662 0.46788 0.97143 0.0
C353 C 0.88547 0.46428 1.01618 0.0
C354 C 0.77349 0.42509 0.9742 0.0
C355 C 0.76132 0.44195 0.8959 0.0
N356 N 0.85227 0.44968 0.99869 0.0
N357 N 0.7935 0.45804 0.91454 0.0
H358 H 0.78645 0.6167 0.41443 0.0
H359 H 0.59647 0.66217 0.50609 0.0
H360 H 0.75961 0.72157 0.41252 0.0
H361 H 0.62241 0.55776 0.51945 0.0
H362 H 0.65506 0.68239 0.46834 0.0
H363 H 0.72577 0.59269 0.44875 0.0
C364 C 0.76774 0.63461 0.42087 0.0
C365 C 0.77847 0.67136 0.41076 0.0
C366 C 0.64816 0.65502 0.47942 0.0
C367 C 0.70897 0.64406 0.45027 0.0
C368 C 0.61456 0.64341 0.50109 0.0
C369 C 0.6045 0.60826 0.51627 0.0
C370 C 0.67233 0.63141 0.47251 0.0
C371 C 0.62913 0.58517 0.50849 0.0
C372 C 0.73319 0.62093 0.44071 0.0
C373 C 0.75303 0.69325 0.42021 0.0
N374 N 0.66194 0.59715 0.48721 0.0
N375 N 0.71976 0.67934 0.43935 0.0
H376 H 0.34672 0.42033 0.20587 0.0
H377 H 0.17549 0.37502 1.06031 0.0
H378 H 0.31763 0.32171 0.13698 0.0
H379 H 0.20762 0.47497 0.12648 0.0
H380 H 0.23515 0.36044 0.07646 0.0
H381 H 0.30489 0.44633 0.1655 0.0
C382 C 0.33228 0.40455 0.18147 0.0
C383 C 0.33526 0.36873 0.17504 0.0
C384 C 0.22943 0.38585 0.0869 0.0
C385 C 0.28661 0.39781 0.12939 0.0
C386 C 0.19542 0.39424 0.07753 0.0
C387 C 0.18626 0.42589 0.0928 0.0
C388 C 0.25434 0.40922 0.11183 0.0
C389 C 0.21314 0.4498 0.11501 0.0
C390 C 0.30826 0.41928 0.15852 0.0
C391 C 0.31613 0.34945 0.14293 0.0
N392 N 0.24567 0.44073 0.12434 0.0
N393 N 0.29198 0.36396 0.12184 0.0
H394 H 0.60998 0.28276 0.84746 0.0
H395 H 0.56527 0.15733 1.04293 0.0
H396 H 0.6388 0.31998 0.96756 0.0
H397 H 0.52827 0.12024 0.9252 0.0
H398 H 0.59434 0.21641 1.01491 0.0
H399 H 0.58086 0.22301 0.87436 0.0
C400 C 0.61007 0.27856 0.87945 0.0
C401 C 0.62733 0.30669 0.90508 0.0
C402 C 0.57995 0.19539 0.99509 0.0
C403 C 0.59422 0.2379 0.93616 0.0
C404 C 0.56341 0.16155 1.01111 0.0
C405 C 0.54418 0.13372 0.98643 0.0
C406 C 0.57743 0.2017 0.95393 0.0
C407 C 0.54275 0.14088 0.94538 0.0
C408 C 0.5936 0.24428 0.89479 0.0
C409 C 0.62666 0.29919 0.94632 0.0
N410 N 0.55904 0.17408 0.93046 0.0
N411 N 0.61059 0.26574 0.96041 0.0
H412 H 0.91269 0.79872 0.35189 0.0
H413 H 0.94571 0.91326 0.5573 0.0
H414 H 0.87942 0.75596 0.46954 0.0
H415 H 0.98962 0.95854 0.44344 0.0
H416 H 0.92077 0.85599 0.5241 0.0
H417 H 0.94159 0.85709 0.38308 0.0
C418 C 0.91172 0.80141 0.38421 0.0
C419 C 0.89305 0.77227 0.40796 0.0
C420 C 0.93581 0.87834 0.50617 0.0
C421 C 0.92578 0.83925 0.44389 0.0
C422 C 0.95005 0.91134 0.5252 0.0
C423 C 0.96986 0.94117 0.5033 0.0
C424 C 0.94111 0.8746 0.46458 0.0
C425 C 0.97451 0.93646 0.46167 0.0
C426 C 0.92802 0.83485 0.40199 0.0
C427 C 0.89266 0.77764 0.44975 0.0
N428 N 0.96024 0.9039 0.44368 0.0
N429 N 0.90847 0.81025 0.46616 0.0
H430 H 0.1698 0.72708 0.69729 0.0
H431 H 0.31276 0.63833 0.6431 0.0
H432 H 0.25171 0.78952 0.77565 0.0
H433 H 0.38673 0.72907 0.69856 0.0
H434 H 0.25963 0.66451 0.66198 0.0
H435 H 0.21876 0.70019 0.66641 0.0
C436 C 0.19809 0.73497 0.70805 0.0
C437 C 0.20654 0.75993 0.73964 0.0
C438 C 0.28744 0.67922 0.66928 0.0
C439 C 0.26265 0.72881 0.70524 0.0
C440 C 0.31785 0.66397 0.65894 0.0
C441 C 0.35431 0.68147 0.66931 0.0
C442 C 0.29356 0.71233 0.69016 0.0
C443 C 0.35924 0.71478 0.68948 0.0
C444 C 0.22602 0.71931 0.69075 0.0
C445 C 0.2437 0.76961 0.75215 0.0
N446 N 0.32922 0.72891 0.69948 0.0
N447 N 0.27026 0.75398 0.73501 0.0
H448 H 0.73917 0.76535 0.82998 0.0
H449 H 0.77647 0.93066 0.69595 0.0
H450 H 0.64492 0.80096 0.78215 0.0
H451 H 0.84982 0.85603 0.692 0.0
H452 H 0.72632 0.88301 0.72417 0.0
H453 H 0.77822 0.7951 0.77603 0.0
C454 C 0.72595 0.77831 0.80772 0.0
C455 C 0.68821 0.78084 0.81173 0.0
C456 C 0.7531 0.87686 0.71611 0.0
C457 C 0.73448 0.81715 0.75025 0.0
C458 C 0.78176 0.90406 0.70037 0.0
C459 C 0.81741 0.89734 0.6922 0.0
C460 C 0.76057 0.84309 0.72454 0.0
C461 C 0.82275 0.86235 0.69796 0.0
C462 C 0.74879 0.79579 0.77681 0.0
C463 C 0.67402 0.79926 0.78159 0.0
N464 N 0.79488 0.83674 0.7146 0.0
N465 N 0.69742 0.81764 0.75281 0.0
H466 H 0.83981 0.31071 0.27802 0.0
H467 H 0.77148 0.13148 0.14915 0.0
H468 H 0.85241 0.20404 0.30924 0.0
H469 H 0.72122 0.22384 0.14298 0.0
H470 H 0.81939 0.16603 0.19193 0.0
H471 H 0.81345 0.28608 0.21429 0.0
C472 C 0.83771 0.28236 0.27144 0.0
C473 C 0.84775 0.25941 0.29982 0.0
C474 C 0.79829 0.17897 0.18057 0.0
C475 C 0.81875 0.23155 0.22647 0.0
C476 C 0.77103 0.15936 0.15584 0.0
C477 C 0.74188 0.17461 0.14292 0.0
C478 C 0.79635 0.21401 0.19271 0.0
C479 C 0.7427 0.21079 0.15306 0.0
C480 C 0.82289 0.26846 0.23492 0.0
C481 C 0.84548 0.22315 0.28872 0.0
N482 N 0.7692 0.22916 0.17792 0.0
N483 N 0.83088 0.21036 0.25321 0.0
H484 H 0.39916 0.73278 0.34423 0.0
H485 H 0.46494 0.55729 0.41901 0.0
H486 H 0.38401 0.63404 0.27525 0.0
H487 H 0.44739 0.64215 0.49959 0.0
H488 H 0.44092 0.58725 0.36429 0.0
H489 H 0.42297 0.70275 0.39925 0.0
C490 C 0.40107 0.70488 0.34048 0.0
C491 C 0.38938 0.686 0.30489 0.0
C492 C 0.44219 0.59928 0.39397 0.0
C493 C 0.4168 0.6513 0.36806 0.0
C494 C 0.45596 0.58216 0.42532 0.0
C495 C 0.45815 0.59701 0.46425 0.0
C496 C 0.43097 0.63196 0.40114 0.0
C497 C 0.44606 0.62945 0.47028 0.0
C498 C 0.41443 0.68765 0.37207 0.0
C499 C 0.39226 0.64968 0.30214 0.0
N500 N 0.43329 0.64587 0.43915 0.0
N501 N 0.40577 0.63367 0.33306 0.0
H502 H 0.08483 0.41117 0.78128 0.0
H503 H 0.09762 0.5071 0.9983 0.0
H504 H 0.18765 0.43562 0.84591 0.0
H505 H 0.01698 0.51904 0.911 0.0
H506 H 0.12661 0.47223 0.94847 0.0
H507 H 0.05522 0.4419 0.83396 0.0
C508 C 0.10114 0.42274 0.80669 0.0
C509 C 0.13892 0.4208 0.80891 0.0
C510 C 0.10252 0.48246 0.94033 0.0
C511 C 0.1049 0.45602 0.8699 0.0
C512 C 0.08587 0.50221 0.96882 0.0
C513 C 0.05491 0.51625 0.95878 0.0
C514 C 0.08772 0.47613 0.90174 0.0
C515 C 0.0409 0.50898 0.92006 0.0
C516 C 0.08424 0.44047 0.83672 0.0
C517 C 0.1586 0.4367 0.84263 0.0
N518 N 0.05723 0.48946 0.89318 0.0
N519 N 0.14139 0.45342 0.87178 0.0
H520 H 0.65037 0.83319 0.96945 0.0
H521 H 0.48524 0.93715 0.96662 0.0
H522 H 0.56617 0.80615 0.87968 0.0
H523 H 0.59877 0.98762 0.99712 0.0
H524 H 0.50745 0.88366 0.94272 0.0
H525 H 0.62329 0.88376 0.99133 0.0
C526 C 0.62566 0.83747 0.95494 0.0
C527 C 0.61031 0.81546 0.92287 0.0
C528 C 0.52732 0.90671 0.95437 0.0
C529 C 0.5796 0.87348 0.94733 0.0
C530 C 0.51478 0.93721 0.96784 0.0
C531 C 0.54015 0.96688 0.98401 0.0
C532 C 0.56519 0.90582 0.95807 0.0
C533 C 0.5781 0.96546 0.98502 0.0
C534 C 0.61053 0.86655 0.96707 0.0
C535 C 0.57872 0.82263 0.90454 0.0
N536 N 0.58933 0.93529 0.97277 0.0
N537 N 0.56425 0.85111 0.91707 0.0
H538 H 0.94787 0.24794 0.40225 0.0
H539 H 0.89784 0.06619 0.52818 0.0
H540 H 0.84238 0.21173 0.46593 0.0
H541 H 0.01162 0.12045 0.49849 0.0
H542 H 0.87587 0.11629 0.49908 0.0
H543 H 0.97146 0.19954 0.43318 0.0
C544 C 0.92998 0.23014 0.42334 0.0
C545 C 0.89327 0.23384 0.43182 0.0
C546 C 0.90564 0.11715 0.49883 0.0
C547 C 0.91951 0.17799 0.46628 0.0
C548 C 0.91813 0.08842 0.51502 0.0
C549 C 0.95658 0.08931 0.51572 0.0
C550 C 0.93177 0.14671 0.48285 0.0
C551 C 0.98173 0.11882 0.4985 0.0
C552 C 0.94333 0.20248 0.44079 0.0
C553 C 0.87102 0.21001 0.45906 0.0
N554 N 0.96889 0.1464 0.48276 0.0
N555 N 0.88434 0.18279 0.47498 0.0
H556 H 0.26397 0.65163 0.25459 0.0
H557 H 0.13216 0.64482 0.06759 0.0
H558 H 0.30353 0.70507 0.14317 0.0
H559 H 0.1156 0.55848 0.15323 0.0
H560 H 0.19137 0.67261 0.09924 0.0
H561 H 0.20622 0.62178 0.22198 0.0
C562 C 0.26091 0.65702 0.22329 0.0
C563 C 0.28915 0.68135 0.20196 0.0
C564 C 0.17477 0.64754 0.11102 0.0
C565 C 0.222 0.64775 0.1647 0.0
C566 C 0.14087 0.63172 0.09307 0.0
C567 C 0.11876 0.59917 0.10765 0.0
C568 C 0.18642 0.63118 0.14439 0.0
C569 C 0.13171 0.58346 0.14077 0.0
C570 C 0.22765 0.64005 0.20476 0.0
C571 C 0.28257 0.68743 0.1615 0.0
N572 N 0.16444 0.59972 0.15817 0.0
N573 N 0.24974 0.67107 0.14442 0.0
H574 H 0.27104 0.37256 0.71595 0.0
H575 H 0.40006 0.54038 0.59828 0.0
H576 H 0.23772 0.47374 0.70405 0.0
H577 H 0.42862 0.43756 0.6151 0.0
H578 H 0.342 0.51902 0.6387 0.0
H579 H 0.33031 0.39827 0.68158 0.0
C580 C 0.27626 0.40033 0.7062 0.0
C581 C 0.24906 0.42084 0.71268 0.0
C582 C 0.36105 0.50122 0.63354 0.0
C583 C 0.31755 0.45082 0.67273 0.0
C584 C 0.39416 0.51339 0.61045 0.0
C585 C 0.41916 0.49064 0.60304 0.0
C586 C 0.35295 0.46604 0.64926 0.0
C587 C 0.41017 0.45601 0.61974 0.0
C588 C 0.31026 0.41509 0.68651 0.0
C589 C 0.25786 0.45693 0.69983 0.0
N590 N 0.37798 0.44486 0.64179 0.0
N591 N 0.29117 0.47068 0.68017 0.0
H592 H 0.70366 0.77377 0.98225 0.0
H593 H 0.82764 0.62575 0.99188 0.0
H594 H 0.68295 0.67596 0.91118 0.0
H595 H 0.8644 0.7363 1.03114 0.0
H596 H 0.7666 0.63778 0.97659 0.0
H597 H 0.75338 0.75329 1.0159 0.0
C598 C 0.70871 0.74741 0.97464 0.0
C599 C 0.68928 0.72661 0.94365 0.0
C600 C 0.78789 0.65927 0.98896 0.0
C601 C 0.74682 0.7035 0.98139 0.0
C602 C 0.82266 0.65243 0.99783 0.0
C603 C 0.85119 0.68019 1.01252 0.0
C604 C 0.7815 0.69404 0.99513 0.0
C605 C 0.84334 0.71431 1.01932 0.0
C606 C 0.73747 0.73599 0.9935 0.0
C607 C 0.69751 0.69295 0.93464 0.0
N608 N 0.80926 0.72032 1.01044 0.0
N609 N 0.726 0.68261 0.95308 0.0
H610 H 0.41151 0.81616 0.26867 0.0
H611 H 0.45369 0.9409 0.07247 0.0
H612 H 0.38301 0.77799 0.14881 0.0
H613 H 0.48959 0.97931 0.19012 0.0
H614 H 0.42567 0.8817 0.1008 0.0
H615 H 0.43944 0.87609 0.24143 0.0
C616 C 0.41127 0.82019 0.23666 0.0
C617 C 0.39443 0.79173 0.21121 0.0
C618 C 0.43958 0.90303 0.12055 0.0
C619 C 0.42614 0.86073 0.17973 0.0
C620 C 0.45547 0.93697 0.10435 0.0
C621 C 0.47407 0.96523 0.12891 0.0
C622 C 0.44217 0.89703 0.16177 0.0
C623 C 0.47557 0.95835 0.17003 0.0
C624 C 0.42704 0.85456 0.22113 0.0
C625 C 0.39484 0.79902 0.16992 0.0
N626 N 0.45995 0.92505 0.18511 0.0
N627 N 0.41024 0.83257 0.15564 0.0
H628 H 0.15704 0.32956 0.65064 0.0
H629 H 0.03917 0.12725 0.68666 0.0
H630 H 0.11455 0.29129 0.76765 0.0
H631 H 0.10259 0.16269 0.57809 0.0
H632 H 0.06225 0.18741 0.71613 0.0
H633 H 0.13246 0.26961 0.62297 0.0
C634 C 0.14265 0.30857 0.67071 0.0
C635 C 0.13855 0.31575 0.71189 0.0
C636 C 0.07118 0.18195 0.68592 0.0
C637 C 0.10947 0.2463 0.67976 0.0
C638 C 0.05803 0.14753 0.66901 0.0
C639 C 0.06894 0.13957 0.62973 0.0
C640 C 0.09516 0.20894 0.66333 0.0
C641 C 0.09343 0.16722 0.60847 0.0
C642 C 0.12845 0.27419 0.65472 0.0
C643 C 0.11844 0.28732 0.73579 0.0
N644 N 0.10547 0.20049 0.62541 0.0
N645 N 0.10482 0.25392 0.71945 0.0
H646 H 0.83346 0.36869 0.38157 0.0
H647 H 0.64318 0.36777 0.50542 0.0
H648 H 0.78274 0.28405 0.46341 0.0
H649 H 0.69584 0.45114 0.42277 0.0
H650 H 0.69722 0.33993 0.49675 0.0
H651 H 0.78711 0.40283 0.40314 0.0
C652 C 0.81279 0.35759 0.40456 0.0
C653 C 0.81168 0.32347 0.42055 0.0
C654 C 0.69704 0.36444 0.48074 0.0
C655 C 0.75809 0.36204 0.44499 0.0
C656 C 0.66625 0.3804 0.48575 0.0
C657 C 0.66479 0.41158 0.46438 0.0
C658 C 0.72658 0.37985 0.45425 0.0
C659 C 0.69539 0.42668 0.43916 0.0
C660 C 0.78628 0.377 0.41682 0.0
C661 C 0.78457 0.31035 0.45045 0.0
N662 N 0.72486 0.41059 0.43465 0.0
N663 N 0.75846 0.32946 0.46136 0.0
loop_
_geom_bond_atom_site_label_1
_geom_bond_atom_site_label_2
_geom_bond_distance
_geom_bond_site_symmetry_2
_ccdc_geom_bond_type
H0 C3 0.931 . S
H1 C6 0.928 . S
H2 C8 0.930 . S
C3 H0 0.931 . S
C3 C4 1.413 . S
C3 C5 1.360 . S
C4 C3 1.413 . S
C4 C8 1.429 . S
C5 C3 1.360 . S
C5 C6 1.372 . S
C6 H1 0.928 . S
C6 C5 1.372 . S
C6 C7 1.404 . S
C7 C6 1.404 . S
C7 C8 1.391 . S
C8 H2 0.930 . S
C8 C4 1.429 . S
C8 C7 1.391 . S
H9 C12 0.931 . S
H10 C15 0.928 . S
H11 C17 0.930 . S
C12 H9 0.931 . S
C12 C13 1.413 . S
C12 C14 1.360 . S
C13 C12 1.413 . S
C13 C17 1.429 . S
C14 C12 1.360 . S
C14 C15 1.372 . S
C15 H10 0.928 . S
C15 C14 1.372 . S
C15 C16 1.404 . S
C16 C15 1.404 . S
C16 C17 1.391 . S
C17 H11 0.930 . S
C17 C13 1.429 . S
C17 C16 1.391 . S
H18 C21 0.931 . S
H19 C24 0.928 . S
H20 C26 0.930 . S
C21 H18 0.931 . S
C21 C22 1.413 . S
C21 C23 1.360 . S
C22 C21 1.413 . S
C22 C26 1.429 . S
C23 C21 1.360 . S
C23 C24 1.372 . S
C24 H19 0.928 . S
C24 C23 1.372 . S
C24 C25 1.404 . S
C25 C24 1.404 . S
C25 C26 1.391 . S
C26 H20 0.930 . S
C26 C22 1.429 . S
C26 C25 1.391 . S
H27 C30 0.931 . S
H28 C33 0.928 . S
H29 C35 0.930 . S
C30 H27 0.931 . S
C30 C31 1.413 . S
C30 C32 1.360 . S
C31 C30 1.413 . S
C31 C35 1.429 . S
C32 C30 1.360 . S
C32 C33 1.372 . S
C33 H28 0.928 . S
C33 C32 1.372 . S
C33 C34 1.404 . S
C34 C33 1.404 . S
C34 C35 1.391 . S
C35 H29 0.930 . S
C35 C31 1.429 . S
C35 C34 1.391 . S
H36 C39 0.931 . S
H37 C42 0.928 . S
H38 C44 0.930 . S
C39 H36 0.931 . S
C39 C40 1.413 . S
C39 C41 1.360 . S
C40 C39 1.413 . S
C40 C44 1.429 . S
C41 C39 1.360 . S
C41 C42 1.372 . S
C42 H37 0.928 . S
C42 C41 1.372 . S
C42 C43 1.404 . S
C43 C42 1.404 . S
C43 C44 1.391 . S
C44 H38 0.930 . S
C44 C40 1.429 . S
C44 C43 1.391 . S
H45 C48 0.931 . S
H46 C51 0.928 . S
H47 C53 0.930 . S
C48 H45 0.931 . S
C48 C49 1.413 . S
C48 C50 1.360 . S
C49 C48 1.413 . S
C49 C53 1.429 . S
C50 C48 1.360 . S
C50 C51 1.372 . S
C51 H46 0.928 . S
C51 C50 1.372 . S
C51 C52 1.404 . S
C52 C51 1.404 . S
C52 C53 1.391 . S
C53 H47 0.930 . S
C53 C49 1.429 . S
C53 C52 1.391 . S
H54 C57 0.931 . S
H55 C60 0.928 . S
H56 C62 0.930 . S
C57 H54 0.931 . S
C57 C58 1.413 . S
C57 C59 1.360 . S
C58 C57 1.413 . S
C58 C62 1.429 . S
C59 C57 1.360 . S
C59 C60 1.372 . S
C60 H55 0.928 . S
C60 C59 1.372 . S
C60 C61 1.404 . S
C61 C60 1.404 . S
C61 C62 1.391 . S
C62 H56 0.930 . S
C62 C58 1.429 . S
C62 C61 1.391 . S
H63 C66 0.931 . S
H64 C69 0.928 . S
H65 C71 0.930 . S
C66 H63 0.931 . S
C66 C67 1.413 . S
C66 C68 1.360 . S
C67 C66 1.413 . S
C67 C71 1.429 . S
C68 C66 1.360 . S
C68 C69 1.372 . S
C69 H64 0.928 . S
C69 C68 1.372 . S
C69 C70 1.404 . S
C70 C69 1.404 . S
C70 C71 1.391 . S
C71 H65 0.930 . S
C71 C67 1.429 . S
C71 C70 1.391 . S
Gd72 C75 2.818 . S
Gd72 O92 2.377 . S
Gd72 O94 2.448 . S
Gd72 O95 2.506 . S
Gd72 O96 2.435 1_545 S
Gd72 O97 2.717 1_545 S
Gd72 O99 2.395 1_445 S
Gd72 O103 2.327 1_455 S
Gd73 C84 2.818 . S
Gd73 O93 2.395 1_665 S
Gd73 O97 2.327 1_655 S
Gd73 O98 2.377 . S
Gd73 O100 2.448 . S
Gd73 O101 2.506 . S
Gd73 O102 2.435 1_565 S
Gd73 O103 2.717 1_565 S
C74 O92 1.240 . S
C74 O93 1.240 . S
C75 Gd72 2.818 . S
C75 C76 1.510 . S
C75 O94 1.249 . S
C75 O95 1.252 . S
C76 C75 1.510 . S
C76 C77 1.404 . S
C76 C78 1.352 . S
C77 C76 1.404 . S
C77 C81 1.389 . S
C77 H104 0.930 . S
C78 C76 1.352 . S
C78 C80 1.374 . S
C78 H105 0.931 . S
C79 C80 1.359 . S
C79 C81 1.364 . S
C80 C78 1.374 . S
C80 C79 1.359 . S
C80 H106 0.931 . S
C81 C77 1.389 . S
C81 C79 1.364 . S
C81 H107 0.931 . S
C82 O96 1.256 . S
C82 O97 1.257 . S
C83 O98 1.240 . S
C83 O99 1.240 . S
C84 Gd73 2.818 . S
C84 C85 1.510 . S
C84 O100 1.249 . S
C84 O101 1.252 . S
C85 C84 1.510 . S
C85 C86 1.404 . S
C85 C87 1.352 . S
C86 C85 1.404 . S
C86 C90 1.389 . S
C86 H108 0.930 . S
C87 C85 1.352 . S
C87 C89 1.374 . S
C87 H109 0.931 . S
C88 C89 1.359 . S
C88 C90 1.364 . S
C89 C87 1.374 . S
C89 C88 1.359 . S
C89 H110 0.931 . S
C90 C86 1.389 . S
C90 C88 1.364 . S
C90 H111 0.931 . S
C91 O102 1.256 . S
C91 O103 1.257 . S
O92 Gd72 2.377 . S
O92 C74 1.240 . S
O93 Gd73 2.395 1_445 S
O93 C74 1.240 . S
O94 Gd72 2.448 . S
O94 C75 1.249 . S
O95 Gd72 2.506 . S
O95 C75 1.252 . S
O96 Gd72 2.435 1_565 S
O96 C82 1.256 . S
O97 Gd72 2.717 1_565 S
O97 Gd73 2.327 1_455 S
O97 C82 1.257 . S
O98 Gd73 2.377 . S
O98 C83 1.240 . S
O99 Gd72 2.395 1_665 S
O99 C83 1.240 . S
O100 Gd73 2.448 . S
O100 C84 1.249 . S
O101 Gd73 2.506 . S
O101 C84 1.252 . S
O102 Gd73 2.435 1_545 S
O102 C91 1.256 . S
O103 Gd72 2.327 1_655 S
O103 Gd73 2.717 1_545 S
O103 C91 1.257 . S
H104 C77 0.930 . S
H105 C78 0.931 . S
H106 C80 0.931 . S
H107 C81 0.931 . S
H108 C86 0.930 . S
H109 C87 0.931 . S
H110 C89 0.931 . S
H111 C90 0.931 . S
Gd112 C115 2.802 1_565 S
Gd112 O132 2.358 1_565 S
Gd112 O134 2.446 1_565 S
Gd112 O135 2.479 1_565 S
Gd112 O136 2.459 . S
Gd112 O137 2.728 . S
Gd112 O139 2.416 1_554 S
Gd112 O143 2.304 1_564 S
Gd113 C124 2.818 1_545 S
Gd113 O133 2.395 1_556 S
Gd113 O137 2.327 1_546 S
Gd113 O138 2.377 1_545 S
Gd113 O140 2.448 1_545 S
Gd113 O141 2.506 1_545 S
Gd113 O142 2.435 . S
Gd113 O143 2.717 . S
C114 O132 1.240 . S
C114 O133 1.240 . S
C115 Gd112 2.802 1_545 S
C115 C116 1.510 . S
C115 O134 1.249 . S
C115 O135 1.252 . S
C116 C115 1.510 . S
C116 C117 1.404 . S
C116 C118 1.352 . S
C117 C116 1.404 . S
C117 C121 1.389 . S
C117 H144 0.930 . S
C118 C116 1.352 . S
C118 C120 1.374 . S
C118 H145 0.931 . S
C119 C120 1.359 . S
C119 C121 1.364 . S
C120 C118 1.374 . S
C120 C119 1.359 . S
C120 H146 0.931 . S
C121 C117 1.389 . S
C121 C119 1.364 . S
C121 H147 0.931 . S
C122 O136 1.256 . S
C122 O137 1.257 . S
C123 O138 1.240 . S
C123 O139 1.240 . S
C124 Gd113 2.818 1_565 S
C124 C125 1.510 . S
C124 O140 1.249 . S
C124 O141 1.252 . S
C125 C124 1.510 . S
C125 C126 1.404 . S
C125 C127 1.352 . S
C126 C125 1.404 . S
C126 C130 1.389 . S
C126 H148 0.930 . S
C127 C125 1.352 . S
C127 C129 1.374 . S
C127 H149 0.931 . S
C128 C129 1.359 . S
C128 C130 1.364 . S
C129 C127 1.374 . S
C129 C128 1.359 . S
C129 H150 0.931 . S
C130 C126 1.389 . S
C130 C128 1.364 . S
C130 H151 0.931 . S
C131 O142 1.256 . S
C131 O143 1.257 . S
O132 Gd112 2.358 1_545 S
O132 C114 1.240 . S
O133 Gd113 2.395 1_554 S
O133 C114 1.240 . S
O134 Gd112 2.446 1_545 S
O134 C115 1.249 . S
O135 Gd112 2.479 1_545 S
O135 C115 1.252 . S
O136 Gd112 2.459 . S
O136 C122 1.256 . S
O137 Gd112 2.728 . S
O137 Gd113 2.327 1_564 S
O137 C122 1.257 . S
O138 Gd113 2.377 1_565 S
O138 C123 1.240 . S
O139 Gd112 2.416 1_556 S
O139 C123 1.240 . S
O140 Gd113 2.448 1_565 S
O140 C124 1.249 . S
O141 Gd113 2.506 1_565 S
O141 C124 1.252 . S
O142 Gd113 2.435 . S
O142 C131 1.256 . S
O143 Gd112 2.304 1_546 S
O143 Gd113 2.717 . S
O143 C131 1.257 . S
H144 C117 0.930 . S
H145 C118 0.931 . S
H146 C120 0.931 . S
H147 C121 0.931 . S
H148 C126 0.930 . S
H149 C127 0.931 . S
H150 C129 0.931 . S
H151 C130 0.931 . S
Gd152 C155 2.818 . S
Gd152 O172 2.377 . S
Gd152 O174 2.448 . S
Gd152 O175 2.506 . S
Gd152 O176 2.435 . S
Gd152 O177 2.717 . S
Gd152 O179 2.395 . S
Gd152 O183 2.327 . S
Gd153 C164 2.818 . S
Gd153 O173 2.395 . S
Gd153 O177 2.327 . S
Gd153 O178 2.377 . S
Gd153 O180 2.448 . S
Gd153 O181 2.506 . S
Gd153 O182 2.435 . S
Gd153 O183 2.717 . S
C154 O172 1.240 . S
C154 O173 1.240 . S
C155 Gd152 2.818 . S
C155 C156 1.510 . S
C155 O174 1.249 . S
C155 O175 1.252 . S
C156 C155 1.510 . S
C156 C157 1.404 . S
C156 C158 1.352 . S
C157 C156 1.404 . S
C157 C161 1.389 . S
C157 H184 0.930 . S
C158 C156 1.352 . S
C158 C160 1.374 . S
C158 H185 0.931 . S
C159 C160 1.359 . S
C159 C161 1.364 . S
C160 C158 1.374 . S
C160 C159 1.359 . S
C160 H186 0.931 . S
C161 C157 1.389 . S
C161 C159 1.364 . S
C161 H187 0.931 . S
C162 O176 1.256 . S
C162 O177 1.257 . S
C163 O178 1.240 . S
C163 O179 1.240 . S
C164 Gd153 2.818 . S
C164 C165 1.510 . S
C164 O180 1.249 . S
C164 O181 1.252 . S
C165 C164 1.510 . S
C165 C166 1.404 . S
C165 C167 1.352 . S
C166 C165 1.404 . S
C166 C170 1.389 . S
C166 H188 0.930 . S
C167 C165 1.352 . S
C167 C169 1.374 . S
C167 H189 0.931 . S
C168 C169 1.359 . S
C168 C170 1.364 . S
C169 C167 1.374 . S
C169 C168 1.359 . S
C169 H190 0.931 . S
C170 C166 1.389 . S
C170 C168 1.364 . S
C170 H191 0.931 . S
C171 O182 1.256 . S
C171 O183 1.257 . S
O172 Gd152 2.377 . S
O172 C154 1.240 . S
O173 Gd153 2.395 . S
O173 C154 1.240 . S
O174 Gd152 2.448 . S
O174 C155 1.249 . S
O175 Gd152 2.506 . S
O175 C155 1.252 . S
O176 Gd152 2.435 . S
O176 C162 1.256 . S
O177 Gd152 2.717 . S
O177 Gd153 2.327 . S
O177 C162 1.257 . S
O178 Gd153 2.377 . S
O178 C163 1.240 . S
O179 Gd152 2.395 . S
O179 C163 1.240 . S
O180 Gd153 2.448 . S
O180 C164 1.249 . S
O181 Gd153 2.506 . S
O181 C164 1.252 . S
O182 Gd153 2.435 . S
O182 C171 1.256 . S
O183 Gd152 2.327 . S
O183 Gd153 2.717 . S
O183 C171 1.257 . S
H184 C157 0.930 . S
H185 C158 0.931 . S
H186 C160 0.931 . S
H187 C161 0.931 . S
H188 C166 0.930 . S
H189 C167 0.931 . S
H190 C169 0.931 . S
H191 C170 0.931 . S
Gd192 C195 2.818 . S
Gd192 O212 2.377 . S
Gd192 O214 2.448 . S
Gd192 O215 2.506 . S
Gd192 O216 2.435 1_455 S
Gd192 O217 2.717 1_455 S
Gd192 O219 2.395 1_454 S
Gd192 O223 2.327 1_554 S
Gd193 C204 2.818 . S
Gd193 O213 2.395 1_656 S
Gd193 O217 2.327 1_556 S
Gd193 O218 2.377 . S
Gd193 O220 2.448 . S
Gd193 O221 2.506 . S
Gd193 O222 2.435 1_655 S
Gd193 O223 2.717 1_655 S
C194 O212 1.240 . S
C194 O213 1.240 . S
C195 Gd192 2.818 . S
C195 C196 1.510 . S
C195 O214 1.249 . S
C195 O215 1.252 . S
C196 C195 1.510 . S
C196 C197 1.404 . S
C196 C198 1.352 . S
C197 C196 1.404 . S
C197 C201 1.389 . S
C197 H224 0.930 . S
C198 C196 1.352 . S
C198 C200 1.374 . S
C198 H225 0.931 . S
C199 C200 1.359 . S
C199 C201 1.364 . S
C200 C198 1.374 . S
C200 C199 1.359 . S
C200 H226 0.931 . S
C201 C197 1.389 . S
C201 C199 1.364 . S
C201 H227 0.931 . S
C202 O216 1.256 . S
C202 O217 1.257 . S
C203 O218 1.240 . S
C203 O219 1.240 . S
C204 Gd193 2.818 . S
C204 C205 1.510 . S
C204 O220 1.249 . S
C204 O221 1.252 . S
C205 C204 1.510 . S
C205 C206 1.404 . S
C205 C207 1.352 . S
C206 C205 1.404 . S
C206 C210 1.389 . S
C206 H228 0.930 . S
C207 C205 1.352 . S
C207 C209 1.374 . S
C207 H229 0.931 . S
C208 C209 1.359 . S
C208 C210 1.364 . S
C209 C207 1.374 . S
C209 C208 1.359 . S
C209 H230 0.931 . S
C210 C206 1.389 . S
C210 C208 1.364 . S
C210 H231 0.931 . S
C211 O222 1.256 . S
C211 O223 1.257 . S
O212 Gd192 2.377 . S
O212 C194 1.240 . S
O213 Gd193 2.395 1_454 S
O213 C194 1.240 . S
O214 Gd192 2.448 . S
O214 C195 1.249 . S
O215 Gd192 2.506 . S
O215 C195 1.252 . S
O216 Gd192 2.435 1_655 S
O216 C202 1.256 . S
O217 Gd192 2.717 1_655 S
O217 Gd193 2.327 1_554 S
O217 C202 1.257 . S
O218 Gd193 2.377 . S
O218 C203 1.240 . S
O219 Gd192 2.395 1_656 S
O219 C203 1.240 . S
O220 Gd193 2.448 . S
O220 C204 1.249 . S
O221 Gd193 2.506 . S
O221 C204 1.252 . S
O222 Gd193 2.435 1_455 S
O222 C211 1.256 . S
O223 Gd192 2.327 1_556 S
O223 Gd193 2.717 1_455 S
O223 C211 1.257 . S
H224 C197 0.930 . S
H225 C198 0.931 . S
H226 C200 0.931 . S
H227 C201 0.931 . S
H228 C206 0.930 . S
H229 C207 0.931 . S
H230 C209 0.931 . S
H231 C210 0.931 . S
H232 C238 0.930 . S
H233 C242 0.930 . S
H234 C247 0.929 . S
H235 C245 0.929 . S
H236 C240 0.929 . S
H237 C246 0.929 . S
C238 H232 0.930 . S
C238 C239 1.367 . S
C238 C246 1.378 . S
C239 C238 1.367 . S
C239 C247 1.433 . S
C240 H236 0.929 . S
C240 C242 1.378 . S
C240 C244 1.350 . S
C241 C244 1.463 . S
C241 C246 1.350 . S
C241 N249 1.427 . S
C242 H233 0.930 . S
C242 C240 1.378 . S
C242 C243 1.367 . S
C243 C242 1.367 . S
C243 C245 1.433 . S
C244 C240 1.350 . S
C244 C241 1.463 . S
C244 N248 1.427 . S
C245 H235 0.929 . S
C245 C243 1.433 . S
C245 N248 1.384 . S
C246 H237 0.929 . S
C246 C238 1.378 . S
C246 C241 1.350 . S
C247 H234 0.929 . S
C247 C239 1.433 . S
C247 N249 1.384 . S
N248 C244 1.427 . S
N248 C245 1.384 . S
N249 C241 1.427 . S
N249 C247 1.384 . S
H250 C256 0.930 . S
H251 C260 0.930 . S
H252 C265 0.929 . S
H253 C263 0.929 . S
H254 C258 0.929 . S
H255 C264 0.929 . S
C256 H250 0.930 . S
C256 C257 1.367 . S
C256 C264 1.378 . S
C257 C256 1.367 . S
C257 C265 1.433 . S
C258 H254 0.929 . S
C258 C260 1.378 . S
C258 C262 1.350 . S
C259 C262 1.463 . S
C259 C264 1.350 . S
C259 N267 1.427 . S
C260 H251 0.930 . S
C260 C258 1.378 . S
C260 C261 1.367 . S
C261 C260 1.367 . S
C261 C263 1.433 . S
C262 C258 1.350 . S
C262 C259 1.463 . S
C262 N266 1.427 . S
C263 H253 0.929 . S
C263 C261 1.433 . S
C263 N266 1.384 . S
C264 H255 0.929 . S
C264 C256 1.378 . S
C264 C259 1.350 . S
C265 H252 0.929 . S
C265 C257 1.433 . S
C265 N267 1.384 . S
N266 C262 1.427 . S
N266 C263 1.384 . S
N267 C259 1.427 . S
N267 C265 1.384 . S
H268 C274 0.930 . S
H269 C278 0.930 . S
H270 C283 0.929 . S
H271 C281 0.929 . S
H272 C276 0.929 . S
H273 C282 0.929 . S
C274 H268 0.930 . S
C274 C275 1.367 . S
C274 C282 1.378 . S
C275 C274 1.367 . S
C275 C283 1.433 . S
C276 H272 0.929 . S
C276 C278 1.378 . S
C276 C280 1.350 . S
C277 C280 1.463 . S
C277 C282 1.350 . S
C277 N285 1.427 . S
C278 H269 0.930 . S
C278 C276 1.378 . S
C278 C279 1.367 . S
C279 C278 1.367 . S
C279 C281 1.433 . S
C280 C276 1.350 . S
C280 C277 1.463 . S
C280 N284 1.427 . S
C281 H271 0.929 . S
C281 C279 1.433 . S
C281 N284 1.384 . S
C282 H273 0.929 . S
C282 C274 1.378 . S
C282 C277 1.350 . S
C283 H270 0.929 . S
C283 C275 1.433 . S
C283 N285 1.384 . S
N284 C280 1.427 . S
N284 C281 1.384 . S
N285 C277 1.427 . S
N285 C283 1.384 . S
H286 C292 0.930 . S
H287 C296 0.930 . S
H288 C301 0.929 . S
H289 C299 0.929 . S
H290 C294 0.929 . S
H291 C300 0.929 . S
C292 H286 0.930 . S
C292 C293 1.367 . S
C292 C300 1.378 . S
C293 C292 1.367 . S
C293 C301 1.433 . S
C294 H290 0.929 . S
C294 C296 1.378 . S
C294 C298 1.350 . S
C295 C298 1.463 . S
C295 C300 1.350 . S
C295 N303 1.427 . S
C296 H287 0.930 . S
C296 C294 1.378 . S
C296 C297 1.367 . S
C297 C296 1.367 . S
C297 C299 1.433 . S
C298 C294 1.350 . S
C298 C295 1.463 . S
C298 N302 1.427 . S
C299 H289 0.929 . S
C299 C297 1.433 . S
C299 N302 1.384 . S
C300 H291 0.929 . S
C300 C292 1.378 . S
C300 C295 1.350 . S
C301 H288 0.929 . S
C301 C293 1.433 . S
C301 N303 1.384 . S
N302 C298 1.427 . S
N302 C299 1.384 . S
N303 C295 1.427 . S
N303 C301 1.384 . S
H304 C310 0.930 . S
H305 C314 0.930 . S
H306 C319 0.929 . S
H307 C317 0.929 . S
H308 C312 0.929 . S
H309 C318 0.929 . S
C310 H304 0.930 . S
C310 C311 1.367 . S
C310 C318 1.378 . S
C311 C310 1.367 . S
C311 C319 1.433 . S
C312 H308 0.929 . S
C312 C314 1.378 . S
C312 C316 1.350 . S
C313 C316 1.463 . S
C313 C318 1.350 . S
C313 N321 1.427 . S
C314 H305 0.930 . S
C314 C312 1.378 . S
C314 C315 1.367 . S
C315 C314 1.367 . S
C315 C317 1.433 . S
C316 C312 1.350 . S
C316 C313 1.463 . S
C316 N320 1.427 . S
C317 H307 0.929 . S
C317 C315 1.433 . S
C317 N320 1.384 . S
C318 H309 0.929 . S
C318 C310 1.378 . S
C318 C313 1.350 . S
C319 H306 0.929 . S
C319 C311 1.433 . S
C319 N321 1.384 . S
N320 C316 1.427 . S
N320 C317 1.384 . S
N321 C313 1.427 . S
N321 C319 1.384 . S
H322 C328 0.930 . S
H323 C332 0.930 . S
H324 C337 0.929 . S
H325 C335 0.929 . S
H326 C330 0.929 . S
H327 C336 0.929 . S
C328 H322 0.930 . S
C328 C329 1.367 . S
C328 C336 1.378 . S
C329 C328 1.367 . S
C329 C337 1.433 . S
C330 H326 0.929 . S
C330 C332 1.378 . S
C330 C334 1.350 . S
C331 C334 1.463 . S
C331 C336 1.350 . S
C331 N339 1.427 . S
C332 H323 0.930 . S
C332 C330 1.378 . S
C332 C333 1.367 . S
C333 C332 1.367 . S
C333 C335 1.433 . S
C334 C330 1.350 . S
C334 C331 1.463 . S
C334 N338 1.427 . S
C335 H325 0.929 . S
C335 C333 1.433 . S
C335 N338 1.384 . S
C336 H327 0.929 . S
C336 C328 1.378 . S
C336 C331 1.350 . S
C337 H324 0.929 . S
C337 C329 1.433 . S
C337 N339 1.384 . S
N338 C334 1.427 . S
N338 C335 1.384 . S
N339 C331 1.427 . S
N339 C337 1.384 . S
H340 C346 0.930 . S
H341 C350 0.930 . S
H342 C355 0.929 . S
H343 C353 0.929 . S
H344 C348 0.929 . S
H345 C354 0.929 . S
C346 H340 0.930 . S
C346 C347 1.367 . S
C346 C354 1.378 . S
C347 C346 1.367 . S
C347 C355 1.433 . S
C348 H344 0.929 . S
C348 C350 1.378 . S
C348 C352 1.350 . S
C349 C352 1.463 . S
C349 C354 1.350 . S
C349 N357 1.427 . S
C350 H341 0.930 . S
C350 C348 1.378 . S
C350 C351 1.367 . S
C351 C350 1.367 . S
C351 C353 1.433 . S
C352 C348 1.350 . S
C352 C349 1.463 . S
C352 N356 1.427 . S
C353 H343 0.929 . S
C353 C351 1.433 . S
C353 N356 1.384 . S
C354 H345 0.929 . S
C354 C346 1.378 . S
C354 C349 1.350 . S
C355 H342 0.929 . S
C355 C347 1.433 . S
C355 N357 1.384 . S
N356 C352 1.427 . S
N356 C353 1.384 . S
N357 C349 1.427 . S
N357 C355 1.384 . S
H358 C364 0.930 . S
H359 C368 0.930 . S
H360 C373 0.929 . S
H361 C371 0.929 . S
H362 C366 0.929 . S
H363 C372 0.929 . S
C364 H358 0.930 . S
C364 C365 1.367 . S
C364 C372 1.378 . S
C365 C364 1.367 . S
C365 C373 1.433 . S
C366 H362 0.929 . S
C366 C368 1.378 . S
C366 C370 1.350 . S
C367 C370 1.463 . S
C367 C372 1.350 . S
C367 N375 1.427 . S
C368 H359 0.930 . S
C368 C366 1.378 . S
C368 C369 1.367 . S
C369 C368 1.367 . S
C369 C371 1.433 . S
C370 C366 1.350 . S
C370 C367 1.463 . S
C370 N374 1.427 . S
C371 H361 0.929 . S
C371 C369 1.433 . S
C371 N374 1.384 . S
C372 H363 0.929 . S
C372 C364 1.378 . S
C372 C367 1.350 . S
C373 H360 0.929 . S
C373 C365 1.433 . S
C373 N375 1.384 . S
N374 C370 1.427 . S
N374 C371 1.384 . S
N375 C367 1.427 . S
N375 C373 1.384 . S
H376 C382 0.930 . S
H377 C386 0.930 . S
H378 C391 0.929 . S
H379 C389 0.929 . S
H380 C384 0.929 . S
H381 C390 0.929 . S
C382 H376 0.930 . S
C382 C383 1.367 . S
C382 C390 1.378 . S
C383 C382 1.367 . S
C383 C391 1.433 . S
C384 H380 0.929 . S
C384 C386 1.378 . S
C384 C388 1.350 . S
C385 C388 1.463 . S
C385 C390 1.350 . S
C385 N393 1.427 . S
C386 H377 0.930 . S
C386 C384 1.378 . S
C386 C387 1.367 . S
C387 C386 1.367 . S
C387 C389 1.433 . S
C388 C384 1.350 . S
C388 C385 1.463 . S
C388 N392 1.427 . S
C389 H379 0.929 . S
C389 C387 1.433 . S
C389 N392 1.384 . S
C390 H381 0.929 . S
C390 C382 1.378 . S
C390 C385 1.350 . S
C391 H378 0.929 . S
C391 C383 1.433 . S
C391 N393 1.384 . S
N392 C388 1.427 . S
N392 C389 1.384 . S
N393 C385 1.427 . S
N393 C391 1.384 . S
H394 C400 0.930 . S
H395 C404 0.930 . S
H396 C409 0.929 . S
H397 C407 0.929 . S
H398 C402 0.929 . S
H399 C408 0.929 . S
C400 H394 0.930 . S
C400 C401 1.367 . S
C400 C408 1.378 . S
C401 C400 1.367 . S
C401 C409 1.433 . S
C402 H398 0.929 . S
C402 C404 1.378 . S
C402 C406 1.350 . S
C403 C406 1.463 . S
C403 C408 1.350 . S
C403 N411 1.427 . S
C404 H395 0.930 . S
C404 C402 1.378 . S
C404 C405 1.367 . S
C405 C404 1.367 . S
C405 C407 1.433 . S
C406 C402 1.350 . S
C406 C403 1.463 . S
C406 N410 1.427 . S
C407 H397 0.929 . S
C407 C405 1.433 . S
C407 N410 1.384 . S
C408 H399 0.929 . S
C408 C400 1.378 . S
C408 C403 1.350 . S
C409 H396 0.929 . S
C409 C401 1.433 . S
C409 N411 1.384 . S
N410 C406 1.427 . S
N410 C407 1.384 . S
N411 C403 1.427 . S
N411 C409 1.384 . S
H412 C418 0.930 . S
H413 C422 0.930 . S
H414 C427 0.929 . S
H415 C425 0.929 . S
H416 C420 0.929 . S
H417 C426 0.929 . S
C418 H412 0.930 . S
C418 C419 1.367 . S
C418 C426 1.378 . S
C419 C418 1.367 . S
C419 C427 1.433 . S
C420 H416 0.929 . S
C420 C422 1.378 . S
C420 C424 1.350 . S
C421 C424 1.463 . S
C421 C426 1.350 . S
C421 N429 1.427 . S
C422 H413 0.930 . S
C422 C420 1.378 . S
C422 C423 1.367 . S
C423 C422 1.367 . S
C423 C425 1.433 . S
C424 C420 1.350 . S
C424 C421 1.463 . S
C424 N428 1.427 . S
C425 H415 0.929 . S
C425 C423 1.433 . S
C425 N428 1.384 . S
C426 H417 0.929 . S
C426 C418 1.378 . S
C426 C421 1.350 . S
C427 H414 0.929 . S
C427 C419 1.433 . S
C427 N429 1.384 . S
N428 C424 1.427 . S
N428 C425 1.384 . S
N429 C421 1.427 . S
N429 C427 1.384 . S
H430 C436 0.930 . S
H431 C440 0.930 . S
H432 C445 0.929 . S
H433 C443 0.929 . S
H434 C438 0.929 . S
H435 C444 0.929 . S
C436 H430 0.930 . S
C436 C437 1.367 . S
C436 C444 1.378 . S
C437 C436 1.367 . S
C437 C445 1.433 . S
C438 H434 0.929 . S
C438 C440 1.378 . S
C438 C442 1.350 . S
C439 C442 1.463 . S
C439 C444 1.350 . S
C439 N447 1.427 . S
C440 H431 0.930 . S
C440 C438 1.378 . S
C440 C441 1.367 . S
C441 C440 1.367 . S
C441 C443 1.433 . S
C442 C438 1.350 . S
C442 C439 1.463 . S
C442 N446 1.427 . S
C443 H433 0.929 . S
C443 C441 1.433 . S
C443 N446 1.384 . S
C444 H435 0.929 . S
C444 C436 1.378 . S
C444 C439 1.350 . S
C445 H432 0.929 . S
C445 C437 1.433 . S
C445 N447 1.384 . S
N446 C442 1.427 . S
N446 C443 1.384 . S
N447 C439 1.427 . S
N447 C445 1.384 . S
H448 C454 0.930 . S
H449 C458 0.930 . S
H450 C463 0.929 . S
H451 C461 0.929 . S
H452 C456 0.929 . S
H453 C462 0.929 . S
C454 H448 0.930 . S
C454 C455 1.367 . S
C454 C462 1.378 . S
C455 C454 1.367 . S
C455 C463 1.433 . S
C456 H452 0.929 . S
C456 C458 1.378 . S
C456 C460 1.350 . S
C457 C460 1.463 . S
C457 C462 1.350 . S
C457 N465 1.427 . S
C458 H449 0.930 . S
C458 C456 1.378 . S
C458 C459 1.367 . S
C459 C458 1.367 . S
C459 C461 1.433 . S
C460 C456 1.350 . S
C460 C457 1.463 . S
C460 N464 1.427 . S
C461 H451 0.929 . S
C461 C459 1.433 . S
C461 N464 1.384 . S
C462 H453 0.929 . S
C462 C454 1.378 . S
C462 C457 1.350 . S
C463 H450 0.929 . S
C463 C455 1.433 . S
C463 N465 1.384 . S
N464 C460 1.427 . S
N464 C461 1.384 . S
N465 C457 1.427 . S
N465 C463 1.384 . S
H466 C472 0.930 . S
H467 C476 0.930 . S
H468 C481 0.929 . S
H469 C479 0.929 . S
H470 C474 0.929 . S
H471 C480 0.929 . S
C472 H466 0.930 . S
C472 C473 1.367 . S
C472 C480 1.378 . S
C473 C472 1.367 . S
C473 C481 1.433 . S
C474 H470 0.929 . S
C474 C476 1.378 . S
C474 C478 1.350 . S
C475 C478 1.463 . S
C475 C480 1.350 . S
C475 N483 1.427 . S
C476 H467 0.930 . S
C476 C474 1.378 . S
C476 C477 1.367 . S
C477 C476 1.367 . S
C477 C479 1.433 . S
C478 C474 1.350 . S
C478 C475 1.463 . S
C478 N482 1.427 . S
C479 H469 0.929 . S
C479 C477 1.433 . S
C479 N482 1.384 . S
C480 H471 0.929 . S
C480 C472 1.378 . S
C480 C475 1.350 . S
C481 H468 0.929 . S
C481 C473 1.433 . S
C481 N483 1.384 . S
N482 C478 1.427 . S
N482 C479 1.384 . S
N483 C475 1.427 . S
N483 C481 1.384 . S
H484 C490 0.930 . S
H485 C494 0.930 . S
H486 C499 0.929 . S
H487 C497 0.929 . S
H488 C492 0.929 . S
H489 C498 0.929 . S
C490 H484 0.930 . S
C490 C491 1.367 . S
C490 C498 1.378 . S
C491 C490 1.367 . S
C491 C499 1.433 . S
C492 H488 0.929 . S
C492 C494 1.378 . S
C492 C496 1.350 . S
C493 C496 1.463 . S
C493 C498 1.350 . S
C493 N501 1.427 . S
C494 H485 0.930 . S
C494 C492 1.378 . S
C494 C495 1.367 . S
C495 C494 1.367 . S
C495 C497 1.433 . S
C496 C492 1.350 . S
C496 C493 1.463 . S
C496 N500 1.427 . S
C497 H487 0.929 . S
C497 C495 1.433 . S
C497 N500 1.384 . S
C498 H489 0.929 . S
C498 C490 1.378 . S
C498 C493 1.350 . S
C499 H486 0.929 . S
C499 C491 1.433 . S
C499 N501 1.384 . S
N500 C496 1.427 . S
N500 C497 1.384 . S
N501 C493 1.427 . S
N501 C499 1.384 . S
H502 C508 0.930 . S
H503 C512 0.930 . S
H504 C517 0.929 . S
H505 C515 0.929 . S
H506 C510 0.929 . S
H507 C516 0.929 . S
C508 H502 0.930 . S
C508 C509 1.367 . S
C508 C516 1.378 . S
C509 C508 1.367 . S
C509 C517 1.433 . S
C510 H506 0.929 . S
C510 C512 1.378 . S
C510 C514 1.350 . S
C511 C514 1.463 . S
C511 C516 1.350 . S
C511 N519 1.427 . S
C512 H503 0.930 . S
C512 C510 1.378 . S
C512 C513 1.367 . S
C513 C512 1.367 . S
C513 C515 1.433 . S
C514 C510 1.350 . S
C514 C511 1.463 . S
C514 N518 1.427 . S
C515 H505 0.929 . S
C515 C513 1.433 . S
C515 N518 1.384 . S
C516 H507 0.929 . S
C516 C508 1.378 . S
C516 C511 1.350 . S
C517 H504 0.929 . S
C517 C509 1.433 . S
C517 N519 1.384 . S
N518 C514 1.427 . S
N518 C515 1.384 . S
N519 C511 1.427 . S
N519 C517 1.384 . S
H520 C526 0.930 . S
H521 C530 0.930 . S
H522 C535 0.929 . S
H523 C533 0.929 . S
H524 C528 0.929 . S
H525 C534 0.929 . S
C526 H520 0.930 . S
C526 C527 1.367 . S
C526 C534 1.378 . S
C527 C526 1.367 . S
C527 C535 1.433 . S
C528 H524 0.929 . S
C528 C530 1.378 . S
C528 C532 1.350 . S
C529 C532 1.463 . S
C529 C534 1.350 . S
C529 N537 1.427 . S
C530 H521 0.930 . S
C530 C528 1.378 . S
C530 C531 1.367 . S
C531 C530 1.367 . S
C531 C533 1.433 . S
C532 C528 1.350 . S
C532 C529 1.463 . S
C532 N536 1.427 . S
C533 H523 0.929 . S
C533 C531 1.433 . S
C533 N536 1.384 . S
C534 H525 0.929 . S
C534 C526 1.378 . S
C534 C529 1.350 . S
C535 H522 0.929 . S
C535 C527 1.433 . S
C535 N537 1.384 . S
N536 C532 1.427 . S
N536 C533 1.384 . S
N537 C529 1.427 . S
N537 C535 1.384 . S
H538 C544 0.930 . S
H539 C548 0.930 . S
H540 C553 0.929 . S
H541 C551 0.929 . S
H542 C546 0.929 . S
H543 C552 0.929 . S
C544 H538 0.930 . S
C544 C545 1.367 . S
C544 C552 1.378 . S
C545 C544 1.367 . S
C545 C553 1.433 . S
C546 H542 0.929 . S
C546 C548 1.378 . S
C546 C550 1.350 . S
C547 C550 1.463 . S
C547 C552 1.350 . S
C547 N555 1.427 . S
C548 H539 0.930 . S
C548 C546 1.378 . S
C548 C549 1.367 . S
C549 C548 1.367 . S
C549 C551 1.433 . S
C550 C546 1.350 . S
C550 C547 1.463 . S
C550 N554 1.427 . S
C551 H541 0.929 . S
C551 C549 1.433 . S
C551 N554 1.384 . S
C552 H543 0.929 . S
C552 C544 1.378 . S
C552 C547 1.350 . S
C553 H540 0.929 . S
C553 C545 1.433 . S
C553 N555 1.384 . S
N554 C550 1.427 . S
N554 C551 1.384 . S
N555 C547 1.427 . S
N555 C553 1.384 . S
H556 C562 0.930 . S
H557 C566 0.930 . S
H558 C571 0.929 . S
H559 C569 0.929 . S
H560 C564 0.929 . S
H561 C570 0.929 . S
C562 H556 0.930 . S
C562 C563 1.367 . S
C562 C570 1.378 . S
C563 C562 1.367 . S
C563 C571 1.433 . S
C564 H560 0.929 . S
C564 C566 1.378 . S
C564 C568 1.350 . S
C565 C568 1.463 . S
C565 C570 1.350 . S
C565 N573 1.427 . S
C566 H557 0.930 . S
C566 C564 1.378 . S
C566 C567 1.367 . S
C567 C566 1.367 . S
C567 C569 1.433 . S
C568 C564 1.350 . S
C568 C565 1.463 . S
C568 N572 1.427 . S
C569 H559 0.929 . S
C569 C567 1.433 . S
C569 N572 1.384 . S
C570 H561 0.929 . S
C570 C562 1.378 . S
C570 C565 1.350 . S
C571 H558 0.929 . S
C571 C563 1.433 . S
C571 N573 1.384 . S
N572 C568 1.427 . S
N572 C569 1.384 . S
N573 C565 1.427 . S
N573 C571 1.384 . S
H574 C580 0.930 . S
H575 C584 0.930 . S
H576 C589 0.929 . S
H577 C587 0.929 . S
H578 C582 0.929 . S
H579 C588 0.929 . S
C580 H574 0.930 . S
C580 C581 1.367 . S
C580 C588 1.378 . S
C581 C580 1.367 . S
C581 C589 1.433 . S
C582 H578 0.929 . S
C582 C584 1.378 . S
C582 C586 1.350 . S
C583 C586 1.463 . S
C583 C588 1.350 . S
C583 N591 1.427 . S
C584 H575 0.930 . S
C584 C582 1.378 . S
C584 C585 1.367 . S
C585 C584 1.367 . S
C585 C587 1.433 . S
C586 C582 1.350 . S
C586 C583 1.463 . S
C586 N590 1.427 . S
C587 H577 0.929 . S
C587 C585 1.433 . S
C587 N590 1.384 . S
C588 H579 0.929 . S
C588 C580 1.378 . S
C588 C583 1.350 . S
C589 H576 0.929 . S
C589 C581 1.433 . S
C589 N591 1.384 . S
N590 C586 1.427 . S
N590 C587 1.384 . S
N591 C583 1.427 . S
N591 C589 1.384 . S
H592 C598 0.930 . S
H593 C602 0.930 . S
H594 C607 0.929 . S
H595 C605 0.929 . S
H596 C600 0.929 . S
H597 C606 0.929 . S
C598 H592 0.930 . S
C598 C599 1.367 . S
C598 C606 1.378 . S
C599 C598 1.367 . S
C599 C607 1.433 . S
C600 H596 0.929 . S
C600 C602 1.378 . S
C600 C604 1.350 . S
C601 C604 1.463 . S
C601 C606 1.350 . S
C601 N609 1.427 . S
C602 H593 0.930 . S
C602 C600 1.378 . S
C602 C603 1.367 . S
C603 C602 1.367 . S
C603 C605 1.433 . S
C604 C600 1.350 . S
C604 C601 1.463 . S
C604 N608 1.427 . S
C605 H595 0.929 . S
C605 C603 1.433 . S
C605 N608 1.384 . S
C606 H597 0.929 . S
C606 C598 1.378 . S
C606 C601 1.350 . S
C607 H594 0.929 . S
C607 C599 1.433 . S
C607 N609 1.384 . S
N608 C604 1.427 . S
N608 C605 1.384 . S
N609 C601 1.427 . S
N609 C607 1.384 . S
H610 C616 0.930 . S
H611 C620 0.930 . S
H612 C625 0.929 . S
H613 C623 0.929 . S
H614 C618 0.929 . S
H615 C624 0.929 . S
C616 H610 0.930 . S
C616 C617 1.367 . S
C616 C624 1.378 . S
C617 C616 1.367 . S
C617 C625 1.433 . S
C618 H614 0.929 . S
C618 C620 1.378 . S
C618 C622 1.350 . S
C619 C622 1.463 . S
C619 C624 1.350 . S
C619 N627 1.427 . S
C620 H611 0.930 . S
C620 C618 1.378 . S
C620 C621 1.367 . S
C621 C620 1.367 . S
C621 C623 1.433 . S
C622 C618 1.350 . S
C622 C619 1.463 . S
C622 N626 1.427 . S
C623 H613 0.929 . S
C623 C621 1.433 . S
C623 N626 1.384 . S
C624 H615 0.929 . S
C624 C616 1.378 . S
C624 C619 1.350 . S
C625 H612 0.929 . S
C625 C617 1.433 . S
C625 N627 1.384 . S
N626 C622 1.427 . S
N626 C623 1.384 . S
N627 C619 1.427 . S
N627 C625 1.384 . S
H628 C634 0.930 . S
H629 C638 0.930 . S
H630 C643 0.929 . S
H631 C641 0.929 . S
H632 C636 0.929 . S
H633 C642 0.929 . S
C634 H628 0.930 . S
C634 C635 1.367 . S
C634 C642 1.378 . S
C635 C634 1.367 . S
C635 C643 1.433 . S
C636 H632 0.929 . S
C636 C638 1.378 . S
C636 C640 1.350 . S
C637 C640 1.463 . S
C637 C642 1.350 . S
C637 N645 1.427 . S
C638 H629 0.930 . S
C638 C636 1.378 . S
C638 C639 1.367 . S
C639 C638 1.367 . S
C639 C641 1.433 . S
C640 C636 1.350 . S
C640 C637 1.463 . S
C640 N644 1.427 . S
C641 H631 0.929 . S
C641 C639 1.433 . S
C641 N644 1.384 . S
C642 H633 0.929 . S
C642 C634 1.378 . S
C642 C637 1.350 . S
C643 H630 0.929 . S
C643 C635 1.433 . S
C643 N645 1.384 . S
N644 C640 1.427 . S
N644 C641 1.384 . S
N645 C637 1.427 . S
N645 C643 1.384 . S
H646 C652 0.930 . S
H647 C656 0.930 . S
H648 C661 0.929 . S
H649 C659 0.929 . S
H650 C654 0.929 . S
H651 C660 0.929 . S
C652 H646 0.930 . S
C652 C653 1.367 . S
C652 C660 1.378 . S
C653 C652 1.367 . S
C653 C661 1.433 . S
C654 H650 0.929 . S
C654 C656 1.378 . S
C654 C658 1.350 . S
C655 C658 1.463 . S
C655 C660 1.350 . S
C655 N663 1.427 . S
C656 H647 0.930 . S
C656 C654 1.378 . S
C656 C657 1.367 . S
C657 C656 1.367 . S
C657 C659 1.433 . S
C658 C654 1.350 . S
C658 C655 1.463 . S
C658 N662 1.427 . S
C659 H649 0.929 . S
C659 C657 1.433 . S
C659 N662 1.384 . S
C660 H651 0.929 . S
C660 C652 1.378 . S
C660 C655 1.350 . S
C661 H648 0.929 . S
C661 C653 1.433 . S
C661 N663 1.384 . S
N662 C658 1.427 . S
N662 C659 1.384 . S
N663 C655 1.427 . S
N663 C661 1.384 . S
C239 C5 1.007 . S
C243 C79 1.026 . S
C257 C14 0.952 . S
C261 C128 0.953 . S
C279 C154 2.472 . S
C275 C25 2.504 . S
C293 C34 2.440 . S
C297 C202 2.386 . S
C315 C114 2.035 . S
C311 C7 1.947 . S
C333 C82 0.798 . S
C329 C13 0.804 . S
C351 C203 1.913 . S
C347 C23 1.948 . S
C369 C171 1.657 . S
C365 C31 1.690 . S
C383 C4 1.428 . S
C387 C199 1.455 . S
C405 C131 2.324 . S
C401 C22 2.396 . S
C419 C32 2.345 . S
C423 C83 2.340 . S
C437 C16 0.879 . S
C441 C168 0.891 . S
C459 C88 1.014 . S
C455 C41 0.994 . S
C473 C50 0.950 . S
C477 C119 0.949 . S
C491 C61 2.497 . S
C495 C163 2.464 . S
C509 C67 2.451 . S
C513 C211 2.400 . S
C527 C40 1.972 . S
C531 C123 2.055 . S
C549 C91 0.754 . S
C545 C52 0.763 . S
C567 C194 1.926 . S
C563 C59 1.960 . S
C585 C162 1.662 . S
C581 C70 1.684 . S
C599 C43 1.410 . S
C603 C208 1.453 . S
C621 C122 2.334 . S
C617 C58 2.407 . S
C639 C74 2.317 . S
C635 C68 2.325 . S
C653 C49 0.896 . S
C657 C159 0.893 . S
