# Generated by pormake.
# Topology rtl, (3,6)-cn, num edge types: 1
# Building blocks:
#     Node 0, Type 0, BuildingBlock: VETTIZ_charged_linker_0, # of connection points: 3
#     Node 1, Type 0, BuildingBlock: VETTIZ_charged_linker_0, # of connection points: 3
#     Node 2, Type 0, BuildingBlock: VETTIZ_charged_linker_0, # of connection points: 3
#     Node 3, Type 0, BuildingBlock: VETTIZ_charged_linker_0, # of connection points: 3
#     Node 4, Type 1, BuildingBlock: FUNLAD_clean_sbu_0, # of connection points: 6
#     Node 5, Type 1, BuildingBlock: FUNLAD_clean_sbu_0, # of connection points: 6
#     Edge 6, Type (0, 1), BuildingBlock: ZUJKAS_clean_linker_0, # of connection points: 2
#     Edge 7, Type (0, 1), BuildingBlock: ZUJKAS_clean_linker_0, # of connection points: 2
#     Edge 8, Type (0, 1), BuildingBlock: ZUJKAS_clean_linker_0, # of connection points: 2
#     Edge 9, Type (0, 1), BuildingBlock: ZUJKAS_clean_linker_0, # of connection points: 2
#     Edge 10, Type (0, 1), BuildingBlock: ZUJKAS_clean_linker_0, # of connection points: 2
#     Edge 11, Type (0, 1), BuildingBlock: ZUJKAS_clean_linker_0, # of connection points: 2
#     Edge 12, Type (0, 1), BuildingBlock: ZUJKAS_clean_linker_0, # of connection points: 2
#     Edge 13, Type (0, 1), BuildingBlock: ZUJKAS_clean_linker_0, # of connection points: 2
#     Edge 14, Type (0, 1), BuildingBlock: ZUJKAS_clean_linker_0, # of connection points: 2
#     Edge 15, Type (0, 1), BuildingBlock: ZUJKAS_clean_linker_0, # of connection points: 2
#     Edge 16, Type (0, 1), BuildingBlock: ZUJKAS_clean_linker_0, # of connection points: 2
#     Edge 17, Type (0, 1), BuildingBlock: ZUJKAS_clean_linker_0, # of connection points: 2
# Relax obj value: 0.030
# Max RMSD: 0.087
# Mean RMSD: 0.075
data_MOF--net-rtl--node1-FUNLAD_clean_sbu_0--node2-VETTIZ_charged_linker_0--edge1-ZUJKAS_clean_linker_0
_symmetry_space_group_name_H-M    P1
_symmetry_Int_Tables_number       1
_symmetry_cell_setting            triclinic
loop_
_symmetry_equiv_pos_as_xyz
'x, y, z'
_cell_length_a     59.233088
_cell_length_b     48.568486
_cell_length_c     35.263269
_cell_angle_alpha  89.967724
_cell_angle_beta   90.916433
_cell_angle_gamma 90.662604
loop_
_atom_site_label
_atom_site_type_symbol
_atom_site_fract_x
_atom_site_fract_y
_atom_site_fract_z
_atom_type_partial_charge
C0 C 0.09532 0.77815 0.88433 0.0
C1 C 0.07601 0.79463 0.88114 0.0
C2 C 0.06363 0.80041 0.91395 0.0
C3 C 0.09083 0.7757 0.95256 0.0
C4 C 0.10232 0.7688 0.9202 0.0
C5 C 0.12267 0.75147 0.92891 0.0
H6 H 0.19371 0.69574 0.05942 0.0
C7 C 0.10346 0.76471 0.98557 0.0
C8 C 0.12198 0.75018 0.97194 0.0
H9 H 0.19588 0.68893 0.93725 0.0
H10 H 0.16192 0.71555 0.93128 0.0
H11 H 0.18164 0.75792 0.06138 0.0
H12 H 0.13836 0.68619 0.06617 0.0
H13 H 0.13003 0.70958 0.10135 0.0
H14 H 0.15806 0.6956 0.10332 0.0
H15 H 0.17864 0.73826 0.10412 0.0
H16 H 0.15971 0.76593 0.09215 0.0
C17 C 0.14387 0.76714 0.91488 0.0
C18 C 0.11884 0.72275 0.91054 0.0
C19 C 0.08093 0.79291 0.11797 0.0
C20 C 0.0913 0.79002 0.15392 0.0
C21 C 0.11059 0.77333 0.15735 0.0
C22 C 0.11976 0.76061 0.12545 0.0
C23 C 0.10975 0.76483 0.08954 0.0
C24 C 0.09056 0.78059 0.08636 0.0
C25 C 0.08289 0.78428 0.04588 0.0
C26 C 0.1007 0.7682 0.02518 0.0
C27 C 0.11632 0.75671 0.05085 0.0
C28 C 0.084 0.81551 0.03659 0.0
C29 C 0.05912 0.77095 0.04106 0.0
C30 C 0.18669 0.69968 0.03141 0.0
C31 C 0.19755 0.69027 0.99875 0.0
C32 C 0.18803 0.69625 0.96282 0.0
C33 C 0.16823 0.7116 0.9594 0.0
C34 C 0.15781 0.72127 0.99224 0.0
C35 C 0.16693 0.71508 0.0275 0.0
C36 C 0.15365 0.72737 0.05921 0.0
C37 C 0.13479 0.74141 0.03715 0.0
C38 C 0.13746 0.73797 0.99793 0.0
C39 C 0.1691 0.74835 0.08068 0.0
C40 C 0.14458 0.70359 0.08415 0.0
H41 H 0.061 0.79659 0.9735 0.0
H42 H 0.10494 0.77296 0.85951 0.0
H43 H 0.10055 0.71742 0.90828 0.0
H44 H 0.12623 0.70594 0.92769 0.0
H45 H 0.12579 0.72207 0.88149 0.0
H46 H 0.14286 0.78943 0.92189 0.0
H47 H 0.14544 0.76532 0.88364 0.0
H48 H 0.15969 0.76008 0.92842 0.0
H49 H 0.06588 0.80512 0.11417 0.0
H50 H 0.11915 0.77086 0.18448 0.0
H51 H 0.13465 0.74857 0.12985 0.0
H52 H 0.09877 0.82551 0.05108 0.0
H53 H 0.06858 0.8261 0.04616 0.0
H54 H 0.08639 0.8199 0.00624 0.0
H55 H 0.05723 0.75268 0.05985 0.0
H56 H 0.05591 0.76295 0.01211 0.0
H57 H 0.04568 0.78569 0.04837 0.0
H58 H 0.04875 0.81315 0.91227 0.0
C59 C 0.0709 0.79099 0.94956 0.0
C60 C 0.58926 0.72811 0.63602 0.0
C61 C 0.57047 0.7102 0.63773 0.0
C62 C 0.55845 0.7037 0.60403 0.0
C63 C 0.58491 0.73088 0.56755 0.0
C64 C 0.59607 0.73829 0.60078 0.0
C65 C 0.61593 0.7571 0.59374 0.0
H66 H 0.68614 0.81823 0.46895 0.0
C67 C 0.59716 0.74339 0.5356 0.0
C68 C 0.61519 0.75909 0.55075 0.0
H69 H 0.68885 0.82243 0.59144 0.0
H70 H 0.65466 0.79512 0.59483 0.0
H71 H 0.67383 0.75588 0.46384 0.0
H72 H 0.63136 0.82715 0.46055 0.0
H73 H 0.62118 0.80411 0.42564 0.0
H74 H 0.64945 0.81805 0.4223 0.0
H75 H 0.67167 0.77753 0.42273 0.0
H76 H 0.65244 0.74904 0.43013 0.0
C77 C 0.63752 0.74258 0.60846 0.0
C78 C 0.61135 0.78521 0.61278 0.0
C79 C 0.57592 0.71605 0.40063 0.0
C80 C 0.58574 0.72169 0.36539 0.0
C81 C 0.60389 0.74067 0.36373 0.0
C82 C 0.61256 0.75316 0.39678 0.0
C83 C 0.60315 0.74643 0.43199 0.0
C84 C 0.58492 0.72848 0.43341 0.0
C85 C 0.57747 0.72314 0.47334 0.0
C86 C 0.59444 0.74057 0.4957 0.0
C87 C 0.60947 0.75409 0.47135 0.0
C88 C 0.58017 0.69197 0.48152 0.0
C89 C 0.55307 0.73384 0.47734 0.0
C90 C 0.67917 0.81365 0.49649 0.0
C91 C 0.69027 0.82242 0.52998 0.0
C92 C 0.6808 0.8156 0.56524 0.0
C93 C 0.6609 0.79982 0.56715 0.0
C94 C 0.65036 0.79055 0.53345 0.0
C95 C 0.65935 0.7978 0.49889 0.0
C96 C 0.64605 0.78581 0.46605 0.0
C97 C 0.62751 0.77033 0.48661 0.0
C98 C 0.63022 0.773 0.52608 0.0
C99 C 0.66169 0.76615 0.44419 0.0
C100 C 0.63656 0.80988 0.44203 0.0
H101 H 0.55594 0.70784 0.54434 0.0
H102 H 0.5986 0.73383 0.66153 0.0
H103 H 0.59297 0.78964 0.61298 0.0
H104 H 0.61895 0.80273 0.59731 0.0
H105 H 0.61757 0.7855 0.64267 0.0
H106 H 0.63687 0.72025 0.60142 0.0
H107 H 0.63929 0.74448 0.63976 0.0
H108 H 0.6531 0.75044 0.59539 0.0
H109 H 0.56214 0.70132 0.40292 0.0
H110 H 0.61156 0.74559 0.33685 0.0
H111 H 0.62656 0.76715 0.3937 0.0
H112 H 0.5959 0.68412 0.46873 0.0
H113 H 0.56576 0.6799 0.46936 0.0
H114 H 0.58183 0.68711 0.51196 0.0
H115 H 0.54999 0.7518 0.45842 0.0
H116 H 0.54967 0.74155 0.50617 0.0
H117 H 0.54041 0.71764 0.46971 0.0
H118 H 0.54399 0.68985 0.60457 0.0
C119 C 0.56553 0.71399 0.56902 0.0
C120 C 0.90566 0.2234 0.13223 0.0
C121 C 0.92422 0.20571 0.13576 0.0
C122 C 0.93593 0.19818 0.10294 0.0
C123 C 0.90974 0.22405 0.06383 0.0
C124 C 0.89882 0.23242 0.0961 0.0
C125 C 0.87928 0.25099 0.08703 0.0
H126 H 0.81069 0.30967 0.9553 0.0
C127 C 0.89765 0.23558 0.03063 0.0
C128 C 0.87995 0.2517 0.04396 0.0
H129 H 0.80796 0.31661 0.07744 0.0
H130 H 0.84137 0.28907 0.08393 0.0
H131 H 0.86478 0.31754 0.94929 0.0
H132 H 0.82223 0.24508 0.95432 0.0
H133 H 0.84271 0.23945 0.9198 0.0
H134 H 0.82299 0.2671 0.91344 0.0
H135 H 0.84709 0.30679 0.9101 0.0
H136 H 0.87518 0.29348 0.9169 0.0
C137 C 0.88441 0.27965 0.10472 0.0
C138 C 0.85746 0.2369 0.1015 0.0
C139 C 0.91926 0.20524 0.89869 0.0
C140 C 0.91026 0.21044 0.86232 0.0
C141 C 0.8925 0.22937 0.85832 0.0
C142 C 0.88337 0.24215 0.89022 0.0
C143 C 0.89207 0.23594 0.92655 0.0
C144 C 0.90996 0.21807 0.93018 0.0
C145 C 0.9171 0.21376 0.97078 0.0
C146 C 0.90034 0.23168 0.99109 0.0
C147 C 0.88564 0.24452 0.96514 0.0
C148 C 0.94169 0.22463 0.97594 0.0
C149 C 0.91378 0.1828 0.98019 0.0
C150 C 0.81723 0.30516 0.98345 0.0
C151 C 0.80659 0.31533 0.01589 0.0
C152 C 0.81593 0.30932 0.05196 0.0
C153 C 0.83527 0.29314 0.0557 0.0
C154 C 0.84542 0.28268 0.02307 0.0
C155 C 0.83655 0.28899 0.98769 0.0
C156 C 0.84967 0.27616 0.95619 0.0
C157 C 0.86788 0.26117 0.97854 0.0
C158 C 0.86518 0.26489 0.01772 0.0
C159 C 0.85965 0.29955 0.93149 0.0
C160 C 0.83368 0.25598 0.93444 0.0
H161 H 0.93822 0.20038 0.04322 0.0
H162 H 0.89653 0.22986 0.157 0.0
H163 H 0.8576 0.21441 0.09547 0.0
H164 H 0.84198 0.24452 0.08747 0.0
H165 H 0.85589 0.23953 0.13264 0.0
H166 H 0.90289 0.28403 0.10588 0.0
H167 H 0.87808 0.28091 0.13414 0.0
H168 H 0.87728 0.29669 0.08773 0.0
H169 H 0.93319 0.19121 0.90267 0.0
H170 H 0.88522 0.23368 0.8306 0.0
H171 H 0.86965 0.25603 0.88542 0.0
H172 H 0.94539 0.24168 0.9558 0.0
H173 H 0.9541 0.20811 0.97087 0.0
H174 H 0.94492 0.23367 0.00432 0.0
H175 H 0.89796 0.17462 0.96672 0.0
H176 H 0.9119 0.17868 0.01073 0.0
H177 H 0.92801 0.17045 0.96952 0.0
H178 H 0.95017 0.18441 0.10485 0.0
C179 C 0.92883 0.20728 0.06709 0.0
C180 C 0.41235 0.27961 0.38626 0.0
C181 C 0.43031 0.29881 0.38566 0.0
C182 C 0.44167 0.30556 0.41988 0.0
C183 C 0.416 0.27632 0.45481 0.0
C184 C 0.40545 0.2687 0.42112 0.0
C185 C 0.38585 0.24928 0.4274 0.0
H186 H 0.31498 0.18688 0.55033 0.0
C187 C 0.40373 0.26316 0.48621 0.0
C188 C 0.38611 0.2471 0.47042 0.0
H189 H 0.31307 0.18305 0.4278 0.0
H190 H 0.34746 0.21014 0.42524 0.0
H191 H 0.36924 0.17821 0.55971 0.0
H192 H 0.32716 0.24984 0.55597 0.0
H193 H 0.348 0.25592 0.59093 0.0
H194 H 0.32846 0.22753 0.5965 0.0
H195 H 0.35125 0.18748 0.59802 0.0
H196 H 0.37958 0.2012 0.59451 0.0
C197 C 0.39119 0.22142 0.40836 0.0
C198 C 0.36415 0.26319 0.41203 0.0
C199 C 0.4246 0.28866 0.62192 0.0
C200 C 0.41485 0.28239 0.657 0.0
C201 C 0.39657 0.26357 0.6581 0.0
C202 C 0.38783 0.25167 0.62466 0.0
C203 C 0.39729 0.25889 0.58965 0.0
C204 C 0.41554 0.27683 0.58879 0.0
C205 C 0.42298 0.2829 0.54909 0.0
C206 C 0.40615 0.26567 0.52618 0.0
C207 C 0.39113 0.25172 0.55003 0.0
C208 C 0.44743 0.27243 0.54489 0.0
C209 C 0.4201 0.3142 0.54186 0.0
C210 C 0.32193 0.19193 0.52293 0.0
C211 C 0.31118 0.183 0.48922 0.0
C212 C 0.32107 0.18955 0.45419 0.0
C213 C 0.34096 0.20546 0.45275 0.0
C214 C 0.35106 0.21502 0.48668 0.0
C215 C 0.34174 0.2078 0.52101 0.0
C216 C 0.35474 0.21967 0.55421 0.0
C217 C 0.37337 0.23534 0.53418 0.0
C218 C 0.37102 0.23278 0.49461 0.0
C219 C 0.36414 0.19554 0.57822 0.0
C220 C 0.33889 0.23915 0.57589 0.0
H221 H 0.44383 0.30069 0.4794 0.0
H222 H 0.40327 0.27406 0.36042 0.0
H223 H 0.36426 0.2855 0.41919 0.0
H224 H 0.34857 0.25483 0.42453 0.0
H225 H 0.36278 0.26133 0.38068 0.0
H226 H 0.40961 0.2172 0.40974 0.0
H227 H 0.38593 0.22138 0.37798 0.0
H228 H 0.38322 0.2037 0.4228 0.0
H229 H 0.43842 0.30338 0.62004 0.0
H230 H 0.38892 0.25825 0.68486 0.0
H231 H 0.37377 0.23772 0.62733 0.0
H232 H 0.45022 0.25354 0.56213 0.0
H233 H 0.45998 0.28818 0.55457 0.0
H234 H 0.45126 0.26624 0.51555 0.0
H235 H 0.40517 0.32218 0.55696 0.0
H236 H 0.41681 0.31929 0.5118 0.0
H237 H 0.43514 0.32606 0.55207 0.0
H238 H 0.45584 0.31987 0.42003 0.0
C239 C 0.43469 0.29435 0.45434 0.0
C240 C 0.01477 0.96316 0.4552 0.0
N241 N 0.05043 0.02692 0.51003 0.0
C242 C 0.0686 0.01003 0.51092 0.0
C243 C 0.09047 0.02103 0.51014 0.0
C244 C 0.09368 0.0497 0.50857 0.0
C245 C 0.07462 0.06664 0.50808 0.0
C246 C 0.05305 0.05477 0.50876 0.0
Zn247 Zn 0.01863 0.01017 0.50935 0.0
C248 C 0.98887 0.0369 0.45133 0.0
N249 N 0.95227 0.97501 0.50679 0.0
C250 C 0.9497 0.94716 0.50809 0.0
C251 C 0.93407 0.99185 0.50571 0.0
C252 C 0.91222 0.98078 0.50624 0.0
C253 C 0.90907 0.9521 0.50804 0.0
C254 C 0.92817 0.93523 0.50879 0.0
Zn255 Zn 0.98404 0.9918 0.50752 0.0
O256 O 0.02866 0.98068 0.46916 0.0
C257 C 0.01367 0.96501 0.56554 0.0
O258 O 0.99434 0.96323 0.46569 0.0
H259 H 0.93649 0.01394 0.50481 0.0
H260 H 0.06614 0.98795 0.51202 0.0
H261 H 0.9644 0.93416 0.50881 0.0
O262 O 0.02781 0.98282 0.55373 0.0
O263 O 0.99392 0.96415 0.55098 0.0
H264 H 0.03838 0.06782 0.50791 0.0
O265 O 0.97426 0.0206 0.54915 0.0
O266 O 0.00811 0.03943 0.54981 0.0
O267 O 0.97463 0.0197 0.46433 0.0
O268 O 0.00893 0.03725 0.46469 0.0
C269 C 0.98799 0.03882 0.56181 0.0
H270 H 0.10471 0.00724 0.511 0.0
H271 H 0.07632 0.08883 0.50641 0.0
H272 H 0.89796 0.99454 0.50602 0.0
H273 H 0.9265 0.91301 0.50967 0.0
C274 C 0.48768 0.46511 0.95467 0.0
N275 N 0.55075 0.47735 0.00794 0.0
C276 C 0.55277 0.44949 0.00678 0.0
C277 C 0.57405 0.43751 0.00554 0.0
C278 C 0.5935 0.45433 0.00559 0.0
C279 C 0.59093 0.48303 0.00701 0.0
C280 C 0.56929 0.49417 0.0081 0.0
Zn281 Zn 0.51911 0.49375 0.00916 0.0
C282 C 0.51336 0.53947 0.95437 0.0
N283 N 0.45264 0.52685 0.0116 0.0
C284 C 0.43402 0.51019 0.01274 0.0
C285 C 0.45075 0.55473 0.01087 0.0
C286 C 0.42954 0.5669 0.01094 0.0
C287 C 0.41001 0.55026 0.01188 0.0
C288 C 0.41244 0.52152 0.01301 0.0
Zn289 Zn 0.48424 0.51036 0.01056 0.0
O290 O 0.50808 0.46593 0.96638 0.0
C291 C 0.48991 0.46461 0.06524 0.0
O292 O 0.47356 0.4817 0.96851 0.0
H293 H 0.46574 0.56762 0.01017 0.0
H294 H 0.53784 0.43648 0.00683 0.0
H295 H 0.43591 0.48807 0.01323 0.0
O296 O 0.50962 0.4649 0.05148 0.0
O297 O 0.4755 0.48193 0.0534 0.0
H298 H 0.56731 0.51627 0.00893 0.0
O299 O 0.49538 0.53865 0.05279 0.0
O300 O 0.52963 0.52193 0.05188 0.0
O301 O 0.49352 0.53859 0.96751 0.0
O302 O 0.52805 0.52276 0.96696 0.0
C303 C 0.51566 0.53894 0.06517 0.0
H304 H 0.57524 0.41528 0.00505 0.0
H305 H 0.60547 0.49676 0.00674 0.0
H306 H 0.42846 0.58915 0.01063 0.0
H307 H 0.39781 0.50794 0.01342 0.0
H308 H 0.29749 0.13791 0.44764 0.0
H309 H 0.26077 0.11405 0.44939 0.0
H310 H 0.23896 0.16989 0.53609 0.0
H311 H 0.27528 0.19415 0.534 0.0
H312 H 0.23924 0.08861 0.51414 0.0
H313 H 0.18923 0.17409 0.45223 0.0
H314 H 0.21954 0.17234 0.44836 0.0
H315 H 0.20716 0.18371 0.49173 0.0
C316 C 0.28479 0.14521 0.46686 0.0
C317 C 0.28926 0.16794 0.49063 0.0
C318 C 0.26392 0.13148 0.46797 0.0
C319 C 0.24712 0.14046 0.49254 0.0
C320 C 0.25162 0.1629 0.51658 0.0
H321 H 0.1102 0.09494 0.54648 0.0
H322 H 0.14791 0.11571 0.54237 0.0
C323 C 0.27246 0.17655 0.5156 0.0
C324 C 0.22488 0.12633 0.49339 0.0
H325 H 0.16856 0.1367 0.47842 0.0
C326 C 0.22377 0.09898 0.50608 0.0
C327 C 0.2048 0.14003 0.48289 0.0
C328 C 0.20514 0.16909 0.46771 0.0
C329 C 0.20295 0.08516 0.50962 0.0
C330 C 0.18283 0.09897 0.49948 0.0
C331 C 0.18401 0.12622 0.48631 0.0
C332 C 0.16029 0.08571 0.50264 0.0
C333 C 0.20262 0.05624 0.52527 0.0
C334 C 0.15472 0.06208 0.48146 0.0
C335 C 0.13318 0.05019 0.48372 0.0
C336 C 0.11675 0.06189 0.50694 0.0
C337 C 0.1224 0.0856 0.52806 0.0
C338 C 0.14395 0.09742 0.52586 0.0
H339 H 0.21861 0.05132 0.54059 0.0
H340 H 0.18834 0.05318 0.5449 0.0
H341 H 0.20048 0.04142 0.50151 0.0
H342 H 0.16691 0.0531 0.46267 0.0
H343 H 0.12924 0.0322 0.46662 0.0
H344 H 0.20814 0.64869 0.04829 0.0
H345 H 0.24384 0.62376 0.05368 0.0
H346 H 0.27078 0.67171 0.96158 0.0
H347 H 0.23542 0.697 0.95643 0.0
H348 H 0.26602 0.59269 0.99481 0.0
H349 H 0.31824 0.68029 0.04895 0.0
H350 H 0.28777 0.67994 0.0505 0.0
H351 H 0.30184 0.68768 0.00694 0.0
C352 C 0.22175 0.65406 0.02941 0.0
C353 C 0.21899 0.67484 0.00197 0.0
C354 C 0.24205 0.63972 0.0324 0.0
C355 C 0.25998 0.64615 0.00831 0.0
C356 C 0.25722 0.66671 0.98074 0.0
H357 H 0.39542 0.59334 0.96852 0.0
H358 H 0.35846 0.61518 0.96898 0.0
C359 C 0.23694 0.68094 0.97761 0.0
C360 C 0.28155 0.63118 0.01148 0.0
H361 H 0.3379 0.64055 0.0293 0.0
C362 C 0.28174 0.60302 0.00267 0.0
C363 C 0.30195 0.6448 0.02175 0.0
C364 C 0.30253 0.67479 0.03292 0.0
C365 C 0.30201 0.58828 0.00254 0.0
C366 C 0.32249 0.60203 0.01221 0.0
C367 C 0.32218 0.63008 0.02176 0.0
C368 C 0.34458 0.58802 0.01155 0.0
C369 C 0.30142 0.55841 0.99078 0.0
C370 C 0.34906 0.56556 0.03547 0.0
C371 C 0.37021 0.55302 0.03527 0.0
C372 C 0.38731 0.56293 0.01144 0.0
C373 C 0.38271 0.58543 0.98754 0.0
C374 C 0.36158 0.59786 0.98765 0.0
H375 H 0.28546 0.55288 0.9755 0.0
H376 H 0.31584 0.55363 0.97224 0.0
H377 H 0.30271 0.54525 0.01643 0.0
H378 H 0.33635 0.55802 0.05474 0.0
H379 H 0.37334 0.53598 0.0544 0.0
H380 H 0.70187 0.86451 0.48204 0.0
H381 H 0.73873 0.88763 0.47706 0.0
H382 H 0.76468 0.83798 0.56892 0.0
H383 H 0.72813 0.81442 0.57361 0.0
H384 H 0.76442 0.91712 0.53537 0.0
H385 H 0.80903 0.82576 0.4804 0.0
H386 H 0.77863 0.82833 0.47964 0.0
H387 H 0.79337 0.81987 0.52294 0.0
C388 C 0.71547 0.85846 0.50106 0.0
C389 C 0.71213 0.83758 0.52814 0.0
C390 C 0.73644 0.87176 0.4983 0.0
C391 C 0.75444 0.86422 0.52229 0.0
C392 C 0.75104 0.84381 0.54982 0.0
H393 H 0.89459 0.90971 0.55282 0.0
H394 H 0.85667 0.88945 0.55551 0.0
C395 C 0.73009 0.83058 0.55271 0.0
C396 C 0.77685 0.87758 0.51854 0.0
H397 H 0.83173 0.8644 0.4977 0.0
C398 C 0.77915 0.90571 0.52691 0.0
C399 C 0.79594 0.86254 0.50747 0.0
C400 C 0.79419 0.8325 0.49676 0.0
C401 C 0.80027 0.91908 0.52558 0.0
C402 C 0.81942 0.90397 0.51485 0.0
C403 C 0.81702 0.8759 0.50602 0.0
C404 C 0.84224 0.91667 0.51325 0.0
C405 C 0.80201 0.94903 0.53675 0.0
C406 C 0.84673 0.9385 0.48829 0.0
C407 C 0.86841 0.95009 0.48665 0.0
C408 C 0.88602 0.93987 0.50968 0.0
C409 C 0.88146 0.91784 0.53441 0.0
C410 C 0.85979 0.90634 0.53612 0.0
H411 H 0.78716 0.95562 0.55318 0.0
H412 H 0.81755 0.9531 0.55396 0.0
H413 H 0.8028 0.96187 0.51076 0.0
H414 H 0.83355 0.94635 0.46977 0.0
H415 H 0.87147 0.96675 0.46689 0.0
H416 H 0.79485 0.36137 0.05559 0.0
H417 H 0.75906 0.38608 0.05214 0.0
H418 H 0.73506 0.33089 0.96425 0.0
H419 H 0.77049 0.30561 0.96821 0.0
H420 H 0.73757 0.41255 0.98912 0.0
H421 H 0.68594 0.32604 0.04562 0.0
H422 H 0.71635 0.32708 0.04972 0.0
H423 H 0.70287 0.31742 0.00562 0.0
C424 C 0.7819 0.35439 0.03569 0.0
C425 C 0.78546 0.33139 0.01237 0.0
C426 C 0.76154 0.36863 0.03359 0.0
C427 C 0.74433 0.36005 0.00834 0.0
C428 C 0.74802 0.33757 0.98434 0.0
H429 H 0.60699 0.41099 0.96228 0.0
H430 H 0.64405 0.38935 0.962 0.0
C431 C 0.76837 0.32333 0.98637 0.0
C432 C 0.72241 0.3744 0.00739 0.0
H433 H 0.66612 0.36486 0.0228 0.0
C434 C 0.72193 0.40221 0.99658 0.0
C435 C 0.70209 0.3608 0.0172 0.0
C436 C 0.70174 0.33126 0.03053 0.0
C437 C 0.70153 0.41665 0.99457 0.0
C438 C 0.6812 0.40301 0.00431 0.0
C439 C 0.68173 0.37523 0.01523 0.0
C440 C 0.65912 0.41708 0.00346 0.0
C441 C 0.70186 0.44617 0.98122 0.0
C442 C 0.65527 0.43979 0.027 0.0
C443 C 0.63408 0.45217 0.0273 0.0
C444 C 0.61628 0.44189 0.00431 0.0
C445 C 0.62025 0.4192 0.98066 0.0
C446 C 0.64145 0.40689 0.98032 0.0
H447 H 0.7175 0.45122 0.96554 0.0
H448 H 0.68703 0.4505 0.96259 0.0
H449 H 0.70119 0.46002 0.00619 0.0
H450 H 0.66853 0.44758 0.04574 0.0
H451 H 0.63147 0.46934 0.04626 0.0
H452 H 0.0737 0.84195 0.15407 0.0
H453 H 0.06048 0.86818 0.20779 0.0
H454 H 0.07799 0.80152 0.28312 0.0
H455 H 0.08984 0.77408 0.22891 0.0
H456 H 0.03848 0.82322 0.302 0.0
H457 H 0.10064 0.9076 0.28254 0.0
H458 H 0.08357 0.90248 0.24067 0.0
H459 H 0.10209 0.87559 0.25688 0.0
C460 C 0.07438 0.83249 0.18187 0.0
C461 C 0.08288 0.80576 0.18698 0.0
C462 C 0.06716 0.84781 0.21273 0.0
C463 C 0.06879 0.83713 0.24961 0.0
C464 C 0.07682 0.8103 0.25492 0.0
H465 H 0.05792 0.94709 0.44298 0.0
H466 H 0.07101 0.91418 0.39611 0.0
C467 C 0.08378 0.79474 0.22391 0.0
C468 C 0.06199 0.85406 0.28244 0.0
H469 H 0.06976 0.91721 0.32319 0.0
C470 C 0.04547 0.84367 0.30691 0.0
C471 C 0.07144 0.88053 0.28932 0.0
C472 C 0.09059 0.89206 0.2662 0.0
C473 C 0.03765 0.85937 0.33737 0.0
C474 C 0.04608 0.88652 0.34273 0.0
C475 C 0.06305 0.89656 0.31886 0.0
C476 C 0.03771 0.90502 0.37284 0.0
C477 C 0.02072 0.84646 0.36374 0.0
C478 C 0.01461 0.91088 0.37548 0.0
C479 C 0.00703 0.92937 0.40277 0.0
C480 C 0.0225 0.94287 0.42721 0.0
C481 C 0.04561 0.93711 0.42439 0.0
C482 C 0.05311 0.91827 0.39763 0.0
H483 H 0.02183 0.82364 0.3636 0.0
H484 H 0.02328 0.85385 0.3933 0.0
H485 H 0.00342 0.85194 0.35411 0.0
H486 H 0.00245 0.90163 0.35595 0.0
H487 H 0.98915 0.93361 0.40408 0.0
H488 H 0.59852 0.68643 0.69002 0.0
H489 H 0.58792 0.66041 0.74656 0.0
H490 H 0.51776 0.67799 0.72397 0.0
H491 H 0.52824 0.70372 0.66701 0.0
H492 H 0.56526 0.67366 0.81123 0.0
H493 H 0.51748 0.59457 0.72817 0.0
H494 H 0.53563 0.6198 0.70618 0.0
H495 H 0.50773 0.62902 0.72068 0.0
C496 C 0.58086 0.68505 0.69739 0.0
C497 C 0.56417 0.6969 0.67396 0.0
C498 C 0.57482 0.67011 0.72961 0.0
C499 C 0.55202 0.66678 0.73899 0.0
C500 C 0.53541 0.67969 0.71666 0.0
H501 H 0.48494 0.57425 0.91646 0.0
H502 H 0.49439 0.60661 0.8658 0.0
C503 C 0.54141 0.69444 0.68424 0.0
C504 C 0.54568 0.64915 0.77153 0.0
H505 H 0.51576 0.59125 0.79502 0.0
C506 C 0.55445 0.65563 0.80771 0.0
C507 C 0.53167 0.62554 0.76679 0.0
C508 C 0.52274 0.6166 0.72833 0.0
C509 C 0.54939 0.63927 0.83936 0.0
C510 C 0.53535 0.61578 0.83455 0.0
C511 C 0.52645 0.60939 0.79851 0.0
C512 C 0.52998 0.59716 0.86642 0.0
C513 C 0.5589 0.6473 0.87777 0.0
C514 C 0.54689 0.58106 0.88328 0.0
C515 C 0.54155 0.5624 0.91207 0.0
C516 C 0.51918 0.55958 0.92445 0.0
C517 C 0.50233 0.57595 0.90763 0.0
C518 C 0.50768 0.59445 0.87871 0.0
H519 H 0.56539 0.66886 0.87813 0.0
H520 H 0.54586 0.64499 0.89988 0.0
H521 H 0.57307 0.63349 0.88531 0.0
H522 H 0.56415 0.58259 0.87373 0.0
H523 H 0.55491 0.5501 0.92443 0.0
H524 H 0.89623 0.18338 0.18852 0.0
H525 H 0.90699 0.15836 0.24623 0.0
H526 H 0.97726 0.17461 0.22397 0.0
H527 H 0.96663 0.19994 0.16642 0.0
H528 H 0.93639 0.11077 0.24312 0.0
H529 H 0.96974 0.19302 0.33906 0.0
H530 H 0.95069 0.20001 0.29978 0.0
H531 H 0.97994 0.19354 0.29128 0.0
C532 C 0.91394 0.18221 0.19642 0.0
C533 C 0.93061 0.19358 0.17296 0.0
C534 C 0.92005 0.1678 0.22924 0.0
C535 C 0.94288 0.16484 0.23941 0.0
C536 C 0.95953 0.17699 0.21682 0.0
H537 H 0.0159 0.07201 0.41103 0.0
H538 H 0.00447 0.10318 0.35979 0.0
C539 C 0.95345 0.19125 0.18385 0.0
C540 C 0.94936 0.14693 0.2716 0.0
H541 H 0.97526 0.14687 0.35875 0.0
C542 C 0.94475 0.11863 0.26855 0.0
C543 C 0.96049 0.15732 0.3044 0.0
C544 C 0.96541 0.18766 0.30917 0.0
C545 C 0.9513 0.10027 0.29727 0.0
C546 C 0.96222 0.11064 0.33037 0.0
C547 C 0.96684 0.13899 0.33339 0.0
C548 C 0.96898 0.09231 0.36208 0.0
C549 C 0.94701 0.06985 0.29135 0.0
C550 C 0.95277 0.07624 0.38076 0.0
C551 C 0.95925 0.05825 0.40974 0.0
C552 C 0.98206 0.05627 0.42097 0.0
C553 C 0.99821 0.07296 0.40292 0.0
C554 C 0.99171 0.09082 0.37371 0.0
H555 H 0.94459 0.06475 0.26083 0.0
H556 H 0.9612 0.05749 0.30291 0.0
H557 H 0.9314 0.06366 0.30626 0.0
H558 H 0.93507 0.07758 0.37289 0.0
H559 H 0.94635 0.04594 0.42338 0.0
H560 H 0.45845 0.29213 0.68039 0.0
H561 H 0.47146 0.32008 0.73441 0.0
H562 H 0.40233 0.33421 0.76504 0.0
H563 H 0.38926 0.30609 0.71141 0.0
H564 H 0.46294 0.3742 0.74476 0.0
H565 H 0.43036 0.31445 0.86656 0.0
H566 H 0.4319 0.30017 0.81943 0.0
H567 H 0.4089 0.32215 0.8318 0.0
C568 C 0.44606 0.30095 0.69895 0.0
C569 C 0.42284 0.29687 0.69178 0.0
C570 C 0.45349 0.31684 0.72979 0.0
C571 C 0.43788 0.32893 0.75404 0.0
C572 C 0.4147 0.3245 0.74732 0.0
H573 H 0.44483 0.45435 0.92804 0.0
H574 H 0.43319 0.42084 0.87943 0.0
C575 C 0.40725 0.30845 0.71662 0.0
C576 C 0.44576 0.34791 0.78449 0.0
H577 H 0.44276 0.36057 0.87954 0.0
C578 C 0.45872 0.37107 0.77428 0.0
C579 C 0.44016 0.34382 0.82297 0.0
C580 C 0.42725 0.31866 0.83595 0.0
C581 C 0.46583 0.39056 0.80139 0.0
C582 C 0.45995 0.38666 0.83968 0.0
C583 C 0.44712 0.36348 0.85004 0.0
C584 C 0.46701 0.40653 0.8694 0.0
C585 C 0.47917 0.41551 0.78882 0.0
C586 C 0.48984 0.40927 0.87995 0.0
C587 C 0.49655 0.4283 0.90771 0.0
C588 C 0.48051 0.44493 0.92536 0.0
C589 C 0.4576 0.44195 0.91486 0.0
C590 C 0.45091 0.42279 0.88722 0.0
H591 H 0.47865 0.4181 0.75751 0.0
H592 H 0.47261 0.43446 0.80215 0.0
H593 H 0.49706 0.41327 0.79798 0.0
H594 H 0.50246 0.39666 0.86672 0.0
H595 H 0.51431 0.43001 0.91523 0.0
H596 H 0.61195 0.69754 0.31226 0.0
H597 H 0.59954 0.66878 0.25872 0.0
H598 H 0.53008 0.68145 0.28821 0.0
H599 H 0.54233 0.71054 0.34168 0.0
H600 H 0.57086 0.61928 0.26862 0.0
H601 H 0.53364 0.6971 0.1708 0.0
H602 H 0.55413 0.7061 0.20738 0.0
H603 H 0.52543 0.69865 0.21968 0.0
C604 C 0.59402 0.69469 0.30688 0.0
C605 C 0.5781 0.70636 0.33108 0.0
C606 C 0.58699 0.67814 0.27646 0.0
C607 C 0.56393 0.67322 0.26946 0.0
C608 C 0.54795 0.6853 0.29297 0.0
H609 H 0.48907 0.57349 0.10566 0.0
H610 H 0.50093 0.60574 0.15554 0.0
C611 C 0.55497 0.70173 0.32359 0.0
C612 C 0.5567 0.65396 0.23906 0.0
H613 H 0.52925 0.65033 0.1534 0.0
C614 C 0.56183 0.62601 0.24332 0.0
C615 C 0.54477 0.6629 0.20642 0.0
C616 C 0.53923 0.69284 0.20043 0.0
C617 C 0.55509 0.60658 0.21588 0.0
C618 C 0.54344 0.61553 0.18282 0.0
C619 C 0.53824 0.64353 0.17869 0.0
C620 C 0.53643 0.59613 0.15231 0.0
C621 C 0.56 0.57658 0.22306 0.0
C622 C 0.5525 0.58031 0.13357 0.0
C623 C 0.54576 0.56167 0.1053 0.0
C624 C 0.52285 0.55882 0.09486 0.0
C625 C 0.50685 0.57514 0.11311 0.0
C626 C 0.51359 0.59362 0.14157 0.0
H627 H 0.56294 0.57238 0.25371 0.0
H628 H 0.54589 0.56318 0.2127 0.0
H629 H 0.5755 0.57086 0.20781 0.0
H630 H 0.57028 0.58243 0.14073 0.0
H631 H 0.55853 0.54962 0.09151 0.0
H632 H 0.91983 0.15583 0.85788 0.0
H633 H 0.93456 0.13066 0.80395 0.0
H634 H 0.93467 0.20521 0.73744 0.0
H635 H 0.91979 0.23067 0.79155 0.0
H636 H 0.91682 0.16058 0.6984 0.0
H637 H 0.99884 0.13363 0.76519 0.0
H638 H 0.97531 0.12346 0.7936 0.0
H639 H 0.98061 0.15942 0.7846 0.0
C640 C 0.92323 0.16697 0.83193 0.0
C641 C 0.9189 0.19531 0.8291 0.0
C642 C 0.93168 0.15256 0.80115 0.0
C643 C 0.93618 0.16619 0.76699 0.0
C644 C 0.93147 0.19437 0.7637 0.0
H645 H 0.01169 0.08317 0.59004 0.0
H646 H 0.9993 0.11656 0.63708 0.0
C647 C 0.92291 0.20884 0.79454 0.0
C648 C 0.94524 0.15066 0.73454 0.0
H649 H 0.98788 0.10789 0.70983 0.0
C650 C 0.93248 0.1493 0.7007 0.0
C651 C 0.96587 0.13635 0.73735 0.0
C652 C 0.98107 0.13849 0.77201 0.0
C653 C 0.93934 0.13304 0.67015 0.0
C654 C 0.95924 0.11733 0.67391 0.0
C655 C 0.97247 0.11964 0.70715 0.0
C656 C 0.96634 0.09777 0.64424 0.0
C657 C 0.92523 0.1329 0.63415 0.0
C658 C 0.95201 0.07596 0.63294 0.0
C659 C 0.95898 0.05694 0.60597 0.0
C660 C 0.98056 0.05914 0.59013 0.0
C661 C 0.99496 0.08089 0.6017 0.0
C662 C 0.98791 0.1 0.62854 0.0
H663 H 0.91513 0.15196 0.63138 0.0
H664 H 0.93592 0.13092 0.60874 0.0
H665 H 0.91327 0.11515 0.63474 0.0
H666 H 0.93553 0.07339 0.64541 0.0
H667 H 0.94753 0.04033 0.59788 0.0
H668 H 0.43832 0.35356 0.37608 0.0
H669 H 0.44873 0.37765 0.31811 0.0
H670 H 0.44678 0.30079 0.25681 0.0
H671 H 0.43604 0.27647 0.31499 0.0
H672 H 0.48587 0.3709 0.27498 0.0
H673 H 0.40771 0.35002 0.18999 0.0
H674 H 0.40947 0.34381 0.24041 0.0
H675 H 0.42168 0.31994 0.20789 0.0
C676 C 0.4402 0.34174 0.3503 0.0
C677 C 0.43648 0.31311 0.35008 0.0
C678 C 0.44606 0.35555 0.31717 0.0
C679 C 0.44833 0.34107 0.28307 0.0
C680 C 0.44468 0.31244 0.28266 0.0
H681 H 0.51468 0.421 0.09087 0.0
H682 H 0.50504 0.38866 0.14146 0.0
C683 C 0.43863 0.29857 0.31588 0.0
C684 C 0.45503 0.35622 0.24846 0.0
H685 H 0.43702 0.37443 0.15956 0.0
C686 C 0.47525 0.37157 0.24964 0.0
C687 C 0.44103 0.35723 0.21562 0.0
C688 C 0.41866 0.34209 0.21333 0.0
C689 C 0.48169 0.38834 0.2192 0.0
C690 C 0.46777 0.38923 0.18624 0.0
C691 C 0.44772 0.37353 0.18478 0.0
C692 C 0.4731 0.40757 0.15392 0.0
C693 C 0.50285 0.40578 0.22327 0.0
C694 C 0.45796 0.4283 0.14323 0.0
C695 C 0.46329 0.44661 0.11407 0.0
C696 C 0.4839 0.44456 0.0951 0.0
C697 C 0.49879 0.42334 0.10524 0.0
C698 C 0.49336 0.4049 0.13423 0.0
H699 H 0.50841 0.40787 0.25339 0.0
H700 H 0.51669 0.39596 0.20753 0.0
H701 H 0.50024 0.4267 0.21137 0.0
H702 H 0.4422 0.43066 0.15799 0.0
H703 H 0.45141 0.46265 0.10685 0.0
H704 H 0.10354 0.82051 0.83078 0.0
H705 H 0.09233 0.8465 0.77421 0.0
H706 H 0.02271 0.82364 0.79201 0.0
H707 H 0.0338 0.79791 0.84896 0.0
H708 H 0.06992 0.83306 0.7076 0.0
H709 H 0.02034 0.90714 0.79141 0.0
H710 H 0.03921 0.88271 0.81327 0.0
H711 H 0.01154 0.87192 0.79714 0.0
C712 C 0.08589 0.82067 0.82229 0.0
C713 C 0.0695 0.80741 0.84445 0.0
C714 C 0.0795 0.83561 0.79007 0.0
C715 C 0.05664 0.8375 0.77943 0.0
C716 C 0.04038 0.82305 0.80033 0.0
H717 H 0.9864 0.9281 0.60193 0.0
H718 H 0.99702 0.89596 0.65241 0.0
C719 C 0.04673 0.8083 0.83273 0.0
C720 C 0.04981 0.85539 0.74729 0.0
H721 H 0.01827 0.91166 0.72461 0.0
C722 C 0.05865 0.85026 0.71129 0.0
C723 C 0.0352 0.87794 0.75228 0.0
C724 C 0.02618 0.88549 0.79065 0.0
C725 C 0.05303 0.86689 0.68003 0.0
C726 C 0.03836 0.88928 0.68507 0.0
C727 C 0.02944 0.89435 0.72093 0.0
C728 C 0.03227 0.90805 0.6536 0.0
C729 C 0.06259 0.86027 0.64176 0.0
C730 C 0.04859 0.92562 0.6379 0.0
C731 C 0.04258 0.94415 0.60924 0.0
C732 C 0.02012 0.94539 0.59581 0.0
C733 C 0.00384 0.92765 0.61159 0.0
C734 C 0.00986 0.90926 0.6404 0.0
H735 H 0.06974 0.83923 0.64093 0.0
H736 H 0.0494 0.86202 0.61918 0.0
H737 H 0.07629 0.87525 0.6353 0.0
H738 H 0.06592 0.92524 0.64818 0.0
H739 H 0.05552 0.95753 0.59768 0.0
loop_
_geom_bond_atom_site_label_1
_geom_bond_atom_site_label_2
_geom_bond_distance
_geom_bond_site_symmetry_2
_ccdc_geom_bond_type
C0 C1 1.391 . S
C0 C4 1.391 . S
C0 H42 0.948 . S
C1 C0 1.391 . S
C1 C2 1.391 . S
C2 C1 1.391 . S
C2 H58 0.947 . S
C2 C59 1.392 . S
C3 C4 1.391 . S
C3 C7 1.397 . S
C3 C59 1.419 . S
C4 C0 1.391 . S
C4 C3 1.391 . S
C4 C5 1.399 . S
C5 C4 1.399 . S
C5 C8 1.396 . S
C5 C17 1.453 . S
C5 C18 1.684 . S
H6 C30 0.948 . S
C7 C3 1.397 . S
C7 C8 1.394 . S
C7 C26 1.723 1_556 S
C8 C5 1.396 . S
C8 C7 1.394 . S
C8 C38 1.723 1_556 S
H9 C32 0.947 . S
H10 C33 0.948 . S
H11 C39 0.982 . S
H12 C40 0.979 . S
H13 C40 0.980 . S
H14 C40 0.983 . S
H15 C39 0.979 . S
H16 C39 0.977 . S
C17 C5 1.453 . S
C17 H46 0.982 . S
C17 H47 0.979 . S
C17 H48 0.977 . S
C18 C5 1.684 . S
C18 H43 0.979 . S
C18 H44 0.980 . S
C18 H45 0.983 . S
C19 C20 1.391 . S
C19 C24 1.391 . S
C19 H49 0.948 . S
C20 C19 1.391 . S
C20 C21 1.391 . S
C21 C20 1.391 . S
C21 C22 1.392 . S
C21 H50 0.947 . S
C22 C21 1.392 . S
C22 C23 1.419 . S
C22 H51 0.948 . S
C23 C22 1.419 . S
C23 C24 1.391 . S
C23 C27 1.397 . S
C24 C19 1.391 . S
C24 C23 1.391 . S
C24 C25 1.399 . S
C25 C24 1.399 . S
C25 C26 1.396 . S
C25 C28 1.453 . S
C25 C29 1.684 . S
C26 C7 1.723 1_554 S
C26 C25 1.396 . S
C26 C27 1.394 . S
C27 C23 1.397 . S
C27 C26 1.394 . S
C27 C37 1.723 . S
C28 C25 1.453 . S
C28 H52 0.982 . S
C28 H53 0.979 . S
C28 H54 0.977 . S
C29 C25 1.684 . S
C29 H55 0.979 . S
C29 H56 0.980 . S
C29 H57 0.983 . S
C30 H6 0.948 . S
C30 C31 1.391 . S
C30 C35 1.391 . S
C31 C30 1.391 . S
C31 C32 1.391 1_554 S
C32 H9 0.947 . S
C32 C31 1.391 1_556 S
C32 C33 1.392 . S
C33 H10 0.948 . S
C33 C32 1.392 . S
C33 C34 1.402 1_556 S
C34 C33 1.402 1_554 S
C34 C35 1.409 . S
C34 C38 1.400 . S
C35 C30 1.391 . S
C35 C34 1.409 . S
C35 C36 1.399 . S
C36 C35 1.399 . S
C36 C37 1.396 . S
C36 C39 1.453 . S
C36 C40 1.684 . S
C37 C27 1.723 . S
C37 C36 1.396 . S
C37 C38 1.394 . S
C38 C8 1.723 1_554 S
C38 C34 1.400 . S
C38 C37 1.394 . S
C39 H11 0.982 . S
C39 H15 0.979 . S
C39 H16 0.977 . S
C39 C36 1.453 . S
C40 H12 0.979 . S
C40 H13 0.980 . S
C40 H14 0.983 . S
C40 C36 1.684 . S
H41 C59 0.948 . S
H42 C0 0.948 . S
H43 C18 0.979 . S
H44 C18 0.980 . S
H45 C18 0.983 . S
H46 C17 0.982 . S
H47 C17 0.979 . S
H48 C17 0.977 . S
H49 C19 0.948 . S
H50 C21 0.947 . S
H51 C22 0.948 . S
H52 C28 0.982 . S
H53 C28 0.979 . S
H54 C28 0.977 . S
H55 C29 0.979 . S
H56 C29 0.980 . S
H57 C29 0.983 . S
H58 C2 0.947 . S
C59 C2 1.392 . S
C59 C3 1.419 . S
C59 H41 0.948 . S
C60 C61 1.391 . S
C60 C64 1.391 . S
C60 H102 0.948 . S
C61 C60 1.391 . S
C61 C62 1.391 . S
C62 C61 1.391 . S
C62 H118 0.947 . S
C62 C119 1.392 . S
C63 C64 1.391 . S
C63 C67 1.397 . S
C63 C119 1.419 . S
C64 C60 1.391 . S
C64 C63 1.391 . S
C64 C65 1.399 . S
C65 C64 1.399 . S
C65 C68 1.396 . S
C65 C77 1.453 . S
C65 C78 1.684 . S
H66 C90 0.948 . S
C67 C63 1.397 . S
C67 C68 1.394 . S
C67 C86 1.723 . S
C68 C65 1.396 . S
C68 C67 1.394 . S
C68 C98 1.723 . S
H69 C92 0.947 . S
H70 C93 0.948 . S
H71 C99 0.982 . S
H72 C100 0.979 . S
H73 C100 0.980 . S
H74 C100 0.983 . S
H75 C99 0.979 . S
H76 C99 0.977 . S
C77 C65 1.453 . S
C77 H106 0.982 . S
C77 H107 0.979 . S
C77 H108 0.977 . S
C78 C65 1.684 . S
C78 H103 0.979 . S
C78 H104 0.980 . S
C78 H105 0.983 . S
C79 C80 1.391 . S
C79 C84 1.391 . S
C79 H109 0.948 . S
C80 C79 1.391 . S
C80 C81 1.391 . S
C81 C80 1.391 . S
C81 C82 1.392 . S
C81 H110 0.947 . S
C82 C81 1.392 . S
C82 C83 1.419 . S
C82 H111 0.948 . S
C83 C82 1.419 . S
C83 C84 1.391 . S
C83 C87 1.397 . S
C84 C79 1.391 . S
C84 C83 1.391 . S
C84 C85 1.399 . S
C85 C84 1.399 . S
C85 C86 1.396 . S
C85 C88 1.453 . S
C85 C89 1.684 . S
C86 C67 1.723 . S
C86 C85 1.396 . S
C86 C87 1.394 . S
C87 C83 1.397 . S
C87 C86 1.394 . S
C87 C97 1.723 . S
C88 C85 1.453 . S
C88 H112 0.982 . S
C88 H113 0.979 . S
C88 H114 0.977 . S
C89 C85 1.684 . S
C89 H115 0.979 . S
C89 H116 0.980 . S
C89 H117 0.983 . S
C90 H66 0.948 . S
C90 C91 1.391 . S
C90 C95 1.391 . S
C91 C90 1.391 . S
C91 C92 1.391 . S
C92 H69 0.947 . S
C92 C91 1.391 . S
C92 C93 1.392 . S
C93 H70 0.948 . S
C93 C92 1.392 . S
C93 C94 1.419 . S
C94 C93 1.419 . S
C94 C95 1.391 . S
C94 C98 1.397 . S
C95 C90 1.391 . S
C95 C94 1.391 . S
C95 C96 1.399 . S
C96 C95 1.399 . S
C96 C97 1.396 . S
C96 C99 1.453 . S
C96 C100 1.684 . S
C97 C87 1.723 . S
C97 C96 1.396 . S
C97 C98 1.394 . S
C98 C68 1.723 . S
C98 C94 1.397 . S
C98 C97 1.394 . S
C99 H71 0.982 . S
C99 H75 0.979 . S
C99 H76 0.977 . S
C99 C96 1.453 . S
C100 H72 0.979 . S
C100 H73 0.980 . S
C100 H74 0.983 . S
C100 C96 1.684 . S
H101 C119 0.948 . S
H102 C60 0.948 . S
H103 C78 0.979 . S
H104 C78 0.980 . S
H105 C78 0.983 . S
H106 C77 0.982 . S
H107 C77 0.979 . S
H108 C77 0.977 . S
H109 C79 0.948 . S
H110 C81 0.947 . S
H111 C82 0.948 . S
H112 C88 0.982 . S
H113 C88 0.979 . S
H114 C88 0.977 . S
H115 C89 0.979 . S
H116 C89 0.980 . S
H117 C89 0.983 . S
H118 C62 0.947 . S
C119 C62 1.392 . S
C119 C63 1.419 . S
C119 H101 0.948 . S
C120 C121 1.391 . S
C120 C124 1.391 . S
C120 H162 0.948 . S
C121 C120 1.391 . S
C121 C122 1.391 . S
C122 C121 1.391 . S
C122 H178 0.947 . S
C122 C179 1.392 . S
C123 C124 1.391 . S
C123 C127 1.397 . S
C123 C179 1.419 . S
C124 C120 1.391 . S
C124 C123 1.391 . S
C124 C125 1.399 . S
C125 C124 1.399 . S
C125 C128 1.396 . S
C125 C137 1.453 . S
C125 C138 1.684 . S
H126 C150 0.948 . S
C127 C123 1.397 . S
C127 C128 1.394 . S
C127 C146 1.723 1_554 S
C128 C125 1.396 . S
C128 C127 1.394 . S
C128 C158 1.723 . S
H129 C152 0.947 . S
H130 C153 0.948 . S
H131 C159 0.982 . S
H132 C160 0.979 . S
H133 C160 0.980 . S
H134 C160 0.983 . S
H135 C159 0.979 . S
H136 C159 0.977 . S
C137 C125 1.453 . S
C137 H166 0.982 . S
C137 H167 0.979 . S
C137 H168 0.977 . S
C138 C125 1.684 . S
C138 H163 0.979 . S
C138 H164 0.980 . S
C138 H165 0.983 . S
C139 C140 1.391 . S
C139 C144 1.391 . S
C139 H169 0.948 . S
C140 C139 1.391 . S
C140 C141 1.391 . S
C141 C140 1.391 . S
C141 C142 1.392 . S
C141 H170 0.947 . S
C142 C141 1.392 . S
C142 C143 1.419 . S
C142 H171 0.948 . S
C143 C142 1.419 . S
C143 C144 1.391 . S
C143 C147 1.397 . S
C144 C139 1.391 . S
C144 C143 1.391 . S
C144 C145 1.399 . S
C145 C144 1.399 . S
C145 C146 1.396 . S
C145 C148 1.453 . S
C145 C149 1.684 . S
C146 C127 1.723 1_556 S
C146 C145 1.396 . S
C146 C147 1.394 . S
C147 C143 1.397 . S
C147 C146 1.394 . S
C147 C157 1.723 . S
C148 C145 1.453 . S
C148 H172 0.982 . S
C148 H173 0.979 . S
C148 H174 0.977 1_556 S
C149 C145 1.684 . S
C149 H175 0.979 . S
C149 H176 0.980 1_556 S
C149 H177 0.983 . S
C150 H126 0.948 . S
C150 C151 1.391 1_556 S
C150 C155 1.391 . S
C151 C150 1.391 1_554 S
C151 C152 1.391 . S
C152 H129 0.947 . S
C152 C151 1.391 . S
C152 C153 1.392 . S
C153 H130 0.948 . S
C153 C152 1.392 . S
C153 C154 1.419 . S
C154 C153 1.419 . S
C154 C155 1.391 1_554 S
C154 C158 1.397 . S
C155 C150 1.391 . S
C155 C154 1.391 1_556 S
C155 C156 1.399 . S
C156 C155 1.399 . S
C156 C157 1.396 . S
C156 C159 1.453 . S
C156 C160 1.684 . S
C157 C147 1.723 . S
C157 C156 1.396 . S
C157 C158 1.394 1_556 S
C158 C128 1.723 . S
C158 C154 1.397 . S
C158 C157 1.394 1_554 S
C159 H131 0.982 . S
C159 H135 0.979 . S
C159 H136 0.977 . S
C159 C156 1.453 . S
C160 H132 0.979 . S
C160 H133 0.980 . S
C160 H134 0.983 . S
C160 C156 1.684 . S
H161 C179 0.948 . S
H162 C120 0.948 . S
H163 C138 0.979 . S
H164 C138 0.980 . S
H165 C138 0.983 . S
H166 C137 0.982 . S
H167 C137 0.979 . S
H168 C137 0.977 . S
H169 C139 0.948 . S
H170 C141 0.947 . S
H171 C142 0.948 . S
H172 C148 0.982 . S
H173 C148 0.979 . S
H174 C148 0.977 1_554 S
H175 C149 0.979 . S
H176 C149 0.980 1_554 S
H177 C149 0.983 . S
H178 C122 0.947 . S
C179 C122 1.392 . S
C179 C123 1.419 . S
C179 H161 0.948 . S
C180 C181 1.391 . S
C180 C184 1.391 . S
C180 H222 0.948 . S
C181 C180 1.391 . S
C181 C182 1.391 . S
C182 C181 1.391 . S
C182 H238 0.947 . S
C182 C239 1.392 . S
C183 C184 1.391 . S
C183 C187 1.397 . S
C183 C239 1.419 . S
C184 C180 1.391 . S
C184 C183 1.391 . S
C184 C185 1.399 . S
C185 C184 1.399 . S
C185 C188 1.396 . S
C185 C197 1.453 . S
C185 C198 1.684 . S
H186 C210 0.948 . S
C187 C183 1.397 . S
C187 C188 1.394 . S
C187 C206 1.723 . S
C188 C185 1.396 . S
C188 C187 1.394 . S
C188 C218 1.723 . S
H189 C212 0.947 . S
H190 C213 0.948 . S
H191 C219 0.982 . S
H192 C220 0.979 . S
H193 C220 0.980 . S
H194 C220 0.983 . S
H195 C219 0.979 . S
H196 C219 0.977 . S
C197 C185 1.453 . S
C197 H226 0.982 . S
C197 H227 0.979 . S
C197 H228 0.977 . S
C198 C185 1.684 . S
C198 H223 0.979 . S
C198 H224 0.980 . S
C198 H225 0.983 . S
C199 C200 1.391 . S
C199 C204 1.391 . S
C199 H229 0.948 . S
C200 C199 1.391 . S
C200 C201 1.391 . S
C201 C200 1.391 . S
C201 C202 1.392 . S
C201 H230 0.947 . S
C202 C201 1.392 . S
C202 C203 1.419 . S
C202 H231 0.948 . S
C203 C202 1.419 . S
C203 C204 1.391 . S
C203 C207 1.397 . S
C204 C199 1.391 . S
C204 C203 1.391 . S
C204 C205 1.399 . S
C205 C204 1.399 . S
C205 C206 1.396 . S
C205 C208 1.453 . S
C205 C209 1.684 . S
C206 C187 1.723 . S
C206 C205 1.396 . S
C206 C207 1.394 . S
C207 C203 1.397 . S
C207 C206 1.394 . S
C207 C217 1.723 . S
C208 C205 1.453 . S
C208 H232 0.982 . S
C208 H233 0.979 . S
C208 H234 0.977 . S
C209 C205 1.684 . S
C209 H235 0.979 . S
C209 H236 0.980 . S
C209 H237 0.983 . S
C210 H186 0.948 . S
C210 C211 1.391 . S
C210 C215 1.391 . S
C211 C210 1.391 . S
C211 C212 1.391 . S
C212 H189 0.947 . S
C212 C211 1.391 . S
C212 C213 1.392 . S
C213 H190 0.948 . S
C213 C212 1.392 . S
C213 C214 1.419 . S
C214 C213 1.419 . S
C214 C215 1.391 . S
C214 C218 1.397 . S
C215 C210 1.391 . S
C215 C214 1.391 . S
C215 C216 1.399 . S
C216 C215 1.399 . S
C216 C217 1.396 . S
C216 C219 1.453 . S
C216 C220 1.684 . S
C217 C207 1.723 . S
C217 C216 1.396 . S
C217 C218 1.394 . S
C218 C188 1.723 . S
C218 C214 1.397 . S
C218 C217 1.394 . S
C219 H191 0.982 . S
C219 H195 0.979 . S
C219 H196 0.977 . S
C219 C216 1.453 . S
C220 H192 0.979 . S
C220 H193 0.980 . S
C220 H194 0.983 . S
C220 C216 1.684 . S
H221 C239 0.948 . S
H222 C180 0.948 . S
H223 C198 0.979 . S
H224 C198 0.980 . S
H225 C198 0.983 . S
H226 C197 0.982 . S
H227 C197 0.979 . S
H228 C197 0.977 . S
H229 C199 0.948 . S
H230 C201 0.947 . S
H231 C202 0.948 . S
H232 C208 0.982 . S
H233 C208 0.979 . S
H234 C208 0.977 . S
H235 C209 0.979 . S
H236 C209 0.980 . S
H237 C209 0.983 . S
H238 C182 0.947 . S
C239 C182 1.392 . S
C239 C183 1.419 . S
C239 H221 0.948 . S
C240 O256 1.251 . S
C240 O258 1.254 1_455 S
N241 C242 1.333 . S
N241 C246 1.307 . S
N241 Zn247 2.020 . S
C242 N241 1.333 . S
C242 C243 1.379 . S
C242 H260 0.952 . S
C243 C242 1.379 . S
C243 C244 1.390 . S
C243 H270 0.949 . S
C244 C243 1.390 . S
C244 C245 1.357 . S
C245 C244 1.357 . S
C245 C246 1.370 . S
C245 H271 0.950 . S
C246 N241 1.307 . S
C246 C245 1.370 . S
C246 H264 0.948 . S
Zn247 N241 2.020 . S
Zn247 O256 2.039 1_545 S
Zn247 O262 2.034 1_545 S
Zn247 O266 2.025 . S
Zn247 O268 2.024 . S
C248 O267 1.246 . S
C248 O268 1.249 1_655 S
N249 C250 1.307 . S
N249 C251 1.333 . S
N249 Zn255 2.020 . S
C250 N249 1.307 . S
C250 C254 1.370 . S
C250 H261 0.948 . S
C251 N249 1.333 . S
C251 C252 1.379 . S
C251 H259 0.947 1_565 S
C252 C251 1.379 . S
C252 C253 1.390 . S
C252 H272 0.949 . S
C253 C252 1.390 . S
C253 C254 1.357 . S
C254 C250 1.370 . S
C254 C253 1.357 . S
C254 H273 0.950 . S
Zn255 N249 2.020 . S
Zn255 O258 2.025 . S
Zn255 O263 2.024 . S
Zn255 O265 2.039 1_565 S
Zn255 O267 2.034 1_565 S
O256 C240 1.251 . S
O256 Zn247 2.039 1_565 S
C257 O262 1.246 . S
C257 O263 1.249 1_455 S
O258 C240 1.254 1_655 S
O258 Zn255 2.025 . S
H259 C251 0.947 1_545 S
H260 C242 0.952 . S
H261 C250 0.948 . S
O262 Zn247 2.034 1_565 S
O262 C257 1.246 . S
O263 Zn255 2.024 . S
O263 C257 1.249 1_655 S
H264 C246 0.948 . S
O265 Zn255 2.039 1_545 S
O265 C269 1.251 . S
O266 Zn247 2.025 . S
O266 C269 1.254 1_455 S
O267 C248 1.246 . S
O267 Zn255 2.034 1_545 S
O268 Zn247 2.024 . S
O268 C248 1.249 1_455 S
C269 O265 1.251 . S
C269 O266 1.254 1_655 S
H270 C243 0.949 . S
H271 C245 0.950 . S
H272 C252 0.949 . S
H273 C254 0.950 . S
C274 O290 1.251 . S
C274 O292 1.254 . S
N275 C276 1.333 1_554 S
N275 C280 1.307 . S
N275 Zn281 2.020 . S
C276 N275 1.333 1_556 S
C276 C277 1.379 . S
C276 H294 0.952 . S
C277 C276 1.379 . S
C277 C278 1.390 1_556 S
C277 H304 0.949 . S
C278 C277 1.390 1_554 S
C278 C279 1.357 . S
C279 C278 1.357 . S
C279 C280 1.370 . S
C279 H305 0.950 . S
C280 N275 1.307 . S
C280 C279 1.370 . S
C280 H298 0.948 . S
Zn281 N275 2.020 . S
Zn281 O290 2.039 1_554 S
Zn281 O296 2.034 . S
Zn281 O300 2.025 . S
Zn281 O302 2.024 1_554 S
C282 O301 1.246 . S
C282 O302 1.249 . S
N283 C284 1.306 1_554 S
N283 C285 1.333 . S
N283 Zn289 2.020 . S
C284 N283 1.306 1_556 S
C284 C288 1.370 1_556 S
C284 H295 0.950 . S
C285 N283 1.333 . S
C285 C286 1.379 . S
C285 H293 0.952 . S
C286 C285 1.379 . S
C286 C287 1.390 . S
C286 H306 0.949 . S
C287 C286 1.390 . S
C287 C288 1.358 . S
C288 C284 1.370 1_554 S
C288 C287 1.358 . S
C288 H307 0.949 1_554 S
Zn289 N283 2.020 . S
Zn289 O292 2.025 1_554 S
Zn289 O297 2.024 . S
Zn289 O299 2.039 . S
Zn289 O301 2.034 1_554 S
O290 C274 1.251 . S
O290 Zn281 2.039 1_556 S
C291 O296 1.246 . S
C291 O297 1.249 . S
O292 C274 1.254 . S
O292 Zn289 2.025 1_556 S
H293 C285 0.952 . S
H294 C276 0.952 . S
H295 C284 0.950 . S
O296 Zn281 2.034 . S
O296 C291 1.246 . S
O297 Zn289 2.024 . S
O297 C291 1.249 . S
H298 C280 0.948 . S
O299 Zn289 2.039 . S
O299 C303 1.251 . S
O300 Zn281 2.025 . S
O300 C303 1.254 . S
O301 C282 1.246 . S
O301 Zn289 2.034 1_556 S
O302 Zn281 2.024 1_556 S
O302 C282 1.249 . S
C303 O299 1.251 . S
C303 O300 1.254 . S
H304 C277 0.949 . S
H305 C279 0.950 . S
H306 C286 0.949 . S
H307 C288 0.949 1_556 S
H308 C316 0.929 . S
H309 C318 0.930 . S
H310 C320 0.930 . S
H311 C323 0.929 . S
H312 C326 0.930 . S
H313 C328 0.960 . S
H314 C328 0.960 . S
H315 C328 0.960 . S
C316 H308 0.929 . S
C316 C317 1.377 . S
C316 C318 1.384 . S
C317 C316 1.377 . S
C317 C323 1.390 . S
C318 H309 0.930 . S
C318 C316 1.384 . S
C318 C319 1.372 . S
C319 C318 1.372 . S
C319 C320 1.400 . S
C319 C324 1.490 . S
C320 H310 0.930 . S
C320 C319 1.400 . S
C320 C323 1.386 . S
H321 C337 0.930 . S
H322 C338 0.931 . S
C323 H311 0.929 . S
C323 C317 1.390 . S
C323 C320 1.386 . S
C324 C319 1.490 . S
C324 C326 1.395 . S
C324 C327 1.403 . S
H325 C331 0.930 . S
C326 H312 0.930 . S
C326 C324 1.395 . S
C326 C329 1.403 . S
C327 C324 1.403 . S
C327 C328 1.524 . S
C327 C331 1.400 . S
C328 H313 0.960 . S
C328 H314 0.960 . S
C328 H315 0.960 . S
C328 C327 1.524 . S
C329 C326 1.403 . S
C329 C330 1.392 . S
C329 C333 1.495 . S
C330 C329 1.392 . S
C330 C331 1.385 . S
C330 C332 1.478 . S
C331 H325 0.930 . S
C331 C327 1.400 . S
C331 C330 1.385 . S
C332 C330 1.478 . S
C332 C334 1.381 . S
C332 C338 1.383 . S
C333 C329 1.495 . S
C333 H339 0.959 . S
C333 H340 0.961 . S
C333 H341 0.960 . S
C334 C332 1.381 . S
C334 C335 1.394 . S
C334 H342 0.930 . S
C335 C334 1.394 . S
C335 C336 1.383 . S
C335 H343 0.929 . S
C336 C335 1.383 . S
C336 C337 1.377 . S
C337 H321 0.930 . S
C337 C336 1.377 . S
C337 C338 1.379 . S
C338 H322 0.931 . S
C338 C332 1.383 . S
C338 C337 1.379 . S
H339 C333 0.959 . S
H340 C333 0.961 . S
H341 C333 0.960 . S
H342 C334 0.930 . S
H343 C335 0.929 . S
H344 C352 0.929 . S
H345 C354 0.930 . S
H346 C356 0.930 . S
H347 C359 0.929 . S
H348 C362 0.930 . S
H349 C364 0.960 . S
H350 C364 0.960 . S
H351 C364 0.960 1_556 S
C352 H344 0.929 . S
C352 C353 1.377 . S
C352 C354 1.384 . S
C353 C352 1.377 . S
C353 C359 1.390 1_554 S
C354 H345 0.930 . S
C354 C352 1.384 . S
C354 C355 1.372 . S
C355 C354 1.372 . S
C355 C356 1.400 1_554 S
C355 C360 1.490 . S
C356 H346 0.930 . S
C356 C355 1.400 1_556 S
C356 C359 1.386 . S
H357 C373 0.930 . S
H358 C374 0.931 . S
C359 H347 0.929 . S
C359 C353 1.390 1_556 S
C359 C356 1.386 . S
C360 C355 1.490 . S
C360 C362 1.395 . S
C360 C363 1.403 . S
H361 C367 0.930 . S
C362 H348 0.930 . S
C362 C360 1.395 . S
C362 C365 1.403 . S
C363 C360 1.403 . S
C363 C364 1.524 . S
C363 C367 1.400 . S
C364 H349 0.960 . S
C364 H350 0.960 . S
C364 H351 0.960 1_554 S
C364 C363 1.524 . S
C365 C362 1.403 . S
C365 C366 1.392 . S
C365 C369 1.495 . S
C366 C365 1.392 . S
C366 C367 1.385 . S
C366 C368 1.478 . S
C367 H361 0.930 . S
C367 C363 1.400 . S
C367 C366 1.385 . S
C368 C366 1.478 . S
C368 C370 1.381 . S
C368 C374 1.383 1_554 S
C369 C365 1.495 . S
C369 H375 0.959 . S
C369 H376 0.937 1_554 S
C369 H377 0.960 . S
C370 C368 1.381 . S
C370 C371 1.394 . S
C370 H378 0.930 . S
C371 C370 1.394 . S
C371 C372 1.383 . S
C371 H379 0.929 . S
C372 C371 1.383 . S
C372 C373 1.377 1_554 S
C373 H357 0.930 . S
C373 C372 1.377 1_556 S
C373 C374 1.379 . S
C374 H358 0.931 . S
C374 C368 1.383 1_556 S
C374 C373 1.379 . S
H375 C369 0.959 . S
H376 C369 0.937 1_556 S
H377 C369 0.960 . S
H378 C370 0.930 . S
H379 C371 0.929 . S
H380 C388 0.929 . S
H381 C390 0.930 . S
H382 C392 0.930 . S
H383 C395 0.929 . S
H384 C398 0.930 . S
H385 C400 0.960 . S
H386 C400 0.960 . S
H387 C400 0.960 . S
C388 H380 0.929 . S
C388 C389 1.377 . S
C388 C390 1.384 . S
C389 C388 1.377 . S
C389 C395 1.390 . S
C390 H381 0.930 . S
C390 C388 1.384 . S
C390 C391 1.372 . S
C391 C390 1.372 . S
C391 C392 1.400 . S
C391 C396 1.490 . S
C392 H382 0.930 . S
C392 C391 1.400 . S
C392 C395 1.386 . S
H393 C409 0.930 . S
H394 C410 0.931 . S
C395 H383 0.929 . S
C395 C389 1.390 . S
C395 C392 1.386 . S
C396 C391 1.490 . S
C396 C398 1.395 . S
C396 C399 1.403 . S
H397 C403 0.930 . S
C398 H384 0.930 . S
C398 C396 1.395 . S
C398 C401 1.403 . S
C399 C396 1.403 . S
C399 C400 1.524 . S
C399 C403 1.400 . S
C400 H385 0.960 . S
C400 H386 0.960 . S
C400 H387 0.960 . S
C400 C399 1.524 . S
C401 C398 1.403 . S
C401 C402 1.392 . S
C401 C405 1.495 . S
C402 C401 1.392 . S
C402 C403 1.385 . S
C402 C404 1.478 . S
C403 H397 0.930 . S
C403 C399 1.400 . S
C403 C402 1.385 . S
C404 C402 1.478 . S
C404 C406 1.381 . S
C404 C410 1.383 . S
C405 C401 1.495 . S
C405 H411 0.959 . S
C405 H412 0.961 . S
C405 H413 0.960 . S
C406 C404 1.381 . S
C406 C407 1.394 . S
C406 H414 0.930 . S
C407 C406 1.394 . S
C407 C408 1.383 . S
C407 H415 0.929 . S
C408 C407 1.383 . S
C408 C409 1.377 . S
C409 H393 0.930 . S
C409 C408 1.377 . S
C409 C410 1.379 . S
C410 H394 0.931 . S
C410 C404 1.383 . S
C410 C409 1.379 . S
H411 C405 0.959 . S
H412 C405 0.961 . S
H413 C405 0.960 . S
H414 C406 0.930 . S
H415 C407 0.929 . S
H416 C424 0.929 . S
H417 C426 0.930 . S
H418 C428 0.930 . S
H419 C431 0.929 . S
H420 C434 0.930 . S
H421 C436 0.960 . S
H422 C436 0.960 . S
H423 C436 0.960 1_556 S
C424 H416 0.929 . S
C424 C425 1.377 . S
C424 C426 1.384 . S
C425 C424 1.377 . S
C425 C431 1.390 1_554 S
C426 H417 0.930 . S
C426 C424 1.384 . S
C426 C427 1.372 . S
C427 C426 1.372 . S
C427 C428 1.400 1_554 S
C427 C432 1.490 . S
C428 H418 0.930 . S
C428 C427 1.400 1_556 S
C428 C431 1.386 . S
H429 C445 0.930 . S
H430 C446 0.931 . S
C431 H419 0.929 . S
C431 C425 1.390 1_556 S
C431 C428 1.386 . S
C432 C427 1.490 . S
C432 C434 1.395 . S
C432 C435 1.403 . S
H433 C439 0.930 . S
C434 H420 0.930 . S
C434 C432 1.395 . S
C434 C437 1.403 . S
C435 C432 1.403 . S
C435 C436 1.524 . S
C435 C439 1.400 . S
C436 H421 0.960 . S
C436 H422 0.960 . S
C436 H423 0.960 1_554 S
C436 C435 1.524 . S
C437 C434 1.403 . S
C437 C438 1.392 . S
C437 C441 1.495 . S
C438 C437 1.392 . S
C438 C439 1.385 . S
C438 C440 1.478 . S
C439 H433 0.930 . S
C439 C435 1.400 . S
C439 C438 1.385 . S
C440 C438 1.478 . S
C440 C442 1.381 . S
C440 C446 1.383 1_554 S
C441 C437 1.495 . S
C441 H447 0.959 . S
C441 H448 0.961 1_554 S
C441 H449 0.960 . S
C442 C440 1.381 . S
C442 C443 1.394 . S
C442 H450 0.930 . S
C443 C442 1.394 . S
C443 C444 1.383 . S
C443 H451 0.929 . S
C444 C443 1.383 . S
C444 C445 1.377 1_554 S
C445 H429 0.930 . S
C445 C444 1.377 1_556 S
C445 C446 1.379 . S
C446 H430 0.931 . S
C446 C440 1.383 1_556 S
C446 C445 1.379 . S
H447 C441 0.959 . S
H448 C441 0.961 1_556 S
H449 C441 0.960 . S
H450 C442 0.930 . S
H451 C443 0.929 . S
H452 C460 0.929 . S
H453 C462 0.930 . S
H454 C464 0.930 . S
H455 C467 0.929 . S
H456 C470 0.930 . S
H457 C472 0.960 . S
H458 C472 0.960 . S
H459 C472 0.960 . S
C460 H452 0.929 . S
C460 C461 1.377 . S
C460 C462 1.384 . S
C461 C460 1.377 . S
C461 C467 1.390 . S
C462 H453 0.930 . S
C462 C460 1.384 . S
C462 C463 1.372 . S
C463 C462 1.372 . S
C463 C464 1.400 . S
C463 C468 1.490 . S
C464 H454 0.930 . S
C464 C463 1.400 . S
C464 C467 1.386 . S
H465 C481 0.930 . S
H466 C482 0.931 . S
C467 H455 0.929 . S
C467 C461 1.390 . S
C467 C464 1.386 . S
C468 C463 1.490 . S
C468 C470 1.395 . S
C468 C471 1.403 . S
H469 C475 0.930 . S
C470 H456 0.930 . S
C470 C468 1.395 . S
C470 C473 1.403 . S
C471 C468 1.403 . S
C471 C472 1.524 . S
C471 C475 1.400 . S
C472 H457 0.960 . S
C472 H458 0.960 . S
C472 H459 0.960 . S
C472 C471 1.524 . S
C473 C470 1.403 . S
C473 C474 1.392 . S
C473 C477 1.495 1_455 S
C474 C473 1.392 . S
C474 C475 1.385 . S
C474 C476 1.478 . S
C475 H469 0.930 . S
C475 C471 1.400 . S
C475 C474 1.385 . S
C476 C474 1.478 . S
C476 C478 1.381 . S
C476 C482 1.383 . S
C477 C473 1.495 1_655 S
C477 H483 0.959 . S
C477 H484 0.961 . S
C477 H485 0.960 . S
C478 C476 1.381 . S
C478 C479 1.394 . S
C478 H486 0.930 . S
C479 C478 1.394 . S
C479 C480 1.383 . S
C479 H487 0.929 . S
C480 C479 1.383 . S
C480 C481 1.377 . S
C481 H465 0.930 . S
C481 C480 1.377 . S
C481 C482 1.379 . S
C482 H466 0.931 . S
C482 C476 1.383 . S
C482 C481 1.379 . S
H483 C477 0.959 . S
H484 C477 0.961 . S
H485 C477 0.960 . S
H486 C478 0.930 . S
H487 C479 0.929 . S
H488 C496 0.929 . S
H489 C498 0.930 . S
H490 C500 0.930 . S
H491 C503 0.929 . S
H492 C506 0.930 . S
H493 C508 0.960 . S
H494 C508 0.960 . S
H495 C508 0.960 . S
C496 H488 0.929 . S
C496 C497 1.377 . S
C496 C498 1.384 . S
C497 C496 1.377 . S
C497 C503 1.390 . S
C498 H489 0.930 . S
C498 C496 1.384 . S
C498 C499 1.372 . S
C499 C498 1.372 . S
C499 C500 1.400 . S
C499 C504 1.490 . S
C500 H490 0.930 . S
C500 C499 1.400 . S
C500 C503 1.386 . S
H501 C517 0.930 . S
H502 C518 0.931 . S
C503 H491 0.929 . S
C503 C497 1.390 . S
C503 C500 1.386 . S
C504 C499 1.490 . S
C504 C506 1.395 . S
C504 C507 1.403 . S
H505 C511 0.930 . S
C506 H492 0.930 . S
C506 C504 1.395 . S
C506 C509 1.403 . S
C507 C504 1.403 . S
C507 C508 1.524 . S
C507 C511 1.400 . S
C508 H493 0.960 . S
C508 H494 0.960 . S
C508 H495 0.960 . S
C508 C507 1.524 . S
C509 C506 1.403 . S
C509 C510 1.392 . S
C509 C513 1.495 . S
C510 C509 1.392 . S
C510 C511 1.385 . S
C510 C512 1.478 . S
C511 H505 0.930 . S
C511 C507 1.400 . S
C511 C510 1.385 . S
C512 C510 1.478 . S
C512 C514 1.381 . S
C512 C518 1.383 . S
C513 C509 1.495 . S
C513 H519 0.959 . S
C513 H520 0.961 . S
C513 H521 0.960 . S
C514 C512 1.381 . S
C514 C515 1.394 . S
C514 H522 0.930 . S
C515 C514 1.394 . S
C515 C516 1.383 . S
C515 H523 0.929 . S
C516 C515 1.383 . S
C516 C517 1.377 . S
C517 H501 0.930 . S
C517 C516 1.377 . S
C517 C518 1.379 . S
C518 H502 0.931 . S
C518 C512 1.383 . S
C518 C517 1.379 . S
H519 C513 0.959 . S
H520 C513 0.961 . S
H521 C513 0.960 . S
H522 C514 0.930 . S
H523 C515 0.929 . S
H524 C532 0.929 . S
H525 C534 0.930 . S
H526 C536 0.930 . S
H527 C539 0.929 . S
H528 C542 0.930 . S
H529 C544 0.960 . S
H530 C544 0.960 . S
H531 C544 0.960 . S
C532 H524 0.929 . S
C532 C533 1.377 . S
C532 C534 1.384 . S
C533 C532 1.377 . S
C533 C539 1.390 . S
C534 H525 0.930 . S
C534 C532 1.384 . S
C534 C535 1.372 . S
C535 C534 1.372 . S
C535 C536 1.400 . S
C535 C540 1.490 . S
C536 H526 0.930 . S
C536 C535 1.400 . S
C536 C539 1.386 . S
H537 C553 0.930 1_455 S
H538 C554 0.930 1_455 S
C539 H527 0.929 . S
C539 C533 1.390 . S
C539 C536 1.386 . S
C540 C535 1.490 . S
C540 C542 1.395 . S
C540 C543 1.403 . S
H541 C547 0.930 . S
C542 H528 0.930 . S
C542 C540 1.395 . S
C542 C545 1.403 . S
C543 C540 1.403 . S
C543 C544 1.524 . S
C543 C547 1.400 . S
C544 H529 0.960 . S
C544 H530 0.960 . S
C544 H531 0.960 . S
C544 C543 1.524 . S
C545 C542 1.403 . S
C545 C546 1.392 . S
C545 C549 1.495 . S
C546 C545 1.392 . S
C546 C547 1.385 . S
C546 C548 1.478 . S
C547 H541 0.930 . S
C547 C543 1.400 . S
C547 C546 1.385 . S
C548 C546 1.478 . S
C548 C550 1.381 . S
C548 C554 1.383 . S
C549 C545 1.495 . S
C549 H555 0.959 . S
C549 H556 0.961 . S
C549 H557 0.960 . S
C550 C548 1.381 . S
C550 C551 1.394 . S
C550 H558 0.930 . S
C551 C550 1.394 . S
C551 C552 1.383 . S
C551 H559 0.929 . S
C552 C551 1.383 . S
C552 C553 1.377 . S
C553 H537 0.930 1_655 S
C553 C552 1.377 . S
C553 C554 1.379 . S
C554 H538 0.930 1_655 S
C554 C548 1.383 . S
C554 C553 1.379 . S
H555 C549 0.959 . S
H556 C549 0.961 . S
H557 C549 0.960 . S
H558 C550 0.930 . S
H559 C551 0.929 . S
H560 C568 0.929 . S
H561 C570 0.930 . S
H562 C572 0.930 . S
H563 C575 0.929 . S
H564 C578 0.930 . S
H565 C580 0.960 . S
H566 C580 0.960 . S
H567 C580 0.960 . S
C568 H560 0.929 . S
C568 C569 1.377 . S
C568 C570 1.384 . S
C569 C568 1.377 . S
C569 C575 1.390 . S
C570 H561 0.930 . S
C570 C568 1.384 . S
C570 C571 1.372 . S
C571 C570 1.372 . S
C571 C572 1.400 . S
C571 C576 1.490 . S
C572 H562 0.930 . S
C572 C571 1.400 . S
C572 C575 1.386 . S
H573 C589 0.930 . S
H574 C590 0.931 . S
C575 H563 0.929 . S
C575 C569 1.390 . S
C575 C572 1.386 . S
C576 C571 1.490 . S
C576 C578 1.395 . S
C576 C579 1.403 . S
H577 C583 0.930 . S
C578 H564 0.930 . S
C578 C576 1.395 . S
C578 C581 1.403 . S
C579 C576 1.403 . S
C579 C580 1.524 . S
C579 C583 1.400 . S
C580 H565 0.960 . S
C580 H566 0.960 . S
C580 H567 0.960 . S
C580 C579 1.524 . S
C581 C578 1.403 . S
C581 C582 1.392 . S
C581 C585 1.495 . S
C582 C581 1.392 . S
C582 C583 1.385 . S
C582 C584 1.478 . S
C583 H577 0.930 . S
C583 C579 1.400 . S
C583 C582 1.385 . S
C584 C582 1.478 . S
C584 C586 1.381 . S
C584 C590 1.383 . S
C585 C581 1.495 . S
C585 H591 0.959 . S
C585 H592 0.961 . S
C585 H593 0.960 . S
C586 C584 1.381 . S
C586 C587 1.394 . S
C586 H594 0.930 . S
C587 C586 1.394 . S
C587 C588 1.383 . S
C587 H595 0.929 . S
C588 C587 1.383 . S
C588 C589 1.377 . S
C589 H573 0.930 . S
C589 C588 1.377 . S
C589 C590 1.379 . S
C590 H574 0.931 . S
C590 C584 1.383 . S
C590 C589 1.379 . S
H591 C585 0.959 . S
H592 C585 0.961 . S
H593 C585 0.960 . S
H594 C586 0.930 . S
H595 C587 0.929 . S
H596 C604 0.929 . S
H597 C606 0.930 . S
H598 C608 0.930 . S
H599 C611 0.929 . S
H600 C614 0.930 . S
H601 C616 0.960 . S
H602 C616 0.960 . S
H603 C616 0.960 . S
C604 H596 0.929 . S
C604 C605 1.377 . S
C604 C606 1.384 . S
C605 C604 1.377 . S
C605 C611 1.390 . S
C606 H597 0.930 . S
C606 C604 1.384 . S
C606 C607 1.372 . S
C607 C606 1.372 . S
C607 C608 1.400 . S
C607 C612 1.490 . S
C608 H598 0.930 . S
C608 C607 1.400 . S
C608 C611 1.386 . S
H609 C625 0.930 . S
H610 C626 0.931 . S
C611 H599 0.929 . S
C611 C605 1.390 . S
C611 C608 1.386 . S
C612 C607 1.490 . S
C612 C614 1.395 . S
C612 C615 1.403 . S
H613 C619 0.930 . S
C614 H600 0.930 . S
C614 C612 1.395 . S
C614 C617 1.403 . S
C615 C612 1.403 . S
C615 C616 1.524 . S
C615 C619 1.400 . S
C616 H601 0.960 . S
C616 H602 0.960 . S
C616 H603 0.960 . S
C616 C615 1.524 . S
C617 C614 1.403 . S
C617 C618 1.392 . S
C617 C621 1.495 . S
C618 C617 1.392 . S
C618 C619 1.385 . S
C618 C620 1.478 . S
C619 H613 0.930 . S
C619 C615 1.400 . S
C619 C618 1.385 . S
C620 C618 1.478 . S
C620 C622 1.381 . S
C620 C626 1.383 . S
C621 C617 1.495 . S
C621 H627 0.959 . S
C621 H628 0.961 . S
C621 H629 0.960 . S
C622 C620 1.381 . S
C622 C623 1.394 . S
C622 H630 0.930 . S
C623 C622 1.394 . S
C623 C624 1.383 . S
C623 H631 0.929 . S
C624 C623 1.383 . S
C624 C625 1.377 . S
C625 H609 0.930 . S
C625 C624 1.377 . S
C625 C626 1.379 . S
C626 H610 0.931 . S
C626 C620 1.383 . S
C626 C625 1.379 . S
H627 C621 0.959 . S
H628 C621 0.961 . S
H629 C621 0.960 . S
H630 C622 0.930 . S
H631 C623 0.929 . S
H632 C640 0.929 . S
H633 C642 0.930 . S
H634 C644 0.930 . S
H635 C647 0.929 . S
H636 C650 0.930 . S
H637 C652 0.960 1_455 S
H638 C652 0.960 . S
H639 C652 0.960 . S
C640 H632 0.929 . S
C640 C641 1.377 . S
C640 C642 1.384 . S
C641 C640 1.377 . S
C641 C647 1.390 . S
C642 H633 0.930 . S
C642 C640 1.384 . S
C642 C643 1.372 . S
C643 C642 1.372 . S
C643 C644 1.400 . S
C643 C648 1.490 . S
C644 H634 0.930 . S
C644 C643 1.400 . S
C644 C647 1.386 . S
H645 C661 0.930 . S
H646 C662 0.931 . S
C647 H635 0.929 . S
C647 C641 1.390 . S
C647 C644 1.386 . S
C648 C643 1.490 . S
C648 C650 1.395 . S
C648 C651 1.403 . S
H649 C655 0.930 . S
C650 H636 0.930 . S
C650 C648 1.395 . S
C650 C653 1.403 . S
C651 C648 1.403 . S
C651 C652 1.524 . S
C651 C655 1.400 . S
C652 H637 0.960 1_655 S
C652 H638 0.960 . S
C652 H639 0.960 . S
C652 C651 1.524 . S
C653 C650 1.403 . S
C653 C654 1.392 . S
C653 C657 1.495 . S
C654 C653 1.392 . S
C654 C655 1.385 . S
C654 C656 1.478 . S
C655 H649 0.930 . S
C655 C651 1.400 . S
C655 C654 1.385 . S
C656 C654 1.478 . S
C656 C658 1.381 . S
C656 C662 1.383 . S
C657 C653 1.495 . S
C657 H663 0.959 . S
C657 H664 0.961 . S
C657 H665 0.960 . S
C658 C656 1.381 . S
C658 C659 1.394 . S
C658 H666 0.930 . S
C659 C658 1.394 . S
C659 C660 1.383 . S
C659 H667 0.929 . S
C660 C659 1.383 . S
C660 C661 1.377 . S
C661 H645 0.930 . S
C661 C660 1.377 . S
C661 C662 1.379 . S
C662 H646 0.931 . S
C662 C656 1.383 . S
C662 C661 1.379 . S
H663 C657 0.959 . S
H664 C657 0.961 . S
H665 C657 0.960 . S
H666 C658 0.930 . S
H667 C659 0.929 . S
H668 C676 0.929 . S
H669 C678 0.930 . S
H670 C680 0.930 . S
H671 C683 0.929 . S
H672 C686 0.930 . S
H673 C688 0.960 . S
H674 C688 0.960 . S
H675 C688 0.960 . S
C676 H668 0.929 . S
C676 C677 1.377 . S
C676 C678 1.384 . S
C677 C676 1.377 . S
C677 C683 1.390 . S
C678 H669 0.930 . S
C678 C676 1.384 . S
C678 C679 1.372 . S
C679 C678 1.372 . S
C679 C680 1.400 . S
C679 C684 1.490 . S
C680 H670 0.930 . S
C680 C679 1.400 . S
C680 C683 1.386 . S
H681 C697 0.930 . S
H682 C698 0.931 . S
C683 H671 0.929 . S
C683 C677 1.390 . S
C683 C680 1.386 . S
C684 C679 1.490 . S
C684 C686 1.395 . S
C684 C687 1.403 . S
H685 C691 0.930 . S
C686 H672 0.930 . S
C686 C684 1.395 . S
C686 C689 1.403 . S
C687 C684 1.403 . S
C687 C688 1.524 . S
C687 C691 1.400 . S
C688 H673 0.960 . S
C688 H674 0.960 . S
C688 H675 0.960 . S
C688 C687 1.524 . S
C689 C686 1.403 . S
C689 C690 1.392 . S
C689 C693 1.495 . S
C690 C689 1.392 . S
C690 C691 1.385 . S
C690 C692 1.478 . S
C691 H685 0.930 . S
C691 C687 1.400 . S
C691 C690 1.385 . S
C692 C690 1.478 . S
C692 C694 1.381 . S
C692 C698 1.383 . S
C693 C689 1.495 . S
C693 H699 0.959 . S
C693 H700 0.961 . S
C693 H701 0.960 . S
C694 C692 1.381 . S
C694 C695 1.394 . S
C694 H702 0.930 . S
C695 C694 1.394 . S
C695 C696 1.383 . S
C695 H703 0.929 . S
C696 C695 1.383 . S
C696 C697 1.377 . S
C697 H681 0.930 . S
C697 C696 1.377 . S
C697 C698 1.379 . S
C698 H682 0.931 . S
C698 C692 1.383 . S
C698 C697 1.379 . S
H699 C693 0.959 . S
H700 C693 0.961 . S
H701 C693 0.960 . S
H702 C694 0.930 . S
H703 C695 0.929 . S
H704 C712 0.929 . S
H705 C714 0.930 . S
H706 C716 0.930 . S
H707 C719 0.929 . S
H708 C722 0.930 . S
H709 C724 0.960 . S
H710 C724 0.960 . S
H711 C724 0.960 . S
C712 H704 0.929 . S
C712 C713 1.377 . S
C712 C714 1.384 . S
C713 C712 1.377 . S
C713 C719 1.390 . S
C714 H705 0.930 . S
C714 C712 1.384 . S
C714 C715 1.372 . S
C715 C714 1.372 . S
C715 C716 1.400 . S
C715 C720 1.490 . S
C716 H706 0.930 . S
C716 C715 1.400 . S
C716 C719 1.386 . S
H717 C733 0.930 1_655 S
H718 C734 0.931 . S
C719 H707 0.929 . S
C719 C713 1.390 . S
C719 C716 1.386 . S
C720 C715 1.490 . S
C720 C722 1.395 . S
C720 C723 1.403 . S
H721 C727 0.930 . S
C722 H708 0.930 . S
C722 C720 1.395 . S
C722 C725 1.403 . S
C723 C720 1.403 . S
C723 C724 1.524 . S
C723 C727 1.400 . S
C724 H709 0.960 . S
C724 H710 0.960 . S
C724 H711 0.960 . S
C724 C723 1.524 . S
C725 C722 1.403 . S
C725 C726 1.392 . S
C725 C729 1.495 . S
C726 C725 1.392 . S
C726 C727 1.385 . S
C726 C728 1.478 . S
C727 H721 0.930 . S
C727 C723 1.400 . S
C727 C726 1.385 . S
C728 C726 1.478 . S
C728 C730 1.381 . S
C728 C734 1.383 . S
C729 C725 1.495 . S
C729 H735 0.959 . S
C729 H736 0.961 . S
C729 H737 0.960 . S
C730 C728 1.381 . S
C730 C731 1.394 . S
C730 H738 0.930 . S
C731 C730 1.394 . S
C731 C732 1.383 . S
C731 H739 0.929 . S
C732 C731 1.383 . S
C732 C733 1.377 . S
C733 H717 0.930 1_455 S
C733 C732 1.377 . S
C733 C734 1.379 . S
C734 H718 0.931 . S
C734 C728 1.383 . S
C734 C733 1.379 . S
H735 C729 0.959 . S
H736 C729 0.961 . S
H737 C729 0.960 . S
H738 C730 0.930 . S
H739 C731 0.929 . S
C336 C244 1.635 . S
C317 C211 1.569 . S
C353 C31 1.550 . S
C372 C287 1.552 . S
C389 C91 1.626 . S
C408 C253 1.640 . S
C425 C151 1.500 . S
C444 C278 1.551 . S
C480 C240 1.610 . S
C461 C20 1.611 . S
C516 C282 1.706 . S
C497 C61 1.662 . S
C533 C121 1.526 . S
C552 C248 1.612 . S
C569 C200 1.635 . S
C588 C274 1.702 . S
C624 C303 1.706 . S
C605 C80 1.690 . S
C660 C269 1.619 . S
C641 C140 1.565 . S
C696 C291 1.711 . S
C677 C181 1.600 . S
C713 C1 1.569 . S
C732 C257 1.603 . S
