# Generated by pormake.
# Topology pyr, (3,6)-cn, num edge types: 1
# Building blocks:
#     Node 0, Type 0, BuildingBlock: MIDCAF_clean_linker_0, # of connection points: 3
#     Node 1, Type 0, BuildingBlock: MIDCAF_clean_linker_0, # of connection points: 3
#     Node 2, Type 0, BuildingBlock: MIDCAF_clean_linker_0, # of connection points: 3
#     Node 3, Type 0, BuildingBlock: MIDCAF_clean_linker_0, # of connection points: 3
#     Node 4, Type 0, BuildingBlock: MIDCAF_clean_linker_0, # of connection points: 3
#     Node 5, Type 0, BuildingBlock: MIDCAF_clean_linker_0, # of connection points: 3
#     Node 6, Type 0, BuildingBlock: MIDCAF_clean_linker_0, # of connection points: 3
#     Node 7, Type 0, BuildingBlock: MIDCAF_clean_linker_0, # of connection points: 3
#     Node 8, Type 1, BuildingBlock: VOLQOD_clean_sbu_1, # of connection points: 6
#     Node 9, Type 1, BuildingBlock: VOLQOD_clean_sbu_1, # of connection points: 6
#     Node 10, Type 1, BuildingBlock: VOLQOD_clean_sbu_1, # of connection points: 6
#     Node 11, Type 1, BuildingBlock: VOLQOD_clean_sbu_1, # of connection points: 6
#     Edge 12, Type (0, 1), BuildingBlock: OJICUG_clean_linker_0, # of connection points: 2
#     Edge 13, Type (0, 1), BuildingBlock: OJICUG_clean_linker_0, # of connection points: 2
#     Edge 14, Type (0, 1), BuildingBlock: OJICUG_clean_linker_0, # of connection points: 2
#     Edge 15, Type (0, 1), BuildingBlock: OJICUG_clean_linker_0, # of connection points: 2
#     Edge 16, Type (0, 1), BuildingBlock: OJICUG_clean_linker_0, # of connection points: 2
#     Edge 17, Type (0, 1), BuildingBlock: OJICUG_clean_linker_0, # of connection points: 2
#     Edge 18, Type (0, 1), BuildingBlock: OJICUG_clean_linker_0, # of connection points: 2
#     Edge 19, Type (0, 1), BuildingBlock: OJICUG_clean_linker_0, # of connection points: 2
#     Edge 20, Type (0, 1), BuildingBlock: OJICUG_clean_linker_0, # of connection points: 2
#     Edge 21, Type (0, 1), BuildingBlock: OJICUG_clean_linker_0, # of connection points: 2
#     Edge 22, Type (0, 1), BuildingBlock: OJICUG_clean_linker_0, # of connection points: 2
#     Edge 23, Type (0, 1), BuildingBlock: OJICUG_clean_linker_0, # of connection points: 2
#     Edge 24, Type (0, 1), BuildingBlock: OJICUG_clean_linker_0, # of connection points: 2
#     Edge 25, Type (0, 1), BuildingBlock: OJICUG_clean_linker_0, # of connection points: 2
#     Edge 26, Type (0, 1), BuildingBlock: OJICUG_clean_linker_0, # of connection points: 2
#     Edge 27, Type (0, 1), BuildingBlock: OJICUG_clean_linker_0, # of connection points: 2
#     Edge 28, Type (0, 1), BuildingBlock: OJICUG_clean_linker_0, # of connection points: 2
#     Edge 29, Type (0, 1), BuildingBlock: OJICUG_clean_linker_0, # of connection points: 2
#     Edge 30, Type (0, 1), BuildingBlock: OJICUG_clean_linker_0, # of connection points: 2
#     Edge 31, Type (0, 1), BuildingBlock: OJICUG_clean_linker_0, # of connection points: 2
#     Edge 32, Type (0, 1), BuildingBlock: OJICUG_clean_linker_0, # of connection points: 2
#     Edge 33, Type (0, 1), BuildingBlock: OJICUG_clean_linker_0, # of connection points: 2
#     Edge 34, Type (0, 1), BuildingBlock: OJICUG_clean_linker_0, # of connection points: 2
#     Edge 35, Type (0, 1), BuildingBlock: OJICUG_clean_linker_0, # of connection points: 2
# Relax obj value: 0.035
# Max RMSD: 0.119
# Mean RMSD: 0.043
data_MOF--net-pry--node1-VOLQOD_clean_sbu_1--node2-MIDCAF_clean_linker_0--edge1-OJICUG_clean_linker_0
_symmetry_space_group_name_H-M    P1
_symmetry_Int_Tables_number       1
_symmetry_cell_setting            triclinic
loop_
_symmetry_equiv_pos_as_xyz
'x, y, z'
_cell_length_a     35.532365
_cell_length_b     35.572659
_cell_length_c     35.712279
_cell_angle_alpha  89.933462
_cell_angle_beta   90.081397
_cell_angle_gamma 90.060473
loop_
_atom_site_label
_atom_site_type_symbol
_atom_site_fract_x
_atom_site_fract_y
_atom_site_fract_z
_atom_type_partial_charge
C0 C 0.05599 0.10786 0.24878 0.0
C1 C 0.06462 0.07172 0.26194 0.0
C2 C 0.08402 0.0467 0.23855 0.0
C3 C 0.09603 0.05826 0.20305 0.0
H4 H 0.18184 0.03804 0.12369 0.0
H5 H 0.24198 0.0133 0.10236 0.0
H6 H 0.26087 0.11486 0.03846 0.0
H7 H 0.20032 0.1389 0.05857 0.0
H8 H 0.14254 0.20533 0.06276 0.0
H9 H 0.12043 0.26613 0.04105 0.0
H10 H 0.01208 0.24504 0.09205 0.0
H11 H 0.03497 0.18489 0.11532 0.0
H12 H 0.06088 0.14756 0.20418 0.0
H13 H 0.04087 0.12753 0.26634 0.0
H14 H 0.09106 0.01871 0.24826 0.0
H15 H 0.11192 0.0388 0.18597 0.0
N16 N 0.13448 0.09204 0.13893 0.0
N17 N 0.13634 0.13847 0.09228 0.0
N18 N 0.08922 0.13997 0.13804 0.0
C19 C 0.15098 0.10685 0.1079 0.0
C20 C 0.10526 0.15495 0.10696 0.0
C21 C 0.10363 0.10854 0.1542 0.0
C22 C 0.18627 0.09054 0.09302 0.0
C23 C 0.19868 0.05494 0.10482 0.0
C24 C 0.2333 0.04084 0.09274 0.0
C25 C 0.25651 0.06216 0.06888 0.0
C26 C 0.24359 0.09736 0.05637 0.0
C27 C 0.20884 0.11128 0.06812 0.0
C28 C 0.0906 0.19039 0.09097 0.0
C29 C 0.11389 0.21352 0.06908 0.0
C30 C 0.10107 0.24839 0.05642 0.0
C31 C 0.06442 0.26072 0.06483 0.0
C32 C 0.04072 0.2369 0.08567 0.0
C33 C 0.05376 0.20228 0.09884 0.0
C34 C 0.08818 0.09481 0.19017 0.0
C35 C 0.06732 0.11918 0.21313 0.0
C36 C 0.27855 0.96741 0.59295 0.0
C37 C 0.25757 0.94549 0.56776 0.0
C38 C 0.27306 0.91193 0.55411 0.0
C39 C 0.30839 0.89989 0.56623 0.0
H40 H 0.37721 0.81038 0.56153 0.0
H41 H 0.39982 0.74986 0.54046 0.0
H42 H 0.50618 0.76985 0.59607 0.0
H43 H 0.48266 0.83003 0.61877 0.0
H44 H 0.47987 0.89182 0.68777 0.0
H45 H 0.50155 0.91208 0.74923 0.0
H46 H 0.3985 0.97471 0.76439 0.0
H47 H 0.37749 0.95567 0.70258 0.0
H48 H 0.32888 0.97224 0.6256 0.0
H49 H 0.26711 0.99333 0.60404 0.0
H50 H 0.25759 0.89471 0.53436 0.0
H51 H 0.31908 0.87347 0.55564 0.0
N52 N 0.3809 0.87546 0.59253 0.0
N53 N 0.42805 0.87625 0.63846 0.0
N54 N 0.38035 0.92182 0.639 0.0
C55 C 0.41261 0.86035 0.60746 0.0
C56 C 0.41205 0.907 0.65442 0.0
C57 C 0.36475 0.90634 0.60789 0.0
C58 C 0.42806 0.82502 0.592 0.0
C59 C 0.40557 0.80211 0.56903 0.0
C60 C 0.4187 0.76735 0.55669 0.0
C61 C 0.45492 0.75477 0.56647 0.0
C62 C 0.47789 0.77826 0.58852 0.0
C63 C 0.46451 0.81289 0.60136 0.0
C64 C 0.42684 0.92193 0.69026 0.0
C65 C 0.46201 0.91024 0.70406 0.0
C66 C 0.47434 0.92167 0.73944 0.0
C67 C 0.45165 0.94477 0.762 0.0
C68 C 0.41698 0.95734 0.74768 0.0
C69 C 0.40482 0.94622 0.71219 0.0
C70 C 0.32887 0.92099 0.59261 0.0
C71 C 0.3138 0.95519 0.60543 0.0
C72 C 0.59955 0.26519 0.96408 0.0
C73 C 0.56327 0.25221 0.95493 0.0
C74 C 0.5395 0.2757 0.93375 0.0
C75 C 0.55205 0.31085 0.92134 0.0
H76 H 0.53314 0.39212 0.83709 0.0
H77 H 0.51054 0.41373 0.77633 0.0
H78 H 0.61173 0.47993 0.76265 0.0
H79 H 0.63349 0.45965 0.82373 0.0
H80 H 0.67942 0.47683 0.90262 0.0
H81 H 0.73992 0.50086 0.92384 0.0
H82 H 0.76005 0.39706 0.98362 0.0
H83 H 0.69905 0.37356 0.96355 0.0
H84 H 0.64022 0.30911 0.95924 0.0
H85 H 0.61901 0.2477 0.97963 0.0
H86 H 0.51117 0.26698 0.9267 0.0
H87 H 0.53322 0.32806 0.90473 0.0
N88 N 0.58622 0.37625 0.88543 0.0
N89 N 0.63226 0.42352 0.88584 0.0
N90 N 0.63425 0.37537 0.93055 0.0
C91 C 0.60089 0.40816 0.87035 0.0
C92 C 0.64897 0.40745 0.91606 0.0
C93 C 0.60275 0.35973 0.91559 0.0
C94 C 0.58525 0.42393 0.83523 0.0
C95 C 0.55033 0.41166 0.82129 0.0
C96 C 0.53749 0.42388 0.78632 0.0
C97 C 0.55944 0.44832 0.76432 0.0
C98 C 0.59376 0.46154 0.77891 0.0
C99 C 0.60638 0.44968 0.814 0.0
C100 C 0.68445 0.42316 0.93117 0.0
C101 C 0.6966 0.45924 0.92056 0.0
C102 C 0.73141 0.47296 0.93257 0.0
C103 C 0.75506 0.45079 0.95518 0.0
C104 C 0.74241 0.41513 0.96664 0.0
C105 C 0.70744 0.40154 0.95493 0.0
C106 C 0.58846 0.3235 0.93023 0.0
C107 C 0.61186 0.30046 0.95215 0.0
C108 C 0.77689 0.59433 0.47126 0.0
C109 C 0.76312 0.55909 0.45981 0.0
C110 C 0.78595 0.53637 0.43701 0.0
C111 C 0.82086 0.54932 0.42448 0.0
H112 H 0.87906 0.55157 0.3226 0.0
H113 H 0.89915 0.53283 0.26032 0.0
H114 H 0.00314 0.59425 0.27525 0.0
H115 H 0.98241 0.61416 0.337 0.0
H116 H 0.96779 0.69299 0.38241 0.0
H117 H 0.98812 0.75538 0.40174 0.0
H118 H 0.91875 0.74728 0.50056 0.0
H119 H 0.89823 0.68467 0.48144 0.0
H120 H 0.82115 0.6349 0.46751 0.0
H121 H 0.75995 0.61279 0.48844 0.0
H122 H 0.77664 0.50872 0.42834 0.0
H123 H 0.83728 0.53143 0.40623 0.0
N124 N 0.88404 0.5846 0.38725 0.0
N125 N 0.93036 0.63146 0.38525 0.0
N126 N 0.88503 0.63202 0.43282 0.0
C127 C 0.91476 0.59991 0.37054 0.0
C128 C 0.91578 0.64765 0.41643 0.0
C129 C 0.86914 0.60036 0.41854 0.0
C130 C 0.92895 0.5847 0.33467 0.0
C131 C 0.90641 0.56075 0.3128 0.0
C132 C 0.91803 0.54984 0.27707 0.0
C133 C 0.95264 0.56232 0.26253 0.0
C134 C 0.97592 0.58484 0.28517 0.0
C135 C 0.96413 0.59607 0.32071 0.0
C136 C 0.93107 0.68386 0.4302 0.0
C137 C 0.95711 0.70419 0.4085 0.0
C138 C 0.96866 0.74005 0.41943 0.0
C139 C 0.95476 0.75622 0.45245 0.0
C140 C 0.93003 0.73537 0.47504 0.0
C141 C 0.91815 0.69959 0.46394 0.0
C142 C 0.83397 0.58512 0.43481 0.0
C143 C 0.81199 0.60712 0.45906 0.0
C144 C 0.78246 0.9743 0.93268 0.0
C145 C 0.76862 0.96049 0.96675 0.0
C146 C 0.79228 0.93919 0.99002 0.0
C147 C 0.82872 0.93007 0.9783 0.0
H148 H 0.91068 0.84519 0.99127 0.0
H149 H 0.92967 0.7812 0.00759 0.0
H150 H 0.99507 0.77449 0.9061 0.0
H151 H 0.97653 0.83824 0.88969 0.0
H152 H 0.9905 0.91673 0.84427 0.0
H153 H 0.00831 0.93613 0.78136 0.0
H154 H 0.90478 -0.00092 0.7714 0.0
H155 H 0.88761 0.98087 0.83464 0.0
H156 H 0.82826 0.97602 0.89424 0.0
H157 H 0.76466 0.99096 0.91444 0.0
H158 H 0.78201 0.92822 0.01641 0.0
H159 H 0.84594 0.91239 0.9961 0.0
N160 N 0.89537 0.8982 0.94283 0.0
N161 N 0.94072 0.90023 0.89521 0.0
N162 N 0.89317 0.94562 0.89724 0.0
C163 C 0.92652 0.88347 0.92635 0.0
C164 C 0.92436 0.93145 0.88062 0.0
C165 C 0.87863 0.92941 0.92847 0.0
C166 C 0.94177 0.84681 0.93899 0.0
C167 C 0.92953 0.8303 0.97266 0.0
C168 C 0.94047 0.79373 0.98211 0.0
C169 C 0.96347 0.77288 0.95787 0.0
C170 C 0.97692 0.78985 0.92502 0.0
C171 C 0.96642 0.82649 0.9158 0.0
C172 C 0.93745 0.9469 0.8444 0.0
C173 C 0.97177 0.93512 0.82886 0.0
C174 C 0.98187 0.94606 0.79267 0.0
C175 C 0.95772 0.96871 0.77107 0.0
C176 C 0.92423 0.9819 0.7873 0.0
C177 C 0.9143 0.97127 0.8236 0.0
C178 C 0.84215 0.94265 0.94341 0.0
C179 C 0.81895 0.96578 0.92126 0.0
C180 C 0.57472 0.02365 0.29573 0.0
C181 C 0.55337 0.04761 0.27284 0.0
C182 C 0.54061 0.08196 0.28717 0.0
C183 C 0.55027 0.09297 0.32337 0.0
H184 H 0.5369 0.17735 0.39346 0.0
H185 H 0.51948 0.24114 0.41035 0.0
H186 H 0.58976 0.23451 0.50877 0.0
H187 H 0.60777 0.17035 0.49189 0.0
H188 H 0.66785 0.09707 0.49686 0.0
H189 H 0.73111 0.07955 0.51675 0.0
H190 H 0.75 0.02699 0.40923 0.0
H191 H 0.6865 0.04263 0.3904 0.0
H192 H 0.60269 0.01658 0.34845 0.0
H193 H 0.5849 0.99704 0.28508 0.0
H194 H 0.52389 0.10073 0.26998 0.0
H195 H 0.54087 0.12022 0.33309 0.0
N196 N 0.57297 0.11589 0.39708 0.0
N197 N 0.61974 0.1165 0.44335 0.0
N198 N 0.6195 0.06942 0.39734 0.0
C199 C 0.58838 0.13199 0.42792 0.0
C200 C 0.6354 0.08512 0.42824 0.0
C201 C 0.58808 0.08449 0.38178 0.0
C202 C 0.5741 0.16875 0.44114 0.0
C203 C 0.54839 0.1891 0.419 0.0
C204 C 0.53849 0.22576 0.4285 0.0
C205 C 0.55362 0.24274 0.46057 0.0
C206 C 0.57772 0.22192 0.48387 0.0
C207 C 0.58807 0.18528 0.47412 0.0
C208 C 0.67215 0.07132 0.44204 0.0
C209 C 0.68541 0.08127 0.47776 0.0
C210 C 0.72183 0.07149 0.48901 0.0
C211 C 0.74603 0.0521 0.46454 0.0
C212 C 0.73219 0.0413 0.42921 0.0
C213 C 0.69565 0.05048 0.41826 0.0
C214 C 0.5735 0.0701 0.34573 0.0
C215 C 0.58498 0.03493 0.33184 0.0
C216 C 0.28643 0.53346 0.08113 0.0
C217 C 0.26682 0.55785 0.05711 0.0
C218 C 0.28511 0.58983 0.04307 0.0
C219 C 0.32191 0.59808 0.05389 0.0
H220 H 0.39612 0.67865 0.04492 0.0
H221 H 0.41629 0.742 0.02932 0.0
H222 H 0.51444 0.729 0.09925 0.0
H223 H 0.4941 0.66519 0.11588 0.0
H224 H 0.49057 0.59762 0.17909 0.0
H225 H 0.50747 0.57801 0.2425 0.0
H226 H 0.40453 0.51399 0.25015 0.0
H227 H 0.38749 0.53325 0.18698 0.0
H228 H 0.33718 0.52327 0.1119 0.0
H229 H 0.27283 0.50863 0.09237 0.0
H230 H 0.27069 0.60882 0.02415 0.0
H231 H 0.33473 0.62355 0.04319 0.0
N232 N 0.39575 0.61692 0.07998 0.0
N233 N 0.44191 0.61371 0.12673 0.0
N234 N 0.3926 0.56972 0.12547 0.0
C235 C 0.42766 0.63071 0.0957 0.0
C236 C 0.42459 0.58303 0.1417 0.0
C237 C 0.37814 0.58641 0.09445 0.0
C238 C 0.44327 0.66686 0.08209 0.0
C239 C 0.42233 0.6888 0.05671 0.0
C240 C 0.43374 0.72515 0.04774 0.0
C241 C 0.46664 0.74017 0.06336 0.0
C242 C 0.48894 0.71776 0.08691 0.0
C243 C 0.47721 0.68139 0.09644 0.0
C244 C 0.43747 0.56736 0.17799 0.0
C245 C 0.47175 0.57895 0.19406 0.0
C246 C 0.48154 0.56763 0.2303 0.0
C247 C 0.45708 0.54484 0.25128 0.0
C248 C 0.42364 0.53197 0.23471 0.0
C249 C 0.41404 0.5429 0.1984 0.0
C250 C 0.34107 0.57475 0.07941 0.0
C251 C 0.32319 0.54194 0.09236 0.0
C252 C 0.07206 0.29141 0.5399 0.0
C253 C 0.05029 0.26949 0.56449 0.0
C254 C 0.03847 0.2854 0.59852 0.0
C255 C 0.04975 0.32169 0.60854 0.0
H256 H 0.02828 0.41428 0.68033 0.0
H257 H 0.0115 0.43615 0.74287 0.0
H258 H 0.1151 0.49933 0.74878 0.0
H259 H 0.13207 0.47771 0.68636 0.0
H260 H 0.17873 0.48788 0.60848 0.0
H261 H 0.24215 0.50356 0.58737 0.0
H262 H 0.24524 0.40186 0.52166 0.0
H263 H 0.18197 0.386 0.5425 0.0
H264 H 0.10129 0.34313 0.53083 0.0
H265 H 0.08088 0.28038 0.51306 0.0
H266 H 0.02191 0.26923 0.61824 0.0
H267 H 0.04136 0.33249 0.6356 0.0
N268 N 0.07667 0.39614 0.62875 0.0
N269 N 0.12541 0.4405 0.62506 0.0
N270 N 0.12116 0.39242 0.58053 0.0
C271 C 0.09413 0.42723 0.64251 0.0
C272 C 0.13902 0.42335 0.59395 0.0
C273 C 0.0899 0.37872 0.59761 0.0
C274 C 0.08171 0.44392 0.67841 0.0
C275 C 0.04731 0.4332 0.69473 0.0
C276 C 0.03756 0.44586 0.73046 0.0
C277 C 0.06217 0.46915 0.7507 0.0
C278 C 0.09583 0.48104 0.73389 0.0
C279 C 0.10541 0.46876 0.69804 0.0
C280 C 0.17533 0.43547 0.57753 0.0
C281 C 0.19268 0.46907 0.58915 0.0
C282 C 0.22893 0.47819 0.57694 0.0
C283 C 0.24864 0.45372 0.5532 0.0
C284 C 0.23077 0.42097 0.54034 0.0
C285 C 0.19443 0.41204 0.55218 0.0
C286 C 0.07335 0.34272 0.58484 0.0
C287 C 0.08358 0.32752 0.55001 0.0
O288 O 0.99138 0.09672 0.54556 0.0
Zn289 Zn 0.97271 0.04317 0.54418 0.0
O290 O 0.00507 0.01122 0.51319 0.0
Zn291 Zn 0.97723 0.99282 0.4697 0.0
Zn292 Zn 0.04856 0.0405 0.49675 0.0
Zn293 Zn 0.02201 0.96795 0.54222 0.0
O294 O 0.97718 0.93644 0.46736 0.0
O295 O 0.00387 0.91886 0.52072 0.0
O296 O 0.91961 0.04358 0.52425 0.0
O297 O 0.92294 0.00852 0.47284 0.0
O298 O -0.00042 0.01201 0.42141 0.0
O299 O 0.04951 0.04439 0.44061 0.0
O300 O 0.09744 0.0173 0.5141 0.0
O301 O 0.97144 0.02442 0.59757 0.0
O302 O 0.07831 0.96577 0.54363 0.0
O303 O 0.00432 0.97142 0.59528 0.0
C304 C 0.02155 0.11213 0.53393 0.0
C305 C 0.98754 0.91083 0.49002 0.0
C306 C 0.02847 0.03205 0.41446 0.0
C307 C 0.90415 0.02835 0.49585 0.0
C308 C 0.10456 0.98715 0.53203 0.0
C309 C 0.98507 0.99537 0.61348 0.0
O310 O 0.04616 0.09342 0.51602 0.0
O311 O 0.4981 0.08204 0.97909 0.0
Zn312 Zn 0.47788 0.0292 0.98349 0.0
O313 O 0.50992 0.99834 0.01599 0.0
Zn314 Zn 0.53126 0.95697 0.98703 0.0
Zn315 Zn 0.55053 0.02915 0.03655 0.0
Zn316 Zn 0.48019 0.97781 0.05717 0.0
O317 O 0.51832 0.9066 0.0096 0.0
O318 O 0.47884 0.92151 0.05538 0.0
O319 O 0.47519 0.00779 0.9314 0.0
O320 O 0.51167 0.95722 0.93412 0.0
O321 O 0.58747 0.96106 0.98466 0.0
O322 O 0.60152 0.0091 0.02186 0.0
O323 O 0.54833 0.031 0.09254 0.0
O324 O 0.42496 0.0323 0.00393 0.0
O325 O 0.50136 0.99261 0.1074 0.0
O326 O 0.42708 0.99692 0.05517 0.0
C327 C 0.52535 0.09909 0.99489 0.0
C328 C 0.49619 0.89707 0.03597 0.0
C329 C 0.61154 0.9824 0.00036 0.0
C330 C 0.48996 0.97913 0.91596 0.0
C331 C 0.52795 0.01463 0.11688 0.0
C332 C 0.4091 0.01812 0.03267 0.0
O333 O 0.54707 0.08229 0.01781 0.0
O334 O 0.54004 0.51094 0.59428 0.0
Zn335 Zn 0.5392 0.53137 0.54158 0.0
O336 O 0.50744 0.50052 0.50872 0.0
Zn337 Zn 0.5373 0.48086 0.46722 0.0
Zn338 Zn 0.48667 0.45859 0.53742 0.0
Zn339 Zn 0.46638 0.53095 0.48849 0.0
O340 O 0.51679 0.49713 0.41718 0.0
O341 O 0.46649 0.53081 0.43215 0.0
O342 O 0.59271 0.53352 0.52242 0.0
O343 O 0.59049 0.49938 0.47043 0.0
O344 O 0.53848 0.42429 0.46787 0.0
O345 O 0.50397 0.40886 0.51734 0.0
O346 O 0.43011 0.4593 0.53649 0.0
O347 O 0.5197 0.58446 0.54438 0.0
O348 O 0.41588 0.51138 0.50523 0.0
O349 O 0.47079 0.5846 0.50553 0.0
C350 C 0.52422 0.48278 0.60973 0.0
C351 C 0.48829 0.5166 0.4077 0.0
C352 C 0.52427 0.39961 0.48952 0.0
C353 C 0.60863 0.51966 0.49362 0.0
C354 C 0.40592 0.48222 0.52341 0.0
C355 C 0.4928 0.60156 0.52807 0.0
O356 O 0.50311 0.46068 0.59116 0.0
O357 O 0.97452 0.50287 0.09156 0.0
Zn358 Zn 0.97708 0.48288 0.0389 0.0
O359 O 0.00868 0.51466 0.00693 0.0
Zn360 Zn 0.97918 0.5345 0.96508 0.0
Zn361 Zn 0.02866 0.5564 0.0365 0.0
Zn362 Zn 0.05013 0.48473 0.98708 0.0
O363 O 0.0005 0.51871 0.91523 0.0
O364 O 0.05113 0.48575 0.93088 0.0
O365 O 0.92419 0.48005 0.01861 0.0
O366 O 0.92599 0.51549 0.96738 0.0
O367 O 0.97803 0.59114 0.96592 0.0
O368 O 0.01232 0.60636 0.01569 0.0
O369 O 0.0853 0.55522 0.03774 0.0
O370 O 0.9974 0.43008 0.04198 0.0
O371 O 0.09993 0.504 0.00542 0.0
O372 O 0.04625 0.43084 0.00329 0.0
C373 C 0.98917 0.53131 0.10756 0.0
C374 C 0.02949 0.49982 0.90614 0.0
C375 C 0.99233 0.61575 0.98759 0.0
C376 C 0.90815 0.4943 0.99 0.0
C377 C 0.10962 0.53243 0.02476 0.0
C378 C 0.02454 0.41343 0.0257 0.0
O379 O 0.01032 0.55399 0.0897 0.0
C380 C 0.06757 0.08376 0.33057 0.0
C381 C 0.05524 0.06113 0.30082 0.0
H382 H 0.06915 0.092 0.38985 0.0
C383 C 0.03416 0.02864 0.3085 0.0
H384 H 0.0841 0.10882 0.32526 0.0
C385 C 0.02503 0.01928 0.34547 0.0
C386 C 0.03763 0.04181 0.37531 0.0
H387 H 0.02434 0.01085 0.2859 0.0
H388 H 0.00852 0.99421 0.35071 0.0
C389 C 0.05917 0.07401 0.36747 0.0
C390 C 0.48126 0.92751 0.82361 0.0
C391 C 0.46318 0.95436 0.80092 0.0
H392 H 0.5039 0.91424 0.87754 0.0
C393 C 0.45492 0.98982 0.81622 0.0
H394 H 0.48749 0.89969 0.81305 0.0
C395 C 0.46375 0.99793 0.85348 0.0
C396 C 0.48142 0.97091 0.87622 0.0
H397 H 0.4416 0.0114 0.79941 0.0
H398 H 0.45676 0.02543 0.86442 0.0
C399 C 0.49043 0.93576 0.86075 0.0
C400 C 0.53072 0.43126 0.70231 0.0
C401 C 0.54789 0.45826 0.72548 0.0
H402 H 0.50972 0.41783 0.64783 0.0
C403 C 0.55575 0.49404 0.71053 0.0
H404 H 0.52483 0.40321 0.71256 0.0
C405 C 0.54774 0.50218 0.67306 0.0
C406 C 0.53125 0.4749 0.64982 0.0
H407 H 0.56833 0.51576 0.7277 0.0
H408 H 0.5546 0.52984 0.66231 0.0
C409 C 0.52231 0.43955 0.66502 0.0
C410 C 0.98149 0.5808 0.20105 0.0
C411 C 0.9635 0.55352 0.22329 0.0
H412 H 0.00373 0.59521 0.14734 0.0
C413 C 0.95481 0.51846 0.20726 0.0
H414 H 0.98797 0.60836 0.21216 0.0
C415 C 0.96331 0.51112 0.16976 0.0
C416 C 0.98099 0.53857 0.14753 0.0
H417 H 0.94148 0.49659 0.22368 0.0
H418 H 0.95604 0.48391 0.15824 0.0
C419 C 0.99029 0.57335 0.16371 0.0
C420 C 0.30986 0.05613 0.02288 0.0
C421 C 0.29477 0.04872 0.05855 0.0
H422 H 0.35769 0.05234 0.98668 0.0
C423 C 0.31723 0.02981 0.08499 0.0
H424 H 0.29319 0.07005 0.00159 0.0
C425 C 0.35398 0.01916 0.07623 0.0
C426 C 0.36938 0.0275 0.04095 0.0
H427 H 0.30687 0.02417 0.11294 0.0
H428 H 0.37063 0.00524 0.09756 0.0
C429 C 0.3468 0.0458 0.01424 0.0
C430 C 0.18965 0.92967 0.55959 0.0
C431 C 0.21873 0.95632 0.5574 0.0
H432 H 0.13089 0.91856 0.55349 0.0
C433 C 0.21023 0.99321 0.54617 0.0
H434 H 0.19538 0.90114 0.56858 0.0
C435 C 0.17321 0.00321 0.53722 0.0
C436 C 0.14402 0.97663 0.53997 0.0
H437 H 0.23223 0.01422 0.54413 0.0
H438 H 0.16739 0.03188 0.52876 0.0
C439 C 0.15269 0.93975 0.55117 0.0
C440 C 0.81546 0.48347 0.93878 0.0
C441 C 0.79351 0.46394 0.96516 0.0
H442 H 0.8686 0.50844 0.92594 0.0
C443 C 0.8092 0.45577 0.00042 0.0
H444 H 0.80457 0.48969 0.91113 0.0
C445 C 0.84625 0.46605 0.00874 0.0
C446 C 0.86833 0.48501 0.98208 0.0
H447 H 0.7929 0.44131 0.02162 0.0
H448 H 0.85762 0.45895 0.036 0.0
C449 C 0.85234 0.49402 0.9472 0.0
C450 C 0.70181 0.52834 0.44312 0.0
C451 C 0.72424 0.5471 0.46966 0.0
H452 H 0.6481 0.50492 0.42986 0.0
C453 C 0.7086 0.55571 0.50479 0.0
H454 H 0.71259 0.52188 0.41552 0.0
C455 C 0.67119 0.54647 0.51285 0.0
C456 C 0.64871 0.52817 0.48605 0.0
H457 H 0.72521 0.56968 0.52609 0.0
H458 H 0.65988 0.55382 0.54002 0.0
C459 C 0.66462 0.51884 0.45127 0.0
C460 C 0.02865 0.32046 0.07707 0.0
C461 C 0.05171 0.29891 0.05334 0.0
H462 H 0.0017 0.37332 0.08678 0.0
C463 C 0.06389 0.31485 0.01937 0.0
H464 H 0.01919 0.30946 0.10372 0.0
C465 C 0.05451 0.35182 0.01009 0.0
C466 C 0.03219 0.37351 0.03425 0.0
H467 H 0.08096 0.2989 -2e-05 0.0
H468 H 0.06494 0.36349 0.98406 0.0
C469 C 0.01876 0.35722 0.06748 0.0
C470 C 0.52875 0.19161 0.94245 0.0
C471 C 0.55105 0.21382 0.96639 0.0
H472 H 0.50291 0.13807 0.93278 0.0
C473 C 0.56303 0.19839 0.00069 0.0
H474 H 0.51942 0.20226 0.91558 0.0
C475 C 0.55427 0.16131 0.0101 0.0
C476 C 0.53273 0.13895 0.98577 0.0
H477 H 0.57945 0.21486 0.02029 0.0
H478 H 0.56449 0.15012 0.03644 0.0
C479 C 0.51945 0.15468 0.95218 0.0
C480 C 0.97502 0.80529 0.49875 0.0
C481 C 0.96437 0.79553 0.46214 0.0
H482 H 0.99116 0.84941 0.53626 0.0
C483 C 0.96192 0.82379 0.43476 0.0
H484 H 0.97728 0.78398 0.52032 0.0
C485 C 0.96954 0.86116 0.44384 0.0
C486 C 0.98015 0.87105 0.48046 0.0
H487 H 0.95334 0.8171 0.40641 0.0
H488 H 0.96707 0.88229 0.42212 0.0
C489 C 0.98311 0.84269 0.50777 0.0
C490 C 0.4895 0.69442 0.57954 0.0
C491 C 0.46769 0.71659 0.55511 0.0
H492 H 0.51479 0.64081 0.59001 0.0
C493 C 0.45637 0.70114 0.52062 0.0
H494 H 0.4983 0.70506 0.60656 0.0
C495 C 0.46507 0.66398 0.51159 0.0
C496 C 0.48594 0.64162 0.53649 0.0
H497 H 0.44038 0.71758 0.50066 0.0
H498 H 0.45524 0.6527 0.48516 0.0
C499 C 0.49877 0.65744 0.57018 0.0
C500 C 0.98161 0.94814 0.70837 0.0
C501 C 0.96615 0.97646 0.73104 0.0
H502 H -0.0004 0.93184 0.65375 0.0
C503 C 0.9573 0.01137 0.71472 0.0
H504 H 0.98804 0.92065 0.71976 0.0
C505 C 0.96336 0.0176 0.67654 0.0
C506 C 0.97864 0.98915 0.65393 0.0
H507 H 0.94576 0.03394 0.73146 0.0
H508 H 0.95619 0.04476 0.6648 0.0
C509 C 0.98794 0.95446 0.67036 0.0
C510 C 0.52939 0.00473 0.22256 0.0
C511 C 0.54692 0.03846 0.23309 0.0
H512 H 0.50902 0.97088 0.17717 0.0
C513 C 0.55859 0.06387 0.20537 0.0
H514 H 0.52021 0.98478 0.2436 0.0
C515 C 0.55287 0.05576 0.16763 0.0
C516 C 0.53474 0.02235 0.1569 0.0
H517 H 0.57245 0.08993 0.21295 0.0
H518 H 0.56215 0.07597 0.14688 0.0
C519 C 0.52293 0.99691 0.1847 0.0
C520 C 0.50075 0.52376 0.30245 0.0
C521 C 0.46512 0.5365 0.29111 0.0
H522 H 0.53594 0.50699 0.34826 0.0
C523 C 0.43715 0.54226 0.31825 0.0
H524 H 0.52274 0.51901 0.28202 0.0
C525 C 0.44472 0.53582 0.35606 0.0
C526 C 0.48032 0.52301 0.36753 0.0
H527 H 0.40956 0.55248 0.31029 0.0
H528 H 0.42261 0.54081 0.3763 0.0
C529 C 0.5082 0.51677 0.3403 0.0
C530 C 0.01825 0.49176 0.80083 0.0
C531 C 0.05402 0.4789 0.79015 0.0
H532 H 0.98253 0.50898 0.84592 0.0
C533 C 0.08182 0.4739 0.81769 0.0
H534 H 0.99638 0.49597 0.78009 0.0
C535 C 0.07388 0.48094 0.85527 0.0
C536 C 0.03805 0.49357 0.86611 0.0
H537 H 0.10951 0.46361 0.81026 0.0
H538 H 0.09582 0.47634 0.87586 0.0
C539 C 0.01042 0.49933 0.83845 0.0
C540 C 0.71787 0.9834 0.00969 0.0
C541 C 0.72861 0.96583 0.97622 0.0
H542 H 0.67203 0.00308 0.0434 0.0
C543 C 0.70084 0.95333 0.9512 0.0
H544 H 0.73896 0.99323 0.02931 0.0
C545 C 0.66285 0.95828 0.95942 0.0
C546 C 0.65188 0.97649 0.99253 0.0
H547 H 0.70859 0.93948 0.92533 0.0
H548 H 0.64207 0.94838 0.9395 0.0
C549 C 0.67973 0.98911 0.0176 0.0
C550 C 0.8046 0.01239 0.46179 0.0
C551 C 0.78603 0.04478 0.4748 0.0
H552 H 0.85644 0.98209 0.45786 0.0
C553 C 0.80661 0.07104 0.49608 0.0
H554 H 0.78962 0.99106 0.44611 0.0
C555 C 0.84479 0.06533 0.50361 0.0
C556 C 0.86344 0.03364 0.48942 0.0
H557 H 0.79362 0.09664 0.50606 0.0
H558 H 0.85997 0.08631 0.51961 0.0
C559 C 0.84292 0.00711 0.46866 0.0
C560 C 0.20049 0.58038 0.05253 0.0
C561 C 0.22673 0.5512 0.04825 0.0
H562 H 0.14287 0.59726 0.04877 0.0
C563 C 0.21432 0.51582 0.03604 0.0
H564 H 0.20935 0.60783 0.06229 0.0
C565 C 0.1763 0.5098 0.02796 0.0
C566 C 0.14994 0.53893 0.03257 0.0
H567 H 0.23408 0.49294 0.03243 0.0
H568 H 0.1675 0.48222 0.01854 0.0
C569 C 0.16244 0.57425 0.04501 0.0
C570 C 0.31531 0.4322 0.54834 0.0
C571 C 0.2886 0.46095 0.54396 0.0
H572 H 0.37327 0.41645 0.54555 0.0
C573 C 0.30055 0.49665 0.53208 0.0
H574 H 0.3069 0.40453 0.55788 0.0
C575 C 0.33861 0.50348 0.52476 0.0
C576 C 0.36545 0.47486 0.52978 0.0
H577 H 0.28045 0.51924 0.52839 0.0
H578 H 0.34706 0.53133 0.51579 0.0
C579 C 0.35335 0.43913 0.54154 0.0
C580 C 0.98437 0.7212 0.00097 0.0
C581 C 0.97165 0.73282 0.96558 0.0
H582 H 0.00138 0.67503 0.0356 0.0
C583 C 0.96597 0.70579 0.93748 0.0
H584 H 0.98906 0.74154 0.02304 0.0
C585 C 0.97256 0.66779 0.94469 0.0
C586 C 0.98548 0.65606 0.98002 0.0
H587 H 0.95577 0.71399 0.91006 0.0
H588 H 0.9677 0.64763 0.92249 0.0
C589 C 0.99154 0.68319 0.00804 0.0
C590 C 0.44936 0.80752 0.0684 0.0
C591 C 0.4755 0.78019 0.0574 0.0
H592 H 0.43567 0.86593 0.07062 0.0
C593 C 0.50908 0.79131 0.04002 0.0
H594 H 0.42333 0.79943 0.08201 0.0
C595 C 0.51594 0.82941 0.03285 0.0
C596 C 0.48964 0.85684 0.04377 0.0
H597 H 0.52952 0.77053 0.0313 0.0
H598 H 0.54181 0.8374 0.01895 0.0
C599 C 0.4565 0.8455 0.06198 0.0
C600 C 0.00719 0.2132 0.56478 0.0
C601 C 0.04209 0.22948 0.55569 0.0
H602 H 0.97323 0.16344 0.56506 0.0
C603 C 0.06991 0.20684 0.53919 0.0
H604 H 0.98503 0.22993 0.57719 0.0
C605 C 0.06309 0.16892 0.53198 0.0
C606 C 0.02834 0.15254 0.5413 0.0
H607 H 0.09739 0.21821 0.53252 0.0
H608 H 0.08533 0.15237 0.51947 0.0
C609 C 0.0004 0.17512 0.55771 0.0
C610 C 0.53376 0.29446 0.5038 0.0
C611 C 0.54589 0.28279 0.4683 0.0
H612 H 0.51687 0.34068 0.53826 0.0
C613 C 0.55093 0.30968 0.43992 0.0
H614 H 0.52961 0.27418 0.52607 0.0
C615 C 0.54412 0.34764 0.4469 0.0
C616 C 0.5316 0.35941 0.48228 0.0
H617 H 0.56062 0.30136 0.4124 0.0
H618 H 0.54838 0.36771 0.42447 0.0
C619 C 0.52634 0.33243 0.51065 0.0
loop_
_geom_bond_atom_site_label_1
_geom_bond_atom_site_label_2
_geom_bond_distance
_geom_bond_site_symmetry_2
_ccdc_geom_bond_type
C0 C1 1.384 . S
C0 H13 0.947 . S
C0 C35 1.382 . S
C1 C0 1.384 . S
C1 C2 1.378 . S
C2 C1 1.378 . S
C2 C3 1.378 . S
C2 H14 0.952 . S
C3 C2 1.378 . S
C3 H15 0.950 . S
C3 C34 1.383 . S
H4 C23 0.947 . S
H5 C24 0.946 . S
H6 C26 0.953 . S
H7 C27 0.945 . S
H8 C29 0.952 . S
H9 C30 0.949 . S
H10 C32 0.950 . S
H11 C33 0.948 . S
H12 C35 0.951 . S
H13 C0 0.947 . S
H14 C2 0.952 . S
H15 C3 0.950 . S
N16 C19 1.382 . S
N16 C21 1.363 . S
N17 C19 1.371 . S
N17 C20 1.372 . S
N18 C20 1.361 . S
N18 C21 1.377 . S
C19 N16 1.382 . S
C19 N17 1.371 . S
C19 C22 1.480 . S
C20 N17 1.372 . S
C20 N18 1.361 . S
C20 C28 1.457 . S
C21 N16 1.363 . S
C21 N18 1.377 . S
C21 C34 1.479 . S
C22 C19 1.480 . S
C22 C23 1.383 . S
C22 C27 1.385 . S
C23 H4 0.947 . S
C23 C22 1.383 . S
C23 C24 1.388 . S
C24 H5 0.946 . S
C24 C23 1.388 . S
C24 C25 1.384 . S
C25 C24 1.384 . S
C25 C26 1.377 . S
C26 H6 0.953 . S
C26 C25 1.377 . S
C26 C27 1.369 . S
C27 H7 0.945 . S
C27 C22 1.385 . S
C27 C26 1.369 . S
C28 C20 1.457 . S
C28 C29 1.372 . S
C28 C33 1.364 . S
C29 H8 0.952 . S
C29 C28 1.372 . S
C29 C30 1.389 . S
C30 H9 0.949 . S
C30 C29 1.389 . S
C30 C31 1.387 . S
C31 C30 1.387 . S
C31 C32 1.372 . S
C32 H10 0.950 . S
C32 C31 1.372 . S
C32 C33 1.379 . S
C33 H11 0.948 . S
C33 C28 1.364 . S
C33 C32 1.379 . S
C34 C3 1.383 . S
C34 C21 1.479 . S
C34 C35 1.398 . S
C35 C0 1.382 . S
C35 H12 0.951 . S
C35 C34 1.398 . S
C36 C37 1.384 . S
C36 H49 0.947 . S
C36 C71 1.382 . S
C37 C36 1.384 . S
C37 C38 1.378 . S
C38 C37 1.378 . S
C38 C39 1.378 . S
C38 H50 0.952 . S
C39 C38 1.378 . S
C39 H51 0.950 . S
C39 C70 1.383 . S
H40 C59 0.947 . S
H41 C60 0.946 . S
H42 C62 0.953 . S
H43 C63 0.945 . S
H44 C65 0.952 . S
H45 C66 0.949 . S
H46 C68 0.950 . S
H47 C69 0.948 . S
H48 C71 0.951 . S
H49 C36 0.947 . S
H50 C38 0.952 . S
H51 C39 0.950 . S
N52 C55 1.382 . S
N52 C57 1.363 . S
N53 C55 1.371 . S
N53 C56 1.372 . S
N54 C56 1.361 . S
N54 C57 1.377 . S
C55 N52 1.382 . S
C55 N53 1.371 . S
C55 C58 1.480 . S
C56 N53 1.372 . S
C56 N54 1.361 . S
C56 C64 1.457 . S
C57 N52 1.363 . S
C57 N54 1.377 . S
C57 C70 1.479 . S
C58 C55 1.480 . S
C58 C59 1.383 . S
C58 C63 1.385 . S
C59 H40 0.947 . S
C59 C58 1.383 . S
C59 C60 1.388 . S
C60 H41 0.946 . S
C60 C59 1.388 . S
C60 C61 1.384 . S
C61 C60 1.384 . S
C61 C62 1.377 . S
C62 H42 0.953 . S
C62 C61 1.377 . S
C62 C63 1.369 . S
C63 H43 0.945 . S
C63 C58 1.385 . S
C63 C62 1.369 . S
C64 C56 1.457 . S
C64 C65 1.372 . S
C64 C69 1.364 . S
C65 H44 0.952 . S
C65 C64 1.372 . S
C65 C66 1.389 . S
C66 H45 0.949 . S
C66 C65 1.389 . S
C66 C67 1.387 . S
C67 C66 1.387 . S
C67 C68 1.372 . S
C68 H46 0.950 . S
C68 C67 1.372 . S
C68 C69 1.379 . S
C69 H47 0.948 . S
C69 C64 1.364 . S
C69 C68 1.379 . S
C70 C39 1.383 . S
C70 C57 1.479 . S
C70 C71 1.398 . S
C71 C36 1.382 . S
C71 H48 0.951 . S
C71 C70 1.398 . S
C72 C73 1.384 . S
C72 H85 0.947 . S
C72 C107 1.382 . S
C73 C72 1.384 . S
C73 C74 1.378 . S
C74 C73 1.378 . S
C74 C75 1.378 . S
C74 H86 0.952 . S
C75 C74 1.378 . S
C75 H87 0.950 . S
C75 C106 1.383 . S
H76 C95 0.947 . S
H77 C96 0.946 . S
H78 C98 0.953 . S
H79 C99 0.945 . S
H80 C101 0.952 . S
H81 C102 0.949 . S
H82 C104 0.950 . S
H83 C105 0.948 . S
H84 C107 0.951 . S
H85 C72 0.947 . S
H86 C74 0.952 . S
H87 C75 0.950 . S
N88 C91 1.382 . S
N88 C93 1.363 . S
N89 C91 1.371 . S
N89 C92 1.372 . S
N90 C92 1.361 . S
N90 C93 1.377 . S
C91 N88 1.382 . S
C91 N89 1.371 . S
C91 C94 1.480 . S
C92 N89 1.372 . S
C92 N90 1.361 . S
C92 C100 1.457 . S
C93 N88 1.363 . S
C93 N90 1.377 . S
C93 C106 1.479 . S
C94 C91 1.480 . S
C94 C95 1.383 . S
C94 C99 1.385 . S
C95 H76 0.947 . S
C95 C94 1.383 . S
C95 C96 1.388 . S
C96 H77 0.946 . S
C96 C95 1.388 . S
C96 C97 1.384 . S
C97 C96 1.384 . S
C97 C98 1.377 . S
C98 H78 0.953 . S
C98 C97 1.377 . S
C98 C99 1.369 . S
C99 H79 0.945 . S
C99 C94 1.385 . S
C99 C98 1.369 . S
C100 C92 1.457 . S
C100 C101 1.372 . S
C100 C105 1.364 . S
C101 H80 0.952 . S
C101 C100 1.372 . S
C101 C102 1.389 . S
C102 H81 0.949 . S
C102 C101 1.389 . S
C102 C103 1.387 . S
C103 C102 1.387 . S
C103 C104 1.372 . S
C104 H82 0.950 . S
C104 C103 1.372 . S
C104 C105 1.379 . S
C105 H83 0.948 . S
C105 C100 1.364 . S
C105 C104 1.379 . S
C106 C75 1.383 . S
C106 C93 1.479 . S
C106 C107 1.398 . S
C107 C72 1.382 . S
C107 H84 0.951 . S
C107 C106 1.398 . S
C108 C109 1.384 . S
C108 H121 0.947 . S
C108 C143 1.382 . S
C109 C108 1.384 . S
C109 C110 1.378 . S
C110 C109 1.378 . S
C110 C111 1.378 . S
C110 H122 0.952 . S
C111 C110 1.378 . S
C111 H123 0.950 . S
C111 C142 1.383 . S
H112 C131 0.947 . S
H113 C132 0.946 . S
H114 C134 0.953 . S
H115 C135 0.945 . S
H116 C137 0.952 . S
H117 C138 0.949 . S
H118 C140 0.950 . S
H119 C141 0.948 . S
H120 C143 0.951 . S
H121 C108 0.947 . S
H122 C110 0.952 . S
H123 C111 0.950 . S
N124 C127 1.382 . S
N124 C129 1.363 . S
N125 C127 1.371 . S
N125 C128 1.372 . S
N126 C128 1.361 . S
N126 C129 1.377 . S
C127 N124 1.382 . S
C127 N125 1.371 . S
C127 C130 1.480 . S
C128 N125 1.372 . S
C128 N126 1.361 . S
C128 C136 1.457 . S
C129 N124 1.363 . S
C129 N126 1.377 . S
C129 C142 1.479 . S
C130 C127 1.480 . S
C130 C131 1.383 . S
C130 C135 1.385 . S
C131 H112 0.947 . S
C131 C130 1.383 . S
C131 C132 1.388 . S
C132 H113 0.946 . S
C132 C131 1.388 . S
C132 C133 1.384 . S
C133 C132 1.384 . S
C133 C134 1.377 . S
C134 H114 0.953 . S
C134 C133 1.377 . S
C134 C135 1.369 . S
C135 H115 0.945 . S
C135 C130 1.385 . S
C135 C134 1.369 . S
C136 C128 1.457 . S
C136 C137 1.372 . S
C136 C141 1.364 . S
C137 H116 0.952 . S
C137 C136 1.372 . S
C137 C138 1.389 . S
C138 H117 0.949 . S
C138 C137 1.389 . S
C138 C139 1.387 . S
C139 C138 1.387 . S
C139 C140 1.372 . S
C140 H118 0.950 . S
C140 C139 1.372 . S
C140 C141 1.379 . S
C141 H119 0.948 . S
C141 C136 1.364 . S
C141 C140 1.379 . S
C142 C111 1.383 . S
C142 C129 1.479 . S
C142 C143 1.398 . S
C143 C108 1.382 . S
C143 H120 0.951 . S
C143 C142 1.398 . S
C144 C145 1.384 1_545 S
C144 H157 0.947 . S
C144 C179 1.382 1_545 S
C145 C144 1.384 1_565 S
C145 C146 1.378 . S
C146 C145 1.378 . S
C146 C147 1.378 . S
C146 H158 0.952 1_556 S
C147 C146 1.378 . S
C147 H159 0.950 . S
C147 C178 1.383 . S
H148 C167 0.947 . S
H149 C168 0.946 1_554 S
H150 C170 0.953 1_455 S
H151 C171 0.945 . S
H152 C173 0.952 . S
H153 C174 0.965 . S
H154 C176 0.950 . S
H155 C177 0.948 1_545 S
H156 C179 0.951 . S
H157 C144 0.947 . S
H158 C146 0.952 1_554 S
H159 C147 0.950 . S
N160 C163 1.382 . S
N160 C165 1.363 . S
N161 C163 1.371 . S
N161 C164 1.372 . S
N162 C164 1.361 . S
N162 C165 1.377 . S
C163 N160 1.382 . S
C163 N161 1.371 . S
C163 C166 1.480 . S
C164 N161 1.372 . S
C164 N162 1.361 . S
C164 C172 1.457 . S
C165 N160 1.363 . S
C165 N162 1.377 . S
C165 C178 1.479 . S
C166 C163 1.480 . S
C166 C167 1.383 . S
C166 C171 1.385 . S
C167 H148 0.947 . S
C167 C166 1.383 . S
C167 C168 1.388 . S
C168 H149 0.946 1_556 S
C168 C167 1.388 . S
C168 C169 1.384 . S
C169 C168 1.384 . S
C169 C170 1.377 . S
C170 H150 0.953 1_655 S
C170 C169 1.377 . S
C170 C171 1.369 . S
C171 H151 0.945 . S
C171 C166 1.385 . S
C171 C170 1.369 . S
C172 C164 1.457 . S
C172 C173 1.372 . S
C172 C177 1.364 . S
C173 H152 0.952 . S
C173 C172 1.372 . S
C173 C174 1.389 . S
C174 H153 0.965 . S
C174 C173 1.389 . S
C174 C175 1.387 . S
C175 C174 1.387 . S
C175 C176 1.372 1_565 S
C176 H154 0.950 . S
C176 C175 1.372 1_545 S
C176 C177 1.379 1_545 S
C177 H155 0.948 1_565 S
C177 C172 1.364 . S
C177 C176 1.379 1_565 S
C178 C147 1.383 . S
C178 C165 1.479 . S
C178 C179 1.398 . S
C179 C144 1.382 1_565 S
C179 H156 0.951 . S
C179 C178 1.398 . S
C180 C181 1.384 . S
C180 H193 0.947 1_545 S
C180 C215 1.382 . S
C181 C180 1.384 . S
C181 C182 1.378 . S
C182 C181 1.378 . S
C182 C183 1.378 . S
C182 H194 0.952 . S
C183 C182 1.378 . S
C183 H195 0.950 . S
C183 C214 1.383 . S
H184 C203 0.947 . S
H185 C204 0.946 . S
H186 C206 0.953 . S
H187 C207 0.945 . S
H188 C209 0.952 . S
H189 C210 0.949 . S
H190 C212 0.950 1_565 S
H191 C213 0.948 . S
H192 C215 0.951 . S
H193 C180 0.947 1_565 S
H194 C182 0.952 . S
H195 C183 0.950 . S
N196 C199 1.382 . S
N196 C201 1.363 . S
N197 C199 1.371 . S
N197 C200 1.372 . S
N198 C200 1.361 . S
N198 C201 1.377 . S
C199 N196 1.382 . S
C199 N197 1.371 . S
C199 C202 1.480 . S
C200 N197 1.372 . S
C200 N198 1.361 . S
C200 C208 1.457 . S
C201 N196 1.363 . S
C201 N198 1.377 . S
C201 C214 1.479 . S
C202 C199 1.480 . S
C202 C203 1.383 . S
C202 C207 1.385 . S
C203 H184 0.947 . S
C203 C202 1.383 . S
C203 C204 1.388 . S
C204 H185 0.946 . S
C204 C203 1.388 . S
C204 C205 1.384 . S
C205 C204 1.384 . S
C205 C206 1.377 . S
C206 H186 0.953 . S
C206 C205 1.377 . S
C206 C207 1.369 . S
C207 H187 0.945 . S
C207 C202 1.385 . S
C207 C206 1.369 . S
C208 C200 1.457 . S
C208 C209 1.372 . S
C208 C213 1.364 . S
C209 H188 0.952 . S
C209 C208 1.372 . S
C209 C210 1.389 . S
C210 H189 0.949 . S
C210 C209 1.389 . S
C210 C211 1.387 . S
C211 C210 1.387 . S
C211 C212 1.372 . S
C212 H190 0.950 1_545 S
C212 C211 1.372 . S
C212 C213 1.379 . S
C213 H191 0.948 . S
C213 C208 1.364 . S
C213 C212 1.379 . S
C214 C183 1.383 . S
C214 C201 1.479 . S
C214 C215 1.398 . S
C215 C180 1.382 . S
C215 H192 0.951 . S
C215 C214 1.398 . S
C216 C217 1.384 . S
C216 H229 0.947 . S
C216 C251 1.382 . S
C217 C216 1.384 . S
C217 C218 1.378 . S
C218 C217 1.378 . S
C218 C219 1.378 . S
C218 H230 0.952 . S
C219 C218 1.378 . S
C219 H231 0.950 . S
C219 C250 1.383 . S
H220 C239 0.947 . S
H221 C240 0.946 . S
H222 C242 0.953 . S
H223 C243 0.945 . S
H224 C245 0.952 . S
H225 C246 0.949 . S
H226 C248 0.950 . S
H227 C249 0.948 . S
H228 C251 0.951 . S
H229 C216 0.947 . S
H230 C218 0.952 . S
H231 C219 0.950 . S
N232 C235 1.382 . S
N232 C237 1.363 . S
N233 C235 1.371 . S
N233 C236 1.372 . S
N234 C236 1.361 . S
N234 C237 1.377 . S
C235 N232 1.382 . S
C235 N233 1.371 . S
C235 C238 1.480 . S
C236 N233 1.372 . S
C236 N234 1.361 . S
C236 C244 1.457 . S
C237 N232 1.363 . S
C237 N234 1.377 . S
C237 C250 1.479 . S
C238 C235 1.480 . S
C238 C239 1.383 . S
C238 C243 1.385 . S
C239 H220 0.947 . S
C239 C238 1.383 . S
C239 C240 1.388 . S
C240 H221 0.946 . S
C240 C239 1.388 . S
C240 C241 1.384 . S
C241 C240 1.384 . S
C241 C242 1.377 . S
C242 H222 0.953 . S
C242 C241 1.377 . S
C242 C243 1.369 . S
C243 H223 0.945 . S
C243 C238 1.385 . S
C243 C242 1.369 . S
C244 C236 1.457 . S
C244 C245 1.372 . S
C244 C249 1.364 . S
C245 H224 0.952 . S
C245 C244 1.372 . S
C245 C246 1.389 . S
C246 H225 0.949 . S
C246 C245 1.389 . S
C246 C247 1.387 . S
C247 C246 1.387 . S
C247 C248 1.372 . S
C248 H226 0.950 . S
C248 C247 1.372 . S
C248 C249 1.379 . S
C249 H227 0.948 . S
C249 C244 1.364 . S
C249 C248 1.379 . S
C250 C219 1.383 . S
C250 C237 1.479 . S
C250 C251 1.398 . S
C251 C216 1.382 . S
C251 H228 0.951 . S
C251 C250 1.398 . S
C252 C253 1.384 . S
C252 H265 0.947 . S
C252 C287 1.382 . S
C253 C252 1.384 . S
C253 C254 1.378 . S
C254 C253 1.378 . S
C254 C255 1.378 . S
C254 H266 0.952 . S
C255 C254 1.378 . S
C255 H267 0.950 . S
C255 C286 1.383 . S
H256 C275 0.947 . S
H257 C276 0.946 . S
H258 C278 0.953 . S
H259 C279 0.945 . S
H260 C281 0.952 . S
H261 C282 0.949 . S
H262 C284 0.950 . S
H263 C285 0.948 . S
H264 C287 0.951 . S
H265 C252 0.947 . S
H266 C254 0.952 . S
H267 C255 0.950 . S
N268 C271 1.382 . S
N268 C273 1.363 . S
N269 C271 1.371 . S
N269 C272 1.372 . S
N270 C272 1.361 . S
N270 C273 1.377 . S
C271 N268 1.382 . S
C271 N269 1.371 . S
C271 C274 1.480 . S
C272 N269 1.372 . S
C272 N270 1.361 . S
C272 C280 1.457 . S
C273 N268 1.363 . S
C273 N270 1.377 . S
C273 C286 1.479 . S
C274 C271 1.480 . S
C274 C275 1.383 . S
C274 C279 1.385 . S
C275 H256 0.947 . S
C275 C274 1.383 . S
C275 C276 1.388 . S
C276 H257 0.946 . S
C276 C275 1.388 . S
C276 C277 1.384 . S
C277 C276 1.384 . S
C277 C278 1.377 . S
C278 H258 0.953 . S
C278 C277 1.377 . S
C278 C279 1.369 . S
C279 H259 0.945 . S
C279 C274 1.385 . S
C279 C278 1.369 . S
C280 C272 1.457 . S
C280 C281 1.372 . S
C280 C285 1.364 . S
C281 H260 0.952 . S
C281 C280 1.372 . S
C281 C282 1.389 . S
C282 H261 0.949 . S
C282 C281 1.389 . S
C282 C283 1.387 . S
C283 C282 1.387 . S
C283 C284 1.372 . S
C284 H262 0.950 . S
C284 C283 1.372 . S
C284 C285 1.379 . S
C285 H263 0.948 . S
C285 C280 1.364 . S
C285 C284 1.379 . S
C286 C255 1.383 . S
C286 C273 1.479 . S
C286 C287 1.398 . S
C287 C252 1.382 . S
C287 H264 0.951 . S
C287 C286 1.398 . S
O288 Zn289 1.953 . S
O288 C304 1.225 1_655 S
Zn289 O288 1.953 . S
Zn289 O290 1.949 1_655 S
Zn289 O296 1.919 . S
Zn289 O301 1.924 . S
O290 Zn289 1.949 1_455 S
O290 Zn291 1.923 1_445 S
O290 Zn292 1.950 . S
O290 Zn293 1.945 1_545 S
Zn291 O290 1.923 1_665 S
Zn291 O294 1.933 . S
Zn291 O297 1.941 1_565 S
Zn291 O298 1.965 1_665 S
Zn292 O290 1.950 . S
Zn292 O299 1.938 . S
Zn292 O300 1.906 1_545 S
Zn292 O310 1.953 . S
Zn293 O290 1.945 1_565 S
Zn293 O295 1.932 1_455 S
Zn293 O302 1.977 . S
Zn293 O303 1.910 1_455 S
O294 Zn291 1.933 . S
O294 C305 1.226 . S
O295 Zn293 1.932 1_655 S
O295 C305 1.307 . S
O296 Zn289 1.919 . S
O296 C307 1.253 . S
O297 Zn291 1.941 1_545 S
O297 C307 1.283 . S
O298 Zn291 1.965 1_445 S
O298 C306 1.303 . S
O299 Zn292 1.938 . S
O299 C306 1.247 . S
O300 Zn292 1.906 1_565 S
O300 C308 1.304 . S
O301 Zn289 1.924 . S
O301 C309 1.311 1_545 S
O302 Zn293 1.977 . S
O302 C308 1.272 . S
O303 Zn293 1.910 1_655 S
O303 C309 1.231 . S
C304 O288 1.225 1_455 S
C304 O310 1.298 . S
C305 O294 1.226 . S
C305 O295 1.307 . S
C306 O298 1.303 . S
C306 O299 1.247 . S
C307 O296 1.253 . S
C307 O297 1.283 . S
C308 O300 1.304 . S
C308 O302 1.272 . S
C309 O301 1.311 1_565 S
C309 O303 1.231 . S
O310 Zn292 1.953 . S
O310 C304 1.298 . S
O311 Zn312 1.953 . S
O311 C327 1.225 . S
Zn312 O311 1.953 . S
Zn312 O313 1.949 1_556 S
Zn312 O319 1.919 . S
Zn312 O324 1.924 1_556 S
O313 Zn312 1.949 1_554 S
O313 Zn314 1.923 1_544 S
O313 Zn315 1.950 . S
O313 Zn316 1.945 1_545 S
Zn314 O313 1.923 1_566 S
Zn314 O317 1.933 1_556 S
Zn314 O320 1.941 . S
Zn314 O321 1.965 . S
Zn315 O313 1.950 . S
Zn315 O322 1.938 . S
Zn315 O323 1.906 . S
Zn315 O333 1.953 . S
Zn316 O313 1.945 1_565 S
Zn316 O318 1.932 . S
Zn316 O325 1.977 1_565 S
Zn316 O326 1.910 1_565 S
O317 Zn314 1.933 1_554 S
O317 C328 1.226 . S
O318 Zn316 1.932 . S
O318 C328 1.307 . S
O319 Zn312 1.919 . S
O319 C330 1.253 1_545 S
O320 Zn314 1.941 . S
O320 C330 1.283 . S
O321 Zn314 1.965 . S
O321 C329 1.303 . S
O322 Zn315 1.938 . S
O322 C329 1.247 1_544 S
O323 Zn315 1.906 . S
O323 C331 1.304 . S
O324 Zn312 1.924 1_554 S
O324 C332 1.311 . S
O325 Zn316 1.977 1_545 S
O325 C331 1.272 . S
O326 Zn316 1.910 1_545 S
O326 C332 1.231 . S
C327 O311 1.225 . S
C327 O333 1.298 1_556 S
C328 O317 1.226 . S
C328 O318 1.307 . S
C329 O321 1.303 . S
C329 O322 1.247 1_566 S
C330 O319 1.253 1_565 S
C330 O320 1.283 . S
C331 O323 1.304 . S
C331 O325 1.272 . S
C332 O324 1.311 . S
C332 O326 1.231 . S
O333 Zn315 1.953 . S
O333 C327 1.298 1_554 S
O334 Zn335 1.953 . S
O334 C350 1.225 . S
Zn335 O334 1.953 . S
Zn335 O336 1.949 . S
Zn335 O342 1.919 . S
Zn335 O347 1.924 . S
O336 Zn335 1.949 . S
O336 Zn337 1.923 . S
O336 Zn338 1.950 . S
O336 Zn339 1.945 . S
Zn337 O336 1.923 . S
Zn337 O340 1.933 . S
Zn337 O343 1.941 . S
Zn337 O344 1.965 . S
Zn338 O336 1.950 . S
Zn338 O345 1.938 . S
Zn338 O346 1.906 . S
Zn338 O356 1.953 . S
Zn339 O336 1.945 . S
Zn339 O341 1.932 . S
Zn339 O348 1.977 . S
Zn339 O349 1.910 . S
O340 Zn337 1.933 . S
O340 C351 1.226 . S
O341 Zn339 1.932 . S
O341 C351 1.307 . S
O342 Zn335 1.919 . S
O342 C353 1.253 . S
O343 Zn337 1.941 . S
O343 C353 1.283 . S
O344 Zn337 1.965 . S
O344 C352 1.303 . S
O345 Zn338 1.938 . S
O345 C352 1.247 . S
O346 Zn338 1.906 . S
O346 C354 1.304 . S
O347 Zn335 1.924 . S
O347 C355 1.311 . S
O348 Zn339 1.977 . S
O348 C354 1.272 . S
O349 Zn339 1.910 . S
O349 C355 1.231 . S
C350 O334 1.225 . S
C350 O356 1.298 . S
C351 O340 1.226 . S
C351 O341 1.307 . S
C352 O344 1.303 . S
C352 O345 1.247 . S
C353 O342 1.253 . S
C353 O343 1.283 . S
C354 O346 1.304 . S
C354 O348 1.272 . S
C355 O347 1.311 . S
C355 O349 1.231 . S
O356 Zn338 1.953 . S
O356 C350 1.298 . S
O357 Zn358 1.953 . S
O357 C373 1.225 . S
Zn358 O357 1.953 . S
Zn358 O359 1.949 1_655 S
Zn358 O365 1.919 . S
Zn358 O370 1.924 . S
O359 Zn358 1.949 1_455 S
O359 Zn360 1.923 1_454 S
O359 Zn361 1.950 . S
O359 Zn362 1.945 1_554 S
Zn360 O359 1.923 1_656 S
Zn360 O363 1.933 1_655 S
Zn360 O366 1.941 . S
Zn360 O367 1.965 . S
Zn361 O359 1.950 . S
Zn361 O368 1.938 . S
Zn361 O369 1.906 . S
Zn361 O379 1.953 . S
Zn362 O359 1.945 1_556 S
Zn362 O364 1.932 . S
Zn362 O371 1.977 1_556 S
Zn362 O372 1.910 1_556 S
O363 Zn360 1.933 1_455 S
O363 C374 1.226 . S
O364 Zn362 1.932 . S
O364 C374 1.307 . S
O365 Zn358 1.919 . S
O365 C376 1.253 1_554 S
O366 Zn360 1.941 . S
O366 C376 1.283 . S
O367 Zn360 1.965 . S
O367 C375 1.303 . S
O368 Zn361 1.938 . S
O368 C375 1.247 1_454 S
O369 Zn361 1.906 . S
O369 C377 1.304 . S
O370 Zn358 1.924 . S
O370 C378 1.311 1_655 S
O371 Zn362 1.977 1_554 S
O371 C377 1.272 . S
O372 Zn362 1.910 1_554 S
O372 C378 1.231 . S
C373 O357 1.225 . S
C373 O379 1.298 1_655 S
C374 O363 1.226 . S
C374 O364 1.307 . S
C375 O367 1.303 . S
C375 O368 1.247 1_656 S
C376 O365 1.253 1_556 S
C376 O366 1.283 . S
C377 O369 1.304 . S
C377 O371 1.272 . S
C378 O370 1.311 1_455 S
C378 O372 1.231 . S
O379 Zn361 1.953 . S
O379 C373 1.298 1_455 S
C380 C381 1.387 . S
C380 H384 0.950 . S
C380 C389 1.390 . S
C381 C380 1.387 . S
C381 C383 1.387 . S
H382 C389 0.950 . S
C383 C381 1.387 . S
C383 C385 1.390 . S
C383 H387 0.950 . S
H384 C380 0.950 . S
C385 C383 1.390 . S
C385 C386 1.387 . S
C385 H388 0.950 . S
C386 C385 1.387 . S
C386 C389 1.387 . S
H387 C383 0.950 . S
H388 C385 0.950 . S
C389 C380 1.390 . S
C389 H382 0.950 . S
C389 C386 1.387 . S
C390 C391 1.387 . S
C390 H394 0.950 . S
C390 C399 1.390 . S
C391 C390 1.387 . S
C391 C393 1.387 . S
H392 C399 0.950 . S
C393 C391 1.387 . S
C393 C395 1.390 . S
C393 H397 0.950 . S
H394 C390 0.950 . S
C395 C393 1.390 . S
C395 C396 1.387 . S
C395 H398 0.950 1_565 S
C396 C395 1.387 . S
C396 C399 1.387 . S
H397 C393 0.950 . S
H398 C395 0.950 1_545 S
C399 C390 1.390 . S
C399 H392 0.950 . S
C399 C396 1.387 . S
C400 C401 1.387 . S
C400 H404 0.950 . S
C400 C409 1.390 . S
C401 C400 1.387 . S
C401 C403 1.387 . S
H402 C409 0.950 . S
C403 C401 1.387 . S
C403 C405 1.390 . S
C403 H407 0.950 . S
H404 C400 0.950 . S
C405 C403 1.390 . S
C405 C406 1.387 . S
C405 H408 0.950 . S
C406 C405 1.387 . S
C406 C409 1.387 . S
H407 C403 0.950 . S
H408 C405 0.950 . S
C409 C400 1.390 . S
C409 H402 0.950 . S
C409 C406 1.387 . S
C410 C411 1.387 . S
C410 H414 0.950 . S
C410 C419 1.390 . S
C411 C410 1.387 . S
C411 C413 1.387 . S
H412 C419 0.950 . S
C413 C411 1.387 . S
C413 C415 1.390 . S
C413 H417 0.950 . S
H414 C410 0.950 . S
C415 C413 1.390 . S
C415 C416 1.387 . S
C415 H418 0.950 . S
C416 C415 1.387 . S
C416 C419 1.387 . S
H417 C413 0.950 . S
H418 C415 0.950 . S
C419 C410 1.390 . S
C419 H412 0.950 . S
C419 C416 1.387 . S
C420 C421 1.387 . S
C420 H424 0.950 . S
C420 C429 1.390 . S
C421 C420 1.387 . S
C421 C423 1.387 . S
H422 C429 0.950 1_556 S
C423 C421 1.387 . S
C423 C425 1.390 . S
C423 H427 0.950 . S
H424 C420 0.950 . S
C425 C423 1.390 . S
C425 C426 1.387 . S
C425 H428 0.950 . S
C426 C425 1.387 . S
C426 C429 1.387 . S
H427 C423 0.950 . S
H428 C425 0.950 . S
C429 C420 1.390 . S
C429 H422 0.950 1_554 S
C429 C426 1.387 . S
C430 C431 1.387 . S
C430 H434 0.950 . S
C430 C439 1.390 . S
C431 C430 1.387 . S
C431 C433 1.387 . S
H432 C439 0.950 . S
C433 C431 1.387 . S
C433 C435 1.390 . S
C433 H437 0.950 . S
H434 C430 0.950 . S
C435 C433 1.390 . S
C435 C436 1.387 . S
C435 H438 0.950 1_565 S
C436 C435 1.387 . S
C436 C439 1.387 . S
H437 C433 0.950 . S
H438 C435 0.950 1_545 S
C439 C430 1.390 . S
C439 H432 0.950 . S
C439 C436 1.387 . S
C440 C441 1.387 . S
C440 H444 0.950 . S
C440 C449 1.390 . S
C441 C440 1.387 . S
C441 C443 1.387 . S
H442 C449 0.950 . S
C443 C441 1.387 . S
C443 C445 1.390 . S
C443 H447 0.950 1_556 S
H444 C440 0.950 . S
C445 C443 1.390 . S
C445 C446 1.387 . S
C445 H448 0.950 1_556 S
C446 C445 1.387 . S
C446 C449 1.387 . S
H447 C443 0.950 1_554 S
H448 C445 0.950 1_554 S
C449 C440 1.390 . S
C449 H442 0.950 . S
C449 C446 1.387 . S
C450 C451 1.387 . S
C450 H454 0.950 . S
C450 C459 1.390 . S
C451 C450 1.387 . S
C451 C453 1.387 . S
H452 C459 0.950 . S
C453 C451 1.387 . S
C453 C455 1.390 . S
C453 H457 0.950 . S
H454 C450 0.950 . S
C455 C453 1.390 . S
C455 C456 1.387 . S
C455 H458 0.950 . S
C456 C455 1.387 . S
C456 C459 1.387 . S
H457 C453 0.950 . S
H458 C455 0.950 . S
C459 C450 1.390 . S
C459 H452 0.950 . S
C459 C456 1.387 . S
C460 C461 1.387 . S
C460 H464 0.950 . S
C460 C469 1.390 . S
C461 C460 1.387 . S
C461 C463 1.387 . S
H462 C469 0.950 . S
C463 C461 1.387 . S
C463 C465 1.390 . S
C463 H467 0.950 . S
H464 C460 0.950 . S
C465 C463 1.390 . S
C465 C466 1.387 . S
C465 H468 0.950 . S
C466 C465 1.387 . S
C466 C469 1.387 . S
H467 C463 0.950 . S
H468 C465 0.950 . S
C469 C460 1.390 . S
C469 H462 0.950 . S
C469 C466 1.387 . S
C470 C471 1.387 . S
C470 H474 0.950 . S
C470 C479 1.390 . S
C471 C470 1.387 . S
C471 C473 1.402 . S
H472 C479 0.950 . S
C473 C471 1.402 . S
C473 C475 1.388 1_556 S
C473 H477 0.938 1_556 S
H474 C470 0.950 . S
C475 C473 1.388 1_554 S
C475 C476 1.387 1_554 S
C475 H478 0.950 . S
C476 C475 1.387 1_556 S
C476 C479 1.387 . S
H477 C473 0.938 1_554 S
H478 C475 0.950 . S
C479 C470 1.390 . S
C479 H472 0.950 . S
C479 C476 1.387 . S
C480 C481 1.387 . S
C480 H484 0.950 . S
C480 C489 1.390 . S
C481 C480 1.387 . S
C481 C483 1.387 . S
H482 C489 0.950 . S
C483 C481 1.387 . S
C483 C485 1.390 . S
C483 H487 0.950 . S
H484 C480 0.950 . S
C485 C483 1.390 . S
C485 C486 1.387 . S
C485 H488 0.950 . S
C486 C485 1.387 . S
C486 C489 1.387 . S
H487 C483 0.950 . S
H488 C485 0.950 . S
C489 C480 1.390 . S
C489 H482 0.950 . S
C489 C486 1.387 . S
C490 C491 1.387 . S
C490 H494 0.950 . S
C490 C499 1.390 . S
C491 C490 1.387 . S
C491 C493 1.387 . S
H492 C499 0.950 . S
C493 C491 1.387 . S
C493 C495 1.390 . S
C493 H497 0.950 . S
H494 C490 0.950 . S
C495 C493 1.390 . S
C495 C496 1.387 . S
C495 H498 0.950 . S
C496 C495 1.387 . S
C496 C499 1.387 . S
H497 C493 0.950 . S
H498 C495 0.950 . S
C499 C490 1.390 . S
C499 H492 0.950 . S
C499 C496 1.387 . S
C500 C501 1.398 . S
C500 H504 0.950 . S
C500 C509 1.390 . S
C501 C500 1.398 . S
C501 C503 1.377 1_565 S
H502 C509 0.950 . S
C503 C501 1.377 1_545 S
C503 C505 1.390 . S
C503 H507 0.950 . S
H504 C500 0.950 . S
C505 C503 1.390 . S
C505 C506 1.382 1_545 S
C505 H508 0.950 . S
C506 C505 1.382 1_565 S
C506 C509 1.393 . S
H507 C503 0.950 . S
H508 C505 0.950 . S
C509 C500 1.390 . S
C509 H502 0.950 . S
C509 C506 1.393 . S
C510 C511 1.387 1_565 S
C510 H514 0.950 . S
C510 C519 1.390 . S
C511 C510 1.387 1_545 S
C511 C513 1.387 . S
H512 C519 0.950 . S
C513 C511 1.387 . S
C513 C515 1.390 . S
C513 H517 0.950 . S
H514 C510 0.950 . S
C515 C513 1.390 . S
C515 C516 1.387 . S
C515 H518 0.950 . S
C516 C515 1.387 . S
C516 C519 1.387 1_545 S
H517 C513 0.950 . S
H518 C515 0.950 . S
C519 C510 1.390 . S
C519 H512 0.950 . S
C519 C516 1.387 1_565 S
C520 C521 1.387 . S
C520 H524 0.950 . S
C520 C529 1.390 . S
C521 C520 1.387 . S
C521 C523 1.387 . S
H522 C529 0.950 . S
C523 C521 1.387 . S
C523 C525 1.390 . S
C523 H527 0.950 . S
H524 C520 0.950 . S
C525 C523 1.390 . S
C525 C526 1.387 . S
C525 H528 0.950 . S
C526 C525 1.387 . S
C526 C529 1.387 . S
H527 C523 0.950 . S
H528 C525 0.950 . S
C529 C520 1.390 . S
C529 H522 0.950 . S
C529 C526 1.387 . S
C530 C531 1.387 . S
C530 H534 0.950 1_455 S
C530 C539 1.390 . S
C531 C530 1.387 . S
C531 C533 1.387 . S
H532 C539 0.950 1_655 S
C533 C531 1.387 . S
C533 C535 1.390 . S
C533 H537 0.950 . S
H534 C530 0.950 1_655 S
C535 C533 1.390 . S
C535 C536 1.387 . S
C535 H538 0.950 . S
C536 C535 1.387 . S
C536 C539 1.387 . S
H537 C533 0.950 . S
H538 C535 0.950 . S
C539 C530 1.390 . S
C539 H532 0.950 1_455 S
C539 C536 1.387 . S
C540 C541 1.387 1_544 S
C540 H544 0.950 . S
C540 C549 1.390 . S
C541 C540 1.387 1_566 S
C541 C543 1.387 . S
H542 C549 0.950 . S
C543 C541 1.387 . S
C543 C545 1.390 . S
C543 H547 0.950 . S
H544 C540 0.950 . S
C545 C543 1.390 . S
C545 C546 1.387 . S
C545 H548 0.950 . S
C546 C545 1.387 . S
C546 C549 1.387 1_566 S
H547 C543 0.950 . S
H548 C545 0.950 . S
C549 C540 1.390 . S
C549 H542 0.950 . S
C549 C546 1.387 1_544 S
C550 C551 1.387 1_565 S
C550 H554 0.950 . S
C550 C559 1.390 . S
C551 C550 1.387 1_545 S
C551 C553 1.387 . S
H552 C559 0.950 . S
C553 C551 1.387 . S
C553 C555 1.390 . S
C553 H557 0.950 . S
H554 C550 0.950 . S
C555 C553 1.390 . S
C555 C556 1.387 . S
C555 H558 0.950 . S
C556 C555 1.387 . S
C556 C559 1.387 1_545 S
H557 C553 0.950 . S
H558 C555 0.950 . S
C559 C550 1.390 . S
C559 H552 0.950 . S
C559 C556 1.387 1_565 S
C560 C561 1.387 . S
C560 H564 0.950 . S
C560 C569 1.390 . S
C561 C560 1.387 . S
C561 C563 1.387 . S
H562 C569 0.950 . S
C563 C561 1.387 . S
C563 C565 1.390 . S
C563 H567 0.950 . S
H564 C560 0.950 . S
C565 C563 1.390 . S
C565 C566 1.387 . S
C565 H568 0.950 1_554 S
C566 C565 1.387 . S
C566 C569 1.387 . S
H567 C563 0.950 . S
H568 C565 0.950 1_556 S
C569 C560 1.390 . S
C569 H562 0.950 . S
C569 C566 1.387 . S
C570 C571 1.387 . S
C570 H574 0.950 . S
C570 C579 1.390 . S
C571 C570 1.387 . S
C571 C573 1.387 . S
H572 C579 0.950 . S
C573 C571 1.387 . S
C573 C575 1.390 . S
C573 H577 0.950 . S
H574 C570 0.950 . S
C575 C573 1.390 . S
C575 C576 1.387 . S
C575 H578 0.950 . S
C576 C575 1.387 . S
C576 C579 1.387 . S
H577 C573 0.950 . S
H578 C575 0.950 . S
C579 C570 1.390 . S
C579 H572 0.950 . S
C579 C576 1.387 . S
C580 C581 1.387 1_554 S
C580 H584 0.950 . S
C580 C589 1.390 . S
C581 C580 1.387 1_556 S
C581 C583 1.387 . S
H582 C589 0.950 . S
C583 C581 1.387 . S
C583 C585 1.390 . S
C583 H587 0.950 . S
H584 C580 0.950 . S
C585 C583 1.390 . S
C585 C586 1.387 . S
C585 H588 0.950 . S
C586 C585 1.387 . S
C586 C589 1.387 1_556 S
H587 C583 0.950 . S
H588 C585 0.950 . S
C589 C580 1.390 . S
C589 H582 0.950 . S
C589 C586 1.387 1_554 S
C590 C591 1.387 . S
C590 H594 0.950 . S
C590 C599 1.390 . S
C591 C590 1.387 . S
C591 C593 1.387 . S
H592 C599 0.950 . S
C593 C591 1.387 . S
C593 C595 1.390 . S
C593 H597 0.950 . S
H594 C590 0.950 . S
C595 C593 1.390 . S
C595 C596 1.387 . S
C595 H598 0.950 . S
C596 C595 1.387 . S
C596 C599 1.387 . S
H597 C593 0.950 . S
H598 C595 0.950 . S
C599 C590 1.390 . S
C599 H592 0.950 . S
C599 C596 1.387 . S
C600 C601 1.387 . S
C600 H604 0.950 1_455 S
C600 C609 1.390 . S
C601 C600 1.387 . S
C601 C603 1.387 . S
H602 C609 0.950 1_655 S
C603 C601 1.387 . S
C603 C605 1.390 . S
C603 H607 0.950 . S
H604 C600 0.950 1_655 S
C605 C603 1.390 . S
C605 C606 1.387 . S
C605 H608 0.950 . S
C606 C605 1.387 . S
C606 C609 1.387 . S
H607 C603 0.950 . S
H608 C605 0.950 . S
C609 C600 1.390 . S
C609 H602 0.950 1_455 S
C609 C606 1.387 . S
C610 C611 1.387 . S
C610 H614 0.950 . S
C610 C619 1.390 . S
C611 C610 1.387 . S
C611 C613 1.387 . S
H612 C619 0.950 . S
C613 C611 1.387 . S
C613 C615 1.390 . S
C613 H617 0.950 . S
H614 C610 0.950 . S
C615 C613 1.390 . S
C615 C616 1.387 . S
C615 H618 0.950 . S
C616 C615 1.387 . S
C616 C619 1.387 . S
H617 C613 0.950 . S
H618 C615 0.950 . S
C619 C610 1.390 . S
C619 H612 0.950 . S
C619 C616 1.387 . S
C381 C1 1.584 . S
C386 C306 1.594 . S
C391 C67 1.584 . S
C396 C330 1.569 . S
C406 C350 1.487 . S
C401 C97 1.433 . S
C411 C133 1.507 . S
C416 C373 1.514 . S
C426 C332 1.639 . S
C421 C25 1.668 . S
C436 C308 1.631 . S
C431 C37 1.663 . S
C446 C376 1.594 . S
C441 C103 1.620 . S
C456 C353 1.580 . S
C451 C109 1.655 . S
C461 C31 1.436 . S
C466 C378 1.407 . S
C476 C327 1.649 . S
C471 C73 1.603 . S
C481 C139 1.649 . S
C486 C305 1.657 . S
C491 C61 1.418 . S
C496 C355 1.393 . S
C506 C309 1.780 . S
C501 C175 1.741 . S
C511 C181 1.640 . S
C516 C331 1.710 . S
C521 C247 1.818 . S
C526 C351 1.833 . S
C531 C277 1.814 . S
C536 C374 1.830 . S
C541 C145 1.689 . S
C546 C329 1.662 . S
C556 C307 1.745 . S
C551 C211 1.621 . S
C566 C377 1.568 . S
C561 C217 1.590 . S
C576 C354 1.613 . S
C571 C283 1.641 . S
C581 C169 1.938 . S
C586 C375 1.888 . S
C596 C328 1.677 . S
C591 C241 1.666 . S
C606 C304 1.689 . S
C601 C253 1.669 . S
C611 C205 1.836 . S
C616 C352 1.872 . S
