# Generated by pormake.
# Topology eea, (3,6)-cn, num edge types: 1
# Building blocks:
#     Node 0, Type 0, BuildingBlock: PAMTOO_clean_linker_0, # of connection points: 3
#     Node 1, Type 0, BuildingBlock: PAMTOO_clean_linker_0, # of connection points: 3
#     Node 2, Type 0, BuildingBlock: PAMTOO_clean_linker_0, # of connection points: 3
#     Node 3, Type 0, BuildingBlock: PAMTOO_clean_linker_0, # of connection points: 3
#     Node 4, Type 0, BuildingBlock: PAMTOO_clean_linker_0, # of connection points: 3
#     Node 5, Type 0, BuildingBlock: PAMTOO_clean_linker_0, # of connection points: 3
#     Node 6, Type 0, BuildingBlock: PAMTOO_clean_linker_0, # of connection points: 3
#     Node 7, Type 0, BuildingBlock: PAMTOO_clean_linker_0, # of connection points: 3
#     Node 8, Type 0, BuildingBlock: PAMTOO_clean_linker_0, # of connection points: 3
#     Node 9, Type 0, BuildingBlock: PAMTOO_clean_linker_0, # of connection points: 3
#     Node 10, Type 0, BuildingBlock: PAMTOO_clean_linker_0, # of connection points: 3
#     Node 11, Type 0, BuildingBlock: PAMTOO_clean_linker_0, # of connection points: 3
#     Node 12, Type 0, BuildingBlock: PAMTOO_clean_linker_0, # of connection points: 3
#     Node 13, Type 0, BuildingBlock: PAMTOO_clean_linker_0, # of connection points: 3
#     Node 14, Type 0, BuildingBlock: PAMTOO_clean_linker_0, # of connection points: 3
#     Node 15, Type 0, BuildingBlock: PAMTOO_clean_linker_0, # of connection points: 3
#     Node 16, Type 0, BuildingBlock: PAMTOO_clean_linker_0, # of connection points: 3
#     Node 17, Type 0, BuildingBlock: PAMTOO_clean_linker_0, # of connection points: 3
#     Node 18, Type 1, BuildingBlock: KUMJIN_clean_sbu_0, # of connection points: 6
#     Node 19, Type 1, BuildingBlock: KUMJIN_clean_sbu_0, # of connection points: 6
#     Node 20, Type 1, BuildingBlock: KUMJIN_clean_sbu_0, # of connection points: 6
#     Node 21, Type 1, BuildingBlock: KUMJIN_clean_sbu_0, # of connection points: 6
#     Node 22, Type 1, BuildingBlock: KUMJIN_clean_sbu_0, # of connection points: 6
#     Node 23, Type 1, BuildingBlock: KUMJIN_clean_sbu_0, # of connection points: 6
#     Node 24, Type 1, BuildingBlock: KUMJIN_clean_sbu_0, # of connection points: 6
#     Node 25, Type 1, BuildingBlock: KUMJIN_clean_sbu_0, # of connection points: 6
#     Node 26, Type 1, BuildingBlock: KUMJIN_clean_sbu_0, # of connection points: 6
#     Edge 27, Type (0, 1), BuildingBlock: OJICUG_clean_linker_0, # of connection points: 2
#     Edge 28, Type (0, 1), BuildingBlock: OJICUG_clean_linker_0, # of connection points: 2
#     Edge 29, Type (0, 1), BuildingBlock: OJICUG_clean_linker_0, # of connection points: 2
#     Edge 30, Type (0, 1), BuildingBlock: OJICUG_clean_linker_0, # of connection points: 2
#     Edge 31, Type (0, 1), BuildingBlock: OJICUG_clean_linker_0, # of connection points: 2
#     Edge 32, Type (0, 1), BuildingBlock: OJICUG_clean_linker_0, # of connection points: 2
#     Edge 33, Type (0, 1), BuildingBlock: OJICUG_clean_linker_0, # of connection points: 2
#     Edge 34, Type (0, 1), BuildingBlock: OJICUG_clean_linker_0, # of connection points: 2
#     Edge 35, Type (0, 1), BuildingBlock: OJICUG_clean_linker_0, # of connection points: 2
#     Edge 36, Type (0, 1), BuildingBlock: OJICUG_clean_linker_0, # of connection points: 2
#     Edge 37, Type (0, 1), BuildingBlock: OJICUG_clean_linker_0, # of connection points: 2
#     Edge 38, Type (0, 1), BuildingBlock: OJICUG_clean_linker_0, # of connection points: 2
#     Edge 39, Type (0, 1), BuildingBlock: OJICUG_clean_linker_0, # of connection points: 2
#     Edge 40, Type (0, 1), BuildingBlock: OJICUG_clean_linker_0, # of connection points: 2
#     Edge 41, Type (0, 1), BuildingBlock: OJICUG_clean_linker_0, # of connection points: 2
#     Edge 42, Type (0, 1), BuildingBlock: OJICUG_clean_linker_0, # of connection points: 2
#     Edge 43, Type (0, 1), BuildingBlock: OJICUG_clean_linker_0, # of connection points: 2
#     Edge 44, Type (0, 1), BuildingBlock: OJICUG_clean_linker_0, # of connection points: 2
#     Edge 45, Type (0, 1), BuildingBlock: OJICUG_clean_linker_0, # of connection points: 2
#     Edge 46, Type (0, 1), BuildingBlock: OJICUG_clean_linker_0, # of connection points: 2
#     Edge 47, Type (0, 1), BuildingBlock: OJICUG_clean_linker_0, # of connection points: 2
#     Edge 48, Type (0, 1), BuildingBlock: OJICUG_clean_linker_0, # of connection points: 2
#     Edge 49, Type (0, 1), BuildingBlock: OJICUG_clean_linker_0, # of connection points: 2
#     Edge 50, Type (0, 1), BuildingBlock: OJICUG_clean_linker_0, # of connection points: 2
#     Edge 51, Type (0, 1), BuildingBlock: OJICUG_clean_linker_0, # of connection points: 2
#     Edge 52, Type (0, 1), BuildingBlock: OJICUG_clean_linker_0, # of connection points: 2
#     Edge 53, Type (0, 1), BuildingBlock: OJICUG_clean_linker_0, # of connection points: 2
#     Edge 54, Type (0, 1), BuildingBlock: OJICUG_clean_linker_0, # of connection points: 2
#     Edge 55, Type (0, 1), BuildingBlock: OJICUG_clean_linker_0, # of connection points: 2
#     Edge 56, Type (0, 1), BuildingBlock: OJICUG_clean_linker_0, # of connection points: 2
#     Edge 57, Type (0, 1), BuildingBlock: OJICUG_clean_linker_0, # of connection points: 2
#     Edge 58, Type (0, 1), BuildingBlock: OJICUG_clean_linker_0, # of connection points: 2
#     Edge 59, Type (0, 1), BuildingBlock: OJICUG_clean_linker_0, # of connection points: 2
#     Edge 60, Type (0, 1), BuildingBlock: OJICUG_clean_linker_0, # of connection points: 2
#     Edge 61, Type (0, 1), BuildingBlock: OJICUG_clean_linker_0, # of connection points: 2
#     Edge 62, Type (0, 1), BuildingBlock: OJICUG_clean_linker_0, # of connection points: 2
#     Edge 63, Type (0, 1), BuildingBlock: OJICUG_clean_linker_0, # of connection points: 2
#     Edge 64, Type (0, 1), BuildingBlock: OJICUG_clean_linker_0, # of connection points: 2
#     Edge 65, Type (0, 1), BuildingBlock: OJICUG_clean_linker_0, # of connection points: 2
#     Edge 66, Type (0, 1), BuildingBlock: OJICUG_clean_linker_0, # of connection points: 2
#     Edge 67, Type (0, 1), BuildingBlock: OJICUG_clean_linker_0, # of connection points: 2
#     Edge 68, Type (0, 1), BuildingBlock: OJICUG_clean_linker_0, # of connection points: 2
#     Edge 69, Type (0, 1), BuildingBlock: OJICUG_clean_linker_0, # of connection points: 2
#     Edge 70, Type (0, 1), BuildingBlock: OJICUG_clean_linker_0, # of connection points: 2
#     Edge 71, Type (0, 1), BuildingBlock: OJICUG_clean_linker_0, # of connection points: 2
#     Edge 72, Type (0, 1), BuildingBlock: OJICUG_clean_linker_0, # of connection points: 2
#     Edge 73, Type (0, 1), BuildingBlock: OJICUG_clean_linker_0, # of connection points: 2
#     Edge 74, Type (0, 1), BuildingBlock: OJICUG_clean_linker_0, # of connection points: 2
#     Edge 75, Type (0, 1), BuildingBlock: OJICUG_clean_linker_0, # of connection points: 2
#     Edge 76, Type (0, 1), BuildingBlock: OJICUG_clean_linker_0, # of connection points: 2
#     Edge 77, Type (0, 1), BuildingBlock: OJICUG_clean_linker_0, # of connection points: 2
#     Edge 78, Type (0, 1), BuildingBlock: OJICUG_clean_linker_0, # of connection points: 2
#     Edge 79, Type (0, 1), BuildingBlock: OJICUG_clean_linker_0, # of connection points: 2
#     Edge 80, Type (0, 1), BuildingBlock: OJICUG_clean_linker_0, # of connection points: 2
# Relax obj value: 0.024
# Max RMSD: 0.186
# Mean RMSD: 0.131
data_MOF--net-eea--node1-KUMJIN_clean_sbu_0--node2-PAMTOO_clean_linker_0--edge1-OJICUG_clean_linker_0
_symmetry_space_group_name_H-M    P1
_symmetry_Int_Tables_number       1
_symmetry_cell_setting            triclinic
loop_
_symmetry_equiv_pos_as_xyz
'x, y, z'
_cell_length_a     38.374724
_cell_length_b     40.257188
_cell_length_c     51.651747
_cell_angle_alpha  89.686991
_cell_angle_beta   89.262887
_cell_angle_gamma 119.98166
loop_
_atom_site_label
_atom_site_type_symbol
_atom_site_fract_x
_atom_site_fract_y
_atom_site_fract_z
_atom_type_partial_charge
H0 H 0.28199 0.06316 0.43637 0.0
H1 H 0.27586 0.16686 0.43581 0.0
H2 H 0.21609 0.08324 0.37711 0.0
H3 H 0.25336 0.16418 0.35692 0.0
C4 C 0.25574 0.17813 0.37585 0.0
O5 O 0.23285 0.15054 0.39425 0.0
H6 H 0.28805 0.19352 0.38127 0.0
C7 C 0.27083 0.08061 0.42782 0.0
C8 C 0.24733 0.06818 0.40544 0.0
C9 C 0.28115 0.11598 0.439 0.0
C10 C 0.26833 0.13951 0.42741 0.0
C11 C 0.24526 0.12772 0.40505 0.0
C12 C 0.23461 0.09215 0.39415 0.0
H13 H 0.96781 0.21035 0.43442 0.0
H14 H 0.87364 0.09217 0.43138 0.0
H15 H 0.96062 0.14065 0.36933 0.0
H16 H 0.87532 0.07961 0.35039 0.0
C17 C 0.86347 0.07023 0.37046 0.0
O18 O 0.89526 0.07895 0.38665 0.0
H19 H 0.84766 0.08601 0.37624 0.0
C20 C 0.95325 0.18306 0.42463 0.0
C21 C 0.96888 0.17946 0.40061 0.0
C22 C 0.91876 0.15189 0.43597 0.0
C23 C 0.90008 0.11673 0.42303 0.0
C24 C 0.91489 0.11281 0.39906 0.0
C25 C 0.94947 0.14396 0.38796 0.0
H26 H 0.81857 0.75627 0.43262 0.0
H27 H 0.93885 0.77394 0.43205 0.0
H28 H 0.90183 0.82208 0.37103 0.0
H29 H 0.97005 0.80981 0.3512 0.0
C30 C 0.9722 0.79796 0.37021 0.0
O31 O 0.96235 0.8156 0.38966 0.0
H32 H 0.95014 0.7666 0.37003 0.0
C33 C 0.84795 0.76786 0.42338 0.0
C34 C 0.8559 0.78893 0.40009 0.0
C35 C 0.87732 0.76204 0.43519 0.0
C36 C 0.91583 0.77837 0.42352 0.0
C37 C 0.9248 0.80002 0.40046 0.0
C38 C 0.89491 0.80561 0.3889 0.0
H39 H 0.08017 0.25802 0.60125 0.0
H40 H 0.17756 0.23402 0.60449 0.0
H41 H 0.08894 0.19446 0.6659 0.0
H42 H 0.17143 0.20586 0.68643 0.0
C43 C 0.18493 0.21677 0.66689 0.0
O44 O 0.15576 0.19736 0.64855 0.0
H45 H 0.19495 0.24797 0.66641 0.0
C46 C 0.09546 0.24521 0.61106 0.0
C47 C 0.07992 0.22595 0.63499 0.0
C48 C 0.13066 0.24848 0.59976 0.0
C49 C 0.15055 0.23214 0.61281 0.0
C50 C 0.13574 0.21282 0.63654 0.0
C51 C 0.10017 0.20933 0.64749 0.0
H52 H 0.76438 0.81313 0.59862 0.0
H53 H 0.7813 0.92714 0.6012 0.0
H54 H 0.83419 0.89092 0.65902 0.0
H55 H 0.80171 0.93991 0.68111 0.0
C56 C 0.7983 0.95084 0.66204 0.0
O57 O 0.82158 0.94576 0.64367 0.0
H58 H 0.76584 0.93435 0.65703 0.0
C59 C 0.77771 0.84108 0.60748 0.0
C60 C 0.80084 0.84833 0.62995 0.0
C61 C 0.77042 0.86924 0.59683 0.0
C62 C 0.78621 0.90482 0.60904 0.0
C63 C 0.80831 0.91202 0.63161 0.0
C64 C 0.81609 0.88421 0.64185 0.0
H65 H 0.21518 0.95259 0.59987 0.0
H66 H 0.10035 0.84889 0.60319 0.0
H67 H 0.12984 0.93399 0.6614 0.0
H68 H 0.07173 0.85479 0.68412 0.0
C69 C 0.06913 0.84058 0.66528 0.0
O70 O 0.07511 0.86618 0.64542 0.0
H71 H 0.09275 0.83218 0.66467 0.0
C72 C 0.18594 0.93544 0.60915 0.0
C73 C 0.1763 0.94843 0.63194 0.0
C74 C 0.15879 0.89986 0.59846 0.0
C75 C 0.12171 0.87641 0.61115 0.0
C76 C 0.11152 0.88868 0.63386 0.0
C77 C 0.13858 0.92466 0.64411 0.0
H78 H 0.94874 0.39647 0.76956 0.0
H79 H 0.94189 0.4998 0.76888 0.0
H80 H 0.8824 0.41593 0.71029 0.0
H81 H 0.91907 0.49667 0.68993 0.0
C82 C 0.92159 0.5107 0.70885 0.0
O83 O 0.89883 0.48318 0.72733 0.0
H84 H 0.95393 0.52612 0.71417 0.0
C85 C 0.9374 0.41377 0.76099 0.0
C86 C 0.91389 0.40118 0.73862 0.0
C87 C 0.94752 0.44912 0.77213 0.0
C88 C 0.9345 0.47247 0.76051 0.0
C89 C 0.91141 0.46051 0.73817 0.0
C90 C 0.90094 0.42496 0.72731 0.0
H91 H 0.63311 0.54396 0.76762 0.0
H92 H 0.53896 0.42576 0.7647 0.0
H93 H 0.62658 0.47375 0.703 0.0
H94 H 0.54169 0.41253 0.68385 0.0
C95 C 0.52957 0.40322 0.70387 0.0
O96 O 0.56116 0.41217 0.7203 0.0
H97 H 0.51354 0.41889 0.7094 0.0
C98 C 0.61864 0.51661 0.7579 0.0
C99 C 0.63453 0.51283 0.73402 0.0
C100 C 0.58401 0.48553 0.7692 0.0
C101 C 0.56547 0.45027 0.75637 0.0
C102 C 0.58057 0.44615 0.73257 0.0
C103 C 0.61524 0.47723 0.7215 0.0
H104 H 0.48578 0.08916 0.76632 0.0
H105 H 0.60614 0.10701 0.7656 0.0
H106 H 0.56886 0.15506 0.70467 0.0
H107 H 0.63714 0.14293 0.68474 0.0
C108 C 0.63933 0.13106 0.70373 0.0
O109 O 0.62948 0.14867 0.72321 0.0
H110 H 0.61728 0.0997 0.70354 0.0
C111 C 0.51515 0.10079 0.75705 0.0
C112 C 0.52301 0.12186 0.73377 0.0
C113 C 0.54458 0.09502 0.76882 0.0
C114 C 0.58306 0.11139 0.7571 0.0
C115 C 0.59195 0.13304 0.73405 0.0
C116 C 0.562 0.13859 0.72254 0.0
H117 H 0.74618 0.5893 0.93384 0.0
H118 H 0.84392 0.56587 0.93755 0.0
H119 H 0.75503 0.52631 0.9988 0.0
H120 H 0.83776 0.53822 0.01956 0.0
C121 C 0.85119 0.54911 1.0 0.0
O122 O 0.82207 0.52943 0.98169 0.0
H123 H 0.86096 0.58025 0.99945 0.0
C124 C 0.76152 0.57664 0.94376 0.0
C125 C 0.74595 0.55748 0.96771 0.0
C126 C 0.79685 0.58004 0.93258 0.0
C127 C 0.81681 0.56389 0.94577 0.0
C128 C 0.80195 0.54467 0.96953 0.0
C129 C 0.76627 0.54107 0.98036 0.0
H130 H 0.43061 0.1456 0.93232 0.0
H131 H 0.44649 0.25921 0.93528 0.0
H132 H 0.49933 0.22304 0.99316 0.0
H133 H 0.46574 0.2714 0.01518 0.0
C134 C 0.46273 0.28259 0.99611 0.0
O135 O 0.48636 0.27771 0.9779 0.0
H136 H 0.43038 0.2662 0.99082 0.0
C137 C 0.44363 0.17344 0.9413 0.0
C138 C 0.46657 0.18064 0.96386 0.0
C139 C 0.43612 0.2015 0.93071 0.0
C140 C 0.45153 0.23694 0.94307 0.0
C141 C 0.4734 0.24408 0.96573 0.0
C142 C 0.48137 0.21636 0.97593 0.0
H143 H 0.8823 0.28596 0.93297 0.0
H144 H 0.76751 0.1822 0.93643 0.0
H145 H 0.797 0.26752 0.99448 0.0
H146 H 0.73906 0.18874 0.01739 0.0
C147 C 0.73647 0.17432 0.99864 0.0
O148 O 0.74232 0.19964 0.97863 0.0
H149 H 0.76016 0.16601 0.99814 0.0
C150 C 0.85308 0.26881 0.94226 0.0
C151 C 0.84343 0.28187 0.96503 0.0
C152 C 0.82592 0.2332 0.93162 0.0
C153 C 0.78887 0.20976 0.94434 0.0
C154 C 0.77868 0.22212 0.96702 0.0
C155 C 0.80573 0.25814 0.97721 0.0
H156 H 0.61311 0.7266 0.10199 0.0
H157 H 0.6077 0.83079 0.10228 0.0
H158 H 0.55564 0.75214 0.03998 0.0
H159 H 0.59108 0.83338 0.02328 0.0
C160 C 0.59149 0.84569 0.04258 0.0
O161 O 0.56744 0.81654 0.05975 0.0
H162 H 0.62322 0.86106 0.04919 0.0
C163 C 0.60459 0.74565 0.09275 0.0
C164 C 0.58397 0.7351 0.06919 0.0
C165 C 0.61382 0.78023 0.10482 0.0
C166 C 0.60072 0.8038 0.09355 0.0
C167 C 0.57956 0.79337 0.07039 0.0
C168 C 0.57128 0.75925 0.0582 0.0
H169 H 0.30151 0.87663 0.1013 0.0
H170 H 0.2072 0.75849 0.09844 0.0
H171 H 0.29427 0.80659 0.03642 0.0
H172 H 0.20909 0.74583 0.01749 0.0
C173 C 0.19713 0.73638 0.03753 0.0
O174 O 0.22883 0.74505 0.05378 0.0
H175 H 0.18127 0.7521 0.0433 0.0
C176 C 0.28693 0.84929 0.09157 0.0
C177 C 0.30257 0.84556 0.06759 0.0
C178 C 0.2524 0.81821 0.10294 0.0
C179 C 0.23368 0.78299 0.09007 0.0
C180 C 0.24851 0.77893 0.06615 0.0
C181 C 0.28312 0.81 0.05502 0.0
H182 H 0.15242 0.42254 0.09923 0.0
H183 H 0.27252 0.43976 0.09864 0.0
H184 H 0.23556 0.48762 0.0374 0.0
H185 H 0.30331 0.47427 0.01771 0.0
C186 C 0.30572 0.46294 0.03687 0.0
O187 O 0.29599 0.48101 0.05608 0.0
H188 H 0.28376 0.43155 0.03707 0.0
C189 C 0.18176 0.43396 0.08996 0.0
C190 C 0.1897 0.45485 0.06659 0.0
C191 C 0.21108 0.4281 0.1018 0.0
C192 C 0.24953 0.44422 0.09008 0.0
C193 C 0.25849 0.46566 0.06693 0.0
C194 C 0.22864 0.4713 0.05534 0.0
H195 H 0.4131 0.92485 0.26808 0.0
H196 H 0.51042 0.90077 0.27147 0.0
H197 H 0.42182 0.86149 0.33287 0.0
H198 H 0.50458 0.87304 0.35342 0.0
C199 C 0.51791 0.88389 0.33384 0.0
O200 O 0.48863 0.86432 0.31559 0.0
H201 H 0.52783 0.91507 0.33331 0.0
C202 C 0.42837 0.91205 0.27793 0.0
C203 C 0.41282 0.89286 0.30188 0.0
C204 C 0.46356 0.91527 0.26666 0.0
C205 C 0.48342 0.89894 0.27976 0.0
C206 C 0.4686 0.87972 0.30352 0.0
C207 C 0.43305 0.87629 0.31444 0.0
H208 H 0.09785 0.47999 0.26548 0.0
H209 H 0.11447 0.59389 0.26797 0.0
H210 H 0.16743 0.5579 0.32589 0.0
H211 H 0.13467 0.60684 0.34785 0.0
C212 C 0.13135 0.61775 0.32875 0.0
O213 O 0.1547 0.61264 0.31046 0.0
H214 H 0.09891 0.60126 0.32369 0.0
C215 C 0.11111 0.50794 0.27433 0.0
C216 C 0.13422 0.51526 0.29681 0.0
C217 C 0.10374 0.53603 0.26364 0.0
C218 C 0.11943 0.57161 0.27584 0.0
C219 C 0.14149 0.57888 0.29842 0.0
C220 C 0.14934 0.55113 0.30871 0.0
H221 H 0.54861 0.62095 0.26577 0.0
H222 H 0.43446 0.51649 0.26885 0.0
H223 H 0.463 0.601 0.3274 0.0
H224 H 0.40613 0.52217 0.34995 0.0
C225 C 0.40317 0.50775 0.33116 0.0
O226 O 0.4088 0.53312 0.31122 0.0
H227 H 0.42677 0.49933 0.33037 0.0
C228 C 0.51942 0.60348 0.27503 0.0
C229 C 0.50954 0.61609 0.29791 0.0
C230 C 0.49257 0.5679 0.26422 0.0
C231 C 0.45558 0.54404 0.27689 0.0
C232 C 0.44514 0.55596 0.29968 0.0
C233 C 0.4719 0.59195 0.31004 0.0
Eu234 Eu 0.50062 0.98682 0.98495 0.0
C235 C 0.58003 0.11698 0.06841 0.0
C236 C 0.65052 0.13561 0.0678 0.0
C237 C 0.63036 0.18185 0.08001 0.0
C238 C 0.60983 0.10806 0.06372 0.0
C239 C 0.5898 0.15362 0.07736 0.0
C240 C 0.6607 0.17285 0.07522 0.0
C241 C 0.51872 0.13025 0.08347 0.0
N242 N 0.54123 0.08881 0.06621 0.0
C243 C 0.51064 0.09434 0.07464 0.0
C244 C 0.55848 0.16025 0.08442 0.0
Eu245 Eu 0.52904 0.02875 0.05072 0.0
N246 N 0.59882 0.07165 0.05689 0.0
C247 C 0.62689 0.06025 0.05564 0.0
C248 C 0.67958 0.12454 0.06511 0.0
C249 C 0.66761 0.08654 0.05938 0.0
H250 H 0.47982 0.07124 0.07385 0.0
H251 H 0.68975 0.07747 0.05772 0.0
H252 H 0.69182 0.19453 0.0781 0.0
H253 H 0.49431 0.13476 0.0895 0.0
H254 H 0.61838 0.03114 0.05113 0.0
H255 H 0.3388 0.93321 0.98273 0.0
H256 H 0.71115 0.14484 0.068 0.0
H257 H 0.5516 0.94481 0.96336 0.0
H258 H 0.41055 0.98214 0.98582 0.0
H259 H 0.53799 0.88041 0.95021 0.0
H260 H 0.63851 0.21031 0.08657 0.0
H261 H 0.31896 0.86542 0.97517 0.0
H262 H 0.33989 0.81658 0.96588 0.0
H263 H 0.56471 0.18798 0.09141 0.0
H264 H 0.39411 0.80219 0.95691 0.0
N265 N 0.43119 0.94236 0.98083 0.0
C266 C 0.40236 0.95272 0.98244 0.0
C267 C 0.35053 0.88679 0.97653 0.0
C268 C 0.38039 0.8768 0.97331 0.0
C269 C 0.36161 0.92504 0.98073 0.0
C270 C 0.42103 0.90568 0.97544 0.0
H271 H 0.46806 0.82596 0.95053 0.0
N272 N 0.49014 0.92646 0.97158 0.0
C273 C 0.5134 0.88477 0.95604 0.0
C274 C 0.45144 0.89746 0.97064 0.0
C275 C 0.521 0.92114 0.96342 0.0
C276 C 0.47388 0.85408 0.95633 0.0
C277 C 0.44223 0.86032 0.96327 0.0
O278 O 0.5347 0.0048 0.94837 0.0
O279 O 0.54658 0.03354 1.00899 0.0
O280 O 0.52019 0.07086 0.02599 0.0
O281 O 0.48152 0.0313 0.99225 0.0
O282 O 0.5684 0.01181 0.98102 0.0
O283 O 0.47843 0.00461 0.95183 0.0
O284 O 0.49506 0.0116 0.08746 0.0
O285 O 0.48233 0.98238 0.02665 0.0
O286 O 0.50762 0.9448 1.01011 0.0
O287 O 0.55016 0.98568 0.04168 0.0
O288 O 0.46202 0.00669 0.05354 0.0
O289 O 0.54563 1.00277 0.08202 0.0
C290 C 0.57836 0.03727 0.99874 0.0
C291 C 0.49726 0.9933 0.91034 0.0
C292 C 0.50048 1.00137 0.86311 0.0
C293 C 0.51006 0.01726 0.88812 0.0
C294 C 0.47856 0.96116 0.86089 0.0
C295 C 0.47489 0.95345 0.90747 0.0
C296 C 0.46582 0.93752 0.8829 0.0
C297 C 0.4972 0.06371 1.0054 0.0
C298 C 0.50803 0.00991 0.93638 0.0
C299 C 0.40182 0.83103 0.96225 0.0
C300 C 0.37095 0.83924 0.96733 0.0
C301 C 0.45096 0.98038 0.03635 0.0
C302 C 0.53221 0.01542 0.12452 0.0
C303 C 0.51541 0.99114 0.14641 0.0
C304 C 0.52896 0.005 0.17151 0.0
C305 C 0.55908 0.04362 0.17422 0.0
C306 C 0.56233 0.05364 0.12785 0.0
C307 C 0.57555 0.06763 0.15255 0.0
C308 C 0.53365 0.95289 0.02886 0.0
C309 C 0.5184 1.0009 0.09827 0.0
H310 H 0.52686 0.04811 0.89036 0.0
H311 H 0.47139 0.94784 0.84208 0.0
H312 H 0.46456 0.9346 0.92419 0.0
H313 H 0.44884 0.90667 0.88089 0.0
H314 H 0.49238 0.96147 0.14383 0.0
H315 H 0.56966 0.05547 0.19318 0.0
H316 H 0.57567 0.07267 0.11138 0.0
H317 H 0.59869 0.09726 0.15492 0.0
Eu318 Eu 0.04774 0.50857 0.98551 0.0
C319 C 0.90605 0.45413 0.06703 0.0
C320 C 0.88652 0.50271 0.06574 0.0
C321 C 0.83726 0.43721 0.07806 0.0
C322 C 0.91566 0.49149 0.06197 0.0
C323 C 0.86708 0.42682 0.07592 0.0
C324 C 0.84698 0.47513 0.07299 0.0
C325 C 0.89145 0.38272 0.08335 0.0
N326 N 0.93584 0.4454 0.06549 0.0
C327 C 0.92967 0.41092 0.07463 0.0
C328 C 0.85981 0.39045 0.08356 0.0
Eu329 Eu 0.99984 0.49406 0.05034 0.0
N330 N 0.9543 0.5175 0.05537 0.0
C331 C 0.96636 0.55567 0.054 0.0
C332 C 0.89835 0.54154 0.06303 0.0
C333 C 0.93857 0.56818 0.05749 0.0
H334 H 0.95407 0.40481 0.07445 0.0
H335 H 0.9482 0.59838 0.05579 0.0
H336 H 0.82407 0.48312 0.07559 0.0
H337 H 0.88645 0.35507 0.08991 0.0
H338 H 0.99724 0.5767 0.0497 0.0
H339 H 0.09954 0.40441 0.9835 0.0
H340 H 0.87691 0.55133 0.06576 0.0
H341 H 0.09588 0.59977 0.96433 0.0
H342 H 0.04959 0.42578 0.98631 0.0
H343 H 0.16517 0.65023 0.95215 0.0
H344 H 0.80702 0.41651 0.08455 0.0
H345 H 0.1717 0.45197 0.97691 0.0
H346 H 0.22521 0.52051 0.96858 0.0
H347 H 0.8303 0.36868 0.09052 0.0
H348 H 0.24312 0.58745 0.96 0.0
N349 N 0.09306 0.48501 0.98196 0.0
C350 C 0.08092 0.44685 0.98329 0.0
C351 C 0.14989 0.46155 0.9781 0.0
C352 C 0.16181 0.5004 0.9752 0.0
C353 C 0.10917 0.4346 0.98174 0.0
C354 C 0.13224 0.51136 0.97706 0.0
H355 H 0.22082 0.63594 0.95334 0.0
N356 N 0.11274 0.55808 0.9729 0.0
C357 C 0.15921 0.62196 0.95793 0.0
C358 C 0.14242 0.54908 0.97242 0.0
C359 C 0.1201 0.5934 0.96475 0.0
C360 C 0.19057 0.61381 0.95872 0.0
C361 C 0.18229 0.57682 0.96557 0.0
O362 O 0.03483 0.52528 0.9482 0.0
O363 O 0.99673 0.5057 1.00848 0.0
O364 O 0.95649 0.44335 0.02621 0.0
O365 O 0.99912 0.44591 0.99235 0.0
O366 O 0.02205 0.54858 0.98062 0.0
O367 O 0.03028 0.46964 0.95278 0.0
O368 O 1.01596 0.47917 0.08732 0.0
O369 O 0.0505 0.49611 0.02724 0.0
O370 O 0.09091 0.55636 0.01092 0.0
O371 O 0.0462 0.55747 0.04131 0.0
O372 O 0.02342 0.45252 0.05433 0.0
O373 O 0.0221 0.53514 0.08188 0.0
C374 C 0.99368 0.53241 0.99787 0.0
C375 C 0.0484 0.49925 0.91135 0.0
C376 C 0.04328 0.49504 0.86438 0.0
C377 C 0.025 0.48871 0.88906 0.0
C378 C 0.08533 0.51205 0.86228 0.0
C379 C 0.09026 0.5157 0.90896 0.0
C380 C 0.10861 0.52211 0.88451 0.0
C381 C 0.96461 0.42843 1.00573 0.0
C382 C 0.02867 0.49403 0.93678 0.0
C383 C 0.21221 0.56644 0.96493 0.0
C384 C 0.202 0.52831 0.96979 0.0
C385 C 0.05212 0.46828 0.03729 0.0
C386 C 1.0051 0.50759 0.12388 0.0
C387 C 0.02754 0.51276 0.14624 0.0
C388 C 1.00985 0.50875 0.17099 0.0
C389 C 0.96921 0.49905 0.17291 0.0
C390 C 0.96484 0.49846 0.12627 0.0
C391 C 0.94697 0.49405 0.15066 0.0
C392 C 0.08169 0.57385 0.02901 0.0
C393 C 0.02381 0.5112 0.09822 0.0
H394 H 0.99263 0.47617 0.89092 0.0
H395 H 0.10009 0.517 0.84349 0.0
H396 H 0.10875 0.52372 0.92587 0.0
H397 H 0.14096 0.53492 0.88279 0.0
H398 H 0.05887 0.52048 0.14431 0.0
H399 H 0.95448 0.49507 0.19162 0.0
H400 H 0.94723 0.49477 0.10937 0.0
H401 H 0.91578 0.48673 0.15232 0.0
Eu402 Eu 0.54742 0.51047 0.05027 0.0
C403 C 0.46478 0.56287 0.96907 0.0
C404 C 0.39434 0.51394 0.96926 0.0
C405 C 0.41407 0.57999 0.95864 0.0
C406 C 0.43507 0.52514 0.97314 0.0
C407 C 0.4547 0.59061 0.96128 0.0
C408 C 0.38394 0.54171 0.96259 0.0
C409 C 0.52577 0.63639 0.95688 0.0
N410 N 0.50373 0.57201 0.9713 0.0
C411 C 0.53423 0.60776 0.96436 0.0
C412 C 0.48582 0.6279 0.95562 0.0
Eu413 Eu 0.51583 0.52254 0.98511 0.0
N414 N 0.44615 0.49899 0.97948 0.0
C415 C 0.4182 0.46082 0.98067 0.0
C416 C 0.36538 0.47504 0.97159 0.0
C417 C 0.37745 0.44833 0.97703 0.0
H418 H 0.56518 0.61444 0.96538 0.0
H419 H 0.35537 0.41811 0.97853 0.0
H420 H 0.35277 0.53371 0.95985 0.0
H421 H 0.55004 0.66493 0.95204 0.0
H422 H 0.42695 0.43981 0.98491 0.0
H423 H 0.71014 0.6076 0.04974 0.0
H424 H 0.33379 0.46528 0.96882 0.0
H425 H 0.49475 0.42074 0.07412 0.0
H426 H 0.63888 0.58992 0.04694 0.0
H427 H 0.50677 0.36881 0.08877 0.0
H428 H 0.4057 0.60095 0.95289 0.0
H429 H 0.7282 0.55781 0.05919 0.0
H430 H 0.70552 0.48917 0.0708 0.0
H431 H 0.47933 0.65005 0.94963 0.0
H432 H 0.65018 0.42423 0.08162 0.0
N433 N 0.6166 0.53049 0.05398 0.0
C434 C 0.64624 0.5679 0.05115 0.0
C435 C 0.69681 0.54986 0.05796 0.0
C436 C 0.66622 0.51195 0.06238 0.0
C437 C 0.68674 0.57806 0.0527 0.0
C438 C 0.62585 0.5031 0.06039 0.0
H439 H 0.57603 0.37926 0.0888 0.0
N440 N 0.55646 0.45972 0.06543 0.0
C441 C 0.53178 0.39612 0.08242 0.0
C442 C 0.59481 0.46658 0.06637 0.0
C443 C 0.52509 0.42558 0.07417 0.0
C444 C 0.57092 0.4021 0.08234 0.0
C445 C 0.60311 0.43785 0.07462 0.0
O446 O 0.51497 0.49983 0.08718 0.0
O447 O 0.49948 0.51169 0.02698 0.0
O448 O 0.52207 0.57093 0.0105 0.0
O449 O 0.56876 0.57298 0.03975 0.0
O450 O 0.47969 0.4706 0.05594 0.0
O451 O 0.57224 0.55186 0.08164 0.0
O452 O 0.54789 0.53856 0.94778 0.0
O453 O 0.5639 0.52095 1.00815 0.0
O454 O 0.54 0.46111 0.02625 0.0
O455 O 0.49591 0.45958 0.99492 0.0
O456 O 0.58309 0.56356 0.98032 0.0
O457 O 0.49701 0.48143 0.95358 0.0
C458 C 0.46829 0.48527 0.03801 0.0
C459 C 0.55444 0.52524 0.12406 0.0
C460 C 0.54667 0.52646 0.17103 0.0
C461 C 0.53811 0.5337 0.14585 0.0
C462 C 0.57189 0.51072 0.17402 0.0
C463 C 0.57989 0.50998 0.1275 0.0
C464 C 0.5885 0.50273 0.15237 0.0
C465 C 0.54979 0.58874 0.02821 0.0
C466 C 0.54307 0.53063 0.09793 0.0
C467 C 0.6432 0.44603 0.07557 0.0
C468 C 0.6747 0.48301 0.06942 0.0
C469 C 0.59495 0.54808 0.9974 0.0
C470 C 0.50912 0.50815 0.91125 0.0
C471 C 0.52721 0.50298 0.88894 0.0
C472 C 0.51365 0.50532 0.86409 0.0
C473 C 0.48204 0.51335 0.86204 0.0
C474 C 0.47756 0.51591 0.90865 0.0
C475 C 0.4642 0.51857 0.88418 0.0
C476 C 0.51339 0.44344 1.00799 0.0
C477 C 0.52368 0.50589 0.93708 0.0
H478 H 0.51822 0.54527 0.14321 0.0
H479 H 0.57934 0.50521 0.19314 0.0
H480 H 0.59291 0.50348 0.11102 0.0
H481 H 0.60811 0.49088 0.15487 0.0
H482 H 0.55137 0.49663 0.89098 0.0
H483 H 0.47134 0.51601 0.84327 0.0
H484 H 0.46327 0.51994 0.92548 0.0
H485 H 0.43993 0.52476 0.88235 0.0
Eu486 Eu 0.16686 0.3208 0.31815 0.0
C487 C 0.24666 0.45086 0.40162 0.0
C488 C 0.31713 0.4694 0.40088 0.0
C489 C 0.29711 0.51571 0.41319 0.0
C490 C 0.27642 0.44189 0.39687 0.0
C491 C 0.25652 0.48751 0.41059 0.0
C492 C 0.32739 0.50666 0.40832 0.0
C493 C 0.18547 0.46424 0.41677 0.0
N494 N 0.20783 0.42273 0.39946 0.0
C495 C 0.1773 0.42832 0.40791 0.0
C496 C 0.22526 0.4942 0.4177 0.0
Eu497 Eu 0.19553 0.36266 0.38392 0.0
N498 N 0.26533 0.40547 0.39001 0.0
C499 C 0.29335 0.39402 0.38869 0.0
C500 C 0.34615 0.45829 0.3981 0.0
C501 C 0.33411 0.42027 0.39236 0.0
H502 H 0.14646 0.40526 0.40713 0.0
H503 H 0.35621 0.41117 0.39063 0.0
H504 H 0.35854 0.52831 0.41116 0.0
H505 H 0.1611 0.4688 0.42284 0.0
H506 H 0.28477 0.36488 0.38417 0.0
H507 H 1.00517 0.26787 0.31602 0.0
H508 H 0.37774 0.47857 0.40093 0.0
H509 H 0.21745 0.27837 0.29662 0.0
H510 H 0.077 0.31657 0.31907 0.0
H511 H 0.2035 0.21383 0.28355 0.0
H512 H 0.30532 0.54417 0.41976 0.0
H513 H 0.985 0.2 0.30847 0.0
H514 H 1.00559 0.1509 0.29921 0.0
H515 H 0.23155 0.52195 0.4247 0.0
H516 H 0.05957 0.13618 0.29027 0.0
N517 N 0.09736 0.27658 0.31406 0.0
C518 C 0.06867 0.28711 0.3157 0.0
C519 C 1.01661 0.22127 0.30982 0.0
C520 C 0.04632 0.21109 0.30659 0.0
C521 C 0.02788 0.25956 0.314 0.0
C522 C 0.08702 0.23985 0.30869 0.0
H523 H 0.13344 0.1596 0.2839 0.0
N524 N 0.15606 0.26031 0.30483 0.0
C525 C 0.179 0.21835 0.28936 0.0
C526 C 0.1173 0.23143 0.30391 0.0
C527 C 0.1868 0.2548 0.2967 0.0
C528 C 0.13941 0.18778 0.28966 0.0
C529 C 0.10789 0.19423 0.29658 0.0
O530 O 0.20088 0.33861 0.28155 0.0
O531 O 0.21301 0.36745 0.34217 0.0
O532 O 0.18692 0.40494 0.35922 0.0
O533 O 0.14803 0.36545 0.32553 0.0
O534 O 0.2346 0.34553 0.31417 0.0
O535 O 0.14477 0.33871 0.28505 0.0
O536 O 0.16167 0.34552 0.42071 0.0
O537 O 0.14869 0.31642 0.35986 0.0
O538 O 0.17357 0.27865 0.34333 0.0
O539 O 0.21643 0.31944 0.3748 0.0
O540 O 0.12851 0.34069 0.38684 0.0
O541 O 0.21219 0.33664 0.41516 0.0
C542 C 0.24471 0.37102 0.33189 0.0
C543 C 0.16335 0.32711 0.24357 0.0
C544 C 0.16654 0.33495 0.19632 0.0
C545 C 0.17627 0.35096 0.22129 0.0
C546 C 0.14437 0.29473 0.1942 0.0
C547 C 0.14071 0.28725 0.24079 0.0
C548 C 0.1315 0.2712 0.21626 0.0
C549 C 0.16392 0.39789 0.33865 0.0
C550 C 0.17427 0.34382 0.26957 0.0
C551 C 0.06742 0.16507 0.29558 0.0
C552 C 0.03669 0.17347 0.30064 0.0
C553 C 0.11736 0.31443 0.36962 0.0
C554 C 0.19886 0.34917 0.45771 0.0
C555 C 0.18217 0.32478 0.47957 0.0
C556 C 0.19577 0.33854 0.50469 0.0
C557 C 0.22585 0.37717 0.50744 0.0
C558 C 0.22894 0.3874 0.4611 0.0
C559 C 0.24223 0.40129 0.48581 0.0
C560 C 0.19965 0.28662 0.36202 0.0
C561 C 0.18501 0.33476 0.43146 0.0
H562 H 0.19326 0.38181 0.22346 0.0
H563 H 0.13709 0.28132 0.17542 0.0
H564 H 0.13028 0.26849 0.25755 0.0
H565 H 0.11432 0.24035 0.21432 0.0
H566 H 0.15917 0.29512 0.47695 0.0
H567 H 0.23648 0.38895 0.52641 0.0
H568 H 0.24221 0.40651 0.44465 0.0
H569 H 0.26533 0.43092 0.48822 0.0
Eu570 Eu 0.7137 0.84224 0.31879 0.0
C571 C 0.57227 0.7881 0.40047 0.0
C572 C 0.55284 0.83675 0.39936 0.0
C573 C 0.50355 0.77124 0.41164 0.0
C574 C 0.58192 0.82549 0.39548 0.0
C575 C 0.53331 0.76079 0.40939 0.0
C576 C 0.51331 0.80919 0.40665 0.0
C577 C 0.55758 0.71657 0.41661 0.0
N578 N 0.60201 0.7793 0.39883 0.0
C579 C 0.5958 0.74476 0.40787 0.0
C580 C 0.52599 0.72438 0.41693 0.0
Eu581 Eu 0.666 0.82797 0.38367 0.0
N582 N 0.62055 0.85147 0.38884 0.0
C583 C 0.63265 0.88965 0.3875 0.0
C584 C 0.5647 0.87559 0.39671 0.0
C585 C 0.60491 0.90221 0.3911 0.0
H586 H 0.62016 0.73859 0.4076 0.0
H587 H 0.61458 0.93242 0.38944 0.0
H588 H 0.49044 0.81721 0.40933 0.0
H589 H 0.55255 0.68887 0.42308 0.0
H590 H 0.66352 0.91066 0.38315 0.0
H591 H 0.76488 0.73758 0.31701 0.0
H592 H 0.54331 0.88542 0.39953 0.0
H593 H 0.76218 0.9333 0.29736 0.0
H594 H 0.71515 0.75923 0.31967 0.0
H595 H 0.83157 0.98355 0.28519 0.0
H596 H 0.47331 0.75056 0.41816 0.0
H597 H 0.83712 0.78493 0.31051 0.0
H598 H 0.89087 0.85338 0.30217 0.0
H599 H 0.49648 0.70261 0.4239 0.0
H600 H 0.90908 0.92036 0.29345 0.0
N601 N 0.75882 0.81841 0.31533 0.0
C602 C 0.74652 0.78021 0.31669 0.0
C603 C 0.81541 0.79463 0.31163 0.0
C604 C 0.8275 0.83351 0.3087 0.0
C605 C 0.77465 0.76781 0.31522 0.0
C606 C 0.79805 0.84463 0.31046 0.0
H607 H 0.88705 0.96902 0.28657 0.0
N608 N 0.7788 0.89148 0.30608 0.0
C609 C 0.82549 0.95526 0.29104 0.0
C610 C 0.80839 0.88237 0.30573 0.0
C611 C 0.78631 0.92682 0.29784 0.0
C612 C 0.85675 0.94698 0.29194 0.0
C613 C 0.84831 0.90998 0.29889 0.0
O614 O 0.70145 0.85902 0.28127 0.0
O615 O 0.66291 0.83967 0.34182 0.0
O616 O 0.62241 0.77739 0.35953 0.0
O617 O 0.66502 0.77965 0.32578 0.0
O618 O 0.68812 0.88232 0.31382 0.0
O619 O 0.69513 0.80274 0.28638 0.0
O620 O 0.68224 0.81305 0.42059 0.0
O621 O 0.7166 0.82993 0.36054 0.0
O622 O 0.75694 0.89015 0.3441 0.0
O623 O 0.7124 0.89136 0.37459 0.0
O624 O 0.68947 0.78634 0.38762 0.0
O625 O 0.68829 0.86899 0.41525 0.0
C626 C 0.65988 0.86636 0.33117 0.0
C627 C 0.71408 0.83155 0.24481 0.0
C628 C 0.7092 0.82568 0.19781 0.0
C629 C 0.69092 0.82108 0.2224 0.0
C630 C 0.75116 0.84109 0.19611 0.0
C631 C 0.75573 0.84644 0.24271 0.0
C632 C 0.77416 0.85126 0.21846 0.0
C633 C 0.63045 0.76235 0.33909 0.0
C634 C 0.69435 0.82729 0.27012 0.0
C635 C 0.87813 0.89946 0.29836 0.0
C636 C 0.86775 0.8613 0.3033 0.0
C637 C 0.7182 0.8021 0.37059 0.0
C638 C 0.67145 0.84137 0.45722 0.0
C639 C 0.69393 0.84641 0.47955 0.0
C640 C 0.67631 0.84231 0.50433 0.0
C641 C 0.63568 0.83265 0.50632 0.0
C642 C 0.63121 0.83227 0.45969 0.0
C643 C 0.6134 0.82777 0.48411 0.0
C644 C 0.74783 0.9077 0.36221 0.0
C645 C 0.69008 0.84505 0.43154 0.0
H646 H 0.65861 0.80894 0.2242 0.0
H647 H 0.76632 0.84565 0.17751 0.0
H648 H 0.774 0.8544 0.25971 0.0
H649 H 0.80639 0.86303 0.21696 0.0
H650 H 0.72525 0.8541 0.47756 0.0
H651 H 0.621 0.8286 0.52505 0.0
H652 H 0.61356 0.82866 0.44282 0.0
H653 H 0.58222 0.82047 0.48583 0.0
Eu654 Eu 0.21277 0.84371 0.38396 0.0
C655 C 0.13107 0.89614 0.30117 0.0
C656 C 0.06081 0.84688 0.30228 0.0
C657 C 0.07984 0.91216 0.28984 0.0
C658 C 0.10169 0.85862 0.30613 0.0
C659 C 0.1206 0.92311 0.29222 0.0
C660 C 0.04998 0.87408 0.29486 0.0
C661 C 0.19141 0.96822 0.28558 0.0
N662 N 0.1701 0.90548 0.30308 0.0
C663 C 0.20021 0.94035 0.29438 0.0
C664 C 0.15144 0.95978 0.28491 0.0
Eu665 Eu 0.18329 0.85745 0.31852 0.0
N666 N 0.11329 0.83301 0.31292 0.0
C667 C 0.08567 0.79474 0.31438 0.0
C668 C 0.0322 0.80797 0.30516 0.0
C669 C 0.04478 0.78173 0.31087 0.0
H670 H 0.23118 0.94701 0.29495 0.0
H671 H 0.02298 0.75147 0.31269 0.0
H672 H 1.01869 0.8657 0.29217 0.0
H673 H 0.21544 0.99616 0.27934 0.0
H674 H 0.09472 0.77402 0.31885 0.0
H675 H 0.37449 0.94503 0.38525 0.0
H676 H 1.0005 0.7978 0.30244 0.0
H677 H 0.16231 0.75302 0.40611 0.0
H678 H 0.30264 0.92516 0.38205 0.0
H679 H 0.17645 0.702 0.41987 0.0
H680 H 0.07117 0.93257 0.28329 0.0
H681 H 0.39477 0.89659 0.39382 0.0
H682 H 0.37431 0.82806 0.40411 0.0
H683 H 0.14466 0.98132 0.27792 0.0
H684 H 0.32044 0.76195 0.41366 0.0
N685 N 0.28234 0.86587 0.38802 0.0
C686 C 0.31101 0.90372 0.38588 0.0
C687 C 0.36314 0.88767 0.39243 0.0
C688 C 0.33347 0.84922 0.39612 0.0
C689 C 0.35182 0.91511 0.38766 0.0
C690 C 0.29275 0.83912 0.39393 0.0
H691 H 0.24661 0.71483 0.42002 0.0
N692 N 0.22371 0.7937 0.39804 0.0
C693 C 0.20091 0.72991 0.41397 0.0
C694 C 0.26251 0.80188 0.39914 0.0
C695 C 0.19301 0.75881 0.40625 0.0
C696 C 0.24056 0.73724 0.41396 0.0
C697 C 0.27202 0.77375 0.40688 0.0
O698 O 0.17939 0.82957 0.42071 0.0
O699 O 0.16557 0.8458 0.36032 0.0
O700 O 0.19105 0.90759 0.34276 0.0
O701 O 0.23152 0.90617 0.37581 0.0
O702 O 0.14513 0.80311 0.38832 0.0
O703 O 0.23568 0.88306 0.41651 0.0
O704 O 0.2165 0.87312 0.28155 0.0
O705 O 0.23085 0.85599 0.34219 0.0
O706 O 0.20741 0.79579 0.35922 0.0
O707 O 0.16357 0.79445 0.32789 0.0
O708 O 0.25047 0.89938 0.31497 0.0
O709 O 0.16557 0.81614 0.28717 0.0
C710 C 0.13416 0.81877 0.37079 0.0
C711 C 0.21747 0.85425 0.45829 0.0
C712 C 0.2105 0.85601 0.50529 0.0
C713 C 0.20195 0.86343 0.48016 0.0
C714 C 0.23487 0.83933 0.50816 0.0
C715 C 0.24212 0.83809 0.46161 0.0
C716 C 0.25069 0.83063 0.48643 0.0
C717 C 0.21466 0.92292 0.36293 0.0
C718 C 0.20638 0.86025 0.43224 0.0
C719 C 0.31252 0.78326 0.40801 0.0
C720 C 0.34318 0.82091 0.40259 0.0
C721 C 0.26209 0.88376 0.3321 0.0
C722 C 0.17828 0.84266 0.24484 0.0
C723 C 0.19636 0.83715 0.22265 0.0
C724 C 0.18283 0.83921 0.19773 0.0
C725 C 0.15137 0.84741 0.19548 0.0
C726 C 0.14678 0.85045 0.24203 0.0
C727 C 0.13354 0.85295 0.21748 0.0
C728 C 0.18125 0.77834 0.34073 0.0
C729 C 0.19253 0.84047 0.27078 0.0
H730 H 0.18274 0.87577 0.47761 0.0
H731 H 0.24229 0.83366 0.52724 0.0
H732 H 0.25459 0.83111 0.44509 0.0
H733 H 0.26968 0.81807 0.48884 0.0
H734 H 0.22042 0.83069 0.22484 0.0
H735 H 0.14073 0.8499 0.17665 0.0
H736 H 0.13237 0.85455 0.25876 0.0
H737 H 0.10933 0.8592 0.21551 0.0
Eu738 Eu 0.83288 0.65361 0.65129 0.0
C739 C 0.91289 0.78347 0.73493 0.0
C740 C 0.9833 0.80179 0.73433 0.0
C741 C 0.96344 0.84821 0.74665 0.0
C742 C 0.94257 0.77439 0.73021 0.0
C743 C 0.92283 0.82013 0.74395 0.0
C744 C 0.99365 0.83904 0.74184 0.0
C745 C 0.8518 0.79706 0.74998 0.0
N746 N 0.87403 0.75544 0.73268 0.0
C747 C 0.84354 0.76113 0.74108 0.0
C748 C 0.89162 0.82692 0.75101 0.0
Eu749 Eu 0.86158 0.69535 0.71709 0.0
N750 N 0.9314 0.73799 0.72329 0.0
C751 C 0.95933 0.72643 0.72197 0.0
C752 C 1.01223 0.79057 0.73158 0.0
C753 C 1.00009 0.75256 0.72574 0.0
H754 H 0.81267 0.73815 0.74023 0.0
H755 H 0.02213 0.74337 0.72403 0.0
H756 H 0.0248 0.8606 0.74475 0.0
H757 H 0.82746 0.80169 0.756 0.0
H758 H 0.95069 0.6973 0.71738 0.0
H759 H 0.67117 0.60054 0.64923 0.0
H760 H 0.04382 0.81075 0.73449 0.0
H761 H 0.88356 0.61133 0.62966 0.0
H762 H 0.74299 0.64929 0.65229 0.0
H763 H 0.86967 0.54684 0.61647 0.0
H764 H 0.97171 0.87667 0.75327 0.0
H765 H 0.65106 0.53271 0.64158 0.0
H766 H 0.67172 0.4837 0.63219 0.0
H767 H 0.89798 0.85467 0.75805 0.0
H768 H 0.72575 0.46908 0.62316 0.0
N769 N 0.7634 0.60936 0.6472 0.0
C770 C 0.73467 0.61985 0.64888 0.0
C771 C 0.68266 0.554 0.64294 0.0
C772 C 0.71241 0.54387 0.63966 0.0
C773 C 0.69389 0.59227 0.64718 0.0
C774 C 0.75309 0.57265 0.64177 0.0
H775 H 0.79963 0.49258 0.61677 0.0
N776 N 0.82215 0.59319 0.63788 0.0
C777 C 0.84516 0.55132 0.62231 0.0
C778 C 0.7834 0.56429 0.63693 0.0
C779 C 0.85292 0.58773 0.62971 0.0
C780 C 0.80558 0.52073 0.62258 0.0
C781 C 0.77403 0.52712 0.62954 0.0
O782 O 0.86691 0.67161 0.6147 0.0
O783 O 0.87903 0.70016 0.67535 0.0
O784 O 0.85312 0.73773 0.69238 0.0
O785 O 0.81405 0.69823 0.65874 0.0
O786 O 0.90066 0.67841 0.64728 0.0
O787 O 0.81071 0.67151 0.61823 0.0
O788 O 0.82777 0.67828 0.75389 0.0
O789 O 0.81464 0.64917 0.69302 0.0
O790 O 0.83951 0.61136 0.67641 0.0
O791 O 0.8824 0.65209 0.70789 0.0
O792 O 0.79462 0.67361 0.71999 0.0
O793 O 0.87799 0.66897 0.74821 0.0
C794 C 0.91074 0.70382 0.66505 0.0
C795 C 0.82944 0.66021 0.5767 0.0
C796 C 0.83276 0.66832 0.52947 0.0
C797 C 0.84237 0.68419 0.55449 0.0
C798 C 0.8107 0.62811 0.52725 0.0
C799 C 0.80693 0.62036 0.57382 0.0
C800 C 0.79783 0.60446 0.54924 0.0
C801 C 0.83008 0.73071 0.67183 0.0
C802 C 0.84026 0.67679 0.60275 0.0
C803 C 0.73357 0.49794 0.62852 0.0
C804 C 0.70281 0.50628 0.63364 0.0
C805 C 0.78337 0.64732 0.70278 0.0
C806 C 0.86492 0.68151 0.79081 0.0
C807 C 0.84836 0.65697 0.8126 0.0
C808 C 0.86203 0.67057 0.83773 0.0
C809 C 0.89208 0.70919 0.84057 0.0
C810 C 0.89496 0.71972 0.79427 0.0
C811 C 0.90834 0.73346 0.819 0.0
C812 C 0.86558 0.61927 0.6951 0.0
C813 C 0.85094 0.66724 0.76456 0.0
H814 H 0.85927 0.71503 0.55674 0.0
H815 H 0.80351 0.6148 0.50843 0.0
H816 H 0.7965 0.60151 0.59053 0.0
H817 H 0.78074 0.57362 0.54723 0.0
H818 H 0.82539 0.62731 0.80991 0.0
H819 H 0.90275 0.72085 0.85955 0.0
H820 H 0.90812 0.73895 0.77787 0.0
H821 H 0.93142 0.76308 0.82147 0.0
Eu822 Eu 0.38079 0.17504 0.65246 0.0
C823 C 0.23908 0.12066 0.73397 0.0
C824 C 0.21947 0.16919 0.73267 0.0
C825 C 0.17028 0.10367 0.74503 0.0
C826 C 0.24863 0.158 0.72889 0.0
C827 C 0.20013 0.09333 0.74288 0.0
C828 C 0.17995 0.14158 0.73995 0.0
C829 C 0.22459 0.0493 0.75034 0.0
N830 N 0.2689 0.11197 0.73243 0.0
C831 C 0.26278 0.07752 0.74159 0.0
C832 C 0.19291 0.05699 0.75055 0.0
Eu833 Eu 0.33286 0.16067 0.71726 0.0
N834 N 0.28727 0.18404 0.72228 0.0
C835 C 0.29928 0.2222 0.7209 0.0
C836 C 0.23125 0.208 0.72996 0.0
C837 C 0.27146 0.23467 0.7244 0.0
H838 H 0.2872 0.07143 0.74141 0.0
H839 H 0.28105 0.26486 0.7227 0.0
H840 H 0.15702 0.14954 0.74256 0.0
H841 H 0.21963 0.02167 0.75691 0.0
H842 H 0.33015 0.24325 0.71659 0.0
H843 H 0.43227 0.07063 0.65081 0.0
H844 H 0.20979 0.21776 0.7327 0.0
H845 H 0.42913 0.26614 0.63109 0.0
H846 H 0.38243 0.09214 0.65346 0.0
H847 H 0.49848 0.31646 0.6189 0.0
H848 H 0.14006 0.08296 0.75155 0.0
H849 H 0.50448 0.11807 0.64426 0.0
H850 H 0.55811 0.18654 0.63588 0.0
H851 H 0.16342 0.0352 0.75753 0.0
H852 H 0.57619 0.25349 0.62716 0.0
N853 N 0.426 0.15134 0.64906 0.0
C854 C 0.41379 0.11316 0.65046 0.0
C855 C 0.48272 0.12771 0.64538 0.0
C856 C 0.49473 0.16657 0.64242 0.0
C857 C 0.44198 0.10083 0.649 0.0
C858 C 0.46522 0.17762 0.64418 0.0
H859 H 0.55404 0.30205 0.62029 0.0
N860 N 0.44585 0.22441 0.63985 0.0
C861 C 0.49245 0.2882 0.62477 0.0
C862 C 0.47548 0.21534 0.63947 0.0
C863 C 0.4533 0.25972 0.63159 0.0
C864 C 0.52375 0.27998 0.62566 0.0
C865 C 0.51538 0.243 0.63262 0.0
O866 O 0.36804 0.19172 0.61509 0.0
O867 O 0.32977 0.17227 0.67538 0.0
O868 O 0.28945 0.10995 0.69315 0.0
O869 O 0.33207 0.11241 0.65933 0.0
O870 O 0.35519 0.2151 0.64748 0.0
O871 O 0.3633 0.13602 0.61979 0.0
O872 O 0.34915 0.14589 0.75422 0.0
O873 O 0.38358 0.16273 0.69422 0.0
O874 O 0.4239 0.22297 0.67781 0.0
O875 O 0.37916 0.22408 0.70818 0.0
O876 O 0.35643 0.11913 0.72129 0.0
O877 O 0.35493 0.20171 0.74883 0.0
C878 C 0.3268 0.199 0.66472 0.0
C879 C 0.38161 0.16551 0.57834 0.0
C880 C 0.37664 0.16131 0.53135 0.0
C881 C 0.3583 0.1551 0.55601 0.0
C882 C 0.41868 0.17807 0.52933 0.0
C883 C 0.42345 0.1817 0.57601 0.0
C884 C 0.44187 0.18799 0.5516 0.0
C885 C 0.29754 0.09498 0.6727 0.0
C886 C 0.36182 0.16041 0.60372 0.0
C887 C 0.54525 0.23255 0.63208 0.0
C888 C 0.53495 0.19441 0.63702 0.0
C889 C 0.3852 0.13492 0.7043 0.0
C890 C 0.33804 0.17407 0.7908 0.0
C891 C 0.3604 0.17904 0.81318 0.0
C892 C 0.34262 0.1748 0.83793 0.0
C893 C 0.30196 0.16506 0.83982 0.0
C894 C 0.29777 0.16492 0.79319 0.0
C895 C 0.27981 0.16027 0.81757 0.0
C896 C 0.41464 0.24049 0.69586 0.0
C897 C 0.3568 0.17785 0.76515 0.0
H898 H 0.32595 0.14275 0.55781 0.0
H899 H 0.43349 0.18292 0.51056 0.0
H900 H 0.44186 0.1896 0.59295 0.0
H901 H 0.4742 0.20061 0.54993 0.0
H902 H 0.39173 0.18678 0.81126 0.0
H903 H 0.28715 0.16089 0.85852 0.0
H904 H 0.28022 0.16139 0.77628 0.0
H905 H 0.2486 0.15292 0.81921 0.0
Eu906 Eu 0.87996 0.17686 0.71721 0.0
C907 C 0.79809 0.22923 0.63454 0.0
C908 C 0.72782 0.18 0.63575 0.0
C909 C 0.74685 0.24527 0.62329 0.0
C910 C 0.76871 0.19172 0.63955 0.0
C911 C 0.78761 0.2562 0.62561 0.0
C912 C 0.71698 0.2072 0.62836 0.0
C913 C 0.85841 0.30126 0.61884 0.0
N914 N 0.83713 0.23856 0.63639 0.0
C915 C 0.86722 0.2734 0.62763 0.0
C916 C 0.81844 0.29285 0.61824 0.0
Eu917 Eu 0.85034 0.19053 0.6518 0.0
N918 N 0.78032 0.16611 0.6463 0.0
C919 C 0.75269 0.12784 0.64778 0.0
C920 C 0.69921 0.14109 0.63865 0.0
C921 C 0.71179 0.11484 0.64433 0.0
H922 H 0.89818 0.28003 0.62815 0.0
H923 H 0.68999 0.08458 0.64616 0.0
H924 H 0.68569 0.19883 0.62571 0.0
H925 H 0.88243 0.32918 0.61255 0.0
H926 H 0.76174 0.10711 0.65222 0.0
H927 H 0.04171 0.27803 0.71836 0.0
H928 H 0.6675 0.13094 0.63597 0.0
H929 H 0.82942 0.0862 0.73942 0.0
H930 H 0.96987 0.25823 0.7152 0.0
H931 H 0.8435 0.03515 0.7532 0.0
H932 H 0.73817 0.26568 0.61676 0.0
H933 H 0.06192 0.22954 0.72696 0.0
H934 H 0.04138 0.16101 0.7373 0.0
H935 H 0.81165 0.31439 0.61126 0.0
H936 H 0.98746 0.09494 0.74691 0.0
N937 N 0.94951 0.19894 0.72122 0.0
C938 C 0.97821 0.23678 0.71904 0.0
C939 C 0.03029 0.22066 0.72558 0.0
C940 C 1.00059 0.18223 0.72931 0.0
C941 C 1.01901 0.24813 0.7208 0.0
C942 C 0.95988 0.17217 0.72715 0.0
H943 H 0.91362 0.0479 0.75333 0.0
N944 N 0.89083 0.12683 0.73131 0.0
C945 C 0.86797 0.06304 0.74729 0.0
C946 C 0.92962 0.13496 0.73239 0.0
C947 C 0.8601 0.09196 0.73955 0.0
C948 C 0.9076 0.07032 0.74726 0.0
C949 C 0.93908 0.10681 0.74015 0.0
O950 O 0.8466 0.16284 0.75397 0.0
O951 O 0.83269 0.17894 0.69362 0.0
O952 O 0.85815 0.24069 0.67603 0.0
O953 O 0.89873 0.23933 0.70903 0.0
O954 O 0.81232 0.13627 0.72163 0.0
O955 O 0.90299 0.21623 0.74975 0.0
O956 O 0.88338 0.20614 0.61477 0.0
O957 O 0.89794 0.18907 0.67542 0.0
O958 O 0.87452 0.1289 0.69249 0.0
O959 O 0.83062 0.12754 0.6612 0.0
O960 O 0.91753 0.2324 0.64816 0.0
O961 O 0.83247 0.14916 0.62048 0.0
C962 C 0.80131 0.15191 0.70412 0.0
C963 C 0.88471 0.18746 0.79154 0.0
C964 C 0.87766 0.18919 0.83853 0.0
C965 C 0.86917 0.19665 0.8134 0.0
C966 C 0.90199 0.17248 0.84143 0.0
C967 C 0.90931 0.17126 0.79488 0.0
C968 C 0.91782 0.16377 0.81971 0.0
C969 C 0.88182 0.25605 0.69617 0.0
C970 C 0.87366 0.19349 0.76549 0.0
C971 C 0.97957 0.11627 0.74126 0.0
C972 C 1.01026 0.1539 0.7358 0.0
C973 C 0.92917 0.21681 0.6653 0.0
C974 C 0.84494 0.17564 0.57814 0.0
C975 C 0.86299 0.17026 0.55589 0.0
C976 C 0.84931 0.17231 0.53102 0.0
C977 C 0.81774 0.18037 0.52887 0.0
C978 C 0.81331 0.18328 0.57544 0.0
C979 C 0.79993 0.18577 0.55094 0.0
C980 C 0.84831 0.11143 0.67403 0.0
C981 C 0.85934 0.17347 0.60404 0.0
H982 H 0.84998 0.20902 0.81083 0.0
H983 H 0.90937 0.16678 0.8605 0.0
H984 H 0.9218 0.16427 0.77836 0.0
H985 H 0.93678 0.15118 0.82213 0.0
H986 H 0.88714 0.16391 0.55799 0.0
H987 H 0.80699 0.18286 0.51008 0.0
H988 H 0.79891 0.18727 0.59222 0.0
H989 H 0.77563 0.19191 0.54906 0.0
C990 C 0.34239 0.91552 0.05585 0.0
C991 C 0.33897 0.8791 0.05593 0.0
H992 H 0.38039 0.97585 0.04899 0.0
C993 C 0.3716 0.87567 0.04648 0.0
H994 H 0.31762 0.91906 0.06262 0.0
C995 C 0.40771 0.90836 0.03869 0.0
C996 C 0.41148 0.94491 0.03969 0.0
H997 H 0.36993 0.84801 0.04639 0.0
H998 H 0.43312 0.90517 0.03299 0.0
C999 C 0.37821 0.948 0.04789 0.0
C1000 C 0.16132 0.49405 0.04668 0.0
C1001 C 0.15632 0.45835 0.05458 0.0
H1002 H 0.13219 0.52554 0.0351 0.0
C1003 C 0.11754 0.42591 0.05373 0.0
H1004 H 0.19069 0.51962 0.04724 0.0
C1005 C 0.08432 0.42929 0.04686 0.0
C1006 C 0.08885 0.46507 0.04017 0.0
H1007 H 0.11261 0.39789 0.05934 0.0
H1008 H 0.05471 0.40391 0.04746 0.0
C1009 C 0.12782 0.49743 0.03973 0.0
C1010 C 0.53986 0.67558 0.04363 0.0
C1011 C 0.57622 0.69903 0.05635 0.0
H1012 H 0.50308 0.62231 0.02444 0.0
C1013 C 0.6049 0.68704 0.05763 0.0
H1014 H 0.51701 0.68376 0.04234 0.0
C1015 C 0.59657 0.65165 0.04789 0.0
C1016 C 0.55969 0.62762 0.03613 0.0
H1017 H 0.63377 0.70483 0.06647 0.0
H1018 H 0.61898 0.64298 0.04983 0.0
C1019 C 0.53179 0.6403 0.03345 0.0
C1020 C 0.87735 0.32585 1.00274 0.0
C1021 C 0.87309 0.32001 0.97583 0.0
H1022 H 0.90977 0.36432 0.03329 0.0
C1023 C 0.89861 0.35072 0.95915 0.0
H1024 H 0.85879 0.30288 0.01626 0.0
C1025 C 0.92828 0.38559 0.96902 0.0
C1026 C 0.93277 0.39118 0.99584 0.0
H1027 H 0.89573 0.34797 0.93834 0.0
H1028 H 0.94746 0.40845 0.95557 0.0
C1029 C 0.9067 0.36112 0.0126 0.0
C1030 C 0.67644 0.5208 0.98888 0.0
C1031 C 0.70877 0.55545 0.97909 0.0
H1032 H 0.6147 0.49091 1.00227 0.0
C1033 C 0.70419 0.58801 0.97826 0.0
H1034 H 0.67884 0.49514 0.98971 0.0
C1035 C 0.66777 0.58563 0.98557 0.0
C1036 C 0.63487 0.55074 0.99418 0.0
H1037 H 0.72858 0.61532 0.97128 0.0
H1038 H 0.66494 0.61101 0.98378 0.0
C1039 C 0.63971 0.51838 0.99615 0.0
C1040 C 0.48081 0.12646 0.95826 0.0
C1041 C 0.4748 0.15089 0.97477 0.0
H1042 H 0.49243 0.07993 0.95508 0.0
C1043 C 0.47666 0.14652 1.00172 0.0
H1044 H 0.48058 0.1294 0.93742 0.0
C1045 C 0.48439 0.11855 0.01181 0.0
C1046 C 0.48976 0.09394 0.99525 0.0
H1047 H 0.47144 0.16422 0.01513 0.0
H1048 H 0.48502 0.11557 0.03253 0.0
C1049 C 0.48783 0.09815 0.96838 0.0
C1050 C 0.6605 0.14175 1.00175 0.0
C1051 C 0.69521 0.1391 0.99725 0.0
H1052 H 0.5961 0.11154 1.00576 0.0
C1053 C 0.69098 0.10294 0.99243 0.0
H1054 H 0.663 0.16934 1.00536 0.0
C1055 C 0.65289 0.06996 0.99293 0.0
C1056 C 0.61836 0.0724 0.99856 0.0
H1057 H 0.71719 0.1001 0.98868 0.0
H1058 H 0.65047 0.04237 0.98943 0.0
C1059 C 0.62236 0.10871 1.00224 0.0
C1060 C 0.88383 0.50749 1.00048 0.0
C1061 C 0.88732 0.5436 0.99632 0.0
H1062 H 0.91467 0.47548 1.00426 0.0
C1063 C 0.92575 0.57529 0.99115 0.0
H1064 H 0.85463 0.48258 1.0045 0.0
C1065 C 0.96004 0.57133 0.99131 0.0
C1066 C 0.95682 0.53573 0.99702 0.0
H1067 H 0.92946 0.60346 0.98778 0.0
H1068 H 0.98931 0.59644 0.98782 0.0
C1069 C 0.91822 0.50354 1.00067 0.0
C1070 C 0.51207 0.34893 0.01076 0.0
C1071 C 0.47626 0.32449 0.99813 0.0
H1072 H 0.55241 0.40581 0.02314 0.0
C1073 C 0.45391 0.33977 0.98708 0.0
H1074 H 0.53013 0.33784 0.01896 0.0
C1075 C 0.46636 0.37871 0.98965 0.0
C1076 C 0.50149 0.40297 1.00318 0.0
H1077 H 0.42651 0.32146 0.97683 0.0
H1078 H 0.44804 0.38954 0.98154 0.0
C1079 C 0.52464 0.38778 0.01319 0.0
C1080 C 0.12847 0.67859 0.04757 0.0
C1081 C 0.16802 0.69373 0.03784 0.0
H1082 H 0.07004 0.62873 0.05255 0.0
C1083 C 0.17972 0.66869 0.02732 0.0
H1084 H 0.11878 0.69729 0.05599 0.0
C1085 C 0.15203 0.62952 0.02556 0.0
C1086 C 0.11184 0.61451 0.03404 0.0
H1087 H 0.21011 0.67963 0.01991 0.0
H1088 H 0.162 0.61111 0.01703 0.0
C1089 C 0.10062 0.63932 0.04569 0.0
C1090 C 0.3819 0.50645 0.03496 0.0
C1091 C 0.34825 0.46986 0.03959 0.0
H1092 H 0.44631 0.54019 0.03074 0.0
C1093 C 0.35478 0.43903 0.04461 0.0
H1094 H 0.3778 0.53072 0.03103 0.0
C1095 C 0.39379 0.44433 0.04409 0.0
C1096 C 0.42724 0.48045 0.03819 0.0
H1097 H 0.32957 0.41053 0.04832 0.0
H1098 H 0.39775 0.4199 0.04771 0.0
C1099 C 0.42102 0.51174 0.03442 0.0
C1100 C 0.59638 0.90968 0.05119 0.0
C1101 C 0.57576 0.87307 0.04025 0.0
H1102 H 0.59926 0.96372 0.05627 0.0
C1103 C 0.53981 0.86194 0.02725 0.0
H1104 H 0.62386 0.91864 0.0617 0.0
C1105 C 0.52546 0.88749 0.02437 0.0
C1106 C 0.54698 0.92483 0.03425 0.0
H1107 H 0.52306 0.83357 0.01908 0.0
H1108 H 0.49765 0.878 0.01418 0.0
C1109 C 0.58217 0.93538 0.04818 0.0
C1110 C 1.00875 0.2495 0.38906 0.0
C1111 C 1.00531 0.21306 0.38902 0.0
H1112 H 0.04679 0.30987 0.38236 0.0
C1113 C 0.03795 0.20968 0.37955 0.0
H1114 H 0.98397 0.25301 0.39586 0.0
C1115 C 0.07408 0.2424 0.37184 0.0
C1116 C 0.07787 0.27896 0.37293 0.0
H1117 H 0.03627 0.18202 0.37937 0.0
H1118 H 0.09948 0.23923 0.36612 0.0
C1119 C 0.0446 0.28202 0.38118 0.0
C1120 C 0.82743 0.82803 0.38014 0.0
C1121 C 0.82247 0.79237 0.38808 0.0
H1122 H 0.79824 0.85943 0.36846 0.0
C1123 C 0.78371 0.75989 0.38722 0.0
H1124 H 0.85677 0.85363 0.3807 0.0
C1125 C 0.75048 0.7632 0.38029 0.0
C1126 C 0.75496 0.79895 0.37355 0.0
H1127 H 0.77881 0.73188 0.39284 0.0
H1128 H 0.72089 0.7378 0.38088 0.0
C1129 C 0.7939 0.83134 0.37313 0.0
C1130 C 0.23551 0.02531 0.3671 0.0
C1131 C 0.23651 0.03033 0.3941 0.0
H1132 H 0.22811 0.98746 0.33599 0.0
C1133 C 0.22844 0.99909 0.41039 0.0
H1134 H 0.24202 0.04882 0.35394 0.0
C1135 C 0.22121 0.96436 0.40004 0.0
C1136 C 0.22103 0.95963 0.37315 0.0
H1137 H 0.22778 1.0014 0.43125 0.0
H1138 H 0.21547 0.94102 0.41317 0.0
C1139 C 0.22758 0.99016 0.35674 0.0
C1140 C 0.54331 0.65973 0.33582 0.0
C1141 C 0.53894 0.6542 0.30888 0.0
H1142 H 0.57584 0.69791 0.3665 0.0
C1143 C 0.56418 0.68518 0.29231 0.0
H1144 H 0.52493 0.63655 0.34925 0.0
C1145 C 0.59379 0.71998 0.30229 0.0
C1146 C 0.59849 0.72523 0.32912 0.0
H1147 H 0.56118 0.68267 0.2715 0.0
H1148 H 0.6128 0.74303 0.28892 0.0
C1149 C 0.5726 0.69495 0.3458 0.0
C1150 C 0.37133 0.92357 0.31283 0.0
C1151 C 0.37572 0.89089 0.31335 0.0
H1152 H 0.33232 0.94675 0.31877 0.0
C1153 C 0.34329 0.85619 0.32298 0.0
H1154 H 0.3958 0.9509 0.30595 0.0
C1155 C 0.30664 0.85384 0.33037 0.0
C1156 C 0.30198 0.88634 0.32876 0.0
H1157 H 0.34554 0.83043 0.32357 0.0
H1158 H 0.28156 0.82631 0.33631 0.0
C1159 C 0.335 0.92127 0.32032 0.0
C1160 C 0.14792 0.46073 0.29137 0.0
C1161 C 0.1423 0.48546 0.30782 0.0
H1162 H 0.15899 0.41386 0.28831 0.0
C1163 C 0.14436 0.48131 0.33478 0.0
H1164 H 0.14756 0.4635 0.27053 0.0
C1165 C 0.15186 0.45322 0.34493 0.0
C1166 C 0.15678 0.42828 0.32844 0.0
H1167 H 0.13946 0.49927 0.34814 0.0
H1168 H 0.15266 0.45043 0.36566 0.0
C1169 C 0.1547 0.43232 0.30157 0.0
C1170 C 0.35735 0.43635 0.3252 0.0
C1171 C 0.36181 0.4726 0.32998 0.0
H1172 H 0.31662 0.37581 0.32237 0.0
C1173 C 0.32722 0.47542 0.33466 0.0
H1174 H 0.38345 0.43338 0.32133 0.0
C1175 C 0.28901 0.44246 0.33532 0.0
C1176 C 0.2848 0.40607 0.33163 0.0
H1177 H 0.32989 0.50307 0.33827 0.0
H1178 H 0.26286 0.44543 0.33894 0.0
C1179 C 0.31919 0.40346 0.32586 0.0
C1180 C 0.55021 0.84197 0.33411 0.0
C1181 C 0.55388 0.87817 0.33002 0.0
H1182 H 0.58079 0.80971 0.33771 0.0
C1183 C 0.59237 0.90976 0.3248 0.0
H1184 H 0.52096 0.81715 0.33816 0.0
C1185 C 0.62654 0.90559 0.32482 0.0
C1186 C 0.62314 0.8699 0.33047 0.0
H1187 H 0.59622 0.93799 0.32147 0.0
H1188 H 0.65586 0.93061 0.32129 0.0
C1189 C 0.58448 0.83783 0.33418 0.0
C1190 C 0.18101 0.68436 0.34278 0.0
C1191 C 0.14486 0.65967 0.33057 0.0
H1192 H 0.2214 0.7414 0.35489 0.0
C1193 C 0.12207 0.67469 0.31984 0.0
H1194 H 0.19941 0.67346 0.35072 0.0
C1195 C 0.13435 0.71359 0.32241 0.0
C1196 C 0.16975 0.73806 0.33562 0.0
H1197 H 0.0944 0.6562 0.30991 0.0
H1198 H 0.11564 0.7242 0.31462 0.0
C1199 C 0.19341 0.72317 0.3452 0.0
C1200 C 0.7948 0.01251 0.38064 0.0
C1201 C 0.83432 0.02758 0.37086 0.0
H1202 H 0.73635 0.96271 0.38571 0.0
C1203 C 0.84594 1.00248 0.36035 0.0
H1204 H 0.78517 0.03126 0.38904 0.0
C1205 C 0.81819 0.96331 0.35865 0.0
C1206 C 0.77803 0.94836 0.36718 0.0
H1207 H 0.8763 0.01336 0.3529 0.0
H1208 H 0.8281 0.94484 0.35013 0.0
C1209 C 0.7669 0.97325 0.37882 0.0
C1210 C 0.04845 0.841 0.36813 0.0
C1211 C 1.01462 0.8046 0.37296 0.0
H1212 H 0.11289 0.87422 0.36357 0.0
C1213 C 1.02084 0.77363 0.37817 0.0
H1214 H 0.04459 0.86538 0.36408 0.0
C1215 C 0.05969 0.77857 0.37754 0.0
C1216 C 0.09331 0.81446 0.37137 0.0
H1217 H 0.99548 0.74527 0.38206 0.0
H1218 H 0.06338 0.75399 0.38122 0.0
C1219 C 0.08744 0.84594 0.3675 0.0
C1220 C 0.20452 0.19502 0.3606 0.0
C1221 C 0.24061 0.20594 0.37336 0.0
H1222 H 0.16267 0.21157 0.3477 0.0
C1223 C 0.26178 0.24265 0.38412 0.0
H1224 H 0.18732 0.16656 0.35264 0.0
C1225 C 0.24797 0.26867 0.3811 0.0
C1226 C 0.21265 0.25832 0.36739 0.0
H1227 H 0.28934 0.25141 0.39448 0.0
H1228 H 0.26546 0.29708 0.38903 0.0
C1229 C 0.19059 0.22089 0.35772 0.0
C1230 C 0.67474 0.58286 0.72239 0.0
C1231 C 0.67109 0.54633 0.72243 0.0
H1232 H 0.713 0.64315 0.71552 0.0
C1233 C 0.7036 0.54273 0.71294 0.0
H1234 H 0.65007 0.58655 0.72917 0.0
C1235 C 0.73979 0.57532 0.70511 0.0
C1236 C 0.74378 0.61196 0.70614 0.0
H1237 H 0.70178 0.51501 0.71281 0.0
H1238 H 0.76508 0.57199 0.69937 0.0
C1239 C 0.71065 0.61523 0.7144 0.0
C1240 C 0.45077 0.09279 0.72099 0.0
C1241 C 0.48954 0.12527 0.72181 0.0
H1242 H 0.38794 0.07066 0.71468 0.0
C1243 C 0.49446 0.16092 0.71385 0.0
H1244 H 0.4459 0.0648 0.72662 0.0
C1245 C 0.46091 0.16421 0.70685 0.0
C1246 C 0.42197 0.1318 0.7073 0.0
H1247 H 0.5238 0.18653 0.71438 0.0
H1248 H 0.46523 0.19228 0.70216 0.0
C1249 C 0.41752 0.09608 0.71407 0.0
C1250 C 0.8955 0.33222 0.74362 0.0
C1251 C 0.90331 0.36338 0.72731 0.0
H1252 H 0.88288 0.27426 0.74642 0.0
C1253 C 0.90224 0.35831 0.70031 0.0
H1254 H 0.8949 0.33456 0.76447 0.0
C1255 C 0.89447 0.3232 0.68997 0.0
C1256 C 0.88816 0.29276 0.70639 0.0
H1257 H 0.90856 0.38174 0.68714 0.0
H1258 H 0.89492 0.32046 0.66922 0.0
C1259 C 0.88845 0.29754 0.73328 0.0
C1260 C 0.2102 0.99241 0.66968 0.0
C1261 C 0.20595 0.98658 0.64276 0.0
H1262 H 0.24261 0.03087 0.70024 0.0
C1263 C 0.2315 0.0173 0.6261 0.0
H1264 H 0.19161 0.96944 0.6832 0.0
C1265 C 0.26119 0.05216 0.63598 0.0
C1266 C 0.26567 0.05773 0.6628 0.0
H1267 H 0.22863 0.01457 0.60529 0.0
H1268 H 0.28038 0.07501 0.62254 0.0
C1269 C 0.23955 0.02768 0.67955 0.0
C1270 C 1.0104 0.18925 0.65613 0.0
C1271 C 0.04282 0.22396 0.6465 0.0
H1272 H 0.94868 0.15936 0.66948 0.0
C1273 C 0.03842 0.25663 0.64599 0.0
H1274 H 1.01265 0.16349 0.6567 0.0
C1275 C 1.00209 0.25432 0.6535 0.0
C1276 C 0.96907 0.21938 0.66194 0.0
H1277 H 0.06287 0.28397 0.63912 0.0
H1278 H 0.9994 0.2798 0.65196 0.0
C1279 C 0.97375 0.18689 0.66354 0.0
C1280 C 0.81084 0.81431 0.66792 0.0
C1281 C 0.80878 0.81845 0.64096 0.0
H1282 H 0.81904 0.78338 0.69882 0.0
C1283 C 0.8143 0.79365 0.62453 0.0
H1284 H 0.80601 0.83232 0.68128 0.0
C1285 C 0.82098 0.76518 0.63473 0.0
C1286 C 0.82305 0.76116 0.66161 0.0
H1287 H 0.81393 0.79641 0.60368 0.0
H1288 H 0.82519 0.74667 0.62149 0.0
C1289 C 0.81824 0.78617 0.67809 0.0
C1290 C 0.02344 0.76927 0.65882 0.0
C1291 C 0.02781 0.80545 0.66375 0.0
H1292 H 0.98278 0.70875 0.65566 0.0
C1293 C 0.99316 0.8082 0.66829 0.0
H1294 H 0.04961 0.76635 0.65505 0.0
C1295 C 0.95496 0.77523 0.6687 0.0
C1296 C 0.95082 0.73889 0.66491 0.0
H1297 H 0.99575 0.8358 0.67199 0.0
H1298 H 0.92876 0.77814 0.67224 0.0
C1299 C 0.98529 0.73635 0.65924 0.0
C1300 C 0.2594 0.24248 0.658 0.0
C1301 C 0.22087 0.21095 0.66318 0.0
H1302 H 0.32288 0.26326 0.65465 0.0
C1303 C 0.21712 0.17473 0.66737 0.0
H1304 H 0.26331 0.27072 0.65461 0.0
C1305 C 0.25137 0.17053 0.66757 0.0
C1306 C 0.29007 0.20256 0.6639 0.0
H1307 H 0.18784 0.14995 0.6714 0.0
H1308 H 0.24762 0.14241 0.67118 0.0
C1309 C 0.29354 0.23826 0.65816 0.0
C1310 C 0.84798 0.01742 0.6761 0.0
C1311 C 0.81182 0.99275 0.66389 0.0
H1312 H 0.8884 0.07445 0.68819 0.0
C1313 C 0.78904 0.00779 0.65317 0.0
H1314 H 0.86636 0.0065 0.68403 0.0
C1315 C 0.80136 0.0467 0.65573 0.0
C1316 C 0.83676 0.07114 0.66893 0.0
H1317 H 0.76137 0.98931 0.64323 0.0
H1318 H 0.78267 0.05733 0.64794 0.0
C1319 C 0.86041 0.05623 0.67852 0.0
C1320 C 0.51245 0.33553 0.69393 0.0
C1321 C 0.5006 0.36054 0.70432 0.0
H1322 H 0.49495 0.27792 0.68387 0.0
C1323 C 0.46105 0.34533 0.71407 0.0
H1324 H 0.54284 0.34653 0.68653 0.0
C1325 C 0.43333 0.30601 0.71232 0.0
C1326 C 0.44468 0.28122 0.70078 0.0
H1327 H 0.45126 0.364 0.7224 0.0
H1328 H 0.40274 0.29536 0.71918 0.0
C1329 C 0.48488 0.29631 0.6923 0.0
C1330 C 0.71557 0.17413 0.7016 0.0
C1331 C 0.68176 0.13772 0.70645 0.0
H1332 H 0.78 0.20736 0.69697 0.0
C1333 C 0.688 0.10676 0.71163 0.0
H1334 H 0.7117 0.1985 0.69756 0.0
C1335 C 0.72686 0.11171 0.71095 0.0
C1336 C 0.76046 0.1476 0.70476 0.0
H1337 H 0.66266 0.07839 0.71553 0.0
H1338 H 0.73056 0.08713 0.71461 0.0
C1339 C 0.75457 0.17907 0.70091 0.0
C1340 C 0.87041 0.52766 0.69358 0.0
C1341 C 0.90645 0.53851 0.70639 0.0
H1342 H 0.82863 0.54428 0.68064 0.0
C1343 C 0.92756 0.57517 0.71723 0.0
H1344 H 0.85324 0.49923 0.68556 0.0
C1345 C 0.91378 0.60121 0.71423 0.0
C1346 C 0.87853 0.59093 0.70045 0.0
H1347 H 0.95507 0.58387 0.72764 0.0
H1348 H 0.93124 0.62958 0.72222 0.0
C1349 C 0.85651 0.55354 0.69071 0.0
C1350 C 0.52187 0.96117 0.23818 0.0
C1351 C 0.4802 0.93659 0.24163 0.0
H1352 H 0.56981 1.00123 0.2134 0.0
C1353 C 0.45472 0.93326 0.22119 0.0
H1354 H 0.54243 0.96476 0.2535 0.0
C1355 C 0.47047 0.95456 0.19815 0.0
C1356 C 0.51208 0.97986 0.19504 0.0
H1357 H 0.42252 0.91423 0.22302 0.0
H1358 H 0.44995 0.95199 0.18307 0.0
C1359 C 0.53756 0.98244 0.21524 0.0
C1360 C 0.08389 0.50852 0.21909 0.0
C1361 C 0.07924 0.52824 0.24003 0.0
H1362 H 0.06542 0.48656 0.18099 0.0
C1363 C 0.05137 0.54108 0.23813 0.0
H1364 H 0.10536 0.49854 0.21985 0.0
C1365 C 0.02901 0.53477 0.21577 0.0
C1366 C 0.03373 0.51522 0.19477 0.0
H1367 H 0.04663 0.55592 0.25402 0.0
H1368 H 1.00835 0.54569 0.21484 0.0
C1369 C 0.06138 0.50208 0.1967 0.0
C1370 C 0.49992 0.51965 0.23756 0.0
C1371 C 0.50369 0.55606 0.23971 0.0
H1372 H 0.51068 0.48175 0.21412 0.0
C1373 C 0.51978 0.58189 0.21862 0.0
H1374 H 0.48778 0.49924 0.25354 0.0
C1375 C 0.53262 0.57184 0.19605 0.0
C1376 C 0.53012 0.53592 0.1942 0.0
H1377 H 0.52272 0.61005 0.21967 0.0
H1378 H 0.54564 0.59264 0.18033 0.0
C1379 C 0.51328 0.50978 0.2151 0.0
C1380 C 1.00544 0.49823 0.79752 0.0
C1381 C 0.97162 0.46137 0.79594 0.0
H1382 H 0.05488 0.53771 0.82048 0.0
C1383 C 0.96122 0.43589 0.8171 0.0
H1384 H 1.01418 0.51831 0.7814 0.0
C1385 C 0.98427 0.44701 0.83942 0.0
C1386 C 1.01844 0.48366 0.84088 0.0
H1387 H 0.93511 0.40739 0.81641 0.0
H1388 H 0.97575 0.42673 0.8554 0.0
C1389 C 0.02883 0.50919 0.81974 0.0
C1390 C 0.5244 0.47361 0.79679 0.0
C1391 C 0.56632 0.49004 0.79388 0.0
H1392 H 0.47506 0.46497 0.82119 0.0
C1393 C 0.5909 0.51088 0.81457 0.0
H1394 H 0.50456 0.45772 0.78119 0.0
C1395 C 0.57391 0.51536 0.83754 0.0
C1396 C 0.53198 0.4993 0.84026 0.0
H1397 H 0.62327 0.52358 0.81307 0.0
H1398 H 0.59366 0.53206 0.85296 0.0
C1399 C 0.50748 0.47814 0.81966 0.0
C1400 C 0.56116 0.08166 0.81366 0.0
C1401 C 0.53422 0.07113 0.793 0.0
H1402 H 0.57181 0.06814 0.85201 0.0
C1403 C 0.49637 0.03773 0.79577 0.0
H1404 H 0.59043 0.10735 0.8123 0.0
C1405 C 0.48553 0.01571 0.81853 0.0
C1406 C 0.5123 0.02608 0.83925 0.0
H1407 H 0.47498 0.02836 0.7802 0.0
H1408 H 0.45584 0.99056 0.81993 0.0
C1409 C 0.55028 0.05945 0.83656 0.0
C1410 C 0.1889 0.29448 0.57125 0.0
C1411 C 0.14724 0.26986 0.57473 0.0
H1412 H 0.23676 0.33467 0.54648 0.0
C1413 C 0.12171 0.26656 0.55433 0.0
H1414 H 0.2095 0.29805 0.58654 0.0
C1415 C 0.13739 0.28794 0.53131 0.0
C1416 C 0.17898 0.3133 0.52818 0.0
H1417 H 0.08952 0.24749 0.55617 0.0
H1418 H 0.11682 0.28539 0.51627 0.0
C1419 C 0.20452 0.31584 0.54833 0.0
C1420 C 0.75041 0.84182 0.55227 0.0
C1421 C 0.74585 0.86151 0.57326 0.0
H1422 H 0.73182 0.81998 0.51415 0.0
C1423 C 0.71802 0.87442 0.57145 0.0
H1424 H 0.77184 0.83179 0.55296 0.0
C1425 C 0.69561 0.86819 0.54913 0.0
C1426 C 0.70023 0.84868 0.52807 0.0
H1427 H 0.71336 0.88924 0.58738 0.0
H1428 H 0.67498 0.87915 0.54827 0.0
C1429 C 0.72784 0.83548 0.52991 0.0
C1430 C 0.18602 0.9132 0.55286 0.0
C1431 C 0.1696 0.88757 0.57403 0.0
H1432 H 0.21152 0.92319 0.5145 0.0
C1433 C 0.16496 0.8508 0.57199 0.0
H1434 H 0.18962 0.94163 0.55382 0.0
C1435 C 0.1777 0.84033 0.54953 0.0
C1436 C 0.1948 0.86623 0.52853 0.0
H1437 H 0.15254 0.83053 0.58803 0.0
H1438 H 0.17436 0.81201 0.54861 0.0
C1439 C 0.19827 0.90257 0.53029 0.0
C1440 C 0.67057 0.78542 0.13138 0.0
C1441 C 0.63805 0.79197 0.12875 0.0
H1442 H 0.71783 0.79014 0.15526 0.0
C1443 C 0.62918 0.8099 0.149 0.0
H1444 H 0.67867 0.77221 0.11601 0.0
C1445 C 0.65224 0.82092 0.17138 0.0
C1446 C 0.68464 0.81417 0.17404 0.0
H1447 H 0.60416 0.8151 0.1477 0.0
H1448 H 0.64491 0.83508 0.18649 0.0
C1449 C 0.69344 0.79622 0.15377 0.0
C1450 C 0.25964 0.84376 0.14828 0.0
C1451 C 0.2349 0.82277 0.12768 0.0
H1452 H 0.26272 0.86542 0.18656 0.0
C1453 C 0.19301 0.80642 0.1307 0.0
H1454 H 0.292 0.8564 0.1467 0.0
C1455 C 0.17629 0.81125 0.15355 0.0
C1456 C 0.20096 0.83266 0.17402 0.0
H1457 H 0.17304 0.79042 0.11518 0.0
H1458 H 0.14388 0.79817 0.15516 0.0
C1459 C 0.24285 0.84856 0.17123 0.0
C1460 C 0.16264 0.3711 0.12888 0.0
C1461 C 0.2006 0.40434 0.12605 0.0
H1462 H 0.12193 0.32417 0.15314 0.0
C1463 C 0.22755 0.41485 0.14671 0.0
H1464 H 0.14124 0.36175 0.11332 0.0
C1465 C 0.21657 0.39276 0.16966 0.0
C1466 C 0.17848 0.35955 0.17241 0.0
H1467 H 0.25691 0.44043 0.14529 0.0
H1468 H 0.2381 0.40142 0.1851 0.0
C1469 C 0.1517 0.34921 0.1517 0.0
C1470 C 0.85514 0.62619 0.90418 0.0
C1471 C 0.8135 0.60143 0.90757 0.0
H1472 H 0.90301 0.66662 0.87952 0.0
C1473 C 0.788 0.59811 0.88715 0.0
H1474 H 0.87571 0.62978 0.91949 0.0
C1475 C 0.8037 0.61964 0.86419 0.0
C1476 C 0.84527 0.64516 0.86115 0.0
H1477 H 0.75582 0.57893 0.88892 0.0
H1478 H 0.78315 0.61709 0.84914 0.0
C1479 C 0.87078 0.64769 0.88131 0.0
C1480 C 0.38374 0.20655 0.90522 0.0
C1481 C 0.41172 0.19383 0.90706 0.0
H1482 H 0.34077 0.21124 0.88194 0.0
C1483 C 0.41657 0.17437 0.88604 0.0
H1484 H 0.37884 0.22118 0.92117 0.0
C1485 C 0.39416 0.16808 0.86361 0.0
C1486 C 0.36641 0.18112 0.86173 0.0
H1487 H 0.43812 0.16448 0.88675 0.0
H1488 H 0.39835 0.15275 0.84782 0.0
C1489 C 0.3615 0.2004 0.88282 0.0
C1490 C 0.85315 0.24645 0.88602 0.0
C1491 C 0.83672 0.22086 0.90721 0.0
H1492 H 0.87866 0.25638 0.84767 0.0
C1493 C 0.8321 0.18409 0.90521 0.0
H1494 H 0.85673 0.27487 0.88695 0.0
C1495 C 0.84486 0.17358 0.88277 0.0
C1496 C 0.86196 0.19945 0.86175 0.0
H1497 H 0.81968 0.16385 0.92127 0.0
H1498 H 0.84152 0.14526 0.88188 0.0
C1499 C 0.8654 0.23578 0.86348 0.0
C1500 C 0.29461 0.10254 0.48397 0.0
C1501 C 0.30521 0.12806 0.46282 0.0
H1502 H 0.30891 0.09321 0.5223 0.0
C1503 C 0.33917 0.16483 0.46444 0.0
H1504 H 0.26838 0.07411 0.48325 0.0
C1505 C 0.3625 0.17564 0.48669 0.0
C1506 C 0.3519 0.15007 0.50782 0.0
H1507 H 0.34807 0.18494 0.44833 0.0
H1508 H 0.38867 0.20409 0.48746 0.0
C1509 C 0.31759 0.11352 0.50632 0.0
C1510 C 0.8594 0.13984 0.46386 0.0
C1511 C 0.9013 0.1563 0.46078 0.0
H1512 H 0.8103 0.13136 0.48842 0.0
C1513 C 0.92608 0.17725 0.48137 0.0
H1514 H 0.83941 0.12386 0.44834 0.0
C1515 C 0.90931 0.18192 0.50438 0.0
C1516 C 0.86742 0.16591 0.50723 0.0
H1517 H 0.95844 0.18997 0.47974 0.0
H1518 H 0.92921 0.19876 0.5197 0.0
C1519 C 0.84271 0.14452 0.48677 0.0
C1520 C 0.89374 0.74858 0.48007 0.0
C1521 C 0.86685 0.73812 0.45937 0.0
H1522 H 0.90423 0.73499 0.51843 0.0
C1523 C 0.82895 0.70479 0.46211 0.0
H1524 H 0.92305 0.77423 0.47872 0.0
C1525 C 0.818 0.68276 0.48487 0.0
C1526 C 0.84471 0.69305 0.50561 0.0
H1527 H 0.8076 0.69547 0.44652 0.0
H1528 H 0.78827 0.65766 0.48624 0.0
C1529 C 0.88274 0.72636 0.50296 0.0
loop_
_geom_bond_atom_site_label_1
_geom_bond_atom_site_label_2
_geom_bond_distance
_geom_bond_site_symmetry_2
_ccdc_geom_bond_type
H0 C7 0.929 . S
H1 C10 0.930 . S
H2 C12 0.929 . S
H3 C4 0.969 . S
C4 H3 0.969 . S
C4 O5 1.550 . S
C4 H6 0.973 . S
O5 C4 1.550 . S
O5 C11 1.412 . S
H6 C4 0.973 . S
C7 H0 0.929 . S
C7 C8 1.400 . S
C7 C9 1.364 . S
C8 C7 1.400 . S
C8 C12 1.377 . S
C9 C7 1.364 . S
C9 C10 1.374 . S
C10 H1 0.930 . S
C10 C9 1.374 . S
C10 C11 1.383 . S
C11 O5 1.412 . S
C11 C10 1.383 . S
C11 C12 1.394 . S
C12 H2 0.929 . S
C12 C8 1.377 . S
C12 C11 1.394 . S
H13 C20 0.929 . S
H14 C23 0.930 . S
H15 C25 0.929 . S
H16 C17 0.969 . S
C17 H16 0.969 . S
C17 O18 1.550 . S
C17 H19 0.973 . S
O18 C17 1.550 . S
O18 C24 1.412 . S
H19 C17 0.973 . S
C20 H13 0.929 . S
C20 C21 1.400 . S
C20 C22 1.364 . S
C21 C20 1.400 . S
C21 C25 1.377 . S
C22 C20 1.364 . S
C22 C23 1.374 . S
C23 H14 0.930 . S
C23 C22 1.374 . S
C23 C24 1.383 . S
C24 O18 1.412 . S
C24 C23 1.383 . S
C24 C25 1.394 . S
C25 H15 0.929 . S
C25 C21 1.377 . S
C25 C24 1.394 . S
H26 C33 0.929 . S
H27 C36 0.930 . S
H28 C38 0.929 . S
H29 C30 0.969 . S
C30 H29 0.969 . S
C30 O31 1.550 . S
C30 H32 0.973 . S
O31 C30 1.550 . S
O31 C37 1.412 . S
H32 C30 0.973 . S
C33 H26 0.929 . S
C33 C34 1.400 . S
C33 C35 1.364 . S
C34 C33 1.400 . S
C34 C38 1.377 . S
C35 C33 1.364 . S
C35 C36 1.374 . S
C36 H27 0.930 . S
C36 C35 1.374 . S
C36 C37 1.383 . S
C37 O31 1.412 . S
C37 C36 1.383 . S
C37 C38 1.394 . S
C38 H28 0.929 . S
C38 C34 1.377 . S
C38 C37 1.394 . S
H39 C46 0.929 . S
H40 C49 0.930 . S
H41 C51 0.929 . S
H42 C43 0.969 . S
C43 H42 0.969 . S
C43 O44 1.550 . S
C43 H45 0.973 . S
O44 C43 1.550 . S
O44 C50 1.412 . S
H45 C43 0.973 . S
C46 H39 0.929 . S
C46 C47 1.400 . S
C46 C48 1.364 . S
C47 C46 1.400 . S
C47 C51 1.377 . S
C48 C46 1.364 . S
C48 C49 1.374 . S
C49 H40 0.930 . S
C49 C48 1.374 . S
C49 C50 1.383 . S
C50 O44 1.412 . S
C50 C49 1.383 . S
C50 C51 1.394 . S
C51 H41 0.929 . S
C51 C47 1.377 . S
C51 C50 1.394 . S
H52 C59 0.929 . S
H53 C62 0.930 . S
H54 C64 0.929 . S
H55 C56 0.969 . S
C56 H55 0.969 . S
C56 O57 1.550 . S
C56 H58 0.973 . S
O57 C56 1.550 . S
O57 C63 1.412 . S
H58 C56 0.973 . S
C59 H52 0.929 . S
C59 C60 1.400 . S
C59 C61 1.364 . S
C60 C59 1.400 . S
C60 C64 1.377 . S
C61 C59 1.364 . S
C61 C62 1.374 . S
C62 H53 0.930 . S
C62 C61 1.374 . S
C62 C63 1.383 . S
C63 O57 1.412 . S
C63 C62 1.383 . S
C63 C64 1.394 . S
C64 H54 0.929 . S
C64 C60 1.377 . S
C64 C63 1.394 . S
H65 C72 0.929 . S
H66 C75 0.930 . S
H67 C77 0.929 . S
H68 C69 0.969 . S
C69 H68 0.969 . S
C69 O70 1.550 . S
C69 H71 0.973 . S
O70 C69 1.550 . S
O70 C76 1.412 . S
H71 C69 0.973 . S
C72 H65 0.929 . S
C72 C73 1.400 . S
C72 C74 1.364 . S
C73 C72 1.400 . S
C73 C77 1.377 . S
C74 C72 1.364 . S
C74 C75 1.374 . S
C75 H66 0.930 . S
C75 C74 1.374 . S
C75 C76 1.383 . S
C76 O70 1.412 . S
C76 C75 1.383 . S
C76 C77 1.394 . S
C77 H67 0.929 . S
C77 C73 1.377 . S
C77 C76 1.394 . S
H78 C85 0.929 . S
H79 C88 0.930 . S
H80 C90 0.929 . S
H81 C82 0.969 . S
C82 H81 0.969 . S
C82 O83 1.550 . S
C82 H84 0.973 . S
O83 C82 1.550 . S
O83 C89 1.412 . S
H84 C82 0.973 . S
C85 H78 0.929 . S
C85 C86 1.400 . S
C85 C87 1.364 . S
C86 C85 1.400 . S
C86 C90 1.377 . S
C87 C85 1.364 . S
C87 C88 1.374 . S
C88 H79 0.930 . S
C88 C87 1.374 . S
C88 C89 1.383 . S
C89 O83 1.412 . S
C89 C88 1.383 . S
C89 C90 1.394 . S
C90 H80 0.929 . S
C90 C86 1.377 . S
C90 C89 1.394 . S
H91 C98 0.929 . S
H92 C101 0.930 . S
H93 C103 0.929 . S
H94 C95 0.969 . S
C95 H94 0.969 . S
C95 O96 1.550 . S
C95 H97 0.973 . S
O96 C95 1.550 . S
O96 C102 1.412 . S
H97 C95 0.973 . S
C98 H91 0.929 . S
C98 C99 1.400 . S
C98 C100 1.364 . S
C99 C98 1.400 . S
C99 C103 1.377 . S
C100 C98 1.364 . S
C100 C101 1.374 . S
C101 H92 0.930 . S
C101 C100 1.374 . S
C101 C102 1.383 . S
C102 O96 1.412 . S
C102 C101 1.383 . S
C102 C103 1.394 . S
C103 H93 0.929 . S
C103 C99 1.377 . S
C103 C102 1.394 . S
H104 C111 0.929 . S
H105 C114 0.930 . S
H106 C116 0.929 . S
H107 C108 0.969 . S
C108 H107 0.969 . S
C108 O109 1.550 . S
C108 H110 0.973 . S
O109 C108 1.550 . S
O109 C115 1.412 . S
H110 C108 0.973 . S
C111 H104 0.929 . S
C111 C112 1.400 . S
C111 C113 1.364 . S
C112 C111 1.400 . S
C112 C116 1.377 . S
C113 C111 1.364 . S
C113 C114 1.374 . S
C114 H105 0.930 . S
C114 C113 1.374 . S
C114 C115 1.383 . S
C115 O109 1.412 . S
C115 C114 1.383 . S
C115 C116 1.394 . S
C116 H106 0.929 . S
C116 C112 1.377 . S
C116 C115 1.394 . S
H117 C124 0.929 . S
H118 C127 0.930 . S
H119 C129 0.929 . S
H120 C121 0.969 . S
C121 H120 0.969 . S
C121 O122 1.550 . S
C121 H123 0.973 . S
O122 C121 1.550 . S
O122 C128 1.412 . S
H123 C121 0.973 . S
C124 H117 0.929 . S
C124 C125 1.400 . S
C124 C126 1.364 . S
C125 C124 1.400 . S
C125 C129 1.377 . S
C126 C124 1.364 . S
C126 C127 1.374 . S
C127 H118 0.930 . S
C127 C126 1.374 . S
C127 C128 1.383 . S
C128 O122 1.412 . S
C128 C127 1.383 . S
C128 C129 1.394 . S
C129 H119 0.929 . S
C129 C125 1.377 . S
C129 C128 1.394 . S
H130 C137 0.929 . S
H131 C140 0.930 . S
H132 C142 0.929 . S
H133 C134 0.969 . S
C134 H133 0.969 . S
C134 O135 1.550 . S
C134 H136 0.973 . S
O135 C134 1.550 . S
O135 C141 1.412 . S
H136 C134 0.973 . S
C137 H130 0.929 . S
C137 C138 1.400 . S
C137 C139 1.364 . S
C138 C137 1.400 . S
C138 C142 1.377 . S
C139 C137 1.364 . S
C139 C140 1.374 . S
C140 H131 0.930 . S
C140 C139 1.374 . S
C140 C141 1.383 . S
C141 O135 1.412 . S
C141 C140 1.383 . S
C141 C142 1.394 . S
C142 H132 0.929 . S
C142 C138 1.377 . S
C142 C141 1.394 . S
H143 C150 0.929 . S
H144 C153 0.930 . S
H145 C155 0.929 . S
H146 C147 0.969 . S
C147 H146 0.969 . S
C147 O148 1.550 . S
C147 H149 0.973 . S
O148 C147 1.550 . S
O148 C154 1.412 . S
H149 C147 0.973 . S
C150 H143 0.929 . S
C150 C151 1.400 . S
C150 C152 1.364 . S
C151 C150 1.400 . S
C151 C155 1.377 . S
C152 C150 1.364 . S
C152 C153 1.374 . S
C153 H144 0.930 . S
C153 C152 1.374 . S
C153 C154 1.383 . S
C154 O148 1.412 . S
C154 C153 1.383 . S
C154 C155 1.394 . S
C155 H145 0.929 . S
C155 C151 1.377 . S
C155 C154 1.394 . S
H156 C163 0.929 . S
H157 C166 0.930 . S
H158 C168 0.929 . S
H159 C160 0.969 . S
C160 H159 0.969 . S
C160 O161 1.550 . S
C160 H162 0.973 . S
O161 C160 1.550 . S
O161 C167 1.412 . S
H162 C160 0.973 . S
C163 H156 0.929 . S
C163 C164 1.400 . S
C163 C165 1.364 . S
C164 C163 1.400 . S
C164 C168 1.377 . S
C165 C163 1.364 . S
C165 C166 1.374 . S
C166 H157 0.930 . S
C166 C165 1.374 . S
C166 C167 1.383 . S
C167 O161 1.412 . S
C167 C166 1.383 . S
C167 C168 1.394 . S
C168 H158 0.929 . S
C168 C164 1.377 . S
C168 C167 1.394 . S
H169 C176 0.929 . S
H170 C179 0.930 . S
H171 C181 0.929 . S
H172 C173 0.969 . S
C173 H172 0.969 . S
C173 O174 1.550 . S
C173 H175 0.973 . S
O174 C173 1.550 . S
O174 C180 1.412 . S
H175 C173 0.973 . S
C176 H169 0.929 . S
C176 C177 1.400 . S
C176 C178 1.364 . S
C177 C176 1.400 . S
C177 C181 1.377 . S
C178 C176 1.364 . S
C178 C179 1.374 . S
C179 H170 0.930 . S
C179 C178 1.374 . S
C179 C180 1.383 . S
C180 O174 1.412 . S
C180 C179 1.383 . S
C180 C181 1.394 . S
C181 H171 0.929 . S
C181 C177 1.377 . S
C181 C180 1.394 . S
H182 C189 0.929 . S
H183 C192 0.930 . S
H184 C194 0.929 . S
H185 C186 0.969 . S
C186 H185 0.969 . S
C186 O187 1.550 . S
C186 H188 0.973 . S
O187 C186 1.550 . S
O187 C193 1.412 . S
H188 C186 0.973 . S
C189 H182 0.929 . S
C189 C190 1.400 . S
C189 C191 1.364 . S
C190 C189 1.400 . S
C190 C194 1.377 . S
C191 C189 1.364 . S
C191 C192 1.374 . S
C192 H183 0.930 . S
C192 C191 1.374 . S
C192 C193 1.383 . S
C193 O187 1.412 . S
C193 C192 1.383 . S
C193 C194 1.394 . S
C194 H184 0.929 . S
C194 C190 1.377 . S
C194 C193 1.394 . S
H195 C202 0.929 . S
H196 C205 0.930 . S
H197 C207 0.929 . S
H198 C199 0.969 . S
C199 H198 0.969 . S
C199 O200 1.550 . S
C199 H201 0.973 . S
O200 C199 1.550 . S
O200 C206 1.412 . S
H201 C199 0.973 . S
C202 H195 0.929 . S
C202 C203 1.400 . S
C202 C204 1.364 . S
C203 C202 1.400 . S
C203 C207 1.377 . S
C204 C202 1.364 . S
C204 C205 1.374 . S
C205 H196 0.930 . S
C205 C204 1.374 . S
C205 C206 1.383 . S
C206 O200 1.412 . S
C206 C205 1.383 . S
C206 C207 1.394 . S
C207 H197 0.929 . S
C207 C203 1.377 . S
C207 C206 1.394 . S
H208 C215 0.929 . S
H209 C218 0.930 . S
H210 C220 0.929 . S
H211 C212 0.969 . S
C212 H211 0.969 . S
C212 O213 1.550 . S
C212 H214 0.973 . S
O213 C212 1.550 . S
O213 C219 1.412 . S
H214 C212 0.973 . S
C215 H208 0.929 . S
C215 C216 1.400 . S
C215 C217 1.364 . S
C216 C215 1.400 . S
C216 C220 1.377 . S
C217 C215 1.364 . S
C217 C218 1.374 . S
C218 H209 0.930 . S
C218 C217 1.374 . S
C218 C219 1.383 . S
C219 O213 1.412 . S
C219 C218 1.383 . S
C219 C220 1.394 . S
C220 H210 0.929 . S
C220 C216 1.377 . S
C220 C219 1.394 . S
H221 C228 0.929 . S
H222 C231 0.930 . S
H223 C233 0.929 . S
H224 C225 0.969 . S
C225 H224 0.969 . S
C225 O226 1.550 . S
C225 H227 0.973 . S
O226 C225 1.550 . S
O226 C232 1.412 . S
H227 C225 0.973 . S
C228 H221 0.929 . S
C228 C229 1.400 . S
C228 C230 1.364 . S
C229 C228 1.400 . S
C229 C233 1.377 . S
C230 C228 1.364 . S
C230 C231 1.374 . S
C231 H222 0.930 . S
C231 C230 1.374 . S
C231 C232 1.383 . S
C232 O226 1.412 . S
C232 C231 1.383 . S
C232 C233 1.394 . S
C233 H223 0.929 . S
C233 C229 1.377 . S
C233 C232 1.394 . S
Eu234 N265 2.657 . S
Eu234 N272 2.609 . S
Eu234 O278 2.558 . S
Eu234 O279 2.612 1_566 S
Eu234 O281 2.339 1_565 S
Eu234 O282 2.563 1_565 S
Eu234 O283 2.419 1_565 S
Eu234 O285 2.380 1_556 S
Eu234 O286 2.432 . S
Eu234 C298 2.848 . S
C235 C238 1.429 . S
C235 C239 1.411 . S
C235 N242 1.377 . S
C236 C238 1.420 . S
C236 C240 1.423 . S
C236 C248 1.392 . S
C237 C239 1.420 . S
C237 C240 1.351 . S
C237 H260 0.931 . S
C238 C235 1.429 . S
C238 C236 1.420 . S
C238 N246 1.362 . S
C239 C235 1.411 . S
C239 C237 1.420 . S
C239 C244 1.395 . S
C240 C236 1.423 . S
C240 C237 1.351 . S
C240 H252 0.930 . S
C241 C243 1.400 . S
C241 C244 1.386 . S
C241 H253 0.930 . S
N242 C235 1.377 . S
N242 C243 1.321 . S
N242 Eu245 2.609 . S
C243 C241 1.400 . S
C243 N242 1.321 . S
C243 H250 0.930 . S
C244 C239 1.395 . S
C244 C241 1.386 . S
C244 H263 0.930 . S
Eu245 N242 2.609 . S
Eu245 N246 2.657 . S
Eu245 O279 2.380 . S
Eu245 O280 2.432 . S
Eu245 O284 2.558 . S
Eu245 O285 2.612 1_545 S
Eu245 O287 2.339 1_545 S
Eu245 O288 2.563 1_545 S
Eu245 O289 2.419 1_545 S
Eu245 C309 2.848 . S
N246 C238 1.362 . S
N246 Eu245 2.657 . S
N246 C247 1.334 . S
C247 N246 1.334 . S
C247 C249 1.413 . S
C247 H254 0.929 . S
C248 C236 1.392 . S
C248 C249 1.367 . S
C248 H256 0.930 . S
C249 C247 1.413 . S
C249 C248 1.367 . S
C249 H251 0.930 . S
H250 C243 0.930 . S
H251 C249 0.930 . S
H252 C240 0.930 . S
H253 C241 0.930 . S
H254 C247 0.929 . S
H255 C269 0.930 . S
H256 C248 0.930 . S
H257 C275 0.930 . S
H258 C266 0.929 . S
H259 C273 0.930 . S
H260 C237 0.931 . S
H261 C267 0.930 . S
H262 C300 0.930 . S
H263 C244 0.930 . S
H264 C299 0.931 . S
N265 Eu234 2.657 . S
N265 C266 1.334 . S
N265 C270 1.362 . S
C266 H258 0.929 . S
C266 N265 1.334 . S
C266 C269 1.413 . S
C267 H261 0.930 . S
C267 C268 1.392 . S
C267 C269 1.367 . S
C268 C267 1.392 . S
C268 C270 1.420 . S
C268 C300 1.423 . S
C269 H255 0.930 . S
C269 C266 1.413 . S
C269 C267 1.367 . S
C270 N265 1.362 . S
C270 C268 1.420 . S
C270 C274 1.429 . S
H271 C276 0.930 . S
N272 Eu234 2.609 . S
N272 C274 1.377 . S
N272 C275 1.321 . S
C273 H259 0.930 . S
C273 C275 1.400 . S
C273 C276 1.386 . S
C274 C270 1.429 . S
C274 N272 1.377 . S
C274 C277 1.411 . S
C275 H257 0.930 . S
C275 N272 1.321 . S
C275 C273 1.400 . S
C276 H271 0.930 . S
C276 C273 1.386 . S
C276 C277 1.395 . S
C277 C274 1.411 . S
C277 C276 1.395 . S
C277 C299 1.420 . S
O278 Eu234 2.558 . S
O278 C298 1.257 . S
O279 Eu234 2.612 1_544 S
O279 Eu245 2.380 . S
O279 C290 1.276 1_554 S
O280 Eu245 2.432 . S
O280 C297 1.264 1_554 S
O281 Eu234 2.339 1_545 S
O281 C297 1.254 . S
O282 Eu234 2.563 1_545 S
O282 C290 1.235 . S
O283 Eu234 2.419 1_545 S
O283 C298 1.249 1_545 S
O284 Eu245 2.558 . S
O284 C309 1.257 . S
O285 Eu234 2.380 1_554 S
O285 Eu245 2.612 1_565 S
O285 C301 1.276 . S
O286 Eu234 2.432 . S
O286 C308 1.264 1_556 S
O287 Eu245 2.339 1_565 S
O287 C308 1.254 . S
O288 Eu245 2.563 1_565 S
O288 C301 1.235 . S
O289 Eu245 2.419 1_565 S
O289 C309 1.249 1_565 S
C290 O279 1.276 1_556 S
C290 O282 1.235 . S
C291 C293 1.393 . S
C291 C295 1.395 1_545 S
C291 C298 1.492 1_545 S
C292 C293 1.392 . S
C292 C294 1.386 . S
C293 C291 1.393 . S
C293 C292 1.392 . S
C293 H310 0.930 . S
C294 C292 1.386 . S
C294 C296 1.395 1_545 S
C294 H311 0.930 . S
C295 C291 1.395 1_565 S
C295 C296 1.379 . S
C295 H312 0.930 . S
C296 C294 1.395 1_565 S
C296 C295 1.379 . S
C296 H313 0.930 . S
C297 O280 1.264 1_556 S
C297 O281 1.254 . S
C298 Eu234 2.848 . S
C298 O278 1.257 . S
C298 O283 1.249 1_565 S
C298 C291 1.492 1_565 S
C299 H264 0.931 . S
C299 C277 1.420 . S
C299 C300 1.351 . S
C300 H262 0.930 . S
C300 C268 1.423 . S
C300 C299 1.351 . S
C301 O285 1.276 . S
C301 O288 1.235 . S
C302 C303 1.393 1_545 S
C302 C306 1.395 . S
C302 C309 1.492 . S
C303 C302 1.393 1_565 S
C303 C304 1.392 . S
C303 H314 0.930 . S
C304 C303 1.392 . S
C304 C305 1.386 . S
C305 C304 1.386 . S
C305 C307 1.395 1_565 S
C305 H315 0.930 . S
C306 C302 1.395 . S
C306 C307 1.379 . S
C306 H316 0.930 . S
C307 C305 1.395 1_545 S
C307 C306 1.379 . S
C307 H317 0.930 . S
C308 O286 1.264 1_554 S
C308 O287 1.254 . S
C309 Eu245 2.848 . S
C309 O284 1.257 . S
C309 O289 1.249 1_545 S
C309 C302 1.492 . S
H310 C293 0.930 . S
H311 C294 0.930 . S
H312 C295 0.930 . S
H313 C296 0.930 . S
H314 C303 0.930 . S
H315 C305 0.930 . S
H316 C306 0.930 . S
H317 C307 0.930 . S
Eu318 N349 2.657 . S
Eu318 N356 2.609 . S
Eu318 O362 2.558 . S
Eu318 O363 2.612 1_456 S
Eu318 O365 2.339 1_455 S
Eu318 O366 2.563 1_455 S
Eu318 O367 2.419 1_455 S
Eu318 O369 2.380 1_556 S
Eu318 O370 2.432 . S
Eu318 C382 2.848 . S
C319 C322 1.429 . S
C319 C323 1.411 . S
C319 N326 1.377 . S
C320 C322 1.420 . S
C320 C324 1.423 . S
C320 C332 1.392 . S
C321 C323 1.420 . S
C321 C324 1.351 . S
C321 H344 0.931 . S
C322 C319 1.429 . S
C322 C320 1.420 . S
C322 N330 1.362 . S
C323 C319 1.411 . S
C323 C321 1.420 . S
C323 C328 1.395 . S
C324 C320 1.423 . S
C324 C321 1.351 . S
C324 H336 0.930 . S
C325 C327 1.400 . S
C325 C328 1.386 . S
C325 H337 0.930 . S
N326 C319 1.377 . S
N326 C327 1.321 . S
N326 Eu329 2.609 . S
C327 C325 1.400 . S
C327 N326 1.321 . S
C327 H334 0.930 . S
C328 C323 1.395 . S
C328 C325 1.386 . S
C328 H347 0.930 . S
Eu329 N326 2.609 . S
Eu329 N330 2.657 . S
Eu329 O363 2.380 . S
Eu329 O364 2.432 . S
Eu329 O368 2.558 . S
Eu329 O369 2.612 1_655 S
Eu329 O371 2.339 1_655 S
Eu329 O372 2.563 1_655 S
Eu329 O373 2.419 1_655 S
Eu329 C393 2.848 . S
N330 C322 1.362 . S
N330 Eu329 2.657 . S
N330 C331 1.334 . S
C331 N330 1.334 . S
C331 C333 1.413 . S
C331 H338 0.929 . S
C332 C320 1.392 . S
C332 C333 1.367 . S
C332 H340 0.930 . S
C333 C331 1.413 . S
C333 C332 1.367 . S
C333 H335 0.930 . S
H334 C327 0.930 . S
H335 C333 0.930 . S
H336 C324 0.930 . S
H337 C325 0.930 . S
H338 C331 0.929 . S
H339 C353 0.930 . S
H340 C332 0.930 . S
H341 C359 0.930 . S
H342 C350 0.929 . S
H343 C357 0.930 . S
H344 C321 0.931 . S
H345 C351 0.930 . S
H346 C384 0.930 . S
H347 C328 0.930 . S
H348 C383 0.931 . S
N349 Eu318 2.657 . S
N349 C350 1.334 . S
N349 C354 1.362 . S
C350 H342 0.929 . S
C350 N349 1.334 . S
C350 C353 1.413 . S
C351 H345 0.930 . S
C351 C352 1.392 . S
C351 C353 1.367 . S
C352 C351 1.392 . S
C352 C354 1.420 . S
C352 C384 1.423 . S
C353 H339 0.930 . S
C353 C350 1.413 . S
C353 C351 1.367 . S
C354 N349 1.362 . S
C354 C352 1.420 . S
C354 C358 1.429 . S
H355 C360 0.930 . S
N356 Eu318 2.609 . S
N356 C358 1.377 . S
N356 C359 1.321 . S
C357 H343 0.930 . S
C357 C359 1.400 . S
C357 C360 1.386 . S
C358 C354 1.429 . S
C358 N356 1.377 . S
C358 C361 1.411 . S
C359 H341 0.930 . S
C359 N356 1.321 . S
C359 C357 1.400 . S
C360 H355 0.930 . S
C360 C357 1.386 . S
C360 C361 1.395 . S
C361 C358 1.411 . S
C361 C360 1.395 . S
C361 C383 1.420 . S
O362 Eu318 2.558 . S
O362 C382 1.257 . S
O363 Eu318 2.612 1_654 S
O363 Eu329 2.380 . S
O363 C374 1.276 1_554 S
O364 Eu329 2.432 . S
O364 C381 1.264 1_554 S
O365 Eu318 2.339 1_655 S
O365 C381 1.254 . S
O366 Eu318 2.563 1_655 S
O366 C374 1.235 . S
O367 Eu318 2.419 1_655 S
O367 C382 1.249 1_655 S
O368 Eu329 2.558 . S
O368 C393 1.257 . S
O369 Eu318 2.380 1_554 S
O369 Eu329 2.612 1_455 S
O369 C385 1.276 . S
O370 Eu318 2.432 . S
O370 C392 1.264 1_556 S
O371 Eu329 2.339 1_455 S
O371 C392 1.254 . S
O372 Eu329 2.563 1_455 S
O372 C385 1.235 . S
O373 Eu329 2.419 1_455 S
O373 C393 1.249 1_455 S
C374 O363 1.276 1_556 S
C374 O366 1.235 . S
C375 C377 1.393 1_455 S
C375 C379 1.395 . S
C375 C382 1.492 . S
C376 C377 1.392 . S
C376 C378 1.386 . S
C377 C375 1.393 1_655 S
C377 C376 1.392 . S
C377 H394 0.930 . S
C378 C376 1.386 . S
C378 C380 1.395 1_655 S
C378 H395 0.930 . S
C379 C375 1.395 . S
C379 C380 1.379 . S
C379 H396 0.930 . S
C380 C378 1.395 1_455 S
C380 C379 1.379 . S
C380 H397 0.930 . S
C381 O364 1.264 1_556 S
C381 O365 1.254 . S
C382 Eu318 2.848 . S
C382 O362 1.257 . S
C382 O367 1.249 1_455 S
C382 C375 1.492 . S
C383 H348 0.931 . S
C383 C361 1.420 . S
C383 C384 1.351 . S
C384 H346 0.930 . S
C384 C352 1.423 . S
C384 C383 1.351 . S
C385 O369 1.276 . S
C385 O372 1.235 . S
C386 C387 1.393 . S
C386 C390 1.395 1_455 S
C386 C393 1.492 1_455 S
C387 C386 1.393 . S
C387 C388 1.392 . S
C387 H398 0.930 . S
C388 C387 1.392 . S
C388 C389 1.386 . S
C389 C388 1.386 . S
C389 C391 1.395 1_455 S
C389 H399 0.930 . S
C390 C386 1.395 1_655 S
C390 C391 1.379 . S
C390 H400 0.930 . S
C391 C389 1.395 1_655 S
C391 C390 1.379 . S
C391 H401 0.930 . S
C392 O370 1.264 1_554 S
C392 O371 1.254 . S
C393 Eu329 2.848 . S
C393 O368 1.257 . S
C393 O373 1.249 1_655 S
C393 C386 1.492 1_655 S
H394 C377 0.930 . S
H395 C378 0.930 . S
H396 C379 0.930 . S
H397 C380 0.930 . S
H398 C387 0.930 . S
H399 C389 0.930 . S
H400 C390 0.930 . S
H401 C391 0.930 . S
Eu402 N433 2.657 . S
Eu402 N440 2.609 . S
Eu402 O446 2.558 . S
Eu402 O447 2.612 . S
Eu402 O449 2.339 . S
Eu402 O450 2.563 . S
Eu402 O451 2.419 . S
Eu402 O453 2.380 . S
Eu402 O454 2.432 . S
Eu402 C466 2.848 . S
C403 C406 1.429 . S
C403 C407 1.411 . S
C403 N410 1.377 . S
C404 C406 1.420 . S
C404 C408 1.423 . S
C404 C416 1.392 . S
C405 C407 1.420 . S
C405 C408 1.351 . S
C405 H428 0.931 . S
C406 C403 1.429 . S
C406 C404 1.420 . S
C406 N414 1.362 . S
C407 C403 1.411 . S
C407 C405 1.420 . S
C407 C412 1.395 . S
C408 C404 1.423 . S
C408 C405 1.351 . S
C408 H420 0.930 . S
C409 C411 1.400 . S
C409 C412 1.386 . S
C409 H421 0.930 . S
N410 C403 1.377 . S
N410 C411 1.321 . S
N410 Eu413 2.609 . S
C411 C409 1.400 . S
C411 N410 1.321 . S
C411 H418 0.930 . S
C412 C407 1.395 . S
C412 C409 1.386 . S
C412 H431 0.930 . S
Eu413 N410 2.609 . S
Eu413 N414 2.657 . S
Eu413 O447 2.380 1_556 S
Eu413 O448 2.432 . S
Eu413 O452 2.558 . S
Eu413 O453 2.612 1_556 S
Eu413 O455 2.339 . S
Eu413 O456 2.563 . S
Eu413 O457 2.419 . S
Eu413 C477 2.848 . S
N414 C406 1.362 . S
N414 Eu413 2.657 . S
N414 C415 1.334 . S
C415 N414 1.334 . S
C415 C417 1.413 . S
C415 H422 0.929 . S
C416 C404 1.392 . S
C416 C417 1.367 . S
C416 H424 0.930 . S
C417 C415 1.413 . S
C417 C416 1.367 . S
C417 H419 0.930 . S
H418 C411 0.930 . S
H419 C417 0.930 . S
H420 C408 0.930 . S
H421 C409 0.930 . S
H422 C415 0.929 . S
H423 C437 0.930 . S
H424 C416 0.930 . S
H425 C443 0.930 . S
H426 C434 0.929 . S
H427 C441 0.930 . S
H428 C405 0.931 . S
H429 C435 0.930 . S
H430 C468 0.930 . S
H431 C412 0.930 . S
H432 C467 0.931 . S
N433 Eu402 2.657 . S
N433 C434 1.334 . S
N433 C438 1.362 . S
C434 H426 0.929 . S
C434 N433 1.334 . S
C434 C437 1.413 . S
C435 H429 0.930 . S
C435 C436 1.392 . S
C435 C437 1.367 . S
C436 C435 1.392 . S
C436 C438 1.420 . S
C436 C468 1.423 . S
C437 H423 0.930 . S
C437 C434 1.413 . S
C437 C435 1.367 . S
C438 N433 1.362 . S
C438 C436 1.420 . S
C438 C442 1.429 . S
H439 C444 0.930 . S
N440 Eu402 2.609 . S
N440 C442 1.377 . S
N440 C443 1.321 . S
C441 H427 0.930 . S
C441 C443 1.400 . S
C441 C444 1.386 . S
C442 C438 1.429 . S
C442 N440 1.377 . S
C442 C445 1.411 . S
C443 H425 0.930 . S
C443 N440 1.321 . S
C443 C441 1.400 . S
C444 H439 0.930 . S
C444 C441 1.386 . S
C444 C445 1.395 . S
C445 C442 1.411 . S
C445 C444 1.395 . S
C445 C467 1.420 . S
O446 Eu402 2.558 . S
O446 C466 1.257 . S
O447 Eu402 2.612 . S
O447 Eu413 2.380 1_554 S
O447 C458 1.276 . S
O448 Eu413 2.432 . S
O448 C465 1.264 1_556 S
O449 Eu402 2.339 . S
O449 C465 1.254 . S
O450 Eu402 2.563 . S
O450 C458 1.235 . S
O451 Eu402 2.419 . S
O451 C466 1.249 . S
O452 Eu413 2.558 . S
O452 C477 1.257 . S
O453 Eu402 2.380 . S
O453 Eu413 2.612 1_554 S
O453 C469 1.276 1_554 S
O454 Eu402 2.432 . S
O454 C476 1.264 1_554 S
O455 Eu413 2.339 . S
O455 C476 1.254 . S
O456 Eu413 2.563 . S
O456 C469 1.235 . S
O457 Eu413 2.419 . S
O457 C477 1.249 . S
C458 O447 1.276 . S
C458 O450 1.235 . S
C459 C461 1.393 . S
C459 C463 1.395 . S
C459 C466 1.492 . S
C460 C461 1.392 . S
C460 C462 1.386 . S
C461 C459 1.393 . S
C461 C460 1.392 . S
C461 H478 0.930 . S
C462 C460 1.386 . S
C462 C464 1.395 . S
C462 H479 0.930 . S
C463 C459 1.395 . S
C463 C464 1.379 . S
C463 H480 0.930 . S
C464 C462 1.395 . S
C464 C463 1.379 . S
C464 H481 0.930 . S
C465 O448 1.264 1_554 S
C465 O449 1.254 . S
C466 Eu402 2.848 . S
C466 O446 1.257 . S
C466 O451 1.249 . S
C466 C459 1.492 . S
C467 H432 0.931 . S
C467 C445 1.420 . S
C467 C468 1.351 . S
C468 H430 0.930 . S
C468 C436 1.423 . S
C468 C467 1.351 . S
C469 O453 1.276 1_556 S
C469 O456 1.235 . S
C470 C471 1.393 . S
C470 C474 1.395 . S
C470 C477 1.492 . S
C471 C470 1.393 . S
C471 C472 1.392 . S
C471 H482 0.930 . S
C472 C471 1.392 . S
C472 C473 1.386 . S
C473 C472 1.386 . S
C473 C475 1.395 . S
C473 H483 0.930 . S
C474 C470 1.395 . S
C474 C475 1.379 . S
C474 H484 0.930 . S
C475 C473 1.395 . S
C475 C474 1.379 . S
C475 H485 0.930 . S
C476 O454 1.264 1_556 S
C476 O455 1.254 . S
C477 Eu413 2.848 . S
C477 O452 1.257 . S
C477 O457 1.249 . S
C477 C470 1.492 . S
H478 C461 0.930 . S
H479 C462 0.930 . S
H480 C463 0.930 . S
H481 C464 0.930 . S
H482 C471 0.930 . S
H483 C473 0.930 . S
H484 C474 0.930 . S
H485 C475 0.930 . S
Eu486 N517 2.657 . S
Eu486 N524 2.609 . S
Eu486 O530 2.558 . S
Eu486 O531 2.612 . S
Eu486 O533 2.339 . S
Eu486 O534 2.563 . S
Eu486 O535 2.419 . S
Eu486 O537 2.380 . S
Eu486 O538 2.432 . S
Eu486 C550 2.848 . S
C487 C490 1.429 . S
C487 C491 1.411 . S
C487 N494 1.377 . S
C488 C490 1.420 . S
C488 C492 1.423 . S
C488 C500 1.392 . S
C489 C491 1.420 . S
C489 C492 1.351 . S
C489 H512 0.931 . S
C490 C487 1.429 . S
C490 C488 1.420 . S
C490 N498 1.362 . S
C491 C487 1.411 . S
C491 C489 1.420 . S
C491 C496 1.395 . S
C492 C488 1.423 . S
C492 C489 1.351 . S
C492 H504 0.930 . S
C493 C495 1.400 . S
C493 C496 1.386 . S
C493 H505 0.930 . S
N494 C487 1.377 . S
N494 C495 1.321 . S
N494 Eu497 2.609 . S
C495 C493 1.400 . S
C495 N494 1.321 . S
C495 H502 0.930 . S
C496 C491 1.395 . S
C496 C493 1.386 . S
C496 H515 0.930 . S
Eu497 N494 2.609 . S
Eu497 N498 2.657 . S
Eu497 O531 2.380 . S
Eu497 O532 2.432 . S
Eu497 O536 2.558 . S
Eu497 O537 2.612 . S
Eu497 O539 2.339 . S
Eu497 O540 2.563 . S
Eu497 O541 2.419 . S
Eu497 C561 2.848 . S
N498 C490 1.362 . S
N498 Eu497 2.657 . S
N498 C499 1.334 . S
C499 N498 1.334 . S
C499 C501 1.413 . S
C499 H506 0.929 . S
C500 C488 1.392 . S
C500 C501 1.367 . S
C500 H508 0.930 . S
C501 C499 1.413 . S
C501 C500 1.367 . S
C501 H503 0.930 . S
H502 C495 0.930 . S
H503 C501 0.930 . S
H504 C492 0.930 . S
H505 C493 0.930 . S
H506 C499 0.929 . S
H507 C521 0.930 . S
H508 C500 0.930 . S
H509 C527 0.930 . S
H510 C518 0.929 . S
H511 C525 0.930 . S
H512 C489 0.931 . S
H513 C519 0.930 . S
H514 C552 0.930 . S
H515 C496 0.930 . S
H516 C551 0.931 . S
N517 Eu486 2.657 . S
N517 C518 1.334 . S
N517 C522 1.362 . S
C518 H510 0.929 . S
C518 N517 1.334 . S
C518 C521 1.413 1_455 S
C519 H513 0.930 . S
C519 C520 1.392 . S
C519 C521 1.367 . S
C520 C519 1.392 . S
C520 C522 1.420 1_655 S
C520 C552 1.423 . S
C521 H507 0.930 . S
C521 C518 1.413 1_655 S
C521 C519 1.367 . S
C522 N517 1.362 . S
C522 C520 1.420 1_455 S
C522 C526 1.429 . S
H523 C528 0.930 . S
N524 Eu486 2.609 . S
N524 C526 1.377 . S
N524 C527 1.321 . S
C525 H511 0.930 . S
C525 C527 1.400 . S
C525 C528 1.386 . S
C526 C522 1.429 . S
C526 N524 1.377 . S
C526 C529 1.411 . S
C527 H509 0.930 . S
C527 N524 1.321 . S
C527 C525 1.400 . S
C528 H523 0.930 . S
C528 C525 1.386 . S
C528 C529 1.395 . S
C529 C526 1.411 . S
C529 C528 1.395 . S
C529 C551 1.420 1_455 S
O530 Eu486 2.558 . S
O530 C550 1.257 . S
O531 Eu486 2.612 . S
O531 Eu497 2.380 . S
O531 C542 1.276 . S
O532 Eu497 2.432 . S
O532 C549 1.264 . S
O533 Eu486 2.339 . S
O533 C549 1.254 . S
O534 Eu486 2.563 . S
O534 C542 1.235 . S
O535 Eu486 2.419 . S
O535 C550 1.249 . S
O536 Eu497 2.558 . S
O536 C561 1.257 . S
O537 Eu486 2.380 . S
O537 Eu497 2.612 . S
O537 C553 1.276 . S
O538 Eu486 2.432 . S
O538 C560 1.264 . S
O539 Eu497 2.339 . S
O539 C560 1.254 . S
O540 Eu497 2.563 . S
O540 C553 1.235 . S
O541 Eu497 2.419 . S
O541 C561 1.249 . S
C542 O531 1.276 . S
C542 O534 1.235 . S
C543 C545 1.393 . S
C543 C547 1.395 . S
C543 C550 1.492 . S
C544 C545 1.392 . S
C544 C546 1.386 . S
C545 C543 1.393 . S
C545 C544 1.392 . S
C545 H562 0.930 . S
C546 C544 1.386 . S
C546 C548 1.395 . S
C546 H563 0.930 . S
C547 C543 1.395 . S
C547 C548 1.379 . S
C547 H564 0.930 . S
C548 C546 1.395 . S
C548 C547 1.379 . S
C548 H565 0.930 . S
C549 O532 1.264 . S
C549 O533 1.254 . S
C550 Eu486 2.848 . S
C550 O530 1.257 . S
C550 O535 1.249 . S
C550 C543 1.492 . S
C551 H516 0.931 . S
C551 C529 1.420 1_655 S
C551 C552 1.351 . S
C552 H514 0.930 . S
C552 C520 1.423 . S
C552 C551 1.351 . S
C553 O537 1.276 . S
C553 O540 1.235 . S
C554 C555 1.393 . S
C554 C558 1.395 . S
C554 C561 1.492 . S
C555 C554 1.393 . S
C555 C556 1.392 . S
C555 H566 0.930 . S
C556 C555 1.392 . S
C556 C557 1.386 . S
C557 C556 1.386 . S
C557 C559 1.395 . S
C557 H567 0.930 . S
C558 C554 1.395 . S
C558 C559 1.379 . S
C558 H568 0.930 . S
C559 C557 1.395 . S
C559 C558 1.379 . S
C559 H569 0.930 . S
C560 O538 1.264 . S
C560 O539 1.254 . S
C561 Eu497 2.848 . S
C561 O536 1.257 . S
C561 O541 1.249 . S
C561 C554 1.492 . S
H562 C545 0.930 . S
H563 C546 0.930 . S
H564 C547 0.930 . S
H565 C548 0.930 . S
H566 C555 0.930 . S
H567 C557 0.930 . S
H568 C558 0.930 . S
H569 C559 0.930 . S
Eu570 N601 2.657 . S
Eu570 N608 2.609 . S
Eu570 O614 2.558 . S
Eu570 O615 2.612 . S
Eu570 O617 2.339 . S
Eu570 O618 2.563 . S
Eu570 O619 2.419 . S
Eu570 O621 2.380 . S
Eu570 O622 2.432 . S
Eu570 C634 2.848 . S
C571 C574 1.429 . S
C571 C575 1.411 . S
C571 N578 1.377 . S
C572 C574 1.420 . S
C572 C576 1.423 . S
C572 C584 1.392 . S
C573 C575 1.420 . S
C573 C576 1.351 . S
C573 H596 0.931 . S
C574 C571 1.429 . S
C574 C572 1.420 . S
C574 N582 1.362 . S
C575 C571 1.411 . S
C575 C573 1.420 . S
C575 C580 1.395 . S
C576 C572 1.423 . S
C576 C573 1.351 . S
C576 H588 0.930 . S
C577 C579 1.400 . S
C577 C580 1.386 . S
C577 H589 0.930 . S
N578 C571 1.377 . S
N578 C579 1.321 . S
N578 Eu581 2.609 . S
C579 C577 1.400 . S
C579 N578 1.321 . S
C579 H586 0.930 . S
C580 C575 1.395 . S
C580 C577 1.386 . S
C580 H599 0.930 . S
Eu581 N578 2.609 . S
Eu581 N582 2.657 . S
Eu581 O615 2.380 . S
Eu581 O616 2.432 . S
Eu581 O620 2.558 . S
Eu581 O621 2.612 . S
Eu581 O623 2.339 . S
Eu581 O624 2.563 . S
Eu581 O625 2.419 . S
Eu581 C645 2.848 . S
N582 C574 1.362 . S
N582 Eu581 2.657 . S
N582 C583 1.334 . S
C583 N582 1.334 . S
C583 C585 1.413 . S
C583 H590 0.929 . S
C584 C572 1.392 . S
C584 C585 1.367 . S
C584 H592 0.930 . S
C585 C583 1.413 . S
C585 C584 1.367 . S
C585 H587 0.930 . S
H586 C579 0.930 . S
H587 C585 0.930 . S
H588 C576 0.930 . S
H589 C577 0.930 . S
H590 C583 0.929 . S
H591 C605 0.930 . S
H592 C584 0.930 . S
H593 C611 0.930 . S
H594 C602 0.929 . S
H595 C609 0.930 . S
H596 C573 0.931 . S
H597 C603 0.930 . S
H598 C636 0.930 . S
H599 C580 0.930 . S
H600 C635 0.931 . S
N601 Eu570 2.657 . S
N601 C602 1.334 . S
N601 C606 1.362 . S
C602 H594 0.929 . S
C602 N601 1.334 . S
C602 C605 1.413 . S
C603 H597 0.930 . S
C603 C604 1.392 . S
C603 C605 1.367 . S
C604 C603 1.392 . S
C604 C606 1.420 . S
C604 C636 1.423 . S
C605 H591 0.930 . S
C605 C602 1.413 . S
C605 C603 1.367 . S
C606 N601 1.362 . S
C606 C604 1.420 . S
C606 C610 1.429 . S
H607 C612 0.930 . S
N608 Eu570 2.609 . S
N608 C610 1.377 . S
N608 C611 1.321 . S
C609 H595 0.930 . S
C609 C611 1.400 . S
C609 C612 1.386 . S
C610 C606 1.429 . S
C610 N608 1.377 . S
C610 C613 1.411 . S
C611 H593 0.930 . S
C611 N608 1.321 . S
C611 C609 1.400 . S
C612 H607 0.930 . S
C612 C609 1.386 . S
C612 C613 1.395 . S
C613 C610 1.411 . S
C613 C612 1.395 . S
C613 C635 1.420 . S
O614 Eu570 2.558 . S
O614 C634 1.257 . S
O615 Eu570 2.612 . S
O615 Eu581 2.380 . S
O615 C626 1.276 . S
O616 Eu581 2.432 . S
O616 C633 1.264 . S
O617 Eu570 2.339 . S
O617 C633 1.254 . S
O618 Eu570 2.563 . S
O618 C626 1.235 . S
O619 Eu570 2.419 . S
O619 C634 1.249 . S
O620 Eu581 2.558 . S
O620 C645 1.257 . S
O621 Eu570 2.380 . S
O621 Eu581 2.612 . S
O621 C637 1.276 . S
O622 Eu570 2.432 . S
O622 C644 1.264 . S
O623 Eu581 2.339 . S
O623 C644 1.254 . S
O624 Eu581 2.563 . S
O624 C637 1.235 . S
O625 Eu581 2.419 . S
O625 C645 1.249 . S
C626 O615 1.276 . S
C626 O618 1.235 . S
C627 C629 1.393 . S
C627 C631 1.395 . S
C627 C634 1.492 . S
C628 C629 1.392 . S
C628 C630 1.386 . S
C629 C627 1.393 . S
C629 C628 1.392 . S
C629 H646 0.930 . S
C630 C628 1.386 . S
C630 C632 1.395 . S
C630 H647 0.930 . S
C631 C627 1.395 . S
C631 C632 1.379 . S
C631 H648 0.930 . S
C632 C630 1.395 . S
C632 C631 1.379 . S
C632 H649 0.930 . S
C633 O616 1.264 . S
C633 O617 1.254 . S
C634 Eu570 2.848 . S
C634 O614 1.257 . S
C634 O619 1.249 . S
C634 C627 1.492 . S
C635 H600 0.931 . S
C635 C613 1.420 . S
C635 C636 1.351 . S
C636 H598 0.930 . S
C636 C604 1.423 . S
C636 C635 1.351 . S
C637 O621 1.276 . S
C637 O624 1.235 . S
C638 C639 1.393 . S
C638 C642 1.395 . S
C638 C645 1.492 . S
C639 C638 1.393 . S
C639 C640 1.392 . S
C639 H650 0.930 . S
C640 C639 1.392 . S
C640 C641 1.386 . S
C641 C640 1.386 . S
C641 C643 1.395 . S
C641 H651 0.930 . S
C642 C638 1.395 . S
C642 C643 1.379 . S
C642 H652 0.930 . S
C643 C641 1.395 . S
C643 C642 1.379 . S
C643 H653 0.930 . S
C644 O622 1.264 . S
C644 O623 1.254 . S
C645 Eu581 2.848 . S
C645 O620 1.257 . S
C645 O625 1.249 . S
C645 C638 1.492 . S
H646 C629 0.930 . S
H647 C630 0.930 . S
H648 C631 0.930 . S
H649 C632 0.930 . S
H650 C639 0.930 . S
H651 C641 0.930 . S
H652 C642 0.930 . S
H653 C643 0.930 . S
Eu654 N685 2.657 . S
Eu654 N692 2.609 . S
Eu654 O698 2.558 . S
Eu654 O699 2.612 . S
Eu654 O701 2.339 . S
Eu654 O702 2.563 . S
Eu654 O703 2.419 . S
Eu654 O705 2.380 . S
Eu654 O706 2.432 . S
Eu654 C718 2.848 . S
C655 C658 1.429 . S
C655 C659 1.411 . S
C655 N662 1.377 . S
C656 C658 1.420 . S
C656 C660 1.423 . S
C656 C668 1.392 . S
C657 C659 1.420 . S
C657 C660 1.351 . S
C657 H680 0.931 . S
C658 C655 1.429 . S
C658 C656 1.420 . S
C658 N666 1.362 . S
C659 C655 1.411 . S
C659 C657 1.420 . S
C659 C664 1.395 . S
C660 C656 1.423 . S
C660 C657 1.351 . S
C660 H672 0.930 . S
C661 C663 1.400 . S
C661 C664 1.386 . S
C661 H673 0.957 . S
N662 C655 1.377 . S
N662 C663 1.321 . S
N662 Eu665 2.609 . S
C663 C661 1.400 . S
C663 N662 1.321 . S
C663 H670 0.930 . S
C664 C659 1.395 . S
C664 C661 1.386 . S
C664 H683 0.930 . S
Eu665 N662 2.609 . S
Eu665 N666 2.657 . S
Eu665 O699 2.380 . S
Eu665 O700 2.432 . S
Eu665 O704 2.558 . S
Eu665 O705 2.612 . S
Eu665 O707 2.339 . S
Eu665 O708 2.563 . S
Eu665 O709 2.419 . S
Eu665 C729 2.848 . S
N666 C658 1.362 . S
N666 Eu665 2.657 . S
N666 C667 1.334 . S
C667 N666 1.334 . S
C667 C669 1.413 . S
C667 H674 0.929 . S
C668 C656 1.392 . S
C668 C669 1.367 . S
C668 H676 0.930 . S
C669 C667 1.413 . S
C669 C668 1.367 . S
C669 H671 0.930 . S
H670 C663 0.930 . S
H671 C669 0.930 . S
H672 C660 0.930 . S
H673 C661 0.957 . S
H674 C667 0.929 . S
H675 C689 0.930 . S
H676 C668 0.930 . S
H677 C695 0.930 . S
H678 C686 0.929 . S
H679 C693 0.930 . S
H680 C657 0.931 . S
H681 C687 0.930 . S
H682 C720 0.930 . S
H683 C664 0.930 . S
H684 C719 0.931 . S
N685 Eu654 2.657 . S
N685 C686 1.334 . S
N685 C690 1.362 . S
C686 H678 0.929 . S
C686 N685 1.334 . S
C686 C689 1.413 . S
C687 H681 0.930 . S
C687 C688 1.392 . S
C687 C689 1.367 . S
C688 C687 1.392 . S
C688 C690 1.420 . S
C688 C720 1.423 . S
C689 H675 0.930 . S
C689 C686 1.413 . S
C689 C687 1.367 . S
C690 N685 1.362 . S
C690 C688 1.420 . S
C690 C694 1.429 . S
H691 C696 0.930 . S
N692 Eu654 2.609 . S
N692 C694 1.377 . S
N692 C695 1.321 . S
C693 H679 0.930 . S
C693 C695 1.400 . S
C693 C696 1.386 . S
C694 C690 1.429 . S
C694 N692 1.377 . S
C694 C697 1.411 . S
C695 H677 0.930 . S
C695 N692 1.321 . S
C695 C693 1.400 . S
C696 H691 0.930 . S
C696 C693 1.386 . S
C696 C697 1.395 . S
C697 C694 1.411 . S
C697 C696 1.395 . S
C697 C719 1.420 . S
O698 Eu654 2.558 . S
O698 C718 1.257 . S
O699 Eu654 2.612 . S
O699 Eu665 2.380 . S
O699 C710 1.276 . S
O700 Eu665 2.432 . S
O700 C717 1.264 . S
O701 Eu654 2.339 . S
O701 C717 1.254 . S
O702 Eu654 2.563 . S
O702 C710 1.235 . S
O703 Eu654 2.419 . S
O703 C718 1.249 . S
O704 Eu665 2.558 . S
O704 C729 1.257 . S
O705 Eu654 2.380 . S
O705 Eu665 2.612 . S
O705 C721 1.276 . S
O706 Eu654 2.432 . S
O706 C728 1.264 . S
O707 Eu665 2.339 . S
O707 C728 1.254 . S
O708 Eu665 2.563 . S
O708 C721 1.235 . S
O709 Eu665 2.419 . S
O709 C729 1.249 . S
C710 O699 1.276 . S
C710 O702 1.235 . S
C711 C713 1.393 . S
C711 C715 1.395 . S
C711 C718 1.492 . S
C712 C713 1.392 . S
C712 C714 1.386 . S
C713 C711 1.393 . S
C713 C712 1.392 . S
C713 H730 0.930 . S
C714 C712 1.386 . S
C714 C716 1.395 . S
C714 H731 0.930 . S
C715 C711 1.395 . S
C715 C716 1.379 . S
C715 H732 0.930 . S
C716 C714 1.395 . S
C716 C715 1.379 . S
C716 H733 0.930 . S
C717 O700 1.264 . S
C717 O701 1.254 . S
C718 Eu654 2.848 . S
C718 O698 1.257 . S
C718 O703 1.249 . S
C718 C711 1.492 . S
C719 H684 0.931 . S
C719 C697 1.420 . S
C719 C720 1.351 . S
C720 H682 0.930 . S
C720 C688 1.423 . S
C720 C719 1.351 . S
C721 O705 1.276 . S
C721 O708 1.235 . S
C722 C723 1.393 . S
C722 C726 1.395 . S
C722 C729 1.492 . S
C723 C722 1.393 . S
C723 C724 1.392 . S
C723 H734 0.930 . S
C724 C723 1.392 . S
C724 C725 1.386 . S
C725 C724 1.386 . S
C725 C727 1.395 . S
C725 H735 0.930 . S
C726 C722 1.395 . S
C726 C727 1.379 . S
C726 H736 0.930 . S
C727 C725 1.395 . S
C727 C726 1.379 . S
C727 H737 0.930 . S
C728 O706 1.264 . S
C728 O707 1.254 . S
C729 Eu665 2.848 . S
C729 O704 1.257 . S
C729 O709 1.249 . S
C729 C722 1.492 . S
H730 C713 0.930 . S
H731 C714 0.930 . S
H732 C715 0.930 . S
H733 C716 0.930 . S
H734 C723 0.930 . S
H735 C725 0.930 . S
H736 C726 0.930 . S
H737 C727 0.930 . S
Eu738 N769 2.657 . S
Eu738 N776 2.609 . S
Eu738 O782 2.558 . S
Eu738 O783 2.612 . S
Eu738 O785 2.339 . S
Eu738 O786 2.563 . S
Eu738 O787 2.419 . S
Eu738 O789 2.380 . S
Eu738 O790 2.432 . S
Eu738 C802 2.848 . S
C739 C742 1.429 . S
C739 C743 1.411 . S
C739 N746 1.377 . S
C740 C742 1.420 . S
C740 C744 1.423 . S
C740 C752 1.392 . S
C741 C743 1.420 . S
C741 C744 1.351 . S
C741 H764 0.931 . S
C742 C739 1.429 . S
C742 C740 1.420 . S
C742 N750 1.362 . S
C743 C739 1.411 . S
C743 C741 1.420 . S
C743 C748 1.395 . S
C744 C740 1.423 . S
C744 C741 1.351 . S
C744 H756 0.930 . S
C745 C747 1.400 . S
C745 C748 1.386 . S
C745 H757 0.930 . S
N746 C739 1.377 . S
N746 C747 1.321 . S
N746 Eu749 2.609 . S
C747 C745 1.400 . S
C747 N746 1.321 . S
C747 H754 0.930 . S
C748 C743 1.395 . S
C748 C745 1.386 . S
C748 H767 0.930 . S
Eu749 N746 2.609 . S
Eu749 N750 2.657 . S
Eu749 O783 2.380 . S
Eu749 O784 2.432 . S
Eu749 O788 2.558 . S
Eu749 O789 2.612 . S
Eu749 O791 2.339 . S
Eu749 O792 2.563 . S
Eu749 O793 2.419 . S
Eu749 C813 2.848 . S
N750 C742 1.362 . S
N750 Eu749 2.657 . S
N750 C751 1.334 . S
C751 N750 1.334 . S
C751 C753 1.413 . S
C751 H758 0.929 . S
C752 C740 1.392 . S
C752 C753 1.367 . S
C752 H760 0.930 . S
C753 C751 1.413 . S
C753 C752 1.367 . S
C753 H755 0.930 . S
H754 C747 0.930 . S
H755 C753 0.930 . S
H756 C744 0.930 . S
H757 C745 0.930 . S
H758 C751 0.929 . S
H759 C773 0.930 . S
H760 C752 0.930 . S
H761 C779 0.930 . S
H762 C770 0.929 . S
H763 C777 0.930 . S
H764 C741 0.931 . S
H765 C771 0.930 . S
H766 C804 0.930 . S
H767 C748 0.930 . S
H768 C803 0.931 . S
N769 Eu738 2.657 . S
N769 C770 1.334 . S
N769 C774 1.362 . S
C770 H762 0.929 . S
C770 N769 1.334 . S
C770 C773 1.413 . S
C771 H765 0.930 . S
C771 C772 1.392 . S
C771 C773 1.367 . S
C772 C771 1.392 . S
C772 C774 1.420 . S
C772 C804 1.423 . S
C773 H759 0.930 . S
C773 C770 1.413 . S
C773 C771 1.367 . S
C774 N769 1.362 . S
C774 C772 1.420 . S
C774 C778 1.429 . S
H775 C780 0.930 . S
N776 Eu738 2.609 . S
N776 C778 1.377 . S
N776 C779 1.321 . S
C777 H763 0.930 . S
C777 C779 1.400 . S
C777 C780 1.386 . S
C778 C774 1.429 . S
C778 N776 1.377 . S
C778 C781 1.411 . S
C779 H761 0.930 . S
C779 N776 1.321 . S
C779 C777 1.400 . S
C780 H775 0.930 . S
C780 C777 1.386 . S
C780 C781 1.395 . S
C781 C778 1.411 . S
C781 C780 1.395 . S
C781 C803 1.420 . S
O782 Eu738 2.558 . S
O782 C802 1.257 . S
O783 Eu738 2.612 . S
O783 Eu749 2.380 . S
O783 C794 1.276 . S
O784 Eu749 2.432 . S
O784 C801 1.264 . S
O785 Eu738 2.339 . S
O785 C801 1.254 . S
O786 Eu738 2.563 . S
O786 C794 1.235 . S
O787 Eu738 2.419 . S
O787 C802 1.249 . S
O788 Eu749 2.558 . S
O788 C813 1.257 . S
O789 Eu738 2.380 . S
O789 Eu749 2.612 . S
O789 C805 1.276 . S
O790 Eu738 2.432 . S
O790 C812 1.264 . S
O791 Eu749 2.339 . S
O791 C812 1.254 . S
O792 Eu749 2.563 . S
O792 C805 1.235 . S
O793 Eu749 2.419 . S
O793 C813 1.249 . S
C794 O783 1.276 . S
C794 O786 1.235 . S
C795 C797 1.393 . S
C795 C799 1.395 . S
C795 C802 1.492 . S
C796 C797 1.392 . S
C796 C798 1.386 . S
C797 C795 1.393 . S
C797 C796 1.392 . S
C797 H814 0.930 . S
C798 C796 1.386 . S
C798 C800 1.395 . S
C798 H815 0.930 . S
C799 C795 1.395 . S
C799 C800 1.379 . S
C799 H816 0.930 . S
C800 C798 1.395 . S
C800 C799 1.379 . S
C800 H817 0.930 . S
C801 O784 1.264 . S
C801 O785 1.254 . S
C802 Eu738 2.848 . S
C802 O782 1.257 . S
C802 O787 1.249 . S
C802 C795 1.492 . S
C803 H768 0.931 . S
C803 C781 1.420 . S
C803 C804 1.351 . S
C804 H766 0.930 . S
C804 C772 1.423 . S
C804 C803 1.351 . S
C805 O789 1.276 . S
C805 O792 1.235 . S
C806 C807 1.393 . S
C806 C810 1.395 . S
C806 C813 1.492 . S
C807 C806 1.393 . S
C807 C808 1.392 . S
C807 H818 0.930 . S
C808 C807 1.392 . S
C808 C809 1.386 . S
C809 C808 1.386 . S
C809 C811 1.395 . S
C809 H819 0.930 . S
C810 C806 1.395 . S
C810 C811 1.379 . S
C810 H820 0.930 . S
C811 C809 1.395 . S
C811 C810 1.379 . S
C811 H821 0.930 . S
C812 O790 1.264 . S
C812 O791 1.254 . S
C813 Eu749 2.848 . S
C813 O788 1.257 . S
C813 O793 1.249 . S
C813 C806 1.492 . S
H814 C797 0.930 . S
H815 C798 0.930 . S
H816 C799 0.930 . S
H817 C800 0.930 . S
H818 C807 0.930 . S
H819 C809 0.930 . S
H820 C810 0.930 . S
H821 C811 0.930 . S
Eu822 N853 2.657 . S
Eu822 N860 2.609 . S
Eu822 O866 2.558 . S
Eu822 O867 2.612 . S
Eu822 O869 2.339 . S
Eu822 O870 2.563 . S
Eu822 O871 2.419 . S
Eu822 O873 2.380 . S
Eu822 O874 2.432 . S
Eu822 C886 2.848 . S
C823 C826 1.429 . S
C823 C827 1.411 . S
C823 N830 1.377 . S
C824 C826 1.420 . S
C824 C828 1.423 . S
C824 C836 1.392 . S
C825 C827 1.420 . S
C825 C828 1.351 . S
C825 H848 0.931 . S
C826 C823 1.429 . S
C826 C824 1.420 . S
C826 N834 1.362 . S
C827 C823 1.411 . S
C827 C825 1.420 . S
C827 C832 1.395 . S
C828 C824 1.423 . S
C828 C825 1.351 . S
C828 H840 0.930 . S
C829 C831 1.400 . S
C829 C832 1.386 . S
C829 H841 0.930 . S
N830 C823 1.377 . S
N830 C831 1.321 . S
N830 Eu833 2.609 . S
C831 C829 1.400 . S
C831 N830 1.321 . S
C831 H838 0.930 . S
C832 C827 1.395 . S
C832 C829 1.386 . S
C832 H851 0.930 . S
Eu833 N830 2.609 . S
Eu833 N834 2.657 . S
Eu833 O867 2.380 . S
Eu833 O868 2.432 . S
Eu833 O872 2.558 . S
Eu833 O873 2.612 . S
Eu833 O875 2.339 . S
Eu833 O876 2.563 . S
Eu833 O877 2.419 . S
Eu833 C897 2.848 . S
N834 C826 1.362 . S
N834 Eu833 2.657 . S
N834 C835 1.334 . S
C835 N834 1.334 . S
C835 C837 1.413 . S
C835 H842 0.929 . S
C836 C824 1.392 . S
C836 C837 1.367 . S
C836 H844 0.930 . S
C837 C835 1.413 . S
C837 C836 1.367 . S
C837 H839 0.930 . S
H838 C831 0.930 . S
H839 C837 0.930 . S
H840 C828 0.930 . S
H841 C829 0.930 . S
H842 C835 0.929 . S
H843 C857 0.930 . S
H844 C836 0.930 . S
H845 C863 0.930 . S
H846 C854 0.929 . S
H847 C861 0.930 . S
H848 C825 0.931 . S
H849 C855 0.930 . S
H850 C888 0.930 . S
H851 C832 0.930 . S
H852 C887 0.931 . S
N853 Eu822 2.657 . S
N853 C854 1.334 . S
N853 C858 1.362 . S
C854 H846 0.929 . S
C854 N853 1.334 . S
C854 C857 1.413 . S
C855 H849 0.930 . S
C855 C856 1.392 . S
C855 C857 1.367 . S
C856 C855 1.392 . S
C856 C858 1.420 . S
C856 C888 1.423 . S
C857 H843 0.930 . S
C857 C854 1.413 . S
C857 C855 1.367 . S
C858 N853 1.362 . S
C858 C856 1.420 . S
C858 C862 1.429 . S
H859 C864 0.930 . S
N860 Eu822 2.609 . S
N860 C862 1.377 . S
N860 C863 1.321 . S
C861 H847 0.930 . S
C861 C863 1.400 . S
C861 C864 1.386 . S
C862 C858 1.429 . S
C862 N860 1.377 . S
C862 C865 1.411 . S
C863 H845 0.930 . S
C863 N860 1.321 . S
C863 C861 1.400 . S
C864 H859 0.930 . S
C864 C861 1.386 . S
C864 C865 1.395 . S
C865 C862 1.411 . S
C865 C864 1.395 . S
C865 C887 1.420 . S
O866 Eu822 2.558 . S
O866 C886 1.257 . S
O867 Eu822 2.612 . S
O867 Eu833 2.380 . S
O867 C878 1.276 . S
O868 Eu833 2.432 . S
O868 C885 1.264 . S
O869 Eu822 2.339 . S
O869 C885 1.254 . S
O870 Eu822 2.563 . S
O870 C878 1.235 . S
O871 Eu822 2.419 . S
O871 C886 1.249 . S
O872 Eu833 2.558 . S
O872 C897 1.257 . S
O873 Eu822 2.380 . S
O873 Eu833 2.612 . S
O873 C889 1.276 . S
O874 Eu822 2.432 . S
O874 C896 1.264 . S
O875 Eu833 2.339 . S
O875 C896 1.254 . S
O876 Eu833 2.563 . S
O876 C889 1.235 . S
O877 Eu833 2.419 . S
O877 C897 1.249 . S
C878 O867 1.276 . S
C878 O870 1.235 . S
C879 C881 1.393 . S
C879 C883 1.395 . S
C879 C886 1.492 . S
C880 C881 1.392 . S
C880 C882 1.386 . S
C881 C879 1.393 . S
C881 C880 1.392 . S
C881 H898 0.930 . S
C882 C880 1.386 . S
C882 C884 1.395 . S
C882 H899 0.930 . S
C883 C879 1.395 . S
C883 C884 1.379 . S
C883 H900 0.930 . S
C884 C882 1.395 . S
C884 C883 1.379 . S
C884 H901 0.930 . S
C885 O868 1.264 . S
C885 O869 1.254 . S
C886 Eu822 2.848 . S
C886 O866 1.257 . S
C886 O871 1.249 . S
C886 C879 1.492 . S
C887 H852 0.931 . S
C887 C865 1.420 . S
C887 C888 1.351 . S
C888 H850 0.930 . S
C888 C856 1.423 . S
C888 C887 1.351 . S
C889 O873 1.276 . S
C889 O876 1.235 . S
C890 C891 1.393 . S
C890 C894 1.395 . S
C890 C897 1.492 . S
C891 C890 1.393 . S
C891 C892 1.392 . S
C891 H902 0.930 . S
C892 C891 1.392 . S
C892 C893 1.386 . S
C893 C892 1.386 . S
C893 C895 1.395 . S
C893 H903 0.930 . S
C894 C890 1.395 . S
C894 C895 1.379 . S
C894 H904 0.930 . S
C895 C893 1.395 . S
C895 C894 1.379 . S
C895 H905 0.930 . S
C896 O874 1.264 . S
C896 O875 1.254 . S
C897 Eu833 2.848 . S
C897 O872 1.257 . S
C897 O877 1.249 . S
C897 C890 1.492 . S
H898 C881 0.930 . S
H899 C882 0.930 . S
H900 C883 0.930 . S
H901 C884 0.930 . S
H902 C891 0.930 . S
H903 C893 0.930 . S
H904 C894 0.930 . S
H905 C895 0.930 . S
Eu906 N937 2.657 . S
Eu906 N944 2.609 . S
Eu906 O950 2.558 . S
Eu906 O951 2.612 . S
Eu906 O953 2.339 . S
Eu906 O954 2.563 . S
Eu906 O955 2.419 . S
Eu906 O957 2.380 . S
Eu906 O958 2.432 . S
Eu906 C970 2.848 . S
C907 C910 1.429 . S
C907 C911 1.411 . S
C907 N914 1.377 . S
C908 C910 1.420 . S
C908 C912 1.423 . S
C908 C920 1.392 . S
C909 C911 1.420 . S
C909 C912 1.351 . S
C909 H932 0.931 . S
C910 C907 1.429 . S
C910 C908 1.420 . S
C910 N918 1.362 . S
C911 C907 1.411 . S
C911 C909 1.420 . S
C911 C916 1.395 . S
C912 C908 1.423 . S
C912 C909 1.351 . S
C912 H924 0.930 . S
C913 C915 1.400 . S
C913 C916 1.386 . S
C913 H925 0.930 . S
N914 C907 1.377 . S
N914 C915 1.321 . S
N914 Eu917 2.609 . S
C915 C913 1.400 . S
C915 N914 1.321 . S
C915 H922 0.930 . S
C916 C911 1.395 . S
C916 C913 1.386 . S
C916 H935 0.930 . S
Eu917 N914 2.609 . S
Eu917 N918 2.657 . S
Eu917 O951 2.380 . S
Eu917 O952 2.432 . S
Eu917 O956 2.558 . S
Eu917 O957 2.612 . S
Eu917 O959 2.339 . S
Eu917 O960 2.563 . S
Eu917 O961 2.419 . S
Eu917 C981 2.848 . S
N918 C910 1.362 . S
N918 Eu917 2.657 . S
N918 C919 1.334 . S
C919 N918 1.334 . S
C919 C921 1.413 . S
C919 H926 0.929 . S
C920 C908 1.392 . S
C920 C921 1.367 . S
C920 H928 0.930 . S
C921 C919 1.413 . S
C921 C920 1.367 . S
C921 H923 0.930 . S
H922 C915 0.930 . S
H923 C921 0.930 . S
H924 C912 0.930 . S
H925 C913 0.930 . S
H926 C919 0.929 . S
H927 C941 0.930 . S
H928 C920 0.930 . S
H929 C947 0.930 . S
H930 C938 0.929 . S
H931 C945 0.930 . S
H932 C909 0.931 . S
H933 C939 0.930 . S
H934 C972 0.930 . S
H935 C916 0.930 . S
H936 C971 0.931 . S
N937 Eu906 2.657 . S
N937 C938 1.334 . S
N937 C942 1.362 . S
C938 H930 0.929 . S
C938 N937 1.334 . S
C938 C941 1.413 1_655 S
C939 H933 0.930 . S
C939 C940 1.392 . S
C939 C941 1.367 . S
C940 C939 1.392 . S
C940 C942 1.420 1_455 S
C940 C972 1.423 . S
C941 H927 0.930 . S
C941 C938 1.413 1_455 S
C941 C939 1.367 . S
C942 N937 1.362 . S
C942 C940 1.420 1_655 S
C942 C946 1.429 . S
H943 C948 0.930 . S
N944 Eu906 2.609 . S
N944 C946 1.377 . S
N944 C947 1.321 . S
C945 H931 0.930 . S
C945 C947 1.400 . S
C945 C948 1.386 . S
C946 C942 1.429 . S
C946 N944 1.377 . S
C946 C949 1.411 . S
C947 H929 0.930 . S
C947 N944 1.321 . S
C947 C945 1.400 . S
C948 H943 0.930 . S
C948 C945 1.386 . S
C948 C949 1.395 . S
C949 C946 1.411 . S
C949 C948 1.395 . S
C949 C971 1.420 1_655 S
O950 Eu906 2.558 . S
O950 C970 1.257 . S
O951 Eu906 2.612 . S
O951 Eu917 2.380 . S
O951 C962 1.276 . S
O952 Eu917 2.432 . S
O952 C969 1.264 . S
O953 Eu906 2.339 . S
O953 C969 1.254 . S
O954 Eu906 2.563 . S
O954 C962 1.235 . S
O955 Eu906 2.419 . S
O955 C970 1.249 . S
O956 Eu917 2.558 . S
O956 C981 1.257 . S
O957 Eu906 2.380 . S
O957 Eu917 2.612 . S
O957 C973 1.276 . S
O958 Eu906 2.432 . S
O958 C980 1.264 . S
O959 Eu917 2.339 . S
O959 C980 1.254 . S
O960 Eu917 2.563 . S
O960 C973 1.235 . S
O961 Eu917 2.419 . S
O961 C981 1.249 . S
C962 O951 1.276 . S
C962 O954 1.235 . S
C963 C965 1.393 . S
C963 C967 1.395 . S
C963 C970 1.492 . S
C964 C965 1.392 . S
C964 C966 1.386 . S
C965 C963 1.393 . S
C965 C964 1.392 . S
C965 H982 0.930 . S
C966 C964 1.386 . S
C966 C968 1.395 . S
C966 H983 0.930 . S
C967 C963 1.395 . S
C967 C968 1.379 . S
C967 H984 0.930 . S
C968 C966 1.395 . S
C968 C967 1.379 . S
C968 H985 0.930 . S
C969 O952 1.264 . S
C969 O953 1.254 . S
C970 Eu906 2.848 . S
C970 O950 1.257 . S
C970 O955 1.249 . S
C970 C963 1.492 . S
C971 H936 0.931 . S
C971 C949 1.420 1_455 S
C971 C972 1.351 . S
C972 H934 0.930 . S
C972 C940 1.423 . S
C972 C971 1.351 . S
C973 O957 1.276 . S
C973 O960 1.235 . S
C974 C975 1.393 . S
C974 C978 1.395 . S
C974 C981 1.492 . S
C975 C974 1.393 . S
C975 C976 1.392 . S
C975 H986 0.930 . S
C976 C975 1.392 . S
C976 C977 1.386 . S
C977 C976 1.386 . S
C977 C979 1.395 . S
C977 H987 0.930 . S
C978 C974 1.395 . S
C978 C979 1.379 . S
C978 H988 0.930 . S
C979 C977 1.395 . S
C979 C978 1.379 . S
C979 H989 0.930 . S
C980 O958 1.264 . S
C980 O959 1.254 . S
C981 Eu917 2.848 . S
C981 O956 1.257 . S
C981 O961 1.249 . S
C981 C974 1.492 . S
H982 C965 0.930 . S
H983 C966 0.930 . S
H984 C967 0.930 . S
H985 C968 0.930 . S
H986 C975 0.930 . S
H987 C977 0.930 . S
H988 C978 0.930 . S
H989 C979 0.930 . S
C990 C991 1.387 . S
C990 H994 0.950 . S
C990 C999 1.390 . S
C991 C990 1.387 . S
C991 C993 1.387 . S
H992 C999 0.950 . S
C993 C991 1.387 . S
C993 C995 1.390 . S
C993 H997 0.950 . S
H994 C990 0.950 . S
C995 C993 1.390 . S
C995 C996 1.387 . S
C995 H998 0.950 1_554 S
C996 C995 1.387 . S
C996 C999 1.387 . S
H997 C993 0.950 . S
H998 C995 0.950 1_556 S
C999 C990 1.390 . S
C999 H992 0.950 . S
C999 C996 1.387 . S
C1000 C1001 1.387 . S
C1000 H1004 0.950 . S
C1000 C1009 1.390 . S
C1001 C1000 1.387 . S
C1001 C1003 1.387 . S
H1002 C1009 0.950 . S
C1003 C1001 1.387 . S
C1003 C1005 1.390 . S
C1003 H1007 0.950 . S
H1004 C1000 0.950 . S
C1005 C1003 1.390 . S
C1005 C1006 1.387 . S
C1005 H1008 0.950 . S
C1006 C1005 1.387 . S
C1006 C1009 1.387 . S
H1007 C1003 0.950 . S
H1008 C1005 0.950 . S
C1009 C1000 1.390 . S
C1009 H1002 0.950 . S
C1009 C1006 1.387 . S
C1010 C1011 1.387 . S
C1010 H1014 0.950 . S
C1010 C1019 1.390 . S
C1011 C1010 1.387 . S
C1011 C1013 1.387 . S
H1012 C1019 0.950 . S
C1013 C1011 1.387 . S
C1013 C1015 1.390 . S
C1013 H1017 0.950 . S
H1014 C1010 0.950 . S
C1015 C1013 1.390 . S
C1015 C1016 1.387 . S
C1015 H1018 0.950 . S
C1016 C1015 1.387 . S
C1016 C1019 1.387 . S
H1017 C1013 0.950 . S
H1018 C1015 0.950 . S
C1019 C1010 1.390 . S
C1019 H1012 0.950 . S
C1019 C1016 1.387 . S
C1020 C1021 1.387 . S
C1020 H1024 0.950 1_556 S
C1020 C1029 1.390 1_556 S
C1021 C1020 1.387 . S
C1021 C1023 1.387 . S
H1022 C1029 0.950 . S
C1023 C1021 1.387 . S
C1023 C1025 1.390 . S
C1023 H1027 0.950 . S
H1024 C1020 0.950 1_554 S
C1025 C1023 1.390 . S
C1025 C1026 1.387 . S
C1025 H1028 0.950 . S
C1026 C1025 1.387 . S
C1026 C1029 1.387 1_556 S
H1027 C1023 0.950 . S
H1028 C1025 0.950 . S
C1029 C1020 1.390 1_554 S
C1029 H1022 0.950 . S
C1029 C1026 1.387 1_554 S
C1030 C1031 1.387 . S
C1030 H1034 0.950 . S
C1030 C1039 1.390 . S
C1031 C1030 1.387 . S
C1031 C1033 1.387 . S
H1032 C1039 0.950 . S
C1033 C1031 1.387 . S
C1033 C1035 1.390 . S
C1033 H1037 0.950 . S
H1034 C1030 0.950 . S
C1035 C1033 1.390 . S
C1035 C1036 1.387 . S
C1035 H1038 0.950 . S
C1036 C1035 1.387 . S
C1036 C1039 1.387 . S
H1037 C1033 0.950 . S
H1038 C1035 0.950 . S
C1039 C1030 1.390 . S
C1039 H1032 0.950 . S
C1039 C1036 1.387 . S
C1040 C1041 1.387 . S
C1040 H1044 0.950 . S
C1040 C1049 1.390 . S
C1041 C1040 1.387 . S
C1041 C1043 1.387 . S
H1042 C1049 0.950 . S
C1043 C1041 1.387 . S
C1043 C1045 1.390 1_556 S
C1043 H1047 0.950 1_556 S
H1044 C1040 0.950 . S
C1045 C1043 1.390 1_554 S
C1045 C1046 1.387 1_554 S
C1045 H1048 0.950 . S
C1046 C1045 1.387 1_556 S
C1046 C1049 1.387 . S
H1047 C1043 0.950 1_554 S
H1048 C1045 0.950 . S
C1049 C1040 1.390 . S
C1049 H1042 0.950 . S
C1049 C1046 1.387 . S
C1050 C1051 1.344 1_554 S
C1050 H1054 0.984 . S
C1050 C1059 1.401 . S
C1051 C1050 1.344 1_556 S
C1051 C1053 1.387 . S
H1052 C1059 0.950 . S
C1053 C1051 1.387 . S
C1053 C1055 1.390 . S
C1053 H1057 0.950 . S
H1054 C1050 0.984 . S
C1055 C1053 1.390 . S
C1055 C1056 1.387 . S
C1055 H1058 0.950 . S
C1056 C1055 1.387 . S
C1056 C1059 1.387 1_556 S
H1057 C1053 0.950 . S
H1058 C1055 0.950 . S
C1059 C1050 1.401 . S
C1059 H1052 0.950 . S
C1059 C1056 1.387 1_554 S
C1060 C1061 1.387 . S
C1060 H1064 0.950 . S
C1060 C1069 1.390 . S
C1061 C1060 1.387 . S
C1061 C1063 1.387 . S
H1062 C1069 0.950 . S
C1063 C1061 1.387 . S
C1063 C1065 1.390 . S
C1063 H1067 0.950 . S
H1064 C1060 0.950 . S
C1065 C1063 1.390 . S
C1065 C1066 1.387 . S
C1065 H1068 0.950 . S
C1066 C1065 1.387 . S
C1066 C1069 1.387 . S
H1067 C1063 0.950 . S
H1068 C1065 0.950 . S
C1069 C1060 1.390 . S
C1069 H1062 0.950 . S
C1069 C1066 1.387 . S
C1070 C1071 1.387 1_554 S
C1070 H1074 0.950 . S
C1070 C1079 1.390 . S
C1071 C1070 1.387 1_556 S
C1071 C1073 1.387 . S
H1072 C1079 0.950 . S
C1073 C1071 1.387 . S
C1073 C1075 1.390 . S
C1073 H1077 0.950 . S
H1074 C1070 0.950 . S
C1075 C1073 1.390 . S
C1075 C1076 1.387 . S
C1075 H1078 0.950 . S
C1076 C1075 1.387 . S
C1076 C1079 1.387 1_556 S
H1077 C1073 0.950 . S
H1078 C1075 0.950 . S
C1079 C1070 1.390 . S
C1079 H1072 0.950 . S
C1079 C1076 1.387 1_554 S
C1080 C1081 1.387 . S
C1080 H1084 0.950 . S
C1080 C1089 1.390 . S
C1081 C1080 1.387 . S
C1081 C1083 1.387 . S
H1082 C1089 0.950 . S
C1083 C1081 1.387 . S
C1083 C1085 1.390 . S
C1083 H1087 0.950 . S
H1084 C1080 0.950 . S
C1085 C1083 1.390 . S
C1085 C1086 1.387 . S
C1085 H1088 0.950 1_554 S
C1086 C1085 1.387 . S
C1086 C1089 1.387 . S
H1087 C1083 0.950 . S
H1088 C1085 0.950 1_556 S
C1089 C1080 1.390 . S
C1089 H1082 0.950 . S
C1089 C1086 1.387 . S
C1090 C1091 1.387 . S
C1090 H1094 0.950 . S
C1090 C1099 1.390 . S
C1091 C1090 1.387 . S
C1091 C1093 1.387 . S
H1092 C1099 0.950 . S
C1093 C1091 1.387 . S
C1093 C1095 1.390 . S
C1093 H1097 0.950 . S
H1094 C1090 0.950 . S
C1095 C1093 1.390 . S
C1095 C1096 1.387 . S
C1095 H1098 0.949 1_554 S
C1096 C1095 1.387 . S
C1096 C1099 1.387 . S
H1097 C1093 0.950 . S
H1098 C1095 0.949 1_556 S
C1099 C1090 1.390 . S
C1099 H1092 0.950 . S
C1099 C1096 1.387 . S
C1100 C1101 1.387 . S
C1100 H1104 0.950 . S
C1100 C1109 1.390 . S
C1101 C1100 1.387 . S
C1101 C1103 1.387 . S
H1102 C1109 0.950 . S
C1103 C1101 1.387 . S
C1103 C1105 1.390 . S
C1103 H1107 0.950 1_554 S
H1104 C1100 0.950 . S
C1105 C1103 1.390 . S
C1105 C1106 1.387 . S
C1105 H1108 0.950 1_554 S
C1106 C1105 1.387 . S
C1106 C1109 1.387 . S
H1107 C1103 0.950 1_556 S
H1108 C1105 0.950 1_556 S
C1109 C1100 1.390 . S
C1109 H1102 0.950 . S
C1109 C1106 1.387 . S
C1110 C1111 1.387 . S
C1110 H1114 0.950 . S
C1110 C1119 1.390 1_655 S
C1111 C1110 1.387 . S
C1111 C1113 1.387 . S
H1112 C1119 0.950 . S
C1113 C1111 1.387 . S
C1113 C1115 1.390 1_655 S
C1113 H1117 0.950 . S
H1114 C1110 0.950 . S
C1115 C1113 1.390 1_455 S
C1115 C1116 1.387 . S
C1115 H1118 0.950 . S
C1116 C1115 1.387 . S
C1116 C1119 1.387 . S
H1117 C1113 0.950 . S
H1118 C1115 0.950 . S
C1119 C1110 1.390 1_455 S
C1119 H1112 0.950 . S
C1119 C1116 1.387 . S
C1120 C1121 1.387 . S
C1120 H1124 0.950 . S
C1120 C1129 1.390 . S
C1121 C1120 1.387 . S
C1121 C1123 1.387 . S
H1122 C1129 0.950 . S
C1123 C1121 1.387 . S
C1123 C1125 1.390 . S
C1123 H1127 0.950 . S
H1124 C1120 0.950 . S
C1125 C1123 1.390 . S
C1125 C1126 1.387 . S
C1125 H1128 0.950 . S
C1126 C1125 1.387 . S
C1126 C1129 1.387 . S
H1127 C1123 0.950 . S
H1128 C1125 0.950 . S
C1129 C1120 1.390 . S
C1129 H1122 0.950 . S
C1129 C1126 1.387 . S
C1130 C1131 1.387 . S
C1130 H1134 0.950 . S
C1130 C1139 1.390 . S
C1131 C1130 1.387 . S
C1131 C1133 1.387 . S
H1132 C1139 0.952 . S
C1133 C1131 1.387 . S
C1133 C1135 1.390 1_545 S
C1133 H1137 0.950 . S
H1134 C1130 0.950 . S
C1135 C1133 1.390 1_565 S
C1135 C1136 1.387 . S
C1135 H1138 0.950 . S
C1136 C1135 1.387 . S
C1136 C1139 1.387 1_565 S
H1137 C1133 0.950 . S
H1138 C1135 0.950 . S
C1139 C1130 1.390 . S
C1139 H1132 0.952 . S
C1139 C1136 1.387 1_545 S
C1140 C1141 1.387 . S
C1140 H1144 0.950 . S
C1140 C1149 1.390 . S
C1141 C1140 1.387 . S
C1141 C1143 1.387 . S
H1142 C1149 0.950 . S
C1143 C1141 1.387 . S
C1143 C1145 1.390 . S
C1143 H1147 0.950 . S
H1144 C1140 0.950 . S
C1145 C1143 1.390 . S
C1145 C1146 1.387 . S
C1145 H1148 0.950 . S
C1146 C1145 1.387 . S
C1146 C1149 1.387 . S
H1147 C1143 0.950 . S
H1148 C1145 0.950 . S
C1149 C1140 1.390 . S
C1149 H1142 0.950 . S
C1149 C1146 1.387 . S
C1150 C1151 1.387 . S
C1150 H1154 0.950 . S
C1150 C1159 1.390 . S
C1151 C1150 1.387 . S
C1151 C1153 1.387 . S
H1152 C1159 0.950 . S
C1153 C1151 1.387 . S
C1153 C1155 1.390 . S
C1153 H1157 0.950 . S
H1154 C1150 0.950 . S
C1155 C1153 1.390 . S
C1155 C1156 1.387 . S
C1155 H1158 0.950 . S
C1156 C1155 1.387 . S
C1156 C1159 1.387 . S
H1157 C1153 0.950 . S
H1158 C1155 0.950 . S
C1159 C1150 1.390 . S
C1159 H1152 0.950 . S
C1159 C1156 1.387 . S
C1160 C1161 1.387 . S
C1160 H1164 0.950 . S
C1160 C1169 1.390 . S
C1161 C1160 1.387 . S
C1161 C1163 1.387 . S
H1162 C1169 0.950 . S
C1163 C1161 1.387 . S
C1163 C1165 1.390 . S
C1163 H1167 0.950 . S
H1164 C1160 0.950 . S
C1165 C1163 1.390 . S
C1165 C1166 1.387 . S
C1165 H1168 0.950 . S
C1166 C1165 1.387 . S
C1166 C1169 1.387 . S
H1167 C1163 0.950 . S
H1168 C1165 0.950 . S
C1169 C1160 1.390 . S
C1169 H1162 0.950 . S
C1169 C1166 1.387 . S
C1170 C1171 1.387 . S
C1170 H1174 0.950 . S
C1170 C1179 1.390 . S
C1171 C1170 1.387 . S
C1171 C1173 1.387 . S
H1172 C1179 0.950 . S
C1173 C1171 1.387 . S
C1173 C1175 1.390 . S
C1173 H1177 0.950 . S
H1174 C1170 0.950 . S
C1175 C1173 1.390 . S
C1175 C1176 1.387 . S
C1175 H1178 0.950 . S
C1176 C1175 1.387 . S
C1176 C1179 1.387 . S
H1177 C1173 0.950 . S
H1178 C1175 0.950 . S
C1179 C1170 1.390 . S
C1179 H1172 0.950 . S
C1179 C1176 1.387 . S
C1180 C1181 1.387 . S
C1180 H1184 0.950 . S
C1180 C1189 1.390 . S
C1181 C1180 1.387 . S
C1181 C1183 1.387 . S
H1182 C1189 0.950 . S
C1183 C1181 1.387 . S
C1183 C1185 1.390 . S
C1183 H1187 0.950 . S
H1184 C1180 0.950 . S
C1185 C1183 1.390 . S
C1185 C1186 1.387 . S
C1185 H1188 0.950 . S
C1186 C1185 1.387 . S
C1186 C1189 1.387 . S
H1187 C1183 0.950 . S
H1188 C1185 0.950 . S
C1189 C1180 1.390 . S
C1189 H1182 0.950 . S
C1189 C1186 1.387 . S
C1190 C1191 1.387 . S
C1190 H1194 0.950 . S
C1190 C1199 1.390 . S
C1191 C1190 1.387 . S
C1191 C1193 1.387 . S
H1192 C1199 0.950 . S
C1193 C1191 1.387 . S
C1193 C1195 1.390 . S
C1193 H1197 0.950 . S
H1194 C1190 0.950 . S
C1195 C1193 1.390 . S
C1195 C1196 1.387 . S
C1195 H1198 0.950 . S
C1196 C1195 1.387 . S
C1196 C1199 1.387 . S
H1197 C1193 0.950 . S
H1198 C1195 0.950 . S
C1199 C1190 1.390 . S
C1199 H1192 0.950 . S
C1199 C1196 1.387 . S
C1200 C1201 1.387 . S
C1200 H1204 0.950 . S
C1200 C1209 1.390 . S
C1201 C1200 1.387 . S
C1201 C1203 1.387 . S
H1202 C1209 0.950 . S
C1203 C1201 1.387 . S
C1203 C1205 1.390 . S
C1203 H1207 0.950 . S
H1204 C1200 0.950 . S
C1205 C1203 1.390 . S
C1205 C1206 1.387 . S
C1205 H1208 0.950 . S
C1206 C1205 1.387 . S
C1206 C1209 1.387 . S
H1207 C1203 0.950 . S
H1208 C1205 0.950 . S
C1209 C1200 1.390 . S
C1209 H1202 0.950 . S
C1209 C1206 1.387 . S
C1210 C1211 1.387 . S
C1210 H1214 0.950 . S
C1210 C1219 1.390 . S
C1211 C1210 1.387 . S
C1211 C1213 1.387 . S
H1212 C1219 0.950 . S
C1213 C1211 1.387 . S
C1213 C1215 1.390 . S
C1213 H1217 0.950 . S
H1214 C1210 0.950 . S
C1215 C1213 1.390 . S
C1215 C1216 1.387 . S
C1215 H1218 0.950 . S
C1216 C1215 1.387 . S
C1216 C1219 1.387 . S
H1217 C1213 0.950 . S
H1218 C1215 0.950 . S
C1219 C1210 1.390 . S
C1219 H1212 0.950 . S
C1219 C1216 1.387 . S
C1220 C1221 1.387 . S
C1220 H1224 0.950 . S
C1220 C1229 1.390 . S
C1221 C1220 1.387 . S
C1221 C1223 1.387 . S
H1222 C1229 0.950 . S
C1223 C1221 1.387 . S
C1223 C1225 1.390 . S
C1223 H1227 0.950 . S
H1224 C1220 0.950 . S
C1225 C1223 1.390 . S
C1225 C1226 1.387 . S
C1225 H1228 0.950 . S
C1226 C1225 1.387 . S
C1226 C1229 1.387 . S
H1227 C1223 0.950 . S
H1228 C1225 0.950 . S
C1229 C1220 1.390 . S
C1229 H1222 0.950 . S
C1229 C1226 1.387 . S
C1230 C1231 1.387 . S
C1230 H1234 0.950 . S
C1230 C1239 1.390 . S
C1231 C1230 1.387 . S
C1231 C1233 1.387 . S
H1232 C1239 0.950 . S
C1233 C1231 1.387 . S
C1233 C1235 1.390 . S
C1233 H1237 0.950 . S
H1234 C1230 0.950 . S
C1235 C1233 1.390 . S
C1235 C1236 1.387 . S
C1235 H1238 0.950 . S
C1236 C1235 1.387 . S
C1236 C1239 1.387 . S
H1237 C1233 0.950 . S
H1238 C1235 0.950 . S
C1239 C1230 1.390 . S
C1239 H1232 0.950 . S
C1239 C1236 1.387 . S
C1240 C1241 1.387 . S
C1240 H1244 0.950 . S
C1240 C1249 1.390 . S
C1241 C1240 1.387 . S
C1241 C1243 1.387 . S
H1242 C1249 0.950 . S
C1243 C1241 1.387 . S
C1243 C1245 1.390 . S
C1243 H1247 0.950 . S
H1244 C1240 0.950 . S
C1245 C1243 1.390 . S
C1245 C1246 1.387 . S
C1245 H1248 0.950 . S
C1246 C1245 1.387 . S
C1246 C1249 1.387 . S
H1247 C1243 0.950 . S
H1248 C1245 0.950 . S
C1249 C1240 1.390 . S
C1249 H1242 0.950 . S
C1249 C1246 1.387 . S
C1250 C1251 1.387 . S
C1250 H1254 0.950 . S
C1250 C1259 1.390 . S
C1251 C1250 1.387 . S
C1251 C1253 1.387 . S
H1252 C1259 0.950 . S
C1253 C1251 1.387 . S
C1253 C1255 1.390 . S
C1253 H1257 0.950 . S
H1254 C1250 0.950 . S
C1255 C1253 1.390 . S
C1255 C1256 1.387 . S
C1255 H1258 0.950 . S
C1256 C1255 1.387 . S
C1256 C1259 1.387 . S
H1257 C1253 0.950 . S
H1258 C1255 0.950 . S
C1259 C1250 1.390 . S
C1259 H1252 0.950 . S
C1259 C1256 1.387 . S
C1260 C1261 1.387 . S
C1260 H1264 0.950 . S
C1260 C1269 1.390 . S
C1261 C1260 1.387 . S
C1261 C1263 1.396 . S
H1262 C1269 0.950 . S
C1263 C1261 1.396 . S
C1263 C1265 1.385 1_565 S
C1263 H1267 0.946 . S
H1264 C1260 0.950 . S
C1265 C1263 1.385 1_545 S
C1265 C1266 1.387 . S
C1265 H1268 0.950 . S
C1266 C1265 1.387 . S
C1266 C1269 1.387 1_545 S
H1267 C1263 0.946 . S
H1268 C1265 0.950 . S
C1269 C1260 1.390 . S
C1269 H1262 0.950 . S
C1269 C1266 1.387 1_565 S
C1270 C1271 1.377 1_655 S
C1270 H1274 0.940 . S
C1270 C1279 1.411 . S
C1271 C1270 1.377 1_455 S
C1271 C1273 1.387 . S
H1272 C1279 0.950 . S
C1273 C1271 1.387 . S
C1273 C1275 1.390 . S
C1273 H1277 0.950 . S
H1274 C1270 0.940 . S
C1275 C1273 1.390 . S
C1275 C1276 1.387 1_455 S
C1275 H1278 0.950 . S
C1276 C1275 1.387 1_655 S
C1276 C1279 1.387 . S
H1277 C1273 0.950 . S
H1278 C1275 0.950 . S
C1279 C1270 1.411 . S
C1279 H1272 0.950 . S
C1279 C1276 1.387 . S
C1280 C1281 1.387 . S
C1280 H1284 0.950 . S
C1280 C1289 1.390 . S
C1281 C1280 1.387 . S
C1281 C1283 1.387 . S
H1282 C1289 0.950 . S
C1283 C1281 1.387 . S
C1283 C1285 1.390 . S
C1283 H1287 0.950 . S
H1284 C1280 0.950 . S
C1285 C1283 1.390 . S
C1285 C1286 1.387 . S
C1285 H1288 0.950 . S
C1286 C1285 1.387 . S
C1286 C1289 1.387 . S
H1287 C1283 0.950 . S
H1288 C1285 0.950 . S
C1289 C1280 1.390 . S
C1289 H1282 0.950 . S
C1289 C1286 1.387 . S
C1290 C1291 1.387 . S
C1290 H1294 0.950 . S
C1290 C1299 1.390 . S
C1291 C1290 1.387 . S
C1291 C1293 1.387 . S
H1292 C1299 0.950 . S
C1293 C1291 1.387 . S
C1293 C1295 1.390 . S
C1293 H1297 0.950 . S
H1294 C1290 0.950 . S
C1295 C1293 1.390 . S
C1295 C1296 1.387 . S
C1295 H1298 0.950 . S
C1296 C1295 1.387 . S
C1296 C1299 1.387 . S
H1297 C1293 0.950 . S
H1298 C1295 0.950 . S
C1299 C1290 1.390 . S
C1299 H1292 0.950 . S
C1299 C1296 1.387 . S
C1300 C1301 1.387 . S
C1300 H1304 0.950 . S
C1300 C1309 1.390 . S
C1301 C1300 1.387 . S
C1301 C1303 1.387 . S
H1302 C1309 0.950 . S
C1303 C1301 1.387 . S
C1303 C1305 1.390 . S
C1303 H1307 0.950 . S
H1304 C1300 0.950 . S
C1305 C1303 1.390 . S
C1305 C1306 1.387 . S
C1305 H1308 0.950 . S
C1306 C1305 1.387 . S
C1306 C1309 1.387 . S
H1307 C1303 0.950 . S
H1308 C1305 0.950 . S
C1309 C1300 1.390 . S
C1309 H1302 0.950 . S
C1309 C1306 1.387 . S
C1310 C1311 1.387 . S
C1310 H1314 0.950 . S
C1310 C1319 1.390 . S
C1311 C1310 1.387 . S
C1311 C1313 1.387 . S
H1312 C1319 0.950 . S
C1313 C1311 1.387 . S
C1313 C1315 1.390 . S
C1313 H1317 0.950 . S
H1314 C1310 0.950 . S
C1315 C1313 1.390 . S
C1315 C1316 1.387 . S
C1315 H1318 0.950 . S
C1316 C1315 1.387 . S
C1316 C1319 1.387 . S
H1317 C1313 0.950 . S
H1318 C1315 0.950 . S
C1319 C1310 1.390 . S
C1319 H1312 0.950 . S
C1319 C1316 1.387 . S
C1320 C1321 1.387 . S
C1320 H1324 0.950 . S
C1320 C1329 1.390 . S
C1321 C1320 1.387 . S
C1321 C1323 1.387 . S
H1322 C1329 0.950 . S
C1323 C1321 1.387 . S
C1323 C1325 1.390 . S
C1323 H1327 0.950 . S
H1324 C1320 0.950 . S
C1325 C1323 1.390 . S
C1325 C1326 1.387 . S
C1325 H1328 0.950 . S
C1326 C1325 1.387 . S
C1326 C1329 1.387 . S
H1327 C1323 0.950 . S
H1328 C1325 0.950 . S
C1329 C1320 1.390 . S
C1329 H1322 0.950 . S
C1329 C1326 1.387 . S
C1330 C1331 1.387 . S
C1330 H1334 0.950 . S
C1330 C1339 1.390 . S
C1331 C1330 1.387 . S
C1331 C1333 1.387 . S
H1332 C1339 0.950 . S
C1333 C1331 1.387 . S
C1333 C1335 1.390 . S
C1333 H1337 0.950 . S
H1334 C1330 0.950 . S
C1335 C1333 1.390 . S
C1335 C1336 1.387 . S
C1335 H1338 0.950 . S
C1336 C1335 1.387 . S
C1336 C1339 1.387 . S
H1337 C1333 0.950 . S
H1338 C1335 0.950 . S
C1339 C1330 1.390 . S
C1339 H1332 0.950 . S
C1339 C1336 1.387 . S
C1340 C1341 1.387 . S
C1340 H1344 0.950 . S
C1340 C1349 1.390 . S
C1341 C1340 1.387 . S
C1341 C1343 1.387 . S
H1342 C1349 0.950 . S
C1343 C1341 1.387 . S
C1343 C1345 1.390 . S
C1343 H1347 0.950 . S
H1344 C1340 0.950 . S
C1345 C1343 1.390 . S
C1345 C1346 1.387 . S
C1345 H1348 0.950 . S
C1346 C1345 1.387 . S
C1346 C1349 1.387 . S
H1347 C1343 0.950 . S
H1348 C1345 0.950 . S
C1349 C1340 1.390 . S
C1349 H1342 0.950 . S
C1349 C1346 1.387 . S
C1350 C1351 1.387 . S
C1350 H1354 0.950 . S
C1350 C1359 1.390 . S
C1351 C1350 1.387 . S
C1351 C1353 1.387 . S
H1352 C1359 0.950 . S
C1353 C1351 1.387 . S
C1353 C1355 1.390 . S
C1353 H1357 0.950 . S
H1354 C1350 0.950 . S
C1355 C1353 1.390 . S
C1355 C1356 1.387 . S
C1355 H1358 0.950 . S
C1356 C1355 1.387 . S
C1356 C1359 1.387 . S
H1357 C1353 0.950 . S
H1358 C1355 0.950 . S
C1359 C1350 1.390 . S
C1359 H1352 0.950 . S
C1359 C1356 1.387 . S
C1360 C1361 1.387 . S
C1360 H1364 0.950 . S
C1360 C1369 1.390 . S
C1361 C1360 1.387 . S
C1361 C1363 1.387 . S
H1362 C1369 0.950 . S
C1363 C1361 1.387 . S
C1363 C1365 1.390 . S
C1363 H1367 0.950 . S
H1364 C1360 0.950 . S
C1365 C1363 1.390 . S
C1365 C1366 1.387 . S
C1365 H1368 0.950 . S
C1366 C1365 1.387 . S
C1366 C1369 1.387 . S
H1367 C1363 0.950 . S
H1368 C1365 0.950 . S
C1369 C1360 1.390 . S
C1369 H1362 0.950 . S
C1369 C1366 1.387 . S
C1370 C1371 1.387 . S
C1370 H1374 0.950 . S
C1370 C1379 1.390 . S
C1371 C1370 1.387 . S
C1371 C1373 1.387 . S
H1372 C1379 0.950 . S
C1373 C1371 1.387 . S
C1373 C1375 1.390 . S
C1373 H1377 0.950 . S
H1374 C1370 0.950 . S
C1375 C1373 1.390 . S
C1375 C1376 1.387 . S
C1375 H1378 0.950 . S
C1376 C1375 1.387 . S
C1376 C1379 1.387 . S
H1377 C1373 0.950 . S
H1378 C1375 0.950 . S
C1379 C1370 1.390 . S
C1379 H1372 0.950 . S
C1379 C1376 1.387 . S
C1380 C1381 1.387 . S
C1380 H1384 0.950 . S
C1380 C1389 1.390 . S
C1381 C1380 1.387 . S
C1381 C1383 1.387 . S
H1382 C1389 0.950 . S
C1383 C1381 1.387 . S
C1383 C1385 1.390 . S
C1383 H1387 0.950 . S
H1384 C1380 0.950 . S
C1385 C1383 1.390 . S
C1385 C1386 1.387 . S
C1385 H1388 0.950 . S
C1386 C1385 1.387 . S
C1386 C1389 1.387 . S
H1387 C1383 0.950 . S
H1388 C1385 0.950 . S
C1389 C1380 1.390 . S
C1389 H1382 0.950 . S
C1389 C1386 1.387 . S
C1390 C1391 1.387 . S
C1390 H1394 0.950 . S
C1390 C1399 1.390 . S
C1391 C1390 1.387 . S
C1391 C1393 1.387 . S
H1392 C1399 0.950 . S
C1393 C1391 1.387 . S
C1393 C1395 1.390 . S
C1393 H1397 0.950 . S
H1394 C1390 0.950 . S
C1395 C1393 1.390 . S
C1395 C1396 1.387 . S
C1395 H1398 0.950 . S
C1396 C1395 1.387 . S
C1396 C1399 1.387 . S
H1397 C1393 0.950 . S
H1398 C1395 0.950 . S
C1399 C1390 1.390 . S
C1399 H1392 0.950 . S
C1399 C1396 1.387 . S
C1400 C1401 1.387 . S
C1400 H1404 0.950 . S
C1400 C1409 1.390 . S
C1401 C1400 1.387 . S
C1401 C1403 1.387 . S
H1402 C1409 0.950 . S
C1403 C1401 1.387 . S
C1403 C1405 1.390 . S
C1403 H1407 0.950 . S
H1404 C1400 0.950 . S
C1405 C1403 1.390 . S
C1405 C1406 1.387 . S
C1405 H1408 0.950 . S
C1406 C1405 1.387 . S
C1406 C1409 1.387 . S
H1407 C1403 0.950 . S
H1408 C1405 0.950 . S
C1409 C1400 1.390 . S
C1409 H1402 0.950 . S
C1409 C1406 1.387 . S
C1410 C1411 1.387 . S
C1410 H1414 0.950 . S
C1410 C1419 1.390 . S
C1411 C1410 1.387 . S
C1411 C1413 1.387 . S
H1412 C1419 0.950 . S
C1413 C1411 1.387 . S
C1413 C1415 1.390 . S
C1413 H1417 0.950 . S
H1414 C1410 0.950 . S
C1415 C1413 1.390 . S
C1415 C1416 1.387 . S
C1415 H1418 0.950 . S
C1416 C1415 1.387 . S
C1416 C1419 1.387 . S
H1417 C1413 0.950 . S
H1418 C1415 0.950 . S
C1419 C1410 1.390 . S
C1419 H1412 0.950 . S
C1419 C1416 1.387 . S
C1420 C1421 1.387 . S
C1420 H1424 0.950 . S
C1420 C1429 1.390 . S
C1421 C1420 1.387 . S
C1421 C1423 1.387 . S
H1422 C1429 0.950 . S
C1423 C1421 1.387 . S
C1423 C1425 1.390 . S
C1423 H1427 0.950 . S
H1424 C1420 0.950 . S
C1425 C1423 1.390 . S
C1425 C1426 1.387 . S
C1425 H1428 0.950 . S
C1426 C1425 1.387 . S
C1426 C1429 1.387 . S
H1427 C1423 0.950 . S
H1428 C1425 0.950 . S
C1429 C1420 1.390 . S
C1429 H1422 0.950 . S
C1429 C1426 1.387 . S
C1430 C1431 1.387 . S
C1430 H1434 0.950 . S
C1430 C1439 1.390 . S
C1431 C1430 1.387 . S
C1431 C1433 1.387 . S
H1432 C1439 0.950 . S
C1433 C1431 1.387 . S
C1433 C1435 1.390 . S
C1433 H1437 0.950 . S
H1434 C1430 0.950 . S
C1435 C1433 1.390 . S
C1435 C1436 1.387 . S
C1435 H1438 0.950 . S
C1436 C1435 1.387 . S
C1436 C1439 1.387 . S
H1437 C1433 0.950 . S
H1438 C1435 0.950 . S
C1439 C1430 1.390 . S
C1439 H1432 0.950 . S
C1439 C1436 1.387 . S
C1440 C1441 1.387 . S
C1440 H1444 0.950 . S
C1440 C1449 1.390 . S
C1441 C1440 1.387 . S
C1441 C1443 1.387 . S
H1442 C1449 0.950 . S
C1443 C1441 1.387 . S
C1443 C1445 1.390 . S
C1443 H1447 0.950 . S
H1444 C1440 0.950 . S
C1445 C1443 1.390 . S
C1445 C1446 1.387 . S
C1445 H1448 0.950 . S
C1446 C1445 1.387 . S
C1446 C1449 1.387 . S
H1447 C1443 0.950 . S
H1448 C1445 0.950 . S
C1449 C1440 1.390 . S
C1449 H1442 0.950 . S
C1449 C1446 1.387 . S
C1450 C1451 1.387 . S
C1450 H1454 0.950 . S
C1450 C1459 1.390 . S
C1451 C1450 1.387 . S
C1451 C1453 1.387 . S
H1452 C1459 0.950 . S
C1453 C1451 1.387 . S
C1453 C1455 1.390 . S
C1453 H1457 0.950 . S
H1454 C1450 0.950 . S
C1455 C1453 1.390 . S
C1455 C1456 1.387 . S
C1455 H1458 0.950 . S
C1456 C1455 1.387 . S
C1456 C1459 1.387 . S
H1457 C1453 0.950 . S
H1458 C1455 0.950 . S
C1459 C1450 1.390 . S
C1459 H1452 0.950 . S
C1459 C1456 1.387 . S
C1460 C1461 1.387 . S
C1460 H1464 0.950 . S
C1460 C1469 1.390 . S
C1461 C1460 1.387 . S
C1461 C1463 1.387 . S
H1462 C1469 0.950 . S
C1463 C1461 1.387 . S
C1463 C1465 1.390 . S
C1463 H1467 0.950 . S
H1464 C1460 0.950 . S
C1465 C1463 1.390 . S
C1465 C1466 1.387 . S
C1465 H1468 0.950 . S
C1466 C1465 1.387 . S
C1466 C1469 1.387 . S
H1467 C1463 0.950 . S
H1468 C1465 0.950 . S
C1469 C1460 1.390 . S
C1469 H1462 0.950 . S
C1469 C1466 1.387 . S
C1470 C1471 1.387 . S
C1470 H1474 0.950 . S
C1470 C1479 1.390 . S
C1471 C1470 1.387 . S
C1471 C1473 1.387 . S
H1472 C1479 0.950 . S
C1473 C1471 1.387 . S
C1473 C1475 1.390 . S
C1473 H1477 0.950 . S
H1474 C1470 0.950 . S
C1475 C1473 1.390 . S
C1475 C1476 1.387 . S
C1475 H1478 0.950 . S
C1476 C1475 1.387 . S
C1476 C1479 1.387 . S
H1477 C1473 0.950 . S
H1478 C1475 0.950 . S
C1479 C1470 1.390 . S
C1479 H1472 0.950 . S
C1479 C1476 1.387 . S
C1480 C1481 1.387 . S
C1480 H1484 0.950 . S
C1480 C1489 1.390 . S
C1481 C1480 1.387 . S
C1481 C1483 1.387 . S
H1482 C1489 0.950 . S
C1483 C1481 1.387 . S
C1483 C1485 1.390 . S
C1483 H1487 0.950 . S
H1484 C1480 0.950 . S
C1485 C1483 1.390 . S
C1485 C1486 1.387 . S
C1485 H1488 0.950 . S
C1486 C1485 1.387 . S
C1486 C1489 1.387 . S
H1487 C1483 0.950 . S
H1488 C1485 0.950 . S
C1489 C1480 1.390 . S
C1489 H1482 0.950 . S
C1489 C1486 1.387 . S
C1490 C1491 1.387 . S
C1490 H1494 0.950 . S
C1490 C1499 1.390 . S
C1491 C1490 1.387 . S
C1491 C1493 1.387 . S
H1492 C1499 0.950 . S
C1493 C1491 1.387 . S
C1493 C1495 1.390 . S
C1493 H1497 0.950 . S
H1494 C1490 0.950 . S
C1495 C1493 1.390 . S
C1495 C1496 1.387 . S
C1495 H1498 0.950 . S
C1496 C1495 1.387 . S
C1496 C1499 1.387 . S
H1497 C1493 0.950 . S
H1498 C1495 0.950 . S
C1499 C1490 1.390 . S
C1499 H1492 0.950 . S
C1499 C1496 1.387 . S
C1500 C1501 1.387 . S
C1500 H1504 0.950 . S
C1500 C1509 1.390 . S
C1501 C1500 1.387 . S
C1501 C1503 1.387 . S
H1502 C1509 0.950 . S
C1503 C1501 1.387 . S
C1503 C1505 1.390 . S
C1503 H1507 0.950 . S
H1504 C1500 0.950 . S
C1505 C1503 1.390 . S
C1505 C1506 1.387 . S
C1505 H1508 0.950 . S
C1506 C1505 1.387 . S
C1506 C1509 1.387 . S
H1507 C1503 0.950 . S
H1508 C1505 0.950 . S
C1509 C1500 1.390 . S
C1509 H1502 0.950 . S
C1509 C1506 1.387 . S
C1510 C1511 1.387 . S
C1510 H1514 0.950 . S
C1510 C1519 1.390 . S
C1511 C1510 1.387 . S
C1511 C1513 1.387 . S
H1512 C1519 0.950 . S
C1513 C1511 1.387 . S
C1513 C1515 1.390 . S
C1513 H1517 0.950 . S
H1514 C1510 0.950 . S
C1515 C1513 1.390 . S
C1515 C1516 1.387 . S
C1515 H1518 0.950 . S
C1516 C1515 1.387 . S
C1516 C1519 1.387 . S
H1517 C1513 0.950 . S
H1518 C1515 0.950 . S
C1519 C1510 1.390 . S
C1519 H1512 0.950 . S
C1519 C1516 1.387 . S
C1520 C1521 1.387 . S
C1520 H1524 0.950 . S
C1520 C1529 1.390 . S
C1521 C1520 1.387 . S
C1521 C1523 1.387 . S
H1522 C1529 0.950 . S
C1523 C1521 1.387 . S
C1523 C1525 1.390 . S
C1523 H1527 0.950 . S
H1524 C1520 0.950 . S
C1525 C1523 1.390 . S
C1525 C1526 1.387 . S
C1525 H1528 0.950 . S
C1526 C1525 1.387 . S
C1526 C1529 1.387 . S
H1527 C1523 0.950 . S
H1528 C1525 0.950 . S
C1529 C1520 1.390 . S
C1529 H1522 0.950 . S
C1529 C1526 1.387 . S
C991 C177 1.476 . S
C996 C301 1.420 . S
C1001 C190 1.501 . S
C1006 C385 1.452 . S
C1011 C164 1.472 . S
C1016 C465 1.470 . S
C1021 C151 1.462 . S
C1026 C381 1.463 . S
C1036 C469 1.412 . S
C1031 C125 1.468 . S
C1041 C138 1.440 . S
C1046 C297 1.438 . S
C1056 C290 1.462 . S
C1051 C147 1.467 . S
C1066 C374 1.483 . S
C1061 C121 1.482 . S
C1071 C134 1.485 . S
C1076 C476 1.484 . S
C1081 C173 1.458 . S
C1086 C392 1.459 . S
C1091 C186 1.445 . S
C1096 C458 1.436 . S
C1106 C308 1.441 . S
C1101 C160 1.449 . S
C1116 C553 1.421 . S
C1111 C21 1.476 . S
C1121 C34 1.501 . S
C1126 C637 1.451 . S
C1131 C8 1.472 . S
C1136 C717 1.470 . S
C1141 C229 1.462 . S
C1146 C633 1.462 . S
C1151 C203 1.469 . S
C1156 C721 1.409 . S
C1161 C216 1.440 . S
C1166 C549 1.438 . S
C1171 C225 1.469 . S
C1176 C542 1.460 . S
C1181 C199 1.482 . S
C1186 C626 1.482 . S
C1196 C728 1.484 . S
C1191 C212 1.483 . S
C1201 C17 1.458 1_565 S
C1206 C644 1.459 . S
C1216 C710 1.436 . S
C1211 C30 1.445 1_455 S
C1221 C4 1.450 . S
C1226 C560 1.443 . S
C1236 C805 1.421 . S
C1231 C99 1.476 . S
C1241 C112 1.502 . S
C1246 C889 1.449 . S
C1256 C969 1.471 . S
C1251 C86 1.472 . S
C1266 C885 1.463 . S
C1261 C73 1.462 . S
C1276 C973 1.412 . S
C1271 C47 1.468 . S
C1281 C60 1.440 . S
C1286 C801 1.437 . S
C1291 C69 1.466 1_655 S
C1296 C794 1.463 . S
C1301 C43 1.479 . S
C1306 C878 1.486 . S
C1316 C980 1.484 . S
C1311 C56 1.485 1_545 S
C1321 C95 1.458 . S
C1326 C896 1.462 . S
C1331 C108 1.445 . S
C1336 C962 1.436 . S
C1341 C82 1.448 . S
C1346 C812 1.444 . S
C1351 C204 1.573 . S
C1356 C304 1.472 . S
C1366 C388 1.478 . S
C1361 C217 1.616 . S
C1371 C230 1.570 . S
C1376 C460 1.384 . S
C1381 C87 1.582 . S
C1386 C376 1.379 . S
C1391 C100 1.581 . S
C1396 C472 1.459 . S
C1406 C292 1.376 . S
C1401 C113 1.542 . S
C1411 C48 1.573 . S
C1416 C556 1.472 . S
C1421 C61 1.617 . S
C1426 C640 1.480 . S
C1431 C74 1.572 . S
C1436 C712 1.383 . S
C1441 C165 1.581 . S
C1446 C628 1.377 . S
C1456 C724 1.458 . S
C1451 C178 1.583 . S
C1461 C191 1.540 . S
C1466 C544 1.373 . S
C1471 C126 1.573 . S
C1476 C808 1.473 . S
C1481 C139 1.616 . S
C1486 C892 1.483 . S
C1496 C964 1.382 . S
C1491 C152 1.572 . S
C1501 C9 1.583 . S
C1506 C880 1.377 . S
C1511 C22 1.581 . S
C1516 C976 1.459 . S
C1521 C35 1.542 . S
C1526 C796 1.376 . S
