# Generated by pormake.
# Topology nom, (4,4)-cn, num edge types: 1
# Building blocks:
#     Node 0, Type 0, BuildingBlock: MIFKUJ_clean_linker_1, # of connection points: 4
#     Node 1, Type 0, BuildingBlock: MIFKUJ_clean_linker_1, # of connection points: 4
#     Node 2, Type 0, BuildingBlock: MIFKUJ_clean_linker_1, # of connection points: 4
#     Node 3, Type 0, BuildingBlock: MIFKUJ_clean_linker_1, # of connection points: 4
#     Node 4, Type 0, BuildingBlock: MIFKUJ_clean_linker_1, # of connection points: 4
#     Node 5, Type 0, BuildingBlock: MIFKUJ_clean_linker_1, # of connection points: 4
#     Node 6, Type 1, BuildingBlock: QUQFOY_clean_sbu_1, # of connection points: 4
#     Node 7, Type 1, BuildingBlock: QUQFOY_clean_sbu_1, # of connection points: 4
#     Node 8, Type 1, BuildingBlock: QUQFOY_clean_sbu_1, # of connection points: 4
#     Node 9, Type 1, BuildingBlock: QUQFOY_clean_sbu_1, # of connection points: 4
#     Node 10, Type 1, BuildingBlock: QUQFOY_clean_sbu_1, # of connection points: 4
#     Node 11, Type 1, BuildingBlock: QUQFOY_clean_sbu_1, # of connection points: 4
#     Edge 12, Type (0, 1), BuildingBlock: XIVTED_clean_linker_0, # of connection points: 2
#     Edge 13, Type (0, 1), BuildingBlock: XIVTED_clean_linker_0, # of connection points: 2
#     Edge 14, Type (0, 1), BuildingBlock: XIVTED_clean_linker_0, # of connection points: 2
#     Edge 15, Type (0, 1), BuildingBlock: XIVTED_clean_linker_0, # of connection points: 2
#     Edge 16, Type (0, 1), BuildingBlock: XIVTED_clean_linker_0, # of connection points: 2
#     Edge 17, Type (0, 1), BuildingBlock: XIVTED_clean_linker_0, # of connection points: 2
#     Edge 18, Type (0, 1), BuildingBlock: XIVTED_clean_linker_0, # of connection points: 2
#     Edge 19, Type (0, 1), BuildingBlock: XIVTED_clean_linker_0, # of connection points: 2
#     Edge 20, Type (0, 1), BuildingBlock: XIVTED_clean_linker_0, # of connection points: 2
#     Edge 21, Type (0, 1), BuildingBlock: XIVTED_clean_linker_0, # of connection points: 2
#     Edge 22, Type (0, 1), BuildingBlock: XIVTED_clean_linker_0, # of connection points: 2
#     Edge 23, Type (0, 1), BuildingBlock: XIVTED_clean_linker_0, # of connection points: 2
#     Edge 24, Type (0, 1), BuildingBlock: XIVTED_clean_linker_0, # of connection points: 2
#     Edge 25, Type (0, 1), BuildingBlock: XIVTED_clean_linker_0, # of connection points: 2
#     Edge 26, Type (0, 1), BuildingBlock: XIVTED_clean_linker_0, # of connection points: 2
#     Edge 27, Type (0, 1), BuildingBlock: XIVTED_clean_linker_0, # of connection points: 2
#     Edge 28, Type (0, 1), BuildingBlock: XIVTED_clean_linker_0, # of connection points: 2
#     Edge 29, Type (0, 1), BuildingBlock: XIVTED_clean_linker_0, # of connection points: 2
#     Edge 30, Type (0, 1), BuildingBlock: XIVTED_clean_linker_0, # of connection points: 2
#     Edge 31, Type (0, 1), BuildingBlock: XIVTED_clean_linker_0, # of connection points: 2
#     Edge 32, Type (0, 1), BuildingBlock: XIVTED_clean_linker_0, # of connection points: 2
#     Edge 33, Type (0, 1), BuildingBlock: XIVTED_clean_linker_0, # of connection points: 2
#     Edge 34, Type (0, 1), BuildingBlock: XIVTED_clean_linker_0, # of connection points: 2
#     Edge 35, Type (0, 1), BuildingBlock: XIVTED_clean_linker_0, # of connection points: 2
# Relax obj value: 0.014
# Max RMSD: 0.114
# Mean RMSD: 0.111
data_MOF--net-nom--node1-QUQFOY_clean_sbu_1--node2-MIFKUJ_clean_linker_1--edge1-XIVTED_clean_linker_0
_symmetry_space_group_name_H-M    P1
_symmetry_Int_Tables_number       1
_symmetry_cell_setting            triclinic
loop_
_symmetry_equiv_pos_as_xyz
'x, y, z'
_cell_length_a     56.048564
_cell_length_b     56.040941
_cell_length_c     53.763413
_cell_angle_alpha  90.01381
_cell_angle_beta   90.007555
_cell_angle_gamma 120.00358
loop_
_atom_site_label
_atom_site_type_symbol
_atom_site_fract_x
_atom_site_fract_y
_atom_site_fract_z
_atom_type_partial_charge
H0 H 0.97294 0.45128 0.28337 0.0
H1 H 0.93458 0.43155 0.25401 0.0
H2 H 0.92596 0.50374 0.26222 0.0
H3 H 0.96321 0.52228 0.29275 0.0
H4 H 0.02448 0.5115 0.28058 0.0
H5 H 0.94208 0.44907 0.3291 0.0
H6 H 0.89497 0.43446 0.34209 0.0
H7 H 0.92341 0.51417 0.37605 0.0
H8 H 0.96998 0.52912 0.36162 0.0
H9 H 0.05019 0.56777 0.37348 0.0
H10 H 0.08751 0.58831 0.40382 0.0
H11 H 0.11147 0.5283 0.38415 0.0
H12 H 0.07506 0.50909 0.35285 0.0
H13 H 0.00604 0.51304 0.37072 0.0
H14 H 0.07541 0.57967 0.32188 0.0
H15 H 0.1214 0.60892 0.30495 0.0
H16 H 0.11904 0.53773 0.27137 0.0
H17 H 0.07275 0.50824 0.28883 0.0
C18 C 0.97075 0.48812 0.29017 0.0
C19 C 0.9627 0.46275 0.27876 0.0
C20 C 0.94083 0.45162 0.26185 0.0
C21 C 0.92701 0.466 0.25556 0.0
C22 C 0.93558 0.49172 0.26688 0.0
C23 C 0.9571 0.50255 0.28415 0.0
C24 C 0.99316 0.49936 0.30875 0.0
C25 C 0.02046 0.51119 0.30035 0.0
C26 C 0.98782 0.50043 0.33433 0.0
C27 C 0.95951 0.49041 0.34389 0.0
C28 C 0.93809 0.46348 0.33909 0.0
C29 C 0.91119 0.45502 0.34686 0.0
C30 C 0.90526 0.47322 0.35991 0.0
C31 C 0.92703 0.4998 0.36554 0.0
C32 C 0.95379 0.5083 0.35754 0.0
C33 C 0.0599 0.53693 0.36102 0.0
C34 C 0.0636 0.55917 0.37573 0.0
C35 C 0.08489 0.57076 0.39319 0.0
C36 C 0.10255 0.55992 0.3967 0.0
C37 C 0.0987 0.53759 0.38178 0.0
C38 C 0.07772 0.52637 0.36399 0.0
C39 C 0.03727 0.52457 0.34262 0.0
C40 C 0.01001 0.51264 0.35101 0.0
C41 C 0.04261 0.5246 0.31694 0.0
C42 C 0.0708 0.54175 0.30685 0.0
C43 C 0.08486 0.57026 0.31109 0.0
C44 C 0.11104 0.58701 0.30118 0.0
C45 C 0.12376 0.57564 0.28669 0.0
C46 C 0.10978 0.54701 0.28258 0.0
C47 C 0.08336 0.5302 0.29242 0.0
H48 H 0.44034 0.96727 0.53329 0.0
H49 H 0.41258 0.92103 0.5501 0.0
H50 H 0.46278 0.89494 0.51049 0.0
H51 H 0.49163 0.94186 0.49502 0.0
H52 H 0.49123 0.00566 0.53761 0.0
H53 H 0.43421 0.95139 0.46901 0.0
H54 H 0.41527 0.91288 0.43964 0.0
H55 H 0.4972 0.94031 0.41147 0.0
H56 H 0.51604 0.97823 0.44141 0.0
H57 H 0.55822 0.06794 0.45318 0.0
H58 H 0.57677 0.11422 0.43523 0.0
H59 H 0.51108 0.12127 0.47006 0.0
H60 H 0.49253 0.07516 0.48743 0.0
H61 H 0.50559 0.02103 0.44662 0.0
H62 H 0.56208 0.07456 0.51643 0.0
H63 H 0.58033 0.11228 0.54645 0.0
H64 H 0.49718 0.0878 0.56945 0.0
H65 H 0.47937 0.0493 0.54025 0.0
C66 C 0.46784 0.95802 0.51255 0.0
C67 C 0.44563 0.95171 0.52848 0.0
C68 C 0.42954 0.9251 0.53785 0.0
C69 C 0.43512 0.90405 0.53136 0.0
C70 C 0.45793 0.91061 0.516 0.0
C71 C 0.47426 0.93739 0.50686 0.0
C72 C 0.48378 0.98608 0.50166 0.0
C73 C 0.49418 0.0089 0.51769 0.0
C74 C 0.48824 0.99052 0.4757 0.0
C75 C 0.47658 0.96746 0.45759 0.0
C76 C 0.44809 0.94895 0.45663 0.0
C77 C 0.43728 0.92708 0.4397 0.0
C78 C 0.45474 0.92343 0.42329 0.0
C79 C 0.48323 0.94224 0.42413 0.0
C80 C 0.49402 0.96408 0.44106 0.0
C81 C 0.52417 0.06827 0.4718 0.0
C82 C 0.54788 0.07953 0.45687 0.0
C83 C 0.55851 0.10597 0.44677 0.0
C84 C 0.54532 0.12133 0.45117 0.0
C85 C 0.52152 0.10985 0.46606 0.0
C86 C 0.51104 0.0836 0.47621 0.0
C87 C 0.51254 0.0403 0.48257 0.0
C88 C 0.50292 0.0176 0.46653 0.0
C89 C 0.50851 0.03588 0.50846 0.0
C90 C 0.51942 0.05914 0.52625 0.0
C91 C 0.54786 0.0774 0.528 0.0
C92 C 0.55821 0.09912 0.54505 0.0
C93 C 0.54028 0.10324 0.5605 0.0
C94 C 0.51171 0.08504 0.55831 0.0
C95 C 0.50142 0.06307 0.54153 0.0
H96 H 0.52654 0.55733 0.70908 0.0
H97 H 0.50735 0.57634 0.73873 0.0
H98 H 0.42566 0.52128 0.71031 0.0
H99 H 0.44497 0.50183 0.68119 0.0
H100 H 0.51524 0.50285 0.70359 0.0
H101 H 0.50127 0.5697 0.65623 0.0
H102 H 0.4705 0.58594 0.64175 0.0
H103 H 0.42327 0.51013 0.60059 0.0
H104 H 0.45292 0.4934 0.61639 0.0
H105 H 0.4949 0.45914 0.60287 0.0
H106 H 0.51452 0.44155 0.57234 0.0
H107 H 0.59343 0.48565 0.60934 0.0
H108 H 0.57393 0.50408 0.6392 0.0
H109 H 0.50492 0.50864 0.61248 0.0
H110 H 0.50338 0.43755 0.65989 0.0
H111 H 0.51996 0.40828 0.67737 0.0
H112 H 0.58379 0.47823 0.71695 0.0
H113 H 0.56712 0.50763 0.69916 0.0
C114 C 0.48722 0.5284 0.69279 0.0
C115 C 0.50449 0.5493 0.70934 0.0
C116 C 0.49351 0.5603 0.7261 0.0
C117 C 0.46499 0.55049 0.72673 0.0
C118 C 0.44768 0.52919 0.71039 0.0
C119 C 0.45869 0.51818 0.69363 0.0
C120 C 0.49921 0.51747 0.67459 0.0
C121 C 0.51344 0.50458 0.68366 0.0
C122 C 0.49564 0.51854 0.6486 0.0
C123 C 0.47908 0.53006 0.63786 0.0
C124 C 0.48418 0.55654 0.6442 0.0
C125 C 0.46674 0.56594 0.63565 0.0
C126 C 0.44412 0.54921 0.62025 0.0
C127 C 0.44002 0.52331 0.61292 0.0
C128 C 0.4572 0.51382 0.62171 0.0
C129 C 0.53289 0.48284 0.6234 0.0
C130 C 0.51645 0.46508 0.60436 0.0
C131 C 0.52764 0.4548 0.58707 0.0
C132 C 0.55555 0.46211 0.58843 0.0
C133 C 0.57194 0.47981 0.6076 0.0
C134 C 0.56074 0.49015 0.62485 0.0
C135 C 0.52104 0.49413 0.64146 0.0
C136 C 0.50702 0.50723 0.63241 0.0
C137 C 0.52364 0.49217 0.66745 0.0
C138 C 0.53417 0.47479 0.67807 0.0
C139 C 0.52104 0.44664 0.67222 0.0
C140 C 0.5304 0.4299 0.68238 0.0
C141 C 0.55311 0.44096 0.6986 0.0
C142 C 0.56635 0.46921 0.70438 0.0
C143 C 0.55679 0.48595 0.69436 0.0
H144 H 0.04423 0.55027 0.77617 0.0
H145 H 0.08223 0.57001 0.74634 0.0
H146 H 0.11193 0.51775 0.77554 0.0
H147 H 0.07335 0.49752 0.8048 0.0
H148 H 0.00229 0.49573 0.78254 0.0
H149 H 0.07897 0.56687 0.83322 0.0
H150 H 0.12616 0.58788 0.84897 0.0
H151 H 0.10846 0.5088 0.87839 0.0
H152 H 0.06117 0.48848 0.86354 0.0
H153 H 0.979 0.45489 0.88421 0.0
H154 H 0.94164 0.43871 0.91453 0.0
H155 H 0.91014 0.48557 0.87718 0.0
H156 H 0.94815 0.50245 0.84743 0.0
H157 H 0.02011 0.50417 0.87344 0.0
H158 H 0.9435 0.43437 0.83209 0.0
H159 H 0.89616 0.40861 0.81677 0.0
H160 H 0.91286 0.47443 0.76561 0.0
H161 H 0.95995 0.50117 0.78204 0.0
C162 C 0.05612 0.52263 0.79283 0.0
C163 C 0.05887 0.543 0.77604 0.0
C164 C 0.08075 0.55444 0.75919 0.0
C165 C 0.10023 0.5456 0.75871 0.0
C166 C 0.09719 0.5249 0.77534 0.0
C167 C 0.07529 0.51347 0.7922 0.0
C168 C 0.03332 0.51124 0.81113 0.0
C169 C 0.00605 0.49791 0.80242 0.0
C170 C 0.03837 0.51303 0.83701 0.0
C171 C 0.06667 0.52615 0.84722 0.0
C172 C 0.08532 0.55421 0.84325 0.0
C173 C 0.11235 0.56611 0.85213 0.0
C174 C 0.1213 0.55009 0.86498 0.0
C175 C 0.10231 0.52199 0.86907 0.0
C176 C 0.07525 0.51023 0.86046 0.0
C177 C 0.96626 0.47972 0.86346 0.0
C178 C 0.96414 0.46181 0.88266 0.0
C179 C 0.9426 0.45234 0.89981 0.0
C180 C 0.92279 0.4607 0.89817 0.0
C181 C 0.92516 0.4789 0.87907 0.0
C182 C 0.94674 0.4884 0.86194 0.0
C183 C 0.98883 0.48923 0.84494 0.0
C184 C 0.01611 0.5021 0.85358 0.0
C185 C 0.98365 0.48632 0.81897 0.0
C186 C 0.95522 0.47012 0.80874 0.0
C187 C 0.93695 0.44363 0.81796 0.0
C188 C 0.90996 0.42882 0.80911 0.0
C189 C 0.90098 0.43975 0.79024 0.0
C190 C 0.91941 0.46571 0.78026 0.0
C191 C 0.94628 0.48088 0.78958 0.0
H192 H 0.58109 0.06119 0.02778 0.0
H193 H 0.60696 0.10784 0.0442 0.0
H194 H 0.54854 0.12717 0.01048 0.0
H195 H 0.52344 0.08053 0.99319 0.0
H196 H 0.5264 0.02109 0.03537 0.0
H197 H 0.58602 0.07661 0.97031 0.0
H198 H 0.60602 0.11386 0.93963 0.0
H199 H 0.52825 0.07786 0.90097 0.0
H200 H 0.5076 0.04153 0.93254 0.0
H201 H 0.46682 0.96134 0.94547 0.0
H202 H 0.44554 0.91444 0.92833 0.0
H203 H 0.49508 0.89605 0.97737 0.0
H204 H 0.51764 0.94319 0.99331 0.0
H205 H 0.51631 0.00244 0.94467 0.0
H206 H 0.45556 0.95255 0.01519 0.0
H207 H 0.43609 0.91663 0.04702 0.0
H208 H 0.51852 0.94034 0.07182 0.0
H209 H 0.53745 0.97708 0.04097 0.0
C210 C 0.55046 0.06748 0.00921 0.0
C211 C 0.57383 0.07548 0.02402 0.0
C212 C 0.58848 0.10217 0.03355 0.0
C213 C 0.57981 0.12139 0.02887 0.0
C214 C 0.55609 0.11313 0.01422 0.0
C215 C 0.5416 0.08644 0.00442 0.0
C216 C 0.53554 0.03922 0.99883 0.0
C217 C 0.52425 0.01704 0.01551 0.0
C218 C 0.5325 0.034 0.97291 0.0
C219 C 0.54503 0.05653 0.95418 0.0
C220 C 0.57298 0.07704 0.95567 0.0
C221 C 0.58451 0.09818 0.93805 0.0
C222 C 0.56855 0.09861 0.91815 0.0
C223 C 0.54087 0.07784 0.91624 0.0
C224 C 0.52914 0.05711 0.93421 0.0
C225 C 0.49341 0.95572 0.97118 0.0
C226 C 0.47321 0.94728 0.95249 0.0
C227 C 0.461 0.92055 0.94277 0.0
C228 C 0.46851 0.90178 0.95188 0.0
C229 C 0.4887 0.91015 0.97043 0.0
C230 C 0.50138 0.937 0.97969 0.0
C231 C 0.50679 0.98429 0.98122 0.0
C232 C 0.51798 0.00655 0.9645 0.0
C233 C 0.50978 0.98974 0.00708 0.0
C234 C 0.49789 0.96746 0.02585 0.0
C235 C 0.46932 0.94995 0.02759 0.0
C236 C 0.45827 0.92927 0.0457 0.0
C237 C 0.47566 0.9255 0.06219 0.0
C238 C 0.50436 0.94293 0.05997 0.0
C239 C 0.51531 0.96388 0.04221 0.0
H240 H 0.50152 0.46961 0.2047 0.0
H241 H 0.51997 0.45035 0.23483 0.0
H242 H 0.60157 0.50141 0.20443 0.0
H243 H 0.58311 0.52134 0.17505 0.0
H244 H 0.51432 0.52362 0.19885 0.0
H245 H 0.51888 0.45317 0.14618 0.0
H246 H 0.5456 0.43256 0.13085 0.0
H247 H 0.60759 0.51226 0.10306 0.0
H248 H 0.58008 0.53214 0.11738 0.0
H249 H 0.52409 0.58766 0.13178 0.0
H250 H 0.50538 0.60769 0.10251 0.0
H251 H 0.45185 0.52681 0.07173 0.0
H252 H 0.47018 0.50694 0.1013 0.0
H253 H 0.52428 0.51828 0.10762 0.0
H254 H 0.52988 0.57594 0.19699 0.0
H255 H 0.51219 0.60434 0.21394 0.0
H256 H 0.43824 0.5594 0.16984 0.0
H257 H 0.45542 0.52984 0.15413 0.0
C258 C 0.54088 0.49668 0.18748 0.0
C259 C 0.52339 0.47664 0.20457 0.0
C260 C 0.53393 0.46548 0.22161 0.0
C261 C 0.56224 0.47422 0.22195 0.0
C262 C 0.57972 0.49437 0.2048 0.0
C263 C 0.56916 0.50558 0.18782 0.0
C264 C 0.52955 0.50858 0.16959 0.0
C265 C 0.51629 0.52232 0.17889 0.0
C266 C 0.53257 0.50724 0.14361 0.0
C267 C 0.54755 0.49414 0.13289 0.0
C268 C 0.53807 0.46601 0.13647 0.0
C269 C 0.55353 0.45435 0.12787 0.0
C270 C 0.57891 0.47069 0.11573 0.0
C271 C 0.58796 0.49881 0.11182 0.0
C272 C 0.57232 0.51032 0.12012 0.0
C273 C 0.4983 0.54579 0.11882 0.0
C274 C 0.50824 0.57429 0.11876 0.0
C275 C 0.49766 0.58571 0.10196 0.0
C276 C 0.47699 0.5688 0.08494 0.0
C277 C 0.4674 0.54032 0.08489 0.0
C278 C 0.47802 0.52896 0.10161 0.0
C279 C 0.50881 0.53324 0.13684 0.0
C280 C 0.52195 0.51935 0.12756 0.0
C281 C 0.50616 0.53501 0.16289 0.0
C282 C 0.49421 0.55102 0.17396 0.0
C283 C 0.50968 0.57192 0.19123 0.0
C284 C 0.49964 0.58839 0.20069 0.0
C285 C 0.47396 0.58452 0.19296 0.0
C286 C 0.45804 0.56293 0.1763 0.0
C287 C 0.46799 0.5462 0.16705 0.0
O288 O 0.60931 0.37682 0.43495 0.0
Cd289 Cd 0.61626 0.36157 0.40247 0.0
Cd290 Cd 0.66453 0.41021 0.40396 0.0
O291 O 0.64979 0.41472 0.43774 0.0
O292 O 0.5869 0.3222 0.40214 0.0
O293 O 0.63121 0.33549 0.4045 0.0
C294 C 0.60589 0.31574 0.40397 0.0
C295 C 0.70992 0.41958 0.40091 0.0
C296 C 0.62593 0.39872 0.4465 0.0
C297 C 0.62681 0.40107 0.36076 0.0
O298 O 0.64868 0.41775 0.37227 0.0
O299 O 0.61131 0.37694 0.36918 0.0
O300 O 0.7041 0.43899 0.40326 0.0
O301 O 0.68978 0.39442 0.40096 0.0
O302 O 0.24458 0.60535 0.60889 0.0
Cd303 Cd 0.26824 0.6147 0.577 0.0
Cd304 Cd 0.26711 0.66215 0.58135 0.0
O305 O 0.24923 0.6463 0.61529 0.0
O306 O 0.27926 0.5861 0.57607 0.0
O307 O 0.3093 0.63052 0.58017 0.0
C308 C 0.30442 0.60543 0.57907 0.0
C309 C 0.30149 0.7083 0.57833 0.0
C310 C 0.24021 0.62156 0.62215 0.0
C311 C 0.23864 0.62621 0.53703 0.0
O312 O 0.24234 0.64645 0.55043 0.0
O313 O 0.24908 0.61153 0.54332 0.0
O314 O 0.27607 0.70119 0.58202 0.0
O315 O 0.3077 0.68903 0.57707 0.0
O316 O 0.65225 0.24008 0.76533 0.0
Cd317 Cd 0.66525 0.26728 0.73576 0.0
Cd318 Cd 0.61994 0.26862 0.74596 0.0
O319 O 0.62154 0.25059 0.77894 0.0
O320 O 0.70555 0.28219 0.73157 0.0
O321 O 0.6875 0.30762 0.74361 0.0
C322 C 0.70907 0.3057 0.73876 0.0
C323 C 0.61168 0.30552 0.74587 0.0
C324 C 0.63498 0.23803 0.78173 0.0
C325 C 0.62104 0.24111 0.69839 0.0
O326 O 0.60613 0.24366 0.7148 0.0
O327 O 0.64681 0.25187 0.70183 0.0
O328 O 0.59247 0.28081 0.75096 0.0
O329 O 0.63611 0.30955 0.74163 0.0
O330 O 0.421 0.65456 0.93309 0.0
Cd331 Cd 0.41012 0.66738 0.90126 0.0
Cd332 Cd 0.36291 0.61979 0.90595 0.0
O333 O 0.37989 0.61853 0.93967 0.0
O334 O 0.43511 0.70794 0.89864 0.0
O335 O 0.39024 0.68859 0.90555 0.0
C336 C 0.41393 0.71064 0.90289 0.0
C337 C 0.31806 0.61216 0.90426 0.0
C338 C 0.40471 0.63416 0.94648 0.0
C339 C 0.39743 0.62556 0.86134 0.0
O340 O 0.37685 0.60931 0.87457 0.0
O341 O 0.41269 0.65052 0.86792 0.0
O342 O 0.32289 0.59233 0.90857 0.0
O343 O 0.33886 0.63667 0.90139 0.0
O344 O 0.77672 0.37318 0.04609 0.0
Cd345 Cd 0.75402 0.35855 0.0782 0.0
Cd346 Cd 0.75683 0.40775 0.07867 0.0
O347 O 0.77707 0.41268 0.04525 0.0
O348 O 0.73988 0.31817 0.07829 0.0
O349 O 0.7127 0.33619 0.07534 0.0
C350 C 0.71544 0.31463 0.0759 0.0
C351 C 0.71978 0.41556 0.08034 0.0
C352 C 0.7837 0.39607 0.03563 0.0
C353 C 0.78407 0.39618 0.12106 0.0
O354 O 0.77914 0.41376 0.11094 0.0
O355 O 0.77512 0.37255 0.11131 0.0
O356 O 0.74477 0.43564 0.07845 0.0
O357 O 0.71569 0.39074 0.08105 0.0
O358 O 0.41784 0.78359 0.21464 0.0
Cd359 Cd 0.40766 0.75791 0.24503 0.0
Cd360 Cd 0.3598 0.75701 0.24027 0.0
O361 O 0.37633 0.77694 0.207 0.0
O362 O 0.43674 0.74751 0.24582 0.0
O363 O 0.39268 0.71723 0.23981 0.0
C364 C 0.41785 0.72246 0.24144 0.0
C365 C 0.31522 0.71919 0.24105 0.0
C366 C 0.40158 0.7876 0.20113 0.0
C367 C 0.3934 0.78414 0.28609 0.0
O368 O 0.37313 0.78019 0.27256 0.0
O369 O 0.40908 0.77503 0.27928 0.0
O370 O 0.31973 0.74395 0.23824 0.0
O371 O 0.33628 0.71571 0.24293 0.0
H372 H 0.16872 0.56824 0.2855 0.0
H373 H 0.2677 0.71979 0.23215 0.0
H374 H 0.14166 0.62484 0.26323 0.0
H375 H 0.29764 0.66569 0.25516 0.0
H376 H 0.22074 0.68295 0.23956 0.0
H377 H 0.21525 0.60121 0.27068 0.0
C378 C 0.1725 0.58744 0.27722 0.0
C379 C 0.1514 0.59398 0.27587 0.0
C380 C 0.2375 0.67897 0.24287 0.0
C381 C 0.20443 0.63175 0.25905 0.0
C382 C 0.26438 0.70006 0.23862 0.0
C383 C 0.28667 0.69591 0.24325 0.0
C384 C 0.2327 0.65348 0.25203 0.0
C385 C 0.28105 0.6698 0.25143 0.0
C386 C 0.19905 0.60629 0.26889 0.0
C387 C 0.15743 0.61919 0.26509 0.0
N388 N 0.2546 0.64961 0.25579 0.0
N389 N 0.18336 0.63715 0.25725 0.0
H390 H 0.59897 0.16379 0.44874 0.0
H391 H 0.55532 0.27043 0.39732 0.0
H392 H 0.51599 0.14233 0.42894 0.0
H393 H 0.63913 0.29445 0.41666 0.0
H394 H 0.54177 0.22259 0.4053 0.0
H395 H 0.61527 0.21076 0.43363 0.0
C396 C 0.58424 0.16887 0.44095 0.0
C397 C 0.55604 0.14922 0.44035 0.0
C398 C 0.56318 0.23823 0.40768 0.0
C399 C 0.57446 0.20283 0.42322 0.0
C400 C 0.57096 0.26562 0.40311 0.0
C401 C 0.59837 0.28652 0.40653 0.0
C402 C 0.58289 0.23154 0.41595 0.0
C403 C 0.61774 0.27898 0.41386 0.0
C404 C 0.59353 0.1957 0.43245 0.0
C405 C 0.53784 0.15696 0.43022 0.0
N406 N 0.60958 0.25208 0.41856 0.0
N407 N 0.54734 0.18314 0.4222 0.0
H408 H 0.3881 0.51722 0.61621 0.0
H409 H 0.35995 0.64059 0.58657 0.0
H410 H 0.45414 0.60123 0.60757 0.0
H411 H 0.29904 0.55438 0.5796 0.0
H412 H 0.39497 0.62758 0.59528 0.0
H413 H 0.35528 0.53137 0.60408 0.0
C414 C 0.39582 0.53863 0.61148 0.0
C415 C 0.42408 0.55798 0.61272 0.0
C416 C 0.37396 0.61159 0.59167 0.0
C417 C 0.38622 0.57452 0.59927 0.0
C418 C 0.35398 0.61898 0.58668 0.0
C419 C 0.32649 0.59854 0.58245 0.0
C420 C 0.36627 0.58358 0.5926 0.0
C421 C 0.31992 0.57087 0.58283 0.0
C422 C 0.37696 0.54674 0.60468 0.0
C423 C 0.43257 0.58561 0.60708 0.0
N424 N 0.33959 0.56424 0.58797 0.0
N425 N 0.4137 0.59308 0.60065 0.0
H426 H 0.85368 0.42193 0.81667 0.0
H427 H 0.7569 0.31479 0.71702 0.0
H428 H 0.88369 0.42103 0.74309 0.0
H429 H 0.72504 0.34941 0.77026 0.0
H430 H 0.80381 0.3509 0.72756 0.0
H431 H 0.8063 0.39249 0.8018 0.0
C432 C 0.85017 0.41564 0.79734 0.0
C433 C 0.8724 0.42378 0.78101 0.0
C434 C 0.78651 0.35077 0.73668 0.0
C435 C 0.81865 0.38993 0.76406 0.0
C436 C 0.7598 0.33017 0.73075 0.0
C437 C 0.73712 0.32912 0.74285 0.0
C438 C 0.79057 0.36998 0.75531 0.0
C439 C 0.74198 0.34956 0.76045 0.0
C440 C 0.82324 0.39901 0.78886 0.0
C441 C 0.86697 0.41519 0.75614 0.0
N442 N 0.76823 0.36892 0.76648 0.0
N443 N 0.84059 0.39834 0.74847 0.0
H444 H 0.47433 0.88647 0.90527 0.0
H445 H 0.38171 0.7248 0.93016 0.0
H446 H 0.435 0.85357 0.97576 0.0
H447 H 0.45418 0.75933 0.88375 0.0
H448 H 0.39145 0.77167 0.93993 0.0
H449 H 0.45736 0.8392 0.89016 0.0
C450 C 0.46172 0.8692 0.91735 0.0
C451 C 0.456 0.87363 0.94172 0.0
C452 C 0.40495 0.76886 0.92737 0.0
C453 C 0.43645 0.82001 0.92467 0.0
C454 C 0.39935 0.74221 0.92168 0.0
C455 C 0.4173 0.73829 0.90628 0.0
C456 C 0.42829 0.79158 0.91713 0.0
C457 C 0.43997 0.76153 0.89588 0.0
C458 C 0.45219 0.84239 0.90881 0.0
C459 C 0.43981 0.85079 0.95685 0.0
N460 N 0.44484 0.78723 0.90149 0.0
N461 N 0.43052 0.82486 0.94806 0.0
H462 H 0.58556 0.43066 0.13923 0.0
H463 H 0.71868 0.46113 0.06449 0.0
H464 H 0.61279 0.48389 0.0748 0.0
H465 H 0.66884 0.38304 0.10112 0.0
H466 H 0.68189 0.47194 0.07066 0.0
H467 H 0.61718 0.41434 0.12794 0.0
C468 C 0.59781 0.43868 0.12253 0.0
C469 C 0.59652 0.45894 0.10809 0.0
C470 C 0.67889 0.45233 0.07713 0.0
C471 C 0.63336 0.44079 0.09556 0.0
C472 C 0.6999 0.44619 0.07371 0.0
C473 C 0.69678 0.42119 0.08237 0.0
C474 C 0.65484 0.43361 0.08981 0.0
C475 C 0.67199 0.40252 0.09411 0.0
C476 C 0.61597 0.42941 0.1162 0.0
C477 C 0.61346 0.46882 0.08692 0.0
N478 N 0.65207 0.40927 0.09782 0.0
N479 N 0.63138 0.45991 0.08148 0.0
H480 H 0.44871 0.86498 0.54565 0.0
H481 H 0.29314 0.75218 0.57813 0.0
H482 H 0.37896 0.87712 0.53628 0.0
H483 H 0.35708 0.73127 0.5692 0.0
H484 H 0.32633 0.79989 0.56833 0.0
H485 H 0.41716 0.81748 0.55882 0.0
C486 C 0.42683 0.85773 0.54629 0.0
C487 C 0.41657 0.87525 0.5399 0.0
C488 C 0.33318 0.78493 0.56856 0.0
C489 C 0.38049 0.82109 0.55535 0.0
C490 C 0.31424 0.75764 0.57426 0.0
C491 C 0.32229 0.73762 0.57434 0.0
C492 C 0.36051 0.79245 0.56295 0.0
C493 C 0.34997 0.74603 0.56926 0.0
C494 C 0.40888 0.83065 0.55393 0.0
C495 C 0.388 0.86472 0.54147 0.0
N496 N 0.36812 0.77285 0.56368 0.0
N497 N 0.37106 0.83842 0.54905 0.0
H498 H 0.52178 0.39 0.71914 0.0
H499 H 0.646 0.35925 0.73152 0.0
H500 H 0.60609 0.45061 0.70261 0.0
H501 H 0.56235 0.30279 0.75409 0.0
H502 H 0.6329 0.39418 0.72317 0.0
H503 H 0.53714 0.35882 0.73408 0.0
C504 C 0.54358 0.39674 0.7187 0.0
C505 C 0.56266 0.42282 0.7094 0.0
C506 C 0.61751 0.37422 0.73018 0.0
C507 C 0.58051 0.38719 0.72654 0.0
C508 C 0.62498 0.35429 0.73499 0.0
C509 C 0.60519 0.32797 0.74333 0.0
C510 C 0.59004 0.36771 0.73365 0.0
C511 C 0.57827 0.32271 0.74752 0.0
C512 C 0.55238 0.37898 0.72735 0.0
C513 C 0.59071 0.43069 0.70969 0.0
N514 N 0.57147 0.34229 0.74245 0.0
N515 N 0.59878 0.41283 0.71788 0.0
H516 H 0.14079 0.53808 0.9074 0.0
H517 H 0.29983 0.64325 0.88036 0.0
H518 H 0.16854 0.59007 0.84217 0.0
H519 H 0.2712 0.56782 0.92175 0.0
H520 H 0.25172 0.63068 0.87276 0.0
H521 H 0.18875 0.55544 0.91915 0.0
C522 C 0.15687 0.5531 0.89549 0.0
C523 C 0.15041 0.56227 0.87351 0.0
C524 C 0.25607 0.61705 0.88366 0.0
C525 C 0.20547 0.58278 0.88738 0.0
C526 C 0.28345 0.62426 0.88812 0.0
C527 C 0.28945 0.60644 0.90157 0.0
C528 C 0.23467 0.59214 0.89312 0.0
C529 C 0.26746 0.58203 0.91112 0.0
C530 C 0.18425 0.56312 0.90235 0.0
C531 C 0.17234 0.58248 0.85936 0.0
N532 N 0.24104 0.57559 0.90672 0.0
N533 N 0.19887 0.592 0.8665 0.0
H534 H 0.60704 0.13836 0.0736 0.0
H535 H 0.66683 0.29923 0.05167 0.0
H536 H 0.5894 0.16997 0.00704 0.0
H537 H 0.71041 0.26641 0.09229 0.0
H538 H 0.63025 0.25189 0.04234 0.0
H539 H 0.63722 0.18556 0.08764 0.0
C540 C 0.60944 0.15513 0.06189 0.0
C541 C 0.59594 0.15 0.03881 0.0
C542 C 0.64772 0.25517 0.05351 0.0
C543 C 0.62991 0.20415 0.05529 0.0
C544 C 0.66845 0.28208 0.05896 0.0
C545 C 0.69169 0.28663 0.07263 0.0
C546 C 0.65009 0.23284 0.06228 0.0
C547 C 0.69292 0.26375 0.08152 0.0
C548 C 0.62654 0.18207 0.07005 0.0
C549 C 0.59921 0.17276 0.02498 0.0
N550 N 0.6724 0.23783 0.07621 0.0
N551 N 0.61596 0.19886 0.03338 0.0
H552 H 0.42122 0.57279 0.20485 0.0
H553 H 0.46921 0.72857 0.24228 0.0
H554 H 0.50505 0.64022 0.20043 0.0
H555 H 0.3838 0.66751 0.2305 0.0
H556 H 0.48219 0.69431 0.23201 0.0
H557 H 0.40666 0.60536 0.21831 0.0
C558 C 0.43657 0.59438 0.20664 0.0
C559 C 0.46448 0.60367 0.20157 0.0
C560 C 0.46058 0.68831 0.23172 0.0
C561 C 0.44795 0.6409 0.21732 0.0
C562 C 0.45312 0.70787 0.23769 0.0
C563 C 0.42536 0.70096 0.23712 0.0
C564 C 0.44019 0.66151 0.22516 0.0
C565 C 0.40546 0.67374 0.23109 0.0
C566 C 0.42823 0.61291 0.21445 0.0
C567 C 0.48343 0.63188 0.20458 0.0
N568 N 0.41327 0.65498 0.22525 0.0
N569 N 0.47482 0.6494 0.21226 0.0
H570 H 0.88077 0.50499 0.35928 0.0
H571 H 0.73043 0.38421 0.39634 0.0
H572 H 0.8638 0.42263 0.3763 0.0
H573 H 0.75521 0.4706 0.39645 0.0
H574 H 0.77826 0.39674 0.38736 0.0
H575 H 0.83384 0.49167 0.37097 0.0
C576 C 0.8673 0.48414 0.36572 0.0
C577 C 0.87647 0.465 0.36698 0.0
C578 C 0.77317 0.4129 0.38951 0.0
C579 C 0.82218 0.44938 0.37995 0.0
C580 C 0.74591 0.40578 0.39463 0.0
C581 C 0.73879 0.42638 0.39708 0.0
C582 C 0.7933 0.44078 0.38661 0.0
C583 C 0.75968 0.45399 0.39468 0.0
C584 C 0.84037 0.4765 0.37227 0.0
C585 C 0.85763 0.43804 0.3748 0.0
N586 N 0.78588 0.46033 0.38944 0.0
N587 N 0.83135 0.43101 0.38095 0.0
H588 H 0.15408 0.56473 0.39593 0.0
H589 H 0.20199 0.64312 0.52558 0.0
H590 H 0.101 0.58122 0.44239 0.0
H591 H 0.23417 0.59237 0.49813 0.0
H592 H 0.17014 0.62847 0.49044 0.0
H593 H 0.18853 0.58195 0.42914 0.0
C594 C 0.14952 0.57184 0.41304 0.0
C595 C 0.12436 0.57136 0.41624 0.0
C596 C 0.18426 0.62065 0.49208 0.0
C597 C 0.16419 0.59183 0.45395 0.0
C598 C 0.20255 0.62909 0.51204 0.0
C599 C 0.22068 0.61883 0.51487 0.0
C600 C 0.18435 0.60215 0.47457 0.0
C601 C 0.2204 0.60063 0.49675 0.0
C602 C 0.16932 0.58181 0.43191 0.0
C603 C 0.12014 0.58157 0.43871 0.0
N604 N 0.20252 0.59288 0.47729 0.0
N605 N 0.13985 0.59144 0.45663 0.0
H606 H 0.58604 0.15517 0.55697 0.0
H607 H 0.5664 0.2044 0.69084 0.0
H608 H 0.52002 0.10315 0.60715 0.0
H609 H 0.64598 0.23801 0.65556 0.0
H610 H 0.54577 0.1726 0.65592 0.0
H611 H 0.60516 0.19074 0.58916 0.0
C612 C 0.57553 0.15111 0.57469 0.0
C613 C 0.55139 0.12586 0.57928 0.0
C614 C 0.56771 0.18708 0.65578 0.0
C615 C 0.57289 0.16694 0.6159 0.0
C616 C 0.57951 0.20534 0.67562 0.0
C617 C 0.60802 0.22377 0.67621 0.0
C618 C 0.58446 0.18747 0.63621 0.0
C619 C 0.62396 0.22399 0.65596 0.0
C620 C 0.58642 0.17154 0.59297 0.0
C621 C 0.5384 0.12229 0.60247 0.0
N622 N 0.61196 0.20607 0.63676 0.0
N623 N 0.54931 0.14257 0.61986 0.0
H624 H 0.48578 0.60473 0.73935 0.0
H625 H 0.37083 0.57296 0.84268 0.0
H626 H 0.41785 0.52329 0.75469 0.0
H627 H 0.44077 0.65382 0.82936 0.0
H628 H 0.38554 0.55503 0.80816 0.0
H629 H 0.46769 0.62359 0.77017 0.0
C630 C 0.46708 0.59079 0.74924 0.0
C631 C 0.45344 0.56234 0.74456 0.0
C632 C 0.39758 0.57673 0.81269 0.0
C633 C 0.43243 0.58385 0.77975 0.0
C634 C 0.38916 0.58701 0.83239 0.0
C635 C 0.40469 0.61493 0.83909 0.0
C636 C 0.42173 0.59445 0.79957 0.0
C637 C 0.42822 0.63214 0.82499 0.0
C638 C 0.45666 0.6016 0.76674 0.0
C639 C 0.42896 0.54536 0.75756 0.0
N640 N 0.43609 0.62159 0.80601 0.0
N641 N 0.41933 0.55636 0.77465 0.0
H642 H 0.90133 0.48981 0.92066 0.0
H643 H 0.8004 0.36521 0.00922 0.0
H644 H 0.8922 0.40868 0.9175 0.0
H645 H 0.80674 0.44524 0.01049 0.0
H646 H 0.83208 0.38006 0.97404 0.0
H647 H 0.86488 0.4732 0.95194 0.0
C648 C 0.89149 0.46843 0.92636 0.0
C649 C 0.89997 0.45066 0.91652 0.0
C650 C 0.82642 0.39433 0.9819 0.0
C651 C 0.85841 0.43158 0.95256 0.0
C652 C 0.80829 0.38585 0.00201 0.0
C653 C 0.80101 0.40406 0.01298 0.0
C654 C 0.83751 0.42127 0.9727 0.0
C655 C 0.81184 0.43052 0.00271 0.0
C656 C 0.87076 0.459 0.94432 0.0
C657 C 0.88669 0.42325 0.92488 0.0
N658 N 0.82968 0.43839 0.98327 0.0
N659 N 0.86666 0.4146 0.94247 0.0
H660 H 0.4289 0.87398 0.0604 0.0
H661 H 0.45526 0.82521 0.19118 0.0
H662 H 0.4957 0.9275 0.10931 0.0
H663 H 0.37307 0.7924 0.16168 0.0
H664 H 0.4731 0.85786 0.15666 0.0
H665 H 0.41037 0.83934 0.09345 0.0
C666 C 0.43966 0.87861 0.07802 0.0
C667 C 0.46405 0.90388 0.0819 0.0
C668 C 0.45117 0.84344 0.15772 0.0
C669 C 0.44325 0.86386 0.11944 0.0
C670 C 0.44097 0.82469 0.17732 0.0
C671 C 0.41259 0.80612 0.17937 0.0
C672 C 0.43297 0.84337 0.13979 0.0
C673 C 0.39506 0.80648 0.16088 0.0
C674 C 0.4291 0.85871 0.09679 0.0
C675 C 0.47726 0.90823 0.10507 0.0
N676 N 0.40555 0.8248 0.14176 0.0
N677 N 0.46678 0.8884 0.12285 0.0
H678 H 0.61044 0.50188 0.24833 0.0
H679 H 0.58121 0.37157 0.33136 0.0
H680 H 0.53976 0.42078 0.23817 0.0
H681 H 0.65382 0.45188 0.33866 0.0
H682 H 0.56671 0.38854 0.2959 0.0
H683 H 0.62773 0.48328 0.28008 0.0
C684 C 0.59868 0.48009 0.25258 0.0
C685 C 0.57353 0.4629 0.24059 0.0
C686 C 0.58589 0.4024 0.30518 0.0
C687 C 0.59306 0.4415 0.27727 0.0
C688 C 0.59421 0.39272 0.32543 0.0
C689 C 0.6187 0.41037 0.33814 0.0
C690 C 0.60212 0.42996 0.29762 0.0
C691 C 0.63472 0.43754 0.32954 0.0
C692 C 0.6085 0.4695 0.27083 0.0
C693 C 0.55901 0.4349 0.2472 0.0
N694 N 0.62607 0.44653 0.30992 0.0
N695 N 0.56893 0.42511 0.26514 0.0
H696 H 0.40765 0.90382 0.39528 0.0
H697 H 0.43523 0.79713 0.31935 0.0
H698 H 0.47583 0.89046 0.40975 0.0
H699 H 0.36681 0.81014 0.3048 0.0
H700 H 0.44835 0.82868 0.3546 0.0
H701 H 0.39039 0.86712 0.36417 0.0
C702 C 0.41886 0.893 0.3921 0.0
C703 C 0.44334 0.90038 0.40507 0.0
C704 C 0.43036 0.8245 0.3438 0.0
C705 C 0.42383 0.85849 0.36924 0.0
C706 C 0.42281 0.80643 0.32367 0.0
C707 C 0.39998 0.80109 0.30893 0.0
C708 C 0.41505 0.83747 0.34925 0.0
C709 C 0.38463 0.81371 0.31554 0.0
C710 C 0.40906 0.87213 0.37423 0.0
C711 C 0.45715 0.88582 0.39991 0.0
N712 N 0.39256 0.83145 0.33509 0.0
N713 N 0.44727 0.86568 0.38236 0.0
H714 H 0.60626 0.4904 0.56607 0.0
H715 H 0.57729 0.3686 0.47164 0.0
H716 H 0.53236 0.41059 0.56745 0.0
H717 H 0.65375 0.44619 0.47391 0.0
H718 H 0.5613 0.3829 0.50786 0.0
H719 H 0.62486 0.47387 0.53361 0.0
C720 C 0.59404 0.46929 0.55976 0.0
C721 C 0.56763 0.4519 0.56948 0.0
C722 C 0.58164 0.39674 0.50054 0.0
C723 C 0.58868 0.43295 0.53196 0.0
C724 C 0.59081 0.38858 0.47983 0.0
C725 C 0.61686 0.40629 0.46958 0.0
C726 C 0.59856 0.42286 0.51105 0.0
C727 C 0.63348 0.43189 0.4811 0.0
C728 C 0.60463 0.45991 0.54109 0.0
C729 C 0.55261 0.42488 0.56023 0.0
N730 N 0.62398 0.43947 0.5011 0.0
N731 N 0.5633 0.41629 0.54194 0.0
H732 H 0.1321 0.5998 0.74527 0.0
H733 H 0.21608 0.56944 0.64172 0.0
H734 H 0.12122 0.51913 0.73111 0.0
H735 H 0.2247 0.64954 0.65406 0.0
H736 H 0.18427 0.55147 0.67682 0.0
H737 H 0.16863 0.61906 0.71405 0.0
C738 C 0.13737 0.58613 0.73556 0.0
C739 C 0.12341 0.55776 0.74068 0.0
C740 C 0.19325 0.57302 0.67195 0.0
C741 C 0.16543 0.57973 0.70505 0.0
C742 C 0.21148 0.58333 0.65192 0.0
C743 C 0.22295 0.61102 0.64477 0.0
C744 C 0.18637 0.59048 0.68495 0.0
C745 C 0.21627 0.62803 0.65878 0.0
C746 C 0.15834 0.59717 0.71784 0.0
C747 C 0.13153 0.54114 0.7279 0.0
N748 N 0.19829 0.61744 0.67808 0.0
N749 N 0.15188 0.55234 0.71058 0.0
H750 H 0.58975 0.15385 0.92452 0.0
H751 H 0.64266 0.19372 0.78513 0.0
H752 H 0.57511 0.09265 0.86886 0.0
H753 H 0.61325 0.23966 0.82691 0.0
H754 H 0.62853 0.16046 0.81931 0.0
H755 H 0.60866 0.18965 0.89206 0.0
C756 C 0.59074 0.14809 0.90547 0.0
C757 C 0.58084 0.12044 0.89915 0.0
C758 C 0.6254 0.17796 0.821 0.0
C759 C 0.6027 0.16092 0.86238 0.0
C760 C 0.63358 0.19702 0.80163 0.0
C761 C 0.62897 0.21939 0.80317 0.0
C762 C 0.61308 0.18164 0.84226 0.0
C763 C 0.61698 0.22257 0.82493 0.0
C764 C 0.60139 0.16838 0.88706 0.0
C765 C 0.58244 0.11381 0.87431 0.0
N766 N 0.6095 0.20391 0.8437 0.0
N767 N 0.59333 0.13395 0.85679 0.0
H768 H 0.42309 0.54827 0.07158 0.0
H769 H 0.4571 0.6612 0.96572 0.0
H770 H 0.50481 0.61628 0.0575 0.0
H771 H 0.37591 0.59191 0.97929 0.0
H772 H 0.47437 0.64749 0.0015 0.0
H773 H 0.40494 0.5662 0.03996 0.0
C774 C 0.43722 0.567 0.06182 0.0
C775 C 0.46556 0.58064 0.06702 0.0
C776 C 0.45274 0.6354 0.99674 0.0
C777 C 0.44488 0.60143 0.03084 0.0
C778 C 0.44284 0.64324 0.97632 0.0
C779 C 0.41503 0.62757 0.96933 0.0
C780 C 0.43473 0.6117 0.01029 0.0
C781 C 0.39753 0.60454 0.98385 0.0
C782 C 0.42683 0.57731 0.04385 0.0
C783 C 0.48282 0.60515 0.05416 0.0
N784 N 0.40771 0.59722 0.00352 0.0
N785 N 0.47223 0.61465 0.03654 0.0
H786 H 0.88048 0.4711 0.25443 0.0
H787 H 0.81218 0.3715 0.13852 0.0
H788 H 0.92078 0.43422 0.21429 0.0
H789 H 0.79758 0.4388 0.15366 0.0
H790 H 0.84555 0.38721 0.17257 0.0
H791 H 0.84401 0.45301 0.22306 0.0
C792 C 0.88185 0.45936 0.23906 0.0
C793 C 0.90404 0.45439 0.2371 0.0
C794 C 0.83488 0.3984 0.1685 0.0
C795 C 0.86171 0.43288 0.20165 0.0
C796 C 0.81571 0.38938 0.1492 0.0
C797 C 0.80217 0.40397 0.14315 0.0
C798 C 0.84023 0.42189 0.18215 0.0
C799 C 0.8077 0.42707 0.15759 0.0
C800 C 0.86086 0.44889 0.22129 0.0
C801 C 0.90402 0.43829 0.21701 0.0
N802 N 0.82631 0.43533 0.17648 0.0
N803 N 0.88317 0.42806 0.20016 0.0
loop_
_geom_bond_atom_site_label_1
_geom_bond_atom_site_label_2
_geom_bond_distance
_geom_bond_site_symmetry_2
_ccdc_geom_bond_type
H0 C19 0.949 . S
H1 C20 0.950 . S
H2 C22 0.950 . S
H3 C23 0.950 . S
H4 C25 0.950 . S
H5 C28 0.950 . S
H6 C29 0.950 . S
H7 C31 0.951 . S
H8 C32 0.949 . S
H9 C34 0.949 . S
H10 C35 0.950 . S
H11 C37 0.950 . S
H12 C38 0.950 . S
H13 C40 0.950 1_655 S
H14 C43 0.950 . S
H15 C44 0.950 . S
H16 C46 0.951 . S
H17 C47 0.949 . S
C18 C19 1.376 . S
C18 C23 1.386 . S
C18 C24 1.483 . S
C19 H0 0.949 . S
C19 C18 1.376 . S
C19 C20 1.397 . S
C20 H1 0.950 . S
C20 C19 1.397 . S
C20 C21 1.391 . S
C21 C20 1.391 . S
C21 C22 1.405 . S
C22 H2 0.950 . S
C22 C21 1.405 . S
C22 C23 1.367 . S
C23 H3 0.950 . S
C23 C18 1.386 . S
C23 C22 1.367 . S
C24 C18 1.483 . S
C24 C25 1.382 1_655 S
C24 C26 1.403 . S
C25 H4 0.950 . S
C25 C24 1.382 1_455 S
C25 C41 1.411 . S
C26 C24 1.403 . S
C26 C27 1.489 . S
C26 C40 1.411 1_655 S
C27 C26 1.489 . S
C27 C28 1.383 . S
C27 C32 1.382 . S
C28 H5 0.950 . S
C28 C27 1.383 . S
C28 C29 1.395 . S
C29 H6 0.950 . S
C29 C28 1.395 . S
C29 C30 1.288 . S
C30 C29 1.288 . S
C30 C31 1.392 . S
C31 H7 0.951 . S
C31 C30 1.392 . S
C31 C32 1.392 . S
C32 H8 0.949 . S
C32 C27 1.382 . S
C32 C31 1.392 . S
C33 C34 1.376 . S
C33 C38 1.386 . S
C33 C39 1.483 . S
C34 H9 0.949 . S
C34 C33 1.376 . S
C34 C35 1.397 . S
C35 H10 0.950 . S
C35 C34 1.397 . S
C35 C36 1.391 . S
C36 C35 1.391 . S
C36 C37 1.405 . S
C37 H11 0.950 . S
C37 C36 1.405 . S
C37 C38 1.367 . S
C38 H12 0.950 . S
C38 C33 1.386 . S
C38 C37 1.367 . S
C39 C33 1.483 . S
C39 C40 1.382 . S
C39 C41 1.403 . S
C40 H13 0.950 1_455 S
C40 C26 1.411 1_455 S
C40 C39 1.382 . S
C41 C25 1.411 . S
C41 C39 1.403 . S
C41 C42 1.489 . S
C42 C41 1.489 . S
C42 C43 1.383 . S
C42 C47 1.382 . S
C43 H14 0.950 . S
C43 C42 1.383 . S
C43 C44 1.395 . S
C44 H15 0.950 . S
C44 C43 1.395 . S
C44 C45 1.288 . S
C45 C44 1.288 . S
C45 C46 1.392 . S
C46 H16 0.951 . S
C46 C45 1.392 . S
C46 C47 1.392 . S
C47 H17 0.949 . S
C47 C42 1.382 . S
C47 C46 1.392 . S
H48 C67 0.949 . S
H49 C68 0.950 . S
H50 C70 0.950 . S
H51 C71 0.950 . S
H52 C73 0.950 1_565 S
H53 C76 0.950 . S
H54 C77 0.950 . S
H55 C79 0.951 . S
H56 C80 0.949 . S
H57 C82 0.949 . S
H58 C83 0.950 . S
H59 C85 0.950 . S
H60 C86 0.950 . S
H61 C88 0.950 . S
H62 C91 0.950 . S
H63 C92 0.950 . S
H64 C94 0.951 . S
H65 C95 0.949 . S
C66 C67 1.376 . S
C66 C71 1.386 . S
C66 C72 1.483 . S
C67 H48 0.949 . S
C67 C66 1.376 . S
C67 C68 1.397 . S
C68 H49 0.950 . S
C68 C67 1.397 . S
C68 C69 1.391 . S
C69 C68 1.391 . S
C69 C70 1.405 . S
C70 H50 0.950 . S
C70 C69 1.405 . S
C70 C71 1.367 . S
C71 H51 0.950 . S
C71 C66 1.386 . S
C71 C70 1.367 . S
C72 C66 1.483 . S
C72 C73 1.382 1_565 S
C72 C74 1.403 . S
C73 H52 0.950 1_545 S
C73 C72 1.382 1_545 S
C73 C89 1.411 . S
C74 C72 1.403 . S
C74 C75 1.489 . S
C74 C88 1.411 1_565 S
C75 C74 1.489 . S
C75 C76 1.383 . S
C75 C80 1.382 . S
C76 H53 0.950 . S
C76 C75 1.383 . S
C76 C77 1.395 . S
C77 H54 0.950 . S
C77 C76 1.395 . S
C77 C78 1.288 . S
C78 C77 1.288 . S
C78 C79 1.392 . S
C79 H55 0.951 . S
C79 C78 1.392 . S
C79 C80 1.392 . S
C80 H56 0.949 . S
C80 C75 1.382 . S
C80 C79 1.392 . S
C81 C82 1.376 . S
C81 C86 1.386 . S
C81 C87 1.483 . S
C82 H57 0.949 . S
C82 C81 1.376 . S
C82 C83 1.397 . S
C83 H58 0.950 . S
C83 C82 1.397 . S
C83 C84 1.391 . S
C84 C83 1.391 . S
C84 C85 1.405 . S
C85 H59 0.950 . S
C85 C84 1.405 . S
C85 C86 1.367 . S
C86 H60 0.950 . S
C86 C81 1.386 . S
C86 C85 1.367 . S
C87 C81 1.483 . S
C87 C88 1.382 . S
C87 C89 1.403 . S
C88 H61 0.950 . S
C88 C74 1.411 1_545 S
C88 C87 1.382 . S
C89 C73 1.411 . S
C89 C87 1.403 . S
C89 C90 1.489 . S
C90 C89 1.489 . S
C90 C91 1.383 . S
C90 C95 1.382 . S
C91 H62 0.950 . S
C91 C90 1.383 . S
C91 C92 1.395 . S
C92 H63 0.950 . S
C92 C91 1.395 . S
C92 C93 1.288 . S
C93 C92 1.288 . S
C93 C94 1.392 . S
C94 H64 0.951 . S
C94 C93 1.392 . S
C94 C95 1.392 . S
C95 H65 0.949 . S
C95 C90 1.382 . S
C95 C94 1.392 . S
H96 C115 0.949 . S
H97 C116 0.950 . S
H98 C118 0.950 . S
H99 C119 0.950 . S
H100 C121 0.950 . S
H101 C124 0.950 . S
H102 C125 0.950 . S
H103 C127 0.951 . S
H104 C128 0.949 . S
H105 C130 0.949 . S
H106 C131 0.950 . S
H107 C133 0.950 . S
H108 C134 0.950 . S
H109 C136 0.950 . S
H110 C139 0.950 . S
H111 C140 0.950 . S
H112 C142 0.951 . S
H113 C143 0.949 . S
C114 C115 1.376 . S
C114 C119 1.386 . S
C114 C120 1.483 . S
C115 H96 0.949 . S
C115 C114 1.376 . S
C115 C116 1.397 . S
C116 H97 0.950 . S
C116 C115 1.397 . S
C116 C117 1.391 . S
C117 C116 1.391 . S
C117 C118 1.405 . S
C118 H98 0.950 . S
C118 C117 1.405 . S
C118 C119 1.367 . S
C119 H99 0.950 . S
C119 C114 1.386 . S
C119 C118 1.367 . S
C120 C114 1.483 . S
C120 C121 1.382 . S
C120 C122 1.403 . S
C121 H100 0.950 . S
C121 C120 1.382 . S
C121 C137 1.411 . S
C122 C120 1.403 . S
C122 C123 1.489 . S
C122 C136 1.411 . S
C123 C122 1.489 . S
C123 C124 1.383 . S
C123 C128 1.382 . S
C124 H101 0.950 . S
C124 C123 1.383 . S
C124 C125 1.395 . S
C125 H102 0.950 . S
C125 C124 1.395 . S
C125 C126 1.288 . S
C126 C125 1.288 . S
C126 C127 1.392 . S
C127 H103 0.951 . S
C127 C126 1.392 . S
C127 C128 1.392 . S
C128 H104 0.949 . S
C128 C123 1.382 . S
C128 C127 1.392 . S
C129 C130 1.376 . S
C129 C134 1.386 . S
C129 C135 1.483 . S
C130 H105 0.949 . S
C130 C129 1.376 . S
C130 C131 1.397 . S
C131 H106 0.950 . S
C131 C130 1.397 . S
C131 C132 1.391 . S
C132 C131 1.391 . S
C132 C133 1.405 . S
C133 H107 0.950 . S
C133 C132 1.405 . S
C133 C134 1.367 . S
C134 H108 0.950 . S
C134 C129 1.386 . S
C134 C133 1.367 . S
C135 C129 1.483 . S
C135 C136 1.382 . S
C135 C137 1.403 . S
C136 H109 0.950 . S
C136 C122 1.411 . S
C136 C135 1.382 . S
C137 C121 1.411 . S
C137 C135 1.403 . S
C137 C138 1.489 . S
C138 C137 1.489 . S
C138 C139 1.383 . S
C138 C143 1.382 . S
C139 H110 0.950 . S
C139 C138 1.383 . S
C139 C140 1.395 . S
C140 H111 0.950 . S
C140 C139 1.395 . S
C140 C141 1.288 . S
C141 C140 1.288 . S
C141 C142 1.392 . S
C142 H112 0.951 . S
C142 C141 1.392 . S
C142 C143 1.392 . S
C143 H113 0.949 . S
C143 C138 1.382 . S
C143 C142 1.392 . S
H144 C163 0.949 . S
H145 C164 0.950 . S
H146 C166 0.950 . S
H147 C167 0.950 . S
H148 C169 0.936 1_655 S
H149 C172 0.950 . S
H150 C173 0.950 . S
H151 C175 0.951 . S
H152 C176 0.949 . S
H153 C178 0.949 . S
H154 C179 0.950 . S
H155 C181 0.950 . S
H156 C182 0.950 . S
H157 C184 0.950 . S
H158 C187 0.950 . S
H159 C188 0.950 . S
H160 C190 0.951 . S
H161 C191 0.949 . S
C162 C163 1.376 . S
C162 C167 1.386 . S
C162 C168 1.483 . S
C163 H144 0.949 . S
C163 C162 1.376 . S
C163 C164 1.397 . S
C164 H145 0.950 . S
C164 C163 1.397 . S
C164 C165 1.391 . S
C165 C164 1.391 . S
C165 C166 1.405 . S
C166 H146 0.950 . S
C166 C165 1.405 . S
C166 C167 1.367 . S
C167 H147 0.950 . S
C167 C162 1.386 . S
C167 C166 1.367 . S
C168 C162 1.483 . S
C168 C169 1.382 . S
C168 C170 1.403 . S
C169 H148 0.936 1_455 S
C169 C168 1.382 . S
C169 C185 1.411 1_455 S
C170 C168 1.403 . S
C170 C171 1.489 . S
C170 C184 1.411 . S
C171 C170 1.489 . S
C171 C172 1.383 . S
C171 C176 1.382 . S
C172 H149 0.950 . S
C172 C171 1.383 . S
C172 C173 1.395 . S
C173 H150 0.950 . S
C173 C172 1.395 . S
C173 C174 1.288 . S
C174 C173 1.288 . S
C174 C175 1.392 . S
C175 H151 0.951 . S
C175 C174 1.392 . S
C175 C176 1.392 . S
C176 H152 0.949 . S
C176 C171 1.382 . S
C176 C175 1.392 . S
C177 C178 1.376 . S
C177 C182 1.386 . S
C177 C183 1.483 . S
C178 H153 0.949 . S
C178 C177 1.376 . S
C178 C179 1.397 . S
C179 H154 0.950 . S
C179 C178 1.397 . S
C179 C180 1.391 . S
C180 C179 1.391 . S
C180 C181 1.405 . S
C181 H155 0.950 . S
C181 C180 1.405 . S
C181 C182 1.367 . S
C182 H156 0.950 . S
C182 C177 1.386 . S
C182 C181 1.367 . S
C183 C177 1.483 . S
C183 C184 1.382 1_655 S
C183 C185 1.403 . S
C184 H157 0.950 . S
C184 C170 1.411 . S
C184 C183 1.382 1_455 S
C185 C169 1.411 1_655 S
C185 C183 1.403 . S
C185 C186 1.489 . S
C186 C185 1.489 . S
C186 C187 1.383 . S
C186 C191 1.382 . S
C187 H158 0.950 . S
C187 C186 1.383 . S
C187 C188 1.395 . S
C188 H159 0.950 . S
C188 C187 1.395 . S
C188 C189 1.288 . S
C189 C188 1.288 . S
C189 C190 1.392 . S
C190 H160 0.951 . S
C190 C189 1.392 . S
C190 C191 1.392 . S
C191 H161 0.949 . S
C191 C186 1.382 . S
C191 C190 1.392 . S
H192 C211 0.949 . S
H193 C212 0.950 . S
H194 C214 0.950 . S
H195 C215 0.950 . S
H196 C217 0.950 . S
H197 C220 0.950 . S
H198 C221 0.950 . S
H199 C223 0.951 . S
H200 C224 0.949 . S
H201 C226 0.949 . S
H202 C227 0.950 . S
H203 C229 0.950 . S
H204 C230 0.950 . S
H205 C232 0.950 1_565 S
H206 C235 0.950 . S
H207 C236 0.950 . S
H208 C238 0.951 . S
H209 C239 0.949 . S
C210 C211 1.376 . S
C210 C215 1.386 1_554 S
C210 C216 1.483 1_554 S
C211 H192 0.949 . S
C211 C210 1.376 . S
C211 C212 1.397 . S
C212 H193 0.950 . S
C212 C211 1.397 . S
C212 C213 1.391 . S
C213 C212 1.391 . S
C213 C214 1.405 . S
C214 H194 0.950 . S
C214 C213 1.405 . S
C214 C215 1.367 1_554 S
C215 H195 0.950 . S
C215 C210 1.386 1_556 S
C215 C214 1.367 1_556 S
C216 C210 1.483 1_556 S
C216 C217 1.382 1_556 S
C216 C218 1.403 . S
C217 H196 0.950 . S
C217 C216 1.382 1_554 S
C217 C233 1.411 1_545 S
C218 C216 1.403 . S
C218 C219 1.489 . S
C218 C232 1.411 . S
C219 C218 1.489 . S
C219 C220 1.383 . S
C219 C224 1.382 . S
C220 H197 0.950 . S
C220 C219 1.383 . S
C220 C221 1.395 . S
C221 H198 0.950 . S
C221 C220 1.395 . S
C221 C222 1.288 . S
C222 C221 1.288 . S
C222 C223 1.392 . S
C223 H199 0.951 . S
C223 C222 1.392 . S
C223 C224 1.392 . S
C224 H200 0.949 . S
C224 C219 1.382 . S
C224 C223 1.392 . S
C225 C226 1.376 . S
C225 C230 1.386 . S
C225 C231 1.483 . S
C226 H201 0.949 . S
C226 C225 1.376 . S
C226 C227 1.397 . S
C227 H202 0.950 . S
C227 C226 1.397 . S
C227 C228 1.391 . S
C228 C227 1.391 . S
C228 C229 1.405 . S
C229 H203 0.950 . S
C229 C228 1.405 . S
C229 C230 1.367 . S
C230 H204 0.950 . S
C230 C225 1.386 . S
C230 C229 1.367 . S
C231 C225 1.483 . S
C231 C232 1.382 1_565 S
C231 C233 1.403 1_556 S
C232 H205 0.950 1_545 S
C232 C218 1.411 . S
C232 C231 1.382 1_545 S
C233 C217 1.411 1_565 S
C233 C231 1.403 1_554 S
C233 C234 1.489 . S
C234 C233 1.489 . S
C234 C235 1.383 . S
C234 C239 1.382 . S
C235 H206 0.950 . S
C235 C234 1.383 . S
C235 C236 1.395 . S
C236 H207 0.950 . S
C236 C235 1.395 . S
C236 C237 1.288 . S
C237 C236 1.288 . S
C237 C238 1.392 . S
C238 H208 0.951 . S
C238 C237 1.392 . S
C238 C239 1.392 . S
C239 H209 0.949 . S
C239 C234 1.382 . S
C239 C238 1.392 . S
H240 C259 0.949 . S
H241 C260 0.950 . S
H242 C262 0.950 . S
H243 C263 0.950 . S
H244 C265 0.950 . S
H245 C268 0.950 . S
H246 C269 0.950 . S
H247 C271 0.951 . S
H248 C272 0.949 . S
H249 C274 0.949 . S
H250 C275 0.950 . S
H251 C277 0.950 . S
H252 C278 0.950 . S
H253 C280 0.950 . S
H254 C283 0.950 . S
H255 C284 0.950 . S
H256 C286 0.951 . S
H257 C287 0.949 . S
C258 C259 1.376 . S
C258 C263 1.386 . S
C258 C264 1.483 . S
C259 H240 0.949 . S
C259 C258 1.376 . S
C259 C260 1.397 . S
C260 H241 0.950 . S
C260 C259 1.397 . S
C260 C261 1.391 . S
C261 C260 1.391 . S
C261 C262 1.405 . S
C262 H242 0.950 . S
C262 C261 1.405 . S
C262 C263 1.367 . S
C263 H243 0.950 . S
C263 C258 1.386 . S
C263 C262 1.367 . S
C264 C258 1.483 . S
C264 C265 1.382 . S
C264 C266 1.403 . S
C265 H244 0.950 . S
C265 C264 1.382 . S
C265 C281 1.411 . S
C266 C264 1.403 . S
C266 C267 1.489 . S
C266 C280 1.411 . S
C267 C266 1.489 . S
C267 C268 1.383 . S
C267 C272 1.382 . S
C268 H245 0.950 . S
C268 C267 1.383 . S
C268 C269 1.395 . S
C269 H246 0.950 . S
C269 C268 1.395 . S
C269 C270 1.288 . S
C270 C269 1.288 . S
C270 C271 1.392 . S
C271 H247 0.951 . S
C271 C270 1.392 . S
C271 C272 1.392 . S
C272 H248 0.949 . S
C272 C267 1.382 . S
C272 C271 1.392 . S
C273 C274 1.376 . S
C273 C278 1.386 . S
C273 C279 1.483 . S
C274 H249 0.949 . S
C274 C273 1.376 . S
C274 C275 1.397 . S
C275 H250 0.950 . S
C275 C274 1.397 . S
C275 C276 1.391 . S
C276 C275 1.391 . S
C276 C277 1.405 . S
C277 H251 0.950 . S
C277 C276 1.405 . S
C277 C278 1.367 . S
C278 H252 0.950 . S
C278 C273 1.386 . S
C278 C277 1.367 . S
C279 C273 1.483 . S
C279 C280 1.382 . S
C279 C281 1.403 . S
C280 H253 0.950 . S
C280 C266 1.411 . S
C280 C279 1.382 . S
C281 C265 1.411 . S
C281 C279 1.403 . S
C281 C282 1.489 . S
C282 C281 1.489 . S
C282 C283 1.383 . S
C282 C287 1.382 . S
C283 H254 0.950 . S
C283 C282 1.383 . S
C283 C284 1.395 . S
C284 H255 0.950 . S
C284 C283 1.395 . S
C284 C285 1.288 . S
C285 C284 1.288 . S
C285 C286 1.392 . S
C286 H256 0.951 . S
C286 C285 1.392 . S
C286 C287 1.392 . S
C287 H257 0.949 . S
C287 C282 1.382 . S
C287 C286 1.392 . S
O288 Cd289 2.223 . S
O288 C296 1.315 . S
Cd289 O288 2.223 . S
Cd289 O292 2.297 . S
Cd289 O293 2.439 . S
Cd289 O299 2.240 . S
Cd290 O291 2.240 . S
Cd290 O298 2.223 . S
Cd290 O300 2.297 . S
Cd290 O301 2.439 . S
O291 Cd290 2.240 . S
O291 C296 1.279 . S
O292 Cd289 2.297 . S
O292 C294 1.247 . S
O293 Cd289 2.439 . S
O293 C294 1.208 . S
C294 O292 1.247 . S
C294 O293 1.208 . S
C295 O300 1.247 . S
C295 O301 1.208 . S
C296 O288 1.315 . S
C296 O291 1.279 . S
C297 O298 1.315 . S
C297 O299 1.279 . S
O298 Cd290 2.223 . S
O298 C297 1.315 . S
O299 Cd289 2.240 . S
O299 C297 1.279 . S
O300 Cd290 2.297 . S
O300 C295 1.247 . S
O301 Cd290 2.439 . S
O301 C295 1.208 . S
O302 Cd303 2.223 . S
O302 C310 1.315 . S
Cd303 O302 2.223 . S
Cd303 O306 2.297 . S
Cd303 O307 2.439 . S
Cd303 O313 2.240 . S
Cd304 O305 2.240 . S
Cd304 O312 2.223 . S
Cd304 O314 2.297 . S
Cd304 O315 2.439 . S
O305 Cd304 2.240 . S
O305 C310 1.279 . S
O306 Cd303 2.297 . S
O306 C308 1.247 . S
O307 Cd303 2.439 . S
O307 C308 1.208 . S
C308 O306 1.247 . S
C308 O307 1.208 . S
C309 O314 1.247 . S
C309 O315 1.208 . S
C310 O302 1.315 . S
C310 O305 1.279 . S
C311 O312 1.315 . S
C311 O313 1.279 . S
O312 Cd304 2.223 . S
O312 C311 1.315 . S
O313 Cd303 2.240 . S
O313 C311 1.279 . S
O314 Cd304 2.297 . S
O314 C309 1.247 . S
O315 Cd304 2.439 . S
O315 C309 1.208 . S
O316 Cd317 2.223 . S
O316 C324 1.315 . S
Cd317 O316 2.223 . S
Cd317 O320 2.297 . S
Cd317 O321 2.439 . S
Cd317 O327 2.240 . S
Cd318 O319 2.240 . S
Cd318 O326 2.223 . S
Cd318 O328 2.297 . S
Cd318 O329 2.439 . S
O319 Cd318 2.240 . S
O319 C324 1.279 . S
O320 Cd317 2.297 . S
O320 C322 1.247 . S
O321 Cd317 2.439 . S
O321 C322 1.208 . S
C322 O320 1.247 . S
C322 O321 1.208 . S
C323 O328 1.247 . S
C323 O329 1.208 . S
C324 O316 1.315 . S
C324 O319 1.279 . S
C325 O326 1.315 . S
C325 O327 1.279 . S
O326 Cd318 2.223 . S
O326 C325 1.315 . S
O327 Cd317 2.240 . S
O327 C325 1.279 . S
O328 Cd318 2.297 . S
O328 C323 1.247 . S
O329 Cd318 2.439 . S
O329 C323 1.208 . S
O330 Cd331 2.223 . S
O330 C338 1.315 . S
Cd331 O330 2.223 . S
Cd331 O334 2.297 . S
Cd331 O335 2.439 . S
Cd331 O341 2.240 . S
Cd332 O333 2.240 . S
Cd332 O340 2.223 . S
Cd332 O342 2.297 . S
Cd332 O343 2.439 . S
O333 Cd332 2.240 . S
O333 C338 1.279 . S
O334 Cd331 2.297 . S
O334 C336 1.247 . S
O335 Cd331 2.439 . S
O335 C336 1.208 . S
C336 O334 1.247 . S
C336 O335 1.208 . S
C337 O342 1.247 . S
C337 O343 1.208 . S
C338 O330 1.315 . S
C338 O333 1.279 . S
C339 O340 1.315 . S
C339 O341 1.279 . S
O340 Cd332 2.223 . S
O340 C339 1.315 . S
O341 Cd331 2.240 . S
O341 C339 1.279 . S
O342 Cd332 2.297 . S
O342 C337 1.247 . S
O343 Cd332 2.439 . S
O343 C337 1.208 . S
O344 Cd345 2.223 . S
O344 C352 1.315 . S
Cd345 O344 2.223 . S
Cd345 O348 2.297 . S
Cd345 O349 2.439 . S
Cd345 O355 2.240 . S
Cd346 O347 2.240 . S
Cd346 O354 2.223 . S
Cd346 O356 2.297 . S
Cd346 O357 2.439 . S
O347 Cd346 2.240 . S
O347 C352 1.279 . S
O348 Cd345 2.297 . S
O348 C350 1.247 . S
O349 Cd345 2.439 . S
O349 C350 1.208 . S
C350 O348 1.247 . S
C350 O349 1.208 . S
C351 O356 1.247 . S
C351 O357 1.208 . S
C352 O344 1.315 . S
C352 O347 1.279 . S
C353 O354 1.315 . S
C353 O355 1.279 . S
O354 Cd346 2.223 . S
O354 C353 1.315 . S
O355 Cd345 2.240 . S
O355 C353 1.279 . S
O356 Cd346 2.297 . S
O356 C351 1.247 . S
O357 Cd346 2.439 . S
O357 C351 1.208 . S
O358 Cd359 2.223 . S
O358 C366 1.315 . S
Cd359 O358 2.223 . S
Cd359 O362 2.297 . S
Cd359 O363 2.439 . S
Cd359 O369 2.240 . S
Cd360 O361 2.240 . S
Cd360 O368 2.223 . S
Cd360 O370 2.297 . S
Cd360 O371 2.439 . S
O361 Cd360 2.240 . S
O361 C366 1.279 . S
O362 Cd359 2.297 . S
O362 C364 1.247 . S
O363 Cd359 2.439 . S
O363 C364 1.208 . S
C364 O362 1.247 . S
C364 O363 1.208 . S
C365 O370 1.247 . S
C365 O371 1.208 . S
C366 O358 1.315 . S
C366 O361 1.279 . S
C367 O368 1.315 . S
C367 O369 1.279 . S
O368 Cd360 2.223 . S
O368 C367 1.315 . S
O369 Cd359 2.240 . S
O369 C367 1.279 . S
O370 Cd360 2.297 . S
O370 C365 1.247 . S
O371 Cd360 2.439 . S
O371 C365 1.208 . S
H372 C378 0.930 . S
H373 C382 0.930 . S
H374 C387 0.929 . S
H375 C385 0.929 . S
H376 C380 0.929 . S
H377 C386 0.929 . S
C378 H372 0.930 . S
C378 C379 1.367 . S
C378 C386 1.378 . S
C379 C378 1.367 . S
C379 C387 1.433 . S
C380 H376 0.929 . S
C380 C382 1.378 . S
C380 C384 1.350 . S
C381 C384 1.463 . S
C381 C386 1.350 . S
C381 N389 1.427 . S
C382 H373 0.930 . S
C382 C380 1.378 . S
C382 C383 1.367 . S
C383 C382 1.367 . S
C383 C385 1.433 . S
C384 C380 1.350 . S
C384 C381 1.463 . S
C384 N388 1.427 . S
C385 H375 0.929 . S
C385 C383 1.433 . S
C385 N388 1.384 . S
C386 H377 0.929 . S
C386 C378 1.378 . S
C386 C381 1.350 . S
C387 H374 0.929 . S
C387 C379 1.433 . S
C387 N389 1.384 . S
N388 C384 1.427 . S
N388 C385 1.384 . S
N389 C381 1.427 . S
N389 C387 1.384 . S
H390 C396 0.930 . S
H391 C400 0.930 . S
H392 C405 0.929 . S
H393 C403 0.929 . S
H394 C398 0.929 . S
H395 C404 0.929 . S
C396 H390 0.930 . S
C396 C397 1.367 . S
C396 C404 1.378 . S
C397 C396 1.367 . S
C397 C405 1.433 . S
C398 H394 0.929 . S
C398 C400 1.378 . S
C398 C402 1.350 . S
C399 C402 1.463 . S
C399 C404 1.350 . S
C399 N407 1.427 . S
C400 H391 0.930 . S
C400 C398 1.378 . S
C400 C401 1.367 . S
C401 C400 1.367 . S
C401 C403 1.433 . S
C402 C398 1.350 . S
C402 C399 1.463 . S
C402 N406 1.427 . S
C403 H393 0.929 . S
C403 C401 1.433 . S
C403 N406 1.384 . S
C404 H395 0.929 . S
C404 C396 1.378 . S
C404 C399 1.350 . S
C405 H392 0.929 . S
C405 C397 1.433 . S
C405 N407 1.384 . S
N406 C402 1.427 . S
N406 C403 1.384 . S
N407 C399 1.427 . S
N407 C405 1.384 . S
H408 C414 0.930 . S
H409 C418 0.930 . S
H410 C423 0.929 . S
H411 C421 0.929 . S
H412 C416 0.929 . S
H413 C422 0.929 . S
C414 H408 0.930 . S
C414 C415 1.367 . S
C414 C422 1.378 . S
C415 C414 1.367 . S
C415 C423 1.433 . S
C416 H412 0.929 . S
C416 C418 1.378 . S
C416 C420 1.350 . S
C417 C420 1.463 . S
C417 C422 1.350 . S
C417 N425 1.427 . S
C418 H409 0.930 . S
C418 C416 1.378 . S
C418 C419 1.367 . S
C419 C418 1.367 . S
C419 C421 1.433 . S
C420 C416 1.350 . S
C420 C417 1.463 . S
C420 N424 1.427 . S
C421 H411 0.929 . S
C421 C419 1.433 . S
C421 N424 1.384 . S
C422 H413 0.929 . S
C422 C414 1.378 . S
C422 C417 1.350 . S
C423 H410 0.929 . S
C423 C415 1.433 . S
C423 N425 1.384 . S
N424 C420 1.427 . S
N424 C421 1.384 . S
N425 C417 1.427 . S
N425 C423 1.384 . S
H426 C432 0.930 . S
H427 C436 0.930 . S
H428 C441 0.929 . S
H429 C439 0.929 . S
H430 C434 0.929 . S
H431 C440 0.929 . S
C432 H426 0.930 . S
C432 C433 1.367 . S
C432 C440 1.378 . S
C433 C432 1.367 . S
C433 C441 1.433 . S
C434 H430 0.929 . S
C434 C436 1.378 . S
C434 C438 1.350 . S
C435 C438 1.463 . S
C435 C440 1.350 . S
C435 N443 1.427 . S
C436 H427 0.930 . S
C436 C434 1.378 . S
C436 C437 1.367 . S
C437 C436 1.367 . S
C437 C439 1.433 . S
C438 C434 1.350 . S
C438 C435 1.463 . S
C438 N442 1.427 . S
C439 H429 0.929 . S
C439 C437 1.433 . S
C439 N442 1.384 . S
C440 H431 0.929 . S
C440 C432 1.378 . S
C440 C435 1.350 . S
C441 H428 0.929 . S
C441 C433 1.433 . S
C441 N443 1.384 . S
N442 C438 1.427 . S
N442 C439 1.384 . S
N443 C435 1.427 . S
N443 C441 1.384 . S
H444 C450 0.930 . S
H445 C454 0.930 . S
H446 C459 0.929 . S
H447 C457 0.929 . S
H448 C452 0.929 . S
H449 C458 0.929 . S
C450 H444 0.930 . S
C450 C451 1.367 . S
C450 C458 1.378 . S
C451 C450 1.367 . S
C451 C459 1.433 . S
C452 H448 0.929 . S
C452 C454 1.378 . S
C452 C456 1.350 . S
C453 C456 1.463 . S
C453 C458 1.350 . S
C453 N461 1.427 . S
C454 H445 0.930 . S
C454 C452 1.378 . S
C454 C455 1.367 . S
C455 C454 1.367 . S
C455 C457 1.433 . S
C456 C452 1.350 . S
C456 C453 1.463 . S
C456 N460 1.427 . S
C457 H447 0.929 . S
C457 C455 1.433 . S
C457 N460 1.384 . S
C458 H449 0.929 . S
C458 C450 1.378 . S
C458 C453 1.350 . S
C459 H446 0.929 . S
C459 C451 1.433 . S
C459 N461 1.384 . S
N460 C456 1.427 . S
N460 C457 1.384 . S
N461 C453 1.427 . S
N461 C459 1.384 . S
H462 C468 0.930 . S
H463 C472 0.930 . S
H464 C477 0.929 . S
H465 C475 0.929 . S
H466 C470 0.929 . S
H467 C476 0.929 . S
C468 H462 0.930 . S
C468 C469 1.367 . S
C468 C476 1.378 . S
C469 C468 1.367 . S
C469 C477 1.433 . S
C470 H466 0.929 . S
C470 C472 1.378 . S
C470 C474 1.350 . S
C471 C474 1.463 . S
C471 C476 1.350 . S
C471 N479 1.427 . S
C472 H463 0.930 . S
C472 C470 1.378 . S
C472 C473 1.367 . S
C473 C472 1.367 . S
C473 C475 1.433 . S
C474 C470 1.350 . S
C474 C471 1.463 . S
C474 N478 1.427 . S
C475 H465 0.929 . S
C475 C473 1.433 . S
C475 N478 1.384 . S
C476 H467 0.929 . S
C476 C468 1.378 . S
C476 C471 1.350 . S
C477 H464 0.929 . S
C477 C469 1.433 . S
C477 N479 1.384 . S
N478 C474 1.427 . S
N478 C475 1.384 . S
N479 C471 1.427 . S
N479 C477 1.384 . S
H480 C486 0.930 . S
H481 C490 0.930 . S
H482 C495 0.929 . S
H483 C493 0.929 . S
H484 C488 0.929 . S
H485 C494 0.929 . S
C486 H480 0.930 . S
C486 C487 1.367 . S
C486 C494 1.378 . S
C487 C486 1.367 . S
C487 C495 1.433 . S
C488 H484 0.929 . S
C488 C490 1.378 . S
C488 C492 1.350 . S
C489 C492 1.463 . S
C489 C494 1.350 . S
C489 N497 1.427 . S
C490 H481 0.930 . S
C490 C488 1.378 . S
C490 C491 1.367 . S
C491 C490 1.367 . S
C491 C493 1.433 . S
C492 C488 1.350 . S
C492 C489 1.463 . S
C492 N496 1.427 . S
C493 H483 0.929 . S
C493 C491 1.433 . S
C493 N496 1.384 . S
C494 H485 0.929 . S
C494 C486 1.378 . S
C494 C489 1.350 . S
C495 H482 0.929 . S
C495 C487 1.433 . S
C495 N497 1.384 . S
N496 C492 1.427 . S
N496 C493 1.384 . S
N497 C489 1.427 . S
N497 C495 1.384 . S
H498 C504 0.930 . S
H499 C508 0.930 . S
H500 C513 0.929 . S
H501 C511 0.929 . S
H502 C506 0.929 . S
H503 C512 0.929 . S
C504 H498 0.930 . S
C504 C505 1.367 . S
C504 C512 1.378 . S
C505 C504 1.367 . S
C505 C513 1.433 . S
C506 H502 0.929 . S
C506 C508 1.378 . S
C506 C510 1.350 . S
C507 C510 1.463 . S
C507 C512 1.350 . S
C507 N515 1.427 . S
C508 H499 0.930 . S
C508 C506 1.378 . S
C508 C509 1.367 . S
C509 C508 1.367 . S
C509 C511 1.433 . S
C510 C506 1.350 . S
C510 C507 1.463 . S
C510 N514 1.427 . S
C511 H501 0.929 . S
C511 C509 1.433 . S
C511 N514 1.384 . S
C512 H503 0.929 . S
C512 C504 1.378 . S
C512 C507 1.350 . S
C513 H500 0.929 . S
C513 C505 1.433 . S
C513 N515 1.384 . S
N514 C510 1.427 . S
N514 C511 1.384 . S
N515 C507 1.427 . S
N515 C513 1.384 . S
H516 C522 0.930 . S
H517 C526 0.930 . S
H518 C531 0.929 . S
H519 C529 0.929 . S
H520 C524 0.929 . S
H521 C530 0.929 . S
C522 H516 0.930 . S
C522 C523 1.367 . S
C522 C530 1.378 . S
C523 C522 1.367 . S
C523 C531 1.433 . S
C524 H520 0.929 . S
C524 C526 1.378 . S
C524 C528 1.350 . S
C525 C528 1.463 . S
C525 C530 1.350 . S
C525 N533 1.427 . S
C526 H517 0.930 . S
C526 C524 1.378 . S
C526 C527 1.367 . S
C527 C526 1.367 . S
C527 C529 1.433 . S
C528 C524 1.350 . S
C528 C525 1.463 . S
C528 N532 1.427 . S
C529 H519 0.929 . S
C529 C527 1.433 . S
C529 N532 1.384 . S
C530 H521 0.929 . S
C530 C522 1.378 . S
C530 C525 1.350 . S
C531 H518 0.929 . S
C531 C523 1.433 . S
C531 N533 1.384 . S
N532 C528 1.427 . S
N532 C529 1.384 . S
N533 C525 1.427 . S
N533 C531 1.384 . S
H534 C540 0.930 . S
H535 C544 0.930 . S
H536 C549 0.929 1_556 S
H537 C547 0.929 . S
H538 C542 0.929 . S
H539 C548 0.929 . S
C540 H534 0.930 . S
C540 C541 1.367 . S
C540 C548 1.378 . S
C541 C540 1.367 . S
C541 C549 1.433 . S
C542 H538 0.929 . S
C542 C544 1.378 . S
C542 C546 1.350 . S
C543 C546 1.463 . S
C543 C548 1.350 . S
C543 N551 1.427 . S
C544 H535 0.930 . S
C544 C542 1.378 . S
C544 C545 1.367 . S
C545 C544 1.367 . S
C545 C547 1.433 . S
C546 C542 1.350 . S
C546 C543 1.463 . S
C546 N550 1.427 . S
C547 H537 0.929 . S
C547 C545 1.433 . S
C547 N550 1.384 . S
C548 H539 0.929 . S
C548 C540 1.378 . S
C548 C543 1.350 . S
C549 H536 0.929 1_554 S
C549 C541 1.433 . S
C549 N551 1.384 . S
N550 C546 1.427 . S
N550 C547 1.384 . S
N551 C543 1.427 . S
N551 C549 1.384 . S
H552 C558 0.930 . S
H553 C562 0.930 . S
H554 C567 0.929 . S
H555 C565 0.929 . S
H556 C560 0.929 . S
H557 C566 0.929 . S
C558 H552 0.930 . S
C558 C559 1.367 . S
C558 C566 1.378 . S
C559 C558 1.367 . S
C559 C567 1.433 . S
C560 H556 0.929 . S
C560 C562 1.378 . S
C560 C564 1.350 . S
C561 C564 1.463 . S
C561 C566 1.350 . S
C561 N569 1.427 . S
C562 H553 0.930 . S
C562 C560 1.378 . S
C562 C563 1.367 . S
C563 C562 1.367 . S
C563 C565 1.433 . S
C564 C560 1.350 . S
C564 C561 1.463 . S
C564 N568 1.427 . S
C565 H555 0.929 . S
C565 C563 1.433 . S
C565 N568 1.384 . S
C566 H557 0.929 . S
C566 C558 1.378 . S
C566 C561 1.350 . S
C567 H554 0.929 . S
C567 C559 1.433 . S
C567 N569 1.384 . S
N568 C564 1.427 . S
N568 C565 1.384 . S
N569 C561 1.427 . S
N569 C567 1.384 . S
H570 C576 0.930 . S
H571 C580 0.930 . S
H572 C585 0.929 . S
H573 C583 0.929 . S
H574 C578 0.929 . S
H575 C584 0.929 . S
C576 H570 0.930 . S
C576 C577 1.367 . S
C576 C584 1.378 . S
C577 C576 1.367 . S
C577 C585 1.433 . S
C578 H574 0.929 . S
C578 C580 1.378 . S
C578 C582 1.350 . S
C579 C582 1.463 . S
C579 C584 1.350 . S
C579 N587 1.427 . S
C580 H571 0.930 . S
C580 C578 1.378 . S
C580 C581 1.367 . S
C581 C580 1.367 . S
C581 C583 1.433 . S
C582 C578 1.350 . S
C582 C579 1.463 . S
C582 N586 1.427 . S
C583 H573 0.929 . S
C583 C581 1.433 . S
C583 N586 1.384 . S
C584 H575 0.929 . S
C584 C576 1.378 . S
C584 C579 1.350 . S
C585 H572 0.929 . S
C585 C577 1.433 . S
C585 N587 1.384 . S
N586 C582 1.427 . S
N586 C583 1.384 . S
N587 C579 1.427 . S
N587 C585 1.384 . S
H588 C594 0.930 . S
H589 C598 0.930 . S
H590 C603 0.929 . S
H591 C601 0.929 . S
H592 C596 0.929 . S
H593 C602 0.929 . S
C594 H588 0.930 . S
C594 C595 1.367 . S
C594 C602 1.378 . S
C595 C594 1.367 . S
C595 C603 1.433 . S
C596 H592 0.929 . S
C596 C598 1.378 . S
C596 C600 1.350 . S
C597 C600 1.463 . S
C597 C602 1.350 . S
C597 N605 1.427 . S
C598 H589 0.930 . S
C598 C596 1.378 . S
C598 C599 1.367 . S
C599 C598 1.367 . S
C599 C601 1.433 . S
C600 C596 1.350 . S
C600 C597 1.463 . S
C600 N604 1.427 . S
C601 H591 0.929 . S
C601 C599 1.433 . S
C601 N604 1.384 . S
C602 H593 0.929 . S
C602 C594 1.378 . S
C602 C597 1.350 . S
C603 H590 0.929 . S
C603 C595 1.433 . S
C603 N605 1.384 . S
N604 C600 1.427 . S
N604 C601 1.384 . S
N605 C597 1.427 . S
N605 C603 1.384 . S
H606 C612 0.930 . S
H607 C616 0.930 . S
H608 C621 0.929 . S
H609 C619 0.929 . S
H610 C614 0.929 . S
H611 C620 0.929 . S
C612 H606 0.930 . S
C612 C613 1.367 . S
C612 C620 1.378 . S
C613 C612 1.367 . S
C613 C621 1.433 . S
C614 H610 0.929 . S
C614 C616 1.378 . S
C614 C618 1.350 . S
C615 C618 1.463 . S
C615 C620 1.350 . S
C615 N623 1.427 . S
C616 H607 0.930 . S
C616 C614 1.378 . S
C616 C617 1.367 . S
C617 C616 1.367 . S
C617 C619 1.433 . S
C618 C614 1.350 . S
C618 C615 1.463 . S
C618 N622 1.427 . S
C619 H609 0.929 . S
C619 C617 1.433 . S
C619 N622 1.384 . S
C620 H611 0.929 . S
C620 C612 1.378 . S
C620 C615 1.350 . S
C621 H608 0.929 . S
C621 C613 1.433 . S
C621 N623 1.384 . S
N622 C618 1.427 . S
N622 C619 1.384 . S
N623 C615 1.427 . S
N623 C621 1.384 . S
H624 C630 0.930 . S
H625 C634 0.930 . S
H626 C639 0.929 . S
H627 C637 0.929 . S
H628 C632 0.929 . S
H629 C638 0.929 . S
C630 H624 0.930 . S
C630 C631 1.367 . S
C630 C638 1.378 . S
C631 C630 1.367 . S
C631 C639 1.433 . S
C632 H628 0.929 . S
C632 C634 1.378 . S
C632 C636 1.350 . S
C633 C636 1.463 . S
C633 C638 1.350 . S
C633 N641 1.427 . S
C634 H625 0.930 . S
C634 C632 1.378 . S
C634 C635 1.367 . S
C635 C634 1.367 . S
C635 C637 1.433 . S
C636 C632 1.350 . S
C636 C633 1.463 . S
C636 N640 1.427 . S
C637 H627 0.929 . S
C637 C635 1.433 . S
C637 N640 1.384 . S
C638 H629 0.929 . S
C638 C630 1.378 . S
C638 C633 1.350 . S
C639 H626 0.929 . S
C639 C631 1.433 . S
C639 N641 1.384 . S
N640 C636 1.427 . S
N640 C637 1.384 . S
N641 C633 1.427 . S
N641 C639 1.384 . S
H642 C648 0.930 . S
H643 C652 0.930 . S
H644 C657 0.929 . S
H645 C655 0.929 . S
H646 C650 0.929 . S
H647 C656 0.929 . S
C648 H642 0.930 . S
C648 C649 1.367 . S
C648 C656 1.378 . S
C649 C648 1.367 . S
C649 C657 1.433 . S
C650 H646 0.929 . S
C650 C652 1.378 . S
C650 C654 1.350 1_554 S
C651 C654 1.463 . S
C651 C656 1.350 . S
C651 N659 1.427 . S
C652 H643 0.930 . S
C652 C650 1.378 . S
C652 C653 1.367 . S
C653 C652 1.367 . S
C653 C655 1.433 . S
C654 C650 1.350 1_556 S
C654 C651 1.463 . S
C654 N658 1.427 . S
C655 H645 0.929 . S
C655 C653 1.433 . S
C655 N658 1.384 1_554 S
C656 H647 0.929 . S
C656 C648 1.378 . S
C656 C651 1.350 . S
C657 H644 0.929 . S
C657 C649 1.433 . S
C657 N659 1.384 . S
N658 C654 1.427 . S
N658 C655 1.384 1_556 S
N659 C651 1.427 . S
N659 C657 1.384 . S
H660 C666 0.930 . S
H661 C670 0.930 . S
H662 C675 0.929 . S
H663 C673 0.929 . S
H664 C668 0.929 . S
H665 C674 0.929 . S
C666 H660 0.930 . S
C666 C667 1.367 . S
C666 C674 1.378 . S
C667 C666 1.367 . S
C667 C675 1.433 . S
C668 H664 0.929 . S
C668 C670 1.378 . S
C668 C672 1.350 . S
C669 C672 1.463 . S
C669 C674 1.350 . S
C669 N677 1.427 . S
C670 H661 0.930 . S
C670 C668 1.378 . S
C670 C671 1.367 . S
C671 C670 1.367 . S
C671 C673 1.433 . S
C672 C668 1.350 . S
C672 C669 1.463 . S
C672 N676 1.427 . S
C673 H663 0.929 . S
C673 C671 1.433 . S
C673 N676 1.384 . S
C674 H665 0.929 . S
C674 C666 1.378 . S
C674 C669 1.350 . S
C675 H662 0.929 . S
C675 C667 1.433 . S
C675 N677 1.384 . S
N676 C672 1.427 . S
N676 C673 1.384 . S
N677 C669 1.427 . S
N677 C675 1.384 . S
H678 C684 0.930 . S
H679 C688 0.930 . S
H680 C693 0.929 . S
H681 C691 0.929 . S
H682 C686 0.929 . S
H683 C692 0.929 . S
C684 H678 0.930 . S
C684 C685 1.367 . S
C684 C692 1.378 . S
C685 C684 1.367 . S
C685 C693 1.433 . S
C686 H682 0.929 . S
C686 C688 1.378 . S
C686 C690 1.350 . S
C687 C690 1.463 . S
C687 C692 1.350 . S
C687 N695 1.427 . S
C688 H679 0.930 . S
C688 C686 1.378 . S
C688 C689 1.367 . S
C689 C688 1.367 . S
C689 C691 1.433 . S
C690 C686 1.350 . S
C690 C687 1.463 . S
C690 N694 1.427 . S
C691 H681 0.929 . S
C691 C689 1.433 . S
C691 N694 1.384 . S
C692 H683 0.929 . S
C692 C684 1.378 . S
C692 C687 1.350 . S
C693 H680 0.929 . S
C693 C685 1.433 . S
C693 N695 1.384 . S
N694 C690 1.427 . S
N694 C691 1.384 . S
N695 C687 1.427 . S
N695 C693 1.384 . S
H696 C702 0.930 . S
H697 C706 0.930 . S
H698 C711 0.929 . S
H699 C709 0.929 . S
H700 C704 0.929 . S
H701 C710 0.929 . S
C702 H696 0.930 . S
C702 C703 1.367 . S
C702 C710 1.378 . S
C703 C702 1.367 . S
C703 C711 1.433 . S
C704 H700 0.929 . S
C704 C706 1.378 . S
C704 C708 1.350 . S
C705 C708 1.463 . S
C705 C710 1.350 . S
C705 N713 1.427 . S
C706 H697 0.930 . S
C706 C704 1.378 . S
C706 C707 1.367 . S
C707 C706 1.367 . S
C707 C709 1.433 . S
C708 C704 1.350 . S
C708 C705 1.463 . S
C708 N712 1.427 . S
C709 H699 0.929 . S
C709 C707 1.433 . S
C709 N712 1.384 . S
C710 H701 0.929 . S
C710 C702 1.378 . S
C710 C705 1.350 . S
C711 H698 0.929 . S
C711 C703 1.433 . S
C711 N713 1.384 . S
N712 C708 1.427 . S
N712 C709 1.384 . S
N713 C705 1.427 . S
N713 C711 1.384 . S
H714 C720 0.930 . S
H715 C724 0.930 . S
H716 C729 0.929 . S
H717 C727 0.929 . S
H718 C722 0.929 . S
H719 C728 0.929 . S
C720 H714 0.930 . S
C720 C721 1.367 . S
C720 C728 1.378 . S
C721 C720 1.367 . S
C721 C729 1.433 . S
C722 H718 0.929 . S
C722 C724 1.378 . S
C722 C726 1.350 . S
C723 C726 1.463 . S
C723 C728 1.350 . S
C723 N731 1.427 . S
C724 H715 0.930 . S
C724 C722 1.378 . S
C724 C725 1.367 . S
C725 C724 1.367 . S
C725 C727 1.433 . S
C726 C722 1.350 . S
C726 C723 1.463 . S
C726 N730 1.427 . S
C727 H717 0.929 . S
C727 C725 1.433 . S
C727 N730 1.384 . S
C728 H719 0.929 . S
C728 C720 1.378 . S
C728 C723 1.350 . S
C729 H716 0.929 . S
C729 C721 1.433 . S
C729 N731 1.384 . S
N730 C726 1.427 . S
N730 C727 1.384 . S
N731 C723 1.427 . S
N731 C729 1.384 . S
H732 C738 0.930 . S
H733 C742 0.930 . S
H734 C747 0.929 . S
H735 C745 0.929 . S
H736 C740 0.929 . S
H737 C746 0.929 . S
C738 H732 0.930 . S
C738 C739 1.367 . S
C738 C746 1.378 . S
C739 C738 1.367 . S
C739 C747 1.433 . S
C740 H736 0.929 . S
C740 C742 1.378 . S
C740 C744 1.350 . S
C741 C744 1.463 . S
C741 C746 1.350 . S
C741 N749 1.427 . S
C742 H733 0.930 . S
C742 C740 1.378 . S
C742 C743 1.367 . S
C743 C742 1.367 . S
C743 C745 1.433 . S
C744 C740 1.350 . S
C744 C741 1.463 . S
C744 N748 1.427 . S
C745 H735 0.929 . S
C745 C743 1.433 . S
C745 N748 1.384 . S
C746 H737 0.929 . S
C746 C738 1.378 . S
C746 C741 1.350 . S
C747 H734 0.929 . S
C747 C739 1.433 . S
C747 N749 1.384 . S
N748 C744 1.427 . S
N748 C745 1.384 . S
N749 C741 1.427 . S
N749 C747 1.384 . S
H750 C756 0.930 . S
H751 C760 0.930 . S
H752 C765 0.929 . S
H753 C763 0.929 . S
H754 C758 0.929 . S
H755 C764 0.929 . S
C756 H750 0.930 . S
C756 C757 1.367 . S
C756 C764 1.378 . S
C757 C756 1.367 . S
C757 C765 1.433 . S
C758 H754 0.929 . S
C758 C760 1.378 . S
C758 C762 1.350 . S
C759 C762 1.463 . S
C759 C764 1.350 . S
C759 N767 1.427 . S
C760 H751 0.930 . S
C760 C758 1.378 . S
C760 C761 1.367 . S
C761 C760 1.367 . S
C761 C763 1.433 . S
C762 C758 1.350 . S
C762 C759 1.463 . S
C762 N766 1.427 . S
C763 H753 0.929 . S
C763 C761 1.433 . S
C763 N766 1.384 . S
C764 H755 0.929 . S
C764 C756 1.378 . S
C764 C759 1.350 . S
C765 H752 0.929 . S
C765 C757 1.433 . S
C765 N767 1.384 . S
N766 C762 1.427 . S
N766 C763 1.384 . S
N767 C759 1.427 . S
N767 C765 1.384 . S
H768 C774 0.930 . S
H769 C778 0.930 . S
H770 C783 0.929 . S
H771 C781 0.929 . S
H772 C776 0.929 . S
H773 C782 0.929 . S
C774 H768 0.930 . S
C774 C775 1.367 . S
C774 C782 1.378 . S
C775 C774 1.367 . S
C775 C783 1.433 . S
C776 H772 0.929 . S
C776 C778 1.378 . S
C776 C780 1.350 . S
C777 C780 1.463 1_554 S
C777 C782 1.350 . S
C777 N785 1.427 . S
C778 H769 0.930 . S
C778 C776 1.378 . S
C778 C779 1.367 . S
C779 C778 1.367 . S
C779 C781 1.433 . S
C780 C776 1.350 . S
C780 C777 1.463 1_556 S
C780 N784 1.427 1_556 S
C781 H771 0.929 . S
C781 C779 1.433 . S
C781 N784 1.384 1_556 S
C782 H773 0.929 . S
C782 C774 1.378 . S
C782 C777 1.350 . S
C783 H770 0.929 . S
C783 C775 1.433 . S
C783 N785 1.384 . S
N784 C780 1.427 1_554 S
N784 C781 1.384 1_554 S
N785 C777 1.427 . S
N785 C783 1.384 . S
H786 C792 0.930 . S
H787 C796 0.930 . S
H788 C801 0.929 . S
H789 C799 0.929 . S
H790 C794 0.929 . S
H791 C800 0.929 . S
C792 H786 0.930 . S
C792 C793 1.367 . S
C792 C800 1.378 . S
C793 C792 1.367 . S
C793 C801 1.433 . S
C794 H790 0.929 . S
C794 C796 1.378 . S
C794 C798 1.350 . S
C795 C798 1.463 . S
C795 C800 1.350 . S
C795 N803 1.427 . S
C796 H787 0.930 . S
C796 C794 1.378 . S
C796 C797 1.367 . S
C797 C796 1.367 . S
C797 C799 1.433 . S
C798 C794 1.350 . S
C798 C795 1.463 . S
C798 N802 1.427 . S
C799 H789 0.929 . S
C799 C797 1.433 . S
C799 N802 1.384 . S
C800 H791 0.929 . S
C800 C792 1.378 . S
C800 C795 1.350 . S
C801 H788 0.929 . S
C801 C793 1.433 . S
C801 N803 1.384 . S
N802 C798 1.427 . S
N802 C799 1.384 . S
N803 C795 1.427 . S
N803 C801 1.384 . S
C383 C365 1.484 . S
C379 C45 1.518 . S
C397 C84 1.490 . S
C401 C294 1.460 . S
C415 C126 1.495 . S
C419 C308 1.495 . S
C433 C189 1.493 . S
C437 C322 1.458 . S
C455 C336 1.495 . S
C451 C228 1.515 . S
C469 C270 1.485 . S
C473 C351 1.461 . S
C487 C69 1.491 . S
C491 C309 1.461 . S
C505 C141 1.519 . S
C509 C323 1.493 . S
C523 C174 1.485 . S
C527 C337 1.470 . S
C545 C350 1.493 . S
C541 C213 1.508 . S
C563 C364 1.464 . S
C559 C285 1.495 . S
C581 C295 1.489 . S
C577 C30 1.496 . S
C595 C36 1.533 . S
C599 C311 1.508 . S
C613 C93 1.595 . S
C617 C325 1.559 . S
C635 C339 1.509 . S
C631 C117 1.523 . S
C649 C180 1.587 . S
C653 C352 1.560 . S
C671 C366 1.509 . S
C667 C237 1.537 . S
C689 C297 1.563 . S
C685 C261 1.579 . S
C707 C367 1.567 . S
C703 C78 1.569 . S
C721 C132 1.533 . S
C725 C296 1.508 . S
C743 C310 1.566 . S
C739 C165 1.577 . S
C757 C222 1.517 . S
C761 C324 1.512 . S
C775 C276 1.587 . S
C779 C338 1.561 . S
C793 C21 1.527 . S
C797 C353 1.515 . S
