# Generated by pormake.
# Topology tsx, (6,3)-cn, num edge types: 1
# Building blocks:
#     Node 0, Type 0, BuildingBlock: LEVNOQ01_clean_sbu_1, # of connection points: 6
#     Node 1, Type 0, BuildingBlock: LEVNOQ01_clean_sbu_1, # of connection points: 6
#     Node 2, Type 1, BuildingBlock: MIDCAF_clean_linker_0, # of connection points: 3
#     Node 3, Type 1, BuildingBlock: MIDCAF_clean_linker_0, # of connection points: 3
#     Node 4, Type 1, BuildingBlock: MIDCAF_clean_linker_0, # of connection points: 3
#     Node 5, Type 1, BuildingBlock: MIDCAF_clean_linker_0, # of connection points: 3
#     Edge 6, Type (0, 1), BuildingBlock: CIFDUS_clean_linker_0, # of connection points: 2
#     Edge 7, Type (0, 1), BuildingBlock: CIFDUS_clean_linker_0, # of connection points: 2
#     Edge 8, Type (0, 1), BuildingBlock: CIFDUS_clean_linker_0, # of connection points: 2
#     Edge 9, Type (0, 1), BuildingBlock: CIFDUS_clean_linker_0, # of connection points: 2
#     Edge 10, Type (0, 1), BuildingBlock: CIFDUS_clean_linker_0, # of connection points: 2
#     Edge 11, Type (0, 1), BuildingBlock: CIFDUS_clean_linker_0, # of connection points: 2
#     Edge 12, Type (0, 1), BuildingBlock: CIFDUS_clean_linker_0, # of connection points: 2
#     Edge 13, Type (0, 1), BuildingBlock: CIFDUS_clean_linker_0, # of connection points: 2
#     Edge 14, Type (0, 1), BuildingBlock: CIFDUS_clean_linker_0, # of connection points: 2
#     Edge 15, Type (0, 1), BuildingBlock: CIFDUS_clean_linker_0, # of connection points: 2
#     Edge 16, Type (0, 1), BuildingBlock: CIFDUS_clean_linker_0, # of connection points: 2
#     Edge 17, Type (0, 1), BuildingBlock: CIFDUS_clean_linker_0, # of connection points: 2
# Relax obj value: 0.132
# Max RMSD: 0.159
# Mean RMSD: 0.121
data_MOF--net-tsx--node1-LEVNOQ01_clean_sbu_1--node2-MIDCAF_clean_linker_0--edge1-CIFDUS_clean_linker_0
_symmetry_space_group_name_H-M    P1
_symmetry_Int_Tables_number       1
_symmetry_cell_setting            triclinic
loop_
_symmetry_equiv_pos_as_xyz
'x, y, z'
_cell_length_a     19.988966
_cell_length_b     24.331488
_cell_length_c     40.398781
_cell_angle_alpha  97.400691
_cell_angle_beta   90.030514
_cell_angle_gamma 91.005082
loop_
_atom_site_label
_atom_site_type_symbol
_atom_site_fract_x
_atom_site_fract_y
_atom_site_fract_z
_atom_type_partial_charge
O0 O 0.1355 0.01257 0.07069 0.0
Mg1 Mg 0.1758 0.03018 0.02497 0.0
O2 O 0.03441 0.02831 0.0534 0.0
Mg3 Mg 0.05957 0.02345 -0.00309 0.0
O4 O 0.14418 0.09365 0.00144 0.0
O5 O 0.23818 0.09591 0.03234 0.0
O6 O 0.07926 0.01628 0.94005 0.0
O7 O 0.00606 0.10886 -0.00341 0.0
Mg8 Mg 0.94559 0.02725 0.97805 0.0
O9 O 0.97423 0.9534 0.99063 0.0
O10 O 0.98222 0.05369 0.93301 0.0
O11 O 0.91276 0.08593 0.01836 0.0
O12 O 0.87773 0.96698 0.96418 0.0
C13 C 0.17955 0.92872 0.99337 0.0
C14 C 0.07371 0.0179 0.07643 0.0
C15 C 0.19968 0.11821 0.01236 0.0
C16 C 0.03875 0.03832 0.9216 0.0
C17 C 0.95125 0.12365 0.01058 0.0
C18 C 0.91722 0.93505 0.97778 0.0
O19 O 0.22217 0.96751 0.99439 0.0
O20 O 0.11822 0.94058 -0.00206 0.0
O21 O 0.63007 0.53413 0.57778 0.0
Mg22 Mg 0.69387 0.54957 0.53812 0.0
O23 O 0.53128 0.51799 0.55236 0.0
Mg24 Mg 0.54927 0.53024 0.49756 0.0
O25 O 0.6348 0.58961 0.50918 0.0
O26 O 0.72904 0.62824 0.52917 0.0
O27 O 0.56561 0.53692 0.44116 0.0
O28 O 0.4801 0.61091 0.50743 0.0
Mg29 Mg 0.41054 0.52967 0.46491 0.0
O30 O 0.46392 0.47082 0.48386 0.0
O31 O 0.47175 0.58061 0.43739 0.0
O32 O 0.37737 0.57649 0.50757 0.0
O33 O 0.36932 0.45002 0.45617 0.0
C34 C 0.68047 0.43882 0.49599 0.0
C35 C 0.56837 0.52036 0.57815 0.0
C36 C 0.67594 0.63108 0.51145 0.0
C37 C 0.52582 0.56274 0.42434 0.0
C38 C 0.41819 0.6162 0.5156 0.0
C39 C 0.41494 0.43662 0.47602 0.0
O40 O 0.72231 0.4753 0.50894 0.0
O41 O 0.61882 0.45065 0.49189 0.0
C42 C 0.84973 0.12304 0.44223 0.0
C43 C 0.86947 0.15063 0.47343 0.0
C44 C 0.92005 0.1279 0.4913 0.0
C45 C 0.9538 0.08066 0.47687 0.0
H46 H 0.0892 0.95005 0.49208 0.0
H47 H 0.17542 0.90249 0.52002 0.0
H48 H 0.26002 0.84138 0.42436 0.0
H49 H 0.17376 0.88743 0.39626 0.0
H50 H 0.09843 0.90849 0.32695 0.0
H51 H 0.11138 0.91783 0.26728 0.0
H52 H 0.98584 0.06123 0.27945 0.0
H53 H 0.97214 0.05247 0.33838 0.0
H54 H 0.86923 0.05768 0.40296 0.0
H55 H 0.81126 0.14015 0.42787 0.0
H56 H 0.93608 0.14868 0.5154 0.0
H57 H 0.99596 0.0664 0.48986 0.0
N58 N 0.0277 0.98567 0.44202 0.0
N59 N 0.07339 0.94887 0.39036 0.0
N60 N 0.98401 0.00994 0.39218 0.0
C61 C 0.07283 0.95226 0.42433 0.0
C62 C 0.02912 0.97775 0.37411 0.0
C63 C 0.98251 0.0142 0.42598 0.0
C64 C 0.1241 0.9227 0.44179 0.0
C65 C 0.12582 0.92629 0.47692 0.0
C66 C 0.17539 0.89935 0.49302 0.0
C67 C 0.22492 0.86917 0.47435 0.0
C68 C 0.22321 0.86541 0.43937 0.0
C69 C 0.1733 0.89152 0.42328 0.0
C70 C 0.03403 0.97957 0.33754 0.0
C71 C 0.07298 0.94159 0.31681 0.0
C72 C 0.08025 0.9467 0.28276 0.0
C73 C 0.0489 0.98991 0.26912 0.0
C74 C 0.00964 0.02728 0.28955 0.0
C75 C 0.00195 0.02206 0.3233 0.0
C76 C 0.93768 0.05555 0.44448 0.0
C77 C 0.8834 0.07605 0.42789 0.0
C78 C 0.82417 0.92177 0.54522 0.0
C79 C 0.83615 0.9043 0.5111 0.0
C80 C 0.89178 0.92763 0.49616 0.0
C81 C 0.9349 0.96564 0.51504 0.0
H82 H 0.05695 0.13802 0.51509 0.0
H83 H 0.13309 0.21177 0.50093 0.0
H84 H 0.23948 0.20734 0.59339 0.0
H85 H 0.16655 0.13285 0.60679 0.0
H86 H 0.04884 0.15023 0.66744 0.0
H87 H 0.05403 0.15669 0.72807 0.0
H88 H 0.95971 -0.00498 0.72391 0.0
H89 H 0.95348 0.98832 0.66276 0.0
H90 H 0.85487 0.97269 0.58982 0.0
H91 H 0.78372 0.90386 0.55831 0.0
H92 H 0.9032 0.91571 0.47006 0.0
H93 H 0.97904 0.98005 0.50332 0.0
N94 N 0.0135 0.05587 0.55531 0.0
N95 N 0.04801 0.09534 0.60875 0.0
N96 N 0.96406 0.02711 0.60353 0.0
C97 C 0.05396 0.09215 0.57519 0.0
C98 C 0.00378 0.06346 0.62323 0.0
C99 C 0.96815 0.02304 0.56957 0.0
C100 C 0.10464 0.12959 0.56225 0.0
C101 C 0.09732 0.15162 0.53191 0.0
C102 C 0.14042 0.19439 0.52403 0.0
C103 C 0.19075 0.21607 0.54667 0.0
C104 C 0.19992 0.19234 0.57602 0.0
C105 C 0.15811 0.14936 0.5835 0.0
C106 C 0.0011 0.06848 0.66018 0.0
C107 C 0.02873 0.11604 0.67931 0.0
C108 C 0.03164 0.11997 0.71404 0.0
C109 C 0.00786 0.07617 0.73043 0.0
C110 C 0.97894 0.02905 0.71161 0.0
C111 C 0.97499 0.02543 0.67674 0.0
C112 C 0.92247 0.98315 0.54894 0.0
C113 C 0.86617 0.96082 0.56368 0.0
C114 C 0.35266 0.62956 0.94394 0.0
C115 C 0.36527 0.64679 0.97792 0.0
C116 C 0.41155 0.61872 -0.00495 0.0
C117 C 0.44908 0.57679 0.97766 0.0
H118 H 0.55884 0.42368 0.98436 0.0
H119 H 0.63378 0.3655 0.01167 0.0
H120 H 0.78015 0.37884 0.93397 0.0
H121 H 0.70352 0.43331 0.90588 0.0
H122 H 0.59476 0.40734 0.83117 0.0
H123 H 0.59976 0.39873 0.77068 0.0
H124 H 0.50136 0.55599 0.77238 0.0
H125 H 0.49392 0.56358 0.83323 0.0
H126 H 0.38127 0.57637 0.90009 0.0
H127 H 0.31754 0.65158 0.93025 0.0
H128 H 0.42205 0.63208 0.0212 0.0
H129 H 0.48899 0.55932 0.99064 0.0
N130 N 0.53003 0.49425 0.94106 0.0
N131 N 0.58213 0.46093 0.89073 0.0
N132 N 0.49223 0.52146 0.8907 0.0
C133 C 0.57765 0.46299 0.9244 0.0
C134 C 0.53938 0.48983 0.87369 0.0
C135 C 0.48725 0.5237 0.92441 0.0
C136 C 0.62484 0.43202 0.94267 0.0
C137 C 0.60721 0.41425 0.97333 0.0
C138 C 0.6504 0.38113 0.98909 0.0
C139 C 0.7125 0.36603 0.97466 0.0
C140 C 0.73158 0.38732 0.94514 0.0
C141 C 0.68786 0.41902 0.92905 0.0
C142 C 0.54381 0.48606 0.83696 0.0
C143 C 0.57423 0.44015 0.8187 0.0
C144 C 0.57719 0.43526 0.784 0.0
C145 C 0.5508 0.47659 0.7667 0.0
C146 C 0.52091 0.52291 0.78495 0.0
C147 C 0.51709 0.52745 0.81977 0.0
C148 C 0.43994 0.56161 0.9432 0.0
C149 C 0.38968 0.58711 0.92665 0.0
C150 C 0.29747 0.445 0.04351 0.0
C151 C 0.31534 0.42015 0.01137 0.0
C152 C 0.37711 0.43482 -0.00193 0.0
C153 C 0.42184 0.47015 0.01744 0.0
H154 H 0.5429 0.63785 0.01605 0.0
H155 H 0.61922 0.70904 -0.00025 0.0
H156 H 0.73719 0.69956 0.0883 0.0
H157 H 0.66278 0.62752 0.10394 0.0
H158 H 0.55474 0.64517 0.16811 0.0
H159 H 0.58047 0.64057 0.22655 0.0
H160 H 0.47437 0.48334 0.22089 0.0
H161 H 0.44827 0.48778 0.16216 0.0
H162 H 0.32722 0.49864 0.08751 0.0
H163 H 0.25109 0.43358 0.05491 0.0
H164 H 0.39274 0.41602 0.97358 0.0
H165 H 0.47105 0.47686 0.00762 0.0
N166 N 0.50056 0.55958 0.05609 0.0
N167 N 0.54194 0.59464 0.10884 0.0
N168 N 0.45143 0.53216 0.10466 0.0
C169 C 0.54508 0.59231 0.07532 0.0
C170 C 0.49595 0.56512 0.12381 0.0
C171 C 0.45331 0.5295 0.0707 0.0
C172 C 0.59616 0.62721 0.06135 0.0
C173 C 0.58596 0.64954 0.03141 0.0
C174 C 0.62925 0.69079 0.0223 0.0
C175 C 0.68288 0.71033 0.04327 0.0
C176 C 0.69512 0.68596 0.07219 0.0
C177 C 0.65264 0.64451 0.08097 0.0
C178 C 0.50006 0.56638 0.1604 0.0
C179 C 0.53644 0.60968 0.17933 0.0
C180 C 0.55199 0.60688 0.21269 0.0
C181 C 0.53091 0.56103 0.22795 0.0
C182 C 0.49165 0.51903 0.20957 0.0
C183 C 0.47613 0.52176 0.17609 0.0
C184 C 0.40484 0.49363 0.04986 0.0
C185 C 0.34175 0.48133 0.06254 0.0
H186 H 0.13038 0.21213 0.00429 0.0
H187 H 0.32363 0.13631 0.99115 0.0
H188 H 0.37351 0.22338 0.97895 0.0
H189 H 0.36754 0.3232 0.98503 0.0
H190 H 0.17874 0.40387 0.00459 0.0
H191 H 0.12124 0.31326 -0.0 0.0
C192 C 0.18298 0.21478 -0.002 0.0
C193 C 0.22392 0.16868 -0.00056 0.0
C194 C 0.21214 0.266 0.99236 0.0
C195 C 0.2918 0.17192 0.991 0.0
C196 C 0.32026 0.22157 0.98388 0.0
C197 C 0.31344 0.32129 0.98691 0.0
C198 C 0.27768 0.37008 -0.00396 0.0
C199 C 0.28176 0.26944 0.98634 0.0
C200 C 0.20753 0.36667 -0.00171 0.0
C201 C 0.17479 0.31486 -0.00404 0.0
H202 H 0.30717 0.89659 -0.00272 0.0
H203 H 0.10345 0.83376 0.9926 0.0
H204 H 0.14354 0.7398 -0.00506 0.0
H205 H 0.23732 0.67488 0.99107 0.0
H206 H 0.43984 0.73899 -0.00451 0.0
H207 H 0.39924 0.83396 0.00155 0.0
C208 C 0.27133 0.86244 -0.00334 0.0
C209 C 0.20257 0.87175 0.99376 0.0
C210 C 0.2945 0.80914 -0.00155 0.0
C211 C 0.1568 0.82728 0.99398 0.0
C212 C 0.17958 0.77376 -0.00434 0.0
C213 C 0.27206 0.70993 -0.00543 0.0
C214 C 0.34092 0.70078 0.99269 0.0
C215 C 0.24837 0.76409 -0.00294 0.0
C216 C 0.38641 0.74576 -0.00287 0.0
C217 C 0.3633 0.79981 6e-05 0.0
H218 H 0.87119 0.9176 0.03653 0.0
H219 H 0.89623 0.8393 0.93559 0.0
H220 H 0.82418 0.761 0.94717 0.0
H221 H 0.74753 0.71928 0.98535 0.0
H222 H 0.7149 0.80399 0.08447 0.0
H223 H 0.79469 0.87707 0.0741 0.0
C224 C 0.86206 0.88249 0.01747 0.0
C225 C 0.88942 0.88275 0.98567 0.0
C226 C 0.81771 0.84016 0.02374 0.0
C227 C 0.87632 0.8386 0.96049 0.0
C228 C 0.83455 0.79456 0.96698 0.0
C229 C 0.75776 0.75403 0.00445 0.0
C230 C 0.72628 0.75643 0.03562 0.0
C231 C 0.80355 0.79575 -0.00172 0.0
C232 C 0.73946 0.80138 0.06041 0.0
C233 C 0.78508 0.84287 0.05457 0.0
H234 H 0.88097 0.20159 0.0507 0.0
H235 H 0.94963 0.15543 0.94977 0.0
H236 H 0.87607 0.22197 0.92964 0.0
H237 H 0.78834 0.28825 0.93981 0.0
H238 H 0.73251 0.35056 0.04086 0.0
H239 H 0.80348 0.28152 0.06196 0.0
C240 C 0.88093 0.20757 0.02455 0.0
C241 C 0.92022 0.17374 0.00169 0.0
C242 C 0.84006 0.2478 0.01315 0.0
C243 C 0.91999 0.18122 0.9678 0.0
C244 C 0.87745 0.21887 0.95618 0.0
C245 C 0.79295 0.28845 0.96657 0.0
C246 C 0.75564 0.32532 0.98859 0.0
C247 C 0.83673 0.25167 0.97854 0.0
C248 C 0.76021 0.32246 0.02317 0.0
C249 C 0.80136 0.2834 0.03531 0.0
H250 H 0.7471 0.66371 0.46159 0.0
H251 H 0.58516 0.71206 0.52848 0.0
H252 H 0.61261 0.81005 0.52616 0.0
H253 H 0.70307 0.87763 0.51915 0.0
H254 H 0.87745 0.82335 0.46144 0.0
H255 H 0.82388 0.73402 0.44468 0.0
C256 C 0.71577 0.69593 0.47414 0.0
C257 C 0.66527 0.68126 0.49561 0.0
C258 C 0.73577 0.75167 0.47504 0.0
C259 C 0.62442 0.7227 0.5118 0.0
C260 C 0.64112 0.77873 0.51101 0.0
C261 C 0.72933 0.84653 0.50269 0.0
C262 C 0.79581 0.85708 0.49299 0.0
C263 C 0.70028 0.79326 0.49511 0.0
C264 C 0.82693 0.81704 0.46995 0.0
C265 C 0.79644 0.76527 0.46048 0.0
H266 H 0.80615 0.40366 0.48196 0.0
H267 H 0.60746 0.34346 0.50091 0.0
H268 H 0.65014 0.24941 0.50069 0.0
H269 H 0.74386 0.18332 0.4923 0.0
H270 H 0.94211 0.24529 0.47468 0.0
H271 H 0.90009 0.33971 0.47762 0.0
C272 C 0.77195 0.36986 0.48564 0.0
C273 C 0.70341 0.38048 0.49068 0.0
C274 C 0.79704 0.31631 0.48611 0.0
C275 C 0.66005 0.33624 0.49596 0.0
C276 C 0.68464 0.28261 0.49637 0.0
C277 C 0.77781 0.21788 0.48998 0.0
C278 C 0.8459 0.20771 0.48349 0.0
C279 C 0.75301 0.27205 0.49128 0.0
C280 C 0.88968 0.25247 0.48017 0.0
C281 C 0.86551 0.30626 0.48138 0.0
H282 H 0.36941 0.43041 0.53802 0.0
H283 H 0.43193 0.33162 0.44751 0.0
H284 H 0.36481 0.25302 0.46158 0.0
H285 H 0.27408 0.21825 0.4945 0.0
H286 H 0.21002 0.31575 0.58518 0.0
H287 H 0.29011 0.38997 0.57595 0.0
C288 C 0.37058 0.39068 0.52232 0.0
C289 C 0.40497 0.3862 0.49173 0.0
C290 C 0.32903 0.34672 0.52982 0.0
C291 C 0.40599 0.3353 0.47123 0.0
C292 C 0.36648 0.29092 0.47892 0.0
C293 C 0.27759 0.25592 0.51204 0.0
C294 C 0.23558 0.26235 0.53995 0.0
C295 C 0.32489 0.29732 0.50705 0.0
C296 C 0.24142 0.31061 0.56317 0.0
C297 C 0.28761 0.35264 0.55811 0.0
H298 H 0.46211 0.71733 0.50096 0.0
H299 H 0.30426 0.6368 0.55058 0.0
H300 H 0.23116 0.71471 0.54664 0.0
H301 H 0.20473 0.79528 0.51831 0.0
H302 H 0.36011 0.87396 0.46626 0.0
H303 H 0.44192 0.80868 0.48268 0.0
C304 C 0.41288 0.7181 0.51228 0.0
C305 C 0.38808 0.67093 0.52535 0.0
C306 C 0.37008 0.76247 0.50889 0.0
C307 C 0.32408 0.67239 0.53993 0.0
C308 C 0.28193 0.71672 0.53739 0.0
C309 C 0.25694 0.79907 0.51147 0.0
C310 C 0.27635 0.83853 0.49065 0.0
C311 C 0.3031 0.76038 0.52019 0.0
C312 C 0.34404 0.84316 0.48185 0.0
C313 C 0.39073 0.80585 0.49123 0.0
H314 H 0.12865 0.06816 0.13223 0.0
H315 H 0.96841 0.95556 0.09614 0.0
H316 H 0.94694 0.9351 0.15344 0.0
H317 H 0.97974 0.94604 0.21366 0.0
H318 H 0.14215 0.05798 0.24777 0.0
H319 H 0.15777 0.08185 0.19122 0.0
C320 C 0.08831 0.03983 0.13708 0.0
C321 C 0.0501 0.01344 0.11042 0.0
C322 C 0.07773 0.02759 0.16955 0.0
C323 C 0.9978 0.97682 0.11661 0.0
C324 C 0.98624 0.96465 0.1492 0.0
C325 C 0.01881 0.97513 0.20837 0.0
C326 C 0.06075 -0.00038 0.23434 0.0
C327 C 0.027 0.98893 0.17578 0.0
C328 C 0.1104 0.03815 0.22781 0.0
C329 C 0.11885 0.05208 0.19567 0.0
H330 H 0.99812 0.11897 0.88731 0.0
H331 H 0.10956 0.96754 0.87687 0.0
H332 H 0.11132 0.9666 0.81598 0.0
H333 H 0.07109 0.00466 0.76561 0.0
H334 H 0.9601 0.15635 0.777 0.0
H335 H 0.96751 0.16141 0.83784 0.0
C336 C 0.02371 0.08624 0.87169 0.0
C337 C 0.0531 0.04311 0.8863 0.0
C338 C 0.02349 0.08567 0.83698 0.0
C339 C 0.08689 0.00125 0.86605 0.0
C340 C 0.08721 0.00043 0.83129 0.0
C341 C 0.0487 0.0387 0.78156 0.0
C342 C 0.01418 0.07962 0.76712 0.0
C343 C 0.0539 0.04157 0.81646 0.0
C344 C 0.98642 0.1243 0.78775 0.0
C345 C 0.99078 0.12722 0.82243 0.0
H346 H 0.6359 0.46127 0.61679 0.0
H347 H 0.44399 0.5359 0.60776 0.0
H348 H 0.41732 0.52185 0.66573 0.0
H349 H 0.45814 0.50232 0.72126 0.0
H350 H 0.65855 0.44128 0.72944 0.0
H351 H 0.673 0.43683 0.66955 0.0
C352 C 0.58795 0.4742 0.62747 0.0
C353 C 0.54304 0.50153 0.60893 0.0
C354 C 0.57526 0.46922 0.6608 0.0
C355 C 0.47981 0.51577 0.62212 0.0
C356 C 0.46503 0.50822 0.65523 0.0
C357 C 0.50487 0.48806 0.70986 0.0
C358 C 0.55718 0.47212 0.72988 0.0
C359 C 0.51399 0.48763 0.67531 0.0
C360 C 0.61713 0.45299 0.71469 0.0
C361 C 0.62562 0.45061 0.68043 0.0
H362 H 0.62767 0.57446 0.37867 0.0
H363 H 0.41999 0.52631 0.38799 0.0
H364 H 0.40431 0.52074 0.32852 0.0
H365 H 0.44484 0.53598 0.27448 0.0
H366 H 0.65129 0.58136 0.26103 0.0
H367 H 0.67235 0.58146 0.32107 0.0
C368 C 0.57963 0.56196 0.36739 0.0
C369 C 0.52465 0.55236 0.38772 0.0
C370 C 0.57039 0.55867 0.33248 0.0
C371 C 0.46265 0.53556 0.37294 0.0
C372 C 0.45342 0.53214 0.33887 0.0
C373 C 0.49479 0.54491 0.28453 0.0
C374 C 0.54626 0.55853 0.26355 0.0
C375 C 0.50625 0.54479 0.31855 0.0
C376 C 0.61058 0.57116 0.27698 0.0
C377 C 0.62267 0.57098 0.31121 0.0
loop_
_geom_bond_atom_site_label_1
_geom_bond_atom_site_label_2
_geom_bond_distance
_geom_bond_site_symmetry_2
_ccdc_geom_bond_type
O0 Mg1 1.990 . S
O0 C14 1.253 . S
Mg1 O0 1.990 . S
Mg1 O4 2.180 . S
Mg1 O5 2.117 . S
Mg1 O19 2.030 1_545 S
O2 Mg3 2.069 1_554 S
O2 C14 1.260 . S
Mg3 O2 2.069 1_556 S
Mg3 O4 2.098 1_556 S
Mg3 O6 2.082 . S
Mg3 O7 2.072 1_556 S
Mg3 O9 2.099 1_445 S
Mg3 O20 2.079 1_545 S
O4 Mg1 2.180 . S
O4 Mg3 2.098 1_554 S
O4 C15 1.279 . S
O5 Mg1 2.117 . S
O5 C15 1.250 . S
O6 Mg3 2.082 . S
O6 C16 1.264 . S
O7 Mg3 2.072 1_554 S
O7 C17 1.260 1_454 S
Mg8 O9 2.180 1_545 S
Mg8 O10 2.030 . S
Mg8 O11 1.990 . S
Mg8 O12 2.117 1_545 S
O9 Mg3 2.099 1_665 S
O9 Mg8 2.180 1_565 S
O9 C18 1.279 1_556 S
O10 Mg8 2.030 . S
O10 C16 1.248 1_655 S
O11 Mg8 1.990 . S
O11 C17 1.253 . S
O12 Mg8 2.117 1_565 S
O12 C18 1.250 1_556 S
C13 O19 1.248 . S
C13 O20 1.264 1_554 S
C14 O0 1.253 . S
C14 O2 1.260 . S
C15 O4 1.279 . S
C15 O5 1.250 . S
C16 O6 1.264 . S
C16 O10 1.248 1_455 S
C17 O7 1.260 1_656 S
C17 O11 1.253 . S
C18 O9 1.279 1_554 S
C18 O12 1.250 1_554 S
O19 Mg1 2.030 1_565 S
O19 C13 1.248 . S
O20 Mg3 2.079 1_565 S
O20 C13 1.264 1_556 S
O21 Mg22 1.990 . S
O21 C35 1.253 . S
Mg22 O21 1.990 . S
Mg22 O25 2.180 . S
Mg22 O26 2.117 . S
Mg22 O40 2.030 . S
O23 Mg24 2.072 . S
O23 C35 1.260 . S
Mg24 O23 2.072 . S
Mg24 O25 2.099 . S
Mg24 O27 2.079 . S
Mg24 O28 2.072 . S
Mg24 O30 2.099 . S
Mg24 O41 2.079 . S
O25 Mg22 2.180 . S
O25 Mg24 2.099 . S
O25 C36 1.279 . S
O26 Mg22 2.117 . S
O26 C36 1.250 . S
O27 Mg24 2.079 . S
O27 C37 1.264 . S
O28 Mg24 2.072 . S
O28 C38 1.260 . S
Mg29 O30 2.180 . S
Mg29 O31 2.030 . S
Mg29 O32 1.990 . S
Mg29 O33 2.117 . S
O30 Mg24 2.099 . S
O30 Mg29 2.180 . S
O30 C39 1.279 . S
O31 Mg29 2.030 . S
O31 C37 1.248 . S
O32 Mg29 1.990 . S
O32 C38 1.253 . S
O33 Mg29 2.117 . S
O33 C39 1.250 . S
C34 O40 1.248 . S
C34 O41 1.264 . S
C35 O21 1.253 . S
C35 O23 1.260 . S
C36 O25 1.279 . S
C36 O26 1.250 . S
C37 O27 1.264 . S
C37 O31 1.248 . S
C38 O28 1.260 . S
C38 O32 1.253 . S
C39 O30 1.279 . S
C39 O33 1.250 . S
O40 Mg22 2.030 . S
O40 C34 1.248 . S
O41 Mg24 2.079 . S
O41 C34 1.264 . S
C42 C43 1.384 . S
C42 H55 0.947 . S
C42 C77 1.382 . S
C43 C42 1.384 . S
C43 C44 1.378 . S
C44 C43 1.378 . S
C44 C45 1.378 . S
C44 H56 0.952 . S
C45 C44 1.378 . S
C45 H57 0.950 1_655 S
C45 C76 1.383 . S
H46 C65 0.947 . S
H47 C66 0.946 . S
H48 C68 0.953 . S
H49 C69 0.945 . S
H50 C71 0.952 . S
H51 C72 0.949 . S
H52 C74 0.950 . S
H53 C75 0.948 . S
H54 C77 0.951 . S
H55 C42 0.947 . S
H56 C44 0.952 . S
H57 C45 0.950 1_455 S
N58 C61 1.382 1_545 S
N58 C63 1.363 . S
N59 C61 1.371 . S
N59 C62 1.372 1_565 S
N60 C62 1.361 . S
N60 C63 1.377 . S
C61 N58 1.382 1_565 S
C61 N59 1.371 . S
C61 C64 1.480 . S
C62 N59 1.372 1_545 S
C62 N60 1.361 . S
C62 C70 1.457 . S
C63 N58 1.363 . S
C63 N60 1.377 . S
C63 C76 1.479 1_455 S
C64 C61 1.480 . S
C64 C65 1.383 . S
C64 C69 1.385 . S
C65 H46 0.947 . S
C65 C64 1.383 . S
C65 C66 1.388 . S
C66 H47 0.946 . S
C66 C65 1.388 . S
C66 C67 1.384 . S
C67 C66 1.384 . S
C67 C68 1.377 . S
C68 H48 0.953 . S
C68 C67 1.377 . S
C68 C69 1.369 . S
C69 H49 0.945 . S
C69 C64 1.385 . S
C69 C68 1.369 . S
C70 C62 1.457 . S
C70 C71 1.372 1_545 S
C70 C75 1.364 . S
C71 H50 0.952 . S
C71 C70 1.372 1_565 S
C71 C72 1.389 . S
C72 H51 0.949 . S
C72 C71 1.389 . S
C72 C73 1.387 . S
C73 C72 1.387 . S
C73 C74 1.372 1_565 S
C74 H52 0.950 . S
C74 C73 1.372 1_545 S
C74 C75 1.379 . S
C75 H53 0.948 . S
C75 C70 1.364 . S
C75 C74 1.379 . S
C76 C45 1.383 . S
C76 C63 1.479 1_655 S
C76 C77 1.398 . S
C77 C42 1.382 . S
C77 H54 0.951 . S
C77 C76 1.398 . S
C78 C79 1.384 . S
C78 H91 0.947 . S
C78 C113 1.382 . S
C79 C78 1.384 . S
C79 C80 1.378 . S
C80 C79 1.378 . S
C80 C81 1.378 . S
C80 H92 0.952 . S
C81 C80 1.378 . S
C81 H93 0.950 1_565 S
C81 C112 1.383 . S
H82 C101 0.947 . S
H83 C102 0.946 . S
H84 C104 0.953 . S
H85 C105 0.945 . S
H86 C107 0.952 . S
H87 C108 0.949 . S
H88 C110 0.950 . S
H89 C111 0.948 . S
H90 C113 0.951 . S
H91 C78 0.947 . S
H92 C80 0.952 . S
H93 C81 0.950 1_545 S
N94 C97 1.382 . S
N94 C99 1.363 1_455 S
N95 C97 1.371 . S
N95 C98 1.372 . S
N96 C98 1.361 1_655 S
N96 C99 1.377 . S
C97 N94 1.382 . S
C97 N95 1.371 . S
C97 C100 1.480 . S
C98 N95 1.372 . S
C98 N96 1.361 1_455 S
C98 C106 1.457 . S
C99 N94 1.363 1_655 S
C99 N96 1.377 . S
C99 C112 1.479 1_545 S
C100 C97 1.480 . S
C100 C101 1.383 . S
C100 C105 1.385 . S
C101 H82 0.947 . S
C101 C100 1.383 . S
C101 C102 1.388 . S
C102 H83 0.946 . S
C102 C101 1.388 . S
C102 C103 1.384 . S
C103 C102 1.384 . S
C103 C104 1.377 . S
C104 H84 0.953 . S
C104 C103 1.377 . S
C104 C105 1.369 . S
C105 H85 0.945 . S
C105 C100 1.385 . S
C105 C104 1.369 . S
C106 C98 1.457 . S
C106 C107 1.372 . S
C106 C111 1.364 1_455 S
C107 H86 0.952 . S
C107 C106 1.372 . S
C107 C108 1.389 . S
C108 H87 0.949 . S
C108 C107 1.389 . S
C108 C109 1.387 . S
C109 C108 1.387 . S
C109 C110 1.372 1_455 S
C110 H88 0.950 . S
C110 C109 1.372 1_655 S
C110 C111 1.379 . S
C111 H89 0.948 . S
C111 C106 1.364 1_655 S
C111 C110 1.379 . S
C112 C81 1.383 . S
C112 C99 1.479 1_565 S
C112 C113 1.398 . S
C113 C78 1.382 . S
C113 H90 0.951 . S
C113 C112 1.398 . S
C114 C115 1.384 . S
C114 H127 0.947 . S
C114 C149 1.382 . S
C115 C114 1.384 . S
C115 C116 1.378 1_556 S
C116 C115 1.378 1_554 S
C116 C117 1.378 1_554 S
C116 H128 0.952 . S
C117 C116 1.378 1_556 S
C117 H129 0.949 . S
C117 C148 1.383 . S
H118 C137 0.947 . S
H119 C138 0.946 1_554 S
H120 C140 0.953 . S
H121 C141 0.945 . S
H122 C143 0.952 . S
H123 C144 0.949 . S
H124 C146 0.950 . S
H125 C147 0.948 . S
H126 C149 0.951 . S
H127 C114 0.947 . S
H128 C116 0.952 . S
H129 C117 0.949 . S
N130 C133 1.382 . S
N130 C135 1.363 . S
N131 C133 1.371 . S
N131 C134 1.372 . S
N132 C134 1.361 . S
N132 C135 1.377 . S
C133 N130 1.382 . S
C133 N131 1.371 . S
C133 C136 1.480 . S
C134 N131 1.372 . S
C134 N132 1.361 . S
C134 C142 1.457 . S
C135 N130 1.363 . S
C135 N132 1.377 . S
C135 C148 1.479 . S
C136 C133 1.480 . S
C136 C137 1.383 . S
C136 C141 1.385 . S
C137 H118 0.947 . S
C137 C136 1.383 . S
C137 C138 1.388 . S
C138 H119 0.946 1_556 S
C138 C137 1.388 . S
C138 C139 1.384 . S
C139 C138 1.384 . S
C139 C140 1.377 . S
C140 H120 0.953 . S
C140 C139 1.377 . S
C140 C141 1.369 . S
C141 H121 0.945 . S
C141 C136 1.385 . S
C141 C140 1.369 . S
C142 C134 1.457 . S
C142 C143 1.372 . S
C142 C147 1.364 . S
C143 H122 0.952 . S
C143 C142 1.372 . S
C143 C144 1.389 . S
C144 H123 0.949 . S
C144 C143 1.389 . S
C144 C145 1.387 . S
C145 C144 1.387 . S
C145 C146 1.372 . S
C146 H124 0.950 . S
C146 C145 1.372 . S
C146 C147 1.379 . S
C147 H125 0.948 . S
C147 C142 1.364 . S
C147 C146 1.379 . S
C148 C117 1.383 . S
C148 C135 1.479 . S
C148 C149 1.398 . S
C149 C114 1.382 . S
C149 H126 0.951 . S
C149 C148 1.398 . S
C150 C151 1.384 . S
C150 H163 0.947 . S
C150 C185 1.382 . S
C151 C150 1.384 . S
C151 C152 1.378 . S
C152 C151 1.378 . S
C152 C153 1.378 . S
C152 H164 0.952 1_554 S
C153 C152 1.378 . S
C153 H165 0.950 . S
C153 C184 1.383 . S
H154 C173 0.947 . S
H155 C174 0.946 1_556 S
H156 C176 0.953 . S
H157 C177 0.945 . S
H158 C179 0.952 . S
H159 C180 0.949 . S
H160 C182 0.950 . S
H161 C183 0.948 . S
H162 C185 0.951 . S
H163 C150 0.947 . S
H164 C152 0.952 1_556 S
H165 C153 0.950 . S
N166 C169 1.382 . S
N166 C171 1.363 . S
N167 C169 1.371 . S
N167 C170 1.372 . S
N168 C170 1.361 . S
N168 C171 1.377 . S
C169 N166 1.382 . S
C169 N167 1.371 . S
C169 C172 1.480 . S
C170 N167 1.372 . S
C170 N168 1.361 . S
C170 C178 1.457 . S
C171 N166 1.363 . S
C171 N168 1.377 . S
C171 C184 1.479 . S
C172 C169 1.480 . S
C172 C173 1.383 . S
C172 C177 1.385 . S
C173 H154 0.947 . S
C173 C172 1.383 . S
C173 C174 1.388 . S
C174 H155 0.946 1_554 S
C174 C173 1.388 . S
C174 C175 1.384 . S
C175 C174 1.384 . S
C175 C176 1.377 . S
C176 H156 0.953 . S
C176 C175 1.377 . S
C176 C177 1.369 . S
C177 H157 0.945 . S
C177 C172 1.385 . S
C177 C176 1.369 . S
C178 C170 1.457 . S
C178 C179 1.372 . S
C178 C183 1.364 . S
C179 H158 0.952 . S
C179 C178 1.372 . S
C179 C180 1.389 . S
C180 H159 0.949 . S
C180 C179 1.389 . S
C180 C181 1.387 . S
C181 C180 1.387 . S
C181 C182 1.372 . S
C182 H160 0.950 . S
C182 C181 1.372 . S
C182 C183 1.379 . S
C183 H161 0.948 . S
C183 C178 1.364 . S
C183 C182 1.379 . S
C184 C153 1.383 . S
C184 C171 1.479 . S
C184 C185 1.398 . S
C185 C150 1.382 . S
C185 H162 0.951 . S
C185 C184 1.398 . S
H186 C192 0.930 1_556 S
H187 C195 0.930 . S
H188 C196 0.930 . S
H189 C197 0.930 . S
H190 C200 0.930 . S
H191 C201 0.930 1_556 S
C192 H186 0.930 1_554 S
C192 C193 1.355 . S
C192 C194 1.415 . S
C193 C192 1.355 . S
C193 C195 1.419 . S
C194 C192 1.415 . S
C194 C199 1.425 . S
C194 C201 1.409 . S
C195 H187 0.930 . S
C195 C193 1.419 . S
C195 C196 1.362 . S
C196 H188 0.930 . S
C196 C195 1.362 . S
C196 C199 1.409 . S
C197 H189 0.930 . S
C197 C198 1.355 . S
C197 C199 1.415 . S
C198 C197 1.355 . S
C198 C200 1.419 . S
C199 C194 1.425 . S
C199 C196 1.409 . S
C199 C197 1.415 . S
C200 H190 0.930 . S
C200 C198 1.419 . S
C200 C201 1.362 . S
C201 H191 0.930 1_554 S
C201 C194 1.409 . S
C201 C200 1.362 . S
H202 C208 0.930 . S
H203 C211 0.930 . S
H204 C212 0.930 . S
H205 C213 0.930 . S
H206 C216 0.930 . S
H207 C217 0.930 . S
C208 H202 0.930 . S
C208 C209 1.355 1_556 S
C208 C210 1.415 . S
C209 C208 1.355 1_554 S
C209 C211 1.419 . S
C210 C208 1.415 . S
C210 C215 1.425 1_556 S
C210 C217 1.409 . S
C211 H203 0.930 . S
C211 C209 1.419 . S
C211 C212 1.362 . S
C212 H204 0.930 . S
C212 C211 1.362 . S
C212 C215 1.409 . S
C213 H205 0.930 . S
C213 C214 1.353 1_554 S
C213 C215 1.415 . S
C214 C213 1.353 1_556 S
C214 C216 1.422 . S
C215 C210 1.425 1_554 S
C215 C212 1.409 . S
C215 C213 1.415 . S
C216 H206 0.930 . S
C216 C214 1.422 . S
C216 C217 1.362 . S
C217 H207 0.930 . S
C217 C210 1.409 . S
C217 C216 1.362 . S
H218 C224 0.930 . S
H219 C227 0.930 . S
H220 C228 0.930 . S
H221 C229 0.930 . S
H222 C232 0.930 . S
H223 C233 0.930 . S
C224 H218 0.930 . S
C224 C225 1.355 . S
C224 C226 1.415 . S
C225 C224 1.355 . S
C225 C227 1.419 1_554 S
C226 C224 1.415 . S
C226 C231 1.425 . S
C226 C233 1.409 . S
C227 H219 0.930 . S
C227 C225 1.419 1_556 S
C227 C228 1.362 . S
C228 H220 0.930 . S
C228 C227 1.362 . S
C228 C231 1.409 1_556 S
C229 H221 0.930 . S
C229 C230 1.355 1_556 S
C229 C231 1.415 1_556 S
C230 C229 1.355 1_554 S
C230 C232 1.419 . S
C231 C226 1.425 . S
C231 C228 1.409 1_554 S
C231 C229 1.415 1_554 S
C232 H222 0.930 . S
C232 C230 1.419 . S
C232 C233 1.362 . S
C233 H223 0.930 . S
C233 C226 1.409 . S
C233 C232 1.362 . S
H234 C240 0.930 . S
H235 C243 0.930 . S
H236 C244 0.930 . S
H237 C245 0.930 . S
H238 C248 0.930 . S
H239 C249 0.930 . S
C240 H234 0.930 . S
C240 C241 1.355 1_554 S
C240 C242 1.415 . S
C241 C240 1.355 1_556 S
C241 C243 1.419 . S
C242 C240 1.415 . S
C242 C247 1.425 1_554 S
C242 C249 1.409 . S
C243 H235 0.930 . S
C243 C241 1.419 . S
C243 C244 1.362 . S
C244 H236 0.930 . S
C244 C243 1.362 . S
C244 C247 1.409 . S
C245 H237 0.930 . S
C245 C246 1.355 . S
C245 C247 1.415 . S
C246 C245 1.355 . S
C246 C248 1.419 1_556 S
C247 C242 1.425 1_556 S
C247 C244 1.409 . S
C247 C245 1.415 . S
C248 H238 0.930 . S
C248 C246 1.419 1_554 S
C248 C249 1.362 . S
C249 H239 0.930 . S
C249 C242 1.409 . S
C249 C248 1.362 . S
H250 C256 0.930 . S
H251 C259 0.930 . S
H252 C260 0.930 . S
H253 C261 0.930 . S
H254 C264 0.930 . S
H255 C265 0.930 . S
C256 H250 0.930 . S
C256 C257 1.355 . S
C256 C258 1.415 . S
C257 C256 1.355 . S
C257 C259 1.419 . S
C258 C256 1.415 . S
C258 C263 1.425 . S
C258 C265 1.409 . S
C259 H251 0.930 . S
C259 C257 1.419 . S
C259 C260 1.362 . S
C260 H252 0.930 . S
C260 C259 1.362 . S
C260 C263 1.409 . S
C261 H253 0.930 . S
C261 C262 1.355 . S
C261 C263 1.415 . S
C262 C261 1.355 . S
C262 C264 1.419 . S
C263 C258 1.425 . S
C263 C260 1.409 . S
C263 C261 1.415 . S
C264 H254 0.930 . S
C264 C262 1.419 . S
C264 C265 1.362 . S
C265 H255 0.930 . S
C265 C258 1.409 . S
C265 C264 1.362 . S
H266 C272 0.930 . S
H267 C275 0.930 . S
H268 C276 0.930 . S
H269 C277 0.930 . S
H270 C280 0.930 . S
H271 C281 0.930 . S
C272 H266 0.930 . S
C272 C273 1.355 . S
C272 C274 1.415 . S
C273 C272 1.355 . S
C273 C275 1.419 . S
C274 C272 1.415 . S
C274 C279 1.425 . S
C274 C281 1.409 . S
C275 H267 0.930 . S
C275 C273 1.419 . S
C275 C276 1.362 . S
C276 H268 0.930 . S
C276 C275 1.362 . S
C276 C279 1.409 . S
C277 H269 0.930 . S
C277 C278 1.355 . S
C277 C279 1.415 . S
C278 C277 1.355 . S
C278 C280 1.419 . S
C279 C274 1.425 . S
C279 C276 1.409 . S
C279 C277 1.415 . S
C280 H270 0.930 . S
C280 C278 1.419 . S
C280 C281 1.362 . S
C281 H271 0.930 . S
C281 C274 1.409 . S
C281 C280 1.362 . S
H282 C288 0.930 . S
H283 C291 0.930 . S
H284 C292 0.930 . S
H285 C293 0.930 . S
H286 C296 0.930 . S
H287 C297 0.930 . S
C288 H282 0.930 . S
C288 C289 1.355 . S
C288 C290 1.415 . S
C289 C288 1.355 . S
C289 C291 1.419 . S
C290 C288 1.415 . S
C290 C295 1.425 . S
C290 C297 1.409 . S
C291 H283 0.930 . S
C291 C289 1.419 . S
C291 C292 1.362 . S
C292 H284 0.930 . S
C292 C291 1.362 . S
C292 C295 1.409 . S
C293 H285 0.930 . S
C293 C294 1.355 . S
C293 C295 1.415 . S
C294 C293 1.355 . S
C294 C296 1.419 . S
C295 C290 1.425 . S
C295 C292 1.409 . S
C295 C293 1.415 . S
C296 H286 0.930 . S
C296 C294 1.419 . S
C296 C297 1.362 . S
C297 H287 0.930 . S
C297 C290 1.409 . S
C297 C296 1.362 . S
H298 C304 0.930 . S
H299 C307 0.930 . S
H300 C308 0.930 . S
H301 C309 0.930 . S
H302 C312 0.930 . S
H303 C313 0.930 . S
C304 H298 0.930 . S
C304 C305 1.355 . S
C304 C306 1.415 . S
C305 C304 1.355 . S
C305 C307 1.419 . S
C306 C304 1.415 . S
C306 C311 1.425 . S
C306 C313 1.409 . S
C307 H299 0.930 . S
C307 C305 1.419 . S
C307 C308 1.362 . S
C308 H300 0.930 . S
C308 C307 1.362 . S
C308 C311 1.409 . S
C309 H301 0.930 . S
C309 C310 1.355 . S
C309 C311 1.415 . S
C310 C309 1.355 . S
C310 C312 1.419 . S
C311 C306 1.425 . S
C311 C308 1.409 . S
C311 C309 1.415 . S
C312 H302 0.930 . S
C312 C310 1.419 . S
C312 C313 1.362 . S
C313 H303 0.930 . S
C313 C306 1.409 . S
C313 C312 1.362 . S
H314 C320 0.930 . S
H315 C323 0.930 1_655 S
H316 C324 0.930 . S
H317 C325 0.930 1_655 S
H318 C328 0.930 . S
H319 C329 0.930 . S
C320 H314 0.930 . S
C320 C321 1.355 . S
C320 C322 1.415 . S
C321 C320 1.355 . S
C321 C323 1.419 1_545 S
C322 C320 1.415 . S
C322 C327 1.425 1_545 S
C322 C329 1.409 . S
C323 H315 0.930 1_455 S
C323 C321 1.419 1_565 S
C323 C324 1.362 1_455 S
C324 H316 0.930 . S
C324 C323 1.362 1_655 S
C324 C327 1.409 1_655 S
C325 H317 0.930 1_455 S
C325 C326 1.355 1_565 S
C325 C327 1.415 . S
C326 C325 1.355 1_545 S
C326 C328 1.419 . S
C327 C322 1.425 1_565 S
C327 C324 1.409 1_455 S
C327 C325 1.415 . S
C328 H318 0.930 . S
C328 C326 1.419 . S
C328 C329 1.362 . S
C329 H319 0.930 . S
C329 C322 1.409 . S
C329 C328 1.362 . S
H330 C336 0.930 1_655 S
H331 C339 0.918 1_565 S
H332 C340 0.930 1_565 S
H333 C341 0.930 . S
H334 C344 0.930 . S
H335 C345 0.930 . S
C336 H330 0.930 1_455 S
C336 C337 1.355 . S
C336 C338 1.415 . S
C337 C336 1.355 . S
C337 C339 1.429 . S
C338 C336 1.415 . S
C338 C343 1.425 . S
C338 C345 1.409 1_455 S
C339 H331 0.918 1_545 S
C339 C337 1.429 . S
C339 C340 1.364 . S
C340 H332 0.930 1_545 S
C340 C339 1.364 . S
C340 C343 1.409 . S
C341 H333 0.930 . S
C341 C342 1.355 . S
C341 C343 1.415 . S
C342 C341 1.355 . S
C342 C344 1.419 1_455 S
C343 C338 1.425 . S
C343 C340 1.409 . S
C343 C341 1.415 . S
C344 H334 0.930 . S
C344 C342 1.419 1_655 S
C344 C345 1.362 . S
C345 H335 0.930 . S
C345 C338 1.409 1_655 S
C345 C344 1.362 . S
H346 C352 0.930 . S
H347 C355 0.930 . S
H348 C356 0.930 . S
H349 C357 0.930 . S
H350 C360 0.930 . S
H351 C361 0.930 . S
C352 H346 0.930 . S
C352 C353 1.355 . S
C352 C354 1.415 . S
C353 C352 1.355 . S
C353 C355 1.419 . S
C354 C352 1.415 . S
C354 C359 1.425 . S
C354 C361 1.409 . S
C355 H347 0.930 . S
C355 C353 1.419 . S
C355 C356 1.362 . S
C356 H348 0.930 . S
C356 C355 1.362 . S
C356 C359 1.409 . S
C357 H349 0.930 . S
C357 C358 1.355 . S
C357 C359 1.415 . S
C358 C357 1.355 . S
C358 C360 1.419 . S
C359 C354 1.425 . S
C359 C356 1.409 . S
C359 C357 1.415 . S
C360 H350 0.930 . S
C360 C358 1.419 . S
C360 C361 1.362 . S
C361 H351 0.930 . S
C361 C354 1.409 . S
C361 C360 1.362 . S
H362 C368 0.930 . S
H363 C371 0.930 . S
H364 C372 0.930 . S
H365 C373 0.930 . S
H366 C376 0.930 . S
H367 C377 0.930 . S
C368 H362 0.930 . S
C368 C369 1.355 . S
C368 C370 1.415 . S
C369 C368 1.355 . S
C369 C371 1.419 . S
C370 C368 1.415 . S
C370 C375 1.425 . S
C370 C377 1.409 . S
C371 H363 0.930 . S
C371 C369 1.419 . S
C371 C372 1.362 . S
C372 H364 0.930 . S
C372 C371 1.362 . S
C372 C375 1.409 . S
C373 H365 0.930 . S
C373 C374 1.355 . S
C373 C375 1.415 . S
C374 C373 1.355 . S
C374 C376 1.419 . S
C375 C370 1.425 . S
C375 C372 1.409 . S
C375 C373 1.415 . S
C376 H366 0.930 . S
C376 C374 1.419 . S
C376 C377 1.362 . S
C377 H367 0.930 . S
C377 C370 1.409 . S
C377 C376 1.362 . S
C198 C151 1.521 . S
C193 C15 1.370 . S
C209 C13 1.579 . S
C214 C115 1.531 . S
C225 C18 1.279 . S
C230 C175 1.454 . S
C241 C17 1.344 . S
C246 C139 1.416 . S
C257 C36 1.382 . S
C262 C79 1.521 . S
C273 C34 1.572 . S
C278 C43 1.520 . S
C294 C103 1.455 . S
C289 C39 1.282 . S
C310 C67 1.359 . S
C305 C38 1.342 . S
C321 C14 1.537 . S
C326 C73 1.531 1_545 S
C337 C16 1.397 . S
C342 C109 1.447 . S
C358 C145 1.543 . S
C353 C35 1.537 . S
C369 C37 1.347 . S
C374 C181 1.406 . S
