# Generated by pormake.
# Topology anh, (6,3)-cn, num edge types: 1
# Building blocks:
#     Node 0, Type 0, BuildingBlock: CUKXOW_clean_sbu_0, # of connection points: 6
#     Node 1, Type 0, BuildingBlock: CUKXOW_clean_sbu_0, # of connection points: 6
#     Node 2, Type 0, BuildingBlock: CUKXOW_clean_sbu_0, # of connection points: 6
#     Node 3, Type 1, BuildingBlock: ESEHIV_clean_linker_0, # of connection points: 3
#     Node 4, Type 1, BuildingBlock: ESEHIV_clean_linker_0, # of connection points: 3
#     Node 5, Type 1, BuildingBlock: ESEHIV_clean_linker_0, # of connection points: 3
#     Node 6, Type 1, BuildingBlock: ESEHIV_clean_linker_0, # of connection points: 3
#     Node 7, Type 1, BuildingBlock: ESEHIV_clean_linker_0, # of connection points: 3
#     Node 8, Type 1, BuildingBlock: ESEHIV_clean_linker_0, # of connection points: 3
#     Edge 9, Type (0, 1), BuildingBlock: MIFKUJ_clean_linker_0, # of connection points: 2
#     Edge 10, Type (0, 1), BuildingBlock: MIFKUJ_clean_linker_0, # of connection points: 2
#     Edge 11, Type (0, 1), BuildingBlock: MIFKUJ_clean_linker_0, # of connection points: 2
#     Edge 12, Type (0, 1), BuildingBlock: MIFKUJ_clean_linker_0, # of connection points: 2
#     Edge 13, Type (0, 1), BuildingBlock: MIFKUJ_clean_linker_0, # of connection points: 2
#     Edge 14, Type (0, 1), BuildingBlock: MIFKUJ_clean_linker_0, # of connection points: 2
#     Edge 15, Type (0, 1), BuildingBlock: MIFKUJ_clean_linker_0, # of connection points: 2
#     Edge 16, Type (0, 1), BuildingBlock: MIFKUJ_clean_linker_0, # of connection points: 2
#     Edge 17, Type (0, 1), BuildingBlock: MIFKUJ_clean_linker_0, # of connection points: 2
#     Edge 18, Type (0, 1), BuildingBlock: MIFKUJ_clean_linker_0, # of connection points: 2
#     Edge 19, Type (0, 1), BuildingBlock: MIFKUJ_clean_linker_0, # of connection points: 2
#     Edge 20, Type (0, 1), BuildingBlock: MIFKUJ_clean_linker_0, # of connection points: 2
#     Edge 21, Type (0, 1), BuildingBlock: MIFKUJ_clean_linker_0, # of connection points: 2
#     Edge 22, Type (0, 1), BuildingBlock: MIFKUJ_clean_linker_0, # of connection points: 2
#     Edge 23, Type (0, 1), BuildingBlock: MIFKUJ_clean_linker_0, # of connection points: 2
#     Edge 24, Type (0, 1), BuildingBlock: MIFKUJ_clean_linker_0, # of connection points: 2
#     Edge 25, Type (0, 1), BuildingBlock: MIFKUJ_clean_linker_0, # of connection points: 2
#     Edge 26, Type (0, 1), BuildingBlock: MIFKUJ_clean_linker_0, # of connection points: 2
# Relax obj value: 0.134
# Max RMSD: 0.194
# Mean RMSD: 0.139
data_MOF--net-anh--node1-CUKXOW_clean_sbu_0--node2-ESEHIV_clean_linker_0--edge1-MIFKUJ_clean_linker_0
_symmetry_space_group_name_H-M    P1
_symmetry_Int_Tables_number       1
_symmetry_cell_setting            triclinic
loop_
_symmetry_equiv_pos_as_xyz
'x, y, z'
_cell_length_a     35.709046
_cell_length_b     34.672917
_cell_length_c     65.944065
_cell_angle_alpha  95.516812
_cell_angle_beta   89.972639
_cell_angle_gamma 115.48668
loop_
_atom_site_label
_atom_site_type_symbol
_atom_site_fract_x
_atom_site_fract_y
_atom_site_fract_z
_atom_type_partial_charge
Tb0 Tb 0.07923 0.54493 0.15478 0.0
C1 C 0.05278 0.49942 0.19519 0.0
Tb2 Tb 0.02166 0.44675 0.15182 0.0
O3 O 0.02874 0.55704 0.14247 0.0
O4 O 0.01493 0.50481 0.15891 0.0
O5 O 0.08014 0.53277 0.18659 0.0
C6 C 0.9525 0.37383 0.15051 0.0
O7 O 0.02452 0.46455 0.18452 0.0
C8 C 0.10148 0.46112 0.15027 0.0
C9 C 0.05217 0.49175 0.11165 0.0
O10 O 0.98598 0.38297 0.16152 0.0
O11 O 0.95822 0.40552 0.13996 0.0
O12 O 0.07036 0.42313 0.14863 0.0
O13 O 0.08551 0.48734 0.15235 0.0
O14 O 0.02343 0.45894 0.11997 0.0
O15 O 0.0803 0.52635 0.12252 0.0
C16 C 0.14318 0.62258 0.15975 0.0
O17 O 0.14255 0.58933 0.14864 0.0
O18 O 0.10767 0.61218 0.16814 0.0
C19 C 0.99883 0.52278 0.14824 0.0
Tb20 Tb 0.50874 0.01024 0.51122 0.0
C21 C 0.55759 0.03936 0.47086 0.0
Tb22 Tb 0.59867 0.07912 0.51467 0.0
O23 O 0.48565 0.05897 0.51909 0.0
O24 O 0.54089 0.0745 0.50442 0.0
O25 O 0.52618 0.00904 0.4793 0.0
C26 C 0.66619 0.15408 0.51961 0.0
O27 O 0.58641 0.07329 0.48189 0.0
C28 C 0.58888 0.99927 0.51176 0.0
C29 C 0.55073 0.04785 0.5549 0.0
O30 O 0.66583 0.11707 0.51382 0.0
O31 O 0.62861 0.14867 0.52309 0.0
O32 O 0.62163 0.03059 0.50585 0.0
O33 O 0.56665 0.01456 0.52089 0.0
O34 O 0.58128 0.07955 0.54672 0.0
O35 O 0.52268 0.01367 0.54369 0.0
C36 C 0.44017 0.93676 0.5044 0.0
O37 O 0.44207 0.97211 0.51393 0.0
O38 O 0.47683 0.94279 0.49863 0.0
C39 C 0.51831 0.09 0.51298 0.0
Tb40 Tb 0.52234 0.53894 0.83107 0.0
C41 C 0.56741 0.54371 0.87319 0.0
Tb42 Tb 0.61566 0.55003 0.8318 0.0
O43 O 0.4997 0.47185 0.83762 0.0
O44 O 0.55513 0.50213 0.8228 0.0
O45 O 0.53552 0.5459 0.86377 0.0
C46 C 0.67297 0.52096 0.83116 0.0
O47 O 0.59997 0.54259 0.86371 0.0
C48 C 0.6095 0.62373 0.83701 0.0
C49 C 0.57195 0.54971 0.79003 0.0
O50 O 0.63833 0.50481 0.84038 0.0
O51 O 0.67634 0.55485 0.82286 0.0
O52 O 0.64534 0.62197 0.83692 0.0
O53 O 0.5826 0.58568 0.83524 0.0
O54 O 0.60233 0.54418 0.79909 0.0
O55 O 0.54012 0.55169 0.79983 0.0
C56 C 0.46192 0.56295 0.82814 0.0
O57 O 0.46079 0.52721 0.81926 0.0
O58 O 0.49597 0.5838 0.83924 0.0
C59 C 0.53271 0.46859 0.83085 0.0
H60 H 0.48566 0.98421 0.24959 0.0
H61 H 0.61125 0.08173 0.24999 0.0
H62 H 0.53895 0.03096 0.19341 0.0
C63 C 0.5117 0.00543 0.24154 0.0
C64 C 0.50788 1.00429 0.22028 0.0
C65 C 0.54887 0.03304 0.25245 0.0
C66 C 0.58235 0.06033 0.24177 0.0
C67 C 0.57896 0.06009 0.2205 0.0
C68 C 0.54161 0.03185 0.20984 0.0
H69 H 0.56035 0.61716 0.57147 0.0
H70 H 0.5604 0.4929 0.56877 0.0
H71 H 0.5506 0.5445 0.51326 0.0
C72 C 0.5589 0.58845 0.56263 0.0
C73 C 0.55516 0.58478 0.54124 0.0
C74 C 0.56155 0.55583 0.57268 0.0
C75 C 0.55965 0.51893 0.56113 0.0
C76 C 0.55553 0.51454 0.53979 0.0
C77 C 0.55409 0.5479 0.52975 0.0
H78 H 0.98989 0.46013 0.88929 0.0
H79 H 0.12137 0.54096 0.89423 0.0
H80 H 0.05607 0.50791 0.83585 0.0
C81 C 0.01887 0.47777 0.88218 0.0
C82 C 0.01871 0.48074 0.8611 0.0
C83 C 0.05569 0.4996 0.89434 0.0
C84 C 0.09253 0.52461 0.88512 0.0
C85 C 0.09272 0.52772 0.86408 0.0
C86 C 0.0559 0.50537 0.85212 0.0
H87 H 0.95845 0.48638 0.41574 0.0
H88 H 0.0826 0.58594 0.41467 0.0
H89 H 0.02822 0.55122 0.47204 0.0
C90 C 0.9863 0.51059 0.42381 0.0
C91 C 0.98901 0.51541 0.44532 0.0
C92 C 0.01967 0.53642 0.41262 0.0
C93 C 0.05624 0.56656 0.42313 0.0
C94 C 0.05948 0.5718 0.44448 0.0
C95 C 0.02563 0.54677 0.45552 0.0
H96 H 0.56747 0.09993 0.77647 0.0
H97 H 0.54703 0.96802 0.77221 0.0
H98 H 0.57107 0.04274 0.83101 0.0
C99 C 0.56464 0.07209 0.78373 0.0
C100 C 0.56994 0.07583 0.80501 0.0
C101 C 0.55581 0.03332 0.77176 0.0
C102 C 0.55324 0.99794 0.7814 0.0
C103 C 0.55896 1.00077 0.80275 0.0
C104 C 0.567 0.04001 0.81457 0.0
H105 H 0.49373 0.50699 0.09321 0.0
H106 H 0.61488 0.50902 0.09115 0.0
H107 H 0.55231 0.49475 0.14779 0.0
C108 C 0.51976 0.50499 0.10071 0.0
C109 C 0.5182 0.49961 0.12157 0.0
C110 C 0.55441 0.50858 0.08956 0.0
C111 C 0.58832 0.50718 0.0997 0.0
C112 C 0.58856 0.50272 0.12066 0.0
C113 C 0.55285 0.49835 0.13164 0.0
H114 H 0.13139 0.40277 0.1391 0.0
H115 H 0.20318 0.41283 0.13746 0.0
H116 H 0.24592 0.5478 0.15697 0.0
H117 H 0.17329 0.53766 0.15845 0.0
H118 H 0.29435 0.53714 0.12772 0.0
H119 H 0.24829 0.4754 0.18993 0.0
H120 H 0.20163 0.42325 0.21202 0.0
H121 H 0.21952 0.32155 0.17743 0.0
H122 H 0.26586 0.373 0.15494 0.0
H123 H 0.50267 0.56392 0.14144 0.0
H124 H 0.43448 0.56118 0.14969 0.0
H125 H 0.3768 0.42515 0.13047 0.0
H126 H 0.44504 0.428 0.12249 0.0
H127 H 0.33792 0.44122 0.16235 0.0
H128 H 0.38032 0.50203 0.099 0.0
H129 H 0.42697 0.55385 0.07677 0.0
H130 H 0.41591 0.65727 0.11356 0.0
H131 H 0.3697 0.60609 0.13621 0.0
C132 C 0.15596 0.43473 0.14303 0.0
C133 C 0.14626 0.46943 0.14884 0.0
C134 C 0.19729 0.44043 0.14219 0.0
C135 C 0.23062 0.48098 0.14743 0.0
C136 C 0.22111 0.51606 0.15288 0.0
C137 C 0.17945 0.51032 0.15367 0.0
C138 C 0.27493 0.48613 0.14716 0.0
C139 C 0.30396 0.51665 0.13563 0.0
C140 C 0.28795 0.45904 0.15709 0.0
C141 C 0.26031 0.42803 0.17065 0.0
C142 C 0.24207 0.44187 0.18695 0.0
C143 C 0.2157 0.41244 0.19956 0.0
C144 C 0.20755 0.3691 0.19611 0.0
C145 C 0.22584 0.35513 0.18008 0.0
C146 C 0.2522 0.38442 0.16741 0.0
C147 C 0.4756 0.53318 0.13972 0.0
C148 C 0.47952 0.49596 0.13184 0.0
C149 C 0.43638 0.5317 0.14411 0.0
C150 C 0.39984 0.49304 0.14043 0.0
C151 C 0.40411 0.45546 0.13351 0.0
C152 C 0.4433 0.45698 0.12912 0.0
C153 C 0.3572 0.49189 0.14274 0.0
C154 C 0.32843 0.46201 0.1546 0.0
C155 C 0.34446 0.51956 0.13313 0.0
C156 C 0.37193 0.5503 0.11943 0.0
C157 C 0.38808 0.53586 0.10244 0.0
C158 C 0.41441 0.56511 0.08975 0.0
C159 C 0.42448 0.60884 0.09378 0.0
C160 C 0.40814 0.62339 0.11048 0.0
C161 C 0.38188 0.59428 0.12324 0.0
H162 H 0.44487 0.63144 0.08394 0.0
H163 H 0.18712 0.34637 0.20588 0.0
H164 H 0.74462 0.16846 0.50988 0.0
H165 H 0.80027 0.23614 0.50166 0.0
H166 H 0.72297 0.3012 0.51675 0.0
H167 H 0.66719 0.23346 0.52513 0.0
H168 H 0.79294 0.27976 0.47097 0.0
H169 H 0.78864 0.40827 0.53151 0.0
H170 H 0.77162 0.41544 0.56755 0.0
H171 H 0.80553 0.31491 0.57978 0.0
H172 H 0.8232 0.30751 0.5439 0.0
H173 H 0.905 0.48484 0.43751 0.0
H174 H 0.84917 0.42957 0.45427 0.0
H175 H 0.93885 0.42506 0.49655 0.0
H176 H 0.99498 0.47903 0.47953 0.0
H177 H 0.86195 0.41872 0.51445 0.0
H178 H 0.91305 0.35673 0.45767 0.0
H179 H 0.93035 0.34983 0.42169 0.0
H180 H 0.80397 0.31506 0.40256 0.0
H181 H 0.78611 0.32246 0.43844 0.0
C182 C 0.73986 0.19738 0.51186 0.0
C183 C 0.70172 0.19585 0.51809 0.0
C184 C 0.77154 0.23594 0.50709 0.0
C185 C 0.76568 0.2736 0.50855 0.0
C186 C 0.72825 0.27257 0.5157 0.0
C187 C 0.69647 0.23392 0.52048 0.0
C188 C 0.79743 0.31282 0.50093 0.0
C189 C 0.80796 0.31011 0.48051 0.0
C190 C 0.81673 0.35249 0.5133 0.0
C191 C 0.8069 0.35713 0.53499 0.0
C192 C 0.79263 0.38784 0.54192 0.0
C193 C 0.78282 0.3919 0.56231 0.0
C194 C 0.78737 0.36556 0.57592 0.0
C195 C 0.80187 0.33519 0.5692 0.0
C196 C 0.81173 0.331 0.54883 0.0
C197 C 0.91289 0.47223 0.45041 0.0
C198 C 0.95458 0.48606 0.45699 0.0
C199 C 0.88091 0.44101 0.46009 0.0
C200 C 0.89003 0.42328 0.47658 0.0
C201 C 0.93125 0.43869 0.48394 0.0
C202 C 0.96329 0.4696 0.47417 0.0
C203 C 0.8574 0.38533 0.48461 0.0
C204 C 0.84662 0.38835 0.50497 0.0
C205 C 0.83778 0.34576 0.47223 0.0
C206 C 0.84836 0.34057 0.4507 0.0
C207 C 0.88903 0.34791 0.44578 0.0
C208 C 0.89893 0.34388 0.42541 0.0
C209 C 0.8683 0.33212 0.40984 0.0
C210 C 0.82768 0.32423 0.41463 0.0
C211 C 0.81765 0.32832 0.43497 0.0
H212 H 0.87603 0.32904 0.39408 0.0
H213 H 0.77973 0.36873 0.59169 0.0
H214 H 0.65367 0.70417 0.85669 0.0
H215 H 0.64104 0.76816 0.85453 0.0
H216 H 0.53698 0.69423 0.81223 0.0
H217 H 0.54947 0.63064 0.81442 0.0
H218 H 0.59191 0.77277 0.79913 0.0
H219 H 0.51345 0.71927 0.85653 0.0
H220 H 0.49961 0.69103 0.89002 0.0
H221 H 0.59547 0.80913 0.91834 0.0
H222 H 0.61023 0.83786 0.88491 0.0
H223 H 0.50296 0.91669 0.79429 0.0
H224 H 0.50893 0.85321 0.8039 0.0
H225 H 0.61817 0.93415 0.84178 0.0
H226 H 0.61287 0.99826 0.83187 0.0
H227 H 0.56051 0.8526 0.85814 0.0
H228 H 0.63509 0.90469 0.79753 0.0
H229 H 0.64049 0.92904 0.76327 0.0
H230 H 0.5426 0.80733 0.74006 0.0
H231 H 0.53609 0.78255 0.7743 0.0
C232 C 0.62798 0.70168 0.84706 0.0
C233 C 0.60202 0.66232 0.83604 0.0
C234 C 0.62067 0.7381 0.8459 0.0
C235 C 0.58783 0.73591 0.83334 0.0
C236 C 0.56231 0.69667 0.82211 0.0
C237 C 0.56921 0.66022 0.82354 0.0
C238 C 0.58105 0.77487 0.83125 0.0
C239 C 0.58474 0.78997 0.81202 0.0
C240 C 0.57185 0.7975 0.84805 0.0
C241 C 0.56333 0.78048 0.86819 0.0
C242 C 0.53189 0.73903 0.86987 0.0
C243 C 0.52378 0.72298 0.88884 0.0
C244 C 0.54675 0.74821 0.90629 0.0
C245 C 0.57777 0.78959 0.9048 0.0
C246 C 0.58599 0.8058 0.88584 0.0
C247 C 0.52801 0.9211 0.80488 0.0
C248 C 0.55788 0.96266 0.81202 0.0
C249 C 0.53125 0.88471 0.81043 0.0
C250 C 0.56431 0.88891 0.82334 0.0
C251 C 0.59241 0.93017 0.83179 0.0
C252 C 0.58928 0.96679 0.82614 0.0
C253 C 0.57176 0.85058 0.82606 0.0
C254 C 0.56809 0.83556 0.84534 0.0
C255 C 0.58025 0.82744 0.80921 0.0
C256 C 0.58487 0.84192 0.78852 0.0
C257 C 0.61454 0.88323 0.78515 0.0
C258 C 0.61781 0.8971 0.76574 0.0
C259 C 0.59184 0.86979 0.74951 0.0
C260 C 0.56266 0.82847 0.75265 0.0
C261 C 0.55918 0.81449 0.77206 0.0
H262 H 0.5944 0.8806 0.73449 0.0
H263 H 0.54043 0.73573 0.92097 0.0
H264 H 0.96574 0.57029 0.13123 0.0
H265 H 0.89411 0.56145 0.13075 0.0
H266 H 0.8575 0.44825 0.1622 0.0
H267 H 0.93005 0.45763 0.16317 0.0
H268 H 0.79991 0.43994 0.12866 0.0
H269 H 0.86445 0.53402 0.18903 0.0
H270 H 0.91931 0.59635 0.20917 0.0
H271 H 0.8992 0.68177 0.17223 0.0
H272 H 0.84459 0.61989 0.15167 0.0
H273 H 0.59909 0.44042 0.14016 0.0
H274 H 0.66531 0.43821 0.14877 0.0
H275 H 0.73239 0.56451 0.12939 0.0
H276 H 0.66678 0.56682 0.12114 0.0
H277 H 0.77234 0.55968 0.16117 0.0
H278 H 0.71361 0.46815 0.09898 0.0
H279 H 0.66097 0.40737 0.07702 0.0
H280 H 0.67182 0.3187 0.11517 0.0
H281 H 0.72419 0.37905 0.13748 0.0
C282 C 0.94259 0.54337 0.13804 0.0
C283 C 0.95399 0.51475 0.14727 0.0
C284 C 0.90142 0.53837 0.13777 0.0
C285 C 0.87002 0.50436 0.14657 0.0
C286 C 0.88093 0.47482 0.15531 0.0
C287 C 0.92251 0.48019 0.15584 0.0
C288 C 0.82648 0.50106 0.14693 0.0
C289 C 0.79368 0.4657 0.13613 0.0
C290 C 0.8181 0.53494 0.15628 0.0
C291 C 0.85062 0.57228 0.16872 0.0
C292 C 0.87192 0.56608 0.18511 0.0
C293 C 0.90294 0.60134 0.19662 0.0
C294 C 0.91279 0.64299 0.19196 0.0
C295 C 0.89155 0.64948 0.17582 0.0
C296 C 0.86052 0.61433 0.16425 0.0
C297 C 0.628 0.46813 0.13831 0.0
C298 C 0.62748 0.50396 0.13012 0.0
C299 C 0.66601 0.46665 0.14295 0.0
C300 C 0.70446 0.50094 0.13947 0.0
C301 C 0.70365 0.5375 0.13227 0.0
C302 C 0.66592 0.53888 0.12759 0.0
C303 C 0.74557 0.49889 0.14252 0.0
C304 C 0.77815 0.53346 0.15393 0.0
C305 C 0.75374 0.46445 0.13354 0.0
C306 C 0.72226 0.42816 0.12013 0.0
C307 C 0.70445 0.43572 0.10281 0.0
C308 C 0.67473 0.40134 0.09026 0.0
C309 C 0.66289 0.3592 0.09475 0.0
C310 C 0.68088 0.35136 0.11175 0.0
C311 C 0.71057 0.38565 0.12436 0.0
H312 H 0.6399 0.33262 0.08502 0.0
H313 H 0.93683 0.67025 0.20088 0.0
H314 H 0.36274 0.92052 0.51688 0.0
H315 H 0.29907 0.85409 0.50942 0.0
H316 H 0.36836 0.79588 0.47549 0.0
H317 H 0.43218 0.8624 0.48288 0.0
H318 H 0.29726 0.7847 0.45471 0.0
H319 H 0.3363 0.76657 0.52144 0.0
H320 H 0.35719 0.78839 0.55791 0.0
H321 H 0.24228 0.79667 0.56913 0.0
H322 H 0.22096 0.77555 0.53265 0.0
H323 H 0.13684 0.578 0.43812 0.0
H324 H 0.20286 0.63577 0.45183 0.0
H325 H 0.13682 0.69523 0.48762 0.0
H326 H 0.07047 0.63666 0.47423 0.0
H327 H 0.20724 0.70434 0.50809 0.0
H328 H 0.16974 0.72712 0.44183 0.0
H329 H 0.14769 0.70599 0.40545 0.0
H330 H 0.25904 0.69081 0.3934 0.0
H331 H 0.28147 0.71123 0.42982 0.0
C332 C 0.36436 0.89345 0.50792 0.0
C333 C 0.4022 0.89643 0.50042 0.0
C334 C 0.32808 0.85552 0.50375 0.0
C335 C 0.32913 0.82001 0.49205 0.0
C336 C 0.36698 0.82295 0.48458 0.0
C337 C 0.40332 0.86084 0.48882 0.0
C338 C 0.29041 0.78037 0.48699 0.0
C339 C 0.27793 0.76671 0.46637 0.0
C340 C 0.26471 0.7577 0.50225 0.0
C341 C 0.2772 0.76984 0.52426 0.0
C342 C 0.31561 0.77335 0.53165 0.0
C343 C 0.32751 0.78555 0.55234 0.0
C344 C 0.30113 0.79402 0.56582 0.0
C345 C 0.26271 0.79015 0.55866 0.0
C346 C 0.25068 0.77802 0.53799 0.0
C347 C 0.1365 0.60311 0.44915 0.0
C348 C 0.09879 0.6034 0.45495 0.0
C349 C 0.17413 0.63602 0.45696 0.0
C350 C 0.17467 0.67022 0.47039 0.0
C351 C 0.13702 0.66919 0.47721 0.0
C352 C 0.09924 0.63587 0.46956 0.0
C353 C 0.21428 0.70864 0.47583 0.0
C354 C 0.22677 0.72219 0.49646 0.0
C355 C 0.23995 0.73151 0.46059 0.0
C356 C 0.22712 0.72036 0.43858 0.0
C357 C 0.18944 0.71909 0.43144 0.0
C358 C 0.17687 0.70723 0.41082 0.0
C359 C 0.20192 0.697 0.39713 0.0
C360 C 0.23967 0.69873 0.40403 0.0
C361 C 0.25234 0.71048 0.42466 0.0
H362 H 0.19213 0.68783 0.38117 0.0
H363 H 0.31042 0.80351 0.58183 0.0
H364 H 0.49614 0.40129 0.8536 0.0
H365 H 0.50885 0.33719 0.85343 0.0
H366 H 0.60025 0.38488 0.8081 0.0
H367 H 0.58697 0.44853 0.80799 0.0
H368 H 0.55407 0.30413 0.7978 0.0
H369 H 0.63007 0.38339 0.85905 0.0
H370 H 0.64164 0.42663 0.89237 0.0
H371 H 0.54359 0.32052 0.91682 0.0
H372 H 0.53075 0.27715 0.88341 0.0
H373 H 0.63346 0.15368 0.80123 0.0
H374 H 0.63369 0.2237 0.81084 0.0
H375 H 0.52116 0.16276 0.84275 0.0
H376 H 0.5209 0.0923 0.83311 0.0
H377 H 0.58115 0.251 0.86091 0.0
H378 H 0.50668 0.17332 0.79686 0.0
H379 H 0.50244 0.13249 0.76352 0.0
H380 H 0.60813 0.2398 0.74464 0.0
H381 H 0.6131 0.2812 0.77797 0.0
C382 C 0.51903 0.39809 0.84366 0.0
C383 C 0.54084 0.43009 0.83096 0.0
C384 C 0.52656 0.3616 0.84369 0.0
C385 C 0.55608 0.35631 0.831 0.0
C386 C 0.57747 0.38812 0.81811 0.0
C387 C 0.57002 0.42464 0.81813 0.0
C388 C 0.56333 0.31683 0.83053 0.0
C389 C 0.56053 0.29303 0.81163 0.0
C390 C 0.57144 0.30168 0.8485 0.0
C391 C 0.57904 0.32736 0.86865 0.0
C392 C 0.61064 0.36957 0.87146 0.0
C393 C 0.6175 0.39402 0.89037 0.0
C394 C 0.59331 0.37636 0.90671 0.0
C395 C 0.56225 0.33419 0.90415 0.0
C396 C 0.55514 0.30967 0.88521 0.0
C397 C 0.60972 0.15544 0.81101 0.0
C398 C 0.57715 0.11763 0.81644 0.0
C399 C 0.60976 0.19542 0.8164 0.0
C400 C 0.57711 0.19839 0.82725 0.0
C401 C 0.54668 0.16119 0.8344 0.0
C402 C 0.54664 0.12099 0.82899 0.0
C403 C 0.57159 0.23869 0.82829 0.0
C404 C 0.5747 0.26242 0.84719 0.0
C405 C 0.56448 0.2543 0.8103 0.0
C406 C 0.56041 0.23022 0.78993 0.0
C407 C 0.52905 0.18816 0.7856 0.0
C408 C 0.52654 0.1649 0.76672 0.0
C409 C 0.55512 0.18343 0.75199 0.0
C410 C 0.58605 0.22544 0.75606 0.0
C411 C 0.58865 0.24887 0.77493 0.0
H412 H 0.55324 0.16526 0.73741 0.0
H413 H 0.5987 0.39532 0.92136 0.0
H414 H 0.63556 0.96213 0.49338 0.0
H415 H 0.62607 0.88785 0.49406 0.0
H416 H 0.51753 0.86061 0.52944 0.0
H417 H 0.52735 0.93478 0.52911 0.0
H418 H 0.56862 0.83326 0.54601 0.0
H419 H 0.50895 0.8216 0.47932 0.0
H420 H 0.50763 0.84181 0.44458 0.0
H421 H 0.61158 0.81448 0.43013 0.0
H422 H 0.61392 0.79466 0.46491 0.0
H423 H 0.4961 0.61356 0.54683 0.0
H424 H 0.49754 0.68012 0.5366 0.0
H425 H 0.60927 0.7031 0.5045 0.0
H426 H 0.60716 0.63551 0.51434 0.0
H427 H 0.55783 0.73235 0.48514 0.0
H428 H 0.61748 0.74507 0.55232 0.0
H429 H 0.61758 0.72411 0.587 0.0
H430 H 0.51271 0.75045 0.60056 0.0
H431 H 0.51148 0.77077 0.5658 0.0
C432 C 0.60957 0.94014 0.50118 0.0
C433 C 0.5822 0.95413 0.51119 0.0
C434 C 0.60403 0.89769 0.50147 0.0
C435 C 0.57091 0.86856 0.51168 0.0
C436 C 0.54328 0.88249 0.52146 0.0
C437 C 0.54884 0.92484 0.5212 0.0
C438 C 0.56617 0.82422 0.51318 0.0
C439 C 0.56567 0.81106 0.53267 0.0
C440 C 0.56346 0.7956 0.49579 0.0
C441 C 0.56185 0.80702 0.47479 0.0
C442 C 0.53173 0.82019 0.46879 0.0
C443 C 0.53076 0.83153 0.44908 0.0
C444 C 0.55956 0.82951 0.43517 0.0
C445 C 0.58932 0.81606 0.44093 0.0
C446 C 0.59045 0.80472 0.46063 0.0
C447 C 0.52029 0.63228 0.53712 0.0
C448 C 0.55169 0.61979 0.53146 0.0
C449 C 0.52118 0.6703 0.53133 0.0
C450 C 0.55402 0.69702 0.52016 0.0
C451 C 0.58374 0.68301 0.51317 0.0
C452 C 0.58255 0.6445 0.51878 0.0
C453 C 0.55968 0.74141 0.51796 0.0
C454 C 0.56067 0.75464 0.49842 0.0
C455 C 0.56284 0.77029 0.53531 0.0
C456 C 0.56417 0.75909 0.55639 0.0
C457 C 0.59429 0.74616 0.56266 0.0
C458 C 0.59455 0.73439 0.58233 0.0
C459 C 0.56512 0.73587 0.59596 0.0
C460 C 0.53546 0.74927 0.58997 0.0
C461 C 0.53497 0.76093 0.57029 0.0
H462 H 0.56535 0.72671 0.61118 0.0
H463 H 0.55871 0.83825 0.41992 0.0
H464 H 0.65702 0.44032 0.83846 0.0
H465 H 0.70276 0.40453 0.83389 0.0
H466 H 0.79791 0.51972 0.81347 0.0
H467 H 0.75107 0.55461 0.81699 0.0
H468 H 0.798 0.4487 0.79263 0.0
H469 H 0.79311 0.4987 0.86543 0.0
H470 H 0.75413 0.49805 0.89644 0.0
H471 H 0.7075 0.36083 0.89316 0.0
H472 H 0.7462 0.36075 0.86209 0.0
H473 H 0.99358 0.51921 0.83367 0.0
H474 H 0.92418 0.49555 0.81895 0.0
H475 H 0.88367 0.37689 0.84655 0.0
H476 H 0.95384 0.40099 0.86167 0.0
H477 H 0.83922 0.41576 0.85825 0.0
H478 H 0.87204 0.37587 0.79333 0.0
H479 H 0.91316 0.37906 0.76298 0.0
H480 H 0.90806 0.49601 0.75051 0.0
H481 H 0.8675 0.494 0.78094 0.0
C482 C 0.68758 0.45771 0.83284 0.0
C483 C 0.70097 0.50026 0.82839 0.0
C484 C 0.71357 0.43725 0.83016 0.0
C485 C 0.75389 0.45966 0.8236 0.0
C486 C 0.7668 0.5018 0.81848 0.0
C487 C 0.74036 0.5219 0.82073 0.0
C488 C 0.78446 0.4416 0.82422 0.0
C489 C 0.80709 0.44117 0.80688 0.0
C490 C 0.79465 0.42952 0.84256 0.0
C491 C 0.77227 0.4297 0.86145 0.0
C492 C 0.77454 0.46844 0.87136 0.0
C493 C 0.75253 0.46819 0.88892 0.0
C494 C 0.72841 0.42942 0.89677 0.0
C495 C 0.72628 0.39082 0.88708 0.0
C496 C 0.74829 0.39091 0.86953 0.0
C497 C 0.9704 0.48736 0.83598 0.0
C498 C 0.97898 0.46209 0.84896 0.0
C499 C 0.93061 0.47364 0.82741 0.0
C500 C 0.89866 0.43417 0.83145 0.0
C501 C 0.9079 0.40738 0.84317 0.0
C502 C 0.94782 0.42127 0.8519 0.0
C503 C 0.85513 0.42602 0.827 0.0
C504 C 0.82955 0.42127 0.84364 0.0
C505 C 0.84238 0.43329 0.80798 0.0
C506 C 0.86654 0.43467 0.78947 0.0
C507 C 0.8798 0.40239 0.78418 0.0
C508 C 0.90303 0.40399 0.76694 0.0
C509 C 0.91318 0.43769 0.75482 0.0
C510 C 0.90007 0.46985 0.75989 0.0
C511 C 0.87684 0.46842 0.77711 0.0
H512 H 0.9312 0.4389 0.74149 0.0
H513 H 0.71135 0.42929 0.91036 0.0
H514 H 0.15005 0.69371 0.18413 0.0
H515 H 0.21142 0.76287 0.19015 0.0
H516 H 0.27854 0.71589 0.14793 0.0
H517 H 0.21757 0.64656 0.1422 0.0
H518 H 0.32355 0.75286 0.182 0.0
H519 H 0.24499 0.7907 0.13566 0.0
H520 H 0.18356 0.79713 0.12246 0.0
H521 H 0.18664 0.87784 0.17668 0.0
H522 H 0.24776 0.8714 0.19034 0.0
H523 H 0.50093 0.95047 0.18593 0.0
H524 H 0.43772 0.89008 0.17091 0.0
H525 H 0.36482 0.92436 0.21493 0.0
H526 H 0.42775 0.98533 0.2297 0.0
H527 H 0.32381 0.89494 0.17721 0.0
H528 H 0.39794 0.85177 0.22453 0.0
H529 H 0.45913 0.84534 0.23808 0.0
H530 H 0.46346 0.77392 0.18191 0.0
H531 H 0.40265 0.78053 0.16791 0.0
C532 C 0.17784 0.69835 0.17605 0.0
C533 C 0.1792 0.66493 0.16273 0.0
C534 C 0.21278 0.73791 0.17939 0.0
C535 C 0.24947 0.74473 0.16932 0.0
C536 C 0.25058 0.71139 0.15584 0.0
C537 C 0.21574 0.67185 0.15255 0.0
C538 C 0.28741 0.7857 0.1737 0.0
C539 C 0.32375 0.78387 0.18056 0.0
C540 C 0.28748 0.82623 0.17228 0.0
C541 C 0.25076 0.83025 0.1641 0.0
C542 C 0.23238 0.80954 0.14484 0.0
C543 C 0.19764 0.81324 0.13727 0.0
C544 C 0.18115 0.83779 0.14875 0.0
C545 C 0.19942 0.85879 0.16781 0.0
C546 C 0.23414 0.85517 0.17547 0.0
C547 C 0.4713 0.94581 0.19204 0.0
C548 C 0.46928 0.97227 0.20913 0.0
C549 C 0.43527 0.91116 0.18354 0.0
C550 C 0.39672 0.90238 0.19204 0.0
C551 C 0.39428 0.93048 0.20821 0.0
C552 C 0.43026 0.96506 0.21672 0.0
C553 C 0.35968 0.86188 0.18544 0.0
C554 C 0.32357 0.86382 0.17834 0.0
C555 C 0.3597 0.82135 0.18664 0.0
C556 C 0.39607 0.81708 0.19509 0.0
C557 C 0.41215 0.83499 0.21501 0.0
C558 C 0.44673 0.83128 0.22278 0.0
C559 C 0.46524 0.80934 0.21084 0.0
C560 C 0.44914 0.79098 0.19113 0.0
C561 C 0.41462 0.79469 0.18326 0.0
H562 H 0.49201 0.80648 0.21689 0.0
H563 H 0.15426 0.84062 0.14285 0.0
H564 H 0.46866 0.12608 0.52855 0.0
H565 H 0.47755 0.19988 0.52686 0.0
H566 H 0.58948 0.22819 0.49421 0.0
H567 H 0.57982 0.15402 0.4951 0.0
H568 H 0.59609 0.29035 0.52833 0.0
H569 H 0.51295 0.21871 0.46761 0.0
H570 H 0.45403 0.16176 0.44705 0.0
H571 H 0.36864 0.19466 0.48216 0.0
H572 H 0.42707 0.25141 0.50315 0.0
H573 H 0.61177 0.49826 0.51682 0.0
H574 H 0.60825 0.4269 0.50566 0.0
H575 H 0.48504 0.36737 0.52838 0.0
H576 H 0.48853 0.43831 0.53925 0.0
H577 H 0.49032 0.32225 0.49421 0.0
H578 H 0.57134 0.38682 0.55736 0.0
H579 H 0.629 0.44168 0.57945 0.0
H580 H 0.71721 0.4203 0.5413 0.0
H581 H 0.66004 0.36577 0.51879 0.0
C582 C 0.49507 0.14803 0.52098 0.0
C583 C 0.52386 0.13454 0.51221 0.0
C584 C 0.50009 0.19007 0.51999 0.0
C585 C 0.53414 0.21937 0.51038 0.0
C586 C 0.56309 0.20607 0.50174 0.0
C587 C 0.55767 0.1638 0.50239 0.0
C588 C 0.53956 0.26402 0.50962 0.0
C589 C 0.57348 0.29757 0.52053 0.0
C590 C 0.50966 0.27309 0.49968 0.0
C591 C 0.4744 0.23908 0.48707 0.0
C592 C 0.4816 0.21355 0.47107 0.0
C593 C 0.44829 0.18136 0.45932 0.0
C594 C 0.40761 0.17453 0.46333 0.0
C595 C 0.40017 0.19996 0.47908 0.0
C596 C 0.43338 0.23218 0.4909 0.0
C597 C 0.58353 0.46982 0.51874 0.0
C598 C 0.55028 0.47341 0.5287 0.0
C599 C 0.58165 0.42917 0.51257 0.0
C600 C 0.5466 0.39178 0.51647 0.0
C601 C 0.51236 0.39566 0.52519 0.0
C602 C 0.51429 0.43612 0.53136 0.0
C603 C 0.54646 0.34871 0.51328 0.0
C604 C 0.51343 0.31531 0.50169 0.0
C605 C 0.57705 0.33971 0.52275 0.0
C606 C 0.61143 0.37271 0.53621 0.0
C607 C 0.60304 0.39414 0.55356 0.0
C608 C 0.63564 0.42511 0.56619 0.0
C609 C 0.67676 0.43455 0.56176 0.0
C610 C 0.68536 0.41301 0.5447 0.0
C611 C 0.65287 0.38211 0.53199 0.0
H612 H 0.70196 0.45848 0.57157 0.0
H613 H 0.38186 0.1496 0.4542 0.0
H614 H 0.47018 0.64352 0.83925 0.0
H615 H 0.41644 0.66926 0.83757 0.0
H616 H 0.33036 0.54466 0.80917 0.0
H617 H 0.38446 0.51927 0.81025 0.0
H618 H 0.31671 0.61186 0.79547 0.0
H619 H 0.33901 0.56341 0.8619 0.0
H620 H 0.38645 0.57137 0.8909 0.0
H621 H 0.41515 0.70544 0.90208 0.0
H622 H 0.36787 0.69815 0.8731 0.0
H623 H 0.1249 0.50215 0.83112 0.0
H624 H 0.19381 0.53973 0.81841 0.0
H625 H 0.2174 0.64907 0.8625 0.0
H626 H 0.14844 0.61043 0.87578 0.0
H627 H 0.27462 0.62617 0.86646 0.0
H628 H 0.22232 0.65871 0.80901 0.0
H629 H 0.17513 0.64955 0.77982 0.0
H630 H 0.20334 0.54984 0.75044 0.0
H631 H 0.25019 0.55782 0.77956 0.0
C632 C 0.43993 0.62192 0.83236 0.0
C633 C 0.43082 0.57915 0.82534 0.0
C634 C 0.40949 0.63678 0.83124 0.0
C635 C 0.36941 0.60869 0.82347 0.0
C636 C 0.36122 0.56686 0.81514 0.0
C637 C 0.39186 0.55219 0.816 0.0
C638 C 0.33412 0.61935 0.82731 0.0
C639 C 0.30738 0.61555 0.81091 0.0
C640 C 0.32325 0.62634 0.84748 0.0
C641 C 0.35016 0.63029 0.86538 0.0
C642 C 0.35536 0.59451 0.87063 0.0
C643 C 0.38223 0.59891 0.88701 0.0
C644 C 0.40381 0.63889 0.89832 0.0
C645 C 0.39837 0.67449 0.89333 0.0
C646 C 0.37151 0.67024 0.87695 0.0
C647 C 0.14439 0.53464 0.83772 0.0
C648 C 0.13178 0.5533 0.85453 0.0
C649 C 0.18367 0.55642 0.83029 0.0
C650 C 0.21075 0.59763 0.83929 0.0
C651 C 0.19702 0.61742 0.85527 0.0
C652 C 0.15787 0.59529 0.86292 0.0
C653 C 0.25522 0.61552 0.83456 0.0
C654 C 0.28408 0.6248 0.85087 0.0
C655 C 0.26796 0.61399 0.81428 0.0
C656 C 0.23995 0.60899 0.79653 0.0
C657 C 0.21836 0.63468 0.79638 0.0
C658 C 0.19165 0.62969 0.77982 0.0
C659 C 0.18627 0.59916 0.76328 0.0
C660 C 0.20762 0.57356 0.76324 0.0
C661 C 0.23438 0.57841 0.77976 0.0
H662 H 0.16555 0.59533 0.75048 0.0
H663 H 0.42474 0.64229 0.91094 0.0
H664 H 0.87706 0.35831 0.13357 0.0
H665 H 0.8095 0.30068 0.14013 0.0
H666 H 0.87052 0.24846 0.17825 0.0
H667 H 0.93796 0.30569 0.17163 0.0
H668 H 0.80636 0.18528 0.15487 0.0
H669 H 0.83261 0.31507 0.19827 0.0
H670 H 0.84863 0.39182 0.20508 0.0
H671 H 0.73546 0.36939 0.17292 0.0
H672 H 0.7195 0.29266 0.16517 0.0
H673 H 0.66019 0.07517 0.22514 0.0
H674 H 0.71966 0.1252 0.2082 0.0
H675 H 0.63833 0.16039 0.17395 0.0
H676 H 0.57854 0.11071 0.19117 0.0
H677 H 0.7075 0.23086 0.19075 0.0
H678 H 0.6785 0.09874 0.15018 0.0
H679 H 0.66387 0.02227 0.14359 0.0
H680 H 0.7822 0.04915 0.17165 0.0
H681 H 0.79731 0.12571 0.17869 0.0
C682 C 0.87601 0.33403 0.14303 0.0
C683 C 0.91256 0.33641 0.15218 0.0
C684 C 0.83747 0.30129 0.14683 0.0
C685 C 0.83502 0.27062 0.15986 0.0
C686 C 0.87174 0.2718 0.16815 0.0
C687 C 0.9102 0.30455 0.16441 0.0
C688 C 0.79436 0.23906 0.16612 0.0
C689 C 0.78478 0.1952 0.16277 0.0
C690 C 0.76587 0.25212 0.17604 0.0
C691 C 0.77515 0.29817 0.18089 0.0
C692 C 0.81135 0.32655 0.19243 0.0
C693 C 0.82044 0.37007 0.19644 0.0
C694 C 0.79317 0.38551 0.18934 0.0
C695 C 0.75671 0.35742 0.17824 0.0
C696 C 0.74767 0.31392 0.174 0.0
C697 C 0.65496 0.09362 0.21403 0.0
C698 C 0.61473 0.08911 0.20951 0.0
C699 C 0.68891 0.12192 0.20424 0.0
C700 C 0.68335 0.14622 0.18968 0.0
C701 C 0.64324 0.1418 0.18509 0.0
C702 C 0.60915 0.11325 0.19482 0.0
C703 C 0.71981 0.17705 0.17979 0.0
C704 C 0.72868 0.22084 0.18251 0.0
C705 C 0.74777 0.16397 0.16938 0.0
C706 C 0.7389 0.11795 0.16509 0.0
C707 C 0.70128 0.08831 0.15508 0.0
C708 C 0.69292 0.04495 0.15124 0.0
C709 C 0.72206 0.03085 0.15723 0.0
C710 C 0.75965 0.06011 0.16703 0.0
C711 C 0.76815 0.10351 0.17093 0.0
H712 H 0.71553 0.99727 0.15424 0.0
H713 H 0.80023 0.41921 0.19249 0.0
H714 H 0.10112 0.5552 0.08893 0.0
H715 H 0.10048 0.55364 0.0519 0.0
H716 H 1.00401 0.42383 0.04629 0.0
H717 H 1.00441 0.42486 0.08345 0.0
H718 H 0.06761 0.43645 0.01909 0.0
H719 H 0.97767 0.50184 0.04061 0.0
H720 H 0.95915 0.55388 0.06113 0.0
H721 H 0.05896 0.65822 0.03658 0.0
H722 H 0.07848 0.60681 0.01614 0.0
H723 H 1.01335 0.42932 0.9148 0.0
H724 H 1.01164 0.4261 0.95164 0.0
H725 H 0.09691 0.56055 0.96121 0.0
H726 H 0.09707 0.5646 0.92448 0.0
H727 H 0.03653 0.54335 0.9866 0.0
H728 H 0.12854 0.48031 0.96602 0.0
H729 H 0.14996 0.42988 0.94607 0.0
H730 H 0.04993 0.32325 0.96908 0.0
H731 H 0.02757 0.37305 0.98897 0.0
C732 C 0.07981 0.52619 0.07989 0.0
C733 C 0.05263 0.4902 0.08918 0.0
C734 C 0.07945 0.52545 0.05872 0.0
C735 C 0.0519 0.4888 0.04645 0.0
C736 C 0.02541 0.45244 0.05558 0.0
C737 C 0.02561 0.45318 0.07679 0.0
C738 C 0.05044 0.48888 0.02407 0.0
C739 C 0.06022 0.45935 0.0119 0.0
C740 C 0.04175 0.51951 0.01488 0.0
C741 C 0.02975 0.55047 0.02697 0.0
C742 C 0.99585 0.5359 0.0397 0.0
C743 C 0.98515 0.56528 0.0513 0.0
C744 C 1.00791 0.60933 0.05019 0.0
C745 C 0.04137 0.62409 0.03743 0.0
C746 C 0.05224 0.59484 0.02582 0.0
C747 C 0.03145 0.4583 0.92475 0.0
C748 C 0.05544 0.4972 0.91669 0.0
C749 C 0.03081 0.45628 0.94579 0.0
C750 C 0.05459 0.49295 0.95915 0.0
C751 C 0.07845 0.53183 0.95117 0.0
C752 C 0.07885 0.53397 0.93015 0.0
C753 C 0.05408 0.49111 0.98149 0.0
C754 C 0.04383 0.52031 0.9937 0.0
C755 C 0.06268 0.46039 0.99072 0.0
C756 C 0.07613 0.43039 0.97882 0.0
C757 C 0.11092 0.44609 0.9667 0.0
C758 C 0.12326 0.41763 0.95543 0.0
C759 C 0.10125 0.37339 0.95626 0.0
C760 C 0.06691 0.35753 0.96842 0.0
C761 C 0.05441 0.38585 0.97971 0.0
H762 H 0.11086 0.3514 0.94752 0.0
H763 H 0.99959 0.63203 0.05919 0.0
H764 H 0.51322 0.97076 0.44283 0.0
H765 H 0.51368 0.96876 0.40561 0.0
H766 H 0.6039 0.10143 0.41091 0.0
H767 H 0.60383 0.10377 0.44804 0.0
H768 H 0.53616 0.08254 0.38373 0.0
H769 H 0.63579 0.0275 0.39777 0.0
H770 H 0.65864 0.9784 0.41289 0.0
H771 H 0.56193 0.87023 0.37821 0.0
H772 H 0.53817 0.9187 0.36305 0.0
H773 H 0.58835 0.1021 0.28119 0.0
H774 H 0.59261 0.10193 0.3181 0.0
H775 H 0.5201 0.96437 0.31171 0.0
H776 H 0.5181 0.96388 0.27472 0.0
H777 H 0.57812 0.98472 0.33979 0.0
H778 H 0.47696 0.03586 0.32589 0.0
H779 H 0.44925 0.08188 0.31147 0.0
H780 H 0.54197 0.1931 0.34636 0.0
H781 H 0.57062 0.14779 0.36078 0.0
C782 C 0.53324 0.99947 0.43608 0.0
C783 C 0.55851 0.03741 0.44839 0.0
C784 C 0.53355 0.99822 0.41483 0.0
C785 C 0.55895 0.03492 0.40557 0.0
C786 C 0.58411 0.0728 0.4178 0.0
C787 C 0.58413 0.07397 0.43901 0.0
C788 C 0.55887 0.03415 0.3831 0.0
C789 C 0.54585 0.0616 0.37409 0.0
C790 C 0.57027 0.00581 0.37061 0.0
C791 C 0.585 0.9767 0.3794 0.0
C792 C 0.61924 0.99323 0.39345 0.0
C793 C 0.63239 0.96552 0.40202 0.0
C794 C 0.6117 0.92122 0.39654 0.0
C795 C 0.57791 0.90456 0.38244 0.0
C796 C 0.56463 0.93213 0.37383 0.0
C797 C 0.5739 0.07169 0.28758 0.0
C798 C 0.55253 0.03305 0.27494 0.0
C799 C 0.5759 0.07171 0.30874 0.0
C800 C 0.5559 0.03324 0.31774 0.0
C801 C 0.53551 0.9945 0.30515 0.0
C802 C 0.53396 0.99437 0.28399 0.0
C803 C 0.55563 0.03342 0.34028 0.0
C804 C 0.56846 0.00577 0.34935 0.0
C805 C 0.54341 0.06114 0.35284 0.0
C806 C 0.52619 0.08848 0.34425 0.0
C807 C 0.49164 0.07017 0.33037 0.0
C808 C 0.47573 0.09612 0.32222 0.0
C809 C 0.49391 0.1404 0.32796 0.0
C810 C 0.52797 0.1588 0.34191 0.0
C811 C 0.54403 0.133 0.35009 0.0
H812 H 0.48155 0.16044 0.32163 0.0
H813 H 0.62192 0.89983 0.4032 0.0
H814 H 0.52096 0.56973 0.76665 0.0
H815 H 0.52123 0.57334 0.72993 0.0
H816 H 0.6244 0.53984 0.7261 0.0
H817 H 0.62487 0.5368 0.76299 0.0
H818 H 0.63533 0.60326 0.70306 0.0
H819 H 0.5263 0.46525 0.71203 0.0
H820 H 0.46259 0.41405 0.72645 0.0
H821 H 0.39332 0.47577 0.70236 0.0
H822 H 0.45678 0.52777 0.68803 0.0
H823 H 0.61385 0.53802 0.59616 0.0
H824 H 0.61729 0.54041 0.63335 0.0
H825 H 0.52094 0.58411 0.63728 0.0
H826 H 0.51705 0.58139 0.60003 0.0
H827 H 0.50681 0.51617 0.66015 0.0
H828 H 0.61714 0.65346 0.65047 0.0
H829 H 0.68123 0.70285 0.63562 0.0
H830 H 0.74852 0.63996 0.66057 0.0
H831 H 0.68464 0.58974 0.67533 0.0
C832 C 0.54374 0.56306 0.75805 0.0
C833 C 0.57271 0.55264 0.76778 0.0
C834 C 0.54377 0.56506 0.73702 0.0
C835 C 0.57243 0.55624 0.72524 0.0
C836 C 0.60194 0.54666 0.73492 0.0
C837 C 0.60208 0.54484 0.756 0.0
C838 C 0.57137 0.55676 0.70281 0.0
C839 C 0.60739 0.58381 0.69364 0.0
C840 C 0.53466 0.53197 0.69058 0.0
C841 C 0.49639 0.50067 0.69913 0.0
C842 C 0.49756 0.46813 0.70995 0.0
C843 C 0.46148 0.43892 0.71808 0.0
C844 C 0.42396 0.44173 0.71537 0.0
C845 C 0.42242 0.47368 0.70447 0.0
C846 C 0.45843 0.50301 0.69633 0.0
C847 C 0.59345 0.54819 0.60497 0.0
C848 C 0.56517 0.5595 0.59523 0.0
C849 C 0.59563 0.54979 0.62618 0.0
C850 C 0.56952 0.56266 0.63802 0.0
C851 C 0.5414 0.57419 0.62837 0.0
C852 C 0.53942 0.57291 0.60715 0.0
C853 C 0.57069 0.56273 0.66045 0.0
C854 C 0.53469 0.5357 0.6696 0.0
C855 C 0.60748 0.58727 0.67261 0.0
C856 C 0.646 0.61757 0.66384 0.0
C857 C 0.64552 0.64992 0.65265 0.0
C858 C 0.68183 0.67811 0.64428 0.0
C859 C 0.71891 0.67448 0.64711 0.0
C860 C 0.71977 0.6427 0.65837 0.0
C861 C 0.68352 0.61439 0.66676 0.0
H862 H 0.74699 0.69634 0.64062 0.0
H863 H 0.39605 0.41908 0.72168 0.0
H864 H 0.54972 0.98408 0.57559 0.0
H865 H 0.54901 0.98136 0.61244 0.0
H866 H 0.5484 0.10625 0.62092 0.0
H867 H 0.55278 0.11029 0.58396 0.0
H868 H 0.59218 0.10451 0.64938 0.0
H869 H 0.45761 1.00427 0.62427 0.0
H870 H 0.40431 0.94345 0.60259 0.0
H871 H 0.44724 0.85715 0.62564 0.0
H872 H 0.50118 0.91756 0.64726 0.0
H873 H 0.5168 0.07037 0.75013 0.0
H874 H 0.51354 0.07194 0.71327 0.0
H875 H 0.57577 0.98951 0.70509 0.0
H876 H 0.58155 0.98973 0.74208 0.0
H877 H 0.49685 0.97062 0.67754 0.0
H878 H 0.63474 0.08153 0.70248 0.0
H879 H 0.67842 0.14512 0.726 0.0
H880 H 0.61502 0.21501 0.70429 0.0
H881 H 0.5705 0.15155 0.68088 0.0
C882 C 0.54963 0.01097 0.58541 0.0
C883 C 0.55104 0.04727 0.57712 0.0
C884 C 0.54877 0.00926 0.60645 0.0
C885 C 0.54727 0.04297 0.61958 0.0
C886 C 0.54931 0.07966 0.61121 0.0
C887 C 0.5517 0.082 0.59013 0.0
C888 C 0.54418 0.04002 0.64198 0.0
C889 C 0.57084 0.07532 0.6554 0.0
C890 C 0.51628 1.0021 0.65015 0.0
C891 C 0.48369 0.96555 0.63726 0.0
C892 C 0.45586 0.97237 0.62462 0.0
C893 C 0.42551 0.93796 0.61236 0.0
C894 C 0.42245 0.89648 0.6127 0.0
C895 C 0.44967 0.88931 0.62537 0.0
C896 C 0.48011 0.92361 0.63765 0.0
C897 C 0.53022 0.05288 0.74058 0.0
C898 C 0.55004 0.03048 0.74919 0.0
C899 C 0.52786 0.05345 0.7195 0.0
C900 C 0.54451 0.03094 0.70658 0.0
C901 C 0.5626 0.00691 0.71491 0.0
C902 C 0.56568 0.00695 0.73606 0.0
C903 C 0.54517 0.03458 0.68444 0.0
C904 C 0.51796 0.99956 0.67123 0.0
C905 C 0.57131 0.07318 0.67652 0.0
C906 C 0.59912 0.11173 0.69005 0.0
C907 C 0.62998 0.11039 0.70281 0.0
C908 C 0.65489 0.14641 0.71611 0.0
C909 C 0.64944 0.18406 0.71668 0.0
C910 C 0.61922 0.18584 0.70384 0.0
C911 C 0.59416 0.14987 0.69055 0.0
H912 H 0.66866 0.21187 0.72703 0.0
H913 H 0.39894 0.86988 0.60318 0.0
H914 H 0.4994 0.51739 0.89651 0.0
H915 H 0.49732 0.51242 0.93319 0.0
H916 H 0.63089 0.56186 0.93723 0.0
H917 H 0.63292 0.56499 0.90034 0.0
H918 H 0.60091 0.50092 0.95982 0.0
H919 H 0.57638 0.62404 0.95304 0.0
H920 H 0.54239 0.66533 0.93935 0.0
H921 H 0.42628 0.58114 0.96232 0.0
H922 H 0.45944 0.53894 0.9759 0.0
H923 H 0.62099 0.55748 0.06783 0.0
H924 H 0.62283 0.56385 0.03124 0.0
H925 H 0.4918 0.48052 0.02422 0.0
H926 H 0.48984 0.47199 0.06063 0.0
H927 H 0.52104 0.55998 0.00383 0.0
H928 H 0.55017 0.43756 0.01053 0.0
H929 H 0.5883 0.40099 0.02492 0.0
H930 H 0.70209 0.49195 0.00279 0.0
H931 H 0.66471 0.5295 0.98855 0.0
C932 C 0.52837 0.52742 0.90522 0.0
C933 C 0.56636 0.54185 0.89553 0.0
C934 C 0.52716 0.52474 0.92625 0.0
C935 C 0.56402 0.53757 0.93815 0.0
C936 C 0.602 0.55183 0.92845 0.0
C937 C 0.60315 0.55372 0.90735 0.0
C938 C 0.5629 0.53536 0.96061 0.0
C939 C 0.58392 0.51446 0.96942 0.0
C940 C 0.54031 0.55246 0.97326 0.0
C941 C 0.52034 0.57809 0.96534 0.0
C942 C 0.54354 0.61417 0.95507 0.0
C943 C 0.52443 0.63775 0.94734 0.0
C944 C 0.48219 0.62581 0.94993 0.0
C945 C 0.45899 0.59032 0.96031 0.0
C946 C 0.47794 0.56658 0.96805 0.0
C947 C 0.59258 0.53993 0.05854 0.0
C948 C 0.5553 0.51391 0.06731 0.0
C949 C 0.59368 0.54399 0.03764 0.0
C950 C 0.55748 0.52259 0.02507 0.0
C951 C 0.52003 0.49745 0.03372 0.0
C952 C 0.51899 0.49282 0.05459 0.0
C953 C 0.55898 0.52566 0.00279 0.0
C954 C 0.53805 0.54667 0.99411 0.0
C955 C 0.58231 0.50947 0.99032 0.0
C956 C 0.60471 0.48661 -0.00133 0.0
C957 C 0.58338 0.44999 0.00889 0.0
C958 C 0.60484 0.42904 0.01699 0.0
C959 C 0.64761 0.44421 0.01482 0.0
C960 C 0.66897 0.48027 0.00448 0.0
C961 C 0.64766 0.50138 0.99639 0.0
H962 H 0.66418 0.42796 0.02111 0.0
H963 H 0.46746 0.64411 0.94394 0.0
H964 H 1.01251 0.43423 0.21874 0.0
H965 H 1.00613 0.43968 0.25562 0.0
H966 H 0.08258 0.5764 0.25946 0.0
H967 H 0.09013 0.57104 0.2226 0.0
H968 H 0.10252 0.54505 0.29001 0.0
H969 H 0.97518 0.53342 0.26077 0.0
H970 H 0.91171 0.50193 0.23832 0.0
H971 H 0.8679 0.38585 0.26757 0.0
H972 H 0.93141 0.41643 0.29001 0.0
H973 H 0.04663 0.59998 0.3873 0.0
H974 H 0.05023 0.59224 0.35024 0.0
H975 H 0.99095 0.45431 0.34949 0.0
H976 H 0.98784 0.46173 0.38672 0.0
H977 H 0.96176 0.48578 0.31771 0.0
H978 H 0.09186 0.50148 0.34749 0.0
H979 H 0.15403 0.53776 0.37069 0.0
H980 H 0.19151 0.65213 0.34048 0.0
H981 H 0.12919 0.61673 0.31728 0.0
C982 C 0.02821 0.46546 0.22743 0.0
C983 C 0.05161 0.50226 0.2177 0.0
C984 C 0.02434 0.46854 0.24852 0.0
C985 C 0.04313 0.50859 0.26028 0.0
C986 C 0.06764 0.54518 0.2507 0.0
C987 C 0.07193 0.54205 0.22961 0.0
C988 C 0.03675 0.5124 0.2825 0.0
C989 C 0.07171 0.53251 0.29601 0.0
C990 C 0.99654 0.49558 0.29041 0.0
C991 C 0.95826 0.47708 0.27695 0.0
C992 C 0.95217 0.50105 0.26231 0.0
C993 C 0.91616 0.48338 0.2496 0.0
C994 C 0.88583 0.44189 0.2515 0.0
C995 C 0.89144 0.41798 0.26611 0.0
C996 C 0.92742 0.43547 0.27884 0.0
C997 C 0.0343 0.56796 0.37927 0.0
C998 C 0.01743 0.53145 0.38997 0.0
C999 C 0.03625 0.56363 0.3581 0.0
C1000 C 0.02139 0.52272 0.34721 0.0
C1001 C 1.00263 0.48616 0.35767 0.0
C1002 C 1.00077 0.49046 0.37892 0.0
C1003 C 0.02746 0.51831 0.32505 0.0
C1004 C 0.99249 0.49814 0.31161 0.0
C1005 C 0.06759 0.53562 0.31718 0.0
C1006 C 0.10568 0.55655 0.33075 0.0
C1007 C 0.11325 0.53444 0.34586 0.0
C1008 C 0.14852 0.55484 0.359 0.0
C1009 C 0.17666 0.59725 0.35708 0.0
C1010 C 0.16968 0.61929 0.34195 0.0
C1011 C 0.1344 0.59905 0.32879 0.0
H1012 H 0.20391 0.61302 0.3673 0.0
H1013 H 0.85791 0.42833 0.2417 0.0
loop_
_geom_bond_atom_site_label_1
_geom_bond_atom_site_label_2
_geom_bond_distance
_geom_bond_site_symmetry_2
_ccdc_geom_bond_type
Tb0 O3 2.453 1_455 S
Tb0 O4 2.596 1_455 S
Tb0 O5 2.374 . S
Tb0 O13 2.343 . S
Tb0 O15 2.353 . S
Tb0 O17 2.427 . S
Tb0 O18 2.513 . S
C1 O5 1.251 . S
C1 O7 1.263 . S
Tb2 O4 2.343 1_455 S
Tb2 O7 2.353 . S
Tb2 O10 2.427 1_455 S
Tb2 O11 2.513 1_455 S
Tb2 O12 2.453 . S
Tb2 O13 2.596 . S
Tb2 O14 2.374 . S
O3 Tb0 2.453 1_655 S
O3 C19 1.245 . S
O4 Tb0 2.596 1_655 S
O4 Tb2 2.343 1_655 S
O4 C19 1.259 . S
O5 Tb0 2.374 . S
O5 C1 1.251 . S
C6 O10 1.275 . S
C6 O11 1.246 . S
O7 C1 1.263 . S
O7 Tb2 2.353 . S
C8 O12 1.245 . S
C8 O13 1.259 . S
C9 O14 1.250 . S
C9 O15 1.263 . S
O10 Tb2 2.427 1_655 S
O10 C6 1.275 . S
O11 Tb2 2.513 1_655 S
O11 C6 1.246 . S
O12 Tb2 2.453 . S
O12 C8 1.245 . S
O13 Tb0 2.343 . S
O13 Tb2 2.596 . S
O13 C8 1.259 . S
O14 Tb2 2.374 . S
O14 C9 1.250 . S
O15 Tb0 2.353 . S
O15 C9 1.263 . S
C16 O17 1.275 . S
C16 O18 1.246 . S
O17 Tb0 2.427 . S
O17 C16 1.275 . S
O18 Tb0 2.513 . S
O18 C16 1.246 . S
C19 O3 1.245 . S
C19 O4 1.259 . S
Tb20 O23 2.453 . S
Tb20 O24 2.596 . S
Tb20 O25 2.374 . S
Tb20 O33 2.343 1_545 S
Tb20 O35 2.353 . S
Tb20 O37 2.427 1_545 S
Tb20 O38 2.513 1_545 S
C21 O25 1.251 . S
C21 O27 1.263 . S
Tb22 O24 2.343 . S
Tb22 O27 2.353 . S
Tb22 O30 2.427 . S
Tb22 O31 2.513 . S
Tb22 O32 2.453 1_545 S
Tb22 O33 2.596 1_545 S
Tb22 O34 2.374 . S
O23 Tb20 2.453 . S
O23 C39 1.245 . S
O24 Tb20 2.596 . S
O24 Tb22 2.343 . S
O24 C39 1.259 . S
O25 Tb20 2.374 . S
O25 C21 1.251 . S
C26 O30 1.275 . S
C26 O31 1.246 . S
O27 C21 1.263 . S
O27 Tb22 2.353 . S
C28 O32 1.245 . S
C28 O33 1.259 . S
C29 O34 1.250 . S
C29 O35 1.263 . S
O30 Tb22 2.427 . S
O30 C26 1.275 . S
O31 Tb22 2.513 . S
O31 C26 1.246 . S
O32 Tb22 2.453 1_565 S
O32 C28 1.245 . S
O33 Tb20 2.343 1_565 S
O33 Tb22 2.596 1_565 S
O33 C28 1.259 . S
O34 Tb22 2.374 . S
O34 C29 1.250 . S
O35 Tb20 2.353 . S
O35 C29 1.263 . S
C36 O37 1.275 . S
C36 O38 1.246 . S
O37 Tb20 2.427 1_565 S
O37 C36 1.275 . S
O38 Tb20 2.513 1_565 S
O38 C36 1.246 . S
C39 O23 1.245 . S
C39 O24 1.259 . S
Tb40 O43 2.453 . S
Tb40 O44 2.596 . S
Tb40 O45 2.374 . S
Tb40 O53 2.343 . S
Tb40 O55 2.353 . S
Tb40 O57 2.427 . S
Tb40 O58 2.513 . S
C41 O45 1.251 . S
C41 O47 1.263 . S
Tb42 O44 2.343 . S
Tb42 O47 2.353 . S
Tb42 O50 2.427 . S
Tb42 O51 2.513 . S
Tb42 O52 2.453 . S
Tb42 O53 2.596 . S
Tb42 O54 2.374 . S
O43 Tb40 2.453 . S
O43 C59 1.245 . S
O44 Tb40 2.596 . S
O44 Tb42 2.343 . S
O44 C59 1.259 . S
O45 Tb40 2.374 . S
O45 C41 1.251 . S
C46 O50 1.275 . S
C46 O51 1.246 . S
O47 C41 1.263 . S
O47 Tb42 2.353 . S
C48 O52 1.245 . S
C48 O53 1.259 . S
C49 O54 1.250 . S
C49 O55 1.263 . S
O50 Tb42 2.427 . S
O50 C46 1.275 . S
O51 Tb42 2.513 . S
O51 C46 1.246 . S
O52 Tb42 2.453 . S
O52 C48 1.245 . S
O53 Tb40 2.343 . S
O53 Tb42 2.596 . S
O53 C48 1.259 . S
O54 Tb42 2.374 . S
O54 C49 1.250 . S
O55 Tb40 2.353 . S
O55 C49 1.263 . S
C56 O57 1.275 . S
C56 O58 1.246 . S
O57 Tb40 2.427 . S
O57 C56 1.275 . S
O58 Tb40 2.513 . S
O58 C56 1.246 . S
C59 O43 1.245 . S
C59 O44 1.259 . S
H60 C63 0.931 1_565 S
H61 C66 0.928 . S
H62 C68 0.930 . S
C63 H60 0.931 1_545 S
C63 C64 1.413 . S
C63 C65 1.360 . S
C64 C63 1.413 . S
C64 C68 1.429 . S
C65 C63 1.360 . S
C65 C66 1.372 . S
C66 H61 0.928 . S
C66 C65 1.372 . S
C66 C67 1.404 . S
C67 C66 1.404 . S
C67 C68 1.391 . S
C68 H62 0.930 . S
C68 C64 1.429 . S
C68 C67 1.391 . S
H69 C72 0.931 . S
H70 C75 0.928 . S
H71 C77 0.930 . S
C72 H69 0.931 . S
C72 C73 1.413 . S
C72 C74 1.360 . S
C73 C72 1.413 . S
C73 C77 1.429 . S
C74 C72 1.360 . S
C74 C75 1.372 . S
C75 H70 0.928 . S
C75 C74 1.372 . S
C75 C76 1.404 . S
C76 C75 1.404 . S
C76 C77 1.391 . S
C77 H71 0.930 . S
C77 C73 1.429 . S
C77 C76 1.391 . S
H78 C81 0.931 . S
H79 C84 0.928 . S
H80 C86 0.930 . S
C81 H78 0.931 . S
C81 C82 1.413 . S
C81 C83 1.360 . S
C82 C81 1.413 . S
C82 C86 1.429 . S
C83 C81 1.360 . S
C83 C84 1.372 . S
C84 H79 0.928 . S
C84 C83 1.372 . S
C84 C85 1.404 . S
C85 C84 1.404 . S
C85 C86 1.391 . S
C86 H80 0.930 . S
C86 C82 1.429 . S
C86 C85 1.391 . S
H87 C90 0.931 . S
H88 C93 0.928 . S
H89 C95 0.930 . S
C90 H87 0.931 . S
C90 C91 1.413 . S
C90 C92 1.360 1_655 S
C91 C90 1.413 . S
C91 C95 1.429 1_655 S
C92 C90 1.360 1_455 S
C92 C93 1.372 . S
C93 H88 0.928 . S
C93 C92 1.372 . S
C93 C94 1.404 . S
C94 C93 1.404 . S
C94 C95 1.391 . S
C95 H89 0.930 . S
C95 C91 1.429 1_455 S
C95 C94 1.391 . S
H96 C99 0.931 . S
H97 C102 0.928 . S
H98 C104 0.930 . S
C99 H96 0.931 . S
C99 C100 1.413 . S
C99 C101 1.360 . S
C100 C99 1.413 . S
C100 C104 1.429 . S
C101 C99 1.360 . S
C101 C102 1.372 1_545 S
C102 H97 0.928 . S
C102 C101 1.372 1_565 S
C102 C103 1.404 . S
C103 C102 1.404 . S
C103 C104 1.391 1_565 S
C104 H98 0.930 . S
C104 C100 1.429 . S
C104 C103 1.391 1_545 S
H105 C108 0.931 . S
H106 C111 0.928 . S
H107 C113 0.930 . S
C108 H105 0.931 . S
C108 C109 1.413 . S
C108 C110 1.360 . S
C109 C108 1.413 . S
C109 C113 1.429 . S
C110 C108 1.360 . S
C110 C111 1.372 . S
C111 H106 0.928 . S
C111 C110 1.372 . S
C111 C112 1.404 . S
C112 C111 1.404 . S
C112 C113 1.391 . S
C113 H107 0.930 . S
C113 C109 1.429 . S
C113 C112 1.391 . S
H114 C132 0.951 . S
H115 C134 0.951 . S
H116 C136 0.950 . S
H117 C137 0.950 . S
H118 C139 0.950 . S
H119 C142 0.950 . S
H120 C143 0.950 . S
H121 C145 0.950 . S
H122 C146 0.950 . S
H123 C147 0.951 . S
H124 C149 0.951 . S
H125 C151 0.950 . S
H126 C152 0.950 . S
H127 C154 0.950 . S
H128 C157 0.950 . S
H129 C158 0.950 . S
H130 C160 0.950 . S
H131 C161 0.950 . S
C132 H114 0.951 . S
C132 C133 1.366 . S
C132 C134 1.388 . S
C133 C132 1.366 . S
C133 C137 1.385 . S
C134 H115 0.951 . S
C134 C132 1.388 . S
C134 C135 1.366 . S
C135 C134 1.366 . S
C135 C136 1.414 . S
C135 C138 1.499 . S
C136 H116 0.950 . S
C136 C135 1.414 . S
C136 C137 1.374 . S
C137 H117 0.950 . S
C137 C133 1.385 . S
C137 C136 1.374 . S
C138 C135 1.499 . S
C138 C139 1.373 . S
C138 C140 1.389 . S
C139 H118 0.950 . S
C139 C138 1.373 . S
C139 C155 1.377 . S
C140 C138 1.389 . S
C140 C141 1.524 . S
C140 C154 1.377 . S
C141 C140 1.524 . S
C141 C142 1.397 . S
C141 C146 1.363 . S
C142 H119 0.950 . S
C142 C141 1.397 . S
C142 C143 1.334 . S
C143 H120 0.950 . S
C143 C142 1.334 . S
C143 C144 1.287 . S
C144 C143 1.287 . S
C144 C145 1.524 . S
C144 H163 0.913 . S
C145 H121 0.950 . S
C145 C144 1.524 . S
C145 C146 1.415 . S
C146 H122 0.950 . S
C146 C141 1.363 . S
C146 C145 1.415 . S
C147 H123 0.951 . S
C147 C148 1.366 . S
C147 C149 1.388 . S
C148 C147 1.366 . S
C148 C152 1.385 . S
C149 H124 0.951 . S
C149 C147 1.388 . S
C149 C150 1.366 . S
C150 C149 1.366 . S
C150 C151 1.414 . S
C150 C153 1.499 . S
C151 H125 0.950 . S
C151 C150 1.414 . S
C151 C152 1.374 . S
C152 H126 0.950 . S
C152 C148 1.385 . S
C152 C151 1.374 . S
C153 C150 1.499 . S
C153 C154 1.373 . S
C153 C155 1.389 . S
C154 H127 0.950 . S
C154 C140 1.377 . S
C154 C153 1.373 . S
C155 C139 1.377 . S
C155 C153 1.389 . S
C155 C156 1.524 . S
C156 C155 1.524 . S
C156 C157 1.397 . S
C156 C161 1.363 . S
C157 H128 0.950 . S
C157 C156 1.397 . S
C157 C158 1.334 . S
C158 H129 0.950 . S
C158 C157 1.334 . S
C158 C159 1.287 . S
C159 C158 1.287 . S
C159 C160 1.524 . S
C159 H162 0.999 . S
C160 H130 0.950 . S
C160 C159 1.524 . S
C160 C161 1.415 . S
C161 H131 0.950 . S
C161 C156 1.363 . S
C161 C160 1.415 . S
H162 C159 0.999 . S
H163 C144 0.913 . S
H164 C182 0.951 . S
H165 C184 0.951 . S
H166 C186 0.950 . S
H167 C187 0.950 . S
H168 C189 0.950 . S
H169 C192 0.950 . S
H170 C193 0.950 . S
H171 C195 0.950 . S
H172 C196 0.950 . S
H173 C197 0.951 . S
H174 C199 0.951 . S
H175 C201 0.950 . S
H176 C202 0.950 . S
H177 C204 0.950 . S
H178 C207 0.950 . S
H179 C208 0.950 . S
H180 C210 0.950 . S
H181 C211 0.950 . S
C182 H164 0.951 . S
C182 C183 1.366 . S
C182 C184 1.388 . S
C183 C182 1.366 . S
C183 C187 1.385 . S
C184 H165 0.951 . S
C184 C182 1.388 . S
C184 C185 1.366 . S
C185 C184 1.366 . S
C185 C186 1.414 . S
C185 C188 1.499 . S
C186 H166 0.950 . S
C186 C185 1.414 . S
C186 C187 1.374 . S
C187 H167 0.950 . S
C187 C183 1.385 . S
C187 C186 1.374 . S
C188 C185 1.499 . S
C188 C189 1.373 . S
C188 C190 1.389 . S
C189 H168 0.950 . S
C189 C188 1.373 . S
C189 C205 1.377 . S
C190 C188 1.389 . S
C190 C191 1.524 . S
C190 C204 1.377 . S
C191 C190 1.524 . S
C191 C192 1.397 . S
C191 C196 1.363 . S
C192 H169 0.950 . S
C192 C191 1.397 . S
C192 C193 1.334 . S
C193 H170 0.950 . S
C193 C192 1.334 . S
C193 C194 1.287 . S
C194 C193 1.287 . S
C194 C195 1.524 . S
C194 H213 0.913 . S
C195 H171 0.950 . S
C195 C194 1.524 . S
C195 C196 1.415 . S
C196 H172 0.950 . S
C196 C191 1.363 . S
C196 C195 1.415 . S
C197 H173 0.951 . S
C197 C198 1.366 . S
C197 C199 1.388 . S
C198 C197 1.366 . S
C198 C202 1.385 . S
C199 H174 0.951 . S
C199 C197 1.388 . S
C199 C200 1.366 . S
C200 C199 1.366 . S
C200 C201 1.414 . S
C200 C203 1.499 . S
C201 H175 0.950 . S
C201 C200 1.414 . S
C201 C202 1.374 . S
C202 H176 0.950 . S
C202 C198 1.385 . S
C202 C201 1.374 . S
C203 C200 1.499 . S
C203 C204 1.373 . S
C203 C205 1.389 . S
C204 H177 0.950 . S
C204 C190 1.377 . S
C204 C203 1.373 . S
C205 C189 1.377 . S
C205 C203 1.389 . S
C205 C206 1.524 . S
C206 C205 1.524 . S
C206 C207 1.397 . S
C206 C211 1.363 . S
C207 H178 0.950 . S
C207 C206 1.397 . S
C207 C208 1.334 . S
C208 H179 0.950 . S
C208 C207 1.334 . S
C208 C209 1.287 . S
C209 C208 1.287 . S
C209 C210 1.524 . S
C209 H212 0.999 . S
C210 H180 0.950 . S
C210 C209 1.524 . S
C210 C211 1.415 . S
C211 H181 0.950 . S
C211 C206 1.363 . S
C211 C210 1.415 . S
H212 C209 0.999 . S
H213 C194 0.913 . S
H214 C232 0.951 . S
H215 C234 0.951 . S
H216 C236 0.950 . S
H217 C237 0.950 . S
H218 C239 0.950 . S
H219 C242 0.950 . S
H220 C243 0.950 . S
H221 C245 0.950 . S
H222 C246 0.950 . S
H223 C247 0.951 . S
H224 C249 0.951 . S
H225 C251 0.950 . S
H226 C252 0.950 . S
H227 C254 0.950 . S
H228 C257 0.950 . S
H229 C258 0.950 . S
H230 C260 0.950 . S
H231 C261 0.950 . S
C232 H214 0.951 . S
C232 C233 1.366 . S
C232 C234 1.388 . S
C233 C232 1.366 . S
C233 C237 1.385 . S
C234 H215 0.951 . S
C234 C232 1.388 . S
C234 C235 1.366 . S
C235 C234 1.366 . S
C235 C236 1.414 . S
C235 C238 1.499 . S
C236 H216 0.950 . S
C236 C235 1.414 . S
C236 C237 1.374 . S
C237 H217 0.950 . S
C237 C233 1.385 . S
C237 C236 1.374 . S
C238 C235 1.499 . S
C238 C239 1.373 . S
C238 C240 1.389 . S
C239 H218 0.950 . S
C239 C238 1.373 . S
C239 C255 1.377 . S
C240 C238 1.389 . S
C240 C241 1.524 . S
C240 C254 1.377 . S
C241 C240 1.524 . S
C241 C242 1.397 . S
C241 C246 1.363 . S
C242 H219 0.950 . S
C242 C241 1.397 . S
C242 C243 1.334 . S
C243 H220 0.950 . S
C243 C242 1.334 . S
C243 C244 1.287 . S
C244 C243 1.287 . S
C244 C245 1.524 . S
C244 H263 0.913 . S
C245 H221 0.950 . S
C245 C244 1.524 . S
C245 C246 1.415 . S
C246 H222 0.950 . S
C246 C241 1.363 . S
C246 C245 1.415 . S
C247 H223 0.951 . S
C247 C248 1.366 . S
C247 C249 1.388 . S
C248 C247 1.366 . S
C248 C252 1.385 . S
C249 H224 0.951 . S
C249 C247 1.388 . S
C249 C250 1.366 . S
C250 C249 1.366 . S
C250 C251 1.414 . S
C250 C253 1.499 . S
C251 H225 0.950 . S
C251 C250 1.414 . S
C251 C252 1.374 . S
C252 H226 0.950 . S
C252 C248 1.385 . S
C252 C251 1.374 . S
C253 C250 1.499 . S
C253 C254 1.373 . S
C253 C255 1.389 . S
C254 H227 0.950 . S
C254 C240 1.377 . S
C254 C253 1.373 . S
C255 C239 1.377 . S
C255 C253 1.389 . S
C255 C256 1.524 . S
C256 C255 1.524 . S
C256 C257 1.397 . S
C256 C261 1.363 . S
C257 H228 0.950 . S
C257 C256 1.397 . S
C257 C258 1.334 . S
C258 H229 0.950 . S
C258 C257 1.334 . S
C258 C259 1.287 . S
C259 C258 1.287 . S
C259 C260 1.524 . S
C259 H262 0.999 . S
C260 H230 0.950 . S
C260 C259 1.524 . S
C260 C261 1.415 . S
C261 H231 0.950 . S
C261 C256 1.363 . S
C261 C260 1.415 . S
H262 C259 0.999 . S
H263 C244 0.913 . S
H264 C282 0.951 . S
H265 C284 0.951 . S
H266 C286 0.950 . S
H267 C287 0.950 . S
H268 C289 0.950 . S
H269 C292 0.950 . S
H270 C293 0.950 . S
H271 C295 0.950 . S
H272 C296 0.950 . S
H273 C297 0.951 . S
H274 C299 0.951 . S
H275 C301 0.950 . S
H276 C302 0.950 . S
H277 C304 0.950 . S
H278 C307 0.950 . S
H279 C308 0.950 . S
H280 C310 0.950 . S
H281 C311 0.950 . S
C282 H264 0.951 . S
C282 C283 1.366 . S
C282 C284 1.388 . S
C283 C282 1.366 . S
C283 C287 1.385 . S
C284 H265 0.951 . S
C284 C282 1.388 . S
C284 C285 1.366 . S
C285 C284 1.366 . S
C285 C286 1.414 . S
C285 C288 1.499 . S
C286 H266 0.950 . S
C286 C285 1.414 . S
C286 C287 1.374 . S
C287 H267 0.950 . S
C287 C283 1.385 . S
C287 C286 1.374 . S
C288 C285 1.499 . S
C288 C289 1.373 . S
C288 C290 1.389 . S
C289 H268 0.950 . S
C289 C288 1.373 . S
C289 C305 1.377 . S
C290 C288 1.389 . S
C290 C291 1.524 . S
C290 C304 1.377 . S
C291 C290 1.524 . S
C291 C292 1.397 . S
C291 C296 1.363 . S
C292 H269 0.950 . S
C292 C291 1.397 . S
C292 C293 1.334 . S
C293 H270 0.950 . S
C293 C292 1.334 . S
C293 C294 1.287 . S
C294 C293 1.287 . S
C294 C295 1.524 . S
C294 H313 0.913 . S
C295 H271 0.950 . S
C295 C294 1.524 . S
C295 C296 1.415 . S
C296 H272 0.950 . S
C296 C291 1.363 . S
C296 C295 1.415 . S
C297 H273 0.951 . S
C297 C298 1.366 . S
C297 C299 1.388 . S
C298 C297 1.366 . S
C298 C302 1.385 . S
C299 H274 0.951 . S
C299 C297 1.388 . S
C299 C300 1.366 . S
C300 C299 1.366 . S
C300 C301 1.414 . S
C300 C303 1.499 . S
C301 H275 0.950 . S
C301 C300 1.414 . S
C301 C302 1.374 . S
C302 H276 0.950 . S
C302 C298 1.385 . S
C302 C301 1.374 . S
C303 C300 1.499 . S
C303 C304 1.373 . S
C303 C305 1.389 . S
C304 H277 0.950 . S
C304 C290 1.377 . S
C304 C303 1.373 . S
C305 C289 1.377 . S
C305 C303 1.389 . S
C305 C306 1.524 . S
C306 C305 1.524 . S
C306 C307 1.397 . S
C306 C311 1.363 . S
C307 H278 0.950 . S
C307 C306 1.397 . S
C307 C308 1.334 . S
C308 H279 0.950 . S
C308 C307 1.334 . S
C308 C309 1.287 . S
C309 C308 1.287 . S
C309 C310 1.524 . S
C309 H312 0.999 . S
C310 H280 0.950 . S
C310 C309 1.524 . S
C310 C311 1.415 . S
C311 H281 0.950 . S
C311 C306 1.363 . S
C311 C310 1.415 . S
H312 C309 0.999 . S
H313 C294 0.913 . S
H314 C332 0.951 . S
H315 C334 0.951 . S
H316 C336 0.950 . S
H317 C337 0.950 . S
H318 C339 0.950 . S
H319 C342 0.950 . S
H320 C343 0.950 . S
H321 C345 0.950 . S
H322 C346 0.950 . S
H323 C347 0.951 . S
H324 C349 0.951 . S
H325 C351 0.950 . S
H326 C352 0.950 . S
H327 C354 0.950 . S
H328 C357 0.950 . S
H329 C358 0.950 . S
H330 C360 0.950 . S
H331 C361 0.950 . S
C332 H314 0.951 . S
C332 C333 1.366 . S
C332 C334 1.388 . S
C333 C332 1.366 . S
C333 C337 1.385 . S
C334 H315 0.951 . S
C334 C332 1.388 . S
C334 C335 1.366 . S
C335 C334 1.366 . S
C335 C336 1.414 . S
C335 C338 1.499 . S
C336 H316 0.950 . S
C336 C335 1.414 . S
C336 C337 1.374 . S
C337 H317 0.950 . S
C337 C333 1.385 . S
C337 C336 1.374 . S
C338 C335 1.499 . S
C338 C339 1.373 . S
C338 C340 1.389 . S
C339 H318 0.950 . S
C339 C338 1.373 . S
C339 C355 1.377 . S
C340 C338 1.389 . S
C340 C341 1.524 . S
C340 C354 1.377 . S
C341 C340 1.524 . S
C341 C342 1.397 . S
C341 C346 1.363 . S
C342 H319 0.950 . S
C342 C341 1.397 . S
C342 C343 1.334 . S
C343 H320 0.950 . S
C343 C342 1.334 . S
C343 C344 1.287 . S
C344 C343 1.287 . S
C344 C345 1.524 . S
C344 H363 0.913 . S
C345 H321 0.950 . S
C345 C344 1.524 . S
C345 C346 1.415 . S
C346 H322 0.950 . S
C346 C341 1.363 . S
C346 C345 1.415 . S
C347 H323 0.951 . S
C347 C348 1.366 . S
C347 C349 1.388 . S
C348 C347 1.366 . S
C348 C352 1.385 . S
C349 H324 0.951 . S
C349 C347 1.388 . S
C349 C350 1.366 . S
C350 C349 1.366 . S
C350 C351 1.414 . S
C350 C353 1.499 . S
C351 H325 0.950 . S
C351 C350 1.414 . S
C351 C352 1.374 . S
C352 H326 0.950 . S
C352 C348 1.385 . S
C352 C351 1.374 . S
C353 C350 1.499 . S
C353 C354 1.373 . S
C353 C355 1.389 . S
C354 H327 0.950 . S
C354 C340 1.377 . S
C354 C353 1.373 . S
C355 C339 1.377 . S
C355 C353 1.389 . S
C355 C356 1.524 . S
C356 C355 1.524 . S
C356 C357 1.397 . S
C356 C361 1.363 . S
C357 H328 0.950 . S
C357 C356 1.397 . S
C357 C358 1.334 . S
C358 H329 0.950 . S
C358 C357 1.334 . S
C358 C359 1.287 . S
C359 C358 1.287 . S
C359 C360 1.524 . S
C359 H362 0.999 . S
C360 H330 0.950 . S
C360 C359 1.524 . S
C360 C361 1.415 . S
C361 H331 0.950 . S
C361 C356 1.363 . S
C361 C360 1.415 . S
H362 C359 0.999 . S
H363 C344 0.913 . S
H364 C382 0.951 . S
H365 C384 0.951 . S
H366 C386 0.950 . S
H367 C387 0.950 . S
H368 C389 0.950 . S
H369 C392 0.950 . S
H370 C393 0.950 . S
H371 C395 0.950 . S
H372 C396 0.950 . S
H373 C397 0.951 . S
H374 C399 0.951 . S
H375 C401 0.950 . S
H376 C402 0.950 . S
H377 C404 0.950 . S
H378 C407 0.950 . S
H379 C408 0.950 . S
H380 C410 0.950 . S
H381 C411 0.950 . S
C382 H364 0.951 . S
C382 C383 1.366 . S
C382 C384 1.388 . S
C383 C382 1.366 . S
C383 C387 1.385 . S
C384 H365 0.951 . S
C384 C382 1.388 . S
C384 C385 1.366 . S
C385 C384 1.366 . S
C385 C386 1.414 . S
C385 C388 1.499 . S
C386 H366 0.950 . S
C386 C385 1.414 . S
C386 C387 1.374 . S
C387 H367 0.950 . S
C387 C383 1.385 . S
C387 C386 1.374 . S
C388 C385 1.499 . S
C388 C389 1.373 . S
C388 C390 1.389 . S
C389 H368 0.950 . S
C389 C388 1.373 . S
C389 C405 1.377 . S
C390 C388 1.389 . S
C390 C391 1.524 . S
C390 C404 1.377 . S
C391 C390 1.524 . S
C391 C392 1.397 . S
C391 C396 1.363 . S
C392 H369 0.950 . S
C392 C391 1.397 . S
C392 C393 1.334 . S
C393 H370 0.950 . S
C393 C392 1.334 . S
C393 C394 1.287 . S
C394 C393 1.287 . S
C394 C395 1.524 . S
C394 H413 0.913 . S
C395 H371 0.950 . S
C395 C394 1.524 . S
C395 C396 1.415 . S
C396 H372 0.950 . S
C396 C391 1.363 . S
C396 C395 1.415 . S
C397 H373 0.951 . S
C397 C398 1.366 . S
C397 C399 1.388 . S
C398 C397 1.366 . S
C398 C402 1.385 . S
C399 H374 0.951 . S
C399 C397 1.388 . S
C399 C400 1.366 . S
C400 C399 1.366 . S
C400 C401 1.414 . S
C400 C403 1.499 . S
C401 H375 0.950 . S
C401 C400 1.414 . S
C401 C402 1.374 . S
C402 H376 0.950 . S
C402 C398 1.385 . S
C402 C401 1.374 . S
C403 C400 1.499 . S
C403 C404 1.373 . S
C403 C405 1.389 . S
C404 H377 0.950 . S
C404 C390 1.377 . S
C404 C403 1.373 . S
C405 C389 1.377 . S
C405 C403 1.389 . S
C405 C406 1.524 . S
C406 C405 1.524 . S
C406 C407 1.397 . S
C406 C411 1.363 . S
C407 H378 0.950 . S
C407 C406 1.397 . S
C407 C408 1.334 . S
C408 H379 0.950 . S
C408 C407 1.334 . S
C408 C409 1.287 . S
C409 C408 1.287 . S
C409 C410 1.524 . S
C409 H412 0.999 . S
C410 H380 0.950 . S
C410 C409 1.524 . S
C410 C411 1.415 . S
C411 H381 0.950 . S
C411 C406 1.363 . S
C411 C410 1.415 . S
H412 C409 0.999 . S
H413 C394 0.913 . S
H414 C432 0.951 . S
H415 C434 0.951 . S
H416 C436 0.950 . S
H417 C437 0.950 . S
H418 C439 0.950 . S
H419 C442 0.950 . S
H420 C443 0.950 . S
H421 C445 0.950 . S
H422 C446 0.950 . S
H423 C447 0.951 . S
H424 C449 0.951 . S
H425 C451 0.950 . S
H426 C452 0.950 . S
H427 C454 0.950 . S
H428 C457 0.950 . S
H429 C458 0.950 . S
H430 C460 0.950 . S
H431 C461 0.950 . S
C432 H414 0.951 . S
C432 C433 1.366 . S
C432 C434 1.388 . S
C433 C432 1.366 . S
C433 C437 1.385 . S
C434 H415 0.951 . S
C434 C432 1.388 . S
C434 C435 1.366 . S
C435 C434 1.366 . S
C435 C436 1.414 . S
C435 C438 1.499 . S
C436 H416 0.950 . S
C436 C435 1.414 . S
C436 C437 1.374 . S
C437 H417 0.950 . S
C437 C433 1.385 . S
C437 C436 1.374 . S
C438 C435 1.499 . S
C438 C439 1.373 . S
C438 C440 1.389 . S
C439 H418 0.950 . S
C439 C438 1.373 . S
C439 C455 1.377 . S
C440 C438 1.389 . S
C440 C441 1.524 . S
C440 C454 1.377 . S
C441 C440 1.524 . S
C441 C442 1.397 . S
C441 C446 1.363 . S
C442 H419 0.950 . S
C442 C441 1.397 . S
C442 C443 1.334 . S
C443 H420 0.950 . S
C443 C442 1.334 . S
C443 C444 1.287 . S
C444 C443 1.287 . S
C444 C445 1.524 . S
C444 H463 0.913 . S
C445 H421 0.950 . S
C445 C444 1.524 . S
C445 C446 1.415 . S
C446 H422 0.950 . S
C446 C441 1.363 . S
C446 C445 1.415 . S
C447 H423 0.951 . S
C447 C448 1.366 . S
C447 C449 1.388 . S
C448 C447 1.366 . S
C448 C452 1.385 . S
C449 H424 0.951 . S
C449 C447 1.388 . S
C449 C450 1.366 . S
C450 C449 1.366 . S
C450 C451 1.414 . S
C450 C453 1.499 . S
C451 H425 0.950 . S
C451 C450 1.414 . S
C451 C452 1.374 . S
C452 H426 0.950 . S
C452 C448 1.385 . S
C452 C451 1.374 . S
C453 C450 1.499 . S
C453 C454 1.373 . S
C453 C455 1.389 . S
C454 H427 0.950 . S
C454 C440 1.377 . S
C454 C453 1.373 . S
C455 C439 1.377 . S
C455 C453 1.389 . S
C455 C456 1.524 . S
C456 C455 1.524 . S
C456 C457 1.397 . S
C456 C461 1.363 . S
C457 H428 0.950 . S
C457 C456 1.397 . S
C457 C458 1.334 . S
C458 H429 0.950 . S
C458 C457 1.334 . S
C458 C459 1.287 . S
C459 C458 1.287 . S
C459 C460 1.524 . S
C459 H462 0.999 . S
C460 H430 0.950 . S
C460 C459 1.524 . S
C460 C461 1.415 . S
C461 H431 0.950 . S
C461 C456 1.363 . S
C461 C460 1.415 . S
H462 C459 0.999 . S
H463 C444 0.913 . S
H464 C482 0.951 . S
H465 C484 0.951 . S
H466 C486 0.950 . S
H467 C487 0.950 . S
H468 C489 0.950 . S
H469 C492 0.950 . S
H470 C493 0.950 . S
H471 C495 0.950 . S
H472 C496 0.950 . S
H473 C497 0.951 . S
H474 C499 0.951 . S
H475 C501 0.950 . S
H476 C502 0.950 . S
H477 C504 0.950 . S
H478 C507 0.950 . S
H479 C508 0.950 . S
H480 C510 0.950 . S
H481 C511 0.950 . S
C482 H464 0.951 . S
C482 C483 1.366 . S
C482 C484 1.388 . S
C483 C482 1.366 . S
C483 C487 1.385 . S
C484 H465 0.951 . S
C484 C482 1.388 . S
C484 C485 1.366 . S
C485 C484 1.366 . S
C485 C486 1.414 . S
C485 C488 1.499 . S
C486 H466 0.950 . S
C486 C485 1.414 . S
C486 C487 1.374 . S
C487 H467 0.950 . S
C487 C483 1.385 . S
C487 C486 1.374 . S
C488 C485 1.499 . S
C488 C489 1.373 . S
C488 C490 1.389 . S
C489 H468 0.950 . S
C489 C488 1.373 . S
C489 C505 1.377 . S
C490 C488 1.389 . S
C490 C491 1.524 . S
C490 C504 1.377 . S
C491 C490 1.524 . S
C491 C492 1.397 . S
C491 C496 1.363 . S
C492 H469 0.950 . S
C492 C491 1.397 . S
C492 C493 1.334 . S
C493 H470 0.950 . S
C493 C492 1.334 . S
C493 C494 1.287 . S
C494 C493 1.287 . S
C494 C495 1.524 . S
C494 H513 0.913 . S
C495 H471 0.950 . S
C495 C494 1.524 . S
C495 C496 1.415 . S
C496 H472 0.950 . S
C496 C491 1.363 . S
C496 C495 1.415 . S
C497 H473 0.951 . S
C497 C498 1.366 . S
C497 C499 1.388 1_455 S
C498 C497 1.366 . S
C498 C502 1.385 1_455 S
C499 H474 0.951 . S
C499 C497 1.388 1_655 S
C499 C500 1.366 . S
C500 C499 1.366 . S
C500 C501 1.414 . S
C500 C503 1.499 . S
C501 H475 0.950 . S
C501 C500 1.414 . S
C501 C502 1.374 . S
C502 H476 0.950 . S
C502 C498 1.385 1_655 S
C502 C501 1.374 . S
C503 C500 1.499 . S
C503 C504 1.373 . S
C503 C505 1.389 . S
C504 H477 0.950 . S
C504 C490 1.377 . S
C504 C503 1.373 . S
C505 C489 1.377 . S
C505 C503 1.389 . S
C505 C506 1.524 . S
C506 C505 1.524 . S
C506 C507 1.397 . S
C506 C511 1.363 . S
C507 H478 0.950 . S
C507 C506 1.397 . S
C507 C508 1.334 . S
C508 H479 0.950 . S
C508 C507 1.334 . S
C508 C509 1.287 . S
C509 C508 1.287 . S
C509 C510 1.524 . S
C509 H512 0.999 . S
C510 H480 0.950 . S
C510 C509 1.524 . S
C510 C511 1.415 . S
C511 H481 0.950 . S
C511 C506 1.363 . S
C511 C510 1.415 . S
H512 C509 0.999 . S
H513 C494 0.913 . S
H514 C532 0.951 . S
H515 C534 0.951 . S
H516 C536 0.950 . S
H517 C537 0.950 . S
H518 C539 0.950 . S
H519 C542 0.950 . S
H520 C543 0.950 . S
H521 C545 0.950 . S
H522 C546 0.950 . S
H523 C547 0.951 . S
H524 C549 0.951 . S
H525 C551 0.950 . S
H526 C552 0.950 . S
H527 C554 0.950 . S
H528 C557 0.950 . S
H529 C558 0.950 . S
H530 C560 0.950 . S
H531 C561 0.950 . S
C532 H514 0.951 . S
C532 C533 1.366 . S
C532 C534 1.388 . S
C533 C532 1.366 . S
C533 C537 1.385 . S
C534 H515 0.951 . S
C534 C532 1.388 . S
C534 C535 1.366 . S
C535 C534 1.366 . S
C535 C536 1.414 . S
C535 C538 1.499 . S
C536 H516 0.950 . S
C536 C535 1.414 . S
C536 C537 1.374 . S
C537 H517 0.950 . S
C537 C533 1.385 . S
C537 C536 1.374 . S
C538 C535 1.499 . S
C538 C539 1.373 . S
C538 C540 1.389 . S
C539 H518 0.950 . S
C539 C538 1.373 . S
C539 C555 1.377 . S
C540 C538 1.389 . S
C540 C541 1.524 . S
C540 C554 1.377 . S
C541 C540 1.524 . S
C541 C542 1.397 . S
C541 C546 1.363 . S
C542 H519 0.950 . S
C542 C541 1.397 . S
C542 C543 1.334 . S
C543 H520 0.950 . S
C543 C542 1.334 . S
C543 C544 1.287 . S
C544 C543 1.287 . S
C544 C545 1.524 . S
C544 H563 0.913 . S
C545 H521 0.950 . S
C545 C544 1.524 . S
C545 C546 1.415 . S
C546 H522 0.950 . S
C546 C541 1.363 . S
C546 C545 1.415 . S
C547 H523 0.951 . S
C547 C548 1.366 . S
C547 C549 1.388 . S
C548 C547 1.366 . S
C548 C552 1.385 . S
C549 H524 0.951 . S
C549 C547 1.388 . S
C549 C550 1.366 . S
C550 C549 1.366 . S
C550 C551 1.414 . S
C550 C553 1.499 . S
C551 H525 0.950 . S
C551 C550 1.414 . S
C551 C552 1.374 . S
C552 H526 0.950 . S
C552 C548 1.385 . S
C552 C551 1.374 . S
C553 C550 1.499 . S
C553 C554 1.373 . S
C553 C555 1.389 . S
C554 H527 0.950 . S
C554 C540 1.377 . S
C554 C553 1.373 . S
C555 C539 1.377 . S
C555 C553 1.389 . S
C555 C556 1.524 . S
C556 C555 1.524 . S
C556 C557 1.397 . S
C556 C561 1.363 . S
C557 H528 0.950 . S
C557 C556 1.397 . S
C557 C558 1.334 . S
C558 H529 0.950 . S
C558 C557 1.334 . S
C558 C559 1.287 . S
C559 C558 1.287 . S
C559 C560 1.524 . S
C559 H562 0.999 . S
C560 H530 0.950 . S
C560 C559 1.524 . S
C560 C561 1.415 . S
C561 H531 0.950 . S
C561 C556 1.363 . S
C561 C560 1.415 . S
H562 C559 0.999 . S
H563 C544 0.913 . S
H564 C582 0.951 . S
H565 C584 0.951 . S
H566 C586 0.950 . S
H567 C587 0.950 . S
H568 C589 0.950 . S
H569 C592 0.950 . S
H570 C593 0.950 . S
H571 C595 0.950 . S
H572 C596 0.950 . S
H573 C597 0.951 . S
H574 C599 0.951 . S
H575 C601 0.950 . S
H576 C602 0.950 . S
H577 C604 0.950 . S
H578 C607 0.950 . S
H579 C608 0.950 . S
H580 C610 0.950 . S
H581 C611 0.950 . S
C582 H564 0.951 . S
C582 C583 1.366 . S
C582 C584 1.388 . S
C583 C582 1.366 . S
C583 C587 1.385 . S
C584 H565 0.951 . S
C584 C582 1.388 . S
C584 C585 1.366 . S
C585 C584 1.366 . S
C585 C586 1.414 . S
C585 C588 1.499 . S
C586 H566 0.950 . S
C586 C585 1.414 . S
C586 C587 1.374 . S
C587 H567 0.950 . S
C587 C583 1.385 . S
C587 C586 1.374 . S
C588 C585 1.499 . S
C588 C589 1.373 . S
C588 C590 1.389 . S
C589 H568 0.950 . S
C589 C588 1.373 . S
C589 C605 1.377 . S
C590 C588 1.389 . S
C590 C591 1.524 . S
C590 C604 1.377 . S
C591 C590 1.524 . S
C591 C592 1.397 . S
C591 C596 1.363 . S
C592 H569 0.950 . S
C592 C591 1.397 . S
C592 C593 1.334 . S
C593 H570 0.950 . S
C593 C592 1.334 . S
C593 C594 1.287 . S
C594 C593 1.287 . S
C594 C595 1.524 . S
C594 H613 0.913 . S
C595 H571 0.950 . S
C595 C594 1.524 . S
C595 C596 1.415 . S
C596 H572 0.950 . S
C596 C591 1.363 . S
C596 C595 1.415 . S
C597 H573 0.951 . S
C597 C598 1.366 . S
C597 C599 1.388 . S
C598 C597 1.366 . S
C598 C602 1.385 . S
C599 H574 0.951 . S
C599 C597 1.388 . S
C599 C600 1.366 . S
C600 C599 1.366 . S
C600 C601 1.414 . S
C600 C603 1.499 . S
C601 H575 0.950 . S
C601 C600 1.414 . S
C601 C602 1.374 . S
C602 H576 0.950 . S
C602 C598 1.385 . S
C602 C601 1.374 . S
C603 C600 1.499 . S
C603 C604 1.373 . S
C603 C605 1.389 . S
C604 H577 0.950 . S
C604 C590 1.377 . S
C604 C603 1.373 . S
C605 C589 1.377 . S
C605 C603 1.389 . S
C605 C606 1.524 . S
C606 C605 1.524 . S
C606 C607 1.397 . S
C606 C611 1.363 . S
C607 H578 0.950 . S
C607 C606 1.397 . S
C607 C608 1.334 . S
C608 H579 0.950 . S
C608 C607 1.334 . S
C608 C609 1.287 . S
C609 C608 1.287 . S
C609 C610 1.524 . S
C609 H612 0.999 . S
C610 H580 0.950 . S
C610 C609 1.524 . S
C610 C611 1.415 . S
C611 H581 0.950 . S
C611 C606 1.363 . S
C611 C610 1.415 . S
H612 C609 0.999 . S
H613 C594 0.913 . S
H614 C632 0.951 . S
H615 C634 0.951 . S
H616 C636 0.950 . S
H617 C637 0.950 . S
H618 C639 0.950 . S
H619 C642 0.950 . S
H620 C643 0.950 . S
H621 C645 0.950 . S
H622 C646 0.950 . S
H623 C647 0.951 . S
H624 C649 0.951 . S
H625 C651 0.950 . S
H626 C652 0.950 . S
H627 C654 0.950 . S
H628 C657 0.950 . S
H629 C658 0.950 . S
H630 C660 0.950 . S
H631 C661 0.950 . S
C632 H614 0.951 . S
C632 C633 1.366 . S
C632 C634 1.388 . S
C633 C632 1.366 . S
C633 C637 1.385 . S
C634 H615 0.951 . S
C634 C632 1.388 . S
C634 C635 1.366 . S
C635 C634 1.366 . S
C635 C636 1.414 . S
C635 C638 1.499 . S
C636 H616 0.950 . S
C636 C635 1.414 . S
C636 C637 1.374 . S
C637 H617 0.950 . S
C637 C633 1.385 . S
C637 C636 1.374 . S
C638 C635 1.499 . S
C638 C639 1.373 . S
C638 C640 1.389 . S
C639 H618 0.950 . S
C639 C638 1.373 . S
C639 C655 1.377 . S
C640 C638 1.389 . S
C640 C641 1.524 . S
C640 C654 1.377 . S
C641 C640 1.524 . S
C641 C642 1.397 . S
C641 C646 1.363 . S
C642 H619 0.950 . S
C642 C641 1.397 . S
C642 C643 1.334 . S
C643 H620 0.950 . S
C643 C642 1.334 . S
C643 C644 1.287 . S
C644 C643 1.287 . S
C644 C645 1.524 . S
C644 H663 0.913 . S
C645 H621 0.950 . S
C645 C644 1.524 . S
C645 C646 1.415 . S
C646 H622 0.950 . S
C646 C641 1.363 . S
C646 C645 1.415 . S
C647 H623 0.951 . S
C647 C648 1.366 . S
C647 C649 1.388 . S
C648 C647 1.366 . S
C648 C652 1.385 . S
C649 H624 0.951 . S
C649 C647 1.388 . S
C649 C650 1.366 . S
C650 C649 1.366 . S
C650 C651 1.414 . S
C650 C653 1.499 . S
C651 H625 0.950 . S
C651 C650 1.414 . S
C651 C652 1.374 . S
C652 H626 0.950 . S
C652 C648 1.385 . S
C652 C651 1.374 . S
C653 C650 1.499 . S
C653 C654 1.373 . S
C653 C655 1.389 . S
C654 H627 0.950 . S
C654 C640 1.377 . S
C654 C653 1.373 . S
C655 C639 1.377 . S
C655 C653 1.389 . S
C655 C656 1.524 . S
C656 C655 1.524 . S
C656 C657 1.397 . S
C656 C661 1.363 . S
C657 H628 0.950 . S
C657 C656 1.397 . S
C657 C658 1.334 . S
C658 H629 0.950 . S
C658 C657 1.334 . S
C658 C659 1.287 . S
C659 C658 1.287 . S
C659 C660 1.524 . S
C659 H662 0.999 . S
C660 H630 0.950 . S
C660 C659 1.524 . S
C660 C661 1.415 . S
C661 H631 0.950 . S
C661 C656 1.363 . S
C661 C660 1.415 . S
H662 C659 0.999 . S
H663 C644 0.913 . S
H664 C682 0.951 . S
H665 C684 0.951 . S
H666 C686 0.950 . S
H667 C687 0.950 . S
H668 C689 0.950 . S
H669 C692 0.950 . S
H670 C693 0.950 . S
H671 C695 0.950 . S
H672 C696 0.950 . S
H673 C697 0.951 . S
H674 C699 0.951 . S
H675 C701 0.950 . S
H676 C702 0.950 . S
H677 C704 0.950 . S
H678 C707 0.950 . S
H679 C708 0.950 . S
H680 C710 0.950 . S
H681 C711 0.950 . S
C682 H664 0.951 . S
C682 C683 1.366 . S
C682 C684 1.388 . S
C683 C682 1.366 . S
C683 C687 1.385 . S
C684 H665 0.951 . S
C684 C682 1.388 . S
C684 C685 1.366 . S
C685 C684 1.366 . S
C685 C686 1.414 . S
C685 C688 1.499 . S
C686 H666 0.950 . S
C686 C685 1.414 . S
C686 C687 1.374 . S
C687 H667 0.950 . S
C687 C683 1.385 . S
C687 C686 1.374 . S
C688 C685 1.499 . S
C688 C689 1.373 . S
C688 C690 1.389 . S
C689 H668 0.950 . S
C689 C688 1.373 . S
C689 C705 1.377 . S
C690 C688 1.389 . S
C690 C691 1.524 . S
C690 C704 1.377 . S
C691 C690 1.524 . S
C691 C692 1.397 . S
C691 C696 1.363 . S
C692 H669 0.950 . S
C692 C691 1.397 . S
C692 C693 1.334 . S
C693 H670 0.950 . S
C693 C692 1.334 . S
C693 C694 1.287 . S
C694 C693 1.287 . S
C694 C695 1.524 . S
C694 H713 0.913 . S
C695 H671 0.950 . S
C695 C694 1.524 . S
C695 C696 1.415 . S
C696 H672 0.950 . S
C696 C691 1.363 . S
C696 C695 1.415 . S
C697 H673 0.951 . S
C697 C698 1.366 . S
C697 C699 1.388 . S
C698 C697 1.366 . S
C698 C702 1.385 . S
C699 H674 0.951 . S
C699 C697 1.388 . S
C699 C700 1.366 . S
C700 C699 1.366 . S
C700 C701 1.414 . S
C700 C703 1.499 . S
C701 H675 0.950 . S
C701 C700 1.414 . S
C701 C702 1.374 . S
C702 H676 0.950 . S
C702 C698 1.385 . S
C702 C701 1.374 . S
C703 C700 1.499 . S
C703 C704 1.373 . S
C703 C705 1.389 . S
C704 H677 0.950 . S
C704 C690 1.377 . S
C704 C703 1.373 . S
C705 C689 1.377 . S
C705 C703 1.389 . S
C705 C706 1.524 . S
C706 C705 1.524 . S
C706 C707 1.397 . S
C706 C711 1.363 . S
C707 H678 0.950 . S
C707 C706 1.397 . S
C707 C708 1.334 . S
C708 H679 0.950 . S
C708 C707 1.334 . S
C708 C709 1.287 . S
C709 C708 1.287 . S
C709 C710 1.524 . S
C709 H712 0.999 . S
C710 H680 0.950 . S
C710 C709 1.524 . S
C710 C711 1.415 . S
C711 H681 0.950 . S
C711 C706 1.363 . S
C711 C710 1.415 . S
H712 C709 0.999 . S
H713 C694 0.913 . S
H714 C732 0.951 . S
H715 C734 0.951 . S
H716 C736 0.950 1_655 S
H717 C737 0.950 1_655 S
H718 C739 0.950 . S
H719 C742 0.950 . S
H720 C743 0.950 . S
H721 C745 0.950 . S
H722 C746 0.950 . S
H723 C747 0.951 . S
H724 C749 0.951 . S
H725 C751 0.950 . S
H726 C752 0.950 . S
H727 C754 0.950 . S
H728 C757 0.950 . S
H729 C758 0.950 . S
H730 C760 0.950 . S
H731 C761 0.950 . S
C732 H714 0.951 . S
C732 C733 1.366 . S
C732 C734 1.388 . S
C733 C732 1.366 . S
C733 C737 1.385 . S
C734 H715 0.951 . S
C734 C732 1.388 . S
C734 C735 1.366 . S
C735 C734 1.366 . S
C735 C736 1.414 . S
C735 C738 1.499 . S
C736 H716 0.950 1_455 S
C736 C735 1.414 . S
C736 C737 1.374 . S
C737 H717 0.950 1_455 S
C737 C733 1.385 . S
C737 C736 1.374 . S
C738 C735 1.499 . S
C738 C739 1.373 . S
C738 C740 1.389 . S
C739 H718 0.950 . S
C739 C738 1.373 . S
C739 C755 1.377 . S
C740 C738 1.389 . S
C740 C741 1.524 . S
C740 C754 1.377 . S
C741 C740 1.524 . S
C741 C742 1.397 . S
C741 C746 1.363 . S
C742 H719 0.950 . S
C742 C741 1.397 . S
C742 C743 1.334 . S
C743 H720 0.950 . S
C743 C742 1.334 . S
C743 C744 1.287 . S
C744 C743 1.287 . S
C744 C745 1.524 . S
C744 H763 0.913 . S
C745 H721 0.950 . S
C745 C744 1.524 . S
C745 C746 1.415 . S
C746 H722 0.950 . S
C746 C741 1.363 . S
C746 C745 1.415 . S
C747 H723 0.951 . S
C747 C748 1.366 . S
C747 C749 1.388 . S
C748 C747 1.366 . S
C748 C752 1.385 . S
C749 H724 0.951 . S
C749 C747 1.388 . S
C749 C750 1.366 . S
C750 C749 1.366 . S
C750 C751 1.414 . S
C750 C753 1.499 . S
C751 H725 0.950 . S
C751 C750 1.414 . S
C751 C752 1.374 . S
C752 H726 0.950 . S
C752 C748 1.385 . S
C752 C751 1.374 . S
C753 C750 1.499 . S
C753 C754 1.373 1_556 S
C753 C755 1.389 1_556 S
C754 H727 0.950 . S
C754 C740 1.377 . S
C754 C753 1.373 1_554 S
C755 C739 1.377 . S
C755 C753 1.389 1_554 S
C755 C756 1.524 1_554 S
C756 C755 1.524 1_556 S
C756 C757 1.397 . S
C756 C761 1.363 1_455 S
C757 H728 0.950 . S
C757 C756 1.397 . S
C757 C758 1.334 . S
C758 H729 0.950 . S
C758 C757 1.334 . S
C758 C759 1.287 . S
C759 C758 1.287 . S
C759 C760 1.524 1_455 S
C759 H762 0.999 . S
C760 H730 0.950 . S
C760 C759 1.524 1_655 S
C760 C761 1.415 . S
C761 H731 0.950 . S
C761 C756 1.363 1_655 S
C761 C760 1.415 . S
H762 C759 0.999 . S
H763 C744 0.913 . S
H764 C782 0.951 1_565 S
H765 C784 0.951 1_565 S
H766 C786 0.950 . S
H767 C787 0.950 . S
H768 C789 0.950 . S
H769 C792 0.950 . S
H770 C793 0.950 . S
H771 C795 0.954 . S
H772 C796 0.950 1_565 S
H773 C797 0.951 . S
H774 C799 0.951 . S
H775 C801 0.950 1_565 S
H776 C802 0.950 1_565 S
H777 C804 0.950 . S
H778 C807 0.950 1_565 S
H779 C808 0.934 1_565 S
H780 C810 0.950 . S
H781 C811 0.950 . S
C782 H764 0.951 1_545 S
C782 C783 1.366 . S
C782 C784 1.388 . S
C783 C782 1.366 . S
C783 C787 1.385 . S
C784 H765 0.951 1_545 S
C784 C782 1.388 . S
C784 C785 1.366 . S
C785 C784 1.366 . S
C785 C786 1.414 . S
C785 C788 1.499 . S
C786 H766 0.950 . S
C786 C785 1.414 . S
C786 C787 1.374 . S
C787 H767 0.950 . S
C787 C783 1.385 . S
C787 C786 1.374 . S
C788 C785 1.499 . S
C788 C789 1.373 . S
C788 C790 1.389 . S
C789 H768 0.950 . S
C789 C788 1.373 . S
C789 C805 1.377 . S
C790 C788 1.389 . S
C790 C791 1.524 . S
C790 C804 1.377 . S
C791 C790 1.524 . S
C791 C792 1.397 . S
C791 C796 1.363 . S
C792 H769 0.950 . S
C792 C791 1.397 . S
C792 C793 1.334 . S
C793 H770 0.950 . S
C793 C792 1.334 . S
C793 C794 1.287 . S
C794 C793 1.287 . S
C794 C795 1.524 . S
C794 H813 0.913 . S
C795 H771 0.954 . S
C795 C794 1.524 . S
C795 C796 1.415 . S
C796 H772 0.950 1_545 S
C796 C791 1.363 . S
C796 C795 1.415 . S
C797 H773 0.951 . S
C797 C798 1.366 . S
C797 C799 1.388 . S
C798 C797 1.366 . S
C798 C802 1.385 . S
C799 H774 0.951 . S
C799 C797 1.388 . S
C799 C800 1.366 . S
C800 C799 1.366 . S
C800 C801 1.414 . S
C800 C803 1.499 . S
C801 H775 0.950 1_545 S
C801 C800 1.414 . S
C801 C802 1.374 . S
C802 H776 0.950 1_545 S
C802 C798 1.385 . S
C802 C801 1.374 . S
C803 C800 1.499 . S
C803 C804 1.373 . S
C803 C805 1.389 . S
C804 H777 0.950 . S
C804 C790 1.377 . S
C804 C803 1.373 . S
C805 C789 1.377 . S
C805 C803 1.389 . S
C805 C806 1.524 . S
C806 C805 1.524 . S
C806 C807 1.397 . S
C806 C811 1.363 . S
C807 H778 0.950 1_545 S
C807 C806 1.397 . S
C807 C808 1.324 . S
C808 H779 0.934 1_545 S
C808 C807 1.324 . S
C808 C809 1.314 . S
C809 C808 1.314 . S
C809 C810 1.524 . S
C809 H812 0.999 . S
C810 H780 0.950 . S
C810 C809 1.524 . S
C810 C811 1.415 . S
C811 H781 0.950 . S
C811 C806 1.363 . S
C811 C810 1.415 . S
H812 C809 0.999 . S
H813 C794 0.913 . S
H814 C832 0.951 . S
H815 C834 0.951 . S
H816 C836 0.950 . S
H817 C837 0.950 . S
H818 C839 0.950 . S
H819 C842 0.950 . S
H820 C843 0.950 . S
H821 C845 0.950 . S
H822 C846 0.950 . S
H823 C847 0.951 . S
H824 C849 0.951 . S
H825 C851 0.950 . S
H826 C852 0.950 . S
H827 C854 0.950 . S
H828 C857 0.950 . S
H829 C858 0.950 . S
H830 C860 0.950 . S
H831 C861 0.950 . S
C832 H814 0.951 . S
C832 C833 1.366 . S
C832 C834 1.388 . S
C833 C832 1.366 . S
C833 C837 1.385 . S
C834 H815 0.951 . S
C834 C832 1.388 . S
C834 C835 1.366 . S
C835 C834 1.366 . S
C835 C836 1.414 . S
C835 C838 1.499 . S
C836 H816 0.950 . S
C836 C835 1.414 . S
C836 C837 1.374 . S
C837 H817 0.950 . S
C837 C833 1.385 . S
C837 C836 1.374 . S
C838 C835 1.499 . S
C838 C839 1.373 . S
C838 C840 1.389 . S
C839 H818 0.950 . S
C839 C838 1.373 . S
C839 C855 1.377 . S
C840 C838 1.389 . S
C840 C841 1.524 . S
C840 C854 1.377 . S
C841 C840 1.524 . S
C841 C842 1.397 . S
C841 C846 1.363 . S
C842 H819 0.950 . S
C842 C841 1.397 . S
C842 C843 1.334 . S
C843 H820 0.950 . S
C843 C842 1.334 . S
C843 C844 1.287 . S
C844 C843 1.287 . S
C844 C845 1.524 . S
C844 H863 0.913 . S
C845 H821 0.950 . S
C845 C844 1.524 . S
C845 C846 1.415 . S
C846 H822 0.950 . S
C846 C841 1.363 . S
C846 C845 1.415 . S
C847 H823 0.951 . S
C847 C848 1.366 . S
C847 C849 1.388 . S
C848 C847 1.366 . S
C848 C852 1.385 . S
C849 H824 0.951 . S
C849 C847 1.388 . S
C849 C850 1.366 . S
C850 C849 1.366 . S
C850 C851 1.414 . S
C850 C853 1.499 . S
C851 H825 0.950 . S
C851 C850 1.414 . S
C851 C852 1.374 . S
C852 H826 0.950 . S
C852 C848 1.385 . S
C852 C851 1.374 . S
C853 C850 1.499 . S
C853 C854 1.373 . S
C853 C855 1.389 . S
C854 H827 0.950 . S
C854 C840 1.377 . S
C854 C853 1.373 . S
C855 C839 1.377 . S
C855 C853 1.389 . S
C855 C856 1.524 . S
C856 C855 1.524 . S
C856 C857 1.397 . S
C856 C861 1.363 . S
C857 H828 0.950 . S
C857 C856 1.397 . S
C857 C858 1.334 . S
C858 H829 0.950 . S
C858 C857 1.334 . S
C858 C859 1.287 . S
C859 C858 1.287 . S
C859 C860 1.524 . S
C859 H862 0.999 . S
C860 H830 0.950 . S
C860 C859 1.524 . S
C860 C861 1.415 . S
C861 H831 0.950 . S
C861 C856 1.363 . S
C861 C860 1.415 . S
H862 C859 0.999 . S
H863 C844 0.913 . S
H864 C882 0.951 . S
H865 C884 0.951 . S
H866 C886 0.950 . S
H867 C887 0.950 . S
H868 C889 0.950 . S
H869 C892 0.950 . S
H870 C893 0.950 . S
H871 C895 0.950 . S
H872 C896 0.950 . S
H873 C897 0.951 . S
H874 C899 0.951 . S
H875 C901 0.950 . S
H876 C902 0.950 . S
H877 C904 0.950 . S
H878 C907 0.950 . S
H879 C908 0.950 . S
H880 C910 0.950 . S
H881 C911 0.950 . S
C882 H864 0.951 . S
C882 C883 1.366 1_565 S
C882 C884 1.388 . S
C883 C882 1.366 1_545 S
C883 C887 1.385 . S
C884 H865 0.951 . S
C884 C882 1.388 . S
C884 C885 1.366 1_565 S
C885 C884 1.366 1_545 S
C885 C886 1.414 . S
C885 C888 1.499 . S
C886 H866 0.950 . S
C886 C885 1.414 . S
C886 C887 1.374 . S
C887 H867 0.950 . S
C887 C883 1.385 . S
C887 C886 1.374 . S
C888 C885 1.499 . S
C888 C889 1.373 . S
C888 C890 1.389 1_545 S
C889 H868 0.950 . S
C889 C888 1.373 . S
C889 C905 1.377 . S
C890 C888 1.389 1_565 S
C890 C891 1.524 . S
C890 C904 1.377 . S
C891 C890 1.524 . S
C891 C892 1.397 . S
C891 C896 1.363 . S
C892 H869 0.950 . S
C892 C891 1.397 . S
C892 C893 1.334 . S
C893 H870 0.950 . S
C893 C892 1.334 . S
C893 C894 1.287 . S
C894 C893 1.287 . S
C894 C895 1.524 . S
C894 H913 0.913 . S
C895 H871 0.950 . S
C895 C894 1.524 . S
C895 C896 1.415 . S
C896 H872 0.950 . S
C896 C891 1.363 . S
C896 C895 1.415 . S
C897 H873 0.951 . S
C897 C898 1.366 . S
C897 C899 1.388 . S
C898 C897 1.366 . S
C898 C902 1.385 1_545 S
C899 H874 0.951 . S
C899 C897 1.388 . S
C899 C900 1.366 . S
C900 C899 1.366 . S
C900 C901 1.414 1_545 S
C900 C903 1.499 . S
C901 H875 0.950 . S
C901 C900 1.414 1_565 S
C901 C902 1.374 . S
C902 H876 0.950 . S
C902 C898 1.385 1_565 S
C902 C901 1.374 . S
C903 C900 1.499 . S
C903 C904 1.373 1_545 S
C903 C905 1.389 . S
C904 H877 0.950 . S
C904 C890 1.377 . S
C904 C903 1.373 1_565 S
C905 C889 1.377 . S
C905 C903 1.389 . S
C905 C906 1.524 . S
C906 C905 1.524 . S
C906 C907 1.397 . S
C906 C911 1.363 . S
C907 H878 0.950 . S
C907 C906 1.397 . S
C907 C908 1.334 . S
C908 H879 0.950 . S
C908 C907 1.334 . S
C908 C909 1.287 . S
C909 C908 1.287 . S
C909 C910 1.524 . S
C909 H912 0.999 . S
C910 H880 0.950 . S
C910 C909 1.524 . S
C910 C911 1.415 . S
C911 H881 0.950 . S
C911 C906 1.363 . S
C911 C910 1.415 . S
H912 C909 0.999 . S
H913 C894 0.913 . S
H914 C932 0.951 . S
H915 C934 0.951 . S
H916 C936 0.950 . S
H917 C937 0.950 . S
H918 C939 0.950 . S
H919 C942 0.950 . S
H920 C943 0.950 . S
H921 C945 0.950 . S
H922 C946 0.950 . S
H923 C947 0.951 . S
H924 C949 0.951 . S
H925 C951 0.950 . S
H926 C952 0.950 . S
H927 C954 0.950 . S
H928 C957 0.950 . S
H929 C958 0.950 . S
H930 C960 0.950 . S
H931 C961 0.950 1_556 S
C932 H914 0.951 . S
C932 C933 1.366 . S
C932 C934 1.388 . S
C933 C932 1.366 . S
C933 C937 1.385 . S
C934 H915 0.951 . S
C934 C932 1.388 . S
C934 C935 1.366 . S
C935 C934 1.366 . S
C935 C936 1.414 . S
C935 C938 1.499 . S
C936 H916 0.950 . S
C936 C935 1.414 . S
C936 C937 1.374 . S
C937 H917 0.950 . S
C937 C933 1.385 . S
C937 C936 1.374 . S
C938 C935 1.499 . S
C938 C939 1.373 . S
C938 C940 1.389 . S
C939 H918 0.950 . S
C939 C938 1.373 . S
C939 C955 1.377 . S
C940 C938 1.389 . S
C940 C941 1.524 . S
C940 C954 1.377 . S
C941 C940 1.524 . S
C941 C942 1.397 . S
C941 C946 1.363 . S
C942 H919 0.950 . S
C942 C941 1.397 . S
C942 C943 1.334 . S
C943 H920 0.950 . S
C943 C942 1.334 . S
C943 C944 1.287 . S
C944 C943 1.287 . S
C944 C945 1.524 . S
C944 H963 0.913 . S
C945 H921 0.950 . S
C945 C944 1.524 . S
C945 C946 1.415 . S
C946 H922 0.950 . S
C946 C941 1.363 . S
C946 C945 1.415 . S
C947 H923 0.951 . S
C947 C948 1.366 . S
C947 C949 1.388 . S
C948 C947 1.366 . S
C948 C952 1.385 . S
C949 H924 0.951 . S
C949 C947 1.388 . S
C949 C950 1.366 . S
C950 C949 1.366 . S
C950 C951 1.414 . S
C950 C953 1.540 . S
C951 H925 0.950 . S
C951 C950 1.414 . S
C951 C952 1.374 . S
C952 H926 0.950 . S
C952 C948 1.385 . S
C952 C951 1.374 . S
C953 C950 1.540 . S
C953 C954 1.350 1_554 S
C953 C955 1.372 1_554 S
C954 H927 0.950 . S
C954 C940 1.377 . S
C954 C953 1.350 1_556 S
C955 C939 1.377 . S
C955 C953 1.372 1_556 S
C955 C956 1.524 1_556 S
C956 C955 1.524 1_554 S
C956 C957 1.397 . S
C956 C961 1.363 . S
C957 H928 0.950 . S
C957 C956 1.397 . S
C957 C958 1.334 . S
C958 H929 0.950 . S
C958 C957 1.334 . S
C958 C959 1.287 . S
C959 C958 1.287 . S
C959 C960 1.524 . S
C959 H962 0.999 . S
C960 H930 0.950 . S
C960 C959 1.524 . S
C960 C961 1.415 . S
C961 H931 0.950 1_554 S
C961 C956 1.363 . S
C961 C960 1.415 . S
H962 C959 0.999 . S
H963 C944 0.913 . S
H964 C982 0.951 . S
H965 C984 0.951 . S
H966 C986 0.950 . S
H967 C987 0.950 . S
H968 C989 0.950 . S
H969 C992 0.950 . S
H970 C993 0.950 . S
H971 C995 0.950 . S
H972 C996 0.950 . S
H973 C997 0.951 . S
H974 C999 0.951 . S
H975 C1001 0.950 . S
H976 C1002 0.950 . S
H977 C1004 0.950 . S
H978 C1007 0.950 . S
H979 C1008 0.950 . S
H980 C1010 0.950 . S
H981 C1011 0.950 . S
C982 H964 0.951 . S
C982 C983 1.366 1_655 S
C982 C984 1.388 . S
C983 C982 1.366 1_455 S
C983 C987 1.385 . S
C984 H965 0.951 . S
C984 C982 1.388 . S
C984 C985 1.366 1_655 S
C985 C984 1.366 1_455 S
C985 C986 1.414 . S
C985 C988 1.499 . S
C986 H966 0.950 . S
C986 C985 1.414 . S
C986 C987 1.374 . S
C987 H967 0.950 . S
C987 C983 1.385 . S
C987 C986 1.374 . S
C988 C985 1.499 . S
C988 C989 1.373 . S
C988 C990 1.389 1_455 S
C989 H968 0.950 . S
C989 C988 1.373 . S
C989 C1005 1.377 . S
C990 C988 1.389 1_655 S
C990 C991 1.524 . S
C990 C1004 1.377 . S
C991 C990 1.524 . S
C991 C992 1.397 . S
C991 C996 1.363 . S
C992 H969 0.950 . S
C992 C991 1.397 . S
C992 C993 1.334 . S
C993 H970 0.950 . S
C993 C992 1.334 . S
C993 C994 1.287 . S
C994 C993 1.287 . S
C994 C995 1.524 . S
C994 H1013 0.913 . S
C995 H971 0.950 . S
C995 C994 1.524 . S
C995 C996 1.415 . S
C996 H972 0.950 . S
C996 C991 1.363 . S
C996 C995 1.415 . S
C997 H973 0.951 . S
C997 C998 1.366 . S
C997 C999 1.388 . S
C998 C997 1.366 . S
C998 C1002 1.385 1_455 S
C999 H974 0.951 . S
C999 C997 1.388 . S
C999 C1000 1.366 . S
C1000 C999 1.366 . S
C1000 C1001 1.414 1_455 S
C1000 C1003 1.499 . S
C1001 H975 0.950 . S
C1001 C1000 1.414 1_655 S
C1001 C1002 1.374 . S
C1002 H976 0.950 . S
C1002 C998 1.385 1_655 S
C1002 C1001 1.374 . S
C1003 C1000 1.499 . S
C1003 C1004 1.373 1_455 S
C1003 C1005 1.389 . S
C1004 H977 0.950 . S
C1004 C990 1.377 . S
C1004 C1003 1.373 1_655 S
C1005 C989 1.377 . S
C1005 C1003 1.389 . S
C1005 C1006 1.524 . S
C1006 C1005 1.524 . S
C1006 C1007 1.397 . S
C1006 C1011 1.363 . S
C1007 H978 0.950 . S
C1007 C1006 1.397 . S
C1007 C1008 1.334 . S
C1008 H979 0.950 . S
C1008 C1007 1.334 . S
C1008 C1009 1.287 . S
C1009 C1008 1.287 . S
C1009 C1010 1.524 . S
C1009 H1012 0.999 . S
C1010 H980 0.950 . S
C1010 C1009 1.524 . S
C1010 C1011 1.415 . S
C1011 H981 0.950 . S
C1011 C1006 1.363 . S
C1011 C1010 1.415 . S
H1012 C1009 0.999 . S
H1013 C994 0.913 . S
C133 C8 1.862 . S
C148 C109 1.915 . S
C183 C26 1.242 . S
C198 C91 1.259 . S
C233 C48 1.380 . S
C248 C103 1.416 . S
C283 C19 1.629 . S
C298 C112 1.708 . S
C348 C94 1.361 . S
C333 C36 1.336 . S
C398 C100 1.590 . S
C383 C59 1.500 . S
C433 C28 1.411 . S
C448 C73 1.456 . S
C483 C46 1.101 . S
C498 C82 1.116 . S
C533 C16 1.413 . S
C548 C64 1.444 1_565 S
C598 C76 1.533 . S
C583 C39 1.461 . S
C648 C85 0.917 . S
C633 C56 0.903 . S
C683 C6 1.266 . S
C698 C67 1.272 . S
C748 C83 1.435 . S
C733 C9 1.404 . S
C783 C21 1.478 . S
C798 C65 1.499 . S
C833 C49 1.463 . S
C848 C74 1.483 . S
C898 C101 1.460 . S
C883 C29 1.444 . S
C948 C110 1.584 . S
C933 C41 1.566 . S
C983 C1 1.489 . S
C998 C92 1.507 . S
