# Generated by pormake.
# Topology ptr, (4,4)-cn, num edge types: 1
# Building blocks:
#     Node 0, Type 0, BuildingBlock: CEKHIL_clean_sbu_0, # of connection points: 4
#     Node 1, Type 0, BuildingBlock: CEKHIL_clean_sbu_0, # of connection points: 4
#     Node 2, Type 0, BuildingBlock: CEKHIL_clean_sbu_0, # of connection points: 4
#     Node 3, Type 0, BuildingBlock: CEKHIL_clean_sbu_0, # of connection points: 4
#     Node 4, Type 0, BuildingBlock: CEKHIL_clean_sbu_0, # of connection points: 4
#     Node 5, Type 0, BuildingBlock: CEKHIL_clean_sbu_0, # of connection points: 4
#     Node 6, Type 0, BuildingBlock: CEKHIL_clean_sbu_0, # of connection points: 4
#     Node 7, Type 0, BuildingBlock: CEKHIL_clean_sbu_0, # of connection points: 4
#     Node 8, Type 0, BuildingBlock: CEKHIL_clean_sbu_0, # of connection points: 4
#     Node 9, Type 0, BuildingBlock: CEKHIL_clean_sbu_0, # of connection points: 4
#     Node 10, Type 0, BuildingBlock: CEKHIL_clean_sbu_0, # of connection points: 4
#     Node 11, Type 0, BuildingBlock: CEKHIL_clean_sbu_0, # of connection points: 4
#     Node 12, Type 0, BuildingBlock: CEKHIL_clean_sbu_0, # of connection points: 4
#     Node 13, Type 0, BuildingBlock: CEKHIL_clean_sbu_0, # of connection points: 4
#     Node 14, Type 0, BuildingBlock: CEKHIL_clean_sbu_0, # of connection points: 4
#     Node 15, Type 0, BuildingBlock: CEKHIL_clean_sbu_0, # of connection points: 4
#     Node 16, Type 0, BuildingBlock: CEKHIL_clean_sbu_0, # of connection points: 4
#     Node 17, Type 0, BuildingBlock: CEKHIL_clean_sbu_0, # of connection points: 4
#     Node 18, Type 1, BuildingBlock: MUDLON_clean_linker_0, # of connection points: 4
#     Node 19, Type 1, BuildingBlock: MUDLON_clean_linker_0, # of connection points: 4
#     Node 20, Type 1, BuildingBlock: MUDLON_clean_linker_0, # of connection points: 4
#     Node 21, Type 1, BuildingBlock: MUDLON_clean_linker_0, # of connection points: 4
#     Node 22, Type 1, BuildingBlock: MUDLON_clean_linker_0, # of connection points: 4
#     Node 23, Type 1, BuildingBlock: MUDLON_clean_linker_0, # of connection points: 4
#     Node 24, Type 1, BuildingBlock: MUDLON_clean_linker_0, # of connection points: 4
#     Node 25, Type 1, BuildingBlock: MUDLON_clean_linker_0, # of connection points: 4
#     Node 26, Type 1, BuildingBlock: MUDLON_clean_linker_0, # of connection points: 4
#     Node 27, Type 1, BuildingBlock: MUDLON_clean_linker_0, # of connection points: 4
#     Node 28, Type 1, BuildingBlock: MUDLON_clean_linker_0, # of connection points: 4
#     Node 29, Type 1, BuildingBlock: MUDLON_clean_linker_0, # of connection points: 4
#     Node 30, Type 1, BuildingBlock: MUDLON_clean_linker_0, # of connection points: 4
#     Node 31, Type 1, BuildingBlock: MUDLON_clean_linker_0, # of connection points: 4
#     Node 32, Type 1, BuildingBlock: MUDLON_clean_linker_0, # of connection points: 4
#     Node 33, Type 1, BuildingBlock: MUDLON_clean_linker_0, # of connection points: 4
#     Node 34, Type 1, BuildingBlock: MUDLON_clean_linker_0, # of connection points: 4
#     Node 35, Type 1, BuildingBlock: MUDLON_clean_linker_0, # of connection points: 4
#     Edge 36, Type (0, 1), BuildingBlock: XIVTED_clean_linker_0, # of connection points: 2
#     Edge 37, Type (0, 1), BuildingBlock: XIVTED_clean_linker_0, # of connection points: 2
#     Edge 38, Type (0, 1), BuildingBlock: XIVTED_clean_linker_0, # of connection points: 2
#     Edge 39, Type (0, 1), BuildingBlock: XIVTED_clean_linker_0, # of connection points: 2
#     Edge 40, Type (0, 1), BuildingBlock: XIVTED_clean_linker_0, # of connection points: 2
#     Edge 41, Type (0, 1), BuildingBlock: XIVTED_clean_linker_0, # of connection points: 2
#     Edge 42, Type (0, 1), BuildingBlock: XIVTED_clean_linker_0, # of connection points: 2
#     Edge 43, Type (0, 1), BuildingBlock: XIVTED_clean_linker_0, # of connection points: 2
#     Edge 44, Type (0, 1), BuildingBlock: XIVTED_clean_linker_0, # of connection points: 2
#     Edge 45, Type (0, 1), BuildingBlock: XIVTED_clean_linker_0, # of connection points: 2
#     Edge 46, Type (0, 1), BuildingBlock: XIVTED_clean_linker_0, # of connection points: 2
#     Edge 47, Type (0, 1), BuildingBlock: XIVTED_clean_linker_0, # of connection points: 2
#     Edge 48, Type (0, 1), BuildingBlock: XIVTED_clean_linker_0, # of connection points: 2
#     Edge 49, Type (0, 1), BuildingBlock: XIVTED_clean_linker_0, # of connection points: 2
#     Edge 50, Type (0, 1), BuildingBlock: XIVTED_clean_linker_0, # of connection points: 2
#     Edge 51, Type (0, 1), BuildingBlock: XIVTED_clean_linker_0, # of connection points: 2
#     Edge 52, Type (0, 1), BuildingBlock: XIVTED_clean_linker_0, # of connection points: 2
#     Edge 53, Type (0, 1), BuildingBlock: XIVTED_clean_linker_0, # of connection points: 2
#     Edge 54, Type (0, 1), BuildingBlock: XIVTED_clean_linker_0, # of connection points: 2
#     Edge 55, Type (0, 1), BuildingBlock: XIVTED_clean_linker_0, # of connection points: 2
#     Edge 56, Type (0, 1), BuildingBlock: XIVTED_clean_linker_0, # of connection points: 2
#     Edge 57, Type (0, 1), BuildingBlock: XIVTED_clean_linker_0, # of connection points: 2
#     Edge 58, Type (0, 1), BuildingBlock: XIVTED_clean_linker_0, # of connection points: 2
#     Edge 59, Type (0, 1), BuildingBlock: XIVTED_clean_linker_0, # of connection points: 2
#     Edge 60, Type (0, 1), BuildingBlock: XIVTED_clean_linker_0, # of connection points: 2
#     Edge 61, Type (0, 1), BuildingBlock: XIVTED_clean_linker_0, # of connection points: 2
#     Edge 62, Type (0, 1), BuildingBlock: XIVTED_clean_linker_0, # of connection points: 2
#     Edge 63, Type (0, 1), BuildingBlock: XIVTED_clean_linker_0, # of connection points: 2
#     Edge 64, Type (0, 1), BuildingBlock: XIVTED_clean_linker_0, # of connection points: 2
#     Edge 65, Type (0, 1), BuildingBlock: XIVTED_clean_linker_0, # of connection points: 2
#     Edge 66, Type (0, 1), BuildingBlock: XIVTED_clean_linker_0, # of connection points: 2
#     Edge 67, Type (0, 1), BuildingBlock: XIVTED_clean_linker_0, # of connection points: 2
#     Edge 68, Type (0, 1), BuildingBlock: XIVTED_clean_linker_0, # of connection points: 2
#     Edge 69, Type (0, 1), BuildingBlock: XIVTED_clean_linker_0, # of connection points: 2
#     Edge 70, Type (0, 1), BuildingBlock: XIVTED_clean_linker_0, # of connection points: 2
#     Edge 71, Type (0, 1), BuildingBlock: XIVTED_clean_linker_0, # of connection points: 2
#     Edge 72, Type (0, 1), BuildingBlock: XIVTED_clean_linker_0, # of connection points: 2
#     Edge 73, Type (0, 1), BuildingBlock: XIVTED_clean_linker_0, # of connection points: 2
#     Edge 74, Type (0, 1), BuildingBlock: XIVTED_clean_linker_0, # of connection points: 2
#     Edge 75, Type (0, 1), BuildingBlock: XIVTED_clean_linker_0, # of connection points: 2
#     Edge 76, Type (0, 1), BuildingBlock: XIVTED_clean_linker_0, # of connection points: 2
#     Edge 77, Type (0, 1), BuildingBlock: XIVTED_clean_linker_0, # of connection points: 2
#     Edge 78, Type (0, 1), BuildingBlock: XIVTED_clean_linker_0, # of connection points: 2
#     Edge 79, Type (0, 1), BuildingBlock: XIVTED_clean_linker_0, # of connection points: 2
#     Edge 80, Type (0, 1), BuildingBlock: XIVTED_clean_linker_0, # of connection points: 2
#     Edge 81, Type (0, 1), BuildingBlock: XIVTED_clean_linker_0, # of connection points: 2
#     Edge 82, Type (0, 1), BuildingBlock: XIVTED_clean_linker_0, # of connection points: 2
#     Edge 83, Type (0, 1), BuildingBlock: XIVTED_clean_linker_0, # of connection points: 2
#     Edge 84, Type (0, 1), BuildingBlock: XIVTED_clean_linker_0, # of connection points: 2
#     Edge 85, Type (0, 1), BuildingBlock: XIVTED_clean_linker_0, # of connection points: 2
#     Edge 86, Type (0, 1), BuildingBlock: XIVTED_clean_linker_0, # of connection points: 2
#     Edge 87, Type (0, 1), BuildingBlock: XIVTED_clean_linker_0, # of connection points: 2
#     Edge 88, Type (0, 1), BuildingBlock: XIVTED_clean_linker_0, # of connection points: 2
#     Edge 89, Type (0, 1), BuildingBlock: XIVTED_clean_linker_0, # of connection points: 2
#     Edge 90, Type (0, 1), BuildingBlock: XIVTED_clean_linker_0, # of connection points: 2
#     Edge 91, Type (0, 1), BuildingBlock: XIVTED_clean_linker_0, # of connection points: 2
#     Edge 92, Type (0, 1), BuildingBlock: XIVTED_clean_linker_0, # of connection points: 2
#     Edge 93, Type (0, 1), BuildingBlock: XIVTED_clean_linker_0, # of connection points: 2
#     Edge 94, Type (0, 1), BuildingBlock: XIVTED_clean_linker_0, # of connection points: 2
#     Edge 95, Type (0, 1), BuildingBlock: XIVTED_clean_linker_0, # of connection points: 2
#     Edge 96, Type (0, 1), BuildingBlock: XIVTED_clean_linker_0, # of connection points: 2
#     Edge 97, Type (0, 1), BuildingBlock: XIVTED_clean_linker_0, # of connection points: 2
#     Edge 98, Type (0, 1), BuildingBlock: XIVTED_clean_linker_0, # of connection points: 2
#     Edge 99, Type (0, 1), BuildingBlock: XIVTED_clean_linker_0, # of connection points: 2
#     Edge 100, Type (0, 1), BuildingBlock: XIVTED_clean_linker_0, # of connection points: 2
#     Edge 101, Type (0, 1), BuildingBlock: XIVTED_clean_linker_0, # of connection points: 2
#     Edge 102, Type (0, 1), BuildingBlock: XIVTED_clean_linker_0, # of connection points: 2
#     Edge 103, Type (0, 1), BuildingBlock: XIVTED_clean_linker_0, # of connection points: 2
#     Edge 104, Type (0, 1), BuildingBlock: XIVTED_clean_linker_0, # of connection points: 2
#     Edge 105, Type (0, 1), BuildingBlock: XIVTED_clean_linker_0, # of connection points: 2
#     Edge 106, Type (0, 1), BuildingBlock: XIVTED_clean_linker_0, # of connection points: 2
#     Edge 107, Type (0, 1), BuildingBlock: XIVTED_clean_linker_0, # of connection points: 2
# Relax obj value: 0.033
# Max RMSD: 0.098
# Mean RMSD: 0.064
data_MOF--net-ptr--node1-CEKHIL_clean_sbu_0--node2-MUDLON_clean_linker_0--edge1-XIVTED_clean_linker_0
_symmetry_space_group_name_H-M    P1
_symmetry_Int_Tables_number       1
_symmetry_cell_setting            triclinic
loop_
_symmetry_equiv_pos_as_xyz
'x, y, z'
_cell_length_a     105.66149
_cell_length_b     104.60158
_cell_length_c     64.507
_cell_angle_alpha  90.891166
_cell_angle_beta   89.56542
_cell_angle_gamma 120.89776
loop_
_atom_site_label
_atom_site_type_symbol
_atom_site_fract_x
_atom_site_fract_y
_atom_site_fract_z
_atom_type_partial_charge
Co0 Co 0.99838 0.35593 0.01494 0.0
O1 O 0.00583 0.34659 0.03227 0.0
O2 O 0.01981 0.36761 0.01553 0.0
C3 C 0.98223 0.335 0.99757 0.0
O4 O 0.99433 0.36844 0.99508 0.0
Co5 Co 0.96563 0.34684 0.01929 0.0
O6 O 0.96995 0.35989 0.9951 0.0
C7 C 0.98689 0.36669 0.05071 0.0
C8 C 0.01894 0.35738 0.02774 0.0
C9 C 0.98295 0.36858 0.98833 0.0
O10 O 0.99739 0.3675 0.03951 0.0
O11 O 0.97325 0.35803 0.04628 0.0
O12 O 0.996 0.34257 0.9921 0.0
O13 O 0.97894 0.33951 0.01443 0.0
Co14 Co 0.64524 0.64955 0.0102 0.0
O15 O 0.66067 0.66109 0.99081 0.0
O16 O 0.65751 0.6409 0.00631 0.0
C17 C 0.64824 0.66925 0.02892 0.0
O18 O 0.63111 0.6352 0.03169 0.0
Co19 Co 0.61789 0.65282 0.01373 0.0
O20 O 0.61345 0.6405 0.03882 0.0
C21 C 0.62028 0.63578 0.97866 0.0
C22 C 0.66525 0.65189 0.99381 0.0
C23 C 0.61992 0.63329 0.0423 0.0
O24 O 0.63184 0.63687 0.98695 0.0
O25 O 0.6138 0.64237 0.98605 0.0
O26 O 0.65647 0.66361 0.03233 0.0
O27 O 0.63925 0.66359 0.01342 0.0
Co28 Co 0.35465 0.99545 0.01046 0.0
O29 O 0.34554 0.00264 0.99208 0.0
O30 O 0.36612 0.01708 0.00964 0.0
C31 C 0.33357 0.9793 0.02676 0.0
O32 O 0.3668 0.99205 0.03179 0.0
Co33 Co 0.34617 0.96235 0.00881 0.0
O34 O 0.35749 0.96743 0.03499 0.0
C35 C 0.36617 0.98298 0.97711 0.0
C36 C 0.35599 0.01598 0.99714 0.0
C37 C 0.3663 0.98086 0.04073 0.0
O38 O 0.3665 0.99397 0.98689 0.0
O39 O 0.35796 0.9694 0.98256 0.0
O40 O 0.34079 0.99329 0.03213 0.0
O41 O 0.33862 0.97572 0.0108 0.0
Co42 Co 0.0035 0.64723 0.00687 0.0
O43 O 0.99767 0.65635 0.9865 0.0
O44 O 0.9823 0.63549 0.00275 0.0
C45 C 0.01804 0.66842 0.0249 0.0
O46 O 0.00551 0.63488 0.02935 0.0
Co47 Co 0.03634 0.65636 0.01068 0.0
O48 O 0.02956 0.64382 0.0357 0.0
C49 C 0.01848 0.63699 0.97596 0.0
C50 C 0.98423 0.64564 0.98956 0.0
C51 C 0.01595 0.63496 0.03967 0.0
O52 O 0.00679 0.63563 0.98443 0.0
O53 O 0.03148 0.64578 0.98305 0.0
O54 O 0.0039 0.66092 0.02801 0.0
O55 O 0.02277 0.66358 0.00997 0.0
Co56 Co 0.35676 0.35196 0.01416 0.0
O57 O 0.34293 0.34288 0.03643 0.0
O58 O 0.34725 0.36323 0.02016 0.0
C59 C 0.34938 0.33054 0.99636 0.0
O60 O 0.36969 0.36425 0.99006 0.0
Co61 Co 0.38065 0.34372 0.00487 0.0
O62 O 0.38438 0.35569 0.97967 0.0
C63 C 0.38428 0.36343 0.04059 0.0
C64 C 0.33976 0.35322 0.03405 0.0
C65 C 0.3793 0.36432 0.97758 0.0
O66 O 0.37308 0.36423 0.03469 0.0
O67 O 0.38819 0.35495 0.03173 0.0
O68 O 0.34224 0.33752 0.99458 0.0
O69 O 0.35994 0.33607 0.00977 0.0
Co70 Co 0.6423 0.99932 0.01629 0.0
O71 O 0.64959 0.99173 0.03707 0.0
O72 O 0.63151 0.97777 0.01504 0.0
C73 C 0.66454 0.01687 0.00421 0.0
O74 O 0.63202 0.00298 0.99249 0.0
Co75 Co 0.64911 0.03191 0.01827 0.0
O76 O 0.64003 0.0274 0.99028 0.0
C77 C 0.62736 0.00968 0.04702 0.0
C78 C 0.6399 0.97853 0.03023 0.0
C79 C 0.63246 0.01406 0.98337 0.0
O80 O 0.62781 0.99923 0.03687 0.0
O81 O 0.63591 0.02353 0.04314 0.0
O82 O 0.65856 0.00312 0.99784 0.0
O83 O 0.65754 0.01928 0.01879 0.0
Co84 Co 0.66345 0.69015 0.34416 0.0
O85 O 0.66811 0.67976 0.36416 0.0
O86 O 0.68463 0.70019 0.3481 0.0
C87 C 0.64739 0.66951 0.32613 0.0
O88 O 0.66298 0.70361 0.32201 0.0
Co89 Co 0.6317 0.68423 0.33928 0.0
O90 O 0.63952 0.69605 0.31373 0.0
C91 C 0.65036 0.70295 0.37421 0.0
C92 C 0.68187 0.68963 0.36101 0.0
C93 C 0.65335 0.70429 0.31071 0.0
O94 O 0.6615 0.70247 0.36694 0.0
O95 O 0.63745 0.69565 0.36619 0.0
O96 O 0.66146 0.67594 0.32258 0.0
O97 O 0.64357 0.67511 0.34116 0.0
Co98 Co 0.31242 0.98387 0.34685 0.0
O99 O 0.32804 0.99429 0.32714 0.0
O100 O 0.32245 0.97298 0.34171 0.0
C101 C 0.31812 0.00429 0.36619 0.0
O102 O 0.29772 0.97025 0.36856 0.0
Co103 Co 0.28769 0.99131 0.35309 0.0
O104 O 0.2825 0.97844 0.3777 0.0
C105 C 0.28746 0.97411 0.31612 0.0
C106 C 0.33105 0.98383 0.32949 0.0
C107 C 0.28743 0.96971 0.38005 0.0
O108 O 0.29789 0.97268 0.32378 0.0
O109 O 0.2829 0.98219 0.32455 0.0
O110 O 0.32515 0.99726 0.36888 0.0
O111 O 0.3087 0.99938 0.35122 0.0
Co112 Co 0.02588 0.33131 0.34041 0.0
O113 O 0.01728 0.33822 0.32071 0.0
O114 O 0.03621 0.3529 0.34104 0.0
C115 C 0.00435 0.3136 0.3541 0.0
O116 O 0.03732 0.32815 0.36315 0.0
Co117 Co 0.01967 0.29894 0.3375 0.0
O118 O 0.02997 0.30383 0.36459 0.0
C119 C 0.03992 0.32124 0.30763 0.0
C120 C 0.02691 0.35162 0.32687 0.0
C121 C 0.03747 0.31715 0.37161 0.0
O122 O 0.03971 0.33159 0.31841 0.0
O123 O 0.03169 0.30737 0.31164 0.0
O124 O 0.01031 0.32739 0.36025 0.0
O125 O 0.01086 0.31121 0.3388 0.0
Co126 Co 0.67061 0.98126 0.34109 0.0
O127 O 0.66336 0.98898 0.32035 0.0
O128 O 0.64945 0.96865 0.33854 0.0
C129 C 0.68526 0.00333 0.35717 0.0
O130 O 0.67369 0.97006 0.36431 0.0
Co131 Co 0.7037 0.99128 0.34497 0.0
O132 O 0.6978 0.97998 0.37108 0.0
C133 C 0.68554 0.96988 0.3119 0.0
C134 C 0.65027 0.97795 0.32469 0.0
C135 C 0.68429 0.97084 0.37512 0.0
O136 O 0.67385 0.96923 0.3192 0.0
O137 O 0.69848 0.97854 0.31927 0.0
O138 O 0.67124 0.99567 0.36128 0.0
O139 O 0.68977 0.99799 0.34264 0.0
Co140 Co 0.02392 0.68391 0.35003 0.0
O141 O 0.00922 0.67468 0.37126 0.0
O142 O 0.01417 0.69513 0.35473 0.0
C143 C 0.01728 0.66261 0.33233 0.0
O144 O 0.03773 0.69635 0.32673 0.0
Co145 Co 0.0482 0.67594 0.34324 0.0
O146 O 0.05291 0.68805 0.31795 0.0
C147 C 0.05092 0.69612 0.37786 0.0
C148 C 0.00616 0.68504 0.36826 0.0
C149 C 0.04782 0.69659 0.31512 0.0
O150 O 0.03942 0.69619 0.37153 0.0
O151 O 0.05546 0.688 0.36955 0.0
O152 O 0.01026 0.66963 0.32958 0.0
O153 O 0.02728 0.66805 0.34658 0.0
Co154 Co 0.3127 0.34013 0.34759 0.0
O155 O 0.32279 0.33503 0.36735 0.0
O156 O 0.30266 0.31862 0.3504 0.0
C157 C 0.33328 0.35652 0.33043 0.0
O158 O 0.29964 0.34124 0.32539 0.0
Co159 Co 0.31912 0.37254 0.34513 0.0
O160 O 0.30719 0.36525 0.31948 0.0
C161 C 0.29996 0.35288 0.37845 0.0
C162 C 0.31307 0.32119 0.36346 0.0
C163 C 0.29905 0.35141 0.31519 0.0
O164 O 0.30038 0.34176 0.37041 0.0
O165 O 0.30745 0.36614 0.37147 0.0
O166 O 0.3268 0.34237 0.32616 0.0
O167 O 0.32781 0.36019 0.34574 0.0
Co168 Co 0.33454 0.02514 0.67881 0.0
O169 O 0.34012 0.01576 0.69926 0.0
O170 O 0.35569 0.03641 0.68274 0.0
C171 C 0.31942 0.00393 0.66115 0.0
O172 O 0.33319 0.0378 0.6562 0.0
Co173 Co 0.30226 0.0174 0.67351 0.0
O174 O 0.30953 0.02896 0.64767 0.0
C175 C 0.32019 0.03692 0.70832 0.0
C176 C 0.35365 0.02625 0.69595 0.0
C177 C 0.32327 0.03775 0.64467 0.0
O178 O 0.33169 0.03713 0.70113 0.0
O179 O 0.30733 0.02902 0.7003 0.0
O180 O 0.33354 0.01106 0.65782 0.0
O181 O 0.315 0.00926 0.67583 0.0
Co182 Co 0.97832 0.31407 0.67579 0.0
O183 O 0.99485 0.32516 0.65773 0.0
O184 O 0.99027 0.30494 0.67465 0.0
C185 C 0.98063 0.33415 0.69283 0.0
O186 O 0.96289 0.3002 0.69656 0.0
Co187 Co 0.95122 0.31814 0.67451 0.0
O188 O 0.94518 0.30594 0.69991 0.0
C189 C 0.95519 0.30059 0.64161 0.0
C190 C 0.99886 0.31572 0.66233 0.0
C191 C 0.95119 0.29861 0.70534 0.0
O192 O 0.96593 0.3012 0.65179 0.0
O193 O 0.9488 0.30768 0.6472 0.0
O194 O 0.98865 0.32859 0.69807 0.0
O195 O 0.97246 0.32821 0.67664 0.0
Co196 Co 0.69237 0.66488 0.67479 0.0
O197 O 0.68325 0.67005 0.65346 0.0
O198 O 0.70257 0.68632 0.67201 0.0
C199 C 0.67109 0.64831 0.69045 0.0
O200 O 0.70446 0.66393 0.69861 0.0
Co201 Co 0.68624 0.6326 0.67887 0.0
O202 O 0.69801 0.6402 0.70461 0.0
C203 C 0.70597 0.65203 0.64576 0.0
C204 C 0.69289 0.68387 0.65779 0.0
C205 C 0.70542 0.65407 0.70906 0.0
O206 O 0.7057 0.6633 0.65354 0.0
O207 O 0.69807 0.63878 0.65266 0.0
O208 O 0.67711 0.66247 0.69442 0.0
O209 O 0.67745 0.64477 0.67624 0.0
Co210 Co 0.33914 0.31432 0.67753 0.0
O211 O 0.3333 0.32295 0.65633 0.0
O212 O 0.31801 0.30234 0.67312 0.0
C213 C 0.35346 0.33595 0.69486 0.0
O214 O 0.34095 0.30234 0.70083 0.0
Co215 Co 0.37193 0.32371 0.68351 0.0
O216 O 0.3648 0.31161 0.70887 0.0
C217 C 0.3548 0.30372 0.64859 0.0
C218 C 0.31987 0.31219 0.65946 0.0
C219 C 0.35112 0.30262 0.7121 0.0
O220 O 0.34286 0.3025 0.65587 0.0
O221 O 0.36755 0.31248 0.65648 0.0
O222 O 0.3393 0.32844 0.69785 0.0
O223 O 0.35834 0.33076 0.68064 0.0
Co224 Co 0.69063 0.02275 0.6804 0.0
O225 O 0.67602 0.01278 0.70143 0.0
O226 O 0.67948 0.0326 0.68454 0.0
C227 C 0.68562 0.00179 0.66312 0.0
O228 O 0.70418 0.03557 0.65712 0.0
Co229 Co 0.71668 0.01727 0.67581 0.0
O230 O 0.72053 0.02848 0.64979 0.0
C231 C 0.71704 0.03674 0.70964 0.0
C232 C 0.67195 0.02235 0.69813 0.0
C233 C 0.71467 0.03623 0.64601 0.0
O234 O 0.70544 0.03594 0.70203 0.0
O235 O 0.72262 0.02925 0.70233 0.0
O236 O 0.67776 0.00789 0.66004 0.0
O237 O 0.69544 0.00782 0.6776 0.0
Co238 Co 0.97551 0.67165 0.67748 0.0
O239 O 0.98509 0.66571 0.69702 0.0
O240 O 0.96433 0.65016 0.68055 0.0
C241 C 0.99635 0.68705 0.65997 0.0
O242 O 0.96285 0.67349 0.65533 0.0
Co243 Co 0.98356 0.7045 0.67427 0.0
O244 O 0.97239 0.69765 0.64792 0.0
C245 C 0.96432 0.68591 0.70834 0.0
C246 C 0.97473 0.65208 0.69318 0.0
C247 C 0.9634 0.68388 0.64418 0.0
O248 O 0.96395 0.67434 0.70043 0.0
O249 O 0.97224 0.69901 0.70097 0.0
O250 O 0.98912 0.67283 0.65597 0.0
O251 O 0.99136 0.69136 0.6752 0.0
H252 H 0.23337 0.35049 0.15401 0.0
N253 N 0.20966 0.32527 0.13766 0.0
H254 H 0.24556 0.3528 0.18667 0.0
H255 H 0.2015 0.30449 0.16667 0.0
H256 H 0.21375 0.30681 0.20001 0.0
H257 H 0.21553 0.30566 0.12061 0.0
H258 H 0.23673 0.31102 0.09894 0.0
H259 H 0.22759 0.3517 0.11801 0.0
H260 H 0.24916 0.35732 0.09699 0.0
H261 H 0.20923 0.34836 0.15918 0.0
H262 H 0.1881 0.31582 0.10983 0.0
H263 H 0.19173 0.35626 0.15515 0.0
H264 H 0.17082 0.32448 0.10484 0.0
H265 H 0.13283 0.37658 0.15765 0.0
H266 H 0.11738 0.37061 0.18857 0.0
H267 H 0.10627 0.32474 0.18318 0.0
H268 H 0.12106 0.33064 0.15197 0.0
H269 H 0.1116 0.33271 0.11724 0.0
H270 H 0.09378 0.33202 0.09303 0.0
H271 H 0.12039 0.37987 0.08705 0.0
H272 H 0.13868 0.38028 0.11048 0.0
H273 H 0.1646 0.3756 0.13753 0.0
H274 H 0.18364 0.36899 0.13558 0.0
H275 H 0.15028 0.32357 0.11997 0.0
N276 N 0.1358 0.35785 0.13278 0.0
H277 H 0.1317 0.33058 0.12041 0.0
C278 C 0.21635 0.32728 0.15786 0.0
C279 C 0.22889 0.34087 0.16388 0.0
C280 C 0.23582 0.34222 0.18272 0.0
C281 C 0.23055 0.33002 0.19601 0.0
C282 C 0.21806 0.3164 0.19006 0.0
C283 C 0.211 0.31509 0.17115 0.0
C284 C 0.22007 0.32824 0.12114 0.0
C285 C 0.22258 0.31685 0.11493 0.0
C286 C 0.2348 0.31999 0.10279 0.0
C287 C 0.24486 0.33468 0.0967 0.0
C288 C 0.24166 0.3459 0.10144 0.0
C289 C 0.22934 0.3427 0.11351 0.0
C290 C 0.20006 0.33124 0.13485 0.0
C291 C 0.20104 0.34297 0.14717 0.0
C292 C 0.19096 0.34769 0.1447 0.0
C293 C 0.17977 0.34108 0.12962 0.0
C294 C 0.17909 0.32969 0.11688 0.0
C295 C 0.18905 0.32479 0.11959 0.0
C296 C 0.12827 0.35419 0.15249 0.0
C297 C 0.12722 0.3653 0.16339 0.0
C298 C 0.11841 0.36185 0.1811 0.0
C299 C 0.11047 0.34715 0.18837 0.0
C300 C 0.11198 0.33612 0.17784 0.0
C301 C 0.12066 0.33955 0.16001 0.0
C302 C 0.12664 0.35658 0.11552 0.0
C303 C 0.11399 0.34297 0.11006 0.0
C304 C 0.10362 0.34264 0.09644 0.0
C305 C 0.10547 0.35593 0.08836 0.0
C306 C 0.11861 0.3694 0.09281 0.0
C307 C 0.12908 0.36968 0.10622 0.0
C308 C 0.1467 0.35363 0.12951 0.0
C309 C 0.1615 0.36428 0.13336 0.0
C310 C 0.17233 0.36041 0.13246 0.0
C311 C 0.16854 0.34563 0.12803 0.0
C312 C 0.15372 0.33508 0.1233 0.0
C313 C 0.14295 0.33906 0.12381 0.0
H314 H 0.71032 0.79419 0.1598 0.0
N315 N 0.69314 0.80249 0.14198 0.0
H316 H 0.70562 0.78061 0.19215 0.0
H317 H 0.67285 0.79919 0.17149 0.0
H318 H 0.66833 0.78604 0.20411 0.0
H319 H 0.66486 0.77846 0.14329 0.0
H320 H 0.65488 0.756 0.12177 0.0
H321 H 0.70523 0.79852 0.1079 0.0
H322 H 0.69496 0.77604 0.08573 0.0
H323 H 0.71231 0.83084 0.15089 0.0
H324 H 0.66849 0.80201 0.12658 0.0
H325 H 0.70936 0.85229 0.14669 0.0
H326 H 0.66587 0.82336 0.1209 0.0
H327 H 0.6972 0.92095 0.1353 0.0
H328 H 0.69718 0.9337 0.16755 0.0
H329 H 0.67041 0.89119 0.19681 0.0
H330 H 0.66994 0.87849 0.16465 0.0
H331 H 0.65359 0.88264 0.1343 0.0
H332 H 0.63914 0.89043 0.1144 0.0
H333 H 0.67435 0.91089 0.06952 0.0
H334 H 0.68877 0.90316 0.08962 0.0
H335 H 0.70648 0.89015 0.12092 0.0
H336 H 0.7088 0.86816 0.12273 0.0
H337 H 0.6622 0.84126 0.13652 0.0
N338 N 0.68262 0.89184 0.1274 0.0
H339 H 0.65992 0.86315 0.13312 0.0
C340 C 0.69198 0.79767 0.16314 0.0
C341 C 0.70139 0.79279 0.16973 0.0
C342 C 0.69868 0.78504 0.18824 0.0
C343 C 0.68646 0.78204 0.20059 0.0
C344 C 0.67766 0.78791 0.19474 0.0
C345 C 0.68035 0.79561 0.17618 0.0
C346 C 0.68599 0.79014 0.12743 0.0
C347 C 0.67153 0.77815 0.13073 0.0
C348 C 0.66579 0.76531 0.1184 0.0
C349 C 0.67423 0.7643 0.10228 0.0
C350 C 0.68825 0.77661 0.09807 0.0
C351 C 0.69411 0.78941 0.11067 0.0
C352 C 0.6908 0.8148 0.1389 0.0
C353 C 0.70213 0.82917 0.14439 0.0
C354 C 0.70045 0.84144 0.14175 0.0
C355 C 0.68742 0.83968 0.13317 0.0
C356 C 0.676 0.82522 0.12776 0.0
C357 C 0.67758 0.8129 0.13081 0.0
C358 C 0.68379 0.89878 0.14742 0.0
C359 C 0.6915 0.91439 0.14875 0.0
C360 C 0.69139 0.92164 0.16706 0.0
C361 C 0.68378 0.91337 0.18454 0.0
C362 C 0.67643 0.89777 0.18352 0.0
C363 C 0.67624 0.89051 0.16506 0.0
C364 C 0.67237 0.89251 0.1135 0.0
C365 C 0.65799 0.88834 0.11981 0.0
C366 C 0.64977 0.89287 0.10849 0.0
C367 C 0.6557 0.90144 0.09057 0.0
C368 C 0.66944 0.90424 0.0832 0.0
C369 C 0.6777 0.89984 0.09464 0.0
C370 C 0.68313 0.87834 0.12707 0.0
C371 C 0.69676 0.87943 0.12403 0.0
C372 C 0.69807 0.86685 0.12535 0.0
C373 C 0.68575 0.85287 0.13017 0.0
C374 C 0.67194 0.85174 0.13259 0.0
C375 C 0.6706 0.86431 0.1308 0.0
H376 H 0.11223 0.77569 0.1567 0.0
N377 N 0.10644 0.79764 0.14769 0.0
H378 H 0.10436 0.76045 0.18765 0.0
H379 H 0.09539 0.80238 0.18208 0.0
H380 H 0.08788 0.78749 0.21361 0.0
H381 H 0.07802 0.78445 0.13887 0.0
H382 H 0.06407 0.76407 0.11438 0.0
H383 H 0.1184 0.78775 0.11775 0.0
H384 H 0.10472 0.76808 0.09237 0.0
H385 H 0.13337 0.79955 0.14771 0.0
H386 H 0.11194 0.82488 0.14092 0.0
H387 H 0.15733 0.82198 0.14243 0.0
H388 H 0.13585 0.84761 0.13704 0.0
H389 H 0.22464 0.89027 0.15544 0.0
H390 H 0.23882 0.90237 0.18679 0.0
H391 H 0.20979 0.91912 0.20061 0.0
H392 H 0.1961 0.9075 0.16864 0.0
H393 H 0.21363 0.92019 0.12351 0.0
H394 H 0.2341 0.9324 0.09944 0.0
H395 H 0.23478 0.89151 0.09267 0.0
H396 H 0.2147 0.87969 0.11794 0.0
H397 H 0.19789 0.86786 0.15798 0.0
H398 H 0.1748 0.84409 0.15842 0.0
H399 H 0.15591 0.86124 0.11566 0.0
N400 N 0.2025 0.89347 0.13955 0.0
H401 H 0.17877 0.88539 0.11669 0.0
C402 C 0.10429 0.79014 0.16708 0.0
C403 C 0.10719 0.77852 0.1692 0.0
C404 C 0.1027 0.76982 0.18699 0.0
C405 C 0.09532 0.77262 0.20307 0.0
C406 C 0.09324 0.78482 0.20136 0.0
C407 C 0.09766 0.79345 0.1835 0.0
C408 C 0.09923 0.78772 0.13027 0.0
C409 C 0.08392 0.7811 0.12846 0.0
C410 C 0.07597 0.76945 0.11434 0.0
C411 C 0.08322 0.76427 0.10138 0.0
C412 C 0.0987 0.77151 0.10238 0.0
C413 C 0.10662 0.78299 0.11681 0.0
C414 C 0.12083 0.81055 0.14443 0.0
C415 C 0.13381 0.80995 0.14505 0.0
C416 C 0.14757 0.82288 0.14223 0.0
C417 C 0.14864 0.83671 0.1392 0.0
C418 C 0.13556 0.83718 0.13876 0.0
C419 C 0.12184 0.82423 0.14118 0.0
C420 C 0.20945 0.89823 0.1596 0.0
C421 C 0.22125 0.89643 0.16533 0.0
C422 C 0.2293 0.90328 0.18337 0.0
C423 C 0.22561 0.91195 0.19605 0.0
C424 C 0.21317 0.91285 0.19092 0.0
C425 C 0.20523 0.90611 0.17281 0.0
C426 C 0.21263 0.8991 0.12239 0.0
C427 C 0.21802 0.9138 0.11645 0.0
C428 C 0.22971 0.92072 0.10256 0.0
C429 C 0.2362 0.91299 0.09398 0.0
C430 C 0.23025 0.89791 0.09918 0.0
C431 C 0.21863 0.89105 0.11341 0.0
C432 C 0.18992 0.87858 0.13768 0.0
C433 C 0.1888 0.86654 0.14869 0.0
C434 C 0.17555 0.85281 0.14875 0.0
C435 C 0.16328 0.85073 0.13739 0.0
C436 C 0.16489 0.86251 0.12518 0.0
C437 C 0.17801 0.87629 0.12551 0.0
H438 H 0.3406 0.22499 0.86894 0.0
N439 N 0.31339 0.20094 0.87743 0.0
H440 H 0.34728 0.24036 0.83826 0.0
H441 H 0.29795 0.19453 0.84251 0.0
H442 H 0.30468 0.2097 0.81127 0.0
H443 H 0.29602 0.21197 0.88396 0.0
H444 H 0.30057 0.2326 0.90698 0.0
H445 H 0.33424 0.21279 0.90877 0.0
H446 H 0.33831 0.23264 0.93257 0.0
H447 H 0.3405 0.20317 0.87853 0.0
H448 H 0.29381 0.17278 0.88546 0.0
H449 H 0.34524 0.18337 0.88663 0.0
H450 H 0.29826 0.15254 0.89213 0.0
H451 H 0.35103 0.11984 0.87347 0.0
H452 H 0.35137 0.10893 0.83985 0.0
H453 H 0.30365 0.08396 0.83941 0.0
H454 H 0.30354 0.0954 0.87271 0.0
H455 H 0.31005 0.09025 0.91788 0.0
H456 H 0.31823 0.07814 0.94164 0.0
H457 H 0.36324 0.11457 0.93496 0.0
H458 H 0.35472 0.12644 0.91059 0.0
H459 H 0.34657 0.14035 0.87727 0.0
H460 H 0.34405 0.16205 0.87398 0.0
H461 H 0.30651 0.14198 0.91539 0.0
N462 N 0.32668 0.11413 0.89565 0.0
H463 H 0.30848 0.11977 0.91707 0.0
C464 C 0.31872 0.20854 0.85799 0.0
C465 C 0.33284 0.22133 0.85622 0.0
C466 C 0.33664 0.23015 0.8386 0.0
C467 C 0.32646 0.22637 0.82233 0.0
C468 C 0.31269 0.2131 0.82366 0.0
C469 C 0.30888 0.20431 0.84135 0.0
C470 C 0.31472 0.21076 0.89439 0.0
C471 C 0.30509 0.21625 0.89486 0.0
C472 C 0.30771 0.22805 0.90811 0.0
C473 C 0.31997 0.23451 0.92148 0.0
C474 C 0.32901 0.22826 0.92207 0.0
C475 C 0.32654 0.21666 0.90853 0.0
C476 C 0.31673 0.18947 0.8816 0.0
C477 C 0.33123 0.1922 0.88167 0.0
C478 C 0.33392 0.18076 0.88619 0.0
C479 C 0.32217 0.16624 0.89021 0.0
C480 C 0.30768 0.16359 0.88975 0.0
C481 C 0.30505 0.1751 0.88567 0.0
C482 C 0.32721 0.10845 0.87544 0.0
C483 C 0.34067 0.11215 0.86598 0.0
C484 C 0.34083 0.1058 0.84684 0.0
C485 C 0.32754 0.09554 0.8369 0.0
C486 C 0.3141 0.092 0.8464 0.0
C487 C 0.31398 0.09844 0.86546 0.0
C488 C 0.33174 0.10915 0.91256 0.0
C489 C 0.32161 0.09578 0.92201 0.0
C490 C 0.32637 0.08892 0.93567 0.0
C491 C 0.34146 0.09534 0.9403 0.0
C492 C 0.35157 0.10921 0.93157 0.0
C493 C 0.34674 0.11608 0.91779 0.0
C494 C 0.32747 0.12827 0.89708 0.0
C495 C 0.33786 0.14065 0.88573 0.0
C496 C 0.33645 0.15318 0.88401 0.0
C497 C 0.32484 0.15375 0.89404 0.0
C498 C 0.31526 0.1418 0.9068 0.0
C499 C 0.31649 0.12916 0.9081 0.0
H500 H 0.77209 0.13671 0.85644 0.0
N501 N 0.78162 0.12887 0.88912 0.0
H502 H 0.76247 0.12285 0.8237 0.0
H503 H 0.78026 0.10277 0.87795 0.0
H504 H 0.77052 0.08885 0.84575 0.0
H505 H 0.7866 0.11058 0.91345 0.0
H506 H 0.76935 0.09301 0.93888 0.0
H507 H 0.7579 0.12796 0.90443 0.0
H508 H 0.74069 0.1106 0.92996 0.0
H509 H 0.79436 0.15748 0.89913 0.0
H510 H 0.80416 0.12314 0.88452 0.0
H511 H 0.82072 0.17608 0.89955 0.0
H512 H 0.8304 0.14164 0.88391 0.0
H513 H 0.88823 0.22898 0.86802 0.0
H514 H 0.89763 0.24241 0.83599 0.0
H515 H 0.9096 0.21055 0.81522 0.0
H516 H 0.9002 0.19707 0.84791 0.0
H517 H 0.91544 0.21208 0.89536 0.0
H518 H 0.9303 0.23239 0.91987 0.0
H519 H 0.89415 0.2402 0.92772 0.0
H520 H 0.87931 0.21972 0.90375 0.0
H521 H 0.86513 0.20671 0.86963 0.0
H522 H 0.83943 0.18797 0.87422 0.0
H523 H 0.85202 0.15902 0.9028 0.0
N524 N 0.88918 0.20442 0.88018 0.0
H525 H 0.87804 0.17782 0.89729 0.0
C526 C 0.7769 0.12085 0.86964 0.0
C527 C 0.77189 0.12634 0.85403 0.0
C528 C 0.76632 0.11837 0.83545 0.0
C529 C 0.7657 0.10473 0.83215 0.0
C530 C 0.77103 0.09941 0.84766 0.0
C531 C 0.77656 0.10737 0.86621 0.0
C532 C 0.77342 0.1205 0.90692 0.0
C533 C 0.77675 0.11083 0.91723 0.0
C534 C 0.76685 0.10076 0.93171 0.0
C535 C 0.75361 0.10035 0.9363 0.0
C536 C 0.75084 0.11071 0.92693 0.0
C537 C 0.76064 0.12063 0.91234 0.0
C538 C 0.79724 0.139 0.89155 0.0
C539 C 0.80222 0.15396 0.89616 0.0
C540 C 0.81728 0.16457 0.89617 0.0
C541 C 0.82771 0.16042 0.89137 0.0
C542 C 0.82272 0.14525 0.88776 0.0
C543 C 0.80763 0.13462 0.88795 0.0
C544 C 0.8934 0.21185 0.86043 0.0
C545 C 0.89266 0.22467 0.8566 0.0
C546 C 0.89802 0.23237 0.83812 0.0
C547 C 0.90433 0.22753 0.82298 0.0
C548 C 0.9049 0.21461 0.82664 0.0
C549 C 0.89944 0.20684 0.84519 0.0
C550 C 0.89633 0.21439 0.89757 0.0
C551 C 0.91062 0.21793 0.90283 0.0
C552 C 0.91912 0.22962 0.91666 0.0
C553 C 0.91349 0.23808 0.92546 0.0
C554 C 0.8988 0.23387 0.9213 0.0
C555 C 0.89028 0.22213 0.9075 0.0
C556 C 0.87367 0.19363 0.88285 0.0
C557 C 0.86252 0.19637 0.87674 0.0
C558 C 0.84769 0.18563 0.87965 0.0
C559 C 0.84359 0.17196 0.88897 0.0
C560 C 0.85475 0.16933 0.89534 0.0
C561 C 0.86962 0.18007 0.89228 0.0
H562 H 0.79345 0.70743 0.86625 0.0
N563 N 0.79609 0.68724 0.88707 0.0
H564 H 0.78105 0.70409 0.83303 0.0
H565 H 0.78551 0.66278 0.86145 0.0
H566 H 0.77231 0.65891 0.82903 0.0
H567 H 0.77222 0.6591 0.89277 0.0
H568 H 0.75176 0.65243 0.91629 0.0
H569 H 0.79482 0.70402 0.91732 0.0
H570 H 0.77432 0.69732 0.94135 0.0
H571 H 0.82423 0.70726 0.88134 0.0
H572 H 0.7952 0.66139 0.89799 0.0
H573 H 0.84541 0.704 0.88426 0.0
H574 H 0.8163 0.65819 0.90198 0.0
H575 H 0.90608 0.70055 0.87415 0.0
H576 H 0.91803 0.7018 0.84096 0.0
H577 H 0.88722 0.6548 0.83064 0.0
H578 H 0.87569 0.65368 0.86409 0.0
H579 H 0.87678 0.64795 0.90028 0.0
H580 H 0.89147 0.6408 0.92111 0.0
H581 H 0.91938 0.68671 0.94066 0.0
H582 H 0.90494 0.69372 0.91928 0.0
H583 H 0.88227 0.69895 0.90705 0.0
H584 H 0.86025 0.701 0.9083 0.0
H585 H 0.83451 0.65631 0.8828 0.0
N586 N 0.88438 0.67638 0.89196 0.0
H587 H 0.85652 0.65419 0.88285 0.0
C588 C 0.7903 0.68537 0.86638 0.0
C589 C 0.78909 0.69694 0.8579 0.0
C590 C 0.78184 0.69491 0.83904 0.0
C591 C 0.77544 0.68114 0.82838 0.0
C592 C 0.77719 0.66973 0.83659 0.0
C593 C 0.78465 0.67187 0.8553 0.0
C594 C 0.7851 0.68217 0.9032 0.0
C595 C 0.77301 0.66746 0.90359 0.0
C596 C 0.76127 0.66361 0.91717 0.0
C597 C 0.76135 0.67438 0.93055 0.0
C598 C 0.77385 0.68882 0.93101 0.0
C599 C 0.7856 0.69266 0.91744 0.0
C600 C 0.80817 0.68471 0.88961 0.0
C601 C 0.82247 0.69654 0.88589 0.0
C602 C 0.83456 0.69466 0.88777 0.0
C603 C 0.83263 0.68086 0.89361 0.0
C604 C 0.81822 0.66894 0.8973 0.0
C605 C 0.80609 0.67081 0.89519 0.0
C606 C 0.89002 0.67709 0.87144 0.0
C607 C 0.90183 0.69061 0.86451 0.0
C608 C 0.90858 0.69128 0.84554 0.0
C609 C 0.9036 0.67838 0.83314 0.0
C610 C 0.89145 0.6649 0.83993 0.0
C611 C 0.88474 0.66425 0.85895 0.0
C612 C 0.88998 0.67139 0.90812 0.0
C613 C 0.88582 0.65635 0.90952 0.0
C614 C 0.89419 0.65229 0.92147 0.0
C615 C 0.90677 0.66326 0.93215 0.0
C616 C 0.90994 0.67807 0.93225 0.0
C617 C 0.90165 0.68209 0.92025 0.0
C618 C 0.87099 0.67653 0.89468 0.0
C619 C 0.87178 0.68954 0.90212 0.0
C620 C 0.85922 0.69072 0.90257 0.0
C621 C 0.84561 0.67893 0.89526 0.0
C622 C 0.84475 0.6656 0.88863 0.0
C623 C 0.85734 0.66439 0.88848 0.0
H624 H 0.75529 0.63462 0.47634 0.0
N625 N 0.77962 0.65587 0.45869 0.0
H626 H 0.74532 0.63541 0.51037 0.0
H627 H 0.79247 0.6788 0.48673 0.0
H628 H 0.78253 0.6798 0.52096 0.0
H629 H 0.78661 0.68459 0.453 0.0
H630 H 0.77265 0.6922 0.4316 0.0
H631 H 0.76109 0.63987 0.42847 0.0
H632 H 0.74732 0.64742 0.40655 0.0
H633 H 0.78447 0.63484 0.47117 0.0
H634 H 0.80614 0.6783 0.4437 0.0
H635 H 0.80759 0.6352 0.47171 0.0
H636 H 0.82929 0.67834 0.44244 0.0
H637 H 0.87755 0.63529 0.48586 0.0
H638 H 0.89068 0.63912 0.51856 0.0
H639 H 0.89482 0.68226 0.52576 0.0
H640 H 0.88234 0.67861 0.49287 0.0
H641 H 0.89642 0.68345 0.45927 0.0
H642 H 0.91863 0.69019 0.439 0.0
H643 H 0.89871 0.64461 0.41721 0.0
H644 H 0.87675 0.63795 0.43797 0.0
H645 H 0.84699 0.63231 0.458 0.0
H646 H 0.82439 0.63272 0.45295 0.0
H647 H 0.849 0.68071 0.46085 0.0
N648 N 0.87372 0.65504 0.46582 0.0
H649 H 0.8717 0.68014 0.46354 0.0
C650 C 0.77452 0.65661 0.47913 0.0
C651 C 0.76131 0.64445 0.48611 0.0
C652 C 0.75569 0.64493 0.50553 0.0
C653 C 0.76318 0.65766 0.51834 0.0
C654 C 0.77649 0.6699 0.51133 0.0
C655 C 0.78218 0.66934 0.49188 0.0
C656 C 0.77475 0.6616 0.44241 0.0
C657 C 0.77836 0.67654 0.44245 0.0
C658 C 0.77037 0.68088 0.43016 0.0
C659 C 0.75867 0.67034 0.41769 0.0
C660 C 0.75607 0.65574 0.41632 0.0
C661 C 0.76402 0.65143 0.42862 0.0
C662 C 0.7935 0.65642 0.45729 0.0
C663 C 0.79424 0.64436 0.46485 0.0
C664 C 0.80751 0.64455 0.46489 0.0
C665 C 0.82046 0.65671 0.45681 0.0
C666 C 0.81967 0.66883 0.44901 0.0
C667 C 0.80636 0.66877 0.44949 0.0
C668 C 0.87887 0.65657 0.48686 0.0
C669 C 0.88102 0.64542 0.49478 0.0
C670 C 0.88851 0.64763 0.5135 0.0
C671 C 0.89398 0.66109 0.52472 0.0
C672 C 0.89103 0.67189 0.51733 0.0
C673 C 0.88367 0.66972 0.49853 0.0
C674 C 0.88502 0.66013 0.45023 0.0
C675 C 0.89668 0.67502 0.44966 0.0
C676 C 0.90937 0.67886 0.43804 0.0
C677 C 0.91053 0.66786 0.42685 0.0
C678 C 0.89827 0.65327 0.42603 0.0
C679 C 0.88567 0.64946 0.43767 0.0
C680 C 0.8609 0.65607 0.46186 0.0
C681 C 0.84745 0.6429 0.45842 0.0
C682 C 0.83451 0.64319 0.4558 0.0
C683 C 0.83463 0.65672 0.45715 0.0
C684 C 0.84833 0.67004 0.45973 0.0
C685 C 0.86137 0.66974 0.46172 0.0
H686 H 0.37927 0.13341 0.49893 0.0
N687 N 0.36032 0.13808 0.47867 0.0
H688 H 0.37451 0.11887 0.53036 0.0
H689 H 0.33697 0.12993 0.50539 0.0
H690 H 0.33238 0.11596 0.53695 0.0
H691 H 0.33195 0.11559 0.47155 0.0
H692 H 0.32446 0.0935 0.44996 0.0
H693 H 0.37698 0.13399 0.45167 0.0
H694 H 0.36956 0.11191 0.42974 0.0
H695 H 0.3822 0.16529 0.47092 0.0
H696 H 0.33485 0.13914 0.47544 0.0
H697 H 0.38085 0.18729 0.46347 0.0
H698 H 0.33337 0.16127 0.47039 0.0
H699 H 0.37399 0.25684 0.47615 0.0
H700 H 0.37273 0.26763 0.50946 0.0
H701 H 0.33201 0.22698 0.52352 0.0
H702 H 0.33338 0.21634 0.48993 0.0
H703 H 0.32585 0.22159 0.45642 0.0
H704 H 0.31673 0.23375 0.43396 0.0
H705 H 0.35949 0.25793 0.40466 0.0
H706 H 0.36863 0.24615 0.42777 0.0
H707 H 0.37671 0.2274 0.4751 0.0
H708 H 0.37759 0.20486 0.47894 0.0
H709 H 0.33475 0.17944 0.44956 0.0
N710 N 0.3549 0.23012 0.46079 0.0
H711 H 0.33352 0.20207 0.4476 0.0
C712 C 0.35856 0.13282 0.49964 0.0
C713 C 0.3692 0.12998 0.50753 0.0
C714 C 0.36645 0.12166 0.5255 0.0
C715 C 0.35294 0.11602 0.53602 0.0
C716 C 0.34275 0.11983 0.52896 0.0
C717 C 0.34547 0.12805 0.5109 0.0
C718 C 0.35507 0.12647 0.46312 0.0
C719 C 0.34016 0.11511 0.46202 0.0
C720 C 0.33589 0.10244 0.44968 0.0
C721 C 0.34646 0.10089 0.43834 0.0
C722 C 0.36121 0.11268 0.43857 0.0
C723 C 0.36545 0.12535 0.45086 0.0
C724 C 0.35876 0.15069 0.4745 0.0
C725 C 0.37153 0.1644 0.47076 0.0
C726 C 0.37069 0.17701 0.46669 0.0
C727 C 0.357 0.17632 0.46683 0.0
C728 C 0.34413 0.16238 0.47006 0.0
C729 C 0.34498 0.14966 0.47347 0.0
C730 C 0.35384 0.23587 0.4807 0.0
C731 C 0.36485 0.25029 0.4865 0.0
C732 C 0.36412 0.25637 0.50553 0.0
C733 C 0.3523 0.24811 0.51916 0.0
C734 C 0.34118 0.23364 0.51327 0.0
C735 C 0.34196 0.22753 0.49418 0.0
C736 C 0.34804 0.23323 0.44397 0.0
C737 C 0.33312 0.22918 0.44475 0.0
C738 C 0.3279 0.23611 0.43183 0.0
C739 C 0.3375 0.24709 0.41789 0.0
C740 C 0.35192 0.24978 0.41559 0.0
C741 C 0.35713 0.24295 0.42859 0.0
C742 C 0.35517 0.2165 0.46096 0.0
C743 C 0.36754 0.21694 0.46944 0.0
C744 C 0.36805 0.20398 0.47141 0.0
C745 C 0.35632 0.19015 0.46435 0.0
C746 C 0.34394 0.18976 0.45548 0.0
C747 C 0.34327 0.20277 0.45407 0.0
H748 H 0.77519 0.10847 0.48338 0.0
N749 N 0.77584 0.13426 0.47421 0.0
H750 H 0.76478 0.09346 0.51406 0.0
H751 H 0.76431 0.1404 0.50727 0.0
H752 H 0.75412 0.12546 0.53871 0.0
H753 H 0.74859 0.12485 0.46128 0.0
H754 H 0.73404 0.10454 0.43699 0.0
H755 H 0.78695 0.12188 0.44695 0.0
H756 H 0.77286 0.10244 0.42141 0.0
H757 H 0.79818 0.13382 0.49647 0.0
H758 H 0.79004 0.15723 0.44862 0.0
H759 H 0.8242 0.15052 0.49306 0.0
H760 H 0.81666 0.17375 0.44431 0.0
H761 H 0.90961 0.20693 0.48787 0.0
H762 H 0.92174 0.22272 0.51831 0.0
H763 H 0.88564 0.23072 0.5251 0.0
H764 H 0.87402 0.21561 0.49449 0.0
H765 H 0.89149 0.2312 0.46205 0.0
H766 H 0.90926 0.24861 0.43755 0.0
H767 H 0.91397 0.21313 0.41052 0.0
H768 H 0.89697 0.19606 0.43645 0.0
H769 H 0.87095 0.17359 0.47313 0.0
H770 H 0.84432 0.1565 0.47219 0.0
H771 H 0.83816 0.19345 0.45947 0.0
N772 N 0.88561 0.20284 0.46871 0.0
H773 H 0.86488 0.21019 0.459 0.0
C774 C 0.77053 0.12563 0.49298 0.0
C775 C 0.7706 0.1123 0.49529 0.0
C776 C 0.76476 0.10377 0.513 0.0
C777 C 0.7587 0.10831 0.52891 0.0
C778 C 0.75863 0.12163 0.52666 0.0
C779 C 0.76454 0.13022 0.50884 0.0
C780 C 0.76883 0.12495 0.4561 0.0
C781 C 0.75401 0.12021 0.45225 0.0
C782 C 0.74571 0.10857 0.43824 0.0
C783 C 0.75215 0.10156 0.42736 0.0
C784 C 0.76735 0.1072 0.42993 0.0
C785 C 0.77556 0.11859 0.44433 0.0
C786 C 0.79176 0.14406 0.47267 0.0
C787 C 0.8018 0.14237 0.48495 0.0
C788 C 0.81696 0.15199 0.48285 0.0
C789 C 0.82268 0.16344 0.4682 0.0
C790 C 0.81272 0.16517 0.45592 0.0
C791 C 0.79747 0.15566 0.45826 0.0
C792 C 0.8909 0.20996 0.48875 0.0
C793 C 0.90421 0.21187 0.49622 0.0
C794 C 0.9111 0.22089 0.51363 0.0
C795 C 0.90476 0.22816 0.524 0.0
C796 C 0.89101 0.22557 0.5172 0.0
C797 C 0.8842 0.21668 0.49971 0.0
C798 C 0.89321 0.21237 0.45143 0.0
C799 C 0.89621 0.22711 0.45073 0.0
C800 C 0.90636 0.23708 0.43647 0.0
C801 C 0.91343 0.23245 0.42222 0.0
C802 C 0.90922 0.21729 0.42169 0.0
C803 C 0.89932 0.20743 0.43629 0.0
C804 C 0.86988 0.19313 0.4665 0.0
C805 C 0.86381 0.17791 0.46989 0.0
C806 C 0.84856 0.16821 0.46955 0.0
C807 C 0.83897 0.17359 0.46623 0.0
C808 C 0.84513 0.18884 0.46199 0.0
C809 C 0.86045 0.19849 0.4619 0.0
H810 H 0.0121 0.55858 0.19279 0.0
N811 N 0.98568 0.53622 0.20762 0.0
H812 H 0.01582 0.57342 0.16227 0.0
H813 H 0.96577 0.53138 0.17865 0.0
H814 H 0.96949 0.54589 0.14728 0.0
H815 H 0.96524 0.54119 0.22351 0.0
H816 H 0.96901 0.56104 0.24788 0.0
H817 H 0.01111 0.55472 0.2291 0.0
H818 H 0.01509 0.5748 0.25281 0.0
H819 H 0.00234 0.52985 0.1802 0.0
H820 H 0.98322 0.52063 0.24169 0.0
H821 H 0.01254 0.51431 0.18656 0.0
H822 H 0.99375 0.50506 0.24803 0.0
H823 H 0.04363 0.46342 0.19918 0.0
H824 H 0.03746 0.44685 0.16899 0.0
H825 H 0.99251 0.43727 0.17183 0.0
H826 H 0.99865 0.45331 0.20238 0.0
H827 H 1.00058 0.44319 0.23655 0.0
H828 H 1.00005 0.42543 0.26076 0.0
H829 H 0.04702 0.45379 0.27028 0.0
H830 H 0.04727 0.47205 0.24679 0.0
H831 H 0.04003 0.49577 0.20885 0.0
H832 H 0.03131 0.51333 0.20674 0.0
H833 H 0.99067 0.48142 0.23668 0.0
N834 N 0.02543 0.46807 0.22227 0.0
H835 H 0.99955 0.46422 0.23922 0.0
C836 C 0.98859 0.54383 0.18806 0.0
C837 C 0.00274 0.55567 0.18294 0.0
C838 C 0.00487 0.56408 0.16529 0.0
C839 C 0.99295 0.56088 0.15227 0.0
C840 C 0.97888 0.54878 0.1571 0.0
C841 C 0.97675 0.54038 0.17485 0.0
C842 C 0.98783 0.54647 0.22442 0.0
C843 C 0.97606 0.54831 0.23026 0.0
C844 C 0.97828 0.55974 0.24399 0.0
C845 C 0.99239 0.56963 0.25211 0.0
C846 C 0.00405 0.56733 0.247 0.0
C847 C 0.00181 0.55588 0.23332 0.0
C848 C 0.99245 0.52727 0.2109 0.0
C849 C 1.00059 0.52495 0.19535 0.0
C850 C 0.00649 0.51591 0.19894 0.0
C851 C 0.00423 0.50866 0.21795 0.0
C852 C 0.99577 0.51054 0.23324 0.0
C853 C 0.98986 0.51959 0.22967 0.0
C854 C 0.02172 0.45973 0.20298 0.0
C855 C 0.03252 0.45789 0.19305 0.0
C856 C 0.02895 0.44844 0.17577 0.0
C857 C 0.01445 0.44065 0.16799 0.0
C858 C 0.00372 0.44288 0.1776 0.0
C859 C 0.00728 0.45224 0.19498 0.0
C860 C 0.024 0.45917 0.23999 0.0
C861 C 0.01065 0.44602 0.24456 0.0
C862 C 0.01042 0.43567 0.25816 0.0
C863 C 0.02355 0.438 0.26714 0.0
C864 C 0.03668 0.45163 0.26376 0.0
C865 C 0.03686 0.46211 0.25034 0.0
C866 C 0.02056 0.47866 0.22413 0.0
C867 C 0.02936 0.49271 0.21532 0.0
C868 C 0.0243 0.50265 0.21394 0.0
C869 C 0.01021 0.49871 0.22132 0.0
C870 C 0.00162 0.48487 0.23098 0.0
C871 C 0.00672 0.47493 0.23237 0.0
H872 H 0.58941 0.54779 0.19706 0.0
N873 N 0.56247 0.53607 0.21278 0.0
H874 H 0.59851 0.56152 0.16476 0.0
H875 H 0.54511 0.53591 0.18068 0.0
H876 H 0.554 0.54905 0.14838 0.0
H877 H 0.55664 0.55869 0.20983 0.0
H878 H 0.56797 0.58155 0.23086 0.0
H879 H 0.57718 0.54095 0.24808 0.0
H880 H 0.58814 0.56368 0.26969 0.0
H881 H 0.55797 0.50909 0.21887 0.0
H882 H 0.53518 0.53327 0.21482 0.0
H883 H 0.53453 0.48596 0.22362 0.0
H884 H 0.51158 0.51011 0.21762 0.0
H885 H 0.45705 0.41283 0.20774 0.0
H886 H 0.44477 0.40149 0.17481 0.0
H887 H 0.44821 0.44292 0.1576 0.0
H888 H 0.46057 0.45418 0.19064 0.0
H889 H 0.4451 0.44858 0.22119 0.0
H890 H 0.42293 0.43825 0.24267 0.0
H891 H 0.43881 0.41499 0.27886 0.0
H892 H 0.46079 0.4249 0.25672 0.0
H893 H 0.49122 0.44509 0.20711 0.0
H894 H 0.51449 0.46857 0.20546 0.0
H895 H 0.49448 0.49058 0.23717 0.0
N896 N 0.46566 0.44002 0.22192 0.0
H897 H 0.47096 0.46728 0.23713 0.0
C898 C 0.56663 0.54085 0.1916 0.0
C899 C 0.58158 0.54769 0.18622 0.0
C900 C 0.58676 0.55553 0.16773 0.0
C901 C 0.57701 0.5566 0.15415 0.0
C902 C 0.56186 0.54874 0.15875 0.0
C903 C 0.55671 0.54103 0.1773 0.0
C904 C 0.5663 0.54818 0.22723 0.0
C905 C 0.56327 0.55953 0.22305 0.0
C906 C 0.56975 0.5726 0.23503 0.0
C907 C 0.57899 0.57435 0.2517 0.0
C908 C 0.58101 0.56254 0.25692 0.0
C909 C 0.57477 0.54959 0.24465 0.0
C910 C 0.54834 0.52281 0.21605 0.0
C911 C 0.54784 0.50933 0.21876 0.0
C912 C 0.53438 0.49609 0.22125 0.0
C913 C 0.52098 0.49597 0.22056 0.0
C914 C 0.52156 0.50965 0.21841 0.0
C915 C 0.5351 0.52296 0.21652 0.0
C916 C 0.45969 0.43426 0.2016 0.0
C917 C 0.45532 0.41948 0.19671 0.0
C918 C 0.44834 0.41307 0.17791 0.0
C919 C 0.44551 0.42133 0.16365 0.0
C920 C 0.45012 0.43626 0.16839 0.0
C921 C 0.45723 0.44271 0.18718 0.0
C922 C 0.4545 0.43726 0.23716 0.0
C923 C 0.44397 0.44146 0.2339 0.0
C924 C 0.43132 0.43559 0.24619 0.0
C925 C 0.42917 0.42576 0.26222 0.0
C926 C 0.44028 0.42262 0.26662 0.0
C927 C 0.45281 0.42826 0.25406 0.0
C928 C 0.47928 0.45426 0.2222 0.0
C929 C 0.49187 0.45502 0.21363 0.0
C930 C 0.50525 0.46849 0.21295 0.0
C931 C 0.50656 0.4816 0.22139 0.0
C932 C 0.49394 0.48083 0.23021 0.0
C933 C 0.4804 0.46736 0.2304 0.0
H934 H 0.53372 0.95056 0.19419 0.0
N935 N 0.52853 0.96816 0.21836 0.0
H936 H 0.54899 0.9574 0.16302 0.0
H937 H 0.54075 0.9949 0.1986 0.0
H938 H 0.55559 0.00174 0.16701 0.0
H939 H 0.5522 0.99448 0.23217 0.0
H940 H 0.57179 0.99703 0.25467 0.0
H941 H 0.52795 0.94704 0.24138 0.0
H942 H 0.5478 0.94936 0.26334 0.0
H943 H 0.50343 0.95672 0.1976 0.0
H944 H 0.52863 0.98936 0.2452 0.0
H945 H 0.48527 0.96441 0.1985 0.0
H946 H 0.51018 0.99652 0.24697 0.0
H947 H 0.42957 0.97672 0.20466 0.0
H948 H 0.41666 0.97405 0.17237 0.0
H949 H 0.45127 0.01796 0.15427 0.0
H950 H 0.46408 0.02061 0.18706 0.0
H951 H 0.44846 0.02171 0.2308 0.0
H952 H 0.42876 0.01823 0.2541 0.0
H953 H 0.41969 0.97395 0.26783 0.0
H954 H 0.43885 0.97727 0.24372 0.0
H955 H 0.44877 0.97269 0.21366 0.0
H956 H 0.46617 0.9642 0.21652 0.0
H957 H 0.50121 0.00949 0.22904 0.0
N958 N 0.45487 0.00151 0.21824 0.0
H959 H 0.48335 0.0177 0.22746 0.0
C960 C 0.53605 0.97214 0.19864 0.0
C961 C 0.53831 0.96168 0.18811 0.0
C962 C 0.547 0.96562 0.17026 0.0
C963 C 0.55358 0.98016 0.16249 0.0
C964 C 0.5509 0.99052 0.17273 0.0
C965 C 0.54229 0.98659 0.19069 0.0
C966 C 0.53846 0.97051 0.23521 0.0
C967 C 0.55088 0.98464 0.23948 0.0
C968 C 0.56221 0.98604 0.25215 0.0
C969 C 0.56153 0.97337 0.26054 0.0
C970 C 0.54869 0.95939 0.25731 0.0
C971 C 0.53729 0.95802 0.24478 0.0
C972 C 0.51754 0.97241 0.22109 0.0
C973 C 0.50494 0.96538 0.20849 0.0
C974 C 0.49448 0.96975 0.20916 0.0
C975 C 0.49617 0.98113 0.22283 0.0
C976 C 0.50861 0.98792 0.23593 0.0
C977 C 0.51923 0.98371 0.235 0.0
C978 C 0.44789 0.99888 0.19823 0.0
C979 C 0.43457 0.98566 0.19362 0.0
C980 C 0.42717 0.98415 0.17507 0.0
C981 C 0.43291 0.99581 0.1607 0.0
C982 C 0.44646 0.00885 0.1651 0.0
C983 C 0.45386 0.01034 0.18369 0.0
C984 C 0.44527 0.99987 0.23536 0.0
C985 C 0.44243 0.01138 0.23921 0.0
C986 C 0.43113 0.00934 0.25263 0.0
C987 C 0.42246 0.99572 0.26284 0.0
C988 C 0.42589 0.98447 0.25993 0.0
C989 C 0.43707 0.98645 0.24622 0.0
C990 C 0.46472 0.99589 0.2206 0.0
C991 C 0.46011 0.98078 0.21739 0.0
C992 C 0.47019 0.97595 0.21878 0.0
C993 C 0.48521 0.98613 0.22289 0.0
C994 C 0.48974 0.00123 0.22622 0.0
C995 C 0.47957 0.00599 0.22518 0.0
H996 H 0.44241 0.99043 0.81672 0.0
N997 N 0.4643 0.0183 0.80557 0.0
H998 H 0.42627 0.98436 0.84674 0.0
H999 H 0.46715 0.03636 0.83679 0.0
H1000 H 0.45146 0.03033 0.8675 0.0
H1001 H 0.46683 0.04293 0.79061 0.0
H1002 H 0.44998 0.04463 0.76659 0.0
H1003 H 0.44372 0.99533 0.78114 0.0
H1004 H 0.42716 0.99693 0.75684 0.0
H1005 H 0.46076 0.99118 0.79426 0.0
H1006 H 0.4928 0.03629 0.81222 0.0
H1007 H 0.48003 0.98502 0.79251 0.0
H1008 H 0.51213 0.03007 0.81173 0.0
H1009 H 0.5481 0.9722 0.8237 0.0
H1010 H 0.56198 0.97537 0.8554 0.0
H1011 H 0.56531 0.01784 0.86682 0.0
H1012 H 0.55188 0.01477 0.83473 0.0
H1013 H 0.56823 0.01935 0.8031 0.0
H1014 H 0.58872 0.02578 0.77962 0.0
H1015 H 0.56386 0.98235 0.75031 0.0
H1016 H 0.54329 0.97593 0.77412 0.0
H1017 H 0.51467 0.97467 0.81553 0.0
H1018 H 0.49526 0.98078 0.81422 0.0
H1019 H 0.52684 0.02439 0.79094 0.0
N1020 N 0.543 0.99194 0.80631 0.0
H1021 H 0.54615 0.01853 0.79341 0.0
C1022 C 0.45592 0.01392 0.82448 0.0
C1023 C 0.44454 0.99917 0.82778 0.0
C1024 C 0.43535 0.9957 0.84508 0.0
C1025 C 0.43745 0.00689 0.85946 0.0
C1026 C 0.44931 0.0215 0.85653 0.0
C1027 C 0.45839 0.02495 0.83915 0.0
C1028 C 0.45662 0.01908 0.78775 0.0
C1029 C 0.45847 0.03293 0.78275 0.0
C1030 C 0.44882 0.03386 0.76902 0.0
C1031 C 0.43707 0.02088 0.76002 0.0
C1032 C 0.43593 0.00711 0.76382 0.0
C1033 C 0.44556 0.0062 0.77761 0.0
C1034 C 0.4754 0.01434 0.80302 0.0
C1035 C 0.47195 0.99984 0.79761 0.0
C1036 C 0.48302 0.99626 0.79692 0.0
C1037 C 0.49771 0.00703 0.802 0.0
C1038 C 0.50105 0.02154 0.80729 0.0
C1039 C 0.49002 0.02513 0.8077 0.0
C1040 C 0.5489 0.99316 0.82684 0.0
C1041 C 0.55157 0.98203 0.83332 0.0
C1042 C 0.55949 0.98388 0.85147 0.0
C1043 C 0.56489 0.99694 0.86362 0.0
C1044 C 0.56156 0.00777 0.85764 0.0
C1045 C 0.55371 0.00595 0.83939 0.0
C1046 C 0.55415 0.99707 0.79036 0.0
C1047 C 0.56697 0.01132 0.7913 0.0
C1048 C 0.57871 0.01503 0.77779 0.0
C1049 C 0.57794 0.00453 0.76322 0.0
C1050 C 0.56482 0.99061 0.76154 0.0
C1051 C 0.55304 0.98695 0.77499 0.0
C1052 C 0.53187 0.99599 0.8045 0.0
C1053 C 0.51735 0.98554 0.81013 0.0
C1054 C 0.50625 0.98903 0.80919 0.0
C1055 C 0.50942 0.00309 0.80239 0.0
C1056 C 0.52399 0.01353 0.79655 0.0
C1057 C 0.53511 0.0101 0.79777 0.0
H1058 H 0.98164 0.5538 0.81294 0.0
N1059 N 0.00352 0.55163 0.79318 0.0
H1060 H 0.98393 0.567 0.84536 0.0
H1061 H 0.02654 0.56407 0.81869 0.0
H1062 H 0.02881 0.57687 0.85179 0.0
H1063 H 0.02091 0.57636 0.77299 0.0
H1064 H 0.01367 0.58992 0.75051 0.0
H1065 H 0.9757 0.54054 0.77689 0.0
H1066 H 0.9683 0.55371 0.75352 0.0
H1067 H 0.9777 0.52872 0.80885 0.0
H1068 H 0.01802 0.53921 0.77758 0.0
H1069 H 0.9716 0.50306 0.81284 0.0
H1070 H 0.01176 0.51331 0.78079 0.0
H1071 H 0.95918 0.43367 0.84551 0.0
H1072 H 0.96293 0.42423 0.87782 0.0
H1073 H 0.00917 0.44381 0.86295 0.0
H1074 H 0.00512 0.45259 0.83037 0.0
H1075 H 0.00294 0.4517 0.7938 0.0
H1076 H 0.00415 0.43421 0.76937 0.0
H1077 H 0.95708 0.40452 0.77528 0.0
H1078 H 0.95603 0.42203 0.79982 0.0
H1079 H 0.95944 0.45491 0.80429 0.0
H1080 H 0.96457 0.47989 0.796 0.0
H1081 H 0.01091 0.49749 0.80778 0.0
N1082 N 0.97846 0.44691 0.81525 0.0
H1083 H 0.00571 0.4725 0.81522 0.0
C1084 C 0.00404 0.5581 0.81328 0.0
C1085 C 0.99195 0.55872 0.82133 0.0
C1086 C 0.99325 0.56621 0.84003 0.0
C1087 C 0.00659 0.57311 0.85117 0.0
C1088 C 0.01846 0.57195 0.84343 0.0
C1089 C 0.01718 0.56455 0.82464 0.0
C1090 C 0.99895 0.55747 0.77659 0.0
C1091 C 0.00947 0.5712 0.76835 0.0
C1092 C 0.00525 0.57891 0.7554 0.0
C1093 C 0.99033 0.57298 0.75012 0.0
C1094 C 0.97985 0.55876 0.75748 0.0
C1095 C 0.9841 0.55109 0.77067 0.0
C1096 C 0.99842 0.53594 0.79298 0.0
C1097 C 0.98511 0.52544 0.80245 0.0
C1098 C 0.9816 0.51069 0.80465 0.0
C1099 C 0.99127 0.50611 0.79733 0.0
C1100 C 0.00422 0.5165 0.787 0.0
C1101 C 0.00774 0.53126 0.78492 0.0
C1102 C 0.9818 0.44392 0.83558 0.0
C1103 C 0.97017 0.43618 0.8495 0.0
C1104 C 0.97238 0.43084 0.86799 0.0
C1105 C 0.98638 0.4332 0.87304 0.0
C1106 C 0.99821 0.44158 0.85946 0.0
C1107 C 0.99594 0.44683 0.84087 0.0
C1108 C 0.97935 0.43806 0.79868 0.0
C1109 C 0.99288 0.44152 0.78967 0.0
C1110 C 0.99356 0.4315 0.77577 0.0
C1111 C 0.98073 0.41797 0.7705 0.0
C1112 C 0.96714 0.41491 0.77886 0.0
C1113 C 0.9665 0.42486 0.79287 0.0
C1114 C 0.9821 0.46183 0.81058 0.0
C1115 C 0.9707 0.4642 0.80501 0.0
C1116 C 0.97365 0.47849 0.80038 0.0
C1117 C 0.98816 0.49076 0.80128 0.0
C1118 C 0.99963 0.4883 0.80664 0.0
C1119 C 0.99665 0.47397 0.81115 0.0
H1120 H 0.44298 0.44311 0.82089 0.0
N1121 N 0.44132 0.46768 0.81186 0.0
H1122 H 0.43258 0.42723 0.85079 0.0
H1123 H 0.4283 0.47209 0.84466 0.0
H1124 H 0.41821 0.45638 0.87542 0.0
H1125 H 0.41391 0.45748 0.79893 0.0
H1126 H 0.39979 0.43699 0.77467 0.0
H1127 H 0.45305 0.45596 0.78458 0.0
H1128 H 0.43935 0.4363 0.75912 0.0
H1129 H 0.46431 0.46948 0.83538 0.0
H1130 H 0.45468 0.48993 0.78491 0.0
H1131 H 0.49015 0.48686 0.83132 0.0
H1132 H 0.48113 0.50724 0.78023 0.0
H1133 H 0.57442 0.54369 0.82415 0.0
H1134 H 0.58604 0.55928 0.85486 0.0
H1135 H 0.5494 0.56651 0.86112 0.0
H1136 H 0.53834 0.55166 0.83006 0.0
H1137 H 0.55594 0.56743 0.79771 0.0
H1138 H 0.57434 0.58511 0.77398 0.0
H1139 H 0.57971 0.54988 0.74758 0.0
H1140 H 0.56212 0.53257 0.77277 0.0
H1141 H 0.53659 0.5101 0.8099 0.0
H1142 H 0.51007 0.49238 0.80958 0.0
H1143 H 0.50241 0.52811 0.79513 0.0
N1144 N 0.55041 0.53922 0.80467 0.0
H1145 H 0.52907 0.54553 0.79428 0.0
C1146 C 0.43638 0.45884 0.83048 0.0
C1147 C 0.43759 0.44613 0.83265 0.0
C1148 C 0.43176 0.43712 0.84995 0.0
C1149 C 0.42461 0.44056 0.86559 0.0
C1150 C 0.42354 0.45335 0.86356 0.0
C1151 C 0.4294 0.4624 0.84614 0.0
C1152 C 0.4345 0.45831 0.79373 0.0
C1153 C 0.41958 0.45312 0.7899 0.0
C1154 C 0.41153 0.44138 0.77593 0.0
C1155 C 0.41832 0.43471 0.76508 0.0
C1156 C 0.4336 0.4408 0.76762 0.0
C1157 C 0.44157 0.45231 0.78196 0.0
C1158 C 0.45715 0.47804 0.81015 0.0
C1159 C 0.46755 0.47747 0.82312 0.0
C1160 C 0.48261 0.48751 0.82072 0.0
C1161 C 0.48785 0.49834 0.8052 0.0
C1162 C 0.47753 0.4991 0.79242 0.0
C1163 C 0.46239 0.48914 0.79499 0.0
C1164 C 0.5555 0.54636 0.82473 0.0
C1165 C 0.5688 0.54844 0.83242 0.0
C1166 C 0.57541 0.55734 0.85 0.0
C1167 C 0.56874 0.56429 0.86039 0.0
C1168 C 0.55502 0.5616 0.85326 0.0
C1169 C 0.54853 0.55286 0.83554 0.0
C1170 C 0.55799 0.54874 0.78739 0.0
C1171 C 0.56093 0.56346 0.78664 0.0
C1172 C 0.57145 0.57359 0.77286 0.0
C1173 C 0.57894 0.5691 0.75915 0.0
C1174 C 0.57466 0.55393 0.75843 0.0
C1175 C 0.56442 0.54393 0.77258 0.0
C1176 C 0.53477 0.52909 0.80243 0.0
C1177 C 0.52916 0.51401 0.80638 0.0
C1178 C 0.51398 0.50396 0.8064 0.0
C1179 C 0.50402 0.50884 0.8028 0.0
C1180 C 0.50971 0.52391 0.79791 0.0
C1181 C 0.52497 0.53393 0.79756 0.0
H1182 H 0.67904 0.89661 0.53391 0.0
N1183 N 0.65196 0.87307 0.54427 0.0
H1184 H 0.68486 0.91148 0.50278 0.0
H1185 H 0.63535 0.86632 0.51053 0.0
H1186 H 0.6412 0.88089 0.47883 0.0
H1187 H 0.63455 0.8837 0.553 0.0
H1188 H 0.63942 0.904 0.57684 0.0
H1189 H 0.67429 0.88566 0.57344 0.0
H1190 H 0.67876 0.90522 0.59815 0.0
H1191 H 0.6786 0.87432 0.54384 0.0
H1192 H 0.63191 0.84521 0.55298 0.0
H1193 H 0.6827 0.854 0.55154 0.0
H1194 H 0.63564 0.82446 0.55914 0.0
H1195 H 0.68538 0.78933 0.53604 0.0
H1196 H 0.6848 0.77771 0.50272 0.0
H1197 H 0.63711 0.75321 0.50445 0.0
H1198 H 0.6379 0.76535 0.53755 0.0
H1199 H 0.6437 0.76151 0.58337 0.0
H1200 H 0.65035 0.74666 0.60453 0.0
H1201 H 0.69648 0.77797 0.59289 0.0
H1202 H 0.68962 0.7931 0.57235 0.0
H1203 H 0.68197 0.81001 0.54103 0.0
H1204 H 0.68042 0.83229 0.53862 0.0
H1205 H 0.6438 0.81342 0.58165 0.0
N1206 N 0.66167 0.78402 0.55954 0.0
H1207 H 0.64471 0.79059 0.58241 0.0
C1208 C 0.65669 0.88034 0.52454 0.0
C1209 C 0.67083 0.89289 0.52177 0.0
C1210 C 0.67415 0.90141 0.50388 0.0
C1211 C 0.66343 0.89751 0.48834 0.0
C1212 C 0.64961 0.88441 0.49065 0.0
C1213 C 0.64629 0.87596 0.50861 0.0
C1214 C 0.65394 0.88305 0.56131 0.0
C1215 C 0.64407 0.88819 0.56312 0.0
C1216 C 0.64688 0.89979 0.57686 0.0
C1217 C 0.65959 0.90641 0.5894 0.0
C1218 C 0.66905 0.90066 0.58842 0.0
C1219 C 0.66637 0.88923 0.57438 0.0
C1220 C 0.65489 0.86129 0.54809 0.0
C1221 C 0.6692 0.86352 0.54743 0.0
C1222 C 0.67151 0.85179 0.55168 0.0
C1223 C 0.65954 0.83748 0.55614 0.0
C1224 C 0.64523 0.83534 0.55641 0.0
C1225 C 0.643 0.84714 0.55262 0.0
C1226 C 0.66163 0.77825 0.53915 0.0
C1227 C 0.67482 0.78164 0.5291 0.0
C1228 C 0.67446 0.77486 0.51012 0.0
C1229 C 0.66091 0.76447 0.50092 0.0
C1230 C 0.64774 0.76133 0.5109 0.0
C1231 C 0.64813 0.76818 0.52983 0.0
C1232 C 0.66614 0.77819 0.57611 0.0
C1233 C 0.65525 0.76543 0.58605 0.0
C1234 C 0.65908 0.7569 0.5979 0.0
C1235 C 0.67392 0.76092 0.59987 0.0
C1236 C 0.68494 0.77453 0.59156 0.0
C1237 C 0.68106 0.78316 0.57977 0.0
C1238 C 0.6632 0.79846 0.56156 0.0
C1239 C 0.67367 0.81067 0.55004 0.0
C1240 C 0.67283 0.82356 0.54883 0.0
C1241 C 0.66174 0.82465 0.55955 0.0
C1242 C 0.65214 0.81286 0.57253 0.0
C1243 C 0.65278 0.79986 0.5733 0.0
H1244 H 0.25417 0.87733 0.5268 0.0
N1245 N 0.22986 0.86974 0.54821 0.0
H1246 H 0.26233 0.89164 0.49489 0.0
H1247 H 0.21287 0.87615 0.52349 0.0
H1248 H 0.22071 0.89008 0.49128 0.0
H1249 H 0.22446 0.89245 0.55513 0.0
H1250 H 0.23832 0.9138 0.57818 0.0
H1251 H 0.24931 0.87304 0.57677 0.0
H1252 H 0.26329 0.89449 0.60015 0.0
H1253 H 0.22256 0.84176 0.54184 0.0
H1254 H 0.20447 0.86863 0.56183 0.0
H1255 H 0.19843 0.81927 0.54606 0.0
H1256 H 0.18049 0.84624 0.56689 0.0
H1257 H 0.13538 0.75727 0.53234 0.0
H1258 H 0.12309 0.74635 0.49929 0.0
H1259 H 0.10302 0.77343 0.50165 0.0
H1260 H 0.11496 0.78386 0.53487 0.0
H1261 H 0.11567 0.78767 0.5714 0.0
H1262 H 0.09319 0.77417 0.5922 0.0
H1263 H 0.10168 0.73823 0.59942 0.0
H1264 H 0.12376 0.75157 0.57797 0.0
H1265 H 0.1574 0.78042 0.5708 0.0
H1266 H 0.1812 0.80375 0.57144 0.0
H1267 H 0.16031 0.82684 0.54767 0.0
N1268 N 0.13201 0.77597 0.55665 0.0
H1269 H 0.13653 0.80363 0.54809 0.0
C1270 C 0.23297 0.87567 0.52754 0.0
C1271 C 0.24671 0.8798 0.51882 0.0
C1272 C 0.25132 0.88796 0.50056 0.0
C1273 C 0.24223 0.89214 0.49059 0.0
C1274 C 0.2281 0.88727 0.49876 0.0
C1275 C 0.22352 0.87915 0.51709 0.0
C1276 C 0.23583 0.88106 0.56428 0.0
C1277 C 0.23259 0.89253 0.56529 0.0
C1278 C 0.24055 0.90479 0.57851 0.0
C1279 C 0.25198 0.90589 0.59085 0.0
C1280 C 0.25467 0.89404 0.59061 0.0
C1281 C 0.24663 0.88174 0.57745 0.0
C1282 C 0.21544 0.85686 0.55162 0.0
C1283 C 0.21341 0.84277 0.54738 0.0
C1284 C 0.19962 0.82994 0.54998 0.0
C1285 C 0.1875 0.83091 0.55703 0.0
C1286 C 0.18954 0.84508 0.56131 0.0
C1287 C 0.20335 0.85794 0.55855 0.0
C1288 C 0.12619 0.7714 0.53602 0.0
C1289 C 0.12853 0.761 0.52548 0.0
C1290 C 0.12152 0.75483 0.50659 0.0
C1291 C 0.11202 0.75899 0.49784 0.0
C1292 C 0.1101 0.76984 0.50809 0.0
C1293 C 0.11709 0.77596 0.52703 0.0
C1294 C 0.12122 0.77045 0.57294 0.0
C1295 C 0.11283 0.77703 0.57782 0.0
C1296 C 0.10001 0.76932 0.58978 0.0
C1297 C 0.09548 0.75497 0.59704 0.0
C1298 C 0.10466 0.74908 0.59361 0.0
C1299 C 0.11737 0.75675 0.58161 0.0
C1300 C 0.14527 0.79023 0.55919 0.0
C1301 C 0.15797 0.79061 0.56611 0.0
C1302 C 0.17156 0.80391 0.56623 0.0
C1303 C 0.17275 0.81716 0.55921 0.0
C1304 C 0.15982 0.81689 0.55325 0.0
C1305 C 0.14618 0.80356 0.55333 0.0
H1306 H 0.21118 0.31381 0.53556 0.0
N1307 N 0.21625 0.33736 0.56011 0.0
H1308 H 0.22296 0.31495 0.50238 0.0
H1309 H 0.23426 0.36173 0.53895 0.0
H1310 H 0.24655 0.36309 0.50606 0.0
H1311 H 0.23873 0.35612 0.58378 0.0
H1312 H 0.25428 0.35019 0.60446 0.0
H1313 H 0.20852 0.30943 0.57216 0.0
H1314 H 0.22433 0.30329 0.5923 0.0
H1315 H 0.19051 0.31709 0.54083 0.0
H1316 H 0.2095 0.35346 0.58508 0.0
H1317 H 0.1679 0.31783 0.54035 0.0
H1318 H 0.18645 0.35354 0.58611 0.0
H1319 H 0.10375 0.3174 0.53674 0.0
H1320 H 0.09031 0.3132 0.50439 0.0
H1321 H 0.11983 0.35922 0.48805 0.0
H1322 H 0.13292 0.36337 0.52092 0.0
H1323 H 0.11763 0.36277 0.56494 0.0
H1324 H 0.09782 0.35766 0.58914 0.0
H1325 H 0.0916 0.31413 0.60042 0.0
H1326 H 0.11091 0.31912 0.57541 0.0
H1327 H 0.12552 0.31774 0.54906 0.0
H1328 H 0.14631 0.31426 0.55501 0.0
H1329 H 0.17452 0.36177 0.56536 0.0
N1330 N 0.12594 0.3442 0.55153 0.0
H1331 H 0.15336 0.36484 0.5609 0.0
C1332 C 0.22179 0.33773 0.53957 0.0
C1333 C 0.21867 0.32459 0.52901 0.0
C1334 C 0.22554 0.32527 0.51014 0.0
C1335 C 0.23577 0.33911 0.50157 0.0
C1336 C 0.23857 0.35224 0.512 0.0
C1337 C 0.23161 0.35152 0.53081 0.0
C1338 C 0.22266 0.33325 0.57631 0.0
C1339 C 0.23527 0.34456 0.58624 0.0
C1340 C 0.2442 0.34114 0.59781 0.0
C1341 C 0.24073 0.32629 0.59953 0.0
C1342 C 0.22732 0.31483 0.59117 0.0
C1343 C 0.21831 0.3183 0.57963 0.0
C1344 C 0.20185 0.33547 0.5627 0.0
C1345 C 0.18971 0.32502 0.55085 0.0
C1346 C 0.17665 0.32538 0.55075 0.0
C1347 C 0.17533 0.33597 0.56288 0.0
C1348 C 0.18715 0.34557 0.576 0.0
C1349 C 0.20029 0.34541 0.57571 0.0
C1350 C 0.11934 0.34075 0.53123 0.0
C1351 C 0.1075 0.3265 0.52605 0.0
C1352 C 0.09982 0.32412 0.50746 0.0
C1353 C 0.10387 0.33591 0.49365 0.0
C1354 C 0.11621 0.34996 0.49848 0.0
C1355 C 0.12382 0.35233 0.51711 0.0
C1356 C 0.11586 0.34146 0.56839 0.0
C1357 C 0.11215 0.35225 0.57296 0.0
C1358 C 0.10084 0.34929 0.5869 0.0
C1359 C 0.09302 0.33543 0.59681 0.0
C1360 C 0.09719 0.32482 0.59286 0.0
C1361 C 0.10842 0.32775 0.57868 0.0
C1362 C 0.13788 0.34158 0.55487 0.0
C1363 C 0.13611 0.32734 0.55303 0.0
C1364 C 0.14812 0.32541 0.55621 0.0
C1365 C 0.16221 0.3377 0.56081 0.0
C1366 C 0.16385 0.35193 0.56245 0.0
C1367 C 0.1518 0.35378 0.55967 0.0
H1368 H 0.96865 0.36659 0.08139 0.0
H1369 H 0.03081 0.44292 0.13338 0.0
H1370 H 0.01412 0.39018 0.0614 0.0
H1371 H 0.98894 0.41358 0.16263 0.0
H1372 H 0.02427 0.42454 0.10548 0.0
H1373 H 0.9753 0.38449 0.11004 0.0
C1374 C 0.98004 0.37547 0.08305 0.0
C1375 C 0.99083 0.37686 0.0689 0.0
C1376 C 0.01653 0.42213 0.11802 0.0
C1377 C 0.99847 0.39747 0.10157 0.0
C1378 C 0.02026 0.43261 0.13401 0.0
C1379 C 0.01043 0.42983 0.15046 0.0
C1380 C 0.0028 0.4088 0.11834 0.0
C1381 C 0.99679 0.41635 0.15015 0.0
C1382 C 0.98382 0.38568 0.09942 0.0
C1383 C 0.00542 0.38862 0.0719 0.0
N1384 N 0.99338 0.40636 0.13435 0.0
N1385 N 0.00878 0.39851 0.08781 0.0
H1386 H 0.62955 0.61449 0.05385 0.0
H1387 H 0.56765 0.57513 0.14124 0.0
H1388 H 0.59651 0.62591 0.0681 0.0
H1389 H 0.59969 0.56232 0.12722 0.0
H1390 H 0.57792 0.59337 0.11378 0.0
H1391 H 0.6189 0.59527 0.08034 0.0
C1392 C 0.6201 0.61301 0.06255 0.0
C1393 C 0.61393 0.62187 0.05869 0.0
C1394 C 0.58269 0.58654 0.11659 0.0
C1395 C 0.60167 0.59983 0.08898 0.0
C1396 C 0.57672 0.57598 0.13218 0.0
C1397 C 0.58273 0.56706 0.13649 0.0
C1398 C 0.59484 0.58832 0.1052 0.0
C1399 C 0.59476 0.56902 0.12454 0.0
C1400 C 0.614 0.602 0.07764 0.0
C1401 C 0.60166 0.61939 0.07047 0.0
N1402 N 0.60044 0.57946 0.10945 0.0
N1403 N 0.59595 0.60862 0.08503 0.0
H1404 H 0.37047 0.96027 0.06014 0.0
H1405 H 0.42902 0.01725 0.14276 0.0
H1406 H 0.38579 0.00733 0.06066 0.0
H1407 H 0.41728 0.97135 0.13536 0.0
H1408 H 0.41353 0.01421 0.11286 0.0
H1409 H 0.38743 0.9644 0.08813 0.0
C1410 C 0.37738 0.97151 0.06614 0.0
C1411 C 0.37662 0.98347 0.05797 0.0
C1412 C 0.41442 0.00484 0.11773 0.0
C1413 C 0.39624 0.98827 0.09027 0.0
C1414 C 0.42334 0.00658 0.13472 0.0
C1415 C 0.42441 0.9945 0.1417 0.0
C1416 C 0.40647 0.99091 0.10767 0.0
C1417 C 0.41661 0.9809 0.13081 0.0
C1418 C 0.38714 0.97385 0.08214 0.0
C1419 C 0.38597 0.99777 0.06644 0.0
N1420 N 0.40794 0.97947 0.11445 0.0
N1421 N 0.39536 0.99977 0.08219 0.0
H1422 H 0.37223 0.96373 0.95614 0.0
H1423 H 0.42694 0.02421 0.87509 0.0
H1424 H 0.38295 0.00954 0.95712 0.0
H1425 H 0.42377 0.98177 0.88346 0.0
H1426 H 0.40948 0.01841 0.9034 0.0
H1427 H 0.38942 0.96945 0.92746 0.0
C1428 C 0.37813 0.97498 0.95029 0.0
C1429 C 0.37613 0.98618 0.95914 0.0
C1430 C 0.41264 0.01039 0.89908 0.0
C1431 C 0.39589 0.99278 0.92625 0.0
C1432 C 0.42271 0.01373 0.88299 0.0
C1433 C 0.42695 0.00351 0.87691 0.0
C1434 C 0.40663 0.99667 0.90912 0.0
C1435 C 0.42073 0.98993 0.88743 0.0
C1436 C 0.388 0.97824 0.93395 0.0
C1437 C 0.38415 0.00056 0.95088 0.0
N1438 N 0.41088 0.98691 0.903 0.0
N1439 N 0.39366 0.00343 0.93489 0.0
H1440 H 0.96465 0.37909 0.9807 0.0
H1441 H 0.00365 0.42068 0.87708 0.0
H1442 H 0.0055 0.38313 0.96009 0.0
H1443 H 0.97328 0.42904 0.91132 0.0
H1444 H 0.00447 0.40658 0.90638 0.0
H1445 H 0.96716 0.39654 0.95418 0.0
C1446 C 0.97417 0.38365 0.97056 0.0
C1447 C 0.98484 0.37955 0.97254 0.0
C1448 C 0.99776 0.41165 0.90752 0.0
C1449 C 0.98775 0.39959 0.94198 0.0
C1450 C 0.99734 0.41979 0.89084 0.0
C1451 C 0.98826 0.42599 0.89157 0.0
C1452 C 0.98891 0.40951 0.92496 0.0
C1453 C 0.98017 0.4242 0.90978 0.0
C1454 C 0.97564 0.3937 0.9555 0.0
C1455 C 0.99702 0.38598 0.95909 0.0
N1456 N 0.98056 0.416 0.92561 0.0
N1457 N 0.99807 0.39558 0.9442 0.0
H1458 H 0.62602 0.61461 0.96344 0.0
H1459 H 0.56948 0.59042 0.86905 0.0
H1460 H 0.59935 0.63419 0.9522 0.0
H1461 H 0.58584 0.56282 0.89127 0.0
H1462 H 0.58241 0.60807 0.89726 0.0
H1463 H 0.61375 0.59728 0.93443 0.0
C1464 C 0.61768 0.61536 0.9548 0.0
C1465 C 0.61368 0.62586 0.96033 0.0
C1466 C 0.58313 0.59813 0.896 0.0
C1467 C 0.59962 0.60605 0.92717 0.0
C1468 C 0.57565 0.58795 0.87997 0.0
C1469 C 0.57642 0.57498 0.87781 0.0
C1470 C 0.59163 0.59546 0.90992 0.0
C1471 C 0.585 0.5727 0.89215 0.0
C1472 C 0.61063 0.6054 0.93833 0.0
C1473 C 0.60275 0.62624 0.94859 0.0
N1474 N 0.59229 0.58285 0.90758 0.0
N1475 N 0.59612 0.61649 0.93257 0.0
H1476 H 0.04019 0.63935 0.94994 0.0
H1477 H 0.98623 0.56719 0.88201 0.0
H1478 H 0.9931 0.61338 0.95979 0.0
H1479 H 0.0308 0.59945 0.86384 0.0
H1480 H 0.98899 0.58273 0.91231 0.0
H1481 H 0.03737 0.62357 0.92001 0.0
C1482 C 0.02924 0.63034 0.94583 0.0
C1483 C 0.01686 0.62771 0.95745 0.0
C1484 C 0.99816 0.58638 0.90168 0.0
C1485 C 0.01359 0.60953 0.92318 0.0
C1486 C 0.99659 0.57754 0.88433 0.0
C1487 C 0.00829 0.582 0.87027 0.0
C1488 C 0.01156 0.59974 0.9051 0.0
C1489 C 0.02154 0.59541 0.87437 0.0
C1490 C 0.02765 0.62134 0.9287 0.0
C1491 C 0.00296 0.61587 0.95128 0.0
N1492 N 0.02281 0.60379 0.89139 0.0
N1493 N 0.00171 0.60718 0.93462 0.0
H1494 H 0.40254 0.37066 0.95215 0.0
H1495 H 0.39816 0.4317 0.88522 0.0
H1496 H 0.37038 0.38355 0.96487 0.0
H1497 H 0.43608 0.42644 0.88701 0.0
H1498 H 0.38683 0.41341 0.91295 0.0
H1499 H 0.41359 0.38979 0.92596 0.0
C1500 C 0.39772 0.37745 0.9494 0.0
C1501 C 0.38549 0.37546 0.96083 0.0
C1502 C 0.39766 0.41634 0.9073 0.0
C1503 C 0.39824 0.39756 0.93071 0.0
C1504 C 0.40418 0.42685 0.89158 0.0
C1505 C 0.41805 0.43051 0.88359 0.0
C1506 C 0.40502 0.4094 0.91496 0.0
C1507 C 0.42524 0.42373 0.89231 0.0
C1508 C 0.40412 0.38847 0.93448 0.0
C1509 C 0.37982 0.3847 0.95649 0.0
N1510 N 0.41861 0.41345 0.90737 0.0
N1511 N 0.38622 0.39535 0.94172 0.0
H1512 H 0.611 0.98708 0.96729 0.0
H1513 H 0.58939 0.02318 0.87582 0.0
H1514 H 0.63235 0.03445 0.95728 0.0
H1515 H 0.5631 0.97681 0.89231 0.0
H1516 H 0.60605 0.02725 0.90442 0.0
H1517 H 0.59451 0.98278 0.93819 0.0
C1518 C 0.61231 0.99658 0.95891 0.0
C1519 C 0.62308 0.01116 0.96484 0.0
C1520 C 0.59661 0.01619 0.90183 0.0
C1521 C 0.60416 0.0063 0.93155 0.0
C1522 C 0.58699 0.01387 0.88559 0.0
C1523 C 0.57473 0.99963 0.88164 0.0
C1524 C 0.59406 0.00418 0.91424 0.0
C1525 C 0.57247 0.98795 0.89458 0.0
C1526 C 0.60283 0.99411 0.94236 0.0
C1527 C 0.6242 0.02302 0.95338 0.0
N1528 N 0.58205 0.99048 0.91026 0.0
N1529 N 0.61486 0.02032 0.93734 0.0
H1530 H 0.62555 0.02802 0.07616 0.0
H1531 H 0.55128 0.96372 0.12747 0.0
H1532 H 0.60397 0.98194 0.05618 0.0
H1533 H 0.57927 0.00679 0.15635 0.0
H1534 H 0.56905 0.97085 0.09914 0.0
H1535 H 0.60721 0.02105 0.10358 0.0
C1536 C 0.61695 0.01643 0.07749 0.0
C1537 C 0.61634 0.00555 0.06381 0.0
C1538 C 0.57126 0.97874 0.11167 0.0
C1539 C 0.59523 0.99752 0.09518 0.0
C1540 C 0.56115 0.97467 0.1279 0.0
C1541 C 0.56377 0.98464 0.14443 0.0
C1542 C 0.58405 0.99293 0.11185 0.0
C1543 C 0.57663 0.99879 0.14386 0.0
C1544 C 0.60649 0.01246 0.0932 0.0
C1545 C 0.60493 0.99071 0.06639 0.0
N1546 N 0.58629 0.0025 0.12787 0.0
N1547 N 0.59481 0.98714 0.08173 0.0
H1548 H 0.03449 0.62818 0.05945 0.0
H1549 H 0.97462 0.57028 0.13793 0.0
H1550 H 0.98885 0.6163 0.0575 0.0
H1551 H 0.01648 0.57371 0.12558 0.0
H1552 H 0.97958 0.5878 0.10994 0.0
H1553 H 0.02827 0.60948 0.08576 0.0
C1554 C 0.02314 0.62169 0.06459 0.0
C1555 C 0.01217 0.62387 0.05619 0.0
C1556 C 0.98762 0.58463 0.11332 0.0
C1557 C 0.00498 0.60229 0.08646 0.0
C1558 C 0.98477 0.57455 0.1292 0.0
C1559 C 0.9952 0.57056 0.13427 0.0
C1560 C 0.00105 0.59086 0.10254 0.0
C1561 C 0.00824 0.57667 0.12257 0.0
C1562 C 0.01959 0.61092 0.07957 0.0
C1563 C 0.99766 0.615 0.06349 0.0
N1564 N 0.01083 0.58657 0.1074 0.0
N1565 N 0.99448 0.60463 0.07829 0.0
H1566 H 0.38048 0.38321 0.06483 0.0
H1567 H 0.44976 0.40327 0.13715 0.0
H1568 H 0.40899 0.36521 0.05661 0.0
H1569 H 0.42283 0.42295 0.146 0.0
H1570 H 0.43517 0.38992 0.10669 0.0
H1571 H 0.39598 0.39845 0.09392 0.0
C1572 C 0.38997 0.38245 0.06909 0.0
C1573 C 0.39337 0.37284 0.05825 0.0
C1574 C 0.43245 0.3972 0.1152 0.0
C1575 C 0.41113 0.39025 0.09142 0.0
C1576 C 0.44077 0.40479 0.13264 0.0
C1577 C 0.43743 0.41415 0.14419 0.0
C1578 C 0.42062 0.39888 0.10926 0.0
C1579 C 0.42581 0.4159 0.13744 0.0
C1580 C 0.39882 0.39117 0.08567 0.0
C1581 C 0.40584 0.37237 0.06447 0.0
N1582 N 0.41774 0.40825 0.12048 0.0
N1583 N 0.41421 0.38091 0.0806 0.0
H1584 H 0.6315 0.71155 0.38879 0.0
H1585 H 0.67888 0.75379 0.48925 0.0
H1586 H 0.67395 0.71651 0.40109 0.0
H1587 H 0.64189 0.75692 0.4681 0.0
H1588 H 0.67714 0.73967 0.45778 0.0
H1589 H 0.63479 0.72733 0.41876 0.0
C1590 C 0.64153 0.71593 0.39782 0.0
C1591 C 0.65245 0.71262 0.39243 0.0
C1592 C 0.66947 0.74353 0.46 0.0
C1593 C 0.65627 0.7308 0.42691 0.0
C1594 C 0.6705 0.75167 0.47791 0.0
C1595 C 0.66047 0.75653 0.4814 0.0
C1596 C 0.65827 0.74011 0.44554 0.0
C1597 C 0.64969 0.75319 0.46628 0.0
C1598 C 0.64342 0.72502 0.41491 0.0
C1599 C 0.66524 0.71876 0.40467 0.0
N1600 N 0.64884 0.74514 0.44909 0.0
N1601 N 0.66677 0.7275 0.42143 0.0
H1602 H 0.26678 0.96607 0.40901 0.0
H1603 H 0.25969 0.89285 0.45816 0.0
H1604 H 0.29241 0.94687 0.38793 0.0
H1605 H 0.23816 0.91545 0.48283 0.0
H1606 H 0.27067 0.91153 0.43097 0.0
H1607 H 0.25519 0.94669 0.43489 0.0
C1608 C 0.27001 0.9578 0.40981 0.0
C1609 C 0.28063 0.95816 0.39621 0.0
C1610 C 0.26348 0.91234 0.44228 0.0
C1611 C 0.26728 0.93579 0.42593 0.0
C1612 C 0.25723 0.9017 0.45784 0.0
C1613 C 0.24797 0.90255 0.47286 0.0
C1614 C 0.26046 0.92393 0.4417 0.0
C1615 C 0.24503 0.91416 0.47145 0.0
C1616 C 0.26336 0.9467 0.42463 0.0
C1617 C 0.28432 0.94709 0.39809 0.0
N1618 N 0.25128 0.9244 0.45623 0.0
N1619 N 0.27764 0.93634 0.41265 0.0
H1620 H 0.04284 0.29735 0.39114 0.0
H1621 H 0.09651 0.35532 0.47718 0.0
H1622 H 0.0544 0.34341 0.39347 0.0
H1623 H 0.09031 0.31152 0.46745 0.0
H1624 H 0.08067 0.35112 0.44735 0.0
H1625 H 0.05931 0.30217 0.42019 0.0
C1626 C 0.0488 0.30849 0.39777 0.0
C1627 C 0.04718 0.31999 0.38975 0.0
C1628 C 0.08283 0.34246 0.4517 0.0
C1629 C 0.0662 0.32558 0.42321 0.0
C1630 C 0.09197 0.34488 0.46866 0.0
C1631 C 0.0948 0.33376 0.4749 0.0
C1632 C 0.07636 0.32878 0.44092 0.0
C1633 C 0.08831 0.32034 0.46345 0.0
C1634 C 0.05827 0.31124 0.41437 0.0
C1635 C 0.05528 0.33419 0.39908 0.0
N1636 N 0.07938 0.31822 0.44709 0.0
N1637 N 0.06442 0.33658 0.41533 0.0
H1638 H 0.06332 0.34896 0.29825 0.0
H1639 H 0.0835 0.32171 0.19351 0.0
H1640 H 0.04031 0.30318 0.27677 0.0
H1641 H 0.11362 0.3636 0.22385 0.0
H1642 H 0.06648 0.31552 0.22246 0.0
H1643 H 0.08066 0.35542 0.26938 0.0
C1644 C 0.06187 0.34027 0.28746 0.0
C1645 C 0.05034 0.32548 0.29 0.0
C1646 C 0.07684 0.32605 0.22282 0.0
C1647 C 0.07012 0.33283 0.25693 0.0
C1648 C 0.08665 0.32957 0.20634 0.0
C1649 C 0.10013 0.34319 0.20621 0.0
C1650 C 0.0804 0.33626 0.23929 0.0
C1651 C 0.10332 0.35305 0.2231 0.0
C1652 C 0.07181 0.34396 0.27104 0.0
C1653 C 0.04905 0.3147 0.27553 0.0
N1654 N 0.09352 0.34941 0.23892 0.0
N1655 N 0.05878 0.3186 0.25961 0.0
H1656 H 0.63645 0.70832 0.28265 0.0
H1657 H 0.70416 0.77962 0.22959 0.0
H1658 H 0.68176 0.7262 0.30113 0.0
H1659 H 0.65862 0.76017 0.21128 0.0
H1660 H 0.69642 0.76067 0.2564 0.0
H1661 H 0.64465 0.72761 0.25673 0.0
C1662 C 0.64815 0.71627 0.28125 0.0
C1663 C 0.65841 0.7156 0.29419 0.0
C1664 C 0.68814 0.76063 0.24657 0.0
C1665 C 0.66792 0.7379 0.2644 0.0
C1666 C 0.69254 0.77143 0.23125 0.0
C1667 C 0.68203 0.77155 0.21817 0.0
C1668 C 0.67312 0.74985 0.24879 0.0
C1669 C 0.66712 0.76073 0.22118 0.0
C1670 C 0.65283 0.72733 0.26641 0.0
C1671 C 0.67344 0.72625 0.29151 0.0
N1672 N 0.66314 0.75033 0.23609 0.0
N1673 N 0.67774 0.73698 0.27694 0.0
H1674 H 0.27105 0.9798 0.28967 0.0
H1675 H 0.24015 0.90427 0.22407 0.0
H1676 H 0.28621 0.94909 0.29941 0.0
H1677 H 0.23345 0.94027 0.20782 0.0
H1678 H 0.25648 0.91981 0.25231 0.0
H1679 H 0.25667 0.96481 0.26014 0.0
C1680 C 0.27141 0.96991 0.28554 0.0
C1681 C 0.2798 0.96565 0.29712 0.0
C1682 C 0.25142 0.92427 0.24251 0.0
C1683 C 0.26318 0.94829 0.26324 0.0
C1684 C 0.24211 0.91542 0.22639 0.0
C1685 C 0.23527 0.92089 0.21364 0.0
C1686 C 0.25385 0.93865 0.24594 0.0
C1687 C 0.23816 0.9354 0.2175 0.0
C1688 C 0.26319 0.96135 0.26861 0.0
C1689 C 0.27992 0.95279 0.29088 0.0
N1690 N 0.24716 0.94372 0.23329 0.0
N1691 N 0.2716 0.94446 0.27444 0.0
H1692 H 0.70253 0.95784 0.30324 0.0
H1693 H 0.67441 0.93317 0.18846 0.0
H1694 H 0.66559 0.96016 0.28 0.0
H1695 H 0.69162 0.91077 0.22375 0.0
H1696 H 0.67357 0.9459 0.22032 0.0
H1697 H 0.70118 0.94307 0.27264 0.0
C1698 C 0.69411 0.9552 0.2917 0.0
C1699 C 0.68417 0.96024 0.29408 0.0
C1700 C 0.67746 0.93814 0.22106 0.0
C1701 C 0.68273 0.94359 0.259 0.0
C1702 C 0.67804 0.93099 0.20295 0.0
C1703 C 0.68315 0.921 0.20361 0.0
C1704 C 0.68234 0.93551 0.2398 0.0
C1705 C 0.6876 0.9184 0.2227 0.0
C1706 C 0.69331 0.94673 0.27433 0.0
C1707 C 0.67341 0.95643 0.27875 0.0
N1708 N 0.68726 0.92575 0.24006 0.0
N1709 N 0.6731 0.94848 0.26166 0.0
H1710 H 0.03865 0.71517 0.30086 0.0
H1711 H 0.10714 0.75839 0.22384 0.0
H1712 H 0.0722 0.70373 0.2916 0.0
H1713 H 0.0688 0.76299 0.22259 0.0
H1714 H 0.09552 0.73995 0.2511 0.0
H1715 H 0.05049 0.73426 0.27434 0.0
C1716 C 0.04846 0.71662 0.29324 0.0
C1717 C 0.0544 0.70778 0.29848 0.0
C1718 C 0.08968 0.74503 0.24489 0.0
C1719 C 0.06808 0.72971 0.26827 0.0
C1720 C 0.09629 0.75555 0.22928 0.0
C1721 C 0.08895 0.76226 0.2208 0.0
C1722 C 0.07562 0.74121 0.2522 0.0
C1723 C 0.075 0.7583 0.22881 0.0
C1724 C 0.05522 0.72753 0.2781 0.0
C1725 C 0.06717 0.71021 0.28806 0.0
N1726 N 0.06879 0.74802 0.24401 0.0
N1727 N 0.07359 0.72096 0.27353 0.0
H1728 H 0.28183 0.32382 0.29643 0.0
H1729 H 0.24096 0.35302 0.22395 0.0
H1730 H 0.29098 0.36909 0.29571 0.0
H1731 H 0.23819 0.31087 0.21284 0.0
H1732 H 0.2566 0.35732 0.25391 0.0
H1733 H 0.26352 0.31734 0.26881 0.0
C1734 C 0.28 0.33238 0.29052 0.0
C1735 C 0.28803 0.34705 0.29837 0.0
C1736 C 0.25255 0.34708 0.245 0.0
C1737 C 0.26705 0.33966 0.26706 0.0
C1738 C 0.24361 0.34463 0.22789 0.0
C1739 C 0.23845 0.33167 0.21571 0.0
C1740 C 0.25641 0.33652 0.25009 0.0
C1741 C 0.24195 0.32101 0.22183 0.0
C1742 C 0.26957 0.32866 0.27478 0.0
C1743 C 0.28518 0.35767 0.29011 0.0
N1744 N 0.25084 0.32373 0.23853 0.0
N1745 N 0.27495 0.35375 0.275 0.0
H1746 H 0.29127 0.37165 0.39373 0.0
H1747 H 0.24684 0.32136 0.48988 0.0
H1748 H 0.28579 0.32833 0.40352 0.0
H1749 H 0.24368 0.35878 0.46955 0.0
H1750 H 0.26166 0.32388 0.45924 0.0
H1751 H 0.27482 0.36754 0.4227 0.0
C1752 C 0.28665 0.36127 0.40201 0.0
C1753 C 0.29 0.35034 0.3962 0.0
C1754 C 0.25763 0.33147 0.46145 0.0
C1755 C 0.27104 0.34556 0.42952 0.0
C1756 C 0.24909 0.32999 0.47887 0.0
C1757 C 0.24402 0.33992 0.48239 0.0
C1758 C 0.26126 0.34302 0.44752 0.0
C1759 C 0.24755 0.35104 0.46773 0.0
C1760 C 0.27717 0.3589 0.41851 0.0
C1761 C 0.28352 0.33706 0.40745 0.0
N1762 N 0.25601 0.35234 0.45103 0.0
N1763 N 0.2744 0.33507 0.42368 0.0
H1764 H 0.65709 0.95072 0.39127 0.0
H1765 H 0.68919 0.91384 0.46639 0.0
H1766 H 0.7035 0.96634 0.39764 0.0
H1767 H 0.64437 0.90443 0.46992 0.0
H1768 H 0.69413 0.9317 0.43904 0.0
H1769 H 0.65174 0.93239 0.41824 0.0
C1770 C 0.66616 0.95035 0.39835 0.0
C1771 C 0.68078 0.96013 0.39214 0.0
C1772 C 0.6832 0.92569 0.44578 0.0
C1773 C 0.67469 0.93907 0.42286 0.0
C1774 C 0.68038 0.9155 0.46144 0.0
C1775 C 0.66635 0.9076 0.47058 0.0
C1776 C 0.67191 0.928 0.43907 0.0
C1777 C 0.6553 0.91007 0.46319 0.0
C1778 C 0.66309 0.93987 0.41374 0.0
C1779 C 0.69206 0.95909 0.40191 0.0
N1780 N 0.65833 0.92006 0.44792 0.0
N1781 N 0.68877 0.94873 0.41669 0.0
H1782 H 0.04344 0.71171 0.40515 0.0
H1783 H 0.12143 0.75061 0.46329 0.0
H1784 H 0.07868 0.70371 0.38978 0.0
H1785 H 0.0832 0.74992 0.48888 0.0
H1786 H 0.10667 0.73615 0.43348 0.0
H1787 H 0.05862 0.72836 0.43347 0.0
C1788 C 0.05434 0.71345 0.40769 0.0
C1789 C 0.05973 0.70621 0.39513 0.0
C1790 C 0.10152 0.73922 0.44559 0.0
C1791 C 0.07715 0.72531 0.42728 0.0
C1792 C 0.10994 0.74744 0.46265 0.0
C1793 C 0.10354 0.75139 0.47874 0.0
C1794 C 0.08658 0.73492 0.44451 0.0
C1795 C 0.08865 0.74724 0.47678 0.0
C1796 C 0.06298 0.72294 0.42384 0.0
C1797 C 0.07396 0.70891 0.39913 0.0
N1798 N 0.08065 0.73917 0.46003 0.0
N1799 N 0.08216 0.71824 0.4148 0.0
H1800 H 0.30051 0.0445 0.72288 0.0
H1801 H 0.34613 0.08565 0.825 0.0
H1802 H 0.34352 0.05094 0.73545 0.0
H1803 H 0.30906 0.0885 0.80349 0.0
H1804 H 0.34517 0.07239 0.79298 0.0
H1805 H 0.30304 0.05972 0.75329 0.0
C1806 C 0.3105 0.0491 0.73204 0.0
C1807 C 0.3218 0.04637 0.72661 0.0
C1808 C 0.33731 0.076 0.79524 0.0
C1809 C 0.32474 0.06385 0.76157 0.0
C1810 C 0.33789 0.08366 0.81348 0.0
C1811 C 0.32761 0.08816 0.81705 0.0
C1812 C 0.32629 0.07271 0.78053 0.0
C1813 C 0.31703 0.08501 0.80165 0.0
C1814 C 0.31195 0.05786 0.74937 0.0
C1815 C 0.33453 0.05275 0.73903 0.0
N1816 N 0.3166 0.07741 0.78415 0.0
N1817 N 0.33562 0.06113 0.75602 0.0
H1818 H 0.92508 0.29025 0.72501 0.0
H1819 H 0.93035 0.23471 0.80347 0.0
H1820 H 0.96092 0.28161 0.7238 0.0
H1821 H 0.89295 0.24066 0.79912 0.0
H1822 H 0.94162 0.25127 0.77391 0.0
H1823 H 0.91331 0.27197 0.75219 0.0
C1824 C 0.93052 0.28453 0.73045 0.0
C1825 C 0.94407 0.28755 0.72206 0.0
C1826 C 0.93091 0.24887 0.77937 0.0
C1827 C 0.93052 0.26644 0.75336 0.0
C1828 C 0.92442 0.23934 0.79614 0.0
C1829 C 0.91073 0.23638 0.8039 0.0
C1830 C 0.92366 0.25551 0.77032 0.0
C1831 C 0.90364 0.24283 0.79393 0.0
C1832 C 0.92373 0.27402 0.74598 0.0
C1833 C 0.95049 0.27968 0.72979 0.0
N1834 N 0.91022 0.25213 0.77777 0.0
N1835 N 0.94368 0.26952 0.74505 0.0
H1836 H 0.71734 0.68003 0.73217 0.0
H1837 H 0.77272 0.66399 0.79394 0.0
H1838 H 0.71807 0.6393 0.72508 0.0
H1839 H 0.7572 0.69195 0.81946 0.0
H1840 H 0.75609 0.658 0.76455 0.0
H1841 H 0.73532 0.68768 0.76053 0.0
C1842 C 0.72128 0.67272 0.73654 0.0
C1843 C 0.71613 0.65896 0.72634 0.0
C1844 C 0.75641 0.66549 0.77658 0.0
C1845 C 0.73679 0.66774 0.75835 0.0
C1846 C 0.76585 0.66888 0.79344 0.0
C1847 C 0.76633 0.67839 0.80944 0.0
C1848 C 0.7475 0.67181 0.77547 0.0
C1849 C 0.7574 0.6847 0.80748 0.0
C1850 C 0.7315 0.67708 0.75271 0.0
C1851 C 0.72162 0.64993 0.73263 0.0
N1852 N 0.74835 0.68129 0.79083 0.0
N1853 N 0.7317 0.65451 0.74813 0.0
H1854 H 0.72215 0.67702 0.62181 0.0
H1855 H 0.75168 0.63591 0.54739 0.0
H1856 H 0.71259 0.63195 0.62943 0.0
H1857 H 0.76029 0.68019 0.53578 0.0
H1858 H 0.73914 0.63547 0.57942 0.0
H1859 H 0.73781 0.67955 0.59198 0.0
C1860 C 0.72337 0.6677 0.61731 0.0
C1861 C 0.71592 0.65421 0.62809 0.0
C1862 C 0.74381 0.64534 0.56998 0.0
C1863 C 0.73382 0.65705 0.59411 0.0
C1864 C 0.75095 0.64557 0.55165 0.0
C1865 C 0.75688 0.65803 0.5388 0.0
C1866 C 0.74249 0.65764 0.57556 0.0
C1867 C 0.75588 0.67036 0.54528 0.0
C1868 C 0.73231 0.66915 0.60029 0.0
C1869 C 0.71796 0.64252 0.62155 0.0
N1870 N 0.74868 0.66982 0.56315 0.0
N1871 N 0.72665 0.64422 0.60503 0.0
H1872 H 0.30597 0.03958 0.6149 0.0
H1873 H 0.37053 0.11581 0.56728 0.0
H1874 H 0.35103 0.06147 0.63652 0.0
H1875 H 0.32619 0.09094 0.54296 0.0
H1876 H 0.3637 0.09657 0.5934 0.0
H1877 H 0.31331 0.05876 0.58893 0.0
C1878 C 0.31744 0.04839 0.61417 0.0
C1879 C 0.32788 0.0489 0.62801 0.0
C1880 C 0.35547 0.09538 0.58237 0.0
C1881 C 0.33638 0.07105 0.59822 0.0
C1882 C 0.35936 0.10635 0.56744 0.0
C1883 C 0.34891 0.10507 0.55293 0.0
C1884 C 0.34102 0.08305 0.5828 0.0
C1885 C 0.33457 0.0926 0.55403 0.0
C1886 C 0.32163 0.05937 0.5993 0.0
C1887 C 0.34259 0.0606 0.62618 0.0
N1888 N 0.33107 0.08211 0.56865 0.0
N1889 N 0.34639 0.07125 0.61161 0.0
H1890 H 0.9602 0.27826 0.6292 0.0
H1891 H 0.90647 0.25485 0.53116 0.0
H1892 H 0.93666 0.30018 0.61196 0.0
H1893 H 0.92177 0.22683 0.5552 0.0
H1894 H 0.91963 0.27287 0.55882 0.0
H1895 H 0.94863 0.26081 0.6 0.0
C1896 C 0.95272 0.2795 0.6192 0.0
C1897 C 0.94934 0.29066 0.62314 0.0
C1898 C 0.9201 0.26277 0.5581 0.0
C1899 C 0.93608 0.27074 0.58979 0.0
C1900 C 0.91247 0.25239 0.54238 0.0
C1901 C 0.91282 0.23916 0.54096 0.0
C1902 C 0.92827 0.26004 0.57255 0.0
C1903 C 0.92122 0.23688 0.55562 0.0
C1904 C 0.94607 0.26948 0.60261 0.0
C1905 C 0.93953 0.2917 0.60967 0.0
N1906 N 0.9286 0.24721 0.57084 0.0
N1907 N 0.93325 0.28187 0.59366 0.0
H1908 H 0.37713 0.3013 0.63106 0.0
H1909 H 0.32845 0.24724 0.538 0.0
H1910 H 0.33061 0.28513 0.6244 0.0
H1911 H 0.3749 0.26406 0.54638 0.0
H1912 H 0.32839 0.25975 0.57045 0.0
H1913 H 0.37594 0.28668 0.60078 0.0
C1914 C 0.36663 0.29468 0.62325 0.0
C1915 C 0.35396 0.29455 0.63031 0.0
C1916 C 0.33857 0.26064 0.5652 0.0
C1917 C 0.35254 0.27765 0.59536 0.0
C1918 C 0.33859 0.25344 0.54677 0.0
C1919 C 0.35173 0.25473 0.53939 0.0
C1920 C 0.35178 0.26914 0.57633 0.0
C1921 C 0.36458 0.26299 0.55127 0.0
C1922 C 0.36596 0.28628 0.60591 0.0
C1923 C 0.34067 0.28561 0.61951 0.0
N1924 N 0.36428 0.26991 0.56907 0.0
N1925 N 0.34032 0.27756 0.60251 0.0
H1926 H 0.73835 0.04247 0.62161 0.0
H1927 H 0.73314 0.10116 0.54988 0.0
H1928 H 0.70525 0.05453 0.63099 0.0
H1929 H 0.76993 0.09407 0.55044 0.0
H1930 H 0.72218 0.08396 0.57894 0.0
H1931 H 0.74914 0.06063 0.59422 0.0
C1932 C 0.73329 0.0489 0.6179 0.0
C1933 C 0.72084 0.04693 0.62872 0.0
C1934 C 0.73269 0.08624 0.57272 0.0
C1935 C 0.7333 0.06795 0.59716 0.0
C1936 C 0.73899 0.09612 0.55624 0.0
C1937 C 0.7524 0.09894 0.54756 0.0
C1938 C 0.73985 0.07913 0.58049 0.0
C1939 C 0.75943 0.092 0.55631 0.0
C1940 C 0.73953 0.05936 0.60225 0.0
C1941 C 0.71484 0.05567 0.6231 0.0
N1942 N 0.75303 0.08238 0.57216 0.0
N1943 N 0.72112 0.0658 0.60767 0.0
H1944 H 0.94006 0.65621 0.63297 0.0
H1945 H 0.91869 0.68754 0.53519 0.0
H1946 H 0.96284 0.70246 0.61536 0.0
H1947 H 0.89189 0.64213 0.55569 0.0
H1948 H 0.93521 0.69278 0.56426 0.0
H1949 H 0.92275 0.65034 0.60427 0.0
C1950 C 0.94147 0.66512 0.62308 0.0
C1951 C 0.95295 0.67987 0.62666 0.0
C1952 C 0.92569 0.68167 0.56251 0.0
C1953 C 0.93317 0.67322 0.59385 0.0
C1954 C 0.91614 0.67869 0.54596 0.0
C1955 C 0.90375 0.66439 0.54301 0.0
C1956 C 0.92298 0.67028 0.57629 0.0
C1957 C 0.90134 0.65329 0.55723 0.0
C1958 C 0.93155 0.66176 0.60675 0.0
C1959 C 0.95418 0.69094 0.61332 0.0
N1960 N 0.91088 0.65647 0.57325 0.0
N1961 N 0.94444 0.68738 0.59757 0.0
H1962 H 0.94796 0.66103 0.73221 0.0
H1963 H 0.91514 0.70033 0.80396 0.0
H1964 H 0.95902 0.70669 0.72584 0.0
H1965 H 0.9101 0.65772 0.81798 0.0
H1966 H 0.92946 0.70178 0.77331 0.0
H1967 H 0.93232 0.65859 0.76192 0.0
C1968 C 0.94712 0.67053 0.73702 0.0
C1969 C 0.95489 0.6841 0.7265 0.0
C1970 C 0.92519 0.69209 0.78306 0.0
C1971 C 0.93695 0.68134 0.76037 0.0
C1972 C 0.91705 0.69127 0.80061 0.0
C1973 C 0.91146 0.67893 0.81367 0.0
C1974 C 0.92778 0.68045 0.77843 0.0
C1975 C 0.91405 0.66739 0.80827 0.0
C1976 C 0.93819 0.66913 0.75398 0.0
C1977 C 0.95334 0.69602 0.73347 0.0
N1978 N 0.92206 0.66845 0.7911 0.0
N1979 N 0.94455 0.69435 0.7499 0.0
H1980 H 0.32332 0.28208 0.72613 0.0
H1981 H 0.35287 0.24327 0.80215 0.0
H1982 H 0.36943 0.2975 0.73573 0.0
H1983 H 0.30786 0.23343 0.80277 0.0
H1984 H 0.35865 0.2618 0.77551 0.0
H1985 H 0.31697 0.26297 0.75228 0.0
C1986 C 0.33211 0.28151 0.73376 0.0
C1987 C 0.34694 0.29146 0.72868 0.0
C1988 C 0.34749 0.25556 0.78143 0.0
C1989 C 0.33973 0.26951 0.75843 0.0
C1990 C 0.34419 0.24498 0.79669 0.0
C1991 C 0.32987 0.23678 0.80484 0.0
C1992 C 0.3364 0.25796 0.77413 0.0
C1993 C 0.31902 0.23932 0.79681 0.0
C1994 C 0.32847 0.27058 0.74867 0.0
C1995 C 0.35784 0.29014 0.7391 0.0
N1996 N 0.32252 0.24971 0.78196 0.0
N1997 N 0.35402 0.27935 0.75338 0.0
H1998 H 0.74261 0.04287 0.72908 0.0
H1999 H 0.74081 0.0997 0.81186 0.0
H2000 H 0.70862 0.05421 0.73068 0.0
H2001 H 0.7753 0.08918 0.80889 0.0
H2002 H 0.72923 0.08369 0.7815 0.0
H2003 H 0.75488 0.06008 0.758 0.0
C2004 C 0.73769 0.04895 0.7355 0.0
C2005 C 0.72451 0.04703 0.7274 0.0
C2006 C 0.73936 0.08492 0.78744 0.0
C2007 C 0.7386 0.06684 0.76059 0.0
C2008 C 0.74604 0.09415 0.80469 0.0
C2009 C 0.75903 0.09575 0.81299 0.0
C2010 C 0.7457 0.07721 0.7784 0.0
C2011 C 0.76518 0.0881 0.80322 0.0
C2012 C 0.74474 0.05881 0.75202 0.0
C2013 C 0.71874 0.05529 0.73639 0.0
N2014 N 0.75844 0.07914 0.7865 0.0
N2015 N 0.72581 0.06481 0.75251 0.0
H2016 H 0.01915 0.33838 0.05562 0.0
H2017 H 0.10654 0.37304 0.05531 0.0
H2018 H 0.04843 0.37657 0.01888 0.0
H2019 H 0.07606 0.33913 0.09711 0.0
H2020 H 0.08579 0.37385 0.03991 0.0
H2021 H 0.04022 0.33783 0.06904 0.0
C2022 C 0.03006 0.3467 0.05037 0.0
C2023 C 0.03202 0.35756 0.03611 0.0
C2024 C 0.0837 0.36619 0.05237 0.0
C2025 C 0.0564 0.35697 0.05151 0.0
C2026 C 0.09552 0.36573 0.0612 0.0
C2027 C 0.09308 0.35592 0.07748 0.0
C2028 C 0.06935 0.35678 0.05988 0.0
C2029 C 0.07853 0.34663 0.08432 0.0
C2030 C 0.04213 0.34638 0.05808 0.0
C2031 C 0.04644 0.36804 0.02992 0.0
N2032 N 0.06729 0.34732 0.07553 0.0
N2033 N 0.05813 0.36748 0.03765 0.0
H2034 H 0.65948 0.6782 0.06781 0.0
H2035 H 0.67155 0.7589 0.06037 0.0
H2036 H 0.64172 0.69006 0.01654 0.0
H2037 H 0.66517 0.73736 0.11918 0.0
H2038 H 0.66358 0.73493 0.04265 0.0
H2039 H 0.66457 0.7011 0.08603 0.0
C2040 C 0.65657 0.68559 0.06048 0.0
C2041 C 0.65018 0.68229 0.0407 0.0
C2042 C 0.66382 0.73548 0.05943 0.0
C2043 C 0.65622 0.70852 0.06115 0.0
C2044 C 0.66841 0.7491 0.06948 0.0
C2045 C 0.66892 0.74999 0.09119 0.0
C2046 C 0.66012 0.72285 0.07123 0.0
C2047 C 0.66478 0.73704 0.1024 0.0
C2048 C 0.65944 0.6986 0.07086 0.0
C2049 C 0.6466 0.6922 0.03184 0.0
N2050 N 0.66071 0.72401 0.09228 0.0
N2051 N 0.64987 0.70502 0.04202 0.0
H2052 H 0.32068 0.949 0.02927 0.0
H2053 H 0.24355 0.93569 0.06655 0.0
H2054 H 0.31426 0.9854 0.04587 0.0
H2055 H 0.26003 0.90893 0.09175 0.0
H2056 H 0.26739 0.95135 0.04994 0.0
H2057 H 0.29633 0.93148 0.04421 0.0
C2058 C 0.31415 0.95327 0.03608 0.0
C2059 C 0.31944 0.96862 0.03648 0.0
C2060 C 0.26566 0.94195 0.059 0.0
C2061 C 0.29169 0.9488 0.05278 0.0
C2062 C 0.2521 0.93302 0.0686 0.0
C2063 C 0.24977 0.92108 0.08104 0.0
C2064 C 0.2769 0.93874 0.06135 0.0
C2065 C 0.26119 0.91792 0.0823 0.0
C2066 C 0.30035 0.94332 0.04455 0.0
C2067 C 0.31061 0.97365 0.04543 0.0
N2068 N 0.2743 0.92673 0.07261 0.0
N2069 N 0.29708 0.96374 0.05301 0.0
H2070 H 0.33142 0.01676 0.98865 0.0
H2071 H 0.36638 0.0934 0.93492 0.0
H2072 H 0.37882 0.04479 0.9906 0.0
H2073 H 0.32783 0.07747 0.97379 0.0
H2074 H 0.37164 0.0756 0.95131 0.0
H2075 H 0.32969 0.03809 0.97806 0.0
C2076 C 0.34149 0.02742 0.98674 0.0
C2077 C 0.35529 0.02903 0.99043 0.0
C2078 C 0.36219 0.07624 0.9564 0.0
C2079 C 0.35336 0.05346 0.97814 0.0
C2080 C 0.35919 0.08644 0.94717 0.0
C2081 C 0.34644 0.08677 0.95264 0.0
C2082 C 0.35222 0.06617 0.97087 0.0
C2083 C 0.3375 0.07732 0.96852 0.0
C2084 C 0.34047 0.0396 0.98088 0.0
C2085 C 0.36798 0.04314 0.98791 0.0
N2086 N 0.34039 0.06722 0.97674 0.0
N2087 N 0.36673 0.05485 0.98159 0.0
H2088 H 0.98683 0.32385 0.96185 0.0
H2089 H 0.90734 0.2492 0.96068 0.0
H2090 H 0.95346 0.31484 0.00782 0.0
H2091 H 0.94197 0.25907 0.91647 0.0
H2092 H 0.92359 0.27318 0.97807 0.0
H2093 H 0.96995 0.30028 0.94464 0.0
C2094 C 0.97589 0.31693 0.96827 0.0
C2095 C 0.97155 0.32127 0.98633 0.0
C2096 C 0.92762 0.27004 0.96461 0.0
C2097 C 0.95213 0.29413 0.96674 0.0
C2098 C 0.91836 0.25637 0.95467 0.0
C2099 C 0.92333 0.25206 0.93717 0.0
C2100 C 0.94191 0.27947 0.95691 0.0
C2101 C 0.93773 0.26176 0.93013 0.0
C2102 C 0.96626 0.30343 0.95846 0.0
C2103 C 0.95724 0.31188 0.99392 0.0
N2104 N 0.94647 0.27498 0.93998 0.0
N2105 N 0.94803 0.29869 0.98412 0.0
H2106 H 0.68366 0.67483 0.96903 0.0
H2107 H 0.74227 0.64901 0.95201 0.0
H2108 H 0.67859 0.63525 0.9971 0.0
H2109 H 0.74932 0.6919 0.9348 0.0
H2110 H 0.71865 0.643 0.96776 0.0
H2111 H 0.70727 0.68028 0.95491 0.0
C2112 C 0.68749 0.66722 0.97216 0.0
C2113 C 0.67914 0.65456 0.98429 0.0
C2114 C 0.72546 0.65377 0.96068 0.0
C2115 C 0.70634 0.66082 0.96819 0.0
C2116 C 0.7389 0.65719 0.95168 0.0
C2117 C 0.7478 0.671 0.94212 0.0
C2118 C 0.72084 0.66417 0.9599 0.0
C2119 C 0.74296 0.68122 0.94224 0.0
C2120 C 0.70104 0.67039 0.96415 0.0
C2121 C 0.68469 0.64513 0.98781 0.0
N2122 N 0.72979 0.67756 0.95085 0.0
N2123 N 0.69798 0.64845 0.97977 0.0
H2124 H 0.95437 0.62811 0.99731 0.0
H2125 H 0.93647 0.67921 0.92725 0.0
H2126 H 0.98598 0.66405 0.95911 0.0
H2127 H 0.90194 0.63925 0.9557 0.0
H2128 H 0.95459 0.67363 0.94005 0.0
H2129 H 0.93472 0.63135 0.98283 0.0
C2130 C 0.95715 0.63653 0.98571 0.0
C2131 C 0.97185 0.64591 0.97952 0.0
C2132 C 0.94307 0.66603 0.94358 0.0
C2133 C 0.94958 0.64975 0.96316 0.0
C2134 C 0.9327 0.66932 0.93645 0.0
C2135 C 0.91767 0.65981 0.94068 0.0
C2136 C 0.93849 0.65312 0.95516 0.0
C2137 C 0.91344 0.6469 0.95215 0.0
C2138 C 0.94595 0.6384 0.97753 0.0
C2139 C 0.97485 0.65665 0.9645 0.0
N2140 N 0.92382 0.64396 0.95913 0.0
N2141 N 0.96386 0.65833 0.95699 0.0
H2142 H 0.36601 0.31774 0.99039 0.0
H2143 H 0.30151 0.24283 0.93978 0.0
H2144 H 0.32353 0.31194 0.97601 0.0
H2145 H 0.34766 0.2581 0.93031 0.0
H2146 H 0.30863 0.2665 0.95731 0.0
H2147 H 0.35873 0.29418 0.97249 0.0
C2148 C 0.35516 0.31152 0.98339 0.0
C2149 C 0.34536 0.31678 0.98461 0.0
C2150 C 0.31715 0.26458 0.95139 0.0
C2151 C 0.33689 0.28976 0.96444 0.0
C2152 C 0.31312 0.2511 0.94134 0.0
C2153 C 0.32397 0.24836 0.9335 0.0
C2154 C 0.33214 0.27533 0.9539 0.0
C2155 C 0.33885 0.25947 0.93641 0.0
C2156 C 0.35103 0.2981 0.97317 0.0
C2157 C 0.33144 0.30829 0.97529 0.0
N2158 N 0.34248 0.27242 0.94641 0.0
N2159 N 0.32755 0.2951 0.96572 0.0
H2160 H 0.68237 0.01466 0.97521 0.0
H2161 H 0.73662 0.10277 0.96668 0.0
H2162 H 0.67814 0.04671 0.0129 0.0
H2163 H 0.744 0.07059 0.93485 0.0
H2164 H 0.71553 0.08241 0.98447 0.0
H2165 H 0.70517 0.03499 0.96055 0.0
C2166 C 0.68625 0.02598 0.9804 0.0
C2167 C 0.67833 0.02901 0.99523 0.0
C2168 C 0.72184 0.0798 0.97374 0.0
C2169 C 0.7044 0.05233 0.97856 0.0
C2170 C 0.73387 0.09142 0.96358 0.0
C2171 C 0.74205 0.08837 0.94922 0.0
C2172 C 0.71785 0.06499 0.96937 0.0
C2173 C 0.73808 0.07346 0.94593 0.0
C2174 C 0.69929 0.03757 0.97209 0.0
C2175 C 0.68388 0.04387 0.00146 0.0
N2176 N 0.72619 0.06232 0.95577 0.0
N2177 N 0.69654 0.05498 0.99303 0.0
H2178 H 0.63036 0.95139 0.01142 0.0
H2179 H 0.64542 0.91708 0.1114 0.0
H2180 H 0.64723 0.97534 0.06927 0.0
H2181 H 0.65122 0.90475 0.04945 0.0
H2182 H 0.63852 0.93405 0.0968 0.0
H2183 H 0.63104 0.93014 0.02605 0.0
C2184 C 0.63399 0.95208 0.02727 0.0
C2185 C 0.63885 0.96513 0.03915 0.0
C2186 C 0.64107 0.92745 0.08641 0.0
C2187 C 0.6394 0.94097 0.05593 0.0
C2188 C 0.64486 0.91764 0.0947 0.0
C2189 C 0.64894 0.90952 0.0816 0.0
C2190 C 0.64121 0.92906 0.06486 0.0
C2191 C 0.64826 0.91091 0.06007 0.0
C2192 C 0.63442 0.94002 0.03553 0.0
C2193 C 0.64352 0.96552 0.05955 0.0
N2194 N 0.64454 0.92059 0.05233 0.0
N2195 N 0.64365 0.95361 0.06731 0.0
H2196 H 0.01015 0.68557 0.04711 0.0
H2197 H 0.08941 0.74231 0.0916 0.0
H2198 H 0.04812 0.68311 0.02827 0.0
H2199 H 0.05701 0.75502 0.08095 0.0
H2200 H 0.07402 0.71924 0.07214 0.0
H2201 H 0.02654 0.70946 0.06439 0.0
C2202 C 0.02194 0.69002 0.04675 0.0
C2203 C 0.02782 0.6824 0.03627 0.0
C2204 C 0.07038 0.72716 0.07399 0.0
C2205 C 0.04656 0.70962 0.05603 0.0
C2206 C 0.07921 0.74043 0.08496 0.0
C2207 C 0.07454 0.75073 0.08808 0.0
C2208 C 0.05666 0.724 0.06642 0.0
C2209 C 0.06097 0.74735 0.07943 0.0
C2210 C 0.03127 0.70368 0.05646 0.0
C2211 C 0.04318 0.68869 0.03616 0.0
N2212 N 0.05244 0.73421 0.0692 0.0
N2213 N 0.05205 0.70192 0.04603 0.0
H2214 H 0.32524 0.33618 0.0673 0.0
H2215 H 0.26026 0.35424 0.06515 0.0
H2216 H 0.32558 0.36851 0.02621 0.0
H2217 H 0.26257 0.32401 0.10762 0.0
H2218 H 0.28442 0.36046 0.0512 0.0
H2219 H 0.30273 0.33266 0.08314 0.0
C2220 C 0.32064 0.34266 0.06174 0.0
C2221 C 0.32725 0.3526 0.04535 0.0
C2222 C 0.2796 0.35247 0.06356 0.0
C2223 C 0.30125 0.34847 0.06327 0.0
C2224 C 0.26582 0.34892 0.07153 0.0
C2225 C 0.25926 0.33843 0.0874 0.0
C2226 C 0.28686 0.34552 0.07159 0.0
C2227 C 0.26698 0.33187 0.09505 0.0
C2228 C 0.30773 0.34062 0.07077 0.0
C2229 C 0.32083 0.36074 0.03884 0.0
N2230 N 0.2803 0.3355 0.08707 0.0
N2231 N 0.30807 0.35839 0.0477 0.0
H2232 H 0.67855 0.66856 0.38827 0.0
H2233 H 0.76432 0.69573 0.39707 0.0
H2234 H 0.712 0.70696 0.35561 0.0
H2235 H 0.72872 0.65326 0.41784 0.0
H2236 H 0.74603 0.70148 0.3839 0.0
H2237 H 0.69754 0.66449 0.40196 0.0
C2238 C 0.68993 0.67622 0.38407 0.0
C2239 C 0.69367 0.68808 0.37068 0.0
C2240 C 0.74228 0.69088 0.39124 0.0
C2241 C 0.71559 0.68339 0.38626 0.0
C2242 C 0.75269 0.6876 0.39877 0.0
C2243 C 0.74805 0.67392 0.40837 0.0
C2244 C 0.72716 0.68048 0.39363 0.0
C2245 C 0.73284 0.66381 0.41018 0.0
C2246 C 0.70079 0.67384 0.39184 0.0
C2247 C 0.70863 0.69766 0.36587 0.0
N2248 N 0.723 0.66732 0.40296 0.0
N2249 N 0.71908 0.69507 0.37361 0.0
H2250 H 0.30343 0.01938 0.36518 0.0
H2251 H 0.36144 0.08599 0.43824 0.0
H2252 H 0.34021 0.01979 0.39452 0.0
H2253 H 0.32194 0.08311 0.41459 0.0
H2254 H 0.35413 0.06203 0.42171 0.0
H2255 H 0.31003 0.04271 0.38308 0.0
C2256 C 0.31285 0.02434 0.37552 0.0
C2257 C 0.32132 0.01768 0.37834 0.0
C2258 C 0.34706 0.06663 0.42011 0.0
C2259 C 0.32903 0.04447 0.39873 0.0
C2260 C 0.35129 0.08038 0.42938 0.0
C2261 C 0.34233 0.08661 0.42766 0.0
C2262 C 0.33378 0.05904 0.40897 0.0
C2263 C 0.32914 0.07868 0.41638 0.0
C2264 C 0.31662 0.03768 0.38572 0.0
C2265 C 0.33338 0.02456 0.39193 0.0
N2266 N 0.32528 0.06532 0.40742 0.0
N2267 N 0.33694 0.03765 0.40153 0.0
H2268 H 0.98404 0.3162 0.37723 0.0
H2269 H 0.93824 0.23199 0.41007 0.0
H2270 H 0.9936 0.28363 0.35199 0.0
H2271 H 0.9179 0.2587 0.40556 0.0
H2272 H 0.95978 0.25129 0.39208 0.0
H2273 H 0.96111 0.29596 0.39193 0.0
C2274 C 0.98133 0.30479 0.37487 0.0
C2275 C 0.99071 0.30155 0.36343 0.0
C2276 C 0.95052 0.25282 0.3949 0.0
C2277 C 0.96464 0.27846 0.38024 0.0
C2278 C 0.9381 0.24173 0.40504 0.0
C2279 C 0.92607 0.24359 0.40948 0.0
C2280 C 0.95115 0.26606 0.38952 0.0
C2281 C 0.92694 0.2568 0.40296 0.0
C2282 C 0.96822 0.29328 0.38311 0.0
C2283 C 0.98665 0.28659 0.36069 0.0
N2284 N 0.93933 0.2676 0.39355 0.0
N2285 N 0.97397 0.27558 0.36921 0.0
H2286 H 0.00957 0.35153 0.29592 0.0
H2287 H 0.03969 0.43912 0.30147 0.0
H2288 H 0.04383 0.38123 0.33848 0.0
H2289 H 0.00839 0.40848 0.25635 0.0
H2290 H 0.04093 0.41837 0.31651 0.0
H2291 H 0.00858 0.37255 0.28246 0.0
C2292 C 0.01694 0.36251 0.30242 0.0
C2293 C 0.02681 0.36462 0.31834 0.0
C2294 C 0.03374 0.41623 0.30339 0.0
C2295 C 0.0257 0.3889 0.30297 0.0
C2296 C 0.03303 0.42806 0.29478 0.0
C2297 C 0.02381 0.42557 0.2777 0.0
C2298 C 0.0252 0.40183 0.29482 0.0
C2299 C 0.01539 0.41097 0.26978 0.0
C2300 C 0.01636 0.37455 0.29472 0.0
C2301 C 0.03608 0.37913 0.32614 0.0
N2302 N 0.01631 0.39972 0.27836 0.0
N2303 N 0.03529 0.39075 0.31839 0.0
H2304 H 0.61947 0.64906 0.33813 0.0
H2305 H 0.59748 0.60096 0.23387 0.0
H2306 H 0.65042 0.6596 0.28798 0.0
H2307 H 0.58066 0.58077 0.29326 0.0
H2308 H 0.61369 0.62487 0.25151 0.0
H2309 H 0.60181 0.6261 0.31968 0.0
C2310 C 0.62249 0.64661 0.32314 0.0
C2311 C 0.63642 0.65617 0.31455 0.0
C2312 C 0.60636 0.61522 0.26063 0.0
C2313 C 0.61627 0.63014 0.2934 0.0
C2314 C 0.59707 0.60166 0.25062 0.0
C2315 C 0.58775 0.58897 0.26221 0.0
C2316 C 0.6061 0.61612 0.28232 0.0
C2317 C 0.58773 0.59034 0.28385 0.0
C2318 C 0.61245 0.6335 0.31272 0.0
C2319 C 0.63981 0.65246 0.29515 0.0
N2320 N 0.59674 0.60373 0.29326 0.0
N2321 N 0.62975 0.63973 0.28514 0.0
H2322 H 0.35468 0.00862 0.31379 0.0
H2323 H 0.39568 0.96956 0.26666 0.0
H2324 H 0.33782 0.96188 0.32373 0.0
H2325 H 0.41894 0.01564 0.28702 0.0
H2326 H 0.37352 0.96605 0.28412 0.0
H2327 H 0.37723 0.01105 0.29943 0.0
C2328 C 0.35568 0.99883 0.31281 0.0
C2329 C 0.34435 0.98501 0.31991 0.0
C2330 C 0.38354 0.97687 0.28486 0.0
C2331 C 0.37016 0.98774 0.30344 0.0
C2332 C 0.39627 0.9789 0.27503 0.0
C2333 C 0.40929 0.99299 0.27515 0.0
C2334 C 0.38373 0.98905 0.29455 0.0
C2335 C 0.40914 0.00468 0.28597 0.0
C2336 C 0.36861 0.00026 0.30477 0.0
C2337 C 0.34631 0.97273 0.31842 0.0
N2338 N 0.39653 0.00249 0.29499 0.0
N2339 N 0.35895 0.97435 0.31017 0.0
H2340 H 0.62124 0.95789 0.33349 0.0
H2341 H 0.59061 0.99126 0.25002 0.0
H2342 H 0.64898 0.99501 0.29412 0.0
H2343 H 0.56254 0.95787 0.29418 0.0
H2344 H 0.61198 0.99224 0.26561 0.0
H2345 H 0.59947 0.95682 0.31845 0.0
C2346 C 0.62275 0.96575 0.3216 0.0
C2347 C 0.63695 0.97656 0.31505 0.0
C2348 C 0.60116 0.98474 0.27199 0.0
C2349 C 0.61212 0.97545 0.29787 0.0
C2350 C 0.58892 0.98427 0.26321 0.0
C2351 C 0.57468 0.97454 0.27086 0.0
C2352 C 0.59926 0.97535 0.28852 0.0
C2353 C 0.57326 0.96546 0.28762 0.0
C2354 C 0.61033 0.96518 0.3131 0.0
C2355 C 0.63825 0.9865 0.29966 0.0
N2356 N 0.58538 0.96606 0.29586 0.0
N2357 N 0.62602 0.9857 0.29162 0.0
H2358 H 0.02961 0.64539 0.33651 0.0
H2359 H 0.98113 0.58779 0.24642 0.0
H2360 H 0.99703 0.64891 0.3012 0.0
H2361 H 0.01025 0.58178 0.28632 0.0
H2362 H 0.98694 0.61029 0.26603 0.0
H2363 H 0.02316 0.62244 0.31757 0.0
C2364 C 0.02113 0.64135 0.32471 0.0
C2365 C 0.01384 0.64905 0.32041 0.0
C2366 C 0.99201 0.60401 0.27056 0.0
C2367 C 0.00636 0.62276 0.29871 0.0
C2368 C 0.9886 0.59108 0.25947 0.0
C2369 C 0.99519 0.58283 0.26473 0.0
C2370 C 0.00213 0.60881 0.287 0.0
C2371 C 0.00504 0.58786 0.28153 0.0
C2372 C 0.01741 0.62822 0.31395 0.0
C2373 C 0.00292 0.64331 0.30499 0.0
N2374 N 0.00824 0.60054 0.29202 0.0
N2375 N 0.99951 0.6305 0.29469 0.0
H2376 H 0.34269 0.35403 0.29186 0.0
H2377 H 0.42317 0.42322 0.30386 0.0
H2378 H 0.35428 0.38412 0.34428 0.0
H2379 H 0.40246 0.40879 0.24388 0.0
H2380 H 0.39904 0.40719 0.32029 0.0
H2381 H 0.36576 0.37219 0.27485 0.0
C2382 C 0.35007 0.36448 0.29972 0.0
C2383 C 0.34663 0.36763 0.31945 0.0
C2384 C 0.3998 0.4077 0.30354 0.0
C2385 C 0.373 0.3882 0.30037 0.0
C2386 C 0.4135 0.41678 0.29422 0.0
C2387 C 0.41469 0.41734 0.27256 0.0
C2388 C 0.38738 0.39886 0.29106 0.0
C2389 C 0.40191 0.40875 0.26065 0.0
C2390 C 0.36316 0.37483 0.29001 0.0
C2391 C 0.35653 0.38133 0.329 0.0
N2392 N 0.3888 0.39969 0.27006 0.0
N2393 N 0.36939 0.39106 0.31948 0.0
H2394 H 0.29628 0.29075 0.35645 0.0
H2395 H 0.3544 0.27721 0.41549 0.0
H2396 H 0.334 0.32443 0.39065 0.0
H2397 H 0.31115 0.24047 0.39946 0.0
H2398 H 0.34754 0.29444 0.40249 0.0
H2399 H 0.30151 0.27184 0.36925 0.0
C2400 C 0.30554 0.29414 0.36678 0.0
C2401 C 0.31476 0.3092 0.3724 0.0
C2402 C 0.33951 0.28262 0.40171 0.0
C2403 C 0.32089 0.2878 0.38673 0.0
C2404 C 0.3435 0.27272 0.4089 0.0
C2405 C 0.3334 0.25733 0.40837 0.0
C2406 C 0.32527 0.27719 0.39383 0.0
C2407 C 0.31927 0.25226 0.40017 0.0
C2408 C 0.30852 0.28337 0.37402 0.0
C2409 C 0.32662 0.31299 0.38578 0.0
N2410 N 0.31561 0.26219 0.39314 0.0
N2411 N 0.32938 0.30242 0.39232 0.0
H2412 H 0.71512 0.01691 0.36113 0.0
H2413 H 0.72691 0.09354 0.40478 0.0
H2414 H 0.67833 0.02236 0.37647 0.0
H2415 H 0.75575 0.07745 0.42184 0.0
H2416 H 0.71051 0.06952 0.38788 0.0
H2417 H 0.73185 0.04128 0.37719 0.0
C2418 C 0.71058 0.02324 0.36791 0.0
C2419 C 0.69535 0.01763 0.3676 0.0
C2420 C 0.7205 0.07137 0.39528 0.0
C2421 C 0.71437 0.04553 0.38546 0.0
C2422 C 0.72987 0.08506 0.40501 0.0
C2423 C 0.7428 0.08765 0.41497 0.0
C2424 C 0.7242 0.06028 0.39509 0.0
C2425 C 0.74613 0.07623 0.41413 0.0
C2426 C 0.72011 0.03709 0.37705 0.0
C2427 C 0.69001 0.02626 0.37657 0.0
N2428 N 0.73692 0.06309 0.40435 0.0
N2429 N 0.69954 0.03987 0.38499 0.0
H2430 H 0.99474 0.70324 0.36262 0.0
H2431 H 0.92299 0.65077 0.42986 0.0
H2432 H 0.9881 0.66522 0.39706 0.0
H2433 H 0.93106 0.69232 0.40476 0.0
H2434 H 0.94675 0.65597 0.41675 0.0
H2435 H 0.97172 0.6999 0.37735 0.0
C2436 C 0.98854 0.69431 0.37344 0.0
C2437 C 0.9933 0.68444 0.37854 0.0
C2438 C 0.94339 0.66399 0.41404 0.0
C2439 C 0.96698 0.68047 0.39518 0.0
C2440 C 0.92971 0.66094 0.42135 0.0
C2441 C 0.92492 0.67103 0.41817 0.0
C2442 C 0.95246 0.67724 0.40335 0.0
C2443 C 0.93433 0.68423 0.40753 0.0
C2444 C 0.9754 0.69239 0.38178 0.0
C2445 C 0.98484 0.67305 0.39259 0.0
N2446 N 0.94765 0.68694 0.40039 0.0
N2447 N 0.97209 0.67134 0.40027 0.0
H2448 H 0.35217 0.00621 0.72379 0.0
H2449 H 0.43959 0.04174 0.73203 0.0
H2450 H 0.38339 0.04546 0.69042 0.0
H2451 H 0.40735 0.00165 0.76289 0.0
H2452 H 0.41946 0.04348 0.71639 0.0
H2453 H 0.37254 0.00475 0.73842 0.0
C2454 C 0.36333 0.01459 0.71962 0.0
C2455 C 0.36608 0.02598 0.70586 0.0
C2456 C 0.41682 0.03427 0.72649 0.0
C2457 C 0.38956 0.02431 0.7225 0.0
C2458 C 0.4283 0.03327 0.73543 0.0
C2459 C 0.42518 0.0215 0.74875 0.0
C2460 C 0.40213 0.02347 0.731 0.0
C2461 C 0.41033 0.01078 0.75247 0.0
C2462 C 0.37499 0.01371 0.72794 0.0
C2463 C 0.38079 0.03651 0.70101 0.0
N2464 N 0.3994 0.01207 0.74373 0.0
N2465 N 0.392 0.03541 0.7093 0.0
H2466 H 0.99844 0.35034 0.7254 0.0
H2467 H 0.96234 0.40109 0.73878 0.0
H2468 H 0.96369 0.34648 0.68619 0.0
H2469 H 1.00071 0.40879 0.77276 0.0
H2470 H 0.96253 0.38088 0.71954 0.0
H2471 H 0.99918 0.37147 0.74347 0.0
C2472 C 0.99094 0.35391 0.72064 0.0
C2473 C 0.98097 0.34665 0.70431 0.0
C2474 C 0.97097 0.38704 0.73111 0.0
C2475 C 0.98178 0.3708 0.72482 0.0
C2476 C 0.97084 0.39856 0.74212 0.0
C2477 C 0.9815 0.40661 0.75741 0.0
C2478 C 0.98177 0.38345 0.73553 0.0
C2479 C 0.99237 0.40296 0.76096 0.0
C2480 C 0.9914 0.36601 0.73089 0.0
C2481 C 0.97154 0.35176 0.69872 0.0
N2482 N 0.99216 0.39158 0.75021 0.0
N2483 N 0.97216 0.3635 0.70898 0.0
H2484 H 0.65092 0.65222 0.71217 0.0
H2485 H 0.60402 0.56858 0.74927 0.0
H2486 H 0.66046 0.61848 0.6922 0.0
H2487 H 0.58431 0.59571 0.74246 0.0
H2488 H 0.62609 0.5877 0.73215 0.0
H2489 H 0.6279 0.63272 0.72791 0.0
C2490 C 0.64822 0.64073 0.71123 0.0
C2491 C 0.65758 0.63692 0.7009 0.0
C2492 C 0.61688 0.5894 0.73429 0.0
C2493 C 0.63145 0.61472 0.71885 0.0
C2494 C 0.60414 0.57839 0.7439 0.0
C2495 C 0.59207 0.58036 0.74729 0.0
C2496 C 0.61779 0.60267 0.72833 0.0
C2497 C 0.59332 0.59369 0.74053 0.0
C2498 C 0.63506 0.62964 0.72005 0.0
C2499 C 0.65353 0.62189 0.69999 0.0
N2500 N 0.606 0.60439 0.73153 0.0
N2501 N 0.64081 0.61134 0.70896 0.0
H2502 H 0.70915 0.71398 0.66654 0.0
H2503 H 0.65998 0.73123 0.5914 0.0
H2504 H 0.67449 0.68151 0.62677 0.0
H2505 H 0.6964 0.7658 0.62658 0.0
H2506 H 0.66571 0.71313 0.6044 0.0
H2507 H 0.70554 0.73343 0.65191 0.0
C2508 C 0.7009 0.71097 0.6546 0.0
C2509 C 0.69205 0.69609 0.64793 0.0
C2510 C 0.67248 0.72465 0.60937 0.0
C2511 C 0.6878 0.71819 0.63133 0.0
C2512 C 0.66912 0.735 0.60209 0.0
C2513 C 0.67757 0.75003 0.60819 0.0
C2514 C 0.68442 0.72926 0.62296 0.0
C2515 C 0.68957 0.7543 0.62156 0.0
C2516 C 0.69882 0.72206 0.64632 0.0
C2517 C 0.68151 0.69281 0.63247 0.0
N2518 N 0.6926 0.74394 0.62862 0.0
N2519 N 0.67964 0.70373 0.62481 0.0
H2520 H 0.28933 0.98771 0.66374 0.0
H2521 H 0.28204 0.92067 0.59322 0.0
H2522 H 0.32621 0.98816 0.63376 0.0
H2523 H 0.24451 0.92321 0.61427 0.0
H2524 H 0.29838 0.94463 0.61013 0.0
H2525 H 0.27269 0.9636 0.64718 0.0
C2526 C 0.29391 0.98277 0.65358 0.0
C2527 C 0.30916 0.98992 0.65012 0.0
C2528 C 0.28657 0.93995 0.61111 0.0
C2529 C 0.29023 0.9623 0.63132 0.0
C2530 C 0.27722 0.92618 0.60164 0.0
C2531 C 0.26188 0.9199 0.6024 0.0
C2532 C 0.28056 0.9475 0.6215 0.0
C2533 C 0.25628 0.9277 0.61318 0.0
C2534 C 0.28441 0.969 0.64416 0.0
C2535 C 0.31451 0.98304 0.63683 0.0
N2536 N 0.26562 0.9411 0.62233 0.0
N2537 N 0.30506 0.96957 0.62799 0.0
H2538 H 0.00708 0.29478 0.65783 0.0
H2539 H 0.08912 0.35409 0.62312 0.0
H2540 H 0.0227 0.34142 0.64941 0.0
H2541 H 0.06702 0.30853 0.60065 0.0
H2542 H 0.06647 0.34879 0.64082 0.0
H2543 H 0.03075 0.29896 0.64424 0.0
C2544 C 0.0155 0.30588 0.65322 0.0
C2545 C 0.01294 0.31776 0.65456 0.0
C2546 C 0.06667 0.33995 0.63213 0.0
C2547 C 0.03992 0.32262 0.63959 0.0
C2548 C 0.07957 0.34296 0.62192 0.0
C2549 C 0.07999 0.33183 0.61 0.0
C2550 C 0.05412 0.32564 0.63073 0.0
C2551 C 0.06732 0.31747 0.6097 0.0
C2552 C 0.02894 0.30823 0.64548 0.0
C2553 C 0.02418 0.33192 0.64842 0.0
N2554 N 0.05486 0.3148 0.61982 0.0
N2555 N 0.0372 0.33398 0.64131 0.0
H2556 H 0.2901 0.29427 0.66705 0.0
H2557 H 0.27004 0.34103 0.59096 0.0
H2558 H 0.32129 0.32997 0.62816 0.0
H2559 H 0.23689 0.30412 0.62623 0.0
H2560 H 0.28865 0.33624 0.60413 0.0
H2561 H 0.27011 0.2965 0.65165 0.0
C2562 C 0.29272 0.30244 0.65512 0.0
C2563 C 0.30739 0.31201 0.64897 0.0
C2564 C 0.27733 0.32915 0.60908 0.0
C2565 C 0.28469 0.31469 0.63148 0.0
C2566 C 0.26669 0.33198 0.60169 0.0
C2567 C 0.25191 0.32313 0.60779 0.0
C2568 C 0.27327 0.31737 0.6228 0.0
C2569 C 0.24818 0.31125 0.62122 0.0
C2570 C 0.28132 0.30374 0.6464 0.0
C2571 C 0.31017 0.32241 0.6335 0.0
N2572 N 0.25883 0.30877 0.62841 0.0
N2573 N 0.29897 0.32352 0.62542 0.0
H2574 H 0.70341 0.98997 0.65937 0.0
H2575 H 0.64089 0.91325 0.61023 0.0
H2576 H 0.66046 0.98206 0.64267 0.0
H2577 H 0.68714 0.93055 0.59785 0.0
H2578 H 0.64745 0.93654 0.62828 0.0
H2579 H 0.69719 0.96623 0.64247 0.0
C2580 C 0.6927 0.98325 0.65212 0.0
C2581 C 0.68244 0.98796 0.6523 0.0
C2582 C 0.65613 0.93515 0.62165 0.0
C2583 C 0.6752 0.96084 0.63349 0.0
C2584 C 0.65241 0.92188 0.61127 0.0
C2585 C 0.66344 0.91988 0.60226 0.0
C2586 C 0.67099 0.94643 0.62339 0.0
C2587 C 0.67822 0.9314 0.60472 0.0
C2588 C 0.68918 0.96976 0.64251 0.0
C2589 C 0.66872 0.97886 0.64273 0.0
N2590 N 0.68156 0.94417 0.61505 0.0
N2591 N 0.66545 0.96566 0.63385 0.0
H2592 H 0.00967 0.68069 0.6284 0.0
H2593 H 0.08103 0.76292 0.62553 0.0
H2594 H 0.01443 0.71702 0.66689 0.0
H2595 H 0.07594 0.72556 0.58918 0.0
H2596 H 0.05624 0.74684 0.63978 0.0
H2597 H 0.03346 0.69757 0.61249 0.0
C2598 C 0.01568 0.69226 0.6334 0.0
C2599 C 0.01011 0.69745 0.64905 0.0
C2600 C 0.06059 0.74219 0.62871 0.0
C2601 C 0.03744 0.71686 0.63102 0.0
C2602 C 0.07471 0.75136 0.62056 0.0
C2603 C 0.08065 0.74554 0.60634 0.0
C2604 C 0.05233 0.72713 0.62247 0.0
C2605 C 0.07197 0.73046 0.60045 0.0
C2606 C 0.0293 0.7019 0.62435 0.0
C2607 C 0.01836 0.71256 0.6549 0.0
N2608 N 0.0583 0.72181 0.60854 0.0
N2609 N 0.03166 0.72173 0.64595 0.0
H2610 H 0.99956 0.65272 0.70503 0.0
H2611 H 0.96499 0.57433 0.75463 0.0
H2612 H 0.95257 0.62289 0.69899 0.0
H2613 H 0.00536 0.59305 0.71915 0.0
H2614 H 0.95981 0.59239 0.73907 0.0
H2615 H 0.00199 0.63195 0.71639 0.0
C2616 C 0.98971 0.64181 0.70628 0.0
C2617 C 0.97582 0.63951 0.70111 0.0
C2618 C 0.96969 0.59235 0.73459 0.0
C2619 C 0.97858 0.61573 0.71422 0.0
C2620 C 0.97265 0.582 0.74333 0.0
C2621 C 0.98581 0.58226 0.73853 0.0
C2622 C 0.98009 0.60321 0.72133 0.0
C2623 C 0.99534 0.59266 0.72393 0.0
C2624 C 0.99115 0.62995 0.71257 0.0
C2625 C 0.96347 0.62509 0.70283 0.0
N2626 N 0.99243 0.60288 0.71618 0.0
N2627 N 0.9651 0.6137 0.70949 0.0
H2628 H 0.38326 0.34977 0.70009 0.0
H2629 H 0.39301 0.42596 0.74232 0.0
H2630 H 0.34591 0.3547 0.71351 0.0
H2631 H 0.42273 0.41109 0.75994 0.0
H2632 H 0.37713 0.40176 0.72555 0.0
H2633 H 0.39952 0.37424 0.71624 0.0
C2634 C 0.3785 0.35599 0.7065 0.0
C2635 C 0.36325 0.35022 0.70559 0.0
C2636 C 0.38719 0.40391 0.73304 0.0
C2637 C 0.38173 0.37823 0.72354 0.0
C2638 C 0.39626 0.4177 0.74269 0.0
C2639 C 0.40928 0.42069 0.75277 0.0
C2640 C 0.39126 0.3931 0.73308 0.0
C2641 C 0.41301 0.40955 0.75214 0.0
C2642 C 0.38775 0.36991 0.71568 0.0
C2643 C 0.35761 0.35872 0.71407 0.0
N2644 N 0.40407 0.39629 0.74245 0.0
N2645 N 0.36688 0.3724 0.72254 0.0
H2646 H 0.65381 0.00079 0.7249 0.0
H2647 H 0.59823 0.03015 0.7433 0.0
H2648 H 0.65966 0.03996 0.69453 0.0
H2649 H 0.58838 0.98576 0.75741 0.0
H2650 H 0.62155 0.03524 0.72739 0.0
H2651 H 0.63085 0.99669 0.73975 0.0
C2652 C 0.65031 0.00861 0.72144 0.0
C2653 C 0.65866 0.02072 0.70838 0.0
C2654 C 0.61419 0.02436 0.73382 0.0
C2655 C 0.63219 0.016 0.72533 0.0
C2656 C 0.60092 0.02146 0.74291 0.0
C2657 C 0.59133 0.00749 0.75161 0.0
C2658 C 0.61795 0.01329 0.73375 0.0
C2659 C 0.59532 0.99661 0.75063 0.0
C2660 C 0.63712 0.0062 0.72985 0.0
C2661 C 0.65354 0.03047 0.70451 0.0
N2662 N 0.60835 0.99978 0.74202 0.0
N2663 N 0.6406 0.0279 0.71296 0.0
loop_
_geom_bond_atom_site_label_1
_geom_bond_atom_site_label_2
_geom_bond_distance
_geom_bond_site_symmetry_2
_ccdc_geom_bond_type
Co0 O1 2.216 . S
Co0 O2 2.091 . S
Co0 O4 2.004 1_554 S
Co0 O10 2.021 . S
Co0 O12 2.137 1_454 S
Co0 O13 2.244 1_455 S
O1 Co0 2.216 . S
O1 C8 1.247 . S
O2 Co0 2.091 . S
O2 C8 1.261 . S
C3 O12 1.258 . S
C3 O13 1.250 1_556 S
O4 Co0 2.004 1_556 S
O4 C9 1.204 1_455 S
Co5 O6 2.061 1_554 S
Co5 O11 2.052 . S
Co5 O13 2.135 . S
O6 Co5 2.061 1_556 S
O6 C9 1.289 . S
C7 O10 1.238 1_655 S
C7 O11 1.241 . S
C8 O1 1.247 . S
C8 O2 1.261 . S
C9 O4 1.204 1_655 S
C9 O6 1.289 . S
O10 Co0 2.021 . S
O10 C7 1.238 1_455 S
O11 Co5 2.052 . S
O11 C7 1.241 . S
O12 Co0 2.137 1_656 S
O12 C3 1.258 . S
O13 Co0 2.244 1_655 S
O13 C3 1.250 1_554 S
O13 Co5 2.135 . S
Co14 O15 2.216 1_554 S
Co14 O16 2.091 . S
Co14 O18 2.004 . S
Co14 O24 2.021 1_554 S
Co14 O26 2.137 . S
Co14 O27 2.244 . S
O15 Co14 2.216 1_556 S
O15 C22 1.247 . S
O16 Co14 2.091 . S
O16 C22 1.261 1_554 S
C17 O26 1.247 . S
C17 O27 1.272 . S
O18 Co14 2.004 . S
O18 C23 1.259 . S
Co19 O20 2.061 . S
Co19 O25 2.052 1_554 S
Co19 O27 2.135 . S
O20 Co19 2.061 . S
O20 C23 1.235 . S
C21 O24 1.238 . S
C21 O25 1.241 . S
C22 O15 1.247 . S
C22 O16 1.261 1_556 S
C23 O18 1.259 . S
C23 O20 1.235 . S
O24 Co14 2.021 1_556 S
O24 C21 1.238 . S
O25 Co19 2.052 1_556 S
O25 C21 1.241 . S
O26 Co14 2.137 . S
O26 C17 1.247 . S
O27 Co14 2.244 . S
O27 C17 1.272 . S
O27 Co19 2.135 . S
Co28 O29 2.216 1_554 S
Co28 O30 2.091 . S
Co28 O32 2.004 . S
Co28 O38 2.021 1_554 S
Co28 O40 2.137 1_545 S
Co28 O41 2.244 1_545 S
O29 Co28 2.216 1_556 S
O29 C36 1.245 1_556 S
O30 Co28 2.091 . S
O30 C36 1.266 . S
C31 O40 1.247 . S
C31 O41 1.272 . S
O32 Co28 2.004 . S
O32 C37 1.259 . S
Co33 O34 2.061 . S
Co33 O39 2.052 1_554 S
Co33 O41 2.135 . S
O34 Co33 2.061 . S
O34 C37 1.235 1_565 S
C35 O38 1.188 1_565 S
C35 O39 1.291 . S
C36 O29 1.245 1_554 S
C36 O30 1.266 . S
C37 O32 1.259 . S
C37 O34 1.235 1_545 S
O38 Co28 2.021 1_556 S
O38 C35 1.188 1_545 S
O39 Co33 2.052 1_556 S
O39 C35 1.291 . S
O40 Co28 2.137 1_565 S
O40 C31 1.247 . S
O41 Co28 2.244 1_565 S
O41 C31 1.272 . S
O41 Co33 2.135 . S
Co42 O43 2.216 1_554 S
Co42 O44 2.091 . S
Co42 O46 2.004 . S
Co42 O52 2.021 1_554 S
Co42 O54 2.137 1_655 S
Co42 O55 2.244 1_655 S
O43 Co42 2.216 1_556 S
O43 C50 1.247 . S
O44 Co42 2.091 . S
O44 C50 1.261 1_554 S
C45 O54 1.247 . S
C45 O55 1.272 . S
O46 Co42 2.004 . S
O46 C51 1.259 1_655 S
Co47 O48 2.061 . S
Co47 O53 2.052 1_554 S
Co47 O55 2.135 . S
O48 Co47 2.061 . S
O48 C51 1.235 . S
C49 O52 1.238 1_455 S
C49 O53 1.241 . S
C50 O43 1.247 . S
C50 O44 1.261 1_556 S
C51 O46 1.259 1_455 S
C51 O48 1.235 . S
O52 Co42 2.021 1_556 S
O52 C49 1.238 1_655 S
O53 Co47 2.052 1_556 S
O53 C49 1.241 . S
O54 Co42 2.137 1_455 S
O54 C45 1.247 . S
O55 Co42 2.244 1_455 S
O55 C45 1.272 . S
O55 Co47 2.135 . S
Co56 O57 2.216 . S
Co56 O58 2.091 . S
Co56 O60 2.004 1_554 S
Co56 O66 2.021 . S
Co56 O68 2.137 1_554 S
Co56 O69 2.244 . S
O57 Co56 2.216 . S
O57 C64 1.247 . S
O58 Co56 2.091 . S
O58 C64 1.261 . S
C59 O68 1.247 . S
C59 O69 1.272 1_556 S
O60 Co56 2.004 1_556 S
O60 C65 1.259 . S
Co61 O62 2.061 1_554 S
Co61 O67 2.052 . S
Co61 O69 2.135 . S
O62 Co61 2.061 1_556 S
O62 C65 1.235 . S
C63 O66 1.238 . S
C63 O67 1.241 . S
C64 O57 1.247 . S
C64 O58 1.261 . S
C65 O60 1.259 . S
C65 O62 1.235 . S
O66 Co56 2.021 . S
O66 C63 1.238 . S
O67 Co61 2.052 . S
O67 C63 1.241 . S
O68 Co56 2.137 1_556 S
O68 C59 1.247 . S
O69 Co56 2.244 . S
O69 C59 1.272 1_554 S
O69 Co61 2.135 . S
Co70 O71 2.216 . S
Co70 O72 2.091 . S
Co70 O74 2.004 1_554 S
Co70 O80 2.021 . S
Co70 O82 2.137 1_564 S
Co70 O83 2.244 1_565 S
O71 Co70 2.216 . S
O71 C78 1.247 . S
O72 Co70 2.091 . S
O72 C78 1.261 . S
C73 O82 1.247 . S
C73 O83 1.272 1_556 S
O74 Co70 2.004 1_556 S
O74 C79 1.259 1_565 S
Co75 O76 2.061 1_554 S
Co75 O81 2.052 . S
Co75 O83 2.135 . S
O76 Co75 2.061 1_556 S
O76 C79 1.235 . S
C77 O80 1.238 1_545 S
C77 O81 1.241 . S
C78 O71 1.247 . S
C78 O72 1.261 . S
C79 O74 1.259 1_545 S
C79 O76 1.235 . S
O80 Co70 2.021 . S
O80 C77 1.238 1_565 S
O81 Co75 2.052 . S
O81 C77 1.241 . S
O82 Co70 2.137 1_546 S
O82 C73 1.247 . S
O83 Co70 2.244 1_545 S
O83 C73 1.272 1_554 S
O83 Co75 2.135 . S
Co84 O85 2.216 . S
Co84 O86 2.091 . S
Co84 O88 2.004 . S
Co84 O94 2.021 . S
Co84 O96 2.137 . S
Co84 O97 2.244 . S
O85 Co84 2.216 . S
O85 C92 1.247 . S
O86 Co84 2.091 . S
O86 C92 1.261 . S
C87 O96 1.247 . S
C87 O97 1.272 . S
O88 Co84 2.004 . S
O88 C93 1.259 . S
Co89 O90 2.061 . S
Co89 O95 2.052 . S
Co89 O97 2.135 . S
O90 Co89 2.061 . S
O90 C93 1.235 . S
C91 O94 1.238 . S
C91 O95 1.241 . S
C92 O85 1.247 . S
C92 O86 1.261 . S
C93 O88 1.259 . S
C93 O90 1.235 . S
O94 Co84 2.021 . S
O94 C91 1.238 . S
O95 Co89 2.052 . S
O95 C91 1.241 . S
O96 Co84 2.137 . S
O96 C87 1.247 . S
O97 Co84 2.244 . S
O97 C87 1.272 . S
O97 Co89 2.135 . S
Co98 O99 2.216 . S
Co98 O100 2.091 . S
Co98 O102 2.004 . S
Co98 O108 2.021 . S
Co98 O110 2.137 . S
Co98 O111 2.244 . S
O99 Co98 2.216 . S
O99 C106 1.247 . S
O100 Co98 2.091 . S
O100 C106 1.261 . S
C101 O110 1.267 . S
C101 O111 1.278 . S
O102 Co98 2.004 . S
O102 C107 1.259 . S
Co103 O104 2.061 . S
Co103 O109 2.052 . S
Co103 O111 2.135 . S
O104 Co103 2.061 . S
O104 C107 1.235 . S
C105 O108 1.238 . S
C105 O109 1.241 . S
C106 O99 1.247 . S
C106 O100 1.261 . S
C107 O102 1.259 . S
C107 O104 1.235 . S
O108 Co98 2.021 . S
O108 C105 1.238 . S
O109 Co103 2.052 . S
O109 C105 1.241 . S
O110 Co98 2.137 . S
O110 C101 1.267 . S
O111 Co98 2.244 . S
O111 C101 1.278 . S
O111 Co103 2.135 . S
Co112 O113 2.216 . S
Co112 O114 2.091 . S
Co112 O116 2.004 . S
Co112 O122 2.021 . S
Co112 O124 2.137 . S
Co112 O125 2.244 . S
O113 Co112 2.216 . S
O113 C120 1.247 . S
O114 Co112 2.091 . S
O114 C120 1.261 . S
C115 O124 1.247 . S
C115 O125 1.272 . S
O116 Co112 2.004 . S
O116 C121 1.259 . S
Co117 O118 2.061 . S
Co117 O123 2.052 . S
Co117 O125 2.135 . S
O118 Co117 2.061 . S
O118 C121 1.235 . S
C119 O122 1.238 . S
C119 O123 1.241 . S
C120 O113 1.247 . S
C120 O114 1.261 . S
C121 O116 1.259 . S
C121 O118 1.235 . S
O122 Co112 2.021 . S
O122 C119 1.238 . S
O123 Co117 2.052 . S
O123 C119 1.241 . S
O124 Co112 2.137 . S
O124 C115 1.247 . S
O125 Co112 2.244 . S
O125 C115 1.272 . S
O125 Co117 2.135 . S
Co126 O127 2.216 . S
Co126 O128 2.091 . S
Co126 O130 2.004 . S
Co126 O136 2.021 . S
Co126 O138 2.137 . S
Co126 O139 2.244 . S
O127 Co126 2.216 . S
O127 C134 1.247 . S
O128 Co126 2.091 . S
O128 C134 1.261 . S
C129 O138 1.249 . S
C129 O139 1.267 . S
O130 Co126 2.004 . S
O130 C135 1.259 . S
Co131 O132 2.061 . S
Co131 O137 2.052 . S
Co131 O139 2.135 . S
O132 Co131 2.061 . S
O132 C135 1.235 . S
C133 O136 1.238 . S
C133 O137 1.241 . S
C134 O127 1.247 . S
C134 O128 1.261 . S
C135 O130 1.259 . S
C135 O132 1.235 . S
O136 Co126 2.021 . S
O136 C133 1.238 . S
O137 Co131 2.052 . S
O137 C133 1.241 . S
O138 Co126 2.137 . S
O138 C129 1.249 . S
O139 Co126 2.244 . S
O139 C129 1.267 . S
O139 Co131 2.135 . S
Co140 O141 2.216 . S
Co140 O142 2.105 . S
Co140 O144 2.004 . S
Co140 O150 2.021 . S
Co140 O152 2.137 . S
Co140 O153 2.244 . S
O141 Co140 2.216 . S
O141 C148 1.247 1_455 S
O142 Co140 2.105 . S
O142 C148 1.262 1_455 S
C143 O152 1.247 . S
C143 O153 1.272 . S
O144 Co140 2.004 . S
O144 C149 1.259 . S
Co145 O146 2.061 . S
Co145 O151 2.052 . S
Co145 O153 2.135 . S
O146 Co145 2.061 . S
O146 C149 1.235 . S
C147 O150 1.238 . S
C147 O151 1.241 . S
C148 O141 1.247 1_655 S
C148 O142 1.262 1_655 S
C149 O144 1.259 . S
C149 O146 1.235 . S
O150 Co140 2.021 . S
O150 C147 1.238 . S
O151 Co145 2.052 . S
O151 C147 1.241 . S
O152 Co140 2.137 . S
O152 C143 1.247 . S
O153 Co140 2.244 . S
O153 C143 1.272 . S
O153 Co145 2.135 . S
Co154 O155 2.216 . S
Co154 O156 2.091 . S
Co154 O158 2.004 . S
Co154 O164 2.021 . S
Co154 O166 2.137 . S
Co154 O167 2.244 . S
O155 Co154 2.216 . S
O155 C162 1.247 . S
O156 Co154 2.091 . S
O156 C162 1.261 . S
C157 O166 1.247 . S
C157 O167 1.272 . S
O158 Co154 2.004 . S
O158 C163 1.259 . S
Co159 O160 2.061 . S
Co159 O165 2.052 . S
Co159 O167 2.135 . S
O160 Co159 2.061 . S
O160 C163 1.235 . S
C161 O164 1.238 . S
C161 O165 1.241 . S
C162 O155 1.247 . S
C162 O156 1.261 . S
C163 O158 1.259 . S
C163 O160 1.235 . S
O164 Co154 2.021 . S
O164 C161 1.238 . S
O165 Co159 2.052 . S
O165 C161 1.241 . S
O166 Co154 2.137 . S
O166 C157 1.247 . S
O167 Co154 2.244 . S
O167 C157 1.272 . S
O167 Co159 2.135 . S
Co168 O169 2.216 . S
Co168 O170 2.091 . S
Co168 O172 2.004 . S
Co168 O178 2.021 . S
Co168 O180 2.137 . S
Co168 O181 2.244 . S
O169 Co168 2.216 . S
O169 C176 1.247 . S
O170 Co168 2.091 . S
O170 C176 1.261 . S
C171 O180 1.247 . S
C171 O181 1.272 . S
O172 Co168 2.004 . S
O172 C177 1.259 . S
Co173 O174 2.061 . S
Co173 O179 2.052 . S
Co173 O181 2.135 . S
O174 Co173 2.061 . S
O174 C177 1.235 . S
C175 O178 1.238 . S
C175 O179 1.241 . S
C176 O169 1.247 . S
C176 O170 1.261 . S
C177 O172 1.259 . S
C177 O174 1.235 . S
O178 Co168 2.021 . S
O178 C175 1.238 . S
O179 Co173 2.052 . S
O179 C175 1.241 . S
O180 Co168 2.137 . S
O180 C171 1.247 . S
O181 Co168 2.244 . S
O181 C171 1.272 . S
O181 Co173 2.135 . S
Co182 O183 2.216 . S
Co182 O184 2.102 . S
Co182 O186 2.004 . S
Co182 O192 2.021 . S
Co182 O194 2.137 . S
Co182 O195 2.244 . S
O183 Co182 2.216 . S
O183 C190 1.247 1_655 S
O184 Co182 2.102 . S
O184 C190 1.262 1_655 S
C185 O194 1.247 . S
C185 O195 1.272 . S
O186 Co182 2.004 . S
O186 C191 1.259 . S
Co187 O188 2.061 . S
Co187 O193 2.052 . S
Co187 O195 2.135 . S
O188 Co187 2.061 . S
O188 C191 1.235 . S
C189 O192 1.238 . S
C189 O193 1.241 . S
C190 O183 1.247 1_455 S
C190 O184 1.262 1_455 S
C191 O186 1.259 . S
C191 O188 1.235 . S
O192 Co182 2.021 . S
O192 C189 1.238 . S
O193 Co187 2.052 . S
O193 C189 1.241 . S
O194 Co182 2.137 . S
O194 C185 1.247 . S
O195 Co182 2.244 . S
O195 C185 1.272 . S
O195 Co187 2.135 . S
Co196 O197 2.216 . S
Co196 O198 2.091 . S
Co196 O200 2.004 . S
Co196 O206 2.021 . S
Co196 O208 2.137 . S
Co196 O209 2.244 . S
O197 Co196 2.216 . S
O197 C204 1.247 . S
O198 Co196 2.091 . S
O198 C204 1.261 . S
C199 O208 1.247 . S
C199 O209 1.272 . S
O200 Co196 2.004 . S
O200 C205 1.259 . S
Co201 O202 2.061 . S
Co201 O207 2.052 . S
Co201 O209 2.135 . S
O202 Co201 2.061 . S
O202 C205 1.235 . S
C203 O206 1.238 . S
C203 O207 1.241 . S
C204 O197 1.247 . S
C204 O198 1.261 . S
C205 O200 1.259 . S
C205 O202 1.235 . S
O206 Co196 2.021 . S
O206 C203 1.238 . S
O207 Co201 2.052 . S
O207 C203 1.241 . S
O208 Co196 2.137 . S
O208 C199 1.247 . S
O209 Co196 2.244 . S
O209 C199 1.272 . S
O209 Co201 2.135 . S
Co210 O211 2.216 . S
Co210 O212 2.091 . S
Co210 O214 2.004 . S
Co210 O220 2.021 . S
Co210 O222 2.137 . S
Co210 O223 2.244 . S
O211 Co210 2.216 . S
O211 C218 1.247 . S
O212 Co210 2.091 . S
O212 C218 1.261 . S
C213 O222 1.247 . S
C213 O223 1.272 . S
O214 Co210 2.004 . S
O214 C219 1.259 . S
Co215 O216 2.061 . S
Co215 O221 2.052 . S
Co215 O223 2.135 . S
O216 Co215 2.061 . S
O216 C219 1.235 . S
C217 O220 1.238 . S
C217 O221 1.241 . S
C218 O211 1.247 . S
C218 O212 1.261 . S
C219 O214 1.259 . S
C219 O216 1.235 . S
O220 Co210 2.021 . S
O220 C217 1.238 . S
O221 Co215 2.052 . S
O221 C217 1.241 . S
O222 Co210 2.137 . S
O222 C213 1.247 . S
O223 Co210 2.244 . S
O223 C213 1.272 . S
O223 Co215 2.135 . S
Co224 O225 2.216 . S
Co224 O226 2.091 . S
Co224 O228 2.004 . S
Co224 O234 2.021 . S
Co224 O236 2.137 . S
Co224 O237 2.244 . S
O225 Co224 2.216 . S
O225 C232 1.247 . S
O226 Co224 2.091 . S
O226 C232 1.261 . S
C227 O236 1.247 . S
C227 O237 1.272 . S
O228 Co224 2.004 . S
O228 C233 1.259 . S
Co229 O230 2.061 . S
Co229 O235 2.052 . S
Co229 O237 2.135 . S
O230 Co229 2.061 . S
O230 C233 1.235 . S
C231 O234 1.238 . S
C231 O235 1.241 . S
C232 O225 1.247 . S
C232 O226 1.261 . S
C233 O228 1.259 . S
C233 O230 1.235 . S
O234 Co224 2.021 . S
O234 C231 1.238 . S
O235 Co229 2.052 . S
O235 C231 1.241 . S
O236 Co224 2.137 . S
O236 C227 1.247 . S
O237 Co224 2.244 . S
O237 C227 1.272 . S
O237 Co229 2.135 . S
Co238 O239 2.216 . S
Co238 O240 2.091 . S
Co238 O242 2.004 . S
Co238 O248 2.021 . S
Co238 O250 2.137 . S
Co238 O251 2.244 . S
O239 Co238 2.216 . S
O239 C246 1.247 . S
O240 Co238 2.091 . S
O240 C246 1.261 . S
C241 O250 1.247 . S
C241 O251 1.272 . S
O242 Co238 2.004 . S
O242 C247 1.259 . S
Co243 O244 2.061 . S
Co243 O249 2.052 . S
Co243 O251 2.135 . S
O244 Co243 2.061 . S
O244 C247 1.235 . S
C245 O248 1.238 . S
C245 O249 1.241 . S
C246 O239 1.247 . S
C246 O240 1.261 . S
C247 O242 1.259 . S
C247 O244 1.235 . S
O248 Co238 2.021 . S
O248 C245 1.238 . S
O249 Co243 2.052 . S
O249 C245 1.241 . S
O250 Co238 2.137 . S
O250 C241 1.247 . S
O251 Co238 2.244 . S
O251 C241 1.272 . S
O251 Co243 2.135 . S
H252 C279 0.929 . S
N253 C278 1.433 . S
N253 C284 1.435 . S
N253 C290 1.423 . S
H254 C280 0.930 . S
H255 C283 0.931 . S
H256 C282 0.929 . S
H257 C285 0.930 . S
H258 C286 0.932 . S
H259 C289 0.929 . S
H260 C288 0.931 . S
H261 C291 0.929 . S
H262 C295 0.932 . S
H263 C292 0.931 . S
H264 C294 0.929 . S
H265 C297 0.929 . S
H266 C298 0.930 . S
H267 C300 0.929 . S
H268 C301 0.931 . S
H269 C303 0.930 . S
H270 C304 0.932 . S
H271 C306 0.931 . S
H272 C307 0.929 . S
H273 C309 0.929 . S
H274 C310 0.931 . S
H275 C312 0.929 . S
N276 C296 1.433 . S
N276 C302 1.435 . S
N276 C308 1.423 . S
H277 C313 0.932 . S
C278 N253 1.433 . S
C278 C279 1.363 . S
C278 C283 1.370 . S
C279 H252 0.929 . S
C279 C278 1.363 . S
C279 C280 1.385 . S
C280 H254 0.930 . S
C280 C279 1.385 . S
C280 C281 1.357 . S
C281 C280 1.357 . S
C281 C282 1.406 . S
C282 H256 0.929 . S
C282 C281 1.406 . S
C282 C283 1.391 . S
C283 H255 0.931 . S
C283 C278 1.370 . S
C283 C282 1.391 . S
C284 N253 1.435 . S
C284 C285 1.358 . S
C284 C289 1.371 . S
C285 H257 0.930 . S
C285 C284 1.358 . S
C285 C286 1.405 . S
C286 H258 0.932 . S
C286 C285 1.405 . S
C286 C287 1.383 . S
C287 C286 1.383 . S
C287 C288 1.393 . S
C288 H260 0.931 . S
C288 C287 1.393 . S
C288 C289 1.382 . S
C289 H259 0.929 . S
C289 C284 1.371 . S
C289 C288 1.382 . S
C290 N253 1.423 . S
C290 C291 1.362 . S
C290 C295 1.388 . S
C291 H261 0.929 . S
C291 C290 1.362 . S
C291 C292 1.376 . S
C292 H263 0.931 . S
C292 C291 1.376 . S
C292 C293 1.396 . S
C293 C292 1.396 . S
C293 C294 1.348 . S
C293 C311 1.472 . S
C294 H264 0.929 . S
C294 C293 1.348 . S
C294 C295 1.443 . S
C295 H262 0.932 . S
C295 C290 1.388 . S
C295 C294 1.443 . S
C296 N276 1.433 . S
C296 C297 1.363 . S
C296 C301 1.370 . S
C297 H265 0.929 . S
C297 C296 1.363 . S
C297 C298 1.385 . S
C298 H266 0.930 . S
C298 C297 1.385 . S
C298 C299 1.357 . S
C299 C298 1.357 . S
C299 C300 1.406 . S
C300 H267 0.929 . S
C300 C299 1.406 . S
C300 C301 1.391 . S
C301 H268 0.931 . S
C301 C296 1.370 . S
C301 C300 1.391 . S
C302 N276 1.435 . S
C302 C303 1.358 . S
C302 C307 1.371 . S
C303 H269 0.930 . S
C303 C302 1.358 . S
C303 C304 1.405 . S
C304 H270 0.932 . S
C304 C303 1.405 . S
C304 C305 1.383 . S
C305 C304 1.383 . S
C305 C306 1.393 . S
C306 H271 0.931 . S
C306 C305 1.393 . S
C306 C307 1.382 . S
C307 H272 0.929 . S
C307 C302 1.371 . S
C307 C306 1.382 . S
C308 N276 1.423 . S
C308 C309 1.362 . S
C308 C313 1.388 . S
C309 H273 0.929 . S
C309 C308 1.362 . S
C309 C310 1.376 . S
C310 H274 0.931 . S
C310 C309 1.376 . S
C310 C311 1.396 . S
C311 C293 1.472 . S
C311 C310 1.396 . S
C311 C312 1.348 . S
C312 H275 0.929 . S
C312 C311 1.348 . S
C312 C313 1.443 . S
C313 H277 0.932 . S
C313 C308 1.388 . S
C313 C312 1.443 . S
H314 C341 0.929 . S
N315 C340 1.433 . S
N315 C346 1.435 . S
N315 C352 1.423 . S
H316 C342 0.930 . S
H317 C345 0.931 . S
H318 C344 0.929 . S
H319 C347 0.930 . S
H320 C348 0.932 . S
H321 C351 0.929 . S
H322 C350 0.931 . S
H323 C353 0.929 . S
H324 C357 0.932 . S
H325 C354 0.931 . S
H326 C356 0.929 . S
H327 C359 0.929 . S
H328 C360 0.930 . S
H329 C362 0.929 . S
H330 C363 0.931 . S
H331 C365 0.930 . S
H332 C366 0.932 . S
H333 C368 0.931 . S
H334 C369 0.929 . S
H335 C371 0.929 . S
H336 C372 0.931 . S
H337 C374 0.929 . S
N338 C358 1.433 . S
N338 C364 1.435 . S
N338 C370 1.423 . S
H339 C375 0.932 . S
C340 N315 1.433 . S
C340 C341 1.363 . S
C340 C345 1.370 . S
C341 H314 0.929 . S
C341 C340 1.363 . S
C341 C342 1.385 . S
C342 H316 0.930 . S
C342 C341 1.385 . S
C342 C343 1.357 . S
C343 C342 1.357 . S
C343 C344 1.406 . S
C344 H318 0.929 . S
C344 C343 1.406 . S
C344 C345 1.391 . S
C345 H317 0.931 . S
C345 C340 1.370 . S
C345 C344 1.391 . S
C346 N315 1.435 . S
C346 C347 1.358 . S
C346 C351 1.371 . S
C347 H319 0.930 . S
C347 C346 1.358 . S
C347 C348 1.405 . S
C348 H320 0.932 . S
C348 C347 1.405 . S
C348 C349 1.383 . S
C349 C348 1.383 . S
C349 C350 1.393 . S
C350 H322 0.931 . S
C350 C349 1.393 . S
C350 C351 1.382 . S
C351 H321 0.929 . S
C351 C346 1.371 . S
C351 C350 1.382 . S
C352 N315 1.423 . S
C352 C353 1.362 . S
C352 C357 1.388 . S
C353 H323 0.929 . S
C353 C352 1.362 . S
C353 C354 1.376 . S
C354 H325 0.931 . S
C354 C353 1.376 . S
C354 C355 1.396 . S
C355 C354 1.396 . S
C355 C356 1.348 . S
C355 C373 1.472 . S
C356 H326 0.929 . S
C356 C355 1.348 . S
C356 C357 1.443 . S
C357 H324 0.932 . S
C357 C352 1.388 . S
C357 C356 1.443 . S
C358 N338 1.433 . S
C358 C359 1.363 . S
C358 C363 1.370 . S
C359 H327 0.929 . S
C359 C358 1.363 . S
C359 C360 1.385 . S
C360 H328 0.930 . S
C360 C359 1.385 . S
C360 C361 1.357 . S
C361 C360 1.357 . S
C361 C362 1.406 . S
C362 H329 0.929 . S
C362 C361 1.406 . S
C362 C363 1.391 . S
C363 H330 0.931 . S
C363 C358 1.370 . S
C363 C362 1.391 . S
C364 N338 1.435 . S
C364 C365 1.358 . S
C364 C369 1.371 . S
C365 H331 0.930 . S
C365 C364 1.358 . S
C365 C366 1.405 . S
C366 H332 0.932 . S
C366 C365 1.405 . S
C366 C367 1.383 . S
C367 C366 1.383 . S
C367 C368 1.393 . S
C368 H333 0.931 . S
C368 C367 1.393 . S
C368 C369 1.382 . S
C369 H334 0.929 . S
C369 C364 1.371 . S
C369 C368 1.382 . S
C370 N338 1.423 . S
C370 C371 1.362 . S
C370 C375 1.388 . S
C371 H335 0.929 . S
C371 C370 1.362 . S
C371 C372 1.376 . S
C372 H336 0.931 . S
C372 C371 1.376 . S
C372 C373 1.396 . S
C373 C355 1.472 . S
C373 C372 1.396 . S
C373 C374 1.348 . S
C374 H337 0.929 . S
C374 C373 1.348 . S
C374 C375 1.443 . S
C375 H339 0.932 . S
C375 C370 1.388 . S
C375 C374 1.443 . S
H376 C403 0.929 . S
N377 C402 1.433 . S
N377 C408 1.435 . S
N377 C414 1.423 . S
H378 C404 0.930 . S
H379 C407 0.931 . S
H380 C406 0.929 . S
H381 C409 0.930 . S
H382 C410 0.932 . S
H383 C413 0.929 . S
H384 C412 0.931 . S
H385 C415 0.929 . S
H386 C419 0.932 . S
H387 C416 0.931 . S
H388 C418 0.929 . S
H389 C421 0.929 . S
H390 C422 0.930 . S
H391 C424 0.929 . S
H392 C425 0.931 . S
H393 C427 0.930 . S
H394 C428 0.932 . S
H395 C430 0.931 . S
H396 C431 0.929 . S
H397 C433 0.929 . S
H398 C434 0.931 . S
H399 C436 0.929 . S
N400 C420 1.433 . S
N400 C426 1.435 . S
N400 C432 1.423 . S
H401 C437 0.932 . S
C402 N377 1.433 . S
C402 C403 1.363 . S
C402 C407 1.370 . S
C403 H376 0.929 . S
C403 C402 1.363 . S
C403 C404 1.385 . S
C404 H378 0.930 . S
C404 C403 1.385 . S
C404 C405 1.357 . S
C405 C404 1.357 . S
C405 C406 1.406 . S
C406 H380 0.929 . S
C406 C405 1.406 . S
C406 C407 1.391 . S
C407 H379 0.931 . S
C407 C402 1.370 . S
C407 C406 1.391 . S
C408 N377 1.435 . S
C408 C409 1.358 . S
C408 C413 1.371 . S
C409 H381 0.930 . S
C409 C408 1.358 . S
C409 C410 1.405 . S
C410 H382 0.932 . S
C410 C409 1.405 . S
C410 C411 1.383 . S
C411 C410 1.383 . S
C411 C412 1.393 . S
C412 H384 0.931 . S
C412 C411 1.393 . S
C412 C413 1.382 . S
C413 H383 0.929 . S
C413 C408 1.371 . S
C413 C412 1.382 . S
C414 N377 1.423 . S
C414 C415 1.362 . S
C414 C419 1.388 . S
C415 H385 0.929 . S
C415 C414 1.362 . S
C415 C416 1.376 . S
C416 H387 0.931 . S
C416 C415 1.376 . S
C416 C417 1.396 . S
C417 C416 1.396 . S
C417 C418 1.348 . S
C417 C435 1.472 . S
C418 H388 0.929 . S
C418 C417 1.348 . S
C418 C419 1.443 . S
C419 H386 0.932 . S
C419 C414 1.388 . S
C419 C418 1.443 . S
C420 N400 1.433 . S
C420 C421 1.363 . S
C420 C425 1.370 . S
C421 H389 0.929 . S
C421 C420 1.363 . S
C421 C422 1.385 . S
C422 H390 0.930 . S
C422 C421 1.385 . S
C422 C423 1.357 . S
C423 C422 1.357 . S
C423 C424 1.406 . S
C424 H391 0.929 . S
C424 C423 1.406 . S
C424 C425 1.391 . S
C425 H392 0.931 . S
C425 C420 1.370 . S
C425 C424 1.391 . S
C426 N400 1.435 . S
C426 C427 1.358 . S
C426 C431 1.371 . S
C427 H393 0.930 . S
C427 C426 1.358 . S
C427 C428 1.405 . S
C428 H394 0.932 . S
C428 C427 1.405 . S
C428 C429 1.383 . S
C429 C428 1.383 . S
C429 C430 1.393 . S
C430 H395 0.931 . S
C430 C429 1.393 . S
C430 C431 1.382 . S
C431 H396 0.929 . S
C431 C426 1.371 . S
C431 C430 1.382 . S
C432 N400 1.423 . S
C432 C433 1.362 . S
C432 C437 1.388 . S
C433 H397 0.929 . S
C433 C432 1.362 . S
C433 C434 1.376 . S
C434 H398 0.931 . S
C434 C433 1.376 . S
C434 C435 1.396 . S
C435 C417 1.472 . S
C435 C434 1.396 . S
C435 C436 1.348 . S
C436 H399 0.929 . S
C436 C435 1.348 . S
C436 C437 1.443 . S
C437 H401 0.932 . S
C437 C432 1.388 . S
C437 C436 1.443 . S
H438 C465 0.929 . S
N439 C464 1.433 . S
N439 C470 1.435 . S
N439 C476 1.423 . S
H440 C466 0.930 . S
H441 C469 0.931 . S
H442 C468 0.929 . S
H443 C471 0.930 . S
H444 C472 0.932 . S
H445 C475 0.929 . S
H446 C474 0.931 . S
H447 C477 0.929 . S
H448 C481 0.932 . S
H449 C478 0.931 . S
H450 C480 0.929 . S
H451 C483 0.929 . S
H452 C484 0.930 . S
H453 C486 0.929 . S
H454 C487 0.931 . S
H455 C489 0.930 . S
H456 C490 0.932 . S
H457 C492 0.931 . S
H458 C493 0.929 . S
H459 C495 0.929 . S
H460 C496 0.931 . S
H461 C498 0.929 . S
N462 C482 1.433 . S
N462 C488 1.435 . S
N462 C494 1.423 . S
H463 C499 0.932 . S
C464 N439 1.433 . S
C464 C465 1.363 . S
C464 C469 1.370 . S
C465 H438 0.929 . S
C465 C464 1.363 . S
C465 C466 1.385 . S
C466 H440 0.930 . S
C466 C465 1.385 . S
C466 C467 1.357 . S
C467 C466 1.357 . S
C467 C468 1.406 . S
C468 H442 0.929 . S
C468 C467 1.406 . S
C468 C469 1.391 . S
C469 H441 0.931 . S
C469 C464 1.370 . S
C469 C468 1.391 . S
C470 N439 1.435 . S
C470 C471 1.358 . S
C470 C475 1.371 . S
C471 H443 0.930 . S
C471 C470 1.358 . S
C471 C472 1.405 . S
C472 H444 0.932 . S
C472 C471 1.405 . S
C472 C473 1.383 . S
C473 C472 1.383 . S
C473 C474 1.393 . S
C474 H446 0.931 . S
C474 C473 1.393 . S
C474 C475 1.382 . S
C475 H445 0.929 . S
C475 C470 1.371 . S
C475 C474 1.382 . S
C476 N439 1.423 . S
C476 C477 1.362 . S
C476 C481 1.388 . S
C477 H447 0.929 . S
C477 C476 1.362 . S
C477 C478 1.376 . S
C478 H449 0.931 . S
C478 C477 1.376 . S
C478 C479 1.396 . S
C479 C478 1.396 . S
C479 C480 1.348 . S
C479 C497 1.472 . S
C480 H450 0.929 . S
C480 C479 1.348 . S
C480 C481 1.443 . S
C481 H448 0.932 . S
C481 C476 1.388 . S
C481 C480 1.443 . S
C482 N462 1.433 . S
C482 C483 1.363 . S
C482 C487 1.370 . S
C483 H451 0.929 . S
C483 C482 1.363 . S
C483 C484 1.385 . S
C484 H452 0.930 . S
C484 C483 1.385 . S
C484 C485 1.357 . S
C485 C484 1.357 . S
C485 C486 1.406 . S
C486 H453 0.929 . S
C486 C485 1.406 . S
C486 C487 1.391 . S
C487 H454 0.931 . S
C487 C482 1.370 . S
C487 C486 1.391 . S
C488 N462 1.435 . S
C488 C489 1.358 . S
C488 C493 1.371 . S
C489 H455 0.930 . S
C489 C488 1.358 . S
C489 C490 1.405 . S
C490 H456 0.932 . S
C490 C489 1.405 . S
C490 C491 1.383 . S
C491 C490 1.383 . S
C491 C492 1.393 . S
C492 H457 0.931 . S
C492 C491 1.393 . S
C492 C493 1.382 . S
C493 H458 0.929 . S
C493 C488 1.371 . S
C493 C492 1.382 . S
C494 N462 1.423 . S
C494 C495 1.362 . S
C494 C499 1.388 . S
C495 H459 0.929 . S
C495 C494 1.362 . S
C495 C496 1.376 . S
C496 H460 0.931 . S
C496 C495 1.376 . S
C496 C497 1.396 . S
C497 C479 1.472 . S
C497 C496 1.396 . S
C497 C498 1.348 . S
C498 H461 0.929 . S
C498 C497 1.348 . S
C498 C499 1.443 . S
C499 H463 0.932 . S
C499 C494 1.388 . S
C499 C498 1.443 . S
H500 C527 0.929 . S
N501 C526 1.433 . S
N501 C532 1.435 . S
N501 C538 1.423 . S
H502 C528 0.930 . S
H503 C531 0.931 . S
H504 C530 0.929 . S
H505 C533 0.930 . S
H506 C534 0.932 . S
H507 C537 0.929 . S
H508 C536 0.931 . S
H509 C539 0.929 . S
H510 C543 0.932 . S
H511 C540 0.931 . S
H512 C542 0.929 . S
H513 C545 0.929 . S
H514 C546 0.930 . S
H515 C548 0.929 . S
H516 C549 0.931 . S
H517 C551 0.930 . S
H518 C552 0.932 . S
H519 C554 0.931 . S
H520 C555 0.929 . S
H521 C557 0.929 . S
H522 C558 0.931 . S
H523 C560 0.929 . S
N524 C544 1.433 . S
N524 C550 1.435 . S
N524 C556 1.423 . S
H525 C561 0.932 . S
C526 N501 1.433 . S
C526 C527 1.363 . S
C526 C531 1.370 . S
C527 H500 0.929 . S
C527 C526 1.363 . S
C527 C528 1.385 . S
C528 H502 0.930 . S
C528 C527 1.385 . S
C528 C529 1.357 . S
C529 C528 1.357 . S
C529 C530 1.406 . S
C530 H504 0.929 . S
C530 C529 1.406 . S
C530 C531 1.391 . S
C531 H503 0.931 . S
C531 C526 1.370 . S
C531 C530 1.391 . S
C532 N501 1.435 . S
C532 C533 1.358 . S
C532 C537 1.371 . S
C533 H505 0.930 . S
C533 C532 1.358 . S
C533 C534 1.405 . S
C534 H506 0.932 . S
C534 C533 1.405 . S
C534 C535 1.383 . S
C535 C534 1.383 . S
C535 C536 1.393 . S
C536 H508 0.931 . S
C536 C535 1.393 . S
C536 C537 1.382 . S
C537 H507 0.929 . S
C537 C532 1.371 . S
C537 C536 1.382 . S
C538 N501 1.423 . S
C538 C539 1.362 . S
C538 C543 1.388 . S
C539 H509 0.929 . S
C539 C538 1.362 . S
C539 C540 1.376 . S
C540 H511 0.931 . S
C540 C539 1.376 . S
C540 C541 1.396 . S
C541 C540 1.396 . S
C541 C542 1.348 . S
C541 C559 1.472 . S
C542 H512 0.929 . S
C542 C541 1.348 . S
C542 C543 1.443 . S
C543 H510 0.932 . S
C543 C538 1.388 . S
C543 C542 1.443 . S
C544 N524 1.433 . S
C544 C545 1.363 . S
C544 C549 1.370 . S
C545 H513 0.929 . S
C545 C544 1.363 . S
C545 C546 1.385 . S
C546 H514 0.930 . S
C546 C545 1.385 . S
C546 C547 1.357 . S
C547 C546 1.357 . S
C547 C548 1.406 . S
C548 H515 0.929 . S
C548 C547 1.406 . S
C548 C549 1.391 . S
C549 H516 0.931 . S
C549 C544 1.370 . S
C549 C548 1.391 . S
C550 N524 1.435 . S
C550 C551 1.358 . S
C550 C555 1.371 . S
C551 H517 0.930 . S
C551 C550 1.358 . S
C551 C552 1.405 . S
C552 H518 0.932 . S
C552 C551 1.405 . S
C552 C553 1.383 . S
C553 C552 1.383 . S
C553 C554 1.393 . S
C554 H519 0.931 . S
C554 C553 1.393 . S
C554 C555 1.382 . S
C555 H520 0.929 . S
C555 C550 1.371 . S
C555 C554 1.382 . S
C556 N524 1.423 . S
C556 C557 1.362 . S
C556 C561 1.388 . S
C557 H521 0.929 . S
C557 C556 1.362 . S
C557 C558 1.376 . S
C558 H522 0.931 . S
C558 C557 1.376 . S
C558 C559 1.396 . S
C559 C541 1.472 . S
C559 C558 1.396 . S
C559 C560 1.348 . S
C560 H523 0.929 . S
C560 C559 1.348 . S
C560 C561 1.443 . S
C561 H525 0.932 . S
C561 C556 1.388 . S
C561 C560 1.443 . S
H562 C589 0.929 . S
N563 C588 1.433 . S
N563 C594 1.435 . S
N563 C600 1.423 . S
H564 C590 0.930 . S
H565 C593 0.931 . S
H566 C592 0.929 . S
H567 C595 0.930 . S
H568 C596 0.932 . S
H569 C599 0.929 . S
H570 C598 0.931 . S
H571 C601 0.929 . S
H572 C605 0.932 . S
H573 C602 0.931 . S
H574 C604 0.929 . S
H575 C607 0.929 . S
H576 C608 0.930 . S
H577 C610 0.929 . S
H578 C611 0.931 . S
H579 C613 0.930 . S
H580 C614 0.932 . S
H581 C616 0.931 . S
H582 C617 0.929 . S
H583 C619 0.929 . S
H584 C620 0.931 . S
H585 C622 0.929 . S
N586 C606 1.433 . S
N586 C612 1.435 . S
N586 C618 1.423 . S
H587 C623 0.932 . S
C588 N563 1.433 . S
C588 C589 1.363 . S
C588 C593 1.370 . S
C589 H562 0.929 . S
C589 C588 1.363 . S
C589 C590 1.385 . S
C590 H564 0.930 . S
C590 C589 1.385 . S
C590 C591 1.357 . S
C591 C590 1.357 . S
C591 C592 1.406 . S
C592 H566 0.929 . S
C592 C591 1.406 . S
C592 C593 1.391 . S
C593 H565 0.931 . S
C593 C588 1.370 . S
C593 C592 1.391 . S
C594 N563 1.435 . S
C594 C595 1.358 . S
C594 C599 1.371 . S
C595 H567 0.930 . S
C595 C594 1.358 . S
C595 C596 1.405 . S
C596 H568 0.932 . S
C596 C595 1.405 . S
C596 C597 1.383 . S
C597 C596 1.383 . S
C597 C598 1.393 . S
C598 H570 0.931 . S
C598 C597 1.393 . S
C598 C599 1.382 . S
C599 H569 0.929 . S
C599 C594 1.371 . S
C599 C598 1.382 . S
C600 N563 1.423 . S
C600 C601 1.362 . S
C600 C605 1.388 . S
C601 H571 0.929 . S
C601 C600 1.362 . S
C601 C602 1.376 . S
C602 H573 0.931 . S
C602 C601 1.376 . S
C602 C603 1.396 . S
C603 C602 1.396 . S
C603 C604 1.348 . S
C603 C621 1.472 . S
C604 H574 0.929 . S
C604 C603 1.348 . S
C604 C605 1.443 . S
C605 H572 0.932 . S
C605 C600 1.388 . S
C605 C604 1.443 . S
C606 N586 1.433 . S
C606 C607 1.363 . S
C606 C611 1.370 . S
C607 H575 0.929 . S
C607 C606 1.363 . S
C607 C608 1.385 . S
C608 H576 0.930 . S
C608 C607 1.385 . S
C608 C609 1.357 . S
C609 C608 1.357 . S
C609 C610 1.406 . S
C610 H577 0.929 . S
C610 C609 1.406 . S
C610 C611 1.391 . S
C611 H578 0.931 . S
C611 C606 1.370 . S
C611 C610 1.391 . S
C612 N586 1.435 . S
C612 C613 1.358 . S
C612 C617 1.371 . S
C613 H579 0.930 . S
C613 C612 1.358 . S
C613 C614 1.405 . S
C614 H580 0.932 . S
C614 C613 1.405 . S
C614 C615 1.383 . S
C615 C614 1.383 . S
C615 C616 1.393 . S
C616 H581 0.931 . S
C616 C615 1.393 . S
C616 C617 1.382 . S
C617 H582 0.929 . S
C617 C612 1.371 . S
C617 C616 1.382 . S
C618 N586 1.423 . S
C618 C619 1.362 . S
C618 C623 1.388 . S
C619 H583 0.929 . S
C619 C618 1.362 . S
C619 C620 1.376 . S
C620 H584 0.931 . S
C620 C619 1.376 . S
C620 C621 1.396 . S
C621 C603 1.472 . S
C621 C620 1.396 . S
C621 C622 1.348 . S
C622 H585 0.929 . S
C622 C621 1.348 . S
C622 C623 1.443 . S
C623 H587 0.932 . S
C623 C618 1.388 . S
C623 C622 1.443 . S
H624 C651 0.929 . S
N625 C650 1.433 . S
N625 C656 1.435 . S
N625 C662 1.423 . S
H626 C652 0.930 . S
H627 C655 0.931 . S
H628 C654 0.929 . S
H629 C657 0.930 . S
H630 C658 0.932 . S
H631 C661 0.929 . S
H632 C660 0.931 . S
H633 C663 0.929 . S
H634 C667 0.932 . S
H635 C664 0.931 . S
H636 C666 0.929 . S
H637 C669 0.929 . S
H638 C670 0.930 . S
H639 C672 0.929 . S
H640 C673 0.931 . S
H641 C675 0.930 . S
H642 C676 0.932 . S
H643 C678 0.931 . S
H644 C679 0.929 . S
H645 C681 0.929 . S
H646 C682 0.931 . S
H647 C684 0.929 . S
N648 C668 1.433 . S
N648 C674 1.435 . S
N648 C680 1.423 . S
H649 C685 0.932 . S
C650 N625 1.433 . S
C650 C651 1.363 . S
C650 C655 1.370 . S
C651 H624 0.929 . S
C651 C650 1.363 . S
C651 C652 1.385 . S
C652 H626 0.930 . S
C652 C651 1.385 . S
C652 C653 1.357 . S
C653 C652 1.357 . S
C653 C654 1.406 . S
C654 H628 0.929 . S
C654 C653 1.406 . S
C654 C655 1.391 . S
C655 H627 0.931 . S
C655 C650 1.370 . S
C655 C654 1.391 . S
C656 N625 1.435 . S
C656 C657 1.358 . S
C656 C661 1.371 . S
C657 H629 0.930 . S
C657 C656 1.358 . S
C657 C658 1.405 . S
C658 H630 0.932 . S
C658 C657 1.405 . S
C658 C659 1.383 . S
C659 C658 1.383 . S
C659 C660 1.393 . S
C660 H632 0.931 . S
C660 C659 1.393 . S
C660 C661 1.382 . S
C661 H631 0.929 . S
C661 C656 1.371 . S
C661 C660 1.382 . S
C662 N625 1.423 . S
C662 C663 1.362 . S
C662 C667 1.388 . S
C663 H633 0.929 . S
C663 C662 1.362 . S
C663 C664 1.376 . S
C664 H635 0.931 . S
C664 C663 1.376 . S
C664 C665 1.396 . S
C665 C664 1.396 . S
C665 C666 1.348 . S
C665 C683 1.472 . S
C666 H636 0.929 . S
C666 C665 1.348 . S
C666 C667 1.443 . S
C667 H634 0.932 . S
C667 C662 1.388 . S
C667 C666 1.443 . S
C668 N648 1.433 . S
C668 C669 1.363 . S
C668 C673 1.370 . S
C669 H637 0.929 . S
C669 C668 1.363 . S
C669 C670 1.385 . S
C670 H638 0.930 . S
C670 C669 1.385 . S
C670 C671 1.357 . S
C671 C670 1.357 . S
C671 C672 1.406 . S
C672 H639 0.929 . S
C672 C671 1.406 . S
C672 C673 1.391 . S
C673 H640 0.931 . S
C673 C668 1.370 . S
C673 C672 1.391 . S
C674 N648 1.435 . S
C674 C675 1.358 . S
C674 C679 1.371 . S
C675 H641 0.930 . S
C675 C674 1.358 . S
C675 C676 1.405 . S
C676 H642 0.932 . S
C676 C675 1.405 . S
C676 C677 1.383 . S
C677 C676 1.383 . S
C677 C678 1.393 . S
C678 H643 0.931 . S
C678 C677 1.393 . S
C678 C679 1.382 . S
C679 H644 0.929 . S
C679 C674 1.371 . S
C679 C678 1.382 . S
C680 N648 1.423 . S
C680 C681 1.362 . S
C680 C685 1.388 . S
C681 H645 0.929 . S
C681 C680 1.362 . S
C681 C682 1.376 . S
C682 H646 0.931 . S
C682 C681 1.376 . S
C682 C683 1.396 . S
C683 C665 1.472 . S
C683 C682 1.396 . S
C683 C684 1.348 . S
C684 H647 0.929 . S
C684 C683 1.348 . S
C684 C685 1.443 . S
C685 H649 0.932 . S
C685 C680 1.388 . S
C685 C684 1.443 . S
H686 C713 0.929 . S
N687 C712 1.433 . S
N687 C718 1.435 . S
N687 C724 1.423 . S
H688 C714 0.930 . S
H689 C717 0.931 . S
H690 C716 0.929 . S
H691 C719 0.930 . S
H692 C720 0.932 . S
H693 C723 0.929 . S
H694 C722 0.931 . S
H695 C725 0.929 . S
H696 C729 0.932 . S
H697 C726 0.931 . S
H698 C728 0.929 . S
H699 C731 0.929 . S
H700 C732 0.930 . S
H701 C734 0.929 . S
H702 C735 0.931 . S
H703 C737 0.930 . S
H704 C738 0.932 . S
H705 C740 0.931 . S
H706 C741 0.929 . S
H707 C743 0.929 . S
H708 C744 0.931 . S
H709 C746 0.929 . S
N710 C730 1.433 . S
N710 C736 1.435 . S
N710 C742 1.423 . S
H711 C747 0.932 . S
C712 N687 1.433 . S
C712 C713 1.363 . S
C712 C717 1.370 . S
C713 H686 0.929 . S
C713 C712 1.363 . S
C713 C714 1.385 . S
C714 H688 0.930 . S
C714 C713 1.385 . S
C714 C715 1.357 . S
C715 C714 1.357 . S
C715 C716 1.406 . S
C716 H690 0.929 . S
C716 C715 1.406 . S
C716 C717 1.391 . S
C717 H689 0.931 . S
C717 C712 1.370 . S
C717 C716 1.391 . S
C718 N687 1.435 . S
C718 C719 1.358 . S
C718 C723 1.371 . S
C719 H691 0.930 . S
C719 C718 1.358 . S
C719 C720 1.405 . S
C720 H692 0.932 . S
C720 C719 1.405 . S
C720 C721 1.383 . S
C721 C720 1.383 . S
C721 C722 1.393 . S
C722 H694 0.931 . S
C722 C721 1.393 . S
C722 C723 1.382 . S
C723 H693 0.929 . S
C723 C718 1.371 . S
C723 C722 1.382 . S
C724 N687 1.423 . S
C724 C725 1.362 . S
C724 C729 1.388 . S
C725 H695 0.929 . S
C725 C724 1.362 . S
C725 C726 1.376 . S
C726 H697 0.931 . S
C726 C725 1.376 . S
C726 C727 1.396 . S
C727 C726 1.396 . S
C727 C728 1.348 . S
C727 C745 1.472 . S
C728 H698 0.929 . S
C728 C727 1.348 . S
C728 C729 1.443 . S
C729 H696 0.932 . S
C729 C724 1.388 . S
C729 C728 1.443 . S
C730 N710 1.433 . S
C730 C731 1.363 . S
C730 C735 1.370 . S
C731 H699 0.929 . S
C731 C730 1.363 . S
C731 C732 1.385 . S
C732 H700 0.930 . S
C732 C731 1.385 . S
C732 C733 1.357 . S
C733 C732 1.357 . S
C733 C734 1.406 . S
C734 H701 0.929 . S
C734 C733 1.406 . S
C734 C735 1.391 . S
C735 H702 0.931 . S
C735 C730 1.370 . S
C735 C734 1.391 . S
C736 N710 1.435 . S
C736 C737 1.358 . S
C736 C741 1.371 . S
C737 H703 0.930 . S
C737 C736 1.358 . S
C737 C738 1.405 . S
C738 H704 0.932 . S
C738 C737 1.405 . S
C738 C739 1.383 . S
C739 C738 1.383 . S
C739 C740 1.393 . S
C740 H705 0.931 . S
C740 C739 1.393 . S
C740 C741 1.382 . S
C741 H706 0.929 . S
C741 C736 1.371 . S
C741 C740 1.382 . S
C742 N710 1.423 . S
C742 C743 1.362 . S
C742 C747 1.388 . S
C743 H707 0.929 . S
C743 C742 1.362 . S
C743 C744 1.376 . S
C744 H708 0.931 . S
C744 C743 1.376 . S
C744 C745 1.396 . S
C745 C727 1.472 . S
C745 C744 1.396 . S
C745 C746 1.348 . S
C746 H709 0.929 . S
C746 C745 1.348 . S
C746 C747 1.443 . S
C747 H711 0.932 . S
C747 C742 1.388 . S
C747 C746 1.443 . S
H748 C775 0.929 . S
N749 C774 1.433 . S
N749 C780 1.435 . S
N749 C786 1.423 . S
H750 C776 0.930 . S
H751 C779 0.931 . S
H752 C778 0.929 . S
H753 C781 0.930 . S
H754 C782 0.932 . S
H755 C785 0.929 . S
H756 C784 0.931 . S
H757 C787 0.929 . S
H758 C791 0.932 . S
H759 C788 0.931 . S
H760 C790 0.929 . S
H761 C793 0.929 . S
H762 C794 0.930 . S
H763 C796 0.929 . S
H764 C797 0.931 . S
H765 C799 0.930 . S
H766 C800 0.932 . S
H767 C802 0.931 . S
H768 C803 0.929 . S
H769 C805 0.929 . S
H770 C806 0.931 . S
H771 C808 0.929 . S
N772 C792 1.433 . S
N772 C798 1.435 . S
N772 C804 1.423 . S
H773 C809 0.932 . S
C774 N749 1.433 . S
C774 C775 1.363 . S
C774 C779 1.370 . S
C775 H748 0.929 . S
C775 C774 1.363 . S
C775 C776 1.385 . S
C776 H750 0.930 . S
C776 C775 1.385 . S
C776 C777 1.357 . S
C777 C776 1.357 . S
C777 C778 1.406 . S
C778 H752 0.929 . S
C778 C777 1.406 . S
C778 C779 1.391 . S
C779 H751 0.931 . S
C779 C774 1.370 . S
C779 C778 1.391 . S
C780 N749 1.435 . S
C780 C781 1.358 . S
C780 C785 1.371 . S
C781 H753 0.930 . S
C781 C780 1.358 . S
C781 C782 1.405 . S
C782 H754 0.932 . S
C782 C781 1.405 . S
C782 C783 1.383 . S
C783 C782 1.383 . S
C783 C784 1.393 . S
C784 H756 0.931 . S
C784 C783 1.393 . S
C784 C785 1.382 . S
C785 H755 0.929 . S
C785 C780 1.371 . S
C785 C784 1.382 . S
C786 N749 1.423 . S
C786 C787 1.362 . S
C786 C791 1.388 . S
C787 H757 0.929 . S
C787 C786 1.362 . S
C787 C788 1.376 . S
C788 H759 0.931 . S
C788 C787 1.376 . S
C788 C789 1.396 . S
C789 C788 1.396 . S
C789 C790 1.348 . S
C789 C807 1.472 . S
C790 H760 0.929 . S
C790 C789 1.348 . S
C790 C791 1.443 . S
C791 H758 0.932 . S
C791 C786 1.388 . S
C791 C790 1.443 . S
C792 N772 1.433 . S
C792 C793 1.363 . S
C792 C797 1.370 . S
C793 H761 0.929 . S
C793 C792 1.363 . S
C793 C794 1.385 . S
C794 H762 0.930 . S
C794 C793 1.385 . S
C794 C795 1.357 . S
C795 C794 1.357 . S
C795 C796 1.406 . S
C796 H763 0.929 . S
C796 C795 1.406 . S
C796 C797 1.391 . S
C797 H764 0.931 . S
C797 C792 1.370 . S
C797 C796 1.391 . S
C798 N772 1.435 . S
C798 C799 1.358 . S
C798 C803 1.371 . S
C799 H765 0.930 . S
C799 C798 1.358 . S
C799 C800 1.405 . S
C800 H766 0.932 . S
C800 C799 1.405 . S
C800 C801 1.383 . S
C801 C800 1.383 . S
C801 C802 1.393 . S
C802 H767 0.931 . S
C802 C801 1.393 . S
C802 C803 1.382 . S
C803 H768 0.929 . S
C803 C798 1.371 . S
C803 C802 1.382 . S
C804 N772 1.423 . S
C804 C805 1.362 . S
C804 C809 1.388 . S
C805 H769 0.929 . S
C805 C804 1.362 . S
C805 C806 1.376 . S
C806 H770 0.931 . S
C806 C805 1.376 . S
C806 C807 1.396 . S
C807 C789 1.472 . S
C807 C806 1.396 . S
C807 C808 1.348 . S
C808 H771 0.929 . S
C808 C807 1.348 . S
C808 C809 1.443 . S
C809 H773 0.932 . S
C809 C804 1.388 . S
C809 C808 1.443 . S
H810 C837 0.929 . S
N811 C836 1.433 . S
N811 C842 1.435 . S
N811 C848 1.423 . S
H812 C838 0.930 . S
H813 C841 0.931 . S
H814 C840 0.929 . S
H815 C843 0.930 . S
H816 C844 0.932 . S
H817 C847 0.929 . S
H818 C846 0.931 . S
H819 C849 0.929 . S
H820 C853 0.932 1_655 S
H821 C850 0.931 . S
H822 C852 0.937 . S
H823 C855 0.929 . S
H824 C856 0.930 . S
H825 C858 0.929 . S
H826 C859 0.931 . S
H827 C861 0.930 . S
H828 C862 0.932 . S
H829 C864 0.931 . S
H830 C865 0.929 . S
H831 C867 0.929 . S
H832 C868 0.931 . S
H833 C870 0.978 . S
N834 C854 1.433 . S
N834 C860 1.435 . S
N834 C866 1.423 . S
H835 C871 0.932 1_655 S
C836 N811 1.433 . S
C836 C837 1.363 . S
C836 C841 1.370 1_455 S
C837 H810 0.929 . S
C837 C836 1.363 . S
C837 C838 1.385 . S
C838 H812 0.930 . S
C838 C837 1.385 . S
C838 C839 1.357 1_455 S
C839 C838 1.357 1_655 S
C839 C840 1.406 . S
C840 H814 0.929 . S
C840 C839 1.406 . S
C840 C841 1.391 . S
C841 H813 0.931 . S
C841 C836 1.370 1_655 S
C841 C840 1.391 . S
C842 N811 1.435 . S
C842 C843 1.358 1_455 S
C842 C847 1.371 . S
C843 H815 0.930 . S
C843 C842 1.358 1_655 S
C843 C844 1.405 . S
C844 H816 0.932 . S
C844 C843 1.405 . S
C844 C845 1.383 1_655 S
C845 C844 1.383 1_455 S
C845 C846 1.393 . S
C846 H818 0.931 . S
C846 C845 1.393 . S
C846 C847 1.382 . S
C847 H817 0.929 . S
C847 C842 1.371 . S
C847 C846 1.382 . S
C848 N811 1.423 . S
C848 C849 1.362 . S
C848 C853 1.388 . S
C849 H819 0.929 . S
C849 C848 1.362 . S
C849 C850 1.376 . S
C850 H821 0.931 . S
C850 C849 1.376 . S
C850 C851 1.396 . S
C851 C850 1.396 . S
C851 C852 1.348 . S
C851 C869 1.472 . S
C852 H822 0.937 . S
C852 C851 1.348 . S
C852 C853 1.443 . S
C853 H820 0.932 1_455 S
C853 C848 1.388 . S
C853 C852 1.443 . S
C854 N834 1.433 . S
C854 C855 1.363 . S
C854 C859 1.370 1_455 S
C855 H823 0.929 . S
C855 C854 1.363 . S
C855 C856 1.385 . S
C856 H824 0.930 . S
C856 C855 1.385 . S
C856 C857 1.357 1_455 S
C857 C856 1.357 1_655 S
C857 C858 1.406 . S
C858 H825 0.929 . S
C858 C857 1.406 . S
C858 C859 1.391 . S
C859 H826 0.931 . S
C859 C854 1.370 1_655 S
C859 C858 1.391 . S
C860 N834 1.435 . S
C860 C861 1.358 1_455 S
C860 C865 1.371 . S
C861 H827 0.930 . S
C861 C860 1.358 1_655 S
C861 C862 1.405 . S
C862 H828 0.932 . S
C862 C861 1.405 . S
C862 C863 1.383 1_655 S
C863 C862 1.383 1_455 S
C863 C864 1.393 . S
C864 H829 0.931 . S
C864 C863 1.393 . S
C864 C865 1.382 . S
C865 H830 0.929 . S
C865 C860 1.371 . S
C865 C864 1.382 . S
C866 N834 1.423 . S
C866 C867 1.362 . S
C866 C871 1.388 . S
C867 H831 0.929 . S
C867 C866 1.362 . S
C867 C868 1.376 . S
C868 H832 0.931 . S
C868 C867 1.376 . S
C868 C869 1.396 . S
C869 C851 1.472 . S
C869 C868 1.396 . S
C869 C870 1.348 . S
C870 H833 0.978 . S
C870 C869 1.348 . S
C870 C871 1.443 . S
C871 H835 0.932 1_455 S
C871 C866 1.388 . S
C871 C870 1.443 . S
H872 C899 0.929 . S
N873 C898 1.433 . S
N873 C904 1.435 . S
N873 C910 1.423 . S
H874 C900 0.930 . S
H875 C903 0.931 . S
H876 C902 0.929 . S
H877 C905 0.930 . S
H878 C906 0.932 . S
H879 C909 0.929 . S
H880 C908 0.931 . S
H881 C911 0.929 . S
H882 C915 0.932 . S
H883 C912 0.931 . S
H884 C914 0.929 . S
H885 C917 0.929 . S
H886 C918 0.930 . S
H887 C920 0.929 . S
H888 C921 0.931 . S
H889 C923 0.930 . S
H890 C924 0.932 . S
H891 C926 0.931 . S
H892 C927 0.929 . S
H893 C929 0.929 . S
H894 C930 0.931 . S
H895 C932 0.929 . S
N896 C916 1.433 . S
N896 C922 1.435 . S
N896 C928 1.423 . S
H897 C933 0.932 . S
C898 N873 1.433 . S
C898 C899 1.363 . S
C898 C903 1.370 . S
C899 H872 0.929 . S
C899 C898 1.363 . S
C899 C900 1.385 . S
C900 H874 0.930 . S
C900 C899 1.385 . S
C900 C901 1.357 . S
C901 C900 1.357 . S
C901 C902 1.406 . S
C902 H876 0.929 . S
C902 C901 1.406 . S
C902 C903 1.391 . S
C903 H875 0.931 . S
C903 C898 1.370 . S
C903 C902 1.391 . S
C904 N873 1.435 . S
C904 C905 1.358 . S
C904 C909 1.371 . S
C905 H877 0.930 . S
C905 C904 1.358 . S
C905 C906 1.405 . S
C906 H878 0.932 . S
C906 C905 1.405 . S
C906 C907 1.383 . S
C907 C906 1.383 . S
C907 C908 1.393 . S
C908 H880 0.931 . S
C908 C907 1.393 . S
C908 C909 1.382 . S
C909 H879 0.929 . S
C909 C904 1.371 . S
C909 C908 1.382 . S
C910 N873 1.423 . S
C910 C911 1.362 . S
C910 C915 1.388 . S
C911 H881 0.929 . S
C911 C910 1.362 . S
C911 C912 1.376 . S
C912 H883 0.931 . S
C912 C911 1.376 . S
C912 C913 1.396 . S
C913 C912 1.396 . S
C913 C914 1.348 . S
C913 C931 1.472 . S
C914 H884 0.929 . S
C914 C913 1.348 . S
C914 C915 1.443 . S
C915 H882 0.932 . S
C915 C910 1.388 . S
C915 C914 1.443 . S
C916 N896 1.433 . S
C916 C917 1.363 . S
C916 C921 1.370 . S
C917 H885 0.929 . S
C917 C916 1.363 . S
C917 C918 1.385 . S
C918 H886 0.930 . S
C918 C917 1.385 . S
C918 C919 1.357 . S
C919 C918 1.357 . S
C919 C920 1.406 . S
C920 H887 0.929 . S
C920 C919 1.406 . S
C920 C921 1.391 . S
C921 H888 0.931 . S
C921 C916 1.370 . S
C921 C920 1.391 . S
C922 N896 1.435 . S
C922 C923 1.358 . S
C922 C927 1.371 . S
C923 H889 0.930 . S
C923 C922 1.358 . S
C923 C924 1.405 . S
C924 H890 0.932 . S
C924 C923 1.405 . S
C924 C925 1.383 . S
C925 C924 1.383 . S
C925 C926 1.393 . S
C926 H891 0.931 . S
C926 C925 1.393 . S
C926 C927 1.382 . S
C927 H892 0.929 . S
C927 C922 1.371 . S
C927 C926 1.382 . S
C928 N896 1.423 . S
C928 C929 1.362 . S
C928 C933 1.388 . S
C929 H893 0.929 . S
C929 C928 1.362 . S
C929 C930 1.376 . S
C930 H894 0.931 . S
C930 C929 1.376 . S
C930 C931 1.396 . S
C931 C913 1.472 . S
C931 C930 1.396 . S
C931 C932 1.348 . S
C932 H895 0.929 . S
C932 C931 1.348 . S
C932 C933 1.443 . S
C933 H897 0.932 . S
C933 C928 1.388 . S
C933 C932 1.443 . S
H934 C961 0.929 . S
N935 C960 1.433 . S
N935 C966 1.435 . S
N935 C972 1.423 . S
H936 C962 0.930 . S
H937 C965 0.931 . S
H938 C964 0.929 . S
H939 C967 0.930 . S
H940 C968 0.932 . S
H941 C971 0.929 . S
H942 C970 0.931 . S
H943 C973 0.929 . S
H944 C977 0.932 1_545 S
H945 C974 0.931 . S
H946 C976 0.983 . S
H947 C979 0.929 . S
H948 C980 0.930 . S
H949 C982 0.929 . S
H950 C983 0.931 . S
H951 C985 0.930 . S
H952 C986 0.932 . S
H953 C988 0.931 . S
H954 C989 0.929 . S
H955 C991 0.929 . S
H956 C992 0.931 . S
H957 C994 0.937 . S
N958 C978 1.433 . S
N958 C984 1.435 . S
N958 C990 1.423 . S
H959 C995 0.932 1_545 S
C960 N935 1.433 . S
C960 C961 1.363 . S
C960 C965 1.370 1_565 S
C961 H934 0.929 . S
C961 C960 1.363 . S
C961 C962 1.385 . S
C962 H936 0.930 . S
C962 C961 1.385 . S
C962 C963 1.357 1_565 S
C963 C962 1.357 1_545 S
C963 C964 1.406 . S
C964 H938 0.929 . S
C964 C963 1.406 . S
C964 C965 1.391 . S
C965 H937 0.931 . S
C965 C960 1.370 1_545 S
C965 C964 1.391 . S
C966 N935 1.435 . S
C966 C967 1.358 1_565 S
C966 C971 1.371 . S
C967 H939 0.930 . S
C967 C966 1.358 1_545 S
C967 C968 1.405 . S
C968 H940 0.932 . S
C968 C967 1.405 . S
C968 C969 1.383 1_545 S
C969 C968 1.383 1_565 S
C969 C970 1.393 . S
C970 H942 0.931 . S
C970 C969 1.393 . S
C970 C971 1.382 . S
C971 H941 0.929 . S
C971 C966 1.371 . S
C971 C970 1.382 . S
C972 N935 1.423 . S
C972 C973 1.362 . S
C972 C977 1.388 . S
C973 H943 0.929 . S
C973 C972 1.362 . S
C973 C974 1.376 . S
C974 H945 0.931 . S
C974 C973 1.376 . S
C974 C975 1.396 . S
C975 C974 1.396 . S
C975 C976 1.348 . S
C975 C993 1.472 . S
C976 H946 0.983 . S
C976 C975 1.348 . S
C976 C977 1.443 . S
C977 H944 0.932 1_565 S
C977 C972 1.388 . S
C977 C976 1.443 . S
C978 N958 1.433 . S
C978 C979 1.363 . S
C978 C983 1.370 1_565 S
C979 H947 0.929 . S
C979 C978 1.363 . S
C979 C980 1.385 . S
C980 H948 0.930 . S
C980 C979 1.385 . S
C980 C981 1.357 1_565 S
C981 C980 1.357 1_545 S
C981 C982 1.406 . S
C982 H949 0.929 . S
C982 C981 1.406 . S
C982 C983 1.391 . S
C983 H950 0.931 . S
C983 C978 1.370 1_545 S
C983 C982 1.391 . S
C984 N958 1.435 . S
C984 C985 1.358 1_565 S
C984 C989 1.371 . S
C985 H951 0.930 . S
C985 C984 1.358 1_545 S
C985 C986 1.405 . S
C986 H952 0.932 . S
C986 C985 1.405 . S
C986 C987 1.383 1_545 S
C987 C986 1.383 1_565 S
C987 C988 1.393 . S
C988 H953 0.931 . S
C988 C987 1.393 . S
C988 C989 1.382 . S
C989 H954 0.929 . S
C989 C984 1.371 . S
C989 C988 1.382 . S
C990 N958 1.423 . S
C990 C991 1.362 . S
C990 C995 1.388 . S
C991 H955 0.929 . S
C991 C990 1.362 . S
C991 C992 1.376 . S
C992 H956 0.931 . S
C992 C991 1.376 . S
C992 C993 1.396 . S
C993 C975 1.472 . S
C993 C992 1.396 . S
C993 C994 1.348 . S
C994 H957 0.937 . S
C994 C993 1.348 . S
C994 C995 1.443 . S
C995 H959 0.932 1_565 S
C995 C990 1.388 . S
C995 C994 1.443 . S
H996 C1023 0.929 . S
N997 C1022 1.433 . S
N997 C1028 1.435 . S
N997 C1034 1.423 . S
H998 C1024 0.930 . S
H999 C1027 0.931 . S
H1000 C1026 0.929 . S
H1001 C1029 0.930 . S
H1002 C1030 0.932 . S
H1003 C1033 0.929 . S
H1004 C1032 0.931 . S
H1005 C1035 0.929 . S
H1006 C1039 0.932 . S
H1007 C1036 0.931 . S
H1008 C1038 0.918 1_545 S
H1009 C1041 0.929 . S
H1010 C1042 0.930 . S
H1011 C1044 0.929 . S
H1012 C1045 0.990 . S
H1013 C1047 0.930 . S
H1014 C1048 0.932 . S
H1015 C1050 0.931 . S
H1016 C1051 0.929 . S
H1017 C1053 0.929 . S
H1018 C1054 0.931 . S
H1019 C1056 0.876 1_545 S
N1020 C1040 1.433 . S
N1020 C1046 1.435 . S
N1020 C1052 1.423 . S
H1021 C1057 0.957 . S
C1022 N997 1.433 . S
C1022 C1023 1.363 . S
C1022 C1027 1.370 1_565 S
C1023 H996 0.929 . S
C1023 C1022 1.363 . S
C1023 C1024 1.385 . S
C1024 H998 0.930 . S
C1024 C1023 1.385 . S
C1024 C1025 1.357 . S
C1025 C1024 1.357 . S
C1025 C1026 1.406 1_565 S
C1026 H1000 0.929 . S
C1026 C1025 1.406 1_545 S
C1026 C1027 1.391 . S
C1027 H999 0.931 . S
C1027 C1022 1.370 1_545 S
C1027 C1026 1.391 . S
C1028 N997 1.435 . S
C1028 C1029 1.358 1_565 S
C1028 C1033 1.371 . S
C1029 H1001 0.930 . S
C1029 C1028 1.358 1_545 S
C1029 C1030 1.405 . S
C1030 H1002 0.932 . S
C1030 C1029 1.405 . S
C1030 C1031 1.383 . S
C1031 C1030 1.383 . S
C1031 C1032 1.393 1_545 S
C1032 H1004 0.931 . S
C1032 C1031 1.393 1_565 S
C1032 C1033 1.382 . S
C1033 H1003 0.929 . S
C1033 C1028 1.371 . S
C1033 C1032 1.382 . S
C1034 N997 1.423 . S
C1034 C1035 1.362 . S
C1034 C1039 1.388 1_565 S
C1035 H1005 0.929 . S
C1035 C1034 1.362 . S
C1035 C1036 1.376 . S
C1036 H1007 0.931 . S
C1036 C1035 1.376 . S
C1036 C1037 1.396 . S
C1037 C1036 1.396 . S
C1037 C1038 1.398 . S
C1037 C1055 1.472 . S
C1038 H1008 0.918 1_565 S
C1038 C1037 1.398 . S
C1038 C1039 1.407 1_565 S
C1039 H1006 0.932 . S
C1039 C1034 1.388 1_545 S
C1039 C1038 1.407 1_545 S
C1040 N1020 1.433 . S
C1040 C1041 1.363 . S
C1040 C1045 1.325 1_565 S
C1041 H1009 0.929 . S
C1041 C1040 1.363 . S
C1041 C1042 1.385 . S
C1042 H1010 0.930 . S
C1042 C1041 1.385 . S
C1042 C1043 1.357 . S
C1043 C1042 1.357 . S
C1043 C1044 1.406 1_565 S
C1044 H1011 0.929 . S
C1044 C1043 1.406 1_545 S
C1044 C1045 1.381 . S
C1045 H1012 0.990 . S
C1045 C1040 1.325 1_545 S
C1045 C1044 1.381 . S
C1046 N1020 1.435 . S
C1046 C1047 1.358 1_565 S
C1046 C1051 1.371 . S
C1047 H1013 0.930 . S
C1047 C1046 1.358 1_545 S
C1047 C1048 1.405 . S
C1048 H1014 0.932 . S
C1048 C1047 1.405 . S
C1048 C1049 1.383 . S
C1049 C1048 1.383 . S
C1049 C1050 1.393 1_545 S
C1050 H1015 0.931 . S
C1050 C1049 1.393 1_565 S
C1050 C1051 1.382 . S
C1051 H1016 0.929 . S
C1051 C1046 1.371 . S
C1051 C1050 1.382 . S
C1052 N1020 1.423 . S
C1052 C1053 1.362 . S
C1052 C1057 1.337 1_565 S
C1053 H1017 0.929 . S
C1053 C1052 1.362 . S
C1053 C1054 1.376 . S
C1054 H1018 0.931 . S
C1054 C1053 1.376 . S
C1054 C1055 1.396 . S
C1055 C1037 1.472 . S
C1055 C1054 1.396 . S
C1055 C1056 1.370 . S
C1056 H1019 0.876 1_565 S
C1056 C1055 1.370 . S
C1056 C1057 1.510 1_565 S
C1057 H1021 0.957 . S
C1057 C1052 1.337 1_545 S
C1057 C1056 1.510 1_545 S
H1058 C1085 0.929 . S
N1059 C1084 1.433 . S
N1059 C1090 1.435 . S
N1059 C1096 1.423 . S
H1060 C1086 0.930 . S
H1061 C1089 0.931 . S
H1062 C1088 0.929 . S
H1063 C1091 0.930 . S
H1064 C1092 0.932 . S
H1065 C1095 0.929 . S
H1066 C1094 0.931 . S
H1067 C1097 0.929 . S
H1068 C1101 0.932 1_455 S
H1069 C1098 0.931 . S
H1070 C1100 0.984 . S
H1071 C1103 0.929 . S
H1072 C1104 0.930 . S
H1073 C1106 0.929 . S
H1074 C1107 0.931 . S
H1075 C1109 0.930 . S
H1076 C1110 0.932 . S
H1077 C1112 0.931 . S
H1078 C1113 0.929 . S
H1079 C1115 0.929 . S
H1080 C1116 0.931 . S
H1081 C1118 0.938 . S
N1082 C1102 1.433 . S
N1082 C1108 1.435 . S
N1082 C1114 1.423 . S
H1083 C1119 0.932 1_455 S
C1084 N1059 1.433 . S
C1084 C1085 1.363 . S
C1084 C1089 1.370 1_655 S
C1085 H1058 0.929 . S
C1085 C1084 1.363 . S
C1085 C1086 1.385 . S
C1086 H1060 0.930 . S
C1086 C1085 1.385 . S
C1086 C1087 1.357 1_655 S
C1087 C1086 1.357 1_455 S
C1087 C1088 1.406 . S
C1088 H1062 0.929 . S
C1088 C1087 1.406 . S
C1088 C1089 1.391 . S
C1089 H1061 0.931 . S
C1089 C1084 1.370 1_455 S
C1089 C1088 1.391 . S
C1090 N1059 1.435 . S
C1090 C1091 1.358 1_655 S
C1090 C1095 1.371 . S
C1091 H1063 0.930 . S
C1091 C1090 1.358 1_455 S
C1091 C1092 1.405 . S
C1092 H1064 0.932 . S
C1092 C1091 1.405 . S
C1092 C1093 1.383 1_455 S
C1093 C1092 1.383 1_655 S
C1093 C1094 1.393 . S
C1094 H1066 0.931 . S
C1094 C1093 1.393 . S
C1094 C1095 1.382 . S
C1095 H1065 0.929 . S
C1095 C1090 1.371 . S
C1095 C1094 1.382 . S
C1096 N1059 1.423 . S
C1096 C1097 1.362 . S
C1096 C1101 1.388 . S
C1097 H1067 0.929 . S
C1097 C1096 1.362 . S
C1097 C1098 1.376 . S
C1098 H1069 0.931 . S
C1098 C1097 1.376 . S
C1098 C1099 1.396 . S
C1099 C1098 1.396 . S
C1099 C1100 1.348 . S
C1099 C1117 1.472 . S
C1100 H1070 0.984 . S
C1100 C1099 1.348 . S
C1100 C1101 1.443 . S
C1101 H1068 0.932 1_655 S
C1101 C1096 1.388 . S
C1101 C1100 1.443 . S
C1102 N1082 1.433 . S
C1102 C1103 1.363 . S
C1102 C1107 1.370 1_655 S
C1103 H1071 0.929 . S
C1103 C1102 1.363 . S
C1103 C1104 1.385 . S
C1104 H1072 0.930 . S
C1104 C1103 1.385 . S
C1104 C1105 1.357 1_655 S
C1105 C1104 1.357 1_455 S
C1105 C1106 1.406 . S
C1106 H1073 0.929 . S
C1106 C1105 1.406 . S
C1106 C1107 1.391 . S
C1107 H1074 0.931 . S
C1107 C1102 1.370 1_455 S
C1107 C1106 1.391 . S
C1108 N1082 1.435 . S
C1108 C1109 1.358 1_655 S
C1108 C1113 1.371 . S
C1109 H1075 0.930 . S
C1109 C1108 1.358 1_455 S
C1109 C1110 1.405 . S
C1110 H1076 0.932 . S
C1110 C1109 1.405 . S
C1110 C1111 1.383 1_455 S
C1111 C1110 1.383 1_655 S
C1111 C1112 1.393 . S
C1112 H1077 0.931 . S
C1112 C1111 1.393 . S
C1112 C1113 1.382 . S
C1113 H1078 0.929 . S
C1113 C1108 1.371 . S
C1113 C1112 1.382 . S
C1114 N1082 1.423 . S
C1114 C1115 1.362 . S
C1114 C1119 1.388 . S
C1115 H1079 0.929 . S
C1115 C1114 1.362 . S
C1115 C1116 1.376 . S
C1116 H1080 0.931 . S
C1116 C1115 1.376 . S
C1116 C1117 1.396 . S
C1117 C1099 1.472 . S
C1117 C1116 1.396 . S
C1117 C1118 1.348 . S
C1118 H1081 0.938 . S
C1118 C1117 1.348 . S
C1118 C1119 1.443 . S
C1119 H1083 0.932 1_655 S
C1119 C1114 1.388 . S
C1119 C1118 1.443 . S
H1120 C1147 0.929 . S
N1121 C1146 1.433 . S
N1121 C1152 1.435 . S
N1121 C1158 1.423 . S
H1122 C1148 0.930 . S
H1123 C1151 0.931 . S
H1124 C1150 0.929 . S
H1125 C1153 0.930 . S
H1126 C1154 0.932 . S
H1127 C1157 0.929 . S
H1128 C1156 0.931 . S
H1129 C1159 0.929 . S
H1130 C1163 0.932 . S
H1131 C1160 0.931 . S
H1132 C1162 0.929 . S
H1133 C1165 0.929 . S
H1134 C1166 0.930 . S
H1135 C1168 0.929 . S
H1136 C1169 0.931 . S
H1137 C1171 0.930 . S
H1138 C1172 0.932 . S
H1139 C1174 0.931 . S
H1140 C1175 0.929 . S
H1141 C1177 0.929 . S
H1142 C1178 0.931 . S
H1143 C1180 0.929 . S
N1144 C1164 1.433 . S
N1144 C1170 1.435 . S
N1144 C1176 1.423 . S
H1145 C1181 0.932 . S
C1146 N1121 1.433 . S
C1146 C1147 1.363 . S
C1146 C1151 1.370 . S
C1147 H1120 0.929 . S
C1147 C1146 1.363 . S
C1147 C1148 1.385 . S
C1148 H1122 0.930 . S
C1148 C1147 1.385 . S
C1148 C1149 1.357 . S
C1149 C1148 1.357 . S
C1149 C1150 1.406 . S
C1150 H1124 0.929 . S
C1150 C1149 1.406 . S
C1150 C1151 1.391 . S
C1151 H1123 0.931 . S
C1151 C1146 1.370 . S
C1151 C1150 1.391 . S
C1152 N1121 1.435 . S
C1152 C1153 1.358 . S
C1152 C1157 1.371 . S
C1153 H1125 0.930 . S
C1153 C1152 1.358 . S
C1153 C1154 1.405 . S
C1154 H1126 0.932 . S
C1154 C1153 1.405 . S
C1154 C1155 1.383 . S
C1155 C1154 1.383 . S
C1155 C1156 1.393 . S
C1156 H1128 0.931 . S
C1156 C1155 1.393 . S
C1156 C1157 1.382 . S
C1157 H1127 0.929 . S
C1157 C1152 1.371 . S
C1157 C1156 1.382 . S
C1158 N1121 1.423 . S
C1158 C1159 1.362 . S
C1158 C1163 1.388 . S
C1159 H1129 0.929 . S
C1159 C1158 1.362 . S
C1159 C1160 1.376 . S
C1160 H1131 0.931 . S
C1160 C1159 1.376 . S
C1160 C1161 1.396 . S
C1161 C1160 1.396 . S
C1161 C1162 1.348 . S
C1161 C1179 1.472 . S
C1162 H1132 0.929 . S
C1162 C1161 1.348 . S
C1162 C1163 1.443 . S
C1163 H1130 0.932 . S
C1163 C1158 1.388 . S
C1163 C1162 1.443 . S
C1164 N1144 1.433 . S
C1164 C1165 1.363 . S
C1164 C1169 1.370 . S
C1165 H1133 0.929 . S
C1165 C1164 1.363 . S
C1165 C1166 1.385 . S
C1166 H1134 0.930 . S
C1166 C1165 1.385 . S
C1166 C1167 1.357 . S
C1167 C1166 1.357 . S
C1167 C1168 1.406 . S
C1168 H1135 0.929 . S
C1168 C1167 1.406 . S
C1168 C1169 1.391 . S
C1169 H1136 0.931 . S
C1169 C1164 1.370 . S
C1169 C1168 1.391 . S
C1170 N1144 1.435 . S
C1170 C1171 1.358 . S
C1170 C1175 1.371 . S
C1171 H1137 0.930 . S
C1171 C1170 1.358 . S
C1171 C1172 1.405 . S
C1172 H1138 0.932 . S
C1172 C1171 1.405 . S
C1172 C1173 1.383 . S
C1173 C1172 1.383 . S
C1173 C1174 1.393 . S
C1174 H1139 0.931 . S
C1174 C1173 1.393 . S
C1174 C1175 1.382 . S
C1175 H1140 0.929 . S
C1175 C1170 1.371 . S
C1175 C1174 1.382 . S
C1176 N1144 1.423 . S
C1176 C1177 1.362 . S
C1176 C1181 1.388 . S
C1177 H1141 0.929 . S
C1177 C1176 1.362 . S
C1177 C1178 1.376 . S
C1178 H1142 0.931 . S
C1178 C1177 1.376 . S
C1178 C1179 1.396 . S
C1179 C1161 1.472 . S
C1179 C1178 1.396 . S
C1179 C1180 1.348 . S
C1180 H1143 0.929 . S
C1180 C1179 1.348 . S
C1180 C1181 1.443 . S
C1181 H1145 0.932 . S
C1181 C1176 1.388 . S
C1181 C1180 1.443 . S
H1182 C1209 0.929 . S
N1183 C1208 1.433 . S
N1183 C1214 1.435 . S
N1183 C1220 1.423 . S
H1184 C1210 0.930 . S
H1185 C1213 0.931 . S
H1186 C1212 0.929 . S
H1187 C1215 0.930 . S
H1188 C1216 0.932 . S
H1189 C1219 0.929 . S
H1190 C1218 0.931 . S
H1191 C1221 0.929 . S
H1192 C1225 0.932 . S
H1193 C1222 0.931 . S
H1194 C1224 0.929 . S
H1195 C1227 0.929 . S
H1196 C1228 0.930 . S
H1197 C1230 0.929 . S
H1198 C1231 0.931 . S
H1199 C1233 0.930 . S
H1200 C1234 0.932 . S
H1201 C1236 0.931 . S
H1202 C1237 0.929 . S
H1203 C1239 0.929 . S
H1204 C1240 0.931 . S
H1205 C1242 0.929 . S
N1206 C1226 1.433 . S
N1206 C1232 1.435 . S
N1206 C1238 1.423 . S
H1207 C1243 0.932 . S
C1208 N1183 1.433 . S
C1208 C1209 1.363 . S
C1208 C1213 1.370 . S
C1209 H1182 0.929 . S
C1209 C1208 1.363 . S
C1209 C1210 1.385 . S
C1210 H1184 0.930 . S
C1210 C1209 1.385 . S
C1210 C1211 1.357 . S
C1211 C1210 1.357 . S
C1211 C1212 1.406 . S
C1212 H1186 0.929 . S
C1212 C1211 1.406 . S
C1212 C1213 1.391 . S
C1213 H1185 0.931 . S
C1213 C1208 1.370 . S
C1213 C1212 1.391 . S
C1214 N1183 1.435 . S
C1214 C1215 1.358 . S
C1214 C1219 1.371 . S
C1215 H1187 0.930 . S
C1215 C1214 1.358 . S
C1215 C1216 1.405 . S
C1216 H1188 0.932 . S
C1216 C1215 1.405 . S
C1216 C1217 1.383 . S
C1217 C1216 1.383 . S
C1217 C1218 1.393 . S
C1218 H1190 0.931 . S
C1218 C1217 1.393 . S
C1218 C1219 1.382 . S
C1219 H1189 0.929 . S
C1219 C1214 1.371 . S
C1219 C1218 1.382 . S
C1220 N1183 1.423 . S
C1220 C1221 1.362 . S
C1220 C1225 1.388 . S
C1221 H1191 0.929 . S
C1221 C1220 1.362 . S
C1221 C1222 1.376 . S
C1222 H1193 0.931 . S
C1222 C1221 1.376 . S
C1222 C1223 1.396 . S
C1223 C1222 1.396 . S
C1223 C1224 1.348 . S
C1223 C1241 1.472 . S
C1224 H1194 0.929 . S
C1224 C1223 1.348 . S
C1224 C1225 1.443 . S
C1225 H1192 0.932 . S
C1225 C1220 1.388 . S
C1225 C1224 1.443 . S
C1226 N1206 1.433 . S
C1226 C1227 1.363 . S
C1226 C1231 1.370 . S
C1227 H1195 0.929 . S
C1227 C1226 1.363 . S
C1227 C1228 1.385 . S
C1228 H1196 0.930 . S
C1228 C1227 1.385 . S
C1228 C1229 1.357 . S
C1229 C1228 1.357 . S
C1229 C1230 1.406 . S
C1230 H1197 0.929 . S
C1230 C1229 1.406 . S
C1230 C1231 1.391 . S
C1231 H1198 0.931 . S
C1231 C1226 1.370 . S
C1231 C1230 1.391 . S
C1232 N1206 1.435 . S
C1232 C1233 1.358 . S
C1232 C1237 1.371 . S
C1233 H1199 0.930 . S
C1233 C1232 1.358 . S
C1233 C1234 1.405 . S
C1234 H1200 0.932 . S
C1234 C1233 1.405 . S
C1234 C1235 1.383 . S
C1235 C1234 1.383 . S
C1235 C1236 1.393 . S
C1236 H1201 0.931 . S
C1236 C1235 1.393 . S
C1236 C1237 1.382 . S
C1237 H1202 0.929 . S
C1237 C1232 1.371 . S
C1237 C1236 1.382 . S
C1238 N1206 1.423 . S
C1238 C1239 1.362 . S
C1238 C1243 1.388 . S
C1239 H1203 0.929 . S
C1239 C1238 1.362 . S
C1239 C1240 1.376 . S
C1240 H1204 0.931 . S
C1240 C1239 1.376 . S
C1240 C1241 1.396 . S
C1241 C1223 1.472 . S
C1241 C1240 1.396 . S
C1241 C1242 1.348 . S
C1242 H1205 0.929 . S
C1242 C1241 1.348 . S
C1242 C1243 1.443 . S
C1243 H1207 0.932 . S
C1243 C1238 1.388 . S
C1243 C1242 1.443 . S
H1244 C1271 0.929 . S
N1245 C1270 1.433 . S
N1245 C1276 1.435 . S
N1245 C1282 1.423 . S
H1246 C1272 0.930 . S
H1247 C1275 0.931 . S
H1248 C1274 0.929 . S
H1249 C1277 0.930 . S
H1250 C1278 0.932 . S
H1251 C1281 0.929 . S
H1252 C1280 0.931 . S
H1253 C1283 0.929 . S
H1254 C1287 0.932 . S
H1255 C1284 0.931 . S
H1256 C1286 0.929 . S
H1257 C1289 0.929 . S
H1258 C1290 0.930 . S
H1259 C1292 0.929 . S
H1260 C1293 0.931 . S
H1261 C1295 0.930 . S
H1262 C1296 0.932 . S
H1263 C1298 0.931 . S
H1264 C1299 0.929 . S
H1265 C1301 0.929 . S
H1266 C1302 0.931 . S
H1267 C1304 0.929 . S
N1268 C1288 1.433 . S
N1268 C1294 1.435 . S
N1268 C1300 1.423 . S
H1269 C1305 0.932 . S
C1270 N1245 1.433 . S
C1270 C1271 1.363 . S
C1270 C1275 1.370 . S
C1271 H1244 0.929 . S
C1271 C1270 1.363 . S
C1271 C1272 1.385 . S
C1272 H1246 0.930 . S
C1272 C1271 1.385 . S
C1272 C1273 1.357 . S
C1273 C1272 1.357 . S
C1273 C1274 1.406 . S
C1274 H1248 0.929 . S
C1274 C1273 1.406 . S
C1274 C1275 1.391 . S
C1275 H1247 0.931 . S
C1275 C1270 1.370 . S
C1275 C1274 1.391 . S
C1276 N1245 1.435 . S
C1276 C1277 1.358 . S
C1276 C1281 1.371 . S
C1277 H1249 0.930 . S
C1277 C1276 1.358 . S
C1277 C1278 1.405 . S
C1278 H1250 0.932 . S
C1278 C1277 1.405 . S
C1278 C1279 1.383 . S
C1279 C1278 1.383 . S
C1279 C1280 1.393 . S
C1280 H1252 0.931 . S
C1280 C1279 1.393 . S
C1280 C1281 1.382 . S
C1281 H1251 0.929 . S
C1281 C1276 1.371 . S
C1281 C1280 1.382 . S
C1282 N1245 1.423 . S
C1282 C1283 1.362 . S
C1282 C1287 1.388 . S
C1283 H1253 0.929 . S
C1283 C1282 1.362 . S
C1283 C1284 1.376 . S
C1284 H1255 0.931 . S
C1284 C1283 1.376 . S
C1284 C1285 1.396 . S
C1285 C1284 1.396 . S
C1285 C1286 1.348 . S
C1285 C1303 1.472 . S
C1286 H1256 0.929 . S
C1286 C1285 1.348 . S
C1286 C1287 1.443 . S
C1287 H1254 0.932 . S
C1287 C1282 1.388 . S
C1287 C1286 1.443 . S
C1288 N1268 1.433 . S
C1288 C1289 1.363 . S
C1288 C1293 1.370 . S
C1289 H1257 0.929 . S
C1289 C1288 1.363 . S
C1289 C1290 1.385 . S
C1290 H1258 0.930 . S
C1290 C1289 1.385 . S
C1290 C1291 1.357 . S
C1291 C1290 1.357 . S
C1291 C1292 1.406 . S
C1292 H1259 0.929 . S
C1292 C1291 1.406 . S
C1292 C1293 1.391 . S
C1293 H1260 0.931 . S
C1293 C1288 1.370 . S
C1293 C1292 1.391 . S
C1294 N1268 1.435 . S
C1294 C1295 1.358 . S
C1294 C1299 1.371 . S
C1295 H1261 0.930 . S
C1295 C1294 1.358 . S
C1295 C1296 1.405 . S
C1296 H1262 0.932 . S
C1296 C1295 1.405 . S
C1296 C1297 1.383 . S
C1297 C1296 1.383 . S
C1297 C1298 1.393 . S
C1298 H1263 0.931 . S
C1298 C1297 1.393 . S
C1298 C1299 1.382 . S
C1299 H1264 0.929 . S
C1299 C1294 1.371 . S
C1299 C1298 1.382 . S
C1300 N1268 1.423 . S
C1300 C1301 1.362 . S
C1300 C1305 1.388 . S
C1301 H1265 0.929 . S
C1301 C1300 1.362 . S
C1301 C1302 1.376 . S
C1302 H1266 0.931 . S
C1302 C1301 1.376 . S
C1302 C1303 1.396 . S
C1303 C1285 1.472 . S
C1303 C1302 1.396 . S
C1303 C1304 1.348 . S
C1304 H1267 0.929 . S
C1304 C1303 1.348 . S
C1304 C1305 1.443 . S
C1305 H1269 0.932 . S
C1305 C1300 1.388 . S
C1305 C1304 1.443 . S
H1306 C1333 0.929 . S
N1307 C1332 1.433 . S
N1307 C1338 1.435 . S
N1307 C1344 1.423 . S
H1308 C1334 0.930 . S
H1309 C1337 0.931 . S
H1310 C1336 0.929 . S
H1311 C1339 0.930 . S
H1312 C1340 0.932 . S
H1313 C1343 0.929 . S
H1314 C1342 0.931 . S
H1315 C1345 0.929 . S
H1316 C1349 0.932 . S
H1317 C1346 0.931 . S
H1318 C1348 0.929 . S
H1319 C1351 0.929 . S
H1320 C1352 0.930 . S
H1321 C1354 0.929 . S
H1322 C1355 0.931 . S
H1323 C1357 0.930 . S
H1324 C1358 0.932 . S
H1325 C1360 0.931 . S
H1326 C1361 0.929 . S
H1327 C1363 0.929 . S
H1328 C1364 0.931 . S
H1329 C1366 0.929 . S
N1330 C1350 1.433 . S
N1330 C1356 1.435 . S
N1330 C1362 1.423 . S
H1331 C1367 0.932 . S
C1332 N1307 1.433 . S
C1332 C1333 1.363 . S
C1332 C1337 1.370 . S
C1333 H1306 0.929 . S
C1333 C1332 1.363 . S
C1333 C1334 1.385 . S
C1334 H1308 0.930 . S
C1334 C1333 1.385 . S
C1334 C1335 1.357 . S
C1335 C1334 1.357 . S
C1335 C1336 1.406 . S
C1336 H1310 0.929 . S
C1336 C1335 1.406 . S
C1336 C1337 1.391 . S
C1337 H1309 0.931 . S
C1337 C1332 1.370 . S
C1337 C1336 1.391 . S
C1338 N1307 1.435 . S
C1338 C1339 1.358 . S
C1338 C1343 1.371 . S
C1339 H1311 0.930 . S
C1339 C1338 1.358 . S
C1339 C1340 1.405 . S
C1340 H1312 0.932 . S
C1340 C1339 1.405 . S
C1340 C1341 1.383 . S
C1341 C1340 1.383 . S
C1341 C1342 1.393 . S
C1342 H1314 0.931 . S
C1342 C1341 1.393 . S
C1342 C1343 1.382 . S
C1343 H1313 0.929 . S
C1343 C1338 1.371 . S
C1343 C1342 1.382 . S
C1344 N1307 1.423 . S
C1344 C1345 1.362 . S
C1344 C1349 1.388 . S
C1345 H1315 0.929 . S
C1345 C1344 1.362 . S
C1345 C1346 1.376 . S
C1346 H1317 0.931 . S
C1346 C1345 1.376 . S
C1346 C1347 1.396 . S
C1347 C1346 1.396 . S
C1347 C1348 1.348 . S
C1347 C1365 1.472 . S
C1348 H1318 0.929 . S
C1348 C1347 1.348 . S
C1348 C1349 1.443 . S
C1349 H1316 0.932 . S
C1349 C1344 1.388 . S
C1349 C1348 1.443 . S
C1350 N1330 1.433 . S
C1350 C1351 1.363 . S
C1350 C1355 1.370 . S
C1351 H1319 0.929 . S
C1351 C1350 1.363 . S
C1351 C1352 1.385 . S
C1352 H1320 0.930 . S
C1352 C1351 1.385 . S
C1352 C1353 1.357 . S
C1353 C1352 1.357 . S
C1353 C1354 1.406 . S
C1354 H1321 0.929 . S
C1354 C1353 1.406 . S
C1354 C1355 1.391 . S
C1355 H1322 0.931 . S
C1355 C1350 1.370 . S
C1355 C1354 1.391 . S
C1356 N1330 1.435 . S
C1356 C1357 1.358 . S
C1356 C1361 1.371 . S
C1357 H1323 0.930 . S
C1357 C1356 1.358 . S
C1357 C1358 1.405 . S
C1358 H1324 0.932 . S
C1358 C1357 1.405 . S
C1358 C1359 1.383 . S
C1359 C1358 1.383 . S
C1359 C1360 1.393 . S
C1360 H1325 0.931 . S
C1360 C1359 1.393 . S
C1360 C1361 1.382 . S
C1361 H1326 0.929 . S
C1361 C1356 1.371 . S
C1361 C1360 1.382 . S
C1362 N1330 1.423 . S
C1362 C1363 1.362 . S
C1362 C1367 1.388 . S
C1363 H1327 0.929 . S
C1363 C1362 1.362 . S
C1363 C1364 1.376 . S
C1364 H1328 0.931 . S
C1364 C1363 1.376 . S
C1364 C1365 1.396 . S
C1365 C1347 1.472 . S
C1365 C1364 1.396 . S
C1365 C1366 1.348 . S
C1366 H1329 0.929 . S
C1366 C1365 1.348 . S
C1366 C1367 1.443 . S
C1367 H1331 0.932 . S
C1367 C1362 1.388 . S
C1367 C1366 1.443 . S
H1368 C1374 0.930 . S
H1369 C1378 0.921 . S
H1370 C1383 0.929 . S
H1371 C1381 0.929 . S
H1372 C1376 0.929 . S
H1373 C1382 0.929 . S
C1374 H1368 0.930 . S
C1374 C1375 1.367 . S
C1374 C1382 1.378 . S
C1375 C1374 1.367 . S
C1375 C1383 1.433 1_655 S
C1376 H1372 0.929 . S
C1376 C1378 1.394 . S
C1376 C1380 1.350 1_455 S
C1377 C1380 1.463 . S
C1377 C1382 1.350 . S
C1377 N1385 1.427 1_655 S
C1378 H1369 0.921 . S
C1378 C1376 1.394 . S
C1378 C1379 1.362 1_455 S
C1379 C1378 1.362 1_655 S
C1379 C1381 1.433 . S
C1380 C1376 1.350 1_655 S
C1380 C1377 1.463 . S
C1380 N1384 1.427 . S
C1381 H1371 0.929 . S
C1381 C1379 1.433 . S
C1381 N1384 1.384 . S
C1382 H1373 0.929 . S
C1382 C1374 1.378 . S
C1382 C1377 1.350 . S
C1383 H1370 0.929 . S
C1383 C1375 1.433 1_455 S
C1383 N1385 1.384 . S
N1384 C1380 1.427 . S
N1384 C1381 1.384 . S
N1385 C1377 1.427 1_455 S
N1385 C1383 1.384 . S
H1386 C1392 0.930 . S
H1387 C1396 0.930 . S
H1388 C1401 0.929 . S
H1389 C1399 0.929 . S
H1390 C1394 0.929 . S
H1391 C1400 0.929 . S
C1392 H1386 0.930 . S
C1392 C1393 1.367 . S
C1392 C1400 1.378 . S
C1393 C1392 1.367 . S
C1393 C1401 1.433 . S
C1394 H1390 0.929 . S
C1394 C1396 1.378 . S
C1394 C1398 1.350 . S
C1395 C1398 1.463 . S
C1395 C1400 1.350 . S
C1395 N1403 1.427 . S
C1396 H1387 0.930 . S
C1396 C1394 1.378 . S
C1396 C1397 1.367 . S
C1397 C1396 1.367 . S
C1397 C1399 1.433 . S
C1398 C1394 1.350 . S
C1398 C1395 1.463 . S
C1398 N1402 1.427 . S
C1399 H1389 0.929 . S
C1399 C1397 1.433 . S
C1399 N1402 1.384 . S
C1400 H1391 0.929 . S
C1400 C1392 1.378 . S
C1400 C1395 1.350 . S
C1401 H1388 0.929 . S
C1401 C1393 1.433 . S
C1401 N1403 1.384 . S
N1402 C1398 1.427 . S
N1402 C1399 1.384 . S
N1403 C1395 1.427 . S
N1403 C1401 1.384 . S
H1404 C1410 0.930 . S
H1405 C1414 0.930 . S
H1406 C1419 0.929 . S
H1407 C1417 0.929 . S
H1408 C1412 0.929 . S
H1409 C1418 0.929 . S
C1410 H1404 0.930 . S
C1410 C1411 1.367 1_565 S
C1410 C1418 1.378 . S
C1411 C1410 1.367 1_545 S
C1411 C1419 1.433 . S
C1412 H1408 0.929 . S
C1412 C1414 1.378 . S
C1412 C1416 1.350 . S
C1413 C1416 1.463 . S
C1413 C1418 1.350 1_545 S
C1413 N1421 1.427 . S
C1414 H1405 0.930 . S
C1414 C1412 1.378 . S
C1414 C1415 1.367 . S
C1415 C1414 1.367 . S
C1415 C1417 1.433 1_545 S
C1416 C1412 1.350 . S
C1416 C1413 1.463 . S
C1416 N1420 1.427 1_545 S
C1417 H1407 0.929 . S
C1417 C1415 1.433 1_565 S
C1417 N1420 1.384 . S
C1418 H1409 0.929 . S
C1418 C1410 1.378 . S
C1418 C1413 1.350 1_565 S
C1419 H1406 0.929 . S
C1419 C1411 1.433 . S
C1419 N1421 1.384 . S
N1420 C1416 1.427 1_565 S
N1420 C1417 1.384 . S
N1421 C1413 1.427 . S
N1421 C1419 1.384 . S
H1422 C1428 0.930 . S
H1423 C1432 0.930 . S
H1424 C1437 0.929 . S
H1425 C1435 0.929 . S
H1426 C1430 0.929 . S
H1427 C1436 0.929 . S
C1428 H1422 0.930 . S
C1428 C1429 1.331 1_565 S
C1428 C1436 1.378 . S
C1429 C1428 1.331 1_545 S
C1429 C1437 1.450 . S
C1430 H1426 0.929 . S
C1430 C1432 1.378 . S
C1430 C1434 1.350 1_545 S
C1431 C1434 1.463 . S
C1431 C1436 1.350 . S
C1431 N1439 1.427 1_565 S
C1432 H1423 0.930 . S
C1432 C1430 1.378 . S
C1432 C1433 1.367 1_545 S
C1433 C1432 1.367 1_565 S
C1433 C1435 1.433 . S
C1434 C1430 1.350 1_565 S
C1434 C1431 1.463 . S
C1434 N1438 1.427 . S
C1435 H1425 0.929 . S
C1435 C1433 1.433 . S
C1435 N1438 1.384 . S
C1436 H1427 0.929 . S
C1436 C1428 1.378 . S
C1436 C1431 1.350 . S
C1437 H1424 0.929 . S
C1437 C1429 1.450 . S
C1437 N1439 1.384 . S
N1438 C1434 1.427 . S
N1438 C1435 1.384 . S
N1439 C1431 1.427 1_545 S
N1439 C1437 1.384 . S
H1440 C1446 0.930 . S
H1441 C1450 0.930 . S
H1442 C1455 0.929 . S
H1443 C1453 0.929 . S
H1444 C1448 0.929 . S
H1445 C1454 0.929 . S
C1446 H1440 0.930 . S
C1446 C1447 1.367 1_655 S
C1446 C1454 1.378 . S
C1447 C1446 1.367 1_455 S
C1447 C1455 1.433 . S
C1448 H1444 0.929 . S
C1448 C1450 1.378 . S
C1448 C1452 1.350 . S
C1449 C1452 1.463 . S
C1449 C1454 1.350 1_455 S
C1449 N1457 1.427 . S
C1450 H1441 0.930 . S
C1450 C1448 1.378 . S
C1450 C1451 1.367 . S
C1451 C1450 1.367 . S
C1451 C1453 1.433 1_455 S
C1452 C1448 1.350 . S
C1452 C1449 1.463 . S
C1452 N1456 1.427 1_455 S
C1453 H1443 0.929 . S
C1453 C1451 1.433 1_655 S
C1453 N1456 1.384 . S
C1454 H1445 0.929 . S
C1454 C1446 1.378 . S
C1454 C1449 1.350 1_655 S
C1455 H1442 0.929 . S
C1455 C1447 1.433 . S
C1455 N1457 1.384 . S
N1456 C1452 1.427 1_655 S
N1456 C1453 1.384 . S
N1457 C1449 1.427 . S
N1457 C1455 1.384 . S
H1458 C1464 0.930 . S
H1459 C1468 0.930 . S
H1460 C1473 0.929 . S
H1461 C1471 0.929 . S
H1462 C1466 0.929 . S
H1463 C1472 0.929 . S
C1464 H1458 0.930 . S
C1464 C1465 1.367 . S
C1464 C1472 1.378 . S
C1465 C1464 1.367 . S
C1465 C1473 1.433 . S
C1466 H1462 0.929 . S
C1466 C1468 1.378 . S
C1466 C1470 1.350 . S
C1467 C1470 1.463 . S
C1467 C1472 1.350 . S
C1467 N1475 1.427 . S
C1468 H1459 0.930 . S
C1468 C1466 1.378 . S
C1468 C1469 1.367 . S
C1469 C1468 1.367 . S
C1469 C1471 1.433 . S
C1470 C1466 1.350 . S
C1470 C1467 1.463 . S
C1470 N1474 1.427 . S
C1471 H1461 0.929 . S
C1471 C1469 1.433 . S
C1471 N1474 1.384 . S
C1472 H1463 0.929 . S
C1472 C1464 1.378 . S
C1472 C1467 1.350 . S
C1473 H1460 0.929 . S
C1473 C1465 1.433 . S
C1473 N1475 1.384 . S
N1474 C1470 1.427 . S
N1474 C1471 1.384 . S
N1475 C1467 1.427 . S
N1475 C1473 1.384 . S
H1476 C1482 0.930 . S
H1477 C1486 0.930 . S
H1478 C1491 0.929 . S
H1479 C1489 0.929 . S
H1480 C1484 0.929 . S
H1481 C1490 0.929 . S
C1482 H1476 0.930 . S
C1482 C1483 1.367 . S
C1482 C1490 1.378 . S
C1483 C1482 1.367 . S
C1483 C1491 1.433 1_455 S
C1484 H1480 0.929 . S
C1484 C1486 1.378 . S
C1484 C1488 1.350 1_655 S
C1485 C1488 1.463 . S
C1485 C1490 1.350 . S
C1485 N1493 1.427 1_455 S
C1486 H1477 0.930 . S
C1486 C1484 1.378 . S
C1486 C1487 1.367 1_655 S
C1487 C1486 1.367 1_455 S
C1487 C1489 1.433 . S
C1488 C1484 1.350 1_455 S
C1488 C1485 1.463 . S
C1488 N1492 1.427 . S
C1489 H1479 0.929 . S
C1489 C1487 1.433 . S
C1489 N1492 1.384 . S
C1490 H1481 0.929 . S
C1490 C1482 1.378 . S
C1490 C1485 1.350 . S
C1491 H1478 0.929 . S
C1491 C1483 1.433 1_655 S
C1491 N1493 1.384 . S
N1492 C1488 1.427 . S
N1492 C1489 1.384 . S
N1493 C1485 1.427 1_655 S
N1493 C1491 1.384 . S
H1494 C1500 0.930 . S
H1495 C1504 0.930 . S
H1496 C1509 0.929 . S
H1497 C1507 0.929 . S
H1498 C1502 0.929 . S
H1499 C1508 0.929 . S
C1500 H1494 0.930 . S
C1500 C1501 1.367 . S
C1500 C1508 1.378 . S
C1501 C1500 1.367 . S
C1501 C1509 1.433 . S
C1502 H1498 0.929 . S
C1502 C1504 1.378 . S
C1502 C1506 1.350 . S
C1503 C1506 1.463 . S
C1503 C1508 1.350 . S
C1503 N1511 1.427 . S
C1504 H1495 0.930 . S
C1504 C1502 1.378 . S
C1504 C1505 1.367 . S
C1505 C1504 1.367 . S
C1505 C1507 1.433 . S
C1506 C1502 1.350 . S
C1506 C1503 1.463 . S
C1506 N1510 1.427 . S
C1507 H1497 0.929 . S
C1507 C1505 1.433 . S
C1507 N1510 1.384 . S
C1508 H1499 0.929 . S
C1508 C1500 1.378 . S
C1508 C1503 1.350 . S
C1509 H1496 0.929 . S
C1509 C1501 1.433 . S
C1509 N1511 1.384 . S
N1510 C1506 1.427 . S
N1510 C1507 1.384 . S
N1511 C1503 1.427 . S
N1511 C1509 1.384 . S
H1512 C1518 0.930 . S
H1513 C1522 0.930 . S
H1514 C1527 0.929 . S
H1515 C1525 0.929 . S
H1516 C1520 0.929 . S
H1517 C1526 0.929 . S
C1518 H1512 0.930 . S
C1518 C1519 1.367 . S
C1518 C1526 1.378 . S
C1519 C1518 1.367 . S
C1519 C1527 1.433 1_565 S
C1520 H1516 0.929 . S
C1520 C1522 1.378 . S
C1520 C1524 1.350 1_545 S
C1521 C1524 1.463 . S
C1521 C1526 1.350 . S
C1521 N1529 1.427 1_565 S
C1522 H1513 0.930 . S
C1522 C1520 1.378 . S
C1522 C1523 1.367 1_545 S
C1523 C1522 1.367 1_565 S
C1523 C1525 1.433 . S
C1524 C1520 1.350 1_565 S
C1524 C1521 1.463 . S
C1524 N1528 1.427 . S
C1525 H1515 0.929 . S
C1525 C1523 1.433 . S
C1525 N1528 1.384 . S
C1526 H1517 0.929 . S
C1526 C1518 1.378 . S
C1526 C1521 1.350 . S
C1527 H1514 0.929 . S
C1527 C1519 1.433 1_545 S
C1527 N1529 1.384 . S
N1528 C1524 1.427 . S
N1528 C1525 1.384 . S
N1529 C1521 1.427 1_545 S
N1529 C1527 1.384 . S
H1530 C1536 0.930 . S
H1531 C1540 0.930 . S
H1532 C1545 0.929 . S
H1533 C1543 0.929 . S
H1534 C1538 0.929 . S
H1535 C1544 0.929 . S
C1536 H1530 0.930 . S
C1536 C1537 1.367 . S
C1536 C1544 1.378 . S
C1537 C1536 1.367 . S
C1537 C1545 1.433 1_545 S
C1538 H1534 0.929 . S
C1538 C1540 1.378 . S
C1538 C1542 1.350 1_565 S
C1539 C1542 1.463 . S
C1539 C1544 1.350 . S
C1539 N1547 1.427 1_545 S
C1540 H1531 0.930 . S
C1540 C1538 1.378 . S
C1540 C1541 1.367 1_565 S
C1541 C1540 1.367 1_545 S
C1541 C1543 1.433 . S
C1542 C1538 1.350 1_545 S
C1542 C1539 1.463 . S
C1542 N1546 1.427 . S
C1543 H1533 0.929 . S
C1543 C1541 1.433 . S
C1543 N1546 1.384 . S
C1544 H1535 0.929 . S
C1544 C1536 1.378 . S
C1544 C1539 1.350 . S
C1545 H1532 0.929 . S
C1545 C1537 1.433 1_565 S
C1545 N1547 1.384 . S
N1546 C1542 1.427 . S
N1546 C1543 1.384 . S
N1547 C1539 1.427 1_565 S
N1547 C1545 1.384 . S
H1548 C1554 0.930 . S
H1549 C1558 0.930 . S
H1550 C1563 0.929 . S
H1551 C1561 0.929 . S
H1552 C1556 0.929 . S
H1553 C1562 0.929 . S
C1554 H1548 0.930 . S
C1554 C1555 1.367 1_455 S
C1554 C1562 1.378 . S
C1555 C1554 1.367 1_655 S
C1555 C1563 1.433 . S
C1556 H1552 0.929 . S
C1556 C1558 1.378 . S
C1556 C1560 1.350 . S
C1557 C1560 1.463 . S
C1557 C1562 1.350 1_655 S
C1557 N1565 1.427 . S
C1558 H1549 0.930 . S
C1558 C1556 1.378 . S
C1558 C1559 1.367 . S
C1559 C1558 1.367 . S
C1559 C1561 1.433 1_655 S
C1560 C1556 1.350 . S
C1560 C1557 1.463 . S
C1560 N1564 1.427 1_655 S
C1561 H1551 0.929 . S
C1561 C1559 1.433 1_455 S
C1561 N1564 1.384 . S
C1562 H1553 0.929 . S
C1562 C1554 1.378 . S
C1562 C1557 1.350 1_455 S
C1563 H1550 0.929 . S
C1563 C1555 1.433 . S
C1563 N1565 1.384 . S
N1564 C1560 1.427 1_455 S
N1564 C1561 1.384 . S
N1565 C1557 1.427 . S
N1565 C1563 1.384 . S
H1566 C1572 0.930 . S
H1567 C1576 0.930 . S
H1568 C1581 0.929 . S
H1569 C1579 0.929 . S
H1570 C1574 0.929 . S
H1571 C1580 0.929 . S
C1572 H1566 0.930 . S
C1572 C1573 1.367 . S
C1572 C1580 1.378 . S
C1573 C1572 1.367 . S
C1573 C1581 1.433 . S
C1574 H1570 0.929 . S
C1574 C1576 1.378 . S
C1574 C1578 1.350 . S
C1575 C1578 1.463 . S
C1575 C1580 1.350 . S
C1575 N1583 1.427 . S
C1576 H1567 0.930 . S
C1576 C1574 1.378 . S
C1576 C1577 1.367 . S
C1577 C1576 1.367 . S
C1577 C1579 1.433 . S
C1578 C1574 1.350 . S
C1578 C1575 1.463 . S
C1578 N1582 1.427 . S
C1579 H1569 0.929 . S
C1579 C1577 1.433 . S
C1579 N1582 1.384 . S
C1580 H1571 0.929 . S
C1580 C1572 1.378 . S
C1580 C1575 1.350 . S
C1581 H1568 0.929 . S
C1581 C1573 1.433 . S
C1581 N1583 1.384 . S
N1582 C1578 1.427 . S
N1582 C1579 1.384 . S
N1583 C1575 1.427 . S
N1583 C1581 1.384 . S
H1584 C1590 0.930 . S
H1585 C1594 0.930 . S
H1586 C1599 0.929 . S
H1587 C1597 0.929 . S
H1588 C1592 0.929 . S
H1589 C1598 0.929 . S
C1590 H1584 0.930 . S
C1590 C1591 1.367 . S
C1590 C1598 1.378 . S
C1591 C1590 1.367 . S
C1591 C1599 1.433 . S
C1592 H1588 0.929 . S
C1592 C1594 1.378 . S
C1592 C1596 1.350 . S
C1593 C1596 1.463 . S
C1593 C1598 1.350 . S
C1593 N1601 1.427 . S
C1594 H1585 0.930 . S
C1594 C1592 1.378 . S
C1594 C1595 1.367 . S
C1595 C1594 1.367 . S
C1595 C1597 1.433 . S
C1596 C1592 1.350 . S
C1596 C1593 1.463 . S
C1596 N1600 1.427 . S
C1597 H1587 0.929 . S
C1597 C1595 1.433 . S
C1597 N1600 1.384 . S
C1598 H1589 0.929 . S
C1598 C1590 1.378 . S
C1598 C1593 1.350 . S
C1599 H1586 0.929 . S
C1599 C1591 1.433 . S
C1599 N1601 1.384 . S
N1600 C1596 1.427 . S
N1600 C1597 1.384 . S
N1601 C1593 1.427 . S
N1601 C1599 1.384 . S
H1602 C1608 0.930 . S
H1603 C1612 0.930 . S
H1604 C1617 0.929 . S
H1605 C1615 0.929 . S
H1606 C1610 0.929 . S
H1607 C1616 0.929 . S
C1608 H1602 0.930 . S
C1608 C1609 1.367 . S
C1608 C1616 1.378 . S
C1609 C1608 1.367 . S
C1609 C1617 1.433 . S
C1610 H1606 0.929 . S
C1610 C1612 1.378 . S
C1610 C1614 1.350 . S
C1611 C1614 1.463 . S
C1611 C1616 1.350 . S
C1611 N1619 1.427 . S
C1612 H1603 0.930 . S
C1612 C1610 1.378 . S
C1612 C1613 1.367 . S
C1613 C1612 1.367 . S
C1613 C1615 1.433 . S
C1614 C1610 1.350 . S
C1614 C1611 1.463 . S
C1614 N1618 1.427 . S
C1615 H1605 0.929 . S
C1615 C1613 1.433 . S
C1615 N1618 1.384 . S
C1616 H1607 0.929 . S
C1616 C1608 1.378 . S
C1616 C1611 1.350 . S
C1617 H1604 0.929 . S
C1617 C1609 1.433 . S
C1617 N1619 1.384 . S
N1618 C1614 1.427 . S
N1618 C1615 1.384 . S
N1619 C1611 1.427 . S
N1619 C1617 1.384 . S
H1620 C1626 0.930 . S
H1621 C1630 0.930 . S
H1622 C1635 0.929 . S
H1623 C1633 0.929 . S
H1624 C1628 0.929 . S
H1625 C1634 0.929 . S
C1626 H1620 0.930 . S
C1626 C1627 1.367 . S
C1626 C1634 1.378 . S
C1627 C1626 1.367 . S
C1627 C1635 1.433 . S
C1628 H1624 0.929 . S
C1628 C1630 1.378 . S
C1628 C1632 1.350 . S
C1629 C1632 1.463 . S
C1629 C1634 1.350 . S
C1629 N1637 1.427 . S
C1630 H1621 0.930 . S
C1630 C1628 1.378 . S
C1630 C1631 1.367 . S
C1631 C1630 1.367 . S
C1631 C1633 1.433 . S
C1632 C1628 1.350 . S
C1632 C1629 1.463 . S
C1632 N1636 1.427 . S
C1633 H1623 0.929 . S
C1633 C1631 1.433 . S
C1633 N1636 1.384 . S
C1634 H1625 0.929 . S
C1634 C1626 1.378 . S
C1634 C1629 1.350 . S
C1635 H1622 0.929 . S
C1635 C1627 1.433 . S
C1635 N1637 1.384 . S
N1636 C1632 1.427 . S
N1636 C1633 1.384 . S
N1637 C1629 1.427 . S
N1637 C1635 1.384 . S
H1638 C1644 0.930 . S
H1639 C1648 0.930 . S
H1640 C1653 0.929 . S
H1641 C1651 0.929 . S
H1642 C1646 0.929 . S
H1643 C1652 0.929 . S
C1644 H1638 0.930 . S
C1644 C1645 1.367 . S
C1644 C1652 1.378 . S
C1645 C1644 1.367 . S
C1645 C1653 1.433 . S
C1646 H1642 0.929 . S
C1646 C1648 1.378 . S
C1646 C1650 1.350 . S
C1647 C1650 1.463 . S
C1647 C1652 1.350 . S
C1647 N1655 1.427 . S
C1648 H1639 0.930 . S
C1648 C1646 1.378 . S
C1648 C1649 1.367 . S
C1649 C1648 1.367 . S
C1649 C1651 1.433 . S
C1650 C1646 1.350 . S
C1650 C1647 1.463 . S
C1650 N1654 1.427 . S
C1651 H1641 0.929 . S
C1651 C1649 1.433 . S
C1651 N1654 1.384 . S
C1652 H1643 0.929 . S
C1652 C1644 1.378 . S
C1652 C1647 1.350 . S
C1653 H1640 0.929 . S
C1653 C1645 1.433 . S
C1653 N1655 1.384 . S
N1654 C1650 1.427 . S
N1654 C1651 1.384 . S
N1655 C1647 1.427 . S
N1655 C1653 1.384 . S
H1656 C1662 0.930 . S
H1657 C1666 0.930 . S
H1658 C1671 0.929 . S
H1659 C1669 0.929 . S
H1660 C1664 0.929 . S
H1661 C1670 0.929 . S
C1662 H1656 0.930 . S
C1662 C1663 1.367 . S
C1662 C1670 1.378 . S
C1663 C1662 1.367 . S
C1663 C1671 1.433 . S
C1664 H1660 0.929 . S
C1664 C1666 1.378 . S
C1664 C1668 1.350 . S
C1665 C1668 1.463 . S
C1665 C1670 1.350 . S
C1665 N1673 1.427 . S
C1666 H1657 0.930 . S
C1666 C1664 1.378 . S
C1666 C1667 1.367 . S
C1667 C1666 1.367 . S
C1667 C1669 1.433 . S
C1668 C1664 1.350 . S
C1668 C1665 1.463 . S
C1668 N1672 1.427 . S
C1669 H1659 0.929 . S
C1669 C1667 1.433 . S
C1669 N1672 1.384 . S
C1670 H1661 0.929 . S
C1670 C1662 1.378 . S
C1670 C1665 1.350 . S
C1671 H1658 0.929 . S
C1671 C1663 1.433 . S
C1671 N1673 1.384 . S
N1672 C1668 1.427 . S
N1672 C1669 1.384 . S
N1673 C1665 1.427 . S
N1673 C1671 1.384 . S
H1674 C1680 0.930 . S
H1675 C1684 0.930 . S
H1676 C1689 0.929 . S
H1677 C1687 0.929 . S
H1678 C1682 0.929 . S
H1679 C1688 0.929 . S
C1680 H1674 0.930 . S
C1680 C1681 1.367 . S
C1680 C1688 1.378 . S
C1681 C1680 1.367 . S
C1681 C1689 1.433 . S
C1682 H1678 0.929 . S
C1682 C1684 1.378 . S
C1682 C1686 1.350 . S
C1683 C1686 1.463 . S
C1683 C1688 1.350 . S
C1683 N1691 1.427 . S
C1684 H1675 0.930 . S
C1684 C1682 1.378 . S
C1684 C1685 1.367 . S
C1685 C1684 1.367 . S
C1685 C1687 1.433 . S
C1686 C1682 1.350 . S
C1686 C1683 1.463 . S
C1686 N1690 1.427 . S
C1687 H1677 0.929 . S
C1687 C1685 1.433 . S
C1687 N1690 1.384 . S
C1688 H1679 0.929 . S
C1688 C1680 1.378 . S
C1688 C1683 1.350 . S
C1689 H1676 0.929 . S
C1689 C1681 1.433 . S
C1689 N1691 1.384 . S
N1690 C1686 1.427 . S
N1690 C1687 1.384 . S
N1691 C1683 1.427 . S
N1691 C1689 1.384 . S
H1692 C1698 0.930 . S
H1693 C1702 0.930 . S
H1694 C1707 0.929 . S
H1695 C1705 0.929 . S
H1696 C1700 0.929 . S
H1697 C1706 0.929 . S
C1698 H1692 0.930 . S
C1698 C1699 1.367 . S
C1698 C1706 1.378 . S
C1699 C1698 1.367 . S
C1699 C1707 1.433 . S
C1700 H1696 0.929 . S
C1700 C1702 1.378 . S
C1700 C1704 1.350 . S
C1701 C1704 1.463 . S
C1701 C1706 1.350 . S
C1701 N1709 1.427 . S
C1702 H1693 0.930 . S
C1702 C1700 1.378 . S
C1702 C1703 1.367 . S
C1703 C1702 1.367 . S
C1703 C1705 1.433 . S
C1704 C1700 1.350 . S
C1704 C1701 1.463 . S
C1704 N1708 1.427 . S
C1705 H1695 0.929 . S
C1705 C1703 1.433 . S
C1705 N1708 1.384 . S
C1706 H1697 0.929 . S
C1706 C1698 1.378 . S
C1706 C1701 1.350 . S
C1707 H1694 0.929 . S
C1707 C1699 1.433 . S
C1707 N1709 1.384 . S
N1708 C1704 1.427 . S
N1708 C1705 1.384 . S
N1709 C1701 1.427 . S
N1709 C1707 1.384 . S
H1710 C1716 0.930 . S
H1711 C1720 0.930 . S
H1712 C1725 0.929 . S
H1713 C1723 0.929 . S
H1714 C1718 0.929 . S
H1715 C1724 0.929 . S
C1716 H1710 0.930 . S
C1716 C1717 1.367 . S
C1716 C1724 1.378 . S
C1717 C1716 1.367 . S
C1717 C1725 1.433 . S
C1718 H1714 0.929 . S
C1718 C1720 1.378 . S
C1718 C1722 1.350 . S
C1719 C1722 1.463 . S
C1719 C1724 1.350 . S
C1719 N1727 1.427 . S
C1720 H1711 0.930 . S
C1720 C1718 1.378 . S
C1720 C1721 1.367 . S
C1721 C1720 1.367 . S
C1721 C1723 1.433 . S
C1722 C1718 1.350 . S
C1722 C1719 1.463 . S
C1722 N1726 1.427 . S
C1723 H1713 0.929 . S
C1723 C1721 1.433 . S
C1723 N1726 1.384 . S
C1724 H1715 0.929 . S
C1724 C1716 1.378 . S
C1724 C1719 1.350 . S
C1725 H1712 0.929 . S
C1725 C1717 1.433 . S
C1725 N1727 1.384 . S
N1726 C1722 1.427 . S
N1726 C1723 1.384 . S
N1727 C1719 1.427 . S
N1727 C1725 1.384 . S
H1728 C1734 0.930 . S
H1729 C1738 0.930 . S
H1730 C1743 0.929 . S
H1731 C1741 0.929 . S
H1732 C1736 0.929 . S
H1733 C1742 0.929 . S
C1734 H1728 0.930 . S
C1734 C1735 1.367 . S
C1734 C1742 1.378 . S
C1735 C1734 1.367 . S
C1735 C1743 1.433 . S
C1736 H1732 0.929 . S
C1736 C1738 1.378 . S
C1736 C1740 1.350 . S
C1737 C1740 1.463 . S
C1737 C1742 1.350 . S
C1737 N1745 1.427 . S
C1738 H1729 0.930 . S
C1738 C1736 1.378 . S
C1738 C1739 1.367 . S
C1739 C1738 1.367 . S
C1739 C1741 1.433 . S
C1740 C1736 1.350 . S
C1740 C1737 1.463 . S
C1740 N1744 1.427 . S
C1741 H1731 0.929 . S
C1741 C1739 1.433 . S
C1741 N1744 1.384 . S
C1742 H1733 0.929 . S
C1742 C1734 1.378 . S
C1742 C1737 1.350 . S
C1743 H1730 0.929 . S
C1743 C1735 1.433 . S
C1743 N1745 1.384 . S
N1744 C1740 1.427 . S
N1744 C1741 1.384 . S
N1745 C1737 1.427 . S
N1745 C1743 1.384 . S
H1746 C1752 0.930 . S
H1747 C1756 0.930 . S
H1748 C1761 0.929 . S
H1749 C1759 0.929 . S
H1750 C1754 0.929 . S
H1751 C1760 0.929 . S
C1752 H1746 0.930 . S
C1752 C1753 1.367 . S
C1752 C1760 1.378 . S
C1753 C1752 1.367 . S
C1753 C1761 1.433 . S
C1754 H1750 0.929 . S
C1754 C1756 1.378 . S
C1754 C1758 1.350 . S
C1755 C1758 1.463 . S
C1755 C1760 1.350 . S
C1755 N1763 1.427 . S
C1756 H1747 0.930 . S
C1756 C1754 1.378 . S
C1756 C1757 1.367 . S
C1757 C1756 1.367 . S
C1757 C1759 1.433 . S
C1758 C1754 1.350 . S
C1758 C1755 1.463 . S
C1758 N1762 1.427 . S
C1759 H1749 0.929 . S
C1759 C1757 1.433 . S
C1759 N1762 1.384 . S
C1760 H1751 0.929 . S
C1760 C1752 1.378 . S
C1760 C1755 1.350 . S
C1761 H1748 0.929 . S
C1761 C1753 1.433 . S
C1761 N1763 1.384 . S
N1762 C1758 1.427 . S
N1762 C1759 1.384 . S
N1763 C1755 1.427 . S
N1763 C1761 1.384 . S
H1764 C1770 0.930 . S
H1765 C1774 0.930 . S
H1766 C1779 0.929 . S
H1767 C1777 0.929 . S
H1768 C1772 0.929 . S
H1769 C1778 0.929 . S
C1770 H1764 0.930 . S
C1770 C1771 1.367 . S
C1770 C1778 1.378 . S
C1771 C1770 1.367 . S
C1771 C1779 1.433 . S
C1772 H1768 0.929 . S
C1772 C1774 1.378 . S
C1772 C1776 1.350 . S
C1773 C1776 1.463 . S
C1773 C1778 1.350 . S
C1773 N1781 1.427 . S
C1774 H1765 0.930 . S
C1774 C1772 1.378 . S
C1774 C1775 1.367 . S
C1775 C1774 1.367 . S
C1775 C1777 1.433 . S
C1776 C1772 1.350 . S
C1776 C1773 1.463 . S
C1776 N1780 1.427 . S
C1777 H1767 0.929 . S
C1777 C1775 1.433 . S
C1777 N1780 1.384 . S
C1778 H1769 0.929 . S
C1778 C1770 1.378 . S
C1778 C1773 1.350 . S
C1779 H1766 0.929 . S
C1779 C1771 1.433 . S
C1779 N1781 1.384 . S
N1780 C1776 1.427 . S
N1780 C1777 1.384 . S
N1781 C1773 1.427 . S
N1781 C1779 1.384 . S
H1782 C1788 0.930 . S
H1783 C1792 0.930 . S
H1784 C1797 0.929 . S
H1785 C1795 0.929 . S
H1786 C1790 0.929 . S
H1787 C1796 0.929 . S
C1788 H1782 0.930 . S
C1788 C1789 1.367 . S
C1788 C1796 1.378 . S
C1789 C1788 1.367 . S
C1789 C1797 1.433 . S
C1790 H1786 0.929 . S
C1790 C1792 1.378 . S
C1790 C1794 1.350 . S
C1791 C1794 1.463 . S
C1791 C1796 1.350 . S
C1791 N1799 1.427 . S
C1792 H1783 0.930 . S
C1792 C1790 1.378 . S
C1792 C1793 1.367 . S
C1793 C1792 1.367 . S
C1793 C1795 1.433 . S
C1794 C1790 1.350 . S
C1794 C1791 1.463 . S
C1794 N1798 1.427 . S
C1795 H1785 0.929 . S
C1795 C1793 1.433 . S
C1795 N1798 1.384 . S
C1796 H1787 0.929 . S
C1796 C1788 1.378 . S
C1796 C1791 1.350 . S
C1797 H1784 0.929 . S
C1797 C1789 1.433 . S
C1797 N1799 1.384 . S
N1798 C1794 1.427 . S
N1798 C1795 1.384 . S
N1799 C1791 1.427 . S
N1799 C1797 1.384 . S
H1800 C1806 0.930 . S
H1801 C1810 0.930 . S
H1802 C1815 0.929 . S
H1803 C1813 0.929 . S
H1804 C1808 0.929 . S
H1805 C1814 0.929 . S
C1806 H1800 0.930 . S
C1806 C1807 1.367 . S
C1806 C1814 1.378 . S
C1807 C1806 1.367 . S
C1807 C1815 1.433 . S
C1808 H1804 0.929 . S
C1808 C1810 1.378 . S
C1808 C1812 1.350 . S
C1809 C1812 1.463 . S
C1809 C1814 1.350 . S
C1809 N1817 1.427 . S
C1810 H1801 0.930 . S
C1810 C1808 1.378 . S
C1810 C1811 1.367 . S
C1811 C1810 1.367 . S
C1811 C1813 1.433 . S
C1812 C1808 1.350 . S
C1812 C1809 1.463 . S
C1812 N1816 1.427 . S
C1813 H1803 0.929 . S
C1813 C1811 1.433 . S
C1813 N1816 1.384 . S
C1814 H1805 0.929 . S
C1814 C1806 1.378 . S
C1814 C1809 1.350 . S
C1815 H1802 0.929 . S
C1815 C1807 1.433 . S
C1815 N1817 1.384 . S
N1816 C1812 1.427 . S
N1816 C1813 1.384 . S
N1817 C1809 1.427 . S
N1817 C1815 1.384 . S
H1818 C1824 0.930 . S
H1819 C1828 0.930 . S
H1820 C1833 0.929 . S
H1821 C1831 0.929 . S
H1822 C1826 0.929 . S
H1823 C1832 0.929 . S
C1824 H1818 0.930 . S
C1824 C1825 1.367 . S
C1824 C1832 1.378 . S
C1825 C1824 1.367 . S
C1825 C1833 1.433 . S
C1826 H1822 0.929 . S
C1826 C1828 1.378 . S
C1826 C1830 1.350 . S
C1827 C1830 1.463 . S
C1827 C1832 1.350 . S
C1827 N1835 1.427 . S
C1828 H1819 0.930 . S
C1828 C1826 1.378 . S
C1828 C1829 1.367 . S
C1829 C1828 1.367 . S
C1829 C1831 1.433 . S
C1830 C1826 1.350 . S
C1830 C1827 1.463 . S
C1830 N1834 1.427 . S
C1831 H1821 0.929 . S
C1831 C1829 1.433 . S
C1831 N1834 1.384 . S
C1832 H1823 0.929 . S
C1832 C1824 1.378 . S
C1832 C1827 1.350 . S
C1833 H1820 0.929 . S
C1833 C1825 1.433 . S
C1833 N1835 1.384 . S
N1834 C1830 1.427 . S
N1834 C1831 1.384 . S
N1835 C1827 1.427 . S
N1835 C1833 1.384 . S
H1836 C1842 0.930 . S
H1837 C1846 0.930 . S
H1838 C1851 0.929 . S
H1839 C1849 0.929 . S
H1840 C1844 0.929 . S
H1841 C1850 0.929 . S
C1842 H1836 0.930 . S
C1842 C1843 1.367 . S
C1842 C1850 1.378 . S
C1843 C1842 1.367 . S
C1843 C1851 1.433 . S
C1844 H1840 0.929 . S
C1844 C1846 1.378 . S
C1844 C1848 1.350 . S
C1845 C1848 1.463 . S
C1845 C1850 1.350 . S
C1845 N1853 1.427 . S
C1846 H1837 0.930 . S
C1846 C1844 1.378 . S
C1846 C1847 1.367 . S
C1847 C1846 1.367 . S
C1847 C1849 1.433 . S
C1848 C1844 1.350 . S
C1848 C1845 1.463 . S
C1848 N1852 1.427 . S
C1849 H1839 0.929 . S
C1849 C1847 1.433 . S
C1849 N1852 1.384 . S
C1850 H1841 0.929 . S
C1850 C1842 1.378 . S
C1850 C1845 1.350 . S
C1851 H1838 0.929 . S
C1851 C1843 1.433 . S
C1851 N1853 1.384 . S
N1852 C1848 1.427 . S
N1852 C1849 1.384 . S
N1853 C1845 1.427 . S
N1853 C1851 1.384 . S
H1854 C1860 0.930 . S
H1855 C1864 0.930 . S
H1856 C1869 0.929 . S
H1857 C1867 0.929 . S
H1858 C1862 0.929 . S
H1859 C1868 0.929 . S
C1860 H1854 0.930 . S
C1860 C1861 1.367 . S
C1860 C1868 1.378 . S
C1861 C1860 1.367 . S
C1861 C1869 1.433 . S
C1862 H1858 0.929 . S
C1862 C1864 1.378 . S
C1862 C1866 1.350 . S
C1863 C1866 1.463 . S
C1863 C1868 1.350 . S
C1863 N1871 1.427 . S
C1864 H1855 0.930 . S
C1864 C1862 1.378 . S
C1864 C1865 1.367 . S
C1865 C1864 1.367 . S
C1865 C1867 1.433 . S
C1866 C1862 1.350 . S
C1866 C1863 1.463 . S
C1866 N1870 1.427 . S
C1867 H1857 0.929 . S
C1867 C1865 1.433 . S
C1867 N1870 1.384 . S
C1868 H1859 0.929 . S
C1868 C1860 1.378 . S
C1868 C1863 1.350 . S
C1869 H1856 0.929 . S
C1869 C1861 1.433 . S
C1869 N1871 1.384 . S
N1870 C1866 1.427 . S
N1870 C1867 1.384 . S
N1871 C1863 1.427 . S
N1871 C1869 1.384 . S
H1872 C1878 0.930 . S
H1873 C1882 0.930 . S
H1874 C1887 0.929 . S
H1875 C1885 0.929 . S
H1876 C1880 0.929 . S
H1877 C1886 0.929 . S
C1878 H1872 0.930 . S
C1878 C1879 1.367 . S
C1878 C1886 1.378 . S
C1879 C1878 1.367 . S
C1879 C1887 1.433 . S
C1880 H1876 0.929 . S
C1880 C1882 1.378 . S
C1880 C1884 1.350 . S
C1881 C1884 1.463 . S
C1881 C1886 1.350 . S
C1881 N1889 1.427 . S
C1882 H1873 0.930 . S
C1882 C1880 1.378 . S
C1882 C1883 1.367 . S
C1883 C1882 1.367 . S
C1883 C1885 1.433 . S
C1884 C1880 1.350 . S
C1884 C1881 1.463 . S
C1884 N1888 1.427 . S
C1885 H1875 0.929 . S
C1885 C1883 1.433 . S
C1885 N1888 1.384 . S
C1886 H1877 0.929 . S
C1886 C1878 1.378 . S
C1886 C1881 1.350 . S
C1887 H1874 0.929 . S
C1887 C1879 1.433 . S
C1887 N1889 1.384 . S
N1888 C1884 1.427 . S
N1888 C1885 1.384 . S
N1889 C1881 1.427 . S
N1889 C1887 1.384 . S
H1890 C1896 0.930 . S
H1891 C1900 0.930 . S
H1892 C1905 0.929 . S
H1893 C1903 0.929 . S
H1894 C1898 0.929 . S
H1895 C1904 0.929 . S
C1896 H1890 0.930 . S
C1896 C1897 1.367 . S
C1896 C1904 1.378 . S
C1897 C1896 1.367 . S
C1897 C1905 1.433 . S
C1898 H1894 0.929 . S
C1898 C1900 1.378 . S
C1898 C1902 1.350 . S
C1899 C1902 1.463 . S
C1899 C1904 1.350 . S
C1899 N1907 1.427 . S
C1900 H1891 0.930 . S
C1900 C1898 1.378 . S
C1900 C1901 1.367 . S
C1901 C1900 1.367 . S
C1901 C1903 1.433 . S
C1902 C1898 1.350 . S
C1902 C1899 1.463 . S
C1902 N1906 1.427 . S
C1903 H1893 0.929 . S
C1903 C1901 1.433 . S
C1903 N1906 1.384 . S
C1904 H1895 0.929 . S
C1904 C1896 1.378 . S
C1904 C1899 1.350 . S
C1905 H1892 0.929 . S
C1905 C1897 1.433 . S
C1905 N1907 1.384 . S
N1906 C1902 1.427 . S
N1906 C1903 1.384 . S
N1907 C1899 1.427 . S
N1907 C1905 1.384 . S
H1908 C1914 0.930 . S
H1909 C1918 0.930 . S
H1910 C1923 0.929 . S
H1911 C1921 0.929 . S
H1912 C1916 0.929 . S
H1913 C1922 0.929 . S
C1914 H1908 0.930 . S
C1914 C1915 1.367 . S
C1914 C1922 1.378 . S
C1915 C1914 1.367 . S
C1915 C1923 1.433 . S
C1916 H1912 0.929 . S
C1916 C1918 1.378 . S
C1916 C1920 1.350 . S
C1917 C1920 1.463 . S
C1917 C1922 1.350 . S
C1917 N1925 1.427 . S
C1918 H1909 0.930 . S
C1918 C1916 1.378 . S
C1918 C1919 1.367 . S
C1919 C1918 1.367 . S
C1919 C1921 1.433 . S
C1920 C1916 1.350 . S
C1920 C1917 1.463 . S
C1920 N1924 1.427 . S
C1921 H1911 0.929 . S
C1921 C1919 1.433 . S
C1921 N1924 1.384 . S
C1922 H1913 0.929 . S
C1922 C1914 1.378 . S
C1922 C1917 1.350 . S
C1923 H1910 0.929 . S
C1923 C1915 1.433 . S
C1923 N1925 1.384 . S
N1924 C1920 1.427 . S
N1924 C1921 1.384 . S
N1925 C1917 1.427 . S
N1925 C1923 1.384 . S
H1926 C1932 0.930 . S
H1927 C1936 0.930 . S
H1928 C1941 0.929 . S
H1929 C1939 0.929 . S
H1930 C1934 0.929 . S
H1931 C1940 0.929 . S
C1932 H1926 0.930 . S
C1932 C1933 1.367 . S
C1932 C1940 1.378 . S
C1933 C1932 1.367 . S
C1933 C1941 1.433 . S
C1934 H1930 0.929 . S
C1934 C1936 1.378 . S
C1934 C1938 1.350 . S
C1935 C1938 1.463 . S
C1935 C1940 1.350 . S
C1935 N1943 1.427 . S
C1936 H1927 0.930 . S
C1936 C1934 1.378 . S
C1936 C1937 1.367 . S
C1937 C1936 1.367 . S
C1937 C1939 1.433 . S
C1938 C1934 1.350 . S
C1938 C1935 1.463 . S
C1938 N1942 1.427 . S
C1939 H1929 0.929 . S
C1939 C1937 1.433 . S
C1939 N1942 1.384 . S
C1940 H1931 0.929 . S
C1940 C1932 1.378 . S
C1940 C1935 1.350 . S
C1941 H1928 0.929 . S
C1941 C1933 1.433 . S
C1941 N1943 1.384 . S
N1942 C1938 1.427 . S
N1942 C1939 1.384 . S
N1943 C1935 1.427 . S
N1943 C1941 1.384 . S
H1944 C1950 0.930 . S
H1945 C1954 0.930 . S
H1946 C1959 0.929 . S
H1947 C1957 0.929 . S
H1948 C1952 0.929 . S
H1949 C1958 0.929 . S
C1950 H1944 0.930 . S
C1950 C1951 1.367 . S
C1950 C1958 1.378 . S
C1951 C1950 1.367 . S
C1951 C1959 1.433 . S
C1952 H1948 0.929 . S
C1952 C1954 1.378 . S
C1952 C1956 1.350 . S
C1953 C1956 1.463 . S
C1953 C1958 1.350 . S
C1953 N1961 1.427 . S
C1954 H1945 0.930 . S
C1954 C1952 1.378 . S
C1954 C1955 1.367 . S
C1955 C1954 1.367 . S
C1955 C1957 1.433 . S
C1956 C1952 1.350 . S
C1956 C1953 1.463 . S
C1956 N1960 1.427 . S
C1957 H1947 0.929 . S
C1957 C1955 1.433 . S
C1957 N1960 1.384 . S
C1958 H1949 0.929 . S
C1958 C1950 1.378 . S
C1958 C1953 1.350 . S
C1959 H1946 0.929 . S
C1959 C1951 1.433 . S
C1959 N1961 1.384 . S
N1960 C1956 1.427 . S
N1960 C1957 1.384 . S
N1961 C1953 1.427 . S
N1961 C1959 1.384 . S
H1962 C1968 0.930 . S
H1963 C1972 0.930 . S
H1964 C1977 0.929 . S
H1965 C1975 0.929 . S
H1966 C1970 0.929 . S
H1967 C1976 0.929 . S
C1968 H1962 0.930 . S
C1968 C1969 1.367 . S
C1968 C1976 1.378 . S
C1969 C1968 1.367 . S
C1969 C1977 1.433 . S
C1970 H1966 0.929 . S
C1970 C1972 1.378 . S
C1970 C1974 1.350 . S
C1971 C1974 1.463 . S
C1971 C1976 1.350 . S
C1971 N1979 1.427 . S
C1972 H1963 0.930 . S
C1972 C1970 1.378 . S
C1972 C1973 1.367 . S
C1973 C1972 1.367 . S
C1973 C1975 1.433 . S
C1974 C1970 1.350 . S
C1974 C1971 1.463 . S
C1974 N1978 1.427 . S
C1975 H1965 0.929 . S
C1975 C1973 1.433 . S
C1975 N1978 1.384 . S
C1976 H1967 0.929 . S
C1976 C1968 1.378 . S
C1976 C1971 1.350 . S
C1977 H1964 0.929 . S
C1977 C1969 1.433 . S
C1977 N1979 1.384 . S
N1978 C1974 1.427 . S
N1978 C1975 1.384 . S
N1979 C1971 1.427 . S
N1979 C1977 1.384 . S
H1980 C1986 0.930 . S
H1981 C1990 0.930 . S
H1982 C1995 0.929 . S
H1983 C1993 0.929 . S
H1984 C1988 0.929 . S
H1985 C1994 0.929 . S
C1986 H1980 0.930 . S
C1986 C1987 1.367 . S
C1986 C1994 1.378 . S
C1987 C1986 1.367 . S
C1987 C1995 1.433 . S
C1988 H1984 0.929 . S
C1988 C1990 1.378 . S
C1988 C1992 1.350 . S
C1989 C1992 1.463 . S
C1989 C1994 1.350 . S
C1989 N1997 1.427 . S
C1990 H1981 0.930 . S
C1990 C1988 1.378 . S
C1990 C1991 1.367 . S
C1991 C1990 1.367 . S
C1991 C1993 1.433 . S
C1992 C1988 1.350 . S
C1992 C1989 1.463 . S
C1992 N1996 1.427 . S
C1993 H1983 0.929 . S
C1993 C1991 1.433 . S
C1993 N1996 1.384 . S
C1994 H1985 0.929 . S
C1994 C1986 1.378 . S
C1994 C1989 1.350 . S
C1995 H1982 0.929 . S
C1995 C1987 1.433 . S
C1995 N1997 1.384 . S
N1996 C1992 1.427 . S
N1996 C1993 1.384 . S
N1997 C1989 1.427 . S
N1997 C1995 1.384 . S
H1998 C2004 0.930 . S
H1999 C2008 0.930 . S
H2000 C2013 0.929 . S
H2001 C2011 0.929 . S
H2002 C2006 0.929 . S
H2003 C2012 0.929 . S
C2004 H1998 0.930 . S
C2004 C2005 1.367 . S
C2004 C2012 1.378 . S
C2005 C2004 1.367 . S
C2005 C2013 1.433 . S
C2006 H2002 0.929 . S
C2006 C2008 1.378 . S
C2006 C2010 1.350 . S
C2007 C2010 1.463 . S
C2007 C2012 1.350 . S
C2007 N2015 1.427 . S
C2008 H1999 0.930 . S
C2008 C2006 1.378 . S
C2008 C2009 1.367 . S
C2009 C2008 1.367 . S
C2009 C2011 1.433 . S
C2010 C2006 1.350 . S
C2010 C2007 1.463 . S
C2010 N2014 1.427 . S
C2011 H2001 0.929 . S
C2011 C2009 1.433 . S
C2011 N2014 1.384 . S
C2012 H2003 0.929 . S
C2012 C2004 1.378 . S
C2012 C2007 1.350 . S
C2013 H2000 0.929 . S
C2013 C2005 1.433 . S
C2013 N2015 1.384 . S
N2014 C2010 1.427 . S
N2014 C2011 1.384 . S
N2015 C2007 1.427 . S
N2015 C2013 1.384 . S
H2016 C2022 0.930 . S
H2017 C2026 0.930 . S
H2018 C2031 0.929 . S
H2019 C2029 0.929 . S
H2020 C2024 0.929 . S
H2021 C2030 0.929 . S
C2022 H2016 0.930 . S
C2022 C2023 1.367 . S
C2022 C2030 1.378 . S
C2023 C2022 1.367 . S
C2023 C2031 1.433 . S
C2024 H2020 0.929 . S
C2024 C2026 1.378 . S
C2024 C2028 1.350 . S
C2025 C2028 1.463 . S
C2025 C2030 1.350 . S
C2025 N2033 1.427 . S
C2026 H2017 0.930 . S
C2026 C2024 1.378 . S
C2026 C2027 1.367 . S
C2027 C2026 1.367 . S
C2027 C2029 1.433 . S
C2028 C2024 1.350 . S
C2028 C2025 1.463 . S
C2028 N2032 1.427 . S
C2029 H2019 0.929 . S
C2029 C2027 1.433 . S
C2029 N2032 1.384 . S
C2030 H2021 0.929 . S
C2030 C2022 1.378 . S
C2030 C2025 1.350 . S
C2031 H2018 0.929 . S
C2031 C2023 1.433 . S
C2031 N2033 1.384 . S
N2032 C2028 1.427 . S
N2032 C2029 1.384 . S
N2033 C2025 1.427 . S
N2033 C2031 1.384 . S
H2034 C2040 0.930 . S
H2035 C2044 0.930 . S
H2036 C2049 0.929 . S
H2037 C2047 0.929 . S
H2038 C2042 0.929 . S
H2039 C2048 0.929 . S
C2040 H2034 0.930 . S
C2040 C2041 1.367 . S
C2040 C2048 1.378 . S
C2041 C2040 1.367 . S
C2041 C2049 1.433 . S
C2042 H2038 0.929 . S
C2042 C2044 1.378 . S
C2042 C2046 1.350 . S
C2043 C2046 1.463 . S
C2043 C2048 1.350 . S
C2043 N2051 1.427 . S
C2044 H2035 0.930 . S
C2044 C2042 1.378 . S
C2044 C2045 1.367 . S
C2045 C2044 1.367 . S
C2045 C2047 1.433 . S
C2046 C2042 1.350 . S
C2046 C2043 1.463 . S
C2046 N2050 1.427 . S
C2047 H2037 0.929 . S
C2047 C2045 1.433 . S
C2047 N2050 1.384 . S
C2048 H2039 0.929 . S
C2048 C2040 1.378 . S
C2048 C2043 1.350 . S
C2049 H2036 0.929 . S
C2049 C2041 1.433 . S
C2049 N2051 1.384 . S
N2050 C2046 1.427 . S
N2050 C2047 1.384 . S
N2051 C2043 1.427 . S
N2051 C2049 1.384 . S
H2052 C2058 0.930 . S
H2053 C2062 0.930 . S
H2054 C2067 0.929 . S
H2055 C2065 0.929 . S
H2056 C2060 0.929 . S
H2057 C2066 0.929 . S
C2058 H2052 0.930 . S
C2058 C2059 1.367 . S
C2058 C2066 1.378 . S
C2059 C2058 1.367 . S
C2059 C2067 1.433 . S
C2060 H2056 0.929 . S
C2060 C2062 1.378 . S
C2060 C2064 1.350 . S
C2061 C2064 1.463 . S
C2061 C2066 1.350 . S
C2061 N2069 1.427 . S
C2062 H2053 0.930 . S
C2062 C2060 1.378 . S
C2062 C2063 1.367 . S
C2063 C2062 1.367 . S
C2063 C2065 1.433 . S
C2064 C2060 1.350 . S
C2064 C2061 1.463 . S
C2064 N2068 1.427 . S
C2065 H2055 0.929 . S
C2065 C2063 1.433 . S
C2065 N2068 1.384 . S
C2066 H2057 0.929 . S
C2066 C2058 1.378 . S
C2066 C2061 1.350 . S
C2067 H2054 0.929 . S
C2067 C2059 1.433 . S
C2067 N2069 1.384 . S
N2068 C2064 1.427 . S
N2068 C2065 1.384 . S
N2069 C2061 1.427 . S
N2069 C2067 1.384 . S
H2070 C2076 0.896 1_554 S
H2071 C2080 0.930 . S
H2072 C2085 0.929 . S
H2073 C2083 0.929 . S
H2074 C2078 0.929 . S
H2075 C2084 0.929 . S
C2076 H2070 0.896 1_556 S
C2076 C2077 1.385 . S
C2076 C2084 1.395 . S
C2077 C2076 1.385 . S
C2077 C2085 1.433 . S
C2078 H2074 0.929 . S
C2078 C2080 1.378 . S
C2078 C2082 1.350 . S
C2079 C2082 1.463 . S
C2079 C2084 1.350 . S
C2079 N2087 1.427 . S
C2080 H2071 0.930 . S
C2080 C2078 1.378 . S
C2080 C2081 1.367 . S
C2081 C2080 1.367 . S
C2081 C2083 1.433 . S
C2082 C2078 1.350 . S
C2082 C2079 1.463 . S
C2082 N2086 1.427 . S
C2083 H2073 0.929 . S
C2083 C2081 1.433 . S
C2083 N2086 1.384 . S
C2084 H2075 0.929 . S
C2084 C2076 1.395 . S
C2084 C2079 1.350 . S
C2085 H2072 0.929 . S
C2085 C2077 1.433 . S
C2085 N2087 1.384 . S
N2086 C2082 1.427 . S
N2086 C2083 1.384 . S
N2087 C2079 1.427 . S
N2087 C2085 1.384 . S
H2088 C2094 0.930 . S
H2089 C2098 0.930 . S
H2090 C2103 0.947 . S
H2091 C2101 0.929 . S
H2092 C2096 0.929 . S
H2093 C2102 0.929 . S
C2094 H2088 0.930 . S
C2094 C2095 1.367 . S
C2094 C2102 1.378 . S
C2095 C2094 1.367 . S
C2095 C2103 1.423 1_556 S
C2096 H2092 0.929 . S
C2096 C2098 1.378 . S
C2096 C2100 1.350 . S
C2097 C2100 1.463 . S
C2097 C2102 1.350 . S
C2097 N2105 1.427 . S
C2098 H2089 0.930 . S
C2098 C2096 1.378 . S
C2098 C2099 1.367 . S
C2099 C2098 1.367 . S
C2099 C2101 1.433 . S
C2100 C2096 1.350 . S
C2100 C2097 1.463 . S
C2100 N2104 1.427 . S
C2101 H2091 0.929 . S
C2101 C2099 1.433 . S
C2101 N2104 1.384 . S
C2102 H2093 0.929 . S
C2102 C2094 1.378 . S
C2102 C2097 1.350 . S
C2103 H2090 0.947 . S
C2103 C2095 1.423 1_554 S
C2103 N2105 1.376 1_554 S
N2104 C2100 1.427 . S
N2104 C2101 1.384 . S
N2105 C2097 1.427 . S
N2105 C2103 1.376 1_556 S
H2106 C2112 0.930 . S
H2107 C2116 0.930 . S
H2108 C2121 0.929 . S
H2109 C2119 0.929 . S
H2110 C2114 0.929 . S
H2111 C2120 0.929 . S
C2112 H2106 0.930 . S
C2112 C2113 1.367 . S
C2112 C2120 1.378 . S
C2113 C2112 1.367 . S
C2113 C2121 1.433 . S
C2114 H2110 0.929 . S
C2114 C2116 1.378 . S
C2114 C2118 1.350 . S
C2115 C2118 1.463 . S
C2115 C2120 1.350 . S
C2115 N2123 1.427 . S
C2116 H2107 0.930 . S
C2116 C2114 1.378 . S
C2116 C2117 1.367 . S
C2117 C2116 1.367 . S
C2117 C2119 1.433 . S
C2118 C2114 1.350 . S
C2118 C2115 1.463 . S
C2118 N2122 1.427 . S
C2119 H2109 0.929 . S
C2119 C2117 1.433 . S
C2119 N2122 1.384 . S
C2120 H2111 0.929 . S
C2120 C2112 1.378 . S
C2120 C2115 1.350 . S
C2121 H2108 0.929 . S
C2121 C2113 1.433 . S
C2121 N2123 1.384 . S
N2122 C2118 1.427 . S
N2122 C2119 1.384 . S
N2123 C2115 1.427 . S
N2123 C2121 1.384 . S
H2124 C2130 0.930 . S
H2125 C2134 0.930 . S
H2126 C2139 0.929 1_554 S
H2127 C2137 0.929 . S
H2128 C2132 0.929 . S
H2129 C2138 0.929 . S
C2130 H2124 0.930 . S
C2130 C2131 1.367 . S
C2130 C2138 1.378 . S
C2131 C2130 1.367 . S
C2131 C2139 1.433 . S
C2132 H2128 0.929 . S
C2132 C2134 1.378 . S
C2132 C2136 1.350 . S
C2133 C2136 1.463 . S
C2133 C2138 1.350 . S
C2133 N2141 1.427 . S
C2134 H2125 0.930 . S
C2134 C2132 1.378 . S
C2134 C2135 1.367 . S
C2135 C2134 1.367 . S
C2135 C2137 1.433 . S
C2136 C2132 1.350 . S
C2136 C2133 1.463 . S
C2136 N2140 1.427 . S
C2137 H2127 0.929 . S
C2137 C2135 1.433 . S
C2137 N2140 1.384 . S
C2138 H2129 0.929 . S
C2138 C2130 1.378 . S
C2138 C2133 1.350 . S
C2139 H2126 0.929 1_556 S
C2139 C2131 1.433 . S
C2139 N2141 1.384 . S
N2140 C2136 1.427 . S
N2140 C2137 1.384 . S
N2141 C2133 1.427 . S
N2141 C2139 1.384 . S
H2142 C2148 0.930 . S
H2143 C2152 0.930 . S
H2144 C2157 0.929 1_554 S
H2145 C2155 0.929 . S
H2146 C2150 0.929 . S
H2147 C2156 0.929 . S
C2148 H2142 0.930 . S
C2148 C2149 1.367 . S
C2148 C2156 1.378 . S
C2149 C2148 1.367 . S
C2149 C2157 1.433 . S
C2150 H2146 0.929 . S
C2150 C2152 1.378 . S
C2150 C2154 1.350 . S
C2151 C2154 1.463 . S
C2151 C2156 1.350 . S
C2151 N2159 1.427 . S
C2152 H2143 0.930 . S
C2152 C2150 1.378 . S
C2152 C2153 1.367 . S
C2153 C2152 1.367 . S
C2153 C2155 1.433 . S
C2154 C2150 1.350 . S
C2154 C2151 1.463 . S
C2154 N2158 1.427 . S
C2155 H2145 0.929 . S
C2155 C2153 1.433 . S
C2155 N2158 1.384 . S
C2156 H2147 0.929 . S
C2156 C2148 1.378 . S
C2156 C2151 1.350 . S
C2157 H2144 0.929 1_556 S
C2157 C2149 1.433 . S
C2157 N2159 1.384 . S
N2158 C2154 1.427 . S
N2158 C2155 1.384 . S
N2159 C2151 1.427 . S
N2159 C2157 1.384 . S
H2160 C2166 0.930 . S
H2161 C2170 0.930 . S
H2162 C2175 0.929 1_554 S
H2163 C2173 0.929 . S
H2164 C2168 0.929 . S
H2165 C2174 0.929 . S
C2166 H2160 0.930 . S
C2166 C2167 1.367 . S
C2166 C2174 1.378 . S
C2167 C2166 1.367 . S
C2167 C2175 1.433 . S
C2168 H2164 0.929 . S
C2168 C2170 1.378 . S
C2168 C2172 1.350 . S
C2169 C2172 1.463 . S
C2169 C2174 1.350 . S
C2169 N2177 1.427 . S
C2170 H2161 0.930 . S
C2170 C2168 1.378 . S
C2170 C2171 1.367 . S
C2171 C2170 1.367 . S
C2171 C2173 1.433 . S
C2172 C2168 1.350 . S
C2172 C2169 1.463 . S
C2172 N2176 1.427 . S
C2173 H2163 0.929 . S
C2173 C2171 1.433 . S
C2173 N2176 1.384 . S
C2174 H2165 0.929 . S
C2174 C2166 1.378 . S
C2174 C2169 1.350 . S
C2175 H2162 0.929 1_556 S
C2175 C2167 1.433 . S
C2175 N2177 1.384 . S
N2176 C2172 1.427 . S
N2176 C2173 1.384 . S
N2177 C2169 1.427 . S
N2177 C2175 1.384 . S
H2178 C2184 0.930 . S
H2179 C2188 0.930 . S
H2180 C2193 0.929 . S
H2181 C2191 0.929 . S
H2182 C2186 0.929 . S
H2183 C2192 0.929 . S
C2184 H2178 0.930 . S
C2184 C2185 1.367 . S
C2184 C2192 1.378 . S
C2185 C2184 1.367 . S
C2185 C2193 1.433 . S
C2186 H2182 0.929 . S
C2186 C2188 1.378 . S
C2186 C2190 1.350 . S
C2187 C2190 1.463 . S
C2187 C2192 1.350 . S
C2187 N2195 1.427 . S
C2188 H2179 0.930 . S
C2188 C2186 1.378 . S
C2188 C2189 1.367 . S
C2189 C2188 1.367 . S
C2189 C2191 1.433 . S
C2190 C2186 1.350 . S
C2190 C2187 1.463 . S
C2190 N2194 1.427 . S
C2191 H2181 0.929 . S
C2191 C2189 1.433 . S
C2191 N2194 1.384 . S
C2192 H2183 0.929 . S
C2192 C2184 1.378 . S
C2192 C2187 1.350 . S
C2193 H2180 0.929 . S
C2193 C2185 1.433 . S
C2193 N2195 1.384 . S
N2194 C2190 1.427 . S
N2194 C2191 1.384 . S
N2195 C2187 1.427 . S
N2195 C2193 1.384 . S
H2196 C2202 0.930 . S
H2197 C2206 0.930 . S
H2198 C2211 0.929 . S
H2199 C2209 0.929 . S
H2200 C2204 0.929 . S
H2201 C2210 0.929 . S
C2202 H2196 0.930 . S
C2202 C2203 1.367 . S
C2202 C2210 1.378 . S
C2203 C2202 1.367 . S
C2203 C2211 1.433 . S
C2204 H2200 0.929 . S
C2204 C2206 1.378 . S
C2204 C2208 1.350 . S
C2205 C2208 1.463 . S
C2205 C2210 1.350 . S
C2205 N2213 1.427 . S
C2206 H2197 0.930 . S
C2206 C2204 1.378 . S
C2206 C2207 1.367 . S
C2207 C2206 1.367 . S
C2207 C2209 1.433 . S
C2208 C2204 1.350 . S
C2208 C2205 1.463 . S
C2208 N2212 1.427 . S
C2209 H2199 0.929 . S
C2209 C2207 1.433 . S
C2209 N2212 1.384 . S
C2210 H2201 0.929 . S
C2210 C2202 1.378 . S
C2210 C2205 1.350 . S
C2211 H2198 0.929 . S
C2211 C2203 1.433 . S
C2211 N2213 1.384 . S
N2212 C2208 1.427 . S
N2212 C2209 1.384 . S
N2213 C2205 1.427 . S
N2213 C2211 1.384 . S
H2214 C2220 0.930 . S
H2215 C2224 0.930 . S
H2216 C2229 0.929 . S
H2217 C2227 0.929 . S
H2218 C2222 0.929 . S
H2219 C2228 0.929 . S
C2220 H2214 0.930 . S
C2220 C2221 1.367 . S
C2220 C2228 1.378 . S
C2221 C2220 1.367 . S
C2221 C2229 1.433 . S
C2222 H2218 0.929 . S
C2222 C2224 1.378 . S
C2222 C2226 1.350 . S
C2223 C2226 1.463 . S
C2223 C2228 1.350 . S
C2223 N2231 1.427 . S
C2224 H2215 0.930 . S
C2224 C2222 1.378 . S
C2224 C2225 1.367 . S
C2225 C2224 1.367 . S
C2225 C2227 1.433 . S
C2226 C2222 1.350 . S
C2226 C2223 1.463 . S
C2226 N2230 1.427 . S
C2227 H2217 0.929 . S
C2227 C2225 1.433 . S
C2227 N2230 1.384 . S
C2228 H2219 0.929 . S
C2228 C2220 1.378 . S
C2228 C2223 1.350 . S
C2229 H2216 0.929 . S
C2229 C2221 1.433 . S
C2229 N2231 1.384 . S
N2230 C2226 1.427 . S
N2230 C2227 1.384 . S
N2231 C2223 1.427 . S
N2231 C2229 1.384 . S
H2232 C2238 0.930 . S
H2233 C2242 0.930 . S
H2234 C2247 0.929 . S
H2235 C2245 0.929 . S
H2236 C2240 0.929 . S
H2237 C2246 0.929 . S
C2238 H2232 0.930 . S
C2238 C2239 1.367 . S
C2238 C2246 1.378 . S
C2239 C2238 1.367 . S
C2239 C2247 1.433 . S
C2240 H2236 0.929 . S
C2240 C2242 1.378 . S
C2240 C2244 1.350 . S
C2241 C2244 1.463 . S
C2241 C2246 1.350 . S
C2241 N2249 1.427 . S
C2242 H2233 0.930 . S
C2242 C2240 1.378 . S
C2242 C2243 1.367 . S
C2243 C2242 1.367 . S
C2243 C2245 1.433 . S
C2244 C2240 1.350 . S
C2244 C2241 1.463 . S
C2244 N2248 1.427 . S
C2245 H2235 0.929 . S
C2245 C2243 1.433 . S
C2245 N2248 1.384 . S
C2246 H2237 0.929 . S
C2246 C2238 1.378 . S
C2246 C2241 1.350 . S
C2247 H2234 0.929 . S
C2247 C2239 1.433 . S
C2247 N2249 1.384 . S
N2248 C2244 1.427 . S
N2248 C2245 1.384 . S
N2249 C2241 1.427 . S
N2249 C2247 1.384 . S
H2250 C2256 0.930 . S
H2251 C2260 0.930 . S
H2252 C2265 0.929 . S
H2253 C2263 0.929 . S
H2254 C2258 0.929 . S
H2255 C2264 0.929 . S
C2256 H2250 0.930 . S
C2256 C2257 1.367 . S
C2256 C2264 1.378 . S
C2257 C2256 1.367 . S
C2257 C2265 1.433 . S
C2258 H2254 0.929 . S
C2258 C2260 1.378 . S
C2258 C2262 1.350 . S
C2259 C2262 1.463 . S
C2259 C2264 1.350 . S
C2259 N2267 1.427 . S
C2260 H2251 0.930 . S
C2260 C2258 1.378 . S
C2260 C2261 1.367 . S
C2261 C2260 1.367 . S
C2261 C2263 1.433 . S
C2262 C2258 1.350 . S
C2262 C2259 1.463 . S
C2262 N2266 1.427 . S
C2263 H2253 0.929 . S
C2263 C2261 1.433 . S
C2263 N2266 1.384 . S
C2264 H2255 0.929 . S
C2264 C2256 1.378 . S
C2264 C2259 1.350 . S
C2265 H2252 0.929 . S
C2265 C2257 1.433 . S
C2265 N2267 1.384 . S
N2266 C2262 1.427 . S
N2266 C2263 1.384 . S
N2267 C2259 1.427 . S
N2267 C2265 1.384 . S
H2268 C2274 0.930 . S
H2269 C2278 0.930 . S
H2270 C2283 0.929 . S
H2271 C2281 0.929 . S
H2272 C2276 0.929 . S
H2273 C2282 0.929 . S
C2274 H2268 0.930 . S
C2274 C2275 1.367 . S
C2274 C2282 1.378 . S
C2275 C2274 1.367 . S
C2275 C2283 1.433 . S
C2276 H2272 0.929 . S
C2276 C2278 1.378 . S
C2276 C2280 1.350 . S
C2277 C2280 1.463 . S
C2277 C2282 1.350 . S
C2277 N2285 1.427 . S
C2278 H2269 0.930 . S
C2278 C2276 1.378 . S
C2278 C2279 1.367 . S
C2279 C2278 1.367 . S
C2279 C2281 1.433 . S
C2280 C2276 1.350 . S
C2280 C2277 1.463 . S
C2280 N2284 1.427 . S
C2281 H2271 0.929 . S
C2281 C2279 1.433 . S
C2281 N2284 1.384 . S
C2282 H2273 0.929 . S
C2282 C2274 1.378 . S
C2282 C2277 1.350 . S
C2283 H2270 0.929 . S
C2283 C2275 1.433 . S
C2283 N2285 1.384 . S
N2284 C2280 1.427 . S
N2284 C2281 1.384 . S
N2285 C2277 1.427 . S
N2285 C2283 1.384 . S
H2286 C2292 0.930 . S
H2287 C2296 0.930 . S
H2288 C2301 0.929 . S
H2289 C2299 0.929 . S
H2290 C2294 0.929 . S
H2291 C2300 0.929 . S
C2292 H2286 0.930 . S
C2292 C2293 1.367 . S
C2292 C2300 1.378 . S
C2293 C2292 1.367 . S
C2293 C2301 1.433 . S
C2294 H2290 0.929 . S
C2294 C2296 1.378 . S
C2294 C2298 1.350 . S
C2295 C2298 1.463 . S
C2295 C2300 1.350 . S
C2295 N2303 1.427 . S
C2296 H2287 0.930 . S
C2296 C2294 1.378 . S
C2296 C2297 1.367 . S
C2297 C2296 1.367 . S
C2297 C2299 1.433 . S
C2298 C2294 1.350 . S
C2298 C2295 1.463 . S
C2298 N2302 1.427 . S
C2299 H2289 0.929 . S
C2299 C2297 1.433 . S
C2299 N2302 1.384 . S
C2300 H2291 0.929 . S
C2300 C2292 1.378 . S
C2300 C2295 1.350 . S
C2301 H2288 0.929 . S
C2301 C2293 1.433 . S
C2301 N2303 1.384 . S
N2302 C2298 1.427 . S
N2302 C2299 1.384 . S
N2303 C2295 1.427 . S
N2303 C2301 1.384 . S
H2304 C2310 0.930 . S
H2305 C2314 0.930 . S
H2306 C2319 0.929 . S
H2307 C2317 0.929 . S
H2308 C2312 0.929 . S
H2309 C2318 0.929 . S
C2310 H2304 0.930 . S
C2310 C2311 1.367 . S
C2310 C2318 1.378 . S
C2311 C2310 1.367 . S
C2311 C2319 1.433 . S
C2312 H2308 0.929 . S
C2312 C2314 1.378 . S
C2312 C2316 1.350 . S
C2313 C2316 1.463 . S
C2313 C2318 1.350 . S
C2313 N2321 1.427 . S
C2314 H2305 0.930 . S
C2314 C2312 1.378 . S
C2314 C2315 1.367 . S
C2315 C2314 1.367 . S
C2315 C2317 1.433 . S
C2316 C2312 1.350 . S
C2316 C2313 1.463 . S
C2316 N2320 1.427 . S
C2317 H2307 0.929 . S
C2317 C2315 1.433 . S
C2317 N2320 1.384 . S
C2318 H2309 0.929 . S
C2318 C2310 1.378 . S
C2318 C2313 1.350 . S
C2319 H2306 0.929 . S
C2319 C2311 1.433 . S
C2319 N2321 1.384 . S
N2320 C2316 1.427 . S
N2320 C2317 1.384 . S
N2321 C2313 1.427 . S
N2321 C2319 1.384 . S
H2322 C2328 0.930 1_545 S
H2323 C2332 0.930 . S
H2324 C2337 0.929 . S
H2325 C2335 0.929 . S
H2326 C2330 0.929 . S
H2327 C2336 0.937 . S
C2328 H2322 0.930 1_565 S
C2328 C2329 1.367 . S
C2328 C2336 1.383 1_565 S
C2329 C2328 1.367 . S
C2329 C2337 1.433 . S
C2330 H2326 0.929 . S
C2330 C2332 1.378 . S
C2330 C2334 1.350 . S
C2331 C2334 1.463 . S
C2331 C2336 1.336 1_565 S
C2331 N2339 1.427 . S
C2332 H2323 0.930 . S
C2332 C2330 1.378 . S
C2332 C2333 1.367 . S
C2333 C2332 1.367 . S
C2333 C2335 1.433 1_565 S
C2334 C2330 1.350 . S
C2334 C2331 1.463 . S
C2334 N2338 1.427 1_565 S
C2335 H2325 0.929 . S
C2335 C2333 1.433 1_545 S
C2335 N2338 1.384 . S
C2336 H2327 0.937 . S
C2336 C2328 1.383 1_545 S
C2336 C2331 1.336 1_545 S
C2337 H2324 0.929 . S
C2337 C2329 1.433 . S
C2337 N2339 1.384 . S
N2338 C2334 1.427 1_545 S
N2338 C2335 1.384 . S
N2339 C2331 1.427 . S
N2339 C2337 1.384 . S
H2340 C2346 0.930 . S
H2341 C2350 0.930 1_545 S
H2342 C2355 0.929 . S
H2343 C2353 0.929 . S
H2344 C2348 0.929 . S
H2345 C2354 0.929 . S
C2346 H2340 0.930 . S
C2346 C2347 1.367 . S
C2346 C2354 1.378 . S
C2347 C2346 1.367 . S
C2347 C2355 1.433 . S
C2348 H2344 0.929 . S
C2348 C2350 1.378 . S
C2348 C2352 1.350 . S
C2349 C2352 1.463 . S
C2349 C2354 1.350 . S
C2349 N2357 1.427 . S
C2350 H2341 0.930 1_565 S
C2350 C2348 1.378 . S
C2350 C2351 1.367 . S
C2351 C2350 1.367 . S
C2351 C2353 1.433 . S
C2352 C2348 1.350 . S
C2352 C2349 1.463 . S
C2352 N2356 1.427 . S
C2353 H2343 0.929 . S
C2353 C2351 1.433 . S
C2353 N2356 1.384 . S
C2354 H2345 0.929 . S
C2354 C2346 1.378 . S
C2354 C2349 1.350 . S
C2355 H2342 0.929 . S
C2355 C2347 1.433 . S
C2355 N2357 1.384 . S
N2356 C2352 1.427 . S
N2356 C2353 1.384 . S
N2357 C2349 1.427 . S
N2357 C2355 1.384 . S
H2358 C2364 0.930 . S
H2359 C2368 0.930 . S
H2360 C2373 0.929 . S
H2361 C2371 0.929 . S
H2362 C2366 0.929 . S
H2363 C2372 0.929 . S
C2364 H2358 0.930 . S
C2364 C2365 1.367 . S
C2364 C2372 1.378 . S
C2365 C2364 1.367 . S
C2365 C2373 1.433 . S
C2366 H2362 0.929 . S
C2366 C2368 1.378 . S
C2366 C2370 1.350 . S
C2367 C2370 1.463 . S
C2367 C2372 1.350 . S
C2367 N2375 1.427 . S
C2368 H2359 0.930 . S
C2368 C2366 1.378 . S
C2368 C2369 1.367 . S
C2369 C2368 1.367 . S
C2369 C2371 1.433 . S
C2370 C2366 1.350 . S
C2370 C2367 1.463 . S
C2370 N2374 1.427 . S
C2371 H2361 0.929 . S
C2371 C2369 1.433 . S
C2371 N2374 1.384 . S
C2372 H2363 0.929 . S
C2372 C2364 1.378 . S
C2372 C2367 1.350 . S
C2373 H2360 0.929 . S
C2373 C2365 1.433 . S
C2373 N2375 1.384 . S
N2374 C2370 1.427 . S
N2374 C2371 1.384 . S
N2375 C2367 1.427 . S
N2375 C2373 1.384 . S
H2376 C2382 0.930 . S
H2377 C2386 0.930 . S
H2378 C2391 0.929 . S
H2379 C2389 0.929 . S
H2380 C2384 0.929 . S
H2381 C2390 0.929 . S
C2382 H2376 0.930 . S
C2382 C2383 1.367 . S
C2382 C2390 1.378 . S
C2383 C2382 1.367 . S
C2383 C2391 1.433 . S
C2384 H2380 0.929 . S
C2384 C2386 1.378 . S
C2384 C2388 1.350 . S
C2385 C2388 1.463 . S
C2385 C2390 1.350 . S
C2385 N2393 1.427 . S
C2386 H2377 0.930 . S
C2386 C2384 1.378 . S
C2386 C2387 1.367 . S
C2387 C2386 1.367 . S
C2387 C2389 1.433 . S
C2388 C2384 1.350 . S
C2388 C2385 1.463 . S
C2388 N2392 1.427 . S
C2389 H2379 0.929 . S
C2389 C2387 1.433 . S
C2389 N2392 1.384 . S
C2390 H2381 0.929 . S
C2390 C2382 1.378 . S
C2390 C2385 1.350 . S
C2391 H2378 0.929 . S
C2391 C2383 1.433 . S
C2391 N2393 1.384 . S
N2392 C2388 1.427 . S
N2392 C2389 1.384 . S
N2393 C2385 1.427 . S
N2393 C2391 1.384 . S
H2394 C2400 0.930 . S
H2395 C2404 0.930 . S
H2396 C2409 0.929 . S
H2397 C2407 0.929 . S
H2398 C2402 0.929 . S
H2399 C2408 0.929 . S
C2400 H2394 0.930 . S
C2400 C2401 1.367 . S
C2400 C2408 1.378 . S
C2401 C2400 1.367 . S
C2401 C2409 1.433 . S
C2402 H2398 0.929 . S
C2402 C2404 1.378 . S
C2402 C2406 1.350 . S
C2403 C2406 1.463 . S
C2403 C2408 1.350 . S
C2403 N2411 1.427 . S
C2404 H2395 0.930 . S
C2404 C2402 1.378 . S
C2404 C2405 1.367 . S
C2405 C2404 1.367 . S
C2405 C2407 1.433 . S
C2406 C2402 1.350 . S
C2406 C2403 1.463 . S
C2406 N2410 1.427 . S
C2407 H2397 0.929 . S
C2407 C2405 1.433 . S
C2407 N2410 1.384 . S
C2408 H2399 0.929 . S
C2408 C2400 1.378 . S
C2408 C2403 1.350 . S
C2409 H2396 0.929 . S
C2409 C2401 1.433 . S
C2409 N2411 1.384 . S
N2410 C2406 1.427 . S
N2410 C2407 1.384 . S
N2411 C2403 1.427 . S
N2411 C2409 1.384 . S
H2412 C2418 0.930 . S
H2413 C2422 0.930 . S
H2414 C2427 0.929 . S
H2415 C2425 0.929 . S
H2416 C2420 0.929 . S
H2417 C2426 0.929 . S
C2418 H2412 0.930 . S
C2418 C2419 1.367 . S
C2418 C2426 1.378 . S
C2419 C2418 1.367 . S
C2419 C2427 1.433 . S
C2420 H2416 0.929 . S
C2420 C2422 1.378 . S
C2420 C2424 1.350 . S
C2421 C2424 1.463 . S
C2421 C2426 1.350 . S
C2421 N2429 1.427 . S
C2422 H2413 0.930 . S
C2422 C2420 1.378 . S
C2422 C2423 1.367 . S
C2423 C2422 1.367 . S
C2423 C2425 1.433 . S
C2424 C2420 1.350 . S
C2424 C2421 1.463 . S
C2424 N2428 1.427 . S
C2425 H2415 0.929 . S
C2425 C2423 1.433 . S
C2425 N2428 1.384 . S
C2426 H2417 0.929 . S
C2426 C2418 1.378 . S
C2426 C2421 1.350 . S
C2427 H2414 0.929 . S
C2427 C2419 1.433 . S
C2427 N2429 1.384 . S
N2428 C2424 1.427 . S
N2428 C2425 1.384 . S
N2429 C2421 1.427 . S
N2429 C2427 1.384 . S
H2430 C2436 0.930 . S
H2431 C2440 0.930 . S
H2432 C2445 0.929 . S
H2433 C2443 0.929 . S
H2434 C2438 0.929 . S
H2435 C2444 0.929 . S
C2436 H2430 0.930 . S
C2436 C2437 1.367 . S
C2436 C2444 1.378 . S
C2437 C2436 1.367 . S
C2437 C2445 1.433 . S
C2438 H2434 0.929 . S
C2438 C2440 1.378 . S
C2438 C2442 1.350 . S
C2439 C2442 1.463 . S
C2439 C2444 1.350 . S
C2439 N2447 1.427 . S
C2440 H2431 0.930 . S
C2440 C2438 1.378 . S
C2440 C2441 1.367 . S
C2441 C2440 1.367 . S
C2441 C2443 1.433 . S
C2442 C2438 1.350 . S
C2442 C2439 1.463 . S
C2442 N2446 1.427 . S
C2443 H2433 0.929 . S
C2443 C2441 1.433 . S
C2443 N2446 1.384 . S
C2444 H2435 0.929 . S
C2444 C2436 1.378 . S
C2444 C2439 1.350 . S
C2445 H2432 0.929 . S
C2445 C2437 1.433 . S
C2445 N2447 1.384 . S
N2446 C2442 1.427 . S
N2446 C2443 1.384 . S
N2447 C2439 1.427 . S
N2447 C2445 1.384 . S
H2448 C2454 0.930 1_565 S
H2449 C2458 0.930 . S
H2450 C2463 0.929 . S
H2451 C2461 0.929 . S
H2452 C2456 0.929 . S
H2453 C2462 0.929 1_565 S
C2454 H2448 0.930 1_545 S
C2454 C2455 1.367 . S
C2454 C2462 1.378 . S
C2455 C2454 1.367 . S
C2455 C2463 1.433 . S
C2456 H2452 0.929 . S
C2456 C2458 1.378 . S
C2456 C2460 1.350 . S
C2457 C2460 1.463 . S
C2457 C2462 1.350 . S
C2457 N2465 1.427 . S
C2458 H2449 0.930 . S
C2458 C2456 1.378 . S
C2458 C2459 1.367 . S
C2459 C2458 1.367 . S
C2459 C2461 1.433 1_545 S
C2460 C2456 1.350 . S
C2460 C2457 1.463 . S
C2460 N2464 1.427 1_545 S
C2461 H2451 0.929 . S
C2461 C2459 1.433 1_565 S
C2461 N2464 1.384 . S
C2462 H2453 0.929 1_545 S
C2462 C2454 1.378 . S
C2462 C2457 1.350 . S
C2463 H2450 0.929 . S
C2463 C2455 1.433 . S
C2463 N2465 1.384 . S
N2464 C2460 1.427 1_565 S
N2464 C2461 1.384 . S
N2465 C2457 1.427 . S
N2465 C2463 1.384 . S
H2466 C2472 0.930 1_455 S
H2467 C2476 0.930 . S
H2468 C2481 0.929 . S
H2469 C2479 0.929 . S
H2470 C2474 0.929 . S
H2471 C2480 0.929 1_455 S
C2472 H2466 0.930 1_655 S
C2472 C2473 1.367 . S
C2472 C2480 1.378 . S
C2473 C2472 1.367 . S
C2473 C2481 1.433 . S
C2474 H2470 0.929 . S
C2474 C2476 1.378 . S
C2474 C2478 1.350 . S
C2475 C2478 1.463 . S
C2475 C2480 1.350 . S
C2475 N2483 1.427 . S
C2476 H2467 0.930 . S
C2476 C2474 1.378 . S
C2476 C2477 1.367 . S
C2477 C2476 1.367 . S
C2477 C2479 1.433 1_655 S
C2478 C2474 1.350 . S
C2478 C2475 1.463 . S
C2478 N2482 1.427 1_655 S
C2479 H2469 0.929 . S
C2479 C2477 1.433 1_455 S
C2479 N2482 1.384 . S
C2480 H2471 0.929 1_655 S
C2480 C2472 1.378 . S
C2480 C2475 1.350 . S
C2481 H2468 0.929 . S
C2481 C2473 1.433 . S
C2481 N2483 1.384 . S
N2482 C2478 1.427 1_455 S
N2482 C2479 1.384 . S
N2483 C2475 1.427 . S
N2483 C2481 1.384 . S
H2484 C2490 0.930 . S
H2485 C2494 0.930 . S
H2486 C2499 0.929 . S
H2487 C2497 0.929 . S
H2488 C2492 0.929 . S
H2489 C2498 0.929 . S
C2490 H2484 0.930 . S
C2490 C2491 1.367 . S
C2490 C2498 1.378 . S
C2491 C2490 1.367 . S
C2491 C2499 1.433 . S
C2492 H2488 0.929 . S
C2492 C2494 1.378 . S
C2492 C2496 1.350 . S
C2493 C2496 1.463 . S
C2493 C2498 1.350 . S
C2493 N2501 1.427 . S
C2494 H2485 0.930 . S
C2494 C2492 1.378 . S
C2494 C2495 1.367 . S
C2495 C2494 1.367 . S
C2495 C2497 1.433 . S
C2496 C2492 1.350 . S
C2496 C2493 1.463 . S
C2496 N2500 1.427 . S
C2497 H2487 0.929 . S
C2497 C2495 1.433 . S
C2497 N2500 1.384 . S
C2498 H2489 0.929 . S
C2498 C2490 1.378 . S
C2498 C2493 1.350 . S
C2499 H2486 0.929 . S
C2499 C2491 1.433 . S
C2499 N2501 1.384 . S
N2500 C2496 1.427 . S
N2500 C2497 1.384 . S
N2501 C2493 1.427 . S
N2501 C2499 1.384 . S
H2502 C2508 0.930 . S
H2503 C2512 0.930 . S
H2504 C2517 0.929 . S
H2505 C2515 0.929 . S
H2506 C2510 0.929 . S
H2507 C2516 0.929 . S
C2508 H2502 0.930 . S
C2508 C2509 1.367 . S
C2508 C2516 1.378 . S
C2509 C2508 1.367 . S
C2509 C2517 1.433 . S
C2510 H2506 0.929 . S
C2510 C2512 1.378 . S
C2510 C2514 1.350 . S
C2511 C2514 1.463 . S
C2511 C2516 1.350 . S
C2511 N2519 1.427 . S
C2512 H2503 0.930 . S
C2512 C2510 1.378 . S
C2512 C2513 1.367 . S
C2513 C2512 1.367 . S
C2513 C2515 1.433 . S
C2514 C2510 1.350 . S
C2514 C2511 1.463 . S
C2514 N2518 1.427 . S
C2515 H2505 0.929 . S
C2515 C2513 1.433 . S
C2515 N2518 1.384 . S
C2516 H2507 0.929 . S
C2516 C2508 1.378 . S
C2516 C2511 1.350 . S
C2517 H2504 0.929 . S
C2517 C2509 1.433 . S
C2517 N2519 1.384 . S
N2518 C2514 1.427 . S
N2518 C2515 1.384 . S
N2519 C2511 1.427 . S
N2519 C2517 1.384 . S
H2520 C2526 0.930 . S
H2521 C2530 0.930 . S
H2522 C2535 0.929 . S
H2523 C2533 0.929 . S
H2524 C2528 0.929 . S
H2525 C2534 0.929 . S
C2526 H2520 0.930 . S
C2526 C2527 1.367 . S
C2526 C2534 1.378 . S
C2527 C2526 1.367 . S
C2527 C2535 1.433 . S
C2528 H2524 0.929 . S
C2528 C2530 1.378 . S
C2528 C2532 1.350 . S
C2529 C2532 1.463 . S
C2529 C2534 1.350 . S
C2529 N2537 1.427 . S
C2530 H2521 0.930 . S
C2530 C2528 1.378 . S
C2530 C2531 1.367 . S
C2531 C2530 1.367 . S
C2531 C2533 1.433 . S
C2532 C2528 1.350 . S
C2532 C2529 1.463 . S
C2532 N2536 1.427 . S
C2533 H2523 0.929 . S
C2533 C2531 1.433 . S
C2533 N2536 1.384 . S
C2534 H2525 0.929 . S
C2534 C2526 1.378 . S
C2534 C2529 1.350 . S
C2535 H2522 0.929 . S
C2535 C2527 1.433 . S
C2535 N2537 1.384 . S
N2536 C2532 1.427 . S
N2536 C2533 1.384 . S
N2537 C2529 1.427 . S
N2537 C2535 1.384 . S
H2538 C2544 0.930 . S
H2539 C2548 0.930 . S
H2540 C2553 0.929 . S
H2541 C2551 0.929 . S
H2542 C2546 0.929 . S
H2543 C2552 0.929 . S
C2544 H2538 0.930 . S
C2544 C2545 1.367 . S
C2544 C2552 1.378 . S
C2545 C2544 1.367 . S
C2545 C2553 1.433 . S
C2546 H2542 0.929 . S
C2546 C2548 1.378 . S
C2546 C2550 1.350 . S
C2547 C2550 1.463 . S
C2547 C2552 1.350 . S
C2547 N2555 1.427 . S
C2548 H2539 0.930 . S
C2548 C2546 1.378 . S
C2548 C2549 1.367 . S
C2549 C2548 1.367 . S
C2549 C2551 1.433 . S
C2550 C2546 1.350 . S
C2550 C2547 1.463 . S
C2550 N2554 1.427 . S
C2551 H2541 0.929 . S
C2551 C2549 1.433 . S
C2551 N2554 1.384 . S
C2552 H2543 0.929 . S
C2552 C2544 1.378 . S
C2552 C2547 1.350 . S
C2553 H2540 0.929 . S
C2553 C2545 1.433 . S
C2553 N2555 1.384 . S
N2554 C2550 1.427 . S
N2554 C2551 1.384 . S
N2555 C2547 1.427 . S
N2555 C2553 1.384 . S
H2556 C2562 0.930 . S
H2557 C2566 0.930 . S
H2558 C2571 0.929 . S
H2559 C2569 0.929 . S
H2560 C2564 0.929 . S
H2561 C2570 0.929 . S
C2562 H2556 0.930 . S
C2562 C2563 1.367 . S
C2562 C2570 1.378 . S
C2563 C2562 1.367 . S
C2563 C2571 1.433 . S
C2564 H2560 0.929 . S
C2564 C2566 1.378 . S
C2564 C2568 1.350 . S
C2565 C2568 1.463 . S
C2565 C2570 1.350 . S
C2565 N2573 1.427 . S
C2566 H2557 0.930 . S
C2566 C2564 1.378 . S
C2566 C2567 1.367 . S
C2567 C2566 1.367 . S
C2567 C2569 1.433 . S
C2568 C2564 1.350 . S
C2568 C2565 1.463 . S
C2568 N2572 1.427 . S
C2569 H2559 0.929 . S
C2569 C2567 1.433 . S
C2569 N2572 1.384 . S
C2570 H2561 0.929 . S
C2570 C2562 1.378 . S
C2570 C2565 1.350 . S
C2571 H2558 0.929 . S
C2571 C2563 1.433 . S
C2571 N2573 1.384 . S
N2572 C2568 1.427 . S
N2572 C2569 1.384 . S
N2573 C2565 1.427 . S
N2573 C2571 1.384 . S
H2574 C2580 0.930 . S
H2575 C2584 0.930 . S
H2576 C2589 0.929 . S
H2577 C2587 0.929 . S
H2578 C2582 0.929 . S
H2579 C2588 0.929 . S
C2580 H2574 0.930 . S
C2580 C2581 1.367 . S
C2580 C2588 1.378 . S
C2581 C2580 1.367 . S
C2581 C2589 1.433 . S
C2582 H2578 0.929 . S
C2582 C2584 1.378 . S
C2582 C2586 1.350 . S
C2583 C2586 1.463 . S
C2583 C2588 1.350 . S
C2583 N2591 1.427 . S
C2584 H2575 0.930 . S
C2584 C2582 1.378 . S
C2584 C2585 1.367 . S
C2585 C2584 1.367 . S
C2585 C2587 1.433 . S
C2586 C2582 1.350 . S
C2586 C2583 1.463 . S
C2586 N2590 1.427 . S
C2587 H2577 0.929 . S
C2587 C2585 1.433 . S
C2587 N2590 1.384 . S
C2588 H2579 0.929 . S
C2588 C2580 1.378 . S
C2588 C2583 1.350 . S
C2589 H2576 0.929 . S
C2589 C2581 1.433 . S
C2589 N2591 1.384 . S
N2590 C2586 1.427 . S
N2590 C2587 1.384 . S
N2591 C2583 1.427 . S
N2591 C2589 1.384 . S
H2592 C2598 0.930 . S
H2593 C2602 0.930 . S
H2594 C2607 0.929 . S
H2595 C2605 0.929 . S
H2596 C2600 0.929 . S
H2597 C2606 0.929 . S
C2598 H2592 0.930 . S
C2598 C2599 1.367 . S
C2598 C2606 1.378 . S
C2599 C2598 1.367 . S
C2599 C2607 1.433 . S
C2600 H2596 0.929 . S
C2600 C2602 1.378 . S
C2600 C2604 1.350 . S
C2601 C2604 1.463 . S
C2601 C2606 1.350 . S
C2601 N2609 1.427 . S
C2602 H2593 0.930 . S
C2602 C2600 1.378 . S
C2602 C2603 1.367 . S
C2603 C2602 1.367 . S
C2603 C2605 1.433 . S
C2604 C2600 1.350 . S
C2604 C2601 1.463 . S
C2604 N2608 1.427 . S
C2605 H2595 0.929 . S
C2605 C2603 1.433 . S
C2605 N2608 1.384 . S
C2606 H2597 0.929 . S
C2606 C2598 1.378 . S
C2606 C2601 1.350 . S
C2607 H2594 0.929 . S
C2607 C2599 1.433 . S
C2607 N2609 1.384 . S
N2608 C2604 1.427 . S
N2608 C2605 1.384 . S
N2609 C2601 1.427 . S
N2609 C2607 1.384 . S
H2610 C2616 0.961 . S
H2611 C2620 0.930 . S
H2612 C2625 0.929 . S
H2613 C2623 0.929 . S
H2614 C2618 0.929 . S
H2615 C2624 0.929 1_455 S
C2616 H2610 0.961 . S
C2616 C2617 1.367 . S
C2616 C2624 1.378 . S
C2617 C2616 1.367 . S
C2617 C2625 1.433 . S
C2618 H2614 0.929 . S
C2618 C2620 1.378 . S
C2618 C2622 1.350 . S
C2619 C2622 1.463 . S
C2619 C2624 1.350 . S
C2619 N2627 1.427 . S
C2620 H2611 0.930 . S
C2620 C2618 1.378 . S
C2620 C2621 1.367 . S
C2621 C2620 1.367 . S
C2621 C2623 1.433 1_655 S
C2622 C2618 1.350 . S
C2622 C2619 1.463 . S
C2622 N2626 1.429 1_655 S
C2623 H2613 0.929 . S
C2623 C2621 1.433 1_455 S
C2623 N2626 1.382 . S
C2624 H2615 0.929 1_655 S
C2624 C2616 1.378 . S
C2624 C2619 1.350 . S
C2625 H2612 0.929 . S
C2625 C2617 1.433 . S
C2625 N2627 1.384 . S
N2626 C2622 1.429 1_455 S
N2626 C2623 1.382 . S
N2627 C2619 1.427 . S
N2627 C2625 1.384 . S
H2628 C2634 0.930 . S
H2629 C2638 0.930 . S
H2630 C2643 0.929 . S
H2631 C2641 0.929 . S
H2632 C2636 0.929 . S
H2633 C2642 0.929 . S
C2634 H2628 0.930 . S
C2634 C2635 1.367 . S
C2634 C2642 1.378 . S
C2635 C2634 1.367 . S
C2635 C2643 1.433 . S
C2636 H2632 0.929 . S
C2636 C2638 1.378 . S
C2636 C2640 1.350 . S
C2637 C2640 1.463 . S
C2637 C2642 1.350 . S
C2637 N2645 1.427 . S
C2638 H2629 0.930 . S
C2638 C2636 1.378 . S
C2638 C2639 1.367 . S
C2639 C2638 1.367 . S
C2639 C2641 1.433 . S
C2640 C2636 1.350 . S
C2640 C2637 1.463 . S
C2640 N2644 1.427 . S
C2641 H2631 0.929 . S
C2641 C2639 1.433 . S
C2641 N2644 1.384 . S
C2642 H2633 0.929 . S
C2642 C2634 1.378 . S
C2642 C2637 1.350 . S
C2643 H2630 0.929 . S
C2643 C2635 1.433 . S
C2643 N2645 1.384 . S
N2644 C2640 1.427 . S
N2644 C2641 1.384 . S
N2645 C2637 1.427 . S
N2645 C2643 1.384 . S
H2646 C2652 0.967 . S
H2647 C2656 0.930 . S
H2648 C2661 0.929 . S
H2649 C2659 0.929 . S
H2650 C2654 0.929 . S
H2651 C2660 0.929 1_565 S
C2652 H2646 0.967 . S
C2652 C2653 1.367 . S
C2652 C2660 1.378 . S
C2653 C2652 1.367 . S
C2653 C2661 1.433 . S
C2654 H2650 0.929 . S
C2654 C2656 1.378 . S
C2654 C2658 1.350 . S
C2655 C2658 1.463 . S
C2655 C2660 1.350 . S
C2655 N2663 1.427 . S
C2656 H2647 0.930 . S
C2656 C2654 1.378 . S
C2656 C2657 1.367 . S
C2657 C2656 1.367 . S
C2657 C2659 1.433 1_545 S
C2658 C2654 1.350 . S
C2658 C2655 1.463 . S
C2658 N2662 1.378 1_545 S
C2659 H2649 0.929 . S
C2659 C2657 1.433 1_565 S
C2659 N2662 1.359 . S
C2660 H2651 0.929 1_545 S
C2660 C2652 1.378 . S
C2660 C2655 1.350 . S
C2661 H2648 0.929 . S
C2661 C2653 1.433 . S
C2661 N2663 1.384 . S
N2662 C2658 1.378 1_565 S
N2662 C2659 1.359 . S
N2663 C2655 1.427 . S
N2663 C2661 1.384 . S
C1375 C7 1.553 . S
C1379 C857 1.528 . S
C1393 C23 1.630 . S
C1397 C901 1.596 . S
C1415 C981 1.531 . S
C1411 C37 1.573 . S
C1429 C35 1.593 1_545 S
C1433 C1025 1.557 . S
C1447 C9 1.597 1_455 S
C1451 C1105 1.546 . S
C1465 C21 1.602 . S
C1469 C1167 1.572 . S
C1483 C49 1.540 . S
C1487 C1087 1.510 . S
C1505 C1149 1.570 . S
C1501 C65 1.625 . S
C1523 C1043 1.567 . S
C1519 C79 1.602 1_565 S
C1537 C77 1.544 . S
C1541 C963 1.512 . S
C1559 C839 1.549 . S
C1555 C51 1.591 1_655 S
C1573 C63 1.602 . S
C1577 C919 1.601 . S
C1591 C91 1.641 . S
C1595 C1229 1.609 . S
C1609 C107 1.666 . S
C1613 C1273 1.631 . S
C1631 C1353 1.611 . S
C1627 C121 1.690 . S
C1645 C119 1.646 . S
C1649 C299 1.607 . S
C1663 C93 1.689 . S
C1667 C343 1.652 . S
C1681 C105 1.633 . S
C1685 C423 1.603 . S
C1699 C133 1.603 . S
C1703 C361 1.602 . S
C1717 C149 1.663 . S
C1721 C405 1.591 . S
C1739 C281 1.602 . S
C1735 C163 1.689 . S
C1757 C1335 1.643 . S
C1753 C161 1.681 . S
C1775 C1211 1.610 . S
C1771 C135 1.683 . S
C1793 C1291 1.660 . S
C1789 C147 1.655 . S
C1807 C175 1.604 . S
C1811 C485 1.570 . S
C1825 C191 1.653 . S
C1829 C547 1.596 . S
C1843 C205 1.689 . S
C1847 C591 1.650 . S
C1861 C203 1.685 . S
C1865 C653 1.687 . S
C1883 C715 1.656 . S
C1879 C177 1.691 . S
C1901 C795 1.628 . S
C1897 C189 1.655 . S
C1919 C733 1.656 . S
C1915 C217 1.647 . S
C1937 C777 1.602 . S
C1933 C233 1.674 . S
C1951 C247 1.690 . S
C1955 C671 1.642 . S
C1973 C609 1.647 . S
C1969 C245 1.647 . S
C1987 C219 1.689 . S
C1991 C467 1.617 . S
C2009 C529 1.603 . S
C2005 C231 1.635 . S
C2027 C305 1.509 . S
C2023 C8 1.581 . S
C2041 C17 1.540 . S
C2045 C349 1.487 . S
C2063 C429 1.513 . S
C2059 C31 1.581 . S
C2081 C491 1.510 . S
C2077 C36 1.589 1_556 S
C2099 C553 1.490 . S
C2095 C3 1.574 . S
C2117 C597 1.490 . S
C2113 C22 1.549 . S
C2131 C50 1.587 . S
C2135 C615 1.540 . S
C2149 C59 1.536 . S
C2153 C473 1.466 . S
C2167 C73 1.557 . S
C2171 C535 1.490 . S
C2185 C78 1.612 . S
C2189 C367 1.553 . S
C2207 C411 1.476 . S
C2203 C45 1.556 . S
C2221 C64 1.552 . S
C2225 C287 1.475 . S
C2243 C659 1.527 . S
C2239 C92 1.580 . S
C2257 C101 1.586 1_545 S
C2261 C721 1.544 . S
C2275 C115 1.621 1_655 S
C2279 C801 1.544 . S
C2297 C863 1.445 . S
C2293 C120 1.496 . S
C2311 C87 1.562 . S
C2315 C907 1.494 . S
C2329 C106 1.456 . S
C2333 C987 1.398 . S
C2347 C134 1.469 . S
C2351 C969 1.402 . S
C2365 C143 1.482 . S
C2369 C845 1.412 . S
C2387 C925 1.520 . S
C2383 C157 1.573 . S
C2401 C162 1.591 . S
C2405 C739 1.530 . S
C2419 C129 1.625 1_545 S
C2423 C783 1.542 . S
C2441 C677 1.545 . S
C2437 C148 1.611 . S
C2459 C1031 1.429 . S
C2455 C176 1.478 . S
C2473 C185 1.478 . S
C2477 C1111 1.421 . S
C2491 C199 1.568 . S
C2495 C1173 1.498 . S
C2513 C1235 1.496 . S
C2509 C204 1.578 . S
C2531 C1279 1.546 . S
C2527 C171 1.620 1_565 S
C2545 C190 1.613 . S
C2549 C1359 1.530 . S
C2563 C218 1.581 . S
C2567 C1341 1.499 . S
C2581 C227 1.608 1_565 S
C2585 C1217 1.535 . S
C2603 C1297 1.543 . S
C2599 C241 1.611 1_455 S
C2621 C1093 1.425 . S
C2617 C246 1.486 . S
C2639 C1155 1.488 . S
C2635 C213 1.568 . S
C2653 C232 1.471 . S
C2657 C1049 1.424 . S
