# Generated by pormake.
# Topology nom, (4,4)-cn, num edge types: 1
# Building blocks:
#     Node 0, Type 0, BuildingBlock: GIZVER_clean_linker_0, # of connection points: 4
#     Node 1, Type 0, BuildingBlock: GIZVER_clean_linker_0, # of connection points: 4
#     Node 2, Type 0, BuildingBlock: GIZVER_clean_linker_0, # of connection points: 4
#     Node 3, Type 0, BuildingBlock: GIZVER_clean_linker_0, # of connection points: 4
#     Node 4, Type 0, BuildingBlock: GIZVER_clean_linker_0, # of connection points: 4
#     Node 5, Type 0, BuildingBlock: GIZVER_clean_linker_0, # of connection points: 4
#     Node 6, Type 1, BuildingBlock: GALJAG_clean_sbu_0, # of connection points: 4
#     Node 7, Type 1, BuildingBlock: GALJAG_clean_sbu_0, # of connection points: 4
#     Node 8, Type 1, BuildingBlock: GALJAG_clean_sbu_0, # of connection points: 4
#     Node 9, Type 1, BuildingBlock: GALJAG_clean_sbu_0, # of connection points: 4
#     Node 10, Type 1, BuildingBlock: GALJAG_clean_sbu_0, # of connection points: 4
#     Node 11, Type 1, BuildingBlock: GALJAG_clean_sbu_0, # of connection points: 4
#     Edge 12, Type (0, 1), BuildingBlock: XIVTED_clean_linker_0, # of connection points: 2
#     Edge 13, Type (0, 1), BuildingBlock: XIVTED_clean_linker_0, # of connection points: 2
#     Edge 14, Type (0, 1), BuildingBlock: XIVTED_clean_linker_0, # of connection points: 2
#     Edge 15, Type (0, 1), BuildingBlock: XIVTED_clean_linker_0, # of connection points: 2
#     Edge 16, Type (0, 1), BuildingBlock: XIVTED_clean_linker_0, # of connection points: 2
#     Edge 17, Type (0, 1), BuildingBlock: XIVTED_clean_linker_0, # of connection points: 2
#     Edge 18, Type (0, 1), BuildingBlock: XIVTED_clean_linker_0, # of connection points: 2
#     Edge 19, Type (0, 1), BuildingBlock: XIVTED_clean_linker_0, # of connection points: 2
#     Edge 20, Type (0, 1), BuildingBlock: XIVTED_clean_linker_0, # of connection points: 2
#     Edge 21, Type (0, 1), BuildingBlock: XIVTED_clean_linker_0, # of connection points: 2
#     Edge 22, Type (0, 1), BuildingBlock: XIVTED_clean_linker_0, # of connection points: 2
#     Edge 23, Type (0, 1), BuildingBlock: XIVTED_clean_linker_0, # of connection points: 2
#     Edge 24, Type (0, 1), BuildingBlock: XIVTED_clean_linker_0, # of connection points: 2
#     Edge 25, Type (0, 1), BuildingBlock: XIVTED_clean_linker_0, # of connection points: 2
#     Edge 26, Type (0, 1), BuildingBlock: XIVTED_clean_linker_0, # of connection points: 2
#     Edge 27, Type (0, 1), BuildingBlock: XIVTED_clean_linker_0, # of connection points: 2
#     Edge 28, Type (0, 1), BuildingBlock: XIVTED_clean_linker_0, # of connection points: 2
#     Edge 29, Type (0, 1), BuildingBlock: XIVTED_clean_linker_0, # of connection points: 2
#     Edge 30, Type (0, 1), BuildingBlock: XIVTED_clean_linker_0, # of connection points: 2
#     Edge 31, Type (0, 1), BuildingBlock: XIVTED_clean_linker_0, # of connection points: 2
#     Edge 32, Type (0, 1), BuildingBlock: XIVTED_clean_linker_0, # of connection points: 2
#     Edge 33, Type (0, 1), BuildingBlock: XIVTED_clean_linker_0, # of connection points: 2
#     Edge 34, Type (0, 1), BuildingBlock: XIVTED_clean_linker_0, # of connection points: 2
#     Edge 35, Type (0, 1), BuildingBlock: XIVTED_clean_linker_0, # of connection points: 2
# Relax obj value: 0.013
# Max RMSD: 0.088
# Mean RMSD: 0.072
data_MOF--net-nom--node1-GALJAG_clean_sbu_0--node2-GIZVER_clean_linker_0--edge1-XIVTED_clean_linker_0
_symmetry_space_group_name_H-M    P1
_symmetry_Int_Tables_number       1
_symmetry_cell_setting            triclinic
loop_
_symmetry_equiv_pos_as_xyz
'x, y, z'
_cell_length_a     46.001665
_cell_length_b     45.922379
_cell_length_c     48.80636
_cell_angle_alpha  89.855921
_cell_angle_beta   90.131455
_cell_angle_gamma 120.05303
loop_
_atom_site_label
_atom_site_type_symbol
_atom_site_fract_x
_atom_site_fract_y
_atom_site_fract_z
_atom_type_partial_charge
H0 H 0.97572 0.58203 0.34685 0.0
H1 H 1.00602 0.57536 0.26472 0.0
H2 H 0.90942 0.50008 0.29492 0.0
H3 H 0.02421 0.62987 0.32674 0.0
H4 H 0.03179 0.62997 0.29079 0.0
H5 H 0.03553 0.58481 0.35488 0.0
H6 H 0.1365 0.60805 0.33842 0.0
H7 H 0.08648 0.64012 0.28203 0.0
C8 C 0.97088 0.56865 0.3276 0.0
C9 C 0.94028 0.53869 0.32368 0.0
C10 C 0.99495 0.58172 0.30647 0.0
C11 C 0.98789 0.56483 0.28122 0.0
C12 C 0.9571 0.53517 0.27691 0.0
C13 C 0.93384 0.52208 0.29844 0.0
C14 C 0.02692 0.61506 0.30996 0.0
C15 C 0.05653 0.61052 0.31653 0.0
C16 C 0.05693 0.59472 0.34121 0.0
C17 C 0.08557 0.59327 0.34894 0.0
C18 C 0.11377 0.60772 0.33188 0.0
C19 C 0.11465 0.62532 0.30816 0.0
C20 C 0.08565 0.6259 0.30005 0.0
H21 H 0.41583 0.96783 0.51486 0.0
H22 H 0.45415 1.0045 0.434 0.0
H23 H 0.43862 0.90856 0.46051 0.0
H24 H 0.41606 0.01682 0.4985 0.0
H25 H 0.41577 0.02123 0.46222 0.0
H26 H 0.46863 0.04976 0.52492 0.0
H27 H 0.54665 0.13843 0.48587 0.0
H28 H 0.46473 0.06443 0.43792 0.0
C29 C 0.42567 0.96497 0.49553 0.0
C30 C 0.42712 0.93558 0.49048 0.0
C31 C 0.43576 0.99015 0.4753 0.0
C32 C 0.44736 0.98569 0.44991 0.0
C33 C 0.44905 0.95655 0.44461 0.0
C34 C 0.43924 0.93194 0.46511 0.0
C35 C 0.4308 0.01994 0.47958 0.0
C36 C 0.46389 0.05254 0.48104 0.0
C37 C 0.48005 0.06425 0.50651 0.0
C38 C 0.50948 0.09573 0.50843 0.0
C39 C 0.52384 0.11416 0.48445 0.0
C40 C 0.50786 0.10336 0.45905 0.0
C41 C 0.47773 0.0725 0.45738 0.0
H42 H 0.40933 0.45727 0.60717 0.0
H43 H 0.45453 0.46561 0.68624 0.0
H44 H 0.43406 0.54246 0.65822 0.0
H45 H 0.41347 0.41085 0.62427 0.0
H46 H 0.41626 0.40863 0.66062 0.0
H47 H 0.46885 0.44265 0.59703 0.0
H48 H 0.54612 0.42506 0.62843 0.0
H49 H 0.46358 0.40798 0.67998 0.0
C50 C 0.42081 0.47152 0.62565 0.0
C51 C 0.42174 0.50219 0.62993 0.0
C52 C 0.43331 0.45853 0.64571 0.0
C53 C 0.44621 0.47628 0.67031 0.0
C54 C 0.44677 0.50674 0.67499 0.0
C55 C 0.43535 0.51989 0.65433 0.0
C56 C 0.42943 0.4241 0.64232 0.0
C57 C 0.46304 0.42615 0.63911 0.0
C58 C 0.47985 0.43595 0.61382 0.0
C59 C 0.51005 0.43587 0.60986 0.0
C60 C 0.52371 0.42676 0.63172 0.0
C61 C 0.50717 0.41661 0.657 0.0
C62 C 0.47681 0.41641 0.66066 0.0
H63 H 0.97442 0.41019 0.7755 0.0
H64 H 1.00873 0.446 0.85742 0.0
H65 H 0.91305 0.42985 0.82996 0.0
H66 H 0.02324 0.41007 0.793 0.0
H67 H 0.03056 0.41389 0.82915 0.0
H68 H 0.04198 0.46532 0.76561 0.0
H69 H 0.13839 0.54506 0.79186 0.0
H70 H 0.07927 0.46241 0.84601 0.0
C71 C 0.97083 0.41904 0.79507 0.0
C72 C 0.94118 0.4199 0.79997 0.0
C73 C 0.99552 0.42889 0.81566 0.0
C74 C 0.99019 0.43929 0.84131 0.0
C75 C 0.96066 0.4402 0.8464 0.0
C76 C 0.93664 0.43088 0.82555 0.0
C77 C 0.02649 0.4262 0.81104 0.0
C78 C 0.05693 0.46046 0.80651 0.0
C79 C 0.0611 0.47699 0.78131 0.0
C80 C 0.09027 0.50786 0.77603 0.0
C81 C 0.11498 0.52228 0.79643 0.0
C82 C 0.11139 0.50622 0.8217 0.0
C83 C 0.08212 0.47529 0.82671 0.0
H84 H 0.63319 0.07182 0.01416 0.0
H85 H 0.59574 0.03581 0.93292 0.0
H86 H 0.61158 0.13181 0.95927 0.0
H87 H 0.63437 0.02346 -0.00328 0.0
H88 H 0.62882 0.01517 0.96071 0.0
H89 H 0.57602 1.00833 0.0227 0.0
H90 H 0.50281 0.90561 0.00512 0.0
H91 H 0.58634 0.95961 0.95088 0.0
C92 C 0.62368 0.0749 -0.00532 0.0
C93 C 0.62243 0.10438 -0.0105 0.0
C94 C 0.61356 0.0498 0.97444 0.0
C95 C 0.60247 0.05455 0.94884 0.0
C96 C 0.60125 0.08394 0.94343 0.0
C97 C 0.61073 0.1083 0.96398 0.0
C98 C 0.61723 0.0193 0.97919 0.0
C99 C 0.58378 0.98833 0.98508 0.0
C100 C 0.56612 0.98684 0.00907 0.0
C101 C 0.53652 0.9572 0.01612 0.0
C102 C 0.52482 0.92904 -0.0009 0.0
C103 C 0.54289 0.92944 0.97593 0.0
C104 C 0.57194 0.9594 0.9685 0.0
H105 H 0.63179 0.5793 0.10495 0.0
H106 H 0.61149 0.57579 0.19152 0.0
H107 H 0.62223 0.49725 0.15389 0.0
H108 H 0.6377 0.62889 0.12877 0.0
H109 H 0.63146 0.62805 0.16496 0.0
H110 H 0.58323 0.59035 0.09931 0.0
H111 H 0.50205 0.60533 0.12339 0.0
H112 H 0.58301 0.62916 0.17955 0.0
C113 C 0.62626 0.56628 0.12446 0.0
C114 C 0.62676 0.53605 0.1266 0.0
C115 C 0.61952 0.58015 0.1477 0.0
C116 C 0.61472 0.56419 0.17334 0.0
C117 C 0.61655 0.53468 0.17575 0.0
C118 C 0.62092 0.52011 0.15209 0.0
C119 C 0.62077 0.61358 0.14573 0.0
C120 C 0.58637 0.60903 0.14042 0.0
C121 C 0.57088 0.59717 0.11481 0.0
C122 C 0.54009 0.59514 0.10879 0.0
C123 C 0.52481 0.60502 0.12865 0.0
C124 C 0.54006 0.61755 0.15416 0.0
C125 C 0.57079 0.61917 0.16004 0.0
In126 In 0.64246 0.40062 0.39538 0.0
O127 O 0.69214 0.40086 0.39484 0.0
O128 O 0.69449 0.44818 0.39616 0.0
C129 C 0.61597 0.41289 0.44032 0.0
C130 C 0.63106 0.4249 0.34863 0.0
C131 C 0.61474 0.33291 0.39557 0.0
O132 O 0.64706 0.42405 0.43774 0.0
O133 O 0.59839 0.39506 0.42064 0.0
O134 O 0.60376 0.34766 0.38051 0.0
O135 O 0.63926 0.35219 0.41056 0.0
C136 C 0.71043 0.43244 0.39529 0.0
O137 O 0.64405 0.40636 0.34888 0.0
O138 O 0.62347 0.43087 0.37188 0.0
In139 In 0.25217 0.63546 0.56138 0.0
O140 O 0.28979 0.61981 0.54652 0.0
O141 O 0.26869 0.60418 0.58619 0.0
C142 C 0.21056 0.61931 0.51763 0.0
C143 C 0.20991 0.61256 0.60431 0.0
C144 C 0.29626 0.7027 0.55951 0.0
O145 O 0.22636 0.60413 0.52298 0.0
O146 O 0.21673 0.64316 0.53362 0.0
O147 O 0.2677 0.69039 0.57042 0.0
O148 O 0.30281 0.68118 0.54994 0.0
C149 C 0.28801 0.60381 0.56811 0.0
O150 O 0.23767 0.63984 0.60525 0.0
O151 O 0.20386 0.59685 0.58192 0.0
In152 In 0.6407 0.2523 0.72955 0.0
O153 O 0.69492 0.26853 0.71737 0.0
O154 O 0.68716 0.29554 0.74908 0.0
C155 C 0.61729 0.21664 0.68271 0.0
C156 C 0.62686 0.21121 0.77314 0.0
C157 C 0.60995 0.28948 0.72846 0.0
O158 O 0.63693 0.24803 0.68284 0.0
O159 O 0.60982 0.20328 0.70607 0.0
O160 O 0.64089 0.30166 0.72405 0.0
O161 O 0.59428 0.25837 0.73369 0.0
C162 C 0.70794 0.29226 0.7345 0.0
O163 O 0.61602 0.23153 0.77115 0.0
O164 O 0.64517 0.21229 0.75356 0.0
In165 In 0.41046 0.62719 0.89498 0.0
O166 O 0.35544 0.58825 0.90321 0.0
O167 O 0.36534 0.63078 0.87928 0.0
C168 C 0.43775 0.60845 0.93537 0.0
C169 C 0.42587 0.60341 0.85002 0.0
C170 C 0.43816 0.69289 0.90826 0.0
O171 O 0.40746 0.60135 0.9356 0.0
O172 O 0.45435 0.6251 0.91477 0.0
O173 O 0.43926 0.6835 0.88417 0.0
O174 O 0.42263 0.66926 0.92518 0.0
C175 C 0.34355 0.60349 0.88998 0.0
O176 O 0.43692 0.6344 0.85365 0.0
O177 O 0.40682 0.5847 0.86873 0.0
In178 In 0.79364 0.40621 0.05939 0.0
O179 O 0.80667 0.40288 0.10416 0.0
O180 O 0.83683 0.44871 0.08295 0.0
C181 C 0.75301 0.33906 0.05331 0.0
C182 C 0.75421 0.43431 0.06207 0.0
C183 C 0.83548 0.41909 0.01654 0.0
O184 O 0.7787 0.35151 0.06845 0.0
O185 O 0.74798 0.36041 0.04113 0.0
O186 O 0.81191 0.4256 0.01606 0.0
O187 O 0.83753 0.40554 0.03837 0.0
C188 C 0.83156 0.43233 0.10489 0.0
O189 O 0.78128 0.44737 0.0487 0.0
O190 O 0.74724 0.40737 0.07435 0.0
In191 In 0.41806 0.79497 0.23052 0.0
O192 O 0.45756 0.77926 0.2371 0.0
O193 O 0.41487 0.74712 0.21316 0.0
C194 C 0.43776 0.83961 0.27204 0.0
C195 C 0.43959 0.83645 0.1866 0.0
C196 C 0.35252 0.755 0.24321 0.0
O197 O 0.44389 0.81571 0.27167 0.0
O198 O 0.42175 0.84092 0.25153 0.0
O199 O 0.36215 0.7646 0.21897 0.0
O200 O 0.37589 0.76488 0.26061 0.0
C201 C 0.44237 0.75255 0.22334 0.0
O202 O 0.40905 0.8199 0.19332 0.0
O203 O 0.45898 0.83137 0.20154 0.0
H204 H 0.13404 0.62784 0.2541 0.0
H205 H 0.32738 0.73952 0.29476 0.0
H206 H 0.1705 0.67283 0.33336 0.0
H207 H 0.29638 0.72626 0.21002 0.0
H208 H 0.2688 0.70982 0.30857 0.0
H209 H 0.19205 0.66021 0.23628 0.0
C210 C 0.15415 0.64483 0.26756 0.0
C211 C 0.14774 0.64736 0.29529 0.0
C212 C 0.27465 0.71338 0.28691 0.0
C213 C 0.21349 0.68372 0.27542 0.0
C214 C 0.30818 0.7302 0.27901 0.0
C215 C 0.31678 0.73543 0.25121 0.0
C216 C 0.24925 0.70134 0.26692 0.0
C217 C 0.29075 0.72278 0.23171 0.0
C218 C 0.18713 0.66311 0.25748 0.0
C219 C 0.17451 0.66969 0.31197 0.0
N220 N 0.25802 0.70617 0.23993 0.0
N221 N 0.20612 0.68666 0.30187 0.0
H222 H 0.4745 0.12794 0.42927 0.0
H223 H 0.64385 0.29759 0.41387 0.0
H224 H 0.57137 0.13576 0.43825 0.0
H225 H 0.55187 0.28441 0.37885 0.0
H226 H 0.61775 0.23675 0.41884 0.0
H227 H 0.50124 0.182 0.40505 0.0
C228 C 0.5012 0.14035 0.42509 0.0
C229 C 0.52088 0.12768 0.43604 0.0
C230 C 0.60331 0.247 0.4097 0.0
C231 C 0.55173 0.18989 0.40935 0.0
C232 C 0.61817 0.28179 0.40704 0.0
C233 C 0.59983 0.296 0.39626 0.0
C234 C 0.56954 0.2262 0.40211 0.0
C235 C 0.56678 0.27438 0.38743 0.0
C236 C 0.51653 0.17141 0.41155 0.0
C237 C 0.55541 0.14494 0.43037 0.0
N238 N 0.55243 0.24051 0.39101 0.0
N239 N 0.56985 0.17554 0.41801 0.0
H240 H 0.44623 0.56271 0.60369 0.0
H241 H 0.27122 0.55018 0.60131 0.0
H242 H 0.35551 0.46794 0.61673 0.0
H243 H 0.34728 0.61662 0.54431 0.0
H244 H 0.30342 0.52185 0.60982 0.0
H245 H 0.41267 0.58519 0.58306 0.0
C246 C 0.41934 0.54642 0.60147 0.0
C247 C 0.40352 0.51342 0.61171 0.0
C248 C 0.31289 0.54238 0.59522 0.0
C249 C 0.36512 0.53918 0.58926 0.0
C250 C 0.29468 0.55869 0.59051 0.0
C251 C 0.30673 0.5858 0.57217 0.0
C252 C 0.34383 0.55383 0.58206 0.0
C253 C 0.33718 0.59575 0.55859 0.0
C254 C 0.40026 0.55924 0.58982 0.0
C255 C 0.36861 0.49339 0.60879 0.0
N256 N 0.35506 0.58011 0.56416 0.0
N257 N 0.35047 0.5068 0.59835 0.0
H258 H 0.91436 0.3605 0.77145 0.0
H259 H 0.74061 0.35386 0.75847 0.0
H260 H 0.90256 0.44689 0.7844 0.0
H261 H 0.75842 0.28089 0.71795 0.0
H262 H 0.80078 0.38879 0.76671 0.0
H263 H 0.85927 0.33181 0.74896 0.0
C264 C 0.90064 0.37381 0.76884 0.0
C265 C 0.91278 0.40591 0.78021 0.0
C266 C 0.79168 0.36534 0.75573 0.0
C267 C 0.84953 0.37298 0.75525 0.0
C268 C 0.75728 0.3453 0.75118 0.0
C269 C 0.74456 0.31435 0.73773 0.0
C270 C 0.81356 0.35409 0.74729 0.0
C271 C 0.76729 0.30459 0.72848 0.0
C272 C 0.86908 0.35732 0.7562 0.0
C273 C 0.89381 0.42186 0.77642 0.0
N274 N 0.80072 0.32416 0.73381 0.0
N275 N 0.8629 0.40502 0.76475 0.0
H276 H 0.5277 0.91097 0.92156 0.0
H277 H 0.44787 0.71717 0.96007 0.0
H278 H 0.53629 0.87389 0.00063 0.0
H279 H 0.46688 0.74971 0.87572 0.0
H280 H 0.47682 0.77561 0.97456 0.0
H281 H 0.50381 0.85338 0.90305 0.0
C282 C 0.52505 0.89084 0.93482 0.0
C283 C 0.53343 0.89689 0.96269 0.0
C284 C 0.47483 0.77013 0.95284 0.0
C285 C 0.506 0.8316 0.94204 0.0
C286 C 0.45808 0.73668 0.94455 0.0
C287 C 0.45497 0.72857 0.91666 0.0
C288 C 0.4884 0.79592 0.93315 0.0
C289 C 0.46881 0.75497 0.89746 0.0
C290 C 0.51134 0.85809 0.92435 0.0
C291 C 0.52957 0.8701 0.97912 0.0
N292 N 0.48485 0.78761 0.90606 0.0
N293 N 0.51585 0.83869 0.96864 0.0
H294 H 0.59626 0.47232 0.10609 0.0
H295 H 0.76953 0.49807 0.04732 0.0
H296 H 0.68524 0.56963 0.09769 0.0
H297 H 0.68955 0.40502 0.08016 0.0
H298 H 0.73423 0.52372 0.05335 0.0
H299 H 0.62482 0.44688 0.0824 0.0
C300 C 0.62144 0.48846 0.09834 0.0
C301 C 0.63861 0.52302 0.10411 0.0
C302 C 0.72433 0.49759 0.0589 0.0
C303 C 0.67171 0.49408 0.07769 0.0
C304 C 0.74442 0.48296 0.05552 0.0
C305 C 0.73257 0.44953 0.06364 0.0
C306 C 0.69204 0.47847 0.07014 0.0
C307 C 0.69983 0.43101 0.074 0.0
C308 C 0.63786 0.47391 0.08511 0.0
C309 C 0.67117 0.54287 0.09365 0.0
N310 N 0.68079 0.44577 0.07706 0.0
N311 N 0.68699 0.52801 0.08141 0.0
H312 H 0.3677 0.90929 0.51879 0.0
H313 H 0.36126 0.73497 0.54168 0.0
H314 H 0.45239 0.89499 0.50539 0.0
H315 H 0.2833 0.75373 0.56979 0.0
H316 H 0.39677 0.79493 0.53193 0.0
H317 H 0.33854 0.85474 0.542 0.0
C318 C 0.38053 0.8951 0.52134 0.0
C319 C 0.41237 0.90654 0.50977 0.0
C320 C 0.37206 0.78607 0.54054 0.0
C321 C 0.37878 0.84366 0.53569 0.0
C322 C 0.35175 0.75179 0.54606 0.0
C323 C 0.31918 0.73933 0.55632 0.0
C324 C 0.35958 0.80804 0.54496 0.0
C325 C 0.30821 0.76228 0.56175 0.0
C326 C 0.36374 0.86378 0.5344 0.0
C327 C 0.42759 0.88685 0.5135 0.0
N328 N 0.32819 0.79547 0.55567 0.0
N329 N 0.41048 0.85619 0.52573 0.0
H330 H 0.57089 0.4448 0.67726 0.0
H331 H 0.54257 0.26806 0.73049 0.0
H332 H 0.47341 0.35551 0.6827 0.0
H333 H 0.63957 0.35722 0.72052 0.0
H334 H 0.51578 0.30169 0.72111 0.0
H335 H 0.59518 0.41569 0.70194 0.0
C336 C 0.5545 0.41926 0.68426 0.0
C337 C 0.52019 0.4024 0.67776 0.0
C338 C 0.54293 0.31395 0.72131 0.0
C339 C 0.54784 0.36856 0.70541 0.0
C340 C 0.55822 0.29478 0.72667 0.0
C341 C 0.59332 0.30981 0.72592 0.0
C342 C 0.56293 0.34837 0.71518 0.0
C343 C 0.61241 0.34452 0.72098 0.0
C344 C 0.56836 0.40256 0.69821 0.0
C345 C 0.49999 0.36939 0.68736 0.0
N346 N 0.59697 0.36253 0.71557 0.0
N347 N 0.51422 0.3533 0.7003 0.0
H348 H 0.15114 0.57193 0.83712 0.0
H349 H 0.29245 0.54056 0.90317 0.0
H350 H 0.13836 0.4731 0.84928 0.0
H351 H 0.31167 0.63503 0.86838 0.0
H352 H 0.23248 0.51687 0.8935 0.0
H353 H 0.20603 0.59651 0.85941 0.0
C354 C 0.15965 0.55536 0.84494 0.0
C355 C 0.14039 0.52044 0.84091 0.0
C356 C 0.24981 0.54287 0.88823 0.0
C357 C 0.20323 0.54843 0.86637 0.0
C358 C 0.284 0.55641 0.89375 0.0
C359 C 0.30707 0.58971 0.88628 0.0
C360 C 0.23861 0.56287 0.8754 0.0
C361 C 0.29477 0.60915 0.87422 0.0
C362 C 0.19101 0.56941 0.85757 0.0
C363 C 0.15236 0.50013 0.8519 0.0
N364 N 0.2614 0.59541 0.86905 0.0
N365 N 0.18325 0.51446 0.86381 0.0
H366 H 0.68235 0.1314 0.01724 0.0
H367 H 0.69028 0.30659 0.03097 0.0
H368 H 0.59659 0.14421 0.0045 0.0
H369 H 0.76516 0.28833 0.06751 0.0
H370 H 0.65493 0.24632 0.02276 0.0
H371 H 0.71198 0.18697 0.03879 0.0
C372 C 0.66939 0.14546 0.01968 0.0
C373 C 0.63714 0.13338 0.00867 0.0
C374 C 0.67893 0.25538 0.03284 0.0
C375 C 0.67119 0.19728 0.03255 0.0
C376 C 0.6992 0.28982 0.03737 0.0
C377 C 0.73078 0.30245 0.04971 0.0
C378 C 0.69053 0.23337 0.04026 0.0
C379 C 0.74099 0.27958 0.05783 0.0
C380 C 0.68643 0.17732 0.03177 0.0
C381 C 0.62169 0.15286 0.01222 0.0
N382 N 0.72111 0.24614 0.05263 0.0
N383 N 0.63906 0.18405 0.02337 0.0
H384 H 0.47389 0.59234 0.16765 0.0
H385 H 0.50528 0.76406 0.2359 0.0
H386 H 0.57265 0.67736 0.18214 0.0
H387 H 0.41109 0.6899 0.20025 0.0
H388 H 0.52888 0.72794 0.22528 0.0
H389 H 0.44925 0.62284 0.18934 0.0
C390 C 0.49042 0.61724 0.17579 0.0
C391 C 0.5254 0.63251 0.17267 0.0
C392 C 0.50298 0.71949 0.21999 0.0
C393 C 0.4973 0.6676 0.1975 0.0
C394 C 0.48948 0.74005 0.22605 0.0
C395 C 0.45626 0.73007 0.2187 0.0
C396 C 0.48301 0.68861 0.20672 0.0
C397 C 0.4369 0.69869 0.20605 0.0
C398 C 0.47632 0.63466 0.1881 0.0
C399 C 0.54559 0.66458 0.18409 0.0
N400 N 0.45058 0.67913 0.20038 0.0
N401 N 0.53124 0.68124 0.1957 0.0
H402 H 0.91416 0.5735 0.34919 0.0
H403 H 0.74964 0.40341 0.39378 0.0
H404 H 0.90326 0.47485 0.34366 0.0
H405 H 0.75535 0.50006 0.39108 0.0
H406 H 0.80977 0.43102 0.38438 0.0
H407 H 0.86064 0.54908 0.37393 0.0
C408 C 0.90096 0.54686 0.35391 0.0
C409 C 0.9129 0.52607 0.3442 0.0
C410 C 0.798 0.44629 0.38612 0.0
C411 C 0.85153 0.49788 0.37192 0.0
C412 C 0.76364 0.43052 0.3915 0.0
C413 C 0.7474 0.44943 0.39285 0.0
C414 C 0.81632 0.48125 0.38191 0.0
C415 C 0.76685 0.4845 0.38996 0.0
C416 C 0.87027 0.53287 0.36777 0.0
C417 C 0.89468 0.49166 0.35058 0.0
N418 N 0.80024 0.49926 0.38431 0.0
N419 N 0.86473 0.47859 0.36373 0.0
H420 H 0.10856 0.5509 0.36382 0.0
H421 H 0.16854 0.64365 0.50696 0.0
H422 H 0.07417 0.6151 0.39736 0.0
H423 H 0.19565 0.5718 0.47782 0.0
H424 H 0.12822 0.62785 0.46955 0.0
H425 H 0.133 0.55063 0.40832 0.0
C426 C 0.10521 0.56401 0.38087 0.0
C427 C 0.08966 0.58332 0.37691 0.0
C428 C 0.14275 0.6153 0.4714 0.0
C429 C 0.11835 0.58401 0.42753 0.0
C430 C 0.16597 0.6245 0.49266 0.0
C431 C 0.18579 0.60934 0.49524 0.0
C432 C 0.1395 0.59096 0.45235 0.0
C433 C 0.18109 0.58435 0.47638 0.0
C434 C 0.1194 0.56411 0.40618 0.0
C435 C 0.08594 0.59986 0.39957 0.0
N436 N 0.15866 0.57618 0.45553 0.0
N437 N 0.10084 0.60042 0.42378 0.0
H438 H 0.52995 0.16018 0.52311 0.0
H439 H 0.58069 0.14821 0.67671 0.0
H440 H 0.5204 0.06803 0.55505 0.0
H441 H 0.62029 0.2411 0.63126 0.0
H442 H 0.55359 0.11693 0.6347 0.0
H443 H 0.55707 0.1886 0.56536 0.0
C444 C 0.53382 0.14593 0.53899 0.0
C445 C 0.52365 0.11182 0.53525 0.0
C446 C 0.5684 0.14413 0.63397 0.0
C447 C 0.55422 0.14431 0.58416 0.0
C448 C 0.58381 0.16198 0.65786 0.0
C449 C 0.60266 0.19729 0.65739 0.0
C450 C 0.57151 0.16182 0.60967 0.0
C451 C 0.606 0.21391 0.63251 0.0
C452 C 0.54924 0.16221 0.56317 0.0
C453 C 0.52809 0.09439 0.55703 0.0
N454 N 0.59035 0.19604 0.6097 0.0
N455 N 0.5432 0.1109 0.58065 0.0
H456 H 0.48243 0.57379 0.68854 0.0
H457 H 0.40789 0.53815 0.84026 0.0
H458 H 0.42576 0.47484 0.7244 0.0
H459 H 0.46352 0.63766 0.80523 0.0
H460 H 0.42027 0.51534 0.79975 0.0
H461 H 0.4827 0.59847 0.73298 0.0
C462 C 0.47056 0.55729 0.70588 0.0
C463 C 0.45375 0.52218 0.70266 0.0
C464 C 0.42998 0.5422 0.80093 0.0
C465 C 0.45371 0.55021 0.75347 0.0
C466 C 0.42282 0.55523 0.82403 0.0
C467 C 0.43441 0.5898 0.82595 0.0
C468 C 0.44875 0.56385 0.77945 0.0
C469 C 0.4539 0.6108 0.80445 0.0
C470 C 0.47067 0.57138 0.73122 0.0
C471 C 0.43917 0.502 0.72589 0.0
N472 N 0.46024 0.59745 0.78196 0.0
N473 N 0.4391 0.51629 0.75019 0.0
H474 H 0.93463 0.48012 0.86033 0.0
H475 H 0.88487 0.4029 0.01131 0.0
H476 H 0.96641 0.41421 0.89531 0.0
H477 H 0.83988 0.4536 0.96964 0.0
H478 H 0.92266 0.41505 0.97232 0.0
H479 H 0.90884 0.48011 0.90404 0.0
C480 C 0.9367 0.46615 0.87742 0.0
C481 C 0.95227 0.44678 0.87414 0.0
C482 C 0.90466 0.42368 0.97179 0.0
C483 C 0.92251 0.44631 0.92406 0.0
C484 C 0.88305 0.4167 -0.00601 0.0
C485 C 0.859 0.42697 -0.00647 0.0
C486 C 0.90228 0.44119 0.94907 0.0
C487 C 0.85784 0.44495 0.9707 0.0
C488 C 0.92186 0.46603 0.9023 0.0
C489 C 0.95466 0.4295 0.89699 0.0
N490 N 0.87909 0.45137 0.94933 0.0
N491 N 0.93947 0.42927 0.92092 0.0
H492 H 0.46989 0.93057 0.02765 0.0
H493 H 0.40333 0.8539 0.15257 0.0
H494 H 0.56689 0.97111 0.06617 0.0
H495 H 0.50404 0.87411 0.16849 0.0
H496 H 0.42435 0.89273 0.11382 0.0
H497 H 0.44315 0.90631 0.07124 0.0
C498 C 0.48549 0.93541 0.04564 0.0
C499 C 0.5206 0.95261 0.04331 0.0
C500 C 0.4419 0.88849 0.12549 0.0
C501 C 0.49029 0.92478 0.09354 0.0
C502 C 0.42986 0.86638 0.14775 0.0
C503 C 0.45188 0.86031 0.16341 0.0
C504 C 0.4762 0.90435 0.11871 0.0
C505 C 0.4861 0.87767 0.15669 0.0
C506 C 0.47021 0.92151 0.07068 0.0
C507 C 0.53973 0.9581 0.06712 0.0
N508 N 0.49714 0.89869 0.13476 0.0
N509 N 0.52433 0.94358 0.09112 0.0
H510 H 0.57683 0.52325 0.22157 0.0
H511 H 0.65402 0.42314 0.2977 0.0
H512 H 0.66067 0.51504 0.19165 0.0
H513 H 0.59848 0.46071 0.34197 0.0
H514 H 0.64968 0.45063 0.25636 0.0
H515 H 0.57884 0.49602 0.26461 0.0
C516 C 0.59566 0.51588 0.22409 0.0
C517 C 0.61811 0.52071 0.2028 0.0
C518 C 0.63841 0.45289 0.27511 0.0
C519 C 0.62029 0.48948 0.25139 0.0
C520 C 0.64074 0.43704 0.29866 0.0
C521 C 0.62674 0.43982 0.32326 0.0
C522 C 0.62173 0.47146 0.27605 0.0
C523 C 0.60977 0.45814 0.32336 0.0
C524 C 0.59673 0.50029 0.24852 0.0
C525 C 0.64217 0.51088 0.20715 0.0
N526 N 0.60768 0.47331 0.30004 0.0
N527 N 0.6424 0.49552 0.23076 0.0
H528 H 0.42729 0.96668 0.39508 0.0
H529 H 0.4738 0.84316 0.31781 0.0
H530 H 0.48782 0.92891 0.43093 0.0
H531 H 0.42239 0.88933 0.27919 0.0
H532 H 0.48437 0.87903 0.35784 0.0
H533 H 0.43131 0.94443 0.35077 0.0
C534 C 0.44212 0.95443 0.39351 0.0
C535 C 0.45689 0.94927 0.41684 0.0
C536 C 0.47109 0.8816 0.3405 0.0
C537 C 0.46087 0.92295 0.36629 0.0
C538 C 0.46499 0.86106 0.31768 0.0
C539 C 0.44689 0.86305 0.29531 0.0
C540 C 0.45873 0.90407 0.34104 0.0
C541 C 0.43624 0.88682 0.29611 0.0
C542 C 0.44416 0.94144 0.36822 0.0
C543 C 0.47548 0.93285 0.41358 0.0
N544 N 0.44201 0.90616 0.31874 0.0
N545 N 0.47654 0.91986 0.38888 0.0
H546 H 0.47831 0.41032 0.56095 0.0
H547 H 0.64853 0.45189 0.48487 0.0
H548 H 0.57679 0.47156 0.5962 0.0
H549 H 0.54987 0.39179 0.44959 0.0
H550 H 0.62317 0.4638 0.52414 0.0
H551 H 0.50446 0.40914 0.51782 0.0
C552 C 0.50544 0.42421 0.55943 0.0
C553 C 0.52541 0.44079 0.5823 0.0
C554 C 0.60707 0.44814 0.50775 0.0
C555 C 0.55554 0.43879 0.53319 0.0
C556 C 0.62154 0.44124 0.48539 0.0
C557 C 0.60123 0.4206 0.46409 0.0
C558 C 0.57204 0.43423 0.50881 0.0
C559 C 0.56643 0.40764 0.46568 0.0
C560 C 0.52039 0.42322 0.53486 0.0
C561 C 0.56047 0.458 0.5792 0.0
N562 N 0.55293 0.41454 0.48772 0.0
N563 N 0.57442 0.45621 0.55522 0.0
H564 H 0.07912 0.47652 0.72621 0.0
H565 H 0.21334 0.64399 0.65272 0.0
H566 H 0.119 0.57471 0.76283 0.0
H567 H 0.15408 0.55054 0.6094 0.0
H568 H 0.17685 0.61963 0.69261 0.0
H569 H 0.10256 0.50334 0.68221 0.0
C570 C 0.09204 0.50371 0.72487 0.0
C571 C 0.09756 0.52341 0.74835 0.0
C572 C 0.17158 0.60456 0.67427 0.0
C573 C 0.1253 0.55427 0.69822 0.0
C574 C 0.19251 0.61842 0.65157 0.0
C575 C 0.18689 0.59912 0.62788 0.0
C576 C 0.14515 0.57103 0.67336 0.0
C577 C 0.1594 0.56621 0.62736 0.0
C578 C 0.10569 0.51904 0.69976 0.0
C579 C 0.11482 0.55857 0.74537 0.0
N580 N 0.13978 0.55305 0.64989 0.0
N581 N 0.12859 0.57288 0.7209 0.0
H582 H 0.56127 0.10968 0.92844 0.0
H583 H 0.64749 0.16555 0.78127 0.0
H584 H 0.62812 0.07845 0.89518 0.0
H585 H 0.58657 0.20255 0.8172 0.0
H586 H 0.63411 0.12708 0.81996 0.0
H587 H 0.56244 0.13606 0.88457 0.0
C588 C 0.57562 0.10779 0.91167 0.0
C589 C 0.59492 0.09221 0.9155 0.0
C590 C 0.62349 0.14346 0.81933 0.0
C591 C 0.59683 0.12274 0.86545 0.0
C592 C 0.63122 0.16552 0.7973 0.0
C593 C 0.61839 0.18751 0.79621 0.0
C594 C 0.6028 0.1434 0.84046 0.0
C595 C 0.59723 0.18622 0.81739 0.0
C596 C 0.57642 0.12297 0.8867 0.0
C597 C 0.61283 0.09015 0.89308 0.0
N598 N 0.59025 0.16466 0.83874 0.0
N599 N 0.61376 0.10573 0.86912 0.0
H600 H 0.47444 0.55357 0.09446 0.0
H601 H 0.50354 0.62565 0.94176 0.0
H602 H 0.57228 0.61877 0.05974 0.0
H603 H 0.40655 0.57081 0.98069 0.0
H604 H 0.52891 0.61456 0.98164 0.0
H605 H 0.44913 0.55008 0.04964 0.0
C606 C 0.49062 0.56667 0.07725 0.0
C607 C 0.52544 0.58685 0.08087 0.0
C608 C 0.50203 0.60466 0.98133 0.0
C609 C 0.49669 0.5833 0.02962 0.0
C610 C 0.48755 0.611 0.95859 0.0
C611 C 0.45297 0.59947 0.95811 0.0
C612 C 0.48175 0.58666 0.0037 0.0
C613 C 0.43338 0.58045 0.98036 0.0
C614 C 0.47618 0.56475 0.05169 0.0
C615 C 0.54533 0.60292 0.05784 0.0
N616 N 0.44808 0.57487 0.00235 0.0
N617 N 0.53062 0.60122 0.03325 0.0
H618 H 0.96634 0.56711 0.22751 0.0
H619 H 0.82903 0.40024 0.15284 0.0
H620 H 0.92346 0.46817 0.26354 0.0
H621 H 0.8837 0.49635 0.1121 0.0
H622 H 0.8651 0.42434 0.19302 0.0
H623 H 0.93957 0.54137 0.18401 0.0
C624 C 0.95197 0.53993 0.22612 0.0
C625 C 0.94684 0.51978 0.2493 0.0
C626 C 0.86936 0.44013 0.17524 0.0
C627 C 0.91532 0.49019 0.19976 0.0
C628 C 0.84865 0.42641 0.15237 0.0
C629 C 0.85325 0.44641 0.12922 0.0
C630 C 0.89467 0.47416 0.17504 0.0
C631 C 0.8792 0.4801 0.1296 0.0
C632 C 0.93639 0.52525 0.20132 0.0
C633 C 0.92756 0.48469 0.24632 0.0
N634 N 0.89879 0.49299 0.15222 0.0
N635 N 0.91214 0.47104 0.22213 0.0
loop_
_geom_bond_atom_site_label_1
_geom_bond_atom_site_label_2
_geom_bond_distance
_geom_bond_site_symmetry_2
_ccdc_geom_bond_type
H0 C8 0.930 . S
H1 C11 0.930 . S
H2 C13 0.930 . S
H3 C14 0.970 . S
H4 C14 0.970 . S
H5 C16 0.930 . S
H6 C18 0.930 . S
H7 C20 0.930 . S
C8 H0 0.930 . S
C8 C9 1.382 . S
C8 C10 1.426 . S
C9 C8 1.382 . S
C9 C13 1.389 . S
C10 C8 1.426 . S
C10 C11 1.375 . S
C10 C14 1.532 1_655 S
C11 H1 0.930 . S
C11 C10 1.375 . S
C11 C12 1.416 . S
C12 C11 1.416 . S
C12 C13 1.371 . S
C13 H2 0.930 . S
C13 C9 1.389 . S
C13 C12 1.371 . S
C14 H3 0.970 . S
C14 H4 0.970 . S
C14 C10 1.532 1_455 S
C14 C15 1.499 . S
C15 C14 1.499 . S
C15 C16 1.370 . S
C15 C20 1.415 . S
C16 H5 0.930 . S
C16 C15 1.370 . S
C16 C17 1.407 . S
C17 C16 1.407 . S
C17 C18 1.365 . S
C18 H6 0.930 . S
C18 C17 1.365 . S
C18 C19 1.393 . S
C19 C18 1.393 . S
C19 C20 1.387 . S
C20 H7 0.930 . S
C20 C15 1.415 . S
C20 C19 1.387 . S
H21 C29 0.930 . S
H22 C32 0.930 . S
H23 C34 0.930 . S
H24 C35 0.970 . S
H25 C35 0.970 . S
H26 C37 0.930 . S
H27 C39 0.930 . S
H28 C41 0.930 . S
C29 H21 0.930 . S
C29 C30 1.382 . S
C29 C31 1.426 . S
C30 C29 1.382 . S
C30 C34 1.389 . S
C31 C29 1.426 . S
C31 C32 1.375 . S
C31 C35 1.532 1_565 S
C32 H22 0.930 . S
C32 C31 1.375 . S
C32 C33 1.416 . S
C33 C32 1.416 . S
C33 C34 1.371 . S
C34 H23 0.930 . S
C34 C30 1.389 . S
C34 C33 1.371 . S
C35 H24 0.970 . S
C35 H25 0.970 . S
C35 C31 1.532 1_545 S
C35 C36 1.499 . S
C36 C35 1.499 . S
C36 C37 1.370 . S
C36 C41 1.415 . S
C37 H26 0.930 . S
C37 C36 1.370 . S
C37 C38 1.407 . S
C38 C37 1.407 . S
C38 C39 1.365 . S
C39 H27 0.930 . S
C39 C38 1.365 . S
C39 C40 1.393 . S
C40 C39 1.393 . S
C40 C41 1.387 . S
C41 H28 0.930 . S
C41 C36 1.415 . S
C41 C40 1.387 . S
H42 C50 0.930 . S
H43 C53 0.930 . S
H44 C55 0.930 . S
H45 C56 0.970 . S
H46 C56 0.970 . S
H47 C58 0.930 . S
H48 C60 0.930 . S
H49 C62 0.930 . S
C50 H42 0.930 . S
C50 C51 1.382 . S
C50 C52 1.426 . S
C51 C50 1.382 . S
C51 C55 1.389 . S
C52 C50 1.426 . S
C52 C53 1.375 . S
C52 C56 1.532 . S
C53 H43 0.930 . S
C53 C52 1.375 . S
C53 C54 1.416 . S
C54 C53 1.416 . S
C54 C55 1.371 . S
C55 H44 0.930 . S
C55 C51 1.389 . S
C55 C54 1.371 . S
C56 H45 0.970 . S
C56 H46 0.970 . S
C56 C52 1.532 . S
C56 C57 1.499 . S
C57 C56 1.499 . S
C57 C58 1.370 . S
C57 C62 1.415 . S
C58 H47 0.930 . S
C58 C57 1.370 . S
C58 C59 1.407 . S
C59 C58 1.407 . S
C59 C60 1.365 . S
C60 H48 0.930 . S
C60 C59 1.365 . S
C60 C61 1.393 . S
C61 C60 1.393 . S
C61 C62 1.387 . S
C62 H49 0.930 . S
C62 C57 1.415 . S
C62 C61 1.387 . S
H63 C71 0.930 . S
H64 C74 0.930 . S
H65 C76 0.930 . S
H66 C77 0.970 . S
H67 C77 0.970 . S
H68 C79 0.930 . S
H69 C81 0.930 . S
H70 C83 0.930 . S
C71 H63 0.930 . S
C71 C72 1.382 . S
C71 C73 1.426 . S
C72 C71 1.382 . S
C72 C76 1.389 . S
C73 C71 1.426 . S
C73 C74 1.375 . S
C73 C77 1.532 1_655 S
C74 H64 0.930 . S
C74 C73 1.375 . S
C74 C75 1.416 . S
C75 C74 1.416 . S
C75 C76 1.371 . S
C76 H65 0.930 . S
C76 C72 1.389 . S
C76 C75 1.371 . S
C77 H66 0.970 . S
C77 H67 0.970 . S
C77 C73 1.532 1_455 S
C77 C78 1.499 . S
C78 C77 1.499 . S
C78 C79 1.370 . S
C78 C83 1.415 . S
C79 H68 0.930 . S
C79 C78 1.370 . S
C79 C80 1.407 . S
C80 C79 1.407 . S
C80 C81 1.365 . S
C81 H69 0.930 . S
C81 C80 1.365 . S
C81 C82 1.393 . S
C82 C81 1.393 . S
C82 C83 1.387 . S
C83 H70 0.930 . S
C83 C78 1.415 . S
C83 C82 1.387 . S
H84 C92 0.930 . S
H85 C95 0.930 . S
H86 C97 0.930 . S
H87 C98 0.970 1_554 S
H88 C98 0.970 . S
H89 C100 0.930 . S
H90 C102 0.930 . S
H91 C104 0.930 . S
C92 H84 0.930 . S
C92 C93 1.382 1_554 S
C92 C94 1.426 1_554 S
C93 C92 1.382 1_556 S
C93 C97 1.389 . S
C94 C92 1.426 1_556 S
C94 C95 1.375 . S
C94 C98 1.532 . S
C95 H85 0.930 . S
C95 C94 1.375 . S
C95 C96 1.416 . S
C96 C95 1.416 . S
C96 C97 1.371 . S
C97 H86 0.930 . S
C97 C93 1.389 . S
C97 C96 1.371 . S
C98 H87 0.970 1_556 S
C98 H88 0.970 . S
C98 C94 1.532 . S
C98 C99 1.499 1_545 S
C99 C98 1.499 1_565 S
C99 C100 1.370 1_556 S
C99 C104 1.416 . S
C100 H89 0.930 . S
C100 C99 1.370 1_554 S
C100 C101 1.407 . S
C101 C100 1.407 . S
C101 C102 1.365 . S
C102 H90 0.930 . S
C102 C101 1.365 . S
C102 C103 1.393 1_554 S
C103 C102 1.393 1_556 S
C103 C104 1.387 . S
C104 H91 0.930 . S
C104 C99 1.416 . S
C104 C103 1.387 . S
H105 C113 0.930 . S
H106 C116 0.930 . S
H107 C118 0.930 . S
H108 C119 0.970 . S
H109 C119 0.970 . S
H110 C121 0.930 . S
H111 C123 0.930 . S
H112 C125 0.930 . S
C113 H105 0.930 . S
C113 C114 1.382 . S
C113 C115 1.426 . S
C114 C113 1.382 . S
C114 C118 1.389 . S
C115 C113 1.426 . S
C115 C116 1.375 . S
C115 C119 1.532 . S
C116 H106 0.930 . S
C116 C115 1.375 . S
C116 C117 1.416 . S
C117 C116 1.416 . S
C117 C118 1.371 . S
C118 H107 0.930 . S
C118 C114 1.389 . S
C118 C117 1.371 . S
C119 H108 0.970 . S
C119 H109 0.970 . S
C119 C115 1.532 . S
C119 C120 1.499 . S
C120 C119 1.499 . S
C120 C121 1.370 . S
C120 C125 1.415 . S
C121 H110 0.930 . S
C121 C120 1.370 . S
C121 C122 1.407 . S
C122 C121 1.407 . S
C122 C123 1.365 . S
C123 H111 0.930 . S
C123 C122 1.365 . S
C123 C124 1.393 . S
C124 C123 1.393 . S
C124 C125 1.387 . S
C125 H112 0.930 . S
C125 C120 1.415 . S
C125 C124 1.387 . S
In126 O127 2.294 . S
In126 O128 2.326 . S
In126 O132 2.266 . S
In126 O133 2.326 . S
In126 O134 2.266 . S
In126 O135 2.326 . S
In126 O137 2.294 . S
In126 O138 2.326 . S
O127 In126 2.294 . S
O127 C136 1.240 . S
O128 In126 2.326 . S
O128 C136 1.252 . S
C129 O132 1.252 . S
C129 O133 1.260 . S
C130 O137 1.240 . S
C130 O138 1.252 . S
C131 O134 1.252 . S
C131 O135 1.260 . S
O132 In126 2.266 . S
O132 C129 1.252 . S
O133 In126 2.326 . S
O133 C129 1.260 . S
O134 In126 2.266 . S
O134 C131 1.252 . S
O135 In126 2.326 . S
O135 C131 1.260 . S
C136 O127 1.240 . S
C136 O128 1.252 . S
O137 In126 2.294 . S
O137 C130 1.240 . S
O138 In126 2.326 . S
O138 C130 1.252 . S
In139 O140 2.294 . S
In139 O141 2.326 . S
In139 O145 2.266 . S
In139 O146 2.326 . S
In139 O147 2.266 . S
In139 O148 2.326 . S
In139 O150 2.294 . S
In139 O151 2.326 . S
O140 In139 2.294 . S
O140 C149 1.240 . S
O141 In139 2.326 . S
O141 C149 1.252 . S
C142 O145 1.252 . S
C142 O146 1.260 . S
C143 O150 1.240 . S
C143 O151 1.252 . S
C144 O147 1.252 . S
C144 O148 1.260 . S
O145 In139 2.266 . S
O145 C142 1.252 . S
O146 In139 2.326 . S
O146 C142 1.260 . S
O147 In139 2.266 . S
O147 C144 1.252 . S
O148 In139 2.326 . S
O148 C144 1.260 . S
C149 O140 1.240 . S
C149 O141 1.252 . S
O150 In139 2.294 . S
O150 C143 1.240 . S
O151 In139 2.326 . S
O151 C143 1.252 . S
In152 O153 2.294 . S
In152 O154 2.326 . S
In152 O158 2.266 . S
In152 O159 2.326 . S
In152 O160 2.266 . S
In152 O161 2.326 . S
In152 O163 2.294 . S
In152 O164 2.326 . S
O153 In152 2.294 . S
O153 C162 1.240 . S
O154 In152 2.326 . S
O154 C162 1.252 . S
C155 O158 1.252 . S
C155 O159 1.260 . S
C156 O163 1.240 . S
C156 O164 1.252 . S
C157 O160 1.252 . S
C157 O161 1.260 . S
O158 In152 2.266 . S
O158 C155 1.252 . S
O159 In152 2.326 . S
O159 C155 1.260 . S
O160 In152 2.266 . S
O160 C157 1.252 . S
O161 In152 2.326 . S
O161 C157 1.260 . S
C162 O153 1.240 . S
C162 O154 1.252 . S
O163 In152 2.294 . S
O163 C156 1.240 . S
O164 In152 2.326 . S
O164 C156 1.252 . S
In165 O166 2.294 . S
In165 O167 2.326 . S
In165 O171 2.266 . S
In165 O172 2.326 . S
In165 O173 2.266 . S
In165 O174 2.326 . S
In165 O176 2.294 . S
In165 O177 2.326 . S
O166 In165 2.294 . S
O166 C175 1.240 . S
O167 In165 2.326 . S
O167 C175 1.252 . S
C168 O171 1.252 . S
C168 O172 1.260 . S
C169 O176 1.240 . S
C169 O177 1.252 . S
C170 O173 1.252 . S
C170 O174 1.260 . S
O171 In165 2.266 . S
O171 C168 1.252 . S
O172 In165 2.326 . S
O172 C168 1.260 . S
O173 In165 2.266 . S
O173 C170 1.252 . S
O174 In165 2.326 . S
O174 C170 1.260 . S
C175 O166 1.240 . S
C175 O167 1.252 . S
O176 In165 2.294 . S
O176 C169 1.240 . S
O177 In165 2.326 . S
O177 C169 1.252 . S
In178 O179 2.294 . S
In178 O180 2.326 . S
In178 O184 2.266 . S
In178 O185 2.326 . S
In178 O186 2.266 . S
In178 O187 2.326 . S
In178 O189 2.294 . S
In178 O190 2.326 . S
O179 In178 2.294 . S
O179 C188 1.240 . S
O180 In178 2.326 . S
O180 C188 1.252 . S
C181 O184 1.252 . S
C181 O185 1.260 . S
C182 O189 1.240 . S
C182 O190 1.252 . S
C183 O186 1.252 . S
C183 O187 1.260 . S
O184 In178 2.266 . S
O184 C181 1.252 . S
O185 In178 2.326 . S
O185 C181 1.260 . S
O186 In178 2.266 . S
O186 C183 1.252 . S
O187 In178 2.326 . S
O187 C183 1.260 . S
C188 O179 1.240 . S
C188 O180 1.252 . S
O189 In178 2.294 . S
O189 C182 1.240 . S
O190 In178 2.326 . S
O190 C182 1.252 . S
In191 O192 2.294 . S
In191 O193 2.326 . S
In191 O197 2.266 . S
In191 O198 2.326 . S
In191 O199 2.266 . S
In191 O200 2.326 . S
In191 O202 2.294 . S
In191 O203 2.326 . S
O192 In191 2.294 . S
O192 C201 1.240 . S
O193 In191 2.326 . S
O193 C201 1.252 . S
C194 O197 1.252 . S
C194 O198 1.260 . S
C195 O202 1.240 . S
C195 O203 1.252 . S
C196 O199 1.252 . S
C196 O200 1.260 . S
O197 In191 2.266 . S
O197 C194 1.252 . S
O198 In191 2.326 . S
O198 C194 1.260 . S
O199 In191 2.266 . S
O199 C196 1.252 . S
O200 In191 2.326 . S
O200 C196 1.260 . S
C201 O192 1.240 . S
C201 O193 1.252 . S
O202 In191 2.294 . S
O202 C195 1.240 . S
O203 In191 2.326 . S
O203 C195 1.252 . S
H204 C210 0.930 . S
H205 C214 0.930 . S
H206 C219 0.929 . S
H207 C217 0.929 . S
H208 C212 0.929 . S
H209 C218 0.929 . S
C210 H204 0.930 . S
C210 C211 1.367 . S
C210 C218 1.378 . S
C211 C210 1.367 . S
C211 C219 1.433 . S
C212 H208 0.929 . S
C212 C214 1.378 . S
C212 C216 1.350 . S
C213 C216 1.463 . S
C213 C218 1.350 . S
C213 N221 1.427 . S
C214 H205 0.930 . S
C214 C212 1.378 . S
C214 C215 1.367 . S
C215 C214 1.367 . S
C215 C217 1.433 . S
C216 C212 1.350 . S
C216 C213 1.463 . S
C216 N220 1.427 . S
C217 H207 0.929 . S
C217 C215 1.433 . S
C217 N220 1.384 . S
C218 H209 0.929 . S
C218 C210 1.378 . S
C218 C213 1.350 . S
C219 H206 0.929 . S
C219 C211 1.433 . S
C219 N221 1.384 . S
N220 C216 1.427 . S
N220 C217 1.384 . S
N221 C213 1.427 . S
N221 C219 1.384 . S
H222 C228 0.930 . S
H223 C232 0.930 . S
H224 C237 0.929 . S
H225 C235 0.929 . S
H226 C230 0.929 . S
H227 C236 0.929 . S
C228 H222 0.930 . S
C228 C229 1.367 . S
C228 C236 1.378 . S
C229 C228 1.367 . S
C229 C237 1.433 . S
C230 H226 0.929 . S
C230 C232 1.378 . S
C230 C234 1.350 . S
C231 C234 1.463 . S
C231 C236 1.350 . S
C231 N239 1.427 . S
C232 H223 0.930 . S
C232 C230 1.378 . S
C232 C233 1.367 . S
C233 C232 1.367 . S
C233 C235 1.433 . S
C234 C230 1.350 . S
C234 C231 1.463 . S
C234 N238 1.427 . S
C235 H225 0.929 . S
C235 C233 1.433 . S
C235 N238 1.384 . S
C236 H227 0.929 . S
C236 C228 1.378 . S
C236 C231 1.350 . S
C237 H224 0.929 . S
C237 C229 1.433 . S
C237 N239 1.384 . S
N238 C234 1.427 . S
N238 C235 1.384 . S
N239 C231 1.427 . S
N239 C237 1.384 . S
H240 C246 0.930 . S
H241 C250 0.930 . S
H242 C255 0.929 . S
H243 C253 0.929 . S
H244 C248 0.929 . S
H245 C254 0.929 . S
C246 H240 0.930 . S
C246 C247 1.367 . S
C246 C254 1.378 . S
C247 C246 1.367 . S
C247 C255 1.433 . S
C248 H244 0.929 . S
C248 C250 1.378 . S
C248 C252 1.350 . S
C249 C252 1.463 . S
C249 C254 1.350 . S
C249 N257 1.427 . S
C250 H241 0.930 . S
C250 C248 1.378 . S
C250 C251 1.367 . S
C251 C250 1.367 . S
C251 C253 1.433 . S
C252 C248 1.350 . S
C252 C249 1.463 . S
C252 N256 1.427 . S
C253 H243 0.929 . S
C253 C251 1.433 . S
C253 N256 1.384 . S
C254 H245 0.929 . S
C254 C246 1.378 . S
C254 C249 1.350 . S
C255 H242 0.929 . S
C255 C247 1.433 . S
C255 N257 1.384 . S
N256 C252 1.427 . S
N256 C253 1.384 . S
N257 C249 1.427 . S
N257 C255 1.384 . S
H258 C264 0.930 . S
H259 C268 0.930 . S
H260 C273 0.929 . S
H261 C271 0.929 . S
H262 C266 0.929 . S
H263 C272 0.929 . S
C264 H258 0.930 . S
C264 C265 1.367 . S
C264 C272 1.378 . S
C265 C264 1.367 . S
C265 C273 1.433 . S
C266 H262 0.929 . S
C266 C268 1.378 . S
C266 C270 1.350 . S
C267 C270 1.463 . S
C267 C272 1.350 . S
C267 N275 1.427 . S
C268 H259 0.930 . S
C268 C266 1.378 . S
C268 C269 1.367 . S
C269 C268 1.367 . S
C269 C271 1.433 . S
C270 C266 1.350 . S
C270 C267 1.463 . S
C270 N274 1.427 . S
C271 H261 0.929 . S
C271 C269 1.433 . S
C271 N274 1.384 . S
C272 H263 0.929 . S
C272 C264 1.378 . S
C272 C267 1.350 . S
C273 H260 0.929 . S
C273 C265 1.433 . S
C273 N275 1.384 . S
N274 C270 1.427 . S
N274 C271 1.384 . S
N275 C267 1.427 . S
N275 C273 1.384 . S
H276 C282 0.930 . S
H277 C286 0.930 . S
H278 C291 0.929 1_554 S
H279 C289 0.929 . S
H280 C284 0.929 . S
H281 C290 0.929 . S
C282 H276 0.930 . S
C282 C283 1.367 . S
C282 C290 1.378 . S
C283 C282 1.367 . S
C283 C291 1.433 . S
C284 H280 0.929 . S
C284 C286 1.378 . S
C284 C288 1.350 . S
C285 C288 1.463 . S
C285 C290 1.350 . S
C285 N293 1.427 . S
C286 H277 0.930 . S
C286 C284 1.378 . S
C286 C287 1.367 . S
C287 C286 1.367 . S
C287 C289 1.433 . S
C288 C284 1.350 . S
C288 C285 1.463 . S
C288 N292 1.427 . S
C289 H279 0.929 . S
C289 C287 1.433 . S
C289 N292 1.384 . S
C290 H281 0.929 . S
C290 C282 1.378 . S
C290 C285 1.350 . S
C291 H278 0.929 1_556 S
C291 C283 1.433 . S
C291 N293 1.384 . S
N292 C288 1.427 . S
N292 C289 1.384 . S
N293 C285 1.427 . S
N293 C291 1.384 . S
H294 C300 0.930 . S
H295 C304 0.930 . S
H296 C309 0.929 . S
H297 C307 0.929 . S
H298 C302 0.929 . S
H299 C308 0.929 . S
C300 H294 0.930 . S
C300 C301 1.367 . S
C300 C308 1.378 . S
C301 C300 1.367 . S
C301 C309 1.433 . S
C302 H298 0.929 . S
C302 C304 1.378 . S
C302 C306 1.350 . S
C303 C306 1.463 . S
C303 C308 1.350 . S
C303 N311 1.427 . S
C304 H295 0.930 . S
C304 C302 1.378 . S
C304 C305 1.367 . S
C305 C304 1.367 . S
C305 C307 1.433 . S
C306 C302 1.350 . S
C306 C303 1.463 . S
C306 N310 1.427 . S
C307 H297 0.929 . S
C307 C305 1.433 . S
C307 N310 1.384 . S
C308 H299 0.929 . S
C308 C300 1.378 . S
C308 C303 1.350 . S
C309 H296 0.929 . S
C309 C301 1.433 . S
C309 N311 1.384 . S
N310 C306 1.427 . S
N310 C307 1.384 . S
N311 C303 1.427 . S
N311 C309 1.384 . S
H312 C318 0.930 . S
H313 C322 0.930 . S
H314 C327 0.929 . S
H315 C325 0.929 . S
H316 C320 0.929 . S
H317 C326 0.929 . S
C318 H312 0.930 . S
C318 C319 1.367 . S
C318 C326 1.378 . S
C319 C318 1.367 . S
C319 C327 1.433 . S
C320 H316 0.929 . S
C320 C322 1.378 . S
C320 C324 1.350 . S
C321 C324 1.463 . S
C321 C326 1.350 . S
C321 N329 1.427 . S
C322 H313 0.930 . S
C322 C320 1.378 . S
C322 C323 1.367 . S
C323 C322 1.367 . S
C323 C325 1.433 . S
C324 C320 1.350 . S
C324 C321 1.463 . S
C324 N328 1.427 . S
C325 H315 0.929 . S
C325 C323 1.433 . S
C325 N328 1.384 . S
C326 H317 0.929 . S
C326 C318 1.378 . S
C326 C321 1.350 . S
C327 H314 0.929 . S
C327 C319 1.433 . S
C327 N329 1.384 . S
N328 C324 1.427 . S
N328 C325 1.384 . S
N329 C321 1.427 . S
N329 C327 1.384 . S
H330 C336 0.930 . S
H331 C340 0.930 . S
H332 C345 0.929 . S
H333 C343 0.929 . S
H334 C338 0.929 . S
H335 C344 0.929 . S
C336 H330 0.930 . S
C336 C337 1.367 . S
C336 C344 1.378 . S
C337 C336 1.367 . S
C337 C345 1.433 . S
C338 H334 0.929 . S
C338 C340 1.378 . S
C338 C342 1.350 . S
C339 C342 1.463 . S
C339 C344 1.350 . S
C339 N347 1.427 . S
C340 H331 0.930 . S
C340 C338 1.378 . S
C340 C341 1.367 . S
C341 C340 1.367 . S
C341 C343 1.433 . S
C342 C338 1.350 . S
C342 C339 1.463 . S
C342 N346 1.427 . S
C343 H333 0.929 . S
C343 C341 1.433 . S
C343 N346 1.384 . S
C344 H335 0.929 . S
C344 C336 1.378 . S
C344 C339 1.350 . S
C345 H332 0.929 . S
C345 C337 1.433 . S
C345 N347 1.384 . S
N346 C342 1.427 . S
N346 C343 1.384 . S
N347 C339 1.427 . S
N347 C345 1.384 . S
H348 C354 0.930 . S
H349 C358 0.930 . S
H350 C363 0.929 . S
H351 C361 0.929 . S
H352 C356 0.929 . S
H353 C362 0.929 . S
C354 H348 0.930 . S
C354 C355 1.367 . S
C354 C362 1.378 . S
C355 C354 1.367 . S
C355 C363 1.433 . S
C356 H352 0.929 . S
C356 C358 1.378 . S
C356 C360 1.350 . S
C357 C360 1.463 . S
C357 C362 1.350 . S
C357 N365 1.427 . S
C358 H349 0.930 . S
C358 C356 1.378 . S
C358 C359 1.367 . S
C359 C358 1.367 . S
C359 C361 1.433 . S
C360 C356 1.350 . S
C360 C357 1.463 . S
C360 N364 1.427 . S
C361 H351 0.929 . S
C361 C359 1.433 . S
C361 N364 1.384 . S
C362 H353 0.929 . S
C362 C354 1.378 . S
C362 C357 1.350 . S
C363 H350 0.929 . S
C363 C355 1.433 . S
C363 N365 1.384 . S
N364 C360 1.427 . S
N364 C361 1.384 . S
N365 C357 1.427 . S
N365 C363 1.384 . S
H366 C372 0.930 . S
H367 C376 0.930 . S
H368 C381 0.929 . S
H369 C379 0.929 . S
H370 C374 0.929 . S
H371 C380 0.929 . S
C372 H366 0.930 . S
C372 C373 1.367 . S
C372 C380 1.378 . S
C373 C372 1.367 . S
C373 C381 1.433 1_554 S
C374 H370 0.929 . S
C374 C376 1.378 . S
C374 C378 1.350 . S
C375 C378 1.463 . S
C375 C380 1.350 . S
C375 N383 1.427 . S
C376 H367 0.930 . S
C376 C374 1.378 . S
C376 C377 1.367 . S
C377 C376 1.367 . S
C377 C379 1.433 . S
C378 C374 1.350 . S
C378 C375 1.463 . S
C378 N382 1.427 . S
C379 H369 0.929 . S
C379 C377 1.433 . S
C379 N382 1.384 . S
C380 H371 0.929 . S
C380 C372 1.378 . S
C380 C375 1.350 . S
C381 H368 0.929 . S
C381 C373 1.433 1_556 S
C381 N383 1.384 1_556 S
N382 C378 1.427 . S
N382 C379 1.384 . S
N383 C375 1.427 . S
N383 C381 1.384 1_554 S
H384 C390 0.930 . S
H385 C394 0.930 . S
H386 C399 0.929 . S
H387 C397 0.929 . S
H388 C392 0.929 . S
H389 C398 0.929 . S
C390 H384 0.930 . S
C390 C391 1.367 . S
C390 C398 1.378 . S
C391 C390 1.367 . S
C391 C399 1.433 . S
C392 H388 0.929 . S
C392 C394 1.378 . S
C392 C396 1.350 . S
C393 C396 1.463 . S
C393 C398 1.350 . S
C393 N401 1.427 . S
C394 H385 0.930 . S
C394 C392 1.378 . S
C394 C395 1.367 . S
C395 C394 1.367 . S
C395 C397 1.433 . S
C396 C392 1.350 . S
C396 C393 1.463 . S
C396 N400 1.427 . S
C397 H387 0.929 . S
C397 C395 1.433 . S
C397 N400 1.384 . S
C398 H389 0.929 . S
C398 C390 1.378 . S
C398 C393 1.350 . S
C399 H386 0.929 . S
C399 C391 1.433 . S
C399 N401 1.384 . S
N400 C396 1.427 . S
N400 C397 1.384 . S
N401 C393 1.427 . S
N401 C399 1.384 . S
H402 C408 0.930 . S
H403 C412 0.930 . S
H404 C417 0.929 . S
H405 C415 0.929 . S
H406 C410 0.929 . S
H407 C416 0.929 . S
C408 H402 0.930 . S
C408 C409 1.367 . S
C408 C416 1.378 . S
C409 C408 1.367 . S
C409 C417 1.433 . S
C410 H406 0.929 . S
C410 C412 1.378 . S
C410 C414 1.350 . S
C411 C414 1.463 . S
C411 C416 1.350 . S
C411 N419 1.427 . S
C412 H403 0.930 . S
C412 C410 1.378 . S
C412 C413 1.367 . S
C413 C412 1.367 . S
C413 C415 1.433 . S
C414 C410 1.350 . S
C414 C411 1.463 . S
C414 N418 1.427 . S
C415 H405 0.929 . S
C415 C413 1.433 . S
C415 N418 1.384 . S
C416 H407 0.929 . S
C416 C408 1.378 . S
C416 C411 1.350 . S
C417 H404 0.929 . S
C417 C409 1.433 . S
C417 N419 1.384 . S
N418 C414 1.427 . S
N418 C415 1.384 . S
N419 C411 1.427 . S
N419 C417 1.384 . S
H420 C426 0.930 . S
H421 C430 0.930 . S
H422 C435 0.929 . S
H423 C433 0.929 . S
H424 C428 0.929 . S
H425 C434 0.929 . S
C426 H420 0.930 . S
C426 C427 1.367 . S
C426 C434 1.378 . S
C427 C426 1.367 . S
C427 C435 1.433 . S
C428 H424 0.929 . S
C428 C430 1.378 . S
C428 C432 1.350 . S
C429 C432 1.463 . S
C429 C434 1.350 . S
C429 N437 1.427 . S
C430 H421 0.930 . S
C430 C428 1.378 . S
C430 C431 1.367 . S
C431 C430 1.367 . S
C431 C433 1.433 . S
C432 C428 1.350 . S
C432 C429 1.463 . S
C432 N436 1.427 . S
C433 H423 0.929 . S
C433 C431 1.433 . S
C433 N436 1.384 . S
C434 H425 0.929 . S
C434 C426 1.378 . S
C434 C429 1.350 . S
C435 H422 0.929 . S
C435 C427 1.433 . S
C435 N437 1.384 . S
N436 C432 1.427 . S
N436 C433 1.384 . S
N437 C429 1.427 . S
N437 C435 1.384 . S
H438 C444 0.930 . S
H439 C448 0.930 . S
H440 C453 0.929 . S
H441 C451 0.929 . S
H442 C446 0.929 . S
H443 C452 0.929 . S
C444 H438 0.930 . S
C444 C445 1.367 . S
C444 C452 1.378 . S
C445 C444 1.367 . S
C445 C453 1.433 . S
C446 H442 0.929 . S
C446 C448 1.378 . S
C446 C450 1.350 . S
C447 C450 1.463 . S
C447 C452 1.350 . S
C447 N455 1.427 . S
C448 H439 0.930 . S
C448 C446 1.378 . S
C448 C449 1.367 . S
C449 C448 1.367 . S
C449 C451 1.433 . S
C450 C446 1.350 . S
C450 C447 1.463 . S
C450 N454 1.427 . S
C451 H441 0.929 . S
C451 C449 1.433 . S
C451 N454 1.384 . S
C452 H443 0.929 . S
C452 C444 1.378 . S
C452 C447 1.350 . S
C453 H440 0.929 . S
C453 C445 1.433 . S
C453 N455 1.384 . S
N454 C450 1.427 . S
N454 C451 1.384 . S
N455 C447 1.427 . S
N455 C453 1.384 . S
H456 C462 0.930 . S
H457 C466 0.930 . S
H458 C471 0.929 . S
H459 C469 0.929 . S
H460 C464 0.929 . S
H461 C470 0.929 . S
C462 H456 0.930 . S
C462 C463 1.367 . S
C462 C470 1.378 . S
C463 C462 1.367 . S
C463 C471 1.433 . S
C464 H460 0.929 . S
C464 C466 1.378 . S
C464 C468 1.350 . S
C465 C468 1.463 . S
C465 C470 1.350 . S
C465 N473 1.427 . S
C466 H457 0.930 . S
C466 C464 1.378 . S
C466 C467 1.367 . S
C467 C466 1.367 . S
C467 C469 1.433 . S
C468 C464 1.350 . S
C468 C465 1.463 . S
C468 N472 1.427 . S
C469 H459 0.929 . S
C469 C467 1.433 . S
C469 N472 1.384 . S
C470 H461 0.929 . S
C470 C462 1.378 . S
C470 C465 1.350 . S
C471 H458 0.929 . S
C471 C463 1.433 . S
C471 N473 1.384 . S
N472 C468 1.427 . S
N472 C469 1.384 . S
N473 C465 1.427 . S
N473 C471 1.384 . S
H474 C480 0.930 . S
H475 C484 0.930 . S
H476 C489 0.929 . S
H477 C487 0.929 . S
H478 C482 0.929 . S
H479 C488 0.929 . S
C480 H474 0.930 . S
C480 C481 1.367 . S
C480 C488 1.378 . S
C481 C480 1.367 . S
C481 C489 1.433 . S
C482 H478 0.929 . S
C482 C484 1.378 1_556 S
C482 C486 1.350 . S
C483 C486 1.463 . S
C483 C488 1.350 . S
C483 N491 1.427 . S
C484 H475 0.930 . S
C484 C482 1.378 1_554 S
C484 C485 1.367 . S
C485 C484 1.367 . S
C485 C487 1.433 1_554 S
C486 C482 1.350 . S
C486 C483 1.463 . S
C486 N490 1.427 . S
C487 H477 0.929 . S
C487 C485 1.433 1_556 S
C487 N490 1.384 . S
C488 H479 0.929 . S
C488 C480 1.378 . S
C488 C483 1.350 . S
C489 H476 0.929 . S
C489 C481 1.433 . S
C489 N491 1.384 . S
N490 C486 1.427 . S
N490 C487 1.384 . S
N491 C483 1.427 . S
N491 C489 1.384 . S
H492 C498 0.930 . S
H493 C502 0.930 . S
H494 C507 0.929 . S
H495 C505 0.929 . S
H496 C500 0.929 . S
H497 C506 0.929 . S
C498 H492 0.930 . S
C498 C499 1.367 . S
C498 C506 1.378 . S
C499 C498 1.367 . S
C499 C507 1.433 . S
C500 H496 0.929 . S
C500 C502 1.378 . S
C500 C504 1.350 . S
C501 C504 1.463 . S
C501 C506 1.350 . S
C501 N509 1.427 . S
C502 H493 0.930 . S
C502 C500 1.378 . S
C502 C503 1.367 . S
C503 C502 1.367 . S
C503 C505 1.433 . S
C504 C500 1.350 . S
C504 C501 1.463 . S
C504 N508 1.427 . S
C505 H495 0.929 . S
C505 C503 1.433 . S
C505 N508 1.384 . S
C506 H497 0.929 . S
C506 C498 1.378 . S
C506 C501 1.350 . S
C507 H494 0.929 . S
C507 C499 1.433 . S
C507 N509 1.384 . S
N508 C504 1.427 . S
N508 C505 1.384 . S
N509 C501 1.427 . S
N509 C507 1.384 . S
H510 C516 0.930 . S
H511 C520 0.930 . S
H512 C525 0.929 . S
H513 C523 0.929 . S
H514 C518 0.929 . S
H515 C524 0.929 . S
C516 H510 0.930 . S
C516 C517 1.367 . S
C516 C524 1.378 . S
C517 C516 1.367 . S
C517 C525 1.433 . S
C518 H514 0.929 . S
C518 C520 1.378 . S
C518 C522 1.350 . S
C519 C522 1.463 . S
C519 C524 1.350 . S
C519 N527 1.427 . S
C520 H511 0.930 . S
C520 C518 1.378 . S
C520 C521 1.367 . S
C521 C520 1.367 . S
C521 C523 1.433 . S
C522 C518 1.350 . S
C522 C519 1.463 . S
C522 N526 1.427 . S
C523 H513 0.929 . S
C523 C521 1.433 . S
C523 N526 1.384 . S
C524 H515 0.929 . S
C524 C516 1.378 . S
C524 C519 1.350 . S
C525 H512 0.929 . S
C525 C517 1.433 . S
C525 N527 1.384 . S
N526 C522 1.427 . S
N526 C523 1.384 . S
N527 C519 1.427 . S
N527 C525 1.384 . S
H528 C534 0.930 . S
H529 C538 0.930 . S
H530 C543 0.929 . S
H531 C541 0.929 . S
H532 C536 0.929 . S
H533 C542 0.929 . S
C534 H528 0.930 . S
C534 C535 1.367 . S
C534 C542 1.378 . S
C535 C534 1.367 . S
C535 C543 1.433 . S
C536 H532 0.929 . S
C536 C538 1.378 . S
C536 C540 1.350 . S
C537 C540 1.463 . S
C537 C542 1.350 . S
C537 N545 1.427 . S
C538 H529 0.930 . S
C538 C536 1.378 . S
C538 C539 1.367 . S
C539 C538 1.367 . S
C539 C541 1.433 . S
C540 C536 1.350 . S
C540 C537 1.463 . S
C540 N544 1.427 . S
C541 H531 0.929 . S
C541 C539 1.433 . S
C541 N544 1.384 . S
C542 H533 0.929 . S
C542 C534 1.378 . S
C542 C537 1.350 . S
C543 H530 0.929 . S
C543 C535 1.433 . S
C543 N545 1.384 . S
N544 C540 1.427 . S
N544 C541 1.384 . S
N545 C537 1.427 . S
N545 C543 1.384 . S
H546 C552 0.930 . S
H547 C556 0.930 . S
H548 C561 0.929 . S
H549 C559 0.929 . S
H550 C554 0.929 . S
H551 C560 0.929 . S
C552 H546 0.930 . S
C552 C553 1.367 . S
C552 C560 1.378 . S
C553 C552 1.367 . S
C553 C561 1.433 . S
C554 H550 0.929 . S
C554 C556 1.378 . S
C554 C558 1.350 . S
C555 C558 1.463 . S
C555 C560 1.350 . S
C555 N563 1.427 . S
C556 H547 0.930 . S
C556 C554 1.378 . S
C556 C557 1.367 . S
C557 C556 1.367 . S
C557 C559 1.433 . S
C558 C554 1.350 . S
C558 C555 1.463 . S
C558 N562 1.427 . S
C559 H549 0.929 . S
C559 C557 1.433 . S
C559 N562 1.384 . S
C560 H551 0.929 . S
C560 C552 1.378 . S
C560 C555 1.350 . S
C561 H548 0.929 . S
C561 C553 1.433 . S
C561 N563 1.384 . S
N562 C558 1.427 . S
N562 C559 1.384 . S
N563 C555 1.427 . S
N563 C561 1.384 . S
H564 C570 0.930 . S
H565 C574 0.930 . S
H566 C579 0.929 . S
H567 C577 0.929 . S
H568 C572 0.929 . S
H569 C578 0.929 . S
C570 H564 0.930 . S
C570 C571 1.367 . S
C570 C578 1.378 . S
C571 C570 1.367 . S
C571 C579 1.433 . S
C572 H568 0.929 . S
C572 C574 1.378 . S
C572 C576 1.350 . S
C573 C576 1.463 . S
C573 C578 1.350 . S
C573 N581 1.427 . S
C574 H565 0.930 . S
C574 C572 1.378 . S
C574 C575 1.367 . S
C575 C574 1.367 . S
C575 C577 1.433 . S
C576 C572 1.350 . S
C576 C573 1.463 . S
C576 N580 1.427 . S
C577 H567 0.929 . S
C577 C575 1.433 . S
C577 N580 1.384 . S
C578 H569 0.929 . S
C578 C570 1.378 . S
C578 C573 1.350 . S
C579 H566 0.929 . S
C579 C571 1.433 . S
C579 N581 1.384 . S
N580 C576 1.427 . S
N580 C577 1.384 . S
N581 C573 1.427 . S
N581 C579 1.384 . S
H582 C588 0.930 . S
H583 C592 0.930 . S
H584 C597 0.929 . S
H585 C595 0.929 . S
H586 C590 0.929 . S
H587 C596 0.929 . S
C588 H582 0.930 . S
C588 C589 1.367 . S
C588 C596 1.378 . S
C589 C588 1.367 . S
C589 C597 1.433 . S
C590 H586 0.929 . S
C590 C592 1.378 . S
C590 C594 1.350 . S
C591 C594 1.463 . S
C591 C596 1.350 . S
C591 N599 1.427 . S
C592 H583 0.930 . S
C592 C590 1.378 . S
C592 C593 1.367 . S
C593 C592 1.367 . S
C593 C595 1.433 . S
C594 C590 1.350 . S
C594 C591 1.463 . S
C594 N598 1.427 . S
C595 H585 0.929 . S
C595 C593 1.433 . S
C595 N598 1.384 . S
C596 H587 0.929 . S
C596 C588 1.378 . S
C596 C591 1.350 . S
C597 H584 0.929 . S
C597 C589 1.433 . S
C597 N599 1.384 . S
N598 C594 1.427 . S
N598 C595 1.384 . S
N599 C591 1.427 . S
N599 C597 1.384 . S
H600 C606 0.930 . S
H601 C610 0.930 . S
H602 C615 0.929 . S
H603 C613 0.929 . S
H604 C608 0.929 . S
H605 C614 0.929 . S
C606 H600 0.930 . S
C606 C607 1.367 . S
C606 C614 1.378 . S
C607 C606 1.367 . S
C607 C615 1.433 . S
C608 H604 0.929 . S
C608 C610 1.378 1_554 S
C608 C612 1.350 . S
C609 C612 1.463 . S
C609 C614 1.350 . S
C609 N617 1.427 . S
C610 H601 0.930 . S
C610 C608 1.378 1_556 S
C610 C611 1.367 . S
C611 C610 1.367 . S
C611 C613 1.433 . S
C612 C608 1.350 . S
C612 C609 1.463 . S
C612 N616 1.427 . S
C613 H603 0.929 . S
C613 C611 1.433 . S
C613 N616 1.384 1_556 S
C614 H605 0.929 . S
C614 C606 1.378 . S
C614 C609 1.350 . S
C615 H602 0.929 . S
C615 C607 1.433 . S
C615 N617 1.384 . S
N616 C612 1.427 . S
N616 C613 1.384 1_554 S
N617 C609 1.427 . S
N617 C615 1.384 . S
H618 C624 0.930 . S
H619 C628 0.930 . S
H620 C633 0.929 . S
H621 C631 0.929 . S
H622 C626 0.929 . S
H623 C632 0.929 . S
C624 H618 0.930 . S
C624 C625 1.367 . S
C624 C632 1.378 . S
C625 C624 1.367 . S
C625 C633 1.433 . S
C626 H622 0.929 . S
C626 C628 1.378 . S
C626 C630 1.350 . S
C627 C630 1.463 . S
C627 C632 1.350 . S
C627 N635 1.427 . S
C628 H619 0.930 . S
C628 C626 1.378 . S
C628 C629 1.367 . S
C629 C628 1.367 . S
C629 C631 1.433 . S
C630 C626 1.350 . S
C630 C627 1.463 . S
C630 N634 1.427 . S
C631 H621 0.929 . S
C631 C629 1.433 . S
C631 N634 1.384 . S
C632 H623 0.929 . S
C632 C624 1.378 . S
C632 C627 1.350 . S
C633 H620 0.929 . S
C633 C625 1.433 . S
C633 N635 1.384 . S
N634 C630 1.427 . S
N634 C631 1.384 . S
N635 C627 1.427 . S
N635 C633 1.384 . S
C215 C196 1.606 . S
C211 C19 1.546 . S
C229 C40 1.546 . S
C233 C131 1.613 . S
C247 C51 1.545 . S
C251 C149 1.616 . S
C265 C72 1.525 . S
C269 C162 1.602 . S
C287 C170 1.610 . S
C283 C103 1.548 . S
C301 C114 1.536 . S
C305 C182 1.607 . S
C319 C30 1.542 . S
C323 C144 1.624 . S
C337 C61 1.548 . S
C341 C157 1.608 . S
C355 C82 1.538 . S
C359 C175 1.601 . S
C377 C181 1.616 . S
C373 C93 1.537 1_554 S
C395 C201 1.597 . S
C391 C124 1.529 . S
C413 C136 1.610 . S
C409 C9 1.520 . S
C427 C17 1.530 . S
C431 C142 1.600 . S
C445 C38 1.519 . S
C449 C155 1.599 . S
C467 C169 1.594 . S
C463 C54 1.512 . S
C481 C75 1.528 . S
C485 C183 1.604 . S
C503 C195 1.591 . S
C499 C101 1.526 . S
C521 C130 1.594 . S
C517 C117 1.525 . S
C539 C194 1.597 . S
C535 C33 1.516 . S
C553 C59 1.522 . S
C557 C129 1.598 . S
C575 C143 1.599 . S
C571 C80 1.525 . S
C589 C96 1.522 . S
C593 C156 1.590 . S
C607 C122 1.530 . S
C611 C168 1.601 . S
C625 C12 1.523 . S
C629 C188 1.600 . S
