# Generated by pormake.
# Topology wbl, (4,4)-cn, num edge types: 1
# Building blocks:
#     Node 0, Type 0, BuildingBlock: MIFKUJ_clean_linker_1, # of connection points: 4
#     Node 1, Type 0, BuildingBlock: MIFKUJ_clean_linker_1, # of connection points: 4
#     Node 2, Type 0, BuildingBlock: MIFKUJ_clean_linker_1, # of connection points: 4
#     Node 3, Type 0, BuildingBlock: MIFKUJ_clean_linker_1, # of connection points: 4
#     Node 4, Type 0, BuildingBlock: MIFKUJ_clean_linker_1, # of connection points: 4
#     Node 5, Type 0, BuildingBlock: MIFKUJ_clean_linker_1, # of connection points: 4
#     Node 6, Type 0, BuildingBlock: MIFKUJ_clean_linker_1, # of connection points: 4
#     Node 7, Type 0, BuildingBlock: MIFKUJ_clean_linker_1, # of connection points: 4
#     Node 8, Type 1, BuildingBlock: NAHDIM_clean_sbu_0, # of connection points: 4
#     Node 9, Type 1, BuildingBlock: NAHDIM_clean_sbu_0, # of connection points: 4
#     Node 10, Type 1, BuildingBlock: NAHDIM_clean_sbu_0, # of connection points: 4
#     Node 11, Type 1, BuildingBlock: NAHDIM_clean_sbu_0, # of connection points: 4
#     Node 12, Type 1, BuildingBlock: NAHDIM_clean_sbu_0, # of connection points: 4
#     Node 13, Type 1, BuildingBlock: NAHDIM_clean_sbu_0, # of connection points: 4
#     Node 14, Type 1, BuildingBlock: NAHDIM_clean_sbu_0, # of connection points: 4
#     Node 15, Type 1, BuildingBlock: NAHDIM_clean_sbu_0, # of connection points: 4
#     Edge 16, Type (0, 1), BuildingBlock: TEMPAE_clean_linker_10, # of connection points: 2
#     Edge 17, Type (0, 1), BuildingBlock: TEMPAE_clean_linker_10, # of connection points: 2
#     Edge 18, Type (0, 1), BuildingBlock: TEMPAE_clean_linker_10, # of connection points: 2
#     Edge 19, Type (0, 1), BuildingBlock: TEMPAE_clean_linker_10, # of connection points: 2
#     Edge 20, Type (0, 1), BuildingBlock: TEMPAE_clean_linker_10, # of connection points: 2
#     Edge 21, Type (0, 1), BuildingBlock: TEMPAE_clean_linker_10, # of connection points: 2
#     Edge 22, Type (0, 1), BuildingBlock: TEMPAE_clean_linker_10, # of connection points: 2
#     Edge 23, Type (0, 1), BuildingBlock: TEMPAE_clean_linker_10, # of connection points: 2
#     Edge 24, Type (0, 1), BuildingBlock: TEMPAE_clean_linker_10, # of connection points: 2
#     Edge 25, Type (0, 1), BuildingBlock: TEMPAE_clean_linker_10, # of connection points: 2
#     Edge 26, Type (0, 1), BuildingBlock: TEMPAE_clean_linker_10, # of connection points: 2
#     Edge 27, Type (0, 1), BuildingBlock: TEMPAE_clean_linker_10, # of connection points: 2
#     Edge 28, Type (0, 1), BuildingBlock: TEMPAE_clean_linker_10, # of connection points: 2
#     Edge 29, Type (0, 1), BuildingBlock: TEMPAE_clean_linker_10, # of connection points: 2
#     Edge 30, Type (0, 1), BuildingBlock: TEMPAE_clean_linker_10, # of connection points: 2
#     Edge 31, Type (0, 1), BuildingBlock: TEMPAE_clean_linker_10, # of connection points: 2
#     Edge 32, Type (0, 1), BuildingBlock: TEMPAE_clean_linker_10, # of connection points: 2
#     Edge 33, Type (0, 1), BuildingBlock: TEMPAE_clean_linker_10, # of connection points: 2
#     Edge 34, Type (0, 1), BuildingBlock: TEMPAE_clean_linker_10, # of connection points: 2
#     Edge 35, Type (0, 1), BuildingBlock: TEMPAE_clean_linker_10, # of connection points: 2
#     Edge 36, Type (0, 1), BuildingBlock: TEMPAE_clean_linker_10, # of connection points: 2
#     Edge 37, Type (0, 1), BuildingBlock: TEMPAE_clean_linker_10, # of connection points: 2
#     Edge 38, Type (0, 1), BuildingBlock: TEMPAE_clean_linker_10, # of connection points: 2
#     Edge 39, Type (0, 1), BuildingBlock: TEMPAE_clean_linker_10, # of connection points: 2
#     Edge 40, Type (0, 1), BuildingBlock: TEMPAE_clean_linker_10, # of connection points: 2
#     Edge 41, Type (0, 1), BuildingBlock: TEMPAE_clean_linker_10, # of connection points: 2
#     Edge 42, Type (0, 1), BuildingBlock: TEMPAE_clean_linker_10, # of connection points: 2
#     Edge 43, Type (0, 1), BuildingBlock: TEMPAE_clean_linker_10, # of connection points: 2
#     Edge 44, Type (0, 1), BuildingBlock: TEMPAE_clean_linker_10, # of connection points: 2
#     Edge 45, Type (0, 1), BuildingBlock: TEMPAE_clean_linker_10, # of connection points: 2
#     Edge 46, Type (0, 1), BuildingBlock: TEMPAE_clean_linker_10, # of connection points: 2
#     Edge 47, Type (0, 1), BuildingBlock: TEMPAE_clean_linker_10, # of connection points: 2
# Relax obj value: 0.143
# Max RMSD: 0.133
# Mean RMSD: 0.125
data_MOF--net-wbl--node1-NAHDIM_clean_sbu_0--node2-MIFKUJ_clean_linker_1--edge1-TEMPAE_clean_linker_10
_symmetry_space_group_name_H-M    P1
_symmetry_Int_Tables_number       1
_symmetry_cell_setting            triclinic
loop_
_symmetry_equiv_pos_as_xyz
'x, y, z'
_cell_length_a     47.58373
_cell_length_b     46.062544
_cell_length_c     73.55253
_cell_angle_alpha  90.021264
_cell_angle_beta   90.00305
_cell_angle_gamma 90.027051
loop_
_atom_site_label
_atom_site_type_symbol
_atom_site_fract_x
_atom_site_fract_y
_atom_site_fract_z
_atom_type_partial_charge
H0 H 0.00913 0.07235 0.36043 0.0
H1 H 0.98043 0.10267 0.38052 0.0
H2 H 0.90606 0.0564 0.36332 0.0
H3 H 0.93492 0.02613 0.34318 0.0
H4 H 0.01288 0.01118 0.36311 0.0
H5 H 0.9849 0.08427 0.31974 0.0
H6 H 0.94998 0.11372 0.30381 0.0
H7 H 0.91398 0.03589 0.28063 0.0
H8 H 0.94821 0.00651 0.29718 0.0
H9 H 0.01036 0.94584 0.29545 0.0
H10 H 0.04151 0.91318 0.27852 0.0
H11 H 0.11357 0.95408 0.30357 0.0
H12 H 0.08252 0.98718 0.31981 0.0
H13 H 0.00415 0.00383 0.29604 0.0
H14 H 0.02856 0.93045 0.33848 0.0
H15 H 0.05822 0.89803 0.35646 0.0
H16 H 0.09704 0.9724 0.38206 0.0
H17 H 0.06807 0.0047 0.36354 0.0
C18 C 0.97411 0.04712 0.35031 0.0
C19 C 0.98661 0.06898 0.36085 0.0
C20 C 0.9702 0.08635 0.37222 0.0
C21 C 0.94106 0.08185 0.37344 0.0
C22 C 0.9285 0.06021 0.36267 0.0
C23 C 0.9449 0.04305 0.35113 0.0
C24 C 0.99189 0.02751 0.33931 0.0
C25 C 0.01132 0.00988 0.34841 0.0
C26 C 0.98898 0.02507 0.32023 0.0
C27 C 0.96882 0.04317 0.3099 0.0
C28 C 0.96936 0.07356 0.31132 0.0
C29 C 0.94962 0.09038 0.30203 0.0
C30 C 0.92914 0.07711 0.29103 0.0
C31 C 0.92922 0.04672 0.28922 0.0
C32 C 0.94888 0.02992 0.29856 0.0
C33 C 0.04414 0.9687 0.30903 0.0
C34 C 0.0329 0.94792 0.2971 0.0
C35 C 0.05068 0.92915 0.28756 0.0
C36 C 0.07999 0.93104 0.28971 0.0
C37 C 0.09112 0.9523 0.3014 0.0
C38 C 0.07339 0.97104 0.31086 0.0
C39 C 0.02544 0.98774 0.31982 0.0
C40 C 0.00581 0.00519 0.31072 0.0
C41 C 0.02782 0.9897 0.33896 0.0
C42 C 0.04628 0.97002 0.34955 0.0
C43 C 0.04377 0.93977 0.34776 0.0
C44 C 0.06054 0.92126 0.35817 0.0
C45 C 0.07999 0.93264 0.37068 0.0
C46 C 0.08256 0.96295 0.37236 0.0
C47 C 0.06583 0.98144 0.36192 0.0
H48 H 0.98742 0.44855 0.5517 0.0
H49 H 0.95584 0.41399 0.53684 0.0
H50 H 0.88452 0.45685 0.56141 0.0
H51 H 0.91611 0.49197 0.57561 0.0
H52 H 0.99554 0.50656 0.55201 0.0
H53 H 0.96822 0.4335 0.59488 0.0
H54 H 0.93884 0.40277 0.6142 0.0
H55 H 0.90185 0.47935 0.63827 0.0
H56 H 0.93142 0.50997 0.61897 0.0
H57 H 0.99684 0.56946 0.62015 0.0
H58 H 0.02876 0.59546 0.64051 0.0
H59 H 0.09928 0.54992 0.61694 0.0
H60 H 0.06726 0.52402 0.5966 0.0
H61 H 0.98827 0.51174 0.61926 0.0
H62 H 0.01437 0.58458 0.57542 0.0
H63 H 0.04987 0.61499 0.56094 0.0
H64 H 0.09201 0.53815 0.541 0.0
H65 H 0.0557 0.50785 0.55514 0.0
C66 C 0.95414 0.47253 0.56498 0.0
C67 C 0.96495 0.45084 0.55357 0.0
C68 C 0.94689 0.43095 0.54524 0.0
C69 C 0.9177 0.43244 0.54816 0.0
C70 C 0.90686 0.45517 0.5588 0.0
C71 C 0.92491 0.47511 0.56706 0.0
C72 C 0.97343 0.49108 0.57572 0.0
C73 C 0.99405 0.50751 0.56672 0.0
C74 C 0.97138 0.49265 0.5949 0.0
C75 C 0.95191 0.47402 0.60545 0.0
C76 C 0.95341 0.44366 0.60408 0.0
C77 C 0.93657 0.42612 0.61511 0.0
C78 C 0.9181 0.43865 0.6278 0.0
C79 C 0.91614 0.46907 0.62879 0.0
C80 C 0.93295 0.48658 0.61775 0.0
C81 C 0.02967 0.54494 0.60679 0.0
C82 C 0.01921 0.56527 0.61927 0.0
C83 C 0.03744 0.58002 0.63093 0.0
C84 C 0.06652 0.57462 0.63039 0.0
C85 C 0.07704 0.55481 0.61753 0.0
C86 C 0.05876 0.54 0.6059 0.0
C87 C 0.00999 0.5275 0.59559 0.0
C88 C 0.98946 0.51106 0.60453 0.0
C89 C 0.01222 0.52583 0.57645 0.0
C90 C 0.03259 0.54403 0.56644 0.0
C91 C 0.03116 0.57433 0.56781 0.0
C92 C 0.05161 0.59164 0.55965 0.0
C93 C 0.07406 0.57899 0.55005 0.0
C94 C 0.07494 0.54859 0.54821 0.0
C95 C 0.05426 0.53125 0.55628 0.0
H96 H 0.51666 0.57429 0.86689 0.0
H97 H 0.48888 0.60495 0.88734 0.0
H98 H 0.41332 0.56062 0.87031 0.0
H99 H 0.44124 0.52997 0.84988 0.0
H100 H 0.51886 0.51231 0.86869 0.0
H101 H 0.49142 0.58836 0.82631 0.0
H102 H 0.45455 0.61841 0.81272 0.0
H103 H 0.41512 0.54129 0.791 0.0
H104 H 0.45197 0.51148 0.80456 0.0
H105 H 0.51396 0.45105 0.7994 0.0
H106 H 0.54415 0.41858 0.78162 0.0
H107 H 0.61734 0.45548 0.80771 0.0
H108 H 0.58728 0.48842 0.82481 0.0
H109 H 0.50886 0.50868 0.80156 0.0
H110 H 0.53213 0.43242 0.84169 0.0
H111 H 0.56 0.39776 0.85916 0.0
H112 H 0.59971 0.46885 0.8877 0.0
H113 H 0.57279 0.5034 0.86955 0.0
C114 C 0.48096 0.55 0.85687 0.0
C115 C 0.49408 0.57137 0.86747 0.0
C116 C 0.47821 0.58895 0.87903 0.0
C117 C 0.44898 0.58512 0.88037 0.0
C118 C 0.43584 0.56389 0.86958 0.0
C119 C 0.4517 0.54651 0.85787 0.0
C120 C 0.49808 0.53048 0.84537 0.0
C121 C 0.51713 0.51184 0.85398 0.0
C122 C 0.49473 0.52906 0.82629 0.0
C123 C 0.47419 0.54766 0.81665 0.0
C124 C 0.47489 0.57799 0.81853 0.0
C125 C 0.45385 0.59511 0.81077 0.0
C126 C 0.43188 0.58221 0.80085 0.0
C127 C 0.43194 0.55194 0.79836 0.0
C128 C 0.45293 0.53484 0.80615 0.0
C129 C 0.54837 0.47192 0.81356 0.0
C130 C 0.53654 0.45231 0.8011 0.0
C131 C 0.55377 0.43364 0.79107 0.0
C132 C 0.58312 0.43446 0.79325 0.0
C133 C 0.59485 0.45455 0.8055 0.0
C134 C 0.57767 0.47319 0.81545 0.0
C135 C 0.53025 0.49084 0.82486 0.0
C136 C 0.51092 0.50928 0.81625 0.0
C137 C 0.53288 0.49162 0.84403 0.0
C138 C 0.55057 0.47056 0.85416 0.0
C139 C 0.54725 0.44056 0.85145 0.0
C140 C 0.56296 0.42074 0.86161 0.0
C141 C 0.58208 0.4305 0.87486 0.0
C142 C 0.58551 0.46057 0.87743 0.0
C143 C 0.56992 0.48037 0.86719 0.0
H144 H 0.49033 0.945 0.0532 0.0
H145 H 0.46073 0.91264 0.03518 0.0
H146 H 0.38665 0.95049 0.05959 0.0
H147 H 0.41636 0.98383 0.07686 0.0
H148 H 0.49672 0.002 0.05546 0.0
H149 H 0.46735 0.92613 0.09818 0.0
H150 H 0.43558 0.89638 0.11673 0.0
H151 H 0.39628 0.97426 0.13731 0.0
H152 H 0.42797 0.00379 0.11876 0.0
H153 H 0.49799 0.0595 0.12548 0.0
H154 H 0.53054 0.08399 0.14609 0.0
H155 H 0.59978 0.03671 0.12218 0.0
H156 H 0.56711 0.01286 0.1013 0.0
H157 H 0.48703 0.00204 0.12263 0.0
H158 H 0.51891 0.07738 0.08514 0.0
H159 H 0.55357 0.10912 0.07123 0.0
H160 H 0.58584 0.03678 0.04009 0.0
H161 H 0.55196 0.0046 0.05502 0.0
C162 C 0.45559 0.96647 0.06662 0.0
C163 C 0.4677 0.94661 0.05448 0.0
C164 C 0.45075 0.92795 0.04431 0.0
C165 C 0.42134 0.92872 0.04612 0.0
C166 C 0.40922 0.94942 0.05779 0.0
C167 C 0.42619 0.96824 0.06785 0.0
C168 C 0.47385 0.98469 0.07832 0.0
C169 C 0.49483 0.00173 0.07016 0.0
C170 C 0.47077 0.98523 0.09744 0.0
C171 C 0.44991 0.96711 0.10711 0.0
C172 C 0.45156 0.93671 0.10647 0.0
C173 C 0.43354 0.91979 0.1171 0.0
C174 C 0.4135 0.93305 0.12844 0.0
C175 C 0.41129 0.96346 0.12854 0.0
C176 C 0.42947 0.98034 0.11807 0.0
C177 C 0.53015 0.03448 0.11183 0.0
C178 C 0.5202 0.05453 0.12465 0.0
C179 C 0.53883 0.06839 0.13647 0.0
C180 C 0.56778 0.06219 0.13587 0.0
C181 C 0.5777 0.04228 0.12286 0.0
C182 C 0.55905 0.02856 0.11096 0.0
C183 C 0.51017 0.01891 0.09983 0.0
C184 C 0.48888 0.00239 0.10792 0.0
C185 C 0.51282 0.01914 0.08067 0.0
C186 C 0.53315 0.0385 0.07138 0.0
C187 C 0.53363 0.06824 0.07547 0.0
C188 C 0.55324 0.08648 0.06728 0.0
C189 C 0.57246 0.07555 0.05446 0.0
C190 C 0.57157 0.04583 0.05007 0.0
C191 C 0.55206 0.02747 0.05845 0.0
H192 H 0.97465 0.58016 0.88999 0.0
H193 H 0.00239 0.61215 0.87042 0.0
H194 H 0.07877 0.57455 0.89175 0.0
H195 H 0.05089 0.54263 0.91128 0.0
H196 H 0.97381 0.52052 0.89006 0.0
H197 H -0.0006 0.59754 0.93245 0.0
H198 H 0.03652 0.62782 0.94564 0.0
H199 H 0.07544 0.55119 0.96831 0.0
H200 H 0.0385 0.52115 0.95506 0.0
H201 H 0.97906 0.45984 0.95928 0.0
H202 H 0.94979 0.42621 0.97685 0.0
H203 H 0.87571 0.46029 0.95037 0.0
H204 H 0.90483 0.49441 0.93348 0.0
H205 H 0.9821 0.51753 0.95729 0.0
H206 H 0.96195 0.44054 0.91669 0.0
H207 H 0.93526 0.40525 0.89887 0.0
H208 H 0.8938 0.47547 0.87059 0.0
H209 H 0.91961 0.51059 0.88903 0.0
C210 C 0.0107 0.55921 0.90218 0.0
C211 C 0.99737 0.57889 0.89047 0.0
C212 C 0.01323 0.5971 0.87929 0.0
C213 C 0.04275 0.59587 0.87956 0.0
C214 C 0.05607 0.5763 0.89144 0.0
C215 C 0.04018 0.55801 0.90257 0.0
C216 C 0.99366 0.53933 0.91355 0.0
C217 C 0.97517 0.52022 0.90479 0.0
C218 C 0.99642 0.53815 0.9327 0.0
C219 C 0.01646 0.55706 0.94257 0.0
C220 C 0.01581 0.58735 0.94042 0.0
C221 C 0.03699 0.6046 0.94794 0.0
C222 C 0.05894 0.59186 0.95793 0.0
C223 C 0.05864 0.5617 0.96086 0.0
C224 C 0.03757 0.54448 0.95327 0.0
C225 C 0.94413 0.4794 0.94494 0.0
C226 C 0.95647 0.46023 0.95745 0.0
C227 C 0.93977 0.44089 0.96736 0.0
C228 C 0.91045 0.44057 0.965 0.0
C229 C 0.89818 0.46023 0.95271 0.0
C230 C 0.91483 0.47955 0.94288 0.0
C231 C 0.96178 0.49902 0.9338 0.0
C232 C 0.98039 0.51804 0.94259 0.0
C233 C 0.95959 0.4997 0.91461 0.0
C234 C 0.94257 0.47824 0.90433 0.0
C235 C 0.94671 0.44833 0.9069 0.0
C236 C 0.93167 0.42817 0.89655 0.0
C237 C 0.91241 0.43753 0.88329 0.0
C238 C 0.90814 0.4675 0.88088 0.0
C239 C 0.92308 0.48763 0.89128 0.0
H240 H 0.48466 0.55019 0.20142 0.0
H241 H 0.45078 0.58373 0.21492 0.0
H242 H 0.38324 0.53926 0.18718 0.0
H243 H 0.41719 0.50518 0.17417 0.0
H244 H 0.49204 0.49142 0.20242 0.0
H245 H 0.47046 0.56474 0.15597 0.0
H246 H 0.43986 0.59232 0.13543 0.0
H247 H 0.40862 0.512 0.11278 0.0
H248 H 0.43905 0.48461 0.1334 0.0
H249 H 0.51059 0.41675 0.1494 0.0
H250 H 0.54328 0.38915 0.13019 0.0
H251 H 0.60045 0.46203 0.13006 0.0
H252 H 0.56753 0.48954 0.14904 0.0
H253 H 0.49809 0.48786 0.13508 0.0
H254 H 0.49888 0.42872 0.20096 0.0
H255 H 0.52951 0.39729 0.219 0.0
H256 H 0.60172 0.44687 0.20143 0.0
H257 H 0.57077 0.47876 0.18386 0.0
C258 C 0.45347 0.52549 0.1866 0.0
C259 C 0.46251 0.5474 0.19848 0.0
C260 C 0.44317 0.56666 0.20606 0.0
C261 C 0.4144 0.56431 0.20193 0.0
C262 C 0.40524 0.54153 0.19067 0.0
C263 C 0.42463 0.52222 0.1831 0.0
C264 C 0.47443 0.50708 0.17724 0.0
C265 C 0.49342 0.4908 0.1877 0.0
C266 C 0.47605 0.50587 0.15805 0.0
C267 C 0.4569 0.52267 0.14621 0.0
C268 C 0.45681 0.55313 0.14669 0.0
C269 C 0.43946 0.56882 0.13492 0.0
C270 C 0.42186 0.55427 0.12255 0.0
C271 C 0.42172 0.52376 0.12232 0.0
C272 C 0.43922 0.50812 0.13397 0.0
C273 C 0.53688 0.45498 0.15068 0.0
C274 C 0.53039 0.42651 0.14544 0.0
C275 C 0.54897 0.41088 0.13446 0.0
C276 C 0.57435 0.4235 0.12867 0.0
C277 C 0.58119 0.45168 0.1345 0.0
C278 C 0.56243 0.46741 0.14528 0.0
C279 C 0.51581 0.47275 0.16026 0.0
C280 C 0.4967 0.48867 0.1498 0.0
C281 C 0.51406 0.47359 0.17939 0.0
C282 C 0.53267 0.4557 0.19089 0.0
C283 C 0.52129 0.43292 0.20114 0.0
C284 C 0.53881 0.41492 0.21134 0.0
C285 C 0.56804 0.41947 0.2115 0.0
C286 C 0.57928 0.44292 0.20165 0.0
C287 C 0.56169 0.46093 0.19144 0.0
H288 H 0.49728 0.92845 0.38855 0.0
H289 H 0.46592 0.89713 0.37098 0.0
H290 H 0.39408 0.93785 0.3963 0.0
H291 H 0.4256 0.96967 0.4135 0.0
H292 H 0.50091 0.987 0.38713 0.0
H293 H 0.48035 0.91482 0.43219 0.0
H294 H 0.44696 0.88458 0.44886 0.0
H295 H 0.41217 0.96137 0.47406 0.0
H296 H 0.4448 0.99157 0.4567 0.0
H297 H 0.5083 0.06565 0.44353 0.0
H298 H 0.54274 0.09888 0.45703 0.0
H299 H 0.60743 0.03384 0.44984 0.0
H300 H 0.57319 0.00173 0.43551 0.0
H301 H 0.50068 0.99653 0.45437 0.0
H302 H 0.51459 0.06769 0.40602 0.0
H303 H 0.54102 0.09848 0.38507 0.0
H304 H 0.58838 0.02362 0.36718 0.0
H305 H 0.56124 0.9929 0.38788 0.0
C306 C 0.46378 0.95128 0.40238 0.0
C307 C 0.47478 0.93053 0.39036 0.0
C308 C 0.45684 0.91249 0.38046 0.0
C309 C 0.42753 0.91498 0.3823 0.0
C310 C 0.41656 0.93557 0.39451 0.0
C311 C 0.43454 0.95359 0.40444 0.0
C312 C 0.48295 0.97128 0.41216 0.0
C313 C 0.50104 0.98876 0.40184 0.0
C314 C 0.48274 0.97406 0.43135 0.0
C315 C 0.46466 0.95549 0.44292 0.0
C316 C 0.46552 0.92512 0.44131 0.0
C317 C 0.44663 0.90784 0.45101 0.0
C318 C 0.42674 0.9206 0.46267 0.0
C319 C 0.4269 0.95093 0.46494 0.0
C320 C 0.44569 0.9682 0.45515 0.0
C321 C 0.53838 0.03144 0.43853 0.0
C322 C 0.52994 0.0587 0.44496 0.0
C323 C 0.54963 0.07756 0.45272 0.0
C324 C 0.57798 0.06919 0.45442 0.0
C325 C 0.586 0.04138 0.44837 0.0
C326 C 0.56643 0.02283 0.44035 0.0
C327 C 0.51831 0.01209 0.42925 0.0
C328 C 0.50037 0.99463 0.43967 0.0
C329 C 0.51855 0.00924 0.41017 0.0
C330 C 0.53612 0.0281 0.39854 0.0
C331 C 0.53096 0.05804 0.39776 0.0
C332 C 0.54614 0.07561 0.38579 0.0
C333 C 0.5668 0.06352 0.37439 0.0
C334 C 0.57231 0.03355 0.37555 0.0
C335 C 0.55698 0.01599 0.38743 0.0
H336 H 0.98866 0.05444 0.69719 0.0
H337 H 0.95799 0.08998 0.71198 0.0
H338 H 0.88527 0.04625 0.6898 0.0
H339 H 0.916 0.01035 0.67553 0.0
H340 H 0.99426 0.99528 0.69922 0.0
H341 H 0.97027 0.06604 0.65269 0.0
H342 H 0.94066 0.09521 0.63243 0.0
H343 H 0.89986 0.01707 0.61344 0.0
H344 H 0.92934 0.98811 0.63379 0.0
H345 H 0.99368 0.92715 0.63348 0.0
H346 H 0.02457 0.89637 0.61525 0.0
H347 H 0.09695 0.94129 0.63699 0.0
H348 H 0.06587 0.97168 0.65544 0.0
H349 H 0.98759 0.98559 0.63214 0.0
H350 H 0.01207 0.91456 0.67556 0.0
H351 H 0.04601 0.88327 0.69055 0.0
H352 H 0.0845 0.95836 0.71562 0.0
H353 H 0.05113 0.98986 0.69963 0.0
C354 C 0.95461 0.03004 0.68508 0.0
C355 C 0.9661 0.05231 0.69575 0.0
C356 C 0.94857 0.07268 0.70406 0.0
C357 C 0.91924 0.07104 0.70191 0.0
C358 C 0.90776 0.04799 0.69181 0.0
C359 C 0.9253 0.02763 0.68351 0.0
C360 C 0.97327 0.01007 0.67494 0.0
C361 C 0.99304 0.99341 0.68454 0.0
C362 C 0.97121 0.00704 0.65585 0.0
C363 C 0.95189 0.02495 0.64475 0.0
C364 C 0.95465 0.05529 0.64436 0.0
C365 C 0.93787 0.07187 0.63272 0.0
C366 C 0.91799 0.05837 0.62137 0.0
C367 C 0.91478 0.02807 0.62218 0.0
C368 C 0.93171 0.0115 0.63369 0.0
C369 C 0.02749 0.95162 0.64582 0.0
C370 C 0.01621 0.93029 0.63434 0.0
C371 C 0.03389 0.9128 0.6239 0.0
C372 C 0.06322 0.91649 0.6246 0.0
C373 C 0.07448 0.93765 0.63631 0.0
C374 C 0.05676 0.9551 0.64681 0.0
C375 C 0.00853 0.9708 0.65636 0.0
C376 C 0.98876 0.98738 0.64683 0.0
C377 C 0.01044 0.97348 0.67548 0.0
C378 C 0.02939 0.95457 0.68621 0.0
C379 C 0.02784 0.92433 0.68426 0.0
C380 C 0.0471 0.90641 0.69305 0.0
C381 C 0.06804 0.91827 0.70433 0.0
C382 C 0.06889 0.94856 0.70684 0.0
C383 C 0.04968 0.96656 0.69786 0.0
C384 C 0.24907 0.67182 0.9877 0.0
O385 O 0.26989 0.65523 0.98228 0.0
O386 O 0.3089 0.68021 0.02269 0.0
Zn387 Zn 0.29557 0.70329 0.00101 0.0
O388 O 0.31818 0.69161 0.97903 0.0
C389 C 0.31094 0.76321 0.99452 0.0
O390 O 0.31362 0.75444 0.97761 0.0
O391 O 0.25467 0.69499 0.99636 0.0
C392 C 0.34478 0.68965 0.97979 0.0
O393 O 0.3577 0.69622 0.99503 0.0
C394 C 0.31804 0.65439 0.02117 0.0
O395 O 0.31794 0.64188 0.00512 0.0
O396 O 0.30236 0.74539 0.00649 0.0
C397 C 0.23667 0.80394 0.24767 0.0
O398 O 0.24392 0.8011 0.23053 0.0
O399 O 0.30709 0.80817 0.23159 0.0
Zn400 Zn 0.29486 0.78892 0.25482 0.0
O401 O 0.31855 0.80494 0.2751 0.0
C402 C 0.29497 0.73291 0.23814 0.0
O403 O 0.2816 0.74716 0.22531 0.0
O404 O 0.25464 0.79865 0.26 0.0
C405 C 0.31061 0.80415 0.29158 0.0
O406 O 0.28658 0.79164 0.29563 0.0
C407 C 0.3133 0.83499 0.23169 0.0
O408 O 0.31081 0.8497 0.24691 0.0
O409 O 0.30165 0.74617 0.25265 0.0
C410 C 0.26023 0.80978 0.50785 0.0
O411 O 0.24992 0.8139 0.52422 0.0
O412 O 0.1898 0.81571 0.52224 0.0
Zn413 Zn 0.20233 0.79701 0.49875 0.0
O414 O 0.18331 0.81888 0.47867 0.0
C415 C 0.20216 0.73377 0.50392 0.0
O416 O 0.22791 0.73705 0.51004 0.0
O417 O 0.24402 0.80109 0.49525 0.0
C418 C 0.18554 0.81154 0.46208 0.0
O419 O 0.20075 0.78872 0.45782 0.0
C420 C 0.17714 0.80185 0.53476 0.0
O421 O 0.17296 0.77383 0.53288 0.0
O422 O 0.1889 0.75575 0.49801 0.0
C423 C 0.24506 0.66897 0.76928 0.0
O424 O 0.2236 0.65388 0.77537 0.0
O425 O 0.18357 0.68548 0.73434 0.0
Zn426 Zn 0.19974 0.70362 0.75701 0.0
O427 O 0.17709 0.68894 0.77825 0.0
C428 C 0.19741 0.75801 0.73894 0.0
O429 O 0.2065 0.7417 0.72551 0.0
O430 O 0.24037 0.69225 0.7605 0.0
C431 C 0.1593 0.70365 0.78725 0.0
O432 O 0.15477 0.7309 0.78289 0.0
C433 C 0.1889 0.66009 0.72853 0.0
O434 O 0.20674 0.64369 0.73747 0.0
O435 O 0.19468 0.74676 0.75461 0.0
C436 C 0.74044 0.18093 0.50528 0.0
O437 O 0.7536 0.17118 0.51972 0.0
O438 O 0.81096 0.18488 0.51886 0.0
Zn439 Zn 0.795 0.20531 0.49686 0.0
O440 O 0.81463 0.19031 0.47452 0.0
C441 C 0.79926 0.26067 0.51431 0.0
O442 O 0.78715 0.24641 0.52765 0.0
O443 O 0.75353 0.19715 0.49414 0.0
C444 C 0.84118 0.18737 0.47442 0.0
O445 O 0.8556 0.19485 0.48893 0.0
C446 C 0.8177 0.1582 0.51832 0.0
O447 O 0.81358 0.14348 0.50324 0.0
O448 O 0.80346 0.24776 0.4993 0.0
C449 C 0.73815 0.30921 0.74765 0.0
O450 O 0.74541 0.30782 0.73044 0.0
O451 O 0.80797 0.31739 0.73107 0.0
Zn452 Zn 0.79726 0.29769 0.75444 0.0
O453 O 0.81938 0.31681 0.77433 0.0
C454 C 0.801 0.24124 0.7387 0.0
O455 O 0.78592 0.2539 0.72602 0.0
O456 O 0.75649 0.30424 0.75981 0.0
C457 C 0.8166 0.30973 0.79092 0.0
O458 O 0.79941 0.28849 0.79523 0.0
C459 C 0.83252 0.31303 0.72485 0.0
O460 O 0.84942 0.29542 0.73368 0.0
O461 O 0.80741 0.25554 0.75288 0.0
C462 C 0.76064 0.30711 0.00929 0.0
O463 O 0.75341 0.30453 0.02645 0.0
O464 O 0.68974 0.30864 0.0255 0.0
Zn465 Zn 0.70254 0.2912 0.00186 0.0
O466 O 0.6794 0.30938 0.9821 0.0
C467 C 0.70092 0.23544 0.0178 0.0
O468 O 0.71306 0.25012 0.03096 0.0
O469 O 0.74278 0.30122 0.997 0.0
C470 C 0.68296 0.30355 0.96538 0.0
O471 O 0.70166 0.28393 0.96072 0.0
C472 C 0.68822 0.33598 0.02749 0.0
O473 O 0.69623 0.35289 0.01406 0.0
O474 O 0.69558 0.24831 0.00292 0.0
C475 C 0.7632 0.18746 0.2445 0.0
O476 O 0.75285 0.18422 0.22807 0.0
O477 O 0.69032 0.18397 0.23244 0.0
Zn478 Zn 0.70601 0.20377 0.25455 0.0
O479 O 0.68697 0.18622 0.27631 0.0
C480 C 0.68553 0.26139 0.26444 0.0
O481 O 0.6805 0.24972 0.28041 0.0
O482 O 0.74734 0.1965 0.2572 0.0
C483 C 0.66038 0.18419 0.27724 0.0
O484 O 0.645 0.19499 0.26403 0.0
C485 C 0.69071 0.15655 0.23058 0.0
O486 O 0.70297 0.1406 0.24308 0.0
O487 O 0.69723 0.24621 0.25216 0.0
C488 C 0.09281 0.88066 0.27976 0.0
C489 C 0.09911 0.91041 0.28037 0.0
C490 C 0.11227 0.86062 0.27281 0.0
C491 C 0.13867 0.8706 0.26652 0.0
C492 C 0.14455 0.90073 0.26629 0.0
C493 C 0.12463 0.92026 0.27312 0.0
C494 C 0.10514 0.82868 0.27304 0.0
C495 C 0.17246 0.91226 0.25968 0.0
C496 C 0.20383 0.82422 0.27085 0.0
C497 C 0.20941 0.8172 0.25265 0.0
C498 C 0.18009 0.84048 0.27562 0.0
C499 C 0.1613 0.8497 0.26188 0.0
C500 C 0.16581 0.84115 0.24363 0.0
C501 C 0.18994 0.82507 0.2392 0.0
C502 C 0.17605 0.84921 0.29526 0.0
C503 C 0.14593 0.85016 0.22867 0.0
H504 H 0.07319 0.87287 0.28542 0.0
H505 H 0.12934 0.94329 0.27319 0.0
H506 H 0.11055 0.81846 0.25984 0.0
H507 H 0.1177 0.81765 0.2837 0.0
H508 H 0.08251 0.82483 0.27589 0.0
H509 H 0.17301 0.93637 0.2593 0.0
H510 H 0.18948 0.9046 0.26881 0.0
H511 H 0.17709 0.90389 0.24586 0.0
H512 H 0.21864 0.81808 0.28136 0.0
H513 H 0.19398 0.81952 0.22512 0.0
H514 H 0.15454 0.84359 0.29987 0.0
H515 H 0.17844 0.87309 0.29659 0.0
H516 H 0.19144 0.83856 0.30444 0.0
H517 H 0.12383 0.846 0.23273 0.0
H518 H 0.15025 0.83855 0.21573 0.0
H519 H 0.14802 0.87382 0.22621 0.0
C520 C 0.10782 0.59201 0.52501 0.0
C521 C 0.09656 0.59765 0.5423 0.0
C522 C 0.12779 0.61075 0.51722 0.0
C523 C 0.13635 0.63583 0.52687 0.0
C524 C 0.12583 0.64103 0.54457 0.0
C525 C 0.10628 0.62176 0.55211 0.0
C526 C 0.1389 0.60429 0.49843 0.0
C527 C 0.13436 0.66759 0.55531 0.0
C528 C 0.19959 0.68256 0.51544 0.0
C529 C 0.18665 0.70631 0.50693 0.0
C530 C 0.18376 0.65835 0.52095 0.0
C531 C 0.15434 0.65814 0.51806 0.0
C532 C 0.14151 0.68121 0.50846 0.0
C533 C 0.15784 0.70489 0.50291 0.0
C534 C 0.19825 0.63382 0.5308 0.0
C535 C 0.11018 0.6819 0.50517 0.0
H536 H 0.10039 0.57348 0.51731 0.0
H537 H 0.09829 0.62583 0.56567 0.0
H538 H 0.13032 0.62029 0.48863 0.0
H539 H 0.16213 0.60635 0.49815 0.0
H540 H 0.13304 0.58216 0.49376 0.0
H541 H 0.12514 0.6678 0.56919 0.0
H542 H 0.15756 0.66868 0.55653 0.0
H543 H 0.12741 0.68746 0.54806 0.0
H544 H 0.22188 0.68334 0.51844 0.0
H545 H 0.14765 0.72299 0.4962 0.0
H546 H 0.19095 0.61253 0.52556 0.0
H547 H 0.19288 0.63474 0.54547 0.0
H548 H 0.22147 0.63502 0.52944 0.0
H549 H 0.10301 0.66122 0.49899 0.0
H550 H 0.10387 0.70008 0.49612 0.0
H551 H 0.09904 0.68439 0.51834 0.0
C552 C 0.39596 0.59434 0.77712 0.0
C553 C 0.40785 0.59979 0.79423 0.0
C554 C 0.37104 0.60811 0.77172 0.0
C555 C 0.35772 0.62777 0.78374 0.0
C556 C 0.37045 0.63458 0.8006 0.0
C557 C 0.39536 0.62048 0.80566 0.0
C558 C 0.35817 0.60039 0.75358 0.0
C559 C 0.35689 0.65543 0.81379 0.0
C560 C 0.29741 0.67475 0.76682 0.0
C561 C 0.27404 0.65865 0.77265 0.0
C562 C 0.32489 0.66497 0.77023 0.0
C563 C 0.32898 0.63852 0.77965 0.0
C564 C 0.30547 0.62213 0.78545 0.0
C565 C 0.27833 0.6324 0.78189 0.0
C566 C 0.34951 0.68298 0.76388 0.0
C567 C 0.30895 0.59376 0.79552 0.0
H568 H 0.40579 0.5787 0.76813 0.0
H569 H 0.40428 0.6246 0.81898 0.0
H570 H 0.33867 0.58766 0.7558 0.0
H571 H 0.35225 0.62032 0.74605 0.0
H572 H 0.37265 0.58734 0.74501 0.0
H573 H 0.371 0.66094 0.82533 0.0
H574 H 0.35078 0.67578 0.80677 0.0
H575 H 0.33743 0.64557 0.81936 0.0
H576 H 0.29425 0.69505 0.75966 0.0
H577 H 0.26043 0.61977 0.78642 0.0
H578 H 0.36313 0.6699 0.75479 0.0
H579 H 0.3625 0.68956 0.77571 0.0
H580 H 0.34277 0.70282 0.75649 0.0
H581 H 0.32127 0.57829 0.78715 0.0
H582 H 0.28847 0.58355 0.79895 0.0
H583 H 0.32082 0.5974 0.8083 0.0
C584 C 0.41208 0.87786 0.0359 0.0
C585 C 0.40351 0.90696 0.03666 0.0
C586 C 0.39513 0.85664 0.0278 0.0
C587 C 0.3688 0.86463 0.02039 0.0
C588 C 0.36011 0.89399 0.02086 0.0
C589 C 0.37761 0.91486 0.02899 0.0
C590 C 0.40517 0.82553 0.02755 0.0
C591 C 0.33215 0.90325 0.01309 0.0
C592 C 0.33844 0.80842 0.98829 0.0
C593 C 0.3219 0.79187 0.0002 0.0
C594 C 0.35268 0.83326 0.99442 0.0
C595 C 0.35011 0.84178 0.01283 0.0
C596 C 0.33193 0.8263 0.02458 0.0
C597 C 0.31809 0.80148 0.01813 0.0
C598 C 0.37187 0.84923 0.98149 0.0
C599 C 0.32841 0.83491 0.04426 0.0
H600 H 0.43181 0.87147 0.04209 0.0
H601 H 0.37101 0.93736 0.02935 0.0
H602 H 0.39067 0.81178 0.03564 0.0
H603 H 0.40507 0.81704 0.01343 0.0
H604 H 0.42671 0.82316 0.03318 0.0
H605 H 0.32902 0.92711 0.01385 0.0
H606 H 0.33047 0.89636 0.99868 0.0
H607 H 0.31486 0.89244 0.02062 0.0
H608 H 0.34141 0.8012 0.9744 0.0
H609 H 0.30509 0.78899 0.02737 0.0
H610 H 0.39406 0.84514 0.98534 0.0
H611 H 0.36831 0.87299 0.98236 0.0
H612 H 0.36882 0.8422 0.96717 0.0
H613 H 0.34823 0.83059 0.05174 0.0
H614 H 0.31116 0.82272 0.051 0.0
H615 H 0.324 0.85848 0.04541 0.0
C616 C 0.09541 0.60457 0.98113 0.0
C617 C 0.08338 0.60932 0.96399 0.0
C618 C 0.12092 0.61772 0.98595 0.0
C619 C 0.13468 0.63601 0.97331 0.0
C620 C 0.12181 0.64224 0.95641 0.0
C621 C 0.09628 0.62879 0.95194 0.0
C622 C 0.13394 0.61065 0.00415 0.0
C623 C 0.13583 0.66165 0.94257 0.0
C624 C 0.19712 0.68086 0.98925 0.0
C625 C 0.21969 0.66321 0.98391 0.0
C626 C 0.16923 0.67246 0.98581 0.0
C627 C 0.16391 0.64579 0.97688 0.0
C628 C 0.18662 0.62798 0.97142 0.0
C629 C 0.21419 0.63692 0.97498 0.0
C630 C 0.14548 0.69199 0.99176 0.0
C631 C 0.1818 0.59933 0.96188 0.0
H632 H 0.08527 0.58984 0.99057 0.0
H633 H 0.08722 0.63232 0.9386 0.0
H634 H 0.15291 0.59705 0.00206 0.0
H635 H 0.14076 0.63079 0.01114 0.0
H636 H 0.1192 0.59872 0.01317 0.0
H637 H 0.12162 0.66703 0.93107 0.0
H638 H 0.14298 0.68213 0.94902 0.0
H639 H 0.1547 0.6506 0.93703 0.0
H640 H 0.20121 0.70123 0.99614 0.0
H641 H 0.23149 0.62314 0.9708 0.0
H642 H 0.13171 0.68031 0.00149 0.0
H643 H 0.13234 0.69794 0.97987 0.0
H644 H 0.15317 0.71221 0.99833 0.0
H645 H 0.16913 0.58476 0.97066 0.0
H646 H 0.20178 0.58815 0.95842 0.0
H647 H 0.16973 0.60284 0.94917 0.0
C648 C 0.40154 0.61606 0.20739 0.0
C649 C 0.39435 0.5866 0.20848 0.0
C650 C 0.38279 0.63766 0.21301 0.0
C651 C 0.35611 0.62964 0.2199 0.0
C652 C 0.34868 0.59995 0.22111 0.0
C653 C 0.36791 0.57872 0.21533 0.0
C654 C 0.39147 0.66912 0.21142 0.0
C655 C 0.32046 0.59066 0.22846 0.0
C656 C 0.32271 0.68944 0.24771 0.0
C657 C 0.30637 0.70358 0.23453 0.0
C658 C 0.33763 0.66409 0.24347 0.0
C659 C 0.33617 0.65267 0.22564 0.0
C660 C 0.31815 0.66564 0.21267 0.0
C661 C 0.30341 0.69095 0.21728 0.0
C662 C 0.35647 0.65074 0.25772 0.0
C663 C 0.31593 0.65398 0.19353 0.0
H664 H 0.42174 0.62227 0.20178 0.0
H665 H 0.36236 0.55595 0.2163 0.0
H666 H 0.37667 0.68084 0.20237 0.0
H667 H 0.39055 0.67973 0.22495 0.0
H668 H 0.41307 0.67165 0.20591 0.0
H669 H 0.31804 0.56667 0.22868 0.0
H670 H 0.31765 0.59906 0.24248 0.0
H671 H 0.3034 0.60004 0.22003 0.0
H672 H 0.32489 0.69888 0.26114 0.0
H673 H 0.29065 0.70159 0.20706 0.0
H674 H 0.37876 0.655 0.25417 0.0
H675 H 0.35361 0.62685 0.25816 0.0
H676 H 0.35238 0.65974 0.27148 0.0
H677 H 0.33586 0.65826 0.18616 0.0
H678 H 0.29845 0.6642 0.18583 0.0
H679 H 0.3127 0.63014 0.19368 0.0
C680 C 0.37683 0.91218 0.4718 0.0
C681 C 0.40477 0.90254 0.4715 0.0
C682 C 0.3554 0.89487 0.47906 0.0
C683 C 0.36199 0.86711 0.48612 0.0
C684 C 0.3902 0.85739 0.48618 0.0
C685 C 0.41129 0.87525 0.47886 0.0
C686 C 0.32554 0.90603 0.47874 0.0
C687 C 0.39797 0.82794 0.49363 0.0
C688 C 0.30456 0.83599 0.51599 0.0
C689 C 0.28888 0.82 0.50331 0.0
C690 C 0.32948 0.8501 0.51088 0.0
C691 C 0.33894 0.84804 0.49268 0.0
C692 C 0.3243 0.83022 0.48017 0.0
C693 C 0.29943 0.81643 0.48564 0.0
C694 C 0.34459 0.8688 0.52462 0.0
C695 C 0.33387 0.82724 0.46068 0.0
H696 H 0.37153 0.933 0.46585 0.0
H697 H 0.4329 0.86781 0.47884 0.0
H698 H 0.31239 0.8918 0.47003 0.0
H699 H 0.31646 0.9055 0.49263 0.0
H700 H 0.32414 0.92859 0.47347 0.0
H701 H 0.42104 0.82422 0.49354 0.0
H702 H 0.39017 0.82561 0.50776 0.0
H703 H 0.38777 0.81071 0.4854 0.0
H704 H 0.29667 0.83873 0.52971 0.0
H705 H 0.28762 0.80385 0.47579 0.0
H706 H 0.34138 0.89202 0.5212 0.0
H707 H 0.36754 0.86459 0.52425 0.0
H708 H 0.33684 0.86504 0.53867 0.0
H709 H 0.33066 0.84814 0.45348 0.0
H710 H 0.32214 0.81003 0.4533 0.0
H711 H 0.35664 0.82216 0.4601 0.0
C712 C 0.0817 0.87135 0.71906 0.0
C713 C 0.08945 0.89894 0.71273 0.0
C714 C 0.10198 0.85124 0.72468 0.0
C715 C 0.13074 0.8591 0.72437 0.0
C716 C 0.13862 0.88753 0.71917 0.0
C717 C 0.11789 0.90706 0.71324 0.0
C718 C 0.09266 0.82108 0.73007 0.0
C719 C 0.16902 0.8969 0.71908 0.0
C720 C 0.17669 0.80511 0.7494 0.0
C721 C 0.18507 0.78685 0.73513 0.0
C722 C 0.16065 0.83011 0.746 0.0
C723 C 0.15238 0.83657 0.72797 0.0
C724 C 0.16225 0.81919 0.71343 0.0
C725 C 0.17872 0.7947 0.71718 0.0
C726 C 0.1512 0.84861 0.7618 0.0
C727 C 0.15371 0.82518 0.694 0.0
H728 H 0.05973 0.86516 0.71918 0.0
H729 H 0.12415 0.92825 0.70829 0.0
H730 H 0.10136 0.80498 0.72035 0.0
H731 H 0.10088 0.81554 0.74374 0.0
H732 H 0.06942 0.81882 0.73026 0.0
H733 H 0.17125 0.92077 0.71746 0.0
H734 H 0.1796 0.89021 0.73186 0.0
H735 H 0.18017 0.88614 0.70768 0.0
H736 H 0.18179 0.79933 0.7633 0.0
H737 H 0.18517 0.78076 0.70606 0.0
H738 H 0.12858 0.84468 0.76448 0.0
H739 H 0.15371 0.87201 0.75859 0.0
H740 H 0.16314 0.84365 0.7744 0.0
H741 H 0.13079 0.82143 0.69245 0.0
H742 H 0.16498 0.81107 0.68416 0.0
H743 H 0.15786 0.84817 0.69044 0.0
C744 C 0.59459 0.38447 0.78187 0.0
C745 C 0.60167 0.41396 0.78333 0.0
C746 C 0.61352 0.36439 0.77436 0.0
C747 C 0.64019 0.37407 0.76836 0.0
C748 C 0.64685 0.40401 0.76897 0.0
C749 C 0.62744 0.42359 0.77633 0.0
C750 C 0.60554 0.3327 0.77368 0.0
C751 C 0.67507 0.41524 0.76269 0.0
C752 C 0.70472 0.32658 0.7714 0.0
C753 C 0.71052 0.32126 0.753 0.0
C754 C 0.68095 0.34242 0.77664 0.0
C755 C 0.66233 0.35293 0.76316 0.0
C756 C 0.66689 0.34579 0.74468 0.0
C757 C 0.69105 0.33011 0.73979 0.0
C758 C 0.67684 0.34957 0.79652 0.0
C759 C 0.64716 0.35613 0.72998 0.0
H760 H 0.57475 0.37684 0.78732 0.0
H761 H 0.63275 0.44645 0.77704 0.0
H762 H 0.61094 0.32321 0.76026 0.0
H763 H 0.61759 0.3206 0.78413 0.0
H764 H 0.58277 0.32933 0.77626 0.0
H765 H 0.67627 0.43932 0.76304 0.0
H766 H 0.69188 0.40639 0.77156 0.0
H767 H 0.67946 0.40782 0.74863 0.0
H768 H 0.71949 0.3196 0.78174 0.0
H769 H 0.69522 0.32584 0.72555 0.0
H770 H 0.65514 0.34418 0.80085 0.0
H771 H 0.67985 0.37322 0.79865 0.0
H772 H 0.69184 0.33773 0.8054 0.0
H773 H 0.62497 0.35241 0.734 0.0
H774 H 0.65112 0.34506 0.71681 0.0
H775 H 0.64992 0.37983 0.72797 0.0
C776 C 0.58598 0.12378 0.04151 0.0
C777 C 0.59352 0.09526 0.04605 0.0
C778 C 0.6061 0.14376 0.03549 0.0
C779 C 0.63441 0.13487 0.03355 0.0
C780 C 0.64192 0.10569 0.03705 0.0
C781 C 0.62141 0.08625 0.04343 0.0
C782 C 0.5972 0.17475 0.03196 0.0
C783 C 0.67178 0.09529 0.03474 0.0
C784 C 0.67744 0.1898 0.00728 0.0
C785 C 0.68865 0.20654 0.02147 0.0
C786 C 0.66146 0.16485 0.01095 0.0
C787 C 0.65617 0.15692 0.02922 0.0
C788 C 0.66899 0.17265 0.04353 0.0
C789 C 0.68532 0.19712 0.03946 0.0
C790 C 0.64881 0.1481 0.99532 0.0
C791 C 0.66368 0.16505 0.06321 0.0
H792 H 0.56434 0.13071 0.04301 0.0
H793 H 0.62749 0.0643 0.04698 0.0
H794 H 0.60828 0.18952 0.0415 0.0
H795 H 0.60314 0.1813 0.01797 0.0
H796 H 0.57421 0.17791 0.03363 0.0
H797 H 0.67336 0.07125 0.03545 0.0
H798 H 0.68044 0.10269 0.02152 0.0
H799 H 0.68515 0.10468 0.0456 0.0
H800 H 0.68025 0.19678 0.99332 0.0
H801 H 0.69399 0.20988 0.05051 0.0
H802 H 0.62602 0.15294 0.9944 0.0
H803 H 0.65104 0.12439 0.99753 0.0
H804 H 0.65874 0.15387 0.98213 0.0
H805 H 0.64138 0.16956 0.06661 0.0
H806 H 0.67724 0.17769 0.07262 0.0
H807 H 0.66737 0.14159 0.0656 0.0
C808 C 0.87901 0.08535 0.28239 0.0
C809 C 0.90703 0.09476 0.28209 0.0
C810 C 0.85756 0.1022 0.27477 0.0
C811 C 0.86424 0.12924 0.26671 0.0
C812 C 0.89252 0.13869 0.26604 0.0
C813 C 0.91362 0.12132 0.27377 0.0
C814 C 0.82761 0.09139 0.27579 0.0
C815 C 0.90039 0.16736 0.25751 0.0
C816 C 0.8064 0.15912 0.23665 0.0
C817 C 0.79157 0.1765 0.24902 0.0
C818 C 0.83113 0.14478 0.24189 0.0
C819 C 0.84122 0.14806 0.25988 0.0
C820 C 0.82738 0.16711 0.27202 0.0
C821 C 0.8027 0.18108 0.26645 0.0
C822 C 0.84542 0.12472 0.22855 0.0
C823 C 0.83762 0.17137 0.29128 0.0
H824 H 0.87371 0.06508 0.28905 0.0
H825 H 0.93529 0.12853 0.27331 0.0
H826 H 0.81486 0.10645 0.28419 0.0
H827 H 0.81814 0.09092 0.26201 0.0
H828 H 0.82614 0.0693 0.28177 0.0
H829 H 0.92349 0.17082 0.2572 0.0
H830 H 0.8922 0.16854 0.24341 0.0
H831 H 0.8906 0.18539 0.26525 0.0
H832 H 0.79799 0.15556 0.22313 0.0
H833 H 0.79153 0.19475 0.27603 0.0
H834 H 0.842 0.10187 0.23278 0.0
H835 H 0.86843 0.12858 0.22843 0.0
H836 H 0.8372 0.12744 0.21451 0.0
H837 H 0.8345 0.15103 0.2991 0.0
H838 H 0.8263 0.18918 0.29835 0.0
H839 H 0.86044 0.17628 0.2914 0.0
C840 C 0.90698 0.38006 0.54267 0.0
C841 C 0.89884 0.40922 0.54124 0.0
C842 C 0.88892 0.35762 0.53729 0.0
C843 C 0.86196 0.36446 0.53038 0.0
C844 C 0.8537 0.39384 0.52864 0.0
C845 C 0.87227 0.41591 0.5341 0.0
C846 C 0.89852 0.32653 0.53935 0.0
C847 C 0.82514 0.40192 0.52129 0.0
C848 C 0.8279 0.30316 0.50401 0.0
C849 C 0.81176 0.28967 0.51756 0.0
C850 C 0.84327 0.32847 0.50772 0.0
C851 C 0.8424 0.3406 0.52538 0.0
C852 C 0.82484 0.3281 0.5388 0.0
C853 C 0.80972 0.30275 0.53473 0.0
C854 C 0.86169 0.34124 0.49303 0.0
C855 C 0.82321 0.34055 0.55777 0.0
H856 H 0.92724 0.37469 0.54849 0.0
H857 H 0.86596 0.43842 0.53282 0.0
H858 H 0.88449 0.31493 0.54897 0.0
H859 H 0.89719 0.31512 0.52609 0.0
H860 H 0.92044 0.32494 0.54445 0.0
H861 H 0.82226 0.4258 0.52028 0.0
H862 H 0.82209 0.39224 0.50762 0.0
H863 H 0.80849 0.39297 0.53024 0.0
H864 H 0.82948 0.29331 0.49066 0.0
H865 H 0.79715 0.2926 0.54525 0.0
H866 H 0.8841 0.33775 0.49658 0.0
H867 H 0.85834 0.36501 0.49198 0.0
H868 H 0.85764 0.33125 0.47953 0.0
H869 H 0.84362 0.33736 0.56478 0.0
H870 H 0.80646 0.33013 0.56603 0.0
H871 H 0.81919 0.36425 0.55723 0.0
C872 C 0.5927 0.10742 0.47701 0.0
C873 C 0.59932 0.08927 0.46226 0.0
C874 C 0.61315 0.12549 0.48488 0.0
C875 C 0.64097 0.12493 0.4781 0.0
C876 C 0.64765 0.10711 0.46303 0.0
C877 C 0.62669 0.08984 0.45517 0.0
C878 C 0.60514 0.1447 0.50069 0.0
C879 C 0.67715 0.1057 0.45548 0.0
C880 C 0.69615 0.18259 0.48695 0.0
C881 C 0.71254 0.16916 0.50037 0.0
C882 C 0.67156 0.16936 0.48042 0.0
C883 C 0.66365 0.14175 0.48716 0.0
C884 C 0.67938 0.12879 0.50133 0.0
C885 C 0.70347 0.14282 0.50791 0.0
C886 C 0.65486 0.18423 0.46567 0.0
C887 C 0.6719 0.09916 0.5087 0.0
H888 H 0.5717 0.10704 0.4827 0.0
H889 H 0.63188 0.07658 0.44347 0.0
H890 H 0.61582 0.13706 0.5132 0.0
H891 H 0.6122 0.16731 0.49819 0.0
H892 H 0.58211 0.14479 0.50316 0.0
H893 H 0.67884 0.09073 0.44368 0.0
H894 H 0.68411 0.1276 0.45113 0.0
H895 H 0.69188 0.09825 0.4662 0.0
H896 H 0.70294 0.20311 0.48122 0.0
H897 H 0.71607 0.13228 0.51826 0.0
H898 H 0.63207 0.18356 0.46885 0.0
H899 H 0.65796 0.17265 0.4526 0.0
H900 H 0.66133 0.20722 0.46383 0.0
H901 H 0.64944 0.09838 0.51267 0.0
H902 H 0.68489 0.09315 0.52067 0.0
H903 H 0.67511 0.08259 0.49794 0.0
C904 C 0.87517 0.08726 0.71768 0.0
C905 C 0.90077 0.09417 0.70926 0.0
C906 C 0.85694 0.10917 0.72376 0.0
C907 C 0.86451 0.13862 0.72128 0.0
C908 C 0.89051 0.1457 0.71304 0.0
C909 C 0.9083 0.1234 0.70713 0.0
C910 C 0.82946 0.10085 0.73259 0.0
C911 C 0.89929 0.17688 0.7101 0.0
C912 C 0.81037 0.1987 0.7185 0.0
C913 C 0.81402 0.21257 0.73531 0.0
C914 C 0.82572 0.17368 0.71408 0.0
C915 C 0.84509 0.16226 0.72681 0.0
C916 C 0.84768 0.17517 0.74418 0.0
C917 C 0.83211 0.20021 0.74823 0.0
C918 C 0.82231 0.16044 0.69543 0.0
C919 C 0.868 0.16349 0.75815 0.0
H920 H 0.86939 0.06468 0.7195 0.0
H921 H 0.92784 0.12888 0.70037 0.0
H922 H 0.8278 0.11104 0.74622 0.0
H923 H 0.81167 0.10908 0.72433 0.0
H924 H 0.82717 0.07697 0.73411 0.0
H925 H 0.92052 0.17868 0.70392 0.0
H926 H 0.88397 0.18789 0.70107 0.0
H927 H 0.89933 0.18872 0.72324 0.0
H928 H 0.79632 0.208 0.70847 0.0
H929 H 0.83493 0.21068 0.76131 0.0
H930 H 0.81877 0.1367 0.69651 0.0
H931 H 0.84188 0.16369 0.68748 0.0
H932 H 0.80455 0.17021 0.68777 0.0
H933 H 0.86529 0.1397 0.75974 0.0
H934 H 0.86526 0.17398 0.77164 0.0
H935 H 0.88986 0.16732 0.75349 0.0
C936 C 0.90074 0.39012 0.97622 0.0
C937 C 0.89254 0.41929 0.97477 0.0
C938 C 0.88251 0.36924 0.9836 0.0
C939 C 0.85542 0.37777 0.98948 0.0
C940 C 0.84762 0.40741 0.98889 0.0
C941 C 0.86634 0.42781 0.98164 0.0
C942 C 0.89169 0.3379 0.98424 0.0
C943 C 0.81892 0.4174 0.99505 0.0
C944 C 0.79317 0.32715 0.98586 0.0
C945 C 0.7875 0.32113 0.00419 0.0
C946 C 0.81613 0.34439 0.98084 0.0
C947 C 0.83406 0.35566 0.99448 0.0
C948 C 0.82963 0.34806 0.0129 0.0
C949 C 0.80627 0.33094 0.01756 0.0
C950 C 0.82013 0.35202 0.96103 0.0
C951 C 0.84864 0.35925 0.02776 0.0
H952 H 0.92091 0.38334 0.97086 0.0
H953 H 0.86015 0.45043 0.98094 0.0
H954 H 0.88658 0.32816 0.99764 0.0
H955 H 0.88016 0.32534 0.97375 0.0
H956 H 0.91458 0.33548 0.98171 0.0
H957 H 0.81683 0.44142 0.99481 0.0
H958 H 0.80258 0.40799 0.98603 0.0
H959 H 0.81459 0.40964 0.00904 0.0
H960 H 0.77894 0.31947 0.9754 0.0
H961 H 0.80218 0.32619 0.03175 0.0
H962 H 0.84206 0.34759 0.95676 0.0
H963 H 0.81625 0.37556 0.95903 0.0
H964 H 0.80568 0.33971 0.95201 0.0
H965 H 0.87102 0.35649 0.02392 0.0
H966 H 0.84488 0.34802 0.04091 0.0
H967 H 0.84492 0.38281 0.02974 0.0
C968 C 0.5823 0.36901 0.21963 0.0
C969 C 0.58679 0.39897 0.22121 0.0
C970 C 0.60016 0.34911 0.22819 0.0
C971 C 0.62316 0.35941 0.23857 0.0
C972 C 0.62769 0.38963 0.24041 0.0
C973 C 0.60945 0.40911 0.23166 0.0
C974 C 0.59469 0.31701 0.22582 0.0
C975 C 0.65195 0.40134 0.25142 0.0
C976 C 0.65236 0.30238 0.27044 0.0
C977 C 0.67332 0.28985 0.25957 0.0
C978 C 0.63692 0.32639 0.26427 0.0
C979 C 0.64278 0.33818 0.24691 0.0
C980 C 0.66538 0.32706 0.23653 0.0
C981 C 0.68033 0.30296 0.24296 0.0
C982 C 0.61302 0.33772 0.27575 0.0
C983 C 0.6725 0.33926 0.21804 0.0
H984 H 0.56511 0.36106 0.21134 0.0
H985 H 0.61283 0.43227 0.23304 0.0
H986 H 0.61281 0.30668 0.21886 0.0
H987 H 0.59244 0.30644 0.23929 0.0
H988 H 0.57542 0.31263 0.21774 0.0
H989 H 0.65202 0.42544 0.252 0.0
H990 H 0.65102 0.39275 0.2655 0.0
H991 H 0.67211 0.39394 0.24543 0.0
H992 H 0.64689 0.29245 0.28332 0.0
H993 H 0.69675 0.29361 0.23459 0.0
H994 H 0.59273 0.33131 0.26949 0.0
H995 H 0.61348 0.36178 0.27635 0.0
H996 H 0.61368 0.32904 0.28984 0.0
H997 H 0.65568 0.33343 0.20824 0.0
H998 H 0.69278 0.33075 0.21279 0.0
H999 H 0.67367 0.36329 0.21856 0.0
C1000 C 0.08402 0.88898 0.3908 0.0
C1001 C 0.09674 0.91305 0.3825 0.0
C1002 C 0.09905 0.87131 0.4029 0.0
C1003 C 0.12746 0.87793 0.40684 0.0
C1004 C 0.14065 0.90172 0.39814 0.0
C1005 C 0.12513 0.91899 0.38606 0.0
C1006 C 0.08426 0.84612 0.41191 0.0
C1007 C 0.17093 0.90938 0.40197 0.0
C1008 C 0.15563 0.85343 0.45254 0.0
C1009 C 0.17102 0.82857 0.44782 0.0
C1010 C 0.14155 0.86976 0.4393 0.0
C1011 C 0.14282 0.861 0.42087 0.0
C1012 C 0.15839 0.83602 0.41597 0.0
C1013 C 0.17235 0.82009 0.42952 0.0
C1014 C 0.12519 0.89632 0.44505 0.0
C1015 C 0.16014 0.82604 0.39645 0.0
H1016 H 0.06201 0.88446 0.38828 0.0
H1017 H 0.13518 0.9373 0.37948 0.0
H1018 H 0.09648 0.82585 0.40997 0.0
H1019 H 0.08278 0.85005 0.42676 0.0
H1020 H 0.06272 0.84274 0.40648 0.0
H1021 H 0.17851 0.92758 0.39335 0.0
H1022 H 0.1733 0.91567 0.41645 0.0
H1023 H 0.18461 0.89025 0.39963 0.0
H1024 H 0.15452 0.8602 0.46664 0.0
H1025 H 0.1842 0.80092 0.42576 0.0
H1026 H 0.10274 0.89373 0.44133 0.0
H1027 H 0.13317 0.91574 0.43777 0.0
H1028 H 0.12659 0.90039 0.45991 0.0
H1029 H 0.13878 0.82112 0.39125 0.0
H1030 H 0.17345 0.80639 0.39486 0.0
H1031 H 0.1689 0.84361 0.38783 0.0
C1032 C 0.11174 0.59956 0.63853 0.0
C1033 C 0.08556 0.58841 0.64384 0.0
C1034 C 0.13011 0.61193 0.65133 0.0
C1035 C 0.12209 0.61305 0.66985 0.0
C1036 C 0.09566 0.60191 0.67527 0.0
C1037 C 0.07774 0.58975 0.66221 0.0
C1038 C 0.15806 0.62376 0.64505 0.0
C1039 C 0.08639 0.6026 0.69491 0.0
C1040 C 0.17646 0.61939 0.70742 0.0
C1041 C 0.17363 0.64858 0.71253 0.0
C1042 C 0.16046 0.60774 0.69314 0.0
C1043 C 0.14124 0.62574 0.68371 0.0
C1044 C 0.13903 0.65546 0.68837 0.0
C1045 C 0.15521 0.66651 0.70273 0.0
C1046 C 0.16339 0.57592 0.68855 0.0
C1047 C 0.11887 0.67537 0.67857 0.0
H1048 H 0.11778 0.59879 0.62433 0.0
H1049 H 0.05774 0.58073 0.66644 0.0
H1050 H 0.1598 0.64707 0.64868 0.0
H1051 H 0.17541 0.61224 0.65209 0.0
H1052 H 0.16103 0.62145 0.63014 0.0
H1053 H 0.06509 0.59321 0.69684 0.0
H1054 H 0.10147 0.59026 0.70342 0.0
H1055 H 0.08626 0.62529 0.69997 0.0
H1056 H 0.1907 0.6054 0.71487 0.0
H1057 H 0.15301 0.68916 0.70649 0.0
H1058 H 0.16763 0.57315 0.67382 0.0
H1059 H 0.1434 0.5645 0.69158 0.0
H1060 H 0.18055 0.56533 0.69636 0.0
H1061 H 0.12227 0.67409 0.66367 0.0
H1062 H 0.12116 0.69835 0.68292 0.0
H1063 H 0.09695 0.66837 0.68125 0.0
C1064 C 0.43608 0.63236 0.89499 0.0
C1065 C 0.43256 0.60222 0.8937 0.0
C1066 C 0.42164 0.6485 0.90822 0.0
C1067 C 0.40362 0.63403 0.92056 0.0
C1068 C 0.39978 0.60362 0.91917 0.0
C1069 C 0.41418 0.58811 0.90568 0.0
C1070 C 0.4259 0.68095 0.90912 0.0
C1071 C 0.38098 0.58736 0.93222 0.0
C1072 C 0.38824 0.66772 0.96658 0.0
C1073 C 0.36061 0.67757 0.96423 0.0
C1074 C 0.4027 0.65401 0.95235 0.0
C1075 C 0.38932 0.65043 0.9353 0.0
C1076 C 0.3618 0.66125 0.93265 0.0
C1077 C 0.34768 0.67452 0.94719 0.0
C1078 C 0.43195 0.64249 0.95574 0.0
C1079 C 0.34701 0.65818 0.91458 0.0
H1080 H 0.45013 0.6433 0.88563 0.0
H1081 H 0.41171 0.56475 0.90483 0.0
H1082 H 0.40534 0.69222 0.90832 0.0
H1083 H 0.43558 0.68692 0.92232 0.0
H1084 H 0.4396 0.68906 0.89799 0.0
H1085 H 0.37993 0.56378 0.9291 0.0
H1086 H 0.38883 0.59011 0.94632 0.0
H1087 H 0.35938 0.59639 0.93177 0.0
H1088 H 0.39832 0.66992 0.97972 0.0
H1089 H 0.32638 0.68226 0.94525 0.0
H1090 H 0.44681 0.6514 0.94555 0.0
H1091 H 0.43204 0.61852 0.9542 0.0
H1092 H 0.43978 0.64799 0.96955 0.0
H1093 H 0.36035 0.66699 0.90351 0.0
H1094 H 0.32644 0.66958 0.91437 0.0
H1095 H 0.34337 0.63488 0.91158 0.0
C1096 C 0.36768 0.92098 0.14341 0.0
C1097 C 0.39648 0.91555 0.14126 0.0
C1098 C 0.35207 0.90672 0.15692 0.0
C1099 C 0.36573 0.8869 0.16867 0.0
C1100 C 0.3946 0.88062 0.16614 0.0
C1101 C 0.40959 0.89493 0.1524 0.0
C1102 C 0.32123 0.91361 0.15902 0.0
C1103 C 0.40998 0.85982 0.17851 0.0
C1104 C 0.33747 0.87648 0.21643 0.0
C1105 C 0.32499 0.84897 0.21523 0.0
C1106 C 0.35037 0.88925 0.20127 0.0
C1107 C 0.35049 0.87431 0.18445 0.0
C1108 C 0.33715 0.84694 0.18299 0.0
C1109 C 0.3247 0.83449 0.19844 0.0
C1110 C 0.36457 0.9184 0.20341 0.0
C1111 C 0.33653 0.83057 0.1652 0.0
H1112 H 0.35747 0.93675 0.13469 0.0
H1113 H 0.43193 0.89095 0.15091 0.0
H1114 H 0.30873 0.89329 0.15955 0.0
H1115 H 0.31774 0.92527 0.17202 0.0
H1116 H 0.3132 0.92732 0.14773 0.0
H1117 H 0.43197 0.856 0.17404 0.0
H1118 H 0.41036 0.86867 0.19254 0.0
H1119 H 0.39887 0.83867 0.17903 0.0
H1120 H 0.33782 0.88778 0.22935 0.0
H1121 H 0.31492 0.8133 0.19739 0.0
H1122 H 0.35588 0.9341 0.19346 0.0
H1123 H 0.38737 0.91624 0.20053 0.0
H1124 H 0.36197 0.9275 0.21729 0.0
H1125 H 0.3279 0.84457 0.15427 0.0
H1126 H 0.32371 0.81046 0.16604 0.0
H1127 H 0.35824 0.82457 0.16118 0.0
C1128 C 0.05154 0.61663 0.84868 0.0
C1129 C 0.05956 0.61406 0.86696 0.0
C1130 C 0.06778 0.63264 0.83634 0.0
C1131 C 0.09264 0.64644 0.84242 0.0
C1132 C 0.10059 0.64442 0.86093 0.0
C1133 C 0.08397 0.62818 0.87298 0.0
C1134 C 0.05868 0.63415 0.81669 0.0
C1135 C 0.1269 0.65898 0.86792 0.0
C1136 C 0.14792 0.66034 0.80635 0.0
C1137 C 0.14319 0.68963 0.80208 0.0
C1138 C 0.13204 0.64625 0.81976 0.0
C1139 C 0.11092 0.6618 0.82916 0.0
C1140 C 0.10645 0.69153 0.82524 0.0
C1141 C 0.12264 0.70511 0.81172 0.0
C1142 C 0.13744 0.6145 0.82355 0.0
C1143 C 0.08415 0.70881 0.83504 0.0
H1144 H 0.03291 0.60543 0.8439 0.0
H1145 H 0.09006 0.62652 0.88715 0.0
H1146 H 0.05692 0.65712 0.8123 0.0
H1147 H 0.07475 0.6237 0.80793 0.0
H1148 H 0.03818 0.62323 0.81433 0.0
H1149 H 0.12936 0.65654 0.88287 0.0
H1150 H 0.1456 0.64949 0.86116 0.0
H1151 H 0.12655 0.68245 0.86456 0.0
H1152 H 0.16383 0.64821 0.79904 0.0
H1153 H 0.1189 0.72776 0.80855 0.0
H1154 H 0.11843 0.60162 0.82017 0.0
H1155 H 0.14182 0.6112 0.83821 0.0
H1156 H 0.15541 0.60586 0.81557 0.0
H1157 H 0.06309 0.69972 0.83192 0.0
H1158 H 0.08435 0.7321 0.83113 0.0
H1159 H 0.08718 0.70716 0.84996 0.0
C1160 C 0.37656 0.56302 0.10611 0.0
C1161 C 0.40466 0.57071 0.10929 0.0
C1162 C 0.3607 0.57709 0.09266 0.0
C1163 C 0.37336 0.59912 0.08203 0.0
C1164 C 0.40152 0.60741 0.08547 0.0
C1165 C 0.4168 0.59318 0.09912 0.0
C1166 C 0.33061 0.56793 0.08954 0.0
C1167 C 0.41584 0.63064 0.07433 0.0
C1168 C 0.34549 0.61341 0.03455 0.0
C1169 C 0.33068 0.63943 0.03699 0.0
C1170 C 0.35913 0.59987 0.04916 0.0
C1171 C 0.35771 0.61251 0.06669 0.0
C1172 C 0.34219 0.63836 0.06936 0.0
C1173 C 0.32895 0.6516 0.05445 0.0
C1174 C 0.37564 0.57239 0.04576 0.0
C1175 C 0.33997 0.65228 0.08789 0.0
H1176 H 0.36706 0.54585 0.1141 0.0
H1177 H 0.4386 0.59895 0.10142 0.0
H1178 H 0.31654 0.58711 0.09006 0.0
H1179 H 0.32848 0.55823 0.0758 0.0
H1180 H 0.32334 0.55182 0.09974 0.0
H1181 H 0.43743 0.6354 0.07924 0.0
H1182 H 0.41709 0.62363 0.05991 0.0
H1183 H 0.40339 0.65099 0.07468 0.0
H1184 H 0.34699 0.60388 0.02111 0.0
H1185 H 0.31744 0.67165 0.05646 0.0
H1186 H 0.36796 0.55475 0.05474 0.0
H1187 H 0.39812 0.57605 0.04908 0.0
H1188 H 0.37411 0.56498 0.03142 0.0
H1189 H 0.33195 0.63634 0.09793 0.0
H1190 H 0.32588 0.6715 0.08787 0.0
H1191 H 0.36111 0.65922 0.09256 0.0
C1192 C 0.38558 0.90994 0.36201 0.0
C1193 C 0.40857 0.8971 0.37081 0.0
C1194 C 0.36876 0.89391 0.34998 0.0
C1195 C 0.37507 0.86434 0.3467 0.0
C1196 C 0.3977 0.85101 0.35598 0.0
C1197 C 0.41422 0.86758 0.36791 0.0
C1198 C 0.34484 0.90891 0.34029 0.0
C1199 C 0.40495 0.81948 0.35292 0.0
C1200 C 0.31891 0.81801 0.3241 0.0
C1201 C 0.32762 0.81847 0.30588 0.0
C1202 C 0.33434 0.83252 0.33761 0.0
C1203 C 0.359 0.84787 0.33276 0.0
C1204 C 0.36808 0.8481 0.31444 0.0
C1205 C 0.35231 0.83337 0.30123 0.0
C1206 C 0.32408 0.83176 0.35703 0.0
C1207 C 0.39426 0.86427 0.30872 0.0
H1208 H 0.38131 0.93282 0.36403 0.0
H1209 H 0.43174 0.85747 0.37488 0.0
H1210 H 0.34914 0.90953 0.32547 0.0
H1211 H 0.32502 0.89662 0.34225 0.0
H1212 H 0.34166 0.9315 0.34517 0.0
H1213 H 0.42207 0.81193 0.36203 0.0
H1214 H 0.38616 0.80566 0.35518 0.0
H1215 H 0.41166 0.81622 0.33862 0.0
H1216 H 0.29987 0.80653 0.32781 0.0
H1217 H 0.35921 0.83386 0.28719 0.0
H1218 H 0.31909 0.85409 0.36168 0.0
H1219 H 0.34083 0.82329 0.36608 0.0
H1220 H 0.30504 0.81805 0.35867 0.0
H1221 H 0.39192 0.88771 0.31184 0.0
H1222 H 0.39874 0.86185 0.29398 0.0
H1223 H 0.41265 0.85625 0.31651 0.0
C1224 C 0.07413 0.89381 0.59452 0.0
C1225 C 0.08183 0.89902 0.61264 0.0
C1226 C 0.09135 0.87751 0.58294 0.0
C1227 C 0.11707 0.86629 0.58956 0.0
C1228 C 0.1251 0.87153 0.6078 0.0
C1229 C 0.10734 0.88781 0.61915 0.0
C1230 C 0.08202 0.87239 0.56356 0.0
C1231 C 0.15241 0.85994 0.6153 0.0
C1232 C 0.14609 0.80339 0.56216 0.0
C1233 C 0.16452 0.81767 0.55026 0.0
C1234 C 0.13139 0.81877 0.57559 0.0
C1235 C 0.13537 0.84911 0.57723 0.0
C1236 C 0.15506 0.86338 0.56591 0.0
C1237 C 0.16935 0.8475 0.55251 0.0
C1238 C 0.11052 0.80279 0.5874 0.0
C1239 C 0.16009 0.89567 0.56739 0.0
H1240 H 0.05472 0.90285 0.58929 0.0
H1241 H 0.1133 0.89152 0.63318 0.0
H1242 H 0.0977 0.88161 0.55401 0.0
H1243 H 0.08071 0.84874 0.56081 0.0
H1244 H 0.06123 0.8823 0.56062 0.0
H1245 H 0.15568 0.86612 0.62975 0.0
H1246 H 0.15277 0.83592 0.61425 0.0
H1247 H 0.1703 0.86827 0.60716 0.0
H1248 H 0.1423 0.78032 0.56057 0.0
H1249 H 0.18375 0.85866 0.54348 0.0
H1250 H 0.0889 0.80996 0.58397 0.0
H1251 H 0.1141 0.80796 0.60194 0.0
H1252 H 0.11176 0.77888 0.58557 0.0
H1253 H 0.14099 0.90753 0.56297 0.0
H1254 H 0.17805 0.90294 0.55887 0.0
H1255 H 0.16425 0.90184 0.58172 0.0
C1256 C 0.62567 0.41462 0.89128 0.0
C1257 C 0.59756 0.40951 0.8865 0.0
C1258 C 0.63987 0.39611 0.90332 0.0
C1259 C 0.62569 0.37177 0.91065 0.0
C1260 C 0.59764 0.36591 0.90542 0.0
C1261 C 0.58387 0.38491 0.89347 0.0
C1262 C 0.6698 0.40309 0.9086 0.0
C1263 C 0.58187 0.34008 0.91289 0.0
C1264 C 0.66983 0.31284 0.93288 0.0
C1265 C 0.66741 0.32009 0.95134 0.0
C1266 C 0.65604 0.3292 0.91946 0.0
C1267 C 0.63965 0.35348 0.92464 0.0
C1268 C 0.63691 0.36071 0.94326 0.0
C1269 C 0.65071 0.34387 0.95638 0.0
C1270 C 0.65921 0.32071 0.89974 0.0
C1271 C 0.61973 0.38653 0.94932 0.0
H1272 H 0.63655 0.43329 0.88571 0.0
H1273 H 0.56205 0.38096 0.89004 0.0
H1274 H 0.67086 0.40784 0.92338 0.0
H1275 H 0.68357 0.38412 0.906 0.0
H1276 H 0.67825 0.42207 0.90105 0.0
H1277 H 0.56097 0.33728 0.90638 0.0
H1278 H 0.59424 0.31993 0.91086 0.0
H1279 H 0.57875 0.34278 0.92774 0.0
H1280 H 0.68262 0.29445 0.92888 0.0
H1281 H 0.64877 0.34969 0.9706 0.0
H1282 H 0.66938 0.33859 0.89208 0.0
H1283 H 0.63822 0.31709 0.89356 0.0
H1284 H 0.67196 0.3007 0.89801 0.0
H1285 H 0.62841 0.40669 0.94326 0.0
H1286 H 0.61946 0.38902 0.96435 0.0
H1287 H 0.59777 0.38433 0.94446 0.0
C1288 C 0.57932 0.07938 0.16731 0.0
C1289 C 0.58737 0.07589 0.14909 0.0
C1290 C 0.59738 0.09238 0.17998 0.0
C1291 C 0.6243 0.10187 0.17437 0.0
C1292 C 0.63274 0.09816 0.15606 0.0
C1293 C 0.61412 0.08532 0.14362 0.0
C1294 C 0.58757 0.09606 0.19938 0.0
C1295 C 0.66135 0.10792 0.14962 0.0
C1296 C 0.65826 0.15954 0.20392 0.0
C1297 C 0.6756 0.14279 0.21523 0.0
C1298 C 0.64201 0.14657 0.19023 0.0
C1299 C 0.64331 0.11615 0.18769 0.0
C1300 C 0.66153 0.09924 0.19861 0.0
C1301 C 0.67738 0.11275 0.21233 0.0
C1302 C 0.62269 0.16531 0.17894 0.0
C1303 C 0.6637 0.06677 0.19615 0.0
H1304 H 0.55893 0.07166 0.17175 0.0
H1305 H 0.62039 0.08301 0.12952 0.0
H1306 H 0.60203 0.08455 0.20876 0.0
H1307 H 0.58794 0.11938 0.20317 0.0
H1308 H 0.56595 0.0876 0.20152 0.0
H1309 H 0.66503 0.10265 0.13507 0.0
H1310 H 0.66353 0.13172 0.15147 0.0
H1311 H 0.678 0.09746 0.15789 0.0
H1312 H 0.65675 0.18277 0.20606 0.0
H1313 H 0.69085 0.09969 0.22093 0.0
H1314 H 0.60051 0.15916 0.1816 0.0
H1315 H 0.62668 0.16173 0.16425 0.0
H1316 H 0.62526 0.18879 0.18196 0.0
H1317 H 0.64332 0.05645 0.19962 0.0
H1318 H 0.68033 0.05707 0.20483 0.0
H1319 H 0.66827 0.06148 0.18173 0.0
C1320 C 0.90631 0.08409 0.39883 0.0
C1321 C 0.92419 0.09859 0.38673 0.0
C1322 C 0.892 0.09927 0.41253 0.0
C1323 C 0.89541 0.12972 0.41398 0.0
C1324 C 0.91273 0.14461 0.4014 0.0
C1325 C 0.9271 0.12881 0.38799 0.0
C1326 C 0.87399 0.08258 0.42582 0.0
C1327 C 0.91652 0.17712 0.40234 0.0
C1328 C 0.84122 0.17037 0.44209 0.0
C1329 C 0.85543 0.17389 0.45866 0.0
C1330 C 0.85419 0.1566 0.42727 0.0
C1331 C 0.88185 0.14574 0.42917 0.0
C1332 C 0.89638 0.14947 0.44581 0.0
C1333 C 0.88306 0.16368 0.46031 0.0
C1334 C 0.83819 0.15338 0.40965 0.0
C1335 C 0.92579 0.13788 0.44843 0.0
H1336 H 0.9043 0.06068 0.398 0.0
H1337 H 0.94076 0.14005 0.37853 0.0
H1338 H 0.8827 0.08488 0.43974 0.0
H1339 H 0.85238 0.09159 0.42604 0.0
H1340 H 0.87277 0.0591 0.42244 0.0
H1341 H 0.92923 0.1856 0.39084 0.0
H1342 H 0.89575 0.18806 0.40226 0.0
H1343 H 0.9271 0.18306 0.41526 0.0
H1344 H 0.8199 0.17835 0.44069 0.0
H1345 H 0.89412 0.1662 0.4731 0.0
H1346 H 0.83494 0.13003 0.40659 0.0
H1347 H 0.85054 0.16271 0.39827 0.0
H1348 H 0.81736 0.16423 0.41011 0.0
H1349 H 0.92589 0.11398 0.44652 0.0
H1350 H 0.93431 0.14287 0.46215 0.0
H1351 H 0.9401 0.14727 0.43808 0.0
C1352 C 0.88945 0.39435 0.63504 0.0
C1353 C 0.90241 0.42011 0.64081 0.0
C1354 C 0.8761 0.37586 0.64753 0.0
C1355 C 0.87586 0.38331 0.66621 0.0
C1356 C 0.88841 0.40958 0.67204 0.0
C1357 C 0.90153 0.42764 0.65928 0.0
C1358 C 0.86276 0.34812 0.64082 0.0
C1359 C 0.8887 0.41824 0.69185 0.0
C1360 C 0.8252 0.34911 0.69982 0.0
C1361 C 0.84268 0.32912 0.70872 0.0
C1362 C 0.8354 0.36616 0.68544 0.0
C1363 C 0.86372 0.36316 0.67989 0.0
C1364 C 0.88114 0.34226 0.68836 0.0
C1365 C 0.87039 0.32547 0.70266 0.0
C1366 C 0.81617 0.38813 0.67665 0.0
C1367 C 0.91147 0.3384 0.6828 0.0
H1368 H 0.88984 0.38859 0.62075 0.0
H1369 H 0.91188 0.44728 0.66387 0.0
H1370 H 0.8739 0.32917 0.64672 0.0
H1371 H 0.84057 0.34687 0.64537 0.0
H1372 H 0.86335 0.3463 0.62576 0.0
H1373 H 0.8983 0.43996 0.69403 0.0
H1374 H 0.86698 0.41855 0.69732 0.0
H1375 H 0.90074 0.40202 0.69983 0.0
H1376 H 0.8037 0.35195 0.70435 0.0
H1377 H 0.884 0.30996 0.70938 0.0
H1378 H 0.81654 0.38566 0.66165 0.0
H1379 H 0.82366 0.41038 0.67981 0.0
H1380 H 0.79412 0.38602 0.68144 0.0
H1381 H 0.91297 0.33473 0.66793 0.0
H1382 H 0.92165 0.31991 0.68991 0.0
H1383 H 0.92344 0.35847 0.68592 0.0
C1384 C 0.58677 0.07128 0.34324 0.0
C1385 C 0.58166 0.08189 0.36082 0.0
C1386 C 0.6 0.08855 0.33008 0.0
C1387 C 0.60807 0.11726 0.33452 0.0
C1388 C 0.60309 0.12812 0.35223 0.0
C1389 C 0.59006 0.11026 0.3652 0.0
C1390 C 0.6051 0.07613 0.31135 0.0
C1391 C 0.61135 0.15867 0.35744 0.0
C1392 C 0.66358 0.15231 0.30467 0.0
C1393 C 0.64707 0.16848 0.29254 0.0
C1394 C 0.65119 0.13591 0.3186 0.0
C1395 C 0.6216 0.13589 0.32053 0.0
C1396 C 0.60487 0.15276 0.30864 0.0
C1397 C 0.6178 0.16876 0.29471 0.0
C1398 C 0.6697 0.11798 0.33092 0.0
C1399 C 0.57326 0.1535 0.31041 0.0
H1400 H 0.57992 0.0496 0.33962 0.0
H1401 H 0.58653 0.1185 0.37881 0.0
H1402 H 0.5936 0.08909 0.30105 0.0
H1403 H 0.62778 0.07741 0.30795 0.0
H1404 H 0.59825 0.05314 0.31024 0.0
H1405 H 0.60594 0.16385 0.37177 0.0
H1406 H 0.6343 0.16171 0.35556 0.0
H1407 H 0.60062 0.17446 0.34842 0.0
H1408 H 0.68622 0.15193 0.30306 0.0
H1409 H 0.60492 0.18131 0.28545 0.0
H1410 H 0.66466 0.09462 0.32923 0.0
H1411 H 0.66565 0.12362 0.34535 0.0
H1412 H 0.69241 0.12122 0.32805 0.0
H1413 H 0.56452 0.13152 0.30796 0.0
H1414 H 0.56339 0.16886 0.30068 0.0
H1415 H 0.56724 0.15991 0.32443 0.0
C1416 C 0.87297 0.07072 0.60551 0.0
C1417 C 0.90184 0.07549 0.60788 0.0
C1418 C 0.85797 0.08513 0.59179 0.0
C1419 C 0.87229 0.10447 0.58004 0.0
C1420 C 0.9013 0.10989 0.58266 0.0
C1421 C 0.9157 0.09542 0.59661 0.0
C1422 C 0.82696 0.07911 0.58957 0.0
C1423 C 0.91736 0.13019 0.57033 0.0
C1424 C 0.84298 0.11655 0.53266 0.0
C1425 C 0.83077 0.14412 0.5343 0.0
C1426 C 0.85638 0.10334 0.54749 0.0
C1427 C 0.85733 0.11792 0.56443 0.0
C1428 C 0.8446 0.14553 0.56628 0.0
C1429 C 0.83159 0.15838 0.55116 0.0
C1430 C 0.86993 0.07397 0.54495 0.0
C1431 C 0.84495 0.16159 0.58418 0.0
H1432 H 0.86217 0.05552 0.61433 0.0
H1433 H 0.93809 0.09889 0.59827 0.0
H1434 H 0.815 0.09977 0.58948 0.0
H1435 H 0.82315 0.06827 0.57632 0.0
H1436 H 0.81859 0.06502 0.60057 0.0
H1437 H 0.93953 0.13306 0.5747 0.0
H1438 H 0.91722 0.12155 0.55624 0.0
H1439 H 0.90707 0.15178 0.56998 0.0
H1440 H 0.84251 0.10543 0.51967 0.0
H1441 H 0.82208 0.17964 0.55255 0.0
H1442 H 0.86089 0.05816 0.55471 0.0
H1443 H 0.89277 0.07548 0.54783 0.0
H1444 H 0.86707 0.06539 0.53095 0.0
H1445 H 0.83563 0.14785 0.59501 0.0
H1446 H 0.83317 0.18238 0.58354 0.0
H1447 H 0.86694 0.1663 0.58822 0.0
C1448 C 0.86944 0.42043 0.86667 0.0
C1449 C 0.89769 0.41625 0.87144 0.0
C1450 C 0.85593 0.40175 0.85439 0.0
C1451 C 0.871 0.3782 0.84678 0.0
C1452 C 0.89921 0.37325 0.85201 0.0
C1453 C 0.91226 0.39239 0.86422 0.0
C1454 C 0.8258 0.40772 0.84915 0.0
C1455 C 0.91593 0.34831 0.84422 0.0
C1456 C 0.8292 0.31837 0.82358 0.0
C1457 C 0.83141 0.32641 0.80524 0.0
C1458 C 0.84229 0.33479 0.83727 0.0
C1459 C 0.85778 0.3599 0.83249 0.0
C1460 C 0.86033 0.36792 0.814 0.0
C1461 C 0.8472 0.35105 0.8006 0.0
C1462 C 0.83932 0.32546 0.85686 0.0
C1463 C 0.8766 0.39462 0.80836 0.0
H1464 H 0.85792 0.43852 0.87243 0.0
H1465 H 0.93418 0.38918 0.86766 0.0
H1466 H 0.82464 0.41303 0.83445 0.0
H1467 H 0.81273 0.38811 0.8514 0.0
H1468 H 0.81662 0.42603 0.85698 0.0
H1469 H 0.93687 0.34609 0.85076 0.0
H1470 H 0.90426 0.32763 0.84593 0.0
H1471 H 0.91904 0.35165 0.82942 0.0
H1472 H 0.8171 0.29933 0.82728 0.0
H1473 H 0.84901 0.35746 0.78647 0.0
H1474 H 0.82849 0.34266 0.86475 0.0
H1475 H 0.86039 0.32244 0.86304 0.0
H1476 H 0.82727 0.30493 0.85827 0.0
H1477 H 0.86717 0.4142 0.81469 0.0
H1478 H 0.87688 0.39766 0.79338 0.0
H1479 H 0.8986 0.39311 0.81326 0.0
C1480 C 0.62178 0.40702 0.11802 0.0
C1481 C 0.59262 0.40832 0.11542 0.0
C1482 C 0.63934 0.39437 0.10488 0.0
C1483 C 0.62743 0.38323 0.08867 0.0
C1484 C 0.59795 0.38413 0.08612 0.0
C1485 C 0.58089 0.39652 0.09958 0.0
C1486 C 0.67064 0.39338 0.10818 0.0
C1487 C 0.58446 0.37275 0.06894 0.0
C1488 C 0.67035 0.37837 0.04532 0.0
C1489 C 0.67521 0.34842 0.04403 0.0
C1490 C 0.65565 0.39013 0.06013 0.0
C1491 C 0.64569 0.37149 0.07402 0.0
C1492 C 0.65155 0.3414 0.07319 0.0
C1493 C 0.6662 0.33021 0.05818 0.0
C1494 C 0.6498 0.42234 0.06054 0.0
C1495 C 0.64147 0.32089 0.08781 0.0
H1496 H 0.63082 0.416 0.13033 0.0
H1497 H 0.55839 0.39787 0.09743 0.0
H1498 H 0.67845 0.37081 0.10671 0.0
H1499 H 0.68163 0.40677 0.09786 0.0
H1500 H 0.67639 0.40149 0.12191 0.0
H1501 H 0.56118 0.37445 0.06928 0.0
H1502 H 0.59235 0.38513 0.05705 0.0
H1503 H 0.59026 0.34967 0.06682 0.0
H1504 H 0.67733 0.39261 0.0345 0.0
H1505 H 0.67002 0.30705 0.05736 0.0
H1506 H 0.65675 0.43178 0.07367 0.0
H1507 H 0.62684 0.42614 0.0594 0.0
H1508 H 0.66049 0.43409 0.04931 0.0
H1509 H 0.6478 0.32895 0.10142 0.0
H1510 H 0.64985 0.29857 0.08597 0.0
H1511 H 0.61817 0.31983 0.08762 0.0
loop_
_geom_bond_atom_site_label_1
_geom_bond_atom_site_label_2
_geom_bond_distance
_geom_bond_site_symmetry_2
_ccdc_geom_bond_type
H0 C19 0.949 . S
H1 C20 0.950 . S
H2 C22 0.950 . S
H3 C23 0.950 . S
H4 C25 0.950 . S
H5 C28 0.950 . S
H6 C29 0.950 . S
H7 C31 0.951 . S
H8 C32 0.949 1_565 S
H9 C34 0.949 . S
H10 C35 0.950 . S
H11 C37 0.950 . S
H12 C38 0.950 . S
H13 C40 0.950 . S
H14 C43 0.950 . S
H15 C44 0.950 . S
H16 C46 0.951 . S
H17 C47 0.949 1_545 S
C18 C19 1.376 . S
C18 C23 1.386 . S
C18 C24 1.483 . S
C19 H0 0.949 . S
C19 C18 1.376 . S
C19 C20 1.397 . S
C20 H1 0.950 . S
C20 C19 1.397 . S
C20 C21 1.391 . S
C21 C20 1.391 . S
C21 C22 1.405 . S
C22 H2 0.950 . S
C22 C21 1.405 . S
C22 C23 1.367 . S
C23 H3 0.950 . S
C23 C18 1.386 . S
C23 C22 1.367 . S
C24 C18 1.483 . S
C24 C25 1.382 1_655 S
C24 C26 1.403 . S
C25 H4 0.950 . S
C25 C24 1.382 1_455 S
C25 C41 1.411 1_545 S
C26 C24 1.403 . S
C26 C27 1.489 . S
C26 C40 1.411 1_545 S
C27 C26 1.489 . S
C27 C28 1.383 . S
C27 C32 1.382 . S
C28 H5 0.950 . S
C28 C27 1.383 . S
C28 C29 1.395 . S
C29 H6 0.950 . S
C29 C28 1.395 . S
C29 C30 1.288 . S
C30 C29 1.288 . S
C30 C31 1.392 . S
C31 H7 0.951 . S
C31 C30 1.392 . S
C31 C32 1.392 . S
C32 H8 0.949 1_545 S
C32 C27 1.382 . S
C32 C31 1.392 . S
C33 C34 1.376 . S
C33 C38 1.386 . S
C33 C39 1.483 . S
C34 H9 0.949 . S
C34 C33 1.376 . S
C34 C35 1.397 . S
C35 H10 0.950 . S
C35 C34 1.397 . S
C35 C36 1.391 . S
C36 C35 1.391 . S
C36 C37 1.405 . S
C37 H11 0.950 . S
C37 C36 1.405 . S
C37 C38 1.367 . S
C38 H12 0.950 . S
C38 C33 1.386 . S
C38 C37 1.367 . S
C39 C33 1.483 . S
C39 C40 1.382 1_455 S
C39 C41 1.403 . S
C40 H13 0.950 . S
C40 C26 1.411 1_565 S
C40 C39 1.382 1_655 S
C41 C25 1.411 1_565 S
C41 C39 1.403 . S
C41 C42 1.489 . S
C42 C41 1.489 . S
C42 C43 1.383 . S
C42 C47 1.382 . S
C43 H14 0.950 . S
C43 C42 1.383 . S
C43 C44 1.395 . S
C44 H15 0.950 . S
C44 C43 1.395 . S
C44 C45 1.288 . S
C45 C44 1.288 . S
C45 C46 1.392 . S
C46 H16 0.951 . S
C46 C45 1.392 . S
C46 C47 1.392 . S
C47 H17 0.949 1_565 S
C47 C42 1.382 . S
C47 C46 1.392 . S
H48 C67 0.949 1_455 S
H49 C68 0.950 . S
H50 C70 0.950 . S
H51 C71 0.950 . S
H52 C73 0.950 . S
H53 C76 0.950 . S
H54 C77 0.950 . S
H55 C79 0.951 . S
H56 C80 0.949 . S
H57 C82 0.949 1_655 S
H58 C83 0.950 . S
H59 C85 0.950 . S
H60 C86 0.950 . S
H61 C88 0.950 . S
H62 C91 0.950 . S
H63 C92 0.950 . S
H64 C94 0.951 . S
H65 C95 0.949 . S
C66 C67 1.376 . S
C66 C71 1.386 . S
C66 C72 1.483 . S
C67 H48 0.949 1_655 S
C67 C66 1.376 . S
C67 C68 1.397 . S
C68 H49 0.950 . S
C68 C67 1.397 . S
C68 C69 1.391 . S
C69 C68 1.391 . S
C69 C70 1.405 . S
C70 H50 0.950 . S
C70 C69 1.405 . S
C70 C71 1.367 . S
C71 H51 0.950 . S
C71 C66 1.386 . S
C71 C70 1.367 . S
C72 C66 1.483 . S
C72 C73 1.382 1_655 S
C72 C74 1.403 . S
C73 H52 0.950 . S
C73 C72 1.382 1_455 S
C73 C89 1.411 . S
C74 C72 1.403 . S
C74 C75 1.489 . S
C74 C88 1.411 . S
C75 C74 1.489 . S
C75 C76 1.383 . S
C75 C80 1.382 . S
C76 H53 0.950 . S
C76 C75 1.383 . S
C76 C77 1.395 . S
C77 H54 0.950 . S
C77 C76 1.395 . S
C77 C78 1.288 . S
C78 C77 1.288 . S
C78 C79 1.392 . S
C79 H55 0.951 . S
C79 C78 1.392 . S
C79 C80 1.392 . S
C80 H56 0.949 . S
C80 C75 1.382 . S
C80 C79 1.392 . S
C81 C82 1.376 . S
C81 C86 1.386 . S
C81 C87 1.483 . S
C82 H57 0.949 1_455 S
C82 C81 1.376 . S
C82 C83 1.397 . S
C83 H58 0.950 . S
C83 C82 1.397 . S
C83 C84 1.391 . S
C84 C83 1.391 . S
C84 C85 1.405 . S
C85 H59 0.950 . S
C85 C84 1.405 . S
C85 C86 1.367 . S
C86 H60 0.950 . S
C86 C81 1.386 . S
C86 C85 1.367 . S
C87 C81 1.483 . S
C87 C88 1.382 1_455 S
C87 C89 1.403 . S
C88 H61 0.950 . S
C88 C74 1.411 . S
C88 C87 1.382 1_655 S
C89 C73 1.411 . S
C89 C87 1.403 . S
C89 C90 1.489 . S
C90 C89 1.489 . S
C90 C91 1.383 . S
C90 C95 1.382 . S
C91 H62 0.950 . S
C91 C90 1.383 . S
C91 C92 1.395 . S
C92 H63 0.950 . S
C92 C91 1.395 . S
C92 C93 1.288 . S
C93 C92 1.288 . S
C93 C94 1.392 . S
C94 H64 0.951 . S
C94 C93 1.392 . S
C94 C95 1.392 . S
C95 H65 0.949 . S
C95 C90 1.382 . S
C95 C94 1.392 . S
H96 C115 0.949 . S
H97 C116 0.950 . S
H98 C118 0.950 . S
H99 C119 0.950 . S
H100 C121 0.950 . S
H101 C124 0.950 . S
H102 C125 0.950 . S
H103 C127 0.951 . S
H104 C128 0.949 . S
H105 C130 0.949 . S
H106 C131 0.950 . S
H107 C133 0.950 . S
H108 C134 0.950 . S
H109 C136 0.950 . S
H110 C139 0.950 . S
H111 C140 0.950 . S
H112 C142 0.951 . S
H113 C143 0.949 . S
C114 C115 1.376 . S
C114 C119 1.386 . S
C114 C120 1.483 . S
C115 H96 0.949 . S
C115 C114 1.376 . S
C115 C116 1.397 . S
C116 H97 0.950 . S
C116 C115 1.397 . S
C116 C117 1.391 . S
C117 C116 1.391 . S
C117 C118 1.405 . S
C118 H98 0.950 . S
C118 C117 1.405 . S
C118 C119 1.367 . S
C119 H99 0.950 . S
C119 C114 1.386 . S
C119 C118 1.367 . S
C120 C114 1.483 . S
C120 C121 1.382 . S
C120 C122 1.403 . S
C121 H100 0.950 . S
C121 C120 1.382 . S
C121 C137 1.411 . S
C122 C120 1.403 . S
C122 C123 1.489 . S
C122 C136 1.411 . S
C123 C122 1.489 . S
C123 C124 1.383 . S
C123 C128 1.382 . S
C124 H101 0.950 . S
C124 C123 1.383 . S
C124 C125 1.395 . S
C125 H102 0.950 . S
C125 C124 1.395 . S
C125 C126 1.288 . S
C126 C125 1.288 . S
C126 C127 1.392 . S
C127 H103 0.951 . S
C127 C126 1.392 . S
C127 C128 1.392 . S
C128 H104 0.949 . S
C128 C123 1.382 . S
C128 C127 1.392 . S
C129 C130 1.376 . S
C129 C134 1.386 . S
C129 C135 1.483 . S
C130 H105 0.949 . S
C130 C129 1.376 . S
C130 C131 1.397 . S
C131 H106 0.950 . S
C131 C130 1.397 . S
C131 C132 1.391 . S
C132 C131 1.391 . S
C132 C133 1.405 . S
C133 H107 0.950 . S
C133 C132 1.405 . S
C133 C134 1.367 . S
C134 H108 0.950 . S
C134 C129 1.386 . S
C134 C133 1.367 . S
C135 C129 1.483 . S
C135 C136 1.382 . S
C135 C137 1.403 . S
C136 H109 0.950 . S
C136 C122 1.411 . S
C136 C135 1.382 . S
C137 C121 1.411 . S
C137 C135 1.403 . S
C137 C138 1.489 . S
C138 C137 1.489 . S
C138 C139 1.383 . S
C138 C143 1.382 . S
C139 H110 0.950 . S
C139 C138 1.383 . S
C139 C140 1.395 . S
C140 H111 0.950 . S
C140 C139 1.395 . S
C140 C141 1.288 . S
C141 C140 1.288 . S
C141 C142 1.392 . S
C142 H112 0.951 . S
C142 C141 1.392 . S
C142 C143 1.392 . S
C143 H113 0.949 . S
C143 C138 1.382 . S
C143 C142 1.392 . S
H144 C163 0.949 . S
H145 C164 0.950 . S
H146 C166 0.950 . S
H147 C167 0.950 . S
H148 C169 0.950 . S
H149 C172 0.950 . S
H150 C173 0.950 . S
H151 C175 0.951 . S
H152 C176 0.949 . S
H153 C178 0.949 . S
H154 C179 0.950 . S
H155 C181 0.950 . S
H156 C182 0.950 . S
H157 C184 0.950 . S
H158 C187 0.950 . S
H159 C188 0.950 . S
H160 C190 0.951 . S
H161 C191 0.949 . S
C162 C163 1.376 . S
C162 C167 1.386 . S
C162 C168 1.483 . S
C163 H144 0.949 . S
C163 C162 1.376 . S
C163 C164 1.397 . S
C164 H145 0.950 . S
C164 C163 1.397 . S
C164 C165 1.391 . S
C165 C164 1.391 . S
C165 C166 1.405 . S
C166 H146 0.950 . S
C166 C165 1.405 . S
C166 C167 1.367 . S
C167 H147 0.950 . S
C167 C162 1.386 . S
C167 C166 1.367 . S
C168 C162 1.483 . S
C168 C169 1.382 . S
C168 C170 1.403 . S
C169 H148 0.950 . S
C169 C168 1.382 . S
C169 C185 1.411 1_565 S
C170 C168 1.403 . S
C170 C171 1.489 . S
C170 C184 1.411 1_565 S
C171 C170 1.489 . S
C171 C172 1.383 . S
C171 C176 1.382 . S
C172 H149 0.950 . S
C172 C171 1.383 . S
C172 C173 1.395 . S
C173 H150 0.950 . S
C173 C172 1.395 . S
C173 C174 1.288 . S
C174 C173 1.288 . S
C174 C175 1.392 . S
C175 H151 0.951 . S
C175 C174 1.392 . S
C175 C176 1.392 . S
C176 H152 0.949 . S
C176 C171 1.382 . S
C176 C175 1.392 . S
C177 C178 1.376 . S
C177 C182 1.386 . S
C177 C183 1.483 . S
C178 H153 0.949 . S
C178 C177 1.376 . S
C178 C179 1.397 . S
C179 H154 0.950 . S
C179 C178 1.397 . S
C179 C180 1.391 . S
C180 C179 1.391 . S
C180 C181 1.405 . S
C181 H155 0.950 . S
C181 C180 1.405 . S
C181 C182 1.367 . S
C182 H156 0.950 . S
C182 C177 1.386 . S
C182 C181 1.367 . S
C183 C177 1.483 . S
C183 C184 1.382 . S
C183 C185 1.403 . S
C184 H157 0.950 . S
C184 C170 1.411 1_545 S
C184 C183 1.382 . S
C185 C169 1.411 1_545 S
C185 C183 1.403 . S
C185 C186 1.489 . S
C186 C185 1.489 . S
C186 C187 1.383 . S
C186 C191 1.382 . S
C187 H158 0.950 . S
C187 C186 1.383 . S
C187 C188 1.395 . S
C188 H159 0.950 . S
C188 C187 1.395 . S
C188 C189 1.288 . S
C189 C188 1.288 . S
C189 C190 1.392 . S
C190 H160 0.951 . S
C190 C189 1.392 . S
C190 C191 1.392 . S
C191 H161 0.949 . S
C191 C186 1.382 . S
C191 C190 1.392 . S
H192 C211 0.949 . S
H193 C212 0.950 . S
H194 C214 0.950 . S
H195 C215 0.950 . S
H196 C217 0.950 . S
H197 C220 0.950 . S
H198 C221 0.950 . S
H199 C223 0.951 . S
H200 C224 0.949 . S
H201 C226 0.949 . S
H202 C227 0.950 . S
H203 C229 0.950 . S
H204 C230 0.950 . S
H205 C232 0.950 . S
H206 C235 0.950 . S
H207 C236 0.950 . S
H208 C238 0.951 . S
H209 C239 0.949 . S
C210 C211 1.376 . S
C210 C215 1.386 . S
C210 C216 1.483 . S
C211 H192 0.949 . S
C211 C210 1.376 . S
C211 C212 1.397 . S
C212 H193 0.950 . S
C212 C211 1.397 . S
C212 C213 1.391 . S
C213 C212 1.391 . S
C213 C214 1.405 . S
C214 H194 0.950 . S
C214 C213 1.405 . S
C214 C215 1.367 . S
C215 H195 0.950 . S
C215 C210 1.386 . S
C215 C214 1.367 . S
C216 C210 1.483 . S
C216 C217 1.382 1_455 S
C216 C218 1.403 . S
C217 H196 0.950 . S
C217 C216 1.382 1_655 S
C217 C233 1.411 . S
C218 C216 1.403 . S
C218 C219 1.489 . S
C218 C232 1.411 . S
C219 C218 1.489 . S
C219 C220 1.383 . S
C219 C224 1.382 . S
C220 H197 0.950 . S
C220 C219 1.383 . S
C220 C221 1.395 . S
C221 H198 0.950 . S
C221 C220 1.395 . S
C221 C222 1.288 . S
C222 C221 1.288 . S
C222 C223 1.392 . S
C223 H199 0.951 . S
C223 C222 1.392 . S
C223 C224 1.392 . S
C224 H200 0.949 . S
C224 C219 1.382 . S
C224 C223 1.392 . S
C225 C226 1.376 . S
C225 C230 1.386 . S
C225 C231 1.483 . S
C226 H201 0.949 . S
C226 C225 1.376 . S
C226 C227 1.397 . S
C227 H202 0.950 . S
C227 C226 1.397 . S
C227 C228 1.391 . S
C228 C227 1.391 . S
C228 C229 1.405 . S
C229 H203 0.950 . S
C229 C228 1.405 . S
C229 C230 1.367 . S
C230 H204 0.950 . S
C230 C225 1.386 . S
C230 C229 1.367 . S
C231 C225 1.483 . S
C231 C232 1.382 1_655 S
C231 C233 1.403 . S
C232 H205 0.950 . S
C232 C218 1.411 . S
C232 C231 1.382 1_455 S
C233 C217 1.411 . S
C233 C231 1.403 . S
C233 C234 1.489 . S
C234 C233 1.489 . S
C234 C235 1.383 . S
C234 C239 1.382 . S
C235 H206 0.950 . S
C235 C234 1.383 . S
C235 C236 1.395 . S
C236 H207 0.950 . S
C236 C235 1.395 . S
C236 C237 1.288 . S
C237 C236 1.288 . S
C237 C238 1.392 . S
C238 H208 0.951 . S
C238 C237 1.392 . S
C238 C239 1.392 . S
C239 H209 0.949 . S
C239 C234 1.382 . S
C239 C238 1.392 . S
H240 C259 0.949 . S
H241 C260 0.950 . S
H242 C262 0.950 . S
H243 C263 0.950 . S
H244 C265 0.950 . S
H245 C268 0.950 . S
H246 C269 0.950 . S
H247 C271 0.951 . S
H248 C272 0.949 . S
H249 C274 0.949 . S
H250 C275 0.950 . S
H251 C277 0.950 . S
H252 C278 0.950 . S
H253 C280 0.950 . S
H254 C283 0.950 . S
H255 C284 0.950 . S
H256 C286 0.951 . S
H257 C287 0.949 . S
C258 C259 1.376 . S
C258 C263 1.386 . S
C258 C264 1.483 . S
C259 H240 0.949 . S
C259 C258 1.376 . S
C259 C260 1.397 . S
C260 H241 0.950 . S
C260 C259 1.397 . S
C260 C261 1.391 . S
C261 C260 1.391 . S
C261 C262 1.405 . S
C262 H242 0.950 . S
C262 C261 1.405 . S
C262 C263 1.367 . S
C263 H243 0.950 . S
C263 C258 1.386 . S
C263 C262 1.367 . S
C264 C258 1.483 . S
C264 C265 1.382 . S
C264 C266 1.403 . S
C265 H244 0.950 . S
C265 C264 1.382 . S
C265 C281 1.411 . S
C266 C264 1.403 . S
C266 C267 1.489 . S
C266 C280 1.411 . S
C267 C266 1.489 . S
C267 C268 1.383 . S
C267 C272 1.382 . S
C268 H245 0.950 . S
C268 C267 1.383 . S
C268 C269 1.395 . S
C269 H246 0.950 . S
C269 C268 1.395 . S
C269 C270 1.288 . S
C270 C269 1.288 . S
C270 C271 1.392 . S
C271 H247 0.951 . S
C271 C270 1.392 . S
C271 C272 1.392 . S
C272 H248 0.949 . S
C272 C267 1.382 . S
C272 C271 1.392 . S
C273 C274 1.376 . S
C273 C278 1.386 . S
C273 C279 1.483 . S
C274 H249 0.949 . S
C274 C273 1.376 . S
C274 C275 1.397 . S
C275 H250 0.950 . S
C275 C274 1.397 . S
C275 C276 1.391 . S
C276 C275 1.391 . S
C276 C277 1.405 . S
C277 H251 0.950 . S
C277 C276 1.405 . S
C277 C278 1.367 . S
C278 H252 0.950 . S
C278 C273 1.386 . S
C278 C277 1.367 . S
C279 C273 1.483 . S
C279 C280 1.382 . S
C279 C281 1.403 . S
C280 H253 0.950 . S
C280 C266 1.411 . S
C280 C279 1.382 . S
C281 C265 1.411 . S
C281 C279 1.403 . S
C281 C282 1.489 . S
C282 C281 1.489 . S
C282 C283 1.383 . S
C282 C287 1.382 . S
C283 H254 0.950 . S
C283 C282 1.383 . S
C283 C284 1.395 . S
C284 H255 0.950 . S
C284 C283 1.395 . S
C284 C285 1.288 . S
C285 C284 1.288 . S
C285 C286 1.392 . S
C286 H256 0.951 . S
C286 C285 1.392 . S
C286 C287 1.392 . S
C287 H257 0.949 . S
C287 C282 1.382 . S
C287 C286 1.392 . S
H288 C307 0.949 . S
H289 C308 0.950 . S
H290 C310 0.950 . S
H291 C311 0.950 . S
H292 C313 0.950 . S
H293 C316 0.950 . S
H294 C317 0.950 . S
H295 C319 0.951 . S
H296 C320 0.949 1_545 S
H297 C322 0.949 . S
H298 C323 0.950 . S
H299 C325 0.950 . S
H300 C326 0.950 . S
H301 C328 0.950 . S
H302 C331 0.950 . S
H303 C332 0.950 . S
H304 C334 0.951 . S
H305 C335 0.949 1_565 S
C306 C307 1.376 . S
C306 C311 1.386 . S
C306 C312 1.483 . S
C307 H288 0.949 . S
C307 C306 1.376 . S
C307 C308 1.397 . S
C308 H289 0.950 . S
C308 C307 1.397 . S
C308 C309 1.391 . S
C309 C308 1.391 . S
C309 C310 1.405 . S
C310 H290 0.950 . S
C310 C309 1.405 . S
C310 C311 1.367 . S
C311 H291 0.950 . S
C311 C306 1.386 . S
C311 C310 1.367 . S
C312 C306 1.483 . S
C312 C313 1.382 . S
C312 C314 1.403 . S
C313 H292 0.950 . S
C313 C312 1.382 . S
C313 C329 1.411 1_565 S
C314 C312 1.403 . S
C314 C315 1.489 . S
C314 C328 1.411 1_565 S
C315 C314 1.489 . S
C315 C316 1.383 . S
C315 C320 1.382 . S
C316 H293 0.950 . S
C316 C315 1.383 . S
C316 C317 1.395 . S
C317 H294 0.950 . S
C317 C316 1.395 . S
C317 C318 1.288 . S
C318 C317 1.288 . S
C318 C319 1.392 . S
C319 H295 0.951 . S
C319 C318 1.392 . S
C319 C320 1.392 . S
C320 H296 0.949 1_565 S
C320 C315 1.382 . S
C320 C319 1.392 . S
C321 C322 1.376 . S
C321 C326 1.386 . S
C321 C327 1.483 . S
C322 H297 0.949 . S
C322 C321 1.376 . S
C322 C323 1.397 . S
C323 H298 0.950 . S
C323 C322 1.397 . S
C323 C324 1.391 . S
C324 C323 1.391 . S
C324 C325 1.405 . S
C325 H299 0.950 . S
C325 C324 1.405 . S
C325 C326 1.367 . S
C326 H300 0.950 . S
C326 C321 1.386 . S
C326 C325 1.367 . S
C327 C321 1.483 . S
C327 C328 1.382 . S
C327 C329 1.403 . S
C328 H301 0.950 . S
C328 C314 1.411 1_545 S
C328 C327 1.382 . S
C329 C313 1.411 1_545 S
C329 C327 1.403 . S
C329 C330 1.489 . S
C330 C329 1.489 . S
C330 C331 1.383 . S
C330 C335 1.382 . S
C331 H302 0.950 . S
C331 C330 1.383 . S
C331 C332 1.395 . S
C332 H303 0.950 . S
C332 C331 1.395 . S
C332 C333 1.288 . S
C333 C332 1.288 . S
C333 C334 1.392 . S
C334 H304 0.951 . S
C334 C333 1.392 . S
C334 C335 1.392 . S
C335 H305 0.949 1_545 S
C335 C330 1.382 . S
C335 C334 1.392 . S
H336 C355 0.949 1_455 S
H337 C356 0.950 . S
H338 C358 0.950 . S
H339 C359 0.950 . S
H340 C361 0.950 . S
H341 C364 0.950 . S
H342 C365 0.950 . S
H343 C367 0.951 . S
H344 C368 0.949 . S
H345 C370 0.949 1_655 S
H346 C371 0.950 . S
H347 C373 0.950 . S
H348 C374 0.950 . S
H349 C376 0.950 . S
H350 C379 0.950 . S
H351 C380 0.950 . S
H352 C382 0.951 . S
H353 C383 0.949 . S
C354 C355 1.376 . S
C354 C359 1.386 . S
C354 C360 1.483 . S
C355 H336 0.949 1_655 S
C355 C354 1.376 . S
C355 C356 1.397 . S
C356 H337 0.950 . S
C356 C355 1.397 . S
C356 C357 1.391 . S
C357 C356 1.391 . S
C357 C358 1.405 . S
C358 H338 0.950 . S
C358 C357 1.405 . S
C358 C359 1.367 . S
C359 H339 0.950 . S
C359 C354 1.386 . S
C359 C358 1.367 . S
C360 C354 1.483 . S
C360 C361 1.382 1_655 S
C360 C362 1.403 . S
C361 H340 0.950 . S
C361 C360 1.382 1_455 S
C361 C377 1.411 1_545 S
C362 C360 1.403 . S
C362 C363 1.489 . S
C362 C376 1.411 1_545 S
C363 C362 1.489 . S
C363 C364 1.383 . S
C363 C368 1.382 . S
C364 H341 0.950 . S
C364 C363 1.383 . S
C364 C365 1.395 . S
C365 H342 0.950 . S
C365 C364 1.395 . S
C365 C366 1.288 . S
C366 C365 1.288 . S
C366 C367 1.392 . S
C367 H343 0.951 . S
C367 C366 1.392 . S
C367 C368 1.392 . S
C368 H344 0.949 . S
C368 C363 1.382 . S
C368 C367 1.392 . S
C369 C370 1.376 . S
C369 C374 1.386 . S
C369 C375 1.483 . S
C370 H345 0.949 1_455 S
C370 C369 1.376 . S
C370 C371 1.397 . S
C371 H346 0.950 . S
C371 C370 1.397 . S
C371 C372 1.391 . S
C372 C371 1.391 . S
C372 C373 1.405 . S
C373 H347 0.950 . S
C373 C372 1.405 . S
C373 C374 1.367 . S
C374 H348 0.950 . S
C374 C369 1.386 . S
C374 C373 1.367 . S
C375 C369 1.483 . S
C375 C376 1.382 1_455 S
C375 C377 1.403 . S
C376 H349 0.950 . S
C376 C362 1.411 1_565 S
C376 C375 1.382 1_655 S
C377 C361 1.411 1_565 S
C377 C375 1.403 . S
C377 C378 1.489 . S
C378 C377 1.489 . S
C378 C379 1.383 . S
C378 C383 1.382 . S
C379 H350 0.950 . S
C379 C378 1.383 . S
C379 C380 1.395 . S
C380 H351 0.950 . S
C380 C379 1.395 . S
C380 C381 1.288 . S
C381 C380 1.288 . S
C381 C382 1.392 . S
C382 H352 0.951 . S
C382 C381 1.392 . S
C382 C383 1.392 . S
C383 H353 0.949 . S
C383 C378 1.382 . S
C383 C382 1.392 . S
C384 O385 1.160 1_556 S
C384 O391 1.185 . S
O385 C384 1.160 1_554 S
O386 Zn387 1.899 . S
O386 C394 1.284 . S
Zn387 O386 1.899 . S
Zn387 O388 2.032 1_554 S
Zn387 O391 2.086 1_554 S
Zn387 O396 1.977 . S
O388 Zn387 2.032 1_556 S
O388 C392 1.278 . S
C389 O390 1.203 . S
C389 O396 1.267 . S
O390 C389 1.203 . S
O391 C384 1.185 . S
O391 Zn387 2.086 1_556 S
C392 O388 1.278 . S
C392 O393 1.211 . S
O393 C392 1.211 . S
C394 O386 1.284 . S
C394 O395 1.273 . S
O395 C394 1.273 . S
O396 Zn387 1.977 . S
O396 C389 1.267 . S
C397 O398 1.160 . S
C397 O404 1.185 . S
O398 C397 1.160 . S
O399 Zn400 1.899 . S
O399 C407 1.284 . S
Zn400 O399 1.899 . S
Zn400 O401 2.032 . S
Zn400 O404 2.086 . S
Zn400 O409 1.977 . S
O401 Zn400 2.032 . S
O401 C405 1.278 . S
C402 O403 1.203 . S
C402 O409 1.267 . S
O403 C402 1.203 . S
O404 C397 1.185 . S
O404 Zn400 2.086 . S
C405 O401 1.278 . S
C405 O406 1.211 . S
O406 C405 1.211 . S
C407 O399 1.284 . S
C407 O408 1.273 . S
O408 C407 1.273 . S
O409 Zn400 1.977 . S
O409 C402 1.267 . S
C410 O411 1.160 . S
C410 O417 1.185 . S
O411 C410 1.160 . S
O412 Zn413 1.899 . S
O412 C420 1.284 . S
Zn413 O412 1.899 . S
Zn413 O414 2.032 . S
Zn413 O417 2.086 . S
Zn413 O422 1.977 . S
O414 Zn413 2.032 . S
O414 C418 1.278 . S
C415 O416 1.203 . S
C415 O422 1.267 . S
O416 C415 1.203 . S
O417 C410 1.185 . S
O417 Zn413 2.086 . S
C418 O414 1.278 . S
C418 O419 1.211 . S
O419 C418 1.211 . S
C420 O412 1.284 . S
C420 O421 1.273 . S
O421 C420 1.273 . S
O422 Zn413 1.977 . S
O422 C415 1.267 . S
C423 O424 1.160 . S
C423 O430 1.185 . S
O424 C423 1.160 . S
O425 Zn426 1.899 . S
O425 C433 1.284 . S
Zn426 O425 1.899 . S
Zn426 O427 2.032 . S
Zn426 O430 2.086 . S
Zn426 O435 1.977 . S
O427 Zn426 2.032 . S
O427 C431 1.278 . S
C428 O429 1.203 . S
C428 O435 1.267 . S
O429 C428 1.203 . S
O430 C423 1.185 . S
O430 Zn426 2.086 . S
C431 O427 1.278 . S
C431 O432 1.211 . S
O432 C431 1.211 . S
C433 O425 1.284 . S
C433 O434 1.273 . S
O434 C433 1.273 . S
O435 Zn426 1.977 . S
O435 C428 1.267 . S
C436 O437 1.160 . S
C436 O443 1.185 . S
O437 C436 1.160 . S
O438 Zn439 1.899 . S
O438 C446 1.284 . S
Zn439 O438 1.899 . S
Zn439 O440 2.032 . S
Zn439 O443 2.086 . S
Zn439 O448 1.977 . S
O440 Zn439 2.032 . S
O440 C444 1.278 . S
C441 O442 1.203 . S
C441 O448 1.267 . S
O442 C441 1.203 . S
O443 C436 1.185 . S
O443 Zn439 2.086 . S
C444 O440 1.278 . S
C444 O445 1.211 . S
O445 C444 1.211 . S
C446 O438 1.284 . S
C446 O447 1.273 . S
O447 C446 1.273 . S
O448 Zn439 1.977 . S
O448 C441 1.267 . S
C449 O450 1.160 . S
C449 O456 1.185 . S
O450 C449 1.160 . S
O451 Zn452 1.899 . S
O451 C459 1.284 . S
Zn452 O451 1.899 . S
Zn452 O453 2.032 . S
Zn452 O456 2.086 . S
Zn452 O461 1.977 . S
O453 Zn452 2.032 . S
O453 C457 1.278 . S
C454 O455 1.203 . S
C454 O461 1.267 . S
O455 C454 1.203 . S
O456 C449 1.185 . S
O456 Zn452 2.086 . S
C457 O453 1.278 . S
C457 O458 1.211 . S
O458 C457 1.211 . S
C459 O451 1.284 . S
C459 O460 1.273 . S
O460 C459 1.273 . S
O461 Zn452 1.977 . S
O461 C454 1.267 . S
C462 O463 1.160 1_556 S
C462 O469 1.185 . S
O463 C462 1.160 1_554 S
O464 Zn465 1.899 . S
O464 C472 1.284 . S
Zn465 O464 1.899 . S
Zn465 O466 2.032 1_554 S
Zn465 O469 2.086 1_554 S
Zn465 O474 1.977 . S
O466 Zn465 2.032 1_556 S
O466 C470 1.278 . S
C467 O468 1.203 . S
C467 O474 1.267 . S
O468 C467 1.203 . S
O469 C462 1.185 . S
O469 Zn465 2.086 1_556 S
C470 O466 1.278 . S
C470 O471 1.211 . S
O471 C470 1.211 . S
C472 O464 1.284 . S
C472 O473 1.273 . S
O473 C472 1.273 . S
O474 Zn465 1.977 . S
O474 C467 1.267 . S
C475 O476 1.160 . S
C475 O482 1.185 . S
O476 C475 1.160 . S
O477 Zn478 1.899 . S
O477 C485 1.284 . S
Zn478 O477 1.899 . S
Zn478 O479 2.032 . S
Zn478 O482 2.086 . S
Zn478 O487 1.977 . S
O479 Zn478 2.032 . S
O479 C483 1.278 . S
C480 O481 1.203 . S
C480 O487 1.267 . S
O481 C480 1.203 . S
O482 C475 1.185 . S
O482 Zn478 2.086 . S
C483 O479 1.278 . S
C483 O484 1.211 . S
O484 C483 1.211 . S
C485 O477 1.284 . S
C485 O486 1.273 . S
O486 C485 1.273 . S
O487 Zn478 1.977 . S
O487 C480 1.267 . S
C488 C489 1.391 . S
C488 C490 1.394 . S
C488 H504 0.931 . S
C489 C488 1.391 . S
C489 C493 1.376 . S
C490 C488 1.394 . S
C490 C491 1.369 . S
C490 C494 1.531 . S
C491 C490 1.369 . S
C491 C492 1.410 . S
C491 C499 1.503 . S
C492 C491 1.410 . S
C492 C493 1.392 . S
C492 C495 1.511 . S
C493 C489 1.376 . S
C493 C492 1.392 . S
C493 H505 0.929 . S
C494 C490 1.531 . S
C494 H506 0.960 . S
C494 H507 0.962 . S
C494 H508 0.960 . S
C495 C492 1.511 . S
C495 H509 0.961 . S
C495 H510 0.961 . S
C495 H511 0.961 . S
C496 C497 1.370 . S
C496 C498 1.363 . S
C496 H512 0.931 . S
C497 C496 1.370 . S
C497 C501 1.408 . S
C498 C496 1.363 . S
C498 C499 1.370 . S
C498 C502 1.524 . S
C499 C491 1.503 . S
C499 C498 1.370 . S
C499 C500 1.403 . S
C500 C499 1.403 . S
C500 C501 1.404 . S
C500 C503 1.539 . S
C501 C497 1.408 . S
C501 C500 1.404 . S
C501 H513 0.930 . S
C502 C498 1.524 . S
C502 H514 0.956 . S
C502 H515 0.961 . S
C502 H516 0.961 . S
C503 C500 1.539 . S
C503 H517 0.958 . S
C503 H518 0.961 . S
C503 H519 0.960 . S
H504 C488 0.931 . S
H505 C493 0.929 . S
H506 C494 0.960 . S
H507 C494 0.962 . S
H508 C494 0.960 . S
H509 C495 0.961 . S
H510 C495 0.961 . S
H511 C495 0.961 . S
H512 C496 0.931 . S
H513 C501 0.930 . S
H514 C502 0.956 . S
H515 C502 0.961 . S
H516 C502 0.961 . S
H517 C503 0.958 . S
H518 C503 0.961 . S
H519 C503 0.960 . S
C520 C521 1.391 . S
C520 C522 1.394 . S
C520 H536 0.931 . S
C521 C520 1.391 . S
C521 C525 1.376 . S
C522 C520 1.394 . S
C522 C523 1.369 . S
C522 C526 1.531 . S
C523 C522 1.369 . S
C523 C524 1.410 . S
C523 C531 1.503 . S
C524 C523 1.410 . S
C524 C525 1.392 . S
C524 C527 1.511 . S
C525 C521 1.376 . S
C525 C524 1.392 . S
C525 H537 0.929 . S
C526 C522 1.531 . S
C526 H538 0.960 . S
C526 H539 0.962 . S
C526 H540 0.960 . S
C527 C524 1.511 . S
C527 H541 0.961 . S
C527 H542 0.961 . S
C527 H543 0.961 . S
C528 C529 1.370 . S
C528 C530 1.363 . S
C528 H544 0.931 . S
C529 C528 1.370 . S
C529 C533 1.408 . S
C530 C528 1.363 . S
C530 C531 1.370 . S
C530 C534 1.524 . S
C531 C523 1.503 . S
C531 C530 1.370 . S
C531 C532 1.403 . S
C532 C531 1.403 . S
C532 C533 1.404 . S
C532 C535 1.539 . S
C533 C529 1.408 . S
C533 C532 1.404 . S
C533 H545 0.930 . S
C534 C530 1.524 . S
C534 H546 0.956 . S
C534 H547 0.961 . S
C534 H548 0.961 . S
C535 C532 1.539 . S
C535 H549 0.958 . S
C535 H550 0.961 . S
C535 H551 0.960 . S
H536 C520 0.931 . S
H537 C525 0.929 . S
H538 C526 0.960 . S
H539 C526 0.962 . S
H540 C526 0.960 . S
H541 C527 0.961 . S
H542 C527 0.961 . S
H543 C527 0.961 . S
H544 C528 0.931 . S
H545 C533 0.930 . S
H546 C534 0.956 . S
H547 C534 0.961 . S
H548 C534 0.961 . S
H549 C535 0.958 . S
H550 C535 0.961 . S
H551 C535 0.960 . S
C552 C553 1.391 . S
C552 C554 1.394 . S
C552 H568 0.931 . S
C553 C552 1.391 . S
C553 C557 1.376 . S
C554 C552 1.394 . S
C554 C555 1.369 . S
C554 C558 1.531 . S
C555 C554 1.369 . S
C555 C556 1.410 . S
C555 C563 1.503 . S
C556 C555 1.410 . S
C556 C557 1.392 . S
C556 C559 1.511 . S
C557 C553 1.376 . S
C557 C556 1.392 . S
C557 H569 0.929 . S
C558 C554 1.531 . S
C558 H570 0.960 . S
C558 H571 0.962 . S
C558 H572 0.960 . S
C559 C556 1.511 . S
C559 H573 0.961 . S
C559 H574 0.961 . S
C559 H575 0.961 . S
C560 C561 1.370 . S
C560 C562 1.363 . S
C560 H576 0.931 . S
C561 C560 1.370 . S
C561 C565 1.408 . S
C562 C560 1.363 . S
C562 C563 1.370 . S
C562 C566 1.524 . S
C563 C555 1.503 . S
C563 C562 1.370 . S
C563 C564 1.403 . S
C564 C563 1.403 . S
C564 C565 1.404 . S
C564 C567 1.539 . S
C565 C561 1.408 . S
C565 C564 1.404 . S
C565 H577 0.930 . S
C566 C562 1.524 . S
C566 H578 0.956 . S
C566 H579 0.961 . S
C566 H580 0.961 . S
C567 C564 1.539 . S
C567 H581 0.958 . S
C567 H582 0.961 . S
C567 H583 0.960 . S
H568 C552 0.931 . S
H569 C557 0.929 . S
H570 C558 0.960 . S
H571 C558 0.962 . S
H572 C558 0.960 . S
H573 C559 0.961 . S
H574 C559 0.961 . S
H575 C559 0.961 . S
H576 C560 0.931 . S
H577 C565 0.930 . S
H578 C566 0.956 . S
H579 C566 0.961 . S
H580 C566 0.961 . S
H581 C567 0.958 . S
H582 C567 0.961 . S
H583 C567 0.960 . S
C584 C585 1.391 . S
C584 C586 1.394 . S
C584 H600 0.931 . S
C585 C584 1.391 . S
C585 C589 1.376 . S
C586 C584 1.394 . S
C586 C587 1.369 . S
C586 C590 1.531 . S
C587 C586 1.369 . S
C587 C588 1.410 . S
C587 C595 1.503 . S
C588 C587 1.410 . S
C588 C589 1.392 . S
C588 C591 1.511 . S
C589 C585 1.376 . S
C589 C588 1.392 . S
C589 H601 0.929 . S
C590 C586 1.531 . S
C590 H602 0.960 . S
C590 H603 0.962 . S
C590 H604 0.960 . S
C591 C588 1.511 . S
C591 H605 0.961 . S
C591 H606 0.961 . S
C591 H607 0.961 . S
C592 C593 1.387 . S
C592 C594 1.368 . S
C592 H608 0.909 1_554 S
C593 C592 1.387 . S
C593 C597 1.408 . S
C594 C592 1.368 . S
C594 C595 1.370 . S
C594 C598 1.524 1_554 S
C595 C587 1.503 . S
C595 C594 1.370 . S
C595 C596 1.403 . S
C596 C595 1.403 . S
C596 C597 1.404 . S
C596 C599 1.539 . S
C597 C593 1.408 . S
C597 C596 1.404 . S
C597 H609 0.930 . S
C598 C594 1.524 1_556 S
C598 H610 0.956 . S
C598 H611 0.961 . S
C598 H612 0.961 . S
C599 C596 1.539 . S
C599 H613 0.958 . S
C599 H614 0.961 . S
C599 H615 0.960 . S
H600 C584 0.931 . S
H601 C589 0.929 . S
H602 C590 0.960 . S
H603 C590 0.962 . S
H604 C590 0.960 . S
H605 C591 0.961 . S
H606 C591 0.961 . S
H607 C591 0.961 . S
H608 C592 0.909 1_556 S
H609 C597 0.930 . S
H610 C598 0.956 . S
H611 C598 0.961 . S
H612 C598 0.961 . S
H613 C599 0.958 . S
H614 C599 0.961 . S
H615 C599 0.960 . S
C616 C617 1.391 . S
C616 C618 1.394 . S
C616 H632 0.903 1_556 S
C617 C616 1.391 . S
C617 C621 1.376 . S
C618 C616 1.394 . S
C618 C619 1.369 . S
C618 C622 1.531 1_556 S
C619 C618 1.369 . S
C619 C620 1.410 . S
C619 C627 1.503 . S
C620 C619 1.410 . S
C620 C621 1.392 . S
C620 C623 1.511 . S
C621 C617 1.376 . S
C621 C620 1.392 . S
C621 H633 0.929 . S
C622 C618 1.531 1_554 S
C622 H634 0.960 . S
C622 H635 0.962 . S
C622 H636 0.960 . S
C623 C620 1.511 . S
C623 H637 0.961 . S
C623 H638 0.961 . S
C623 H639 0.961 . S
C624 C625 1.370 . S
C624 C626 1.363 . S
C624 H640 0.931 . S
C625 C624 1.370 . S
C625 C629 1.408 . S
C626 C624 1.363 . S
C626 C627 1.370 . S
C626 C630 1.524 . S
C627 C619 1.503 . S
C627 C626 1.370 . S
C627 C628 1.403 . S
C628 C627 1.403 . S
C628 C629 1.404 . S
C628 C631 1.539 . S
C629 C625 1.408 . S
C629 C628 1.404 . S
C629 H641 0.930 1_556 S
C630 C626 1.524 . S
C630 H642 0.956 . S
C630 H643 0.961 . S
C630 H644 0.961 . S
C631 C628 1.539 . S
C631 H645 0.958 1_556 S
C631 H646 0.961 . S
C631 H647 0.960 . S
H632 C616 0.903 1_554 S
H633 C621 0.929 . S
H634 C622 0.960 . S
H635 C622 0.962 . S
H636 C622 0.960 . S
H637 C623 0.961 . S
H638 C623 0.961 . S
H639 C623 0.961 . S
H640 C624 0.931 . S
H641 C629 0.930 1_554 S
H642 C630 0.956 . S
H643 C630 0.961 . S
H644 C630 0.961 . S
H645 C631 0.958 1_554 S
H646 C631 0.961 . S
H647 C631 0.960 . S
C648 C649 1.391 . S
C648 C650 1.394 . S
C648 H664 0.931 . S
C649 C648 1.391 . S
C649 C653 1.376 . S
C650 C648 1.394 . S
C650 C651 1.369 . S
C650 C654 1.531 . S
C651 C650 1.369 . S
C651 C652 1.410 . S
C651 C659 1.503 . S
C652 C651 1.410 . S
C652 C653 1.392 . S
C652 C655 1.511 . S
C653 C649 1.376 . S
C653 C652 1.392 . S
C653 H665 0.929 . S
C654 C650 1.531 . S
C654 H666 0.960 . S
C654 H667 0.962 . S
C654 H668 0.960 . S
C655 C652 1.511 . S
C655 H669 0.961 . S
C655 H670 0.961 . S
C655 H671 0.961 . S
C656 C657 1.370 . S
C656 C658 1.363 . S
C656 H672 0.931 . S
C657 C656 1.370 . S
C657 C661 1.408 . S
C658 C656 1.363 . S
C658 C659 1.370 . S
C658 C662 1.524 . S
C659 C651 1.503 . S
C659 C658 1.370 . S
C659 C660 1.403 . S
C660 C659 1.403 . S
C660 C661 1.404 . S
C660 C663 1.539 . S
C661 C657 1.408 . S
C661 C660 1.404 . S
C661 H673 0.930 . S
C662 C658 1.524 . S
C662 H674 0.956 . S
C662 H675 0.961 . S
C662 H676 0.961 . S
C663 C660 1.539 . S
C663 H677 0.958 . S
C663 H678 0.961 . S
C663 H679 0.960 . S
H664 C648 0.931 . S
H665 C653 0.929 . S
H666 C654 0.960 . S
H667 C654 0.962 . S
H668 C654 0.960 . S
H669 C655 0.961 . S
H670 C655 0.961 . S
H671 C655 0.961 . S
H672 C656 0.931 . S
H673 C661 0.930 . S
H674 C662 0.956 . S
H675 C662 0.961 . S
H676 C662 0.961 . S
H677 C663 0.958 . S
H678 C663 0.961 . S
H679 C663 0.960 . S
C680 C681 1.391 . S
C680 C682 1.394 . S
C680 H696 0.931 . S
C681 C680 1.391 . S
C681 C685 1.376 . S
C682 C680 1.394 . S
C682 C683 1.369 . S
C682 C686 1.531 . S
C683 C682 1.369 . S
C683 C684 1.410 . S
C683 C691 1.503 . S
C684 C683 1.410 . S
C684 C685 1.392 . S
C684 C687 1.511 . S
C685 C681 1.376 . S
C685 C684 1.392 . S
C685 H697 0.929 . S
C686 C682 1.531 . S
C686 H698 0.960 . S
C686 H699 0.962 . S
C686 H700 0.960 . S
C687 C684 1.511 . S
C687 H701 0.961 . S
C687 H702 0.961 . S
C687 H703 0.961 . S
C688 C689 1.370 . S
C688 C690 1.363 . S
C688 H704 0.931 . S
C689 C688 1.370 . S
C689 C693 1.408 . S
C690 C688 1.363 . S
C690 C691 1.370 . S
C690 C694 1.524 . S
C691 C683 1.503 . S
C691 C690 1.370 . S
C691 C692 1.403 . S
C692 C691 1.403 . S
C692 C693 1.404 . S
C692 C695 1.539 . S
C693 C689 1.408 . S
C693 C692 1.404 . S
C693 H705 0.930 . S
C694 C690 1.524 . S
C694 H706 0.956 . S
C694 H707 0.961 . S
C694 H708 0.961 . S
C695 C692 1.539 . S
C695 H709 0.958 . S
C695 H710 0.961 . S
C695 H711 0.960 . S
H696 C680 0.931 . S
H697 C685 0.929 . S
H698 C686 0.960 . S
H699 C686 0.962 . S
H700 C686 0.960 . S
H701 C687 0.961 . S
H702 C687 0.961 . S
H703 C687 0.961 . S
H704 C688 0.931 . S
H705 C693 0.930 . S
H706 C694 0.956 . S
H707 C694 0.961 . S
H708 C694 0.961 . S
H709 C695 0.958 . S
H710 C695 0.961 . S
H711 C695 0.960 . S
C712 C713 1.391 . S
C712 C714 1.394 . S
C712 H728 0.931 . S
C713 C712 1.391 . S
C713 C717 1.376 . S
C714 C712 1.394 . S
C714 C715 1.369 . S
C714 C718 1.531 . S
C715 C714 1.369 . S
C715 C716 1.410 . S
C715 C723 1.503 . S
C716 C715 1.410 . S
C716 C717 1.392 . S
C716 C719 1.511 . S
C717 C713 1.376 . S
C717 C716 1.392 . S
C717 H729 0.929 . S
C718 C714 1.531 . S
C718 H730 0.960 . S
C718 H731 0.962 . S
C718 H732 0.960 . S
C719 C716 1.511 . S
C719 H733 0.961 . S
C719 H734 0.961 . S
C719 H735 0.961 . S
C720 C721 1.370 . S
C720 C722 1.363 . S
C720 H736 0.931 . S
C721 C720 1.370 . S
C721 C725 1.408 . S
C722 C720 1.363 . S
C722 C723 1.370 . S
C722 C726 1.524 . S
C723 C715 1.503 . S
C723 C722 1.370 . S
C723 C724 1.403 . S
C724 C723 1.403 . S
C724 C725 1.404 . S
C724 C727 1.539 . S
C725 C721 1.408 . S
C725 C724 1.404 . S
C725 H737 0.930 . S
C726 C722 1.524 . S
C726 H738 0.956 . S
C726 H739 0.961 . S
C726 H740 0.961 . S
C727 C724 1.539 . S
C727 H741 0.958 . S
C727 H742 0.961 . S
C727 H743 0.960 . S
H728 C712 0.931 . S
H729 C717 0.929 . S
H730 C718 0.960 . S
H731 C718 0.962 . S
H732 C718 0.960 . S
H733 C719 0.961 . S
H734 C719 0.961 . S
H735 C719 0.961 . S
H736 C720 0.931 . S
H737 C725 0.930 . S
H738 C726 0.956 . S
H739 C726 0.961 . S
H740 C726 0.961 . S
H741 C727 0.958 . S
H742 C727 0.961 . S
H743 C727 0.960 . S
C744 C745 1.391 . S
C744 C746 1.394 . S
C744 H760 0.931 . S
C745 C744 1.391 . S
C745 C749 1.376 . S
C746 C744 1.394 . S
C746 C747 1.369 . S
C746 C750 1.531 . S
C747 C746 1.369 . S
C747 C748 1.410 . S
C747 C755 1.503 . S
C748 C747 1.410 . S
C748 C749 1.392 . S
C748 C751 1.511 . S
C749 C745 1.376 . S
C749 C748 1.392 . S
C749 H761 0.929 . S
C750 C746 1.531 . S
C750 H762 0.960 . S
C750 H763 0.962 . S
C750 H764 0.960 . S
C751 C748 1.511 . S
C751 H765 0.961 . S
C751 H766 0.961 . S
C751 H767 0.961 . S
C752 C753 1.370 . S
C752 C754 1.363 . S
C752 H768 0.931 . S
C753 C752 1.370 . S
C753 C757 1.408 . S
C754 C752 1.363 . S
C754 C755 1.370 . S
C754 C758 1.524 . S
C755 C747 1.503 . S
C755 C754 1.370 . S
C755 C756 1.403 . S
C756 C755 1.403 . S
C756 C757 1.404 . S
C756 C759 1.539 . S
C757 C753 1.408 . S
C757 C756 1.404 . S
C757 H769 0.930 . S
C758 C754 1.524 . S
C758 H770 0.956 . S
C758 H771 0.961 . S
C758 H772 0.961 . S
C759 C756 1.539 . S
C759 H773 0.958 . S
C759 H774 0.961 . S
C759 H775 0.960 . S
H760 C744 0.931 . S
H761 C749 0.929 . S
H762 C750 0.960 . S
H763 C750 0.962 . S
H764 C750 0.960 . S
H765 C751 0.961 . S
H766 C751 0.961 . S
H767 C751 0.961 . S
H768 C752 0.931 . S
H769 C757 0.930 . S
H770 C758 0.956 . S
H771 C758 0.961 . S
H772 C758 0.961 . S
H773 C759 0.958 . S
H774 C759 0.961 . S
H775 C759 0.960 . S
C776 C777 1.391 . S
C776 C778 1.394 . S
C776 H792 0.931 . S
C777 C776 1.391 . S
C777 C781 1.376 . S
C778 C776 1.394 . S
C778 C779 1.369 . S
C778 C782 1.531 . S
C779 C778 1.369 . S
C779 C780 1.410 . S
C779 C787 1.503 . S
C780 C779 1.410 . S
C780 C781 1.392 . S
C780 C783 1.511 . S
C781 C777 1.376 . S
C781 C780 1.392 . S
C781 H793 0.929 . S
C782 C778 1.531 . S
C782 H794 0.960 . S
C782 H795 0.962 . S
C782 H796 0.960 . S
C783 C780 1.511 . S
C783 H797 0.961 . S
C783 H798 0.961 . S
C783 H799 0.961 . S
C784 C785 1.370 1_556 S
C784 C786 1.363 1_556 S
C784 H800 0.931 . S
C785 C784 1.370 1_554 S
C785 C789 1.408 . S
C786 C784 1.363 1_554 S
C786 C787 1.370 . S
C786 C790 1.524 1_554 S
C787 C779 1.503 . S
C787 C786 1.370 . S
C787 C788 1.403 . S
C788 C787 1.403 . S
C788 C789 1.404 . S
C788 C791 1.539 . S
C789 C785 1.408 . S
C789 C788 1.404 . S
C789 H801 0.930 . S
C790 C786 1.524 1_556 S
C790 H802 0.956 . S
C790 H803 0.961 . S
C790 H804 0.961 . S
C791 C788 1.539 . S
C791 H805 0.958 . S
C791 H806 0.961 . S
C791 H807 0.960 . S
H792 C776 0.931 . S
H793 C781 0.929 . S
H794 C782 0.960 . S
H795 C782 0.962 . S
H796 C782 0.960 . S
H797 C783 0.961 . S
H798 C783 0.961 . S
H799 C783 0.961 . S
H800 C784 0.931 . S
H801 C789 0.930 . S
H802 C790 0.956 . S
H803 C790 0.961 . S
H804 C790 0.961 . S
H805 C791 0.958 . S
H806 C791 0.961 . S
H807 C791 0.960 . S
C808 C809 1.391 . S
C808 C810 1.394 . S
C808 H824 0.931 . S
C809 C808 1.391 . S
C809 C813 1.376 . S
C810 C808 1.394 . S
C810 C811 1.369 . S
C810 C814 1.531 . S
C811 C810 1.369 . S
C811 C812 1.410 . S
C811 C819 1.503 . S
C812 C811 1.410 . S
C812 C813 1.392 . S
C812 C815 1.511 . S
C813 C809 1.376 . S
C813 C812 1.392 . S
C813 H825 0.929 . S
C814 C810 1.531 . S
C814 H826 0.960 . S
C814 H827 0.962 . S
C814 H828 0.960 . S
C815 C812 1.511 . S
C815 H829 0.961 . S
C815 H830 0.961 . S
C815 H831 0.961 . S
C816 C817 1.370 . S
C816 C818 1.363 . S
C816 H832 0.931 . S
C817 C816 1.370 . S
C817 C821 1.408 . S
C818 C816 1.363 . S
C818 C819 1.370 . S
C818 C822 1.524 . S
C819 C811 1.503 . S
C819 C818 1.370 . S
C819 C820 1.403 . S
C820 C819 1.403 . S
C820 C821 1.404 . S
C820 C823 1.539 . S
C821 C817 1.408 . S
C821 C820 1.404 . S
C821 H833 0.930 . S
C822 C818 1.524 . S
C822 H834 0.956 . S
C822 H835 0.961 . S
C822 H836 0.961 . S
C823 C820 1.539 . S
C823 H837 0.958 . S
C823 H838 0.961 . S
C823 H839 0.960 . S
H824 C808 0.931 . S
H825 C813 0.929 . S
H826 C814 0.960 . S
H827 C814 0.962 . S
H828 C814 0.960 . S
H829 C815 0.961 . S
H830 C815 0.961 . S
H831 C815 0.961 . S
H832 C816 0.931 . S
H833 C821 0.930 . S
H834 C822 0.956 . S
H835 C822 0.961 . S
H836 C822 0.961 . S
H837 C823 0.958 . S
H838 C823 0.961 . S
H839 C823 0.960 . S
C840 C841 1.391 . S
C840 C842 1.394 . S
C840 H856 0.931 . S
C841 C840 1.391 . S
C841 C845 1.376 . S
C842 C840 1.394 . S
C842 C843 1.369 . S
C842 C846 1.531 . S
C843 C842 1.369 . S
C843 C844 1.410 . S
C843 C851 1.503 . S
C844 C843 1.410 . S
C844 C845 1.392 . S
C844 C847 1.511 . S
C845 C841 1.376 . S
C845 C844 1.392 . S
C845 H857 0.929 . S
C846 C842 1.531 . S
C846 H858 0.960 . S
C846 H859 0.962 . S
C846 H860 0.960 . S
C847 C844 1.511 . S
C847 H861 0.961 . S
C847 H862 0.961 . S
C847 H863 0.961 . S
C848 C849 1.370 . S
C848 C850 1.363 . S
C848 H864 0.931 . S
C849 C848 1.370 . S
C849 C853 1.408 . S
C850 C848 1.363 . S
C850 C851 1.370 . S
C850 C854 1.524 . S
C851 C843 1.503 . S
C851 C850 1.370 . S
C851 C852 1.403 . S
C852 C851 1.403 . S
C852 C853 1.404 . S
C852 C855 1.539 . S
C853 C849 1.408 . S
C853 C852 1.404 . S
C853 H865 0.930 . S
C854 C850 1.524 . S
C854 H866 0.956 . S
C854 H867 0.961 . S
C854 H868 0.961 . S
C855 C852 1.539 . S
C855 H869 0.958 . S
C855 H870 0.961 . S
C855 H871 0.960 . S
H856 C840 0.931 . S
H857 C845 0.929 . S
H858 C846 0.960 . S
H859 C846 0.962 . S
H860 C846 0.960 . S
H861 C847 0.961 . S
H862 C847 0.961 . S
H863 C847 0.961 . S
H864 C848 0.931 . S
H865 C853 0.930 . S
H866 C854 0.956 . S
H867 C854 0.961 . S
H868 C854 0.961 . S
H869 C855 0.958 . S
H870 C855 0.961 . S
H871 C855 0.960 . S
C872 C873 1.391 . S
C872 C874 1.394 . S
C872 H888 0.931 . S
C873 C872 1.391 . S
C873 C877 1.376 . S
C874 C872 1.394 . S
C874 C875 1.369 . S
C874 C878 1.531 . S
C875 C874 1.369 . S
C875 C876 1.410 . S
C875 C883 1.503 . S
C876 C875 1.410 . S
C876 C877 1.392 . S
C876 C879 1.511 . S
C877 C873 1.376 . S
C877 C876 1.392 . S
C877 H889 0.929 . S
C878 C874 1.531 . S
C878 H890 0.960 . S
C878 H891 0.962 . S
C878 H892 0.960 . S
C879 C876 1.511 . S
C879 H893 0.961 . S
C879 H894 0.961 . S
C879 H895 0.961 . S
C880 C881 1.370 . S
C880 C882 1.363 . S
C880 H896 0.931 . S
C881 C880 1.370 . S
C881 C885 1.408 . S
C882 C880 1.363 . S
C882 C883 1.370 . S
C882 C886 1.524 . S
C883 C875 1.503 . S
C883 C882 1.370 . S
C883 C884 1.403 . S
C884 C883 1.403 . S
C884 C885 1.404 . S
C884 C887 1.539 . S
C885 C881 1.408 . S
C885 C884 1.404 . S
C885 H897 0.930 . S
C886 C882 1.524 . S
C886 H898 0.956 . S
C886 H899 0.961 . S
C886 H900 0.961 . S
C887 C884 1.539 . S
C887 H901 0.958 . S
C887 H902 0.961 . S
C887 H903 0.960 . S
H888 C872 0.931 . S
H889 C877 0.929 . S
H890 C878 0.960 . S
H891 C878 0.962 . S
H892 C878 0.960 . S
H893 C879 0.961 . S
H894 C879 0.961 . S
H895 C879 0.961 . S
H896 C880 0.931 . S
H897 C885 0.930 . S
H898 C886 0.956 . S
H899 C886 0.961 . S
H900 C886 0.961 . S
H901 C887 0.958 . S
H902 C887 0.961 . S
H903 C887 0.960 . S
C904 C905 1.391 . S
C904 C906 1.394 . S
C904 H920 0.931 . S
C905 C904 1.391 . S
C905 C909 1.376 . S
C906 C904 1.394 . S
C906 C907 1.369 . S
C906 C910 1.531 . S
C907 C906 1.369 . S
C907 C908 1.410 . S
C907 C915 1.503 . S
C908 C907 1.410 . S
C908 C909 1.392 . S
C908 C911 1.511 . S
C909 C905 1.376 . S
C909 C908 1.392 . S
C909 H921 0.929 . S
C910 C906 1.531 . S
C910 H922 0.960 . S
C910 H923 0.962 . S
C910 H924 0.960 . S
C911 C908 1.511 . S
C911 H925 0.961 . S
C911 H926 0.961 . S
C911 H927 0.961 . S
C912 C913 1.370 . S
C912 C914 1.363 . S
C912 H928 0.931 . S
C913 C912 1.370 . S
C913 C917 1.408 . S
C914 C912 1.363 . S
C914 C915 1.370 . S
C914 C918 1.524 . S
C915 C907 1.503 . S
C915 C914 1.370 . S
C915 C916 1.403 . S
C916 C915 1.403 . S
C916 C917 1.404 . S
C916 C919 1.539 . S
C917 C913 1.408 . S
C917 C916 1.404 . S
C917 H929 0.930 . S
C918 C914 1.524 . S
C918 H930 0.956 . S
C918 H931 0.961 . S
C918 H932 0.961 . S
C919 C916 1.539 . S
C919 H933 0.958 . S
C919 H934 0.961 . S
C919 H935 0.960 . S
H920 C904 0.931 . S
H921 C909 0.929 . S
H922 C910 0.960 . S
H923 C910 0.962 . S
H924 C910 0.960 . S
H925 C911 0.961 . S
H926 C911 0.961 . S
H927 C911 0.961 . S
H928 C912 0.931 . S
H929 C917 0.930 . S
H930 C918 0.956 . S
H931 C918 0.961 . S
H932 C918 0.961 . S
H933 C919 0.958 . S
H934 C919 0.961 . S
H935 C919 0.960 . S
C936 C937 1.391 . S
C936 C938 1.394 . S
C936 H952 0.931 . S
C937 C936 1.391 . S
C937 C941 1.376 . S
C938 C936 1.394 . S
C938 C939 1.369 . S
C938 C942 1.531 . S
C939 C938 1.369 . S
C939 C940 1.410 . S
C939 C947 1.503 . S
C940 C939 1.410 . S
C940 C941 1.392 . S
C940 C943 1.511 . S
C941 C937 1.376 . S
C941 C940 1.392 . S
C941 H953 0.929 . S
C942 C938 1.531 . S
C942 H954 0.960 . S
C942 H955 0.962 . S
C942 H956 0.960 . S
C943 C940 1.511 . S
C943 H957 0.961 . S
C943 H958 0.961 . S
C943 H959 0.961 . S
C944 C945 1.370 . S
C944 C946 1.363 . S
C944 H960 0.931 . S
C945 C944 1.370 . S
C945 C949 1.408 1_556 S
C946 C944 1.363 . S
C946 C947 1.370 . S
C946 C950 1.524 . S
C947 C939 1.503 . S
C947 C946 1.370 . S
C947 C948 1.403 1_556 S
C948 C947 1.403 1_554 S
C948 C949 1.404 . S
C948 C951 1.539 . S
C949 C945 1.408 1_554 S
C949 C948 1.404 . S
C949 H961 0.930 . S
C950 C946 1.524 . S
C950 H962 0.956 . S
C950 H963 0.961 . S
C950 H964 0.961 . S
C951 C948 1.539 . S
C951 H965 0.958 . S
C951 H966 0.961 . S
C951 H967 0.960 . S
H952 C936 0.931 . S
H953 C941 0.929 . S
H954 C942 0.960 . S
H955 C942 0.962 . S
H956 C942 0.960 . S
H957 C943 0.961 . S
H958 C943 0.961 . S
H959 C943 0.961 . S
H960 C944 0.931 . S
H961 C949 0.930 . S
H962 C950 0.956 . S
H963 C950 0.961 . S
H964 C950 0.961 . S
H965 C951 0.958 . S
H966 C951 0.961 . S
H967 C951 0.960 . S
C968 C969 1.391 . S
C968 C970 1.394 . S
C968 H984 0.931 . S
C969 C968 1.391 . S
C969 C973 1.376 . S
C970 C968 1.394 . S
C970 C971 1.369 . S
C970 C974 1.531 . S
C971 C970 1.369 . S
C971 C972 1.410 . S
C971 C979 1.503 . S
C972 C971 1.410 . S
C972 C973 1.392 . S
C972 C975 1.511 . S
C973 C969 1.376 . S
C973 C972 1.392 . S
C973 H985 0.929 . S
C974 C970 1.531 . S
C974 H986 0.960 . S
C974 H987 0.962 . S
C974 H988 0.960 . S
C975 C972 1.511 . S
C975 H989 0.961 . S
C975 H990 0.961 . S
C975 H991 0.961 . S
C976 C977 1.370 . S
C976 C978 1.363 . S
C976 H992 0.931 . S
C977 C976 1.370 . S
C977 C981 1.408 . S
C978 C976 1.363 . S
C978 C979 1.370 . S
C978 C982 1.524 . S
C979 C971 1.503 . S
C979 C978 1.370 . S
C979 C980 1.403 . S
C980 C979 1.403 . S
C980 C981 1.404 . S
C980 C983 1.539 . S
C981 C977 1.408 . S
C981 C980 1.404 . S
C981 H993 0.930 . S
C982 C978 1.524 . S
C982 H994 0.956 . S
C982 H995 0.961 . S
C982 H996 0.961 . S
C983 C980 1.539 . S
C983 H997 0.958 . S
C983 H998 0.961 . S
C983 H999 0.960 . S
H984 C968 0.931 . S
H985 C973 0.929 . S
H986 C974 0.960 . S
H987 C974 0.962 . S
H988 C974 0.960 . S
H989 C975 0.961 . S
H990 C975 0.961 . S
H991 C975 0.961 . S
H992 C976 0.931 . S
H993 C981 0.930 . S
H994 C982 0.956 . S
H995 C982 0.961 . S
H996 C982 0.961 . S
H997 C983 0.958 . S
H998 C983 0.961 . S
H999 C983 0.960 . S
C1000 C1001 1.391 . S
C1000 C1002 1.394 . S
C1000 H1016 0.931 . S
C1001 C1000 1.391 . S
C1001 C1005 1.376 . S
C1002 C1000 1.394 . S
C1002 C1003 1.369 . S
C1002 C1006 1.531 . S
C1003 C1002 1.369 . S
C1003 C1004 1.410 . S
C1003 C1011 1.503 . S
C1004 C1003 1.410 . S
C1004 C1005 1.392 . S
C1004 C1007 1.511 . S
C1005 C1001 1.376 . S
C1005 C1004 1.392 . S
C1005 H1017 0.929 . S
C1006 C1002 1.531 . S
C1006 H1018 0.960 . S
C1006 H1019 0.962 . S
C1006 H1020 0.960 . S
C1007 C1004 1.511 . S
C1007 H1021 0.961 . S
C1007 H1022 0.961 . S
C1007 H1023 0.961 . S
C1008 C1009 1.370 . S
C1008 C1010 1.363 . S
C1008 H1024 0.931 . S
C1009 C1008 1.370 . S
C1009 C1013 1.408 . S
C1010 C1008 1.363 . S
C1010 C1011 1.370 . S
C1010 C1014 1.524 . S
C1011 C1003 1.503 . S
C1011 C1010 1.370 . S
C1011 C1012 1.403 . S
C1012 C1011 1.403 . S
C1012 C1013 1.404 . S
C1012 C1015 1.539 . S
C1013 C1009 1.408 . S
C1013 C1012 1.404 . S
C1013 H1025 0.930 . S
C1014 C1010 1.524 . S
C1014 H1026 0.956 . S
C1014 H1027 0.961 . S
C1014 H1028 0.961 . S
C1015 C1012 1.539 . S
C1015 H1029 0.958 . S
C1015 H1030 0.961 . S
C1015 H1031 0.960 . S
H1016 C1000 0.931 . S
H1017 C1005 0.929 . S
H1018 C1006 0.960 . S
H1019 C1006 0.962 . S
H1020 C1006 0.960 . S
H1021 C1007 0.961 . S
H1022 C1007 0.961 . S
H1023 C1007 0.961 . S
H1024 C1008 0.931 . S
H1025 C1013 0.930 . S
H1026 C1014 0.956 . S
H1027 C1014 0.961 . S
H1028 C1014 0.961 . S
H1029 C1015 0.958 . S
H1030 C1015 0.961 . S
H1031 C1015 0.960 . S
C1032 C1033 1.391 . S
C1032 C1034 1.394 . S
C1032 H1048 0.931 . S
C1033 C1032 1.391 . S
C1033 C1037 1.376 . S
C1034 C1032 1.394 . S
C1034 C1035 1.369 . S
C1034 C1038 1.531 . S
C1035 C1034 1.369 . S
C1035 C1036 1.410 . S
C1035 C1043 1.503 . S
C1036 C1035 1.410 . S
C1036 C1037 1.392 . S
C1036 C1039 1.511 . S
C1037 C1033 1.376 . S
C1037 C1036 1.392 . S
C1037 H1049 0.929 . S
C1038 C1034 1.531 . S
C1038 H1050 0.960 . S
C1038 H1051 0.962 . S
C1038 H1052 0.960 . S
C1039 C1036 1.511 . S
C1039 H1053 0.961 . S
C1039 H1054 0.961 . S
C1039 H1055 0.961 . S
C1040 C1041 1.370 . S
C1040 C1042 1.363 . S
C1040 H1056 0.931 . S
C1041 C1040 1.370 . S
C1041 C1045 1.408 . S
C1042 C1040 1.363 . S
C1042 C1043 1.370 . S
C1042 C1046 1.524 . S
C1043 C1035 1.503 . S
C1043 C1042 1.370 . S
C1043 C1044 1.403 . S
C1044 C1043 1.403 . S
C1044 C1045 1.404 . S
C1044 C1047 1.539 . S
C1045 C1041 1.408 . S
C1045 C1044 1.404 . S
C1045 H1057 0.930 . S
C1046 C1042 1.524 . S
C1046 H1058 0.956 . S
C1046 H1059 0.961 . S
C1046 H1060 0.961 . S
C1047 C1044 1.539 . S
C1047 H1061 0.958 . S
C1047 H1062 0.961 . S
C1047 H1063 0.960 . S
H1048 C1032 0.931 . S
H1049 C1037 0.929 . S
H1050 C1038 0.960 . S
H1051 C1038 0.962 . S
H1052 C1038 0.960 . S
H1053 C1039 0.961 . S
H1054 C1039 0.961 . S
H1055 C1039 0.961 . S
H1056 C1040 0.931 . S
H1057 C1045 0.930 . S
H1058 C1046 0.956 . S
H1059 C1046 0.961 . S
H1060 C1046 0.961 . S
H1061 C1047 0.958 . S
H1062 C1047 0.961 . S
H1063 C1047 0.960 . S
C1064 C1065 1.391 . S
C1064 C1066 1.394 . S
C1064 H1080 0.931 . S
C1065 C1064 1.391 . S
C1065 C1069 1.376 . S
C1066 C1064 1.394 . S
C1066 C1067 1.369 . S
C1066 C1070 1.531 . S
C1067 C1066 1.369 . S
C1067 C1068 1.410 . S
C1067 C1075 1.503 . S
C1068 C1067 1.410 . S
C1068 C1069 1.392 . S
C1068 C1071 1.511 . S
C1069 C1065 1.376 . S
C1069 C1068 1.392 . S
C1069 H1081 0.929 . S
C1070 C1066 1.531 . S
C1070 H1082 0.960 . S
C1070 H1083 0.962 . S
C1070 H1084 0.960 . S
C1071 C1068 1.511 . S
C1071 H1085 0.961 . S
C1071 H1086 0.961 . S
C1071 H1087 0.961 . S
C1072 C1073 1.370 . S
C1072 C1074 1.363 . S
C1072 H1088 0.931 . S
C1073 C1072 1.370 . S
C1073 C1077 1.408 . S
C1074 C1072 1.363 . S
C1074 C1075 1.370 . S
C1074 C1078 1.524 . S
C1075 C1067 1.503 . S
C1075 C1074 1.370 . S
C1075 C1076 1.403 . S
C1076 C1075 1.403 . S
C1076 C1077 1.404 . S
C1076 C1079 1.539 . S
C1077 C1073 1.408 . S
C1077 C1076 1.404 . S
C1077 H1089 0.930 . S
C1078 C1074 1.524 . S
C1078 H1090 0.956 . S
C1078 H1091 0.961 . S
C1078 H1092 0.961 . S
C1079 C1076 1.539 . S
C1079 H1093 0.958 . S
C1079 H1094 0.961 . S
C1079 H1095 0.960 . S
H1080 C1064 0.931 . S
H1081 C1069 0.929 . S
H1082 C1070 0.960 . S
H1083 C1070 0.962 . S
H1084 C1070 0.960 . S
H1085 C1071 0.961 . S
H1086 C1071 0.961 . S
H1087 C1071 0.961 . S
H1088 C1072 0.931 . S
H1089 C1077 0.930 . S
H1090 C1078 0.956 . S
H1091 C1078 0.961 . S
H1092 C1078 0.961 . S
H1093 C1079 0.958 . S
H1094 C1079 0.961 . S
H1095 C1079 0.960 . S
C1096 C1097 1.391 . S
C1096 C1098 1.394 . S
C1096 H1112 0.931 . S
C1097 C1096 1.391 . S
C1097 C1101 1.376 . S
C1098 C1096 1.394 . S
C1098 C1099 1.369 . S
C1098 C1102 1.531 . S
C1099 C1098 1.369 . S
C1099 C1100 1.410 . S
C1099 C1107 1.503 . S
C1100 C1099 1.410 . S
C1100 C1101 1.392 . S
C1100 C1103 1.511 . S
C1101 C1097 1.376 . S
C1101 C1100 1.392 . S
C1101 H1113 0.929 . S
C1102 C1098 1.531 . S
C1102 H1114 0.960 . S
C1102 H1115 0.962 . S
C1102 H1116 0.960 . S
C1103 C1100 1.511 . S
C1103 H1117 0.961 . S
C1103 H1118 0.961 . S
C1103 H1119 0.961 . S
C1104 C1105 1.370 . S
C1104 C1106 1.363 . S
C1104 H1120 0.931 . S
C1105 C1104 1.370 . S
C1105 C1109 1.408 . S
C1106 C1104 1.363 . S
C1106 C1107 1.370 . S
C1106 C1110 1.524 . S
C1107 C1099 1.503 . S
C1107 C1106 1.370 . S
C1107 C1108 1.403 . S
C1108 C1107 1.403 . S
C1108 C1109 1.404 . S
C1108 C1111 1.539 . S
C1109 C1105 1.408 . S
C1109 C1108 1.404 . S
C1109 H1121 0.930 . S
C1110 C1106 1.524 . S
C1110 H1122 0.956 . S
C1110 H1123 0.961 . S
C1110 H1124 0.961 . S
C1111 C1108 1.539 . S
C1111 H1125 0.958 . S
C1111 H1126 0.961 . S
C1111 H1127 0.960 . S
H1112 C1096 0.931 . S
H1113 C1101 0.929 . S
H1114 C1102 0.960 . S
H1115 C1102 0.962 . S
H1116 C1102 0.960 . S
H1117 C1103 0.961 . S
H1118 C1103 0.961 . S
H1119 C1103 0.961 . S
H1120 C1104 0.931 . S
H1121 C1109 0.930 . S
H1122 C1110 0.956 . S
H1123 C1110 0.961 . S
H1124 C1110 0.961 . S
H1125 C1111 0.958 . S
H1126 C1111 0.961 . S
H1127 C1111 0.960 . S
C1128 C1129 1.391 . S
C1128 C1130 1.394 . S
C1128 H1144 0.931 . S
C1129 C1128 1.391 . S
C1129 C1133 1.376 . S
C1130 C1128 1.394 . S
C1130 C1131 1.369 . S
C1130 C1134 1.531 . S
C1131 C1130 1.369 . S
C1131 C1132 1.410 . S
C1131 C1139 1.503 . S
C1132 C1131 1.410 . S
C1132 C1133 1.392 . S
C1132 C1135 1.511 . S
C1133 C1129 1.376 . S
C1133 C1132 1.392 . S
C1133 H1145 0.929 . S
C1134 C1130 1.531 . S
C1134 H1146 0.960 . S
C1134 H1147 0.962 . S
C1134 H1148 0.960 . S
C1135 C1132 1.511 . S
C1135 H1149 0.961 . S
C1135 H1150 0.961 . S
C1135 H1151 0.961 . S
C1136 C1137 1.370 . S
C1136 C1138 1.363 . S
C1136 H1152 0.931 . S
C1137 C1136 1.370 . S
C1137 C1141 1.408 . S
C1138 C1136 1.363 . S
C1138 C1139 1.370 . S
C1138 C1142 1.524 . S
C1139 C1131 1.503 . S
C1139 C1138 1.370 . S
C1139 C1140 1.403 . S
C1140 C1139 1.403 . S
C1140 C1141 1.404 . S
C1140 C1143 1.539 . S
C1141 C1137 1.408 . S
C1141 C1140 1.404 . S
C1141 H1153 0.930 . S
C1142 C1138 1.524 . S
C1142 H1154 0.956 . S
C1142 H1155 0.961 . S
C1142 H1156 0.961 . S
C1143 C1140 1.539 . S
C1143 H1157 0.958 . S
C1143 H1158 0.961 . S
C1143 H1159 0.960 . S
H1144 C1128 0.931 . S
H1145 C1133 0.929 . S
H1146 C1134 0.960 . S
H1147 C1134 0.962 . S
H1148 C1134 0.960 . S
H1149 C1135 0.961 . S
H1150 C1135 0.961 . S
H1151 C1135 0.961 . S
H1152 C1136 0.931 . S
H1153 C1141 0.930 . S
H1154 C1142 0.956 . S
H1155 C1142 0.961 . S
H1156 C1142 0.961 . S
H1157 C1143 0.958 . S
H1158 C1143 0.961 . S
H1159 C1143 0.960 . S
C1160 C1161 1.391 . S
C1160 C1162 1.394 . S
C1160 H1176 0.931 . S
C1161 C1160 1.391 . S
C1161 C1165 1.376 . S
C1162 C1160 1.394 . S
C1162 C1163 1.369 . S
C1162 C1166 1.531 . S
C1163 C1162 1.369 . S
C1163 C1164 1.410 . S
C1163 C1171 1.503 . S
C1164 C1163 1.410 . S
C1164 C1165 1.392 . S
C1164 C1167 1.511 . S
C1165 C1161 1.376 . S
C1165 C1164 1.392 . S
C1165 H1177 0.929 . S
C1166 C1162 1.531 . S
C1166 H1178 0.960 . S
C1166 H1179 0.962 . S
C1166 H1180 0.960 . S
C1167 C1164 1.511 . S
C1167 H1181 0.961 . S
C1167 H1182 0.961 . S
C1167 H1183 0.961 . S
C1168 C1169 1.370 . S
C1168 C1170 1.363 . S
C1168 H1184 0.931 . S
C1169 C1168 1.370 . S
C1169 C1173 1.408 . S
C1170 C1168 1.363 . S
C1170 C1171 1.370 . S
C1170 C1174 1.524 . S
C1171 C1163 1.503 . S
C1171 C1170 1.370 . S
C1171 C1172 1.403 . S
C1172 C1171 1.403 . S
C1172 C1173 1.404 . S
C1172 C1175 1.539 . S
C1173 C1169 1.408 . S
C1173 C1172 1.404 . S
C1173 H1185 0.930 . S
C1174 C1170 1.524 . S
C1174 H1186 0.956 . S
C1174 H1187 0.961 . S
C1174 H1188 0.961 . S
C1175 C1172 1.539 . S
C1175 H1189 0.958 . S
C1175 H1190 0.961 . S
C1175 H1191 0.960 . S
H1176 C1160 0.931 . S
H1177 C1165 0.929 . S
H1178 C1166 0.960 . S
H1179 C1166 0.962 . S
H1180 C1166 0.960 . S
H1181 C1167 0.961 . S
H1182 C1167 0.961 . S
H1183 C1167 0.961 . S
H1184 C1168 0.931 . S
H1185 C1173 0.930 . S
H1186 C1174 0.956 . S
H1187 C1174 0.961 . S
H1188 C1174 0.961 . S
H1189 C1175 0.958 . S
H1190 C1175 0.961 . S
H1191 C1175 0.960 . S
C1192 C1193 1.391 . S
C1192 C1194 1.394 . S
C1192 H1208 0.931 . S
C1193 C1192 1.391 . S
C1193 C1197 1.376 . S
C1194 C1192 1.394 . S
C1194 C1195 1.369 . S
C1194 C1198 1.531 . S
C1195 C1194 1.369 . S
C1195 C1196 1.410 . S
C1195 C1203 1.503 . S
C1196 C1195 1.410 . S
C1196 C1197 1.392 . S
C1196 C1199 1.511 . S
C1197 C1193 1.376 . S
C1197 C1196 1.392 . S
C1197 H1209 0.929 . S
C1198 C1194 1.531 . S
C1198 H1210 0.960 . S
C1198 H1211 0.962 . S
C1198 H1212 0.960 . S
C1199 C1196 1.511 . S
C1199 H1213 0.961 . S
C1199 H1214 0.961 . S
C1199 H1215 0.961 . S
C1200 C1201 1.370 . S
C1200 C1202 1.363 . S
C1200 H1216 0.931 . S
C1201 C1200 1.370 . S
C1201 C1205 1.408 . S
C1202 C1200 1.363 . S
C1202 C1203 1.370 . S
C1202 C1206 1.524 . S
C1203 C1195 1.503 . S
C1203 C1202 1.370 . S
C1203 C1204 1.403 . S
C1204 C1203 1.403 . S
C1204 C1205 1.404 . S
C1204 C1207 1.539 . S
C1205 C1201 1.408 . S
C1205 C1204 1.404 . S
C1205 H1217 0.930 . S
C1206 C1202 1.524 . S
C1206 H1218 0.956 . S
C1206 H1219 0.961 . S
C1206 H1220 0.961 . S
C1207 C1204 1.539 . S
C1207 H1221 0.958 . S
C1207 H1222 0.961 . S
C1207 H1223 0.960 . S
H1208 C1192 0.931 . S
H1209 C1197 0.929 . S
H1210 C1198 0.960 . S
H1211 C1198 0.962 . S
H1212 C1198 0.960 . S
H1213 C1199 0.961 . S
H1214 C1199 0.961 . S
H1215 C1199 0.961 . S
H1216 C1200 0.931 . S
H1217 C1205 0.930 . S
H1218 C1206 0.956 . S
H1219 C1206 0.961 . S
H1220 C1206 0.961 . S
H1221 C1207 0.958 . S
H1222 C1207 0.961 . S
H1223 C1207 0.960 . S
C1224 C1225 1.391 . S
C1224 C1226 1.394 . S
C1224 H1240 0.931 . S
C1225 C1224 1.391 . S
C1225 C1229 1.376 . S
C1226 C1224 1.394 . S
C1226 C1227 1.369 . S
C1226 C1230 1.531 . S
C1227 C1226 1.369 . S
C1227 C1228 1.410 . S
C1227 C1235 1.503 . S
C1228 C1227 1.410 . S
C1228 C1229 1.392 . S
C1228 C1231 1.511 . S
C1229 C1225 1.376 . S
C1229 C1228 1.392 . S
C1229 H1241 0.929 . S
C1230 C1226 1.531 . S
C1230 H1242 0.960 . S
C1230 H1243 0.962 . S
C1230 H1244 0.960 . S
C1231 C1228 1.511 . S
C1231 H1245 0.961 . S
C1231 H1246 0.961 . S
C1231 H1247 0.961 . S
C1232 C1233 1.370 . S
C1232 C1234 1.363 . S
C1232 H1248 0.931 . S
C1233 C1232 1.370 . S
C1233 C1237 1.408 . S
C1234 C1232 1.363 . S
C1234 C1235 1.370 . S
C1234 C1238 1.524 . S
C1235 C1227 1.503 . S
C1235 C1234 1.370 . S
C1235 C1236 1.403 . S
C1236 C1235 1.403 . S
C1236 C1237 1.404 . S
C1236 C1239 1.539 . S
C1237 C1233 1.408 . S
C1237 C1236 1.404 . S
C1237 H1249 0.930 . S
C1238 C1234 1.524 . S
C1238 H1250 0.956 . S
C1238 H1251 0.961 . S
C1238 H1252 0.961 . S
C1239 C1236 1.539 . S
C1239 H1253 0.958 . S
C1239 H1254 0.961 . S
C1239 H1255 0.960 . S
H1240 C1224 0.931 . S
H1241 C1229 0.929 . S
H1242 C1230 0.960 . S
H1243 C1230 0.962 . S
H1244 C1230 0.960 . S
H1245 C1231 0.961 . S
H1246 C1231 0.961 . S
H1247 C1231 0.961 . S
H1248 C1232 0.931 . S
H1249 C1237 0.930 . S
H1250 C1238 0.956 . S
H1251 C1238 0.961 . S
H1252 C1238 0.961 . S
H1253 C1239 0.958 . S
H1254 C1239 0.961 . S
H1255 C1239 0.960 . S
C1256 C1257 1.391 . S
C1256 C1258 1.394 . S
C1256 H1272 0.931 . S
C1257 C1256 1.391 . S
C1257 C1261 1.376 . S
C1258 C1256 1.394 . S
C1258 C1259 1.369 . S
C1258 C1262 1.531 . S
C1259 C1258 1.369 . S
C1259 C1260 1.410 . S
C1259 C1267 1.503 . S
C1260 C1259 1.410 . S
C1260 C1261 1.392 . S
C1260 C1263 1.511 . S
C1261 C1257 1.376 . S
C1261 C1260 1.392 . S
C1261 H1273 0.929 . S
C1262 C1258 1.531 . S
C1262 H1274 0.960 . S
C1262 H1275 0.962 . S
C1262 H1276 0.960 . S
C1263 C1260 1.511 . S
C1263 H1277 0.961 . S
C1263 H1278 0.961 . S
C1263 H1279 0.961 . S
C1264 C1265 1.370 . S
C1264 C1266 1.363 . S
C1264 H1280 0.931 . S
C1265 C1264 1.370 . S
C1265 C1269 1.408 . S
C1266 C1264 1.363 . S
C1266 C1267 1.370 . S
C1266 C1270 1.524 . S
C1267 C1259 1.503 . S
C1267 C1266 1.370 . S
C1267 C1268 1.403 . S
C1268 C1267 1.403 . S
C1268 C1269 1.404 . S
C1268 C1271 1.539 . S
C1269 C1265 1.408 . S
C1269 C1268 1.404 . S
C1269 H1281 0.930 . S
C1270 C1266 1.524 . S
C1270 H1282 0.956 . S
C1270 H1283 0.961 . S
C1270 H1284 0.961 . S
C1271 C1268 1.539 . S
C1271 H1285 0.958 . S
C1271 H1286 0.961 . S
C1271 H1287 0.960 . S
H1272 C1256 0.931 . S
H1273 C1261 0.929 . S
H1274 C1262 0.960 . S
H1275 C1262 0.962 . S
H1276 C1262 0.960 . S
H1277 C1263 0.961 . S
H1278 C1263 0.961 . S
H1279 C1263 0.961 . S
H1280 C1264 0.931 . S
H1281 C1269 0.930 . S
H1282 C1270 0.956 . S
H1283 C1270 0.961 . S
H1284 C1270 0.961 . S
H1285 C1271 0.958 . S
H1286 C1271 0.961 . S
H1287 C1271 0.960 . S
C1288 C1289 1.391 . S
C1288 C1290 1.394 . S
C1288 H1304 0.931 . S
C1289 C1288 1.391 . S
C1289 C1293 1.376 . S
C1290 C1288 1.394 . S
C1290 C1291 1.369 . S
C1290 C1294 1.531 . S
C1291 C1290 1.369 . S
C1291 C1292 1.410 . S
C1291 C1299 1.503 . S
C1292 C1291 1.410 . S
C1292 C1293 1.392 . S
C1292 C1295 1.511 . S
C1293 C1289 1.376 . S
C1293 C1292 1.392 . S
C1293 H1305 0.929 . S
C1294 C1290 1.531 . S
C1294 H1306 0.960 . S
C1294 H1307 0.962 . S
C1294 H1308 0.960 . S
C1295 C1292 1.511 . S
C1295 H1309 0.961 . S
C1295 H1310 0.961 . S
C1295 H1311 0.961 . S
C1296 C1297 1.370 . S
C1296 C1298 1.363 . S
C1296 H1312 0.931 . S
C1297 C1296 1.370 . S
C1297 C1301 1.408 . S
C1298 C1296 1.363 . S
C1298 C1299 1.370 . S
C1298 C1302 1.524 . S
C1299 C1291 1.503 . S
C1299 C1298 1.370 . S
C1299 C1300 1.403 . S
C1300 C1299 1.403 . S
C1300 C1301 1.404 . S
C1300 C1303 1.539 . S
C1301 C1297 1.408 . S
C1301 C1300 1.404 . S
C1301 H1313 0.930 . S
C1302 C1298 1.524 . S
C1302 H1314 0.956 . S
C1302 H1315 0.961 . S
C1302 H1316 0.961 . S
C1303 C1300 1.539 . S
C1303 H1317 0.958 . S
C1303 H1318 0.961 . S
C1303 H1319 0.960 . S
H1304 C1288 0.931 . S
H1305 C1293 0.929 . S
H1306 C1294 0.960 . S
H1307 C1294 0.962 . S
H1308 C1294 0.960 . S
H1309 C1295 0.961 . S
H1310 C1295 0.961 . S
H1311 C1295 0.961 . S
H1312 C1296 0.931 . S
H1313 C1301 0.930 . S
H1314 C1302 0.956 . S
H1315 C1302 0.961 . S
H1316 C1302 0.961 . S
H1317 C1303 0.958 . S
H1318 C1303 0.961 . S
H1319 C1303 0.960 . S
C1320 C1321 1.391 . S
C1320 C1322 1.394 . S
C1320 H1336 0.931 . S
C1321 C1320 1.391 . S
C1321 C1325 1.376 . S
C1322 C1320 1.394 . S
C1322 C1323 1.369 . S
C1322 C1326 1.531 . S
C1323 C1322 1.369 . S
C1323 C1324 1.410 . S
C1323 C1331 1.503 . S
C1324 C1323 1.410 . S
C1324 C1325 1.392 . S
C1324 C1327 1.511 . S
C1325 C1321 1.376 . S
C1325 C1324 1.392 . S
C1325 H1337 0.929 . S
C1326 C1322 1.531 . S
C1326 H1338 0.960 . S
C1326 H1339 0.962 . S
C1326 H1340 0.960 . S
C1327 C1324 1.511 . S
C1327 H1341 0.961 . S
C1327 H1342 0.961 . S
C1327 H1343 0.961 . S
C1328 C1329 1.370 . S
C1328 C1330 1.363 . S
C1328 H1344 0.931 . S
C1329 C1328 1.370 . S
C1329 C1333 1.408 . S
C1330 C1328 1.363 . S
C1330 C1331 1.370 . S
C1330 C1334 1.524 . S
C1331 C1323 1.503 . S
C1331 C1330 1.370 . S
C1331 C1332 1.403 . S
C1332 C1331 1.403 . S
C1332 C1333 1.404 . S
C1332 C1335 1.539 . S
C1333 C1329 1.408 . S
C1333 C1332 1.404 . S
C1333 H1345 0.930 . S
C1334 C1330 1.524 . S
C1334 H1346 0.956 . S
C1334 H1347 0.961 . S
C1334 H1348 0.961 . S
C1335 C1332 1.539 . S
C1335 H1349 0.958 . S
C1335 H1350 0.961 . S
C1335 H1351 0.960 . S
H1336 C1320 0.931 . S
H1337 C1325 0.929 . S
H1338 C1326 0.960 . S
H1339 C1326 0.962 . S
H1340 C1326 0.960 . S
H1341 C1327 0.961 . S
H1342 C1327 0.961 . S
H1343 C1327 0.961 . S
H1344 C1328 0.931 . S
H1345 C1333 0.930 . S
H1346 C1334 0.956 . S
H1347 C1334 0.961 . S
H1348 C1334 0.961 . S
H1349 C1335 0.958 . S
H1350 C1335 0.961 . S
H1351 C1335 0.960 . S
C1352 C1353 1.391 . S
C1352 C1354 1.394 . S
C1352 H1368 0.931 . S
C1353 C1352 1.391 . S
C1353 C1357 1.376 . S
C1354 C1352 1.394 . S
C1354 C1355 1.369 . S
C1354 C1358 1.531 . S
C1355 C1354 1.369 . S
C1355 C1356 1.410 . S
C1355 C1363 1.503 . S
C1356 C1355 1.410 . S
C1356 C1357 1.392 . S
C1356 C1359 1.511 . S
C1357 C1353 1.376 . S
C1357 C1356 1.392 . S
C1357 H1369 0.929 . S
C1358 C1354 1.531 . S
C1358 H1370 0.960 . S
C1358 H1371 0.962 . S
C1358 H1372 0.960 . S
C1359 C1356 1.511 . S
C1359 H1373 0.961 . S
C1359 H1374 0.961 . S
C1359 H1375 0.961 . S
C1360 C1361 1.370 . S
C1360 C1362 1.363 . S
C1360 H1376 0.931 . S
C1361 C1360 1.370 . S
C1361 C1365 1.408 . S
C1362 C1360 1.363 . S
C1362 C1363 1.370 . S
C1362 C1366 1.524 . S
C1363 C1355 1.503 . S
C1363 C1362 1.370 . S
C1363 C1364 1.403 . S
C1364 C1363 1.403 . S
C1364 C1365 1.404 . S
C1364 C1367 1.539 . S
C1365 C1361 1.408 . S
C1365 C1364 1.404 . S
C1365 H1377 0.930 . S
C1366 C1362 1.524 . S
C1366 H1378 0.956 . S
C1366 H1379 0.961 . S
C1366 H1380 0.961 . S
C1367 C1364 1.539 . S
C1367 H1381 0.958 . S
C1367 H1382 0.961 . S
C1367 H1383 0.960 . S
H1368 C1352 0.931 . S
H1369 C1357 0.929 . S
H1370 C1358 0.960 . S
H1371 C1358 0.962 . S
H1372 C1358 0.960 . S
H1373 C1359 0.961 . S
H1374 C1359 0.961 . S
H1375 C1359 0.961 . S
H1376 C1360 0.931 . S
H1377 C1365 0.930 . S
H1378 C1366 0.956 . S
H1379 C1366 0.961 . S
H1380 C1366 0.961 . S
H1381 C1367 0.958 . S
H1382 C1367 0.961 . S
H1383 C1367 0.960 . S
C1384 C1385 1.391 . S
C1384 C1386 1.394 . S
C1384 H1400 0.931 . S
C1385 C1384 1.391 . S
C1385 C1389 1.376 . S
C1386 C1384 1.394 . S
C1386 C1387 1.369 . S
C1386 C1390 1.531 . S
C1387 C1386 1.369 . S
C1387 C1388 1.410 . S
C1387 C1395 1.503 . S
C1388 C1387 1.410 . S
C1388 C1389 1.392 . S
C1388 C1391 1.511 . S
C1389 C1385 1.376 . S
C1389 C1388 1.392 . S
C1389 H1401 0.929 . S
C1390 C1386 1.531 . S
C1390 H1402 0.960 . S
C1390 H1403 0.962 . S
C1390 H1404 0.960 . S
C1391 C1388 1.511 . S
C1391 H1405 0.961 . S
C1391 H1406 0.961 . S
C1391 H1407 0.961 . S
C1392 C1393 1.370 . S
C1392 C1394 1.363 . S
C1392 H1408 0.931 . S
C1393 C1392 1.370 . S
C1393 C1397 1.408 . S
C1394 C1392 1.363 . S
C1394 C1395 1.370 . S
C1394 C1398 1.524 . S
C1395 C1387 1.503 . S
C1395 C1394 1.370 . S
C1395 C1396 1.403 . S
C1396 C1395 1.403 . S
C1396 C1397 1.404 . S
C1396 C1399 1.539 . S
C1397 C1393 1.408 . S
C1397 C1396 1.404 . S
C1397 H1409 0.930 . S
C1398 C1394 1.524 . S
C1398 H1410 0.956 . S
C1398 H1411 0.961 . S
C1398 H1412 0.961 . S
C1399 C1396 1.539 . S
C1399 H1413 0.958 . S
C1399 H1414 0.961 . S
C1399 H1415 0.960 . S
H1400 C1384 0.931 . S
H1401 C1389 0.929 . S
H1402 C1390 0.960 . S
H1403 C1390 0.962 . S
H1404 C1390 0.960 . S
H1405 C1391 0.961 . S
H1406 C1391 0.961 . S
H1407 C1391 0.961 . S
H1408 C1392 0.931 . S
H1409 C1397 0.930 . S
H1410 C1398 0.956 . S
H1411 C1398 0.961 . S
H1412 C1398 0.961 . S
H1413 C1399 0.958 . S
H1414 C1399 0.961 . S
H1415 C1399 0.960 . S
C1416 C1417 1.391 . S
C1416 C1418 1.394 . S
C1416 H1432 0.931 . S
C1417 C1416 1.391 . S
C1417 C1421 1.376 . S
C1418 C1416 1.394 . S
C1418 C1419 1.369 . S
C1418 C1422 1.531 . S
C1419 C1418 1.369 . S
C1419 C1420 1.410 . S
C1419 C1427 1.503 . S
C1420 C1419 1.410 . S
C1420 C1421 1.392 . S
C1420 C1423 1.511 . S
C1421 C1417 1.376 . S
C1421 C1420 1.392 . S
C1421 H1433 0.929 . S
C1422 C1418 1.531 . S
C1422 H1434 0.960 . S
C1422 H1435 0.962 . S
C1422 H1436 0.960 . S
C1423 C1420 1.511 . S
C1423 H1437 0.961 . S
C1423 H1438 0.961 . S
C1423 H1439 0.961 . S
C1424 C1425 1.370 . S
C1424 C1426 1.363 . S
C1424 H1440 0.931 . S
C1425 C1424 1.370 . S
C1425 C1429 1.408 . S
C1426 C1424 1.363 . S
C1426 C1427 1.370 . S
C1426 C1430 1.524 . S
C1427 C1419 1.503 . S
C1427 C1426 1.370 . S
C1427 C1428 1.403 . S
C1428 C1427 1.403 . S
C1428 C1429 1.404 . S
C1428 C1431 1.539 . S
C1429 C1425 1.408 . S
C1429 C1428 1.404 . S
C1429 H1441 0.930 . S
C1430 C1426 1.524 . S
C1430 H1442 0.956 . S
C1430 H1443 0.961 . S
C1430 H1444 0.961 . S
C1431 C1428 1.539 . S
C1431 H1445 0.958 . S
C1431 H1446 0.961 . S
C1431 H1447 0.960 . S
H1432 C1416 0.931 . S
H1433 C1421 0.929 . S
H1434 C1422 0.960 . S
H1435 C1422 0.962 . S
H1436 C1422 0.960 . S
H1437 C1423 0.961 . S
H1438 C1423 0.961 . S
H1439 C1423 0.961 . S
H1440 C1424 0.931 . S
H1441 C1429 0.930 . S
H1442 C1430 0.956 . S
H1443 C1430 0.961 . S
H1444 C1430 0.961 . S
H1445 C1431 0.958 . S
H1446 C1431 0.961 . S
H1447 C1431 0.960 . S
C1448 C1449 1.391 . S
C1448 C1450 1.394 . S
C1448 H1464 0.931 . S
C1449 C1448 1.391 . S
C1449 C1453 1.376 . S
C1450 C1448 1.394 . S
C1450 C1451 1.369 . S
C1450 C1454 1.531 . S
C1451 C1450 1.369 . S
C1451 C1452 1.410 . S
C1451 C1459 1.503 . S
C1452 C1451 1.410 . S
C1452 C1453 1.392 . S
C1452 C1455 1.511 . S
C1453 C1449 1.376 . S
C1453 C1452 1.392 . S
C1453 H1465 0.929 . S
C1454 C1450 1.531 . S
C1454 H1466 0.960 . S
C1454 H1467 0.962 . S
C1454 H1468 0.960 . S
C1455 C1452 1.511 . S
C1455 H1469 0.961 . S
C1455 H1470 0.961 . S
C1455 H1471 0.961 . S
C1456 C1457 1.370 . S
C1456 C1458 1.363 . S
C1456 H1472 0.931 . S
C1457 C1456 1.370 . S
C1457 C1461 1.408 . S
C1458 C1456 1.363 . S
C1458 C1459 1.370 . S
C1458 C1462 1.524 . S
C1459 C1451 1.503 . S
C1459 C1458 1.370 . S
C1459 C1460 1.403 . S
C1460 C1459 1.403 . S
C1460 C1461 1.404 . S
C1460 C1463 1.539 . S
C1461 C1457 1.408 . S
C1461 C1460 1.404 . S
C1461 H1473 0.930 . S
C1462 C1458 1.524 . S
C1462 H1474 0.956 . S
C1462 H1475 0.961 . S
C1462 H1476 0.961 . S
C1463 C1460 1.539 . S
C1463 H1477 0.958 . S
C1463 H1478 0.961 . S
C1463 H1479 0.960 . S
H1464 C1448 0.931 . S
H1465 C1453 0.929 . S
H1466 C1454 0.960 . S
H1467 C1454 0.962 . S
H1468 C1454 0.960 . S
H1469 C1455 0.961 . S
H1470 C1455 0.961 . S
H1471 C1455 0.961 . S
H1472 C1456 0.931 . S
H1473 C1461 0.930 . S
H1474 C1462 0.956 . S
H1475 C1462 0.961 . S
H1476 C1462 0.961 . S
H1477 C1463 0.958 . S
H1478 C1463 0.961 . S
H1479 C1463 0.960 . S
C1480 C1481 1.391 . S
C1480 C1482 1.394 . S
C1480 H1496 0.931 . S
C1481 C1480 1.391 . S
C1481 C1485 1.376 . S
C1482 C1480 1.394 . S
C1482 C1483 1.369 . S
C1482 C1486 1.531 . S
C1483 C1482 1.369 . S
C1483 C1484 1.410 . S
C1483 C1491 1.503 . S
C1484 C1483 1.410 . S
C1484 C1485 1.392 . S
C1484 C1487 1.511 . S
C1485 C1481 1.376 . S
C1485 C1484 1.392 . S
C1485 H1497 0.929 . S
C1486 C1482 1.531 . S
C1486 H1498 0.960 . S
C1486 H1499 0.962 . S
C1486 H1500 0.960 . S
C1487 C1484 1.511 . S
C1487 H1501 0.961 . S
C1487 H1502 0.961 . S
C1487 H1503 0.961 . S
C1488 C1489 1.370 . S
C1488 C1490 1.363 . S
C1488 H1504 0.931 . S
C1489 C1488 1.370 . S
C1489 C1493 1.408 . S
C1490 C1488 1.363 . S
C1490 C1491 1.370 . S
C1490 C1494 1.524 . S
C1491 C1483 1.503 . S
C1491 C1490 1.370 . S
C1491 C1492 1.403 . S
C1492 C1491 1.403 . S
C1492 C1493 1.404 . S
C1492 C1495 1.539 . S
C1493 C1489 1.408 . S
C1493 C1492 1.404 . S
C1493 H1505 0.930 . S
C1494 C1490 1.524 . S
C1494 H1506 0.956 . S
C1494 H1507 0.961 . S
C1494 H1508 0.961 . S
C1495 C1492 1.539 . S
C1495 H1509 0.958 . S
C1495 H1510 0.961 . S
C1495 H1511 0.960 . S
H1496 C1480 0.931 . S
H1497 C1485 0.929 . S
H1498 C1486 0.960 . S
H1499 C1486 0.962 . S
H1500 C1486 0.960 . S
H1501 C1487 0.961 . S
H1502 C1487 0.961 . S
H1503 C1487 0.961 . S
H1504 C1488 0.931 . S
H1505 C1493 0.930 . S
H1506 C1494 0.956 . S
H1507 C1494 0.961 . S
H1508 C1494 0.961 . S
H1509 C1495 0.958 . S
H1510 C1495 0.961 . S
H1511 C1495 0.960 . S
C497 C397 1.323 . S
C489 C36 1.402 . S
C529 C415 1.313 . S
C521 C93 1.393 . S
C561 C423 1.333 . S
C553 C126 1.360 . S
C585 C165 1.339 . S
C593 C389 1.334 . S
C617 C222 1.379 . S
C625 C384 1.324 . S
C649 C261 1.345 . S
C657 C402 1.339 . S
C689 C410 1.354 . S
C681 C318 1.366 . S
C721 C428 1.337 . S
C713 C381 1.359 . S
C745 C132 1.401 . S
C753 C449 1.324 . S
C785 C467 1.333 . S
C777 C189 1.360 . S
C809 C30 1.370 . S
C817 C475 1.354 . S
C849 C441 1.339 . S
C841 C69 1.344 . S
C873 C324 1.395 . S
C881 C436 1.322 . S
C905 C357 1.385 . S
C913 C454 1.319 . S
C945 C462 1.325 . S
C937 C228 1.401 . S
C969 C285 1.364 . S
C977 C480 1.345 . S
C1009 C418 1.544 . S
C1001 C45 1.545 . S
C1041 C433 1.505 . S
C1033 C84 1.545 . S
C1065 C117 1.536 . S
C1073 C392 1.545 . S
C1097 C174 1.529 . S
C1105 C407 1.509 . S
C1129 C213 1.508 . S
C1137 C431 1.541 . S
C1169 C394 1.509 . S
C1161 C270 1.529 . S
C1201 C405 1.544 . S
C1193 C309 1.516 . S
C1233 C420 1.519 . S
C1225 C372 1.527 . S
C1265 C470 1.543 . S
C1257 C141 1.509 . S
C1297 C485 1.515 . S
C1289 C180 1.522 . S
C1321 C21 1.506 . S
C1329 C444 1.538 . S
C1361 C459 1.502 . S
C1353 C78 1.523 . S
C1393 C483 1.539 . S
C1385 C333 1.512 . S
C1417 C366 1.524 . S
C1425 C446 1.515 . S
C1457 C457 1.542 . S
C1449 C237 1.507 . S
C1489 C472 1.503 . S
C1481 C276 1.543 . S
