# Generated by pormake.
# Topology pyr, (3,6)-cn, num edge types: 1
# Building blocks:
#     Node 0, Type 0, BuildingBlock: VETTIZ_charged_linker_0, # of connection points: 3
#     Node 1, Type 0, BuildingBlock: VETTIZ_charged_linker_0, # of connection points: 3
#     Node 2, Type 0, BuildingBlock: VETTIZ_charged_linker_0, # of connection points: 3
#     Node 3, Type 0, BuildingBlock: VETTIZ_charged_linker_0, # of connection points: 3
#     Node 4, Type 0, BuildingBlock: VETTIZ_charged_linker_0, # of connection points: 3
#     Node 5, Type 0, BuildingBlock: VETTIZ_charged_linker_0, # of connection points: 3
#     Node 6, Type 0, BuildingBlock: VETTIZ_charged_linker_0, # of connection points: 3
#     Node 7, Type 0, BuildingBlock: VETTIZ_charged_linker_0, # of connection points: 3
#     Node 8, Type 1, BuildingBlock: MIDCAF_clean_sbu_0, # of connection points: 6
#     Node 9, Type 1, BuildingBlock: MIDCAF_clean_sbu_0, # of connection points: 6
#     Node 10, Type 1, BuildingBlock: MIDCAF_clean_sbu_0, # of connection points: 6
#     Node 11, Type 1, BuildingBlock: MIDCAF_clean_sbu_0, # of connection points: 6
#     Edge 12, Type (0, 1), BuildingBlock: CIFDUS_clean_linker_0, # of connection points: 2
#     Edge 13, Type (0, 1), BuildingBlock: CIFDUS_clean_linker_0, # of connection points: 2
#     Edge 14, Type (0, 1), BuildingBlock: CIFDUS_clean_linker_0, # of connection points: 2
#     Edge 15, Type (0, 1), BuildingBlock: CIFDUS_clean_linker_0, # of connection points: 2
#     Edge 16, Type (0, 1), BuildingBlock: CIFDUS_clean_linker_0, # of connection points: 2
#     Edge 17, Type (0, 1), BuildingBlock: CIFDUS_clean_linker_0, # of connection points: 2
#     Edge 18, Type (0, 1), BuildingBlock: CIFDUS_clean_linker_0, # of connection points: 2
#     Edge 19, Type (0, 1), BuildingBlock: CIFDUS_clean_linker_0, # of connection points: 2
#     Edge 20, Type (0, 1), BuildingBlock: CIFDUS_clean_linker_0, # of connection points: 2
#     Edge 21, Type (0, 1), BuildingBlock: CIFDUS_clean_linker_0, # of connection points: 2
#     Edge 22, Type (0, 1), BuildingBlock: CIFDUS_clean_linker_0, # of connection points: 2
#     Edge 23, Type (0, 1), BuildingBlock: CIFDUS_clean_linker_0, # of connection points: 2
#     Edge 24, Type (0, 1), BuildingBlock: CIFDUS_clean_linker_0, # of connection points: 2
#     Edge 25, Type (0, 1), BuildingBlock: CIFDUS_clean_linker_0, # of connection points: 2
#     Edge 26, Type (0, 1), BuildingBlock: CIFDUS_clean_linker_0, # of connection points: 2
#     Edge 27, Type (0, 1), BuildingBlock: CIFDUS_clean_linker_0, # of connection points: 2
#     Edge 28, Type (0, 1), BuildingBlock: CIFDUS_clean_linker_0, # of connection points: 2
#     Edge 29, Type (0, 1), BuildingBlock: CIFDUS_clean_linker_0, # of connection points: 2
#     Edge 30, Type (0, 1), BuildingBlock: CIFDUS_clean_linker_0, # of connection points: 2
#     Edge 31, Type (0, 1), BuildingBlock: CIFDUS_clean_linker_0, # of connection points: 2
#     Edge 32, Type (0, 1), BuildingBlock: CIFDUS_clean_linker_0, # of connection points: 2
#     Edge 33, Type (0, 1), BuildingBlock: CIFDUS_clean_linker_0, # of connection points: 2
#     Edge 34, Type (0, 1), BuildingBlock: CIFDUS_clean_linker_0, # of connection points: 2
#     Edge 35, Type (0, 1), BuildingBlock: CIFDUS_clean_linker_0, # of connection points: 2
# Relax obj value: 0.019
# Max RMSD: 0.063
# Mean RMSD: 0.021
data_MOF--net-pry--node1-MIDCAF_clean_sbu_0--node2-VETTIZ_charged_linker_0--edge1-CIFDUS_clean_linker_0
_symmetry_space_group_name_H-M    P1
_symmetry_Int_Tables_number       1
_symmetry_cell_setting            triclinic
loop_
_symmetry_equiv_pos_as_xyz
'x, y, z'
_cell_length_a     39.146481
_cell_length_b     39.223825
_cell_length_c     39.200281
_cell_angle_alpha  90.005274
_cell_angle_beta   90.134423
_cell_angle_gamma 90.146744
loop_
_atom_site_label
_atom_site_type_symbol
_atom_site_fract_x
_atom_site_fract_y
_atom_site_fract_z
_atom_type_partial_charge
C0 C 0.19597 0.16933 0.32228 0.0
C1 C 0.16545 0.17953 0.33782 0.0
C2 C 0.15216 0.21209 0.33087 0.0
C3 C 0.19801 0.22231 0.2904 0.0
C4 C 0.21186 0.19108 0.29894 0.0
C5 C 0.24353 0.18316 0.27899 0.0
H6 H 0.35331 0.22249 0.15281 0.0
C7 C 0.21929 0.23714 0.2629 0.0
C8 C 0.24624 0.21454 0.25656 0.0
H9 H 0.3497 0.13212 0.21649 0.0
H10 H 0.30399 0.15601 0.24843 0.0
H11 H 0.33616 0.27939 0.213 0.0
H12 H 0.2716 0.22447 0.14218 0.0
H13 H 0.25909 0.26747 0.14297 0.0
H14 H 0.30124 0.25665 0.12842 0.0
H15 H 0.33686 0.28767 0.16794 0.0
H16 H 0.30598 0.3077 0.19546 0.0
C17 C 0.27378 0.18068 0.30448 0.0
C18 C 0.23673 0.15031 0.25787 0.0
C19 C 0.17889 0.34341 0.20158 0.0
C20 C 0.19158 0.36272 0.17407 0.0
C21 C 0.22339 0.35349 0.15989 0.0
C22 C 0.24165 0.32524 0.17239 0.0
C23 C 0.22797 0.30577 0.19928 0.0
C24 C 0.1974 0.31552 0.2138 0.0
C25 C 0.18673 0.29253 0.24255 0.0
C26 C 0.21551 0.26678 0.24247 0.0
C27 C 0.23954 0.27433 0.21687 0.0
C28 C 0.18613 0.31371 0.27593 0.0
C29 C 0.15199 0.27607 0.2329 0.0
C30 C 0.34272 0.20768 0.17355 0.0
C31 C 0.35584 0.17514 0.18188 0.0
C32 C 0.34122 0.15744 0.20964 0.0
C33 C 0.31405 0.17121 0.22806 0.0
C34 C 0.3004 0.20283 0.21846 0.0
C35 C 0.3148 0.22074 0.1918 0.0
C36 C 0.29549 0.25318 0.18427 0.0
C37 C 0.26732 0.25168 0.21097 0.0
C38 C 0.27052 0.22204 0.23081 0.0
C39 C 0.31978 0.28377 0.19019 0.0
C40 C 0.28116 0.25069 0.1475 0.0
H41 H 0.15652 0.25774 0.30206 0.0
H42 H 0.2066 0.14434 0.32731 0.0
H43 H 0.20933 0.14823 0.25047 0.0
H44 H 0.25058 0.14988 0.23336 0.0
H45 H 0.24333 0.12709 0.27267 0.0
H46 H 0.27055 0.19889 0.326 0.0
H47 H 0.27567 0.15468 0.31554 0.0
H48 H 0.29856 0.18771 0.29296 0.0
H49 H 0.15439 0.34912 0.21295 0.0
H50 H 0.2342 0.3681 0.1391 0.0
H51 H 0.26559 0.31943 0.16046 0.0
H52 H 0.20519 0.3348 0.27514 0.0
H53 H 0.16063 0.32531 0.28016 0.0
H54 H 0.19334 0.29853 0.29859 0.0
H55 H 0.1518 0.26831 0.2056 0.0
H56 H 0.14638 0.2526 0.2473 0.0
H57 H 0.13067 0.29429 0.2368 0.0
H58 H 0.12851 0.22019 0.34261 0.0
C59 C 0.16833 0.23361 0.30719 0.0
C60 C 0.20294 0.82145 0.67056 0.0
C61 C 0.19137 0.85533 0.67388 0.0
C62 C 0.20472 0.87535 0.70079 0.0
C63 C 0.24189 0.82902 0.71822 0.0
C64 C 0.22859 0.80924 0.69226 0.0
C65 C 0.24698 0.77577 0.6887 0.0
H66 H 0.38572 0.68161 0.72616 0.0
C67 C 0.26982 0.80958 0.73462 0.0
C68 C 0.27318 0.77849 0.71722 0.0
H69 H 0.30579 0.65934 0.65274 0.0
H70 H 0.27381 0.70759 0.67272 0.0
H71 H 0.38732 0.76387 0.72226 0.0
H72 H 0.3321 0.69391 0.78646 0.0
H73 H 0.33758 0.7314 0.8104 0.0
H74 H 0.3746 0.70746 0.79698 0.0
H75 H 0.40679 0.73479 0.75191 0.0
H76 H 0.3917 0.77558 0.76572 0.0
C77 C 0.26383 0.7751 0.65293 0.0
C78 C 0.22112 0.74654 0.69514 0.0
C79 C 0.33367 0.86097 0.83513 0.0
C80 C 0.35992 0.84907 0.85673 0.0
C81 C 0.37389 0.81653 0.85021 0.0
C82 C 0.36216 0.79658 0.82275 0.0
C83 C 0.33595 0.80903 0.8016 0.0
C84 C 0.32182 0.84051 0.80838 0.0
C85 C 0.2933 0.84926 0.78418 0.0
C86 C 0.2921 0.8175 0.76216 0.0
C87 C 0.31763 0.79432 0.77193 0.0
C88 C 0.30404 0.88126 0.76351 0.0
C89 C 0.26016 0.85369 0.80521 0.0
C90 C 0.36118 0.68665 0.71449 0.0
C91 C 0.34914 0.66693 0.68677 0.0
C92 C 0.31669 0.67468 0.673 0.0
C93 C 0.29794 0.7027 0.68477 0.0
C94 C 0.31149 0.72333 0.71079 0.0
C95 C 0.34184 0.71428 0.72628 0.0
C96 C 0.35071 0.73756 0.75564 0.0
C97 C 0.32213 0.76361 0.75324 0.0
C98 C 0.29951 0.75537 0.72658 0.0
C99 C 0.38607 0.75384 0.74877 0.0
C100 C 0.34893 0.71667 0.78918 0.0
H101 H 0.23898 0.87906 0.74258 0.0
H102 H 0.19312 0.80486 0.65077 0.0
H103 H 0.20187 0.75408 0.71455 0.0
H104 H 0.23332 0.72343 0.7057 0.0
H105 H 0.20713 0.73972 0.67141 0.0
H106 H 0.27434 0.80063 0.64628 0.0
H107 H 0.24494 0.76804 0.63293 0.0
H108 H 0.28578 0.75772 0.65117 0.0
H109 H 0.32267 0.88603 0.83849 0.0
H110 H 0.39373 0.80625 0.86646 0.0
H111 H 0.37399 0.77224 0.81893 0.0
H112 H 0.33227 0.88272 0.76058 0.0
H113 H 0.29563 0.90505 0.77633 0.0
H114 H 0.29414 0.88096 0.73708 0.0
H115 H 0.25841 0.83385 0.82544 0.0
H116 H 0.23672 0.85063 0.78982 0.0
H117 H 0.25958 0.879 0.81791 0.0
H118 H 0.19709 0.90165 0.70396 0.0
C119 C 0.22957 0.8623 0.72306 0.0
C120 C 0.68103 0.20402 0.8534 0.0
C121 C 0.65697 0.18543 0.8339 0.0
C122 C 0.65365 0.19361 0.79887 0.0
C123 C 0.6923 0.24144 0.80544 0.0
C124 C 0.69881 0.23126 0.83849 0.0
C125 C 0.72643 0.25245 0.85495 0.0
H126 H 0.81669 0.39904 0.85885 0.0
C127 C 0.71169 0.27311 0.79895 0.0
C128 C 0.73234 0.27936 0.82759 0.0
H129 H 0.82743 0.31029 0.924 0.0
H130 H 0.78567 0.28061 0.89078 0.0
H131 H 0.73585 0.39492 0.84642 0.0
H132 H 0.81953 0.35308 0.7888 0.0
H133 H 0.78995 0.37066 0.75995 0.0
H134 H 0.81094 0.398 0.7905 0.0
H135 H 0.76343 0.42116 0.82093 0.0
H136 H 0.72647 0.40024 0.80291 0.0
C137 C 0.71224 0.26816 0.88822 0.0
C138 C 0.75826 0.22948 0.86045 0.0
C139 C 0.68012 0.3461 0.69646 0.0
C140 C 0.68813 0.37981 0.68701 0.0
C141 C 0.71163 0.39826 0.70741 0.0
C142 C 0.72657 0.38361 0.73645 0.0
C143 C 0.7177 0.35023 0.74582 0.0
C144 C 0.69473 0.3321 0.72601 0.0
C145 C 0.68665 0.29772 0.74096 0.0
C146 C 0.70897 0.29801 0.77276 0.0
C147 C 0.72723 0.32883 0.77544 0.0
C148 C 0.64805 0.29722 0.74959 0.0
C149 C 0.69779 0.26982 0.71531 0.0
C150 C 0.81048 0.37312 0.86595 0.0
C151 C 0.82499 0.35782 0.89525 0.0
C152 C 0.81587 0.32373 0.90283 0.0
C153 C 0.79185 0.30606 0.88314 0.0
C154 C 0.77699 0.32201 0.85486 0.0
C155 C 0.78711 0.35452 0.8459 0.0
C156 C 0.77051 0.36591 0.81304 0.0
C157 C 0.74912 0.33468 0.80392 0.0
C158 C 0.75233 0.30957 0.82922 0.0
C159 C 0.748 0.39735 0.8209 0.0
C160 C 0.79903 0.37256 0.78655 0.0
H161 H 0.66651 0.22694 0.75824 0.0
H162 H 0.68542 0.19849 0.88004 0.0
H163 H 0.75632 0.20491 0.84638 0.0
H164 H 0.78193 0.24165 0.85071 0.0
H165 H 0.76186 0.22308 0.88783 0.0
H166 H 0.68733 0.28083 0.8833 0.0
H167 H 0.7082 0.2482 0.90791 0.0
H168 H 0.72934 0.28767 0.89925 0.0
H169 H 0.66256 0.33087 0.68146 0.0
H170 H 0.71787 0.42451 0.70159 0.0
H171 H 0.74396 0.39915 0.75088 0.0
H172 H 0.64073 0.32093 0.76331 0.0
H173 H 0.63238 0.29563 0.72597 0.0
H174 H 0.64046 0.27608 0.76638 0.0
H175 H 0.7192 0.2788 0.69896 0.0
H176 H 0.70781 0.2468 0.7282 0.0
H177 H 0.67638 0.26239 0.69819 0.0
H178 H 0.63729 0.17881 0.78221 0.0
C179 C 0.67089 0.22155 0.78471 0.0
C180 C 0.85568 0.84408 0.33635 0.0
C181 C 0.84599 0.85988 0.36725 0.0
C182 C 0.81569 0.84852 0.38324 0.0
C183 C 0.80876 0.80387 0.34101 0.0
C184 C 0.83743 0.81569 0.32435 0.0
C185 C 0.84785 0.79256 0.29547 0.0
H186 H 0.83625 0.63696 0.22198 0.0
C187 C 0.79831 0.77139 0.32492 0.0
C188 C 0.82133 0.76433 0.29843 0.0
H189 H 0.90511 0.71896 0.19549 0.0
H190 H 0.87603 0.75653 0.23501 0.0
H191 H 0.83658 0.64702 0.29966 0.0
H192 H 0.76677 0.68692 0.22459 0.0
H193 H 0.74273 0.67204 0.25943 0.0
H194 H 0.7686 0.64253 0.23559 0.0
H195 H 0.80454 0.62084 0.27984 0.0
H196 H 0.79559 0.64551 0.31761 0.0
C197 C 0.88448 0.77959 0.30292 0.0
C198 C 0.84426 0.81247 0.26157 0.0
C199 C 0.69899 0.70479 0.37489 0.0
C200 C 0.68763 0.6708 0.37133 0.0
C201 C 0.70346 0.65022 0.34631 0.0
C202 C 0.73007 0.66298 0.32597 0.0
C203 C 0.74185 0.69647 0.33106 0.0
C204 C 0.72647 0.71662 0.35542 0.0
C205 C 0.74478 0.75001 0.3604 0.0
C206 C 0.7725 0.74742 0.33352 0.0
C207 C 0.77058 0.71612 0.31627 0.0
C208 C 0.75966 0.75074 0.39724 0.0
C209 C 0.7196 0.77929 0.35245 0.0
C210 C 0.84493 0.66308 0.22461 0.0
C211 C 0.87329 0.67496 0.2061 0.0
C212 C 0.88339 0.70927 0.20961 0.0
C213 C 0.86668 0.73089 0.23276 0.0
C214 C 0.83967 0.718 0.25262 0.0
C215 C 0.82842 0.68498 0.24741 0.0
C216 C 0.79854 0.67593 0.26972 0.0
C217 C 0.79422 0.70864 0.28988 0.0
C218 C 0.8188 0.73301 0.28027 0.0
C219 C 0.809 0.64561 0.29286 0.0
C220 C 0.76742 0.66871 0.24634 0.0
H221 H 0.77437 0.81363 0.38363 0.0
H222 H 0.87792 0.85248 0.32233 0.0
H223 H 0.82257 0.8307 0.26272 0.0
H224 H 0.83834 0.79566 0.23969 0.0
H225 H 0.86776 0.82734 0.25595 0.0
H226 H 0.88727 0.77268 0.33031 0.0
H227 H 0.90378 0.79955 0.29707 0.0
H228 H 0.89118 0.75635 0.28871 0.0
H229 H 0.68757 0.72193 0.39319 0.0
H230 H 0.6963 0.62377 0.34306 0.0
H231 H 0.74119 0.64584 0.3078 0.0
H232 H 0.76096 0.72484 0.40876 0.0
H233 H 0.74384 0.7667 0.41443 0.0
H234 H 0.78638 0.76005 0.39798 0.0
H235 H 0.70517 0.77386 0.32857 0.0
H236 H 0.73262 0.80396 0.34827 0.0
H237 H 0.7008 0.78239 0.3734 0.0
H238 H 0.80718 0.85949 0.40704 0.0
C239 C 0.79683 0.82114 0.36998 0.0
C240 C 0.91605 0.80491 0.96514 0.0
C241 C 0.94363 0.78452 0.95525 0.0
C242 C 0.96578 0.79596 0.92941 0.0
C243 C 0.93172 0.84697 0.92236 0.0
C244 C 0.91085 0.83617 0.9487 0.0
C245 C 0.88339 0.86156 0.95679 0.0
H246 H 0.79851 0.00611 0.91686 0.0
C247 C 0.91852 0.87993 0.90981 0.0
C248 C 0.89047 0.88881 0.9302 0.0
H249 H 0.78223 0.93844 0.00228 0.0
H250 H 0.82979 0.90386 0.9848 0.0
H251 H 0.81708 0.94676 0.86031 0.0
H252 H 0.87755 0.01055 0.92619 0.0
H253 H 0.90196 0.00473 0.8892 0.0
H254 H 0.86113 0.02594 0.88634 0.0
H255 H 0.82106 0.99208 0.85519 0.0
H256 H 0.85131 0.96323 0.83634 0.0
C257 C 0.84835 0.84401 0.95101 0.0
C258 C 0.88929 0.87486 0.99366 0.0
C259 C 0.97015 0.93538 0.80416 0.0
C260 C 0.96261 0.96581 0.78678 0.0
C261 C 0.93594 0.98667 0.7988 0.0
C262 C 0.91698 0.97748 0.82752 0.0
C263 C 0.92466 0.94705 0.84464 0.0
C264 C 0.95105 0.92668 0.83318 0.0
C265 C 0.95603 0.89583 0.85551 0.0
C266 C 0.92803 0.90097 0.88186 0.0
C267 C 0.9096 0.9309 0.87509 0.0
C268 C 0.9497 0.86371 0.83342 0.0
C269 C 0.99216 0.89778 0.87167 0.0
C270 C 0.80531 0.98375 0.93158 0.0
C271 C 0.78676 0.97479 0.96087 0.0
C272 C 0.79643 0.94583 0.97975 0.0
C273 C 0.82398 0.92574 0.96951 0.0
C274 C 0.84228 0.93475 0.94012 0.0
C275 C 0.83327 0.9636 0.92196 0.0
C276 C 0.857 0.97003 0.8925 0.0
C277 C 0.88136 0.94003 0.89583 0.0
C278 C 0.87219 0.91926 0.92345 0.0
C279 C 0.83571 0.9682 0.85919 0.0
C280 C 0.87531 0.00466 0.89851 0.0
H281 H 0.97733 0.83422 0.89296 0.0
H282 H 0.89899 0.7967 0.98528 0.0
H283 H 0.9164 0.872 0.00174 0.0
H284 H 0.88417 0.90251 0.99607 0.0
H285 H 0.87332 0.86074 0.01233 0.0
H286 H 0.84857 0.82885 0.92702 0.0
H287 H 0.84223 0.82638 0.97233 0.0
H288 H 0.82711 0.86219 0.94809 0.0
H289 H 0.99068 0.91902 0.79561 0.0
H290 H 0.92936 0.01001 0.78557 0.0
H291 H 0.89695 0.99441 0.83517 0.0
H292 H 0.92671 0.86714 0.81704 0.0
H293 H 0.97179 0.85872 0.81641 0.0
H294 H 0.94464 0.84061 0.84861 0.0
H295 H 1.00051 0.9247 0.87517 0.0
H296 H 0.99309 0.88666 0.89758 0.0
H297 H 0.0114 0.88497 0.85534 0.0
H298 H 0.98719 0.78039 0.92155 0.0
C299 C 0.9599 0.82705 0.91279 0.0
C300 C 0.74277 0.09135 0.44479 0.0
C301 C 0.75563 0.06194 0.42901 0.0
C302 C 0.74022 0.05004 0.39879 0.0
C303 C 0.69882 0.0961 0.40139 0.0
C304 C 0.71471 0.10807 0.43053 0.0
C305 C 0.69889 0.14032 0.44373 0.0
H306 H 0.57469 0.2591 0.43351 0.0
C307 C 0.67015 0.11942 0.39355 0.0
C308 C 0.67033 0.1455 0.41809 0.0
H309 H 0.65934 0.2553 0.50428 0.0
H310 H 0.68003 0.20393 0.47717 0.0
H311 H 0.55839 0.17578 0.43121 0.0
H312 H 0.61855 0.24345 0.36875 0.0
H313 H 0.6002 0.21303 0.3414 0.0
H314 H 0.57289 0.24152 0.36507 0.0
H315 H 0.54028 0.20919 0.40563 0.0
H316 H 0.5491 0.16786 0.38788 0.0
C317 C 0.68498 0.13314 0.48 0.0
C318 C 0.72601 0.16919 0.44198 0.0
C319 C 0.59002 0.09269 0.29513 0.0
C320 C 0.56147 0.10941 0.28128 0.0
C321 C 0.55078 0.14046 0.2957 0.0
C322 C 0.56789 0.15422 0.32414 0.0
C323 C 0.59622 0.13692 0.33797 0.0
C324 C 0.60705 0.10689 0.32313 0.0
C325 C 0.63844 0.09267 0.34005 0.0
C326 C 0.64444 0.11879 0.36795 0.0
C327 C 0.61949 0.1445 0.36685 0.0
C328 C 0.62935 0.05717 0.35478 0.0
C329 C 0.66787 0.09237 0.31364 0.0
C330 C 0.59746 0.24685 0.44335 0.0
C331 C 0.61523 0.26077 0.47132 0.0
C332 C 0.64526 0.24483 0.48285 0.0
C333 C 0.65715 0.21506 0.46707 0.0
C334 C 0.63904 0.20133 0.43917 0.0
C335 C 0.60992 0.21743 0.42752 0.0
C336 C 0.59505 0.20029 0.39645 0.0
C337 C 0.61976 0.17089 0.39171 0.0
C338 C 0.64521 0.17148 0.41701 0.0
C339 C 0.55868 0.18768 0.40544 0.0
C340 C 0.59641 0.22577 0.36625 0.0
H341 H 0.70073 0.05646 0.36211 0.0
H342 H 0.7547 0.10148 0.46764 0.0
H343 H 0.74508 0.16432 0.42155 0.0
H344 H 0.71479 0.19418 0.43527 0.0
H345 H 0.7402 0.17159 0.46643 0.0
H346 H 0.67219 0.10779 0.48097 0.0
H347 H 0.70601 0.13303 0.49909 0.0
H348 H 0.66544 0.15158 0.48822 0.0
H349 H 0.59925 0.06915 0.28404 0.0
H350 H 0.52892 0.15378 0.28525 0.0
H351 H 0.55839 0.17776 0.33428 0.0
H352 H 0.60383 0.05772 0.36721 0.0
H353 H 0.62848 0.03762 0.33429 0.0
H354 H 0.64727 0.04861 0.37475 0.0
H355 H 0.66496 0.11335 0.29474 0.0
H356 H 0.69317 0.09688 0.3254 0.0
H357 H 0.66842 0.06797 0.29927 0.0
H358 H 0.74998 0.02751 0.38619 0.0
C359 C 0.71169 0.06687 0.38497 0.0
C360 C 0.47402 0.593 0.22478 0.0
C361 C 0.46361 0.56238 0.24026 0.0
C362 C 0.43612 0.54393 0.22599 0.0
C363 C 0.4297 0.58636 0.18169 0.0
C364 C 0.45692 0.60431 0.19539 0.0
C365 C 0.46519 0.63571 0.1749 0.0
H366 H 0.42919 0.7396 0.04129 0.0
C367 C 0.41738 0.60491 0.15132 0.0
C368 C 0.43823 0.63372 0.14696 0.0
H369 H 0.51058 0.74887 0.11551 0.0
H370 H 0.49189 0.69741 0.14318 0.0
H371 H 0.37026 0.71542 0.09588 0.0
H372 H 0.43788 0.66066 0.02914 0.0
H373 H 0.39897 0.63837 0.02915 0.0
H374 H 0.40031 0.68165 0.01349 0.0
H375 H 0.36607 0.71585 0.05026 0.0
H376 H 0.3465 0.68301 0.07578 0.0
C377 C 0.46006 0.66719 0.19818 0.0
C378 C 0.50186 0.63187 0.16054 0.0
C379 C 0.31287 0.56156 0.08714 0.0
C380 C 0.2958 0.57314 0.0578 0.0
C381 C 0.30821 0.60233 0.04079 0.0
C382 C 0.33693 0.61991 0.05292 0.0
C383 C 0.35362 0.60822 0.0824 0.0
C384 C 0.34178 0.5793 0.09878 0.0
C385 C 0.36344 0.57011 0.12913 0.0
C386 C 0.38982 0.5986 0.12854 0.0
C387 C 0.38377 0.62098 0.10125 0.0
C388 C 0.34063 0.5718 0.16132 0.0
C389 C 0.37973 0.53472 0.12245 0.0
C390 C 0.44277 0.73056 0.06362 0.0
C391 C 0.4715 0.7482 0.0761 0.0
C392 C 0.48869 0.73547 0.10507 0.0
C393 C 0.4777 0.70563 0.12126 0.0
C394 C 0.44915 0.68811 0.10843 0.0
C395 C 0.43223 0.70051 0.08002 0.0
C396 C 0.40282 0.67794 0.0697 0.0
C397 C 0.4049 0.65012 0.09664 0.0
C398 C 0.43199 0.65637 0.11935 0.0
C399 C 0.36954 0.69897 0.07276 0.0
C400 C 0.40999 0.66398 0.03341 0.0
H401 H 0.39832 0.54057 0.1875 0.0
H402 H 0.49524 0.60755 0.23505 0.0
H403 H 0.50805 0.60464 0.1556 0.0
H404 H 0.5052 0.64451 0.13557 0.0
H405 H 0.52121 0.6419 0.17874 0.0
H406 H 0.43714 0.66382 0.21459 0.0
H407 H 0.48244 0.67106 0.21523 0.0
H408 H 0.45534 0.6909 0.18381 0.0
H409 H 0.30411 0.53903 0.10053 0.0
H410 H 0.29525 0.61199 0.01836 0.0
H411 H 0.34489 0.64204 0.03895 0.0
H412 H 0.3233 0.59422 0.16011 0.0
H413 H 0.32447 0.54859 0.16359 0.0
H414 H 0.35531 0.5751 0.18515 0.0
H415 H 0.38324 0.53005 0.09468 0.0
H416 H 0.4057 0.53246 0.13337 0.0
H417 H 0.36344 0.51383 0.13257 0.0
H418 H 0.42735 0.52049 0.23773 0.0
C419 C 0.41913 0.55573 0.19691 0.0
C420 C 0.09244 0.29183 0.60579 0.0
C421 C 0.11017 0.27644 0.57882 0.0
C422 C 0.13602 0.29478 0.56196 0.0
C423 C 0.12826 0.34215 0.60116 0.0
C424 C 0.10166 0.32462 0.61632 0.0
C425 C 0.08556 0.34432 0.64495 0.0
H426 H 0.0848 0.48407 0.74579 0.0
C427 C 0.13293 0.37456 0.62 0.0
C428 C 0.10769 0.37608 0.64539 0.0
H429 H 0.01496 0.39866 0.74835 0.0
H430 H 0.04485 0.37248 0.70107 0.0
H431 H 0.0908 0.49111 0.66155 0.0
H432 H 0.14903 0.44153 0.74017 0.0
H433 H 0.17866 0.45242 0.7085 0.0
H434 H 0.15543 0.48569 0.73023 0.0
H435 H 0.1143 0.51313 0.69426 0.0
H436 H 0.1345 0.50018 0.65519 0.0
C437 C 0.04815 0.35234 0.63478 0.0
C438 C 0.08937 0.3233 0.67822 0.0
C439 C 0.23494 0.45078 0.5945 0.0
C440 C 0.24833 0.47988 0.6107 0.0
C441 C 0.23052 0.49438 0.63822 0.0
C442 C 0.19966 0.48004 0.64944 0.0
C443 C 0.18686 0.45052 0.63339 0.0
C444 C 0.20452 0.43634 0.60645 0.0
C445 C 0.18832 0.40379 0.5939 0.0
C446 C 0.158 0.40075 0.61777 0.0
C447 C 0.15713 0.42835 0.64059 0.0
C448 C 0.17696 0.40908 0.55642 0.0
C449 C 0.21433 0.37452 0.59911 0.0
C450 C 0.07555 0.46003 0.7357 0.0
C451 C 0.04718 0.44361 0.75028 0.0
C452 C 0.03665 0.4118 0.7373 0.0
C453 C 0.05402 0.39675 0.70986 0.0
C454 C 0.0825 0.41349 0.69564 0.0
C455 C 0.09283 0.44456 0.70871 0.0
C456 C 0.12456 0.45796 0.69178 0.0
C457 C 0.13094 0.43039 0.66547 0.0
C458 C 0.10633 0.40442 0.66784 0.0
C459 C 0.11589 0.49254 0.67487 0.0
C460 C 0.15349 0.45979 0.71891 0.0
H461 H 0.16562 0.3402 0.55974 0.0
H462 H 0.07214 0.27828 0.61882 0.0
H463 H 0.11449 0.31011 0.67898 0.0
H464 H 0.08889 0.33917 0.70146 0.0
H465 H 0.0691 0.30353 0.68012 0.0
H466 H 0.04584 0.35659 0.6068 0.0
H467 H 0.03082 0.33096 0.64161 0.0
H468 H 0.03856 0.3761 0.64642 0.0
H469 H 0.24854 0.43879 0.57368 0.0
H470 H 0.24054 0.51678 0.65099 0.0
H471 H 0.18718 0.49226 0.67046 0.0
H472 H 0.16797 0.43565 0.55222 0.0
H473 H 0.1984 0.40437 0.53853 0.0
H474 H 0.15504 0.3928 0.54919 0.0
H475 H 0.22817 0.3776 0.62375 0.0
H476 H 0.2023 0.34914 0.60057 0.0
H477 H 0.23365 0.37431 0.5784 0.0
H478 H 0.1498 0.28324 0.54101 0.0
C479 C 0.14523 0.32764 0.57304 0.0
Zn480 Zn 0.97829 0.05764 0.55144 0.0
Zn481 Zn 0.06093 0.98363 0.48214 0.0
Zn482 Zn 0.0191 0.0191 0.51674 0.0
C483 C 0.07749 0.04966 0.46653 0.0
C484 C 0.99708 0.96399 0.4589 0.0
O485 O 0.01985 0.00081 0.57077 0.0
O486 O 0.98388 0.03613 0.59609 0.0
C487 C 0.02632 0.10169 0.52708 0.0
O488 O 0.05572 0.05427 0.49076 0.0
O489 O 0.08369 0.01996 0.45596 0.0
O490 O 0.02802 0.95531 0.45712 0.0
O491 O 0.98836 0.98886 0.47866 0.0
O492 O 1.00005 0.10231 0.54553 0.0
O493 O 0.0368 0.07339 0.51394 0.0
O494 O 0.96713 0.01388 0.49362 0.0
O495 O 0.93622 0.04819 0.52604 0.0
C496 C 0.93836 0.02805 0.50108 0.0
O497 O 0.04646 0.98439 0.55315 0.0
O498 O 0.0858 0.96177 0.51985 0.0
C499 C 0.00387 0.01104 0.59765 0.0
C500 C 0.07287 0.96513 0.5491 0.0
Zn501 Zn 0.47677 0.04937 0.97401 0.0
Zn502 Zn 0.55659 0.9895 0.06051 0.0
Zn503 Zn 0.5179 0.02085 0.01874 0.0
C504 C 0.60048 0.01735 0.01377 0.0
C505 C 0.5168 0.93883 0.03446 0.0
O506 O 0.487 0.05956 0.0471 0.0
O507 O 0.45369 0.07999 0.00633 0.0
C508 C 0.54336 0.06538 0.95366 0.0
O509 O 0.57162 0.02632 1.00061 0.0
O510 O 0.60128 0.00217 0.04208 0.0
O511 O 0.54247 0.94207 0.05364 0.0
O512 O 0.50375 0.9653 0.01986 0.0
O513 O 0.51267 0.06967 0.94467 0.0
O514 O 0.55031 0.0472 0.98022 0.0
O515 O 0.4849 0.98122 0.99419 0.0
O516 O 0.45149 0.00873 0.95788 0.0
C517 C 0.46111 0.98116 0.97132 0.0
O518 O 0.51146 0.04521 0.07011 0.0
O519 O 0.54274 0.01159 0.10291 0.0
C520 C 0.46293 0.07979 0.03719 0.0
C521 C 0.52346 0.03707 0.09973 0.0
Zn522 Zn 0.54057 0.54525 0.55275 0.0
Zn523 Zn 0.46703 0.46717 0.47473 0.0
Zn524 Zn 0.50365 0.50591 0.51185 0.0
C525 C 0.50732 0.42297 0.51003 0.0
C526 C 0.50011 0.5089 0.42937 0.0
O527 O 0.46915 0.53455 0.54658 0.0
O528 O 0.50298 0.56363 0.58143 0.0
C529 C 0.56367 0.47889 0.56272 0.0
O530 O 0.52015 0.45186 0.51934 0.0
O531 O 0.481 0.42217 0.49148 0.0
O532 O 0.4832 0.48151 0.42955 0.0
O533 O 0.50982 0.52253 0.45777 0.0
O534 O 0.57017 0.50912 0.5717 0.0
O535 O 0.53942 0.47269 0.54121 0.0
O536 O 0.53385 0.54066 0.4786 0.0
O537 O 0.56067 0.5735 0.51592 0.0
C538 C 0.55485 0.56519 0.48531 0.0
O539 O 0.44892 0.51284 0.5265 0.0
O540 O 0.42132 0.48302 0.48733 0.0
C541 C 0.47331 0.55517 0.57193 0.0
C542 C 0.4207 0.50252 0.51286 0.0
Zn543 Zn 0.05693 0.56011 0.97153 0.0
Zn544 Zn 0.99179 0.48821 0.06057 0.0
Zn545 Zn 0.02224 0.52631 0.01511 0.0
C546 C 0.05964 0.47499 0.07001 0.0
C547 C 0.96426 0.46983 0.99683 0.0
O548 O 0.00709 0.58087 0.02051 0.0
O549 O 0.04222 0.60599 0.98405 0.0
C550 C 0.1059 0.53113 0.0109 0.0
O551 O 0.06063 0.49799 0.04647 0.0
O552 O 0.03133 0.46454 0.08127 0.0
O553 O 0.96103 0.46376 0.02832 0.0
O554 O 0.98719 0.49125 0.98666 0.0
O555 O 0.10388 0.54798 0.98362 0.0
O556 O 0.07835 0.52122 0.02611 0.0
O557 O 0.01065 0.50577 0.96314 0.0
O558 O 0.03899 0.54082 0.92919 0.0
C559 C 0.01981 0.51526 0.93296 0.0
O560 O 0.99048 0.56171 0.04679 0.0
O561 O 0.97219 0.52634 0.08671 0.0
C562 C 0.01887 0.60798 0.006 0.0
C563 C 0.97401 0.55618 0.07479 0.0
H564 H 0.15051 0.18059 0.4059 0.0
H565 H 0.13712 0.12207 0.31372 0.0
H566 H 0.10752 0.0774 0.34549 0.0
H567 H 0.08745 0.05403 0.39932 0.0
H568 H 0.10387 0.10912 0.4929 0.0
H569 H 0.12977 0.15648 0.46102 0.0
C570 C 0.14073 0.15814 0.39297 0.0
C571 C 0.14578 0.15437 0.35767 0.0
C572 C 0.12432 0.13215 0.41161 0.0
C573 C 0.13344 0.12522 0.34093 0.0
C574 C 0.11661 0.09975 0.35905 0.0
C575 C 0.09669 0.07645 0.41274 0.0
C576 C 0.09305 0.07864 0.44826 0.0
C577 C 0.1123 0.10276 0.39437 0.0
C578 C 0.10521 0.10763 0.46541 0.0
C579 C 0.12045 0.1344 0.4472 0.0
H580 H 0.42536 0.85368 0.88245 0.0
H581 H 0.32361 0.894 0.89616 0.0
H582 H 0.34573 0.93672 0.93529 0.0
H583 H 0.3947 0.9668 0.96056 0.0
H584 H 0.49561 0.92446 0.95115 0.0
H585 H 0.47284 0.87745 0.91656 0.0
C586 C 0.40775 0.87113 0.89456 0.0
C587 C 0.37292 0.87115 0.88509 0.0
C588 C 0.42048 0.8953 0.91797 0.0
C589 C 0.35076 0.89415 0.90149 0.0
C590 C 0.3633 0.91849 0.92427 0.0
C591 C 0.4115 0.94678 0.95156 0.0
C592 C 0.4467 0.94906 0.95801 0.0
C593 C 0.39823 0.91999 0.93181 0.0
C594 C 0.46835 0.92303 0.94652 0.0
C595 C 0.45537 0.89637 0.92651 0.0
H596 H 0.6226 0.37006 0.6632 0.0
H597 H 0.71508 0.42696 0.64283 0.0
H598 H 0.68519 0.46035 0.59993 0.0
H599 H 0.63151 0.47761 0.5727 0.0
H600 H 0.53978 0.41936 0.59008 0.0
H601 H 0.57113 0.38117 0.62857 0.0
C602 C 0.63663 0.38909 0.64887 0.0
C603 C 0.67101 0.39646 0.65722 0.0
C604 C 0.61943 0.40789 0.62354 0.0
C605 C 0.68837 0.42145 0.63812 0.0
C606 C 0.67138 0.44042 0.61325 0.0
C607 C 0.61862 0.45605 0.58437 0.0
C608 C 0.58345 0.45132 0.57891 0.0
C609 C 0.63671 0.43455 0.60651 0.0
C610 C 0.56693 0.42329 0.59384 0.0
C611 C 0.58478 0.40173 0.61609 0.0
H612 H 0.89446 0.68124 0.13972 0.0
H613 H 0.89826 0.61434 0.22699 0.0
H614 H 0.93126 0.57297 0.19451 0.0
H615 H 0.95769 0.55506 0.14149 0.0
H616 H 0.95081 0.6184 0.05227 0.0
H617 H 0.92122 0.66243 0.08525 0.0
C618 C 0.90272 0.65765 0.15152 0.0
C619 C 0.89377 0.6507 0.18562 0.0
C620 C 0.92138 0.63359 0.13244 0.0
C621 C 0.90445 0.62001 0.20066 0.0
C622 C 0.92344 0.59643 0.18217 0.0
C623 C 0.94984 0.57852 0.12914 0.0
C624 C 0.95723 0.58385 0.09442 0.0
C625 C 0.93178 0.60282 0.14803 0.0
C626 C 0.9467 0.61436 0.07906 0.0
C627 C 0.92925 0.63922 0.09791 0.0
H628 H 0.36694 0.18284 0.11331 0.0
H629 H 0.40528 0.12876 0.20151 0.0
H630 H 0.44122 0.09403 0.16481 0.0
H631 H 0.45727 0.07534 0.10678 0.0
H632 H 0.42594 0.13577 0.02045 0.0
H633 H 0.39127 0.17135 0.05741 0.0
C634 C 0.38377 0.16428 0.12495 0.0
C635 C 0.38235 0.15812 0.16032 0.0
C636 C 0.40535 0.14506 0.10389 0.0
C637 C 0.40449 0.13341 0.17431 0.0
C638 C 0.42538 0.11358 0.15335 0.0
C639 C 0.4444 0.09728 0.09632 0.0
C640 C 0.44498 0.10307 0.06098 0.0
C641 C 0.42541 0.11864 0.11797 0.0
C642 C 0.42606 0.1305 0.04758 0.0
C643 C 0.40623 0.15103 0.06871 0.0
H644 H 0.14302 0.90595 0.68206 0.0
H645 H 0.18742 0.83986 0.60574 0.0
H646 H 0.15176 0.86533 0.56233 0.0
H647 H 0.11113 0.90851 0.5446 0.0
H648 H 0.07324 0.98114 0.6176 0.0
H649 H 0.10299 0.95104 0.66359 0.0
C650 C 0.1452 0.89718 0.65595 0.0
C651 C 0.16794 0.87048 0.64773 0.0
C652 C 0.12561 0.91314 0.63036 0.0
C653 C 0.16967 0.85943 0.61356 0.0
C654 C 0.14951 0.87435 0.58837 0.0
C655 C 0.10916 0.91775 0.57061 0.0
C656 C 0.08901 0.94649 0.57781 0.0
C657 C 0.1278 0.90146 0.59638 0.0
C658 C 0.0871 0.95818 0.6116 0.0
C659 C 0.10473 0.9413 0.63778 0.0
H660 H 0.87049 0.4096 0.87905 0.0
H661 H 0.83356 0.35008 0.96438 0.0
H662 H 0.87497 0.37704 0.00149 0.0
H663 H 0.92138 0.41737 0.01059 0.0
H664 H 0.95088 0.48524 0.92944 0.0
H665 H 0.9129 0.45518 0.88998 0.0
C666 C 0.87098 0.40272 0.9058 0.0
C667 C 0.84918 0.37677 0.91823 0.0
C668 C 0.894 0.41961 0.92784 0.0
C669 C 0.85072 0.36864 0.95325 0.0
C670 C 0.87423 0.38442 0.97485 0.0
C671 C 0.91971 0.42565 0.98424 0.0
C672 C 0.94065 0.45243 0.97255 0.0
C673 C 0.89611 0.40974 0.96241 0.0
C674 C 0.93707 0.46327 0.93857 0.0
C675 C 0.91465 0.44652 0.91618 0.0
H676 H 0.64201 0.61786 0.36024 0.0
H677 H 0.67401 0.69026 0.43749 0.0
H678 H 0.63248 0.66714 0.47657 0.0
H679 H 0.58996 0.6243 0.49104 0.0
H680 H 0.56683 0.54411 0.41945 0.0
H681 H 0.60182 0.57221 0.37622 0.0
C682 C 0.64043 0.6285 0.38568 0.0
C683 C 0.66129 0.65644 0.39513 0.0
C684 C 0.61772 0.61367 0.40925 0.0
C685 C 0.65786 0.66978 0.42838 0.0
C686 C 0.63428 0.65619 0.45124 0.0
C687 C 0.59227 0.61301 0.46589 0.0
C688 C 0.5744 0.58282 0.45806 0.0
C689 C 0.61441 0.62795 0.44211 0.0
C690 C 0.57848 0.56831 0.42556 0.0
C691 C 0.59919 0.58404 0.40106 0.0
H692 H 0.18481 0.38242 0.10701 0.0
H693 H 0.15112 0.40778 0.20879 0.0
H694 H 0.10869 0.44646 0.1854 0.0
H695 H 0.0768 0.46824 0.13606 0.0
H696 H 0.11246 0.44713 0.03444 0.0
H697 H 0.15916 0.41243 0.05774 0.0
C698 C 0.16886 0.397 0.1242 0.0
C699 C 0.17057 0.3911 0.15969 0.0
C700 C 0.14473 0.41991 0.11058 0.0
C701 C 0.1496 0.41057 0.18135 0.0
C702 C 0.1254 0.43298 0.16803 0.0
C703 C 0.09523 0.45649 0.11913 0.0
C704 C 0.09116 0.45972 0.08371 0.0
C705 C 0.12198 0.43695 0.1327 0.0
C706 C 0.11523 0.44483 0.06185 0.0
C707 C 0.14175 0.42489 0.07518 0.0
H708 H 0.66829 0.14641 0.89186 0.0
H709 H 0.59235 0.16576 0.81368 0.0
H710 H 0.55342 0.12691 0.84137 0.0
H711 H 0.53824 0.09134 0.88998 0.0
H712 H 0.60848 0.08189 0.97422 0.0
H713 H 0.65192 0.11311 0.94224 0.0
C714 C 0.64317 0.14276 0.88085 0.0
C715 C 0.63398 0.15943 0.8502 0.0
C716 C 0.61959 0.12192 0.89817 0.0
C717 C 0.60125 0.15297 0.83644 0.0
C718 C 0.57843 0.13097 0.85261 0.0
C719 C 0.56314 0.09585 0.90133 0.0
C720 C 0.57055 0.08294 0.934 0.0
C721 C 0.58707 0.11584 0.88376 0.0
C722 C 0.60272 0.08974 0.94845 0.0
C723 C 0.62735 0.10826 0.93037 0.0
H724 H 0.91557 0.86538 0.36217 0.0
H725 H 0.8291 0.91203 0.41225 0.0
H726 H 0.86785 0.94699 0.4462 0.0
H727 H 0.92698 0.96115 0.46441 0.0
H728 H 0.01142 0.92161 0.40626 0.0
H729 H 0.97253 0.88669 0.37297 0.0
C730 C 0.90463 0.88385 0.37949 0.0
C731 C 0.86902 0.88523 0.38456 0.0
C732 C 0.92687 0.90499 0.39797 0.0
C733 C 0.85626 0.90917 0.40821 0.0
C734 C 0.87845 0.92953 0.4276 0.0
C735 C 0.93668 0.94633 0.44342 0.0
C736 C 0.97207 0.9449 0.4376 0.0
C737 C 0.9139 0.92725 0.42306 0.0
C738 C 0.98434 0.92345 0.41155 0.0
C739 C 0.96209 0.90345 0.39229 0.0
H740 H 0.35187 0.64716 0.61963 0.0
H741 H 0.39619 0.62514 0.71833 0.0
H742 H 0.43746 0.58743 0.69155 0.0
H743 H 0.464 0.5642 0.6396 0.0
H744 H 0.41717 0.58267 0.54179 0.0
H745 H 0.37284 0.61716 0.56903 0.0
C746 C 0.36979 0.63351 0.63565 0.0
C747 C 0.37109 0.63993 0.67109 0.0
C748 C 0.39302 0.61105 0.62021 0.0
C749 C 0.39509 0.62194 0.69093 0.0
C750 C 0.41862 0.6 0.67567 0.0
C751 C 0.44373 0.5754 0.62441 0.0
C752 C 0.44378 0.57113 0.58882 0.0
C753 C 0.41836 0.59505 0.64026 0.0
C754 C 0.41742 0.5855 0.56929 0.0
C755 C 0.39227 0.60539 0.58483 0.0
H756 H 0.97653 0.92747 0.73033 0.0
H757 H 0.9907 0.02762 0.77371 0.0
H758 H 0.01076 0.04913 0.71894 0.0
H759 H 0.01491 0.04181 0.65732 0.0
H760 H 0.99959 0.94284 0.61226 0.0
H761 H 0.99021 0.9181 0.66914 0.0
C762 C 0.98492 0.95373 0.7279 0.0
C763 C 0.9815 0.97616 0.75574 0.0
C764 C 0.9959 0.96612 0.69603 0.0
C765 C 0.99247 0.01012 0.75239 0.0
C766 C 0.00394 0.02242 0.72113 0.0
C767 C 0.01037 0.01464 0.66013 0.0
C768 C 0.00749 0.99414 0.63095 0.0
C769 C 0.00431 0.00103 0.69254 0.0
C770 C 0.00188 0.95899 0.63458 0.0
C771 C 0.99624 0.94499 0.66701 0.0
H772 H 0.54665 0.13902 0.21998 0.0
H773 H 0.53675 0.04515 0.27639 0.0
H774 H 0.51714 0.01573 0.22509 0.0
H775 H 0.51205 0.01455 0.16311 0.0
H776 H 0.52552 0.10673 0.10497 0.0
H777 H 0.53339 0.13933 0.15793 0.0
C778 C 0.53934 0.11236 0.22107 0.0
C779 C 0.54356 0.09406 0.25169 0.0
C780 C 0.5289 0.09534 0.19113 0.0
C781 C 0.53414 0.05953 0.25292 0.0
C782 C 0.52294 0.04273 0.22364 0.0
C783 C 0.51581 0.04196 0.16214 0.0
C784 C 0.51839 0.05828 0.13038 0.0
C785 C 0.5216 0.06004 0.19241 0.0
C786 C 0.52325 0.09373 0.12925 0.0
C787 C 0.52812 0.11224 0.15949 0.0
H788 H 0.4781 0.59755 0.29857 0.0
H789 H 0.48642 0.49819 0.2522 0.0
H790 H 0.50447 0.47385 0.30658 0.0
H791 H 0.50954 0.47917 0.36841 0.0
H792 H 0.49853 0.57743 0.41623 0.0
H793 H 0.49099 0.60416 0.36016 0.0
C794 C 0.48469 0.57077 0.30029 0.0
C795 C 0.4804 0.54953 0.27164 0.0
C796 C 0.49443 0.55678 0.33191 0.0
C797 C 0.48894 0.51485 0.27412 0.0
C798 C 0.4993 0.50095 0.30515 0.0
C799 C 0.50626 0.50657 0.36646 0.0
C800 C 0.50437 0.52632 0.39627 0.0
C801 C 0.50084 0.5214 0.33442 0.0
C802 C 0.50025 0.56177 0.39354 0.0
C803 C 0.4956 0.57696 0.36152 0.0
H804 H 0.03244 0.41401 0.81134 0.0
H805 H 0.02462 0.50866 0.7559 0.0
H806 H 0.00844 0.53841 0.80808 0.0
H807 H 0.00657 0.53924 0.87029 0.0
H808 H 0.0175 0.4458 0.92697 0.0
H809 H 0.02128 0.41351 0.87352 0.0
C810 C 0.0262 0.44093 0.81062 0.0
C811 C 0.03021 0.45932 0.78006 0.0
C812 C 0.01774 0.45805 0.84096 0.0
C813 C 0.0222 0.49419 0.77933 0.0
C814 C 0.01298 0.51118 0.80911 0.0
C815 C 0.00888 0.51168 0.87086 0.0
C816 C 0.01214 0.49487 0.9023 0.0
C817 C 0.0122 0.49366 0.84024 0.0
C818 C 0.01489 0.4592 0.90294 0.0
C819 C 0.0174 0.44084 0.87241 0.0
H820 H 0.72903 0.98809 0.92476 0.0
H821 H 0.77741 0.00469 0.02226 0.0
H822 H 0.72387 0.02625 0.04563 0.0
H823 H 0.6619 0.03075 0.04104 0.0
H824 H 0.61178 0.01002 0.94528 0.0
H825 H 0.66733 0.00068 0.91806 0.0
C826 C 0.7279 0.9974 0.95079 0.0
C827 C 0.75679 0.99461 0.97198 0.0
C828 C 0.69668 0.0087 0.96435 0.0
C829 C 0.75526 0.00643 0.00573 0.0
C830 C 0.72469 0.01863 0.01907 0.0
C831 C 0.66326 0.02501 0.01399 0.0
C832 C 0.63299 0.02081 0.99518 0.0
C833 C 0.69499 0.01843 0.99905 0.0
C834 C 0.63487 0.01352 0.96017 0.0
C835 C 0.66658 0.00785 0.94474 0.0
H836 H 0.8167 0.04719 0.39924 0.0
H837 H 0.76101 0.03869 0.49364 0.0
H838 H 0.81293 0.0212 0.52337 0.0
H839 H 0.8751 0.01766 0.52438 0.0
H840 H 0.93241 0.02918 0.43145 0.0
H841 H 0.87903 0.03531 0.39894 0.0
C842 C 0.81592 0.04057 0.42609 0.0
C843 C 0.78534 0.04456 0.44445 0.0
C844 C 0.84618 0.03142 0.44325 0.0
C845 C 0.78446 0.03612 0.47923 0.0
C846 C 0.81409 0.0262 0.4962 0.0
C847 C 0.87578 0.02072 0.49686 0.0
C848 C 0.90737 0.02323 0.48024 0.0
C849 C 0.84527 0.0252 0.47878 0.0
C850 C 0.90822 0.0271 0.44465 0.0
C851 C 0.87775 0.03087 0.42619 0.0
H852 H 0.24023 0.55293 0.0945 0.0
H853 H 0.28138 0.55473 0.99251 0.0
H854 H 0.22671 0.53529 0.96958 0.0
H855 H 0.1656 0.52625 0.9776 0.0
H856 H 0.12275 0.52792 0.07877 0.0
H857 H 0.17986 0.53604 0.10317 0.0
C858 C 0.23738 0.54826 0.06737 0.0
C859 C 0.26455 0.55582 0.04511 0.0
C860 C 0.20557 0.5377 0.05427 0.0
C861 C 0.26058 0.54974 0.01002 0.0
C862 C 0.22939 0.53854 0.99692 0.0
C863 C 0.16887 0.52763 0.00507 0.0
C864 C 0.14006 0.52672 0.02635 0.0
C865 C 0.20142 0.53374 0.01866 0.0
C866 C 0.14459 0.52822 0.06187 0.0
C867 C 0.1772 0.53335 0.07577 0.0
H868 H 0.26581 0.4997 0.54729 0.0
H869 H 0.30537 0.49046 0.64946 0.0
H870 H 0.36323 0.50281 0.62886 0.0
H871 H 0.40325 0.5065 0.58009 0.0
H872 H 0.36262 0.51496 0.4781 0.0
H873 H 0.30452 0.51312 0.50023 0.0
C874 C 0.28708 0.50105 0.56505 0.0
C875 C 0.28167 0.49372 0.59961 0.0
C876 C 0.32009 0.50775 0.55298 0.0
C877 C 0.30914 0.49594 0.62264 0.0
C878 C 0.34219 0.50279 0.61085 0.0
C879 C 0.38164 0.50918 0.56295 0.0
C880 C 0.38708 0.51064 0.52755 0.0
C881 C 0.34814 0.50742 0.57584 0.0
C882 C 0.35893 0.5136 0.50546 0.0
C883 C 0.32572 0.51238 0.51805 0.0
H884 H 0.99642 0.76384 0.99458 0.0
H885 H 0.90197 0.72965 0.94946 0.0
H886 H 0.91421 0.67092 0.96694 0.0
H887 H 0.95611 0.6287 0.9874 0.0
H888 H 0.05037 0.66304 0.0327 0.0
H889 H 0.0338 0.72247 0.02363 0.0
C890 C 0.97834 0.74351 0.98926 0.0
C891 C 0.94864 0.75059 0.97053 0.0
C892 C 0.98552 0.70999 0.99951 0.0
C893 C 0.92506 0.72443 0.96382 0.0
C894 C 0.93209 0.69096 0.97373 0.0
C895 C 0.9722 0.64932 0.99661 0.0
C896 C 0.00399 0.6418 0.01136 0.0
C897 C 0.96275 0.68331 0.99064 0.0
C898 C 0.0254 0.66849 0.02207 0.0
C899 C 0.01612 0.70237 0.01649 0.0
H900 H 0.43418 0.80351 0.0557 0.0
H901 H 0.53687 0.76391 0.05942 0.0
H902 H 0.55945 0.81894 0.04129 0.0
H903 H 0.55081 0.87975 0.03229 0.0
H904 H 0.449 0.92114 0.03022 0.0
H905 H 0.42506 0.86382 0.03856 0.0
C906 C 0.4614 0.80681 0.05177 0.0
C907 C 0.48392 0.77992 0.05958 0.0
C908 C 0.47431 0.83882 0.04173 0.0
C909 C 0.51913 0.78447 0.05434 0.0
C910 C 0.53205 0.81587 0.04387 0.0
C911 C 0.52332 0.8761 0.03298 0.0
C912 C 0.50166 0.9045 0.03099 0.0
C913 C 0.51001 0.84347 0.03874 0.0
C914 C 0.46614 0.89955 0.03153 0.0
C915 C 0.45252 0.86684 0.03669 0.0
H916 H 0.08476 0.25064 0.51928 0.0
H917 H 0.11867 0.22232 0.62002 0.0
H918 H 0.10001 0.16364 0.61038 0.0
H919 H 0.06804 0.12236 0.57623 0.0
H920 H 0.02966 0.15043 0.47725 0.0
H921 H 0.0564 0.20705 0.48265 0.0
C922 C 0.08855 0.23132 0.5387 0.0
C923 C 0.10285 0.24051 0.57034 0.0
C924 C 0.07683 0.19776 0.53327 0.0
C925 C 0.10751 0.21561 0.59559 0.0
C926 C 0.09684 0.18216 0.5901 0.0
C927 C 0.06634 0.14072 0.55556 0.0
C928 C 0.04747 0.13254 0.52629 0.0
C929 C 0.08064 0.17322 0.55948 0.0
C930 C 0.04455 0.15638 0.49981 0.0
C931 C 0.0596 0.18869 0.50306 0.0
H932 H 0.55221 0.2722 0.49635 0.0
H933 H 0.65037 0.31997 0.48235 0.0
H934 H 0.62674 0.37496 0.50029 0.0
H935 H 0.57573 0.41066 0.51051 0.0
H936 H 0.47754 0.36213 0.52262 0.0
H937 H 0.50363 0.30618 0.5158 0.0
C938 C 0.56847 0.29461 0.49779 0.0
C939 C 0.60269 0.29238 0.48753 0.0
C940 C 0.55466 0.32598 0.50776 0.0
C941 C 0.62383 0.32128 0.49 0.0
C942 C 0.6103 0.35269 0.50012 0.0
C943 C 0.56036 0.38774 0.51291 0.0
C944 C 0.52478 0.3904 0.51674 0.0
C945 C 0.57542 0.35559 0.50783 0.0
C946 C 0.50499 0.36059 0.51946 0.0
C947 C 0.51983 0.32863 0.5153 0.0
loop_
_geom_bond_atom_site_label_1
_geom_bond_atom_site_label_2
_geom_bond_distance
_geom_bond_site_symmetry_2
_ccdc_geom_bond_type
C0 C1 1.391 . S
C0 C4 1.391 . S
C0 H42 0.948 . S
C1 C0 1.391 . S
C1 C2 1.391 . S
C2 C1 1.391 . S
C2 H58 0.947 . S
C2 C59 1.392 . S
C3 C4 1.391 . S
C3 C7 1.397 . S
C3 C59 1.419 . S
C4 C0 1.391 . S
C4 C3 1.391 . S
C4 C5 1.399 . S
C5 C4 1.399 . S
C5 C8 1.396 . S
C5 C17 1.453 . S
C5 C18 1.684 . S
H6 C30 0.948 . S
C7 C3 1.397 . S
C7 C8 1.394 . S
C7 C26 1.723 . S
C8 C5 1.396 . S
C8 C7 1.394 . S
C8 C38 1.723 . S
H9 C32 0.947 . S
H10 C33 0.948 . S
H11 C39 0.982 . S
H12 C40 0.979 . S
H13 C40 0.980 . S
H14 C40 0.983 . S
H15 C39 0.979 . S
H16 C39 0.977 . S
C17 C5 1.453 . S
C17 H46 0.982 . S
C17 H47 0.979 . S
C17 H48 0.977 . S
C18 C5 1.684 . S
C18 H43 0.979 . S
C18 H44 0.980 . S
C18 H45 0.983 . S
C19 C20 1.391 . S
C19 C24 1.391 . S
C19 H49 0.948 . S
C20 C19 1.391 . S
C20 C21 1.391 . S
C21 C20 1.391 . S
C21 C22 1.392 . S
C21 H50 0.947 . S
C22 C21 1.392 . S
C22 C23 1.419 . S
C22 H51 0.948 . S
C23 C22 1.419 . S
C23 C24 1.391 . S
C23 C27 1.397 . S
C24 C19 1.391 . S
C24 C23 1.391 . S
C24 C25 1.399 . S
C25 C24 1.399 . S
C25 C26 1.396 . S
C25 C28 1.453 . S
C25 C29 1.684 . S
C26 C7 1.723 . S
C26 C25 1.396 . S
C26 C27 1.394 . S
C27 C23 1.397 . S
C27 C26 1.394 . S
C27 C37 1.723 . S
C28 C25 1.453 . S
C28 H52 0.982 . S
C28 H53 0.979 . S
C28 H54 0.977 . S
C29 C25 1.684 . S
C29 H55 0.979 . S
C29 H56 0.980 . S
C29 H57 0.983 . S
C30 H6 0.948 . S
C30 C31 1.391 . S
C30 C35 1.391 . S
C31 C30 1.391 . S
C31 C32 1.391 . S
C32 H9 0.947 . S
C32 C31 1.391 . S
C32 C33 1.392 . S
C33 H10 0.948 . S
C33 C32 1.392 . S
C33 C34 1.419 . S
C34 C33 1.419 . S
C34 C35 1.391 . S
C34 C38 1.397 . S
C35 C30 1.391 . S
C35 C34 1.391 . S
C35 C36 1.399 . S
C36 C35 1.399 . S
C36 C37 1.396 . S
C36 C39 1.453 . S
C36 C40 1.684 . S
C37 C27 1.723 . S
C37 C36 1.396 . S
C37 C38 1.394 . S
C38 C8 1.723 . S
C38 C34 1.397 . S
C38 C37 1.394 . S
C39 H11 0.982 . S
C39 H15 0.979 . S
C39 H16 0.977 . S
C39 C36 1.453 . S
C40 H12 0.979 . S
C40 H13 0.980 . S
C40 H14 0.983 . S
C40 C36 1.684 . S
H41 C59 0.948 . S
H42 C0 0.948 . S
H43 C18 0.979 . S
H44 C18 0.980 . S
H45 C18 0.983 . S
H46 C17 0.982 . S
H47 C17 0.979 . S
H48 C17 0.977 . S
H49 C19 0.948 . S
H50 C21 0.947 . S
H51 C22 0.948 . S
H52 C28 0.982 . S
H53 C28 0.979 . S
H54 C28 0.977 . S
H55 C29 0.979 . S
H56 C29 0.980 . S
H57 C29 0.983 . S
H58 C2 0.947 . S
C59 C2 1.392 . S
C59 C3 1.419 . S
C59 H41 0.948 . S
C60 C61 1.391 . S
C60 C64 1.391 . S
C60 H102 0.948 . S
C61 C60 1.391 . S
C61 C62 1.391 . S
C62 C61 1.391 . S
C62 H118 0.947 . S
C62 C119 1.392 . S
C63 C64 1.391 . S
C63 C67 1.397 . S
C63 C119 1.419 . S
C64 C60 1.391 . S
C64 C63 1.391 . S
C64 C65 1.399 . S
C65 C64 1.399 . S
C65 C68 1.396 . S
C65 C77 1.453 . S
C65 C78 1.684 . S
H66 C90 0.948 . S
C67 C63 1.397 . S
C67 C68 1.394 . S
C67 C86 1.723 . S
C68 C65 1.396 . S
C68 C67 1.394 . S
C68 C98 1.723 . S
H69 C92 0.947 . S
H70 C93 0.948 . S
H71 C99 0.982 . S
H72 C100 0.979 . S
H73 C100 0.980 . S
H74 C100 0.983 . S
H75 C99 0.979 . S
H76 C99 0.977 . S
C77 C65 1.453 . S
C77 H106 0.982 . S
C77 H107 0.979 . S
C77 H108 0.977 . S
C78 C65 1.684 . S
C78 H103 0.979 . S
C78 H104 0.980 . S
C78 H105 0.983 . S
C79 C80 1.391 . S
C79 C84 1.391 . S
C79 H109 0.948 . S
C80 C79 1.391 . S
C80 C81 1.391 . S
C81 C80 1.391 . S
C81 C82 1.392 . S
C81 H110 0.947 . S
C82 C81 1.392 . S
C82 C83 1.419 . S
C82 H111 0.948 . S
C83 C82 1.419 . S
C83 C84 1.391 . S
C83 C87 1.397 . S
C84 C79 1.391 . S
C84 C83 1.391 . S
C84 C85 1.399 . S
C85 C84 1.399 . S
C85 C86 1.396 . S
C85 C88 1.453 . S
C85 C89 1.684 . S
C86 C67 1.723 . S
C86 C85 1.396 . S
C86 C87 1.394 . S
C87 C83 1.397 . S
C87 C86 1.394 . S
C87 C97 1.723 . S
C88 C85 1.453 . S
C88 H112 0.982 . S
C88 H113 0.979 . S
C88 H114 0.977 . S
C89 C85 1.684 . S
C89 H115 0.979 . S
C89 H116 0.980 . S
C89 H117 0.983 . S
C90 H66 0.948 . S
C90 C91 1.391 . S
C90 C95 1.391 . S
C91 C90 1.391 . S
C91 C92 1.391 . S
C92 H69 0.947 . S
C92 C91 1.391 . S
C92 C93 1.392 . S
C93 H70 0.948 . S
C93 C92 1.392 . S
C93 C94 1.419 . S
C94 C93 1.419 . S
C94 C95 1.391 . S
C94 C98 1.397 . S
C95 C90 1.391 . S
C95 C94 1.391 . S
C95 C96 1.399 . S
C96 C95 1.399 . S
C96 C97 1.396 . S
C96 C99 1.453 . S
C96 C100 1.684 . S
C97 C87 1.723 . S
C97 C96 1.396 . S
C97 C98 1.394 . S
C98 C68 1.723 . S
C98 C94 1.397 . S
C98 C97 1.394 . S
C99 H71 0.982 . S
C99 H75 0.979 . S
C99 H76 0.977 . S
C99 C96 1.453 . S
C100 H72 0.979 . S
C100 H73 0.980 . S
C100 H74 0.983 . S
C100 C96 1.684 . S
H101 C119 0.948 . S
H102 C60 0.948 . S
H103 C78 0.979 . S
H104 C78 0.980 . S
H105 C78 0.983 . S
H106 C77 0.982 . S
H107 C77 0.979 . S
H108 C77 0.977 . S
H109 C79 0.948 . S
H110 C81 0.947 . S
H111 C82 0.948 . S
H112 C88 0.982 . S
H113 C88 0.979 . S
H114 C88 0.977 . S
H115 C89 0.979 . S
H116 C89 0.980 . S
H117 C89 0.983 . S
H118 C62 0.947 . S
C119 C62 1.392 . S
C119 C63 1.419 . S
C119 H101 0.948 . S
C120 C121 1.391 . S
C120 C124 1.391 . S
C120 H162 0.948 . S
C121 C120 1.391 . S
C121 C122 1.391 . S
C122 C121 1.391 . S
C122 H178 0.947 . S
C122 C179 1.392 . S
C123 C124 1.391 . S
C123 C127 1.397 . S
C123 C179 1.419 . S
C124 C120 1.391 . S
C124 C123 1.391 . S
C124 C125 1.399 . S
C125 C124 1.399 . S
C125 C128 1.396 . S
C125 C137 1.453 . S
C125 C138 1.684 . S
H126 C150 0.948 . S
C127 C123 1.397 . S
C127 C128 1.394 . S
C127 C146 1.723 . S
C128 C125 1.396 . S
C128 C127 1.394 . S
C128 C158 1.723 . S
H129 C152 0.947 . S
H130 C153 0.948 . S
H131 C159 0.982 . S
H132 C160 0.979 . S
H133 C160 0.980 . S
H134 C160 0.983 . S
H135 C159 0.979 . S
H136 C159 0.977 . S
C137 C125 1.453 . S
C137 H166 0.982 . S
C137 H167 0.979 . S
C137 H168 0.977 . S
C138 C125 1.684 . S
C138 H163 0.979 . S
C138 H164 0.980 . S
C138 H165 0.983 . S
C139 C140 1.391 . S
C139 C144 1.391 . S
C139 H169 0.948 . S
C140 C139 1.391 . S
C140 C141 1.391 . S
C141 C140 1.391 . S
C141 C142 1.392 . S
C141 H170 0.947 . S
C142 C141 1.392 . S
C142 C143 1.419 . S
C142 H171 0.948 . S
C143 C142 1.419 . S
C143 C144 1.391 . S
C143 C147 1.397 . S
C144 C139 1.391 . S
C144 C143 1.391 . S
C144 C145 1.399 . S
C145 C144 1.399 . S
C145 C146 1.396 . S
C145 C148 1.453 . S
C145 C149 1.684 . S
C146 C127 1.723 . S
C146 C145 1.396 . S
C146 C147 1.394 . S
C147 C143 1.397 . S
C147 C146 1.394 . S
C147 C157 1.723 . S
C148 C145 1.453 . S
C148 H172 0.982 . S
C148 H173 0.979 . S
C148 H174 0.977 . S
C149 C145 1.684 . S
C149 H175 0.979 . S
C149 H176 0.980 . S
C149 H177 0.983 . S
C150 H126 0.948 . S
C150 C151 1.391 . S
C150 C155 1.391 . S
C151 C150 1.391 . S
C151 C152 1.391 . S
C152 H129 0.947 . S
C152 C151 1.391 . S
C152 C153 1.392 . S
C153 H130 0.948 . S
C153 C152 1.392 . S
C153 C154 1.419 . S
C154 C153 1.419 . S
C154 C155 1.391 . S
C154 C158 1.397 . S
C155 C150 1.391 . S
C155 C154 1.391 . S
C155 C156 1.399 . S
C156 C155 1.399 . S
C156 C157 1.396 . S
C156 C159 1.453 . S
C156 C160 1.684 . S
C157 C147 1.723 . S
C157 C156 1.396 . S
C157 C158 1.394 . S
C158 C128 1.723 . S
C158 C154 1.397 . S
C158 C157 1.394 . S
C159 H131 0.982 . S
C159 H135 0.979 . S
C159 H136 0.977 . S
C159 C156 1.453 . S
C160 H132 0.979 . S
C160 H133 0.980 . S
C160 H134 0.983 . S
C160 C156 1.684 . S
H161 C179 0.948 . S
H162 C120 0.948 . S
H163 C138 0.979 . S
H164 C138 0.980 . S
H165 C138 0.983 . S
H166 C137 0.982 . S
H167 C137 0.979 . S
H168 C137 0.977 . S
H169 C139 0.948 . S
H170 C141 0.947 . S
H171 C142 0.948 . S
H172 C148 0.982 . S
H173 C148 0.979 . S
H174 C148 0.977 . S
H175 C149 0.979 . S
H176 C149 0.980 . S
H177 C149 0.983 . S
H178 C122 0.947 . S
C179 C122 1.392 . S
C179 C123 1.419 . S
C179 H161 0.948 . S
C180 C181 1.391 . S
C180 C184 1.391 . S
C180 H222 0.948 . S
C181 C180 1.391 . S
C181 C182 1.391 . S
C182 C181 1.391 . S
C182 H238 0.947 . S
C182 C239 1.392 . S
C183 C184 1.391 . S
C183 C187 1.397 . S
C183 C239 1.419 . S
C184 C180 1.391 . S
C184 C183 1.391 . S
C184 C185 1.399 . S
C185 C184 1.399 . S
C185 C188 1.396 . S
C185 C197 1.453 . S
C185 C198 1.684 . S
H186 C210 0.948 . S
C187 C183 1.397 . S
C187 C188 1.394 . S
C187 C206 1.723 . S
C188 C185 1.396 . S
C188 C187 1.394 . S
C188 C218 1.723 . S
H189 C212 0.947 . S
H190 C213 0.948 . S
H191 C219 0.982 . S
H192 C220 0.979 . S
H193 C220 0.980 . S
H194 C220 0.983 . S
H195 C219 0.979 . S
H196 C219 0.977 . S
C197 C185 1.453 . S
C197 H226 0.982 . S
C197 H227 0.979 . S
C197 H228 0.977 . S
C198 C185 1.684 . S
C198 H223 0.979 . S
C198 H224 0.980 . S
C198 H225 0.983 . S
C199 C200 1.391 . S
C199 C204 1.391 . S
C199 H229 0.948 . S
C200 C199 1.391 . S
C200 C201 1.391 . S
C201 C200 1.391 . S
C201 C202 1.392 . S
C201 H230 0.947 . S
C202 C201 1.392 . S
C202 C203 1.419 . S
C202 H231 0.948 . S
C203 C202 1.419 . S
C203 C204 1.391 . S
C203 C207 1.397 . S
C204 C199 1.391 . S
C204 C203 1.391 . S
C204 C205 1.399 . S
C205 C204 1.399 . S
C205 C206 1.396 . S
C205 C208 1.453 . S
C205 C209 1.684 . S
C206 C187 1.723 . S
C206 C205 1.396 . S
C206 C207 1.394 . S
C207 C203 1.397 . S
C207 C206 1.394 . S
C207 C217 1.723 . S
C208 C205 1.453 . S
C208 H232 0.982 . S
C208 H233 0.979 . S
C208 H234 0.977 . S
C209 C205 1.684 . S
C209 H235 0.979 . S
C209 H236 0.980 . S
C209 H237 0.983 . S
C210 H186 0.948 . S
C210 C211 1.391 . S
C210 C215 1.391 . S
C211 C210 1.391 . S
C211 C212 1.391 . S
C212 H189 0.947 . S
C212 C211 1.391 . S
C212 C213 1.392 . S
C213 H190 0.948 . S
C213 C212 1.392 . S
C213 C214 1.419 . S
C214 C213 1.419 . S
C214 C215 1.391 . S
C214 C218 1.397 . S
C215 C210 1.391 . S
C215 C214 1.391 . S
C215 C216 1.399 . S
C216 C215 1.399 . S
C216 C217 1.396 . S
C216 C219 1.453 . S
C216 C220 1.684 . S
C217 C207 1.723 . S
C217 C216 1.396 . S
C217 C218 1.394 . S
C218 C188 1.723 . S
C218 C214 1.397 . S
C218 C217 1.394 . S
C219 H191 0.982 . S
C219 H195 0.979 . S
C219 H196 0.977 . S
C219 C216 1.453 . S
C220 H192 0.979 . S
C220 H193 0.980 . S
C220 H194 0.983 . S
C220 C216 1.684 . S
H221 C239 0.948 . S
H222 C180 0.948 . S
H223 C198 0.979 . S
H224 C198 0.980 . S
H225 C198 0.983 . S
H226 C197 0.982 . S
H227 C197 0.979 . S
H228 C197 0.977 . S
H229 C199 0.948 . S
H230 C201 0.947 . S
H231 C202 0.948 . S
H232 C208 0.982 . S
H233 C208 0.979 . S
H234 C208 0.977 . S
H235 C209 0.979 . S
H236 C209 0.980 . S
H237 C209 0.983 . S
H238 C182 0.947 . S
C239 C182 1.392 . S
C239 C183 1.419 . S
C239 H221 0.948 . S
C240 C241 1.391 . S
C240 C244 1.391 . S
C240 H282 0.948 1_556 S
C241 C240 1.391 . S
C241 C242 1.391 1_655 S
C242 C241 1.391 1_455 S
C242 H298 0.947 . S
C242 C299 1.388 1_455 S
C243 C244 1.391 . S
C243 C247 1.397 . S
C243 C299 1.427 . S
C244 C240 1.391 . S
C244 C243 1.391 . S
C244 C245 1.399 . S
C245 C244 1.399 . S
C245 C248 1.396 . S
C245 C257 1.453 . S
C245 C258 1.684 1_556 S
H246 C270 0.948 1_545 S
C247 C243 1.397 . S
C247 C248 1.394 . S
C247 C266 1.723 . S
C248 C245 1.396 . S
C248 C247 1.394 . S
C248 C278 1.723 . S
H249 C272 0.947 . S
H250 C273 0.948 . S
H251 C279 0.982 . S
H252 C280 0.979 . S
H253 C280 0.980 . S
H254 C280 0.983 . S
H255 C279 0.979 1_545 S
H256 C279 0.977 . S
C257 C245 1.453 . S
C257 H286 0.982 . S
C257 H287 0.979 1_556 S
C257 H288 0.977 . S
C258 C245 1.684 1_554 S
C258 H283 0.979 . S
C258 H284 0.980 . S
C258 H285 0.983 . S
C259 C260 1.389 . S
C259 C264 1.391 . S
C259 H289 0.948 1_655 S
C260 C259 1.389 . S
C260 C261 1.392 1_565 S
C261 C260 1.392 1_545 S
C261 C262 1.392 . S
C261 H290 0.947 . S
C262 C261 1.392 . S
C262 C263 1.419 1_545 S
C262 H291 0.948 . S
C263 C262 1.419 1_565 S
C263 C264 1.391 . S
C263 C267 1.397 . S
C264 C259 1.391 . S
C264 C263 1.391 . S
C264 C265 1.399 . S
C265 C264 1.399 . S
C265 C266 1.396 . S
C265 C268 1.453 . S
C265 C269 1.684 1_655 S
C266 C247 1.723 . S
C266 C265 1.396 . S
C266 C267 1.394 . S
C267 C263 1.397 . S
C267 C266 1.394 . S
C267 C277 1.723 . S
C268 C265 1.453 . S
C268 H292 0.982 . S
C268 H293 0.979 1_655 S
C268 H294 0.977 . S
C269 C265 1.684 1_455 S
C269 H295 0.979 . S
C269 H296 0.980 . S
C269 H297 0.983 . S
C270 H246 0.948 1_565 S
C270 C271 1.376 1_556 S
C270 C275 1.391 . S
C271 C270 1.376 1_554 S
C271 C272 1.400 . S
C272 H249 0.947 . S
C272 C271 1.400 . S
C272 C273 1.392 . S
C273 H250 0.948 . S
C273 C272 1.392 . S
C273 C274 1.419 1_554 S
C274 C273 1.419 1_556 S
C274 C275 1.391 . S
C274 C278 1.397 . S
C275 C270 1.391 . S
C275 C274 1.391 . S
C275 C276 1.399 . S
C276 C275 1.399 . S
C276 C277 1.396 . S
C276 C279 1.453 . S
C276 C280 1.684 1_565 S
C277 C267 1.723 . S
C277 C276 1.396 . S
C277 C278 1.394 . S
C278 C248 1.723 . S
C278 C274 1.397 . S
C278 C277 1.394 . S
C279 H251 0.982 . S
C279 H255 0.979 1_565 S
C279 H256 0.977 . S
C279 C276 1.453 . S
C280 H252 0.979 . S
C280 H253 0.980 . S
C280 H254 0.983 . S
C280 C276 1.684 1_545 S
H281 C299 0.943 1_455 S
H282 C240 0.948 1_554 S
H283 C258 0.979 . S
H284 C258 0.980 . S
H285 C258 0.983 . S
H286 C257 0.982 . S
H287 C257 0.979 1_554 S
H288 C257 0.977 . S
H289 C259 0.948 1_455 S
H290 C261 0.947 . S
H291 C262 0.948 . S
H292 C268 0.982 . S
H293 C268 0.979 1_455 S
H294 C268 0.977 . S
H295 C269 0.979 . S
H296 C269 0.980 . S
H297 C269 0.983 . S
H298 C242 0.947 . S
C299 C242 1.388 1_655 S
C299 C243 1.427 . S
C299 H281 0.943 1_655 S
C300 C301 1.391 . S
C300 C304 1.391 . S
C300 H342 0.948 . S
C301 C300 1.391 . S
C301 C302 1.391 . S
C302 C301 1.391 . S
C302 H358 0.947 . S
C302 C359 1.392 . S
C303 C304 1.391 . S
C303 C307 1.397 . S
C303 C359 1.419 . S
C304 C300 1.391 . S
C304 C303 1.391 . S
C304 C305 1.399 . S
C305 C304 1.399 . S
C305 C308 1.396 . S
C305 C317 1.453 . S
C305 C318 1.684 . S
H306 C330 0.948 . S
C307 C303 1.397 . S
C307 C308 1.394 . S
C307 C326 1.723 . S
C308 C305 1.396 . S
C308 C307 1.394 . S
C308 C338 1.723 . S
H309 C332 0.947 . S
H310 C333 0.948 . S
H311 C339 0.982 . S
H312 C340 0.979 . S
H313 C340 0.980 . S
H314 C340 0.983 . S
H315 C339 0.979 . S
H316 C339 0.977 . S
C317 C305 1.453 . S
C317 H346 0.982 . S
C317 H347 0.979 . S
C317 H348 0.977 . S
C318 C305 1.684 . S
C318 H343 0.979 . S
C318 H344 0.980 . S
C318 H345 0.983 . S
C319 C320 1.391 . S
C319 C324 1.391 . S
C319 H349 0.948 . S
C320 C319 1.391 . S
C320 C321 1.391 . S
C321 C320 1.391 . S
C321 C322 1.392 . S
C321 H350 0.947 . S
C322 C321 1.392 . S
C322 C323 1.419 . S
C322 H351 0.948 . S
C323 C322 1.419 . S
C323 C324 1.391 . S
C323 C327 1.397 . S
C324 C319 1.391 . S
C324 C323 1.391 . S
C324 C325 1.399 . S
C325 C324 1.399 . S
C325 C326 1.396 . S
C325 C328 1.453 . S
C325 C329 1.684 . S
C326 C307 1.723 . S
C326 C325 1.396 . S
C326 C327 1.394 . S
C327 C323 1.397 . S
C327 C326 1.394 . S
C327 C337 1.723 . S
C328 C325 1.453 . S
C328 H352 0.982 . S
C328 H353 0.979 . S
C328 H354 0.977 . S
C329 C325 1.684 . S
C329 H355 0.979 . S
C329 H356 0.980 . S
C329 H357 0.983 . S
C330 H306 0.948 . S
C330 C331 1.391 . S
C330 C335 1.391 . S
C331 C330 1.391 . S
C331 C332 1.391 . S
C332 H309 0.947 . S
C332 C331 1.391 . S
C332 C333 1.392 . S
C333 H310 0.948 . S
C333 C332 1.392 . S
C333 C334 1.419 . S
C334 C333 1.419 . S
C334 C335 1.391 . S
C334 C338 1.397 . S
C335 C330 1.391 . S
C335 C334 1.391 . S
C335 C336 1.399 . S
C336 C335 1.399 . S
C336 C337 1.396 . S
C336 C339 1.453 . S
C336 C340 1.684 . S
C337 C327 1.723 . S
C337 C336 1.396 . S
C337 C338 1.394 . S
C338 C308 1.723 . S
C338 C334 1.397 . S
C338 C337 1.394 . S
C339 H311 0.982 . S
C339 H315 0.979 . S
C339 H316 0.977 . S
C339 C336 1.453 . S
C340 H312 0.979 . S
C340 H313 0.980 . S
C340 H314 0.983 . S
C340 C336 1.684 . S
H341 C359 0.948 . S
H342 C300 0.948 . S
H343 C318 0.979 . S
H344 C318 0.980 . S
H345 C318 0.983 . S
H346 C317 0.982 . S
H347 C317 0.979 . S
H348 C317 0.977 . S
H349 C319 0.948 . S
H350 C321 0.947 . S
H351 C322 0.948 . S
H352 C328 0.982 . S
H353 C328 0.979 . S
H354 C328 0.977 . S
H355 C329 0.979 . S
H356 C329 0.980 . S
H357 C329 0.983 . S
H358 C302 0.947 . S
C359 C302 1.392 . S
C359 C303 1.419 . S
C359 H341 0.948 . S
C360 C361 1.391 . S
C360 C364 1.391 . S
C360 H402 0.948 . S
C361 C360 1.391 . S
C361 C362 1.391 . S
C362 C361 1.391 . S
C362 H418 0.947 . S
C362 C419 1.392 . S
C363 C364 1.391 . S
C363 C367 1.397 . S
C363 C419 1.419 . S
C364 C360 1.391 . S
C364 C363 1.391 . S
C364 C365 1.399 . S
C365 C364 1.399 . S
C365 C368 1.396 . S
C365 C377 1.453 . S
C365 C378 1.684 . S
H366 C390 0.948 . S
C367 C363 1.397 . S
C367 C368 1.394 . S
C367 C386 1.723 . S
C368 C365 1.396 . S
C368 C367 1.394 . S
C368 C398 1.723 . S
H369 C392 0.947 . S
H370 C393 0.948 . S
H371 C399 0.982 . S
H372 C400 0.979 1_556 S
H373 C400 0.980 . S
H374 C400 0.983 1_556 S
H375 C399 0.979 . S
H376 C399 0.977 . S
C377 C365 1.453 . S
C377 H406 0.982 . S
C377 H407 0.979 . S
C377 H408 0.977 . S
C378 C365 1.684 . S
C378 H403 0.979 . S
C378 H404 0.980 . S
C378 H405 0.983 . S
C379 C380 1.391 . S
C379 C384 1.391 . S
C379 H409 0.948 . S
C380 C379 1.391 . S
C380 C381 1.391 . S
C381 C380 1.391 . S
C381 C382 1.392 . S
C381 H410 0.940 1_554 S
C382 C381 1.392 . S
C382 C383 1.419 . S
C382 H411 0.948 . S
C383 C382 1.419 . S
C383 C384 1.391 . S
C383 C387 1.397 . S
C384 C379 1.391 . S
C384 C383 1.391 . S
C384 C385 1.399 . S
C385 C384 1.399 . S
C385 C386 1.396 . S
C385 C388 1.453 . S
C385 C389 1.684 . S
C386 C367 1.723 . S
C386 C385 1.396 . S
C386 C387 1.394 . S
C387 C383 1.397 . S
C387 C386 1.394 . S
C387 C397 1.723 . S
C388 C385 1.453 . S
C388 H412 0.982 . S
C388 H413 0.979 . S
C388 H414 0.977 . S
C389 C385 1.684 . S
C389 H415 0.979 . S
C389 H416 0.980 . S
C389 H417 0.983 . S
C390 H366 0.948 . S
C390 C391 1.391 . S
C390 C395 1.391 . S
C391 C390 1.391 . S
C391 C392 1.391 . S
C392 H369 0.947 . S
C392 C391 1.391 . S
C392 C393 1.392 . S
C393 H370 0.948 . S
C393 C392 1.392 . S
C393 C394 1.419 . S
C394 C393 1.419 . S
C394 C395 1.391 . S
C394 C398 1.397 . S
C395 C390 1.391 . S
C395 C394 1.391 . S
C395 C396 1.399 . S
C396 C395 1.399 . S
C396 C397 1.396 . S
C396 C399 1.453 . S
C396 C400 1.684 . S
C397 C387 1.723 . S
C397 C396 1.396 . S
C397 C398 1.394 . S
C398 C368 1.723 . S
C398 C394 1.397 . S
C398 C397 1.394 . S
C399 H371 0.982 . S
C399 H375 0.979 . S
C399 H376 0.977 . S
C399 C396 1.453 . S
C400 H372 0.979 1_554 S
C400 H373 0.980 . S
C400 H374 0.983 1_554 S
C400 C396 1.684 . S
H401 C419 0.948 . S
H402 C360 0.948 . S
H403 C378 0.979 . S
H404 C378 0.980 . S
H405 C378 0.983 . S
H406 C377 0.982 . S
H407 C377 0.979 . S
H408 C377 0.977 . S
H409 C379 0.948 . S
H410 C381 0.940 1_556 S
H411 C382 0.948 . S
H412 C388 0.982 . S
H413 C388 0.979 . S
H414 C388 0.977 . S
H415 C389 0.979 . S
H416 C389 0.980 . S
H417 C389 0.983 . S
H418 C362 0.947 . S
C419 C362 1.392 . S
C419 C363 1.419 . S
C419 H401 0.948 . S
C420 C421 1.391 . S
C420 C424 1.391 . S
C420 H462 0.948 . S
C421 C420 1.391 . S
C421 C422 1.391 . S
C422 C421 1.391 . S
C422 H478 0.947 . S
C422 C479 1.392 . S
C423 C424 1.391 . S
C423 C427 1.397 . S
C423 C479 1.419 . S
C424 C420 1.391 . S
C424 C423 1.391 . S
C424 C425 1.399 . S
C425 C424 1.399 . S
C425 C428 1.396 . S
C425 C437 1.453 . S
C425 C438 1.684 . S
H426 C450 0.948 . S
C427 C423 1.397 . S
C427 C428 1.394 . S
C427 C446 1.723 . S
C428 C425 1.396 . S
C428 C427 1.394 . S
C428 C458 1.723 . S
H429 C452 0.947 . S
H430 C453 0.948 . S
H431 C459 0.982 . S
H432 C460 0.979 . S
H433 C460 0.980 . S
H434 C460 0.983 . S
H435 C459 0.979 . S
H436 C459 0.977 . S
C437 C425 1.453 . S
C437 H466 0.982 . S
C437 H467 0.979 1_455 S
C437 H468 0.977 . S
C438 C425 1.684 . S
C438 H463 0.979 . S
C438 H464 0.980 . S
C438 H465 0.983 . S
C439 C440 1.391 . S
C439 C444 1.391 . S
C439 H469 0.948 . S
C440 C439 1.391 . S
C440 C441 1.391 . S
C441 C440 1.391 . S
C441 C442 1.392 . S
C441 H470 0.947 . S
C442 C441 1.392 . S
C442 C443 1.419 . S
C442 H471 0.948 . S
C443 C442 1.419 . S
C443 C444 1.391 . S
C443 C447 1.397 . S
C444 C439 1.391 . S
C444 C443 1.391 . S
C444 C445 1.399 . S
C445 C444 1.399 . S
C445 C446 1.396 . S
C445 C448 1.453 . S
C445 C449 1.684 . S
C446 C427 1.723 . S
C446 C445 1.396 . S
C446 C447 1.394 . S
C447 C443 1.397 . S
C447 C446 1.394 . S
C447 C457 1.723 . S
C448 C445 1.453 . S
C448 H472 0.982 . S
C448 H473 0.979 . S
C448 H474 0.977 . S
C449 C445 1.684 . S
C449 H475 0.979 . S
C449 H476 0.980 . S
C449 H477 0.983 . S
C450 H426 0.948 . S
C450 C451 1.391 . S
C450 C455 1.391 . S
C451 C450 1.391 . S
C451 C452 1.391 . S
C452 H429 0.947 . S
C452 C451 1.391 . S
C452 C453 1.392 . S
C453 H430 0.948 . S
C453 C452 1.392 . S
C453 C454 1.419 . S
C454 C453 1.419 . S
C454 C455 1.391 . S
C454 C458 1.397 . S
C455 C450 1.391 . S
C455 C454 1.391 . S
C455 C456 1.399 . S
C456 C455 1.399 . S
C456 C457 1.396 . S
C456 C459 1.453 . S
C456 C460 1.684 . S
C457 C447 1.723 . S
C457 C456 1.396 . S
C457 C458 1.394 . S
C458 C428 1.723 . S
C458 C454 1.397 . S
C458 C457 1.394 . S
C459 H431 0.982 . S
C459 H435 0.979 . S
C459 H436 0.977 . S
C459 C456 1.453 . S
C460 H432 0.979 . S
C460 H433 0.980 . S
C460 H434 0.983 . S
C460 C456 1.684 . S
H461 C479 0.948 . S
H462 C420 0.948 . S
H463 C438 0.979 . S
H464 C438 0.980 . S
H465 C438 0.983 . S
H466 C437 0.982 . S
H467 C437 0.979 1_655 S
H468 C437 0.977 . S
H469 C439 0.948 . S
H470 C441 0.947 . S
H471 C442 0.948 . S
H472 C448 0.982 . S
H473 C448 0.979 . S
H474 C448 0.977 . S
H475 C449 0.979 . S
H476 C449 0.980 . S
H477 C449 0.983 . S
H478 C422 0.947 . S
C479 C422 1.392 . S
C479 C423 1.419 . S
C479 H461 0.948 . S
Zn480 O486 1.920 . S
Zn480 O492 1.898 . S
Zn480 O495 1.905 . S
Zn481 O489 1.905 1_565 S
Zn481 O490 1.898 . S
Zn481 O498 1.920 . S
Zn482 O485 2.080 1_455 S
Zn482 O488 2.114 . S
Zn482 O491 2.120 1_445 S
Zn482 O493 2.120 . S
Zn482 O494 2.114 1_455 S
Zn482 O497 2.080 . S
C483 O488 1.166 . S
C483 O489 1.182 . S
C484 O490 1.167 1_655 S
C484 O491 1.299 . S
O485 Zn482 2.080 1_655 S
O485 C499 1.305 . S
O486 Zn480 1.920 . S
O486 C499 1.234 . S
C487 O492 1.167 1_455 S
C487 O493 1.299 . S
O488 Zn482 2.114 . S
O488 C483 1.166 . S
O489 Zn481 1.905 1_545 S
O489 C483 1.182 . S
O490 Zn481 1.898 . S
O490 C484 1.167 1_455 S
O491 Zn482 2.120 1_665 S
O491 C484 1.299 . S
O492 Zn480 1.898 . S
O492 C487 1.167 1_655 S
O493 Zn482 2.120 . S
O493 C487 1.299 . S
O494 Zn482 2.114 1_655 S
O494 C496 1.166 . S
O495 Zn480 1.905 . S
O495 C496 1.182 . S
C496 O494 1.166 . S
C496 O495 1.182 . S
O497 Zn482 2.080 . S
O497 C500 1.305 1_545 S
O498 Zn481 1.920 . S
O498 C500 1.234 . S
C499 O485 1.305 . S
C499 O486 1.234 . S
C500 O497 1.305 1_565 S
C500 O498 1.234 . S
Zn501 O507 1.920 1_556 S
Zn501 O513 1.898 . S
Zn501 O516 1.905 . S
Zn502 O510 1.905 . S
Zn502 O511 1.898 . S
Zn502 O519 1.920 . S
Zn503 O506 2.080 . S
Zn503 O509 2.114 1_545 S
Zn503 O512 2.120 1_545 S
Zn503 O514 2.120 . S
Zn503 O515 2.114 1_544 S
Zn503 O518 2.080 . S
C504 O509 1.166 . S
C504 O510 1.182 . S
C505 O511 1.167 . S
C505 O512 1.299 . S
O506 Zn503 2.080 . S
O506 C520 1.305 . S
O507 Zn501 1.920 1_554 S
O507 C520 1.234 . S
C508 O513 1.167 . S
C508 O514 1.299 1_556 S
O509 Zn503 2.114 1_565 S
O509 C504 1.166 . S
O510 Zn502 1.905 . S
O510 C504 1.182 . S
O511 Zn502 1.898 . S
O511 C505 1.167 . S
O512 Zn503 2.120 1_565 S
O512 C505 1.299 . S
O513 Zn501 1.898 . S
O513 C508 1.167 . S
O514 Zn503 2.120 . S
O514 C508 1.299 1_554 S
O515 Zn503 2.114 1_566 S
O515 C517 1.166 . S
O516 Zn501 1.905 . S
O516 C517 1.182 1_545 S
C517 O515 1.166 . S
C517 O516 1.182 1_565 S
O518 Zn503 2.080 . S
O518 C521 1.305 . S
O519 Zn502 1.920 . S
O519 C521 1.234 1_565 S
C520 O506 1.305 . S
C520 O507 1.234 . S
C521 O518 1.305 . S
C521 O519 1.234 1_545 S
Zn522 O528 1.920 . S
Zn522 O534 1.898 . S
Zn522 O537 1.905 . S
Zn523 O531 1.905 . S
Zn523 O532 1.898 . S
Zn523 O540 1.920 . S
Zn524 O527 2.080 . S
Zn524 O530 2.114 . S
Zn524 O533 2.120 . S
Zn524 O535 2.120 . S
Zn524 O536 2.114 . S
Zn524 O539 2.080 . S
C525 O530 1.166 . S
C525 O531 1.182 . S
C526 O532 1.167 . S
C526 O533 1.299 . S
O527 Zn524 2.080 . S
O527 C541 1.305 . S
O528 Zn522 1.920 . S
O528 C541 1.234 . S
C529 O534 1.167 . S
C529 O535 1.299 . S
O530 Zn524 2.114 . S
O530 C525 1.166 . S
O531 Zn523 1.905 . S
O531 C525 1.182 . S
O532 Zn523 1.898 . S
O532 C526 1.167 . S
O533 Zn524 2.120 . S
O533 C526 1.299 . S
O534 Zn522 1.898 . S
O534 C529 1.167 . S
O535 Zn524 2.120 . S
O535 C529 1.299 . S
O536 Zn524 2.114 . S
O536 C538 1.166 . S
O537 Zn522 1.905 . S
O537 C538 1.182 . S
C538 O536 1.166 . S
C538 O537 1.182 . S
O539 Zn524 2.080 . S
O539 C542 1.305 . S
O540 Zn523 1.920 . S
O540 C542 1.234 . S
C541 O527 1.305 . S
C541 O528 1.234 . S
C542 O539 1.305 . S
C542 O540 1.234 . S
Zn543 O549 1.920 . S
Zn543 O555 1.898 . S
Zn543 O558 1.905 . S
Zn544 O552 1.905 1_655 S
Zn544 O553 1.898 . S
Zn544 O561 1.920 . S
Zn545 O548 2.080 1_554 S
Zn545 O551 2.114 . S
Zn545 O554 2.120 1_454 S
Zn545 O556 2.120 . S
Zn545 O557 2.114 1_554 S
Zn545 O560 2.080 . S
C546 O551 1.166 . S
C546 O552 1.182 . S
C547 O553 1.167 1_556 S
C547 O554 1.299 . S
O548 Zn545 2.080 1_556 S
O548 C562 1.305 . S
O549 Zn543 1.920 . S
O549 C562 1.234 . S
C550 O555 1.167 1_554 S
C550 O556 1.299 . S
O551 Zn545 2.114 . S
O551 C546 1.166 . S
O552 Zn544 1.905 1_455 S
O552 C546 1.182 . S
O553 Zn544 1.898 . S
O553 C547 1.167 1_554 S
O554 Zn545 2.120 1_656 S
O554 C547 1.299 . S
O555 Zn543 1.898 . S
O555 C550 1.167 1_556 S
O556 Zn545 2.120 . S
O556 C550 1.299 . S
O557 Zn545 2.114 1_556 S
O557 C559 1.166 . S
O558 Zn543 1.905 . S
O558 C559 1.182 . S
C559 O557 1.166 . S
C559 O558 1.182 . S
O560 Zn545 2.080 . S
O560 C563 1.305 1_455 S
O561 Zn544 1.920 . S
O561 C563 1.234 . S
C562 O548 1.305 . S
C562 O549 1.234 . S
C563 O560 1.305 1_655 S
C563 O561 1.234 . S
H564 C570 0.930 . S
H565 C573 0.930 . S
H566 C574 0.930 . S
H567 C575 0.930 . S
H568 C578 0.930 . S
H569 C579 0.930 . S
C570 H564 0.930 . S
C570 C571 1.355 . S
C570 C572 1.415 . S
C571 C570 1.355 . S
C571 C573 1.419 . S
C572 C570 1.415 . S
C572 C577 1.425 . S
C572 C579 1.409 . S
C573 H565 0.930 . S
C573 C571 1.419 . S
C573 C574 1.362 . S
C574 H566 0.930 . S
C574 C573 1.362 . S
C574 C577 1.409 . S
C575 H567 0.930 . S
C575 C576 1.355 . S
C575 C577 1.415 . S
C576 C575 1.355 . S
C576 C578 1.419 . S
C577 C572 1.425 . S
C577 C574 1.409 . S
C577 C575 1.415 . S
C578 H568 0.930 . S
C578 C576 1.419 . S
C578 C579 1.362 . S
C579 H569 0.930 . S
C579 C572 1.409 . S
C579 C578 1.362 . S
H580 C586 0.930 . S
H581 C589 0.930 . S
H582 C590 0.930 . S
H583 C591 0.930 . S
H584 C594 0.930 1_545 S
H585 C595 0.930 . S
C586 H580 0.930 . S
C586 C587 1.355 . S
C586 C588 1.415 . S
C587 C586 1.355 . S
C587 C589 1.419 . S
C588 C586 1.415 . S
C588 C593 1.425 . S
C588 C595 1.409 . S
C589 H581 0.930 . S
C589 C587 1.419 . S
C589 C590 1.362 . S
C590 H582 0.930 . S
C590 C589 1.362 . S
C590 C593 1.409 . S
C591 H583 0.930 . S
C591 C592 1.355 . S
C591 C593 1.415 . S
C592 C591 1.355 . S
C592 C594 1.419 . S
C593 C588 1.425 . S
C593 C590 1.409 . S
C593 C591 1.415 . S
C594 H584 0.930 1_565 S
C594 C592 1.419 . S
C594 C595 1.362 . S
C595 H585 0.930 . S
C595 C588 1.409 . S
C595 C594 1.362 . S
H596 C602 0.930 . S
H597 C605 0.930 . S
H598 C606 0.930 . S
H599 C607 0.930 . S
H600 C610 0.930 . S
H601 C611 0.930 . S
C602 H596 0.930 . S
C602 C603 1.355 . S
C602 C604 1.415 . S
C603 C602 1.355 . S
C603 C605 1.419 . S
C604 C602 1.415 . S
C604 C609 1.425 . S
C604 C611 1.409 . S
C605 H597 0.930 . S
C605 C603 1.419 . S
C605 C606 1.362 . S
C606 H598 0.930 . S
C606 C605 1.362 . S
C606 C609 1.409 . S
C607 H599 0.930 . S
C607 C608 1.355 . S
C607 C609 1.415 . S
C608 C607 1.355 . S
C608 C610 1.419 . S
C609 C604 1.425 . S
C609 C606 1.409 . S
C609 C607 1.415 . S
C610 H600 0.930 . S
C610 C608 1.419 . S
C610 C611 1.362 . S
C611 H601 0.930 . S
C611 C604 1.409 . S
C611 C610 1.362 . S
H612 C618 0.930 . S
H613 C621 0.930 . S
H614 C622 0.930 . S
H615 C623 0.930 1_455 S
H616 C626 0.930 . S
H617 C627 0.930 . S
C618 H612 0.930 . S
C618 C619 1.355 . S
C618 C620 1.415 . S
C619 C618 1.355 . S
C619 C621 1.419 . S
C620 C618 1.415 . S
C620 C625 1.425 . S
C620 C627 1.409 . S
C621 H613 0.930 . S
C621 C619 1.419 . S
C621 C622 1.362 . S
C622 H614 0.930 . S
C622 C621 1.362 . S
C622 C625 1.409 . S
C623 H615 0.930 1_655 S
C623 C624 1.355 . S
C623 C625 1.415 . S
C624 C623 1.355 . S
C624 C626 1.419 . S
C625 C620 1.425 . S
C625 C622 1.409 . S
C625 C623 1.415 . S
C626 H616 0.930 . S
C626 C624 1.419 . S
C626 C627 1.362 . S
C627 H617 0.930 . S
C627 C620 1.409 . S
C627 C626 1.362 . S
H628 C634 0.930 . S
H629 C637 0.930 . S
H630 C638 0.930 . S
H631 C639 0.930 . S
H632 C642 0.930 . S
H633 C643 0.930 . S
C634 H628 0.930 . S
C634 C635 1.355 . S
C634 C636 1.415 . S
C635 C634 1.355 . S
C635 C637 1.419 . S
C636 C634 1.415 . S
C636 C641 1.425 . S
C636 C643 1.409 . S
C637 H629 0.930 . S
C637 C635 1.419 . S
C637 C638 1.362 . S
C638 H630 0.930 . S
C638 C637 1.362 . S
C638 C641 1.409 . S
C639 H631 0.930 . S
C639 C640 1.355 . S
C639 C641 1.415 . S
C640 C639 1.355 . S
C640 C642 1.419 . S
C641 C636 1.425 . S
C641 C638 1.409 . S
C641 C639 1.415 . S
C642 H632 0.930 . S
C642 C640 1.419 . S
C642 C643 1.362 . S
C643 H633 0.930 . S
C643 C636 1.409 . S
C643 C642 1.362 . S
H644 C650 0.930 . S
H645 C653 0.930 . S
H646 C654 0.930 . S
H647 C655 0.930 . S
H648 C658 0.930 . S
H649 C659 0.930 . S
C650 H644 0.930 . S
C650 C651 1.355 . S
C650 C652 1.415 . S
C651 C650 1.355 . S
C651 C653 1.419 . S
C652 C650 1.415 . S
C652 C657 1.425 . S
C652 C659 1.409 . S
C653 H645 0.930 . S
C653 C651 1.419 . S
C653 C654 1.362 . S
C654 H646 0.930 . S
C654 C653 1.362 . S
C654 C657 1.409 . S
C655 H647 0.930 . S
C655 C656 1.355 . S
C655 C657 1.415 . S
C656 C655 1.355 . S
C656 C658 1.419 . S
C657 C652 1.425 . S
C657 C654 1.409 . S
C657 C655 1.415 . S
C658 H648 0.930 . S
C658 C656 1.419 . S
C658 C659 1.362 . S
C659 H649 0.930 . S
C659 C652 1.409 . S
C659 C658 1.362 . S
H660 C666 0.930 . S
H661 C669 0.930 . S
H662 C670 0.930 . S
H663 C671 0.930 . S
H664 C674 0.930 . S
H665 C675 0.930 . S
C666 H660 0.930 . S
C666 C667 1.355 . S
C666 C668 1.415 . S
C667 C666 1.355 . S
C667 C669 1.419 . S
C668 C666 1.415 . S
C668 C673 1.425 . S
C668 C675 1.409 . S
C669 H661 0.930 . S
C669 C667 1.419 . S
C669 C670 1.362 . S
C670 H662 0.930 . S
C670 C669 1.362 . S
C670 C673 1.409 . S
C671 H663 0.930 . S
C671 C672 1.355 . S
C671 C673 1.415 . S
C672 C671 1.355 . S
C672 C674 1.419 . S
C673 C668 1.425 . S
C673 C670 1.409 . S
C673 C671 1.415 . S
C674 H664 0.930 . S
C674 C672 1.419 . S
C674 C675 1.362 . S
C675 H665 0.930 . S
C675 C668 1.409 . S
C675 C674 1.362 . S
H676 C682 0.930 . S
H677 C685 0.930 . S
H678 C686 0.930 . S
H679 C687 0.930 . S
H680 C690 0.930 . S
H681 C691 0.930 . S
C682 H676 0.930 . S
C682 C683 1.355 . S
C682 C684 1.415 . S
C683 C682 1.355 . S
C683 C685 1.419 . S
C684 C682 1.415 . S
C684 C689 1.425 . S
C684 C691 1.409 . S
C685 H677 0.930 . S
C685 C683 1.419 . S
C685 C686 1.362 . S
C686 H678 0.930 . S
C686 C685 1.362 . S
C686 C689 1.409 . S
C687 H679 0.930 . S
C687 C688 1.355 . S
C687 C689 1.415 . S
C688 C687 1.355 . S
C688 C690 1.419 . S
C689 C684 1.425 . S
C689 C686 1.409 . S
C689 C687 1.415 . S
C690 H680 0.930 . S
C690 C688 1.419 . S
C690 C691 1.362 . S
C691 H681 0.930 . S
C691 C684 1.409 . S
C691 C690 1.362 . S
H692 C698 0.930 . S
H693 C701 0.930 . S
H694 C702 0.930 . S
H695 C703 0.930 . S
H696 C706 0.930 . S
H697 C707 0.930 . S
C698 H692 0.930 . S
C698 C699 1.355 . S
C698 C700 1.415 . S
C699 C698 1.355 . S
C699 C701 1.419 . S
C700 C698 1.415 . S
C700 C705 1.425 . S
C700 C707 1.409 . S
C701 H693 0.930 . S
C701 C699 1.419 . S
C701 C702 1.362 . S
C702 H694 0.930 . S
C702 C701 1.362 . S
C702 C705 1.409 . S
C703 H695 0.930 . S
C703 C704 1.355 . S
C703 C705 1.415 . S
C704 C703 1.355 . S
C704 C706 1.419 . S
C705 C700 1.425 . S
C705 C702 1.409 . S
C705 C703 1.415 . S
C706 H696 0.930 . S
C706 C704 1.419 . S
C706 C707 1.362 . S
C707 H697 0.930 . S
C707 C700 1.409 . S
C707 C706 1.362 . S
H708 C714 0.930 . S
H709 C717 0.930 . S
H710 C718 0.930 . S
H711 C719 0.930 . S
H712 C722 0.930 . S
H713 C723 0.930 . S
C714 H708 0.930 . S
C714 C715 1.355 . S
C714 C716 1.415 . S
C715 C714 1.355 . S
C715 C717 1.419 . S
C716 C714 1.415 . S
C716 C721 1.425 . S
C716 C723 1.409 . S
C717 H709 0.930 . S
C717 C715 1.419 . S
C717 C718 1.362 . S
C718 H710 0.930 . S
C718 C717 1.362 . S
C718 C721 1.409 . S
C719 H711 0.930 . S
C719 C720 1.355 . S
C719 C721 1.415 . S
C720 C719 1.355 . S
C720 C722 1.419 . S
C721 C716 1.425 . S
C721 C718 1.409 . S
C721 C719 1.415 . S
C722 H712 0.930 . S
C722 C720 1.419 . S
C722 C723 1.362 . S
C723 H713 0.930 . S
C723 C716 1.409 . S
C723 C722 1.362 . S
H724 C730 0.930 . S
H725 C733 0.930 . S
H726 C734 0.930 . S
H727 C735 0.930 . S
H728 C738 0.930 1_455 S
H729 C739 0.913 1_455 S
C730 H724 0.930 . S
C730 C731 1.355 . S
C730 C732 1.415 . S
C731 C730 1.355 . S
C731 C733 1.419 . S
C732 C730 1.415 . S
C732 C737 1.425 . S
C732 C739 1.409 . S
C733 H725 0.930 . S
C733 C731 1.419 . S
C733 C734 1.362 . S
C734 H726 0.930 . S
C734 C733 1.362 . S
C734 C737 1.409 . S
C735 H727 0.930 . S
C735 C736 1.355 . S
C735 C737 1.415 . S
C736 C735 1.355 . S
C736 C738 1.419 . S
C737 C732 1.425 . S
C737 C734 1.409 . S
C737 C735 1.415 . S
C738 H728 0.930 1_655 S
C738 C736 1.419 . S
C738 C739 1.362 . S
C739 H729 0.913 1_655 S
C739 C732 1.409 . S
C739 C738 1.362 . S
H740 C746 0.930 . S
H741 C749 0.930 . S
H742 C750 0.930 . S
H743 C751 0.930 . S
H744 C754 0.930 . S
H745 C755 0.930 . S
C746 H740 0.930 . S
C746 C747 1.355 . S
C746 C748 1.415 . S
C747 C746 1.355 . S
C747 C749 1.419 . S
C748 C746 1.415 . S
C748 C753 1.425 . S
C748 C755 1.409 . S
C749 H741 0.930 . S
C749 C747 1.419 . S
C749 C750 1.362 . S
C750 H742 0.930 . S
C750 C749 1.362 . S
C750 C753 1.409 . S
C751 H743 0.930 . S
C751 C752 1.355 . S
C751 C753 1.415 . S
C752 C751 1.355 . S
C752 C754 1.419 . S
C753 C748 1.425 . S
C753 C750 1.409 . S
C753 C751 1.415 . S
C754 H744 0.930 . S
C754 C752 1.419 . S
C754 C755 1.362 . S
C755 H745 0.930 . S
C755 C748 1.409 . S
C755 C754 1.362 . S
H756 C762 0.930 . S
H757 C765 0.930 . S
H758 C766 0.930 . S
H759 C767 0.930 . S
H760 C770 0.930 . S
H761 C771 0.930 . S
C762 H756 0.930 . S
C762 C763 1.355 1_565 S
C762 C764 1.415 . S
C763 C762 1.355 1_545 S
C763 C765 1.419 1_655 S
C764 C762 1.415 . S
C764 C769 1.425 1_665 S
C764 C771 1.409 . S
C765 H757 0.930 . S
C765 C763 1.419 1_455 S
C765 C766 1.362 . S
C766 H758 0.930 . S
C766 C765 1.362 . S
C766 C769 1.409 . S
C767 H759 0.930 . S
C767 C768 1.355 1_455 S
C767 C769 1.415 . S
C768 C767 1.355 1_655 S
C768 C770 1.419 1_545 S
C769 C764 1.425 1_445 S
C769 C766 1.409 . S
C769 C767 1.415 . S
C770 H760 0.930 . S
C770 C768 1.419 1_565 S
C770 C771 1.362 . S
C771 H761 0.930 . S
C771 C764 1.409 . S
C771 C770 1.362 . S
H772 C778 0.930 . S
H773 C781 0.930 1_565 S
H774 C782 0.930 . S
H775 C783 0.930 1_565 S
H776 C786 0.930 . S
H777 C787 0.930 . S
C778 H772 0.930 . S
C778 C779 1.355 . S
C778 C780 1.415 . S
C779 C778 1.355 . S
C779 C781 1.419 . S
C780 C778 1.415 . S
C780 C785 1.425 . S
C780 C787 1.409 . S
C781 H773 0.930 1_545 S
C781 C779 1.419 . S
C781 C782 1.362 1_545 S
C782 H774 0.930 . S
C782 C781 1.362 1_565 S
C782 C785 1.409 1_565 S
C783 H775 0.930 1_545 S
C783 C784 1.355 . S
C783 C785 1.415 . S
C784 C783 1.355 . S
C784 C786 1.419 . S
C785 C780 1.425 . S
C785 C782 1.409 1_545 S
C785 C783 1.415 . S
C786 H776 0.930 . S
C786 C784 1.419 . S
C786 C787 1.362 . S
C787 H777 0.930 . S
C787 C780 1.409 . S
C787 C786 1.362 . S
H788 C794 0.930 . S
H789 C797 0.930 . S
H790 C798 0.930 . S
H791 C799 0.930 . S
H792 C802 0.930 . S
H793 C803 0.930 . S
C794 H788 0.930 . S
C794 C795 1.355 . S
C794 C796 1.415 . S
C795 C794 1.355 . S
C795 C797 1.419 . S
C796 C794 1.415 . S
C796 C801 1.425 . S
C796 C803 1.409 . S
C797 H789 0.930 . S
C797 C795 1.419 . S
C797 C798 1.362 . S
C798 H790 0.930 . S
C798 C797 1.362 . S
C798 C801 1.409 . S
C799 H791 0.930 . S
C799 C800 1.355 . S
C799 C801 1.415 . S
C800 C799 1.355 . S
C800 C802 1.419 . S
C801 C796 1.425 . S
C801 C798 1.409 . S
C801 C799 1.415 . S
C802 H792 0.930 . S
C802 C800 1.419 . S
C802 C803 1.362 . S
C803 H793 0.930 . S
C803 C796 1.409 . S
C803 C802 1.362 . S
H804 C810 0.930 . S
H805 C813 0.930 1_655 S
H806 C814 0.925 1_655 S
H807 C815 0.917 1_655 S
H808 C818 0.930 . S
H809 C819 0.930 . S
C810 H804 0.930 . S
C810 C811 1.355 . S
C810 C812 1.415 . S
C811 C810 1.355 . S
C811 C813 1.419 . S
C812 C810 1.415 . S
C812 C817 1.425 . S
C812 C819 1.409 . S
C813 H805 0.930 1_455 S
C813 C811 1.419 . S
C813 C814 1.363 . S
C814 H806 0.925 1_455 S
C814 C813 1.363 . S
C814 C817 1.413 . S
C815 H807 0.917 1_455 S
C815 C816 1.355 . S
C815 C817 1.415 . S
C816 C815 1.355 . S
C816 C818 1.419 . S
C817 C812 1.425 . S
C817 C814 1.413 . S
C817 C815 1.415 . S
C818 H808 0.930 . S
C818 C816 1.419 . S
C818 C819 1.362 . S
C819 H809 0.930 . S
C819 C812 1.409 . S
C819 C818 1.362 . S
H820 C826 0.925 1_545 S
H821 C829 0.930 . S
H822 C830 0.930 . S
H823 C831 0.930 . S
H824 C834 0.930 . S
H825 C835 0.930 . S
C826 H820 0.925 1_565 S
C826 C827 1.358 1_556 S
C826 C828 1.416 . S
C827 C826 1.358 1_554 S
C827 C829 1.419 . S
C828 C826 1.416 . S
C828 C833 1.425 1_556 S
C828 C835 1.409 1_565 S
C829 H821 0.930 . S
C829 C827 1.419 . S
C829 C830 1.362 . S
C830 H822 0.930 . S
C830 C829 1.362 . S
C830 C833 1.409 . S
C831 H823 0.930 . S
C831 C832 1.355 . S
C831 C833 1.415 . S
C832 C831 1.355 . S
C832 C834 1.419 1_564 S
C833 C828 1.425 1_554 S
C833 C830 1.409 . S
C833 C831 1.415 . S
C834 H824 0.930 . S
C834 C832 1.419 1_546 S
C834 C835 1.362 . S
C835 H825 0.930 . S
C835 C828 1.409 1_545 S
C835 C834 1.362 . S
H836 C842 0.930 . S
H837 C845 0.930 . S
H838 C846 0.930 . S
H839 C847 0.930 . S
H840 C850 0.930 . S
H841 C851 0.930 . S
C842 H836 0.930 . S
C842 C843 1.355 . S
C842 C844 1.415 . S
C843 C842 1.355 . S
C843 C845 1.419 . S
C844 C842 1.415 . S
C844 C849 1.425 . S
C844 C851 1.409 . S
C845 H837 0.930 . S
C845 C843 1.419 . S
C845 C846 1.362 . S
C846 H838 0.930 . S
C846 C845 1.362 . S
C846 C849 1.409 . S
C847 H839 0.930 . S
C847 C848 1.355 . S
C847 C849 1.415 . S
C848 C847 1.355 . S
C848 C850 1.419 . S
C849 C844 1.425 . S
C849 C846 1.409 . S
C849 C847 1.415 . S
C850 H840 0.930 . S
C850 C848 1.419 . S
C850 C851 1.362 . S
C851 H841 0.930 . S
C851 C844 1.409 . S
C851 C850 1.362 . S
H852 C858 0.930 . S
H853 C861 0.930 . S
H854 C862 0.930 . S
H855 C863 0.930 1_556 S
H856 C866 0.930 . S
H857 C867 0.930 . S
C858 H852 0.930 . S
C858 C859 1.355 . S
C858 C860 1.415 . S
C859 C858 1.355 . S
C859 C861 1.419 1_554 S
C860 C858 1.415 . S
C860 C865 1.425 . S
C860 C867 1.409 . S
C861 H853 0.930 . S
C861 C859 1.419 1_556 S
C861 C862 1.362 . S
C862 H854 0.930 . S
C862 C861 1.362 . S
C862 C865 1.409 1_556 S
C863 H855 0.930 1_554 S
C863 C864 1.355 . S
C863 C865 1.415 . S
C864 C863 1.355 . S
C864 C866 1.419 . S
C865 C860 1.425 . S
C865 C862 1.409 1_554 S
C865 C863 1.415 . S
C866 H856 0.930 . S
C866 C864 1.419 . S
C866 C867 1.362 . S
C867 H857 0.930 . S
C867 C860 1.409 . S
C867 C866 1.362 . S
H868 C874 0.930 . S
H869 C877 0.930 . S
H870 C878 0.930 . S
H871 C879 0.930 . S
H872 C882 0.930 . S
H873 C883 0.930 . S
C874 H868 0.930 . S
C874 C875 1.355 . S
C874 C876 1.415 . S
C875 C874 1.355 . S
C875 C877 1.419 . S
C876 C874 1.415 . S
C876 C881 1.425 . S
C876 C883 1.409 . S
C877 H869 0.930 . S
C877 C875 1.419 . S
C877 C878 1.362 . S
C878 H870 0.930 . S
C878 C877 1.362 . S
C878 C881 1.409 . S
C879 H871 0.930 . S
C879 C880 1.355 . S
C879 C881 1.415 . S
C880 C879 1.355 . S
C880 C882 1.419 . S
C881 C876 1.425 . S
C881 C878 1.409 . S
C881 C879 1.415 . S
C882 H872 0.930 . S
C882 C880 1.419 . S
C882 C883 1.362 . S
C883 H873 0.930 . S
C883 C876 1.409 . S
C883 C882 1.362 . S
H884 C890 0.930 1_554 S
H885 C893 0.930 . S
H886 C894 0.930 . S
H887 C895 0.930 . S
H888 C898 0.930 . S
H889 C899 0.930 . S
C890 H884 0.930 1_556 S
C890 C891 1.355 1_455 S
C890 C892 1.415 . S
C891 C890 1.355 1_655 S
C891 C893 1.419 . S
C892 C890 1.415 . S
C892 C897 1.425 1_455 S
C892 C899 1.409 1_556 S
C893 H885 0.930 . S
C893 C891 1.419 . S
C893 C894 1.362 . S
C894 H886 0.930 . S
C894 C893 1.362 . S
C894 C897 1.409 . S
C895 H887 0.930 . S
C895 C896 1.355 1_655 S
C895 C897 1.415 . S
C896 C895 1.355 1_455 S
C896 C898 1.419 1_556 S
C897 C892 1.425 1_655 S
C897 C894 1.409 . S
C897 C895 1.415 . S
C898 H888 0.930 . S
C898 C896 1.419 1_554 S
C898 C899 1.362 . S
C899 H889 0.930 . S
C899 C892 1.409 1_554 S
C899 C898 1.362 . S
H900 C906 0.930 . S
H901 C909 0.930 . S
H902 C910 0.930 . S
H903 C911 0.930 . S
H904 C914 0.930 . S
H905 C915 0.930 . S
C906 H900 0.930 . S
C906 C907 1.355 . S
C906 C908 1.415 . S
C907 C906 1.355 . S
C907 C909 1.419 . S
C908 C906 1.415 . S
C908 C913 1.425 . S
C908 C915 1.409 . S
C909 H901 0.930 . S
C909 C907 1.419 . S
C909 C910 1.362 . S
C910 H902 0.930 . S
C910 C909 1.362 . S
C910 C913 1.409 . S
C911 H903 0.930 . S
C911 C912 1.355 . S
C911 C913 1.415 . S
C912 C911 1.355 . S
C912 C914 1.419 . S
C913 C908 1.425 . S
C913 C910 1.409 . S
C913 C911 1.415 . S
C914 H904 0.930 . S
C914 C912 1.419 . S
C914 C915 1.362 . S
C915 H905 0.930 . S
C915 C908 1.409 . S
C915 C914 1.362 . S
H916 C922 0.930 . S
H917 C925 0.930 . S
H918 C926 0.930 . S
H919 C927 0.930 . S
H920 C930 0.930 . S
H921 C931 0.930 . S
C922 H916 0.930 . S
C922 C923 1.355 . S
C922 C924 1.415 . S
C923 C922 1.355 . S
C923 C925 1.419 . S
C924 C922 1.415 . S
C924 C929 1.425 . S
C924 C931 1.409 . S
C925 H917 0.930 . S
C925 C923 1.419 . S
C925 C926 1.362 . S
C926 H918 0.930 . S
C926 C925 1.362 . S
C926 C929 1.409 . S
C927 H919 0.930 . S
C927 C928 1.355 . S
C927 C929 1.415 . S
C928 C927 1.355 . S
C928 C930 1.419 . S
C929 C924 1.425 . S
C929 C926 1.409 . S
C929 C927 1.415 . S
C930 H920 0.930 . S
C930 C928 1.419 . S
C930 C931 1.362 . S
C931 H921 0.930 . S
C931 C924 1.409 . S
C931 C930 1.362 . S
H932 C938 0.930 . S
H933 C941 0.930 . S
H934 C942 0.930 . S
H935 C943 0.930 . S
H936 C946 0.930 . S
H937 C947 0.930 . S
C938 H932 0.930 . S
C938 C939 1.355 . S
C938 C940 1.415 . S
C939 C938 1.355 . S
C939 C941 1.419 . S
C940 C938 1.415 . S
C940 C945 1.425 . S
C940 C947 1.409 . S
C941 H933 0.930 . S
C941 C939 1.419 . S
C941 C942 1.362 . S
C942 H934 0.930 . S
C942 C941 1.362 . S
C942 C945 1.409 . S
C943 H935 0.930 . S
C943 C944 1.355 . S
C943 C945 1.415 . S
C944 C943 1.355 . S
C944 C946 1.419 . S
C945 C940 1.425 . S
C945 C942 1.409 . S
C945 C943 1.415 . S
C946 H936 0.930 . S
C946 C944 1.419 . S
C946 C947 1.362 . S
C947 H937 0.930 . S
C947 C940 1.409 . S
C947 C946 1.362 . S
C571 C1 1.491 . S
C576 C483 1.379 . S
C587 C80 1.467 . S
C592 C517 1.360 . S
C608 C529 1.406 . S
C603 C140 1.449 . S
C619 C211 1.477 . S
C624 C563 1.376 . S
C640 C520 1.364 . S
C635 C31 1.488 . S
C656 C500 1.445 . S
C651 C61 1.506 . S
C672 C547 1.437 . S
C667 C151 1.454 . S
C688 C538 1.459 . S
C683 C200 1.514 . S
C699 C20 1.519 . S
C704 C546 1.404 . S
C720 C508 1.445 . S
C715 C121 1.456 . S
C731 C181 1.466 . S
C736 C484 1.346 . S
C747 C91 1.481 . S
C752 C541 1.388 . S
C768 C499 1.628 . S
C763 C260 1.755 1_545 S
C779 C320 1.676 . S
C784 C521 1.632 . S
C795 C361 1.734 . S
C800 C526 1.694 . S
C811 C451 1.667 . S
C816 C559 1.631 . S
C827 C271 1.748 . S
C832 C504 1.688 . S
C848 C496 1.675 . S
C843 C301 1.704 . S
C864 C550 1.668 . S
C859 C380 1.776 . S
C880 C542 1.591 . S
C875 C440 1.615 . S
C891 C241 1.701 . S
C896 C562 1.603 . S
C912 C505 1.694 . S
C907 C391 1.756 . S
C928 C487 1.669 . S
C923 C421 1.656 . S
C939 C331 1.609 . S
C944 C525 1.606 . S
