# Generated by pormake.
# Topology ssb, (4,4)-cn, num edge types: 1
# Building blocks:
#     Node 0, Type 0, BuildingBlock: GIZVER_clean_linker_0, # of connection points: 4
#     Node 1, Type 0, BuildingBlock: GIZVER_clean_linker_0, # of connection points: 4
#     Node 2, Type 0, BuildingBlock: GIZVER_clean_linker_0, # of connection points: 4
#     Node 3, Type 0, BuildingBlock: GIZVER_clean_linker_0, # of connection points: 4
#     Node 4, Type 0, BuildingBlock: GIZVER_clean_linker_0, # of connection points: 4
#     Node 5, Type 0, BuildingBlock: GIZVER_clean_linker_0, # of connection points: 4
#     Node 6, Type 0, BuildingBlock: GIZVER_clean_linker_0, # of connection points: 4
#     Node 7, Type 0, BuildingBlock: GIZVER_clean_linker_0, # of connection points: 4
#     Node 8, Type 1, BuildingBlock: NAWXER_clean_sbu_0, # of connection points: 4
#     Node 9, Type 1, BuildingBlock: NAWXER_clean_sbu_0, # of connection points: 4
#     Node 10, Type 1, BuildingBlock: NAWXER_clean_sbu_0, # of connection points: 4
#     Node 11, Type 1, BuildingBlock: NAWXER_clean_sbu_0, # of connection points: 4
#     Node 12, Type 1, BuildingBlock: NAWXER_clean_sbu_0, # of connection points: 4
#     Node 13, Type 1, BuildingBlock: NAWXER_clean_sbu_0, # of connection points: 4
#     Node 14, Type 1, BuildingBlock: NAWXER_clean_sbu_0, # of connection points: 4
#     Node 15, Type 1, BuildingBlock: NAWXER_clean_sbu_0, # of connection points: 4
#     Edge 16, Type (0, 1), BuildingBlock: MIFKUJ_clean_linker_0, # of connection points: 2
#     Edge 17, Type (0, 1), BuildingBlock: MIFKUJ_clean_linker_0, # of connection points: 2
#     Edge 18, Type (0, 1), BuildingBlock: MIFKUJ_clean_linker_0, # of connection points: 2
#     Edge 19, Type (0, 1), BuildingBlock: MIFKUJ_clean_linker_0, # of connection points: 2
#     Edge 20, Type (0, 1), BuildingBlock: MIFKUJ_clean_linker_0, # of connection points: 2
#     Edge 21, Type (0, 1), BuildingBlock: MIFKUJ_clean_linker_0, # of connection points: 2
#     Edge 22, Type (0, 1), BuildingBlock: MIFKUJ_clean_linker_0, # of connection points: 2
#     Edge 23, Type (0, 1), BuildingBlock: MIFKUJ_clean_linker_0, # of connection points: 2
#     Edge 24, Type (0, 1), BuildingBlock: MIFKUJ_clean_linker_0, # of connection points: 2
#     Edge 25, Type (0, 1), BuildingBlock: MIFKUJ_clean_linker_0, # of connection points: 2
#     Edge 26, Type (0, 1), BuildingBlock: MIFKUJ_clean_linker_0, # of connection points: 2
#     Edge 27, Type (0, 1), BuildingBlock: MIFKUJ_clean_linker_0, # of connection points: 2
#     Edge 28, Type (0, 1), BuildingBlock: MIFKUJ_clean_linker_0, # of connection points: 2
#     Edge 29, Type (0, 1), BuildingBlock: MIFKUJ_clean_linker_0, # of connection points: 2
#     Edge 30, Type (0, 1), BuildingBlock: MIFKUJ_clean_linker_0, # of connection points: 2
#     Edge 31, Type (0, 1), BuildingBlock: MIFKUJ_clean_linker_0, # of connection points: 2
#     Edge 32, Type (0, 1), BuildingBlock: MIFKUJ_clean_linker_0, # of connection points: 2
#     Edge 33, Type (0, 1), BuildingBlock: MIFKUJ_clean_linker_0, # of connection points: 2
#     Edge 34, Type (0, 1), BuildingBlock: MIFKUJ_clean_linker_0, # of connection points: 2
#     Edge 35, Type (0, 1), BuildingBlock: MIFKUJ_clean_linker_0, # of connection points: 2
#     Edge 36, Type (0, 1), BuildingBlock: MIFKUJ_clean_linker_0, # of connection points: 2
#     Edge 37, Type (0, 1), BuildingBlock: MIFKUJ_clean_linker_0, # of connection points: 2
#     Edge 38, Type (0, 1), BuildingBlock: MIFKUJ_clean_linker_0, # of connection points: 2
#     Edge 39, Type (0, 1), BuildingBlock: MIFKUJ_clean_linker_0, # of connection points: 2
#     Edge 40, Type (0, 1), BuildingBlock: MIFKUJ_clean_linker_0, # of connection points: 2
#     Edge 41, Type (0, 1), BuildingBlock: MIFKUJ_clean_linker_0, # of connection points: 2
#     Edge 42, Type (0, 1), BuildingBlock: MIFKUJ_clean_linker_0, # of connection points: 2
#     Edge 43, Type (0, 1), BuildingBlock: MIFKUJ_clean_linker_0, # of connection points: 2
#     Edge 44, Type (0, 1), BuildingBlock: MIFKUJ_clean_linker_0, # of connection points: 2
#     Edge 45, Type (0, 1), BuildingBlock: MIFKUJ_clean_linker_0, # of connection points: 2
#     Edge 46, Type (0, 1), BuildingBlock: MIFKUJ_clean_linker_0, # of connection points: 2
#     Edge 47, Type (0, 1), BuildingBlock: MIFKUJ_clean_linker_0, # of connection points: 2
# Relax obj value: 0.000
# Max RMSD: 0.030
# Mean RMSD: 0.015
data_MOF--net-ssb--node1-NAWXER_clean_sbu_0--node2-GIZVER_clean_linker_0--edge1-MIFKUJ_clean_linker_0
_symmetry_space_group_name_H-M    P1
_symmetry_Int_Tables_number       1
_symmetry_cell_setting            triclinic
loop_
_symmetry_equiv_pos_as_xyz
'x, y, z'
_cell_length_a     59.893301
_cell_length_b     59.683433
_cell_length_c     51.825707
_cell_angle_alpha  90.040763
_cell_angle_beta   90.136721
_cell_angle_gamma 89.995427
loop_
_atom_site_label
_atom_site_type_symbol
_atom_site_fract_x
_atom_site_fract_y
_atom_site_fract_z
_atom_type_partial_charge
H0 H 0.24987 0.20207 0.24643 0.0
H1 H 0.20531 0.2574 0.26083 0.0
H2 H 0.22237 0.21169 0.32184 0.0
H3 H 0.23077 0.22189 0.2106 0.0
H4 H 0.21337 0.24554 0.21677 0.0
H5 H 0.27271 0.22552 0.214 0.0
H6 H 0.29753 0.29036 0.19353 0.0
H7 H 0.2287 0.28263 0.21541 0.0
C8 C 0.24005 0.21206 0.25968 0.0
C9 C 0.23816 0.2054 0.2855 0.0
C10 C 0.22862 0.23118 0.25078 0.0
C11 C 0.2148 0.2432 0.26787 0.0
C12 C 0.21248 0.23631 0.29367 0.0
C13 C 0.22471 0.21776 0.30233 0.0
C14 C 0.22929 0.23731 0.22255 0.0
C15 C 0.24873 0.25255 0.21658 0.0
C16 C 0.27008 0.24343 0.21236 0.0
C17 C 0.28776 0.25727 0.20474 0.0
C18 C 0.28409 0.28021 0.20125 0.0
C19 C 0.26281 0.28958 0.20453 0.0
C20 C 0.24528 0.27569 0.21293 0.0
H21 H 0.80204 0.26213 0.27147 0.0
H22 H 0.7513 0.21114 0.27412 0.0
H23 H 0.78182 0.23462 0.34434 0.0
H24 H 0.7938 0.23923 0.23356 0.0
H25 H 0.77323 0.21783 0.23462 0.0
H26 H 0.78441 0.27665 0.21932 0.0
H27 H 0.7205 0.28532 0.18252 0.0
H28 H 0.73316 0.22676 0.2284 0.0
C29 C 0.79105 0.2514 0.28254 0.0
C30 C 0.79316 0.25063 0.30956 0.0
C31 C 0.77577 0.2374 0.26958 0.0
C32 C 0.76245 0.22257 0.28405 0.0
C33 C 0.76433 0.2216 0.31114 0.0
C34 C 0.77943 0.23603 0.32366 0.0
C35 C 0.77661 0.23547 0.24043 0.0
C36 C 0.76018 0.25065 0.22662 0.0
C37 C 0.76737 0.27122 0.21609 0.0
C38 C 0.75329 0.28375 0.19971 0.0
C39 C 0.73149 0.27589 0.1951 0.0
C40 C 0.7241 0.2553 0.20504 0.0
C41 C 0.73848 0.2429 0.22108 0.0
H42 H 0.77927 0.73102 0.2852 0.0
H43 H 0.73894 0.78994 0.29656 0.0
H44 H 0.80945 0.79194 0.3119 0.0
H45 H 0.73804 0.72912 0.29002 0.0
H46 H 0.72159 0.75387 0.29157 0.0
H47 H 0.74656 0.71182 0.24917 0.0
H48 H 0.7113 0.7358 0.1825 0.0
H49 H 0.71321 0.77584 0.25144 0.0
C50 C 0.778 0.7488 0.28925 0.0
C51 C 0.79691 0.76055 0.2979 0.0
C52 C 0.75712 0.75966 0.28753 0.0
C53 C 0.75526 0.78214 0.29568 0.0
C54 C 0.77401 0.79369 0.30522 0.0
C55 C 0.79491 0.78317 0.30451 0.0
C56 C 0.73626 0.74624 0.28178 0.0
C57 C 0.73132 0.74449 0.2532 0.0
C58 C 0.73731 0.72499 0.2395 0.0
C59 C 0.72981 0.72166 0.21409 0.0
C60 C 0.71736 0.73853 0.20199 0.0
C61 C 0.71138 0.75819 0.2151 0.0
C62 C 0.71842 0.7611 0.24081 0.0
H63 H 0.21035 0.7427 0.27041 0.0
H64 H 0.25811 0.79669 0.27279 0.0
H65 H 0.22167 0.77841 0.34109 0.0
H66 H 0.21997 0.76612 0.23123 0.0
H67 H 0.24323 0.78452 0.23209 0.0
H68 H 0.22512 0.72502 0.22808 0.0
H69 H 0.28676 0.70513 0.19206 0.0
H70 H 0.28085 0.77062 0.22519 0.0
C71 C 0.21977 0.75503 0.28127 0.0
C72 C 0.21473 0.75865 0.30737 0.0
C73 C 0.23552 0.76865 0.2686 0.0
C74 C 0.24669 0.78555 0.28268 0.0
C75 C 0.24167 0.7894 0.30886 0.0
C76 C 0.22589 0.77557 0.32101 0.0
C77 C 0.23704 0.76814 0.23943 0.0
C78 C 0.25168 0.74951 0.2291 0.0
C79 C 0.24241 0.72836 0.22331 0.0
C80 C 0.25496 0.71207 0.21004 0.0
C81 C 0.27717 0.71698 0.20338 0.0
C82 C 0.28656 0.73792 0.20884 0.0
C83 C 0.27386 0.75411 0.22185 0.0
H84 H 0.30179 0.77526 0.75993 0.0
H85 H 0.25972 0.71717 0.76948 0.0
H86 H 0.3006 0.74047 0.83222 0.0
H87 H 0.28796 0.75126 0.72203 0.0
H88 H 0.26636 0.73128 0.7271 0.0
H89 H 0.27972 0.79289 0.72868 0.0
H90 H 0.2142 0.81195 0.70418 0.0
H91 H 0.22894 0.74251 0.7189 0.0
C92 C 0.29461 0.7624 0.77206 0.0
C93 C 0.30201 0.76028 0.79766 0.0
C94 C 0.27872 0.7473 0.76189 0.0
C95 C 0.27097 0.72959 0.7775 0.0
C96 C 0.27921 0.72681 0.8027 0.0
C97 C 0.2941 0.74263 0.81282 0.0
C98 C 0.27264 0.74793 0.7335 0.0
C99 C 0.25563 0.76588 0.72712 0.0
C100 C 0.26246 0.78838 0.7252 0.0
C101 C 0.24744 0.80492 0.71707 0.0
C102 C 0.2255 0.799 0.71091 0.0
C103 C 0.2188 0.77647 0.7103 0.0
C104 C 0.23373 0.76 0.71946 0.0
H105 H 0.27928 0.22485 0.79832 0.0
H106 H 0.23094 0.27772 0.78955 0.0
H107 H 0.28989 0.28852 0.83523 0.0
H108 H 0.24272 0.21626 0.78255 0.0
H109 H 0.22115 0.23653 0.78496 0.0
H110 H 0.26068 0.2089 0.7417 0.0
H111 H 0.22816 0.23491 0.67415 0.0
H112 H 0.2132 0.26279 0.74867 0.0
C113 C 0.27433 0.24209 0.80156 0.0
C114 C 0.28723 0.25576 0.81798 0.0
C115 C 0.25408 0.24997 0.79095 0.0
C116 C 0.24692 0.2719 0.79673 0.0
C117 C 0.25983 0.28595 0.81264 0.0
C118 C 0.28009 0.27784 0.82264 0.0
C119 C 0.23835 0.23385 0.7775 0.0
C120 C 0.23787 0.23636 0.74839 0.0
C121 C 0.24985 0.22123 0.73276 0.0
C122 C 0.2462 0.22049 0.70596 0.0
C123 C 0.23138 0.23588 0.69472 0.0
C124 C 0.21949 0.25136 0.70982 0.0
C125 C 0.22291 0.25155 0.7367 0.0
H126 H 0.70516 0.2546 0.76074 0.0
H127 H 0.75286 0.30802 0.75028 0.0
H128 H 0.71962 0.30008 0.82291 0.0
H129 H 0.71629 0.26764 0.71695 0.0
H130 H 0.73776 0.28804 0.71307 0.0
H131 H 0.72545 0.22812 0.7263 0.0
H132 H 0.79108 0.20717 0.70404 0.0
H133 H 0.77703 0.27724 0.71413 0.0
C134 C 0.71471 0.2685 0.7685 0.0
C135 C 0.71103 0.27559 0.79399 0.0
C136 C 0.73018 0.2798 0.75272 0.0
C137 C 0.74166 0.29858 0.76256 0.0
C138 C 0.73792 0.30568 0.78795 0.0
C139 C 0.72302 0.29391 0.8036 0.0
C140 C 0.73268 0.27327 0.72476 0.0
C141 C 0.74957 0.25471 0.72139 0.0
C142 C 0.74273 0.23216 0.72227 0.0
C143 C 0.75788 0.21491 0.7166 0.0
C144 C 0.77995 0.22041 0.71026 0.0
C145 C 0.78712 0.24274 0.70899 0.0
C146 C 0.77188 0.25986 0.71519 0.0
H147 H 0.75849 0.69898 0.7552 0.0
H148 H 0.70083 0.74215 0.75729 0.0
H149 H 0.72816 0.71596 0.82772 0.0
H150 H 0.73317 0.7041 0.71691 0.0
H151 H 0.71155 0.72448 0.71743 0.0
H152 H 0.77202 0.71479 0.7086 0.0
H153 H 0.78095 0.77697 0.66804 0.0
H154 H 0.71963 0.76422 0.70834 0.0
C155 C 0.74638 0.70858 0.7661 0.0
C156 C 0.7458 0.70663 0.79318 0.0
C157 C 0.73055 0.72191 0.75296 0.0
C158 C 0.71383 0.73291 0.76725 0.0
C159 C 0.71303 0.73094 0.79425 0.0
C160 C 0.72942 0.71834 0.80702 0.0
C161 C 0.72903 0.72128 0.72377 0.0
C162 C 0.74436 0.73789 0.71058 0.0
C163 C 0.76598 0.73125 0.70317 0.0
C164 C 0.77939 0.74529 0.6879 0.0
C165 C 0.77113 0.76644 0.68071 0.0
C166 C 0.74969 0.77355 0.688 0.0
C167 C 0.73639 0.75916 0.70306 0.0
C168 C 0.97642 0.25819 0.54157 0.0
C169 C 0.03502 0.25982 0.47607 0.0
O170 O 0.98258 0.27799 0.53525 0.0
Zn171 Zn 0.00594 0.29403 0.51041 0.0
O172 O 0.98592 0.2413 0.53142 0.0
Zn173 Zn 0.00616 0.25794 0.50926 0.0
O174 O 0.02853 0.27234 0.53648 0.0
O175 O 0.02636 0.30915 0.53467 0.0
O176 O 0.02652 0.24246 0.48637 0.0
O177 O 0.02863 0.27933 0.48338 0.0
O178 O 0.98547 0.3105 0.48776 0.0
O179 O 0.98392 0.27378 0.48247 0.0
C180 C 0.03493 0.29158 0.54451 0.0
C181 C 0.9774 0.29349 0.47618 0.0
C182 C 0.75296 0.03191 0.55029 0.0
C183 C 0.75956 0.97996 0.47775 0.0
O184 O 0.77092 0.02359 0.54138 0.0
Zn185 Zn 0.75722 0.0055 0.51457 0.0
O186 O 0.73414 0.02631 0.54034 0.0
Zn187 Zn 0.72148 0.00518 0.51026 0.0
O188 O 0.70453 0.98214 0.52931 0.0
O189 O 0.74071 0.98059 0.53674 0.0
O190 O 0.73938 0.98548 0.48287 0.0
O191 O 0.77544 0.98738 0.49169 0.0
O192 O 0.74384 0.03037 0.48896 0.0
O193 O 0.70714 0.02726 0.48761 0.0
C194 C 0.72102 0.97311 0.54088 0.0
C195 C 0.72492 0.03707 0.48023 0.0
C196 C 0.97524 0.70825 0.5369 0.0
C197 C 0.03815 0.70667 0.476 0.0
O198 O 0.98248 0.72757 0.53019 0.0
Zn199 Zn 0.00661 0.7421 0.50524 0.0
O200 O 0.98384 0.69075 0.52698 0.0
Zn201 Zn 0.00617 0.70615 0.50566 0.0
O202 O 0.02722 0.72188 0.5344 0.0
O203 O 0.02497 0.75859 0.52938 0.0
O204 O 0.02783 0.68964 0.4847 0.0
O205 O 0.03167 0.72638 0.4823 0.0
O206 O 0.98801 0.75789 0.48029 0.0
O207 O 0.98586 0.72114 0.47642 0.0
C208 C 0.03295 0.74174 0.5413 0.0
C209 C 0.9802 0.74075 0.46882 0.0
C210 C 0.28627 0.04038 0.5319 0.0
C211 C 0.28715 0.97347 0.47549 0.0
O212 O 0.30373 0.03113 0.52275 0.0
Zn213 Zn 0.28842 0.00726 0.50332 0.0
O214 O 0.26705 0.03247 0.52593 0.0
Zn215 Zn 0.25234 0.00619 0.50382 0.0
O216 O 0.23709 0.98895 0.53017 0.0
O217 O 0.27387 0.9886 0.53426 0.0
O218 O 0.26775 0.98043 0.48202 0.0
O219 O 0.30435 0.984 0.48342 0.0
O220 O 0.27222 0.02562 0.47333 0.0
O221 O 0.2357 0.02251 0.47763 0.0
C222 C 0.25451 0.98288 0.54243 0.0
C223 C 0.25245 0.03018 0.46542 0.0
C224 C 0.47559 0.75695 0.04133 0.0
C225 C 0.53459 0.75744 0.97594 0.0
O226 O 0.48225 0.77674 0.03563 0.0
Zn227 Zn 0.50499 0.79232 0.00932 0.0
O228 O 0.48373 0.74021 0.02944 0.0
Zn229 Zn 0.50467 0.7566 0.00781 0.0
O230 O 0.52778 0.77123 0.035 0.0
O231 O 0.5246 0.80807 0.03312 0.0
O232 O 0.52455 0.74042 0.98505 0.0
O233 O 0.52894 0.77716 0.9834 0.0
O234 O 0.48516 0.80901 0.98614 0.0
O235 O 0.48342 0.77247 0.9804 0.0
C236 C 0.5338 0.79075 0.04277 0.0
C237 C 0.47732 0.79225 0.97399 0.0
C238 C 0.21667 0.53237 0.03881 0.0
C239 C 0.21992 0.47975 0.96583 0.0
O240 O 0.23648 0.52721 0.03167 0.0
Zn241 Zn 0.25294 0.50744 1.00316 0.0
O242 O 0.2 0.52443 0.02657 0.0
Zn243 Zn 0.21717 0.50653 1.00186 0.0
O244 O 0.23276 0.48205 0.02637 0.0
O245 O 0.26933 0.48654 0.02463 0.0
O246 O 0.20234 0.48733 0.97646 0.0
O247 O 0.23909 0.48613 0.97407 0.0
O248 O 0.26892 0.52961 0.98318 0.0
O249 O 0.23237 0.53204 0.97858 0.0
C250 C 0.25244 0.47616 0.03344 0.0
C251 C 0.25202 0.53915 0.97316 0.0
C252 C 0.53312 0.24758 0.97502 0.0
C253 C 0.47885 0.24804 0.04534 0.0
O254 O 0.52385 0.26465 0.98507 0.0
Zn255 Zn 0.50554 0.24879 0.0101 0.0
O256 O 0.52799 0.228 0.98314 0.0
Zn257 Zn 0.50678 0.21275 0.01087 0.0
O258 O 0.48568 0.19594 0.98895 0.0
O259 O 0.48107 0.23259 0.98693 0.0
O260 O 0.48521 0.22831 0.03878 0.0
O261 O 0.48634 0.26511 0.03345 0.0
O262 O 0.52959 0.23474 0.03612 0.0
O263 O 0.52857 0.19785 0.03328 0.0
C264 C 0.47505 0.21283 0.98031 0.0
C265 C 0.53684 0.21551 0.0433 0.0
C266 C 0.75453 0.53455 0.04249 0.0
C267 C 0.75676 0.47812 0.97397 0.0
O268 O 0.77438 0.52878 0.03616 0.0
Zn269 Zn 0.79059 0.50687 0.00978 0.0
O270 O 0.738 0.52568 0.03094 0.0
Zn271 Zn 0.75477 0.5062 0.00788 0.0
O272 O 0.76945 0.48178 0.03304 0.0
O273 O 0.80604 0.48623 0.03322 0.0
O274 O 0.73935 0.48713 0.9835 0.0
O275 O 0.77616 0.48397 0.98214 0.0
O276 O 0.8068 0.52804 0.98746 0.0
O277 O 0.77029 0.52892 0.98182 0.0
C278 C 0.78881 0.47579 0.04109 0.0
C279 C 0.78981 0.53581 0.97566 0.0
H280 H 0.21619 0.24624 0.34509 0.0
H281 H 0.18563 0.25278 0.37526 0.0
H282 H 0.13897 0.25478 0.31176 0.0
H283 H 0.16936 0.24727 0.28154 0.0
H284 H 0.15443 0.28284 0.38475 0.0
H285 H 0.09288 0.22725 0.32747 0.0
H286 H 0.094 0.1956 0.29676 0.0
H287 H 0.15677 0.17425 0.32855 0.0
H288 H 0.15577 0.20562 0.35967 0.0
H289 H 0.04917 0.29266 0.44363 0.0
H290 H 0.07896 0.29078 0.41179 0.0
H291 H 0.09053 0.22147 0.43132 0.0
H292 H 0.06013 0.22306 0.46288 0.0
H293 H 0.09335 0.22667 0.3812 0.0
H294 H 0.12458 0.26381 0.45448 0.0
H295 H 0.12663 0.29204 0.48917 0.0
H296 H 0.12967 0.34461 0.43276 0.0
H297 H 0.12731 0.3167 0.39772 0.0
C298 C 0.19946 0.24843 0.3375 0.0
C299 C 0.19517 0.24596 0.31093 0.0
C300 C 0.18202 0.25226 0.35477 0.0
C301 C 0.15995 0.25378 0.34582 0.0
C302 C 0.15584 0.25322 0.31913 0.0
C303 C 0.17328 0.24924 0.30183 0.0
C304 C 0.1412 0.25423 0.36453 0.0
C305 C 0.14099 0.27067 0.38388 0.0
C306 C 0.12401 0.23793 0.36391 0.0
C307 C 0.12442 0.21889 0.34558 0.0
C308 C 0.10687 0.21575 0.32792 0.0
C309 C 0.10748 0.19788 0.31046 0.0
C310 C 0.1255 0.18299 0.31062 0.0
C311 C 0.14289 0.18586 0.32834 0.0
C312 C 0.14233 0.20368 0.34584 0.0
C313 C 0.05799 0.27696 0.44114 0.0
C314 C 0.05241 0.25803 0.45595 0.0
C315 C 0.07509 0.27596 0.42297 0.0
C316 C 0.0873 0.25613 0.41951 0.0
C317 C 0.08139 0.23699 0.43374 0.0
C318 C 0.06405 0.23791 0.45179 0.0
C319 C 0.10635 0.25553 0.40122 0.0
C320 C 0.10664 0.23901 0.38196 0.0
C321 C 0.12398 0.27134 0.40247 0.0
C322 C 0.12556 0.28817 0.42348 0.0
C323 C 0.12553 0.2814 0.44947 0.0
C324 C 0.12677 0.29734 0.4692 0.0
C325 C 0.12822 0.32011 0.46317 0.0
C326 C 0.12851 0.32697 0.4374 0.0
C327 C 0.12724 0.3111 0.4176 0.0
H328 H 0.12918 0.33243 0.47847 0.0
H329 H 0.12595 0.16919 0.29708 0.0
H330 H 0.76098 0.17687 0.29999 0.0
H331 H 0.7476 0.14696 0.32816 0.0
H332 H 0.72879 0.19601 0.38531 0.0
H333 H 0.74253 0.22597 0.3573 0.0
H334 H 0.75152 0.1653 0.40756 0.0
H335 H 0.68932 0.16396 0.35066 0.0
H336 H 0.66948 0.16271 0.30894 0.0
H337 H 0.69775 0.09805 0.29308 0.0
H338 H 0.71801 0.09904 0.33455 0.0
H339 H 0.68843 0.05958 0.46006 0.0
H340 H 0.68889 0.09229 0.43116 0.0
H341 H 0.76083 0.09007 0.42964 0.0
H342 H 0.76057 0.05798 0.45844 0.0
H343 H 0.70493 0.10006 0.38248 0.0
H344 H 0.78212 0.14168 0.43096 0.0
H345 H 0.79938 0.14426 0.47412 0.0
H346 H 0.73583 0.13169 0.50942 0.0
H347 H 0.71811 0.12938 0.46651 0.0
C348 C 0.75345 0.18134 0.31826 0.0
C349 C 0.75282 0.20383 0.32638 0.0
C350 C 0.74579 0.16418 0.33442 0.0
C351 C 0.73703 0.16912 0.35893 0.0
C352 C 0.73553 0.19167 0.36658 0.0
C353 C 0.74336 0.20881 0.35053 0.0
C354 C 0.73134 0.15077 0.37741 0.0
C355 C 0.74119 0.15116 0.40204 0.0
C356 C 0.71752 0.13238 0.3706 0.0
C357 C 0.70531 0.13166 0.34566 0.0
C358 C 0.69143 0.14954 0.3382 0.0
C359 C 0.68009 0.14887 0.3146 0.0
C360 C 0.68239 0.13033 0.29835 0.0
C361 C 0.69599 0.1124 0.30568 0.0
C362 C 0.70739 0.113 0.32925 0.0
C363 C 0.70432 0.06606 0.4535 0.0
C364 C 0.72445 0.05624 0.46185 0.0
C365 C 0.70456 0.08472 0.43693 0.0
C366 C 0.72492 0.0939 0.42853 0.0
C367 C 0.74492 0.08363 0.43623 0.0
C368 C 0.74471 0.06517 0.45273 0.0
C369 C 0.72568 0.11443 0.41215 0.0
C370 C 0.715 0.1144 0.38798 0.0
C371 C 0.73837 0.13342 0.41954 0.0
C372 C 0.74882 0.13519 0.44548 0.0
C373 C 0.7718 0.1396 0.44793 0.0
C374 C 0.78167 0.14098 0.47235 0.0
C375 C 0.76872 0.13808 0.49449 0.0
C376 C 0.74585 0.13386 0.49226 0.0
C377 C 0.73589 0.13249 0.46788 0.0
H378 H 0.7764 0.13913 0.51338 0.0
H379 H 0.67359 0.12984 0.28009 0.0
H380 H 0.80076 0.73083 0.33685 0.0
H381 H 0.83458 0.72419 0.3621 0.0
H382 H 0.87349 0.75865 0.30443 0.0
H383 H 0.83931 0.76635 0.27989 0.0
H384 H 0.8733 0.70697 0.36265 0.0
H385 H 0.91124 0.79228 0.33192 0.0
H386 H 0.89865 0.82871 0.31468 0.0
H387 H 0.83385 0.81851 0.34789 0.0
H388 H 0.84608 0.7821 0.36546 0.0
H389 H 0.9763 0.71366 0.42698 0.0
H390 H 0.94765 0.71468 0.39339 0.0
H391 H 0.91798 0.77262 0.42964 0.0
H392 H 0.94758 0.77239 0.46241 0.0
H393 H 0.9136 0.77772 0.38184 0.0
H394 H 0.89756 0.71659 0.4375 0.0
H395 H 0.90479 0.68183 0.46182 0.0
H396 H 0.91671 0.64649 0.39098 0.0
H397 H 0.90985 0.68114 0.36624 0.0
C398 C 0.81668 0.73611 0.32903 0.0
C399 C 0.81749 0.74901 0.30642 0.0
C400 C 0.83603 0.73248 0.34359 0.0
C401 C 0.85656 0.74153 0.33563 0.0
C402 C 0.85777 0.75206 0.31139 0.0
C403 C 0.83833 0.75611 0.29711 0.0
C404 C 0.87583 0.74214 0.35391 0.0
C405 C 0.88223 0.7224 0.36666 0.0
C406 C 0.887 0.76243 0.36005 0.0
C407 C 0.87953 0.78437 0.34974 0.0
C408 C 0.89432 0.79784 0.33557 0.0
C409 C 0.88723 0.81846 0.32572 0.0
C410 C 0.86542 0.82586 0.33009 0.0
C411 C 0.85068 0.81269 0.3444 0.0
C412 C 0.85768 0.79206 0.35429 0.0
C413 C 0.9638 0.72677 0.42757 0.0
C414 C 0.96406 0.74289 0.44734 0.0
C415 C 0.9473 0.72724 0.40847 0.0
C416 C 0.93018 0.74334 0.40926 0.0
C417 C 0.9309 0.75995 0.42855 0.0
C418 C 0.94781 0.75984 0.4473 0.0
C419 C 0.91128 0.74248 0.39043 0.0
C420 C 0.90489 0.7622 0.37763 0.0
C421 C 0.89935 0.7224 0.38526 0.0
C422 C 0.90342 0.70151 0.40004 0.0
C423 C 0.90188 0.70144 0.42712 0.0
C424 C 0.90589 0.68176 0.44098 0.0
C425 C 0.91127 0.66198 0.42796 0.0
C426 C 0.91258 0.66183 0.40104 0.0
C427 C 0.90862 0.68148 0.38709 0.0
H428 H 0.91437 0.64676 0.43872 0.0
H429 H 0.85996 0.84182 0.32244 0.0
H430 H 0.28497 0.80536 0.30978 0.0
H431 H 0.29942 0.83772 0.33411 0.0
H432 H 0.23344 0.85021 0.36405 0.0
H433 H 0.21896 0.81862 0.33953 0.0
H434 H 0.25228 0.88832 0.34933 0.0
H435 H 0.27458 0.82328 0.39966 0.0
H436 H 0.29432 0.78751 0.40663 0.0
H437 H 0.35688 0.81936 0.38971 0.0
H438 H 0.33744 0.85528 0.38232 0.0
H439 H 0.25422 0.94364 0.46529 0.0
H440 H 0.25387 0.9136 0.43372 0.0
H441 H 0.32239 0.92768 0.41433 0.0
H442 H 0.32296 0.95826 0.44644 0.0
H443 H 0.31022 0.87956 0.4172 0.0
H444 H 0.28685 0.94678 0.375 0.0
H445 H 0.26576 0.98214 0.37189 0.0
H446 H 0.204 0.94572 0.37492 0.0
H447 H 0.22471 0.91016 0.37866 0.0
C448 C 0.27358 0.81514 0.32144 0.0
C449 C 0.25087 0.80919 0.32297 0.0
C450 C 0.28187 0.83353 0.33546 0.0
C451 C 0.26757 0.84633 0.35115 0.0
C452 C 0.24486 0.84064 0.35218 0.0
C453 C 0.23663 0.82236 0.33831 0.0
C454 C 0.27581 0.86562 0.36683 0.0
C455 C 0.26501 0.88637 0.36409 0.0
C456 C 0.29289 0.86341 0.38565 0.0
C457 C 0.30454 0.84186 0.39011 0.0
C458 C 0.29252 0.8226 0.39721 0.0
C459 C 0.30366 0.80232 0.40128 0.0
C460 C 0.32683 0.80114 0.39852 0.0
C461 C 0.33893 0.82028 0.39177 0.0
C462 C 0.32786 0.8406 0.38765 0.0
C463 C 0.26937 0.94038 0.45454 0.0
C464 C 0.28856 0.95362 0.45821 0.0
C465 C 0.26911 0.92311 0.43647 0.0
C466 C 0.28796 0.91862 0.42136 0.0
C467 C 0.30762 0.93096 0.42574 0.0
C468 C 0.30792 0.9484 0.44405 0.0
C469 C 0.28608 0.90185 0.4002 0.0
C470 C 0.29799 0.88165 0.40191 0.0
C471 C 0.26992 0.90448 0.38044 0.0
C472 C 0.25737 0.92578 0.37721 0.0
C473 C 0.26877 0.9463 0.3751 0.0
C474 C 0.25688 0.96639 0.37323 0.0
C475 C 0.23355 0.96618 0.37322 0.0
C476 C 0.22207 0.94586 0.37493 0.0
C477 C 0.23389 0.92572 0.3769 0.0
H478 H 0.22435 0.98174 0.37191 0.0
H479 H 0.33542 0.78543 0.40168 0.0
H480 H 0.18796 0.74327 0.72194 0.0
H481 H 0.15329 0.73446 0.6983 0.0
H482 H 0.16745 0.78736 0.6442 0.0
H483 H 0.20214 0.79545 0.66645 0.0
H484 H 0.12267 0.78774 0.6653 0.0
H485 H 0.17777 0.73783 0.62597 0.0
H486 H 0.20537 0.70718 0.62742 0.0
H487 H 0.1554 0.6624 0.65676 0.0
H488 H 0.12757 0.69291 0.65582 0.0
H489 H 0.05919 0.77821 0.5517 0.0
H490 H 0.08769 0.78178 0.58524 0.0
H491 H 0.07145 0.71567 0.61324 0.0
H492 H 0.04366 0.71165 0.57895 0.0
H493 H 0.1136 0.71891 0.61264 0.0
H494 H 0.05693 0.76596 0.64667 0.0
H495 H 0.02851 0.79586 0.64696 0.0
H496 H 0.0791 0.84495 0.63134 0.0
H497 H 0.10779 0.81532 0.63059 0.0
C498 C 0.18372 0.75291 0.70494 0.0
C499 C 0.19766 0.77046 0.69658 0.0
C500 C 0.16388 0.74794 0.69155 0.0
C501 C 0.1577 0.76052 0.66973 0.0
C502 C 0.1717 0.77774 0.66125 0.0
C503 C 0.19151 0.78245 0.67424 0.0
C504 C 0.13694 0.7559 0.65503 0.0
C505 C 0.12059 0.7727 0.65377 0.0
C506 C 0.13398 0.73599 0.64067 0.0
C507 C 0.15069 0.7177 0.64116 0.0
C508 C 0.17273 0.72151 0.63298 0.0
C509 C 0.1884 0.70415 0.63365 0.0
C510 C 0.18217 0.68288 0.64227 0.0
C511 C 0.16023 0.6789 0.65016 0.0
C512 C 0.1445 0.69621 0.64955 0.0
C513 C 0.06156 0.76453 0.56515 0.0
C514 C 0.04916 0.74467 0.56268 0.0
C515 C 0.0778 0.76661 0.58446 0.0
C516 C 0.08156 0.74914 0.60218 0.0
C517 C 0.06893 0.72941 0.5999 0.0
C518 C 0.05299 0.72715 0.5803 0.0
C519 C 0.09936 0.75108 0.62226 0.0
C520 C 0.11522 0.73379 0.62453 0.0
C521 C 0.10168 0.77044 0.6379 0.0
C522 C 0.08449 0.78837 0.63841 0.0
C523 C 0.06198 0.78311 0.64313 0.0
C524 C 0.04582 0.80002 0.6434 0.0
C525 C 0.05199 0.82228 0.63913 0.0
C526 C 0.07434 0.82769 0.63464 0.0
C527 C 0.09056 0.81085 0.63433 0.0
H528 H 0.03946 0.83534 0.63934 0.0
H529 H 0.19432 0.66946 0.64277 0.0
H530 H 0.22323 0.19343 0.6732 0.0
H531 H 0.23739 0.16277 0.64675 0.0
H532 H 0.30389 0.17447 0.6758 0.0
H533 H 0.28964 0.20541 0.70278 0.0
H534 H 0.29863 0.16787 0.61794 0.0
H535 H 0.28313 0.1324 0.69855 0.0
H536 H 0.2609 0.12408 0.73735 0.0
H537 H 0.20834 0.09735 0.68999 0.0
H538 H 0.23011 0.10584 0.65086 0.0
H539 H 0.32342 0.06207 0.55205 0.0
H540 H 0.32368 0.09255 0.58418 0.0
H541 H 0.25169 0.09213 0.58515 0.0
H542 H 0.25124 0.06217 0.55359 0.0
H543 H 0.2685 0.09164 0.63341 0.0
H544 H 0.28042 0.13251 0.55369 0.0
H545 H 0.30079 0.14217 0.51393 0.0
H546 H 0.35877 0.15925 0.55871 0.0
H547 H 0.33879 0.1494 0.59875 0.0
C548 C 0.24091 0.18964 0.67386 0.0
C549 C 0.25536 0.20192 0.68996 0.0
C550 C 0.24896 0.17205 0.65879 0.0
C551 C 0.27167 0.16635 0.65931 0.0
C552 C 0.2863 0.17868 0.6751 0.0
C553 C 0.27815 0.1962 0.69057 0.0
C554 C 0.27952 0.14706 0.64363 0.0
C555 C 0.29257 0.15105 0.62163 0.0
C556 C 0.27132 0.12522 0.64826 0.0
C557 C 0.25821 0.11989 0.67175 0.0
C558 C 0.26676 0.1249 0.69639 0.0
C559 C 0.25425 0.12013 0.71845 0.0
C560 C 0.23321 0.11022 0.71614 0.0
C561 C 0.22465 0.10502 0.69175 0.0
C562 C 0.23708 0.10979 0.66962 0.0
C563 C 0.30769 0.06861 0.55904 0.0
C564 C 0.28733 0.05956 0.55023 0.0
C565 C 0.30786 0.08601 0.57738 0.0
C566 C 0.28768 0.09457 0.58719 0.0
C567 C 0.26747 0.08572 0.5781 0.0
C568 C 0.26728 0.06855 0.55988 0.0
C569 C 0.28701 0.11252 0.60718 0.0
C570 C 0.27518 0.10828 0.63002 0.0
C571 C 0.29623 0.13409 0.60318 0.0
C572 C 0.30824 0.13992 0.57916 0.0
C573 C 0.29759 0.13811 0.55503 0.0
C574 C 0.30904 0.14366 0.53245 0.0
C575 C 0.33109 0.15123 0.53378 0.0
C576 C 0.34171 0.15332 0.55771 0.0
C577 C 0.33033 0.14776 0.58035 0.0
H578 H 0.33993 0.15554 0.51628 0.0
H579 H 0.22355 0.10654 0.73324 0.0
H580 H 0.79823 0.27649 0.67539 0.0
H581 H 0.83231 0.27977 0.65013 0.0
H582 H 0.85979 0.22214 0.68912 0.0
H583 H 0.82651 0.21988 0.71597 0.0
H584 H 0.89203 0.24867 0.67876 0.0
H585 H 0.83239 0.21803 0.62781 0.0
H586 H 0.79484 0.2163 0.60809 0.0
H587 H 0.80695 0.27846 0.56894 0.0
H588 H 0.84453 0.28057 0.58845 0.0
H589 H 0.96622 0.22184 0.57203 0.0
H590 H 0.93556 0.21897 0.60343 0.0
H591 H 0.91411 0.28576 0.58367 0.0
H592 H 0.94463 0.28893 0.55287 0.0
H593 H 0.87951 0.25205 0.58416 0.0
H594 H 0.94075 0.28074 0.63606 0.0
H595 H 0.97877 0.2793 0.65436 0.0
H596 H 0.96372 0.2165 0.69076 0.0
H597 H 0.92569 0.21741 0.67234 0.0
C598 C 0.81179 0.26498 0.67931 0.0
C599 C 0.80938 0.24767 0.69749 0.0
C600 C 0.83117 0.26662 0.66445 0.0
C601 C 0.8483 0.25066 0.66699 0.0
C602 C 0.84669 0.23445 0.68648 0.0
C603 C 0.82753 0.23309 0.70171 0.0
C604 C 0.86727 0.25015 0.64851 0.0
C605 C 0.88923 0.24913 0.65808 0.0
C606 C 0.86376 0.25072 0.62144 0.0
C607 C 0.84115 0.24956 0.6098 0.0
C608 C 0.82696 0.23139 0.61515 0.0
C609 C 0.8057 0.23033 0.60399 0.0
C610 C 0.79848 0.24731 0.58741 0.0
C611 C 0.81255 0.26534 0.58184 0.0
C612 C 0.83384 0.26646 0.59288 0.0
C613 C 0.95492 0.23585 0.57441 0.0
C614 C 0.95786 0.25562 0.56008 0.0
C615 C 0.93752 0.23423 0.59237 0.0
C616 C 0.92269 0.25222 0.59586 0.0
C617 C 0.92541 0.27175 0.58126 0.0
C618 C 0.94292 0.27352 0.56374 0.0
C619 C 0.90406 0.25088 0.61448 0.0
C620 C 0.8822 0.25148 0.60486 0.0
C621 C 0.90768 0.24949 0.64138 0.0
C622 C 0.93047 0.24901 0.65257 0.0
C623 C 0.94562 0.26652 0.64776 0.0
C624 C 0.96715 0.26582 0.6582 0.0
C625 C 0.97368 0.24778 0.67365 0.0
C626 C 0.95865 0.23044 0.67875 0.0
C627 C 0.9371 0.23104 0.66833 0.0
H628 H 0.99035 0.24727 0.68171 0.0
H629 H 0.78202 0.24646 0.57881 0.0
H630 H 0.77086 0.81407 0.68758 0.0
H631 H 0.75916 0.84842 0.66579 0.0
H632 H 0.69746 0.8167 0.6431 0.0
H633 H 0.7093 0.78204 0.66472 0.0
H634 H 0.71737 0.83746 0.60244 0.0
H635 H 0.69707 0.85816 0.68794 0.0
H636 H 0.70201 0.86313 0.73483 0.0
H637 H 0.7562 0.90872 0.72145 0.0
H638 H 0.75181 0.90379 0.67446 0.0
H639 H 0.6859 0.94319 0.54494 0.0
H640 H 0.68404 0.90981 0.5728 0.0
H641 H 0.74836 0.92646 0.60509 0.0
H642 H 0.75033 0.95942 0.5776 0.0
H643 H 0.71964 0.91297 0.64238 0.0
H644 H 0.7439 0.88766 0.55831 0.0
H645 H 0.74054 0.88222 0.51127 0.0
H646 H 0.67985 0.84515 0.52216 0.0
H647 H 0.68271 0.85064 0.56927 0.0
C648 C 0.75467 0.81448 0.67824 0.0
C649 C 0.74101 0.79531 0.67792 0.0
C650 C 0.74793 0.83419 0.66587 0.0
C651 C 0.72734 0.83528 0.65287 0.0
C652 C 0.71339 0.81633 0.65303 0.0
C653 C 0.72008 0.79659 0.6656 0.0
C654 C 0.7212 0.85581 0.63799 0.0
C655 C 0.71732 0.85393 0.61131 0.0
C656 C 0.72151 0.87739 0.64937 0.0
C657 C 0.72418 0.88048 0.67765 0.0
C658 C 0.71014 0.86912 0.69498 0.0
C659 C 0.71283 0.87195 0.72159 0.0
C660 C 0.72943 0.8862 0.73111 0.0
C661 C 0.74335 0.89769 0.71404 0.0
C662 C 0.74075 0.8949 0.68741 0.0
C663 C 0.69949 0.93982 0.5582 0.0
C664 C 0.71831 0.95392 0.55891 0.0
C665 C 0.69847 0.92069 0.57402 0.0
C666 C 0.71615 0.9155 0.59097 0.0
C667 C 0.7345 0.93005 0.59226 0.0
C668 C 0.73564 0.94889 0.57637 0.0
C669 C 0.71631 0.89463 0.60681 0.0
C670 C 0.71916 0.89646 0.63364 0.0
C671 C 0.71516 0.87302 0.59556 0.0
C672 C 0.71335 0.86982 0.56726 0.0
C673 C 0.72972 0.87854 0.55064 0.0
C674 C 0.72794 0.87541 0.52398 0.0
C675 C 0.70995 0.86342 0.51372 0.0
C676 C 0.69374 0.85449 0.53012 0.0
C677 C 0.69544 0.8576 0.55681 0.0
H678 H 0.70861 0.86098 0.49308 0.0
H679 H 0.73148 0.88837 0.75172 0.0
H680 H 0.78968 0.7039 0.66792 0.0
H681 H 0.82377 0.69294 0.64515 0.0
H682 H 0.8521 0.75808 0.66021 0.0
H683 H 0.8183 0.76902 0.68331 0.0
H684 H 0.85338 0.74708 0.60919 0.0
H685 H 0.87197 0.712 0.69027 0.0
H686 H 0.86565 0.68672 0.72715 0.0
H687 H 0.86289 0.63031 0.67577 0.0
H688 H 0.86889 0.65532 0.63852 0.0
H689 H 0.96323 0.7405 0.57089 0.0
H690 H 0.93062 0.74157 0.59867 0.0
H691 H 0.91215 0.67514 0.57378 0.0
H692 H 0.94539 0.67377 0.54584 0.0
H693 H 0.90384 0.68295 0.62707 0.0
H694 H 0.88686 0.71728 0.54628 0.0
H695 H 0.89336 0.74223 0.50915 0.0
H696 H 0.89205 0.7995 0.55932 0.0
H697 H 0.88592 0.77486 0.59683 0.0
C698 C 0.80339 0.7157 0.66698 0.0
C699 C 0.80117 0.73742 0.67732 0.0
C700 C 0.82285 0.70942 0.65386 0.0
C701 C 0.84047 0.72472 0.65088 0.0
C702 C 0.83866 0.74605 0.6621 0.0
C703 C 0.81929 0.7523 0.67526 0.0
C704 C 0.86011 0.71928 0.6345 0.0
C705 C 0.86451 0.73318 0.61329 0.0
C706 C 0.87416 0.70061 0.6392 0.0
C707 C 0.87063 0.68557 0.66158 0.0
C708 C 0.86982 0.69423 0.68681 0.0
C709 C 0.86633 0.67995 0.70778 0.0
C710 C 0.8638 0.65693 0.7038 0.0
C711 C 0.86482 0.64814 0.67883 0.0
C712 C 0.86828 0.66236 0.65778 0.0
C713 C 0.95241 0.72597 0.57141 0.0
C714 C 0.95674 0.70716 0.55583 0.0
C715 C 0.93374 0.72662 0.58736 0.0
C716 C 0.91869 0.70864 0.58793 0.0
C717 C 0.92351 0.68926 0.57353 0.0
C718 C 0.94246 0.6885 0.55757 0.0
C719 C 0.89735 0.71115 0.60227 0.0
C720 C 0.89256 0.69671 0.62291 0.0
C721 C 0.88275 0.72925 0.59699 0.0
C722 C 0.88608 0.74419 0.57441 0.0
C723 C 0.8881 0.73519 0.54943 0.0
C724 C 0.89171 0.74927 0.5283 0.0
C725 C 0.89315 0.77243 0.53188 0.0
C726 C 0.89093 0.78156 0.55658 0.0
C727 C 0.88736 0.76754 0.57778 0.0
H728 H 0.89596 0.78331 0.5155 0.0
H729 H 0.8611 0.6459 0.72006 0.0
H730 H 0.27545 0.81399 0.67801 0.0
H731 H 0.27935 0.84963 0.65574 0.0
H732 H 0.24033 0.88202 0.71505 0.0
H733 H 0.23512 0.84568 0.73633 0.0
H734 H 0.22427 0.89388 0.67346 0.0
H735 H 0.29902 0.89404 0.70228 0.0
H736 H 0.33667 0.87939 0.71161 0.0
H737 H 0.34778 0.86854 0.63074 0.0
H738 H 0.31008 0.88282 0.62093 0.0
H739 H 0.28176 0.98504 0.58405 0.0
H740 H 0.28194 0.96072 0.62187 0.0
H741 H 0.22534 0.9246 0.59104 0.0
H742 H 0.22435 0.94993 0.5539 0.0
H743 H 0.29094 0.92064 0.62614 0.0
H744 H 0.19637 0.89775 0.63581 0.0
H745 H 0.15975 0.91631 0.6315 0.0
H746 H 0.19035 0.9803 0.64512 0.0
H747 H 0.2271 0.96212 0.64986 0.0
C748 C 0.26845 0.8289 0.68677 0.0
C749 C 0.25527 0.82727 0.70901 0.0
C750 C 0.27069 0.84936 0.67405 0.0
C751 C 0.26034 0.86876 0.68375 0.0
C752 C 0.24844 0.86736 0.70708 0.0
C753 C 0.24569 0.84671 0.71944 0.0
C754 C 0.25971 0.88958 0.66789 0.0
C755 C 0.23895 0.89989 0.6634 0.0
C756 C 0.27886 0.89795 0.65513 0.0
C757 C 0.30165 0.88943 0.66089 0.0
C758 C 0.30944 0.88841 0.68649 0.0
C759 C 0.3308 0.88018 0.69186 0.0
C760 C 0.3446 0.87302 0.67179 0.0
C761 C 0.33708 0.87411 0.64628 0.0
C762 C 0.31572 0.88231 0.64079 0.0
C763 C 0.26912 0.97213 0.58562 0.0
C764 C 0.25302 0.96931 0.56613 0.0
C765 C 0.26928 0.95817 0.6072 0.0
C766 C 0.25362 0.94079 0.60953 0.0
C767 C 0.23729 0.93818 0.59015 0.0
C768 C 0.23677 0.95257 0.56882 0.0
C769 C 0.25541 0.9245 0.63122 0.0
C770 C 0.27637 0.91496 0.63666 0.0
C771 C 0.23663 0.91751 0.64565 0.0
C772 C 0.21453 0.92856 0.64299 0.0
C773 C 0.19527 0.91577 0.63801 0.0
C774 C 0.1745 0.92623 0.63546 0.0
C775 C 0.17274 0.94947 0.63797 0.0
C776 C 0.19175 0.96231 0.64309 0.0
C777 C 0.21256 0.95193 0.64568 0.0
H778 H 0.15664 0.95754 0.63598 0.0
H779 H 0.36113 0.86664 0.67599 0.0
H780 H 0.17661 0.2582 0.72662 0.0
H781 H 0.14523 0.27271 0.70125 0.0
H782 H 0.1901 0.2888 0.63906 0.0
H783 H 0.22157 0.27464 0.6644 0.0
H784 H 0.13249 0.3124 0.67208 0.0
H785 H 0.1676 0.26338 0.58577 0.0
H786 H 0.19406 0.23246 0.57758 0.0
H787 H 0.17915 0.2042 0.65174 0.0
H788 H 0.15227 0.23464 0.66009 0.0
H789 H 0.06124 0.32751 0.5594 0.0
H790 H 0.09268 0.32685 0.59008 0.0
H791 H 0.07966 0.2571 0.60574 0.0
H792 H 0.04884 0.25753 0.57523 0.0
H793 H 0.12213 0.26261 0.59623 0.0
H794 H 0.06704 0.29905 0.64941 0.0
H795 H 0.03967 0.3284 0.66039 0.0
H796 H 0.09111 0.37839 0.65646 0.0
H797 H 0.11874 0.34934 0.64513 0.0
C798 C 0.17994 0.26562 0.70795 0.0
C799 C 0.20156 0.26496 0.69738 0.0
C800 C 0.16196 0.2739 0.69346 0.0
C801 C 0.16529 0.28155 0.66814 0.0
C802 C 0.18713 0.2828 0.65848 0.0
C803 C 0.20508 0.27459 0.67294 0.0
C804 C 0.14592 0.2847 0.6505 0.0
C805 C 0.13024 0.30166 0.65538 0.0
C806 C 0.14279 0.2704 0.629 0.0
C807 C 0.15815 0.25144 0.62365 0.0
C808 C 0.16987 0.25047 0.60023 0.0
C809 C 0.18494 0.23304 0.59557 0.0
C810 C 0.18835 0.21643 0.61417 0.0
C811 C 0.17655 0.21711 0.63737 0.0
C812 C 0.16139 0.23444 0.64207 0.0
C813 C 0.06497 0.31214 0.56963 0.0
C814 C 0.05261 0.29255 0.56467 0.0
C815 C 0.08293 0.31177 0.58718 0.0
C816 C 0.08864 0.29187 0.6002 0.0
C817 C 0.0758 0.27259 0.5958 0.0
C818 C 0.05809 0.27291 0.57831 0.0
C819 C 0.10847 0.29043 0.61759 0.0
C820 C 0.12437 0.27364 0.61269 0.0
C821 C 0.11146 0.30462 0.63928 0.0
C822 C 0.0949 0.32207 0.64615 0.0
C823 C 0.07248 0.31633 0.65068 0.0
C824 C 0.05692 0.3329 0.65701 0.0
C825 C 0.06363 0.35526 0.65905 0.0
C826 C 0.08593 0.36107 0.65483 0.0
C827 C 0.10154 0.34456 0.64848 0.0
H828 H 0.05157 0.36806 0.66394 0.0
H829 H 0.20011 0.20301 0.61058 0.0
H830 H 0.77777 0.1767 0.73422 0.0
H831 H 0.77425 0.13967 0.71437 0.0
H832 H 0.71855 0.16317 0.66904 0.0
H833 H 0.72217 0.20031 0.68853 0.0
H834 H 0.71743 0.11531 0.68273 0.0
H835 H 0.76667 0.17276 0.64697 0.0
H836 H 0.7974 0.19988 0.6521 0.0
H837 H 0.84234 0.14649 0.67168 0.0
H838 H 0.81161 0.11911 0.66777 0.0
H839 H 0.72016 0.06108 0.56353 0.0
H840 H 0.71976 0.08763 0.59914 0.0
H841 H 0.78557 0.06585 0.62216 0.0
H842 H 0.78641 0.03965 0.58562 0.0
H843 H 0.78354 0.10895 0.62551 0.0
H844 H 0.73705 0.05058 0.65641 0.0
H845 H 0.70679 0.02259 0.65527 0.0
H846 H 0.65824 0.07509 0.64743 0.0
H847 H 0.68823 0.1034 0.64815 0.0
C848 C 0.76419 0.17369 0.7208 0.0
C849 C 0.7505 0.19146 0.71254 0.0
C850 C 0.76221 0.15255 0.7095 0.0
C851 C 0.74647 0.14891 0.68987 0.0
C852 C 0.73085 0.16572 0.68411 0.0
C853 C 0.73289 0.18694 0.69535 0.0
C854 C 0.74899 0.12967 0.67209 0.0
C855 C 0.73181 0.11386 0.67014 0.0
C856 C 0.76811 0.12756 0.65622 0.0
C857 C 0.78678 0.14391 0.65738 0.0
C858 C 0.78306 0.16681 0.65253 0.0
C859 C 0.80048 0.18223 0.6552 0.0
C860 C 0.82182 0.17491 0.66212 0.0
C861 C 0.82579 0.15214 0.66635 0.0
C862 C 0.80836 0.13666 0.664 0.0
C863 C 0.73456 0.06185 0.57619 0.0
C864 C 0.75327 0.04815 0.57187 0.0
C865 C 0.73423 0.07696 0.59671 0.0
C866 C 0.75238 0.07837 0.61382 0.0
C867 C 0.77128 0.06494 0.60936 0.0
C868 C 0.77176 0.04999 0.58848 0.0
C869 C 0.75174 0.09453 0.63568 0.0
C870 C 0.76929 0.10996 0.63834 0.0
C871 C 0.73308 0.09606 0.65243 0.0
C872 C 0.71493 0.07911 0.65218 0.0
C873 C 0.71994 0.05615 0.65429 0.0
C874 C 0.70283 0.04023 0.65373 0.0
C875 C 0.68061 0.04705 0.65124 0.0
C876 C 0.67546 0.06983 0.64936 0.0
C877 C 0.6925 0.08582 0.64988 0.0
H878 H 0.66739 0.0347 0.65081 0.0
H879 H 0.83528 0.18688 0.6642 0.0
H880 H 0.83729 0.25033 0.29697 0.0
H881 H 0.86863 0.26366 0.32327 0.0
H882 H 0.82257 0.29024 0.37925 0.0
H883 H 0.79105 0.27659 0.35316 0.0
H884 H 0.8653 0.31794 0.36632 0.0
H885 H 0.8382 0.24522 0.39503 0.0
H886 H 0.82639 0.2062 0.38727 0.0
H887 H 0.89071 0.19103 0.35523 0.0
H888 H 0.90274 0.23011 0.36238 0.0
H889 H 0.94094 0.3214 0.47483 0.0
H890 H 0.90946 0.31945 0.44445 0.0
H891 H 0.94415 0.26848 0.401 0.0
H892 H 0.97477 0.26956 0.43206 0.0
H893 H 0.90533 0.25469 0.40784 0.0
H894 H 0.93402 0.3255 0.37926 0.0
H895 H 0.94674 0.36462 0.38361 0.0
H896 H 0.88213 0.38384 0.41174 0.0
H897 H 0.8691 0.34476 0.40786 0.0
C898 C 0.83381 0.25958 0.3145 0.0
C899 C 0.81172 0.26243 0.32302 0.0
C900 C 0.85173 0.26713 0.32953 0.0
C901 C 0.8479 0.27791 0.35319 0.0
C902 C 0.82586 0.28208 0.36097 0.0
C903 C 0.80791 0.2742 0.34613 0.0
C904 C 0.86681 0.28219 0.37111 0.0
C905 C 0.87399 0.30421 0.37569 0.0
C906 C 0.87834 0.26422 0.38283 0.0
C907 C 0.87128 0.24063 0.37898 0.0
C908 C 0.84975 0.23361 0.38612 0.0
C909 C 0.84303 0.21148 0.38187 0.0
C910 C 0.85777 0.19616 0.3707 0.0
C911 C 0.87929 0.20293 0.36385 0.0
C912 C 0.88607 0.22506 0.368 0.0
C913 C 0.94194 0.31014 0.45847 0.0
C914 C 0.96023 0.29561 0.45576 0.0
C915 C 0.92396 0.30904 0.44104 0.0
C916 C 0.9243 0.29382 0.42022 0.0
C917 C 0.94323 0.28021 0.41693 0.0
C918 C 0.96083 0.28091 0.43462 0.0
C919 C 0.90448 0.29062 0.40297 0.0
C920 C 0.8969 0.26863 0.39857 0.0
C921 C 0.89288 0.30867 0.39117 0.0
C922 C 0.90066 0.33216 0.39352 0.0
C923 C 0.92258 0.33804 0.38657 0.0
C924 C 0.92983 0.36021 0.38891 0.0
C925 C 0.91527 0.3767 0.39802 0.0
C926 C 0.8934 0.37105 0.40473 0.0
C927 C 0.88607 0.3489 0.40244 0.0
H928 H 0.92092 0.39385 0.39982 0.0
H929 H 0.85254 0.17903 0.36742 0.0
H930 H 0.79346 0.80339 0.35124 0.0
H931 H 0.79061 0.83731 0.37661 0.0
H932 H 0.74478 0.86522 0.32088 0.0
H933 H 0.74862 0.83125 0.29418 0.0
H934 H 0.77419 0.89655 0.33732 0.0
H935 H 0.72566 0.84483 0.37774 0.0
H936 H 0.71326 0.80907 0.39667 0.0
H937 H 0.76358 0.81453 0.45548 0.0
H938 H 0.77655 0.85015 0.43667 0.0
H939 H 0.73493 0.97536 0.4341 0.0
H940 H 0.7383 0.94624 0.40107 0.0
H941 H 0.79592 0.9194 0.44035 0.0
H942 H 0.79297 0.94893 0.47325 0.0
H943 H 0.75752 0.88889 0.43066 0.0
H944 H 0.80599 0.9414 0.38731 0.0
H945 H 0.81558 0.97799 0.36828 0.0
H946 H 0.76089 0.97196 0.315 0.0
H947 H 0.75077 0.93545 0.33398 0.0
C948 C 0.78312 0.81687 0.34392 0.0
C949 C 0.7716 0.81475 0.32034 0.0
C950 C 0.78123 0.83617 0.35875 0.0
C951 C 0.76723 0.8537 0.35089 0.0
C952 C 0.75565 0.85183 0.32734 0.0
C953 C 0.75773 0.83241 0.3122 0.0
C954 C 0.76495 0.87373 0.36768 0.0
C955 C 0.77016 0.89493 0.35762 0.0
C956 C 0.75987 0.87161 0.39427 0.0
C957 C 0.7522 0.85011 0.40564 0.0
C958 C 0.73422 0.83832 0.39458 0.0
C959 C 0.72707 0.81808 0.40531 0.0
C960 C 0.73766 0.80951 0.42723 0.0
C961 C 0.75541 0.82118 0.43849 0.0
C962 C 0.76265 0.84141 0.42781 0.0
C963 C 0.74858 0.9635 0.43543 0.0
C964 C 0.76367 0.9643 0.45625 0.0
C965 C 0.7505 0.94695 0.41652 0.0
C966 C 0.76734 0.93074 0.41834 0.0
C967 C 0.78287 0.93188 0.43865 0.0
C968 C 0.78123 0.94875 0.45732 0.0
C969 C 0.76736 0.91146 0.40043 0.0
C970 C 0.76151 0.89044 0.41032 0.0
C971 C 0.77138 0.91388 0.37371 0.0
C972 C 0.77747 0.93581 0.36227 0.0
C973 C 0.79586 0.94798 0.37172 0.0
C974 C 0.80143 0.96868 0.36089 0.0
C975 C 0.78881 0.97733 0.3405 0.0
C976 C 0.77063 0.96526 0.33083 0.0
C977 C 0.76498 0.94455 0.3416 0.0
H978 H 0.79315 0.99335 0.33214 0.0
H979 H 0.73208 0.79385 0.43552 0.0
H980 H 0.17576 0.77721 0.32221 0.0
H981 H 0.14573 0.7599 0.34719 0.0
H982 H 0.18123 0.697 0.34658 0.0
H983 H 0.21132 0.7144 0.32106 0.0
H984 H 0.1173 0.72296 0.33997 0.0
H985 H 0.17454 0.67656 0.41014 0.0
H986 H 0.21362 0.67716 0.42542 0.0
H987 H 0.21706 0.74795 0.41112 0.0
H988 H 0.17794 0.74778 0.39613 0.0
H989 H 0.04644 0.67492 0.43859 0.0
H990 H 0.07724 0.67522 0.40707 0.0
H991 H 0.10471 0.73395 0.44382 0.0
H992 H 0.07402 0.73401 0.47467 0.0
H993 H 0.13752 0.70191 0.42966 0.0
H994 H 0.07289 0.74155 0.3946 0.0
H995 H 0.03357 0.74385 0.38057 0.0
H996 H 0.04463 0.69091 0.32592 0.0
H997 H 0.08397 0.68809 0.33993 0.0
C998 C 0.17692 0.75958 0.32703 0.0
C999 C 0.19575 0.74709 0.31984 0.0
C1000 C 0.15975 0.74969 0.34118 0.0
C1001 C 0.16125 0.72718 0.3488 0.0
C1002 C 0.17975 0.7144 0.34089 0.0
C1003 C 0.19687 0.72428 0.32635 0.0
C1004 C 0.14432 0.71806 0.36691 0.0
C1005 C 0.12177 0.71792 0.35942 0.0
C1006 C 0.15006 0.71166 0.39237 0.0
C1007 C 0.17345 0.71207 0.4017 0.0
C1008 C 0.18365 0.69224 0.41032 0.0
C1009 C 0.20579 0.69251 0.41893 0.0
C1010 C 0.21784 0.71256 0.41914 0.0
C1011 C 0.20774 0.73241 0.41085 0.0
C1012 C 0.18559 0.73223 0.40227 0.0
C1013 C 0.0593 0.68761 0.44011 0.0
C1014 C 0.05781 0.70452 0.45894 0.0
C1015 C 0.07681 0.68781 0.42212 0.0
C1016 C 0.09325 0.70463 0.42312 0.0
C1017 C 0.0923 0.72077 0.44275 0.0
C1018 C 0.07467 0.72085 0.46028 0.0
C1019 C 0.11051 0.70694 0.40276 0.0
C1020 C 0.13312 0.70603 0.4099 0.0
C1021 C 0.1048 0.71259 0.37707 0.0
C1022 C 0.08125 0.7144 0.36854 0.0
C1023 C 0.06688 0.73027 0.37975 0.0
C1024 C 0.04461 0.73169 0.37178 0.0
C1025 C 0.03659 0.71748 0.35243 0.0
C1026 C 0.05085 0.70186 0.34095 0.0
C1027 C 0.07313 0.70034 0.3489 0.0
H1028 H 0.01934 0.71861 0.34628 0.0
H1029 H 0.23499 0.71273 0.42578 0.0
H1030 H 0.22742 0.16375 0.26849 0.0
H1031 H 0.23097 0.12919 0.29374 0.0
H1032 H 0.2714 0.16424 0.34971 0.0
H1033 H 0.26742 0.19883 0.32481 0.0
H1034 H 0.26199 0.10109 0.3171 0.0
H1035 H 0.24794 0.15533 0.40877 0.0
H1036 H 0.23335 0.19288 0.41936 0.0
H1037 H 0.19251 0.19176 0.35121 0.0
H1038 H 0.20604 0.15389 0.34082 0.0
H1039 H 0.28483 0.04339 0.43206 0.0
H1040 H 0.2815 0.06888 0.39571 0.0
H1041 H 0.21078 0.07515 0.40957 0.0
H1042 H 0.21403 0.04956 0.4465 0.0
H1043 H 0.22953 0.11526 0.4037 0.0
H1044 H 0.2286 0.04803 0.35514 0.0
H1045 H 0.24022 0.01028 0.34129 0.0
H1046 H 0.3047 0.03569 0.32022 0.0
H1047 H 0.29344 0.07366 0.33385 0.0
C1048 C 0.23791 0.16374 0.28555 0.0
C1049 C 0.2471 0.18384 0.29485 0.0
C1050 C 0.23984 0.14405 0.30002 0.0
C1051 C 0.25099 0.14434 0.32388 0.0
C1052 C 0.26243 0.16379 0.33154 0.0
C1053 C 0.26031 0.18347 0.31725 0.0
C1054 C 0.2478 0.12579 0.34251 0.0
C1055 C 0.25495 0.10414 0.33605 0.0
C1056 C 0.23767 0.12963 0.36681 0.0
C1057 C 0.22822 0.15183 0.37388 0.0
C1058 C 0.2356 0.16296 0.39625 0.0
C1059 C 0.22746 0.18431 0.40224 0.0
C1060 C 0.21194 0.1947 0.386 0.0
C1061 C 0.20435 0.18365 0.3639 0.0
C1062 C 0.21223 0.16223 0.35797 0.0
C1063 C 0.26848 0.05 0.42735 0.0
C1064 C 0.24969 0.04452 0.44231 0.0
C1065 C 0.26659 0.06447 0.40636 0.0
C1066 C 0.24587 0.07376 0.39971 0.0
C1067 C 0.22694 0.06808 0.41431 0.0
C1068 C 0.2288 0.05345 0.43536 0.0
C1069 C 0.24458 0.09065 0.37876 0.0
C1070 C 0.23647 0.11208 0.38473 0.0
C1071 C 0.25326 0.08644 0.35381 0.0
C1072 C 0.26022 0.06365 0.34569 0.0
C1073 C 0.24532 0.04554 0.34772 0.0
C1074 C 0.25182 0.02411 0.33986 0.0
C1075 C 0.27323 0.02055 0.33003 0.0
C1076 C 0.28813 0.03846 0.32787 0.0
C1077 C 0.28166 0.05996 0.33556 0.0
H1078 H 0.27824 0.00392 0.32402 0.0
H1079 H 0.20583 0.21131 0.39052 0.0
H1080 H 0.71275 0.75754 0.8371 0.0
H1081 H 0.68132 0.76418 0.86627 0.0
H1082 H 0.6381 0.72671 0.81533 0.0
H1083 H 0.66932 0.72096 0.78563 0.0
H1084 H 0.61478 0.75819 0.83583 0.0
H1085 H 0.66377 0.70268 0.86932 0.0
H1086 H 0.69963 0.68628 0.88319 0.0
H1087 H 0.70588 0.73647 0.94217 0.0
H1088 H 0.67022 0.75341 0.92837 0.0
H1089 H 0.54124 0.72305 0.94168 0.0
H1090 H 0.57082 0.72004 0.909 0.0
H1091 H 0.59884 0.7826 0.93508 0.0
H1092 H 0.56904 0.78613 0.96712 0.0
H1093 H 0.62865 0.73712 0.92712 0.0
H1094 H 0.57764 0.79263 0.88848 0.0
H1095 H 0.54012 0.80437 0.87415 0.0
H1096 H 0.53607 0.74697 0.82433 0.0
H1097 H 0.57345 0.73472 0.83873 0.0
C1098 C 0.69638 0.75126 0.83187 0.0
C1099 C 0.69342 0.73878 0.80914 0.0
C1100 C 0.67848 0.75483 0.84865 0.0
C1101 C 0.65742 0.74539 0.84342 0.0
C1102 C 0.65415 0.73408 0.81992 0.0
C1103 C 0.67198 0.73087 0.80289 0.0
C1104 C 0.63929 0.74615 0.86308 0.0
C1105 C 0.61788 0.75342 0.85571 0.0
C1106 C 0.64306 0.7397 0.8891 0.0
C1107 C 0.66443 0.72945 0.89764 0.0
C1108 C 0.67287 0.71032 0.88514 0.0
C1109 C 0.69315 0.70091 0.89299 0.0
C1110 C 0.70505 0.71035 0.91351 0.0
C1111 C 0.69666 0.72919 0.92625 0.0
C1112 C 0.6764 0.7387 0.91843 0.0
C1113 C 0.55375 0.73612 0.94046 0.0
C1114 C 0.5528 0.75486 0.95688 0.0
C1115 C 0.57056 0.7344 0.92179 0.0
C1116 C 0.5869 0.75115 0.91966 0.0
C1117 C 0.58631 0.76956 0.93643 0.0
C1118 C 0.56926 0.77156 0.95465 0.0
C1119 C 0.6046 0.74959 0.89985 0.0
C1120 C 0.62579 0.74197 0.90721 0.0
C1121 C 0.60049 0.75512 0.87377 0.0
C1122 C 0.57819 0.76263 0.86492 0.0
C1123 C 0.56864 0.7824 0.87469 0.0
C1124 C 0.54743 0.78917 0.8665 0.0
C1125 C 0.53569 0.77638 0.84841 0.0
C1126 C 0.54517 0.75684 0.83839 0.0
C1127 C 0.56637 0.74998 0.84654 0.0
H1128 H 0.51927 0.78165 0.8421 0.0
H1129 H 0.72075 0.70305 0.91956 0.0
H1130 H 0.30983 0.6988 0.82353 0.0
H1131 H 0.30336 0.66589 0.85049 0.0
H1132 H 0.23223 0.67515 0.84276 0.0
H1133 H 0.23871 0.70834 0.81549 0.0
H1134 H 0.24779 0.66908 0.89466 0.0
H1135 H 0.25426 0.63341 0.81207 0.0
H1136 H 0.27176 0.62535 0.77007 0.0
H1137 H 0.33048 0.60096 0.80857 0.0
H1138 H 0.31345 0.60918 0.85082 0.0
H1139 H 0.21921 0.56601 0.95372 0.0
H1140 H 0.22308 0.59735 0.92391 0.0
H1141 H 0.2944 0.5875 0.9223 0.0
H1142 H 0.29068 0.5559 0.95221 0.0
H1143 H 0.27714 0.59342 0.87388 0.0
H1144 H 0.27504 0.63295 0.95424 0.0
H1145 H 0.26106 0.64328 0.99732 0.0
H1146 H 0.19753 0.66091 0.96452 0.0
H1147 H 0.21134 0.65106 0.9211 0.0
C1148 C 0.2928 0.69377 0.82752 0.0
C1149 C 0.27473 0.70614 0.81763 0.0
C1150 C 0.28914 0.67491 0.84277 0.0
C1151 C 0.26733 0.66804 0.84851 0.0
C1152 C 0.24919 0.68021 0.83847 0.0
C1153 C 0.25286 0.69903 0.82287 0.0
C1154 C 0.26378 0.64865 0.86586 0.0
C1155 C 0.25375 0.65242 0.8899 0.0
C1156 C 0.27238 0.62715 0.86001 0.0
C1157 C 0.28263 0.62208 0.83462 0.0
C1158 C 0.27097 0.6265 0.81159 0.0
C1159 C 0.2808 0.62187 0.78773 0.0
C1160 C 0.30224 0.61269 0.78665 0.0
C1161 C 0.31388 0.60808 0.80943 0.0
C1162 C 0.30413 0.61269 0.83335 0.0
C1163 C 0.23577 0.57048 0.9471 0.0
C1164 C 0.25466 0.55841 0.95536 0.0
C1165 C 0.23794 0.5885 0.93014 0.0
C1166 C 0.25904 0.59488 0.92103 0.0
C1167 C 0.27796 0.58285 0.92912 0.0
C1168 C 0.27581 0.56485 0.94626 0.0
C1169 C 0.26116 0.61386 0.90269 0.0
C1170 C 0.27096 0.61003 0.87852 0.0
C1171 C 0.25267 0.6354 0.90852 0.0
C1172 C 0.24412 0.64104 0.93452 0.0
C1173 C 0.25804 0.63888 0.95626 0.0
C1174 C 0.25017 0.64471 0.98072 0.0
C1175 C 0.22834 0.65253 0.98372 0.0
C1176 C 0.21441 0.65477 0.96219 0.0
C1177 C 0.22229 0.64919 0.93763 0.0
H1178 H 0.22225 0.65695 1.0027 0.0
H1179 H 0.30982 0.60912 0.76816 0.0
H1180 H 0.3204 0.22714 0.80067 0.0
H1181 H 0.35358 0.21429 0.8246 0.0
H1182 H 0.33186 0.25136 0.89137 0.0
H1183 H 0.29862 0.26346 0.86829 0.0
H1184 H 0.37661 0.2604 0.87539 0.0
H1185 H 0.32671 0.19745 0.89187 0.0
H1186 H 0.3032 0.16561 0.8783 0.0
H1187 H 0.35963 0.13501 0.84138 0.0
H1188 H 0.3834 0.16686 0.85444 0.0
H1189 H 0.43671 0.236 0.98413 0.0
H1190 H 0.40604 0.2377 0.95324 0.0
H1191 H 0.43832 0.18755 0.90632 0.0
H1192 H 0.46893 0.18515 0.93819 0.0
H1193 H 0.39293 0.18285 0.90434 0.0
H1194 H 0.444 0.24248 0.89102 0.0
H1195 H 0.46849 0.27401 0.90314 0.0
H1196 H 0.41175 0.311 0.93042 0.0
H1197 H 0.38696 0.27955 0.91884 0.0
C1198 C 0.32257 0.23231 0.82055 0.0
C1199 C 0.30701 0.24676 0.8323 0.0
C1200 C 0.34156 0.22499 0.83416 0.0
C1201 C 0.34527 0.23204 0.8597 0.0
C1202 C 0.32948 0.24592 0.8716 0.0
C1203 C 0.31053 0.253 0.85821 0.0
C1204 C 0.36591 0.22602 0.87413 0.0
C1205 C 0.38016 0.24345 0.88176 0.0
C1206 C 0.37104 0.20379 0.88156 0.0
C1207 C 0.35675 0.18466 0.87384 0.0
C1208 C 0.33405 0.18404 0.88064 0.0
C1209 C 0.32069 0.16597 0.87309 0.0
C1210 C 0.3299 0.14833 0.85891 0.0
C1211 C 0.3525 0.1487 0.85232 0.0
C1212 C 0.36593 0.16675 0.8598 0.0
C1213 C 0.43709 0.22502 0.96746 0.0
C1214 C 0.45526 0.21059 0.9634 0.0
C1215 C 0.41961 0.22609 0.94972 0.0
C1216 C 0.42015 0.21327 0.927 0.0
C1217 C 0.43762 0.19776 0.92359 0.0
C1218 C 0.45506 0.19636 0.94177 0.0
C1219 C 0.40311 0.21744 0.90651 0.0
C1220 C 0.38965 0.19974 0.89762 0.0
C1221 C 0.39882 0.23945 0.89749 0.0
C1222 C 0.41363 0.25859 0.90416 0.0
C1223 C 0.43676 0.25729 0.89972 0.0
C1224 C 0.45069 0.27515 0.90649 0.0
C1225 C 0.44168 0.29448 0.91757 0.0
C1226 C 0.41871 0.29601 0.92183 0.0
C1227 C 0.4047 0.27818 0.91514 0.0
H1228 H 0.4525 0.30829 0.92281 0.0
H1229 H 0.31953 0.13435 0.85309 0.0
H1230 H 0.77386 0.31141 0.81924 0.0
H1231 H 0.78047 0.34392 0.84717 0.0
H1232 H 0.72649 0.37912 0.80962 0.0
H1233 H 0.72052 0.34692 0.78111 0.0
H1234 H 0.75683 0.40849 0.82607 0.0
H1235 H 0.71637 0.34727 0.86187 0.0
H1236 H 0.70948 0.3078 0.87346 0.0
H1237 H 0.76709 0.30829 0.92295 0.0
H1238 H 0.77452 0.34769 0.91134 0.0
H1239 H 0.72301 0.47193 0.93879 0.0
H1240 H 0.72193 0.44445 0.90341 0.0
H1241 H 0.78556 0.41814 0.92795 0.0
H1242 H 0.78702 0.44571 0.96281 0.0
H1243 H 0.74954 0.38523 0.91764 0.0
H1244 H 0.78754 0.44954 0.88028 0.0
H1245 H 0.79017 0.4895 0.8686 0.0
H1246 H 0.73093 0.48359 0.82225 0.0
H1247 H 0.72775 0.44365 0.83401 0.0
C1248 C 0.76422 0.32654 0.81619 0.0
C1249 C 0.74688 0.32691 0.798 0.0
C1250 C 0.76777 0.34498 0.83231 0.0
C1251 C 0.75357 0.36372 0.83092 0.0
C1252 C 0.7376 0.36486 0.81109 0.0
C1253 C 0.73426 0.34653 0.79474 0.0
C1254 C 0.75331 0.38053 0.85205 0.0
C1255 C 0.75511 0.4034 0.84606 0.0
C1256 C 0.75073 0.37395 0.87816 0.0
C1257 C 0.74613 0.35036 0.88554 0.0
C1258 C 0.72765 0.33892 0.87512 0.0
C1259 C 0.72364 0.31657 0.88169 0.0
C1260 C 0.73787 0.30553 0.89887 0.0
C1261 C 0.7561 0.31686 0.9096 0.0
C1262 C 0.76021 0.3392 0.90305 0.0
C1263 C 0.73668 0.4602 0.93667 0.0
C1264 C 0.75512 0.46098 0.95348 0.0
C1265 C 0.73609 0.44462 0.91645 0.0
C1266 C 0.75373 0.42941 0.91309 0.0
C1267 C 0.77183 0.4298 0.93024 0.0
C1268 C 0.77265 0.44559 0.95008 0.0
C1269 C 0.75352 0.41303 0.89166 0.0
C1270 C 0.75141 0.39025 0.89764 0.0
C1271 C 0.75519 0.41976 0.86557 0.0
C1272 C 0.75728 0.44368 0.85825 0.0
C1273 C 0.77497 0.45681 0.86778 0.0
C1274 C 0.77658 0.47944 0.86111 0.0
C1275 C 0.76069 0.48909 0.84475 0.0
C1276 C 0.74321 0.4761 0.83495 0.0
C1277 C 0.7415 0.45346 0.8416 0.0
H1278 H 0.76196 0.50662 0.83962 0.0
H1279 H 0.73476 0.28822 0.90392 0.0
H1280 H 0.71571 0.21284 0.18739 0.0
H1281 H 0.68223 0.19961 0.16486 0.0
H1282 H 0.65059 0.26355 0.17771 0.0
H1283 H 0.68376 0.27665 0.20082 0.0
H1284 H 0.62055 0.23013 0.18144 0.0
H1285 H 0.67805 0.25253 0.12182 0.0
H1286 H 0.71569 0.25156 0.10267 0.0
H1287 H 0.70701 0.18208 0.08355 0.0
H1288 H 0.66941 0.18256 0.10296 0.0
H1289 H 0.5493 0.24883 0.07601 0.0
H1290 H 0.57929 0.24872 0.10776 0.0
H1291 H 0.59511 0.18037 0.088 0.0
H1292 H 0.56471 0.18027 0.0559 0.0
H1293 H 0.63267 0.20903 0.08989 0.0
H1294 H 0.57154 0.18963 0.14416 0.0
H1295 H 0.53356 0.19288 0.162 0.0
H1296 H 0.54862 0.25891 0.19 0.0
H1297 H 0.5866 0.2562 0.17198 0.0
C1298 C 0.70138 0.22385 0.18609 0.0
C1299 C 0.70247 0.24588 0.19575 0.0
C1300 C 0.68232 0.21634 0.17296 0.0
C1301 C 0.66402 0.23072 0.16914 0.0
C1302 C 0.66451 0.25217 0.18027 0.0
C1303 C 0.68354 0.25969 0.19337 0.0
C1304 C 0.6451 0.22424 0.15194 0.0
C1305 C 0.6232 0.22554 0.16142 0.0
C1306 C 0.64852 0.2178 0.1259 0.0
C1307 C 0.67105 0.2175 0.11413 0.0
C1308 C 0.68424 0.237 0.11372 0.0
C1309 C 0.70556 0.23655 0.10279 0.0
C1310 C 0.71377 0.21675 0.09197 0.0
C1311 C 0.70065 0.19738 0.09199 0.0
C1312 C 0.67934 0.19773 0.10295 0.0
C1313 C 0.55902 0.23366 0.07841 0.0
C1314 C 0.55459 0.21454 0.06334 0.0
C1315 C 0.57612 0.23362 0.09674 0.0
C1316 C 0.58933 0.21449 0.10046 0.0
C1317 C 0.58503 0.19528 0.08552 0.0
C1318 C 0.56764 0.19522 0.06726 0.0
C1319 C 0.60812 0.21527 0.11929 0.0
C1320 C 0.63002 0.21305 0.11007 0.0
C1321 C 0.60468 0.2211 0.14548 0.0
C1322 C 0.5819 0.22275 0.15657 0.0
C1323 C 0.56671 0.20491 0.15396 0.0
C1324 C 0.54518 0.20664 0.16413 0.0
C1325 C 0.53867 0.2261 0.17709 0.0
C1326 C 0.55369 0.24385 0.17995 0.0
C1327 C 0.57523 0.2422 0.1698 0.0
H1328 H 0.52199 0.22742 0.18494 0.0
H1329 H 0.73027 0.21643 0.08351 0.0
H1330 H 0.69801 0.69692 0.18983 0.0
H1331 H 0.70298 0.66304 0.16416 0.0
H1332 H 0.77333 0.66302 0.18226 0.0
H1333 H 0.76844 0.69744 0.20784 0.0
H1334 H 0.76538 0.65773 0.13058 0.0
H1335 H 0.73914 0.62417 0.20866 0.0
H1336 H 0.71389 0.61921 0.24572 0.0
H1337 H 0.65954 0.60466 0.19419 0.0
H1338 H 0.6844 0.60984 0.15678 0.0
H1339 H 0.78658 0.55315 0.0731 0.0
H1340 H 0.78237 0.58276 0.10503 0.0
H1341 H 0.71155 0.58505 0.09 0.0
H1342 H 0.71557 0.55496 0.05801 0.0
H1343 H 0.72074 0.58835 0.14155 0.0
H1344 H 0.74551 0.62376 0.06386 0.0
H1345 H 0.76987 0.62919 0.0261 0.0
H1346 H 0.82587 0.6411 0.07616 0.0
H1347 H 0.80189 0.63539 0.11425 0.0
C1348 C 0.71455 0.68967 0.18842 0.0
C1349 C 0.73291 0.69993 0.20061 0.0
C1350 C 0.71732 0.67018 0.17392 0.0
C1351 C 0.73849 0.66039 0.1714 0.0
C1352 C 0.75683 0.6703 0.184 0.0
C1353 C 0.75403 0.68984 0.19869 0.0
C1354 C 0.74146 0.64057 0.1544 0.0
C1355 C 0.75596 0.64239 0.13329 0.0
C1356 C 0.72859 0.62083 0.15743 0.0
C1357 C 0.71361 0.61757 0.1799 0.0
C1358 C 0.72177 0.62008 0.20522 0.0
C1359 C 0.70753 0.6172 0.22629 0.0
C1360 C 0.68511 0.61167 0.22231 0.0
C1361 C 0.67691 0.60896 0.19724 0.0
C1362 C 0.69107 0.61183 0.1761 0.0
C1363 C 0.77005 0.55984 0.07656 0.0
C1364 C 0.75142 0.5518 0.06279 0.0
C1365 C 0.7677 0.57684 0.09484 0.0
C1366 C 0.74672 0.58638 0.09962 0.0
C1367 C 0.72793 0.57796 0.08654 0.0
C1368 C 0.73025 0.56082 0.06823 0.0
C1369 C 0.74466 0.60554 0.11778 0.0
C1370 C 0.73029 0.60362 0.13901 0.0
C1371 C 0.75752 0.62528 0.11477 0.0
C1372 C 0.77195 0.62893 0.09191 0.0
C1373 C 0.76305 0.62737 0.06682 0.0
C1374 C 0.77679 0.63052 0.04535 0.0
C1375 C 0.79942 0.63543 0.04873 0.0
C1376 C 0.80834 0.63726 0.07358 0.0
C1377 C 0.79469 0.63409 0.09511 0.0
H1378 H 0.81003 0.63786 0.03208 0.0
H1379 H 0.67411 0.60946 0.23865 0.0
H1380 H 0.32769 0.72212 0.22229 0.0
H1381 H 0.36275 0.72706 0.19848 0.0
H1382 H 0.3283 0.76875 0.14311 0.0
H1383 H 0.29384 0.7649 0.16787 0.0
H1384 H 0.37462 0.71404 0.15508 0.0
H1385 H 0.36128 0.80312 0.11113 0.0
H1386 H 0.34544 0.83959 0.12402 0.0
H1387 H 0.35567 0.8232 0.20384 0.0
H1388 H 0.37185 0.78677 0.19143 0.0
H1389 H 0.44264 0.72522 0.04421 0.0
H1390 H 0.41271 0.72285 0.0762 0.0
H1391 H 0.44105 0.77923 0.11705 0.0
H1392 H 0.46993 0.78251 0.08413 0.0
H1393 H 0.4007 0.7855 0.11695 0.0
H1394 H 0.44327 0.72112 0.13893 0.0
H1395 H 0.46324 0.68545 0.13225 0.0
H1396 H 0.40227 0.65412 0.10761 0.0
H1397 H 0.38199 0.68969 0.11383 0.0
C1398 C 0.32794 0.73291 0.20549 0.0
C1399 C 0.30833 0.74357 0.19715 0.0
C1400 C 0.34786 0.73554 0.19171 0.0
C1401 C 0.34841 0.7485 0.16902 0.0
C1402 C 0.32869 0.75924 0.16089 0.0
C1403 C 0.30895 0.75703 0.175 0.0
C1404 C 0.3691 0.74969 0.15301 0.0
C1405 C 0.38039 0.72972 0.14692 0.0
C1406 C 0.37714 0.77014 0.1427 0.0
C1407 C 0.36761 0.79212 0.15033 0.0
C1408 C 0.36025 0.80734 0.13142 0.0
C1409 C 0.35118 0.82799 0.13865 0.0
C1410 C 0.34949 0.83368 0.16474 0.0
C1411 C 0.35692 0.81874 0.18365 0.0
C1412 C 0.36601 0.79808 0.17653 0.0
C1413 C 0.44251 0.73696 0.06015 0.0
C1414 C 0.45856 0.75405 0.06169 0.0
C1415 C 0.42546 0.73554 0.07858 0.0
C1416 C 0.42462 0.75068 0.09944 0.0
C1417 C 0.44109 0.7674 0.10119 0.0
C1418 C 0.45768 0.76922 0.0824 0.0
C1419 C 0.40613 0.74982 0.11878 0.0
C1420 C 0.39514 0.76984 0.12536 0.0
C1421 C 0.39903 0.72956 0.13046 0.0
C1422 C 0.41115 0.70813 0.12663 0.0
C1423 C 0.43416 0.70667 0.13191 0.0
C1424 C 0.44552 0.68646 0.12823 0.0
C1425 C 0.43404 0.66755 0.11945 0.0
C1426 C 0.41115 0.66879 0.11438 0.0
C1427 C 0.3997 0.68896 0.11801 0.0
H1428 H 0.44287 0.65192 0.11662 0.0
H1429 H 0.34245 0.84967 0.17029 0.0
H1430 H 0.28953 0.32677 0.20955 0.0
H1431 H 0.28766 0.36081 0.18359 0.0
H1432 H 0.2248 0.339 0.15143 0.0
H1433 H 0.22717 0.30439 0.1762 0.0
H1434 H 0.25312 0.34819 0.11449 0.0
H1435 H 0.22985 0.38589 0.19188 0.0
H1436 H 0.23243 0.39742 0.23749 0.0
H1437 H 0.29539 0.42928 0.2227 0.0
H1438 H 0.29333 0.41768 0.17705 0.0
H1439 H 0.22154 0.4446 0.04557 0.0
H1440 H 0.22452 0.41468 0.07737 0.0
H1441 H 0.29165 0.43552 0.09569 0.0
H1442 H 0.28887 0.46567 0.06351 0.0
H1443 H 0.26376 0.42765 0.13985 0.0
H1444 H 0.28777 0.38941 0.06361 0.0
H1445 H 0.28632 0.37716 0.0182 0.0
H1446 H 0.22251 0.34645 0.03121 0.0
H1447 H 0.22361 0.35848 0.07678 0.0
C1448 C 0.27509 0.3294 0.19731 0.0
C1449 C 0.25864 0.31267 0.19475 0.0
C1450 C 0.27396 0.34899 0.1826 0.0
C1451 C 0.25613 0.35246 0.16544 0.0
C1452 C 0.23879 0.33663 0.16445 0.0
C1453 C 0.24002 0.31694 0.17892 0.0
C1454 C 0.25675 0.37108 0.14644 0.0
C1455 C 0.25505 0.36559 0.12015 0.0
C1456 C 0.26028 0.39371 0.15366 0.0
C1457 C 0.26153 0.40073 0.1811 0.0
C1458 C 0.24433 0.3952 0.1984 0.0
C1459 C 0.24569 0.40178 0.22425 0.0
C1460 C 0.26409 0.41403 0.233 0.0
C1461 C 0.28115 0.41977 0.2159 0.0
C1462 C 0.27989 0.41322 0.19003 0.0
C1463 C 0.237 0.44284 0.05627 0.0
C1464 C 0.25498 0.45751 0.05203 0.0
C1465 C 0.23868 0.42568 0.0744 0.0
C1466 C 0.25831 0.42287 0.08881 0.0
C1467 C 0.27635 0.43746 0.08473 0.0
C1468 C 0.27478 0.45455 0.06628 0.0
C1469 C 0.25963 0.40466 0.10816 0.0
C1470 C 0.2618 0.41021 0.13437 0.0
C1471 C 0.25659 0.38203 0.10097 0.0
C1472 C 0.25569 0.37501 0.07352 0.0
C1473 C 0.27335 0.38019 0.05673 0.0
C1474 C 0.27263 0.37322 0.03099 0.0
C1475 C 0.2543 0.36111 0.02179 0.0
C1476 C 0.23669 0.35585 0.03836 0.0
C1477 C 0.23739 0.36267 0.06417 0.0
H1478 H 0.25376 0.35578 1.00183 0.0
H1479 H 0.26511 0.41911 0.25302 0.0
H1480 H 0.32917 0.26492 0.22447 0.0
H1481 H 0.36451 0.25964 0.20151 0.0
H1482 H 0.32927 0.22608 0.13984 0.0
H1483 H 0.29422 0.23041 0.16343 0.0
H1484 H 0.36907 0.20998 0.14205 0.0
H1485 H 0.33771 0.2831 0.13954 0.0
H1486 H 0.32213 0.31786 0.15791 0.0
H1487 H 0.38489 0.33199 0.1947 0.0
H1488 H 0.40072 0.29705 0.17695 0.0
H1489 H 0.44509 0.27869 0.04897 0.0
H1490 H 0.41401 0.27815 0.07971 0.0
H1491 H 0.44454 0.22239 0.11943 0.0
H1492 H 0.47481 0.22214 0.08796 0.0
H1493 H 0.40658 0.28308 0.12767 0.0
H1494 H 0.40684 0.18604 0.14097 0.0
H1495 H 0.41704 0.15229 0.1161 0.0
H1496 H 0.40791 0.18843 0.04524 0.0
H1497 H 0.39735 0.22227 0.06965 0.0
C1498 C 0.32925 0.25553 0.20658 0.0
C1499 C 0.30915 0.24797 0.19567 0.0
C1500 C 0.34933 0.25276 0.19331 0.0
C1501 C 0.34943 0.24308 0.16857 0.0
C1502 C 0.32962 0.2337 0.15881 0.0
C1503 C 0.30961 0.23606 0.17234 0.0
C1504 C 0.36934 0.24507 0.15168 0.0
C1505 C 0.37739 0.22591 0.13909 0.0
C1506 C 0.37962 0.26606 0.14687 0.0
C1507 C 0.37034 0.28734 0.15713 0.0
C1508 C 0.34816 0.29356 0.15166 0.0
C1509 C 0.33927 0.31329 0.16196 0.0
C1510 C 0.3525 0.3271 0.1775 0.0
C1511 C 0.37466 0.32125 0.18269 0.0
C1512 C 0.3836 0.30148 0.17252 0.0
C1513 C 0.44523 0.26654 0.06448 0.0
C1514 C 0.46212 0.2503 0.06598 0.0
C1515 C 0.42749 0.26621 0.08204 0.0
C1516 C 0.42661 0.24985 0.10155 0.0
C1517 C 0.44443 0.23472 0.1041 0.0
C1518 C 0.4618 0.23468 0.08622 0.0
C1519 C 0.40664 0.24787 0.11842 0.0
C1520 C 0.39847 0.26707 0.13088 0.0
C1521 C 0.3955 0.22713 0.12203 0.0
C1522 C 0.40155 0.20674 0.10717 0.0
C1523 C 0.40693 0.18674 0.12008 0.0
C1524 C 0.41278 0.16761 0.10606 0.0
C1525 C 0.4132 0.16824 0.07911 0.0
C1526 C 0.40766 0.18798 0.06611 0.0
C1527 C 0.40176 0.20715 0.08003 0.0
H1528 H 0.41777 0.15342 0.0683 0.0
H1529 H 0.34559 0.34236 0.18548 0.0
H1530 H 0.74417 0.29551 0.14972 0.0
H1531 H 0.75627 0.32833 0.12622 0.0
H1532 H 0.79538 0.34971 0.19176 0.0
H1533 H 0.78189 0.31729 0.2164 0.0
H1534 H 0.77606 0.38475 0.17163 0.0
H1535 H 0.82011 0.32694 0.1359 0.0
H1536 H 0.82878 0.28992 0.11732 0.0
H1537 H 0.78687 0.30424 0.05206 0.0
H1538 H 0.77767 0.34122 0.07041 0.0
H1539 H 0.8204 0.46686 0.07859 0.0
H1540 H 0.821 0.43467 0.10849 0.0
H1541 H 0.76189 0.40818 0.07199 0.0
H1542 H 0.76079 0.44029 0.04289 0.0
H1543 H 0.80046 0.37655 0.08068 0.0
H1544 H 0.75273 0.43239 0.12291 0.0
H1545 H 0.74609 0.46962 0.14211 0.0
H1546 H 0.79961 0.45876 0.19594 0.0
H1547 H 0.80678 0.42157 0.17677 0.0
C1548 C 0.75502 0.30729 0.1595 0.0
C1549 C 0.76173 0.30376 0.18525 0.0
C1550 C 0.76233 0.32596 0.14573 0.0
C1551 C 0.77718 0.3414 0.15689 0.0
C1552 C 0.78405 0.338 0.18258 0.0
C1553 C 0.77645 0.31934 0.1966 0.0
C1554 C 0.78476 0.36124 0.14165 0.0
C1555 C 0.78191 0.38286 0.15196 0.0
C1556 C 0.79252 0.35903 0.11591 0.0
C1557 C 0.79812 0.33685 0.10462 0.0
C1558 C 0.81264 0.32215 0.11766 0.0
C1559 C 0.81766 0.30117 0.10716 0.0
C1560 C 0.80837 0.29472 0.08354 0.0
C1561 C 0.79407 0.30926 0.07035 0.0
C1562 C 0.78897 0.33026 0.08077 0.0
C1563 C 0.80763 0.45409 0.07695 0.0
C1564 C 0.79049 0.45614 0.05849 0.0
C1565 C 0.80796 0.43579 0.09403 0.0
C1566 C 0.79146 0.41907 0.09242 0.0
C1567 C 0.77476 0.42087 0.07355 0.0
C1568 C 0.77412 0.43929 0.057 0.0
C1569 C 0.79099 0.39973 0.11045 0.0
C1570 C 0.79516 0.37827 0.10058 0.0
C1571 C 0.78489 0.4021 0.13665 0.0
C1572 C 0.78049 0.42437 0.14818 0.0
C1573 C 0.76324 0.43805 0.13866 0.0
C1574 C 0.75934 0.45911 0.14957 0.0
C1575 C 0.77248 0.46659 0.17017 0.0
C1576 C 0.78949 0.45297 0.17995 0.0
C1577 C 0.79347 0.4319 0.16907 0.0
H1578 H 0.76943 0.48289 0.1786 0.0
H1579 H 0.81227 0.27847 0.07545 0.0
H1580 H 0.67231 0.77472 0.23463 0.0
H1581 H 0.64115 0.78997 0.20947 0.0
H1582 H 0.68234 0.79009 0.14131 0.0
H1583 H 0.71364 0.77558 0.16652 0.0
H1584 H 0.65184 0.82274 0.13786 0.0
H1585 H 0.65322 0.74382 0.15745 0.0
H1586 H 0.65469 0.71108 0.18642 0.0
H1587 H 0.59361 0.73199 0.22237 0.0
H1588 H 0.59198 0.76509 0.19385 0.0
H1589 H 0.56228 0.75805 0.05854 0.0
H1590 H 0.59164 0.76033 0.09088 0.0
H1591 H 0.57495 0.82959 0.10511 0.0
H1592 H 0.54577 0.82759 0.07182 0.0
H1593 H 0.59098 0.76637 0.13949 0.0
H1594 H 0.62215 0.85715 0.12695 0.0
H1595 H 0.62444 0.88627 0.09326 0.0
H1596 H 0.62554 0.83547 0.03455 0.0
H1597 H 0.62352 0.80607 0.0679 0.0
C1598 C 0.67501 0.77897 0.21457 0.0
C1599 C 0.69529 0.77364 0.20243 0.0
C1600 C 0.65713 0.78751 0.20013 0.0
C1601 C 0.65923 0.79062 0.17334 0.0
C1602 C 0.68023 0.78771 0.16188 0.0
C1603 C 0.6981 0.77931 0.17629 0.0
C1604 C 0.63916 0.79318 0.15659 0.0
C1605 C 0.63834 0.81063 0.13844 0.0
C1606 C 0.62184 0.77703 0.15681 0.0
C1607 C 0.62262 0.75704 0.17376 0.0
C1608 C 0.64018 0.7415 0.17165 0.0
C1609 C 0.64104 0.72289 0.18798 0.0
C1610 C 0.62429 0.71949 0.20628 0.0
C1611 C 0.6066 0.73468 0.20823 0.0
C1612 C 0.6057 0.75337 0.192 0.0
C1613 C 0.56481 0.77383 0.06847 0.0
C1614 C 0.55164 0.79265 0.06257 0.0
C1615 C 0.58161 0.77509 0.08709 0.0
C1616 C 0.58564 0.79513 0.10051 0.0
C1617 C 0.57243 0.814 0.09481 0.0
C1618 C 0.5557 0.81282 0.07584 0.0
C1619 C 0.60365 0.79582 0.12042 0.0
C1620 C 0.60411 0.77889 0.13923 0.0
C1621 C 0.62101 0.81196 0.1201 0.0
C1622 C 0.62238 0.82946 0.0999 0.0
C1623 C 0.62291 0.85222 0.10685 0.0
C1624 C 0.62417 0.86876 0.08782 0.0
C1625 C 0.62504 0.86273 0.06178 0.0
C1626 C 0.62476 0.84013 0.05472 0.0
C1627 C 0.62353 0.82352 0.07367 0.0
H1628 H 0.626 0.87556 0.04708 0.0
H1629 H 0.62497 0.70507 0.2189 0.0
H1630 H 0.21353 0.7068 0.18784 0.0
H1631 H 0.20018 0.67443 0.16307 0.0
H1632 H 0.26002 0.63816 0.18289 0.0
H1633 H 0.27312 0.67001 0.20839 0.0
H1634 H 0.25131 0.64506 0.12798 0.0
H1635 H 0.21528 0.61969 0.2063 0.0
H1636 H 0.18957 0.62343 0.24312 0.0
H1637 H 0.13431 0.63152 0.19101 0.0
H1638 H 0.15978 0.62817 0.15384 0.0
H1639 H 0.24637 0.53951 0.07731 0.0
H1640 H 0.2456 0.56859 0.11019 0.0
H1641 H 0.18075 0.58993 0.08355 0.0
H1642 H 0.18126 0.56027 0.0504 0.0
H1643 H 0.18716 0.59335 0.13931 0.0
H1644 H 0.2213 0.61613 0.06121 0.0
H1645 H 0.24586 0.61145 0.02361 0.0
H1646 H 0.30335 0.61118 0.07327 0.0
H1647 H 0.27901 0.61477 0.11138 0.0
C1648 C 0.22349 0.69166 0.18773 0.0
C1649 C 0.24456 0.69112 0.19988 0.0
C1650 C 0.21587 0.67322 0.17342 0.0
C1651 C 0.22923 0.65402 0.17096 0.0
C1652 C 0.24954 0.6529 0.18442 0.0
C1653 C 0.25702 0.67115 0.19892 0.0
C1654 C 0.22351 0.63616 0.15214 0.0
C1655 C 0.23739 0.63365 0.13057 0.0
C1656 C 0.20476 0.62195 0.15496 0.0
C1657 C 0.18948 0.62397 0.17729 0.0
C1658 C 0.19769 0.62252 0.20268 0.0
C1659 C 0.18315 0.62451 0.22362 0.0
C1660 C 0.16033 0.62779 0.21941 0.0
C1661 C 0.152 0.62903 0.19424 0.0
C1662 C 0.16648 0.62707 0.17323 0.0
C1663 C 0.23174 0.55012 0.07861 0.0
C1664 C 0.21403 0.54786 0.06095 0.0
C1665 C 0.2313 0.5667 0.09753 0.0
C1666 C 0.2133 0.58166 0.09905 0.0
C1667 C 0.19481 0.57855 0.08266 0.0
C1668 C 0.19516 0.56169 0.0637 0.0
C1669 C 0.21546 0.60183 0.11568 0.0
C1670 C 0.20093 0.60491 0.13662 0.0
C1671 C 0.23344 0.61693 0.11213 0.0
C1672 C 0.24828 0.61553 0.08922 0.0
C1673 C 0.23916 0.61488 0.06418 0.0
C1674 C 0.25306 0.61242 0.04275 0.0
C1675 C 0.27617 0.61112 0.04601 0.0
C1676 C 0.28543 0.61221 0.07076 0.0
C1677 C 0.27158 0.61437 0.09231 0.0
H1678 H 0.2869 0.60928 0.02937 0.0
H1679 H 0.1491 0.62932 0.23565 0.0
H1680 H 0.3457 0.75818 0.78486 0.0
H1681 H 0.37701 0.77124 0.81151 0.0
H1682 H 0.33097 0.80512 0.86204 0.0
H1683 H 0.29956 0.79151 0.83578 0.0
H1684 H 0.38028 0.82613 0.84968 0.0
H1685 H 0.33735 0.76218 0.88406 0.0
H1686 H 0.31881 0.72563 0.87791 0.0
H1687 H 0.38038 0.69721 0.85103 0.0
H1688 H 0.39916 0.73374 0.85658 0.0
H1689 H 0.44573 0.82516 0.96668 0.0
H1690 H 0.4166 0.82608 0.93323 0.0
H1691 H 0.44442 0.76639 0.89886 0.0
H1692 H 0.47262 0.76489 0.93272 0.0
H1693 H 0.403 0.7606 0.90248 0.0
H1694 H 0.44767 0.82127 0.87104 0.0
H1695 H 0.46776 0.85729 0.87309 0.0
H1696 H 0.40645 0.89145 0.8902 0.0
H1697 H 0.38603 0.85557 0.88859 0.0
C1698 C 0.34239 0.76927 0.80096 0.0
C1699 C 0.32035 0.77408 0.80821 0.0
C1700 C 0.36023 0.77665 0.8162 0.0
C1701 C 0.35625 0.78914 0.83869 0.0
C1702 C 0.33436 0.79572 0.84459 0.0
C1703 C 0.31647 0.78799 0.82961 0.0
C1704 C 0.37413 0.79144 0.85829 0.0
C1705 C 0.38518 0.81196 0.86151 0.0
C1706 C 0.38073 0.77278 0.8732 0.0
C1707 C 0.36958 0.75071 0.87048 0.0
C1708 C 0.34687 0.74818 0.87664 0.0
C1709 C 0.33634 0.72747 0.8733 0.0
C1710 C 0.34841 0.70912 0.86404 0.0
C1711 C 0.37105 0.71144 0.85817 0.0
C1712 C 0.38165 0.73214 0.86142 0.0
C1713 C 0.44571 0.81245 0.95176 0.0
C1714 C 0.46131 0.79487 0.9524 0.0
C1715 C 0.42912 0.813 0.93257 0.0
C1716 C 0.42824 0.79631 0.91336 0.0
C1717 C 0.44449 0.77934 0.91352 0.0
C1718 C 0.46068 0.77853 0.93288 0.0
C1719 C 0.40973 0.79539 0.89404 0.0
C1720 C 0.39832 0.77497 0.89085 0.0
C1721 C 0.40315 0.81411 0.87896 0.0
C1722 C 0.41537 0.8357 0.87997 0.0
C1723 C 0.4385 0.83644 0.87545 0.0
C1724 C 0.44994 0.85683 0.8765 0.0
C1725 C 0.4384 0.87664 0.88185 0.0
C1726 C 0.41537 0.87609 0.8861 0.0
C1727 C 0.40386 0.85573 0.88511 0.0
H1728 H 0.44728 0.89241 0.88264 0.0
H1729 H 0.34023 0.6931 0.86149 0.0
H1730 H 0.21797 0.29666 0.83021 0.0
H1731 H 0.20656 0.33123 0.85208 0.0
H1732 H 0.27157 0.35969 0.83794 0.0
H1733 H 0.28298 0.32533 0.81596 0.0
H1734 H 0.26053 0.36147 0.88845 0.0
H1735 H 0.22502 0.37931 0.80732 0.0
H1736 H 0.19967 0.37256 0.77057 0.0
H1737 H 0.14376 0.36961 0.82217 0.0
H1738 H 0.16884 0.37604 0.85929 0.0
H1739 H 0.25208 0.47065 0.9306 0.0
H1740 H 0.25371 0.43936 0.90049 0.0
H1741 H 0.18787 0.41846 0.92382 0.0
H1742 H 0.18592 0.45032 0.95394 0.0
H1743 H 0.19596 0.41127 0.87064 0.0
H1744 H 0.23055 0.39517 0.95139 0.0
H1745 H 0.25526 0.40332 0.98827 0.0
H1746 H 0.31236 0.40144 0.93839 0.0
H1747 H 0.28789 0.39416 0.90096 0.0
C1748 C 0.2296 0.31053 0.83109 0.0
C1749 C 0.25145 0.30819 0.82147 0.0
C1750 C 0.22308 0.33027 0.84371 0.0
C1751 C 0.23824 0.34805 0.8468 0.0
C1752 C 0.25963 0.34615 0.83599 0.0
C1753 C 0.26614 0.3265 0.8234 0.0
C1754 C 0.2327 0.36783 0.8631 0.0
C1755 C 0.24656 0.37248 0.88432 0.0
C1756 C 0.21393 0.38171 0.85841 0.0
C1757 C 0.19884 0.37791 0.83611 0.0
C1758 C 0.20735 0.37702 0.81085 0.0
C1759 C 0.19302 0.3733 0.78995 0.0
C1760 C 0.17013 0.37059 0.79404 0.0
C1761 C 0.16151 0.37167 0.81904 0.0
C1762 C 0.17577 0.37537 0.84001 0.0
C1763 C 0.23776 0.45964 0.9291 0.0
C1764 C 0.21899 0.46278 0.94494 0.0
C1765 C 0.23872 0.44175 0.91182 0.0
C1766 C 0.22111 0.42629 0.91027 0.0
C1767 C 0.20169 0.43014 0.92479 0.0
C1768 C 0.20061 0.44831 0.942 0.0
C1769 C 0.22423 0.40519 0.89539 0.0
C1770 C 0.20987 0.40018 0.87472 0.0
C1771 C 0.24245 0.39075 0.90067 0.0
C1772 C 0.25734 0.39431 0.9233 0.0
C1773 C 0.24836 0.39664 0.94823 0.0
C1774 C 0.26233 0.40113 0.96924 0.0
C1775 C 0.28538 0.40286 0.96569 0.0
C1776 C 0.2945 0.4001 0.9411 0.0
C1777 C 0.28058 0.39585 0.91996 0.0
H1778 H 0.29617 0.40634 0.98199 0.0
H1779 H 0.15906 0.36771 0.77783 0.0
H1780 H 0.71381 0.2611 0.84368 0.0
H1781 H 0.68277 0.25317 0.87284 0.0
H1782 H 0.63619 0.26288 0.81013 0.0
H1783 H 0.66732 0.27019 0.7808 0.0
H1784 H 0.65246 0.28104 0.88719 0.0
H1785 H 0.58735 0.23604 0.82237 0.0
H1786 H 0.58639 0.20921 0.78614 0.0
H1787 H 0.65004 0.18286 0.80936 0.0
H1788 H 0.65125 0.20931 0.84592 0.0
H1789 H 0.54709 0.28579 0.95002 0.0
H1790 H 0.57626 0.28871 0.91704 0.0
H1791 H 0.58717 0.21735 0.92142 0.0
H1792 H 0.5579 0.21422 0.95363 0.0
H1793 H 0.58853 0.22959 0.87334 0.0
H1794 H 0.62165 0.25535 0.95253 0.0
H1795 H 0.62503 0.27894 0.99143 0.0
H1796 H 0.62977 0.33777 0.94411 0.0
H1797 H 0.62612 0.31454 0.90492 0.0
C1798 C 0.69696 0.26088 0.83602 0.0
C1799 C 0.69292 0.26611 0.81 0.0
C1800 C 0.67923 0.25654 0.8527 0.0
C1801 C 0.6571 0.25748 0.84375 0.0
C1802 C 0.6531 0.26171 0.81746 0.0
C1803 C 0.67089 0.2658 0.80067 0.0
C1804 C 0.63831 0.25574 0.86233 0.0
C1805 C 0.6385 0.26974 0.88413 0.0
C1806 C 0.62012 0.24096 0.8585 0.0
C1807 C 0.61947 0.22483 0.83672 0.0
C1808 C 0.6011 0.22447 0.81979 0.0
C1809 C 0.60052 0.20933 0.79919 0.0
C1810 C 0.61818 0.1944 0.7954 0.0
C1811 C 0.63642 0.1945 0.81226 0.0
C1812 C 0.63707 0.20958 0.8329 0.0
C1813 C 0.55565 0.27074 0.94384 0.0
C1814 C 0.55021 0.24981 0.95456 0.0
C1815 C 0.57235 0.27242 0.92505 0.0
C1816 C 0.58408 0.25326 0.91692 0.0
C1817 C 0.57834 0.23235 0.92728 0.0
C1818 C 0.56162 0.23064 0.94584 0.0
C1819 C 0.60276 0.25481 0.8982 0.0
C1820 C 0.60248 0.2409 0.8763 0.0
C1821 C 0.62119 0.26923 0.90229 0.0
C1822 C 0.62335 0.28323 0.92582 0.0
C1823 C 0.62323 0.27333 0.95043 0.0
C1824 C 0.62523 0.28664 0.97253 0.0
C1825 C 0.62755 0.30985 0.97025 0.0
C1826 C 0.62793 0.3198 0.94585 0.0
C1827 C 0.6259 0.30657 0.92369 0.0
H1828 H 0.6291 0.32012 0.98738 0.0
H1829 H 0.61771 0.18271 0.77943 0.0
H1830 H 0.77165 0.71309 0.83613 0.0
H1831 H 0.78654 0.68398 0.86491 0.0
H1832 H 0.76389 0.63302 0.81207 0.0
H1833 H 0.74944 0.66202 0.78297 0.0
H1834 H 0.74709 0.6403 0.87369 0.0
H1835 H 0.80777 0.62604 0.81197 0.0
H1836 H 0.84013 0.63848 0.78637 0.0
H1837 H 0.87327 0.66033 0.85552 0.0
H1838 H 0.8409 0.64834 0.88147 0.0
H1839 H 0.76371 0.53839 0.93328 0.0
H1840 H 0.76297 0.56754 0.90047 0.0
H1841 H 0.81866 0.60047 0.9374 0.0
H1842 H 0.82001 0.57045 0.97005 0.0
H1843 H 0.82155 0.6053 0.88584 0.0
H1844 H 0.76528 0.61842 0.9483 0.0
H1845 H 0.73363 0.60952 0.97684 0.0
H1846 H 0.69263 0.59488 0.91087 0.0
H1847 H 0.72415 0.60336 0.88192 0.0
C1848 C 0.7706 0.6957 0.83024 0.0
C1849 C 0.75954 0.68981 0.80722 0.0
C1850 C 0.77908 0.67912 0.84668 0.0
C1851 C 0.77645 0.65639 0.84051 0.0
C1852 C 0.76638 0.65049 0.81697 0.0
C1853 C 0.75823 0.66707 0.80031 0.0
C1854 C 0.78097 0.63894 0.86022 0.0
C1855 C 0.76328 0.63241 0.87615 0.0
C1856 C 0.80235 0.62952 0.86419 0.0
C1857 C 0.8218 0.6366 0.8486 0.0
C1858 C 0.82183 0.63376 0.82167 0.0
C1859 C 0.84021 0.64065 0.80711 0.0
C1860 C 0.85871 0.65027 0.8193 0.0
C1861 C 0.8589 0.65293 0.84609 0.0
C1862 C 0.84056 0.64607 0.86073 0.0
C1863 C 0.776 0.55169 0.93429 0.0
C1864 C 0.79174 0.55231 0.95442 0.0
C1865 C 0.77551 0.56842 0.91554 0.0
C1866 C 0.79033 0.58662 0.9168 0.0
C1867 C 0.80692 0.58671 0.93611 0.0
C1868 C 0.80769 0.56959 0.95475 0.0
C1869 C 0.78735 0.60589 0.89876 0.0
C1870 C 0.80531 0.61306 0.8834 0.0
C1871 C 0.76623 0.61634 0.89562 0.0
C1872 C 0.74715 0.61136 0.91294 0.0
C1873 C 0.74956 0.61316 0.93988 0.0
C1874 C 0.73164 0.6082 0.95613 0.0
C1875 C 0.71115 0.60159 0.94568 0.0
C1876 C 0.70852 0.59998 0.91894 0.0
C1877 C 0.72641 0.60488 0.9026 0.0
H1878 H 0.69729 0.59776 0.95829 0.0
H1879 H 0.87292 0.65559 0.80799 0.0
loop_
_geom_bond_atom_site_label_1
_geom_bond_atom_site_label_2
_geom_bond_distance
_geom_bond_site_symmetry_2
_ccdc_geom_bond_type
H0 C8 0.930 . S
H1 C11 0.930 . S
H2 C13 0.930 . S
H3 C14 0.970 . S
H4 C14 0.970 . S
H5 C16 0.930 . S
H6 C18 0.930 . S
H7 C20 0.930 . S
C8 H0 0.930 . S
C8 C9 1.382 . S
C8 C10 1.426 . S
C9 C8 1.382 . S
C9 C13 1.389 . S
C10 C8 1.426 . S
C10 C11 1.375 . S
C10 C14 1.532 . S
C11 H1 0.930 . S
C11 C10 1.375 . S
C11 C12 1.416 . S
C12 C11 1.416 . S
C12 C13 1.371 . S
C13 H2 0.930 . S
C13 C9 1.389 . S
C13 C12 1.371 . S
C14 H3 0.970 . S
C14 H4 0.970 . S
C14 C10 1.532 . S
C14 C15 1.499 . S
C15 C14 1.499 . S
C15 C16 1.370 . S
C15 C20 1.415 . S
C16 H5 0.930 . S
C16 C15 1.370 . S
C16 C17 1.407 . S
C17 C16 1.407 . S
C17 C18 1.365 . S
C18 H6 0.930 . S
C18 C17 1.365 . S
C18 C19 1.393 . S
C19 C18 1.393 . S
C19 C20 1.387 . S
C20 H7 0.930 . S
C20 C15 1.415 . S
C20 C19 1.387 . S
H21 C29 0.930 . S
H22 C32 0.930 . S
H23 C34 0.930 . S
H24 C35 0.970 . S
H25 C35 0.970 . S
H26 C37 0.930 . S
H27 C39 0.930 . S
H28 C41 0.930 . S
C29 H21 0.930 . S
C29 C30 1.382 . S
C29 C31 1.426 . S
C30 C29 1.382 . S
C30 C34 1.389 . S
C31 C29 1.426 . S
C31 C32 1.375 . S
C31 C35 1.532 . S
C32 H22 0.930 . S
C32 C31 1.375 . S
C32 C33 1.416 . S
C33 C32 1.416 . S
C33 C34 1.371 . S
C34 H23 0.930 . S
C34 C30 1.389 . S
C34 C33 1.371 . S
C35 H24 0.970 . S
C35 H25 0.970 . S
C35 C31 1.532 . S
C35 C36 1.499 . S
C36 C35 1.499 . S
C36 C37 1.370 . S
C36 C41 1.415 . S
C37 H26 0.930 . S
C37 C36 1.370 . S
C37 C38 1.407 . S
C38 C37 1.407 . S
C38 C39 1.365 . S
C39 H27 0.930 . S
C39 C38 1.365 . S
C39 C40 1.393 . S
C40 C39 1.393 . S
C40 C41 1.387 . S
C41 H28 0.930 . S
C41 C36 1.415 . S
C41 C40 1.387 . S
H42 C50 0.930 . S
H43 C53 0.930 . S
H44 C55 0.930 . S
H45 C56 0.970 . S
H46 C56 0.970 . S
H47 C58 0.930 . S
H48 C60 0.930 . S
H49 C62 0.930 . S
C50 H42 0.930 . S
C50 C51 1.382 . S
C50 C52 1.426 . S
C51 C50 1.382 . S
C51 C55 1.389 . S
C52 C50 1.426 . S
C52 C53 1.375 . S
C52 C56 1.532 . S
C53 H43 0.930 . S
C53 C52 1.375 . S
C53 C54 1.416 . S
C54 C53 1.416 . S
C54 C55 1.371 . S
C55 H44 0.930 . S
C55 C51 1.389 . S
C55 C54 1.371 . S
C56 H45 0.970 . S
C56 H46 0.970 . S
C56 C52 1.532 . S
C56 C57 1.499 . S
C57 C56 1.499 . S
C57 C58 1.370 . S
C57 C62 1.415 . S
C58 H47 0.930 . S
C58 C57 1.370 . S
C58 C59 1.407 . S
C59 C58 1.407 . S
C59 C60 1.365 . S
C60 H48 0.930 . S
C60 C59 1.365 . S
C60 C61 1.393 . S
C61 C60 1.393 . S
C61 C62 1.387 . S
C62 H49 0.930 . S
C62 C57 1.415 . S
C62 C61 1.387 . S
H63 C71 0.930 . S
H64 C74 0.930 . S
H65 C76 0.930 . S
H66 C77 0.970 . S
H67 C77 0.970 . S
H68 C79 0.930 . S
H69 C81 0.930 . S
H70 C83 0.930 . S
C71 H63 0.930 . S
C71 C72 1.382 . S
C71 C73 1.426 . S
C72 C71 1.382 . S
C72 C76 1.389 . S
C73 C71 1.426 . S
C73 C74 1.375 . S
C73 C77 1.532 . S
C74 H64 0.930 . S
C74 C73 1.375 . S
C74 C75 1.416 . S
C75 C74 1.416 . S
C75 C76 1.371 . S
C76 H65 0.930 . S
C76 C72 1.389 . S
C76 C75 1.371 . S
C77 H66 0.970 . S
C77 H67 0.970 . S
C77 C73 1.532 . S
C77 C78 1.499 . S
C78 C77 1.499 . S
C78 C79 1.370 . S
C78 C83 1.415 . S
C79 H68 0.930 . S
C79 C78 1.370 . S
C79 C80 1.407 . S
C80 C79 1.407 . S
C80 C81 1.365 . S
C81 H69 0.930 . S
C81 C80 1.365 . S
C81 C82 1.393 . S
C82 C81 1.393 . S
C82 C83 1.387 . S
C83 H70 0.930 . S
C83 C78 1.415 . S
C83 C82 1.387 . S
H84 C92 0.930 . S
H85 C95 0.930 . S
H86 C97 0.930 . S
H87 C98 0.970 . S
H88 C98 0.970 . S
H89 C100 0.930 . S
H90 C102 0.930 . S
H91 C104 0.930 . S
C92 H84 0.930 . S
C92 C93 1.382 . S
C92 C94 1.426 . S
C93 C92 1.382 . S
C93 C97 1.389 . S
C94 C92 1.426 . S
C94 C95 1.375 . S
C94 C98 1.532 . S
C95 H85 0.930 . S
C95 C94 1.375 . S
C95 C96 1.416 . S
C96 C95 1.416 . S
C96 C97 1.371 . S
C97 H86 0.930 . S
C97 C93 1.389 . S
C97 C96 1.371 . S
C98 H87 0.970 . S
C98 H88 0.970 . S
C98 C94 1.532 . S
C98 C99 1.499 . S
C99 C98 1.499 . S
C99 C100 1.370 . S
C99 C104 1.415 . S
C100 H89 0.930 . S
C100 C99 1.370 . S
C100 C101 1.407 . S
C101 C100 1.407 . S
C101 C102 1.365 . S
C102 H90 0.930 . S
C102 C101 1.365 . S
C102 C103 1.393 . S
C103 C102 1.393 . S
C103 C104 1.387 . S
C104 H91 0.930 . S
C104 C99 1.415 . S
C104 C103 1.387 . S
H105 C113 0.930 . S
H106 C116 0.930 . S
H107 C118 0.930 . S
H108 C119 0.970 . S
H109 C119 0.970 . S
H110 C121 0.930 . S
H111 C123 0.930 . S
H112 C125 0.930 . S
C113 H105 0.930 . S
C113 C114 1.382 . S
C113 C115 1.426 . S
C114 C113 1.382 . S
C114 C118 1.389 . S
C115 C113 1.426 . S
C115 C116 1.375 . S
C115 C119 1.532 . S
C116 H106 0.930 . S
C116 C115 1.375 . S
C116 C117 1.416 . S
C117 C116 1.416 . S
C117 C118 1.371 . S
C118 H107 0.930 . S
C118 C114 1.389 . S
C118 C117 1.371 . S
C119 H108 0.970 . S
C119 H109 0.970 . S
C119 C115 1.532 . S
C119 C120 1.499 . S
C120 C119 1.499 . S
C120 C121 1.370 . S
C120 C125 1.415 . S
C121 H110 0.930 . S
C121 C120 1.370 . S
C121 C122 1.407 . S
C122 C121 1.407 . S
C122 C123 1.365 . S
C123 H111 0.930 . S
C123 C122 1.365 . S
C123 C124 1.393 . S
C124 C123 1.393 . S
C124 C125 1.387 . S
C125 H112 0.930 . S
C125 C120 1.415 . S
C125 C124 1.387 . S
H126 C134 0.930 . S
H127 C137 0.930 . S
H128 C139 0.930 . S
H129 C140 0.970 . S
H130 C140 0.970 . S
H131 C142 0.930 . S
H132 C144 0.930 . S
H133 C146 0.930 . S
C134 H126 0.930 . S
C134 C135 1.382 . S
C134 C136 1.426 . S
C135 C134 1.382 . S
C135 C139 1.389 . S
C136 C134 1.426 . S
C136 C137 1.375 . S
C136 C140 1.532 . S
C137 H127 0.930 . S
C137 C136 1.375 . S
C137 C138 1.416 . S
C138 C137 1.416 . S
C138 C139 1.371 . S
C139 H128 0.930 . S
C139 C135 1.389 . S
C139 C138 1.371 . S
C140 H129 0.970 . S
C140 H130 0.970 . S
C140 C136 1.532 . S
C140 C141 1.499 . S
C141 C140 1.499 . S
C141 C142 1.370 . S
C141 C146 1.415 . S
C142 H131 0.930 . S
C142 C141 1.370 . S
C142 C143 1.407 . S
C143 C142 1.407 . S
C143 C144 1.365 . S
C144 H132 0.930 . S
C144 C143 1.365 . S
C144 C145 1.393 . S
C145 C144 1.393 . S
C145 C146 1.387 . S
C146 H133 0.930 . S
C146 C141 1.415 . S
C146 C145 1.387 . S
H147 C155 0.930 . S
H148 C158 0.930 . S
H149 C160 0.930 . S
H150 C161 0.970 . S
H151 C161 0.970 . S
H152 C163 0.930 . S
H153 C165 0.930 . S
H154 C167 0.930 . S
C155 H147 0.930 . S
C155 C156 1.382 . S
C155 C157 1.426 . S
C156 C155 1.382 . S
C156 C160 1.389 . S
C157 C155 1.426 . S
C157 C158 1.375 . S
C157 C161 1.532 . S
C158 H148 0.930 . S
C158 C157 1.375 . S
C158 C159 1.416 . S
C159 C158 1.416 . S
C159 C160 1.371 . S
C160 H149 0.930 . S
C160 C156 1.389 . S
C160 C159 1.371 . S
C161 H150 0.970 . S
C161 H151 0.970 . S
C161 C157 1.532 . S
C161 C162 1.499 . S
C162 C161 1.499 . S
C162 C163 1.370 . S
C162 C167 1.415 . S
C163 H152 0.930 . S
C163 C162 1.370 . S
C163 C164 1.407 . S
C164 C163 1.407 . S
C164 C165 1.365 . S
C165 H153 0.930 . S
C165 C164 1.365 . S
C165 C166 1.393 . S
C166 C165 1.393 . S
C166 C167 1.387 . S
C167 H154 0.930 . S
C167 C162 1.415 . S
C167 C166 1.387 . S
C168 O170 1.247 . S
C168 O172 1.258 . S
C169 O176 1.247 . S
C169 O177 1.258 . S
O170 C168 1.247 . S
O170 Zn171 2.028 1_655 S
Zn171 O170 2.028 1_455 S
Zn171 O175 2.035 . S
Zn171 O177 2.035 . S
Zn171 O178 2.028 1_455 S
O172 C168 1.258 . S
O172 Zn173 2.035 1_655 S
Zn173 O172 2.035 1_455 S
Zn173 O174 2.028 . S
Zn173 O176 2.028 . S
Zn173 O179 2.035 1_455 S
O174 Zn173 2.028 . S
O174 C180 1.247 . S
O175 Zn171 2.035 . S
O175 C180 1.258 . S
O176 C169 1.247 . S
O176 Zn173 2.028 . S
O177 C169 1.258 . S
O177 Zn171 2.035 . S
O178 Zn171 2.028 1_655 S
O178 C181 1.247 . S
O179 Zn173 2.035 1_655 S
O179 C181 1.258 . S
C180 O174 1.247 . S
C180 O175 1.258 . S
C181 O178 1.247 . S
C181 O179 1.258 . S
C182 O184 1.247 . S
C182 O186 1.258 . S
C183 O190 1.247 . S
C183 O191 1.258 . S
O184 C182 1.247 . S
O184 Zn185 2.028 . S
Zn185 O184 2.028 . S
Zn185 O189 2.035 1_545 S
Zn185 O191 2.035 1_545 S
Zn185 O192 2.028 . S
O186 C182 1.258 . S
O186 Zn187 2.035 . S
Zn187 O186 2.035 . S
Zn187 O188 2.028 1_545 S
Zn187 O190 2.028 1_545 S
Zn187 O193 2.035 . S
O188 Zn187 2.028 1_565 S
O188 C194 1.247 . S
O189 Zn185 2.035 1_565 S
O189 C194 1.258 . S
O190 C183 1.247 . S
O190 Zn187 2.028 1_565 S
O191 C183 1.258 . S
O191 Zn185 2.035 1_565 S
O192 Zn185 2.028 . S
O192 C195 1.247 . S
O193 Zn187 2.035 . S
O193 C195 1.258 . S
C194 O188 1.247 . S
C194 O189 1.258 . S
C195 O192 1.247 . S
C195 O193 1.258 . S
C196 O198 1.247 . S
C196 O200 1.258 . S
C197 O204 1.247 . S
C197 O205 1.258 . S
O198 C196 1.247 . S
O198 Zn199 2.028 1_655 S
Zn199 O198 2.028 1_455 S
Zn199 O203 2.035 . S
Zn199 O205 2.035 . S
Zn199 O206 2.028 1_455 S
O200 C196 1.258 . S
O200 Zn201 2.035 1_655 S
Zn201 O200 2.035 1_455 S
Zn201 O202 2.028 . S
Zn201 O204 2.028 . S
Zn201 O207 2.035 1_455 S
O202 Zn201 2.028 . S
O202 C208 1.247 . S
O203 Zn199 2.035 . S
O203 C208 1.258 . S
O204 C197 1.247 . S
O204 Zn201 2.028 . S
O205 C197 1.258 . S
O205 Zn199 2.035 . S
O206 Zn199 2.028 1_655 S
O206 C209 1.247 . S
O207 Zn201 2.035 1_655 S
O207 C209 1.258 . S
C208 O202 1.247 . S
C208 O203 1.258 . S
C209 O206 1.247 . S
C209 O207 1.258 . S
C210 O212 1.247 . S
C210 O214 1.258 . S
C211 O218 1.247 . S
C211 O219 1.258 . S
O212 C210 1.247 . S
O212 Zn213 2.028 . S
Zn213 O212 2.028 . S
Zn213 O217 2.035 1_545 S
Zn213 O219 2.035 1_545 S
Zn213 O220 2.028 . S
O214 C210 1.258 . S
O214 Zn215 2.035 . S
Zn215 O214 2.035 . S
Zn215 O216 2.028 1_545 S
Zn215 O218 2.028 1_545 S
Zn215 O221 2.035 . S
O216 Zn215 2.028 1_565 S
O216 C222 1.247 . S
O217 Zn213 2.035 1_565 S
O217 C222 1.258 . S
O218 C211 1.247 . S
O218 Zn215 2.028 1_565 S
O219 C211 1.258 . S
O219 Zn213 2.035 1_565 S
O220 Zn213 2.028 . S
O220 C223 1.247 . S
O221 Zn215 2.035 . S
O221 C223 1.258 . S
C222 O216 1.247 . S
C222 O217 1.258 . S
C223 O220 1.247 . S
C223 O221 1.258 . S
C224 O226 1.247 . S
C224 O228 1.258 . S
C225 O232 1.247 . S
C225 O233 1.258 . S
O226 C224 1.247 . S
O226 Zn227 2.037 . S
Zn227 O226 2.037 . S
Zn227 O231 2.044 . S
Zn227 O233 2.027 1_554 S
Zn227 O234 2.019 1_554 S
O228 C224 1.258 . S
O228 Zn229 2.037 . S
Zn229 O228 2.037 . S
Zn229 O230 2.030 . S
Zn229 O232 2.026 1_554 S
Zn229 O235 2.033 1_554 S
O230 Zn229 2.030 . S
O230 C236 1.247 . S
O231 Zn227 2.044 . S
O231 C236 1.258 . S
O232 C225 1.247 . S
O232 Zn229 2.026 1_556 S
O233 C225 1.258 . S
O233 Zn227 2.027 1_556 S
O234 Zn227 2.019 1_556 S
O234 C237 1.247 . S
O235 Zn229 2.033 1_556 S
O235 C237 1.258 . S
C236 O230 1.247 . S
C236 O231 1.258 . S
C237 O234 1.247 . S
C237 O235 1.258 . S
C238 O240 1.247 . S
C238 O242 1.258 . S
C239 O246 1.247 . S
C239 O247 1.258 . S
O240 C238 1.247 . S
O240 Zn241 2.046 . S
Zn241 O240 2.046 . S
Zn241 O245 2.053 . S
Zn241 O247 2.018 1_554 S
Zn241 O248 2.010 1_554 S
O242 C238 1.258 . S
O242 Zn243 2.060 . S
Zn243 O242 2.060 . S
Zn243 O244 2.053 . S
Zn243 O246 2.003 1_554 S
Zn243 O249 2.010 1_554 S
O244 Zn243 2.053 . S
O244 C250 1.247 . S
O245 Zn241 2.053 . S
O245 C250 1.258 . S
O246 C239 1.247 . S
O246 Zn243 2.003 1_556 S
O247 C239 1.258 . S
O247 Zn241 2.018 1_556 S
O248 Zn241 2.010 1_556 S
O248 C251 1.247 . S
O249 Zn243 2.010 1_556 S
O249 C251 1.258 . S
C250 O244 1.247 . S
C250 O245 1.258 . S
C251 O248 1.247 . S
C251 O249 1.258 . S
C252 O254 1.247 . S
C252 O256 1.258 . S
C253 O260 1.247 . S
C253 O261 1.258 . S
O254 C252 1.247 . S
O254 Zn255 2.028 1_556 S
Zn255 O254 2.028 1_554 S
Zn255 O259 2.035 1_554 S
Zn255 O261 2.035 . S
Zn255 O262 2.028 . S
O256 C252 1.258 . S
O256 Zn257 2.035 1_556 S
Zn257 O256 2.035 1_554 S
Zn257 O258 2.028 1_554 S
Zn257 O260 2.028 . S
Zn257 O263 2.035 . S
O258 Zn257 2.028 1_556 S
O258 C264 1.247 . S
O259 Zn255 2.035 1_556 S
O259 C264 1.258 . S
O260 C253 1.247 . S
O260 Zn257 2.028 . S
O261 C253 1.258 . S
O261 Zn255 2.035 . S
O262 Zn255 2.028 . S
O262 C265 1.247 . S
O263 Zn257 2.035 . S
O263 C265 1.258 . S
C264 O258 1.247 . S
C264 O259 1.258 . S
C265 O262 1.247 . S
C265 O263 1.258 . S
C266 O268 1.247 . S
C266 O270 1.258 . S
C267 O274 1.247 . S
C267 O275 1.258 . S
O268 C266 1.247 . S
O268 Zn269 2.028 . S
Zn269 O268 2.028 . S
Zn269 O273 2.035 . S
Zn269 O275 2.035 1_554 S
Zn269 O276 2.028 1_554 S
O270 C266 1.258 . S
O270 Zn271 2.035 . S
Zn271 O270 2.035 . S
Zn271 O272 2.028 . S
Zn271 O274 2.028 1_554 S
Zn271 O277 2.035 1_554 S
O272 Zn271 2.028 . S
O272 C278 1.247 . S
O273 Zn269 2.035 . S
O273 C278 1.258 . S
O274 C267 1.247 . S
O274 Zn271 2.028 1_556 S
O275 C267 1.258 . S
O275 Zn269 2.035 1_556 S
O276 Zn269 2.028 1_556 S
O276 C279 1.247 . S
O277 Zn271 2.035 1_556 S
O277 C279 1.258 . S
C278 O272 1.247 . S
C278 O273 1.258 . S
C279 O276 1.247 . S
C279 O277 1.258 . S
H280 C298 0.951 . S
H281 C300 0.951 . S
H282 C302 0.950 . S
H283 C303 0.950 . S
H284 C305 0.950 . S
H285 C308 0.950 . S
H286 C309 0.950 . S
H287 C311 0.950 . S
H288 C312 0.950 . S
H289 C313 0.951 . S
H290 C315 0.951 . S
H291 C317 0.950 . S
H292 C318 0.950 . S
H293 C320 0.950 . S
H294 C323 0.950 . S
H295 C324 0.950 . S
H296 C326 0.950 . S
H297 C327 0.950 . S
C298 H280 0.951 . S
C298 C299 1.366 . S
C298 C300 1.388 . S
C299 C298 1.366 . S
C299 C303 1.385 . S
C300 H281 0.951 . S
C300 C298 1.388 . S
C300 C301 1.366 . S
C301 C300 1.366 . S
C301 C302 1.414 . S
C301 C304 1.499 . S
C302 H282 0.950 . S
C302 C301 1.414 . S
C302 C303 1.374 . S
C303 H283 0.950 . S
C303 C299 1.385 . S
C303 C302 1.374 . S
C304 C301 1.499 . S
C304 C305 1.373 . S
C304 C306 1.389 . S
C305 H284 0.950 . S
C305 C304 1.373 . S
C305 C321 1.377 . S
C306 C304 1.389 . S
C306 C307 1.524 . S
C306 C320 1.377 . S
C307 C306 1.524 . S
C307 C308 1.397 . S
C307 C312 1.363 . S
C308 H285 0.950 . S
C308 C307 1.397 . S
C308 C309 1.334 . S
C309 H286 0.950 . S
C309 C308 1.334 . S
C309 C310 1.287 . S
C310 C309 1.287 . S
C310 C311 1.524 . S
C310 H329 0.913 . S
C311 H287 0.950 . S
C311 C310 1.524 . S
C311 C312 1.415 . S
C312 H288 0.950 . S
C312 C307 1.363 . S
C312 C311 1.415 . S
C313 H289 0.951 . S
C313 C314 1.366 . S
C313 C315 1.388 . S
C314 C313 1.366 . S
C314 C318 1.385 . S
C315 H290 0.951 . S
C315 C313 1.388 . S
C315 C316 1.366 . S
C316 C315 1.366 . S
C316 C317 1.414 . S
C316 C319 1.499 . S
C317 H291 0.950 . S
C317 C316 1.414 . S
C317 C318 1.374 . S
C318 H292 0.950 . S
C318 C314 1.385 . S
C318 C317 1.374 . S
C319 C316 1.499 . S
C319 C320 1.373 . S
C319 C321 1.389 . S
C320 H293 0.950 . S
C320 C306 1.377 . S
C320 C319 1.373 . S
C321 C305 1.377 . S
C321 C319 1.389 . S
C321 C322 1.524 . S
C322 C321 1.524 . S
C322 C323 1.397 . S
C322 C327 1.363 . S
C323 H294 0.950 . S
C323 C322 1.397 . S
C323 C324 1.334 . S
C324 H295 0.950 . S
C324 C323 1.334 . S
C324 C325 1.287 . S
C325 C324 1.287 . S
C325 C326 1.524 . S
C325 H328 0.999 . S
C326 H296 0.950 . S
C326 C325 1.524 . S
C326 C327 1.415 . S
C327 H297 0.950 . S
C327 C322 1.363 . S
C327 C326 1.415 . S
H328 C325 0.999 . S
H329 C310 0.913 . S
H330 C348 0.951 . S
H331 C350 0.951 . S
H332 C352 0.950 . S
H333 C353 0.950 . S
H334 C355 0.950 . S
H335 C358 0.950 . S
H336 C359 0.950 . S
H337 C361 0.950 . S
H338 C362 0.950 . S
H339 C363 0.951 . S
H340 C365 0.951 . S
H341 C367 0.950 . S
H342 C368 0.950 . S
H343 C370 0.950 . S
H344 C373 0.950 . S
H345 C374 0.950 . S
H346 C376 0.950 . S
H347 C377 0.950 . S
C348 H330 0.951 . S
C348 C349 1.366 . S
C348 C350 1.388 . S
C349 C348 1.366 . S
C349 C353 1.385 . S
C350 H331 0.951 . S
C350 C348 1.388 . S
C350 C351 1.366 . S
C351 C350 1.366 . S
C351 C352 1.414 . S
C351 C354 1.499 . S
C352 H332 0.950 . S
C352 C351 1.414 . S
C352 C353 1.374 . S
C353 H333 0.950 . S
C353 C349 1.385 . S
C353 C352 1.374 . S
C354 C351 1.499 . S
C354 C355 1.373 . S
C354 C356 1.389 . S
C355 H334 0.950 . S
C355 C354 1.373 . S
C355 C371 1.377 . S
C356 C354 1.389 . S
C356 C357 1.524 . S
C356 C370 1.377 . S
C357 C356 1.524 . S
C357 C358 1.397 . S
C357 C362 1.363 . S
C358 H335 0.950 . S
C358 C357 1.397 . S
C358 C359 1.334 . S
C359 H336 0.950 . S
C359 C358 1.334 . S
C359 C360 1.287 . S
C360 C359 1.287 . S
C360 C361 1.524 . S
C360 H379 0.913 . S
C361 H337 0.950 . S
C361 C360 1.524 . S
C361 C362 1.415 . S
C362 H338 0.950 . S
C362 C357 1.363 . S
C362 C361 1.415 . S
C363 H339 0.951 . S
C363 C364 1.366 . S
C363 C365 1.388 . S
C364 C363 1.366 . S
C364 C368 1.385 . S
C365 H340 0.951 . S
C365 C363 1.388 . S
C365 C366 1.366 . S
C366 C365 1.366 . S
C366 C367 1.414 . S
C366 C369 1.499 . S
C367 H341 0.950 . S
C367 C366 1.414 . S
C367 C368 1.374 . S
C368 H342 0.950 . S
C368 C364 1.385 . S
C368 C367 1.374 . S
C369 C366 1.499 . S
C369 C370 1.373 . S
C369 C371 1.389 . S
C370 H343 0.950 . S
C370 C356 1.377 . S
C370 C369 1.373 . S
C371 C355 1.377 . S
C371 C369 1.389 . S
C371 C372 1.524 . S
C372 C371 1.524 . S
C372 C373 1.397 . S
C372 C377 1.363 . S
C373 H344 0.950 . S
C373 C372 1.397 . S
C373 C374 1.334 . S
C374 H345 0.950 . S
C374 C373 1.334 . S
C374 C375 1.287 . S
C375 C374 1.287 . S
C375 C376 1.524 . S
C375 H378 0.999 . S
C376 H346 0.950 . S
C376 C375 1.524 . S
C376 C377 1.415 . S
C377 H347 0.950 . S
C377 C372 1.363 . S
C377 C376 1.415 . S
H378 C375 0.999 . S
H379 C360 0.913 . S
H380 C398 0.951 . S
H381 C400 0.951 . S
H382 C402 0.950 . S
H383 C403 0.950 . S
H384 C405 0.950 . S
H385 C408 0.950 . S
H386 C409 0.950 . S
H387 C411 0.950 . S
H388 C412 0.950 . S
H389 C413 0.951 . S
H390 C415 0.951 . S
H391 C417 0.950 . S
H392 C418 0.950 . S
H393 C420 0.950 . S
H394 C423 0.950 . S
H395 C424 0.950 . S
H396 C426 0.950 . S
H397 C427 0.950 . S
C398 H380 0.951 . S
C398 C399 1.366 . S
C398 C400 1.388 . S
C399 C398 1.366 . S
C399 C403 1.385 . S
C400 H381 0.951 . S
C400 C398 1.388 . S
C400 C401 1.366 . S
C401 C400 1.366 . S
C401 C402 1.414 . S
C401 C404 1.499 . S
C402 H382 0.950 . S
C402 C401 1.414 . S
C402 C403 1.374 . S
C403 H383 0.950 . S
C403 C399 1.385 . S
C403 C402 1.374 . S
C404 C401 1.499 . S
C404 C405 1.373 . S
C404 C406 1.389 . S
C405 H384 0.950 . S
C405 C404 1.373 . S
C405 C421 1.377 . S
C406 C404 1.389 . S
C406 C407 1.524 . S
C406 C420 1.377 . S
C407 C406 1.524 . S
C407 C408 1.397 . S
C407 C412 1.363 . S
C408 H385 0.950 . S
C408 C407 1.397 . S
C408 C409 1.334 . S
C409 H386 0.950 . S
C409 C408 1.334 . S
C409 C410 1.287 . S
C410 C409 1.287 . S
C410 C411 1.524 . S
C410 H429 0.913 . S
C411 H387 0.950 . S
C411 C410 1.524 . S
C411 C412 1.415 . S
C412 H388 0.950 . S
C412 C407 1.363 . S
C412 C411 1.415 . S
C413 H389 0.951 . S
C413 C414 1.366 . S
C413 C415 1.388 . S
C414 C413 1.366 . S
C414 C418 1.385 . S
C415 H390 0.951 . S
C415 C413 1.388 . S
C415 C416 1.366 . S
C416 C415 1.366 . S
C416 C417 1.414 . S
C416 C419 1.499 . S
C417 H391 0.950 . S
C417 C416 1.414 . S
C417 C418 1.374 . S
C418 H392 0.950 . S
C418 C414 1.385 . S
C418 C417 1.374 . S
C419 C416 1.499 . S
C419 C420 1.373 . S
C419 C421 1.389 . S
C420 H393 0.950 . S
C420 C406 1.377 . S
C420 C419 1.373 . S
C421 C405 1.377 . S
C421 C419 1.389 . S
C421 C422 1.524 . S
C422 C421 1.524 . S
C422 C423 1.397 . S
C422 C427 1.363 . S
C423 H394 0.950 . S
C423 C422 1.397 . S
C423 C424 1.334 . S
C424 H395 0.950 . S
C424 C423 1.334 . S
C424 C425 1.287 . S
C425 C424 1.287 . S
C425 C426 1.524 . S
C425 H428 0.999 . S
C426 H396 0.950 . S
C426 C425 1.524 . S
C426 C427 1.415 . S
C427 H397 0.950 . S
C427 C422 1.363 . S
C427 C426 1.415 . S
H428 C425 0.999 . S
H429 C410 0.913 . S
H430 C448 0.951 . S
H431 C450 0.951 . S
H432 C452 0.950 . S
H433 C453 0.950 . S
H434 C455 0.950 . S
H435 C458 0.950 . S
H436 C459 0.950 . S
H437 C461 0.950 . S
H438 C462 0.950 . S
H439 C463 0.951 . S
H440 C465 0.951 . S
H441 C467 0.950 . S
H442 C468 0.950 . S
H443 C470 0.950 . S
H444 C473 0.950 . S
H445 C474 0.950 . S
H446 C476 0.950 . S
H447 C477 0.950 . S
C448 H430 0.951 . S
C448 C449 1.366 . S
C448 C450 1.388 . S
C449 C448 1.366 . S
C449 C453 1.385 . S
C450 H431 0.951 . S
C450 C448 1.388 . S
C450 C451 1.366 . S
C451 C450 1.366 . S
C451 C452 1.414 . S
C451 C454 1.499 . S
C452 H432 0.950 . S
C452 C451 1.414 . S
C452 C453 1.374 . S
C453 H433 0.950 . S
C453 C449 1.385 . S
C453 C452 1.374 . S
C454 C451 1.499 . S
C454 C455 1.373 . S
C454 C456 1.389 . S
C455 H434 0.950 . S
C455 C454 1.373 . S
C455 C471 1.377 . S
C456 C454 1.389 . S
C456 C457 1.524 . S
C456 C470 1.377 . S
C457 C456 1.524 . S
C457 C458 1.397 . S
C457 C462 1.363 . S
C458 H435 0.950 . S
C458 C457 1.397 . S
C458 C459 1.334 . S
C459 H436 0.950 . S
C459 C458 1.334 . S
C459 C460 1.287 . S
C460 C459 1.287 . S
C460 C461 1.524 . S
C460 H479 0.913 . S
C461 H437 0.950 . S
C461 C460 1.524 . S
C461 C462 1.415 . S
C462 H438 0.950 . S
C462 C457 1.363 . S
C462 C461 1.415 . S
C463 H439 0.951 . S
C463 C464 1.366 . S
C463 C465 1.388 . S
C464 C463 1.366 . S
C464 C468 1.385 . S
C465 H440 0.951 . S
C465 C463 1.388 . S
C465 C466 1.366 . S
C466 C465 1.366 . S
C466 C467 1.414 . S
C466 C469 1.499 . S
C467 H441 0.950 . S
C467 C466 1.414 . S
C467 C468 1.374 . S
C468 H442 0.950 . S
C468 C464 1.385 . S
C468 C467 1.374 . S
C469 C466 1.499 . S
C469 C470 1.373 . S
C469 C471 1.389 . S
C470 H443 0.950 . S
C470 C456 1.377 . S
C470 C469 1.373 . S
C471 C455 1.377 . S
C471 C469 1.389 . S
C471 C472 1.524 . S
C472 C471 1.524 . S
C472 C473 1.397 . S
C472 C477 1.363 . S
C473 H444 0.950 . S
C473 C472 1.397 . S
C473 C474 1.334 . S
C474 H445 0.950 . S
C474 C473 1.334 . S
C474 C475 1.287 . S
C475 C474 1.287 . S
C475 C476 1.524 . S
C475 H478 0.999 . S
C476 H446 0.950 . S
C476 C475 1.524 . S
C476 C477 1.415 . S
C477 H447 0.950 . S
C477 C472 1.363 . S
C477 C476 1.415 . S
H478 C475 0.999 . S
H479 C460 0.913 . S
H480 C498 0.951 . S
H481 C500 0.951 . S
H482 C502 0.950 . S
H483 C503 0.950 . S
H484 C505 0.950 . S
H485 C508 0.950 . S
H486 C509 0.950 . S
H487 C511 0.950 . S
H488 C512 0.950 . S
H489 C513 0.951 . S
H490 C515 0.951 . S
H491 C517 0.950 . S
H492 C518 0.950 . S
H493 C520 0.950 . S
H494 C523 0.950 . S
H495 C524 0.950 . S
H496 C526 0.950 . S
H497 C527 0.950 . S
C498 H480 0.951 . S
C498 C499 1.366 . S
C498 C500 1.388 . S
C499 C498 1.366 . S
C499 C503 1.385 . S
C500 H481 0.951 . S
C500 C498 1.388 . S
C500 C501 1.366 . S
C501 C500 1.366 . S
C501 C502 1.414 . S
C501 C504 1.499 . S
C502 H482 0.950 . S
C502 C501 1.414 . S
C502 C503 1.374 . S
C503 H483 0.950 . S
C503 C499 1.385 . S
C503 C502 1.374 . S
C504 C501 1.499 . S
C504 C505 1.373 . S
C504 C506 1.389 . S
C505 H484 0.950 . S
C505 C504 1.373 . S
C505 C521 1.377 . S
C506 C504 1.389 . S
C506 C507 1.524 . S
C506 C520 1.377 . S
C507 C506 1.524 . S
C507 C508 1.397 . S
C507 C512 1.363 . S
C508 H485 0.950 . S
C508 C507 1.397 . S
C508 C509 1.334 . S
C509 H486 0.950 . S
C509 C508 1.334 . S
C509 C510 1.287 . S
C510 C509 1.287 . S
C510 C511 1.524 . S
C510 H529 0.913 . S
C511 H487 0.950 . S
C511 C510 1.524 . S
C511 C512 1.415 . S
C512 H488 0.950 . S
C512 C507 1.363 . S
C512 C511 1.415 . S
C513 H489 0.951 . S
C513 C514 1.366 . S
C513 C515 1.388 . S
C514 C513 1.366 . S
C514 C518 1.385 . S
C515 H490 0.951 . S
C515 C513 1.388 . S
C515 C516 1.366 . S
C516 C515 1.366 . S
C516 C517 1.414 . S
C516 C519 1.499 . S
C517 H491 0.950 . S
C517 C516 1.414 . S
C517 C518 1.374 . S
C518 H492 0.950 . S
C518 C514 1.385 . S
C518 C517 1.374 . S
C519 C516 1.499 . S
C519 C520 1.373 . S
C519 C521 1.389 . S
C520 H493 0.950 . S
C520 C506 1.377 . S
C520 C519 1.373 . S
C521 C505 1.377 . S
C521 C519 1.389 . S
C521 C522 1.524 . S
C522 C521 1.524 . S
C522 C523 1.397 . S
C522 C527 1.363 . S
C523 H494 0.950 . S
C523 C522 1.397 . S
C523 C524 1.334 . S
C524 H495 0.950 . S
C524 C523 1.334 . S
C524 C525 1.287 . S
C525 C524 1.287 . S
C525 C526 1.524 . S
C525 H528 0.999 . S
C526 H496 0.950 . S
C526 C525 1.524 . S
C526 C527 1.415 . S
C527 H497 0.950 . S
C527 C522 1.363 . S
C527 C526 1.415 . S
H528 C525 0.999 . S
H529 C510 0.913 . S
H530 C548 0.951 . S
H531 C550 0.951 . S
H532 C552 0.950 . S
H533 C553 0.950 . S
H534 C555 0.950 . S
H535 C558 0.950 . S
H536 C559 0.950 . S
H537 C561 0.950 . S
H538 C562 0.950 . S
H539 C563 0.951 . S
H540 C565 0.951 . S
H541 C567 0.950 . S
H542 C568 0.950 . S
H543 C570 0.950 . S
H544 C573 0.950 . S
H545 C574 0.950 . S
H546 C576 0.950 . S
H547 C577 0.950 . S
C548 H530 0.951 . S
C548 C549 1.366 . S
C548 C550 1.388 . S
C549 C548 1.366 . S
C549 C553 1.385 . S
C550 H531 0.951 . S
C550 C548 1.388 . S
C550 C551 1.366 . S
C551 C550 1.366 . S
C551 C552 1.414 . S
C551 C554 1.499 . S
C552 H532 0.950 . S
C552 C551 1.414 . S
C552 C553 1.374 . S
C553 H533 0.950 . S
C553 C549 1.385 . S
C553 C552 1.374 . S
C554 C551 1.499 . S
C554 C555 1.373 . S
C554 C556 1.389 . S
C555 H534 0.950 . S
C555 C554 1.373 . S
C555 C571 1.377 . S
C556 C554 1.389 . S
C556 C557 1.524 . S
C556 C570 1.377 . S
C557 C556 1.524 . S
C557 C558 1.397 . S
C557 C562 1.363 . S
C558 H535 0.950 . S
C558 C557 1.397 . S
C558 C559 1.334 . S
C559 H536 0.950 . S
C559 C558 1.334 . S
C559 C560 1.287 . S
C560 C559 1.287 . S
C560 C561 1.524 . S
C560 H579 0.913 . S
C561 H537 0.950 . S
C561 C560 1.524 . S
C561 C562 1.415 . S
C562 H538 0.950 . S
C562 C557 1.363 . S
C562 C561 1.415 . S
C563 H539 0.951 . S
C563 C564 1.366 . S
C563 C565 1.388 . S
C564 C563 1.366 . S
C564 C568 1.385 . S
C565 H540 0.951 . S
C565 C563 1.388 . S
C565 C566 1.366 . S
C566 C565 1.366 . S
C566 C567 1.414 . S
C566 C569 1.499 . S
C567 H541 0.950 . S
C567 C566 1.414 . S
C567 C568 1.374 . S
C568 H542 0.950 . S
C568 C564 1.385 . S
C568 C567 1.374 . S
C569 C566 1.499 . S
C569 C570 1.373 . S
C569 C571 1.389 . S
C570 H543 0.950 . S
C570 C556 1.377 . S
C570 C569 1.373 . S
C571 C555 1.377 . S
C571 C569 1.389 . S
C571 C572 1.524 . S
C572 C571 1.524 . S
C572 C573 1.397 . S
C572 C577 1.363 . S
C573 H544 0.950 . S
C573 C572 1.397 . S
C573 C574 1.334 . S
C574 H545 0.950 . S
C574 C573 1.334 . S
C574 C575 1.287 . S
C575 C574 1.287 . S
C575 C576 1.524 . S
C575 H578 0.999 . S
C576 H546 0.950 . S
C576 C575 1.524 . S
C576 C577 1.415 . S
C577 H547 0.950 . S
C577 C572 1.363 . S
C577 C576 1.415 . S
H578 C575 0.999 . S
H579 C560 0.913 . S
H580 C598 0.951 . S
H581 C600 0.951 . S
H582 C602 0.950 . S
H583 C603 0.950 . S
H584 C605 0.950 . S
H585 C608 0.950 . S
H586 C609 0.950 . S
H587 C611 0.950 . S
H588 C612 0.950 . S
H589 C613 0.951 . S
H590 C615 0.951 . S
H591 C617 0.950 . S
H592 C618 0.950 . S
H593 C620 0.950 . S
H594 C623 0.950 . S
H595 C624 0.950 . S
H596 C626 0.950 . S
H597 C627 0.950 . S
C598 H580 0.951 . S
C598 C599 1.366 . S
C598 C600 1.388 . S
C599 C598 1.366 . S
C599 C603 1.385 . S
C600 H581 0.951 . S
C600 C598 1.388 . S
C600 C601 1.366 . S
C601 C600 1.366 . S
C601 C602 1.414 . S
C601 C604 1.499 . S
C602 H582 0.950 . S
C602 C601 1.414 . S
C602 C603 1.374 . S
C603 H583 0.950 . S
C603 C599 1.385 . S
C603 C602 1.374 . S
C604 C601 1.499 . S
C604 C605 1.373 . S
C604 C606 1.389 . S
C605 H584 0.950 . S
C605 C604 1.373 . S
C605 C621 1.377 . S
C606 C604 1.389 . S
C606 C607 1.524 . S
C606 C620 1.377 . S
C607 C606 1.524 . S
C607 C608 1.397 . S
C607 C612 1.363 . S
C608 H585 0.950 . S
C608 C607 1.397 . S
C608 C609 1.334 . S
C609 H586 0.950 . S
C609 C608 1.334 . S
C609 C610 1.287 . S
C610 C609 1.287 . S
C610 C611 1.524 . S
C610 H629 0.913 . S
C611 H587 0.950 . S
C611 C610 1.524 . S
C611 C612 1.415 . S
C612 H588 0.950 . S
C612 C607 1.363 . S
C612 C611 1.415 . S
C613 H589 0.951 . S
C613 C614 1.366 . S
C613 C615 1.388 . S
C614 C613 1.366 . S
C614 C618 1.385 . S
C615 H590 0.951 . S
C615 C613 1.388 . S
C615 C616 1.366 . S
C616 C615 1.366 . S
C616 C617 1.414 . S
C616 C619 1.499 . S
C617 H591 0.950 . S
C617 C616 1.414 . S
C617 C618 1.374 . S
C618 H592 0.950 . S
C618 C614 1.385 . S
C618 C617 1.374 . S
C619 C616 1.499 . S
C619 C620 1.373 . S
C619 C621 1.389 . S
C620 H593 0.950 . S
C620 C606 1.377 . S
C620 C619 1.373 . S
C621 C605 1.377 . S
C621 C619 1.389 . S
C621 C622 1.524 . S
C622 C621 1.524 . S
C622 C623 1.397 . S
C622 C627 1.363 . S
C623 H594 0.950 . S
C623 C622 1.397 . S
C623 C624 1.334 . S
C624 H595 0.950 . S
C624 C623 1.334 . S
C624 C625 1.287 . S
C625 C624 1.287 . S
C625 C626 1.524 . S
C625 H628 0.999 . S
C626 H596 0.950 . S
C626 C625 1.524 . S
C626 C627 1.415 . S
C627 H597 0.950 . S
C627 C622 1.363 . S
C627 C626 1.415 . S
H628 C625 0.999 . S
H629 C610 0.913 . S
H630 C648 0.951 . S
H631 C650 0.951 . S
H632 C652 0.950 . S
H633 C653 0.950 . S
H634 C655 0.950 . S
H635 C658 0.950 . S
H636 C659 0.950 . S
H637 C661 0.950 . S
H638 C662 0.950 . S
H639 C663 0.951 . S
H640 C665 0.951 . S
H641 C667 0.950 . S
H642 C668 0.950 . S
H643 C670 0.950 . S
H644 C673 0.950 . S
H645 C674 0.950 . S
H646 C676 0.950 . S
H647 C677 0.950 . S
C648 H630 0.951 . S
C648 C649 1.366 . S
C648 C650 1.388 . S
C649 C648 1.366 . S
C649 C653 1.385 . S
C650 H631 0.951 . S
C650 C648 1.388 . S
C650 C651 1.366 . S
C651 C650 1.366 . S
C651 C652 1.414 . S
C651 C654 1.499 . S
C652 H632 0.950 . S
C652 C651 1.414 . S
C652 C653 1.374 . S
C653 H633 0.950 . S
C653 C649 1.385 . S
C653 C652 1.374 . S
C654 C651 1.499 . S
C654 C655 1.373 . S
C654 C656 1.389 . S
C655 H634 0.950 . S
C655 C654 1.373 . S
C655 C671 1.377 . S
C656 C654 1.389 . S
C656 C657 1.524 . S
C656 C670 1.377 . S
C657 C656 1.524 . S
C657 C658 1.397 . S
C657 C662 1.363 . S
C658 H635 0.950 . S
C658 C657 1.397 . S
C658 C659 1.334 . S
C659 H636 0.950 . S
C659 C658 1.334 . S
C659 C660 1.287 . S
C660 C659 1.287 . S
C660 C661 1.524 . S
C660 H679 0.913 . S
C661 H637 0.950 . S
C661 C660 1.524 . S
C661 C662 1.415 . S
C662 H638 0.950 . S
C662 C657 1.363 . S
C662 C661 1.415 . S
C663 H639 0.951 . S
C663 C664 1.366 . S
C663 C665 1.388 . S
C664 C663 1.366 . S
C664 C668 1.385 . S
C665 H640 0.951 . S
C665 C663 1.388 . S
C665 C666 1.366 . S
C666 C665 1.366 . S
C666 C667 1.414 . S
C666 C669 1.499 . S
C667 H641 0.950 . S
C667 C666 1.414 . S
C667 C668 1.374 . S
C668 H642 0.950 . S
C668 C664 1.385 . S
C668 C667 1.374 . S
C669 C666 1.499 . S
C669 C670 1.373 . S
C669 C671 1.389 . S
C670 H643 0.950 . S
C670 C656 1.377 . S
C670 C669 1.373 . S
C671 C655 1.377 . S
C671 C669 1.389 . S
C671 C672 1.524 . S
C672 C671 1.524 . S
C672 C673 1.397 . S
C672 C677 1.363 . S
C673 H644 0.950 . S
C673 C672 1.397 . S
C673 C674 1.334 . S
C674 H645 0.950 . S
C674 C673 1.334 . S
C674 C675 1.287 . S
C675 C674 1.287 . S
C675 C676 1.524 . S
C675 H678 0.999 . S
C676 H646 0.950 . S
C676 C675 1.524 . S
C676 C677 1.415 . S
C677 H647 0.950 . S
C677 C672 1.363 . S
C677 C676 1.415 . S
H678 C675 0.999 . S
H679 C660 0.913 . S
H680 C698 0.951 . S
H681 C700 0.951 . S
H682 C702 0.950 . S
H683 C703 0.950 . S
H684 C705 0.950 . S
H685 C708 0.950 . S
H686 C709 0.950 . S
H687 C711 0.950 . S
H688 C712 0.950 . S
H689 C713 0.951 . S
H690 C715 0.951 . S
H691 C717 0.950 . S
H692 C718 0.950 . S
H693 C720 0.950 . S
H694 C723 0.950 . S
H695 C724 0.950 . S
H696 C726 0.950 . S
H697 C727 0.950 . S
C698 H680 0.951 . S
C698 C699 1.366 . S
C698 C700 1.388 . S
C699 C698 1.366 . S
C699 C703 1.385 . S
C700 H681 0.951 . S
C700 C698 1.388 . S
C700 C701 1.366 . S
C701 C700 1.366 . S
C701 C702 1.414 . S
C701 C704 1.499 . S
C702 H682 0.950 . S
C702 C701 1.414 . S
C702 C703 1.374 . S
C703 H683 0.950 . S
C703 C699 1.385 . S
C703 C702 1.374 . S
C704 C701 1.499 . S
C704 C705 1.373 . S
C704 C706 1.389 . S
C705 H684 0.950 . S
C705 C704 1.373 . S
C705 C721 1.377 . S
C706 C704 1.389 . S
C706 C707 1.524 . S
C706 C720 1.377 . S
C707 C706 1.524 . S
C707 C708 1.397 . S
C707 C712 1.363 . S
C708 H685 0.950 . S
C708 C707 1.397 . S
C708 C709 1.334 . S
C709 H686 0.950 . S
C709 C708 1.334 . S
C709 C710 1.287 . S
C710 C709 1.287 . S
C710 C711 1.524 . S
C710 H729 0.913 . S
C711 H687 0.950 . S
C711 C710 1.524 . S
C711 C712 1.415 . S
C712 H688 0.950 . S
C712 C707 1.363 . S
C712 C711 1.415 . S
C713 H689 0.951 . S
C713 C714 1.366 . S
C713 C715 1.388 . S
C714 C713 1.366 . S
C714 C718 1.385 . S
C715 H690 0.951 . S
C715 C713 1.388 . S
C715 C716 1.366 . S
C716 C715 1.366 . S
C716 C717 1.414 . S
C716 C719 1.499 . S
C717 H691 0.950 . S
C717 C716 1.414 . S
C717 C718 1.374 . S
C718 H692 0.950 . S
C718 C714 1.385 . S
C718 C717 1.374 . S
C719 C716 1.499 . S
C719 C720 1.373 . S
C719 C721 1.389 . S
C720 H693 0.950 . S
C720 C706 1.377 . S
C720 C719 1.373 . S
C721 C705 1.377 . S
C721 C719 1.389 . S
C721 C722 1.524 . S
C722 C721 1.524 . S
C722 C723 1.397 . S
C722 C727 1.363 . S
C723 H694 0.950 . S
C723 C722 1.397 . S
C723 C724 1.334 . S
C724 H695 0.950 . S
C724 C723 1.334 . S
C724 C725 1.287 . S
C725 C724 1.287 . S
C725 C726 1.524 . S
C725 H728 0.999 . S
C726 H696 0.950 . S
C726 C725 1.524 . S
C726 C727 1.415 . S
C727 H697 0.950 . S
C727 C722 1.363 . S
C727 C726 1.415 . S
H728 C725 0.999 . S
H729 C710 0.913 . S
H730 C748 0.951 . S
H731 C750 0.951 . S
H732 C752 0.950 . S
H733 C753 0.950 . S
H734 C755 0.950 . S
H735 C758 0.950 . S
H736 C759 0.950 . S
H737 C761 0.950 . S
H738 C762 0.950 . S
H739 C763 0.951 . S
H740 C765 0.951 . S
H741 C767 0.950 . S
H742 C768 0.950 . S
H743 C770 0.950 . S
H744 C773 0.950 . S
H745 C774 0.950 . S
H746 C776 0.950 . S
H747 C777 0.950 . S
C748 H730 0.951 . S
C748 C749 1.366 . S
C748 C750 1.388 . S
C749 C748 1.366 . S
C749 C753 1.385 . S
C750 H731 0.951 . S
C750 C748 1.388 . S
C750 C751 1.366 . S
C751 C750 1.366 . S
C751 C752 1.414 . S
C751 C754 1.499 . S
C752 H732 0.950 . S
C752 C751 1.414 . S
C752 C753 1.374 . S
C753 H733 0.950 . S
C753 C749 1.385 . S
C753 C752 1.374 . S
C754 C751 1.499 . S
C754 C755 1.373 . S
C754 C756 1.389 . S
C755 H734 0.950 . S
C755 C754 1.373 . S
C755 C771 1.377 . S
C756 C754 1.389 . S
C756 C757 1.524 . S
C756 C770 1.377 . S
C757 C756 1.524 . S
C757 C758 1.397 . S
C757 C762 1.363 . S
C758 H735 0.950 . S
C758 C757 1.397 . S
C758 C759 1.334 . S
C759 H736 0.950 . S
C759 C758 1.334 . S
C759 C760 1.287 . S
C760 C759 1.287 . S
C760 C761 1.524 . S
C760 H779 0.913 . S
C761 H737 0.950 . S
C761 C760 1.524 . S
C761 C762 1.415 . S
C762 H738 0.950 . S
C762 C757 1.363 . S
C762 C761 1.415 . S
C763 H739 0.951 . S
C763 C764 1.366 . S
C763 C765 1.388 . S
C764 C763 1.366 . S
C764 C768 1.385 . S
C765 H740 0.951 . S
C765 C763 1.388 . S
C765 C766 1.366 . S
C766 C765 1.366 . S
C766 C767 1.414 . S
C766 C769 1.499 . S
C767 H741 0.950 . S
C767 C766 1.414 . S
C767 C768 1.374 . S
C768 H742 0.950 . S
C768 C764 1.385 . S
C768 C767 1.374 . S
C769 C766 1.499 . S
C769 C770 1.373 . S
C769 C771 1.389 . S
C770 H743 0.950 . S
C770 C756 1.377 . S
C770 C769 1.373 . S
C771 C755 1.377 . S
C771 C769 1.389 . S
C771 C772 1.524 . S
C772 C771 1.524 . S
C772 C773 1.397 . S
C772 C777 1.363 . S
C773 H744 0.950 . S
C773 C772 1.397 . S
C773 C774 1.334 . S
C774 H745 0.950 . S
C774 C773 1.334 . S
C774 C775 1.287 . S
C775 C774 1.287 . S
C775 C776 1.524 . S
C775 H778 0.999 . S
C776 H746 0.950 . S
C776 C775 1.524 . S
C776 C777 1.415 . S
C777 H747 0.950 . S
C777 C772 1.363 . S
C777 C776 1.415 . S
H778 C775 0.999 . S
H779 C760 0.913 . S
H780 C798 0.951 . S
H781 C800 0.951 . S
H782 C802 0.950 . S
H783 C803 0.950 . S
H784 C805 0.950 . S
H785 C808 0.950 . S
H786 C809 0.950 . S
H787 C811 0.950 . S
H788 C812 0.950 . S
H789 C813 0.951 . S
H790 C815 0.951 . S
H791 C817 0.950 . S
H792 C818 0.950 . S
H793 C820 0.950 . S
H794 C823 0.950 . S
H795 C824 0.950 . S
H796 C826 0.950 . S
H797 C827 0.950 . S
C798 H780 0.951 . S
C798 C799 1.366 . S
C798 C800 1.388 . S
C799 C798 1.366 . S
C799 C803 1.385 . S
C800 H781 0.951 . S
C800 C798 1.388 . S
C800 C801 1.366 . S
C801 C800 1.366 . S
C801 C802 1.414 . S
C801 C804 1.499 . S
C802 H782 0.950 . S
C802 C801 1.414 . S
C802 C803 1.374 . S
C803 H783 0.950 . S
C803 C799 1.385 . S
C803 C802 1.374 . S
C804 C801 1.499 . S
C804 C805 1.373 . S
C804 C806 1.389 . S
C805 H784 0.950 . S
C805 C804 1.373 . S
C805 C821 1.377 . S
C806 C804 1.389 . S
C806 C807 1.524 . S
C806 C820 1.377 . S
C807 C806 1.524 . S
C807 C808 1.397 . S
C807 C812 1.363 . S
C808 H785 0.950 . S
C808 C807 1.397 . S
C808 C809 1.334 . S
C809 H786 0.950 . S
C809 C808 1.334 . S
C809 C810 1.287 . S
C810 C809 1.287 . S
C810 C811 1.524 . S
C810 H829 0.913 . S
C811 H787 0.950 . S
C811 C810 1.524 . S
C811 C812 1.415 . S
C812 H788 0.950 . S
C812 C807 1.363 . S
C812 C811 1.415 . S
C813 H789 0.951 . S
C813 C814 1.366 . S
C813 C815 1.388 . S
C814 C813 1.366 . S
C814 C818 1.385 . S
C815 H790 0.951 . S
C815 C813 1.388 . S
C815 C816 1.366 . S
C816 C815 1.366 . S
C816 C817 1.414 . S
C816 C819 1.499 . S
C817 H791 0.950 . S
C817 C816 1.414 . S
C817 C818 1.374 . S
C818 H792 0.950 . S
C818 C814 1.385 . S
C818 C817 1.374 . S
C819 C816 1.499 . S
C819 C820 1.373 . S
C819 C821 1.389 . S
C820 H793 0.950 . S
C820 C806 1.377 . S
C820 C819 1.373 . S
C821 C805 1.377 . S
C821 C819 1.389 . S
C821 C822 1.524 . S
C822 C821 1.524 . S
C822 C823 1.397 . S
C822 C827 1.363 . S
C823 H794 0.950 . S
C823 C822 1.397 . S
C823 C824 1.334 . S
C824 H795 0.950 . S
C824 C823 1.334 . S
C824 C825 1.287 . S
C825 C824 1.287 . S
C825 C826 1.524 . S
C825 H828 0.999 . S
C826 H796 0.950 . S
C826 C825 1.524 . S
C826 C827 1.415 . S
C827 H797 0.950 . S
C827 C822 1.363 . S
C827 C826 1.415 . S
H828 C825 0.999 . S
H829 C810 0.913 . S
H830 C848 0.951 . S
H831 C850 0.951 . S
H832 C852 0.950 . S
H833 C853 0.950 . S
H834 C855 0.950 . S
H835 C858 0.950 . S
H836 C859 0.950 . S
H837 C861 0.950 . S
H838 C862 0.950 . S
H839 C863 0.951 . S
H840 C865 0.951 . S
H841 C867 0.950 . S
H842 C868 0.950 . S
H843 C870 0.950 . S
H844 C873 0.950 . S
H845 C874 0.950 . S
H846 C876 0.950 . S
H847 C877 0.950 . S
C848 H830 0.951 . S
C848 C849 1.366 . S
C848 C850 1.388 . S
C849 C848 1.366 . S
C849 C853 1.385 . S
C850 H831 0.951 . S
C850 C848 1.388 . S
C850 C851 1.366 . S
C851 C850 1.366 . S
C851 C852 1.414 . S
C851 C854 1.499 . S
C852 H832 0.950 . S
C852 C851 1.414 . S
C852 C853 1.374 . S
C853 H833 0.950 . S
C853 C849 1.385 . S
C853 C852 1.374 . S
C854 C851 1.499 . S
C854 C855 1.373 . S
C854 C856 1.389 . S
C855 H834 0.950 . S
C855 C854 1.373 . S
C855 C871 1.377 . S
C856 C854 1.389 . S
C856 C857 1.524 . S
C856 C870 1.377 . S
C857 C856 1.524 . S
C857 C858 1.397 . S
C857 C862 1.363 . S
C858 H835 0.950 . S
C858 C857 1.397 . S
C858 C859 1.334 . S
C859 H836 0.950 . S
C859 C858 1.334 . S
C859 C860 1.287 . S
C860 C859 1.287 . S
C860 C861 1.524 . S
C860 H879 0.913 . S
C861 H837 0.950 . S
C861 C860 1.524 . S
C861 C862 1.415 . S
C862 H838 0.950 . S
C862 C857 1.363 . S
C862 C861 1.415 . S
C863 H839 0.951 . S
C863 C864 1.366 . S
C863 C865 1.388 . S
C864 C863 1.366 . S
C864 C868 1.385 . S
C865 H840 0.951 . S
C865 C863 1.388 . S
C865 C866 1.366 . S
C866 C865 1.366 . S
C866 C867 1.414 . S
C866 C869 1.499 . S
C867 H841 0.950 . S
C867 C866 1.414 . S
C867 C868 1.374 . S
C868 H842 0.950 . S
C868 C864 1.385 . S
C868 C867 1.374 . S
C869 C866 1.499 . S
C869 C870 1.373 . S
C869 C871 1.389 . S
C870 H843 0.950 . S
C870 C856 1.377 . S
C870 C869 1.373 . S
C871 C855 1.377 . S
C871 C869 1.389 . S
C871 C872 1.524 . S
C872 C871 1.524 . S
C872 C873 1.397 . S
C872 C877 1.363 . S
C873 H844 0.950 . S
C873 C872 1.397 . S
C873 C874 1.334 . S
C874 H845 0.950 . S
C874 C873 1.334 . S
C874 C875 1.287 . S
C875 C874 1.287 . S
C875 C876 1.524 . S
C875 H878 0.999 . S
C876 H846 0.950 . S
C876 C875 1.524 . S
C876 C877 1.415 . S
C877 H847 0.950 . S
C877 C872 1.363 . S
C877 C876 1.415 . S
H878 C875 0.999 . S
H879 C860 0.913 . S
H880 C898 0.951 . S
H881 C900 0.951 . S
H882 C902 0.950 . S
H883 C903 0.950 . S
H884 C905 0.950 . S
H885 C908 0.950 . S
H886 C909 0.950 . S
H887 C911 0.950 . S
H888 C912 0.950 . S
H889 C913 0.951 . S
H890 C915 0.951 . S
H891 C917 0.950 . S
H892 C918 0.950 . S
H893 C920 0.950 . S
H894 C923 0.950 . S
H895 C924 0.950 . S
H896 C926 0.950 . S
H897 C927 0.950 . S
C898 H880 0.951 . S
C898 C899 1.366 . S
C898 C900 1.388 . S
C899 C898 1.366 . S
C899 C903 1.385 . S
C900 H881 0.951 . S
C900 C898 1.388 . S
C900 C901 1.366 . S
C901 C900 1.366 . S
C901 C902 1.414 . S
C901 C904 1.499 . S
C902 H882 0.950 . S
C902 C901 1.414 . S
C902 C903 1.374 . S
C903 H883 0.950 . S
C903 C899 1.385 . S
C903 C902 1.374 . S
C904 C901 1.499 . S
C904 C905 1.373 . S
C904 C906 1.389 . S
C905 H884 0.950 . S
C905 C904 1.373 . S
C905 C921 1.377 . S
C906 C904 1.389 . S
C906 C907 1.524 . S
C906 C920 1.377 . S
C907 C906 1.524 . S
C907 C908 1.397 . S
C907 C912 1.363 . S
C908 H885 0.950 . S
C908 C907 1.397 . S
C908 C909 1.334 . S
C909 H886 0.950 . S
C909 C908 1.334 . S
C909 C910 1.287 . S
C910 C909 1.287 . S
C910 C911 1.524 . S
C910 H929 0.913 . S
C911 H887 0.950 . S
C911 C910 1.524 . S
C911 C912 1.415 . S
C912 H888 0.950 . S
C912 C907 1.363 . S
C912 C911 1.415 . S
C913 H889 0.951 . S
C913 C914 1.366 . S
C913 C915 1.388 . S
C914 C913 1.366 . S
C914 C918 1.385 . S
C915 H890 0.951 . S
C915 C913 1.388 . S
C915 C916 1.366 . S
C916 C915 1.366 . S
C916 C917 1.414 . S
C916 C919 1.499 . S
C917 H891 0.950 . S
C917 C916 1.414 . S
C917 C918 1.374 . S
C918 H892 0.950 . S
C918 C914 1.385 . S
C918 C917 1.374 . S
C919 C916 1.499 . S
C919 C920 1.373 . S
C919 C921 1.389 . S
C920 H893 0.950 . S
C920 C906 1.377 . S
C920 C919 1.373 . S
C921 C905 1.377 . S
C921 C919 1.389 . S
C921 C922 1.524 . S
C922 C921 1.524 . S
C922 C923 1.397 . S
C922 C927 1.363 . S
C923 H894 0.950 . S
C923 C922 1.397 . S
C923 C924 1.334 . S
C924 H895 0.950 . S
C924 C923 1.334 . S
C924 C925 1.287 . S
C925 C924 1.287 . S
C925 C926 1.524 . S
C925 H928 0.999 . S
C926 H896 0.950 . S
C926 C925 1.524 . S
C926 C927 1.415 . S
C927 H897 0.950 . S
C927 C922 1.363 . S
C927 C926 1.415 . S
H928 C925 0.999 . S
H929 C910 0.913 . S
H930 C948 0.951 . S
H931 C950 0.951 . S
H932 C952 0.950 . S
H933 C953 0.950 . S
H934 C955 0.950 . S
H935 C958 0.950 . S
H936 C959 0.950 . S
H937 C961 0.950 . S
H938 C962 0.950 . S
H939 C963 0.951 . S
H940 C965 0.951 . S
H941 C967 0.950 . S
H942 C968 0.950 . S
H943 C970 0.950 . S
H944 C973 0.950 . S
H945 C974 0.950 . S
H946 C976 0.950 . S
H947 C977 0.950 . S
C948 H930 0.951 . S
C948 C949 1.366 . S
C948 C950 1.388 . S
C949 C948 1.366 . S
C949 C953 1.385 . S
C950 H931 0.951 . S
C950 C948 1.388 . S
C950 C951 1.366 . S
C951 C950 1.366 . S
C951 C952 1.414 . S
C951 C954 1.499 . S
C952 H932 0.950 . S
C952 C951 1.414 . S
C952 C953 1.374 . S
C953 H933 0.950 . S
C953 C949 1.385 . S
C953 C952 1.374 . S
C954 C951 1.499 . S
C954 C955 1.373 . S
C954 C956 1.389 . S
C955 H934 0.950 . S
C955 C954 1.373 . S
C955 C971 1.377 . S
C956 C954 1.389 . S
C956 C957 1.524 . S
C956 C970 1.377 . S
C957 C956 1.524 . S
C957 C958 1.397 . S
C957 C962 1.363 . S
C958 H935 0.950 . S
C958 C957 1.397 . S
C958 C959 1.334 . S
C959 H936 0.950 . S
C959 C958 1.334 . S
C959 C960 1.287 . S
C960 C959 1.287 . S
C960 C961 1.524 . S
C960 H979 0.913 . S
C961 H937 0.950 . S
C961 C960 1.524 . S
C961 C962 1.415 . S
C962 H938 0.950 . S
C962 C957 1.363 . S
C962 C961 1.415 . S
C963 H939 0.951 . S
C963 C964 1.366 . S
C963 C965 1.388 . S
C964 C963 1.366 . S
C964 C968 1.385 . S
C965 H940 0.951 . S
C965 C963 1.388 . S
C965 C966 1.366 . S
C966 C965 1.366 . S
C966 C967 1.414 . S
C966 C969 1.499 . S
C967 H941 0.950 . S
C967 C966 1.414 . S
C967 C968 1.374 . S
C968 H942 0.950 . S
C968 C964 1.385 . S
C968 C967 1.374 . S
C969 C966 1.499 . S
C969 C970 1.373 . S
C969 C971 1.389 . S
C970 H943 0.950 . S
C970 C956 1.377 . S
C970 C969 1.373 . S
C971 C955 1.377 . S
C971 C969 1.389 . S
C971 C972 1.524 . S
C972 C971 1.524 . S
C972 C973 1.397 . S
C972 C977 1.363 . S
C973 H944 0.950 . S
C973 C972 1.397 . S
C973 C974 1.334 . S
C974 H945 0.950 . S
C974 C973 1.334 . S
C974 C975 1.287 . S
C975 C974 1.287 . S
C975 C976 1.524 . S
C975 H978 0.999 . S
C976 H946 0.950 . S
C976 C975 1.524 . S
C976 C977 1.415 . S
C977 H947 0.950 . S
C977 C972 1.363 . S
C977 C976 1.415 . S
H978 C975 0.999 . S
H979 C960 0.913 . S
H980 C998 0.951 . S
H981 C1000 0.951 . S
H982 C1002 0.950 . S
H983 C1003 0.950 . S
H984 C1005 0.950 . S
H985 C1008 0.950 . S
H986 C1009 0.950 . S
H987 C1011 0.950 . S
H988 C1012 0.950 . S
H989 C1013 0.951 . S
H990 C1015 0.951 . S
H991 C1017 0.950 . S
H992 C1018 0.950 . S
H993 C1020 0.950 . S
H994 C1023 0.950 . S
H995 C1024 0.950 . S
H996 C1026 0.950 . S
H997 C1027 0.950 . S
C998 H980 0.951 . S
C998 C999 1.366 . S
C998 C1000 1.388 . S
C999 C998 1.366 . S
C999 C1003 1.385 . S
C1000 H981 0.951 . S
C1000 C998 1.388 . S
C1000 C1001 1.366 . S
C1001 C1000 1.366 . S
C1001 C1002 1.414 . S
C1001 C1004 1.499 . S
C1002 H982 0.950 . S
C1002 C1001 1.414 . S
C1002 C1003 1.374 . S
C1003 H983 0.950 . S
C1003 C999 1.385 . S
C1003 C1002 1.374 . S
C1004 C1001 1.499 . S
C1004 C1005 1.373 . S
C1004 C1006 1.389 . S
C1005 H984 0.950 . S
C1005 C1004 1.373 . S
C1005 C1021 1.377 . S
C1006 C1004 1.389 . S
C1006 C1007 1.524 . S
C1006 C1020 1.377 . S
C1007 C1006 1.524 . S
C1007 C1008 1.397 . S
C1007 C1012 1.363 . S
C1008 H985 0.950 . S
C1008 C1007 1.397 . S
C1008 C1009 1.334 . S
C1009 H986 0.950 . S
C1009 C1008 1.334 . S
C1009 C1010 1.287 . S
C1010 C1009 1.287 . S
C1010 C1011 1.524 . S
C1010 H1029 0.913 . S
C1011 H987 0.950 . S
C1011 C1010 1.524 . S
C1011 C1012 1.415 . S
C1012 H988 0.950 . S
C1012 C1007 1.363 . S
C1012 C1011 1.415 . S
C1013 H989 0.951 . S
C1013 C1014 1.366 . S
C1013 C1015 1.388 . S
C1014 C1013 1.366 . S
C1014 C1018 1.385 . S
C1015 H990 0.951 . S
C1015 C1013 1.388 . S
C1015 C1016 1.366 . S
C1016 C1015 1.366 . S
C1016 C1017 1.414 . S
C1016 C1019 1.499 . S
C1017 H991 0.950 . S
C1017 C1016 1.414 . S
C1017 C1018 1.374 . S
C1018 H992 0.950 . S
C1018 C1014 1.385 . S
C1018 C1017 1.374 . S
C1019 C1016 1.499 . S
C1019 C1020 1.373 . S
C1019 C1021 1.389 . S
C1020 H993 0.950 . S
C1020 C1006 1.377 . S
C1020 C1019 1.373 . S
C1021 C1005 1.377 . S
C1021 C1019 1.389 . S
C1021 C1022 1.524 . S
C1022 C1021 1.524 . S
C1022 C1023 1.397 . S
C1022 C1027 1.363 . S
C1023 H994 0.950 . S
C1023 C1022 1.397 . S
C1023 C1024 1.334 . S
C1024 H995 0.950 . S
C1024 C1023 1.334 . S
C1024 C1025 1.287 . S
C1025 C1024 1.287 . S
C1025 C1026 1.524 . S
C1025 H1028 0.999 . S
C1026 H996 0.950 . S
C1026 C1025 1.524 . S
C1026 C1027 1.415 . S
C1027 H997 0.950 . S
C1027 C1022 1.363 . S
C1027 C1026 1.415 . S
H1028 C1025 0.999 . S
H1029 C1010 0.913 . S
H1030 C1048 0.951 . S
H1031 C1050 0.951 . S
H1032 C1052 0.950 . S
H1033 C1053 0.950 . S
H1034 C1055 0.950 . S
H1035 C1058 0.950 . S
H1036 C1059 0.950 . S
H1037 C1061 0.950 . S
H1038 C1062 0.950 . S
H1039 C1063 0.951 . S
H1040 C1065 0.951 . S
H1041 C1067 0.950 . S
H1042 C1068 0.950 . S
H1043 C1070 0.950 . S
H1044 C1073 0.950 . S
H1045 C1074 0.950 . S
H1046 C1076 0.950 . S
H1047 C1077 0.950 . S
C1048 H1030 0.951 . S
C1048 C1049 1.366 . S
C1048 C1050 1.388 . S
C1049 C1048 1.366 . S
C1049 C1053 1.385 . S
C1050 H1031 0.951 . S
C1050 C1048 1.388 . S
C1050 C1051 1.366 . S
C1051 C1050 1.366 . S
C1051 C1052 1.414 . S
C1051 C1054 1.499 . S
C1052 H1032 0.950 . S
C1052 C1051 1.414 . S
C1052 C1053 1.374 . S
C1053 H1033 0.950 . S
C1053 C1049 1.385 . S
C1053 C1052 1.374 . S
C1054 C1051 1.499 . S
C1054 C1055 1.373 . S
C1054 C1056 1.389 . S
C1055 H1034 0.950 . S
C1055 C1054 1.373 . S
C1055 C1071 1.377 . S
C1056 C1054 1.389 . S
C1056 C1057 1.524 . S
C1056 C1070 1.377 . S
C1057 C1056 1.524 . S
C1057 C1058 1.397 . S
C1057 C1062 1.363 . S
C1058 H1035 0.950 . S
C1058 C1057 1.397 . S
C1058 C1059 1.334 . S
C1059 H1036 0.950 . S
C1059 C1058 1.334 . S
C1059 C1060 1.287 . S
C1060 C1059 1.287 . S
C1060 C1061 1.524 . S
C1060 H1079 0.913 . S
C1061 H1037 0.950 . S
C1061 C1060 1.524 . S
C1061 C1062 1.415 . S
C1062 H1038 0.950 . S
C1062 C1057 1.363 . S
C1062 C1061 1.415 . S
C1063 H1039 0.951 . S
C1063 C1064 1.366 . S
C1063 C1065 1.388 . S
C1064 C1063 1.366 . S
C1064 C1068 1.385 . S
C1065 H1040 0.951 . S
C1065 C1063 1.388 . S
C1065 C1066 1.366 . S
C1066 C1065 1.366 . S
C1066 C1067 1.414 . S
C1066 C1069 1.499 . S
C1067 H1041 0.950 . S
C1067 C1066 1.414 . S
C1067 C1068 1.374 . S
C1068 H1042 0.950 . S
C1068 C1064 1.385 . S
C1068 C1067 1.374 . S
C1069 C1066 1.499 . S
C1069 C1070 1.373 . S
C1069 C1071 1.389 . S
C1070 H1043 0.950 . S
C1070 C1056 1.377 . S
C1070 C1069 1.373 . S
C1071 C1055 1.377 . S
C1071 C1069 1.389 . S
C1071 C1072 1.524 . S
C1072 C1071 1.524 . S
C1072 C1073 1.397 . S
C1072 C1077 1.363 . S
C1073 H1044 0.950 . S
C1073 C1072 1.397 . S
C1073 C1074 1.334 . S
C1074 H1045 0.950 . S
C1074 C1073 1.334 . S
C1074 C1075 1.287 . S
C1075 C1074 1.287 . S
C1075 C1076 1.524 . S
C1075 H1078 0.999 . S
C1076 H1046 0.950 . S
C1076 C1075 1.524 . S
C1076 C1077 1.415 . S
C1077 H1047 0.950 . S
C1077 C1072 1.363 . S
C1077 C1076 1.415 . S
H1078 C1075 0.999 . S
H1079 C1060 0.913 . S
H1080 C1098 0.951 . S
H1081 C1100 0.951 . S
H1082 C1102 0.950 . S
H1083 C1103 0.950 . S
H1084 C1105 0.950 . S
H1085 C1108 0.950 . S
H1086 C1109 0.950 . S
H1087 C1111 0.950 . S
H1088 C1112 0.950 . S
H1089 C1113 0.951 . S
H1090 C1115 0.951 . S
H1091 C1117 0.950 . S
H1092 C1118 0.950 . S
H1093 C1120 0.950 . S
H1094 C1123 0.950 . S
H1095 C1124 0.950 . S
H1096 C1126 0.950 . S
H1097 C1127 0.950 . S
C1098 H1080 0.951 . S
C1098 C1099 1.366 . S
C1098 C1100 1.388 . S
C1099 C1098 1.366 . S
C1099 C1103 1.385 . S
C1100 H1081 0.951 . S
C1100 C1098 1.388 . S
C1100 C1101 1.366 . S
C1101 C1100 1.366 . S
C1101 C1102 1.414 . S
C1101 C1104 1.499 . S
C1102 H1082 0.950 . S
C1102 C1101 1.414 . S
C1102 C1103 1.374 . S
C1103 H1083 0.950 . S
C1103 C1099 1.385 . S
C1103 C1102 1.374 . S
C1104 C1101 1.499 . S
C1104 C1105 1.373 . S
C1104 C1106 1.389 . S
C1105 H1084 0.950 . S
C1105 C1104 1.373 . S
C1105 C1121 1.377 . S
C1106 C1104 1.389 . S
C1106 C1107 1.524 . S
C1106 C1120 1.377 . S
C1107 C1106 1.524 . S
C1107 C1108 1.397 . S
C1107 C1112 1.363 . S
C1108 H1085 0.950 . S
C1108 C1107 1.397 . S
C1108 C1109 1.334 . S
C1109 H1086 0.950 . S
C1109 C1108 1.334 . S
C1109 C1110 1.287 . S
C1110 C1109 1.287 . S
C1110 C1111 1.524 . S
C1110 H1129 0.913 . S
C1111 H1087 0.950 . S
C1111 C1110 1.524 . S
C1111 C1112 1.415 . S
C1112 H1088 0.950 . S
C1112 C1107 1.363 . S
C1112 C1111 1.415 . S
C1113 H1089 0.951 . S
C1113 C1114 1.366 . S
C1113 C1115 1.388 . S
C1114 C1113 1.366 . S
C1114 C1118 1.385 . S
C1115 H1090 0.951 . S
C1115 C1113 1.388 . S
C1115 C1116 1.366 . S
C1116 C1115 1.366 . S
C1116 C1117 1.414 . S
C1116 C1119 1.499 . S
C1117 H1091 0.950 . S
C1117 C1116 1.414 . S
C1117 C1118 1.374 . S
C1118 H1092 0.950 . S
C1118 C1114 1.385 . S
C1118 C1117 1.374 . S
C1119 C1116 1.499 . S
C1119 C1120 1.373 . S
C1119 C1121 1.389 . S
C1120 H1093 0.950 . S
C1120 C1106 1.377 . S
C1120 C1119 1.373 . S
C1121 C1105 1.377 . S
C1121 C1119 1.389 . S
C1121 C1122 1.524 . S
C1122 C1121 1.524 . S
C1122 C1123 1.397 . S
C1122 C1127 1.363 . S
C1123 H1094 0.950 . S
C1123 C1122 1.397 . S
C1123 C1124 1.334 . S
C1124 H1095 0.950 . S
C1124 C1123 1.334 . S
C1124 C1125 1.287 . S
C1125 C1124 1.287 . S
C1125 C1126 1.524 . S
C1125 H1128 0.999 . S
C1126 H1096 0.950 . S
C1126 C1125 1.524 . S
C1126 C1127 1.415 . S
C1127 H1097 0.950 . S
C1127 C1122 1.363 . S
C1127 C1126 1.415 . S
H1128 C1125 0.999 . S
H1129 C1110 0.913 . S
H1130 C1148 0.951 . S
H1131 C1150 0.951 . S
H1132 C1152 0.950 . S
H1133 C1153 0.950 . S
H1134 C1155 0.950 . S
H1135 C1158 0.950 . S
H1136 C1159 0.950 . S
H1137 C1161 0.950 . S
H1138 C1162 0.950 . S
H1139 C1163 0.951 . S
H1140 C1165 0.951 . S
H1141 C1167 0.950 . S
H1142 C1168 0.950 . S
H1143 C1170 0.950 . S
H1144 C1173 0.950 . S
H1145 C1174 0.950 . S
H1146 C1176 0.950 . S
H1147 C1177 0.950 . S
C1148 H1130 0.951 . S
C1148 C1149 1.366 . S
C1148 C1150 1.388 . S
C1149 C1148 1.366 . S
C1149 C1153 1.385 . S
C1150 H1131 0.951 . S
C1150 C1148 1.388 . S
C1150 C1151 1.366 . S
C1151 C1150 1.366 . S
C1151 C1152 1.414 . S
C1151 C1154 1.499 . S
C1152 H1132 0.950 . S
C1152 C1151 1.414 . S
C1152 C1153 1.374 . S
C1153 H1133 0.950 . S
C1153 C1149 1.385 . S
C1153 C1152 1.374 . S
C1154 C1151 1.499 . S
C1154 C1155 1.373 . S
C1154 C1156 1.389 . S
C1155 H1134 0.950 . S
C1155 C1154 1.373 . S
C1155 C1171 1.377 . S
C1156 C1154 1.389 . S
C1156 C1157 1.524 . S
C1156 C1170 1.377 . S
C1157 C1156 1.524 . S
C1157 C1158 1.397 . S
C1157 C1162 1.363 . S
C1158 H1135 0.950 . S
C1158 C1157 1.397 . S
C1158 C1159 1.334 . S
C1159 H1136 0.950 . S
C1159 C1158 1.334 . S
C1159 C1160 1.287 . S
C1160 C1159 1.287 . S
C1160 C1161 1.524 . S
C1160 H1179 0.913 . S
C1161 H1137 0.950 . S
C1161 C1160 1.524 . S
C1161 C1162 1.415 . S
C1162 H1138 0.950 . S
C1162 C1157 1.363 . S
C1162 C1161 1.415 . S
C1163 H1139 0.951 . S
C1163 C1164 1.366 . S
C1163 C1165 1.388 . S
C1164 C1163 1.366 . S
C1164 C1168 1.385 . S
C1165 H1140 0.951 . S
C1165 C1163 1.388 . S
C1165 C1166 1.366 . S
C1166 C1165 1.366 . S
C1166 C1167 1.414 . S
C1166 C1169 1.499 . S
C1167 H1141 0.950 . S
C1167 C1166 1.414 . S
C1167 C1168 1.374 . S
C1168 H1142 0.950 . S
C1168 C1164 1.385 . S
C1168 C1167 1.374 . S
C1169 C1166 1.499 . S
C1169 C1170 1.373 . S
C1169 C1171 1.389 . S
C1170 H1143 0.950 . S
C1170 C1156 1.377 . S
C1170 C1169 1.373 . S
C1171 C1155 1.377 . S
C1171 C1169 1.389 . S
C1171 C1172 1.524 . S
C1172 C1171 1.524 . S
C1172 C1173 1.397 . S
C1172 C1177 1.363 . S
C1173 H1144 0.950 . S
C1173 C1172 1.397 . S
C1173 C1174 1.334 . S
C1174 H1145 0.950 . S
C1174 C1173 1.334 . S
C1174 C1175 1.287 . S
C1175 C1174 1.287 . S
C1175 C1176 1.524 . S
C1175 H1178 0.999 . S
C1176 H1146 0.950 . S
C1176 C1175 1.524 . S
C1176 C1177 1.415 . S
C1177 H1147 0.950 . S
C1177 C1172 1.363 . S
C1177 C1176 1.415 . S
H1178 C1175 0.999 . S
H1179 C1160 0.913 . S
H1180 C1198 0.951 . S
H1181 C1200 0.951 . S
H1182 C1202 0.950 . S
H1183 C1203 0.950 . S
H1184 C1205 0.950 . S
H1185 C1208 0.950 . S
H1186 C1209 0.950 . S
H1187 C1211 0.950 . S
H1188 C1212 0.950 . S
H1189 C1213 0.951 . S
H1190 C1215 0.951 . S
H1191 C1217 0.950 . S
H1192 C1218 0.950 . S
H1193 C1220 0.950 . S
H1194 C1223 0.950 . S
H1195 C1224 0.950 . S
H1196 C1226 0.950 . S
H1197 C1227 0.950 . S
C1198 H1180 0.951 . S
C1198 C1199 1.366 . S
C1198 C1200 1.388 . S
C1199 C1198 1.366 . S
C1199 C1203 1.385 . S
C1200 H1181 0.951 . S
C1200 C1198 1.388 . S
C1200 C1201 1.366 . S
C1201 C1200 1.366 . S
C1201 C1202 1.414 . S
C1201 C1204 1.499 . S
C1202 H1182 0.950 . S
C1202 C1201 1.414 . S
C1202 C1203 1.374 . S
C1203 H1183 0.950 . S
C1203 C1199 1.385 . S
C1203 C1202 1.374 . S
C1204 C1201 1.499 . S
C1204 C1205 1.373 . S
C1204 C1206 1.389 . S
C1205 H1184 0.950 . S
C1205 C1204 1.373 . S
C1205 C1221 1.377 . S
C1206 C1204 1.389 . S
C1206 C1207 1.524 . S
C1206 C1220 1.377 . S
C1207 C1206 1.524 . S
C1207 C1208 1.397 . S
C1207 C1212 1.363 . S
C1208 H1185 0.950 . S
C1208 C1207 1.397 . S
C1208 C1209 1.334 . S
C1209 H1186 0.950 . S
C1209 C1208 1.334 . S
C1209 C1210 1.287 . S
C1210 C1209 1.287 . S
C1210 C1211 1.524 . S
C1210 H1229 0.913 . S
C1211 H1187 0.950 . S
C1211 C1210 1.524 . S
C1211 C1212 1.415 . S
C1212 H1188 0.950 . S
C1212 C1207 1.363 . S
C1212 C1211 1.415 . S
C1213 H1189 0.951 . S
C1213 C1214 1.366 . S
C1213 C1215 1.388 . S
C1214 C1213 1.366 . S
C1214 C1218 1.385 . S
C1215 H1190 0.951 . S
C1215 C1213 1.388 . S
C1215 C1216 1.366 . S
C1216 C1215 1.366 . S
C1216 C1217 1.414 . S
C1216 C1219 1.499 . S
C1217 H1191 0.950 . S
C1217 C1216 1.414 . S
C1217 C1218 1.374 . S
C1218 H1192 0.950 . S
C1218 C1214 1.385 . S
C1218 C1217 1.374 . S
C1219 C1216 1.499 . S
C1219 C1220 1.373 . S
C1219 C1221 1.389 . S
C1220 H1193 0.950 . S
C1220 C1206 1.377 . S
C1220 C1219 1.373 . S
C1221 C1205 1.377 . S
C1221 C1219 1.389 . S
C1221 C1222 1.524 . S
C1222 C1221 1.524 . S
C1222 C1223 1.397 . S
C1222 C1227 1.363 . S
C1223 H1194 0.950 . S
C1223 C1222 1.397 . S
C1223 C1224 1.334 . S
C1224 H1195 0.950 . S
C1224 C1223 1.334 . S
C1224 C1225 1.287 . S
C1225 C1224 1.287 . S
C1225 C1226 1.524 . S
C1225 H1228 0.999 . S
C1226 H1196 0.950 . S
C1226 C1225 1.524 . S
C1226 C1227 1.415 . S
C1227 H1197 0.950 . S
C1227 C1222 1.363 . S
C1227 C1226 1.415 . S
H1228 C1225 0.999 . S
H1229 C1210 0.913 . S
H1230 C1248 0.951 . S
H1231 C1250 0.951 . S
H1232 C1252 0.950 . S
H1233 C1253 0.950 . S
H1234 C1255 0.950 . S
H1235 C1258 0.950 . S
H1236 C1259 0.950 . S
H1237 C1261 0.950 . S
H1238 C1262 0.950 . S
H1239 C1263 0.951 . S
H1240 C1265 0.951 . S
H1241 C1267 0.950 . S
H1242 C1268 0.950 . S
H1243 C1270 0.950 . S
H1244 C1273 0.950 . S
H1245 C1274 0.950 . S
H1246 C1276 0.950 . S
H1247 C1277 0.950 . S
C1248 H1230 0.951 . S
C1248 C1249 1.366 . S
C1248 C1250 1.388 . S
C1249 C1248 1.366 . S
C1249 C1253 1.385 . S
C1250 H1231 0.951 . S
C1250 C1248 1.388 . S
C1250 C1251 1.366 . S
C1251 C1250 1.366 . S
C1251 C1252 1.414 . S
C1251 C1254 1.499 . S
C1252 H1232 0.950 . S
C1252 C1251 1.414 . S
C1252 C1253 1.374 . S
C1253 H1233 0.950 . S
C1253 C1249 1.385 . S
C1253 C1252 1.374 . S
C1254 C1251 1.499 . S
C1254 C1255 1.373 . S
C1254 C1256 1.389 . S
C1255 H1234 0.950 . S
C1255 C1254 1.373 . S
C1255 C1271 1.377 . S
C1256 C1254 1.389 . S
C1256 C1257 1.524 . S
C1256 C1270 1.377 . S
C1257 C1256 1.524 . S
C1257 C1258 1.397 . S
C1257 C1262 1.363 . S
C1258 H1235 0.950 . S
C1258 C1257 1.397 . S
C1258 C1259 1.334 . S
C1259 H1236 0.950 . S
C1259 C1258 1.334 . S
C1259 C1260 1.287 . S
C1260 C1259 1.287 . S
C1260 C1261 1.524 . S
C1260 H1279 0.913 . S
C1261 H1237 0.950 . S
C1261 C1260 1.524 . S
C1261 C1262 1.415 . S
C1262 H1238 0.950 . S
C1262 C1257 1.363 . S
C1262 C1261 1.415 . S
C1263 H1239 0.951 . S
C1263 C1264 1.366 . S
C1263 C1265 1.388 . S
C1264 C1263 1.366 . S
C1264 C1268 1.385 . S
C1265 H1240 0.951 . S
C1265 C1263 1.388 . S
C1265 C1266 1.366 . S
C1266 C1265 1.366 . S
C1266 C1267 1.414 . S
C1266 C1269 1.499 . S
C1267 H1241 0.950 . S
C1267 C1266 1.414 . S
C1267 C1268 1.374 . S
C1268 H1242 0.950 . S
C1268 C1264 1.385 . S
C1268 C1267 1.374 . S
C1269 C1266 1.499 . S
C1269 C1270 1.373 . S
C1269 C1271 1.389 . S
C1270 H1243 0.950 . S
C1270 C1256 1.377 . S
C1270 C1269 1.373 . S
C1271 C1255 1.377 . S
C1271 C1269 1.389 . S
C1271 C1272 1.524 . S
C1272 C1271 1.524 . S
C1272 C1273 1.397 . S
C1272 C1277 1.363 . S
C1273 H1244 0.950 . S
C1273 C1272 1.397 . S
C1273 C1274 1.334 . S
C1274 H1245 0.950 . S
C1274 C1273 1.334 . S
C1274 C1275 1.287 . S
C1275 C1274 1.287 . S
C1275 C1276 1.524 . S
C1275 H1278 0.999 . S
C1276 H1246 0.950 . S
C1276 C1275 1.524 . S
C1276 C1277 1.415 . S
C1277 H1247 0.950 . S
C1277 C1272 1.363 . S
C1277 C1276 1.415 . S
H1278 C1275 0.999 . S
H1279 C1260 0.913 . S
H1280 C1298 0.951 . S
H1281 C1300 0.951 . S
H1282 C1302 0.950 . S
H1283 C1303 0.950 . S
H1284 C1305 0.950 . S
H1285 C1308 0.950 . S
H1286 C1309 0.950 . S
H1287 C1311 0.950 . S
H1288 C1312 0.950 . S
H1289 C1313 0.951 . S
H1290 C1315 0.951 . S
H1291 C1317 0.950 . S
H1292 C1318 0.950 . S
H1293 C1320 0.950 . S
H1294 C1323 0.950 . S
H1295 C1324 0.950 . S
H1296 C1326 0.950 . S
H1297 C1327 0.950 . S
C1298 H1280 0.951 . S
C1298 C1299 1.366 . S
C1298 C1300 1.388 . S
C1299 C1298 1.366 . S
C1299 C1303 1.385 . S
C1300 H1281 0.951 . S
C1300 C1298 1.388 . S
C1300 C1301 1.366 . S
C1301 C1300 1.366 . S
C1301 C1302 1.414 . S
C1301 C1304 1.499 . S
C1302 H1282 0.950 . S
C1302 C1301 1.414 . S
C1302 C1303 1.374 . S
C1303 H1283 0.950 . S
C1303 C1299 1.385 . S
C1303 C1302 1.374 . S
C1304 C1301 1.499 . S
C1304 C1305 1.373 . S
C1304 C1306 1.389 . S
C1305 H1284 0.950 . S
C1305 C1304 1.373 . S
C1305 C1321 1.377 . S
C1306 C1304 1.389 . S
C1306 C1307 1.524 . S
C1306 C1320 1.377 . S
C1307 C1306 1.524 . S
C1307 C1308 1.397 . S
C1307 C1312 1.363 . S
C1308 H1285 0.950 . S
C1308 C1307 1.397 . S
C1308 C1309 1.334 . S
C1309 H1286 0.950 . S
C1309 C1308 1.334 . S
C1309 C1310 1.287 . S
C1310 C1309 1.287 . S
C1310 C1311 1.524 . S
C1310 H1329 0.913 . S
C1311 H1287 0.950 . S
C1311 C1310 1.524 . S
C1311 C1312 1.415 . S
C1312 H1288 0.950 . S
C1312 C1307 1.363 . S
C1312 C1311 1.415 . S
C1313 H1289 0.951 . S
C1313 C1314 1.366 . S
C1313 C1315 1.388 . S
C1314 C1313 1.366 . S
C1314 C1318 1.385 . S
C1315 H1290 0.951 . S
C1315 C1313 1.388 . S
C1315 C1316 1.366 . S
C1316 C1315 1.366 . S
C1316 C1317 1.414 . S
C1316 C1319 1.499 . S
C1317 H1291 0.950 . S
C1317 C1316 1.414 . S
C1317 C1318 1.374 . S
C1318 H1292 0.950 . S
C1318 C1314 1.385 . S
C1318 C1317 1.374 . S
C1319 C1316 1.499 . S
C1319 C1320 1.373 . S
C1319 C1321 1.389 . S
C1320 H1293 0.950 . S
C1320 C1306 1.377 . S
C1320 C1319 1.373 . S
C1321 C1305 1.377 . S
C1321 C1319 1.389 . S
C1321 C1322 1.524 . S
C1322 C1321 1.524 . S
C1322 C1323 1.397 . S
C1322 C1327 1.363 . S
C1323 H1294 0.950 . S
C1323 C1322 1.397 . S
C1323 C1324 1.334 . S
C1324 H1295 0.950 . S
C1324 C1323 1.334 . S
C1324 C1325 1.287 . S
C1325 C1324 1.287 . S
C1325 C1326 1.524 . S
C1325 H1328 0.999 . S
C1326 H1296 0.950 . S
C1326 C1325 1.524 . S
C1326 C1327 1.415 . S
C1327 H1297 0.950 . S
C1327 C1322 1.363 . S
C1327 C1326 1.415 . S
H1328 C1325 0.999 . S
H1329 C1310 0.913 . S
H1330 C1348 0.951 . S
H1331 C1350 0.951 . S
H1332 C1352 0.950 . S
H1333 C1353 0.950 . S
H1334 C1355 0.950 . S
H1335 C1358 0.950 . S
H1336 C1359 0.950 . S
H1337 C1361 0.950 . S
H1338 C1362 0.950 . S
H1339 C1363 0.951 . S
H1340 C1365 0.951 . S
H1341 C1367 0.950 . S
H1342 C1368 0.950 . S
H1343 C1370 0.950 . S
H1344 C1373 0.950 . S
H1345 C1374 0.950 . S
H1346 C1376 0.950 . S
H1347 C1377 0.950 . S
C1348 H1330 0.951 . S
C1348 C1349 1.366 . S
C1348 C1350 1.388 . S
C1349 C1348 1.366 . S
C1349 C1353 1.385 . S
C1350 H1331 0.951 . S
C1350 C1348 1.388 . S
C1350 C1351 1.366 . S
C1351 C1350 1.366 . S
C1351 C1352 1.414 . S
C1351 C1354 1.499 . S
C1352 H1332 0.950 . S
C1352 C1351 1.414 . S
C1352 C1353 1.374 . S
C1353 H1333 0.950 . S
C1353 C1349 1.385 . S
C1353 C1352 1.374 . S
C1354 C1351 1.499 . S
C1354 C1355 1.373 . S
C1354 C1356 1.389 . S
C1355 H1334 0.950 . S
C1355 C1354 1.373 . S
C1355 C1371 1.377 . S
C1356 C1354 1.389 . S
C1356 C1357 1.524 . S
C1356 C1370 1.377 . S
C1357 C1356 1.524 . S
C1357 C1358 1.397 . S
C1357 C1362 1.363 . S
C1358 H1335 0.950 . S
C1358 C1357 1.397 . S
C1358 C1359 1.334 . S
C1359 H1336 0.950 . S
C1359 C1358 1.334 . S
C1359 C1360 1.287 . S
C1360 C1359 1.287 . S
C1360 C1361 1.524 . S
C1360 H1379 0.913 . S
C1361 H1337 0.950 . S
C1361 C1360 1.524 . S
C1361 C1362 1.415 . S
C1362 H1338 0.950 . S
C1362 C1357 1.363 . S
C1362 C1361 1.415 . S
C1363 H1339 0.951 . S
C1363 C1364 1.366 . S
C1363 C1365 1.388 . S
C1364 C1363 1.366 . S
C1364 C1368 1.385 . S
C1365 H1340 0.951 . S
C1365 C1363 1.388 . S
C1365 C1366 1.366 . S
C1366 C1365 1.366 . S
C1366 C1367 1.414 . S
C1366 C1369 1.499 . S
C1367 H1341 0.950 . S
C1367 C1366 1.414 . S
C1367 C1368 1.374 . S
C1368 H1342 0.950 . S
C1368 C1364 1.385 . S
C1368 C1367 1.374 . S
C1369 C1366 1.499 . S
C1369 C1370 1.373 . S
C1369 C1371 1.389 . S
C1370 H1343 0.950 . S
C1370 C1356 1.377 . S
C1370 C1369 1.373 . S
C1371 C1355 1.377 . S
C1371 C1369 1.389 . S
C1371 C1372 1.524 . S
C1372 C1371 1.524 . S
C1372 C1373 1.397 . S
C1372 C1377 1.363 . S
C1373 H1344 0.950 . S
C1373 C1372 1.397 . S
C1373 C1374 1.334 . S
C1374 H1345 0.950 . S
C1374 C1373 1.334 . S
C1374 C1375 1.287 . S
C1375 C1374 1.287 . S
C1375 C1376 1.524 . S
C1375 H1378 0.999 . S
C1376 H1346 0.950 . S
C1376 C1375 1.524 . S
C1376 C1377 1.415 . S
C1377 H1347 0.950 . S
C1377 C1372 1.363 . S
C1377 C1376 1.415 . S
H1378 C1375 0.999 . S
H1379 C1360 0.913 . S
H1380 C1398 0.951 . S
H1381 C1400 0.951 . S
H1382 C1402 0.950 . S
H1383 C1403 0.950 . S
H1384 C1405 0.950 . S
H1385 C1408 0.950 . S
H1386 C1409 0.950 . S
H1387 C1411 0.950 . S
H1388 C1412 0.950 . S
H1389 C1413 0.951 . S
H1390 C1415 0.951 . S
H1391 C1417 0.950 . S
H1392 C1418 0.950 . S
H1393 C1420 0.950 . S
H1394 C1423 0.950 . S
H1395 C1424 0.950 . S
H1396 C1426 0.950 . S
H1397 C1427 0.950 . S
C1398 H1380 0.951 . S
C1398 C1399 1.366 . S
C1398 C1400 1.388 . S
C1399 C1398 1.366 . S
C1399 C1403 1.385 . S
C1400 H1381 0.951 . S
C1400 C1398 1.388 . S
C1400 C1401 1.366 . S
C1401 C1400 1.366 . S
C1401 C1402 1.414 . S
C1401 C1404 1.499 . S
C1402 H1382 0.950 . S
C1402 C1401 1.414 . S
C1402 C1403 1.374 . S
C1403 H1383 0.950 . S
C1403 C1399 1.385 . S
C1403 C1402 1.374 . S
C1404 C1401 1.499 . S
C1404 C1405 1.373 . S
C1404 C1406 1.389 . S
C1405 H1384 0.950 . S
C1405 C1404 1.373 . S
C1405 C1421 1.377 . S
C1406 C1404 1.389 . S
C1406 C1407 1.524 . S
C1406 C1420 1.377 . S
C1407 C1406 1.524 . S
C1407 C1408 1.397 . S
C1407 C1412 1.363 . S
C1408 H1385 0.950 . S
C1408 C1407 1.397 . S
C1408 C1409 1.334 . S
C1409 H1386 0.950 . S
C1409 C1408 1.334 . S
C1409 C1410 1.287 . S
C1410 C1409 1.287 . S
C1410 C1411 1.524 . S
C1410 H1429 0.913 . S
C1411 H1387 0.950 . S
C1411 C1410 1.524 . S
C1411 C1412 1.415 . S
C1412 H1388 0.950 . S
C1412 C1407 1.363 . S
C1412 C1411 1.415 . S
C1413 H1389 0.951 . S
C1413 C1414 1.366 . S
C1413 C1415 1.388 . S
C1414 C1413 1.366 . S
C1414 C1418 1.385 . S
C1415 H1390 0.951 . S
C1415 C1413 1.388 . S
C1415 C1416 1.366 . S
C1416 C1415 1.366 . S
C1416 C1417 1.414 . S
C1416 C1419 1.499 . S
C1417 H1391 0.950 . S
C1417 C1416 1.414 . S
C1417 C1418 1.374 . S
C1418 H1392 0.950 . S
C1418 C1414 1.385 . S
C1418 C1417 1.374 . S
C1419 C1416 1.499 . S
C1419 C1420 1.373 . S
C1419 C1421 1.389 . S
C1420 H1393 0.950 . S
C1420 C1406 1.377 . S
C1420 C1419 1.373 . S
C1421 C1405 1.377 . S
C1421 C1419 1.389 . S
C1421 C1422 1.524 . S
C1422 C1421 1.524 . S
C1422 C1423 1.397 . S
C1422 C1427 1.363 . S
C1423 H1394 0.950 . S
C1423 C1422 1.397 . S
C1423 C1424 1.334 . S
C1424 H1395 0.950 . S
C1424 C1423 1.334 . S
C1424 C1425 1.287 . S
C1425 C1424 1.287 . S
C1425 C1426 1.524 . S
C1425 H1428 0.999 . S
C1426 H1396 0.950 . S
C1426 C1425 1.524 . S
C1426 C1427 1.415 . S
C1427 H1397 0.950 . S
C1427 C1422 1.363 . S
C1427 C1426 1.415 . S
H1428 C1425 0.999 . S
H1429 C1410 0.913 . S
H1430 C1448 0.951 . S
H1431 C1450 0.951 . S
H1432 C1452 0.950 . S
H1433 C1453 0.950 . S
H1434 C1455 0.950 . S
H1435 C1458 0.950 . S
H1436 C1459 0.950 . S
H1437 C1461 0.950 . S
H1438 C1462 0.950 . S
H1439 C1463 0.951 . S
H1440 C1465 0.951 . S
H1441 C1467 0.950 . S
H1442 C1468 0.950 . S
H1443 C1470 0.950 . S
H1444 C1473 0.950 . S
H1445 C1474 0.950 . S
H1446 C1476 0.950 . S
H1447 C1477 0.950 . S
C1448 H1430 0.951 . S
C1448 C1449 1.366 . S
C1448 C1450 1.388 . S
C1449 C1448 1.366 . S
C1449 C1453 1.385 . S
C1450 H1431 0.951 . S
C1450 C1448 1.388 . S
C1450 C1451 1.366 . S
C1451 C1450 1.366 . S
C1451 C1452 1.414 . S
C1451 C1454 1.499 . S
C1452 H1432 0.950 . S
C1452 C1451 1.414 . S
C1452 C1453 1.374 . S
C1453 H1433 0.950 . S
C1453 C1449 1.385 . S
C1453 C1452 1.374 . S
C1454 C1451 1.499 . S
C1454 C1455 1.373 . S
C1454 C1456 1.389 . S
C1455 H1434 0.950 . S
C1455 C1454 1.373 . S
C1455 C1471 1.377 . S
C1456 C1454 1.389 . S
C1456 C1457 1.524 . S
C1456 C1470 1.377 . S
C1457 C1456 1.524 . S
C1457 C1458 1.397 . S
C1457 C1462 1.363 . S
C1458 H1435 0.950 . S
C1458 C1457 1.397 . S
C1458 C1459 1.334 . S
C1459 H1436 0.950 . S
C1459 C1458 1.334 . S
C1459 C1460 1.287 . S
C1460 C1459 1.287 . S
C1460 C1461 1.524 . S
C1460 H1479 0.913 . S
C1461 H1437 0.950 . S
C1461 C1460 1.524 . S
C1461 C1462 1.415 . S
C1462 H1438 0.950 . S
C1462 C1457 1.363 . S
C1462 C1461 1.415 . S
C1463 H1439 0.951 . S
C1463 C1464 1.366 . S
C1463 C1465 1.388 . S
C1464 C1463 1.366 . S
C1464 C1468 1.385 . S
C1465 H1440 0.951 . S
C1465 C1463 1.388 . S
C1465 C1466 1.366 . S
C1466 C1465 1.366 . S
C1466 C1467 1.414 . S
C1466 C1469 1.499 . S
C1467 H1441 0.950 . S
C1467 C1466 1.414 . S
C1467 C1468 1.374 . S
C1468 H1442 0.950 . S
C1468 C1464 1.385 . S
C1468 C1467 1.374 . S
C1469 C1466 1.499 . S
C1469 C1470 1.373 . S
C1469 C1471 1.389 . S
C1470 H1443 0.950 . S
C1470 C1456 1.377 . S
C1470 C1469 1.373 . S
C1471 C1455 1.377 . S
C1471 C1469 1.389 . S
C1471 C1472 1.524 . S
C1472 C1471 1.524 . S
C1472 C1473 1.397 . S
C1472 C1477 1.363 . S
C1473 H1444 0.950 . S
C1473 C1472 1.397 . S
C1473 C1474 1.334 . S
C1474 H1445 0.950 . S
C1474 C1473 1.334 . S
C1474 C1475 1.287 . S
C1475 C1474 1.287 . S
C1475 C1476 1.524 . S
C1475 H1478 0.999 . S
C1476 H1446 0.950 . S
C1476 C1475 1.524 . S
C1476 C1477 1.415 . S
C1477 H1447 0.950 . S
C1477 C1472 1.363 . S
C1477 C1476 1.415 . S
H1478 C1475 0.999 . S
H1479 C1460 0.913 . S
H1480 C1498 0.951 . S
H1481 C1500 0.951 . S
H1482 C1502 0.950 . S
H1483 C1503 0.950 . S
H1484 C1505 0.950 . S
H1485 C1508 0.950 . S
H1486 C1509 0.950 . S
H1487 C1511 0.950 . S
H1488 C1512 0.950 . S
H1489 C1513 0.951 . S
H1490 C1515 0.951 . S
H1491 C1517 0.950 . S
H1492 C1518 0.950 . S
H1493 C1520 0.950 . S
H1494 C1523 0.950 . S
H1495 C1524 0.950 . S
H1496 C1526 0.950 . S
H1497 C1527 0.950 . S
C1498 H1480 0.951 . S
C1498 C1499 1.366 . S
C1498 C1500 1.388 . S
C1499 C1498 1.366 . S
C1499 C1503 1.385 . S
C1500 H1481 0.951 . S
C1500 C1498 1.388 . S
C1500 C1501 1.366 . S
C1501 C1500 1.366 . S
C1501 C1502 1.414 . S
C1501 C1504 1.499 . S
C1502 H1482 0.950 . S
C1502 C1501 1.414 . S
C1502 C1503 1.374 . S
C1503 H1483 0.950 . S
C1503 C1499 1.385 . S
C1503 C1502 1.374 . S
C1504 C1501 1.499 . S
C1504 C1505 1.373 . S
C1504 C1506 1.389 . S
C1505 H1484 0.950 . S
C1505 C1504 1.373 . S
C1505 C1521 1.377 . S
C1506 C1504 1.389 . S
C1506 C1507 1.524 . S
C1506 C1520 1.377 . S
C1507 C1506 1.524 . S
C1507 C1508 1.397 . S
C1507 C1512 1.363 . S
C1508 H1485 0.950 . S
C1508 C1507 1.397 . S
C1508 C1509 1.334 . S
C1509 H1486 0.950 . S
C1509 C1508 1.334 . S
C1509 C1510 1.287 . S
C1510 C1509 1.287 . S
C1510 C1511 1.524 . S
C1510 H1529 0.913 . S
C1511 H1487 0.950 . S
C1511 C1510 1.524 . S
C1511 C1512 1.415 . S
C1512 H1488 0.950 . S
C1512 C1507 1.363 . S
C1512 C1511 1.415 . S
C1513 H1489 0.951 . S
C1513 C1514 1.366 . S
C1513 C1515 1.388 . S
C1514 C1513 1.366 . S
C1514 C1518 1.385 . S
C1515 H1490 0.951 . S
C1515 C1513 1.388 . S
C1515 C1516 1.366 . S
C1516 C1515 1.366 . S
C1516 C1517 1.414 . S
C1516 C1519 1.499 . S
C1517 H1491 0.950 . S
C1517 C1516 1.414 . S
C1517 C1518 1.374 . S
C1518 H1492 0.950 . S
C1518 C1514 1.385 . S
C1518 C1517 1.374 . S
C1519 C1516 1.499 . S
C1519 C1520 1.373 . S
C1519 C1521 1.389 . S
C1520 H1493 0.950 . S
C1520 C1506 1.377 . S
C1520 C1519 1.373 . S
C1521 C1505 1.377 . S
C1521 C1519 1.389 . S
C1521 C1522 1.524 . S
C1522 C1521 1.524 . S
C1522 C1523 1.397 . S
C1522 C1527 1.363 . S
C1523 H1494 0.950 . S
C1523 C1522 1.397 . S
C1523 C1524 1.334 . S
C1524 H1495 0.950 . S
C1524 C1523 1.334 . S
C1524 C1525 1.287 . S
C1525 C1524 1.287 . S
C1525 C1526 1.524 . S
C1525 H1528 0.999 . S
C1526 H1496 0.950 . S
C1526 C1525 1.524 . S
C1526 C1527 1.415 . S
C1527 H1497 0.950 . S
C1527 C1522 1.363 . S
C1527 C1526 1.415 . S
H1528 C1525 0.999 . S
H1529 C1510 0.913 . S
H1530 C1548 0.951 . S
H1531 C1550 0.951 . S
H1532 C1552 0.950 . S
H1533 C1553 0.950 . S
H1534 C1555 0.950 . S
H1535 C1558 0.950 . S
H1536 C1559 0.950 . S
H1537 C1561 0.950 . S
H1538 C1562 0.950 . S
H1539 C1563 0.951 . S
H1540 C1565 0.951 . S
H1541 C1567 0.950 . S
H1542 C1568 0.950 . S
H1543 C1570 0.950 . S
H1544 C1573 0.950 . S
H1545 C1574 0.950 . S
H1546 C1576 0.950 . S
H1547 C1577 0.950 . S
C1548 H1530 0.951 . S
C1548 C1549 1.366 . S
C1548 C1550 1.388 . S
C1549 C1548 1.366 . S
C1549 C1553 1.385 . S
C1550 H1531 0.951 . S
C1550 C1548 1.388 . S
C1550 C1551 1.366 . S
C1551 C1550 1.366 . S
C1551 C1552 1.414 . S
C1551 C1554 1.499 . S
C1552 H1532 0.950 . S
C1552 C1551 1.414 . S
C1552 C1553 1.374 . S
C1553 H1533 0.950 . S
C1553 C1549 1.385 . S
C1553 C1552 1.374 . S
C1554 C1551 1.499 . S
C1554 C1555 1.373 . S
C1554 C1556 1.389 . S
C1555 H1534 0.950 . S
C1555 C1554 1.373 . S
C1555 C1571 1.377 . S
C1556 C1554 1.389 . S
C1556 C1557 1.524 . S
C1556 C1570 1.377 . S
C1557 C1556 1.524 . S
C1557 C1558 1.397 . S
C1557 C1562 1.363 . S
C1558 H1535 0.950 . S
C1558 C1557 1.397 . S
C1558 C1559 1.334 . S
C1559 H1536 0.950 . S
C1559 C1558 1.334 . S
C1559 C1560 1.287 . S
C1560 C1559 1.287 . S
C1560 C1561 1.524 . S
C1560 H1579 0.913 . S
C1561 H1537 0.950 . S
C1561 C1560 1.524 . S
C1561 C1562 1.415 . S
C1562 H1538 0.950 . S
C1562 C1557 1.363 . S
C1562 C1561 1.415 . S
C1563 H1539 0.951 . S
C1563 C1564 1.366 . S
C1563 C1565 1.388 . S
C1564 C1563 1.366 . S
C1564 C1568 1.385 . S
C1565 H1540 0.951 . S
C1565 C1563 1.388 . S
C1565 C1566 1.366 . S
C1566 C1565 1.366 . S
C1566 C1567 1.414 . S
C1566 C1569 1.499 . S
C1567 H1541 0.950 . S
C1567 C1566 1.414 . S
C1567 C1568 1.374 . S
C1568 H1542 0.950 . S
C1568 C1564 1.385 . S
C1568 C1567 1.374 . S
C1569 C1566 1.499 . S
C1569 C1570 1.373 . S
C1569 C1571 1.389 . S
C1570 H1543 0.950 . S
C1570 C1556 1.377 . S
C1570 C1569 1.373 . S
C1571 C1555 1.377 . S
C1571 C1569 1.389 . S
C1571 C1572 1.524 . S
C1572 C1571 1.524 . S
C1572 C1573 1.397 . S
C1572 C1577 1.363 . S
C1573 H1544 0.950 . S
C1573 C1572 1.397 . S
C1573 C1574 1.334 . S
C1574 H1545 0.950 . S
C1574 C1573 1.334 . S
C1574 C1575 1.287 . S
C1575 C1574 1.287 . S
C1575 C1576 1.524 . S
C1575 H1578 0.999 . S
C1576 H1546 0.950 . S
C1576 C1575 1.524 . S
C1576 C1577 1.415 . S
C1577 H1547 0.950 . S
C1577 C1572 1.363 . S
C1577 C1576 1.415 . S
H1578 C1575 0.999 . S
H1579 C1560 0.913 . S
H1580 C1598 0.951 . S
H1581 C1600 0.951 . S
H1582 C1602 0.950 . S
H1583 C1603 0.950 . S
H1584 C1605 0.950 . S
H1585 C1608 0.950 . S
H1586 C1609 0.950 . S
H1587 C1611 0.950 . S
H1588 C1612 0.950 . S
H1589 C1613 0.951 . S
H1590 C1615 0.951 . S
H1591 C1617 0.950 . S
H1592 C1618 0.950 . S
H1593 C1620 0.950 . S
H1594 C1623 0.950 . S
H1595 C1624 0.950 . S
H1596 C1626 0.950 . S
H1597 C1627 0.950 . S
C1598 H1580 0.951 . S
C1598 C1599 1.366 . S
C1598 C1600 1.388 . S
C1599 C1598 1.366 . S
C1599 C1603 1.385 . S
C1600 H1581 0.951 . S
C1600 C1598 1.388 . S
C1600 C1601 1.366 . S
C1601 C1600 1.366 . S
C1601 C1602 1.414 . S
C1601 C1604 1.499 . S
C1602 H1582 0.950 . S
C1602 C1601 1.414 . S
C1602 C1603 1.374 . S
C1603 H1583 0.950 . S
C1603 C1599 1.385 . S
C1603 C1602 1.374 . S
C1604 C1601 1.499 . S
C1604 C1605 1.373 . S
C1604 C1606 1.389 . S
C1605 H1584 0.950 . S
C1605 C1604 1.373 . S
C1605 C1621 1.377 . S
C1606 C1604 1.389 . S
C1606 C1607 1.524 . S
C1606 C1620 1.377 . S
C1607 C1606 1.524 . S
C1607 C1608 1.397 . S
C1607 C1612 1.363 . S
C1608 H1585 0.950 . S
C1608 C1607 1.397 . S
C1608 C1609 1.334 . S
C1609 H1586 0.950 . S
C1609 C1608 1.334 . S
C1609 C1610 1.287 . S
C1610 C1609 1.287 . S
C1610 C1611 1.524 . S
C1610 H1629 0.913 . S
C1611 H1587 0.950 . S
C1611 C1610 1.524 . S
C1611 C1612 1.415 . S
C1612 H1588 0.950 . S
C1612 C1607 1.363 . S
C1612 C1611 1.415 . S
C1613 H1589 0.951 . S
C1613 C1614 1.366 . S
C1613 C1615 1.388 . S
C1614 C1613 1.366 . S
C1614 C1618 1.385 . S
C1615 H1590 0.951 . S
C1615 C1613 1.388 . S
C1615 C1616 1.366 . S
C1616 C1615 1.366 . S
C1616 C1617 1.414 . S
C1616 C1619 1.499 . S
C1617 H1591 0.950 . S
C1617 C1616 1.414 . S
C1617 C1618 1.374 . S
C1618 H1592 0.950 . S
C1618 C1614 1.385 . S
C1618 C1617 1.374 . S
C1619 C1616 1.499 . S
C1619 C1620 1.373 . S
C1619 C1621 1.389 . S
C1620 H1593 0.950 . S
C1620 C1606 1.377 . S
C1620 C1619 1.373 . S
C1621 C1605 1.377 . S
C1621 C1619 1.389 . S
C1621 C1622 1.524 . S
C1622 C1621 1.524 . S
C1622 C1623 1.397 . S
C1622 C1627 1.363 . S
C1623 H1594 0.950 . S
C1623 C1622 1.397 . S
C1623 C1624 1.334 . S
C1624 H1595 0.950 . S
C1624 C1623 1.334 . S
C1624 C1625 1.287 . S
C1625 C1624 1.287 . S
C1625 C1626 1.524 . S
C1625 H1628 0.999 . S
C1626 H1596 0.950 . S
C1626 C1625 1.524 . S
C1626 C1627 1.415 . S
C1627 H1597 0.950 . S
C1627 C1622 1.363 . S
C1627 C1626 1.415 . S
H1628 C1625 0.999 . S
H1629 C1610 0.913 . S
H1630 C1648 0.951 . S
H1631 C1650 0.951 . S
H1632 C1652 0.950 . S
H1633 C1653 0.950 . S
H1634 C1655 0.950 . S
H1635 C1658 0.950 . S
H1636 C1659 0.950 . S
H1637 C1661 0.950 . S
H1638 C1662 0.950 . S
H1639 C1663 0.951 . S
H1640 C1665 0.951 . S
H1641 C1667 0.950 . S
H1642 C1668 0.950 . S
H1643 C1670 0.950 . S
H1644 C1673 0.950 . S
H1645 C1674 0.950 . S
H1646 C1676 0.950 . S
H1647 C1677 0.950 . S
C1648 H1630 0.951 . S
C1648 C1649 1.366 . S
C1648 C1650 1.388 . S
C1649 C1648 1.366 . S
C1649 C1653 1.385 . S
C1650 H1631 0.951 . S
C1650 C1648 1.388 . S
C1650 C1651 1.366 . S
C1651 C1650 1.366 . S
C1651 C1652 1.414 . S
C1651 C1654 1.499 . S
C1652 H1632 0.950 . S
C1652 C1651 1.414 . S
C1652 C1653 1.374 . S
C1653 H1633 0.950 . S
C1653 C1649 1.385 . S
C1653 C1652 1.374 . S
C1654 C1651 1.499 . S
C1654 C1655 1.373 . S
C1654 C1656 1.389 . S
C1655 H1634 0.950 . S
C1655 C1654 1.373 . S
C1655 C1671 1.377 . S
C1656 C1654 1.389 . S
C1656 C1657 1.524 . S
C1656 C1670 1.377 . S
C1657 C1656 1.524 . S
C1657 C1658 1.397 . S
C1657 C1662 1.363 . S
C1658 H1635 0.950 . S
C1658 C1657 1.397 . S
C1658 C1659 1.334 . S
C1659 H1636 0.950 . S
C1659 C1658 1.334 . S
C1659 C1660 1.287 . S
C1660 C1659 1.287 . S
C1660 C1661 1.524 . S
C1660 H1679 0.913 . S
C1661 H1637 0.950 . S
C1661 C1660 1.524 . S
C1661 C1662 1.415 . S
C1662 H1638 0.950 . S
C1662 C1657 1.363 . S
C1662 C1661 1.415 . S
C1663 H1639 0.951 . S
C1663 C1664 1.366 . S
C1663 C1665 1.388 . S
C1664 C1663 1.366 . S
C1664 C1668 1.385 . S
C1665 H1640 0.951 . S
C1665 C1663 1.388 . S
C1665 C1666 1.366 . S
C1666 C1665 1.366 . S
C1666 C1667 1.414 . S
C1666 C1669 1.499 . S
C1667 H1641 0.950 . S
C1667 C1666 1.414 . S
C1667 C1668 1.374 . S
C1668 H1642 0.950 . S
C1668 C1664 1.385 . S
C1668 C1667 1.374 . S
C1669 C1666 1.499 . S
C1669 C1670 1.373 . S
C1669 C1671 1.389 . S
C1670 H1643 0.950 . S
C1670 C1656 1.377 . S
C1670 C1669 1.373 . S
C1671 C1655 1.377 . S
C1671 C1669 1.389 . S
C1671 C1672 1.524 . S
C1672 C1671 1.524 . S
C1672 C1673 1.397 . S
C1672 C1677 1.363 . S
C1673 H1644 0.950 . S
C1673 C1672 1.397 . S
C1673 C1674 1.334 . S
C1674 H1645 0.950 . S
C1674 C1673 1.334 . S
C1674 C1675 1.287 . S
C1675 C1674 1.287 . S
C1675 C1676 1.524 . S
C1675 H1678 0.999 . S
C1676 H1646 0.950 . S
C1676 C1675 1.524 . S
C1676 C1677 1.415 . S
C1677 H1647 0.950 . S
C1677 C1672 1.363 . S
C1677 C1676 1.415 . S
H1678 C1675 0.999 . S
H1679 C1660 0.913 . S
H1680 C1698 0.951 . S
H1681 C1700 0.951 . S
H1682 C1702 0.950 . S
H1683 C1703 0.950 . S
H1684 C1705 0.950 . S
H1685 C1708 0.950 . S
H1686 C1709 0.950 . S
H1687 C1711 0.950 . S
H1688 C1712 0.950 . S
H1689 C1713 0.951 . S
H1690 C1715 0.951 . S
H1691 C1717 0.950 . S
H1692 C1718 0.950 . S
H1693 C1720 0.950 . S
H1694 C1723 0.950 . S
H1695 C1724 0.950 . S
H1696 C1726 0.950 . S
H1697 C1727 0.950 . S
C1698 H1680 0.951 . S
C1698 C1699 1.366 . S
C1698 C1700 1.388 . S
C1699 C1698 1.366 . S
C1699 C1703 1.385 . S
C1700 H1681 0.951 . S
C1700 C1698 1.388 . S
C1700 C1701 1.366 . S
C1701 C1700 1.366 . S
C1701 C1702 1.414 . S
C1701 C1704 1.499 . S
C1702 H1682 0.950 . S
C1702 C1701 1.414 . S
C1702 C1703 1.374 . S
C1703 H1683 0.950 . S
C1703 C1699 1.385 . S
C1703 C1702 1.374 . S
C1704 C1701 1.499 . S
C1704 C1705 1.373 . S
C1704 C1706 1.389 . S
C1705 H1684 0.950 . S
C1705 C1704 1.373 . S
C1705 C1721 1.377 . S
C1706 C1704 1.389 . S
C1706 C1707 1.524 . S
C1706 C1720 1.377 . S
C1707 C1706 1.524 . S
C1707 C1708 1.397 . S
C1707 C1712 1.363 . S
C1708 H1685 0.950 . S
C1708 C1707 1.397 . S
C1708 C1709 1.334 . S
C1709 H1686 0.950 . S
C1709 C1708 1.334 . S
C1709 C1710 1.287 . S
C1710 C1709 1.287 . S
C1710 C1711 1.524 . S
C1710 H1729 0.913 . S
C1711 H1687 0.950 . S
C1711 C1710 1.524 . S
C1711 C1712 1.415 . S
C1712 H1688 0.950 . S
C1712 C1707 1.363 . S
C1712 C1711 1.415 . S
C1713 H1689 0.951 . S
C1713 C1714 1.366 . S
C1713 C1715 1.388 . S
C1714 C1713 1.366 . S
C1714 C1718 1.385 . S
C1715 H1690 0.951 . S
C1715 C1713 1.388 . S
C1715 C1716 1.366 . S
C1716 C1715 1.366 . S
C1716 C1717 1.414 . S
C1716 C1719 1.499 . S
C1717 H1691 0.950 . S
C1717 C1716 1.414 . S
C1717 C1718 1.374 . S
C1718 H1692 0.950 . S
C1718 C1714 1.385 . S
C1718 C1717 1.374 . S
C1719 C1716 1.499 . S
C1719 C1720 1.373 . S
C1719 C1721 1.389 . S
C1720 H1693 0.950 . S
C1720 C1706 1.377 . S
C1720 C1719 1.373 . S
C1721 C1705 1.377 . S
C1721 C1719 1.389 . S
C1721 C1722 1.524 . S
C1722 C1721 1.524 . S
C1722 C1723 1.397 . S
C1722 C1727 1.363 . S
C1723 H1694 0.950 . S
C1723 C1722 1.397 . S
C1723 C1724 1.334 . S
C1724 H1695 0.950 . S
C1724 C1723 1.334 . S
C1724 C1725 1.287 . S
C1725 C1724 1.287 . S
C1725 C1726 1.524 . S
C1725 H1728 0.999 . S
C1726 H1696 0.950 . S
C1726 C1725 1.524 . S
C1726 C1727 1.415 . S
C1727 H1697 0.950 . S
C1727 C1722 1.363 . S
C1727 C1726 1.415 . S
H1728 C1725 0.999 . S
H1729 C1710 0.913 . S
H1730 C1748 0.951 . S
H1731 C1750 0.951 . S
H1732 C1752 0.950 . S
H1733 C1753 0.950 . S
H1734 C1755 0.950 . S
H1735 C1758 0.950 . S
H1736 C1759 0.950 . S
H1737 C1761 0.950 . S
H1738 C1762 0.950 . S
H1739 C1763 0.951 . S
H1740 C1765 0.951 . S
H1741 C1767 0.950 . S
H1742 C1768 0.950 . S
H1743 C1770 0.950 . S
H1744 C1773 0.950 . S
H1745 C1774 0.950 . S
H1746 C1776 0.950 . S
H1747 C1777 0.950 . S
C1748 H1730 0.951 . S
C1748 C1749 1.366 . S
C1748 C1750 1.388 . S
C1749 C1748 1.366 . S
C1749 C1753 1.385 . S
C1750 H1731 0.951 . S
C1750 C1748 1.388 . S
C1750 C1751 1.366 . S
C1751 C1750 1.366 . S
C1751 C1752 1.414 . S
C1751 C1754 1.499 . S
C1752 H1732 0.950 . S
C1752 C1751 1.414 . S
C1752 C1753 1.374 . S
C1753 H1733 0.950 . S
C1753 C1749 1.385 . S
C1753 C1752 1.374 . S
C1754 C1751 1.499 . S
C1754 C1755 1.373 . S
C1754 C1756 1.389 . S
C1755 H1734 0.950 . S
C1755 C1754 1.373 . S
C1755 C1771 1.377 . S
C1756 C1754 1.389 . S
C1756 C1757 1.524 . S
C1756 C1770 1.377 . S
C1757 C1756 1.524 . S
C1757 C1758 1.397 . S
C1757 C1762 1.363 . S
C1758 H1735 0.950 . S
C1758 C1757 1.397 . S
C1758 C1759 1.334 . S
C1759 H1736 0.950 . S
C1759 C1758 1.334 . S
C1759 C1760 1.287 . S
C1760 C1759 1.287 . S
C1760 C1761 1.524 . S
C1760 H1779 0.913 . S
C1761 H1737 0.950 . S
C1761 C1760 1.524 . S
C1761 C1762 1.415 . S
C1762 H1738 0.950 . S
C1762 C1757 1.363 . S
C1762 C1761 1.415 . S
C1763 H1739 0.951 . S
C1763 C1764 1.366 . S
C1763 C1765 1.388 . S
C1764 C1763 1.366 . S
C1764 C1768 1.385 . S
C1765 H1740 0.951 . S
C1765 C1763 1.388 . S
C1765 C1766 1.366 . S
C1766 C1765 1.366 . S
C1766 C1767 1.414 . S
C1766 C1769 1.499 . S
C1767 H1741 0.950 . S
C1767 C1766 1.414 . S
C1767 C1768 1.374 . S
C1768 H1742 0.950 . S
C1768 C1764 1.385 . S
C1768 C1767 1.374 . S
C1769 C1766 1.499 . S
C1769 C1770 1.373 . S
C1769 C1771 1.389 . S
C1770 H1743 0.950 . S
C1770 C1756 1.377 . S
C1770 C1769 1.373 . S
C1771 C1755 1.377 . S
C1771 C1769 1.389 . S
C1771 C1772 1.524 . S
C1772 C1771 1.524 . S
C1772 C1773 1.397 . S
C1772 C1777 1.363 . S
C1773 H1744 0.950 . S
C1773 C1772 1.397 . S
C1773 C1774 1.334 . S
C1774 H1745 0.950 . S
C1774 C1773 1.334 . S
C1774 C1775 1.287 . S
C1775 C1774 1.287 . S
C1775 C1776 1.524 . S
C1775 H1778 0.999 . S
C1776 H1746 0.950 . S
C1776 C1775 1.524 . S
C1776 C1777 1.415 . S
C1777 H1747 0.950 . S
C1777 C1772 1.363 . S
C1777 C1776 1.415 . S
H1778 C1775 0.999 . S
H1779 C1760 0.913 . S
H1780 C1798 0.951 . S
H1781 C1800 0.951 . S
H1782 C1802 0.950 . S
H1783 C1803 0.950 . S
H1784 C1805 0.950 . S
H1785 C1808 0.950 . S
H1786 C1809 0.950 . S
H1787 C1811 0.950 . S
H1788 C1812 0.950 . S
H1789 C1813 0.951 . S
H1790 C1815 0.951 . S
H1791 C1817 0.950 . S
H1792 C1818 0.950 . S
H1793 C1820 0.950 . S
H1794 C1823 0.950 . S
H1795 C1824 0.950 . S
H1796 C1826 0.950 . S
H1797 C1827 0.950 . S
C1798 H1780 0.951 . S
C1798 C1799 1.366 . S
C1798 C1800 1.388 . S
C1799 C1798 1.366 . S
C1799 C1803 1.385 . S
C1800 H1781 0.951 . S
C1800 C1798 1.388 . S
C1800 C1801 1.366 . S
C1801 C1800 1.366 . S
C1801 C1802 1.414 . S
C1801 C1804 1.499 . S
C1802 H1782 0.950 . S
C1802 C1801 1.414 . S
C1802 C1803 1.374 . S
C1803 H1783 0.950 . S
C1803 C1799 1.385 . S
C1803 C1802 1.374 . S
C1804 C1801 1.499 . S
C1804 C1805 1.373 . S
C1804 C1806 1.389 . S
C1805 H1784 0.950 . S
C1805 C1804 1.373 . S
C1805 C1821 1.377 . S
C1806 C1804 1.389 . S
C1806 C1807 1.524 . S
C1806 C1820 1.377 . S
C1807 C1806 1.524 . S
C1807 C1808 1.397 . S
C1807 C1812 1.363 . S
C1808 H1785 0.950 . S
C1808 C1807 1.397 . S
C1808 C1809 1.334 . S
C1809 H1786 0.950 . S
C1809 C1808 1.334 . S
C1809 C1810 1.287 . S
C1810 C1809 1.287 . S
C1810 C1811 1.524 . S
C1810 H1829 0.913 . S
C1811 H1787 0.950 . S
C1811 C1810 1.524 . S
C1811 C1812 1.415 . S
C1812 H1788 0.950 . S
C1812 C1807 1.363 . S
C1812 C1811 1.415 . S
C1813 H1789 0.951 . S
C1813 C1814 1.366 . S
C1813 C1815 1.388 . S
C1814 C1813 1.366 . S
C1814 C1818 1.385 . S
C1815 H1790 0.951 . S
C1815 C1813 1.388 . S
C1815 C1816 1.366 . S
C1816 C1815 1.366 . S
C1816 C1817 1.414 . S
C1816 C1819 1.499 . S
C1817 H1791 0.950 . S
C1817 C1816 1.414 . S
C1817 C1818 1.374 . S
C1818 H1792 0.950 . S
C1818 C1814 1.385 . S
C1818 C1817 1.374 . S
C1819 C1816 1.499 . S
C1819 C1820 1.373 . S
C1819 C1821 1.389 . S
C1820 H1793 0.950 . S
C1820 C1806 1.377 . S
C1820 C1819 1.373 . S
C1821 C1805 1.377 . S
C1821 C1819 1.389 . S
C1821 C1822 1.524 . S
C1822 C1821 1.524 . S
C1822 C1823 1.397 . S
C1822 C1827 1.363 . S
C1823 H1794 0.950 . S
C1823 C1822 1.397 . S
C1823 C1824 1.334 . S
C1824 H1795 0.950 . S
C1824 C1823 1.334 . S
C1824 C1825 1.287 . S
C1825 C1824 1.287 . S
C1825 C1826 1.524 . S
C1825 H1828 0.999 . S
C1826 H1796 0.950 . S
C1826 C1825 1.524 . S
C1826 C1827 1.415 . S
C1827 H1797 0.950 . S
C1827 C1822 1.363 . S
C1827 C1826 1.415 . S
H1828 C1825 0.999 . S
H1829 C1810 0.913 . S
H1830 C1848 0.951 . S
H1831 C1850 0.951 . S
H1832 C1852 0.950 . S
H1833 C1853 0.950 . S
H1834 C1855 0.950 . S
H1835 C1858 0.950 . S
H1836 C1859 0.950 . S
H1837 C1861 0.950 . S
H1838 C1862 0.950 . S
H1839 C1863 0.951 . S
H1840 C1865 0.951 . S
H1841 C1867 0.950 . S
H1842 C1868 0.950 . S
H1843 C1870 0.950 . S
H1844 C1873 0.950 . S
H1845 C1874 0.950 . S
H1846 C1876 0.950 . S
H1847 C1877 0.950 . S
C1848 H1830 0.951 . S
C1848 C1849 1.366 . S
C1848 C1850 1.388 . S
C1849 C1848 1.366 . S
C1849 C1853 1.385 . S
C1850 H1831 0.951 . S
C1850 C1848 1.388 . S
C1850 C1851 1.366 . S
C1851 C1850 1.366 . S
C1851 C1852 1.414 . S
C1851 C1854 1.499 . S
C1852 H1832 0.950 . S
C1852 C1851 1.414 . S
C1852 C1853 1.374 . S
C1853 H1833 0.950 . S
C1853 C1849 1.385 . S
C1853 C1852 1.374 . S
C1854 C1851 1.499 . S
C1854 C1855 1.373 . S
C1854 C1856 1.389 . S
C1855 H1834 0.950 . S
C1855 C1854 1.373 . S
C1855 C1871 1.377 . S
C1856 C1854 1.389 . S
C1856 C1857 1.524 . S
C1856 C1870 1.377 . S
C1857 C1856 1.524 . S
C1857 C1858 1.397 . S
C1857 C1862 1.363 . S
C1858 H1835 0.950 . S
C1858 C1857 1.397 . S
C1858 C1859 1.334 . S
C1859 H1836 0.950 . S
C1859 C1858 1.334 . S
C1859 C1860 1.287 . S
C1860 C1859 1.287 . S
C1860 C1861 1.524 . S
C1860 H1879 0.913 . S
C1861 H1837 0.950 . S
C1861 C1860 1.524 . S
C1861 C1862 1.415 . S
C1862 H1838 0.950 . S
C1862 C1857 1.363 . S
C1862 C1861 1.415 . S
C1863 H1839 0.951 . S
C1863 C1864 1.366 . S
C1863 C1865 1.388 . S
C1864 C1863 1.366 . S
C1864 C1868 1.385 . S
C1865 H1840 0.951 . S
C1865 C1863 1.388 . S
C1865 C1866 1.366 . S
C1866 C1865 1.366 . S
C1866 C1867 1.414 . S
C1866 C1869 1.499 . S
C1867 H1841 0.950 . S
C1867 C1866 1.414 . S
C1867 C1868 1.374 . S
C1868 H1842 0.950 . S
C1868 C1864 1.385 . S
C1868 C1867 1.374 . S
C1869 C1866 1.499 . S
C1869 C1870 1.373 . S
C1869 C1871 1.389 . S
C1870 H1843 0.950 . S
C1870 C1856 1.377 . S
C1870 C1869 1.373 . S
C1871 C1855 1.377 . S
C1871 C1869 1.389 . S
C1871 C1872 1.524 . S
C1872 C1871 1.524 . S
C1872 C1873 1.397 . S
C1872 C1877 1.363 . S
C1873 H1844 0.950 . S
C1873 C1872 1.397 . S
C1873 C1874 1.334 . S
C1874 H1845 0.950 . S
C1874 C1873 1.334 . S
C1874 C1875 1.287 . S
C1875 C1874 1.287 . S
C1875 C1876 1.524 . S
C1875 H1878 0.999 . S
C1876 H1846 0.950 . S
C1876 C1875 1.524 . S
C1876 C1877 1.415 . S
C1877 H1847 0.950 . S
C1877 C1872 1.363 . S
C1877 C1876 1.415 . S
H1878 C1875 0.999 . S
H1879 C1860 0.913 . S
C314 C169 1.508 . S
C299 C12 1.398 . S
C364 C195 1.513 . S
C349 C33 1.402 . S
C414 C209 1.505 . S
C399 C51 1.420 . S
C464 C211 1.512 . S
C449 C75 1.402 . S
C499 C103 1.430 . S
C514 C208 1.503 . S
C564 C210 1.509 . S
C549 C122 1.407 . S
C614 C168 1.495 . S
C599 C145 1.422 . S
C664 C194 1.499 . S
C649 C166 1.426 . S
C714 C196 1.513 . S
C699 C164 1.412 . S
C764 C222 1.517 . S
C749 C101 1.417 . S
C814 C180 1.502 . S
C799 C124 1.427 . S
C864 C182 1.508 . S
C849 C143 1.408 . S
C914 C181 1.506 . S
C899 C30 1.419 . S
C964 C183 1.512 . S
C949 C54 1.405 . S
C1014 C197 1.504 . S
C999 C72 1.417 . S
C1064 C223 1.509 . S
C1049 C9 1.422 . S
C1114 C225 1.508 . S
C1099 C159 1.398 . S
C1149 C96 1.402 . S
C1164 C251 1.513 . S
C1199 C114 1.420 . S
C1214 C264 1.506 . S
C1249 C138 1.402 . S
C1264 C267 1.512 . S
C1299 C40 1.431 . S
C1314 C265 1.504 . S
C1349 C59 1.408 . S
C1364 C266 1.509 . S
C1399 C82 1.422 . S
C1414 C224 1.495 . S
C1464 C250 1.499 . S
C1449 C19 1.426 . S
C1514 C253 1.513 . S
C1499 C17 1.413 . S
C1549 C38 1.417 . S
C1564 C278 1.517 . S
C1599 C61 1.428 . S
C1614 C236 1.502 . S
C1649 C80 1.407 . S
C1664 C238 1.508 . S
C1714 C237 1.506 . S
C1699 C93 1.419 . S
C1764 C239 1.512 . S
C1749 C117 1.404 . S
C1799 C135 1.417 . S
C1814 C252 1.504 . S
C1864 C279 1.509 . S
C1849 C156 1.421 . S
