# Generated by pormake.
# Topology zzz, (3,6)-cn, num edge types: 1
# Building blocks:
#     Node 0, Type 0, BuildingBlock: BELTOD_clean_linker_0, # of connection points: 3
#     Node 1, Type 0, BuildingBlock: BELTOD_clean_linker_0, # of connection points: 3
#     Node 2, Type 0, BuildingBlock: BELTOD_clean_linker_0, # of connection points: 3
#     Node 3, Type 0, BuildingBlock: BELTOD_clean_linker_0, # of connection points: 3
#     Node 4, Type 0, BuildingBlock: BELTOD_clean_linker_0, # of connection points: 3
#     Node 5, Type 0, BuildingBlock: BELTOD_clean_linker_0, # of connection points: 3
#     Node 6, Type 0, BuildingBlock: BELTOD_clean_linker_0, # of connection points: 3
#     Node 7, Type 0, BuildingBlock: BELTOD_clean_linker_0, # of connection points: 3
#     Node 8, Type 1, BuildingBlock: BETFAJ_clean_sbu_0, # of connection points: 6
#     Node 9, Type 1, BuildingBlock: BETFAJ_clean_sbu_0, # of connection points: 6
#     Node 10, Type 1, BuildingBlock: BETFAJ_clean_sbu_0, # of connection points: 6
#     Node 11, Type 1, BuildingBlock: BETFAJ_clean_sbu_0, # of connection points: 6
#     Edge 12, Type (0, 1), BuildingBlock: AJUNOK_clean_linker_0, # of connection points: 2
#     Edge 13, Type (0, 1), BuildingBlock: AJUNOK_clean_linker_0, # of connection points: 2
#     Edge 14, Type (0, 1), BuildingBlock: AJUNOK_clean_linker_0, # of connection points: 2
#     Edge 15, Type (0, 1), BuildingBlock: AJUNOK_clean_linker_0, # of connection points: 2
#     Edge 16, Type (0, 1), BuildingBlock: AJUNOK_clean_linker_0, # of connection points: 2
#     Edge 17, Type (0, 1), BuildingBlock: AJUNOK_clean_linker_0, # of connection points: 2
#     Edge 18, Type (0, 1), BuildingBlock: AJUNOK_clean_linker_0, # of connection points: 2
#     Edge 19, Type (0, 1), BuildingBlock: AJUNOK_clean_linker_0, # of connection points: 2
#     Edge 20, Type (0, 1), BuildingBlock: AJUNOK_clean_linker_0, # of connection points: 2
#     Edge 21, Type (0, 1), BuildingBlock: AJUNOK_clean_linker_0, # of connection points: 2
#     Edge 22, Type (0, 1), BuildingBlock: AJUNOK_clean_linker_0, # of connection points: 2
#     Edge 23, Type (0, 1), BuildingBlock: AJUNOK_clean_linker_0, # of connection points: 2
#     Edge 24, Type (0, 1), BuildingBlock: AJUNOK_clean_linker_0, # of connection points: 2
#     Edge 25, Type (0, 1), BuildingBlock: AJUNOK_clean_linker_0, # of connection points: 2
#     Edge 26, Type (0, 1), BuildingBlock: AJUNOK_clean_linker_0, # of connection points: 2
#     Edge 27, Type (0, 1), BuildingBlock: AJUNOK_clean_linker_0, # of connection points: 2
#     Edge 28, Type (0, 1), BuildingBlock: AJUNOK_clean_linker_0, # of connection points: 2
#     Edge 29, Type (0, 1), BuildingBlock: AJUNOK_clean_linker_0, # of connection points: 2
#     Edge 30, Type (0, 1), BuildingBlock: AJUNOK_clean_linker_0, # of connection points: 2
#     Edge 31, Type (0, 1), BuildingBlock: AJUNOK_clean_linker_0, # of connection points: 2
#     Edge 32, Type (0, 1), BuildingBlock: AJUNOK_clean_linker_0, # of connection points: 2
#     Edge 33, Type (0, 1), BuildingBlock: AJUNOK_clean_linker_0, # of connection points: 2
#     Edge 34, Type (0, 1), BuildingBlock: AJUNOK_clean_linker_0, # of connection points: 2
#     Edge 35, Type (0, 1), BuildingBlock: AJUNOK_clean_linker_0, # of connection points: 2
# Relax obj value: 0.502
# Max RMSD: 0.250
# Mean RMSD: 0.246
data_MOF--net-zzz--node1-BETFAJ_clean_sbu_0--node2-BELTOD_clean_linker_0--edge1-AJUNOK_clean_linker_0
_symmetry_space_group_name_H-M    P1
_symmetry_Int_Tables_number       1
_symmetry_cell_setting            triclinic
loop_
_symmetry_equiv_pos_as_xyz
'x, y, z'
_cell_length_a     41.983797
_cell_length_b     42.183157
_cell_length_c     13.093816
_cell_angle_alpha  89.775951
_cell_angle_beta   89.916634
_cell_angle_gamma 90.208385
loop_
_atom_site_label
_atom_site_type_symbol
_atom_site_fract_x
_atom_site_fract_y
_atom_site_fract_z
_atom_type_partial_charge
P0 P 0.7228 0.48818 0.47975 0.0
H1 H 0.7531 0.48515 0.67839 0.0
H2 H 0.80722 0.4952 0.73021 0.0
H3 H 0.82383 0.54751 0.4507 0.0
H4 H 0.76991 0.53426 0.39446 0.0
H5 H 0.66261 0.46266 0.41592 0.0
H6 H 0.62533 0.47605 0.2807 0.0
H7 H 0.67862 0.56108 0.21453 0.0
H8 H 0.71698 0.54713 0.34978 0.0
H9 H 0.75365 0.42899 0.53876 0.0
H10 H 0.74128 0.48518 0.26583 0.0
O11 O 0.70355 0.46999 0.57517 0.0
H12 H 0.79913 0.40238 0.45999 0.0
H13 H 0.78674 0.45963 0.18869 0.0
C14 C 0.75642 0.50987 0.53357 0.0
C15 C 0.76771 0.50003 0.62957 0.0
C16 C 0.79918 0.50593 0.65974 0.0
C17 C 0.82046 0.52276 0.59613 0.0
C18 C 0.8085 0.53436 0.50228 0.0
C19 C 0.77711 0.52757 0.47081 0.0
C20 C 0.6924 0.50418 0.39531 0.0
C21 C 0.66585 0.48485 0.37525 0.0
C22 C 0.64421 0.49262 0.29825 0.0
C23 C 0.6482 0.52012 0.23908 0.0
C24 C 0.67455 0.53994 0.25996 0.0
C25 C 0.69649 0.53205 0.33756 0.0
C26 C 0.74401 0.45898 0.40805 0.0
C27 C 0.7597 0.43452 0.46024 0.0
C28 C 0.78594 0.41965 0.41577 0.0
C29 C 0.79696 0.42955 0.3194 0.0
C30 C 0.77882 0.45138 0.263 0.0
C31 C 0.75261 0.46605 0.30718 0.0
P32 P 0.04469 0.72435 0.4502 0.0
H33 H 1.01892 0.74421 0.64889 0.0
H34 H 1.00772 0.79708 0.71487 0.0
H35 H 1.01403 0.83525 0.40917 0.0
H36 H 0.02402 0.78217 0.34317 0.0
H37 H 0.05498 0.65737 0.41467 0.0
H38 H 0.04359 0.62277 0.27152 0.0
H39 H 0.98912 0.6971 0.12814 0.0
H40 H 1.00089 0.73214 0.27299 0.0
H41 H 0.09577 0.75918 0.54821 0.0
H42 H 0.07008 0.73236 0.24146 0.0
O43 O 0.05464 0.70329 0.55345 0.0
H44 H 0.12702 0.80345 0.4804 0.0
H45 H 0.10059 0.77649 0.17423 0.0
C46 C 0.02219 0.75886 0.49058 0.0
C47 C 1.01661 0.76365 0.59522 0.0
C48 C 1.01089 0.79415 0.63338 0.0
C49 C 1.01105 0.82071 0.56792 0.0
C50 C 1.01385 0.81546 0.4621 0.0
C51 C 1.01922 0.78489 0.42391 0.0
C52 C 0.02837 0.69731 0.35604 0.0
C53 C 0.03966 0.66605 0.35433 0.0
C54 C 0.03308 0.64608 0.27191 0.0
C55 C 1.01523 0.65686 0.18808 0.0
C56 C 1.00295 0.68795 0.19139 0.0
C57 C 1.00941 0.70797 0.27467 0.0
C58 C 0.0802 0.74266 0.40023 0.0
C59 C 0.09834 0.7616 0.46621 0.0
C60 C 0.116 0.78707 0.42749 0.0
C61 C 0.11586 0.79365 0.32226 0.0
C62 C 0.10143 0.7719 0.25562 0.0
C63 C 0.08369 0.74656 0.29442 0.0
P64 P 0.81736 0.04505 0.49793 0.0
H65 H 0.79367 0.02591 0.7004 0.0
H66 H 0.73997 1.01197 0.75687 0.0
H67 H 0.71119 1.00142 0.44242 0.0
H68 H 0.76527 1.01369 0.387 0.0
H69 H 0.87699 0.07214 0.43017 0.0
H70 H 0.91514 0.05863 0.29719 0.0
H71 H 0.86154 0.97358 0.23149 0.0
H72 H 0.8226 0.98797 0.36414 0.0
H73 H 0.78013 0.09626 0.58449 0.0
H74 H 0.80501 0.06229 0.28457 0.0
O75 O 0.83651 0.05868 0.6005 0.0
H76 H 0.73263 0.12147 0.51382 0.0
H77 H 0.75781 0.08727 0.21433 0.0
C78 C 0.78404 0.02037 0.53909 0.0
C79 C 0.77633 0.01899 0.64354 0.0
C80 C 0.74526 1.0116 0.67591 0.0
C81 C 0.72091 1.00564 0.60464 0.0
C82 C 0.72922 1.00505 0.50022 0.0
C83 C 0.76044 1.01196 0.46808 0.0
C84 C 0.84718 0.03084 0.40862 0.0
C85 C 0.87378 0.05017 0.38888 0.0
C86 C 0.89583 0.04226 0.31297 0.0
C87 C 0.89199 1.01462 0.25446 0.0
C88 C 0.8654 0.99497 0.27527 0.0
C89 C 0.84315 1.00305 0.35147 0.0
C90 C 0.79608 0.07728 0.44002 0.0
C91 C 0.77648 0.09582 0.50262 0.0
C92 C 0.74913 0.1099 0.46248 0.0
C93 C 0.74127 0.10559 0.35928 0.0
C94 C 0.76333 0.09093 0.29424 0.0
C95 C 0.79053 0.07671 0.33449 0.0
P96 P 0.48877 0.81499 0.50485 0.0
H97 H 0.51301 0.79151 0.70178 0.0
H98 H 0.52332 0.73735 0.75943 0.0
H99 H 0.51972 0.70512 0.44722 0.0
H100 H 0.51011 0.7593 0.38987 0.0
H101 H 0.47701 0.88141 0.46057 0.0
H102 H 0.48962 0.91496 0.31372 0.0
H103 H 0.54964 0.84139 0.19209 0.0
H104 H 0.53635 0.80745 0.33856 0.0
H105 H 0.44366 0.76905 0.58619 0.0
H106 H 0.45561 0.82159 0.30523 0.0
O107 O 0.47899 0.83533 0.6093 0.0
H108 H 0.41926 0.72584 0.49238 0.0
H109 H 0.42841 0.77968 0.21265 0.0
C110 C 0.51116 0.77989 0.54106 0.0
C111 C 0.51583 0.77312 0.64508 0.0
C112 C 0.52105 0.74191 0.67832 0.0
C113 C 0.52138 0.71666 0.6083 0.0
C114 C 0.51959 0.7239 0.50342 0.0
C115 C 0.5146 0.75515 0.47022 0.0
C116 C 0.50613 0.84201 0.41202 0.0
C117 C 0.49382 0.87283 0.40437 0.0
C118 C 0.50112 0.89214 0.32032 0.0
C119 C 0.52099 0.88112 0.24178 0.0
C120 C 0.53432 0.85064 0.25146 0.0
C121 C 0.52689 0.83124 0.33566 0.0
C122 C 0.4532 0.79765 0.45203 0.0
C123 C 0.43921 0.77225 0.50532 0.0
C124 C 0.42517 0.74742 0.45135 0.0
C125 C 0.42385 0.74862 0.34417 0.0
C126 C 0.43095 0.77743 0.29467 0.0
C127 C 0.44626 0.80165 0.34804 0.0
P128 P 0.32046 0.48165 0.01995 0.0
H129 H 0.29759 0.49174 0.81127 0.0
H130 H 0.24442 0.50471 0.75285 0.0
H131 H 0.2216 0.54145 0.05095 0.0
H132 H 0.27466 0.5267 0.11084 0.0
H133 H 0.38168 0.45478 0.07286 0.0
H134 H 0.41899 0.46381 0.21237 0.0
H135 H 0.36395 0.54452 0.30889 0.0
H136 H 0.32676 0.53568 0.16718 0.0
H137 H 0.27116 0.43897 0.94617 0.0
H138 H 0.30995 0.46572 0.23828 0.0
O139 O 0.33817 0.46222 0.9248 0.0
H140 H 0.21806 0.43729 0.02013 0.0
H141 H 0.25736 0.46111 0.31437 0.0
C142 C 0.29089 0.50854 0.96576 0.0
C143 C 0.28193 0.50408 0.86329 0.0
C144 C 0.25105 0.51141 0.82965 0.0
C145 C 0.22826 0.52399 0.89712 0.0
C146 C 0.23827 0.53139 0.99701 0.0
C147 C 0.26912 0.52374 0.03085 0.0
C148 C 0.35141 0.49471 0.10797 0.0
C149 C 0.37803 0.47507 0.12185 0.0
C150 C 0.3993 0.48006 0.20252 0.0
C151 C 0.39452 0.5048 0.27232 0.0
C152 C 0.36862 0.52543 0.25593 0.0
C153 C 0.3472 0.52036 0.17476 0.0
C154 C 0.29412 0.45456 0.08505 0.0
C155 C 0.26874 0.44212 0.02788 0.0
C156 C 0.23819 0.44126 0.07021 0.0
C157 C 0.23356 0.45112 0.17134 0.0
C158 C 0.26029 0.4551 0.23454 0.0
C159 C 0.29056 0.45738 0.19107 0.0
P160 P 0.08532 0.30083 0.12127 0.0
H161 H 0.10723 0.27389 0.92719 0.0
H162 H 0.09052 0.22583 0.83884 0.0
H163 H 1.00432 0.22317 0.01799 0.0
H164 H 0.02122 0.27146 0.10713 0.0
H165 H 0.12409 0.35568 0.1705 0.0
H166 H 0.11229 0.40064 0.27852 0.0
H167 H 1.01186 0.38106 0.25136 0.0
H168 H 0.0238 0.33549 0.14118 0.0
H169 H 0.09879 0.23567 0.17642 0.0
H170 H 0.05779 0.31712 0.32588 0.0
O171 O 0.12436 0.29972 0.09717 0.0
H172 H 0.07396 0.20122 0.30387 0.0
H173 H 0.03174 0.28258 0.44871 0.0
C174 C 0.06559 0.27668 0.02445 0.0
C175 C 0.08406 0.26395 0.94497 0.0
C176 C 0.07464 0.23609 0.8949 0.0
C177 C 0.04628 0.22031 0.92202 0.0
C178 C 0.02621 0.23476 0.99448 0.0
C179 C 0.03576 0.26267 0.04504 0.0
C180 C 0.07489 0.34189 0.14693 0.0
C181 C 0.09935 0.36182 0.18233 0.0
C182 C 0.09262 0.38762 0.24524 0.0
C183 C 0.06118 0.39446 0.27393 0.0
C184 C 0.03633 0.37675 0.22925 0.0
C185 C 0.04312 0.35077 0.16537 0.0
C186 C 0.07894 0.27886 0.23781 0.0
C187 C 0.08542 0.24631 0.23818 0.0
C188 C 0.0713 0.22666 0.31116 0.0
C189 C 0.0506 0.23946 0.38438 0.0
C190 C 0.04736 0.27234 0.39187 0.0
C191 C 0.06192 0.29202 0.31988 0.0
P192 P 0.22462 0.07268 0.04436 0.0
H193 H 0.25324 0.07814 0.84064 0.0
H194 H 0.30497 0.0608 0.7799 0.0
H195 H 0.31154 0.99547 0.0325 0.0
H196 H 0.25983 1.01402 0.09624 0.0
H197 H 0.16615 0.10499 0.09558 0.0
H198 H 0.12415 0.09411 0.21902 0.0
H199 H 0.16146 1.0001 0.26652 0.0
H200 H 0.20393 1.01114 0.14115 0.0
H201 H 0.28249 0.11043 0.03216 0.0
H202 H 0.22674 0.0657 0.26994 0.0
O203 O 0.21468 0.10315 0.96929 0.0
H204 H 0.33075 0.1007 0.13013 0.0
H205 H 0.27475 0.05696 0.36863 0.0
C206 C 0.25189 0.04725 0.97308 0.0
C207 C 0.26485 0.05899 0.88111 0.0
C208 C 0.29489 0.04912 0.8463 0.0
C209 C 0.31288 0.02687 0.90185 0.0
C210 C 0.29864 1.01303 0.98888 0.0
C211 C 0.26858 0.02307 0.02406 0.0
C212 C 0.18829 0.05886 0.10736 0.0
C213 C 0.16483 0.08153 0.12915 0.0
C214 C 0.14084 0.07541 0.20089 0.0
C215 C 0.13952 0.04638 0.25355 0.0
C216 C 0.16164 0.02268 0.22685 0.0
C217 C 0.18594 0.02892 0.15471 0.0
C218 C 0.25122 0.08729 0.14101 0.0
C219 C 0.28024 0.1005 0.10827 0.0
C220 C 0.30793 0.09493 0.16432 0.0
C221 C 0.30631 0.07695 0.25447 0.0
C222 C 0.27645 0.07017 0.29766 0.0
C223 C 0.24891 0.07513 0.24064 0.0
P224 P 0.46887 0.2368 0.16601 0.0
H225 H 0.43876 0.26442 0.98346 0.0
H226 H 0.45292 0.3121 0.88676 0.0
H227 H 0.54656 0.31107 0.0215 0.0
H228 H 0.53258 0.26287 0.11652 0.0
H229 H 0.42264 0.18587 0.20073 0.0
H230 H 0.42914 0.13564 0.28843 0.0
H231 H 0.5312 0.14387 0.25414 0.0
H232 H 0.52409 0.19268 0.15597 0.0
H233 H 0.46557 0.3006 0.24349 0.0
H234 H 0.51309 0.21416 0.33317 0.0
O235 O 0.43006 0.24496 0.17388 0.0
H236 H 0.50362 0.33085 0.3451 0.0
H237 H 0.55214 0.24467 0.42766 0.0
C238 C 0.48439 0.25989 0.05858 0.0
C239 C 0.46289 0.27339 0.9887 0.0
C240 C 0.47097 0.30095 0.93357 0.0
C241 C 0.50074 0.31576 0.94735 0.0
C242 C 0.52333 0.30045 1.00967 0.0
C243 C 0.51542 0.27255 0.06328 0.0
C244 C 0.473 0.1939 0.17478 0.0
C245 C 0.4464 0.1762 0.20685 0.0
C246 C 0.45019 0.14746 0.25891 0.0
C247 C 0.48076 0.13617 0.28326 0.0
C248 C 0.50718 0.15152 0.23764 0.0
C249 C 0.50316 0.17969 0.18092 0.0
C250 C 0.48714 0.25515 0.27579 0.0
C251 C 0.48338 0.28793 0.28721 0.0
C252 C 0.50517 0.30521 0.34474 0.0
C253 C 0.53089 0.28983 0.39155 0.0
C254 C 0.53258 0.25681 0.39066 0.0
C255 C 0.5104 0.23946 0.33438 0.0
Sm256 Sm 0.04477 1.01458 0.81956 0.0
Sm257 Sm 0.98992 0.02529 0.69852 0.0
C258 C 0.09008 0.99668 0.94865 0.0
C259 C 0.09763 0.96927 1.01299 0.0
C260 C 0.07336 0.94907 0.04801 0.0
C261 C 0.08085 0.92258 0.10705 0.0
C262 C 0.11271 0.91575 0.13092 0.0
C263 C 0.13699 0.93608 0.09638 0.0
C264 C 0.12944 0.96283 0.03796 0.0
C265 C 0.06141 0.03509 0.62443 0.0
C266 C 1.01203 0.95313 0.70668 0.0
C267 C 0.9459 0.04665 0.57186 0.0
C268 C 0.94555 0.07736 0.51784 0.0
C269 C 0.96726 0.08269 0.43781 0.0
C270 C 0.97736 0.11327 0.41524 0.0
C271 C 0.96575 0.1388 0.47195 0.0
C272 C 0.9402 0.13426 0.53916 0.0
C273 C 0.93001 0.10347 0.56207 0.0
C274 C 0.97275 1.00394 0.89114 0.0
C275 C 0.02479 0.08733 0.80574 0.0
O276 O 0.06519 1.01314 0.9755 0.0
O277 O 0.09172 0.9922 0.85025 0.0
O278 O 0.04024 1.01464 0.64497 0.0
O279 O 0.07354 0.04602 0.70806 0.0
O280 O 0.02799 0.9628 0.78785 0.0
O281 O 0.99724 0.97395 0.64902 0.0
O282 O 0.96819 0.0269 0.54419 0.0
O283 O 0.9432 0.04835 0.67103 0.0
O284 O 0.99421 0.0244 0.87265 0.0
O285 O 0.96078 0.99356 0.80652 0.0
O286 O 1.00726 0.07747 0.72807 0.0
O287 O 0.03969 0.06662 0.86322 0.0
H288 H 0.04868 0.95362 0.02895 0.0
H289 H 0.06181 0.90701 0.13238 0.0
H290 H 0.16167 0.93124 0.11443 0.0
H291 H 0.14841 0.9783 1.01145 0.0
H292 H 0.97936 0.06326 0.40098 0.0
H293 H 0.99668 0.11663 0.36121 0.0
H294 H 0.93034 0.15403 0.58091 0.0
H295 H 0.9126 0.10004 0.6223 0.0
Sm296 Sm 0.52183 0.03558 0.83416 0.0
Sm297 Sm 0.51113 0.98386 0.67574 0.0
C298 C 0.53843 0.07551 0.9808 0.0
C299 C 0.56561 0.08245 0.04731 0.0
C300 C 0.58679 0.05848 0.0766 0.0
C301 C 0.61301 0.06571 0.13769 0.0
C302 C 0.61864 0.09705 0.16883 0.0
C303 C 0.59757 0.12106 0.13905 0.0
C304 C 0.57105 0.11373 0.07906 0.0
C305 C 0.50018 0.05708 0.6468 0.0
C306 C 0.58492 1.00332 0.71748 0.0
C307 C 0.49521 0.95836 0.5002 0.0
C308 C 0.46939 0.96847 0.43131 0.0
C309 C 0.47384 0.99415 0.36393 0.0
C310 C 0.44765 1.00963 0.32162 0.0
C311 C 0.41659 0.9998 0.34663 0.0
C312 C 0.41241 0.97253 0.40738 0.0
C313 C 0.43852 0.95666 0.44737 0.0
C314 C 0.52206 0.95287 0.85896 0.0
C315 C 0.44954 1.01139 0.8053 0.0
O316 O 0.52303 0.04896 0.99783 0.0
O317 O 0.54265 0.08145 0.8837 0.0
O318 O 0.52121 0.03628 0.66114 0.0
O319 O 0.48971 0.06729 0.73377 0.0
O320 O 0.57426 0.02226 0.79088 0.0
O321 O 0.56523 0.9865 0.66091 0.0
O322 O 0.51927 0.97798 0.5092 0.0
O323 O 0.48585 0.9468 0.58823 0.0
O324 O 0.52182 0.98262 0.84628 0.0
O325 O 0.51764 0.93871 0.77254 0.0
O326 O 0.45968 1.0007 0.716 0.0
O327 O 0.47014 0.02159 0.87395 0.0
H328 H 0.5833 0.03431 0.05131 0.0
H329 H 0.62931 0.04695 0.15888 0.0
H330 H 0.60166 0.14537 0.16209 0.0
H331 H 0.55498 0.13252 0.05644 0.0
H332 H 0.49736 1.00365 0.34929 0.0
H333 H 0.45169 0.0302 0.27345 0.0
H334 H 0.38897 0.96452 0.43049 0.0
H335 H 0.43426 0.93674 0.49813 0.0
Sm336 Sm 0.48687 0.52159 0.85599 0.0
Sm337 Sm 0.54208 0.5092 0.6805 0.0
C338 C 0.45212 0.53537 0.01875 0.0
C339 C 0.44611 0.56384 0.08015 0.0
C340 C 0.47126 0.58092 0.12426 0.0
C341 C 0.46561 0.61034 0.16866 0.0
C342 C 0.43486 0.62346 0.16799 0.0
C343 C 0.40941 0.60552 0.1294 0.0
C344 C 0.41502 0.57587 0.08593 0.0
C345 C 0.46175 0.51157 0.66121 0.0
C346 C 0.51772 0.58211 0.72634 0.0
C347 C 0.56988 0.49332 0.50822 0.0
C348 C 0.58607 0.4639 0.48047 0.0
C349 C 0.57746 0.44897 0.38946 0.0
C350 C 0.58434 0.41711 0.37482 0.0
C351 C 0.59931 0.39946 0.45232 0.0
C352 C 0.61063 0.41512 0.53942 0.0
C353 C 0.60407 0.44724 0.55343 0.0
C354 C 0.57078 0.51931 0.86853 0.0
C355 C 0.51312 0.44853 0.81794 0.0
O356 O 0.48034 0.52242 0.02447 0.0
O357 O 0.4413 0.5367 0.92539 0.0
O358 O 0.49008 0.51243 0.69035 0.0
O359 O 0.44407 0.51515 0.74125 0.0
O360 O 0.50354 0.57239 0.812 0.0
O361 O 0.53074 0.56223 0.66008 0.0
O362 O 0.53924 0.48988 0.52407 0.0
O363 O 0.5839 0.51116 0.57657 0.0
O364 O 0.54097 0.51936 0.85052 0.0
O365 O 0.58598 0.51344 0.78431 0.0
O366 O 0.53013 0.45803 0.73739 0.0
O367 O 0.49663 0.46815 0.87663 0.0
H368 H 0.49546 0.57218 0.12146 0.0
H369 H 0.48547 0.62319 0.20146 0.0
H370 H 0.38545 0.61496 0.12893 0.0
H371 H 0.39526 0.56295 0.05272 0.0
H372 H 0.56297 0.46112 0.33349 0.0
H373 H 0.5746 0.40559 0.30792 0.0
H374 H 0.6219 0.40191 0.60051 0.0
H375 H 0.61056 0.45817 0.62522 0.0
Sm376 Sm 1.01954 0.49701 0.8266 0.0
Sm377 Sm 0.03099 0.5476 0.63653 0.0
C378 C 1.0062 0.46371 0.9926 0.0
C379 C 0.97818 0.45608 0.05432 0.0
C380 C 0.95254 0.47716 0.06077 0.0
C381 C 0.92462 0.4679 0.11046 0.0
C382 C 0.92204 0.43746 0.15334 0.0
C383 C 0.94767 0.41644 0.14749 0.0
C384 C 0.97551 0.42565 0.09705 0.0
C385 C 0.03531 0.46728 0.64283 0.0
C386 C 0.9577 0.52401 0.69232 0.0
C387 C 0.04671 0.56317 0.4487 0.0
C388 C 0.06781 0.54398 0.38494 0.0
C389 C 0.08052 0.51634 0.42815 0.0
C390 C 0.10281 0.4985 0.37544 0.0
C391 C 0.11358 0.50865 0.27972 0.0
C392 C 0.10021 0.53573 0.23411 0.0
C393 C 0.07702 0.5532 0.28628 0.0
C394 C 1.01711 0.58027 0.81461 0.0
C395 C 0.09199 0.52358 0.78372 0.0
O396 O 1.01749 0.4927 0.99604 0.0
O397 O 1.00525 0.45213 0.90041 0.0
O398 O 0.0313 0.49607 0.66156 0.0
O399 O 0.03223 0.45223 0.72832 0.0
O400 O 0.96793 0.51054 0.7784 0.0
O401 O 0.97719 0.53682 0.62357 0.0
O402 O 1.0195 0.54951 0.47121 0.0
O403 O 0.06068 0.57572 0.52861 0.0
O404 O 1.01864 0.5504 0.80369 0.0
O405 O 0.02216 0.59386 0.72634 0.0
O406 O 0.08211 0.53507 0.69435 0.0
O407 O 0.07209 0.51076 0.85109 0.0
H408 H 0.95376 0.50032 0.02499 0.0
H409 H 0.90479 0.48424 0.11402 0.0
H410 H 0.94584 0.39281 0.17974 0.0
H411 H 0.99478 0.40883 0.08935 0.0
H412 H 0.07419 0.50932 0.50501 0.0
H413 H 0.1134 0.47812 0.41274 0.0
H414 H 0.10882 0.54412 0.16076 0.0
H415 H 0.06747 0.57439 0.25153 0.0
C416 C 0.1185 0.06627 0.42108 0.0
C417 C 0.11784 0.04297 0.34423 0.0
C418 C 0.09953 0.06376 0.50926 0.0
C419 C 0.07857 0.03805 0.52456 0.0
H420 H 0.1345 0.08639 0.41421 0.0
H421 H 0.10163 0.08203 0.56681 0.0
S422 S 0.06623 0.97138 0.34405 0.0
N423 N 0.09354 0.99374 0.28772 0.0
N424 N 0.05741 0.98921 0.45264 0.0
C425 C 0.07687 1.01495 0.447 0.0
C426 C 0.09666 1.0173 0.35743 0.0
C427 C 0.46515 0.11545 0.45669 0.0
C428 C 0.48464 0.11267 0.36918 0.0
C429 C 0.46977 0.09656 0.54371 0.0
C430 C 0.49425 0.074 0.54842 0.0
H431 H 0.44679 0.13337 0.46025 0.0
H432 H 0.45445 0.10037 0.60916 0.0
S433 S 0.55102 0.05547 0.33965 0.0
N434 N 0.52839 0.08375 0.29145 0.0
N435 N 0.53768 0.04891 0.45657 0.0
C436 C 0.51342 0.07007 0.46096 0.0
C437 C 0.50857 0.08928 0.3714 0.0
C438 C 0.41951 0.47948 0.42724 0.0
C439 C 0.41466 0.50683 0.36671 0.0
C440 C 0.43628 0.48081 0.52019 0.0
C441 C 0.44954 0.50935 0.5553 0.0
H442 H 0.40915 0.45703 0.40461 0.0
H443 H 0.43809 0.45952 0.56636 0.0
S444 S 0.44537 0.58737 0.42512 0.0
N445 N 0.4257 0.56319 0.34852 0.0
N446 N 0.45755 0.56541 0.52215 0.0
C447 C 0.44584 0.53663 0.49461 0.0
C448 C 0.42835 0.53545 0.40066 0.0
C449 C 0.07154 0.40946 0.45557 0.0
C450 C 0.05536 0.41563 0.36344 0.0
C451 C 0.06544 0.42702 0.54418 0.0
C452 C 0.04333 0.45193 0.54437 0.0
H453 H 0.08842 0.39014 0.46021 0.0
H454 H 0.07791 0.42074 0.61375 0.0
S455 S 0.99496 0.47842 0.32368 0.0
N456 N 1.01665 0.44908 0.27785 0.0
N457 N 1.00499 0.48193 0.44511 0.0
C458 C 0.02729 0.45883 0.45283 0.0
C459 C 0.03334 0.44072 0.36229 0.0
C460 C 0.90132 0.99948 0.07079 0.0
C461 C 0.91398 1.00817 0.16625 0.0
C462 C 0.92074 0.99694 0.98365 0.0
C463 C 0.95371 1.00336 0.98746 0.0
H464 H 0.87592 0.99581 0.06209 0.0
H465 H 0.90947 0.99111 0.91174 0.0
S466 S 0.99979 0.02221 0.22069 0.0
N467 N 0.96259 0.01923 0.26112 0.0
N468 N 0.99868 1.01576 0.09641 0.0
C469 C 0.967 1.01069 0.08288 0.0
C470 C 0.94729 1.01279 0.17225 0.0
C471 C 0.51946 0.88506 0.05068 0.0
C472 C 0.52467 0.89988 0.14528 0.0
C473 C 0.51946 0.90244 0.95912 0.0
C474 C 0.52461 0.93547 0.95777 0.0
H475 H 0.51423 0.85991 0.04746 0.0
H476 H 0.51457 0.88985 0.88887 0.0
S477 S 0.54306 0.98515 0.18293 0.0
N478 N 0.53775 0.94926 0.23104 0.0
N479 N 0.53747 0.98192 0.05859 0.0
C480 C 0.53097 0.95048 0.05119 0.0
C481 C 0.53102 0.93273 0.14487 0.0
C482 C 0.64046 0.52942 0.05129 0.0
C483 C 0.62696 0.52541 0.14869 0.0
C484 C 0.62159 0.52867 0.9628 0.0
C485 C 0.58825 0.524 0.96704 0.0
H486 H 0.66605 0.53153 0.04278 0.0
H487 H 0.63357 0.53082 0.88976 0.0
S488 S 0.54065 0.5163 0.20447 0.0
N489 N 0.57772 0.51983 0.24515 0.0
N490 N 0.54252 0.51779 0.07849 0.0
C491 C 0.57424 0.52168 0.06423 0.0
C492 C 0.5935 0.52249 0.15488 0.0
C493 C 1.01901 0.6503 0.99751 0.0
C494 C 1.01241 0.63689 0.09383 0.0
C495 C 1.0197 0.63171 0.90873 0.0
C496 C 1.01384 0.59875 0.9115 0.0
H497 H 0.0248 0.67527 0.99085 0.0
H498 H 0.02568 0.64334 0.8373 0.0
S499 S 0.99164 0.55256 0.14262 0.0
N500 N 0.99738 0.58888 0.18549 0.0
N501 N 0.99838 0.55418 0.01831 0.0
C502 C 1.00597 0.58522 1.00659 0.0
C503 C 1.00538 0.60417 0.09758 0.0
C504 C 0.99522 0.22051 0.40628 0.0
C505 C 0.0275 0.21836 0.4347 0.0
C506 C 0.97406 0.19549 0.42576 0.0
C507 C 0.98479 0.16795 0.47449 0.0
H508 H 0.98696 0.24041 0.36103 0.0
H509 H 0.95002 0.19669 0.39608 0.0
S510 S 0.06525 0.15331 0.58036 0.0
N511 N 0.06795 0.18857 0.52554 0.0
N512 N 0.02805 0.14156 0.56366 0.0
C513 C 1.0161 0.16688 0.51212 0.0
C514 C 0.03759 0.19216 0.49173 0.0
C515 C 0.36328 0.07153 0.30845 0.0
C516 C 0.33397 0.05752 0.28361 0.0
C517 C 0.39015 0.05272 0.32701 0.0
C518 C 0.38872 0.0194 0.31808 0.0
H519 H 0.36534 0.09707 0.31423 0.0
H520 H 0.41199 0.06438 0.35017 0.0
S521 S 0.31792 0.97184 0.24432 0.0
N522 N 0.30514 1.00875 0.24747 0.0
N523 N 0.35604 0.97372 0.2739 0.0
C524 C 0.35971 1.00539 0.2893 0.0
C525 C 0.33224 0.02437 0.27414 0.0
C526 C 0.5579 0.32417 0.51772 0.0
C527 C 0.55827 0.30905 0.42283 0.0
C528 C 0.5759 0.35171 0.53316 0.0
C529 C 0.5944 0.3648 0.45337 0.0
H530 H 0.54132 0.3165 0.57629 0.0
H531 H 0.57209 0.36482 0.60312 0.0
S532 S 0.60865 0.32918 0.19956 0.0
N533 N 0.58263 0.30522 0.25518 0.0
N534 N 0.61685 0.35695 0.28429 0.0
C535 C 0.59839 0.34711 0.36375 0.0
C536 C 0.58005 0.31918 0.34819 0.0
C537 C 0.17371 0.44934 0.18261 0.0
C538 C 0.20266 0.4653 0.20081 0.0
C539 C 0.14442 0.46394 0.20383 0.0
C540 C 0.14336 0.49508 0.24117 0.0
H541 H 0.17374 0.42541 0.15292 0.0
H542 H 0.12252 0.45087 0.19195 0.0
S543 S 0.2118 0.54772 0.29661 0.0
N544 N 0.22796 0.51457 0.2552 0.0
N545 N 0.17298 0.54161 0.29375 0.0
C546 C 0.1719 0.51149 0.25721 0.0
C547 C 0.20155 0.49667 0.23743 0.0
C548 C 0.1068 0.85165 0.33118 0.0
C549 C 0.12275 0.82613 0.28491 0.0
C550 C 0.10536 0.88133 0.28363 0.0
C551 C 0.12006 0.88662 0.18874 0.0
H552 H 0.09323 0.84809 0.4008 0.0
H553 H 0.09128 0.89981 0.31876 0.0
S554 S 0.16783 0.82891 0.0415 0.0
N555 N 0.15598 0.80895 0.14361 0.0
N556 N 0.15326 0.86502 0.05395 0.0
C557 C 0.13803 0.86212 0.14515 0.0
C558 C 0.13934 0.83176 0.1933 0.0
C559 C 0.70186 0.12522 0.23066 0.0
C560 C 0.7081 0.1096 0.32358 0.0
C561 C 0.67189 0.12291 0.18401 0.0
C562 C 0.64751 0.10449 0.22815 0.0
H563 H 0.72073 0.13799 0.19151 0.0
H564 H 0.66838 0.13397 0.11008 0.0
S565 S 0.65079 0.0609 0.47364 0.0
N566 N 0.68662 0.07673 0.46088 0.0
N567 N 0.63049 0.07239 0.37229 0.0
C568 C 0.65284 0.09021 0.32332 0.0
C569 C 0.68312 0.0928 0.37142 0.0
C570 C 0.40204 0.69387 0.31397 0.0
C571 C 0.4231 0.71848 0.28593 0.0
C572 C 0.40527 0.66331 0.2733 0.0
C573 C 0.42979 0.65632 0.2037 0.0
H574 H 0.38362 0.69801 0.37035 0.0
H575 H 0.38929 0.64477 0.29953 0.0
S576 S 0.4899 0.71253 0.10001 0.0
N577 N 0.46882 0.73367 0.18123 0.0
N578 N 0.47379 0.67683 0.10211 0.0
C579 C 0.45 0.68099 0.17137 0.0
C580 C 0.44691 0.71192 0.21299 0.0
C581 C 0.83551 0.41629 0.18094 0.0
C582 C 0.82979 0.42262 0.28483 0.0
C583 C 0.86615 0.41907 0.13965 0.0
C584 C 0.89198 0.42777 0.20134 0.0
H585 H 0.81584 0.41129 0.12994 0.0
H586 H 0.86938 0.41614 0.05811 0.0
S587 S 0.89091 0.44308 0.47902 0.0
N588 N 0.8534 0.4355 0.44978 0.0
N589 N 0.91112 0.43967 0.37138 0.0
C590 C 0.88728 0.43157 0.30628 0.0
C591 C 0.85609 0.4291 0.34847 0.0
C592 C 0.06397 0.16394 0.89714 0.0
C593 C 0.04016 0.18711 0.8852 0.0
C594 C 0.05873 0.13211 0.86995 0.0
C595 C 0.02963 0.12188 0.82756 0.0
H596 H 0.08669 0.17028 0.93057 0.0
H597 H 0.07778 0.1153 0.88266 0.0
S598 S 0.95969 0.17314 0.77759 0.0
N599 N 0.98638 0.19758 0.82658 0.0
N600 N 0.97674 0.1379 0.77343 0.0
C601 C 1.00581 0.14489 0.81277 0.0
C602 C 1.01098 0.17735 0.8423 0.0
C603 C 0.37086 0.02116 0.952 0.0
C604 C 0.34729 0.02059 0.8752 0.0
C605 C 0.40352 1.0179 0.92878 0.0
C606 C 0.41437 1.01355 0.82767 0.0
H607 H 0.36411 0.02508 0.03085 0.0
H608 H 0.42044 0.019 0.99106 0.0
S609 S 0.36247 1.00927 0.59815 0.0
N610 N 0.33731 1.01441 0.69362 0.0
N611 N 0.3983 1.0084 0.64997 0.0
C612 C 0.391 1.01232 0.75026 0.0
C613 C 0.35772 1.01587 0.77392 0.0
C614 C 0.51544 0.37284 0.97808 0.0
C615 C 0.50652 0.34889 0.90879 0.0
C616 C 0.51792 0.40481 0.94758 0.0
C617 C 0.51247 0.4142 0.84581 0.0
H618 H 0.51942 0.367 0.05769 0.0
H619 H 0.52398 0.42242 1.00446 0.0
S620 S 0.48886 0.36118 0.63366 0.0
N621 N 0.49219 0.33713 0.73306 0.0
N622 N 0.49806 0.39697 0.6754 0.0
C623 C 0.50442 0.39051 0.77498 0.0
C624 C 0.50109 0.35799 0.80653 0.0
C625 C 0.16978 0.51527 0.93527 0.0
C626 C 0.19361 0.52603 0.86724 0.0
C627 C 0.13736 0.51471 0.90771 0.0
C628 C 0.12691 0.52488 0.81044 0.0
H629 H 0.17627 0.50639 1.01009 0.0
H630 H 0.1204 0.50596 0.96359 0.0
S631 S 0.17938 0.55664 0.60465 0.0
N632 N 0.20408 0.54838 0.699 0.0
N633 N 0.14355 0.54682 0.6465 0.0
C634 C 0.15044 0.53611 0.74194 0.0
C635 C 0.18354 0.53675 0.77029 0.0
C636 C 0.99116 0.87712 0.56283 0.0
C637 C 1.01028 0.85385 0.60941 0.0
C638 C 0.99148 0.90878 0.59621 0.0
C639 C 1.01097 0.9188 0.67778 0.0
H640 H 0.97582 0.87086 0.49954 0.0
H641 H 0.97642 0.9256 0.55663 0.0
S642 S 0.06638 0.86746 0.82452 0.0
N643 N 0.04994 0.84335 0.74051 0.0
N644 N 0.05013 0.9025 0.8041 0.0
C645 C 0.03001 0.8957 0.7259 0.0
C646 C 0.02975 0.86342 0.69163 0.0
C647 C 0.6741 0.02371 0.71189 0.0
C648 C 0.6867 1.00274 0.63843 0.0
C649 C 0.64156 0.02324 0.739 0.0
C650 C 0.61998 1.00179 0.69392 0.0
H651 H 0.68929 0.04147 0.74645 0.0
H652 H 0.63318 0.04044 0.79392 0.0
S653 S 0.64132 0.93974 0.5044 0.0
N654 N 0.67524 0.95827 0.52705 0.0
N655 N 0.61445 0.95753 0.57596 0.0
C656 C 0.63253 0.97999 0.62264 0.0
C657 C 0.66566 0.98046 0.59542 0.0
C658 C 0.54094 0.66028 0.59666 0.0
C659 C 0.52126 0.68283 0.644 0.0
C660 C 0.53989 0.62808 0.62482 0.0
C661 C 0.51906 0.61682 0.7017 0.0
H662 H 0.55733 0.66756 0.53698 0.0
H663 H 0.55557 0.61187 0.58539 0.0
S664 S 0.46103 0.66584 0.84537 0.0
N665 N 0.47923 0.69132 0.76888 0.0
N666 N 0.47755 0.63112 0.82274 0.0
C667 C 0.49926 0.63916 0.74992 0.0
C668 C 0.50028 0.67199 0.72092 0.0
C669 C 0.8789 0.52274 0.5461 0.0
C670 C 0.85543 0.52541 0.62303 0.0
C671 C 0.91167 0.52267 0.56916 0.0
C672 C 0.92272 0.52469 0.67046 0.0
H673 H 0.87202 0.51965 0.46711 0.0
H674 H 0.9285 0.52013 0.50693 0.0
S675 S 0.87223 0.53564 0.90024 0.0
N676 N 0.84652 0.53342 0.80519 0.0
N677 N 0.90778 0.53151 0.84803 0.0
C678 C 0.89981 0.52798 0.74815 0.0
C679 C 0.86639 0.52879 0.72465 0.0
loop_
_geom_bond_atom_site_label_1
_geom_bond_atom_site_label_2
_geom_bond_distance
_geom_bond_site_symmetry_2
_ccdc_geom_bond_type
P0 O11 1.490 . S
P0 C14 1.812 . S
P0 C20 1.803 . S
P0 C26 1.819 . S
H1 C15 0.941 . S
H2 C16 0.939 . S
H3 C18 0.940 . S
H4 C19 0.940 . S
H5 C21 0.939 . S
H6 C22 0.942 . S
H7 C24 0.940 . S
H8 C25 0.939 . S
H9 C27 0.941 . S
H10 C31 0.939 . S
O11 P0 1.490 . S
H12 C28 0.939 . S
H13 C30 0.940 . S
C14 P0 1.812 . S
C14 C15 1.389 . S
C14 C19 1.391 . S
C15 H1 0.941 . S
C15 C14 1.389 . S
C15 C16 1.397 . S
C16 H2 0.939 . S
C16 C15 1.397 . S
C16 C17 1.378 . S
C17 C16 1.378 . S
C17 C18 1.378 . S
C18 H3 0.940 . S
C18 C17 1.378 . S
C18 C19 1.396 . S
C19 H4 0.940 . S
C19 C14 1.391 . S
C19 C18 1.396 . S
C20 P0 1.803 . S
C20 C21 1.378 . S
C20 C25 1.400 . S
C21 H5 0.939 . S
C21 C20 1.378 . S
C21 C22 1.361 . S
C22 H6 0.942 . S
C22 C21 1.361 . S
C22 C23 1.369 . S
C23 C22 1.369 . S
C23 C24 1.404 . S
C24 H7 0.940 . S
C24 C23 1.404 . S
C24 C25 1.389 . S
C25 H8 0.939 . S
C25 C20 1.400 . S
C25 C24 1.389 . S
C26 P0 1.819 . S
C26 C27 1.391 . S
C26 C31 1.391 . S
C27 H9 0.941 . S
C27 C26 1.391 . S
C27 C28 1.396 . S
C28 H12 0.939 . S
C28 C27 1.396 . S
C28 C29 1.397 . S
C29 C28 1.397 . S
C29 C30 1.385 . S
C30 H13 0.940 . S
C30 C29 1.385 . S
C30 C31 1.388 . S
C31 H10 0.939 . S
C31 C26 1.391 . S
C31 C30 1.388 . S
P32 O43 1.490 . S
P32 C46 1.812 . S
P32 C52 1.803 . S
P32 C58 1.819 . S
H33 C47 0.941 . S
H34 C48 0.939 . S
H35 C50 0.940 . S
H36 C51 0.950 . S
H37 C53 0.939 . S
H38 C54 0.942 . S
H39 C56 0.940 . S
H40 C57 0.959 . S
H41 C59 0.941 . S
H42 C63 0.929 1_655 S
O43 P32 1.490 . S
H44 C60 0.939 . S
H45 C62 0.940 . S
C46 P32 1.812 . S
C46 C47 1.389 . S
C46 C51 1.375 1_455 S
C47 H33 0.941 . S
C47 C46 1.389 . S
C47 C48 1.397 . S
C48 H34 0.939 . S
C48 C47 1.397 . S
C48 C49 1.378 . S
C49 C48 1.378 . S
C49 C50 1.378 1_455 S
C50 H35 0.940 . S
C50 C49 1.378 1_655 S
C50 C51 1.403 . S
C51 H36 0.950 . S
C51 C46 1.375 1_655 S
C51 C50 1.403 . S
C52 P32 1.803 . S
C52 C53 1.378 . S
C52 C57 1.368 1_455 S
C53 H37 0.939 . S
C53 C52 1.378 . S
C53 C54 1.361 . S
C54 H38 0.942 . S
C54 C53 1.361 . S
C54 C55 1.369 . S
C55 C54 1.369 . S
C55 C56 1.404 1_455 S
C56 H39 0.940 . S
C56 C55 1.404 1_655 S
C56 C57 1.402 . S
C57 H40 0.959 . S
C57 C52 1.368 1_655 S
C57 C56 1.402 . S
C58 P32 1.819 . S
C58 C59 1.391 . S
C58 C63 1.391 . S
C59 H41 0.941 . S
C59 C58 1.391 . S
C59 C60 1.396 . S
C60 H44 0.939 . S
C60 C59 1.396 . S
C60 C61 1.397 . S
C61 C60 1.397 . S
C61 C62 1.385 1_455 S
C62 H45 0.940 . S
C62 C61 1.385 1_655 S
C62 C63 1.388 1_655 S
C63 H42 0.929 1_455 S
C63 C58 1.391 . S
C63 C62 1.388 1_455 S
P64 O75 1.490 . S
P64 C78 1.812 . S
P64 C84 1.803 . S
P64 C90 1.819 . S
H65 C79 0.941 . S
H66 C80 0.939 . S
H67 C82 0.940 . S
H68 C83 0.950 . S
H69 C85 0.939 . S
H70 C86 0.942 . S
H71 C88 0.940 . S
H72 C89 0.959 . S
H73 C91 0.941 . S
H74 C95 0.929 1_565 S
O75 P64 1.490 . S
H76 C92 0.939 . S
H77 C94 0.940 . S
C78 P64 1.812 . S
C78 C79 1.389 . S
C78 C83 1.375 1_545 S
C79 H65 0.941 . S
C79 C78 1.389 . S
C79 C80 1.397 . S
C80 H66 0.939 . S
C80 C79 1.397 . S
C80 C81 1.378 . S
C81 C80 1.378 . S
C81 C82 1.378 1_545 S
C82 H67 0.940 . S
C82 C81 1.378 1_565 S
C82 C83 1.402 . S
C83 H68 0.950 . S
C83 C78 1.375 1_565 S
C83 C82 1.402 . S
C84 P64 1.803 . S
C84 C85 1.378 . S
C84 C89 1.369 1_545 S
C85 H69 0.939 . S
C85 C84 1.378 . S
C85 C86 1.361 . S
C86 H70 0.942 . S
C86 C85 1.361 . S
C86 C87 1.369 . S
C87 C86 1.369 . S
C87 C88 1.404 1_545 S
C88 H71 0.940 . S
C88 C87 1.404 1_565 S
C88 C89 1.402 . S
C89 H72 0.959 . S
C89 C84 1.369 1_565 S
C89 C88 1.402 . S
C90 P64 1.819 . S
C90 C91 1.391 . S
C90 C95 1.391 . S
C91 H73 0.941 . S
C91 C90 1.391 . S
C91 C92 1.396 . S
C92 H76 0.939 . S
C92 C91 1.396 . S
C92 C93 1.397 . S
C93 C92 1.397 . S
C93 C94 1.385 1_545 S
C94 H77 0.940 . S
C94 C93 1.385 1_565 S
C94 C95 1.388 1_565 S
C95 H74 0.929 1_545 S
C95 C90 1.391 . S
C95 C94 1.388 1_545 S
P96 O107 1.490 . S
P96 C110 1.812 . S
P96 C116 1.803 . S
P96 C122 1.819 . S
H97 C111 0.941 . S
H98 C112 0.939 . S
H99 C114 0.940 . S
H100 C115 0.940 . S
H101 C117 0.939 . S
H102 C118 0.942 . S
H103 C120 0.940 . S
H104 C121 0.939 . S
H105 C123 0.941 . S
H106 C127 0.939 . S
O107 P96 1.490 . S
H108 C124 0.939 . S
H109 C126 0.940 . S
C110 P96 1.812 . S
C110 C111 1.389 . S
C110 C115 1.391 . S
C111 H97 0.941 . S
C111 C110 1.389 . S
C111 C112 1.397 . S
C112 H98 0.939 . S
C112 C111 1.397 . S
C112 C113 1.378 . S
C113 C112 1.378 . S
C113 C114 1.378 . S
C114 H99 0.940 . S
C114 C113 1.378 . S
C114 C115 1.396 . S
C115 H100 0.940 . S
C115 C110 1.391 . S
C115 C114 1.396 . S
C116 P96 1.803 . S
C116 C117 1.378 . S
C116 C121 1.400 . S
C117 H101 0.939 . S
C117 C116 1.378 . S
C117 C118 1.361 . S
C118 H102 0.942 . S
C118 C117 1.361 . S
C118 C119 1.369 . S
C119 C118 1.369 . S
C119 C120 1.404 . S
C120 H103 0.940 . S
C120 C119 1.404 . S
C120 C121 1.389 . S
C121 H104 0.939 . S
C121 C116 1.400 . S
C121 C120 1.389 . S
C122 P96 1.819 . S
C122 C123 1.391 . S
C122 C127 1.391 . S
C123 H105 0.941 . S
C123 C122 1.391 . S
C123 C124 1.396 . S
C124 H108 0.939 . S
C124 C123 1.396 . S
C124 C125 1.397 . S
C125 C124 1.397 . S
C125 C126 1.385 . S
C126 H109 0.940 . S
C126 C125 1.385 . S
C126 C127 1.388 . S
C127 H106 0.939 . S
C127 C122 1.391 . S
C127 C126 1.388 . S
P128 O139 1.490 . S
P128 C142 1.812 1_554 S
P128 C148 1.803 . S
P128 C154 1.819 . S
H129 C143 0.941 . S
H130 C144 0.939 . S
H131 C146 0.940 . S
H132 C147 0.940 . S
H133 C149 0.939 . S
H134 C150 0.942 . S
H135 C152 0.940 . S
H136 C153 0.939 . S
H137 C155 0.941 . S
H138 C159 0.939 . S
O139 P128 1.490 . S
H140 C156 0.939 . S
H141 C158 0.940 . S
C142 P128 1.812 1_556 S
C142 C143 1.389 . S
C142 C147 1.391 . S
C143 H129 0.941 . S
C143 C142 1.389 . S
C143 C144 1.397 . S
C144 H130 0.939 . S
C144 C143 1.397 . S
C144 C145 1.378 . S
C145 C144 1.378 . S
C145 C146 1.378 . S
C146 H131 0.940 . S
C146 C145 1.378 . S
C146 C147 1.396 . S
C147 H132 0.940 . S
C147 C142 1.391 . S
C147 C146 1.396 . S
C148 P128 1.803 . S
C148 C149 1.378 . S
C148 C153 1.400 . S
C149 H133 0.939 . S
C149 C148 1.378 . S
C149 C150 1.361 . S
C150 H134 0.942 . S
C150 C149 1.361 . S
C150 C151 1.369 . S
C151 C150 1.369 . S
C151 C152 1.404 . S
C152 H135 0.940 . S
C152 C151 1.404 . S
C152 C153 1.389 . S
C153 H136 0.939 . S
C153 C148 1.400 . S
C153 C152 1.389 . S
C154 P128 1.819 . S
C154 C155 1.391 . S
C154 C159 1.391 . S
C155 H137 0.941 . S
C155 C154 1.391 . S
C155 C156 1.396 . S
C156 H140 0.939 . S
C156 C155 1.396 . S
C156 C157 1.397 . S
C157 C156 1.397 . S
C157 C158 1.385 . S
C158 H141 0.940 . S
C158 C157 1.385 . S
C158 C159 1.388 . S
C159 H138 0.939 . S
C159 C154 1.391 . S
C159 C158 1.388 . S
P160 O171 1.490 . S
P160 C174 1.812 1_554 S
P160 C180 1.803 . S
P160 C186 1.819 . S
H161 C175 0.941 . S
H162 C176 0.939 . S
H163 C178 0.940 . S
H164 C179 0.945 . S
H165 C181 0.939 . S
H166 C182 0.942 . S
H167 C184 0.940 . S
H168 C185 0.954 . S
H169 C187 0.941 . S
H170 C191 0.932 1_655 S
O171 P160 1.490 . S
H172 C188 0.939 . S
H173 C190 0.940 . S
C174 P160 1.812 1_556 S
C174 C175 1.389 . S
C174 C179 1.383 1_455 S
C175 H161 0.941 . S
C175 C174 1.389 . S
C175 C176 1.397 . S
C176 H162 0.939 . S
C176 C175 1.397 . S
C176 C177 1.378 . S
C177 C176 1.378 . S
C177 C178 1.378 1_455 S
C178 H163 0.940 . S
C178 C177 1.378 1_655 S
C178 C179 1.400 . S
C179 H164 0.945 . S
C179 C174 1.383 1_655 S
C179 C178 1.400 . S
C180 P160 1.803 . S
C180 C181 1.378 . S
C180 C185 1.376 1_455 S
C181 H165 0.939 . S
C181 C180 1.378 . S
C181 C182 1.361 . S
C182 H166 0.942 . S
C182 C181 1.361 . S
C182 C183 1.369 . S
C183 C182 1.369 . S
C183 C184 1.404 1_455 S
C184 H167 0.940 . S
C184 C183 1.404 1_655 S
C184 C185 1.398 . S
C185 H168 0.954 . S
C185 C180 1.376 1_655 S
C185 C184 1.398 . S
C186 P160 1.819 . S
C186 C187 1.391 . S
C186 C191 1.391 . S
C187 H169 0.941 . S
C187 C186 1.391 . S
C187 C188 1.396 . S
C188 H172 0.939 . S
C188 C187 1.396 . S
C188 C189 1.397 . S
C189 C188 1.397 . S
C189 C190 1.385 1_455 S
C190 H173 0.940 . S
C190 C189 1.385 1_655 S
C190 C191 1.388 1_655 S
C191 H170 0.932 1_455 S
C191 C186 1.391 . S
C191 C190 1.388 1_455 S
P192 O203 1.490 . S
P192 C206 1.812 1_554 S
P192 C212 1.803 . S
P192 C218 1.819 . S
H193 C207 0.941 . S
H194 C208 0.939 . S
H195 C210 0.940 . S
H196 C211 0.945 . S
H197 C213 0.939 . S
H198 C214 0.942 . S
H199 C216 0.940 . S
H200 C217 0.954 . S
H201 C219 0.941 . S
H202 C223 0.932 1_565 S
O203 P192 1.490 . S
H204 C220 0.939 . S
H205 C222 0.940 . S
C206 P192 1.812 1_556 S
C206 C207 1.389 . S
C206 C211 1.383 1_545 S
C207 H193 0.941 . S
C207 C206 1.389 . S
C207 C208 1.397 . S
C208 H194 0.939 . S
C208 C207 1.397 . S
C208 C209 1.378 . S
C209 C208 1.378 . S
C209 C210 1.378 1_545 S
C210 H195 0.940 . S
C210 C209 1.378 1_565 S
C210 C211 1.400 . S
C211 H196 0.945 . S
C211 C206 1.383 1_565 S
C211 C210 1.400 . S
C212 P192 1.803 . S
C212 C213 1.378 . S
C212 C217 1.376 1_545 S
C213 H197 0.939 . S
C213 C212 1.378 . S
C213 C214 1.361 . S
C214 H198 0.942 . S
C214 C213 1.361 . S
C214 C215 1.369 . S
C215 C214 1.369 . S
C215 C216 1.404 1_545 S
C216 H199 0.940 . S
C216 C215 1.404 1_565 S
C216 C217 1.398 . S
C217 H200 0.954 . S
C217 C212 1.376 1_565 S
C217 C216 1.398 . S
C218 P192 1.819 . S
C218 C219 1.391 . S
C218 C223 1.391 . S
C219 H201 0.941 . S
C219 C218 1.391 . S
C219 C220 1.396 . S
C220 H204 0.939 . S
C220 C219 1.396 . S
C220 C221 1.397 . S
C221 C220 1.397 . S
C221 C222 1.385 1_545 S
C222 H205 0.940 . S
C222 C221 1.385 1_565 S
C222 C223 1.388 1_565 S
C223 H202 0.932 1_545 S
C223 C218 1.391 . S
C223 C222 1.388 1_545 S
P224 O235 1.490 . S
P224 C238 1.812 1_554 S
P224 C244 1.803 . S
P224 C250 1.819 . S
H225 C239 0.941 . S
H226 C240 0.939 . S
H227 C242 0.940 . S
H228 C243 0.940 . S
H229 C245 0.939 . S
H230 C246 0.942 . S
H231 C248 0.940 . S
H232 C249 0.937 1_556 S
H233 C251 0.941 . S
H234 C255 0.939 . S
O235 P224 1.490 . S
H236 C252 0.939 . S
H237 C254 0.940 . S
C238 P224 1.812 1_556 S
C238 C239 1.389 . S
C238 C243 1.391 . S
C239 H225 0.941 . S
C239 C238 1.389 . S
C239 C240 1.397 . S
C240 H226 0.939 . S
C240 C239 1.397 . S
C240 C241 1.378 . S
C241 C240 1.378 . S
C241 C242 1.378 . S
C242 H227 0.940 . S
C242 C241 1.378 . S
C242 C243 1.396 . S
C243 H228 0.940 . S
C243 C238 1.391 . S
C243 C242 1.396 . S
C244 P224 1.803 . S
C244 C245 1.378 . S
C244 C249 1.400 . S
C245 H229 0.939 . S
C245 C244 1.378 . S
C245 C246 1.361 . S
C246 H230 0.942 . S
C246 C245 1.361 . S
C246 C247 1.369 . S
C247 C246 1.369 . S
C247 C248 1.404 . S
C248 H231 0.940 . S
C248 C247 1.404 . S
C248 C249 1.389 . S
C249 H232 0.937 1_554 S
C249 C244 1.400 . S
C249 C248 1.389 . S
C250 P224 1.819 . S
C250 C251 1.391 . S
C250 C255 1.391 . S
C251 H233 0.941 . S
C251 C250 1.391 . S
C251 C252 1.396 . S
C252 H236 0.939 . S
C252 C251 1.396 . S
C252 C253 1.397 . S
C253 C252 1.397 . S
C253 C254 1.385 . S
C254 H237 0.940 . S
C254 C253 1.385 . S
C254 C255 1.388 . S
C255 H234 0.939 . S
C255 C250 1.391 . S
C255 C254 1.388 . S
Sm256 C258 2.846 . S
Sm256 O276 2.543 . S
Sm256 O277 2.450 . S
Sm256 O278 2.681 1_565 S
Sm256 O279 2.464 . S
Sm256 O280 2.396 . S
Sm256 O284 2.386 1_455 S
Sm256 O287 2.408 1_565 S
Sm257 C267 2.846 . S
Sm257 O278 2.386 1_655 S
Sm257 O281 2.408 1_545 S
Sm257 O282 2.543 . S
Sm257 O283 2.450 . S
Sm257 O284 2.681 1_545 S
Sm257 O285 2.464 . S
Sm257 O286 2.396 . S
C258 Sm256 2.846 . S
C258 C259 1.503 1_556 S
C258 O276 1.261 . S
C258 O277 1.242 . S
C259 C258 1.503 1_554 S
C259 C260 1.361 . S
C259 C264 1.382 . S
C260 C259 1.361 . S
C260 C261 1.385 . S
C260 H288 0.930 1_455 S
C261 C260 1.385 . S
C261 C262 1.395 . S
C261 H289 0.929 . S
C262 C261 1.395 . S
C262 C263 1.335 . S
C263 C262 1.335 . S
C263 C264 1.398 . S
C263 H290 0.930 . S
C264 C259 1.382 . S
C264 C263 1.398 . S
C264 H291 0.929 1_554 S
C265 O278 1.271 1_565 S
C265 O279 1.251 . S
C266 O280 1.252 1_655 S
C266 O281 1.272 . S
C267 Sm257 2.846 . S
C267 C268 1.506 . S
C267 O282 1.261 . S
C267 O283 1.242 . S
C268 C267 1.506 . S
C268 C269 1.358 . S
C268 C273 1.382 . S
C269 C268 1.358 . S
C269 C270 1.385 . S
C269 H292 0.930 1_655 S
C270 C269 1.385 . S
C270 C271 1.395 . S
C270 H293 0.929 . S
C271 C270 1.395 . S
C271 C272 1.335 . S
C272 C271 1.335 . S
C272 C273 1.398 . S
C272 H294 0.930 . S
C273 C268 1.382 . S
C273 C272 1.398 . S
C273 H295 0.929 . S
C274 O284 1.271 1_545 S
C274 O285 1.251 . S
C275 O286 1.252 1_455 S
C275 O287 1.272 . S
O276 Sm256 2.543 . S
O276 C258 1.261 . S
O277 Sm256 2.450 . S
O277 C258 1.242 . S
O278 Sm256 2.681 1_545 S
O278 Sm257 2.386 1_455 S
O278 C265 1.271 1_545 S
O279 Sm256 2.464 . S
O279 C265 1.251 . S
O280 Sm256 2.396 . S
O280 C266 1.252 1_455 S
O281 Sm257 2.408 1_565 S
O281 C266 1.272 . S
O282 Sm257 2.543 . S
O282 C267 1.261 . S
O283 Sm257 2.450 . S
O283 C267 1.242 . S
O284 Sm256 2.386 1_655 S
O284 Sm257 2.681 1_565 S
O284 C274 1.271 1_565 S
O285 Sm257 2.464 . S
O285 C274 1.251 . S
O286 Sm257 2.396 . S
O286 C275 1.252 1_655 S
O287 Sm256 2.408 1_545 S
O287 C275 1.272 . S
H288 C260 0.930 1_655 S
H289 C261 0.929 . S
H290 C263 0.930 . S
H291 C264 0.929 1_556 S
H292 C269 0.930 1_455 S
H293 C270 0.929 . S
H294 C272 0.930 . S
H295 C273 0.929 . S
Sm296 C298 2.846 . S
Sm296 O316 2.543 . S
Sm296 O317 2.450 . S
Sm296 O318 2.681 . S
Sm296 O319 2.464 . S
Sm296 O320 2.396 . S
Sm296 O324 2.386 1_545 S
Sm296 O327 2.408 . S
Sm297 C307 2.846 . S
Sm297 O318 2.386 1_565 S
Sm297 O321 2.408 . S
Sm297 O322 2.543 . S
Sm297 O323 2.450 . S
Sm297 O324 2.681 . S
Sm297 O325 2.464 . S
Sm297 O326 2.396 . S
C298 Sm296 2.846 . S
C298 C299 1.506 1_556 S
C298 O316 1.261 . S
C298 O317 1.242 . S
C299 C298 1.506 1_554 S
C299 C300 1.358 . S
C299 C304 1.382 . S
C300 C299 1.358 . S
C300 C301 1.385 . S
C300 H328 0.930 1_545 S
C301 C300 1.385 . S
C301 C302 1.395 . S
C301 H329 0.929 . S
C302 C301 1.395 . S
C302 C303 1.335 . S
C303 C302 1.335 . S
C303 C304 1.398 . S
C303 H330 0.930 . S
C304 C299 1.382 . S
C304 C303 1.398 . S
C304 H331 0.929 1_554 S
C305 O318 1.271 . S
C305 O319 1.251 . S
C306 O320 1.252 1_565 S
C306 O321 1.272 . S
C307 Sm297 2.846 . S
C307 C308 1.506 . S
C307 O322 1.261 . S
C307 O323 1.242 . S
C308 C307 1.506 . S
C308 C309 1.358 . S
C308 C313 1.382 . S
C309 C308 1.358 . S
C309 C310 1.385 . S
C309 H332 0.930 1_565 S
C310 C309 1.385 . S
C310 C311 1.395 . S
C310 H333 0.929 . S
C311 C310 1.395 . S
C311 C312 1.335 . S
C312 C311 1.335 . S
C312 C313 1.398 . S
C312 H334 0.930 . S
C313 C308 1.382 . S
C313 C312 1.398 . S
C313 H335 0.929 . S
C314 O324 1.271 . S
C314 O325 1.251 . S
C315 O326 1.252 1_545 S
C315 O327 1.272 . S
O316 Sm296 2.543 . S
O316 C298 1.261 . S
O317 Sm296 2.450 . S
O317 C298 1.242 . S
O318 Sm296 2.681 . S
O318 Sm297 2.386 1_545 S
O318 C305 1.271 . S
O319 Sm296 2.464 . S
O319 C305 1.251 . S
O320 Sm296 2.396 . S
O320 C306 1.252 1_545 S
O321 Sm297 2.408 . S
O321 C306 1.272 . S
O322 Sm297 2.543 . S
O322 C307 1.261 . S
O323 Sm297 2.450 . S
O323 C307 1.242 . S
O324 Sm296 2.386 1_565 S
O324 Sm297 2.681 . S
O324 C314 1.271 . S
O325 Sm297 2.464 . S
O325 C314 1.251 . S
O326 Sm297 2.396 . S
O326 C315 1.252 1_565 S
O327 Sm296 2.408 . S
O327 C315 1.272 . S
H328 C300 0.930 1_565 S
H329 C301 0.929 . S
H330 C303 0.930 . S
H331 C304 0.929 1_556 S
H332 C309 0.930 1_545 S
H333 C310 0.929 . S
H334 C312 0.930 . S
H335 C313 0.929 . S
Sm336 C338 2.846 . S
Sm336 O356 2.543 . S
Sm336 O357 2.450 . S
Sm336 O358 2.681 . S
Sm336 O359 2.464 . S
Sm336 O360 2.396 . S
Sm336 O364 2.386 . S
Sm336 O367 2.408 . S
Sm337 C347 2.846 . S
Sm337 O358 2.386 . S
Sm337 O361 2.408 . S
Sm337 O362 2.543 . S
Sm337 O363 2.450 . S
Sm337 O364 2.681 . S
Sm337 O365 2.464 . S
Sm337 O366 2.396 . S
C338 Sm336 2.846 . S
C338 C339 1.506 1_556 S
C338 O356 1.261 . S
C338 O357 1.242 . S
C339 C338 1.506 1_554 S
C339 C340 1.358 . S
C339 C344 1.382 . S
C340 C339 1.358 . S
C340 C341 1.385 . S
C340 H368 0.930 . S
C341 C340 1.385 . S
C341 C342 1.395 . S
C341 H369 0.929 . S
C342 C341 1.395 . S
C342 C343 1.335 . S
C343 C342 1.335 . S
C343 C344 1.398 . S
C343 H370 0.930 . S
C344 C339 1.382 . S
C344 C343 1.398 . S
C344 H371 0.929 1_554 S
C345 O358 1.271 . S
C345 O359 1.251 . S
C346 O360 1.252 . S
C346 O361 1.272 . S
C347 Sm337 2.846 . S
C347 C348 1.506 . S
C347 O362 1.261 . S
C347 O363 1.242 . S
C348 C347 1.506 . S
C348 C349 1.358 . S
C348 C353 1.382 . S
C349 C348 1.358 . S
C349 C350 1.385 . S
C349 H372 0.930 . S
C350 C349 1.385 . S
C350 C351 1.395 . S
C350 H373 0.929 . S
C351 C350 1.395 . S
C351 C352 1.335 . S
C352 C351 1.335 . S
C352 C353 1.398 . S
C352 H374 0.930 . S
C353 C348 1.382 . S
C353 C352 1.398 . S
C353 H375 0.929 . S
C354 O364 1.271 . S
C354 O365 1.251 . S
C355 O366 1.252 . S
C355 O367 1.272 . S
O356 Sm336 2.543 . S
O356 C338 1.261 . S
O357 Sm336 2.450 . S
O357 C338 1.242 . S
O358 Sm336 2.681 . S
O358 Sm337 2.386 . S
O358 C345 1.271 . S
O359 Sm336 2.464 . S
O359 C345 1.251 . S
O360 Sm336 2.396 . S
O360 C346 1.252 . S
O361 Sm337 2.408 . S
O361 C346 1.272 . S
O362 Sm337 2.543 . S
O362 C347 1.261 . S
O363 Sm337 2.450 . S
O363 C347 1.242 . S
O364 Sm336 2.386 . S
O364 Sm337 2.681 . S
O364 C354 1.271 . S
O365 Sm337 2.464 . S
O365 C354 1.251 . S
O366 Sm337 2.396 . S
O366 C355 1.252 . S
O367 Sm336 2.408 . S
O367 C355 1.272 . S
H368 C340 0.930 . S
H369 C341 0.929 . S
H370 C343 0.930 . S
H371 C344 0.929 1_556 S
H372 C349 0.930 . S
H373 C350 0.929 . S
H374 C352 0.930 . S
H375 C353 0.929 . S
Sm376 C378 2.846 . S
Sm376 O396 2.543 . S
Sm376 O397 2.450 . S
Sm376 O398 2.681 1_655 S
Sm376 O399 2.464 . S
Sm376 O400 2.396 . S
Sm376 O404 2.386 . S
Sm376 O407 2.408 1_655 S
Sm377 C387 2.846 . S
Sm377 O398 2.386 . S
Sm377 O401 2.408 1_455 S
Sm377 O402 2.543 . S
Sm377 O403 2.450 . S
Sm377 O404 2.681 1_455 S
Sm377 O405 2.464 . S
Sm377 O406 2.396 . S
C378 Sm376 2.846 . S
C378 C379 1.506 1_556 S
C378 O396 1.261 . S
C378 O397 1.242 . S
C379 C378 1.506 1_554 S
C379 C380 1.358 . S
C379 C384 1.382 . S
C380 C379 1.358 . S
C380 C381 1.385 . S
C380 H408 0.930 . S
C381 C380 1.385 . S
C381 C382 1.395 . S
C381 H409 0.929 . S
C382 C381 1.395 . S
C382 C383 1.335 . S
C383 C382 1.335 . S
C383 C384 1.398 . S
C383 H410 0.930 . S
C384 C379 1.382 . S
C384 C383 1.398 . S
C384 H411 0.929 1_554 S
C385 O398 1.268 1_655 S
C385 O399 1.257 . S
C386 O400 1.252 . S
C386 O401 1.272 . S
C387 Sm377 2.846 . S
C387 C388 1.506 . S
C387 O402 1.261 . S
C387 O403 1.242 . S
C388 C387 1.506 . S
C388 C389 1.358 . S
C388 C393 1.382 . S
C389 C388 1.358 . S
C389 C390 1.385 . S
C389 H412 0.930 . S
C390 C389 1.385 . S
C390 C391 1.395 . S
C390 H413 0.929 . S
C391 C390 1.395 . S
C391 C392 1.335 . S
C392 C391 1.335 . S
C392 C393 1.398 . S
C392 H414 0.930 . S
C393 C388 1.382 . S
C393 C392 1.398 . S
C393 H415 0.929 . S
C394 O404 1.265 1_455 S
C394 O405 1.261 . S
C395 O406 1.252 . S
C395 O407 1.272 . S
O396 Sm376 2.543 . S
O396 C378 1.261 . S
O397 Sm376 2.450 . S
O397 C378 1.242 . S
O398 Sm376 2.681 1_455 S
O398 Sm377 2.386 . S
O398 C385 1.268 1_455 S
O399 Sm376 2.464 . S
O399 C385 1.257 . S
O400 Sm376 2.396 . S
O400 C386 1.252 . S
O401 Sm377 2.408 1_655 S
O401 C386 1.272 . S
O402 Sm377 2.543 . S
O402 C387 1.261 . S
O403 Sm377 2.450 . S
O403 C387 1.242 . S
O404 Sm376 2.386 . S
O404 Sm377 2.681 1_655 S
O404 C394 1.265 1_655 S
O405 Sm377 2.464 . S
O405 C394 1.261 . S
O406 Sm377 2.396 . S
O406 C395 1.252 . S
O407 Sm376 2.408 1_455 S
O407 C395 1.272 . S
H408 C380 0.930 . S
H409 C381 0.929 . S
H410 C383 0.930 . S
H411 C384 0.929 1_556 S
H412 C389 0.930 . S
H413 C390 0.929 . S
H414 C392 0.930 . S
H415 C393 0.929 . S
C416 C417 1.366 . S
C416 C418 1.419 . S
C416 H420 0.930 . S
C417 C416 1.366 . S
C417 C426 1.431 1_545 S
C418 C416 1.419 . S
C418 C419 1.378 . S
C418 H421 0.929 . S
C419 C418 1.378 . S
C419 C425 1.413 1_545 S
H420 C416 0.930 . S
H421 C418 0.929 . S
S422 N423 1.613 . S
S422 N424 1.610 . S
N423 S422 1.613 . S
N423 C426 1.350 . S
N424 S422 1.610 . S
N424 C425 1.351 . S
C425 C419 1.413 1_565 S
C425 N424 1.351 . S
C425 C426 1.434 . S
C426 C417 1.431 1_565 S
C426 N423 1.350 . S
C426 C425 1.434 . S
C427 C428 1.369 . S
C427 C429 1.419 . S
C427 H431 0.930 . S
C428 C427 1.369 . S
C428 C437 1.429 . S
C429 C427 1.419 . S
C429 C430 1.363 . S
C429 H432 0.929 . S
C430 C429 1.363 . S
C430 C436 1.428 . S
H431 C427 0.930 . S
H432 C429 0.929 . S
S433 N434 1.613 . S
S433 N435 1.610 . S
N434 S433 1.613 . S
N434 C437 1.350 . S
N435 S433 1.610 . S
N435 C436 1.351 . S
C436 C430 1.428 . S
C436 N435 1.351 . S
C436 C437 1.434 . S
C437 C428 1.429 . S
C437 N434 1.350 . S
C437 C436 1.434 . S
C438 C439 1.369 . S
C438 C440 1.419 . S
C438 H442 0.930 . S
C439 C438 1.369 . S
C439 C448 1.429 . S
C440 C438 1.419 . S
C440 C441 1.363 . S
C440 H443 0.929 . S
C441 C440 1.363 . S
C441 C447 1.428 . S
H442 C438 0.930 . S
H443 C440 0.929 . S
S444 N445 1.613 . S
S444 N446 1.610 . S
N445 S444 1.613 . S
N445 C448 1.350 . S
N446 S444 1.610 . S
N446 C447 1.351 . S
C447 C441 1.428 . S
C447 N446 1.351 . S
C447 C448 1.434 . S
C448 C439 1.429 . S
C448 N445 1.350 . S
C448 C447 1.434 . S
C449 C450 1.385 . S
C449 C451 1.419 . S
C449 H453 0.930 . S
C450 C449 1.385 . S
C450 C459 1.413 1_455 S
C451 C449 1.419 . S
C451 C452 1.363 . S
C451 H454 0.929 . S
C452 C451 1.363 . S
C452 C458 1.428 1_455 S
H453 C449 0.930 . S
H454 C451 0.929 . S
S455 N456 1.613 . S
S455 N457 1.610 . S
N456 S455 1.613 . S
N456 C459 1.350 . S
N457 S455 1.610 . S
N457 C458 1.351 . S
C458 C452 1.428 1_655 S
C458 N457 1.351 . S
C458 C459 1.434 . S
C459 C450 1.413 1_655 S
C459 N456 1.350 . S
C459 C458 1.434 . S
C460 C461 1.368 1_545 S
C460 C462 1.419 . S
C460 H464 0.930 . S
C461 C460 1.368 1_565 S
C461 C470 1.430 . S
C462 C460 1.419 . S
C462 C463 1.356 1_545 S
C462 H465 0.929 . S
C463 C462 1.356 1_565 S
C463 C469 1.436 . S
H464 C460 0.930 . S
H465 C462 0.929 . S
S466 N467 1.613 . S
S466 N468 1.610 . S
N467 S466 1.613 . S
N467 C470 1.350 . S
N468 S466 1.610 . S
N468 C469 1.351 . S
C469 C463 1.436 . S
C469 N468 1.351 . S
C469 C470 1.434 . S
C470 C461 1.430 . S
C470 N467 1.350 . S
C470 C469 1.434 . S
C471 C472 1.369 . S
C471 C473 1.419 . S
C471 H475 0.930 . S
C472 C471 1.369 . S
C472 C481 1.429 . S
C473 C471 1.419 . S
C473 C474 1.363 . S
C473 H476 0.929 . S
C474 C473 1.363 . S
C474 C480 1.428 . S
H475 C471 0.930 . S
H476 C473 0.929 . S
S477 N478 1.613 . S
S477 N479 1.610 . S
N478 S477 1.613 . S
N478 C481 1.350 . S
N479 S477 1.610 . S
N479 C480 1.351 . S
C480 C474 1.428 . S
C480 N479 1.351 . S
C480 C481 1.434 . S
C481 C472 1.429 . S
C481 N478 1.350 . S
C481 C480 1.434 . S
C482 C483 1.369 . S
C482 C484 1.419 . S
C482 H486 0.930 . S
C483 C482 1.369 . S
C483 C492 1.429 . S
C484 C482 1.419 . S
C484 C485 1.363 . S
C484 H487 0.929 . S
C485 C484 1.363 . S
C485 C491 1.428 . S
H486 C482 0.930 . S
H487 C484 0.929 . S
S488 N489 1.613 . S
S488 N490 1.610 . S
N489 S488 1.613 . S
N489 C492 1.350 . S
N490 S488 1.610 . S
N490 C491 1.351 . S
C491 C485 1.428 . S
C491 N490 1.351 . S
C491 C492 1.434 . S
C492 C483 1.429 . S
C492 N489 1.350 . S
C492 C491 1.434 . S
C493 C494 1.380 . S
C493 C495 1.419 . S
C493 H497 0.930 . S
C494 C493 1.380 . S
C494 C503 1.418 1_655 S
C495 C493 1.419 . S
C495 C496 1.363 . S
C495 H498 0.929 . S
C496 C495 1.363 . S
C496 C502 1.428 1_655 S
H497 C493 0.930 . S
H498 C495 0.929 . S
S499 N500 1.613 . S
S499 N501 1.610 . S
N500 S499 1.613 . S
N500 C503 1.350 . S
N501 S499 1.610 . S
N501 C502 1.351 . S
C502 C496 1.428 1_455 S
C502 N501 1.351 . S
C502 C503 1.434 . S
C503 C494 1.418 1_455 S
C503 N500 1.350 . S
C503 C502 1.434 . S
C504 C505 1.369 . S
C504 C506 1.419 . S
C504 H508 0.930 . S
C505 C504 1.369 . S
C505 C514 1.429 1_655 S
C506 C504 1.419 . S
C506 C507 1.363 . S
C506 H509 0.929 . S
C507 C506 1.363 . S
C507 C513 1.428 . S
H508 C504 0.930 . S
H509 C506 0.929 . S
S510 N511 1.613 . S
S510 N512 1.610 1_455 S
N511 S510 1.613 . S
N511 C514 1.350 . S
N512 S510 1.610 1_655 S
N512 C513 1.351 . S
C513 C507 1.428 . S
C513 N512 1.351 . S
C513 C514 1.434 1_655 S
C514 C505 1.429 1_455 S
C514 N511 1.350 . S
C514 C513 1.434 1_455 S
C515 C516 1.369 1_545 S
C515 C517 1.419 1_545 S
C515 H519 0.930 . S
C516 C515 1.369 1_565 S
C516 C525 1.429 . S
C517 C515 1.419 1_565 S
C517 C518 1.363 . S
C517 H520 0.929 . S
C518 C517 1.363 . S
C518 C524 1.428 . S
H519 C515 0.930 . S
H520 C517 0.929 . S
S521 N522 1.613 . S
S521 N523 1.610 . S
N522 S521 1.613 . S
N522 C525 1.350 . S
N523 S521 1.610 . S
N523 C524 1.351 . S
C524 C518 1.428 . S
C524 N523 1.351 . S
C524 C525 1.434 . S
C525 C516 1.429 . S
C525 N522 1.350 . S
C525 C524 1.434 . S
C526 C527 1.369 . S
C526 C528 1.419 . S
C526 H530 0.930 . S
C527 C526 1.369 . S
C527 C536 1.429 . S
C528 C526 1.419 . S
C528 C529 1.363 . S
C528 H531 0.929 . S
C529 C528 1.363 . S
C529 C535 1.428 . S
H530 C526 0.930 . S
H531 C528 0.929 . S
S532 N533 1.613 . S
S532 N534 1.610 . S
N533 S532 1.613 . S
N533 C536 1.350 . S
N534 S532 1.610 . S
N534 C535 1.351 . S
C535 C529 1.428 . S
C535 N534 1.351 . S
C535 C536 1.434 . S
C536 C527 1.429 . S
C536 N533 1.350 . S
C536 C535 1.434 . S
C537 C538 1.369 . S
C537 C539 1.419 . S
C537 H541 0.930 . S
C538 C537 1.369 . S
C538 C547 1.429 . S
C539 C537 1.419 . S
C539 C540 1.363 . S
C539 H542 0.929 . S
C540 C539 1.363 . S
C540 C546 1.428 . S
H541 C537 0.930 . S
H542 C539 0.929 . S
S543 N544 1.613 . S
S543 N545 1.610 . S
N544 S543 1.613 . S
N544 C547 1.350 . S
N545 S543 1.610 . S
N545 C546 1.351 . S
C546 C540 1.428 . S
C546 N545 1.351 . S
C546 C547 1.434 . S
C547 C538 1.429 . S
C547 N544 1.350 . S
C547 C546 1.434 . S
C548 C549 1.369 . S
C548 C550 1.419 . S
C548 H552 0.929 1_455 S
C549 C548 1.369 . S
C549 C558 1.429 . S
C550 C548 1.419 . S
C550 C551 1.363 . S
C550 H553 0.929 . S
C551 C550 1.363 . S
C551 C557 1.428 . S
H552 C548 0.929 1_655 S
H553 C550 0.929 . S
S554 N555 1.613 . S
S554 N556 1.610 . S
N555 S554 1.613 . S
N555 C558 1.350 . S
N556 S554 1.610 . S
N556 C557 1.351 . S
C557 C551 1.428 . S
C557 N556 1.351 . S
C557 C558 1.434 . S
C558 C549 1.429 . S
C558 N555 1.350 . S
C558 C557 1.434 . S
C559 C560 1.369 . S
C559 C561 1.419 . S
C559 H563 0.930 . S
C560 C559 1.369 . S
C560 C569 1.429 . S
C561 C559 1.419 . S
C561 C562 1.363 . S
C561 H564 0.929 . S
C562 C561 1.363 . S
C562 C568 1.428 . S
H563 C559 0.930 . S
H564 C561 0.929 . S
S565 N566 1.613 . S
S565 N567 1.610 1_565 S
N566 S565 1.613 . S
N566 C569 1.350 1_565 S
N567 S565 1.610 1_545 S
N567 C568 1.351 . S
C568 C562 1.428 . S
C568 N567 1.351 . S
C568 C569 1.434 . S
C569 C560 1.429 . S
C569 N566 1.350 1_545 S
C569 C568 1.434 . S
C570 C571 1.369 . S
C570 C572 1.419 . S
C570 H574 0.930 . S
C571 C570 1.369 . S
C571 C580 1.429 . S
C572 C570 1.419 . S
C572 C573 1.363 . S
C572 H575 0.929 . S
C573 C572 1.363 . S
C573 C579 1.428 . S
H574 C570 0.930 . S
H575 C572 0.929 . S
S576 N577 1.613 . S
S576 N578 1.610 . S
N577 S576 1.613 . S
N577 C580 1.350 . S
N578 S576 1.610 . S
N578 C579 1.351 . S
C579 C573 1.428 . S
C579 N578 1.351 . S
C579 C580 1.434 . S
C580 C571 1.429 . S
C580 N577 1.350 . S
C580 C579 1.434 . S
C581 C582 1.369 . S
C581 C583 1.419 . S
C581 H585 0.930 . S
C582 C581 1.369 . S
C582 C591 1.429 . S
C583 C581 1.419 . S
C583 C584 1.363 . S
C583 H586 0.929 . S
C584 C583 1.363 . S
C584 C590 1.428 . S
H585 C581 0.930 . S
H586 C583 0.929 . S
S587 N588 1.613 . S
S587 N589 1.610 . S
N588 S587 1.613 . S
N588 C591 1.350 . S
N589 S587 1.610 . S
N589 C590 1.351 . S
C590 C584 1.428 . S
C590 N589 1.351 . S
C590 C591 1.434 . S
C591 C582 1.429 . S
C591 N588 1.350 . S
C591 C590 1.434 . S
C592 C593 1.369 . S
C592 C594 1.419 . S
C592 H596 0.930 . S
C593 C592 1.369 . S
C593 C602 1.429 1_455 S
C594 C592 1.419 . S
C594 C595 1.363 . S
C594 H597 0.929 . S
C595 C594 1.363 . S
C595 C601 1.428 1_455 S
H596 C592 0.930 . S
H597 C594 0.929 . S
S598 N599 1.613 . S
S598 N600 1.610 . S
N599 S598 1.613 . S
N599 C602 1.350 . S
N600 S598 1.610 . S
N600 C601 1.351 . S
C601 C595 1.428 1_655 S
C601 N600 1.351 . S
C601 C602 1.434 . S
C602 C593 1.429 1_655 S
C602 N599 1.350 . S
C602 C601 1.434 . S
C603 C604 1.369 . S
C603 C605 1.419 . S
C603 H607 0.930 . S
C604 C603 1.369 . S
C604 C613 1.429 1_545 S
C605 C603 1.419 . S
C605 C606 1.363 . S
C605 H608 0.929 . S
C606 C605 1.363 . S
C606 C612 1.428 1_545 S
H607 C603 0.930 . S
H608 C605 0.929 . S
S609 N610 1.613 . S
S609 N611 1.610 . S
N610 S609 1.613 . S
N610 C613 1.350 . S
N611 S609 1.610 . S
N611 C612 1.351 . S
C612 C606 1.428 1_565 S
C612 N611 1.351 . S
C612 C613 1.434 . S
C613 C604 1.429 1_565 S
C613 N610 1.350 . S
C613 C612 1.434 . S
C614 C615 1.369 . S
C614 C616 1.419 . S
C614 H618 0.930 . S
C615 C614 1.369 . S
C615 C624 1.429 . S
C616 C614 1.419 . S
C616 C617 1.363 . S
C616 H619 0.929 . S
C617 C616 1.363 . S
C617 C623 1.428 . S
H618 C614 0.930 . S
H619 C616 0.929 . S
S620 N621 1.613 . S
S620 N622 1.610 . S
N621 S620 1.613 . S
N621 C624 1.350 . S
N622 S620 1.610 . S
N622 C623 1.351 . S
C623 C617 1.428 . S
C623 N622 1.351 . S
C623 C624 1.434 . S
C624 C615 1.429 . S
C624 N621 1.350 . S
C624 C623 1.434 . S
C625 C626 1.369 . S
C625 C627 1.419 . S
C625 H629 0.930 . S
C626 C625 1.369 . S
C626 C635 1.429 . S
C627 C625 1.419 . S
C627 C628 1.363 . S
C627 H630 0.929 . S
C628 C627 1.363 . S
C628 C634 1.428 . S
H629 C625 0.930 . S
H630 C627 0.929 . S
S631 N632 1.613 . S
S631 N633 1.610 . S
N632 S631 1.613 . S
N632 C635 1.350 . S
N633 S631 1.610 . S
N633 C634 1.351 . S
C634 C628 1.428 . S
C634 N633 1.351 . S
C634 C635 1.434 . S
C635 C626 1.429 . S
C635 N632 1.350 . S
C635 C634 1.434 . S
C636 C637 1.369 . S
C636 C638 1.419 . S
C636 H640 0.930 . S
C637 C636 1.369 . S
C637 C646 1.429 1_655 S
C638 C636 1.419 . S
C638 C639 1.363 . S
C638 H641 0.929 . S
C639 C638 1.363 . S
C639 C645 1.428 1_655 S
H640 C636 0.930 . S
H641 C638 0.929 . S
S642 N643 1.613 . S
S642 N644 1.610 . S
N643 S642 1.613 . S
N643 C646 1.350 . S
N644 S642 1.610 . S
N644 C645 1.351 . S
C645 C639 1.428 1_455 S
C645 N644 1.351 . S
C645 C646 1.434 . S
C646 C637 1.429 1_455 S
C646 N643 1.350 . S
C646 C645 1.434 . S
C647 C648 1.369 1_545 S
C647 C649 1.419 . S
C647 H651 0.930 . S
C648 C647 1.369 1_565 S
C648 C657 1.429 . S
C649 C647 1.419 . S
C649 C650 1.363 1_545 S
C649 H652 0.929 . S
C650 C649 1.363 1_565 S
C650 C656 1.428 . S
H651 C647 0.930 . S
H652 C649 0.929 . S
S653 N654 1.613 . S
S653 N655 1.610 . S
N654 S653 1.613 . S
N654 C657 1.350 . S
N655 S653 1.610 . S
N655 C656 1.351 . S
C656 C650 1.428 . S
C656 N655 1.351 . S
C656 C657 1.434 . S
C657 C648 1.429 . S
C657 N654 1.350 . S
C657 C656 1.434 . S
C658 C659 1.369 . S
C658 C660 1.419 . S
C658 H662 0.930 . S
C659 C658 1.369 . S
C659 C668 1.429 . S
C660 C658 1.419 . S
C660 C661 1.363 . S
C660 H663 0.929 . S
C661 C660 1.363 . S
C661 C667 1.428 . S
H662 C658 0.930 . S
H663 C660 0.929 . S
S664 N665 1.613 . S
S664 N666 1.610 . S
N665 S664 1.613 . S
N665 C668 1.350 . S
N666 S664 1.610 . S
N666 C667 1.351 . S
C667 C661 1.428 . S
C667 N666 1.351 . S
C667 C668 1.434 . S
C668 C659 1.429 . S
C668 N665 1.350 . S
C668 C667 1.434 . S
C669 C670 1.369 . S
C669 C671 1.419 . S
C669 H673 0.930 . S
C670 C669 1.369 . S
C670 C679 1.429 . S
C671 C669 1.419 . S
C671 C672 1.363 . S
C671 H674 0.929 . S
C672 C671 1.363 . S
C672 C678 1.428 . S
H673 C669 0.930 . S
H674 C671 0.929 . S
S675 N676 1.613 . S
S675 N677 1.610 . S
N676 S675 1.613 . S
N676 C679 1.350 . S
N677 S675 1.610 . S
N677 C678 1.351 . S
C678 C672 1.428 . S
C678 N677 1.351 . S
C678 C679 1.434 . S
C679 C670 1.429 . S
C679 N676 1.350 . S
C679 C678 1.434 . S
C417 C215 2.299 . S
C419 C265 2.580 1_545 S
C430 C305 2.601 . S
C428 C247 2.303 . S
C441 C345 2.608 . S
C439 C151 2.313 . S
C452 C385 2.588 1_455 S
C450 C183 2.310 . S
C463 C274 2.581 1_564 S
C461 C87 2.303 1_565 S
C472 C119 2.343 . S
C474 C314 2.602 1_554 S
C483 C23 2.354 . S
C485 C354 2.608 1_554 S
C494 C55 2.307 1_655 S
C496 C394 2.588 1_654 S
C507 C271 0.806 . S
C505 C189 0.858 1_655 S
C518 C311 0.821 . S
C516 C221 0.839 1_565 S
C529 C351 0.791 . S
C527 C253 0.794 . S
C538 C157 0.807 . S
C540 C391 0.792 . S
C549 C61 0.778 . S
C551 C262 0.828 . S
C562 C302 0.802 . S
C560 C93 0.798 . S
C573 C342 0.773 . S
C571 C125 0.788 . S
C582 C29 0.766 . S
C584 C382 0.796 . S
C593 C177 2.836 . S
C595 C275 3.262 . S
C604 C209 2.801 . S
C606 C315 3.227 . S
C617 C355 3.216 . S
C615 C241 2.779 . S
C628 C395 3.254 . S
C626 C145 2.814 . S
C637 C49 2.885 1_655 S
C639 C266 3.268 . S
C650 C306 3.229 . S
C648 C81 2.846 1_565 S
C661 C346 3.216 . S
C659 C113 2.852 . S
C670 C17 2.889 . S
C672 C386 3.260 . S
