# Generated by pormake.
# Topology pyr, (3,6)-cn, num edge types: 1
# Building blocks:
#     Node 0, Type 0, BuildingBlock: MIDCAF_clean_linker_0, # of connection points: 3
#     Node 1, Type 0, BuildingBlock: MIDCAF_clean_linker_0, # of connection points: 3
#     Node 2, Type 0, BuildingBlock: MIDCAF_clean_linker_0, # of connection points: 3
#     Node 3, Type 0, BuildingBlock: MIDCAF_clean_linker_0, # of connection points: 3
#     Node 4, Type 0, BuildingBlock: MIDCAF_clean_linker_0, # of connection points: 3
#     Node 5, Type 0, BuildingBlock: MIDCAF_clean_linker_0, # of connection points: 3
#     Node 6, Type 0, BuildingBlock: MIDCAF_clean_linker_0, # of connection points: 3
#     Node 7, Type 0, BuildingBlock: MIDCAF_clean_linker_0, # of connection points: 3
#     Node 8, Type 1, BuildingBlock: JUFBIX_clean_sbu_0, # of connection points: 6
#     Node 9, Type 1, BuildingBlock: JUFBIX_clean_sbu_0, # of connection points: 6
#     Node 10, Type 1, BuildingBlock: JUFBIX_clean_sbu_0, # of connection points: 6
#     Node 11, Type 1, BuildingBlock: JUFBIX_clean_sbu_0, # of connection points: 6
#     Edge 12, Type (0, 1), BuildingBlock: XIVTED_clean_linker_0, # of connection points: 2
#     Edge 13, Type (0, 1), BuildingBlock: XIVTED_clean_linker_0, # of connection points: 2
#     Edge 14, Type (0, 1), BuildingBlock: XIVTED_clean_linker_0, # of connection points: 2
#     Edge 15, Type (0, 1), BuildingBlock: XIVTED_clean_linker_0, # of connection points: 2
#     Edge 16, Type (0, 1), BuildingBlock: XIVTED_clean_linker_0, # of connection points: 2
#     Edge 17, Type (0, 1), BuildingBlock: XIVTED_clean_linker_0, # of connection points: 2
#     Edge 18, Type (0, 1), BuildingBlock: XIVTED_clean_linker_0, # of connection points: 2
#     Edge 19, Type (0, 1), BuildingBlock: XIVTED_clean_linker_0, # of connection points: 2
#     Edge 20, Type (0, 1), BuildingBlock: XIVTED_clean_linker_0, # of connection points: 2
#     Edge 21, Type (0, 1), BuildingBlock: XIVTED_clean_linker_0, # of connection points: 2
#     Edge 22, Type (0, 1), BuildingBlock: XIVTED_clean_linker_0, # of connection points: 2
#     Edge 23, Type (0, 1), BuildingBlock: XIVTED_clean_linker_0, # of connection points: 2
#     Edge 24, Type (0, 1), BuildingBlock: XIVTED_clean_linker_0, # of connection points: 2
#     Edge 25, Type (0, 1), BuildingBlock: XIVTED_clean_linker_0, # of connection points: 2
#     Edge 26, Type (0, 1), BuildingBlock: XIVTED_clean_linker_0, # of connection points: 2
#     Edge 27, Type (0, 1), BuildingBlock: XIVTED_clean_linker_0, # of connection points: 2
#     Edge 28, Type (0, 1), BuildingBlock: XIVTED_clean_linker_0, # of connection points: 2
#     Edge 29, Type (0, 1), BuildingBlock: XIVTED_clean_linker_0, # of connection points: 2
#     Edge 30, Type (0, 1), BuildingBlock: XIVTED_clean_linker_0, # of connection points: 2
#     Edge 31, Type (0, 1), BuildingBlock: XIVTED_clean_linker_0, # of connection points: 2
#     Edge 32, Type (0, 1), BuildingBlock: XIVTED_clean_linker_0, # of connection points: 2
#     Edge 33, Type (0, 1), BuildingBlock: XIVTED_clean_linker_0, # of connection points: 2
#     Edge 34, Type (0, 1), BuildingBlock: XIVTED_clean_linker_0, # of connection points: 2
#     Edge 35, Type (0, 1), BuildingBlock: XIVTED_clean_linker_0, # of connection points: 2
# Relax obj value: 0.046
# Max RMSD: 0.092
# Mean RMSD: 0.031
data_MOF--net-pyr--node1-JUFBIX_clean_sbu_0--node2-MIDCAF_clean_linker_0--edge1-XIVTED_clean_linker_0
_symmetry_space_group_name_H-M    P1
_symmetry_Int_Tables_number       1
_symmetry_cell_setting            triclinic
loop_
_symmetry_equiv_pos_as_xyz
'x, y, z'
_cell_length_a     46.056588
_cell_length_b     43.83197
_cell_length_c     45.997787
_cell_angle_alpha  85.377042
_cell_angle_beta   89.77774
_cell_angle_gamma 91.399985
loop_
_atom_site_label
_atom_site_type_symbol
_atom_site_fract_x
_atom_site_fract_y
_atom_site_fract_z
_atom_type_partial_charge
C0 C 0.12009 0.11504 0.25738 0.0
C1 C 0.13714 0.10073 0.27964 0.0
C2 C 0.16715 0.09822 0.2743 0.0
C3 C 0.17967 0.11006 0.24773 0.0
H4 H 0.24808 0.09748 0.18597 0.0
H5 H 0.29155 0.07755 0.16447 0.0
H6 H 0.28245 0.14148 0.0888 0.0
H7 H 0.23895 0.16117 0.10996 0.0
H8 H 0.19434 0.21655 0.1132 0.0
H9 H 0.17075 0.26135 0.09001 0.0
H10 H 0.0957 0.24207 0.14573 0.0
H11 H 0.11951 0.19803 0.16942 0.0
H12 H 0.11877 0.1384 0.21478 0.0
H13 H 0.09684 0.11672 0.26002 0.0
H14 H 0.1812 0.08776 0.29085 0.0
H15 H 0.20285 0.10814 0.24454 0.0
N16 N 0.20104 0.12938 0.1877 0.0
N17 N 0.19891 0.16665 0.14807 0.0
N18 N 0.1623 0.16327 0.18375 0.0
C19 C 0.21268 0.14271 0.16231 0.0
C20 C 0.17375 0.17713 0.15867 0.0
C21 C 0.17575 0.13952 0.19848 0.0
C22 C 0.23978 0.13096 0.14977 0.0
C23 C 0.25532 0.10736 0.16476 0.0
C24 C 0.2804 0.096 0.15249 0.0
C25 C 0.29052 0.1078 0.12482 0.0
C26 C 0.2751 0.13151 0.10994 0.0
C27 C 0.25017 0.14297 0.12224 0.0
C28 C 0.15899 0.20368 0.14339 0.0
C29 C 0.17277 0.22181 0.12046 0.0
C30 C 0.15915 0.24748 0.10703 0.0
C31 C 0.13133 0.25561 0.11606 0.0
C32 C 0.11736 0.23704 0.13856 0.0
C33 C 0.13101 0.21155 0.15208 0.0
C34 C 0.16262 0.12515 0.22603 0.0
C35 C 0.13267 0.12732 0.23117 0.0
C36 C 0.34751 0.96911 0.56773 0.0
C37 C 0.32706 0.95055 0.55438 0.0
C38 C 0.33544 0.92184 0.54621 0.0
C39 C 0.36296 0.91088 0.55344 0.0
H40 H 0.40988 0.83384 0.55555 0.0
H41 H 0.41977 0.78068 0.54848 0.0
H42 H 0.49232 0.78356 0.60748 0.0
H43 H 0.48275 0.83692 0.61445 0.0
H44 H 0.47887 0.88766 0.66174 0.0
H45 H 0.49063 0.90768 0.70822 0.0
H46 H 0.45206 0.99361 0.67918 0.0
H47 H 0.43972 0.97348 0.63293 0.0
H48 H 0.38965 0.97256 0.58653 0.0
H49 H 0.34184 0.99162 0.57372 0.0
H50 H 0.32012 0.90699 0.53596 0.0
H51 H 0.36812 0.88793 0.54832 0.0
N52 N 0.41667 0.88604 0.57621 0.0
N53 N 0.45276 0.88609 0.61206 0.0
N54 N 0.42338 0.92867 0.6032 0.0
C55 C 0.4387 0.87172 0.59088 0.0
C56 C 0.44532 0.91468 0.61823 0.0
C57 C 0.40899 0.91461 0.58212 0.0
C58 C 0.44552 0.83976 0.58559 0.0
C59 C 0.42805 0.82329 0.56696 0.0
C60 C 0.43354 0.7927 0.56307 0.0
C61 C 0.4567 0.77792 0.57755 0.0
C62 C 0.47442 0.79443 0.59587 0.0
C63 C 0.46885 0.825 0.59991 0.0
C64 C 0.45779 0.92872 0.64379 0.0
C65 C 0.47342 0.91105 0.66497 0.0
C66 C 0.4803 0.92258 0.69163 0.0
C67 C 0.47181 0.95205 0.69758 0.0
C68 C 0.45828 0.97055 0.6755 0.0
C69 C 0.45131 0.95901 0.64893 0.0
C70 C 0.38254 0.92842 0.56905 0.0
C71 C 0.37495 0.95817 0.57499 0.0
C72 C 0.65251 0.25175 0.90784 0.0
C73 C 0.62465 0.24328 0.89846 0.0
C74 C 0.61177 0.26131 0.87559 0.0
C75 C 0.62643 0.28709 0.86233 0.0
H76 H 0.6222 0.34995 0.79327 0.0
H77 H 0.60073 0.37715 0.75104 0.0
H78 H 0.6721 0.44317 0.74702 0.0
H79 H 0.69413 0.41553 0.78926 0.0
H80 H 0.74614 0.40572 0.83564 0.0
H81 H 0.7912 0.42311 0.85749 0.0
H82 H 0.7824 0.34991 0.92587 0.0
H83 H 0.7374 0.33275 0.90449 0.0
H84 H 0.68862 0.28326 0.90241 0.0
H85 H 0.66328 0.23814 0.92508 0.0
H86 H 0.59017 0.2557 0.86809 0.0
H87 H 0.61577 0.30044 0.84483 0.0
N88 N 0.65869 0.33859 0.83383 0.0
N89 N 0.69855 0.37308 0.8319 0.0
N90 N 0.69563 0.33252 0.86841 0.0
C91 C 0.6728 0.36367 0.82078 0.0
C92 C 0.71011 0.35756 0.85576 0.0
C93 C 0.66993 0.32287 0.85761 0.0
C94 C 0.65994 0.38052 0.79484 0.0
C95 C 0.63344 0.37026 0.78352 0.0
C96 C 0.62096 0.386 0.75933 0.0
C97 C 0.63455 0.4125 0.74578 0.0
C98 C 0.66117 0.42271 0.75686 0.0
C99 C 0.67372 0.40693 0.78116 0.0
C100 C 0.73796 0.36789 0.86832 0.0
C101 C 0.75381 0.39329 0.85531 0.0
C102 C 0.77974 0.40317 0.86773 0.0
C103 C 0.79029 0.38797 0.89349 0.0
C104 C 0.77463 0.36241 0.90627 0.0
C105 C 0.74884 0.35248 0.89385 0.0
C106 C 0.65431 0.29554 0.8717 0.0
C107 C 0.66713 0.27758 0.89467 0.0
C108 C 0.8332 0.60896 0.47612 0.0
C109 C 0.82184 0.5809 0.46778 0.0
C110 C 0.83961 0.56242 0.4521 0.0
C111 C 0.86713 0.57288 0.44266 0.0
H112 H 0.89544 0.58519 0.3588 0.0
H113 H 0.90255 0.5682 0.31072 0.0
H114 H 0.98848 0.61033 0.30666 0.0
H115 H 0.98081 0.62862 0.35498 0.0
H116 H 0.98476 0.68705 0.3977 0.0
H117 H 1.00751 0.73437 0.41152 0.0
H118 H 0.95723 0.72761 0.49129 0.0
H119 H 0.93454 0.68002 0.47774 0.0
H120 H 0.86843 0.64203 0.47179 0.0
H121 H 0.81993 0.6237 0.48818 0.0
H122 H 0.83166 0.54041 0.44589 0.0
H123 H 0.87965 0.55864 0.42934 0.0
N124 N 0.91052 0.60523 0.40694 0.0
N125 N 0.94809 0.64201 0.40036 0.0
N126 N 0.91901 0.63938 0.44274 0.0
C127 C 0.93253 0.61833 0.39039 0.0
C128 C 0.94156 0.65261 0.42661 0.0
C129 C 0.90363 0.61537 0.43308 0.0
C130 C 0.9377 0.60802 0.36096 0.0
C131 C 0.91598 0.5908 0.34786 0.0
C132 C 0.92011 0.58088 0.3202 0.0
C133 C 0.94628 0.58742 0.3049 0.0
C134 C 0.96798 0.60501 0.31776 0.0
C135 C 0.96368 0.61534 0.3455 0.0
C136 C 0.95748 0.67979 0.43641 0.0
C137 C 0.9787 0.69536 0.41836 0.0
C138 C 0.99174 0.72259 0.42622 0.0
C139 C 0.984 0.73486 0.45237 0.0
C140 C 0.96382 0.71862 0.47109 0.0
C141 C 0.95065 0.69142 0.46318 0.0
C142 C 0.87759 0.60206 0.44876 0.0
C143 C 0.86094 0.61947 0.4667 0.0
C144 C 0.74572 0.90056 0.87508 0.0
C145 C 0.73502 0.88811 0.9023 0.0
C146 C 0.75018 0.86409 0.91703 0.0
C147 C 0.77519 0.85265 0.90478 0.0
H148 H 0.84228 0.78929 0.92082 0.0
H149 H 0.86706 0.74515 0.9438 0.0
H150 H 0.90874 0.73163 0.86161 0.0
H151 H 0.88498 0.77628 0.83911 0.0
H152 H 0.87617 0.8258 0.78402 0.0
H153 H 0.89814 0.84947 0.73902 0.0
H154 H 0.86839 0.93769 0.75997 0.0
H155 H 0.84568 0.91392 0.80485 0.0
H156 H 0.77828 0.89943 0.84187 0.0
H157 H 0.73485 0.91933 0.86327 0.0
H158 H 0.74244 0.8537 0.93787 0.0
H159 H 0.78606 0.83397 0.91674 0.0
N160 N 0.82458 0.82673 0.87684 0.0
N161 N 0.8585 0.82777 0.8386 0.0
N162 N 0.8234 0.86566 0.83862 0.0
C163 C 0.84781 0.81432 0.86421 0.0
C164 C 0.84661 0.85348 0.82574 0.0
C165 C 0.81206 0.85229 0.86409 0.0
C166 C 0.86173 0.78656 0.87813 0.0
C167 C 0.8567 0.77685 0.90766 0.0
C168 C 0.87086 0.75136 0.92082 0.0
C169 C 0.89019 0.73472 0.90472 0.0
C170 C 0.89465 0.74416 0.87502 0.0
C171 C 0.88079 0.76977 0.86199 0.0
C172 C 0.85915 0.86797 0.79803 0.0
C173 C 0.87418 0.85023 0.77902 0.0
C174 C 0.88667 0.86373 0.7532 0.0
C175 C 0.885 0.8954 0.74605 0.0
C176 C 0.87009 0.91324 0.76504 0.0
C177 C 0.85698 0.8996 0.79061 0.0
C178 C 0.78586 0.86501 0.87749 0.0
C179 C 0.77082 0.88924 0.86289 0.0
C180 C 0.56727 0.06108 0.33441 0.0
C181 C 0.55405 0.07724 0.31059 0.0
C182 C 0.54806 0.10838 0.31238 0.0
C183 C 0.5574 0.12359 0.33642 0.0
H184 H 0.55679 0.20635 0.3814 0.0
H185 H 0.5419 0.25584 0.39677 0.0
H186 H 0.59407 0.24209 0.47424 0.0
H187 H 0.60937 0.1929 0.45881 0.0
H188 H 0.66804 0.14891 0.4508 0.0
H189 H 0.71795 0.13319 0.46038 0.0
H190 H 0.71365 0.07715 0.38726 0.0
H191 H 0.66401 0.09164 0.37858 0.0
H192 H 0.58857 0.06359 0.37537 0.0
H193 H 0.57148 0.0369 0.33409 0.0
H194 H 0.538 0.12153 0.29437 0.0
H195 H 0.55421 0.14799 0.33642 0.0
N196 N 0.57889 0.15109 0.38994 0.0
N197 N 0.62136 0.15668 0.41749 0.0
N198 N 0.61549 0.11497 0.38924 0.0
C199 C 0.59484 0.16688 0.40887 0.0
C200 C 0.63192 0.13083 0.40751 0.0
C201 C 0.589 0.12474 0.3805 0.0
C202 C 0.5843 0.19582 0.41888 0.0
C203 C 0.56489 0.21378 0.40182 0.0
C204 C 0.55651 0.24212 0.41048 0.0
C205 C 0.56691 0.25264 0.43662 0.0
C206 C 0.58566 0.23434 0.45406 0.0
C207 C 0.59449 0.20631 0.44515 0.0
C208 C 0.66191 0.12126 0.41416 0.0
C209 C 0.67778 0.13306 0.43696 0.0
C210 C 0.70644 0.12424 0.4423 0.0
C211 C 0.71978 0.10369 0.42476 0.0
C212 C 0.70391 0.09236 0.40174 0.0
C213 C 0.67534 0.10081 0.39667 0.0
C214 C 0.57312 0.10793 0.3588 0.0
C215 C 0.57694 0.07632 0.35812 0.0
C216 C 0.23633 0.60223 0.15922 0.0
C217 C 0.23253 0.60497 0.12874 0.0
C218 C 0.25524 0.61841 0.11112 0.0
C219 C 0.28065 0.62932 0.1236 0.0
H220 H 0.33417 0.71037 0.11667 0.0
H221 H 0.3598 0.75523 0.0936 0.0
H222 H 0.43054 0.74085 0.15422 0.0
H223 H 0.40465 0.69659 0.17782 0.0
H224 H 0.39305 0.65608 0.23472 0.0
H225 H 0.41321 0.63298 0.27953 0.0
H226 H 0.34554 0.56277 0.28354 0.0
H227 H 0.32476 0.5863 0.23855 0.0
H228 H 0.26423 0.6103 0.19517 0.0
H229 H 0.21927 0.59257 0.17365 0.0
H230 H 0.25364 0.62027 0.08758 0.0
H231 H 0.29761 0.63962 0.10935 0.0
N232 N 0.32638 0.66217 0.15275 0.0
N233 N 0.36063 0.66063 0.19023 0.0
N234 N 0.321 0.62589 0.19304 0.0
C235 C 0.35107 0.67348 0.16432 0.0
C236 C 0.34586 0.63686 0.20475 0.0
C237 C 0.31123 0.63843 0.16696 0.0
C238 C 0.36722 0.69991 0.14925 0.0
C239 C 0.35524 0.71668 0.12504 0.0
C240 C 0.37003 0.74235 0.11168 0.0
C241 C 0.39721 0.75176 0.12211 0.0
C242 C 0.40942 0.73462 0.14595 0.0
C243 C 0.39459 0.70908 0.1594 0.0
C244 C 0.35731 0.62298 0.23278 0.0
C245 C 0.3823 0.63574 0.24502 0.0
C246 C 0.39404 0.62236 0.27072 0.0
C247 C 0.38122 0.5958 0.28493 0.0
C248 C 0.35586 0.58331 0.27315 0.0
C249 C 0.34404 0.59674 0.2473 0.0
C250 C 0.28436 0.62647 0.15397 0.0
C251 C 0.26207 0.61256 0.17165 0.0
C252 C 0.06457 0.28925 0.55656 0.0
C253 C 0.03615 0.27888 0.56405 0.0
C254 C 0.01849 0.29778 0.5796 0.0
C255 C 0.02909 0.32623 0.58747 0.0
H256 H 0.03733 0.37971 0.6647 0.0
H257 H 0.02851 0.40044 0.71152 0.0
H258 H 0.06788 0.48689 0.67847 0.0
H259 H 0.07742 0.46594 0.63212 0.0
H260 H 0.13853 0.45457 0.59805 0.0
H261 H 0.18824 0.46833 0.5837 0.0
H262 H 0.18816 0.39545 0.52582 0.0
H263 H 0.13856 0.38109 0.54065 0.0
H264 H 0.09704 0.32458 0.55797 0.0
H265 H 0.07925 0.27514 0.54541 0.0
H266 H 0.99643 0.29075 0.58556 0.0
H267 H 0.015 0.34023 0.59948 0.0
N268 N 0.05724 0.38043 0.61036 0.0
N269 N 0.09369 0.41889 0.60517 0.0
N270 N 0.09386 0.37857 0.5749 0.0
C271 C 0.06929 0.40694 0.61882 0.0
C272 C 0.10613 0.40493 0.58319 0.0
C273 C 0.06933 0.36627 0.58814 0.0
C274 C 0.05852 0.42101 0.64487 0.0
C275 C 0.04353 0.40333 0.66724 0.0
C276 C 0.03843 0.41526 0.69409 0.0
C277 C 0.04802 0.44516 0.69896 0.0
C278 C 0.06094 0.46351 0.67574 0.0
C279 C 0.06626 0.45154 0.64909 0.0
C280 C 0.1346 0.41634 0.57092 0.0
C281 C 0.14888 0.44167 0.58194 0.0
C282 C 0.17741 0.44976 0.57355 0.0
C283 C 0.19233 0.43276 0.55387 0.0
C284 C 0.17746 0.40863 0.54147 0.0
C285 C 0.14893 0.4005 0.54989 0.0
C286 C 0.05744 0.33651 0.57968 0.0
C287 C 0.07494 0.3177 0.56401 0.0
Co288 Co 0.99176 0.00588 0.50531 0.0
C289 C 0.01906 0.94884 0.50403 0.0
Co290 Co 0.03398 1.00175 0.52719 0.0
C291 C 0.93947 0.02796 0.4753 0.0
C292 C 0.94001 0.97924 0.48381 0.0
N293 N 0.95607 0.005 0.48671 0.0
N294 N 0.91395 0.01731 0.4652 0.0
C295 C 0.91436 0.98669 0.4705 0.0
H296 H 0.94568 0.05197 0.47488 0.0
H297 H 0.94593 0.9564 0.49188 0.0
C298 C 1.00751 0.05919 0.52752 0.0
N299 N 0.06906 1.0021 0.54635 0.0
C300 C 0.09501 0.99166 0.53842 0.0
C301 C 0.07393 0.01445 0.57182 0.0
N302 N 0.11594 0.99703 0.55804 0.0
C303 C 0.10263 0.01142 0.57904 0.0
C304 C 0.03818 0.02265 0.46832 0.0
O305 O 0.98591 0.04653 0.51579 0.0
O306 O 0.02999 0.04374 0.53352 0.0
O307 O 0.05296 0.01377 0.49067 0.0
O308 O 0.01056 0.02193 0.47012 0.0
O309 O 0.03806 0.9597 0.52052 0.0
H310 H 0.05768 0.02539 0.58417 0.0
H311 H 0.09835 0.98031 0.51869 0.0
O312 O 0.99842 0.96558 0.49484 0.0
O313 O 0.97307 0.98974 0.54048 0.0
O314 O 0.01457 0.98974 0.56345 0.0
C315 C 0.98725 0.98485 0.56394 0.0
H316 H 0.8967 0.97088 0.46642 0.0
H317 H 0.11294 0.01988 0.598 0.0
Co318 Co 0.49797 0.99463 0.9889 0.0
C319 C 0.49099 0.94569 0.03086 0.0
Co320 Co 0.52239 1.00022 0.02928 0.0
C321 C 0.4866 0.99198 0.92766 0.0
C322 C 0.44843 0.98218 0.9538 0.0
N323 N 0.47693 0.98956 0.95549 0.0
N324 N 0.46526 0.98643 0.90864 0.0
C325 C 0.44117 0.98032 0.92502 0.0
H326 H 0.50887 0.99784 0.92149 0.0
H327 H 0.43394 0.97805 0.97234 0.0
C328 C 0.52935 0.04916 0.98727 0.0
N329 N 0.54351 0.0054 0.06267 0.0
C330 C 0.53356 0.00583 0.09027 0.0
C331 C 0.57235 0.01097 0.06436 0.0
N332 N 0.55505 0.01148 0.10908 0.0
C333 C 0.57953 0.0146 0.09287 0.0
C334 C 0.55379 0.97188 0.98728 0.0
O335 O 0.51208 0.03333 0.97272 0.0
O336 O 0.53665 0.03888 0.01275 0.0
O337 O 0.55465 0.98075 0.0129 0.0
O338 O 0.53064 0.97556 0.97259 0.0
O339 O 0.50798 0.96162 0.04564 0.0
H340 H 0.58714 0.01301 0.04594 0.0
H341 H 0.51095 1.00228 0.09642 0.0
O342 O 0.48401 0.95587 1.00525 0.0
O343 O 0.46544 0.01381 1.00548 0.0
O344 O 0.48996 0.01956 0.04539 0.0
C345 C 0.4666 0.02294 0.03101 0.0
H346 H 0.41999 0.97417 0.91686 0.0
H347 H 0.60091 0.02025 0.10086 0.0
Co348 Co 0.52773 0.51939 0.5081 0.0
C349 C 0.48006 0.5218 0.47036 0.0
Co350 Co 0.48647 0.50086 0.52786 0.0
C351 C 0.58914 0.53131 0.49561 0.0
C352 C 0.56144 0.56153 0.47027 0.0
N353 N 0.56091 0.53767 0.49077 0.0
N354 N 0.60706 0.55006 0.47868 0.0
C355 C 0.58972 0.56901 0.46265 0.0
H356 H 0.59642 0.51317 0.51104 0.0
H357 H 0.54247 0.57305 0.46158 0.0
C358 C 0.53417 0.49828 0.56553 0.0
N359 N 0.45327 0.48245 0.54509 0.0
C360 C 0.42504 0.48748 0.53887 0.0
C361 C 0.45284 0.45785 0.56472 0.0
N362 N 0.40714 0.46669 0.55356 0.0
C363 C 0.42461 0.44818 0.56997 0.0
C364 C 0.52047 0.45844 0.50153 0.0
O365 O 0.54818 0.51017 0.54345 0.0
O366 O 0.50707 0.4929 0.56333 0.0
O367 O 0.4973 0.46222 0.51577 0.0
O368 O 0.53767 0.48114 0.49524 0.0
O369 O 0.46622 0.50911 0.49219 0.0
H370 H 0.47191 0.44681 0.57376 0.0
H371 H 0.41785 0.50501 0.52277 0.0
O372 O 0.50692 0.52818 0.47292 0.0
O373 O 0.51754 0.55756 0.52102 0.0
O374 O 0.47601 0.53964 0.53978 0.0
C375 C 0.49396 0.56192 0.53435 0.0
H376 H 0.59703 0.58738 0.44699 0.0
H377 H 0.41755 0.42858 0.58431 0.0
Co378 Co 0.02501 0.496 0.98902 0.0
C379 C 0.97041 0.4681 0.98662 0.0
Co380 Co 1.00005 0.49594 0.03007 0.0
C381 C 0.03509 0.49645 0.92708 0.0
C382 C 0.07465 0.49346 0.95128 0.0
N383 N 0.04572 0.49611 0.95442 0.0
N384 N 0.05617 0.49384 0.90702 0.0
C385 C 0.08114 0.49215 0.9222 0.0
H386 H 0.01222 0.49808 0.92206 0.0
H387 H 0.08994 0.49156 0.96909 0.0
C388 C 0.05454 0.52388 0.03259 0.0
N389 N 0.97945 0.49494 0.06473 0.0
C390 C 0.97948 0.5156 0.08497 0.0
C391 C 0.96299 0.47118 0.07637 0.0
N392 N 0.96386 0.50556 0.10897 0.0
C393 C 0.95342 0.47759 0.10344 0.0
C394 C 0.03489 0.44504 0.02735 0.0
O395 O 0.05608 0.51764 1.00614 0.0
O396 O 0.03167 0.5164 0.04724 0.0
O397 O 0.01649 0.45778 0.04276 0.0
O398 O 0.04191 0.45786 1.00243 0.0
O399 O 0.96865 0.47542 0.01269 0.0
H400 H 0.95913 0.45 0.06628 0.0
H401 H 0.99132 0.53727 0.08229 0.0
O402 O 0.99366 0.47448 0.97225 0.0
O403 O 1.00805 0.53399 0.97597 0.0
O404 O 0.98368 0.53425 0.01708 0.0
C405 C 0.99013 0.54688 0.9919 0.0
H406 H 0.10243 0.4888 0.91313 0.0
H407 H 0.94083 0.46209 0.11834 0.0
H408 H 0.15231 0.0507 0.31681 0.0
H409 H 0.0155 0.05756 0.42232 0.0
H410 H 0.09079 0.12375 0.30843 0.0
H411 H 0.09438 0.01371 0.45113 0.0
H412 H 0.04007 0.0766 0.37693 0.0
H413 H 0.12916 0.03199 0.36304 0.0
C414 C 0.13413 0.063 0.32458 0.0
C415 C 0.12356 0.0889 0.30822 0.0
C416 C 0.05201 0.06283 0.39319 0.0
C417 C 0.09645 0.06687 0.36102 0.0
C418 C 0.03796 0.05184 0.41907 0.0
C419 C 0.0529 0.03403 0.44061 0.0
C420 C 0.0811 0.05556 0.38848 0.0
C421 C 0.08206 0.02746 0.43518 0.0
C422 C 0.12082 0.05213 0.35098 0.0
C423 C 0.09946 0.1033 0.31956 0.0
N424 N 0.09516 0.03804 0.40957 0.0
N425 N 0.08667 0.092 0.34502 0.0
H426 H 0.51686 0.94428 0.73655 0.0
H427 H 0.42369 0.9996 0.8685 0.0
H428 H 0.43132 0.9819 0.7273 0.0
H429 H 0.51251 0.97155 0.87773 0.0
H430 H 0.42718 0.99516 0.81609 0.0
H431 H 0.51701 0.95612 0.78772 0.0
C432 C 0.49824 0.95525 0.74519 0.0
C433 C 0.47404 0.96207 0.72759 0.0
C434 C 0.44602 0.99015 0.8295 0.0
C435 C 0.47402 0.97558 0.78603 0.0
C436 C 0.44394 0.99252 0.85946 0.0
C437 C 0.46776 0.98572 0.87751 0.0
C438 C 0.47203 0.98062 0.81746 0.0
C439 C 0.49368 0.97717 0.86457 0.0
C440 C 0.49837 0.96209 0.77435 0.0
C441 C 0.45062 0.97656 0.73987 0.0
N442 N 0.49506 0.97459 0.83534 0.0
N443 N 0.45112 0.98258 0.76833 0.0
H444 H 0.66074 0.43822 0.69545 0.0
H445 H 0.50965 0.47709 0.61762 0.0
H446 H 0.57702 0.42468 0.73764 0.0
H447 H 0.59281 0.4991 0.57653 0.0
H448 H 0.53446 0.45948 0.66229 0.0
H449 H 0.63691 0.46255 0.65239 0.0
C450 C 0.6374 0.44063 0.6958 0.0
C451 C 0.62084 0.4291 0.72013 0.0
C452 C 0.54734 0.46832 0.6436 0.0
C453 C 0.59341 0.45661 0.67082 0.0
C454 C 0.53316 0.47838 0.61803 0.0
C455 C 0.54917 0.48948 0.59322 0.0
C456 C 0.57783 0.4691 0.64445 0.0
C457 C 0.5796 0.49069 0.59513 0.0
C458 C 0.6238 0.45439 0.67115 0.0
C459 C 0.59063 0.43264 0.7192 0.0
N460 N 0.59297 0.48041 0.62025 0.0
N461 N 0.57792 0.4459 0.69494 0.0
H462 H 0.92849 0.53182 0.28737 0.0
H463 H 0.99751 0.55205 0.12839 0.0
H464 H 0.97412 0.61542 0.25611 0.0
H465 H 0.92366 0.49228 0.15187 0.0
H466 H 0.99394 0.57318 0.17586 0.0
H467 H 0.93223 0.51369 0.23899 0.0
C468 C 0.93916 0.54652 0.27031 0.0
C469 C 0.95056 0.57549 0.27583 0.0
C470 C 0.97852 0.55551 0.17042 0.0
C471 C 0.95548 0.55436 0.22026 0.0
C472 C 0.9804 0.54347 0.14324 0.0
C473 C 0.96105 0.51995 0.136 0.0
C474 C 0.95738 0.54371 0.1906 0.0
C475 C 0.93954 0.50975 0.15651 0.0
C476 C 0.94137 0.53605 0.24267 0.0
C477 C 0.96508 0.59291 0.25295 0.0
N478 N 0.93847 0.52148 0.18287 0.0
N479 N 0.96712 0.58208 0.2261 0.0
H480 H 0.34204 0.0912 0.15114 0.0
H481 H 0.41397 0.03597 1.00563 0.0
H482 H 0.29923 0.09589 0.06768 0.0
H483 H 0.46022 0.04038 0.08668 0.0
H484 H 0.37138 0.05672 0.0283 0.0
H485 H 0.38491 0.071 0.12842 0.0
C486 C 0.34156 0.08786 0.12807 0.0
C487 C 0.31688 0.09535 0.11135 0.0
C488 C 0.39087 0.05324 0.04112 0.0
C489 C 0.36614 0.07233 0.08506 0.0
C490 C 0.41524 0.04138 0.02817 0.0
C491 C 0.44082 0.03643 0.04421 0.0
C492 C 0.39189 0.06009 0.07045 0.0
C493 C 0.44105 0.04386 0.07339 0.0
C494 C 0.36615 0.07649 0.11506 0.0
C495 C 0.3178 0.09086 0.08142 0.0
N496 N 0.41699 0.05521 0.08555 0.0
N497 N 0.34192 0.07961 0.06931 0.0
H498 H 0.28883 0.94534 0.50893 0.0
H499 H 0.15335 0.99084 0.60342 0.0
H500 H 0.29493 0.97507 0.59595 0.0
H501 H 0.14815 0.98618 0.51013 0.0
H502 H 0.20484 0.98092 0.60116 0.0
H503 H 0.2368 0.95657 0.50882 0.0
C504 C 0.27928 0.95441 0.52788 0.0
C505 C 0.29626 0.95948 0.55241 0.0
C506 C 0.19249 0.98215 0.58112 0.0
C507 C 0.23702 0.97197 0.55256 0.0
C508 C 0.163 0.98795 0.58238 0.0
C509 C 0.14627 0.98973 0.55689 0.0
C510 C 0.20556 0.9778 0.55422 0.0
C511 C 0.16006 0.98485 0.53038 0.0
C512 C 0.24968 0.96085 0.52778 0.0
C513 C 0.28284 0.9713 0.57638 0.0
N514 N 0.18896 0.97912 0.52972 0.0
N515 N 0.25404 0.97694 0.5759 0.0
H516 H 0.80006 0.3932 0.95151 0.0
H517 H 0.96425 0.45551 0.92946 0.0
H518 H 0.84185 0.40774 0.86723 0.0
H519 H 0.91874 0.44871 0.01207 0.0
H520 H 0.92087 0.43505 0.90655 0.0
H521 H 0.84452 0.41068 0.97428 0.0
C522 C 0.81867 0.3999 0.93779 0.0
C523 C 0.81723 0.39892 0.9074 0.0
C524 C 0.92043 0.43795 0.9297 0.0
C525 C 0.86827 0.41926 0.93337 0.0
C526 C 0.94523 0.44952 0.94283 0.0
C527 C 0.94511 0.4539 0.97274 0.0
C528 C 0.89538 0.43062 0.94662 0.0
C529 C 0.91981 0.44581 0.98894 0.0
C530 C 0.84403 0.41004 0.95081 0.0
C531 C 0.8419 0.40841 0.8907 0.0
N532 N 0.89599 0.43462 0.97567 0.0
N533 N 0.86643 0.41813 0.90391 0.0
H534 H 0.78763 0.58314 0.51698 0.0
H535 H 0.64097 0.55934 0.43093 0.0
H536 H 0.78477 0.56073 0.42737 0.0
H537 H 0.64393 0.54249 0.52444 0.0
H538 H 0.69392 0.56406 0.42959 0.0
H539 H 0.73496 0.5723 0.52096 0.0
C540 C 0.77598 0.57575 0.49828 0.0
C541 C 0.79058 0.57265 0.47187 0.0
C542 C 0.68308 0.55909 0.45043 0.0
C543 C 0.73072 0.56066 0.47614 0.0
C544 C 0.65291 0.55654 0.45117 0.0
C545 C 0.63824 0.55057 0.47781 0.0
C546 C 0.69874 0.55625 0.47659 0.0
C547 C 0.65461 0.54689 0.50347 0.0
C548 C 0.74606 0.56944 0.5006 0.0
C549 C 0.7745 0.56299 0.44828 0.0
N550 N 0.6841 0.55016 0.5023 0.0
N551 N 0.74547 0.55762 0.4509 0.0
H552 H 0.09766 0.29607 0.14294 0.0
H553 H 0.0737 0.40966 1.00013 0.0
H554 H 0.13252 0.27947 0.05853 0.0
H555 H 0.02773 0.41504 0.08145 0.0
H556 H 0.09724 0.36336 0.02109 0.0
H557 H 0.07379 0.34109 0.12083 0.0
C558 C 0.10015 0.30167 0.11969 0.0
C559 C 0.11705 0.28359 0.10262 0.0
C560 C 0.08192 0.37465 0.03427 0.0
C561 C 0.08998 0.33588 0.0771 0.0
C562 C 0.06846 0.40109 0.02233 0.0
C563 C 0.04866 0.41633 0.03902 0.0
C564 C 0.07572 0.36348 0.0632 0.0
C565 C 0.04279 0.40412 0.06769 0.0
C566 C 0.08659 0.32759 0.10708 0.0
C567 C 0.11999 0.29275 0.07269 0.0
N568 N 0.0563 0.37859 0.07884 0.0
N569 N 0.1066 0.31821 0.06091 0.0
H570 H 0.62289 0.22255 0.95642 0.0
H571 H 0.52224 0.07543 0.93177 0.0
H572 H 0.59128 0.20077 0.8721 0.0
H573 H 0.56432 0.09026 0.01334 0.0
H574 H 0.54412 0.12347 0.91041 0.0
H575 H 0.59865 0.17611 0.97842 0.0
C576 C 0.61096 0.20797 0.94248 0.0
C577 C 0.60927 0.21558 0.9123 0.0
C578 C 0.54852 0.11625 0.933 0.0
C579 C 0.5811 0.1625 0.93748 0.0
C580 C 0.53597 0.08885 0.94524 0.0
C581 C 0.54151 0.07876 0.97438 0.0
C582 C 0.56666 0.13377 0.95003 0.0
C583 C 0.55951 0.0971 0.99077 0.0
C584 C 0.59699 0.18152 0.95511 0.0
C585 C 0.59294 0.19607 0.89549 0.0
N586 N 0.57146 0.12369 0.97836 0.0
N587 N 0.57956 0.17043 0.90829 0.0
H588 H 0.98905 0.78616 0.41486 0.0
H589 H 0.0431 0.89847 0.53352 0.0
H590 H 1.00351 0.75396 0.50467 0.0
H591 H 0.99671 0.92724 0.45513 0.0
H592 H 0.03918 0.84515 0.52023 0.0
H593 H 1.00296 0.83784 0.42631 0.0
C594 C 0.99561 0.78986 0.43692 0.0
C595 C 0.99502 0.7657 0.45887 0.0
C596 C 0.03014 0.86327 0.5059 0.0
C597 C 0.01067 0.82502 0.47219 0.0
C598 C 0.03251 0.89361 0.51337 0.0
C599 C 0.02002 0.91716 0.49548 0.0
C600 C 0.01572 0.85678 0.48015 0.0
C601 C 1.0064 0.90971 0.46968 0.0
C602 C 1.00333 0.81943 0.44348 0.0
C603 C 1.00335 0.77202 0.48718 0.0
N604 N 1.00462 0.88023 0.46281 0.0
N605 N 0.01076 0.80114 0.49308 0.0
H606 H 0.50914 0.7521 0.56888 0.0
H607 H 0.44302 0.58306 0.55574 0.0
H608 H 0.41747 0.72995 0.57655 0.0
H609 H 0.53119 0.61123 0.53272 0.0
H610 H 0.43376 0.63531 0.56828 0.0
H611 H 0.51823 0.69884 0.56069 0.0
C612 C 0.49095 0.73595 0.56906 0.0
C613 C 0.46251 0.74547 0.5733 0.0
C614 C 0.45512 0.62995 0.56053 0.0
C615 C 0.4727 0.68448 0.5637 0.0
C616 C 0.46043 0.60016 0.55345 0.0
C617 C 0.48786 0.59283 0.54305 0.0
C618 C 0.47749 0.65239 0.55738 0.0
C619 C 0.50965 0.61587 0.54049 0.0
C620 C 0.49611 0.70558 0.5642 0.0
C621 C 0.4397 0.72363 0.57297 0.0
N622 N 0.50398 0.64455 0.54759 0.0
N623 N 0.44528 0.69412 0.56824 0.0
H624 H 0.87867 0.8785 0.69048 0.0
H625 H 1.00575 0.987 0.62046 0.0
H626 H 0.92342 0.94429 0.7401 0.0
H627 H 0.93431 0.95531 0.56948 0.0
H628 H 0.98021 0.96636 0.66505 0.0
H629 H 0.90316 0.90116 0.64611 0.0
C630 C 0.89367 0.89774 0.69198 0.0
C631 C 0.899 0.90962 0.71893 0.0
C632 C 0.97015 0.96406 0.64408 0.0
C633 C 0.92739 0.93532 0.66843 0.0
C634 C 0.98473 0.9757 0.61864 0.0
C635 C 0.97212 0.97292 0.5912 0.0
C636 C 0.94307 0.94893 0.64201 0.0
C637 C 0.94479 0.9581 0.59016 0.0
C638 C 0.90753 0.91071 0.66669 0.0
C639 C 0.91856 0.93463 0.71968 0.0
N640 N 0.93132 0.94644 0.61515 0.0
N641 N 0.93228 0.94648 0.69485 0.0
H642 H 0.5089 0.08306 0.27133 0.0
H643 H 0.59481 0.99875 0.15103 0.0
H644 H 0.591 0.03898 0.28587 0.0
H645 H 0.50925 0.03462 0.13664 0.0
H646 H 0.5919 0.01064 0.20182 0.0
H647 H 0.50659 0.06303 0.22309 0.0
C648 C 0.52627 0.06896 0.26453 0.0
C649 C 0.55016 0.0627 0.28274 0.0
C650 C 0.57361 0.01572 0.18768 0.0
C651 C 0.54769 0.03981 0.2277 0.0
C652 C 0.57536 0.00905 0.15865 0.0
C653 C 0.55237 0.01594 0.13959 0.0
C654 C 0.54878 0.02974 0.19773 0.0
C655 C 0.52741 0.02881 0.15068 0.0
C656 C 0.52489 0.05745 0.23706 0.0
C657 C 0.57192 0.04407 0.27288 0.0
N658 N 0.52639 0.03562 0.17899 0.0
N659 N 0.57026 0.03354 0.24603 0.0
H660 H 0.3544 0.57106 0.33538 0.0
H661 H 0.50484 0.54376 0.41869 0.0
H662 H 0.43892 0.58729 0.29547 0.0
H663 H 0.42168 0.51815 0.45823 0.0
H664 H 0.48047 0.55885 0.37315 0.0
H665 H 0.37793 0.55017 0.38016 0.0
C666 C 0.37786 0.56998 0.33593 0.0
C667 C 0.39472 0.58128 0.31173 0.0
C668 C 0.46748 0.54982 0.39169 0.0
C669 C 0.42174 0.55771 0.36289 0.0
C670 C 0.48141 0.54121 0.41778 0.0
C671 C 0.46528 0.52976 0.44238 0.0
C672 C 0.43708 0.54719 0.39008 0.0
C673 C 0.43497 0.52689 0.4398 0.0
C674 C 0.39127 0.55819 0.36153 0.0
C675 C 0.42505 0.57948 0.31376 0.0
N676 N 0.42181 0.53572 0.41413 0.0
N677 N 0.43753 0.56811 0.33888 0.0
H678 H 0.08978 0.47849 0.72531 0.0
H679 H 0.0089 0.47096 0.87995 0.0
H680 H 1.00479 0.43642 0.74077 0.0
H681 H 0.09544 0.50862 0.86383 0.0
H682 H 1.00487 0.46222 0.82828 0.0
H683 H 0.08997 0.4938 0.77493 0.0
C684 C 0.0709 0.47285 0.73898 0.0
C685 C 0.04716 0.45619 0.7287 0.0
C686 C 0.02468 0.47255 0.83603 0.0
C687 C 0.04757 0.47317 0.78612 0.0
C688 C 0.02693 0.47775 0.86552 0.0
C689 C 0.05265 0.49043 0.87631 0.0
C690 C 0.04827 0.48014 0.81717 0.0
C691 C 0.07542 0.49837 0.85659 0.0
C692 C 0.07116 0.4814 0.76749 0.0
C693 C 0.02368 0.44896 0.74781 0.0
N694 N 0.07272 0.49301 0.82804 0.0
N695 N 0.02451 0.4574 0.77564 0.0
H696 H 0.72435 0.89855 0.95949 0.0
H697 H 0.56156 0.95512 0.93147 0.0
H698 H 0.68423 0.90491 0.87468 0.0
H699 H 0.60551 0.95794 0.01395 0.0
H700 H 0.60528 0.93438 0.91076 0.0
H701 H 0.6801 0.91783 0.98024 0.0
C702 C 0.7062 0.90384 0.94522 0.0
C703 C 0.70814 0.90005 0.91523 0.0
C704 C 0.60534 0.93949 0.9334 0.0
C705 C 0.65723 0.92242 0.93894 0.0
C706 C 0.58033 0.95127 0.94528 0.0
C707 C 0.57978 0.95832 0.97454 0.0
C708 C 0.63003 0.93456 0.95089 0.0
C709 C 0.60487 0.9529 0.9913 0.0
C710 C 0.68095 0.91503 0.95708 0.0
C711 C 0.68394 0.90777 0.89783 0.0
N712 N 0.62888 0.94137 0.97926 0.0
N713 N 0.65954 0.91849 0.90992 0.0
H714 H 0.76725 0.13725 0.44231 0.0
H715 H 0.87532 1.00021 0.42552 0.0
H716 H 0.7412 0.0467 0.4201 0.0
H717 H 0.89636 0.07275 0.48044 0.0
H718 H 0.82904 0.02387 0.4139 0.0
H719 H 0.81711 0.11946 0.44935 0.0
C720 C 0.7719 0.11368 0.43902 0.0
C721 C 0.74995 0.09354 0.4303 0.0
C722 C 0.84383 0.03478 0.42835 0.0
C723 C 0.80686 0.0735 0.43755 0.0
C724 C 0.87024 0.02132 0.43493 0.0
C725 C 0.88939 0.03425 0.45437 0.0
C726 C 0.83641 0.06145 0.44128 0.0
C727 C 0.88211 0.06205 0.4654 0.0
C728 C 0.80036 0.10368 0.44284 0.0
C729 C 0.75739 0.06334 0.42607 0.0
N730 N 0.85593 0.07464 0.45895 0.0
N731 N 0.78516 0.05435 0.42959 0.0
H732 H 0.1968 0.55583 0.14781 0.0
H733 H 0.09994 0.55705 1.00636 0.0
H734 H 0.20535 0.62855 0.07877 0.0
H735 H 0.06645 0.52265 0.09078 0.0
H736 H 0.14262 0.57818 0.03025 0.0
H737 H 0.15234 0.53807 0.12514 0.0
C738 C 0.18936 0.56831 0.12809 0.0
C739 C 0.20516 0.59385 0.11531 0.0
C740 C 0.1258 0.56616 0.04348 0.0
C741 C 0.15459 0.57282 0.0888 0.0
C742 C 0.10153 0.55405 0.0299 0.0
C743 C 0.07964 0.53814 0.04664 0.0
C744 C 0.12847 0.56166 0.0739 0.0
C745 C 0.08277 0.5349 0.07708 0.0
C746 C 0.16401 0.55797 0.1151 0.0
C747 C 0.19449 0.6084 0.08923 0.0
N748 N 0.10691 0.54627 0.08973 0.0
N749 N 0.17006 0.59753 0.07673 0.0
H750 H 0.23422 0.39014 0.55028 0.0
H751 H 0.36784 0.51103 0.54073 0.0
H752 H 0.22274 0.48785 0.54618 0.0
H753 H 0.37583 0.41349 0.55855 0.0
H754 H 0.315 0.50357 0.53668 0.0
H755 H 0.2865 0.39891 0.54656 0.0
C756 C 0.24263 0.4135 0.54811 0.0
C757 C 0.22396 0.43829 0.5486 0.0
C758 C 0.32839 0.48384 0.54143 0.0
C759 C 0.28416 0.44851 0.54499 0.0
C760 C 0.35849 0.48808 0.54363 0.0
C761 C 0.3762 0.46288 0.55033 0.0
C762 C 0.31604 0.45416 0.54566 0.0
C763 C 0.36299 0.43363 0.55398 0.0
C764 C 0.27259 0.41849 0.54629 0.0
C765 C 0.23633 0.46804 0.54627 0.0
N766 N 0.33378 0.4301 0.55162 0.0
N767 N 0.26568 0.47234 0.5447 0.0
H768 H 0.9457 0.7164 0.89368 0.0
H769 H 0.94344 0.57471 0.01484 0.0
H770 H 0.87074 0.69145 0.94797 0.0
H771 H 1.00473 0.58456 0.94329 0.0
H772 H 0.91946 0.62098 0.99465 0.0
H773 H 0.97028 0.67156 0.91539 0.0
C774 C 0.93423 0.70147 0.91 0.0
C775 C 0.90582 0.70782 0.91868 0.0
C776 C 0.93819 0.61303 0.98343 0.0
C777 C 0.93442 0.6565 0.94426 0.0
C778 C 0.95198 0.58669 0.995 0.0
C779 C 0.97615 0.57566 0.98073 0.0
C780 C 0.94881 0.62872 0.95757 0.0
C781 C 0.98615 0.59212 0.95501 0.0
C782 C 0.94844 0.6759 0.92254 0.0
C783 C 0.89266 0.68787 0.94067 0.0
N784 N 0.9725 0.61781 0.94432 0.0
N785 N 0.90704 0.66317 0.95267 0.0
H786 H 0.42821 0.79535 0.14942 0.0
H787 H 0.45757 0.90406 1.00381 0.0
H788 H 0.401 0.77213 0.06405 0.0
H789 H 0.49624 0.91987 0.08681 0.0
H790 H 0.43587 0.85616 0.02562 0.0
H791 H 0.45261 0.84142 0.12702 0.0
C792 C 0.42756 0.79975 0.12593 0.0
C793 C 0.4125 0.77971 0.10862 0.0
C794 C 0.44921 0.87003 0.03904 0.0
C795 C 0.44007 0.83286 0.08284 0.0
C796 C 0.46159 0.89742 0.02661 0.0
C797 C 0.47873 0.91604 0.04353 0.0
C798 C 0.45379 0.86126 0.06867 0.0
C799 C 0.4832 0.90622 0.07294 0.0
C800 C 0.4414 0.8262 0.11317 0.0
C801 C 0.41197 0.78707 0.07833 0.0
N802 N 0.4707 0.87958 0.0846 0.0
N803 N 0.42548 0.81306 0.06643 0.0
H804 H 0.99943 0.23706 0.59515 0.0
H805 H 0.05376 0.09779 0.51928 0.0
H806 H 0.04896 0.24999 0.51491 0.0
H807 H 0.96341 0.09551 0.54459 0.0
H808 H 0.05633 0.15254 0.52576 0.0
H809 H 0.98804 0.18421 0.58415 0.0
C810 C 1.00757 0.22912 0.57506 0.0
C811 C 0.02578 0.24804 0.55627 0.0
C812 C 0.03592 0.14007 0.52982 0.0
C813 C 0.01338 0.18751 0.5442 0.0
C814 C 0.03447 0.10887 0.52633 0.0
C815 C 1.00834 0.09222 0.53148 0.0
C816 C 0.01131 0.15466 0.53933 0.0
C817 C 0.98391 0.1077 0.54035 0.0
C818 C 1.00109 0.19893 0.56892 0.0
C819 C 0.03577 0.23613 0.53066 0.0
N820 N 0.98606 0.13816 0.54446 0.0
N821 N 0.02994 0.20652 0.5257 0.0
H822 H 0.57088 0.30743 0.40409 0.0
H823 H 0.49781 0.40315 0.52333 0.0
H824 H 0.54519 0.2667 0.48906 0.0
H825 H 0.55784 0.44441 0.45847 0.0
H826 H 0.50846 0.35273 0.5072 0.0
H827 H 0.55938 0.358 0.41974 0.0
C828 C 0.56259 0.30919 0.42595 0.0
C829 C 0.55894 0.28303 0.44537 0.0
C830 C 0.51932 0.37284 0.49658 0.0
C831 C 0.54574 0.34041 0.46328 0.0
C832 C 0.5132 0.40159 0.50567 0.0
C833 C 0.52703 0.42794 0.49222 0.0
C834 C 0.53898 0.37052 0.47354 0.0
C835 C 0.54684 0.42462 0.46951 0.0
C836 C 0.55625 0.33796 0.43491 0.0
C837 C 0.54842 0.28643 0.47355 0.0
N838 N 0.55209 0.3964 0.46072 0.0
N839 N 0.54202 0.31463 0.48164 0.0
loop_
_geom_bond_atom_site_label_1
_geom_bond_atom_site_label_2
_geom_bond_distance
_geom_bond_site_symmetry_2
_ccdc_geom_bond_type
C0 C1 1.384 . S
C0 H13 0.947 . S
C0 C35 1.382 . S
C1 C0 1.384 . S
C1 C2 1.378 . S
C2 C1 1.378 . S
C2 C3 1.378 . S
C2 H14 0.952 . S
C3 C2 1.378 . S
C3 H15 0.950 . S
C3 C34 1.383 . S
H4 C23 0.947 . S
H5 C24 0.946 . S
H6 C26 0.953 . S
H7 C27 0.945 . S
H8 C29 0.952 . S
H9 C30 0.949 . S
H10 C32 0.950 . S
H11 C33 0.948 . S
H12 C35 0.951 . S
H13 C0 0.947 . S
H14 C2 0.952 . S
H15 C3 0.950 . S
N16 C19 1.382 . S
N16 C21 1.363 . S
N17 C19 1.371 . S
N17 C20 1.372 . S
N18 C20 1.361 . S
N18 C21 1.377 . S
C19 N16 1.382 . S
C19 N17 1.371 . S
C19 C22 1.480 . S
C20 N17 1.372 . S
C20 N18 1.361 . S
C20 C28 1.457 . S
C21 N16 1.363 . S
C21 N18 1.377 . S
C21 C34 1.479 . S
C22 C19 1.480 . S
C22 C23 1.383 . S
C22 C27 1.385 . S
C23 H4 0.947 . S
C23 C22 1.383 . S
C23 C24 1.388 . S
C24 H5 0.946 . S
C24 C23 1.388 . S
C24 C25 1.384 . S
C25 C24 1.384 . S
C25 C26 1.377 . S
C26 H6 0.953 . S
C26 C25 1.377 . S
C26 C27 1.369 . S
C27 H7 0.945 . S
C27 C22 1.385 . S
C27 C26 1.369 . S
C28 C20 1.457 . S
C28 C29 1.372 . S
C28 C33 1.364 . S
C29 H8 0.952 . S
C29 C28 1.372 . S
C29 C30 1.389 . S
C30 H9 0.949 . S
C30 C29 1.389 . S
C30 C31 1.387 . S
C31 C30 1.387 . S
C31 C32 1.372 . S
C32 H10 0.950 . S
C32 C31 1.372 . S
C32 C33 1.379 . S
C33 H11 0.948 . S
C33 C28 1.364 . S
C33 C32 1.379 . S
C34 C3 1.383 . S
C34 C21 1.479 . S
C34 C35 1.398 . S
C35 C0 1.382 . S
C35 H12 0.951 . S
C35 C34 1.398 . S
C36 C37 1.384 . S
C36 H49 0.947 . S
C36 C71 1.382 . S
C37 C36 1.384 . S
C37 C38 1.378 . S
C38 C37 1.378 . S
C38 C39 1.378 . S
C38 H50 0.952 . S
C39 C38 1.378 . S
C39 H51 0.950 . S
C39 C70 1.383 . S
H40 C59 0.947 . S
H41 C60 0.946 . S
H42 C62 0.953 . S
H43 C63 0.945 . S
H44 C65 0.952 . S
H45 C66 0.949 . S
H46 C68 0.950 . S
H47 C69 0.948 . S
H48 C71 0.951 . S
H49 C36 0.947 . S
H50 C38 0.952 . S
H51 C39 0.950 . S
N52 C55 1.382 . S
N52 C57 1.363 . S
N53 C55 1.371 . S
N53 C56 1.372 . S
N54 C56 1.361 . S
N54 C57 1.377 . S
C55 N52 1.382 . S
C55 N53 1.371 . S
C55 C58 1.480 . S
C56 N53 1.372 . S
C56 N54 1.361 . S
C56 C64 1.457 . S
C57 N52 1.363 . S
C57 N54 1.377 . S
C57 C70 1.479 . S
C58 C55 1.480 . S
C58 C59 1.383 . S
C58 C63 1.385 . S
C59 H40 0.947 . S
C59 C58 1.383 . S
C59 C60 1.388 . S
C60 H41 0.946 . S
C60 C59 1.388 . S
C60 C61 1.384 . S
C61 C60 1.384 . S
C61 C62 1.377 . S
C62 H42 0.953 . S
C62 C61 1.377 . S
C62 C63 1.369 . S
C63 H43 0.945 . S
C63 C58 1.385 . S
C63 C62 1.369 . S
C64 C56 1.457 . S
C64 C65 1.372 . S
C64 C69 1.364 . S
C65 H44 0.952 . S
C65 C64 1.372 . S
C65 C66 1.389 . S
C66 H45 0.949 . S
C66 C65 1.389 . S
C66 C67 1.387 . S
C67 C66 1.387 . S
C67 C68 1.372 . S
C68 H46 0.950 . S
C68 C67 1.372 . S
C68 C69 1.379 . S
C69 H47 0.948 . S
C69 C64 1.364 . S
C69 C68 1.379 . S
C70 C39 1.383 . S
C70 C57 1.479 . S
C70 C71 1.398 . S
C71 C36 1.382 . S
C71 H48 0.951 . S
C71 C70 1.398 . S
C72 C73 1.384 . S
C72 H85 0.947 . S
C72 C107 1.382 . S
C73 C72 1.384 . S
C73 C74 1.378 . S
C74 C73 1.378 . S
C74 C75 1.378 . S
C74 H86 0.952 . S
C75 C74 1.378 . S
C75 H87 0.950 . S
C75 C106 1.383 . S
H76 C95 0.947 . S
H77 C96 0.946 . S
H78 C98 0.953 . S
H79 C99 0.945 . S
H80 C101 0.952 . S
H81 C102 0.949 . S
H82 C104 0.950 . S
H83 C105 0.948 . S
H84 C107 0.951 . S
H85 C72 0.947 . S
H86 C74 0.952 . S
H87 C75 0.950 . S
N88 C91 1.382 . S
N88 C93 1.363 . S
N89 C91 1.371 . S
N89 C92 1.372 . S
N90 C92 1.361 . S
N90 C93 1.377 . S
C91 N88 1.382 . S
C91 N89 1.371 . S
C91 C94 1.480 . S
C92 N89 1.372 . S
C92 N90 1.361 . S
C92 C100 1.457 . S
C93 N88 1.363 . S
C93 N90 1.377 . S
C93 C106 1.479 . S
C94 C91 1.480 . S
C94 C95 1.383 . S
C94 C99 1.385 . S
C95 H76 0.947 . S
C95 C94 1.383 . S
C95 C96 1.388 . S
C96 H77 0.946 . S
C96 C95 1.388 . S
C96 C97 1.384 . S
C97 C96 1.384 . S
C97 C98 1.377 . S
C98 H78 0.953 . S
C98 C97 1.377 . S
C98 C99 1.369 . S
C99 H79 0.945 . S
C99 C94 1.385 . S
C99 C98 1.369 . S
C100 C92 1.457 . S
C100 C101 1.372 . S
C100 C105 1.364 . S
C101 H80 0.952 . S
C101 C100 1.372 . S
C101 C102 1.389 . S
C102 H81 0.949 . S
C102 C101 1.389 . S
C102 C103 1.387 . S
C103 C102 1.387 . S
C103 C104 1.372 . S
C104 H82 0.950 . S
C104 C103 1.372 . S
C104 C105 1.379 . S
C105 H83 0.948 . S
C105 C100 1.364 . S
C105 C104 1.379 . S
C106 C75 1.383 . S
C106 C93 1.479 . S
C106 C107 1.398 . S
C107 C72 1.382 . S
C107 H84 0.951 . S
C107 C106 1.398 . S
C108 C109 1.384 . S
C108 H121 0.947 . S
C108 C143 1.382 . S
C109 C108 1.384 . S
C109 C110 1.378 . S
C110 C109 1.378 . S
C110 C111 1.378 . S
C110 H122 0.952 . S
C111 C110 1.378 . S
C111 H123 0.950 . S
C111 C142 1.383 . S
H112 C131 0.947 . S
H113 C132 0.946 . S
H114 C134 0.953 . S
H115 C135 0.945 . S
H116 C137 0.952 . S
H117 C138 0.949 . S
H118 C140 0.950 . S
H119 C141 0.948 . S
H120 C143 0.951 . S
H121 C108 0.947 . S
H122 C110 0.952 . S
H123 C111 0.950 . S
N124 C127 1.382 . S
N124 C129 1.363 . S
N125 C127 1.371 . S
N125 C128 1.372 . S
N126 C128 1.361 . S
N126 C129 1.377 . S
C127 N124 1.382 . S
C127 N125 1.371 . S
C127 C130 1.480 . S
C128 N125 1.372 . S
C128 N126 1.361 . S
C128 C136 1.457 . S
C129 N124 1.363 . S
C129 N126 1.377 . S
C129 C142 1.479 . S
C130 C127 1.480 . S
C130 C131 1.383 . S
C130 C135 1.385 . S
C131 H112 0.947 . S
C131 C130 1.383 . S
C131 C132 1.388 . S
C132 H113 0.946 . S
C132 C131 1.388 . S
C132 C133 1.384 . S
C133 C132 1.384 . S
C133 C134 1.377 . S
C134 H114 0.953 . S
C134 C133 1.377 . S
C134 C135 1.369 . S
C135 H115 0.945 . S
C135 C130 1.385 . S
C135 C134 1.369 . S
C136 C128 1.457 . S
C136 C137 1.372 . S
C136 C141 1.364 . S
C137 H116 0.952 . S
C137 C136 1.372 . S
C137 C138 1.389 . S
C138 H117 0.949 . S
C138 C137 1.389 . S
C138 C139 1.387 . S
C139 C138 1.387 . S
C139 C140 1.372 . S
C140 H118 0.950 . S
C140 C139 1.372 . S
C140 C141 1.379 . S
C141 H119 0.948 . S
C141 C136 1.364 . S
C141 C140 1.379 . S
C142 C111 1.383 . S
C142 C129 1.479 . S
C142 C143 1.398 . S
C143 C108 1.382 . S
C143 H120 0.951 . S
C143 C142 1.398 . S
C144 C145 1.384 . S
C144 H157 0.947 . S
C144 C179 1.382 . S
C145 C144 1.384 . S
C145 C146 1.378 . S
C146 C145 1.378 . S
C146 C147 1.378 . S
C146 H158 0.952 . S
C147 C146 1.378 . S
C147 H159 0.950 . S
C147 C178 1.383 . S
H148 C167 0.947 . S
H149 C168 0.946 . S
H150 C170 0.953 . S
H151 C171 0.945 . S
H152 C173 0.952 . S
H153 C174 0.949 . S
H154 C176 0.950 . S
H155 C177 0.948 . S
H156 C179 0.951 . S
H157 C144 0.947 . S
H158 C146 0.952 . S
H159 C147 0.950 . S
N160 C163 1.382 . S
N160 C165 1.363 . S
N161 C163 1.371 . S
N161 C164 1.372 . S
N162 C164 1.361 . S
N162 C165 1.377 . S
C163 N160 1.382 . S
C163 N161 1.371 . S
C163 C166 1.480 . S
C164 N161 1.372 . S
C164 N162 1.361 . S
C164 C172 1.457 . S
C165 N160 1.363 . S
C165 N162 1.377 . S
C165 C178 1.479 . S
C166 C163 1.480 . S
C166 C167 1.383 . S
C166 C171 1.385 . S
C167 H148 0.947 . S
C167 C166 1.383 . S
C167 C168 1.388 . S
C168 H149 0.946 . S
C168 C167 1.388 . S
C168 C169 1.384 . S
C169 C168 1.384 . S
C169 C170 1.377 . S
C170 H150 0.953 . S
C170 C169 1.377 . S
C170 C171 1.369 . S
C171 H151 0.945 . S
C171 C166 1.385 . S
C171 C170 1.369 . S
C172 C164 1.457 . S
C172 C173 1.372 . S
C172 C177 1.364 . S
C173 H152 0.952 . S
C173 C172 1.372 . S
C173 C174 1.389 . S
C174 H153 0.949 . S
C174 C173 1.389 . S
C174 C175 1.387 . S
C175 C174 1.387 . S
C175 C176 1.372 . S
C176 H154 0.950 . S
C176 C175 1.372 . S
C176 C177 1.379 . S
C177 H155 0.948 . S
C177 C172 1.364 . S
C177 C176 1.379 . S
C178 C147 1.383 . S
C178 C165 1.479 . S
C178 C179 1.398 . S
C179 C144 1.382 . S
C179 H156 0.951 . S
C179 C178 1.398 . S
C180 C181 1.384 . S
C180 H193 0.947 . S
C180 C215 1.382 . S
C181 C180 1.384 . S
C181 C182 1.378 . S
C182 C181 1.378 . S
C182 C183 1.378 . S
C182 H194 0.952 . S
C183 C182 1.378 . S
C183 H195 0.950 . S
C183 C214 1.383 . S
H184 C203 0.947 . S
H185 C204 0.946 . S
H186 C206 0.953 . S
H187 C207 0.945 . S
H188 C209 0.952 . S
H189 C210 0.949 . S
H190 C212 0.950 . S
H191 C213 0.948 . S
H192 C215 0.951 . S
H193 C180 0.947 . S
H194 C182 0.952 . S
H195 C183 0.950 . S
N196 C199 1.382 . S
N196 C201 1.363 . S
N197 C199 1.371 . S
N197 C200 1.372 . S
N198 C200 1.361 . S
N198 C201 1.377 . S
C199 N196 1.382 . S
C199 N197 1.371 . S
C199 C202 1.480 . S
C200 N197 1.372 . S
C200 N198 1.361 . S
C200 C208 1.457 . S
C201 N196 1.363 . S
C201 N198 1.377 . S
C201 C214 1.479 . S
C202 C199 1.480 . S
C202 C203 1.383 . S
C202 C207 1.385 . S
C203 H184 0.947 . S
C203 C202 1.383 . S
C203 C204 1.388 . S
C204 H185 0.946 . S
C204 C203 1.388 . S
C204 C205 1.384 . S
C205 C204 1.384 . S
C205 C206 1.377 . S
C206 H186 0.953 . S
C206 C205 1.377 . S
C206 C207 1.369 . S
C207 H187 0.945 . S
C207 C202 1.385 . S
C207 C206 1.369 . S
C208 C200 1.457 . S
C208 C209 1.372 . S
C208 C213 1.364 . S
C209 H188 0.952 . S
C209 C208 1.372 . S
C209 C210 1.389 . S
C210 H189 0.949 . S
C210 C209 1.389 . S
C210 C211 1.387 . S
C211 C210 1.387 . S
C211 C212 1.372 . S
C212 H190 0.950 . S
C212 C211 1.372 . S
C212 C213 1.379 . S
C213 H191 0.948 . S
C213 C208 1.364 . S
C213 C212 1.379 . S
C214 C183 1.383 . S
C214 C201 1.479 . S
C214 C215 1.398 . S
C215 C180 1.382 . S
C215 H192 0.951 . S
C215 C214 1.398 . S
C216 C217 1.384 . S
C216 H229 0.947 . S
C216 C251 1.382 . S
C217 C216 1.384 . S
C217 C218 1.378 . S
C218 C217 1.378 . S
C218 C219 1.378 . S
C218 H230 0.952 . S
C219 C218 1.378 . S
C219 H231 0.950 . S
C219 C250 1.383 . S
H220 C239 0.947 . S
H221 C240 0.946 . S
H222 C242 0.953 . S
H223 C243 0.945 . S
H224 C245 0.952 . S
H225 C246 0.949 . S
H226 C248 0.950 . S
H227 C249 0.948 . S
H228 C251 0.951 . S
H229 C216 0.947 . S
H230 C218 0.952 . S
H231 C219 0.950 . S
N232 C235 1.382 . S
N232 C237 1.363 . S
N233 C235 1.371 . S
N233 C236 1.372 . S
N234 C236 1.361 . S
N234 C237 1.377 . S
C235 N232 1.382 . S
C235 N233 1.371 . S
C235 C238 1.480 . S
C236 N233 1.372 . S
C236 N234 1.361 . S
C236 C244 1.457 . S
C237 N232 1.363 . S
C237 N234 1.377 . S
C237 C250 1.479 . S
C238 C235 1.480 . S
C238 C239 1.383 . S
C238 C243 1.385 . S
C239 H220 0.947 . S
C239 C238 1.383 . S
C239 C240 1.388 . S
C240 H221 0.946 . S
C240 C239 1.388 . S
C240 C241 1.384 . S
C241 C240 1.384 . S
C241 C242 1.377 . S
C242 H222 0.953 . S
C242 C241 1.377 . S
C242 C243 1.369 . S
C243 H223 0.945 . S
C243 C238 1.385 . S
C243 C242 1.369 . S
C244 C236 1.457 . S
C244 C245 1.372 . S
C244 C249 1.364 . S
C245 H224 0.952 . S
C245 C244 1.372 . S
C245 C246 1.389 . S
C246 H225 0.949 . S
C246 C245 1.389 . S
C246 C247 1.387 . S
C247 C246 1.387 . S
C247 C248 1.372 . S
C248 H226 0.950 . S
C248 C247 1.372 . S
C248 C249 1.379 . S
C249 H227 0.948 . S
C249 C244 1.364 . S
C249 C248 1.379 . S
C250 C219 1.383 . S
C250 C237 1.479 . S
C250 C251 1.398 . S
C251 C216 1.382 . S
C251 H228 0.951 . S
C251 C250 1.398 . S
C252 C253 1.384 . S
C252 H265 0.947 . S
C252 C287 1.382 . S
C253 C252 1.384 . S
C253 C254 1.378 . S
C254 C253 1.378 . S
C254 C255 1.378 . S
C254 H266 0.952 . S
C255 C254 1.378 . S
C255 H267 0.950 . S
C255 C286 1.383 . S
H256 C275 0.947 . S
H257 C276 0.946 . S
H258 C278 0.953 . S
H259 C279 0.945 . S
H260 C281 0.952 . S
H261 C282 0.949 . S
H262 C284 0.950 . S
H263 C285 0.948 . S
H264 C287 0.951 . S
H265 C252 0.947 . S
H266 C254 0.952 . S
H267 C255 0.950 . S
N268 C271 1.382 . S
N268 C273 1.363 . S
N269 C271 1.371 . S
N269 C272 1.372 . S
N270 C272 1.361 . S
N270 C273 1.377 . S
C271 N268 1.382 . S
C271 N269 1.371 . S
C271 C274 1.480 . S
C272 N269 1.372 . S
C272 N270 1.361 . S
C272 C280 1.457 . S
C273 N268 1.363 . S
C273 N270 1.377 . S
C273 C286 1.479 . S
C274 C271 1.480 . S
C274 C275 1.383 . S
C274 C279 1.385 . S
C275 H256 0.947 . S
C275 C274 1.383 . S
C275 C276 1.388 . S
C276 H257 0.946 . S
C276 C275 1.388 . S
C276 C277 1.384 . S
C277 C276 1.384 . S
C277 C278 1.377 . S
C278 H258 0.953 . S
C278 C277 1.377 . S
C278 C279 1.369 . S
C279 H259 0.945 . S
C279 C274 1.385 . S
C279 C278 1.369 . S
C280 C272 1.457 . S
C280 C281 1.372 . S
C280 C285 1.364 . S
C281 H260 0.952 . S
C281 C280 1.372 . S
C281 C282 1.389 . S
C282 H261 0.949 . S
C282 C281 1.389 . S
C282 C283 1.387 . S
C283 C282 1.387 . S
C283 C284 1.372 . S
C284 H262 0.950 . S
C284 C283 1.372 . S
C284 C285 1.379 . S
C285 H263 0.948 . S
C285 C280 1.364 . S
C285 C284 1.379 . S
C286 C255 1.383 . S
C286 C273 1.479 . S
C286 C287 1.398 . S
C287 C252 1.382 . S
C287 H264 0.951 . S
C287 C286 1.398 . S
Co288 N293 2.057 . S
Co288 O305 2.021 . S
Co288 O308 2.062 . S
Co288 O312 2.117 1_545 S
Co288 O313 2.020 1_545 S
C289 O309 1.259 1_655 S
C289 O312 1.258 . S
Co290 N299 2.057 . S
Co290 O306 2.117 1_565 S
Co290 O307 2.020 1_565 S
Co290 O309 2.021 . S
Co290 O314 2.062 . S
C291 N293 1.316 . S
C291 N294 1.347 . S
C291 H296 0.931 . S
C292 N293 1.375 1_565 S
C292 C295 1.350 1_565 S
C292 H297 0.930 . S
N293 Co288 2.057 . S
N293 C291 1.316 . S
N293 C292 1.375 1_545 S
N294 C291 1.347 . S
N294 C295 1.373 . S
C295 C292 1.350 1_545 S
C295 N294 1.373 . S
C295 H316 0.931 1_545 S
H296 C291 0.931 . S
H297 C292 0.930 . S
C298 O305 1.259 1_455 S
C298 O306 1.258 . S
N299 Co290 2.057 . S
N299 C300 1.316 . S
N299 C301 1.375 1_565 S
C300 N299 1.316 . S
C300 N302 1.347 . S
C300 H311 0.931 . S
C301 N299 1.375 1_545 S
C301 C303 1.350 1_545 S
C301 H310 0.930 . S
N302 C300 1.347 . S
N302 C303 1.373 . S
C303 C301 1.350 1_565 S
C303 N302 1.373 . S
C303 H317 0.931 1_565 S
C304 O307 1.256 . S
C304 O308 1.255 1_455 S
O305 Co288 2.021 . S
O305 C298 1.259 1_655 S
O306 Co290 2.117 1_545 S
O306 C298 1.258 . S
O307 Co290 2.020 1_545 S
O307 C304 1.256 . S
O308 Co288 2.062 . S
O308 C304 1.255 1_655 S
O309 C289 1.259 1_455 S
O309 Co290 2.021 . S
H310 C301 0.930 . S
H311 C300 0.931 . S
O312 Co288 2.117 1_565 S
O312 C289 1.258 . S
O313 Co288 2.020 1_565 S
O313 C315 1.256 . S
O314 Co290 2.062 . S
O314 C315 1.255 1_455 S
C315 O313 1.256 . S
C315 O314 1.255 1_655 S
H316 C295 0.931 1_565 S
H317 C303 0.931 1_545 S
Co318 N323 2.057 . S
Co318 O335 2.021 1_565 S
Co318 O338 2.062 . S
Co318 O342 2.117 . S
Co318 O343 2.020 1_565 S
C319 O339 1.259 . S
C319 O342 1.258 1_554 S
Co320 N329 2.057 . S
Co320 O336 2.117 . S
Co320 O337 2.020 1_545 S
Co320 O339 2.021 1_545 S
Co320 O344 2.062 . S
C321 N323 1.316 . S
C321 N324 1.347 . S
C321 H326 0.931 1_565 S
C322 N323 1.375 . S
C322 C325 1.350 . S
C322 H327 0.930 . S
N323 Co318 2.057 . S
N323 C321 1.316 . S
N323 C322 1.375 . S
N324 C321 1.347 . S
N324 C325 1.373 . S
C325 C322 1.350 . S
C325 N324 1.373 . S
C325 H346 0.931 . S
H326 C321 0.931 1_545 S
H327 C322 0.930 . S
C328 O335 1.259 . S
C328 O336 1.258 1_556 S
N329 Co320 2.057 . S
N329 C330 1.316 . S
N329 C331 1.375 . S
C330 N329 1.316 . S
C330 N332 1.347 . S
C330 H341 0.931 1_545 S
C331 N329 1.375 . S
C331 C333 1.350 . S
C331 H340 0.930 . S
N332 C330 1.347 . S
N332 C333 1.373 . S
C333 C331 1.350 . S
C333 N332 1.373 . S
C333 H347 0.931 . S
C334 O337 1.256 1_556 S
C334 O338 1.255 . S
O335 Co318 2.021 1_545 S
O335 C328 1.259 . S
O336 Co320 2.117 . S
O336 C328 1.258 1_554 S
O337 Co320 2.020 1_565 S
O337 C334 1.256 1_554 S
O338 Co318 2.062 . S
O338 C334 1.255 . S
O339 C319 1.259 . S
O339 Co320 2.021 1_565 S
H340 C331 0.930 . S
H341 C330 0.931 1_565 S
O342 Co318 2.117 . S
O342 C319 1.258 1_556 S
O343 Co318 2.020 1_545 S
O343 C345 1.256 1_556 S
O344 Co320 2.062 . S
O344 C345 1.255 . S
C345 O343 1.256 1_554 S
C345 O344 1.255 . S
H346 C325 0.931 . S
H347 C333 0.931 . S
Co348 N353 2.057 . S
Co348 O365 2.021 . S
Co348 O368 2.062 . S
Co348 O372 2.117 . S
Co348 O373 2.020 . S
C349 O369 1.259 . S
C349 O372 1.258 . S
Co350 N359 2.057 . S
Co350 O366 2.117 . S
Co350 O367 2.020 . S
Co350 O369 2.021 . S
Co350 O374 2.062 . S
C351 N353 1.316 . S
C351 N354 1.347 . S
C351 H356 0.931 . S
C352 N353 1.375 . S
C352 C355 1.350 . S
C352 H357 0.930 . S
N353 Co348 2.057 . S
N353 C351 1.316 . S
N353 C352 1.375 . S
N354 C351 1.347 . S
N354 C355 1.373 . S
C355 C352 1.350 . S
C355 N354 1.373 . S
C355 H376 0.931 . S
H356 C351 0.931 . S
H357 C352 0.930 . S
C358 O365 1.259 . S
C358 O366 1.258 . S
N359 Co350 2.057 . S
N359 C360 1.316 . S
N359 C361 1.375 . S
C360 N359 1.316 . S
C360 N362 1.347 . S
C360 H371 0.931 . S
C361 N359 1.375 . S
C361 C363 1.350 . S
C361 H370 0.930 . S
N362 C360 1.347 . S
N362 C363 1.373 . S
C363 C361 1.350 . S
C363 N362 1.373 . S
C363 H377 0.931 . S
C364 O367 1.256 . S
C364 O368 1.255 . S
O365 Co348 2.021 . S
O365 C358 1.259 . S
O366 Co350 2.117 . S
O366 C358 1.258 . S
O367 Co350 2.020 . S
O367 C364 1.256 . S
O368 Co348 2.062 . S
O368 C364 1.255 . S
O369 C349 1.259 . S
O369 Co350 2.021 . S
H370 C361 0.930 . S
H371 C360 0.931 . S
O372 Co348 2.117 . S
O372 C349 1.258 . S
O373 Co348 2.020 . S
O373 C375 1.256 . S
O374 Co350 2.062 . S
O374 C375 1.255 . S
C375 O373 1.256 . S
C375 O374 1.255 . S
H376 C355 0.931 . S
H377 C363 0.931 . S
Co378 N383 2.057 . S
Co378 O395 2.021 . S
Co378 O398 2.062 . S
Co378 O402 2.117 1_455 S
Co378 O403 2.020 1_455 S
C379 O399 1.259 1_556 S
C379 O402 1.258 . S
Co380 N389 2.057 . S
Co380 O396 2.117 1_655 S
Co380 O397 2.020 1_655 S
Co380 O399 2.021 . S
Co380 O404 2.062 . S
C381 N383 1.316 . S
C381 N384 1.347 . S
C381 H386 0.931 . S
C382 N383 1.375 1_655 S
C382 C385 1.350 1_655 S
C382 H387 0.930 . S
N383 Co378 2.057 . S
N383 C381 1.316 . S
N383 C382 1.375 1_455 S
N384 C381 1.347 . S
N384 C385 1.373 . S
C385 C382 1.350 1_455 S
C385 N384 1.373 . S
C385 H406 0.931 1_455 S
H386 C381 0.931 . S
H387 C382 0.930 . S
C388 O395 1.259 1_554 S
C388 O396 1.258 . S
N389 Co380 2.057 . S
N389 C390 1.316 . S
N389 C391 1.375 1_655 S
C390 N389 1.316 . S
C390 N392 1.347 . S
C390 H401 0.931 . S
C391 N389 1.375 1_455 S
C391 C393 1.350 1_455 S
C391 H400 0.930 . S
N392 C390 1.347 . S
N392 C393 1.373 . S
C393 C391 1.350 1_655 S
C393 N392 1.373 . S
C393 H407 0.931 1_655 S
C394 O397 1.256 . S
C394 O398 1.255 1_554 S
O395 Co378 2.021 . S
O395 C388 1.259 1_556 S
O396 Co380 2.117 1_455 S
O396 C388 1.258 . S
O397 Co380 2.020 1_455 S
O397 C394 1.256 . S
O398 Co378 2.062 . S
O398 C394 1.255 1_556 S
O399 C379 1.259 1_554 S
O399 Co380 2.021 . S
H400 C391 0.930 . S
H401 C390 0.931 . S
O402 Co378 2.117 1_655 S
O402 C379 1.258 . S
O403 Co378 2.020 1_655 S
O403 C405 1.256 . S
O404 Co380 2.062 . S
O404 C405 1.255 1_554 S
C405 O403 1.256 . S
C405 O404 1.255 1_556 S
H406 C385 0.931 1_655 S
H407 C393 0.931 1_455 S
H408 C414 0.930 . S
H409 C418 0.930 . S
H410 C423 0.929 . S
H411 C421 0.929 1_565 S
H412 C416 0.929 . S
H413 C422 0.929 . S
C414 H408 0.930 . S
C414 C415 1.367 . S
C414 C422 1.378 . S
C415 C414 1.367 . S
C415 C423 1.433 . S
C416 H412 0.929 . S
C416 C418 1.378 . S
C416 C420 1.350 . S
C417 C420 1.463 . S
C417 C422 1.350 . S
C417 N425 1.427 . S
C418 H409 0.930 . S
C418 C416 1.378 . S
C418 C419 1.367 . S
C419 C418 1.367 . S
C419 C421 1.433 . S
C420 C416 1.350 . S
C420 C417 1.463 . S
C420 N424 1.427 . S
C421 H411 0.929 1_545 S
C421 C419 1.433 . S
C421 N424 1.384 . S
C422 H413 0.929 . S
C422 C414 1.378 . S
C422 C417 1.350 . S
C423 H410 0.929 . S
C423 C415 1.433 . S
C423 N425 1.384 . S
N424 C420 1.427 . S
N424 C421 1.384 . S
N425 C417 1.427 . S
N425 C423 1.384 . S
H426 C432 0.930 . S
H427 C436 0.930 . S
H428 C441 0.929 . S
H429 C439 0.929 . S
H430 C434 0.929 . S
H431 C440 0.929 . S
C432 H426 0.930 . S
C432 C433 1.367 . S
C432 C440 1.378 . S
C433 C432 1.367 . S
C433 C441 1.433 . S
C434 H430 0.929 . S
C434 C436 1.378 . S
C434 C438 1.350 . S
C435 C438 1.463 . S
C435 C440 1.350 . S
C435 N443 1.427 . S
C436 H427 0.930 . S
C436 C434 1.378 . S
C436 C437 1.367 . S
C437 C436 1.367 . S
C437 C439 1.433 . S
C438 C434 1.350 . S
C438 C435 1.463 . S
C438 N442 1.427 . S
C439 H429 0.929 . S
C439 C437 1.433 . S
C439 N442 1.384 . S
C440 H431 0.929 . S
C440 C432 1.378 . S
C440 C435 1.350 . S
C441 H428 0.929 . S
C441 C433 1.433 . S
C441 N443 1.384 . S
N442 C438 1.427 . S
N442 C439 1.384 . S
N443 C435 1.427 . S
N443 C441 1.384 . S
H444 C450 0.930 . S
H445 C454 0.930 . S
H446 C459 0.929 . S
H447 C457 0.929 . S
H448 C452 0.929 . S
H449 C458 0.929 . S
C450 H444 0.930 . S
C450 C451 1.367 . S
C450 C458 1.378 . S
C451 C450 1.367 . S
C451 C459 1.433 . S
C452 H448 0.929 . S
C452 C454 1.378 . S
C452 C456 1.350 . S
C453 C456 1.463 . S
C453 C458 1.350 . S
C453 N461 1.427 . S
C454 H445 0.930 . S
C454 C452 1.378 . S
C454 C455 1.367 . S
C455 C454 1.367 . S
C455 C457 1.433 . S
C456 C452 1.350 . S
C456 C453 1.463 . S
C456 N460 1.427 . S
C457 H447 0.929 . S
C457 C455 1.433 . S
C457 N460 1.384 . S
C458 H449 0.929 . S
C458 C450 1.378 . S
C458 C453 1.350 . S
C459 H446 0.929 . S
C459 C451 1.433 . S
C459 N461 1.384 . S
N460 C456 1.427 . S
N460 C457 1.384 . S
N461 C453 1.427 . S
N461 C459 1.384 . S
H462 C468 0.930 . S
H463 C472 0.930 . S
H464 C477 0.929 . S
H465 C475 0.929 . S
H466 C470 0.929 . S
H467 C476 0.929 . S
C468 H462 0.930 . S
C468 C469 1.367 . S
C468 C476 1.378 . S
C469 C468 1.367 . S
C469 C477 1.433 . S
C470 H466 0.929 . S
C470 C472 1.378 . S
C470 C474 1.350 . S
C471 C474 1.463 . S
C471 C476 1.350 . S
C471 N479 1.427 . S
C472 H463 0.930 . S
C472 C470 1.378 . S
C472 C473 1.367 . S
C473 C472 1.367 . S
C473 C475 1.433 . S
C474 C470 1.350 . S
C474 C471 1.463 . S
C474 N478 1.427 . S
C475 H465 0.929 . S
C475 C473 1.433 . S
C475 N478 1.384 . S
C476 H467 0.929 . S
C476 C468 1.378 . S
C476 C471 1.350 . S
C477 H464 0.929 . S
C477 C469 1.433 . S
C477 N479 1.384 . S
N478 C474 1.427 . S
N478 C475 1.384 . S
N479 C471 1.427 . S
N479 C477 1.384 . S
H480 C486 0.930 . S
H481 C490 0.935 . S
H482 C495 0.929 . S
H483 C493 0.929 1_565 S
H484 C488 0.929 . S
H485 C494 0.929 . S
C486 H480 0.930 . S
C486 C487 1.367 . S
C486 C494 1.378 . S
C487 C486 1.367 . S
C487 C495 1.433 . S
C488 H484 0.929 . S
C488 C490 1.378 . S
C488 C492 1.350 . S
C489 C492 1.463 . S
C489 C494 1.350 . S
C489 N497 1.427 . S
C490 H481 0.935 . S
C490 C488 1.378 . S
C490 C491 1.367 . S
C491 C490 1.367 . S
C491 C493 1.433 . S
C492 C488 1.350 . S
C492 C489 1.463 . S
C492 N496 1.427 . S
C493 H483 0.929 1_545 S
C493 C491 1.433 . S
C493 N496 1.384 . S
C494 H485 0.929 . S
C494 C486 1.378 . S
C494 C489 1.350 . S
C495 H482 0.929 . S
C495 C487 1.433 . S
C495 N497 1.384 . S
N496 C492 1.427 . S
N496 C493 1.384 . S
N497 C489 1.427 . S
N497 C495 1.384 . S
H498 C504 0.930 . S
H499 C508 0.930 . S
H500 C513 0.929 . S
H501 C511 0.929 . S
H502 C506 0.929 . S
H503 C512 0.929 . S
C504 H498 0.930 . S
C504 C505 1.367 . S
C504 C512 1.378 . S
C505 C504 1.367 . S
C505 C513 1.433 . S
C506 H502 0.929 . S
C506 C508 1.378 . S
C506 C510 1.350 . S
C507 C510 1.463 . S
C507 C512 1.350 . S
C507 N515 1.427 . S
C508 H499 0.930 . S
C508 C506 1.378 . S
C508 C509 1.367 . S
C509 C508 1.367 . S
C509 C511 1.433 . S
C510 C506 1.350 . S
C510 C507 1.463 . S
C510 N514 1.427 . S
C511 H501 0.929 . S
C511 C509 1.433 . S
C511 N514 1.384 . S
C512 H503 0.929 . S
C512 C504 1.378 . S
C512 C507 1.350 . S
C513 H500 0.929 . S
C513 C505 1.433 . S
C513 N515 1.384 . S
N514 C510 1.427 . S
N514 C511 1.384 . S
N515 C507 1.427 . S
N515 C513 1.384 . S
H516 C522 0.930 . S
H517 C526 0.930 . S
H518 C531 0.929 . S
H519 C529 0.929 1_554 S
H520 C524 0.929 . S
H521 C530 0.929 . S
C522 H516 0.930 . S
C522 C523 1.367 . S
C522 C530 1.378 . S
C523 C522 1.367 . S
C523 C531 1.433 . S
C524 H520 0.929 . S
C524 C526 1.378 . S
C524 C528 1.350 . S
C525 C528 1.463 . S
C525 C530 1.350 . S
C525 N533 1.427 . S
C526 H517 0.930 . S
C526 C524 1.378 . S
C526 C527 1.367 . S
C527 C526 1.367 . S
C527 C529 1.433 . S
C528 C524 1.350 . S
C528 C525 1.463 . S
C528 N532 1.427 . S
C529 H519 0.929 1_556 S
C529 C527 1.433 . S
C529 N532 1.384 . S
C530 H521 0.929 . S
C530 C522 1.378 . S
C530 C525 1.350 . S
C531 H518 0.929 . S
C531 C523 1.433 . S
C531 N533 1.384 . S
N532 C528 1.427 . S
N532 C529 1.384 . S
N533 C525 1.427 . S
N533 C531 1.384 . S
H534 C540 0.930 . S
H535 C544 0.930 . S
H536 C549 0.929 . S
H537 C547 0.929 . S
H538 C542 0.929 . S
H539 C548 0.929 . S
C540 H534 0.930 . S
C540 C541 1.367 . S
C540 C548 1.378 . S
C541 C540 1.367 . S
C541 C549 1.433 . S
C542 H538 0.929 . S
C542 C544 1.378 . S
C542 C546 1.350 . S
C543 C546 1.463 . S
C543 C548 1.350 . S
C543 N551 1.427 . S
C544 H535 0.930 . S
C544 C542 1.378 . S
C544 C545 1.367 . S
C545 C544 1.367 . S
C545 C547 1.433 . S
C546 C542 1.350 . S
C546 C543 1.463 . S
C546 N550 1.427 . S
C547 H537 0.929 . S
C547 C545 1.433 . S
C547 N550 1.384 . S
C548 H539 0.929 . S
C548 C540 1.378 . S
C548 C543 1.350 . S
C549 H536 0.929 . S
C549 C541 1.433 . S
C549 N551 1.384 . S
N550 C546 1.427 . S
N550 C547 1.384 . S
N551 C543 1.427 . S
N551 C549 1.384 . S
H552 C558 0.930 . S
H553 C562 0.930 1_556 S
H554 C567 0.929 . S
H555 C565 0.929 . S
H556 C560 0.929 1_556 S
H557 C566 0.929 . S
C558 H552 0.930 . S
C558 C559 1.367 . S
C558 C566 1.378 . S
C559 C558 1.367 . S
C559 C567 1.433 . S
C560 H556 0.929 1_554 S
C560 C562 1.378 . S
C560 C564 1.350 . S
C561 C564 1.463 . S
C561 C566 1.350 . S
C561 N569 1.427 . S
C562 H553 0.930 1_554 S
C562 C560 1.378 . S
C562 C563 1.367 . S
C563 C562 1.367 . S
C563 C565 1.433 . S
C564 C560 1.350 . S
C564 C561 1.463 . S
C564 N568 1.427 . S
C565 H555 0.929 . S
C565 C563 1.433 . S
C565 N568 1.384 . S
C566 H557 0.929 . S
C566 C558 1.378 . S
C566 C561 1.350 . S
C567 H554 0.929 . S
C567 C559 1.433 . S
C567 N569 1.384 . S
N568 C564 1.427 . S
N568 C565 1.384 . S
N569 C561 1.427 . S
N569 C567 1.384 . S
H570 C576 0.930 . S
H571 C580 0.930 . S
H572 C585 0.929 . S
H573 C583 0.929 1_554 S
H574 C578 0.929 . S
H575 C584 0.929 . S
C576 H570 0.930 . S
C576 C577 1.367 . S
C576 C584 1.378 . S
C577 C576 1.367 . S
C577 C585 1.433 . S
C578 H574 0.929 . S
C578 C580 1.378 . S
C578 C582 1.350 . S
C579 C582 1.463 . S
C579 C584 1.350 . S
C579 N587 1.427 . S
C580 H571 0.930 . S
C580 C578 1.378 . S
C580 C581 1.367 . S
C581 C580 1.367 . S
C581 C583 1.433 . S
C582 C578 1.350 . S
C582 C579 1.463 . S
C582 N586 1.427 . S
C583 H573 0.929 1_556 S
C583 C581 1.433 . S
C583 N586 1.384 . S
C584 H575 0.929 . S
C584 C576 1.378 . S
C584 C579 1.350 . S
C585 H572 0.929 . S
C585 C577 1.433 . S
C585 N587 1.384 . S
N586 C582 1.427 . S
N586 C583 1.384 . S
N587 C579 1.427 . S
N587 C585 1.384 . S
H588 C594 0.930 . S
H589 C598 0.930 1_455 S
H590 C603 0.929 . S
H591 C601 0.929 . S
H592 C596 0.929 1_455 S
H593 C602 0.929 . S
C594 H588 0.930 . S
C594 C595 1.367 . S
C594 C602 1.378 . S
C595 C594 1.367 . S
C595 C603 1.433 . S
C596 H592 0.929 1_655 S
C596 C598 1.378 . S
C596 C600 1.350 . S
C597 C600 1.463 . S
C597 C602 1.350 . S
C597 N605 1.427 . S
C598 H589 0.930 1_655 S
C598 C596 1.378 . S
C598 C599 1.367 . S
C599 C598 1.367 . S
C599 C601 1.433 . S
C600 C596 1.350 . S
C600 C597 1.463 . S
C600 N604 1.427 . S
C601 H591 0.929 . S
C601 C599 1.433 . S
C601 N604 1.384 . S
C602 H593 0.929 . S
C602 C594 1.378 . S
C602 C597 1.350 . S
C603 H590 0.929 . S
C603 C595 1.433 . S
C603 N605 1.384 . S
N604 C600 1.427 . S
N604 C601 1.384 . S
N605 C597 1.427 . S
N605 C603 1.384 . S
H606 C612 0.930 . S
H607 C616 0.930 . S
H608 C621 0.929 . S
H609 C619 0.929 . S
H610 C614 0.929 . S
H611 C620 0.929 . S
C612 H606 0.930 . S
C612 C613 1.367 . S
C612 C620 1.378 . S
C613 C612 1.367 . S
C613 C621 1.433 . S
C614 H610 0.929 . S
C614 C616 1.378 . S
C614 C618 1.350 . S
C615 C618 1.463 . S
C615 C620 1.350 . S
C615 N623 1.427 . S
C616 H607 0.930 . S
C616 C614 1.378 . S
C616 C617 1.367 . S
C617 C616 1.367 . S
C617 C619 1.433 . S
C618 C614 1.350 . S
C618 C615 1.463 . S
C618 N622 1.427 . S
C619 H609 0.929 . S
C619 C617 1.433 . S
C619 N622 1.384 . S
C620 H611 0.929 . S
C620 C612 1.378 . S
C620 C615 1.350 . S
C621 H608 0.929 . S
C621 C613 1.433 . S
C621 N623 1.384 . S
N622 C618 1.427 . S
N622 C619 1.384 . S
N623 C615 1.427 . S
N623 C621 1.384 . S
H624 C630 0.930 . S
H625 C634 0.930 1_545 S
H626 C639 0.929 . S
H627 C637 0.929 . S
H628 C632 0.929 . S
H629 C638 0.929 . S
C630 H624 0.930 . S
C630 C631 1.367 . S
C630 C638 1.378 . S
C631 C630 1.367 . S
C631 C639 1.433 . S
C632 H628 0.929 . S
C632 C634 1.378 . S
C632 C636 1.350 . S
C633 C636 1.463 . S
C633 C638 1.350 . S
C633 N641 1.427 . S
C634 H625 0.930 1_565 S
C634 C632 1.378 . S
C634 C635 1.367 . S
C635 C634 1.367 . S
C635 C637 1.433 . S
C636 C632 1.350 . S
C636 C633 1.463 . S
C636 N640 1.427 . S
C637 H627 0.929 . S
C637 C635 1.433 . S
C637 N640 1.384 . S
C638 H629 0.929 . S
C638 C630 1.378 . S
C638 C633 1.350 . S
C639 H626 0.929 . S
C639 C631 1.433 . S
C639 N641 1.384 . S
N640 C636 1.427 . S
N640 C637 1.384 . S
N641 C633 1.427 . S
N641 C639 1.384 . S
H642 C648 0.930 . S
H643 C652 0.930 . S
H644 C657 0.929 . S
H645 C655 0.929 . S
H646 C650 0.929 . S
H647 C656 0.929 . S
C648 H642 0.930 . S
C648 C649 1.367 . S
C648 C656 1.378 . S
C649 C648 1.367 . S
C649 C657 1.433 . S
C650 H646 0.929 . S
C650 C652 1.378 . S
C650 C654 1.350 . S
C651 C654 1.463 . S
C651 C656 1.350 . S
C651 N659 1.427 . S
C652 H643 0.930 . S
C652 C650 1.378 . S
C652 C653 1.367 . S
C653 C652 1.367 . S
C653 C655 1.433 . S
C654 C650 1.350 . S
C654 C651 1.463 . S
C654 N658 1.427 . S
C655 H645 0.929 . S
C655 C653 1.433 . S
C655 N658 1.384 . S
C656 H647 0.929 . S
C656 C648 1.378 . S
C656 C651 1.350 . S
C657 H644 0.929 . S
C657 C649 1.433 . S
C657 N659 1.384 . S
N658 C654 1.427 . S
N658 C655 1.384 . S
N659 C651 1.427 . S
N659 C657 1.384 . S
H660 C666 0.930 . S
H661 C670 0.930 . S
H662 C675 0.929 . S
H663 C673 0.929 . S
H664 C668 0.929 . S
H665 C674 0.929 . S
C666 H660 0.930 . S
C666 C667 1.367 . S
C666 C674 1.378 . S
C667 C666 1.367 . S
C667 C675 1.433 . S
C668 H664 0.929 . S
C668 C670 1.378 . S
C668 C672 1.350 . S
C669 C672 1.463 . S
C669 C674 1.350 . S
C669 N677 1.427 . S
C670 H661 0.930 . S
C670 C668 1.378 . S
C670 C671 1.367 . S
C671 C670 1.367 . S
C671 C673 1.433 . S
C672 C668 1.350 . S
C672 C669 1.463 . S
C672 N676 1.427 . S
C673 H663 0.929 . S
C673 C671 1.433 . S
C673 N676 1.384 . S
C674 H665 0.929 . S
C674 C666 1.378 . S
C674 C669 1.350 . S
C675 H662 0.929 . S
C675 C667 1.433 . S
C675 N677 1.384 . S
N676 C672 1.427 . S
N676 C673 1.384 . S
N677 C669 1.427 . S
N677 C675 1.384 . S
H678 C684 0.930 . S
H679 C688 0.930 . S
H680 C693 0.929 . S
H681 C691 0.929 . S
H682 C686 0.929 . S
H683 C692 0.929 . S
C684 H678 0.930 . S
C684 C685 1.367 . S
C684 C692 1.378 . S
C685 C684 1.367 . S
C685 C693 1.433 . S
C686 H682 0.929 . S
C686 C688 1.378 . S
C686 C690 1.350 . S
C687 C690 1.463 . S
C687 C692 1.350 . S
C687 N695 1.427 . S
C688 H679 0.930 . S
C688 C686 1.378 . S
C688 C689 1.367 . S
C689 C688 1.367 . S
C689 C691 1.433 . S
C690 C686 1.350 . S
C690 C687 1.463 . S
C690 N694 1.427 . S
C691 H681 0.929 . S
C691 C689 1.433 . S
C691 N694 1.384 . S
C692 H683 0.929 . S
C692 C684 1.378 . S
C692 C687 1.350 . S
C693 H680 0.929 . S
C693 C685 1.433 . S
C693 N695 1.384 . S
N694 C690 1.427 . S
N694 C691 1.384 . S
N695 C687 1.427 . S
N695 C693 1.384 . S
H696 C702 0.930 . S
H697 C706 0.930 . S
H698 C711 0.929 . S
H699 C709 0.929 1_554 S
H700 C704 0.929 . S
H701 C710 0.929 . S
C702 H696 0.930 . S
C702 C703 1.367 . S
C702 C710 1.378 . S
C703 C702 1.367 . S
C703 C711 1.433 . S
C704 H700 0.929 . S
C704 C706 1.378 . S
C704 C708 1.350 . S
C705 C708 1.463 . S
C705 C710 1.350 . S
C705 N713 1.427 . S
C706 H697 0.930 . S
C706 C704 1.378 . S
C706 C707 1.367 . S
C707 C706 1.367 . S
C707 C709 1.433 . S
C708 C704 1.350 . S
C708 C705 1.463 . S
C708 N712 1.427 . S
C709 H699 0.929 1_556 S
C709 C707 1.433 . S
C709 N712 1.384 . S
C710 H701 0.929 . S
C710 C702 1.378 . S
C710 C705 1.350 . S
C711 H698 0.929 . S
C711 C703 1.433 . S
C711 N713 1.384 . S
N712 C708 1.427 . S
N712 C709 1.384 . S
N713 C705 1.427 . S
N713 C711 1.384 . S
H714 C720 0.930 . S
H715 C724 0.930 . S
H716 C729 0.929 . S
H717 C727 0.929 . S
H718 C722 0.929 . S
H719 C728 0.929 . S
C720 H714 0.930 . S
C720 C721 1.367 . S
C720 C728 1.378 . S
C721 C720 1.367 . S
C721 C729 1.433 . S
C722 H718 0.929 . S
C722 C724 1.378 . S
C722 C726 1.350 . S
C723 C726 1.463 . S
C723 C728 1.350 . S
C723 N731 1.427 . S
C724 H715 0.930 . S
C724 C722 1.378 . S
C724 C725 1.367 . S
C725 C724 1.367 . S
C725 C727 1.433 . S
C726 C722 1.350 . S
C726 C723 1.463 . S
C726 N730 1.427 . S
C727 H717 0.929 . S
C727 C725 1.433 . S
C727 N730 1.384 . S
C728 H719 0.929 . S
C728 C720 1.378 . S
C728 C723 1.350 . S
C729 H716 0.929 . S
C729 C721 1.433 . S
C729 N731 1.384 . S
N730 C726 1.427 . S
N730 C727 1.384 . S
N731 C723 1.427 . S
N731 C729 1.384 . S
H732 C738 0.930 . S
H733 C742 0.915 1_556 S
H734 C747 0.929 . S
H735 C745 0.929 . S
H736 C740 0.929 . S
H737 C746 0.929 . S
C738 H732 0.930 . S
C738 C739 1.367 . S
C738 C746 1.378 . S
C739 C738 1.367 . S
C739 C747 1.433 . S
C740 H736 0.929 . S
C740 C742 1.378 . S
C740 C744 1.350 . S
C741 C744 1.463 . S
C741 C746 1.350 . S
C741 N749 1.427 . S
C742 H733 0.915 1_554 S
C742 C740 1.378 . S
C742 C743 1.367 . S
C743 C742 1.367 . S
C743 C745 1.433 . S
C744 C740 1.350 . S
C744 C741 1.463 . S
C744 N748 1.427 . S
C745 H735 0.929 . S
C745 C743 1.433 . S
C745 N748 1.384 . S
C746 H737 0.929 . S
C746 C738 1.378 . S
C746 C741 1.350 . S
C747 H734 0.929 . S
C747 C739 1.433 . S
C747 N749 1.384 . S
N748 C744 1.427 . S
N748 C745 1.384 . S
N749 C741 1.427 . S
N749 C747 1.384 . S
H750 C756 0.930 . S
H751 C760 0.930 . S
H752 C765 0.929 . S
H753 C763 0.929 . S
H754 C758 0.929 . S
H755 C764 0.929 . S
C756 H750 0.930 . S
C756 C757 1.367 . S
C756 C764 1.378 . S
C757 C756 1.367 . S
C757 C765 1.433 . S
C758 H754 0.929 . S
C758 C760 1.378 . S
C758 C762 1.350 . S
C759 C762 1.463 . S
C759 C764 1.350 . S
C759 N767 1.427 . S
C760 H751 0.930 . S
C760 C758 1.378 . S
C760 C761 1.367 . S
C761 C760 1.367 . S
C761 C763 1.433 . S
C762 C758 1.350 . S
C762 C759 1.463 . S
C762 N766 1.427 . S
C763 H753 0.929 . S
C763 C761 1.433 . S
C763 N766 1.384 . S
C764 H755 0.929 . S
C764 C756 1.378 . S
C764 C759 1.350 . S
C765 H752 0.929 . S
C765 C757 1.433 . S
C765 N767 1.384 . S
N766 C762 1.427 . S
N766 C763 1.384 . S
N767 C759 1.427 . S
N767 C765 1.384 . S
H768 C774 0.930 . S
H769 C778 0.930 . S
H770 C783 0.929 . S
H771 C781 0.929 1_455 S
H772 C776 0.929 . S
H773 C782 0.929 . S
C774 H768 0.930 . S
C774 C775 1.367 . S
C774 C782 1.378 . S
C775 C774 1.367 . S
C775 C783 1.433 . S
C776 H772 0.929 . S
C776 C778 1.378 . S
C776 C780 1.350 . S
C777 C780 1.463 . S
C777 C782 1.350 . S
C777 N785 1.427 . S
C778 H769 0.930 . S
C778 C776 1.378 . S
C778 C779 1.367 . S
C779 C778 1.367 . S
C779 C781 1.433 . S
C780 C776 1.350 . S
C780 C777 1.463 . S
C780 N784 1.427 . S
C781 H771 0.929 1_655 S
C781 C779 1.433 . S
C781 N784 1.384 . S
C782 H773 0.929 . S
C782 C774 1.378 . S
C782 C777 1.350 . S
C783 H770 0.929 . S
C783 C775 1.433 . S
C783 N785 1.384 . S
N784 C780 1.427 . S
N784 C781 1.384 . S
N785 C777 1.427 . S
N785 C783 1.384 . S
H786 C792 0.930 . S
H787 C796 0.930 1_556 S
H788 C801 0.929 . S
H789 C799 0.929 . S
H790 C794 0.929 . S
H791 C800 0.929 . S
C792 H786 0.930 . S
C792 C793 1.367 . S
C792 C800 1.378 . S
C793 C792 1.367 . S
C793 C801 1.433 . S
C794 H790 0.929 . S
C794 C796 1.378 . S
C794 C798 1.350 . S
C795 C798 1.463 . S
C795 C800 1.350 . S
C795 N803 1.427 . S
C796 H787 0.930 1_554 S
C796 C794 1.378 . S
C796 C797 1.367 . S
C797 C796 1.367 . S
C797 C799 1.433 . S
C798 C794 1.350 . S
C798 C795 1.463 . S
C798 N802 1.427 . S
C799 H789 0.929 . S
C799 C797 1.433 . S
C799 N802 1.384 . S
C800 H791 0.929 . S
C800 C792 1.378 . S
C800 C795 1.350 . S
C801 H788 0.929 . S
C801 C793 1.433 . S
C801 N803 1.384 . S
N802 C798 1.427 . S
N802 C799 1.384 . S
N803 C795 1.427 . S
N803 C801 1.384 . S
H804 C810 0.930 . S
H805 C814 0.930 . S
H806 C819 0.929 . S
H807 C817 0.929 1_655 S
H808 C812 0.929 . S
H809 C818 0.929 . S
C810 H804 0.930 . S
C810 C811 1.367 . S
C810 C818 1.378 . S
C811 C810 1.367 . S
C811 C819 1.433 . S
C812 H808 0.929 . S
C812 C814 1.378 . S
C812 C816 1.350 . S
C813 C816 1.463 . S
C813 C818 1.350 . S
C813 N821 1.427 . S
C814 H805 0.930 . S
C814 C812 1.378 . S
C814 C815 1.367 . S
C815 C814 1.367 . S
C815 C817 1.433 . S
C816 C812 1.350 . S
C816 C813 1.463 . S
C816 N820 1.427 . S
C817 H807 0.929 1_455 S
C817 C815 1.433 . S
C817 N820 1.384 . S
C818 H809 0.929 . S
C818 C810 1.378 . S
C818 C813 1.350 . S
C819 H806 0.929 . S
C819 C811 1.433 . S
C819 N821 1.384 . S
N820 C816 1.427 . S
N820 C817 1.384 . S
N821 C813 1.427 . S
N821 C819 1.384 . S
H822 C828 0.930 . S
H823 C832 0.930 . S
H824 C837 0.929 . S
H825 C835 0.929 . S
H826 C830 0.929 . S
H827 C836 0.929 . S
C828 H822 0.930 . S
C828 C829 1.367 . S
C828 C836 1.378 . S
C829 C828 1.367 . S
C829 C837 1.433 . S
C830 H826 0.929 . S
C830 C832 1.378 . S
C830 C834 1.350 . S
C831 C834 1.463 . S
C831 C836 1.350 . S
C831 N839 1.427 . S
C832 H823 0.930 . S
C832 C830 1.378 . S
C832 C833 1.367 . S
C833 C832 1.367 . S
C833 C835 1.433 . S
C834 C830 1.350 . S
C834 C831 1.463 . S
C834 N838 1.427 . S
C835 H825 0.929 . S
C835 C833 1.433 . S
C835 N838 1.384 . S
C836 H827 0.929 . S
C836 C828 1.378 . S
C836 C831 1.350 . S
C837 H824 0.929 . S
C837 C829 1.433 . S
C837 N839 1.384 . S
N838 C834 1.427 . S
N838 C835 1.384 . S
N839 C831 1.427 . S
N839 C837 1.384 . S
C415 C1 2.142 . S
C419 C304 2.174 . S
C433 C67 1.122 . S
C437 N324 1.119 . S
C455 C358 1.990 . S
C451 C97 1.952 . S
C469 C133 1.368 . S
C473 N392 1.279 . S
C491 C345 2.347 . S
C487 C25 2.305 . S
C509 N302 1.180 . S
C505 C37 1.209 . S
C527 C379 2.011 . S
C523 C103 1.976 . S
C545 N354 1.046 . S
C541 C109 1.055 . S
C559 C31 1.808 . S
C563 C394 1.855 . S
C581 C328 1.721 . S
C577 C73 1.690 . S
C595 C139 1.502 . S
C599 C289 1.505 . S
C613 C61 1.435 . S
C617 C375 1.470 . S
C635 C315 2.183 . S
C631 C175 2.179 . S
C649 C181 1.119 . S
C653 N332 1.104 . S
C667 C247 2.011 . S
C671 C349 2.009 . S
C685 C277 1.351 . S
C689 N384 1.268 . S
C703 C145 2.339 . S
C707 C334 2.343 . S
C725 N294 1.178 . S
C721 C211 1.203 . S
C743 C388 1.995 . S
C739 C217 1.988 . S
C761 N362 1.070 . S
C757 C283 1.064 . S
C775 C169 1.840 . S
C779 C405 1.849 . S
C797 C319 1.721 . S
C793 C241 1.715 . S
C815 C298 1.496 . S
C811 C253 1.490 . S
C829 C205 1.434 . S
C833 C364 1.474 . S
