# Generated by pormake.
# Topology zzz, (3,6)-cn, num edge types: 1
# Building blocks:
#     Node 0, Type 0, BuildingBlock: ESEHIV_clean_linker_0, # of connection points: 3
#     Node 1, Type 0, BuildingBlock: ESEHIV_clean_linker_0, # of connection points: 3
#     Node 2, Type 0, BuildingBlock: ESEHIV_clean_linker_0, # of connection points: 3
#     Node 3, Type 0, BuildingBlock: ESEHIV_clean_linker_0, # of connection points: 3
#     Node 4, Type 0, BuildingBlock: ESEHIV_clean_linker_0, # of connection points: 3
#     Node 5, Type 0, BuildingBlock: ESEHIV_clean_linker_0, # of connection points: 3
#     Node 6, Type 0, BuildingBlock: ESEHIV_clean_linker_0, # of connection points: 3
#     Node 7, Type 0, BuildingBlock: ESEHIV_clean_linker_0, # of connection points: 3
#     Node 8, Type 1, BuildingBlock: FUNLAD_clean_sbu_0, # of connection points: 6
#     Node 9, Type 1, BuildingBlock: FUNLAD_clean_sbu_0, # of connection points: 6
#     Node 10, Type 1, BuildingBlock: FUNLAD_clean_sbu_0, # of connection points: 6
#     Node 11, Type 1, BuildingBlock: FUNLAD_clean_sbu_0, # of connection points: 6
#     Edge 12, Type (0, 1), BuildingBlock: TEMPAE_clean_linker_10, # of connection points: 2
#     Edge 13, Type (0, 1), BuildingBlock: TEMPAE_clean_linker_10, # of connection points: 2
#     Edge 14, Type (0, 1), BuildingBlock: TEMPAE_clean_linker_10, # of connection points: 2
#     Edge 15, Type (0, 1), BuildingBlock: TEMPAE_clean_linker_10, # of connection points: 2
#     Edge 16, Type (0, 1), BuildingBlock: TEMPAE_clean_linker_10, # of connection points: 2
#     Edge 17, Type (0, 1), BuildingBlock: TEMPAE_clean_linker_10, # of connection points: 2
#     Edge 18, Type (0, 1), BuildingBlock: TEMPAE_clean_linker_10, # of connection points: 2
#     Edge 19, Type (0, 1), BuildingBlock: TEMPAE_clean_linker_10, # of connection points: 2
#     Edge 20, Type (0, 1), BuildingBlock: TEMPAE_clean_linker_10, # of connection points: 2
#     Edge 21, Type (0, 1), BuildingBlock: TEMPAE_clean_linker_10, # of connection points: 2
#     Edge 22, Type (0, 1), BuildingBlock: TEMPAE_clean_linker_10, # of connection points: 2
#     Edge 23, Type (0, 1), BuildingBlock: TEMPAE_clean_linker_10, # of connection points: 2
#     Edge 24, Type (0, 1), BuildingBlock: TEMPAE_clean_linker_10, # of connection points: 2
#     Edge 25, Type (0, 1), BuildingBlock: TEMPAE_clean_linker_10, # of connection points: 2
#     Edge 26, Type (0, 1), BuildingBlock: TEMPAE_clean_linker_10, # of connection points: 2
#     Edge 27, Type (0, 1), BuildingBlock: TEMPAE_clean_linker_10, # of connection points: 2
#     Edge 28, Type (0, 1), BuildingBlock: TEMPAE_clean_linker_10, # of connection points: 2
#     Edge 29, Type (0, 1), BuildingBlock: TEMPAE_clean_linker_10, # of connection points: 2
#     Edge 30, Type (0, 1), BuildingBlock: TEMPAE_clean_linker_10, # of connection points: 2
#     Edge 31, Type (0, 1), BuildingBlock: TEMPAE_clean_linker_10, # of connection points: 2
#     Edge 32, Type (0, 1), BuildingBlock: TEMPAE_clean_linker_10, # of connection points: 2
#     Edge 33, Type (0, 1), BuildingBlock: TEMPAE_clean_linker_10, # of connection points: 2
#     Edge 34, Type (0, 1), BuildingBlock: TEMPAE_clean_linker_10, # of connection points: 2
#     Edge 35, Type (0, 1), BuildingBlock: TEMPAE_clean_linker_10, # of connection points: 2
# Relax obj value: 0.268
# Max RMSD: 0.235
# Mean RMSD: 0.193
data_MOF--net-zzz--node1-FUNLAD_clean_sbu_0--node2-ESEHIV_clean_linker_0--edge1-TEMPAE_clean_linker_10
_symmetry_space_group_name_H-M    P1
_symmetry_Int_Tables_number       1
_symmetry_cell_setting            triclinic
loop_
_symmetry_equiv_pos_as_xyz
'x, y, z'
_cell_length_a     45.537453
_cell_length_b     50.619488
_cell_length_c     17.742845
_cell_angle_alpha  86.086653
_cell_angle_beta   85.994465
_cell_angle_gamma 92.337936
loop_
_atom_site_label
_atom_site_type_symbol
_atom_site_fract_x
_atom_site_fract_y
_atom_site_fract_z
_atom_type_partial_charge
H0 H 0.86091 0.40779 0.2896 0.0
H1 H 0.79689 0.39268 0.12987 0.0
H2 H 0.77232 0.43147 0.33242 0.0
C3 C 0.83827 0.40747 0.27422 0.0
C4 C 0.81706 0.41914 0.32067 0.0
C5 C 0.83131 0.3983 0.20457 0.0
C6 C 0.80214 0.39935 0.18427 0.0
C7 C 0.78056 0.41144 0.2292 0.0
C8 C 0.78828 0.4214 0.29787 0.0
H9 H 0.93938 0.82521 0.19149 0.0
H10 H 0.96553 0.76576 0.04408 0.0
H11 H 0.91833 0.74325 0.26079 0.0
C12 C 0.93948 0.8045 0.17912 0.0
C13 C 0.92613 0.78515 0.23209 0.0
C14 C 0.9543 0.7975 0.11251 0.0
C15 C 0.95507 0.77079 0.09762 0.0
C16 C 0.94213 0.75079 0.15028 0.0
C17 C 0.92779 0.75819 0.21842 0.0
H18 H 0.68959 0.02876 0.19829 0.0
H19 H 0.76187 0.0413 0.03022 0.0
H20 H 0.77416 -0.00081 0.24533 0.0
C21 C 0.71276 0.02699 0.18138 0.0
C22 C 0.73041 0.01317 0.2306 0.0
C23 C 0.72391 0.03712 0.10938 0.0
C24 C 0.75355 0.03396 0.08686 0.0
C25 C 0.77226 0.02064 0.13529 0.0
C26 C 0.76039 0.00996 0.2077 0.0
H27 H 0.54458 0.64614 0.22936 0.0
H28 H 0.56256 0.72622 0.28549 0.0
H29 H 0.51943 0.71062 0.08257 0.0
C30 C 0.54327 0.6673 0.21634 0.0
C31 C 0.52991 0.67644 0.15161 0.0
C32 C 0.55548 0.68512 0.26392 0.0
C33 C 0.55365 0.71253 0.24767 0.0
C34 C 0.54035 0.72204 0.18223 0.0
C35 C 0.52893 0.70372 0.13427 0.0
H36 H 0.16499 0.5754 0.18628 0.0
H37 H 0.23051 0.59281 0.34084 0.0
H38 H 0.25101 0.54501 0.15388 0.0
C39 C 0.18755 0.57505 0.20222 0.0
C40 C 0.20785 0.56105 0.15938 0.0
C41 C 0.19516 0.58589 0.26926 0.0
C42 C 0.22422 0.58403 0.28997 0.0
C43 C 0.24437 0.56871 0.25038 0.0
C44 C 0.23618 0.55757 0.18387 0.0
H45 H 0.09786 0.17304 0.25522 0.0
H46 H 0.06995 0.23624 0.38829 0.0
H47 H 0.12939 0.25315 0.18894 0.0
C48 C 0.09901 0.19388 0.26612 0.0
C49 C 0.11601 0.2119 0.21576 0.0
C50 C 0.08222 0.20246 0.32795 0.0
C51 C 0.08261 0.22949 0.33978 0.0
C52 C 0.09995 0.24781 0.29069 0.0
C53 C 0.11657 0.23903 0.22807 0.0
H54 H 0.34089 0.9754 0.25705 0.0
H55 H 0.26826 0.96382 0.42438 0.0
H56 H 0.25619 0.00368 0.2059 0.0
C57 C 0.31766 0.97716 0.27335 0.0
C58 C 0.30003 0.99038 0.22287 0.0
C59 C 0.30638 0.96755 0.34571 0.0
C60 C 0.27666 0.9707 0.36744 0.0
C61 C 0.25796 0.98333 0.31753 0.0
C62 C 0.26995 0.99345 0.24472 0.0
H63 H 0.49139 0.34693 0.19791 0.0
H64 H 0.45348 0.27065 0.15415 0.0
H65 H 0.50576 0.27858 0.34537 0.0
C66 C 0.48827 0.32579 0.21266 0.0
C67 C 0.50099 0.31457 0.27615 0.0
C68 C 0.47094 0.31018 0.16883 0.0
C69 C 0.46673 0.28286 0.18788 0.0
C70 C 0.47934 0.27155 0.25178 0.0
C71 C 0.49634 0.28741 0.29563 0.0
C72 C 0.02848 0.95609 0.79467 0.0
N73 N 0.97843 0.96819 0.61011 0.0
C74 C 0.99455 0.94911 0.57887 0.0
C75 C 0.98103 0.92936 0.54092 0.0
C76 C 0.95045 0.92873 0.53613 0.0
C77 C 0.93413 0.94862 0.56818 0.0
C78 C 0.94872 0.96849 0.60468 0.0
Zn79 Zn 1.00044 0.99242 0.6777 0.0
C80 C 0.96311 0.00248 0.81931 0.0
N81 N 0.0492 0.03561 0.82872 0.0
C82 C 0.0785 0.03327 0.83721 0.0
C83 C 0.03434 0.05581 0.85784 0.0
C84 C 0.04892 0.07481 0.8964 0.0
C85 C 0.07924 0.07331 0.90445 0.0
C86 C 0.09412 0.05216 0.87473 0.0
Zn87 Zn 0.02675 0.01196 0.76117 0.0
O88 O 0.01308 0.95791 0.73773 0.0
C89 C 0.06428 0.00202 0.62022 0.0
O90 O 0.03869 0.97707 0.82077 0.0
H91 H 0.01127 0.05778 0.84894 0.0
H92 H 0.01786 0.94842 0.586 0.0
H93 H 0.08997 0.01718 0.81312 0.0
O94 O 0.0396 0.99277 0.60178 0.0
O95 O 0.06551 0.01131 0.68481 0.0
H96 H 0.93619 0.98357 0.63074 0.0
O97 O 0.01423 0.04657 0.7006 0.0
O98 O 0.98828 0.02726 0.61831 0.0
O99 O 0.98781 0.01197 0.83689 0.0
O100 O 0.96165 0.99294 0.755 0.0
C101 C 0.99863 0.04829 0.64394 0.0
H102 H 0.99427 0.91408 0.51799 0.0
H103 H 0.91044 0.94866 0.56549 0.0
H104 H 0.03676 0.09105 0.9176 0.0
H105 H 0.11751 0.05035 0.88019 0.0
C106 C 0.47882 0.97527 0.63797 0.0
N107 N 0.50405 0.05504 0.63829 0.0
C108 C 0.50578 0.05447 0.56154 0.0
C109 C 0.49954 0.07675 0.51602 0.0
C110 C 0.49145 0.09991 0.54966 0.0
C111 C 0.48995 0.10004 0.62905 0.0
C112 C 0.49634 0.07722 0.67257 0.0
Zn113 Zn 0.51202 0.02108 0.70021 0.0
C114 C 0.46647 0.00755 0.8279 0.0
N115 N 0.52666 0.94729 0.81871 0.0
C116 C 0.528 0.92366 0.7868 0.0
C117 C 0.52952 0.94891 0.89412 0.0
C118 C 0.53433 0.92637 0.94032 0.0
C119 C 0.53515 0.90152 0.90968 0.0
C120 C 0.53188 0.90042 0.83152 0.0
Zn121 Zn 0.51913 0.98145 0.75589 0.0
O122 O 0.48488 4e-05 0.63195 0.0
C123 C 0.56476 0.99489 0.62822 0.0
O124 O 0.49047 0.9608 0.68798 0.0
H125 H 0.52786 0.96771 0.91908 0.0
H126 H 0.51191 0.03662 0.53539 0.0
H127 H 0.52558 0.92275 0.72683 0.0
O128 O 0.54975 0.01555 0.62502 0.0
O129 O 0.55681 0.97612 0.67799 0.0
H130 H 0.49497 0.07714 0.73369 0.0
O131 O 0.54705 0.00271 0.82209 0.0
O132 O 0.53975 0.04209 0.76916 0.0
O133 O 0.482 0.98725 0.83273 0.0
O134 O 0.4739 0.02591 0.77662 0.0
C135 C 0.55223 0.02761 0.81755 0.0
H136 H 0.50143 0.07594 0.45504 0.0
H137 H 0.48358 0.11747 0.65721 0.0
H138 H 0.53732 0.92858 0.99958 0.0
H139 H 0.53168 0.88178 0.80507 0.0
C140 C 0.53871 0.45916 0.60216 0.0
N141 N 0.46672 0.5073 0.62033 0.0
C142 C 0.47172 0.5099 0.54349 0.0
C143 C 0.44896 0.51608 0.49768 0.0
C144 C 0.42091 0.51985 0.53134 0.0
C145 C 0.41612 0.5171 0.61045 0.0
C146 C 0.43953 0.51067 0.65433 0.0
Zn147 Zn 0.50195 0.4991 0.68223 0.0
C148 C 0.49316 0.4554 0.79395 0.0
N149 N 0.58019 0.48291 0.7932 0.0
C150 C 0.60668 0.47511 0.76438 0.0
C151 C 0.57407 0.48299 0.86943 0.0
C152 C 0.59474 0.47532 0.91969 0.0
C153 C 0.62195 0.46638 0.8923 0.0
C154 C 0.62792 0.46659 0.81315 0.0
Zn155 Zn 0.54557 0.49175 0.72817 0.0
O156 O 0.51492 0.47141 0.60521 0.0
C157 C 0.55421 0.53555 0.61656 0.0
O158 O 0.55771 0.46348 0.64964 0.0
H159 H 0.5527 0.48835 0.89221 0.0
H160 H 0.49351 0.50739 0.51745 0.0
H161 H 0.61104 0.47476 0.70376 0.0
O162 O 0.52691 0.52928 0.61635 0.0
O163 O 0.57013 0.52256 0.66077 0.0
H164 H 0.43607 0.50856 0.71541 0.0
O165 O 0.53266 0.51999 0.80365 0.0
O166 O 0.48945 0.52707 0.76111 0.0
O167 O 0.52042 0.46169 0.79455 0.0
O168 O 0.47753 0.46834 0.74913 0.0
C169 C 0.50868 0.53189 0.80748 0.0
H170 H 0.45325 0.5182 0.43668 0.0
H171 H 0.39457 0.51994 0.63781 0.0
H172 H 0.58915 0.47623 0.97973 0.0
H173 H 0.6484 0.45958 0.78899 0.0
C174 C 0.03566 0.53053 0.62349 0.0
N175 N 0.04419 0.44883 0.64697 0.0
C176 C 0.0404 0.44943 0.57149 0.0
C177 C 0.05265 0.43042 0.52721 0.0
C178 C 0.06925 0.4106 0.56055 0.0
C179 C 0.07344 0.41082 0.63834 0.0
C180 C 0.06057 0.43018 0.68075 0.0
Zn181 Zn 0.02411 0.47671 0.70788 0.0
C182 C 0.06202 0.50118 0.814 0.0
N183 N 0.98168 0.53818 0.82277 0.0
C184 C 0.97413 0.56148 0.78816 0.0
C185 C 0.97845 0.53392 0.89958 0.0
C186 C 0.96752 0.55337 0.94443 0.0
C187 C 0.96109 0.57824 0.91086 0.0
C188 C 0.96425 0.58194 0.83115 0.0
Zn189 Zn 1.00133 0.50978 0.76102 0.0
O190 O 0.04064 0.50601 0.62453 0.0
C191 C 0.96318 0.48539 0.65552 0.0
O192 O 0.01928 0.53902 0.67657 0.0
H193 H 0.98507 0.51565 0.927 0.0
H194 H 0.02742 0.46449 0.54555 0.0
H195 H 0.9767 0.56465 0.72716 0.0
O196 O 0.98569 0.47144 0.64894 0.0
O197 O 0.96302 0.50403 0.7002 0.0
H198 H 0.06342 0.43015 0.74076 0.0
O199 O 0.98457 0.47993 0.84294 0.0
O200 O 0.00704 0.44724 0.79201 0.0
O201 O 0.03933 0.51485 0.82108 0.0
O202 O 0.06241 0.48284 0.76839 0.0
C203 C 0.9902 0.45554 0.84447 0.0
H204 H 0.04836 0.43083 0.46789 0.0
H205 H 0.08635 0.39611 0.66629 0.0
H206 H 0.9648 0.54894 0.00508 0.0
H207 H 0.96025 0.60073 0.80174 0.0
C208 C 0.21338 0.01103 0.3379 0.0
C209 C 0.22652 0.98647 0.34524 0.0
C210 C 0.18566 0.01496 0.37551 0.0
C211 C 0.1708 0.99389 0.42189 0.0
C212 C 0.18332 0.96872 0.42607 0.0
C213 C 0.21077 0.96531 0.38747 0.0
C214 C 0.17293 0.04199 0.36835 0.0
C215 C 0.16842 0.94562 0.47444 0.0
C216 C 0.11925 0.00771 0.59254 0.0
C217 C 0.09135 0.00149 0.56772 0.0
C218 C 0.14511 0.00606 0.54497 0.0
C219 C 0.14321 -0.00172 0.4701 0.0
C220 C 0.11505 0.9928 0.44387 0.0
C221 C 0.08954 0.9943 0.49299 0.0
C222 C 0.17459 0.01186 0.57579 0.0
C223 C 0.11189 0.98478 0.36436 0.0
H224 H 0.22536 0.02754 0.30579 0.0
H225 H 0.22047 0.94612 0.3925 0.0
H226 H 0.14949 0.04026 0.35525 0.0
H227 H 0.17364 0.0513 0.42305 0.0
H228 H 0.18526 0.05532 0.32358 0.0
H229 H 0.18023 0.92701 0.4686 0.0
H230 H 0.16734 0.95016 0.53486 0.0
H231 H 0.14546 0.94224 0.45898 0.0
H232 H 0.12099 0.01333 0.64999 0.0
H233 H 0.06814 0.98963 0.47286 0.0
H234 H 0.18749 0.0272 0.53817 0.0
H235 H 0.18744 0.9937 0.5772 0.0
H236 H 0.17234 0.01882 0.63387 0.0
H237 H 0.12425 -0.00076 0.32277 0.0
H238 H 0.0885 0.98344 0.35036 0.0
H239 H 0.12148 0.96521 0.3577 0.0
C240 C 0.45119 0.23538 0.32952 0.0
C241 C 0.47448 0.24334 0.27623 0.0
C242 C 0.4504 0.21033 0.36879 0.0
C243 C 0.47361 0.19316 0.35432 0.0
C244 C 0.49603 0.20051 0.29639 0.0
C245 C 0.49628 0.2257 0.25822 0.0
C246 C 0.4261 0.2032 0.42995 0.0
C247 C 0.52104 0.18269 0.27898 0.0
C248 C 0.49694 0.14881 0.51804 0.0
C249 C 0.48537 0.12395 0.50174 0.0
C250 C 0.49279 0.17152 0.47103 0.0
C251 C 0.47667 0.16931 0.40612 0.0
C252 C 0.4644 0.14437 0.39011 0.0
C253 C 0.46891 0.12195 0.43817 0.0
C254 C 0.50624 0.19782 0.48998 0.0
C255 C 0.44695 0.14134 0.3217 0.0
H256 H 0.43464 0.24938 0.34386 0.0
H257 H 0.51445 0.23224 0.21756 0.0
H258 H 0.41739 0.18258 0.42633 0.0
H259 H 0.43505 0.20435 0.48629 0.0
H260 H 0.40762 0.21679 0.42643 0.0
H261 H 0.53441 0.18974 0.22612 0.0
H262 H 0.53568 0.18203 0.32645 0.0
H263 H 0.5125 0.16214 0.27328 0.0
H264 H 0.50996 0.1504 0.56652 0.0
H265 H 0.45958 0.1028 0.42594 0.0
H266 H 0.48896 0.21255 0.49506 0.0
H267 H 0.52259 0.20557 0.44362 0.0
H268 H 0.51741 0.19626 0.54369 0.0
H269 H 0.42843 0.15492 0.32261 0.0
H270 H 0.43791 0.12074 0.31887 0.0
H271 H 0.46119 0.14694 0.26927 0.0
C272 C 0.27081 0.55438 0.36368 0.0
C273 C 0.27188 0.56136 0.28553 0.0
C274 C 0.29615 0.54765 0.39945 0.0
C275 C 0.32336 0.54746 0.35599 0.0
C276 C 0.32465 0.55394 0.27679 0.0
C277 C 0.29882 0.56082 0.24236 0.0
C278 C 0.29376 0.54079 0.48399 0.0
C279 C 0.35331 0.55379 0.22872 0.0
C280 C 0.39007 0.55353 0.47133 0.0
C281 C 0.39687 0.52698 0.48369 0.0
C282 C 0.36699 0.56064 0.42671 0.0
C283 C 0.35029 0.54061 0.39454 0.0
C284 C 0.35767 0.51376 0.40567 0.0
C285 C 0.38103 0.50727 0.45005 0.0
C286 C 0.35989 0.58947 0.41595 0.0
C287 C 0.34027 0.49184 0.37285 0.0
H288 H 0.24993 0.55394 0.39719 0.0
H289 H 0.29976 0.5661 0.18198 0.0
H290 H 0.30116 0.52044 0.49636 0.0
H291 H 0.30839 0.55452 0.51208 0.0
H292 H 0.27091 0.54195 0.50952 0.0
H293 H 0.35051 0.55875 0.16776 0.0
H294 H 0.36952 0.5683 0.24825 0.0
H295 H 0.36279 0.53398 0.23502 0.0
H296 H 0.4027 0.56867 0.49711 0.0
H297 H 0.38663 0.48676 0.45965 0.0
H298 H 0.33795 0.5925 0.44452 0.0
H299 H 0.35876 0.59537 0.35488 0.0
H300 H 0.37646 0.60274 0.43937 0.0
H301 H 0.31746 0.49035 0.39972 0.0
H302 H 0.35023 0.4723 0.38178 0.0
H303 H 0.33872 0.49634 0.31123 0.0
C304 C 0.0742 0.28917 0.3118 0.0
C305 C 0.10055 0.27591 0.30767 0.0
C306 C 0.07259 0.3135 0.34459 0.0
C307 C 0.09789 0.32452 0.37505 0.0
C308 C 0.1251 0.31206 0.36622 0.0
C309 C 0.12613 0.28782 0.3322 0.0
C310 C 0.04327 0.32636 0.35173 0.0
C311 C 0.15251 0.32315 0.39804 0.0
C312 C 0.09085 0.39418 0.43897 0.0
C313 C 0.08036 0.38896 0.51513 0.0
C314 C 0.09793 0.37348 0.39309 0.0
C315 C 0.09467 0.34698 0.4243 0.0
C316 C 0.08564 0.34167 0.50207 0.0
C317 C 0.07846 0.36269 0.54638 0.0
C318 C 0.10754 0.37991 0.31049 0.0
C319 C 0.0821 0.31365 0.53771 0.0
H320 H 0.05446 0.27978 0.2928 0.0
H321 H 0.14641 0.2773 0.32956 0.0
H322 H 0.03445 0.32448 0.41186 0.0
H323 H 0.04592 0.34781 0.33399 0.0
H324 H 0.02681 0.31708 0.31711 0.0
H325 H 0.17263 0.31366 0.37604 0.0
H326 H 0.15525 0.34487 0.38445 0.0
H327 H 0.15046 0.3197 0.46066 0.0
H328 H 0.09294 0.41446 0.41469 0.0
H329 H 0.07008 0.35837 0.60478 0.0
H330 H 0.08989 0.37323 0.27513 0.0
H331 H 0.12752 0.36919 0.29425 0.0
H332 H 0.11224 0.40149 0.29706 0.0
H333 H 0.06369 0.30295 0.51321 0.0
H334 H 0.07743 0.31302 0.60012 0.0
H335 H 0.10235 0.30279 0.52526 0.0
C336 C 0.81605 0.99245 0.1094 0.0
C337 C 0.80347 0.01733 0.10597 0.0
C338 C 0.84327 0.98851 0.06929 0.0
C339 C 0.85821 0.00989 0.02429 0.0
C340 C 0.84631 0.03531 0.02407 0.0
C341 C 0.81937 0.03872 0.06516 0.0
C342 C 0.85538 0.96119 0.07238 0.0
C343 C 0.86129 0.05874 0.97731 0.0
C344 C 0.93887 0.00901 0.94845 0.0
C345 C 0.93635 0.00286 0.87302 0.0
C346 C 0.91379 0.01027 0.99916 0.0
C347 C 0.8853 0.00569 0.97389 0.0
C348 C 0.88265 -0.00101 0.89821 0.0
C349 C 0.90812 0.99748 0.84903 0.0
C350 C 0.91777 0.01706 0.07944 0.0
C351 C 0.85279 0.99423 0.86835 0.0
H352 H 0.80394 0.97576 0.14031 0.0
H353 H 0.81009 0.05812 0.06303 0.0
H354 H 0.85393 0.95275 0.0166 0.0
H355 H 0.879 0.96224 0.08416 0.0
H356 H 0.84314 0.94749 0.11635 0.0
H357 H 0.84996 0.07744 0.98597 0.0
H358 H 0.88448 0.06147 0.99167 0.0
H359 H 0.86171 0.05503 0.91632 0.0
H360 H 0.96054 0.01298 0.96798 0.0
H361 H 0.90585 0.99269 0.79104 0.0
H362 H 0.90545 0.00227 0.12007 0.0
H363 H 0.90865 0.03665 0.08893 0.0
H364 H 0.94131 0.01779 0.09227 0.0
H365 H 0.83985 0.97862 0.90489 0.0
H366 H 0.85443 0.98812 0.80929 0.0
H367 H 0.84034 0.0126 0.86984 0.0
C368 C 0.51443 0.76042 0.12608 0.0
C369 C 0.53909 0.75086 0.16062 0.0
C370 C 0.51478 0.78616 0.09184 0.0
C371 C 0.53996 0.80324 0.09494 0.0
C372 C 0.56391 0.79458 0.1355 0.0
C373 C 0.56338 0.76831 0.16711 0.0
C374 C 0.48888 0.79448 0.04841 0.0
C375 C 0.59063 0.81263 0.14258 0.0
C376 C 0.55277 0.85526 0.93067 0.0
C377 C 0.53851 0.87694 0.95929 0.0
C378 C 0.55408 0.83137 0.97497 0.0
C379 C 0.5418 0.82933 0.05078 0.0
C380 C 0.52888 0.85151 0.08157 0.0
C381 C 0.52683 0.87482 0.03513 0.0
C382 C 0.56755 0.80796 0.93956 0.0
C383 C 0.51633 0.85035 0.16286 0.0
H384 H 0.49516 0.74734 0.12302 0.0
H385 H 0.58253 0.76117 0.19374 0.0
H386 H 0.48012 0.81296 0.06927 0.0
H387 H 0.49617 0.79869 0.98761 0.0
H388 H 0.47071 0.779 0.05311 0.0
H389 H 0.60508 0.80442 0.18548 0.0
H390 H 0.60366 0.81544 0.08721 0.0
H391 H 0.58388 0.83246 0.15833 0.0
H392 H 0.56264 0.85675 0.87313 0.0
H393 H 0.5153 0.89108 0.05815 0.0
H394 H 0.55059 0.79158 0.93941 0.0
H395 H 0.58543 0.80046 0.97337 0.0
H396 H 0.57672 0.81297 0.8804 0.0
H397 H 0.49563 0.83783 0.16941 0.0
H398 H 0.51139 0.87032 0.18141 0.0
H399 H 0.53193 0.8412 0.20113 0.0
C400 C 0.73851 0.39825 0.15343 0.0
C401 C 0.75179 0.41684 0.19725 0.0
C402 C 0.71564 0.40517 0.10794 0.0
C403 C 0.70505 0.43105 0.10813 0.0
C404 C 0.71648 0.44914 0.15736 0.0
C405 C 0.73994 0.44193 0.20074 0.0
C406 C 0.70429 0.38534 0.05581 0.0
C407 C 0.70508 0.47664 0.16105 0.0
C408 C 0.6739 0.46076 0.92956 0.0
C409 C 0.64343 0.45664 0.94664 0.0
C410 C 0.69413 0.45221 0.98127 0.0
C411 C 0.68371 0.43981 0.0527 0.0
C412 C 0.65307 0.43562 0.07056 0.0
C413 C 0.63338 0.44361 0.01692 0.0
C414 C 0.72672 0.45654 0.95949 0.0
C415 C 0.64104 0.42286 0.14653 0.0
H416 H 0.74706 0.37861 0.15168 0.0
H417 H 0.75005 0.45654 0.23388 0.0
H418 H 0.67989 0.38337 0.06212 0.0
H419 H 0.71067 0.39246 0.99612 0.0
H420 H 0.71321 0.36544 0.06664 0.0
H421 H 0.71345 0.48698 0.20904 0.0
H422 H 0.71206 0.48862 0.10763 0.0
H423 H 0.68063 0.47575 0.16693 0.0
H424 H 0.68204 0.47103 0.87617 0.0
H425 H 0.61 0.43953 0.03036 0.0
H426 H 0.73772 0.4374 0.96461 0.0
H427 H 0.73684 0.4698 0.99871 0.0
H428 H 0.73126 0.46546 0.90066 0.0
H429 H 0.64836 0.40227 0.15376 0.0
H430 H 0.61657 0.42232 0.1531 0.0
H431 H 0.64975 0.43385 0.19281 0.0
C432 C 0.91984 0.7043 0.15044 0.0
C433 C 0.94377 0.72254 0.13213 0.0
C434 C 0.92016 0.67861 0.12478 0.0
C435 C 0.94449 0.6714 0.07761 0.0
C436 C 0.96913 0.68932 0.06159 0.0
C437 C 0.96877 0.7143 0.09072 0.0
C438 C 0.89411 0.65954 0.14618 0.0
C439 C 0.99542 0.68264 0.01073 0.0
C440 C 0.96382 0.60214 0.03078 0.0
C441 C 0.95314 0.60057 0.95854 0.0
C442 C 0.95881 0.6241 0.07327 0.0
C443 C 0.94406 0.64574 0.04151 0.0
C444 C 0.93225 0.64402 0.97023 0.0
C445 C 0.93631 0.62123 0.93054 0.0
C446 C 0.97067 0.62467 0.15057 0.0
C447 C 0.91692 0.66692 0.93356 0.0
H448 H 0.90043 0.71033 0.18253 0.0
H449 H 0.9879 0.72776 0.07882 0.0
H450 H 0.88087 0.65756 0.09658 0.0
H451 H 0.90161 0.63956 0.16327 0.0
H452 H 0.8796 0.66636 0.19327 0.0
H453 H 0.01245 0.69913 0.00231 0.0
H454 H 0.00571 0.66483 0.0351 0.0
H455 H 0.9882 0.67794 0.95448 0.0
H456 H 0.97722 0.58678 0.05359 0.0
H457 H 0.92692 0.62008 0.87641 0.0
H458 H 0.95457 0.63308 0.19119 0.0
H459 H 0.99114 0.63748 0.14679 0.0
H460 H 0.97592 0.60457 0.1735 0.0
H461 H 0.89872 0.67307 0.97238 0.0
H462 H 0.90779 0.662 0.87951 0.0
H463 H 0.93277 0.6842 0.92177 0.0
C464 C 0.03449 0.18653 0.39869 0.0
C465 C 0.06436 0.18283 0.37931 0.0
C466 C 0.01708 0.16691 0.44301 0.0
C467 C 0.03003 0.14329 0.46852 0.0
C468 C 0.06034 0.13979 0.45018 0.0
C469 C 0.07708 0.1596 0.40578 0.0
C470 C 0.98483 0.17119 0.4612 0.0
C471 C 0.07515 0.11502 0.47706 0.0
C472 C 0.00518 0.09732 0.63776 0.0
C473 C 0.99713 0.07441 0.60247 0.0
C474 C 0.01294 0.12116 0.59505 0.0
C475 C 0.01255 0.122 0.51531 0.0
C476 C 1.00087 0.0999 0.48049 0.0
C477 C 0.99323 0.07624 0.5247 0.0
C478 C 0.02489 0.14434 0.63461 0.0
C479 C 0.99963 0.10021 0.39567 0.0
H480 H 0.02461 0.20443 0.3775 0.0
H481 H 0.10025 0.15689 0.39141 0.0
H482 H 0.97127 0.15645 0.43367 0.0
H483 H 0.97923 0.1681 0.52311 0.0
H484 H 0.97865 0.19139 0.44157 0.0
H485 H 0.09896 0.11556 0.45813 0.0
H486 H 0.07292 0.11244 0.53983 0.0
H487 H 0.06429 0.09735 0.45532 0.0
H488 H 0.00767 0.09612 0.69824 0.0
H489 H 0.98676 0.05864 0.49723 0.0
H490 H 0.01712 0.16332 0.61007 0.0
H491 H 0.04932 0.14528 0.62688 0.0
H492 H 0.01841 0.14246 0.69635 0.0
H493 H 0.99202 0.11942 0.37235 0.0
H494 H 0.9848 0.08395 0.37917 0.0
H495 H 0.02207 0.09768 0.36925 0.0
C496 C 0.32839 0.96844 0.47022 0.0
C497 C 0.32701 0.95725 0.40046 0.0
C498 C 0.35255 0.96453 0.51385 0.0
C499 C 0.37572 0.94899 0.48693 0.0
C500 C 0.37273 0.93521 0.42098 0.0
C501 C 0.34842 0.93962 0.37817 0.0
C502 C 0.35476 0.97942 0.58428 0.0
C503 C 0.39655 0.91792 0.39146 0.0
C504 C 0.44967 0.97931 0.52546 0.0
C505 C 0.45605 0.96462 0.59162 0.0
C506 C 0.42442 0.97329 0.48839 0.0
C507 C 0.405 0.95197 0.51819 0.0
C508 C 0.41249 0.93572 0.58155 0.0
C509 C 0.43806 0.94227 0.61776 0.0
C510 C 0.41755 0.99098 0.4203 0.0
C511 C 0.39261 0.91257 0.61415 0.0
H512 H 0.3119 0.9821 0.48759 0.0
H513 H 0.3471 0.9306 0.32474 0.0
H514 H 0.36252 0.96645 0.63102 0.0
H515 H 0.37108 0.99634 0.57232 0.0
H516 H 0.33331 0.9873 0.6036 0.0
H517 H 0.38818 0.90418 0.3508 0.0
H518 H 0.41479 0.93064 0.36176 0.0
H519 H 0.40578 0.90617 0.43857 0.0
H520 H 0.46377 0.99641 0.50453 0.0
H521 H 0.44292 0.93087 0.669 0.0
H522 H 0.39751 0.00197 0.43434 0.0
H523 H 0.41293 0.97892 0.37223 0.0
H524 H 0.43589 0.00562 0.40152 0.0
H525 H 0.37377 0.92001 0.64834 0.0
H526 H 0.40439 0.89871 0.65142 0.0
H527 H 0.38349 0.9015 0.56854 0.0
C528 C 0.53828 0.35089 0.29371 0.0
C529 C 0.51685 0.33187 0.32523 0.0
C530 C 0.54947 0.37051 0.33745 0.0
C531 C 0.53833 0.37139 0.41369 0.0
C532 C 0.51847 0.35093 0.44721 0.0
C533 C 0.5081 0.33129 0.40254 0.0
C534 C 0.57132 0.39147 0.30026 0.0
C535 C 0.50587 0.35123 0.52816 0.0
C536 C 0.56395 0.41994 0.55237 0.0
C537 C 0.54247 0.43891 0.54653 0.0
C538 C 0.56425 0.39847 0.50594 0.0
C539 C 0.54238 0.39598 0.45353 0.0
C540 C 0.5219 0.41602 0.44431 0.0
C541 C 0.52235 0.43727 0.49051 0.0
C542 C 0.58692 0.37784 0.51574 0.0
C543 C 0.49823 0.41426 0.38892 0.0
H544 H 0.54537 0.35106 0.23403 0.0
H545 H 0.49147 0.31661 0.42685 0.0
H546 H 0.55955 0.40952 0.28398 0.0
H547 H 0.58796 0.39709 0.3398 0.0
H548 H 0.58285 0.38468 0.2483 0.0
H549 H 0.49369 0.33231 0.5483 0.0
H550 H 0.5236 0.35493 0.56641 0.0
H551 H 0.49045 0.36758 0.53257 0.0
H552 H 0.57971 0.42121 0.59517 0.0
H553 H 0.50599 0.45211 0.48463 0.0
H554 H 0.59565 0.37169 0.45996 0.0
H555 H 0.57648 0.35998 0.54818 0.0
H556 H 0.60559 0.38518 0.54689 0.0
H557 H 0.50824 0.41169 0.33125 0.0
H558 H 0.48489 0.43214 0.38637 0.0
H559 H 0.48322 0.3967 0.40567 0.0
C560 C 0.17217 0.58372 0.40144 0.0
C561 C 0.17142 0.59309 0.32528 0.0
C562 C 0.14675 0.58233 0.45077 0.0
C563 C 0.11983 0.59029 0.42318 0.0
C564 C 0.1198 0.60328 0.35003 0.0
C565 C 0.14568 0.6045 0.30162 0.0
C566 C 0.14803 0.56891 0.52914 0.0
C567 C 0.09184 0.61328 0.31991 0.0
C568 C 0.06228 0.53811 0.497 0.0
C569 C 0.05107 0.54863 0.56349 0.0
C570 C 0.08264 0.55273 0.44644 0.0
C571 C 0.092 0.57863 0.46274 0.0
C572 C 0.07824 0.59048 0.52527 0.0
C573 C 0.05788 0.57522 0.57543 0.0
C574 C 0.09628 0.53935 0.37972 0.0
C575 C 0.08671 0.61835 0.54307 0.0
H576 H 0.19176 0.57484 0.42102 0.0
H577 H 0.1451 0.6126 0.24361 0.0
H578 H 0.13555 0.57987 0.57187 0.0
H579 H 0.13777 0.54858 0.53074 0.0
H580 H 0.17103 0.56738 0.54557 0.0
H581 H 0.09669 0.62927 0.27415 0.0
H582 H 0.07966 0.59676 0.29594 0.0
H583 H 0.07726 0.62083 0.3656 0.0
H584 H 0.05646 0.51774 0.48666 0.0
H585 H 0.04894 0.58356 0.62637 0.0
H586 H 0.11967 0.53557 0.38874 0.0
H587 H 0.0959 0.55231 0.3269 0.0
H588 H 0.0847 0.52012 0.3715 0.0
H589 H 0.10537 0.61788 0.58005 0.0
H590 H 0.06809 0.6275 0.57391 0.0
H591 H 0.09372 0.63105 0.49094 0.0
C592 C 0.95542 0.84122 0.03893 0.0
C593 C 0.96982 0.81829 0.0602 0.0
C594 C 0.97029 0.862 0.99389 0.0
C595 C 1.00039 0.85982 0.97001 0.0
C596 C 0.01502 0.83658 0.99064 0.0
C597 C 0.99946 0.81596 0.0354 0.0
C598 C 0.95378 0.88636 0.97217 0.0
C599 C 0.04712 0.83374 0.96666 0.0
C600 C 0.02124 0.90713 0.8005 0.0
C601 C 0.03001 0.92988 0.83559 0.0
C602 C 0.01408 0.88317 0.84302 0.0
C603 C 0.01595 0.88198 0.92236 0.0
C604 C 0.02805 0.90399 0.95674 0.0
C605 C 0.03498 0.92782 0.91275 0.0
C606 C 1.00147 0.86011 0.80402 0.0
C607 C 0.03088 0.90325 0.04109 0.0
H608 H 0.93244 0.8429 0.05782 0.0
H609 H 0.01067 0.79831 0.05279 0.0
H610 H 0.96448 0.90411 0.99384 0.0
H611 H 0.95443 0.88963 0.90959 0.0
H612 H 0.93036 0.88473 0.99489 0.0
H613 H 0.05494 0.81399 0.98517 0.0
H614 H 0.05087 0.83675 0.90416 0.0
H615 H 0.06072 0.84923 0.99109 0.0
H616 H 0.01787 0.90852 0.74046 0.0
H617 H 0.04196 0.9453 0.94004 0.0
H618 H 0.9772 0.85853 0.81644 0.0
H619 H 0.01041 0.8412 0.82533 0.0
H620 H 0.00615 0.8626 0.74158 0.0
H621 H 0.00878 0.90493 0.07051 0.0
H622 H 0.04553 0.91979 0.0567 0.0
H623 H 0.0396 0.88419 0.0621 0.0
C624 C 0.68135 0.06476 0.07904 0.0
C625 C 0.7032 0.04776 0.05529 0.0
C626 C 0.65697 0.06916 0.03646 0.0
C627 C 0.65442 0.05605 0.96918 0.0
C628 C 0.67809 0.04139 0.94072 0.0
C629 C 0.70226 0.03743 0.98422 0.0
C630 C 0.63262 0.08557 0.06758 0.0
C631 C 0.6764 0.02731 0.86871 0.0
C632 C 0.58173 0.02368 0.92937 0.0
C633 C 0.5747 0.03857 0.86418 0.0
C634 C 0.6067 0.0303 0.96677 0.0
C635 C 0.62517 0.05245 0.93827 0.0
C636 C 0.61694 0.06885 0.87606 0.0
C637 C 0.59166 0.06168 0.83948 0.0
C638 C 0.61437 0.01242 0.03367 0.0
C639 C 0.63576 0.09286 0.84492 0.0
H640 H 0.68235 0.07321 0.13339 0.0
H641 H 0.71909 0.02428 0.96557 0.0
H642 H 0.6229 0.09739 0.02141 0.0
H643 H 0.61484 0.07221 0.09685 0.0
H644 H 0.64065 0.09917 0.10903 0.0
H645 H 0.69816 0.02027 0.84842 0.0
H646 H 0.66069 0.00988 0.87917 0.0
H647 H 0.66815 0.04053 0.82323 0.0
H648 H 0.56838 0.00602 0.94928 0.0
H649 H 0.58626 0.07326 0.78906 0.0
H650 H 0.61847 0.02422 0.08259 0.0
H651 H 0.63489 0.00225 0.01868 0.0
H652 H 0.59665 0.99708 0.05162 0.0
H653 H 0.64485 0.10361 0.89118 0.0
H654 H 0.62315 0.10674 0.80983 0.0
H655 H 0.65463 0.08643 0.80873 0.0
C656 C 0.50039 0.6354 0.12908 0.0
C657 C 0.51849 0.65734 0.10015 0.0
C658 C 0.4925 0.61542 0.08237 0.0
C659 C 0.50349 0.6173 0.00549 0.0
C660 C 0.52023 0.64024 0.97504 0.0
C661 C 0.52744 0.66007 0.0228 0.0
C662 C 0.47415 0.5915 0.11653 0.0
C663 C 0.53261 0.64288 0.89352 0.0
C664 C 0.52594 0.55507 0.91608 0.0
C665 C 0.50468 0.552 0.86342 0.0
C666 C 0.52505 0.57571 0.96437 0.0
C667 C 0.50213 0.59367 0.96066 0.0
C668 C 0.47964 0.58993 0.91064 0.0
C669 C 0.48123 0.5691 0.86213 0.0
C670 C 0.54949 0.57895 0.01696 0.0
C671 C 0.4546 0.60847 0.90636 0.0
H672 H 0.4931 0.63353 0.18879 0.0
H673 H 0.54153 0.677 1.00051 0.0
H674 H 0.45733 0.58554 0.07788 0.0
H675 H 0.48856 0.57456 0.12518 0.0
H676 H 0.4629 0.59524 0.17213 0.0
H677 H 0.54207 0.66316 0.87645 0.0
H678 H 0.55026 0.62862 0.88558 0.0
H679 H 0.5153 0.638 0.85509 0.0
H680 H 0.54395 0.54174 0.91823 0.0
H681 H 0.46466 0.56673 0.82183 0.0
H682 H 0.54015 0.57959 0.07619 0.0
H683 H 0.56211 0.59799 0.00138 0.0
H684 H 0.56506 0.56263 0.01482 0.0
H685 H 0.43691 0.60081 0.87252 0.0
H686 H 0.46304 0.62804 0.87983 0.0
H687 H 0.44497 0.61171 0.96401 0.0
C688 C 0.85476 0.40461 0.07301 0.0
C689 C 0.85546 0.39322 0.14719 0.0
C690 C 0.87998 0.40654 0.02305 0.0
C691 C 0.90674 0.39709 0.04803 0.0
C692 C 0.90681 0.38275 0.11931 0.0
C693 C 0.8811 0.38105 0.16839 0.0
C694 C 0.87872 0.42168 0.94697 0.0
C695 C 0.9346 0.37147 0.14683 0.0
C696 C 0.96707 0.41119 0.8916 0.0
C697 C 0.97529 0.43736 0.90484 0.0
C698 C 0.94681 0.39621 0.94262 0.0
C699 C 0.93471 0.40789 0.00743 0.0
C700 C 0.94568 0.43316 0.02491 0.0
C701 C 0.96581 0.44758 0.97326 0.0
C702 C 0.93646 0.36897 0.92343 0.0
C703 C 0.93386 0.44628 0.0941 0.0
H704 H 0.83527 0.41428 0.05578 0.0
H705 H 0.88164 0.37162 0.22498 0.0
H706 H 0.89002 0.44149 0.94812 0.0
H707 H 0.89024 0.41117 0.90158 0.0
H708 H 0.85571 0.42456 0.93218 0.0
H709 H 0.92951 0.35471 0.19016 0.0
H710 H 0.94879 0.36455 0.09939 0.0
H711 H 0.94732 0.38709 0.17322 0.0
H712 H 0.97469 0.40313 0.83901 0.0
H713 H 0.97277 0.46759 0.98439 0.0
H714 H 0.91632 0.37056 0.89194 0.0
H715 H 0.93089 0.35571 0.97532 0.0
H716 H 0.95345 0.35978 0.88693 0.0
H717 H 0.91073 0.45158 0.08721 0.0
H718 H 0.94693 0.46463 0.10346 0.0
H719 H 0.93387 0.43253 0.14545 0.0
C720 C 0.11571 0.2059 0.07915 0.0
C721 C 0.12951 0.20147 0.14657 0.0
C722 C 0.1161 0.18678 0.02548 0.0
C723 C 0.13062 0.16295 0.04042 0.0
C724 C 0.14898 0.16085 0.10146 0.0
C725 C 0.14816 0.18024 0.15425 0.0
C726 C 0.09711 0.19022 0.9595 0.0
C727 C 0.16574 0.13627 0.11784 0.0
C728 C 0.08271 0.10223 0.01147 0.0
C729 C 0.09487 0.09426 0.94253 0.0
C730 C 0.09485 0.12405 0.04461 0.0
C731 C 0.11984 0.13839 0.00775 0.0
C732 C 0.13307 0.12972 0.93972 0.0
C733 C 0.12037 0.10768 0.90775 0.0
C734 C 0.08027 0.13219 0.11819 0.0
C735 C 0.15974 0.14428 0.89879 0.0
H736 H 0.10137 0.2224 0.07314 0.0
H737 H 0.15902 0.17697 0.20637 0.0
H738 H 0.10781 0.18238 0.9081 0.0
H739 H 0.07579 0.17893 0.97343 0.0
H740 H 0.09248 0.21138 0.94671 0.0
H741 H 0.18406 0.14025 0.15432 0.0
H742 H 0.15055 0.12071 0.14801 0.0
H743 H 0.17484 0.12839 0.06467 0.0
H744 H 0.06325 0.09161 0.03884 0.0
H745 H 0.12967 0.10162 0.85406 0.0
H746 H 0.07221 0.1525 0.11004 0.0
H747 H 0.09645 0.13247 0.16208 0.0
H748 H 0.06133 0.1186 0.13991 0.0
H749 H 0.15252 0.16166 0.8645 0.0
H750 H 0.17176 0.13145 0.8599 0.0
H751 H 0.17515 0.15169 0.93912 0.0
C752 C 0.31407 0.98684 0.08531 0.0
C753 C 0.31505 0.00134 0.14965 0.0
C754 C 0.3361 0.99089 0.02512 0.0
C755 C 0.35988 0.00958 0.03007 0.0
C756 C 0.35946 0.0258 0.09214 0.0
C757 C 0.33705 0.0215 0.15093 0.0
C758 C 0.33529 0.97348 0.95954 0.0
C759 C 0.38424 0.04586 0.10052 0.0
C760 C 0.43538 0.9919 0.94606 0.0
C761 C 0.4395 0.00898 0.88009 0.0
C762 C 0.40972 0.99205 0.99495 0.0
C763 C 0.38712 0.00943 0.97727 0.0
C764 C 0.39106 0.02671 0.91065 0.0
C765 C 0.41727 0.02645 0.86322 0.0
C766 C 0.40684 0.97356 0.06588 0.0
C767 C 0.36745 0.04528 0.88911 0.0
H768 H 0.29751 0.97086 0.0848 0.0
H769 H 0.3382 0.03237 0.20135 0.0
H770 H 0.34112 0.98525 0.9051 0.0
H771 H 0.35177 0.95807 0.96559 0.0
H772 H 0.31326 0.96343 0.95712 0.0
H773 H 0.37858 0.05945 0.14541 0.0
H774 H 0.40416 0.03534 0.11561 0.0
H775 H 0.38997 0.05783 0.04641 0.0
H776 H 0.45239 0.97838 0.95986 0.0
H777 H 0.42008 0.03956 0.8121 0.0
H778 H 0.38721 0.9599 0.06505 0.0
H779 H 0.40359 0.98512 0.11652 0.0
H780 H 0.42652 0.96156 0.07209 0.0
H781 H 0.34662 0.03376 0.88279 0.0
H782 H 0.37372 0.05736 0.83533 0.0
H783 H 0.36294 0.05882 0.9347 0.0
C784 C 0.47042 0.31933 0.02984 0.0
C785 C 0.45836 0.32332 0.10259 0.0
C786 C 0.46787 0.33847 0.96987 0.0
C787 C 0.45311 0.36195 0.984 0.0
C788 C 0.43708 0.36388 0.0545 0.0
C789 C 0.44008 0.34453 0.1134 0.0
C790 C 0.48454 0.33532 0.89479 0.0
C791 C 0.42042 0.3882 0.07139 0.0
C792 C 0.49628 0.42434 0.90667 0.0
C793 C 0.48078 0.43271 0.84458 0.0
C794 C 0.48708 0.40161 0.95258 0.0
C795 C 0.46165 0.38664 0.93601 0.0
C796 C 0.4453 0.39532 0.87463 0.0
C797 C 0.45508 0.41839 0.82945 0.0
C798 C 0.50503 0.39343 0.01823 0.0
C799 C 0.4182 0.37987 0.855 0.0
H800 H 0.48449 0.30282 0.02169 0.0
H801 H 0.43057 0.34739 0.16987 0.0
H802 H 0.47203 0.34303 0.8472 0.0
H803 H 0.50588 0.34689 0.89208 0.0
H804 H 0.4892 0.31425 0.88723 0.0
H805 H 0.40399 0.38414 0.12054 0.0
H806 H 0.4362 0.40416 0.08514 0.0
H807 H 0.40895 0.39563 0.02158 0.0
H808 H 0.516 0.43548 0.91912 0.0
H809 H 0.44315 0.42473 0.78111 0.0
H810 H 0.51373 0.37355 0.01072 0.0
H811 H 0.49095 0.3921 0.07208 0.0
H812 H 0.52396 0.40756 0.02376 0.0
H813 H 0.42502 0.36229 0.82525 0.0
H814 H 0.40467 0.39194 0.81726 0.0
H815 H 0.40434 0.37259 0.90675 0.0
C816 C 0.18157 0.52232 0.11307 0.0
C817 C 0.19694 0.54676 0.09655 0.0
C818 C 0.1634 0.51181 0.06076 0.0
C819 C 0.16065 0.52619 0.99046 0.0
C820 C 0.17829 0.54973 0.97109 0.0
C821 C 0.19606 0.55992 0.02491 0.0
C822 C 0.14491 0.48677 0.08406 0.0
C823 C 0.1763 0.56548 0.89644 0.0
C824 C 0.11471 0.4955 0.84429 0.0
C825 C 0.08751 0.50697 0.85882 0.0
C826 C 0.13893 0.50162 0.88619 0.0
C827 C 0.13572 0.51939 0.9442 0.0
C828 C 0.10824 0.53081 0.95934 0.0
C829 C 0.0846 0.52455 0.91638 0.0
C830 C 0.16794 0.48922 0.86826 0.0
C831 C 0.10371 0.54968 0.02119 0.0
H832 H 0.18201 0.51245 0.16918 0.0
H833 H 0.20771 0.57902 0.01289 0.0
H834 H 0.12185 0.49196 0.09858 0.0
H835 H 0.14458 0.4735 0.0369 0.0
H836 H 0.15307 0.47578 0.13419 0.0
H837 H 0.19496 0.58035 0.88448 0.0
H838 H 0.17601 0.5522 0.84926 0.0
H839 H 0.15545 0.5761 0.89785 0.0
H840 H 0.11715 0.48196 0.79974 0.0
H841 H 0.06366 0.53343 0.92833 0.0
H842 H 0.17465 0.47771 0.91917 0.0
H843 H 0.18539 0.50495 0.85236 0.0
H844 H 0.16688 0.47586 0.82129 0.0
H845 H 0.10854 0.53986 0.0765 0.0
H846 H 0.08087 0.55662 0.02616 0.0
H847 H 0.11915 0.56724 0.0098 0.0
C848 C 0.8911 0.81246 0.30106 0.0
C849 C 0.91363 0.79444 0.30395 0.0
C850 C 0.88879 0.83209 0.35299 0.0
C851 C 0.90961 0.83356 0.40828 0.0
C852 C 0.92898 0.81263 0.41903 0.0
C853 C 0.9308 0.79319 0.36632 0.0
C854 C 0.8671 0.85346 0.34112 0.0
C855 C 0.95093 0.81298 0.47885 0.0
C856 C 0.94731 0.90044 0.42783 0.0
C857 C 0.93624 0.90661 0.4997 0.0
C858 C 0.93781 0.87722 0.3966 0.0
C859 C 0.91674 0.85957 0.4386 0.0
C860 C 0.90429 0.86639 0.50968 0.0
C861 C 0.91422 0.88994 0.53951 0.0
C862 C 0.95132 0.8711 0.31978 0.0
C863 C 0.88172 0.84829 0.55608 0.0
H864 H 0.87778 0.81334 0.25266 0.0
H865 H 0.94824 0.77926 0.3684 0.0
H866 H 0.85845 0.86042 0.39596 0.0
H867 H 0.87839 0.87067 0.30732 0.0
H868 H 0.84832 0.84638 0.30992 0.0
H869 H 0.96003 0.79317 0.48992 0.0
H870 H 0.96947 0.82729 0.45941 0.0
H871 H 0.94066 0.81947 0.53263 0.0
H872 H 0.96418 0.91348 0.39696 0.0
H873 H 0.90585 0.89464 0.5955 0.0
H874 H 0.93378 0.8677 0.28071 0.0
H875 H 0.96368 0.8527 0.32514 0.0
H876 H 0.96665 0.88735 0.2937 0.0
H877 H 0.86618 0.83874 0.51966 0.0
H878 H 0.86895 0.85914 0.59876 0.0
H879 H 0.89316 0.83234 0.58665 0.0
C880 C 0.71693 0.01549 0.36906 0.0
C881 C 0.71544 0.00171 0.30346 0.0
C882 C 0.69504 0.01119 0.42956 0.0
C883 C 0.67085 0.993 0.4237 0.0
C884 C 0.67073 0.97748 0.36018 0.0
C885 C 0.69302 0.98198 0.30112 0.0
C886 C 0.69646 0.02785 0.49663 0.0
C887 C 0.6455 0.95799 0.35071 0.0
C888 C 0.61352 0.97545 0.59055 0.0
C889 C 0.59163 0.99347 0.57552 0.0
C890 C 0.63961 0.97521 0.54256 0.0
C891 C 0.64377 0.99311 0.47721 0.0
C892 C 0.62151 0.01106 0.4614 0.0
C893 C 0.59598 0.01115 0.51081 0.0
C894 C 0.66286 0.95601 0.56214 0.0
C895 C 0.62459 0.03022 0.39189 0.0
H896 H 0.73381 0.03114 0.37048 0.0
H897 H 0.69146 0.97169 0.2498 0.0
H898 H 0.68031 0.04361 0.49224 0.0
H899 H 0.69054 0.01564 0.55028 0.0
H900 H 0.71871 0.03742 0.49939 0.0
H901 H 0.65072 0.9448 0.30452 0.0
H902 H 0.6397 0.94558 0.40401 0.0
H903 H 0.62577 0.96903 0.33693 0.0
H904 H 0.61054 0.96187 0.64068 0.0
H905 H 0.57923 0.02511 0.49837 0.0
H906 H 0.68395 0.96706 0.56894 0.0
H907 H 0.66693 0.94288 0.51532 0.0
H908 H 0.65649 0.94352 0.61513 0.0
H909 H 0.64451 0.04349 0.39348 0.0
H910 H 0.60516 0.04264 0.38705 0.0
H911 H 0.62746 0.01917 0.34015 0.0
C912 C 0.55299 0.67227 0.40144 0.0
C913 C 0.56911 0.67388 0.33116 0.0
C914 C 0.55866 0.65271 0.45786 0.0
C915 C 0.5808 0.63448 0.44271 0.0
C916 C 0.59995 0.63881 0.37633 0.0
C917 C 0.59369 0.65841 0.32078 0.0
C918 C 0.53821 0.6492 0.52879 0.0
C919 C 0.62438 0.62042 0.35903 0.0
C920 C 0.58648 0.57707 0.59119 0.0
C921 C 0.56594 0.55867 0.56701 0.0
C922 C 0.59275 0.60167 0.54986 0.0
C923 C 0.57813 0.60768 0.48323 0.0
C924 C 0.55887 0.58831 0.45643 0.0
C925 C 0.55301 0.56416 0.49875 0.0
C926 C 0.61356 0.62163 0.58007 0.0
C927 C 0.54313 0.59352 0.38492 0.0
H928 H 0.53395 0.68425 0.40917 0.0
H929 H 0.60616 0.65979 0.26617 0.0
H930 H 0.52163 0.63292 0.52287 0.0
H931 H 0.55054 0.6437 0.57882 0.0
H932 H 0.52634 0.66751 0.53913 0.0
H933 H 0.64124 0.62987 0.31619 0.0
H934 H 0.63524 0.61423 0.41103 0.0
H935 H 0.615 0.60231 0.33607 0.0
H936 H 0.5963 0.57291 0.64442 0.0
H937 H 0.53731 0.54981 0.47976 0.0
H938 H 0.6006 0.63567 0.61271 0.0
H939 H 0.62679 0.63332 0.53348 0.0
H940 H 0.62873 0.61188 0.61854 0.0
H941 H 0.52818 0.6101 0.39181 0.0
H942 H 0.52984 0.57591 0.37056 0.0
H943 H 0.55928 0.59943 0.33638 0.0
C944 C 0.8348 0.41714 0.45016 0.0
C945 C 0.82723 0.43239 0.38628 0.0
C946 C 0.85257 0.42812 0.50269 0.0
C947 C 0.86364 0.45475 0.48951 0.0
C948 C 0.8541 0.47074 0.42804 0.0
C949 C 0.83585 0.45935 0.37721 0.0
C950 C 0.86171 0.41051 0.56826 0.0
C951 C 0.86556 0.49908 0.41127 0.0
C952 C 0.90895 0.48549 0.63701 0.0
C953 C 0.93757 0.47936 0.61161 0.0
C954 C 0.88449 0.47779 0.59784 0.0
C955 C 0.88894 0.46416 0.53112 0.0
C956 C 0.91794 0.45873 0.50415 0.0
C957 C 0.94179 0.46616 0.54507 0.0
C958 C 0.8539 0.48353 0.62892 0.0
C959 C 0.92382 0.4447 0.43245 0.0
H960 H 0.82839 0.39619 0.45635 0.0
H961 H 0.83038 0.47094 0.32686 0.0
H962 H 0.8847 0.40473 0.55602 0.0
H963 H 0.86108 0.4212 0.62085 0.0
H964 H 0.84733 0.39217 0.57837 0.0
H965 H 0.85242 0.51 0.36995 0.0
H966 H 0.86542 0.50976 0.46381 0.0
H967 H 0.88873 0.49928 0.38713 0.0
H968 H 0.90559 0.49554 0.68875 0.0
H969 H 0.9639 0.46156 0.52484 0.0
H970 H 0.84127 0.4646 0.64587 0.0
H971 H 0.84191 0.49416 0.58467 0.0
H972 H 0.85425 0.49561 0.67887 0.0
H973 H 0.91345 0.42439 0.43952 0.0
H974 H 0.94775 0.4432 0.41725 0.0
H975 H 0.91389 0.45537 0.3845 0.0
loop_
_geom_bond_atom_site_label_1
_geom_bond_atom_site_label_2
_geom_bond_distance
_geom_bond_site_symmetry_2
_ccdc_geom_bond_type
H0 C3 0.931 . S
H1 C6 0.928 . S
H2 C8 0.930 . S
C3 H0 0.931 . S
C3 C4 1.413 . S
C3 C5 1.360 . S
C4 C3 1.413 . S
C4 C8 1.429 . S
C5 C3 1.360 . S
C5 C6 1.372 . S
C6 H1 0.928 . S
C6 C5 1.372 . S
C6 C7 1.404 . S
C7 C6 1.404 . S
C7 C8 1.391 . S
C8 H2 0.930 . S
C8 C4 1.429 . S
C8 C7 1.391 . S
H9 C12 0.931 . S
H10 C15 0.928 . S
H11 C17 0.930 . S
C12 H9 0.931 . S
C12 C13 1.413 . S
C12 C14 1.360 1_554 S
C13 C12 1.413 . S
C13 C17 1.429 . S
C14 C12 1.360 1_556 S
C14 C15 1.372 . S
C15 H10 0.928 . S
C15 C14 1.372 . S
C15 C16 1.404 . S
C16 C15 1.404 . S
C16 C17 1.391 1_556 S
C17 H11 0.930 . S
C17 C13 1.429 . S
C17 C16 1.391 1_554 S
H18 C21 0.931 . S
H19 C24 0.928 1_556 S
H20 C26 0.929 . S
C21 H18 0.931 . S
C21 C22 1.413 . S
C21 C23 1.360 . S
C22 C21 1.413 . S
C22 C26 1.430 1_565 S
C23 C21 1.360 . S
C23 C24 1.374 . S
C24 H19 0.928 1_554 S
C24 C23 1.374 . S
C24 C25 1.405 . S
C25 C24 1.405 . S
C25 C26 1.389 1_565 S
C26 H20 0.929 . S
C26 C22 1.430 1_545 S
C26 C25 1.389 1_545 S
H27 C30 0.931 . S
H28 C33 0.928 . S
H29 C35 0.930 1_556 S
C30 H27 0.931 . S
C30 C31 1.413 . S
C30 C32 1.360 . S
C31 C30 1.413 . S
C31 C35 1.429 . S
C32 C30 1.360 . S
C32 C33 1.372 . S
C33 H28 0.928 . S
C33 C32 1.372 . S
C33 C34 1.404 . S
C34 C33 1.404 . S
C34 C35 1.391 . S
C35 H29 0.930 1_554 S
C35 C31 1.429 . S
C35 C34 1.391 . S
H36 C39 0.931 . S
H37 C42 0.928 . S
H38 C44 0.930 . S
C39 H36 0.931 . S
C39 C40 1.413 . S
C39 C41 1.360 . S
C40 C39 1.413 . S
C40 C44 1.429 . S
C41 C39 1.360 . S
C41 C42 1.372 . S
C42 H37 0.928 . S
C42 C41 1.372 . S
C42 C43 1.404 . S
C43 C42 1.404 . S
C43 C44 1.391 . S
C44 H38 0.930 . S
C44 C40 1.429 . S
C44 C43 1.391 . S
H45 C48 0.931 . S
H46 C51 0.928 . S
H47 C53 0.930 . S
C48 H45 0.931 . S
C48 C49 1.413 . S
C48 C50 1.360 . S
C49 C48 1.413 . S
C49 C53 1.429 . S
C50 C48 1.360 . S
C50 C51 1.372 . S
C51 H46 0.928 . S
C51 C50 1.372 . S
C51 C52 1.404 . S
C52 C51 1.404 . S
C52 C53 1.391 . S
C53 H47 0.930 . S
C53 C49 1.429 . S
C53 C52 1.391 . S
H54 C57 0.930 . S
H55 C60 0.928 . S
H56 C62 0.930 . S
C57 H54 0.930 . S
C57 C58 1.413 . S
C57 C59 1.360 . S
C58 C57 1.413 . S
C58 C62 1.429 1_565 S
C59 C57 1.360 . S
C59 C60 1.371 . S
C60 H55 0.928 . S
C60 C59 1.371 . S
C60 C61 1.404 . S
C61 C60 1.404 . S
C61 C62 1.392 1_565 S
C62 H56 0.930 . S
C62 C58 1.429 1_545 S
C62 C61 1.392 1_545 S
H63 C66 0.931 . S
H64 C69 0.928 . S
H65 C71 0.930 . S
C66 H63 0.931 . S
C66 C67 1.413 . S
C66 C68 1.360 . S
C67 C66 1.413 . S
C67 C71 1.429 . S
C68 C66 1.360 . S
C68 C69 1.372 . S
C69 H64 0.928 . S
C69 C68 1.372 . S
C69 C70 1.404 . S
C70 C69 1.404 . S
C70 C71 1.391 . S
C71 H65 0.930 . S
C71 C67 1.429 . S
C71 C70 1.391 . S
C72 O88 1.251 1_455 S
C72 O90 1.254 . S
N73 C74 1.333 . S
N73 C78 1.307 . S
N73 Zn79 2.020 1_655 S
C74 N73 1.333 . S
C74 C75 1.379 . S
C74 H92 0.952 . S
C75 C74 1.379 . S
C75 C76 1.390 . S
C75 H102 0.949 . S
C76 C75 1.390 . S
C76 C77 1.357 . S
C77 C76 1.357 . S
C77 C78 1.370 . S
C77 H103 0.950 . S
C78 N73 1.307 . S
C78 C77 1.370 . S
C78 H96 0.948 1_565 S
Zn79 N73 2.020 1_455 S
Zn79 O88 2.039 1_455 S
Zn79 O94 2.034 . S
Zn79 O98 2.025 1_565 S
Zn79 O100 2.024 1_465 S
C80 O99 1.246 . S
C80 O100 1.250 . S
N81 C82 1.307 . S
N81 C83 1.333 . S
N81 Zn87 2.020 . S
C82 N81 1.307 . S
C82 C86 1.370 1_556 S
C82 H93 0.948 1_545 S
C83 N81 1.333 . S
C83 C84 1.379 . S
C83 H91 0.952 . S
C84 C83 1.379 . S
C84 C85 1.390 1_556 S
C84 H104 0.949 . S
C85 C84 1.390 1_554 S
C85 C86 1.357 . S
C86 C82 1.370 1_554 S
C86 C85 1.357 . S
C86 H105 0.950 . S
Zn87 N81 2.020 . S
Zn87 O90 2.025 1_545 S
Zn87 O95 2.024 . S
Zn87 O97 2.039 . S
Zn87 O99 2.034 1_455 S
O88 C72 1.251 1_655 S
O88 Zn79 2.039 1_655 S
C89 O94 1.246 . S
C89 O95 1.250 1_565 S
O90 C72 1.254 . S
O90 Zn87 2.025 1_565 S
H91 C83 0.952 . S
H92 C74 0.952 . S
H93 C82 0.948 1_565 S
O94 Zn79 2.034 . S
O94 C89 1.246 . S
O95 Zn87 2.024 . S
O95 C89 1.250 1_545 S
H96 C78 0.948 1_545 S
O97 Zn87 2.039 . S
O97 C101 1.251 . S
O98 Zn79 2.025 1_545 S
O98 C101 1.254 . S
O99 C80 1.246 . S
O99 Zn87 2.034 1_655 S
O100 Zn79 2.024 1_645 S
O100 C80 1.250 . S
C101 O97 1.251 . S
C101 O98 1.254 . S
H102 C75 0.949 . S
H103 C77 0.950 . S
H104 C84 0.949 . S
H105 C86 0.950 . S
C106 O122 1.251 1_565 S
C106 O124 1.254 . S
N107 C108 1.333 . S
N107 C112 1.307 . S
N107 Zn113 2.020 . S
C108 N107 1.333 . S
C108 C109 1.379 . S
C108 H126 0.952 . S
C109 C108 1.379 . S
C109 C110 1.390 . S
C109 H136 0.949 . S
C110 C109 1.390 . S
C110 C111 1.357 . S
C111 C110 1.357 . S
C111 C112 1.370 . S
C111 H137 0.950 . S
C112 N107 1.307 . S
C112 C111 1.370 . S
C112 H130 0.948 . S
Zn113 N107 2.020 . S
Zn113 O122 2.039 . S
Zn113 O128 2.034 . S
Zn113 O132 2.025 . S
Zn113 O134 2.024 . S
C114 O133 1.246 1_545 S
C114 O134 1.249 . S
N115 C116 1.307 . S
N115 C117 1.333 . S
N115 Zn121 2.020 . S
C116 N115 1.307 . S
C116 C120 1.370 . S
C116 H127 0.948 . S
C117 N115 1.333 . S
C117 C118 1.379 . S
C117 H125 0.952 . S
C118 C117 1.379 . S
C118 C119 1.390 . S
C118 H138 0.949 . S
C119 C118 1.390 . S
C119 C120 1.357 . S
C120 C116 1.370 . S
C120 C119 1.357 . S
C120 H139 0.950 . S
Zn121 N115 2.020 . S
Zn121 O124 2.025 . S
Zn121 O129 2.024 . S
Zn121 O131 2.039 . S
Zn121 O133 2.034 . S
O122 C106 1.251 1_545 S
O122 Zn113 2.039 . S
C123 O128 1.246 1_565 S
C123 O129 1.249 . S
O124 C106 1.254 . S
O124 Zn121 2.025 . S
H125 C117 0.952 . S
H126 C108 0.952 . S
H127 C116 0.948 . S
O128 Zn113 2.034 . S
O128 C123 1.246 1_545 S
O129 Zn121 2.024 . S
O129 C123 1.249 . S
H130 C112 0.948 . S
O131 Zn121 2.039 . S
O131 C135 1.251 1_565 S
O132 Zn113 2.025 . S
O132 C135 1.254 . S
O133 C114 1.246 1_565 S
O133 Zn121 2.034 . S
O134 Zn113 2.024 . S
O134 C114 1.249 . S
C135 O131 1.251 1_545 S
C135 O132 1.254 . S
H136 C109 0.949 . S
H137 C111 0.950 . S
H138 C118 0.949 . S
H139 C120 0.950 . S
C140 O156 1.251 . S
C140 O158 1.254 . S
N141 C142 1.333 . S
N141 C146 1.307 . S
N141 Zn147 2.020 . S
C142 N141 1.333 . S
C142 C143 1.379 . S
C142 H160 0.952 . S
C143 C142 1.379 . S
C143 C144 1.390 . S
C143 H170 0.949 . S
C144 C143 1.390 . S
C144 C145 1.357 . S
C145 C144 1.357 . S
C145 C146 1.370 . S
C145 H171 0.950 . S
C146 N141 1.307 . S
C146 C145 1.370 . S
C146 H164 0.948 . S
Zn147 N141 2.020 . S
Zn147 O156 2.039 . S
Zn147 O162 2.034 . S
Zn147 O166 2.025 . S
Zn147 O168 2.024 . S
C148 O167 1.246 . S
C148 O168 1.249 . S
N149 C150 1.307 . S
N149 C151 1.333 . S
N149 Zn155 2.020 . S
C150 N149 1.307 . S
C150 C154 1.370 . S
C150 H161 0.948 . S
C151 N149 1.333 . S
C151 C152 1.379 . S
C151 H159 0.952 . S
C152 C151 1.379 . S
C152 C153 1.390 . S
C152 H172 0.949 . S
C153 C152 1.390 . S
C153 C154 1.357 . S
C154 C150 1.370 . S
C154 C153 1.357 . S
C154 H173 0.950 . S
Zn155 N149 2.020 . S
Zn155 O158 2.025 . S
Zn155 O163 2.024 . S
Zn155 O165 2.039 . S
Zn155 O167 2.034 . S
O156 C140 1.251 . S
O156 Zn147 2.039 . S
C157 O162 1.246 . S
C157 O163 1.249 . S
O158 C140 1.254 . S
O158 Zn155 2.025 . S
H159 C151 0.952 . S
H160 C142 0.952 . S
H161 C150 0.948 . S
O162 Zn147 2.034 . S
O162 C157 1.246 . S
O163 Zn155 2.024 . S
O163 C157 1.249 . S
H164 C146 0.948 . S
O165 Zn155 2.039 . S
O165 C169 1.251 . S
O166 Zn147 2.025 . S
O166 C169 1.254 . S
O167 C148 1.246 . S
O167 Zn155 2.034 . S
O168 Zn147 2.024 . S
O168 C148 1.249 . S
C169 O165 1.251 . S
C169 O166 1.254 . S
H170 C143 0.949 . S
H171 C145 0.950 . S
H172 C152 0.949 . S
H173 C154 0.950 . S
C174 O190 1.251 . S
C174 O192 1.254 . S
N175 C176 1.333 . S
N175 C180 1.307 . S
N175 Zn181 2.020 . S
C176 N175 1.333 . S
C176 C177 1.379 . S
C176 H194 0.952 . S
C177 C176 1.379 . S
C177 C178 1.390 . S
C177 H204 0.949 . S
C178 C177 1.390 . S
C178 C179 1.357 . S
C179 C178 1.357 . S
C179 C180 1.370 . S
C179 H205 0.950 . S
C180 N175 1.307 . S
C180 C179 1.370 . S
C180 H198 0.948 . S
Zn181 N175 2.020 . S
Zn181 O190 2.039 . S
Zn181 O196 2.034 1_455 S
Zn181 O200 2.025 1_455 S
Zn181 O202 2.024 . S
C182 O201 1.246 . S
C182 O202 1.249 . S
N183 C184 1.307 . S
N183 C185 1.333 . S
N183 Zn189 2.020 1_655 S
C184 N183 1.307 . S
C184 C188 1.370 . S
C184 H195 0.948 1_655 S
C185 N183 1.333 . S
C185 C186 1.379 . S
C185 H193 0.952 . S
C186 C185 1.379 . S
C186 C187 1.390 . S
C186 H206 0.949 . S
C187 C186 1.390 . S
C187 C188 1.357 . S
C188 C184 1.370 . S
C188 C187 1.357 . S
C188 H207 0.950 . S
Zn189 N183 2.020 1_455 S
Zn189 O192 2.025 . S
Zn189 O197 2.024 1_455 S
Zn189 O199 2.039 1_455 S
Zn189 O201 2.034 . S
O190 C174 1.251 . S
O190 Zn181 2.039 . S
C191 O196 1.246 . S
C191 O197 1.249 . S
O192 C174 1.254 . S
O192 Zn189 2.025 . S
H193 C185 0.952 . S
H194 C176 0.952 . S
H195 C184 0.948 1_455 S
O196 Zn181 2.034 1_655 S
O196 C191 1.246 . S
O197 Zn189 2.024 1_655 S
O197 C191 1.249 . S
H198 C180 0.948 . S
O199 Zn189 2.039 1_655 S
O199 C203 1.251 . S
O200 Zn181 2.025 1_655 S
O200 C203 1.254 . S
O201 C182 1.246 . S
O201 Zn189 2.034 . S
O202 Zn181 2.024 . S
O202 C182 1.249 . S
C203 O199 1.251 . S
C203 O200 1.254 . S
H204 C177 0.949 . S
H205 C179 0.950 . S
H206 C186 0.949 . S
H207 C188 0.950 . S
C208 C209 1.391 1_545 S
C208 C210 1.394 . S
C208 H224 0.931 . S
C209 C208 1.391 1_565 S
C209 C213 1.376 . S
C210 C208 1.394 . S
C210 C211 1.369 1_545 S
C210 C214 1.531 . S
C211 C210 1.369 1_565 S
C211 C212 1.410 . S
C211 C219 1.503 . S
C212 C211 1.410 . S
C212 C213 1.392 . S
C212 C215 1.511 . S
C213 C209 1.376 . S
C213 C212 1.392 . S
C213 H225 0.929 . S
C214 C210 1.531 . S
C214 H226 0.960 . S
C214 H227 0.962 . S
C214 H228 0.960 . S
C215 C212 1.511 . S
C215 H229 0.961 . S
C215 H230 0.961 . S
C215 H231 0.961 . S
C216 C217 1.370 1_545 S
C216 C218 1.363 . S
C216 H232 0.931 . S
C217 C216 1.370 1_565 S
C217 C221 1.408 . S
C218 C216 1.363 . S
C218 C219 1.370 1_545 S
C218 C222 1.524 . S
C219 C211 1.503 . S
C219 C218 1.370 1_565 S
C219 C220 1.403 . S
C220 C219 1.403 . S
C220 C221 1.404 . S
C220 C223 1.539 . S
C221 C217 1.408 . S
C221 C220 1.404 . S
C221 H233 0.930 . S
C222 C218 1.524 . S
C222 H234 0.956 . S
C222 H235 0.961 . S
C222 H236 0.961 . S
C223 C220 1.539 . S
C223 H237 0.958 . S
C223 H238 0.961 . S
C223 H239 0.960 . S
H224 C208 0.931 . S
H225 C213 0.929 . S
H226 C214 0.960 . S
H227 C214 0.962 . S
H228 C214 0.960 . S
H229 C215 0.961 . S
H230 C215 0.961 . S
H231 C215 0.961 . S
H232 C216 0.931 . S
H233 C221 0.930 . S
H234 C222 0.956 . S
H235 C222 0.961 . S
H236 C222 0.961 . S
H237 C223 0.958 . S
H238 C223 0.961 . S
H239 C223 0.960 . S
C240 C241 1.391 . S
C240 C242 1.394 . S
C240 H256 0.931 . S
C241 C240 1.391 . S
C241 C245 1.376 . S
C242 C240 1.394 . S
C242 C243 1.369 . S
C242 C246 1.531 . S
C243 C242 1.369 . S
C243 C244 1.410 . S
C243 C251 1.503 . S
C244 C243 1.410 . S
C244 C245 1.392 . S
C244 C247 1.511 . S
C245 C241 1.376 . S
C245 C244 1.392 . S
C245 H257 0.929 . S
C246 C242 1.531 . S
C246 H258 0.960 . S
C246 H259 0.962 . S
C246 H260 0.960 . S
C247 C244 1.511 . S
C247 H261 0.961 . S
C247 H262 0.961 . S
C247 H263 0.961 . S
C248 C249 1.370 . S
C248 C250 1.363 . S
C248 H264 0.931 . S
C249 C248 1.370 . S
C249 C253 1.408 . S
C250 C248 1.363 . S
C250 C251 1.370 . S
C250 C254 1.524 . S
C251 C243 1.503 . S
C251 C250 1.370 . S
C251 C252 1.403 . S
C252 C251 1.403 . S
C252 C253 1.404 . S
C252 C255 1.539 . S
C253 C249 1.408 . S
C253 C252 1.404 . S
C253 H265 0.930 . S
C254 C250 1.524 . S
C254 H266 0.956 . S
C254 H267 0.961 . S
C254 H268 0.961 . S
C255 C252 1.539 . S
C255 H269 0.958 . S
C255 H270 0.961 . S
C255 H271 0.960 . S
H256 C240 0.931 . S
H257 C245 0.929 . S
H258 C246 0.960 . S
H259 C246 0.962 . S
H260 C246 0.960 . S
H261 C247 0.961 . S
H262 C247 0.961 . S
H263 C247 0.961 . S
H264 C248 0.931 . S
H265 C253 0.930 . S
H266 C254 0.956 . S
H267 C254 0.961 . S
H268 C254 0.961 . S
H269 C255 0.958 . S
H270 C255 0.961 . S
H271 C255 0.960 . S
C272 C273 1.391 . S
C272 C274 1.394 . S
C272 H288 0.931 . S
C273 C272 1.391 . S
C273 C277 1.376 . S
C274 C272 1.394 . S
C274 C275 1.369 . S
C274 C278 1.531 . S
C275 C274 1.369 . S
C275 C276 1.410 . S
C275 C283 1.503 . S
C276 C275 1.410 . S
C276 C277 1.392 . S
C276 C279 1.511 . S
C277 C273 1.376 . S
C277 C276 1.392 . S
C277 H289 0.929 . S
C278 C274 1.531 . S
C278 H290 0.960 . S
C278 H291 0.962 . S
C278 H292 0.960 . S
C279 C276 1.511 . S
C279 H293 0.961 . S
C279 H294 0.961 . S
C279 H295 0.961 . S
C280 C281 1.370 . S
C280 C282 1.363 . S
C280 H296 0.931 . S
C281 C280 1.370 . S
C281 C285 1.408 . S
C282 C280 1.363 . S
C282 C283 1.370 . S
C282 C286 1.524 . S
C283 C275 1.503 . S
C283 C282 1.370 . S
C283 C284 1.403 . S
C284 C283 1.403 . S
C284 C285 1.404 . S
C284 C287 1.539 . S
C285 C281 1.408 . S
C285 C284 1.404 . S
C285 H297 0.930 . S
C286 C282 1.524 . S
C286 H298 0.956 . S
C286 H299 0.961 . S
C286 H300 0.961 . S
C287 C284 1.539 . S
C287 H301 0.958 . S
C287 H302 0.961 . S
C287 H303 0.960 . S
H288 C272 0.931 . S
H289 C277 0.929 . S
H290 C278 0.960 . S
H291 C278 0.962 . S
H292 C278 0.960 . S
H293 C279 0.961 . S
H294 C279 0.961 . S
H295 C279 0.961 . S
H296 C280 0.931 . S
H297 C285 0.930 . S
H298 C286 0.956 . S
H299 C286 0.961 . S
H300 C286 0.961 . S
H301 C287 0.958 . S
H302 C287 0.961 . S
H303 C287 0.960 . S
C304 C305 1.391 . S
C304 C306 1.394 . S
C304 H320 0.931 . S
C305 C304 1.391 . S
C305 C309 1.376 . S
C306 C304 1.394 . S
C306 C307 1.369 . S
C306 C310 1.531 . S
C307 C306 1.369 . S
C307 C308 1.410 . S
C307 C315 1.503 . S
C308 C307 1.410 . S
C308 C309 1.392 . S
C308 C311 1.511 . S
C309 C305 1.376 . S
C309 C308 1.392 . S
C309 H321 0.929 . S
C310 C306 1.531 . S
C310 H322 0.960 . S
C310 H323 0.962 . S
C310 H324 0.960 . S
C311 C308 1.511 . S
C311 H325 0.961 . S
C311 H326 0.961 . S
C311 H327 0.961 . S
C312 C313 1.370 . S
C312 C314 1.363 . S
C312 H328 0.931 . S
C313 C312 1.370 . S
C313 C317 1.408 . S
C314 C312 1.363 . S
C314 C315 1.370 . S
C314 C318 1.524 . S
C315 C307 1.503 . S
C315 C314 1.370 . S
C315 C316 1.403 . S
C316 C315 1.403 . S
C316 C317 1.404 . S
C316 C319 1.539 . S
C317 C313 1.408 . S
C317 C316 1.404 . S
C317 H329 0.930 . S
C318 C314 1.524 . S
C318 H330 0.956 . S
C318 H331 0.961 . S
C318 H332 0.961 . S
C319 C316 1.539 . S
C319 H333 0.958 . S
C319 H334 0.961 . S
C319 H335 0.960 . S
H320 C304 0.931 . S
H321 C309 0.929 . S
H322 C310 0.960 . S
H323 C310 0.962 . S
H324 C310 0.960 . S
H325 C311 0.961 . S
H326 C311 0.961 . S
H327 C311 0.961 . S
H328 C312 0.931 . S
H329 C317 0.930 . S
H330 C318 0.956 . S
H331 C318 0.961 . S
H332 C318 0.961 . S
H333 C319 0.958 . S
H334 C319 0.961 . S
H335 C319 0.960 . S
C336 C337 1.358 1_565 S
C336 C338 1.394 1_554 S
C336 H352 0.931 . S
C337 C336 1.358 1_545 S
C337 C341 1.407 1_554 S
C338 C336 1.394 1_556 S
C338 C339 1.369 1_565 S
C338 C342 1.531 . S
C339 C338 1.369 1_545 S
C339 C340 1.410 . S
C339 C347 1.503 . S
C340 C339 1.410 . S
C340 C341 1.392 . S
C340 C343 1.511 . S
C341 C337 1.407 1_556 S
C341 C340 1.392 . S
C341 H353 0.929 1_556 S
C342 C338 1.531 . S
C342 H354 0.960 . S
C342 H355 0.962 1_556 S
C342 H356 0.960 . S
C343 C340 1.511 . S
C343 H357 0.961 . S
C343 H358 0.961 . S
C343 H359 0.961 . S
C344 C345 1.370 . S
C344 C346 1.363 . S
C344 H360 0.931 . S
C345 C344 1.370 . S
C345 C349 1.408 . S
C346 C344 1.363 . S
C346 C347 1.370 . S
C346 C350 1.524 1_556 S
C347 C339 1.503 . S
C347 C346 1.370 . S
C347 C348 1.412 . S
C348 C347 1.412 . S
C348 C349 1.405 . S
C348 C351 1.533 1_545 S
C349 C345 1.408 . S
C349 C348 1.405 . S
C349 H361 0.935 . S
C350 C346 1.524 1_554 S
C350 H362 0.954 . S
C350 H363 0.961 . S
C350 H364 0.961 . S
C351 C348 1.533 1_565 S
C351 H365 0.958 . S
C351 H366 0.961 1_565 S
C351 H367 0.960 1_565 S
H352 C336 0.931 . S
H353 C341 0.929 1_554 S
H354 C342 0.960 . S
H355 C342 0.962 1_554 S
H356 C342 0.960 . S
H357 C343 0.961 . S
H358 C343 0.961 . S
H359 C343 0.961 . S
H360 C344 0.931 . S
H361 C349 0.935 . S
H362 C350 0.954 . S
H363 C350 0.961 . S
H364 C350 0.961 . S
H365 C351 0.958 . S
H366 C351 0.961 1_545 S
H367 C351 0.960 1_545 S
C368 C369 1.391 . S
C368 C370 1.394 . S
C368 H384 0.931 . S
C369 C368 1.391 . S
C369 C373 1.376 . S
C370 C368 1.394 . S
C370 C371 1.369 1_554 S
C370 C374 1.531 . S
C371 C370 1.369 1_556 S
C371 C372 1.409 1_556 S
C371 C379 1.503 . S
C372 C371 1.409 1_554 S
C372 C373 1.393 . S
C372 C375 1.511 1_554 S
C373 C369 1.376 . S
C373 C372 1.393 . S
C373 H385 0.929 . S
C374 C370 1.531 . S
C374 H386 0.960 . S
C374 H387 0.962 1_554 S
C374 H388 0.960 . S
C375 C372 1.511 1_556 S
C375 H389 0.961 . S
C375 H390 0.961 . S
C375 H391 0.961 1_556 S
C376 C377 1.370 . S
C376 C378 1.363 . S
C376 H392 0.931 . S
C377 C376 1.370 . S
C377 C381 1.408 . S
C378 C376 1.363 . S
C378 C379 1.370 . S
C378 C382 1.524 . S
C379 C371 1.503 . S
C379 C378 1.370 . S
C379 C380 1.403 . S
C380 C379 1.403 . S
C380 C381 1.404 . S
C380 C383 1.539 1_556 S
C381 C377 1.408 . S
C381 C380 1.404 . S
C381 H393 0.930 . S
C382 C378 1.524 . S
C382 H394 0.956 . S
C382 H395 0.961 . S
C382 H396 0.961 . S
C383 C380 1.539 1_554 S
C383 H397 0.958 . S
C383 H398 0.961 . S
C383 H399 0.960 . S
H384 C368 0.931 . S
H385 C373 0.929 . S
H386 C374 0.960 . S
H387 C374 0.962 1_556 S
H388 C374 0.960 . S
H389 C375 0.961 . S
H390 C375 0.961 . S
H391 C375 0.961 1_554 S
H392 C376 0.931 . S
H393 C381 0.930 . S
H394 C382 0.956 . S
H395 C382 0.961 . S
H396 C382 0.961 . S
H397 C383 0.958 . S
H398 C383 0.961 . S
H399 C383 0.960 . S
C400 C401 1.391 . S
C400 C402 1.394 . S
C400 H416 0.931 . S
C401 C400 1.391 . S
C401 C405 1.376 . S
C402 C400 1.394 . S
C402 C403 1.369 . S
C402 C406 1.531 1_554 S
C403 C402 1.369 . S
C403 C404 1.410 . S
C403 C411 1.503 1_554 S
C404 C403 1.410 . S
C404 C405 1.392 . S
C404 C407 1.511 . S
C405 C401 1.376 . S
C405 C404 1.392 . S
C405 H417 0.929 . S
C406 C402 1.531 1_556 S
C406 H418 0.960 . S
C406 H419 0.962 . S
C406 H420 0.960 . S
C407 C404 1.511 . S
C407 H421 0.961 . S
C407 H422 0.961 . S
C407 H423 0.961 . S
C408 C409 1.370 . S
C408 C410 1.363 . S
C408 H424 0.931 . S
C409 C408 1.370 . S
C409 C413 1.408 . S
C410 C408 1.363 . S
C410 C411 1.370 . S
C410 C414 1.524 . S
C411 C403 1.503 1_556 S
C411 C410 1.370 . S
C411 C412 1.403 . S
C412 C411 1.403 . S
C412 C413 1.404 . S
C412 C415 1.539 1_556 S
C413 C409 1.408 . S
C413 C412 1.404 . S
C413 H425 0.930 . S
C414 C410 1.524 . S
C414 H426 0.956 . S
C414 H427 0.961 . S
C414 H428 0.961 . S
C415 C412 1.539 1_554 S
C415 H429 0.958 . S
C415 H430 0.961 . S
C415 H431 0.960 . S
H416 C400 0.931 . S
H417 C405 0.929 . S
H418 C406 0.960 . S
H419 C406 0.962 . S
H420 C406 0.960 . S
H421 C407 0.961 . S
H422 C407 0.961 . S
H423 C407 0.961 . S
H424 C408 0.931 . S
H425 C413 0.930 . S
H426 C414 0.956 . S
H427 C414 0.961 . S
H428 C414 0.961 . S
H429 C415 0.958 . S
H430 C415 0.961 . S
H431 C415 0.960 . S
C432 C433 1.391 . S
C432 C434 1.394 . S
C432 H448 0.931 1_556 S
C433 C432 1.391 . S
C433 C437 1.376 . S
C434 C432 1.394 . S
C434 C435 1.369 . S
C434 C438 1.531 . S
C435 C434 1.369 . S
C435 C436 1.410 . S
C435 C443 1.503 . S
C436 C435 1.410 . S
C436 C437 1.392 . S
C436 C439 1.511 . S
C437 C433 1.376 . S
C437 C436 1.392 . S
C437 H449 0.929 . S
C438 C434 1.531 . S
C438 H450 0.960 . S
C438 H451 0.962 1_556 S
C438 H452 0.960 . S
C439 C436 1.511 . S
C439 H453 0.961 . S
C439 H454 0.961 . S
C439 H455 0.961 . S
C440 C441 1.370 . S
C440 C442 1.363 . S
C440 H456 0.931 . S
C441 C440 1.370 . S
C441 C445 1.408 . S
C442 C440 1.363 . S
C442 C443 1.370 . S
C442 C446 1.524 . S
C443 C435 1.503 . S
C443 C442 1.370 . S
C443 C444 1.403 . S
C444 C443 1.403 . S
C444 C445 1.404 . S
C444 C447 1.539 . S
C445 C441 1.408 . S
C445 C444 1.404 . S
C445 H457 0.930 . S
C446 C442 1.524 . S
C446 H458 0.956 . S
C446 H459 0.961 . S
C446 H460 0.961 . S
C447 C444 1.539 . S
C447 H461 0.958 . S
C447 H462 0.961 . S
C447 H463 0.960 . S
H448 C432 0.931 1_554 S
H449 C437 0.929 . S
H450 C438 0.960 . S
H451 C438 0.962 1_554 S
H452 C438 0.960 . S
H453 C439 0.961 . S
H454 C439 0.961 . S
H455 C439 0.961 . S
H456 C440 0.931 . S
H457 C445 0.930 . S
H458 C446 0.956 . S
H459 C446 0.961 . S
H460 C446 0.961 . S
H461 C447 0.958 . S
H462 C447 0.961 . S
H463 C447 0.960 . S
C464 C465 1.391 . S
C464 C466 1.394 . S
C464 H480 0.931 . S
C465 C464 1.391 . S
C465 C469 1.376 . S
C466 C464 1.394 . S
C466 C467 1.369 . S
C466 C470 1.531 . S
C467 C466 1.369 . S
C467 C468 1.410 . S
C467 C475 1.503 . S
C468 C467 1.410 . S
C468 C469 1.392 . S
C468 C471 1.511 . S
C469 C465 1.376 . S
C469 C468 1.392 . S
C469 H481 0.929 . S
C470 C466 1.531 . S
C470 H482 0.960 . S
C470 H483 0.962 . S
C470 H484 0.960 . S
C471 C468 1.511 . S
C471 H485 0.961 . S
C471 H486 0.961 . S
C471 H487 0.961 . S
C472 C473 1.370 . S
C472 C474 1.363 . S
C472 H488 0.933 . S
C473 C472 1.370 . S
C473 C477 1.408 . S
C474 C472 1.363 . S
C474 C475 1.370 . S
C474 C478 1.524 . S
C475 C467 1.503 . S
C475 C474 1.370 . S
C475 C476 1.403 . S
C476 C475 1.403 . S
C476 C477 1.404 . S
C476 C479 1.539 . S
C477 C473 1.408 . S
C477 C476 1.404 . S
C477 H489 0.930 . S
C478 C474 1.524 . S
C478 H490 0.956 . S
C478 H491 0.961 . S
C478 H492 0.961 . S
C479 C476 1.539 . S
C479 H493 0.958 . S
C479 H494 0.961 . S
C479 H495 0.960 . S
H480 C464 0.931 . S
H481 C469 0.929 . S
H482 C470 0.960 . S
H483 C470 0.962 . S
H484 C470 0.960 . S
H485 C471 0.961 . S
H486 C471 0.961 . S
H487 C471 0.961 . S
H488 C472 0.933 . S
H489 C477 0.930 . S
H490 C478 0.956 . S
H491 C478 0.961 . S
H492 C478 0.961 . S
H493 C479 0.958 . S
H494 C479 0.961 . S
H495 C479 0.960 . S
C496 C497 1.391 . S
C496 C498 1.394 . S
C496 H512 0.931 . S
C497 C496 1.391 . S
C497 C501 1.376 1_545 S
C498 C496 1.394 . S
C498 C499 1.369 . S
C498 C502 1.531 . S
C499 C498 1.369 . S
C499 C500 1.410 1_545 S
C499 C507 1.503 1_545 S
C500 C499 1.410 1_565 S
C500 C501 1.392 . S
C500 C503 1.511 . S
C501 C497 1.376 1_565 S
C501 C500 1.392 . S
C501 H513 0.929 . S
C502 C498 1.531 . S
C502 H514 0.960 . S
C502 H515 0.962 . S
C502 H516 0.960 . S
C503 C500 1.511 . S
C503 H517 0.961 . S
C503 H518 0.961 . S
C503 H519 0.942 1_565 S
C504 C505 1.370 . S
C504 C506 1.363 . S
C504 H520 0.931 . S
C505 C504 1.370 . S
C505 C509 1.408 1_565 S
C506 C504 1.363 . S
C506 C507 1.370 . S
C506 C510 1.524 . S
C507 C499 1.503 1_565 S
C507 C506 1.370 . S
C507 C508 1.403 1_565 S
C508 C507 1.403 1_545 S
C508 C509 1.404 . S
C508 C511 1.539 . S
C509 C505 1.408 1_545 S
C509 C508 1.404 . S
C509 H521 0.930 . S
C510 C506 1.524 . S
C510 H522 0.956 . S
C510 H523 0.961 . S
C510 H524 0.961 . S
C511 C508 1.539 . S
C511 H525 0.958 . S
C511 H526 0.961 . S
C511 H527 0.960 . S
H512 C496 0.931 . S
H513 C501 0.929 . S
H514 C502 0.960 . S
H515 C502 0.962 . S
H516 C502 0.960 . S
H517 C503 0.961 . S
H518 C503 0.961 . S
H519 C503 0.942 1_545 S
H520 C504 0.931 . S
H521 C509 0.930 . S
H522 C510 0.956 . S
H523 C510 0.961 . S
H524 C510 0.961 . S
H525 C511 0.958 . S
H526 C511 0.961 . S
H527 C511 0.960 . S
C528 C529 1.391 . S
C528 C530 1.394 . S
C528 H544 0.931 . S
C529 C528 1.391 . S
C529 C533 1.376 . S
C530 C528 1.394 . S
C530 C531 1.369 . S
C530 C534 1.531 . S
C531 C530 1.369 . S
C531 C532 1.410 . S
C531 C539 1.503 . S
C532 C531 1.410 . S
C532 C533 1.392 . S
C532 C535 1.511 . S
C533 C529 1.376 . S
C533 C532 1.392 . S
C533 H545 0.929 . S
C534 C530 1.531 . S
C534 H546 0.960 . S
C534 H547 0.962 . S
C534 H548 0.960 . S
C535 C532 1.511 . S
C535 H549 0.961 . S
C535 H550 0.961 . S
C535 H551 0.961 . S
C536 C537 1.370 . S
C536 C538 1.363 . S
C536 H552 0.931 . S
C537 C536 1.370 . S
C537 C541 1.408 . S
C538 C536 1.363 . S
C538 C539 1.370 . S
C538 C542 1.524 . S
C539 C531 1.503 . S
C539 C538 1.370 . S
C539 C540 1.403 . S
C540 C539 1.403 . S
C540 C541 1.404 . S
C540 C543 1.539 . S
C541 C537 1.408 . S
C541 C540 1.404 . S
C541 H553 0.930 . S
C542 C538 1.524 . S
C542 H554 0.956 . S
C542 H555 0.961 . S
C542 H556 0.961 . S
C543 C540 1.539 . S
C543 H557 0.958 . S
C543 H558 0.961 . S
C543 H559 0.960 . S
H544 C528 0.931 . S
H545 C533 0.929 . S
H546 C534 0.960 . S
H547 C534 0.962 . S
H548 C534 0.960 . S
H549 C535 0.961 . S
H550 C535 0.961 . S
H551 C535 0.961 . S
H552 C536 0.931 . S
H553 C541 0.930 . S
H554 C542 0.956 . S
H555 C542 0.961 . S
H556 C542 0.961 . S
H557 C543 0.958 . S
H558 C543 0.961 . S
H559 C543 0.960 . S
C560 C561 1.391 . S
C560 C562 1.394 . S
C560 H576 0.931 . S
C561 C560 1.391 . S
C561 C565 1.376 . S
C562 C560 1.394 . S
C562 C563 1.369 . S
C562 C566 1.531 . S
C563 C562 1.369 . S
C563 C564 1.410 . S
C563 C571 1.503 . S
C564 C563 1.410 . S
C564 C565 1.392 . S
C564 C567 1.511 . S
C565 C561 1.376 . S
C565 C564 1.392 . S
C565 H577 0.929 . S
C566 C562 1.531 . S
C566 H578 0.960 . S
C566 H579 0.962 . S
C566 H580 0.960 . S
C567 C564 1.511 . S
C567 H581 0.961 . S
C567 H582 0.961 . S
C567 H583 0.961 . S
C568 C569 1.370 . S
C568 C570 1.363 . S
C568 H584 0.931 . S
C569 C568 1.370 . S
C569 C573 1.408 . S
C570 C568 1.363 . S
C570 C571 1.370 . S
C570 C574 1.524 . S
C571 C563 1.503 . S
C571 C570 1.370 . S
C571 C572 1.403 . S
C572 C571 1.403 . S
C572 C573 1.404 . S
C572 C575 1.539 . S
C573 C569 1.408 . S
C573 C572 1.404 . S
C573 H585 0.930 . S
C574 C570 1.524 . S
C574 H586 0.956 . S
C574 H587 0.961 . S
C574 H588 0.961 . S
C575 C572 1.539 . S
C575 H589 0.958 . S
C575 H590 0.961 . S
C575 H591 0.960 . S
H576 C560 0.931 . S
H577 C565 0.929 . S
H578 C566 0.960 . S
H579 C566 0.962 . S
H580 C566 0.960 . S
H581 C567 0.961 . S
H582 C567 0.961 . S
H583 C567 0.961 . S
H584 C568 0.931 . S
H585 C573 0.930 . S
H586 C574 0.956 . S
H587 C574 0.961 . S
H588 C574 0.961 . S
H589 C575 0.958 . S
H590 C575 0.961 . S
H591 C575 0.960 . S
C592 C593 1.391 . S
C592 C594 1.394 . S
C592 H608 0.931 1_556 S
C593 C592 1.391 . S
C593 C597 1.376 . S
C594 C592 1.394 . S
C594 C595 1.369 . S
C594 C598 1.531 . S
C595 C594 1.369 . S
C595 C596 1.410 . S
C595 C603 1.503 . S
C596 C595 1.410 . S
C596 C597 1.392 . S
C596 C599 1.511 . S
C597 C593 1.376 . S
C597 C596 1.392 . S
C597 H609 0.929 . S
C598 C594 1.531 . S
C598 H610 0.960 . S
C598 H611 0.962 . S
C598 H612 0.960 1_556 S
C599 C596 1.511 . S
C599 H613 0.961 . S
C599 H614 0.961 . S
C599 H615 0.961 . S
C600 C601 1.370 1_655 S
C600 C602 1.363 . S
C600 H616 0.931 . S
C601 C600 1.370 1_455 S
C601 C605 1.408 . S
C602 C600 1.363 . S
C602 C603 1.370 . S
C602 C606 1.524 . S
C603 C595 1.503 . S
C603 C602 1.370 . S
C603 C604 1.403 1_655 S
C604 C603 1.403 1_455 S
C604 C605 1.403 . S
C604 C607 1.539 . S
C605 C601 1.408 . S
C605 C604 1.403 . S
C605 H617 0.930 . S
C606 C602 1.524 . S
C606 H618 0.956 . S
C606 H619 0.961 . S
C606 H620 0.961 . S
C607 C604 1.539 . S
C607 H621 0.958 . S
C607 H622 0.961 . S
C607 H623 0.960 . S
H608 C592 0.931 1_554 S
H609 C597 0.929 . S
H610 C598 0.960 . S
H611 C598 0.962 . S
H612 C598 0.960 1_554 S
H613 C599 0.961 . S
H614 C599 0.961 . S
H615 C599 0.961 . S
H616 C600 0.931 . S
H617 C605 0.930 . S
H618 C606 0.956 . S
H619 C606 0.961 . S
H620 C606 0.961 . S
H621 C607 0.958 . S
H622 C607 0.961 . S
H623 C607 0.960 . S
C624 C625 1.393 1_546 S
C624 C626 1.394 . S
C624 H640 0.931 1_556 S
C625 C624 1.393 1_564 S
C625 C629 1.374 1_554 S
C626 C624 1.394 . S
C626 C627 1.369 . S
C626 C630 1.531 . S
C627 C626 1.369 . S
C627 C628 1.410 1_545 S
C627 C635 1.503 . S
C628 C627 1.410 1_565 S
C628 C629 1.392 . S
C628 C631 1.511 . S
C629 C625 1.374 1_556 S
C629 C628 1.392 . S
C629 H641 0.929 1_556 S
C630 C626 1.531 . S
C630 H642 0.960 . S
C630 H643 0.962 . S
C630 H644 0.960 . S
C631 C628 1.511 . S
C631 H645 0.961 . S
C631 H646 0.961 . S
C631 H647 0.961 . S
C632 C633 1.370 . S
C632 C634 1.363 . S
C632 H648 0.931 . S
C633 C632 1.370 . S
C633 C637 1.408 . S
C634 C632 1.363 . S
C634 C635 1.370 . S
C634 C638 1.524 1_556 S
C635 C627 1.503 . S
C635 C634 1.370 . S
C635 C636 1.403 . S
C636 C635 1.403 . S
C636 C637 1.404 . S
C636 C639 1.539 . S
C637 C633 1.408 . S
C637 C636 1.404 . S
C637 H649 0.930 . S
C638 C634 1.524 1_554 S
C638 H650 0.956 . S
C638 H651 0.961 1_545 S
C638 H652 0.961 . S
C639 C636 1.539 . S
C639 H653 0.958 . S
C639 H654 0.961 1_545 S
C639 H655 0.960 1_545 S
H640 C624 0.931 1_554 S
H641 C629 0.929 1_554 S
H642 C630 0.960 . S
H643 C630 0.962 . S
H644 C630 0.960 . S
H645 C631 0.961 . S
H646 C631 0.961 . S
H647 C631 0.961 . S
H648 C632 0.931 . S
H649 C637 0.930 . S
H650 C638 0.956 . S
H651 C638 0.961 1_565 S
H652 C638 0.961 . S
H653 C639 0.958 . S
H654 C639 0.961 1_565 S
H655 C639 0.960 1_565 S
C656 C657 1.386 1_556 S
C656 C658 1.402 . S
C656 H672 0.927 1_556 S
C657 C656 1.386 1_554 S
C657 C661 1.376 . S
C658 C656 1.402 . S
C658 C659 1.369 . S
C658 C662 1.531 . S
C659 C658 1.369 . S
C659 C660 1.410 . S
C659 C667 1.503 . S
C660 C659 1.410 . S
C660 C661 1.392 1_556 S
C660 C663 1.511 . S
C661 C657 1.376 . S
C661 C660 1.392 1_554 S
C661 H673 0.929 . S
C662 C658 1.531 . S
C662 H674 0.960 . S
C662 H675 0.962 . S
C662 H676 0.960 . S
C663 C660 1.511 . S
C663 H677 0.961 . S
C663 H678 0.961 . S
C663 H679 0.961 . S
C664 C665 1.370 . S
C664 C666 1.363 . S
C664 H680 0.931 . S
C665 C664 1.370 . S
C665 C669 1.408 . S
C666 C664 1.363 . S
C666 C667 1.370 . S
C666 C670 1.524 1_556 S
C667 C659 1.503 . S
C667 C666 1.370 . S
C667 C668 1.403 . S
C668 C667 1.403 . S
C668 C669 1.404 . S
C668 C671 1.539 . S
C669 C665 1.408 . S
C669 C668 1.404 . S
C669 H681 0.930 . S
C670 C666 1.524 1_554 S
C670 H682 0.956 . S
C670 H683 0.961 . S
C670 H684 0.961 . S
C671 C668 1.539 . S
C671 H685 0.958 . S
C671 H686 0.961 . S
C671 H687 0.960 . S
H672 C656 0.927 1_554 S
H673 C661 0.929 . S
H674 C662 0.960 . S
H675 C662 0.962 . S
H676 C662 0.960 . S
H677 C663 0.961 . S
H678 C663 0.961 . S
H679 C663 0.961 . S
H680 C664 0.931 . S
H681 C669 0.930 . S
H682 C670 0.956 . S
H683 C670 0.961 . S
H684 C670 0.961 . S
H685 C671 0.958 . S
H686 C671 0.961 . S
H687 C671 0.960 . S
C688 C689 1.391 . S
C688 C690 1.394 1_554 S
C688 H704 0.931 . S
C689 C688 1.391 . S
C689 C693 1.376 . S
C690 C688 1.394 1_556 S
C690 C691 1.369 . S
C690 C694 1.531 . S
C691 C690 1.369 . S
C691 C692 1.410 1_556 S
C691 C699 1.503 . S
C692 C691 1.410 1_554 S
C692 C693 1.392 . S
C692 C695 1.511 . S
C693 C689 1.376 . S
C693 C692 1.392 . S
C693 H705 0.929 . S
C694 C690 1.531 . S
C694 H706 0.960 . S
C694 H707 0.962 . S
C694 H708 0.960 . S
C695 C692 1.511 . S
C695 H709 0.961 . S
C695 H710 0.961 . S
C695 H711 0.961 . S
C696 C697 1.370 . S
C696 C698 1.363 . S
C696 H712 0.931 . S
C697 C696 1.370 . S
C697 C701 1.408 . S
C698 C696 1.363 . S
C698 C699 1.370 . S
C698 C702 1.524 . S
C699 C691 1.503 . S
C699 C698 1.370 . S
C699 C700 1.403 . S
C700 C699 1.403 . S
C700 C701 1.404 . S
C700 C703 1.539 . S
C701 C697 1.408 . S
C701 C700 1.404 . S
C701 H713 0.930 . S
C702 C698 1.524 . S
C702 H714 0.956 . S
C702 H715 0.961 . S
C702 H716 0.961 . S
C703 C700 1.539 . S
C703 H717 0.958 . S
C703 H718 0.961 . S
C703 H719 0.960 1_556 S
H704 C688 0.931 . S
H705 C693 0.929 . S
H706 C694 0.960 . S
H707 C694 0.962 . S
H708 C694 0.960 . S
H709 C695 0.961 . S
H710 C695 0.961 . S
H711 C695 0.961 . S
H712 C696 0.931 . S
H713 C701 0.930 . S
H714 C702 0.956 . S
H715 C702 0.961 . S
H716 C702 0.961 . S
H717 C703 0.958 . S
H718 C703 0.961 . S
H719 C703 0.960 1_554 S
C720 C721 1.391 . S
C720 C722 1.394 . S
C720 H736 0.931 . S
C721 C720 1.391 . S
C721 C725 1.376 . S
C722 C720 1.394 . S
C722 C723 1.369 . S
C722 C726 1.531 . S
C723 C722 1.369 . S
C723 C724 1.410 . S
C723 C731 1.503 . S
C724 C723 1.410 . S
C724 C725 1.392 . S
C724 C727 1.511 . S
C725 C721 1.376 . S
C725 C724 1.392 . S
C725 H737 0.929 . S
C726 C722 1.531 . S
C726 H738 0.960 . S
C726 H739 0.962 . S
C726 H740 0.960 . S
C727 C724 1.511 . S
C727 H741 0.961 . S
C727 H742 0.961 . S
C727 H743 0.961 . S
C728 C729 1.370 . S
C728 C730 1.363 . S
C728 H744 0.931 . S
C729 C728 1.370 . S
C729 C733 1.408 . S
C730 C728 1.363 . S
C730 C731 1.370 . S
C730 C734 1.524 . S
C731 C723 1.503 . S
C731 C730 1.370 . S
C731 C732 1.403 . S
C732 C731 1.403 . S
C732 C733 1.404 . S
C732 C735 1.539 . S
C733 C729 1.408 . S
C733 C732 1.404 . S
C733 H745 0.930 1_554 S
C734 C730 1.524 . S
C734 H746 0.956 . S
C734 H747 0.961 . S
C734 H748 0.961 . S
C735 C732 1.539 . S
C735 H749 0.958 . S
C735 H750 0.961 1_554 S
C735 H751 0.960 . S
H736 C720 0.931 . S
H737 C725 0.929 . S
H738 C726 0.960 . S
H739 C726 0.962 . S
H740 C726 0.960 . S
H741 C727 0.961 . S
H742 C727 0.961 . S
H743 C727 0.961 . S
H744 C728 0.931 . S
H745 C733 0.930 1_556 S
H746 C734 0.956 . S
H747 C734 0.961 . S
H748 C734 0.961 . S
H749 C735 0.958 . S
H750 C735 0.961 1_556 S
H751 C735 0.960 . S
C752 C753 1.416 . S
C752 C754 1.394 . S
C752 H768 0.931 . S
C753 C752 1.416 . S
C753 C757 1.355 1_565 S
C754 C752 1.394 . S
C754 C755 1.369 . S
C754 C758 1.531 . S
C755 C754 1.369 . S
C755 C756 1.410 1_565 S
C755 C763 1.503 . S
C756 C755 1.410 1_545 S
C756 C757 1.392 . S
C756 C759 1.511 . S
C757 C753 1.355 1_545 S
C757 C756 1.392 . S
C757 H769 0.929 . S
C758 C754 1.531 . S
C758 H770 0.960 . S
C758 H771 0.962 . S
C758 H772 0.960 . S
C759 C756 1.511 . S
C759 H773 0.961 . S
C759 H774 0.961 1_554 S
C759 H775 0.961 1_554 S
C760 C761 1.370 . S
C760 C762 1.363 1_556 S
C760 H776 0.931 . S
C761 C760 1.370 . S
C761 C765 1.408 1_545 S
C762 C760 1.363 1_554 S
C762 C763 1.364 1_545 S
C762 C766 1.524 . S
C763 C755 1.503 . S
C763 C762 1.364 1_565 S
C763 C764 1.410 1_554 S
C764 C763 1.410 1_556 S
C764 C765 1.404 . S
C764 C767 1.539 . S
C765 C761 1.408 1_565 S
C765 C764 1.404 . S
C765 H777 0.930 . S
C766 C762 1.524 . S
C766 H778 0.956 . S
C766 H779 0.961 . S
C766 H780 0.961 . S
C767 C764 1.539 . S
C767 H781 0.958 . S
C767 H782 0.961 . S
C767 H783 0.960 . S
H768 C752 0.931 . S
H769 C757 0.929 . S
H770 C758 0.960 . S
H771 C758 0.962 . S
H772 C758 0.960 . S
H773 C759 0.961 . S
H774 C759 0.961 1_556 S
H775 C759 0.961 1_556 S
H776 C760 0.931 . S
H777 C765 0.930 . S
H778 C766 0.956 . S
H779 C766 0.961 . S
H780 C766 0.961 . S
H781 C767 0.958 . S
H782 C767 0.961 . S
H783 C767 0.960 . S
C784 C785 1.391 . S
C784 C786 1.394 . S
C784 H800 0.931 . S
C785 C784 1.391 . S
C785 C789 1.376 . S
C786 C784 1.394 . S
C786 C787 1.369 . S
C786 C790 1.531 1_554 S
C787 C786 1.369 . S
C787 C788 1.410 . S
C787 C795 1.503 . S
C788 C787 1.410 . S
C788 C789 1.392 . S
C788 C791 1.511 . S
C789 C785 1.376 . S
C789 C788 1.392 . S
C789 H801 0.929 . S
C790 C786 1.531 1_556 S
C790 H802 0.960 . S
C790 H803 0.963 . S
C790 H804 0.960 . S
C791 C788 1.511 . S
C791 H805 0.961 . S
C791 H806 0.961 . S
C791 H807 0.961 . S
C792 C793 1.370 . S
C792 C794 1.363 1_556 S
C792 H808 0.931 . S
C793 C792 1.370 . S
C793 C797 1.408 . S
C794 C792 1.363 1_554 S
C794 C795 1.370 . S
C794 C798 1.524 . S
C795 C787 1.503 . S
C795 C794 1.370 . S
C795 C796 1.403 1_554 S
C796 C795 1.403 1_556 S
C796 C797 1.404 . S
C796 C799 1.539 . S
C797 C793 1.408 . S
C797 C796 1.404 . S
C797 H809 0.930 . S
C798 C794 1.524 . S
C798 H810 0.956 . S
C798 H811 0.961 . S
C798 H812 0.961 . S
C799 C796 1.539 . S
C799 H813 0.958 . S
C799 H814 0.961 . S
C799 H815 0.960 . S
H800 C784 0.931 . S
H801 C789 0.929 . S
H802 C790 0.960 . S
H803 C790 0.963 . S
H804 C790 0.960 . S
H805 C791 0.961 . S
H806 C791 0.961 . S
H807 C791 0.961 . S
H808 C792 0.931 . S
H809 C797 0.930 . S
H810 C798 0.956 . S
H811 C798 0.961 . S
H812 C798 0.961 . S
H813 C799 0.958 . S
H814 C799 0.961 . S
H815 C799 0.960 . S
C816 C817 1.391 . S
C816 C818 1.394 . S
C816 H832 0.931 . S
C817 C816 1.391 . S
C817 C821 1.376 . S
C818 C816 1.394 . S
C818 C819 1.369 . S
C818 C822 1.531 . S
C819 C818 1.369 . S
C819 C820 1.410 . S
C819 C827 1.503 1_554 S
C820 C819 1.410 . S
C820 C821 1.392 . S
C820 C823 1.511 1_554 S
C821 C817 1.376 . S
C821 C820 1.392 . S
C821 H833 0.929 . S
C822 C818 1.531 . S
C822 H834 0.960 . S
C822 H835 0.962 . S
C822 H836 0.960 . S
C823 C820 1.511 1_556 S
C823 H837 0.961 . S
C823 H838 0.961 . S
C823 H839 0.961 . S
C824 C825 1.370 . S
C824 C826 1.363 . S
C824 H840 0.931 . S
C825 C824 1.370 . S
C825 C829 1.408 . S
C826 C824 1.363 . S
C826 C827 1.370 . S
C826 C830 1.524 1_556 S
C827 C819 1.503 1_556 S
C827 C826 1.370 . S
C827 C828 1.403 . S
C828 C827 1.403 . S
C828 C829 1.404 . S
C828 C831 1.539 . S
C829 C825 1.408 . S
C829 C828 1.404 . S
C829 H841 0.930 . S
C830 C826 1.524 1_554 S
C830 H842 0.956 . S
C830 H843 0.961 . S
C830 H844 0.961 . S
C831 C828 1.539 . S
C831 H845 0.958 . S
C831 H846 0.961 . S
C831 H847 0.960 . S
H832 C816 0.931 . S
H833 C821 0.929 . S
H834 C822 0.960 . S
H835 C822 0.962 . S
H836 C822 0.960 . S
H837 C823 0.961 . S
H838 C823 0.961 . S
H839 C823 0.961 . S
H840 C824 0.931 . S
H841 C829 0.930 . S
H842 C830 0.956 . S
H843 C830 0.961 . S
H844 C830 0.961 . S
H845 C831 0.958 . S
H846 C831 0.961 . S
H847 C831 0.960 . S
C848 C849 1.391 . S
C848 C850 1.394 . S
C848 H864 0.931 . S
C849 C848 1.391 . S
C849 C853 1.376 . S
C850 C848 1.394 . S
C850 C851 1.369 . S
C850 C854 1.531 . S
C851 C850 1.369 . S
C851 C852 1.410 . S
C851 C859 1.503 . S
C852 C851 1.410 . S
C852 C853 1.392 . S
C852 C855 1.511 . S
C853 C849 1.376 . S
C853 C852 1.392 . S
C853 H865 0.929 . S
C854 C850 1.531 . S
C854 H866 0.960 . S
C854 H867 0.962 . S
C854 H868 0.960 . S
C855 C852 1.511 . S
C855 H869 0.961 . S
C855 H870 0.961 . S
C855 H871 0.961 1_655 S
C856 C857 1.370 . S
C856 C858 1.363 . S
C856 H872 0.931 . S
C857 C856 1.370 . S
C857 C861 1.408 . S
C858 C856 1.363 . S
C858 C859 1.370 . S
C858 C862 1.524 . S
C859 C851 1.503 . S
C859 C858 1.370 . S
C859 C860 1.403 . S
C860 C859 1.403 . S
C860 C861 1.404 . S
C860 C863 1.539 . S
C861 C857 1.408 . S
C861 C860 1.404 . S
C861 H873 0.930 . S
C862 C858 1.524 . S
C862 H874 0.956 . S
C862 H875 0.961 . S
C862 H876 0.961 . S
C863 C860 1.539 . S
C863 H877 0.958 . S
C863 H878 0.961 . S
C863 H879 0.960 . S
H864 C848 0.931 . S
H865 C853 0.929 . S
H866 C854 0.960 . S
H867 C854 0.962 . S
H868 C854 0.960 . S
H869 C855 0.961 . S
H870 C855 0.961 . S
H871 C855 0.961 1_455 S
H872 C856 0.931 . S
H873 C861 0.930 . S
H874 C862 0.956 . S
H875 C862 0.961 . S
H876 C862 0.961 . S
H877 C863 0.958 . S
H878 C863 0.961 . S
H879 C863 0.960 . S
C880 C881 1.391 . S
C880 C882 1.394 . S
C880 H896 0.930 1_565 S
C881 C880 1.391 . S
C881 C885 1.376 . S
C882 C880 1.394 . S
C882 C883 1.369 . S
C882 C886 1.531 . S
C883 C882 1.369 . S
C883 C884 1.410 . S
C883 C891 1.503 . S
C884 C883 1.410 . S
C884 C885 1.392 . S
C884 C887 1.511 . S
C885 C881 1.376 . S
C885 C884 1.392 . S
C885 H897 0.929 . S
C886 C882 1.531 . S
C886 H898 0.960 . S
C886 H899 0.962 1_565 S
C886 H900 0.960 . S
C887 C884 1.511 . S
C887 H901 0.961 . S
C887 H902 0.961 . S
C887 H903 0.961 . S
C888 C889 1.370 1_545 S
C888 C890 1.363 . S
C888 H904 0.931 . S
C889 C888 1.370 1_565 S
C889 C893 1.408 . S
C890 C888 1.363 . S
C890 C891 1.370 1_545 S
C890 C894 1.524 . S
C891 C883 1.503 . S
C891 C890 1.370 1_565 S
C891 C892 1.403 . S
C892 C891 1.403 . S
C892 C893 1.404 . S
C892 C895 1.539 . S
C893 C889 1.408 . S
C893 C892 1.404 . S
C893 H905 0.930 . S
C894 C890 1.524 . S
C894 H906 0.956 . S
C894 H907 0.961 . S
C894 H908 0.961 . S
C895 C892 1.539 . S
C895 H909 0.958 . S
C895 H910 0.961 . S
C895 H911 0.960 . S
H896 C880 0.930 1_545 S
H897 C885 0.929 . S
H898 C886 0.960 . S
H899 C886 0.962 1_545 S
H900 C886 0.960 . S
H901 C887 0.961 . S
H902 C887 0.961 . S
H903 C887 0.961 . S
H904 C888 0.931 . S
H905 C893 0.930 . S
H906 C894 0.956 . S
H907 C894 0.961 . S
H908 C894 0.961 . S
H909 C895 0.958 . S
H910 C895 0.961 . S
H911 C895 0.960 . S
C912 C913 1.391 . S
C912 C914 1.394 . S
C912 H928 0.931 . S
C913 C912 1.391 . S
C913 C917 1.376 . S
C914 C912 1.394 . S
C914 C915 1.369 . S
C914 C918 1.531 . S
C915 C914 1.369 . S
C915 C916 1.410 . S
C915 C923 1.503 . S
C916 C915 1.410 . S
C916 C917 1.392 . S
C916 C919 1.511 . S
C917 C913 1.376 . S
C917 C916 1.392 . S
C917 H929 0.929 . S
C918 C914 1.531 . S
C918 H930 0.960 . S
C918 H931 0.962 . S
C918 H932 0.960 . S
C919 C916 1.511 . S
C919 H933 0.961 . S
C919 H934 0.961 . S
C919 H935 0.961 . S
C920 C921 1.370 . S
C920 C922 1.363 . S
C920 H936 0.931 . S
C921 C920 1.370 . S
C921 C925 1.408 . S
C922 C920 1.363 . S
C922 C923 1.370 . S
C922 C926 1.524 . S
C923 C915 1.503 . S
C923 C922 1.370 . S
C923 C924 1.403 . S
C924 C923 1.403 . S
C924 C925 1.404 . S
C924 C927 1.539 . S
C925 C921 1.408 . S
C925 C924 1.404 . S
C925 H937 0.930 . S
C926 C922 1.524 . S
C926 H938 0.956 . S
C926 H939 0.961 . S
C926 H940 0.961 . S
C927 C924 1.539 . S
C927 H941 0.958 . S
C927 H942 0.961 . S
C927 H943 0.960 . S
H928 C912 0.931 . S
H929 C917 0.929 . S
H930 C918 0.960 . S
H931 C918 0.962 . S
H932 C918 0.960 . S
H933 C919 0.961 . S
H934 C919 0.961 . S
H935 C919 0.961 . S
H936 C920 0.931 . S
H937 C925 0.930 . S
H938 C926 0.956 . S
H939 C926 0.961 . S
H940 C926 0.961 . S
H941 C927 0.958 . S
H942 C927 0.961 . S
H943 C927 0.960 . S
C944 C945 1.391 . S
C944 C946 1.394 . S
C944 H960 0.931 . S
C945 C944 1.391 . S
C945 C949 1.376 . S
C946 C944 1.394 . S
C946 C947 1.369 . S
C946 C950 1.531 . S
C947 C946 1.369 . S
C947 C948 1.410 . S
C947 C955 1.503 . S
C948 C947 1.410 . S
C948 C949 1.392 . S
C948 C951 1.511 . S
C949 C945 1.376 . S
C949 C948 1.392 . S
C949 H961 0.929 . S
C950 C946 1.531 . S
C950 H962 0.960 . S
C950 H963 0.962 . S
C950 H964 0.960 . S
C951 C948 1.511 . S
C951 H965 0.961 . S
C951 H966 0.961 . S
C951 H967 0.961 . S
C952 C953 1.370 . S
C952 C954 1.363 . S
C952 H968 0.931 . S
C953 C952 1.370 . S
C953 C957 1.408 . S
C954 C952 1.363 . S
C954 C955 1.370 . S
C954 C958 1.524 . S
C955 C947 1.503 . S
C955 C954 1.370 . S
C955 C956 1.403 . S
C956 C955 1.403 . S
C956 C957 1.404 . S
C956 C959 1.539 . S
C957 C953 1.408 . S
C957 C956 1.404 . S
C957 H969 0.930 . S
C958 C954 1.524 . S
C958 H970 0.956 . S
C958 H971 0.961 . S
C958 H972 0.961 . S
C959 C956 1.539 . S
C959 H973 0.958 . S
C959 H974 0.961 . S
C959 H975 0.960 . S
H960 C944 0.931 . S
H961 C949 0.929 . S
H962 C950 0.960 . S
H963 C950 0.962 . S
H964 C950 0.960 . S
H965 C951 0.961 . S
H966 C951 0.961 . S
H967 C951 0.961 . S
H968 C952 0.931 . S
H969 C957 0.930 . S
H970 C958 0.956 . S
H971 C958 0.961 . S
H972 C958 0.961 . S
H973 C959 0.958 . S
H974 C959 0.961 . S
H975 C959 0.960 . S
C209 C61 1.794 . S
C217 C89 1.811 . S
C249 C110 1.546 . S
C241 C70 1.544 . S
C281 C144 1.368 . S
C273 C43 1.324 . S
C313 C178 1.559 . S
C305 C52 1.511 . S
C345 C80 1.813 . S
C337 C25 1.775 1_545 S
C369 C34 1.543 . S
C377 C119 1.549 . S
C401 C7 1.372 . S
C409 C153 1.356 . S
C433 C16 1.538 . S
C441 C187 1.561 . S
C473 C101 0.389 . S
C465 C50 0.581 . S
C505 C106 0.664 . S
C497 C59 0.699 1_545 S
C537 C140 0.666 . S
C529 C67 0.708 . S
C561 C41 0.381 . S
C569 C174 0.317 . S
C593 C14 0.429 . S
C601 C72 0.456 . S
C633 C135 0.672 . S
C625 C23 0.710 . S
C665 C169 0.676 . S
C657 C31 0.722 . S
C689 C5 0.283 . S
C697 C203 0.304 . S
C721 C49 1.374 . S
C729 C85 1.384 . S
C753 C58 1.760 . S
C761 C114 1.802 . S
C793 C148 1.541 . S
C785 C68 1.515 . S
C825 C182 1.551 . S
C817 C40 1.512 . S
C849 C13 1.367 . S
C857 C76 1.386 . S
C889 C123 1.802 . S
C881 C22 1.737 . S
C921 C157 1.539 . S
C913 C32 1.465 . S
C945 C4 1.491 . S
C953 C191 1.550 . S
