# Generated by pormake.
# Topology tbo, (3,4)-cn, num edge types: 1
# Building blocks:
#     Node 0, Type 0, BuildingBlock: ESEHIV_clean_linker_0, # of connection points: 3
#     Node 1, Type 0, BuildingBlock: ESEHIV_clean_linker_0, # of connection points: 3
#     Node 2, Type 0, BuildingBlock: ESEHIV_clean_linker_0, # of connection points: 3
#     Node 3, Type 0, BuildingBlock: ESEHIV_clean_linker_0, # of connection points: 3
#     Node 4, Type 0, BuildingBlock: ESEHIV_clean_linker_0, # of connection points: 3
#     Node 5, Type 0, BuildingBlock: ESEHIV_clean_linker_0, # of connection points: 3
#     Node 6, Type 0, BuildingBlock: ESEHIV_clean_linker_0, # of connection points: 3
#     Node 7, Type 0, BuildingBlock: ESEHIV_clean_linker_0, # of connection points: 3
#     Node 8, Type 0, BuildingBlock: ESEHIV_clean_linker_0, # of connection points: 3
#     Node 9, Type 0, BuildingBlock: ESEHIV_clean_linker_0, # of connection points: 3
#     Node 10, Type 0, BuildingBlock: ESEHIV_clean_linker_0, # of connection points: 3
#     Node 11, Type 0, BuildingBlock: ESEHIV_clean_linker_0, # of connection points: 3
#     Node 12, Type 0, BuildingBlock: ESEHIV_clean_linker_0, # of connection points: 3
#     Node 13, Type 0, BuildingBlock: ESEHIV_clean_linker_0, # of connection points: 3
#     Node 14, Type 0, BuildingBlock: ESEHIV_clean_linker_0, # of connection points: 3
#     Node 15, Type 0, BuildingBlock: ESEHIV_clean_linker_0, # of connection points: 3
#     Node 16, Type 0, BuildingBlock: ESEHIV_clean_linker_0, # of connection points: 3
#     Node 17, Type 0, BuildingBlock: ESEHIV_clean_linker_0, # of connection points: 3
#     Node 18, Type 0, BuildingBlock: ESEHIV_clean_linker_0, # of connection points: 3
#     Node 19, Type 0, BuildingBlock: ESEHIV_clean_linker_0, # of connection points: 3
#     Node 20, Type 0, BuildingBlock: ESEHIV_clean_linker_0, # of connection points: 3
#     Node 21, Type 0, BuildingBlock: ESEHIV_clean_linker_0, # of connection points: 3
#     Node 22, Type 0, BuildingBlock: ESEHIV_clean_linker_0, # of connection points: 3
#     Node 23, Type 0, BuildingBlock: ESEHIV_clean_linker_0, # of connection points: 3
#     Node 24, Type 0, BuildingBlock: ESEHIV_clean_linker_0, # of connection points: 3
#     Node 25, Type 0, BuildingBlock: ESEHIV_clean_linker_0, # of connection points: 3
#     Node 26, Type 0, BuildingBlock: ESEHIV_clean_linker_0, # of connection points: 3
#     Node 27, Type 0, BuildingBlock: ESEHIV_clean_linker_0, # of connection points: 3
#     Node 28, Type 0, BuildingBlock: ESEHIV_clean_linker_0, # of connection points: 3
#     Node 29, Type 0, BuildingBlock: ESEHIV_clean_linker_0, # of connection points: 3
#     Node 30, Type 0, BuildingBlock: ESEHIV_clean_linker_0, # of connection points: 3
#     Node 31, Type 0, BuildingBlock: ESEHIV_clean_linker_0, # of connection points: 3
#     Node 32, Type 1, BuildingBlock: ESEHIV_clean_sbu_0, # of connection points: 4
#     Node 33, Type 1, BuildingBlock: ESEHIV_clean_sbu_0, # of connection points: 4
#     Node 34, Type 1, BuildingBlock: ESEHIV_clean_sbu_0, # of connection points: 4
#     Node 35, Type 1, BuildingBlock: ESEHIV_clean_sbu_0, # of connection points: 4
#     Node 36, Type 1, BuildingBlock: ESEHIV_clean_sbu_0, # of connection points: 4
#     Node 37, Type 1, BuildingBlock: ESEHIV_clean_sbu_0, # of connection points: 4
#     Node 38, Type 1, BuildingBlock: ESEHIV_clean_sbu_0, # of connection points: 4
#     Node 39, Type 1, BuildingBlock: ESEHIV_clean_sbu_0, # of connection points: 4
#     Node 40, Type 1, BuildingBlock: ESEHIV_clean_sbu_0, # of connection points: 4
#     Node 41, Type 1, BuildingBlock: ESEHIV_clean_sbu_0, # of connection points: 4
#     Node 42, Type 1, BuildingBlock: ESEHIV_clean_sbu_0, # of connection points: 4
#     Node 43, Type 1, BuildingBlock: ESEHIV_clean_sbu_0, # of connection points: 4
#     Node 44, Type 1, BuildingBlock: ESEHIV_clean_sbu_0, # of connection points: 4
#     Node 45, Type 1, BuildingBlock: ESEHIV_clean_sbu_0, # of connection points: 4
#     Node 46, Type 1, BuildingBlock: ESEHIV_clean_sbu_0, # of connection points: 4
#     Node 47, Type 1, BuildingBlock: ESEHIV_clean_sbu_0, # of connection points: 4
#     Node 48, Type 1, BuildingBlock: ESEHIV_clean_sbu_0, # of connection points: 4
#     Node 49, Type 1, BuildingBlock: ESEHIV_clean_sbu_0, # of connection points: 4
#     Node 50, Type 1, BuildingBlock: ESEHIV_clean_sbu_0, # of connection points: 4
#     Node 51, Type 1, BuildingBlock: ESEHIV_clean_sbu_0, # of connection points: 4
#     Node 52, Type 1, BuildingBlock: ESEHIV_clean_sbu_0, # of connection points: 4
#     Node 53, Type 1, BuildingBlock: ESEHIV_clean_sbu_0, # of connection points: 4
#     Node 54, Type 1, BuildingBlock: ESEHIV_clean_sbu_0, # of connection points: 4
#     Node 55, Type 1, BuildingBlock: ESEHIV_clean_sbu_0, # of connection points: 4
#     Edge 56, Type (0, 1), BuildingBlock: CIFDUS_clean_linker_0, # of connection points: 2
#     Edge 57, Type (0, 1), BuildingBlock: CIFDUS_clean_linker_0, # of connection points: 2
#     Edge 58, Type (0, 1), BuildingBlock: CIFDUS_clean_linker_0, # of connection points: 2
#     Edge 59, Type (0, 1), BuildingBlock: CIFDUS_clean_linker_0, # of connection points: 2
#     Edge 60, Type (0, 1), BuildingBlock: CIFDUS_clean_linker_0, # of connection points: 2
#     Edge 61, Type (0, 1), BuildingBlock: CIFDUS_clean_linker_0, # of connection points: 2
#     Edge 62, Type (0, 1), BuildingBlock: CIFDUS_clean_linker_0, # of connection points: 2
#     Edge 63, Type (0, 1), BuildingBlock: CIFDUS_clean_linker_0, # of connection points: 2
#     Edge 64, Type (0, 1), BuildingBlock: CIFDUS_clean_linker_0, # of connection points: 2
#     Edge 65, Type (0, 1), BuildingBlock: CIFDUS_clean_linker_0, # of connection points: 2
#     Edge 66, Type (0, 1), BuildingBlock: CIFDUS_clean_linker_0, # of connection points: 2
#     Edge 67, Type (0, 1), BuildingBlock: CIFDUS_clean_linker_0, # of connection points: 2
#     Edge 68, Type (0, 1), BuildingBlock: CIFDUS_clean_linker_0, # of connection points: 2
#     Edge 69, Type (0, 1), BuildingBlock: CIFDUS_clean_linker_0, # of connection points: 2
#     Edge 70, Type (0, 1), BuildingBlock: CIFDUS_clean_linker_0, # of connection points: 2
#     Edge 71, Type (0, 1), BuildingBlock: CIFDUS_clean_linker_0, # of connection points: 2
#     Edge 72, Type (0, 1), BuildingBlock: CIFDUS_clean_linker_0, # of connection points: 2
#     Edge 73, Type (0, 1), BuildingBlock: CIFDUS_clean_linker_0, # of connection points: 2
#     Edge 74, Type (0, 1), BuildingBlock: CIFDUS_clean_linker_0, # of connection points: 2
#     Edge 75, Type (0, 1), BuildingBlock: CIFDUS_clean_linker_0, # of connection points: 2
#     Edge 76, Type (0, 1), BuildingBlock: CIFDUS_clean_linker_0, # of connection points: 2
#     Edge 77, Type (0, 1), BuildingBlock: CIFDUS_clean_linker_0, # of connection points: 2
#     Edge 78, Type (0, 1), BuildingBlock: CIFDUS_clean_linker_0, # of connection points: 2
#     Edge 79, Type (0, 1), BuildingBlock: CIFDUS_clean_linker_0, # of connection points: 2
#     Edge 80, Type (0, 1), BuildingBlock: CIFDUS_clean_linker_0, # of connection points: 2
#     Edge 81, Type (0, 1), BuildingBlock: CIFDUS_clean_linker_0, # of connection points: 2
#     Edge 82, Type (0, 1), BuildingBlock: CIFDUS_clean_linker_0, # of connection points: 2
#     Edge 83, Type (0, 1), BuildingBlock: CIFDUS_clean_linker_0, # of connection points: 2
#     Edge 84, Type (0, 1), BuildingBlock: CIFDUS_clean_linker_0, # of connection points: 2
#     Edge 85, Type (0, 1), BuildingBlock: CIFDUS_clean_linker_0, # of connection points: 2
#     Edge 86, Type (0, 1), BuildingBlock: CIFDUS_clean_linker_0, # of connection points: 2
#     Edge 87, Type (0, 1), BuildingBlock: CIFDUS_clean_linker_0, # of connection points: 2
#     Edge 88, Type (0, 1), BuildingBlock: CIFDUS_clean_linker_0, # of connection points: 2
#     Edge 89, Type (0, 1), BuildingBlock: CIFDUS_clean_linker_0, # of connection points: 2
#     Edge 90, Type (0, 1), BuildingBlock: CIFDUS_clean_linker_0, # of connection points: 2
#     Edge 91, Type (0, 1), BuildingBlock: CIFDUS_clean_linker_0, # of connection points: 2
#     Edge 92, Type (0, 1), BuildingBlock: CIFDUS_clean_linker_0, # of connection points: 2
#     Edge 93, Type (0, 1), BuildingBlock: CIFDUS_clean_linker_0, # of connection points: 2
#     Edge 94, Type (0, 1), BuildingBlock: CIFDUS_clean_linker_0, # of connection points: 2
#     Edge 95, Type (0, 1), BuildingBlock: CIFDUS_clean_linker_0, # of connection points: 2
#     Edge 96, Type (0, 1), BuildingBlock: CIFDUS_clean_linker_0, # of connection points: 2
#     Edge 97, Type (0, 1), BuildingBlock: CIFDUS_clean_linker_0, # of connection points: 2
#     Edge 98, Type (0, 1), BuildingBlock: CIFDUS_clean_linker_0, # of connection points: 2
#     Edge 99, Type (0, 1), BuildingBlock: CIFDUS_clean_linker_0, # of connection points: 2
#     Edge 100, Type (0, 1), BuildingBlock: CIFDUS_clean_linker_0, # of connection points: 2
#     Edge 101, Type (0, 1), BuildingBlock: CIFDUS_clean_linker_0, # of connection points: 2
#     Edge 102, Type (0, 1), BuildingBlock: CIFDUS_clean_linker_0, # of connection points: 2
#     Edge 103, Type (0, 1), BuildingBlock: CIFDUS_clean_linker_0, # of connection points: 2
#     Edge 104, Type (0, 1), BuildingBlock: CIFDUS_clean_linker_0, # of connection points: 2
#     Edge 105, Type (0, 1), BuildingBlock: CIFDUS_clean_linker_0, # of connection points: 2
#     Edge 106, Type (0, 1), BuildingBlock: CIFDUS_clean_linker_0, # of connection points: 2
#     Edge 107, Type (0, 1), BuildingBlock: CIFDUS_clean_linker_0, # of connection points: 2
#     Edge 108, Type (0, 1), BuildingBlock: CIFDUS_clean_linker_0, # of connection points: 2
#     Edge 109, Type (0, 1), BuildingBlock: CIFDUS_clean_linker_0, # of connection points: 2
#     Edge 110, Type (0, 1), BuildingBlock: CIFDUS_clean_linker_0, # of connection points: 2
#     Edge 111, Type (0, 1), BuildingBlock: CIFDUS_clean_linker_0, # of connection points: 2
#     Edge 112, Type (0, 1), BuildingBlock: CIFDUS_clean_linker_0, # of connection points: 2
#     Edge 113, Type (0, 1), BuildingBlock: CIFDUS_clean_linker_0, # of connection points: 2
#     Edge 114, Type (0, 1), BuildingBlock: CIFDUS_clean_linker_0, # of connection points: 2
#     Edge 115, Type (0, 1), BuildingBlock: CIFDUS_clean_linker_0, # of connection points: 2
#     Edge 116, Type (0, 1), BuildingBlock: CIFDUS_clean_linker_0, # of connection points: 2
#     Edge 117, Type (0, 1), BuildingBlock: CIFDUS_clean_linker_0, # of connection points: 2
#     Edge 118, Type (0, 1), BuildingBlock: CIFDUS_clean_linker_0, # of connection points: 2
#     Edge 119, Type (0, 1), BuildingBlock: CIFDUS_clean_linker_0, # of connection points: 2
#     Edge 120, Type (0, 1), BuildingBlock: CIFDUS_clean_linker_0, # of connection points: 2
#     Edge 121, Type (0, 1), BuildingBlock: CIFDUS_clean_linker_0, # of connection points: 2
#     Edge 122, Type (0, 1), BuildingBlock: CIFDUS_clean_linker_0, # of connection points: 2
#     Edge 123, Type (0, 1), BuildingBlock: CIFDUS_clean_linker_0, # of connection points: 2
#     Edge 124, Type (0, 1), BuildingBlock: CIFDUS_clean_linker_0, # of connection points: 2
#     Edge 125, Type (0, 1), BuildingBlock: CIFDUS_clean_linker_0, # of connection points: 2
#     Edge 126, Type (0, 1), BuildingBlock: CIFDUS_clean_linker_0, # of connection points: 2
#     Edge 127, Type (0, 1), BuildingBlock: CIFDUS_clean_linker_0, # of connection points: 2
#     Edge 128, Type (0, 1), BuildingBlock: CIFDUS_clean_linker_0, # of connection points: 2
#     Edge 129, Type (0, 1), BuildingBlock: CIFDUS_clean_linker_0, # of connection points: 2
#     Edge 130, Type (0, 1), BuildingBlock: CIFDUS_clean_linker_0, # of connection points: 2
#     Edge 131, Type (0, 1), BuildingBlock: CIFDUS_clean_linker_0, # of connection points: 2
#     Edge 132, Type (0, 1), BuildingBlock: CIFDUS_clean_linker_0, # of connection points: 2
#     Edge 133, Type (0, 1), BuildingBlock: CIFDUS_clean_linker_0, # of connection points: 2
#     Edge 134, Type (0, 1), BuildingBlock: CIFDUS_clean_linker_0, # of connection points: 2
#     Edge 135, Type (0, 1), BuildingBlock: CIFDUS_clean_linker_0, # of connection points: 2
#     Edge 136, Type (0, 1), BuildingBlock: CIFDUS_clean_linker_0, # of connection points: 2
#     Edge 137, Type (0, 1), BuildingBlock: CIFDUS_clean_linker_0, # of connection points: 2
#     Edge 138, Type (0, 1), BuildingBlock: CIFDUS_clean_linker_0, # of connection points: 2
#     Edge 139, Type (0, 1), BuildingBlock: CIFDUS_clean_linker_0, # of connection points: 2
#     Edge 140, Type (0, 1), BuildingBlock: CIFDUS_clean_linker_0, # of connection points: 2
#     Edge 141, Type (0, 1), BuildingBlock: CIFDUS_clean_linker_0, # of connection points: 2
#     Edge 142, Type (0, 1), BuildingBlock: CIFDUS_clean_linker_0, # of connection points: 2
#     Edge 143, Type (0, 1), BuildingBlock: CIFDUS_clean_linker_0, # of connection points: 2
#     Edge 144, Type (0, 1), BuildingBlock: CIFDUS_clean_linker_0, # of connection points: 2
#     Edge 145, Type (0, 1), BuildingBlock: CIFDUS_clean_linker_0, # of connection points: 2
#     Edge 146, Type (0, 1), BuildingBlock: CIFDUS_clean_linker_0, # of connection points: 2
#     Edge 147, Type (0, 1), BuildingBlock: CIFDUS_clean_linker_0, # of connection points: 2
#     Edge 148, Type (0, 1), BuildingBlock: CIFDUS_clean_linker_0, # of connection points: 2
#     Edge 149, Type (0, 1), BuildingBlock: CIFDUS_clean_linker_0, # of connection points: 2
#     Edge 150, Type (0, 1), BuildingBlock: CIFDUS_clean_linker_0, # of connection points: 2
#     Edge 151, Type (0, 1), BuildingBlock: CIFDUS_clean_linker_0, # of connection points: 2
# Relax obj value: 0.003
# Max RMSD: 0.127
# Mean RMSD: 0.051
data_MOF--net-tbo--node1-ESEHIV_clean_sbu_0--node2-ESEHIV_clean_linker_0--edge1-CIFDUS_clean_linker_0
_symmetry_space_group_name_H-M    P1
_symmetry_Int_Tables_number       1
_symmetry_cell_setting            triclinic
loop_
_symmetry_equiv_pos_as_xyz
'x, y, z'
_cell_length_a     60.662946
_cell_length_b     60.505525
_cell_length_c     60.562945
_cell_angle_alpha  90.260473
_cell_angle_beta   93.171847
_cell_angle_gamma 91.16845
loop_
_atom_site_label
_atom_site_type_symbol
_atom_site_fract_x
_atom_site_fract_y
_atom_site_fract_z
_atom_type_partial_charge
H0 H 0.18564 0.22474 0.16165 0.0
H1 H 0.22748 0.16801 0.16337 0.0
H2 H 0.17771 0.17399 0.2104 0.0
C3 C 0.19035 0.20901 0.16874 0.0
C4 C 0.17919 0.20068 0.18687 0.0
C5 C 0.2081 0.19751 0.1603 0.0
C6 C 0.2144 0.17743 0.17013 0.0
C7 C 0.20378 0.16902 0.18833 0.0
C8 C 0.18606 0.1806 0.19643 0.0
H9 H 0.86278 0.15417 0.22187 0.0
H10 H 0.8834 0.20415 0.17674 0.0
H11 H 0.8257 0.16361 0.1601 0.0
C12 C 0.86044 0.16277 0.20629 0.0
C13 C 0.84217 0.15711 0.19178 0.0
C14 C 0.87563 0.17955 0.20083 0.0
C15 C 0.87222 0.19071 0.18061 0.0
C16 C 0.85417 0.18527 0.16577 0.0
C17 C 0.83931 0.16841 0.17158 0.0
H18 H 0.80668 0.8865 0.1522 0.0
H19 H 0.8583 0.84056 0.14373 0.0
H20 H 0.85152 0.87084 0.2075 0.0
C21 C 0.82065 0.8775 0.15918 0.0
C22 C 0.82763 0.88038 0.18168 0.0
C23 C 0.832 0.8635 0.14544 0.0
C24 C 0.85017 0.85196 0.15432 0.0
C25 C 0.85746 0.85437 0.17666 0.0
C26 C 0.84614 0.86881 0.19024 0.0
H27 H 0.14433 0.86418 0.24376 0.0
H28 H 0.20199 0.87256 0.20661 0.0
H29 H 0.15688 0.81779 0.19197 0.0
C30 C 0.15465 0.85834 0.23098 0.0
C31 C 0.14813 0.83955 0.21839 0.0
C32 C 0.17397 0.87024 0.22679 0.0
C33 C 0.18706 0.86324 0.20982 0.0
C34 C 0.18117 0.84422 0.19718 0.0
C35 C 0.16147 0.8326 0.20141 0.0
H36 H 0.18004 0.86534 0.84436 0.0
H37 H 0.16613 0.81385 0.89088 0.0
H38 H 0.21449 0.86492 0.90818 0.0
C39 C 0.18345 0.85749 0.86019 0.0
C40 C 0.19896 0.86745 0.87542 0.0
C41 C 0.17166 0.83798 0.86535 0.0
C42 C 0.17523 0.82865 0.88654 0.0
C43 C 0.19038 0.8386 0.90225 0.0
C44 C 0.20232 0.85771 0.89635 0.0
H45 H 0.18482 0.21305 0.88463 0.0
H46 H 0.23015 0.16028 0.87597 0.0
H47 H 0.17332 0.16682 0.83098 0.0
C48 C 0.18985 0.19867 0.87566 0.0
C49 C 0.17703 0.19158 0.85683 0.0
C50 C 0.20909 0.18768 0.88289 0.0
C51 C 0.21528 0.16893 0.87088 0.0
C52 C 0.20229 0.16107 0.85233 0.0
C53 C 0.18322 0.17257 0.8454 0.0
H54 H 0.85684 0.19033 0.8652 0.0
H55 H 0.89761 0.20358 0.81053 0.0
H56 H 0.90328 0.24507 0.86805 0.0
C57 C 0.86952 0.20014 0.85775 0.0
C58 C 0.87851 0.21899 0.86904 0.0
C59 C 0.87666 0.194 0.83679 0.0
C60 C 0.89277 0.20726 0.82708 0.0
C61 C 0.90218 0.2258 0.83815 0.0
C62 C 0.89529 0.23124 0.85921 0.0
H63 H 0.82521 0.88922 0.85972 0.0
H64 H 0.88238 0.85052 0.84926 0.0
H65 H 0.8713 0.91064 0.8126 0.0
C66 C 0.84025 0.8866 0.85128 0.0
C67 C 0.84664 0.90188 0.83541 0.0
C68 C 0.85329 0.86828 0.85669 0.0
C69 C 0.87284 0.86516 0.84573 0.0
C70 C 0.87951 0.8802 0.82955 0.0
C71 C 0.8664 0.89876 0.82483 0.0
H72 H 0.17298 0.74642 0.63733 0.0
H73 H 0.22775 0.70271 0.63748 0.0
H74 H 0.19193 0.70996 0.6963 0.0
C75 C 0.18363 0.73481 0.64607 0.0
C76 C 0.18012 0.72938 0.66824 0.0
C77 C 0.20053 0.72501 0.63483 0.0
C78 C 0.21464 0.71026 0.64615 0.0
C79 C 0.2119 0.70492 0.6684 0.0
C80 C 0.1944 0.71436 0.67928 0.0
H81 H 0.88804 0.68346 0.72672 0.0
H82 H 0.88231 0.73016 0.67334 0.0
H83 H 0.83213 0.67973 0.68003 0.0
C84 C 0.87912 0.68981 0.7122 0.0
C85 C 0.85906 0.67954 0.70485 0.0
C86 C 0.88774 0.70817 0.70114 0.0
C87 C 0.87604 0.71592 0.68198 0.0
C88 C 0.85581 0.70587 0.67435 0.0
C89 C 0.84744 0.6878 0.68602 0.0
H90 H 0.83333 0.38781 0.67464 0.0
H91 H 0.89491 0.35343 0.68022 0.0
H92 H 0.8772 0.39641 0.73259 0.0
C93 C 0.84883 0.38438 0.68362 0.0
C94 C 0.8536 0.39406 0.70456 0.0
C95 C 0.86379 0.36973 0.67462 0.0
C96 C 0.88355 0.36506 0.68677 0.0
C97 C 0.88853 0.3746 0.70765 0.0
C98 C 0.87361 0.38927 0.7163 0.0
H99 H 0.18757 0.41096 0.74541 0.0
H100 H 0.22866 0.42181 0.69085 0.0
H101 H 0.18765 0.36291 0.69282 0.0
C102 C 0.19365 0.4054 0.72987 0.0
C103 C 0.18582 0.38525 0.72044 0.0
C104 C 0.20892 0.41876 0.71925 0.0
C105 C 0.21643 0.41181 0.69883 0.0
C106 C 0.20904 0.39154 0.68921 0.0
C107 C 0.19354 0.37849 0.70008 0.0
H108 H 0.15475 0.34001 0.34507 0.0
H109 H 0.15931 0.28433 0.38951 0.0
H110 H 0.20795 0.33695 0.39464 0.0
C111 C 0.16304 0.33145 0.35873 0.0
C112 C 0.18218 0.34109 0.36922 0.0
C113 C 0.15448 0.31093 0.36593 0.0
C114 C 0.16563 0.3 0.38369 0.0
C115 C 0.18504 0.30931 0.39394 0.0
C116 C 0.19301 0.32978 0.38665 0.0
H117 H 0.16663 0.69264 0.33715 0.0
H118 H 0.20691 0.63546 0.34706 0.0
H119 H 0.15063 0.63218 0.30112 0.0
C120 C 0.17006 0.67557 0.33343 0.0
C121 C 0.15619 0.66372 0.31783 0.0
C122 C 0.18858 0.66562 0.34398 0.0
C123 C 0.19303 0.64356 0.33874 0.0
C124 C 0.1796 0.63161 0.32309 0.0
C125 C 0.16134 0.64177 0.31261 0.0
H126 H 0.81871 0.68268 0.3718 0.0
H127 H 0.86008 0.66746 0.31867 0.0
H128 H 0.88025 0.71836 0.36575 0.0
C129 C 0.83385 0.68545 0.36342 0.0
C130 C 0.84886 0.70237 0.37075 0.0
C131 C 0.83782 0.6729 0.34452 0.0
C132 C 0.85722 0.67699 0.33339 0.0
C133 C 0.87278 0.69326 0.34092 0.0
C134 C 0.86835 0.70589 0.35959 0.0
H135 H 0.83767 0.37599 0.38609 0.0
H136 H 0.88148 0.32076 0.38325 0.0
H137 H 0.88208 0.37094 0.33349 0.0
C138 C 0.84991 0.36676 0.37775 0.0
C139 C 0.85871 0.37545 0.35853 0.0
C140 C 0.85815 0.34705 0.38705 0.0
C141 C 0.87488 0.33591 0.37635 0.0
C142 C 0.88337 0.34427 0.35687 0.0
C143 C 0.87508 0.36396 0.34808 0.0
H144 H 0.68421 0.22763 0.66619 0.0
H145 H 0.73276 0.17656 0.66346 0.0
H146 H 0.69681 0.18522 0.72186 0.0
C147 C 0.69345 0.2143 0.67387 0.0
C148 C 0.68936 0.20801 0.6956 0.0
C149 C 0.70918 0.20303 0.66199 0.0
C150 C 0.72048 0.18526 0.67226 0.0
C151 C 0.71626 0.1788 0.69394 0.0
C152 C 0.70078 0.19044 0.70541 0.0
H153 H 0.39696 0.16588 0.72089 0.0
H154 H 0.38922 0.22131 0.67729 0.0
H155 H 0.33428 0.17689 0.68606 0.0
C156 C 0.38672 0.1755 0.70949 0.0
C157 C 0.36462 0.16867 0.70449 0.0
C158 C 0.39576 0.19463 0.69997 0.0
C159 C 0.38232 0.20691 0.68519 0.0
C160 C 0.36015 0.20068 0.6801 0.0
C161 C 0.35148 0.18145 0.68965 0.0
H162 H 0.31063 0.89185 0.65434 0.0
H163 H 0.35424 0.83632 0.65682 0.0
H164 H 0.36088 0.88586 0.70726 0.0
C165 C 0.32401 0.8828 0.6624 0.0
C166 C 0.33508 0.89158 0.68178 0.0
C167 C 0.33061 0.86254 0.65327 0.0
C168 C 0.34821 0.85134 0.66396 0.0
C169 C 0.35892 0.85945 0.68343 0.0
C170 C 0.3525 0.87963 0.69215 0.0
H171 H 0.66027 0.89294 0.71374 0.0
H172 H 0.71572 0.88805 0.67318 0.0
H173 H 0.66412 0.83835 0.66803 0.0
C174 C 0.66903 0.88394 0.70157 0.0
C175 C 0.65955 0.86455 0.69173 0.0
C176 C 0.68961 0.89207 0.69521 0.0
C177 C 0.70052 0.88091 0.67886 0.0
C178 C 0.69156 0.86159 0.66883 0.0
C179 C 0.67108 0.85343 0.67547 0.0
H180 H 0.63603 0.85778 0.35074 0.0
H181 H 0.65415 0.80774 0.39791 0.0
H182 H 0.69876 0.86277 0.38709 0.0
C183 C 0.64785 0.85147 0.36311 0.0
C184 C 0.6682 0.86257 0.36731 0.0
C185 C 0.64269 0.83188 0.37418 0.0
C186 C 0.65814 0.82307 0.38971 0.0
C187 C 0.6786 0.83401 0.3946 0.0
C188 C 0.68338 0.85381 0.38323 0.0
H189 H 0.67601 0.21102 0.36755 0.0
H190 H 0.72412 0.1596 0.3671 0.0
H191 H 0.66998 0.15948 0.31841 0.0
C192 C 0.68194 0.19592 0.36052 0.0
C193 C 0.67097 0.18692 0.34134 0.0
C194 C 0.70089 0.18588 0.3703 0.0
C195 C 0.70886 0.16664 0.36052 0.0
C196 C 0.69807 0.15713 0.3416 0.0
C197 C 0.67883 0.16711 0.33258 0.0
H198 H 0.33949 0.19149 0.40284 0.0
H199 H 0.37947 0.17219 0.34999 0.0
H200 H 0.39742 0.23003 0.3893 0.0
C201 C 0.35378 0.19428 0.39317 0.0
C202 C 0.36807 0.21236 0.3983 0.0
C203 C 0.35762 0.17983 0.37569 0.0
C204 C 0.37615 0.18361 0.36318 0.0
C205 C 0.39073 0.20161 0.36793 0.0
C206 C 0.3866 0.21586 0.38568 0.0
H207 H 0.32161 0.892 0.36218 0.0
H208 H 0.37094 0.84289 0.35381 0.0
H209 H 0.37438 0.90472 0.31931 0.0
C210 C 0.33659 0.88663 0.35504 0.0
C211 C 0.34735 0.90093 0.34069 0.0
C212 C 0.34472 0.8655 0.35988 0.0
C213 C 0.36388 0.85876 0.34974 0.0
C214 C 0.37461 0.87266 0.33493 0.0
C215 C 0.36617 0.89376 0.33049 0.0
H216 H 0.6806 0.73271 0.15346 0.0
H217 H 0.72855 0.68183 0.16066 0.0
H218 H 0.67907 0.68765 0.20836 0.0
C219 C 0.68745 0.71896 0.16274 0.0
C220 C 0.6774 0.71157 0.18189 0.0
C221 C 0.70599 0.70838 0.15508 0.0
C222 C 0.71435 0.69009 0.16663 0.0
C223 C 0.70477 0.68236 0.18578 0.0
C224 C 0.68624 0.69319 0.19331 0.0
H225 H 0.38115 0.65085 0.22161 0.0
H226 H 0.37174 0.69596 0.16754 0.0
H227 H 0.32557 0.64197 0.17457 0.0
C228 C 0.37154 0.65635 0.20714 0.0
C229 C 0.35221 0.64442 0.19993 0.0
C230 C 0.37896 0.67482 0.19547 0.0
C231 C 0.36644 0.68154 0.17655 0.0
C232 C 0.34734 0.66976 0.16869 0.0
C233 C 0.34 0.65142 0.18074 0.0
H234 H 0.33495 0.36956 0.16869 0.0
H235 H 0.39415 0.33317 0.16161 0.0
H236 H 0.3856 0.36952 0.22153 0.0
C237 C 0.35089 0.36427 0.17539 0.0
C238 C 0.35836 0.37079 0.19692 0.0
C239 C 0.36391 0.35115 0.16232 0.0
C240 C 0.38446 0.34403 0.17132 0.0
C241 C 0.39254 0.35049 0.1927 0.0
C242 C 0.3793 0.3639 0.20534 0.0
H243 H 0.67708 0.37401 0.22039 0.0
H244 H 0.73334 0.38727 0.18186 0.0
H245 H 0.69462 0.32764 0.17054 0.0
C246 C 0.6877 0.3692 0.20746 0.0
C247 C 0.68381 0.34892 0.19626 0.0
C248 C 0.70532 0.38331 0.20208 0.0
C249 C 0.71933 0.37678 0.18554 0.0
C250 C 0.71594 0.35644 0.17442 0.0
C251 C 0.6979 0.3429 0.17968 0.0
H252 H 0.68102 0.37277 0.83884 0.0
H253 H 0.6735 0.3211 0.88683 0.0
H254 H 0.73097 0.36364 0.89118 0.0
C255 C 0.68736 0.36381 0.8532 0.0
C256 C 0.70784 0.37016 0.86369 0.0
C257 C 0.67469 0.3463 0.86156 0.0
C258 C 0.68306 0.33464 0.88025 0.0
C259 C 0.70335 0.34086 0.89095 0.0
C260 C 0.7155 0.35862 0.88261 0.0
H261 H 0.67004 0.72129 0.86367 0.0
H262 H 0.72632 0.67941 0.86801 0.0
H263 H 0.67756 0.67125 0.81404 0.0
C264 C 0.67928 0.70787 0.85708 0.0
C265 C 0.67119 0.69678 0.8377 0.0
C266 C 0.69915 0.70171 0.86812 0.0
C267 C 0.71107 0.68429 0.85942 0.0
C268 C 0.70363 0.67329 0.83974 0.0
C269 C 0.68357 0.67963 0.8291 0.0
H270 H 0.34167 0.70343 0.88133 0.0
H271 H 0.39415 0.70878 0.83617 0.0
H272 H 0.38946 0.75694 0.88762 0.0
C273 C 0.35656 0.71147 0.87601 0.0
C274 C 0.36468 0.73074 0.88712 0.0
C275 C 0.36678 0.70345 0.85728 0.0
C276 C 0.38584 0.71471 0.85036 0.0
C277 C 0.39375 0.73426 0.86087 0.0
C278 C 0.38319 0.742 0.87931 0.0
H279 H 0.34932 0.40282 0.87173 0.0
H280 H 0.3965 0.35152 0.88361 0.0
H281 H 0.40235 0.39387 0.8278 0.0
C282 C 0.36398 0.39433 0.86721 0.0
C283 C 0.37482 0.4007 0.84804 0.0
C284 C 0.37202 0.37676 0.88038 0.0
C285 C 0.39075 0.36567 0.87415 0.0
C286 C 0.40175 0.37172 0.85541 0.0
C287 C 0.39367 0.38912 0.84227 0.0
Cu288 Cu 0.29679 0.27309 0.01719 0.0
N289 N 0.32099 0.27857 0.99994 0.0
N290 N 0.34197 0.29788 0.97739 0.0
C291 C 0.3221 0.29595 0.98619 0.0
C292 C 0.3538 0.28091 0.98579 0.0
C293 C 0.3408 0.26896 0.99964 0.0
O294 O 0.27212 0.26666 0.99585 0.0
C295 C 0.31413 0.30121 0.04851 0.0
O296 O 0.3308 0.28895 0.04356 0.0
H297 H 0.30889 0.30757 0.98351 0.0
H298 H 0.34584 0.2549 1.00941 0.0
N299 N 0.29874 0.24905 0.03645 0.0
N300 N 0.28887 0.22882 0.06523 0.0
C301 C 0.28424 0.24635 0.05228 0.0
C302 C 0.31315 0.23254 0.03936 0.0
C303 C 0.30711 0.22004 0.0572 0.0
C304 C 0.27391 0.24807 0.98606 0.0
O305 O 0.29083 0.23574 0.9918 0.0
H306 H 0.27089 0.25757 0.05462 0.0
H307 H 0.32704 0.22971 0.0294 0.0
O308 O 0.29558 0.29806 0.03777 0.0
H309 H 0.37076 0.27758 0.98242 0.0
H310 H 0.31546 0.20562 0.06369 0.0
Cu311 Cu 0.80182 0.28534 0.02792 0.0
N312 N 0.80276 0.30985 0.04713 0.0
N313 N 0.79203 0.33191 0.07418 0.0
C314 C 0.78992 0.31177 0.06447 0.0
C315 C 0.80689 0.3431 0.0625 0.0
C316 C 0.81348 0.32948 0.04586 0.0
O317 O 0.80201 0.25953 0.04725 0.0
C318 C 0.77603 0.30691 0.99724 0.0
O319 O 0.79325 0.32026 1.00041 0.0
H320 H 0.77844 0.29893 0.06918 0.0
H321 H 0.82455 0.33401 0.03318 0.0
N322 N 0.82611 0.28448 1.01001 0.0
N323 N 0.84575 0.27744 0.9807 0.0
C324 C 0.82682 0.27324 0.99076 0.0
C325 C 0.84539 0.29592 1.01225 0.0
C326 C 0.85745 0.29175 0.99409 0.0
C327 C 0.82017 0.25634 0.05833 0.0
O328 O 0.8372 0.26935 0.05477 0.0
H329 H 0.81334 0.26296 0.98381 0.0
H330 H 0.85028 0.30676 0.02595 0.0
O331 O 0.77566 0.28874 1.00784 0.0
H332 H 0.81232 0.36006 0.06548 0.0
H333 H 0.87346 0.29885 0.99083 0.0
Cu334 Cu 0.78284 0.77744 1.00191 0.0
N335 N 0.80846 0.7807 0.98626 0.0
N336 N 0.83102 0.79288 0.96074 0.0
C337 C 0.8104 0.79312 0.96807 0.0
C338 C 0.84254 0.77977 0.97498 0.0
C339 C 0.82857 0.77226 0.99069 0.0
O340 O 0.75884 0.7691 0.98066 0.0
C341 C 0.79477 0.81584 0.02699 0.0
O342 O 0.81319 0.81434 0.01675 0.0
H343 H 0.79711 0.80278 0.96082 0.0
H344 H 0.8329 0.76173 1.00457 0.0
N345 N 0.78478 0.75386 0.0214 0.0
N346 N 0.77488 0.73243 0.04927 0.0
C347 C 0.7727 0.7522 0.03927 0.0
C348 C 0.79504 0.73446 0.01985 0.0
C349 C 0.78902 0.7212 0.03712 0.0
C350 C 0.74992 0.78072 0.96531 0.0
O351 O 0.75474 0.80195 0.96444 0.0
H352 H 0.76155 0.76489 0.04405 0.0
H353 H 0.80541 0.72995 1.00666 0.0
O354 O 0.77849 0.80309 0.021 0.0
H355 H 0.85981 0.77589 0.97418 0.0
H356 H 0.79429 0.70446 0.04015 0.0
Cu357 Cu 0.26271 0.76271 0.04395 0.0
N358 N 0.2602 0.78425 0.06599 0.0
N359 N 0.2463 0.80242 0.09424 0.0
C360 C 0.24212 0.7879 0.07739 0.0
C361 C 0.26789 0.80809 0.0933 0.0
C362 C 0.27641 0.79677 0.07601 0.0
O363 O 0.26706 0.73501 0.06042 0.0
C364 C 0.23329 0.7839 0.01536 0.0
O365 O 0.2436 0.80069 0.02549 0.0
H366 H 0.22652 0.77922 0.07401 0.0
H367 H 0.29346 0.79696 0.07168 0.0
N368 N 0.2869 0.76815 0.02666 0.0
N369 N 0.30907 0.76365 0.99869 0.0
C370 C 0.29395 0.75408 1.01136 0.0
C371 C 0.29784 0.78734 0.02352 0.0
C372 C 0.31162 0.78458 1.00639 0.0
C373 C 0.28665 0.73161 0.06839 0.0
O374 O 0.30257 0.74539 0.06334 0.0
H375 H 0.28709 0.73756 1.00875 0.0
H376 H 0.29515 0.80261 0.0322 0.0
O377 O 0.23763 0.76439 0.0221 0.0
H378 H 0.27705 0.8193 0.10453 0.0
H379 H 0.32221 0.79722 0.99974 0.0
Cu380 Cu 0.02274 0.26075 0.26432 0.0
N381 N 0.04172 0.26578 0.24133 0.0
N382 N 0.06967 0.2614 0.2191 0.0
C383 C 0.05969 0.25403 0.23713 0.0
C384 C 0.05739 0.27841 0.21153 0.0
C385 C 0.0402 0.28111 0.22532 0.0
O386 O 0.04156 0.25881 0.29149 0.0
C387 C 0.98593 0.22845 0.26406 0.0
O388 O 0.98243 0.23457 0.28438 0.0
H389 H 0.06505 0.23994 0.24671 0.0
H390 H 0.02743 0.29331 0.22371 0.0
N391 N 1.00613 0.28591 0.26912 0.0
N392 N 0.97965 0.30628 0.2827 0.0
C393 C 0.98448 0.28696 0.27306 0.0
C394 C 0.01508 0.30538 0.27626 0.0
C395 C 0.99881 0.31792 0.28477 0.0
C396 C 0.05706 0.24561 0.29666 0.0
O397 O 0.0589 0.22736 0.28516 0.0
H398 H 0.97287 0.27326 0.27077 0.0
H399 H 0.03258 0.30932 0.27708 0.0
O400 O 1.00278 0.23616 0.25474 0.0
H401 H 0.06067 0.28829 0.19718 0.0
H402 H 1.00112 0.33372 0.29315 0.0
Cu403 Cu 0.75593 1.00787 0.27415 0.0
N404 N 0.75632 0.02547 0.24871 0.0
N405 N 0.77108 0.05197 0.22801 0.0
C406 C 0.77437 0.03793 0.24504 0.0
C407 C 0.74994 0.04813 0.22051 0.0
C408 C 0.74086 0.03168 0.2333 0.0
O409 O 0.75753 0.03001 0.29808 0.0
C410 C 0.77403 0.97417 0.25351 0.0
O411 O 0.75494 0.97745 0.24281 0.0
H412 H 0.78931 0.03752 0.25565 0.0
H413 H 0.72399 0.02549 0.23205 0.0
N414 N 0.73086 0.98987 0.27852 0.0
N415 N 0.712 0.96202 0.29364 0.0
C416 C 0.73177 0.97244 0.2923 0.0
C417 C 0.70967 0.99057 0.27071 0.0
C418 C 0.69796 0.97344 0.28011 0.0
C419 C 0.74107 0.04286 0.29577 0.0
O420 O 0.72584 0.03837 0.28005 0.0
H421 H 0.74674 0.96774 0.30149 0.0
H422 H 0.70313 1.00267 0.25916 0.0
O423 O 0.77958 0.98682 0.26998 0.0
H424 H 0.7415 0.05685 0.20708 0.0
H425 H 0.68057 0.96957 0.277 0.0
Cu426 Cu 1.0043 0.75295 0.24535 0.0
N427 N 0.98548 0.75825 0.22066 0.0
N428 N 0.95994 0.77571 0.1996 0.0
C429 C 0.96844 0.77221 0.22034 0.0
C430 C 0.97208 0.76332 0.1864 0.0
C431 C 0.98787 0.75265 0.19943 0.0
O432 O 0.98595 0.75019 0.27063 0.0
C433 C 0.03923 0.78206 0.2626 0.0
O434 O 0.03669 0.77301 0.282 0.0
H435 H 0.96334 0.7807 0.23492 0.0
H436 H 1.00087 0.74249 0.19369 0.0
N437 N 0.02084 0.72738 0.24253 0.0
N438 N 0.04861 0.70404 0.24893 0.0
C439 C 0.0394 0.72313 0.25487 0.0
C440 C 0.01808 0.7103 0.22826 0.0
C441 C 0.03523 0.69588 0.23213 0.0
C442 C 0.9751 0.73203 0.27193 0.0
O443 O 0.97789 0.71651 0.25717 0.0
H444 H 0.04632 0.73413 0.26764 0.0
H445 H 1.00459 0.70843 0.21592 0.0
O446 O 0.02576 0.77707 0.24646 0.0
H447 H 0.97014 0.76251 0.16854 0.0
H448 H 0.03755 0.68055 0.22337 0.0
Cu449 Cu 0.25335 0.03654 0.28733 0.0
N450 N 0.25767 0.05731 0.31007 0.0
N451 N 0.27397 0.08594 0.32822 0.0
C452 C 0.27416 0.07249 0.31046 0.0
C453 C 0.25662 0.07896 0.33955 0.0
C454 C 0.24643 0.06134 0.32817 0.0
O455 O 0.24584 0.05363 0.26097 0.0
C456 C 0.28596 1.01084 0.30506 0.0
O457 O 0.2757 0.01689 0.32258 0.0
H458 H 0.2862 0.07348 0.29794 0.0
H459 H 0.23179 0.05238 0.33268 0.0
N460 N 0.23077 0.01579 0.29109 0.0
N461 N 0.21009 0.98585 0.28171 0.0
C462 C 0.22354 1.00205 0.27465 0.0
C463 C 0.22167 1.00808 0.30937 0.0
C464 C 0.20879 0.98963 0.3036 0.0
C465 C 0.22608 0.06046 0.25927 0.0
O466 O 0.21231 0.05439 0.27422 0.0
H467 H 0.22942 1.00308 0.25813 0.0
H468 H 0.22519 0.01447 0.3259 0.0
O469 O 0.27971 0.01886 0.28638 0.0
H470 H 0.2514 0.08635 0.35465 0.0
H471 H 0.19989 0.97936 0.31483 0.0
Cu472 Cu 0.03061 0.79337 0.7589 0.0
N473 N 0.04633 0.79405 0.7331 0.0
N474 N 0.0706 0.7845 0.70835 0.0
C475 C 0.06525 0.78349 0.7297 0.0
C476 C 0.05437 0.79612 0.69796 0.0
C477 C 0.0394 0.80183 0.71319 0.0
O478 O 0.05174 0.79036 0.7844 0.0
C479 C 0.99431 0.76281 0.76666 0.0
O480 O 0.99631 0.76883 0.78754 0.0
H481 H 0.07424 0.77423 0.7424 0.0
H482 H 0.02397 0.8101 0.70974 0.0
N483 N 0.01502 0.81941 0.76293 0.0
N484 N 0.99005 0.84177 0.77656 0.0
C485 C 1.00099 0.82266 0.77908 0.0
C486 C 1.01321 0.83736 0.74994 0.0
C487 C 0.99769 0.85111 0.75822 0.0
C488 C 0.06837 0.80366 0.78456 0.0
O489 O 0.06985 0.8177 0.7682 0.0
H490 H 0.99817 0.81081 0.79197 0.0
H491 H 0.0221 0.8401 0.7352 0.0
O492 O 1.00834 0.76993 0.7534 0.0
H493 H 0.05306 0.79977 0.68047 0.0
H494 H 0.99226 0.86661 0.75115 0.0
Cu495 Cu 0.27803 0.0204 0.78385 0.0
N496 N 0.30487 0.03655 0.78393 0.0
N497 N 0.32817 0.06404 0.77534 0.0
C498 C 0.30817 0.05427 0.77099 0.0
C499 C 0.33786 0.05188 0.79167 0.0
C500 C 0.32348 0.03493 0.79692 0.0
O501 O 0.25613 0.04369 0.78704 0.0
C502 C 0.29377 0.99085 0.75436 0.0
O503 O 0.31025 0.99304 0.76926 0.0
H504 H 0.29572 0.06034 0.75917 0.0
H505 H 0.3263 0.02254 0.8095 0.0
N506 N 0.27604 1.00047 0.80753 0.0
N507 N 0.26415 0.97124 0.82664 0.0
C508 C 0.26346 0.98177 0.80696 0.0
C509 C 0.28514 1.00173 0.82831 0.0
C510 C 0.27779 0.9838 0.84011 0.0
C511 C 0.26056 0.05597 0.80403 0.0
O512 O 0.27727 0.05081 0.81758 0.0
H513 H 0.25354 0.97633 0.79247 0.0
H514 H 0.29612 0.01486 0.83458 0.0
O515 O 0.27638 1.002 0.75685 0.0
H516 H 0.35417 0.05501 0.79936 0.0
H517 H 0.28226 0.98025 0.85726 0.0
Cu518 Cu 0.04543 0.3077 0.78644 0.0
N519 N 0.02975 0.33396 0.78713 0.0
N520 N 1.00154 0.35588 0.7777 0.0
C521 C 1.01174 0.33682 0.77363 0.0
C522 C 1.01401 0.36573 0.79427 0.0
C523 C 0.03144 0.35209 0.80012 0.0
O524 O 0.02279 0.28461 0.78173 0.0
C525 C 0.08294 0.32471 0.77107 0.0
O526 O 0.08219 0.33369 0.7908 0.0
H527 H 1.00613 0.3248 0.76118 0.0
H528 H 0.04407 0.35499 0.81317 0.0
N529 N 0.06078 0.30015 0.81282 0.0
N530 N 0.08319 0.28002 0.83489 0.0
C531 C 0.07407 0.28265 0.81427 0.0
C532 C 0.0613 0.30901 0.83325 0.0
C533 C 0.07516 0.2966 0.84693 0.0
C534 C 1.00888 0.28583 0.79671 0.0
O535 O 1.01221 0.30078 0.81241 0.0
H536 H 0.07661 0.27187 0.80039 0.0
H537 H 0.05222 0.32333 0.83791 0.0
O538 O 0.0673 0.31153 0.76435 0.0
H539 H 1.01044 0.38128 0.80207 0.0
H540 H 0.07915 0.29973 0.86431 0.0
Cu541 Cu 0.79288 0.04441 0.75803 0.0
N542 N 0.81784 0.06181 0.75351 0.0
N543 N 0.84235 0.08894 0.76195 0.0
C544 C 0.82795 0.0741 0.76974 0.0
C545 C 0.84177 0.08553 0.73989 0.0
C546 C 0.82646 0.06876 0.73468 0.0
O547 O 0.76862 0.06473 0.7583 0.0
C548 C 0.78883 1.01179 0.7925 0.0
O549 O 0.76831 1.00824 0.78505 0.0
H550 H 0.82376 0.07319 0.78686 0.0
H551 H 0.82087 0.0632 0.71828 0.0
N552 N 0.78554 0.02539 0.73432 0.0
N553 N 0.76812 0.99621 0.71815 0.0
C554 C 0.78111 1.00352 0.73556 0.0
C555 C 0.77552 0.03192 0.71514 0.0
C556 C 0.76469 0.01397 0.70515 0.0
C557 C 0.76903 0.0829 0.76894 0.0
O558 O 0.78341 0.08593 0.78573 0.0
H559 H 0.78529 0.9936 0.74993 0.0
H560 H 0.77417 0.04897 0.71001 0.0
O561 O 0.80006 0.0275 0.78451 0.0
H562 H 0.85041 0.09559 0.72827 0.0
H563 H 0.7538 0.01427 0.69038 0.0
Cu564 Cu 0.26589 0.77991 0.4894 0.0
N565 N 0.28891 0.78128 0.51132 0.0
N566 N 0.30511 0.79158 0.54393 0.0
C567 C 0.28829 0.79491 0.52895 0.0
C568 C 0.31697 0.77531 0.53539 0.0
C569 C 0.30705 0.7691 0.51514 0.0
O570 O 0.23999 0.78058 0.50718 0.0
C571 C 0.28716 0.80069 0.45692 0.0
O572 O 0.29822 0.78239 0.4598 0.0
H573 H 0.27504 0.80627 0.53129 0.0
H574 H 0.31251 0.75631 0.50439 0.0
N575 N 0.26372 0.75402 0.47181 0.0
N576 N 0.25012 0.73076 0.44529 0.0
C577 C 0.2475 0.75005 0.45606 0.0
C578 C 0.27702 0.7365 0.47105 0.0
C579 C 0.26872 0.7222 0.45468 0.0
C580 C 0.23695 0.76235 0.51724 0.0
O581 O 0.24918 0.74552 0.51242 0.0
H582 H 0.23423 0.76137 0.45233 0.0
H583 H 0.2917 0.73415 0.48155 0.0
O584 O 0.27106 0.80423 0.4691 0.0
H585 H 0.33153 0.76817 0.54339 0.0
H586 H 0.27569 0.70657 0.45025 0.0
Cu587 Cu 0.78268 0.77977 0.53108 0.0
N588 N 0.80425 0.77905 0.51011 0.0
N589 N 0.82121 0.76548 0.48128 0.0
C590 C 0.80644 0.76154 0.49671 0.0
C591 C 0.82869 0.78639 0.4852 0.0
C592 C 0.81816 0.79475 0.50299 0.0
O593 O 0.75474 0.77887 0.51297 0.0
C594 C 0.81016 0.75773 0.56 0.0
O595 O 0.82305 0.77304 0.55193 0.0
H596 H 0.79645 0.74659 0.49763 0.0
H597 H 0.81988 0.81136 0.50954 0.0
N598 N 0.78268 0.80547 0.54822 0.0
N599 N 0.77237 0.82633 0.57625 0.0
C600 C 0.76676 0.80952 0.56222 0.0
C601 C 0.79899 0.82029 0.55345 0.0
C602 C 0.79262 0.83326 0.57069 0.0
C603 C 0.75394 0.79487 0.49921 0.0
O604 O 0.77005 0.80975 0.50034 0.0
H605 H 0.75213 0.79911 0.56325 0.0
H606 H 0.81497 0.82068 0.54642 0.0
O607 O 0.78997 0.75646 0.55269 0.0
H608 H 0.84056 0.79522 0.47566 0.0
H609 H 0.80256 0.84612 0.57911 0.0
Cu610 Cu 0.78256 0.27096 0.52311 0.0
N611 N 0.7837 0.24503 0.50628 0.0
N612 N 0.77328 0.22102 0.47933 0.0
C613 C 0.76965 0.24075 0.48875 0.0
C614 C 0.79039 0.21249 0.49147 0.0
C615 C 0.79688 0.22742 0.50806 0.0
O616 O 0.78495 0.29473 0.5013 0.0
C617 C 0.75531 0.25042 0.55135 0.0
O618 O 0.76984 0.23524 0.54768 0.0
H619 H 0.75667 0.25183 0.48333 0.0
H620 H 0.81004 0.22544 0.52063 0.0
N621 N 0.80571 0.27525 0.5445 0.0
N622 N 0.82296 0.29111 0.57424 0.0
C623 C 0.80393 0.289 0.56179 0.0
C624 C 0.82664 0.26815 0.54612 0.0
C625 C 0.83739 0.27806 0.56444 0.0
C626 C 0.8034 0.29423 0.49208 0.0
O627 O 0.81756 0.27914 0.49855 0.0
H628 H 0.78908 0.29793 0.56472 0.0
H629 H 0.83377 0.25705 0.53456 0.0
O630 O 0.75651 0.2687 0.54091 0.0
H631 H 0.79779 0.1967 0.48852 0.0
H632 H 0.85446 0.27592 0.57006 0.0
Cu633 Cu 0.27402 0.28137 0.5452 0.0
N634 N 0.26962 0.30799 0.56008 0.0
N635 N 0.25905 0.33096 0.58641 0.0
C636 C 0.25887 0.3099 0.57883 0.0
C637 C 0.27026 0.34277 0.57164 0.0
C638 C 0.2768 0.32855 0.55545 0.0
O639 O 0.28011 0.25865 0.56743 0.0
C640 C 0.24673 0.28908 0.5088 0.0
O641 O 0.26109 0.30557 0.50813 0.0
H642 H 0.25118 0.29599 0.58677 0.0
H643 H 0.2864 0.33282 0.54151 0.0
N644 N 0.29845 0.28293 0.52764 0.0
N645 N 0.31886 0.27571 0.49892 0.0
C646 C 0.2996 0.27184 0.50845 0.0
C647 C 0.31781 0.29413 0.53055 0.0
C648 C 0.33051 0.28963 0.51284 0.0
C649 C 0.29476 0.26408 0.58251 0.0
O650 O 0.30403 0.28386 0.58185 0.0
H651 H 0.28652 0.26093 0.50174 0.0
H652 H 0.32234 0.30482 0.5445 0.0
O653 O 0.24839 0.27552 0.52483 0.0
H654 H 0.27405 0.3603 0.57276 0.0
H655 H 0.34684 0.29633 0.51024 0.0
Cu656 Cu 0.77977 0.52809 0.78146 0.0
N657 N 0.80672 0.54365 0.78127 0.0
N658 N 0.83054 0.56985 0.77093 0.0
C659 C 0.8095 0.56208 0.76933 0.0
C660 C 0.8415 0.55553 0.78439 0.0
C661 C 0.82676 0.53934 0.7907 0.0
O662 O 0.75703 0.55052 0.78106 0.0
C663 C 0.79293 0.49114 0.76083 0.0
O664 O 0.80411 0.49076 0.78002 0.0
H665 H 0.79631 0.56924 0.75914 0.0
H666 H 0.83055 0.52526 0.80105 0.0
N667 N 0.77612 0.51135 0.80697 0.0
N668 N 0.76253 0.48407 0.82721 0.0
C669 C 0.75978 0.49617 0.80869 0.0
C670 C 0.78953 0.50903 0.82525 0.0
C671 C 0.78125 0.49201 0.83772 0.0
C672 C 0.76063 0.56474 0.79655 0.0
O673 O 0.77784 0.5623 0.8104 0.0
H674 H 0.74684 0.49318 0.79592 0.0
H675 H 0.80466 0.51839 0.82887 0.0
O676 O 0.77988 0.5071 0.75676 0.0
H677 H 0.85891 0.55657 0.7893 0.0
H678 H 0.78862 0.48565 0.85302 0.0
Cu679 Cu 0.29462 0.56163 0.77438 0.0
N680 N 0.3178 0.54156 0.77529 0.0
N681 N 0.33636 0.51203 0.78787 0.0
C682 C 0.32207 0.52802 0.79257 0.0
C683 C 0.34134 0.51577 0.76671 0.0
C684 C 0.32981 0.53391 0.75898 0.0
O685 O 0.26819 0.54254 0.77097 0.0
C686 C 0.31663 0.59273 0.79933 0.0
O687 O 0.32972 0.58874 0.78327 0.0
H688 H 0.3136 0.52901 0.8078 0.0
H689 H 0.32925 0.5402 0.74228 0.0
N690 N 0.29332 0.58126 0.75032 0.0
N691 N 0.27915 0.60779 0.72835 0.0
C692 C 0.27593 0.59428 0.74564 0.0
C693 C 0.30823 0.5867 0.7355 0.0
C694 C 0.29952 0.60305 0.72193 0.0
C695 C 0.26516 0.53465 0.7514 0.0
O696 O 0.27877 0.54075 0.73633 0.0
H697 H 0.26139 0.59415 0.75521 0.0
H698 H 0.32438 0.5796 0.73482 0.0
O699 O 0.2989 0.5811 0.80027 0.0
H700 H 0.35201 0.50574 0.75723 0.0
H701 H 0.3076 0.61074 0.70836 0.0
Cu702 Cu 0.26118 0.49144 0.27391 0.0
N703 N 0.25741 0.47307 0.2985 0.0
N704 N 0.24359 0.4451 0.31796 0.0
C705 C 0.24321 0.45564 0.29833 0.0
C706 C 0.25872 0.45644 0.33103 0.0
C707 C 0.26727 0.47363 0.31896 0.0
O708 O 0.26921 0.47191 0.25004 0.0
C709 C 0.23019 0.51887 0.28759 0.0
O710 O 0.24226 0.51463 0.30568 0.0
H711 H 0.23265 0.45093 0.28402 0.0
H712 H 0.27977 0.48565 0.32468 0.0
N713 N 0.28385 0.51291 0.27698 0.0
N714 N 0.30262 0.5433 0.26723 0.0
C715 C 0.28349 0.53154 0.26488 0.0
C716 C 0.30395 0.51281 0.28755 0.0
C717 C 0.31559 0.53157 0.28154 0.0
C718 C 0.28525 0.45953 0.25598 0.0
O719 O 0.294 0.46152 0.27623 0.0
H720 H 0.26979 0.53573 0.25356 0.0
H721 H 0.31004 0.49969 0.29815 0.0
O722 O 0.23468 0.50907 0.26972 0.0
H723 H 0.26356 0.4524 0.34797 0.0
H724 H 0.33242 0.53597 0.28694 0.0
Cu725 Cu 0.77335 0.5288 0.27307 0.0
N726 N 0.79706 0.51036 0.27991 0.0
N727 N 0.81465 0.48152 0.29496 0.0
C728 C 0.79512 0.49155 0.29148 0.0
C729 C 0.82949 0.49456 0.2851 0.0
C730 C 0.81859 0.51233 0.27581 0.0
O731 O 0.74894 0.50871 0.26339 0.0
C732 C 0.78717 0.56052 0.30237 0.0
O733 O 0.80448 0.55726 0.2908 0.0
H734 H 0.77968 0.48567 0.29765 0.0
H735 H 0.82598 0.52587 0.26706 0.0
N736 N 0.77812 0.54862 0.25011 0.0
N737 N 0.77297 0.57918 0.23009 0.0
C738 C 0.76545 0.56632 0.24627 0.0
C739 C 0.79426 0.5502 0.23578 0.0
C740 C 0.79113 0.56911 0.22341 0.0
C741 C 0.75134 0.50028 0.24433 0.0
O742 O 0.76853 0.50645 0.23345 0.0
H743 H 0.7514 0.57009 0.25579 0.0
H744 H 0.80742 0.53858 0.23446 0.0
O745 O 0.76989 0.54844 0.29837 0.0
H746 H 0.84697 0.49148 0.28455 0.0
H747 H 0.8014 0.57497 0.2105 0.0
Cu748 Cu 0.53732 0.27241 0.7749 0.0
N749 N 0.51686 0.27321 0.79667 0.0
N750 N 0.48835 0.28707 0.81334 0.0
C751 C 0.50018 0.28745 0.79524 0.0
C752 C 0.49784 0.27184 0.8268 0.0
C753 C 0.51539 0.26302 0.81629 0.0
O754 O 0.5182 0.26843 0.74805 0.0
C755 C 0.56383 0.30259 0.79851 0.0
O756 O 0.55469 0.29152 0.8143 0.0
H757 H 0.49744 0.29869 0.78154 0.0
H758 H 0.52674 0.25081 0.82282 0.0
N759 N 0.55672 0.24901 0.77664 0.0
N760 N 0.58522 0.23105 0.76401 0.0
C761 C 0.56658 0.24193 0.75866 0.0
C762 C 0.56946 0.24223 0.79411 0.0
C763 C 0.58715 0.23109 0.78632 0.0
C764 C 0.50927 0.24911 0.74672 0.0
O765 O 0.51559 0.2343 0.76141 0.0
H766 H 0.56165 0.24702 0.74203 0.0
H767 H 0.56739 0.24703 0.81107 0.0
O768 O 0.55725 0.2984 0.77847 0.0
H769 H 0.4927 0.26769 0.84314 0.0
H770 H 0.60114 0.22502 0.79619 0.0
Cu771 Cu 0.52302 0.78353 0.7616 0.0
N772 N 0.53987 0.75885 0.7564 0.0
N773 N 0.56778 0.73564 0.76213 0.0
C774 C 0.55551 0.75143 0.77095 0.0
C775 C 0.55945 0.733 0.74111 0.0
C776 C 0.54222 0.74738 0.73761 0.0
O777 O 0.54369 0.80851 0.75886 0.0
C778 C 0.49315 0.78737 0.79634 0.0
O779 O 0.48558 0.8046 0.78547 0.0
H780 H 0.55872 0.75858 0.78725 0.0
H781 H 0.53286 0.75007 0.72217 0.0
N782 N 0.49917 0.78547 0.74083 0.0
N783 N 0.46867 0.79853 0.72351 0.0
C784 C 0.4873 0.80357 0.73592 0.0
C785 C 0.48784 0.76846 0.73097 0.0
C786 C 0.46909 0.77646 0.7202 0.0
C787 C 0.54998 0.81151 0.7393 0.0
O788 O 0.54032 0.79967 0.72314 0.0
H789 H 0.49146 0.81982 0.74265 0.0
H790 H 0.49229 0.7513 0.73251 0.0
O791 O 0.51059 0.77829 0.79024 0.0
H792 H 0.56576 0.72199 0.72894 0.0
H793 H 0.45641 0.76664 0.71125 0.0
Cu794 Cu 0.51793 0.76536 0.27043 0.0
N795 N 0.50223 0.79163 0.27173 0.0
N796 N 0.47524 0.81447 0.28004 0.0
C797 C 0.48166 0.79325 0.27881 0.0
C798 C 0.49254 0.82664 0.27332 0.0
C799 C 0.50916 0.81252 0.26828 0.0
O800 O 0.49591 0.74155 0.2657 0.0
C801 C 0.53703 0.77551 0.31368 0.0
O802 O 0.52004 0.78838 0.31543 0.0
H803 H 0.47207 0.7791 0.28396 0.0
H804 H 0.52539 0.8172 0.26315 0.0
N805 N 0.53686 0.76555 0.24702 0.0
N806 N 0.56524 0.75625 0.22704 0.0
C807 C 0.55306 0.75101 0.24435 0.0
C808 C 0.53876 0.78045 0.23077 0.0
C809 C 0.55629 0.77479 0.21844 0.0
C810 C 0.48603 0.74067 0.24655 0.0
O811 O 0.49208 0.75477 0.23149 0.0
H812 H 0.55629 0.73728 0.25538 0.0
H813 H 0.52833 0.79459 0.2282 0.0
O814 O 0.53757 0.76273 0.29694 0.0
H815 H 0.49334 0.84448 0.27237 0.0
H816 H 0.562 0.78361 0.20427 0.0
Cu817 Cu 0.5291 0.26586 0.2678 0.0
N818 N 0.50955 0.24164 0.26717 0.0
N819 N 0.4811 0.22162 0.27892 0.0
C820 C 0.49664 0.23736 0.28405 0.0
C821 C 0.48449 0.21569 0.25784 0.0
C822 C 0.50203 0.22814 0.2506 0.0
O823 O 0.50926 0.29124 0.26684 0.0
C824 C 0.56139 0.24367 0.29037 0.0
O825 O 0.55547 0.2307 0.27354 0.0
H826 H 0.4977 0.24686 0.29927 0.0
H827 H 0.50798 0.2282 0.2341 0.0
N828 N 0.54679 0.26835 0.24349 0.0
N829 N 0.57375 0.28304 0.22418 0.0
C830 C 0.55956 0.28634 0.24017 0.0
C831 C 0.55297 0.25308 0.22893 0.0
C832 C 0.56969 0.26211 0.21702 0.0
C833 C 0.49959 0.29401 0.24774 0.0
O834 O 0.50491 0.28119 0.2314 0.0
H835 H 0.55947 0.30106 0.25039 0.0
H836 H 0.54675 0.23622 0.22793 0.0
O837 O 0.55062 0.26139 0.29291 0.0
H838 H 0.47456 0.2038 0.24805 0.0
H839 H 0.57868 0.25371 0.20463 0.0
H840 H 0.25234 0.19574 0.15443 0.0
H841 H 0.19137 0.21869 0.12315 0.0
H842 H 0.21114 0.23075 0.09112 0.0
H843 H 0.24547 0.23332 0.07132 0.0
H844 H 0.3059 0.20869 0.10196 0.0
H845 H 0.28637 0.19787 0.13457 0.0
C846 C 0.24324 0.20314 0.14053 0.0
C847 C 0.22028 0.20612 0.14125 0.0
C848 C 0.25458 0.20945 0.1219 0.0
C849 C 0.20902 0.21636 0.12326 0.0
C850 C 0.2203 0.22308 0.10481 0.0
C851 C 0.2544 0.22573 0.08519 0.0
C852 C 0.27716 0.22184 0.08418 0.0
C853 C 0.24303 0.21952 0.10387 0.0
C854 C 0.28838 0.21163 0.10217 0.0
C855 C 0.27724 0.2056 0.12089 0.0
H856 H 0.81523 0.19742 0.14397 0.0
H857 H 0.88597 0.19975 0.13856 0.0
H858 H 0.88143 0.22089 0.10459 0.0
H859 H 0.85776 0.23993 0.07714 0.0
H860 H 0.78701 0.23679 0.08112 0.0
H861 H 0.79117 0.21409 0.11449 0.0
C862 C 0.82967 0.20221 0.13523 0.0
C863 C 0.85098 0.19718 0.14421 0.0
C864 C 0.82695 0.21412 0.11533 0.0
C865 C 0.86941 0.20382 0.13255 0.0
C866 C 0.86684 0.21577 0.11294 0.0
C867 C 0.84319 0.23413 0.08517 0.0
C868 C 0.8221 0.24017 0.07669 0.0
C869 C 0.84574 0.22123 0.10433 0.0
C870 C 0.80343 0.23232 0.08721 0.0
C871 C 0.80583 0.21947 0.1064 0.0
H872 H 0.79311 0.84686 0.12659 0.0
H873 H 0.85685 0.87335 0.11105 0.0
H874 H 0.84938 0.86377 0.07208 0.0
H875 H 0.82682 0.84411 0.04346 0.0
H876 H 0.76398 0.81507 0.05879 0.0
H877 H 0.76871 0.82974 0.09655 0.0
C878 C 0.80507 0.85092 0.1145 0.0
C879 C 0.8255 0.86077 0.12158 0.0
C880 C 0.80089 0.84476 0.09213 0.0
C881 C 0.84105 0.86575 0.10591 0.0
C882 C 0.8368 0.86022 0.08367 0.0
C883 C 0.81393 0.84127 0.0549 0.0
C884 C 0.79515 0.82832 0.04825 0.0
C885 C 0.81708 0.84915 0.07671 0.0
C886 C 0.7786 0.82498 0.06336 0.0
C887 C 0.78139 0.83324 0.08505 0.0
H888 H 0.17001 0.82904 0.15521 0.0
H889 H 0.22601 0.84148 0.20098 0.0
H890 H 0.251 0.82986 0.17319 0.0
H891 H 0.25713 0.81616 0.13603 0.0
H892 H 0.20155 0.80377 0.0898 0.0
H893 H 0.17629 0.81493 0.1177 0.0
C894 C 0.18767 0.82903 0.15914 0.0
C895 C 0.19608 0.83631 0.18015 0.0
C896 C 0.20206 0.82228 0.143 0.0
C897 C 0.21905 0.83634 0.18487 0.0
C898 C 0.23339 0.82958 0.169 0.0
C899 C 0.23953 0.81611 0.1319 0.0
C900 C 0.23135 0.80918 0.11071 0.0
C901 C 0.22511 0.82265 0.14799 0.0
C902 C 0.20837 0.80881 0.10597 0.0
C903 C 0.19389 0.8153 0.12192 0.0
H904 H 0.19824 0.79585 0.91588 0.0
H905 H 0.18972 0.86202 0.94038 0.0
H906 H 0.19953 0.85007 0.97793 0.0
H907 H 0.21416 0.82209 1.00323 0.0
H908 H 0.22405 0.75587 0.97976 0.0
H909 H 0.2096 0.76633 0.94266 0.0
C910 C 0.19818 0.8075 0.92953 0.0
C911 C 0.19358 0.82992 0.92524 0.0
C912 C 0.20415 0.80052 0.95129 0.0
C913 C 0.19358 0.84481 0.94313 0.0
C914 C 0.19914 0.83797 0.96464 0.0
C915 C 0.21283 0.80979 0.99011 0.0
C916 C 0.22033 0.78826 0.99428 0.0
C917 C 0.20502 0.81605 0.96883 0.0
C918 C 0.21829 0.77252 0.97709 0.0
C919 C 0.21023 0.77859 0.95579 0.0
H920 H 0.2158 0.23056 0.89786 0.0
H921 H 0.23209 0.16309 0.91415 0.0
H922 H 0.25288 0.17594 0.94744 0.0
H923 H 0.2664 0.20608 0.97205 0.0
H924 H 0.24794 0.27317 0.95769 0.0
H925 H 0.22699 0.26047 0.92402 0.0
C926 C 0.22346 0.21849 0.9088 0.0
C927 C 0.22226 0.19574 0.90316 0.0
C928 C 0.23475 0.22589 0.92848 0.0
C929 C 0.233 0.18068 0.91753 0.0
C930 C 0.24471 0.18799 0.93681 0.0
C931 C 0.25765 0.21795 0.96165 0.0
C932 C 0.25879 0.24057 0.96732 0.0
C933 C 0.24567 0.21052 0.94244 0.0
C934 C 0.2472 0.25568 0.95379 0.0
C935 C 0.23539 0.24842 0.93445 0.0
H936 H 0.8751 0.26126 0.88463 0.0
H937 H 0.86337 0.19326 0.90295 0.0
H938 H 0.85062 0.20546 0.93843 0.0
H939 H 0.8442 0.23561 0.96521 0.0
H940 H 0.86023 0.30277 0.94808 0.0
H941 H 0.87051 0.29073 0.91147 0.0
C942 C 0.87021 0.24893 0.89643 0.0
C943 C 0.87042 0.22626 0.89085 0.0
C944 C 0.86374 0.25598 0.91719 0.0
C945 C 0.86317 0.21082 0.90638 0.0
C946 C 0.85603 0.21778 0.92686 0.0
C947 C 0.84987 0.24749 0.95333 0.0
C948 C 0.85145 0.27003 0.95917 0.0
C949 C 0.85639 0.24031 0.93253 0.0
C950 C 0.85904 0.28536 0.94388 0.0
C951 C 0.86485 0.27847 0.92298 0.0
H952 H 0.87843 0.85051 0.89059 0.0
H953 H 0.81213 0.85038 0.86087 0.0
H954 H 0.79959 0.82628 0.89006 0.0
H955 H 0.80713 0.80627 0.92458 0.0
H956 H 0.87312 0.80699 0.95507 0.0
H957 H 0.88621 0.8293 0.92476 0.0
C958 C 0.86131 0.84497 0.89038 0.0
C959 C 0.84621 0.85237 0.87368 0.0
C960 C 0.85415 0.83119 0.90734 0.0
C961 C 0.82402 0.8452 0.87372 0.0
C962 C 0.81684 0.83135 0.89036 0.0
C963 C 0.82435 0.8114 0.92472 0.0
C964 C 0.83903 0.80506 0.94225 0.0
C965 C 0.83169 0.8245 0.90741 0.0
C966 C 0.86143 0.81145 0.94178 0.0
C967 C 0.86892 0.82436 0.92449 0.0
H968 H 0.14566 0.2227 0.16462 0.0
H969 H 0.17094 0.20643 0.23047 0.0
H970 H 0.13939 0.22371 0.24612 0.0
H971 H 0.10411 0.2427 0.24131 0.0
H972 H 0.07906 0.26016 0.17587 0.0
H973 H 0.11118 0.24368 0.15997 0.0
C974 C 0.14444 0.22318 0.18241 0.0
C975 C 0.1606 0.21289 0.19625 0.0
C976 C 0.12625 0.2334 0.19143 0.0
C977 C 0.15856 0.21366 0.21929 0.0
C978 C 0.14055 0.22369 0.22833 0.0
C979 C 0.10563 0.24282 0.22356 0.0
C980 C 0.08908 0.2525 0.2098 0.0
C981 C 0.12416 0.23336 0.21456 0.0
C982 C 0.09158 0.25293 0.18685 0.0
C983 C 0.10991 0.2434 0.17775 0.0
H984 H 0.85063 0.11618 0.20873 0.0
H985 H 0.79711 0.15828 0.18746 0.0
H986 H 0.7703 0.12921 0.1958 0.0
H987 H 0.76193 0.09189 0.20986 0.0
H988 H 0.81561 0.04981 0.23073 0.0
H989 H 0.8423 0.07869 0.22199 0.0
C990 C 0.8331 0.11905 0.20609 0.0
C991 C 0.82595 0.13943 0.1975 0.0
C992 C 0.81772 0.10219 0.21084 0.0
C993 C 0.80312 0.14271 0.19388 0.0
C994 C 0.78775 0.12609 0.1987 0.0
C995 C 0.77945 0.08894 0.21223 0.0
C996 C 0.78666 0.06867 0.22109 0.0
C997 C 0.79483 0.10573 0.20716 0.0
C998 C 0.80951 0.06531 0.22426 0.0
C999 C 0.82484 0.08183 0.2192 0.0
H1000 H 0.89514 0.84469 0.15638 0.0
H1001 H 0.8624 0.83376 0.21699 0.0
H1002 H 0.89172 0.80902 0.22984 0.0
H1003 H 0.92554 0.78857 0.22279 0.0
H1004 H 0.9568 0.7984 0.16122 0.0
H1005 H 0.92875 0.8248 0.14952 0.0
C1006 C 0.89426 0.83681 0.17236 0.0
C1007 C 0.87638 0.84103 0.18557 0.0
C1008 C 0.91077 0.82206 0.17934 0.0
C1009 C 0.87599 0.83107 0.2065 0.0
C1010 C 0.89267 0.8167 0.21378 0.0
C1011 C 0.92627 0.79661 0.20689 0.0
C1012 C 0.9432 0.79132 0.19285 0.0
C1013 C 0.90996 0.81181 0.20019 0.0
C1014 C 0.94379 0.80178 0.17219 0.0
C1015 C 0.92783 0.81705 0.16556 0.0
H1016 H 0.18268 0.91158 0.21219 0.0
H1017 H 0.17902 0.87307 0.27159 0.0
H1018 H 0.18909 0.90578 0.29418 0.0
H1019 H 0.19986 0.9451 0.29685 0.0
H1020 H 0.20173 0.98396 0.23737 0.0
H1021 H 0.19148 0.9514 0.21502 0.0
C1022 C 0.18421 0.91042 0.23008 0.0
C1023 C 0.18034 0.89003 0.24028 0.0
C1024 C 0.18964 0.92934 0.24292 0.0
C1025 C 0.18198 0.88867 0.26345 0.0
C1026 C 0.18771 0.90734 0.27634 0.0
C1027 C 0.19769 0.94657 0.27905 0.0
C1028 C 0.20184 0.96699 0.26886 0.0
C1029 C 0.19161 0.92777 0.26625 0.0
C1030 C 0.1991 0.96841 0.24568 0.0
C1031 C 0.19316 0.9498 0.23285 0.0
H1032 H 0.1301 0.81994 0.87089 0.0
H1033 H 0.17702 0.8332 0.82126 0.0
H1034 H 0.14962 0.82222 0.79226 0.0
H1035 H 0.11156 0.81217 0.78054 0.0
H1036 H 0.06434 0.79724 0.82917 0.0
H1037 H 0.09269 0.80502 0.85898 0.0
C1038 C 0.13446 0.82002 0.85377 0.0
C1039 C 0.15554 0.82798 0.84833 0.0
C1040 C 0.11853 0.81345 0.83696 0.0
C1041 C 0.16081 0.82783 0.82599 0.0
C1042 C 0.14516 0.82143 0.80933 0.0
C1043 C 0.10754 0.81031 0.79768 0.0
C1044 C 0.08586 0.80435 0.80268 0.0
C1045 C 0.12384 0.8148 0.81457 0.0
C1046 C 0.08094 0.80174 0.82492 0.0
C1047 C 0.09712 0.80635 0.84194 0.0
H1048 H 0.24214 0.15202 0.83632 0.0
H1049 H 0.17656 0.12457 0.84129 0.0
H1050 H 0.18767 0.09008 0.82403 0.0
H1051 H 0.21736 0.06638 0.81048 0.0
H1052 H 0.28271 0.09463 0.80583 0.0
H1053 H 0.2704 0.13004 0.81949 0.0
C1054 C 0.23027 0.13851 0.83351 0.0
C1055 C 0.20865 0.14076 0.84032 0.0
C1056 C 0.23675 0.11882 0.82345 0.0
C1057 C 0.19333 0.12324 0.83622 0.0
C1058 C 0.1997 0.10349 0.82638 0.0
C1059 C 0.22863 0.08052 0.81184 0.0
C1060 C 0.25087 0.07798 0.80698 0.0
C1061 C 0.2215 0.10091 0.82022 0.0
C1062 C 0.26548 0.09628 0.80931 0.0
C1063 C 0.2585 0.11649 0.8173 0.0
H1064 H 0.93751 0.21277 0.81528 0.0
H1065 H 0.90416 0.27067 0.83709 0.0
H1066 H 0.93316 0.29437 0.82322 0.0
H1067 H 0.96946 0.29855 0.80844 0.0
H1068 H 1.00388 0.24147 0.78683 0.0
H1069 H 0.97258 0.21747 0.79632 0.0
C1070 C 0.93644 0.23058 0.81665 0.0
C1071 C 0.91893 0.23993 0.82764 0.0
C1072 C 0.95327 0.2442 0.80862 0.0
C1073 C 0.91775 0.26304 0.82926 0.0
C1074 C 0.93423 0.27662 0.82119 0.0
C1075 C 0.96994 0.28086 0.80546 0.0
C1076 C 0.9889 0.27166 0.7972 0.0
C1077 C 0.95229 0.26735 0.8114 0.0
C1078 C 0.98934 0.24884 0.7931 0.0
C1079 C 0.97157 0.23517 0.79876 0.0
H1080 H 0.85815 0.94548 0.83369 0.0
H1081 H 0.80266 0.90024 0.82373 0.0
H1082 H 0.77896 0.93072 0.81189 0.0
H1083 H 0.77477 0.96981 0.8017 0.0
H1084 H 0.8304 0.01505 0.81198 0.0
H1085 H 0.85307 0.98516 0.82672 0.0
C1086 C 0.84085 0.94237 0.82898 0.0
C1087 C 0.83219 0.92067 0.82936 0.0
C1088 C 0.8273 0.96 0.82234 0.0
C1089 C 0.80968 0.91685 0.82356 0.0
C1090 C 0.79613 0.93425 0.81677 0.0
C1091 C 0.79171 0.97325 0.8076 0.0
C1092 C 0.80086 0.99466 0.80554 0.0
C1093 C 0.80483 0.95587 0.8158 0.0
C1094 C 0.8229 0.99873 0.81323 0.0
C1095 C 0.83597 0.9816 0.82156 0.0
H1096 H 0.17902 0.13445 0.2027 0.0
H1097 H 0.24644 0.15739 0.19841 0.0
H1098 H 0.25961 0.12444 0.21771 0.0
H1099 H 0.25183 0.09038 0.23836 0.0
H1100 H 0.18424 0.06856 0.24398 0.0
H1101 H 0.17134 0.09961 0.22159 0.0
C1102 C 0.19659 0.13226 0.20603 0.0
C1103 C 0.21168 0.14843 0.19922 0.0
C1104 C 0.20405 0.1134 0.21738 0.0
C1105 C 0.23444 0.14512 0.20332 0.0
C1106 C 0.242 0.12632 0.21445 0.0
C1107 C 0.23433 0.09221 0.23429 0.0
C1108 C 0.21902 0.07723 0.24284 0.0
C1109 C 0.22695 0.11047 0.22183 0.0
C1110 C 0.19635 0.07994 0.23767 0.0
C1111 C 0.18894 0.09774 0.22493 0.0
H1112 H 0.21505 0.8792 0.83545 0.0
H1113 H 0.21057 0.90296 0.90238 0.0
H1114 H 0.23085 0.93661 0.89341 0.0
H1115 H 0.24938 0.95987 0.86644 0.0
H1116 H 0.2525 0.93696 0.79921 0.0
H1117 H 0.2328 0.90283 0.80828 0.0
C1118 C 0.21826 0.89179 0.84807 0.0
C1119 C 0.21128 0.88824 0.86966 0.0
C1120 C 0.22963 0.91145 0.8427 0.0
C1121 C 0.21602 0.90481 0.88575 0.0
C1122 C 0.2275 0.92425 0.88059 0.0
C1123 C 0.2459 0.94735 0.85381 0.0
C1124 C 0.2525 0.95104 0.83215 0.0
C1125 C 0.23441 0.92776 0.85913 0.0
C1126 C 0.24747 0.93472 0.81593 0.0
C1127 C 0.23628 0.91511 0.82115 0.0
H1128 H 0.1459 0.2107 0.88115 0.0
H1129 H 0.16566 0.20322 0.8142 0.0
H1130 H 0.13773 0.22945 0.80138 0.0
H1131 H 0.10998 0.25669 0.80964 0.0
H1132 H 0.0907 0.26485 0.8767 0.0
H1133 H 0.11683 0.23676 0.88913 0.0
C1134 C 0.1441 0.21478 0.86374 0.0
C1135 C 0.15802 0.20509 0.8487 0.0
C1136 C 0.12841 0.23033 0.85657 0.0
C1137 C 0.15508 0.21023 0.82613 0.0
C1138 C 0.13927 0.22543 0.81882 0.0
C1139 C 0.11117 0.25216 0.82693 0.0
C1140 C 0.09833 0.26305 0.84219 0.0
C1141 C 0.12615 0.2359 0.83396 0.0
C1142 C 0.10054 0.25709 0.86461 0.0
C1143 C 0.11538 0.24087 0.87172 0.0
H1144 H 0.89744 0.16565 0.80968 0.0
H1145 H 0.83398 0.17758 0.83616 0.0
H1146 H 0.81825 0.14558 0.81603 0.0
H1147 H 0.82206 0.11484 0.79002 0.0
H1148 H 0.88411 0.10486 0.76064 0.0
H1149 H 0.90074 0.13609 0.78219 0.0
C1150 C 0.88008 0.16156 0.81087 0.0
C1151 C 0.86705 0.17417 0.82465 0.0
C1152 C 0.87085 0.14358 0.79855 0.0
C1153 C 0.84467 0.16806 0.8262 0.0
C1154 C 0.83553 0.14985 0.81446 0.0
C1155 C 0.83926 0.11946 0.7885 0.0
C1156 C 0.85202 0.10751 0.77407 0.0
C1157 C 0.84844 0.13756 0.80056 0.0
C1158 C 0.87411 0.11389 0.77173 0.0
C1159 C 0.88355 0.13164 0.78407 0.0
H1160 H 0.91889 0.86283 0.84471 0.0
H1161 H 0.88512 0.88765 0.78553 0.0
H1162 H 0.91699 0.87954 0.76436 0.0
H1163 H 0.95374 0.86346 0.76201 0.0
H1164 H 0.98656 0.83654 0.82049 0.0
H1165 H 0.95567 0.84696 0.8424 0.0
C1166 C 0.91838 0.86635 0.82715 0.0
C1167 C 0.89949 0.87593 0.81687 0.0
C1168 C 0.9366 0.8611 0.81485 0.0
C1169 C 0.89947 0.88068 0.79412 0.0
C1170 C 0.91766 0.87585 0.78188 0.0
C1171 C 0.95424 0.86017 0.7796 0.0
C1172 C 0.97243 0.84926 0.78961 0.0
C1173 C 0.93624 0.86589 0.79201 0.0
C1174 C 0.97267 0.84475 0.81237 0.0
C1175 C 0.95503 0.85076 0.82491 0.0
H1176 H 0.84369 0.91127 0.21249 0.0
H1177 H 0.78312 0.88217 0.18364 0.0
H1178 H 0.76168 0.90738 0.20487 0.0
H1179 H 0.75985 0.93884 0.22957 0.0
H1180 H 0.81943 0.96937 0.2587 0.0
H1181 H 0.84157 0.94206 0.23992 0.0
C1182 C 0.8258 0.91031 0.21108 0.0
C1183 C 0.81505 0.89501 0.19616 0.0
C1184 C 0.81342 0.92506 0.2234 0.0
C1185 C 0.79185 0.89403 0.19455 0.0
C1186 C 0.77955 0.90837 0.2068 0.0
C1187 C 0.7777 0.93953 0.232 0.0
C1188 C 0.78798 0.95629 0.24535 0.0
C1189 C 0.79014 0.92416 0.22092 0.0
C1190 C 0.8111 0.95663 0.24855 0.0
C1191 C 0.82373 0.94111 0.23766 0.0
H1192 H 0.13266 0.82945 0.25862 0.0
H1193 H 0.11639 0.8231 0.18856 0.0
H1194 H 0.08089 0.80575 0.19616 0.0
H1195 H 0.05441 0.79281 0.22259 0.0
H1196 H 0.07065 0.79883 0.2927 0.0
H1197 H 0.10604 0.81654 0.28514 0.0
C1198 C 0.1213 0.82439 0.24499 0.0
C1199 C 0.12719 0.82765 0.22302 0.0
C1200 C 0.10082 0.81466 0.24949 0.0
C1201 C 0.11242 0.82059 0.2056 0.0
C1202 C 0.09203 0.81086 0.20994 0.0
C1203 C 0.06555 0.7982 0.23627 0.0
C1204 C 0.05977 0.79463 0.25823 0.0
C1205 C 0.08601 0.80795 0.23181 0.0
C1206 C 0.0746 0.80147 0.27568 0.0
C1207 C 0.09489 0.8115 0.27136 0.0
H1208 H 0.91848 0.18716 0.19093 0.0
H1209 H 0.8759 0.18662 0.24561 0.0
H1210 H 0.90656 0.20002 0.27043 0.0
H1211 H 0.94495 0.21435 0.27609 0.0
H1212 H 0.9873 0.21476 0.22108 0.0
H1213 H 0.9574 0.19894 0.19711 0.0
C1214 C 0.91591 0.18993 0.20829 0.0
C1215 C 0.89481 0.18602 0.21631 0.0
C1216 C 0.93364 0.19769 0.22248 0.0
C1217 C 0.89194 0.18935 0.23897 0.0
C1218 C 0.90947 0.19714 0.25317 0.0
C1219 C 0.94778 0.2107 0.25894 0.0
C1220 C 0.96847 0.21594 0.25049 0.0
C1221 C 0.93034 0.20168 0.24506 0.0
C1222 C 0.97165 0.21103 0.22815 0.0
C1223 C 0.95448 0.20203 0.21434 0.0
H1224 H 0.20368 0.76491 0.61376 0.0
H1225 H 0.2029 0.69445 0.60239 0.0
H1226 H 0.2104 0.70031 0.56369 0.0
H1227 H 0.22099 0.72493 0.53435 0.0
H1228 H 0.22459 0.79539 0.54531 0.0
H1229 H 0.21143 0.7902 0.58262 0.0
C1230 C 0.20486 0.75092 0.60266 0.0
C1231 C 0.20306 0.72925 0.61095 0.0
C1232 C 0.20959 0.75442 0.58038 0.0
C1233 C 0.20462 0.71123 0.59646 0.0
C1234 C 0.2088 0.71458 0.57433 0.0
C1235 C 0.21851 0.73924 0.54473 0.0
C1236 C 0.22388 0.76049 0.53713 0.0
C1237 C 0.21187 0.73603 0.56628 0.0
C1238 C 0.22041 0.77885 0.5507 0.0
C1239 C 0.21316 0.77584 0.57214 0.0
H1240 H 0.87172 0.7148 0.63417 0.0
H1241 H 0.81176 0.71487 0.6691 0.0
H1242 H 0.79131 0.72852 0.63608 0.0
H1243 H 0.79102 0.74274 0.59753 0.0
H1244 H 0.85149 0.74247 0.56331 0.0
H1245 H 0.87094 0.72634 0.59539 0.0
C1246 C 0.85419 0.71786 0.63456 0.0
C1247 C 0.84337 0.71404 0.65415 0.0
C1248 C 0.84251 0.72552 0.61546 0.0
C1249 C 0.82052 0.7177 0.65423 0.0
C1250 C 0.8088 0.7255 0.63533 0.0
C1251 C 0.80828 0.73859 0.59697 0.0
C1252 C 0.81975 0.74374 0.578 0.0
C1253 C 0.81963 0.72966 0.61583 0.0
C1254 C 0.84226 0.73865 0.57769 0.0
C1255 C 0.85347 0.72956 0.5961 0.0
H1256 H 0.82507 0.34906 0.66074 0.0
H1257 H 0.89103 0.36334 0.64089 0.0
H1258 H 0.88444 0.33982 0.60822 0.0
H1259 H 0.86034 0.31404 0.58589 0.0
H1260 H 0.79422 0.30024 0.6053 0.0
H1261 H 0.80036 0.32473 0.63739 0.0
C1262 C 0.83784 0.34735 0.64904 0.0
C1263 C 0.85854 0.35787 0.65332 0.0
C1264 C 0.83398 0.33367 0.63031 0.0
C1265 C 0.87502 0.35524 0.63811 0.0
C1266 C 0.87128 0.34177 0.61943 0.0
C1267 C 0.84738 0.31631 0.59726 0.0
C1268 C 0.82693 0.30525 0.59333 0.0
C1269 C 0.85096 0.33061 0.61555 0.0
C1270 C 0.81008 0.30866 0.60794 0.0
C1271 C 0.81359 0.32263 0.6263 0.0
H1272 H 0.2221 0.35001 0.6794 0.0
H1273 H 0.21635 0.4154 0.65185 0.0
H1274 H 0.23147 0.4025 0.61758 0.0
H1275 H 0.24599 0.37246 0.59528 0.0
H1276 H 0.25193 0.30725 0.62332 0.0
H1277 H 0.23661 0.32016 0.65726 0.0
C1278 C 0.22391 0.36141 0.66582 0.0
C1279 C 0.218 0.38364 0.66821 0.0
C1280 C 0.23257 0.35388 0.64616 0.0
C1281 C 0.22092 0.39825 0.65056 0.0
C1282 C 0.22948 0.39086 0.63091 0.0
C1283 C 0.24409 0.3611 0.60885 0.0
C1284 C 0.25004 0.33884 0.60655 0.0
C1285 C 0.2354 0.3687 0.62852 0.0
C1286 C 0.24718 0.32435 0.62433 0.0
C1287 C 0.23854 0.33176 0.64388 0.0
H1288 H 0.17107 0.29714 0.43448 0.0
H1289 H 0.2277 0.29756 0.39448 0.0
H1290 H 0.2516 0.28816 0.42664 0.0
H1291 H 0.25722 0.28588 0.4668 0.0
H1292 H 0.20149 0.28546 0.50776 0.0
H1293 H 0.17627 0.28856 0.4747 0.0
C1294 C 0.18852 0.29446 0.43278 0.0
C1295 C 0.19771 0.29821 0.41223 0.0
C1296 C 0.20231 0.28942 0.45156 0.0
C1297 C 0.22035 0.29488 0.41019 0.0
C1298 C 0.23403 0.28963 0.42857 0.0
C1299 C 0.2395 0.28583 0.46838 0.0
C1300 C 0.23113 0.2855 0.48952 0.0
C1301 C 0.22533 0.28777 0.44944 0.0
C1302 C 0.2082 0.28553 0.49155 0.0
C1303 C 0.19386 0.28749 0.47267 0.0
H1304 H 0.17662 0.69381 0.37664 0.0
H1305 H 0.23365 0.66503 0.34912 0.0
H1306 H 0.25762 0.68248 0.37806 0.0
H1307 H 0.26251 0.70531 0.41169 0.0
H1308 H 0.20587 0.73493 0.43885 0.0
H1309 H 0.18178 0.71818 0.40938 0.0
C1310 C 0.19431 0.6916 0.37676 0.0
C1311 C 0.2032 0.67787 0.36077 0.0
C1312 C 0.20814 0.70185 0.39344 0.0
C1313 C 0.22622 0.6751 0.36141 0.0
C1314 C 0.24001 0.68518 0.37792 0.0
C1315 C 0.24488 0.70801 0.41122 0.0
C1316 C 0.23602 0.72127 0.42755 0.0
C1317 C 0.23114 0.69837 0.39417 0.0
C1318 C 0.21317 0.72494 0.42642 0.0
C1319 C 0.19936 0.71527 0.40962 0.0
H1320 H 0.83517 0.69056 0.4113 0.0
H1321 H 0.85203 0.74724 0.37225 0.0
H1322 H 0.84555 0.77182 0.40319 0.0
H1323 H 0.83477 0.7773 0.4412 0.0
H1324 H 0.81859 0.72072 0.4807 0.0
H1325 H 0.82491 0.6961 0.44976 0.0
C1326 C 0.83726 0.7083 0.40957 0.0
C1327 C 0.84411 0.71705 0.38955 0.0
C1328 C 0.83364 0.72238 0.42752 0.0
C1329 C 0.84698 0.74008 0.38758 0.0
C1330 C 0.84323 0.75415 0.40524 0.0
C1331 C 0.8329 0.75959 0.44317 0.0
C1332 C 0.82614 0.75095 0.46329 0.0
C1333 C 0.83664 0.7455 0.42532 0.0
C1334 C 0.82348 0.7279 0.46535 0.0
C1335 C 0.82717 0.71377 0.44766 0.0
H1336 H 0.8159 0.3444 0.40182 0.0
H1337 H 0.88401 0.3319 0.42152 0.0
H1338 H 0.87291 0.31648 0.45628 0.0
H1339 H 0.84422 0.30448 0.48016 0.0
H1340 H 0.77578 0.31597 0.46174 0.0
H1341 H 0.78666 0.33445 0.42776 0.0
C1342 C 0.82829 0.33849 0.41383 0.0
C1343 C 0.85078 0.3389 0.40875 0.0
C1344 C 0.82176 0.32956 0.43406 0.0
C1345 C 0.86659 0.33123 0.4246 0.0
C1346 C 0.86028 0.32256 0.44462 0.0
C1347 C 0.8316 0.31119 0.46884 0.0
C1348 C 0.80919 0.30869 0.47341 0.0
C1349 C 0.83795 0.3213 0.44934 0.0
C1350 C 0.79314 0.31775 0.45868 0.0
C1351 C 0.79938 0.32814 0.43916 0.0
H1352 H 0.13852 0.73681 0.65088 0.0
H1353 H 0.17936 0.74421 0.71121 0.0
H1354 H 0.14886 0.76133 0.72923 0.0
H1355 H 0.11079 0.77545 0.72742 0.0
H1356 H 0.07085 0.76883 0.66648 0.0
H1357 H 0.10097 0.7508 0.64903 0.0
C1358 C 0.14092 0.74237 0.6679 0.0
C1359 C 0.16136 0.73928 0.67956 0.0
C1360 C 0.12346 0.75258 0.67804 0.0
C1361 C 0.16381 0.74613 0.70183 0.0
C1362 C 0.14639 0.75609 0.71212 0.0
C1363 C 0.10866 0.76993 0.71038 0.0
C1364 C 0.08857 0.77366 0.69828 0.0
C1365 C 0.12617 0.75953 0.70035 0.0
C1366 C 0.08618 0.76657 0.67611 0.0
C1367 C 0.10338 0.75608 0.66613 0.0
H1368 H 0.88174 0.64415 0.72113 0.0
H1369 H 0.81655 0.67156 0.7159 0.0
H1370 H 0.80207 0.64018 0.73624 0.0
H1371 H 0.80799 0.6053 0.75585 0.0
H1372 H 0.87305 0.57752 0.76067 0.0
H1373 H 0.88763 0.60911 0.7408 0.0
C1374 C 0.86439 0.64335 0.72459 0.0
C1375 C 0.85026 0.66021 0.71698 0.0
C1376 C 0.85619 0.6253 0.73639 0.0
C1377 C 0.82775 0.65871 0.72131 0.0
C1378 C 0.81948 0.64083 0.73308 0.0
C1379 C 0.82532 0.60596 0.7524 0.0
C1380 C 0.83933 0.58887 0.75974 0.0
C1381 C 0.83355 0.62404 0.74068 0.0
C1382 C 0.86187 0.59044 0.75548 0.0
C1383 C 0.87021 0.60845 0.74395 0.0
H1384 H 0.91922 0.40114 0.73026 0.0
H1385 H 0.90249 0.33286 0.71523 0.0
H1386 H 0.93551 0.32112 0.73639 0.0
H1387 H 0.96914 0.33005 0.75861 0.0
H1388 H 0.98744 0.39808 0.77295 0.0
H1389 H 0.95346 0.41012 0.75319 0.0
C1390 C 0.92282 0.38371 0.73175 0.0
C1391 C 0.90855 0.3679 0.721 0.0
C1392 C 0.942 0.37704 0.74389 0.0
C1393 C 0.9134 0.34536 0.72301 0.0
C1394 C 0.93221 0.33863 0.73521 0.0
C1395 C 0.96596 0.34755 0.75722 0.0
C1396 C 0.98108 0.36314 0.76701 0.0
C1397 C 0.9467 0.35431 0.74553 0.0
C1398 C 0.97612 0.38571 0.76563 0.0
C1399 C 0.95674 0.3926 0.75421 0.0
H1400 H 0.2112 0.45941 0.70064 0.0
H1401 H 0.22545 0.425 0.76174 0.0
H1402 H 0.24128 0.45899 0.77871 0.0
H1403 H 0.25433 0.49785 0.77488 0.0
H1404 H 0.24041 0.53155 0.71329 0.0
H1405 H 0.2208 0.49886 0.69803 0.0
C1406 C 0.21771 0.45942 0.71769 0.0
C1407 C 0.21741 0.43971 0.72983 0.0
C1408 C 0.22669 0.47902 0.72734 0.0
C1409 C 0.22554 0.44 0.75204 0.0
C1410 C 0.2346 0.45943 0.76175 0.0
C1411 C 0.24635 0.49819 0.75842 0.0
C1412 C 0.24868 0.51708 0.74525 0.0
C1413 C 0.23561 0.479 0.74945 0.0
C1414 C 0.23871 0.51719 0.72374 0.0
C1415 C 0.22767 0.49844 0.71493 0.0
H1416 H 0.14602 0.26793 0.35297 0.0
H1417 H 0.11632 0.33208 0.35423 0.0
H1418 H 0.08301 0.31708 0.33471 0.0
H1419 H 0.06299 0.2864 0.31561 0.0
H1420 H 0.09279 0.22235 0.31293 0.0
H1421 H 0.12507 0.23653 0.33503 0.0
C1422 C 0.13215 0.27856 0.3492 0.0
C1423 C 0.13381 0.30119 0.35496 0.0
C1424 C 0.11299 0.26983 0.33774 0.0
C1425 C 0.1157 0.31472 0.34972 0.0
C1426 C 0.09656 0.30612 0.33865 0.0
C1427 C 0.07636 0.27537 0.32009 0.0
C1428 C 0.07533 0.25325 0.31257 0.0
C1429 C 0.09511 0.28378 0.33233 0.0
C1430 C 0.09302 0.2394 0.31848 0.0
C1431 C 0.11157 0.24754 0.33105 0.0
H1432 H 0.18603 0.61194 0.28328 0.0
H1433 H 0.18381 0.59882 0.35307 0.0
H1434 H 0.19568 0.56106 0.34719 0.0
H1435 H 0.21069 0.53351 0.32326 0.0
H1436 H 0.21606 0.54656 0.25383 0.0
H1437 H 0.19829 0.58233 0.25827 0.0
C1438 C 0.18783 0.60062 0.29706 0.0
C1439 C 0.18433 0.60813 0.31863 0.0
C1440 C 0.19519 0.57899 0.2936 0.0
C1441 C 0.18672 0.59343 0.33641 0.0
C1442 C 0.19344 0.57186 0.33305 0.0
C1443 C 0.20763 0.54399 0.30897 0.0
C1444 C 0.21483 0.53751 0.28829 0.0
C1445 C 0.19832 0.56471 0.31186 0.0
C1446 C 0.21054 0.55113 0.2699 0.0
C1447 C 0.20063 0.57169 0.27251 0.0
H1448 H 0.89408 0.73269 0.33297 0.0
H1449 H 0.8985 0.66226 0.32258 0.0
H1450 H 0.93103 0.66815 0.30138 0.0
H1451 H 0.95723 0.69315 0.28441 0.0
H1452 H 0.95415 0.76346 0.29553 0.0
H1453 H 0.9225 0.75766 0.31848 0.0
C1454 C 0.90233 0.71857 0.3264 0.0
C1455 C 0.89351 0.69705 0.32916 0.0
C1456 C 0.92135 0.72203 0.31444 0.0
C1457 C 0.90445 0.67904 0.32028 0.0
C1458 C 0.92322 0.68237 0.30829 0.0
C1459 C 0.94977 0.70723 0.292 0.0
C1460 C 0.95792 0.72872 0.28813 0.0
C1461 C 0.93161 0.70378 0.30502 0.0
C1462 C 0.94822 0.74674 0.29829 0.0
C1463 C 0.93004 0.74344 0.31129 0.0
H1464 H 0.81868 0.38866 0.34144 0.0
H1465 H 0.88571 0.41122 0.35624 0.0
H1466 H 0.87788 0.44653 0.33832 0.0
H1467 H 0.85256 0.47021 0.31689 0.0
H1468 H 0.78582 0.44738 0.30049 0.0
H1469 H 0.7928 0.41314 0.32066 0.0
C1470 C 0.83137 0.40151 0.34098 0.0
C1471 C 0.85268 0.39752 0.35012 0.0
C1472 C 0.82686 0.42162 0.3302 0.0
C1473 C 0.86918 0.41407 0.34928 0.0
C1474 C 0.86474 0.43418 0.33898 0.0
C1475 C 0.83958 0.45771 0.31758 0.0
C1476 C 0.81874 0.46139 0.30707 0.0
C1477 C 0.84376 0.43798 0.32903 0.0
C1478 C 0.80197 0.44512 0.30857 0.0
C1479 C 0.80597 0.42546 0.32003 0.0
H1480 H 0.20191 0.66912 0.69374 0.0
H1481 H 0.25682 0.70556 0.66848 0.0
H1482 H 0.28251 0.67883 0.68476 0.0
H1483 H 0.28944 0.64471 0.70563 0.0
H1484 H 0.23451 0.60765 0.73018 0.0
H1485 H 0.20897 0.63503 0.71505 0.0
C1486 C 0.21952 0.67133 0.69204 0.0
C1487 C 0.22739 0.68931 0.67985 0.0
C1488 C 0.23426 0.65571 0.7013 0.0
C1489 C 0.25028 0.69177 0.67759 0.0
C1490 C 0.265 0.67649 0.68693 0.0
C1491 C 0.27189 0.64248 0.70755 0.0
C1492 C 0.26406 0.62403 0.71912 0.0
C1493 C 0.25718 0.65826 0.69862 0.0
C1494 C 0.24118 0.62175 0.72166 0.0
C1495 C 0.22647 0.63739 0.71289 0.0
H1496 H 0.19073 0.3551 0.32754 0.0
H1497 H 0.19455 0.37599 0.39583 0.0
H1498 H 0.2136 0.41018 0.38603 0.0
H1499 H 0.23069 0.43352 0.35837 0.0
H1500 H 0.22755 0.41264 0.29008 0.0
H1501 H 0.20662 0.37941 0.29947 0.0
C1502 C 0.19543 0.36732 0.34018 0.0
C1503 C 0.19132 0.36293 0.36241 0.0
C1504 C 0.20668 0.38695 0.33445 0.0
C1505 C 0.19771 0.37886 0.37864 0.0
C1506 C 0.20863 0.39843 0.37305 0.0
C1507 C 0.22553 0.42167 0.34555 0.0
C1508 C 0.23083 0.42564 0.32356 0.0
C1509 C 0.21355 0.40249 0.35108 0.0
C1510 C 0.22359 0.4102 0.30711 0.0
C1511 C 0.21168 0.39109 0.31249 0.0
H1512 H 0.13879 0.65919 0.27531 0.0
H1513 H 0.12741 0.6908 0.33763 0.0
H1514 H 0.09335 0.70624 0.32168 0.0
H1515 H 0.06613 0.70982 0.29052 0.0
H1516 H 0.07679 0.67752 0.22849 0.0
H1517 H 0.11136 0.66264 0.24413 0.0
C1518 C 0.1288 0.66931 0.2855 0.0
C1519 C 0.13582 0.67382 0.30768 0.0
C1520 C 0.10893 0.6778 0.27636 0.0
C1521 C 0.12274 0.68732 0.32043 0.0
C1522 C 0.1031 0.69601 0.31138 0.0
C1523 C 0.07608 0.6997 0.28033 0.0
C1524 C 0.06882 0.69486 0.25831 0.0
C1525 C 0.09598 0.69127 0.28941 0.0
C1526 C 0.08179 0.68132 0.24553 0.0
C1527 C 0.10167 0.67294 0.25443 0.0
H1528 H 0.82197 0.63633 0.36536 0.0
H1529 H 0.81811 0.67115 0.30338 0.0
H1530 H 0.79712 0.64032 0.28585 0.0
H1531 H 0.78551 0.60141 0.28659 0.0
H1532 H 0.79172 0.56492 0.34733 0.0
H1533 H 0.80551 0.5984 0.36714 0.0
C1534 C 0.816 0.6373 0.34819 0.0
C1535 C 0.82172 0.65585 0.33558 0.0
C1536 C 0.80439 0.61915 0.33803 0.0
C1537 C 0.81407 0.65693 0.3133 0.0
C1538 C 0.80208 0.63931 0.30329 0.0
C1539 C 0.78901 0.60109 0.30437 0.0
C1540 C 0.78726 0.58096 0.31564 0.0
C1541 C 0.79788 0.62006 0.31526 0.0
C1542 C 0.79243 0.58043 0.33849 0.0
C1543 C 0.80066 0.59949 0.3497 0.0
H1544 H 0.8866 0.33224 0.31382 0.0
H1545 H 0.92293 0.3339 0.37704 0.0
H1546 H 0.9562 0.32207 0.35958 0.0
H1547 H 0.97557 0.31352 0.32584 0.0
H1548 H 0.93907 0.30974 0.26298 0.0
H1549 H 0.90518 0.32018 0.28058 0.0
C1550 C 0.90177 0.32971 0.32375 0.0
C1551 C 0.90238 0.33396 0.34667 0.0
C1552 C 0.92079 0.3228 0.31359 0.0
C1553 C 0.92204 0.33054 0.35943 0.0
C1554 C 0.94109 0.32396 0.34942 0.0
C1555 C 0.96011 0.31496 0.31613 0.0
C1556 C 0.95966 0.31128 0.29319 0.0
C1557 C 0.94076 0.32044 0.32648 0.0
C1558 C 0.93962 0.3127 0.28065 0.0
C1559 C 0.92035 0.31864 0.29072 0.0
H1560 H 0.83366 0.43167 0.6889 0.0
H1561 H 0.83725 0.3874 0.74455 0.0
H1562 H 0.81531 0.4124 0.7656 0.0
H1563 H 0.79966 0.44871 0.77008 0.0
H1564 H 0.79669 0.49447 0.7158 0.0
H1565 H 0.81327 0.46694 0.69207 0.0
C1566 C 0.8292 0.4274 0.70546 0.0
C1567 C 0.83734 0.40792 0.71534 0.0
C1568 C 0.8168 0.44215 0.7177 0.0
C1569 C 0.83147 0.40248 0.73679 0.0
C1570 C 0.81891 0.41674 0.74881 0.0
C1571 C 0.80218 0.45248 0.75288 0.0
C1572 C 0.79716 0.47356 0.74469 0.0
C1573 C 0.81217 0.4369 0.73972 0.0
C1574 C 0.80032 0.47826 0.72239 0.0
C1575 C 0.81003 0.4626 0.70894 0.0
H1576 H 0.14868 0.36334 0.70321 0.0
H1577 H 0.18725 0.3756 0.76427 0.0
H1578 H 0.15955 0.35613 0.78481 0.0
H1579 H 0.12332 0.33839 0.78597 0.0
H1580 H 0.084 0.32552 0.72563 0.0
H1581 H 0.11335 0.34192 0.70412 0.0
C1582 C 0.15116 0.36142 0.72095 0.0
C1583 C 0.16983 0.3713 0.73224 0.0
C1584 C 0.13507 0.35013 0.73276 0.0
C1585 C 0.17279 0.36866 0.75525 0.0
C1586 C 0.15702 0.35742 0.76701 0.0
C1587 C 0.12122 0.33897 0.76807 0.0
C1588 C 0.10145 0.33105 0.75739 0.0
C1589 C 0.13791 0.34857 0.75601 0.0
C1590 C 0.09911 0.33153 0.7342 0.0
C1591 C 0.11581 0.34104 0.72196 0.0
H1592 H 0.90154 0.71599 0.74429 0.0
H1593 H 0.92175 0.7249 0.67763 0.0
H1594 H 0.95667 0.74173 0.69195 0.0
H1595 H 0.98153 0.75395 0.72342 0.0
H1596 H 0.96132 0.74442 0.79002 0.0
H1597 H 0.92669 0.72719 0.77565 0.0
C1598 C 0.91365 0.72133 0.73282 0.0
C1599 C 0.90889 0.71904 0.70983 0.0
C1600 C 0.93386 0.73072 0.74118 0.0
C1601 C 0.92472 0.72664 0.69535 0.0
C1602 C 0.94482 0.73611 0.70355 0.0
C1603 C 0.96968 0.74791 0.73484 0.0
C1604 C 0.97418 0.75047 0.75785 0.0
C1605 C 0.94959 0.7382 0.72644 0.0
C1606 C 0.95844 0.74266 0.77229 0.0
C1607 C 0.93854 0.73287 0.76406 0.0
H1608 H 0.71411 0.24463 0.64435 0.0
H1609 H 0.71403 0.17529 0.62718 0.0
H1610 H 0.72537 0.18437 0.59032 0.0
H1611 H 0.73893 0.2114 0.56431 0.0
H1612 H 0.74001 0.28081 0.58062 0.0
H1613 H 0.72395 0.27243 0.61611 0.0
C1614 C 0.71621 0.23155 0.63241 0.0
C1615 C 0.71366 0.20924 0.63878 0.0
C1616 C 0.72285 0.23691 0.61104 0.0
C1617 C 0.71644 0.19253 0.62302 0.0
C1618 C 0.72279 0.19771 0.60184 0.0
C1619 C 0.73522 0.22477 0.57543 0.0
C1620 C 0.7407 0.24668 0.56988 0.0
C1621 C 0.72659 0.21976 0.59588 0.0
C1622 C 0.73572 0.26382 0.5844 0.0
C1623 C 0.7268 0.25898 0.60481 0.0
H1624 H 0.33173 0.18815 0.64512 0.0
H1625 H 0.35728 0.24532 0.6818 0.0
H1626 H 0.3381 0.26965 0.6556 0.0
H1627 H 0.3164 0.27495 0.62113 0.0
H1628 H 0.29031 0.21863 0.58363 0.0
H1629 H 0.30699 0.19369 0.61146 0.0
C1630 C 0.33279 0.20592 0.6475 0.0
C1631 C 0.34624 0.2149 0.66521 0.0
C1632 C 0.32171 0.21995 0.6322 0.0
C1633 C 0.34745 0.23798 0.66808 0.0
C1634 C 0.33642 0.25192 0.65315 0.0
C1635 C 0.31421 0.25721 0.61905 0.0
C1636 C 0.30235 0.24866 0.6002 0.0
C1637 C 0.32393 0.24312 0.63493 0.0
C1638 C 0.29939 0.22564 0.59798 0.0
C1639 C 0.30902 0.21139 0.61385 0.0
H1640 H 0.32259 0.81905 0.64316 0.0
H1641 H 0.31587 0.8843 0.61539 0.0
H1642 H 0.30558 0.8679 0.57912 0.0
H1643 H 0.30234 0.8348 0.55441 0.0
H1644 H 0.31434 0.77043 0.58208 0.0
H1645 H 0.31965 0.78667 0.6191 0.0
C1646 C 0.31908 0.82982 0.6292 0.0
C1647 C 0.32049 0.85299 0.63209 0.0
C1648 C 0.31458 0.82035 0.60821 0.0
C1649 C 0.3149 0.86647 0.61384 0.0
C1650 C 0.30929 0.85708 0.59298 0.0
C1651 C 0.30604 0.82444 0.56864 0.0
C1652 C 0.30812 0.80147 0.5656 0.0
C1653 C 0.30971 0.83404 0.58983 0.0
C1654 C 0.31299 0.78814 0.58405 0.0
C1655 C 0.31587 0.79741 0.60518 0.0
H1656 H 0.73594 0.85694 0.66607 0.0
H1657 H 0.6737 0.84293 0.63018 0.0
H1658 H 0.69332 0.83011 0.5985 0.0
H1659 H 0.72823 0.82537 0.58001 0.0
H1660 H 0.79008 0.84176 0.61545 0.0
H1661 H 0.77048 0.85209 0.6479 0.0
C1662 C 0.72658 0.85122 0.65129 0.0
C1663 C 0.70331 0.85114 0.65055 0.0
C1664 C 0.73792 0.84473 0.63284 0.0
C1665 C 0.69158 0.84302 0.63142 0.0
C1666 C 0.7028 0.83593 0.61315 0.0
C1667 C 0.73739 0.8311 0.59488 0.0
C1668 C 0.76061 0.83293 0.5952 0.0
C1669 C 0.72597 0.8371 0.61353 0.0
C1670 C 0.77224 0.84057 0.61456 0.0
C1671 C 0.76103 0.84628 0.63322 0.0
H1672 H 0.67114 0.81286 0.43403 0.0
H1673 H 0.72355 0.83424 0.39302 0.0
H1674 H 0.75093 0.82281 0.42123 0.0
H1675 H 0.7603 0.80889 0.45819 0.0
H1676 H 0.70907 0.78566 0.49934 0.0
H1677 H 0.68094 0.79499 0.47014 0.0
C1678 C 0.68853 0.81471 0.43106 0.0
C1679 C 0.6951 0.82497 0.41143 0.0
C1680 C 0.70443 0.80769 0.44736 0.0
C1681 C 0.71783 0.82715 0.40811 0.0
C1682 C 0.73359 0.82041 0.42419 0.0
C1683 C 0.74297 0.80563 0.46072 0.0
C1684 C 0.73673 0.79678 0.48096 0.0
C1685 C 0.72709 0.81106 0.44399 0.0
C1686 C 0.71427 0.79237 0.48387 0.0
C1687 C 0.69822 0.79789 0.46723 0.0
H1688 H 0.72104 0.16473 0.40552 0.0
H1689 H 0.70888 0.22992 0.37936 0.0
H1690 H 0.72992 0.24642 0.41092 0.0
H1691 H 0.75269 0.24243 0.4454 0.0
H1692 H 0.76609 0.17737 0.47093 0.0
H1693 H 0.74434 0.16073 0.43971 0.0
C1694 C 0.72312 0.18255 0.40657 0.0
C1695 C 0.71321 0.19599 0.39 0.0
C1696 C 0.73571 0.19197 0.42454 0.0
C1697 C 0.71587 0.21909 0.39197 0.0
C1698 C 0.72812 0.22858 0.40994 0.0
C1699 C 0.75072 0.22462 0.44425 0.0
C1700 C 0.76097 0.21118 0.46057 0.0
C1701 C 0.73818 0.21519 0.42627 0.0
C1702 C 0.75858 0.1881 0.45853 0.0
C1703 C 0.74602 0.17858 0.44075 0.0
H1704 H 0.32858 0.22938 0.40743 0.0
H1705 H 0.39693 0.22889 0.43108 0.0
H1706 H 0.38805 0.25008 0.4639 0.0
H1707 H 0.36008 0.266 0.48737 0.0
H1708 H 0.29174 0.26513 0.46352 0.0
H1709 H 0.30131 0.24698 0.42951 0.0
C1710 C 0.34156 0.23391 0.41977 0.0
C1711 C 0.36333 0.22732 0.41695 0.0
C1712 C 0.33626 0.24565 0.43871 0.0
C1713 C 0.38004 0.2338 0.43282 0.0
C1714 C 0.37493 0.24577 0.45166 0.0
C1715 C 0.34737 0.26209 0.47458 0.0
C1716 C 0.32517 0.26667 0.47815 0.0
C1717 C 0.353 0.25142 0.45501 0.0
C1718 C 0.30887 0.26141 0.46143 0.0
C1719 C 0.31434 0.25111 0.44191 0.0
H1720 H 0.32273 0.87692 0.39682 0.0
H1721 H 0.34053 0.82027 0.35831 0.0
H1722 H 0.32381 0.79573 0.38459 0.0
H1723 H 0.30518 0.79004 0.41891 0.0
H1724 H 0.28464 0.84605 0.4563 0.0
H1725 H 0.30064 0.87122 0.42944 0.0
C1726 C 0.32265 0.85925 0.39383 0.0
C1727 C 0.33334 0.85062 0.37558 0.0
C1728 C 0.31235 0.84509 0.40872 0.0
C1729 C 0.33314 0.82755 0.37242 0.0
C1730 C 0.32333 0.81342 0.38734 0.0
C1731 C 0.30404 0.80778 0.42111 0.0
C1732 C 0.29393 0.81622 0.43963 0.0
C1733 C 0.31312 0.822 0.40563 0.0
C1734 C 0.29229 0.83919 0.44212 0.0
C1735 C 0.30157 0.85354 0.42685 0.0
H1736 H 0.64521 0.20525 0.68714 0.0
H1737 H 0.69547 0.23193 0.73333 0.0
H1738 H 0.66742 0.24117 0.75923 0.0
H1739 H 0.62884 0.23922 0.76973 0.0
H1740 H 0.57847 0.21224 0.72386 0.0
H1741 H 0.6062 0.20525 0.69685 0.0
C1742 C 0.64982 0.21369 0.70261 0.0
C1743 C 0.67219 0.21829 0.70829 0.0
C1744 C 0.63367 0.2183 0.71765 0.0
C1745 C 0.67822 0.22864 0.72859 0.0
C1746 C 0.66225 0.23364 0.74346 0.0
C1747 C 0.62405 0.23158 0.75391 0.0
C1748 C 0.6018 0.22582 0.74886 0.0
C1749 C 0.64001 0.228 0.73842 0.0
C1750 C 0.59561 0.21655 0.72808 0.0
C1751 C 0.6114 0.21268 0.71265 0.0
H1752 H 0.3726 0.15353 0.74678 0.0
H1753 H 0.33568 0.1376 0.68557 0.0
H1754 H 0.3208 0.10421 0.70219 0.0
H1755 H 0.31886 0.0789 0.73387 0.0
H1756 H 0.35687 0.09422 0.79448 0.0
H1757 H 0.3712 0.12801 0.7781 0.0
C1758 C 0.36152 0.14267 0.73691 0.0
C1759 C 0.35536 0.14827 0.71485 0.0
C1760 C 0.35331 0.12319 0.74643 0.0
C1761 C 0.34054 0.13406 0.70264 0.0
C1762 C 0.33212 0.1148 0.71209 0.0
C1763 C 0.33017 0.0897 0.74354 0.0
C1764 C 0.33677 0.08392 0.76542 0.0
C1765 C 0.33842 0.10915 0.73396 0.0
C1766 C 0.3517 0.09802 0.77756 0.0
C1767 C 0.35981 0.11746 0.76823 0.0
H1768 H 0.40161 0.8724 0.69402 0.0
H1769 H 0.35622 0.81681 0.69634 0.0
H1770 H 0.3862 0.79307 0.7095 0.0
H1771 H 0.42544 0.78761 0.71847 0.0
H1772 H 0.47156 0.84249 0.7153 0.0
H1773 H 0.44126 0.86706 0.70457 0.0
C1774 C 0.39833 0.85518 0.6978 0.0
C1775 C 0.3768 0.84631 0.69425 0.0
C1776 C 0.41579 0.84147 0.70497 0.0
C1777 C 0.3727 0.82393 0.69893 0.0
C1778 C 0.38983 0.81035 0.70637 0.0
C1779 C 0.42894 0.80488 0.71524 0.0
C1780 C 0.4508 0.81311 0.71742 0.0
C1781 C 0.41149 0.81883 0.70902 0.0
C1782 C 0.45489 0.83573 0.71377 0.0
C1783 C 0.43757 0.84978 0.70758 0.0
H1784 H 0.73109 0.89882 0.71295 0.0
H1785 H 0.67075 0.93259 0.69566 0.0
H1786 H 0.68993 0.96837 0.70151 0.0
H1787 H 0.72476 0.98985 0.70813 0.0
H1788 H 0.78489 0.95604 0.72591 0.0
H1789 H 0.76504 0.92032 0.72309 0.0
C1790 C 0.72209 0.91406 0.71093 0.0
C1791 C 0.69959 0.91317 0.70385 0.0
C1792 C 0.73331 0.93445 0.71391 0.0
C1793 C 0.68801 0.93292 0.70132 0.0
C1794 C 0.69904 0.95334 0.70437 0.0
C1795 C 0.73346 0.9746 0.71126 0.0
C1796 C 0.75631 0.97537 0.71668 0.0
C1797 C 0.72183 0.95427 0.71 0.0
C1798 C 0.76736 0.95567 0.72143 0.0
C1799 C 0.75601 0.93534 0.71989 0.0
H1800 H 0.63406 0.79194 0.35431 0.0
H1801 H 0.60268 0.84819 0.38186 0.0
H1802 H 0.56646 0.83385 0.36816 0.0
H1803 H 0.5444 0.80782 0.34469 0.0
H1804 H 0.57579 0.75278 0.31459 0.0
H1805 H 0.61114 0.76384 0.33318 0.0
C1806 C 0.61918 0.8007 0.3577 0.0
C1807 C 0.62089 0.82101 0.36911 0.0
C1808 C 0.59844 0.79267 0.34913 0.0
C1809 C 0.60163 0.83248 0.37315 0.0
C1810 C 0.58097 0.82433 0.36525 0.0
C1811 C 0.55885 0.79795 0.34248 0.0
C1812 C 0.55739 0.77957 0.32808 0.0
C1813 C 0.57924 0.80479 0.35267 0.0
C1814 C 0.57639 0.76705 0.32549 0.0
C1815 C 0.59667 0.77343 0.33605 0.0
H1816 H 0.71887 0.12076 0.36016 0.0
H1817 H 0.69952 0.15 0.29722 0.0
H1818 H 0.71298 0.11814 0.278 0.0
H1819 H 0.72812 0.08123 0.27869 0.0
H1820 H 0.7487 0.05121 0.34058 0.0
H1821 H 0.73771 0.08446 0.36057 0.0
C1822 C 0.71782 0.1203 0.34224 0.0
C1823 C 0.70757 0.1377 0.33027 0.0
C1824 C 0.72602 0.10187 0.33108 0.0
C1825 C 0.70651 0.13667 0.30701 0.0
C1826 C 0.71447 0.11851 0.29592 0.0
C1827 C 0.7305 0.08207 0.29658 0.0
C1828 C 0.7391 0.06381 0.30819 0.0
C1829 C 0.72389 0.10092 0.30777 0.0
C1830 C 0.7423 0.06515 0.33129 0.0
C1831 C 0.73577 0.08407 0.34268 0.0
H1832 H 0.39254 0.19736 0.32313 0.0
H1833 H 0.43274 0.2146 0.38198 0.0
H1834 H 0.46444 0.22149 0.35965 0.0
H1835 H 0.48068 0.22293 0.32345 0.0
H1836 H 0.44049 0.20588 0.26459 0.0
H1837 H 0.40914 0.19776 0.287 0.0
C1838 C 0.40829 0.20236 0.33114 0.0
C1839 C 0.41015 0.20552 0.35426 0.0
C1840 C 0.42654 0.20613 0.31821 0.0
C1841 C 0.43067 0.21237 0.36423 0.0
C1842 C 0.44887 0.21616 0.35147 0.0
C1843 C 0.46506 0.21753 0.31547 0.0
C1844 C 0.46303 0.21517 0.29228 0.0
C1845 C 0.44697 0.21321 0.32845 0.0
C1846 C 0.44271 0.20767 0.28236 0.0
C1847 C 0.42467 0.20319 0.29518 0.0
H1848 H 0.33869 0.92211 0.3014 0.0
H1849 H 0.33748 0.93052 0.3721 0.0
H1850 H 0.32078 0.96658 0.36706 0.0
H1851 H 0.30382 0.9941 0.34291 0.0
H1852 H 0.3029 0.9858 0.27207 0.0
H1853 H 0.32366 0.95161 0.27677 0.0
C1854 C 0.33502 0.93203 0.31564 0.0
C1855 C 0.33905 0.92359 0.3371 0.0
C1856 C 0.32506 0.95272 0.3126 0.0
C1857 C 0.33419 0.93653 0.35544 0.0
C1858 C 0.32472 0.95717 0.35258 0.0
C1859 C 0.30834 0.98499 0.32842 0.0
C1860 C 0.30163 0.9924 0.30717 0.0
C1861 C 0.31965 0.96518 0.33127 0.0
C1862 C 0.30787 0.98048 0.28862 0.0
C1863 C 0.31959 0.96084 0.29132 0.0
H1864 H 0.73264 0.17489 0.73655 0.0
H1865 H 0.72321 0.13849 0.67519 0.0
H1866 H 0.73729 0.10527 0.69341 0.0
H1867 H 0.75179 0.08649 0.72676 0.0
H1868 H 0.76177 0.12293 0.78808 0.0
H1869 H 0.74718 0.15606 0.77 0.0
C1870 C 0.7336 0.15966 0.72716 0.0
C1871 C 0.72684 0.15921 0.70451 0.0
C1872 C 0.74141 0.14055 0.73782 0.0
C1873 C 0.72856 0.13943 0.69253 0.0
C1874 C 0.73637 0.12035 0.70301 0.0
C1875 C 0.75048 0.10157 0.73631 0.0
C1876 C 0.75763 0.10213 0.75886 0.0
C1877 C 0.74265 0.12068 0.72568 0.0
C1878 C 0.7562 0.12197 0.77079 0.0
C1879 C 0.74801 0.14096 0.76041 0.0
H1880 H 0.70715 0.87453 0.34939 0.0
H1881 H 0.64089 0.89695 0.3568 0.0
H1882 H 0.6483 0.9293 0.33425 0.0
H1883 H 0.67355 0.95134 0.31206 0.0
H1884 H 0.7399 0.92912 0.30506 0.0
H1885 H 0.73261 0.89696 0.3279 0.0
C1886 C 0.69441 0.88663 0.34632 0.0
C1887 C 0.67344 0.88312 0.35476 0.0
C1888 C 0.69879 0.90532 0.33331 0.0
C1889 C 0.65708 0.89894 0.35031 0.0
C1890 C 0.66132 0.91755 0.33744 0.0
C1891 C 0.68635 0.93938 0.31541 0.0
C1892 C 0.70727 0.94276 0.30682 0.0
C1893 C 0.68206 0.92085 0.32868 0.0
C1894 C 0.72374 0.92717 0.31162 0.0
C1895 C 0.71956 0.90867 0.32465 0.0
H1896 H 0.63689 0.21068 0.35842 0.0
H1897 H 0.66345 0.19068 0.29679 0.0
H1898 H 0.63276 0.20741 0.27626 0.0
H1899 H 0.59763 0.22602 0.27527 0.0
H1900 H 0.57058 0.24812 0.33561 0.0
H1901 H 0.60248 0.23294 0.35709 0.0
C1902 C 0.6361 0.21017 0.34051 0.0
C1903 C 0.65236 0.19871 0.32933 0.0
C1904 C 0.61836 0.22034 0.32851 0.0
C1905 C 0.65094 0.1985 0.30604 0.0
C1906 C 0.63345 0.20832 0.29416 0.0
C1907 C 0.59876 0.22771 0.29315 0.0
C1908 C 0.58168 0.23801 0.30386 0.0
C1909 C 0.61694 0.21894 0.30519 0.0
C1910 C 0.58356 0.24035 0.32698 0.0
C1911 C 0.60172 0.23149 0.33923 0.0
H1912 H 0.34181 0.16563 0.33502 0.0
H1913 H 0.33822 0.15181 0.40459 0.0
H1914 H 0.31126 0.12204 0.39611 0.0
H1915 H 0.28882 0.09964 0.36882 0.0
H1916 H 0.2933 0.11292 0.29933 0.0
H1917 H 0.31998 0.14293 0.30784 0.0
C1918 C 0.33535 0.15593 0.34832 0.0
C1919 C 0.342 0.16102 0.3704 0.0
C1920 C 0.31998 0.13871 0.34333 0.0
C1921 C 0.33317 0.14847 0.38745 0.0
C1922 C 0.31781 0.13137 0.38262 0.0
C1923 C 0.29552 0.10926 0.3556 0.0
C1924 C 0.28913 0.10407 0.3335 0.0
C1925 C 0.31101 0.1264 0.36062 0.0
C1926 C 0.29816 0.11644 0.31647 0.0
C1927 C 0.31336 0.13365 0.32133 0.0
H1928 H 0.38187 0.83274 0.31594 0.0
H1929 H 0.41312 0.89615 0.33074 0.0
H1930 H 0.44685 0.88399 0.31451 0.0
H1931 H 0.46787 0.85496 0.29721 0.0
H1932 H 0.43631 0.79175 0.28172 0.0
H1933 H 0.40254 0.8041 0.29743 0.0
C1934 C 0.3961 0.84385 0.31568 0.0
C1935 C 0.39496 0.86531 0.32459 0.0
C1936 C 0.41547 0.83675 0.30631 0.0
C1937 C 0.41346 0.87962 0.32383 0.0
C1938 C 0.4328 0.87264 0.31464 0.0
C1939 C 0.45357 0.84393 0.29697 0.0
C1940 C 0.45487 0.82233 0.28836 0.0
C1941 C 0.43404 0.85121 0.3059 0.0
C1942 C 0.43608 0.80829 0.28854 0.0
C1943 C 0.41664 0.81539 0.29743 0.0
H1944 H 0.29408 0.90733 0.69098 0.0
H1945 H 0.36346 0.92504 0.69415 0.0
H1946 H 0.3562 0.95844 0.71483 0.0
H1947 H 0.33112 0.98062 0.73529 0.0
H1948 H 0.26163 0.9641 0.73312 0.0
H1949 H 0.26779 0.93262 0.70847 0.0
C1950 C 0.3075 0.91875 0.69586 0.0
C1951 C 0.32938 0.91343 0.69133 0.0
C1952 C 0.3032 0.9381 0.70803 0.0
C1953 C 0.34657 0.92845 0.69777 0.0
C1954 C 0.34243 0.94762 0.70957 0.0
C1955 C 0.31722 0.97035 0.72915 0.0
C1956 C 0.29597 0.9746 0.73615 0.0
C1957 C 0.32096 0.95227 0.71533 0.0
C1958 C 0.27813 0.96127 0.72788 0.0
C1959 C 0.28171 0.94314 0.71394 0.0
H1960 H 0.64274 0.86076 0.73291 0.0
H1961 H 0.62594 0.84995 0.66345 0.0
H1962 H 0.59017 0.83433 0.67214 0.0
H1963 H 0.56443 0.82194 0.69916 0.0
H1964 H 0.58048 0.83166 0.76885 0.0
H1965 H 0.61546 0.84997 0.76035 0.0
C1966 C 0.63114 0.8552 0.71969 0.0
C1967 C 0.63724 0.85626 0.69753 0.0
C1968 C 0.61042 0.84609 0.72482 0.0
C1969 C 0.62196 0.84891 0.68063 0.0
C1970 C 0.6014 0.84009 0.68558 0.0
C1971 C 0.57543 0.82821 0.71258 0.0
C1972 C 0.5698 0.82529 0.73465 0.0
C1973 C 0.59559 0.8383 0.70759 0.0
C1974 C 0.5843 0.83371 0.75172 0.0
C1975 C 0.60439 0.84406 0.74685 0.0
H1976 H 0.41242 0.23699 0.70584 0.0
H1977 H 0.43204 0.16873 0.70654 0.0
H1978 H 0.46957 0.18009 0.71849 0.0
H1979 H 0.49606 0.20891 0.73153 0.0
H1980 H 0.47722 0.27722 0.73063 0.0
H1981 H 0.44039 0.2664 0.71492 0.0
C1982 C 0.42495 0.22457 0.70816 0.0
C1983 C 0.41913 0.20192 0.70562 0.0
C1984 C 0.44672 0.23125 0.71479 0.0
C1985 C 0.43573 0.18618 0.70895 0.0
C1986 C 0.45731 0.19268 0.71558 0.0
C1987 C 0.48404 0.2215 0.72746 0.0
C1988 C 0.48933 0.24382 0.73229 0.0
C1989 C 0.46287 0.2151 0.71896 0.0
C1990 C 0.47364 0.25995 0.72686 0.0
C1991 C 0.45249 0.25371 0.71815 0.0
H1992 H 0.72222 0.68401 0.1219 0.0
H1993 H 0.71522 0.75127 0.14408 0.0
H1994 H 0.73607 0.76465 0.11326 0.0
H1995 H 0.75754 0.75712 0.081 0.0
H1996 H 0.76481 0.6898 0.0591 0.0
H1997 H 0.74338 0.67654 0.08944 0.0
C1998 C 0.72535 0.70161 0.12009 0.0
C1999 C 0.71721 0.7166 0.13537 0.0
C2000 C 0.73771 0.70915 0.1026 0.0
C2001 C 0.72105 0.73937 0.13245 0.0
C2002 C 0.73316 0.74702 0.11495 0.0
C2003 C 0.7543 0.73956 0.08269 0.0
C2004 C 0.76284 0.72452 0.06768 0.0
C2005 C 0.74173 0.73204 0.10005 0.0
C2006 C 0.75876 0.70177 0.0705 0.0
C2007 C 0.74632 0.69416 0.08776 0.0
H2008 H 0.30372 0.67933 0.15753 0.0
H2009 H 0.36774 0.67431 0.13047 0.0
H2010 H 0.35364 0.69042 0.09589 0.0
H2011 H 0.32474 0.71011 0.07501 0.0
H2012 H 0.26043 0.71604 0.10093 0.0
H2013 H 0.27272 0.6951 0.1339 0.0
C2014 C 0.31437 0.68136 0.14386 0.0
C2015 C 0.33688 0.67597 0.14674 0.0
C2016 C 0.30613 0.69095 0.12383 0.0
C2017 C 0.35048 0.67866 0.12884 0.0
C2018 C 0.34243 0.68788 0.10902 0.0
C2019 C 0.31324 0.70641 0.08766 0.0
C2020 C 0.29175 0.71472 0.08557 0.0
C2021 C 0.32053 0.69473 0.10659 0.0
C2022 C 0.27702 0.70969 0.10204 0.0
C2023 C 0.28414 0.69791 0.12102 0.0
H2024 H 0.32218 0.33913 0.14541 0.0
H2025 H 0.38902 0.35081 0.12643 0.0
H2026 H 0.37841 0.33927 0.08875 0.0
H2027 H 0.3513 0.32292 0.06202 0.0
H2028 H 0.28443 0.31058 0.07993 0.0
H2029 H 0.29363 0.32623 0.11692 0.0
C2030 C 0.33435 0.33947 0.13297 0.0
C2031 C 0.35654 0.34541 0.139 0.0
C2032 C 0.32808 0.3329 0.11108 0.0
C2033 C 0.37202 0.34571 0.12255 0.0
C2034 C 0.36593 0.33931 0.10089 0.0
C2035 C 0.33858 0.32409 0.07387 0.0
C2036 C 0.31724 0.31559 0.06831 0.0
C2037 C 0.34417 0.33246 0.0951 0.0
C2038 C 0.30091 0.31727 0.08374 0.0
C2039 C 0.30628 0.32592 0.10499 0.0
H2040 H 0.73509 0.38087 0.14229 0.0
H2041 H 0.73159 0.31489 0.16889 0.0
H2042 H 0.75494 0.30158 0.14042 0.0
H2043 H 0.77584 0.30834 0.10748 0.0
H2044 H 0.78003 0.37423 0.08103 0.0
H2045 H 0.75749 0.38794 0.11017 0.0
C2046 C 0.73965 0.36364 0.14203 0.0
C2047 C 0.73129 0.34889 0.15762 0.0
C2048 C 0.7533 0.35604 0.12564 0.0
C2049 C 0.73732 0.32656 0.15686 0.0
C2050 C 0.75081 0.31892 0.14064 0.0
C2051 C 0.77176 0.32568 0.10804 0.0
C2052 C 0.77956 0.34017 0.092 0.0
C2053 C 0.75872 0.33344 0.12481 0.0
C2054 C 0.77444 0.36271 0.09325 0.0
C2055 C 0.76141 0.37055 0.10985 0.0
H2056 H 0.71613 0.35989 0.93002 0.0
H2057 H 0.71007 0.29656 0.89733 0.0
H2058 H 0.72965 0.27917 0.92913 0.0
H2059 H 0.75266 0.28321 0.96448 0.0
H2060 H 0.75919 0.34745 0.99557 0.0
H2061 H 0.73511 0.36317 0.96649 0.0
C2062 C 0.71888 0.34223 0.93 0.0
C2063 C 0.71197 0.32956 0.91131 0.0
C2064 C 0.73032 0.33252 0.94811 0.0
C2065 C 0.71529 0.30664 0.91157 0.0
C2066 C 0.72659 0.29674 0.9297 0.0
C2067 C 0.74824 0.30047 0.96512 0.0
C2068 C 0.75768 0.31419 0.9821 0.0
C2069 C 0.73474 0.30964 0.94785 0.0
C2070 C 0.75215 0.33661 0.98261 0.0
C2071 C 0.73846 0.34565 0.96594 0.0
H2072 H 0.7012 0.74625 0.8762 0.0
H2073 H 0.71606 0.68344 0.90639 0.0
H2074 H 0.7316 0.70232 0.93957 0.0
H2075 H 0.74248 0.73652 0.95938 0.0
H2076 H 0.72856 0.79956 0.92918 0.0
H2077 H 0.71075 0.78074 0.89689 0.0
C2078 C 0.70759 0.7367 0.89016 0.0
C2079 C 0.70758 0.71343 0.88871 0.0
C2080 C 0.71665 0.7477 0.90922 0.0
C2081 C 0.71616 0.70134 0.90689 0.0
C2082 C 0.72495 0.71213 0.92593 0.0
C2083 C 0.73535 0.74622 0.94587 0.0
C2084 C 0.73693 0.76949 0.94678 0.0
C2085 C 0.72552 0.73529 0.92719 0.0
C2086 C 0.72762 0.78167 0.929 0.0
C2087 C 0.71749 0.7709 0.91046 0.0
H2088 H 0.34958 0.70861 0.92278 0.0
H2089 H 0.35428 0.77369 0.89436 0.0
H2090 H 0.33777 0.78961 0.92644 0.0
H2091 H 0.32229 0.78525 0.96269 0.0
H2092 H 0.31736 0.72043 0.99151 0.0
H2093 H 0.33331 0.7042 0.9591 0.0
C2094 C 0.34679 0.72624 0.92355 0.0
C2095 C 0.35337 0.73994 0.90626 0.0
C2096 C 0.33726 0.73535 0.94214 0.0
C2097 C 0.34974 0.76279 0.90758 0.0
C2098 C 0.34021 0.77192 0.9259 0.0
C2099 C 0.32491 0.76761 0.96203 0.0
C2100 C 0.31873 0.75413 0.97963 0.0
C2101 C 0.33409 0.75841 0.94336 0.0
C2102 C 0.32182 0.7312 0.97817 0.0
C2103 C 0.33101 0.72191 0.95966 0.0
H2104 H 0.39127 0.3668 0.92026 0.0
H2105 H 0.32797 0.36687 0.88428 0.0
H2106 H 0.31222 0.34362 0.9128 0.0
H2107 H 0.31812 0.31882 0.94511 0.0
H2108 H 0.38275 0.31635 0.9783 0.0
H2109 H 0.39654 0.34441 0.95343 0.0
C2110 C 0.37391 0.36201 0.91884 0.0
C2111 C 0.36087 0.36832 0.90005 0.0
C2112 C 0.36542 0.34765 0.9345 0.0
C2113 C 0.33834 0.36233 0.89861 0.0
C2114 C 0.32944 0.34874 0.91475 0.0
C2115 C 0.33513 0.32468 0.947 0.0
C2116 C 0.3495 0.31532 0.96333 0.0
C2117 C 0.34307 0.34057 0.93229 0.0
C2118 C 0.37153 0.32296 0.96559 0.0
C2119 C 0.37936 0.33913 0.95149 0.0
H2120 H 0.64075 0.6935 0.20001 0.0
H2121 H 0.66998 0.7561 0.18205 0.0
H2122 H 0.63763 0.77527 0.1937 0.0
H2123 H 0.60102 0.77449 0.20925 0.0
H2124 H 0.57242 0.71232 0.22882 0.0
H2125 H 0.60466 0.69287 0.21677 0.0
C2126 C 0.64021 0.71136 0.19888 0.0
C2127 C 0.65783 0.72322 0.18992 0.0
C2128 C 0.62163 0.72242 0.20597 0.0
C2129 C 0.65656 0.74639 0.18839 0.0
C2130 C 0.63809 0.75744 0.19521 0.0
C2131 C 0.60179 0.75667 0.21071 0.0
C2132 C 0.58429 0.74487 0.21983 0.0
C2133 C 0.62048 0.74564 0.20393 0.0
C2134 C 0.58573 0.72181 0.222 0.0
C2135 C 0.60413 0.71068 0.21504 0.0
H2136 H 0.31124 0.63123 0.21252 0.0
H2137 H 0.37921 0.61138 0.21432 0.0
H2138 H 0.37012 0.57889 0.23593 0.0
H2139 H 0.34295 0.55591 0.25448 0.0
H2140 H 0.27488 0.57524 0.25261 0.0
H2141 H 0.28384 0.60784 0.23088 0.0
C2142 C 0.324 0.61968 0.2175 0.0
C2143 C 0.34592 0.62393 0.21195 0.0
C2144 C 0.31865 0.60089 0.23002 0.0
C2145 C 0.36227 0.60879 0.21865 0.0
C2146 C 0.35708 0.59012 0.23098 0.0
C2147 C 0.33013 0.56737 0.24954 0.0
C2148 C 0.30828 0.56308 0.25525 0.0
C2149 C 0.33538 0.58606 0.23692 0.0
C2150 C 0.2918 0.57798 0.24831 0.0
C2151 C 0.29692 0.59669 0.23591 0.0
H2152 H 0.40636 0.33809 0.23512 0.0
H2153 H 0.42989 0.34783 0.16975 0.0
H2154 H 0.46562 0.33343 0.1819 0.0
H2155 H 0.4893 0.31525 0.20988 0.0
H2156 H 0.46721 0.3057 0.2756 0.0
H2157 H 0.43219 0.32354 0.26478 0.0
C2158 C 0.41939 0.3374 0.22361 0.0
C2159 C 0.41504 0.34358 0.2013 0.0
C2160 C 0.44027 0.32924 0.23081 0.0
C2161 C 0.43232 0.34256 0.18676 0.0
C2162 C 0.45292 0.33449 0.19375 0.0
C2163 C 0.47699 0.31746 0.222 0.0
C2164 C 0.48083 0.30912 0.2435 0.0
C2165 C 0.45692 0.32735 0.21555 0.0
C2166 C 0.46477 0.31218 0.25902 0.0
C2167 C 0.44464 0.32215 0.25272 0.0
H2168 H 0.7118 0.4236 0.18403 0.0
H2169 H 0.7084 0.39089 0.2468 0.0
H2170 H 0.71928 0.42543 0.26617 0.0
H2171 H 0.73387 0.46413 0.26486 0.0
H2172 H 0.7378 0.49583 0.20155 0.0
H2173 H 0.72226 0.46283 0.18288 0.0
C2174 C 0.71328 0.42411 0.20196 0.0
C2175 C 0.70958 0.40469 0.21395 0.0
C2176 C 0.71959 0.44395 0.21291 0.0
C2177 C 0.71118 0.40564 0.2372 0.0
C2178 C 0.71747 0.42538 0.24827 0.0
C2179 C 0.73063 0.46397 0.24707 0.0
C2180 C 0.7369 0.48239 0.23458 0.0
C2181 C 0.7222 0.44457 0.23629 0.0
C2182 C 0.73305 0.48185 0.21149 0.0
C2183 C 0.72432 0.46293 0.20077 0.0
H2184 H 0.66096 0.3401 0.81783 0.0
H2185 H 0.63745 0.34131 0.88379 0.0
H2186 H 0.60036 0.33117 0.86929 0.0
H2187 H 0.57535 0.3192 0.83874 0.0
H2188 H 0.59812 0.31525 0.77268 0.0
H2189 H 0.63451 0.32999 0.78615 0.0
C2190 C 0.64763 0.33832 0.82894 0.0
C2191 C 0.65205 0.34111 0.85193 0.0
C2192 C 0.6262 0.33216 0.82045 0.0
C2193 C 0.63461 0.33879 0.86613 0.0
C2194 C 0.61335 0.33315 0.85783 0.0
C2195 C 0.58814 0.32183 0.82714 0.0
C2196 C 0.58403 0.316 0.80474 0.0
C2197 C 0.60907 0.32939 0.83514 0.0
C2198 C 0.60077 0.31973 0.78997 0.0
C2199 C 0.62166 0.32791 0.79775 0.0
H2200 H 0.68922 0.63471 0.81859 0.0
H2201 H 0.74858 0.67182 0.839 0.0
H2202 H 0.77104 0.64201 0.82633 0.0
H2203 H 0.77409 0.6048 0.81135 0.0
H2204 H 0.71561 0.56781 0.78885 0.0
H2205 H 0.69252 0.59856 0.79971 0.0
C2206 C 0.70705 0.63649 0.81996 0.0
C2207 C 0.71708 0.65545 0.83029 0.0
C2208 C 0.72004 0.61936 0.81214 0.0
C2209 C 0.74028 0.65724 0.83188 0.0
C2210 C 0.75321 0.64026 0.82441 0.0
C2211 C 0.75627 0.60354 0.80861 0.0
C2212 C 0.7465 0.58404 0.79954 0.0
C2213 C 0.74328 0.62115 0.81488 0.0
C2214 C 0.72348 0.58272 0.79576 0.0
C2215 C 0.71031 0.60022 0.80213 0.0
H2216 H 0.43438 0.7208 0.84924 0.0
H2217 H 0.39326 0.778 0.85103 0.0
H2218 H 0.42116 0.80007 0.83298 0.0
H2219 H 0.45608 0.80252 0.81436 0.0
H2220 H 0.49776 0.74562 0.81312 0.0
H2221 H 0.47109 0.72426 0.83351 0.0
C2222 C 0.43164 0.73813 0.84578 0.0
C2223 C 0.41173 0.74772 0.85139 0.0
C2224 C 0.44789 0.75083 0.83551 0.0
C2225 C 0.40849 0.77026 0.84701 0.0
C2226 C 0.42441 0.78288 0.83661 0.0
C2227 C 0.45952 0.78555 0.81882 0.0
C2228 C 0.47889 0.77572 0.81202 0.0
C2229 C 0.44404 0.77328 0.83049 0.0
C2230 C 0.48305 0.7537 0.81811 0.0
C2231 C 0.4677 0.74138 0.82967 0.0
H2232 H 0.36143 0.44153 0.861 0.0
H2233 H 0.37015 0.40174 0.80296 0.0
H2234 H 0.35944 0.43267 0.77925 0.0
H2235 H 0.34792 0.47117 0.77482 0.0
H2236 H 0.33935 0.51122 0.83268 0.0
H2237 H 0.34938 0.4801 0.85649 0.0
C2238 C 0.36074 0.43956 0.84316 0.0
C2239 C 0.36672 0.41931 0.83383 0.0
C2240 C 0.35464 0.45753 0.82953 0.0
C2241 C 0.36593 0.41718 0.81064 0.0
C2242 C 0.35975 0.43487 0.79703 0.0
C2243 C 0.34846 0.47321 0.79262 0.0
C2244 C 0.34291 0.49365 0.80185 0.0
C2245 C 0.35427 0.4552 0.80626 0.0
C2246 C 0.34333 0.4957 0.82504 0.0
C2247 C 0.34914 0.4779 0.83871 0.0
H2248 H 0.74823 0.67254 0.1931 0.0
H2249 H 0.6826 0.64787 0.20462 0.0
H2250 H 0.6981 0.61403 0.2203 0.0
H2251 H 0.73014 0.59038 0.22831 0.0
H2252 H 0.79537 0.61437 0.21462 0.0
H2253 H 0.78008 0.64926 0.2014 0.0
C2254 C 0.73723 0.65972 0.19886 0.0
C2255 C 0.71421 0.66273 0.19741 0.0
C2256 C 0.74618 0.64003 0.20713 0.0
C2257 C 0.70036 0.64615 0.20564 0.0
C2258 C 0.7092 0.62667 0.21441 0.0
C2259 C 0.74101 0.60333 0.22261 0.0
C2260 C 0.76387 0.59975 0.22236 0.0
C2261 C 0.73206 0.62328 0.21489 0.0
C2262 C 0.77771 0.61658 0.21466 0.0
C2263 C 0.76899 0.63658 0.20726 0.0
H2264 H 0.69297 0.40991 0.84804 0.0
H2265 H 0.75271 0.37358 0.86156 0.0
H2266 H 0.77489 0.40598 0.85256 0.0
H2267 H 0.77752 0.44498 0.84144 0.0
H2268 H 0.71817 0.4806 0.82525 0.0
H2269 H 0.69561 0.44816 0.83445 0.0
C2270 C 0.71082 0.40892 0.84866 0.0
C2271 C 0.72108 0.38933 0.8558 0.0
C2272 C 0.72357 0.42758 0.84313 0.0
C2273 C 0.7443 0.38854 0.85663 0.0
C2274 C 0.75705 0.40705 0.8514 0.0
C2275 C 0.75965 0.44559 0.84012 0.0
C2276 C 0.74943 0.46512 0.83302 0.0
C2277 C 0.74689 0.42674 0.84491 0.0
C2278 C 0.72629 0.46568 0.8308 0.0
C2279 C 0.71344 0.44717 0.83603 0.0
H2280 H 0.66102 0.70064 0.79334 0.0
H2281 H 0.63302 0.70711 0.85701 0.0
H2282 H 0.59828 0.71896 0.83911 0.0
H2283 H 0.57607 0.72826 0.80551 0.0
H2284 H 0.60375 0.72156 0.74182 0.0
H2285 H 0.63809 0.70825 0.75955 0.0
C2286 C 0.64724 0.70435 0.80331 0.0
C2287 C 0.64977 0.70316 0.82654 0.0
C2288 C 0.62718 0.71096 0.79289 0.0
C2289 C 0.63175 0.7083 0.83915 0.0
C2290 C 0.61179 0.71493 0.82892 0.0
C2291 C 0.58963 0.72392 0.79551 0.0
C2292 C 0.58735 0.72605 0.77238 0.0
C2293 C 0.60939 0.71651 0.80583 0.0
C2294 C 0.60494 0.71992 0.75962 0.0
C2295 C 0.62467 0.71247 0.76978 0.0
H2296 H 0.34486 0.66578 0.87137 0.0
H2297 H 0.36517 0.69868 0.81234 0.0
H2298 H 0.35111 0.66776 0.7899 0.0
H2299 H 0.3342 0.63107 0.78661 0.0
H2300 H 0.31094 0.59819 0.84406 0.0
H2301 H 0.32431 0.6297 0.86742 0.0
C2302 C 0.34602 0.66634 0.85359 0.0
C2303 C 0.35682 0.6845 0.84382 0.0
C2304 C 0.33721 0.64855 0.84042 0.0
C2305 C 0.35792 0.68473 0.82064 0.0
C2306 C 0.34958 0.66711 0.80764 0.0
C2307 C 0.33193 0.63082 0.80426 0.0
C2308 C 0.32183 0.61228 0.81367 0.0
C2309 C 0.33948 0.64887 0.81735 0.0
C2310 C 0.31864 0.61233 0.83646 0.0
C2311 C 0.32642 0.63028 0.84978 0.0
H2312 H 0.40911 0.35192 0.81616 0.0
H2313 H 0.43746 0.3621 0.88237 0.0
H2314 H 0.46642 0.33586 0.87557 0.0
H2315 H 0.48287 0.30878 0.85126 0.0
H2316 H 0.45526 0.29908 0.78483 0.0
H2317 H 0.42674 0.32612 0.79118 0.0
C2318 C 0.42192 0.3487 0.82888 0.0
C2319 C 0.42119 0.35886 0.84971 0.0
C2320 C 0.43838 0.33335 0.82495 0.0
C2321 C 0.4377 0.35437 0.86621 0.0
C2322 C 0.45417 0.33929 0.86239 0.0
C2323 C 0.47042 0.31248 0.83834 0.0
C2324 C 0.47087 0.30185 0.81775 0.0
C2325 C 0.45443 0.32836 0.84198 0.0
C2326 C 0.45505 0.30707 0.80085 0.0
C2327 C 0.43884 0.32256 0.80445 0.0
H2328 H 0.3317 0.40496 0.18327 0.0
H2329 H 0.35318 0.36827 0.24137 0.0
H2330 H 0.33164 0.3919 0.2642 0.0
H2331 H 0.3078 0.42343 0.26803 0.0
H2332 H 0.28469 0.45965 0.21043 0.0
H2333 H 0.30516 0.43509 0.18685 0.0
C2334 C 0.33143 0.40185 0.20087 0.0
C2335 C 0.34438 0.38491 0.21055 0.0
C2336 C 0.31859 0.41528 0.21395 0.0
C2337 C 0.34391 0.38145 0.23347 0.0
C2338 C 0.33141 0.39483 0.24655 0.0
C2339 C 0.3071 0.42592 0.25028 0.0
C2340 C 0.29492 0.44345 0.24098 0.0
C2341 C 0.3189 0.41189 0.237 0.0
C2342 C 0.29391 0.44623 0.21795 0.0
C2343 C 0.30574 0.43229 0.20453 0.0
H2344 H 0.64151 0.35959 0.20503 0.0
H2345 H 0.68438 0.30394 0.19988 0.0
H2346 H 0.65381 0.2786 0.20675 0.0
H2347 H 0.61492 0.27206 0.21462 0.0
H2348 H 0.57232 0.32746 0.22148 0.0
H2349 H 0.6027 0.35305 0.21376 0.0
C2350 C 0.64423 0.34194 0.20565 0.0
C2351 C 0.66523 0.33375 0.20174 0.0
C2352 C 0.62657 0.32737 0.20985 0.0
C2353 C 0.66833 0.31075 0.20242 0.0
C2354 C 0.65087 0.2962 0.20644 0.0
C2355 C 0.61226 0.28972 0.21414 0.0
C2356 C 0.59139 0.29788 0.21844 0.0
C2357 C 0.62989 0.3043 0.21007 0.0
C2358 C 0.58827 0.32083 0.21826 0.0
C2359 C 0.60563 0.33544 0.21385 0.0
H2360 H 0.39716 0.68383 0.23742 0.0
H2361 H 0.40971 0.69128 0.16827 0.0
H2362 H 0.44386 0.71149 0.17812 0.0
H2363 H 0.46975 0.72807 0.20599 0.0
H2364 H 0.45901 0.71964 0.27525 0.0
H2365 H 0.42498 0.69823 0.26572 0.0
C2366 C 0.40746 0.68962 0.22449 0.0
C2367 C 0.40042 0.68635 0.20206 0.0
C2368 C 0.42754 0.70096 0.23028 0.0
C2369 C 0.41415 0.6941 0.18563 0.0
C2370 C 0.43389 0.7055 0.19124 0.0
C2371 C 0.46007 0.72143 0.21905 0.0
C2372 C 0.46685 0.72557 0.2413 0.0
C2373 C 0.44062 0.70923 0.21346 0.0
C2374 C 0.45421 0.71663 0.25799 0.0
C2375 C 0.43468 0.70451 0.25253 0.0
loop_
_geom_bond_atom_site_label_1
_geom_bond_atom_site_label_2
_geom_bond_distance
_geom_bond_site_symmetry_2
_ccdc_geom_bond_type
H0 C3 0.931 . S
H1 C6 0.928 . S
H2 C8 0.930 . S
C3 H0 0.931 . S
C3 C4 1.413 . S
C3 C5 1.360 . S
C4 C3 1.413 . S
C4 C8 1.429 . S
C5 C3 1.360 . S
C5 C6 1.372 . S
C6 H1 0.928 . S
C6 C5 1.372 . S
C6 C7 1.404 . S
C7 C6 1.404 . S
C7 C8 1.391 . S
C8 H2 0.930 . S
C8 C4 1.429 . S
C8 C7 1.391 . S
H9 C12 0.931 . S
H10 C15 0.928 . S
H11 C17 0.930 . S
C12 H9 0.931 . S
C12 C13 1.413 . S
C12 C14 1.360 . S
C13 C12 1.413 . S
C13 C17 1.429 . S
C14 C12 1.360 . S
C14 C15 1.372 . S
C15 H10 0.928 . S
C15 C14 1.372 . S
C15 C16 1.404 . S
C16 C15 1.404 . S
C16 C17 1.391 . S
C17 H11 0.930 . S
C17 C13 1.429 . S
C17 C16 1.391 . S
H18 C21 0.931 . S
H19 C24 0.928 . S
H20 C26 0.930 . S
C21 H18 0.931 . S
C21 C22 1.413 . S
C21 C23 1.360 . S
C22 C21 1.413 . S
C22 C26 1.429 . S
C23 C21 1.360 . S
C23 C24 1.372 . S
C24 H19 0.928 . S
C24 C23 1.372 . S
C24 C25 1.404 . S
C25 C24 1.404 . S
C25 C26 1.391 . S
C26 H20 0.930 . S
C26 C22 1.429 . S
C26 C25 1.391 . S
H27 C30 0.931 . S
H28 C33 0.928 . S
H29 C35 0.930 . S
C30 H27 0.931 . S
C30 C31 1.413 . S
C30 C32 1.360 . S
C31 C30 1.413 . S
C31 C35 1.429 . S
C32 C30 1.360 . S
C32 C33 1.372 . S
C33 H28 0.928 . S
C33 C32 1.372 . S
C33 C34 1.404 . S
C34 C33 1.404 . S
C34 C35 1.391 . S
C35 H29 0.930 . S
C35 C31 1.429 . S
C35 C34 1.391 . S
H36 C39 0.931 . S
H37 C42 0.928 . S
H38 C44 0.930 . S
C39 H36 0.931 . S
C39 C40 1.413 . S
C39 C41 1.360 . S
C40 C39 1.413 . S
C40 C44 1.429 . S
C41 C39 1.360 . S
C41 C42 1.372 . S
C42 H37 0.928 . S
C42 C41 1.372 . S
C42 C43 1.404 . S
C43 C42 1.404 . S
C43 C44 1.391 . S
C44 H38 0.930 . S
C44 C40 1.429 . S
C44 C43 1.391 . S
H45 C48 0.931 . S
H46 C51 0.928 . S
H47 C53 0.930 . S
C48 H45 0.931 . S
C48 C49 1.413 . S
C48 C50 1.360 . S
C49 C48 1.413 . S
C49 C53 1.429 . S
C50 C48 1.360 . S
C50 C51 1.372 . S
C51 H46 0.928 . S
C51 C50 1.372 . S
C51 C52 1.404 . S
C52 C51 1.404 . S
C52 C53 1.391 . S
C53 H47 0.930 . S
C53 C49 1.429 . S
C53 C52 1.391 . S
H54 C57 0.931 . S
H55 C60 0.928 . S
H56 C62 0.930 . S
C57 H54 0.931 . S
C57 C58 1.413 . S
C57 C59 1.360 . S
C58 C57 1.413 . S
C58 C62 1.429 . S
C59 C57 1.360 . S
C59 C60 1.372 . S
C60 H55 0.928 . S
C60 C59 1.372 . S
C60 C61 1.404 . S
C61 C60 1.404 . S
C61 C62 1.391 . S
C62 H56 0.930 . S
C62 C58 1.429 . S
C62 C61 1.391 . S
H63 C66 0.931 . S
H64 C69 0.928 . S
H65 C71 0.930 . S
C66 H63 0.931 . S
C66 C67 1.413 . S
C66 C68 1.360 . S
C67 C66 1.413 . S
C67 C71 1.429 . S
C68 C66 1.360 . S
C68 C69 1.372 . S
C69 H64 0.928 . S
C69 C68 1.372 . S
C69 C70 1.404 . S
C70 C69 1.404 . S
C70 C71 1.391 . S
C71 H65 0.930 . S
C71 C67 1.429 . S
C71 C70 1.391 . S
H72 C75 0.931 . S
H73 C78 0.928 . S
H74 C80 0.930 . S
C75 H72 0.931 . S
C75 C76 1.413 . S
C75 C77 1.360 . S
C76 C75 1.413 . S
C76 C80 1.429 . S
C77 C75 1.360 . S
C77 C78 1.372 . S
C78 H73 0.928 . S
C78 C77 1.372 . S
C78 C79 1.404 . S
C79 C78 1.404 . S
C79 C80 1.391 . S
C80 H74 0.930 . S
C80 C76 1.429 . S
C80 C79 1.391 . S
H81 C84 0.931 . S
H82 C87 0.928 . S
H83 C89 0.930 . S
C84 H81 0.931 . S
C84 C85 1.413 . S
C84 C86 1.360 . S
C85 C84 1.413 . S
C85 C89 1.429 . S
C86 C84 1.360 . S
C86 C87 1.372 . S
C87 H82 0.928 . S
C87 C86 1.372 . S
C87 C88 1.404 . S
C88 C87 1.404 . S
C88 C89 1.391 . S
C89 H83 0.930 . S
C89 C85 1.429 . S
C89 C88 1.391 . S
H90 C93 0.931 . S
H91 C96 0.928 . S
H92 C98 0.930 . S
C93 H90 0.931 . S
C93 C94 1.413 . S
C93 C95 1.360 . S
C94 C93 1.413 . S
C94 C98 1.429 . S
C95 C93 1.360 . S
C95 C96 1.372 . S
C96 H91 0.928 . S
C96 C95 1.372 . S
C96 C97 1.404 . S
C97 C96 1.404 . S
C97 C98 1.391 . S
C98 H92 0.930 . S
C98 C94 1.429 . S
C98 C97 1.391 . S
H99 C102 0.931 . S
H100 C105 0.928 . S
H101 C107 0.930 . S
C102 H99 0.931 . S
C102 C103 1.413 . S
C102 C104 1.360 . S
C103 C102 1.413 . S
C103 C107 1.429 . S
C104 C102 1.360 . S
C104 C105 1.372 . S
C105 H100 0.928 . S
C105 C104 1.372 . S
C105 C106 1.404 . S
C106 C105 1.404 . S
C106 C107 1.391 . S
C107 H101 0.930 . S
C107 C103 1.429 . S
C107 C106 1.391 . S
H108 C111 0.931 . S
H109 C114 0.928 . S
H110 C116 0.930 . S
C111 H108 0.931 . S
C111 C112 1.413 . S
C111 C113 1.360 . S
C112 C111 1.413 . S
C112 C116 1.429 . S
C113 C111 1.360 . S
C113 C114 1.372 . S
C114 H109 0.928 . S
C114 C113 1.372 . S
C114 C115 1.404 . S
C115 C114 1.404 . S
C115 C116 1.391 . S
C116 H110 0.930 . S
C116 C112 1.429 . S
C116 C115 1.391 . S
H117 C120 0.931 . S
H118 C123 0.928 . S
H119 C125 0.930 . S
C120 H117 0.931 . S
C120 C121 1.413 . S
C120 C122 1.360 . S
C121 C120 1.413 . S
C121 C125 1.429 . S
C122 C120 1.360 . S
C122 C123 1.372 . S
C123 H118 0.928 . S
C123 C122 1.372 . S
C123 C124 1.404 . S
C124 C123 1.404 . S
C124 C125 1.391 . S
C125 H119 0.930 . S
C125 C121 1.429 . S
C125 C124 1.391 . S
H126 C129 0.931 . S
H127 C132 0.928 . S
H128 C134 0.930 . S
C129 H126 0.931 . S
C129 C130 1.413 . S
C129 C131 1.360 . S
C130 C129 1.413 . S
C130 C134 1.429 . S
C131 C129 1.360 . S
C131 C132 1.372 . S
C132 H127 0.928 . S
C132 C131 1.372 . S
C132 C133 1.404 . S
C133 C132 1.404 . S
C133 C134 1.391 . S
C134 H128 0.930 . S
C134 C130 1.429 . S
C134 C133 1.391 . S
H135 C138 0.931 . S
H136 C141 0.928 . S
H137 C143 0.930 . S
C138 H135 0.931 . S
C138 C139 1.413 . S
C138 C140 1.360 . S
C139 C138 1.413 . S
C139 C143 1.429 . S
C140 C138 1.360 . S
C140 C141 1.372 . S
C141 H136 0.928 . S
C141 C140 1.372 . S
C141 C142 1.404 . S
C142 C141 1.404 . S
C142 C143 1.391 . S
C143 H137 0.930 . S
C143 C139 1.429 . S
C143 C142 1.391 . S
H144 C147 0.931 . S
H145 C150 0.928 . S
H146 C152 0.930 . S
C147 H144 0.931 . S
C147 C148 1.413 . S
C147 C149 1.360 . S
C148 C147 1.413 . S
C148 C152 1.429 . S
C149 C147 1.360 . S
C149 C150 1.372 . S
C150 H145 0.928 . S
C150 C149 1.372 . S
C150 C151 1.404 . S
C151 C150 1.404 . S
C151 C152 1.391 . S
C152 H146 0.930 . S
C152 C148 1.429 . S
C152 C151 1.391 . S
H153 C156 0.931 . S
H154 C159 0.928 . S
H155 C161 0.930 . S
C156 H153 0.931 . S
C156 C157 1.413 . S
C156 C158 1.360 . S
C157 C156 1.413 . S
C157 C161 1.429 . S
C158 C156 1.360 . S
C158 C159 1.372 . S
C159 H154 0.928 . S
C159 C158 1.372 . S
C159 C160 1.404 . S
C160 C159 1.404 . S
C160 C161 1.391 . S
C161 H155 0.930 . S
C161 C157 1.429 . S
C161 C160 1.391 . S
H162 C165 0.931 . S
H163 C168 0.928 . S
H164 C170 0.930 . S
C165 H162 0.931 . S
C165 C166 1.413 . S
C165 C167 1.360 . S
C166 C165 1.413 . S
C166 C170 1.429 . S
C167 C165 1.360 . S
C167 C168 1.372 . S
C168 H163 0.928 . S
C168 C167 1.372 . S
C168 C169 1.404 . S
C169 C168 1.404 . S
C169 C170 1.391 . S
C170 H164 0.930 . S
C170 C166 1.429 . S
C170 C169 1.391 . S
H171 C174 0.931 . S
H172 C177 0.928 . S
H173 C179 0.930 . S
C174 H171 0.931 . S
C174 C175 1.413 . S
C174 C176 1.360 . S
C175 C174 1.413 . S
C175 C179 1.429 . S
C176 C174 1.360 . S
C176 C177 1.372 . S
C177 H172 0.928 . S
C177 C176 1.372 . S
C177 C178 1.404 . S
C178 C177 1.404 . S
C178 C179 1.391 . S
C179 H173 0.930 . S
C179 C175 1.429 . S
C179 C178 1.391 . S
H180 C183 0.931 . S
H181 C186 0.928 . S
H182 C188 0.930 . S
C183 H180 0.931 . S
C183 C184 1.413 . S
C183 C185 1.360 . S
C184 C183 1.413 . S
C184 C188 1.429 . S
C185 C183 1.360 . S
C185 C186 1.372 . S
C186 H181 0.928 . S
C186 C185 1.372 . S
C186 C187 1.404 . S
C187 C186 1.404 . S
C187 C188 1.391 . S
C188 H182 0.930 . S
C188 C184 1.429 . S
C188 C187 1.391 . S
H189 C192 0.931 . S
H190 C195 0.928 . S
H191 C197 0.930 . S
C192 H189 0.931 . S
C192 C193 1.413 . S
C192 C194 1.360 . S
C193 C192 1.413 . S
C193 C197 1.429 . S
C194 C192 1.360 . S
C194 C195 1.372 . S
C195 H190 0.928 . S
C195 C194 1.372 . S
C195 C196 1.404 . S
C196 C195 1.404 . S
C196 C197 1.391 . S
C197 H191 0.930 . S
C197 C193 1.429 . S
C197 C196 1.391 . S
H198 C201 0.931 . S
H199 C204 0.928 . S
H200 C206 0.930 . S
C201 H198 0.931 . S
C201 C202 1.413 . S
C201 C203 1.360 . S
C202 C201 1.413 . S
C202 C206 1.429 . S
C203 C201 1.360 . S
C203 C204 1.372 . S
C204 H199 0.928 . S
C204 C203 1.372 . S
C204 C205 1.404 . S
C205 C204 1.404 . S
C205 C206 1.391 . S
C206 H200 0.930 . S
C206 C202 1.429 . S
C206 C205 1.391 . S
H207 C210 0.931 . S
H208 C213 0.928 . S
H209 C215 0.930 . S
C210 H207 0.931 . S
C210 C211 1.413 . S
C210 C212 1.360 . S
C211 C210 1.413 . S
C211 C215 1.429 . S
C212 C210 1.360 . S
C212 C213 1.372 . S
C213 H208 0.928 . S
C213 C212 1.372 . S
C213 C214 1.404 . S
C214 C213 1.404 . S
C214 C215 1.391 . S
C215 H209 0.930 . S
C215 C211 1.429 . S
C215 C214 1.391 . S
H216 C219 0.931 . S
H217 C222 0.928 . S
H218 C224 0.930 . S
C219 H216 0.931 . S
C219 C220 1.413 . S
C219 C221 1.360 . S
C220 C219 1.413 . S
C220 C224 1.429 . S
C221 C219 1.360 . S
C221 C222 1.372 . S
C222 H217 0.928 . S
C222 C221 1.372 . S
C222 C223 1.404 . S
C223 C222 1.404 . S
C223 C224 1.391 . S
C224 H218 0.930 . S
C224 C220 1.429 . S
C224 C223 1.391 . S
H225 C228 0.931 . S
H226 C231 0.928 . S
H227 C233 0.930 . S
C228 H225 0.931 . S
C228 C229 1.413 . S
C228 C230 1.360 . S
C229 C228 1.413 . S
C229 C233 1.429 . S
C230 C228 1.360 . S
C230 C231 1.372 . S
C231 H226 0.928 . S
C231 C230 1.372 . S
C231 C232 1.404 . S
C232 C231 1.404 . S
C232 C233 1.391 . S
C233 H227 0.930 . S
C233 C229 1.429 . S
C233 C232 1.391 . S
H234 C237 0.931 . S
H235 C240 0.928 . S
H236 C242 0.930 . S
C237 H234 0.931 . S
C237 C238 1.413 . S
C237 C239 1.360 . S
C238 C237 1.413 . S
C238 C242 1.429 . S
C239 C237 1.360 . S
C239 C240 1.372 . S
C240 H235 0.928 . S
C240 C239 1.372 . S
C240 C241 1.404 . S
C241 C240 1.404 . S
C241 C242 1.391 . S
C242 H236 0.930 . S
C242 C238 1.429 . S
C242 C241 1.391 . S
H243 C246 0.931 . S
H244 C249 0.928 . S
H245 C251 0.930 . S
C246 H243 0.931 . S
C246 C247 1.413 . S
C246 C248 1.360 . S
C247 C246 1.413 . S
C247 C251 1.429 . S
C248 C246 1.360 . S
C248 C249 1.372 . S
C249 H244 0.928 . S
C249 C248 1.372 . S
C249 C250 1.404 . S
C250 C249 1.404 . S
C250 C251 1.391 . S
C251 H245 0.930 . S
C251 C247 1.429 . S
C251 C250 1.391 . S
H252 C255 0.931 . S
H253 C258 0.928 . S
H254 C260 0.930 . S
C255 H252 0.931 . S
C255 C256 1.413 . S
C255 C257 1.360 . S
C256 C255 1.413 . S
C256 C260 1.429 . S
C257 C255 1.360 . S
C257 C258 1.372 . S
C258 H253 0.928 . S
C258 C257 1.372 . S
C258 C259 1.404 . S
C259 C258 1.404 . S
C259 C260 1.391 . S
C260 H254 0.930 . S
C260 C256 1.429 . S
C260 C259 1.391 . S
H261 C264 0.931 . S
H262 C267 0.928 . S
H263 C269 0.930 . S
C264 H261 0.931 . S
C264 C265 1.413 . S
C264 C266 1.360 . S
C265 C264 1.413 . S
C265 C269 1.429 . S
C266 C264 1.360 . S
C266 C267 1.372 . S
C267 H262 0.928 . S
C267 C266 1.372 . S
C267 C268 1.404 . S
C268 C267 1.404 . S
C268 C269 1.391 . S
C269 H263 0.930 . S
C269 C265 1.429 . S
C269 C268 1.391 . S
H270 C273 0.931 . S
H271 C276 0.928 . S
H272 C278 0.930 . S
C273 H270 0.931 . S
C273 C274 1.413 . S
C273 C275 1.360 . S
C274 C273 1.413 . S
C274 C278 1.429 . S
C275 C273 1.360 . S
C275 C276 1.372 . S
C276 H271 0.928 . S
C276 C275 1.372 . S
C276 C277 1.404 . S
C277 C276 1.404 . S
C277 C278 1.391 . S
C278 H272 0.930 . S
C278 C274 1.429 . S
C278 C277 1.391 . S
H279 C282 0.931 . S
H280 C285 0.928 . S
H281 C287 0.930 . S
C282 H279 0.931 . S
C282 C283 1.413 . S
C282 C284 1.360 . S
C283 C282 1.413 . S
C283 C287 1.429 . S
C284 C282 1.360 . S
C284 C285 1.372 . S
C285 H280 0.928 . S
C285 C284 1.372 . S
C285 C286 1.404 . S
C286 C285 1.404 . S
C286 C287 1.391 . S
C287 H281 0.930 . S
C287 C283 1.429 . S
C287 C286 1.391 . S
Cu288 N289 1.999 . S
Cu288 O294 1.974 1_554 S
Cu288 N299 1.985 . S
Cu288 O308 1.959 . S
N289 Cu288 1.999 . S
N289 C291 1.263 1_554 S
N289 C293 1.389 . S
N290 C291 1.358 . S
N290 C292 1.400 . S
C291 N289 1.263 1_556 S
C291 N290 1.358 . S
C291 H297 0.930 . S
C292 N290 1.400 . S
C292 C293 1.351 1_556 S
C292 H309 0.930 . S
C293 N289 1.389 . S
C293 C292 1.351 1_554 S
C293 H298 0.930 . S
O294 Cu288 1.974 1_556 S
O294 C304 1.282 . S
C295 O296 1.261 . S
C295 O308 1.251 . S
O296 C295 1.261 . S
H297 C291 0.930 . S
H298 C293 0.930 . S
N299 Cu288 1.985 . S
N299 C301 1.335 . S
N299 C302 1.390 . S
N300 C301 1.345 . S
N300 C303 1.336 . S
C301 N299 1.335 . S
C301 N300 1.345 . S
C301 H306 0.930 . S
C302 N299 1.390 . S
C302 C303 1.346 . S
C302 H307 0.930 . S
C303 N300 1.336 . S
C303 C302 1.346 . S
C303 H310 0.929 . S
C304 O294 1.282 . S
C304 O305 1.216 . S
O305 C304 1.216 . S
H306 C301 0.930 . S
H307 C302 0.930 . S
O308 Cu288 1.959 . S
O308 C295 1.251 . S
H309 C292 0.930 . S
H310 C303 0.929 . S
Cu311 N312 1.999 . S
Cu311 O317 1.974 . S
Cu311 N322 1.985 1_554 S
Cu311 O331 1.959 1_554 S
N312 Cu311 1.999 . S
N312 C314 1.263 . S
N312 C316 1.389 . S
N313 C314 1.358 . S
N313 C315 1.400 . S
C314 N312 1.263 . S
C314 N313 1.358 . S
C314 H320 0.930 . S
C315 N313 1.400 . S
C315 C316 1.351 . S
C315 H332 0.930 . S
C316 N312 1.389 . S
C316 C315 1.351 . S
C316 H321 0.930 . S
O317 Cu311 1.974 . S
O317 C327 1.282 . S
C318 O319 1.261 . S
C318 O331 1.251 . S
O319 C318 1.261 . S
H320 C314 0.930 . S
H321 C316 0.930 . S
N322 Cu311 1.985 1_556 S
N322 C324 1.335 . S
N322 C325 1.390 . S
N323 C324 1.345 . S
N323 C326 1.336 . S
C324 N322 1.335 . S
C324 N323 1.345 . S
C324 H329 0.930 . S
C325 N322 1.390 . S
C325 C326 1.346 . S
C325 H330 0.930 1_556 S
C326 N323 1.336 . S
C326 C325 1.346 . S
C326 H333 0.929 . S
C327 O317 1.282 . S
C327 O328 1.216 . S
O328 C327 1.216 . S
H329 C324 0.930 . S
H330 C325 0.930 1_554 S
O331 Cu311 1.959 1_556 S
O331 C318 1.251 . S
H332 C315 0.930 . S
H333 C326 0.929 . S
Cu334 N335 1.999 1_554 S
Cu334 O340 1.974 1_554 S
Cu334 N345 1.985 . S
Cu334 O354 1.959 . S
N335 Cu334 1.999 1_556 S
N335 C337 1.263 . S
N335 C339 1.389 . S
N336 C337 1.358 . S
N336 C338 1.400 . S
C337 N335 1.263 . S
C337 N336 1.358 . S
C337 H343 0.930 . S
C338 N336 1.400 . S
C338 C339 1.351 . S
C338 H355 0.930 . S
C339 N335 1.389 . S
C339 C338 1.351 . S
C339 H344 0.931 . S
O340 Cu334 1.974 1_556 S
O340 C350 1.282 . S
C341 O342 1.261 . S
C341 O354 1.251 . S
O342 C341 1.261 . S
H343 C337 0.930 . S
H344 C339 0.931 . S
N345 Cu334 1.985 . S
N345 C347 1.335 . S
N345 C348 1.390 . S
N346 C347 1.345 . S
N346 C349 1.336 . S
C347 N345 1.335 . S
C347 N346 1.345 . S
C347 H352 0.930 . S
C348 N345 1.390 . S
C348 C349 1.346 . S
C348 H353 0.927 1_554 S
C349 N346 1.336 . S
C349 C348 1.346 . S
C349 H356 0.929 . S
C350 O340 1.282 . S
C350 O351 1.216 . S
O351 C350 1.216 . S
H352 C347 0.930 . S
H353 C348 0.927 1_556 S
O354 Cu334 1.959 . S
O354 C341 1.251 . S
H355 C338 0.930 . S
H356 C349 0.929 . S
Cu357 N358 2.000 . S
Cu357 O363 1.974 . S
Cu357 N368 1.984 1_554 S
Cu357 O377 1.958 1_554 S
N358 Cu357 2.000 . S
N358 C360 1.263 . S
N358 C362 1.389 . S
N359 C360 1.358 . S
N359 C361 1.400 . S
C360 N358 1.263 . S
C360 N359 1.358 . S
C360 H366 0.930 . S
C361 N359 1.400 . S
C361 C362 1.351 . S
C361 H378 0.930 . S
C362 N358 1.389 . S
C362 C361 1.351 . S
C362 H367 0.930 . S
O363 Cu357 1.974 . S
O363 C373 1.282 . S
C364 O365 1.261 . S
C364 O377 1.251 . S
O365 C364 1.261 . S
H366 C360 0.930 . S
H367 C362 0.930 . S
N368 Cu357 1.984 1_556 S
N368 C370 1.335 . S
N368 C371 1.390 . S
N369 C370 1.345 . S
N369 C372 1.336 . S
C370 N368 1.335 . S
C370 N369 1.345 . S
C370 H375 0.930 . S
C371 N368 1.390 . S
C371 C372 1.346 . S
C371 H376 0.930 1_556 S
C372 N369 1.336 . S
C372 C371 1.346 . S
C372 H379 0.929 . S
C373 O363 1.282 . S
C373 O374 1.216 . S
O374 C373 1.216 . S
H375 C370 0.930 . S
H376 C371 0.930 1_554 S
O377 Cu357 1.958 1_556 S
O377 C364 1.251 . S
H378 C361 0.930 . S
H379 C372 0.929 . S
Cu380 N381 1.999 . S
Cu380 O386 1.974 . S
Cu380 N391 1.985 1_455 S
Cu380 O400 1.959 1_455 S
N381 Cu380 1.999 . S
N381 C383 1.263 . S
N381 C385 1.389 . S
N382 C383 1.358 . S
N382 C384 1.400 . S
C383 N381 1.263 . S
C383 N382 1.358 . S
C383 H389 0.930 . S
C384 N382 1.400 . S
C384 C385 1.351 . S
C384 H401 0.930 . S
C385 N381 1.389 . S
C385 C384 1.351 . S
C385 H390 0.930 . S
O386 Cu380 1.974 . S
O386 C396 1.282 . S
C387 O388 1.261 . S
C387 O400 1.251 . S
O388 C387 1.261 . S
H389 C383 0.930 . S
H390 C385 0.930 . S
N391 Cu380 1.985 1_655 S
N391 C393 1.335 . S
N391 C394 1.384 1_655 S
N392 C393 1.345 . S
N392 C395 1.336 . S
C393 N391 1.335 . S
C393 N392 1.345 . S
C393 H398 0.930 . S
C394 N391 1.384 1_455 S
C394 C395 1.313 1_455 S
C394 H399 0.965 . S
C395 N392 1.336 . S
C395 C394 1.313 1_655 S
C395 H402 0.929 . S
C396 O386 1.282 . S
C396 O397 1.216 . S
O397 C396 1.216 . S
H398 C393 0.930 . S
H399 C394 0.965 . S
O400 Cu380 1.959 1_655 S
O400 C387 1.251 . S
H401 C384 0.930 . S
H402 C395 0.929 . S
Cu403 N404 1.999 . S
Cu403 O409 1.974 . S
Cu403 N414 1.985 1_545 S
Cu403 O423 1.959 1_545 S
N404 Cu403 1.999 . S
N404 C406 1.263 . S
N404 C408 1.389 . S
N405 C406 1.358 . S
N405 C407 1.400 . S
C406 N404 1.263 . S
C406 N405 1.358 . S
C406 H412 0.930 . S
C407 N405 1.400 . S
C407 C408 1.351 . S
C407 H424 0.930 . S
C408 N404 1.389 . S
C408 C407 1.351 . S
C408 H413 0.930 . S
O409 Cu403 1.974 . S
O409 C419 1.282 . S
C410 O411 1.261 . S
C410 O423 1.251 . S
O411 C410 1.261 . S
H412 C406 0.930 . S
H413 C408 0.930 . S
N414 Cu403 1.985 1_565 S
N414 C416 1.335 . S
N414 C417 1.390 . S
N415 C416 1.345 . S
N415 C418 1.336 . S
C416 N414 1.335 . S
C416 N415 1.345 . S
C416 H421 0.930 . S
C417 N414 1.390 . S
C417 C418 1.346 . S
C417 H422 0.930 1_565 S
C418 N415 1.336 . S
C418 C417 1.346 . S
C418 H425 0.929 . S
C419 O409 1.282 . S
C419 O420 1.216 . S
O420 C419 1.216 . S
H421 C416 0.930 . S
H422 C417 0.930 1_545 S
O423 Cu403 1.959 1_565 S
O423 C410 1.251 . S
H424 C407 0.930 . S
H425 C418 0.929 . S
Cu426 N427 2.008 . S
Cu426 O432 1.984 . S
Cu426 N437 1.977 1_655 S
Cu426 O446 1.949 1_655 S
N427 Cu426 2.008 . S
N427 C429 1.263 . S
N427 C431 1.389 . S
N428 C429 1.358 . S
N428 C430 1.400 . S
C429 N427 1.263 . S
C429 N428 1.358 . S
C429 H435 0.930 . S
C430 N428 1.400 . S
C430 C431 1.351 . S
C430 H447 0.930 . S
C431 N427 1.389 . S
C431 C430 1.351 . S
C431 H436 0.930 . S
O432 Cu426 1.984 . S
O432 C442 1.282 . S
C433 O434 1.261 . S
C433 O446 1.251 . S
O434 C433 1.261 . S
H435 C429 0.930 . S
H436 C431 0.930 . S
N437 Cu426 1.977 1_455 S
N437 C439 1.335 . S
N437 C440 1.390 . S
N438 C439 1.345 . S
N438 C441 1.336 . S
C439 N437 1.335 . S
C439 N438 1.345 . S
C439 H444 0.930 . S
C440 N437 1.390 . S
C440 C441 1.346 . S
C440 H445 0.930 . S
C441 N438 1.336 . S
C441 C440 1.346 . S
C441 H448 0.929 . S
C442 O432 1.282 . S
C442 O443 1.216 . S
O443 C442 1.216 . S
H444 C439 0.930 . S
H445 C440 0.930 . S
O446 Cu426 1.949 1_455 S
O446 C433 1.251 . S
H447 C430 0.930 . S
H448 C441 0.929 . S
Cu449 N450 1.983 1_565 S
Cu449 O455 1.952 1_565 S
Cu449 N460 2.001 . S
Cu449 O469 1.980 . S
N450 Cu449 1.983 1_545 S
N450 C452 1.263 . S
N450 C454 1.389 . S
N451 C452 1.358 . S
N451 C453 1.400 . S
C452 N450 1.263 . S
C452 N451 1.358 . S
C452 H458 0.930 . S
C453 N451 1.400 . S
C453 C454 1.351 . S
C453 H470 0.930 . S
C454 N450 1.389 . S
C454 C453 1.351 . S
C454 H459 0.930 . S
O455 Cu449 1.952 1_545 S
O455 C465 1.282 . S
C456 O457 1.261 . S
C456 O469 1.251 . S
O457 C456 1.261 . S
H458 C452 0.930 . S
H459 C454 0.930 . S
N460 Cu449 2.001 . S
N460 C462 1.335 . S
N460 C463 1.390 . S
N461 C462 1.345 . S
N461 C464 1.336 . S
C462 N460 1.335 . S
C462 N461 1.345 . S
C462 H467 0.930 . S
C463 N460 1.390 . S
C463 C464 1.346 . S
C463 H468 0.930 . S
C464 N461 1.336 . S
C464 C463 1.346 . S
C464 H471 0.929 . S
C465 O455 1.282 . S
C465 O466 1.216 . S
O466 C465 1.216 . S
H467 C462 0.930 . S
H468 C463 0.930 . S
O469 Cu449 1.980 . S
O469 C456 1.251 . S
H470 C453 0.930 . S
H471 C464 0.929 . S
Cu472 N473 1.999 . S
Cu472 O478 1.974 . S
Cu472 N483 1.985 1_455 S
Cu472 O492 1.959 1_455 S
N473 Cu472 1.999 . S
N473 C475 1.263 . S
N473 C477 1.389 . S
N474 C475 1.358 . S
N474 C476 1.400 . S
C475 N473 1.263 . S
C475 N474 1.358 . S
C475 H481 0.930 . S
C476 N474 1.400 . S
C476 C477 1.351 . S
C476 H493 0.930 . S
C477 N473 1.389 . S
C477 C476 1.351 . S
C477 H482 0.930 . S
O478 Cu472 1.974 . S
O478 C488 1.282 . S
C479 O480 1.261 . S
C479 O492 1.251 . S
O480 C479 1.261 . S
H481 C475 0.930 . S
H482 C477 0.930 . S
N483 Cu472 1.985 1_655 S
N483 C485 1.335 . S
N483 C486 1.393 . S
N484 C485 1.345 . S
N484 C487 1.336 . S
C485 N483 1.335 . S
C485 N484 1.345 . S
C485 H490 0.930 . S
C486 N483 1.393 . S
C486 C487 1.360 . S
C486 H491 0.916 1_655 S
C487 N484 1.336 . S
C487 C486 1.360 . S
C487 H494 0.929 . S
C488 O478 1.282 . S
C488 O489 1.216 . S
O489 C488 1.216 . S
H490 C485 0.930 . S
H491 C486 0.916 1_455 S
O492 Cu472 1.959 1_655 S
O492 C479 1.251 . S
H493 C476 0.930 . S
H494 C487 0.929 . S
Cu495 N496 1.999 . S
Cu495 O501 1.974 . S
Cu495 N506 1.985 1_545 S
Cu495 O515 1.959 1_545 S
N496 Cu495 1.999 . S
N496 C498 1.263 . S
N496 C500 1.389 . S
N497 C498 1.358 . S
N497 C499 1.400 . S
C498 N496 1.263 . S
C498 N497 1.358 . S
C498 H504 0.930 . S
C499 N497 1.400 . S
C499 C500 1.351 . S
C499 H516 0.930 . S
C500 N496 1.389 . S
C500 C499 1.351 . S
C500 H505 0.930 . S
O501 Cu495 1.974 . S
O501 C511 1.282 . S
C502 O503 1.261 . S
C502 O515 1.251 . S
O503 C502 1.261 . S
H504 C498 0.930 . S
H505 C500 0.930 . S
N506 Cu495 1.985 1_565 S
N506 C508 1.335 . S
N506 C509 1.390 1_565 S
N507 C508 1.345 . S
N507 C510 1.336 . S
C508 N506 1.335 . S
C508 N507 1.345 . S
C508 H513 0.930 . S
C509 N506 1.390 1_545 S
C509 C510 1.346 1_545 S
C509 H514 0.930 . S
C510 N507 1.336 . S
C510 C509 1.346 1_565 S
C510 H517 0.929 . S
C511 O501 1.282 . S
C511 O512 1.216 . S
O512 C511 1.216 . S
H513 C508 0.930 . S
H514 C509 0.930 . S
O515 Cu495 1.959 1_565 S
O515 C502 1.251 . S
H516 C499 0.930 . S
H517 C510 0.929 . S
Cu518 N519 1.999 . S
Cu518 O524 1.974 . S
Cu518 N529 1.985 . S
Cu518 O538 1.959 . S
N519 Cu518 1.999 . S
N519 C521 1.263 1_455 S
N519 C523 1.389 . S
N520 C521 1.358 . S
N520 C522 1.400 . S
C521 N519 1.263 1_655 S
C521 N520 1.358 . S
C521 H527 0.930 . S
C522 N520 1.400 . S
C522 C523 1.351 1_655 S
C522 H539 0.930 . S
C523 N519 1.389 . S
C523 C522 1.351 1_455 S
C523 H528 0.930 . S
O524 Cu518 1.974 . S
O524 C534 1.282 1_455 S
C525 O526 1.261 . S
C525 O538 1.251 . S
O526 C525 1.261 . S
H527 C521 0.930 . S
H528 C523 0.930 . S
N529 Cu518 1.985 . S
N529 C531 1.335 . S
N529 C532 1.390 . S
N530 C531 1.345 . S
N530 C533 1.336 . S
C531 N529 1.335 . S
C531 N530 1.345 . S
C531 H536 0.930 . S
C532 N529 1.390 . S
C532 C533 1.346 . S
C532 H537 0.930 . S
C533 N530 1.336 . S
C533 C532 1.346 . S
C533 H540 0.929 . S
C534 O524 1.282 1_655 S
C534 O535 1.216 1_655 S
O535 C534 1.216 1_455 S
H536 C531 0.930 . S
H537 C532 0.930 . S
O538 Cu518 1.959 . S
O538 C525 1.251 . S
H539 C522 0.930 . S
H540 C533 0.929 . S
Cu541 N542 1.999 . S
Cu541 O547 1.974 . S
Cu541 N552 1.985 . S
Cu541 O561 1.959 1_545 S
N542 Cu541 1.999 . S
N542 C544 1.263 . S
N542 C546 1.389 . S
N543 C544 1.358 . S
N543 C545 1.400 . S
C544 N542 1.263 . S
C544 N543 1.358 . S
C544 H550 0.930 . S
C545 N543 1.400 . S
C545 C546 1.351 . S
C545 H562 0.930 . S
C546 N542 1.389 . S
C546 C545 1.351 . S
C546 H551 0.930 . S
O547 Cu541 1.974 . S
O547 C557 1.282 . S
C548 O549 1.261 1_565 S
C548 O561 1.251 . S
O549 C548 1.261 1_545 S
H550 C544 0.930 . S
H551 C546 0.930 . S
N552 Cu541 1.985 . S
N552 C554 1.335 1_545 S
N552 C555 1.390 . S
N553 C554 1.345 . S
N553 C556 1.336 . S
C554 N552 1.335 1_565 S
C554 N553 1.345 . S
C554 H559 0.930 . S
C555 N552 1.390 . S
C555 C556 1.346 1_545 S
C555 H560 0.930 . S
C556 N553 1.336 . S
C556 C555 1.346 1_565 S
C556 H563 0.929 . S
C557 O547 1.282 . S
C557 O558 1.216 . S
O558 C557 1.216 . S
H559 C554 0.930 . S
H560 C555 0.930 . S
O561 Cu541 1.959 1_565 S
O561 C548 1.251 . S
H562 C545 0.930 . S
H563 C556 0.929 . S
Cu564 N565 1.999 . S
Cu564 O570 1.974 . S
Cu564 N575 1.985 . S
Cu564 O584 1.959 . S
N565 Cu564 1.999 . S
N565 C567 1.263 . S
N565 C569 1.389 . S
N566 C567 1.358 . S
N566 C568 1.400 . S
C567 N565 1.263 . S
C567 N566 1.358 . S
C567 H573 0.930 . S
C568 N566 1.400 . S
C568 C569 1.351 . S
C568 H585 0.930 . S
C569 N565 1.389 . S
C569 C568 1.351 . S
C569 H574 0.930 . S
O570 Cu564 1.974 . S
O570 C580 1.282 . S
C571 O572 1.261 . S
C571 O584 1.251 . S
O572 C571 1.261 . S
H573 C567 0.930 . S
H574 C569 0.930 . S
N575 Cu564 1.985 . S
N575 C577 1.335 . S
N575 C578 1.390 . S
N576 C577 1.345 . S
N576 C579 1.336 . S
C577 N575 1.335 . S
C577 N576 1.345 . S
C577 H582 0.930 . S
C578 N575 1.390 . S
C578 C579 1.346 . S
C578 H583 0.930 . S
C579 N576 1.336 . S
C579 C578 1.346 . S
C579 H586 0.929 . S
C580 O570 1.282 . S
C580 O581 1.216 . S
O581 C580 1.216 . S
H582 C577 0.930 . S
H583 C578 0.930 . S
O584 Cu564 1.959 . S
O584 C571 1.251 . S
H585 C568 0.930 . S
H586 C579 0.929 . S
Cu587 N588 1.999 . S
Cu587 O593 1.974 . S
Cu587 N598 1.985 . S
Cu587 O607 1.959 . S
N588 Cu587 1.999 . S
N588 C590 1.263 . S
N588 C592 1.389 . S
N589 C590 1.358 . S
N589 C591 1.400 . S
C590 N588 1.263 . S
C590 N589 1.358 . S
C590 H596 0.930 . S
C591 N589 1.400 . S
C591 C592 1.351 . S
C591 H608 0.930 . S
C592 N588 1.389 . S
C592 C591 1.351 . S
C592 H597 0.930 . S
O593 Cu587 1.974 . S
O593 C603 1.282 . S
C594 O595 1.261 . S
C594 O607 1.251 . S
O595 C594 1.261 . S
H596 C590 0.930 . S
H597 C592 0.930 . S
N598 Cu587 1.985 . S
N598 C600 1.335 . S
N598 C601 1.390 . S
N599 C600 1.345 . S
N599 C602 1.336 . S
C600 N598 1.335 . S
C600 N599 1.345 . S
C600 H605 0.930 . S
C601 N598 1.390 . S
C601 C602 1.346 . S
C601 H606 0.930 . S
C602 N599 1.336 . S
C602 C601 1.346 . S
C602 H609 0.929 . S
C603 O593 1.282 . S
C603 O604 1.216 . S
O604 C603 1.216 . S
H605 C600 0.930 . S
H606 C601 0.930 . S
O607 Cu587 1.959 . S
O607 C594 1.251 . S
H608 C591 0.930 . S
H609 C602 0.929 . S
Cu610 N611 1.999 . S
Cu610 O616 1.974 . S
Cu610 N621 1.985 . S
Cu610 O630 1.959 . S
N611 Cu610 1.999 . S
N611 C613 1.263 . S
N611 C615 1.389 . S
N612 C613 1.358 . S
N612 C614 1.400 . S
C613 N611 1.263 . S
C613 N612 1.358 . S
C613 H619 0.930 . S
C614 N612 1.400 . S
C614 C615 1.351 . S
C614 H631 0.930 . S
C615 N611 1.389 . S
C615 C614 1.351 . S
C615 H620 0.930 . S
O616 Cu610 1.974 . S
O616 C626 1.282 . S
C617 O618 1.261 . S
C617 O630 1.251 . S
O618 C617 1.261 . S
H619 C613 0.930 . S
H620 C615 0.930 . S
N621 Cu610 1.985 . S
N621 C623 1.335 . S
N621 C624 1.390 . S
N622 C623 1.345 . S
N622 C625 1.336 . S
C623 N621 1.335 . S
C623 N622 1.345 . S
C623 H628 0.930 . S
C624 N621 1.390 . S
C624 C625 1.346 . S
C624 H629 0.930 . S
C625 N622 1.336 . S
C625 C624 1.346 . S
C625 H632 0.929 . S
C626 O616 1.282 . S
C626 O627 1.216 . S
O627 C626 1.216 . S
H628 C623 0.930 . S
H629 C624 0.930 . S
O630 Cu610 1.959 . S
O630 C617 1.251 . S
H631 C614 0.930 . S
H632 C625 0.929 . S
Cu633 N634 1.999 . S
Cu633 O639 1.974 . S
Cu633 N644 1.985 . S
Cu633 O653 1.959 . S
N634 Cu633 1.999 . S
N634 C636 1.263 . S
N634 C638 1.389 . S
N635 C636 1.358 . S
N635 C637 1.400 . S
C636 N634 1.263 . S
C636 N635 1.358 . S
C636 H642 0.930 . S
C637 N635 1.400 . S
C637 C638 1.351 . S
C637 H654 0.930 . S
C638 N634 1.389 . S
C638 C637 1.351 . S
C638 H643 0.930 . S
O639 Cu633 1.974 . S
O639 C649 1.282 . S
C640 O641 1.261 . S
C640 O653 1.251 . S
O641 C640 1.261 . S
H642 C636 0.930 . S
H643 C638 0.930 . S
N644 Cu633 1.985 . S
N644 C646 1.335 . S
N644 C647 1.390 . S
N645 C646 1.345 . S
N645 C648 1.336 . S
C646 N644 1.335 . S
C646 N645 1.345 . S
C646 H651 0.930 . S
C647 N644 1.390 . S
C647 C648 1.346 . S
C647 H652 0.930 . S
C648 N645 1.336 . S
C648 C647 1.346 . S
C648 H655 0.929 . S
C649 O639 1.282 . S
C649 O650 1.216 . S
O650 C649 1.216 . S
H651 C646 0.930 . S
H652 C647 0.930 . S
O653 Cu633 1.959 . S
O653 C640 1.251 . S
H654 C637 0.930 . S
H655 C648 0.929 . S
Cu656 N657 1.999 . S
Cu656 O662 1.974 . S
Cu656 N667 1.985 . S
Cu656 O676 1.959 . S
N657 Cu656 1.999 . S
N657 C659 1.263 . S
N657 C661 1.389 . S
N658 C659 1.358 . S
N658 C660 1.400 . S
C659 N657 1.263 . S
C659 N658 1.358 . S
C659 H665 0.930 . S
C660 N658 1.400 . S
C660 C661 1.351 . S
C660 H677 0.930 . S
C661 N657 1.389 . S
C661 C660 1.351 . S
C661 H666 0.930 . S
O662 Cu656 1.974 . S
O662 C672 1.282 . S
C663 O664 1.261 . S
C663 O676 1.251 . S
O664 C663 1.261 . S
H665 C659 0.930 . S
H666 C661 0.930 . S
N667 Cu656 1.985 . S
N667 C669 1.335 . S
N667 C670 1.390 . S
N668 C669 1.345 . S
N668 C671 1.336 . S
C669 N667 1.335 . S
C669 N668 1.345 . S
C669 H674 0.930 . S
C670 N667 1.390 . S
C670 C671 1.346 . S
C670 H675 0.930 . S
C671 N668 1.336 . S
C671 C670 1.346 . S
C671 H678 0.929 . S
C672 O662 1.282 . S
C672 O673 1.216 . S
O673 C672 1.216 . S
H674 C669 0.930 . S
H675 C670 0.930 . S
O676 Cu656 1.959 . S
O676 C663 1.251 . S
H677 C660 0.930 . S
H678 C671 0.929 . S
Cu679 N680 1.999 . S
Cu679 O685 1.974 . S
Cu679 N690 1.985 . S
Cu679 O699 1.959 . S
N680 Cu679 1.999 . S
N680 C682 1.263 . S
N680 C684 1.389 . S
N681 C682 1.358 . S
N681 C683 1.400 . S
C682 N680 1.263 . S
C682 N681 1.358 . S
C682 H688 0.930 . S
C683 N681 1.400 . S
C683 C684 1.351 . S
C683 H700 0.930 . S
C684 N680 1.389 . S
C684 C683 1.351 . S
C684 H689 0.930 . S
O685 Cu679 1.974 . S
O685 C695 1.282 . S
C686 O687 1.261 . S
C686 O699 1.251 . S
O687 C686 1.261 . S
H688 C682 0.930 . S
H689 C684 0.930 . S
N690 Cu679 1.985 . S
N690 C692 1.335 . S
N690 C693 1.390 . S
N691 C692 1.345 . S
N691 C694 1.336 . S
C692 N690 1.335 . S
C692 N691 1.345 . S
C692 H697 0.930 . S
C693 N690 1.390 . S
C693 C694 1.346 . S
C693 H698 0.930 . S
C694 N691 1.336 . S
C694 C693 1.346 . S
C694 H701 0.929 . S
C695 O685 1.282 . S
C695 O696 1.216 . S
O696 C695 1.216 . S
H697 C692 0.930 . S
H698 C693 0.930 . S
O699 Cu679 1.959 . S
O699 C686 1.251 . S
H700 C683 0.930 . S
H701 C694 0.929 . S
Cu702 N703 1.999 . S
Cu702 O708 1.974 . S
Cu702 N713 1.985 . S
Cu702 O722 1.959 . S
N703 Cu702 1.999 . S
N703 C705 1.263 . S
N703 C707 1.389 . S
N704 C705 1.358 . S
N704 C706 1.400 . S
C705 N703 1.263 . S
C705 N704 1.358 . S
C705 H711 0.930 . S
C706 N704 1.400 . S
C706 C707 1.351 . S
C706 H723 0.930 . S
C707 N703 1.389 . S
C707 C706 1.351 . S
C707 H712 0.930 . S
O708 Cu702 1.974 . S
O708 C718 1.282 . S
C709 O710 1.261 . S
C709 O722 1.251 . S
O710 C709 1.261 . S
H711 C705 0.930 . S
H712 C707 0.930 . S
N713 Cu702 1.985 . S
N713 C715 1.335 . S
N713 C716 1.390 . S
N714 C715 1.345 . S
N714 C717 1.336 . S
C715 N713 1.335 . S
C715 N714 1.345 . S
C715 H720 0.930 . S
C716 N713 1.390 . S
C716 C717 1.346 . S
C716 H721 0.930 . S
C717 N714 1.336 . S
C717 C716 1.346 . S
C717 H724 0.929 . S
C718 O708 1.282 . S
C718 O719 1.216 . S
O719 C718 1.216 . S
H720 C715 0.930 . S
H721 C716 0.930 . S
O722 Cu702 1.959 . S
O722 C709 1.251 . S
H723 C706 0.930 . S
H724 C717 0.929 . S
Cu725 N726 1.999 . S
Cu725 O731 1.974 . S
Cu725 N736 1.985 . S
Cu725 O745 1.959 . S
N726 Cu725 1.999 . S
N726 C728 1.263 . S
N726 C730 1.389 . S
N727 C728 1.358 . S
N727 C729 1.400 . S
C728 N726 1.263 . S
C728 N727 1.358 . S
C728 H734 0.930 . S
C729 N727 1.400 . S
C729 C730 1.351 . S
C729 H746 0.930 . S
C730 N726 1.389 . S
C730 C729 1.351 . S
C730 H735 0.930 . S
O731 Cu725 1.974 . S
O731 C741 1.282 . S
C732 O733 1.261 . S
C732 O745 1.251 . S
O733 C732 1.261 . S
H734 C728 0.930 . S
H735 C730 0.930 . S
N736 Cu725 1.985 . S
N736 C738 1.335 . S
N736 C739 1.390 . S
N737 C738 1.345 . S
N737 C740 1.336 . S
C738 N736 1.335 . S
C738 N737 1.345 . S
C738 H743 0.930 . S
C739 N736 1.390 . S
C739 C740 1.346 . S
C739 H744 0.930 . S
C740 N737 1.336 . S
C740 C739 1.346 . S
C740 H747 0.929 . S
C741 O731 1.282 . S
C741 O742 1.216 . S
O742 C741 1.216 . S
H743 C738 0.930 . S
H744 C739 0.930 . S
O745 Cu725 1.959 . S
O745 C732 1.251 . S
H746 C729 0.930 . S
H747 C740 0.929 . S
Cu748 N749 1.999 . S
Cu748 O754 1.974 . S
Cu748 N759 1.985 . S
Cu748 O768 1.959 . S
N749 Cu748 1.999 . S
N749 C751 1.263 . S
N749 C753 1.389 . S
N750 C751 1.358 . S
N750 C752 1.400 . S
C751 N749 1.263 . S
C751 N750 1.358 . S
C751 H757 0.930 . S
C752 N750 1.400 . S
C752 C753 1.351 . S
C752 H769 0.930 . S
C753 N749 1.389 . S
C753 C752 1.351 . S
C753 H758 0.930 . S
O754 Cu748 1.974 . S
O754 C764 1.282 . S
C755 O756 1.261 . S
C755 O768 1.251 . S
O756 C755 1.261 . S
H757 C751 0.930 . S
H758 C753 0.930 . S
N759 Cu748 1.985 . S
N759 C761 1.335 . S
N759 C762 1.390 . S
N760 C761 1.345 . S
N760 C763 1.336 . S
C761 N759 1.335 . S
C761 N760 1.345 . S
C761 H766 0.930 . S
C762 N759 1.390 . S
C762 C763 1.346 . S
C762 H767 0.930 . S
C763 N760 1.336 . S
C763 C762 1.346 . S
C763 H770 0.929 . S
C764 O754 1.282 . S
C764 O765 1.216 . S
O765 C764 1.216 . S
H766 C761 0.930 . S
H767 C762 0.930 . S
O768 Cu748 1.959 . S
O768 C755 1.251 . S
H769 C752 0.930 . S
H770 C763 0.929 . S
Cu771 N772 1.999 . S
Cu771 O777 1.974 . S
Cu771 N782 1.985 . S
Cu771 O791 1.959 . S
N772 Cu771 1.999 . S
N772 C774 1.263 . S
N772 C776 1.389 . S
N773 C774 1.358 . S
N773 C775 1.400 . S
C774 N772 1.263 . S
C774 N773 1.358 . S
C774 H780 0.930 . S
C775 N773 1.400 . S
C775 C776 1.351 . S
C775 H792 0.930 . S
C776 N772 1.389 . S
C776 C775 1.351 . S
C776 H781 0.930 . S
O777 Cu771 1.974 . S
O777 C787 1.282 . S
C778 O779 1.261 . S
C778 O791 1.251 . S
O779 C778 1.261 . S
H780 C774 0.930 . S
H781 C776 0.930 . S
N782 Cu771 1.985 . S
N782 C784 1.335 . S
N782 C785 1.390 . S
N783 C784 1.345 . S
N783 C786 1.336 . S
C784 N782 1.335 . S
C784 N783 1.345 . S
C784 H789 0.930 . S
C785 N782 1.390 . S
C785 C786 1.346 . S
C785 H790 0.930 . S
C786 N783 1.336 . S
C786 C785 1.346 . S
C786 H793 0.929 . S
C787 O777 1.282 . S
C787 O788 1.216 . S
O788 C787 1.216 . S
H789 C784 0.930 . S
H790 C785 0.930 . S
O791 Cu771 1.959 . S
O791 C778 1.251 . S
H792 C775 0.930 . S
H793 C786 0.929 . S
Cu794 N795 1.999 . S
Cu794 O800 1.974 . S
Cu794 N805 1.985 . S
Cu794 O814 1.959 . S
N795 Cu794 1.999 . S
N795 C797 1.263 . S
N795 C799 1.389 . S
N796 C797 1.358 . S
N796 C798 1.400 . S
C797 N795 1.263 . S
C797 N796 1.358 . S
C797 H803 0.930 . S
C798 N796 1.400 . S
C798 C799 1.351 . S
C798 H815 0.930 . S
C799 N795 1.389 . S
C799 C798 1.351 . S
C799 H804 0.930 . S
O800 Cu794 1.974 . S
O800 C810 1.282 . S
C801 O802 1.261 . S
C801 O814 1.251 . S
O802 C801 1.261 . S
H803 C797 0.930 . S
H804 C799 0.930 . S
N805 Cu794 1.985 . S
N805 C807 1.335 . S
N805 C808 1.390 . S
N806 C807 1.345 . S
N806 C809 1.336 . S
C807 N805 1.335 . S
C807 N806 1.345 . S
C807 H812 0.930 . S
C808 N805 1.390 . S
C808 C809 1.346 . S
C808 H813 0.930 . S
C809 N806 1.336 . S
C809 C808 1.346 . S
C809 H816 0.929 . S
C810 O800 1.282 . S
C810 O811 1.216 . S
O811 C810 1.216 . S
H812 C807 0.930 . S
H813 C808 0.930 . S
O814 Cu794 1.959 . S
O814 C801 1.251 . S
H815 C798 0.930 . S
H816 C809 0.929 . S
Cu817 N818 1.999 . S
Cu817 O823 1.974 . S
Cu817 N828 1.985 . S
Cu817 O837 1.959 . S
N818 Cu817 1.999 . S
N818 C820 1.263 . S
N818 C822 1.389 . S
N819 C820 1.358 . S
N819 C821 1.400 . S
C820 N818 1.263 . S
C820 N819 1.358 . S
C820 H826 0.930 . S
C821 N819 1.400 . S
C821 C822 1.351 . S
C821 H838 0.930 . S
C822 N818 1.389 . S
C822 C821 1.351 . S
C822 H827 0.930 . S
O823 Cu817 1.974 . S
O823 C833 1.282 . S
C824 O825 1.261 . S
C824 O837 1.251 . S
O825 C824 1.261 . S
H826 C820 0.930 . S
H827 C822 0.930 . S
N828 Cu817 1.985 . S
N828 C830 1.335 . S
N828 C831 1.390 . S
N829 C830 1.345 . S
N829 C832 1.336 . S
C830 N828 1.335 . S
C830 N829 1.345 . S
C830 H835 0.930 . S
C831 N828 1.390 . S
C831 C832 1.346 . S
C831 H836 0.930 . S
C832 N829 1.336 . S
C832 C831 1.346 . S
C832 H839 0.929 . S
C833 O823 1.282 . S
C833 O834 1.216 . S
O834 C833 1.216 . S
H835 C830 0.930 . S
H836 C831 0.930 . S
O837 Cu817 1.959 . S
O837 C824 1.251 . S
H838 C821 0.930 . S
H839 C832 0.929 . S
H840 C846 0.930 . S
H841 C849 0.930 . S
H842 C850 0.930 . S
H843 C851 0.930 . S
H844 C854 0.930 . S
H845 C855 0.930 . S
C846 H840 0.930 . S
C846 C847 1.355 . S
C846 C848 1.415 . S
C847 C846 1.355 . S
C847 C849 1.419 . S
C848 C846 1.415 . S
C848 C853 1.425 . S
C848 C855 1.409 . S
C849 H841 0.930 . S
C849 C847 1.419 . S
C849 C850 1.362 . S
C850 H842 0.930 . S
C850 C849 1.362 . S
C850 C853 1.409 . S
C851 H843 0.930 . S
C851 C852 1.355 . S
C851 C853 1.415 . S
C852 C851 1.355 . S
C852 C854 1.419 . S
C853 C848 1.425 . S
C853 C850 1.409 . S
C853 C851 1.415 . S
C854 H844 0.930 . S
C854 C852 1.419 . S
C854 C855 1.362 . S
C855 H845 0.930 . S
C855 C848 1.409 . S
C855 C854 1.362 . S
H856 C862 0.930 . S
H857 C865 0.930 . S
H858 C866 0.930 . S
H859 C867 0.930 . S
H860 C870 0.930 . S
H861 C871 0.930 . S
C862 H856 0.930 . S
C862 C863 1.355 . S
C862 C864 1.415 . S
C863 C862 1.355 . S
C863 C865 1.419 . S
C864 C862 1.415 . S
C864 C869 1.425 . S
C864 C871 1.409 . S
C865 H857 0.930 . S
C865 C863 1.419 . S
C865 C866 1.362 . S
C866 H858 0.930 . S
C866 C865 1.362 . S
C866 C869 1.409 . S
C867 H859 0.930 . S
C867 C868 1.355 . S
C867 C869 1.415 . S
C868 C867 1.355 . S
C868 C870 1.419 . S
C869 C864 1.425 . S
C869 C866 1.409 . S
C869 C867 1.415 . S
C870 H860 0.930 . S
C870 C868 1.419 . S
C870 C871 1.362 . S
C871 H861 0.930 . S
C871 C864 1.409 . S
C871 C870 1.362 . S
H872 C878 0.930 . S
H873 C881 0.930 . S
H874 C882 0.930 . S
H875 C883 0.930 . S
H876 C886 0.930 . S
H877 C887 0.930 . S
C878 H872 0.930 . S
C878 C879 1.355 . S
C878 C880 1.415 . S
C879 C878 1.355 . S
C879 C881 1.419 . S
C880 C878 1.415 . S
C880 C885 1.425 . S
C880 C887 1.409 . S
C881 H873 0.930 . S
C881 C879 1.419 . S
C881 C882 1.362 . S
C882 H874 0.930 . S
C882 C881 1.362 . S
C882 C885 1.409 . S
C883 H875 0.930 . S
C883 C884 1.355 . S
C883 C885 1.415 . S
C884 C883 1.355 . S
C884 C886 1.419 . S
C885 C880 1.425 . S
C885 C882 1.409 . S
C885 C883 1.415 . S
C886 H876 0.930 . S
C886 C884 1.419 . S
C886 C887 1.362 . S
C887 H877 0.930 . S
C887 C880 1.409 . S
C887 C886 1.362 . S
H888 C894 0.930 . S
H889 C897 0.930 . S
H890 C898 0.930 . S
H891 C899 0.930 . S
H892 C902 0.930 . S
H893 C903 0.930 . S
C894 H888 0.930 . S
C894 C895 1.355 . S
C894 C896 1.415 . S
C895 C894 1.355 . S
C895 C897 1.419 . S
C896 C894 1.415 . S
C896 C901 1.425 . S
C896 C903 1.409 . S
C897 H889 0.930 . S
C897 C895 1.419 . S
C897 C898 1.362 . S
C898 H890 0.930 . S
C898 C897 1.362 . S
C898 C901 1.409 . S
C899 H891 0.930 . S
C899 C900 1.355 . S
C899 C901 1.415 . S
C900 C899 1.355 . S
C900 C902 1.419 . S
C901 C896 1.425 . S
C901 C898 1.409 . S
C901 C899 1.415 . S
C902 H892 0.930 . S
C902 C900 1.419 . S
C902 C903 1.362 . S
C903 H893 0.930 . S
C903 C896 1.409 . S
C903 C902 1.362 . S
H904 C910 0.930 . S
H905 C913 0.930 . S
H906 C914 0.930 . S
H907 C915 0.930 . S
H908 C918 0.930 . S
H909 C919 0.930 . S
C910 H904 0.930 . S
C910 C911 1.355 . S
C910 C912 1.415 . S
C911 C910 1.355 . S
C911 C913 1.419 . S
C912 C910 1.415 . S
C912 C917 1.425 . S
C912 C919 1.409 . S
C913 H905 0.930 . S
C913 C911 1.419 . S
C913 C914 1.362 . S
C914 H906 0.930 . S
C914 C913 1.362 . S
C914 C917 1.409 . S
C915 H907 0.930 . S
C915 C916 1.355 . S
C915 C917 1.415 . S
C916 C915 1.355 . S
C916 C918 1.419 . S
C917 C912 1.425 . S
C917 C914 1.409 . S
C917 C915 1.415 . S
C918 H908 0.930 . S
C918 C916 1.419 . S
C918 C919 1.362 . S
C919 H909 0.930 . S
C919 C912 1.409 . S
C919 C918 1.362 . S
H920 C926 0.930 . S
H921 C929 0.930 . S
H922 C930 0.930 . S
H923 C931 0.930 . S
H924 C934 0.930 . S
H925 C935 0.930 . S
C926 H920 0.930 . S
C926 C927 1.355 . S
C926 C928 1.415 . S
C927 C926 1.355 . S
C927 C929 1.419 . S
C928 C926 1.415 . S
C928 C933 1.425 . S
C928 C935 1.409 . S
C929 H921 0.930 . S
C929 C927 1.419 . S
C929 C930 1.362 . S
C930 H922 0.930 . S
C930 C929 1.362 . S
C930 C933 1.409 . S
C931 H923 0.930 . S
C931 C932 1.355 . S
C931 C933 1.415 . S
C932 C931 1.355 . S
C932 C934 1.419 . S
C933 C928 1.425 . S
C933 C930 1.409 . S
C933 C931 1.415 . S
C934 H924 0.930 . S
C934 C932 1.419 . S
C934 C935 1.362 . S
C935 H925 0.930 . S
C935 C928 1.409 . S
C935 C934 1.362 . S
H936 C942 0.930 . S
H937 C945 0.930 . S
H938 C946 0.930 . S
H939 C947 0.930 . S
H940 C950 0.930 . S
H941 C951 0.930 . S
C942 H936 0.930 . S
C942 C943 1.355 . S
C942 C944 1.415 . S
C943 C942 1.355 . S
C943 C945 1.419 . S
C944 C942 1.415 . S
C944 C949 1.425 . S
C944 C951 1.409 . S
C945 H937 0.930 . S
C945 C943 1.419 . S
C945 C946 1.362 . S
C946 H938 0.930 . S
C946 C945 1.362 . S
C946 C949 1.409 . S
C947 H939 0.930 . S
C947 C948 1.355 . S
C947 C949 1.415 . S
C948 C947 1.355 . S
C948 C950 1.419 . S
C949 C944 1.425 . S
C949 C946 1.409 . S
C949 C947 1.415 . S
C950 H940 0.930 . S
C950 C948 1.419 . S
C950 C951 1.362 . S
C951 H941 0.930 . S
C951 C944 1.409 . S
C951 C950 1.362 . S
H952 C958 0.930 . S
H953 C961 0.930 . S
H954 C962 0.930 . S
H955 C963 0.930 . S
H956 C966 0.930 . S
H957 C967 0.930 . S
C958 H952 0.930 . S
C958 C959 1.355 . S
C958 C960 1.415 . S
C959 C958 1.355 . S
C959 C961 1.419 . S
C960 C958 1.415 . S
C960 C965 1.425 . S
C960 C967 1.409 . S
C961 H953 0.930 . S
C961 C959 1.419 . S
C961 C962 1.362 . S
C962 H954 0.930 . S
C962 C961 1.362 . S
C962 C965 1.409 . S
C963 H955 0.930 . S
C963 C964 1.355 . S
C963 C965 1.415 . S
C964 C963 1.355 . S
C964 C966 1.419 . S
C965 C960 1.425 . S
C965 C962 1.409 . S
C965 C963 1.415 . S
C966 H956 0.930 . S
C966 C964 1.419 . S
C966 C967 1.362 . S
C967 H957 0.930 . S
C967 C960 1.409 . S
C967 C966 1.362 . S
H968 C974 0.930 . S
H969 C977 0.930 . S
H970 C978 0.930 . S
H971 C979 0.930 . S
H972 C982 0.930 . S
H973 C983 0.930 . S
C974 H968 0.930 . S
C974 C975 1.355 . S
C974 C976 1.415 . S
C975 C974 1.355 . S
C975 C977 1.419 . S
C976 C974 1.415 . S
C976 C981 1.425 . S
C976 C983 1.409 . S
C977 H969 0.930 . S
C977 C975 1.419 . S
C977 C978 1.362 . S
C978 H970 0.930 . S
C978 C977 1.362 . S
C978 C981 1.409 . S
C979 H971 0.930 . S
C979 C980 1.355 . S
C979 C981 1.415 . S
C980 C979 1.355 . S
C980 C982 1.419 . S
C981 C976 1.425 . S
C981 C978 1.409 . S
C981 C979 1.415 . S
C982 H972 0.930 . S
C982 C980 1.419 . S
C982 C983 1.362 . S
C983 H973 0.930 . S
C983 C976 1.409 . S
C983 C982 1.362 . S
H984 C990 0.930 . S
H985 C993 0.930 . S
H986 C994 0.930 . S
H987 C995 0.930 . S
H988 C998 0.930 . S
H989 C999 0.930 . S
C990 H984 0.930 . S
C990 C991 1.355 . S
C990 C992 1.415 . S
C991 C990 1.355 . S
C991 C993 1.419 . S
C992 C990 1.415 . S
C992 C997 1.425 . S
C992 C999 1.409 . S
C993 H985 0.930 . S
C993 C991 1.419 . S
C993 C994 1.362 . S
C994 H986 0.930 . S
C994 C993 1.362 . S
C994 C997 1.409 . S
C995 H987 0.930 . S
C995 C996 1.355 . S
C995 C997 1.415 . S
C996 C995 1.355 . S
C996 C998 1.419 . S
C997 C992 1.425 . S
C997 C994 1.409 . S
C997 C995 1.415 . S
C998 H988 0.930 . S
C998 C996 1.419 . S
C998 C999 1.362 . S
C999 H989 0.930 . S
C999 C992 1.409 . S
C999 C998 1.362 . S
H1000 C1006 0.930 . S
H1001 C1009 0.930 . S
H1002 C1010 0.930 . S
H1003 C1011 0.930 . S
H1004 C1014 0.930 . S
H1005 C1015 0.930 . S
C1006 H1000 0.930 . S
C1006 C1007 1.355 . S
C1006 C1008 1.415 . S
C1007 C1006 1.355 . S
C1007 C1009 1.419 . S
C1008 C1006 1.415 . S
C1008 C1013 1.425 . S
C1008 C1015 1.409 . S
C1009 H1001 0.930 . S
C1009 C1007 1.419 . S
C1009 C1010 1.362 . S
C1010 H1002 0.930 . S
C1010 C1009 1.362 . S
C1010 C1013 1.409 . S
C1011 H1003 0.930 . S
C1011 C1012 1.355 . S
C1011 C1013 1.415 . S
C1012 C1011 1.355 . S
C1012 C1014 1.419 . S
C1013 C1008 1.425 . S
C1013 C1010 1.409 . S
C1013 C1011 1.415 . S
C1014 H1004 0.930 . S
C1014 C1012 1.419 . S
C1014 C1015 1.362 . S
C1015 H1005 0.930 . S
C1015 C1008 1.409 . S
C1015 C1014 1.362 . S
H1016 C1022 0.930 . S
H1017 C1025 0.930 . S
H1018 C1026 0.930 . S
H1019 C1027 0.930 . S
H1020 C1030 0.930 . S
H1021 C1031 0.930 . S
C1022 H1016 0.930 . S
C1022 C1023 1.355 . S
C1022 C1024 1.415 . S
C1023 C1022 1.355 . S
C1023 C1025 1.419 . S
C1024 C1022 1.415 . S
C1024 C1029 1.425 . S
C1024 C1031 1.409 . S
C1025 H1017 0.930 . S
C1025 C1023 1.419 . S
C1025 C1026 1.362 . S
C1026 H1018 0.930 . S
C1026 C1025 1.362 . S
C1026 C1029 1.409 . S
C1027 H1019 0.930 . S
C1027 C1028 1.355 . S
C1027 C1029 1.415 . S
C1028 C1027 1.355 . S
C1028 C1030 1.419 . S
C1029 C1024 1.425 . S
C1029 C1026 1.409 . S
C1029 C1027 1.415 . S
C1030 H1020 0.930 . S
C1030 C1028 1.419 . S
C1030 C1031 1.362 . S
C1031 H1021 0.930 . S
C1031 C1024 1.409 . S
C1031 C1030 1.362 . S
H1032 C1038 0.930 . S
H1033 C1041 0.930 . S
H1034 C1042 0.930 . S
H1035 C1043 0.930 . S
H1036 C1046 0.930 . S
H1037 C1047 0.930 . S
C1038 H1032 0.930 . S
C1038 C1039 1.355 . S
C1038 C1040 1.415 . S
C1039 C1038 1.355 . S
C1039 C1041 1.419 . S
C1040 C1038 1.415 . S
C1040 C1045 1.425 . S
C1040 C1047 1.409 . S
C1041 H1033 0.930 . S
C1041 C1039 1.419 . S
C1041 C1042 1.362 . S
C1042 H1034 0.930 . S
C1042 C1041 1.362 . S
C1042 C1045 1.409 . S
C1043 H1035 0.930 . S
C1043 C1044 1.355 . S
C1043 C1045 1.415 . S
C1044 C1043 1.355 . S
C1044 C1046 1.419 . S
C1045 C1040 1.425 . S
C1045 C1042 1.409 . S
C1045 C1043 1.415 . S
C1046 H1036 0.930 . S
C1046 C1044 1.419 . S
C1046 C1047 1.362 . S
C1047 H1037 0.930 . S
C1047 C1040 1.409 . S
C1047 C1046 1.362 . S
H1048 C1054 0.930 . S
H1049 C1057 0.930 . S
H1050 C1058 0.930 . S
H1051 C1059 0.930 . S
H1052 C1062 0.930 . S
H1053 C1063 0.930 . S
C1054 H1048 0.930 . S
C1054 C1055 1.355 . S
C1054 C1056 1.415 . S
C1055 C1054 1.355 . S
C1055 C1057 1.419 . S
C1056 C1054 1.415 . S
C1056 C1061 1.425 . S
C1056 C1063 1.409 . S
C1057 H1049 0.930 . S
C1057 C1055 1.419 . S
C1057 C1058 1.362 . S
C1058 H1050 0.930 . S
C1058 C1057 1.362 . S
C1058 C1061 1.409 . S
C1059 H1051 0.930 . S
C1059 C1060 1.355 . S
C1059 C1061 1.415 . S
C1060 C1059 1.355 . S
C1060 C1062 1.419 . S
C1061 C1056 1.425 . S
C1061 C1058 1.409 . S
C1061 C1059 1.415 . S
C1062 H1052 0.930 . S
C1062 C1060 1.419 . S
C1062 C1063 1.362 . S
C1063 H1053 0.930 . S
C1063 C1056 1.409 . S
C1063 C1062 1.362 . S
H1064 C1070 0.930 . S
H1065 C1073 0.930 . S
H1066 C1074 0.930 . S
H1067 C1075 0.930 . S
H1068 C1078 0.974 . S
H1069 C1079 0.930 . S
C1070 H1064 0.930 . S
C1070 C1071 1.355 . S
C1070 C1072 1.415 . S
C1071 C1070 1.355 . S
C1071 C1073 1.419 . S
C1072 C1070 1.415 . S
C1072 C1077 1.425 . S
C1072 C1079 1.409 . S
C1073 H1065 0.930 . S
C1073 C1071 1.419 . S
C1073 C1074 1.362 . S
C1074 H1066 0.930 . S
C1074 C1073 1.362 . S
C1074 C1077 1.409 . S
C1075 H1067 0.930 . S
C1075 C1076 1.355 . S
C1075 C1077 1.415 . S
C1076 C1075 1.355 . S
C1076 C1078 1.419 . S
C1077 C1072 1.425 . S
C1077 C1074 1.409 . S
C1077 C1075 1.415 . S
C1078 H1068 0.974 . S
C1078 C1076 1.419 . S
C1078 C1079 1.362 . S
C1079 H1069 0.930 . S
C1079 C1072 1.409 . S
C1079 C1078 1.362 . S
H1080 C1086 0.930 . S
H1081 C1089 0.930 . S
H1082 C1090 0.930 . S
H1083 C1091 0.930 . S
H1084 C1094 0.930 . S
H1085 C1095 0.930 . S
C1086 H1080 0.930 . S
C1086 C1087 1.355 . S
C1086 C1088 1.415 . S
C1087 C1086 1.355 . S
C1087 C1089 1.419 . S
C1088 C1086 1.415 . S
C1088 C1093 1.425 . S
C1088 C1095 1.409 . S
C1089 H1081 0.930 . S
C1089 C1087 1.419 . S
C1089 C1090 1.362 . S
C1090 H1082 0.930 . S
C1090 C1089 1.362 . S
C1090 C1093 1.409 . S
C1091 H1083 0.930 . S
C1091 C1092 1.355 . S
C1091 C1093 1.415 . S
C1092 C1091 1.355 . S
C1092 C1094 1.419 . S
C1093 C1088 1.425 . S
C1093 C1090 1.409 . S
C1093 C1091 1.415 . S
C1094 H1084 0.930 . S
C1094 C1092 1.419 . S
C1094 C1095 1.362 . S
C1095 H1085 0.930 . S
C1095 C1088 1.409 . S
C1095 C1094 1.362 . S
H1096 C1102 0.930 . S
H1097 C1105 0.930 . S
H1098 C1106 0.930 . S
H1099 C1107 0.930 . S
H1100 C1110 0.930 . S
H1101 C1111 0.930 . S
C1102 H1096 0.930 . S
C1102 C1103 1.355 . S
C1102 C1104 1.415 . S
C1103 C1102 1.355 . S
C1103 C1105 1.419 . S
C1104 C1102 1.415 . S
C1104 C1109 1.425 . S
C1104 C1111 1.409 . S
C1105 H1097 0.930 . S
C1105 C1103 1.419 . S
C1105 C1106 1.362 . S
C1106 H1098 0.930 . S
C1106 C1105 1.362 . S
C1106 C1109 1.409 . S
C1107 H1099 0.930 . S
C1107 C1108 1.355 . S
C1107 C1109 1.415 . S
C1108 C1107 1.355 . S
C1108 C1110 1.419 . S
C1109 C1104 1.425 . S
C1109 C1106 1.409 . S
C1109 C1107 1.415 . S
C1110 H1100 0.930 . S
C1110 C1108 1.419 . S
C1110 C1111 1.362 . S
C1111 H1101 0.930 . S
C1111 C1104 1.409 . S
C1111 C1110 1.362 . S
H1112 C1118 0.930 . S
H1113 C1121 0.930 . S
H1114 C1122 0.930 . S
H1115 C1123 0.930 . S
H1116 C1126 0.930 . S
H1117 C1127 0.930 . S
C1118 H1112 0.930 . S
C1118 C1119 1.355 . S
C1118 C1120 1.415 . S
C1119 C1118 1.355 . S
C1119 C1121 1.419 . S
C1120 C1118 1.415 . S
C1120 C1125 1.425 . S
C1120 C1127 1.409 . S
C1121 H1113 0.930 . S
C1121 C1119 1.419 . S
C1121 C1122 1.362 . S
C1122 H1114 0.930 . S
C1122 C1121 1.362 . S
C1122 C1125 1.409 . S
C1123 H1115 0.930 . S
C1123 C1124 1.355 . S
C1123 C1125 1.415 . S
C1124 C1123 1.355 . S
C1124 C1126 1.419 . S
C1125 C1120 1.425 . S
C1125 C1122 1.409 . S
C1125 C1123 1.415 . S
C1126 H1116 0.930 . S
C1126 C1124 1.419 . S
C1126 C1127 1.362 . S
C1127 H1117 0.930 . S
C1127 C1120 1.409 . S
C1127 C1126 1.362 . S
H1128 C1134 0.930 . S
H1129 C1137 0.930 . S
H1130 C1138 0.930 . S
H1131 C1139 0.930 . S
H1132 C1142 0.930 . S
H1133 C1143 0.930 . S
C1134 H1128 0.930 . S
C1134 C1135 1.355 . S
C1134 C1136 1.415 . S
C1135 C1134 1.355 . S
C1135 C1137 1.419 . S
C1136 C1134 1.415 . S
C1136 C1141 1.425 . S
C1136 C1143 1.409 . S
C1137 H1129 0.930 . S
C1137 C1135 1.419 . S
C1137 C1138 1.362 . S
C1138 H1130 0.930 . S
C1138 C1137 1.362 . S
C1138 C1141 1.409 . S
C1139 H1131 0.930 . S
C1139 C1140 1.355 . S
C1139 C1141 1.415 . S
C1140 C1139 1.355 . S
C1140 C1142 1.419 . S
C1141 C1136 1.425 . S
C1141 C1138 1.409 . S
C1141 C1139 1.415 . S
C1142 H1132 0.930 . S
C1142 C1140 1.419 . S
C1142 C1143 1.362 . S
C1143 H1133 0.930 . S
C1143 C1136 1.409 . S
C1143 C1142 1.362 . S
H1144 C1150 0.930 . S
H1145 C1153 0.930 . S
H1146 C1154 0.930 . S
H1147 C1155 0.930 . S
H1148 C1158 0.930 . S
H1149 C1159 0.930 . S
C1150 H1144 0.930 . S
C1150 C1151 1.355 . S
C1150 C1152 1.415 . S
C1151 C1150 1.355 . S
C1151 C1153 1.419 . S
C1152 C1150 1.415 . S
C1152 C1157 1.425 . S
C1152 C1159 1.409 . S
C1153 H1145 0.930 . S
C1153 C1151 1.419 . S
C1153 C1154 1.362 . S
C1154 H1146 0.930 . S
C1154 C1153 1.362 . S
C1154 C1157 1.409 . S
C1155 H1147 0.930 . S
C1155 C1156 1.355 . S
C1155 C1157 1.415 . S
C1156 C1155 1.355 . S
C1156 C1158 1.419 . S
C1157 C1152 1.425 . S
C1157 C1154 1.409 . S
C1157 C1155 1.415 . S
C1158 H1148 0.930 . S
C1158 C1156 1.419 . S
C1158 C1159 1.362 . S
C1159 H1149 0.930 . S
C1159 C1152 1.409 . S
C1159 C1158 1.362 . S
H1160 C1166 0.930 . S
H1161 C1169 0.930 . S
H1162 C1170 0.930 . S
H1163 C1171 0.930 . S
H1164 C1174 0.930 . S
H1165 C1175 0.930 . S
C1166 H1160 0.930 . S
C1166 C1167 1.355 . S
C1166 C1168 1.415 . S
C1167 C1166 1.355 . S
C1167 C1169 1.419 . S
C1168 C1166 1.415 . S
C1168 C1173 1.425 . S
C1168 C1175 1.409 . S
C1169 H1161 0.930 . S
C1169 C1167 1.419 . S
C1169 C1170 1.362 . S
C1170 H1162 0.930 . S
C1170 C1169 1.362 . S
C1170 C1173 1.409 . S
C1171 H1163 0.930 . S
C1171 C1172 1.355 . S
C1171 C1173 1.415 . S
C1172 C1171 1.355 . S
C1172 C1174 1.419 . S
C1173 C1168 1.425 . S
C1173 C1170 1.409 . S
C1173 C1171 1.415 . S
C1174 H1164 0.930 . S
C1174 C1172 1.419 . S
C1174 C1175 1.362 . S
C1175 H1165 0.930 . S
C1175 C1168 1.409 . S
C1175 C1174 1.362 . S
H1176 C1182 0.930 . S
H1177 C1185 0.930 . S
H1178 C1186 0.930 . S
H1179 C1187 0.930 . S
H1180 C1190 0.930 . S
H1181 C1191 0.930 . S
C1182 H1176 0.930 . S
C1182 C1183 1.355 . S
C1182 C1184 1.415 . S
C1183 C1182 1.355 . S
C1183 C1185 1.419 . S
C1184 C1182 1.415 . S
C1184 C1189 1.425 . S
C1184 C1191 1.409 . S
C1185 H1177 0.930 . S
C1185 C1183 1.419 . S
C1185 C1186 1.362 . S
C1186 H1178 0.930 . S
C1186 C1185 1.362 . S
C1186 C1189 1.409 . S
C1187 H1179 0.930 . S
C1187 C1188 1.355 . S
C1187 C1189 1.415 . S
C1188 C1187 1.355 . S
C1188 C1190 1.419 . S
C1189 C1184 1.425 . S
C1189 C1186 1.409 . S
C1189 C1187 1.415 . S
C1190 H1180 0.930 . S
C1190 C1188 1.419 . S
C1190 C1191 1.362 . S
C1191 H1181 0.930 . S
C1191 C1184 1.409 . S
C1191 C1190 1.362 . S
H1192 C1198 0.930 . S
H1193 C1201 0.930 . S
H1194 C1202 0.930 . S
H1195 C1203 0.930 . S
H1196 C1206 0.930 . S
H1197 C1207 0.930 . S
C1198 H1192 0.930 . S
C1198 C1199 1.355 . S
C1198 C1200 1.415 . S
C1199 C1198 1.355 . S
C1199 C1201 1.419 . S
C1200 C1198 1.415 . S
C1200 C1205 1.425 . S
C1200 C1207 1.409 . S
C1201 H1193 0.930 . S
C1201 C1199 1.419 . S
C1201 C1202 1.362 . S
C1202 H1194 0.930 . S
C1202 C1201 1.362 . S
C1202 C1205 1.409 . S
C1203 H1195 0.930 . S
C1203 C1204 1.355 . S
C1203 C1205 1.415 . S
C1204 C1203 1.355 . S
C1204 C1206 1.419 . S
C1205 C1200 1.425 . S
C1205 C1202 1.409 . S
C1205 C1203 1.415 . S
C1206 H1196 0.930 . S
C1206 C1204 1.419 . S
C1206 C1207 1.362 . S
C1207 H1197 0.930 . S
C1207 C1200 1.409 . S
C1207 C1206 1.362 . S
H1208 C1214 0.930 . S
H1209 C1217 0.930 . S
H1210 C1218 0.930 . S
H1211 C1219 0.930 . S
H1212 C1222 0.930 . S
H1213 C1223 0.930 . S
C1214 H1208 0.930 . S
C1214 C1215 1.355 . S
C1214 C1216 1.415 . S
C1215 C1214 1.355 . S
C1215 C1217 1.419 . S
C1216 C1214 1.415 . S
C1216 C1221 1.425 . S
C1216 C1223 1.409 . S
C1217 H1209 0.930 . S
C1217 C1215 1.419 . S
C1217 C1218 1.362 . S
C1218 H1210 0.930 . S
C1218 C1217 1.362 . S
C1218 C1221 1.409 . S
C1219 H1211 0.930 . S
C1219 C1220 1.355 . S
C1219 C1221 1.415 . S
C1220 C1219 1.355 . S
C1220 C1222 1.419 . S
C1221 C1216 1.425 . S
C1221 C1218 1.409 . S
C1221 C1219 1.415 . S
C1222 H1212 0.930 . S
C1222 C1220 1.419 . S
C1222 C1223 1.362 . S
C1223 H1213 0.930 . S
C1223 C1216 1.409 . S
C1223 C1222 1.362 . S
H1224 C1230 0.930 . S
H1225 C1233 0.930 . S
H1226 C1234 0.930 . S
H1227 C1235 0.930 . S
H1228 C1238 0.930 . S
H1229 C1239 0.930 . S
C1230 H1224 0.930 . S
C1230 C1231 1.355 . S
C1230 C1232 1.415 . S
C1231 C1230 1.355 . S
C1231 C1233 1.419 . S
C1232 C1230 1.415 . S
C1232 C1237 1.425 . S
C1232 C1239 1.409 . S
C1233 H1225 0.930 . S
C1233 C1231 1.419 . S
C1233 C1234 1.362 . S
C1234 H1226 0.930 . S
C1234 C1233 1.362 . S
C1234 C1237 1.409 . S
C1235 H1227 0.930 . S
C1235 C1236 1.355 . S
C1235 C1237 1.415 . S
C1236 C1235 1.355 . S
C1236 C1238 1.419 . S
C1237 C1232 1.425 . S
C1237 C1234 1.409 . S
C1237 C1235 1.415 . S
C1238 H1228 0.930 . S
C1238 C1236 1.419 . S
C1238 C1239 1.362 . S
C1239 H1229 0.930 . S
C1239 C1232 1.409 . S
C1239 C1238 1.362 . S
H1240 C1246 0.930 . S
H1241 C1249 0.930 . S
H1242 C1250 0.930 . S
H1243 C1251 0.930 . S
H1244 C1254 0.930 . S
H1245 C1255 0.930 . S
C1246 H1240 0.930 . S
C1246 C1247 1.355 . S
C1246 C1248 1.415 . S
C1247 C1246 1.355 . S
C1247 C1249 1.419 . S
C1248 C1246 1.415 . S
C1248 C1253 1.425 . S
C1248 C1255 1.409 . S
C1249 H1241 0.930 . S
C1249 C1247 1.419 . S
C1249 C1250 1.362 . S
C1250 H1242 0.930 . S
C1250 C1249 1.362 . S
C1250 C1253 1.409 . S
C1251 H1243 0.930 . S
C1251 C1252 1.355 . S
C1251 C1253 1.415 . S
C1252 C1251 1.355 . S
C1252 C1254 1.419 . S
C1253 C1248 1.425 . S
C1253 C1250 1.409 . S
C1253 C1251 1.415 . S
C1254 H1244 0.930 . S
C1254 C1252 1.419 . S
C1254 C1255 1.362 . S
C1255 H1245 0.930 . S
C1255 C1248 1.409 . S
C1255 C1254 1.362 . S
H1256 C1262 0.930 . S
H1257 C1265 0.930 . S
H1258 C1266 0.930 . S
H1259 C1267 0.930 . S
H1260 C1270 0.930 . S
H1261 C1271 0.930 . S
C1262 H1256 0.930 . S
C1262 C1263 1.355 . S
C1262 C1264 1.415 . S
C1263 C1262 1.355 . S
C1263 C1265 1.419 . S
C1264 C1262 1.415 . S
C1264 C1269 1.425 . S
C1264 C1271 1.409 . S
C1265 H1257 0.930 . S
C1265 C1263 1.419 . S
C1265 C1266 1.362 . S
C1266 H1258 0.930 . S
C1266 C1265 1.362 . S
C1266 C1269 1.409 . S
C1267 H1259 0.930 . S
C1267 C1268 1.355 . S
C1267 C1269 1.415 . S
C1268 C1267 1.355 . S
C1268 C1270 1.419 . S
C1269 C1264 1.425 . S
C1269 C1266 1.409 . S
C1269 C1267 1.415 . S
C1270 H1260 0.930 . S
C1270 C1268 1.419 . S
C1270 C1271 1.362 . S
C1271 H1261 0.930 . S
C1271 C1264 1.409 . S
C1271 C1270 1.362 . S
H1272 C1278 0.930 . S
H1273 C1281 0.930 . S
H1274 C1282 0.930 . S
H1275 C1283 0.930 . S
H1276 C1286 0.930 . S
H1277 C1287 0.930 . S
C1278 H1272 0.930 . S
C1278 C1279 1.355 . S
C1278 C1280 1.415 . S
C1279 C1278 1.355 . S
C1279 C1281 1.419 . S
C1280 C1278 1.415 . S
C1280 C1285 1.425 . S
C1280 C1287 1.409 . S
C1281 H1273 0.930 . S
C1281 C1279 1.419 . S
C1281 C1282 1.362 . S
C1282 H1274 0.930 . S
C1282 C1281 1.362 . S
C1282 C1285 1.409 . S
C1283 H1275 0.930 . S
C1283 C1284 1.355 . S
C1283 C1285 1.415 . S
C1284 C1283 1.355 . S
C1284 C1286 1.419 . S
C1285 C1280 1.425 . S
C1285 C1282 1.409 . S
C1285 C1283 1.415 . S
C1286 H1276 0.930 . S
C1286 C1284 1.419 . S
C1286 C1287 1.362 . S
C1287 H1277 0.930 . S
C1287 C1280 1.409 . S
C1287 C1286 1.362 . S
H1288 C1294 0.930 . S
H1289 C1297 0.930 . S
H1290 C1298 0.930 . S
H1291 C1299 0.930 . S
H1292 C1302 0.930 . S
H1293 C1303 0.930 . S
C1294 H1288 0.930 . S
C1294 C1295 1.355 . S
C1294 C1296 1.415 . S
C1295 C1294 1.355 . S
C1295 C1297 1.419 . S
C1296 C1294 1.415 . S
C1296 C1301 1.425 . S
C1296 C1303 1.409 . S
C1297 H1289 0.930 . S
C1297 C1295 1.419 . S
C1297 C1298 1.362 . S
C1298 H1290 0.930 . S
C1298 C1297 1.362 . S
C1298 C1301 1.409 . S
C1299 H1291 0.930 . S
C1299 C1300 1.355 . S
C1299 C1301 1.415 . S
C1300 C1299 1.355 . S
C1300 C1302 1.419 . S
C1301 C1296 1.425 . S
C1301 C1298 1.409 . S
C1301 C1299 1.415 . S
C1302 H1292 0.930 . S
C1302 C1300 1.419 . S
C1302 C1303 1.362 . S
C1303 H1293 0.930 . S
C1303 C1296 1.409 . S
C1303 C1302 1.362 . S
H1304 C1310 0.930 . S
H1305 C1313 0.930 . S
H1306 C1314 0.930 . S
H1307 C1315 0.930 . S
H1308 C1318 0.930 . S
H1309 C1319 0.930 . S
C1310 H1304 0.930 . S
C1310 C1311 1.355 . S
C1310 C1312 1.415 . S
C1311 C1310 1.355 . S
C1311 C1313 1.419 . S
C1312 C1310 1.415 . S
C1312 C1317 1.425 . S
C1312 C1319 1.409 . S
C1313 H1305 0.930 . S
C1313 C1311 1.419 . S
C1313 C1314 1.362 . S
C1314 H1306 0.930 . S
C1314 C1313 1.362 . S
C1314 C1317 1.409 . S
C1315 H1307 0.930 . S
C1315 C1316 1.355 . S
C1315 C1317 1.415 . S
C1316 C1315 1.355 . S
C1316 C1318 1.419 . S
C1317 C1312 1.425 . S
C1317 C1314 1.409 . S
C1317 C1315 1.415 . S
C1318 H1308 0.930 . S
C1318 C1316 1.419 . S
C1318 C1319 1.362 . S
C1319 H1309 0.930 . S
C1319 C1312 1.409 . S
C1319 C1318 1.362 . S
H1320 C1326 0.930 . S
H1321 C1329 0.930 . S
H1322 C1330 0.930 . S
H1323 C1331 0.930 . S
H1324 C1334 0.930 . S
H1325 C1335 0.930 . S
C1326 H1320 0.930 . S
C1326 C1327 1.355 . S
C1326 C1328 1.415 . S
C1327 C1326 1.355 . S
C1327 C1329 1.419 . S
C1328 C1326 1.415 . S
C1328 C1333 1.425 . S
C1328 C1335 1.409 . S
C1329 H1321 0.930 . S
C1329 C1327 1.419 . S
C1329 C1330 1.362 . S
C1330 H1322 0.930 . S
C1330 C1329 1.362 . S
C1330 C1333 1.409 . S
C1331 H1323 0.930 . S
C1331 C1332 1.355 . S
C1331 C1333 1.415 . S
C1332 C1331 1.355 . S
C1332 C1334 1.419 . S
C1333 C1328 1.425 . S
C1333 C1330 1.409 . S
C1333 C1331 1.415 . S
C1334 H1324 0.930 . S
C1334 C1332 1.419 . S
C1334 C1335 1.362 . S
C1335 H1325 0.930 . S
C1335 C1328 1.409 . S
C1335 C1334 1.362 . S
H1336 C1342 0.930 . S
H1337 C1345 0.930 . S
H1338 C1346 0.930 . S
H1339 C1347 0.930 . S
H1340 C1350 0.930 . S
H1341 C1351 0.930 . S
C1342 H1336 0.930 . S
C1342 C1343 1.355 . S
C1342 C1344 1.415 . S
C1343 C1342 1.355 . S
C1343 C1345 1.419 . S
C1344 C1342 1.415 . S
C1344 C1349 1.425 . S
C1344 C1351 1.409 . S
C1345 H1337 0.930 . S
C1345 C1343 1.419 . S
C1345 C1346 1.362 . S
C1346 H1338 0.930 . S
C1346 C1345 1.362 . S
C1346 C1349 1.409 . S
C1347 H1339 0.930 . S
C1347 C1348 1.355 . S
C1347 C1349 1.415 . S
C1348 C1347 1.355 . S
C1348 C1350 1.419 . S
C1349 C1344 1.425 . S
C1349 C1346 1.409 . S
C1349 C1347 1.415 . S
C1350 H1340 0.930 . S
C1350 C1348 1.419 . S
C1350 C1351 1.362 . S
C1351 H1341 0.930 . S
C1351 C1344 1.409 . S
C1351 C1350 1.362 . S
H1352 C1358 0.930 . S
H1353 C1361 0.930 . S
H1354 C1362 0.930 . S
H1355 C1363 0.930 . S
H1356 C1366 0.930 . S
H1357 C1367 0.930 . S
C1358 H1352 0.930 . S
C1358 C1359 1.355 . S
C1358 C1360 1.415 . S
C1359 C1358 1.355 . S
C1359 C1361 1.419 . S
C1360 C1358 1.415 . S
C1360 C1365 1.425 . S
C1360 C1367 1.409 . S
C1361 H1353 0.930 . S
C1361 C1359 1.419 . S
C1361 C1362 1.362 . S
C1362 H1354 0.930 . S
C1362 C1361 1.362 . S
C1362 C1365 1.409 . S
C1363 H1355 0.930 . S
C1363 C1364 1.355 . S
C1363 C1365 1.415 . S
C1364 C1363 1.355 . S
C1364 C1366 1.419 . S
C1365 C1360 1.425 . S
C1365 C1362 1.409 . S
C1365 C1363 1.415 . S
C1366 H1356 0.930 . S
C1366 C1364 1.419 . S
C1366 C1367 1.362 . S
C1367 H1357 0.930 . S
C1367 C1360 1.409 . S
C1367 C1366 1.362 . S
H1368 C1374 0.930 . S
H1369 C1377 0.930 . S
H1370 C1378 0.930 . S
H1371 C1379 0.930 . S
H1372 C1382 0.930 . S
H1373 C1383 0.930 . S
C1374 H1368 0.930 . S
C1374 C1375 1.355 . S
C1374 C1376 1.415 . S
C1375 C1374 1.355 . S
C1375 C1377 1.419 . S
C1376 C1374 1.415 . S
C1376 C1381 1.425 . S
C1376 C1383 1.409 . S
C1377 H1369 0.930 . S
C1377 C1375 1.419 . S
C1377 C1378 1.362 . S
C1378 H1370 0.930 . S
C1378 C1377 1.362 . S
C1378 C1381 1.409 . S
C1379 H1371 0.930 . S
C1379 C1380 1.355 . S
C1379 C1381 1.415 . S
C1380 C1379 1.355 . S
C1380 C1382 1.419 . S
C1381 C1376 1.425 . S
C1381 C1378 1.409 . S
C1381 C1379 1.415 . S
C1382 H1372 0.930 . S
C1382 C1380 1.419 . S
C1382 C1383 1.362 . S
C1383 H1373 0.930 . S
C1383 C1376 1.409 . S
C1383 C1382 1.362 . S
H1384 C1390 0.930 . S
H1385 C1393 0.930 . S
H1386 C1394 0.930 . S
H1387 C1395 0.930 . S
H1388 C1398 0.930 . S
H1389 C1399 0.930 . S
C1390 H1384 0.930 . S
C1390 C1391 1.355 . S
C1390 C1392 1.415 . S
C1391 C1390 1.355 . S
C1391 C1393 1.419 . S
C1392 C1390 1.415 . S
C1392 C1397 1.425 . S
C1392 C1399 1.409 . S
C1393 H1385 0.930 . S
C1393 C1391 1.419 . S
C1393 C1394 1.362 . S
C1394 H1386 0.930 . S
C1394 C1393 1.362 . S
C1394 C1397 1.409 . S
C1395 H1387 0.930 . S
C1395 C1396 1.355 . S
C1395 C1397 1.415 . S
C1396 C1395 1.355 . S
C1396 C1398 1.419 . S
C1397 C1392 1.425 . S
C1397 C1394 1.409 . S
C1397 C1395 1.415 . S
C1398 H1388 0.930 . S
C1398 C1396 1.419 . S
C1398 C1399 1.362 . S
C1399 H1389 0.930 . S
C1399 C1392 1.409 . S
C1399 C1398 1.362 . S
H1400 C1406 0.930 . S
H1401 C1409 0.930 . S
H1402 C1410 0.930 . S
H1403 C1411 0.930 . S
H1404 C1414 0.930 . S
H1405 C1415 0.930 . S
C1406 H1400 0.930 . S
C1406 C1407 1.355 . S
C1406 C1408 1.415 . S
C1407 C1406 1.355 . S
C1407 C1409 1.419 . S
C1408 C1406 1.415 . S
C1408 C1413 1.425 . S
C1408 C1415 1.409 . S
C1409 H1401 0.930 . S
C1409 C1407 1.419 . S
C1409 C1410 1.362 . S
C1410 H1402 0.930 . S
C1410 C1409 1.362 . S
C1410 C1413 1.409 . S
C1411 H1403 0.930 . S
C1411 C1412 1.355 . S
C1411 C1413 1.415 . S
C1412 C1411 1.355 . S
C1412 C1414 1.419 . S
C1413 C1408 1.425 . S
C1413 C1410 1.409 . S
C1413 C1411 1.415 . S
C1414 H1404 0.930 . S
C1414 C1412 1.419 . S
C1414 C1415 1.362 . S
C1415 H1405 0.930 . S
C1415 C1408 1.409 . S
C1415 C1414 1.362 . S
H1416 C1422 0.930 . S
H1417 C1425 0.930 . S
H1418 C1426 0.930 . S
H1419 C1427 0.930 . S
H1420 C1430 0.930 . S
H1421 C1431 0.930 . S
C1422 H1416 0.930 . S
C1422 C1423 1.355 . S
C1422 C1424 1.415 . S
C1423 C1422 1.355 . S
C1423 C1425 1.419 . S
C1424 C1422 1.415 . S
C1424 C1429 1.425 . S
C1424 C1431 1.409 . S
C1425 H1417 0.930 . S
C1425 C1423 1.419 . S
C1425 C1426 1.362 . S
C1426 H1418 0.930 . S
C1426 C1425 1.362 . S
C1426 C1429 1.409 . S
C1427 H1419 0.930 . S
C1427 C1428 1.355 . S
C1427 C1429 1.415 . S
C1428 C1427 1.355 . S
C1428 C1430 1.419 . S
C1429 C1424 1.425 . S
C1429 C1426 1.409 . S
C1429 C1427 1.415 . S
C1430 H1420 0.930 . S
C1430 C1428 1.419 . S
C1430 C1431 1.362 . S
C1431 H1421 0.930 . S
C1431 C1424 1.409 . S
C1431 C1430 1.362 . S
H1432 C1438 0.930 . S
H1433 C1441 0.930 . S
H1434 C1442 0.930 . S
H1435 C1443 0.930 . S
H1436 C1446 0.930 . S
H1437 C1447 0.930 . S
C1438 H1432 0.930 . S
C1438 C1439 1.355 . S
C1438 C1440 1.415 . S
C1439 C1438 1.355 . S
C1439 C1441 1.419 . S
C1440 C1438 1.415 . S
C1440 C1445 1.425 . S
C1440 C1447 1.409 . S
C1441 H1433 0.930 . S
C1441 C1439 1.419 . S
C1441 C1442 1.362 . S
C1442 H1434 0.930 . S
C1442 C1441 1.362 . S
C1442 C1445 1.409 . S
C1443 H1435 0.930 . S
C1443 C1444 1.355 . S
C1443 C1445 1.415 . S
C1444 C1443 1.355 . S
C1444 C1446 1.419 . S
C1445 C1440 1.425 . S
C1445 C1442 1.409 . S
C1445 C1443 1.415 . S
C1446 H1436 0.930 . S
C1446 C1444 1.419 . S
C1446 C1447 1.362 . S
C1447 H1437 0.930 . S
C1447 C1440 1.409 . S
C1447 C1446 1.362 . S
H1448 C1454 0.930 . S
H1449 C1457 0.930 . S
H1450 C1458 0.930 . S
H1451 C1459 0.930 . S
H1452 C1462 0.930 . S
H1453 C1463 0.930 . S
C1454 H1448 0.930 . S
C1454 C1455 1.355 . S
C1454 C1456 1.415 . S
C1455 C1454 1.355 . S
C1455 C1457 1.419 . S
C1456 C1454 1.415 . S
C1456 C1461 1.425 . S
C1456 C1463 1.409 . S
C1457 H1449 0.930 . S
C1457 C1455 1.419 . S
C1457 C1458 1.362 . S
C1458 H1450 0.930 . S
C1458 C1457 1.362 . S
C1458 C1461 1.409 . S
C1459 H1451 0.930 . S
C1459 C1460 1.355 . S
C1459 C1461 1.415 . S
C1460 C1459 1.355 . S
C1460 C1462 1.419 . S
C1461 C1456 1.425 . S
C1461 C1458 1.409 . S
C1461 C1459 1.415 . S
C1462 H1452 0.930 . S
C1462 C1460 1.419 . S
C1462 C1463 1.362 . S
C1463 H1453 0.930 . S
C1463 C1456 1.409 . S
C1463 C1462 1.362 . S
H1464 C1470 0.930 . S
H1465 C1473 0.930 . S
H1466 C1474 0.930 . S
H1467 C1475 0.930 . S
H1468 C1478 0.930 . S
H1469 C1479 0.930 . S
C1470 H1464 0.930 . S
C1470 C1471 1.355 . S
C1470 C1472 1.415 . S
C1471 C1470 1.355 . S
C1471 C1473 1.419 . S
C1472 C1470 1.415 . S
C1472 C1477 1.425 . S
C1472 C1479 1.409 . S
C1473 H1465 0.930 . S
C1473 C1471 1.419 . S
C1473 C1474 1.362 . S
C1474 H1466 0.930 . S
C1474 C1473 1.362 . S
C1474 C1477 1.409 . S
C1475 H1467 0.930 . S
C1475 C1476 1.355 . S
C1475 C1477 1.415 . S
C1476 C1475 1.355 . S
C1476 C1478 1.419 . S
C1477 C1472 1.425 . S
C1477 C1474 1.409 . S
C1477 C1475 1.415 . S
C1478 H1468 0.930 . S
C1478 C1476 1.419 . S
C1478 C1479 1.362 . S
C1479 H1469 0.930 . S
C1479 C1472 1.409 . S
C1479 C1478 1.362 . S
H1480 C1486 0.930 . S
H1481 C1489 0.930 . S
H1482 C1490 0.930 . S
H1483 C1491 0.930 . S
H1484 C1494 0.930 . S
H1485 C1495 0.930 . S
C1486 H1480 0.930 . S
C1486 C1487 1.355 . S
C1486 C1488 1.415 . S
C1487 C1486 1.355 . S
C1487 C1489 1.419 . S
C1488 C1486 1.415 . S
C1488 C1493 1.425 . S
C1488 C1495 1.409 . S
C1489 H1481 0.930 . S
C1489 C1487 1.419 . S
C1489 C1490 1.362 . S
C1490 H1482 0.930 . S
C1490 C1489 1.362 . S
C1490 C1493 1.409 . S
C1491 H1483 0.930 . S
C1491 C1492 1.355 . S
C1491 C1493 1.415 . S
C1492 C1491 1.355 . S
C1492 C1494 1.419 . S
C1493 C1488 1.425 . S
C1493 C1490 1.409 . S
C1493 C1491 1.415 . S
C1494 H1484 0.930 . S
C1494 C1492 1.419 . S
C1494 C1495 1.362 . S
C1495 H1485 0.930 . S
C1495 C1488 1.409 . S
C1495 C1494 1.362 . S
H1496 C1502 0.930 . S
H1497 C1505 0.930 . S
H1498 C1506 0.930 . S
H1499 C1507 0.930 . S
H1500 C1510 0.930 . S
H1501 C1511 0.930 . S
C1502 H1496 0.930 . S
C1502 C1503 1.355 . S
C1502 C1504 1.415 . S
C1503 C1502 1.355 . S
C1503 C1505 1.419 . S
C1504 C1502 1.415 . S
C1504 C1509 1.425 . S
C1504 C1511 1.409 . S
C1505 H1497 0.930 . S
C1505 C1503 1.419 . S
C1505 C1506 1.362 . S
C1506 H1498 0.930 . S
C1506 C1505 1.362 . S
C1506 C1509 1.409 . S
C1507 H1499 0.930 . S
C1507 C1508 1.355 . S
C1507 C1509 1.415 . S
C1508 C1507 1.355 . S
C1508 C1510 1.419 . S
C1509 C1504 1.425 . S
C1509 C1506 1.409 . S
C1509 C1507 1.415 . S
C1510 H1500 0.930 . S
C1510 C1508 1.419 . S
C1510 C1511 1.362 . S
C1511 H1501 0.930 . S
C1511 C1504 1.409 . S
C1511 C1510 1.362 . S
H1512 C1518 0.930 . S
H1513 C1521 0.930 . S
H1514 C1522 0.930 . S
H1515 C1523 0.930 . S
H1516 C1526 0.930 . S
H1517 C1527 0.930 . S
C1518 H1512 0.930 . S
C1518 C1519 1.355 . S
C1518 C1520 1.415 . S
C1519 C1518 1.355 . S
C1519 C1521 1.419 . S
C1520 C1518 1.415 . S
C1520 C1525 1.425 . S
C1520 C1527 1.409 . S
C1521 H1513 0.930 . S
C1521 C1519 1.419 . S
C1521 C1522 1.362 . S
C1522 H1514 0.930 . S
C1522 C1521 1.362 . S
C1522 C1525 1.409 . S
C1523 H1515 0.930 . S
C1523 C1524 1.355 . S
C1523 C1525 1.415 . S
C1524 C1523 1.355 . S
C1524 C1526 1.419 . S
C1525 C1520 1.425 . S
C1525 C1522 1.409 . S
C1525 C1523 1.415 . S
C1526 H1516 0.930 . S
C1526 C1524 1.419 . S
C1526 C1527 1.362 . S
C1527 H1517 0.930 . S
C1527 C1520 1.409 . S
C1527 C1526 1.362 . S
H1528 C1534 0.930 . S
H1529 C1537 0.930 . S
H1530 C1538 0.930 . S
H1531 C1539 0.930 . S
H1532 C1542 0.930 . S
H1533 C1543 0.930 . S
C1534 H1528 0.930 . S
C1534 C1535 1.355 . S
C1534 C1536 1.415 . S
C1535 C1534 1.355 . S
C1535 C1537 1.419 . S
C1536 C1534 1.415 . S
C1536 C1541 1.425 . S
C1536 C1543 1.409 . S
C1537 H1529 0.930 . S
C1537 C1535 1.419 . S
C1537 C1538 1.362 . S
C1538 H1530 0.930 . S
C1538 C1537 1.362 . S
C1538 C1541 1.409 . S
C1539 H1531 0.930 . S
C1539 C1540 1.355 . S
C1539 C1541 1.415 . S
C1540 C1539 1.355 . S
C1540 C1542 1.419 . S
C1541 C1536 1.425 . S
C1541 C1538 1.409 . S
C1541 C1539 1.415 . S
C1542 H1532 0.930 . S
C1542 C1540 1.419 . S
C1542 C1543 1.362 . S
C1543 H1533 0.930 . S
C1543 C1536 1.409 . S
C1543 C1542 1.362 . S
H1544 C1550 0.930 . S
H1545 C1553 0.930 . S
H1546 C1554 0.930 . S
H1547 C1555 0.930 . S
H1548 C1558 0.930 . S
H1549 C1559 0.930 . S
C1550 H1544 0.930 . S
C1550 C1551 1.355 . S
C1550 C1552 1.415 . S
C1551 C1550 1.355 . S
C1551 C1553 1.419 . S
C1552 C1550 1.415 . S
C1552 C1557 1.425 . S
C1552 C1559 1.409 . S
C1553 H1545 0.930 . S
C1553 C1551 1.419 . S
C1553 C1554 1.362 . S
C1554 H1546 0.930 . S
C1554 C1553 1.362 . S
C1554 C1557 1.409 . S
C1555 H1547 0.930 . S
C1555 C1556 1.355 . S
C1555 C1557 1.415 . S
C1556 C1555 1.355 . S
C1556 C1558 1.419 . S
C1557 C1552 1.425 . S
C1557 C1554 1.409 . S
C1557 C1555 1.415 . S
C1558 H1548 0.930 . S
C1558 C1556 1.419 . S
C1558 C1559 1.362 . S
C1559 H1549 0.930 . S
C1559 C1552 1.409 . S
C1559 C1558 1.362 . S
H1560 C1566 0.930 . S
H1561 C1569 0.930 . S
H1562 C1570 0.930 . S
H1563 C1571 0.930 . S
H1564 C1574 0.930 . S
H1565 C1575 0.930 . S
C1566 H1560 0.930 . S
C1566 C1567 1.355 . S
C1566 C1568 1.415 . S
C1567 C1566 1.355 . S
C1567 C1569 1.419 . S
C1568 C1566 1.415 . S
C1568 C1573 1.425 . S
C1568 C1575 1.409 . S
C1569 H1561 0.930 . S
C1569 C1567 1.419 . S
C1569 C1570 1.362 . S
C1570 H1562 0.930 . S
C1570 C1569 1.362 . S
C1570 C1573 1.409 . S
C1571 H1563 0.930 . S
C1571 C1572 1.355 . S
C1571 C1573 1.415 . S
C1572 C1571 1.355 . S
C1572 C1574 1.419 . S
C1573 C1568 1.425 . S
C1573 C1570 1.409 . S
C1573 C1571 1.415 . S
C1574 H1564 0.930 . S
C1574 C1572 1.419 . S
C1574 C1575 1.362 . S
C1575 H1565 0.930 . S
C1575 C1568 1.409 . S
C1575 C1574 1.362 . S
H1576 C1582 0.930 . S
H1577 C1585 0.930 . S
H1578 C1586 0.930 . S
H1579 C1587 0.930 . S
H1580 C1590 0.930 . S
H1581 C1591 0.930 . S
C1582 H1576 0.930 . S
C1582 C1583 1.355 . S
C1582 C1584 1.415 . S
C1583 C1582 1.355 . S
C1583 C1585 1.419 . S
C1584 C1582 1.415 . S
C1584 C1589 1.425 . S
C1584 C1591 1.409 . S
C1585 H1577 0.930 . S
C1585 C1583 1.419 . S
C1585 C1586 1.362 . S
C1586 H1578 0.930 . S
C1586 C1585 1.362 . S
C1586 C1589 1.409 . S
C1587 H1579 0.930 . S
C1587 C1588 1.355 . S
C1587 C1589 1.415 . S
C1588 C1587 1.355 . S
C1588 C1590 1.419 . S
C1589 C1584 1.425 . S
C1589 C1586 1.409 . S
C1589 C1587 1.415 . S
C1590 H1580 0.930 . S
C1590 C1588 1.419 . S
C1590 C1591 1.362 . S
C1591 H1581 0.930 . S
C1591 C1584 1.409 . S
C1591 C1590 1.362 . S
H1592 C1598 0.930 . S
H1593 C1601 0.930 . S
H1594 C1602 0.930 . S
H1595 C1603 0.930 . S
H1596 C1606 0.930 . S
H1597 C1607 0.930 . S
C1598 H1592 0.930 . S
C1598 C1599 1.355 . S
C1598 C1600 1.415 . S
C1599 C1598 1.355 . S
C1599 C1601 1.419 . S
C1600 C1598 1.415 . S
C1600 C1605 1.425 . S
C1600 C1607 1.409 . S
C1601 H1593 0.930 . S
C1601 C1599 1.419 . S
C1601 C1602 1.362 . S
C1602 H1594 0.930 . S
C1602 C1601 1.362 . S
C1602 C1605 1.409 . S
C1603 H1595 0.930 . S
C1603 C1604 1.355 . S
C1603 C1605 1.415 . S
C1604 C1603 1.355 . S
C1604 C1606 1.419 . S
C1605 C1600 1.425 . S
C1605 C1602 1.409 . S
C1605 C1603 1.415 . S
C1606 H1596 0.930 . S
C1606 C1604 1.419 . S
C1606 C1607 1.362 . S
C1607 H1597 0.930 . S
C1607 C1600 1.409 . S
C1607 C1606 1.362 . S
H1608 C1614 0.930 . S
H1609 C1617 0.930 . S
H1610 C1618 0.930 . S
H1611 C1619 0.930 . S
H1612 C1622 0.930 . S
H1613 C1623 0.930 . S
C1614 H1608 0.930 . S
C1614 C1615 1.355 . S
C1614 C1616 1.415 . S
C1615 C1614 1.355 . S
C1615 C1617 1.419 . S
C1616 C1614 1.415 . S
C1616 C1621 1.425 . S
C1616 C1623 1.409 . S
C1617 H1609 0.930 . S
C1617 C1615 1.419 . S
C1617 C1618 1.362 . S
C1618 H1610 0.930 . S
C1618 C1617 1.362 . S
C1618 C1621 1.409 . S
C1619 H1611 0.930 . S
C1619 C1620 1.355 . S
C1619 C1621 1.415 . S
C1620 C1619 1.355 . S
C1620 C1622 1.419 . S
C1621 C1616 1.425 . S
C1621 C1618 1.409 . S
C1621 C1619 1.415 . S
C1622 H1612 0.930 . S
C1622 C1620 1.419 . S
C1622 C1623 1.362 . S
C1623 H1613 0.930 . S
C1623 C1616 1.409 . S
C1623 C1622 1.362 . S
H1624 C1630 0.930 . S
H1625 C1633 0.930 . S
H1626 C1634 0.930 . S
H1627 C1635 0.930 . S
H1628 C1638 0.930 . S
H1629 C1639 0.930 . S
C1630 H1624 0.930 . S
C1630 C1631 1.355 . S
C1630 C1632 1.415 . S
C1631 C1630 1.355 . S
C1631 C1633 1.419 . S
C1632 C1630 1.415 . S
C1632 C1637 1.425 . S
C1632 C1639 1.409 . S
C1633 H1625 0.930 . S
C1633 C1631 1.419 . S
C1633 C1634 1.362 . S
C1634 H1626 0.930 . S
C1634 C1633 1.362 . S
C1634 C1637 1.409 . S
C1635 H1627 0.930 . S
C1635 C1636 1.355 . S
C1635 C1637 1.415 . S
C1636 C1635 1.355 . S
C1636 C1638 1.419 . S
C1637 C1632 1.425 . S
C1637 C1634 1.409 . S
C1637 C1635 1.415 . S
C1638 H1628 0.930 . S
C1638 C1636 1.419 . S
C1638 C1639 1.362 . S
C1639 H1629 0.930 . S
C1639 C1632 1.409 . S
C1639 C1638 1.362 . S
H1640 C1646 0.930 . S
H1641 C1649 0.930 . S
H1642 C1650 0.930 . S
H1643 C1651 0.930 . S
H1644 C1654 0.930 . S
H1645 C1655 0.930 . S
C1646 H1640 0.930 . S
C1646 C1647 1.355 . S
C1646 C1648 1.415 . S
C1647 C1646 1.355 . S
C1647 C1649 1.419 . S
C1648 C1646 1.415 . S
C1648 C1653 1.425 . S
C1648 C1655 1.409 . S
C1649 H1641 0.930 . S
C1649 C1647 1.419 . S
C1649 C1650 1.362 . S
C1650 H1642 0.930 . S
C1650 C1649 1.362 . S
C1650 C1653 1.409 . S
C1651 H1643 0.930 . S
C1651 C1652 1.355 . S
C1651 C1653 1.415 . S
C1652 C1651 1.355 . S
C1652 C1654 1.419 . S
C1653 C1648 1.425 . S
C1653 C1650 1.409 . S
C1653 C1651 1.415 . S
C1654 H1644 0.930 . S
C1654 C1652 1.419 . S
C1654 C1655 1.362 . S
C1655 H1645 0.930 . S
C1655 C1648 1.409 . S
C1655 C1654 1.362 . S
H1656 C1662 0.930 . S
H1657 C1665 0.930 . S
H1658 C1666 0.930 . S
H1659 C1667 0.930 . S
H1660 C1670 0.930 . S
H1661 C1671 0.930 . S
C1662 H1656 0.930 . S
C1662 C1663 1.355 . S
C1662 C1664 1.415 . S
C1663 C1662 1.355 . S
C1663 C1665 1.419 . S
C1664 C1662 1.415 . S
C1664 C1669 1.425 . S
C1664 C1671 1.409 . S
C1665 H1657 0.930 . S
C1665 C1663 1.419 . S
C1665 C1666 1.362 . S
C1666 H1658 0.930 . S
C1666 C1665 1.362 . S
C1666 C1669 1.409 . S
C1667 H1659 0.930 . S
C1667 C1668 1.355 . S
C1667 C1669 1.415 . S
C1668 C1667 1.355 . S
C1668 C1670 1.419 . S
C1669 C1664 1.425 . S
C1669 C1666 1.409 . S
C1669 C1667 1.415 . S
C1670 H1660 0.930 . S
C1670 C1668 1.419 . S
C1670 C1671 1.362 . S
C1671 H1661 0.930 . S
C1671 C1664 1.409 . S
C1671 C1670 1.362 . S
H1672 C1678 0.930 . S
H1673 C1681 0.930 . S
H1674 C1682 0.930 . S
H1675 C1683 0.930 . S
H1676 C1686 0.930 . S
H1677 C1687 0.930 . S
C1678 H1672 0.930 . S
C1678 C1679 1.355 . S
C1678 C1680 1.415 . S
C1679 C1678 1.355 . S
C1679 C1681 1.419 . S
C1680 C1678 1.415 . S
C1680 C1685 1.425 . S
C1680 C1687 1.409 . S
C1681 H1673 0.930 . S
C1681 C1679 1.419 . S
C1681 C1682 1.362 . S
C1682 H1674 0.930 . S
C1682 C1681 1.362 . S
C1682 C1685 1.409 . S
C1683 H1675 0.930 . S
C1683 C1684 1.355 . S
C1683 C1685 1.415 . S
C1684 C1683 1.355 . S
C1684 C1686 1.419 . S
C1685 C1680 1.425 . S
C1685 C1682 1.409 . S
C1685 C1683 1.415 . S
C1686 H1676 0.930 . S
C1686 C1684 1.419 . S
C1686 C1687 1.362 . S
C1687 H1677 0.930 . S
C1687 C1680 1.409 . S
C1687 C1686 1.362 . S
H1688 C1694 0.930 . S
H1689 C1697 0.930 . S
H1690 C1698 0.930 . S
H1691 C1699 0.930 . S
H1692 C1702 0.930 . S
H1693 C1703 0.930 . S
C1694 H1688 0.930 . S
C1694 C1695 1.355 . S
C1694 C1696 1.415 . S
C1695 C1694 1.355 . S
C1695 C1697 1.419 . S
C1696 C1694 1.415 . S
C1696 C1701 1.425 . S
C1696 C1703 1.409 . S
C1697 H1689 0.930 . S
C1697 C1695 1.419 . S
C1697 C1698 1.362 . S
C1698 H1690 0.930 . S
C1698 C1697 1.362 . S
C1698 C1701 1.409 . S
C1699 H1691 0.930 . S
C1699 C1700 1.355 . S
C1699 C1701 1.415 . S
C1700 C1699 1.355 . S
C1700 C1702 1.419 . S
C1701 C1696 1.425 . S
C1701 C1698 1.409 . S
C1701 C1699 1.415 . S
C1702 H1692 0.930 . S
C1702 C1700 1.419 . S
C1702 C1703 1.362 . S
C1703 H1693 0.930 . S
C1703 C1696 1.409 . S
C1703 C1702 1.362 . S
H1704 C1710 0.930 . S
H1705 C1713 0.930 . S
H1706 C1714 0.930 . S
H1707 C1715 0.930 . S
H1708 C1718 0.930 . S
H1709 C1719 0.930 . S
C1710 H1704 0.930 . S
C1710 C1711 1.355 . S
C1710 C1712 1.415 . S
C1711 C1710 1.355 . S
C1711 C1713 1.419 . S
C1712 C1710 1.415 . S
C1712 C1717 1.425 . S
C1712 C1719 1.409 . S
C1713 H1705 0.930 . S
C1713 C1711 1.419 . S
C1713 C1714 1.362 . S
C1714 H1706 0.930 . S
C1714 C1713 1.362 . S
C1714 C1717 1.409 . S
C1715 H1707 0.930 . S
C1715 C1716 1.355 . S
C1715 C1717 1.415 . S
C1716 C1715 1.355 . S
C1716 C1718 1.419 . S
C1717 C1712 1.425 . S
C1717 C1714 1.409 . S
C1717 C1715 1.415 . S
C1718 H1708 0.930 . S
C1718 C1716 1.419 . S
C1718 C1719 1.362 . S
C1719 H1709 0.930 . S
C1719 C1712 1.409 . S
C1719 C1718 1.362 . S
H1720 C1726 0.930 . S
H1721 C1729 0.930 . S
H1722 C1730 0.930 . S
H1723 C1731 0.930 . S
H1724 C1734 0.930 . S
H1725 C1735 0.930 . S
C1726 H1720 0.930 . S
C1726 C1727 1.355 . S
C1726 C1728 1.415 . S
C1727 C1726 1.355 . S
C1727 C1729 1.419 . S
C1728 C1726 1.415 . S
C1728 C1733 1.425 . S
C1728 C1735 1.409 . S
C1729 H1721 0.930 . S
C1729 C1727 1.419 . S
C1729 C1730 1.362 . S
C1730 H1722 0.930 . S
C1730 C1729 1.362 . S
C1730 C1733 1.409 . S
C1731 H1723 0.930 . S
C1731 C1732 1.355 . S
C1731 C1733 1.415 . S
C1732 C1731 1.355 . S
C1732 C1734 1.419 . S
C1733 C1728 1.425 . S
C1733 C1730 1.409 . S
C1733 C1731 1.415 . S
C1734 H1724 0.930 . S
C1734 C1732 1.419 . S
C1734 C1735 1.362 . S
C1735 H1725 0.930 . S
C1735 C1728 1.409 . S
C1735 C1734 1.362 . S
H1736 C1742 0.930 . S
H1737 C1745 0.930 . S
H1738 C1746 0.930 . S
H1739 C1747 0.930 . S
H1740 C1750 0.930 . S
H1741 C1751 0.930 . S
C1742 H1736 0.930 . S
C1742 C1743 1.355 . S
C1742 C1744 1.415 . S
C1743 C1742 1.355 . S
C1743 C1745 1.419 . S
C1744 C1742 1.415 . S
C1744 C1749 1.425 . S
C1744 C1751 1.409 . S
C1745 H1737 0.930 . S
C1745 C1743 1.419 . S
C1745 C1746 1.362 . S
C1746 H1738 0.930 . S
C1746 C1745 1.362 . S
C1746 C1749 1.409 . S
C1747 H1739 0.930 . S
C1747 C1748 1.355 . S
C1747 C1749 1.415 . S
C1748 C1747 1.355 . S
C1748 C1750 1.419 . S
C1749 C1744 1.425 . S
C1749 C1746 1.409 . S
C1749 C1747 1.415 . S
C1750 H1740 0.930 . S
C1750 C1748 1.419 . S
C1750 C1751 1.362 . S
C1751 H1741 0.930 . S
C1751 C1744 1.409 . S
C1751 C1750 1.362 . S
H1752 C1758 0.930 . S
H1753 C1761 0.930 . S
H1754 C1762 0.930 . S
H1755 C1763 0.930 . S
H1756 C1766 0.930 . S
H1757 C1767 0.930 . S
C1758 H1752 0.930 . S
C1758 C1759 1.355 . S
C1758 C1760 1.415 . S
C1759 C1758 1.355 . S
C1759 C1761 1.419 . S
C1760 C1758 1.415 . S
C1760 C1765 1.425 . S
C1760 C1767 1.409 . S
C1761 H1753 0.930 . S
C1761 C1759 1.419 . S
C1761 C1762 1.362 . S
C1762 H1754 0.930 . S
C1762 C1761 1.362 . S
C1762 C1765 1.409 . S
C1763 H1755 0.930 . S
C1763 C1764 1.355 . S
C1763 C1765 1.415 . S
C1764 C1763 1.355 . S
C1764 C1766 1.419 . S
C1765 C1760 1.425 . S
C1765 C1762 1.409 . S
C1765 C1763 1.415 . S
C1766 H1756 0.930 . S
C1766 C1764 1.419 . S
C1766 C1767 1.362 . S
C1767 H1757 0.930 . S
C1767 C1760 1.409 . S
C1767 C1766 1.362 . S
H1768 C1774 0.930 . S
H1769 C1777 0.930 . S
H1770 C1778 0.930 . S
H1771 C1779 0.930 . S
H1772 C1782 0.930 . S
H1773 C1783 0.930 . S
C1774 H1768 0.930 . S
C1774 C1775 1.355 . S
C1774 C1776 1.415 . S
C1775 C1774 1.355 . S
C1775 C1777 1.419 . S
C1776 C1774 1.415 . S
C1776 C1781 1.425 . S
C1776 C1783 1.409 . S
C1777 H1769 0.930 . S
C1777 C1775 1.419 . S
C1777 C1778 1.362 . S
C1778 H1770 0.930 . S
C1778 C1777 1.362 . S
C1778 C1781 1.409 . S
C1779 H1771 0.930 . S
C1779 C1780 1.355 . S
C1779 C1781 1.415 . S
C1780 C1779 1.355 . S
C1780 C1782 1.419 . S
C1781 C1776 1.425 . S
C1781 C1778 1.409 . S
C1781 C1779 1.415 . S
C1782 H1772 0.930 . S
C1782 C1780 1.419 . S
C1782 C1783 1.362 . S
C1783 H1773 0.930 . S
C1783 C1776 1.409 . S
C1783 C1782 1.362 . S
H1784 C1790 0.930 . S
H1785 C1793 0.930 . S
H1786 C1794 0.930 . S
H1787 C1795 0.930 . S
H1788 C1798 0.930 . S
H1789 C1799 0.930 . S
C1790 H1784 0.930 . S
C1790 C1791 1.355 . S
C1790 C1792 1.415 . S
C1791 C1790 1.355 . S
C1791 C1793 1.419 . S
C1792 C1790 1.415 . S
C1792 C1797 1.425 . S
C1792 C1799 1.409 . S
C1793 H1785 0.930 . S
C1793 C1791 1.419 . S
C1793 C1794 1.362 . S
C1794 H1786 0.930 . S
C1794 C1793 1.362 . S
C1794 C1797 1.409 . S
C1795 H1787 0.930 . S
C1795 C1796 1.355 . S
C1795 C1797 1.415 . S
C1796 C1795 1.355 . S
C1796 C1798 1.419 . S
C1797 C1792 1.425 . S
C1797 C1794 1.409 . S
C1797 C1795 1.415 . S
C1798 H1788 0.930 . S
C1798 C1796 1.419 . S
C1798 C1799 1.362 . S
C1799 H1789 0.930 . S
C1799 C1792 1.409 . S
C1799 C1798 1.362 . S
H1800 C1806 0.930 . S
H1801 C1809 0.930 . S
H1802 C1810 0.930 . S
H1803 C1811 0.930 . S
H1804 C1814 0.930 . S
H1805 C1815 0.930 . S
C1806 H1800 0.930 . S
C1806 C1807 1.355 . S
C1806 C1808 1.415 . S
C1807 C1806 1.355 . S
C1807 C1809 1.419 . S
C1808 C1806 1.415 . S
C1808 C1813 1.425 . S
C1808 C1815 1.409 . S
C1809 H1801 0.930 . S
C1809 C1807 1.419 . S
C1809 C1810 1.362 . S
C1810 H1802 0.930 . S
C1810 C1809 1.362 . S
C1810 C1813 1.409 . S
C1811 H1803 0.930 . S
C1811 C1812 1.355 . S
C1811 C1813 1.415 . S
C1812 C1811 1.355 . S
C1812 C1814 1.419 . S
C1813 C1808 1.425 . S
C1813 C1810 1.409 . S
C1813 C1811 1.415 . S
C1814 H1804 0.930 . S
C1814 C1812 1.419 . S
C1814 C1815 1.362 . S
C1815 H1805 0.930 . S
C1815 C1808 1.409 . S
C1815 C1814 1.362 . S
H1816 C1822 0.930 . S
H1817 C1825 0.930 . S
H1818 C1826 0.930 . S
H1819 C1827 0.930 . S
H1820 C1830 0.930 . S
H1821 C1831 0.930 . S
C1822 H1816 0.930 . S
C1822 C1823 1.355 . S
C1822 C1824 1.415 . S
C1823 C1822 1.355 . S
C1823 C1825 1.419 . S
C1824 C1822 1.415 . S
C1824 C1829 1.425 . S
C1824 C1831 1.409 . S
C1825 H1817 0.930 . S
C1825 C1823 1.419 . S
C1825 C1826 1.362 . S
C1826 H1818 0.930 . S
C1826 C1825 1.362 . S
C1826 C1829 1.409 . S
C1827 H1819 0.930 . S
C1827 C1828 1.355 . S
C1827 C1829 1.415 . S
C1828 C1827 1.355 . S
C1828 C1830 1.419 . S
C1829 C1824 1.425 . S
C1829 C1826 1.409 . S
C1829 C1827 1.415 . S
C1830 H1820 0.930 . S
C1830 C1828 1.419 . S
C1830 C1831 1.362 . S
C1831 H1821 0.930 . S
C1831 C1824 1.409 . S
C1831 C1830 1.362 . S
H1832 C1838 0.930 . S
H1833 C1841 0.930 . S
H1834 C1842 0.930 . S
H1835 C1843 0.930 . S
H1836 C1846 0.930 . S
H1837 C1847 0.930 . S
C1838 H1832 0.930 . S
C1838 C1839 1.355 . S
C1838 C1840 1.415 . S
C1839 C1838 1.355 . S
C1839 C1841 1.419 . S
C1840 C1838 1.415 . S
C1840 C1845 1.425 . S
C1840 C1847 1.409 . S
C1841 H1833 0.930 . S
C1841 C1839 1.419 . S
C1841 C1842 1.362 . S
C1842 H1834 0.930 . S
C1842 C1841 1.362 . S
C1842 C1845 1.409 . S
C1843 H1835 0.930 . S
C1843 C1844 1.355 . S
C1843 C1845 1.415 . S
C1844 C1843 1.355 . S
C1844 C1846 1.419 . S
C1845 C1840 1.425 . S
C1845 C1842 1.409 . S
C1845 C1843 1.415 . S
C1846 H1836 0.930 . S
C1846 C1844 1.419 . S
C1846 C1847 1.362 . S
C1847 H1837 0.930 . S
C1847 C1840 1.409 . S
C1847 C1846 1.362 . S
H1848 C1854 0.930 . S
H1849 C1857 0.930 . S
H1850 C1858 0.930 . S
H1851 C1859 0.930 . S
H1852 C1862 0.930 . S
H1853 C1863 0.930 . S
C1854 H1848 0.930 . S
C1854 C1855 1.355 . S
C1854 C1856 1.415 . S
C1855 C1854 1.355 . S
C1855 C1857 1.419 . S
C1856 C1854 1.415 . S
C1856 C1861 1.425 . S
C1856 C1863 1.409 . S
C1857 H1849 0.930 . S
C1857 C1855 1.419 . S
C1857 C1858 1.362 . S
C1858 H1850 0.930 . S
C1858 C1857 1.362 . S
C1858 C1861 1.409 . S
C1859 H1851 0.930 . S
C1859 C1860 1.355 . S
C1859 C1861 1.415 . S
C1860 C1859 1.355 . S
C1860 C1862 1.419 . S
C1861 C1856 1.425 . S
C1861 C1858 1.409 . S
C1861 C1859 1.415 . S
C1862 H1852 0.930 . S
C1862 C1860 1.419 . S
C1862 C1863 1.362 . S
C1863 H1853 0.930 . S
C1863 C1856 1.409 . S
C1863 C1862 1.362 . S
H1864 C1870 0.930 . S
H1865 C1873 0.930 . S
H1866 C1874 0.930 . S
H1867 C1875 0.930 . S
H1868 C1878 0.930 . S
H1869 C1879 0.930 . S
C1870 H1864 0.930 . S
C1870 C1871 1.355 . S
C1870 C1872 1.415 . S
C1871 C1870 1.355 . S
C1871 C1873 1.419 . S
C1872 C1870 1.415 . S
C1872 C1877 1.425 . S
C1872 C1879 1.409 . S
C1873 H1865 0.930 . S
C1873 C1871 1.419 . S
C1873 C1874 1.362 . S
C1874 H1866 0.930 . S
C1874 C1873 1.362 . S
C1874 C1877 1.409 . S
C1875 H1867 0.930 . S
C1875 C1876 1.355 . S
C1875 C1877 1.415 . S
C1876 C1875 1.355 . S
C1876 C1878 1.419 . S
C1877 C1872 1.425 . S
C1877 C1874 1.409 . S
C1877 C1875 1.415 . S
C1878 H1868 0.930 . S
C1878 C1876 1.419 . S
C1878 C1879 1.362 . S
C1879 H1869 0.930 . S
C1879 C1872 1.409 . S
C1879 C1878 1.362 . S
H1880 C1886 0.930 . S
H1881 C1889 0.930 . S
H1882 C1890 0.930 . S
H1883 C1891 0.930 . S
H1884 C1894 0.930 . S
H1885 C1895 0.930 . S
C1886 H1880 0.930 . S
C1886 C1887 1.355 . S
C1886 C1888 1.415 . S
C1887 C1886 1.355 . S
C1887 C1889 1.419 . S
C1888 C1886 1.415 . S
C1888 C1893 1.425 . S
C1888 C1895 1.409 . S
C1889 H1881 0.930 . S
C1889 C1887 1.419 . S
C1889 C1890 1.362 . S
C1890 H1882 0.930 . S
C1890 C1889 1.362 . S
C1890 C1893 1.409 . S
C1891 H1883 0.930 . S
C1891 C1892 1.355 . S
C1891 C1893 1.415 . S
C1892 C1891 1.355 . S
C1892 C1894 1.419 . S
C1893 C1888 1.425 . S
C1893 C1890 1.409 . S
C1893 C1891 1.415 . S
C1894 H1884 0.930 . S
C1894 C1892 1.419 . S
C1894 C1895 1.362 . S
C1895 H1885 0.930 . S
C1895 C1888 1.409 . S
C1895 C1894 1.362 . S
H1896 C1902 0.930 . S
H1897 C1905 0.930 . S
H1898 C1906 0.930 . S
H1899 C1907 0.930 . S
H1900 C1910 0.930 . S
H1901 C1911 0.930 . S
C1902 H1896 0.930 . S
C1902 C1903 1.355 . S
C1902 C1904 1.415 . S
C1903 C1902 1.355 . S
C1903 C1905 1.419 . S
C1904 C1902 1.415 . S
C1904 C1909 1.425 . S
C1904 C1911 1.409 . S
C1905 H1897 0.930 . S
C1905 C1903 1.419 . S
C1905 C1906 1.362 . S
C1906 H1898 0.930 . S
C1906 C1905 1.362 . S
C1906 C1909 1.409 . S
C1907 H1899 0.930 . S
C1907 C1908 1.355 . S
C1907 C1909 1.415 . S
C1908 C1907 1.355 . S
C1908 C1910 1.419 . S
C1909 C1904 1.425 . S
C1909 C1906 1.409 . S
C1909 C1907 1.415 . S
C1910 H1900 0.930 . S
C1910 C1908 1.419 . S
C1910 C1911 1.362 . S
C1911 H1901 0.930 . S
C1911 C1904 1.409 . S
C1911 C1910 1.362 . S
H1912 C1918 0.930 . S
H1913 C1921 0.930 . S
H1914 C1922 0.930 . S
H1915 C1923 0.930 . S
H1916 C1926 0.930 . S
H1917 C1927 0.930 . S
C1918 H1912 0.930 . S
C1918 C1919 1.355 . S
C1918 C1920 1.415 . S
C1919 C1918 1.355 . S
C1919 C1921 1.419 . S
C1920 C1918 1.415 . S
C1920 C1925 1.425 . S
C1920 C1927 1.409 . S
C1921 H1913 0.930 . S
C1921 C1919 1.419 . S
C1921 C1922 1.362 . S
C1922 H1914 0.930 . S
C1922 C1921 1.362 . S
C1922 C1925 1.409 . S
C1923 H1915 0.930 . S
C1923 C1924 1.355 . S
C1923 C1925 1.415 . S
C1924 C1923 1.355 . S
C1924 C1926 1.419 . S
C1925 C1920 1.425 . S
C1925 C1922 1.409 . S
C1925 C1923 1.415 . S
C1926 H1916 0.930 . S
C1926 C1924 1.419 . S
C1926 C1927 1.362 . S
C1927 H1917 0.930 . S
C1927 C1920 1.409 . S
C1927 C1926 1.362 . S
H1928 C1934 0.930 . S
H1929 C1937 0.930 . S
H1930 C1938 0.930 . S
H1931 C1939 0.930 . S
H1932 C1942 0.930 . S
H1933 C1943 0.930 . S
C1934 H1928 0.930 . S
C1934 C1935 1.355 . S
C1934 C1936 1.415 . S
C1935 C1934 1.355 . S
C1935 C1937 1.419 . S
C1936 C1934 1.415 . S
C1936 C1941 1.425 . S
C1936 C1943 1.409 . S
C1937 H1929 0.930 . S
C1937 C1935 1.419 . S
C1937 C1938 1.362 . S
C1938 H1930 0.930 . S
C1938 C1937 1.362 . S
C1938 C1941 1.409 . S
C1939 H1931 0.930 . S
C1939 C1940 1.355 . S
C1939 C1941 1.415 . S
C1940 C1939 1.355 . S
C1940 C1942 1.419 . S
C1941 C1936 1.425 . S
C1941 C1938 1.409 . S
C1941 C1939 1.415 . S
C1942 H1932 0.930 . S
C1942 C1940 1.419 . S
C1942 C1943 1.362 . S
C1943 H1933 0.930 . S
C1943 C1936 1.409 . S
C1943 C1942 1.362 . S
H1944 C1950 0.930 . S
H1945 C1953 0.930 . S
H1946 C1954 0.930 . S
H1947 C1955 0.930 . S
H1948 C1958 0.930 . S
H1949 C1959 0.930 . S
C1950 H1944 0.930 . S
C1950 C1951 1.355 . S
C1950 C1952 1.415 . S
C1951 C1950 1.355 . S
C1951 C1953 1.419 . S
C1952 C1950 1.415 . S
C1952 C1957 1.425 . S
C1952 C1959 1.409 . S
C1953 H1945 0.930 . S
C1953 C1951 1.419 . S
C1953 C1954 1.362 . S
C1954 H1946 0.930 . S
C1954 C1953 1.362 . S
C1954 C1957 1.409 . S
C1955 H1947 0.930 . S
C1955 C1956 1.355 . S
C1955 C1957 1.415 . S
C1956 C1955 1.355 . S
C1956 C1958 1.419 . S
C1957 C1952 1.425 . S
C1957 C1954 1.409 . S
C1957 C1955 1.415 . S
C1958 H1948 0.930 . S
C1958 C1956 1.419 . S
C1958 C1959 1.362 . S
C1959 H1949 0.930 . S
C1959 C1952 1.409 . S
C1959 C1958 1.362 . S
H1960 C1966 0.930 . S
H1961 C1969 0.930 . S
H1962 C1970 0.930 . S
H1963 C1971 0.930 . S
H1964 C1974 0.930 . S
H1965 C1975 0.930 . S
C1966 H1960 0.930 . S
C1966 C1967 1.355 . S
C1966 C1968 1.415 . S
C1967 C1966 1.355 . S
C1967 C1969 1.419 . S
C1968 C1966 1.415 . S
C1968 C1973 1.425 . S
C1968 C1975 1.409 . S
C1969 H1961 0.930 . S
C1969 C1967 1.419 . S
C1969 C1970 1.362 . S
C1970 H1962 0.930 . S
C1970 C1969 1.362 . S
C1970 C1973 1.409 . S
C1971 H1963 0.930 . S
C1971 C1972 1.355 . S
C1971 C1973 1.415 . S
C1972 C1971 1.355 . S
C1972 C1974 1.419 . S
C1973 C1968 1.425 . S
C1973 C1970 1.409 . S
C1973 C1971 1.415 . S
C1974 H1964 0.930 . S
C1974 C1972 1.419 . S
C1974 C1975 1.362 . S
C1975 H1965 0.930 . S
C1975 C1968 1.409 . S
C1975 C1974 1.362 . S
H1976 C1982 0.930 . S
H1977 C1985 0.930 . S
H1978 C1986 0.930 . S
H1979 C1987 0.930 . S
H1980 C1990 0.930 . S
H1981 C1991 0.930 . S
C1982 H1976 0.930 . S
C1982 C1983 1.355 . S
C1982 C1984 1.415 . S
C1983 C1982 1.355 . S
C1983 C1985 1.419 . S
C1984 C1982 1.415 . S
C1984 C1989 1.425 . S
C1984 C1991 1.409 . S
C1985 H1977 0.930 . S
C1985 C1983 1.419 . S
C1985 C1986 1.362 . S
C1986 H1978 0.930 . S
C1986 C1985 1.362 . S
C1986 C1989 1.409 . S
C1987 H1979 0.930 . S
C1987 C1988 1.355 . S
C1987 C1989 1.415 . S
C1988 C1987 1.355 . S
C1988 C1990 1.419 . S
C1989 C1984 1.425 . S
C1989 C1986 1.409 . S
C1989 C1987 1.415 . S
C1990 H1980 0.930 . S
C1990 C1988 1.419 . S
C1990 C1991 1.362 . S
C1991 H1981 0.930 . S
C1991 C1984 1.409 . S
C1991 C1990 1.362 . S
H1992 C1998 0.930 . S
H1993 C2001 0.930 . S
H1994 C2002 0.930 . S
H1995 C2003 0.930 . S
H1996 C2006 0.930 . S
H1997 C2007 0.930 . S
C1998 H1992 0.930 . S
C1998 C1999 1.355 . S
C1998 C2000 1.415 . S
C1999 C1998 1.355 . S
C1999 C2001 1.419 . S
C2000 C1998 1.415 . S
C2000 C2005 1.425 . S
C2000 C2007 1.409 . S
C2001 H1993 0.930 . S
C2001 C1999 1.419 . S
C2001 C2002 1.362 . S
C2002 H1994 0.930 . S
C2002 C2001 1.362 . S
C2002 C2005 1.409 . S
C2003 H1995 0.930 . S
C2003 C2004 1.355 . S
C2003 C2005 1.415 . S
C2004 C2003 1.355 . S
C2004 C2006 1.419 . S
C2005 C2000 1.425 . S
C2005 C2002 1.409 . S
C2005 C2003 1.415 . S
C2006 H1996 0.930 . S
C2006 C2004 1.419 . S
C2006 C2007 1.362 . S
C2007 H1997 0.930 . S
C2007 C2000 1.409 . S
C2007 C2006 1.362 . S
H2008 C2014 0.930 . S
H2009 C2017 0.930 . S
H2010 C2018 0.930 . S
H2011 C2019 0.930 . S
H2012 C2022 0.930 . S
H2013 C2023 0.930 . S
C2014 H2008 0.930 . S
C2014 C2015 1.355 . S
C2014 C2016 1.415 . S
C2015 C2014 1.355 . S
C2015 C2017 1.419 . S
C2016 C2014 1.415 . S
C2016 C2021 1.425 . S
C2016 C2023 1.409 . S
C2017 H2009 0.930 . S
C2017 C2015 1.419 . S
C2017 C2018 1.362 . S
C2018 H2010 0.930 . S
C2018 C2017 1.362 . S
C2018 C2021 1.409 . S
C2019 H2011 0.930 . S
C2019 C2020 1.355 . S
C2019 C2021 1.415 . S
C2020 C2019 1.355 . S
C2020 C2022 1.419 . S
C2021 C2016 1.425 . S
C2021 C2018 1.409 . S
C2021 C2019 1.415 . S
C2022 H2012 0.930 . S
C2022 C2020 1.419 . S
C2022 C2023 1.362 . S
C2023 H2013 0.930 . S
C2023 C2016 1.409 . S
C2023 C2022 1.362 . S
H2024 C2030 0.930 . S
H2025 C2033 0.930 . S
H2026 C2034 0.930 . S
H2027 C2035 0.930 . S
H2028 C2038 0.930 . S
H2029 C2039 0.930 . S
C2030 H2024 0.930 . S
C2030 C2031 1.355 . S
C2030 C2032 1.415 . S
C2031 C2030 1.355 . S
C2031 C2033 1.419 . S
C2032 C2030 1.415 . S
C2032 C2037 1.425 . S
C2032 C2039 1.409 . S
C2033 H2025 0.930 . S
C2033 C2031 1.419 . S
C2033 C2034 1.362 . S
C2034 H2026 0.930 . S
C2034 C2033 1.362 . S
C2034 C2037 1.409 . S
C2035 H2027 0.930 . S
C2035 C2036 1.355 . S
C2035 C2037 1.415 . S
C2036 C2035 1.355 . S
C2036 C2038 1.419 . S
C2037 C2032 1.425 . S
C2037 C2034 1.409 . S
C2037 C2035 1.415 . S
C2038 H2028 0.930 . S
C2038 C2036 1.419 . S
C2038 C2039 1.362 . S
C2039 H2029 0.930 . S
C2039 C2032 1.409 . S
C2039 C2038 1.362 . S
H2040 C2046 0.930 . S
H2041 C2049 0.930 . S
H2042 C2050 0.930 . S
H2043 C2051 0.930 . S
H2044 C2054 0.930 . S
H2045 C2055 0.930 . S
C2046 H2040 0.930 . S
C2046 C2047 1.355 . S
C2046 C2048 1.415 . S
C2047 C2046 1.355 . S
C2047 C2049 1.419 . S
C2048 C2046 1.415 . S
C2048 C2053 1.425 . S
C2048 C2055 1.409 . S
C2049 H2041 0.930 . S
C2049 C2047 1.419 . S
C2049 C2050 1.362 . S
C2050 H2042 0.930 . S
C2050 C2049 1.362 . S
C2050 C2053 1.409 . S
C2051 H2043 0.930 . S
C2051 C2052 1.355 . S
C2051 C2053 1.415 . S
C2052 C2051 1.355 . S
C2052 C2054 1.419 . S
C2053 C2048 1.425 . S
C2053 C2050 1.409 . S
C2053 C2051 1.415 . S
C2054 H2044 0.930 . S
C2054 C2052 1.419 . S
C2054 C2055 1.362 . S
C2055 H2045 0.930 . S
C2055 C2048 1.409 . S
C2055 C2054 1.362 . S
H2056 C2062 0.930 . S
H2057 C2065 0.930 . S
H2058 C2066 0.930 . S
H2059 C2067 0.930 . S
H2060 C2070 0.930 . S
H2061 C2071 0.930 . S
C2062 H2056 0.930 . S
C2062 C2063 1.355 . S
C2062 C2064 1.415 . S
C2063 C2062 1.355 . S
C2063 C2065 1.419 . S
C2064 C2062 1.415 . S
C2064 C2069 1.425 . S
C2064 C2071 1.409 . S
C2065 H2057 0.930 . S
C2065 C2063 1.419 . S
C2065 C2066 1.362 . S
C2066 H2058 0.930 . S
C2066 C2065 1.362 . S
C2066 C2069 1.409 . S
C2067 H2059 0.930 . S
C2067 C2068 1.355 . S
C2067 C2069 1.415 . S
C2068 C2067 1.355 . S
C2068 C2070 1.419 . S
C2069 C2064 1.425 . S
C2069 C2066 1.409 . S
C2069 C2067 1.415 . S
C2070 H2060 0.930 . S
C2070 C2068 1.419 . S
C2070 C2071 1.362 . S
C2071 H2061 0.930 . S
C2071 C2064 1.409 . S
C2071 C2070 1.362 . S
H2072 C2078 0.930 . S
H2073 C2081 0.930 . S
H2074 C2082 0.930 . S
H2075 C2083 0.930 . S
H2076 C2086 0.930 . S
H2077 C2087 0.930 . S
C2078 H2072 0.930 . S
C2078 C2079 1.355 . S
C2078 C2080 1.415 . S
C2079 C2078 1.355 . S
C2079 C2081 1.419 . S
C2080 C2078 1.415 . S
C2080 C2085 1.425 . S
C2080 C2087 1.409 . S
C2081 H2073 0.930 . S
C2081 C2079 1.419 . S
C2081 C2082 1.362 . S
C2082 H2074 0.930 . S
C2082 C2081 1.362 . S
C2082 C2085 1.409 . S
C2083 H2075 0.930 . S
C2083 C2084 1.355 . S
C2083 C2085 1.415 . S
C2084 C2083 1.355 . S
C2084 C2086 1.419 . S
C2085 C2080 1.425 . S
C2085 C2082 1.409 . S
C2085 C2083 1.415 . S
C2086 H2076 0.930 . S
C2086 C2084 1.419 . S
C2086 C2087 1.362 . S
C2087 H2077 0.930 . S
C2087 C2080 1.409 . S
C2087 C2086 1.362 . S
H2088 C2094 0.930 . S
H2089 C2097 0.930 . S
H2090 C2098 0.930 . S
H2091 C2099 0.930 . S
H2092 C2102 0.930 . S
H2093 C2103 0.930 . S
C2094 H2088 0.930 . S
C2094 C2095 1.355 . S
C2094 C2096 1.415 . S
C2095 C2094 1.355 . S
C2095 C2097 1.419 . S
C2096 C2094 1.415 . S
C2096 C2101 1.425 . S
C2096 C2103 1.409 . S
C2097 H2089 0.930 . S
C2097 C2095 1.419 . S
C2097 C2098 1.362 . S
C2098 H2090 0.930 . S
C2098 C2097 1.362 . S
C2098 C2101 1.409 . S
C2099 H2091 0.930 . S
C2099 C2100 1.355 . S
C2099 C2101 1.415 . S
C2100 C2099 1.355 . S
C2100 C2102 1.419 . S
C2101 C2096 1.425 . S
C2101 C2098 1.409 . S
C2101 C2099 1.415 . S
C2102 H2092 0.930 . S
C2102 C2100 1.419 . S
C2102 C2103 1.362 . S
C2103 H2093 0.930 . S
C2103 C2096 1.409 . S
C2103 C2102 1.362 . S
H2104 C2110 0.930 . S
H2105 C2113 0.930 . S
H2106 C2114 0.930 . S
H2107 C2115 0.930 . S
H2108 C2118 0.930 . S
H2109 C2119 0.930 . S
C2110 H2104 0.930 . S
C2110 C2111 1.355 . S
C2110 C2112 1.415 . S
C2111 C2110 1.355 . S
C2111 C2113 1.419 . S
C2112 C2110 1.415 . S
C2112 C2117 1.425 . S
C2112 C2119 1.409 . S
C2113 H2105 0.930 . S
C2113 C2111 1.419 . S
C2113 C2114 1.362 . S
C2114 H2106 0.930 . S
C2114 C2113 1.362 . S
C2114 C2117 1.409 . S
C2115 H2107 0.930 . S
C2115 C2116 1.355 . S
C2115 C2117 1.415 . S
C2116 C2115 1.355 . S
C2116 C2118 1.419 . S
C2117 C2112 1.425 . S
C2117 C2114 1.409 . S
C2117 C2115 1.415 . S
C2118 H2108 0.930 . S
C2118 C2116 1.419 . S
C2118 C2119 1.362 . S
C2119 H2109 0.930 . S
C2119 C2112 1.409 . S
C2119 C2118 1.362 . S
H2120 C2126 0.930 . S
H2121 C2129 0.930 . S
H2122 C2130 0.930 . S
H2123 C2131 0.930 . S
H2124 C2134 0.930 . S
H2125 C2135 0.930 . S
C2126 H2120 0.930 . S
C2126 C2127 1.355 . S
C2126 C2128 1.415 . S
C2127 C2126 1.355 . S
C2127 C2129 1.419 . S
C2128 C2126 1.415 . S
C2128 C2133 1.425 . S
C2128 C2135 1.409 . S
C2129 H2121 0.930 . S
C2129 C2127 1.419 . S
C2129 C2130 1.362 . S
C2130 H2122 0.930 . S
C2130 C2129 1.362 . S
C2130 C2133 1.409 . S
C2131 H2123 0.930 . S
C2131 C2132 1.355 . S
C2131 C2133 1.415 . S
C2132 C2131 1.355 . S
C2132 C2134 1.419 . S
C2133 C2128 1.425 . S
C2133 C2130 1.409 . S
C2133 C2131 1.415 . S
C2134 H2124 0.930 . S
C2134 C2132 1.419 . S
C2134 C2135 1.362 . S
C2135 H2125 0.930 . S
C2135 C2128 1.409 . S
C2135 C2134 1.362 . S
H2136 C2142 0.930 . S
H2137 C2145 0.930 . S
H2138 C2146 0.930 . S
H2139 C2147 0.930 . S
H2140 C2150 0.930 . S
H2141 C2151 0.930 . S
C2142 H2136 0.930 . S
C2142 C2143 1.355 . S
C2142 C2144 1.415 . S
C2143 C2142 1.355 . S
C2143 C2145 1.419 . S
C2144 C2142 1.415 . S
C2144 C2149 1.425 . S
C2144 C2151 1.409 . S
C2145 H2137 0.930 . S
C2145 C2143 1.419 . S
C2145 C2146 1.362 . S
C2146 H2138 0.930 . S
C2146 C2145 1.362 . S
C2146 C2149 1.409 . S
C2147 H2139 0.930 . S
C2147 C2148 1.355 . S
C2147 C2149 1.415 . S
C2148 C2147 1.355 . S
C2148 C2150 1.419 . S
C2149 C2144 1.425 . S
C2149 C2146 1.409 . S
C2149 C2147 1.415 . S
C2150 H2140 0.930 . S
C2150 C2148 1.419 . S
C2150 C2151 1.362 . S
C2151 H2141 0.930 . S
C2151 C2144 1.409 . S
C2151 C2150 1.362 . S
H2152 C2158 0.930 . S
H2153 C2161 0.930 . S
H2154 C2162 0.930 . S
H2155 C2163 0.930 . S
H2156 C2166 0.930 . S
H2157 C2167 0.930 . S
C2158 H2152 0.930 . S
C2158 C2159 1.355 . S
C2158 C2160 1.415 . S
C2159 C2158 1.355 . S
C2159 C2161 1.419 . S
C2160 C2158 1.415 . S
C2160 C2165 1.425 . S
C2160 C2167 1.409 . S
C2161 H2153 0.930 . S
C2161 C2159 1.419 . S
C2161 C2162 1.362 . S
C2162 H2154 0.930 . S
C2162 C2161 1.362 . S
C2162 C2165 1.409 . S
C2163 H2155 0.930 . S
C2163 C2164 1.355 . S
C2163 C2165 1.415 . S
C2164 C2163 1.355 . S
C2164 C2166 1.419 . S
C2165 C2160 1.425 . S
C2165 C2162 1.409 . S
C2165 C2163 1.415 . S
C2166 H2156 0.930 . S
C2166 C2164 1.419 . S
C2166 C2167 1.362 . S
C2167 H2157 0.930 . S
C2167 C2160 1.409 . S
C2167 C2166 1.362 . S
H2168 C2174 0.930 . S
H2169 C2177 0.930 . S
H2170 C2178 0.930 . S
H2171 C2179 0.930 . S
H2172 C2182 0.930 . S
H2173 C2183 0.930 . S
C2174 H2168 0.930 . S
C2174 C2175 1.355 . S
C2174 C2176 1.415 . S
C2175 C2174 1.355 . S
C2175 C2177 1.419 . S
C2176 C2174 1.415 . S
C2176 C2181 1.425 . S
C2176 C2183 1.409 . S
C2177 H2169 0.930 . S
C2177 C2175 1.419 . S
C2177 C2178 1.362 . S
C2178 H2170 0.930 . S
C2178 C2177 1.362 . S
C2178 C2181 1.409 . S
C2179 H2171 0.930 . S
C2179 C2180 1.355 . S
C2179 C2181 1.415 . S
C2180 C2179 1.355 . S
C2180 C2182 1.419 . S
C2181 C2176 1.425 . S
C2181 C2178 1.409 . S
C2181 C2179 1.415 . S
C2182 H2172 0.930 . S
C2182 C2180 1.419 . S
C2182 C2183 1.362 . S
C2183 H2173 0.930 . S
C2183 C2176 1.409 . S
C2183 C2182 1.362 . S
H2184 C2190 0.930 . S
H2185 C2193 0.930 . S
H2186 C2194 0.930 . S
H2187 C2195 0.930 . S
H2188 C2198 0.930 . S
H2189 C2199 0.930 . S
C2190 H2184 0.930 . S
C2190 C2191 1.355 . S
C2190 C2192 1.415 . S
C2191 C2190 1.355 . S
C2191 C2193 1.419 . S
C2192 C2190 1.415 . S
C2192 C2197 1.425 . S
C2192 C2199 1.409 . S
C2193 H2185 0.930 . S
C2193 C2191 1.419 . S
C2193 C2194 1.362 . S
C2194 H2186 0.930 . S
C2194 C2193 1.362 . S
C2194 C2197 1.409 . S
C2195 H2187 0.930 . S
C2195 C2196 1.355 . S
C2195 C2197 1.415 . S
C2196 C2195 1.355 . S
C2196 C2198 1.419 . S
C2197 C2192 1.425 . S
C2197 C2194 1.409 . S
C2197 C2195 1.415 . S
C2198 H2188 0.930 . S
C2198 C2196 1.419 . S
C2198 C2199 1.362 . S
C2199 H2189 0.930 . S
C2199 C2192 1.409 . S
C2199 C2198 1.362 . S
H2200 C2206 0.930 . S
H2201 C2209 0.930 . S
H2202 C2210 0.930 . S
H2203 C2211 0.930 . S
H2204 C2214 0.930 . S
H2205 C2215 0.930 . S
C2206 H2200 0.930 . S
C2206 C2207 1.355 . S
C2206 C2208 1.415 . S
C2207 C2206 1.355 . S
C2207 C2209 1.419 . S
C2208 C2206 1.415 . S
C2208 C2213 1.425 . S
C2208 C2215 1.409 . S
C2209 H2201 0.930 . S
C2209 C2207 1.419 . S
C2209 C2210 1.362 . S
C2210 H2202 0.930 . S
C2210 C2209 1.362 . S
C2210 C2213 1.409 . S
C2211 H2203 0.930 . S
C2211 C2212 1.355 . S
C2211 C2213 1.415 . S
C2212 C2211 1.355 . S
C2212 C2214 1.419 . S
C2213 C2208 1.425 . S
C2213 C2210 1.409 . S
C2213 C2211 1.415 . S
C2214 H2204 0.930 . S
C2214 C2212 1.419 . S
C2214 C2215 1.362 . S
C2215 H2205 0.930 . S
C2215 C2208 1.409 . S
C2215 C2214 1.362 . S
H2216 C2222 0.930 . S
H2217 C2225 0.930 . S
H2218 C2226 0.930 . S
H2219 C2227 0.930 . S
H2220 C2230 0.930 . S
H2221 C2231 0.930 . S
C2222 H2216 0.930 . S
C2222 C2223 1.355 . S
C2222 C2224 1.415 . S
C2223 C2222 1.355 . S
C2223 C2225 1.419 . S
C2224 C2222 1.415 . S
C2224 C2229 1.425 . S
C2224 C2231 1.409 . S
C2225 H2217 0.930 . S
C2225 C2223 1.419 . S
C2225 C2226 1.362 . S
C2226 H2218 0.930 . S
C2226 C2225 1.362 . S
C2226 C2229 1.409 . S
C2227 H2219 0.930 . S
C2227 C2228 1.355 . S
C2227 C2229 1.415 . S
C2228 C2227 1.355 . S
C2228 C2230 1.419 . S
C2229 C2224 1.425 . S
C2229 C2226 1.409 . S
C2229 C2227 1.415 . S
C2230 H2220 0.930 . S
C2230 C2228 1.419 . S
C2230 C2231 1.362 . S
C2231 H2221 0.930 . S
C2231 C2224 1.409 . S
C2231 C2230 1.362 . S
H2232 C2238 0.930 . S
H2233 C2241 0.930 . S
H2234 C2242 0.930 . S
H2235 C2243 0.930 . S
H2236 C2246 0.930 . S
H2237 C2247 0.930 . S
C2238 H2232 0.930 . S
C2238 C2239 1.355 . S
C2238 C2240 1.415 . S
C2239 C2238 1.355 . S
C2239 C2241 1.419 . S
C2240 C2238 1.415 . S
C2240 C2245 1.425 . S
C2240 C2247 1.409 . S
C2241 H2233 0.930 . S
C2241 C2239 1.419 . S
C2241 C2242 1.362 . S
C2242 H2234 0.930 . S
C2242 C2241 1.362 . S
C2242 C2245 1.409 . S
C2243 H2235 0.930 . S
C2243 C2244 1.355 . S
C2243 C2245 1.415 . S
C2244 C2243 1.355 . S
C2244 C2246 1.419 . S
C2245 C2240 1.425 . S
C2245 C2242 1.409 . S
C2245 C2243 1.415 . S
C2246 H2236 0.930 . S
C2246 C2244 1.419 . S
C2246 C2247 1.362 . S
C2247 H2237 0.930 . S
C2247 C2240 1.409 . S
C2247 C2246 1.362 . S
H2248 C2254 0.930 . S
H2249 C2257 0.930 . S
H2250 C2258 0.930 . S
H2251 C2259 0.930 . S
H2252 C2262 0.930 . S
H2253 C2263 0.930 . S
C2254 H2248 0.930 . S
C2254 C2255 1.355 . S
C2254 C2256 1.415 . S
C2255 C2254 1.355 . S
C2255 C2257 1.419 . S
C2256 C2254 1.415 . S
C2256 C2261 1.425 . S
C2256 C2263 1.409 . S
C2257 H2249 0.930 . S
C2257 C2255 1.419 . S
C2257 C2258 1.362 . S
C2258 H2250 0.930 . S
C2258 C2257 1.362 . S
C2258 C2261 1.409 . S
C2259 H2251 0.930 . S
C2259 C2260 1.355 . S
C2259 C2261 1.415 . S
C2260 C2259 1.355 . S
C2260 C2262 1.419 . S
C2261 C2256 1.425 . S
C2261 C2258 1.409 . S
C2261 C2259 1.415 . S
C2262 H2252 0.930 . S
C2262 C2260 1.419 . S
C2262 C2263 1.362 . S
C2263 H2253 0.930 . S
C2263 C2256 1.409 . S
C2263 C2262 1.362 . S
H2264 C2270 0.930 . S
H2265 C2273 0.930 . S
H2266 C2274 0.930 . S
H2267 C2275 0.930 . S
H2268 C2278 0.930 . S
H2269 C2279 0.930 . S
C2270 H2264 0.930 . S
C2270 C2271 1.355 . S
C2270 C2272 1.415 . S
C2271 C2270 1.355 . S
C2271 C2273 1.419 . S
C2272 C2270 1.415 . S
C2272 C2277 1.425 . S
C2272 C2279 1.409 . S
C2273 H2265 0.930 . S
C2273 C2271 1.419 . S
C2273 C2274 1.362 . S
C2274 H2266 0.930 . S
C2274 C2273 1.362 . S
C2274 C2277 1.409 . S
C2275 H2267 0.930 . S
C2275 C2276 1.355 . S
C2275 C2277 1.415 . S
C2276 C2275 1.355 . S
C2276 C2278 1.419 . S
C2277 C2272 1.425 . S
C2277 C2274 1.409 . S
C2277 C2275 1.415 . S
C2278 H2268 0.930 . S
C2278 C2276 1.419 . S
C2278 C2279 1.362 . S
C2279 H2269 0.930 . S
C2279 C2272 1.409 . S
C2279 C2278 1.362 . S
H2280 C2286 0.930 . S
H2281 C2289 0.930 . S
H2282 C2290 0.930 . S
H2283 C2291 0.930 . S
H2284 C2294 0.930 . S
H2285 C2295 0.930 . S
C2286 H2280 0.930 . S
C2286 C2287 1.355 . S
C2286 C2288 1.415 . S
C2287 C2286 1.355 . S
C2287 C2289 1.419 . S
C2288 C2286 1.415 . S
C2288 C2293 1.425 . S
C2288 C2295 1.409 . S
C2289 H2281 0.930 . S
C2289 C2287 1.419 . S
C2289 C2290 1.362 . S
C2290 H2282 0.930 . S
C2290 C2289 1.362 . S
C2290 C2293 1.409 . S
C2291 H2283 0.930 . S
C2291 C2292 1.355 . S
C2291 C2293 1.415 . S
C2292 C2291 1.355 . S
C2292 C2294 1.419 . S
C2293 C2288 1.425 . S
C2293 C2290 1.409 . S
C2293 C2291 1.415 . S
C2294 H2284 0.930 . S
C2294 C2292 1.419 . S
C2294 C2295 1.362 . S
C2295 H2285 0.930 . S
C2295 C2288 1.409 . S
C2295 C2294 1.362 . S
H2296 C2302 0.930 . S
H2297 C2305 0.930 . S
H2298 C2306 0.930 . S
H2299 C2307 0.930 . S
H2300 C2310 0.930 . S
H2301 C2311 0.930 . S
C2302 H2296 0.930 . S
C2302 C2303 1.355 . S
C2302 C2304 1.415 . S
C2303 C2302 1.355 . S
C2303 C2305 1.419 . S
C2304 C2302 1.415 . S
C2304 C2309 1.425 . S
C2304 C2311 1.409 . S
C2305 H2297 0.930 . S
C2305 C2303 1.419 . S
C2305 C2306 1.362 . S
C2306 H2298 0.930 . S
C2306 C2305 1.362 . S
C2306 C2309 1.409 . S
C2307 H2299 0.930 . S
C2307 C2308 1.355 . S
C2307 C2309 1.415 . S
C2308 C2307 1.355 . S
C2308 C2310 1.419 . S
C2309 C2304 1.425 . S
C2309 C2306 1.409 . S
C2309 C2307 1.415 . S
C2310 H2300 0.930 . S
C2310 C2308 1.419 . S
C2310 C2311 1.362 . S
C2311 H2301 0.930 . S
C2311 C2304 1.409 . S
C2311 C2310 1.362 . S
H2312 C2318 0.930 . S
H2313 C2321 0.930 . S
H2314 C2322 0.930 . S
H2315 C2323 0.930 . S
H2316 C2326 0.930 . S
H2317 C2327 0.930 . S
C2318 H2312 0.930 . S
C2318 C2319 1.355 . S
C2318 C2320 1.415 . S
C2319 C2318 1.355 . S
C2319 C2321 1.419 . S
C2320 C2318 1.415 . S
C2320 C2325 1.425 . S
C2320 C2327 1.409 . S
C2321 H2313 0.930 . S
C2321 C2319 1.419 . S
C2321 C2322 1.362 . S
C2322 H2314 0.930 . S
C2322 C2321 1.362 . S
C2322 C2325 1.409 . S
C2323 H2315 0.930 . S
C2323 C2324 1.355 . S
C2323 C2325 1.415 . S
C2324 C2323 1.355 . S
C2324 C2326 1.419 . S
C2325 C2320 1.425 . S
C2325 C2322 1.409 . S
C2325 C2323 1.415 . S
C2326 H2316 0.930 . S
C2326 C2324 1.419 . S
C2326 C2327 1.362 . S
C2327 H2317 0.930 . S
C2327 C2320 1.409 . S
C2327 C2326 1.362 . S
H2328 C2334 0.930 . S
H2329 C2337 0.930 . S
H2330 C2338 0.930 . S
H2331 C2339 0.930 . S
H2332 C2342 0.930 . S
H2333 C2343 0.930 . S
C2334 H2328 0.930 . S
C2334 C2335 1.355 . S
C2334 C2336 1.415 . S
C2335 C2334 1.355 . S
C2335 C2337 1.419 . S
C2336 C2334 1.415 . S
C2336 C2341 1.425 . S
C2336 C2343 1.409 . S
C2337 H2329 0.930 . S
C2337 C2335 1.419 . S
C2337 C2338 1.362 . S
C2338 H2330 0.930 . S
C2338 C2337 1.362 . S
C2338 C2341 1.409 . S
C2339 H2331 0.930 . S
C2339 C2340 1.355 . S
C2339 C2341 1.415 . S
C2340 C2339 1.355 . S
C2340 C2342 1.419 . S
C2341 C2336 1.425 . S
C2341 C2338 1.409 . S
C2341 C2339 1.415 . S
C2342 H2332 0.930 . S
C2342 C2340 1.419 . S
C2342 C2343 1.362 . S
C2343 H2333 0.930 . S
C2343 C2336 1.409 . S
C2343 C2342 1.362 . S
H2344 C2350 0.930 . S
H2345 C2353 0.930 . S
H2346 C2354 0.930 . S
H2347 C2355 0.930 . S
H2348 C2358 0.930 . S
H2349 C2359 0.930 . S
C2350 H2344 0.930 . S
C2350 C2351 1.355 . S
C2350 C2352 1.415 . S
C2351 C2350 1.355 . S
C2351 C2353 1.419 . S
C2352 C2350 1.415 . S
C2352 C2357 1.425 . S
C2352 C2359 1.409 . S
C2353 H2345 0.930 . S
C2353 C2351 1.419 . S
C2353 C2354 1.362 . S
C2354 H2346 0.930 . S
C2354 C2353 1.362 . S
C2354 C2357 1.409 . S
C2355 H2347 0.930 . S
C2355 C2356 1.355 . S
C2355 C2357 1.415 . S
C2356 C2355 1.355 . S
C2356 C2358 1.419 . S
C2357 C2352 1.425 . S
C2357 C2354 1.409 . S
C2357 C2355 1.415 . S
C2358 H2348 0.930 . S
C2358 C2356 1.419 . S
C2358 C2359 1.362 . S
C2359 H2349 0.930 . S
C2359 C2352 1.409 . S
C2359 C2358 1.362 . S
H2360 C2366 0.930 . S
H2361 C2369 0.930 . S
H2362 C2370 0.930 . S
H2363 C2371 0.930 . S
H2364 C2374 0.930 . S
H2365 C2375 0.930 . S
C2366 H2360 0.930 . S
C2366 C2367 1.355 . S
C2366 C2368 1.415 . S
C2367 C2366 1.355 . S
C2367 C2369 1.419 . S
C2368 C2366 1.415 . S
C2368 C2373 1.425 . S
C2368 C2375 1.409 . S
C2369 H2361 0.930 . S
C2369 C2367 1.419 . S
C2369 C2370 1.362 . S
C2370 H2362 0.930 . S
C2370 C2369 1.362 . S
C2370 C2373 1.409 . S
C2371 H2363 0.930 . S
C2371 C2372 1.355 . S
C2371 C2373 1.415 . S
C2372 C2371 1.355 . S
C2372 C2374 1.419 . S
C2373 C2368 1.425 . S
C2373 C2370 1.409 . S
C2373 C2371 1.415 . S
C2374 H2364 0.930 . S
C2374 C2372 1.419 . S
C2374 C2375 1.362 . S
C2375 H2365 0.930 . S
C2375 C2368 1.409 . S
C2375 C2374 1.362 . S
C852 N300 1.472 . S
C847 C5 1.512 . S
C868 C327 1.594 . S
C863 C16 1.595 . S
C879 C23 1.526 . S
C884 C341 1.520 . S
C900 N359 1.414 . S
C895 C34 1.471 . S
C911 C43 1.572 . S
C916 C364 1.572 . S
C927 C50 1.509 . S
C932 C304 1.511 . S
C943 C58 1.425 . S
C948 N323 1.414 . S
C964 N336 1.435 . S
C959 C68 1.481 . S
C980 N382 1.387 . S
C975 C4 1.439 . S
C991 C13 1.528 . S
C996 N405 1.504 . S
C1007 C25 1.539 . S
C1012 N428 1.512 . S
C1028 N461 1.379 . S
C1023 C32 1.447 . S
C1039 C41 1.548 . S
C1044 C488 1.523 . S
C1060 C511 1.563 . S
C1055 C52 1.578 . S
C1071 C61 1.485 . S
C1076 C534 1.488 . S
C1092 C548 1.435 . S
C1087 C67 1.439 . S
C1103 C7 1.456 . S
C1108 C465 1.441 . S
C1119 C40 1.488 . S
C1124 N507 1.456 . S
C1140 N530 1.411 . S
C1135 C49 1.478 . S
C1151 C59 1.471 . S
C1156 N543 1.412 . S
C1172 N484 1.397 . S
C1167 C70 1.451 . S
C1188 C410 1.649 . S
C1183 C22 1.653 . S
C1199 C31 1.503 . S
C1204 C433 1.498 . S
C1220 C387 1.584 . S
C1215 C14 1.591 . S
C1236 C580 1.453 . S
C1231 C77 1.469 . S
C1247 C88 1.586 . S
C1252 C594 1.586 . S
C1263 C95 1.508 . S
C1268 N622 1.491 . S
C1284 N635 1.425 . S
C1279 C106 1.462 . S
C1295 C115 1.574 . S
C1300 C640 1.572 . S
C1311 C122 1.488 . S
C1316 N576 1.422 . S
C1327 C130 1.510 . S
C1332 N589 1.451 . S
C1343 C140 1.462 . S
C1348 C626 1.457 . S
C1364 N474 1.424 . S
C1359 C76 1.441 . S
C1375 C85 1.504 . S
C1380 N658 1.484 . S
C1396 N520 1.418 . S
C1391 C97 1.467 . S
C1407 C104 1.504 . S
C1412 C695 1.490 . S
C1423 C113 1.590 . S
C1428 C396 1.585 . S
C1444 C709 1.598 . S
C1439 C124 1.597 . S
C1455 C133 1.530 . S
C1460 C442 1.530 . S
C1476 N727 1.380 . S
C1471 C139 1.439 . S
C1487 C79 1.471 . S
C1492 N691 1.433 . S
C1508 N704 1.467 . S
C1503 C112 1.522 . S
C1519 C121 1.491 . S
C1524 N438 1.471 . S
C1540 C732 1.424 . S
C1535 C131 1.428 . S
C1551 C142 1.445 . S
C1556 N392 1.435 . S
C1567 C94 1.564 . S
C1572 C663 1.563 . S
C1583 C103 1.546 . S
C1588 C525 1.536 . S
C1599 C86 1.589 . S
C1604 C479 1.584 . S
C1615 C149 1.529 . S
C1620 C617 1.532 . S
C1636 C649 1.547 . S
C1631 C160 1.543 . S
C1647 C167 1.485 . S
C1652 N566 1.479 . S
C1663 C178 1.456 . S
C1668 N599 1.431 . S
C1679 C187 1.584 . S
C1684 C603 1.558 . S
C1695 C194 1.538 . S
C1700 N612 1.532 . S
C1716 N645 1.384 . S
C1711 C202 1.401 . S
C1727 C212 1.500 . S
C1732 C571 1.498 . S
C1748 N760 1.415 . S
C1743 C148 1.468 . S
C1759 C157 1.471 . S
C1764 N497 1.464 . S
C1780 N783 1.348 . S
C1775 C169 1.408 . S
C1791 C176 1.490 . S
C1796 N553 1.471 . S
C1807 C185 1.557 . S
C1812 C801 1.559 . S
C1823 C196 1.650 . S
C1828 C419 1.641 . S
C1844 N819 1.402 . S
C1839 C205 1.412 . S
C1855 C211 1.491 . S
C1860 C456 1.496 . S
C1876 C557 1.490 . S
C1871 C151 1.500 . S
C1892 N415 1.516 . S
C1887 C184 1.541 . S
C1903 C193 1.569 . S
C1908 C824 1.564 . S
C1919 C203 1.395 . S
C1924 N451 1.373 . S
C1940 N796 1.483 . S
C1935 C214 1.502 . S
C1956 C502 1.557 . S
C1951 C166 1.553 . S
C1972 C787 1.566 . S
C1967 C175 1.559 . S
C1988 C764 1.568 . S
C1983 C158 1.569 . S
C1999 C221 1.422 . S
C2004 N346 1.377 . S
C2015 C232 1.563 . S
C2020 C373 1.562 . S
C2036 C295 1.553 . S
C2031 C239 1.553 . S
C2052 N313 1.383 . S
C2047 C250 1.408 . S
C2068 C318 1.590 . S
C2063 C259 1.593 . S
C2084 C350 1.521 . S
C2079 C266 1.519 . S
C2100 N369 1.441 . S
C2095 C274 1.508 . S
C2111 C284 1.499 . S
C2116 N290 1.451 . S
C2127 C220 1.390 . S
C2132 N806 1.337 . S
C2148 N714 1.494 . S
C2143 C229 1.505 . S
C2164 C833 1.579 . S
C2159 C241 1.592 . S
C2180 C741 1.356 . S
C2175 C248 1.381 . S
C2191 C257 1.579 . S
C2196 C755 1.583 . S
C2212 C672 1.573 . S
C2207 C268 1.579 . S
C2228 C778 1.616 . S
C2223 C277 1.624 . S
C2239 C283 1.466 . S
C2244 N681 1.407 . S
C2260 N737 1.383 . S
C2255 C223 1.398 . S
C2276 N668 1.434 . S
C2271 C256 1.488 . S
C2292 N773 1.398 . S
C2287 C265 1.435 . S
C2303 C275 1.500 . S
C2308 C686 1.491 . S
C2319 C286 1.437 . S
C2324 N750 1.383 . S
C2335 C238 1.667 . S
C2340 C718 1.673 . S
C2351 C247 1.419 . S
C2356 N829 1.360 . S
C2372 C810 1.551 . S
C2367 C230 1.545 . S
