# Generated by pormake.
# Topology eea, (3,6)-cn, num edge types: 1
# Building blocks:
#     Node 0, Type 0, BuildingBlock: CUQRIR_clean_linker_1, # of connection points: 3
#     Node 1, Type 0, BuildingBlock: CUQRIR_clean_linker_1, # of connection points: 3
#     Node 2, Type 0, BuildingBlock: CUQRIR_clean_linker_1, # of connection points: 3
#     Node 3, Type 0, BuildingBlock: CUQRIR_clean_linker_1, # of connection points: 3
#     Node 4, Type 0, BuildingBlock: CUQRIR_clean_linker_1, # of connection points: 3
#     Node 5, Type 0, BuildingBlock: CUQRIR_clean_linker_1, # of connection points: 3
#     Node 6, Type 0, BuildingBlock: CUQRIR_clean_linker_1, # of connection points: 3
#     Node 7, Type 0, BuildingBlock: CUQRIR_clean_linker_1, # of connection points: 3
#     Node 8, Type 0, BuildingBlock: CUQRIR_clean_linker_1, # of connection points: 3
#     Node 9, Type 0, BuildingBlock: CUQRIR_clean_linker_1, # of connection points: 3
#     Node 10, Type 0, BuildingBlock: CUQRIR_clean_linker_1, # of connection points: 3
#     Node 11, Type 0, BuildingBlock: CUQRIR_clean_linker_1, # of connection points: 3
#     Node 12, Type 0, BuildingBlock: CUQRIR_clean_linker_1, # of connection points: 3
#     Node 13, Type 0, BuildingBlock: CUQRIR_clean_linker_1, # of connection points: 3
#     Node 14, Type 0, BuildingBlock: CUQRIR_clean_linker_1, # of connection points: 3
#     Node 15, Type 0, BuildingBlock: CUQRIR_clean_linker_1, # of connection points: 3
#     Node 16, Type 0, BuildingBlock: CUQRIR_clean_linker_1, # of connection points: 3
#     Node 17, Type 0, BuildingBlock: CUQRIR_clean_linker_1, # of connection points: 3
#     Node 18, Type 1, BuildingBlock: CUKXOW_clean_sbu_0, # of connection points: 6
#     Node 19, Type 1, BuildingBlock: CUKXOW_clean_sbu_0, # of connection points: 6
#     Node 20, Type 1, BuildingBlock: CUKXOW_clean_sbu_0, # of connection points: 6
#     Node 21, Type 1, BuildingBlock: CUKXOW_clean_sbu_0, # of connection points: 6
#     Node 22, Type 1, BuildingBlock: CUKXOW_clean_sbu_0, # of connection points: 6
#     Node 23, Type 1, BuildingBlock: CUKXOW_clean_sbu_0, # of connection points: 6
#     Node 24, Type 1, BuildingBlock: CUKXOW_clean_sbu_0, # of connection points: 6
#     Node 25, Type 1, BuildingBlock: CUKXOW_clean_sbu_0, # of connection points: 6
#     Node 26, Type 1, BuildingBlock: CUKXOW_clean_sbu_0, # of connection points: 6
#     Edge 27, Type (0, 1), BuildingBlock: AJUNOK_clean_linker_0, # of connection points: 2
#     Edge 28, Type (0, 1), BuildingBlock: AJUNOK_clean_linker_0, # of connection points: 2
#     Edge 29, Type (0, 1), BuildingBlock: AJUNOK_clean_linker_0, # of connection points: 2
#     Edge 30, Type (0, 1), BuildingBlock: AJUNOK_clean_linker_0, # of connection points: 2
#     Edge 31, Type (0, 1), BuildingBlock: AJUNOK_clean_linker_0, # of connection points: 2
#     Edge 32, Type (0, 1), BuildingBlock: AJUNOK_clean_linker_0, # of connection points: 2
#     Edge 33, Type (0, 1), BuildingBlock: AJUNOK_clean_linker_0, # of connection points: 2
#     Edge 34, Type (0, 1), BuildingBlock: AJUNOK_clean_linker_0, # of connection points: 2
#     Edge 35, Type (0, 1), BuildingBlock: AJUNOK_clean_linker_0, # of connection points: 2
#     Edge 36, Type (0, 1), BuildingBlock: AJUNOK_clean_linker_0, # of connection points: 2
#     Edge 37, Type (0, 1), BuildingBlock: AJUNOK_clean_linker_0, # of connection points: 2
#     Edge 38, Type (0, 1), BuildingBlock: AJUNOK_clean_linker_0, # of connection points: 2
#     Edge 39, Type (0, 1), BuildingBlock: AJUNOK_clean_linker_0, # of connection points: 2
#     Edge 40, Type (0, 1), BuildingBlock: AJUNOK_clean_linker_0, # of connection points: 2
#     Edge 41, Type (0, 1), BuildingBlock: AJUNOK_clean_linker_0, # of connection points: 2
#     Edge 42, Type (0, 1), BuildingBlock: AJUNOK_clean_linker_0, # of connection points: 2
#     Edge 43, Type (0, 1), BuildingBlock: AJUNOK_clean_linker_0, # of connection points: 2
#     Edge 44, Type (0, 1), BuildingBlock: AJUNOK_clean_linker_0, # of connection points: 2
#     Edge 45, Type (0, 1), BuildingBlock: AJUNOK_clean_linker_0, # of connection points: 2
#     Edge 46, Type (0, 1), BuildingBlock: AJUNOK_clean_linker_0, # of connection points: 2
#     Edge 47, Type (0, 1), BuildingBlock: AJUNOK_clean_linker_0, # of connection points: 2
#     Edge 48, Type (0, 1), BuildingBlock: AJUNOK_clean_linker_0, # of connection points: 2
#     Edge 49, Type (0, 1), BuildingBlock: AJUNOK_clean_linker_0, # of connection points: 2
#     Edge 50, Type (0, 1), BuildingBlock: AJUNOK_clean_linker_0, # of connection points: 2
#     Edge 51, Type (0, 1), BuildingBlock: AJUNOK_clean_linker_0, # of connection points: 2
#     Edge 52, Type (0, 1), BuildingBlock: AJUNOK_clean_linker_0, # of connection points: 2
#     Edge 53, Type (0, 1), BuildingBlock: AJUNOK_clean_linker_0, # of connection points: 2
#     Edge 54, Type (0, 1), BuildingBlock: AJUNOK_clean_linker_0, # of connection points: 2
#     Edge 55, Type (0, 1), BuildingBlock: AJUNOK_clean_linker_0, # of connection points: 2
#     Edge 56, Type (0, 1), BuildingBlock: AJUNOK_clean_linker_0, # of connection points: 2
#     Edge 57, Type (0, 1), BuildingBlock: AJUNOK_clean_linker_0, # of connection points: 2
#     Edge 58, Type (0, 1), BuildingBlock: AJUNOK_clean_linker_0, # of connection points: 2
#     Edge 59, Type (0, 1), BuildingBlock: AJUNOK_clean_linker_0, # of connection points: 2
#     Edge 60, Type (0, 1), BuildingBlock: AJUNOK_clean_linker_0, # of connection points: 2
#     Edge 61, Type (0, 1), BuildingBlock: AJUNOK_clean_linker_0, # of connection points: 2
#     Edge 62, Type (0, 1), BuildingBlock: AJUNOK_clean_linker_0, # of connection points: 2
#     Edge 63, Type (0, 1), BuildingBlock: AJUNOK_clean_linker_0, # of connection points: 2
#     Edge 64, Type (0, 1), BuildingBlock: AJUNOK_clean_linker_0, # of connection points: 2
#     Edge 65, Type (0, 1), BuildingBlock: AJUNOK_clean_linker_0, # of connection points: 2
#     Edge 66, Type (0, 1), BuildingBlock: AJUNOK_clean_linker_0, # of connection points: 2
#     Edge 67, Type (0, 1), BuildingBlock: AJUNOK_clean_linker_0, # of connection points: 2
#     Edge 68, Type (0, 1), BuildingBlock: AJUNOK_clean_linker_0, # of connection points: 2
#     Edge 69, Type (0, 1), BuildingBlock: AJUNOK_clean_linker_0, # of connection points: 2
#     Edge 70, Type (0, 1), BuildingBlock: AJUNOK_clean_linker_0, # of connection points: 2
#     Edge 71, Type (0, 1), BuildingBlock: AJUNOK_clean_linker_0, # of connection points: 2
#     Edge 72, Type (0, 1), BuildingBlock: AJUNOK_clean_linker_0, # of connection points: 2
#     Edge 73, Type (0, 1), BuildingBlock: AJUNOK_clean_linker_0, # of connection points: 2
#     Edge 74, Type (0, 1), BuildingBlock: AJUNOK_clean_linker_0, # of connection points: 2
#     Edge 75, Type (0, 1), BuildingBlock: AJUNOK_clean_linker_0, # of connection points: 2
#     Edge 76, Type (0, 1), BuildingBlock: AJUNOK_clean_linker_0, # of connection points: 2
#     Edge 77, Type (0, 1), BuildingBlock: AJUNOK_clean_linker_0, # of connection points: 2
#     Edge 78, Type (0, 1), BuildingBlock: AJUNOK_clean_linker_0, # of connection points: 2
#     Edge 79, Type (0, 1), BuildingBlock: AJUNOK_clean_linker_0, # of connection points: 2
#     Edge 80, Type (0, 1), BuildingBlock: AJUNOK_clean_linker_0, # of connection points: 2
# Relax obj value: 0.072
# Max RMSD: 0.219
# Mean RMSD: 0.146
data_MOF--net-eea--node1-CUKXOW_clean_sbu_0--node2-CUQRIR_clean_linker_1--edge1-AJUNOK_clean_linker_0
_symmetry_space_group_name_H-M    P1
_symmetry_Int_Tables_number       1
_symmetry_cell_setting            triclinic
loop_
_symmetry_equiv_pos_as_xyz
'x, y, z'
_cell_length_a     39.244265
_cell_length_b     36.266684
_cell_length_c     32.421046
_cell_angle_alpha  86.249652
_cell_angle_beta   93.424647
_cell_angle_gamma 119.14764
loop_
_atom_site_label
_atom_site_type_symbol
_atom_site_fract_x
_atom_site_fract_y
_atom_site_fract_z
_atom_type_partial_charge
C0 C 0.22959 0.13048 0.42327 0.0
N1 N 0.24699 0.16459 0.4473 0.0
N2 N 0.23863 0.1003 0.43753 0.0
C3 C 0.20426 0.12691 0.38542 0.0
C4 C 0.26216 0.11717 0.47117 0.0
N5 N 0.26719 0.15616 0.4773 0.0
C6 C 0.27989 0.09534 0.49845 0.0
H7 H 0.17373 0.11435 0.39487 0.0
H8 H 0.20485 0.10497 0.36352 0.0
H9 H 0.21387 0.15837 0.36968 0.0
H10 H 0.26418 0.06071 0.49454 0.0
H11 H 0.27958 0.10163 0.53141 0.0
H12 H 0.31078 0.10811 0.49019 0.0
C13 C 0.90684 0.14313 0.43921 0.0
N14 N 0.9228 0.17566 0.46536 0.0
N15 N 0.87018 0.11459 0.44997 0.0
C16 C 0.92664 0.13959 0.40245 0.0
C17 C 0.86434 0.13016 0.48391 0.0
N18 N 0.8961 0.16734 0.4934 0.0
C19 C 0.82771 0.10844 0.50849 0.0
H20 H 0.9187 0.15362 0.37463 0.0
H21 H 0.91688 0.10609 0.39653 0.0
H22 H 0.95885 0.1566 0.40706 0.0
H23 H 0.835 0.11036 0.54214 0.0
H24 H 0.80969 0.07473 0.50095 0.0
H25 H 0.81022 0.12472 0.50138 0.0
C26 C 0.90892 0.77334 0.43081 0.0
N27 N 0.91898 0.7508 0.45932 0.0
N28 N 0.89139 0.79195 0.44848 0.0
C29 C 0.91776 0.77901 0.38546 0.0
C30 C 0.89086 0.78021 0.48869 0.0
N31 N 0.90637 0.75405 0.49558 0.0
C32 C 0.87241 0.79222 0.52102 0.0
H33 H 0.90816 0.8002 0.36878 0.0
H34 H 0.90262 0.74788 0.37105 0.0
H35 H 0.94959 0.79264 0.38154 0.0
H36 H 0.8402 0.77245 0.51872 0.0
H37 H 0.87938 0.82567 0.51553 0.0
H38 H 0.88285 0.78774 0.55254 0.0
C39 C 0.15575 0.31051 0.67827 0.0
N40 N 0.1847 0.32561 0.65091 0.0
N41 N 0.12953 0.32365 0.66703 0.0
C42 C 0.15062 0.27879 0.71317 0.0
C43 C 0.14393 0.34758 0.63195 0.0
N44 N 0.17734 0.34863 0.62177 0.0
C45 C 0.12318 0.36636 0.60505 0.0
H46 H 0.11939 0.25516 0.71665 0.0
H47 H 0.16158 0.2957 0.74242 0.0
H48 H 0.16712 0.26189 0.70847 0.0
H49 H 0.1013 0.36932 0.62268 0.0
H50 H 0.10823 0.34588 0.57857 0.0
H51 H 0.1446 0.39795 0.59232 0.0
C52 C 0.81146 0.90829 0.65373 0.0
N53 N 0.79642 0.87813 0.62497 0.0
N54 N 0.79996 0.93774 0.64545 0.0
C55 C 0.83661 0.90839 0.69065 0.0
C56 C 0.77761 0.92478 0.61041 0.0
N57 N 0.77481 0.88828 0.59807 0.0
C58 C 0.76056 0.9494 0.58656 0.0
H59 H 0.8273 0.87568 0.70288 0.0
H60 H 0.83548 0.92732 0.71553 0.0
H61 H 0.86725 0.92246 0.681 0.0
H62 H 0.76222 0.94753 0.55277 0.0
H63 H 0.77595 0.98311 0.59459 0.0
H64 H 0.72935 0.93553 0.594 0.0
C65 C 0.14252 0.93356 0.65204 0.0
N66 N 0.12536 0.89951 0.62801 0.0
N67 N 0.17917 0.96062 0.63969 0.0
C68 C 0.12399 0.93917 0.68866 0.0
C69 C 0.18361 0.94201 0.60717 0.0
N70 N 0.15113 0.90473 0.60028 0.0
C71 C 0.21943 0.96065 0.58147 0.0
H72 H 0.09323 0.93077 0.68068 0.0
H73 H 0.14008 0.97191 0.69944 0.0
H74 H 0.12374 0.91727 0.71435 0.0
H75 H 0.23793 0.94638 0.59235 0.0
H76 H 0.23673 0.99541 0.58415 0.0
H77 H 0.21123 0.95334 0.54847 0.0
C78 C 0.89481 0.45873 0.76124 0.0
N79 N 0.91348 0.49373 0.784 0.0
N80 N 0.9081 0.43111 0.77193 0.0
C81 C 0.86438 0.45201 0.72779 0.0
C82 C 0.93547 0.45058 0.80217 0.0
N83 N 0.93913 0.48884 0.80919 0.0
C84 C 0.95664 0.43093 0.82698 0.0
H85 H 0.83533 0.43716 0.74191 0.0
H86 H 0.86385 0.43073 0.70438 0.0
H87 H 0.86977 0.48255 0.71244 0.0
H88 H 0.98618 0.4434 0.8146 0.0
H89 H 0.94088 0.39602 0.82523 0.0
H90 H 0.96018 0.43932 0.85985 0.0
C91 C 0.57161 0.4654 0.77769 0.0
N92 N 0.58784 0.49659 0.80527 0.0
N93 N 0.53415 0.43796 0.78645 0.0
C94 C 0.59166 0.46276 0.74068 0.0
C95 C 0.52774 0.45326 0.82029 0.0
N96 N 0.56 0.48939 0.83159 0.0
C97 C 0.49079 0.43088 0.84431 0.0
H98 H 0.61283 0.49477 0.72859 0.0
H99 H 0.57015 0.44557 0.71566 0.0
H100 H 0.60774 0.44532 0.75001 0.0
H101 H 0.49745 0.43483 0.878 0.0
H102 H 0.47464 0.39665 0.83831 0.0
H103 H 0.47167 0.44475 0.8348 0.0
C104 C 0.55648 0.06979 0.73977 0.0
N105 N 0.57177 0.0553 0.77114 0.0
N106 N 0.52035 0.06213 0.74848 0.0
C107 C 0.57871 0.09598 0.70273 0.0
C108 C 0.51379 0.04173 0.78596 0.0
N109 N 0.54519 0.03794 0.80033 0.0
C110 C 0.47944 0.03244 0.81159 0.0
H111 H 0.6062 0.12364 0.7132 0.0
H112 H 0.56132 0.107 0.6826 0.0
H113 H 0.58668 0.07694 0.68407 0.0
H114 H 0.45269 0.02267 0.79174 0.0
H115 H 0.48552 0.06155 0.82705 0.0
H116 H 0.47401 1.00714 0.8356 0.0
C117 C 0.83154 0.6548 1.01749 0.0
N118 N 0.8561 0.66489 0.986 0.0
N119 N 0.80065 0.66034 1.00579 0.0
C120 C 0.83623 0.63648 0.05908 0.0
C121 C 0.8081 0.67593 0.96637 0.0
N122 N 0.84158 0.67843 0.95417 0.0
C123 C 0.77984 0.68328 0.93822 0.0
H124 H 0.82574 0.60219 0.05707 0.0
H125 H 0.81918 0.6409 0.08253 0.0
H126 H 0.86754 0.65174 0.06895 0.0
H127 H 0.76692 0.69896 0.95495 0.0
H128 H 0.75572 0.65237 0.92836 0.0
H129 H 0.79426 0.70313 0.9104 0.0
C130 C 0.48767 0.25176 0.97513 0.0
N131 N 0.47249 0.21921 0.94905 0.0
N132 N 0.47763 0.28148 0.96219 0.0
C133 C 0.51037 0.25334 1.01469 0.0
C134 C 0.4559 0.26617 0.92724 0.0
N135 N 0.45226 0.22812 0.91918 0.0
C136 C 0.43839 0.28873 0.90062 0.0
H137 H 0.50888 0.27462 0.03673 0.0
H138 H 0.5414 0.26542 1.00745 0.0
H139 H 0.4992 0.22129 0.02956 0.0
H140 H 0.45397 0.32314 0.90583 0.0
H141 H 0.40735 0.27569 0.90835 0.0
H142 H 0.4394 0.28375 0.8674 0.0
C143 C 0.81372 0.26544 0.98542 0.0
N144 N 0.79808 0.22984 0.96359 0.0
N145 N 0.85074 0.29214 0.97414 0.0
C146 C 0.79329 0.27361 1.01858 0.0
C147 C 0.85715 0.27173 0.94469 0.0
N148 N 0.82532 0.2337 0.9385 0.0
C149 C 0.89403 0.28962 0.92085 0.0
H150 H 0.76126 0.25731 1.01238 0.0
H151 H 0.80415 0.3079 1.0211 0.0
H152 H 0.79926 0.26122 0.04874 0.0
H153 H 0.91209 0.2756 0.93408 0.0
H154 H 0.91123 0.32448 0.92263 0.0
H155 H 0.88721 0.28131 0.88793 0.0
C156 C 0.55787 0.78938 0.10024 0.0
N157 N 0.57653 0.82616 0.12035 0.0
N158 N 0.57129 0.76262 0.11417 0.0
C159 C 0.52777 0.78025 0.06584 0.0
C160 C 0.59875 0.78431 0.14335 0.0
N161 N 0.60236 0.82311 0.14687 0.0
C162 C 0.62027 0.76644 0.17034 0.0
H163 H 0.49868 0.76763 0.0794 0.0
H164 H 0.52672 0.75633 0.04539 0.0
H165 H 0.53401 0.80955 0.0473 0.0
H166 H 0.64941 0.77742 0.15751 0.0
H167 H 0.60429 0.73138 0.17153 0.0
H168 H 0.62461 0.77761 0.20228 0.0
C169 C 0.24063 0.80225 0.10819 0.0
N170 N 0.25675 0.83529 0.13368 0.0
N171 N 0.20426 0.77363 0.11971 0.0
C172 C 0.26026 0.79791 0.07179 0.0
C173 C 0.19869 0.78977 0.15338 0.0
N174 N 0.23033 0.82746 0.16192 0.0
C175 C 0.16222 0.7685 0.17816 0.0
H176 H 0.25535 0.81499 0.04445 0.0
H177 H 0.248 0.76427 0.06436 0.0
H178 H 0.2922 0.812 0.07794 0.0
H179 H 0.16974 0.77197 0.21173 0.0
H180 H 0.14464 0.73443 0.1718 0.0
H181 H 0.1442 0.78396 0.16989 0.0
C182 C 0.22528 0.41138 0.08085 0.0
N183 N 0.24135 0.39934 0.11343 0.0
N184 N 0.18874 0.40298 0.08883 0.0
C185 C 0.24587 0.43281 0.04149 0.0
C186 C 0.18286 0.38493 0.12749 0.0
N187 N 0.21458 0.38208 0.14229 0.0
C188 C 0.14811 0.37494 0.15283 0.0
H189 H 0.26415 0.4672 0.04596 0.0
H190 H 0.22452 0.42813 1.0156 0.0
H191 H 0.26531 0.42032 0.03343 0.0
H192 H 0.12559 0.34157 0.14852 0.0
H193 H 0.13516 0.39544 0.14309 0.0
H194 H 0.15612 0.37883 0.18626 0.0
C195 C 0.49078 0.98337 0.34227 0.0
N196 N 0.51478 0.99035 0.31099 0.0
N197 N 0.45873 0.98569 0.32837 0.0
C198 C 0.498 0.97248 0.38636 0.0
C199 C 0.46435 0.99534 0.28751 0.0
N200 N 0.49827 0.998 0.27694 0.0
C201 C 0.43469 0.99784 0.25748 0.0
H202 H 0.4901 0.93865 0.38965 0.0
H203 H 0.48039 0.9785 0.40779 0.0
H204 H 0.52947 0.99135 0.39496 0.0
H205 H 0.42868 0.02305 0.2665 0.0
H206 H 0.40687 0.96755 0.2591 0.0
H207 H 0.44458 1.00457 0.22519 0.0
C208 C 0.14782 0.58171 0.31542 0.0
N209 N 0.13164 0.55043 0.28802 0.0
N210 N 0.14296 0.61492 0.30191 0.0
C211 C 0.16788 0.57935 0.35575 0.0
C212 C 0.12362 0.6031 0.26514 0.0
N213 N 0.11637 0.56375 0.25642 0.0
C214 C 0.11242 0.63069 0.23733 0.0
H215 H 0.14974 0.54873 0.37244 0.0
H216 H 0.17364 0.6055 0.37585 0.0
H217 H 0.196 0.58088 0.34928 0.0
H218 H 0.1111 0.62326 0.2044 0.0
H219 H 0.13364 0.66459 0.24129 0.0
H220 H 0.08324 0.62513 0.24568 0.0
C221 C 0.48468 0.60061 0.32127 0.0
N222 N 0.46599 0.56541 0.29872 0.0
N223 N 0.51959 0.6283 0.3051 0.0
C224 C 0.47018 0.6065 0.36092 0.0
C225 C 0.52157 0.60878 0.27194 0.0
N226 N 0.48923 0.57058 0.26806 0.0
C227 C 0.55469 0.6276 0.24245 0.0
H228 H 0.45084 0.62055 0.35375 0.0
H229 H 0.49483 0.62798 0.38118 0.0
H230 H 0.45303 0.57561 0.37767 0.0
H231 H 0.57681 0.6182 0.25339 0.0
H232 H 0.56886 0.66262 0.24104 0.0
H233 H 0.54429 0.61589 0.21089 0.0
Tb234 Tb 0.57072 0.05608 0.03464 0.0
C235 C 0.54283 0.96056 0.0651 0.0
Tb236 Tb 0.48184 0.99436 0.0438 0.0
O237 O 0.58204 0.0568 0.10093 0.0
O238 O 0.52685 0.04509 0.07678 0.0
O239 O 0.57113 0.99597 0.04785 0.0
C240 C 0.41055 0.94779 0.07699 0.0
O241 O 0.50636 0.95377 0.06719 0.0
C242 C 0.50997 1.00252 0.96931 0.0
C243 C 0.50804 0.08863 1.01331 0.0
O244 O 0.41746 0.95922 0.03821 0.0
O245 O 0.44392 0.96132 0.09679 0.0
O246 O 0.4734 0.9896 0.97572 0.0
O247 O 0.52686 1.00425 1.00381 0.0
O248 O 0.4804 0.05338 0.03087 0.0
O249 O 0.54485 0.09616 1.01173 0.0
C250 C 0.6431 0.10564 1.00736 0.0
O251 O 0.61238 0.084 0.98409 0.0
O252 O 0.63279 0.09996 0.04548 0.0
C253 C 0.54613 0.04443 0.10941 0.0
Tb254 Tb 0.99908 0.55536 0.0375 0.0
C255 C 0.0896 0.61606 0.05051 0.0
Tb256 Tb 0.05827 0.52312 0.02258 0.0
O257 O 0.99976 0.5488 0.10625 0.0
O258 O 0.0332 0.53403 0.07209 0.0
O259 O 0.05563 0.61341 0.03802 0.0
C260 C 0.09944 0.48227 0.02863 0.0
O261 O 0.09538 0.58282 0.0522 0.0
C262 C 0.03324 0.55081 0.95513 0.0
C263 C 0.96695 0.45816 0.02229 0.0
O264 O 0.11326 0.52203 1.01814 0.0
O265 O 0.06271 0.46583 0.03595 0.0
O266 O 0.06596 0.54973 0.95831 0.0
O267 O 1.01611 0.53331 0.98796 0.0
O268 O 1.00312 0.46366 0.02588 0.0
O269 O 0.95899 0.4899 0.0224 0.0
C270 C 0.9563 0.59246 1.01519 0.0
O271 O 0.94462 0.55799 0.03837 0.0
O272 O 0.99221 0.60636 1.00522 0.0
C273 C 0.02527 0.53534 0.10875 0.0
Tb274 Tb 0.47311 0.49883 0.05003 0.0
C275 C 0.5054 0.4351 0.03639 0.0
Tb276 Tb 0.56513 0.52867 0.06506 0.0
O277 O 0.47546 0.50839 0.98135 0.0
O278 O 0.52439 0.52202 1.01737 0.0
O279 O 0.47475 0.4403 0.04259 0.0
C280 C 0.64114 0.56773 0.05256 0.0
O281 O 0.5424 0.46559 0.04082 0.0
C282 C 0.52541 0.50794 0.13436 0.0
C283 C 0.53307 0.59392 0.07156 0.0
O284 O 0.62117 0.52897 0.06712 0.0
O285 O 0.6182 0.58374 0.04434 0.0
O286 O 0.56273 0.52092 0.13357 0.0
O287 O 0.51418 0.50585 0.09724 0.0
O288 O 0.56333 0.58803 0.06553 0.0
O289 O 0.4962 0.56307 0.07051 0.0
C290 C 0.4 0.46345 0.07567 0.0
O291 O 0.41803 0.49968 0.0553 0.0
O292 O 0.42271 0.44673 0.08036 0.0
C293 C 0.513 0.5214 0.98022 0.0
Tb294 Tb 0.23736 0.39643 0.37366 0.0
C295 C 0.21148 0.29889 0.39923 0.0
Tb296 Tb 0.14936 0.33071 0.38166 0.0
O297 O 0.24009 0.42137 0.43463 0.0
O298 O 0.19951 0.36036 0.42166 0.0
O299 O 0.23971 0.33662 0.38554 0.0
C300 C 0.07699 0.28977 0.41244 0.0
O301 O 0.17471 0.29068 0.40245 0.0
C302 C 0.18121 0.33659 0.31022 0.0
C303 C 0.17236 0.42403 0.34818 0.0
O304 O 0.08576 0.2884 0.37465 0.0
O305 O 0.10894 0.3139 0.43275 0.0
O306 O 0.15047 0.30251 0.32347 0.0
O307 O 0.18857 0.36532 0.33436 0.0
O308 O 0.14607 0.3892 0.36781 0.0
O309 O 0.20839 0.43056 0.34294 0.0
C310 C 0.30997 0.44465 0.34631 0.0
O311 O 0.29026 0.45754 0.36619 0.0
O312 O 0.28906 0.40407 0.34237 0.0
C313 C 0.20988 0.38754 0.44856 0.0
Tb314 Tb 0.66387 0.89008 0.37487 0.0
C315 C 0.75387 0.957 0.38336 0.0
Tb316 Tb 0.72847 0.86289 0.35863 0.0
O317 O 0.66496 0.88041 0.44361 0.0
O318 O 0.70027 0.87061 0.40737 0.0
O319 O 0.71744 0.95031 0.37884 0.0
C320 C 0.78049 0.83711 0.37441 0.0
O321 O 0.76371 0.92708 0.3799 0.0
C322 C 0.69897 0.88028 0.28879 0.0
C323 C 0.63811 0.79513 0.35334 0.0
O324 O 0.78738 0.87221 0.35452 0.0
O325 O 0.74419 0.81636 0.38479 0.0
O326 O 0.72566 0.86865 0.29035 0.0
O327 O 0.6925 0.88271 0.32581 0.0
O328 O 0.67469 0.80191 0.35858 0.0
O329 O 0.62848 0.8255 0.35478 0.0
C330 C 0.6188 0.92481 0.35392 0.0
O331 O 0.60735 0.88861 0.37407 0.0
O332 O 0.65553 0.94142 0.34622 0.0
C333 C 0.69236 0.86965 0.44455 0.0
Tb334 Tb 0.14007 0.83493 0.37633 0.0
C335 C 0.1731 0.76959 0.3742 0.0
Tb336 Tb 0.22683 0.86588 0.3937 0.0
O337 O 0.14967 0.85915 0.31137 0.0
O338 O 0.18763 0.84191 0.34291 0.0
O339 O 0.14221 0.77514 0.37739 0.0
C340 C 0.30336 0.9071 0.38531 0.0
O341 O 0.2092 0.80198 0.37527 0.0
C342 C 0.18384 0.84529 0.45986 0.0
C343 C 0.19533 0.93291 0.38651 0.0
O344 O 0.2848 0.87336 0.40885 0.0
O345 O 0.27895 0.91733 0.3665 0.0
O346 O 0.21655 0.84441 0.45939 0.0
O347 O 0.18029 0.86149 0.42571 0.0
O348 O 0.22555 0.92583 0.38567 0.0
O349 O 0.15857 0.90146 0.38624 0.0
C350 C 0.06731 0.79219 0.40318 0.0
O351 O 0.07655 0.80901 0.36585 0.0
O352 O 0.09873 0.80002 0.42468 0.0
C353 C 0.18326 0.85979 0.30997 0.0
Tb354 Tb 0.90089 0.72089 0.70577 0.0
C355 C 0.87799 0.62881 0.74012 0.0
Tb356 Tb 0.81311 0.65667 0.71866 0.0
O357 O 0.91527 0.73184 0.77148 0.0
O358 O 0.85802 0.70929 0.74969 0.0
O359 O 0.90252 0.66127 0.71619 0.0
C360 C 0.74252 0.60985 0.75283 0.0
O361 O 0.84324 0.62387 0.74877 0.0
C362 C 0.83882 0.66119 0.6437 0.0
C363 C 0.8352 0.74721 0.67697 0.0
O364 O 0.76191 0.59521 0.73464 0.0
O365 O 0.76303 0.65074 0.75187 0.0
O366 O 0.80238 0.6481 0.65142 0.0
O367 O 0.85721 0.66638 0.67773 0.0
O368 O 0.80768 0.71154 0.69431 0.0
O369 O 0.8725 0.75636 0.67726 0.0
C370 C 0.97145 0.77358 0.67503 0.0
O371 O 0.9382 0.76732 0.65847 0.0
O372 O 0.96478 0.75003 0.70862 0.0
C373 C 0.87925 0.71417 0.7821 0.0
Tb374 Tb 0.33075 0.21963 0.70614 0.0
C375 C 0.42137 0.2825 0.71236 0.0
Tb376 Tb 0.39294 0.18852 0.68922 0.0
O377 O 0.33048 0.20697 0.77458 0.0
O378 O 0.36442 0.19597 0.73763 0.0
O379 O 0.38643 0.27765 0.70061 0.0
C380 C 0.43699 0.15174 0.70143 0.0
O381 O 0.42933 0.25067 0.71459 0.0
C382 C 0.36556 0.2103 0.62012 0.0
C383 C 0.30046 0.12347 0.69051 0.0
O384 O 0.45024 0.19183 0.6926 0.0
O385 O 0.39933 0.13278 0.70356 0.0
O386 O 0.39063 0.19646 0.62082 0.0
O387 O 0.36053 0.2134 0.6574 0.0
O388 O 0.33698 0.12977 0.69247 0.0
O389 O 0.29126 0.154 0.69319 0.0
C390 C 0.2868 0.25643 0.68791 0.0
O391 O 0.31352 0.26718 0.71727 0.0
O392 O 0.28385 0.22393 0.6701 0.0
C393 C 0.35684 0.19473 0.77488 0.0
Tb394 Tb 0.80619 0.16555 0.71267 0.0
C395 C 0.83632 0.09665 0.71397 0.0
Tb396 Tb 0.89326 0.19318 0.72677 0.0
O397 O 0.81588 0.19139 0.64834 0.0
O398 O 0.85163 0.16953 0.67785 0.0
O399 O 0.8069 0.10476 0.71732 0.0
C400 C 0.96896 0.23333 0.71169 0.0
O401 O 0.87331 0.12728 0.71391 0.0
C402 C 0.85222 0.17364 0.79403 0.0
C403 C 0.86407 0.26295 0.7213 0.0
O404 O 0.95438 0.21673 0.74749 0.0
O405 O 0.94108 0.22678 0.68482 0.0
O406 O 0.88341 0.16979 0.79182 0.0
O407 O 0.8485 0.19093 0.76053 0.0
O408 O 0.89328 0.25411 0.72052 0.0
O409 O 0.82676 0.23277 0.7212 0.0
C410 C 0.73176 0.12549 0.73553 0.0
O411 O 0.74301 0.13307 0.69741 0.0
O412 O 0.76217 0.14131 0.76015 0.0
C413 C 0.84777 0.18876 0.64562 0.0
C414 C 0.32784 0.8748 0.14887 0.0
C415 C 0.29445 0.87232 0.12768 0.0
C416 C 0.36561 0.9008 0.13344 0.0
C417 C 0.37118 0.92431 0.0956 0.0
H418 H 0.32442 0.85422 0.17587 0.0
H419 H 0.39031 0.90055 0.14999 0.0
S420 S 0.29348 0.93187 0.03078 0.0
N421 N 0.2699 0.89856 0.06932 0.0
N422 N 0.34009 0.94626 0.03968 0.0
C423 C 0.3382 0.92387 0.07556 0.0
C424 C 0.30012 0.89828 0.0918 0.0
C425 C 0.18478 0.4657 0.0617 0.0
C426 C 0.16718 0.42158 0.06782 0.0
C427 C 0.16299 0.48505 0.04648 0.0
C428 C 0.12276 0.46089 0.03785 0.0
H429 H 0.21516 0.48545 0.07057 0.0
H430 H 0.17732 0.51924 0.04368 0.0
S431 S 0.06391 0.34402 0.04545 0.0
N432 N 0.10837 0.35411 0.06101 0.0
N433 N 0.06667 0.39043 0.03381 0.0
C434 C 0.10515 0.41663 0.04232 0.0
C435 C 0.12758 0.39696 0.05704 0.0
C436 C 0.5876 0.71317 0.08318 0.0
C437 C 0.56008 0.72096 0.10091 0.0
C438 C 0.57838 0.67218 0.07323 0.0
C439 C 0.54125 0.6373 0.08079 0.0
H440 H 0.61663 0.73902 0.07751 0.0
H441 H 0.60075 0.66788 0.05978 0.0
S442 S 0.45964 0.64162 0.12892 0.0
N443 N 0.49494 0.69123 0.1268 0.0
N444 N 0.47706 0.61397 0.10835 0.0
C445 C 0.5134 0.64501 0.09851 0.0
C446 C 0.52296 0.68688 0.10851 0.0
C447 C 0.91094 0.33915 1.01252 0.0
C448 C 0.87742 0.33305 0.98929 0.0
C449 C 0.9392 0.37963 0.02426 0.0
C450 C 0.93481 0.41534 1.01312 0.0
H451 H 0.91556 0.31247 1.02085 0.0
H452 H 0.96496 0.38301 0.04161 0.0
S453 S 0.85247 0.41534 0.95024 0.0
N454 N 0.84155 0.36516 0.95433 0.0
N455 N 0.89419 0.44144 0.97644 0.0
C456 C 0.90094 0.40927 0.99013 0.0
C457 C 0.87239 0.36805 0.97811 0.0
C458 C 0.74243 0.65775 0.03322 0.0
C459 C 0.76229 0.63679 1.02211 0.0
C460 C 0.70324 0.63491 0.04406 0.0
C461 C 0.68309 0.59044 0.04485 0.0
H462 H 0.75704 0.69195 0.03227 0.0
H463 H 0.68846 0.65218 0.05134 0.0
S464 S 0.72217 0.521 1.01748 0.0
N465 N 0.75884 0.56944 1.01096 0.0
N466 N 0.68592 0.52636 0.03412 0.0
C467 C 0.70303 0.56912 0.03508 0.0
C468 C 0.74252 0.59238 0.02293 0.0
C469 C 0.51608 0.18806 0.95509 0.0
C470 C 0.47795 0.18246 0.95496 0.0
C471 C 0.52544 0.15783 0.97383 0.0
C472 C 0.49702 0.12026 0.99332 0.0
H473 H 0.53942 0.21751 0.94281 0.0
H474 H 0.55556 0.16468 0.97397 0.0
S475 S 0.39199 0.08971 0.99966 0.0
N476 N 0.41143 0.13638 0.97494 0.0
N477 N 0.42797 0.07866 1.00899 0.0
C478 C 0.45824 0.11354 0.99177 0.0
C479 C 0.44897 0.14468 0.97283 0.0
C480 C 0.72903 0.18324 0.94287 0.0
C481 C 0.76091 0.19285 0.9706 0.0
C482 C 0.69082 0.15317 0.95396 0.0
C483 C 0.68349 0.13277 0.99349 0.0
H484 H 0.73345 0.20062 0.91346 0.0
H485 H 0.66676 0.14759 0.93242 0.0
S486 S 0.75797 0.14401 0.07505 0.0
N487 N 0.78331 0.17692 0.03707 0.0
N488 N 0.71183 0.1217 0.05871 0.0
C489 C 0.7155 0.14077 1.02048 0.0
C490 C 0.75416 0.17051 1.00881 0.0
C491 C 0.86729 0.60408 0.98609 0.0
C492 C 0.88239 0.64813 0.98356 0.0
C493 C 0.89161 0.58631 0.99558 0.0
C494 C 0.93203 0.61205 1.00157 0.0
H495 H 0.83606 0.58337 0.98337 0.0
H496 H 0.87858 0.55224 0.99913 0.0
S497 S 0.98624 0.72914 0.99403 0.0
N498 N 0.94006 0.71697 0.98547 0.0
N499 N 0.98655 0.68373 1.00094 0.0
C500 C 0.94786 0.6561 0.99604 0.0
C501 C 0.92281 0.67415 0.98749 0.0
C502 C 0.52233 0.35255 0.98761 0.0
C503 C 0.48446 0.31844 0.98313 0.0
C504 C 0.52897 0.38966 1.00594 0.0
C505 C 0.49791 0.39393 1.02057 0.0
H506 H 0.54677 0.35076 0.97602 0.0
H507 H 0.55863 0.41547 1.00774 0.0
S508 S 0.39339 0.31098 1.01873 0.0
N509 N 0.41595 0.28949 0.99662 0.0
N510 N 0.42774 0.35871 0.03108 0.0
C511 C 0.45992 0.35905 1.01726 0.0
C512 C 0.45338 0.32147 0.99854 0.0
C513 C 0.14961 0.73348 0.07092 0.0
C514 C 0.17747 0.73471 0.1008 0.0
C515 C 0.12166 0.69507 0.05419 0.0
C516 C 0.12092 0.65669 0.06665 0.0
H517 H 0.14916 0.76235 0.06101 0.0
H518 H 0.10038 0.69543 0.03154 0.0
S519 S 0.1874 0.64413 0.14596 0.0
N520 N 0.20244 0.69537 0.14325 0.0
N521 N 0.15056 0.62308 0.11201 0.0
C522 C 0.14909 0.658 0.09657 0.0
C523 C 0.17719 0.69706 0.11365 0.0
C524 C 0.30883 0.45626 0.11748 0.0
C525 C 0.28235 0.41264 0.11788 0.0
C526 C 0.34719 0.4724 0.10467 0.0
C527 C 0.36074 0.44534 0.09294 0.0
H528 H 0.29858 0.47819 0.12344 0.0
H529 H 0.36594 0.50634 0.10264 0.0
S530 S 0.30433 0.32835 0.09366 0.0
N531 N 0.27301 0.34263 0.1085 0.0
N532 N 0.34594 0.37253 0.08666 0.0
C533 C 0.33566 0.40145 0.09682 0.0
C534 C 0.29624 0.38517 0.10892 0.0
C535 C 0.59783 0.89846 0.09101 0.0
C536 C 0.57039 0.86218 0.11262 0.0
C537 C 0.58893 0.93032 0.07618 0.0
C538 C 0.55213 0.92694 0.08226 0.0
H539 H 0.62568 0.9013 0.0841 0.0
H540 H 0.61081 0.95727 0.05897 0.0
S541 S 0.47171 0.83891 0.14077 0.0
N542 N 0.50636 0.82549 0.14179 0.0
N543 N 0.48921 0.88476 0.11464 0.0
C544 C 0.52511 0.89121 0.10545 0.0
C545 C 0.53434 0.85903 0.12041 0.0
C546 C 0.99307 0.21898 0.48338 0.0
C547 C 0.95996 0.21345 0.4594 0.0
C548 C 0.03114 0.24581 0.46915 0.0
C549 C 0.03726 0.26671 0.42981 0.0
H550 H 0.98943 0.20017 0.51178 0.0
H551 H 0.05576 0.24789 0.48782 0.0
S552 S 0.96037 0.26688 0.35787 0.0
N553 N 0.9361 0.23539 0.39716 0.0
N554 N 1.00704 0.28344 0.36938 0.0
C555 C 1.00449 0.26343 0.40691 0.0
C556 C 0.96606 0.23757 0.42207 0.0
C557 C 0.82489 0.77419 0.42624 0.0
C558 C 0.86473 0.80379 0.42806 0.0
C559 C 0.79791 0.78497 0.40738 0.0
C560 C 0.81013 0.82558 0.38942 0.0
H561 H 0.81469 0.74272 0.44005 0.0
H562 H 0.76725 0.76155 0.40746 0.0
S563 S 0.9119 0.91384 0.38571 0.0
N564 N 0.91563 0.87458 0.41043 0.0
N565 N 0.86497 0.89534 0.37402 0.0
C566 C 0.8502 0.85518 0.39016 0.0
C567 C 0.87757 0.84415 0.40984 0.0
C568 C 0.25372 0.05069 0.4049 0.0
C569 C 0.22627 0.05958 0.42099 0.0
C570 C 0.24288 1.0102 0.39177 0.0
C571 C 0.20412 0.97681 0.39453 0.0
H572 H 0.28395 0.07512 0.4033 0.0
H573 H 0.26547 1.00486 0.38047 0.0
S574 S 0.12126 0.98493 0.43443 0.0
N575 N 0.15892 0.03289 0.4385 0.0
N576 N 0.13807 0.95652 0.4142 0.0
C577 C 0.17615 0.98593 0.40962 0.0
C578 C 0.18735 0.02734 0.42282 0.0
C579 C 0.58674 0.67826 0.32879 0.0
C580 C 0.54814 0.66927 0.3193 0.0
C581 C 0.6154 0.71868 0.34053 0.0
C582 C 0.60653 0.75175 0.34329 0.0
H583 H 0.59482 0.65384 0.32679 0.0
H584 H 0.64482 0.72403 0.34699 0.0
S585 S 0.50882 0.74339 0.32137 0.0
N586 N 0.50225 0.69598 0.31279 0.0
N587 N 0.55515 0.77152 0.33602 0.0
C588 C 0.56752 0.74258 0.33444 0.0
C589 C 0.53859 0.70149 0.32218 0.0
C590 C 0.40278 0.99056 0.35171 0.0
C591 C 0.42187 0.96692 0.34785 0.0
C592 C 0.36456 0.97112 0.36554 0.0
C593 C 0.34486 0.92775 0.37657 0.0
H594 H 0.41712 0.02387 0.3427 0.0
H595 H 0.35004 0.9899 0.36678 0.0
S596 S 0.38188 0.85199 0.37036 0.0
N597 N 0.41801 0.89788 0.35433 0.0
N598 N 0.34685 0.86172 0.38258 0.0
C599 C 0.36408 0.90407 0.37405 0.0
C600 C 0.40253 0.92361 0.35903 0.0
C601 C 0.11165 0.4792 0.3186 0.0
C602 C 0.13582 0.51295 0.29189 0.0
C603 C 0.12316 0.45006 0.33578 0.0
C604 C 0.15969 0.45384 0.32742 0.0
H605 H 0.08493 0.47721 0.32857 0.0
H606 H 0.10394 0.4255 0.35722 0.0
S607 S 0.23236 0.53553 0.25667 0.0
N608 N 0.19673 0.54743 0.25626 0.0
N609 N 0.21847 0.49286 0.28742 0.0
C610 C 0.18314 0.48633 0.29887 0.0
C611 C 0.17117 0.51571 0.28139 0.0
C612 C 0.39669 0.54414 0.30524 0.0
C613 C 0.42598 0.5326 0.30367 0.0
C614 C 0.35914 0.51511 0.31824 0.0
C615 C 0.34895 0.47294 0.32915 0.0
H616 H 0.40349 0.57653 0.29799 0.0
H617 H 0.33806 0.52601 0.32036 0.0
S618 S 0.41399 0.42569 0.32752 0.0
N619 N 0.44191 0.47572 0.31284 0.0
N620 N 0.37044 0.42024 0.33507 0.0
C621 C 0.37716 0.46016 0.32532 0.0
C622 C 0.41591 0.49019 0.31302 0.0
C623 C 0.52793 0.93099 0.31981 0.0
C624 C 0.54203 0.97457 0.31241 0.0
C625 C 0.55304 0.91517 0.3332 0.0
C626 C 0.59331 0.94232 0.33843 0.0
H627 H 0.49683 0.9094 0.31779 0.0
H628 H 0.54074 0.88154 0.34008 0.0
S629 S 0.64495 0.05864 0.31938 0.0
N630 N 0.59847 0.04435 0.30933 0.0
N631 N 0.64656 1.01464 0.33227 0.0
C632 C 0.6081 0.98572 0.32851 0.0
C633 C 0.58222 1.00187 0.31588 0.0
C634 C 0.12075 0.65759 0.33625 0.0
C635 C 0.15139 0.65192 0.32362 0.0
C636 C 0.12815 0.69486 0.35458 0.0
C637 C 0.16659 0.72808 0.36065 0.0
H638 H 0.09081 0.63322 0.33114 0.0
H639 H 0.1034 0.69804 0.36282 0.0
S640 S 0.25699 0.72713 0.33356 0.0
N641 N 0.22116 0.68101 0.31907 0.0
N642 N 0.23583 0.75136 0.3535 0.0
C643 C 0.19758 0.72191 0.34913 0.0
C644 C 0.1898 0.68379 0.33055 0.0
C645 C 0.84868 0.04179 0.43069 0.0
C646 C 0.84278 0.07698 0.42947 0.0
C647 C 0.82035 1.00358 0.41425 0.0
C648 C 0.78488 0.99912 0.39648 0.0
H649 H 0.87491 0.04362 0.44549 0.0
H650 H 0.82588 0.97703 0.4168 0.0
S651 S 0.75719 0.08381 0.3841 0.0
N652 N 0.80059 0.10639 0.40778 0.0
N653 N 0.74683 0.03468 0.37704 0.0
C654 C 0.77932 0.0348 0.39424 0.0
C655 C 0.80837 0.07367 0.41078 0.0
C656 C 0.98911 0.7808 0.47321 0.0
C657 C 0.95459 0.74932 0.45487 0.0
C658 C 0.02566 0.79289 0.4573 0.0
C659 C 0.02883 0.77483 0.42167 0.0
H660 H 0.98749 0.79883 0.49762 0.0
H661 H 0.05132 0.81861 0.47124 0.0
S662 S 0.94838 0.68573 0.36703 0.0
N663 N 0.92672 0.69531 0.40387 0.0
N664 N 0.9954 0.72004 0.37203 0.0
C665 C 0.99513 0.74103 0.40507 0.0
C666 C 0.95802 0.72755 0.42241 0.0
C667 C 0.26872 0.23882 0.42383 0.0
C668 C 0.24091 0.2008 0.44283 0.0
C669 C 0.25935 0.27072 0.41035 0.0
C670 C 0.22158 0.26538 0.4148 0.0
H671 H 0.29727 0.24304 0.41776 0.0
H672 H 0.28156 0.29919 0.39529 0.0
S673 S 0.1391 0.17103 0.4645 0.0
N674 N 0.17529 0.15997 0.46718 0.0
N675 N 0.15673 0.2184 0.44147 0.0
C676 C 0.19398 0.22752 0.43495 0.0
C677 C 0.20389 0.19569 0.44904 0.0
C678 C 0.65724 0.51663 0.80583 0.0
C679 C 0.62836 0.52914 0.80533 0.0
C680 C 0.69417 0.54311 0.78943 0.0
C681 C 0.70448 0.58402 0.77342 0.0
H682 H 0.6498 0.4845 0.81553 0.0
H683 H 0.71442 0.53096 0.78825 0.0
S684 S 0.64146 0.63423 0.77 0.0
N685 N 0.61364 0.58621 0.79007 0.0
N686 N 0.68409 0.63745 0.76211 0.0
C687 C 0.67722 0.59844 0.77627 0.0
C688 C 0.63902 0.57077 0.79176 0.0
C689 C 0.46397 0.06494 0.71456 0.0
C690 C 0.50166 0.0858 0.73243 0.0
C691 C 0.44351 0.08694 0.70363 0.0
C692 C 0.4605 0.13052 0.70972 0.0
H693 H 0.44995 0.03125 0.71029 0.0
H694 H 0.414 0.06961 0.69088 0.0
S695 S 0.55831 0.19896 0.7565 0.0
N696 N 0.55489 0.1517 0.75688 0.0
N697 N 0.51706 0.19362 0.73479 0.0
C698 C 0.49858 0.15189 0.72664 0.0
C699 C 0.51904 0.12932 0.73845 0.0
C700 C 0.85779 0.35726 0.75863 0.0
C701 C 0.89629 0.39048 0.75512 0.0
C702 C 0.84698 0.31651 0.74572 0.0
C703 C 0.87434 0.30752 0.72881 0.0
H704 H 0.83631 0.36254 0.77277 0.0
H705 H 0.81738 0.29157 0.75063 0.0
S706 S 0.97801 0.38569 0.70904 0.0
N707 N 0.96086 0.41304 0.73068 0.0
N708 N 0.94117 0.33709 0.70635 0.0
C709 C 0.91256 0.34134 0.7235 0.0
C710 C 0.92338 0.3826 0.73669 0.0
C711 C 0.20215 0.03512 0.65387 0.0
C712 C 0.20772 0.99968 0.65719 0.0
C713 C 0.23178 0.07471 0.6663 0.0
C714 C 0.2682 0.08026 0.68219 0.0
H715 H 0.17517 0.03237 0.64027 0.0
H716 H 0.22652 0.1014 0.66187 0.0
S717 S 0.29548 0.99552 0.69959 0.0
N718 N 0.25066 0.97134 0.67938 0.0
N719 N 0.30674 0.04549 0.70267 0.0
C720 C 0.27341 0.04437 0.68684 0.0
C721 C 0.24309 1.00416 0.67433 0.0
C722 C 0.05984 0.27971 0.6499 0.0
C723 C 0.08954 0.303 0.67893 0.0
C724 C 0.02087 0.25734 0.66105 0.0
C725 C 1.01043 0.25641 0.70192 0.0
H726 H 0.06691 0.27829 0.61848 0.0
H727 H 0.99883 0.24005 0.63759 0.0
S728 S 0.07737 0.31205 0.78947 0.0
N729 N 0.10619 0.32452 0.74986 0.0
N730 N 0.03263 0.28066 0.77158 0.0
C731 C 0.03982 0.27906 0.73146 0.0
C732 C 0.07953 0.30278 0.71977 0.0
C733 C 0.77523 0.80352 0.64599 0.0
C734 C 0.80229 0.84155 0.62626 0.0
C735 C 0.7856 0.77264 0.66082 0.0
C736 C 0.82377 0.77868 0.65712 0.0
H737 H 0.74665 0.79894 0.65251 0.0
H738 H 0.7639 0.74468 0.67704 0.0
S739 S 0.90456 0.87219 0.60476 0.0
N740 N 0.86788 0.88253 0.60149 0.0
N741 N 0.88777 0.82536 0.62889 0.0
C742 C 0.85042 0.81585 0.63535 0.0
C743 C 0.8396 0.84694 0.62011 0.0
C744 C 0.08177 0.83568 0.66853 0.0
C745 C 0.0875 0.86328 0.63402 0.0
C746 C 0.04408 0.80586 0.68072 0.0
C747 C 1.01072 0.80278 0.65894 0.0
H748 H 0.10671 0.8386 0.68724 0.0
H749 H 0.04111 0.78604 0.70825 0.0
S750 S 1.01046 0.86674 0.56492 0.0
N751 N 0.05723 0.88498 0.57734 0.0
N752 N 0.98616 0.82852 0.59959 0.0
C753 C 1.01617 0.82908 0.62323 0.0
C754 C 0.05465 0.85947 0.61094 0.0
C755 C 0.21165 0.28042 0.63252 0.0
C756 C 0.21603 0.31565 0.6527 0.0
C757 C 0.23564 0.2624 0.64323 0.0
C758 C 0.26423 0.27835 0.67524 0.0
H759 H 0.18789 0.26474 0.61049 0.0
H760 H 0.23051 0.2346 0.62752 0.0
S761 S 0.28757 0.37075 0.73705 0.0
N762 N 0.2515 0.36648 0.70516 0.0
N763 N 0.29659 0.33258 0.72591 0.0
C764 C 0.26979 0.31446 0.69474 0.0
C765 C 0.24563 0.33304 0.68335 0.0
C766 C 0.84793 1.00773 0.6714 0.0
C767 C 0.8093 0.97478 0.668 0.0
C768 C 0.85669 0.04621 0.68847 0.0
C769 C 0.82708 0.05324 0.70277 0.0
H770 H 0.87127 1.00429 0.65918 0.0
H771 H 0.88676 0.07121 0.68873 0.0
S772 S 0.72146 0.97414 0.7047 0.0
N773 N 0.74169 0.94974 0.68328 0.0
N774 N 0.75754 0.02157 0.71527 0.0
C775 C 0.78846 1.01933 0.70141 0.0
C776 C 0.77974 0.9803 0.68402 0.0
C777 C 0.51476 0.36689 0.76298 0.0
C778 C 0.50721 0.40076 0.76496 0.0
C779 C 0.48747 0.32932 0.74452 0.0
C780 C 0.45168 0.32438 0.72721 0.0
H781 H 0.54147 0.36917 0.77684 0.0
H782 H 0.49415 0.30363 0.74489 0.0
S783 S 0.42024 0.4063 0.72219 0.0
N784 N 0.46334 0.42872 0.74646 0.0
N785 N 0.41173 0.35857 0.71162 0.0
C786 C 0.44467 0.35904 0.72788 0.0
C787 C 0.47249 0.39708 0.74683 0.0
C788 C 0.64061 0.09798 0.79356 0.0
C789 C 0.6115 0.06309 0.77267 0.0
C790 C 0.67994 0.11683 0.78265 0.0
C791 C 0.69111 0.10236 0.74943 0.0
H792 H 0.63266 0.11288 0.81609 0.0
H793 H 0.70129 0.14461 0.79848 0.0
S794 S 0.62695 1.00854 0.68894 0.0
N795 N 0.59745 1.01161 0.72119 0.0
N796 N 0.67086 0.04828 0.69912 0.0
C797 C 0.66281 0.06592 0.73023 0.0
C798 C 0.62319 0.04587 0.74242 0.0
C799 C 0.93368 0.56652 0.75716 0.0
C800 C 0.90768 0.53016 0.77979 0.0
C801 C 0.92437 0.59876 0.74536 0.0
C802 C 0.88859 0.59573 0.75571 0.0
H803 H 0.96054 0.56906 0.74695 0.0
H804 H 0.94495 0.62563 0.72697 0.0
S805 S 0.81211 0.50728 0.81791 0.0
N806 N 0.84615 0.49352 0.81412 0.0
N807 N 0.82829 0.55355 0.79281 0.0
C808 C 0.86319 0.55995 0.78005 0.0
C809 C 0.8728 0.52732 0.79182 0.0
C810 C 0.50132 0.9783 0.20665 0.0
C811 C 0.51403 1.00906 0.23644 0.0
C812 C 0.51066 0.98996 0.16497 0.0
C813 C 0.532 0.03274 0.15181 0.0
H814 H 0.48354 0.94525 0.21565 0.0
H815 H 0.50163 0.96532 0.14324 0.0
S816 S 0.57267 0.12473 0.21858 0.0
N817 N 0.54943 0.08346 0.25063 0.0
N818 N 0.56717 0.10556 0.1723 0.0
C819 C 0.54545 0.06354 0.18162 0.0
C820 C 0.53621 0.05164 0.22394 0.0
C821 C 0.05135 0.53508 0.22318 0.0
C822 C 0.08905 0.53941 0.22401 0.0
C823 C 0.02986 0.53087 0.1859 0.0
C824 C 0.04452 0.5293 0.1479 0.0
H825 H 0.0404 0.54 0.25102 0.0
H826 H 1.00265 0.53164 0.18666 0.0
S827 S 0.13614 0.52542 0.13519 0.0
N828 N 0.13674 0.53354 0.18487 0.0
N829 N 0.09509 0.52218 0.11508 0.0
C830 C 0.07955 0.52721 0.14914 0.0
C831 C 0.10207 0.53292 0.18716 0.0
C832 C 0.46697 0.53764 0.20063 0.0
C833 C 0.48528 0.53974 0.23968 0.0
C834 C 0.47644 0.52217 0.16681 0.0
C835 C 0.5054 0.50971 0.17098 0.0
H836 H 0.44813 0.55164 0.19541 0.0
H837 H 0.46364 0.52368 0.13674 0.0
S838 S 0.55631 0.50244 0.26861 0.0
N839 N 0.52878 0.52231 0.28192 0.0
N840 N 0.54742 0.49433 0.21864 0.0
C841 C 0.52057 0.50753 0.21083 0.0
C842 C 0.51032 0.52234 0.24513 0.0
C843 C 0.94709 0.51651 0.87859 0.0
C844 C 0.96351 0.51632 0.84135 0.0
C845 C 0.97053 0.53153 0.91475 0.0
C846 C 1.01119 0.5465 0.91497 0.0
H847 H 0.91567 0.50187 0.88049 0.0
H848 H 0.95626 0.52855 0.94332 0.0
S849 S 0.06845 0.55828 0.82327 0.0
N850 N 0.02279 0.53675 0.8054 0.0
N851 N 0.06706 0.5651 0.87291 0.0
C852 C 0.02816 0.54993 0.87688 0.0
C853 C 1.00424 0.5347 0.84021 0.0
C854 C 0.5326 0.52677 0.86608 0.0
C855 C 0.56123 0.51399 0.86561 0.0
C856 C 0.51911 0.53189 0.90337 0.0
C857 C 0.53468 0.52607 0.94191 0.0
H858 H 0.51735 0.52795 0.83748 0.0
H859 H 0.49457 0.53787 0.902 0.0
S860 S 0.61686 0.50257 0.95696 0.0
N861 N 0.60853 0.50159 0.90641 0.0
N862 N 0.58588 0.51486 0.9764 0.0
C863 C 0.56704 0.51902 0.94153 0.0
C864 C 0.5798 0.51233 0.90341 0.0
C865 C 0.53534 0.99016 0.86122 0.0
C866 C 0.55173 0.03163 0.84382 0.0
C867 C 0.52395 0.98114 0.90279 0.0
C868 C 0.52832 1.01329 0.92822 0.0
H869 H 0.52783 0.96415 0.84146 0.0
H870 H 0.50945 0.94854 0.9143 0.0
S871 S 0.57017 0.12698 0.89705 0.0
N872 N 0.57315 0.10488 0.85557 0.0
N873 N 0.55094 0.08826 0.93249 0.0
C874 C 0.54662 0.05502 0.91163 0.0
C875 C 0.55893 0.06415 0.86989 0.0
C876 C 0.21524 0.3986 0.56544 0.0
C877 C 0.19071 0.35705 0.58011 0.0
C878 C 0.22138 0.40828 0.5228 0.0
C879 C 0.2031 0.37666 0.49352 0.0
H880 H 0.22839 0.42387 0.58694 0.0
H881 H 0.24001 0.44083 0.5127 0.0
S882 S 0.13584 0.26287 0.51743 0.0
N883 N 0.1467 0.28482 0.56268 0.0
N884 N 0.16087 0.30149 0.48353 0.0
C885 C 0.17938 0.33478 0.50841 0.0
C886 C 0.17249 0.32538 0.55145 0.0
C887 C 0.71262 0.85338 0.55874 0.0
C888 C 0.75302 0.86728 0.56123 0.0
C889 C 0.69286 0.85166 0.52057 0.0
C890 C 0.71237 0.86286 0.48294 0.0
H891 H 0.69714 0.84825 0.58693 0.0
H892 H 0.66249 0.8439 0.52081 0.0
S893 S 0.81716 0.89575 0.47217 0.0
N894 N 0.811 0.88862 0.52258 0.0
N895 N 0.7739 0.88373 0.45076 0.0
C896 C 0.75191 0.87265 0.48473 0.0
C897 C 0.77215 0.87507 0.52383 0.0
C898 C 0.13219 0.88057 0.52975 0.0
C899 C 0.14702 0.87631 0.56911 0.0
C900 C 0.14162 0.86701 0.49475 0.0
C901 C 0.16661 0.84911 0.49787 0.0
H902 H 0.11646 0.89819 0.52553 0.0
H903 H 0.1317 0.87375 0.46479 0.0
S904 S 0.20851 0.82614 0.59525 0.0
N905 N 0.18411 0.84913 0.61014 0.0
N906 N 0.20197 0.82336 0.54448 0.0
C907 C 0.17867 0.84129 0.53761 0.0
C908 C 0.16882 0.85497 0.5732 0.0
C909 C 0.66785 0.86763 0.17612 0.0
C910 C 0.62752 0.85293 0.17692 0.0
C911 C 0.69149 0.88052 0.2122 0.0
C912 C 0.67577 0.87954 0.25045 0.0
H913 H 0.68031 0.86481 0.14837 0.0
H914 H 0.72173 0.88808 0.21068 0.0
S915 S 0.57315 0.85211 0.26646 0.0
N916 N 0.57385 0.844 0.21708 0.0
N917 N 0.61832 0.86946 0.28489 0.0
C918 C 0.63641 0.8699 0.25042 0.0
C919 C 0.61226 0.85636 0.21356 0.0
C920 C 0.24627 0.84464 0.23488 0.0
C921 C 0.23261 0.85243 0.19599 0.0
C922 C 0.23245 0.85036 0.2718 0.0
C923 C 0.20398 0.86358 0.27126 0.0
H924 H 0.26455 0.82984 0.23668 0.0
H925 H 0.24202 0.84127 0.30081 0.0
S926 S 0.16386 0.89471 0.17726 0.0
N927 N 0.19324 0.87932 0.15928 0.0
N928 N 0.16702 0.88994 0.22819 0.0
C929 C 0.19319 0.87551 0.23265 0.0
C930 C 0.20767 0.87011 0.1952 0.0
C931 C 0.23613 0.39765 0.21457 0.0
C932 C 0.2187 0.36785 0.18385 0.0
C933 C 0.22592 0.38637 0.25613 0.0
C934 C 0.19767 0.34493 0.26833 0.0
H935 H 0.25464 0.43063 0.20578 0.0
H936 H 0.23818 0.4111 0.27822 0.0
S937 S 0.14855 0.25409 0.20006 0.0
N938 N 0.17597 0.29447 0.16881 0.0
N939 N 0.15667 0.27297 0.24679 0.0
C940 C 0.1831 0.31406 0.23845 0.0
C941 C 0.19375 0.3256 0.19626 0.0
C942 C 0.88486 0.72305 0.89855 0.0
C943 C 0.85341 0.6847 0.91205 0.0
C944 C 0.89226 0.73241 0.8562 0.0
C945 C 0.86765 0.70438 0.82591 0.0
H946 H 0.90314 0.74624 0.92079 0.0
H947 H 0.91718 0.76216 0.84702 0.0
S948 S 0.78309 0.59831 0.8471 0.0
N949 N 0.79942 0.61733 0.89326 0.0
N950 N 0.81164 0.6355 0.81371 0.0
C951 C 0.83635 0.6657 0.83953 0.0
C952 C 0.82973 0.65571 0.88261 0.0
C953 C 0.4421 0.20673 0.84684 0.0
C954 C 0.42699 0.2022 0.88634 0.0
C955 C 0.41833 0.2001 0.8105 0.0
C956 C 0.37881 0.18988 0.81236 0.0
H957 H 0.47323 0.21959 0.8439 0.0
H958 H 0.4319 0.20665 0.78089 0.0
S959 S 0.32409 0.16811 0.90835 0.0
N960 N 0.36901 0.18117 0.92492 0.0
N961 N 0.32476 0.17001 0.85735 0.0
C962 C 0.36271 0.18137 0.8517 0.0
C963 C 0.38662 0.18701 0.88843 0.0
C964 C 0.80554 0.21148 0.86768 0.0
C965 C 0.82093 0.20619 0.9063 0.0
C966 C 0.81364 0.19807 0.83178 0.0
C967 C 0.83722 0.17851 0.83319 0.0
H968 H 0.79039 0.22978 0.86479 0.0
H969 H 0.8038 0.20623 0.80248 0.0
S970 S 0.88078 0.15344 0.92815 0.0
N971 N 0.85807 0.17754 0.94487 0.0
N972 N 0.87263 0.15101 0.87753 0.0
C973 C 0.85014 0.17004 0.87224 0.0
C974 C 0.84211 0.18416 0.90876 0.0
C975 C 0.27496 0.17535 0.55005 0.0
C976 C 0.29054 0.18263 0.5105 0.0
C977 C 0.29947 0.18805 0.58584 0.0
C978 C 0.34039 0.20839 0.58323 0.0
H979 H 0.24375 0.15624 0.55349 0.0
H980 H 0.28616 0.17813 0.61559 0.0
S981 S 0.39525 0.23805 0.48646 0.0
N982 N 0.34895 0.2141 0.47062 0.0
N983 N 0.39509 0.23819 0.5374 0.0
C984 C 0.35609 0.21846 0.54359 0.0
C985 C 0.33116 0.20566 0.50736 0.0
C986 C 0.91047 0.17703 0.56744 0.0
C987 C 0.89909 0.18986 0.5297 0.0
C988 C 0.89551 0.17909 0.60514 0.0
C989 C 0.86889 0.19461 0.60671 0.0
H990 H 0.92729 0.16064 0.56721 0.0
H991 H 0.90262 0.16538 0.63272 0.0
S992 S 0.83491 0.23837 0.517 0.0
N993 N 0.86332 0.22296 0.49672 0.0
N994 N 0.83598 0.22812 0.56734 0.0
C995 C 0.86052 0.21153 0.56967 0.0
C996 C 0.87567 0.20917 0.53134 0.0
C997 C 0.84941 0.69764 0.53112 0.0
C998 C 0.89026 0.72004 0.52678 0.0
C999 C 0.83286 0.67682 0.5685 0.0
C1000 C 0.85633 0.67563 0.60236 0.0
H1001 H 0.83037 0.69988 0.50666 0.0
H1002 H 0.80168 0.66365 0.5715 0.0
S1003 S 0.96243 0.71139 0.59962 0.0
N1004 N 0.9524 0.72945 0.55506 0.0
N1005 N 0.92087 0.68623 0.62418 0.0
C1006 C 0.89638 0.69124 0.59587 0.0
C1007 C 0.91348 0.71423 0.5582 0.0
loop_
_geom_bond_atom_site_label_1
_geom_bond_atom_site_label_2
_geom_bond_distance
_geom_bond_site_symmetry_2
_ccdc_geom_bond_type
C0 N1 1.317 . S
C0 N2 1.348 . S
C0 C3 1.485 . S
N1 C0 1.317 . S
N1 N5 1.370 . S
N2 C0 1.348 . S
N2 C4 1.346 . S
C3 C0 1.485 . S
C3 H7 0.960 . S
C3 H8 0.961 . S
C3 H9 0.960 . S
C4 N2 1.346 . S
C4 N5 1.307 . S
C4 C6 1.486 . S
N5 N1 1.370 . S
N5 C4 1.307 . S
C6 C4 1.486 . S
C6 H10 0.960 . S
C6 H11 0.960 . S
C6 H12 0.959 . S
H7 C3 0.960 . S
H8 C3 0.961 . S
H9 C3 0.960 . S
H10 C6 0.960 . S
H11 C6 0.960 . S
H12 C6 0.959 . S
C13 N14 1.317 . S
C13 N15 1.348 . S
C13 C16 1.485 . S
N14 C13 1.317 . S
N14 N18 1.370 . S
N15 C13 1.348 . S
N15 C17 1.346 . S
C16 C13 1.485 . S
C16 H20 0.960 . S
C16 H21 0.961 . S
C16 H22 0.960 . S
C17 N15 1.346 . S
C17 N18 1.307 . S
C17 C19 1.486 . S
N18 N14 1.370 . S
N18 C17 1.307 . S
C19 C17 1.486 . S
C19 H23 0.960 . S
C19 H24 0.960 . S
C19 H25 0.959 . S
H20 C16 0.960 . S
H21 C16 0.961 . S
H22 C16 0.960 . S
H23 C19 0.960 . S
H24 C19 0.960 . S
H25 C19 0.959 . S
C26 N27 1.317 . S
C26 N28 1.348 . S
C26 C29 1.485 . S
N27 C26 1.317 . S
N27 N31 1.370 . S
N28 C26 1.348 . S
N28 C30 1.346 . S
C29 C26 1.485 . S
C29 H33 0.960 . S
C29 H34 0.961 . S
C29 H35 0.960 . S
C30 N28 1.346 . S
C30 N31 1.307 . S
C30 C32 1.486 . S
N31 N27 1.370 . S
N31 C30 1.307 . S
C32 C30 1.486 . S
C32 H36 0.960 . S
C32 H37 0.960 . S
C32 H38 0.959 . S
H33 C29 0.960 . S
H34 C29 0.961 . S
H35 C29 0.960 . S
H36 C32 0.960 . S
H37 C32 0.960 . S
H38 C32 0.959 . S
C39 N40 1.317 . S
C39 N41 1.348 . S
C39 C42 1.485 . S
N40 C39 1.317 . S
N40 N44 1.370 . S
N41 C39 1.348 . S
N41 C43 1.346 . S
C42 C39 1.485 . S
C42 H46 0.960 . S
C42 H47 0.961 . S
C42 H48 0.960 . S
C43 N41 1.346 . S
C43 N44 1.307 . S
C43 C45 1.486 . S
N44 N40 1.370 . S
N44 C43 1.307 . S
C45 C43 1.486 . S
C45 H49 0.960 . S
C45 H50 0.960 . S
C45 H51 0.959 . S
H46 C42 0.960 . S
H47 C42 0.961 . S
H48 C42 0.960 . S
H49 C45 0.960 . S
H50 C45 0.960 . S
H51 C45 0.959 . S
C52 N53 1.317 . S
C52 N54 1.348 . S
C52 C55 1.485 . S
N53 C52 1.317 . S
N53 N57 1.370 . S
N54 C52 1.348 . S
N54 C56 1.346 . S
C55 C52 1.485 . S
C55 H59 0.960 . S
C55 H60 0.961 . S
C55 H61 0.960 . S
C56 N54 1.346 . S
C56 N57 1.307 . S
C56 C58 1.486 . S
N57 N53 1.370 . S
N57 C56 1.307 . S
C58 C56 1.486 . S
C58 H62 0.960 . S
C58 H63 0.960 . S
C58 H64 0.959 . S
H59 C55 0.960 . S
H60 C55 0.961 . S
H61 C55 0.960 . S
H62 C58 0.960 . S
H63 C58 0.960 . S
H64 C58 0.959 . S
C65 N66 1.317 . S
C65 N67 1.348 . S
C65 C68 1.485 . S
N66 C65 1.317 . S
N66 N70 1.370 . S
N67 C65 1.348 . S
N67 C69 1.346 . S
C68 C65 1.485 . S
C68 H72 0.960 . S
C68 H73 0.961 . S
C68 H74 0.960 . S
C69 N67 1.346 . S
C69 N70 1.307 . S
C69 C71 1.486 . S
N70 N66 1.370 . S
N70 C69 1.307 . S
C71 C69 1.486 . S
C71 H75 0.960 . S
C71 H76 0.960 . S
C71 H77 0.959 . S
H72 C68 0.960 . S
H73 C68 0.961 . S
H74 C68 0.960 . S
H75 C71 0.960 . S
H76 C71 0.960 . S
H77 C71 0.959 . S
C78 N79 1.317 . S
C78 N80 1.348 . S
C78 C81 1.485 . S
N79 C78 1.317 . S
N79 N83 1.370 . S
N80 C78 1.348 . S
N80 C82 1.346 . S
C81 C78 1.485 . S
C81 H85 0.960 . S
C81 H86 0.961 . S
C81 H87 0.960 . S
C82 N80 1.346 . S
C82 N83 1.307 . S
C82 C84 1.486 . S
N83 N79 1.370 . S
N83 C82 1.307 . S
C84 C82 1.486 . S
C84 H88 0.960 . S
C84 H89 0.960 . S
C84 H90 0.959 . S
H85 C81 0.960 . S
H86 C81 0.961 . S
H87 C81 0.960 . S
H88 C84 0.960 . S
H89 C84 0.960 . S
H90 C84 0.959 . S
C91 N92 1.317 . S
C91 N93 1.348 . S
C91 C94 1.485 . S
N92 C91 1.317 . S
N92 N96 1.370 . S
N93 C91 1.348 . S
N93 C95 1.346 . S
C94 C91 1.485 . S
C94 H98 0.960 . S
C94 H99 0.961 . S
C94 H100 0.960 . S
C95 N93 1.346 . S
C95 N96 1.307 . S
C95 C97 1.486 . S
N96 N92 1.370 . S
N96 C95 1.307 . S
C97 C95 1.486 . S
C97 H101 0.960 . S
C97 H102 0.960 . S
C97 H103 0.959 . S
H98 C94 0.960 . S
H99 C94 0.961 . S
H100 C94 0.960 . S
H101 C97 0.960 . S
H102 C97 0.960 . S
H103 C97 0.959 . S
C104 N105 1.317 . S
C104 N106 1.348 . S
C104 C107 1.485 . S
N105 C104 1.317 . S
N105 N109 1.370 . S
N106 C104 1.348 . S
N106 C108 1.346 . S
C107 C104 1.485 . S
C107 H111 0.960 . S
C107 H112 0.961 . S
C107 H113 0.960 . S
C108 N106 1.346 . S
C108 N109 1.307 . S
C108 C110 1.486 . S
N109 N105 1.370 . S
N109 C108 1.307 . S
C110 C108 1.486 . S
C110 H114 0.960 . S
C110 H115 0.960 . S
C110 H116 0.959 . S
H111 C107 0.960 . S
H112 C107 0.961 . S
H113 C107 0.960 . S
H114 C110 0.960 . S
H115 C110 0.960 . S
H116 C110 0.959 . S
C117 N118 1.317 . S
C117 N119 1.348 . S
C117 C120 1.485 . S
N118 C117 1.317 . S
N118 N122 1.370 . S
N119 C117 1.348 . S
N119 C121 1.346 . S
C120 C117 1.485 . S
C120 H124 0.960 . S
C120 H125 0.961 1_556 S
C120 H126 0.960 . S
C121 N119 1.346 . S
C121 N122 1.307 . S
C121 C123 1.486 . S
N122 N118 1.370 . S
N122 C121 1.307 . S
C123 C121 1.486 . S
C123 H127 0.960 . S
C123 H128 0.960 . S
C123 H129 0.959 . S
H124 C120 0.960 . S
H125 C120 0.961 1_554 S
H126 C120 0.960 . S
H127 C123 0.960 . S
H128 C123 0.960 . S
H129 C123 0.959 . S
C130 N131 1.317 . S
C130 N132 1.348 . S
C130 C133 1.485 1_556 S
N131 C130 1.317 . S
N131 N135 1.370 . S
N132 C130 1.348 . S
N132 C134 1.346 . S
C133 C130 1.485 1_554 S
C133 H137 0.960 . S
C133 H138 0.961 . S
C133 H139 0.960 . S
C134 N132 1.346 . S
C134 N135 1.307 . S
C134 C136 1.486 . S
N135 N131 1.370 . S
N135 C134 1.307 . S
C136 C134 1.486 . S
C136 H140 0.960 . S
C136 H141 0.960 . S
C136 H142 0.959 . S
H137 C133 0.960 . S
H138 C133 0.961 . S
H139 C133 0.960 . S
H140 C136 0.960 . S
H141 C136 0.960 . S
H142 C136 0.959 . S
C143 N144 1.317 . S
C143 N145 1.348 . S
C143 C146 1.485 1_556 S
N144 C143 1.317 . S
N144 N148 1.370 . S
N145 C143 1.348 . S
N145 C147 1.346 . S
C146 C143 1.485 1_554 S
C146 H150 0.960 . S
C146 H151 0.961 . S
C146 H152 0.960 . S
C147 N145 1.346 . S
C147 N148 1.307 . S
C147 C149 1.486 . S
N148 N144 1.370 . S
N148 C147 1.307 . S
C149 C147 1.486 . S
C149 H153 0.960 . S
C149 H154 0.960 . S
C149 H155 0.959 . S
H150 C146 0.960 . S
H151 C146 0.961 . S
H152 C146 0.960 . S
H153 C149 0.960 . S
H154 C149 0.960 . S
H155 C149 0.959 . S
C156 N157 1.317 . S
C156 N158 1.348 . S
C156 C159 1.485 . S
N157 C156 1.317 . S
N157 N161 1.370 . S
N158 C156 1.348 . S
N158 C160 1.346 . S
C159 C156 1.485 . S
C159 H163 0.960 . S
C159 H164 0.961 1_554 S
C159 H165 0.956 1_554 S
C160 N158 1.346 . S
C160 N161 1.307 . S
C160 C162 1.486 . S
N161 N157 1.370 . S
N161 C160 1.307 . S
C162 C160 1.486 . S
C162 H166 0.960 . S
C162 H167 0.960 . S
C162 H168 0.959 . S
H163 C159 0.960 . S
H164 C159 0.961 1_556 S
H165 C159 0.956 1_556 S
H166 C162 0.960 . S
H167 C162 0.960 . S
H168 C162 0.959 . S
C169 N170 1.317 . S
C169 N171 1.348 . S
C169 C172 1.485 . S
N170 C169 1.317 . S
N170 N174 1.370 . S
N171 C169 1.348 . S
N171 C173 1.346 . S
C172 C169 1.485 . S
C172 H176 0.960 . S
C172 H177 0.961 . S
C172 H178 0.960 . S
C173 N171 1.346 . S
C173 N174 1.307 . S
C173 C175 1.486 . S
N174 N170 1.370 . S
N174 C173 1.307 . S
C175 C173 1.486 . S
C175 H179 0.960 . S
C175 H180 0.960 . S
C175 H181 0.959 . S
H176 C172 0.960 . S
H177 C172 0.961 . S
H178 C172 0.960 . S
H179 C175 0.960 . S
H180 C175 0.960 . S
H181 C175 0.959 . S
C182 N183 1.317 . S
C182 N184 1.348 . S
C182 C185 1.485 . S
N183 C182 1.317 . S
N183 N187 1.370 . S
N184 C182 1.348 . S
N184 C186 1.346 . S
C185 C182 1.485 . S
C185 H189 0.960 . S
C185 H190 0.961 . S
C185 H191 0.960 . S
C186 N184 1.346 . S
C186 N187 1.307 . S
C186 C188 1.486 . S
N187 N183 1.370 . S
N187 C186 1.307 . S
C188 C186 1.486 . S
C188 H192 0.960 . S
C188 H193 0.960 . S
C188 H194 0.959 . S
H189 C185 0.960 . S
H190 C185 0.961 . S
H191 C185 0.960 . S
H192 C188 0.960 . S
H193 C188 0.960 . S
H194 C188 0.959 . S
C195 N196 1.317 . S
C195 N197 1.348 . S
C195 C198 1.485 . S
N196 C195 1.317 . S
N196 N200 1.370 . S
N197 C195 1.348 . S
N197 C199 1.346 . S
C198 C195 1.485 . S
C198 H202 0.960 . S
C198 H203 0.961 . S
C198 H204 0.960 . S
C199 N197 1.346 . S
C199 N200 1.307 . S
C199 C201 1.486 . S
N200 N196 1.370 . S
N200 C199 1.307 . S
C201 C199 1.486 . S
C201 H205 0.960 . S
C201 H206 0.960 . S
C201 H207 0.959 . S
H202 C198 0.960 . S
H203 C198 0.961 . S
H204 C198 0.960 . S
H205 C201 0.960 . S
H206 C201 0.960 . S
H207 C201 0.959 . S
C208 N209 1.317 . S
C208 N210 1.348 . S
C208 C211 1.485 . S
N209 C208 1.317 . S
N209 N213 1.370 . S
N210 C208 1.348 . S
N210 C212 1.346 . S
C211 C208 1.485 . S
C211 H215 0.960 . S
C211 H216 0.961 . S
C211 H217 0.960 . S
C212 N210 1.346 . S
C212 N213 1.307 . S
C212 C214 1.486 . S
N213 N209 1.370 . S
N213 C212 1.307 . S
C214 C212 1.486 . S
C214 H218 0.960 . S
C214 H219 0.960 . S
C214 H220 0.959 . S
H215 C211 0.960 . S
H216 C211 0.961 . S
H217 C211 0.960 . S
H218 C214 0.960 . S
H219 C214 0.960 . S
H220 C214 0.959 . S
C221 N222 1.317 . S
C221 N223 1.348 . S
C221 C224 1.485 . S
N222 C221 1.317 . S
N222 N226 1.370 . S
N223 C221 1.348 . S
N223 C225 1.346 . S
C224 C221 1.485 . S
C224 H228 0.960 . S
C224 H229 0.961 . S
C224 H230 0.960 . S
C225 N223 1.346 . S
C225 N226 1.307 . S
C225 C227 1.486 . S
N226 N222 1.370 . S
N226 C225 1.307 . S
C227 C225 1.486 . S
C227 H231 0.960 . S
C227 H232 0.960 . S
C227 H233 0.959 . S
H228 C224 0.960 . S
H229 C224 0.961 . S
H230 C224 0.960 . S
H231 C227 0.960 . S
H232 C227 0.960 . S
H233 C227 0.959 . S
Tb234 O237 2.453 . S
Tb234 O238 2.596 1_545 S
Tb234 O239 2.374 1_545 S
Tb234 O247 2.343 1_554 S
Tb234 O249 2.353 . S
Tb234 O251 2.427 . S
Tb234 O252 2.513 . S
C235 O239 1.251 . S
C235 O241 1.263 . S
Tb236 O238 2.343 1_556 S
Tb236 O241 2.353 1_556 S
Tb236 O244 2.427 1_556 S
Tb236 O245 2.513 1_556 S
Tb236 O246 2.453 . S
Tb236 O247 2.596 1_565 S
Tb236 O248 2.374 1_566 S
O237 Tb234 2.453 . S
O237 C253 1.245 1_545 S
O238 Tb234 2.596 1_565 S
O238 Tb236 2.343 1_554 S
O238 C253 1.259 . S
O239 Tb234 2.374 1_565 S
O239 C235 1.251 . S
C240 O244 1.275 . S
C240 O245 1.246 . S
O241 C235 1.263 . S
O241 Tb236 2.353 1_554 S
C242 O246 1.245 1_545 S
C242 O247 1.259 . S
C243 O248 1.250 . S
C243 O249 1.263 . S
O244 Tb236 2.427 1_554 S
O244 C240 1.275 . S
O245 Tb236 2.513 1_554 S
O245 C240 1.246 . S
O246 Tb236 2.453 . S
O246 C242 1.245 1_565 S
O247 Tb234 2.343 1_556 S
O247 Tb236 2.596 1_545 S
O247 C242 1.259 . S
O248 Tb236 2.374 1_544 S
O248 C243 1.250 . S
O249 Tb234 2.353 . S
O249 C243 1.263 . S
C250 O251 1.275 . S
C250 O252 1.246 . S
O251 Tb234 2.427 . S
O251 C250 1.275 . S
O252 Tb234 2.513 . S
O252 C250 1.246 . S
C253 O237 1.245 1_565 S
C253 O238 1.259 . S
Tb254 O257 2.453 . S
Tb254 O258 2.596 1_655 S
Tb254 O259 2.374 1_655 S
Tb254 O267 2.343 1_554 S
Tb254 O269 2.353 . S
Tb254 O271 2.427 1_554 S
Tb254 O272 2.513 1_554 S
C255 O259 1.251 . S
C255 O261 1.263 1_554 S
Tb256 O258 2.343 1_556 S
Tb256 O261 2.353 . S
Tb256 O264 2.427 1_556 S
Tb256 O265 2.513 1_556 S
Tb256 O266 2.453 . S
Tb256 O267 2.596 1_455 S
Tb256 O268 2.374 1_455 S
O257 Tb254 2.453 . S
O257 C273 1.245 1_655 S
O258 Tb254 2.596 1_455 S
O258 Tb256 2.343 1_554 S
O258 C273 1.259 . S
O259 Tb254 2.374 1_455 S
O259 C255 1.251 . S
C260 O264 1.275 . S
C260 O265 1.246 . S
O261 C255 1.263 1_556 S
O261 Tb256 2.353 . S
C262 O266 1.245 1_655 S
C262 O267 1.259 . S
C263 O268 1.250 1_554 S
C263 O269 1.263 . S
O264 Tb256 2.427 1_554 S
O264 C260 1.275 . S
O265 Tb256 2.513 1_554 S
O265 C260 1.246 . S
O266 Tb256 2.453 . S
O266 C262 1.245 1_455 S
O267 Tb254 2.343 1_556 S
O267 Tb256 2.596 1_655 S
O267 C262 1.259 . S
O268 Tb256 2.374 1_655 S
O268 C263 1.250 1_556 S
O269 Tb254 2.353 . S
O269 C263 1.263 . S
C270 O271 1.275 . S
C270 O272 1.246 . S
O271 Tb254 2.427 1_556 S
O271 C270 1.275 . S
O272 Tb254 2.513 1_556 S
O272 C270 1.246 . S
C273 O257 1.245 1_455 S
C273 O258 1.259 . S
Tb274 O277 2.453 1_554 S
Tb274 O278 2.596 1_554 S
Tb274 O279 2.374 . S
Tb274 O287 2.343 . S
Tb274 O289 2.353 . S
Tb274 O291 2.427 . S
Tb274 O292 2.513 . S
C275 O279 1.251 . S
C275 O281 1.263 . S
Tb276 O278 2.343 1_554 S
Tb276 O281 2.353 . S
Tb276 O284 2.427 . S
Tb276 O285 2.513 . S
Tb276 O286 2.453 . S
Tb276 O287 2.596 . S
Tb276 O288 2.374 . S
O277 Tb274 2.453 1_556 S
O277 C293 1.245 . S
O278 Tb274 2.596 1_556 S
O278 Tb276 2.343 1_556 S
O278 C293 1.259 . S
O279 Tb274 2.374 . S
O279 C275 1.251 . S
C280 O284 1.275 1_556 S
C280 O285 1.246 1_556 S
O281 C275 1.263 . S
O281 Tb276 2.353 . S
C282 O286 1.245 . S
C282 O287 1.259 . S
C283 O288 1.250 . S
C283 O289 1.263 . S
O284 Tb276 2.427 . S
O284 C280 1.275 1_554 S
O285 Tb276 2.513 . S
O285 C280 1.246 1_554 S
O286 Tb276 2.453 . S
O286 C282 1.245 . S
O287 Tb274 2.343 . S
O287 Tb276 2.596 . S
O287 C282 1.259 . S
O288 Tb276 2.374 . S
O288 C283 1.250 . S
O289 Tb274 2.353 . S
O289 C283 1.263 . S
C290 O291 1.275 . S
C290 O292 1.246 . S
O291 Tb274 2.427 . S
O291 C290 1.275 . S
O292 Tb274 2.513 . S
O292 C290 1.246 . S
C293 O277 1.245 . S
C293 O278 1.259 . S
Tb294 O297 2.453 . S
Tb294 O298 2.596 . S
Tb294 O299 2.374 . S
Tb294 O307 2.343 . S
Tb294 O309 2.353 . S
Tb294 O311 2.427 . S
Tb294 O312 2.513 . S
C295 O299 1.251 . S
C295 O301 1.263 . S
Tb296 O298 2.343 . S
Tb296 O301 2.353 . S
Tb296 O304 2.427 . S
Tb296 O305 2.513 . S
Tb296 O306 2.453 . S
Tb296 O307 2.596 . S
Tb296 O308 2.374 . S
O297 Tb294 2.453 . S
O297 C313 1.245 . S
O298 Tb294 2.596 . S
O298 Tb296 2.343 . S
O298 C313 1.259 . S
O299 Tb294 2.374 . S
O299 C295 1.251 . S
C300 O304 1.275 . S
C300 O305 1.246 . S
O301 C295 1.263 . S
O301 Tb296 2.353 . S
C302 O306 1.245 . S
C302 O307 1.259 . S
C303 O308 1.250 . S
C303 O309 1.263 . S
O304 Tb296 2.427 . S
O304 C300 1.275 . S
O305 Tb296 2.513 . S
O305 C300 1.246 . S
O306 Tb296 2.453 . S
O306 C302 1.245 . S
O307 Tb294 2.343 . S
O307 Tb296 2.596 . S
O307 C302 1.259 . S
O308 Tb296 2.374 . S
O308 C303 1.250 . S
O309 Tb294 2.353 . S
O309 C303 1.263 . S
C310 O311 1.275 . S
C310 O312 1.246 . S
O311 Tb294 2.427 . S
O311 C310 1.275 . S
O312 Tb294 2.513 . S
O312 C310 1.246 . S
C313 O297 1.245 . S
C313 O298 1.259 . S
Tb314 O317 2.453 . S
Tb314 O318 2.596 . S
Tb314 O319 2.374 . S
Tb314 O327 2.343 . S
Tb314 O329 2.353 . S
Tb314 O331 2.427 . S
Tb314 O332 2.513 . S
C315 O319 1.251 . S
C315 O321 1.263 . S
Tb316 O318 2.343 . S
Tb316 O321 2.353 . S
Tb316 O324 2.427 . S
Tb316 O325 2.513 . S
Tb316 O326 2.453 . S
Tb316 O327 2.596 . S
Tb316 O328 2.374 . S
O317 Tb314 2.453 . S
O317 C333 1.245 . S
O318 Tb314 2.596 . S
O318 Tb316 2.343 . S
O318 C333 1.259 . S
O319 Tb314 2.374 . S
O319 C315 1.251 . S
C320 O324 1.275 . S
C320 O325 1.246 . S
O321 C315 1.263 . S
O321 Tb316 2.353 . S
C322 O326 1.245 . S
C322 O327 1.259 . S
C323 O328 1.250 . S
C323 O329 1.263 . S
O324 Tb316 2.427 . S
O324 C320 1.275 . S
O325 Tb316 2.513 . S
O325 C320 1.246 . S
O326 Tb316 2.453 . S
O326 C322 1.245 . S
O327 Tb314 2.343 . S
O327 Tb316 2.596 . S
O327 C322 1.259 . S
O328 Tb316 2.374 . S
O328 C323 1.250 . S
O329 Tb314 2.353 . S
O329 C323 1.263 . S
C330 O331 1.275 . S
C330 O332 1.246 . S
O331 Tb314 2.427 . S
O331 C330 1.275 . S
O332 Tb314 2.513 . S
O332 C330 1.246 . S
C333 O317 1.245 . S
C333 O318 1.259 . S
Tb334 O337 2.453 . S
Tb334 O338 2.596 . S
Tb334 O339 2.374 . S
Tb334 O347 2.343 . S
Tb334 O349 2.353 . S
Tb334 O351 2.427 . S
Tb334 O352 2.513 . S
C335 O339 1.251 . S
C335 O341 1.263 . S
Tb336 O338 2.343 . S
Tb336 O341 2.353 . S
Tb336 O344 2.427 . S
Tb336 O345 2.513 . S
Tb336 O346 2.453 . S
Tb336 O347 2.596 . S
Tb336 O348 2.374 . S
O337 Tb334 2.453 . S
O337 C353 1.245 . S
O338 Tb334 2.596 . S
O338 Tb336 2.343 . S
O338 C353 1.259 . S
O339 Tb334 2.374 . S
O339 C335 1.251 . S
C340 O344 1.275 . S
C340 O345 1.246 . S
O341 C335 1.263 . S
O341 Tb336 2.353 . S
C342 O346 1.245 . S
C342 O347 1.259 . S
C343 O348 1.250 . S
C343 O349 1.263 . S
O344 Tb336 2.427 . S
O344 C340 1.275 . S
O345 Tb336 2.513 . S
O345 C340 1.246 . S
O346 Tb336 2.453 . S
O346 C342 1.245 . S
O347 Tb334 2.343 . S
O347 Tb336 2.596 . S
O347 C342 1.259 . S
O348 Tb336 2.374 . S
O348 C343 1.250 . S
O349 Tb334 2.353 . S
O349 C343 1.263 . S
C350 O351 1.275 . S
C350 O352 1.246 . S
O351 Tb334 2.427 . S
O351 C350 1.275 . S
O352 Tb334 2.513 . S
O352 C350 1.246 . S
C353 O337 1.245 . S
C353 O338 1.259 . S
Tb354 O357 2.453 . S
Tb354 O358 2.596 . S
Tb354 O359 2.374 . S
Tb354 O367 2.343 . S
Tb354 O369 2.353 . S
Tb354 O371 2.427 . S
Tb354 O372 2.513 . S
C355 O359 1.251 . S
C355 O361 1.263 . S
Tb356 O358 2.343 . S
Tb356 O361 2.353 . S
Tb356 O364 2.427 . S
Tb356 O365 2.513 . S
Tb356 O366 2.453 . S
Tb356 O367 2.596 . S
Tb356 O368 2.374 . S
O357 Tb354 2.453 . S
O357 C373 1.245 . S
O358 Tb354 2.596 . S
O358 Tb356 2.343 . S
O358 C373 1.259 . S
O359 Tb354 2.374 . S
O359 C355 1.251 . S
C360 O364 1.275 . S
C360 O365 1.246 . S
O361 C355 1.263 . S
O361 Tb356 2.353 . S
C362 O366 1.245 . S
C362 O367 1.259 . S
C363 O368 1.250 . S
C363 O369 1.263 . S
O364 Tb356 2.427 . S
O364 C360 1.275 . S
O365 Tb356 2.513 . S
O365 C360 1.246 . S
O366 Tb356 2.453 . S
O366 C362 1.245 . S
O367 Tb354 2.343 . S
O367 Tb356 2.596 . S
O367 C362 1.259 . S
O368 Tb356 2.374 . S
O368 C363 1.250 . S
O369 Tb354 2.353 . S
O369 C363 1.263 . S
C370 O371 1.275 . S
C370 O372 1.246 . S
O371 Tb354 2.427 . S
O371 C370 1.275 . S
O372 Tb354 2.513 . S
O372 C370 1.246 . S
C373 O357 1.245 . S
C373 O358 1.259 . S
Tb374 O377 2.453 . S
Tb374 O378 2.596 . S
Tb374 O379 2.374 . S
Tb374 O387 2.343 . S
Tb374 O389 2.353 . S
Tb374 O391 2.427 . S
Tb374 O392 2.513 . S
C375 O379 1.251 . S
C375 O381 1.263 . S
Tb376 O378 2.343 . S
Tb376 O381 2.353 . S
Tb376 O384 2.427 . S
Tb376 O385 2.513 . S
Tb376 O386 2.453 . S
Tb376 O387 2.596 . S
Tb376 O388 2.374 . S
O377 Tb374 2.453 . S
O377 C393 1.245 . S
O378 Tb374 2.596 . S
O378 Tb376 2.343 . S
O378 C393 1.259 . S
O379 Tb374 2.374 . S
O379 C375 1.251 . S
C380 O384 1.275 . S
C380 O385 1.246 . S
O381 C375 1.263 . S
O381 Tb376 2.353 . S
C382 O386 1.245 . S
C382 O387 1.259 . S
C383 O388 1.250 . S
C383 O389 1.263 . S
O384 Tb376 2.427 . S
O384 C380 1.275 . S
O385 Tb376 2.513 . S
O385 C380 1.246 . S
O386 Tb376 2.453 . S
O386 C382 1.245 . S
O387 Tb374 2.343 . S
O387 Tb376 2.596 . S
O387 C382 1.259 . S
O388 Tb376 2.374 . S
O388 C383 1.250 . S
O389 Tb374 2.353 . S
O389 C383 1.263 . S
C390 O391 1.275 . S
C390 O392 1.246 . S
O391 Tb374 2.427 . S
O391 C390 1.275 . S
O392 Tb374 2.513 . S
O392 C390 1.246 . S
C393 O377 1.245 . S
C393 O378 1.259 . S
Tb394 O397 2.453 . S
Tb394 O398 2.596 . S
Tb394 O399 2.374 . S
Tb394 O407 2.343 . S
Tb394 O409 2.353 . S
Tb394 O411 2.427 . S
Tb394 O412 2.513 . S
C395 O399 1.251 . S
C395 O401 1.263 . S
Tb396 O398 2.343 . S
Tb396 O401 2.353 . S
Tb396 O404 2.427 . S
Tb396 O405 2.513 . S
Tb396 O406 2.453 . S
Tb396 O407 2.596 . S
Tb396 O408 2.374 . S
O397 Tb394 2.453 . S
O397 C413 1.245 . S
O398 Tb394 2.596 . S
O398 Tb396 2.343 . S
O398 C413 1.259 . S
O399 Tb394 2.374 . S
O399 C395 1.251 . S
C400 O404 1.275 . S
C400 O405 1.246 . S
O401 C395 1.263 . S
O401 Tb396 2.353 . S
C402 O406 1.245 . S
C402 O407 1.259 . S
C403 O408 1.250 . S
C403 O409 1.263 . S
O404 Tb396 2.427 . S
O404 C400 1.275 . S
O405 Tb396 2.513 . S
O405 C400 1.246 . S
O406 Tb396 2.453 . S
O406 C402 1.245 . S
O407 Tb394 2.343 . S
O407 Tb396 2.596 . S
O407 C402 1.259 . S
O408 Tb396 2.374 . S
O408 C403 1.250 . S
O409 Tb394 2.353 . S
O409 C403 1.263 . S
C410 O411 1.275 . S
C410 O412 1.246 . S
O411 Tb394 2.427 . S
O411 C410 1.275 . S
O412 Tb394 2.513 . S
O412 C410 1.246 . S
C413 O397 1.245 . S
C413 O398 1.259 . S
C414 C415 1.369 . S
C414 C416 1.419 . S
C414 H418 0.930 . S
C415 C414 1.369 . S
C415 C424 1.429 . S
C416 C414 1.419 . S
C416 C417 1.363 . S
C416 H419 0.929 . S
C417 C416 1.363 . S
C417 C423 1.428 . S
H418 C414 0.930 . S
H419 C416 0.929 . S
S420 N421 1.613 1_556 S
S420 N422 1.610 . S
N421 S420 1.613 1_554 S
N421 C424 1.350 . S
N422 S420 1.610 . S
N422 C423 1.351 1_556 S
C423 C417 1.428 . S
C423 N422 1.351 1_554 S
C423 C424 1.434 . S
C424 C415 1.429 . S
C424 N421 1.350 . S
C424 C423 1.434 . S
C425 C426 1.369 . S
C425 C427 1.419 . S
C425 H429 0.930 . S
C426 C425 1.369 . S
C426 C435 1.429 . S
C427 C425 1.419 . S
C427 C428 1.363 . S
C427 H430 0.929 . S
C428 C427 1.363 . S
C428 C434 1.428 . S
H429 C425 0.930 . S
H430 C427 0.929 . S
S431 N432 1.613 . S
S431 N433 1.610 . S
N432 S431 1.613 . S
N432 C435 1.350 . S
N433 S431 1.610 . S
N433 C434 1.351 . S
C434 C428 1.428 . S
C434 N433 1.351 . S
C434 C435 1.434 . S
C435 C426 1.429 . S
C435 N432 1.350 . S
C435 C434 1.434 . S
C436 C437 1.369 . S
C436 C438 1.419 . S
C436 H440 0.930 . S
C437 C436 1.369 . S
C437 C446 1.429 . S
C438 C436 1.419 . S
C438 C439 1.363 . S
C438 H441 0.929 . S
C439 C438 1.363 . S
C439 C445 1.428 . S
H440 C436 0.930 . S
H441 C438 0.929 . S
S442 N443 1.613 1_556 S
S442 N444 1.610 . S
N443 S442 1.613 1_554 S
N443 C446 1.350 . S
N444 S442 1.610 . S
N444 C445 1.351 1_556 S
C445 C439 1.428 . S
C445 N444 1.351 1_554 S
C445 C446 1.434 . S
C446 C437 1.429 . S
C446 N443 1.350 . S
C446 C445 1.434 . S
C447 C448 1.369 1_554 S
C447 C449 1.419 . S
C447 H451 0.930 . S
C448 C447 1.369 1_556 S
C448 C457 1.429 . S
C449 C447 1.419 . S
C449 C450 1.363 1_554 S
C449 H452 0.929 . S
C450 C449 1.363 1_556 S
C450 C456 1.428 . S
H451 C447 0.930 . S
H452 C449 0.929 . S
S453 N454 1.613 . S
S453 N455 1.610 . S
N454 S453 1.613 . S
N454 C457 1.350 . S
N455 S453 1.610 . S
N455 C456 1.351 . S
C456 C450 1.428 . S
C456 N455 1.351 . S
C456 C457 1.434 . S
C457 C448 1.429 . S
C457 N454 1.350 . S
C457 C456 1.434 . S
C458 C459 1.369 . S
C458 C460 1.419 . S
C458 H462 0.930 . S
C459 C458 1.369 . S
C459 C468 1.429 . S
C460 C458 1.419 . S
C460 C461 1.363 . S
C460 H463 0.929 . S
C461 C460 1.363 . S
C461 C467 1.428 . S
H462 C458 0.930 . S
H463 C460 0.929 . S
S464 N465 1.613 . S
S464 N466 1.610 . S
N465 S464 1.613 . S
N465 C468 1.350 . S
N466 S464 1.610 . S
N466 C467 1.351 . S
C467 C461 1.428 . S
C467 N466 1.351 . S
C467 C468 1.434 . S
C468 C459 1.429 . S
C468 N465 1.350 . S
C468 C467 1.434 . S
C469 C470 1.369 . S
C469 C471 1.419 . S
C469 H473 0.930 . S
C470 C469 1.369 . S
C470 C479 1.429 . S
C471 C469 1.419 . S
C471 C472 1.363 . S
C471 H474 0.929 . S
C472 C471 1.363 . S
C472 C478 1.428 1_556 S
H473 C469 0.930 . S
H474 C471 0.929 . S
S475 N476 1.613 . S
S475 N477 1.610 . S
N476 S475 1.613 . S
N476 C479 1.350 1_554 S
N477 S475 1.610 . S
N477 C478 1.351 . S
C478 C472 1.428 1_554 S
C478 N477 1.351 . S
C478 C479 1.434 1_554 S
C479 C470 1.429 . S
C479 N476 1.350 1_556 S
C479 C478 1.434 1_556 S
C480 C481 1.369 . S
C480 C482 1.419 . S
C480 H484 0.930 . S
C481 C480 1.369 . S
C481 C490 1.429 . S
C482 C480 1.419 . S
C482 C483 1.363 . S
C482 H485 0.929 . S
C483 C482 1.363 . S
C483 C489 1.428 1_556 S
H484 C480 0.930 . S
H485 C482 0.929 . S
S486 N487 1.613 . S
S486 N488 1.610 . S
N487 S486 1.613 . S
N487 C490 1.350 1_554 S
N488 S486 1.610 . S
N488 C489 1.351 . S
C489 C483 1.428 1_554 S
C489 N488 1.351 . S
C489 C490 1.434 1_554 S
C490 C481 1.429 . S
C490 N487 1.350 1_556 S
C490 C489 1.434 1_556 S
C491 C492 1.369 . S
C491 C493 1.419 . S
C491 H495 0.930 . S
C492 C491 1.369 . S
C492 C501 1.429 . S
C493 C491 1.419 . S
C493 C494 1.363 . S
C493 H496 0.929 . S
C494 C493 1.363 . S
C494 C500 1.428 . S
H495 C491 0.930 . S
H496 C493 0.929 . S
S497 N498 1.613 . S
S497 N499 1.610 . S
N498 S497 1.613 . S
N498 C501 1.350 . S
N499 S497 1.610 . S
N499 C500 1.351 . S
C500 C494 1.428 . S
C500 N499 1.351 . S
C500 C501 1.434 . S
C501 C492 1.429 . S
C501 N498 1.350 . S
C501 C500 1.434 . S
C502 C503 1.369 1_554 S
C502 C504 1.419 . S
C502 H506 0.930 . S
C503 C502 1.369 1_556 S
C503 C512 1.429 . S
C504 C502 1.419 . S
C504 C505 1.363 . S
C504 H507 0.929 . S
C505 C504 1.363 . S
C505 C511 1.428 1_554 S
H506 C502 0.930 . S
H507 C504 0.929 . S
S508 N509 1.613 . S
S508 N510 1.610 . S
N509 S508 1.613 . S
N509 C512 1.350 . S
N510 S508 1.610 . S
N510 C511 1.351 . S
C511 C505 1.428 1_556 S
C511 N510 1.351 . S
C511 C512 1.434 . S
C512 C503 1.429 . S
C512 N509 1.350 . S
C512 C511 1.434 . S
C513 C514 1.369 . S
C513 C515 1.419 . S
C513 H517 0.930 1_554 S
C514 C513 1.369 . S
C514 C523 1.429 . S
C515 C513 1.419 . S
C515 C516 1.363 . S
C515 H518 0.929 1_554 S
C516 C515 1.363 . S
C516 C522 1.428 . S
H517 C513 0.930 1_556 S
H518 C515 0.929 1_556 S
S519 N520 1.613 . S
S519 N521 1.610 . S
N520 S519 1.613 . S
N520 C523 1.350 . S
N521 S519 1.610 . S
N521 C522 1.351 . S
C522 C516 1.428 . S
C522 N521 1.351 . S
C522 C523 1.434 . S
C523 C514 1.429 . S
C523 N520 1.350 . S
C523 C522 1.434 . S
C524 C525 1.369 . S
C524 C526 1.419 . S
C524 H528 0.930 . S
C525 C524 1.369 . S
C525 C534 1.429 . S
C526 C524 1.419 . S
C526 C527 1.363 . S
C526 H529 0.929 . S
C527 C526 1.363 . S
C527 C533 1.428 . S
H528 C524 0.930 . S
H529 C526 0.929 . S
S530 N531 1.613 . S
S530 N532 1.610 . S
N531 S530 1.613 . S
N531 C534 1.350 . S
N532 S530 1.610 . S
N532 C533 1.351 . S
C533 C527 1.428 . S
C533 N532 1.351 . S
C533 C534 1.434 . S
C534 C525 1.429 . S
C534 N531 1.350 . S
C534 C533 1.434 . S
C535 C536 1.369 . S
C535 C537 1.419 . S
C535 H539 0.930 . S
C536 C535 1.369 . S
C536 C545 1.429 . S
C537 C535 1.419 . S
C537 C538 1.363 . S
C537 H540 0.929 . S
C538 C537 1.363 . S
C538 C544 1.428 . S
H539 C535 0.930 . S
H540 C537 0.929 . S
S541 N542 1.613 . S
S541 N543 1.610 . S
N542 S541 1.613 . S
N542 C545 1.350 . S
N543 S541 1.610 . S
N543 C544 1.351 . S
C544 C538 1.428 . S
C544 N543 1.351 . S
C544 C545 1.434 . S
C545 C536 1.429 . S
C545 N542 1.350 . S
C545 C544 1.434 . S
C546 C547 1.369 . S
C546 C548 1.419 1_655 S
C546 H550 0.930 . S
C547 C546 1.369 . S
C547 C556 1.429 . S
C548 C546 1.419 1_455 S
C548 C549 1.363 . S
C548 H551 0.929 . S
C549 C548 1.363 . S
C549 C555 1.428 1_455 S
H550 C546 0.930 . S
H551 C548 0.929 . S
S552 N553 1.613 . S
S552 N554 1.592 1_655 S
N553 S552 1.613 . S
N553 C556 1.350 . S
N554 S552 1.592 1_455 S
N554 C555 1.345 1_455 S
C555 C549 1.428 1_655 S
C555 N554 1.345 1_655 S
C555 C556 1.434 . S
C556 C547 1.429 . S
C556 N553 1.350 . S
C556 C555 1.434 . S
C557 C558 1.369 . S
C557 C559 1.419 . S
C557 H561 0.930 . S
C558 C557 1.369 . S
C558 C567 1.429 . S
C559 C557 1.419 . S
C559 C560 1.363 . S
C559 H562 0.929 . S
C560 C559 1.363 . S
C560 C566 1.428 . S
H561 C557 0.930 . S
H562 C559 0.929 . S
S563 N564 1.613 . S
S563 N565 1.610 . S
N564 S563 1.613 . S
N564 C567 1.350 . S
N565 S563 1.610 . S
N565 C566 1.351 . S
C566 C560 1.428 . S
C566 N565 1.351 . S
C566 C567 1.434 . S
C567 C558 1.429 . S
C567 N564 1.350 . S
C567 C566 1.434 . S
C568 C569 1.369 . S
C568 C570 1.419 1_545 S
C568 H572 0.930 . S
C569 C568 1.369 . S
C569 C578 1.429 . S
C570 C568 1.419 1_565 S
C570 C571 1.363 . S
C570 H573 0.929 . S
C571 C570 1.363 . S
C571 C577 1.428 . S
H572 C568 0.930 . S
H573 C570 0.929 . S
S574 N575 1.613 1_565 S
S574 N576 1.610 . S
N575 S574 1.613 1_545 S
N575 C578 1.350 . S
N576 S574 1.610 . S
N576 C577 1.351 . S
C577 C571 1.428 . S
C577 N576 1.351 . S
C577 C578 1.434 1_565 S
C578 C569 1.429 . S
C578 N575 1.350 . S
C578 C577 1.434 1_545 S
C579 C580 1.369 . S
C579 C581 1.419 . S
C579 H583 0.930 . S
C580 C579 1.369 . S
C580 C589 1.429 . S
C581 C579 1.419 . S
C581 C582 1.363 . S
C581 H584 0.929 . S
C582 C581 1.363 . S
C582 C588 1.428 . S
H583 C579 0.930 . S
H584 C581 0.929 . S
S585 N586 1.613 . S
S585 N587 1.610 . S
N586 S585 1.613 . S
N586 C589 1.350 . S
N587 S585 1.610 . S
N587 C588 1.351 . S
C588 C582 1.428 . S
C588 N587 1.351 . S
C588 C589 1.434 . S
C589 C580 1.429 . S
C589 N586 1.350 . S
C589 C588 1.434 . S
C590 C591 1.369 . S
C590 C592 1.419 . S
C590 H594 0.930 . S
C591 C590 1.369 . S
C591 C600 1.429 . S
C592 C590 1.419 . S
C592 C593 1.363 . S
C592 H595 0.929 . S
C593 C592 1.363 . S
C593 C599 1.428 . S
H594 C590 0.930 . S
H595 C592 0.929 . S
S596 N597 1.613 . S
S596 N598 1.610 . S
N597 S596 1.613 . S
N597 C600 1.350 . S
N598 S596 1.610 . S
N598 C599 1.351 . S
C599 C593 1.428 . S
C599 N598 1.351 . S
C599 C600 1.434 . S
C600 C591 1.429 . S
C600 N597 1.350 . S
C600 C599 1.434 . S
C601 C602 1.369 . S
C601 C603 1.419 . S
C601 H605 0.930 . S
C602 C601 1.369 . S
C602 C611 1.429 . S
C603 C601 1.419 . S
C603 C604 1.363 . S
C603 H606 0.929 . S
C604 C603 1.363 . S
C604 C610 1.428 . S
H605 C601 0.930 . S
H606 C603 0.929 . S
S607 N608 1.613 . S
S607 N609 1.610 . S
N608 S607 1.613 . S
N608 C611 1.350 . S
N609 S607 1.610 . S
N609 C610 1.351 . S
C610 C604 1.428 . S
C610 N609 1.351 . S
C610 C611 1.434 . S
C611 C602 1.429 . S
C611 N608 1.350 . S
C611 C610 1.434 . S
C612 C613 1.369 . S
C612 C614 1.419 . S
C612 H616 0.930 . S
C613 C612 1.369 . S
C613 C622 1.429 . S
C614 C612 1.419 . S
C614 C615 1.363 . S
C614 H617 0.929 . S
C615 C614 1.363 . S
C615 C621 1.428 . S
H616 C612 0.930 . S
H617 C614 0.929 . S
S618 N619 1.613 . S
S618 N620 1.610 . S
N619 S618 1.613 . S
N619 C622 1.350 . S
N620 S618 1.610 . S
N620 C621 1.351 . S
C621 C615 1.428 . S
C621 N620 1.351 . S
C621 C622 1.434 . S
C622 C613 1.429 . S
C622 N619 1.350 . S
C622 C621 1.434 . S
C623 C624 1.369 . S
C623 C625 1.419 . S
C623 H627 0.930 . S
C624 C623 1.369 . S
C624 C633 1.429 . S
C625 C623 1.419 . S
C625 C626 1.363 . S
C625 H628 0.929 . S
C626 C625 1.363 . S
C626 C632 1.428 . S
H627 C623 0.930 . S
H628 C625 0.929 . S
S629 N630 1.613 . S
S629 N631 1.610 . S
N630 S629 1.613 . S
N630 C633 1.350 . S
N631 S629 1.610 . S
N631 C632 1.351 . S
C632 C626 1.428 . S
C632 N631 1.351 . S
C632 C633 1.434 . S
C633 C624 1.429 . S
C633 N630 1.350 . S
C633 C632 1.434 . S
C634 C635 1.369 . S
C634 C636 1.419 . S
C634 H638 0.930 . S
C635 C634 1.369 . S
C635 C644 1.429 . S
C636 C634 1.419 . S
C636 C637 1.363 . S
C636 H639 0.929 . S
C637 C636 1.363 . S
C637 C643 1.428 . S
H638 C634 0.930 . S
H639 C636 0.929 . S
S640 N641 1.613 . S
S640 N642 1.610 . S
N641 S640 1.613 . S
N641 C644 1.350 . S
N642 S640 1.610 . S
N642 C643 1.351 . S
C643 C637 1.428 . S
C643 N642 1.351 . S
C643 C644 1.434 . S
C644 C635 1.429 . S
C644 N641 1.350 . S
C644 C643 1.434 . S
C645 C646 1.369 . S
C645 C647 1.419 1_545 S
C645 H649 0.930 . S
C646 C645 1.369 . S
C646 C655 1.429 . S
C647 C645 1.419 1_565 S
C647 C648 1.363 . S
C647 H650 0.929 . S
C648 C647 1.363 . S
C648 C654 1.430 . S
H649 C645 0.930 . S
H650 C647 0.929 . S
S651 N652 1.613 . S
S651 N653 1.610 1_545 S
N652 S651 1.613 . S
N652 C655 1.350 . S
N653 S651 1.610 1_565 S
N653 C654 1.350 . S
C654 C648 1.430 . S
C654 N653 1.350 . S
C654 C655 1.433 1_565 S
C655 C646 1.429 . S
C655 N652 1.350 . S
C655 C654 1.433 1_545 S
C656 C657 1.369 . S
C656 C658 1.419 1_655 S
C656 H660 0.930 . S
C657 C656 1.369 . S
C657 C666 1.429 . S
C658 C656 1.419 1_455 S
C658 C659 1.363 . S
C658 H661 0.929 . S
C659 C658 1.363 . S
C659 C665 1.428 . S
H660 C656 0.930 . S
H661 C658 0.929 . S
S662 N663 1.613 . S
S662 N664 1.610 1_655 S
N663 S662 1.613 . S
N663 C666 1.350 . S
N664 S662 1.610 1_455 S
N664 C665 1.351 . S
C665 C659 1.428 . S
C665 N664 1.351 . S
C665 C666 1.434 1_455 S
C666 C657 1.429 . S
C666 N663 1.350 . S
C666 C665 1.434 1_655 S
C667 C668 1.369 . S
C667 C669 1.419 . S
C667 H671 0.930 . S
C668 C667 1.369 . S
C668 C677 1.429 . S
C669 C667 1.419 . S
C669 C670 1.363 . S
C669 H672 0.929 . S
C670 C669 1.363 . S
C670 C676 1.428 . S
H671 C667 0.930 . S
H672 C669 0.929 . S
S673 N674 1.613 . S
S673 N675 1.610 . S
N674 S673 1.613 . S
N674 C677 1.350 . S
N675 S673 1.610 . S
N675 C676 1.351 . S
C676 C670 1.428 . S
C676 N675 1.351 . S
C676 C677 1.434 . S
C677 C668 1.429 . S
C677 N674 1.350 . S
C677 C676 1.434 . S
C678 C679 1.369 . S
C678 C680 1.419 . S
C678 H682 0.930 . S
C679 C678 1.369 . S
C679 C688 1.429 . S
C680 C678 1.419 . S
C680 C681 1.363 . S
C680 H683 0.929 . S
C681 C680 1.363 . S
C681 C687 1.428 . S
H682 C678 0.930 . S
H683 C680 0.929 . S
S684 N685 1.613 . S
S684 N686 1.610 . S
N685 S684 1.613 . S
N685 C688 1.350 . S
N686 S684 1.610 . S
N686 C687 1.351 . S
C687 C681 1.428 . S
C687 N686 1.351 . S
C687 C688 1.434 . S
C688 C679 1.429 . S
C688 N685 1.350 . S
C688 C687 1.434 . S
C689 C690 1.369 . S
C689 C691 1.419 . S
C689 H693 0.930 . S
C690 C689 1.369 . S
C690 C699 1.429 . S
C691 C689 1.419 . S
C691 C692 1.363 . S
C691 H694 0.929 . S
C692 C691 1.363 . S
C692 C698 1.428 . S
H693 C689 0.930 . S
H694 C691 0.929 . S
S695 N696 1.613 . S
S695 N697 1.610 . S
N696 S695 1.613 . S
N696 C699 1.350 . S
N697 S695 1.610 . S
N697 C698 1.351 . S
C698 C692 1.428 . S
C698 N697 1.351 . S
C698 C699 1.434 . S
C699 C690 1.429 . S
C699 N696 1.350 . S
C699 C698 1.434 . S
C700 C701 1.369 . S
C700 C702 1.419 . S
C700 H704 0.930 . S
C701 C700 1.369 . S
C701 C710 1.429 . S
C702 C700 1.419 . S
C702 C703 1.363 . S
C702 H705 0.929 . S
C703 C702 1.363 . S
C703 C709 1.428 . S
H704 C700 0.930 . S
H705 C702 0.929 . S
S706 N707 1.613 . S
S706 N708 1.610 . S
N707 S706 1.613 . S
N707 C710 1.350 . S
N708 S706 1.610 . S
N708 C709 1.351 . S
C709 C703 1.428 . S
C709 N708 1.351 . S
C709 C710 1.434 . S
C710 C701 1.429 . S
C710 N707 1.350 . S
C710 C709 1.434 . S
C711 C712 1.369 1_545 S
C711 C713 1.419 . S
C711 H715 0.924 . S
C712 C711 1.369 1_565 S
C712 C721 1.429 . S
C713 C711 1.419 . S
C713 C714 1.363 . S
C713 H716 0.929 . S
C714 C713 1.363 . S
C714 C720 1.428 . S
H715 C711 0.924 . S
H716 C713 0.929 . S
S717 N718 1.613 . S
S717 N719 1.610 1_565 S
N718 S717 1.613 . S
N718 C721 1.350 . S
N719 S717 1.610 1_545 S
N719 C720 1.351 . S
C720 C714 1.428 . S
C720 N719 1.351 . S
C720 C721 1.434 1_545 S
C721 C712 1.429 . S
C721 N718 1.350 . S
C721 C720 1.434 1_565 S
C722 C723 1.369 . S
C722 C724 1.419 1_455 S
C722 H726 0.930 . S
C723 C722 1.369 . S
C723 C732 1.429 . S
C724 C722 1.419 1_655 S
C724 C725 1.363 . S
C724 H727 0.929 . S
C725 C724 1.363 . S
C725 C731 1.428 . S
H726 C722 0.930 . S
H727 C724 0.929 . S
S728 N729 1.613 . S
S728 N730 1.610 1_455 S
N729 S728 1.613 . S
N729 C732 1.350 . S
N730 S728 1.610 1_655 S
N730 C731 1.351 . S
C731 C725 1.428 . S
C731 N730 1.351 . S
C731 C732 1.434 1_655 S
C732 C723 1.429 . S
C732 N729 1.350 . S
C732 C731 1.434 1_455 S
C733 C734 1.369 . S
C733 C735 1.419 . S
C733 H737 0.930 . S
C734 C733 1.369 . S
C734 C743 1.429 . S
C735 C733 1.419 . S
C735 C736 1.363 . S
C735 H738 0.929 . S
C736 C735 1.363 . S
C736 C742 1.428 . S
H737 C733 0.930 . S
H738 C735 0.929 . S
S739 N740 1.613 . S
S739 N741 1.610 . S
N740 S739 1.613 . S
N740 C743 1.350 . S
N741 S739 1.610 . S
N741 C742 1.351 . S
C742 C736 1.428 . S
C742 N741 1.351 . S
C742 C743 1.434 . S
C743 C734 1.429 . S
C743 N740 1.350 . S
C743 C742 1.434 . S
C744 C745 1.369 . S
C744 C746 1.419 . S
C744 H748 0.930 . S
C745 C744 1.369 . S
C745 C754 1.429 . S
C746 C744 1.419 . S
C746 C747 1.363 . S
C746 H749 0.929 . S
C747 C746 1.363 . S
C747 C753 1.428 . S
H748 C744 0.930 . S
H749 C746 0.929 . S
S750 N751 1.613 . S
S750 N752 1.610 1_455 S
N751 S750 1.613 . S
N751 C754 1.350 . S
N752 S750 1.610 1_655 S
N752 C753 1.351 1_655 S
C753 C747 1.428 . S
C753 N752 1.351 1_455 S
C753 C754 1.434 . S
C754 C745 1.429 . S
C754 N751 1.350 . S
C754 C753 1.434 . S
C755 C756 1.369 . S
C755 C757 1.419 . S
C755 H759 0.930 . S
C756 C755 1.369 . S
C756 C765 1.429 . S
C757 C755 1.419 . S
C757 C758 1.363 . S
C757 H760 0.929 . S
C758 C757 1.363 . S
C758 C764 1.428 . S
H759 C755 0.930 . S
H760 C757 0.929 . S
S761 N762 1.613 . S
S761 N763 1.610 . S
N762 S761 1.613 . S
N762 C765 1.350 . S
N763 S761 1.610 . S
N763 C764 1.351 . S
C764 C758 1.428 . S
C764 N763 1.351 . S
C764 C765 1.434 . S
C765 C756 1.429 . S
C765 N762 1.350 . S
C765 C764 1.434 . S
C766 C767 1.369 . S
C766 C768 1.419 1_565 S
C766 H770 0.930 . S
C767 C766 1.369 . S
C767 C776 1.429 . S
C768 C766 1.419 1_545 S
C768 C769 1.363 . S
C768 H771 0.929 . S
C769 C768 1.363 . S
C769 C775 1.428 . S
H770 C766 0.930 . S
H771 C768 0.929 . S
S772 N773 1.613 . S
S772 N774 1.610 1_565 S
N773 S772 1.613 . S
N773 C776 1.350 . S
N774 S772 1.610 1_545 S
N774 C775 1.351 . S
C775 C769 1.428 . S
C775 N774 1.351 . S
C775 C776 1.434 1_545 S
C776 C767 1.429 . S
C776 N773 1.350 . S
C776 C775 1.434 1_565 S
C777 C778 1.369 . S
C777 C779 1.419 . S
C777 H781 0.930 . S
C778 C777 1.369 . S
C778 C787 1.429 . S
C779 C777 1.419 . S
C779 C780 1.363 . S
C779 H782 0.929 . S
C780 C779 1.363 . S
C780 C786 1.428 . S
H781 C777 0.930 . S
H782 C779 0.929 . S
S783 N784 1.613 . S
S783 N785 1.610 . S
N784 S783 1.613 . S
N784 C787 1.350 . S
N785 S783 1.610 . S
N785 C786 1.351 . S
C786 C780 1.428 . S
C786 N785 1.351 . S
C786 C787 1.434 . S
C787 C778 1.429 . S
C787 N784 1.350 . S
C787 C786 1.434 . S
C788 C789 1.369 . S
C788 C790 1.419 . S
C788 H792 0.930 . S
C789 C788 1.369 . S
C789 C798 1.429 . S
C790 C788 1.419 . S
C790 C791 1.363 . S
C790 H793 0.929 . S
C791 C790 1.363 . S
C791 C797 1.428 . S
H792 C788 0.930 . S
H793 C790 0.929 . S
S794 N795 1.613 . S
S794 N796 1.610 . S
N795 S794 1.613 . S
N795 C798 1.350 . S
N796 S794 1.610 . S
N796 C797 1.351 . S
C797 C791 1.428 . S
C797 N796 1.351 . S
C797 C798 1.434 . S
C798 C789 1.429 . S
C798 N795 1.350 . S
C798 C797 1.434 . S
C799 C800 1.369 . S
C799 C801 1.419 . S
C799 H803 0.930 . S
C800 C799 1.369 . S
C800 C809 1.429 . S
C801 C799 1.419 . S
C801 C802 1.363 . S
C801 H804 0.929 . S
C802 C801 1.363 . S
C802 C808 1.428 . S
H803 C799 0.930 . S
H804 C801 0.929 . S
S805 N806 1.613 . S
S805 N807 1.610 . S
N806 S805 1.613 . S
N806 C809 1.350 . S
N807 S805 1.610 . S
N807 C808 1.351 . S
C808 C802 1.428 . S
C808 N807 1.351 . S
C808 C809 1.434 . S
C809 C800 1.429 . S
C809 N806 1.350 . S
C809 C808 1.434 . S
C810 C811 1.369 . S
C810 C812 1.419 . S
C810 H814 0.930 . S
C811 C810 1.369 . S
C811 C820 1.429 . S
C812 C810 1.419 . S
C812 C813 1.363 . S
C812 H815 0.929 . S
C813 C812 1.363 . S
C813 C819 1.428 . S
H814 C810 0.930 . S
H815 C812 0.929 . S
S816 N817 1.613 1_545 S
S816 N818 1.610 . S
N817 S816 1.613 1_565 S
N817 C820 1.350 . S
N818 S816 1.610 . S
N818 C819 1.351 1_545 S
C819 C813 1.428 . S
C819 N818 1.351 1_565 S
C819 C820 1.434 . S
C820 C811 1.429 . S
C820 N817 1.350 . S
C820 C819 1.434 . S
C821 C822 1.369 . S
C821 C823 1.419 . S
C821 H825 0.930 . S
C822 C821 1.369 . S
C822 C831 1.429 . S
C823 C821 1.419 . S
C823 C824 1.363 . S
C823 H826 0.929 1_455 S
C824 C823 1.363 . S
C824 C830 1.428 . S
H825 C821 0.930 . S
H826 C823 0.929 1_655 S
S827 N828 1.613 . S
S827 N829 1.610 . S
N828 S827 1.613 . S
N828 C831 1.350 . S
N829 S827 1.610 . S
N829 C830 1.351 . S
C830 C824 1.428 . S
C830 N829 1.351 . S
C830 C831 1.434 . S
C831 C822 1.429 . S
C831 N828 1.350 . S
C831 C830 1.434 . S
C832 C833 1.369 . S
C832 C834 1.419 . S
C832 H836 0.930 . S
C833 C832 1.369 . S
C833 C842 1.429 . S
C834 C832 1.419 . S
C834 C835 1.363 . S
C834 H837 0.929 . S
C835 C834 1.363 . S
C835 C841 1.428 . S
H836 C832 0.930 . S
H837 C834 0.929 . S
S838 N839 1.613 . S
S838 N840 1.610 . S
N839 S838 1.613 . S
N839 C842 1.350 . S
N840 S838 1.610 . S
N840 C841 1.351 . S
C841 C835 1.428 . S
C841 N840 1.351 . S
C841 C842 1.434 . S
C842 C833 1.429 . S
C842 N839 1.350 . S
C842 C841 1.434 . S
C843 C844 1.369 . S
C843 C845 1.419 . S
C843 H847 0.930 . S
C844 C843 1.369 . S
C844 C853 1.429 . S
C845 C843 1.419 . S
C845 C846 1.363 . S
C845 H848 0.929 . S
C846 C845 1.363 . S
C846 C852 1.428 . S
H847 C843 0.930 . S
H848 C845 0.929 . S
S849 N850 1.613 1_455 S
S849 N851 1.610 . S
N850 S849 1.613 1_655 S
N850 C853 1.350 . S
N851 S849 1.610 . S
N851 C852 1.351 1_455 S
C852 C846 1.428 . S
C852 N851 1.351 1_655 S
C852 C853 1.434 . S
C853 C844 1.429 . S
C853 N850 1.350 . S
C853 C852 1.434 . S
C854 C855 1.369 . S
C854 C856 1.419 . S
C854 H858 0.930 . S
C855 C854 1.369 . S
C855 C864 1.429 . S
C856 C854 1.419 . S
C856 C857 1.363 . S
C856 H859 0.929 . S
C857 C856 1.363 . S
C857 C863 1.428 . S
H858 C854 0.930 . S
H859 C856 0.929 . S
S860 N861 1.613 . S
S860 N862 1.610 . S
N861 S860 1.613 . S
N861 C864 1.350 . S
N862 S860 1.610 . S
N862 C863 1.351 . S
C863 C857 1.428 . S
C863 N862 1.351 . S
C863 C864 1.434 . S
C864 C855 1.429 . S
C864 N861 1.350 . S
C864 C863 1.434 . S
C865 C866 1.369 . S
C865 C867 1.419 . S
C865 H869 0.930 . S
C866 C865 1.369 . S
C866 C875 1.429 . S
C867 C865 1.419 . S
C867 C868 1.363 . S
C867 H870 0.929 . S
C868 C867 1.363 . S
C868 C874 1.428 . S
H869 C865 0.930 . S
H870 C867 0.929 . S
S871 N872 1.613 . S
S871 N873 1.610 . S
N872 S871 1.613 . S
N872 C875 1.350 . S
N873 S871 1.610 . S
N873 C874 1.351 . S
C874 C868 1.428 . S
C874 N873 1.351 . S
C874 C875 1.434 . S
C875 C866 1.429 . S
C875 N872 1.350 . S
C875 C874 1.434 . S
C876 C877 1.369 . S
C876 C878 1.419 . S
C876 H880 0.930 . S
C877 C876 1.369 . S
C877 C886 1.429 . S
C878 C876 1.419 . S
C878 C879 1.363 . S
C878 H881 0.929 . S
C879 C878 1.363 . S
C879 C885 1.428 . S
H880 C876 0.930 . S
H881 C878 0.929 . S
S882 N883 1.613 . S
S882 N884 1.610 . S
N883 S882 1.613 . S
N883 C886 1.350 . S
N884 S882 1.610 . S
N884 C885 1.351 . S
C885 C879 1.428 . S
C885 N884 1.351 . S
C885 C886 1.434 . S
C886 C877 1.429 . S
C886 N883 1.350 . S
C886 C885 1.434 . S
C887 C888 1.369 . S
C887 C889 1.419 . S
C887 H891 0.930 . S
C888 C887 1.369 . S
C888 C897 1.429 . S
C889 C887 1.419 . S
C889 C890 1.363 . S
C889 H892 0.929 . S
C890 C889 1.363 . S
C890 C896 1.428 . S
H891 C887 0.930 . S
H892 C889 0.929 . S
S893 N894 1.613 . S
S893 N895 1.610 . S
N894 S893 1.613 . S
N894 C897 1.350 . S
N895 S893 1.610 . S
N895 C896 1.351 . S
C896 C890 1.428 . S
C896 N895 1.351 . S
C896 C897 1.434 . S
C897 C888 1.429 . S
C897 N894 1.350 . S
C897 C896 1.434 . S
C898 C899 1.369 . S
C898 C900 1.419 . S
C898 H902 0.930 . S
C899 C898 1.369 . S
C899 C908 1.429 . S
C900 C898 1.419 . S
C900 C901 1.363 . S
C900 H903 0.929 . S
C901 C900 1.363 . S
C901 C907 1.428 . S
H902 C898 0.930 . S
H903 C900 0.929 . S
S904 N905 1.613 . S
S904 N906 1.610 . S
N905 S904 1.613 . S
N905 C908 1.350 . S
N906 S904 1.610 . S
N906 C907 1.351 . S
C907 C901 1.428 . S
C907 N906 1.351 . S
C907 C908 1.434 . S
C908 C899 1.429 . S
C908 N905 1.350 . S
C908 C907 1.434 . S
C909 C910 1.369 . S
C909 C911 1.419 . S
C909 H913 0.930 . S
C910 C909 1.369 . S
C910 C919 1.429 . S
C911 C909 1.419 . S
C911 C912 1.363 . S
C911 H914 0.929 . S
C912 C911 1.363 . S
C912 C918 1.428 . S
H913 C909 0.930 . S
H914 C911 0.929 . S
S915 N916 1.613 . S
S915 N917 1.610 . S
N916 S915 1.613 . S
N916 C919 1.350 . S
N917 S915 1.610 . S
N917 C918 1.351 . S
C918 C912 1.428 . S
C918 N917 1.351 . S
C918 C919 1.434 . S
C919 C910 1.429 . S
C919 N916 1.350 . S
C919 C918 1.434 . S
C920 C921 1.369 . S
C920 C922 1.419 . S
C920 H924 0.930 . S
C921 C920 1.369 . S
C921 C930 1.429 . S
C922 C920 1.419 . S
C922 C923 1.363 . S
C922 H925 0.929 . S
C923 C922 1.363 . S
C923 C929 1.428 . S
H924 C920 0.930 . S
H925 C922 0.929 . S
S926 N927 1.613 . S
S926 N928 1.610 . S
N927 S926 1.613 . S
N927 C930 1.350 . S
N928 S926 1.610 . S
N928 C929 1.351 . S
C929 C923 1.428 . S
C929 N928 1.351 . S
C929 C930 1.434 . S
C930 C921 1.429 . S
C930 N927 1.350 . S
C930 C929 1.434 . S
C931 C932 1.369 . S
C931 C933 1.419 . S
C931 H935 0.930 . S
C932 C931 1.369 . S
C932 C941 1.429 . S
C933 C931 1.419 . S
C933 C934 1.363 . S
C933 H936 0.929 . S
C934 C933 1.363 . S
C934 C940 1.428 . S
H935 C931 0.930 . S
H936 C933 0.929 . S
S937 N938 1.613 . S
S937 N939 1.610 . S
N938 S937 1.613 . S
N938 C941 1.350 . S
N939 S937 1.610 . S
N939 C940 1.351 . S
C940 C934 1.428 . S
C940 N939 1.351 . S
C940 C941 1.434 . S
C941 C932 1.429 . S
C941 N938 1.350 . S
C941 C940 1.434 . S
C942 C943 1.369 . S
C942 C944 1.419 . S
C942 H946 0.930 . S
C943 C942 1.369 . S
C943 C952 1.429 . S
C944 C942 1.419 . S
C944 C945 1.363 . S
C944 H947 0.929 . S
C945 C944 1.363 . S
C945 C951 1.428 . S
H946 C942 0.930 . S
H947 C944 0.929 . S
S948 N949 1.613 . S
S948 N950 1.610 . S
N949 S948 1.613 . S
N949 C952 1.350 . S
N950 S948 1.610 . S
N950 C951 1.351 . S
C951 C945 1.428 . S
C951 N950 1.351 . S
C951 C952 1.434 . S
C952 C943 1.429 . S
C952 N949 1.350 . S
C952 C951 1.434 . S
C953 C954 1.369 . S
C953 C955 1.419 . S
C953 H957 0.930 . S
C954 C953 1.369 . S
C954 C963 1.429 . S
C955 C953 1.419 . S
C955 C956 1.363 . S
C955 H958 0.929 . S
C956 C955 1.363 . S
C956 C962 1.428 . S
H957 C953 0.930 . S
H958 C955 0.929 . S
S959 N960 1.613 . S
S959 N961 1.610 . S
N960 S959 1.613 . S
N960 C963 1.350 . S
N961 S959 1.610 . S
N961 C962 1.351 . S
C962 C956 1.428 . S
C962 N961 1.351 . S
C962 C963 1.434 . S
C963 C954 1.429 . S
C963 N960 1.350 . S
C963 C962 1.434 . S
C964 C965 1.369 . S
C964 C966 1.419 . S
C964 H968 0.930 . S
C965 C964 1.369 . S
C965 C974 1.429 . S
C966 C964 1.419 . S
C966 C967 1.363 . S
C966 H969 0.929 . S
C967 C966 1.363 . S
C967 C973 1.428 . S
H968 C964 0.930 . S
H969 C966 0.929 . S
S970 N971 1.613 . S
S970 N972 1.610 . S
N971 S970 1.613 . S
N971 C974 1.350 . S
N972 S970 1.610 . S
N972 C973 1.351 . S
C973 C967 1.428 . S
C973 N972 1.351 . S
C973 C974 1.434 . S
C974 C965 1.429 . S
C974 N971 1.350 . S
C974 C973 1.434 . S
C975 C976 1.369 . S
C975 C977 1.419 . S
C975 H979 0.930 . S
C976 C975 1.369 . S
C976 C985 1.429 . S
C977 C975 1.419 . S
C977 C978 1.363 . S
C977 H980 0.929 . S
C978 C977 1.363 . S
C978 C984 1.428 . S
H979 C975 0.930 . S
H980 C977 0.929 . S
S981 N982 1.613 . S
S981 N983 1.610 . S
N982 S981 1.613 . S
N982 C985 1.350 . S
N983 S981 1.610 . S
N983 C984 1.351 . S
C984 C978 1.428 . S
C984 N983 1.351 . S
C984 C985 1.434 . S
C985 C976 1.429 . S
C985 N982 1.350 . S
C985 C984 1.434 . S
C986 C987 1.369 . S
C986 C988 1.419 . S
C986 H990 0.930 . S
C987 C986 1.369 . S
C987 C996 1.429 . S
C988 C986 1.419 . S
C988 C989 1.363 . S
C988 H991 0.929 . S
C989 C988 1.363 . S
C989 C995 1.428 . S
H990 C986 0.930 . S
H991 C988 0.929 . S
S992 N993 1.613 . S
S992 N994 1.610 . S
N993 S992 1.613 . S
N993 C996 1.350 . S
N994 S992 1.610 . S
N994 C995 1.351 . S
C995 C989 1.428 . S
C995 N994 1.351 . S
C995 C996 1.434 . S
C996 C987 1.429 . S
C996 N993 1.350 . S
C996 C995 1.434 . S
C997 C998 1.369 . S
C997 C999 1.419 . S
C997 H1001 0.930 . S
C998 C997 1.369 . S
C998 C1007 1.429 . S
C999 C997 1.419 . S
C999 C1000 1.363 . S
C999 H1002 0.929 . S
C1000 C999 1.363 . S
C1000 C1006 1.428 . S
H1001 C997 0.930 . S
H1002 C999 0.929 . S
S1003 N1004 1.613 . S
S1003 N1005 1.610 . S
N1004 S1003 1.613 . S
N1004 C1007 1.350 . S
N1005 S1003 1.610 . S
N1005 C1006 1.351 . S
C1006 C1000 1.428 . S
C1006 N1005 1.351 . S
C1006 C1007 1.434 . S
C1007 C998 1.429 . S
C1007 N1004 1.350 . S
C1007 C1006 1.434 . S
C415 N170 1.807 . S
C417 C240 1.811 . S
C426 N184 1.188 . S
C428 C260 1.166 . S
C437 N158 1.557 . S
C439 C283 1.554 . S
C448 N145 1.499 . S
C450 C263 1.500 1_556 S
C461 C280 1.144 . S
C459 N119 1.160 . S
C470 N131 1.809 . S
C472 C243 1.826 1_556 S
C483 C250 1.581 1_556 S
C481 N144 1.608 . S
C494 C270 1.399 . S
C492 N118 1.436 . S
C503 N132 1.521 . S
C505 C275 1.532 . S
C514 N171 1.477 . S
C516 C255 1.489 . S
C525 N183 1.382 . S
C527 C290 1.359 . S
C538 C235 1.567 . S
C536 N157 1.570 . S
C549 C300 1.811 . S
C547 N14 1.805 . S
C558 N28 1.190 . S
C560 C320 1.165 . S
C569 N2 1.554 . S
C571 C343 1.556 . S
C580 N223 1.502 . S
C582 C323 1.497 . S
C591 N197 1.160 . S
C593 C340 1.145 . S
C602 N209 1.811 . S
C604 C303 1.826 . S
C613 N222 1.609 . S
C615 C310 1.582 . S
C624 N196 1.435 . S
C626 C330 1.396 . S
C637 C335 1.532 . S
C635 N210 1.521 . S
C646 N15 1.479 . S
C648 C315 1.488 . S
C659 C350 1.353 . S
C657 N27 1.377 . S
C668 N1 1.570 . S
C670 C295 1.567 . S
C681 C360 1.810 . S
C679 N92 1.810 . S
C690 N106 1.188 . S
C692 C380 1.169 . S
C703 C403 1.552 . S
C701 N80 1.559 . S
C714 C383 1.496 . S
C712 N67 1.502 . S
C725 C400 1.139 . S
C723 N41 1.160 . S
C734 N53 1.805 . S
C736 C363 1.829 . S
C745 N66 1.606 . S
C747 C370 1.586 1_455 S
C756 N40 1.434 . S
C758 C390 1.393 . S
C769 C395 1.531 . S
C767 N54 1.525 . S
C778 N93 1.481 . S
C780 C375 1.488 . S
C789 N105 1.377 . S
C791 C410 1.353 . S
C800 N79 1.570 . S
C802 C355 1.567 . S
C811 N200 1.106 . S
C813 C253 1.086 . S
C824 C273 1.791 . S
C822 N213 1.803 . S
C833 N226 1.507 . S
C835 C282 1.475 . S
C844 N83 1.567 . S
C846 C262 1.530 . S
C855 N96 1.743 . S
C857 C293 1.739 . S
C868 C242 1.138 . S
C866 N109 1.150 . S
C877 N44 1.107 . S
C879 C313 1.093 . S
C888 N57 1.806 . S
C890 C333 1.791 . S
C899 N70 1.501 . S
C901 C342 1.472 . S
C910 N161 1.566 . S
C912 C322 1.533 . S
C923 C353 1.735 . S
C921 N174 1.749 . S
C932 N187 1.153 . S
C934 C302 1.135 . S
C943 N122 1.106 . S
C945 C373 1.093 . S
C954 N135 1.808 . S
C956 C393 1.787 . S
C967 C402 1.472 . S
C965 N148 1.501 . S
C976 N5 1.572 . S
C978 C382 1.531 . S
C987 N18 1.750 . S
C989 C413 1.738 . S
C998 N31 1.155 . S
C1000 C362 1.138 . S
