# Generated by pormake.
# Topology anh, (6,3)-cn, num edge types: 1
# Building blocks:
#     Node 0, Type 0, BuildingBlock: BETDEL_clean_sbu_0, # of connection points: 6
#     Node 1, Type 0, BuildingBlock: BETDEL_clean_sbu_0, # of connection points: 6
#     Node 2, Type 0, BuildingBlock: BETDEL_clean_sbu_0, # of connection points: 6
#     Node 3, Type 1, BuildingBlock: VETTIZ_charged_linker_0, # of connection points: 3
#     Node 4, Type 1, BuildingBlock: VETTIZ_charged_linker_0, # of connection points: 3
#     Node 5, Type 1, BuildingBlock: VETTIZ_charged_linker_0, # of connection points: 3
#     Node 6, Type 1, BuildingBlock: VETTIZ_charged_linker_0, # of connection points: 3
#     Node 7, Type 1, BuildingBlock: VETTIZ_charged_linker_0, # of connection points: 3
#     Node 8, Type 1, BuildingBlock: VETTIZ_charged_linker_0, # of connection points: 3
#     Edge 9, Type (0, 1), BuildingBlock: ZUJKAS_clean_linker_0, # of connection points: 2
#     Edge 10, Type (0, 1), BuildingBlock: ZUJKAS_clean_linker_0, # of connection points: 2
#     Edge 11, Type (0, 1), BuildingBlock: ZUJKAS_clean_linker_0, # of connection points: 2
#     Edge 12, Type (0, 1), BuildingBlock: ZUJKAS_clean_linker_0, # of connection points: 2
#     Edge 13, Type (0, 1), BuildingBlock: ZUJKAS_clean_linker_0, # of connection points: 2
#     Edge 14, Type (0, 1), BuildingBlock: ZUJKAS_clean_linker_0, # of connection points: 2
#     Edge 15, Type (0, 1), BuildingBlock: ZUJKAS_clean_linker_0, # of connection points: 2
#     Edge 16, Type (0, 1), BuildingBlock: ZUJKAS_clean_linker_0, # of connection points: 2
#     Edge 17, Type (0, 1), BuildingBlock: ZUJKAS_clean_linker_0, # of connection points: 2
#     Edge 18, Type (0, 1), BuildingBlock: ZUJKAS_clean_linker_0, # of connection points: 2
#     Edge 19, Type (0, 1), BuildingBlock: ZUJKAS_clean_linker_0, # of connection points: 2
#     Edge 20, Type (0, 1), BuildingBlock: ZUJKAS_clean_linker_0, # of connection points: 2
#     Edge 21, Type (0, 1), BuildingBlock: ZUJKAS_clean_linker_0, # of connection points: 2
#     Edge 22, Type (0, 1), BuildingBlock: ZUJKAS_clean_linker_0, # of connection points: 2
#     Edge 23, Type (0, 1), BuildingBlock: ZUJKAS_clean_linker_0, # of connection points: 2
#     Edge 24, Type (0, 1), BuildingBlock: ZUJKAS_clean_linker_0, # of connection points: 2
#     Edge 25, Type (0, 1), BuildingBlock: ZUJKAS_clean_linker_0, # of connection points: 2
#     Edge 26, Type (0, 1), BuildingBlock: ZUJKAS_clean_linker_0, # of connection points: 2
# Relax obj value: 0.140
# Max RMSD: 0.166
# Mean RMSD: 0.133
data_MOF--net-anh--node1-BETDEL_clean_sbu_0--node2-VETTIZ_charged_linker_0--edge1-ZUJKAS_clean_linker_0
_symmetry_space_group_name_H-M    P1
_symmetry_Int_Tables_number       1
_symmetry_cell_setting            triclinic
loop_
_symmetry_equiv_pos_as_xyz
'x, y, z'
_cell_length_a     44.005119
_cell_length_b     43.945093
_cell_length_c     80.62286
_cell_angle_alpha  90.033485
_cell_angle_beta   89.920804
_cell_angle_gamma 120.0321
loop_
_atom_site_label
_atom_site_type_symbol
_atom_site_fract_x
_atom_site_fract_y
_atom_site_fract_z
_atom_type_partial_charge
Dy0 Dy 0.05362 0.4924 0.16354 0.0
C1 C 0.97467 0.55536 0.18543 0.0
C2 C 0.09634 0.46941 0.1513 0.0
Dy3 Dy 0.0165 0.53274 0.17156 0.0
O4 O 0.07983 0.45999 0.16535 0.0
O5 O 0.08887 0.49089 0.1437 0.0
O6 O 0.03966 0.46725 0.18868 0.0
O7 O 0.0495 0.51885 0.18565 0.0
C8 C 0.03926 0.49363 0.19565 0.0
C9 C 0.0302 0.5313 0.13927 0.0
O10 O 0.07154 0.57516 0.17721 0.0
O11 O 0.09792 0.54906 0.16272 0.0
O12 O 0.99501 0.56956 0.17269 0.0
O13 O 0.97746 0.52895 0.19066 0.0
O14 O 0.02926 0.55739 0.14629 0.0
O15 O 0.02035 0.5062 0.14933 0.0
O16 O 0.99871 0.4488 0.15868 0.0
O17 O 0.97194 0.47619 0.17185 0.0
C18 C 0.09961 0.57688 0.17014 0.0
C19 C 0.97047 0.44778 0.16518 0.0
Dy20 Dy 0.49047 0.04313 0.49989 0.0
C21 C 0.63741 0.12463 0.51988 0.0
C22 C 0.42205 0.99786 0.4921 0.0
Dy23 Dy 0.57323 0.08581 0.50554 0.0
O24 O 0.43396 1.00904 0.50688 0.0
O25 O 0.44756 0.01166 0.48138 0.0
O26 O 0.48481 0.06367 0.52448 0.0
O27 O 0.52678 0.05452 0.52051 0.0
C28 C 0.51338 0.06642 0.53056 0.0
C29 C 0.55796 0.07844 0.47288 0.0
O30 O 0.56219 0.0305 0.50931 0.0
O31 O 0.50404 0.99985 0.50012 0.0
O32 O 0.62881 0.09863 0.50967 0.0
O33 O 0.61069 0.12907 0.52242 0.0
O34 O 0.58989 0.09465 0.47854 0.0
O35 O 0.53742 0.06791 0.48506 0.0
O36 O 0.50222 0.09748 0.49314 0.0
O37 O 0.557 0.12713 0.50608 0.0
C38 C 0.53341 1.00081 0.50502 0.0
C39 C 0.52946 0.12677 0.49901 0.0
Dy40 Dy 0.58997 0.59738 0.83202 0.0
C41 C 0.52909 0.45108 0.85264 0.0
C42 C 0.61062 0.6653 0.82441 0.0
Dy43 Dy 0.55049 0.51417 0.8377 0.0
O44 O 0.59936 0.65073 0.8388 0.0
O45 O 0.61086 0.64273 0.814 0.0
O46 O 0.61682 0.60356 0.85647 0.0
O47 O 0.56605 0.56082 0.85259 0.0
C48 C 0.59148 0.57446 0.86252 0.0
C49 C 0.5567 0.53003 0.80511 0.0
O50 O 0.50606 0.52463 0.8419 0.0
O51 O 0.53246 0.58126 0.83069 0.0
O52 O 0.51047 0.45735 0.84212 0.0
O53 O 0.55905 0.47946 0.85515 0.0
O54 O 0.54117 0.4979 0.81063 0.0
O55 O 0.5674 0.55028 0.81738 0.0
O56 O 0.63392 0.58721 0.82593 0.0
O57 O 0.60808 0.53063 0.83722 0.0
C58 C 0.5045 0.55247 0.83654 0.0
C59 C 0.6356 0.55921 0.83094 0.0
C60 C 0.61849 0.10376 0.19164 0.0
C61 C 0.64468 0.13501 0.19924 0.0
C62 C 0.64275 0.13922 0.21644 0.0
C63 C 0.58919 0.08297 0.2183 0.0
C64 C 0.59068 0.07815 0.20143 0.0
C65 C 0.55935 0.04375 0.19577 0.0
H66 H 0.4054 0.89607 0.218 0.0
C67 C 0.55717 0.05264 0.22509 0.0
C68 C 0.53902 0.02931 0.21199 0.0
H69 H 0.45114 0.92039 0.16897 0.0
H70 H 0.49964 0.97564 0.17927 0.0
H71 H 0.47533 0.91708 0.23666 0.0
H72 H 0.41871 0.97103 0.2266 0.0
H73 H 0.43537 0.98362 0.24673 0.0
H74 H 0.40517 0.93787 0.24232 0.0
H75 H 0.43574 0.90735 0.24739 0.0
H76 H 0.47828 0.94045 0.25477 0.0
C77 C 0.57294 0.02001 0.18884 0.0
C78 C 0.53836 0.05202 0.18302 0.0
C79 C 0.53341 0.04801 0.28716 0.0
C80 C 0.50567 0.02382 0.29728 0.0
C81 C 0.47694 0.99466 0.28974 0.0
C82 C 0.4762 0.98924 0.27259 0.0
C83 C 0.50444 0.01322 0.26272 0.0
C84 C 0.53215 0.04225 0.27 0.0
C85 C 0.55933 0.06541 0.25749 0.0
C86 C 0.54366 0.04502 0.24152 0.0
C87 C 0.51173 0.01448 0.24472 0.0
C88 C 0.59429 0.06688 0.26198 0.0
C89 C 0.56109 0.10161 0.25745 0.0
C90 C 0.42593 0.91289 0.2094 0.0
C91 C 0.42449 0.90332 0.19269 0.0
C92 C 0.45149 0.92695 0.18194 0.0
C93 C 0.47972 0.95894 0.18796 0.0
C94 C 0.48094 0.96755 0.2049 0.0
C95 C 0.454 0.94443 0.21517 0.0
C96 C 0.45883 0.95655 0.23279 0.0
C97 C 0.49318 0.99082 0.23166 0.0
C98 C 0.50647 0.99775 0.21532 0.0
C99 C 0.462 0.92902 0.24359 0.0
C100 C 0.42792 0.96241 0.23752 0.0
H101 H 0.61588 0.11876 0.23893 0.0
H102 H 0.61927 0.09979 0.17842 0.0
H103 H 0.53465 0.07386 0.18754 0.0
H104 H 0.51183 0.02954 0.18087 0.0
H105 H 0.55243 0.06011 0.17095 0.0
H106 H 0.5929 0.02006 0.19731 0.0
H107 H 0.58541 0.0295 0.1765 0.0
H108 H 0.55202 0.99233 0.18768 0.0
H109 H 0.55603 0.07064 0.29247 0.0
H110 H 0.45482 0.97598 0.2971 0.0
H111 H 0.45365 0.96638 0.26774 0.0
H112 H 0.58937 0.04074 0.26629 0.0
H113 H 0.60812 0.08605 0.2721 0.0
H114 H 0.61228 0.07346 0.25132 0.0
H115 H 0.53605 0.09938 0.26183 0.0
H116 H 0.56485 0.113 0.24486 0.0
H117 H 0.5823 0.1207 0.26569 0.0
H118 H 0.66272 0.1626 0.22265 0.0
C119 C 0.61543 0.11357 0.22594 0.0
C120 C 0.5374 0.65188 0.5246 0.0
C121 C 0.54185 0.68233 0.53279 0.0
C122 C 0.54642 0.6849 0.55008 0.0
C123 C 0.543 0.62823 0.551 0.0
C124 C 0.53845 0.6252 0.53399 0.0
C125 C 0.53585 0.59137 0.52772 0.0
H126 H 0.54413 0.44345 0.54691 0.0
C127 C 0.5437 0.59706 0.5573 0.0
C128 C 0.53983 0.57512 0.54377 0.0
H129 H 0.52712 0.47318 0.4983 0.0
H130 H 0.52867 0.52515 0.51004 0.0
H131 H 0.6023 0.51922 0.55888 0.0
H132 H 0.49045 0.4585 0.56493 0.0
H133 H 0.50656 0.48107 0.58369 0.0
H134 H 0.5198 0.45022 0.57696 0.0
H135 H 0.58114 0.48162 0.57225 0.0
H136 H 0.5935 0.52513 0.57951 0.0
C137 C 0.56651 0.60093 0.51559 0.0
C138 C 0.49933 0.56857 0.51984 0.0
C139 C 0.55665 0.58629 0.61941 0.0
C140 C 0.55822 0.56065 0.62922 0.0
C141 C 0.55736 0.53157 0.62133 0.0
C142 C 0.55447 0.52781 0.60406 0.0
C143 C 0.55239 0.55338 0.59444 0.0
C144 C 0.5537 0.58208 0.60214 0.0
C145 C 0.5513 0.60665 0.58994 0.0
C146 C 0.54772 0.58762 0.57366 0.0
C147 C 0.54841 0.55655 0.57639 0.0
C148 C 0.58609 0.64246 0.59084 0.0
C149 C 0.51777 0.6084 0.59406 0.0
C150 C 0.54115 0.46129 0.5387 0.0
C151 C 0.53615 0.45447 0.52163 0.0
C152 C 0.53121 0.47792 0.51151 0.0
C153 C 0.53227 0.50812 0.51834 0.0
C154 C 0.53795 0.51477 0.5355 0.0
C155 C 0.54179 0.49103 0.54529 0.0
C156 C 0.54613 0.50063 0.56328 0.0
C157 C 0.54507 0.53448 0.56285 0.0
C158 C 0.54048 0.54323 0.54657 0.0
C159 C 0.58248 0.50679 0.56894 0.0
C160 C 0.51436 0.47114 0.57284 0.0
H161 H 0.55044 0.66208 0.5723 0.0
H162 H 0.53397 0.64934 0.51128 0.0
H163 H 0.47859 0.56836 0.52783 0.0
H164 H 0.49229 0.54084 0.51844 0.0
H165 H 0.49797 0.57902 0.50748 0.0
H166 H 0.59155 0.6221 0.52089 0.0
H167 H 0.56199 0.61051 0.50361 0.0
H168 H 0.5707 0.57865 0.51307 0.0
H169 H 0.55698 0.60883 0.62505 0.0
H170 H 0.55913 0.51171 0.62854 0.0
H171 H 0.55392 0.50504 0.5989 0.0
H172 H 0.60827 0.63923 0.59525 0.0
H173 H 0.58375 0.66087 0.59949 0.0
H174 H 0.5948 0.65516 0.57856 0.0
H175 H 0.49603 0.58218 0.59798 0.0
H176 H 0.50724 0.61568 0.58331 0.0
H177 H 0.52263 0.62711 0.60435 0.0
H178 H 0.54961 0.70787 0.55663 0.0
C179 C 0.54689 0.65817 0.55918 0.0
C180 C 0.15266 0.55025 0.85673 0.0
C181 C 0.17842 0.54538 0.86486 0.0
C182 C 0.17658 0.54106 0.88217 0.0
C183 C 0.1242 0.54591 0.88327 0.0
C184 C 0.12544 0.55007 0.86623 0.0
C185 C 0.09444 0.55313 0.86008 0.0
H186 H 0.94645 0.56014 0.88083 0.0
C187 C 0.09309 0.54652 0.88972 0.0
C188 C 0.07506 0.55062 0.87626 0.0
H189 H 0.98605 0.5651 0.83131 0.0
H190 H 0.03437 0.55914 0.84252 0.0
H191 H 0.95489 0.49793 0.89252 0.0
H192 H 0.02018 0.60962 0.89804 0.0
H193 H 0.02072 0.59103 0.91722 0.0
H194 H 0.97967 0.58429 0.90907 0.0
H195 H 0.94563 0.52224 0.90759 0.0
H196 H 0.97351 0.50414 0.91232 0.0
C197 C 0.07223 0.52181 0.84846 0.0
C198 C 0.10855 0.58923 0.85164 0.0
C199 C 0.07151 0.53653 0.95206 0.0
C200 C 0.04498 0.53603 0.96205 0.0
C201 C 0.01743 0.53827 0.9543 0.0
C202 C 0.01655 0.54142 0.93705 0.0
C203 C 0.0434 0.54222 0.92727 0.0
C204 C 0.0701 0.53953 0.9348 0.0
C205 C 0.09601 0.54019 0.92242 0.0
C206 C 0.08055 0.54397 0.9062 0.0
C207 C 0.04993 0.54532 0.90915 0.0
C208 C 0.09526 0.50453 0.92353 0.0
C209 C 0.1322 0.57299 0.92613 0.0
C210 C 0.96567 0.56038 0.87232 0.0
C211 C 0.96264 0.56369 0.8552 0.0
C212 C 0.9878 0.56272 0.8446 0.0
C213 C 0.01584 0.55932 0.85113 0.0
C214 C 0.0185 0.55634 0.86842 0.0
C215 C 0.99325 0.55666 0.87857 0.0
C216 C 0.99868 0.55223 0.89652 0.0
C217 C 0.03157 0.54953 0.89573 0.0
C218 C 0.04366 0.55207 0.87929 0.0
C219 C 0.96655 0.51755 0.90271 0.0
C220 C 1.00492 0.58579 0.90584 0.0
H221 H 0.15039 0.53804 0.90448 0.0
H222 H 0.15335 0.55339 0.8434 0.0
H223 H 0.12863 0.61042 0.8596 0.0
H224 H 0.08787 0.59598 0.84952 0.0
H225 H 0.121 0.58993 0.83954 0.0
H226 H 0.0687 0.49699 0.8539 0.0
H227 H 0.08524 0.52565 0.8362 0.0
H228 H 0.04556 0.51749 0.84651 0.0
H229 H 0.09323 0.53513 0.95754 0.0
H230 H 0.99624 0.53724 0.96158 0.0
H231 H 0.9949 0.54314 0.93203 0.0
H232 H 0.06937 0.48313 0.92799 0.0
H233 H 0.11554 0.50608 0.93223 0.0
H234 H 0.09875 0.49517 0.91132 0.0
H235 H 0.12907 0.59551 0.93013 0.0
H236 H 0.14953 0.58279 0.91516 0.0
H237 H 0.146 0.56759 0.93623 0.0
H238 H 0.19613 0.53751 0.88867 0.0
C239 C 0.14989 0.54141 0.89136 0.0
C240 C 0.96217 0.45447 0.4825 0.0
C241 C 0.94023 0.41951 0.47744 0.0
C242 C 0.93546 0.41149 0.4604 0.0
C243 C 0.97335 0.47281 0.45364 0.0
C244 C 0.97885 0.48063 0.47038 0.0
C245 C 1.0045 0.519 0.47336 0.0
H246 H 0.11308 0.68019 0.44083 0.0
C247 C 0.99373 0.50572 0.44424 0.0
C248 C 1.01235 0.53294 0.45569 0.0
H249 H 0.10075 0.65003 0.49249 0.0
H250 H 0.05511 0.5911 0.48523 0.0
H251 H 0.11341 0.61384 0.42743 0.0
H252 H 0.03155 0.63953 0.43184 0.0
H253 H 0.02346 0.6161 0.4132 0.0
H254 H 0.06392 0.65731 0.41569 0.0
H255 H 0.11047 0.64501 0.41414 0.0
H256 H 0.08842 0.59881 0.40922 0.0
C257 C 0.03728 0.52198 0.48203 0.0
C258 C 0.98571 0.53482 0.48337 0.0
C259 C 0.98599 0.50443 0.38125 0.0
C260 C 1.00225 0.53095 0.36918 0.0
C261 C 0.02455 0.56589 0.37438 0.0
C262 C 0.03097 0.57422 0.39123 0.0
C263 C 0.01518 0.54736 0.4031 0.0
C264 C 0.99284 0.51321 0.39807 0.0
C265 C 0.97862 0.48817 0.41249 0.0
C266 C 0.99627 0.51301 0.42698 0.0
C267 C 0.01766 0.5475 0.42135 0.0
C268 C 0.99098 0.46088 0.41068 0.0
C269 C 0.93825 0.47211 0.41281 0.0
C270 C 0.10072 0.66089 0.4506 0.0
C271 C 0.11087 0.6696 0.46721 0.0
C272 C 0.0934 0.64393 0.47959 0.0
C273 C 0.06717 0.60969 0.47533 0.0
C274 C 0.05845 0.60108 0.45852 0.0
C275 C 0.07488 0.62675 0.44656 0.0
C276 C 0.063 0.61322 0.42933 0.0
C277 C 0.0372 0.57491 0.43281 0.0
C278 C 0.0345 0.5678 0.4499 0.0
C279 C 0.09534 0.61806 0.41936 0.0
C280 C 0.04472 0.63255 0.42197 0.0
H281 H 0.94672 0.43012 0.43573 0.0
H282 H 0.96641 0.46116 0.49555 0.0
H283 H 0.95865 0.52491 0.47859 0.0
H284 H 0.99885 0.56371 0.48239 0.0
H285 H 0.98363 0.5275 0.49668 0.0
H286 H 0.04251 0.50097 0.47771 0.0
H287 H 0.03365 0.51936 0.4957 0.0
H288 H 0.06159 0.54677 0.47915 0.0
H289 H 0.96848 0.47736 0.37771 0.0
H290 H 0.03794 0.58678 0.3654 0.0
H291 H 0.04854 0.60123 0.3943 0.0
H292 H 0.01629 0.47209 0.40382 0.0
H293 H 0.97144 0.43723 0.40379 0.0
H294 H 0.99644 0.45269 0.42276 0.0
H295 H 0.93108 0.4925 0.40997 0.0
H296 H 0.9265 0.46156 0.42506 0.0
H297 H 0.9254 0.45091 0.40342 0.0
H298 H 0.91837 0.3847 0.4563 0.0
C299 C 0.95174 0.43792 0.44849 0.0
C300 C 0.61635 1.00838 0.79509 0.0
C301 C 0.62595 0.98898 0.78458 0.0
C302 C 0.63053 0.99689 0.76751 0.0
C303 C 0.61543 0.04227 0.77153 0.0
C304 C 0.61145 0.03501 0.78832 0.0
C305 C 0.60153 0.05854 0.79762 0.0
H306 H 0.57033 0.19486 0.79565 0.0
C307 C 0.60802 0.07094 0.76836 0.0
C308 C 0.60014 0.08091 0.78359 0.0
H309 H 0.56757 0.13449 0.83844 0.0
H310 H 0.58097 0.09765 0.82095 0.0
H311 H 0.63777 0.19945 0.77774 0.0
H312 H 0.52669 0.12886 0.77277 0.0
H313 H 0.54442 0.13457 0.75277 0.0
H314 H 0.54802 0.172 0.7638 0.0
H315 H 0.60857 0.21217 0.76864 0.0
H316 H 0.62835 0.19229 0.75643 0.0
C317 C 0.63115 0.0806 0.81013 0.0
C318 C 0.56504 0.03528 0.80565 0.0
C319 C 0.60745 0.10953 0.70913 0.0
C320 C 0.60024 0.13451 0.70209 0.0
C321 C 0.59401 0.15638 0.71267 0.0
C322 C 0.59403 0.15276 0.72995 0.0
C323 C 0.60022 0.12692 0.73676 0.0
C324 C 0.60725 0.10619 0.72638 0.0
C325 C 0.61301 0.07995 0.73574 0.0
C326 C 0.60743 0.08779 0.75346 0.0
C327 C 0.59993 0.11523 0.75398 0.0
C328 C 0.65131 0.08854 0.73262 0.0
C329 C 0.58448 0.04259 0.73025 0.0
C330 C 0.57295 0.17387 0.80126 0.0
C331 C 0.56857 0.16778 0.8184 0.0
C332 C 0.5711 0.13966 0.82524 0.0
C333 C 0.57898 0.11848 0.81508 0.0
C334 C 0.58393 0.12537 0.79792 0.0
C335 C 0.58034 0.1524 0.7913 0.0
C336 C 0.58469 0.15507 0.7728 0.0
C337 C 0.5926 0.12587 0.76937 0.0
C338 C 0.59234 0.10862 0.7841 0.0
C339 C 0.61631 0.19168 0.76853 0.0
C340 C 0.54935 0.14752 0.76501 0.0
H341 H 0.62893 0.02778 0.74784 0.0
H342 H 0.61287 1.00305 0.80828 0.0
H343 H 0.54794 0.0127 0.79748 0.0
H344 H 0.55043 0.04938 0.80753 0.0
H345 H 0.56739 0.02444 0.81772 0.0
H346 H 0.65735 0.0895 0.80447 0.0
H347 H 0.62895 0.06493 0.82134 0.0
H348 H 0.63159 0.10489 0.81402 0.0
H349 H 0.61188 0.09197 0.70139 0.0
H350 H 0.58883 0.17613 0.70758 0.0
H351 H 0.58879 0.16997 0.73732 0.0
H352 H 0.66889 0.11693 0.72985 0.0
H353 H 0.65284 0.0734 0.72193 0.0
H354 H 0.66319 0.0836 0.74363 0.0
H355 H 0.55876 0.04129 0.72856 0.0
H356 H 0.57946 0.02211 0.73951 0.0
H357 H 0.59158 0.03526 0.71827 0.0
H358 H 0.63738 0.982 0.75911 0.0
C359 C 0.62536 0.02337 0.76095 0.0
C360 C 0.6241 0.50527 0.14613 0.0
C361 C 0.65386 0.50339 0.14147 0.0
C362 C 0.65819 0.49678 0.12478 0.0
C363 C 0.60411 0.49504 0.11752 0.0
C364 C 0.59935 0.50057 0.13398 0.0
C365 C 0.56529 0.50008 0.13676 0.0
H366 H 0.4181 0.48822 0.10419 0.0
C367 C 0.57416 0.49188 0.10797 0.0
C368 C 0.55104 0.49434 0.11918 0.0
H369 H 0.44706 0.49741 0.15592 0.0
H370 H 0.50075 0.498 0.1485 0.0
H371 H 0.4947 0.5443 0.0907 0.0
H372 H 0.43829 0.43176 0.09509 0.0
H373 H 0.46133 0.4413 0.07627 0.0
H374 H 0.42875 0.45432 0.0792 0.0
H375 H 0.45916 0.51645 0.07718 0.0
H376 H 0.50383 0.52804 0.07264 0.0
C377 C 0.57381 0.53637 0.14366 0.0
C378 C 0.54186 0.46869 0.14828 0.0
C379 C 0.57443 0.48474 0.04499 0.0
C380 C 0.55106 0.48368 0.0328 0.0
C381 C 0.51957 0.48205 0.03783 0.0
C382 C 0.51183 0.48225 0.05464 0.0
C383 C 0.53585 0.4843 0.06664 0.0
C384 C 0.56634 0.48508 0.06177 0.0
C385 C 0.58873 0.48733 0.07634 0.0
C386 C 0.56687 0.48841 0.0907 0.0
C387 C 0.53607 0.48675 0.08489 0.0
C388 C 0.62431 0.52201 0.07479 0.0
C389 C 0.59171 0.45362 0.07663 0.0
C390 C 0.43622 0.49083 0.11392 0.0
C391 C 0.42863 0.49313 0.13062 0.0
C392 C 0.45242 0.49556 0.14295 0.0
C393 C 0.48352 0.49594 0.13861 0.0
C394 C 0.49067 0.4936 0.12179 0.0
C395 C 0.46707 0.49099 0.10981 0.0
C396 C 0.4783 0.48797 0.09261 0.0
C397 C 0.51245 0.48877 0.09619 0.0
C398 C 0.51978 0.4924 0.11326 0.0
C399 C 0.48415 0.52063 0.08261 0.0
C400 C 0.45027 0.45217 0.08525 0.0
H401 H 0.63847 0.488 0.10029 0.0
H402 H 0.62005 0.50989 0.15893 0.0
H403 H 0.54745 0.44681 0.14667 0.0
H404 H 0.5136 0.45682 0.14546 0.0
H405 H 0.54636 0.47663 0.16153 0.0
H406 H 0.59633 0.55787 0.13684 0.0
H407 H 0.58101 0.53882 0.15699 0.0
H408 H 0.55198 0.54169 0.1422 0.0
H409 H 0.59867 0.48564 0.04155 0.0
H410 H 0.50133 0.48179 0.02874 0.0
H411 H 0.48767 0.48144 0.05759 0.0
H412 H 0.62016 0.54393 0.07086 0.0
H413 H 0.64141 0.51949 0.0654 0.0
H414 H 0.6388 0.5307 0.08659 0.0
H415 H 0.56847 0.43105 0.07077 0.0
H416 H 0.59224 0.4446 0.08939 0.0
H417 H 0.61537 0.45758 0.06981 0.0
H418 H 0.68113 0.49546 0.12097 0.0
C419 C 0.63353 0.49266 0.11279 0.0
H420 H 0.11652 0.42814 0.16735 0.0
H421 H 0.1721 0.42878 0.16381 0.0
H422 H 0.19788 0.49904 0.12214 0.0
H423 H 0.14235 0.49866 0.12565 0.0
H424 H 0.20613 0.41566 0.13546 0.0
H425 H 0.27531 0.55372 0.15814 0.0
H426 H 0.22866 0.5248 0.16071 0.0
H427 H 0.24604 0.54492 0.14096 0.0
C428 C 0.13367 0.44304 0.15719 0.0
C429 C 0.12545 0.46364 0.14686 0.0
C430 C 0.16536 0.44341 0.15521 0.0
C431 C 0.18919 0.46449 0.14294 0.0
C432 C 0.17989 0.48303 0.13184 0.0
H433 H 0.40079 0.52942 0.116 0.0
H434 H 0.3424 0.5217 0.12038 0.0
C435 C 0.14815 0.48261 0.13378 0.0
C436 C 0.22483 0.46931 0.14262 0.0
H437 H 0.31081 0.5307 0.14889 0.0
C438 C 0.22907 0.4407 0.13845 0.0
C439 C 0.25447 0.50199 0.14673 0.0
C440 C 0.25106 0.5331 0.15203 0.0
C441 C 0.26257 0.44429 0.13769 0.0
C442 C 0.29228 0.47716 0.14154 0.0
C443 C 0.2879 0.50556 0.14599 0.0
C444 C 0.32832 0.48326 0.13996 0.0
C445 C 0.26601 0.41327 0.13227 0.0
C446 C 0.34003 0.46501 0.14992 0.0
C447 C 0.3734 0.46931 0.14741 0.0
C448 C 0.39539 0.49194 0.13492 0.0
C449 C 0.38414 0.51141 0.12554 0.0
C450 C 0.3509 0.50713 0.12806 0.0
H451 H 0.24146 0.39228 0.12655 0.0
H452 H 0.28781 0.42156 0.12323 0.0
H453 H 0.27204 0.40195 0.14323 0.0
H454 H 0.32313 0.44697 0.15938 0.0
H455 H 0.38143 0.45393 0.15477 0.0
H456 H 0.69552 0.11911 0.51474 0.0
H457 H 0.75645 0.16699 0.51586 0.0
H458 H 0.72221 0.23604 0.53574 0.0
H459 H 0.66133 0.18803 0.53498 0.0
H460 H 0.77136 0.22258 0.49593 0.0
H461 H 0.81525 0.27055 0.55986 0.0
H462 H 0.77871 0.22724 0.55551 0.0
H463 H 0.77296 0.26497 0.55499 0.0
C464 C 0.70114 0.14414 0.51993 0.0
C465 C 0.67381 0.15009 0.52457 0.0
C466 C 0.73595 0.17144 0.5206 0.0
C467 C 0.74391 0.20507 0.52591 0.0
C468 C 0.71681 0.21018 0.5319 0.0
H469 H 0.89353 0.41608 0.50053 0.0
H470 H 0.85015 0.36313 0.51529 0.0
C471 C 0.68198 0.18278 0.53133 0.0
C472 C 0.77858 0.23582 0.52189 0.0
H473 H 0.84733 0.31088 0.53771 0.0
C474 C 0.78833 0.24151 0.50512 0.0
C475 C 0.80029 0.26077 0.53387 0.0
C476 C 0.79146 0.25547 0.55209 0.0
C477 C 0.81848 0.27201 0.49987 0.0
C478 C 0.84013 0.29722 0.51179 0.0
C479 C 0.83082 0.29135 0.52864 0.0
C480 C 0.87107 0.33069 0.50656 0.0
C481 C 0.82584 0.2777 0.48147 0.0
C482 C 0.89823 0.33039 0.49755 0.0
C483 C 0.92253 0.36032 0.48893 0.0
C484 C 0.9205 0.39117 0.48955 0.0
C485 C 0.8956 0.39255 0.49995 0.0
C486 C 0.87089 0.36238 0.50837 0.0
H487 H 0.8025 0.25988 0.47392 0.0
H488 H 0.8343 0.30525 0.47796 0.0
H489 H 0.84727 0.27241 0.47821 0.0
H490 H 0.89913 0.30632 0.49624 0.0
H491 H 0.94172 0.35883 0.48106 0.0
H492 H 0.61436 0.7144 0.84591 0.0
H493 H 0.62253 0.77233 0.83936 0.0
H494 H 0.63362 0.75556 0.78751 0.0
H495 H 0.6253 0.69721 0.79401 0.0
H496 H 0.67861 0.83187 0.82224 0.0
H497 H 0.54944 0.77414 0.79028 0.0
H498 H 0.56107 0.74865 0.80366 0.0
H499 H 0.57882 0.75967 0.78306 0.0
C500 C 0.61888 0.72318 0.83313 0.0
C501 C 0.61897 0.70134 0.82043 0.0
C502 C 0.62362 0.75627 0.82943 0.0
C503 C 0.62827 0.76795 0.81296 0.0
C504 C 0.62966 0.74674 0.80028 0.0
H505 H 0.67766 0.97393 0.77733 0.0
H506 H 0.68006 0.92142 0.78521 0.0
C507 C 0.62505 0.71358 0.804 0.0
C508 C 0.62989 0.8016 0.80912 0.0
H509 H 0.58386 0.83596 0.79081 0.0
C510 C 0.65803 0.83288 0.81531 0.0
C511 C 0.60262 0.80258 0.80033 0.0
C512 C 0.57108 0.76951 0.79403 0.0
C513 C 0.65975 0.86532 0.8128 0.0
C514 C 0.63274 0.86633 0.80379 0.0
C515 C 0.60453 0.83501 0.79769 0.0
C516 C 0.6332 0.89959 0.80036 0.0
C517 C 0.69003 0.89814 0.82006 0.0
C518 C 0.60608 0.90467 0.80632 0.0
C519 C 0.60452 0.93453 0.80177 0.0
C520 C 0.62988 0.95958 0.79104 0.0
C521 C 0.6576 0.95489 0.7855 0.0
C522 C 0.65919 0.92511 0.7901 0.0
H523 H 0.70391 0.89194 0.82982 0.0
H524 H 0.70916 0.91303 0.81008 0.0
H525 H 0.68085 0.9154 0.82545 0.0
H526 H 0.58568 0.88511 0.81419 0.0
H527 H 0.58268 0.93726 0.80608 0.0
H528 H 0.91768 0.51414 0.20454 0.0
H529 H 0.86248 0.51485 0.2045 0.0
H530 H 0.91183 0.61178 0.17678 0.0
H531 H 0.96687 0.61064 0.17632 0.0
H532 H 0.83313 0.56099 0.21043 0.0
H533 H 0.84511 0.53426 0.14391 0.0
H534 H 0.87407 0.53399 0.15961 0.0
H535 H 0.88009 0.57499 0.15183 0.0
C536 C 0.9171 0.53627 0.19897 0.0
C537 C 0.94612 0.56189 0.19007 0.0
C538 C 0.88559 0.53672 0.19902 0.0
C539 C 0.883 0.56296 0.19033 0.0
C540 C 0.9133 0.59108 0.18336 0.0
H541 H 0.69028 0.56016 0.16161 0.0
H542 H 0.74432 0.5753 0.17687 0.0
C543 C 0.94467 0.59038 0.18309 0.0
C544 C 0.84799 0.55669 0.18546 0.0
H545 H 0.79389 0.53386 0.15191 0.0
C546 C 0.8245 0.55535 0.19764 0.0
C547 C 0.83676 0.54866 0.16878 0.0
C548 C 0.86012 0.54771 0.15527 0.0
C549 C 0.78983 0.54601 0.19351 0.0
C550 C 0.7788 0.538 0.17684 0.0
C551 C 0.80252 0.53995 0.1647 0.0
C552 C 0.74254 0.52621 0.1714 0.0
C553 C 0.76494 0.54369 0.20696 0.0
C554 C 0.72334 0.49334 0.16365 0.0
C555 C 0.69301 0.48496 0.15478 0.0
C556 C 0.68126 0.50923 0.15362 0.0
C557 C 0.69883 0.54099 0.16246 0.0
C558 C 0.72954 0.54957 0.17122 0.0
H559 H 0.77565 0.54467 0.21955 0.0
H560 H 0.7601 0.56605 0.20571 0.0
H561 H 0.73931 0.51902 0.20572 0.0
H562 H 0.73306 0.47503 0.16362 0.0
H563 H 0.6797 0.46024 0.14813 0.0
H564 H 0.39696 0.95814 0.46408 0.0
H565 H 0.33903 0.90589 0.46043 0.0
H566 H 0.30783 0.92269 0.50879 0.0
H567 H 0.36602 0.97418 0.51268 0.0
H568 H 0.29594 0.85737 0.5056 0.0
H569 H 0.24252 0.88969 0.45056 0.0
H570 H 0.28513 0.89525 0.44666 0.0
H571 H 0.28015 0.92261 0.46179 0.0
C572 C 0.37743 0.95106 0.47375 0.0
C573 C 0.38584 0.97002 0.48866 0.0
C574 C 0.34429 0.92134 0.47163 0.0
C575 C 0.31893 0.91061 0.48427 0.0
C576 C 0.32694 0.93053 0.49887 0.0
H577 H 0.11625 0.71332 0.49283 0.0
H578 H 0.16505 0.77297 0.49829 0.0
C579 C 0.36014 0.95994 0.50107 0.0
C580 C 0.28554 0.87675 0.483 0.0
H581 H 0.21521 0.82846 0.45781 0.0
C582 C 0.27797 0.85125 0.4953 0.0
C583 C 0.26212 0.86883 0.46957 0.0
C584 C 0.26769 0.89569 0.45649 0.0
C585 C 0.24843 0.81753 0.49413 0.0
C586 C 0.22583 0.80926 0.48037 0.0
C587 C 0.23275 0.83499 0.46834 0.0
C588 C 0.19644 0.77325 0.47754 0.0
C589 C 0.24238 0.79051 0.50721 0.0
C590 C 0.19815 0.7539 0.46414 0.0
C591 C 0.17062 0.72005 0.46106 0.0
C592 C 0.14062 0.70494 0.47125 0.0
C593 C 0.13913 0.7242 0.48485 0.0
C594 C 0.16686 0.75822 0.48795 0.0
H595 H 0.2651 0.79961 0.51574 0.0
H596 H 0.21893 0.78492 0.51467 0.0
H597 H 0.23724 0.76551 0.50133 0.0
H598 H 0.22091 0.76501 0.45606 0.0
H599 H 0.17287 0.70564 0.45068 0.0
H600 H 0.57252 0.43375 0.86871 0.0
H601 H 0.56678 0.37557 0.86967 0.0
H602 H 0.46268 0.33007 0.849 0.0
H603 H 0.46887 0.38862 0.84739 0.0
H604 H 0.52259 0.30715 0.88094 0.0
H605 H 0.5184 0.31717 0.81217 0.0
H606 H 0.52731 0.35338 0.82566 0.0
H607 H 0.48316 0.31747 0.82326 0.0
C608 C 0.54803 0.41123 0.86478 0.0
C609 C 0.52146 0.41567 0.85758 0.0
C610 C 0.54472 0.37795 0.86541 0.0
C611 C 0.5147 0.34867 0.85898 0.0
C612 C 0.48641 0.3525 0.85365 0.0
H613 H 0.51376 0.14971 0.83983 0.0
H614 H 0.49684 0.18999 0.85265 0.0
C615 C 0.48991 0.38589 0.85279 0.0
C616 C 0.51587 0.31623 0.85531 0.0
H617 H 0.52286 0.27031 0.82281 0.0
C618 C 0.52204 0.29862 0.86827 0.0
C619 C 0.51567 0.30554 0.8387 0.0
C620 C 0.51107 0.32445 0.82411 0.0
C621 C 0.52915 0.27133 0.86499 0.0
C622 C 0.5299 0.26153 0.84838 0.0
C623 C 0.52218 0.27801 0.83553 0.0
C624 C 0.5424 0.23716 0.84364 0.0
C625 C 0.53764 0.25438 0.87911 0.0
C626 C 0.57387 0.25048 0.8347 0.0
C627 C 0.58331 0.22774 0.82733 0.0
C628 C 0.56149 0.19123 0.82881 0.0
C629 C 0.53108 0.17782 0.83865 0.0
C630 C 0.52144 0.20072 0.84596 0.0
H631 H 0.53828 0.26666 0.89125 0.0
H632 H 0.5176 0.22604 0.87971 0.0
H633 H 0.56349 0.25634 0.87694 0.0
H634 H 0.59033 0.27853 0.83276 0.0
H635 H 0.60697 0.23866 0.81988 0.0
H636 H 0.47961 0.93371 0.49852 0.0
H637 H 0.48036 0.87852 0.50076 0.0
H638 H 0.58892 0.93594 0.51564 0.0
H639 H 0.58835 0.99112 0.51369 0.0
H640 H 0.52103 0.85455 0.48495 0.0
H641 H 0.54422 0.86425 0.55278 0.0
H642 H 0.53121 0.89179 0.54193 0.0
H643 H 0.57626 0.90211 0.5416 0.0
C644 C 0.50368 0.9347 0.50231 0.0
C645 C 0.53384 0.96707 0.50607 0.0
C646 C 0.50407 0.90302 0.50354 0.0
C647 C 0.53452 0.90288 0.50863 0.0
C648 C 0.56485 0.93517 0.51204 0.0
H649 H 0.59603 0.7492 0.53108 0.0
H650 H 0.59366 0.80167 0.5231 0.0
C651 C 0.5645 0.96683 0.51084 0.0
C652 C 0.53461 0.86908 0.51052 0.0
H653 H 0.54998 0.82007 0.5386 0.0
C654 C 0.52717 0.84689 0.4967 0.0
C655 C 0.54238 0.85885 0.52587 0.0
C656 C 0.54863 0.88029 0.54144 0.0
C657 C 0.52845 0.81548 0.49769 0.0
C658 C 0.53695 0.8057 0.51298 0.0
C659 C 0.54378 0.82762 0.52683 0.0
C660 C 0.53953 0.77324 0.51505 0.0
C661 C 0.52169 0.79357 0.48228 0.0
C662 C 0.51026 0.73948 0.51267 0.0
C663 C 0.51176 0.70928 0.51707 0.0
C664 C 0.54247 0.71239 0.52401 0.0
C665 C 0.57217 0.74604 0.52557 0.0
C666 C 0.57074 0.77606 0.52113 0.0
H667 H 0.52418 0.80877 0.47085 0.0
H668 H 0.54016 0.78333 0.48144 0.0
H669 H 0.49459 0.77077 0.48276 0.0
H670 H 0.48566 0.73651 0.50831 0.0
H671 H 0.48829 0.68372 0.51609 0.0
H672 H 0.70112 0.61473 0.82302 0.0
H673 H 0.75762 0.61649 0.82426 0.0
H674 H 0.70472 0.50747 0.83881 0.0
H675 H 0.64845 0.50562 0.83789 0.0
H676 H 0.75921 0.54618 0.85873 0.0
H677 H 0.80368 0.5785 0.7935 0.0
H678 H 0.79308 0.60907 0.80291 0.0
H679 H 0.75913 0.56419 0.79979 0.0
C680 C 0.70141 0.59098 0.82628 0.0
C681 C 0.66999 0.56004 0.83035 0.0
C682 C 0.73384 0.59197 0.82689 0.0
C683 C 0.73562 0.56198 0.83142 0.0
C684 C 0.70422 0.53098 0.83523 0.0
H685 H 0.91689 0.52847 0.82953 0.0
H686 H 0.86253 0.5288 0.82267 0.0
C687 C 0.67191 0.52998 0.83468 0.0
C688 C 0.7701 0.56323 0.8333 0.0
H689 H 0.84597 0.58174 0.813 0.0
C690 C 0.77805 0.55385 0.84868 0.0
C691 C 0.79473 0.5728 0.82018 0.0
C692 C 0.78718 0.58139 0.80311 0.0
C693 C 0.80986 0.55432 0.85139 0.0
C694 C 0.83505 0.56512 0.83847 0.0
C695 C 0.82692 0.57383 0.82297 0.0
C696 C 0.86995 0.56778 0.84109 0.0
C697 C 0.81599 0.54273 0.86806 0.0
C698 C 0.89298 0.59058 0.8532 0.0
C699 C 0.92388 0.59042 0.85711 0.0
C700 C 0.93279 0.56763 0.84892 0.0
C701 C 0.91088 0.54639 0.83603 0.0
C702 C 0.87972 0.54646 0.83216 0.0
H703 H 0.79099 0.52645 0.87487 0.0
H704 H 0.82963 0.52736 0.8667 0.0
H705 H 0.83273 0.56626 0.87572 0.0
H706 H 0.88656 0.60789 0.86 0.0
H707 H 0.94043 0.60756 0.86691 0.0
H708 H 0.11807 0.63488 0.18961 0.0
H709 H 0.17441 0.68969 0.19054 0.0
H710 H 0.21494 0.65043 0.15254 0.0
H711 H 0.15909 0.59502 0.15202 0.0
H712 H 0.26248 0.68121 0.17509 0.0
H713 H 0.2134 0.77146 0.15993 0.0
H714 H 0.19197 0.74593 0.178 0.0
H715 H 0.18612 0.7244 0.15826 0.0
C716 C 0.13891 0.63792 0.18139 0.0
C717 C 0.13388 0.61046 0.1707 0.0
C718 C 0.17113 0.66953 0.18182 0.0
C719 C 0.19895 0.67484 0.17132 0.0
C720 C 0.194 0.64729 0.16072 0.0
H721 H 0.3857 0.8874 0.16376 0.0
H722 H 0.33313 0.8315 0.15645 0.0
C723 C 0.16195 0.61551 0.16044 0.0
C724 C 0.23356 0.70842 0.17186 0.0
H725 H 0.27138 0.79805 0.17153 0.0
C726 C 0.26435 0.70671 0.17414 0.0
C727 C 0.23653 0.74195 0.17021 0.0
C728 C 0.20527 0.74608 0.16627 0.0
C729 C 0.29751 0.73727 0.17547 0.0
C730 C 0.30013 0.77077 0.17505 0.0
C731 C 0.26957 0.77253 0.17209 0.0
C732 C 0.33377 0.80403 0.17862 0.0
C733 C 0.32943 0.73318 0.17715 0.0
C734 C 0.35201 0.80738 0.19341 0.0
C735 C 0.38221 0.83898 0.19745 0.0
C736 C 0.39479 0.86862 0.18703 0.0
C737 C 0.37701 0.86514 0.17202 0.0
C738 C 0.34674 0.83323 0.1679 0.0
H739 H 0.3251 0.70854 0.17116 0.0
H740 H 0.35303 0.75567 0.17152 0.0
H741 H 0.33463 0.73161 0.19049 0.0
H742 H 0.34236 0.78579 0.20213 0.0
H743 H 0.39536 0.84037 0.20901 0.0
H744 H 0.57829 0.19098 0.5114 0.0
H745 H 0.57653 0.24556 0.51155 0.0
H746 H 0.47823 0.1945 0.48514 0.0
H747 H 0.47939 0.13931 0.4852 0.0
H748 H 0.57552 0.28647 0.4863 0.0
H749 H 0.45418 0.23699 0.52412 0.0
H750 H 0.47714 0.21281 0.52189 0.0
H751 H 0.44934 0.21253 0.5055 0.0
C752 C 0.5562 0.19116 0.50559 0.0
C753 C 0.52885 0.16044 0.49836 0.0
C754 C 0.55528 0.22256 0.50568 0.0
C755 C 0.52699 0.2242 0.4986 0.0
C756 C 0.49998 0.19383 0.49104 0.0
H757 H 0.48854 0.40368 0.50049 0.0
H758 H 0.48553 0.34813 0.49249 0.0
C759 C 0.50081 0.16227 0.49098 0.0
C760 C 0.5262 0.25783 0.49921 0.0
H761 H 0.48037 0.29558 0.51474 0.0
C762 C 0.55458 0.28835 0.49245 0.0
C763 C 0.49885 0.26048 0.50716 0.0
C764 C 0.46827 0.22908 0.51522 0.0
C765 C 0.55663 0.3213 0.49364 0.0
C766 C 0.52982 0.32411 0.502 0.0
C767 C 0.50087 0.29346 0.50829 0.0
C768 C 0.53278 0.35885 0.50558 0.0
C769 C 0.58763 0.3529 0.48596 0.0
C770 C 0.56037 0.38348 0.51549 0.0
C771 C 0.56208 0.41502 0.52006 0.0
C772 C 0.5362 0.42283 0.51487 0.0
C773 C 0.50906 0.39864 0.50454 0.0
C774 C 0.5072 0.36679 0.50007 0.0
H775 H 0.59969 0.34513 0.47591 0.0
H776 H 0.57989 0.37147 0.4808 0.0
H777 H 0.60789 0.36689 0.49561 0.0
H778 H 0.58011 0.37785 0.52015 0.0
H779 H 0.58339 0.43309 0.52798 0.0
H780 H 0.44062 0.49886 0.8473 0.0
H781 H 0.38476 0.49813 0.84892 0.0
H782 H 0.43436 0.60369 0.82959 0.0
H783 H 0.49023 0.60453 0.82768 0.0
H784 H 0.36851 0.5405 0.86709 0.0
H785 H 0.34793 0.55512 0.80037 0.0
H786 H 0.38012 0.54412 0.8075 0.0
H787 H 0.3893 0.58883 0.80832 0.0
C788 C 0.43972 0.52189 0.84326 0.0
C789 C 0.47016 0.55172 0.83731 0.0
C790 C 0.40764 0.52142 0.8442 0.0
C791 C 0.40501 0.55062 0.83913 0.0
C792 C 0.43533 0.58047 0.83321 0.0
H793 H 0.23394 0.59845 0.84804 0.0
H794 H 0.28901 0.60012 0.84037 0.0
C795 C 0.46745 0.58098 0.83225 0.0
C796 C 0.37097 0.55033 0.84085 0.0
H797 H 0.30847 0.55884 0.81933 0.0
C798 C 0.35537 0.54436 0.85661 0.0
C799 C 0.35379 0.55566 0.82722 0.0
C800 C 0.36842 0.56099 0.80987 0.0
C801 C 0.32344 0.54377 0.85916 0.0
C802 C 0.30598 0.54859 0.84552 0.0
C803 C 0.32172 0.55504 0.82977 0.0
C804 C 0.2711 0.54629 0.84753 0.0
C805 C 0.30893 0.53853 0.87656 0.0
C806 C 0.24213 0.51505 0.85329 0.0
C807 C 0.21083 0.51409 0.8576 0.0
C808 C 0.20754 0.54418 0.85604 0.0
C809 C 0.23557 0.57474 0.84912 0.0
C810 C 0.26711 0.57576 0.84487 0.0
H811 H 0.32953 0.54463 0.88603 0.0
H812 H 0.29709 0.55529 0.87891 0.0
H813 H 0.28818 0.51066 0.87818 0.0
H814 H 0.24424 0.49178 0.85516 0.0
H815 H 0.18973 0.49027 0.863 0.0
H816 H 0.95639 0.38256 0.15425 0.0
H817 H 0.9004 0.32705 0.15541 0.0
H818 H 0.85116 0.38073 0.17765 0.0
H819 H 0.90666 0.43619 0.1764 0.0
H820 H 0.8605 0.29218 0.18289 0.0
H821 H 0.78247 0.32577 0.14078 0.0
H822 H 0.82976 0.35149 0.1418 0.0
H823 H 0.80325 0.35745 0.15704 0.0
C824 C 0.93358 0.38268 0.15923 0.0
C825 C 0.93619 0.41408 0.16514 0.0
C826 C 0.90154 0.35083 0.15991 0.0
C827 C 0.87126 0.34964 0.16636 0.0
C828 C 0.87381 0.38095 0.17224 0.0
H829 H 0.66439 0.2043 0.19953 0.0
H830 H 0.71907 0.25373 0.18921 0.0
C831 C 0.90578 0.41273 0.17161 0.0
C832 C 0.83742 0.31557 0.16775 0.0
H833 H 0.74995 0.27567 0.15835 0.0
C834 C 0.83642 0.28834 0.17731 0.0
C835 C 0.80591 0.31041 0.16045 0.0
C836 C 0.80537 0.33769 0.14931 0.0
C837 C 0.80465 0.257 0.18046 0.0
C838 C 0.77293 0.25233 0.17362 0.0
C839 C 0.77415 0.2791 0.1636 0.0
C840 C 0.73796 0.22154 0.17802 0.0
C841 C 0.80509 0.22993 0.19181 0.0
C842 C 0.72941 0.18669 0.1746 0.0
C843 C 0.69783 0.15816 0.18049 0.0
C844 C 0.67432 0.16404 0.1899 0.0
C845 C 0.68206 0.1989 0.19239 0.0
C846 C 0.71336 0.22723 0.1865 0.0
H847 H 0.83027 0.24052 0.19866 0.0
H848 H 0.78331 0.22026 0.20095 0.0
H849 H 0.80154 0.20717 0.18433 0.0
H850 H 0.74757 0.18153 0.16779 0.0
H851 H 0.69268 0.13163 0.17843 0.0
H852 H 0.05207 0.5839 0.11668 0.0
H853 H 0.05757 0.58011 0.08664 0.0
H854 H 0.02557 0.47034 0.09124 0.0
H855 H 0.02017 0.47399 0.12144 0.0
H856 H 0.09913 0.55391 0.06771 0.0
H857 H 0.95427 0.47804 0.05814 0.0
H858 H 0.97372 0.50371 0.07663 0.0
H859 H 0.97275 0.46278 0.07374 0.0
C860 C 0.0464 0.559 0.11131 0.0
C861 C 0.03539 0.52915 0.12133 0.0
C862 C 0.04966 0.55692 0.09417 0.0
C863 C 0.04171 0.52491 0.08677 0.0
C864 C 0.03156 0.49521 0.09677 0.0
H865 H 0.06507 0.49642 0.98049 0.0
H866 H 0.066 0.49212 0.01078 0.0
C867 C 0.02853 0.49733 0.11397 0.0
C868 C 0.04277 0.52264 0.06849 0.0
H869 H 0.98993 0.49395 0.03433 0.0
C870 C 0.07534 0.54045 0.06038 0.0
C871 C 1.0116 0.5053 0.05904 0.0
C872 C 0.97598 0.48646 0.06723 0.0
C873 C 0.07749 0.54176 0.04299 0.0
C874 C 0.04629 0.52493 0.03356 0.0
C875 C 1.01377 0.50666 0.04166 0.0
C876 C 0.0467 0.52797 0.01529 0.0
C877 C 0.11291 0.56206 0.03473 0.0
C878 C 0.03556 0.54955 0.0079 0.0
C879 C 0.03537 0.55241 0.99066 0.0
C880 C 0.04596 0.53341 0.98044 0.0
C881 C 0.05719 0.51179 0.98795 0.0
C882 C 0.05758 0.50914 0.00524 0.0
H883 H 0.13442 0.57626 0.04384 0.0
H884 H 0.11833 0.54369 0.02759 0.0
H885 H 0.11296 0.58137 0.02583 0.0
H886 H 0.02719 0.56437 0.0155 0.0
H887 H 0.02719 0.5698 0.98535 0.0
H888 H 0.49246 0.0438 0.45875 0.0
H889 H 0.47852 0.03174 0.42912 0.0
H890 H 0.58905 0.08893 0.41749 0.0
H891 H 0.60293 0.1002 0.44694 0.0
H892 H 0.49493 0.07715 0.40198 0.0
H893 H 0.55602 0.99404 0.39528 0.0
H894 H 0.54652 1.006 0.41524 0.0
H895 H 0.58536 0.03639 0.40399 0.0
C896 C 0.51363 0.05356 0.44986 0.0
C897 C 0.54869 0.07241 0.45514 0.0
C898 C 0.50571 0.04682 0.43295 0.0
C899 C 0.53281 0.05882 0.42115 0.0
C900 C 0.56777 0.07868 0.42641 0.0
H901 H 0.53046 0.08517 0.31501 0.0
H902 H 0.53446 0.09239 0.34513 0.0
C903 C 0.57564 0.08526 0.44324 0.0
C904 C 0.52492 0.05072 0.40329 0.0
H905 H 0.54324 0.01418 0.37018 0.0
C906 C 0.50517 0.06309 0.39502 0.0
C907 C 0.53784 0.03189 0.39431 0.0
C908 C 0.5573 0.01599 0.40268 0.0
C909 C 0.49905 0.05818 0.37786 0.0
C910 C 0.51366 0.04105 0.36873 0.0
C911 C 0.5324 0.02768 0.37713 0.0
C912 C 0.51012 0.03675 0.35045 0.0
C913 C 0.47676 0.07113 0.36973 0.0
C914 C 0.49603 1.00319 0.34338 0.0
C915 C 0.49443 0.99904 0.32617 0.0
C916 C 0.50686 0.02839 0.31561 0.0
C917 C 0.52089 0.06201 0.32274 0.0
C918 C 0.52269 0.06615 0.33998 0.0
H919 H 0.45915 0.0736 0.37885 0.0
H920 H 0.49411 0.09753 0.36433 0.0
H921 H 0.46051 0.05323 0.35962 0.0
H922 H 0.48651 0.98016 0.35121 0.0
H923 H 0.4841 0.97283 0.32116 0.0
H924 H 0.59412 0.59557 0.79108 0.0
H925 H 0.59668 0.61051 0.76148 0.0
H926 H 0.52722 0.5011 0.75006 0.0
H927 H 0.52452 0.48623 0.77939 0.0
H928 H 0.61792 0.5814 0.73397 0.0
H929 H 0.48085 0.55349 0.72805 0.0
H930 H 0.50305 0.56179 0.74779 0.0
H931 H 0.48462 0.5192 0.73825 0.0
C932 C 0.57924 0.5749 0.78223 0.0
C933 C 0.55889 0.53986 0.7875 0.0
C934 C 0.58078 0.58339 0.76537 0.0
C935 C 0.56166 0.55694 0.75366 0.0
C936 C 0.54164 0.52196 0.75894 0.0
H937 H 0.52291 0.50841 0.6519 0.0
H938 H 0.52628 0.51276 0.6821 0.0
C939 C 0.54028 0.5135 0.77569 0.0
C940 C 0.56307 0.56511 0.73577 0.0
H941 H 0.51021 0.55474 0.7028 0.0
C942 C 0.59461 0.57629 0.72714 0.0
C943 C 0.53258 0.55842 0.72697 0.0
C944 C 0.49841 0.54787 0.73574 0.0
C945 C 0.59591 0.57883 0.70974 0.0
C946 C 0.56495 0.57046 0.70088 0.0
C947 C 0.53386 0.56094 0.70962 0.0
C948 C 0.56345 0.5686 0.68253 0.0
C949 C 0.62985 0.58855 0.70093 0.0
C950 C 0.58305 0.59866 0.67274 0.0
C951 C 0.58138 0.5962 0.65542 0.0
C952 C 0.56001 0.56364 0.6476 0.0
C953 C 0.54011 0.53374 0.6575 0.0
C954 C 0.54179 0.53623 0.67477 0.0
H955 H 0.64951 0.58803 0.70938 0.0
H956 H 0.62511 0.57034 0.69043 0.0
H957 H 0.6412 0.6155 0.6958 0.0
H958 H 0.59953 0.62399 0.6785 0.0
H959 H 0.59714 0.61969 0.64815 0.0
H960 H 0.57029 0.06953 0.54575 0.0
H961 H 0.58943 0.08703 0.57451 0.0
H962 H 0.50563 0.10968 0.58178 0.0
H963 H 0.48631 0.09213 0.55317 0.0
H964 H 0.60824 0.15218 0.59234 0.0
H965 H 0.48994 0.03514 0.61764 0.0
H966 H 0.50337 0.0382 0.59625 0.0
H967 H 0.48109 0.06078 0.60315 0.0
C968 C 0.55616 0.07849 0.55348 0.0
C969 C 0.52663 0.07918 0.54736 0.0
C970 C 0.56714 0.08851 0.56984 0.0
C971 C 0.54859 0.09913 0.58026 0.0
C972 C 0.51992 0.10105 0.57396 0.0
H973 H 0.55069 0.14153 0.68488 0.0
H974 H 0.54129 0.13738 0.65491 0.0
C975 C 0.50897 0.09109 0.55764 0.0
C976 C 0.55818 0.10681 0.59794 0.0
H977 H 0.52719 0.07808 0.63697 0.0
C978 C 0.59066 0.136 0.60214 0.0
C979 C 0.53512 0.0855 0.61061 0.0
C980 C 0.50055 0.05296 0.60675 0.0
C981 C 0.60036 0.14494 0.6188 0.0
C982 C 0.57713 0.12376 0.63147 0.0
C983 C 0.5448 0.09443 0.62721 0.0
C984 C 0.5858 0.13088 0.64928 0.0
C985 C 0.63497 0.17732 0.6227 0.0
C986 C 0.61425 0.1291 0.656 0.0
C987 C 0.61988 0.13176 0.67312 0.0
C988 C 0.59695 0.13596 0.68383 0.0
C989 C 0.56912 0.13882 0.67698 0.0
C990 C 0.56356 0.13621 0.65987 0.0
H991 H 0.64523 0.19551 0.61193 0.0
H992 H 0.63243 0.19166 0.63347 0.0
H993 H 0.65453 0.16938 0.62589 0.0
H994 H 0.63135 0.12437 0.64808 0.0
H995 H 0.64172 0.12975 0.67801 0.0
H996 H 0.64538 0.60011 0.88454 0.0
H997 H 0.64439 0.57944 0.91285 0.0
H998 H 0.53692 0.49722 0.90612 0.0
H999 H 0.53787 0.51757 0.87776 0.0
H1000 H 0.59931 0.57798 0.93705 0.0
H1001 H 0.58128 0.44482 0.92795 0.0
H1002 H 0.59593 0.47713 0.91155 0.0
H1003 H 0.55015 0.45216 0.91687 0.0
C1004 C 0.62172 0.57734 0.88905 0.0
C1005 C 0.59167 0.56045 0.87905 0.0
C1006 C 0.62123 0.56552 0.90517 0.0
C1007 C 0.59075 0.53654 0.91148 0.0
C1008 C 0.56095 0.51913 0.90135 0.0
H1009 H 0.50778 0.44826 0.00675 0.0
H1010 H 0.52081 0.46008 0.97718 0.0
C1011 C 0.56144 0.53094 0.88522 0.0
C1012 C 0.58894 0.52686 0.92916 0.0
H1013 H 0.57089 0.45879 0.95533 0.0
C1014 C 0.59359 0.55209 0.94108 0.0
C1015 C 0.5812 0.49297 0.9343 0.0
C1016 C 0.57716 0.46528 0.92201 0.0
C1017 C 0.58958 0.54403 0.95802 0.0
C1018 C 0.58144 0.51001 0.96319 0.0
C1019 C 0.5773 0.48488 0.9513 0.0
C1020 C 0.5752 0.49972 0.98086 0.0
C1021 C 0.59268 0.57159 0.97019 0.0
C1022 C 0.60183 0.51723 0.99264 0.0
C1023 C 0.59438 0.51089 0.00954 0.0
C1024 C 0.5602 0.48669 0.01492 0.0
C1025 C 0.53418 0.46756 0.003 0.0
C1026 C 0.54163 0.47405 0.98612 0.0
H1027 H 0.59114 0.59332 0.96395 0.0
H1028 H 0.57166 0.55985 0.97973 0.0
H1029 H 0.61838 0.58306 0.97661 0.0
H1030 H 0.62806 0.53676 0.98878 0.0
H1031 H 0.61498 0.52618 0.01839 0.0
H1032 H 0.03859 0.54763 0.212 0.0
H1033 H 0.02631 0.55008 0.24152 0.0
H1034 H 1.00883 0.44516 0.24827 0.0
H1035 H 0.02095 0.44246 0.21881 0.0
H1036 H 0.96288 0.49952 0.26108 0.0
H1037 H 0.08848 0.51021 0.28184 0.0
H1038 H 0.0818 0.52016 0.26089 0.0
H1039 H 0.06251 0.47529 0.26754 0.0
C1040 C 0.032 0.52507 0.21979 0.0
C1041 C 0.03095 0.49495 0.21322 0.0
C1042 C 0.02492 0.52648 0.23658 0.0
C1043 C 0.01701 0.49791 0.24701 0.0
C1044 C 0.01525 0.46756 0.2404 0.0
H1045 H 0.99998 0.47427 0.35387 0.0
H1046 H 0.99839 0.4631 0.32412 0.0
C1047 C 0.02215 0.46607 0.22361 0.0
C1048 C 1.01161 0.5002 0.26492 0.0
H1049 H 0.04893 0.5059 0.30265 0.0
C1050 C 0.9816 0.5009 0.27022 0.0
C1051 C 0.03611 0.50186 0.27671 0.0
C1052 C 0.06921 0.50211 0.27154 0.0
C1053 C 0.97524 0.50289 0.28715 0.0
C1054 C 1.0 0.505 0.29895 0.0
C1055 C 0.0299 0.5041 0.29359 0.0
C1056 C 0.99634 0.50947 0.3169 0.0
C1057 C 0.94186 0.50214 0.29222 0.0
C1058 C 0.99522 0.53898 0.32271 0.0
C1059 C 0.99565 0.5452 0.33972 0.0
C1060 C 0.99773 0.52227 0.35123 0.0
C1061 C 0.99789 0.4922 0.34537 0.0
C1062 C 0.99724 0.48591 0.32836 0.0
H1063 H 0.92125 0.48965 0.28255 0.0
H1064 H 0.93148 0.48771 0.30407 0.0
H1065 H 0.94737 0.52949 0.29396 0.0
H1066 H 0.99525 0.5579 0.3141 0.0
H1067 H 0.99509 0.56837 0.34383 0.0
loop_
_geom_bond_atom_site_label_1
_geom_bond_atom_site_label_2
_geom_bond_distance
_geom_bond_site_symmetry_2
_ccdc_geom_bond_type
Dy0 O4 2.398 . S
Dy0 O5 2.491 . S
Dy0 O6 2.403 . S
Dy0 O7 2.664 . S
Dy0 O11 2.326 . S
Dy0 O15 2.310 . S
Dy0 O16 2.330 1_455 S
C1 O12 1.185 . S
C1 O13 1.355 . S
C2 O4 1.185 . S
C2 O5 1.355 . S
Dy3 O7 2.310 . S
Dy3 O10 2.351 . S
Dy3 O12 2.398 1_455 S
Dy3 O13 2.491 1_455 S
Dy3 O14 2.403 . S
Dy3 O15 2.664 . S
Dy3 O17 2.326 1_455 S
O4 Dy0 2.398 . S
O4 C2 1.185 . S
O5 Dy0 2.491 . S
O5 C2 1.355 . S
O6 Dy0 2.403 . S
O6 C8 1.254 . S
O7 Dy0 2.664 . S
O7 Dy3 2.310 . S
O7 C8 1.268 . S
C8 O6 1.254 . S
C8 O7 1.268 . S
C9 O14 1.254 . S
C9 O15 1.268 . S
O10 Dy3 2.351 . S
O10 C18 1.249 . S
O11 Dy0 2.326 . S
O11 C18 1.267 . S
O12 C1 1.185 . S
O12 Dy3 2.398 1_655 S
O13 C1 1.355 . S
O13 Dy3 2.491 1_655 S
O14 Dy3 2.403 . S
O14 C9 1.254 . S
O15 Dy0 2.310 . S
O15 Dy3 2.664 . S
O15 C9 1.268 . S
O16 Dy0 2.330 1_655 S
O16 C19 1.276 . S
O17 Dy3 2.326 1_655 S
O17 C19 1.267 . S
C18 O10 1.249 . S
C18 O11 1.267 . S
C19 O16 1.276 . S
C19 O17 1.267 . S
Dy20 O24 2.398 1_545 S
Dy20 O25 2.491 1_545 S
Dy20 O26 2.403 . S
Dy20 O27 2.664 . S
Dy20 O31 2.326 1_545 S
Dy20 O35 2.310 . S
Dy20 O36 2.351 . S
C21 O32 1.185 . S
C21 O33 1.355 . S
C22 O24 1.185 . S
C22 O25 1.355 . S
Dy23 O27 2.310 . S
Dy23 O30 2.351 . S
Dy23 O32 2.398 . S
Dy23 O33 2.491 . S
Dy23 O34 2.403 . S
Dy23 O35 2.664 . S
Dy23 O37 2.326 . S
O24 Dy20 2.398 1_565 S
O24 C22 1.185 . S
O25 Dy20 2.491 1_565 S
O25 C22 1.355 . S
O26 Dy20 2.403 . S
O26 C28 1.254 . S
O27 Dy20 2.664 . S
O27 Dy23 2.310 . S
O27 C28 1.268 . S
C28 O26 1.254 . S
C28 O27 1.268 . S
C29 O34 1.254 . S
C29 O35 1.268 . S
O30 Dy23 2.351 . S
O30 C38 1.249 1_545 S
O31 Dy20 2.326 1_565 S
O31 C38 1.267 . S
O32 C21 1.185 . S
O32 Dy23 2.398 . S
O33 C21 1.355 . S
O33 Dy23 2.491 . S
O34 Dy23 2.403 . S
O34 C29 1.254 . S
O35 Dy20 2.310 . S
O35 Dy23 2.664 . S
O35 C29 1.268 . S
O36 Dy20 2.351 . S
O36 C39 1.249 . S
O37 Dy23 2.326 . S
O37 C39 1.267 . S
C38 O30 1.249 1_565 S
C38 O31 1.267 . S
C39 O36 1.249 . S
C39 O37 1.267 . S
Dy40 O44 2.398 . S
Dy40 O45 2.491 . S
Dy40 O46 2.403 . S
Dy40 O47 2.664 . S
Dy40 O51 2.326 . S
Dy40 O55 2.310 . S
Dy40 O56 2.351 . S
C41 O52 1.185 . S
C41 O53 1.355 . S
C42 O44 1.185 . S
C42 O45 1.355 . S
Dy43 O47 2.310 . S
Dy43 O50 2.351 . S
Dy43 O52 2.398 . S
Dy43 O53 2.491 . S
Dy43 O54 2.403 . S
Dy43 O55 2.664 . S
Dy43 O57 2.326 . S
O44 Dy40 2.398 . S
O44 C42 1.185 . S
O45 Dy40 2.491 . S
O45 C42 1.355 . S
O46 Dy40 2.403 . S
O46 C48 1.254 . S
O47 Dy40 2.664 . S
O47 Dy43 2.310 . S
O47 C48 1.268 . S
C48 O46 1.254 . S
C48 O47 1.268 . S
C49 O54 1.254 . S
C49 O55 1.268 . S
O50 Dy43 2.351 . S
O50 C58 1.249 . S
O51 Dy40 2.326 . S
O51 C58 1.267 . S
O52 C41 1.185 . S
O52 Dy43 2.398 . S
O53 C41 1.355 . S
O53 Dy43 2.491 . S
O54 Dy43 2.403 . S
O54 C49 1.254 . S
O55 Dy40 2.310 . S
O55 Dy43 2.664 . S
O55 C49 1.268 . S
O56 Dy40 2.351 . S
O56 C59 1.249 . S
O57 Dy43 2.326 . S
O57 C59 1.267 . S
C58 O50 1.249 . S
C58 O51 1.267 . S
C59 O56 1.249 . S
C59 O57 1.267 . S
C60 C61 1.391 . S
C60 C64 1.391 . S
C60 H102 0.948 . S
C61 C60 1.391 . S
C61 C62 1.391 . S
C62 C61 1.391 . S
C62 H118 0.947 . S
C62 C119 1.392 . S
C63 C64 1.391 . S
C63 C67 1.397 . S
C63 C119 1.419 . S
C64 C60 1.391 . S
C64 C63 1.391 . S
C64 C65 1.399 . S
C65 C64 1.399 . S
C65 C68 1.396 . S
C65 C77 1.453 . S
C65 C78 1.684 . S
H66 C90 0.948 . S
C67 C63 1.397 . S
C67 C68 1.394 . S
C67 C86 1.723 . S
C68 C65 1.396 . S
C68 C67 1.394 . S
C68 C98 1.723 1_545 S
H69 C92 0.947 . S
H70 C93 0.948 . S
H71 C99 0.982 . S
H72 C100 0.979 . S
H73 C100 0.980 . S
H74 C100 0.983 . S
H75 C99 0.979 . S
H76 C99 0.977 . S
C77 C65 1.453 . S
C77 H106 0.982 . S
C77 H107 0.979 . S
C77 H108 0.977 1_545 S
C78 C65 1.684 . S
C78 H103 0.979 . S
C78 H104 0.980 . S
C78 H105 0.983 . S
C79 C80 1.391 . S
C79 C84 1.391 . S
C79 H109 0.948 . S
C80 C79 1.391 . S
C80 C81 1.391 1_545 S
C81 C80 1.391 1_565 S
C81 C82 1.392 . S
C81 H110 0.947 . S
C82 C81 1.392 . S
C82 C83 1.419 1_565 S
C82 H111 0.948 . S
C83 C82 1.419 1_545 S
C83 C84 1.391 . S
C83 C87 1.397 . S
C84 C79 1.391 . S
C84 C83 1.391 . S
C84 C85 1.399 . S
C85 C84 1.399 . S
C85 C86 1.396 . S
C85 C88 1.453 . S
C85 C89 1.684 . S
C86 C67 1.723 . S
C86 C85 1.396 . S
C86 C87 1.394 . S
C87 C83 1.397 . S
C87 C86 1.394 . S
C87 C97 1.723 1_545 S
C88 C85 1.453 . S
C88 H112 0.982 . S
C88 H113 0.979 . S
C88 H114 0.977 . S
C89 C85 1.684 . S
C89 H115 0.979 . S
C89 H116 0.980 . S
C89 H117 0.983 . S
C90 H66 0.948 . S
C90 C91 1.391 . S
C90 C95 1.391 . S
C91 C90 1.391 . S
C91 C92 1.391 . S
C92 H69 0.947 . S
C92 C91 1.391 . S
C92 C93 1.392 . S
C93 H70 0.948 . S
C93 C92 1.392 . S
C93 C94 1.419 . S
C94 C93 1.419 . S
C94 C95 1.391 . S
C94 C98 1.397 . S
C95 C90 1.391 . S
C95 C94 1.391 . S
C95 C96 1.399 . S
C96 C95 1.399 . S
C96 C97 1.396 . S
C96 C99 1.453 . S
C96 C100 1.684 . S
C97 C87 1.723 1_565 S
C97 C96 1.396 . S
C97 C98 1.394 . S
C98 C68 1.723 1_565 S
C98 C94 1.397 . S
C98 C97 1.394 . S
C99 H71 0.982 . S
C99 H75 0.979 . S
C99 H76 0.977 . S
C99 C96 1.453 . S
C100 H72 0.979 . S
C100 H73 0.980 . S
C100 H74 0.983 . S
C100 C96 1.684 . S
H101 C119 0.948 . S
H102 C60 0.948 . S
H103 C78 0.979 . S
H104 C78 0.980 . S
H105 C78 0.983 . S
H106 C77 0.982 . S
H107 C77 0.979 . S
H108 C77 0.977 1_565 S
H109 C79 0.948 . S
H110 C81 0.947 . S
H111 C82 0.948 . S
H112 C88 0.982 . S
H113 C88 0.979 . S
H114 C88 0.977 . S
H115 C89 0.979 . S
H116 C89 0.980 . S
H117 C89 0.983 . S
H118 C62 0.947 . S
C119 C62 1.392 . S
C119 C63 1.419 . S
C119 H101 0.948 . S
C120 C121 1.391 . S
C120 C124 1.391 . S
C120 H162 0.948 . S
C121 C120 1.391 . S
C121 C122 1.391 . S
C122 C121 1.391 . S
C122 H178 0.947 . S
C122 C179 1.392 . S
C123 C124 1.391 . S
C123 C127 1.397 . S
C123 C179 1.419 . S
C124 C120 1.391 . S
C124 C123 1.391 . S
C124 C125 1.399 . S
C125 C124 1.399 . S
C125 C128 1.396 . S
C125 C137 1.453 . S
C125 C138 1.684 . S
H126 C150 0.948 . S
C127 C123 1.397 . S
C127 C128 1.394 . S
C127 C146 1.723 . S
C128 C125 1.396 . S
C128 C127 1.394 . S
C128 C158 1.723 . S
H129 C152 0.947 . S
H130 C153 0.948 . S
H131 C159 0.982 . S
H132 C160 0.979 . S
H133 C160 0.980 . S
H134 C160 0.983 . S
H135 C159 0.979 . S
H136 C159 0.977 . S
C137 C125 1.453 . S
C137 H166 0.982 . S
C137 H167 0.979 . S
C137 H168 0.977 . S
C138 C125 1.684 . S
C138 H163 0.979 . S
C138 H164 0.980 . S
C138 H165 0.983 . S
C139 C140 1.391 . S
C139 C144 1.391 . S
C139 H169 0.948 . S
C140 C139 1.391 . S
C140 C141 1.391 . S
C141 C140 1.391 . S
C141 C142 1.392 . S
C141 H170 0.947 . S
C142 C141 1.392 . S
C142 C143 1.419 . S
C142 H171 0.948 . S
C143 C142 1.419 . S
C143 C144 1.391 . S
C143 C147 1.397 . S
C144 C139 1.391 . S
C144 C143 1.391 . S
C144 C145 1.399 . S
C145 C144 1.399 . S
C145 C146 1.396 . S
C145 C148 1.453 . S
C145 C149 1.684 . S
C146 C127 1.723 . S
C146 C145 1.396 . S
C146 C147 1.394 . S
C147 C143 1.397 . S
C147 C146 1.394 . S
C147 C157 1.723 . S
C148 C145 1.453 . S
C148 H172 0.982 . S
C148 H173 0.979 . S
C148 H174 0.977 . S
C149 C145 1.684 . S
C149 H175 0.979 . S
C149 H176 0.980 . S
C149 H177 0.983 . S
C150 H126 0.948 . S
C150 C151 1.391 . S
C150 C155 1.391 . S
C151 C150 1.391 . S
C151 C152 1.391 . S
C152 H129 0.947 . S
C152 C151 1.391 . S
C152 C153 1.392 . S
C153 H130 0.948 . S
C153 C152 1.392 . S
C153 C154 1.419 . S
C154 C153 1.419 . S
C154 C155 1.391 . S
C154 C158 1.397 . S
C155 C150 1.391 . S
C155 C154 1.391 . S
C155 C156 1.399 . S
C156 C155 1.399 . S
C156 C157 1.396 . S
C156 C159 1.453 . S
C156 C160 1.684 . S
C157 C147 1.723 . S
C157 C156 1.396 . S
C157 C158 1.394 . S
C158 C128 1.723 . S
C158 C154 1.397 . S
C158 C157 1.394 . S
C159 H131 0.982 . S
C159 H135 0.979 . S
C159 H136 0.977 . S
C159 C156 1.453 . S
C160 H132 0.979 . S
C160 H133 0.980 . S
C160 H134 0.983 . S
C160 C156 1.684 . S
H161 C179 0.948 . S
H162 C120 0.948 . S
H163 C138 0.979 . S
H164 C138 0.980 . S
H165 C138 0.983 . S
H166 C137 0.982 . S
H167 C137 0.979 . S
H168 C137 0.977 . S
H169 C139 0.948 . S
H170 C141 0.947 . S
H171 C142 0.948 . S
H172 C148 0.982 . S
H173 C148 0.979 . S
H174 C148 0.977 . S
H175 C149 0.979 . S
H176 C149 0.980 . S
H177 C149 0.983 . S
H178 C122 0.947 . S
C179 C122 1.392 . S
C179 C123 1.419 . S
C179 H161 0.948 . S
C180 C181 1.391 . S
C180 C184 1.391 . S
C180 H222 0.948 . S
C181 C180 1.391 . S
C181 C182 1.391 . S
C182 C181 1.391 . S
C182 H238 0.947 . S
C182 C239 1.392 . S
C183 C184 1.391 . S
C183 C187 1.397 . S
C183 C239 1.419 . S
C184 C180 1.391 . S
C184 C183 1.391 . S
C184 C185 1.399 . S
C185 C184 1.399 . S
C185 C188 1.396 . S
C185 C197 1.453 . S
C185 C198 1.684 . S
H186 C210 0.948 . S
C187 C183 1.397 . S
C187 C188 1.394 . S
C187 C206 1.723 . S
C188 C185 1.396 . S
C188 C187 1.394 . S
C188 C218 1.723 . S
H189 C212 0.947 . S
H190 C213 0.948 . S
H191 C219 0.982 . S
H192 C220 0.979 1_455 S
H193 C220 0.980 . S
H194 C220 0.983 . S
H195 C219 0.979 . S
H196 C219 0.977 . S
C197 C185 1.453 . S
C197 H226 0.982 . S
C197 H227 0.979 . S
C197 H228 0.977 . S
C198 C185 1.684 . S
C198 H223 0.979 . S
C198 H224 0.980 . S
C198 H225 0.983 . S
C199 C200 1.391 . S
C199 C204 1.391 . S
C199 H229 0.948 . S
C200 C199 1.391 . S
C200 C201 1.391 . S
C201 C200 1.391 . S
C201 C202 1.392 . S
C201 H230 0.947 . S
C202 C201 1.392 . S
C202 C203 1.419 . S
C202 H231 0.948 . S
C203 C202 1.419 . S
C203 C204 1.391 . S
C203 C207 1.397 . S
C204 C199 1.391 . S
C204 C203 1.391 . S
C204 C205 1.399 . S
C205 C204 1.399 . S
C205 C206 1.396 . S
C205 C208 1.453 . S
C205 C209 1.684 . S
C206 C187 1.723 . S
C206 C205 1.396 . S
C206 C207 1.394 . S
C207 C203 1.397 . S
C207 C206 1.394 . S
C207 C217 1.723 . S
C208 C205 1.453 . S
C208 H232 0.982 . S
C208 H233 0.979 . S
C208 H234 0.977 . S
C209 C205 1.684 . S
C209 H235 0.979 . S
C209 H236 0.980 . S
C209 H237 0.983 . S
C210 H186 0.948 . S
C210 C211 1.391 . S
C210 C215 1.391 . S
C211 C210 1.391 . S
C211 C212 1.391 . S
C212 H189 0.947 . S
C212 C211 1.391 . S
C212 C213 1.392 1_655 S
C213 H190 0.948 . S
C213 C212 1.392 1_455 S
C213 C214 1.419 . S
C214 C213 1.419 . S
C214 C215 1.391 1_455 S
C214 C218 1.397 . S
C215 C210 1.391 . S
C215 C214 1.391 1_655 S
C215 C216 1.399 . S
C216 C215 1.399 . S
C216 C217 1.396 1_655 S
C216 C219 1.453 . S
C216 C220 1.684 . S
C217 C207 1.723 . S
C217 C216 1.396 1_455 S
C217 C218 1.394 . S
C218 C188 1.723 . S
C218 C214 1.397 . S
C218 C217 1.394 . S
C219 H191 0.982 . S
C219 H195 0.979 . S
C219 H196 0.977 . S
C219 C216 1.453 . S
C220 H192 0.979 1_655 S
C220 H193 0.980 . S
C220 H194 0.983 . S
C220 C216 1.684 . S
H221 C239 0.948 . S
H222 C180 0.948 . S
H223 C198 0.979 . S
H224 C198 0.980 . S
H225 C198 0.983 . S
H226 C197 0.982 . S
H227 C197 0.979 . S
H228 C197 0.977 . S
H229 C199 0.948 . S
H230 C201 0.947 . S
H231 C202 0.948 . S
H232 C208 0.982 . S
H233 C208 0.979 . S
H234 C208 0.977 . S
H235 C209 0.979 . S
H236 C209 0.980 . S
H237 C209 0.983 . S
H238 C182 0.947 . S
C239 C182 1.392 . S
C239 C183 1.419 . S
C239 H221 0.948 . S
C240 C241 1.391 . S
C240 C244 1.391 . S
C240 H282 0.948 . S
C241 C240 1.391 . S
C241 C242 1.391 . S
C242 C241 1.391 . S
C242 H298 0.947 . S
C242 C299 1.392 . S
C243 C244 1.391 . S
C243 C247 1.397 . S
C243 C299 1.419 . S
C244 C240 1.391 . S
C244 C243 1.391 . S
C244 C245 1.399 . S
C245 C244 1.399 . S
C245 C248 1.396 . S
C245 C257 1.453 . S
C245 C258 1.684 . S
H246 C270 0.948 . S
C247 C243 1.397 . S
C247 C248 1.394 . S
C247 C266 1.723 . S
C248 C245 1.396 . S
C248 C247 1.394 . S
C248 C278 1.723 1_655 S
H249 C272 0.947 . S
H250 C273 0.948 . S
H251 C279 0.982 . S
H252 C280 0.979 . S
H253 C280 0.980 . S
H254 C280 0.983 . S
H255 C279 0.979 . S
H256 C279 0.977 . S
C257 C245 1.453 . S
C257 H286 0.982 1_655 S
C257 H287 0.979 . S
C257 H288 0.977 1_655 S
C258 C245 1.684 . S
C258 H283 0.979 . S
C258 H284 0.980 . S
C258 H285 0.983 . S
C259 C260 1.391 1_655 S
C259 C264 1.391 . S
C259 H289 0.948 . S
C260 C259 1.391 1_455 S
C260 C261 1.391 . S
C261 C260 1.391 . S
C261 C262 1.392 . S
C261 H290 0.947 . S
C262 C261 1.392 . S
C262 C263 1.419 . S
C262 H291 0.948 . S
C263 C262 1.419 . S
C263 C264 1.391 1_455 S
C263 C267 1.397 . S
C264 C259 1.391 . S
C264 C263 1.391 1_655 S
C264 C265 1.399 . S
C265 C264 1.399 . S
C265 C266 1.396 . S
C265 C268 1.453 . S
C265 C269 1.684 . S
C266 C247 1.723 . S
C266 C265 1.396 . S
C266 C267 1.394 1_655 S
C267 C263 1.397 . S
C267 C266 1.394 1_455 S
C267 C277 1.723 . S
C268 C265 1.453 . S
C268 H292 0.982 . S
C268 H293 0.979 . S
C268 H294 0.977 . S
C269 C265 1.684 . S
C269 H295 0.979 . S
C269 H296 0.980 . S
C269 H297 0.983 . S
C270 H246 0.948 . S
C270 C271 1.391 . S
C270 C275 1.391 . S
C271 C270 1.391 . S
C271 C272 1.391 . S
C272 H249 0.947 . S
C272 C271 1.391 . S
C272 C273 1.392 . S
C273 H250 0.948 . S
C273 C272 1.392 . S
C273 C274 1.419 . S
C274 C273 1.419 . S
C274 C275 1.391 . S
C274 C278 1.397 . S
C275 C270 1.391 . S
C275 C274 1.391 . S
C275 C276 1.399 . S
C276 C275 1.399 . S
C276 C277 1.396 . S
C276 C279 1.453 . S
C276 C280 1.684 . S
C277 C267 1.723 . S
C277 C276 1.396 . S
C277 C278 1.394 . S
C278 C248 1.723 1_455 S
C278 C274 1.397 . S
C278 C277 1.394 . S
C279 H251 0.982 . S
C279 H255 0.979 . S
C279 H256 0.977 . S
C279 C276 1.453 . S
C280 H252 0.979 . S
C280 H253 0.980 . S
C280 H254 0.983 . S
C280 C276 1.684 . S
H281 C299 0.948 . S
H282 C240 0.948 . S
H283 C258 0.979 . S
H284 C258 0.980 . S
H285 C258 0.983 . S
H286 C257 0.982 1_455 S
H287 C257 0.979 . S
H288 C257 0.977 1_455 S
H289 C259 0.948 . S
H290 C261 0.947 . S
H291 C262 0.948 . S
H292 C268 0.982 . S
H293 C268 0.979 . S
H294 C268 0.977 . S
H295 C269 0.979 . S
H296 C269 0.980 . S
H297 C269 0.983 . S
H298 C242 0.947 . S
C299 C242 1.392 . S
C299 C243 1.419 . S
C299 H281 0.948 . S
C300 C301 1.391 . S
C300 C304 1.391 1_565 S
C300 H342 0.948 . S
C301 C300 1.391 . S
C301 C302 1.391 . S
C302 C301 1.391 . S
C302 H358 0.947 . S
C302 C359 1.392 . S
C303 C304 1.393 . S
C303 C307 1.413 . S
C303 C359 1.403 1_545 S
C304 C300 1.391 1_545 S
C304 C303 1.393 . S
C304 C305 1.399 . S
C305 C304 1.399 . S
C305 C308 1.396 . S
C305 C317 1.453 . S
C305 C318 1.684 . S
H306 C330 0.948 . S
C307 C303 1.413 . S
C307 C308 1.394 . S
C307 C326 1.723 . S
C308 C305 1.396 . S
C308 C307 1.394 . S
C308 C338 1.723 . S
H309 C332 0.947 . S
H310 C333 0.948 . S
H311 C339 0.982 . S
H312 C340 0.979 . S
H313 C340 0.980 . S
H314 C340 0.983 . S
H315 C339 0.979 . S
H316 C339 0.977 . S
C317 C305 1.453 . S
C317 H346 0.982 . S
C317 H347 0.979 . S
C317 H348 0.977 . S
C318 C305 1.684 . S
C318 H343 0.979 . S
C318 H344 0.980 . S
C318 H345 0.983 . S
C319 C320 1.391 . S
C319 C324 1.391 . S
C319 H349 0.948 . S
C320 C319 1.391 . S
C320 C321 1.391 . S
C321 C320 1.391 . S
C321 C322 1.392 . S
C321 H350 0.947 . S
C322 C321 1.392 . S
C322 C323 1.419 . S
C322 H351 0.948 . S
C323 C322 1.419 . S
C323 C324 1.391 . S
C323 C327 1.397 . S
C324 C319 1.391 . S
C324 C323 1.391 . S
C324 C325 1.399 . S
C325 C324 1.399 . S
C325 C326 1.396 . S
C325 C328 1.453 . S
C325 C329 1.684 1_545 S
C326 C307 1.723 . S
C326 C325 1.396 . S
C326 C327 1.394 . S
C327 C323 1.397 . S
C327 C326 1.394 . S
C327 C337 1.723 . S
C328 C325 1.453 . S
C328 H352 0.982 . S
C328 H353 0.979 1_545 S
C328 H354 0.977 1_545 S
C329 C325 1.684 1_565 S
C329 H355 0.979 . S
C329 H356 0.980 . S
C329 H357 0.983 . S
C330 H306 0.948 . S
C330 C331 1.391 . S
C330 C335 1.391 . S
C331 C330 1.391 . S
C331 C332 1.391 . S
C332 H309 0.947 . S
C332 C331 1.391 . S
C332 C333 1.392 . S
C333 H310 0.948 . S
C333 C332 1.392 . S
C333 C334 1.419 . S
C334 C333 1.419 . S
C334 C335 1.391 . S
C334 C338 1.397 . S
C335 C330 1.391 . S
C335 C334 1.391 . S
C335 C336 1.399 . S
C336 C335 1.399 . S
C336 C337 1.396 . S
C336 C339 1.453 . S
C336 C340 1.684 . S
C337 C327 1.723 . S
C337 C336 1.396 . S
C337 C338 1.394 . S
C338 C308 1.723 . S
C338 C334 1.397 . S
C338 C337 1.394 . S
C339 H311 0.982 . S
C339 H315 0.979 . S
C339 H316 0.977 . S
C339 C336 1.453 . S
C340 H312 0.979 . S
C340 H313 0.980 . S
C340 H314 0.983 . S
C340 C336 1.684 . S
H341 C359 0.948 . S
H342 C300 0.948 . S
H343 C318 0.979 . S
H344 C318 0.980 . S
H345 C318 0.983 . S
H346 C317 0.982 . S
H347 C317 0.979 . S
H348 C317 0.977 . S
H349 C319 0.948 . S
H350 C321 0.947 . S
H351 C322 0.948 . S
H352 C328 0.982 . S
H353 C328 0.979 1_565 S
H354 C328 0.977 1_565 S
H355 C329 0.979 . S
H356 C329 0.980 . S
H357 C329 0.983 . S
H358 C302 0.947 . S
C359 C302 1.392 . S
C359 C303 1.403 1_565 S
C359 H341 0.948 . S
C360 C361 1.391 . S
C360 C364 1.391 . S
C360 H402 0.948 . S
C361 C360 1.391 . S
C361 C362 1.391 . S
C362 C361 1.391 . S
C362 H418 0.947 . S
C362 C419 1.392 . S
C363 C364 1.391 . S
C363 C367 1.397 . S
C363 C419 1.419 . S
C364 C360 1.391 . S
C364 C363 1.391 . S
C364 C365 1.399 . S
C365 C364 1.399 . S
C365 C368 1.396 . S
C365 C377 1.453 . S
C365 C378 1.684 . S
H366 C390 0.948 . S
C367 C363 1.397 . S
C367 C368 1.394 . S
C367 C386 1.723 . S
C368 C365 1.396 . S
C368 C367 1.394 . S
C368 C398 1.723 . S
H369 C392 0.947 . S
H370 C393 0.948 . S
H371 C399 0.982 . S
H372 C400 0.979 . S
H373 C400 0.980 . S
H374 C400 0.983 . S
H375 C399 0.979 . S
H376 C399 0.977 . S
C377 C365 1.453 . S
C377 H406 0.982 . S
C377 H407 0.979 . S
C377 H408 0.977 . S
C378 C365 1.684 . S
C378 H403 0.979 . S
C378 H404 0.980 . S
C378 H405 0.983 . S
C379 C380 1.391 . S
C379 C384 1.391 . S
C379 H409 0.948 . S
C380 C379 1.391 . S
C380 C381 1.391 . S
C381 C380 1.391 . S
C381 C382 1.392 . S
C381 H410 0.947 . S
C382 C381 1.392 . S
C382 C383 1.419 . S
C382 H411 0.948 . S
C383 C382 1.419 . S
C383 C384 1.391 . S
C383 C387 1.397 . S
C384 C379 1.391 . S
C384 C383 1.391 . S
C384 C385 1.399 . S
C385 C384 1.399 . S
C385 C386 1.396 . S
C385 C388 1.453 . S
C385 C389 1.684 . S
C386 C367 1.723 . S
C386 C385 1.396 . S
C386 C387 1.394 . S
C387 C383 1.397 . S
C387 C386 1.394 . S
C387 C397 1.723 . S
C388 C385 1.453 . S
C388 H412 0.982 . S
C388 H413 0.979 . S
C388 H414 0.977 . S
C389 C385 1.684 . S
C389 H415 0.979 . S
C389 H416 0.980 . S
C389 H417 0.983 . S
C390 H366 0.948 . S
C390 C391 1.391 . S
C390 C395 1.391 . S
C391 C390 1.391 . S
C391 C392 1.391 . S
C392 H369 0.947 . S
C392 C391 1.391 . S
C392 C393 1.392 . S
C393 H370 0.948 . S
C393 C392 1.392 . S
C393 C394 1.419 . S
C394 C393 1.419 . S
C394 C395 1.391 . S
C394 C398 1.397 . S
C395 C390 1.391 . S
C395 C394 1.391 . S
C395 C396 1.399 . S
C396 C395 1.399 . S
C396 C397 1.396 . S
C396 C399 1.453 . S
C396 C400 1.684 . S
C397 C387 1.723 . S
C397 C396 1.396 . S
C397 C398 1.394 . S
C398 C368 1.723 . S
C398 C394 1.397 . S
C398 C397 1.394 . S
C399 H371 0.982 . S
C399 H375 0.979 . S
C399 H376 0.977 . S
C399 C396 1.453 . S
C400 H372 0.979 . S
C400 H373 0.980 . S
C400 H374 0.983 . S
C400 C396 1.684 . S
H401 C419 0.948 . S
H402 C360 0.948 . S
H403 C378 0.979 . S
H404 C378 0.980 . S
H405 C378 0.983 . S
H406 C377 0.982 . S
H407 C377 0.979 . S
H408 C377 0.977 . S
H409 C379 0.948 . S
H410 C381 0.947 . S
H411 C382 0.948 . S
H412 C388 0.982 . S
H413 C388 0.979 . S
H414 C388 0.977 . S
H415 C389 0.979 . S
H416 C389 0.980 . S
H417 C389 0.983 . S
H418 C362 0.947 . S
C419 C362 1.392 . S
C419 C363 1.419 . S
C419 H401 0.948 . S
H420 C428 0.929 . S
H421 C430 0.930 . S
H422 C432 0.930 . S
H423 C435 0.929 . S
H424 C438 0.930 . S
H425 C440 0.960 . S
H426 C440 0.960 . S
H427 C440 0.960 . S
C428 H420 0.929 . S
C428 C429 1.377 . S
C428 C430 1.384 . S
C429 C428 1.377 . S
C429 C435 1.390 . S
C430 H421 0.930 . S
C430 C428 1.384 . S
C430 C431 1.372 . S
C431 C430 1.372 . S
C431 C432 1.400 . S
C431 C436 1.490 . S
C432 H422 0.930 . S
C432 C431 1.400 . S
C432 C435 1.386 . S
H433 C449 0.930 . S
H434 C450 0.931 . S
C435 H423 0.929 . S
C435 C429 1.390 . S
C435 C432 1.386 . S
C436 C431 1.490 . S
C436 C438 1.395 . S
C436 C439 1.403 . S
H437 C443 0.930 . S
C438 H424 0.930 . S
C438 C436 1.395 . S
C438 C441 1.403 . S
C439 C436 1.403 . S
C439 C440 1.524 . S
C439 C443 1.400 . S
C440 H425 0.960 . S
C440 H426 0.960 . S
C440 H427 0.960 . S
C440 C439 1.524 . S
C441 C438 1.403 . S
C441 C442 1.392 . S
C441 C445 1.495 . S
C442 C441 1.392 . S
C442 C443 1.385 . S
C442 C444 1.478 . S
C443 H437 0.930 . S
C443 C439 1.400 . S
C443 C442 1.385 . S
C444 C442 1.478 . S
C444 C446 1.381 . S
C444 C450 1.383 . S
C445 C441 1.495 . S
C445 H451 0.959 . S
C445 H452 0.961 . S
C445 H453 0.960 . S
C446 C444 1.381 . S
C446 C447 1.394 . S
C446 H454 0.930 . S
C447 C446 1.394 . S
C447 C448 1.383 . S
C447 H455 0.929 . S
C448 C447 1.383 . S
C448 C449 1.377 . S
C449 H433 0.930 . S
C449 C448 1.377 . S
C449 C450 1.379 . S
C450 H434 0.931 . S
C450 C444 1.383 . S
C450 C449 1.379 . S
H451 C445 0.959 . S
H452 C445 0.961 . S
H453 C445 0.960 . S
H454 C446 0.930 . S
H455 C447 0.929 . S
H456 C464 0.929 . S
H457 C466 0.930 . S
H458 C468 0.930 . S
H459 C471 0.929 . S
H460 C474 0.930 . S
H461 C476 0.960 . S
H462 C476 0.960 . S
H463 C476 0.960 . S
C464 H456 0.929 . S
C464 C465 1.377 . S
C464 C466 1.384 . S
C465 C464 1.377 . S
C465 C471 1.390 . S
C466 H457 0.930 . S
C466 C464 1.384 . S
C466 C467 1.372 . S
C467 C466 1.372 . S
C467 C468 1.400 . S
C467 C472 1.490 . S
C468 H458 0.930 . S
C468 C467 1.400 . S
C468 C471 1.386 . S
H469 C485 0.930 . S
H470 C486 0.931 . S
C471 H459 0.929 . S
C471 C465 1.390 . S
C471 C468 1.386 . S
C472 C467 1.490 . S
C472 C474 1.395 . S
C472 C475 1.403 . S
H473 C479 0.930 . S
C474 H460 0.930 . S
C474 C472 1.395 . S
C474 C477 1.403 . S
C475 C472 1.403 . S
C475 C476 1.524 . S
C475 C479 1.400 . S
C476 H461 0.960 . S
C476 H462 0.960 . S
C476 H463 0.960 . S
C476 C475 1.524 . S
C477 C474 1.403 . S
C477 C478 1.392 . S
C477 C481 1.495 . S
C478 C477 1.392 . S
C478 C479 1.385 . S
C478 C480 1.478 . S
C479 H473 0.930 . S
C479 C475 1.400 . S
C479 C478 1.385 . S
C480 C478 1.478 . S
C480 C482 1.381 . S
C480 C486 1.383 . S
C481 C477 1.495 . S
C481 H487 0.959 . S
C481 H488 0.961 . S
C481 H489 0.960 . S
C482 C480 1.381 . S
C482 C483 1.394 . S
C482 H490 0.930 . S
C483 C482 1.394 . S
C483 C484 1.383 . S
C483 H491 0.929 . S
C484 C483 1.383 . S
C484 C485 1.377 . S
C485 H469 0.930 . S
C485 C484 1.377 . S
C485 C486 1.379 . S
C486 H470 0.931 . S
C486 C480 1.383 . S
C486 C485 1.379 . S
H487 C481 0.959 . S
H488 C481 0.961 . S
H489 C481 0.960 . S
H490 C482 0.930 . S
H491 C483 0.929 . S
H492 C500 0.929 . S
H493 C502 0.930 . S
H494 C504 0.930 . S
H495 C507 0.929 . S
H496 C510 0.930 . S
H497 C512 0.960 . S
H498 C512 0.960 . S
H499 C512 0.960 . S
C500 H492 0.929 . S
C500 C501 1.377 . S
C500 C502 1.384 . S
C501 C500 1.377 . S
C501 C507 1.390 . S
C502 H493 0.930 . S
C502 C500 1.384 . S
C502 C503 1.372 . S
C503 C502 1.372 . S
C503 C504 1.400 . S
C503 C508 1.490 . S
C504 H494 0.930 . S
C504 C503 1.400 . S
C504 C507 1.386 . S
H505 C521 0.930 . S
H506 C522 0.931 . S
C507 H495 0.929 . S
C507 C501 1.390 . S
C507 C504 1.386 . S
C508 C503 1.490 . S
C508 C510 1.395 . S
C508 C511 1.403 . S
H509 C515 0.930 . S
C510 H496 0.930 . S
C510 C508 1.395 . S
C510 C513 1.403 . S
C511 C508 1.403 . S
C511 C512 1.524 . S
C511 C515 1.400 . S
C512 H497 0.960 . S
C512 H498 0.960 . S
C512 H499 0.960 . S
C512 C511 1.524 . S
C513 C510 1.403 . S
C513 C514 1.392 . S
C513 C517 1.495 . S
C514 C513 1.392 . S
C514 C515 1.385 . S
C514 C516 1.478 . S
C515 H509 0.930 . S
C515 C511 1.400 . S
C515 C514 1.385 . S
C516 C514 1.478 . S
C516 C518 1.381 . S
C516 C522 1.383 . S
C517 C513 1.495 . S
C517 H523 0.959 . S
C517 H524 0.961 . S
C517 H525 0.960 . S
C518 C516 1.381 . S
C518 C519 1.394 . S
C518 H526 0.930 . S
C519 C518 1.394 . S
C519 C520 1.383 . S
C519 H527 0.929 . S
C520 C519 1.383 . S
C520 C521 1.377 . S
C521 H505 0.930 . S
C521 C520 1.377 . S
C521 C522 1.379 . S
C522 H506 0.931 . S
C522 C516 1.383 . S
C522 C521 1.379 . S
H523 C517 0.959 . S
H524 C517 0.961 . S
H525 C517 0.960 . S
H526 C518 0.930 . S
H527 C519 0.929 . S
H528 C536 0.929 . S
H529 C538 0.930 . S
H530 C540 0.930 . S
H531 C543 0.929 . S
H532 C546 0.930 . S
H533 C548 0.960 . S
H534 C548 0.960 . S
H535 C548 0.960 . S
C536 H528 0.929 . S
C536 C537 1.377 . S
C536 C538 1.384 . S
C537 C536 1.377 . S
C537 C543 1.390 . S
C538 H529 0.930 . S
C538 C536 1.384 . S
C538 C539 1.372 . S
C539 C538 1.372 . S
C539 C540 1.400 . S
C539 C544 1.490 . S
C540 H530 0.930 . S
C540 C539 1.400 . S
C540 C543 1.386 . S
H541 C557 0.930 . S
H542 C558 0.931 . S
C543 H531 0.929 . S
C543 C537 1.390 . S
C543 C540 1.386 . S
C544 C539 1.490 . S
C544 C546 1.395 . S
C544 C547 1.403 . S
H545 C551 0.930 . S
C546 H532 0.930 . S
C546 C544 1.395 . S
C546 C549 1.403 . S
C547 C544 1.403 . S
C547 C548 1.524 . S
C547 C551 1.400 . S
C548 H533 0.960 . S
C548 H534 0.960 . S
C548 H535 0.960 . S
C548 C547 1.524 . S
C549 C546 1.403 . S
C549 C550 1.392 . S
C549 C553 1.495 . S
C550 C549 1.392 . S
C550 C551 1.385 . S
C550 C552 1.478 . S
C551 H545 0.930 . S
C551 C547 1.400 . S
C551 C550 1.385 . S
C552 C550 1.478 . S
C552 C554 1.381 . S
C552 C558 1.383 . S
C553 C549 1.495 . S
C553 H559 0.959 . S
C553 H560 0.961 . S
C553 H561 0.960 . S
C554 C552 1.381 . S
C554 C555 1.394 . S
C554 H562 0.930 . S
C555 C554 1.394 . S
C555 C556 1.383 . S
C555 H563 0.929 . S
C556 C555 1.383 . S
C556 C557 1.377 . S
C557 H541 0.930 . S
C557 C556 1.377 . S
C557 C558 1.379 . S
C558 H542 0.931 . S
C558 C552 1.383 . S
C558 C557 1.379 . S
H559 C553 0.959 . S
H560 C553 0.961 . S
H561 C553 0.960 . S
H562 C554 0.930 . S
H563 C555 0.929 . S
H564 C572 0.929 . S
H565 C574 0.930 . S
H566 C576 0.930 . S
H567 C579 0.929 . S
H568 C582 0.930 . S
H569 C584 0.960 . S
H570 C584 0.960 . S
H571 C584 0.960 . S
C572 H564 0.929 . S
C572 C573 1.377 . S
C572 C574 1.384 . S
C573 C572 1.377 . S
C573 C579 1.390 . S
C574 H565 0.930 . S
C574 C572 1.384 . S
C574 C575 1.372 . S
C575 C574 1.372 . S
C575 C576 1.400 . S
C575 C580 1.490 . S
C576 H566 0.930 . S
C576 C575 1.400 . S
C576 C579 1.386 . S
H577 C593 0.930 . S
H578 C594 0.931 . S
C579 H567 0.929 . S
C579 C573 1.390 . S
C579 C576 1.386 . S
C580 C575 1.490 . S
C580 C582 1.395 . S
C580 C583 1.403 . S
H581 C587 0.930 . S
C582 H568 0.930 . S
C582 C580 1.395 . S
C582 C585 1.403 . S
C583 C580 1.403 . S
C583 C584 1.524 . S
C583 C587 1.400 . S
C584 H569 0.960 . S
C584 H570 0.960 . S
C584 H571 0.960 . S
C584 C583 1.524 . S
C585 C582 1.403 . S
C585 C586 1.392 . S
C585 C589 1.495 . S
C586 C585 1.392 . S
C586 C587 1.385 . S
C586 C588 1.478 . S
C587 H581 0.930 . S
C587 C583 1.400 . S
C587 C586 1.385 . S
C588 C586 1.478 . S
C588 C590 1.381 . S
C588 C594 1.383 . S
C589 C585 1.495 . S
C589 H595 0.959 . S
C589 H596 0.961 . S
C589 H597 0.960 . S
C590 C588 1.381 . S
C590 C591 1.394 . S
C590 H598 0.930 . S
C591 C590 1.394 . S
C591 C592 1.383 . S
C591 H599 0.929 . S
C592 C591 1.383 . S
C592 C593 1.377 . S
C593 H577 0.930 . S
C593 C592 1.377 . S
C593 C594 1.379 . S
C594 H578 0.931 . S
C594 C588 1.383 . S
C594 C593 1.379 . S
H595 C589 0.959 . S
H596 C589 0.961 . S
H597 C589 0.960 . S
H598 C590 0.930 . S
H599 C591 0.929 . S
H600 C608 0.929 . S
H601 C610 0.930 . S
H602 C612 0.930 . S
H603 C615 0.929 . S
H604 C618 0.930 . S
H605 C620 0.960 . S
H606 C620 0.960 . S
H607 C620 0.960 . S
C608 H600 0.929 . S
C608 C609 1.377 . S
C608 C610 1.384 . S
C609 C608 1.377 . S
C609 C615 1.390 . S
C610 H601 0.930 . S
C610 C608 1.384 . S
C610 C611 1.372 . S
C611 C610 1.372 . S
C611 C612 1.400 . S
C611 C616 1.490 . S
C612 H602 0.930 . S
C612 C611 1.400 . S
C612 C615 1.386 . S
H613 C629 0.930 . S
H614 C630 0.931 . S
C615 H603 0.929 . S
C615 C609 1.390 . S
C615 C612 1.386 . S
C616 C611 1.490 . S
C616 C618 1.395 . S
C616 C619 1.403 . S
H617 C623 0.930 . S
C618 H604 0.930 . S
C618 C616 1.395 . S
C618 C621 1.403 . S
C619 C616 1.403 . S
C619 C620 1.524 . S
C619 C623 1.400 . S
C620 H605 0.960 . S
C620 H606 0.960 . S
C620 H607 0.960 . S
C620 C619 1.524 . S
C621 C618 1.403 . S
C621 C622 1.392 . S
C621 C625 1.495 . S
C622 C621 1.392 . S
C622 C623 1.385 . S
C622 C624 1.478 . S
C623 H617 0.930 . S
C623 C619 1.400 . S
C623 C622 1.385 . S
C624 C622 1.478 . S
C624 C626 1.381 . S
C624 C630 1.383 . S
C625 C621 1.495 . S
C625 H631 0.959 . S
C625 H632 0.961 . S
C625 H633 0.960 . S
C626 C624 1.381 . S
C626 C627 1.394 . S
C626 H634 0.930 . S
C627 C626 1.394 . S
C627 C628 1.383 . S
C627 H635 0.929 . S
C628 C627 1.383 . S
C628 C629 1.377 . S
C629 H613 0.930 . S
C629 C628 1.377 . S
C629 C630 1.379 . S
C630 H614 0.931 . S
C630 C624 1.383 . S
C630 C629 1.379 . S
H631 C625 0.959 . S
H632 C625 0.961 . S
H633 C625 0.960 . S
H634 C626 0.930 . S
H635 C627 0.929 . S
H636 C644 0.929 . S
H637 C646 0.930 . S
H638 C648 0.930 . S
H639 C651 0.929 . S
H640 C654 0.930 . S
H641 C656 0.960 . S
H642 C656 0.960 . S
H643 C656 0.960 . S
C644 H636 0.929 . S
C644 C645 1.377 . S
C644 C646 1.384 . S
C645 C644 1.377 . S
C645 C651 1.390 . S
C646 H637 0.930 . S
C646 C644 1.384 . S
C646 C647 1.372 . S
C647 C646 1.372 . S
C647 C648 1.400 . S
C647 C652 1.490 . S
C648 H638 0.930 . S
C648 C647 1.400 . S
C648 C651 1.386 . S
H649 C665 0.930 . S
H650 C666 0.931 . S
C651 H639 0.929 . S
C651 C645 1.390 . S
C651 C648 1.386 . S
C652 C647 1.490 . S
C652 C654 1.395 . S
C652 C655 1.403 . S
H653 C659 0.930 . S
C654 H640 0.930 . S
C654 C652 1.395 . S
C654 C657 1.403 . S
C655 C652 1.403 . S
C655 C656 1.524 . S
C655 C659 1.400 . S
C656 H641 0.960 . S
C656 H642 0.960 . S
C656 H643 0.960 . S
C656 C655 1.524 . S
C657 C654 1.403 . S
C657 C658 1.392 . S
C657 C661 1.495 . S
C658 C657 1.392 . S
C658 C659 1.385 . S
C658 C660 1.478 . S
C659 H653 0.930 . S
C659 C655 1.400 . S
C659 C658 1.385 . S
C660 C658 1.478 . S
C660 C662 1.381 . S
C660 C666 1.383 . S
C661 C657 1.495 . S
C661 H667 0.959 . S
C661 H668 0.961 . S
C661 H669 0.960 . S
C662 C660 1.381 . S
C662 C663 1.394 . S
C662 H670 0.930 . S
C663 C662 1.394 . S
C663 C664 1.383 . S
C663 H671 0.929 . S
C664 C663 1.383 . S
C664 C665 1.377 . S
C665 H649 0.930 . S
C665 C664 1.377 . S
C665 C666 1.379 . S
C666 H650 0.931 . S
C666 C660 1.383 . S
C666 C665 1.379 . S
H667 C661 0.959 . S
H668 C661 0.961 . S
H669 C661 0.960 . S
H670 C662 0.930 . S
H671 C663 0.929 . S
H672 C680 0.929 . S
H673 C682 0.930 . S
H674 C684 0.930 . S
H675 C687 0.929 . S
H676 C690 0.930 . S
H677 C692 0.960 . S
H678 C692 0.960 . S
H679 C692 0.960 . S
C680 H672 0.929 . S
C680 C681 1.377 . S
C680 C682 1.384 . S
C681 C680 1.377 . S
C681 C687 1.390 . S
C682 H673 0.930 . S
C682 C680 1.384 . S
C682 C683 1.372 . S
C683 C682 1.372 . S
C683 C684 1.400 . S
C683 C688 1.490 . S
C684 H674 0.930 . S
C684 C683 1.400 . S
C684 C687 1.386 . S
H685 C701 0.930 . S
H686 C702 0.931 . S
C687 H675 0.929 . S
C687 C681 1.390 . S
C687 C684 1.386 . S
C688 C683 1.490 . S
C688 C690 1.395 . S
C688 C691 1.403 . S
H689 C695 0.930 . S
C690 H676 0.930 . S
C690 C688 1.395 . S
C690 C693 1.403 . S
C691 C688 1.403 . S
C691 C692 1.524 . S
C691 C695 1.400 . S
C692 H677 0.960 . S
C692 H678 0.960 . S
C692 H679 0.960 . S
C692 C691 1.524 . S
C693 C690 1.403 . S
C693 C694 1.392 . S
C693 C697 1.495 . S
C694 C693 1.392 . S
C694 C695 1.385 . S
C694 C696 1.478 . S
C695 H689 0.930 . S
C695 C691 1.400 . S
C695 C694 1.385 . S
C696 C694 1.478 . S
C696 C698 1.381 . S
C696 C702 1.383 . S
C697 C693 1.495 . S
C697 H703 0.959 . S
C697 H704 0.961 . S
C697 H705 0.960 . S
C698 C696 1.381 . S
C698 C699 1.394 . S
C698 H706 0.930 . S
C699 C698 1.394 . S
C699 C700 1.383 . S
C699 H707 0.929 . S
C700 C699 1.383 . S
C700 C701 1.377 . S
C701 H685 0.930 . S
C701 C700 1.377 . S
C701 C702 1.379 . S
C702 H686 0.931 . S
C702 C696 1.383 . S
C702 C701 1.379 . S
H703 C697 0.959 . S
H704 C697 0.961 . S
H705 C697 0.960 . S
H706 C698 0.930 . S
H707 C699 0.929 . S
H708 C716 0.929 . S
H709 C718 0.930 . S
H710 C720 0.930 . S
H711 C723 0.929 . S
H712 C726 0.930 . S
H713 C728 0.960 . S
H714 C728 0.960 . S
H715 C728 0.960 . S
C716 H708 0.929 . S
C716 C717 1.377 . S
C716 C718 1.384 . S
C717 C716 1.377 . S
C717 C723 1.390 . S
C718 H709 0.930 . S
C718 C716 1.384 . S
C718 C719 1.372 . S
C719 C718 1.372 . S
C719 C720 1.400 . S
C719 C724 1.490 . S
C720 H710 0.930 . S
C720 C719 1.400 . S
C720 C723 1.386 . S
H721 C737 0.930 . S
H722 C738 0.931 . S
C723 H711 0.929 . S
C723 C717 1.390 . S
C723 C720 1.386 . S
C724 C719 1.490 . S
C724 C726 1.395 . S
C724 C727 1.403 . S
H725 C731 0.930 . S
C726 H712 0.930 . S
C726 C724 1.395 . S
C726 C729 1.403 . S
C727 C724 1.403 . S
C727 C728 1.524 . S
C727 C731 1.400 . S
C728 H713 0.960 . S
C728 H714 0.960 . S
C728 H715 0.960 . S
C728 C727 1.524 . S
C729 C726 1.403 . S
C729 C730 1.392 . S
C729 C733 1.495 . S
C730 C729 1.392 . S
C730 C731 1.385 . S
C730 C732 1.478 . S
C731 H725 0.930 . S
C731 C727 1.400 . S
C731 C730 1.385 . S
C732 C730 1.478 . S
C732 C734 1.381 . S
C732 C738 1.383 . S
C733 C729 1.495 . S
C733 H739 0.959 . S
C733 H740 0.961 . S
C733 H741 0.960 . S
C734 C732 1.381 . S
C734 C735 1.394 . S
C734 H742 0.930 . S
C735 C734 1.394 . S
C735 C736 1.383 . S
C735 H743 0.929 . S
C736 C735 1.383 . S
C736 C737 1.377 . S
C737 H721 0.930 . S
C737 C736 1.377 . S
C737 C738 1.379 . S
C738 H722 0.931 . S
C738 C732 1.383 . S
C738 C737 1.379 . S
H739 C733 0.959 . S
H740 C733 0.961 . S
H741 C733 0.960 . S
H742 C734 0.930 . S
H743 C735 0.929 . S
H744 C752 0.929 . S
H745 C754 0.930 . S
H746 C756 0.930 . S
H747 C759 0.929 . S
H748 C762 0.930 . S
H749 C764 0.960 . S
H750 C764 0.960 . S
H751 C764 0.960 . S
C752 H744 0.929 . S
C752 C753 1.377 . S
C752 C754 1.384 . S
C753 C752 1.377 . S
C753 C759 1.390 . S
C754 H745 0.930 . S
C754 C752 1.384 . S
C754 C755 1.372 . S
C755 C754 1.372 . S
C755 C756 1.400 . S
C755 C760 1.490 . S
C756 H746 0.930 . S
C756 C755 1.400 . S
C756 C759 1.386 . S
H757 C773 0.930 . S
H758 C774 0.931 . S
C759 H747 0.929 . S
C759 C753 1.390 . S
C759 C756 1.386 . S
C760 C755 1.490 . S
C760 C762 1.395 . S
C760 C763 1.403 . S
H761 C767 0.930 . S
C762 H748 0.930 . S
C762 C760 1.395 . S
C762 C765 1.403 . S
C763 C760 1.403 . S
C763 C764 1.524 . S
C763 C767 1.400 . S
C764 H749 0.960 . S
C764 H750 0.960 . S
C764 H751 0.960 . S
C764 C763 1.524 . S
C765 C762 1.403 . S
C765 C766 1.392 . S
C765 C769 1.495 . S
C766 C765 1.392 . S
C766 C767 1.385 . S
C766 C768 1.478 . S
C767 H761 0.930 . S
C767 C763 1.400 . S
C767 C766 1.385 . S
C768 C766 1.478 . S
C768 C770 1.381 . S
C768 C774 1.383 . S
C769 C765 1.495 . S
C769 H775 0.959 . S
C769 H776 0.961 . S
C769 H777 0.960 . S
C770 C768 1.381 . S
C770 C771 1.394 . S
C770 H778 0.930 . S
C771 C770 1.394 . S
C771 C772 1.383 . S
C771 H779 0.929 . S
C772 C771 1.383 . S
C772 C773 1.377 . S
C773 H757 0.930 . S
C773 C772 1.377 . S
C773 C774 1.379 . S
C774 H758 0.931 . S
C774 C768 1.383 . S
C774 C773 1.379 . S
H775 C769 0.959 . S
H776 C769 0.961 . S
H777 C769 0.960 . S
H778 C770 0.930 . S
H779 C771 0.929 . S
H780 C788 0.929 . S
H781 C790 0.930 . S
H782 C792 0.930 . S
H783 C795 0.929 . S
H784 C798 0.930 . S
H785 C800 0.960 . S
H786 C800 0.960 . S
H787 C800 0.960 . S
C788 H780 0.929 . S
C788 C789 1.377 . S
C788 C790 1.384 . S
C789 C788 1.377 . S
C789 C795 1.390 . S
C790 H781 0.930 . S
C790 C788 1.384 . S
C790 C791 1.372 . S
C791 C790 1.372 . S
C791 C792 1.400 . S
C791 C796 1.490 . S
C792 H782 0.930 . S
C792 C791 1.400 . S
C792 C795 1.386 . S
H793 C809 0.930 . S
H794 C810 0.931 . S
C795 H783 0.929 . S
C795 C789 1.390 . S
C795 C792 1.386 . S
C796 C791 1.490 . S
C796 C798 1.395 . S
C796 C799 1.403 . S
H797 C803 0.930 . S
C798 H784 0.930 . S
C798 C796 1.395 . S
C798 C801 1.403 . S
C799 C796 1.403 . S
C799 C800 1.524 . S
C799 C803 1.400 . S
C800 H785 0.960 . S
C800 H786 0.960 . S
C800 H787 0.960 . S
C800 C799 1.524 . S
C801 C798 1.403 . S
C801 C802 1.392 . S
C801 C805 1.495 . S
C802 C801 1.392 . S
C802 C803 1.385 . S
C802 C804 1.478 . S
C803 H797 0.930 . S
C803 C799 1.400 . S
C803 C802 1.385 . S
C804 C802 1.478 . S
C804 C806 1.381 . S
C804 C810 1.383 . S
C805 C801 1.495 . S
C805 H811 0.959 . S
C805 H812 0.961 . S
C805 H813 0.960 . S
C806 C804 1.381 . S
C806 C807 1.394 . S
C806 H814 0.930 . S
C807 C806 1.394 . S
C807 C808 1.383 . S
C807 H815 0.929 . S
C808 C807 1.383 . S
C808 C809 1.377 . S
C809 H793 0.930 . S
C809 C808 1.377 . S
C809 C810 1.379 . S
C810 H794 0.931 . S
C810 C804 1.383 . S
C810 C809 1.379 . S
H811 C805 0.959 . S
H812 C805 0.961 . S
H813 C805 0.960 . S
H814 C806 0.930 . S
H815 C807 0.929 . S
H816 C824 0.929 . S
H817 C826 0.930 . S
H818 C828 0.930 . S
H819 C831 0.929 . S
H820 C834 0.930 . S
H821 C836 0.960 . S
H822 C836 0.960 . S
H823 C836 0.960 . S
C824 H816 0.929 . S
C824 C825 1.377 . S
C824 C826 1.384 . S
C825 C824 1.377 . S
C825 C831 1.390 . S
C826 H817 0.930 . S
C826 C824 1.384 . S
C826 C827 1.372 . S
C827 C826 1.372 . S
C827 C828 1.400 . S
C827 C832 1.490 . S
C828 H818 0.930 . S
C828 C827 1.400 . S
C828 C831 1.386 . S
H829 C845 0.930 . S
H830 C846 0.931 . S
C831 H819 0.929 . S
C831 C825 1.390 . S
C831 C828 1.386 . S
C832 C827 1.490 . S
C832 C834 1.395 . S
C832 C835 1.403 . S
H833 C839 0.930 . S
C834 H820 0.930 . S
C834 C832 1.395 . S
C834 C837 1.403 . S
C835 C832 1.403 . S
C835 C836 1.524 . S
C835 C839 1.400 . S
C836 H821 0.960 . S
C836 H822 0.960 . S
C836 H823 0.960 . S
C836 C835 1.524 . S
C837 C834 1.403 . S
C837 C838 1.392 . S
C837 C841 1.495 . S
C838 C837 1.392 . S
C838 C839 1.385 . S
C838 C840 1.478 . S
C839 H833 0.930 . S
C839 C835 1.400 . S
C839 C838 1.385 . S
C840 C838 1.478 . S
C840 C842 1.381 . S
C840 C846 1.383 . S
C841 C837 1.495 . S
C841 H847 0.959 . S
C841 H848 0.961 . S
C841 H849 0.960 . S
C842 C840 1.381 . S
C842 C843 1.394 . S
C842 H850 0.930 . S
C843 C842 1.394 . S
C843 C844 1.383 . S
C843 H851 0.929 . S
C844 C843 1.383 . S
C844 C845 1.377 . S
C845 H829 0.930 . S
C845 C844 1.377 . S
C845 C846 1.379 . S
C846 H830 0.931 . S
C846 C840 1.383 . S
C846 C845 1.379 . S
H847 C841 0.959 . S
H848 C841 0.961 . S
H849 C841 0.960 . S
H850 C842 0.930 . S
H851 C843 0.929 . S
H852 C860 0.929 . S
H853 C862 0.930 . S
H854 C864 0.930 . S
H855 C867 0.929 . S
H856 C870 0.930 . S
H857 C872 0.960 . S
H858 C872 0.960 . S
H859 C872 0.960 . S
C860 H852 0.929 . S
C860 C861 1.377 . S
C860 C862 1.384 . S
C861 C860 1.377 . S
C861 C867 1.390 . S
C862 H853 0.930 . S
C862 C860 1.384 . S
C862 C863 1.372 . S
C863 C862 1.372 . S
C863 C864 1.400 . S
C863 C868 1.490 . S
C864 H854 0.930 . S
C864 C863 1.400 . S
C864 C867 1.386 . S
H865 C881 0.930 . S
H866 C882 0.931 . S
C867 H855 0.929 . S
C867 C861 1.390 . S
C867 C864 1.386 . S
C868 C863 1.490 . S
C868 C870 1.395 . S
C868 C871 1.403 . S
H869 C875 0.930 . S
C870 H856 0.930 . S
C870 C868 1.395 . S
C870 C873 1.403 . S
C871 C868 1.403 . S
C871 C872 1.524 1_455 S
C871 C875 1.400 . S
C872 H857 0.960 . S
C872 H858 0.960 . S
C872 H859 0.960 . S
C872 C871 1.524 1_655 S
C873 C870 1.403 . S
C873 C874 1.392 . S
C873 C877 1.495 . S
C874 C873 1.392 . S
C874 C875 1.385 . S
C874 C876 1.478 . S
C875 H869 0.930 . S
C875 C871 1.400 . S
C875 C874 1.385 . S
C876 C874 1.478 . S
C876 C878 1.381 . S
C876 C882 1.383 . S
C877 C873 1.495 . S
C877 H883 0.959 . S
C877 H884 0.961 . S
C877 H885 0.960 . S
C878 C876 1.381 . S
C878 C879 1.394 1_554 S
C878 H886 0.930 . S
C879 C878 1.394 1_556 S
C879 C880 1.383 . S
C879 H887 0.929 . S
C880 C879 1.383 . S
C880 C881 1.377 . S
C881 H865 0.930 . S
C881 C880 1.377 . S
C881 C882 1.379 1_556 S
C882 H866 0.931 . S
C882 C876 1.383 . S
C882 C881 1.379 1_554 S
H883 C877 0.959 . S
H884 C877 0.961 . S
H885 C877 0.960 . S
H886 C878 0.930 . S
H887 C879 0.929 . S
H888 C896 0.929 . S
H889 C898 0.930 . S
H890 C900 0.930 . S
H891 C903 0.929 . S
H892 C906 0.930 . S
H893 C908 0.960 . S
H894 C908 0.960 . S
H895 C908 0.960 . S
C896 H888 0.929 . S
C896 C897 1.377 1_565 S
C896 C898 1.384 . S
C897 C896 1.377 1_545 S
C897 C903 1.390 . S
C898 H889 0.930 . S
C898 C896 1.384 . S
C898 C899 1.372 1_565 S
C899 C898 1.372 1_545 S
C899 C900 1.400 . S
C899 C904 1.490 . S
C900 H890 0.930 . S
C900 C899 1.400 . S
C900 C903 1.386 . S
H901 C917 0.930 . S
H902 C918 0.931 . S
C903 H891 0.929 . S
C903 C897 1.390 . S
C903 C900 1.386 . S
C904 C899 1.490 . S
C904 C906 1.395 . S
C904 C907 1.403 . S
H905 C911 0.930 . S
C906 H892 0.930 . S
C906 C904 1.395 . S
C906 C909 1.403 . S
C907 C904 1.403 . S
C907 C908 1.524 . S
C907 C911 1.400 . S
C908 H893 0.960 . S
C908 H894 0.960 . S
C908 H895 0.960 . S
C908 C907 1.524 . S
C909 C906 1.403 . S
C909 C910 1.392 . S
C909 C913 1.495 1_545 S
C910 C909 1.392 . S
C910 C911 1.385 . S
C910 C912 1.478 . S
C911 H905 0.930 . S
C911 C907 1.400 . S
C911 C910 1.385 . S
C912 C910 1.478 . S
C912 C914 1.381 1_545 S
C912 C918 1.383 . S
C913 C909 1.495 1_565 S
C913 H919 0.959 . S
C913 H920 0.961 1_565 S
C913 H921 0.960 . S
C914 C912 1.381 1_565 S
C914 C915 1.394 . S
C914 H922 0.930 . S
C915 C914 1.394 . S
C915 C916 1.383 1_565 S
C915 H923 0.929 . S
C916 C915 1.383 1_545 S
C916 C917 1.377 . S
C917 H901 0.930 . S
C917 C916 1.377 . S
C917 C918 1.379 . S
C918 H902 0.931 . S
C918 C912 1.383 . S
C918 C917 1.379 . S
H919 C913 0.959 . S
H920 C913 0.961 1_545 S
H921 C913 0.960 . S
H922 C914 0.930 . S
H923 C915 0.929 . S
H924 C932 0.929 . S
H925 C934 0.930 . S
H926 C936 0.930 . S
H927 C939 0.929 . S
H928 C942 0.930 . S
H929 C944 0.960 . S
H930 C944 0.960 . S
H931 C944 0.960 . S
C932 H924 0.929 . S
C932 C933 1.377 . S
C932 C934 1.384 . S
C933 C932 1.377 . S
C933 C939 1.390 . S
C934 H925 0.930 . S
C934 C932 1.384 . S
C934 C935 1.372 . S
C935 C934 1.372 . S
C935 C936 1.400 . S
C935 C940 1.490 . S
C936 H926 0.930 . S
C936 C935 1.400 . S
C936 C939 1.386 . S
H937 C953 0.930 . S
H938 C954 0.931 . S
C939 H927 0.929 . S
C939 C933 1.390 . S
C939 C936 1.386 . S
C940 C935 1.490 . S
C940 C942 1.395 . S
C940 C943 1.403 . S
H941 C947 0.930 . S
C942 H928 0.930 . S
C942 C940 1.395 . S
C942 C945 1.403 . S
C943 C940 1.403 . S
C943 C944 1.524 . S
C943 C947 1.400 . S
C944 H929 0.960 . S
C944 H930 0.960 . S
C944 H931 0.960 . S
C944 C943 1.524 . S
C945 C942 1.403 . S
C945 C946 1.392 . S
C945 C949 1.495 . S
C946 C945 1.392 . S
C946 C947 1.385 . S
C946 C948 1.478 . S
C947 H941 0.930 . S
C947 C943 1.400 . S
C947 C946 1.385 . S
C948 C946 1.478 . S
C948 C950 1.381 . S
C948 C954 1.383 . S
C949 C945 1.495 . S
C949 H955 0.959 . S
C949 H956 0.961 . S
C949 H957 0.960 . S
C950 C948 1.381 . S
C950 C951 1.394 . S
C950 H958 0.930 . S
C951 C950 1.394 . S
C951 C952 1.383 . S
C951 H959 0.929 . S
C952 C951 1.383 . S
C952 C953 1.377 . S
C953 H937 0.930 . S
C953 C952 1.377 . S
C953 C954 1.379 . S
C954 H938 0.931 . S
C954 C948 1.383 . S
C954 C953 1.379 . S
H955 C949 0.959 . S
H956 C949 0.961 . S
H957 C949 0.960 . S
H958 C950 0.930 . S
H959 C951 0.929 . S
H960 C968 0.929 . S
H961 C970 0.930 . S
H962 C972 0.930 . S
H963 C975 0.929 . S
H964 C978 0.930 . S
H965 C980 0.960 . S
H966 C980 0.960 . S
H967 C980 0.960 . S
C968 H960 0.929 . S
C968 C969 1.377 . S
C968 C970 1.384 . S
C969 C968 1.377 . S
C969 C975 1.390 . S
C970 H961 0.930 . S
C970 C968 1.384 . S
C970 C971 1.372 . S
C971 C970 1.372 . S
C971 C972 1.400 . S
C971 C976 1.490 . S
C972 H962 0.930 . S
C972 C971 1.400 . S
C972 C975 1.386 . S
H973 C989 0.930 . S
H974 C990 0.931 . S
C975 H963 0.929 . S
C975 C969 1.390 . S
C975 C972 1.386 . S
C976 C971 1.490 . S
C976 C978 1.395 . S
C976 C979 1.403 . S
H977 C983 0.930 . S
C978 H964 0.930 . S
C978 C976 1.395 . S
C978 C981 1.403 . S
C979 C976 1.403 . S
C979 C980 1.524 1_545 S
C979 C983 1.400 . S
C980 H965 0.960 . S
C980 H966 0.960 . S
C980 H967 0.960 . S
C980 C979 1.524 1_565 S
C981 C978 1.403 . S
C981 C982 1.392 . S
C981 C985 1.495 . S
C982 C981 1.392 . S
C982 C983 1.385 . S
C982 C984 1.478 . S
C983 H977 0.930 . S
C983 C979 1.400 . S
C983 C982 1.385 . S
C984 C982 1.478 . S
C984 C986 1.381 . S
C984 C990 1.383 . S
C985 C981 1.495 . S
C985 H991 0.959 . S
C985 H992 0.961 . S
C985 H993 0.960 . S
C986 C984 1.381 . S
C986 C987 1.394 . S
C986 H994 0.930 . S
C987 C986 1.394 . S
C987 C988 1.383 . S
C987 H995 0.929 . S
C988 C987 1.383 . S
C988 C989 1.377 . S
C989 H973 0.930 . S
C989 C988 1.377 . S
C989 C990 1.379 . S
C990 H974 0.931 . S
C990 C984 1.383 . S
C990 C989 1.379 . S
H991 C985 0.959 . S
H992 C985 0.961 . S
H993 C985 0.960 . S
H994 C986 0.930 . S
H995 C987 0.929 . S
H996 C1004 0.929 . S
H997 C1006 0.930 . S
H998 C1008 0.930 . S
H999 C1011 0.929 . S
H1000 C1014 0.930 . S
H1001 C1016 0.960 . S
H1002 C1016 0.960 . S
H1003 C1016 0.960 . S
C1004 H996 0.929 . S
C1004 C1005 1.377 . S
C1004 C1006 1.384 . S
C1005 C1004 1.377 . S
C1005 C1011 1.390 . S
C1006 H997 0.930 . S
C1006 C1004 1.384 . S
C1006 C1007 1.372 . S
C1007 C1006 1.372 . S
C1007 C1008 1.400 . S
C1007 C1012 1.490 . S
C1008 H998 0.930 . S
C1008 C1007 1.400 . S
C1008 C1011 1.386 . S
H1009 C1025 0.930 . S
H1010 C1026 0.931 . S
C1011 H999 0.929 . S
C1011 C1005 1.390 . S
C1011 C1008 1.386 . S
C1012 C1007 1.490 . S
C1012 C1014 1.395 . S
C1012 C1015 1.403 . S
H1013 C1019 0.930 . S
C1014 H1000 0.930 . S
C1014 C1012 1.395 . S
C1014 C1017 1.403 . S
C1015 C1012 1.403 . S
C1015 C1016 1.524 . S
C1015 C1019 1.400 . S
C1016 H1001 0.960 . S
C1016 H1002 0.960 . S
C1016 H1003 0.960 . S
C1016 C1015 1.524 . S
C1017 C1014 1.403 . S
C1017 C1018 1.392 . S
C1017 C1021 1.495 . S
C1018 C1017 1.392 . S
C1018 C1019 1.385 . S
C1018 C1020 1.478 . S
C1019 H1013 0.930 . S
C1019 C1015 1.400 . S
C1019 C1018 1.385 . S
C1020 C1018 1.478 . S
C1020 C1022 1.354 1_556 S
C1020 C1026 1.383 . S
C1021 C1017 1.495 . S
C1021 H1027 0.959 . S
C1021 H1028 0.961 . S
C1021 H1029 0.960 . S
C1022 C1020 1.354 1_554 S
C1022 C1023 1.440 . S
C1022 H1030 0.913 1_554 S
C1023 C1022 1.440 . S
C1023 C1024 1.383 . S
C1023 H1031 0.929 . S
C1024 C1023 1.383 . S
C1024 C1025 1.377 . S
C1025 H1009 0.930 . S
C1025 C1024 1.377 . S
C1025 C1026 1.379 1_554 S
C1026 H1010 0.931 . S
C1026 C1020 1.383 . S
C1026 C1025 1.379 1_556 S
H1027 C1021 0.959 . S
H1028 C1021 0.961 . S
H1029 C1021 0.960 . S
H1030 C1022 0.913 1_556 S
H1031 C1023 0.929 . S
H1032 C1040 0.929 . S
H1033 C1042 0.930 . S
H1034 C1044 0.930 . S
H1035 C1047 0.929 . S
H1036 C1050 0.930 1_655 S
H1037 C1052 0.960 . S
H1038 C1052 0.960 . S
H1039 C1052 0.960 . S
C1040 H1032 0.929 . S
C1040 C1041 1.377 . S
C1040 C1042 1.384 . S
C1041 C1040 1.377 . S
C1041 C1047 1.390 . S
C1042 H1033 0.930 . S
C1042 C1040 1.384 . S
C1042 C1043 1.372 . S
C1043 C1042 1.372 . S
C1043 C1044 1.400 . S
C1043 C1048 1.490 . S
C1044 H1034 0.930 . S
C1044 C1043 1.400 . S
C1044 C1047 1.386 . S
H1045 C1061 0.930 . S
H1046 C1062 0.931 . S
C1047 H1035 0.929 . S
C1047 C1041 1.390 . S
C1047 C1044 1.386 . S
C1048 C1043 1.490 . S
C1048 C1050 1.395 . S
C1048 C1051 1.403 . S
H1049 C1055 0.930 . S
C1050 H1036 0.930 1_455 S
C1050 C1048 1.395 . S
C1050 C1053 1.403 1_455 S
C1051 C1048 1.403 . S
C1051 C1052 1.524 . S
C1051 C1055 1.400 . S
C1052 H1037 0.960 . S
C1052 H1038 0.960 . S
C1052 H1039 0.960 . S
C1052 C1051 1.524 . S
C1053 C1050 1.403 1_655 S
C1053 C1054 1.392 1_655 S
C1053 C1057 1.495 . S
C1054 C1053 1.392 1_455 S
C1054 C1055 1.385 . S
C1054 C1056 1.478 . S
C1055 H1049 0.930 . S
C1055 C1051 1.400 . S
C1055 C1054 1.385 . S
C1056 C1054 1.478 . S
C1056 C1058 1.381 . S
C1056 C1062 1.383 1_455 S
C1057 C1053 1.495 . S
C1057 H1063 0.959 . S
C1057 H1064 0.961 . S
C1057 H1065 0.960 . S
C1058 C1056 1.381 . S
C1058 C1059 1.394 . S
C1058 H1066 0.930 . S
C1059 C1058 1.394 . S
C1059 C1060 1.383 . S
C1059 H1067 0.929 . S
C1060 C1059 1.383 . S
C1060 C1061 1.379 1_455 S
C1061 H1045 0.930 . S
C1061 C1060 1.379 1_655 S
C1061 C1062 1.379 . S
C1062 H1046 0.931 . S
C1062 C1056 1.383 1_655 S
C1062 C1061 1.379 . S
H1063 C1057 0.959 . S
H1064 C1057 0.961 . S
H1065 C1057 0.960 . S
H1066 C1058 0.930 . S
H1067 C1059 0.929 . S
C429 C2 1.031 . S
C448 C391 1.022 . S
C465 C21 0.957 . S
C484 C241 0.875 . S
C501 C42 1.036 . S
C520 C301 1.027 . S
C537 C1 0.958 . S
C556 C361 0.965 . S
C592 C271 1.045 . S
C573 C22 1.035 . S
C628 C331 0.978 . S
C609 C41 0.959 . S
C645 C38 1.815 . S
C664 C121 1.695 . S
C681 C59 1.900 . S
C700 C211 1.887 . S
C717 C18 1.815 . S
C736 C91 1.831 . S
C772 C151 1.898 . S
C753 C39 1.902 . S
C808 C181 1.684 . S
C789 C58 1.819 . S
C825 C19 1.901 . S
C844 C61 1.778 . S
C880 C200 1.546 . S
C861 C9 1.497 . S
C897 C29 1.501 . S
C916 C80 1.518 . S
C933 C49 1.507 . S
C952 C140 1.537 . S
C988 C320 1.354 . S
C969 C28 1.355 . S
C1024 C380 1.360 . S
C1005 C48 1.354 . S
C1041 C8 1.353 . S
C1060 C260 1.357 . S
