# Generated by pormake.
# Topology hwx, (6,3)-cn, num edge types: 1
# Building blocks:
#     Node 0, Type 0, BuildingBlock: IZENUY_clean_sbu_0, # of connection points: 6
#     Node 1, Type 0, BuildingBlock: IZENUY_clean_sbu_0, # of connection points: 6
#     Node 2, Type 0, BuildingBlock: IZENUY_clean_sbu_0, # of connection points: 6
#     Node 3, Type 0, BuildingBlock: IZENUY_clean_sbu_0, # of connection points: 6
#     Node 4, Type 1, BuildingBlock: ESEHIV_clean_linker_0, # of connection points: 3
#     Node 5, Type 1, BuildingBlock: ESEHIV_clean_linker_0, # of connection points: 3
#     Node 6, Type 1, BuildingBlock: ESEHIV_clean_linker_0, # of connection points: 3
#     Node 7, Type 1, BuildingBlock: ESEHIV_clean_linker_0, # of connection points: 3
#     Node 8, Type 1, BuildingBlock: ESEHIV_clean_linker_0, # of connection points: 3
#     Node 9, Type 1, BuildingBlock: ESEHIV_clean_linker_0, # of connection points: 3
#     Node 10, Type 1, BuildingBlock: ESEHIV_clean_linker_0, # of connection points: 3
#     Node 11, Type 1, BuildingBlock: ESEHIV_clean_linker_0, # of connection points: 3
#     Edge 12, Type (0, 1), BuildingBlock: TEMPAE_clean_linker_10, # of connection points: 2
#     Edge 13, Type (0, 1), BuildingBlock: TEMPAE_clean_linker_10, # of connection points: 2
#     Edge 14, Type (0, 1), BuildingBlock: TEMPAE_clean_linker_10, # of connection points: 2
#     Edge 15, Type (0, 1), BuildingBlock: TEMPAE_clean_linker_10, # of connection points: 2
#     Edge 16, Type (0, 1), BuildingBlock: TEMPAE_clean_linker_10, # of connection points: 2
#     Edge 17, Type (0, 1), BuildingBlock: TEMPAE_clean_linker_10, # of connection points: 2
#     Edge 18, Type (0, 1), BuildingBlock: TEMPAE_clean_linker_10, # of connection points: 2
#     Edge 19, Type (0, 1), BuildingBlock: TEMPAE_clean_linker_10, # of connection points: 2
#     Edge 20, Type (0, 1), BuildingBlock: TEMPAE_clean_linker_10, # of connection points: 2
#     Edge 21, Type (0, 1), BuildingBlock: TEMPAE_clean_linker_10, # of connection points: 2
#     Edge 22, Type (0, 1), BuildingBlock: TEMPAE_clean_linker_10, # of connection points: 2
#     Edge 23, Type (0, 1), BuildingBlock: TEMPAE_clean_linker_10, # of connection points: 2
#     Edge 24, Type (0, 1), BuildingBlock: TEMPAE_clean_linker_10, # of connection points: 2
#     Edge 25, Type (0, 1), BuildingBlock: TEMPAE_clean_linker_10, # of connection points: 2
#     Edge 26, Type (0, 1), BuildingBlock: TEMPAE_clean_linker_10, # of connection points: 2
#     Edge 27, Type (0, 1), BuildingBlock: TEMPAE_clean_linker_10, # of connection points: 2
#     Edge 28, Type (0, 1), BuildingBlock: TEMPAE_clean_linker_10, # of connection points: 2
#     Edge 29, Type (0, 1), BuildingBlock: TEMPAE_clean_linker_10, # of connection points: 2
#     Edge 30, Type (0, 1), BuildingBlock: TEMPAE_clean_linker_10, # of connection points: 2
#     Edge 31, Type (0, 1), BuildingBlock: TEMPAE_clean_linker_10, # of connection points: 2
#     Edge 32, Type (0, 1), BuildingBlock: TEMPAE_clean_linker_10, # of connection points: 2
#     Edge 33, Type (0, 1), BuildingBlock: TEMPAE_clean_linker_10, # of connection points: 2
#     Edge 34, Type (0, 1), BuildingBlock: TEMPAE_clean_linker_10, # of connection points: 2
#     Edge 35, Type (0, 1), BuildingBlock: TEMPAE_clean_linker_10, # of connection points: 2
# Relax obj value: 0.051
# Max RMSD: 0.076
# Mean RMSD: 0.067
data_MOF--net-hwx--node1-IZENUY_clean_sbu_0--node2-ESEHIV_clean_linker_0--edge1-TEMPAE_clean_linker_10
_symmetry_space_group_name_H-M    P1
_symmetry_Int_Tables_number       1
_symmetry_cell_setting            triclinic
loop_
_symmetry_equiv_pos_as_xyz
'x, y, z'
_cell_length_a     45.226145
_cell_length_b     45.204509
_cell_length_c     21.931497
_cell_angle_alpha  90.018566
_cell_angle_beta   90.021597
_cell_angle_gamma 89.992975
loop_
_atom_site_label
_atom_site_type_symbol
_atom_site_fract_x
_atom_site_fract_y
_atom_site_fract_z
_atom_type_partial_charge
Fe0 Fe 0.24342 0.20704 0.06072 0.0
Fe1 Fe 0.24618 0.20626 0.9212 0.0
O2 O 0.23477 0.18985 0.9906 0.0
Fe3 Fe 0.21462 0.15615 0.98971 0.0
O4 O 0.19324 0.16411 0.05916 0.0
O5 O 0.20471 0.2101 0.08074 0.0
O6 O 0.24051 0.24488 0.03145 0.0
C7 C 0.22768 0.25499 0.98459 0.0
C8 C 0.25266 0.1461 0.08402 0.0
O9 O 0.22537 0.23973 0.93666 0.0
C10 C 0.25698 0.14823 0.89619 0.0
O11 O 0.28274 0.20525 0.04551 0.0
O12 O 0.2802 0.22247 0.95212 0.0
O13 O 0.24308 0.1373 0.0331 0.0
O14 O 0.24782 0.17222 0.10245 0.0
C15 C 0.18855 0.1851 0.89503 0.0
O16 O 0.26783 0.1738 0.90113 0.0
O17 O 0.23231 0.14196 0.92015 0.0
C18 C 0.29507 0.2162 0.99925 0.0
O19 O 0.21405 0.1932 0.87781 0.0
O20 O 0.18489 0.17291 0.94624 0.0
C21 C 0.1873 0.18848 0.08482 0.0
Fe22 Fe 0.25943 0.7058 0.56235 0.0
Fe23 Fe 0.28603 0.65358 0.49221 0.0
O24 O 0.26802 0.68837 0.49244 0.0
Fe25 Fe 0.25872 0.70589 0.423 0.0
O26 O 0.28143 0.7379 0.44134 0.0
O27 O 0.26361 0.74359 0.53354 0.0
O28 O 0.2981 0.70721 0.58354 0.0
C29 C 0.31436 0.68467 0.58821 0.0
C30 C 0.20921 0.71763 0.49848 0.0
O31 O 0.30736 0.66059 0.56229 0.0
C32 C 0.24466 0.64869 0.39504 0.0
O33 O 0.25376 0.67128 0.60442 0.0
O34 O 0.25596 0.63652 0.53459 0.0
O35 O 0.2252 0.72366 0.45273 0.0
O36 O 0.22019 0.7055 0.54509 0.0
C37 C 0.31506 0.68119 0.39889 0.0
O38 O 0.26798 0.64043 0.42226 0.0
O39 O 0.23558 0.67501 0.3998 0.0
C40 C 0.24762 0.64543 0.5863 0.0
O41 O 0.31729 0.66826 0.4497 0.0
O42 O 0.29044 0.69128 0.38101 0.0
C43 C 0.27812 0.75344 0.48864 0.0
Fe44 Fe 0.75837 0.79929 0.93227 0.0
Fe45 Fe 0.75657 0.80021 0.07157 0.0
O46 O 0.76729 0.81684 0.00203 0.0
Fe47 Fe 0.78678 0.85082 0.00245 0.0
O48 O 0.75816 0.86896 0.95768 0.0
O49 O 0.75415 0.83373 0.8891 0.0
O50 O 0.71909 0.80119 0.94854 0.0
C51 C 0.70742 0.78957 0.99489 0.0
C52 C 0.81432 0.81807 0.90717 0.0
O53 O 0.72295 0.78307 0.04096 0.0
C54 C 0.81338 0.8228 0.09834 0.0
O55 O 0.76131 0.76147 0.96262 0.0
O56 O 0.7785 0.76756 0.05542 0.0
O57 O 0.80887 0.84231 0.93412 0.0
O58 O 0.79687 0.79641 0.9113 0.0
C59 C 0.74402 0.85794 0.09656 0.0
O60 O 0.78809 0.81414 0.11517 0.0
O61 O 0.8168 0.83516 0.04726 0.0
C62 C 0.77509 0.75165 0.00871 0.0
O63 O 0.73415 0.83191 0.09203 0.0
O64 O 0.76808 0.86521 0.07084 0.0
C65 C 0.74959 0.86008 0.9061 0.0
Fe66 Fe 0.71676 0.35309 0.51706 0.0
Fe67 Fe 0.74344 0.29879 0.57978 0.0
O68 O 0.73345 0.31768 0.5123 0.0
Fe69 Fe 0.74018 0.30104 0.44072 0.0
O70 O 0.76318 0.33165 0.4165 0.0
O71 O 0.73319 0.36709 0.44611 0.0
O72 O 0.74856 0.3682 0.557 0.0
C73 C 0.75749 0.35832 0.60747 0.0
C74 C 0.6839 0.32742 0.42696 0.0
O75 O 0.75074 0.3324 0.62424 0.0
C76 C 0.72228 0.25259 0.50466 0.0
O77 O 0.69706 0.3451 0.58869 0.0
O78 O 0.70524 0.29771 0.60429 0.0
O79 O 0.70728 0.31671 0.40429 0.0
O80 O 0.68393 0.34054 0.47758 0.0
C81 C 0.79173 0.2879 0.50911 0.0
O82 O 0.73804 0.26151 0.54861 0.0
O83 O 0.71753 0.26919 0.45962 0.0
C84 C 0.68947 0.32047 0.61157 0.0
O85 O 0.78212 0.29889 0.55821 0.0
O86 O 0.77437 0.28249 0.46505 0.0
C87 C 0.75514 0.35835 0.41507 0.0
H88 H 0.18375 0.55826 0.97668 0.0
H89 H 0.18219 0.47206 0.89417 0.0
H90 H 0.18767 0.48024 0.0891 0.0
C91 C 0.18308 0.53439 0.98133 0.0
C92 C 0.18503 0.52153 0.03956 0.0
C93 C 0.18226 0.5167 0.92877 0.0
C94 C 0.18208 0.48584 0.93467 0.0
C95 C 0.18362 0.47266 0.99241 0.0
C96 C 0.18517 0.49051 0.04474 0.0
H97 H 0.91928 0.82316 0.499 0.0
H98 H 0.99845 0.79871 0.40349 0.0
H99 H 0.99795 0.80055 0.59934 0.0
C100 C 0.94251 0.81733 0.49999 0.0
C101 C 0.95681 0.81312 0.55633 0.0
C102 C 0.95738 0.81251 0.44463 0.0
C103 C 0.98679 0.80268 0.44589 0.0
C104 C 0.00139 0.79812 0.5016 0.0
C105 C 0.98651 0.80394 0.55649 0.0
H106 H 0.81837 0.44758 0.99814 0.0
H107 H 0.81552 0.52571 0.11008 0.0
H108 H 0.81931 0.53345 0.91459 0.0
C109 C 0.81909 0.47147 0.00255 0.0
C110 C 0.81983 0.48901 0.94987 0.0
C111 C 0.81725 0.48448 0.06058 0.0
C112 C 0.81747 0.51547 0.06556 0.0
C113 C 0.81859 0.53333 0.01314 0.0
C114 C 0.81975 0.51991 0.95539 0.0
H115 H 0.08318 0.18651 0.49762 0.0
H116 H 0.00275 0.20822 0.59113 0.0
H117 H 0.00857 0.22009 0.39703 0.0
C118 C 0.06055 0.19432 0.49618 0.0
C119 C 0.048 0.20293 0.44023 0.0
C120 C 0.04458 0.19659 0.55082 0.0
C121 C 0.0152 0.20637 0.54906 0.0
C122 C 0.00201 0.21452 0.49363 0.0
C123 C 0.01858 0.21306 0.4395 0.0
H124 H 0.68628 0.94821 0.51468 0.0
H125 H 0.68418 0.03427 0.59736 0.0
H126 H 0.68414 0.02606 0.4018 0.0
C127 C 0.68479 0.97205 0.51004 0.0
C128 C 0.68496 0.98491 0.45173 0.0
C129 C 0.68458 0.98972 0.5626 0.0
C130 C 0.68343 0.02059 0.55676 0.0
C131 C 0.68281 0.03386 0.49882 0.0
C132 C 0.68353 0.01587 0.44652 0.0
H133 H 0.58326 0.32468 0.01933 0.0
H134 H 0.50774 0.29166 0.11681 0.0
H135 H 0.51061 0.28615 0.92124 0.0
C136 C 0.56184 0.31396 0.01934 0.0
C137 C 0.54926 0.30516 0.96374 0.0
C138 C 0.54762 0.30839 0.07504 0.0
C139 C 0.519 0.29639 0.07431 0.0
C140 C 0.50529 0.28897 0.01885 0.0
C141 C 0.52073 0.29293 0.96381 0.0
H142 H 0.30876 0.05776 0.49426 0.0
H143 H 0.31275 0.97716 0.39211 0.0
H144 H 0.32151 0.97472 0.58744 0.0
C145 C 0.31225 0.03404 0.49343 0.0
C146 C 0.31634 0.01838 0.54823 0.0
C147 C 0.31135 0.01935 0.43723 0.0
C148 C 0.31429 0.98858 0.4355 0.0
C149 C 0.31741 0.97229 0.48959 0.0
C150 C 0.31915 0.98733 0.54573 0.0
H151 H 0.4202 0.67829 0.00586 0.0
H152 H 0.49099 0.71465 0.89825 0.0
H153 H 0.5 0.70811 0.09274 0.0
C154 C 0.44222 0.68757 0.0026 0.0
C155 C 0.45861 0.69234 0.05617 0.0
C156 C 0.45352 0.6956 0.9452 0.0
C157 C 0.48212 0.70764 0.94181 0.0
C158 C 0.49892 0.71215 0.9948 0.0
C159 C 0.48702 0.7046 0.05179 0.0
C160 C 0.15428 0.16518 0.16203 0.0
C161 C 0.16261 0.19024 0.1286 0.0
C162 C 0.13355 0.16729 0.20936 0.0
C163 C 0.12025 0.19496 0.2223 0.0
C164 C 0.12732 0.21995 0.18623 0.0
C165 C 0.1488 0.21739 0.14036 0.0
C166 C 0.12719 0.1403 0.24776 0.0
C167 C 0.11301 0.24963 0.19751 0.0
C168 C 0.05335 0.19391 0.32729 0.0
C169 C 0.06603 0.20204 0.38333 0.0
C170 C 0.0705 0.19234 0.27397 0.0
C171 C 0.10119 0.19829 0.27707 0.0
C172 C 0.11407 0.20672 0.33323 0.0
C173 C 0.09628 0.209 0.38527 0.0
C174 C 0.05589 0.18399 0.21451 0.0
C175 C 0.14682 0.21285 0.33869 0.0
H176 H 0.16513 0.1442 0.15331 0.0
H177 H 0.15508 0.23674 0.11415 0.0
H178 H 0.13525 0.14407 0.29494 0.0
H179 H 0.10304 0.13632 0.2505 0.0
H180 H 0.13801 0.12009 0.22951 0.0
H181 H 0.11821 0.26582 0.16095 0.0
H182 H 0.08864 0.24717 0.20072 0.0
H183 H 0.12083 0.25877 0.24158 0.0
H184 H 0.0301 0.18824 0.32516 0.0
H185 H 0.10623 0.21621 0.42769 0.0
H186 H 0.06456 0.1624 0.19847 0.0
H187 H 0.06119 0.20061 0.17892 0.0
H188 H 0.03147 0.18231 0.21882 0.0
H189 H 0.1596 0.19317 0.32383 0.0
H190 H 0.15347 0.2185 0.38605 0.0
H191 H 0.15311 0.23144 0.30836 0.0
C192 C 0.21721 0.60065 0.6114 0.0
C193 C 0.23492 0.62435 0.63046 0.0
C194 C 0.20506 0.5809 0.65417 0.0
C195 C 0.21155 0.58461 0.71692 0.0
C196 C 0.2297 0.60837 0.73606 0.0
C197 C 0.24084 0.62812 0.6927 0.0
C198 C 0.18523 0.55622 0.63241 0.0
C199 C 0.23778 0.61275 0.80235 0.0
C200 C 0.16801 0.55413 0.85005 0.0
C201 C 0.18607 0.53057 0.86823 0.0
C202 C 0.17459 0.57045 0.79733 0.0
C203 C 0.20027 0.56347 0.76326 0.0
C204 C 0.21762 0.53864 0.77969 0.0
C205 C 0.21013 0.52233 0.83177 0.0
C206 C 0.15516 0.59633 0.78043 0.0
C207 C 0.2455 0.5308 0.74544 0.0
H208 H 0.21251 0.59786 0.56326 0.0
H209 H 0.25481 0.64624 0.70754 0.0
H210 H 0.19509 0.5345 0.64423 0.0
H211 H 0.16352 0.55754 0.65583 0.0
H212 H 0.1815 0.55699 0.58236 0.0
H213 H 0.25272 0.63196 0.80934 0.0
H214 H 0.21751 0.61625 0.82986 0.0
H215 H 0.24887 0.59263 0.82019 0.0
H216 H 0.14931 0.56036 0.87819 0.0
H217 H 0.22429 0.50428 0.84625 0.0
H218 H 0.15093 0.59664 0.7306 0.0
H219 H 0.16656 0.61728 0.79235 0.0
H220 H 0.13364 0.59575 0.8048 0.0
H221 H 0.24142 0.5305 0.6956 0.0
H222 H 0.25447 0.50894 0.75936 0.0
H223 H 0.2626 0.54788 0.75441 0.0
C224 C 0.83396 0.80608 0.19792 0.0
C225 C 0.83815 0.821 0.14246 0.0
C226 C 0.85614 0.8053 0.24235 0.0
C227 C 0.88337 0.8197 0.23122 0.0
C228 C 0.8882 0.83409 0.17473 0.0
C229 C 0.86548 0.83458 0.13088 0.0
C230 C 0.8501 0.78962 0.30193 0.0
C231 C 0.91706 0.8495 0.16125 0.0
C232 C 0.92254 0.84064 0.37745 0.0
C233 C 0.94148 0.81641 0.38588 0.0
C234 C 0.90477 0.84293 0.32528 0.0
C235 C 0.90602 0.82048 0.28033 0.0
C236 C 0.92636 0.79688 0.28682 0.0
C237 C 0.94381 0.79508 0.33964 0.0
C238 C 0.88341 0.86849 0.32004 0.0
C239 C 0.92841 0.77257 0.23979 0.0
H240 H 0.81307 0.79524 0.20718 0.0
H241 H 0.86896 0.84604 0.08807 0.0
H242 H 0.86728 0.77259 0.31045 0.0
H243 H 0.8511 0.80568 0.34014 0.0
H244 H 0.82809 0.77872 0.30258 0.0
H245 H 0.91809 0.85789 0.11368 0.0
H246 H 0.91998 0.86843 0.19288 0.0
H247 H 0.93587 0.83418 0.16887 0.0
H248 H 0.92108 0.85748 0.41252 0.0
H249 H 0.95827 0.7762 0.34596 0.0
H250 H 0.86044 0.86022 0.3251 0.0
H251 H 0.88511 0.87893 0.27442 0.0
H252 H 0.88737 0.88565 0.3554 0.0
H253 H 0.90827 0.7586 0.24208 0.0
H254 H 0.94802 0.75821 0.24713 0.0
H255 H 0.92953 0.78203 0.19318 0.0
C256 C 0.76617 0.37393 0.71466 0.0
C257 C 0.77088 0.37871 0.65228 0.0
C258 C 0.77685 0.39382 0.75832 0.0
C259 C 0.79338 0.41877 0.73931 0.0
C260 C 0.79906 0.42326 0.67648 0.0
C261 C 0.78733 0.40336 0.63349 0.0
C262 C 0.7697 0.38854 0.82476 0.0
C263 C 0.81726 0.44917 0.65476 0.0
C264 C 0.79156 0.48129 0.85398 0.0
C265 C 0.81641 0.47477 0.88962 0.0
C266 C 0.78466 0.46424 0.80249 0.0
C267 C 0.80346 0.44052 0.78573 0.0
C268 C 0.8298 0.43534 0.819 0.0
C269 C 0.83575 0.45227 0.87126 0.0
C270 C 0.75604 0.47012 0.76913 0.0
C271 C 0.85077 0.41077 0.80164 0.0
H272 H 0.75321 0.35506 0.72939 0.0
H273 H 0.79113 0.40698 0.58526 0.0
H274 H 0.79039 0.38651 0.85158 0.0
H275 H 0.75724 0.40767 0.84335 0.0
H276 H 0.75633 0.36821 0.83179 0.0
H277 H 0.82147 0.44832 0.60489 0.0
H278 H 0.80568 0.47016 0.66547 0.0
H279 H 0.83879 0.44965 0.67903 0.0
H280 H 0.77646 0.4985 0.86872 0.0
H281 H 0.85501 0.44735 0.8989 0.0
H282 H 0.74038 0.4517 0.77785 0.0
H283 H 0.75983 0.47108 0.71923 0.0
H284 H 0.74549 0.49113 0.7839 0.0
H285 H 0.84085 0.38912 0.81384 0.0
H286 H 0.87237 0.41279 0.82545 0.0
H287 H 0.85469 0.4107 0.7517 0.0
C288 C 0.64975 0.35295 0.35643 0.0
C289 C 0.65721 0.32761 0.38949 0.0
C290 C 0.62791 0.35177 0.31109 0.0
C291 C 0.6132 0.32466 0.29955 0.0
C292 C 0.61918 0.29967 0.33651 0.0
C293 C 0.64155 0.30134 0.3806 0.0
C294 C 0.62261 0.37873 0.27199 0.0
C295 C 0.60363 0.27053 0.32637 0.0
C296 C 0.54951 0.32311 0.18608 0.0
C297 C 0.5639 0.31304 0.13327 0.0
C298 C 0.56512 0.32686 0.24103 0.0
C299 C 0.59584 0.32095 0.24265 0.0
C300 C 0.61046 0.311 0.18948 0.0
C301 C 0.59426 0.30669 0.13598 0.0
C302 C 0.54879 0.33693 0.29733 0.0
C303 C 0.64331 0.30472 0.18901 0.0
H304 H 0.6623 0.37312 0.36337 0.0
H305 H 0.64763 0.2818 0.40645 0.0
H306 H 0.63271 0.37519 0.22645 0.0
H307 H 0.59861 0.38242 0.26496 0.0
H308 H 0.63242 0.399 0.29233 0.0
H309 H 0.60705 0.25503 0.36505 0.0
H310 H 0.57955 0.27401 0.31989 0.0
H311 H 0.61229 0.25996 0.28435 0.0
H312 H 0.52611 0.32821 0.18447 0.0
H313 H 0.6055 0.29797 0.09621 0.0
H314 H 0.55832 0.35799 0.31428 0.0
H315 H 0.55144 0.32032 0.33417 0.0
H316 H 0.52481 0.34025 0.28869 0.0
H317 H 0.65572 0.32445 0.20488 0.0
H318 H 0.65152 0.29858 0.14296 0.0
H319 H 0.64842 0.28634 0.22081 0.0
C320 C 0.25219 0.12168 0.79825 0.0
C321 C 0.26908 0.12811 0.84997 0.0
C322 C 0.26306 0.10285 0.75273 0.0
C323 C 0.29113 0.08939 0.76021 0.0
C324 C 0.30807 0.09546 0.81317 0.0
C325 C 0.29701 0.11525 0.85714 0.0
C326 C 0.2446 0.09767 0.69628 0.0
C327 C 0.33763 0.08082 0.82361 0.0
C328 C 0.29951 0.02245 0.65744 0.0
C329 C 0.31471 0.03457 0.60751 0.0
C330 C 0.29372 0.03942 0.70979 0.0
C331 C 0.30259 0.06944 0.71163 0.0
C332 C 0.31945 0.08127 0.66309 0.0
C333 C 0.32575 0.06355 0.61223 0.0
C334 C 0.27648 0.0257 0.76149 0.0
C335 C 0.32896 0.1133 0.66269 0.0
H336 H 0.23063 0.13189 0.79295 0.0
H337 H 0.30985 0.12024 0.89761 0.0
H338 H 0.25743 0.10373 0.65501 0.0
H339 H 0.2389 0.07388 0.69239 0.0
H340 H 0.22376 0.11069 0.69665 0.0
H341 H 0.34765 0.08727 0.86792 0.0
H342 H 0.335 0.05641 0.82263 0.0
H343 H 0.35317 0.08676 0.7865 0.0
H344 H 0.29069 1.00022 0.65459 0.0
H345 H 0.3383 0.07289 0.57483 0.0
H346 H 0.25349 0.03424 0.76098 0.0
H347 H 0.28638 0.03178 0.80608 0.0
H348 H 0.27566 0.0012 0.75789 0.0
H349 H 0.30916 0.12766 0.65847 0.0
H350 H 0.34418 0.11836 0.62433 0.0
H351 H 0.34008 0.11917 0.70609 0.0
C352 C 0.33699 0.69594 0.29932 0.0
C353 C 0.34039 0.68201 0.35607 0.0
C354 C 0.35978 0.69599 0.25629 0.0
C355 C 0.38689 0.68191 0.27023 0.0
C356 C 0.39088 0.66838 0.32788 0.0
C357 C 0.36751 0.66854 0.37024 0.0
C358 C 0.35458 0.71072 0.19532 0.0
C359 C 0.41961 0.6534 0.34435 0.0
C360 C 0.42735 0.66143 0.12573 0.0
C361 C 0.44488 0.68663 0.11656 0.0
C362 C 0.41004 0.65838 0.17837 0.0
C363 C 0.41041 0.68101 0.22299 0.0
C364 C 0.42997 0.70524 0.21643 0.0
C365 C 0.44691 0.70783 0.16312 0.0
C366 C 0.38956 0.63213 0.18372 0.0
C367 C 0.43121 0.7297 0.26324 0.0
H368 H 0.31625 0.70661 0.28793 0.0
H369 H 0.37038 0.65782 0.41405 0.0
H370 H 0.37146 0.72809 0.18742 0.0
H371 H 0.35678 0.69421 0.15813 0.0
H372 H 0.33233 0.72102 0.19207 0.0
H373 H 0.41985 0.64554 0.39233 0.0
H374 H 0.42331 0.63418 0.31384 0.0
H375 H 0.4384 0.66883 0.33752 0.0
H376 H 0.42622 0.64465 0.09048 0.0
H377 H 0.46032 0.72743 0.15636 0.0
H378 H 0.36645 0.63945 0.17573 0.0
H379 H 0.39057 0.62255 0.23022 0.0
H380 H 0.39495 0.61455 0.1501 0.0
H381 H 0.41116 0.74371 0.25903 0.0
H382 H 0.45095 0.74401 0.25705 0.0
H383 H 0.4315 0.72049 0.3101 0.0
C384 C 0.72138 0.90617 0.87983 0.0
C385 C 0.73778 0.88144 0.86129 0.0
C386 C 0.70992 0.92613 0.83662 0.0
C387 C 0.71577 0.92158 0.77384 0.0
C388 C 0.73271 0.89684 0.75521 0.0
C389 C 0.74315 0.87691 0.79905 0.0
C390 C 0.69136 0.95187 0.85796 0.0
C391 C 0.74009 0.89152 0.68889 0.0
C392 C 0.67111 0.95269 0.64252 0.0
C393 C 0.6894 0.97577 0.62278 0.0
C394 C 0.67822 0.93627 0.69484 0.0
C395 C 0.70467 0.94261 0.72693 0.0
C396 C 0.72244 0.96684 0.70871 0.0
C397 C 0.71441 0.98333 0.6571 0.0
C398 C 0.65833 0.91106 0.71362 0.0
C399 C 0.75112 0.97396 0.74078 0.0
H400 H 0.71708 0.90959 0.92795 0.0
H401 H 0.7561 0.85797 0.78458 0.0
H402 H 0.70182 0.97302 0.84418 0.0
H403 H 0.66928 0.95102 0.83592 0.0
H404 H 0.68834 0.95196 0.90823 0.0
H405 H 0.75433 0.87175 0.6823 0.0
H406 H 0.71947 0.8884 0.66223 0.0
H407 H 0.75166 0.91107 0.66976 0.0
H408 H 0.65172 0.94696 0.61593 0.0
H409 H 0.72871 0.00099 0.64133 0.0
H410 H 0.65458 0.9114 0.76361 0.0
H411 H 0.6691 0.8897 0.7023 0.0
H412 H 0.63659 0.91191 0.69009 0.0
H413 H 0.7478 0.97495 0.79082 0.0
H414 H 0.76068 0.99531 0.72528 0.0
H415 H 0.76741 0.95614 0.73162 0.0
C416 C 0.86326 0.83531 0.86739 0.0
C417 C 0.83856 0.81673 0.86212 0.0
C418 C 0.88533 0.83553 0.82231 0.0
C419 C 0.8821 0.81736 0.7701 0.0
C420 C 0.85737 0.79832 0.76503 0.0
C421 C 0.83612 0.79797 0.81146 0.0
C422 C 0.91184 0.85546 0.83006 0.0
C423 C 0.85279 0.77905 0.70952 0.0
C424 C 0.91792 0.83819 0.61991 0.0
C425 C 0.94002 0.81652 0.61445 0.0
C426 C 0.89949 0.83933 0.67128 0.0
C427 C 0.9038 0.81889 0.71932 0.0
C428 C 0.92722 0.7982 0.716 0.0
C429 C 0.94477 0.79697 0.6633 0.0
C430 C 0.87448 0.86147 0.67271 0.0
C431 C 0.93293 0.77647 0.76695 0.0
H432 H 0.86527 0.84971 0.90671 0.0
H433 H 0.81693 0.78376 0.80686 0.0
H434 H 0.93254 0.84259 0.82421 0.0
H435 H 0.91166 0.87286 0.79444 0.0
H436 H 0.91224 0.86633 0.87549 0.0
H437 H 0.83243 0.76539 0.71282 0.0
H438 H 0.85121 0.79309 0.66813 0.0
H439 H 0.87198 0.76408 0.70324 0.0
H440 H 0.91451 0.8539 0.58329 0.0
H441 H 0.96146 0.77988 0.65963 0.0
H442 H 0.87538 0.87473 0.7152 0.0
H443 H 0.853 0.84959 0.67249 0.0
H444 H 0.87501 0.87678 0.6331 0.0
H445 H 0.933 0.78798 0.81166 0.0
H446 H 0.95433 0.76472 0.76122 0.0
H447 H 0.91497 0.75978 0.76817 0.0
C448 C 0.75675 0.40683 0.36004 0.0
C449 C 0.7688 0.37863 0.37001 0.0
C450 C 0.76722 0.425 0.31291 0.0
C451 C 0.79042 0.41481 0.27502 0.0
C452 C 0.80373 0.38706 0.28682 0.0
C453 C 0.79273 0.36926 0.33411 0.0
C454 C 0.75241 0.45445 0.30176 0.0
C455 C 0.82867 0.37554 0.2477 0.0
C456 C 0.7903 0.44349 0.11271 0.0
C457 C 0.81182 0.46579 0.11508 0.0
C458 C 0.78352 0.42651 0.16423 0.0
C459 C 0.79866 0.43188 0.21963 0.0
C460 C 0.82075 0.45405 0.22222 0.0
C461 C 0.82698 0.47089 0.16989 0.0
C462 C 0.75963 0.40324 0.15967 0.0
C463 C 0.83749 0.46022 0.2804 0.0
H464 H 0.73838 0.41438 0.38768 0.0
H465 H 0.8024 0.34764 0.34178 0.0
H466 H 0.76917 0.47228 0.29828 0.0
H467 H 0.74031 0.45374 0.25777 0.0
H468 H 0.73651 0.46028 0.33844 0.0
H469 H 0.83875 0.35514 0.26684 0.0
H470 H 0.82022 0.37049 0.20135 0.0
H471 H 0.84615 0.39259 0.24272 0.0
H472 H 0.77812 0.43984 0.07079 0.0
H473 H 0.84372 0.48803 0.17176 0.0
H474 H 0.74129 0.40869 0.19136 0.0
H475 H 0.76852 0.38137 0.17344 0.0
H476 H 0.75047 0.40135 0.11282 0.0
H477 H 0.82195 0.46787 0.31622 0.0
H478 H 0.85488 0.4773 0.27416 0.0
H479 H 0.848 0.43962 0.29734 0.0
C480 C 0.1677 0.20141 0.7954 0.0
C481 C 0.16377 0.18663 0.85103 0.0
C482 C 0.1454 0.20178 0.75121 0.0
C483 C 0.1184 0.187 0.76279 0.0
C484 C 0.11392 0.17259 0.81931 0.0
C485 C 0.13669 0.1726 0.86294 0.0
C486 C 0.15097 0.21758 0.69158 0.0
C487 C 0.08536 0.15668 0.83312 0.0
C488 C 0.05717 0.21192 0.65719 0.0
C489 C 0.05961 0.19118 0.60987 0.0
C490 C 0.07482 0.20972 0.70956 0.0
C491 C 0.09541 0.18626 0.7145 0.0
C492 C 0.09655 0.16418 0.66877 0.0
C493 C 0.07862 0.16692 0.61692 0.0
C494 C 0.07293 0.23367 0.7574 0.0
C495 C 0.11808 0.13872 0.67263 0.0
H496 H 0.18844 0.21251 0.78593 0.0
H497 H 0.13346 0.16116 0.90584 0.0
H498 H 0.14988 0.20157 0.65328 0.0
H499 H 0.1336 0.23448 0.68361 0.0
H500 H 0.17289 0.22866 0.69047 0.0
H501 H 0.08478 0.14786 0.88038 0.0
H502 H 0.06631 0.17182 0.82668 0.0
H503 H 0.08243 0.138 0.80085 0.0
H504 H 0.04268 0.23084 0.65179 0.0
H505 H 0.08019 0.15059 0.58084 0.0
H506 H 0.09288 0.24791 0.75465 0.0
H507 H 0.07238 0.22391 0.80378 0.0
H508 H 0.05309 0.24785 0.75126 0.0
H509 H 0.14093 0.14711 0.66629 0.0
H510 H 0.11372 0.12162 0.63737 0.0
H511 H 0.11706 0.12819 0.71826 0.0
C512 C 0.24316 0.60042 0.33929 0.0
C513 C 0.2309 0.62851 0.34971 0.0
C514 C 0.23292 0.58232 0.29182 0.0
C515 C 0.20967 0.59239 0.25396 0.0
C516 C 0.19608 0.61999 0.26621 0.0
C517 C 0.20689 0.63777 0.31387 0.0
C518 C 0.24808 0.55307 0.28028 0.0
C519 C 0.17101 0.63133 0.22724 0.0
C520 C 0.21086 0.56336 0.09174 0.0
C521 C 0.18995 0.54048 0.09404 0.0
C522 C 0.21693 0.58078 0.1431 0.0
C523 C 0.20168 0.57528 0.19831 0.0
C524 C 0.18014 0.55256 0.20076 0.0
C525 C 0.17464 0.53529 0.14861 0.0
C526 C 0.2403 0.60457 0.13868 0.0
C527 C 0.16329 0.54622 0.25868 0.0
H528 H 0.26155 0.59288 0.36692 0.0
H529 H 0.19709 0.65931 0.3218 0.0
H530 H 0.23154 0.53503 0.27684 0.0
H531 H 0.26005 0.55399 0.23616 0.0
H532 H 0.26416 0.54737 0.31674 0.0
H533 H 0.16064 0.65149 0.24681 0.0
H534 H 0.17943 0.63674 0.18106 0.0
H535 H 0.15378 0.61406 0.22179 0.0
H536 H 0.22314 0.56715 0.05003 0.0
H537 H 0.15834 0.51773 0.15045 0.0
H538 H 0.25877 0.59946 0.17028 0.0
H539 H 0.23096 0.62623 0.15264 0.0
H540 H 0.24938 0.60672 0.09183 0.0
H541 H 0.17878 0.53861 0.29462 0.0
H542 H 0.14604 0.52901 0.25208 0.0
H543 H 0.15259 0.56671 0.27566 0.0
C544 C 0.34608 0.65917 0.66496 0.0
C545 C 0.33863 0.68502 0.63319 0.0
C546 C 0.3665 0.65988 0.71308 0.0
C547 C 0.38027 0.68697 0.72871 0.0
C548 C 0.37401 0.7128 0.69457 0.0
C549 C 0.35294 0.7116 0.64766 0.0
C550 C 0.37211 0.63201 0.74924 0.0
C551 C 0.38875 0.74195 0.70899 0.0
C552 C 0.40442 0.69891 0.89233 0.0
C553 C 0.43485 0.69286 0.88947 0.0
C554 C 0.38643 0.69658 0.84055 0.0
C555 C 0.39924 0.68883 0.78391 0.0
C556 C 0.42994 0.68305 0.78026 0.0
C557 C 0.44733 0.68481 0.83322 0.0
C558 C 0.35368 0.70255 0.84649 0.0
C559 C 0.44441 0.67519 0.72038 0.0
H560 H 0.33486 0.63862 0.65421 0.0
H561 H 0.34736 0.73156 0.62278 0.0
H562 H 0.39617 0.62764 0.75272 0.0
H563 H 0.36361 0.63488 0.79635 0.0
H564 H 0.36121 0.61237 0.72867 0.0
H565 H 0.38386 0.75911 0.67416 0.0
H566 H 0.38102 0.7501 0.75395 0.0
H567 H 0.41307 0.73903 0.71206 0.0
H568 H 0.39459 0.70589 0.93501 0.0
H569 H 0.47071 0.67974 0.83052 0.0
H570 H 0.34088 0.68329 0.82947 0.0
H571 H 0.34747 0.72189 0.81815 0.0
H572 H 0.347 0.70702 0.89436 0.0
H573 H 0.4346 0.65456 0.70191 0.0
H574 H 0.46866 0.67202 0.72498 0.0
H575 H 0.44026 0.69293 0.68647 0.0
C576 C 0.74229 0.90686 0.14997 0.0
C577 C 0.73016 0.87864 0.14064 0.0
C578 C 0.73202 0.92525 0.19695 0.0
C579 C 0.70903 0.91523 0.23553 0.0
C580 C 0.6955 0.88753 0.22417 0.0
C581 C 0.70621 0.86956 0.17682 0.0
C582 C 0.74694 0.95471 0.20738 0.0
C583 C 0.67082 0.87615 0.26409 0.0
C584 C 0.71123 0.94388 0.39787 0.0
C585 C 0.68968 0.9662 0.39683 0.0
C586 C 0.71727 0.92685 0.34599 0.0
C587 C 0.70145 0.93227 0.29142 0.0
C588 C 0.67937 0.95448 0.29011 0.0
C589 C 0.67378 0.97126 0.34287 0.0
C590 C 0.7411 0.90347 0.34925 0.0
C591 C 0.662 0.96078 0.23279 0.0
H592 H 0.76058 0.91424 0.12194 0.0
H593 H 0.69649 0.84791 0.16973 0.0
H594 H 0.73023 0.97253 0.21195 0.0
H595 H 0.75967 0.95396 0.25062 0.0
H596 H 0.76233 0.96057 0.1698 0.0
H597 H 0.66034 0.85594 0.24499 0.0
H598 H 0.67969 0.8708 0.30996 0.0
H599 H 0.65357 0.89335 0.27016 0.0
H600 H 0.72403 0.94023 0.43899 0.0
H601 H 0.65699 0.98836 0.34194 0.0
H602 H 0.75916 0.90895 0.31695 0.0
H603 H 0.732 0.88167 0.3355 0.0
H604 H 0.75068 0.90139 0.3957 0.0
H605 H 0.67716 0.96843 0.1963 0.0
H606 H 0.64474 0.97792 0.23999 0.0
H607 H 0.65123 0.94025 0.21619 0.0
C608 C 0.65606 0.34449 0.68731 0.0
C609 C 0.66448 0.3192 0.65466 0.0
C610 C 0.63453 0.34286 0.73317 0.0
C611 C 0.62072 0.31541 0.74562 0.0
C612 C 0.62782 0.29024 0.71011 0.0
C613 C 0.64991 0.29235 0.66548 0.0
C614 C 0.62797 0.37005 0.77083 0.0
C615 C 0.6131 0.26074 0.72116 0.0
C616 C 0.59736 0.30098 0.90838 0.0
C617 C 0.56696 0.30727 0.90674 0.0
C618 C 0.61497 0.30376 0.85634 0.0
C619 C 0.60181 0.31218 0.8005 0.0
C620 C 0.57102 0.3177 0.79774 0.0
C621 C 0.55395 0.31543 0.85111 0.0
C622 C 0.6478 0.29791 0.86138 0.0
C623 C 0.5562 0.32617 0.73859 0.0
H624 H 0.66732 0.36529 0.6791 0.0
H625 H 0.65612 0.27286 0.63964 0.0
H626 H 0.60379 0.37376 0.77397 0.0
H627 H 0.63633 0.36674 0.81793 0.0
H628 H 0.63847 0.39024 0.75171 0.0
H629 H 0.61808 0.24455 0.68445 0.0
H630 H 0.62089 0.25143 0.76512 0.0
H631 H 0.58878 0.26348 0.72449 0.0
H632 H 0.60751 0.29377 0.95061 0.0
H633 H 0.53054 0.32045 0.8494 0.0
H634 H 0.66039 0.31767 0.84626 0.0
H635 H 0.65412 0.27932 0.83107 0.0
H636 H 0.65466 0.29238 0.90867 0.0
H637 H 0.56516 0.34755 0.72208 0.0
H638 H 0.53184 0.32828 0.74347 0.0
H639 H 0.56103 0.30936 0.70308 0.0
C640 C 0.28555 0.13512 0.17185 0.0
C641 C 0.26604 0.12488 0.12693 0.0
C642 C 0.29571 0.11628 0.218 0.0
C643 C 0.2856 0.08667 0.21987 0.0
C644 C 0.26702 0.07581 0.17291 0.0
C645 C 0.25765 0.09504 0.1265 0.0
C646 C 0.31602 0.12853 0.26652 0.0
C647 C 0.25553 0.04447 0.17379 0.0
C648 C 0.32304 0.03345 0.32958 0.0
C649 C 0.30474 0.03597 0.38085 0.0
C650 C 0.31703 0.04964 0.27635 0.0
C651 C 0.29186 0.06826 0.27439 0.0
C652 C 0.27297 0.07027 0.3257 0.0
C653 C 0.27979 0.05425 0.37848 0.0
C654 C 0.33787 0.04734 0.22282 0.0
C655 C 0.24568 0.08956 0.3251 0.0
H656 H 0.29236 0.15812 0.1717 0.0
H657 H 0.2425 0.08712 0.09184 0.0
H658 H 0.30383 0.13038 0.31025 0.0
H659 H 0.33496 0.11338 0.27418 0.0
H660 H 0.32471 0.15074 0.25435 0.0
H661 H 0.24397 0.03855 0.13077 0.0
H662 H 0.27387 0.02859 0.18131 0.0
H663 H 0.23978 0.04184 0.21221 0.0
H664 H 0.34236 0.01929 0.33166 0.0
H665 H 0.26542 0.0558 0.41794 0.0
H666 H 0.34788 0.06929 0.21351 0.0
H667 H 0.32557 0.0407 0.18124 0.0
H668 H 0.3559 0.03113 0.23096 0.0
H669 H 0.25213 0.11307 0.31935 0.0
H670 H 0.23257 0.08749 0.36771 0.0
H671 H 0.23135 0.08359 0.2859 0.0
C672 C 0.20627 0.29829 0.03886 0.0
C673 C 0.21769 0.28602 0.9851 0.0
C674 C 0.19809 0.32818 0.0416 0.0
C675 C 0.20233 0.34641 0.98988 0.0
C676 C 0.21346 0.33399 0.93514 0.0
C677 C 0.2206 0.30377 0.93314 0.0
C678 C 0.18544 0.34036 0.10016 0.0
C679 C 0.21891 0.35285 0.87946 0.0
C680 C 0.16477 0.42136 0.9765 0.0
C681 C 0.18718 0.4403 0.99685 0.0
C682 C 0.16902 0.39058 0.97575 0.0
C683 C 0.19665 0.37875 0.99398 0.0
C684 C 0.21925 0.39793 0.01494 0.0
C685 C 0.21409 0.4285 0.01678 0.0
C686 C 0.14413 0.37079 0.95476 0.0
C687 C 0.24921 0.38625 0.03356 0.0
H688 H 0.2037 0.28442 0.07886 0.0
H689 H 0.22958 0.29428 0.89168 0.0
H690 H 0.20118 0.35636 0.12059 0.0
H691 H 0.16458 0.35248 0.09085 0.0
H692 H 0.18089 0.32269 0.1341 0.0
H693 H 0.22703 0.33968 0.8401 0.0
H694 H 0.19829 0.36436 0.86581 0.0
H695 H 0.23553 0.37014 0.89026 0.0
H696 H 0.14402 0.4307 0.96091 0.0
H697 H 0.23148 0.44336 0.03168 0.0
H698 H 0.13968 0.35352 0.9895 0.0
H699 H 0.15057 0.35928 0.91212 0.0
H700 H 0.12341 0.38332 0.9462 0.0
H701 H 0.24682 0.37011 0.07131 0.0
H702 H 0.2644 0.40414 0.04857 0.0
H703 H 0.25952 0.37439 0.99468 0.0
C704 C 0.1585 0.71858 0.54458 0.0
C705 C 0.17835 0.72849 0.49994 0.0
C706 C 0.12935 0.72926 0.54653 0.0
C707 C 0.12005 0.75059 0.50329 0.0
C708 C 0.14002 0.76072 0.4583 0.0
C709 C 0.16884 0.7494 0.45691 0.0
C710 C 0.10849 0.7177 0.59467 0.0
C711 C 0.131 0.78368 0.41181 0.0
C712 C 0.03861 0.76078 0.46804 0.0
C713 C 0.03178 0.78598 0.50251 0.0
C714 C 0.06713 0.74865 0.46892 0.0
C715 C 0.08938 0.76228 0.50458 0.0
C716 C 0.08257 0.78771 0.5396 0.0
C717 C 0.05374 0.79917 0.53844 0.0
C718 C 0.07349 0.72133 0.43148 0.0
C719 C 0.10585 0.80308 0.57749 0.0
H720 H 0.16567 0.70233 0.57779 0.0
H721 H 0.18408 0.75734 0.42246 0.0
H722 H 0.10053 0.73621 0.62355 0.0
H723 H 0.08879 0.70765 0.57272 0.0
H724 H 0.11906 0.70088 0.62448 0.0
H725 H 0.14937 0.78956 0.38043 0.0
H726 H 0.11217 0.77537 0.38429 0.0
H727 H 0.12345 0.80407 0.43527 0.0
H728 H 0.02149 0.75034 0.44093 0.0
H729 H 0.04846 0.81875 0.56484 0.0
H730 H 0.08257 0.70362 0.46108 0.0
H731 H 0.09048 0.72637 0.39652 0.0
H732 H 0.05344 0.71277 0.40811 0.0
H733 H 0.11566 0.78732 0.61057 0.0
H734 H 0.09681 0.82229 0.60298 0.0
H735 H 0.12401 0.81094 0.54759 0.0
C736 C 0.77301 0.70024 0.96701 0.0
C737 C 0.78411 0.72017 0.01039 0.0
C738 C 0.78033 0.67013 0.96918 0.0
C739 C 0.79957 0.65971 0.01535 0.0
C740 C 0.81143 0.67978 0.05846 0.0
C741 C 0.8034 0.70978 0.05572 0.0
C742 C 0.76697 0.64935 0.92276 0.0
C743 C 0.83233 0.66952 0.10779 0.0
C744 C 0.79291 0.57816 0.05348 0.0
C745 C 0.8156 0.5659 0.01805 0.0
C746 C 0.78798 0.60878 0.05436 0.0
C747 C 0.80637 0.62759 0.01937 0.0
C748 C 0.82999 0.61542 0.98522 0.0
C749 C 0.83419 0.58465 0.98462 0.0
C750 C 0.76234 0.62088 0.09076 0.0
C751 C 0.8503 0.63481 0.94802 0.0
H752 H 0.75804 0.70805 0.93192 0.0
H753 H 0.81226 0.72509 0.08909 0.0
H754 H 0.78471 0.63765 0.89752 0.0
H755 H 0.7535 0.63229 0.94623 0.0
H756 H 0.75269 0.66106 0.88933 0.0
H757 H 0.84074 0.68815 0.13595 0.0
H758 H 0.82093 0.65355 0.13813 0.0
H759 H 0.85145 0.65781 0.08721 0.0
H760 H 0.77825 0.56367 0.07873 0.0
H761 H 0.85187 0.57517 0.95753 0.0
H762 H 0.7459 0.63097 0.05945 0.0
H763 H 0.77004 0.63854 0.12207 0.0
H764 H 0.75111 0.60348 0.11802 0.0
H765 H 0.83769 0.64523 0.91031 0.0
H766 H 0.86904 0.62219 0.92813 0.0
H767 H 0.8593 0.65293 0.97667 0.0
C768 C 0.84345 0.28658 0.54991 0.0
C769 C 0.82294 0.27824 0.5051 0.0
C770 C 0.87292 0.27698 0.54703 0.0
C771 C 0.88198 0.25843 0.49849 0.0
C772 C 0.86148 0.25015 0.45286 0.0
C773 C 0.83225 0.26027 0.45654 0.0
C774 C 0.89429 0.28644 0.59622 0.0
C775 C 0.8703 0.2302 0.40066 0.0
C776 C 0.96384 0.2517 0.46289 0.0
C777 C 0.97112 0.22536 0.49304 0.0
C778 C 0.93488 0.2628 0.46434 0.0
C779 C 0.91274 0.247 0.49626 0.0
C780 C 0.91991 0.22018 0.52608 0.0
C781 C 0.94908 0.20974 0.5243 0.0
C782 C 0.92804 0.29159 0.43239 0.0
C783 C 0.8968 0.20254 0.55995 0.0
H784 H 0.83648 0.30062 0.58732 0.0
H785 H 0.81656 0.25368 0.42172 0.0
H786 H 0.90258 0.26673 0.62105 0.0
H787 H 0.91373 0.29753 0.5755 0.0
H788 H 0.88401 0.30178 0.62965 0.0
H789 H 0.85181 0.22625 0.36832 0.0
H790 H 0.88906 0.24007 0.37522 0.0
H791 H 0.87791 0.20856 0.41865 0.0
H792 H 0.98097 0.26397 0.4393 0.0
H793 H 0.95467 0.18922 0.54714 0.0
H794 H 0.91954 0.30796 0.46577 0.0
H795 H 0.91046 0.28813 0.39783 0.0
H796 H 0.94775 0.30109 0.4094 0.0
H797 H 0.8872 0.21611 0.59715 0.0
H798 H 0.90596 0.18191 0.58002 0.0
H799 H 0.87847 0.19657 0.52865 0.0
C800 C 0.69243 0.21127 0.45909 0.0
C801 C 0.71284 0.22122 0.50275 0.0
C802 C 0.68444 0.18126 0.45576 0.0
C803 C 0.69747 0.16074 0.4965 0.0
C804 C 0.7177 0.17076 0.54121 0.0
C805 C 0.72496 0.20085 0.54405 0.0
C806 C 0.66245 0.17143 0.4081 0.0
C807 C 0.73229 0.14956 0.58519 0.0
C808 C 0.66573 0.08459 0.52858 0.0
C809 C 0.68425 0.06653 0.49331 0.0
C810 C 0.66874 0.1155 0.52768 0.0
C811 C 0.69108 0.12856 0.49134 0.0
C812 C 0.70918 0.11046 0.45414 0.0
C813 C 0.70546 0.07967 0.45539 0.0
C814 C 0.64875 0.13409 0.56733 0.0
C815 C 0.73348 0.12349 0.41531 0.0
H816 H 0.68277 0.22692 0.42736 0.0
H817 H 0.74077 0.20829 0.57791 0.0
H818 H 0.67341 0.15644 0.37504 0.0
H819 H 0.64425 0.15876 0.42974 0.0
H820 H 0.6528 0.19039 0.3827 0.0
H821 H 0.74714 0.161 0.61795 0.0
H822 H 0.71525 0.1373 0.61135 0.0
H823 H 0.74545 0.13299 0.55954 0.0
H824 H 0.64915 0.07446 0.5575 0.0
H825 H 0.72004 0.06575 0.42861 0.0
H826 H 0.63903 0.15246 0.54043 0.0
H827 H 0.66183 0.14416 0.60477 0.0
H828 H 0.63055 0.12091 0.58773 0.0
H829 H 0.72459 0.14141 0.38603 0.0
H830 H 0.74418 0.10665 0.38574 0.0
H831 H 0.75063 0.13345 0.44513 0.0
C832 C 0.34484 0.21433 0.04926 0.0
C833 C 0.32657 0.22491 0.00239 0.0
C834 C 0.37452 0.22321 0.05343 0.0
C835 C 0.38601 0.24339 0.01015 0.0
C836 C 0.36773 0.25396 0.96253 0.0
C837 C 0.3383 0.24444 0.95899 0.0
C838 C 0.39351 0.2112 0.10437 0.0
C839 C 0.37912 0.27574 0.91587 0.0
C840 C 0.45244 0.29051 0.05136 0.0
C841 C 0.47504 0.2765 0.01857 0.0
C842 C 0.4234 0.27968 0.04977 0.0
C843 C 0.41697 0.25404 0.01513 0.0
C844 C 0.43986 0.2394 0.98311 0.0
C845 C 0.46864 0.25093 0.98492 0.0
C846 C 0.39949 0.2961 0.08389 0.0
C847 C 0.43388 0.2118 0.94632 0.0
H848 H 0.33597 0.19908 0.08271 0.0
H849 H 0.32431 0.25281 0.92275 0.0
H850 H 0.41355 0.2005 0.08528 0.0
H851 H 0.40107 0.22959 0.13403 0.0
H852 H 0.38153 0.19482 0.13293 0.0
H853 H 0.36209 0.28165 0.88143 0.0
H854 H 0.38652 0.29629 0.93899 0.0
H855 H 0.39857 0.26637 0.89187 0.0
H856 H 0.45737 0.3104 0.07704 0.0
H857 H 0.48622 0.23987 0.9602 0.0
H858 H 0.38804 0.28095 0.11589 0.0
H859 H 0.38266 0.30439 0.05125 0.0
H860 H 0.40834 0.31518 0.11013 0.0
H861 H 0.42304 0.19486 0.97529 0.0
H862 H 0.4544 0.2022 0.92675 0.0
H863 H 0.41846 0.21696 0.90844 0.0
C864 C 0.27821 0.80363 0.53609 0.0
C865 C 0.28802 0.78469 0.48956 0.0
C866 C 0.28581 0.83366 0.5365 0.0
C867 C 0.304 0.84507 0.48964 0.0
C868 C 0.31496 0.82591 0.44378 0.0
C869 C 0.30668 0.79593 0.44404 0.0
C870 C 0.27334 0.8534 0.58581 0.0
C871 C 0.33475 0.83725 0.39357 0.0
C872 C 0.29245 0.92623 0.45455 0.0
C873 C 0.31544 0.93957 0.48747 0.0
C874 C 0.28903 0.89546 0.45361 0.0
C875 C 0.30924 0.87749 0.48607 0.0
C876 C 0.33295 0.89075 0.51832 0.0
C877 C 0.33563 0.92175 0.5191 0.0
C878 C 0.26315 0.88227 0.41953 0.0
C879 C 0.35509 0.87224 0.55287 0.0
H880 H 0.26385 0.79519 0.57161 0.0
H881 H 0.31461 0.78138 0.40831 0.0
H882 H 0.29138 0.86571 0.60882 0.0
H883 H 0.25829 0.87 0.56515 0.0
H884 H 0.26083 0.84078 0.62076 0.0
H885 H 0.34373 0.81907 0.36495 0.0
H886 H 0.32212 0.85256 0.36382 0.0
H887 H 0.35347 0.84996 0.41315 0.0
H888 H 0.27653 0.93999 0.43084 0.0
H889 H 0.35349 0.93206 0.5443 0.0
H890 H 0.24824 0.87082 0.45203 0.0
H891 H 0.27101 0.8655 0.38634 0.0
H892 H 0.25015 0.89925 0.39458 0.0
H893 H 0.34394 0.86082 0.59128 0.0
H894 H 0.37354 0.88573 0.57148 0.0
H895 H 0.3644 0.85487 0.52269 0.0
C896 C 0.65647 0.79181 0.95019 0.0
C897 C 0.67627 0.77977 0.9927 0.0
C898 C 0.62693 0.78228 0.9479 0.0
C899 C 0.61724 0.75989 0.98837 0.0
C900 C 0.63719 0.74757 0.03107 0.0
C901 C 0.66637 0.75784 0.03306 0.0
C902 C 0.60608 0.7962 0.90245 0.0
C903 C 0.62779 0.72334 0.07439 0.0
C904 C 0.53631 0.74952 0.02764 0.0
C905 C 0.52876 0.72537 0.99077 0.0
C906 C 0.56478 0.76174 0.0256 0.0
C907 C 0.58624 0.74914 0.98644 0.0
C908 C 0.57856 0.72502 0.94839 0.0
C909 C 0.54977 0.71355 0.95069 0.0
C910 C 0.57206 0.78773 0.0662 0.0
C911 C 0.60099 0.71071 0.90679 0.0
H912 H 0.664 0.80887 0.91913 0.0
H913 H 0.68161 0.74827 0.06573 0.0
H914 H 0.5973 0.77906 0.87111 0.0
H915 H 0.5869 0.80605 0.9266 0.0
H916 H 0.61697 0.81371 0.87491 0.0
H917 H 0.6462 0.71576 0.10406 0.0
H918 H 0.6095 0.73128 0.10383 0.0
H919 H 0.61934 0.70409 0.04826 0.0
H920 H 0.51988 0.75887 0.05806 0.0
H921 H 0.5439 0.69477 0.92241 0.0
H922 H 0.58178 0.80593 0.03885 0.0
H923 H 0.58882 0.78107 0.1005 0.0
H924 H 0.5523 0.79627 0.09058 0.0
H925 H 0.61111 0.72753 0.87647 0.0
H926 H 0.59111 0.69302 0.87814 0.0
H927 H 0.61908 0.70093 0.93443 0.0
loop_
_geom_bond_atom_site_label_1
_geom_bond_atom_site_label_2
_geom_bond_distance
_geom_bond_site_symmetry_2
_ccdc_geom_bond_type
Fe0 O2 1.926 . S
Fe0 O5 1.997 . S
Fe0 O6 2.002 . S
Fe0 O11 1.976 . S
Fe0 O14 1.996 . S
Fe1 O2 1.911 1_556 S
Fe1 O9 1.997 . S
Fe1 O12 1.996 . S
Fe1 O16 1.976 . S
Fe1 O19 2.002 . S
O2 Fe0 1.926 . S
O2 Fe1 1.911 1_554 S
O2 Fe3 1.918 1_554 S
Fe3 O2 1.918 1_556 S
Fe3 O4 2.003 1_556 S
Fe3 O13 1.976 1_556 S
Fe3 O17 1.995 . S
Fe3 O20 1.996 . S
O4 Fe3 2.003 1_554 S
O4 C21 1.295 . S
O5 Fe0 1.997 . S
O5 C21 1.235 . S
O6 Fe0 2.002 . S
O6 C7 1.295 . S
C7 O6 1.295 . S
C7 O9 1.235 1_554 S
C8 O13 1.287 . S
C8 O14 1.255 . S
O9 Fe1 1.997 . S
O9 C7 1.235 1_556 S
C10 O16 1.287 . S
C10 O17 1.255 . S
O11 Fe0 1.976 . S
O11 C18 1.287 1_554 S
O12 Fe1 1.996 . S
O12 C18 1.255 . S
O13 Fe3 1.976 1_554 S
O13 C8 1.287 . S
O14 Fe0 1.996 . S
O14 C8 1.255 . S
C15 O19 1.295 . S
C15 O20 1.235 . S
O16 Fe1 1.976 . S
O16 C10 1.287 . S
O17 Fe3 1.995 . S
O17 C10 1.255 . S
C18 O11 1.287 1_556 S
C18 O12 1.255 . S
O19 Fe1 2.002 . S
O19 C15 1.295 . S
O20 Fe3 1.996 . S
O20 C15 1.235 . S
C21 O4 1.295 . S
C21 O5 1.235 . S
Fe22 O24 1.918 . S
Fe22 O27 1.997 . S
Fe22 O28 2.002 . S
Fe22 O33 1.976 . S
Fe22 O36 1.996 . S
Fe23 O24 1.918 . S
Fe23 O31 1.997 . S
Fe23 O34 1.996 . S
Fe23 O38 1.976 . S
Fe23 O41 2.002 . S
O24 Fe22 1.918 . S
O24 Fe23 1.918 . S
O24 Fe25 1.918 . S
Fe25 O24 1.918 . S
Fe25 O26 2.002 . S
Fe25 O35 1.976 . S
Fe25 O39 1.996 . S
Fe25 O42 1.997 . S
O26 Fe25 2.002 . S
O26 C43 1.295 . S
O27 Fe22 1.997 . S
O27 C43 1.235 . S
O28 Fe22 2.002 . S
O28 C29 1.295 . S
C29 O28 1.295 . S
C29 O31 1.235 . S
C30 O35 1.287 . S
C30 O36 1.255 . S
O31 Fe23 1.997 . S
O31 C29 1.235 . S
C32 O38 1.287 . S
C32 O39 1.255 . S
O33 Fe22 1.976 . S
O33 C40 1.287 . S
O34 Fe23 1.996 . S
O34 C40 1.255 . S
O35 Fe25 1.976 . S
O35 C30 1.287 . S
O36 Fe22 1.996 . S
O36 C30 1.255 . S
C37 O41 1.295 . S
C37 O42 1.235 . S
O38 Fe23 1.976 . S
O38 C32 1.287 . S
O39 Fe25 1.996 . S
O39 C32 1.255 . S
C40 O33 1.287 . S
C40 O34 1.255 . S
O41 Fe23 2.002 . S
O41 C37 1.295 . S
O42 Fe25 1.997 . S
O42 C37 1.235 . S
C43 O26 1.295 . S
C43 O27 1.235 . S
Fe44 O46 1.913 1_556 S
Fe44 O49 1.997 . S
Fe44 O50 2.002 . S
Fe44 O55 1.976 . S
Fe44 O58 1.996 . S
Fe45 O46 1.924 . S
Fe45 O53 1.997 . S
Fe45 O56 1.996 . S
Fe45 O60 1.976 . S
Fe45 O63 2.002 . S
O46 Fe44 1.913 1_554 S
O46 Fe45 1.924 . S
O46 Fe47 1.918 . S
Fe47 O46 1.918 . S
Fe47 O48 1.990 1_554 S
Fe47 O57 1.963 1_554 S
Fe47 O61 2.009 . S
Fe47 O64 2.010 . S
O48 Fe47 1.990 1_556 S
O48 C65 1.295 . S
O49 Fe44 1.997 . S
O49 C65 1.235 . S
O50 Fe44 2.002 . S
O50 C51 1.295 . S
C51 O50 1.295 . S
C51 O53 1.235 1_556 S
C52 O57 1.287 . S
C52 O58 1.255 . S
O53 Fe45 1.997 . S
O53 C51 1.235 1_554 S
C54 O60 1.287 . S
C54 O61 1.255 . S
O55 Fe44 1.976 . S
O55 C62 1.287 1_556 S
O56 Fe45 1.996 . S
O56 C62 1.255 . S
O57 Fe47 1.963 1_556 S
O57 C52 1.287 . S
O58 Fe44 1.996 . S
O58 C52 1.255 . S
C59 O63 1.295 . S
C59 O64 1.235 . S
O60 Fe45 1.976 . S
O60 C54 1.287 . S
O61 Fe47 2.009 . S
O61 C54 1.255 . S
C62 O55 1.287 1_554 S
C62 O56 1.255 . S
O63 Fe45 2.002 . S
O63 C59 1.295 . S
O64 Fe47 2.010 . S
O64 C59 1.235 . S
C65 O48 1.295 . S
C65 O49 1.235 . S
Fe66 O68 1.918 . S
Fe66 O71 1.997 . S
Fe66 O72 2.002 . S
Fe66 O77 1.976 . S
Fe66 O80 1.996 . S
Fe67 O68 1.918 . S
Fe67 O75 1.997 . S
Fe67 O78 1.996 . S
Fe67 O82 1.976 . S
Fe67 O85 2.002 . S
O68 Fe66 1.918 . S
O68 Fe67 1.918 . S
O68 Fe69 1.918 . S
Fe69 O68 1.918 . S
Fe69 O70 2.002 . S
Fe69 O79 1.976 . S
Fe69 O83 1.996 . S
Fe69 O86 1.997 . S
O70 Fe69 2.002 . S
O70 C87 1.295 . S
O71 Fe66 1.997 . S
O71 C87 1.235 . S
O72 Fe66 2.002 . S
O72 C73 1.295 . S
C73 O72 1.295 . S
C73 O75 1.235 . S
C74 O79 1.287 . S
C74 O80 1.255 . S
O75 Fe67 1.997 . S
O75 C73 1.235 . S
C76 O82 1.287 . S
C76 O83 1.255 . S
O77 Fe66 1.976 . S
O77 C84 1.287 . S
O78 Fe67 1.996 . S
O78 C84 1.255 . S
O79 Fe69 1.976 . S
O79 C74 1.287 . S
O80 Fe66 1.996 . S
O80 C74 1.255 . S
C81 O85 1.295 . S
C81 O86 1.235 . S
O82 Fe67 1.976 . S
O82 C76 1.287 . S
O83 Fe69 1.996 . S
O83 C76 1.255 . S
C84 O77 1.287 . S
C84 O78 1.255 . S
O85 Fe67 2.002 . S
O85 C81 1.295 . S
O86 Fe69 1.997 . S
O86 C81 1.235 . S
C87 O70 1.295 . S
C87 O71 1.235 . S
H88 C91 0.931 . S
H89 C94 0.928 . S
H90 C96 0.930 . S
C91 H88 0.931 . S
C91 C92 1.399 1_556 S
C91 C93 1.374 . S
C92 C91 1.399 1_554 S
C92 C96 1.429 . S
C93 C91 1.374 . S
C93 C94 1.372 . S
C94 H89 0.928 . S
C94 C93 1.372 . S
C94 C95 1.406 . S
C95 C94 1.406 . S
C95 C96 1.388 1_556 S
C96 H90 0.930 . S
C96 C92 1.429 . S
C96 C95 1.388 1_554 S
H97 C100 0.931 . S
H98 C103 0.928 1_455 S
H99 C105 0.930 1_455 S
C100 H97 0.931 . S
C100 C101 1.413 . S
C100 C102 1.360 . S
C101 C100 1.413 . S
C101 C105 1.429 . S
C102 C100 1.360 . S
C102 C103 1.372 . S
C103 H98 0.928 1_655 S
C103 C102 1.372 . S
C103 C104 1.404 1_655 S
C104 C103 1.404 1_455 S
C104 C105 1.391 1_455 S
C105 H99 0.930 1_655 S
C105 C101 1.429 . S
C105 C104 1.391 1_655 S
H106 C109 0.931 . S
H107 C112 0.928 . S
H108 C114 0.930 . S
C109 H106 0.931 . S
C109 C110 1.413 1_554 S
C109 C111 1.360 . S
C110 C109 1.413 1_556 S
C110 C114 1.429 . S
C111 C109 1.360 . S
C111 C112 1.372 . S
C112 H107 0.928 . S
C112 C111 1.372 . S
C112 C113 1.404 . S
C113 C112 1.404 . S
C113 C114 1.391 1_554 S
C114 H108 0.930 . S
C114 C110 1.429 . S
C114 C113 1.391 1_556 S
H115 C118 0.931 . S
H116 C121 0.928 1_655 S
H117 C123 0.930 1_655 S
C118 H115 0.931 . S
C118 C119 1.413 . S
C118 C120 1.360 . S
C119 C118 1.413 . S
C119 C123 1.429 . S
C120 C118 1.360 . S
C120 C121 1.372 . S
C121 H116 0.928 1_455 S
C121 C120 1.372 . S
C121 C122 1.404 1_455 S
C122 C121 1.404 1_655 S
C122 C123 1.391 1_655 S
C123 H117 0.930 1_455 S
C123 C119 1.429 . S
C123 C122 1.391 1_455 S
H124 C127 0.931 . S
H125 C130 0.928 . S
H126 C132 0.930 . S
C127 H124 0.931 . S
C127 C128 1.413 . S
C127 C129 1.360 . S
C128 C127 1.413 . S
C128 C132 1.429 1_565 S
C129 C127 1.360 . S
C129 C130 1.372 1_565 S
C130 H125 0.928 . S
C130 C129 1.372 1_545 S
C130 C131 1.404 . S
C131 C130 1.404 . S
C131 C132 1.391 . S
C132 H126 0.930 . S
C132 C128 1.429 1_545 S
C132 C131 1.391 . S
H133 C136 0.931 . S
H134 C139 0.928 . S
H135 C141 0.930 . S
C136 H133 0.931 . S
C136 C137 1.413 1_554 S
C136 C138 1.360 . S
C137 C136 1.413 1_556 S
C137 C141 1.429 . S
C138 C136 1.360 . S
C138 C139 1.372 . S
C139 H134 0.928 . S
C139 C138 1.372 . S
C139 C140 1.418 . S
C140 C139 1.418 . S
C140 C141 1.376 1_554 S
C141 H135 0.930 . S
C141 C137 1.429 . S
C141 C140 1.376 1_556 S
H142 C145 0.931 . S
H143 C148 0.928 . S
H144 C150 0.930 . S
C145 H142 0.931 . S
C145 C146 1.413 . S
C145 C147 1.360 . S
C146 C145 1.413 . S
C146 C150 1.429 1_545 S
C147 C145 1.360 . S
C147 C148 1.372 1_545 S
C148 H143 0.928 . S
C148 C147 1.372 1_565 S
C148 C149 1.404 . S
C149 C148 1.404 . S
C149 C150 1.391 . S
C150 H144 0.930 . S
C150 C146 1.429 1_565 S
C150 C149 1.391 . S
H151 C154 0.931 . S
H152 C157 0.928 . S
H153 C159 0.930 . S
C154 H151 0.931 . S
C154 C155 1.405 1_556 S
C154 C156 1.369 . S
C155 C154 1.405 1_554 S
C155 C159 1.429 . S
C156 C154 1.369 . S
C156 C157 1.372 . S
C157 H152 0.928 . S
C157 C156 1.372 . S
C157 C158 1.404 1_556 S
C158 C157 1.404 1_554 S
C158 C159 1.390 . S
C159 H153 0.930 . S
C159 C155 1.429 . S
C159 C158 1.390 . S
C160 C161 1.391 . S
C160 C162 1.394 . S
C160 H176 0.931 . S
C161 C160 1.391 . S
C161 C165 1.376 . S
C162 C160 1.394 . S
C162 C163 1.369 . S
C162 C166 1.531 . S
C163 C162 1.369 . S
C163 C164 1.410 . S
C163 C171 1.503 . S
C164 C163 1.410 . S
C164 C165 1.392 . S
C164 C167 1.511 . S
C165 C161 1.376 . S
C165 C164 1.392 . S
C165 H177 0.929 . S
C166 C162 1.531 . S
C166 H178 0.960 . S
C166 H179 0.962 . S
C166 H180 0.960 . S
C167 C164 1.511 . S
C167 H181 0.961 . S
C167 H182 0.961 . S
C167 H183 0.961 . S
C168 C169 1.370 . S
C168 C170 1.363 . S
C168 H184 0.931 . S
C169 C168 1.370 . S
C169 C173 1.408 . S
C170 C168 1.363 . S
C170 C171 1.370 . S
C170 C174 1.524 . S
C171 C163 1.503 . S
C171 C170 1.370 . S
C171 C172 1.403 . S
C172 C171 1.403 . S
C172 C173 1.404 . S
C172 C175 1.539 . S
C173 C169 1.408 . S
C173 C172 1.404 . S
C173 H185 0.930 . S
C174 C170 1.524 . S
C174 H186 0.956 . S
C174 H187 0.961 . S
C174 H188 0.961 . S
C175 C172 1.539 . S
C175 H189 0.958 . S
C175 H190 0.961 . S
C175 H191 0.960 . S
H176 C160 0.931 . S
H177 C165 0.929 . S
H178 C166 0.960 . S
H179 C166 0.962 . S
H180 C166 0.960 . S
H181 C167 0.961 . S
H182 C167 0.961 . S
H183 C167 0.961 . S
H184 C168 0.931 . S
H185 C173 0.930 . S
H186 C174 0.956 . S
H187 C174 0.961 . S
H188 C174 0.961 . S
H189 C175 0.958 . S
H190 C175 0.961 . S
H191 C175 0.960 . S
C192 C193 1.391 . S
C192 C194 1.394 . S
C192 H208 0.931 . S
C193 C192 1.391 . S
C193 C197 1.376 . S
C194 C192 1.394 . S
C194 C195 1.369 . S
C194 C198 1.531 . S
C195 C194 1.369 . S
C195 C196 1.410 . S
C195 C203 1.503 . S
C196 C195 1.410 . S
C196 C197 1.392 . S
C196 C199 1.511 . S
C197 C193 1.376 . S
C197 C196 1.392 . S
C197 H209 0.929 . S
C198 C194 1.531 . S
C198 H210 0.960 . S
C198 H211 0.962 . S
C198 H212 0.960 . S
C199 C196 1.511 . S
C199 H213 0.961 . S
C199 H214 0.961 . S
C199 H215 0.961 . S
C200 C201 1.370 . S
C200 C202 1.363 . S
C200 H216 0.931 . S
C201 C200 1.370 . S
C201 C205 1.408 . S
C202 C200 1.363 . S
C202 C203 1.370 . S
C202 C206 1.524 . S
C203 C195 1.503 . S
C203 C202 1.370 . S
C203 C204 1.403 . S
C204 C203 1.403 . S
C204 C205 1.404 . S
C204 C207 1.539 . S
C205 C201 1.408 . S
C205 C204 1.404 . S
C205 H217 0.930 . S
C206 C202 1.524 . S
C206 H218 0.956 . S
C206 H219 0.961 . S
C206 H220 0.961 . S
C207 C204 1.539 . S
C207 H221 0.958 . S
C207 H222 0.961 . S
C207 H223 0.960 . S
H208 C192 0.931 . S
H209 C197 0.929 . S
H210 C198 0.960 . S
H211 C198 0.962 . S
H212 C198 0.960 . S
H213 C199 0.961 . S
H214 C199 0.961 . S
H215 C199 0.961 . S
H216 C200 0.931 . S
H217 C205 0.930 . S
H218 C206 0.956 . S
H219 C206 0.961 . S
H220 C206 0.961 . S
H221 C207 0.958 . S
H222 C207 0.961 . S
H223 C207 0.960 . S
C224 C225 1.391 . S
C224 C226 1.394 . S
C224 H240 0.931 . S
C225 C224 1.391 . S
C225 C229 1.376 . S
C226 C224 1.394 . S
C226 C227 1.369 . S
C226 C230 1.531 . S
C227 C226 1.369 . S
C227 C228 1.410 . S
C227 C235 1.503 . S
C228 C227 1.410 . S
C228 C229 1.392 . S
C228 C231 1.511 . S
C229 C225 1.376 . S
C229 C228 1.392 . S
C229 H241 0.929 . S
C230 C226 1.531 . S
C230 H242 0.960 . S
C230 H243 0.962 . S
C230 H244 0.960 . S
C231 C228 1.511 . S
C231 H245 0.961 . S
C231 H246 0.961 . S
C231 H247 0.961 . S
C232 C233 1.370 . S
C232 C234 1.363 . S
C232 H248 0.931 . S
C233 C232 1.370 . S
C233 C237 1.408 . S
C234 C232 1.363 . S
C234 C235 1.370 . S
C234 C238 1.524 . S
C235 C227 1.503 . S
C235 C234 1.370 . S
C235 C236 1.403 . S
C236 C235 1.403 . S
C236 C237 1.404 . S
C236 C239 1.539 . S
C237 C233 1.408 . S
C237 C236 1.404 . S
C237 H249 0.930 . S
C238 C234 1.524 . S
C238 H250 0.956 . S
C238 H251 0.961 . S
C238 H252 0.961 . S
C239 C236 1.539 . S
C239 H253 0.958 . S
C239 H254 0.961 . S
C239 H255 0.960 . S
H240 C224 0.931 . S
H241 C229 0.929 . S
H242 C230 0.960 . S
H243 C230 0.962 . S
H244 C230 0.960 . S
H245 C231 0.961 . S
H246 C231 0.961 . S
H247 C231 0.961 . S
H248 C232 0.931 . S
H249 C237 0.930 . S
H250 C238 0.956 . S
H251 C238 0.961 . S
H252 C238 0.961 . S
H253 C239 0.958 . S
H254 C239 0.961 . S
H255 C239 0.960 . S
C256 C257 1.391 . S
C256 C258 1.394 . S
C256 H272 0.931 . S
C257 C256 1.391 . S
C257 C261 1.376 . S
C258 C256 1.394 . S
C258 C259 1.369 . S
C258 C262 1.531 . S
C259 C258 1.369 . S
C259 C260 1.410 . S
C259 C267 1.503 . S
C260 C259 1.410 . S
C260 C261 1.392 . S
C260 C263 1.511 . S
C261 C257 1.376 . S
C261 C260 1.392 . S
C261 H273 0.929 . S
C262 C258 1.531 . S
C262 H274 0.960 . S
C262 H275 0.962 . S
C262 H276 0.960 . S
C263 C260 1.511 . S
C263 H277 0.961 . S
C263 H278 0.961 . S
C263 H279 0.961 . S
C264 C265 1.370 . S
C264 C266 1.363 . S
C264 H280 0.931 . S
C265 C264 1.370 . S
C265 C269 1.408 . S
C266 C264 1.363 . S
C266 C267 1.370 . S
C266 C270 1.524 . S
C267 C259 1.503 . S
C267 C266 1.370 . S
C267 C268 1.403 . S
C268 C267 1.403 . S
C268 C269 1.404 . S
C268 C271 1.539 . S
C269 C265 1.408 . S
C269 C268 1.404 . S
C269 H281 0.930 . S
C270 C266 1.524 . S
C270 H282 0.956 . S
C270 H283 0.961 . S
C270 H284 0.961 . S
C271 C268 1.539 . S
C271 H285 0.958 . S
C271 H286 0.961 . S
C271 H287 0.960 . S
H272 C256 0.931 . S
H273 C261 0.929 . S
H274 C262 0.960 . S
H275 C262 0.962 . S
H276 C262 0.960 . S
H277 C263 0.961 . S
H278 C263 0.961 . S
H279 C263 0.961 . S
H280 C264 0.931 . S
H281 C269 0.930 . S
H282 C270 0.956 . S
H283 C270 0.961 . S
H284 C270 0.961 . S
H285 C271 0.958 . S
H286 C271 0.961 . S
H287 C271 0.960 . S
C288 C289 1.391 . S
C288 C290 1.394 . S
C288 H304 0.931 . S
C289 C288 1.391 . S
C289 C293 1.376 . S
C290 C288 1.394 . S
C290 C291 1.369 . S
C290 C294 1.531 . S
C291 C290 1.369 . S
C291 C292 1.410 . S
C291 C299 1.503 . S
C292 C291 1.410 . S
C292 C293 1.392 . S
C292 C295 1.511 . S
C293 C289 1.376 . S
C293 C292 1.392 . S
C293 H305 0.929 . S
C294 C290 1.531 . S
C294 H306 0.960 . S
C294 H307 0.962 . S
C294 H308 0.960 . S
C295 C292 1.511 . S
C295 H309 0.961 . S
C295 H310 0.961 . S
C295 H311 0.961 . S
C296 C297 1.370 . S
C296 C298 1.363 . S
C296 H312 0.931 . S
C297 C296 1.370 . S
C297 C301 1.408 . S
C298 C296 1.363 . S
C298 C299 1.370 . S
C298 C302 1.524 . S
C299 C291 1.503 . S
C299 C298 1.370 . S
C299 C300 1.403 . S
C300 C299 1.403 . S
C300 C301 1.404 . S
C300 C303 1.539 . S
C301 C297 1.408 . S
C301 C300 1.404 . S
C301 H313 0.930 . S
C302 C298 1.524 . S
C302 H314 0.956 . S
C302 H315 0.961 . S
C302 H316 0.961 . S
C303 C300 1.539 . S
C303 H317 0.958 . S
C303 H318 0.961 . S
C303 H319 0.960 . S
H304 C288 0.931 . S
H305 C293 0.929 . S
H306 C294 0.960 . S
H307 C294 0.962 . S
H308 C294 0.960 . S
H309 C295 0.961 . S
H310 C295 0.961 . S
H311 C295 0.961 . S
H312 C296 0.931 . S
H313 C301 0.930 . S
H314 C302 0.956 . S
H315 C302 0.961 . S
H316 C302 0.961 . S
H317 C303 0.958 . S
H318 C303 0.961 . S
H319 C303 0.960 . S
C320 C321 1.391 . S
C320 C322 1.394 . S
C320 H336 0.931 . S
C321 C320 1.391 . S
C321 C325 1.376 . S
C322 C320 1.394 . S
C322 C323 1.369 . S
C322 C326 1.531 . S
C323 C322 1.369 . S
C323 C324 1.410 . S
C323 C331 1.503 . S
C324 C323 1.410 . S
C324 C325 1.392 . S
C324 C327 1.511 . S
C325 C321 1.376 . S
C325 C324 1.392 . S
C325 H337 0.929 . S
C326 C322 1.531 . S
C326 H338 0.960 . S
C326 H339 0.962 . S
C326 H340 0.960 . S
C327 C324 1.511 . S
C327 H341 0.961 . S
C327 H342 0.961 . S
C327 H343 0.961 . S
C328 C329 1.370 . S
C328 C330 1.363 . S
C328 H344 0.931 . S
C329 C328 1.370 . S
C329 C333 1.408 . S
C330 C328 1.363 . S
C330 C331 1.370 . S
C330 C334 1.524 . S
C331 C323 1.503 . S
C331 C330 1.370 . S
C331 C332 1.403 . S
C332 C331 1.403 . S
C332 C333 1.404 . S
C332 C335 1.539 . S
C333 C329 1.408 . S
C333 C332 1.404 . S
C333 H345 0.930 . S
C334 C330 1.524 . S
C334 H346 0.956 . S
C334 H347 0.961 . S
C334 H348 0.961 . S
C335 C332 1.539 . S
C335 H349 0.958 . S
C335 H350 0.961 . S
C335 H351 0.960 . S
H336 C320 0.931 . S
H337 C325 0.929 . S
H338 C326 0.960 . S
H339 C326 0.962 . S
H340 C326 0.960 . S
H341 C327 0.961 . S
H342 C327 0.961 . S
H343 C327 0.961 . S
H344 C328 0.931 . S
H345 C333 0.930 . S
H346 C334 0.956 . S
H347 C334 0.961 . S
H348 C334 0.961 . S
H349 C335 0.958 . S
H350 C335 0.961 . S
H351 C335 0.960 . S
C352 C353 1.391 . S
C352 C354 1.394 . S
C352 H368 0.931 . S
C353 C352 1.391 . S
C353 C357 1.376 . S
C354 C352 1.394 . S
C354 C355 1.369 . S
C354 C358 1.531 . S
C355 C354 1.369 . S
C355 C356 1.410 . S
C355 C363 1.503 . S
C356 C355 1.410 . S
C356 C357 1.392 . S
C356 C359 1.511 . S
C357 C353 1.376 . S
C357 C356 1.392 . S
C357 H369 0.929 . S
C358 C354 1.531 . S
C358 H370 0.960 . S
C358 H371 0.962 . S
C358 H372 0.960 . S
C359 C356 1.511 . S
C359 H373 0.961 . S
C359 H374 0.961 . S
C359 H375 0.961 . S
C360 C361 1.370 . S
C360 C362 1.363 . S
C360 H376 0.931 . S
C361 C360 1.370 . S
C361 C365 1.408 . S
C362 C360 1.363 . S
C362 C363 1.370 . S
C362 C366 1.524 . S
C363 C355 1.503 . S
C363 C362 1.370 . S
C363 C364 1.403 . S
C364 C363 1.403 . S
C364 C365 1.404 . S
C364 C367 1.539 . S
C365 C361 1.408 . S
C365 C364 1.404 . S
C365 H377 0.930 . S
C366 C362 1.524 . S
C366 H378 0.956 . S
C366 H379 0.961 . S
C366 H380 0.961 . S
C367 C364 1.539 . S
C367 H381 0.958 . S
C367 H382 0.961 . S
C367 H383 0.960 . S
H368 C352 0.931 . S
H369 C357 0.929 . S
H370 C358 0.960 . S
H371 C358 0.962 . S
H372 C358 0.960 . S
H373 C359 0.961 . S
H374 C359 0.961 . S
H375 C359 0.961 . S
H376 C360 0.931 . S
H377 C365 0.930 . S
H378 C366 0.956 . S
H379 C366 0.961 . S
H380 C366 0.961 . S
H381 C367 0.958 . S
H382 C367 0.961 . S
H383 C367 0.960 . S
C384 C385 1.391 . S
C384 C386 1.394 . S
C384 H400 0.931 . S
C385 C384 1.391 . S
C385 C389 1.376 . S
C386 C384 1.394 . S
C386 C387 1.369 . S
C386 C390 1.531 . S
C387 C386 1.369 . S
C387 C388 1.410 . S
C387 C395 1.503 . S
C388 C387 1.410 . S
C388 C389 1.392 . S
C388 C391 1.511 . S
C389 C385 1.376 . S
C389 C388 1.392 . S
C389 H401 0.929 . S
C390 C386 1.531 . S
C390 H402 0.960 . S
C390 H403 0.962 . S
C390 H404 0.960 . S
C391 C388 1.511 . S
C391 H405 0.961 . S
C391 H406 0.961 . S
C391 H407 0.961 . S
C392 C393 1.370 . S
C392 C394 1.363 . S
C392 H408 0.931 . S
C393 C392 1.370 . S
C393 C397 1.408 . S
C394 C392 1.363 . S
C394 C395 1.370 . S
C394 C398 1.524 . S
C395 C387 1.503 . S
C395 C394 1.370 . S
C395 C396 1.403 . S
C396 C395 1.403 . S
C396 C397 1.404 . S
C396 C399 1.539 . S
C397 C393 1.408 . S
C397 C396 1.404 . S
C397 H409 0.930 . S
C398 C394 1.524 . S
C398 H410 0.956 . S
C398 H411 0.961 . S
C398 H412 0.961 . S
C399 C396 1.539 . S
C399 H413 0.958 . S
C399 H414 0.961 . S
C399 H415 0.960 . S
H400 C384 0.931 . S
H401 C389 0.929 . S
H402 C390 0.960 . S
H403 C390 0.962 . S
H404 C390 0.960 . S
H405 C391 0.961 . S
H406 C391 0.961 . S
H407 C391 0.961 . S
H408 C392 0.931 . S
H409 C397 0.930 . S
H410 C398 0.956 . S
H411 C398 0.961 . S
H412 C398 0.961 . S
H413 C399 0.958 . S
H414 C399 0.961 . S
H415 C399 0.960 . S
C416 C417 1.391 . S
C416 C418 1.394 . S
C416 H432 0.931 . S
C417 C416 1.391 . S
C417 C421 1.376 . S
C418 C416 1.394 . S
C418 C419 1.369 . S
C418 C422 1.531 . S
C419 C418 1.369 . S
C419 C420 1.410 . S
C419 C427 1.503 . S
C420 C419 1.410 . S
C420 C421 1.392 . S
C420 C423 1.511 . S
C421 C417 1.376 . S
C421 C420 1.392 . S
C421 H433 0.929 . S
C422 C418 1.531 . S
C422 H434 0.960 . S
C422 H435 0.962 . S
C422 H436 0.960 . S
C423 C420 1.511 . S
C423 H437 0.961 . S
C423 H438 0.961 . S
C423 H439 0.961 . S
C424 C425 1.370 . S
C424 C426 1.363 . S
C424 H440 0.931 . S
C425 C424 1.370 . S
C425 C429 1.408 . S
C426 C424 1.363 . S
C426 C427 1.370 . S
C426 C430 1.524 . S
C427 C419 1.503 . S
C427 C426 1.370 . S
C427 C428 1.403 . S
C428 C427 1.403 . S
C428 C429 1.404 . S
C428 C431 1.539 . S
C429 C425 1.408 . S
C429 C428 1.404 . S
C429 H441 0.930 . S
C430 C426 1.524 . S
C430 H442 0.956 . S
C430 H443 0.961 . S
C430 H444 0.961 . S
C431 C428 1.539 . S
C431 H445 0.958 . S
C431 H446 0.961 . S
C431 H447 0.960 . S
H432 C416 0.931 . S
H433 C421 0.929 . S
H434 C422 0.960 . S
H435 C422 0.962 . S
H436 C422 0.960 . S
H437 C423 0.961 . S
H438 C423 0.961 . S
H439 C423 0.961 . S
H440 C424 0.931 . S
H441 C429 0.930 . S
H442 C430 0.956 . S
H443 C430 0.961 . S
H444 C430 0.961 . S
H445 C431 0.958 . S
H446 C431 0.961 . S
H447 C431 0.960 . S
C448 C449 1.391 . S
C448 C450 1.394 . S
C448 H464 0.931 . S
C449 C448 1.391 . S
C449 C453 1.376 . S
C450 C448 1.394 . S
C450 C451 1.369 . S
C450 C454 1.531 . S
C451 C450 1.369 . S
C451 C452 1.410 . S
C451 C459 1.503 . S
C452 C451 1.410 . S
C452 C453 1.392 . S
C452 C455 1.511 . S
C453 C449 1.376 . S
C453 C452 1.392 . S
C453 H465 0.929 . S
C454 C450 1.531 . S
C454 H466 0.960 . S
C454 H467 0.962 . S
C454 H468 0.960 . S
C455 C452 1.511 . S
C455 H469 0.961 . S
C455 H470 0.961 . S
C455 H471 0.961 . S
C456 C457 1.370 . S
C456 C458 1.363 . S
C456 H472 0.931 . S
C457 C456 1.370 . S
C457 C461 1.408 . S
C458 C456 1.363 . S
C458 C459 1.370 . S
C458 C462 1.524 . S
C459 C451 1.503 . S
C459 C458 1.370 . S
C459 C460 1.403 . S
C460 C459 1.403 . S
C460 C461 1.404 . S
C460 C463 1.539 . S
C461 C457 1.408 . S
C461 C460 1.404 . S
C461 H473 0.930 . S
C462 C458 1.524 . S
C462 H474 0.956 . S
C462 H475 0.961 . S
C462 H476 0.961 . S
C463 C460 1.539 . S
C463 H477 0.958 . S
C463 H478 0.961 . S
C463 H479 0.960 . S
H464 C448 0.931 . S
H465 C453 0.929 . S
H466 C454 0.960 . S
H467 C454 0.962 . S
H468 C454 0.960 . S
H469 C455 0.961 . S
H470 C455 0.961 . S
H471 C455 0.961 . S
H472 C456 0.931 . S
H473 C461 0.930 . S
H474 C462 0.956 . S
H475 C462 0.961 . S
H476 C462 0.961 . S
H477 C463 0.958 . S
H478 C463 0.961 . S
H479 C463 0.960 . S
C480 C481 1.391 . S
C480 C482 1.394 . S
C480 H496 0.931 . S
C481 C480 1.391 . S
C481 C485 1.376 . S
C482 C480 1.394 . S
C482 C483 1.369 . S
C482 C486 1.531 . S
C483 C482 1.369 . S
C483 C484 1.410 . S
C483 C491 1.503 . S
C484 C483 1.410 . S
C484 C485 1.392 . S
C484 C487 1.511 . S
C485 C481 1.376 . S
C485 C484 1.392 . S
C485 H497 0.929 . S
C486 C482 1.531 . S
C486 H498 0.960 . S
C486 H499 0.962 . S
C486 H500 0.960 . S
C487 C484 1.511 . S
C487 H501 0.961 . S
C487 H502 0.961 . S
C487 H503 0.961 . S
C488 C489 1.370 . S
C488 C490 1.363 . S
C488 H504 0.931 . S
C489 C488 1.370 . S
C489 C493 1.408 . S
C490 C488 1.363 . S
C490 C491 1.370 . S
C490 C494 1.524 . S
C491 C483 1.503 . S
C491 C490 1.370 . S
C491 C492 1.403 . S
C492 C491 1.403 . S
C492 C493 1.404 . S
C492 C495 1.539 . S
C493 C489 1.408 . S
C493 C492 1.404 . S
C493 H505 0.930 . S
C494 C490 1.524 . S
C494 H506 0.956 . S
C494 H507 0.961 . S
C494 H508 0.961 . S
C495 C492 1.539 . S
C495 H509 0.958 . S
C495 H510 0.961 . S
C495 H511 0.960 . S
H496 C480 0.931 . S
H497 C485 0.929 . S
H498 C486 0.960 . S
H499 C486 0.962 . S
H500 C486 0.960 . S
H501 C487 0.961 . S
H502 C487 0.961 . S
H503 C487 0.961 . S
H504 C488 0.931 . S
H505 C493 0.930 . S
H506 C494 0.956 . S
H507 C494 0.961 . S
H508 C494 0.961 . S
H509 C495 0.958 . S
H510 C495 0.961 . S
H511 C495 0.960 . S
C512 C513 1.391 . S
C512 C514 1.394 . S
C512 H528 0.931 . S
C513 C512 1.391 . S
C513 C517 1.376 . S
C514 C512 1.394 . S
C514 C515 1.369 . S
C514 C518 1.531 . S
C515 C514 1.369 . S
C515 C516 1.410 . S
C515 C523 1.503 . S
C516 C515 1.410 . S
C516 C517 1.392 . S
C516 C519 1.511 . S
C517 C513 1.376 . S
C517 C516 1.392 . S
C517 H529 0.929 . S
C518 C514 1.531 . S
C518 H530 0.960 . S
C518 H531 0.962 . S
C518 H532 0.960 . S
C519 C516 1.511 . S
C519 H533 0.961 . S
C519 H534 0.961 . S
C519 H535 0.961 . S
C520 C521 1.370 . S
C520 C522 1.363 . S
C520 H536 0.931 . S
C521 C520 1.370 . S
C521 C525 1.408 . S
C522 C520 1.363 . S
C522 C523 1.370 . S
C522 C526 1.524 . S
C523 C515 1.503 . S
C523 C522 1.370 . S
C523 C524 1.403 . S
C524 C523 1.403 . S
C524 C525 1.404 . S
C524 C527 1.539 . S
C525 C521 1.408 . S
C525 C524 1.404 . S
C525 H537 0.930 . S
C526 C522 1.524 . S
C526 H538 0.956 . S
C526 H539 0.961 . S
C526 H540 0.961 . S
C527 C524 1.539 . S
C527 H541 0.958 . S
C527 H542 0.961 . S
C527 H543 0.960 . S
H528 C512 0.931 . S
H529 C517 0.929 . S
H530 C518 0.960 . S
H531 C518 0.962 . S
H532 C518 0.960 . S
H533 C519 0.961 . S
H534 C519 0.961 . S
H535 C519 0.961 . S
H536 C520 0.931 . S
H537 C525 0.930 . S
H538 C526 0.956 . S
H539 C526 0.961 . S
H540 C526 0.961 . S
H541 C527 0.958 . S
H542 C527 0.961 . S
H543 C527 0.960 . S
C544 C545 1.391 . S
C544 C546 1.394 . S
C544 H560 0.931 . S
C545 C544 1.391 . S
C545 C549 1.376 . S
C546 C544 1.394 . S
C546 C547 1.369 . S
C546 C550 1.531 . S
C547 C546 1.369 . S
C547 C548 1.410 . S
C547 C555 1.503 . S
C548 C547 1.410 . S
C548 C549 1.392 . S
C548 C551 1.511 . S
C549 C545 1.376 . S
C549 C548 1.392 . S
C549 H561 0.929 . S
C550 C546 1.531 . S
C550 H562 0.960 . S
C550 H563 0.962 . S
C550 H564 0.960 . S
C551 C548 1.511 . S
C551 H565 0.961 . S
C551 H566 0.961 . S
C551 H567 0.961 . S
C552 C553 1.370 . S
C552 C554 1.363 . S
C552 H568 0.931 . S
C553 C552 1.370 . S
C553 C557 1.408 . S
C554 C552 1.363 . S
C554 C555 1.370 . S
C554 C558 1.524 . S
C555 C547 1.503 . S
C555 C554 1.370 . S
C555 C556 1.403 . S
C556 C555 1.403 . S
C556 C557 1.404 . S
C556 C559 1.539 . S
C557 C553 1.408 . S
C557 C556 1.404 . S
C557 H569 0.930 . S
C558 C554 1.524 . S
C558 H570 0.956 . S
C558 H571 0.961 . S
C558 H572 0.961 . S
C559 C556 1.539 . S
C559 H573 0.958 . S
C559 H574 0.961 . S
C559 H575 0.960 . S
H560 C544 0.931 . S
H561 C549 0.929 . S
H562 C550 0.960 . S
H563 C550 0.962 . S
H564 C550 0.960 . S
H565 C551 0.961 . S
H566 C551 0.961 . S
H567 C551 0.961 . S
H568 C552 0.931 . S
H569 C557 0.930 . S
H570 C558 0.956 . S
H571 C558 0.961 . S
H572 C558 0.961 . S
H573 C559 0.958 . S
H574 C559 0.961 . S
H575 C559 0.960 . S
C576 C577 1.391 . S
C576 C578 1.394 . S
C576 H592 0.931 . S
C577 C576 1.391 . S
C577 C581 1.376 . S
C578 C576 1.394 . S
C578 C579 1.369 . S
C578 C582 1.531 . S
C579 C578 1.369 . S
C579 C580 1.410 . S
C579 C587 1.503 . S
C580 C579 1.410 . S
C580 C581 1.392 . S
C580 C583 1.511 . S
C581 C577 1.376 . S
C581 C580 1.392 . S
C581 H593 0.929 . S
C582 C578 1.531 . S
C582 H594 0.960 . S
C582 H595 0.962 . S
C582 H596 0.960 . S
C583 C580 1.511 . S
C583 H597 0.961 . S
C583 H598 0.961 . S
C583 H599 0.961 . S
C584 C585 1.370 . S
C584 C586 1.363 . S
C584 H600 0.931 . S
C585 C584 1.370 . S
C585 C589 1.408 . S
C586 C584 1.363 . S
C586 C587 1.370 . S
C586 C590 1.524 . S
C587 C579 1.503 . S
C587 C586 1.370 . S
C587 C588 1.403 . S
C588 C587 1.403 . S
C588 C589 1.404 . S
C588 C591 1.539 . S
C589 C585 1.408 . S
C589 C588 1.404 . S
C589 H601 0.930 . S
C590 C586 1.524 . S
C590 H602 0.956 . S
C590 H603 0.961 . S
C590 H604 0.961 . S
C591 C588 1.539 . S
C591 H605 0.958 . S
C591 H606 0.961 . S
C591 H607 0.960 . S
H592 C576 0.931 . S
H593 C581 0.929 . S
H594 C582 0.960 . S
H595 C582 0.962 . S
H596 C582 0.960 . S
H597 C583 0.961 . S
H598 C583 0.961 . S
H599 C583 0.961 . S
H600 C584 0.931 . S
H601 C589 0.930 . S
H602 C590 0.956 . S
H603 C590 0.961 . S
H604 C590 0.961 . S
H605 C591 0.958 . S
H606 C591 0.961 . S
H607 C591 0.960 . S
C608 C609 1.391 . S
C608 C610 1.394 . S
C608 H624 0.931 . S
C609 C608 1.391 . S
C609 C613 1.376 . S
C610 C608 1.394 . S
C610 C611 1.369 . S
C610 C614 1.531 . S
C611 C610 1.369 . S
C611 C612 1.410 . S
C611 C619 1.503 . S
C612 C611 1.410 . S
C612 C613 1.392 . S
C612 C615 1.511 . S
C613 C609 1.376 . S
C613 C612 1.392 . S
C613 H625 0.929 . S
C614 C610 1.531 . S
C614 H626 0.960 . S
C614 H627 0.962 . S
C614 H628 0.960 . S
C615 C612 1.511 . S
C615 H629 0.961 . S
C615 H630 0.961 . S
C615 H631 0.961 . S
C616 C617 1.370 . S
C616 C618 1.363 . S
C616 H632 0.931 . S
C617 C616 1.370 . S
C617 C621 1.408 . S
C618 C616 1.363 . S
C618 C619 1.370 . S
C618 C622 1.524 . S
C619 C611 1.503 . S
C619 C618 1.370 . S
C619 C620 1.403 . S
C620 C619 1.403 . S
C620 C621 1.404 . S
C620 C623 1.539 . S
C621 C617 1.408 . S
C621 C620 1.404 . S
C621 H633 0.930 . S
C622 C618 1.524 . S
C622 H634 0.956 . S
C622 H635 0.961 . S
C622 H636 0.961 . S
C623 C620 1.539 . S
C623 H637 0.958 . S
C623 H638 0.961 . S
C623 H639 0.960 . S
H624 C608 0.931 . S
H625 C613 0.929 . S
H626 C614 0.960 . S
H627 C614 0.962 . S
H628 C614 0.960 . S
H629 C615 0.961 . S
H630 C615 0.961 . S
H631 C615 0.961 . S
H632 C616 0.931 . S
H633 C621 0.930 . S
H634 C622 0.956 . S
H635 C622 0.961 . S
H636 C622 0.961 . S
H637 C623 0.958 . S
H638 C623 0.961 . S
H639 C623 0.960 . S
C640 C641 1.391 . S
C640 C642 1.394 . S
C640 H656 0.931 . S
C641 C640 1.391 . S
C641 C645 1.376 . S
C642 C640 1.394 . S
C642 C643 1.369 . S
C642 C646 1.531 . S
C643 C642 1.369 . S
C643 C644 1.410 . S
C643 C651 1.503 . S
C644 C643 1.410 . S
C644 C645 1.392 . S
C644 C647 1.511 . S
C645 C641 1.376 . S
C645 C644 1.392 . S
C645 H657 0.929 . S
C646 C642 1.531 . S
C646 H658 0.960 . S
C646 H659 0.962 . S
C646 H660 0.960 . S
C647 C644 1.511 . S
C647 H661 0.961 . S
C647 H662 0.961 . S
C647 H663 0.961 . S
C648 C649 1.370 . S
C648 C650 1.363 . S
C648 H664 0.931 . S
C649 C648 1.370 . S
C649 C653 1.408 . S
C650 C648 1.363 . S
C650 C651 1.370 . S
C650 C654 1.524 . S
C651 C643 1.503 . S
C651 C650 1.370 . S
C651 C652 1.403 . S
C652 C651 1.403 . S
C652 C653 1.404 . S
C652 C655 1.539 . S
C653 C649 1.408 . S
C653 C652 1.404 . S
C653 H665 0.930 . S
C654 C650 1.524 . S
C654 H666 0.956 . S
C654 H667 0.961 . S
C654 H668 0.961 . S
C655 C652 1.539 . S
C655 H669 0.958 . S
C655 H670 0.961 . S
C655 H671 0.960 . S
H656 C640 0.931 . S
H657 C645 0.929 . S
H658 C646 0.960 . S
H659 C646 0.962 . S
H660 C646 0.960 . S
H661 C647 0.961 . S
H662 C647 0.961 . S
H663 C647 0.961 . S
H664 C648 0.931 . S
H665 C653 0.930 . S
H666 C654 0.956 . S
H667 C654 0.961 . S
H668 C654 0.961 . S
H669 C655 0.958 . S
H670 C655 0.961 . S
H671 C655 0.960 . S
C672 C673 1.391 . S
C672 C674 1.394 . S
C672 H688 0.931 . S
C673 C672 1.391 . S
C673 C677 1.376 1_554 S
C674 C672 1.394 . S
C674 C675 1.369 . S
C674 C678 1.531 . S
C675 C674 1.369 . S
C675 C676 1.410 1_554 S
C675 C683 1.503 . S
C676 C675 1.410 1_556 S
C676 C677 1.392 . S
C676 C679 1.511 . S
C677 C673 1.376 1_556 S
C677 C676 1.392 . S
C677 H689 0.929 . S
C678 C674 1.531 . S
C678 H690 0.960 . S
C678 H691 0.962 . S
C678 H692 0.960 . S
C679 C676 1.511 . S
C679 H693 0.961 . S
C679 H694 0.961 . S
C679 H695 0.961 . S
C680 C681 1.370 1_556 S
C680 C682 1.363 . S
C680 H696 0.931 . S
C681 C680 1.370 1_554 S
C681 C685 1.408 . S
C682 C680 1.363 . S
C682 C683 1.370 1_556 S
C682 C686 1.524 . S
C683 C675 1.503 . S
C683 C682 1.370 1_554 S
C683 C684 1.403 . S
C684 C683 1.403 . S
C684 C685 1.404 . S
C684 C687 1.539 . S
C685 C681 1.408 . S
C685 C684 1.404 . S
C685 H697 0.930 . S
C686 C682 1.524 . S
C686 H698 0.956 . S
C686 H699 0.961 . S
C686 H700 0.961 . S
C687 C684 1.539 . S
C687 H701 0.958 . S
C687 H702 0.961 . S
C687 H703 0.960 . S
H688 C672 0.931 . S
H689 C677 0.929 . S
H690 C678 0.960 . S
H691 C678 0.962 . S
H692 C678 0.960 . S
H693 C679 0.961 . S
H694 C679 0.961 . S
H695 C679 0.961 . S
H696 C680 0.931 . S
H697 C685 0.930 . S
H698 C686 0.956 . S
H699 C686 0.961 . S
H700 C686 0.961 . S
H701 C687 0.958 . S
H702 C687 0.961 . S
H703 C687 0.960 . S
C704 C705 1.391 . S
C704 C706 1.394 . S
C704 H720 0.931 . S
C705 C704 1.391 . S
C705 C709 1.376 . S
C706 C704 1.394 . S
C706 C707 1.369 . S
C706 C710 1.531 . S
C707 C706 1.369 . S
C707 C708 1.410 . S
C707 C715 1.503 . S
C708 C707 1.410 . S
C708 C709 1.392 . S
C708 C711 1.511 . S
C709 C705 1.376 . S
C709 C708 1.392 . S
C709 H721 0.929 . S
C710 C706 1.531 . S
C710 H722 0.960 . S
C710 H723 0.962 . S
C710 H724 0.960 . S
C711 C708 1.511 . S
C711 H725 0.961 . S
C711 H726 0.961 . S
C711 H727 0.961 . S
C712 C713 1.370 . S
C712 C714 1.363 . S
C712 H728 0.931 . S
C713 C712 1.370 . S
C713 C717 1.408 . S
C714 C712 1.363 . S
C714 C715 1.370 . S
C714 C718 1.524 . S
C715 C707 1.503 . S
C715 C714 1.370 . S
C715 C716 1.403 . S
C716 C715 1.403 . S
C716 C717 1.404 . S
C716 C719 1.539 . S
C717 C713 1.408 . S
C717 C716 1.404 . S
C717 H729 0.930 . S
C718 C714 1.524 . S
C718 H730 0.956 . S
C718 H731 0.961 . S
C718 H732 0.961 . S
C719 C716 1.539 . S
C719 H733 0.958 . S
C719 H734 0.961 . S
C719 H735 0.960 . S
H720 C704 0.931 . S
H721 C709 0.929 . S
H722 C710 0.960 . S
H723 C710 0.962 . S
H724 C710 0.960 . S
H725 C711 0.961 . S
H726 C711 0.961 . S
H727 C711 0.961 . S
H728 C712 0.931 . S
H729 C717 0.930 . S
H730 C718 0.956 . S
H731 C718 0.961 . S
H732 C718 0.961 . S
H733 C719 0.958 . S
H734 C719 0.961 . S
H735 C719 0.960 . S
C736 C737 1.391 . S
C736 C738 1.394 . S
C736 H752 0.931 . S
C737 C736 1.391 . S
C737 C741 1.376 1_556 S
C738 C736 1.394 . S
C738 C739 1.369 . S
C738 C742 1.531 . S
C739 C738 1.369 . S
C739 C740 1.410 1_556 S
C739 C747 1.503 . S
C740 C739 1.410 1_554 S
C740 C741 1.392 . S
C740 C743 1.511 . S
C741 C737 1.376 1_554 S
C741 C740 1.392 . S
C741 H753 0.929 . S
C742 C738 1.531 . S
C742 H754 0.960 . S
C742 H755 0.962 . S
C742 H756 0.960 . S
C743 C740 1.511 . S
C743 H757 0.961 . S
C743 H758 0.961 . S
C743 H759 0.961 . S
C744 C745 1.370 1_554 S
C744 C746 1.363 . S
C744 H760 0.931 . S
C745 C744 1.370 1_556 S
C745 C749 1.408 . S
C746 C744 1.363 . S
C746 C747 1.370 1_554 S
C746 C750 1.524 . S
C747 C739 1.503 . S
C747 C746 1.370 1_556 S
C747 C748 1.403 . S
C748 C747 1.403 . S
C748 C749 1.404 . S
C748 C751 1.539 . S
C749 C745 1.408 . S
C749 C748 1.404 . S
C749 H761 0.930 . S
C750 C746 1.524 . S
C750 H762 0.956 . S
C750 H763 0.961 . S
C750 H764 0.961 . S
C751 C748 1.539 . S
C751 H765 0.958 . S
C751 H766 0.961 . S
C751 H767 0.960 . S
H752 C736 0.931 . S
H753 C741 0.929 . S
H754 C742 0.960 . S
H755 C742 0.962 . S
H756 C742 0.960 . S
H757 C743 0.961 . S
H758 C743 0.961 . S
H759 C743 0.961 . S
H760 C744 0.931 . S
H761 C749 0.930 . S
H762 C750 0.956 . S
H763 C750 0.961 . S
H764 C750 0.961 . S
H765 C751 0.958 . S
H766 C751 0.961 . S
H767 C751 0.960 . S
C768 C769 1.391 . S
C768 C770 1.394 . S
C768 H784 0.931 . S
C769 C768 1.391 . S
C769 C773 1.376 . S
C770 C768 1.394 . S
C770 C771 1.369 . S
C770 C774 1.531 . S
C771 C770 1.369 . S
C771 C772 1.410 . S
C771 C779 1.503 . S
C772 C771 1.410 . S
C772 C773 1.392 . S
C772 C775 1.511 . S
C773 C769 1.376 . S
C773 C772 1.392 . S
C773 H785 0.929 . S
C774 C770 1.531 . S
C774 H786 0.960 . S
C774 H787 0.962 . S
C774 H788 0.960 . S
C775 C772 1.511 . S
C775 H789 0.961 . S
C775 H790 0.961 . S
C775 H791 0.961 . S
C776 C777 1.370 . S
C776 C778 1.363 . S
C776 H792 0.931 . S
C777 C776 1.370 . S
C777 C781 1.408 . S
C778 C776 1.363 . S
C778 C779 1.370 . S
C778 C782 1.524 . S
C779 C771 1.503 . S
C779 C778 1.370 . S
C779 C780 1.403 . S
C780 C779 1.403 . S
C780 C781 1.404 . S
C780 C783 1.539 . S
C781 C777 1.408 . S
C781 C780 1.404 . S
C781 H793 0.930 . S
C782 C778 1.524 . S
C782 H794 0.956 . S
C782 H795 0.961 . S
C782 H796 0.961 . S
C783 C780 1.539 . S
C783 H797 0.958 . S
C783 H798 0.961 . S
C783 H799 0.960 . S
H784 C768 0.931 . S
H785 C773 0.929 . S
H786 C774 0.960 . S
H787 C774 0.962 . S
H788 C774 0.960 . S
H789 C775 0.961 . S
H790 C775 0.961 . S
H791 C775 0.961 . S
H792 C776 0.931 . S
H793 C781 0.930 . S
H794 C782 0.956 . S
H795 C782 0.961 . S
H796 C782 0.961 . S
H797 C783 0.958 . S
H798 C783 0.961 . S
H799 C783 0.960 . S
C800 C801 1.391 . S
C800 C802 1.394 . S
C800 H816 0.931 . S
C801 C800 1.391 . S
C801 C805 1.376 . S
C802 C800 1.394 . S
C802 C803 1.369 . S
C802 C806 1.531 . S
C803 C802 1.369 . S
C803 C804 1.410 . S
C803 C811 1.503 . S
C804 C803 1.410 . S
C804 C805 1.392 . S
C804 C807 1.511 . S
C805 C801 1.376 . S
C805 C804 1.392 . S
C805 H817 0.929 . S
C806 C802 1.531 . S
C806 H818 0.960 . S
C806 H819 0.962 . S
C806 H820 0.960 . S
C807 C804 1.511 . S
C807 H821 0.961 . S
C807 H822 0.961 . S
C807 H823 0.961 . S
C808 C809 1.370 . S
C808 C810 1.363 . S
C808 H824 0.931 . S
C809 C808 1.370 . S
C809 C813 1.408 . S
C810 C808 1.363 . S
C810 C811 1.370 . S
C810 C814 1.524 . S
C811 C803 1.503 . S
C811 C810 1.370 . S
C811 C812 1.403 . S
C812 C811 1.403 . S
C812 C813 1.404 . S
C812 C815 1.539 . S
C813 C809 1.408 . S
C813 C812 1.404 . S
C813 H825 0.930 . S
C814 C810 1.524 . S
C814 H826 0.956 . S
C814 H827 0.961 . S
C814 H828 0.961 . S
C815 C812 1.539 . S
C815 H829 0.958 . S
C815 H830 0.961 . S
C815 H831 0.960 . S
H816 C800 0.931 . S
H817 C805 0.929 . S
H818 C806 0.960 . S
H819 C806 0.962 . S
H820 C806 0.960 . S
H821 C807 0.961 . S
H822 C807 0.961 . S
H823 C807 0.961 . S
H824 C808 0.931 . S
H825 C813 0.930 . S
H826 C814 0.956 . S
H827 C814 0.961 . S
H828 C814 0.961 . S
H829 C815 0.958 . S
H830 C815 0.961 . S
H831 C815 0.960 . S
C832 C833 1.391 1_554 S
C832 C834 1.394 . S
C832 H848 0.931 . S
C833 C832 1.391 1_556 S
C833 C837 1.376 . S
C834 C832 1.394 . S
C834 C835 1.369 1_554 S
C834 C838 1.531 . S
C835 C834 1.369 1_556 S
C835 C836 1.410 . S
C835 C843 1.503 . S
C836 C835 1.410 . S
C836 C837 1.392 . S
C836 C839 1.511 . S
C837 C833 1.376 . S
C837 C836 1.392 . S
C837 H849 0.929 . S
C838 C834 1.531 . S
C838 H850 0.960 . S
C838 H851 0.962 . S
C838 H852 0.960 . S
C839 C836 1.511 . S
C839 H853 0.961 . S
C839 H854 0.961 . S
C839 H855 0.961 . S
C840 C841 1.370 1_554 S
C840 C842 1.363 . S
C840 H856 0.931 . S
C841 C840 1.370 1_556 S
C841 C845 1.408 . S
C842 C840 1.363 . S
C842 C843 1.370 1_554 S
C842 C846 1.524 . S
C843 C835 1.503 . S
C843 C842 1.370 1_556 S
C843 C844 1.403 . S
C844 C843 1.403 . S
C844 C845 1.404 . S
C844 C847 1.539 . S
C845 C841 1.408 . S
C845 C844 1.404 . S
C845 H857 0.930 . S
C846 C842 1.524 . S
C846 H858 0.956 . S
C846 H859 0.961 . S
C846 H860 0.961 . S
C847 C844 1.539 . S
C847 H861 0.958 . S
C847 H862 0.961 . S
C847 H863 0.960 . S
H848 C832 0.931 . S
H849 C837 0.929 . S
H850 C838 0.960 . S
H851 C838 0.962 . S
H852 C838 0.960 . S
H853 C839 0.961 . S
H854 C839 0.961 . S
H855 C839 0.961 . S
H856 C840 0.931 . S
H857 C845 0.930 . S
H858 C846 0.956 . S
H859 C846 0.961 . S
H860 C846 0.961 . S
H861 C847 0.958 . S
H862 C847 0.961 . S
H863 C847 0.960 . S
C864 C865 1.391 . S
C864 C866 1.394 . S
C864 H880 0.931 . S
C865 C864 1.391 . S
C865 C869 1.376 . S
C866 C864 1.394 . S
C866 C867 1.369 . S
C866 C870 1.531 . S
C867 C866 1.369 . S
C867 C868 1.410 . S
C867 C875 1.503 . S
C868 C867 1.410 . S
C868 C869 1.392 . S
C868 C871 1.511 . S
C869 C865 1.376 . S
C869 C868 1.392 . S
C869 H881 0.929 . S
C870 C866 1.531 . S
C870 H882 0.960 . S
C870 H883 0.962 . S
C870 H884 0.960 . S
C871 C868 1.511 . S
C871 H885 0.961 . S
C871 H886 0.961 . S
C871 H887 0.961 . S
C872 C873 1.370 . S
C872 C874 1.363 . S
C872 H888 0.931 . S
C873 C872 1.370 . S
C873 C877 1.408 . S
C874 C872 1.363 . S
C874 C875 1.370 . S
C874 C878 1.524 . S
C875 C867 1.503 . S
C875 C874 1.370 . S
C875 C876 1.403 . S
C876 C875 1.403 . S
C876 C877 1.404 . S
C876 C879 1.539 . S
C877 C873 1.408 . S
C877 C876 1.404 . S
C877 H889 0.930 . S
C878 C874 1.524 . S
C878 H890 0.956 . S
C878 H891 0.961 . S
C878 H892 0.961 . S
C879 C876 1.539 . S
C879 H893 0.958 . S
C879 H894 0.961 . S
C879 H895 0.960 . S
H880 C864 0.931 . S
H881 C869 0.929 . S
H882 C870 0.960 . S
H883 C870 0.962 . S
H884 C870 0.960 . S
H885 C871 0.961 . S
H886 C871 0.961 . S
H887 C871 0.961 . S
H888 C872 0.931 . S
H889 C877 0.930 . S
H890 C878 0.956 . S
H891 C878 0.961 . S
H892 C878 0.961 . S
H893 C879 0.958 . S
H894 C879 0.961 . S
H895 C879 0.960 . S
C896 C897 1.391 . S
C896 C898 1.394 . S
C896 H912 0.931 . S
C897 C896 1.391 . S
C897 C901 1.376 1_556 S
C898 C896 1.394 . S
C898 C899 1.369 . S
C898 C902 1.531 . S
C899 C898 1.369 . S
C899 C900 1.410 1_556 S
C899 C907 1.503 . S
C900 C899 1.410 1_554 S
C900 C901 1.392 . S
C900 C903 1.511 . S
C901 C897 1.376 1_554 S
C901 C900 1.392 . S
C901 H913 0.929 . S
C902 C898 1.531 . S
C902 H914 0.960 . S
C902 H915 0.962 . S
C902 H916 0.960 . S
C903 C900 1.511 . S
C903 H917 0.961 . S
C903 H918 0.961 . S
C903 H919 0.961 1_554 S
C904 C905 1.370 1_554 S
C904 C906 1.363 . S
C904 H920 0.931 . S
C905 C904 1.370 1_556 S
C905 C909 1.408 . S
C906 C904 1.363 . S
C906 C907 1.370 1_554 S
C906 C910 1.524 . S
C907 C899 1.503 . S
C907 C906 1.370 1_556 S
C907 C908 1.403 . S
C908 C907 1.403 . S
C908 C909 1.404 . S
C908 C911 1.539 . S
C909 C905 1.408 . S
C909 C908 1.404 . S
C909 H921 0.930 . S
C910 C906 1.524 . S
C910 H922 0.956 . S
C910 H923 0.961 . S
C910 H924 0.961 . S
C911 C908 1.539 . S
C911 H925 0.958 . S
C911 H926 0.961 . S
C911 H927 0.960 . S
H912 C896 0.931 . S
H913 C901 0.929 . S
H914 C902 0.960 . S
H915 C902 0.962 . S
H916 C902 0.960 . S
H917 C903 0.961 . S
H918 C903 0.961 . S
H919 C903 0.961 1_556 S
H920 C904 0.931 . S
H921 C909 0.930 . S
H922 C910 0.956 . S
H923 C910 0.961 . S
H924 C910 0.961 . S
H925 C911 0.958 . S
H926 C911 0.961 . S
H927 C911 0.960 . S
C161 C21 1.487 . S
C169 C119 1.507 . S
C193 C40 1.537 . S
C201 C93 1.514 . S
C233 C102 1.459 . S
C225 C54 1.478 . S
C257 C73 1.561 . S
C265 C110 1.557 . S
C297 C138 1.453 . S
C289 C74 1.456 . S
C329 C146 1.512 . S
C321 C10 1.528 . S
C361 C155 1.513 . S
C353 C37 1.520 . S
C393 C129 1.550 . S
C385 C65 1.553 . S
C417 C52 1.477 . S
C425 C101 1.459 . S
C449 C87 1.555 . S
C457 C111 1.551 . S
C481 C15 1.485 . S
C489 C120 1.518 . S
C521 C92 1.520 . S
C513 C32 1.539 . S
C545 C29 1.501 . S
C553 C156 1.520 . S
C585 C128 1.559 . S
C577 C59 1.560 . S
C617 C137 1.461 . S
C609 C84 1.477 . S
C641 C8 1.521 . S
C649 C147 1.499 . S
C681 C95 1.615 1_554 S
C673 C7 1.627 . S
C713 C104 1.556 . S
C705 C30 1.556 . S
C737 C62 1.651 1_556 S
C745 C113 1.627 1_556 S
C769 C81 1.546 . S
C777 C122 1.572 . S
C809 C131 1.621 . S
C801 C76 1.647 . S
C833 C18 1.563 . S
C841 C140 1.550 1_556 S
C865 C43 1.640 . S
C873 C149 1.620 . S
C897 C51 1.552 . S
C905 C158 1.570 1_556 S
