# Generated by pormake.
# Topology zzz, (3,6)-cn, num edge types: 1
# Building blocks:
#     Node 0, Type 0, BuildingBlock: ESEHIV_clean_linker_0, # of connection points: 3
#     Node 1, Type 0, BuildingBlock: ESEHIV_clean_linker_0, # of connection points: 3
#     Node 2, Type 0, BuildingBlock: ESEHIV_clean_linker_0, # of connection points: 3
#     Node 3, Type 0, BuildingBlock: ESEHIV_clean_linker_0, # of connection points: 3
#     Node 4, Type 0, BuildingBlock: ESEHIV_clean_linker_0, # of connection points: 3
#     Node 5, Type 0, BuildingBlock: ESEHIV_clean_linker_0, # of connection points: 3
#     Node 6, Type 0, BuildingBlock: ESEHIV_clean_linker_0, # of connection points: 3
#     Node 7, Type 0, BuildingBlock: ESEHIV_clean_linker_0, # of connection points: 3
#     Node 8, Type 1, BuildingBlock: MIFKUJ_clean_sbu_0, # of connection points: 6
#     Node 9, Type 1, BuildingBlock: MIFKUJ_clean_sbu_0, # of connection points: 6
#     Node 10, Type 1, BuildingBlock: MIFKUJ_clean_sbu_0, # of connection points: 6
#     Node 11, Type 1, BuildingBlock: MIFKUJ_clean_sbu_0, # of connection points: 6
#     Edge 12, Type (0, 1), BuildingBlock: TEMPAE_clean_linker_10, # of connection points: 2
#     Edge 13, Type (0, 1), BuildingBlock: TEMPAE_clean_linker_10, # of connection points: 2
#     Edge 14, Type (0, 1), BuildingBlock: TEMPAE_clean_linker_10, # of connection points: 2
#     Edge 15, Type (0, 1), BuildingBlock: TEMPAE_clean_linker_10, # of connection points: 2
#     Edge 16, Type (0, 1), BuildingBlock: TEMPAE_clean_linker_10, # of connection points: 2
#     Edge 17, Type (0, 1), BuildingBlock: TEMPAE_clean_linker_10, # of connection points: 2
#     Edge 18, Type (0, 1), BuildingBlock: TEMPAE_clean_linker_10, # of connection points: 2
#     Edge 19, Type (0, 1), BuildingBlock: TEMPAE_clean_linker_10, # of connection points: 2
#     Edge 20, Type (0, 1), BuildingBlock: TEMPAE_clean_linker_10, # of connection points: 2
#     Edge 21, Type (0, 1), BuildingBlock: TEMPAE_clean_linker_10, # of connection points: 2
#     Edge 22, Type (0, 1), BuildingBlock: TEMPAE_clean_linker_10, # of connection points: 2
#     Edge 23, Type (0, 1), BuildingBlock: TEMPAE_clean_linker_10, # of connection points: 2
#     Edge 24, Type (0, 1), BuildingBlock: TEMPAE_clean_linker_10, # of connection points: 2
#     Edge 25, Type (0, 1), BuildingBlock: TEMPAE_clean_linker_10, # of connection points: 2
#     Edge 26, Type (0, 1), BuildingBlock: TEMPAE_clean_linker_10, # of connection points: 2
#     Edge 27, Type (0, 1), BuildingBlock: TEMPAE_clean_linker_10, # of connection points: 2
#     Edge 28, Type (0, 1), BuildingBlock: TEMPAE_clean_linker_10, # of connection points: 2
#     Edge 29, Type (0, 1), BuildingBlock: TEMPAE_clean_linker_10, # of connection points: 2
#     Edge 30, Type (0, 1), BuildingBlock: TEMPAE_clean_linker_10, # of connection points: 2
#     Edge 31, Type (0, 1), BuildingBlock: TEMPAE_clean_linker_10, # of connection points: 2
#     Edge 32, Type (0, 1), BuildingBlock: TEMPAE_clean_linker_10, # of connection points: 2
#     Edge 33, Type (0, 1), BuildingBlock: TEMPAE_clean_linker_10, # of connection points: 2
#     Edge 34, Type (0, 1), BuildingBlock: TEMPAE_clean_linker_10, # of connection points: 2
#     Edge 35, Type (0, 1), BuildingBlock: TEMPAE_clean_linker_10, # of connection points: 2
# Relax obj value: 0.323
# Max RMSD: 0.207
# Mean RMSD: 0.191
data_MOF--net-zzz--node1-MIFKUJ_clean_sbu_0--node2-ESEHIV_clean_linker_0--edge1-TEMPAE_clean_linker_10
_symmetry_space_group_name_H-M    P1
_symmetry_Int_Tables_number       1
_symmetry_cell_setting            triclinic
loop_
_symmetry_equiv_pos_as_xyz
'x, y, z'
_cell_length_a     43.875355
_cell_length_b     44.818621
_cell_length_c     16.689087
_cell_angle_alpha  88.81088
_cell_angle_beta   89.790746
_cell_angle_gamma 91.721781
loop_
_atom_site_label
_atom_site_type_symbol
_atom_site_fract_x
_atom_site_fract_y
_atom_site_fract_z
_atom_type_partial_charge
H0 H 0.78998 0.6111 0.12168 0.0
H1 H 0.72142 0.61433 0.94282 0.0
H2 H 0.70504 0.56308 0.15972 0.0
C3 C 0.76618 0.60776 0.10535 0.0
C4 C 0.74756 0.58903 0.15423 0.0
C5 C 0.75831 0.61215 0.02534 0.0
C6 C 0.72758 0.60921 0.00441 0.0
C7 C 0.70797 0.59052 0.05118 0.0
C8 C 0.71828 0.58004 0.12663 0.0
H9 H 0.01467 0.77343 0.14987 0.0
H10 H 0.01877 0.70149 0.98425 0.0
H11 H 0.97748 0.68688 0.21675 0.0
C12 C 0.01126 0.75011 0.13547 0.0
C13 C 0.99767 0.73097 0.19354 0.0
C14 C 0.01913 0.74005 0.0595 0.0
C15 C 0.0126 0.71014 0.04207 0.0
C16 C 0.99674 0.69122 0.09695 0.0
C17 C 0.98944 0.70144 0.17376 0.0
H18 H 0.70419 0.91059 0.11064 0.0
H19 H 0.78497 0.90717 0.96747 0.0
H20 H 0.7882 0.94773 0.19902 0.0
C21 C 0.7287 0.91296 0.10487 0.0
C22 C 0.74513 0.92536 0.16885 0.0
C23 C 0.74238 0.9072 0.03108 0.0
C24 C 0.77378 0.91218 0.02343 0.0
C25 C 0.78996 0.92877 0.08048 0.0
C26 C 0.77588 0.93486 0.15478 0.0
H27 H 0.45893 0.7099 0.08907 0.0
H28 H 0.49167 0.79049 0.20198 0.0
H29 H 0.46345 0.79153 0.9538 0.0
C30 C 0.46344 0.73385 0.08781 0.0
C31 C 0.45863 0.7495 0.01628 0.0
C32 C 0.47444 0.74805 0.1565 0.0
C33 C 0.48267 0.7789 0.1505 0.0
C34 C 0.47868 0.7946 0.07667 0.0
C35 C 0.46654 0.77965 0.01042 0.0
H36 H 0.21222 0.39869 0.11822 0.0
H37 H 0.29314 0.40221 0.25852 0.0
H38 H 0.29387 0.44049 0.02068 0.0
C39 C 0.2368 0.40222 0.12113 0.0
C40 C 0.2517 0.41766 0.05771 0.0
C41 C 0.25093 0.39988 0.19565 0.0
C42 C 0.28249 0.40398 0.20002 0.0
C43 C 0.29849 0.41869 0.13716 0.0
C44 C 0.28278 0.42628 0.06602 0.0
H45 H 0.0041 0.2311 0.055 0.0
H46 H 0.99371 0.2989 0.2287 0.0
H47 H 0.02034 0.32346 0.98606 0.0
C48 C 0.00514 0.25454 0.07035 0.0
C49 C 0.01338 0.27612 0.01179 0.0
C50 C 0.99782 0.26267 0.1479 0.0
C51 C 0.9994 0.29264 0.1681 0.0
C52 C 0.00732 0.31474 0.11023 0.0
C53 C 0.01456 0.30655 0.03137 0.0
H54 H 0.29261 0.09477 0.05747 0.0
H55 H 0.22256 0.1133 0.22346 0.0
H56 H 0.20734 0.04651 0.04291 0.0
C57 C 0.26884 0.09258 0.07571 0.0
C58 C 0.24962 0.07261 0.03508 0.0
C59 C 0.26027 0.10299 0.1502 0.0
C60 C 0.22931 0.10178 0.17018 0.0
C61 C 0.21015 0.07935 0.13756 0.0
C62 C 0.22057 0.06479 0.06808 0.0
H63 H 0.54599 0.29228 0.06042 0.0
H64 H 0.51161 0.20554 0.9907 0.0
H65 H 0.55429 0.21744 0.22095 0.0
C66 C 0.5436 0.26837 0.0718 0.0
C67 C 0.55221 0.25663 0.14606 0.0
C68 C 0.52895 0.25033 0.01526 0.0
C69 C 0.5238 0.21955 0.03273 0.0
C70 C 0.53419 0.20735 0.10636 0.0
C71 C 0.54821 0.22619 0.16219 0.0
Zn72 Zn 0.99392 0.04801 0.62546 0.0
Zn73 Zn 0.00249 0.95774 0.59162 0.0
C74 C 0.00241 0.09031 0.75181 0.0
O75 O 0.97783 0.07696 0.78221 0.0
C76 C 0.99731 0.9174 0.46382 0.0
O77 O 0.02412 0.92958 0.44586 0.0
O78 O 0.96843 0.07252 0.55193 0.0
O79 O 0.02472 0.03031 0.5499 0.0
O80 O 0.03245 0.98287 0.52605 0.0
C81 C 0.98668 0.09049 0.51485 0.0
O82 O 0.01583 0.09054 0.53202 0.0
O83 O 0.015 0.07963 0.6906 0.0
C84 C 0.00636 0.91185 0.69447 0.0
O85 O 0.97719 0.91496 0.68021 0.0
O86 O 0.02559 0.92985 0.66096 0.0
O87 O 0.97261 0.97528 0.6701 0.0
O88 O 0.96642 0.02273 0.69794 0.0
O89 O 0.9815 0.92837 0.51926 0.0
C90 C 0.03891 0.01031 0.51346 0.0
C91 C 0.95945 0.99528 0.70922 0.0
Zn92 Zn 0.46521 0.99724 0.5832 0.0
Zn93 Zn 0.53527 0.00794 0.62449 0.0
C94 C 0.41992 -0.00059 0.6972 0.0
O95 O 0.41755 0.97315 0.66377 0.0
C96 C 0.57121 -0.00138 0.48647 0.0
O97 O 0.57574 0.0273 0.49784 0.0
O98 O 0.4296 0.99511 0.50779 0.0
O99 O 0.49349 0.02255 0.50922 0.0
O100 O 0.52496 0.04909 0.58332 0.0
C101 C 0.42203 0.02234 0.50189 0.0
O102 O 0.43828 0.04288 0.53896 0.0
O103 O 0.44309 0.01624 0.67903 0.0
C104 C 0.57782 0.97728 0.69585 0.0
O105 O 0.55697 0.95855 0.66848 0.0
O106 O 0.57375 0.00531 0.68871 0.0
O107 O 0.50498 0.98828 0.70381 0.0
O108 O 0.47969 0.9576 0.62638 0.0
O109 O 0.55062 0.98451 0.52779 0.0
C110 C 0.50992 0.04599 0.51899 0.0
C111 C 0.49174 0.96306 0.69387 0.0
Zn112 Zn 0.51918 0.47829 0.56914 0.0
Zn113 Zn 0.47974 0.524 0.64132 0.0
C114 C 0.51972 0.43418 0.69408 0.0
O115 O 0.54837 0.44353 0.69233 0.0
C116 C 0.47674 0.57502 0.5396 0.0
O117 O 0.44811 0.56963 0.55967 0.0
O118 O 0.54409 0.45119 0.50463 0.0
O119 O 0.48836 0.4944 0.4897 0.0
O120 O 0.45222 0.49523 0.58003 0.0
C121 C 0.5267 0.43253 0.46943 0.0
O122 O 0.49701 0.43443 0.47618 0.0
O123 O 0.50059 0.44739 0.64938 0.0
C124 C 0.4691 0.56575 0.75557 0.0
O125 O 0.49884 0.5635 0.75776 0.0
O126 O 0.45352 0.5484 0.71139 0.0
O127 O 0.51239 0.50836 0.71744 0.0
O128 O 0.54737 0.50795 0.62381 0.0
O129 O 0.49677 0.55672 0.56298 0.0
C130 C 0.46026 0.4919 0.50765 0.0
C131 C 0.54003 0.51214 0.6961 0.0
Zn132 Zn 0.04461 0.51023 0.5846 0.0
Zn133 Zn 0.95735 0.49668 0.60413 0.0
C134 C 0.09013 0.4979 0.6891 0.0
O135 O 0.09424 0.52568 0.66364 0.0
C136 C 0.91031 0.49657 0.491 0.0
O137 O 0.90486 0.47186 0.53309 0.0
O138 O 0.07768 0.51755 0.50392 0.0
O139 O 0.00863 0.49239 0.52161 0.0
O140 O 0.9771 0.45896 0.57353 0.0
C141 C 0.08265 0.49249 0.47309 0.0
O142 O 0.06547 0.46919 0.49404 0.0
O143 O 0.06625 0.4835 0.66627 0.0
C144 C 0.91304 0.51825 0.68616 0.0
O145 O 0.92428 0.53963 0.63873 0.0
O146 O 0.92529 0.49292 0.68811 0.0
O147 O 0.98745 0.52719 0.64594 0.0
O148 O 0.03351 0.54685 0.64477 0.0
O149 O 0.93474 0.51164 0.50467 0.0
C150 C 0.99921 0.46531 0.52645 0.0
C151 C 0.00651 0.54642 0.67217 0.0
C152 C 0.15692 0.05509 0.15026 0.0
C153 C 0.18295 0.06802 0.18597 0.0
C154 C 0.13195 0.04421 0.19734 0.0
C155 C 0.1329 0.04645 0.28202 0.0
C156 C 0.15903 0.05923 0.31829 0.0
C157 C 0.18355 0.06942 0.27042 0.0
C158 C 0.10448 0.03047 0.15662 0.0
C159 C 0.16119 0.06229 0.40828 0.0
C160 C 0.06269 0.04774 0.41583 0.0
C161 C 0.0622 0.01908 0.45143 0.0
C162 C 0.08454 0.05642 0.35744 0.0
C163 C 0.10675 0.03599 0.33405 0.0
C164 C 0.10603 0.00678 0.3684 0.0
C165 C 0.0836 -0.00141 0.42593 0.0
C166 C 0.08434 0.08774 0.32228 0.0
C167 C 0.12974 0.98455 0.34687 0.0
H168 H 0.15588 0.05372 0.08561 0.0
H169 H 0.20338 0.07824 0.30087 0.0
H170 H 0.09985 0.00753 0.18079 0.0
H171 H 0.08408 0.04364 0.16943 0.0
H172 H 0.10755 0.02945 0.09064 0.0
H173 H 0.18317 0.07283 0.4272 0.0
H174 H 0.14239 0.07603 0.43022 0.0
H175 H 0.15869 0.04001 0.4382 0.0
H176 H 0.04587 0.06344 0.43316 0.0
H177 H 0.08332 0.9763 0.45244 0.0
H178 H 0.0819 0.0869 0.25622 0.0
H179 H 0.10631 0.09963 0.33473 0.0
H180 H 0.06558 0.10096 0.3468 0.0
H181 H 0.13078 0.98208 0.28093 0.0
H182 H 0.12505 0.96225 0.37532 0.0
H183 H 0.15255 0.99281 0.36649 0.0
C184 C 0.55309 0.15919 0.15789 0.0
C185 C 0.5282 0.17607 0.13374 0.0
C186 C 0.54951 0.13561 0.21413 0.0
C187 C 0.52025 0.12855 0.24651 0.0
C188 C 0.49456 0.14352 0.21607 0.0
C189 C 0.49888 0.16726 0.16011 0.0
C190 C 0.57749 0.12012 0.24411 0.0
C191 C 0.46287 0.13633 0.24777 0.0
C192 C 0.50998 0.057 0.3718 0.0
C193 C 0.51362 0.06735 0.45023 0.0
C194 C 0.51194 0.07658 0.30509 0.0
C195 C 0.51712 0.10746 0.31682 0.0
C196 C 0.52056 0.11813 0.39595 0.0
C197 C 0.51916 0.09788 0.46171 0.0
C198 C 0.50872 0.06417 0.22201 0.0
C199 C 0.5257 0.15098 0.41113 0.0
H200 H 0.57583 0.16631 0.13846 0.0
H201 H 0.4797 0.18063 0.14277 0.0
H202 H 0.58234 0.12691 0.30646 0.0
H203 H 0.57361 0.09554 0.2452 0.0
H204 H 0.59792 0.12575 0.20662 0.0
H205 H 0.44506 0.14666 0.21005 0.0
H206 H 0.4584 0.11184 0.25098 0.0
H207 H 0.46083 0.14481 0.30951 0.0
H208 H 0.50585 0.03336 0.36239 0.0
H209 H 0.52165 0.10601 0.52213 0.0
H210 H 0.52997 0.06892 0.18722 0.0
H211 H 0.48998 0.07522 0.18958 0.0
H212 H 0.50399 0.03967 0.22315 0.0
H213 H 0.54785 0.15876 0.38467 0.0
H214 H 0.52581 0.15593 0.47608 0.0
H215 H 0.50764 0.16404 0.38163 0.0
C216 C 0.35214 0.41492 0.18286 0.0
C217 C 0.32806 0.43296 0.15943 0.0
C218 C 0.37554 0.42589 0.2326 0.0
C219 C 0.37455 0.45549 0.26061 0.0
C220 C 0.35136 0.47439 0.23263 0.0
C221 C 0.32847 0.46292 0.18202 0.0
C222 C 0.3999 0.40501 0.26037 0.0
C223 C 0.34926 0.50598 0.26129 0.0
C224 C 0.40922 0.4708 0.46562 0.0
C225 C 0.4377 0.48381 0.44489 0.0
C226 C 0.3885 0.4615 0.40627 0.0
C227 C 0.39618 0.46581 0.32408 0.0
C228 C 0.42463 0.47954 0.30292 0.0
C229 C 0.44513 0.48809 0.36344 0.0
C230 C 0.35858 0.44658 0.43159 0.0
C231 C 0.4335 0.48498 0.21627 0.0
H232 H 0.35137 0.39154 0.16722 0.0
H233 H 0.30934 0.47661 0.16617 0.0
H234 H 0.42283 0.41593 0.25399 0.0
H235 H 0.3964 0.39933 0.32485 0.0
H236 H 0.39951 0.38396 0.22632 0.0
H237 H 0.3319 0.5187 0.22774 0.0
H238 H 0.34301 0.5056 0.3258 0.0
H239 H 0.37166 0.51798 0.25516 0.0
H240 H 0.4034 0.46719 0.52833 0.0
H241 H 0.46704 0.49826 0.34686 0.0
H242 H 0.35688 0.42373 0.40732 0.0
H243 H 0.33929 0.45918 0.40661 0.0
H244 H 0.35597 0.44498 0.4978 0.0
H245 H 0.43453 0.46338 0.18522 0.0
H246 H 0.45597 0.4969 0.20972 0.0
H247 H 0.41599 0.49833 0.18541 0.0
C248 C 0.03376 0.36096 0.15641 0.0
C249 C 0.00658 0.34594 0.13589 0.0
C250 C 0.03353 0.38471 0.21012 0.0
C251 C 0.00549 0.39303 0.24433 0.0
C252 C 0.97779 0.37994 0.21686 0.0
C253 C 0.97871 0.35659 0.16254 0.0
C254 C 0.06348 0.39871 0.23641 0.0
C255 C 0.94736 0.38819 0.25121 0.0
C256 C 0.00423 0.41589 0.46217 0.0
C257 C 0.00209 0.44686 0.4547 0.0
C258 C 0.00625 0.39824 0.39389 0.0
C259 C 0.00527 0.41193 0.31651 0.0
C260 C 0.00287 0.44322 0.30877 0.0
C261 C 0.00171 0.46037 0.37801 0.0
C262 C 0.00908 0.36489 0.40452 0.0
C263 C 0.00087 0.45849 0.22753 0.0
H264 H 0.0553 0.3524 0.13645 0.0
H265 H 0.95774 0.34464 0.1471 0.0
H266 H 0.06189 0.42329 0.24035 0.0
H267 H 0.06922 0.38997 0.29702 0.0
H268 H 0.08239 0.39365 0.19484 0.0
H269 H 0.92804 0.37978 0.21429 0.0
H270 H 0.9448 0.37829 0.31247 0.0
H271 H 0.94587 0.41274 0.25612 0.0
H272 H 0.00454 0.40553 0.52145 0.0
H273 H 0.99963 0.48436 0.37211 0.0
H274 H 0.02972 0.35749 0.37284 0.0
H275 H 0.9891 0.35318 0.37757 0.0
H276 H 0.01056 0.35788 0.46859 0.0
H277 H 0.02154 0.45413 0.19169 0.0
H278 H 0.99854 0.48302 0.23194 0.0
H279 H 0.981 0.44927 0.19422 0.0
C280 C 0.81422 0.96421 0.9831 0.0
C281 C 0.81778 0.94496 0.04965 0.0
C282 C 0.83887 0.97265 0.93327 0.0
C283 C 0.86839 0.96293 0.95248 0.0
C284 C 0.87265 0.94562 0.02368 0.0
C285 C 0.84712 0.93627 0.07076 0.0
C286 C 0.8328 0.99009 0.85677 0.0
C287 C 0.90393 0.93577 0.0479 0.0
C288 C 0.92216 0.95821 0.77345 0.0
C289 C 0.93709 0.98634 0.77341 0.0
C290 C 0.90062 0.94981 0.83309 0.0
C291 C 0.89411 0.96984 0.89521 0.0
C292 C 0.90989 0.99783 0.89701 0.0
C293 C 0.93089 0.00586 0.8358 0.0
C294 C 0.8839 0.91999 0.82761 0.0
C295 C 0.90411 0.01964 0.96271 0.0
H296 H 0.79143 0.97059 0.96609 0.0
H297 H 0.8499 0.92102 0.12129 0.0
H298 H 0.84714 0.01088 0.85403 0.0
H299 H 0.83896 0.97663 0.80435 0.0
H300 H 0.80852 0.99611 0.85103 0.0
H301 H 0.90408 0.92624 0.10988 0.0
H302 H 0.91171 0.91855 0.00634 0.0
H303 H 0.92061 0.95487 0.04385 0.0
H304 H 0.92664 0.94303 0.72542 0.0
H305 H 0.94256 0.02749 0.8371 0.0
H306 H 0.85926 0.92352 0.81762 0.0
H307 H 0.88597 0.90711 0.88466 0.0
H308 H 0.89266 0.90638 0.77811 0.0
H309 H 0.88094 0.02859 0.95604 0.0
H310 H 0.92089 0.03871 0.96147 0.0
H311 H 0.90502 0.0082 0.02224 0.0
C312 C 0.51391 0.83356 0.02066 0.0
C313 C 0.48684 0.8265 0.06263 0.0
C314 C 0.51631 0.85894 0.96981 0.0
C315 C 0.49102 0.87765 0.96116 0.0
C316 C 0.46507 0.87254 0.01095 0.0
C317 C 0.46326 0.84691 0.06101 0.0
C318 C 0.54462 0.86374 0.9189 0.0
C319 C 0.43786 0.89227 0.00516 0.0
C320 C 0.50148 0.94966 0.83776 0.0
C321 C 0.49032 0.94122 0.7623 0.0
C322 C 0.50144 0.92948 0.90326 0.0
C323 C 0.49018 0.89992 0.89336 0.0
C324 C 0.47857 0.89128 0.81768 0.0
C325 C 0.4787 0.91204 0.75314 0.0
C326 C 0.51367 0.93973 0.98288 0.0
C327 C 0.46645 0.85988 0.80451 0.0
H328 H 0.53189 0.81747 0.02055 0.0
H329 H 0.44208 0.84116 0.09212 0.0
H330 H 0.53948 0.85738 0.85636 0.0
H331 H 0.55213 0.8876 0.9175 0.0
H332 H 0.56375 0.85016 0.94096 0.0
H333 H 0.42209 0.88863 0.05693 0.0
H334 H 0.44516 0.91618 0.00198 0.0
H335 H 0.42512 0.88727 0.94945 0.0
H336 H 0.51046 0.97219 0.84587 0.0
H337 H 0.47009 0.90529 0.69528 0.0
H338 H 0.53363 0.92646 0.00023 0.0
H339 H 0.4961 0.93596 0.03028 0.0
H340 H 0.52072 0.96375 0.98142 0.0
H341 H 0.4849 0.84383 0.81452 0.0
H342 H 0.45734 0.85693 0.74307 0.0
H343 H 0.44802 0.85408 0.84833 0.0
C344 C 0.65169 0.57795 0.03832 0.0
C345 C 0.6816 0.576 0.00991 0.0
C346 C 0.62686 0.56702 0.99275 0.0
C347 C 0.63227 0.55355 0.9179 0.0
C348 C 0.66257 0.55054 0.89092 0.0
C349 C 0.68668 0.56183 0.93693 0.0
C350 C 0.59483 0.57081 0.02316 0.0
C351 C 0.66962 0.53624 0.81199 0.0
C352 C 0.5726 0.50391 0.81627 0.0
C353 C 0.56288 0.52278 0.7542 0.0
C354 C 0.59473 0.5138 0.87129 0.0
C355 C 0.60658 0.54355 0.86546 0.0
C356 C 0.59592 0.56294 0.80416 0.0
C357 C 0.5745 0.55216 0.74854 0.0
C358 C 0.60623 0.49212 0.9338 0.0
C359 C 0.60759 0.59491 0.79633 0.0
H360 H 0.64769 0.58898 0.09442 0.0
H361 H 0.70969 0.5602 0.91435 0.0
H362 H 0.58247 0.58574 0.98147 0.0
H363 H 0.58223 0.54897 0.02496 0.0
H364 H 0.59444 0.58042 0.08396 0.0
H365 H 0.69449 0.53369 0.80259 0.0
H366 H 0.65814 0.5139 0.80898 0.0
H367 H 0.66078 0.55008 0.76186 0.0
H368 H 0.56342 0.4812 0.82055 0.0
H369 H 0.56659 0.56678 0.70087 0.0
H370 H 0.60425 0.50161 0.99439 0.0
H371 H 0.63075 0.48825 0.923 0.0
H372 H 0.59359 0.47027 0.93313 0.0
H373 H 0.60544 0.60623 0.8545 0.0
H374 H 0.59511 0.60776 0.74994 0.0
H375 H 0.63215 0.59545 0.78014 0.0
C376 C 0.00656 0.6382 0.07151 0.0
C377 C 0.98658 0.66189 0.06711 0.0
C378 C 0.00523 0.61555 0.01458 0.0
C379 C 0.98386 0.61722 0.9512 0.0
C380 C 0.96145 0.63927 0.95229 0.0
C381 C 0.96298 0.66128 0.01077 0.0
C382 C 0.02878 0.59172 0.0174 0.0
C383 C 0.93832 0.64214 0.88609 0.0
C384 C 0.01378 0.59325 0.74931 0.0
C385 C 0.99851 0.5657 0.73957 0.0
C386 C 0.00853 0.61049 0.81698 0.0
C387 C 0.98826 0.59944 0.87779 0.0
C388 C 0.97274 0.57163 0.86829 0.0
C389 C 0.97763 0.55531 0.79854 0.0
C390 C 0.02504 0.6404 0.82392 0.0
C391 C 0.95132 0.55895 0.93214 0.0
H392 H 0.02508 0.63898 0.11436 0.0
H393 H 0.94789 0.67999 0.00664 0.0
H394 H 0.01842 0.56967 0.00225 0.0
H395 H 0.0469 0.59724 0.97247 0.0
H396 H 0.03958 0.58996 0.07737 0.0
H397 H 0.9183 0.65475 0.90575 0.0
H398 H 0.9491 0.65444 0.83445 0.0
H399 H 0.93033 0.62 0.8649 0.0
H400 H 0.02996 0.60129 0.70396 0.0
H401 H 0.96611 0.53378 0.7919 0.0
H402 H 0.04054 0.63997 0.87628 0.0
H403 H 0.00842 0.65814 0.83403 0.0
H404 H 0.03871 0.64648 0.76952 0.0
H405 H 0.96143 0.56137 0.9926 0.0
H406 H 0.94564 0.53497 0.92305 0.0
H407 H 0.92991 0.57148 0.93106 0.0
C408 C 0.96425 0.21939 0.18797 0.0
C409 C 0.98804 0.23952 0.20683 0.0
C410 C 0.95702 0.19496 0.23866 0.0
C411 C 0.97443 0.1905 0.30868 0.0
C412 C 0.99748 0.21167 0.33004 0.0
C413 C 0.00388 0.23619 0.27879 0.0
C414 C 0.93205 0.17302 0.2149 0.0
C415 C 0.01677 0.20735 0.40397 0.0
C416 C 0.95599 0.13352 0.4731 0.0
C417 C 0.97654 0.11154 0.45377 0.0
C418 C 0.95335 0.15887 0.42317 0.0
C419 C 0.97176 0.1618 0.35341 0.0
C420 C 0.99054 0.13826 0.33069 0.0
C421 C 0.99268 0.11336 0.38152 0.0
C422 C 0.93289 0.18347 0.44848 0.0
C423 C 0.01057 0.14048 0.25675 0.0
H424 H 0.95189 0.22235 0.13235 0.0
H425 H 0.02234 0.25184 0.29274 0.0
H426 H 0.94228 0.15194 0.1959 0.0
H427 H 0.91686 0.1675 0.26674 0.0
H428 H 0.91811 0.18177 0.16471 0.0
H429 H 0.03201 0.22704 0.41531 0.0
H430 H 0.00209 0.20303 0.45745 0.0
H431 H 0.03108 0.18756 0.39674 0.0
H432 H 0.9439 0.13204 0.52991 0.0
H433 H 0.00847 0.09608 0.36724 0.0
H434 H 0.92046 0.19275 0.39629 0.0
H435 H 0.94698 0.20191 0.4739 0.0
H436 H 0.91608 0.17554 0.49473 0.0
H437 H 0.99739 0.14797 0.20388 0.0
H438 H 0.02093 0.11884 0.24295 0.0
H439 H 0.02925 0.15727 0.26618 0.0
C440 C 0.2748 0.07622 0.2746 0.0
C441 C 0.28243 0.09808 0.21561 0.0
C442 C 0.29681 0.06377 0.3236 0.0
C443 C 0.32753 0.07302 0.31292 0.0
C444 C 0.3356 0.09596 0.25639 0.0
C445 C 0.31282 0.10839 0.20834 0.0
C446 C 0.28728 0.03942 0.38352 0.0
C447 C 0.36841 0.10621 0.24412 0.0
C448 C 0.38063 0.05729 0.48365 0.0
C449 C 0.39549 0.03209 0.45695 0.0
C450 C 0.35845 0.07079 0.43713 0.0
C451 C 0.35103 0.05873 0.36206 0.0
C452 C 0.36504 0.0325 0.33591 0.0
C453 C 0.3872 0.01927 0.38432 0.0
C454 C 0.34331 0.09819 0.46782 0.0
C455 C 0.35696 0.01879 0.25658 0.0
H456 H 0.25193 0.06674 0.27838 0.0
H457 H 0.31896 0.12479 0.16195 0.0
H458 H 0.29665 0.01788 0.36508 0.0
H459 H 0.29657 0.04437 0.44368 0.0
H460 H 0.2621 0.03659 0.38862 0.0
H461 H 0.37082 0.12479 0.19924 0.0
H462 H 0.37834 0.11366 0.30167 0.0
H463 H 0.38198 0.08728 0.22365 0.0
H464 H 0.38686 0.06689 0.54066 0.0
H465 H 0.39889 -0.00018 0.36398 0.0
H466 H 0.31824 0.09426 0.47097 0.0
H467 H 0.34774 0.11734 0.42577 0.0
H468 H 0.35156 0.10446 0.52822 0.0
H469 H 0.33281 0.01072 0.25768 0.0
H470 H 0.37154 -0.00028 0.24253 0.0
H471 H 0.3593 0.0358 0.20749 0.0
C472 C 0.58154 0.29939 0.2039 0.0
C473 C 0.5586 0.27718 0.21168 0.0
C474 C 0.5825 0.32349 0.25604 0.0
C475 C 0.5594 0.32557 0.3149 0.0
C476 C 0.53774 0.30186 0.32694 0.0
C477 C 0.53781 0.27772 0.27539 0.0
C478 C 0.60635 0.34808 0.2431 0.0
C479 C 0.51231 0.30349 0.38788 0.0
C480 C 0.55889 0.38812 0.46418 0.0
C481 C 0.53886 0.40756 0.42634 0.0
C482 C 0.56642 0.36131 0.42809 0.0
C483 C 0.55409 0.35457 0.35212 0.0
C484 C 0.53477 0.3749 0.31266 0.0
C485 C 0.52707 0.40102 0.35099 0.0
C486 C 0.58632 0.33966 0.4725 0.0
C487 C 0.5212 0.36854 0.23139 0.0
H488 H 0.59756 0.29876 0.15437 0.0
H489 H 0.51986 0.26059 0.28045 0.0
H490 H 0.5958 0.36754 0.21324 0.0
H491 H 0.61563 0.35563 0.30127 0.0
H492 H 0.62547 0.34084 0.205 0.0
H493 H 0.50075 0.28138 0.39898 0.0
H494 H 0.52099 0.31204 0.44561 0.0
H495 H 0.49507 0.3192 0.36541 0.0
H496 H 0.56728 0.39311 0.52362 0.0
H497 H 0.5113 0.41615 0.32278 0.0
H498 H 0.60595 0.33383 0.43443 0.0
H499 H 0.57314 0.31864 0.48615 0.0
H500 H 0.59503 0.34882 0.52967 0.0
H501 H 0.53953 0.36419 0.18759 0.0
H502 H 0.50764 0.38732 0.20788 0.0
H503 H 0.50614 0.34823 0.23538 0.0
C504 C 0.23589 0.44278 0.27245 0.0
C505 C 0.23318 0.41184 0.26171 0.0
C506 C 0.21355 0.45792 0.31309 0.0
C507 C 0.18863 0.44147 0.34695 0.0
C508 C 0.18723 0.40986 0.34309 0.0
C509 C 0.20927 0.39534 0.29827 0.0
C510 C 0.21505 0.49167 0.31207 0.0
C511 C 0.16142 0.39168 0.38159 0.0
C512 C 0.13681 0.48235 0.4855 0.0
C513 C 0.11168 0.48667 0.43582 0.0
C514 C 0.16221 0.46753 0.45752 0.0
C515 C 0.16243 0.45768 0.37757 0.0
C516 C 0.13766 0.46361 0.3259 0.0
C517 C 0.11215 0.47753 0.35648 0.0
C518 C 0.18787 0.46085 0.51467 0.0
C519 C 0.1376 0.45432 0.23933 0.0
H520 H 0.254 0.45558 0.24192 0.0
H521 H 0.20703 0.37154 0.28853 0.0
H522 H 0.19682 0.50023 0.27258 0.0
H523 H 0.21105 0.50034 0.37281 0.0
H524 H 0.23735 0.50086 0.28953 0.0
H525 H 0.16633 0.36751 0.3845 0.0
H526 H 0.15702 0.39945 0.44317 0.0
H527 H 0.14025 0.39459 0.34653 0.0
H528 H 0.13563 0.4886 0.54786 0.0
H529 H 0.09208 0.48019 0.3195 0.0
H530 H 0.20996 0.46939 0.48961 0.0
H531 H 0.18957 0.43632 0.52284 0.0
H532 H 0.18446 0.47082 0.57435 0.0
H533 H 0.15879 0.46263 0.20871 0.0
H534 H 0.11768 0.46285 0.20595 0.0
H535 H 0.13699 0.42962 0.23622 0.0
C536 C 0.04614 0.78823 0.01863 0.0
C537 C 0.03064 0.76175 0.99667 0.0
C538 C 0.04866 0.81269 0.96538 0.0
C539 C 0.0376 0.80972 0.8865 0.0
C540 C 0.0267 0.78165 0.86001 0.0
C541 C 0.02249 0.75819 0.91593 0.0
C542 C 0.05943 0.84254 0.99683 0.0
C543 C 0.0161 0.77732 0.7749 0.0
C544 C 0.99433 0.87373 0.79903 0.0
C545 C 0.01578 0.88706 0.7463 0.0
C546 C 0.0015 0.84885 0.8458 0.0
C547 C 0.03079 0.83675 0.8387 0.0
C548 C 0.05274 0.8502 0.786 0.0
C549 C 0.04503 0.87556 0.7406 0.0
C550 C 0.97745 0.8353 0.9019 0.0
C551 C 0.08391 0.83736 0.77615 0.0
H552 H 0.05425 0.79082 0.07937 0.0
H553 H 0.01067 0.73805 0.89681 0.0
H554 H 0.07431 0.85476 0.95265 0.0
H555 H 0.03933 0.85643 0.00753 0.0
H556 H 0.07197 0.84018 0.05422 0.0
H557 H 0.0153 0.75334 0.75917 0.0
H558 H 0.99283 0.78603 0.76793 0.0
H559 H 0.0313 0.78974 0.73173 0.0
H560 H 0.97173 0.88274 0.80366 0.0
H561 H 0.06148 0.88578 0.69904 0.0
H562 H 0.98665 0.83319 0.96354 0.0
H563 H 0.97075 0.81256 0.88221 0.0
H564 H 0.95662 0.84878 0.90397 0.0
H565 H 0.09586 0.83674 0.83456 0.0
H566 H 0.09828 0.85044 0.73229 0.0
H567 H 0.08158 0.814 0.75577 0.0
C568 C 0.73154 0.91905 0.88653 0.0
C569 C 0.72278 0.90424 0.95863 0.0
C570 C 0.70984 0.92674 0.82923 0.0
C571 C 0.6787 0.92122 0.84693 0.0
C572 C 0.67001 0.90313 0.91418 0.0
C573 C 0.69255 0.89333 0.96666 0.0
C574 C 0.72018 0.94327 0.75368 0.0
C575 C 0.63693 0.89603 0.93487 0.0
C576 C 0.62357 0.98051 0.78405 0.0
C577 C 0.60567 0.96484 0.72918 0.0
C578 C 0.64811 0.96672 0.82174 0.0
C579 C 0.6553 0.93715 0.80117 0.0
C580 C 0.6385 0.92211 0.74183 0.0
C581 C 0.6134 0.93584 0.70807 0.0
C582 C 0.66533 0.98321 0.88623 0.0
C583 C 0.64646 0.89127 0.71527 0.0
H584 H 0.75476 0.92718 0.877 0.0
H585 H 0.68585 0.87989 0.01886 0.0
H586 H 0.70471 0.93842 0.70279 0.0
H587 H 0.72036 0.96765 0.76383 0.0
H588 H 0.74369 0.93723 0.73676 0.0
H589 H 0.63399 0.88912 0.99883 0.0
H590 H 0.62237 0.91544 0.92294 0.0
H591 H 0.62839 0.87734 0.89784 0.0
H592 H 0.6175 0.00287 0.80029 0.0
H593 H 0.5997 0.92365 0.66505 0.0
H594 H 0.68961 0.98646 0.86861 0.0
H595 H 0.66463 0.96983 0.94299 0.0
H596 H 0.65585 0.00544 0.89765 0.0
H597 H 0.67151 0.88948 0.70844 0.0
H598 H 0.63541 0.88553 0.65762 0.0
H599 H 0.63865 0.87448 0.76108 0.0
C600 C 0.46715 0.72821 0.88305 0.0
C601 C 0.4474 0.73275 0.94723 0.0
C602 C 0.46318 0.70293 0.83586 0.0
C603 C 0.43918 0.68207 0.85484 0.0
C604 C 0.41651 0.68933 0.91094 0.0
C605 C 0.42087 0.71487 0.95654 0.0
C606 C 0.48722 0.69637 0.77429 0.0
C607 C 0.39047 0.66788 0.93245 0.0
C608 C 0.4358 0.60938 0.7427 0.0
C609 C 0.4559 0.59243 0.78863 0.0
C610 C 0.42953 0.63872 0.76373 0.0
C611 C 0.44272 0.6505 0.83393 0.0
C612 C 0.46116 0.63247 0.88361 0.0
C613 C 0.4679 0.60377 0.85949 0.0
C614 C 0.40998 0.65739 0.70932 0.0
C615 C 0.47524 0.64398 0.96004 0.0
H616 H 0.48756 0.74229 0.87583 0.0
H617 H 0.4055 0.71884 0.00601 0.0
H618 H 0.50381 0.68086 0.80108 0.0
H619 H 0.47691 0.68544 0.7214 0.0
H620 H 0.4999 0.71702 0.75411 0.0
H621 H 0.37142 0.67951 0.96123 0.0
H622 H 0.38172 0.65623 0.87893 0.0
H623 H 0.39869 0.65072 0.97546 0.0
H624 H 0.42672 0.60052 0.68748 0.0
H625 H 0.48353 0.59053 0.89453 0.0
H626 H 0.42076 0.67982 0.69834 0.0
H627 H 0.38763 0.6607 0.73853 0.0
H628 H 0.40584 0.6467 0.65073 0.0
H629 H 0.4925 0.66188 0.9454 0.0
H630 H 0.48659 0.62615 0.99507 0.0
H631 H 0.45761 0.65373 0.99855 0.0
C632 C 0.80629 0.61349 0.94267 0.0
C633 C 0.77961 0.59865 0.96934 0.0
C634 C 0.82777 0.59821 0.89775 0.0
C635 C 0.82196 0.56777 0.87959 0.0
C636 C 0.79513 0.55282 0.90695 0.0
C637 C 0.77473 0.56825 0.95307 0.0
C638 C 0.85683 0.6143 0.87078 0.0
C639 C 0.78804 0.52045 0.88855 0.0
C640 C 0.86286 0.53976 0.69925 0.0
C641 C 0.88685 0.52477 0.73528 0.0
C642 C 0.84078 0.55291 0.74592 0.0
C643 C 0.84355 0.55159 0.83023 0.0
C644 C 0.86683 0.53492 0.86693 0.0
C645 C 0.88817 0.52122 0.8184 0.0
C646 C 0.81529 0.56919 0.70504 0.0
C647 C 0.87017 0.53299 0.95692 0.0
H648 H 0.81055 0.63659 0.95828 0.0
H649 H 0.75523 0.55615 0.9789 0.0
H650 H 0.87676 0.60218 0.89395 0.0
H651 H 0.85839 0.61458 0.80439 0.0
H652 H 0.85832 0.63766 0.89172 0.0
H653 H 0.76487 0.51303 0.9092 0.0
H654 H 0.78971 0.51685 0.82311 0.0
H655 H 0.80492 0.50602 0.91819 0.0
H656 H 0.86207 0.54211 0.63443 0.0
H657 H 0.90697 0.50952 0.84522 0.0
H658 H 0.8177 0.59343 0.71666 0.0
H659 H 0.7929 0.56128 0.72978 0.0
H660 H 0.81521 0.56603 0.63917 0.0
H661 H 0.87553 0.55554 0.98023 0.0
H662 H 0.88851 0.51781 0.97565 0.0
H663 H 0.84847 0.52502 0.98544 0.0
C664 C 0.9925 0.25535 0.88876 0.0
C665 C 0.01847 0.26484 0.93082 0.0
C666 C 0.99284 0.22947 0.843 0.0
C667 C 0.02007 0.21344 0.83782 0.0
C668 C 0.04749 0.22592 0.86882 0.0
C669 C 0.04634 0.25157 0.91553 0.0
C670 C 0.96306 0.21708 0.81076 0.0
C671 C 0.07717 0.20996 0.86257 0.0
C672 C 0.00696 0.12952 0.85488 0.0
C673 C 0.0106 0.12097 0.77546 0.0
C674 C 0.01125 0.15945 0.8762 0.0
C675 C 0.01843 0.18143 0.81598 0.0
C676 C 0.02249 0.17279 0.73572 0.0
C677 C 0.01889 0.14255 0.71658 0.0
C678 C 0.00715 0.16764 0.96291 0.0
C679 C 0.02926 0.19554 0.66959 0.0
H680 H 0.97087 0.26543 0.90147 0.0
H681 H 0.06637 0.25875 0.94872 0.0
H682 H 0.96632 0.2069 0.75147 0.0
H683 H 0.95395 0.19934 0.85248 0.0
H684 H 0.94576 0.2346 0.80508 0.0
H685 H 0.09705 0.22516 0.8743 0.0
H686 H 0.07725 0.19133 0.90743 0.0
H687 H 0.07986 0.20026 0.80244 0.0
H688 H 1.00041 0.1128 0.90013 0.0
H689 H 0.02107 0.13601 0.65469 0.0
H690 H 0.98735 0.18228 0.96877 0.0
H691 H 0.02757 0.18029 0.9842 0.0
H692 H 0.00331 0.14771 0.00278 0.0
H693 H 0.00944 0.21009 0.66154 0.0
H694 H 0.03406 0.18494 0.61146 0.0
H695 H 0.04906 0.21013 0.6857 0.0
C696 C 0.28195 0.03098 0.99756 0.0
C697 C 0.2648 0.05534 0.97254 0.0
C698 C 0.30689 0.02172 0.95216 0.0
C699 C 0.3143 0.03657 0.87846 0.0
C700 C 0.2954 0.05955 0.84978 0.0
C701 C 0.27125 0.06905 0.89791 0.0
C702 C 0.32658 0.9975 0.98604 0.0
C703 C 0.30156 0.07511 0.77005 0.0
C704 C 0.39595 0.03396 0.79638 0.0
C705 C 0.39353 0.00983 0.74441 0.0
C706 C 0.37041 0.04295 0.84073 0.0
C707 C 0.34169 0.02789 0.83138 0.0
C708 C 0.33911 0.00408 0.77744 0.0
C709 C 0.36497 0.99521 0.73553 0.0
C710 C 0.37425 0.06827 0.89838 0.0
C711 C 0.3089 0.98799 0.7635 0.0
H712 H 0.27764 0.02106 0.05651 0.0
H713 H 0.25865 0.08848 0.87966 0.0
H714 H 0.32882 0.97938 0.94236 0.0
H715 H 0.34984 0.00686 0.99734 0.0
H716 H 0.31729 0.98769 0.04307 0.0
H717 H 0.28317 0.0905 0.75308 0.0
H718 H 0.3234 0.08817 0.7726 0.0
H719 H 0.30388 0.05846 0.72227 0.0
H720 H 0.41784 0.04545 0.80335 0.0
H721 H 0.36258 0.97686 0.69452 0.0
H722 H 0.36817 0.06028 0.95995 0.0
H723 H 0.35855 0.08637 0.88239 0.0
H724 H 0.39795 0.07774 0.89867 0.0
H725 H 0.3006 0.97705 0.82002 0.0
H726 H 0.31043 0.97072 0.71699 0.0
H727 H 0.29157 0.00422 0.74465 0.0
C728 C 0.53688 0.27379 0.88052 0.0
C729 C 0.5169 0.26613 0.9438 0.0
C730 C 0.53201 0.299 0.83096 0.0
C731 C 0.50684 0.31725 0.84608 0.0
C732 C 0.48499 0.30781 0.90475 0.0
C733 C 0.49026 0.28229 0.95272 0.0
C734 C 0.55559 0.3078 0.76809 0.0
C735 C 0.45785 0.32641 0.92322 0.0
C736 C 0.52562 0.40001 0.81214 0.0
C737 C 0.51171 0.406 0.73837 0.0
C738 C 0.5228 0.37166 0.84945 0.0
C739 C 0.50643 0.34829 0.81088 0.0
C740 C 0.49146 0.3545 0.73748 0.0
C741 C 0.49402 0.38341 0.70245 0.0
C742 C 0.53846 0.36644 0.92881 0.0
C743 C 0.47422 0.33026 0.69366 0.0
H744 H 0.55783 0.26177 0.87464 0.0
H745 H 0.47517 0.27684 0.00288 0.0
H746 H 0.54449 0.31532 0.71188 0.0
H747 H 0.56995 0.32673 0.78987 0.0
H748 H 0.57069 0.28908 0.75447 0.0
H749 H 0.44047 0.31368 0.95974 0.0
H750 H 0.46554 0.34624 0.95729 0.0
H751 H 0.44705 0.33458 0.86728 0.0
H752 H 0.53937 0.41743 0.83988 0.0
H753 H 0.48372 0.38781 0.64461 0.0
H754 H 0.55725 0.35072 0.92105 0.0
H755 H 0.52218 0.3561 0.97302 0.0
H756 H 0.5481 0.38744 0.95393 0.0
H757 H 0.49066 0.31458 0.66849 0.0
H758 H 0.46041 0.33942 0.64372 0.0
H759 H 0.45894 0.3172 0.73527 0.0
C760 C 0.21043 0.45188 0.02085 0.0
C761 C 0.23186 0.43131 0.99611 0.0
C762 C 0.18744 0.46159 0.96928 0.0
C763 C 0.18567 0.45039 0.89066 0.0
C764 C 0.20793 0.43036 0.86436 0.0
C765 C 0.23075 0.4209 0.91769 0.0
C766 C 0.16473 0.48343 0.99968 0.0
C767 C 0.20738 0.41873 0.78017 0.0
C768 C 0.10956 0.45723 0.78145 0.0
C769 C 0.11436 0.48419 0.73845 0.0
C770 C 0.13274 0.44553 0.8303 0.0
C771 C 0.16142 0.46095 0.83515 0.0
C772 C 0.16654 0.48763 0.78987 0.0
C773 C 0.14302 0.49893 0.74269 0.0
C774 C 0.12632 0.41711 0.87823 0.0
C775 C 0.19676 0.50467 0.7924 0.0
H776 H 0.21115 0.45967 0.08198 0.0
H777 H 0.24708 0.40472 0.89903 0.0
H778 H 0.1639 0.50323 0.95884 0.0
H779 H 0.14159 0.47275 0.00098 0.0
H780 H 0.17034 0.4912 0.06084 0.0
H781 H 0.22671 0.40397 0.76824 0.0
H782 H 0.18571 0.40603 0.76993 0.0
H783 H 0.20834 0.43764 0.73618 0.0
H784 H 0.08755 0.44567 0.77832 0.0
H785 H 0.14722 0.51956 0.7089 0.0
H786 H 0.12749 0.42183 0.94318 0.0
H787 H 0.14391 0.40056 0.86551 0.0
H788 H 0.1035 0.40701 0.86496 0.0
H789 H 0.20097 0.51282 0.8538 0.0
H790 H 0.19765 0.52415 0.75014 0.0
H791 H 0.2156 0.48975 0.77748 0.0
C792 C 0.96318 0.75568 0.2876 0.0
C793 C 0.9919 0.74421 0.2722 0.0
C794 C 0.96037 0.78094 0.33542 0.0
C795 C 0.98698 0.79518 0.3662 0.0
C796 C 0.01539 0.78129 0.35919 0.0
C797 C 0.01734 0.75553 0.31354 0.0
C798 C 0.92952 0.79448 0.34436 0.0
C799 C 0.04449 0.79581 0.38972 0.0
C800 C 0.99363 0.87976 0.35689 0.0
C801 C 0.9903 0.88691 0.43743 0.0
C802 C 0.99115 0.85 0.3327 0.0
C803 C 0.98628 0.82684 0.39114 0.0
C804 C 0.98276 0.83408 0.47272 0.0
C805 C 0.98437 0.86414 0.49474 0.0
C806 C 0.99482 0.8433 0.24487 0.0
C807 C 0.97859 0.81009 0.53701 0.0
H808 H 0.94354 0.74713 0.25512 0.0
H809 H 0.03959 0.74679 0.30076 0.0
H810 H 0.92657 0.8034 0.40534 0.0
H811 H 0.92759 0.81337 0.30081 0.0
H812 H 0.91076 0.77794 0.33277 0.0
H813 H 0.06344 0.77993 0.39206 0.0
H814 H 0.05139 0.81472 0.34893 0.0
H815 H 0.04117 0.80494 0.45025 0.0
H816 H 0.99862 0.89746 0.31306 0.0
H817 H 0.98266 0.86973 0.55747 0.0
H818 H 0.97474 0.8301 0.22364 0.0
H819 H 0.0152 0.82965 0.23599 0.0
H820 H 0.99736 0.86391 0.20698 0.0
H821 H 0.95848 0.79553 0.5233 0.0
H822 H 0.97556 0.81952 0.59748 0.0
H823 H 0.99875 0.79574 0.53846 0.0
C824 C 0.70314 0.91152 0.26582 0.0
C825 C 0.7271 0.9316 0.24307 0.0
C826 C 0.67846 0.92061 0.31201 0.0
C827 C 0.67916 0.94955 0.34433 0.0
C828 C 0.706 0.96786 0.33417 0.0
C829 C 0.72919 0.95919 0.28121 0.0
C830 C 0.65093 0.89972 0.32144 0.0
C831 C 0.70987 0.99711 0.37647 0.0
C832 C 0.60587 0.99241 0.36956 0.0
C833 C 0.59573 0.98273 0.44557 0.0
C834 C 0.63255 0.98127 0.33558 0.0
C835 C 0.65081 0.96146 0.38097 0.0
C836 C 0.64066 0.95192 0.45853 0.0
C837 C 0.61291 0.96209 0.48866 0.0
C838 C 0.64101 0.99085 0.25089 0.0
C839 C 0.65893 0.93165 0.51195 0.0
H840 H 0.70213 0.88943 0.24048 0.0
H841 H 0.74792 0.97469 0.2667 0.0
H842 H 0.65039 0.89004 0.3831 0.0
H843 H 0.62948 0.91179 0.3118 0.0
H844 H 0.65144 0.881 0.27887 0.0
H845 H 0.73435 0.00229 0.38818 0.0
H846 H 0.70117 0.0154 0.33804 0.0
H847 H 0.69726 0.99675 0.43433 0.0
H848 H 0.59294 0.00886 0.33673 0.0
H849 H 0.60555 0.95519 0.54819 0.0
H850 H 0.649 0.97166 0.21632 0.0
H851 H 0.65979 0.00792 0.25211 0.0
H852 H 0.62151 0.00076 0.21868 0.0
H853 H 0.64636 0.90992 0.51991 0.0
H854 H 0.6612 0.94141 0.57233 0.0
H855 H 0.68209 0.9276 0.48861 0.0
C856 C 0.45425 0.70661 0.24584 0.0
C857 C 0.47683 0.72904 0.23111 0.0
C858 C 0.4589 0.68289 0.29974 0.0
C859 C 0.48565 0.6827 0.34673 0.0
C860 C 0.50716 0.70695 0.33889 0.0
C861 C 0.50289 0.72952 0.27967 0.0
C862 C 0.43559 0.65733 0.30354 0.0
C863 C 0.53518 0.70861 0.39081 0.0
C864 C 0.47145 0.6298 0.5235 0.0
C865 C 0.4848 0.60363 0.49756 0.0
C866 C 0.47432 0.65661 0.4788 0.0
C867 C 0.48999 0.65714 0.40449 0.0
C868 C 0.50506 0.63116 0.38021 0.0
C869 C 0.5026 0.60473 0.42771 0.0
C870 C 0.4589 0.68392 0.50879 0.0
C871 C 0.52169 0.63055 0.30105 0.0
H872 H 0.43344 0.70657 0.21101 0.0
H873 H 0.52043 0.74674 0.26949 0.0
H874 H 0.44691 0.63583 0.29445 0.0
H875 H 0.42456 0.65612 0.36343 0.0
H876 H 0.41752 0.65963 0.25753 0.0
H877 H 0.54501 0.73172 0.39252 0.0
H878 H 0.52994 0.70077 0.45301 0.0
H879 H 0.55273 0.69399 0.36621 0.0
H880 H 0.45794 0.6291 0.57804 0.0
H881 H 0.51284 0.58449 0.40746 0.0
H882 H 0.43775 0.68756 0.47417 0.0
H883 H 0.47396 0.70408 0.50017 0.0
H884 H 0.4527 0.68156 0.57319 0.0
H885 H 0.50496 0.63181 0.25145 0.0
H886 H 0.53482 0.60991 0.2946 0.0
H887 H 0.53756 0.65018 0.29445 0.0
C888 C 0.77718 0.54512 0.19213 0.0
C889 C 0.76396 0.57166 0.21578 0.0
C890 C 0.80124 0.53279 0.23558 0.0
C891 C 0.81185 0.54691 0.30576 0.0
C892 C 0.7976 0.57299 0.332 0.0
C893 C 0.77416 0.58537 0.28581 0.0
C894 C 0.81639 0.50559 0.20392 0.0
C895 C 0.80801 0.58854 0.40692 0.0
C896 C 0.85547 0.49923 0.45411 0.0
C897 C 0.88579 0.50895 0.44043 0.0
C898 C 0.83133 0.5117 0.41148 0.0
C899 C 0.83754 0.53407 0.35219 0.0
C900 C 0.86816 0.54375 0.33703 0.0
C901 C 0.89193 0.53128 0.38201 0.0
C902 C 0.79905 0.50116 0.43065 0.0
C903 C 0.87584 0.56703 0.27285 0.0
H904 H 0.77023 0.5353 0.13594 0.0
H905 H 0.76479 0.60652 0.30222 0.0
H906 H 0.84069 0.5111 0.18996 0.0
H907 H 0.81592 0.48743 0.25012 0.0
H908 H 0.80525 0.49715 0.14881 0.0
H909 H 0.79309 0.60717 0.42252 0.0
H910 H 0.80838 0.57241 0.45827 0.0
H911 H 0.83162 0.59764 0.39831 0.0
H912 H 0.85043 0.48227 0.4999 0.0
H913 H 0.91531 0.53885 0.37114 0.0
H914 H 0.78824 0.49154 0.37663 0.0
H915 H 0.78534 0.52038 0.44841 0.0
H916 H 0.79799 0.48406 0.4798 0.0
H917 H 0.8694 0.55831 0.21331 0.0
H918 H 0.90052 0.57339 0.27167 0.0
H919 H 0.86261 0.58737 0.2822 0.0
loop_
_geom_bond_atom_site_label_1
_geom_bond_atom_site_label_2
_geom_bond_distance
_geom_bond_site_symmetry_2
_ccdc_geom_bond_type
H0 C3 0.931 . S
H1 C6 0.928 . S
H2 C8 0.930 . S
C3 H0 0.931 . S
C3 C4 1.413 . S
C3 C5 1.360 1_554 S
C4 C3 1.413 . S
C4 C8 1.429 . S
C5 C3 1.360 1_556 S
C5 C6 1.372 . S
C6 H1 0.928 . S
C6 C5 1.372 . S
C6 C7 1.404 1_556 S
C7 C6 1.404 1_554 S
C7 C8 1.391 . S
C8 H2 0.930 . S
C8 C4 1.429 . S
C8 C7 1.391 . S
H9 C12 0.930 . S
H10 C15 0.928 . S
H11 C17 0.929 . S
C12 H9 0.930 . S
C12 C13 1.413 . S
C12 C14 1.360 1_554 S
C13 C12 1.413 . S
C13 C17 1.429 1_655 S
C14 C12 1.360 1_556 S
C14 C15 1.372 . S
C15 H10 0.928 . S
C15 C14 1.372 . S
C15 C16 1.405 1_556 S
C16 C15 1.405 1_554 S
C16 C17 1.391 1_655 S
C17 H11 0.929 . S
C17 C13 1.429 1_455 S
C17 C16 1.391 1_455 S
H18 C21 0.931 . S
H19 C24 0.928 . S
H20 C26 0.930 . S
C21 H18 0.931 . S
C21 C22 1.413 . S
C21 C23 1.360 1_554 S
C22 C21 1.413 . S
C22 C26 1.429 . S
C23 C21 1.360 1_556 S
C23 C24 1.372 . S
C24 H19 0.928 . S
C24 C23 1.372 . S
C24 C25 1.404 1_556 S
C25 C24 1.404 1_554 S
C25 C26 1.391 . S
C26 H20 0.930 . S
C26 C22 1.429 . S
C26 C25 1.391 . S
H27 C30 0.931 . S
H28 C33 0.928 . S
H29 C35 0.930 . S
C30 H27 0.931 . S
C30 C31 1.413 1_554 S
C30 C32 1.360 . S
C31 C30 1.413 1_556 S
C31 C35 1.429 . S
C32 C30 1.360 . S
C32 C33 1.372 . S
C33 H28 0.928 . S
C33 C32 1.372 . S
C33 C34 1.404 . S
C34 C33 1.404 . S
C34 C35 1.391 1_554 S
C35 H29 0.930 . S
C35 C31 1.429 . S
C35 C34 1.391 1_556 S
H36 C39 0.931 . S
H37 C42 0.928 . S
H38 C44 0.930 . S
C39 H36 0.931 . S
C39 C40 1.413 . S
C39 C41 1.360 . S
C40 C39 1.413 . S
C40 C44 1.429 . S
C41 C39 1.360 . S
C41 C42 1.372 . S
C42 H37 0.928 . S
C42 C41 1.372 . S
C42 C43 1.404 . S
C43 C42 1.404 . S
C43 C44 1.391 . S
C44 H38 0.930 . S
C44 C40 1.429 . S
C44 C43 1.391 . S
H45 C48 0.931 . S
H46 C51 0.928 . S
H47 C53 0.930 . S
C48 H45 0.931 . S
C48 C49 1.413 . S
C48 C50 1.360 . S
C49 C48 1.413 . S
C49 C53 1.429 1_655 S
C50 C48 1.360 . S
C50 C51 1.372 . S
C51 H46 0.928 . S
C51 C50 1.372 . S
C51 C52 1.404 . S
C52 C51 1.404 . S
C52 C53 1.390 1_655 S
C53 H47 0.930 . S
C53 C49 1.429 1_455 S
C53 C52 1.390 1_455 S
H54 C57 0.931 . S
H55 C60 0.928 . S
H56 C62 0.930 . S
C57 H54 0.931 . S
C57 C58 1.413 . S
C57 C59 1.360 . S
C58 C57 1.413 . S
C58 C62 1.429 . S
C59 C57 1.360 . S
C59 C60 1.372 . S
C60 H55 0.928 . S
C60 C59 1.372 . S
C60 C61 1.404 . S
C61 C60 1.404 . S
C61 C62 1.391 . S
C62 H56 0.930 . S
C62 C58 1.429 . S
C62 C61 1.391 . S
H63 C66 0.931 . S
H64 C69 0.928 . S
H65 C71 0.930 . S
C66 H63 0.931 . S
C66 C67 1.413 . S
C66 C68 1.360 . S
C67 C66 1.413 . S
C67 C71 1.429 . S
C68 C66 1.360 . S
C68 C69 1.372 . S
C69 H64 0.928 . S
C69 C68 1.372 . S
C69 C70 1.404 . S
C70 C69 1.404 . S
C70 C71 1.391 . S
C71 H65 0.930 . S
C71 C67 1.429 . S
C71 C70 1.391 . S
Zn72 O78 1.969 . S
Zn72 O79 1.965 1_655 S
Zn72 O83 2.024 1_655 S
Zn72 O88 1.969 . S
Zn73 O80 1.969 . S
Zn73 O86 1.969 . S
Zn73 O87 1.965 1_455 S
Zn73 O89 2.024 1_455 S
C74 O75 1.229 1_455 S
C74 O83 1.058 . S
O75 C74 1.229 1_655 S
C76 O77 1.229 1_655 S
C76 O89 1.058 . S
O77 C76 1.229 1_455 S
O78 Zn72 1.969 . S
O78 C81 1.267 . S
O79 Zn72 1.965 1_455 S
O79 C90 1.260 . S
O80 Zn73 1.969 . S
O80 C90 1.258 1_565 S
C81 O78 1.267 . S
C81 O82 1.228 1_655 S
O82 C81 1.228 1_455 S
O83 Zn72 2.024 1_455 S
O83 C74 1.058 . S
C84 O85 1.228 1_455 S
C84 O86 1.267 . S
O85 C84 1.228 1_655 S
O86 Zn73 1.969 . S
O86 C84 1.267 . S
O87 Zn73 1.965 1_655 S
O87 C91 1.280 . S
O88 Zn72 1.969 . S
O88 C91 1.225 1_545 S
O89 Zn73 2.024 1_655 S
O89 C76 1.058 . S
C90 O79 1.260 . S
C90 O80 1.258 1_545 S
C91 O87 1.280 . S
C91 O88 1.225 1_565 S
Zn92 O98 1.969 1_545 S
Zn92 O99 1.965 . S
Zn92 O103 2.024 . S
Zn92 O108 1.969 1_545 S
Zn93 O100 1.969 1_565 S
Zn93 O106 1.969 1_565 S
Zn93 O107 1.965 . S
Zn93 O109 2.024 . S
C94 O95 1.229 . S
C94 O103 1.058 . S
O95 C94 1.229 . S
C96 O97 1.229 . S
C96 O109 1.058 . S
O97 C96 1.229 . S
O98 Zn92 1.969 1_565 S
O98 C101 1.267 1_565 S
O99 Zn92 1.965 . S
O99 C110 1.260 . S
O100 Zn93 1.969 1_545 S
O100 C110 1.258 . S
C101 O98 1.267 1_545 S
C101 O102 1.228 . S
O102 C101 1.228 . S
O103 Zn92 2.024 . S
O103 C94 1.058 . S
C104 O105 1.228 . S
C104 O106 1.267 1_565 S
O105 C104 1.228 . S
O106 Zn93 1.969 1_545 S
O106 C104 1.267 1_545 S
O107 Zn93 1.965 . S
O107 C111 1.260 . S
O108 Zn92 1.969 1_565 S
O108 C111 1.258 . S
O109 Zn93 2.024 . S
O109 C96 1.058 . S
C110 O99 1.260 . S
C110 O100 1.258 . S
C111 O107 1.260 . S
C111 O108 1.258 . S
Zn112 O118 1.969 . S
Zn112 O119 1.965 . S
Zn112 O123 2.024 . S
Zn112 O128 1.969 . S
Zn113 O120 1.969 . S
Zn113 O126 1.969 . S
Zn113 O127 1.965 . S
Zn113 O129 2.024 . S
C114 O115 1.229 . S
C114 O123 1.058 . S
O115 C114 1.229 . S
C116 O117 1.229 . S
C116 O129 1.058 . S
O117 C116 1.229 . S
O118 Zn112 1.969 . S
O118 C121 1.267 . S
O119 Zn112 1.965 . S
O119 C130 1.260 . S
O120 Zn113 1.969 . S
O120 C130 1.258 . S
C121 O118 1.267 . S
C121 O122 1.228 . S
O122 C121 1.228 . S
O123 Zn112 2.024 . S
O123 C114 1.058 . S
C124 O125 1.228 . S
C124 O126 1.267 . S
O125 C124 1.228 . S
O126 Zn113 1.969 . S
O126 C124 1.267 . S
O127 Zn113 1.965 . S
O127 C131 1.260 . S
O128 Zn112 1.969 . S
O128 C131 1.258 . S
O129 Zn113 2.024 . S
O129 C116 1.058 . S
C130 O119 1.260 . S
C130 O120 1.258 . S
C131 O127 1.260 . S
C131 O128 1.258 . S
Zn132 O138 1.969 . S
Zn132 O139 1.965 . S
Zn132 O143 2.024 . S
Zn132 O148 1.969 . S
Zn133 O140 1.969 . S
Zn133 O146 1.969 . S
Zn133 O147 1.965 . S
Zn133 O149 2.024 . S
C134 O135 1.229 . S
C134 O143 1.058 . S
O135 C134 1.229 . S
C136 O137 1.229 . S
C136 O149 1.058 . S
O137 C136 1.229 . S
O138 Zn132 1.969 . S
O138 C141 1.267 . S
O139 Zn132 1.965 . S
O139 C150 1.260 1_455 S
O140 Zn133 1.969 . S
O140 C150 1.258 . S
C141 O138 1.267 . S
C141 O142 1.228 . S
O142 C141 1.228 . S
O143 Zn132 2.024 . S
O143 C134 1.058 . S
C144 O145 1.228 . S
C144 O146 1.267 . S
O145 C144 1.228 . S
O146 Zn133 1.969 . S
O146 C144 1.267 . S
O147 Zn133 1.965 . S
O147 C151 1.260 1_655 S
O148 Zn132 1.969 . S
O148 C151 1.258 . S
O149 Zn133 2.024 . S
O149 C136 1.058 . S
C150 O139 1.260 1_655 S
C150 O140 1.258 . S
C151 O147 1.260 1_455 S
C151 O148 1.258 . S
C152 C153 1.391 . S
C152 C154 1.394 . S
C152 H168 0.931 . S
C153 C152 1.391 . S
C153 C157 1.376 . S
C154 C152 1.394 . S
C154 C155 1.369 . S
C154 C158 1.531 . S
C155 C154 1.369 . S
C155 C156 1.410 . S
C155 C163 1.503 . S
C156 C155 1.410 . S
C156 C157 1.392 . S
C156 C159 1.511 . S
C157 C153 1.376 . S
C157 C156 1.392 . S
C157 H169 0.929 . S
C158 C154 1.531 . S
C158 H170 0.960 . S
C158 H171 0.962 . S
C158 H172 0.960 . S
C159 C156 1.511 . S
C159 H173 0.961 . S
C159 H174 0.961 . S
C159 H175 0.961 . S
C160 C161 1.370 . S
C160 C162 1.363 . S
C160 H176 0.931 . S
C161 C160 1.370 . S
C161 C165 1.384 1_545 S
C162 C160 1.363 . S
C162 C163 1.370 . S
C162 C166 1.524 . S
C163 C155 1.503 . S
C163 C162 1.370 . S
C163 C164 1.403 . S
C164 C163 1.403 . S
C164 C165 1.396 1_545 S
C164 C167 1.539 1_545 S
C165 C161 1.384 1_565 S
C165 C164 1.396 1_565 S
C165 H177 0.962 . S
C166 C162 1.524 . S
C166 H178 0.956 . S
C166 H179 0.961 . S
C166 H180 0.961 . S
C167 C164 1.539 1_565 S
C167 H181 0.958 . S
C167 H182 0.961 . S
C167 H183 0.960 . S
H168 C152 0.931 . S
H169 C157 0.929 . S
H170 C158 0.960 . S
H171 C158 0.962 . S
H172 C158 0.960 . S
H173 C159 0.961 . S
H174 C159 0.961 . S
H175 C159 0.961 . S
H176 C160 0.931 . S
H177 C165 0.962 . S
H178 C166 0.956 . S
H179 C166 0.961 . S
H180 C166 0.961 . S
H181 C167 0.958 . S
H182 C167 0.961 . S
H183 C167 0.960 . S
C184 C185 1.391 . S
C184 C186 1.394 . S
C184 H200 0.931 . S
C185 C184 1.391 . S
C185 C189 1.376 . S
C186 C184 1.394 . S
C186 C187 1.369 . S
C186 C190 1.531 . S
C187 C186 1.369 . S
C187 C188 1.410 . S
C187 C195 1.503 . S
C188 C187 1.410 . S
C188 C189 1.392 . S
C188 C191 1.511 . S
C189 C185 1.376 . S
C189 C188 1.392 . S
C189 H201 0.929 . S
C190 C186 1.531 . S
C190 H202 0.960 . S
C190 H203 0.962 . S
C190 H204 0.960 . S
C191 C188 1.511 . S
C191 H205 0.961 . S
C191 H206 0.961 . S
C191 H207 0.961 . S
C192 C193 1.370 . S
C192 C194 1.363 . S
C192 H208 0.931 . S
C193 C192 1.370 . S
C193 C197 1.408 . S
C194 C192 1.363 . S
C194 C195 1.370 . S
C194 C198 1.524 . S
C195 C187 1.503 . S
C195 C194 1.370 . S
C195 C196 1.403 . S
C196 C195 1.403 . S
C196 C197 1.404 . S
C196 C199 1.539 . S
C197 C193 1.408 . S
C197 C196 1.404 . S
C197 H209 0.930 . S
C198 C194 1.524 . S
C198 H210 0.956 . S
C198 H211 0.961 . S
C198 H212 0.961 . S
C199 C196 1.539 . S
C199 H213 0.958 . S
C199 H214 0.961 . S
C199 H215 0.960 . S
H200 C184 0.931 . S
H201 C189 0.929 . S
H202 C190 0.960 . S
H203 C190 0.962 . S
H204 C190 0.960 . S
H205 C191 0.961 . S
H206 C191 0.961 . S
H207 C191 0.961 . S
H208 C192 0.931 . S
H209 C197 0.930 . S
H210 C198 0.956 . S
H211 C198 0.961 . S
H212 C198 0.961 . S
H213 C199 0.958 . S
H214 C199 0.961 . S
H215 C199 0.960 . S
C216 C217 1.391 . S
C216 C218 1.394 . S
C216 H232 0.931 . S
C217 C216 1.391 . S
C217 C221 1.376 . S
C218 C216 1.394 . S
C218 C219 1.369 . S
C218 C222 1.531 . S
C219 C218 1.369 . S
C219 C220 1.410 . S
C219 C227 1.503 . S
C220 C219 1.410 . S
C220 C221 1.392 . S
C220 C223 1.511 . S
C221 C217 1.376 . S
C221 C220 1.392 . S
C221 H233 0.929 . S
C222 C218 1.531 . S
C222 H234 0.960 . S
C222 H235 0.962 . S
C222 H236 0.960 . S
C223 C220 1.511 . S
C223 H237 0.961 . S
C223 H238 0.961 . S
C223 H239 0.961 . S
C224 C225 1.370 . S
C224 C226 1.363 . S
C224 H240 0.931 . S
C225 C224 1.370 . S
C225 C229 1.408 . S
C226 C224 1.363 . S
C226 C227 1.370 . S
C226 C230 1.524 . S
C227 C219 1.503 . S
C227 C226 1.370 . S
C227 C228 1.403 . S
C228 C227 1.403 . S
C228 C229 1.404 . S
C228 C231 1.539 . S
C229 C225 1.408 . S
C229 C228 1.404 . S
C229 H241 0.930 . S
C230 C226 1.524 . S
C230 H242 0.956 . S
C230 H243 0.961 . S
C230 H244 0.961 . S
C231 C228 1.539 . S
C231 H245 0.958 . S
C231 H246 0.961 . S
C231 H247 0.960 . S
H232 C216 0.931 . S
H233 C221 0.929 . S
H234 C222 0.960 . S
H235 C222 0.962 . S
H236 C222 0.960 . S
H237 C223 0.961 . S
H238 C223 0.961 . S
H239 C223 0.961 . S
H240 C224 0.931 . S
H241 C229 0.930 . S
H242 C230 0.956 . S
H243 C230 0.961 . S
H244 C230 0.961 . S
H245 C231 0.958 . S
H246 C231 0.961 . S
H247 C231 0.960 . S
C248 C249 1.391 1_455 S
C248 C250 1.394 . S
C248 H264 0.931 . S
C249 C248 1.391 1_655 S
C249 C253 1.376 . S
C250 C248 1.394 . S
C250 C251 1.369 1_455 S
C250 C254 1.531 . S
C251 C250 1.369 1_655 S
C251 C252 1.410 . S
C251 C259 1.503 . S
C252 C251 1.410 . S
C252 C253 1.392 . S
C252 C255 1.511 . S
C253 C249 1.376 . S
C253 C252 1.392 . S
C253 H265 0.929 . S
C254 C250 1.531 . S
C254 H266 0.960 . S
C254 H267 0.962 . S
C254 H268 0.960 . S
C255 C252 1.511 . S
C255 H269 0.961 . S
C255 H270 0.961 . S
C255 H271 0.961 . S
C256 C257 1.370 1_455 S
C256 C258 1.363 . S
C256 H272 0.931 . S
C257 C256 1.370 1_655 S
C257 C261 1.408 . S
C258 C256 1.363 . S
C258 C259 1.370 1_455 S
C258 C262 1.524 . S
C259 C251 1.503 . S
C259 C258 1.370 1_655 S
C259 C260 1.403 . S
C260 C259 1.403 . S
C260 C261 1.404 . S
C260 C263 1.539 . S
C261 C257 1.408 . S
C261 C260 1.404 . S
C261 H273 0.930 . S
C262 C258 1.524 . S
C262 H274 0.956 . S
C262 H275 0.961 1_455 S
C262 H276 0.961 . S
C263 C260 1.539 . S
C263 H277 0.958 . S
C263 H278 0.961 . S
C263 H279 0.960 . S
H264 C248 0.931 . S
H265 C253 0.929 . S
H266 C254 0.960 . S
H267 C254 0.962 . S
H268 C254 0.960 . S
H269 C255 0.961 . S
H270 C255 0.961 . S
H271 C255 0.961 . S
H272 C256 0.931 . S
H273 C261 0.930 . S
H274 C262 0.956 . S
H275 C262 0.961 1_655 S
H276 C262 0.961 . S
H277 C263 0.958 . S
H278 C263 0.961 . S
H279 C263 0.960 . S
C280 C281 1.391 . S
C280 C282 1.394 . S
C280 H296 0.931 . S
C281 C280 1.391 . S
C281 C285 1.376 1_556 S
C282 C280 1.394 . S
C282 C283 1.369 . S
C282 C286 1.531 . S
C283 C282 1.369 . S
C283 C284 1.410 . S
C283 C291 1.503 . S
C284 C283 1.410 . S
C284 C285 1.392 1_556 S
C284 C287 1.511 . S
C285 C281 1.376 1_554 S
C285 C284 1.392 1_554 S
C285 H297 0.929 . S
C286 C282 1.531 . S
C286 H298 0.960 . S
C286 H299 0.962 . S
C286 H300 0.960 . S
C287 C284 1.511 . S
C287 H301 0.961 1_556 S
C287 H302 0.961 . S
C287 H303 0.961 1_556 S
C288 C289 1.370 . S
C288 C290 1.363 . S
C288 H304 0.931 . S
C289 C288 1.370 . S
C289 C293 1.408 1_565 S
C290 C288 1.363 . S
C290 C291 1.370 . S
C290 C294 1.524 . S
C291 C283 1.503 . S
C291 C290 1.370 . S
C291 C292 1.381 1_565 S
C292 C291 1.381 1_545 S
C292 C293 1.410 . S
C292 C295 1.556 . S
C293 C289 1.408 1_545 S
C293 C292 1.410 . S
C293 H305 0.930 . S
C294 C290 1.524 . S
C294 H306 0.956 . S
C294 H307 0.961 . S
C294 H308 0.961 . S
C295 C292 1.556 . S
C295 H309 0.958 . S
C295 H310 0.961 . S
C295 H311 0.960 . S
H296 C280 0.931 . S
H297 C285 0.929 . S
H298 C286 0.960 . S
H299 C286 0.962 . S
H300 C286 0.960 . S
H301 C287 0.961 1_554 S
H302 C287 0.961 . S
H303 C287 0.961 1_554 S
H304 C288 0.931 . S
H305 C293 0.930 . S
H306 C294 0.956 . S
H307 C294 0.961 . S
H308 C294 0.961 . S
H309 C295 0.958 . S
H310 C295 0.961 . S
H311 C295 0.960 . S
C312 C313 1.391 . S
C312 C314 1.394 . S
C312 H328 0.931 . S
C313 C312 1.391 . S
C313 C317 1.376 . S
C314 C312 1.394 . S
C314 C315 1.369 . S
C314 C318 1.531 . S
C315 C314 1.369 . S
C315 C316 1.410 . S
C315 C323 1.503 . S
C316 C315 1.410 . S
C316 C317 1.392 . S
C316 C319 1.511 . S
C317 C313 1.376 . S
C317 C316 1.392 . S
C317 H329 0.929 1_556 S
C318 C314 1.531 . S
C318 H330 0.960 . S
C318 H331 0.962 . S
C318 H332 0.960 . S
C319 C316 1.511 . S
C319 H333 0.961 . S
C319 H334 0.961 . S
C319 H335 0.961 . S
C320 C321 1.370 . S
C320 C322 1.363 . S
C320 H336 0.931 . S
C321 C320 1.370 . S
C321 C325 1.408 . S
C322 C320 1.363 . S
C322 C323 1.370 . S
C322 C326 1.524 . S
C323 C315 1.503 . S
C323 C322 1.370 . S
C323 C324 1.403 . S
C324 C323 1.403 . S
C324 C325 1.404 . S
C324 C327 1.539 . S
C325 C321 1.408 . S
C325 C324 1.404 . S
C325 H337 0.930 . S
C326 C322 1.524 . S
C326 H338 0.956 . S
C326 H339 0.961 . S
C326 H340 0.961 . S
C327 C324 1.539 . S
C327 H341 0.958 . S
C327 H342 0.961 . S
C327 H343 0.960 . S
H328 C312 0.931 . S
H329 C317 0.929 1_554 S
H330 C318 0.960 . S
H331 C318 0.962 . S
H332 C318 0.960 . S
H333 C319 0.961 . S
H334 C319 0.961 . S
H335 C319 0.961 . S
H336 C320 0.931 . S
H337 C325 0.930 . S
H338 C326 0.956 . S
H339 C326 0.961 . S
H340 C326 0.961 . S
H341 C327 0.958 . S
H342 C327 0.961 . S
H343 C327 0.960 . S
C344 C345 1.391 . S
C344 C346 1.394 . S
C344 H360 0.931 1_556 S
C345 C344 1.391 . S
C345 C349 1.376 . S
C346 C344 1.394 . S
C346 C347 1.369 . S
C346 C350 1.531 . S
C347 C346 1.369 . S
C347 C348 1.410 . S
C347 C355 1.503 . S
C348 C347 1.410 . S
C348 C349 1.392 . S
C348 C351 1.511 . S
C349 C345 1.376 . S
C349 C348 1.392 . S
C349 H361 0.929 . S
C350 C346 1.531 . S
C350 H362 0.960 . S
C350 H363 0.962 . S
C350 H364 0.960 . S
C351 C348 1.511 . S
C351 H365 0.961 . S
C351 H366 0.961 . S
C351 H367 0.961 . S
C352 C353 1.370 . S
C352 C354 1.363 . S
C352 H368 0.931 . S
C353 C352 1.370 . S
C353 C357 1.408 . S
C354 C352 1.363 . S
C354 C355 1.370 . S
C354 C358 1.524 . S
C355 C347 1.503 . S
C355 C354 1.370 . S
C355 C356 1.403 . S
C356 C355 1.403 . S
C356 C357 1.404 . S
C356 C359 1.539 . S
C357 C353 1.408 . S
C357 C356 1.404 . S
C357 H369 0.930 . S
C358 C354 1.524 . S
C358 H370 0.956 . S
C358 H371 0.961 . S
C358 H372 0.961 . S
C359 C356 1.539 . S
C359 H373 0.958 . S
C359 H374 0.961 . S
C359 H375 0.960 . S
H360 C344 0.931 1_554 S
H361 C349 0.929 . S
H362 C350 0.960 . S
H363 C350 0.962 . S
H364 C350 0.960 . S
H365 C351 0.961 . S
H366 C351 0.961 . S
H367 C351 0.961 . S
H368 C352 0.931 . S
H369 C357 0.930 . S
H370 C358 0.956 . S
H371 C358 0.961 . S
H372 C358 0.961 . S
H373 C359 0.958 . S
H374 C359 0.961 . S
H375 C359 0.960 . S
C376 C377 1.391 1_454 S
C376 C378 1.394 1_554 S
C376 H392 0.931 . S
C377 C376 1.391 1_656 S
C377 C381 1.376 . S
C378 C376 1.394 1_556 S
C378 C379 1.369 1_455 S
C378 C382 1.531 . S
C379 C378 1.369 1_655 S
C379 C380 1.410 . S
C379 C387 1.503 1_655 S
C380 C379 1.410 . S
C380 C381 1.392 . S
C380 C383 1.511 . S
C381 C377 1.376 . S
C381 C380 1.392 . S
C381 H393 0.929 . S
C382 C378 1.531 . S
C382 H394 0.960 . S
C382 H395 0.962 . S
C382 H396 0.960 1_556 S
C383 C380 1.511 . S
C383 H397 0.961 . S
C383 H398 0.961 . S
C383 H399 0.961 . S
C384 C385 1.370 . S
C384 C386 1.363 . S
C384 H400 0.931 . S
C385 C384 1.370 . S
C385 C389 1.408 1_455 S
C386 C384 1.363 . S
C386 C387 1.374 . S
C386 C390 1.524 . S
C387 C379 1.503 1_455 S
C387 C386 1.374 . S
C387 C388 1.400 1_455 S
C388 C387 1.400 1_655 S
C388 C389 1.404 . S
C388 C391 1.539 . S
C389 C385 1.408 1_655 S
C389 C388 1.404 . S
C389 H401 0.930 . S
C390 C386 1.524 . S
C390 H402 0.956 . S
C390 H403 0.961 . S
C390 H404 0.961 . S
C391 C388 1.539 . S
C391 H405 0.958 . S
C391 H406 0.961 . S
C391 H407 0.960 . S
H392 C376 0.931 . S
H393 C381 0.929 . S
H394 C382 0.960 . S
H395 C382 0.962 . S
H396 C382 0.960 1_554 S
H397 C383 0.961 . S
H398 C383 0.961 . S
H399 C383 0.961 . S
H400 C384 0.931 . S
H401 C389 0.930 . S
H402 C390 0.956 . S
H403 C390 0.961 . S
H404 C390 0.961 . S
H405 C391 0.958 . S
H406 C391 0.961 . S
H407 C391 0.960 . S
C408 C409 1.391 1_655 S
C408 C410 1.394 . S
C408 H424 0.931 . S
C409 C408 1.391 1_455 S
C409 C413 1.376 . S
C410 C408 1.394 . S
C410 C411 1.369 . S
C410 C414 1.531 . S
C411 C410 1.369 . S
C411 C412 1.410 1_655 S
C411 C419 1.503 . S
C412 C411 1.410 1_455 S
C412 C413 1.392 . S
C412 C415 1.511 . S
C413 C409 1.376 . S
C413 C412 1.392 . S
C413 H425 0.929 . S
C414 C410 1.531 . S
C414 H426 0.960 . S
C414 H427 0.962 . S
C414 H428 0.960 . S
C415 C412 1.511 . S
C415 H429 0.961 . S
C415 H430 0.961 . S
C415 H431 0.961 . S
C416 C417 1.370 . S
C416 C418 1.363 . S
C416 H432 0.931 . S
C417 C416 1.370 . S
C417 C421 1.408 1_655 S
C418 C416 1.363 . S
C418 C419 1.370 . S
C418 C422 1.524 . S
C419 C411 1.503 . S
C419 C418 1.370 . S
C419 C420 1.403 1_655 S
C420 C419 1.403 1_455 S
C420 C421 1.404 . S
C420 C423 1.539 . S
C421 C417 1.408 1_455 S
C421 C420 1.404 . S
C421 H433 0.930 . S
C422 C418 1.524 . S
C422 H434 0.956 . S
C422 H435 0.961 . S
C422 H436 0.961 . S
C423 C420 1.539 . S
C423 H437 0.958 . S
C423 H438 0.961 . S
C423 H439 0.960 . S
H424 C408 0.931 . S
H425 C413 0.929 . S
H426 C414 0.960 . S
H427 C414 0.962 . S
H428 C414 0.960 . S
H429 C415 0.961 . S
H430 C415 0.961 . S
H431 C415 0.961 . S
H432 C416 0.931 . S
H433 C421 0.930 . S
H434 C422 0.956 . S
H435 C422 0.961 . S
H436 C422 0.961 . S
H437 C423 0.958 . S
H438 C423 0.961 . S
H439 C423 0.960 . S
C440 C441 1.391 . S
C440 C442 1.394 . S
C440 H456 0.931 . S
C441 C440 1.391 . S
C441 C445 1.376 . S
C442 C440 1.394 . S
C442 C443 1.369 . S
C442 C446 1.531 . S
C443 C442 1.369 . S
C443 C444 1.410 . S
C443 C451 1.503 . S
C444 C443 1.410 . S
C444 C445 1.392 . S
C444 C447 1.511 . S
C445 C441 1.376 . S
C445 C444 1.392 . S
C445 H457 0.929 . S
C446 C442 1.531 . S
C446 H458 0.960 . S
C446 H459 0.962 . S
C446 H460 0.960 . S
C447 C444 1.511 . S
C447 H461 0.961 . S
C447 H462 0.961 . S
C447 H463 0.961 . S
C448 C449 1.370 . S
C448 C450 1.363 . S
C448 H464 0.931 . S
C449 C448 1.370 . S
C449 C453 1.408 1_545 S
C450 C448 1.363 . S
C450 C451 1.370 . S
C450 C454 1.524 . S
C451 C443 1.503 . S
C451 C450 1.370 . S
C451 C452 1.403 . S
C452 C451 1.403 . S
C452 C453 1.404 1_545 S
C452 C455 1.539 1_545 S
C453 C449 1.408 1_565 S
C453 C452 1.404 1_565 S
C453 H465 0.930 . S
C454 C450 1.524 . S
C454 H466 0.956 . S
C454 H467 0.961 . S
C454 H468 0.961 . S
C455 C452 1.539 1_565 S
C455 H469 0.958 . S
C455 H470 0.961 . S
C455 H471 0.972 . S
H456 C440 0.931 . S
H457 C445 0.929 . S
H458 C446 0.960 . S
H459 C446 0.962 . S
H460 C446 0.960 . S
H461 C447 0.961 . S
H462 C447 0.961 . S
H463 C447 0.961 . S
H464 C448 0.931 . S
H465 C453 0.930 . S
H466 C454 0.956 . S
H467 C454 0.961 . S
H468 C454 0.961 . S
H469 C455 0.958 . S
H470 C455 0.961 . S
H471 C455 0.972 . S
C472 C473 1.391 . S
C472 C474 1.394 . S
C472 H488 0.931 . S
C473 C472 1.391 . S
C473 C477 1.376 . S
C474 C472 1.394 . S
C474 C475 1.369 . S
C474 C478 1.531 . S
C475 C474 1.369 . S
C475 C476 1.410 . S
C475 C483 1.503 . S
C476 C475 1.410 . S
C476 C477 1.392 . S
C476 C479 1.511 . S
C477 C473 1.376 . S
C477 C476 1.392 . S
C477 H489 0.929 . S
C478 C474 1.531 . S
C478 H490 0.960 . S
C478 H491 0.962 . S
C478 H492 0.960 . S
C479 C476 1.511 . S
C479 H493 0.961 . S
C479 H494 0.961 . S
C479 H495 0.961 . S
C480 C481 1.370 . S
C480 C482 1.363 . S
C480 H496 0.931 . S
C481 C480 1.370 . S
C481 C485 1.408 . S
C482 C480 1.363 . S
C482 C483 1.370 . S
C482 C486 1.524 . S
C483 C475 1.503 . S
C483 C482 1.370 . S
C483 C484 1.403 . S
C484 C483 1.403 . S
C484 C485 1.404 . S
C484 C487 1.539 . S
C485 C481 1.408 . S
C485 C484 1.404 . S
C485 H497 0.930 . S
C486 C482 1.524 . S
C486 H498 0.956 . S
C486 H499 0.961 . S
C486 H500 0.961 . S
C487 C484 1.539 . S
C487 H501 0.958 . S
C487 H502 0.961 . S
C487 H503 0.960 . S
H488 C472 0.931 . S
H489 C477 0.929 . S
H490 C478 0.960 . S
H491 C478 0.962 . S
H492 C478 0.960 . S
H493 C479 0.961 . S
H494 C479 0.961 . S
H495 C479 0.961 . S
H496 C480 0.931 . S
H497 C485 0.930 . S
H498 C486 0.956 . S
H499 C486 0.961 . S
H500 C486 0.961 . S
H501 C487 0.958 . S
H502 C487 0.961 . S
H503 C487 0.960 . S
C504 C505 1.391 . S
C504 C506 1.394 . S
C504 H520 0.931 . S
C505 C504 1.391 . S
C505 C509 1.376 . S
C506 C504 1.394 . S
C506 C507 1.369 . S
C506 C510 1.531 . S
C507 C506 1.369 . S
C507 C508 1.410 . S
C507 C515 1.503 . S
C508 C507 1.410 . S
C508 C509 1.392 . S
C508 C511 1.511 . S
C509 C505 1.376 . S
C509 C508 1.392 . S
C509 H521 0.929 . S
C510 C506 1.531 . S
C510 H522 0.960 . S
C510 H523 0.962 . S
C510 H524 0.960 . S
C511 C508 1.511 . S
C511 H525 0.961 . S
C511 H526 0.961 . S
C511 H527 0.961 . S
C512 C513 1.370 . S
C512 C514 1.363 . S
C512 H528 0.931 . S
C513 C512 1.370 . S
C513 C517 1.408 . S
C514 C512 1.363 . S
C514 C515 1.370 . S
C514 C518 1.524 . S
C515 C507 1.503 . S
C515 C514 1.370 . S
C515 C516 1.403 . S
C516 C515 1.403 . S
C516 C517 1.404 . S
C516 C519 1.539 . S
C517 C513 1.408 . S
C517 C516 1.404 . S
C517 H529 0.930 . S
C518 C514 1.524 . S
C518 H530 0.956 . S
C518 H531 0.961 . S
C518 H532 0.961 . S
C519 C516 1.539 . S
C519 H533 0.958 . S
C519 H534 0.961 . S
C519 H535 0.960 . S
H520 C504 0.931 . S
H521 C509 0.929 . S
H522 C510 0.960 . S
H523 C510 0.962 . S
H524 C510 0.960 . S
H525 C511 0.961 . S
H526 C511 0.961 . S
H527 C511 0.961 . S
H528 C512 0.931 . S
H529 C517 0.930 . S
H530 C518 0.956 . S
H531 C518 0.961 . S
H532 C518 0.961 . S
H533 C519 0.958 . S
H534 C519 0.961 . S
H535 C519 0.960 . S
C536 C537 1.391 1_554 S
C536 C538 1.394 1_554 S
C536 H552 0.931 . S
C537 C536 1.391 1_556 S
C537 C541 1.376 . S
C538 C536 1.394 1_556 S
C538 C539 1.369 . S
C538 C542 1.531 1_556 S
C539 C538 1.369 . S
C539 C540 1.410 . S
C539 C547 1.503 . S
C540 C539 1.410 . S
C540 C541 1.392 . S
C540 C543 1.511 . S
C541 C537 1.376 . S
C541 C540 1.392 . S
C541 H553 0.929 . S
C542 C538 1.531 1_554 S
C542 H554 0.960 1_554 S
C542 H555 0.962 1_455 S
C542 H556 0.960 . S
C543 C540 1.511 . S
C543 H557 0.961 . S
C543 H558 0.961 . S
C543 H559 0.961 . S
C544 C545 1.370 1_655 S
C544 C546 1.363 . S
C544 H560 0.931 . S
C545 C544 1.370 1_455 S
C545 C549 1.408 . S
C546 C544 1.363 . S
C546 C547 1.370 1_655 S
C546 C550 1.524 . S
C547 C539 1.503 . S
C547 C546 1.370 1_455 S
C547 C548 1.403 . S
C548 C547 1.403 . S
C548 C549 1.404 . S
C548 C551 1.539 . S
C549 C545 1.408 . S
C549 C548 1.404 . S
C549 H561 0.930 . S
C550 C546 1.524 . S
C550 H562 0.956 . S
C550 H563 0.961 . S
C550 H564 0.961 . S
C551 C548 1.539 . S
C551 H565 0.958 . S
C551 H566 0.961 . S
C551 H567 0.960 . S
H552 C536 0.931 . S
H553 C541 0.929 . S
H554 C542 0.960 1_556 S
H555 C542 0.962 1_655 S
H556 C542 0.960 . S
H557 C543 0.961 . S
H558 C543 0.961 . S
H559 C543 0.961 . S
H560 C544 0.931 . S
H561 C549 0.930 . S
H562 C550 0.956 . S
H563 C550 0.961 . S
H564 C550 0.961 . S
H565 C551 0.958 . S
H566 C551 0.961 . S
H567 C551 0.960 . S
C568 C569 1.391 . S
C568 C570 1.394 . S
C568 H584 0.931 . S
C569 C568 1.391 . S
C569 C573 1.376 . S
C570 C568 1.394 . S
C570 C571 1.369 . S
C570 C574 1.531 . S
C571 C570 1.369 . S
C571 C572 1.410 . S
C571 C579 1.503 . S
C572 C571 1.410 . S
C572 C573 1.392 . S
C572 C575 1.511 . S
C573 C569 1.376 . S
C573 C572 1.392 . S
C573 H585 0.929 1_556 S
C574 C570 1.531 . S
C574 H586 0.960 . S
C574 H587 0.962 . S
C574 H588 0.960 . S
C575 C572 1.511 . S
C575 H589 0.961 1_556 S
C575 H590 0.961 . S
C575 H591 0.961 . S
C576 C577 1.370 1_545 S
C576 C578 1.363 1_545 S
C576 H592 0.931 . S
C577 C576 1.370 1_565 S
C577 C581 1.408 . S
C578 C576 1.363 1_565 S
C578 C579 1.370 . S
C578 C582 1.524 1_565 S
C579 C571 1.503 . S
C579 C578 1.370 . S
C579 C580 1.403 . S
C580 C579 1.403 . S
C580 C581 1.404 . S
C580 C583 1.539 . S
C581 C577 1.408 . S
C581 C580 1.404 . S
C581 H593 0.930 . S
C582 C578 1.524 1_545 S
C582 H594 0.956 . S
C582 H595 0.961 . S
C582 H596 0.961 . S
C583 C580 1.539 . S
C583 H597 0.958 . S
C583 H598 0.961 . S
C583 H599 0.960 . S
H584 C568 0.931 . S
H585 C573 0.929 1_554 S
H586 C574 0.960 . S
H587 C574 0.962 . S
H588 C574 0.960 . S
H589 C575 0.961 1_554 S
H590 C575 0.961 . S
H591 C575 0.961 . S
H592 C576 0.931 . S
H593 C581 0.930 . S
H594 C582 0.956 . S
H595 C582 0.961 . S
H596 C582 0.961 . S
H597 C583 0.958 . S
H598 C583 0.961 . S
H599 C583 0.960 . S
C600 C601 1.391 . S
C600 C602 1.394 . S
C600 H616 0.931 . S
C601 C600 1.391 . S
C601 C605 1.376 . S
C602 C600 1.394 . S
C602 C603 1.369 . S
C602 C606 1.531 . S
C603 C602 1.369 . S
C603 C604 1.410 . S
C603 C611 1.503 . S
C604 C603 1.410 . S
C604 C605 1.392 . S
C604 C607 1.511 . S
C605 C601 1.376 . S
C605 C604 1.392 . S
C605 H617 0.923 1_556 S
C606 C602 1.531 . S
C606 H618 0.960 . S
C606 H619 0.962 . S
C606 H620 0.960 . S
C607 C604 1.511 . S
C607 H621 0.961 . S
C607 H622 0.961 . S
C607 H623 0.961 . S
C608 C609 1.370 . S
C608 C610 1.363 . S
C608 H624 0.931 . S
C609 C608 1.370 . S
C609 C613 1.408 . S
C610 C608 1.363 . S
C610 C611 1.370 . S
C610 C614 1.524 . S
C611 C603 1.503 . S
C611 C610 1.370 . S
C611 C612 1.403 . S
C612 C611 1.403 . S
C612 C613 1.404 . S
C612 C615 1.539 . S
C613 C609 1.408 . S
C613 C612 1.404 . S
C613 H625 0.930 . S
C614 C610 1.524 . S
C614 H626 0.956 . S
C614 H627 0.961 . S
C614 H628 0.961 . S
C615 C612 1.539 . S
C615 H629 0.958 . S
C615 H630 0.961 . S
C615 H631 0.960 . S
H616 C600 0.931 . S
H617 C605 0.923 1_554 S
H618 C606 0.960 . S
H619 C606 0.962 . S
H620 C606 0.960 . S
H621 C607 0.961 . S
H622 C607 0.961 . S
H623 C607 0.961 . S
H624 C608 0.931 . S
H625 C613 0.930 . S
H626 C614 0.956 . S
H627 C614 0.961 . S
H628 C614 0.961 . S
H629 C615 0.958 . S
H630 C615 0.961 . S
H631 C615 0.960 . S
C632 C633 1.391 . S
C632 C634 1.394 . S
C632 H648 0.931 . S
C633 C632 1.391 . S
C633 C637 1.376 . S
C634 C632 1.394 . S
C634 C635 1.369 . S
C634 C638 1.531 . S
C635 C634 1.369 . S
C635 C636 1.410 . S
C635 C643 1.503 . S
C636 C635 1.410 . S
C636 C637 1.392 . S
C636 C639 1.511 . S
C637 C633 1.376 . S
C637 C636 1.392 . S
C637 H649 0.929 . S
C638 C634 1.531 . S
C638 H650 0.960 . S
C638 H651 0.962 . S
C638 H652 0.960 . S
C639 C636 1.511 . S
C639 H653 0.961 . S
C639 H654 0.961 . S
C639 H655 0.961 . S
C640 C641 1.370 . S
C640 C642 1.363 . S
C640 H656 0.931 . S
C641 C640 1.370 . S
C641 C645 1.408 . S
C642 C640 1.363 . S
C642 C643 1.370 . S
C642 C646 1.524 . S
C643 C635 1.503 . S
C643 C642 1.370 . S
C643 C644 1.403 . S
C644 C643 1.403 . S
C644 C645 1.404 . S
C644 C647 1.539 . S
C645 C641 1.408 . S
C645 C644 1.404 . S
C645 H657 0.930 . S
C646 C642 1.524 . S
C646 H658 0.956 . S
C646 H659 0.961 . S
C646 H660 0.961 . S
C647 C644 1.539 . S
C647 H661 0.958 . S
C647 H662 0.961 . S
C647 H663 0.960 . S
H648 C632 0.931 . S
H649 C637 0.929 . S
H650 C638 0.960 . S
H651 C638 0.962 . S
H652 C638 0.960 . S
H653 C639 0.961 . S
H654 C639 0.961 . S
H655 C639 0.961 . S
H656 C640 0.931 . S
H657 C645 0.930 . S
H658 C646 0.956 . S
H659 C646 0.961 . S
H660 C646 0.961 . S
H661 C647 0.958 . S
H662 C647 0.961 . S
H663 C647 0.960 . S
C664 C665 1.391 1_655 S
C664 C666 1.394 . S
C664 H680 0.931 . S
C665 C664 1.391 1_455 S
C665 C669 1.376 . S
C666 C664 1.394 . S
C666 C667 1.369 1_655 S
C666 C670 1.531 . S
C667 C666 1.369 1_455 S
C667 C668 1.410 . S
C667 C675 1.503 . S
C668 C667 1.410 . S
C668 C669 1.392 . S
C668 C671 1.511 . S
C669 C665 1.376 . S
C669 C668 1.392 . S
C669 H681 0.929 . S
C670 C666 1.531 . S
C670 H682 0.960 . S
C670 H683 0.962 . S
C670 H684 0.960 . S
C671 C668 1.511 . S
C671 H685 0.961 . S
C671 H686 0.961 . S
C671 H687 0.961 . S
C672 C673 1.370 . S
C672 C674 1.363 . S
C672 H688 0.931 . S
C673 C672 1.370 . S
C673 C677 1.408 . S
C674 C672 1.363 . S
C674 C675 1.370 . S
C674 C678 1.524 . S
C675 C667 1.503 . S
C675 C674 1.370 . S
C675 C676 1.403 . S
C676 C675 1.403 . S
C676 C677 1.404 . S
C676 C679 1.539 . S
C677 C673 1.408 . S
C677 C676 1.404 . S
C677 H689 0.930 . S
C678 C674 1.524 . S
C678 H690 0.956 1_456 S
C678 H691 0.961 1_556 S
C678 H692 0.961 1_556 S
C679 C676 1.539 . S
C679 H693 0.958 1_455 S
C679 H694 0.961 . S
C679 H695 0.960 . S
H680 C664 0.931 . S
H681 C669 0.929 . S
H682 C670 0.960 . S
H683 C670 0.962 . S
H684 C670 0.960 . S
H685 C671 0.961 . S
H686 C671 0.961 . S
H687 C671 0.961 . S
H688 C672 0.931 . S
H689 C677 0.930 . S
H690 C678 0.956 1_654 S
H691 C678 0.961 1_554 S
H692 C678 0.961 1_554 S
H693 C679 0.958 1_655 S
H694 C679 0.961 . S
H695 C679 0.960 . S
C696 C697 1.391 . S
C696 C698 1.394 1_554 S
C696 H712 0.931 . S
C697 C696 1.391 . S
C697 C701 1.376 1_554 S
C698 C696 1.394 1_556 S
C698 C699 1.369 . S
C698 C702 1.531 1_556 S
C699 C698 1.369 . S
C699 C700 1.410 . S
C699 C707 1.503 . S
C700 C699 1.410 . S
C700 C701 1.392 . S
C700 C703 1.511 . S
C701 C697 1.376 1_556 S
C701 C700 1.392 . S
C701 H713 0.929 . S
C702 C698 1.531 1_554 S
C702 H714 0.960 1_554 S
C702 H715 0.962 . S
C702 H716 0.960 . S
C703 C700 1.511 . S
C703 H717 0.961 . S
C703 H718 0.961 . S
C703 H719 0.961 . S
C704 C705 1.370 . S
C704 C706 1.363 . S
C704 H720 0.931 . S
C705 C704 1.370 . S
C705 C709 1.408 . S
C706 C704 1.363 . S
C706 C707 1.370 . S
C706 C710 1.524 . S
C707 C699 1.503 . S
C707 C706 1.370 . S
C707 C708 1.403 . S
C708 C707 1.403 . S
C708 C709 1.404 . S
C708 C711 1.539 . S
C709 C705 1.408 . S
C709 C708 1.404 . S
C709 H721 0.930 . S
C710 C706 1.524 . S
C710 H722 0.956 . S
C710 H723 0.961 . S
C710 H724 0.961 . S
C711 C708 1.539 . S
C711 H725 0.958 1_545 S
C711 H726 0.961 . S
C711 H727 0.960 . S
H712 C696 0.931 . S
H713 C701 0.929 . S
H714 C702 0.960 1_556 S
H715 C702 0.962 . S
H716 C702 0.960 . S
H717 C703 0.961 . S
H718 C703 0.961 . S
H719 C703 0.961 . S
H720 C704 0.931 . S
H721 C709 0.930 . S
H722 C710 0.956 . S
H723 C710 0.961 . S
H724 C710 0.961 . S
H725 C711 0.958 1_565 S
H726 C711 0.961 . S
H727 C711 0.960 . S
C728 C729 1.389 1_556 S
C728 C730 1.394 . S
C728 H744 0.931 . S
C729 C728 1.389 1_554 S
C729 C733 1.376 . S
C730 C728 1.394 . S
C730 C731 1.369 . S
C730 C734 1.531 . S
C731 C730 1.369 . S
C731 C732 1.410 . S
C731 C739 1.503 . S
C732 C731 1.410 . S
C732 C733 1.392 1_556 S
C732 C735 1.511 . S
C733 C729 1.376 . S
C733 C732 1.392 1_554 S
C733 H745 0.929 . S
C734 C730 1.531 . S
C734 H746 0.960 . S
C734 H747 0.962 . S
C734 H748 0.960 . S
C735 C732 1.511 . S
C735 H749 0.961 1_556 S
C735 H750 0.961 . S
C735 H751 0.961 . S
C736 C737 1.370 . S
C736 C738 1.363 . S
C736 H752 0.931 . S
C737 C736 1.370 . S
C737 C741 1.408 . S
C738 C736 1.363 . S
C738 C739 1.370 . S
C738 C742 1.524 . S
C739 C731 1.503 . S
C739 C738 1.370 . S
C739 C740 1.403 . S
C740 C739 1.403 . S
C740 C741 1.404 . S
C740 C743 1.539 . S
C741 C737 1.408 . S
C741 C740 1.404 . S
C741 H753 0.930 . S
C742 C738 1.524 . S
C742 H754 0.956 . S
C742 H755 0.961 1_556 S
C742 H756 0.961 . S
C743 C740 1.539 . S
C743 H757 0.958 . S
C743 H758 0.961 . S
C743 H759 0.960 . S
H744 C728 0.931 . S
H745 C733 0.929 . S
H746 C734 0.960 . S
H747 C734 0.962 . S
H748 C734 0.960 . S
H749 C735 0.961 1_554 S
H750 C735 0.961 . S
H751 C735 0.961 . S
H752 C736 0.931 . S
H753 C741 0.930 . S
H754 C742 0.956 . S
H755 C742 0.961 1_554 S
H756 C742 0.961 . S
H757 C743 0.958 . S
H758 C743 0.961 . S
H759 C743 0.960 . S
C760 C761 1.391 . S
C760 C762 1.394 . S
C760 H776 0.931 . S
C761 C760 1.391 . S
C761 C765 1.376 1_554 S
C762 C760 1.394 . S
C762 C763 1.369 1_554 S
C762 C766 1.531 . S
C763 C762 1.369 1_556 S
C763 C764 1.410 . S
C763 C771 1.503 . S
C764 C763 1.410 . S
C764 C765 1.392 . S
C764 C767 1.511 . S
C765 C761 1.376 1_556 S
C765 C764 1.392 . S
C765 H777 0.929 . S
C766 C762 1.531 . S
C766 H778 0.960 . S
C766 H779 0.962 . S
C766 H780 0.960 . S
C767 C764 1.511 . S
C767 H781 0.961 . S
C767 H782 0.961 . S
C767 H783 0.961 . S
C768 C769 1.370 . S
C768 C770 1.363 . S
C768 H784 0.931 . S
C769 C768 1.370 . S
C769 C773 1.408 . S
C770 C768 1.363 . S
C770 C771 1.370 . S
C770 C774 1.524 . S
C771 C763 1.503 . S
C771 C770 1.370 . S
C771 C772 1.403 . S
C772 C771 1.403 . S
C772 C773 1.404 . S
C772 C775 1.539 . S
C773 C769 1.408 . S
C773 C772 1.404 . S
C773 H785 0.930 . S
C774 C770 1.524 . S
C774 H786 0.956 . S
C774 H787 0.961 . S
C774 H788 0.961 . S
C775 C772 1.539 . S
C775 H789 0.958 . S
C775 H790 0.961 . S
C775 H791 0.960 . S
H776 C760 0.931 . S
H777 C765 0.929 . S
H778 C766 0.960 . S
H779 C766 0.962 . S
H780 C766 0.960 . S
H781 C767 0.961 . S
H782 C767 0.961 . S
H783 C767 0.961 . S
H784 C768 0.931 . S
H785 C773 0.930 . S
H786 C774 0.956 . S
H787 C774 0.961 . S
H788 C774 0.961 . S
H789 C775 0.958 . S
H790 C775 0.961 . S
H791 C775 0.960 . S
C792 C793 1.418 . S
C792 C794 1.394 . S
C792 H808 0.931 . S
C793 C792 1.418 . S
C793 C797 1.351 1_655 S
C794 C792 1.394 . S
C794 C795 1.369 . S
C794 C798 1.531 . S
C795 C794 1.369 . S
C795 C796 1.410 1_655 S
C795 C803 1.503 . S
C796 C795 1.410 1_455 S
C796 C797 1.392 . S
C796 C799 1.511 . S
C797 C793 1.351 1_455 S
C797 C796 1.392 . S
C797 H809 0.929 . S
C798 C794 1.531 . S
C798 H810 0.960 . S
C798 H811 0.962 . S
C798 H812 0.960 . S
C799 C796 1.511 . S
C799 H813 0.961 . S
C799 H814 0.961 . S
C799 H815 0.961 . S
C800 C801 1.370 . S
C800 C802 1.363 . S
C800 H816 0.931 . S
C801 C800 1.370 . S
C801 C805 1.408 . S
C802 C800 1.363 . S
C802 C803 1.370 . S
C802 C806 1.524 . S
C803 C795 1.503 . S
C803 C802 1.370 . S
C803 C804 1.403 . S
C804 C803 1.403 . S
C804 C805 1.404 . S
C804 C807 1.539 1_655 S
C805 C801 1.408 . S
C805 C804 1.404 . S
C805 H817 0.930 . S
C806 C802 1.524 . S
C806 H818 0.956 . S
C806 H819 0.961 1_655 S
C806 H820 0.961 . S
C807 C804 1.539 1_455 S
C807 H821 0.958 1_455 S
C807 H822 0.961 . S
C807 H823 0.960 . S
H808 C792 0.931 . S
H809 C797 0.929 . S
H810 C798 0.960 . S
H811 C798 0.962 . S
H812 C798 0.960 . S
H813 C799 0.961 . S
H814 C799 0.961 . S
H815 C799 0.961 . S
H816 C800 0.931 . S
H817 C805 0.930 . S
H818 C806 0.956 . S
H819 C806 0.961 1_455 S
H820 C806 0.961 . S
H821 C807 0.958 1_655 S
H822 C807 0.961 . S
H823 C807 0.960 . S
C824 C825 1.391 . S
C824 C826 1.394 . S
C824 H840 0.931 . S
C825 C824 1.391 . S
C825 C829 1.376 . S
C826 C824 1.394 . S
C826 C827 1.369 . S
C826 C830 1.531 . S
C827 C826 1.369 . S
C827 C828 1.410 . S
C827 C835 1.503 . S
C828 C827 1.410 . S
C828 C829 1.392 . S
C828 C831 1.511 . S
C829 C825 1.376 . S
C829 C828 1.392 . S
C829 H841 0.929 . S
C830 C826 1.531 . S
C830 H842 0.960 . S
C830 H843 0.962 . S
C830 H844 0.960 . S
C831 C828 1.511 . S
C831 H845 0.961 . S
C831 H846 0.961 . S
C831 H847 0.961 . S
C832 C833 1.370 . S
C832 C834 1.363 . S
C832 H848 0.958 . S
C833 C832 1.370 . S
C833 C837 1.408 . S
C834 C832 1.363 . S
C834 C835 1.370 . S
C834 C838 1.524 . S
C835 C827 1.503 . S
C835 C834 1.370 . S
C835 C836 1.403 . S
C836 C835 1.403 . S
C836 C837 1.404 . S
C836 C839 1.539 . S
C837 C833 1.408 . S
C837 C836 1.404 . S
C837 H849 0.930 . S
C838 C834 1.524 . S
C838 H850 0.956 . S
C838 H851 0.961 1_565 S
C838 H852 0.961 1_565 S
C839 C836 1.539 . S
C839 H853 0.958 . S
C839 H854 0.961 . S
C839 H855 0.960 . S
H840 C824 0.931 . S
H841 C829 0.929 . S
H842 C830 0.960 . S
H843 C830 0.962 . S
H844 C830 0.960 . S
H845 C831 0.961 . S
H846 C831 0.961 . S
H847 C831 0.961 . S
H848 C832 0.958 . S
H849 C837 0.930 . S
H850 C838 0.956 . S
H851 C838 0.961 1_545 S
H852 C838 0.961 1_545 S
H853 C839 0.958 . S
H854 C839 0.961 . S
H855 C839 0.960 . S
C856 C857 1.391 . S
C856 C858 1.394 . S
C856 H872 0.931 . S
C857 C856 1.391 . S
C857 C861 1.376 . S
C858 C856 1.394 . S
C858 C859 1.369 . S
C858 C862 1.531 . S
C859 C858 1.369 . S
C859 C860 1.410 . S
C859 C867 1.503 . S
C860 C859 1.410 . S
C860 C861 1.392 . S
C860 C863 1.511 . S
C861 C857 1.376 . S
C861 C860 1.392 . S
C861 H873 0.929 . S
C862 C858 1.531 . S
C862 H874 0.960 . S
C862 H875 0.962 . S
C862 H876 0.960 . S
C863 C860 1.511 . S
C863 H877 0.961 . S
C863 H878 0.961 . S
C863 H879 0.961 . S
C864 C865 1.370 . S
C864 C866 1.363 . S
C864 H880 0.931 . S
C865 C864 1.370 . S
C865 C869 1.408 . S
C866 C864 1.363 . S
C866 C867 1.370 . S
C866 C870 1.524 . S
C867 C859 1.503 . S
C867 C866 1.370 . S
C867 C868 1.403 . S
C868 C867 1.403 . S
C868 C869 1.404 . S
C868 C871 1.539 . S
C869 C865 1.408 . S
C869 C868 1.404 . S
C869 H881 0.930 . S
C870 C866 1.524 . S
C870 H882 0.956 . S
C870 H883 0.961 . S
C870 H884 0.961 . S
C871 C868 1.539 . S
C871 H885 0.958 . S
C871 H886 0.961 . S
C871 H887 0.960 . S
H872 C856 0.931 . S
H873 C861 0.929 . S
H874 C862 0.960 . S
H875 C862 0.962 . S
H876 C862 0.960 . S
H877 C863 0.961 . S
H878 C863 0.961 . S
H879 C863 0.961 . S
H880 C864 0.931 . S
H881 C869 0.930 . S
H882 C870 0.956 . S
H883 C870 0.961 . S
H884 C870 0.961 . S
H885 C871 0.958 . S
H886 C871 0.961 . S
H887 C871 0.960 . S
C888 C889 1.391 . S
C888 C890 1.394 . S
C888 H904 0.931 . S
C889 C888 1.391 . S
C889 C893 1.376 . S
C890 C888 1.394 . S
C890 C891 1.369 . S
C890 C894 1.531 . S
C891 C890 1.369 . S
C891 C892 1.410 . S
C891 C899 1.503 . S
C892 C891 1.410 . S
C892 C893 1.392 . S
C892 C895 1.511 . S
C893 C889 1.376 . S
C893 C892 1.392 . S
C893 H905 0.929 . S
C894 C890 1.531 . S
C894 H906 0.960 . S
C894 H907 0.962 . S
C894 H908 0.960 . S
C895 C892 1.511 . S
C895 H909 0.961 . S
C895 H910 0.961 . S
C895 H911 0.961 . S
C896 C897 1.370 . S
C896 C898 1.363 . S
C896 H912 0.931 . S
C897 C896 1.370 . S
C897 C901 1.408 . S
C898 C896 1.363 . S
C898 C899 1.370 . S
C898 C902 1.524 . S
C899 C891 1.503 . S
C899 C898 1.370 . S
C899 C900 1.403 . S
C900 C899 1.403 . S
C900 C901 1.404 . S
C900 C903 1.539 . S
C901 C897 1.408 . S
C901 C900 1.404 . S
C901 H913 0.930 . S
C902 C898 1.524 . S
C902 H914 0.956 . S
C902 H915 0.961 . S
C902 H916 0.961 . S
C903 C900 1.539 . S
C903 H917 0.958 . S
C903 H918 0.961 . S
C903 H919 0.960 . S
H904 C888 0.931 . S
H905 C893 0.929 . S
H906 C894 0.960 . S
H907 C894 0.962 . S
H908 C894 0.960 . S
H909 C895 0.961 . S
H910 C895 0.961 . S
H911 C895 0.961 . S
H912 C896 0.931 . S
H913 C901 0.930 . S
H914 C902 0.956 . S
H915 C902 0.961 . S
H916 C902 0.961 . S
H917 C903 0.958 . S
H918 C903 0.961 . S
H919 C903 0.960 . S
C153 C61 1.478 . S
C161 C90 1.534 . S
C193 C110 1.384 . S
C185 C70 1.344 . S
C225 C130 1.506 . S
C217 C43 1.512 . S
C257 C150 1.356 . S
C249 C52 1.401 . S
C289 C91 1.540 . S
C281 C25 1.509 1_556 S
C313 C34 1.354 1_556 S
C321 C111 1.376 . S
C345 C7 1.506 1_556 S
C353 C131 1.527 . S
C377 C16 1.394 1_556 S
C385 C151 1.366 . S
C417 C81 0.695 . S
C409 C50 0.694 1_455 S
C449 C101 0.789 . S
C441 C59 0.703 . S
C481 C121 0.733 . S
C473 C67 0.693 . S
C505 C41 0.711 . S
C513 C141 0.736 . S
C537 C14 0.684 1_455 S
C545 C84 0.730 . S
C577 C104 0.732 . S
C569 C23 0.802 . S
C609 C124 0.742 . S
C601 C31 0.693 . S
C633 C5 0.682 . S
C641 C144 0.766 . S
C665 C49 1.582 1_456 S
C673 C74 1.506 . S
C697 C58 1.588 . S
C705 C94 1.525 . S
C737 C114 1.461 . S
C729 C68 1.522 . S
C769 C134 1.596 . S
C761 C40 1.648 . S
C793 C13 1.581 . S
C801 C76 1.502 . S
C833 C96 1.541 . S
C825 C22 1.595 . S
C865 C116 1.481 . S
C857 C32 1.464 . S
C889 C4 1.623 . S
C897 C136 1.629 . S
