# Generated by pormake.
# Topology csq, (4,8)-cn, num edge types: 1
# Building blocks:
#     Node 0, Type 0, BuildingBlock: MIFKUJ_clean_linker_1, # of connection points: 4
#     Node 1, Type 0, BuildingBlock: MIFKUJ_clean_linker_1, # of connection points: 4
#     Node 2, Type 0, BuildingBlock: MIFKUJ_clean_linker_1, # of connection points: 4
#     Node 3, Type 0, BuildingBlock: MIFKUJ_clean_linker_1, # of connection points: 4
#     Node 4, Type 0, BuildingBlock: MIFKUJ_clean_linker_1, # of connection points: 4
#     Node 5, Type 0, BuildingBlock: MIFKUJ_clean_linker_1, # of connection points: 4
#     Node 6, Type 1, BuildingBlock: TAGTUT_clean_sbu_1, # of connection points: 8
#     Node 7, Type 1, BuildingBlock: TAGTUT_clean_sbu_1, # of connection points: 8
#     Node 8, Type 1, BuildingBlock: TAGTUT_clean_sbu_1, # of connection points: 8
#     Edge 9, Type (0, 1), BuildingBlock: AJUNOK_clean_linker_0, # of connection points: 2
#     Edge 10, Type (0, 1), BuildingBlock: AJUNOK_clean_linker_0, # of connection points: 2
#     Edge 11, Type (0, 1), BuildingBlock: AJUNOK_clean_linker_0, # of connection points: 2
#     Edge 12, Type (0, 1), BuildingBlock: AJUNOK_clean_linker_0, # of connection points: 2
#     Edge 13, Type (0, 1), BuildingBlock: AJUNOK_clean_linker_0, # of connection points: 2
#     Edge 14, Type (0, 1), BuildingBlock: AJUNOK_clean_linker_0, # of connection points: 2
#     Edge 15, Type (0, 1), BuildingBlock: AJUNOK_clean_linker_0, # of connection points: 2
#     Edge 16, Type (0, 1), BuildingBlock: AJUNOK_clean_linker_0, # of connection points: 2
#     Edge 17, Type (0, 1), BuildingBlock: AJUNOK_clean_linker_0, # of connection points: 2
#     Edge 18, Type (0, 1), BuildingBlock: AJUNOK_clean_linker_0, # of connection points: 2
#     Edge 19, Type (0, 1), BuildingBlock: AJUNOK_clean_linker_0, # of connection points: 2
#     Edge 20, Type (0, 1), BuildingBlock: AJUNOK_clean_linker_0, # of connection points: 2
#     Edge 21, Type (0, 1), BuildingBlock: AJUNOK_clean_linker_0, # of connection points: 2
#     Edge 22, Type (0, 1), BuildingBlock: AJUNOK_clean_linker_0, # of connection points: 2
#     Edge 23, Type (0, 1), BuildingBlock: AJUNOK_clean_linker_0, # of connection points: 2
#     Edge 24, Type (0, 1), BuildingBlock: AJUNOK_clean_linker_0, # of connection points: 2
#     Edge 25, Type (0, 1), BuildingBlock: AJUNOK_clean_linker_0, # of connection points: 2
#     Edge 26, Type (0, 1), BuildingBlock: AJUNOK_clean_linker_0, # of connection points: 2
#     Edge 27, Type (0, 1), BuildingBlock: AJUNOK_clean_linker_0, # of connection points: 2
#     Edge 28, Type (0, 1), BuildingBlock: AJUNOK_clean_linker_0, # of connection points: 2
#     Edge 29, Type (0, 1), BuildingBlock: AJUNOK_clean_linker_0, # of connection points: 2
#     Edge 30, Type (0, 1), BuildingBlock: AJUNOK_clean_linker_0, # of connection points: 2
#     Edge 31, Type (0, 1), BuildingBlock: AJUNOK_clean_linker_0, # of connection points: 2
#     Edge 32, Type (0, 1), BuildingBlock: AJUNOK_clean_linker_0, # of connection points: 2
# Relax obj value: 0.034
# Max RMSD: 0.125
# Mean RMSD: 0.057
data_MOF--net-csq--node1-TAGTUT_clean_sbu_1--node2-MIFKUJ_clean_linker_1--edge1-AJUNOK_clean_linker_0
_symmetry_space_group_name_H-M    P1
_symmetry_Int_Tables_number       1
_symmetry_cell_setting            triclinic
loop_
_symmetry_equiv_pos_as_xyz
'x, y, z'
_cell_length_a     49.683317
_cell_length_b     49.161312
_cell_length_c     17.403491
_cell_angle_alpha  93.547852
_cell_angle_beta   91.641457
_cell_angle_gamma 119.67944
loop_
_atom_site_label
_atom_site_type_symbol
_atom_site_fract_x
_atom_site_fract_y
_atom_site_fract_z
_atom_type_partial_charge
H0 H 0.26134 0.45088 0.34878 0.0
H1 H 0.29876 0.45426 0.44802 0.0
H2 H 0.37225 0.53164 0.34236 0.0
H3 H 0.33435 0.52979 0.24666 0.0
H4 H 0.24399 0.4903 0.32846 0.0
H5 H 0.2887 0.44275 0.13364 0.0
H6 H 0.3265 0.44151 0.04691 0.0
H7 H 0.35469 0.53621 0.99439 0.0
H8 H 0.31684 0.5372 0.08008 0.0
H9 H 0.19439 0.51996 0.12198 0.0
H10 H 0.15829 0.51421 0.01498 0.0
H11 H 0.16051 0.43242 0.91714 0.0
H12 H 0.19455 0.43692 0.02641 0.0
H13 H 0.25082 0.48615 0.04519 0.0
H14 H 0.21417 0.5354 0.27694 0.0
H15 H 0.17275 0.53311 0.35462 0.0
H16 H 0.12764 0.43175 0.33372 0.0
H17 H 0.1685 0.4343 0.25364 0.0
C18 C 0.29508 0.48981 0.28944 0.0
C19 C 0.28553 0.46863 0.34695 0.0
C20 C 0.30692 0.47043 0.40347 0.0
C21 C 0.33841 0.49307 0.40271 0.0
C22 C 0.34802 0.51411 0.34478 0.0
C23 C 0.3265 0.51266 0.28897 0.0
C24 C 0.27145 0.48948 0.23514 0.0
C25 C 0.24542 0.48909 0.26634 0.0
C26 C 0.27381 0.48927 0.15423 0.0
C27 C 0.30038 0.4903 0.11456 0.0
C28 C 0.30356 0.46347 0.10486 0.0
C29 C 0.32483 0.46265 0.05458 0.0
C30 C 0.34349 0.48876 0.01385 0.0
C31 C 0.34084 0.51586 0.02546 0.0
C32 C 0.31936 0.51651 0.07476 0.0
C33 C 0.19672 0.47857 0.08283 0.0
C34 C 0.18612 0.50012 0.07911 0.0
C35 C 0.16606 0.49718 0.0171 0.0
C36 C 0.15666 0.47288 0.95763 0.0
C37 C 0.16683 0.45101 0.96262 0.0
C38 C 0.18634 0.45362 0.02502 0.0
C39 C 0.22246 0.48448 0.13828 0.0
C40 C 0.2493 0.48692 0.10734 0.0
C41 C 0.22086 0.4866 0.21917 0.0
C42 C 0.19386 0.485 0.25745 0.0
C43 C 0.19494 0.51269 0.28768 0.0
C44 C 0.17152 0.51135 0.3331 0.0
C45 C 0.1467 0.48225 0.35012 0.0
C46 C 0.14596 0.45454 0.32035 0.0
C47 C 0.16923 0.45592 0.27431 0.0
H48 H 0.80126 0.30537 0.99956 0.0
H49 H 0.84964 0.3464 0.95248 0.0
H50 H 0.89925 0.30314 0.0464 0.0
H51 H 0.85083 0.26206 0.09238 0.0
H52 H 0.76986 0.23179 0.98121 0.0
H53 H 0.80886 0.32266 0.17416 0.0
H54 H 0.85154 0.36782 0.25164 0.0
H55 H 0.88124 0.30643 0.34214 0.0
H56 H 0.83832 0.2613 0.26556 0.0
H57 H 0.76067 0.18148 0.26551 0.0
H58 H 0.72805 0.14908 0.36179 0.0
H59 H 0.64971 0.15224 0.25763 0.0
H60 H 0.68343 0.18729 0.16538 0.0
H61 H 0.77164 0.24026 0.26714 0.0
H62 H 0.74408 0.15756 0.01694 0.0
H63 H 0.7047 0.11699 0.92324 0.0
H64 H 0.65084 0.16403 0.9372 0.0
H65 H 0.69102 0.20517 0.0283 0.0
C66 C 0.82265 0.28077 0.04871 0.0
C67 C 0.82248 0.30452 0.00868 0.0
C68 C 0.85012 0.32812 0.98319 0.0
C69 C 0.87814 0.32814 0.99749 0.0
C70 C 0.87796 0.30368 0.03527 0.0
C71 C 0.85039 0.2802 0.0609 0.0
C72 C 0.79504 0.25883 0.08689 0.0
C73 C 0.76985 0.23363 0.04366 0.0
C74 C 0.79503 0.26169 0.16775 0.0
C75 C 0.82047 0.28877 0.21483 0.0
C76 C 0.82458 0.31901 0.21082 0.0
C77 C 0.84886 0.34467 0.2547 0.0
C78 C 0.86951 0.34038 0.30225 0.0
C79 C 0.86563 0.31019 0.30531 0.0
C80 C 0.84109 0.28448 0.26233 0.0
C81 C 0.72441 0.18643 0.2072 0.0
C82 C 0.7363 0.17474 0.26244 0.0
C83 C 0.71757 0.15606 0.31741 0.0
C84 C 0.68618 0.1478 0.31712 0.0
C85 C 0.67391 0.15841 0.25972 0.0
C86 C 0.69295 0.17783 0.20565 0.0
C87 C 0.74653 0.21182 0.16224 0.0
C88 C 0.771 0.2382 0.20456 0.0
C89 C 0.74532 0.21006 0.08047 0.0
C90 C 0.71991 0.18374 0.03127 0.0
C91 C 0.72355 0.15881 1.00051 0.0
C92 C 0.70107 0.13573 0.94689 0.0
C93 C 0.67445 0.1371 0.92336 0.0
C94 C 0.67112 0.16237 0.95382 0.0
C95 C 0.69376 0.18559 0.00681 0.0
H96 H 0.57515 0.7308 0.05257 0.0
H97 H 0.58197 0.68643 0.01039 0.0
H98 H 0.49702 0.64676 0.86454 0.0
H99 H 0.48922 0.69019 0.91113 0.0
H100 H 0.5221 0.7531 0.90282 0.0
H101 H 0.57127 0.75798 0.20889 0.0
H102 H 0.57507 0.72029 0.28753 0.0
H103 H 0.48608 0.64688 0.18559 0.0
H104 H 0.48307 0.68448 0.10499 0.0
H105 H 0.48837 0.8035 0.16904 0.0
H106 H 0.49398 0.85421 0.21574 0.0
H107 H 0.57651 0.90222 0.09098 0.0
H108 H 0.57115 0.85147 0.04559 0.0
H109 H 0.52822 0.77888 0.18583 0.0
H110 H 0.47895 0.80461 0.99197 0.0
H111 H 0.47965 0.8463 0.92229 0.0
H112 H 0.55496 0.8513 0.79384 0.0
H113 H 0.55617 0.81164 0.8698 0.0
C114 C 0.53148 0.71356 0.98551 0.0
C115 C 0.5578 0.71233 0.01217 0.0
C116 C 0.56185 0.68715 0.98758 0.0
C117 C 0.54009 0.66321 0.93409 0.0
C118 C 0.51395 0.66471 0.90669 0.0
C119 C 0.50967 0.68968 0.93226 0.0
C120 C 0.52642 0.73932 0.01591 0.0
C121 C 0.52312 0.7586 0.96451 0.0
C122 C 0.52655 0.74574 0.09631 0.0
C123 C 0.52686 0.72404 0.15142 0.0
C124 C 0.55235 0.7339 0.20462 0.0
C125 C 0.55445 0.71231 0.24953 0.0
C126 C 0.53074 0.68059 0.24325 0.0
C127 C 0.50483 0.67105 0.19133 0.0
C128 C 0.50293 0.69255 0.14582 0.0
C129 C 0.52934 0.82387 0.10407 0.0
C130 C 0.50767 0.82496 0.15199 0.0
C131 C 0.51056 0.85383 0.17722 0.0
C132 C 0.53525 0.88196 0.15516 0.0
C133 C 0.55706 0.8808 0.10771 0.0
C134 C 0.55414 0.85194 0.08238 0.0
C135 C 0.52528 0.79338 0.07286 0.0
C136 C 0.52659 0.77308 0.12409 0.0
C137 C 0.52188 0.78534 0.99225 0.0
C138 C 0.51794 0.8054 0.9374 0.0
C139 C 0.49556 0.81458 0.94855 0.0
C140 C 0.4957 0.83822 0.90773 0.0
C141 C 0.51733 0.85225 0.85211 0.0
C142 C 0.5383 0.84139 0.83717 0.0
C143 C 0.53871 0.81832 0.87966 0.0
H144 H 0.774 0.47782 0.2075 0.0
H145 H 0.80643 0.47764 0.3148 0.0
H146 H 0.88313 0.56437 0.25122 0.0
H147 H 0.84981 0.5653 0.14521 0.0
H148 H 0.76092 0.52368 0.20979 0.0
H149 H 0.81092 0.48339 0.04608 0.0
H150 H 0.85033 0.47913 0.97374 0.0
H151 H 0.86546 0.55871 0.85162 0.0
H152 H 0.82674 0.56374 0.9259 0.0
H153 H 0.74955 0.56825 0.9167 0.0
H154 H 0.71135 0.5631 0.81651 0.0
H155 H 0.64171 0.47905 0.9097 0.0
H156 H 0.68027 0.48335 0.00712 0.0
H157 H 0.76934 0.5288 0.92809 0.0
H158 H 0.71216 0.56278 0.09882 0.0
H159 H 0.67322 0.56286 0.18303 0.0
H160 H 0.66761 0.48377 0.29087 0.0
H161 H 0.70519 0.48267 0.20512 0.0
C162 C 0.80966 0.52141 0.16803 0.0
C163 C 0.79795 0.49661 0.21592 0.0
C164 C 0.8164 0.49657 0.27733 0.0
C165 C 0.84719 0.521 0.29114 0.0
C166 C 0.85929 0.54547 0.24203 0.0
C167 C 0.84057 0.5457 0.18075 0.0
C168 C 0.78768 0.52406 0.1146 0.0
C169 C 0.76235 0.52425 0.14772 0.0
C170 C 0.79079 0.52616 0.03422 0.0
C171 C 0.81608 0.52435 0.99323 0.0
C172 C 0.82308 0.50043 0.00515 0.0
C173 C 0.84534 0.49769 0.96282 0.0
C174 C 0.86075 0.51837 0.90632 0.0
C175 C 0.8536 0.54209 0.8937 0.0
C176 C 0.83161 0.54509 0.93676 0.0
C177 C 0.71765 0.52636 0.96987 0.0
C178 C 0.72601 0.54872 0.91551 0.0
C179 C 0.7043 0.5457 0.85812 0.0
C180 C 0.67386 0.52025 0.85413 0.0
C181 C 0.66533 0.49832 0.90978 0.0
C182 C 0.68711 0.50119 0.96673 0.0
C183 C 0.74183 0.5273 0.02312 0.0
C184 C 0.76785 0.52823 0.99009 0.0
C185 C 0.73874 0.52487 0.10351 0.0
C186 C 0.71186 0.52275 0.14519 0.0
C187 C 0.70201 0.54493 0.13904 0.0
C188 C 0.68002 0.54518 0.18777 0.0
C189 C 0.66797 0.52371 0.24448 0.0
C190 C 0.67698 0.50095 0.24877 0.0
C191 C 0.69839 0.50029 0.19936 0.0
H192 H 0.248 0.82687 0.98241 0.0
H193 H 0.2858 0.86169 0.896 0.0
H194 H 0.35476 0.84291 0.99661 0.0
H195 H 0.3171 0.80852 0.08351 0.0
H196 H 0.22892 0.76448 0.98384 0.0
H197 H 0.27714 0.85669 0.18564 0.0
H198 H 0.31938 0.89782 0.27224 0.0
H199 H 0.34474 0.83017 0.34207 0.0
H200 H 0.30143 0.78898 0.25867 0.0
H201 H 0.20757 0.70639 0.26832 0.0
H202 H 0.16142 0.66397 0.31991 0.0
H203 H 0.10401 0.69527 0.20875 0.0
H204 H 0.15013 0.7377 0.15772 0.0
H205 H 0.23629 0.77341 0.27026 0.0
H206 H 0.18802 0.68186 0.10185 0.0
H207 H 0.14424 0.63548 0.03347 0.0
H208 H 0.12611 0.6953 0.89464 0.0
H209 H 0.16852 0.74176 0.96749 0.0
C210 C 0.28002 0.81575 0.04062 0.0
C211 C 0.27141 0.83059 0.98639 0.0
C212 C 0.2928 0.8501 0.93646 0.0
C213 C 0.32312 0.85502 0.93992 0.0
C214 C 0.3316 0.83984 0.99364 0.0
C215 C 0.31025 0.82046 0.04376 0.0
C216 C 0.25623 0.79245 0.08683 0.0
C217 C 0.23035 0.7668 0.04645 0.0
C218 C 0.2591 0.7943 0.16856 0.0
C219 C 0.2863 0.81987 0.21542 0.0
C220 C 0.29187 0.85081 0.21961 0.0
C221 C 0.31597 0.87424 0.2694 0.0
C222 C 0.33522 0.86728 0.31547 0.0
C223 C 0.32981 0.83627 0.30983 0.0
C224 C 0.30538 0.81277 0.26108 0.0
C225 C 0.1821 0.72494 0.20912 0.0
C226 C 0.18513 0.70445 0.25647 0.0
C227 C 0.1588 0.68003 0.28469 0.0
C228 C 0.12927 0.6761 0.26643 0.0
C229 C 0.12654 0.69774 0.22275 0.0
C230 C 0.1528 0.72198 0.19414 0.0
C231 C 0.20853 0.74674 0.16689 0.0
C232 C 0.23493 0.77147 0.20765 0.0
C233 C 0.20687 0.7435 0.08549 0.0
C234 C 0.18131 0.71535 0.04057 0.0
C235 C 0.17432 0.68504 0.05753 0.0
C236 C 0.14953 0.65849 0.0177 0.0
C237 C 0.13186 0.66171 0.95825 0.0
C238 C 0.13911 0.69207 0.94075 0.0
C239 C 0.16357 0.71864 0.98159 0.0
H240 H 0.51914 0.20627 0.07948 0.0
H241 H 0.51687 0.15765 0.0277 0.0
H242 H 0.4343 0.10345 0.14796 0.0
H243 H 0.43603 0.15204 0.19727 0.0
H244 H 0.47597 0.22717 0.06467 0.0
H245 H 0.52712 0.20226 0.26199 0.0
H246 H 0.52735 0.16062 0.33067 0.0
H247 H 0.44557 0.14688 0.44275 0.0
H248 H 0.44435 0.18739 0.36977 0.0
H249 H 0.43877 0.26568 0.34221 0.0
H250 H 0.43393 0.31025 0.39296 0.0
H251 H 0.50735 0.37109 0.25387 0.0
H252 H 0.51448 0.32713 0.21056 0.0
H253 H 0.48244 0.25017 0.34886 0.0
H254 H 0.42839 0.27038 0.14099 0.0
H255 H 0.42572 0.30951 0.06556 0.0
H256 H 0.51381 0.33238 0.97502 0.0
H257 H 0.51667 0.29355 0.05191 0.0
C258 C 0.47781 0.18266 0.14216 0.0
C259 C 0.50054 0.18389 0.09439 0.0
C260 C 0.49956 0.15619 0.06626 0.0
C261 C 0.47584 0.1269 0.08556 0.0
C262 C 0.45302 0.12576 0.13308 0.0
C263 C 0.45391 0.15342 0.16085 0.0
C264 C 0.47982 0.21195 0.17598 0.0
C265 C 0.47783 0.23249 0.12668 0.0
C266 C 0.48208 0.21859 0.25693 0.0
C267 C 0.48554 0.19777 0.3101 0.0
C268 C 0.5094 0.19052 0.30195 0.0
C269 C 0.50964 0.16681 0.34176 0.0
C270 C 0.48651 0.15042 0.39245 0.0
C271 C 0.46351 0.15882 0.40347 0.0
C272 C 0.46304 0.18229 0.36271 0.0
C273 C 0.4766 0.2929 0.27151 0.0
C274 C 0.45408 0.2887 0.32344 0.0
C275 C 0.45079 0.31411 0.35078 0.0
C276 C 0.46944 0.3441 0.32521 0.0
C277 C 0.49237 0.3483 0.27419 0.0
C278 C 0.49634 0.32311 0.24897 0.0
C279 C 0.47817 0.26536 0.23753 0.0
C280 C 0.48085 0.24507 0.28684 0.0
C281 C 0.4766 0.25894 0.15646 0.0
C282 C 0.47278 0.27915 0.10221 0.0
C283 C 0.4469 0.28349 0.10402 0.0
C284 C 0.44539 0.30581 0.06086 0.0
C285 C 0.46958 0.32398 0.01446 0.0
C286 C 0.49497 0.31885 0.01075 0.0
C287 C 0.49645 0.29646 0.05386 0.0
C288 C 0.97932 0.42124 0.84371 0.0
C289 C 0.06683 0.46999 0.74264 0.0
C290 C 0.04049 0.56525 0.7377 0.0
Mg291 Mg -0.00016 0.43349 0.67698 0.0
O292 O 0.99393 0.46766 0.70421 0.0
Mg293 Mg 0.01826 0.49629 0.79751 0.0
Mg294 Mg 0.00395 0.49936 0.6296 0.0
O295 O 0.01391 0.53091 0.55401 0.0
Mg296 Mg 0.00513 0.56348 0.578 0.0
Mg297 Mg 0.9921 0.50221 0.45851 0.0
C298 C 0.96484 0.43281 0.52054 0.0
C299 C 0.04857 0.49042 0.50441 0.0
O300 O 0.9933 0.45106 0.86258 0.0
O301 O 0.97882 0.40951 0.77548 0.0
O302 O 0.05894 0.48741 0.78194 0.0
O303 O 0.04823 0.44839 0.69197 0.0
O304 O 0.97426 0.41857 0.56401 0.0
O305 O 0.9707 0.46107 0.53794 0.0
C306 C 0.96013 0.50717 0.75954 0.0
O307 O 0.96431 0.50646 0.68661 0.0
O308 O 0.97781 0.50402 0.80851 0.0
O309 O 0.01822 0.54785 0.39531 0.0
O310 O 0.02815 0.58833 0.48209 0.0
O311 O 0.95141 0.50983 0.46581 0.0
C312 C 0.03039 0.57748 0.41513 0.0
O313 O 0.95605 0.54688 0.55359 0.0
O314 O 0.02912 0.57781 0.69379 0.0
C315 C 0.94015 0.52504 0.50036 0.0
O316 O 0.03729 0.53795 0.71972 0.0
O317 O 0.04358 0.49195 0.57632 0.0
O318 O 0.03233 0.49399 0.45232 0.0
C319 C 0.46821 0.02869 0.87851 0.0
C320 C 0.4178 0.94221 0.75286 0.0
C321 C 0.5283 0.95516 0.68187 0.0
Mg322 Mg 0.44933 0.00861 0.70294 0.0
O323 O 0.48893 0.01259 0.713 0.0
Mg324 Mg 0.49566 0.98638 0.78662 0.0
Mg325 Mg 0.5052 0.00275 0.61956 0.0
O326 O 0.52149 0.99268 0.52675 0.0
Mg327 Mg 0.56018 0.99502 0.54018 0.0
Mg328 Mg 0.51758 0.02149 0.4564 0.0
C329 C 0.48032 0.04841 0.5584 0.0
C330 C 0.44833 0.96562 0.48512 0.0
O331 O 0.48375 0.01412 0.88027 0.0
O332 O 0.45408 0.02977 0.81693 0.0
O333 O 0.44505 0.94931 0.77746 0.0
O334 O 0.41303 0.9602 0.71151 0.0
O335 O 0.45792 0.03741 0.6039 0.0
O336 O 0.50196 0.04123 0.56046 0.0
C337 C 0.56394 0.0405 0.74918 0.0
O338 O 0.55473 0.03825 0.67817 0.0
O339 O 0.54563 0.02349 0.7978 0.0
O340 O 0.53156 0.99603 0.36175 0.0
O341 O 0.55884 0.97752 0.42417 0.0
O342 O 0.56912 0.05904 0.47655 0.0
C343 C 0.54653 0.98088 0.36233 0.0
O344 O 0.59621 0.04332 0.5474 0.0
O345 O 0.55027 0.9647 0.63539 0.0
C346 C 0.59466 0.06395 0.50943 0.0
O347 O 0.50822 0.96439 0.6809 0.0
O348 O 0.45616 0.96755 0.55737 0.0
O349 O 0.46755 0.98365 0.43906 0.0
C350 C 0.53829 0.58741 0.42081 0.0
C351 C 0.58021 0.52976 0.4518 0.0
C352 C 0.46581 0.44054 0.51675 0.0
Mg353 Mg 0.56277 0.56865 0.56405 0.0
O354 O 0.52065 0.53771 0.55544 0.0
Mg355 Mg 0.50448 0.51087 0.45544 0.0
Mg356 Mg 0.50517 0.50472 0.62981 0.0
O357 O 0.48951 0.47149 0.70354 0.0
Mg358 Mg 0.44712 0.44068 0.69338 0.0
Mg359 Mg 0.50551 0.49831 0.80339 0.0
C360 C 0.54558 0.56875 0.7421 0.0
C361 C 0.56468 0.50615 0.71277 0.0
O362 O 0.51953 0.55814 0.39961 0.0
O363 O 0.55656 0.59653 0.48212 0.0
O364 O 0.55157 0.51531 0.42766 0.0
O365 O 0.59014 0.54984 0.51084 0.0
O366 O 0.56405 0.58146 0.68824 0.0
O367 O 0.52088 0.54166 0.73043 0.0
C368 C 0.44563 0.50339 0.54701 0.0
O369 O 0.45766 0.50161 0.61118 0.0
O370 O 0.45905 0.50691 0.48399 0.0
O371 O 0.48938 0.45066 0.85931 0.0
O372 O 0.45173 0.41264 0.77745 0.0
O373 O 0.45847 0.49449 0.82858 0.0
C374 C 0.46958 0.42149 0.83948 0.0
O375 O 0.41978 0.45978 0.74631 0.0
O376 O 0.44667 0.42728 0.56909 0.0
C377 C 0.42983 0.4803 0.80457 0.0
O378 O 0.48986 0.46798 0.52948 0.0
O379 O 0.55263 0.50796 0.64866 0.0
O380 O 0.55112 0.50223 0.77574 0.0
C381 C 0.12789 0.50098 0.46468 0.0
C382 C 0.12121 0.48096 0.39639 0.0
C383 C 0.10409 0.50222 0.50444 0.0
C384 C 0.07283 0.48368 0.47677 0.0
H385 H 0.15176 0.51641 0.48641 0.0
H386 H 0.11032 0.51906 0.55421 0.0
S387 S 0.0426 0.42613 0.30402 0.0
N388 N 0.08061 0.44125 0.30565 0.0
N389 N 0.0363 0.44337 0.38024 0.0
C390 C 0.06581 0.46256 0.41098 0.0
C391 C 0.08985 0.46124 0.37083 0.0
C392 C 0.64567 0.13661 0.41209 0.0
C393 C 0.66639 0.12867 0.37726 0.0
C394 C 0.62437 0.11706 0.46248 0.0
C395 C 0.62331 0.08916 0.481 0.0
H396 H 0.64512 0.15751 0.39814 0.0
H397 H 0.6074 0.12285 0.48356 0.0
S398 S 0.6737 0.05854 0.40909 0.0
N399 N 0.6852 0.09142 0.36732 0.0
N400 N 0.64604 0.05546 0.4643 0.0
C401 C 0.64539 0.08212 0.4511 0.0
C402 C 0.66667 0.10165 0.39852 0.0
C403 C 0.52598 0.62766 0.25434 0.0
C404 C 0.53319 0.65731 0.28946 0.0
C405 C 0.52786 0.60523 0.29686 0.0
C406 C 0.53737 0.6117 0.37595 0.0
H407 H 0.51902 0.62179 0.1933 0.0
H408 H 0.52203 0.58273 0.2674 0.0
S409 S 0.5566 0.68491 0.49651 0.0
N410 N 0.5484 0.69115 0.40904 0.0
N411 N 0.55276 0.64952 0.48847 0.0
C412 C 0.54454 0.64124 0.41181 0.0
C413 C 0.54227 0.66389 0.36873 0.0
C414 C 0.88477 0.54644 0.40723 0.0
C415 C 0.86702 0.52001 0.35447 0.0
C416 C 0.90629 0.54681 0.46192 0.0
C417 C 0.91084 0.52082 0.46478 0.0
H418 H 0.88284 0.56736 0.40419 0.0
H419 H 0.92107 0.56838 0.49776 0.0
S420 S 0.8681 0.44506 0.343 0.0
N421 N 0.85396 0.4667 0.3115 0.0
N422 N 0.89358 0.46691 0.41498 0.0
C423 C 0.89139 0.49343 0.41615 0.0
C424 C 0.86979 0.49318 0.36049 0.0
C425 C 0.38078 0.9218 0.33515 0.0
C426 C 0.36209 0.89278 0.36492 0.0
C427 C 0.40754 0.94551 0.37666 0.0
C428 C 0.41716 0.94141 0.44999 0.0
H429 H 0.37541 0.92596 0.27779 0.0
H430 H 0.42132 0.96704 0.34955 0.0
S431 S 0.37519 0.87075 0.55725 0.0
N432 N 0.3538 0.86206 0.4754 0.0
N433 N 0.40481 0.90654 0.55263 0.0
C434 C 0.39811 0.91302 0.48218 0.0
C435 C 0.37056 0.88872 0.43975 0.0
C436 C 0.4944 0.39987 0.38127 0.0
C437 C 0.46709 0.37145 0.35779 0.0
C438 C 0.49337 0.42395 0.42568 0.0
C439 C 0.46505 0.42024 0.4498 0.0
H440 H 0.517 0.4028 0.37033 0.0
H441 H 0.51523 0.44432 0.44707 0.0
S442 S 0.38658 0.35394 0.38816 0.0
N443 N 0.41052 0.34383 0.34844 0.0
N444 N 0.40883 0.38855 0.4363 0.0
C445 C 0.43742 0.39338 0.42061 0.0
C446 C 0.43839 0.36908 0.37371 0.0
C447 C 0.54846 0.90508 0.80131 0.0
C448 C 0.5192 0.87914 0.81239 0.0
C449 C 0.5512 0.9302 0.76166 0.0
C450 C 0.52479 0.93074 0.73275 0.0
H451 H 0.56955 0.90596 0.82305 0.0
H452 H 0.57422 0.9492 0.75279 0.0
S453 S 0.44275 0.86904 0.74592 0.0
N454 N 0.46316 0.85567 0.79002 0.0
N455 N 0.46842 0.90349 0.71825 0.0
C456 C 0.49537 0.90558 0.74539 0.0
C457 C 0.49254 0.87965 0.78453 0.0
C458 C 0.64644 0.54422 0.78905 0.0
C459 C 0.65018 0.51794 0.79658 0.0
C460 C 0.61974 0.54095 0.75079 0.0
C461 C 0.59622 0.51142 0.71875 0.0
H462 H 0.66277 0.56684 0.81877 0.0
H463 H 0.61608 0.56097 0.75304 0.0
S464 S 0.5978 0.4369 0.70838 0.0
N465 N 0.63071 0.46264 0.75702 0.0
N466 N 0.57997 0.45654 0.68681 0.0
C467 C 0.60114 0.48576 0.71846 0.0
C468 C 0.62835 0.48902 0.7571 0.0
C469 C 0.07821 0.6323 0.89373 0.0
C470 C 0.10664 0.63369 0.91215 0.0
C471 C 0.05578 0.60851 0.84135 0.0
C472 C 0.06079 0.58504 0.80583 0.0
H473 H 0.0737 0.65038 0.91794 0.0
H474 H 0.03488 0.60927 0.82606 0.0
S475 S 0.13053 0.57701 0.83799 0.0
N476 N 0.138 0.60875 0.89336 0.0
N477 N 0.09549 0.56358 0.79621 0.0
C478 C 0.08822 0.58495 0.82748 0.0
C479 C 0.11125 0.60942 0.88027 0.0
C480 C 0.44454 0.07577 0.00781 0.0
C481 C 0.47277 0.0976 0.04819 0.0
C482 C 0.44254 0.05139 0.95797 0.0
C483 C 0.46862 0.04788 0.94719 0.0
H484 H 0.42444 0.07886 0.01021 0.0
H485 H 0.42092 0.0364 0.92381 0.0
S486 S 0.54638 0.09553 0.04996 0.0
N487 N 0.52617 0.1117 0.08265 0.0
N488 N 0.52242 0.0657 0.98807 0.0
C489 C 0.49617 0.06766 0.99274 0.0
C490 C 0.49828 0.0927 0.0433 0.0
C491 C 0.355 0.46404 0.89734 0.0
C492 C 0.36549 0.48778 0.95863 0.0
C493 C 0.37558 0.46276 0.84511 0.0
C494 C 0.40763 0.48493 0.85266 0.0
H495 H 0.33066 0.44626 0.88982 0.0
H496 H 0.36641 0.44359 0.80008 0.0
S497 S 0.44656 0.55193 0.00419 0.0
N498 N 0.40969 0.53408 0.02364 0.0
N499 N 0.44843 0.53187 0.92687 0.0
C500 C 0.41818 0.50913 0.91335 0.0
C501 C 0.39715 0.51049 0.96589 0.0
C502 C 0.92493 0.34463 0.92276 0.0
C503 C 0.90732 0.35298 0.97017 0.0
C504 C 0.95012 0.36743 0.88692 0.0
C505 C 0.95868 0.39938 0.89771 0.0
H506 H 0.91815 0.32014 0.90979 0.0
H507 H 0.96194 0.35975 0.84726 0.0
S508 S 0.92265 0.43361 0.02628 0.0
N509 N 0.90214 0.3954 0.03378 0.0
N510 N 0.9495 0.43849 0.96611 0.0
C511 C 0.94275 0.40827 0.95007 0.0
C512 C 0.91694 0.38496 0.98613 0.0
C513 C 0.90981 0.51614 0.90875 0.0
C514 C 0.88577 0.51635 0.86518 0.0
C515 C 0.93359 0.51381 0.87337 0.0
C516 C 0.93455 0.5112 0.79215 0.0
H517 H 0.91038 0.51797 0.97122 0.0
H518 H 0.95132 0.51382 0.91107 0.0
S519 S 0.87634 0.50995 0.65129 0.0
N520 N 0.86396 0.51374 0.73628 0.0
N521 N 0.90853 0.50868 0.66923 0.0
C522 C 0.91059 0.51149 0.74754 0.0
C523 C 0.88632 0.51425 0.78407 0.0
C524 C 0.34087 0.87558 0.81055 0.0
C525 C 0.34659 0.87746 0.89121 0.0
C526 C 0.36363 0.89669 0.76458 0.0
C527 C 0.39275 0.91991 0.79815 0.0
H528 H 0.31886 0.85745 0.78288 0.0
H529 H 0.35861 0.89458 0.70289 0.0
S530 S 0.41697 0.93777 0.00799 0.0
N531 N 0.38189 0.90667 1.00299 0.0
N532 N 0.42453 0.94584 0.91792 0.0
C533 C 0.39801 0.92272 0.87916 0.0
C534 C 0.375 0.90158 0.92535 0.0
C535 C 0.49419 0.37947 0.97789 0.0
C536 C 0.46868 0.34868 0.97119 0.0
C537 C 0.49394 0.40314 0.93712 0.0
C538 C 0.46828 0.39683 0.88729 0.0
H539 H 0.51451 0.38534 0.01515 0.0
H540 H 0.51433 0.42634 0.94337 0.0
S541 S 0.39541 0.31989 0.85067 0.0
N542 N 0.417 0.31316 0.91186 0.0
N543 N 0.41626 0.35738 0.83549 0.0
C544 C 0.44244 0.36612 0.88098 0.0
C545 C 0.44269 0.34215 0.92285 0.0
C546 C 0.14235 0.49757 0.85429 0.0
C547 C 0.13633 0.47047 0.89055 0.0
C548 C 0.12121 0.49663 0.79776 0.0
C549 C 0.09359 0.46858 0.77527 0.0
H550 H 0.1629 0.51992 0.87202 0.0
H551 H 0.12552 0.51826 0.77474 0.0
S552 S 0.06795 0.3907 0.84783 0.0
N553 N 0.1015 0.41441 0.8964 0.0
N554 N 0.06226 0.41266 0.7888 0.0
C555 C 0.08851 0.44085 0.80632 0.0
C556 C 0.10974 0.44182 0.8646 0.0
C557 C 0.63575 0.11895 0.80814 0.0
C558 C 0.64942 0.11165 0.86997 0.0
C559 C 0.60947 0.09538 0.76349 0.0
C560 C 0.59586 0.06381 0.77986 0.0
H561 H 0.64483 0.14318 0.79584 0.0
H562 H 0.59862 0.10216 0.71951 0.0
S563 S 0.62411 0.03184 0.93024 0.0
N564 N 0.64827 0.07012 0.94124 0.0
N565 N 0.59947 0.02607 0.85706 0.0
C566 C 0.61044 0.05603 0.83815 0.0
C567 C 0.63706 0.07987 0.88333 0.0
C568 C 0.52006 0.60647 0.89483 0.0
C569 C 0.54506 0.63745 0.90291 0.0
C570 C 0.52178 0.58284 0.85004 0.0
C571 C 0.5485 0.58951 0.81095 0.0
H572 H 0.4983 0.60094 0.91917 0.0
H573 H 0.50098 0.56005 0.84029 0.0
S574 S 0.62273 0.66534 0.82747 0.0
N575 N 0.59902 0.67248 0.87831 0.0
N576 N 0.60253 0.62785 0.7954 0.0
C577 C 0.57495 0.61947 0.8264 0.0
C578 C 0.57315 0.64357 0.87187 0.0
C579 C 0.45754 0.09568 0.43478 0.0
C580 C 0.48578 0.124 0.4319 0.0
C581 C 0.45609 0.07077 0.47334 0.0
C582 C 0.4829 0.07298 0.5092 0.0
H583 H 0.43632 0.09278 0.40738 0.0
H584 H 0.43376 0.04974 0.4758 0.0
S585 S 0.56209 0.1425 0.52284 0.0
N586 N 0.54086 0.15316 0.47194 0.0
N587 N 0.53829 0.10596 0.54173 0.0
C588 C 0.51133 0.10088 0.50584 0.0
C589 C 0.51273 0.12646 0.46786 0.0
C590 C 0.38543 0.5234 0.49378 0.0
C591 C 0.36171 0.49417 0.45971 0.0
C592 C 0.41159 0.52593 0.53337 0.0
C593 C 0.4145 0.49927 0.54104 0.0
H594 H 0.38478 0.54471 0.48519 0.0
H595 H 0.43083 0.54912 0.55176 0.0
S596 S 0.35749 0.41706 0.47189 0.0
N597 N 0.34166 0.43768 0.44309 0.0
N598 N 0.39068 0.44268 0.51946 0.0
C599 C 0.38971 0.46966 0.5144 0.0
C600 C 0.36324 0.46702 0.47319 0.0
C601 C 0.92544 0.37487 0.34636 0.0
C602 C 0.89427 0.36702 0.3518 0.0
C603 C 0.94884 0.39775 0.39878 0.0
C604 C 0.94173 0.41369 0.45724 0.0
H605 H 0.93159 0.36255 0.30279 0.0
H606 H 0.9724 0.40225 0.39521 0.0
S607 S 0.86344 0.39935 0.50079 0.0
N608 N 0.85734 0.3755 0.42295 0.0
N609 N 0.90142 0.41892 0.52061 0.0
C610 C 0.91076 0.40637 0.4626 0.0
C611 C 0.88695 0.3829 0.40991 0.0
C612 C 0.56857 0.93273 0.23234 0.0
C613 C 0.5403 0.91236 0.19016 0.0
C614 C 0.57153 0.95745 0.28265 0.0
C615 C 0.5464 0.9627 0.29189 0.0
H616 H 0.58767 0.928 0.2315 0.0
H617 H 0.59286 0.97105 0.31885 0.0
S618 S 0.46964 0.91983 0.18232 0.0
N619 N 0.48843 0.90187 0.15122 0.0
N620 N 0.49396 0.94855 0.24626 0.0
C621 C 0.5192 0.94471 0.24361 0.0
C622 C 0.5161 0.91933 0.19274 0.0
C623 C 0.61722 0.52052 0.27092 0.0
C624 C 0.64595 0.52486 0.29916 0.0
C625 C 0.59586 0.52102 0.32126 0.0
C626 C 0.60258 0.52659 0.40197 0.0
H627 H 0.61113 0.51651 0.20937 0.0
H628 H 0.57416 0.51787 0.2963 0.0
S629 S 0.67467 0.53908 0.50509 0.0
N630 N 0.67991 0.53422 0.41298 0.0
N631 N 0.64012 0.53617 0.5075 0.0
C632 C 0.63128 0.53096 0.43097 0.0
C633 C 0.65282 0.52979 0.37965 0.0
C634 C 0.08147 0.65577 0.33844 0.0
C635 C 0.10137 0.64971 0.2941 0.0
C636 C 0.05697 0.63162 0.37304 0.0
C637 C 0.05135 0.60054 0.36381 0.0
H638 H 0.08579 0.67958 0.34956 0.0
H639 H 0.04315 0.6376 0.41003 0.0
S640 S 0.09459 0.57208 0.24415 0.0
N641 N 0.11223 0.61028 0.2358 0.0
N642 N 0.06608 0.56464 0.30094 0.0
C643 C 0.0698 0.59385 0.31497 0.0
C644 C 0.09494 0.61855 0.28031 0.0
loop_
_geom_bond_atom_site_label_1
_geom_bond_atom_site_label_2
_geom_bond_distance
_geom_bond_site_symmetry_2
_ccdc_geom_bond_type
H0 C19 0.949 . S
H1 C20 0.950 . S
H2 C22 0.950 . S
H3 C23 0.950 . S
H4 C25 0.950 . S
H5 C28 0.950 . S
H6 C29 0.950 . S
H7 C31 0.951 1_556 S
H8 C32 0.949 . S
H9 C34 0.949 . S
H10 C35 0.950 1_556 S
H11 C37 0.950 . S
H12 C38 0.950 . S
H13 C40 0.950 . S
H14 C43 0.950 . S
H15 C44 0.950 . S
H16 C46 0.951 . S
H17 C47 0.949 . S
C18 C19 1.376 . S
C18 C23 1.386 . S
C18 C24 1.483 . S
C19 H0 0.949 . S
C19 C18 1.376 . S
C19 C20 1.397 . S
C20 H1 0.950 . S
C20 C19 1.397 . S
C20 C21 1.391 . S
C21 C20 1.391 . S
C21 C22 1.405 . S
C22 H2 0.950 . S
C22 C21 1.405 . S
C22 C23 1.367 . S
C23 H3 0.950 . S
C23 C18 1.386 . S
C23 C22 1.367 . S
C24 C18 1.483 . S
C24 C25 1.382 . S
C24 C26 1.403 . S
C25 H4 0.950 . S
C25 C24 1.382 . S
C25 C41 1.411 . S
C26 C24 1.403 . S
C26 C27 1.489 . S
C26 C40 1.411 . S
C27 C26 1.489 . S
C27 C28 1.383 . S
C27 C32 1.382 . S
C28 H5 0.950 . S
C28 C27 1.383 . S
C28 C29 1.395 . S
C29 H6 0.950 . S
C29 C28 1.395 . S
C29 C30 1.288 . S
C30 C29 1.288 . S
C30 C31 1.392 . S
C31 H7 0.951 1_554 S
C31 C30 1.392 . S
C31 C32 1.392 . S
C32 H8 0.949 . S
C32 C27 1.382 . S
C32 C31 1.392 . S
C33 C34 1.376 . S
C33 C38 1.386 . S
C33 C39 1.483 . S
C34 H9 0.949 . S
C34 C33 1.376 . S
C34 C35 1.397 . S
C35 H10 0.950 1_554 S
C35 C34 1.397 . S
C35 C36 1.391 1_554 S
C36 C35 1.391 1_556 S
C36 C37 1.400 1_556 S
C37 H11 0.950 . S
C37 C36 1.400 1_554 S
C37 C38 1.367 . S
C38 H12 0.950 . S
C38 C33 1.386 . S
C38 C37 1.367 . S
C39 C33 1.483 . S
C39 C40 1.382 . S
C39 C41 1.403 . S
C40 H13 0.950 . S
C40 C26 1.411 . S
C40 C39 1.382 . S
C41 C25 1.411 . S
C41 C39 1.403 . S
C41 C42 1.489 . S
C42 C41 1.489 . S
C42 C43 1.383 . S
C42 C47 1.382 . S
C43 H14 0.950 . S
C43 C42 1.383 . S
C43 C44 1.395 . S
C44 H15 0.950 . S
C44 C43 1.395 . S
C44 C45 1.288 . S
C45 C44 1.288 . S
C45 C46 1.392 . S
C46 H16 0.951 . S
C46 C45 1.392 . S
C46 C47 1.392 . S
C47 H17 0.949 . S
C47 C42 1.382 . S
C47 C46 1.392 . S
H48 C67 0.949 . S
H49 C68 0.950 . S
H50 C70 0.950 . S
H51 C71 0.950 . S
H52 C73 0.950 . S
H53 C76 0.950 . S
H54 C77 0.950 . S
H55 C79 0.951 . S
H56 C80 0.949 . S
H57 C82 0.949 . S
H58 C83 0.950 . S
H59 C85 0.950 . S
H60 C86 0.950 . S
H61 C88 0.950 . S
H62 C91 0.950 . S
H63 C92 0.950 . S
H64 C94 0.951 . S
H65 C95 0.949 . S
C66 C67 1.376 . S
C66 C71 1.386 . S
C66 C72 1.483 . S
C67 H48 0.949 . S
C67 C66 1.376 . S
C67 C68 1.397 1_554 S
C68 H49 0.950 . S
C68 C67 1.397 1_556 S
C68 C69 1.391 . S
C69 C68 1.391 . S
C69 C70 1.405 1_556 S
C70 H50 0.950 . S
C70 C69 1.405 1_554 S
C70 C71 1.367 . S
C71 H51 0.950 . S
C71 C66 1.386 . S
C71 C70 1.367 . S
C72 C66 1.483 . S
C72 C73 1.382 . S
C72 C74 1.403 . S
C73 H52 0.950 . S
C73 C72 1.382 . S
C73 C89 1.411 . S
C74 C72 1.403 . S
C74 C75 1.489 . S
C74 C88 1.411 . S
C75 C74 1.489 . S
C75 C76 1.383 . S
C75 C80 1.382 . S
C76 H53 0.950 . S
C76 C75 1.383 . S
C76 C77 1.395 . S
C77 H54 0.950 . S
C77 C76 1.395 . S
C77 C78 1.288 . S
C78 C77 1.288 . S
C78 C79 1.392 . S
C79 H55 0.951 . S
C79 C78 1.392 . S
C79 C80 1.392 . S
C80 H56 0.949 . S
C80 C75 1.382 . S
C80 C79 1.392 . S
C81 C82 1.376 . S
C81 C86 1.386 . S
C81 C87 1.483 . S
C82 H57 0.949 . S
C82 C81 1.376 . S
C82 C83 1.397 . S
C83 H58 0.950 . S
C83 C82 1.397 . S
C83 C84 1.391 . S
C84 C83 1.391 . S
C84 C85 1.405 . S
C85 H59 0.950 . S
C85 C84 1.405 . S
C85 C86 1.367 . S
C86 H60 0.950 . S
C86 C81 1.386 . S
C86 C85 1.367 . S
C87 C81 1.483 . S
C87 C88 1.382 . S
C87 C89 1.403 . S
C88 H61 0.950 . S
C88 C74 1.411 . S
C88 C87 1.382 . S
C89 C73 1.411 . S
C89 C87 1.403 . S
C89 C90 1.489 . S
C90 C89 1.489 . S
C90 C91 1.383 . S
C90 C95 1.382 1_554 S
C91 H62 0.950 . S
C91 C90 1.383 . S
C91 C92 1.395 . S
C92 H63 0.950 . S
C92 C91 1.395 . S
C92 C93 1.288 1_554 S
C93 C92 1.288 1_556 S
C93 C94 1.392 . S
C94 H64 0.951 . S
C94 C93 1.392 . S
C94 C95 1.392 . S
C95 H65 0.949 . S
C95 C90 1.382 1_556 S
C95 C94 1.392 . S
H96 C115 0.949 . S
H97 C116 0.950 . S
H98 C118 0.950 . S
H99 C119 0.950 . S
H100 C121 0.950 . S
H101 C124 0.950 . S
H102 C125 0.950 . S
H103 C127 0.951 . S
H104 C128 0.949 . S
H105 C130 0.949 . S
H106 C131 0.950 . S
H107 C133 0.950 . S
H108 C134 0.950 . S
H109 C136 0.950 . S
H110 C139 0.950 . S
H111 C140 0.950 . S
H112 C142 0.951 . S
H113 C143 0.949 . S
C114 C115 1.376 . S
C114 C119 1.386 . S
C114 C120 1.483 . S
C115 H96 0.949 . S
C115 C114 1.376 . S
C115 C116 1.397 . S
C116 H97 0.950 . S
C116 C115 1.397 . S
C116 C117 1.391 . S
C117 C116 1.391 . S
C117 C118 1.405 . S
C118 H98 0.950 . S
C118 C117 1.405 . S
C118 C119 1.367 . S
C119 H99 0.950 . S
C119 C114 1.386 . S
C119 C118 1.367 . S
C120 C114 1.483 . S
C120 C121 1.382 . S
C120 C122 1.403 1_556 S
C121 H100 0.950 . S
C121 C120 1.382 . S
C121 C137 1.411 . S
C122 C120 1.403 1_554 S
C122 C123 1.489 . S
C122 C136 1.411 . S
C123 C122 1.489 . S
C123 C124 1.383 . S
C123 C128 1.382 . S
C124 H101 0.950 . S
C124 C123 1.383 . S
C124 C125 1.395 . S
C125 H102 0.950 . S
C125 C124 1.395 . S
C125 C126 1.288 . S
C126 C125 1.288 . S
C126 C127 1.392 . S
C127 H103 0.951 . S
C127 C126 1.392 . S
C127 C128 1.392 . S
C128 H104 0.949 . S
C128 C123 1.382 . S
C128 C127 1.392 . S
C129 C130 1.376 . S
C129 C134 1.386 . S
C129 C135 1.483 . S
C130 H105 0.949 . S
C130 C129 1.376 . S
C130 C131 1.397 . S
C131 H106 0.950 . S
C131 C130 1.397 . S
C131 C132 1.391 . S
C132 C131 1.391 . S
C132 C133 1.405 . S
C133 H107 0.950 . S
C133 C132 1.405 . S
C133 C134 1.367 . S
C134 H108 0.950 . S
C134 C129 1.386 . S
C134 C133 1.367 . S
C135 C129 1.483 . S
C135 C136 1.382 . S
C135 C137 1.403 1_554 S
C136 H109 0.950 . S
C136 C122 1.411 . S
C136 C135 1.382 . S
C137 C121 1.411 . S
C137 C135 1.403 1_556 S
C137 C138 1.489 . S
C138 C137 1.489 . S
C138 C139 1.383 . S
C138 C143 1.382 . S
C139 H110 0.950 . S
C139 C138 1.383 . S
C139 C140 1.395 . S
C140 H111 0.950 . S
C140 C139 1.395 . S
C140 C141 1.288 . S
C141 C140 1.288 . S
C141 C142 1.392 . S
C142 H112 0.951 . S
C142 C141 1.392 . S
C142 C143 1.392 . S
C143 H113 0.949 . S
C143 C138 1.382 . S
C143 C142 1.392 . S
H144 C163 0.949 . S
H145 C164 0.950 . S
H146 C166 0.950 . S
H147 C167 0.950 . S
H148 C169 0.950 . S
H149 C172 0.950 1_554 S
H150 C173 0.950 . S
H151 C175 0.951 . S
H152 C176 0.949 . S
H153 C178 0.949 . S
H154 C179 0.950 . S
H155 C181 0.950 . S
H156 C182 0.950 1_554 S
H157 C184 0.950 . S
H158 C187 0.950 . S
H159 C188 0.950 . S
H160 C190 0.951 . S
H161 C191 0.949 . S
C162 C163 1.376 . S
C162 C167 1.386 . S
C162 C168 1.483 . S
C163 H144 0.949 . S
C163 C162 1.376 . S
C163 C164 1.397 . S
C164 H145 0.950 . S
C164 C163 1.397 . S
C164 C165 1.391 . S
C165 C164 1.391 . S
C165 C166 1.405 . S
C166 H146 0.950 . S
C166 C165 1.405 . S
C166 C167 1.367 . S
C167 H147 0.950 . S
C167 C162 1.386 . S
C167 C166 1.367 . S
C168 C162 1.483 . S
C168 C169 1.382 . S
C168 C170 1.403 . S
C169 H148 0.950 . S
C169 C168 1.382 . S
C169 C185 1.411 . S
C170 C168 1.403 . S
C170 C171 1.489 1_554 S
C170 C184 1.411 1_554 S
C171 C170 1.489 1_556 S
C171 C172 1.383 . S
C171 C176 1.382 . S
C172 H149 0.950 1_556 S
C172 C171 1.383 . S
C172 C173 1.395 . S
C173 H150 0.950 . S
C173 C172 1.395 . S
C173 C174 1.288 . S
C174 C173 1.288 . S
C174 C175 1.392 . S
C175 H151 0.951 . S
C175 C174 1.392 . S
C175 C176 1.392 . S
C176 H152 0.949 . S
C176 C171 1.382 . S
C176 C175 1.392 . S
C177 C178 1.376 . S
C177 C182 1.386 . S
C177 C183 1.483 1_556 S
C178 H153 0.949 . S
C178 C177 1.376 . S
C178 C179 1.397 . S
C179 H154 0.950 . S
C179 C178 1.397 . S
C179 C180 1.391 . S
C180 C179 1.391 . S
C180 C181 1.405 . S
C181 H155 0.950 . S
C181 C180 1.405 . S
C181 C182 1.367 . S
C182 H156 0.950 1_556 S
C182 C177 1.386 . S
C182 C181 1.367 . S
C183 C177 1.483 1_554 S
C183 C184 1.382 1_554 S
C183 C185 1.403 . S
C184 H157 0.950 . S
C184 C170 1.411 1_556 S
C184 C183 1.382 1_556 S
C185 C169 1.411 . S
C185 C183 1.403 . S
C185 C186 1.489 . S
C186 C185 1.489 . S
C186 C187 1.383 . S
C186 C191 1.382 . S
C187 H158 0.950 . S
C187 C186 1.383 . S
C187 C188 1.395 . S
C188 H159 0.950 . S
C188 C187 1.395 . S
C188 C189 1.288 . S
C189 C188 1.288 . S
C189 C190 1.392 . S
C190 H160 0.951 . S
C190 C189 1.392 . S
C190 C191 1.392 . S
C191 H161 0.949 . S
C191 C186 1.382 . S
C191 C190 1.392 . S
H192 C211 0.949 . S
H193 C212 0.950 . S
H194 C214 0.950 . S
H195 C215 0.950 . S
H196 C217 0.950 1_556 S
H197 C220 0.950 . S
H198 C221 0.950 . S
H199 C223 0.951 . S
H200 C224 0.949 . S
H201 C226 0.949 . S
H202 C227 0.950 . S
H203 C229 0.950 . S
H204 C230 0.950 . S
H205 C232 0.950 . S
H206 C235 0.950 . S
H207 C236 0.950 . S
H208 C238 0.951 . S
H209 C239 0.949 . S
C210 C211 1.376 1_554 S
C210 C215 1.386 . S
C210 C216 1.483 . S
C211 H192 0.949 . S
C211 C210 1.376 1_556 S
C211 C212 1.397 . S
C212 H193 0.950 . S
C212 C211 1.397 . S
C212 C213 1.391 . S
C213 C212 1.391 . S
C213 C214 1.405 . S
C214 H194 0.950 . S
C214 C213 1.405 . S
C214 C215 1.367 1_556 S
C215 H195 0.950 . S
C215 C210 1.386 . S
C215 C214 1.367 1_554 S
C216 C210 1.483 . S
C216 C217 1.382 . S
C216 C218 1.403 . S
C217 H196 0.950 1_554 S
C217 C216 1.382 . S
C217 C233 1.411 . S
C218 C216 1.403 . S
C218 C219 1.489 . S
C218 C232 1.411 . S
C219 C218 1.489 . S
C219 C220 1.383 . S
C219 C224 1.382 . S
C220 H197 0.950 . S
C220 C219 1.383 . S
C220 C221 1.395 . S
C221 H198 0.950 . S
C221 C220 1.395 . S
C221 C222 1.288 . S
C222 C221 1.288 . S
C222 C223 1.392 . S
C223 H199 0.951 . S
C223 C222 1.392 . S
C223 C224 1.392 . S
C224 H200 0.949 . S
C224 C219 1.382 . S
C224 C223 1.392 . S
C225 C226 1.376 . S
C225 C230 1.386 . S
C225 C231 1.483 . S
C226 H201 0.949 . S
C226 C225 1.376 . S
C226 C227 1.397 . S
C227 H202 0.950 . S
C227 C226 1.397 . S
C227 C228 1.391 . S
C228 C227 1.391 . S
C228 C229 1.405 . S
C229 H203 0.950 . S
C229 C228 1.405 . S
C229 C230 1.367 . S
C230 H204 0.950 . S
C230 C225 1.386 . S
C230 C229 1.367 . S
C231 C225 1.483 . S
C231 C232 1.382 . S
C231 C233 1.403 . S
C232 H205 0.950 . S
C232 C218 1.411 . S
C232 C231 1.382 . S
C233 C217 1.411 . S
C233 C231 1.403 . S
C233 C234 1.489 . S
C234 C233 1.489 . S
C234 C235 1.383 . S
C234 C239 1.382 1_554 S
C235 H206 0.950 . S
C235 C234 1.383 . S
C235 C236 1.395 1_554 S
C236 H207 0.950 . S
C236 C235 1.395 1_556 S
C236 C237 1.288 . S
C237 C236 1.288 . S
C237 C238 1.392 . S
C238 H208 0.951 . S
C238 C237 1.392 . S
C238 C239 1.392 . S
C239 H209 0.949 . S
C239 C234 1.382 1_556 S
C239 C238 1.392 . S
H240 C259 0.949 . S
H241 C260 0.950 . S
H242 C262 0.950 . S
H243 C263 0.950 . S
H244 C265 0.950 . S
H245 C268 0.950 . S
H246 C269 0.950 . S
H247 C271 0.951 . S
H248 C272 0.949 . S
H249 C274 0.949 . S
H250 C275 0.950 . S
H251 C277 0.950 . S
H252 C278 0.950 . S
H253 C280 0.950 . S
H254 C283 0.950 . S
H255 C284 0.950 . S
H256 C286 0.951 . S
H257 C287 0.949 . S
C258 C259 1.376 . S
C258 C263 1.386 . S
C258 C264 1.483 . S
C259 H240 0.949 . S
C259 C258 1.376 . S
C259 C260 1.397 . S
C260 H241 0.950 . S
C260 C259 1.397 . S
C260 C261 1.391 . S
C261 C260 1.391 . S
C261 C262 1.405 . S
C262 H242 0.950 . S
C262 C261 1.405 . S
C262 C263 1.367 . S
C263 H243 0.950 . S
C263 C258 1.386 . S
C263 C262 1.367 . S
C264 C258 1.483 . S
C264 C265 1.382 . S
C264 C266 1.403 . S
C265 H244 0.950 . S
C265 C264 1.382 . S
C265 C281 1.411 . S
C266 C264 1.403 . S
C266 C267 1.489 . S
C266 C280 1.411 . S
C267 C266 1.489 . S
C267 C268 1.383 . S
C267 C272 1.382 . S
C268 H245 0.950 . S
C268 C267 1.383 . S
C268 C269 1.395 . S
C269 H246 0.950 . S
C269 C268 1.395 . S
C269 C270 1.288 . S
C270 C269 1.288 . S
C270 C271 1.392 . S
C271 H247 0.951 . S
C271 C270 1.392 . S
C271 C272 1.392 . S
C272 H248 0.949 . S
C272 C267 1.382 . S
C272 C271 1.392 . S
C273 C274 1.376 . S
C273 C278 1.386 . S
C273 C279 1.483 . S
C274 H249 0.949 . S
C274 C273 1.376 . S
C274 C275 1.397 . S
C275 H250 0.950 . S
C275 C274 1.397 . S
C275 C276 1.391 . S
C276 C275 1.391 . S
C276 C277 1.405 . S
C277 H251 0.950 . S
C277 C276 1.405 . S
C277 C278 1.367 . S
C278 H252 0.950 . S
C278 C273 1.386 . S
C278 C277 1.367 . S
C279 C273 1.483 . S
C279 C280 1.382 . S
C279 C281 1.403 . S
C280 H253 0.950 . S
C280 C266 1.411 . S
C280 C279 1.382 . S
C281 C265 1.411 . S
C281 C279 1.403 . S
C281 C282 1.489 . S
C282 C281 1.489 . S
C282 C283 1.383 . S
C282 C287 1.382 . S
C283 H254 0.950 . S
C283 C282 1.383 . S
C283 C284 1.395 . S
C284 H255 0.950 . S
C284 C283 1.395 . S
C284 C285 1.288 . S
C285 C284 1.288 . S
C285 C286 1.392 . S
C286 H256 0.951 . S
C286 C285 1.392 . S
C286 C287 1.392 . S
C287 H257 0.949 . S
C287 C282 1.382 . S
C287 C286 1.392 . S
C288 O300 1.241 . S
C288 O301 1.280 . S
C289 O302 1.277 . S
C289 O303 1.245 . S
C290 O314 1.247 . S
C290 O316 1.289 . S
Mg291 O292 1.926 . S
Mg291 O301 1.984 . S
Mg291 O303 1.988 1_655 S
Mg291 O304 2.061 . S
O292 Mg291 1.926 . S
O292 Mg293 1.986 1_655 S
O292 Mg294 1.917 1_655 S
Mg293 O292 1.986 1_455 S
Mg293 O300 2.042 1_455 S
Mg293 O302 2.041 . S
Mg293 O308 2.038 1_455 S
Mg293 O316 2.238 . S
Mg294 O292 1.917 1_455 S
Mg294 O295 1.917 . S
Mg294 O305 2.106 1_455 S
Mg294 O307 2.079 1_455 S
Mg294 O316 2.106 . S
Mg294 O317 2.079 . S
O295 Mg294 1.917 . S
O295 Mg296 1.926 . S
O295 Mg297 1.986 . S
Mg296 O295 1.926 . S
Mg296 O310 1.984 . S
Mg296 O313 1.988 1_455 S
Mg296 O314 2.061 . S
Mg297 O295 1.986 . S
Mg297 O305 2.238 1_455 S
Mg297 O309 2.042 . S
Mg297 O311 2.041 1_455 S
Mg297 O318 2.038 . S
C298 O304 1.247 . S
C298 O305 1.289 . S
C299 O317 1.245 . S
C299 O318 1.274 . S
O300 C288 1.241 . S
O300 Mg293 2.042 1_655 S
O301 C288 1.280 . S
O301 Mg291 1.984 . S
O302 C289 1.277 . S
O302 Mg293 2.041 . S
O303 C289 1.245 . S
O303 Mg291 1.988 1_455 S
O304 Mg291 2.061 . S
O304 C298 1.247 . S
O305 Mg294 2.106 1_655 S
O305 Mg297 2.238 1_655 S
O305 C298 1.289 . S
C306 O307 1.245 . S
C306 O308 1.274 . S
O307 Mg294 2.079 1_655 S
O307 C306 1.245 . S
O308 Mg293 2.038 1_655 S
O308 C306 1.274 . S
O309 Mg297 2.042 . S
O309 C312 1.241 . S
O310 Mg296 1.984 . S
O310 C312 1.280 . S
O311 Mg297 2.041 1_655 S
O311 C315 1.277 . S
C312 O309 1.241 . S
C312 O310 1.280 . S
O313 Mg296 1.988 1_655 S
O313 C315 1.245 . S
O314 C290 1.247 . S
O314 Mg296 2.061 . S
C315 O311 1.277 . S
C315 O313 1.245 . S
O316 C290 1.289 . S
O316 Mg293 2.238 . S
O316 Mg294 2.106 . S
O317 Mg294 2.079 . S
O317 C299 1.245 . S
O318 Mg297 2.038 . S
O318 C299 1.274 . S
C319 O331 1.241 . S
C319 O332 1.280 . S
C320 O333 1.277 . S
C320 O334 1.245 . S
C321 O345 1.247 . S
C321 O347 1.289 . S
Mg322 O323 1.926 . S
Mg322 O332 1.984 . S
Mg322 O334 1.988 1_545 S
Mg322 O335 2.061 . S
O323 Mg322 1.926 . S
O323 Mg324 1.986 . S
O323 Mg325 1.917 . S
Mg324 O323 1.986 . S
Mg324 O331 2.042 . S
Mg324 O333 2.041 1_545 S
Mg324 O339 2.038 . S
Mg324 O347 2.238 1_545 S
Mg325 O323 1.917 . S
Mg325 O326 1.917 1_545 S
Mg325 O336 2.106 . S
Mg325 O338 2.079 . S
Mg325 O347 2.106 1_545 S
Mg325 O348 2.079 1_545 S
O326 Mg325 1.917 1_565 S
O326 Mg327 1.926 . S
O326 Mg328 1.986 1_565 S
Mg327 O326 1.926 . S
Mg327 O341 1.984 . S
Mg327 O344 1.988 1_565 S
Mg327 O345 2.061 . S
Mg328 O326 1.986 1_545 S
Mg328 O336 2.238 . S
Mg328 O340 2.042 1_545 S
Mg328 O342 2.041 . S
Mg328 O349 2.038 1_545 S
C329 O335 1.247 . S
C329 O336 1.289 . S
C330 O348 1.245 . S
C330 O349 1.274 . S
O331 C319 1.241 . S
O331 Mg324 2.042 . S
O332 C319 1.280 . S
O332 Mg322 1.984 . S
O333 C320 1.277 . S
O333 Mg324 2.041 1_565 S
O334 C320 1.245 . S
O334 Mg322 1.988 1_565 S
O335 Mg322 2.061 . S
O335 C329 1.247 . S
O336 Mg325 2.106 . S
O336 Mg328 2.238 . S
O336 C329 1.289 . S
C337 O338 1.245 . S
C337 O339 1.274 . S
O338 Mg325 2.079 . S
O338 C337 1.245 . S
O339 Mg324 2.038 . S
O339 C337 1.274 . S
O340 Mg328 2.042 1_565 S
O340 C343 1.241 . S
O341 Mg327 1.984 . S
O341 C343 1.280 . S
O342 Mg328 2.041 . S
O342 C346 1.277 . S
C343 O340 1.241 . S
C343 O341 1.280 . S
O344 Mg327 1.988 1_545 S
O344 C346 1.245 . S
O345 C321 1.247 . S
O345 Mg327 2.061 . S
C346 O342 1.277 . S
C346 O344 1.245 . S
O347 C321 1.289 . S
O347 Mg324 2.238 1_565 S
O347 Mg325 2.106 1_565 S
O348 Mg325 2.079 1_565 S
O348 C330 1.245 . S
O349 Mg328 2.038 1_565 S
O349 C330 1.274 . S
C350 O362 1.241 . S
C350 O363 1.280 . S
C351 O364 1.277 . S
C351 O365 1.245 . S
C352 O376 1.247 . S
C352 O378 1.289 . S
Mg353 O354 1.926 . S
Mg353 O363 1.984 . S
Mg353 O365 1.988 . S
Mg353 O366 2.061 . S
O354 Mg353 1.926 . S
O354 Mg355 1.986 . S
O354 Mg356 1.917 . S
Mg355 O354 1.986 . S
Mg355 O362 2.042 . S
Mg355 O364 2.041 . S
Mg355 O370 2.038 . S
Mg355 O378 2.238 . S
Mg356 O354 1.917 . S
Mg356 O357 1.917 . S
Mg356 O367 2.106 . S
Mg356 O369 2.079 . S
Mg356 O378 2.106 . S
Mg356 O379 2.079 . S
O357 Mg356 1.917 . S
O357 Mg358 1.926 . S
O357 Mg359 1.986 . S
Mg358 O357 1.926 . S
Mg358 O372 1.984 . S
Mg358 O375 1.988 . S
Mg358 O376 2.061 . S
Mg359 O357 1.986 . S
Mg359 O367 2.238 . S
Mg359 O371 2.042 . S
Mg359 O373 2.041 . S
Mg359 O380 2.038 . S
C360 O366 1.247 . S
C360 O367 1.289 . S
C361 O379 1.245 . S
C361 O380 1.274 . S
O362 C350 1.241 . S
O362 Mg355 2.042 . S
O363 C350 1.280 . S
O363 Mg353 1.984 . S
O364 C351 1.277 . S
O364 Mg355 2.041 . S
O365 C351 1.245 . S
O365 Mg353 1.988 . S
O366 Mg353 2.061 . S
O366 C360 1.247 . S
O367 Mg356 2.106 . S
O367 Mg359 2.238 . S
O367 C360 1.289 . S
C368 O369 1.245 . S
C368 O370 1.274 . S
O369 Mg356 2.079 . S
O369 C368 1.245 . S
O370 Mg355 2.038 . S
O370 C368 1.274 . S
O371 Mg359 2.042 . S
O371 C374 1.241 . S
O372 Mg358 1.984 . S
O372 C374 1.280 . S
O373 Mg359 2.041 . S
O373 C377 1.277 . S
C374 O371 1.241 . S
C374 O372 1.280 . S
O375 Mg358 1.988 . S
O375 C377 1.245 . S
O376 C352 1.247 . S
O376 Mg358 2.061 . S
C377 O373 1.277 . S
C377 O375 1.245 . S
O378 C352 1.289 . S
O378 Mg355 2.238 . S
O378 Mg356 2.106 . S
O379 Mg356 2.079 . S
O379 C361 1.245 . S
O380 Mg359 2.038 . S
O380 C361 1.274 . S
C381 C382 1.369 . S
C381 C383 1.419 . S
C381 H385 0.930 . S
C382 C381 1.369 . S
C382 C391 1.429 . S
C383 C381 1.419 . S
C383 C384 1.363 . S
C383 H386 0.929 . S
C384 C383 1.363 . S
C384 C390 1.428 . S
H385 C381 0.930 . S
H386 C383 0.929 . S
S387 N388 1.613 . S
S387 N389 1.610 . S
N388 S387 1.613 . S
N388 C391 1.350 . S
N389 S387 1.610 . S
N389 C390 1.351 . S
C390 C384 1.428 . S
C390 N389 1.351 . S
C390 C391 1.434 . S
C391 C382 1.429 . S
C391 N388 1.350 . S
C391 C390 1.434 . S
C392 C393 1.369 . S
C392 C394 1.419 . S
C392 H396 0.930 . S
C393 C392 1.369 . S
C393 C402 1.429 . S
C394 C392 1.419 . S
C394 C395 1.363 . S
C394 H397 0.929 . S
C395 C394 1.363 . S
C395 C401 1.428 . S
H396 C392 0.930 . S
H397 C394 0.929 . S
S398 N399 1.613 . S
S398 N400 1.610 . S
N399 S398 1.613 . S
N399 C402 1.350 . S
N400 S398 1.610 . S
N400 C401 1.351 . S
C401 C395 1.428 . S
C401 N400 1.351 . S
C401 C402 1.434 . S
C402 C393 1.429 . S
C402 N399 1.350 . S
C402 C401 1.434 . S
C403 C404 1.369 . S
C403 C405 1.419 . S
C403 H407 0.930 . S
C404 C403 1.369 . S
C404 C413 1.429 . S
C405 C403 1.419 . S
C405 C406 1.363 . S
C405 H408 0.929 . S
C406 C405 1.363 . S
C406 C412 1.428 . S
H407 C403 0.930 . S
H408 C405 0.929 . S
S409 N410 1.613 . S
S409 N411 1.610 . S
N410 S409 1.613 . S
N410 C413 1.350 . S
N411 S409 1.610 . S
N411 C412 1.351 . S
C412 C406 1.428 . S
C412 N411 1.351 . S
C412 C413 1.434 . S
C413 C404 1.429 . S
C413 N410 1.350 . S
C413 C412 1.434 . S
C414 C415 1.369 . S
C414 C416 1.419 . S
C414 H418 0.930 . S
C415 C414 1.369 . S
C415 C424 1.429 . S
C416 C414 1.419 . S
C416 C417 1.363 . S
C416 H419 0.929 . S
C417 C416 1.363 . S
C417 C423 1.428 . S
H418 C414 0.930 . S
H419 C416 0.929 . S
S420 N421 1.613 . S
S420 N422 1.610 . S
N421 S420 1.613 . S
N421 C424 1.350 . S
N422 S420 1.610 . S
N422 C423 1.351 . S
C423 C417 1.428 . S
C423 N422 1.351 . S
C423 C424 1.434 . S
C424 C415 1.429 . S
C424 N421 1.350 . S
C424 C423 1.434 . S
C425 C426 1.369 . S
C425 C427 1.419 . S
C425 H429 0.930 . S
C426 C425 1.369 . S
C426 C435 1.429 . S
C427 C425 1.419 . S
C427 C428 1.363 . S
C427 H430 0.929 . S
C428 C427 1.363 . S
C428 C434 1.428 . S
H429 C425 0.930 . S
H430 C427 0.929 . S
S431 N432 1.613 . S
S431 N433 1.610 . S
N432 S431 1.613 . S
N432 C435 1.350 . S
N433 S431 1.610 . S
N433 C434 1.351 . S
C434 C428 1.428 . S
C434 N433 1.351 . S
C434 C435 1.434 . S
C435 C426 1.429 . S
C435 N432 1.350 . S
C435 C434 1.434 . S
C436 C437 1.369 . S
C436 C438 1.419 . S
C436 H440 0.930 . S
C437 C436 1.369 . S
C437 C446 1.429 . S
C438 C436 1.419 . S
C438 C439 1.363 . S
C438 H441 0.929 . S
C439 C438 1.363 . S
C439 C445 1.428 . S
H440 C436 0.930 . S
H441 C438 0.929 . S
S442 N443 1.613 . S
S442 N444 1.610 . S
N443 S442 1.613 . S
N443 C446 1.350 . S
N444 S442 1.610 . S
N444 C445 1.351 . S
C445 C439 1.428 . S
C445 N444 1.351 . S
C445 C446 1.434 . S
C446 C437 1.429 . S
C446 N443 1.350 . S
C446 C445 1.434 . S
C447 C448 1.369 . S
C447 C449 1.419 . S
C447 H451 0.930 . S
C448 C447 1.369 . S
C448 C457 1.429 . S
C449 C447 1.419 . S
C449 C450 1.363 . S
C449 H452 0.929 . S
C450 C449 1.363 . S
C450 C456 1.428 . S
H451 C447 0.930 . S
H452 C449 0.929 . S
S453 N454 1.613 . S
S453 N455 1.610 . S
N454 S453 1.613 . S
N454 C457 1.350 . S
N455 S453 1.610 . S
N455 C456 1.351 . S
C456 C450 1.428 . S
C456 N455 1.351 . S
C456 C457 1.434 . S
C457 C448 1.429 . S
C457 N454 1.350 . S
C457 C456 1.434 . S
C458 C459 1.369 . S
C458 C460 1.419 . S
C458 H462 0.930 . S
C459 C458 1.369 . S
C459 C468 1.429 . S
C460 C458 1.419 . S
C460 C461 1.363 . S
C460 H463 0.929 . S
C461 C460 1.363 . S
C461 C467 1.428 . S
H462 C458 0.930 . S
H463 C460 0.929 . S
S464 N465 1.613 . S
S464 N466 1.610 . S
N465 S464 1.613 . S
N465 C468 1.350 . S
N466 S464 1.610 . S
N466 C467 1.351 . S
C467 C461 1.428 . S
C467 N466 1.351 . S
C467 C468 1.434 . S
C468 C459 1.429 . S
C468 N465 1.350 . S
C468 C467 1.434 . S
C469 C470 1.369 . S
C469 C471 1.419 . S
C469 H473 0.930 . S
C470 C469 1.369 . S
C470 C479 1.429 . S
C471 C469 1.419 . S
C471 C472 1.363 . S
C471 H474 0.929 . S
C472 C471 1.363 . S
C472 C478 1.428 . S
H473 C469 0.930 . S
H474 C471 0.929 . S
S475 N476 1.613 . S
S475 N477 1.610 . S
N476 S475 1.613 . S
N476 C479 1.350 . S
N477 S475 1.610 . S
N477 C478 1.351 . S
C478 C472 1.428 . S
C478 N477 1.351 . S
C478 C479 1.434 . S
C479 C470 1.429 . S
C479 N476 1.350 . S
C479 C478 1.434 . S
C480 C481 1.369 . S
C480 C482 1.419 . S
C480 H484 0.930 . S
C481 C480 1.369 . S
C481 C490 1.429 . S
C482 C480 1.419 . S
C482 C483 1.363 . S
C482 H485 0.929 . S
C483 C482 1.363 . S
C483 C489 1.428 . S
H484 C480 0.930 . S
H485 C482 0.929 . S
S486 N487 1.613 1_556 S
S486 N488 1.610 . S
N487 S486 1.613 1_554 S
N487 C490 1.350 1_554 S
N488 S486 1.610 . S
N488 C489 1.351 . S
C489 C483 1.428 . S
C489 N488 1.351 . S
C489 C490 1.434 . S
C490 C481 1.429 . S
C490 N487 1.350 1_556 S
C490 C489 1.434 . S
C491 C492 1.369 . S
C491 C493 1.419 . S
C491 H495 0.930 . S
C492 C491 1.369 . S
C492 C501 1.429 . S
C493 C491 1.419 . S
C493 C494 1.363 . S
C493 H496 0.929 . S
C494 C493 1.363 . S
C494 C500 1.428 . S
H495 C491 0.930 . S
H496 C493 0.929 . S
S497 N498 1.613 . S
S497 N499 1.610 1_554 S
N498 S497 1.613 . S
N498 C501 1.350 1_554 S
N499 S497 1.610 1_556 S
N499 C500 1.351 . S
C500 C494 1.428 . S
C500 N499 1.351 . S
C500 C501 1.434 . S
C501 C492 1.429 . S
C501 N498 1.350 1_556 S
C501 C500 1.434 . S
C502 C503 1.369 . S
C502 C504 1.419 . S
C502 H506 0.930 . S
C503 C502 1.369 . S
C503 C512 1.429 . S
C504 C502 1.419 . S
C504 C505 1.363 . S
C504 H507 0.929 . S
C505 C504 1.363 . S
C505 C511 1.428 . S
H506 C502 0.930 . S
H507 C504 0.929 . S
S508 N509 1.613 . S
S508 N510 1.610 1_554 S
N509 S508 1.613 . S
N509 C512 1.350 1_554 S
N510 S508 1.610 1_556 S
N510 C511 1.351 . S
C511 C505 1.428 . S
C511 N510 1.351 . S
C511 C512 1.434 . S
C512 C503 1.429 . S
C512 N509 1.350 1_556 S
C512 C511 1.434 . S
C513 C514 1.369 . S
C513 C515 1.419 . S
C513 H517 0.930 . S
C514 C513 1.369 . S
C514 C523 1.429 . S
C515 C513 1.419 . S
C515 C516 1.363 . S
C515 H518 0.929 . S
C516 C515 1.363 . S
C516 C522 1.428 . S
H517 C513 0.930 . S
H518 C515 0.929 . S
S519 N520 1.613 . S
S519 N521 1.610 . S
N520 S519 1.613 . S
N520 C523 1.350 . S
N521 S519 1.610 . S
N521 C522 1.351 . S
C522 C516 1.428 . S
C522 N521 1.351 . S
C522 C523 1.434 . S
C523 C514 1.429 . S
C523 N520 1.350 . S
C523 C522 1.434 . S
C524 C525 1.369 . S
C524 C526 1.419 . S
C524 H528 0.930 . S
C525 C524 1.369 . S
C525 C534 1.429 . S
C526 C524 1.419 . S
C526 C527 1.363 . S
C526 H529 0.929 . S
C527 C526 1.363 . S
C527 C533 1.428 . S
H528 C524 0.930 . S
H529 C526 0.929 . S
S530 N531 1.613 1_554 S
S530 N532 1.610 1_554 S
N531 S530 1.613 1_556 S
N531 C534 1.350 . S
N532 S530 1.610 1_556 S
N532 C533 1.351 . S
C533 C527 1.428 . S
C533 N532 1.351 . S
C533 C534 1.434 . S
C534 C525 1.429 . S
C534 N531 1.350 . S
C534 C533 1.434 . S
C535 C536 1.369 . S
C535 C537 1.419 . S
C535 H539 0.930 . S
C536 C535 1.369 . S
C536 C545 1.429 . S
C537 C535 1.419 . S
C537 C538 1.363 . S
C537 H540 0.929 . S
C538 C537 1.363 . S
C538 C544 1.428 . S
H539 C535 0.930 . S
H540 C537 0.929 . S
S541 N542 1.613 . S
S541 N543 1.610 . S
N542 S541 1.613 . S
N542 C545 1.350 . S
N543 S541 1.610 . S
N543 C544 1.351 . S
C544 C538 1.428 . S
C544 N543 1.351 . S
C544 C545 1.434 . S
C545 C536 1.429 . S
C545 N542 1.350 . S
C545 C544 1.434 . S
C546 C547 1.369 . S
C546 C548 1.419 . S
C546 H550 0.930 . S
C547 C546 1.369 . S
C547 C556 1.429 . S
C548 C546 1.419 . S
C548 C549 1.363 . S
C548 H551 0.929 . S
C549 C548 1.363 . S
C549 C555 1.428 . S
H550 C546 0.930 . S
H551 C548 0.929 . S
S552 N553 1.613 . S
S552 N554 1.610 1_554 S
N553 S552 1.613 . S
N553 C556 1.350 1_554 S
N554 S552 1.610 1_556 S
N554 C555 1.351 . S
C555 C549 1.428 . S
C555 N554 1.351 . S
C555 C556 1.434 . S
C556 C547 1.429 . S
C556 N553 1.350 1_556 S
C556 C555 1.434 . S
C557 C558 1.369 . S
C557 C559 1.419 . S
C557 H561 0.930 . S
C558 C557 1.369 . S
C558 C567 1.429 . S
C559 C557 1.419 . S
C559 C560 1.363 . S
C559 H562 0.929 . S
C560 C559 1.363 . S
C560 C566 1.428 . S
H561 C557 0.930 . S
H562 C559 0.929 . S
S563 N564 1.613 . S
S563 N565 1.610 . S
N564 S563 1.613 . S
N564 C567 1.350 . S
N565 S563 1.610 . S
N565 C566 1.351 . S
C566 C560 1.428 . S
C566 N565 1.351 . S
C566 C567 1.434 . S
C567 C558 1.429 . S
C567 N564 1.350 . S
C567 C566 1.434 . S
C568 C569 1.369 . S
C568 C570 1.419 . S
C568 H572 0.930 . S
C569 C568 1.369 . S
C569 C578 1.429 . S
C570 C568 1.419 . S
C570 C571 1.363 . S
C570 H573 0.929 . S
C571 C570 1.363 . S
C571 C577 1.428 . S
H572 C568 0.930 . S
H573 C570 0.929 . S
S574 N575 1.613 . S
S574 N576 1.610 . S
N575 S574 1.613 . S
N575 C578 1.350 . S
N576 S574 1.610 . S
N576 C577 1.351 . S
C577 C571 1.428 . S
C577 N576 1.351 . S
C577 C578 1.434 . S
C578 C569 1.429 . S
C578 N575 1.350 . S
C578 C577 1.434 . S
C579 C580 1.369 . S
C579 C581 1.419 . S
C579 H583 0.930 . S
C580 C579 1.369 . S
C580 C589 1.429 . S
C581 C579 1.419 . S
C581 C582 1.363 . S
C581 H584 0.929 . S
C582 C581 1.363 . S
C582 C588 1.428 . S
H583 C579 0.930 . S
H584 C581 0.929 . S
S585 N586 1.613 . S
S585 N587 1.610 . S
N586 S585 1.613 . S
N586 C589 1.350 . S
N587 S585 1.610 . S
N587 C588 1.351 . S
C588 C582 1.428 . S
C588 N587 1.351 . S
C588 C589 1.434 . S
C589 C580 1.429 . S
C589 N586 1.350 . S
C589 C588 1.434 . S
C590 C591 1.369 . S
C590 C592 1.419 . S
C590 H594 0.930 . S
C591 C590 1.369 . S
C591 C600 1.429 . S
C592 C590 1.419 . S
C592 C593 1.363 . S
C592 H595 0.929 . S
C593 C592 1.363 . S
C593 C599 1.428 . S
H594 C590 0.930 . S
H595 C592 0.929 . S
S596 N597 1.613 . S
S596 N598 1.610 . S
N597 S596 1.613 . S
N597 C600 1.350 . S
N598 S596 1.610 . S
N598 C599 1.351 . S
C599 C593 1.428 . S
C599 N598 1.351 . S
C599 C600 1.434 . S
C600 C591 1.429 . S
C600 N597 1.350 . S
C600 C599 1.434 . S
C601 C602 1.369 . S
C601 C603 1.419 . S
C601 H605 0.930 . S
C602 C601 1.369 . S
C602 C611 1.429 . S
C603 C601 1.419 . S
C603 C604 1.363 . S
C603 H606 0.929 . S
C604 C603 1.363 . S
C604 C610 1.428 . S
H605 C601 0.930 . S
H606 C603 0.929 . S
S607 N608 1.613 . S
S607 N609 1.610 . S
N608 S607 1.613 . S
N608 C611 1.350 . S
N609 S607 1.610 . S
N609 C610 1.351 . S
C610 C604 1.428 . S
C610 N609 1.351 . S
C610 C611 1.434 . S
C611 C602 1.429 . S
C611 N608 1.350 . S
C611 C610 1.434 . S
C612 C613 1.369 . S
C612 C614 1.419 . S
C612 H616 0.930 . S
C613 C612 1.369 . S
C613 C622 1.429 . S
C614 C612 1.419 . S
C614 C615 1.363 . S
C614 H617 0.929 . S
C615 C614 1.363 . S
C615 C621 1.428 . S
H616 C612 0.930 . S
H617 C614 0.929 . S
S618 N619 1.613 . S
S618 N620 1.610 . S
N619 S618 1.613 . S
N619 C622 1.350 . S
N620 S618 1.610 . S
N620 C621 1.351 . S
C621 C615 1.428 . S
C621 N620 1.351 . S
C621 C622 1.434 . S
C622 C613 1.429 . S
C622 N619 1.350 . S
C622 C621 1.434 . S
C623 C624 1.369 . S
C623 C625 1.419 . S
C623 H627 0.930 . S
C624 C623 1.369 . S
C624 C633 1.429 . S
C625 C623 1.419 . S
C625 C626 1.363 . S
C625 H628 0.929 . S
C626 C625 1.363 . S
C626 C632 1.428 . S
H627 C623 0.930 . S
H628 C625 0.929 . S
S629 N630 1.613 . S
S629 N631 1.610 . S
N630 S629 1.613 . S
N630 C633 1.350 . S
N631 S629 1.610 . S
N631 C632 1.351 . S
C632 C626 1.428 . S
C632 N631 1.351 . S
C632 C633 1.434 . S
C633 C624 1.429 . S
C633 N630 1.350 . S
C633 C632 1.434 . S
C634 C635 1.369 . S
C634 C636 1.419 . S
C634 H638 0.930 . S
C635 C634 1.369 . S
C635 C644 1.429 . S
C636 C634 1.419 . S
C636 C637 1.363 . S
C636 H639 0.929 . S
C637 C636 1.363 . S
C637 C643 1.428 . S
H638 C634 0.930 . S
H639 C636 0.929 . S
S640 N641 1.613 . S
S640 N642 1.610 . S
N641 S640 1.613 . S
N641 C644 1.350 . S
N642 S640 1.610 . S
N642 C643 1.351 . S
C643 C637 1.428 . S
C643 N642 1.351 . S
C643 C644 1.434 . S
C644 C635 1.429 . S
C644 N641 1.350 . S
C644 C643 1.434 . S
C382 C45 1.942 . S
C384 C299 1.846 . S
C393 C84 1.626 . S
C395 C346 1.584 . S
C406 C350 1.741 . S
C404 C126 1.790 . S
C417 C315 1.498 . S
C415 C165 1.545 . S
C426 C222 1.801 . S
C428 C330 1.769 . S
C439 C352 1.162 . S
C437 C276 1.230 . S
C450 C321 1.521 . S
C448 C141 1.623 . S
C459 C180 1.535 . S
C461 C361 1.493 . S
C472 C290 1.421 . S
C470 C237 1.531 . S
C481 C261 1.470 1_556 S
C483 C319 1.425 . S
C492 C30 1.866 1_556 S
C494 C377 1.829 . S
C505 C288 1.512 . S
C503 C69 1.552 . S
C516 C306 1.852 . S
C514 C174 1.940 . S
C527 C320 1.585 . S
C525 C213 1.625 . S
C538 C374 1.739 . S
C536 C285 1.791 1_556 S
C549 C289 1.496 . S
C547 C36 1.553 . S
C560 C337 1.761 . S
C558 C93 1.809 . S
C569 C117 1.232 . S
C571 C360 1.162 . S
C582 C329 1.525 . S
C580 C270 1.621 . S
C593 C368 1.487 . S
C591 C21 1.539 . S
C604 C298 1.421 . S
C602 C78 1.531 . S
C615 C343 1.421 . S
C613 C132 1.473 . S
C624 C189 1.864 . S
C626 C351 1.833 . S
C635 C228 1.554 . S
C637 C312 1.510 . S
