# Generated by pormake.
# Topology eea, (3,6)-cn, num edge types: 1
# Building blocks:
#     Node 0, Type 0, BuildingBlock: QEWDON_clean_linker_0, # of connection points: 3
#     Node 1, Type 0, BuildingBlock: QEWDON_clean_linker_0, # of connection points: 3
#     Node 2, Type 0, BuildingBlock: QEWDON_clean_linker_0, # of connection points: 3
#     Node 3, Type 0, BuildingBlock: QEWDON_clean_linker_0, # of connection points: 3
#     Node 4, Type 0, BuildingBlock: QEWDON_clean_linker_0, # of connection points: 3
#     Node 5, Type 0, BuildingBlock: QEWDON_clean_linker_0, # of connection points: 3
#     Node 6, Type 0, BuildingBlock: QEWDON_clean_linker_0, # of connection points: 3
#     Node 7, Type 0, BuildingBlock: QEWDON_clean_linker_0, # of connection points: 3
#     Node 8, Type 0, BuildingBlock: QEWDON_clean_linker_0, # of connection points: 3
#     Node 9, Type 0, BuildingBlock: QEWDON_clean_linker_0, # of connection points: 3
#     Node 10, Type 0, BuildingBlock: QEWDON_clean_linker_0, # of connection points: 3
#     Node 11, Type 0, BuildingBlock: QEWDON_clean_linker_0, # of connection points: 3
#     Node 12, Type 0, BuildingBlock: QEWDON_clean_linker_0, # of connection points: 3
#     Node 13, Type 0, BuildingBlock: QEWDON_clean_linker_0, # of connection points: 3
#     Node 14, Type 0, BuildingBlock: QEWDON_clean_linker_0, # of connection points: 3
#     Node 15, Type 0, BuildingBlock: QEWDON_clean_linker_0, # of connection points: 3
#     Node 16, Type 0, BuildingBlock: QEWDON_clean_linker_0, # of connection points: 3
#     Node 17, Type 0, BuildingBlock: QEWDON_clean_linker_0, # of connection points: 3
#     Node 18, Type 1, BuildingBlock: KUMBOL_clean_sbu_0, # of connection points: 6
#     Node 19, Type 1, BuildingBlock: KUMBOL_clean_sbu_0, # of connection points: 6
#     Node 20, Type 1, BuildingBlock: KUMBOL_clean_sbu_0, # of connection points: 6
#     Node 21, Type 1, BuildingBlock: KUMBOL_clean_sbu_0, # of connection points: 6
#     Node 22, Type 1, BuildingBlock: KUMBOL_clean_sbu_0, # of connection points: 6
#     Node 23, Type 1, BuildingBlock: KUMBOL_clean_sbu_0, # of connection points: 6
#     Node 24, Type 1, BuildingBlock: KUMBOL_clean_sbu_0, # of connection points: 6
#     Node 25, Type 1, BuildingBlock: KUMBOL_clean_sbu_0, # of connection points: 6
#     Node 26, Type 1, BuildingBlock: KUMBOL_clean_sbu_0, # of connection points: 6
#     Edge 27, Type (0, 1), BuildingBlock: UVAHIK_clean_linker_0, # of connection points: 2
#     Edge 28, Type (0, 1), BuildingBlock: UVAHIK_clean_linker_0, # of connection points: 2
#     Edge 29, Type (0, 1), BuildingBlock: UVAHIK_clean_linker_0, # of connection points: 2
#     Edge 30, Type (0, 1), BuildingBlock: UVAHIK_clean_linker_0, # of connection points: 2
#     Edge 31, Type (0, 1), BuildingBlock: UVAHIK_clean_linker_0, # of connection points: 2
#     Edge 32, Type (0, 1), BuildingBlock: UVAHIK_clean_linker_0, # of connection points: 2
#     Edge 33, Type (0, 1), BuildingBlock: UVAHIK_clean_linker_0, # of connection points: 2
#     Edge 34, Type (0, 1), BuildingBlock: UVAHIK_clean_linker_0, # of connection points: 2
#     Edge 35, Type (0, 1), BuildingBlock: UVAHIK_clean_linker_0, # of connection points: 2
#     Edge 36, Type (0, 1), BuildingBlock: UVAHIK_clean_linker_0, # of connection points: 2
#     Edge 37, Type (0, 1), BuildingBlock: UVAHIK_clean_linker_0, # of connection points: 2
#     Edge 38, Type (0, 1), BuildingBlock: UVAHIK_clean_linker_0, # of connection points: 2
#     Edge 39, Type (0, 1), BuildingBlock: UVAHIK_clean_linker_0, # of connection points: 2
#     Edge 40, Type (0, 1), BuildingBlock: UVAHIK_clean_linker_0, # of connection points: 2
#     Edge 41, Type (0, 1), BuildingBlock: UVAHIK_clean_linker_0, # of connection points: 2
#     Edge 42, Type (0, 1), BuildingBlock: UVAHIK_clean_linker_0, # of connection points: 2
#     Edge 43, Type (0, 1), BuildingBlock: UVAHIK_clean_linker_0, # of connection points: 2
#     Edge 44, Type (0, 1), BuildingBlock: UVAHIK_clean_linker_0, # of connection points: 2
#     Edge 45, Type (0, 1), BuildingBlock: UVAHIK_clean_linker_0, # of connection points: 2
#     Edge 46, Type (0, 1), BuildingBlock: UVAHIK_clean_linker_0, # of connection points: 2
#     Edge 47, Type (0, 1), BuildingBlock: UVAHIK_clean_linker_0, # of connection points: 2
#     Edge 48, Type (0, 1), BuildingBlock: UVAHIK_clean_linker_0, # of connection points: 2
#     Edge 49, Type (0, 1), BuildingBlock: UVAHIK_clean_linker_0, # of connection points: 2
#     Edge 50, Type (0, 1), BuildingBlock: UVAHIK_clean_linker_0, # of connection points: 2
#     Edge 51, Type (0, 1), BuildingBlock: UVAHIK_clean_linker_0, # of connection points: 2
#     Edge 52, Type (0, 1), BuildingBlock: UVAHIK_clean_linker_0, # of connection points: 2
#     Edge 53, Type (0, 1), BuildingBlock: UVAHIK_clean_linker_0, # of connection points: 2
#     Edge 54, Type (0, 1), BuildingBlock: UVAHIK_clean_linker_0, # of connection points: 2
#     Edge 55, Type (0, 1), BuildingBlock: UVAHIK_clean_linker_0, # of connection points: 2
#     Edge 56, Type (0, 1), BuildingBlock: UVAHIK_clean_linker_0, # of connection points: 2
#     Edge 57, Type (0, 1), BuildingBlock: UVAHIK_clean_linker_0, # of connection points: 2
#     Edge 58, Type (0, 1), BuildingBlock: UVAHIK_clean_linker_0, # of connection points: 2
#     Edge 59, Type (0, 1), BuildingBlock: UVAHIK_clean_linker_0, # of connection points: 2
#     Edge 60, Type (0, 1), BuildingBlock: UVAHIK_clean_linker_0, # of connection points: 2
#     Edge 61, Type (0, 1), BuildingBlock: UVAHIK_clean_linker_0, # of connection points: 2
#     Edge 62, Type (0, 1), BuildingBlock: UVAHIK_clean_linker_0, # of connection points: 2
#     Edge 63, Type (0, 1), BuildingBlock: UVAHIK_clean_linker_0, # of connection points: 2
#     Edge 64, Type (0, 1), BuildingBlock: UVAHIK_clean_linker_0, # of connection points: 2
#     Edge 65, Type (0, 1), BuildingBlock: UVAHIK_clean_linker_0, # of connection points: 2
#     Edge 66, Type (0, 1), BuildingBlock: UVAHIK_clean_linker_0, # of connection points: 2
#     Edge 67, Type (0, 1), BuildingBlock: UVAHIK_clean_linker_0, # of connection points: 2
#     Edge 68, Type (0, 1), BuildingBlock: UVAHIK_clean_linker_0, # of connection points: 2
#     Edge 69, Type (0, 1), BuildingBlock: UVAHIK_clean_linker_0, # of connection points: 2
#     Edge 70, Type (0, 1), BuildingBlock: UVAHIK_clean_linker_0, # of connection points: 2
#     Edge 71, Type (0, 1), BuildingBlock: UVAHIK_clean_linker_0, # of connection points: 2
#     Edge 72, Type (0, 1), BuildingBlock: UVAHIK_clean_linker_0, # of connection points: 2
#     Edge 73, Type (0, 1), BuildingBlock: UVAHIK_clean_linker_0, # of connection points: 2
#     Edge 74, Type (0, 1), BuildingBlock: UVAHIK_clean_linker_0, # of connection points: 2
#     Edge 75, Type (0, 1), BuildingBlock: UVAHIK_clean_linker_0, # of connection points: 2
#     Edge 76, Type (0, 1), BuildingBlock: UVAHIK_clean_linker_0, # of connection points: 2
#     Edge 77, Type (0, 1), BuildingBlock: UVAHIK_clean_linker_0, # of connection points: 2
#     Edge 78, Type (0, 1), BuildingBlock: UVAHIK_clean_linker_0, # of connection points: 2
#     Edge 79, Type (0, 1), BuildingBlock: UVAHIK_clean_linker_0, # of connection points: 2
#     Edge 80, Type (0, 1), BuildingBlock: UVAHIK_clean_linker_0, # of connection points: 2
# Relax obj value: 0.043
# Max RMSD: 0.200
# Mean RMSD: 0.144
data_MOF--net-eea--node1-KUMBOL_clean_sbu_0--node2-QEWDON_clean_linker_0--edge1-UVAHIK_clean_linker_0
_symmetry_space_group_name_H-M    P1
_symmetry_Int_Tables_number       1
_symmetry_cell_setting            triclinic
loop_
_symmetry_equiv_pos_as_xyz
'x, y, z'
_cell_length_a     74.78355
_cell_length_b     76.176154
_cell_length_c     78.198621
_cell_angle_alpha  90.177006
_cell_angle_beta   90.165973
_cell_angle_gamma 119.95437
loop_
_atom_site_label
_atom_site_type_symbol
_atom_site_fract_x
_atom_site_fract_y
_atom_site_fract_z
_atom_type_partial_charge
H0 H 0.2055 0.11719 0.42887 0.0
C1 C 0.20718 0.10555 0.42228 0.0
C2 C 0.22315 0.1019 0.42701 0.0
C3 C 0.19282 0.09363 0.40964 0.0
H4 H 0.23741 0.08387 0.42231 0.0
C5 C 0.22504 0.0866 0.4186 0.0
C6 C 0.21049 0.07411 0.40623 0.0
C7 C 0.19447 0.07788 0.40178 0.0
C8 C 0.17525 0.09671 0.40543 0.0
H9 H 0.18286 0.06823 0.39254 0.0
C10 C 0.17852 0.11613 0.40159 0.0
C11 C 0.16179 0.11894 0.39736 0.0
C12 C 0.15505 0.08011 0.40525 0.0
H13 H 0.15211 0.06505 0.40835 0.0
C14 C 0.1384 0.08283 0.40133 0.0
H15 H 0.19412 0.1289 0.4014 0.0
C16 C 0.14169 0.10207 0.39741 0.0
H17 H 0.12845 0.10375 0.39455 0.0
H18 H 0.12287 0.06998 0.40135 0.0
H19 H 0.90147 0.09745 0.42258 0.0
C20 C 0.91344 0.11119 0.41673 0.0
C21 C 0.91935 0.13009 0.42433 0.0
C22 C 0.92393 0.10981 0.40237 0.0
H23 H 0.93999 0.16236 0.42271 0.0
C24 C 0.93557 0.14772 0.41708 0.0
C25 C 0.9462 0.14667 0.40268 0.0
C26 C 0.94013 0.12766 0.39532 0.0
C27 C 0.91953 0.0897 0.3958 0.0
H28 H 0.94851 0.12665 0.38443 0.0
C29 C 0.89914 0.07387 0.3928 0.0
C30 C 0.89536 0.05484 0.38669 0.0
C31 C 0.93602 0.08619 0.39287 0.0
H32 H 0.9518 0.09794 0.39536 0.0
C33 C 0.93237 0.06738 0.38711 0.0
H34 H 0.88636 0.07654 0.39483 0.0
C35 C 0.91226 0.05181 0.38407 0.0
H36 H 0.90995 0.03727 0.37985 0.0
H37 H 0.94518 0.06479 0.38508 0.0
H38 H 0.91709 0.79912 0.42077 0.0
C39 C 0.90398 0.79908 0.4148 0.0
C40 C 0.8841 0.78699 0.42165 0.0
C41 C 0.90713 0.8117 0.40067 0.0
H42 H 0.85218 0.77911 0.41977 0.0
C43 C 0.86732 0.78755 0.41404 0.0
C44 C 0.86997 0.79973 0.39974 0.0
C45 C 0.88995 0.81166 0.3931 0.0
C46 C 0.92846 0.82638 0.39484 0.0
H47 H 0.89219 0.82106 0.38204 0.0
C48 C 0.94396 0.82097 0.3934 0.0
C49 C 0.96428 0.83563 0.38885 0.0
C50 C 0.93362 0.8465 0.3914 0.0
H51 H 0.92226 0.85128 0.39267 0.0
C52 C 0.95364 0.8609 0.38677 0.0
H53 H 0.94035 0.80557 0.39597 0.0
C54 C 0.9689 0.85556 0.38559 0.0
H55 H 0.98438 0.86704 0.38205 0.0
H56 H 0.9574 0.87633 0.38426 0.0
H57 H 0.12151 0.20602 0.60466 0.0
C58 C 0.10896 0.20731 0.61022 0.0
C59 C 0.10085 0.2179 0.60138 0.0
C60 C 0.10019 0.19744 0.62572 0.0
H61 H 0.07747 0.22662 0.60149 0.0
C62 C 0.08391 0.21869 0.60833 0.0
C63 C 0.07496 0.20906 0.62383 0.0
C64 C 0.08343 0.19875 0.63251 0.0
C65 C 0.10747 0.18467 0.63443 0.0
H66 H 0.07691 0.19171 0.64466 0.0
C67 C 0.12865 0.19056 0.63555 0.0
C68 C 0.13493 0.17847 0.64452 0.0
C69 C 0.09285 0.16619 0.64185 0.0
H70 H 0.07647 0.16082 0.6408 0.0
C71 C 0.09907 0.15421 0.65058 0.0
H72 H 0.14021 0.2047 0.62996 0.0
C73 C 0.11993 0.16035 0.65203 0.0
H74 H 0.12437 0.15075 0.65886 0.0
H75 H 0.08763 0.14008 0.65624 0.0
H76 H 0.81325 0.92139 0.59442 0.0
C77 C 0.81215 0.90796 0.60017 0.0
C78 C 0.79652 0.88866 0.59488 0.0
C79 C 0.82684 0.91005 0.61242 0.0
H80 H 0.78325 0.8565 0.59851 0.0
C81 C 0.79531 0.87139 0.6025 0.0
C82 C 0.80987 0.87317 0.61483 0.0
C83 C 0.82564 0.89263 0.61963 0.0
C84 C 0.84411 0.9304 0.61709 0.0
H85 H 0.8373 0.89433 0.62879 0.0
C86 C 0.8404 0.94623 0.6215 0.0
C87 C 0.85686 0.96547 0.62613 0.0
C88 C 0.86446 0.93403 0.61713 0.0
H89 H 0.86774 0.92216 0.61359 0.0
C90 C 0.88083 0.9531 0.62146 0.0
H91 H 0.82468 0.94338 0.62181 0.0
C92 C 0.87711 0.96873 0.62592 0.0
H93 H 0.89015 0.98344 0.62907 0.0
H94 H 0.89648 0.9558 0.62132 0.0
H95 H 0.089 0.88543 0.60114 0.0
C96 C 0.10262 0.89734 0.60744 0.0
C97 C 0.12225 0.90286 0.60099 0.0
C98 C 0.10055 0.90756 0.62162 0.0
H99 H 0.15494 0.9228 0.60377 0.0
C100 C 0.13989 0.91865 0.60887 0.0
C101 C 0.13823 0.92962 0.62267 0.0
C102 C 0.11844 0.92367 0.62909 0.0
C103 C 0.07977 0.90244 0.62813 0.0
H104 H 0.11684 0.93195 0.63968 0.0
C105 C 0.06381 0.88212 0.63003 0.0
C106 C 0.04446 0.87759 0.63683 0.0
C107 C 0.07595 0.91812 0.63272 0.0
H108 H 0.08762 0.93386 0.63102 0.0
C109 C 0.05701 0.91378 0.63952 0.0
H110 H 0.06652 0.86994 0.62632 0.0
C111 C 0.04148 0.89377 0.64172 0.0
H112 H 0.02718 0.89103 0.64749 0.0
H113 H 0.05439 0.92602 0.6432 0.0
H114 H 0.87169 0.44976 0.76155 0.0
C115 C 0.87317 0.43803 0.75492 0.0
C116 C 0.88919 0.43436 0.7594 0.0
C117 C 0.8585 0.42601 0.74251 0.0
H118 H 0.90323 0.41617 0.75448 0.0
C119 C 0.89082 0.41892 0.75096 0.0
C120 C 0.87596 0.40632 0.73882 0.0
C121 C 0.8599 0.41013 0.73463 0.0
C122 C 0.84086 0.4291 0.73863 0.0
H123 H 0.84806 0.4004 0.72557 0.0
C124 C 0.84409 0.44854 0.73489 0.0
C125 C 0.8273 0.45138 0.73104 0.0
C126 C 0.82065 0.41253 0.73868 0.0
H127 H 0.81775 0.39746 0.74171 0.0
C128 C 0.80395 0.41529 0.73513 0.0
H129 H 0.8597 0.46129 0.73451 0.0
C130 C 0.80719 0.43454 0.73133 0.0
H131 H 0.7939 0.43625 0.72877 0.0
H132 H 0.78841 0.40246 0.73534 0.0
H133 H 0.56591 0.42866 0.756 0.0
C134 C 0.57785 0.44242 0.75017 0.0
C135 C 0.58373 0.4613 0.7578 0.0
C136 C 0.5884 0.44111 0.7358 0.0
H137 H 0.60427 0.49358 0.75621 0.0
C138 C 0.59989 0.47896 0.75055 0.0
C139 C 0.61056 0.47799 0.73616 0.0
C140 C 0.60456 0.459 0.72878 0.0
C141 C 0.58412 0.42105 0.72923 0.0
H142 H 0.61299 0.45804 0.71789 0.0
C143 C 0.56378 0.4052 0.72607 0.0
C144 C 0.56015 0.38624 0.71988 0.0
C145 C 0.60069 0.41764 0.7264 0.0
H146 H 0.61642 0.4294 0.72901 0.0
C147 C 0.59717 0.39889 0.72058 0.0
H148 H 0.55095 0.4078 0.72802 0.0
C149 C 0.57711 0.3833 0.71737 0.0
H150 H 0.57491 0.36882 0.71309 0.0
H151 H 0.61004 0.39637 0.71863 0.0
H152 H 0.58398 0.13099 0.75134 0.0
C153 C 0.5706 0.13095 0.74595 0.0
C154 C 0.55122 0.11953 0.75383 0.0
C155 C 0.57281 0.14261 0.73131 0.0
H156 H 0.51938 0.11214 0.75349 0.0
C157 C 0.53408 0.12005 0.74698 0.0
C158 C 0.5358 0.13132 0.73229 0.0
C159 C 0.55519 0.14236 0.72446 0.0
C160 C 0.59351 0.15587 0.7235 0.0
H161 H 0.55653 0.15075 0.71291 0.0
C162 C 0.60835 0.1496 0.72178 0.0
C163 C 0.62734 0.16222 0.7136 0.0
C164 C 0.59844 0.17519 0.7175 0.0
H165 H 0.58778 0.1808 0.71905 0.0
C166 C 0.61723 0.18766 0.70955 0.0
H167 H 0.60497 0.13482 0.72627 0.0
C168 C 0.63152 0.18119 0.70748 0.0
H169 H 0.64604 0.19116 0.70126 0.0
H170 H 0.62074 0.20243 0.70497 0.0
H171 H 0.78729 0.53914 0.9375 0.0
C172 C 0.77494 0.54056 0.94332 0.0
C173 C 0.7681 0.55281 0.93547 0.0
C174 C 0.76562 0.52985 0.95839 0.0
H175 H 0.74557 0.56256 0.93619 0.0
C176 C 0.75152 0.55399 0.9427 0.0
C177 C 0.74188 0.5434 0.9577 0.0
C178 C 0.74943 0.53184 0.96563 0.0
C179 C 0.7716 0.51551 0.9661 0.0
H180 H 0.74253 0.52424 0.97751 0.0
C181 C 0.79227 0.51952 0.96631 0.0
C182 C 0.79728 0.50554 0.9737 0.0
C183 C 0.75614 0.49724 0.97319 0.0
H184 H 0.74006 0.4932 0.97277 0.0
C185 C 0.76105 0.48371 0.9808 0.0
H186 H 0.80435 0.53335 0.96073 0.0
C187 C 0.78138 0.48784 0.9812 0.0
H188 H 0.78461 0.47709 0.98751 0.0
H189 H 0.74899 0.46987 0.9864 0.0
H190 H 0.48291 0.25654 0.9277 0.0
C191 C 0.48233 0.2433 0.93338 0.0
C192 C 0.46703 0.2238 0.92811 0.0
C193 C 0.49736 0.24585 0.94549 0.0
H194 H 0.45515 0.19167 0.93142 0.0
C195 C 0.4665 0.20679 0.93563 0.0
C196 C 0.4814 0.20913 0.94776 0.0
C197 C 0.49682 0.22867 0.95256 0.0
C198 C 0.51429 0.2664 0.9501 0.0
H199 H 0.50837 0.23048 0.9619 0.0
C200 C 0.51014 0.28199 0.95439 0.0
C201 C 0.52632 0.30142 0.95892 0.0
C202 C 0.53481 0.2705 0.95017 0.0
H203 H 0.53844 0.25885 0.94672 0.0
C204 C 0.5509 0.28976 0.95441 0.0
H205 H 0.49431 0.2788 0.95468 0.0
C206 C 0.54674 0.30513 0.95875 0.0
H207 H 0.55957 0.31999 0.96182 0.0
H208 H 0.56667 0.29282 0.95429 0.0
H209 H 0.75684 0.21776 0.93504 0.0
C210 C 0.77054 0.23026 0.94074 0.0
C211 C 0.79 0.23602 0.9338 0.0
C212 C 0.7687 0.24093 0.9547 0.0
H213 H 0.82263 0.25671 0.93556 0.0
C214 C 0.80771 0.25244 0.94099 0.0
C215 C 0.80622 0.26384 0.95453 0.0
C216 C 0.78661 0.25773 0.9614 0.0
C217 C 0.74812 0.23522 0.96196 0.0
H218 H 0.78513 0.26632 0.9718 0.0
C219 C 0.73329 0.21478 0.9651 0.0
C220 C 0.71451 0.20982 0.97312 0.0
C221 C 0.74347 0.25043 0.96634 0.0
H222 H 0.7543 0.26622 0.96374 0.0
C223 C 0.72478 0.24549 0.97409 0.0
H224 H 0.7366 0.20284 0.96191 0.0
C225 C 0.71046 0.22534 0.97762 0.0
H226 H 0.69605 0.22183 0.98371 0.0
H227 H 0.72143 0.25734 0.97745 0.0
H228 H 0.53857 0.78406 0.09596 0.0
C229 C 0.53998 0.77227 0.08936 0.0
C230 C 0.55596 0.76854 0.09382 0.0
C231 C 0.52527 0.76026 0.07697 0.0
H232 H 0.5699 0.75027 0.08892 0.0
C233 C 0.55751 0.75304 0.08541 0.0
C234 C 0.5426 0.74046 0.0733 0.0
C235 C 0.52658 0.74433 0.06911 0.0
C236 C 0.5077 0.76346 0.07305 0.0
H237 H 0.51472 0.73461 0.06006 0.0
C238 C 0.51104 0.78292 0.06924 0.0
C239 C 0.49432 0.78584 0.06528 0.0
C240 C 0.48745 0.74695 0.07311 0.0
H241 H 0.48446 0.73187 0.07619 0.0
C242 C 0.47082 0.74979 0.06946 0.0
H243 H 0.52668 0.79562 0.06887 0.0
C244 C 0.47417 0.76906 0.06557 0.0
H245 H 0.46095 0.77084 0.06292 0.0
H246 H 0.45525 0.73701 0.06966 0.0
H247 H 0.23196 0.7626 0.08923 0.0
C248 C 0.24455 0.77596 0.08346 0.0
C249 C 0.2509 0.79524 0.09048 0.0
C250 C 0.25487 0.77374 0.06939 0.0
H251 H 0.27303 0.82716 0.08876 0.0
C252 C 0.26752 0.81238 0.08298 0.0
C253 C 0.27787 0.81047 0.06874 0.0
C254 C 0.27129 0.79105 0.06199 0.0
C255 C 0.24975 0.7533 0.06322 0.0
H256 H 0.27903 0.78931 0.05096 0.0
C257 C 0.22924 0.73825 0.05959 0.0
C258 C 0.22477 0.71899 0.05356 0.0
C259 C 0.26568 0.7488 0.06107 0.0
H260 H 0.28155 0.76001 0.06399 0.0
C261 C 0.26131 0.72969 0.05544 0.0
H262 H 0.21693 0.74175 0.06096 0.0
C263 C 0.24105 0.71489 0.05172 0.0
H264 H 0.23813 0.70012 0.04751 0.0
H265 H 0.27368 0.72632 0.05398 0.0
H266 H 0.25356 0.47116 0.08608 0.0
C267 C 0.23994 0.47077 0.08084 0.0
C268 C 0.2218 0.46244 0.09065 0.0
C269 C 0.2408 0.47964 0.06481 0.0
H270 H 0.19038 0.45607 0.09179 0.0
C271 C 0.20439 0.46273 0.08427 0.0
C272 C 0.20472 0.47129 0.06834 0.0
C273 C 0.22284 0.4793 0.05856 0.0
C274 C 0.26062 0.49057 0.05505 0.0
H275 H 0.22309 0.48582 0.04622 0.0
C276 C 0.27526 0.4839 0.05475 0.0
C277 C 0.29347 0.49436 0.04498 0.0
C278 C 0.26509 0.50825 0.04595 0.0
H279 H 0.25484 0.51443 0.04638 0.0
C280 C 0.28302 0.51848 0.03631 0.0
H281 H 0.27237 0.47046 0.06169 0.0
C282 C 0.29703 0.51154 0.03571 0.0
H283 H 0.31095 0.51986 0.02823 0.0
H284 H 0.28613 0.53197 0.02935 0.0
H285 H 0.45339 0.87093 0.26922 0.0
C286 C 0.44152 0.87267 0.27559 0.0
C287 C 0.43321 0.88354 0.26747 0.0
C288 C 0.43362 0.86297 0.29135 0.0
H289 H 0.41023 0.89272 0.26902 0.0
C290 C 0.41693 0.88472 0.27535 0.0
C291 C 0.40879 0.87521 0.29105 0.0
C292 C 0.41763 0.86487 0.29911 0.0
C293 C 0.44045 0.8493 0.29909 0.0
H294 H 0.41178 0.85801 0.31145 0.0
C295 C 0.4612 0.85358 0.29849 0.0
C296 C 0.46688 0.84006 0.3058 0.0
C297 C 0.42563 0.83125 0.30697 0.0
H298 H 0.40948 0.82697 0.30719 0.0
C299 C 0.43126 0.8182 0.31451 0.0
H300 H 0.47281 0.86723 0.2923 0.0
C301 C 0.45165 0.82258 0.31405 0.0
H302 H 0.45549 0.81218 0.32024 0.0
H303 H 0.41969 0.80453 0.32068 0.0
H304 H 0.14771 0.5877 0.25929 0.0
C305 C 0.14632 0.57463 0.26597 0.0
C306 C 0.13142 0.55506 0.26066 0.0
C307 C 0.1604 0.57742 0.27907 0.0
H308 H 0.11824 0.52316 0.26532 0.0
C309 C 0.13019 0.53822 0.26907 0.0
C310 C 0.14427 0.54063 0.28208 0.0
C311 C 0.15932 0.56037 0.28699 0.0
C312 C 0.17715 0.59809 0.28369 0.0
H313 H 0.17058 0.56257 0.29674 0.0
C314 C 0.17292 0.61396 0.28638 0.0
C315 C 0.18895 0.63361 0.29049 0.0
C316 C 0.19758 0.60209 0.28518 0.0
H317 H 0.20131 0.59024 0.28297 0.0
C318 C 0.2135 0.62153 0.28923 0.0
H319 H 0.15721 0.61102 0.28525 0.0
C320 C 0.20927 0.6372 0.29186 0.0
H321 H 0.22187 0.65209 0.29523 0.0
H322 H 0.22919 0.62445 0.29034 0.0
H323 H 0.42386 0.55325 0.26808 0.0
C324 C 0.43767 0.56536 0.274 0.0
C325 C 0.45708 0.57063 0.26721 0.0
C326 C 0.43605 0.57608 0.28802 0.0
H327 H 0.48983 0.59063 0.26919 0.0
C328 C 0.47496 0.58669 0.27456 0.0
C329 C 0.47374 0.5982 0.28812 0.0
C330 C 0.45418 0.59247 0.29493 0.0
C331 C 0.41547 0.5711 0.29494 0.0
H332 H 0.45293 0.60113 0.30539 0.0
C333 C 0.39954 0.55083 0.29714 0.0
C334 C 0.38038 0.54641 0.30427 0.0
C335 C 0.41179 0.58687 0.29961 0.0
H336 H 0.42341 0.60257 0.29768 0.0
C337 C 0.39306 0.58264 0.30678 0.0
H338 H 0.40211 0.53858 0.29337 0.0
C339 C 0.37757 0.56266 0.30926 0.0
H340 H 0.36343 0.56002 0.31528 0.0
H341 H 0.39055 0.59493 0.31052 0.0
Gd342 Gd 0.50656 0.01422 0.03385 0.0
Gd343 Gd 0.49025 0.99458 0.98947 0.0
C344 C 0.42678 0.93951 0.97918 0.0
C345 C 0.43559 0.91415 0.97033 0.0
C346 C 0.46263 0.9483 0.97757 0.0
C347 C 0.44795 0.9537 0.98123 0.0
C348 C 0.45666 0.92863 0.97164 0.0
C349 C 0.42067 0.91957 0.97413 0.0
C350 C 0.41244 0.94595 0.98178 0.0
C351 C 0.41941 0.96626 0.98569 0.0
N352 N 0.45443 0.97315 0.98588 0.0
C353 C 0.44059 0.97979 0.98748 0.0
H354 H 0.44571 0.99539 0.9906 0.0
C355 C 0.49787 0.95898 0.97313 0.0
N356 N 0.48282 0.96273 0.97881 0.0
C357 C 0.49274 0.93966 0.96723 0.0
C358 C 0.47206 0.92433 0.9667 0.0
H359 H 0.51387 0.97077 0.97363 0.0
H360 H 0.40447 0.9084 0.97266 0.0
H361 H 0.55117 0.01364 0.03262 0.0
H362 H 0.39604 0.93551 0.98041 0.0
H363 H 0.40848 0.97149 0.98741 0.0
H364 H 0.43068 0.89888 0.96598 0.0
H365 H 0.48279 0.03732 0.05076 0.0
H366 H 0.60069 0.07349 0.04329 0.0
H367 H 0.58838 0.03759 0.03604 0.0
H368 H 0.56572 0.10955 0.05858 0.0
H369 H 0.50472 0.93659 0.96313 0.0
H370 H 0.46811 0.9094 0.96207 0.0
H371 H 0.59208 0.10041 0.05136 0.0
H372 H 0.49173 0.07113 0.06204 0.0
N373 N 0.54236 0.03579 0.03747 0.0
C374 C 0.5843 0.06303 0.04183 0.0
C375 C 0.5774 0.04276 0.03779 0.0
C376 C 0.56989 0.06936 0.04454 0.0
C377 C 0.54875 0.05514 0.04238 0.0
C378 C 0.55625 0.02921 0.03587 0.0
N379 N 0.51386 0.04576 0.04517 0.0
C380 C 0.534 0.0603 0.04638 0.0
C381 C 0.50376 0.06832 0.05759 0.0
C382 C 0.52439 0.0838 0.05807 0.0
C383 C 0.49876 0.0492 0.05125 0.0
C384 C 0.53985 0.0798 0.05269 0.0
H385 H 0.52823 0.09858 0.06302 0.0
O386 O 0.4902 0.00484 0.05802 0.0
O387 O 0.48198 0.99185 0.01689 0.0
O388 O 0.48203 0.01874 0.99646 0.0
O389 O 0.50374 0.03803 0.01896 0.0
O390 O 0.47232 0.00288 0.03662 0.0
O391 O 0.51607 1.00023 0.0533 0.0
O392 O 0.50715 0.00402 0.96557 0.0
O393 O 0.51472 0.01714 0.00639 0.0
O394 O 0.51475 0.98992 0.02676 0.0
O395 O 0.49225 0.97073 0.00468 0.0
O396 O 0.52454 0.00596 0.98686 0.0
O397 O 0.48039 0.00745 0.96927 0.0
C398 C 0.46616 0.99035 0.02393 0.0
C399 C 0.56089 0.09439 0.05396 0.0
C400 C 0.5759 0.08919 0.04986 0.0
C401 C 0.50254 0.99906 0.0644 0.0
C402 C 0.51029 0.00624 0.08184 0.0
C403 C 0.52604 0.02625 0.08467 0.0
C404 C 0.50173 0.99307 0.09582 0.0
C405 C 0.50872 0.99996 0.11261 0.0
C406 C 0.53309 0.03314 0.10122 0.0
C407 C 0.5245 0.02015 0.11512 0.0
C408 C 0.49138 0.03555 0.00586 0.0
C409 C 0.53058 0.01864 0.99944 0.0
C410 C 0.49442 0.00891 0.95857 0.0
C411 C 0.48727 1.00095 0.94119 0.0
C412 C 0.47236 0.98055 0.93871 0.0
C413 C 0.49571 0.01365 0.92691 0.0
C414 C 0.4894 0.00595 0.91017 0.0
C415 C 0.46618 0.97275 0.92226 0.0
C416 C 0.47467 0.98526 0.90809 0.0
C417 C 0.50466 0.97295 0.01763 0.0
H418 H 0.53289 0.03655 0.07412 0.0
H419 H 0.48945 0.97763 0.09365 0.0
H420 H 0.54528 0.04862 0.1033 0.0
H421 H 0.53037 0.02584 0.12782 0.0
H422 H 0.46557 0.97061 0.94946 0.0
H423 H 0.50698 0.0295 0.92891 0.0
H424 H 0.45482 0.95691 0.92047 0.0
H425 H 0.46982 0.97859 0.89549 0.0
Gd426 Gd 0.99632 0.49674 0.0318 0.0
Gd427 Gd 0.01823 0.49718 0.98918 0.0
C428 C 0.07532 0.49071 0.98241 0.0
C429 C 0.10047 0.52392 0.97172 0.0
C430 C 0.06547 0.51619 0.97802 0.0
C431 C 0.06051 0.497 0.98326 0.0
C432 C 0.08536 0.52974 0.97182 0.0
C433 C 0.09546 0.50444 0.97702 0.0
C434 C 0.06927 0.47065 0.98651 0.0
C435 C 0.04873 0.45725 0.9907 0.0
N436 N 0.04087 0.4841 0.98827 0.0
C437 C 0.03459 0.46419 0.99128 0.0
H438 H 0.0188 0.45364 0.99459 0.0
C439 C 0.05386 0.53908 0.97121 0.0
N440 N 0.05048 0.52125 0.97819 0.0
C441 C 0.07336 0.55306 0.96495 0.0
C442 C 0.08927 0.54849 0.96546 0.0
H443 H 0.04163 0.54271 0.97091 0.0
H444 H 0.10711 0.49996 0.97648 0.0
H445 H 0.99517 0.53992 0.02657 0.0
H446 H 0.08019 0.46524 0.98608 0.0
H447 H 0.04378 0.44159 0.99355 0.0
H448 H 0.11591 0.53419 0.96716 0.0
H449 H 0.97365 0.45171 0.051 0.0
H450 H 0.93338 0.5275 0.03454 0.0
H451 H 0.96984 0.55158 0.02753 0.0
H452 H 0.89833 0.45855 0.05344 0.0
H453 H 0.07612 0.56736 0.95978 0.0
H454 H 0.10435 0.55932 0.96057 0.0
H455 H 0.90665 0.49255 0.04386 0.0
H456 H 0.93932 0.42685 0.06223 0.0
N457 N 0.97326 0.50933 0.03257 0.0
C458 C 0.94446 0.52228 0.03417 0.0
C459 C 0.96503 0.53592 0.03025 0.0
C460 C 0.93859 0.50223 0.03814 0.0
C461 C 0.9536 0.4962 0.03739 0.0
C462 C 0.97936 0.52922 0.02971 0.0
N463 N 0.96422 0.47252 0.04299 0.0
C464 C 0.94894 0.47716 0.0428 0.0
C465 C 0.94178 0.4409 0.05672 0.0
C466 C 0.92557 0.44501 0.05581 0.0
C467 C 0.9612 0.45501 0.0504 0.0
C468 C 0.92911 0.46347 0.04905 0.0
H469 H 0.91055 0.43409 0.06075 0.0
O470 O 0.00494 0.49272 0.05745 0.0
O471 O 0.02056 0.49465 0.01722 0.0
O472 O 0.99424 0.46533 0.99752 0.0
O473 O 0.97303 0.46872 0.01757 0.0
O474 O 0.00882 0.47576 0.03792 0.0
O475 O 0.00943 0.52195 0.04967 0.0
O476 O 0.01053 0.5019 0.96339 0.0
O477 O 0.99408 0.49926 0.00378 0.0
O478 O 0.02036 0.52866 0.02334 0.0
O479 O 0.04157 0.52468 0.00373 0.0
O480 O 0.00553 0.51808 0.98307 0.0
O481 O 0.00465 0.47215 0.9712 0.0
C482 C 0.02218 0.48156 0.02581 0.0
C483 C 0.91373 0.46894 0.04889 0.0
C484 C 0.91847 0.48829 0.04343 0.0
C485 C 0.01019 0.51109 0.06221 0.0
C486 C 1.00207 0.51315 0.07873 0.0
C487 C 0.98242 0.51113 0.07993 0.0
C488 C 0.01424 0.51733 0.0935 0.0
C489 C 0.00695 0.51961 0.10947 0.0
C490 C 0.97505 0.51331 0.0957 0.0
C491 C 0.98721 0.51755 0.1104 0.0
C492 C 0.97657 0.45811 0.00596 0.0
C493 C 0.99223 0.51224 0.99523 0.0
C494 C 0.00482 0.48342 0.95859 0.0
C495 C 0.01316 0.48114 0.94226 0.0
C496 C 0.03071 0.47894 0.94174 0.0
C497 C 1.00307 0.48062 0.92696 0.0
C498 C 0.01012 0.47744 0.91124 0.0
C499 C 0.03792 0.47604 0.92615 0.0
C500 C 0.02761 0.47513 0.91096 0.0
C501 C 0.03812 0.53557 0.01508 0.0
H502 H 0.97284 0.50797 0.06871 0.0
H503 H 0.02952 0.51912 0.09249 0.0
H504 H 0.95985 0.51169 0.09654 0.0
H505 H 0.98106 0.51897 0.12252 0.0
H506 H 0.03869 0.47921 0.95335 0.0
H507 H 0.98939 0.48211 0.92733 0.0
H508 H 0.05141 0.47428 0.92585 0.0
H509 H 0.03332 0.47268 0.89899 0.0
Gd510 Gd 0.50656 0.51361 0.9903 0.0
Gd511 Gd 0.52613 0.51314 0.03388 0.0
C512 C 0.59079 0.52289 0.04343 0.0
C513 C 0.58333 0.48981 0.05361 0.0
C514 C 0.55534 0.49601 0.04632 0.0
C515 C 0.56943 0.51563 0.04176 0.0
C516 C 0.56209 0.48297 0.05264 0.0
C517 C 0.59766 0.50973 0.04899 0.0
C518 C 0.60456 0.54328 0.03989 0.0
C519 C 0.59689 0.55601 0.03544 0.0
N520 N 0.56223 0.52794 0.03652 0.0
C521 C 0.57557 0.54812 0.03403 0.0
H522 H 0.56997 0.55818 0.03051 0.0
C523 C 0.52049 0.47147 0.05139 0.0
N524 N 0.53497 0.48995 0.04527 0.0
C525 C 0.5264 0.45795 0.05773 0.0
C526 C 0.54728 0.46364 0.05817 0.0
H527 H 0.50432 0.46696 0.05094 0.0
H528 H 0.61401 0.51496 0.05015 0.0
H529 H 0.46284 0.46883 0.99386 0.0
H530 H 0.62108 0.54943 0.04095 0.0
H531 H 0.6074 0.5719 0.03301 0.0
H532 H 0.58883 0.47996 0.05827 0.0
H533 H 0.52813 0.55912 0.97198 0.0
H534 H 0.41162 0.47794 0.98485 0.0
H535 H 0.42529 0.45523 0.99196 0.0
H536 H 0.44388 0.54736 0.96733 0.0
H537 H 0.51486 0.44316 0.06223 0.0
H538 H 0.55183 0.45316 0.06311 0.0
H539 H 0.41872 0.51254 0.97595 0.0
H540 H 0.51757 0.58293 0.96074 0.0
N541 N 0.47048 0.49912 0.98832 0.0
C542 C 0.42814 0.48402 0.98565 0.0
C543 C 0.43581 0.47114 0.98962 0.0
C544 C 0.44193 0.50442 0.98217 0.0
C545 C 0.46329 0.51156 0.98349 0.0
C546 C 0.45715 0.47893 0.99068 0.0
N547 N 0.49769 0.53685 0.97902 0.0
C548 C 0.47737 0.53108 0.97866 0.0
C549 C 0.50611 0.56844 0.96582 0.0
C550 C 0.48533 0.56314 0.96617 0.0
C551 C 0.51204 0.55492 0.97214 0.0
C552 C 0.47061 0.54412 0.97237 0.0
H553 H 0.48076 0.5736 0.96122 0.0
O554 O 0.52066 0.51929 0.96516 0.0
O555 O 0.53265 0.51682 0.0061 0.0
O556 O 0.53369 0.54472 0.02563 0.0
O557 O 0.50962 0.54072 0.00466 0.0
O558 O 0.54044 0.53604 0.98561 0.0
O559 O 0.49624 0.48916 0.97177 0.0
O560 O 0.51188 0.50695 0.05901 0.0
O561 O 0.50006 0.51001 0.01808 0.0
O562 O 0.49984 0.482 0.99826 0.0
O563 O 0.52438 0.48704 0.01911 0.0
O564 O 0.49225 0.49034 0.0382 0.0
O565 O 0.53518 0.53754 0.05221 0.0
C566 C 0.54775 0.53056 0.99813 0.0
C567 C 0.44939 0.53749 0.97193 0.0
C568 C 0.43506 0.51767 0.97684 0.0
C569 C 0.50835 0.50086 0.95976 0.0
C570 C 0.49879 0.49885 0.94287 0.0
C571 C 0.48169 0.50158 0.94095 0.0
C572 C 0.50677 0.49404 0.92851 0.0
C573 C 0.49768 0.49185 0.91224 0.0
C574 C 0.47266 0.49953 0.9249 0.0
C575 C 0.48055 0.4947 0.91062 0.0
C576 C 0.52321 0.55147 0.01675 0.0
C577 C 0.48494 0.49608 0.02587 0.0
C578 C 0.52341 0.52558 0.06427 0.0
C579 C 0.53297 0.52837 0.08126 0.0
C580 C 0.55277 0.53085 0.08314 0.0
C581 C 0.52238 0.5292 0.09578 0.0
C582 C 0.53172 0.53303 0.11203 0.0
C583 C 0.56201 0.53444 0.09927 0.0
C584 C 0.55164 0.53569 0.11365 0.0
C585 C 0.51108 0.47597 0.00698 0.0
H586 H 0.47528 0.50521 0.95182 0.0
H587 H 0.51985 0.49171 0.93006 0.0
H588 H 0.4595 0.50173 0.92351 0.0
H589 H 0.4734 0.49344 0.89827 0.0
H590 H 0.56119 0.53027 0.07215 0.0
H591 H 0.50712 0.52742 0.09436 0.0
H592 H 0.57733 0.53643 0.10063 0.0
H593 H 0.55912 0.53861 0.12604 0.0
Gd594 Gd 0.17571 0.34821 0.36787 0.0
Gd595 Gd 0.15911 0.32948 0.32334 0.0
C596 C 0.09543 0.2752 0.31201 0.0
C597 C 0.10391 0.24973 0.3028 0.0
C598 C 0.13116 0.28358 0.3106 0.0
C599 C 0.11662 0.28914 0.31434 0.0
C600 C 0.12503 0.26398 0.30437 0.0
C601 C 0.08913 0.25532 0.30665 0.0
C602 C 0.08126 0.28184 0.31468 0.0
C603 C 0.08842 0.3021 0.3189 0.0
N604 N 0.12328 0.30852 0.31932 0.0
C605 C 0.10962 0.31538 0.32096 0.0
H606 H 0.11488 0.33095 0.32433 0.0
C607 C 0.16637 0.29386 0.30654 0.0
N608 N 0.1514 0.29777 0.31215 0.0
C609 C 0.16107 0.27461 0.30034 0.0
C610 C 0.14031 0.25951 0.29946 0.0
H611 H 0.18243 0.30547 0.30733 0.0
H612 H 0.0729 0.24434 0.30499 0.0
H613 H 0.21981 0.34671 0.3658 0.0
H614 H 0.06484 0.27159 0.3131 0.0
H615 H 0.07763 0.3075 0.32066 0.0
H616 H 0.09887 0.23452 0.29822 0.0
H617 H 0.15309 0.37178 0.38596 0.0
H618 H 0.27029 0.40612 0.37619 0.0
H619 H 0.2572 0.37012 0.36875 0.0
H620 H 0.23677 0.44314 0.39283 0.0
H621 H 0.17298 0.27141 0.29628 0.0
H622 H 0.13624 0.24463 0.29461 0.0
H623 H 0.26251 0.43345 0.38482 0.0
H624 H 0.16287 0.40566 0.39765 0.0
N625 N 0.21166 0.36923 0.37114 0.0
C626 C 0.25382 0.39588 0.37495 0.0
C627 C 0.24649 0.37556 0.3708 0.0
C628 C 0.23977 0.40256 0.37805 0.0
C629 C 0.21851 0.38863 0.37617 0.0
C630 C 0.22523 0.36231 0.36915 0.0
N631 N 0.18387 0.37981 0.37966 0.0
C632 C 0.20411 0.3941 0.38059 0.0
C633 C 0.17462 0.40265 0.39281 0.0
C634 C 0.19534 0.4179 0.39298 0.0
C635 C 0.16914 0.38349 0.38624 0.0
C636 C 0.21044 0.41363 0.38709 0.0
H637 H 0.19956 0.43271 0.3981 0.0
O638 O 0.15987 0.33906 0.39229 0.0
O639 O 0.15083 0.32638 0.35079 0.0
O640 O 0.15109 0.35365 0.33084 0.0
O641 O 0.17274 0.37232 0.35361 0.0
O642 O 0.14163 0.33738 0.3709 0.0
O643 O 0.18475 0.33321 0.38673 0.0
O644 O 0.17593 0.33887 0.2994 0.0
O645 O 0.18373 0.35162 0.34038 0.0
O646 O 0.18329 0.32368 0.36014 0.0
O647 O 0.16019 0.30494 0.33828 0.0
O648 O 0.19337 0.34059 0.32067 0.0
O649 O 0.14996 0.34349 0.30361 0.0
C650 C 0.13522 0.32517 0.358 0.0
C651 C 0.23159 0.42796 0.38808 0.0
C652 C 0.24624 0.42244 0.38353 0.0
C653 C 0.17179 0.33252 0.39819 0.0
C654 C 0.18023 0.33938 0.41552 0.0
C655 C 0.19624 0.35929 0.41831 0.0
C656 C 0.17241 0.32591 0.42938 0.0
C657 C 0.18065 0.33228 0.44598 0.0
C658 C 0.20435 0.36575 0.43468 0.0
C659 C 0.19666 0.35239 0.44843 0.0
C660 C 0.16037 0.37016 0.3406 0.0
C661 C 0.19955 0.35317 0.33332 0.0
C662 C 0.16375 0.34469 0.29276 0.0
C663 C 0.15647 0.33761 0.27522 0.0
C664 C 0.14111 0.3175 0.27214 0.0
C665 C 0.16508 0.35099 0.26138 0.0
C666 C 0.15832 0.34433 0.24449 0.0
C667 C 0.13446 0.31074 0.2555 0.0
C668 C 0.14298 0.32399 0.24176 0.0
C669 C 0.17274 0.30679 0.35099 0.0
H670 H 0.2025 0.36982 0.40785 0.0
H671 H 0.16019 0.31045 0.42717 0.0
H672 H 0.21666 0.38118 0.43673 0.0
H673 H 0.2031 0.3579 0.46104 0.0
H674 H 0.13426 0.30702 0.28258 0.0
H675 H 0.17678 0.3666 0.26381 0.0
H676 H 0.12266 0.29514 0.25323 0.0
H677 H 0.13767 0.31824 0.22896 0.0
Gd678 Gd 0.6645 0.83061 0.36566 0.0
Gd679 Gd 0.6869 0.83178 0.32312 0.0
C680 C 0.74323 0.82399 0.31645 0.0
C681 C 0.76923 0.85741 0.30681 0.0
C682 C 0.7343 0.85022 0.31265 0.0
C683 C 0.72876 0.83071 0.31738 0.0
C684 C 0.75446 0.86368 0.30694 0.0
C685 C 0.76362 0.8376 0.31157 0.0
C686 C 0.7366 0.80366 0.31996 0.0
C687 C 0.71585 0.79045 0.32363 0.0
N688 N 0.70889 0.81794 0.32192 0.0
C689 C 0.70208 0.79783 0.32435 0.0
H690 H 0.68614 0.78741 0.32729 0.0
C691 C 0.72365 0.87396 0.30635 0.0
N692 N 0.71963 0.85571 0.31284 0.0
C693 C 0.74344 0.88788 0.3006 0.0
C694 C 0.759 0.88282 0.3011 0.0
H695 H 0.71169 0.87798 0.30607 0.0
H696 H 0.77501 0.83279 0.311 0.0
H697 H 0.66472 0.8745 0.36085 0.0
H698 H 0.74724 0.79792 0.31945 0.0
H699 H 0.71047 0.7746 0.32602 0.0
H700 H 0.78487 0.8676 0.30264 0.0
H701 H 0.64048 0.7854 0.38448 0.0
H702 H 0.60304 0.86319 0.36706 0.0
H703 H 0.63993 0.88688 0.36119 0.0
H704 H 0.56606 0.79387 0.38494 0.0
H705 H 0.7467 0.9025 0.29584 0.0
H706 H 0.77431 0.8936 0.29661 0.0
H707 H 0.57542 0.82824 0.37558 0.0
H708 H 0.60558 0.76087 0.39494 0.0
N709 N 0.64206 0.84392 0.36603 0.0
C710 C 0.61386 0.85765 0.36693 0.0
C711 C 0.63468 0.87108 0.36368 0.0
C712 C 0.60741 0.8374 0.37065 0.0
C713 C 0.62212 0.83097 0.37024 0.0
C714 C 0.6487 0.86398 0.3635 0.0
N715 N 0.63186 0.80668 0.37611 0.0
C716 C 0.61685 0.8117 0.37551 0.0
C717 C 0.60851 0.77507 0.38942 0.0
C718 C 0.59259 0.77956 0.38805 0.0
C719 C 0.62824 0.78899 0.38354 0.0
C720 C 0.59674 0.79822 0.38129 0.0
H721 H 0.57734 0.76879 0.39265 0.0
O722 O 0.67204 0.82549 0.39135 0.0
O723 O 0.68854 0.82829 0.35107 0.0
O724 O 0.66232 0.79982 0.33067 0.0
O725 O 0.64122 0.80293 0.35102 0.0
O726 O 0.67644 0.80908 0.37153 0.0
O727 O 0.67732 0.85517 0.38417 0.0
O728 O 0.67993 0.83776 0.2975 0.0
O729 O 0.66274 0.83395 0.33768 0.0
O730 O 0.68965 0.86261 0.35821 0.0
O731 O 0.71049 0.85836 0.33838 0.0
O732 O 0.67527 0.85366 0.31766 0.0
O733 O 0.67314 0.80748 0.30446 0.0
C734 C 0.68984 0.81488 0.35944 0.0
C735 C 0.58168 0.8041 0.38075 0.0
C736 C 0.58701 0.82366 0.37541 0.0
C737 C 0.67735 0.84373 0.39654 0.0
C738 C 0.66851 0.84527 0.41287 0.0
C739 C 0.64879 0.84315 0.41352 0.0
C740 C 0.68003 0.84907 0.428 0.0
C741 C 0.672 0.85091 0.44375 0.0
C742 C 0.64067 0.84482 0.42907 0.0
C743 C 0.65218 0.84872 0.44411 0.0
C744 C 0.64467 0.79253 0.33914 0.0
C745 C 0.66156 0.84753 0.3295 0.0
C746 C 0.6738 0.81937 0.2922 0.0
C747 C 0.68215 0.81742 0.27576 0.0
C748 C 0.70001 0.81577 0.27505 0.0
C749 C 0.67176 0.81665 0.26056 0.0
C750 C 0.67884 0.81375 0.24475 0.0
C751 C 0.70724 0.81313 0.25936 0.0
C752 C 0.69665 0.81197 0.24428 0.0
C753 C 0.70745 0.86921 0.35006 0.0
H754 H 0.63973 0.84032 0.40203 0.0
H755 H 0.69537 0.85093 0.42745 0.0
H756 H 0.62542 0.84313 0.42947 0.0
H757 H 0.64549 0.84981 0.45606 0.0
H758 H 0.70822 0.81626 0.28658 0.0
H759 H 0.65785 0.81772 0.26109 0.0
H760 H 0.72097 0.8118 0.25891 0.0
H761 H 0.70237 0.80974 0.23223 0.0
Gd762 Gd 0.17418 0.84715 0.32381 0.0
Gd763 Gd 0.19303 0.84659 0.36764 0.0
C764 C 0.25681 0.85457 0.37811 0.0
C765 C 0.24826 0.82139 0.38887 0.0
C766 C 0.22103 0.82843 0.38087 0.0
C767 C 0.23559 0.84785 0.37617 0.0
C768 C 0.22716 0.81508 0.38759 0.0
C769 C 0.26307 0.8411 0.38412 0.0
C770 C 0.27108 0.87477 0.37436 0.0
C771 C 0.26403 0.88785 0.36943 0.0
N772 N 0.22899 0.86048 0.37052 0.0
C773 C 0.24282 0.88049 0.36779 0.0
H774 H 0.23769 0.89083 0.36391 0.0
C775 C 0.18588 0.80466 0.38575 0.0
N776 N 0.20081 0.82288 0.37954 0.0
C777 C 0.19117 0.79085 0.39247 0.0
C778 C 0.2119 0.79599 0.39321 0.0
H779 H 0.16984 0.80059 0.38509 0.0
H780 H 0.2793 0.84593 0.38553 0.0
H781 H 0.12953 0.80335 0.32827 0.0
H782 H 0.28752 0.88051 0.37561 0.0
H783 H 0.27492 0.9036 0.36681 0.0
H784 H 0.25329 0.8113 0.39386 0.0
H785 H 0.19723 0.89235 0.30493 0.0
H786 H 0.07972 0.81418 0.31774 0.0
H787 H 0.09222 0.79087 0.32616 0.0
H788 H 0.1141 0.88303 0.29851 0.0
H789 H 0.17928 0.77626 0.39703 0.0
H790 H 0.21597 0.78529 0.39845 0.0
H791 H 0.08805 0.84876 0.30767 0.0
H792 H 0.18784 0.91664 0.29279 0.0
N793 N 0.13824 0.83367 0.32165 0.0
C794 C 0.09616 0.81977 0.31867 0.0
C795 C 0.10315 0.80656 0.32338 0.0
C796 C 0.11047 0.83988 0.31467 0.0
C797 C 0.13169 0.84641 0.3162 0.0
C798 C 0.12437 0.81372 0.32456 0.0
N799 N 0.16644 0.87086 0.31182 0.0
C800 C 0.14628 0.86564 0.31109 0.0
C801 C 0.176 0.90239 0.29798 0.0
C802 C 0.15539 0.89768 0.29793 0.0
C803 C 0.18126 0.88861 0.30481 0.0
C804 C 0.14017 0.87897 0.30429 0.0
H805 H 0.15133 0.90834 0.29259 0.0
O806 O 0.18853 0.85197 0.29881 0.0
O807 O 0.19976 0.84963 0.3399 0.0
O808 O 0.20162 0.87835 0.35901 0.0
O809 O 0.17822 0.87494 0.33761 0.0
O810 O 0.20831 0.86865 0.31923 0.0
O811 O 0.16316 0.82239 0.30553 0.0
O812 O 0.17866 0.84108 0.3927 0.0
O813 O 0.16746 0.84425 0.35158 0.0
O814 O 0.16622 0.81536 0.33227 0.0
O815 O 0.19033 0.81978 0.35332 0.0
O816 O 0.15892 0.82475 0.37188 0.0
O817 O 0.20267 0.87131 0.38574 0.0
C818 C 0.21517 0.86295 0.33192 0.0
C819 C 0.1191 0.87294 0.30353 0.0
C820 C 0.10427 0.85342 0.30874 0.0
C821 C 0.17562 0.83367 0.29349 0.0
C822 C 0.16632 0.83196 0.27652 0.0
C823 C 0.14874 0.83391 0.27463 0.0
C824 C 0.17503 0.82823 0.26204 0.0
C825 C 0.16617 0.82633 0.24572 0.0
C826 C 0.13997 0.83221 0.25852 0.0
C827 C 0.14858 0.82843 0.24414 0.0
C828 C 0.19175 0.8855 0.34979 0.0
C829 C 0.15205 0.83079 0.35945 0.0
C830 C 0.19064 0.85968 0.39783 0.0
C831 C 0.20002 0.86239 0.4149 0.0
C832 C 0.21978 0.8648 0.41691 0.0
C833 C 0.18933 0.86323 0.42934 0.0
C834 C 0.19853 0.867 0.44566 0.0
C835 C 0.22887 0.86832 0.43311 0.0
C836 C 0.21841 0.86958 0.4474 0.0
C837 C 0.17692 0.80887 0.34119 0.0
H838 H 0.14174 0.83665 0.28558 0.0
H839 H 0.18848 0.82649 0.26355 0.0
H840 H 0.12645 0.83381 0.25717 0.0
H841 H 0.14158 0.82738 0.23176 0.0
H842 H 0.22829 0.86422 0.40599 0.0
H843 H 0.17411 0.86151 0.42782 0.0
H844 H 0.24415 0.87025 0.43456 0.0
H845 H 0.22578 0.87244 0.45985 0.0
Gd846 Gd 0.83996 0.68028 0.70093 0.0
Gd847 Gd 0.82279 0.66045 0.65672 0.0
C848 C 0.75913 0.60557 0.64665 0.0
C849 C 0.76769 0.57996 0.63805 0.0
C850 C 0.79491 0.61411 0.64508 0.0
C851 C 0.78033 0.61967 0.64867 0.0
C852 C 0.7888 0.59436 0.63928 0.0
C853 C 0.75288 0.58555 0.64176 0.0
C854 C 0.7449 0.61218 0.64912 0.0
C855 C 0.75201 0.63255 0.65285 0.0
N856 N 0.78694 0.63918 0.65319 0.0
C857 C 0.77321 0.64598 0.65464 0.0
H858 H 0.77845 0.66164 0.65764 0.0
C859 C 0.83009 0.62451 0.64066 0.0
N860 N 0.81514 0.62845 0.64626 0.0
C861 C 0.82482 0.60511 0.6349 0.0
C862 C 0.80409 0.58988 0.63442 0.0
H863 H 0.84613 0.63623 0.64114 0.0
H864 H 0.73665 0.57444 0.64035 0.0
H865 H 0.88421 0.67908 0.6989 0.0
H866 H 0.72848 0.60181 0.64776 0.0
H867 H 0.74116 0.63791 0.65446 0.0
H868 H 0.76268 0.56463 0.63382 0.0
H869 H 0.81723 0.70401 0.71857 0.0
H870 H 0.93451 0.73883 0.70847 0.0
H871 H 0.92158 0.70273 0.70155 0.0
H872 H 0.90074 0.77582 0.72445 0.0
H873 H 0.83673 0.6019 0.63087 0.0
H874 H 0.80005 0.57487 0.62991 0.0
H875 H 0.92658 0.76618 0.71665 0.0
H876 H 0.82689 0.73807 0.72971 0.0
N877 N 0.87591 0.70156 0.7039 0.0
C878 C 0.91805 0.72849 0.70736 0.0
C879 C 0.91081 0.70812 0.70351 0.0
C880 C 0.90392 0.7351 0.71034 0.0
C881 C 0.88267 0.72103 0.70864 0.0
C882 C 0.88956 0.69473 0.70202 0.0
N883 N 0.84801 0.71207 0.7122 0.0
C884 C 0.86822 0.72648 0.71293 0.0
C885 C 0.83867 0.73505 0.72494 0.0
C886 C 0.85935 0.75039 0.72491 0.0
C887 C 0.83325 0.71579 0.71868 0.0
C888 C 0.87448 0.74612 0.71913 0.0
H889 H 0.86351 0.76528 0.7298 0.0
O890 O 0.82427 0.6714 0.72542 0.0
O891 O 0.81491 0.65804 0.68423 0.0
O892 O 0.81483 0.68478 0.66379 0.0
O893 O 0.83676 0.70399 0.68623 0.0
O894 O 0.80589 0.66939 0.7042 0.0
O895 O 0.84947 0.66596 0.72008 0.0
O896 O 0.83928 0.66942 0.63262 0.0
O897 O 0.8476 0.68304 0.67337 0.0
O898 O 0.84765 0.65571 0.69357 0.0
O899 O 0.82423 0.63639 0.6721 0.0
O900 O 0.85706 0.67173 0.65374 0.0
O901 O 0.81289 0.67342 0.63662 0.0
C902 C 0.79936 0.65691 0.69148 0.0
C903 C 0.89561 0.76056 0.71993 0.0
C904 C 0.91032 0.75507 0.71551 0.0
C905 C 0.83644 0.66525 0.73149 0.0
C906 C 0.84488 0.67254 0.74875 0.0
C907 C 0.8603 0.69273 0.75135 0.0
C908 C 0.83757 0.65923 0.76275 0.0
C909 C 0.84568 0.66608 0.77932 0.0
C910 C 0.86829 0.69966 0.76768 0.0
C911 C 0.86106 0.68649 0.78157 0.0
C912 C 0.82424 0.70152 0.67326 0.0
C913 C 0.86335 0.68454 0.66623 0.0
C914 C 0.82665 0.67454 0.62577 0.0
C915 C 0.81915 0.66654 0.60845 0.0
C916 C 0.80427 0.64612 0.60606 0.0
C917 C 0.82726 0.67924 0.59414 0.0
C918 C 0.82067 0.67151 0.57744 0.0
C919 C 0.79777 0.6383 0.58966 0.0
C920 C 0.80595 0.65081 0.57545 0.0
C921 C 0.837 0.6386 0.68474 0.0
H922 H 0.86618 0.70314 0.74078 0.0
H923 H 0.82581 0.64355 0.76068 0.0
H924 H 0.88012 0.71532 0.76958 0.0
H925 H 0.86736 0.6924 0.79414 0.0
H926 H 0.79774 0.63618 0.61685 0.0
H927 H 0.83853 0.6951 0.59607 0.0
H928 H 0.78642 0.62245 0.58794 0.0
H929 H 0.80088 0.64412 0.56287 0.0
Gd930 Gd 0.32974 0.16198 0.70042 0.0
Gd931 Gd 0.35113 0.16185 0.65767 0.0
C932 C 0.40698 0.15336 0.65072 0.0
C933 C 0.43291 0.18639 0.64029 0.0
C934 C 0.39823 0.17965 0.64655 0.0
C935 C 0.39266 0.16026 0.65165 0.0
C936 C 0.41827 0.19281 0.64044 0.0
C937 C 0.42727 0.16669 0.64544 0.0
C938 C 0.4003 0.13311 0.65465 0.0
C939 C 0.37962 0.12015 0.65873 0.0
N940 N 0.37288 0.14775 0.65658 0.0
C941 C 0.36599 0.12769 0.65942 0.0
H942 H 0.3501 0.11747 0.66267 0.0
C943 C 0.38767 0.20339 0.63991 0.0
N944 N 0.38368 0.1853 0.64676 0.0
C945 C 0.40735 0.21701 0.63375 0.0
C946 C 0.42281 0.21181 0.63422 0.0
H947 H 0.37579 0.20751 0.63965 0.0
H948 H 0.43856 0.16174 0.64486 0.0
H949 H 0.33018 0.20592 0.69513 0.0
H950 H 0.41083 0.12724 0.65415 0.0
H951 H 0.37418 0.10435 0.66144 0.0
H952 H 0.44847 0.19635 0.63581 0.0
H953 H 0.30595 0.11707 0.71975 0.0
H954 H 0.2691 0.1955 0.70324 0.0
H955 H 0.30574 0.21869 0.69611 0.0
H956 H 0.23224 0.12663 0.72227 0.0
H957 H 0.41059 0.23151 0.6287 0.0
H958 H 0.43803 0.22236 0.62941 0.0
H959 H 0.24162 0.16091 0.71266 0.0
H960 H 0.27139 0.09303 0.73111 0.0
N961 N 0.30757 0.17559 0.70117 0.0
C962 C 0.27978 0.18979 0.70283 0.0
C963 C 0.30045 0.20293 0.69885 0.0
C964 C 0.27329 0.1696 0.70682 0.0
C965 C 0.28779 0.16292 0.70601 0.0
C966 C 0.31428 0.19561 0.6983 0.0
N967 N 0.29737 0.13846 0.71161 0.0
C968 C 0.28252 0.14371 0.71142 0.0
C969 C 0.27428 0.10719 0.72552 0.0
C970 C 0.25849 0.11191 0.72459 0.0
C971 C 0.29382 0.12083 0.71912 0.0
C972 C 0.2626 0.13052 0.71775 0.0
H973 H 0.24338 0.10135 0.72961 0.0
O974 O 0.33803 0.15741 0.72603 0.0
O975 O 0.35337 0.15911 0.68566 0.0
O976 O 0.32648 0.1302 0.6659 0.0
O977 O 0.30592 0.13411 0.68629 0.0
O978 O 0.34155 0.14038 0.70643 0.0
O979 O 0.3433 0.18699 0.7185 0.0
O980 O 0.34368 0.16716 0.63199 0.0
O981 O 0.32745 0.16464 0.6724 0.0
O982 O 0.35469 0.1937 0.69219 0.0
O983 O 0.37509 0.18888 0.6723 0.0
O984 O 0.33949 0.18364 0.65183 0.0
O985 O 0.33689 0.13704 0.63951 0.0
C986 C 0.35472 0.14583 0.69419 0.0
C987 C 0.24771 0.13663 0.71764 0.0
C988 C 0.25305 0.15615 0.71218 0.0
C989 C 0.34364 0.17582 0.73097 0.0
C990 C 0.33539 0.17783 0.74745 0.0
C991 C 0.31578 0.17592 0.74846 0.0
C992 C 0.34734 0.18183 0.76236 0.0
C993 C 0.33982 0.18405 0.77824 0.0
C994 C 0.30817 0.17796 0.76415 0.0
C995 C 0.32008 0.18202 0.77897 0.0
C996 C 0.30899 0.12331 0.67455 0.0
C997 C 0.32614 0.17799 0.66394 0.0
C998 C 0.33742 0.14862 0.62703 0.0
C999 C 0.3455 0.1462 0.61061 0.0
C1000 C 0.36285 0.14369 0.60994 0.0
C1001 C 0.33536 0.14588 0.59539 0.0
C1002 C 0.34218 0.1426 0.5796 0.0
C1003 C 0.36983 0.14067 0.59427 0.0
C1004 C 0.35948 0.13997 0.57916 0.0
C1005 C 0.37231 0.20006 0.68383 0.0
H1006 H 0.30639 0.17296 0.73717 0.0
H1007 H 0.3626 0.18356 0.76151 0.0
H1008 H 0.29298 0.1764 0.76483 0.0
H1009 H 0.31375 0.18337 0.79102 0.0
H1010 H 0.37086 0.14381 0.62149 0.0
H1011 H 0.32184 0.14762 0.59589 0.0
H1012 H 0.38317 0.13868 0.59385 0.0
H1013 H 0.36501 0.13745 0.56713 0.0
Gd1014 Gd 0.83964 0.17889 0.65707 0.0
Gd1015 Gd 0.85952 0.17901 0.70069 0.0
C1016 C 0.92412 0.18863 0.71023 0.0
C1017 C 0.91658 0.15568 0.72083 0.0
C1018 C 0.88865 0.1619 0.71338 0.0
C1019 C 0.90277 0.18143 0.70861 0.0
C1020 C 0.89535 0.14891 0.71989 0.0
C1021 C 0.93095 0.17552 0.71599 0.0
C1022 C 0.93794 0.20894 0.70646 0.0
C1023 C 0.93032 0.22166 0.70182 0.0
N1024 N 0.89561 0.19371 0.70319 0.0
C1025 C 0.909 0.21383 0.70047 0.0
H1026 H 0.90343 0.22387 0.6968 0.0
C1027 C 0.85379 0.13754 0.71867 0.0
N1028 N 0.86829 0.15589 0.71235 0.0
C1029 C 0.85966 0.12408 0.7252 0.0
C1030 C 0.88053 0.12969 0.72563 0.0
H1031 H 0.83763 0.13309 0.71823 0.0
H1032 H 0.94729 0.18071 0.71714 0.0
H1033 H 0.79593 0.13415 0.6611 0.0
H1034 H 0.95445 0.21505 0.70748 0.0
H1035 H 0.94085 0.2375 0.6992 0.0
H1036 H 0.92205 0.14587 0.72564 0.0
H1037 H 0.86112 0.22417 0.63836 0.0
H1038 H 0.74466 0.14307 0.65162 0.0
H1039 H 0.75838 0.1205 0.65915 0.0
H1040 H 0.77682 0.21224 0.63346 0.0
H1041 H 0.8481 0.10938 0.72985 0.0
H1042 H 0.88505 0.11925 0.73071 0.0
H1043 H 0.75171 0.17752 0.64236 0.0
H1044 H 0.8505 0.24781 0.62682 0.0
N1045 N 0.80354 0.16435 0.65514 0.0
C1046 C 0.76119 0.14916 0.65242 0.0
C1047 C 0.76888 0.13637 0.65664 0.0
C1048 C 0.77495 0.16952 0.64875 0.0
C1049 C 0.79632 0.17669 0.65009 0.0
C1050 C 0.79022 0.1442 0.65773 0.0
N1051 N 0.8307 0.20196 0.64551 0.0
C1052 C 0.81038 0.19615 0.6451 0.0
C1053 C 0.83907 0.23337 0.632 0.0
C1054 C 0.81828 0.22805 0.63231 0.0
C1055 C 0.84502 0.21995 0.63849 0.0
C1056 C 0.80358 0.2091 0.63865 0.0
H1057 H 0.81369 0.23843 0.62723 0.0
O1058 O 0.85371 0.18423 0.63193 0.0
O1059 O 0.86581 0.18226 0.67286 0.0
O1060 O 0.86709 0.21048 0.69208 0.0
O1061 O 0.84289 0.20624 0.67114 0.0
O1062 O 0.87347 0.20123 0.65219 0.0
O1063 O 0.82926 0.15421 0.63877 0.0
O1064 O 0.8455 0.17329 0.72589 0.0
O1065 O 0.8334 0.17571 0.6849 0.0
O1066 O 0.83285 0.14739 0.66542 0.0
O1067 O 0.85753 0.15263 0.68621 0.0
O1068 O 0.82562 0.15649 0.70533 0.0
O1069 O 0.86885 0.20373 0.71873 0.0
C1070 C 0.88085 0.19588 0.66475 0.0
C1071 C 0.78236 0.20244 0.63818 0.0
C1072 C 0.76806 0.18267 0.64324 0.0
C1073 C 0.84135 0.16576 0.62667 0.0
C1074 C 0.83175 0.16361 0.60977 0.0
C1075 C 0.81424 0.16568 0.60789 0.0
C1076 C 0.84013 0.15936 0.59536 0.0
C1077 C 0.83104 0.15709 0.57908 0.0
C1078 C 0.80521 0.16355 0.59183 0.0
C1079 C 0.8135 0.15928 0.57751 0.0
C1080 C 0.85658 0.21713 0.68312 0.0
C1081 C 0.8183 0.16203 0.69288 0.0
C1082 C 0.85717 0.19199 0.73093 0.0
C1083 C 0.86687 0.19501 0.74789 0.0
C1084 C 0.88684 0.19789 0.74969 0.0
C1085 C 0.85623 0.19564 0.76245 0.0
C1086 C 0.86568 0.19967 0.77867 0.0
C1087 C 0.89619 0.20168 0.76579 0.0
C1088 C 0.88577 0.20274 0.7802 0.0
C1089 C 0.8441 0.14141 0.67421 0.0
H1090 H 0.80753 0.16887 0.6188 0.0
H1091 H 0.85353 0.15754 0.59688 0.0
H1092 H 0.79174 0.16524 0.59048 0.0
H1093 H 0.80633 0.15795 0.56516 0.0
H1094 H 0.8953 0.19746 0.73867 0.0
H1095 H 0.84085 0.19355 0.76109 0.0
H1096 H 0.91163 0.20398 0.76709 0.0
H1097 H 0.89334 0.20582 0.79257 0.0
C1098 C 0.29702 0.84733 0.06035 0.0
C1099 C 0.2963 0.82857 0.06157 0.0
C1100 C 0.31474 0.86447 0.05434 0.0
C1101 C 0.37084 0.88461 0.04897 0.0
H1102 H 0.36807 0.9253 0.02122 0.0
C1103 C 0.44422 0.9526 0.02242 0.0
C1104 C 0.44585 0.97165 0.02451 0.0
C1105 C 0.42539 0.93487 0.02495 0.0
C1106 C 0.36906 0.9141 0.02903 0.0
H1107 H 0.31378 0.81322 0.05728 0.0
H1108 H 0.34423 0.84279 0.04631 0.0
H1109 H 0.33621 0.89476 0.02941 0.0
H1110 H 0.42924 0.98718 0.03113 0.0
H1111 H 0.39617 0.95612 0.03562 0.0
H1112 H 0.40361 0.90391 0.04867 0.0
C1113 C 0.33125 0.8444 0.05025 0.0
C1114 C 0.35082 0.89662 0.03377 0.0
C1115 C 0.31362 0.82732 0.05633 0.0
C1116 C 0.42826 0.97264 0.02916 0.0
C1117 C 0.40936 0.95489 0.03164 0.0
C1118 C 0.38902 0.90198 0.04418 0.0
C1119 C 0.33216 0.86327 0.04937 0.0
C1120 C 0.35148 0.88168 0.04386 0.0
C1121 C 0.40781 0.93579 0.02985 0.0
C1122 C 0.38836 0.91698 0.03422 0.0
H1123 H 0.2839 0.84882 0.06409 0.0
H1124 H 0.31493 0.87878 0.05398 0.0
H1125 H 0.37198 0.87369 0.05705 0.0
H1126 H 0.45759 0.95131 0.01932 0.0
H1127 H 0.42468 0.9204 0.02333 0.0
C1128 C 0.17517 0.47737 0.07413 0.0
C1129 C 0.18637 0.47257 0.06242 0.0
C1130 C 0.15765 0.47808 0.06895 0.0
C1131 C 0.13062 0.48329 0.03131 0.0
H1132 H 0.08352 0.45977 0.06172 0.0
C1133 C 0.06066 0.49642 0.02447 0.0
C1134 C 0.04093 0.47979 0.02748 0.0
C1135 C 0.07835 0.49491 0.02734 0.0
C1136 C 0.09644 0.46625 0.05298 0.0
H1137 H 0.18791 0.4651 0.03588 0.0
H1138 H 0.15728 0.46649 0.02679 0.0
H1139 H 0.11434 0.45827 0.06918 0.0
H1140 H 0.02421 0.44882 0.03634 0.0
H1141 H 0.05502 0.44607 0.0413 0.0
H1142 H 0.11252 0.49119 0.01508 0.0
C1143 C 0.1622 0.46976 0.04002 0.0
C1144 C 0.11423 0.4656 0.05737 0.0
C1145 C 0.17977 0.46897 0.04524 0.0
C1146 C 0.03924 0.46177 0.0337 0.0
C1147 C 0.05689 0.46026 0.03661 0.0
C1148 C 0.11279 0.48405 0.02695 0.0
C1149 C 0.15079 0.4741 0.05187 0.0
C1150 C 0.13163 0.47424 0.04668 0.0
C1151 C 0.07669 0.47685 0.0336 0.0
C1152 C 0.09551 0.4756 0.03779 0.0
H1153 H 0.18005 0.48076 0.08737 0.0
H1154 H 0.14953 0.48192 0.07835 0.0
H1155 H 0.14376 0.49018 0.02283 0.0
H1156 H 0.06247 0.5107 0.02019 0.0
H1157 H 0.09335 0.50808 0.02512 0.0
C1158 C 0.53575 0.71547 0.04936 0.0
C1159 C 0.54279 0.72236 0.0661 0.0
C1160 C 0.53447 0.69761 0.04318 0.0
C1161 C 0.53322 0.65078 0.05885 0.0
H1162 H 0.54106 0.64332 0.01093 0.0
C1163 C 0.54097 0.58371 0.03378 0.0
C1164 C 0.52676 0.57198 0.02091 0.0
C1165 C 0.5435 0.60251 0.0385 0.0
C1166 C 0.53878 0.64525 0.02433 0.0
H1167 H 0.55431 0.71572 0.08931 0.0
H1168 H 0.55352 0.68571 0.0782 0.0
H1169 H 0.54521 0.67568 0.02071 0.0
H1170 H 0.50406 0.571 0.00298 0.0
H1171 H 0.50921 0.6043 0.01078 0.0
H1172 H 0.52751 0.62055 0.06247 0.0
C1173 C 0.54824 0.69364 0.06998 0.0
C1174 C 0.54103 0.66371 0.02995 0.0
C1175 C 0.54913 0.71122 0.07626 0.0
C1176 C 0.51545 0.57975 0.01266 0.0
C1177 C 0.5183 0.59877 0.01716 0.0
C1178 C 0.53139 0.63253 0.05328 0.0
C1179 C 0.54051 0.68632 0.05348 0.0
C1180 C 0.53828 0.66675 0.04732 0.0
C1181 C 0.53214 0.61017 0.03029 0.0
C1182 C 0.53413 0.62959 0.03599 0.0
H1183 H 0.53104 0.72376 0.04102 0.0
H1184 H 0.52827 0.69245 0.03046 0.0
H1185 H 0.53039 0.6522 0.07221 0.0
H1186 H 0.54997 0.57829 0.04046 0.0
H1187 H 0.55433 0.61109 0.04863 0.0
C1188 C 0.84062 0.29518 0.94925 0.0
C1189 C 0.82487 0.28278 0.96071 0.0
C1190 C 0.85763 0.31334 0.95473 0.0
C1191 C 0.88471 0.34328 0.99413 0.0
H1192 H 0.90926 0.38737 0.9616 0.0
C1193 C 0.94068 0.42872 0.01024 0.0
C1194 C 0.95982 0.43723 1.00184 0.0
C1195 C 0.92474 0.40929 0.00596 0.0
C1196 C 0.90258 0.37513 0.97077 0.0
H1197 H 0.81526 0.27994 0.98722 0.0
H1198 H 0.84401 0.31217 0.99644 0.0
H1199 H 0.88021 0.35493 0.9528 0.0
H1200 H 0.97695 0.43185 0.98209 0.0
H1201 H 0.94875 0.39829 0.97421 0.0
H1202 H 0.90668 0.36424 0.01229 0.0
C1203 C 0.8436 0.30757 0.98327 0.0
C1204 C 0.88601 0.35641 0.96573 0.0
C1205 C 0.8268 0.28913 0.97788 0.0
C1206 C 0.96251 0.42584 0.98892 0.0
C1207 C 0.94639 0.40661 0.98437 0.0
C1208 C 0.90099 0.36219 0.99926 0.0
C1209 C 0.85924 0.32005 0.97175 0.0
C1210 C 0.87688 0.3401 0.97728 0.0
C1211 C 0.9274 0.39819 0.99286 0.0
C1212 C 0.91013 0.3782 0.98758 0.0
H1213 H 0.83971 0.29117 0.93586 0.0
H1214 H 0.86949 0.32213 0.94548 0.0
H1215 H 0.87847 0.33112 0.00337 0.0
H1216 H 0.93781 0.43716 0.0199 0.0
H1217 H 0.91011 0.40316 0.01254 0.0
C1218 C 0.7217 0.56119 0.96397 0.0
C1219 C 0.72325 0.54352 0.9645 0.0
C1220 C 0.70369 0.56089 0.96936 0.0
C1221 C 0.65579 0.53139 0.99471 0.0
H1222 H 0.63457 0.55819 0.96585 0.0
C1223 C 0.57215 0.51696 1.00023 0.0
C1224 C 0.56875 0.53326 0.99735 0.0
C1225 C 0.59175 0.51922 0.99782 0.0
C1226 C 0.64039 0.55089 0.97426 0.0
H1227 H 0.70685 0.51168 0.97129 0.0
H1228 H 0.67567 0.51125 0.98083 0.0
H1229 H 0.66735 0.56044 0.95893 0.0
H1230 H 0.58301 0.56454 0.98941 0.0
H1231 H 0.61733 0.5687 0.98548 0.0
H1232 H 0.62873 0.52177 0.01001 0.0
C1233 C 0.68848 0.52541 0.97641 0.0
C1234 C 0.65924 0.55217 0.97025 0.0
C1235 C 0.70643 0.52568 0.97094 0.0
C1236 C 0.58529 0.55181 0.99191 0.0
C1237 C 0.6049 0.55411 0.98954 0.0
C1238 C 0.63695 0.53018 0.99878 0.0
C1239 C 0.68677 0.54295 0.97551 0.0
C1240 C 0.66713 0.54231 0.98034 0.0
C1241 C 0.60836 0.53777 0.99226 0.0
C1242 C 0.62891 0.53979 0.98852 0.0
H1243 H 0.73441 0.57529 0.95936 0.0
H1244 H 0.70305 0.57477 0.96874 0.0
H1245 H 0.66153 0.52383 0.0029 0.0
H1246 H 0.55958 0.50231 0.00392 0.0
H1247 H 0.59367 0.50619 0.99978 0.0
C1248 C 0.46383 0.17532 0.96221 0.0
C1249 C 0.48157 0.19115 0.95466 0.0
C1250 C 0.46402 0.15822 0.96846 0.0
C1251 C 0.48768 0.1274 0.9618 0.0
H1252 H 0.4732 0.1097 0.00874 0.0
C1253 C 0.4759 0.05097 0.9868 0.0
C1254 C 0.48826 0.05265 1.00101 0.0
C1255 C 0.47402 0.06749 0.98153 0.0
C1256 C 0.47721 0.11448 0.9956 0.0
H1257 H 0.51326 0.20154 0.94752 0.0
H1258 H 0.51339 0.17135 0.95804 0.0
H1259 H 0.47198 0.13959 0.99863 0.0
H1260 H 0.50839 0.07323 0.02072 0.0
H1261 H 0.5043 0.10172 0.01193 0.0
H1262 H 0.49265 0.10219 0.95866 0.0
C1263 C 0.49949 0.17231 0.95931 0.0
C1264 C 0.47643 0.13146 0.98982 0.0
C1265 C 0.49944 0.18957 0.95339 0.0
C1266 C 0.49837 0.07117 0.00999 0.0
C1267 C 0.49613 0.08756 0.00492 0.0
C1268 C 0.48803 0.1102 0.96746 0.0
C1269 C 0.48179 0.15651 0.9669 0.0
C1270 C 0.48186 0.13816 0.97292 0.0
C1271 C 0.48416 0.08593 0.99052 0.0
C1272 C 0.48297 0.10369 0.98444 0.0
H1273 H 0.44989 0.17625 0.96334 0.0
H1274 H 0.45017 0.14617 0.97421 0.0
H1275 H 0.49184 0.13224 0.94869 0.0
H1276 H 0.46793 0.03701 0.97951 0.0
H1277 H 0.46466 0.06588 0.97039 0.0
C1278 C 0.6897 0.17422 0.96386 0.0
C1279 C 0.69895 0.18857 0.97702 0.0
C1280 C 0.67306 0.15492 0.96737 0.0
C1281 C 0.63261 0.12803 1.00044 0.0
H1282 H 0.62048 0.08095 0.97292 0.0
C1283 C 0.55237 0.05636 1.00096 0.0
C1284 C 0.55087 0.03736 0.99896 0.0
C1285 C 0.57138 0.07414 0.99934 0.0
C1286 C 0.62374 0.09383 0.98094 0.0
H1287 H 0.69902 0.19385 0.00422 0.0
H1288 H 0.6708 0.15995 0.01058 0.0
H1289 H 0.65262 0.11249 0.96857 0.0
H1290 H 0.5678 0.02194 0.99315 0.0
H1291 H 0.60128 0.05297 0.99085 0.0
H1292 H 0.60413 0.1092 0.01325 0.0
C1293 C 0.67566 0.16366 0.99742 0.0
C1294 C 0.64209 0.11209 0.97824 0.0
C1295 C 0.69199 0.18303 0.99384 0.0
C1296 C 0.56866 0.03645 0.99498 0.0
C1297 C 0.58778 0.05424 0.99353 0.0
C1298 C 0.61444 0.10972 0.00331 0.0
C1299 C 0.66555 0.14946 0.98418 0.0
C1300 C 0.64667 0.12956 0.98778 0.0
C1301 C 0.58939 0.07336 0.99561 0.0
C1302 C 0.60954 0.09245 0.9934 0.0
H1303 H 0.69472 0.17825 0.95076 0.0
H1304 H 0.66561 0.14461 0.95677 0.0
H1305 H 0.63531 0.14111 0.00793 0.0
H1306 H 0.53881 0.05756 0.00344 0.0
H1307 H 0.57181 0.0885 1.0006 0.0
C1308 C 0.82204 0.49229 0.97214 0.0
C1309 C 0.81881 0.50893 0.97389 0.0
C1310 C 0.84162 0.49459 0.97441 0.0
C1311 C 0.89651 0.52825 0.97196 0.0
H1312 H 0.90018 0.49429 0.00704 0.0
C1313 C 0.97398 0.53135 0.98839 0.0
C1314 C 0.97308 0.51329 0.99352 0.0
C1315 C 0.95585 0.53231 0.98639 0.0
C1316 C 0.89945 0.50367 0.997 0.0
H1317 H 0.83426 0.54138 0.97837 0.0
H1318 H 0.86885 0.54548 0.98163 0.0
H1319 H 0.86758 0.49343 1.00206 0.0
H1320 H 0.95251 0.48163 0.99915 0.0
H1321 H 0.92098 0.48298 0.99523 0.0
H1322 H 0.92803 0.53779 0.96623 0.0
C1323 C 0.85589 0.53058 0.97885 0.0
C1324 C 0.88077 0.50329 0.99428 0.0
C1325 C 0.8361 0.52823 0.97689 0.0
C1326 C 0.95371 0.49595 0.99581 0.0
C1327 C 0.93559 0.49679 0.99358 0.0
C1328 C 0.91516 0.52835 0.97444 0.0
C1329 C 0.85868 0.51366 0.97808 0.0
C1330 C 0.87904 0.51541 0.98163 0.0
C1331 C 0.93634 0.51504 0.98902 0.0
C1332 C 0.91684 0.51586 0.98687 0.0
H1333 H 0.80932 0.47729 0.96928 0.0
H1334 H 0.84342 0.48137 0.97342 0.0
H1335 H 0.89552 0.53765 0.96206 0.0
H1336 H 0.98876 0.54486 0.98628 0.0
H1337 H 0.9572 0.54669 0.98303 0.0
C1338 C 0.50749 0.32092 0.95517 0.0
C1339 C 0.52211 0.31784 0.96402 0.0
C1340 C 0.50455 0.33717 0.95949 0.0
C1341 C 0.53214 0.38755 0.97961 0.0
H1342 H 0.47822 0.3827 0.98415 0.0
C1343 C 0.52348 0.45114 0.00991 0.0
C1344 C 0.50976 0.45646 1.00238 0.0
C1345 C 0.52351 0.43359 0.0049 0.0
C1346 C 0.49338 0.38434 0.98272 0.0
H1347 H 0.54422 0.32876 0.98495 0.0
H1348 H 0.53923 0.35706 0.99233 0.0
H1349 H 0.48087 0.35302 0.97591 0.0
H1350 H 0.48503 0.44717 0.98377 0.0
H1351 H 0.48534 0.41651 0.9748 0.0
H1352 H 0.54475 0.41873 0.98628 0.0
C1353 C 0.53034 0.34719 0.98184 0.0
C1354 C 0.49489 0.36735 0.97803 0.0
C1355 C 0.53322 0.33098 0.97759 0.0
C1356 C 0.49578 0.44352 0.98987 0.0
C1357 C 0.49588 0.4259 0.98478 0.0
C1358 C 0.53065 0.40446 0.98421 0.0
C1359 C 0.51622 0.35067 0.97269 0.0
C1360 C 0.5143 0.36873 0.97671 0.0
C1361 C 0.51 0.42093 0.99207 0.0
C1362 C 0.51127 0.40302 0.98612 0.0
H1363 H 0.49877 0.31115 0.94458 0.0
H1364 H 0.49362 0.33953 0.95217 0.0
H1365 H 0.54733 0.38922 0.9783 0.0
H1366 H 0.53463 0.46075 0.01943 0.0
H1367 H 0.53432 0.43004 0.01104 0.0
C1368 C 0.18644 0.69947 0.05921 0.0
C1369 C 0.20335 0.70311 0.04894 0.0
C1370 C 0.1666 0.68349 0.05532 0.0
C1371 C 0.13595 0.64708 0.0204 0.0
H1372 H 0.1028 0.61288 0.05761 0.0
C1373 C 0.07457 0.56356 0.0112 0.0
C1374 C 0.05515 0.55642 0.01882 0.0
C1375 C 0.09078 0.58303 0.01469 0.0
C1376 C 0.11175 0.62246 0.04711 0.0
H1377 H 0.21245 0.69342 0.02607 0.0
H1378 H 0.17831 0.66541 0.01965 0.0
H1379 H 0.13465 0.64449 0.06395 0.0
H1380 H 0.03782 0.56416 0.03654 0.0
H1381 H 0.06653 0.59816 0.04299 0.0
H1382 H 0.11354 0.62452 0.00358 0.0
C1383 C 0.18014 0.67492 0.03059 0.0
C1384 C 0.12998 0.64061 0.05072 0.0
C1385 C 0.19985 0.69085 0.03443 0.0
C1386 C 0.0525 0.56919 0.03033 0.0
C1387 C 0.06892 0.58864 0.03406 0.0
C1388 C 0.1179 0.62887 0.01681 0.0
C1389 C 0.16325 0.67086 0.04106 0.0
C1390 C 0.14258 0.65292 0.03739 0.0
C1391 C 0.08818 0.59577 0.02617 0.0
C1392 C 0.10586 0.61617 0.03011 0.0
H1393 H 0.18862 0.70858 0.07051 0.0
H1394 H 0.15392 0.68095 0.06356 0.0
H1395 H 0.14494 0.65639 0.0098 0.0
H1396 H 0.07745 0.55405 0.00268 0.0
H1397 H 0.10557 0.58798 0.00868 0.0
C1398 C 0.32092 0.48963 0.0591 0.0
C1399 C 0.30939 0.48817 0.04442 0.0
C1400 C 0.33878 0.48806 0.0578 0.0
C1401 C 0.36726 0.47107 0.02987 0.0
H1402 H 0.41617 0.5152 0.05095 0.0
C1403 C 0.44723 0.47539 0.03199 0.0
C1404 C 0.46422 0.49398 0.02716 0.0
C1405 C 0.42775 0.47349 0.03413 0.0
C1406 C 0.40265 0.5028 0.04497 0.0
H1407 H 0.30683 0.48299 0.01707 0.0
H1408 H 0.33761 0.47964 0.01485 0.0
H1409 H 0.38258 0.51264 0.0553 0.0
H1410 H 0.47443 0.52546 0.02175 0.0
H1411 H 0.44047 0.52223 0.02563 0.0
H1412 H 0.38744 0.46132 0.01948 0.0
C1413 C 0.33299 0.48208 0.02734 0.0
C1414 C 0.38338 0.5012 0.04762 0.0
C1415 C 0.31536 0.48397 0.0286 0.0
C1416 C 0.46151 0.51082 0.02504 0.0
C1417 C 0.44211 0.50901 0.02744 0.0
C1418 C 0.38651 0.4725 0.02743 0.0
C1419 C 0.34526 0.4847 0.04183 0.0
C1420 C 0.36546 0.48542 0.03999 0.0
C1421 C 0.425 0.49032 0.03199 0.0
C1422 C 0.40445 0.48849 0.03483 0.0
H1423 H 0.31678 0.49313 0.07139 0.0
H1424 H 0.34783 0.48999 0.06922 0.0
H1425 H 0.35375 0.45873 0.02383 0.0
H1426 H 0.44902 0.46228 0.034 0.0
H1427 H 0.41491 0.45895 0.03782 0.0
C1428 C 0.51214 0.82371 0.06949 0.0
C1429 C 0.49771 0.80619 0.06061 0.0
C1430 C 0.51448 0.84266 0.06546 0.0
C1431 C 0.48575 0.86508 0.04592 0.0
H1432 H 0.53913 0.91372 0.04128 0.0
C1433 C 0.49304 0.9361 0.01507 0.0
C1434 C 0.50633 0.95505 0.02259 0.0
C1435 C 0.49336 0.91881 0.0203 0.0
C1436 C 0.52412 0.90031 0.04275 0.0
H1437 H 0.47523 0.79503 0.03995 0.0
H1438 H 0.47919 0.82789 0.03305 0.0
H1439 H 0.53725 0.88178 0.04938 0.0
H1440 H 0.53061 0.97064 0.04147 0.0
H1441 H 0.53097 0.94016 0.05081 0.0
H1442 H 0.47254 0.88337 0.03933 0.0
C1443 C 0.4884 0.82697 0.04336 0.0
C1444 C 0.52305 0.88205 0.04737 0.0
C1445 C 0.48611 0.80812 0.04733 0.0
C1446 C 0.5202 0.9563 0.03537 0.0
C1447 C 0.52048 0.93886 0.04067 0.0
C1448 C 0.48682 0.88325 0.04137 0.0
C1449 C 0.50239 0.84441 0.05251 0.0
C1450 C 0.50383 0.86416 0.0487 0.0
C1451 C 0.50682 0.91987 0.03334 0.0
C1452 C 0.506 0.90101 0.03941 0.0
H1453 H 0.52122 0.82272 0.07986 0.0
H1454 H 0.52532 0.85582 0.07279 0.0
H1455 H 0.4707 0.85168 0.04724 0.0
H1456 H 0.48195 0.93441 0.00536 0.0
H1457 H 0.48289 0.9045 0.01416 0.0
C1458 C 0.97908 0.1795 0.40752 0.0
C1459 C 0.96445 0.16531 0.39607 0.0
C1460 C 0.99643 0.1969 0.40151 0.0
C1461 C 0.02918 0.21882 0.36324 0.0
H1462 H 0.0491 0.26878 0.38898 0.0
C1463 C 0.0974 0.30933 0.36242 0.0
C1464 C 0.11437 0.30718 0.358 0.0
C1465 C 0.07791 0.29226 0.36464 0.0
C1466 C 0.04364 0.25508 0.38144 0.0
H1467 H 0.95661 0.15833 0.36926 0.0
H1468 H 0.98688 0.1889 0.35871 0.0
H1469 H 0.0173 0.23889 0.39745 0.0
H1470 H 0.12444 0.28552 0.35286 0.0
H1471 H 0.09057 0.25572 0.35687 0.0
H1472 H 0.0555 0.23522 0.34709 0.0
C1473 C 0.98503 0.18641 0.37237 0.0
C1474 C 0.02551 0.2378 0.38648 0.0
C1475 C 0.96766 0.16891 0.37841 0.0
C1476 C 0.11152 0.28765 0.35576 0.0
C1477 C 0.09206 0.27055 0.35809 0.0
C1478 C 0.04733 0.23618 0.35814 0.0
C1479 C 0.99962 0.20066 0.38387 0.0
C1480 C 0.0182 0.21934 0.37764 0.0
C1481 C 0.07507 0.27262 0.36288 0.0
C1482 C 0.05494 0.25448 0.36732 0.0
H1483 H 0.97734 0.17698 0.42119 0.0
H1484 H 0.00754 0.20725 0.41075 0.0
H1485 H 0.02408 0.20485 0.35618 0.0
H1486 H 0.09928 0.32425 0.36437 0.0
H1487 H 0.06515 0.29447 0.36805 0.0
C1488 C 0.83235 0.78311 0.39155 0.0
C1489 C 0.85193 0.80066 0.39248 0.0
C1490 C 0.81502 0.78418 0.38628 0.0
C1491 C 0.79798 0.81602 0.36366 0.0
H1492 H 0.74925 0.7873 0.39182 0.0
C1493 C 0.72825 0.82942 0.35871 0.0
C1494 C 0.70837 0.81273 0.36093 0.0
C1495 C 0.74575 0.82752 0.36132 0.0
C1496 C 0.76255 0.79515 0.3836 0.0
H1497 H 0.86857 0.83309 0.38807 0.0
H1498 H 0.83836 0.83488 0.37863 0.0
H1499 H 0.77968 0.78464 0.39805 0.0
H1500 H 0.69116 0.78118 0.36815 0.0
H1501 H 0.72157 0.7776 0.37232 0.0
H1502 H 0.78076 0.82645 0.34914 0.0
C1503 C 0.83647 0.82026 0.38196 0.0
C1504 C 0.78006 0.79365 0.38722 0.0
C1505 C 0.85382 0.81921 0.38734 0.0
C1506 C 0.70632 0.79421 0.36613 0.0
C1507 C 0.72378 0.79224 0.36864 0.0
C1508 C 0.78036 0.8174 0.35994 0.0
C1509 C 0.81679 0.80281 0.38167 0.0
C1510 C 0.79804 0.80411 0.37736 0.0
C1511 C 0.74377 0.80891 0.36639 0.0
C1512 C 0.76242 0.80705 0.36992 0.0
H1513 H 0.83033 0.76849 0.39505 0.0
H1514 H 0.80017 0.77039 0.3859 0.0
H1515 H 0.81149 0.8241 0.3557 0.0
H1516 H 0.73034 0.84407 0.35525 0.0
H1517 H 0.76083 0.8408 0.35977 0.0
C1518 C 0.20444 0.0495 0.38216 0.0
C1519 C 0.211 0.05619 0.39903 0.0
C1520 C 0.20346 0.03178 0.37596 0.0
C1521 C 0.20201 0.98488 0.39162 0.0
H1522 H 0.21114 0.97804 0.34386 0.0
C1523 C 0.20968 0.91769 0.36688 0.0
C1524 C 0.19575 0.90621 0.35376 0.0
C1525 C 0.21241 0.93658 0.37155 0.0
C1526 C 0.20851 0.9798 0.35722 0.0
H1527 H 0.22201 0.04934 0.42243 0.0
H1528 H 0.22173 0.01959 0.41131 0.0
H1529 H 0.215 0.01027 0.35371 0.0
H1530 H 0.17388 0.90585 0.33524 0.0
H1531 H 0.17936 0.93926 0.343 0.0
H1532 H 0.19618 0.95459 0.39513 0.0
C1533 C 0.2166 0.02756 0.403 0.0
C1534 C 0.21059 0.99819 0.36287 0.0
C1535 C 0.21719 0.045 0.4093 0.0
C1536 C 0.18502 0.91437 0.34515 0.0
C1537 C 0.18807 0.93347 0.34962 0.0
C1538 C 0.20033 0.9667 0.38602 0.0
C1539 C 0.20933 0.02044 0.38636 0.0
C1540 C 0.20735 0.00098 0.38018 0.0
C1541 C 0.20154 0.94457 0.36304 0.0
C1542 C 0.20353 0.96399 0.36879 0.0
H1543 H 0.19986 0.05783 0.37375 0.0
H1544 H 0.19761 0.02677 0.36313 0.0
H1545 H 0.1988 0.98612 0.40492 0.0
H1546 H 0.21825 0.91197 0.37382 0.0
H1547 H 0.22296 0.94493 0.3819 0.0
C1548 C 0.49459 0.62356 0.31138 0.0
C1549 C 0.49259 0.61702 0.29426 0.0
C1550 C 0.51151 0.64199 0.31667 0.0
C1551 C 0.55418 0.69051 0.29879 0.0
H1552 H 0.57457 0.69894 0.34547 0.0
C1553 C 0.63055 0.76037 0.32188 0.0
C1554 C 0.62785 0.77172 0.33483 0.0
C1555 C 0.61444 0.74114 0.3173 0.0
C1556 C 0.56897 0.69673 0.3324 0.0
H1557 H 0.50747 0.62505 0.26941 0.0
H1558 H 0.53742 0.65594 0.27887 0.0
H1559 H 0.54635 0.66575 0.33674 0.0
H1560 H 0.60574 0.77163 0.3528 0.0
H1561 H 0.57809 0.73763 0.34541 0.0
H1562 H 0.57751 0.72138 0.29444 0.0
C1563 C 0.52554 0.64733 0.28815 0.0
C1564 C 0.55267 0.67776 0.32738 0.0
C1565 C 0.50842 0.62919 0.28277 0.0
C1566 C 0.60866 0.76321 0.34315 0.0
C1567 C 0.59274 0.74377 0.33885 0.0
C1568 C 0.57076 0.70927 0.30372 0.0
C1569 C 0.5272 0.65426 0.3051 0.0
C1570 C 0.54492 0.67436 0.3105 0.0
C1571 C 0.59544 0.73267 0.32578 0.0
C1572 C 0.57821 0.71258 0.32058 0.0
H1573 H 0.48302 0.61455 0.32075 0.0
H1574 H 0.51196 0.64675 0.3298 0.0
H1575 H 0.54845 0.68886 0.28582 0.0
H1576 H 0.64502 0.7664 0.31509 0.0
H1577 H 0.61684 0.73283 0.30716 0.0
C1578 C 0.38754 0.89186 0.29743 0.0
C1579 C 0.39012 0.87481 0.29835 0.0
C1580 C 0.3693 0.89088 0.30311 0.0
C1581 C 0.31426 0.85364 0.31122 0.0
H1582 H 0.31394 0.89907 0.3334 0.0
C1583 C 0.23845 0.84815 0.33475 0.0
C1584 C 0.23584 0.86483 0.33135 0.0
C1585 C 0.25771 0.84957 0.33259 0.0
C1586 C 0.31375 0.88629 0.32711 0.0
H1587 H 0.37543 0.84338 0.30627 0.0
H1588 H 0.344 0.84184 0.31655 0.0
H1589 H 0.34679 0.90128 0.32627 0.0
H1590 H 0.25111 0.89585 0.32259 0.0
H1591 H 0.28477 0.89839 0.3187 0.0
H1592 H 0.28128 0.83873 0.31187 0.0
C1593 C 0.35595 0.85593 0.3112 0.0
C1594 C 0.33261 0.88757 0.32301 0.0
C1595 C 0.37416 0.85691 0.30551 0.0
C1596 C 0.25282 0.88289 0.3256 0.0
C1597 C 0.27211 0.88435 0.32347 0.0
C1598 C 0.29545 0.85237 0.31534 0.0
C1599 C 0.35313 0.87281 0.30987 0.0
C1600 C 0.33312 0.8713 0.3149 0.0
C1601 C 0.27476 0.86763 0.32675 0.0
C1602 C 0.29491 0.86871 0.32323 0.0
H1603 H 0.39956 0.90597 0.29217 0.0
H1604 H 0.36766 0.90415 0.30175 0.0
H1605 H 0.31398 0.84094 0.30471 0.0
H1606 H 0.22556 0.83386 0.33875 0.0
H1607 H 0.2592 0.83644 0.33539 0.0
C1608 C 0.13877 0.50527 0.27982 0.0
C1609 C 0.14395 0.52259 0.28984 0.0
C1610 C 0.139 0.48856 0.28686 0.0
C1611 C 0.16442 0.47457 0.31861 0.0
H1612 H 0.11749 0.42028 0.31413 0.0
C1613 C 0.16711 0.40554 0.34569 0.0
C1614 C 0.15694 0.38724 0.33645 0.0
C1615 C 0.1643 0.42181 0.34146 0.0
C1616 C 0.13087 0.43528 0.31529 0.0
H1617 H 0.1531 0.53551 0.31534 0.0
H1618 H 0.15441 0.50658 0.32734 0.0
H1619 H 0.1149 0.44912 0.3038 0.0
H1620 H 0.13606 0.37194 0.3152 0.0
H1621 H 0.132 0.40049 0.30728 0.0
H1622 H 0.18087 0.46093 0.32921 0.0
C1623 C 0.15 0.50607 0.31405 0.0
C1624 C 0.12928 0.45179 0.30949 0.0
C1625 C 0.14937 0.52266 0.30712 0.0
C1626 C 0.14402 0.38571 0.32274 0.0
C1627 C 0.14152 0.4021 0.31829 0.0
C1628 C 0.16618 0.45805 0.32411 0.0
C1629 C 0.14481 0.48889 0.30397 0.0
C1630 C 0.14607 0.47155 0.31102 0.0
C1631 C 0.15163 0.42042 0.32757 0.0
C1632 C 0.14946 0.43813 0.32243 0.0
H1633 H 0.13502 0.50474 0.26638 0.0
H1634 H 0.1352 0.47557 0.27877 0.0
H1635 H 0.17766 0.48968 0.31975 0.0
H1636 H 0.17751 0.40748 0.35608 0.0
H1637 H 0.17215 0.4355 0.3491 0.0
C1638 C 0.36732 0.50958 0.31165 0.0
C1639 C 0.3633 0.52511 0.30685 0.0
C1640 C 0.35105 0.49004 0.31522 0.0
C1641 C 0.29945 0.46406 0.332 0.0
H1642 H 0.28877 0.41651 0.30578 0.0
C1643 C 0.22083 0.39093 0.33474 0.0
C1644 C 0.21968 0.3721 0.33262 0.0
C1645 C 0.23959 0.40892 0.33286 0.0
C1646 C 0.2917 0.42949 0.31352 0.0
H1647 H 0.33872 0.53158 0.30106 0.0
H1648 H 0.31067 0.49795 0.30808 0.0
H1649 H 0.31972 0.44901 0.30004 0.0
H1650 H 0.23703 0.35722 0.32639 0.0
H1651 H 0.27013 0.38865 0.32369 0.0
H1652 H 0.2719 0.44481 0.34579 0.0
C1653 C 0.32643 0.50101 0.30914 0.0
C1654 C 0.3094 0.44812 0.31013 0.0
C1655 C 0.34257 0.52033 0.30524 0.0
C1656 C 0.23762 0.37159 0.32832 0.0
C1657 C 0.25651 0.38962 0.32664 0.0
C1658 C 0.28202 0.44542 0.33564 0.0
C1659 C 0.3305 0.48576 0.31433 0.0
C1660 C 0.31314 0.46562 0.31908 0.0
C1661 C 0.25775 0.40857 0.32879 0.0
C1662 C 0.27756 0.42794 0.32615 0.0
H1663 H 0.38301 0.51263 0.31318 0.0
H1664 H 0.35452 0.47845 0.31919 0.0
H1665 H 0.30217 0.47736 0.3392 0.0
H1666 H 0.20716 0.39185 0.33747 0.0
H1667 H 0.23965 0.42309 0.33415 0.0
C1668 C 0.49158 0.82704 0.3024 0.0
C1669 C 0.4884 0.84356 0.30503 0.0
C1670 C 0.51123 0.82931 0.30377 0.0
C1671 C 0.56349 0.86358 0.32218 0.0
H1672 H 0.57665 0.8275 0.29711 0.0
C1673 C 0.64362 0.86686 0.32227 0.0
C1674 C 0.64247 0.84859 0.32718 0.0
C1675 C 0.62558 0.86774 0.31931 0.0
C1676 C 0.57316 0.83764 0.30421 0.0
H1677 H 0.50387 0.87581 0.31026 0.0
H1678 H 0.53852 0.88005 0.31191 0.0
H1679 H 0.54465 0.82734 0.29091 0.0
H1680 H 0.62164 0.81668 0.33183 0.0
H1681 H 0.59019 0.81812 0.32626 0.0
H1682 H 0.59259 0.8742 0.33507 0.0
C1683 C 0.52557 0.8651 0.30935 0.0
C1684 C 0.55473 0.8375 0.30076 0.0
C1685 C 0.50572 0.86275 0.30815 0.0
C1686 C 0.62299 0.83107 0.3285 0.0
C1687 C 0.60501 0.83186 0.32519 0.0
C1688 C 0.58218 0.86399 0.32538 0.0
C1689 C 0.52857 0.84831 0.30747 0.0
C1690 C 0.54933 0.85013 0.30995 0.0
C1691 C 0.60612 0.85019 0.3206 0.0
C1692 C 0.58698 0.85075 0.31664 0.0
H1693 H 0.4787 0.81209 0.29964 0.0
H1694 H 0.51261 0.81589 0.30246 0.0
H1695 H 0.55991 0.87336 0.32971 0.0
H1696 H 0.65848 0.88048 0.32091 0.0
H1697 H 0.62684 0.88201 0.31564 0.0
C1698 C 0.16829 0.64759 0.30422 0.0
C1699 C 0.18468 0.6504 0.29366 0.0
C1700 C 0.16555 0.66397 0.30846 0.0
C1701 C 0.19556 0.71966 0.3118 0.0
H1702 H 0.14206 0.71552 0.31721 0.0
C1703 C 0.18807 0.78306 0.34432 0.0
C1704 C 0.17491 0.78904 0.33668 0.0
C1705 C 0.18764 0.76533 0.33913 0.0
C1706 C 0.15711 0.71694 0.31564 0.0
H1707 H 0.21026 0.67225 0.27841 0.0
H1708 H 0.20538 0.70071 0.2856 0.0
H1709 H 0.14415 0.68625 0.30685 0.0
H1710 H 0.15057 0.78065 0.31783 0.0
H1711 H 0.15008 0.74975 0.30858 0.0
H1712 H 0.2086 0.75033 0.32027 0.0
C1713 C 0.19494 0.68601 0.291 0.0
C1714 C 0.1583 0.70012 0.30986 0.0
C1715 C 0.19773 0.6697 0.28685 0.0
C1716 C 0.16092 0.77651 0.32401 0.0
C1717 C 0.16055 0.75874 0.31876 0.0
C1718 C 0.19437 0.73639 0.31755 0.0
C1719 C 0.17912 0.68346 0.30216 0.0
C1720 C 0.17756 0.7013 0.3079 0.0
C1721 C 0.17419 0.75315 0.32606 0.0
C1722 C 0.17515 0.73523 0.31966 0.0
H1723 H 0.15807 0.63291 0.30976 0.0
H1724 H 0.15331 0.6615 0.31719 0.0
H1725 H 0.21065 0.72105 0.31068 0.0
H1726 H 0.19917 0.79233 0.35401 0.0
H1727 H 0.19809 0.7613 0.34526 0.0
C1728 C 0.85745 0.03368 0.39393 0.0
C1729 C 0.87405 0.03796 0.38299 0.0
C1730 C 0.83803 0.01642 0.39122 0.0
C1731 C 0.81601 0.96559 0.37357 0.0
H1732 H 0.76363 0.96432 0.37032 0.0
C1733 C 0.74472 0.89552 0.34746 0.0
C1734 C 0.72523 0.88941 0.35453 0.0
C1735 C 0.7618 0.91408 0.35186 0.0
C1736 C 0.77808 0.96435 0.37147 0.0
H1737 H 0.88269 0.02824 0.35986 0.0
H1738 H 0.84921 0.99807 0.35549 0.0
H1739 H 0.79532 0.99645 0.37641 0.0
H1740 H 0.70855 0.89822 0.37198 0.0
H1741 H 0.73869 0.93061 0.38008 0.0
H1742 H 0.79917 0.93372 0.36897 0.0
C1743 C 0.85127 0.00788 0.36628 0.0
C1744 C 0.7962 0.98276 0.37491 0.0
C1745 C 0.87048 0.02514 0.36885 0.0
C1746 C 0.72331 0.90246 0.36621 0.0
C1747 C 0.74057 0.92109 0.37078 0.0
C1748 C 0.798 0.94726 0.37038 0.0
C1749 C 0.83498 0.00308 0.37762 0.0
C1750 C 0.81538 0.98358 0.37557 0.0
C1751 C 0.7601 0.92704 0.36377 0.0
C1752 C 0.77884 0.94643 0.36882 0.0
H1753 H 0.85965 0.04319 0.40497 0.0
H1754 H 0.82569 0.01304 0.40015 0.0
H1755 H 0.83055 0.96572 0.37437 0.0
H1756 H 0.747 0.88585 0.33866 0.0
H1757 H 0.77642 0.91825 0.34587 0.0
C1758 C 0.99881 0.84132 0.39787 0.0
C1759 C 0.98114 0.83078 0.38759 0.0
C1760 C 0.01626 0.83952 0.39501 0.0
C1761 C 0.03601 0.80991 0.37128 0.0
H1762 H 0.08829 0.85947 0.37767 0.0
C1763 C 0.1147 0.81219 0.36724 0.0
C1764 C 0.13174 0.82969 0.36075 0.0
C1765 C 0.0958 0.81146 0.36978 0.0
C1766 C 0.07388 0.84552 0.37556 0.0
H1767 H 0.96758 0.80967 0.36652 0.0
H1768 H 0.99828 0.8068 0.36113 0.0
H1769 H 0.05642 0.85925 0.38355 0.0
H1770 H 0.14257 0.86046 0.35246 0.0
H1771 H 0.10957 0.85902 0.35609 0.0
H1772 H 0.05362 0.79645 0.36261 0.0
C1773 C 0.99859 0.81616 0.3717 0.0
C1774 C 0.05548 0.84528 0.37928 0.0
C1775 C 0.98095 0.81777 0.37475 0.0
C1776 C 0.1296 0.84656 0.35705 0.0
C1777 C 0.11068 0.84581 0.35942 0.0
C1778 C 0.05447 0.8102 0.3674 0.0
C1779 C 0.01669 0.82743 0.38153 0.0
C1780 C 0.03625 0.82745 0.37735 0.0
C1781 C 0.09353 0.82832 0.366 0.0
C1782 C 0.0737 0.828 0.36958 0.0
H1783 H 0.99929 0.85143 0.40788 0.0
H1784 H 0.02959 0.84797 0.40321 0.0
H1785 H 0.02158 0.79584 0.3697 0.0
H1786 H 0.11606 0.79909 0.37052 0.0
H1787 H 0.08316 0.79786 0.37517 0.0
C1788 C 0.17939 0.15679 0.40163 0.0
C1789 C 0.16513 0.13926 0.39265 0.0
C1790 C 0.18172 0.17571 0.39755 0.0
C1791 C 0.15317 0.19811 0.37767 0.0
H1792 H 0.20659 0.24682 0.37359 0.0
C1793 C 0.1607 0.26987 0.34794 0.0
C1794 C 0.17415 0.28867 0.35563 0.0
C1795 C 0.16088 0.25241 0.35285 0.0
C1796 C 0.19156 0.23339 0.37489 0.0
H1797 H 0.14293 0.12809 0.37178 0.0
H1798 H 0.14685 0.16093 0.36481 0.0
H1799 H 0.20463 0.21482 0.38153 0.0
H1800 H 0.19857 0.30379 0.37449 0.0
H1801 H 0.19865 0.27303 0.3833 0.0
H1802 H 0.14001 0.21645 0.37113 0.0
C1803 C 0.15594 0.16001 0.37522 0.0
C1804 C 0.19045 0.21509 0.37942 0.0
C1805 C 0.15368 0.14118 0.37924 0.0
C1806 C 0.18803 0.28957 0.36826 0.0
C1807 C 0.18815 0.27198 0.37325 0.0
C1808 C 0.15427 0.21633 0.37322 0.0
C1809 C 0.16978 0.17745 0.38446 0.0
C1810 C 0.17123 0.19719 0.38059 0.0
C1811 C 0.17436 0.25315 0.36575 0.0
C1812 C 0.17347 0.23413 0.3715 0.0
H1813 H 0.18835 0.15581 0.41211 0.0
H1814 H 0.19242 0.18887 0.40495 0.0
H1815 H 0.13811 0.18468 0.37885 0.0
H1816 H 0.14961 0.26845 0.33833 0.0
H1817 H 0.15031 0.23824 0.34658 0.0
C1818 C 0.63209 0.50031 0.71195 0.0
C1819 C 0.6288 0.49667 0.7296 0.0
C1820 C 0.64944 0.51787 0.70597 0.0
C1821 C 0.68964 0.5693 0.72017 0.0
H1822 H 0.72009 0.56685 0.68107 0.0
C1823 C 0.77587 0.61933 0.68992 0.0
C1824 C 0.77858 0.63884 0.69181 0.0
C1825 C 0.75646 0.6022 0.69232 0.0
C1826 C 0.71179 0.56777 0.69204 0.0
H1827 H 0.64156 0.50833 0.75476 0.0
H1828 H 0.67171 0.5387 0.74441 0.0
H1829 H 0.68864 0.53642 0.69001 0.0
H1830 H 0.76333 0.65586 0.6978 0.0
H1831 H 0.72927 0.626 0.70166 0.0
H1832 H 0.71312 0.60033 0.72273 0.0
C1833 C 0.66066 0.52833 0.73514 0.0
C1834 C 0.69363 0.55038 0.69705 0.0
C1835 C 0.64335 0.51087 0.7411 0.0
C1836 C 0.76154 0.64094 0.69608 0.0
C1837 C 0.74211 0.62384 0.6984 0.0
C1838 C 0.70778 0.58662 0.71522 0.0
C1839 C 0.66392 0.53213 0.71751 0.0
C1840 C 0.68249 0.55086 0.71135 0.0
C1841 C 0.73938 0.60423 0.69686 0.0
C1842 C 0.71925 0.58606 0.70121 0.0
H1843 H 0.6211 0.48972 0.70276 0.0
H1844 H 0.65135 0.52039 0.69231 0.0
H1845 H 0.6813 0.57035 0.73106 0.0
H1846 H 0.78885 0.61724 0.68716 0.0
H1847 H 0.75506 0.58738 0.6913 0.0
C1848 C 0.4977 0.11463 0.72582 0.0
C1849 C 0.51741 0.13205 0.72563 0.0
C1850 C 0.48021 0.11559 0.72089 0.0
C1851 C 0.46256 0.14642 0.69735 0.0
H1852 H 0.41494 0.1195 0.72695 0.0
C1853 C 0.39308 0.16024 0.69293 0.0
C1854 C 0.37324 0.14367 0.69566 0.0
C1855 C 0.4106 0.15835 0.69544 0.0
C1856 C 0.42794 0.12685 0.71836 0.0
H1857 H 0.53407 0.16411 0.71964 0.0
H1858 H 0.50355 0.16571 0.71085 0.0
H1859 H 0.44548 0.11694 0.73294 0.0
H1860 H 0.35613 0.11241 0.70369 0.0
H1861 H 0.38659 0.10886 0.70776 0.0
H1862 H 0.44493 0.1563 0.68273 0.0
C1863 C 0.50169 0.15126 0.71476 0.0
C1864 C 0.44551 0.1254 0.72182 0.0
C1865 C 0.5192 0.15033 0.71979 0.0
C1866 C 0.37126 0.12532 0.70129 0.0
C1867 C 0.38874 0.12337 0.70372 0.0
C1868 C 0.4449 0.14778 0.69381 0.0
C1869 C 0.48192 0.13397 0.71552 0.0
C1870 C 0.46308 0.13521 0.71142 0.0
C1871 C 0.40868 0.13989 0.70094 0.0
C1872 C 0.42736 0.13807 0.70432 0.0
H1873 H 0.49574 0.1002 0.7299 0.0
H1874 H 0.46528 0.10189 0.72132 0.0
H1875 H 0.47574 0.15398 0.68896 0.0
H1876 H 0.39514 0.17477 0.68914 0.0
H1877 H 0.42566 0.17151 0.69347 0.0
C1878 C 0.86917 0.38132 0.71491 0.0
C1879 C 0.87619 0.38825 0.73164 0.0
C1880 C 0.8679 0.36346 0.70877 0.0
C1881 C 0.8666 0.31666 0.72458 0.0
H1882 H 0.87448 0.30903 0.67671 0.0
C1883 C 0.87448 0.24958 0.69986 0.0
C1884 C 0.86017 0.2377 0.68709 0.0
C1885 C 0.87702 0.26842 0.70445 0.0
C1886 C 0.87219 0.311 0.69009 0.0
H1887 H 0.88772 0.38166 0.75488 0.0
H1888 H 0.88695 0.35165 0.74383 0.0
H1889 H 0.87862 0.34142 0.68637 0.0
H1890 H 0.83737 0.23652 0.66918 0.0
H1891 H 0.84253 0.26989 0.67674 0.0
H1892 H 0.86089 0.28645 0.7283 0.0
C1893 C 0.88168 0.35955 0.73559 0.0
C1894 C 0.87443 0.32949 0.69565 0.0
C1895 C 0.88255 0.37714 0.74183 0.0
C1896 C 0.84881 0.24538 0.67878 0.0
C1897 C 0.85168 0.26444 0.68315 0.0
C1898 C 0.86478 0.2984 0.71908 0.0
C1899 C 0.87394 0.35219 0.7191 0.0
C1900 C 0.87168 0.33259 0.713 0.0
C1901 C 0.86558 0.27596 0.6962 0.0
C1902 C 0.86754 0.2954 0.70181 0.0
H1903 H 0.86444 0.38959 0.70655 0.0
H1904 H 0.8617 0.35827 0.69605 0.0
H1905 H 0.86376 0.31814 0.73793 0.0
H1906 H 0.88352 0.24424 0.70657 0.0
H1907 H 0.8879 0.2771 0.71451 0.0
C1908 C 0.15821 0.95384 0.64687 0.0
C1909 C 0.15688 0.9481 0.62954 0.0
C1910 C 0.17496 0.97197 0.65287 0.0
C1911 C 0.22878 0.00841 0.64632 0.0
H1912 H 0.21719 0.04935 0.66377 0.0
C1913 C 0.2942 0.09074 0.65781 0.0
C1914 C 0.29195 0.10247 0.67065 0.0
C1915 C 0.27792 0.07143 0.65366 0.0
C1916 C 0.22083 0.03804 0.65933 0.0
H1917 H 0.17266 0.95734 0.60508 0.0
H1918 H 0.20225 0.9882 0.61588 0.0
H1919 H 0.18878 0.0161 0.65573 0.0
H1920 H 0.27048 0.10292 0.68896 0.0
H1921 H 0.24283 0.06891 0.68274 0.0
H1922 H 0.26069 0.02979 0.65038 0.0
C1923 C 0.19012 0.97863 0.62469 0.0
C1924 C 0.20447 0.019 0.65461 0.0
C1925 C 0.17318 0.96079 0.61857 0.0
C1926 C 0.27302 0.09426 0.67929 0.0
C1927 C 0.25691 0.07476 0.67544 0.0
C1928 C 0.24516 0.02727 0.65142 0.0
C1929 C 0.19101 0.98452 0.64181 0.0
C1930 C 0.20832 0.00413 0.64788 0.0
C1931 C 0.25901 0.06307 0.66244 0.0
C1932 C 0.24147 0.04252 0.65779 0.0
H1933 H 0.1463 0.94439 0.65585 0.0
H1934 H 0.17541 0.97618 0.66618 0.0
H1935 H 0.23209 0.99709 0.64124 0.0
H1936 H 0.30844 0.09657 0.65071 0.0
H1937 H 0.28015 0.06328 0.6433 0.0
C1938 C 0.03985 0.19139 0.63763 0.0
C1939 C 0.05625 0.20905 0.63054 0.0
C1940 C 0.02184 0.19101 0.64309 0.0
C1941 C 0.99171 0.2168 0.63609 0.0
H1942 H 0.96229 0.18783 0.67672 0.0
C1943 C 0.91829 0.21702 0.65821 0.0
C1944 C 0.90184 0.19858 0.66394 0.0
C1945 C 0.93786 0.21928 0.65575 0.0
C1946 C 0.97022 0.19584 0.66525 0.0
H1947 H 0.06669 0.24041 0.62425 0.0
H1948 H 0.03527 0.23971 0.63367 0.0
H1949 H 0.99509 0.18994 0.66948 0.0
H1950 H 0.89278 0.16778 0.67097 0.0
H1951 H 0.92685 0.17162 0.66671 0.0
H1952 H 0.96679 0.22242 0.63164 0.0
C1953 C 0.03623 0.22604 0.63478 0.0
C1954 C 0.98904 0.19707 0.66111 0.0
C1955 C 0.05427 0.22643 0.62936 0.0
C1956 C 0.90529 0.18236 0.66705 0.0
C1957 C 0.92486 0.18458 0.66457 0.0
C1958 C 0.9729 0.21553 0.6402 0.0
C1959 C 0.01968 0.20826 0.64156 0.0
C1960 C 1.0 0.20749 0.64642 0.0
C1961 C 0.94137 0.20301 0.65868 0.0
C1962 C 0.96183 0.20496 0.65479 0.0
H1963 H 0.04066 0.17762 0.63851 0.0
H1964 H 0.00933 0.17697 0.64802 0.0
H1965 H 0.99949 0.22465 0.62453 0.0
H1966 H 0.91596 0.22969 0.65553 0.0
H1967 H 0.95023 0.23377 0.65143 0.0
C1968 C 0.81507 0.85458 0.63924 0.0
C1969 C 0.80922 0.85478 0.62214 0.0
C1970 C 0.8155 0.83774 0.64579 0.0
C1971 C 0.79402 0.78336 0.64073 0.0
H1972 H 0.8456 0.79213 0.66019 0.0
C1973 C 0.80796 0.71683 0.655 0.0
C1974 C 0.8209 0.71858 0.66876 0.0
C1975 C 0.80563 0.73324 0.6502 0.0
C1976 C 0.83091 0.78935 0.65515 0.0
H1977 H 0.79912 0.83711 0.59862 0.0
H1978 H 0.79904 0.80749 0.61036 0.0
H1979 H 0.84265 0.82099 0.65068 0.0
H1980 H 0.84164 0.73916 0.68814 0.0
H1981 H 0.83657 0.76718 0.68057 0.0
H1982 H 0.78198 0.75184 0.64552 0.0
C1983 C 0.80336 0.82048 0.61859 0.0
C1984 C 0.82931 0.80593 0.64961 0.0
C1985 C 0.8033 0.83745 0.61193 0.0
C1986 C 0.83123 0.73706 0.67771 0.0
C1987 C 0.8286 0.75334 0.67313 0.0
C1988 C 0.79546 0.76678 0.64656 0.0
C1989 C 0.8097 0.82058 0.63551 0.0
C1990 C 0.81093 0.80306 0.64219 0.0
C1991 C 0.81595 0.75177 0.65917 0.0
C1992 C 0.81402 0.7695 0.65368 0.0
H1993 H 0.81933 0.86743 0.64761 0.0
H1994 H 0.82028 0.83808 0.65894 0.0
H1995 H 0.77962 0.78081 0.63517 0.0
H1996 H 0.79986 0.70291 0.64768 0.0
H1997 H 0.79608 0.73148 0.63916 0.0
C1998 C 0.03131 0.84076 0.64424 0.0
C1999 C 0.02736 0.85626 0.63919 0.0
C2000 C 0.01499 0.82121 0.64774 0.0
C2001 C 0.96326 0.79541 0.66412 0.0
H2002 H 0.95264 0.7476 0.63834 0.0
C2003 C 0.88461 0.72233 0.66717 0.0
C2004 C 0.88347 0.70348 0.66531 0.0
C2005 C 0.90336 0.74029 0.66514 0.0
C2006 C 0.95555 0.76066 0.64596 0.0
H2007 H 1.00287 0.86268 0.63287 0.0
H2008 H 0.97471 0.82905 0.63977 0.0
H2009 H 0.98367 0.78002 0.63253 0.0
H2010 H 0.90082 0.68852 0.65935 0.0
H2011 H 0.9339 0.71992 0.6564 0.0
H2012 H 0.93563 0.77632 0.67787 0.0
C2013 C 0.99045 0.83213 0.64107 0.0
C2014 C 0.9733 0.77924 0.64253 0.0
C2015 C 0.00665 0.85144 0.63723 0.0
C2016 C 0.9014 0.70291 0.66108 0.0
C2017 C 0.92029 0.72092 0.65926 0.0
C2018 C 0.94578 0.77682 0.66781 0.0
C2019 C 0.99445 0.81692 0.64654 0.0
C2020 C 0.97702 0.79683 0.65132 0.0
C2021 C 0.92152 0.7399 0.66118 0.0
C2022 C 0.94135 0.75925 0.65847 0.0
H2023 H 0.04698 0.84384 0.64603 0.0
H2024 H 0.0184 0.80966 0.65193 0.0
H2025 H 0.96596 0.80878 0.6712 0.0
H2026 H 0.87094 0.72328 0.66981 0.0
H2027 H 0.90341 0.75448 0.66624 0.0
C2028 C 0.1689 0.18608 0.63186 0.0
C2029 C 0.15696 0.18418 0.64629 0.0
C2030 C 0.18834 0.18767 0.63372 0.0
C2031 C 0.21781 0.17537 0.66532 0.0
H2032 H 0.26297 0.20415 0.63372 0.0
C2033 C 0.28771 0.1628 0.66476 0.0
C2034 C 0.30736 0.17967 0.66215 0.0
C2035 C 0.26997 0.16434 0.66261 0.0
C2036 C 0.25061 0.19619 0.64279 0.0
H2037 H 0.15641 0.18379 0.67395 0.0
H2038 H 0.19052 0.18745 0.6773 0.0
H2039 H 0.23185 0.20667 0.63084 0.0
H2040 H 0.32387 0.21101 0.65425 0.0
H2041 H 0.29293 0.21398 0.6509 0.0
H2042 H 0.23669 0.16533 0.67757 0.0
C2043 C 0.18475 0.18697 0.66449 0.0
C2044 C 0.23261 0.19743 0.64099 0.0
C2045 C 0.16528 0.18511 0.66261 0.0
C2046 C 0.30889 0.19789 0.65664 0.0
C2047 C 0.29114 0.1995 0.65459 0.0
C2048 C 0.23581 0.17424 0.66718 0.0
C2049 C 0.1963 0.18759 0.65009 0.0
C2050 C 0.21589 0.18697 0.6522 0.0
C2051 C 0.27141 0.18277 0.65768 0.0
C2052 C 0.25243 0.18449 0.65586 0.0
H2053 H 0.16272 0.18518 0.61913 0.0
H2054 H 0.19664 0.18798 0.62231 0.0
H2055 H 0.20523 0.16679 0.67406 0.0
H2056 H 0.28602 0.14836 0.66841 0.0
H2057 H 0.25508 0.15097 0.66469 0.0
C2058 C 0.83866 0.98559 0.62257 0.0
C2059 C 0.85308 0.98214 0.63133 0.0
C2060 C 0.83602 0.00197 0.62705 0.0
C2061 C 0.8641 0.05209 0.64755 0.0
H2062 H 0.81045 0.04786 0.65198 0.0
C2063 C 0.85622 0.11639 0.67744 0.0
C2064 C 0.84259 0.12177 0.66982 0.0
C2065 C 0.85607 0.0987 0.67261 0.0
C2066 C 0.82554 0.04933 0.65059 0.0
H2067 H 0.87522 0.9926 0.65224 0.0
H2068 H 0.87077 0.02116 0.6599 0.0
H2069 H 0.81273 0.01801 0.64368 0.0
H2070 H 0.81784 0.11245 0.65123 0.0
H2071 H 0.81785 0.08159 0.64253 0.0
H2072 H 0.87701 0.08329 0.6543 0.0
C2073 C 0.86178 0.01145 0.64937 0.0
C2074 C 0.82683 0.03224 0.64586 0.0
C2075 C 0.86435 0.99509 0.64495 0.0
C2076 C 0.82852 0.10876 0.6574 0.0
C2077 C 0.82845 0.09102 0.65247 0.0
C2078 C 0.86282 0.06912 0.65219 0.0
C2079 C 0.84781 0.01525 0.64033 0.0
C2080 C 0.84615 0.03341 0.64454 0.0
C2081 C 0.84247 0.08597 0.65985 0.0
C2082 C 0.84354 0.0679 0.65404 0.0
H2083 H 0.82984 0.97598 0.61194 0.0
H2084 H 0.82522 0.00459 0.6198 0.0
H2085 H 0.87922 0.0536 0.64626 0.0
H2086 H 0.86743 0.12605 0.68691 0.0
H2087 H 0.8668 0.0951 0.67881 0.0
C2088 C 0.53554 0.3567 0.70176 0.0
C2089 C 0.53891 0.36934 0.71599 0.0
C2090 C 0.5164 0.33941 0.69901 0.0
C2091 C 0.4612 0.31394 0.70761 0.0
H2092 H 0.46443 0.26513 0.70098 0.0
C2093 C 0.38845 0.23356 0.69956 0.0
C2094 C 0.39015 0.22037 0.6879 0.0
C2095 C 0.40576 0.25227 0.70384 0.0
C2096 C 0.46318 0.27861 0.70256 0.0
H2097 H 0.52424 0.37424 0.73795 0.0
H2098 H 0.4904 0.34404 0.73283 0.0
H2099 H 0.49575 0.29718 0.70636 0.0
H2100 H 0.41158 0.21666 0.67169 0.0
H2101 H 0.4411 0.24924 0.67838 0.0
H2102 H 0.4286 0.2954 0.70327 0.0
C2103 C 0.50284 0.34757 0.72396 0.0
C2104 C 0.48117 0.29697 0.70574 0.0
C2105 C 0.52218 0.36487 0.72685 0.0
C2106 C 0.40947 0.22644 0.68051 0.0
C2107 C 0.42661 0.24511 0.6846 0.0
C2108 C 0.44311 0.29552 0.70419 0.0
C2109 C 0.49998 0.33441 0.71026 0.0
C2110 C 0.48044 0.31488 0.70804 0.0
C2111 C 0.42513 0.25819 0.69651 0.0
C2112 C 0.44394 0.27766 0.70132 0.0
H2113 H 0.54786 0.35996 0.69284 0.0
H2114 H 0.51449 0.32975 0.68815 0.0
H2115 H 0.46023 0.32756 0.70933 0.0
H2116 H 0.37383 0.22936 0.70558 0.0
H2117 H 0.40405 0.26186 0.71316 0.0
C2118 C 0.65328 0.15359 0.72534 0.0
C2119 C 0.6432 0.15616 0.71122 0.0
C2120 C 0.67088 0.15176 0.72301 0.0
C2121 C 0.71225 0.16429 0.69084 0.0
H2122 H 0.72821 0.13476 0.7217 0.0
C2123 C 0.79498 0.17681 0.69128 0.0
C2124 C 0.79762 0.16005 0.69403 0.0
C2125 C 0.77556 0.17509 0.69313 0.0
C2126 C 0.72392 0.14291 0.71281 0.0
H2127 H 0.64275 0.15765 0.68362 0.0
H2128 H 0.67271 0.15347 0.67943 0.0
H2129 H 0.69471 0.13242 0.72497 0.0
H2130 H 0.78234 0.12862 0.70168 0.0
H2131 H 0.74821 0.12532 0.7045 0.0
H2132 H 0.74115 0.17429 0.67836 0.0
C2133 C 0.66766 0.1536 0.69236 0.0
C2134 C 0.70475 0.14179 0.71484 0.0
C2135 C 0.65031 0.15573 0.69472 0.0
C2136 C 0.7806 0.14168 0.69922 0.0
C2137 C 0.76111 0.13988 0.70095 0.0
C2138 C 0.7313 0.16526 0.68872 0.0
C2139 C 0.67865 0.15225 0.70648 0.0
C2140 C 0.69867 0.15258 0.70396 0.0
C2141 C 0.75829 0.15655 0.69789 0.0
C2142 C 0.73754 0.15478 0.69979 0.0
H2143 H 0.64823 0.15414 0.7382 0.0
H2144 H 0.67893 0.15093 0.73424 0.0
H2145 H 0.70841 0.17312 0.68233 0.0
H2146 H 0.80796 0.19136 0.68786 0.0
H2147 H 0.7742 0.18842 0.69106 0.0
C2148 C 0.81878 0.47367 0.71339 0.0
C2149 C 0.83057 0.47173 0.72649 0.0
C2150 C 0.82097 0.49251 0.70955 0.0
C2151 C 0.85561 0.54754 0.71341 0.0
H2152 H 0.80493 0.54889 0.70658 0.0
C2153 C 0.85281 0.62187 0.70203 0.0
C2154 C 0.83853 0.62061 0.68964 0.0
C2155 C 0.8531 0.60441 0.70721 0.0
C2156 C 0.81925 0.54877 0.70827 0.0
H2157 H 0.85432 0.48826 0.74558 0.0
H2158 H 0.85828 0.52135 0.73871 0.0
H2159 H 0.80327 0.5172 0.71419 0.0
H2160 H 0.81341 0.59992 0.67301 0.0
H2161 H 0.8144 0.56996 0.68155 0.0
H2162 H 0.87156 0.57919 0.70724 0.0
C2163 C 0.84736 0.50819 0.73143 0.0
C2164 C 0.81829 0.5306 0.71266 0.0
C2165 C 0.8451 0.48925 0.73533 0.0
C2166 C 0.82482 0.60161 0.6824 0.0
C2167 C 0.82517 0.58429 0.6875 0.0
C2168 C 0.85658 0.5658 0.70893 0.0
C2169 C 0.83508 0.50994 0.71866 0.0
C2170 C 0.83642 0.52968 0.715 0.0
C2171 C 0.83907 0.58538 0.70014 0.0
C2172 C 0.83838 0.56651 0.70603 0.0
H2173 H 0.80782 0.46059 0.70603 0.0
H2174 H 0.81161 0.49345 0.69939 0.0
H2175 H 0.86985 0.54726 0.71509 0.0
H2176 H 0.86355 0.63625 0.70791 0.0
H2177 H 0.86394 0.60573 0.71704 0.0
C2178 C 0.46202 0.90392 0.24672 0.0
C2179 C 0.4408 0.89305 0.2504 0.0
C2180 C 0.46902 0.91397 0.23107 0.0
C2181 C 0.45304 0.9363 0.1967 0.0
H2182 H 0.4981 0.93759 0.17125 0.0
C2183 C 0.49476 0.99341 0.14249 0.0
C2184 C 0.49965 0.98635 0.12759 0.0
C2185 C 0.48705 0.98106 0.15688 0.0
C2186 C 0.48539 0.93724 0.17816 0.0
H2187 H 0.41028 0.88323 0.24001 0.0
H2188 H 0.42246 0.90085 0.21294 0.0
H2189 H 0.48584 0.9174 0.19737 0.0
H2190 H 0.50019 0.96068 0.11612 0.0
H2191 H 0.48665 0.93901 0.14135 0.0
H2192 H 0.45256 0.95612 0.17759 0.0
C2193 C 0.43373 0.90197 0.22226 0.0
C2194 C 0.47852 0.92585 0.1932 0.0
C2195 C 0.42675 0.89189 0.23782 0.0
C2196 C 0.49644 0.96651 0.12737 0.0
C2197 C 0.48889 0.95419 0.14187 0.0
C2198 C 0.46001 0.94779 0.18178 0.0
C2199 C 0.45495 0.9134 0.21878 0.0
C2200 C 0.46225 0.92526 0.20266 0.0
C2201 C 0.48414 0.96135 0.15681 0.0
C2202 C 0.47631 0.94848 0.17235 0.0
H2203 H 0.47326 0.9052 0.25614 0.0
H2204 H 0.48548 0.92275 0.22883 0.0
H2205 H 0.44063 0.93636 0.20376 0.0
H2206 H 0.49689 0.00855 0.14302 0.0
H2207 H 0.48372 0.98712 0.16821 0.0
C2208 C 0.10882 0.56393 0.24302 0.0
C2209 C 0.11817 0.55206 0.24548 0.0
C2210 C 0.09685 0.56128 0.22841 0.0
C2211 C 0.08882 0.54157 0.18423 0.0
H2212 H 0.03583 0.53898 0.18754 0.0
C2213 C 0.03101 0.51401 0.1281 0.0
C2214 C 0.01989 0.52409 0.12509 0.0
C2215 C 0.04318 0.5182 0.14279 0.0
C2216 C 0.05072 0.53994 0.18636 0.0
H2217 H 0.12255 0.52832 0.23442 0.0
H2218 H 0.10151 0.52353 0.20915 0.0
H2219 H 0.05682 0.54515 0.21324 0.0
H2220 H 0.01304 0.54667 0.13505 0.0
H2221 H 0.03438 0.55408 0.16067 0.0
H2222 H 0.08282 0.53638 0.1574 0.0
C2223 C 0.10348 0.53494 0.21844 0.0
C2224 C 0.06273 0.54346 0.20109 0.0
C2225 C 0.11532 0.53752 0.23303 0.0
C2226 C 0.0212 0.53846 0.13712 0.0
C2227 C 0.03342 0.54269 0.1518 0.0
C2228 C 0.07687 0.53812 0.16952 0.0
C2229 C 0.09417 0.54683 0.21591 0.0
C2230 C 0.08181 0.5441 0.20021 0.0
C2231 C 0.04457 0.53262 0.15481 0.0
C2232 C 0.05758 0.53705 0.17042 0.0
H2233 H 0.1107 0.57521 0.25243 0.0
H2234 H 0.08997 0.57075 0.22676 0.0
H2235 H 0.10363 0.54235 0.18308 0.0
H2236 H 0.03006 0.50263 0.11922 0.0
H2237 H 0.05125 0.5099 0.14486 0.0
C2238 C 0.47273 0.55348 0.25066 0.0
C2239 C 0.45893 0.56092 0.25138 0.0
C2240 C 0.47691 0.54724 0.23508 0.0
C2241 C 0.48115 0.55984 0.19033 0.0
H2242 H 0.48472 0.5113 0.18294 0.0
C2243 C 0.53084 0.55205 0.13782 0.0
C2244 C 0.521 0.53481 0.12727 0.0
C2245 C 0.5209 0.55381 0.15228 0.0
C2246 C 0.48363 0.52483 0.18481 0.0
H2247 H 0.43825 0.56717 0.23656 0.0
H2248 H 0.44588 0.5566 0.20919 0.0
H2249 H 0.47061 0.51576 0.20987 0.0
H2250 H 0.4932 0.50583 0.12355 0.0
H2251 H 0.47597 0.50865 0.14928 0.0
H2252 H 0.49496 0.56932 0.16562 0.0
C2253 C 0.45326 0.55541 0.22072 0.0
C2254 C 0.47566 0.52741 0.2002 0.0
C2255 C 0.44879 0.5613 0.23636 0.0
C2256 C 0.50105 0.5193 0.13148 0.0
C2257 C 0.49127 0.52087 0.14617 0.0
C2258 C 0.48947 0.55744 0.17512 0.0
C2259 C 0.46767 0.54871 0.21989 0.0
C2260 C 0.47448 0.54501 0.20313 0.0
C2261 C 0.50109 0.53819 0.15666 0.0
C2262 C 0.49096 0.54001 0.17228 0.0
H2263 H 0.48076 0.5531 0.26209 0.0
H2264 H 0.48818 0.54226 0.23477 0.0
H2265 H 0.4806 0.57364 0.19233 0.0
H2266 H 0.54618 0.56425 0.13479 0.0
H2267 H 0.52885 0.56725 0.16022 0.0
C2268 C 0.89375 0.44468 0.79014 0.0
C2269 C 0.90266 0.44469 0.77434 0.0
C2270 C 0.90583 0.45122 0.80496 0.0
C2271 C 0.95823 0.48031 0.82232 0.0
H2272 H 0.93847 0.4391 0.85754 0.0
C2273 C 0.99384 0.49066 0.89075 0.0
C2274 C 0.99872 0.47569 0.89525 0.0
C2275 C 0.98266 0.48866 0.87578 0.0
C2276 C 0.94411 0.45075 0.84783 0.0
H2277 H 0.9313 0.45267 0.76144 0.0
H2278 H 0.95259 0.46454 0.78743 0.0
H2279 H 0.91775 0.43359 0.83173 0.0
H2280 H 0.99573 0.44692 0.88783 0.0
H2281 H 0.97571 0.44317 0.86188 0.0
H2282 H 0.98461 0.49747 0.83857 0.0
C2283 C 0.93623 0.45934 0.78829 0.0
C2284 C 0.93222 0.44768 0.83315 0.0
C2285 C 0.92408 0.45249 0.77348 0.0
C2286 C 0.99226 0.45871 0.88456 0.0
C2287 C 0.98075 0.45652 0.86981 0.0
C2288 C 0.96996 0.48357 0.8372 0.0
C2289 C 0.92709 0.45818 0.80423 0.0
C2290 C 0.93926 0.46232 0.82019 0.0
C2291 C 0.97583 0.47145 0.86532 0.0
C2292 C 0.96309 0.46867 0.84995 0.0
H2293 H 0.87724 0.43856 0.79119 0.0
H2294 H 0.89846 0.45028 0.8171 0.0
H2295 H 0.96395 0.49181 0.81248 0.0
H2296 H 0.99874 0.50391 0.89878 0.0
H2297 H 0.97895 0.50031 0.87258 0.0
C2298 C 0.55255 0.45119 0.77628 0.0
C2299 C 0.57402 0.46262 0.77396 0.0
C2300 C 0.54361 0.45279 0.79149 0.0
C2301 C 0.55603 0.46919 0.83675 0.0
H2302 H 0.50687 0.47401 0.8345 0.0
C2303 C 0.52743 0.49602 0.89433 0.0
C2304 C 0.50603 0.48675 0.89695 0.0
C2305 C 0.53521 0.49175 0.87962 0.0
C2306 C 0.52044 0.4724 0.83539 0.0
H2307 H 0.60298 0.48422 0.78603 0.0
H2308 H 0.58742 0.48724 0.81233 0.0
H2309 H 0.52113 0.46866 0.80829 0.0
H2310 H 0.47606 0.4652 0.88642 0.0
H2311 H 0.48962 0.45772 0.86082 0.0
H2312 H 0.55544 0.47308 0.86382 0.0
C2313 C 0.57745 0.47697 0.80247 0.0
C2314 C 0.52861 0.46933 0.82035 0.0
C2315 C 0.58635 0.47543 0.78729 0.0
C2316 C 0.49262 0.47287 0.88465 0.0
C2317 C 0.50039 0.46859 0.86996 0.0
C2318 C 0.54785 0.47224 0.85178 0.0
C2319 C 0.55597 0.46573 0.80476 0.0
C2320 C 0.54662 0.46788 0.82083 0.0
C2321 C 0.52178 0.47808 0.8672 0.0
C2322 C 0.53005 0.47406 0.85128 0.0
H2323 H 0.54263 0.44122 0.76624 0.0
H2324 H 0.52702 0.44379 0.79292 0.0
H2325 H 0.56973 0.4678 0.8376 0.0
H2326 H 0.53818 0.50698 0.90343 0.0
H2327 H 0.55177 0.49956 0.87779 0.0
C2328 C 0.56302 0.11519 0.78304 0.0
C2329 C 0.5486 0.10744 0.76954 0.0
C2330 C 0.55933 0.10442 0.79837 0.0
C2331 C 0.52552 0.05331 0.8175 0.0
H2332 H 0.53805 0.08324 0.86023 0.0
C2333 C 0.48546 0.01598 0.88038 0.0
C2334 C 0.49804 0.01915 0.89481 0.0
C2335 C 0.49364 0.02722 0.86549 0.0
C2336 C 0.53467 0.07471 0.84839 0.0
H2337 H 0.51948 0.0818 0.76134 0.0
H2338 H 0.51273 0.0635 0.78801 0.0
H2339 H 0.54909 0.10161 0.8332 0.0
H2340 H 0.52914 0.03729 0.90489 0.0
H2341 H 0.54325 0.05743 0.87895 0.0
H2342 H 0.51035 0.02647 0.83269 0.0
C2343 C 0.52706 0.07772 0.78683 0.0
C2344 C 0.54107 0.08521 0.83289 0.0
C2345 C 0.53079 0.08838 0.77154 0.0
C2346 C 0.51892 0.0345 0.89413 0.0
C2347 C 0.52705 0.04599 0.87924 0.0
C2348 C 0.51892 0.04288 0.83294 0.0
C2349 C 0.54113 0.08566 0.80056 0.0
C2350 C 0.53624 0.07464 0.81719 0.0
C2351 C 0.51455 0.04218 0.86469 0.0
C2352 C 0.52311 0.05345 0.84852 0.0
H2353 H 0.57685 0.12987 0.78198 0.0
H2354 H 0.57067 0.1109 0.80855 0.0
H2355 H 0.52198 0.0446 0.80576 0.0
H2356 H 0.46919 0.00475 0.88052 0.0
H2357 H 0.48355 0.02425 0.85458 0.0
C2358 C 0.13103 0.23897 0.58211 0.0
C2359 C 0.10958 0.22772 0.58463 0.0
C2360 C 0.13912 0.24895 0.56662 0.0
C2361 C 0.12531 0.2507 0.52112 0.0
H2362 H 0.1719 0.30541 0.52304 0.0
C2363 C 0.15137 0.30518 0.46307 0.0
C2364 C 0.17267 0.31822 0.46082 0.0
C2365 C 0.14395 0.29303 0.47766 0.0
C2366 C 0.15907 0.29004 0.52222 0.0
H2367 H 0.07983 0.21751 0.57251 0.0
H2368 H 0.09389 0.23518 0.54572 0.0
H2369 H 0.15874 0.28625 0.54935 0.0
H2370 H 0.20289 0.3279 0.47176 0.0
H2371 H 0.18999 0.30673 0.49709 0.0
H2372 H 0.12554 0.25462 0.49398 0.0
C2373 C 0.10451 0.23624 0.55565 0.0
C2374 C 0.15152 0.27903 0.53734 0.0
C2375 C 0.09644 0.2263 0.57112 0.0
C2376 C 0.18637 0.31835 0.47325 0.0
C2377 C 0.17897 0.30622 0.4878 0.0
C2378 C 0.13287 0.26173 0.50599 0.0
C2379 C 0.12596 0.24786 0.55324 0.0
C2380 C 0.13448 0.25925 0.53701 0.0
C2381 C 0.15765 0.2936 0.49033 0.0
C2382 C 0.1498 0.28158 0.50635 0.0
H2383 H 0.14159 0.24043 0.59226 0.0
H2384 H 0.15572 0.25756 0.56513 0.0
H2385 H 0.11236 0.2354 0.52035 0.0
H2386 H 0.14039 0.30484 0.45383 0.0
H2387 H 0.12742 0.28364 0.47926 0.0
C2388 C 0.76143 0.87129 0.58092 0.0
C2389 C 0.78237 0.8864 0.58056 0.0
C2390 C 0.74863 0.86805 0.56679 0.0
C2391 C 0.74396 0.89159 0.52704 0.0
H2392 H 0.70901 0.83601 0.51197 0.0
C2393 C 0.69515 0.84502 0.46332 0.0
C2394 C 0.68426 0.85522 0.45975 0.0
C2395 C 0.70653 0.84897 0.47847 0.0
C2396 C 0.71875 0.85161 0.51598 0.0
H2397 H 0.80615 0.91013 0.56509 0.0
H2398 H 0.78378 0.90464 0.54058 0.0
H2399 H 0.72977 0.84303 0.53791 0.0
H2400 H 0.67703 0.87775 0.46914 0.0
H2401 H 0.69679 0.88454 0.49564 0.0
H2402 H 0.73321 0.90017 0.50493 0.0
C2403 C 0.77722 0.89541 0.55185 0.0
C2404 C 0.73045 0.85562 0.53094 0.0
C2405 C 0.79004 0.89859 0.56593 0.0
C2406 C 0.68509 0.86952 0.47161 0.0
C2407 C 0.69657 0.87355 0.4867 0.0
C2408 C 0.73216 0.88757 0.51213 0.0
C2409 C 0.75646 0.87991 0.55202 0.0
C2410 C 0.74329 0.87566 0.53657 0.0
C2411 C 0.70737 0.86328 0.49032 0.0
C2412 C 0.71954 0.86754 0.50637 0.0
H2413 H 0.75495 0.86184 0.59208 0.0
H2414 H 0.73261 0.85619 0.56739 0.0
H2415 H 0.7536 0.90718 0.53112 0.0
H2416 H 0.69467 0.83381 0.45449 0.0
H2417 H 0.71486 0.84096 0.48081 0.0
C2418 C 0.13845 0.88631 0.58431 0.0
C2419 C 0.12459 0.89369 0.58501 0.0
C2420 C 0.14294 0.88041 0.56869 0.0
C2421 C 0.14775 0.8936 0.52401 0.0
H2422 H 0.15114 0.845 0.51632 0.0
C2423 C 0.19753 0.88599 0.47143 0.0
C2424 C 0.18771 0.86879 0.46083 0.0
C2425 C 0.18755 0.88771 0.48588 0.0
C2426 C 0.15011 0.85855 0.51827 0.0
H2427 H 0.10416 0.9002 0.5701 0.0
H2428 H 0.11233 0.89023 0.54268 0.0
H2429 H 0.1369 0.84927 0.54325 0.0
H2430 H 0.1599 0.83985 0.45701 0.0
H2431 H 0.14258 0.84262 0.4827 0.0
H2432 H 0.16172 0.90327 0.49937 0.0
C2433 C 0.11953 0.88883 0.55425 0.0
C2434 C 0.14207 0.86102 0.53367 0.0
C2435 C 0.11475 0.89438 0.56991 0.0
C2436 C 0.16773 0.85329 0.46496 0.0
C2437 C 0.1579 0.85482 0.47965 0.0
C2438 C 0.15615 0.8913 0.50879 0.0
C2439 C 0.13395 0.88215 0.55345 0.0
C2440 C 0.14094 0.87864 0.53671 0.0
C2441 C 0.16772 0.87209 0.4902 0.0
C2442 C 0.15756 0.87384 0.50584 0.0
H2443 H 0.14625 0.88568 0.59579 0.0
H2444 H 0.15421 0.87544 0.56842 0.0
H2445 H 0.14724 0.9074 0.52609 0.0
H2446 H 0.2129 0.89817 0.46846 0.0
H2447 H 0.1955 0.90111 0.49387 0.0
C2448 C 0.56075 0.77897 0.12454 0.0
C2449 C 0.56953 0.77896 0.10869 0.0
C2450 C 0.57297 0.78567 0.13928 0.0
C2451 C 0.62545 0.81529 0.15627 0.0
H2452 H 0.60657 0.7743 0.19164 0.0
C2453 C 0.66182 0.82641 0.22449 0.0
C2454 C 0.66717 0.81174 0.22887 0.0
C2455 C 0.6504 0.82417 0.20962 0.0
C2456 C 0.61196 0.78589 0.18189 0.0
H2457 H 0.59808 0.78699 0.0956 0.0
H2458 H 0.61962 0.79916 0.12145 0.0
H2459 H 0.5855 0.76838 0.16598 0.0
H2460 H 0.66475 0.78324 0.22135 0.0
H2461 H 0.64429 0.77905 0.19558 0.0
H2462 H 0.65193 0.83282 0.17234 0.0
C2463 C 0.60326 0.79386 0.12242 0.0
C2464 C 0.59988 0.78258 0.1673 0.0
C2465 C 0.59096 0.78684 0.10769 0.0
C2466 C 0.66092 0.79481 0.21817 0.0
C2467 C 0.64916 0.79237 0.20352 0.0
C2468 C 0.63737 0.81879 0.17108 0.0
C2469 C 0.59425 0.79276 0.13841 0.0
C2470 C 0.6066 0.79714 0.15428 0.0
C2471 C 0.64379 0.807 0.19914 0.0
C2472 C 0.63083 0.80397 0.18388 0.0
H2473 H 0.54424 0.77279 0.12569 0.0
H2474 H 0.5657 0.78476 0.15147 0.0
H2475 H 0.63093 0.82673 0.14639 0.0
H2476 H 0.66655 0.83962 0.23254 0.0
H2477 H 0.64634 0.8356 0.2065 0.0
C2478 C 0.23631 0.78386 0.11992 0.0
C2479 C 0.24112 0.79746 0.10628 0.0
C2480 C 0.22807 0.78651 0.1351 0.0
C2481 C 0.22423 0.82552 0.16034 0.0
H2482 H 0.18037 0.77936 0.18378 0.0
C2483 C 0.16215 0.80826 0.21784 0.0
C2484 C 0.17511 0.82216 0.23033 0.0
C2485 C 0.1704 0.80481 0.20305 0.0
C2486 C 0.19256 0.79242 0.17735 0.0
H2487 H 0.24052 0.82423 0.09777 0.0
H2488 H 0.22615 0.82886 0.12425 0.0
H2489 H 0.19374 0.77422 0.15695 0.0
H2490 H 0.20697 0.84324 0.23709 0.0
H2491 H 0.22143 0.83703 0.21132 0.0
H2492 H 0.22279 0.84375 0.18058 0.0
C2493 C 0.22905 0.81631 0.1233 0.0
C2494 C 0.20036 0.78945 0.16206 0.0
C2495 C 0.23725 0.81364 0.10811 0.0
C2496 C 0.19657 0.83233 0.22778 0.0
C2497 C 0.20484 0.82893 0.21293 0.0
C2498 C 0.21648 0.82848 0.17566 0.0
C2499 C 0.22448 0.80285 0.13701 0.0
C2500 C 0.21623 0.80597 0.15333 0.0
C2501 C 0.19183 0.8152 0.20035 0.0
C2502 C 0.20049 0.81197 0.18432 0.0
H2503 H 0.23942 0.77145 0.11908 0.0
H2504 H 0.22498 0.77602 0.14549 0.0
H2505 H 0.23663 0.83854 0.15405 0.0
H2506 H 0.14556 0.79999 0.21951 0.0
H2507 H 0.15994 0.79427 0.19356 0.0
C2508 C 0.21332 0.46021 0.12172 0.0
C2509 C 0.22073 0.4539 0.10791 0.0
C2510 C 0.20938 0.4504 0.13746 0.0
C2511 C 0.21704 0.41357 0.16327 0.0
H2512 H 0.1658 0.40356 0.18408 0.0
C2513 C 0.18817 0.37249 0.22858 0.0
C2514 C 0.16693 0.35841 0.2297 0.0
C2515 C 0.19614 0.38521 0.21434 0.0
C2516 C 0.1801 0.4061 0.17842 0.0
H2517 H 0.2308 0.43301 0.09993 0.0
H2518 H 0.22355 0.41546 0.12745 0.0
H2519 H 0.17774 0.42365 0.15825 0.0
H2520 H 0.13741 0.34708 0.21686 0.0
H2521 H 0.15126 0.36881 0.19204 0.0
H2522 H 0.21888 0.39529 0.18325 0.0
C2523 C 0.22101 0.4282 0.12618 0.0
C2524 C 0.18713 0.4179 0.16369 0.0
C2525 C 0.22515 0.43821 0.11041 0.0
C2526 C 0.15387 0.35754 0.21635 0.0
C2527 C 0.1618 0.37021 0.20218 0.0
C2528 C 0.20995 0.40168 0.17805 0.0
C2529 C 0.21253 0.43383 0.13976 0.0
C2530 C 0.20566 0.42176 0.15585 0.0
C2531 C 0.18304 0.38422 0.20095 0.0
C2532 C 0.19127 0.39765 0.18572 0.0
H2533 H 0.21005 0.47247 0.12019 0.0
H2534 H 0.20341 0.45554 0.14773 0.0
H2535 H 0.23144 0.41635 0.15767 0.0
H2536 H 0.19869 0.37345 0.23856 0.0
H2537 H 0.21254 0.39593 0.21389 0.0
C2538 C 0.7821 0.58402 0.91734 0.0
C2539 C 0.77764 0.5639 0.91937 0.0
C2540 C 0.79014 0.59426 0.90198 0.0
C2541 C 0.79371 0.58578 0.85598 0.0
H2542 H 0.83686 0.64219 0.85678 0.0
C2543 C 0.81708 0.63826 0.7965 0.0
C2544 C 0.83821 0.65223 0.79434 0.0
C2545 C 0.81007 0.62639 0.81128 0.0
C2546 C 0.82492 0.62639 0.8563 0.0
H2547 H 0.77821 0.53878 0.90681 0.0
H2548 H 0.79242 0.55675 0.87995 0.0
H2549 H 0.82454 0.62381 0.88356 0.0
H2550 H 0.86858 0.66378 0.80567 0.0
H2551 H 0.85636 0.64325 0.83138 0.0
H2552 H 0.79415 0.58842 0.82866 0.0
C2553 C 0.78957 0.56455 0.89026 0.0
C2554 C 0.81771 0.61591 0.87168 0.0
C2555 C 0.78164 0.55433 0.9057 0.0
C2556 C 0.85216 0.65354 0.80707 0.0
C2557 C 0.84516 0.64175 0.82182 0.0
C2558 C 0.80084 0.59632 0.84057 0.0
C2559 C 0.79385 0.58462 0.8882 0.0
C2560 C 0.80196 0.5955 0.87174 0.0
C2561 C 0.824 0.62825 0.82425 0.0
C2562 C 0.81653 0.61677 0.84055 0.0
H2563 H 0.77932 0.59187 0.92766 0.0
H2564 H 0.79308 0.60964 0.90079 0.0
H2565 H 0.78143 0.57011 0.85558 0.0
H2566 H 0.80588 0.63698 0.78704 0.0
H2567 H 0.79364 0.61626 0.8128 0.0
C2568 C 0.45994 0.23346 0.89927 0.0
C2569 C 0.45267 0.22112 0.91385 0.0
C2570 C 0.44695 0.22999 0.88526 0.0
C2571 C 0.40035 0.18958 0.86445 0.0
H2572 H 0.40198 0.23387 0.83883 0.0
C2573 C 0.35358 0.20293 0.80591 0.0
C2574 C 0.35252 0.18856 0.79402 0.0
C2575 C 0.36536 0.20708 0.82084 0.0
C2576 C 0.40124 0.22132 0.84591 0.0
H2577 H 0.42577 0.19591 0.92533 0.0
H2578 H 0.40308 0.18981 0.90079 0.0
H2579 H 0.42271 0.24108 0.86481 0.0
H2580 H 0.36289 0.16717 0.78853 0.0
H2581 H 0.38368 0.17458 0.81452 0.0
H2582 H 0.3788 0.16983 0.84561 0.0
C2583 C 0.41895 0.20201 0.90016 0.0
C2584 C 0.41325 0.22547 0.86071 0.0
C2585 C 0.43194 0.20551 0.91421 0.0
C2586 C 0.36354 0.17844 0.79738 0.0
C2587 C 0.37526 0.18253 0.81235 0.0
C2588 C 0.38841 0.18545 0.84962 0.0
C2589 C 0.42638 0.21407 0.88545 0.0
C2590 C 0.413 0.20965 0.87011 0.0
C2591 C 0.37629 0.19689 0.82425 0.0
C2592 C 0.38878 0.20127 0.84014 0.0
H2593 H 0.47591 0.24537 0.89841 0.0
H2594 H 0.45323 0.23938 0.87403 0.0
H2595 H 0.39999 0.17708 0.8713 0.0
H2596 H 0.34543 0.21113 0.80361 0.0
H2597 H 0.36571 0.21811 0.82981 0.0
C2598 C 0.78162 0.22624 0.90304 0.0
C2599 C 0.79204 0.22633 0.91804 0.0
C2600 C 0.78622 0.22042 0.88742 0.0
C2601 C 0.80965 0.19332 0.86701 0.0
H2602 H 0.82781 0.23488 0.83219 0.0
C2603 C 0.86449 0.21858 0.80442 0.0
C2604 C 0.8549 0.20126 0.79394 0.0
C2605 C 0.85448 0.22016 0.8189 0.0
C2606 C 0.82265 0.2231 0.84176 0.0
H2607 H 0.81453 0.2194 0.92874 0.0
H2608 H 0.82218 0.20867 0.90148 0.0
H2609 H 0.81328 0.23896 0.85891 0.0
H2610 H 0.82747 0.17195 0.79037 0.0
H2611 H 0.81011 0.17447 0.81614 0.0
H2612 H 0.81918 0.17754 0.84982 0.0
C2613 C 0.81059 0.21324 0.90178 0.0
C2614 C 0.81422 0.22536 0.85697 0.0
C2615 C 0.80627 0.21941 0.91734 0.0
C2616 C 0.83512 0.18548 0.79824 0.0
C2617 C 0.82527 0.18688 0.81296 0.0
C2618 C 0.81771 0.19087 0.85162 0.0
C2619 C 0.80105 0.21425 0.8866 0.0
C2620 C 0.80796 0.21066 0.86986 0.0
C2621 C 0.83485 0.20428 0.82337 0.0
C2622 C 0.82463 0.20593 0.83901 0.0
H2623 H 0.77074 0.2317 0.90323 0.0
H2624 H 0.77861 0.22126 0.8759 0.0
H2625 H 0.80491 0.18178 0.87675 0.0
H2626 H 0.87969 0.23097 0.80131 0.0
H2627 H 0.86223 0.23367 0.82678 0.0
C2628 C 0.25775 0.11999 0.44156 0.0
C2629 C 0.2363 0.11214 0.44213 0.0
C2630 C 0.2696 0.12668 0.45653 0.0
C2631 C 0.26466 0.11443 0.50132 0.0
H2632 H 0.31724 0.16386 0.50732 0.0
C2633 C 0.32403 0.12416 0.5529 0.0
C2634 C 0.33075 0.1411 0.56368 0.0
C2635 C 0.31258 0.12226 0.53818 0.0
C2636 C 0.30253 0.15006 0.50579 0.0
H2637 H 0.21054 0.10576 0.45864 0.0
H2638 H 0.23124 0.1172 0.48484 0.0
H2639 H 0.29697 0.15869 0.48108 0.0
H2640 H 0.33125 0.16953 0.56743 0.0
H2641 H 0.31156 0.16641 0.54128 0.0
H2642 H 0.27047 0.10545 0.52569 0.0
C2643 C 0.23886 0.11831 0.4728 0.0
C2644 C 0.29102 0.14709 0.49082 0.0
C2645 C 0.22707 0.11193 0.45781 0.0
C2646 C 0.32615 0.1563 0.55932 0.0
C2647 C 0.31502 0.15458 0.54439 0.0
C2648 C 0.27632 0.11722 0.51608 0.0
C2649 C 0.26014 0.1253 0.47235 0.0
C2650 C 0.27199 0.12922 0.48847 0.0
C2651 C 0.30796 0.13742 0.53381 0.0
C2652 C 0.29539 0.135 0.51841 0.0
H2653 H 0.26521 0.12033 0.42961 0.0
H2654 H 0.28597 0.13191 0.45588 0.0
H2655 H 0.25014 0.10043 0.49973 0.0
H2656 H 0.32729 0.1122 0.55606 0.0
H2657 H 0.30737 0.10894 0.53016 0.0
C2658 C 0.92182 0.14434 0.45377 0.0
C2659 C 0.90957 0.13144 0.44046 0.0
C2660 C 0.91283 0.14577 0.46895 0.0
C2661 C 0.86363 0.13721 0.48693 0.0
H2662 H 0.8906 0.14118 0.53036 0.0
C2663 C 0.8267 0.13865 0.55131 0.0
C2664 C 0.83979 0.15256 0.56374 0.0
C2665 C 0.83483 0.13492 0.53657 0.0
C2666 C 0.88298 0.14028 0.51833 0.0
H2667 H 0.87825 0.10981 0.43273 0.0
H2668 H 0.86252 0.11215 0.45939 0.0
H2669 H 0.90528 0.1366 0.50407 0.0
H2670 H 0.87174 0.17344 0.57039 0.0
H2671 H 0.88594 0.16697 0.54464 0.0
H2672 H 0.84143 0.14109 0.50116 0.0
C2673 C 0.87909 0.12132 0.45797 0.0
C2674 C 0.89138 0.13764 0.50325 0.0
C2675 C 0.88811 0.11984 0.44276 0.0
C2676 C 0.86124 0.16244 0.56118 0.0
C2677 C 0.86937 0.15872 0.54641 0.0
C2678 C 0.85523 0.13987 0.50201 0.0
C2679 C 0.89136 0.13432 0.47125 0.0
C2680 C 0.8819 0.13622 0.48735 0.0
C2681 C 0.85626 0.14502 0.53387 0.0
C2682 C 0.86487 0.14157 0.51789 0.0
H2683 H 0.93843 0.15325 0.45253 0.0
H2684 H 0.92273 0.15609 0.47882 0.0
H2685 H 0.85609 0.13647 0.47488 0.0
H2686 H 0.81012 0.13051 0.55303 0.0
H2687 H 0.8243 0.12401 0.52732 0.0
C2688 C 0.86279 0.75548 0.43885 0.0
C2689 C 0.88072 0.77453 0.43729 0.0
C2690 C 0.85846 0.74455 0.45406 0.0
C2691 C 0.87142 0.75125 0.50044 0.0
H2692 H 0.84049 0.69252 0.4997 0.0
C2693 C 0.84988 0.70013 0.56121 0.0
C2694 C 0.82904 0.68471 0.56205 0.0
C2695 C 0.85777 0.71167 0.54634 0.0
C2696 C 0.8491 0.70893 0.5001 0.0
H2697 H 0.9085 0.79668 0.4505 0.0
H2698 H 0.90139 0.7772 0.47679 0.0
H2699 H 0.85226 0.71099 0.47293 0.0
H2700 H 0.80002 0.6702 0.548 0.0
H2701 H 0.81396 0.68982 0.52205 0.0
H2702 H 0.86839 0.74895 0.52776 0.0
C2703 C 0.89037 0.77094 0.46637 0.0
C2704 C 0.85578 0.71956 0.48474 0.0
C2705 C 0.89462 0.782 0.45116 0.0
C2706 C 0.81626 0.6815 0.54774 0.0
C2707 C 0.8242 0.6928 0.53285 0.0
C2708 C 0.86497 0.74057 0.51584 0.0
C2709 C 0.87206 0.75218 0.46812 0.0
C2710 C 0.86667 0.74089 0.48464 0.0
C2711 C 0.84506 0.70787 0.53192 0.0
C2712 C 0.85339 0.71931 0.51579 0.0
H2713 H 0.85186 0.74909 0.42837 0.0
H2714 H 0.84407 0.73033 0.45489 0.0
H2715 H 0.87953 0.76764 0.50092 0.0
H2716 H 0.86027 0.70294 0.57186 0.0
H2717 H 0.87393 0.72318 0.54594 0.0
loop_
_geom_bond_atom_site_label_1
_geom_bond_atom_site_label_2
_geom_bond_distance
_geom_bond_site_symmetry_2
_ccdc_geom_bond_type
H0 C1 0.949 . S
C1 H0 0.949 . S
C1 C2 1.395 . S
C1 C3 1.391 . S
C2 C1 1.395 . S
C2 C5 1.390 . S
C3 C1 1.391 . S
C3 C7 1.387 . S
C3 C8 1.491 . S
H4 C5 0.950 . S
C5 C2 1.390 . S
C5 H4 0.950 . S
C5 C6 1.378 . S
C6 C5 1.378 . S
C6 C7 1.409 . S
C7 C3 1.387 . S
C7 C6 1.409 . S
C7 H9 0.951 . S
C8 C3 1.491 . S
C8 C10 1.382 . S
C8 C12 1.404 . S
H9 C7 0.951 . S
C10 C8 1.382 . S
C10 C11 1.390 . S
C10 H15 0.949 . S
C11 C10 1.390 . S
C11 C16 1.399 . S
C12 C8 1.404 . S
C12 H13 0.950 . S
C12 C14 1.375 . S
H13 C12 0.950 . S
C14 C12 1.375 . S
C14 C16 1.382 . S
C14 H18 0.950 . S
H15 C10 0.949 . S
C16 C11 1.399 . S
C16 C14 1.382 . S
C16 H17 0.952 . S
H17 C16 0.952 . S
H18 C14 0.950 . S
H19 C20 0.949 . S
C20 H19 0.949 . S
C20 C21 1.395 . S
C20 C22 1.391 . S
C21 C20 1.395 . S
C21 C24 1.390 . S
C22 C20 1.391 . S
C22 C26 1.387 . S
C22 C27 1.491 . S
H23 C24 0.950 . S
C24 C21 1.390 . S
C24 H23 0.950 . S
C24 C25 1.378 . S
C25 C24 1.378 . S
C25 C26 1.409 . S
C26 C22 1.387 . S
C26 C25 1.409 . S
C26 H28 0.951 . S
C27 C22 1.491 . S
C27 C29 1.382 . S
C27 C31 1.404 . S
H28 C26 0.951 . S
C29 C27 1.382 . S
C29 C30 1.390 . S
C29 H34 0.949 . S
C30 C29 1.390 . S
C30 C35 1.399 . S
C31 C27 1.404 . S
C31 H32 0.950 . S
C31 C33 1.375 . S
H32 C31 0.950 . S
C33 C31 1.375 . S
C33 C35 1.382 . S
C33 H37 0.950 . S
H34 C29 0.949 . S
C35 C30 1.399 . S
C35 C33 1.382 . S
C35 H36 0.952 . S
H36 C35 0.952 . S
H37 C33 0.950 . S
H38 C39 0.949 . S
C39 H38 0.949 . S
C39 C40 1.395 . S
C39 C41 1.391 . S
C40 C39 1.395 . S
C40 C43 1.390 . S
C41 C39 1.391 . S
C41 C45 1.387 . S
C41 C46 1.491 . S
H42 C43 0.950 . S
C43 C40 1.390 . S
C43 H42 0.950 . S
C43 C44 1.378 . S
C44 C43 1.378 . S
C44 C45 1.409 . S
C45 C41 1.387 . S
C45 C44 1.409 . S
C45 H47 0.951 . S
C46 C41 1.491 . S
C46 C48 1.382 . S
C46 C50 1.404 . S
H47 C45 0.951 . S
C48 C46 1.382 . S
C48 C49 1.390 . S
C48 H53 0.949 . S
C49 C48 1.390 . S
C49 C54 1.399 . S
C50 C46 1.404 . S
C50 H51 0.950 . S
C50 C52 1.375 . S
H51 C50 0.950 . S
C52 C50 1.375 . S
C52 C54 1.382 . S
C52 H56 0.950 . S
H53 C48 0.949 . S
C54 C49 1.399 . S
C54 C52 1.382 . S
C54 H55 0.952 . S
H55 C54 0.952 . S
H56 C52 0.950 . S
H57 C58 0.949 . S
C58 H57 0.949 . S
C58 C59 1.395 . S
C58 C60 1.391 . S
C59 C58 1.395 . S
C59 C62 1.390 . S
C60 C58 1.391 . S
C60 C64 1.387 . S
C60 C65 1.491 . S
H61 C62 0.950 . S
C62 C59 1.390 . S
C62 H61 0.950 . S
C62 C63 1.378 . S
C63 C62 1.378 . S
C63 C64 1.409 . S
C64 C60 1.387 . S
C64 C63 1.409 . S
C64 H66 0.951 . S
C65 C60 1.491 . S
C65 C67 1.382 . S
C65 C69 1.404 . S
H66 C64 0.951 . S
C67 C65 1.382 . S
C67 C68 1.390 . S
C67 H72 0.949 . S
C68 C67 1.390 . S
C68 C73 1.399 . S
C69 C65 1.404 . S
C69 H70 0.950 . S
C69 C71 1.375 . S
H70 C69 0.950 . S
C71 C69 1.375 . S
C71 C73 1.382 . S
C71 H75 0.950 . S
H72 C67 0.949 . S
C73 C68 1.399 . S
C73 C71 1.382 . S
C73 H74 0.952 . S
H74 C73 0.952 . S
H75 C71 0.950 . S
H76 C77 0.949 . S
C77 H76 0.949 . S
C77 C78 1.395 . S
C77 C79 1.391 . S
C78 C77 1.395 . S
C78 C81 1.390 . S
C79 C77 1.391 . S
C79 C83 1.387 . S
C79 C84 1.491 . S
H80 C81 0.950 . S
C81 C78 1.390 . S
C81 H80 0.950 . S
C81 C82 1.378 . S
C82 C81 1.378 . S
C82 C83 1.409 . S
C83 C79 1.387 . S
C83 C82 1.409 . S
C83 H85 0.951 . S
C84 C79 1.491 . S
C84 C86 1.382 . S
C84 C88 1.404 . S
H85 C83 0.951 . S
C86 C84 1.382 . S
C86 C87 1.390 . S
C86 H91 0.949 . S
C87 C86 1.390 . S
C87 C92 1.399 . S
C88 C84 1.404 . S
C88 H89 0.950 . S
C88 C90 1.375 . S
H89 C88 0.950 . S
C90 C88 1.375 . S
C90 C92 1.382 . S
C90 H94 0.950 . S
H91 C86 0.949 . S
C92 C87 1.399 . S
C92 C90 1.382 . S
C92 H93 0.952 . S
H93 C92 0.952 . S
H94 C90 0.950 . S
H95 C96 0.949 . S
C96 H95 0.949 . S
C96 C97 1.395 . S
C96 C98 1.391 . S
C97 C96 1.395 . S
C97 C100 1.390 . S
C98 C96 1.391 . S
C98 C102 1.387 . S
C98 C103 1.491 . S
H99 C100 0.950 . S
C100 C97 1.390 . S
C100 H99 0.950 . S
C100 C101 1.378 . S
C101 C100 1.378 . S
C101 C102 1.409 . S
C102 C98 1.387 . S
C102 C101 1.409 . S
C102 H104 0.951 . S
C103 C98 1.491 . S
C103 C105 1.382 . S
C103 C107 1.404 . S
H104 C102 0.951 . S
C105 C103 1.382 . S
C105 C106 1.390 . S
C105 H110 0.949 . S
C106 C105 1.390 . S
C106 C111 1.399 . S
C107 C103 1.404 . S
C107 H108 0.950 . S
C107 C109 1.375 . S
H108 C107 0.950 . S
C109 C107 1.375 . S
C109 C111 1.382 . S
C109 H113 0.950 . S
H110 C105 0.949 . S
C111 C106 1.399 . S
C111 C109 1.382 . S
C111 H112 0.952 . S
H112 C111 0.952 . S
H113 C109 0.950 . S
H114 C115 0.949 . S
C115 H114 0.949 . S
C115 C116 1.395 . S
C115 C117 1.391 . S
C116 C115 1.395 . S
C116 C119 1.390 . S
C117 C115 1.391 . S
C117 C121 1.387 . S
C117 C122 1.491 . S
H118 C119 0.950 . S
C119 C116 1.390 . S
C119 H118 0.950 . S
C119 C120 1.378 . S
C120 C119 1.378 . S
C120 C121 1.409 . S
C121 C117 1.387 . S
C121 C120 1.409 . S
C121 H123 0.951 . S
C122 C117 1.491 . S
C122 C124 1.382 . S
C122 C126 1.404 . S
H123 C121 0.951 . S
C124 C122 1.382 . S
C124 C125 1.390 . S
C124 H129 0.949 . S
C125 C124 1.390 . S
C125 C130 1.399 . S
C126 C122 1.404 . S
C126 H127 0.950 . S
C126 C128 1.375 . S
H127 C126 0.950 . S
C128 C126 1.375 . S
C128 C130 1.382 . S
C128 H132 0.950 . S
H129 C124 0.949 . S
C130 C125 1.399 . S
C130 C128 1.382 . S
C130 H131 0.952 . S
H131 C130 0.952 . S
H132 C128 0.950 . S
H133 C134 0.949 . S
C134 H133 0.949 . S
C134 C135 1.395 . S
C134 C136 1.391 . S
C135 C134 1.395 . S
C135 C138 1.390 . S
C136 C134 1.391 . S
C136 C140 1.387 . S
C136 C141 1.491 . S
H137 C138 0.950 . S
C138 C135 1.390 . S
C138 H137 0.950 . S
C138 C139 1.378 . S
C139 C138 1.378 . S
C139 C140 1.409 . S
C140 C136 1.387 . S
C140 C139 1.409 . S
C140 H142 0.951 . S
C141 C136 1.491 . S
C141 C143 1.382 . S
C141 C145 1.404 . S
H142 C140 0.951 . S
C143 C141 1.382 . S
C143 C144 1.390 . S
C143 H148 0.949 . S
C144 C143 1.390 . S
C144 C149 1.399 . S
C145 C141 1.404 . S
C145 H146 0.950 . S
C145 C147 1.375 . S
H146 C145 0.950 . S
C147 C145 1.375 . S
C147 C149 1.382 . S
C147 H151 0.950 . S
H148 C143 0.949 . S
C149 C144 1.399 . S
C149 C147 1.382 . S
C149 H150 0.952 . S
H150 C149 0.952 . S
H151 C147 0.950 . S
H152 C153 0.949 . S
C153 H152 0.949 . S
C153 C154 1.395 . S
C153 C155 1.391 . S
C154 C153 1.395 . S
C154 C157 1.390 . S
C155 C153 1.391 . S
C155 C159 1.387 . S
C155 C160 1.491 . S
H156 C157 0.950 . S
C157 C154 1.390 . S
C157 H156 0.950 . S
C157 C158 1.378 . S
C158 C157 1.378 . S
C158 C159 1.409 . S
C159 C155 1.387 . S
C159 C158 1.409 . S
C159 H161 0.951 . S
C160 C155 1.491 . S
C160 C162 1.382 . S
C160 C164 1.404 . S
H161 C159 0.951 . S
C162 C160 1.382 . S
C162 C163 1.390 . S
C162 H167 0.949 . S
C163 C162 1.390 . S
C163 C168 1.399 . S
C164 C160 1.404 . S
C164 H165 0.950 . S
C164 C166 1.375 . S
H165 C164 0.950 . S
C166 C164 1.375 . S
C166 C168 1.382 . S
C166 H170 0.950 . S
H167 C162 0.949 . S
C168 C163 1.399 . S
C168 C166 1.382 . S
C168 H169 0.952 . S
H169 C168 0.952 . S
H170 C166 0.950 . S
H171 C172 0.949 . S
C172 H171 0.949 . S
C172 C173 1.395 . S
C172 C174 1.391 . S
C173 C172 1.395 . S
C173 C176 1.390 . S
C174 C172 1.391 . S
C174 C178 1.387 . S
C174 C179 1.491 . S
H175 C176 0.950 . S
C176 C173 1.390 . S
C176 H175 0.950 . S
C176 C177 1.378 . S
C177 C176 1.378 . S
C177 C178 1.409 . S
C178 C174 1.387 . S
C178 C177 1.409 . S
C178 H180 0.951 . S
C179 C174 1.491 . S
C179 C181 1.382 . S
C179 C183 1.404 . S
H180 C178 0.951 . S
C181 C179 1.382 . S
C181 C182 1.390 . S
C181 H186 0.949 . S
C182 C181 1.390 . S
C182 C187 1.399 . S
C183 C179 1.404 . S
C183 H184 0.950 . S
C183 C185 1.375 . S
H184 C183 0.950 . S
C185 C183 1.375 . S
C185 C187 1.382 . S
C185 H189 0.950 . S
H186 C181 0.949 . S
C187 C182 1.399 . S
C187 C185 1.382 . S
C187 H188 0.952 . S
H188 C187 0.952 . S
H189 C185 0.950 . S
H190 C191 0.949 . S
C191 H190 0.949 . S
C191 C192 1.395 . S
C191 C193 1.391 . S
C192 C191 1.395 . S
C192 C195 1.390 . S
C193 C191 1.391 . S
C193 C197 1.387 . S
C193 C198 1.491 . S
H194 C195 0.950 . S
C195 C192 1.390 . S
C195 H194 0.950 . S
C195 C196 1.378 . S
C196 C195 1.378 . S
C196 C197 1.409 . S
C197 C193 1.387 . S
C197 C196 1.409 . S
C197 H199 0.951 . S
C198 C193 1.491 . S
C198 C200 1.382 . S
C198 C202 1.404 . S
H199 C197 0.951 . S
C200 C198 1.382 . S
C200 C201 1.390 . S
C200 H205 0.949 . S
C201 C200 1.390 . S
C201 C206 1.399 . S
C202 C198 1.404 . S
C202 H203 0.950 . S
C202 C204 1.375 . S
H203 C202 0.950 . S
C204 C202 1.375 . S
C204 C206 1.382 . S
C204 H208 0.950 . S
H205 C200 0.949 . S
C206 C201 1.399 . S
C206 C204 1.382 . S
C206 H207 0.952 . S
H207 C206 0.952 . S
H208 C204 0.950 . S
H209 C210 0.949 . S
C210 H209 0.949 . S
C210 C211 1.395 . S
C210 C212 1.391 . S
C211 C210 1.395 . S
C211 C214 1.390 . S
C212 C210 1.391 . S
C212 C216 1.387 . S
C212 C217 1.491 . S
H213 C214 0.950 . S
C214 C211 1.390 . S
C214 H213 0.950 . S
C214 C215 1.378 . S
C215 C214 1.378 . S
C215 C216 1.409 . S
C216 C212 1.387 . S
C216 C215 1.409 . S
C216 H218 0.951 . S
C217 C212 1.491 . S
C217 C219 1.382 . S
C217 C221 1.404 . S
H218 C216 0.951 . S
C219 C217 1.382 . S
C219 C220 1.390 . S
C219 H224 0.949 . S
C220 C219 1.390 . S
C220 C225 1.399 . S
C221 C217 1.404 . S
C221 H222 0.950 . S
C221 C223 1.375 . S
H222 C221 0.950 . S
C223 C221 1.375 . S
C223 C225 1.382 . S
C223 H227 0.950 . S
H224 C219 0.949 . S
C225 C220 1.399 . S
C225 C223 1.382 . S
C225 H226 0.952 . S
H226 C225 0.952 . S
H227 C223 0.950 . S
H228 C229 0.949 . S
C229 H228 0.949 . S
C229 C230 1.395 . S
C229 C231 1.391 . S
C230 C229 1.395 . S
C230 C233 1.390 . S
C231 C229 1.391 . S
C231 C235 1.387 . S
C231 C236 1.491 . S
H232 C233 0.950 . S
C233 C230 1.390 . S
C233 H232 0.950 . S
C233 C234 1.378 . S
C234 C233 1.378 . S
C234 C235 1.409 . S
C235 C231 1.387 . S
C235 C234 1.409 . S
C235 H237 0.951 . S
C236 C231 1.491 . S
C236 C238 1.382 . S
C236 C240 1.404 . S
H237 C235 0.951 . S
C238 C236 1.382 . S
C238 C239 1.390 . S
C238 H243 0.949 . S
C239 C238 1.390 . S
C239 C244 1.399 . S
C240 C236 1.404 . S
C240 H241 0.950 . S
C240 C242 1.375 . S
H241 C240 0.950 . S
C242 C240 1.375 . S
C242 C244 1.382 . S
C242 H246 0.950 . S
H243 C238 0.949 . S
C244 C239 1.399 . S
C244 C242 1.382 . S
C244 H245 0.952 . S
H245 C244 0.952 . S
H246 C242 0.950 . S
H247 C248 0.949 . S
C248 H247 0.949 . S
C248 C249 1.395 . S
C248 C250 1.391 . S
C249 C248 1.395 . S
C249 C252 1.390 . S
C250 C248 1.391 . S
C250 C254 1.387 . S
C250 C255 1.491 . S
H251 C252 0.950 . S
C252 C249 1.390 . S
C252 H251 0.950 . S
C252 C253 1.378 . S
C253 C252 1.378 . S
C253 C254 1.409 . S
C254 C250 1.387 . S
C254 C253 1.409 . S
C254 H256 0.951 . S
C255 C250 1.491 . S
C255 C257 1.382 . S
C255 C259 1.404 . S
H256 C254 0.951 . S
C257 C255 1.382 . S
C257 C258 1.390 . S
C257 H262 0.949 . S
C258 C257 1.390 . S
C258 C263 1.399 . S
C259 C255 1.404 . S
C259 H260 0.950 . S
C259 C261 1.375 . S
H260 C259 0.950 . S
C261 C259 1.375 . S
C261 C263 1.382 . S
C261 H265 0.950 . S
H262 C257 0.949 . S
C263 C258 1.399 . S
C263 C261 1.382 . S
C263 H264 0.952 . S
H264 C263 0.952 . S
H265 C261 0.950 . S
H266 C267 0.949 . S
C267 H266 0.949 . S
C267 C268 1.395 . S
C267 C269 1.391 . S
C268 C267 1.395 . S
C268 C271 1.390 . S
C269 C267 1.391 . S
C269 C273 1.387 . S
C269 C274 1.491 . S
H270 C271 0.950 . S
C271 C268 1.390 . S
C271 H270 0.950 . S
C271 C272 1.378 . S
C272 C271 1.378 . S
C272 C273 1.409 . S
C273 C269 1.387 . S
C273 C272 1.409 . S
C273 H275 0.951 . S
C274 C269 1.491 . S
C274 C276 1.382 . S
C274 C278 1.404 . S
H275 C273 0.951 . S
C276 C274 1.382 . S
C276 C277 1.390 . S
C276 H281 0.949 . S
C277 C276 1.390 . S
C277 C282 1.399 . S
C278 C274 1.404 . S
C278 H279 0.950 . S
C278 C280 1.375 . S
H279 C278 0.950 . S
C280 C278 1.375 . S
C280 C282 1.382 . S
C280 H284 0.950 . S
H281 C276 0.949 . S
C282 C277 1.399 . S
C282 C280 1.382 . S
C282 H283 0.952 . S
H283 C282 0.952 . S
H284 C280 0.950 . S
H285 C286 0.949 . S
C286 H285 0.949 . S
C286 C287 1.395 . S
C286 C288 1.391 . S
C287 C286 1.395 . S
C287 C290 1.390 . S
C288 C286 1.391 . S
C288 C292 1.387 . S
C288 C293 1.491 . S
H289 C290 0.950 . S
C290 C287 1.390 . S
C290 H289 0.950 . S
C290 C291 1.378 . S
C291 C290 1.378 . S
C291 C292 1.409 . S
C292 C288 1.387 . S
C292 C291 1.409 . S
C292 H294 0.951 . S
C293 C288 1.491 . S
C293 C295 1.382 . S
C293 C297 1.404 . S
H294 C292 0.951 . S
C295 C293 1.382 . S
C295 C296 1.390 . S
C295 H300 0.949 . S
C296 C295 1.390 . S
C296 C301 1.399 . S
C297 C293 1.404 . S
C297 H298 0.950 . S
C297 C299 1.375 . S
H298 C297 0.950 . S
C299 C297 1.375 . S
C299 C301 1.382 . S
C299 H303 0.950 . S
H300 C295 0.949 . S
C301 C296 1.399 . S
C301 C299 1.382 . S
C301 H302 0.952 . S
H302 C301 0.952 . S
H303 C299 0.950 . S
H304 C305 0.949 . S
C305 H304 0.949 . S
C305 C306 1.395 . S
C305 C307 1.391 . S
C306 C305 1.395 . S
C306 C309 1.390 . S
C307 C305 1.391 . S
C307 C311 1.387 . S
C307 C312 1.491 . S
H308 C309 0.950 . S
C309 C306 1.390 . S
C309 H308 0.950 . S
C309 C310 1.378 . S
C310 C309 1.378 . S
C310 C311 1.409 . S
C311 C307 1.387 . S
C311 C310 1.409 . S
C311 H313 0.951 . S
C312 C307 1.491 . S
C312 C314 1.382 . S
C312 C316 1.404 . S
H313 C311 0.951 . S
C314 C312 1.382 . S
C314 C315 1.390 . S
C314 H319 0.949 . S
C315 C314 1.390 . S
C315 C320 1.399 . S
C316 C312 1.404 . S
C316 H317 0.950 . S
C316 C318 1.375 . S
H317 C316 0.950 . S
C318 C316 1.375 . S
C318 C320 1.382 . S
C318 H322 0.950 . S
H319 C314 0.949 . S
C320 C315 1.399 . S
C320 C318 1.382 . S
C320 H321 0.952 . S
H321 C320 0.952 . S
H322 C318 0.950 . S
H323 C324 0.949 . S
C324 H323 0.949 . S
C324 C325 1.395 . S
C324 C326 1.391 . S
C325 C324 1.395 . S
C325 C328 1.390 . S
C326 C324 1.391 . S
C326 C330 1.387 . S
C326 C331 1.491 . S
H327 C328 0.950 . S
C328 C325 1.390 . S
C328 H327 0.950 . S
C328 C329 1.378 . S
C329 C328 1.378 . S
C329 C330 1.409 . S
C330 C326 1.387 . S
C330 C329 1.409 . S
C330 H332 0.951 . S
C331 C326 1.491 . S
C331 C333 1.382 . S
C331 C335 1.404 . S
H332 C330 0.951 . S
C333 C331 1.382 . S
C333 C334 1.390 . S
C333 H338 0.949 . S
C334 C333 1.390 . S
C334 C339 1.399 . S
C335 C331 1.404 . S
C335 H336 0.950 . S
C335 C337 1.375 . S
H336 C335 0.950 . S
C337 C335 1.375 . S
C337 C339 1.382 . S
C337 H341 0.950 . S
H338 C333 0.949 . S
C339 C334 1.399 . S
C339 C337 1.382 . S
C339 H340 0.952 . S
H340 C339 0.952 . S
H341 C337 0.950 . S
Gd342 N373 2.661 . S
Gd342 N379 2.601 . S
Gd342 O386 2.545 . S
Gd342 O387 2.606 1_545 S
Gd342 O389 2.429 . S
Gd342 O390 2.545 1_545 S
Gd342 O391 2.412 1_545 S
Gd342 O393 2.362 . S
Gd342 O394 2.324 1_545 S
Gd342 C401 2.831 . S
Gd343 N352 2.661 . S
Gd343 N356 2.601 . S
Gd343 O387 2.362 1_556 S
Gd343 O388 2.324 1_565 S
Gd343 O392 2.545 . S
Gd343 O393 2.606 1_566 S
Gd343 O395 2.429 . S
Gd343 O396 2.545 1_565 S
Gd343 O397 2.412 1_565 S
Gd343 C410 2.828 1_565 S
C344 C347 1.417 . S
C344 C349 1.431 . S
C344 C350 1.412 . S
C345 C348 1.437 . S
C345 C349 1.317 . S
C345 H364 0.929 . S
C346 C347 1.426 . S
C346 C348 1.413 . S
C346 N356 1.359 . S
C347 C344 1.417 . S
C347 C346 1.426 . S
C347 N352 1.350 . S
C348 C345 1.437 . S
C348 C346 1.413 . S
C348 C358 1.391 . S
C349 C344 1.431 . S
C349 C345 1.317 . S
C349 H360 0.930 . S
C350 C344 1.412 . S
C350 C351 1.355 . S
C350 H362 0.930 . S
C351 C350 1.355 . S
C351 C353 1.402 . S
C351 H363 0.930 . S
N352 Gd343 2.661 . S
N352 C347 1.350 . S
N352 C353 1.307 . S
C353 C351 1.402 . S
C353 N352 1.307 . S
C353 H354 0.930 1_565 S
H354 C353 0.930 1_545 S
C355 N356 1.334 . S
C355 C357 1.394 . S
C355 H359 0.930 . S
N356 Gd343 2.601 . S
N356 C346 1.359 . S
N356 C355 1.334 . S
C357 C355 1.394 . S
C357 C358 1.359 . S
C357 H369 0.930 . S
C358 C348 1.391 . S
C358 C357 1.359 . S
C358 H370 0.929 . S
H359 C355 0.930 . S
H360 C349 0.930 . S
H361 C378 0.930 . S
H362 C350 0.930 . S
H363 C351 0.930 . S
H364 C345 0.929 . S
H365 C383 0.930 . S
H366 C374 0.930 . S
H367 C375 0.930 . S
H368 C399 0.929 . S
H369 C357 0.930 . S
H370 C358 0.929 . S
H371 C400 0.930 . S
H372 C381 0.930 . S
N373 Gd342 2.661 . S
N373 C377 1.350 . S
N373 C378 1.307 . S
C374 H366 0.930 . S
C374 C375 1.355 . S
C374 C376 1.412 . S
C375 H367 0.930 . S
C375 C374 1.355 . S
C375 C378 1.402 . S
C376 C374 1.412 . S
C376 C377 1.417 . S
C376 C400 1.431 . S
C377 N373 1.350 . S
C377 C376 1.417 . S
C377 C380 1.426 . S
C378 H361 0.930 . S
C378 N373 1.307 . S
C378 C375 1.402 . S
N379 Gd342 2.601 . S
N379 C380 1.359 . S
N379 C383 1.334 . S
C380 C377 1.426 . S
C380 N379 1.359 . S
C380 C384 1.413 . S
C381 H372 0.930 . S
C381 C382 1.359 . S
C381 C383 1.394 . S
C382 C381 1.359 . S
C382 C384 1.391 . S
C382 H385 0.929 . S
C383 H365 0.930 . S
C383 N379 1.334 . S
C383 C381 1.394 . S
C384 C380 1.413 . S
C384 C382 1.391 . S
C384 C399 1.437 . S
H385 C382 0.929 . S
O386 Gd342 2.545 . S
O386 C401 1.273 . S
O387 Gd342 2.606 1_565 S
O387 Gd343 2.362 1_554 S
O387 C398 1.284 . S
O388 Gd343 2.324 1_545 S
O388 C408 1.254 1_556 S
O389 Gd342 2.429 . S
O389 C408 1.268 . S
O390 Gd342 2.545 1_565 S
O390 C398 1.250 . S
O391 Gd342 2.412 1_565 S
O391 C401 1.240 1_565 S
O392 Gd343 2.545 . S
O392 C410 1.258 1_565 S
O393 Gd342 2.362 . S
O393 Gd343 2.606 1_544 S
O393 C409 1.284 1_554 S
O394 Gd342 2.324 1_565 S
O394 C417 1.254 . S
O395 Gd343 2.429 . S
O395 C417 1.268 1_556 S
O396 Gd343 2.545 1_545 S
O396 C409 1.250 . S
O397 Gd343 2.412 1_545 S
O397 C410 1.252 . S
C398 O387 1.284 . S
C398 O390 1.250 . S
C399 H368 0.929 . S
C399 C384 1.437 . S
C399 C400 1.317 . S
C400 H371 0.930 . S
C400 C376 1.431 . S
C400 C399 1.317 . S
C401 Gd342 2.831 . S
C401 O386 1.273 . S
C401 O391 1.240 1_545 S
C401 C402 1.493 1_545 S
C402 C401 1.493 1_565 S
C402 C403 1.395 1_565 S
C402 C404 1.380 . S
C403 C402 1.395 1_545 S
C403 C406 1.398 1_545 S
C403 H418 0.930 . S
C404 C402 1.380 . S
C404 C405 1.391 . S
C404 H419 0.930 . S
C405 C404 1.391 . S
C405 C407 1.387 . S
C406 C403 1.398 1_565 S
C406 C407 1.380 . S
C406 H420 0.930 1_565 S
C407 C405 1.387 . S
C407 C406 1.380 . S
C407 H421 0.930 . S
C408 O388 1.254 1_554 S
C408 O389 1.268 . S
C409 O393 1.284 1_556 S
C409 O396 1.250 . S
C410 Gd343 2.828 1_545 S
C410 O392 1.258 1_545 S
C410 O397 1.252 . S
C410 C411 1.497 . S
C411 C410 1.497 . S
C411 C412 1.436 . S
C411 C413 1.380 . S
C412 C411 1.436 . S
C412 C415 1.412 . S
C412 H422 0.877 1_545 S
C413 C411 1.380 . S
C413 C414 1.391 . S
C413 H423 0.930 . S
C414 C413 1.391 . S
C414 C416 1.387 . S
C415 C412 1.412 . S
C415 C416 1.380 . S
C415 H424 0.917 1_545 S
C416 C414 1.387 . S
C416 C415 1.380 . S
C416 H425 0.930 . S
C417 O394 1.254 . S
C417 O395 1.268 1_554 S
H418 C403 0.930 . S
H419 C404 0.930 . S
H420 C406 0.930 1_545 S
H421 C407 0.930 . S
H422 C412 0.877 1_565 S
H423 C413 0.930 . S
H424 C415 0.917 1_565 S
H425 C416 0.930 . S
Gd426 N457 2.661 . S
Gd426 N463 2.601 . S
Gd426 O470 2.545 . S
Gd426 O471 2.606 1_655 S
Gd426 O473 2.429 . S
Gd426 O474 2.545 1_655 S
Gd426 O475 2.412 1_655 S
Gd426 O477 2.362 . S
Gd426 O478 2.324 1_655 S
Gd426 C485 2.828 1_655 S
Gd427 N436 2.661 . S
Gd427 N440 2.601 . S
Gd427 O471 2.362 1_556 S
Gd427 O472 2.324 1_455 S
Gd427 O476 2.545 . S
Gd427 O477 2.606 1_456 S
Gd427 O479 2.429 . S
Gd427 O480 2.545 1_455 S
Gd427 O481 2.412 1_455 S
Gd427 C494 2.828 . S
C428 C431 1.417 . S
C428 C433 1.431 . S
C428 C434 1.412 . S
C429 C432 1.437 . S
C429 C433 1.317 . S
C429 H448 0.929 . S
C430 C431 1.426 . S
C430 C432 1.413 . S
C430 N440 1.359 . S
C431 C428 1.417 . S
C431 C430 1.426 . S
C431 N436 1.350 . S
C432 C429 1.437 . S
C432 C430 1.413 . S
C432 C442 1.391 . S
C433 C428 1.431 . S
C433 C429 1.317 . S
C433 H444 0.930 . S
C434 C428 1.412 . S
C434 C435 1.355 . S
C434 H446 0.930 . S
C435 C434 1.355 . S
C435 C437 1.402 . S
C435 H447 0.930 . S
N436 Gd427 2.661 . S
N436 C431 1.350 . S
N436 C437 1.307 . S
C437 C435 1.402 . S
C437 N436 1.307 . S
C437 H438 0.930 . S
H438 C437 0.930 . S
C439 N440 1.334 . S
C439 C441 1.394 . S
C439 H443 0.930 . S
N440 Gd427 2.601 . S
N440 C430 1.359 . S
N440 C439 1.334 . S
C441 C439 1.394 . S
C441 C442 1.359 . S
C441 H453 0.930 . S
C442 C432 1.391 . S
C442 C441 1.359 . S
C442 H454 0.929 . S
H443 C439 0.930 . S
H444 C433 0.930 . S
H445 C462 0.930 1_455 S
H446 C434 0.930 . S
H447 C435 0.930 . S
H448 C429 0.929 . S
H449 C467 0.930 . S
H450 C458 0.930 . S
H451 C459 0.930 . S
H452 C483 0.929 . S
H453 C441 0.930 . S
H454 C442 0.929 . S
H455 C484 0.930 . S
H456 C465 0.930 . S
N457 Gd426 2.661 . S
N457 C461 1.350 . S
N457 C462 1.307 . S
C458 H450 0.930 . S
C458 C459 1.355 . S
C458 C460 1.412 . S
C459 H451 0.930 . S
C459 C458 1.355 . S
C459 C462 1.402 . S
C460 C458 1.412 . S
C460 C461 1.417 . S
C460 C484 1.431 . S
C461 N457 1.350 . S
C461 C460 1.417 . S
C461 C464 1.426 . S
C462 H445 0.930 1_655 S
C462 N457 1.307 . S
C462 C459 1.402 . S
N463 Gd426 2.601 . S
N463 C464 1.359 . S
N463 C467 1.334 . S
C464 C461 1.426 . S
C464 N463 1.359 . S
C464 C468 1.413 . S
C465 H456 0.930 . S
C465 C466 1.359 . S
C465 C467 1.394 . S
C466 C465 1.359 . S
C466 C468 1.391 . S
C466 H469 0.929 . S
C467 H449 0.930 . S
C467 N463 1.334 . S
C467 C465 1.394 . S
C468 C464 1.413 . S
C468 C466 1.391 . S
C468 C483 1.437 . S
H469 C466 0.929 . S
O470 Gd426 2.545 . S
O470 C485 1.258 1_655 S
O471 Gd426 2.606 1_455 S
O471 Gd427 2.362 1_554 S
O471 C482 1.284 . S
O472 Gd427 2.324 1_655 S
O472 C492 1.254 1_556 S
O473 Gd426 2.429 . S
O473 C492 1.268 . S
O474 Gd426 2.545 1_455 S
O474 C482 1.250 . S
O475 Gd426 2.412 1_455 S
O475 C485 1.252 . S
O476 Gd427 2.545 . S
O476 C494 1.258 . S
O477 Gd426 2.362 . S
O477 Gd427 2.606 1_654 S
O477 C493 1.284 1_554 S
O478 Gd426 2.324 1_455 S
O478 C501 1.254 . S
O479 Gd427 2.429 . S
O479 C501 1.268 1_556 S
O480 Gd427 2.545 1_655 S
O480 C493 1.250 . S
O481 Gd427 2.412 1_655 S
O481 C494 1.252 1_655 S
C482 O471 1.284 . S
C482 O474 1.250 . S
C483 H452 0.929 . S
C483 C468 1.437 . S
C483 C484 1.317 . S
C484 H455 0.930 . S
C484 C460 1.431 . S
C484 C483 1.317 . S
C485 Gd426 2.828 1_455 S
C485 O470 1.258 1_455 S
C485 O475 1.252 . S
C485 C486 1.497 . S
C486 C485 1.497 . S
C486 C487 1.391 1_455 S
C486 C488 1.380 . S
C487 C486 1.391 1_655 S
C487 C490 1.393 1_655 S
C487 H502 0.939 . S
C488 C486 1.380 . S
C488 C489 1.391 . S
C488 H503 0.930 . S
C489 C488 1.391 . S
C489 C491 1.387 . S
C490 C487 1.393 1_455 S
C490 C491 1.380 . S
C490 H504 0.930 1_455 S
C491 C489 1.387 . S
C491 C490 1.380 . S
C491 H505 0.930 . S
C492 O472 1.254 1_554 S
C492 O473 1.268 . S
C493 O477 1.284 1_556 S
C493 O480 1.250 . S
C494 Gd427 2.828 . S
C494 O476 1.258 . S
C494 O481 1.252 1_455 S
C494 C495 1.497 1_455 S
C495 C494 1.497 1_655 S
C495 C496 1.395 1_655 S
C495 C497 1.380 . S
C496 C495 1.395 1_455 S
C496 C499 1.398 . S
C496 H506 0.930 . S
C497 C495 1.380 . S
C497 C498 1.391 . S
C497 H507 0.930 . S
C498 C497 1.391 . S
C498 C500 1.387 . S
C499 C496 1.398 . S
C499 C500 1.380 1_455 S
C499 H508 0.930 . S
C500 C498 1.387 . S
C500 C499 1.380 1_655 S
C500 H509 0.930 . S
C501 O478 1.254 . S
C501 O479 1.268 1_554 S
H502 C487 0.939 . S
H503 C488 0.930 . S
H504 C490 0.930 1_655 S
H505 C491 0.930 . S
H506 C496 0.930 . S
H507 C497 0.930 . S
H508 C499 0.930 . S
H509 C500 0.930 . S
Gd510 N541 2.661 . S
Gd510 N547 2.601 . S
Gd510 O554 2.545 . S
Gd510 O555 2.606 1_556 S
Gd510 O557 2.427 . S
Gd510 O558 2.545 . S
Gd510 O559 2.412 . S
Gd510 O561 2.362 1_556 S
Gd510 O562 2.324 . S
Gd510 C569 2.828 . S
Gd511 N520 2.661 . S
Gd511 N524 2.601 . S
Gd511 O555 2.362 . S
Gd511 O556 2.324 . S
Gd511 O560 2.545 . S
Gd511 O561 2.606 . S
Gd511 O563 2.429 . S
Gd511 O564 2.545 . S
Gd511 O565 2.412 . S
Gd511 C578 2.828 . S
C512 C515 1.417 . S
C512 C517 1.431 . S
C512 C518 1.412 . S
C513 C516 1.437 . S
C513 C517 1.317 . S
C513 H532 0.929 . S
C514 C515 1.426 . S
C514 C516 1.413 . S
C514 N524 1.359 . S
C515 C512 1.417 . S
C515 C514 1.426 . S
C515 N520 1.350 . S
C516 C513 1.437 . S
C516 C514 1.413 . S
C516 C526 1.391 . S
C517 C512 1.431 . S
C517 C513 1.317 . S
C517 H528 0.930 . S
C518 C512 1.412 . S
C518 C519 1.355 . S
C518 H530 0.930 . S
C519 C518 1.355 . S
C519 C521 1.402 . S
C519 H531 0.930 . S
N520 Gd511 2.661 . S
N520 C515 1.350 . S
N520 C521 1.307 . S
C521 C519 1.402 . S
C521 N520 1.307 . S
C521 H522 0.930 . S
H522 C521 0.930 . S
C523 N524 1.334 . S
C523 C525 1.394 . S
C523 H527 0.930 . S
N524 Gd511 2.601 . S
N524 C514 1.359 . S
N524 C523 1.334 . S
C525 C523 1.394 . S
C525 C526 1.359 . S
C525 H537 0.930 . S
C526 C516 1.391 . S
C526 C525 1.359 . S
C526 H538 0.929 . S
H527 C523 0.930 . S
H528 C517 0.930 . S
H529 C546 0.930 . S
H530 C518 0.930 . S
H531 C519 0.930 . S
H532 C513 0.929 . S
H533 C551 0.930 . S
H534 C542 0.930 . S
H535 C543 0.930 . S
H536 C567 0.929 . S
H537 C525 0.930 . S
H538 C526 0.929 . S
H539 C568 0.930 . S
H540 C549 0.930 . S
N541 Gd510 2.661 . S
N541 C545 1.350 . S
N541 C546 1.307 . S
C542 H534 0.930 . S
C542 C543 1.355 . S
C542 C544 1.412 . S
C543 H535 0.930 . S
C543 C542 1.355 . S
C543 C546 1.402 . S
C544 C542 1.412 . S
C544 C545 1.417 . S
C544 C568 1.431 . S
C545 N541 1.350 . S
C545 C544 1.417 . S
C545 C548 1.426 . S
C546 H529 0.930 . S
C546 N541 1.307 . S
C546 C543 1.402 . S
N547 Gd510 2.601 . S
N547 C548 1.359 . S
N547 C551 1.334 . S
C548 C545 1.426 . S
C548 N547 1.359 . S
C548 C552 1.413 . S
C549 H540 0.930 . S
C549 C550 1.359 . S
C549 C551 1.394 . S
C550 C549 1.359 . S
C550 C552 1.391 . S
C550 H553 0.929 . S
C551 H533 0.930 . S
C551 N547 1.334 . S
C551 C549 1.394 . S
C552 C548 1.413 . S
C552 C550 1.391 . S
C552 C567 1.437 . S
H553 C550 0.929 . S
O554 Gd510 2.545 . S
O554 C569 1.258 . S
O555 Gd510 2.606 1_554 S
O555 Gd511 2.362 . S
O555 C566 1.284 1_554 S
O556 Gd511 2.324 . S
O556 C576 1.254 . S
O557 Gd510 2.427 . S
O557 C576 1.273 1_556 S
O558 Gd510 2.545 . S
O558 C566 1.250 . S
O559 Gd510 2.412 . S
O559 C569 1.252 . S
O560 Gd511 2.545 . S
O560 C578 1.258 . S
O561 Gd510 2.362 1_554 S
O561 Gd511 2.606 . S
O561 C577 1.284 . S
O562 Gd510 2.324 . S
O562 C585 1.254 1_556 S
O563 Gd511 2.429 . S
O563 C585 1.268 . S
O564 Gd511 2.545 . S
O564 C577 1.250 . S
O565 Gd511 2.412 . S
O565 C578 1.252 . S
C566 O555 1.284 1_556 S
C566 O558 1.250 . S
C567 H536 0.929 . S
C567 C552 1.437 . S
C567 C568 1.317 . S
C568 H539 0.930 . S
C568 C544 1.431 . S
C568 C567 1.317 . S
C569 Gd510 2.828 . S
C569 O554 1.258 . S
C569 O559 1.252 . S
C569 C570 1.497 . S
C570 C569 1.497 . S
C570 C571 1.395 . S
C570 C572 1.380 . S
C571 C570 1.395 . S
C571 C574 1.398 . S
C571 H586 0.930 . S
C572 C570 1.380 . S
C572 C573 1.391 . S
C572 H587 0.930 . S
C573 C572 1.391 . S
C573 C575 1.387 . S
C574 C571 1.398 . S
C574 C575 1.380 . S
C574 H588 0.930 . S
C575 C573 1.387 . S
C575 C574 1.380 . S
C575 H589 0.930 . S
C576 O556 1.254 . S
C576 O557 1.273 1_554 S
C577 O561 1.284 . S
C577 O564 1.250 . S
C578 Gd511 2.828 . S
C578 O560 1.258 . S
C578 O565 1.252 . S
C578 C579 1.497 . S
C579 C578 1.497 . S
C579 C580 1.395 . S
C579 C581 1.380 . S
C580 C579 1.395 . S
C580 C583 1.398 . S
C580 H590 0.930 . S
C581 C579 1.380 . S
C581 C582 1.391 . S
C581 H591 0.930 . S
C582 C581 1.391 . S
C582 C584 1.387 . S
C583 C580 1.398 . S
C583 C584 1.380 . S
C583 H592 0.930 . S
C584 C582 1.387 . S
C584 C583 1.380 . S
C584 H593 0.930 . S
C585 O562 1.254 1_554 S
C585 O563 1.268 . S
H586 C571 0.930 . S
H587 C572 0.930 . S
H588 C574 0.930 . S
H589 C575 0.930 . S
H590 C580 0.930 . S
H591 C581 0.930 . S
H592 C583 0.930 . S
H593 C584 0.930 . S
Gd594 N625 2.661 . S
Gd594 N631 2.601 . S
Gd594 O638 2.545 . S
Gd594 O639 2.606 . S
Gd594 O641 2.429 . S
Gd594 O642 2.545 . S
Gd594 O643 2.412 . S
Gd594 O645 2.362 . S
Gd594 O646 2.324 . S
Gd594 C653 2.828 . S
Gd595 N604 2.661 . S
Gd595 N608 2.601 . S
Gd595 O639 2.362 . S
Gd595 O640 2.324 . S
Gd595 O644 2.545 . S
Gd595 O645 2.606 . S
Gd595 O647 2.429 . S
Gd595 O648 2.545 . S
Gd595 O649 2.412 . S
Gd595 C662 2.828 . S
C596 C599 1.417 . S
C596 C601 1.431 . S
C596 C602 1.412 . S
C597 C600 1.437 . S
C597 C601 1.317 . S
C597 H616 0.929 . S
C598 C599 1.426 . S
C598 C600 1.413 . S
C598 N608 1.359 . S
C599 C596 1.417 . S
C599 C598 1.426 . S
C599 N604 1.350 . S
C600 C597 1.437 . S
C600 C598 1.413 . S
C600 C610 1.391 . S
C601 C596 1.431 . S
C601 C597 1.317 . S
C601 H612 0.930 . S
C602 C596 1.412 . S
C602 C603 1.355 . S
C602 H614 0.930 . S
C603 C602 1.355 . S
C603 C605 1.402 . S
C603 H615 0.930 . S
N604 Gd595 2.661 . S
N604 C599 1.350 . S
N604 C605 1.307 . S
C605 C603 1.402 . S
C605 N604 1.307 . S
C605 H606 0.930 . S
H606 C605 0.930 . S
C607 N608 1.334 . S
C607 C609 1.394 . S
C607 H611 0.930 . S
N608 Gd595 2.601 . S
N608 C598 1.359 . S
N608 C607 1.334 . S
C609 C607 1.394 . S
C609 C610 1.359 . S
C609 H621 0.930 . S
C610 C600 1.391 . S
C610 C609 1.359 . S
C610 H622 0.929 . S
H611 C607 0.930 . S
H612 C601 0.930 . S
H613 C630 0.930 . S
H614 C602 0.930 . S
H615 C603 0.930 . S
H616 C597 0.929 . S
H617 C635 0.930 . S
H618 C626 0.930 . S
H619 C627 0.930 . S
H620 C651 0.929 . S
H621 C609 0.930 . S
H622 C610 0.929 . S
H623 C652 0.930 . S
H624 C633 0.930 . S
N625 Gd594 2.661 . S
N625 C629 1.350 . S
N625 C630 1.307 . S
C626 H618 0.930 . S
C626 C627 1.355 . S
C626 C628 1.412 . S
C627 H619 0.930 . S
C627 C626 1.355 . S
C627 C630 1.402 . S
C628 C626 1.412 . S
C628 C629 1.417 . S
C628 C652 1.431 . S
C629 N625 1.350 . S
C629 C628 1.417 . S
C629 C632 1.426 . S
C630 H613 0.930 . S
C630 N625 1.307 . S
C630 C627 1.402 . S
N631 Gd594 2.601 . S
N631 C632 1.359 . S
N631 C635 1.334 . S
C632 C629 1.426 . S
C632 N631 1.359 . S
C632 C636 1.413 . S
C633 H624 0.930 . S
C633 C634 1.359 . S
C633 C635 1.394 . S
C634 C633 1.359 . S
C634 C636 1.391 . S
C634 H637 0.929 . S
C635 H617 0.930 . S
C635 N631 1.334 . S
C635 C633 1.394 . S
C636 C632 1.413 . S
C636 C634 1.391 . S
C636 C651 1.437 . S
H637 C634 0.929 . S
O638 Gd594 2.545 . S
O638 C653 1.258 . S
O639 Gd594 2.606 . S
O639 Gd595 2.362 . S
O639 C650 1.284 . S
O640 Gd595 2.324 . S
O640 C660 1.254 . S
O641 Gd594 2.429 . S
O641 C660 1.268 . S
O642 Gd594 2.545 . S
O642 C650 1.250 . S
O643 Gd594 2.412 . S
O643 C653 1.252 . S
O644 Gd595 2.545 . S
O644 C662 1.258 . S
O645 Gd594 2.362 . S
O645 Gd595 2.606 . S
O645 C661 1.284 . S
O646 Gd594 2.324 . S
O646 C669 1.254 . S
O647 Gd595 2.429 . S
O647 C669 1.268 . S
O648 Gd595 2.545 . S
O648 C661 1.250 . S
O649 Gd595 2.412 . S
O649 C662 1.252 . S
C650 O639 1.284 . S
C650 O642 1.250 . S
C651 H620 0.929 . S
C651 C636 1.437 . S
C651 C652 1.317 . S
C652 H623 0.930 . S
C652 C628 1.431 . S
C652 C651 1.317 . S
C653 Gd594 2.828 . S
C653 O638 1.258 . S
C653 O643 1.252 . S
C653 C654 1.497 . S
C654 C653 1.497 . S
C654 C655 1.395 . S
C654 C656 1.380 . S
C655 C654 1.395 . S
C655 C658 1.398 . S
C655 H670 0.930 . S
C656 C654 1.380 . S
C656 C657 1.391 . S
C656 H671 0.930 . S
C657 C656 1.391 . S
C657 C659 1.387 . S
C658 C655 1.398 . S
C658 C659 1.380 . S
C658 H672 0.930 . S
C659 C657 1.387 . S
C659 C658 1.380 . S
C659 H673 0.930 . S
C660 O640 1.254 . S
C660 O641 1.268 . S
C661 O645 1.284 . S
C661 O648 1.250 . S
C662 Gd595 2.828 . S
C662 O644 1.258 . S
C662 O649 1.252 . S
C662 C663 1.497 . S
C663 C662 1.497 . S
C663 C664 1.395 . S
C663 C665 1.380 . S
C664 C663 1.395 . S
C664 C667 1.398 . S
C664 H674 0.930 . S
C665 C663 1.380 . S
C665 C666 1.391 . S
C665 H675 0.930 . S
C666 C665 1.391 . S
C666 C668 1.387 . S
C667 C664 1.398 . S
C667 C668 1.380 . S
C667 H676 0.930 . S
C668 C666 1.387 . S
C668 C667 1.380 . S
C668 H677 0.930 . S
C669 O646 1.254 . S
C669 O647 1.268 . S
H670 C655 0.930 . S
H671 C656 0.930 . S
H672 C658 0.930 . S
H673 C659 0.930 . S
H674 C664 0.930 . S
H675 C665 0.930 . S
H676 C667 0.930 . S
H677 C668 0.930 . S
Gd678 N709 2.661 . S
Gd678 N715 2.601 . S
Gd678 O722 2.545 . S
Gd678 O723 2.606 . S
Gd678 O725 2.429 . S
Gd678 O726 2.545 . S
Gd678 O727 2.412 . S
Gd678 O729 2.362 . S
Gd678 O730 2.324 . S
Gd678 C737 2.828 . S
Gd679 N688 2.661 . S
Gd679 N692 2.601 . S
Gd679 O723 2.362 . S
Gd679 O724 2.324 . S
Gd679 O728 2.545 . S
Gd679 O729 2.606 . S
Gd679 O731 2.429 . S
Gd679 O732 2.545 . S
Gd679 O733 2.412 . S
Gd679 C746 2.828 . S
C680 C683 1.417 . S
C680 C685 1.431 . S
C680 C686 1.412 . S
C681 C684 1.437 . S
C681 C685 1.317 . S
C681 H700 0.929 . S
C682 C683 1.426 . S
C682 C684 1.413 . S
C682 N692 1.359 . S
C683 C680 1.417 . S
C683 C682 1.426 . S
C683 N688 1.350 . S
C684 C681 1.437 . S
C684 C682 1.413 . S
C684 C694 1.391 . S
C685 C680 1.431 . S
C685 C681 1.317 . S
C685 H696 0.930 . S
C686 C680 1.412 . S
C686 C687 1.355 . S
C686 H698 0.930 . S
C687 C686 1.355 . S
C687 C689 1.402 . S
C687 H699 0.930 . S
N688 Gd679 2.661 . S
N688 C683 1.350 . S
N688 C689 1.307 . S
C689 C687 1.402 . S
C689 N688 1.307 . S
C689 H690 0.930 . S
H690 C689 0.930 . S
C691 N692 1.334 . S
C691 C693 1.394 . S
C691 H695 0.930 . S
N692 Gd679 2.601 . S
N692 C682 1.359 . S
N692 C691 1.334 . S
C693 C691 1.394 . S
C693 C694 1.359 . S
C693 H705 0.930 . S
C694 C684 1.391 . S
C694 C693 1.359 . S
C694 H706 0.929 . S
H695 C691 0.930 . S
H696 C685 0.930 . S
H697 C714 0.930 . S
H698 C686 0.930 . S
H699 C687 0.930 . S
H700 C681 0.929 . S
H701 C719 0.930 . S
H702 C710 0.930 . S
H703 C711 0.930 . S
H704 C735 0.929 . S
H705 C693 0.930 . S
H706 C694 0.929 . S
H707 C736 0.930 . S
H708 C717 0.930 . S
N709 Gd678 2.661 . S
N709 C713 1.350 . S
N709 C714 1.307 . S
C710 H702 0.930 . S
C710 C711 1.355 . S
C710 C712 1.412 . S
C711 H703 0.930 . S
C711 C710 1.355 . S
C711 C714 1.402 . S
C712 C710 1.412 . S
C712 C713 1.417 . S
C712 C736 1.431 . S
C713 N709 1.350 . S
C713 C712 1.417 . S
C713 C716 1.426 . S
C714 H697 0.930 . S
C714 N709 1.307 . S
C714 C711 1.402 . S
N715 Gd678 2.601 . S
N715 C716 1.359 . S
N715 C719 1.334 . S
C716 C713 1.426 . S
C716 N715 1.359 . S
C716 C720 1.413 . S
C717 H708 0.930 . S
C717 C718 1.359 . S
C717 C719 1.394 . S
C718 C717 1.359 . S
C718 C720 1.391 . S
C718 H721 0.929 . S
C719 H701 0.930 . S
C719 N715 1.334 . S
C719 C717 1.394 . S
C720 C716 1.413 . S
C720 C718 1.391 . S
C720 C735 1.437 . S
H721 C718 0.929 . S
O722 Gd678 2.545 . S
O722 C737 1.258 . S
O723 Gd678 2.606 . S
O723 Gd679 2.362 . S
O723 C734 1.284 . S
O724 Gd679 2.324 . S
O724 C744 1.254 . S
O725 Gd678 2.429 . S
O725 C744 1.268 . S
O726 Gd678 2.545 . S
O726 C734 1.250 . S
O727 Gd678 2.412 . S
O727 C737 1.252 . S
O728 Gd679 2.545 . S
O728 C746 1.258 . S
O729 Gd678 2.362 . S
O729 Gd679 2.606 . S
O729 C745 1.284 . S
O730 Gd678 2.324 . S
O730 C753 1.254 . S
O731 Gd679 2.429 . S
O731 C753 1.268 . S
O732 Gd679 2.545 . S
O732 C745 1.250 . S
O733 Gd679 2.412 . S
O733 C746 1.252 . S
C734 O723 1.284 . S
C734 O726 1.250 . S
C735 H704 0.929 . S
C735 C720 1.437 . S
C735 C736 1.317 . S
C736 H707 0.930 . S
C736 C712 1.431 . S
C736 C735 1.317 . S
C737 Gd678 2.828 . S
C737 O722 1.258 . S
C737 O727 1.252 . S
C737 C738 1.497 . S
C738 C737 1.497 . S
C738 C739 1.395 . S
C738 C740 1.380 . S
C739 C738 1.395 . S
C739 C742 1.398 . S
C739 H754 0.930 . S
C740 C738 1.380 . S
C740 C741 1.391 . S
C740 H755 0.930 . S
C741 C740 1.391 . S
C741 C743 1.387 . S
C742 C739 1.398 . S
C742 C743 1.380 . S
C742 H756 0.930 . S
C743 C741 1.387 . S
C743 C742 1.380 . S
C743 H757 0.930 . S
C744 O724 1.254 . S
C744 O725 1.268 . S
C745 O729 1.284 . S
C745 O732 1.250 . S
C746 Gd679 2.828 . S
C746 O728 1.258 . S
C746 O733 1.252 . S
C746 C747 1.497 . S
C747 C746 1.497 . S
C747 C748 1.395 . S
C747 C749 1.380 . S
C748 C747 1.395 . S
C748 C751 1.398 . S
C748 H758 0.930 . S
C749 C747 1.380 . S
C749 C750 1.391 . S
C749 H759 0.930 . S
C750 C749 1.391 . S
C750 C752 1.387 . S
C751 C748 1.398 . S
C751 C752 1.380 . S
C751 H760 0.930 . S
C752 C750 1.387 . S
C752 C751 1.380 . S
C752 H761 0.930 . S
C753 O730 1.254 . S
C753 O731 1.268 . S
H754 C739 0.930 . S
H755 C740 0.930 . S
H756 C742 0.930 . S
H757 C743 0.930 . S
H758 C748 0.930 . S
H759 C749 0.930 . S
H760 C751 0.930 . S
H761 C752 0.930 . S
Gd762 N793 2.661 . S
Gd762 N799 2.601 . S
Gd762 O806 2.545 . S
Gd762 O807 2.606 . S
Gd762 O809 2.429 . S
Gd762 O810 2.545 . S
Gd762 O811 2.412 . S
Gd762 O813 2.362 . S
Gd762 O814 2.324 . S
Gd762 C821 2.828 . S
Gd763 N772 2.661 . S
Gd763 N776 2.601 . S
Gd763 O807 2.362 . S
Gd763 O808 2.324 . S
Gd763 O812 2.545 . S
Gd763 O813 2.606 . S
Gd763 O815 2.429 . S
Gd763 O816 2.545 . S
Gd763 O817 2.412 . S
Gd763 C830 2.828 . S
C764 C767 1.417 . S
C764 C769 1.431 . S
C764 C770 1.412 . S
C765 C768 1.437 . S
C765 C769 1.317 . S
C765 H784 0.929 . S
C766 C767 1.426 . S
C766 C768 1.413 . S
C766 N776 1.359 . S
C767 C764 1.417 . S
C767 C766 1.426 . S
C767 N772 1.350 . S
C768 C765 1.437 . S
C768 C766 1.413 . S
C768 C778 1.391 . S
C769 C764 1.431 . S
C769 C765 1.317 . S
C769 H780 0.930 . S
C770 C764 1.412 . S
C770 C771 1.355 . S
C770 H782 0.930 . S
C771 C770 1.355 . S
C771 C773 1.402 . S
C771 H783 0.930 . S
N772 Gd763 2.661 . S
N772 C767 1.350 . S
N772 C773 1.307 . S
C773 C771 1.402 . S
C773 N772 1.307 . S
C773 H774 0.930 . S
H774 C773 0.930 . S
C775 N776 1.334 . S
C775 C777 1.394 . S
C775 H779 0.930 . S
N776 Gd763 2.601 . S
N776 C766 1.359 . S
N776 C775 1.334 . S
C777 C775 1.394 . S
C777 C778 1.359 . S
C777 H789 0.930 . S
C778 C768 1.391 . S
C778 C777 1.359 . S
C778 H790 0.929 . S
H779 C775 0.930 . S
H780 C769 0.930 . S
H781 C798 0.930 . S
H782 C770 0.930 . S
H783 C771 0.930 . S
H784 C765 0.929 . S
H785 C803 0.930 . S
H786 C794 0.930 . S
H787 C795 0.930 . S
H788 C819 0.929 . S
H789 C777 0.930 . S
H790 C778 0.929 . S
H791 C820 0.930 . S
H792 C801 0.930 . S
N793 Gd762 2.661 . S
N793 C797 1.350 . S
N793 C798 1.307 . S
C794 H786 0.930 . S
C794 C795 1.355 . S
C794 C796 1.412 . S
C795 H787 0.930 . S
C795 C794 1.355 . S
C795 C798 1.402 . S
C796 C794 1.412 . S
C796 C797 1.417 . S
C796 C820 1.431 . S
C797 N793 1.350 . S
C797 C796 1.417 . S
C797 C800 1.426 . S
C798 H781 0.930 . S
C798 N793 1.307 . S
C798 C795 1.402 . S
N799 Gd762 2.601 . S
N799 C800 1.359 . S
N799 C803 1.334 . S
C800 C797 1.426 . S
C800 N799 1.359 . S
C800 C804 1.413 . S
C801 H792 0.930 . S
C801 C802 1.359 . S
C801 C803 1.394 . S
C802 C801 1.359 . S
C802 C804 1.391 . S
C802 H805 0.929 . S
C803 H785 0.930 . S
C803 N799 1.334 . S
C803 C801 1.394 . S
C804 C800 1.413 . S
C804 C802 1.391 . S
C804 C819 1.437 . S
H805 C802 0.929 . S
O806 Gd762 2.545 . S
O806 C821 1.258 . S
O807 Gd762 2.606 . S
O807 Gd763 2.362 . S
O807 C818 1.284 . S
O808 Gd763 2.324 . S
O808 C828 1.254 . S
O809 Gd762 2.429 . S
O809 C828 1.268 . S
O810 Gd762 2.545 . S
O810 C818 1.250 . S
O811 Gd762 2.412 . S
O811 C821 1.252 . S
O812 Gd763 2.545 . S
O812 C830 1.258 . S
O813 Gd762 2.362 . S
O813 Gd763 2.606 . S
O813 C829 1.284 . S
O814 Gd762 2.324 . S
O814 C837 1.254 . S
O815 Gd763 2.429 . S
O815 C837 1.268 . S
O816 Gd763 2.545 . S
O816 C829 1.250 . S
O817 Gd763 2.412 . S
O817 C830 1.252 . S
C818 O807 1.284 . S
C818 O810 1.250 . S
C819 H788 0.929 . S
C819 C804 1.437 . S
C819 C820 1.317 . S
C820 H791 0.930 . S
C820 C796 1.431 . S
C820 C819 1.317 . S
C821 Gd762 2.828 . S
C821 O806 1.258 . S
C821 O811 1.252 . S
C821 C822 1.497 . S
C822 C821 1.497 . S
C822 C823 1.395 . S
C822 C824 1.380 . S
C823 C822 1.395 . S
C823 C826 1.398 . S
C823 H838 0.930 . S
C824 C822 1.380 . S
C824 C825 1.391 . S
C824 H839 0.930 . S
C825 C824 1.391 . S
C825 C827 1.387 . S
C826 C823 1.398 . S
C826 C827 1.380 . S
C826 H840 0.930 . S
C827 C825 1.387 . S
C827 C826 1.380 . S
C827 H841 0.930 . S
C828 O808 1.254 . S
C828 O809 1.268 . S
C829 O813 1.284 . S
C829 O816 1.250 . S
C830 Gd763 2.828 . S
C830 O812 1.258 . S
C830 O817 1.252 . S
C830 C831 1.497 . S
C831 C830 1.497 . S
C831 C832 1.395 . S
C831 C833 1.380 . S
C832 C831 1.395 . S
C832 C835 1.398 . S
C832 H842 0.930 . S
C833 C831 1.380 . S
C833 C834 1.391 . S
C833 H843 0.930 . S
C834 C833 1.391 . S
C834 C836 1.387 . S
C835 C832 1.398 . S
C835 C836 1.380 . S
C835 H844 0.930 . S
C836 C834 1.387 . S
C836 C835 1.380 . S
C836 H845 0.930 . S
C837 O814 1.254 . S
C837 O815 1.268 . S
H838 C823 0.930 . S
H839 C824 0.930 . S
H840 C826 0.930 . S
H841 C827 0.930 . S
H842 C832 0.930 . S
H843 C833 0.930 . S
H844 C835 0.930 . S
H845 C836 0.930 . S
Gd846 N877 2.661 . S
Gd846 N883 2.601 . S
Gd846 O890 2.545 . S
Gd846 O891 2.606 . S
Gd846 O893 2.429 . S
Gd846 O894 2.545 . S
Gd846 O895 2.412 . S
Gd846 O897 2.362 . S
Gd846 O898 2.324 . S
Gd846 C905 2.828 . S
Gd847 N856 2.661 . S
Gd847 N860 2.601 . S
Gd847 O891 2.362 . S
Gd847 O892 2.324 . S
Gd847 O896 2.545 . S
Gd847 O897 2.606 . S
Gd847 O899 2.429 . S
Gd847 O900 2.545 . S
Gd847 O901 2.412 . S
Gd847 C914 2.828 . S
C848 C851 1.417 . S
C848 C853 1.431 . S
C848 C854 1.412 . S
C849 C852 1.437 . S
C849 C853 1.317 . S
C849 H868 0.929 . S
C850 C851 1.426 . S
C850 C852 1.413 . S
C850 N860 1.359 . S
C851 C848 1.417 . S
C851 C850 1.426 . S
C851 N856 1.350 . S
C852 C849 1.437 . S
C852 C850 1.413 . S
C852 C862 1.391 . S
C853 C848 1.431 . S
C853 C849 1.317 . S
C853 H864 0.930 . S
C854 C848 1.412 . S
C854 C855 1.355 . S
C854 H866 0.930 . S
C855 C854 1.355 . S
C855 C857 1.402 . S
C855 H867 0.930 . S
N856 Gd847 2.661 . S
N856 C851 1.350 . S
N856 C857 1.307 . S
C857 C855 1.402 . S
C857 N856 1.307 . S
C857 H858 0.930 . S
H858 C857 0.930 . S
C859 N860 1.334 . S
C859 C861 1.394 . S
C859 H863 0.930 . S
N860 Gd847 2.601 . S
N860 C850 1.359 . S
N860 C859 1.334 . S
C861 C859 1.394 . S
C861 C862 1.359 . S
C861 H873 0.930 . S
C862 C852 1.391 . S
C862 C861 1.359 . S
C862 H874 0.929 . S
H863 C859 0.930 . S
H864 C853 0.930 . S
H865 C882 0.930 . S
H866 C854 0.930 . S
H867 C855 0.930 . S
H868 C849 0.929 . S
H869 C887 0.930 . S
H870 C878 0.930 . S
H871 C879 0.930 . S
H872 C903 0.929 . S
H873 C861 0.930 . S
H874 C862 0.929 . S
H875 C904 0.930 . S
H876 C885 0.930 . S
N877 Gd846 2.661 . S
N877 C881 1.350 . S
N877 C882 1.307 . S
C878 H870 0.930 . S
C878 C879 1.355 . S
C878 C880 1.412 . S
C879 H871 0.930 . S
C879 C878 1.355 . S
C879 C882 1.402 . S
C880 C878 1.412 . S
C880 C881 1.417 . S
C880 C904 1.431 . S
C881 N877 1.350 . S
C881 C880 1.417 . S
C881 C884 1.426 . S
C882 H865 0.930 . S
C882 N877 1.307 . S
C882 C879 1.402 . S
N883 Gd846 2.601 . S
N883 C884 1.359 . S
N883 C887 1.334 . S
C884 C881 1.426 . S
C884 N883 1.359 . S
C884 C888 1.413 . S
C885 H876 0.930 . S
C885 C886 1.359 . S
C885 C887 1.394 . S
C886 C885 1.359 . S
C886 C888 1.391 . S
C886 H889 0.929 . S
C887 H869 0.930 . S
C887 N883 1.334 . S
C887 C885 1.394 . S
C888 C884 1.413 . S
C888 C886 1.391 . S
C888 C903 1.437 . S
H889 C886 0.929 . S
O890 Gd846 2.545 . S
O890 C905 1.258 . S
O891 Gd846 2.606 . S
O891 Gd847 2.362 . S
O891 C902 1.284 . S
O892 Gd847 2.324 . S
O892 C912 1.254 . S
O893 Gd846 2.429 . S
O893 C912 1.268 . S
O894 Gd846 2.545 . S
O894 C902 1.250 . S
O895 Gd846 2.412 . S
O895 C905 1.252 . S
O896 Gd847 2.545 . S
O896 C914 1.258 . S
O897 Gd846 2.362 . S
O897 Gd847 2.606 . S
O897 C913 1.284 . S
O898 Gd846 2.324 . S
O898 C921 1.254 . S
O899 Gd847 2.429 . S
O899 C921 1.268 . S
O900 Gd847 2.545 . S
O900 C913 1.250 . S
O901 Gd847 2.412 . S
O901 C914 1.252 . S
C902 O891 1.284 . S
C902 O894 1.250 . S
C903 H872 0.929 . S
C903 C888 1.437 . S
C903 C904 1.317 . S
C904 H875 0.930 . S
C904 C880 1.431 . S
C904 C903 1.317 . S
C905 Gd846 2.828 . S
C905 O890 1.258 . S
C905 O895 1.252 . S
C905 C906 1.497 . S
C906 C905 1.497 . S
C906 C907 1.395 . S
C906 C908 1.380 . S
C907 C906 1.395 . S
C907 C910 1.398 . S
C907 H922 0.930 . S
C908 C906 1.380 . S
C908 C909 1.391 . S
C908 H923 0.930 . S
C909 C908 1.391 . S
C909 C911 1.387 . S
C910 C907 1.398 . S
C910 C911 1.380 . S
C910 H924 0.930 . S
C911 C909 1.387 . S
C911 C910 1.380 . S
C911 H925 0.930 . S
C912 O892 1.254 . S
C912 O893 1.268 . S
C913 O897 1.284 . S
C913 O900 1.250 . S
C914 Gd847 2.828 . S
C914 O896 1.258 . S
C914 O901 1.252 . S
C914 C915 1.497 . S
C915 C914 1.497 . S
C915 C916 1.395 . S
C915 C917 1.380 . S
C916 C915 1.395 . S
C916 C919 1.398 . S
C916 H926 0.930 . S
C917 C915 1.380 . S
C917 C918 1.391 . S
C917 H927 0.930 . S
C918 C917 1.391 . S
C918 C920 1.387 . S
C919 C916 1.398 . S
C919 C920 1.380 . S
C919 H928 0.930 . S
C920 C918 1.387 . S
C920 C919 1.380 . S
C920 H929 0.930 . S
C921 O898 1.254 . S
C921 O899 1.268 . S
H922 C907 0.930 . S
H923 C908 0.930 . S
H924 C910 0.930 . S
H925 C911 0.930 . S
H926 C916 0.930 . S
H927 C917 0.930 . S
H928 C919 0.930 . S
H929 C920 0.930 . S
Gd930 N961 2.661 . S
Gd930 N967 2.601 . S
Gd930 O974 2.545 . S
Gd930 O975 2.606 . S
Gd930 O977 2.429 . S
Gd930 O978 2.545 . S
Gd930 O979 2.412 . S
Gd930 O981 2.362 . S
Gd930 O982 2.324 . S
Gd930 C989 2.828 . S
Gd931 N940 2.661 . S
Gd931 N944 2.601 . S
Gd931 O975 2.362 . S
Gd931 O976 2.324 . S
Gd931 O980 2.545 . S
Gd931 O981 2.606 . S
Gd931 O983 2.429 . S
Gd931 O984 2.545 . S
Gd931 O985 2.412 . S
Gd931 C998 2.828 . S
C932 C935 1.417 . S
C932 C937 1.431 . S
C932 C938 1.412 . S
C933 C936 1.437 . S
C933 C937 1.317 . S
C933 H952 0.929 . S
C934 C935 1.426 . S
C934 C936 1.413 . S
C934 N944 1.359 . S
C935 C932 1.417 . S
C935 C934 1.426 . S
C935 N940 1.350 . S
C936 C933 1.437 . S
C936 C934 1.413 . S
C936 C946 1.391 . S
C937 C932 1.431 . S
C937 C933 1.317 . S
C937 H948 0.930 . S
C938 C932 1.412 . S
C938 C939 1.355 . S
C938 H950 0.930 . S
C939 C938 1.355 . S
C939 C941 1.402 . S
C939 H951 0.930 . S
N940 Gd931 2.661 . S
N940 C935 1.350 . S
N940 C941 1.307 . S
C941 C939 1.402 . S
C941 N940 1.307 . S
C941 H942 0.930 . S
H942 C941 0.930 . S
C943 N944 1.334 . S
C943 C945 1.394 . S
C943 H947 0.930 . S
N944 Gd931 2.601 . S
N944 C934 1.359 . S
N944 C943 1.334 . S
C945 C943 1.394 . S
C945 C946 1.359 . S
C945 H957 0.930 . S
C946 C936 1.391 . S
C946 C945 1.359 . S
C946 H958 0.929 . S
H947 C943 0.930 . S
H948 C937 0.930 . S
H949 C966 0.930 . S
H950 C938 0.930 . S
H951 C939 0.930 . S
H952 C933 0.929 . S
H953 C971 0.930 . S
H954 C962 0.930 . S
H955 C963 0.930 . S
H956 C987 0.929 . S
H957 C945 0.930 . S
H958 C946 0.929 . S
H959 C988 0.930 . S
H960 C969 0.930 . S
N961 Gd930 2.661 . S
N961 C965 1.350 . S
N961 C966 1.307 . S
C962 H954 0.930 . S
C962 C963 1.355 . S
C962 C964 1.412 . S
C963 H955 0.930 . S
C963 C962 1.355 . S
C963 C966 1.402 . S
C964 C962 1.412 . S
C964 C965 1.417 . S
C964 C988 1.431 . S
C965 N961 1.350 . S
C965 C964 1.417 . S
C965 C968 1.426 . S
C966 H949 0.930 . S
C966 N961 1.307 . S
C966 C963 1.402 . S
N967 Gd930 2.601 . S
N967 C968 1.359 . S
N967 C971 1.334 . S
C968 C965 1.426 . S
C968 N967 1.359 . S
C968 C972 1.413 . S
C969 H960 0.930 . S
C969 C970 1.359 . S
C969 C971 1.394 . S
C970 C969 1.359 . S
C970 C972 1.391 . S
C970 H973 0.929 . S
C971 H953 0.930 . S
C971 N967 1.334 . S
C971 C969 1.394 . S
C972 C968 1.413 . S
C972 C970 1.391 . S
C972 C987 1.437 . S
H973 C970 0.929 . S
O974 Gd930 2.545 . S
O974 C989 1.258 . S
O975 Gd930 2.606 . S
O975 Gd931 2.362 . S
O975 C986 1.284 . S
O976 Gd931 2.324 . S
O976 C996 1.254 . S
O977 Gd930 2.429 . S
O977 C996 1.268 . S
O978 Gd930 2.545 . S
O978 C986 1.250 . S
O979 Gd930 2.412 . S
O979 C989 1.252 . S
O980 Gd931 2.545 . S
O980 C998 1.258 . S
O981 Gd930 2.362 . S
O981 Gd931 2.606 . S
O981 C997 1.284 . S
O982 Gd930 2.324 . S
O982 C1005 1.254 . S
O983 Gd931 2.429 . S
O983 C1005 1.268 . S
O984 Gd931 2.545 . S
O984 C997 1.250 . S
O985 Gd931 2.412 . S
O985 C998 1.252 . S
C986 O975 1.284 . S
C986 O978 1.250 . S
C987 H956 0.929 . S
C987 C972 1.437 . S
C987 C988 1.317 . S
C988 H959 0.930 . S
C988 C964 1.431 . S
C988 C987 1.317 . S
C989 Gd930 2.828 . S
C989 O974 1.258 . S
C989 O979 1.252 . S
C989 C990 1.497 . S
C990 C989 1.497 . S
C990 C991 1.395 . S
C990 C992 1.380 . S
C991 C990 1.395 . S
C991 C994 1.398 . S
C991 H1006 0.930 . S
C992 C990 1.380 . S
C992 C993 1.391 . S
C992 H1007 0.930 . S
C993 C992 1.391 . S
C993 C995 1.387 . S
C994 C991 1.398 . S
C994 C995 1.380 . S
C994 H1008 0.930 . S
C995 C993 1.387 . S
C995 C994 1.380 . S
C995 H1009 0.930 . S
C996 O976 1.254 . S
C996 O977 1.268 . S
C997 O981 1.284 . S
C997 O984 1.250 . S
C998 Gd931 2.828 . S
C998 O980 1.258 . S
C998 O985 1.252 . S
C998 C999 1.497 . S
C999 C998 1.497 . S
C999 C1000 1.395 . S
C999 C1001 1.380 . S
C1000 C999 1.395 . S
C1000 C1003 1.398 . S
C1000 H1010 0.930 . S
C1001 C999 1.380 . S
C1001 C1002 1.391 . S
C1001 H1011 0.930 . S
C1002 C1001 1.391 . S
C1002 C1004 1.387 . S
C1003 C1000 1.398 . S
C1003 C1004 1.380 . S
C1003 H1012 0.930 . S
C1004 C1002 1.387 . S
C1004 C1003 1.380 . S
C1004 H1013 0.930 . S
C1005 O982 1.254 . S
C1005 O983 1.268 . S
H1006 C991 0.930 . S
H1007 C992 0.930 . S
H1008 C994 0.930 . S
H1009 C995 0.930 . S
H1010 C1000 0.930 . S
H1011 C1001 0.930 . S
H1012 C1003 0.930 . S
H1013 C1004 0.930 . S
Gd1014 N1045 2.661 . S
Gd1014 N1051 2.601 . S
Gd1014 O1058 2.545 . S
Gd1014 O1059 2.606 . S
Gd1014 O1061 2.429 . S
Gd1014 O1062 2.545 . S
Gd1014 O1063 2.412 . S
Gd1014 O1065 2.362 . S
Gd1014 O1066 2.324 . S
Gd1014 C1073 2.828 . S
Gd1015 N1024 2.661 . S
Gd1015 N1028 2.601 . S
Gd1015 O1059 2.362 . S
Gd1015 O1060 2.324 . S
Gd1015 O1064 2.545 . S
Gd1015 O1065 2.606 . S
Gd1015 O1067 2.429 . S
Gd1015 O1068 2.545 . S
Gd1015 O1069 2.412 . S
Gd1015 C1082 2.828 . S
C1016 C1019 1.417 . S
C1016 C1021 1.431 . S
C1016 C1022 1.412 . S
C1017 C1020 1.437 . S
C1017 C1021 1.317 . S
C1017 H1036 0.929 . S
C1018 C1019 1.426 . S
C1018 C1020 1.413 . S
C1018 N1028 1.359 . S
C1019 C1016 1.417 . S
C1019 C1018 1.426 . S
C1019 N1024 1.350 . S
C1020 C1017 1.437 . S
C1020 C1018 1.413 . S
C1020 C1030 1.391 . S
C1021 C1016 1.431 . S
C1021 C1017 1.317 . S
C1021 H1032 0.930 . S
C1022 C1016 1.412 . S
C1022 C1023 1.355 . S
C1022 H1034 0.930 . S
C1023 C1022 1.355 . S
C1023 C1025 1.402 . S
C1023 H1035 0.930 . S
N1024 Gd1015 2.661 . S
N1024 C1019 1.350 . S
N1024 C1025 1.307 . S
C1025 C1023 1.402 . S
C1025 N1024 1.307 . S
C1025 H1026 0.930 . S
H1026 C1025 0.930 . S
C1027 N1028 1.334 . S
C1027 C1029 1.394 . S
C1027 H1031 0.930 . S
N1028 Gd1015 2.601 . S
N1028 C1018 1.359 . S
N1028 C1027 1.334 . S
C1029 C1027 1.394 . S
C1029 C1030 1.359 . S
C1029 H1041 0.930 . S
C1030 C1020 1.391 . S
C1030 C1029 1.359 . S
C1030 H1042 0.929 . S
H1031 C1027 0.930 . S
H1032 C1021 0.930 . S
H1033 C1050 0.930 . S
H1034 C1022 0.930 . S
H1035 C1023 0.930 . S
H1036 C1017 0.929 . S
H1037 C1055 0.930 . S
H1038 C1046 0.930 . S
H1039 C1047 0.930 . S
H1040 C1071 0.929 . S
H1041 C1029 0.930 . S
H1042 C1030 0.929 . S
H1043 C1072 0.930 . S
H1044 C1053 0.930 . S
N1045 Gd1014 2.661 . S
N1045 C1049 1.350 . S
N1045 C1050 1.307 . S
C1046 H1038 0.930 . S
C1046 C1047 1.355 . S
C1046 C1048 1.412 . S
C1047 H1039 0.930 . S
C1047 C1046 1.355 . S
C1047 C1050 1.402 . S
C1048 C1046 1.412 . S
C1048 C1049 1.417 . S
C1048 C1072 1.431 . S
C1049 N1045 1.350 . S
C1049 C1048 1.417 . S
C1049 C1052 1.426 . S
C1050 H1033 0.930 . S
C1050 N1045 1.307 . S
C1050 C1047 1.402 . S
N1051 Gd1014 2.601 . S
N1051 C1052 1.359 . S
N1051 C1055 1.334 . S
C1052 C1049 1.426 . S
C1052 N1051 1.359 . S
C1052 C1056 1.413 . S
C1053 H1044 0.930 . S
C1053 C1054 1.359 . S
C1053 C1055 1.394 . S
C1054 C1053 1.359 . S
C1054 C1056 1.391 . S
C1054 H1057 0.929 . S
C1055 H1037 0.930 . S
C1055 N1051 1.334 . S
C1055 C1053 1.394 . S
C1056 C1052 1.413 . S
C1056 C1054 1.391 . S
C1056 C1071 1.437 . S
H1057 C1054 0.929 . S
O1058 Gd1014 2.545 . S
O1058 C1073 1.258 . S
O1059 Gd1014 2.606 . S
O1059 Gd1015 2.362 . S
O1059 C1070 1.284 . S
O1060 Gd1015 2.324 . S
O1060 C1080 1.254 . S
O1061 Gd1014 2.429 . S
O1061 C1080 1.268 . S
O1062 Gd1014 2.545 . S
O1062 C1070 1.250 . S
O1063 Gd1014 2.412 . S
O1063 C1073 1.252 . S
O1064 Gd1015 2.545 . S
O1064 C1082 1.258 . S
O1065 Gd1014 2.362 . S
O1065 Gd1015 2.606 . S
O1065 C1081 1.284 . S
O1066 Gd1014 2.324 . S
O1066 C1089 1.254 . S
O1067 Gd1015 2.429 . S
O1067 C1089 1.268 . S
O1068 Gd1015 2.545 . S
O1068 C1081 1.250 . S
O1069 Gd1015 2.412 . S
O1069 C1082 1.252 . S
C1070 O1059 1.284 . S
C1070 O1062 1.250 . S
C1071 H1040 0.929 . S
C1071 C1056 1.437 . S
C1071 C1072 1.317 . S
C1072 H1043 0.930 . S
C1072 C1048 1.431 . S
C1072 C1071 1.317 . S
C1073 Gd1014 2.828 . S
C1073 O1058 1.258 . S
C1073 O1063 1.252 . S
C1073 C1074 1.497 . S
C1074 C1073 1.497 . S
C1074 C1075 1.395 . S
C1074 C1076 1.380 . S
C1075 C1074 1.395 . S
C1075 C1078 1.398 . S
C1075 H1090 0.930 . S
C1076 C1074 1.380 . S
C1076 C1077 1.391 . S
C1076 H1091 0.930 . S
C1077 C1076 1.391 . S
C1077 C1079 1.387 . S
C1078 C1075 1.398 . S
C1078 C1079 1.380 . S
C1078 H1092 0.930 . S
C1079 C1077 1.387 . S
C1079 C1078 1.380 . S
C1079 H1093 0.930 . S
C1080 O1060 1.254 . S
C1080 O1061 1.268 . S
C1081 O1065 1.284 . S
C1081 O1068 1.250 . S
C1082 Gd1015 2.828 . S
C1082 O1064 1.258 . S
C1082 O1069 1.252 . S
C1082 C1083 1.497 . S
C1083 C1082 1.497 . S
C1083 C1084 1.395 . S
C1083 C1085 1.380 . S
C1084 C1083 1.395 . S
C1084 C1087 1.398 . S
C1084 H1094 0.930 . S
C1085 C1083 1.380 . S
C1085 C1086 1.391 . S
C1085 H1095 0.930 . S
C1086 C1085 1.391 . S
C1086 C1088 1.387 . S
C1087 C1084 1.398 . S
C1087 C1088 1.380 . S
C1087 H1096 0.930 . S
C1088 C1086 1.387 . S
C1088 C1087 1.380 . S
C1088 H1097 0.930 . S
C1089 O1066 1.254 . S
C1089 O1067 1.268 . S
H1090 C1075 0.930 . S
H1091 C1076 0.930 . S
H1092 C1078 0.930 . S
H1093 C1079 0.930 . S
H1094 C1084 0.930 . S
H1095 C1085 0.930 . S
H1096 C1087 0.930 . S
H1097 C1088 0.930 . S
C1098 C1099 1.349 . S
C1098 C1100 1.327 . S
C1098 H1123 0.950 . S
C1099 C1098 1.349 . S
C1099 C1115 1.349 . S
C1100 C1098 1.327 . S
C1100 C1119 1.429 . S
C1100 H1124 0.950 . S
C1101 C1118 1.574 . S
C1101 C1120 1.368 . S
C1101 H1125 0.949 . S
H1102 C1106 0.949 . S
C1103 C1104 1.349 . S
C1103 C1105 1.327 . S
C1103 H1126 0.950 . S
C1104 C1103 1.349 . S
C1104 C1116 1.349 . S
C1105 C1103 1.327 . S
C1105 C1121 1.429 . S
C1105 H1127 0.950 . S
C1106 H1102 0.949 . S
C1106 C1114 1.574 . S
C1106 C1122 1.368 . S
H1107 C1115 0.950 . S
H1108 C1113 0.950 . S
H1109 C1114 0.949 . S
H1110 C1116 0.950 . S
H1111 C1117 0.950 . S
H1112 C1118 0.949 . S
C1113 H1108 0.950 . S
C1113 C1115 1.327 . S
C1113 C1119 1.429 . S
C1114 C1106 1.574 . S
C1114 H1109 0.949 . S
C1114 C1120 1.368 . S
C1115 C1099 1.349 . S
C1115 H1107 0.950 . S
C1115 C1113 1.327 . S
C1116 C1104 1.349 . S
C1116 H1110 0.950 . S
C1116 C1117 1.327 . S
C1117 H1111 0.950 . S
C1117 C1116 1.327 . S
C1117 C1121 1.429 . S
C1118 C1101 1.574 . S
C1118 H1112 0.949 . S
C1118 C1122 1.368 . S
C1119 C1100 1.429 . S
C1119 C1113 1.429 . S
C1119 C1120 1.523 . S
C1120 C1101 1.368 . S
C1120 C1114 1.368 . S
C1120 C1119 1.523 . S
C1121 C1105 1.429 . S
C1121 C1117 1.429 . S
C1121 C1122 1.523 . S
C1122 C1106 1.368 . S
C1122 C1118 1.368 . S
C1122 C1121 1.523 . S
H1123 C1098 0.950 . S
H1124 C1100 0.950 . S
H1125 C1101 0.949 . S
H1126 C1103 0.950 . S
H1127 C1105 0.950 . S
C1128 C1129 1.349 . S
C1128 C1130 1.327 . S
C1128 H1153 0.950 . S
C1129 C1128 1.349 . S
C1129 C1145 1.349 . S
C1130 C1128 1.327 . S
C1130 C1149 1.429 . S
C1130 H1154 0.950 . S
C1131 C1148 1.574 . S
C1131 C1150 1.368 . S
C1131 H1155 0.949 . S
H1132 C1136 0.949 . S
C1133 C1134 1.349 . S
C1133 C1135 1.327 . S
C1133 H1156 0.950 . S
C1134 C1133 1.349 . S
C1134 C1146 1.349 . S
C1135 C1133 1.327 . S
C1135 C1151 1.429 . S
C1135 H1157 0.950 . S
C1136 H1132 0.949 . S
C1136 C1144 1.574 . S
C1136 C1152 1.368 . S
H1137 C1145 0.950 . S
H1138 C1143 0.950 . S
H1139 C1144 0.949 . S
H1140 C1146 0.950 . S
H1141 C1147 0.950 . S
H1142 C1148 0.949 . S
C1143 H1138 0.950 . S
C1143 C1145 1.327 . S
C1143 C1149 1.429 . S
C1144 C1136 1.574 . S
C1144 H1139 0.949 . S
C1144 C1150 1.368 . S
C1145 C1129 1.349 . S
C1145 H1137 0.950 . S
C1145 C1143 1.327 . S
C1146 C1134 1.349 . S
C1146 H1140 0.950 . S
C1146 C1147 1.327 . S
C1147 H1141 0.950 . S
C1147 C1146 1.327 . S
C1147 C1151 1.429 . S
C1148 C1131 1.574 . S
C1148 H1142 0.949 . S
C1148 C1152 1.368 . S
C1149 C1130 1.429 . S
C1149 C1143 1.429 . S
C1149 C1150 1.523 . S
C1150 C1131 1.368 . S
C1150 C1144 1.368 . S
C1150 C1149 1.523 . S
C1151 C1135 1.429 . S
C1151 C1147 1.429 . S
C1151 C1152 1.523 . S
C1152 C1136 1.368 . S
C1152 C1148 1.368 . S
C1152 C1151 1.523 . S
H1153 C1128 0.950 . S
H1154 C1130 0.950 . S
H1155 C1131 0.949 . S
H1156 C1133 0.950 . S
H1157 C1135 0.950 . S
C1158 C1159 1.349 . S
C1158 C1160 1.327 . S
C1158 H1183 0.950 . S
C1159 C1158 1.349 . S
C1159 C1175 1.349 . S
C1160 C1158 1.327 . S
C1160 C1179 1.429 . S
C1160 H1184 0.950 . S
C1161 C1178 1.574 . S
C1161 C1180 1.368 . S
C1161 H1185 0.949 . S
H1162 C1166 0.949 . S
C1163 C1164 1.349 . S
C1163 C1165 1.327 . S
C1163 H1186 0.950 . S
C1164 C1163 1.349 . S
C1164 C1176 1.349 . S
C1165 C1163 1.327 . S
C1165 C1181 1.429 . S
C1165 H1187 0.950 . S
C1166 H1162 0.949 . S
C1166 C1174 1.574 . S
C1166 C1182 1.368 . S
H1167 C1175 0.950 . S
H1168 C1173 0.950 . S
H1169 C1174 0.949 . S
H1170 C1176 0.950 . S
H1171 C1177 0.950 . S
H1172 C1178 0.949 . S
C1173 H1168 0.950 . S
C1173 C1175 1.327 . S
C1173 C1179 1.429 . S
C1174 C1166 1.574 . S
C1174 H1169 0.949 . S
C1174 C1180 1.368 . S
C1175 C1159 1.349 . S
C1175 H1167 0.950 . S
C1175 C1173 1.327 . S
C1176 C1164 1.349 . S
C1176 H1170 0.950 . S
C1176 C1177 1.327 . S
C1177 H1171 0.950 . S
C1177 C1176 1.327 . S
C1177 C1181 1.429 . S
C1178 C1161 1.574 . S
C1178 H1172 0.949 . S
C1178 C1182 1.368 . S
C1179 C1160 1.429 . S
C1179 C1173 1.429 . S
C1179 C1180 1.523 . S
C1180 C1161 1.368 . S
C1180 C1174 1.368 . S
C1180 C1179 1.523 . S
C1181 C1165 1.429 . S
C1181 C1177 1.429 . S
C1181 C1182 1.523 . S
C1182 C1166 1.368 . S
C1182 C1178 1.368 . S
C1182 C1181 1.523 . S
H1183 C1158 0.950 . S
H1184 C1160 0.950 . S
H1185 C1161 0.949 . S
H1186 C1163 0.950 . S
H1187 C1165 0.950 . S
C1188 C1189 1.349 . S
C1188 C1190 1.327 . S
C1188 H1213 0.950 . S
C1189 C1188 1.349 . S
C1189 C1205 1.349 . S
C1190 C1188 1.327 . S
C1190 C1209 1.429 . S
C1190 H1214 0.950 . S
C1191 C1208 1.574 . S
C1191 C1210 1.368 . S
C1191 H1215 0.949 . S
H1192 C1196 0.949 . S
C1193 C1194 1.349 1_554 S
C1193 C1195 1.327 . S
C1193 H1216 0.950 . S
C1194 C1193 1.349 1_556 S
C1194 C1206 1.349 . S
C1195 C1193 1.327 . S
C1195 C1211 1.429 1_554 S
C1195 H1217 0.950 . S
C1196 H1192 0.949 . S
C1196 C1204 1.574 . S
C1196 C1212 1.368 . S
H1197 C1205 0.950 . S
H1198 C1203 0.950 . S
H1199 C1204 0.949 . S
H1200 C1206 0.950 . S
H1201 C1207 0.950 . S
H1202 C1208 0.949 1_554 S
C1203 H1198 0.950 . S
C1203 C1205 1.327 . S
C1203 C1209 1.429 . S
C1204 C1196 1.574 . S
C1204 H1199 0.949 . S
C1204 C1210 1.368 . S
C1205 C1189 1.349 . S
C1205 H1197 0.950 . S
C1205 C1203 1.327 . S
C1206 C1194 1.349 . S
C1206 H1200 0.950 . S
C1206 C1207 1.327 . S
C1207 H1201 0.950 . S
C1207 C1206 1.327 . S
C1207 C1211 1.429 . S
C1208 C1191 1.574 . S
C1208 H1202 0.949 1_556 S
C1208 C1212 1.368 . S
C1209 C1190 1.429 . S
C1209 C1203 1.429 . S
C1209 C1210 1.523 . S
C1210 C1191 1.368 . S
C1210 C1204 1.368 . S
C1210 C1209 1.523 . S
C1211 C1195 1.429 1_556 S
C1211 C1207 1.429 . S
C1211 C1212 1.523 . S
C1212 C1196 1.368 . S
C1212 C1208 1.368 . S
C1212 C1211 1.523 . S
H1213 C1188 0.950 . S
H1214 C1190 0.950 . S
H1215 C1191 0.949 . S
H1216 C1193 0.950 . S
H1217 C1195 0.950 . S
C1218 C1219 1.349 . S
C1218 C1220 1.327 . S
C1218 H1243 0.950 . S
C1219 C1218 1.349 . S
C1219 C1235 1.349 . S
C1220 C1218 1.327 . S
C1220 C1239 1.429 . S
C1220 H1244 0.950 . S
C1221 C1238 1.574 . S
C1221 C1240 1.368 . S
C1221 H1245 0.949 . S
H1222 C1226 0.949 . S
C1223 C1224 1.312 1_554 S
C1223 C1225 1.327 . S
C1223 H1246 0.950 . S
C1224 C1223 1.312 1_556 S
C1224 C1236 1.406 . S
C1225 C1223 1.327 . S
C1225 C1241 1.429 1_554 S
C1225 H1247 0.950 . S
C1226 H1222 0.949 . S
C1226 C1234 1.574 . S
C1226 C1242 1.368 . S
H1227 C1235 0.950 . S
H1228 C1233 0.950 . S
H1229 C1234 0.949 . S
H1230 C1236 0.950 . S
H1231 C1237 0.950 . S
H1232 C1238 0.949 1_554 S
C1233 H1228 0.950 . S
C1233 C1235 1.327 . S
C1233 C1239 1.429 . S
C1234 C1226 1.574 . S
C1234 H1229 0.949 . S
C1234 C1240 1.368 . S
C1235 C1219 1.349 . S
C1235 H1227 0.950 . S
C1235 C1233 1.327 . S
C1236 C1224 1.406 . S
C1236 H1230 0.950 . S
C1236 C1237 1.327 . S
C1237 H1231 0.950 . S
C1237 C1236 1.327 . S
C1237 C1241 1.429 . S
C1238 C1221 1.574 . S
C1238 H1232 0.949 1_556 S
C1238 C1242 1.368 . S
C1239 C1220 1.429 . S
C1239 C1233 1.429 . S
C1239 C1240 1.523 . S
C1240 C1221 1.368 . S
C1240 C1234 1.368 . S
C1240 C1239 1.523 . S
C1241 C1225 1.429 1_556 S
C1241 C1237 1.429 . S
C1241 C1242 1.523 . S
C1242 C1226 1.368 . S
C1242 C1238 1.368 . S
C1242 C1241 1.523 . S
H1243 C1218 0.950 . S
H1244 C1220 0.950 . S
H1245 C1221 0.949 . S
H1246 C1223 0.950 . S
H1247 C1225 0.950 . S
C1248 C1249 1.349 . S
C1248 C1250 1.327 . S
C1248 H1273 0.950 . S
C1249 C1248 1.349 . S
C1249 C1265 1.349 . S
C1250 C1248 1.327 . S
C1250 C1269 1.429 . S
C1250 H1274 0.950 . S
C1251 C1268 1.574 . S
C1251 C1270 1.368 . S
C1251 H1275 0.949 . S
H1252 C1256 0.936 1_554 S
C1253 C1254 1.368 . S
C1253 C1255 1.327 . S
C1253 H1276 0.950 . S
C1254 C1253 1.368 . S
C1254 C1266 1.335 1_556 S
C1255 C1253 1.327 . S
C1255 C1271 1.429 . S
C1255 H1277 0.950 . S
C1256 H1252 0.936 1_556 S
C1256 C1264 1.577 . S
C1256 C1272 1.379 . S
H1257 C1265 0.950 . S
H1258 C1263 0.950 . S
H1259 C1264 0.949 1_554 S
H1260 C1266 0.950 . S
H1261 C1267 0.950 . S
H1262 C1268 0.949 . S
C1263 H1258 0.950 . S
C1263 C1265 1.327 . S
C1263 C1269 1.429 . S
C1264 C1256 1.577 . S
C1264 H1259 0.949 1_556 S
C1264 C1270 1.368 . S
C1265 C1249 1.349 . S
C1265 H1257 0.950 . S
C1265 C1263 1.327 . S
C1266 C1254 1.335 1_554 S
C1266 H1260 0.950 . S
C1266 C1267 1.327 . S
C1267 H1261 0.950 . S
C1267 C1266 1.327 . S
C1267 C1271 1.429 1_554 S
C1268 C1251 1.574 . S
C1268 H1262 0.949 . S
C1268 C1272 1.368 . S
C1269 C1250 1.429 . S
C1269 C1263 1.429 . S
C1269 C1270 1.523 . S
C1270 C1251 1.368 . S
C1270 C1264 1.368 . S
C1270 C1269 1.523 . S
C1271 C1255 1.429 . S
C1271 C1267 1.429 1_556 S
C1271 C1272 1.523 . S
C1272 C1256 1.379 . S
C1272 C1268 1.368 . S
C1272 C1271 1.523 . S
H1273 C1248 0.950 . S
H1274 C1250 0.950 . S
H1275 C1251 0.949 . S
H1276 C1253 0.950 . S
H1277 C1255 0.950 . S
C1278 C1279 1.349 . S
C1278 C1280 1.327 . S
C1278 H1303 0.950 . S
C1279 C1278 1.349 . S
C1279 C1295 1.349 . S
C1280 C1278 1.327 . S
C1280 C1299 1.429 . S
C1280 H1304 0.950 . S
C1281 C1298 1.568 1_556 S
C1281 C1300 1.368 . S
C1281 H1305 0.949 1_556 S
H1282 C1286 0.949 . S
C1283 C1284 1.349 1_554 S
C1283 C1285 1.327 . S
C1283 H1306 0.950 . S
C1284 C1283 1.349 1_556 S
C1284 C1296 1.349 . S
C1285 C1283 1.327 . S
C1285 C1301 1.429 1_554 S
C1285 H1307 0.950 . S
C1286 H1282 0.949 . S
C1286 C1294 1.574 . S
C1286 C1302 1.368 . S
H1287 C1295 0.950 . S
H1288 C1293 0.964 . S
H1289 C1294 0.949 . S
H1290 C1296 0.950 . S
H1291 C1297 0.950 . S
H1292 C1298 0.976 . S
C1293 H1288 0.964 . S
C1293 C1295 1.327 . S
C1293 C1299 1.429 . S
C1294 C1286 1.574 . S
C1294 H1289 0.949 . S
C1294 C1300 1.368 . S
C1295 C1279 1.349 . S
C1295 H1287 0.950 . S
C1295 C1293 1.327 . S
C1296 C1284 1.349 . S
C1296 H1290 0.950 . S
C1296 C1297 1.327 . S
C1297 H1291 0.950 . S
C1297 C1296 1.327 . S
C1297 C1301 1.429 . S
C1298 C1281 1.568 1_554 S
C1298 H1292 0.976 . S
C1298 C1302 1.345 1_554 S
C1299 C1280 1.429 . S
C1299 C1293 1.429 . S
C1299 C1300 1.523 . S
C1300 C1281 1.368 . S
C1300 C1294 1.368 . S
C1300 C1299 1.523 . S
C1301 C1285 1.429 1_556 S
C1301 C1297 1.429 . S
C1301 C1302 1.523 . S
C1302 C1286 1.368 . S
C1302 C1298 1.345 1_556 S
C1302 C1301 1.523 . S
H1303 C1278 0.950 . S
H1304 C1280 0.950 . S
H1305 C1281 0.949 1_554 S
H1306 C1283 0.950 . S
H1307 C1285 0.950 . S
C1308 C1309 1.349 . S
C1308 C1310 1.327 . S
C1308 H1333 0.950 . S
C1309 C1308 1.349 . S
C1309 C1325 1.349 . S
C1310 C1308 1.327 . S
C1310 C1329 1.429 . S
C1310 H1334 0.950 . S
C1311 C1328 1.574 . S
C1311 C1330 1.368 . S
C1311 H1335 0.949 . S
H1312 C1316 0.949 . S
C1313 C1314 1.349 . S
C1313 C1315 1.327 . S
C1313 H1336 0.950 . S
C1314 C1313 1.349 . S
C1314 C1326 1.349 1_556 S
C1315 C1313 1.327 . S
C1315 C1331 1.429 . S
C1315 H1337 0.950 . S
C1316 H1312 0.949 . S
C1316 C1324 1.574 . S
C1316 C1332 1.368 . S
H1317 C1325 0.950 . S
H1318 C1323 0.950 . S
H1319 C1324 0.949 . S
H1320 C1326 0.950 . S
H1321 C1327 0.950 1_554 S
H1322 C1328 0.949 . S
C1323 H1318 0.950 . S
C1323 C1325 1.327 . S
C1323 C1329 1.429 . S
C1324 C1316 1.574 . S
C1324 H1319 0.949 . S
C1324 C1330 1.368 . S
C1325 C1309 1.349 . S
C1325 H1317 0.950 . S
C1325 C1323 1.327 . S
C1326 C1314 1.349 1_554 S
C1326 H1320 0.950 . S
C1326 C1327 1.327 1_554 S
C1327 H1321 0.950 1_556 S
C1327 C1326 1.327 1_556 S
C1327 C1331 1.429 . S
C1328 C1311 1.574 . S
C1328 H1322 0.949 . S
C1328 C1332 1.368 . S
C1329 C1310 1.429 . S
C1329 C1323 1.429 . S
C1329 C1330 1.523 . S
C1330 C1311 1.368 . S
C1330 C1324 1.368 . S
C1330 C1329 1.523 . S
C1331 C1315 1.429 . S
C1331 C1327 1.429 . S
C1331 C1332 1.523 . S
C1332 C1316 1.368 . S
C1332 C1328 1.368 . S
C1332 C1331 1.523 . S
H1333 C1308 0.950 . S
H1334 C1310 0.950 . S
H1335 C1311 0.949 . S
H1336 C1313 0.950 . S
H1337 C1315 0.950 . S
C1338 C1339 1.349 . S
C1338 C1340 1.327 . S
C1338 H1363 0.950 . S
C1339 C1338 1.349 . S
C1339 C1355 1.349 . S
C1340 C1338 1.327 . S
C1340 C1359 1.429 . S
C1340 H1364 0.950 . S
C1341 C1358 1.574 . S
C1341 C1360 1.368 1_554 S
C1341 H1365 0.949 . S
H1342 C1346 0.949 . S
C1343 C1344 1.395 . S
C1343 C1345 1.327 . S
C1343 H1366 0.950 . S
C1344 C1343 1.395 . S
C1344 C1356 1.294 1_554 S
C1345 C1343 1.327 . S
C1345 C1361 1.429 1_554 S
C1345 H1367 0.950 . S
C1346 H1342 0.949 . S
C1346 C1354 1.574 . S
C1346 C1362 1.368 . S
H1347 C1355 0.909 1_554 S
H1348 C1353 0.950 1_554 S
H1349 C1354 0.949 . S
H1350 C1356 0.950 . S
H1351 C1357 0.950 . S
H1352 C1358 0.949 . S
C1353 H1348 0.950 1_556 S
C1353 C1355 1.327 . S
C1353 C1359 1.429 . S
C1354 C1346 1.574 . S
C1354 H1349 0.949 . S
C1354 C1360 1.368 . S
C1355 C1339 1.349 . S
C1355 H1347 0.909 1_556 S
C1355 C1353 1.327 . S
C1356 C1344 1.294 1_556 S
C1356 H1350 0.950 . S
C1356 C1357 1.327 . S
C1357 H1351 0.950 . S
C1357 C1356 1.327 . S
C1357 C1361 1.429 . S
C1358 C1341 1.574 . S
C1358 H1352 0.949 . S
C1358 C1362 1.368 1_554 S
C1359 C1340 1.429 . S
C1359 C1353 1.429 . S
C1359 C1360 1.523 . S
C1360 C1341 1.368 1_556 S
C1360 C1354 1.368 . S
C1360 C1359 1.523 . S
C1361 C1345 1.429 1_556 S
C1361 C1357 1.429 . S
C1361 C1362 1.523 . S
C1362 C1346 1.368 . S
C1362 C1358 1.368 1_556 S
C1362 C1361 1.523 . S
H1363 C1338 0.950 . S
H1364 C1340 0.950 . S
H1365 C1341 0.949 . S
H1366 C1343 0.950 . S
H1367 C1345 0.950 . S
C1368 C1369 1.349 . S
C1368 C1370 1.327 . S
C1368 H1393 0.950 . S
C1369 C1368 1.349 . S
C1369 C1385 1.349 . S
C1370 C1368 1.327 . S
C1370 C1389 1.429 . S
C1370 H1394 0.950 . S
C1371 C1388 1.574 . S
C1371 C1390 1.368 . S
C1371 H1395 0.949 . S
H1372 C1376 0.949 . S
C1373 C1374 1.349 . S
C1373 C1375 1.327 . S
C1373 H1396 0.985 . S
C1374 C1373 1.349 . S
C1374 C1386 1.349 . S
C1375 C1373 1.327 . S
C1375 C1391 1.429 . S
C1375 H1397 0.950 . S
C1376 H1372 0.949 . S
C1376 C1384 1.574 . S
C1376 C1392 1.368 . S
H1377 C1385 0.950 . S
H1378 C1383 0.950 . S
H1379 C1384 0.949 . S
H1380 C1386 0.950 . S
H1381 C1387 0.950 . S
H1382 C1388 0.949 . S
C1383 H1378 0.950 . S
C1383 C1385 1.327 . S
C1383 C1389 1.429 . S
C1384 C1376 1.574 . S
C1384 H1379 0.949 . S
C1384 C1390 1.368 . S
C1385 C1369 1.349 . S
C1385 H1377 0.950 . S
C1385 C1383 1.327 . S
C1386 C1374 1.349 . S
C1386 H1380 0.950 . S
C1386 C1387 1.327 . S
C1387 H1381 0.950 . S
C1387 C1386 1.327 . S
C1387 C1391 1.429 . S
C1388 C1371 1.574 . S
C1388 H1382 0.949 . S
C1388 C1392 1.368 . S
C1389 C1370 1.429 . S
C1389 C1383 1.429 . S
C1389 C1390 1.523 . S
C1390 C1371 1.368 . S
C1390 C1384 1.368 . S
C1390 C1389 1.523 . S
C1391 C1375 1.429 . S
C1391 C1387 1.429 . S
C1391 C1392 1.523 . S
C1392 C1376 1.368 . S
C1392 C1388 1.368 . S
C1392 C1391 1.523 . S
H1393 C1368 0.950 . S
H1394 C1370 0.950 . S
H1395 C1371 0.949 . S
H1396 C1373 0.985 . S
H1397 C1375 0.950 . S
C1398 C1399 1.349 . S
C1398 C1400 1.327 . S
C1398 H1423 0.950 . S
C1399 C1398 1.349 . S
C1399 C1415 1.349 . S
C1400 C1398 1.327 . S
C1400 C1419 1.429 . S
C1400 H1424 0.950 . S
C1401 C1418 1.574 . S
C1401 C1420 1.368 . S
C1401 H1425 0.949 . S
H1402 C1406 0.949 . S
C1403 C1404 1.349 . S
C1403 C1405 1.327 . S
C1403 H1426 0.950 . S
C1404 C1403 1.349 . S
C1404 C1416 1.349 . S
C1405 C1403 1.327 . S
C1405 C1421 1.429 . S
C1405 H1427 0.950 . S
C1406 H1402 0.949 . S
C1406 C1414 1.574 . S
C1406 C1422 1.368 . S
H1407 C1415 0.950 . S
H1408 C1413 0.950 . S
H1409 C1414 0.949 . S
H1410 C1416 0.950 . S
H1411 C1417 0.950 . S
H1412 C1418 0.949 . S
C1413 H1408 0.950 . S
C1413 C1415 1.327 . S
C1413 C1419 1.429 . S
C1414 C1406 1.574 . S
C1414 H1409 0.949 . S
C1414 C1420 1.368 . S
C1415 C1399 1.349 . S
C1415 H1407 0.950 . S
C1415 C1413 1.327 . S
C1416 C1404 1.349 . S
C1416 H1410 0.950 . S
C1416 C1417 1.327 . S
C1417 H1411 0.950 . S
C1417 C1416 1.327 . S
C1417 C1421 1.429 . S
C1418 C1401 1.574 . S
C1418 H1412 0.949 . S
C1418 C1422 1.368 . S
C1419 C1400 1.429 . S
C1419 C1413 1.429 . S
C1419 C1420 1.523 . S
C1420 C1401 1.368 . S
C1420 C1414 1.368 . S
C1420 C1419 1.523 . S
C1421 C1405 1.429 . S
C1421 C1417 1.429 . S
C1421 C1422 1.523 . S
C1422 C1406 1.368 . S
C1422 C1418 1.368 . S
C1422 C1421 1.523 . S
H1423 C1398 0.950 . S
H1424 C1400 0.950 . S
H1425 C1401 0.949 . S
H1426 C1403 0.950 . S
H1427 C1405 0.950 . S
C1428 C1429 1.349 . S
C1428 C1430 1.327 . S
C1428 H1453 0.950 . S
C1429 C1428 1.349 . S
C1429 C1445 1.349 . S
C1430 C1428 1.327 . S
C1430 C1449 1.429 . S
C1430 H1454 0.950 . S
C1431 C1448 1.574 . S
C1431 C1450 1.368 . S
C1431 H1455 0.949 . S
H1432 C1436 0.949 . S
C1433 C1434 1.349 . S
C1433 C1435 1.327 . S
C1433 H1456 0.950 1_554 S
C1434 C1433 1.349 . S
C1434 C1446 1.349 . S
C1435 C1433 1.327 . S
C1435 C1451 1.429 . S
C1435 H1457 0.933 1_554 S
C1436 H1432 0.949 . S
C1436 C1444 1.574 . S
C1436 C1452 1.368 . S
H1437 C1445 0.950 . S
H1438 C1443 0.950 . S
H1439 C1444 0.949 . S
H1440 C1446 0.950 . S
H1441 C1447 0.950 . S
H1442 C1448 0.949 . S
C1443 H1438 0.950 . S
C1443 C1445 1.327 . S
C1443 C1449 1.429 . S
C1444 C1436 1.574 . S
C1444 H1439 0.949 . S
C1444 C1450 1.368 . S
C1445 C1429 1.349 . S
C1445 H1437 0.950 . S
C1445 C1443 1.327 . S
C1446 C1434 1.349 . S
C1446 H1440 0.950 . S
C1446 C1447 1.327 . S
C1447 H1441 0.950 . S
C1447 C1446 1.327 . S
C1447 C1451 1.429 . S
C1448 C1431 1.574 . S
C1448 H1442 0.949 . S
C1448 C1452 1.368 . S
C1449 C1430 1.429 . S
C1449 C1443 1.429 . S
C1449 C1450 1.523 . S
C1450 C1431 1.368 . S
C1450 C1444 1.368 . S
C1450 C1449 1.523 . S
C1451 C1435 1.429 . S
C1451 C1447 1.429 . S
C1451 C1452 1.523 . S
C1452 C1436 1.368 . S
C1452 C1448 1.368 . S
C1452 C1451 1.523 . S
H1453 C1428 0.950 . S
H1454 C1430 0.950 . S
H1455 C1431 0.949 . S
H1456 C1433 0.950 1_556 S
H1457 C1435 0.933 1_556 S
C1458 C1459 1.349 . S
C1458 C1460 1.327 . S
C1458 H1483 0.950 . S
C1459 C1458 1.349 . S
C1459 C1475 1.349 . S
C1460 C1458 1.327 . S
C1460 C1479 1.429 . S
C1460 H1484 0.950 . S
C1461 C1478 1.574 1_655 S
C1461 C1480 1.368 . S
C1461 H1485 0.949 . S
H1462 C1466 0.949 . S
C1463 C1464 1.349 . S
C1463 C1465 1.327 . S
C1463 H1486 0.950 . S
C1464 C1463 1.349 . S
C1464 C1476 1.349 . S
C1465 C1463 1.327 . S
C1465 C1481 1.429 . S
C1465 H1487 0.950 . S
C1466 H1462 0.949 . S
C1466 C1474 1.574 . S
C1466 C1482 1.368 . S
H1467 C1475 0.950 . S
H1468 C1473 0.950 . S
H1469 C1474 0.949 . S
H1470 C1476 0.950 . S
H1471 C1477 0.950 . S
H1472 C1478 0.949 . S
C1473 H1468 0.950 . S
C1473 C1475 1.327 . S
C1473 C1479 1.429 . S
C1474 C1466 1.574 . S
C1474 H1469 0.949 . S
C1474 C1480 1.368 1_455 S
C1475 C1459 1.349 . S
C1475 H1467 0.950 . S
C1475 C1473 1.327 . S
C1476 C1464 1.349 . S
C1476 H1470 0.950 . S
C1476 C1477 1.327 . S
C1477 H1471 0.950 . S
C1477 C1476 1.327 . S
C1477 C1481 1.429 . S
C1478 C1461 1.574 1_455 S
C1478 H1472 0.949 . S
C1478 C1482 1.368 . S
C1479 C1460 1.429 . S
C1479 C1473 1.429 . S
C1479 C1480 1.523 . S
C1480 C1461 1.368 . S
C1480 C1474 1.368 1_655 S
C1480 C1479 1.523 . S
C1481 C1465 1.429 . S
C1481 C1477 1.429 . S
C1481 C1482 1.523 . S
C1482 C1466 1.368 . S
C1482 C1478 1.368 . S
C1482 C1481 1.523 . S
H1483 C1458 0.950 . S
H1484 C1460 0.950 . S
H1485 C1461 0.949 . S
H1486 C1463 0.950 . S
H1487 C1465 0.950 . S
C1488 C1489 1.349 . S
C1488 C1490 1.327 . S
C1488 H1513 0.950 . S
C1489 C1488 1.349 . S
C1489 C1505 1.349 . S
C1490 C1488 1.327 . S
C1490 C1509 1.429 . S
C1490 H1514 0.950 . S
C1491 C1508 1.574 . S
C1491 C1510 1.368 . S
C1491 H1515 0.949 . S
H1492 C1496 0.949 . S
C1493 C1494 1.349 . S
C1493 C1495 1.327 . S
C1493 H1516 0.950 . S
C1494 C1493 1.349 . S
C1494 C1506 1.349 . S
C1495 C1493 1.327 . S
C1495 C1511 1.429 . S
C1495 H1517 0.950 . S
C1496 H1492 0.949 . S
C1496 C1504 1.574 . S
C1496 C1512 1.368 . S
H1497 C1505 0.950 . S
H1498 C1503 0.950 . S
H1499 C1504 0.949 . S
H1500 C1506 0.950 . S
H1501 C1507 0.950 . S
H1502 C1508 0.949 . S
C1503 H1498 0.950 . S
C1503 C1505 1.327 . S
C1503 C1509 1.429 . S
C1504 C1496 1.574 . S
C1504 H1499 0.949 . S
C1504 C1510 1.368 . S
C1505 C1489 1.349 . S
C1505 H1497 0.950 . S
C1505 C1503 1.327 . S
C1506 C1494 1.349 . S
C1506 H1500 0.950 . S
C1506 C1507 1.327 . S
C1507 H1501 0.950 . S
C1507 C1506 1.327 . S
C1507 C1511 1.429 . S
C1508 C1491 1.574 . S
C1508 H1502 0.949 . S
C1508 C1512 1.368 . S
C1509 C1490 1.429 . S
C1509 C1503 1.429 . S
C1509 C1510 1.523 . S
C1510 C1491 1.368 . S
C1510 C1504 1.368 . S
C1510 C1509 1.523 . S
C1511 C1495 1.429 . S
C1511 C1507 1.429 . S
C1511 C1512 1.523 . S
C1512 C1496 1.368 . S
C1512 C1508 1.368 . S
C1512 C1511 1.523 . S
H1513 C1488 0.950 . S
H1514 C1490 0.950 . S
H1515 C1491 0.949 . S
H1516 C1493 0.950 . S
H1517 C1495 0.950 . S
C1518 C1519 1.349 . S
C1518 C1520 1.327 . S
C1518 H1543 0.950 . S
C1519 C1518 1.349 . S
C1519 C1535 1.349 . S
C1520 C1518 1.327 . S
C1520 C1539 1.429 . S
C1520 H1544 0.950 . S
C1521 C1538 1.574 1_545 S
C1521 C1540 1.368 . S
C1521 H1545 0.949 . S
H1522 C1526 0.949 . S
C1523 C1524 1.349 . S
C1523 C1525 1.327 . S
C1523 H1546 0.950 . S
C1524 C1523 1.349 . S
C1524 C1536 1.349 . S
C1525 C1523 1.327 . S
C1525 C1541 1.429 . S
C1525 H1547 0.950 . S
C1526 H1522 0.949 . S
C1526 C1534 1.574 . S
C1526 C1542 1.368 1_545 S
H1527 C1535 0.950 . S
H1528 C1533 0.950 . S
H1529 C1534 0.949 . S
H1530 C1536 0.950 . S
H1531 C1537 0.950 . S
H1532 C1538 0.949 . S
C1533 H1528 0.950 . S
C1533 C1535 1.327 . S
C1533 C1539 1.429 . S
C1534 C1526 1.574 . S
C1534 H1529 0.949 . S
C1534 C1540 1.368 . S
C1535 C1519 1.349 . S
C1535 H1527 0.950 . S
C1535 C1533 1.327 . S
C1536 C1524 1.349 . S
C1536 H1530 0.950 . S
C1536 C1537 1.327 . S
C1537 H1531 0.950 . S
C1537 C1536 1.327 . S
C1537 C1541 1.429 . S
C1538 C1521 1.574 1_565 S
C1538 H1532 0.949 . S
C1538 C1542 1.368 . S
C1539 C1520 1.429 . S
C1539 C1533 1.429 . S
C1539 C1540 1.523 . S
C1540 C1521 1.368 . S
C1540 C1534 1.368 . S
C1540 C1539 1.523 . S
C1541 C1525 1.429 . S
C1541 C1537 1.429 . S
C1541 C1542 1.523 . S
C1542 C1526 1.368 1_565 S
C1542 C1538 1.368 . S
C1542 C1541 1.523 . S
H1543 C1518 0.950 . S
H1544 C1520 0.950 . S
H1545 C1521 0.949 . S
H1546 C1523 0.950 . S
H1547 C1525 0.950 . S
C1548 C1549 1.349 . S
C1548 C1550 1.327 . S
C1548 H1573 0.950 . S
C1549 C1548 1.349 . S
C1549 C1565 1.349 . S
C1550 C1548 1.327 . S
C1550 C1569 1.429 . S
C1550 H1574 0.950 . S
C1551 C1568 1.574 . S
C1551 C1570 1.368 . S
C1551 H1575 0.949 . S
H1552 C1556 0.949 . S
C1553 C1554 1.349 . S
C1553 C1555 1.327 . S
C1553 H1576 0.950 . S
C1554 C1553 1.349 . S
C1554 C1566 1.349 . S
C1555 C1553 1.327 . S
C1555 C1571 1.429 . S
C1555 H1577 0.950 . S
C1556 H1552 0.949 . S
C1556 C1564 1.574 . S
C1556 C1572 1.368 . S
H1557 C1565 0.950 . S
H1558 C1563 0.950 . S
H1559 C1564 0.949 . S
H1560 C1566 0.950 . S
H1561 C1567 0.950 . S
H1562 C1568 0.949 . S
C1563 H1558 0.950 . S
C1563 C1565 1.327 . S
C1563 C1569 1.429 . S
C1564 C1556 1.574 . S
C1564 H1559 0.949 . S
C1564 C1570 1.368 . S
C1565 C1549 1.349 . S
C1565 H1557 0.950 . S
C1565 C1563 1.327 . S
C1566 C1554 1.349 . S
C1566 H1560 0.950 . S
C1566 C1567 1.327 . S
C1567 H1561 0.950 . S
C1567 C1566 1.327 . S
C1567 C1571 1.429 . S
C1568 C1551 1.574 . S
C1568 H1562 0.949 . S
C1568 C1572 1.368 . S
C1569 C1550 1.429 . S
C1569 C1563 1.429 . S
C1569 C1570 1.523 . S
C1570 C1551 1.368 . S
C1570 C1564 1.368 . S
C1570 C1569 1.523 . S
C1571 C1555 1.429 . S
C1571 C1567 1.429 . S
C1571 C1572 1.523 . S
C1572 C1556 1.368 . S
C1572 C1568 1.368 . S
C1572 C1571 1.523 . S
H1573 C1548 0.950 . S
H1574 C1550 0.950 . S
H1575 C1551 0.949 . S
H1576 C1553 0.950 . S
H1577 C1555 0.950 . S
C1578 C1579 1.349 . S
C1578 C1580 1.327 . S
C1578 H1603 0.950 . S
C1579 C1578 1.349 . S
C1579 C1595 1.349 . S
C1580 C1578 1.327 . S
C1580 C1599 1.429 . S
C1580 H1604 0.950 . S
C1581 C1598 1.574 . S
C1581 C1600 1.368 . S
C1581 H1605 0.949 . S
H1582 C1586 0.949 . S
C1583 C1584 1.349 . S
C1583 C1585 1.327 . S
C1583 H1606 0.950 . S
C1584 C1583 1.349 . S
C1584 C1596 1.349 . S
C1585 C1583 1.327 . S
C1585 C1601 1.429 . S
C1585 H1607 0.950 . S
C1586 H1582 0.949 . S
C1586 C1594 1.574 . S
C1586 C1602 1.368 . S
H1587 C1595 0.950 . S
H1588 C1593 0.950 . S
H1589 C1594 0.949 . S
H1590 C1596 0.950 . S
H1591 C1597 0.950 . S
H1592 C1598 0.949 . S
C1593 H1588 0.950 . S
C1593 C1595 1.327 . S
C1593 C1599 1.429 . S
C1594 C1586 1.574 . S
C1594 H1589 0.949 . S
C1594 C1600 1.368 . S
C1595 C1579 1.349 . S
C1595 H1587 0.950 . S
C1595 C1593 1.327 . S
C1596 C1584 1.349 . S
C1596 H1590 0.950 . S
C1596 C1597 1.327 . S
C1597 H1591 0.950 . S
C1597 C1596 1.327 . S
C1597 C1601 1.429 . S
C1598 C1581 1.574 . S
C1598 H1592 0.949 . S
C1598 C1602 1.368 . S
C1599 C1580 1.429 . S
C1599 C1593 1.429 . S
C1599 C1600 1.523 . S
C1600 C1581 1.368 . S
C1600 C1594 1.368 . S
C1600 C1599 1.523 . S
C1601 C1585 1.429 . S
C1601 C1597 1.429 . S
C1601 C1602 1.523 . S
C1602 C1586 1.368 . S
C1602 C1598 1.368 . S
C1602 C1601 1.523 . S
H1603 C1578 0.950 . S
H1604 C1580 0.950 . S
H1605 C1581 0.949 . S
H1606 C1583 0.950 . S
H1607 C1585 0.950 . S
C1608 C1609 1.349 . S
C1608 C1610 1.327 . S
C1608 H1633 0.950 . S
C1609 C1608 1.349 . S
C1609 C1625 1.349 . S
C1610 C1608 1.327 . S
C1610 C1629 1.429 . S
C1610 H1634 0.950 . S
C1611 C1628 1.574 . S
C1611 C1630 1.368 . S
C1611 H1635 0.949 . S
H1612 C1616 0.949 . S
C1613 C1614 1.349 . S
C1613 C1615 1.327 . S
C1613 H1636 0.950 . S
C1614 C1613 1.349 . S
C1614 C1626 1.349 . S
C1615 C1613 1.327 . S
C1615 C1631 1.429 . S
C1615 H1637 0.950 . S
C1616 H1612 0.949 . S
C1616 C1624 1.574 . S
C1616 C1632 1.368 . S
H1617 C1625 0.950 . S
H1618 C1623 0.950 . S
H1619 C1624 0.949 . S
H1620 C1626 0.950 . S
H1621 C1627 0.950 . S
H1622 C1628 0.949 . S
C1623 H1618 0.950 . S
C1623 C1625 1.327 . S
C1623 C1629 1.429 . S
C1624 C1616 1.574 . S
C1624 H1619 0.949 . S
C1624 C1630 1.368 . S
C1625 C1609 1.349 . S
C1625 H1617 0.950 . S
C1625 C1623 1.327 . S
C1626 C1614 1.349 . S
C1626 H1620 0.950 . S
C1626 C1627 1.327 . S
C1627 H1621 0.950 . S
C1627 C1626 1.327 . S
C1627 C1631 1.429 . S
C1628 C1611 1.574 . S
C1628 H1622 0.949 . S
C1628 C1632 1.368 . S
C1629 C1610 1.429 . S
C1629 C1623 1.429 . S
C1629 C1630 1.523 . S
C1630 C1611 1.368 . S
C1630 C1624 1.368 . S
C1630 C1629 1.523 . S
C1631 C1615 1.429 . S
C1631 C1627 1.429 . S
C1631 C1632 1.523 . S
C1632 C1616 1.368 . S
C1632 C1628 1.368 . S
C1632 C1631 1.523 . S
H1633 C1608 0.950 . S
H1634 C1610 0.950 . S
H1635 C1611 0.949 . S
H1636 C1613 0.950 . S
H1637 C1615 0.950 . S
C1638 C1639 1.349 . S
C1638 C1640 1.327 . S
C1638 H1663 0.950 . S
C1639 C1638 1.349 . S
C1639 C1655 1.349 . S
C1640 C1638 1.327 . S
C1640 C1659 1.429 . S
C1640 H1664 0.950 . S
C1641 C1658 1.574 . S
C1641 C1660 1.368 . S
C1641 H1665 0.949 . S
H1642 C1646 0.949 . S
C1643 C1644 1.349 . S
C1643 C1645 1.327 . S
C1643 H1666 0.950 . S
C1644 C1643 1.349 . S
C1644 C1656 1.349 . S
C1645 C1643 1.327 . S
C1645 C1661 1.429 . S
C1645 H1667 0.950 . S
C1646 H1642 0.949 . S
C1646 C1654 1.574 . S
C1646 C1662 1.368 . S
H1647 C1655 0.950 . S
H1648 C1653 0.950 . S
H1649 C1654 0.949 . S
H1650 C1656 0.950 . S
H1651 C1657 0.950 . S
H1652 C1658 0.949 . S
C1653 H1648 0.950 . S
C1653 C1655 1.327 . S
C1653 C1659 1.429 . S
C1654 C1646 1.574 . S
C1654 H1649 0.949 . S
C1654 C1660 1.368 . S
C1655 C1639 1.349 . S
C1655 H1647 0.950 . S
C1655 C1653 1.327 . S
C1656 C1644 1.349 . S
C1656 H1650 0.950 . S
C1656 C1657 1.327 . S
C1657 H1651 0.950 . S
C1657 C1656 1.327 . S
C1657 C1661 1.429 . S
C1658 C1641 1.574 . S
C1658 H1652 0.949 . S
C1658 C1662 1.368 . S
C1659 C1640 1.429 . S
C1659 C1653 1.429 . S
C1659 C1660 1.523 . S
C1660 C1641 1.368 . S
C1660 C1654 1.368 . S
C1660 C1659 1.523 . S
C1661 C1645 1.429 . S
C1661 C1657 1.429 . S
C1661 C1662 1.523 . S
C1662 C1646 1.368 . S
C1662 C1658 1.368 . S
C1662 C1661 1.523 . S
H1663 C1638 0.950 . S
H1664 C1640 0.950 . S
H1665 C1641 0.949 . S
H1666 C1643 0.950 . S
H1667 C1645 0.950 . S
C1668 C1669 1.349 . S
C1668 C1670 1.327 . S
C1668 H1693 0.950 . S
C1669 C1668 1.349 . S
C1669 C1685 1.349 . S
C1670 C1668 1.327 . S
C1670 C1689 1.429 . S
C1670 H1694 0.950 . S
C1671 C1688 1.574 . S
C1671 C1690 1.368 . S
C1671 H1695 0.949 . S
H1672 C1676 0.949 . S
C1673 C1674 1.349 . S
C1673 C1675 1.327 . S
C1673 H1696 0.950 . S
C1674 C1673 1.349 . S
C1674 C1686 1.349 . S
C1675 C1673 1.327 . S
C1675 C1691 1.429 . S
C1675 H1697 0.950 . S
C1676 H1672 0.949 . S
C1676 C1684 1.574 . S
C1676 C1692 1.368 . S
H1677 C1685 0.950 . S
H1678 C1683 0.950 . S
H1679 C1684 0.949 . S
H1680 C1686 0.950 . S
H1681 C1687 0.950 . S
H1682 C1688 0.949 . S
C1683 H1678 0.950 . S
C1683 C1685 1.327 . S
C1683 C1689 1.429 . S
C1684 C1676 1.574 . S
C1684 H1679 0.949 . S
C1684 C1690 1.368 . S
C1685 C1669 1.349 . S
C1685 H1677 0.950 . S
C1685 C1683 1.327 . S
C1686 C1674 1.349 . S
C1686 H1680 0.950 . S
C1686 C1687 1.327 . S
C1687 H1681 0.950 . S
C1687 C1686 1.327 . S
C1687 C1691 1.429 . S
C1688 C1671 1.574 . S
C1688 H1682 0.949 . S
C1688 C1692 1.368 . S
C1689 C1670 1.429 . S
C1689 C1683 1.429 . S
C1689 C1690 1.523 . S
C1690 C1671 1.368 . S
C1690 C1684 1.368 . S
C1690 C1689 1.523 . S
C1691 C1675 1.429 . S
C1691 C1687 1.429 . S
C1691 C1692 1.523 . S
C1692 C1676 1.368 . S
C1692 C1688 1.368 . S
C1692 C1691 1.523 . S
H1693 C1668 0.950 . S
H1694 C1670 0.950 . S
H1695 C1671 0.949 . S
H1696 C1673 0.950 . S
H1697 C1675 0.950 . S
C1698 C1699 1.349 . S
C1698 C1700 1.327 . S
C1698 H1723 0.950 . S
C1699 C1698 1.349 . S
C1699 C1715 1.349 . S
C1700 C1698 1.327 . S
C1700 C1719 1.429 . S
C1700 H1724 0.950 . S
C1701 C1718 1.574 . S
C1701 C1720 1.368 . S
C1701 H1725 0.949 . S
H1702 C1706 0.949 . S
C1703 C1704 1.349 . S
C1703 C1705 1.327 . S
C1703 H1726 0.950 . S
C1704 C1703 1.349 . S
C1704 C1716 1.349 . S
C1705 C1703 1.327 . S
C1705 C1721 1.429 . S
C1705 H1727 0.950 . S
C1706 H1702 0.949 . S
C1706 C1714 1.574 . S
C1706 C1722 1.368 . S
H1707 C1715 0.950 . S
H1708 C1713 0.950 . S
H1709 C1714 0.949 . S
H1710 C1716 0.950 . S
H1711 C1717 0.950 . S
H1712 C1718 0.949 . S
C1713 H1708 0.950 . S
C1713 C1715 1.327 . S
C1713 C1719 1.429 . S
C1714 C1706 1.574 . S
C1714 H1709 0.949 . S
C1714 C1720 1.368 . S
C1715 C1699 1.349 . S
C1715 H1707 0.950 . S
C1715 C1713 1.327 . S
C1716 C1704 1.349 . S
C1716 H1710 0.950 . S
C1716 C1717 1.327 . S
C1717 H1711 0.950 . S
C1717 C1716 1.327 . S
C1717 C1721 1.429 . S
C1718 C1701 1.574 . S
C1718 H1712 0.949 . S
C1718 C1722 1.368 . S
C1719 C1700 1.429 . S
C1719 C1713 1.429 . S
C1719 C1720 1.523 . S
C1720 C1701 1.368 . S
C1720 C1714 1.368 . S
C1720 C1719 1.523 . S
C1721 C1705 1.429 . S
C1721 C1717 1.429 . S
C1721 C1722 1.523 . S
C1722 C1706 1.368 . S
C1722 C1718 1.368 . S
C1722 C1721 1.523 . S
H1723 C1698 0.950 . S
H1724 C1700 0.950 . S
H1725 C1701 0.949 . S
H1726 C1703 0.950 . S
H1727 C1705 0.950 . S
C1728 C1729 1.349 . S
C1728 C1730 1.327 1_545 S
C1728 H1753 0.950 . S
C1729 C1728 1.349 . S
C1729 C1745 1.349 . S
C1730 C1728 1.327 1_565 S
C1730 C1749 1.429 . S
C1730 H1754 0.950 . S
C1731 C1748 1.574 . S
C1731 C1750 1.368 . S
C1731 H1755 0.949 . S
H1732 C1736 0.949 . S
C1733 C1734 1.349 . S
C1733 C1735 1.327 . S
C1733 H1756 0.950 . S
C1734 C1733 1.349 . S
C1734 C1746 1.349 . S
C1735 C1733 1.327 . S
C1735 C1751 1.429 . S
C1735 H1757 0.950 . S
C1736 H1732 0.949 . S
C1736 C1744 1.574 . S
C1736 C1752 1.368 . S
H1737 C1745 0.950 . S
H1738 C1743 0.950 . S
H1739 C1744 0.949 . S
H1740 C1746 0.950 . S
H1741 C1747 0.950 . S
H1742 C1748 0.949 . S
C1743 H1738 0.950 . S
C1743 C1745 1.327 1_565 S
C1743 C1749 1.429 . S
C1744 C1736 1.574 . S
C1744 H1739 0.949 . S
C1744 C1750 1.368 . S
C1745 C1729 1.349 . S
C1745 H1737 0.950 . S
C1745 C1743 1.327 1_545 S
C1746 C1734 1.349 . S
C1746 H1740 0.950 . S
C1746 C1747 1.327 . S
C1747 H1741 0.950 . S
C1747 C1746 1.327 . S
C1747 C1751 1.429 . S
C1748 C1731 1.574 . S
C1748 H1742 0.949 . S
C1748 C1752 1.368 . S
C1749 C1730 1.429 . S
C1749 C1743 1.429 . S
C1749 C1750 1.523 . S
C1750 C1731 1.368 . S
C1750 C1744 1.368 . S
C1750 C1749 1.523 . S
C1751 C1735 1.429 . S
C1751 C1747 1.429 . S
C1751 C1752 1.523 . S
C1752 C1736 1.368 . S
C1752 C1748 1.368 . S
C1752 C1751 1.523 . S
H1753 C1728 0.950 . S
H1754 C1730 0.950 . S
H1755 C1731 0.949 . S
H1756 C1733 0.950 . S
H1757 C1735 0.950 . S
C1758 C1759 1.349 1_455 S
C1758 C1760 1.327 . S
C1758 H1783 0.950 . S
C1759 C1758 1.349 1_655 S
C1759 C1775 1.349 1_655 S
C1760 C1758 1.327 . S
C1760 C1779 1.429 . S
C1760 H1784 0.950 . S
C1761 C1778 1.574 . S
C1761 C1780 1.368 . S
C1761 H1785 0.949 . S
H1762 C1766 0.949 . S
C1763 C1764 1.349 . S
C1763 C1765 1.327 . S
C1763 H1786 0.950 . S
C1764 C1763 1.349 . S
C1764 C1776 1.349 . S
C1765 C1763 1.327 . S
C1765 C1781 1.429 . S
C1765 H1787 0.950 . S
C1766 H1762 0.949 . S
C1766 C1774 1.574 . S
C1766 C1782 1.368 . S
H1767 C1775 0.950 1_655 S
H1768 C1773 0.950 . S
H1769 C1774 0.949 . S
H1770 C1776 0.950 . S
H1771 C1777 0.950 . S
H1772 C1778 0.949 . S
C1773 H1768 0.950 . S
C1773 C1775 1.327 . S
C1773 C1779 1.429 . S
C1774 C1766 1.574 . S
C1774 H1769 0.949 . S
C1774 C1780 1.368 . S
C1775 C1759 1.349 1_455 S
C1775 H1767 0.950 1_455 S
C1775 C1773 1.327 . S
C1776 C1764 1.349 . S
C1776 H1770 0.950 . S
C1776 C1777 1.327 . S
C1777 H1771 0.950 . S
C1777 C1776 1.327 . S
C1777 C1781 1.429 . S
C1778 C1761 1.574 . S
C1778 H1772 0.949 . S
C1778 C1782 1.368 . S
C1779 C1760 1.429 . S
C1779 C1773 1.429 . S
C1779 C1780 1.523 . S
C1780 C1761 1.368 . S
C1780 C1774 1.368 . S
C1780 C1779 1.523 . S
C1781 C1765 1.429 . S
C1781 C1777 1.429 . S
C1781 C1782 1.523 . S
C1782 C1766 1.368 . S
C1782 C1778 1.368 . S
C1782 C1781 1.523 . S
H1783 C1758 0.950 . S
H1784 C1760 0.950 . S
H1785 C1761 0.949 . S
H1786 C1763 0.950 . S
H1787 C1765 0.950 . S
C1788 C1789 1.349 . S
C1788 C1790 1.327 . S
C1788 H1813 0.950 . S
C1789 C1788 1.349 . S
C1789 C1805 1.349 . S
C1790 C1788 1.327 . S
C1790 C1809 1.429 . S
C1790 H1814 0.950 . S
C1791 C1808 1.574 . S
C1791 C1810 1.368 . S
C1791 H1815 0.949 . S
H1792 C1796 0.949 . S
C1793 C1794 1.349 . S
C1793 C1795 1.327 . S
C1793 H1816 0.950 . S
C1794 C1793 1.349 . S
C1794 C1806 1.349 . S
C1795 C1793 1.327 . S
C1795 C1811 1.429 . S
C1795 H1817 0.950 . S
C1796 H1792 0.949 . S
C1796 C1804 1.574 . S
C1796 C1812 1.368 . S
H1797 C1805 0.950 . S
H1798 C1803 0.950 . S
H1799 C1804 0.949 . S
H1800 C1806 0.950 . S
H1801 C1807 0.950 . S
H1802 C1808 0.949 . S
C1803 H1798 0.950 . S
C1803 C1805 1.327 . S
C1803 C1809 1.429 . S
C1804 C1796 1.574 . S
C1804 H1799 0.949 . S
C1804 C1810 1.368 . S
C1805 C1789 1.349 . S
C1805 H1797 0.950 . S
C1805 C1803 1.327 . S
C1806 C1794 1.349 . S
C1806 H1800 0.950 . S
C1806 C1807 1.327 . S
C1807 H1801 0.950 . S
C1807 C1806 1.327 . S
C1807 C1811 1.429 . S
C1808 C1791 1.574 . S
C1808 H1802 0.949 . S
C1808 C1812 1.368 . S
C1809 C1790 1.429 . S
C1809 C1803 1.429 . S
C1809 C1810 1.523 . S
C1810 C1791 1.368 . S
C1810 C1804 1.368 . S
C1810 C1809 1.523 . S
C1811 C1795 1.429 . S
C1811 C1807 1.429 . S
C1811 C1812 1.523 . S
C1812 C1796 1.368 . S
C1812 C1808 1.368 . S
C1812 C1811 1.523 . S
H1813 C1788 0.950 . S
H1814 C1790 0.950 . S
H1815 C1791 0.949 . S
H1816 C1793 0.950 . S
H1817 C1795 0.950 . S
C1818 C1819 1.349 . S
C1818 C1820 1.327 . S
C1818 H1843 0.950 . S
C1819 C1818 1.349 . S
C1819 C1835 1.349 . S
C1820 C1818 1.327 . S
C1820 C1839 1.429 . S
C1820 H1844 0.950 . S
C1821 C1838 1.574 . S
C1821 C1840 1.368 . S
C1821 H1845 0.949 . S
H1822 C1826 0.949 . S
C1823 C1824 1.349 . S
C1823 C1825 1.327 . S
C1823 H1846 0.950 . S
C1824 C1823 1.349 . S
C1824 C1836 1.349 . S
C1825 C1823 1.327 . S
C1825 C1841 1.429 . S
C1825 H1847 0.950 . S
C1826 H1822 0.949 . S
C1826 C1834 1.574 . S
C1826 C1842 1.368 . S
H1827 C1835 0.950 . S
H1828 C1833 0.950 . S
H1829 C1834 0.949 . S
H1830 C1836 0.950 . S
H1831 C1837 0.950 . S
H1832 C1838 0.949 . S
C1833 H1828 0.950 . S
C1833 C1835 1.327 . S
C1833 C1839 1.429 . S
C1834 C1826 1.574 . S
C1834 H1829 0.949 . S
C1834 C1840 1.368 . S
C1835 C1819 1.349 . S
C1835 H1827 0.950 . S
C1835 C1833 1.327 . S
C1836 C1824 1.349 . S
C1836 H1830 0.950 . S
C1836 C1837 1.327 . S
C1837 H1831 0.950 . S
C1837 C1836 1.327 . S
C1837 C1841 1.429 . S
C1838 C1821 1.574 . S
C1838 H1832 0.949 . S
C1838 C1842 1.368 . S
C1839 C1820 1.429 . S
C1839 C1833 1.429 . S
C1839 C1840 1.523 . S
C1840 C1821 1.368 . S
C1840 C1834 1.368 . S
C1840 C1839 1.523 . S
C1841 C1825 1.429 . S
C1841 C1837 1.429 . S
C1841 C1842 1.523 . S
C1842 C1826 1.368 . S
C1842 C1838 1.368 . S
C1842 C1841 1.523 . S
H1843 C1818 0.950 . S
H1844 C1820 0.950 . S
H1845 C1821 0.949 . S
H1846 C1823 0.950 . S
H1847 C1825 0.950 . S
C1848 C1849 1.349 . S
C1848 C1850 1.327 . S
C1848 H1873 0.950 . S
C1849 C1848 1.349 . S
C1849 C1865 1.349 . S
C1850 C1848 1.327 . S
C1850 C1869 1.429 . S
C1850 H1874 0.950 . S
C1851 C1868 1.574 . S
C1851 C1870 1.368 . S
C1851 H1875 0.949 . S
H1852 C1856 0.949 . S
C1853 C1854 1.349 . S
C1853 C1855 1.327 . S
C1853 H1876 0.950 . S
C1854 C1853 1.349 . S
C1854 C1866 1.349 . S
C1855 C1853 1.327 . S
C1855 C1871 1.429 . S
C1855 H1877 0.950 . S
C1856 H1852 0.949 . S
C1856 C1864 1.574 . S
C1856 C1872 1.368 . S
H1857 C1865 0.950 . S
H1858 C1863 0.950 . S
H1859 C1864 0.949 . S
H1860 C1866 0.950 . S
H1861 C1867 0.950 . S
H1862 C1868 0.949 . S
C1863 H1858 0.950 . S
C1863 C1865 1.327 . S
C1863 C1869 1.429 . S
C1864 C1856 1.574 . S
C1864 H1859 0.949 . S
C1864 C1870 1.368 . S
C1865 C1849 1.349 . S
C1865 H1857 0.950 . S
C1865 C1863 1.327 . S
C1866 C1854 1.349 . S
C1866 H1860 0.950 . S
C1866 C1867 1.327 . S
C1867 H1861 0.950 . S
C1867 C1866 1.327 . S
C1867 C1871 1.429 . S
C1868 C1851 1.574 . S
C1868 H1862 0.949 . S
C1868 C1872 1.368 . S
C1869 C1850 1.429 . S
C1869 C1863 1.429 . S
C1869 C1870 1.523 . S
C1870 C1851 1.368 . S
C1870 C1864 1.368 . S
C1870 C1869 1.523 . S
C1871 C1855 1.429 . S
C1871 C1867 1.429 . S
C1871 C1872 1.523 . S
C1872 C1856 1.368 . S
C1872 C1868 1.368 . S
C1872 C1871 1.523 . S
H1873 C1848 0.950 . S
H1874 C1850 0.950 . S
H1875 C1851 0.949 . S
H1876 C1853 0.950 . S
H1877 C1855 0.950 . S
C1878 C1879 1.349 . S
C1878 C1880 1.327 . S
C1878 H1903 0.950 . S
C1879 C1878 1.349 . S
C1879 C1895 1.349 . S
C1880 C1878 1.327 . S
C1880 C1899 1.429 . S
C1880 H1904 0.950 . S
C1881 C1898 1.574 . S
C1881 C1900 1.368 . S
C1881 H1905 0.949 . S
H1882 C1886 0.949 . S
C1883 C1884 1.349 . S
C1883 C1885 1.327 . S
C1883 H1906 0.950 . S
C1884 C1883 1.349 . S
C1884 C1896 1.349 . S
C1885 C1883 1.327 . S
C1885 C1901 1.429 . S
C1885 H1907 0.950 . S
C1886 H1882 0.949 . S
C1886 C1894 1.574 . S
C1886 C1902 1.368 . S
H1887 C1895 0.950 . S
H1888 C1893 0.950 . S
H1889 C1894 0.949 . S
H1890 C1896 0.950 . S
H1891 C1897 0.950 . S
H1892 C1898 0.949 . S
C1893 H1888 0.950 . S
C1893 C1895 1.327 . S
C1893 C1899 1.429 . S
C1894 C1886 1.574 . S
C1894 H1889 0.949 . S
C1894 C1900 1.368 . S
C1895 C1879 1.349 . S
C1895 H1887 0.950 . S
C1895 C1893 1.327 . S
C1896 C1884 1.349 . S
C1896 H1890 0.950 . S
C1896 C1897 1.327 . S
C1897 H1891 0.950 . S
C1897 C1896 1.327 . S
C1897 C1901 1.429 . S
C1898 C1881 1.574 . S
C1898 H1892 0.949 . S
C1898 C1902 1.368 . S
C1899 C1880 1.429 . S
C1899 C1893 1.429 . S
C1899 C1900 1.523 . S
C1900 C1881 1.368 . S
C1900 C1894 1.368 . S
C1900 C1899 1.523 . S
C1901 C1885 1.429 . S
C1901 C1897 1.429 . S
C1901 C1902 1.523 . S
C1902 C1886 1.368 . S
C1902 C1898 1.368 . S
C1902 C1901 1.523 . S
H1903 C1878 0.950 . S
H1904 C1880 0.950 . S
H1905 C1881 0.949 . S
H1906 C1883 0.950 . S
H1907 C1885 0.950 . S
C1908 C1909 1.349 . S
C1908 C1910 1.327 . S
C1908 H1933 0.950 . S
C1909 C1908 1.349 . S
C1909 C1925 1.349 . S
C1910 C1908 1.327 . S
C1910 C1929 1.429 . S
C1910 H1934 0.950 . S
C1911 C1928 1.574 1_565 S
C1911 C1930 1.368 . S
C1911 H1935 0.949 . S
H1912 C1916 0.949 . S
C1913 C1914 1.349 . S
C1913 C1915 1.327 . S
C1913 H1936 0.950 . S
C1914 C1913 1.349 . S
C1914 C1926 1.349 . S
C1915 C1913 1.327 . S
C1915 C1931 1.429 . S
C1915 H1937 0.950 . S
C1916 H1912 0.949 . S
C1916 C1924 1.574 1_545 S
C1916 C1932 1.368 . S
H1917 C1925 0.950 . S
H1918 C1923 0.950 . S
H1919 C1924 0.949 . S
H1920 C1926 0.950 . S
H1921 C1927 0.950 . S
H1922 C1928 0.949 . S
C1923 H1918 0.950 . S
C1923 C1925 1.327 . S
C1923 C1929 1.429 . S
C1924 C1916 1.574 1_565 S
C1924 H1919 0.949 . S
C1924 C1930 1.368 . S
C1925 C1909 1.349 . S
C1925 H1917 0.950 . S
C1925 C1923 1.327 . S
C1926 C1914 1.349 . S
C1926 H1920 0.950 . S
C1926 C1927 1.327 . S
C1927 H1921 0.950 . S
C1927 C1926 1.327 . S
C1927 C1931 1.429 . S
C1928 C1911 1.574 1_545 S
C1928 H1922 0.949 . S
C1928 C1932 1.368 . S
C1929 C1910 1.429 . S
C1929 C1923 1.429 . S
C1929 C1930 1.523 . S
C1930 C1911 1.368 . S
C1930 C1924 1.368 . S
C1930 C1929 1.523 . S
C1931 C1915 1.429 . S
C1931 C1927 1.429 . S
C1931 C1932 1.523 . S
C1932 C1916 1.368 . S
C1932 C1928 1.368 . S
C1932 C1931 1.523 . S
H1933 C1908 0.950 . S
H1934 C1910 0.950 . S
H1935 C1911 0.949 . S
H1936 C1913 0.950 . S
H1937 C1915 0.950 . S
C1938 C1939 1.349 . S
C1938 C1940 1.327 . S
C1938 H1963 0.950 . S
C1939 C1938 1.349 . S
C1939 C1955 1.349 . S
C1940 C1938 1.327 . S
C1940 C1959 1.429 . S
C1940 H1964 0.950 . S
C1941 C1958 1.574 1_455 S
C1941 C1960 1.368 . S
C1941 H1965 0.949 . S
H1942 C1946 0.949 . S
C1943 C1944 1.349 . S
C1943 C1945 1.327 . S
C1943 H1966 0.950 . S
C1944 C1943 1.349 . S
C1944 C1956 1.349 . S
C1945 C1943 1.327 . S
C1945 C1961 1.429 . S
C1945 H1967 0.950 . S
C1946 H1942 0.949 . S
C1946 C1954 1.574 1_655 S
C1946 C1962 1.368 . S
H1947 C1955 0.950 . S
H1948 C1953 0.950 . S
H1949 C1954 0.949 . S
H1950 C1956 0.950 . S
H1951 C1957 0.950 . S
H1952 C1958 0.949 . S
C1953 H1948 0.950 . S
C1953 C1955 1.327 . S
C1953 C1959 1.429 . S
C1954 C1946 1.574 1_455 S
C1954 H1949 0.949 . S
C1954 C1960 1.368 . S
C1955 C1939 1.349 . S
C1955 H1947 0.950 . S
C1955 C1953 1.327 . S
C1956 C1944 1.349 . S
C1956 H1950 0.950 . S
C1956 C1957 1.327 . S
C1957 H1951 0.950 . S
C1957 C1956 1.327 . S
C1957 C1961 1.429 . S
C1958 C1941 1.574 1_655 S
C1958 H1952 0.949 . S
C1958 C1962 1.368 . S
C1959 C1940 1.429 . S
C1959 C1953 1.429 . S
C1959 C1960 1.523 . S
C1960 C1941 1.368 . S
C1960 C1954 1.368 . S
C1960 C1959 1.523 . S
C1961 C1945 1.429 . S
C1961 C1957 1.429 . S
C1961 C1962 1.523 . S
C1962 C1946 1.368 . S
C1962 C1958 1.368 . S
C1962 C1961 1.523 . S
H1963 C1938 0.950 . S
H1964 C1940 0.950 . S
H1965 C1941 0.949 . S
H1966 C1943 0.950 . S
H1967 C1945 0.950 . S
C1968 C1969 1.349 . S
C1968 C1970 1.327 . S
C1968 H1993 0.950 . S
C1969 C1968 1.349 . S
C1969 C1985 1.349 . S
C1970 C1968 1.327 . S
C1970 C1989 1.429 . S
C1970 H1994 0.950 . S
C1971 C1988 1.574 . S
C1971 C1990 1.368 . S
C1971 H1995 0.949 . S
H1972 C1976 0.949 . S
C1973 C1974 1.349 . S
C1973 C1975 1.327 . S
C1973 H1996 0.950 . S
C1974 C1973 1.349 . S
C1974 C1986 1.349 . S
C1975 C1973 1.327 . S
C1975 C1991 1.429 . S
C1975 H1997 0.950 . S
C1976 H1972 0.949 . S
C1976 C1984 1.574 . S
C1976 C1992 1.368 . S
H1977 C1985 0.950 . S
H1978 C1983 0.950 . S
H1979 C1984 0.949 . S
H1980 C1986 0.950 . S
H1981 C1987 0.950 . S
H1982 C1988 0.949 . S
C1983 H1978 0.950 . S
C1983 C1985 1.327 . S
C1983 C1989 1.429 . S
C1984 C1976 1.574 . S
C1984 H1979 0.949 . S
C1984 C1990 1.368 . S
C1985 C1969 1.349 . S
C1985 H1977 0.950 . S
C1985 C1983 1.327 . S
C1986 C1974 1.349 . S
C1986 H1980 0.950 . S
C1986 C1987 1.327 . S
C1987 H1981 0.950 . S
C1987 C1986 1.327 . S
C1987 C1991 1.429 . S
C1988 C1971 1.574 . S
C1988 H1982 0.949 . S
C1988 C1992 1.368 . S
C1989 C1970 1.429 . S
C1989 C1983 1.429 . S
C1989 C1990 1.523 . S
C1990 C1971 1.368 . S
C1990 C1984 1.368 . S
C1990 C1989 1.523 . S
C1991 C1975 1.429 . S
C1991 C1987 1.429 . S
C1991 C1992 1.523 . S
C1992 C1976 1.368 . S
C1992 C1988 1.368 . S
C1992 C1991 1.523 . S
H1993 C1968 0.950 . S
H1994 C1970 0.950 . S
H1995 C1971 0.949 . S
H1996 C1973 0.950 . S
H1997 C1975 0.950 . S
C1998 C1999 1.349 . S
C1998 C2000 1.327 1_455 S
C1998 H2023 0.950 . S
C1999 C1998 1.349 . S
C1999 C2015 1.349 1_455 S
C2000 C1998 1.327 1_655 S
C2000 C2019 1.429 . S
C2000 H2024 0.950 . S
C2001 C2018 1.574 . S
C2001 C2020 1.368 . S
C2001 H2025 0.949 . S
H2002 C2006 0.949 . S
C2003 C2004 1.349 . S
C2003 C2005 1.327 . S
C2003 H2026 0.950 . S
C2004 C2003 1.349 . S
C2004 C2016 1.349 . S
C2005 C2003 1.327 . S
C2005 C2021 1.429 . S
C2005 H2027 0.950 . S
C2006 H2002 0.949 . S
C2006 C2014 1.574 . S
C2006 C2022 1.368 . S
H2007 C2015 0.950 1_455 S
H2008 C2013 0.950 . S
H2009 C2014 0.949 . S
H2010 C2016 0.950 . S
H2011 C2017 0.950 . S
H2012 C2018 0.949 . S
C2013 H2008 0.950 . S
C2013 C2015 1.327 . S
C2013 C2019 1.429 . S
C2014 C2006 1.574 . S
C2014 H2009 0.949 . S
C2014 C2020 1.368 . S
C2015 C1999 1.349 1_655 S
C2015 H2007 0.950 1_655 S
C2015 C2013 1.327 . S
C2016 C2004 1.349 . S
C2016 H2010 0.950 . S
C2016 C2017 1.327 . S
C2017 H2011 0.950 . S
C2017 C2016 1.327 . S
C2017 C2021 1.429 . S
C2018 C2001 1.574 . S
C2018 H2012 0.949 . S
C2018 C2022 1.368 . S
C2019 C2000 1.429 . S
C2019 C2013 1.429 . S
C2019 C2020 1.523 . S
C2020 C2001 1.368 . S
C2020 C2014 1.368 . S
C2020 C2019 1.523 . S
C2021 C2005 1.429 . S
C2021 C2017 1.429 . S
C2021 C2022 1.523 . S
C2022 C2006 1.368 . S
C2022 C2018 1.368 . S
C2022 C2021 1.523 . S
H2023 C1998 0.950 . S
H2024 C2000 0.950 . S
H2025 C2001 0.949 . S
H2026 C2003 0.950 . S
H2027 C2005 0.950 . S
C2028 C2029 1.349 . S
C2028 C2030 1.327 . S
C2028 H2053 0.950 . S
C2029 C2028 1.349 . S
C2029 C2045 1.349 . S
C2030 C2028 1.327 . S
C2030 C2049 1.429 . S
C2030 H2054 0.950 . S
C2031 C2048 1.574 . S
C2031 C2050 1.368 . S
C2031 H2055 0.949 . S
H2032 C2036 0.949 . S
C2033 C2034 1.349 . S
C2033 C2035 1.327 . S
C2033 H2056 0.950 . S
C2034 C2033 1.349 . S
C2034 C2046 1.349 . S
C2035 C2033 1.327 . S
C2035 C2051 1.429 . S
C2035 H2057 0.950 . S
C2036 H2032 0.949 . S
C2036 C2044 1.574 . S
C2036 C2052 1.368 . S
H2037 C2045 0.950 . S
H2038 C2043 0.950 . S
H2039 C2044 0.949 . S
H2040 C2046 0.950 . S
H2041 C2047 0.950 . S
H2042 C2048 0.949 . S
C2043 H2038 0.950 . S
C2043 C2045 1.327 . S
C2043 C2049 1.429 . S
C2044 C2036 1.574 . S
C2044 H2039 0.949 . S
C2044 C2050 1.368 . S
C2045 C2029 1.349 . S
C2045 H2037 0.950 . S
C2045 C2043 1.327 . S
C2046 C2034 1.349 . S
C2046 H2040 0.950 . S
C2046 C2047 1.327 . S
C2047 H2041 0.950 . S
C2047 C2046 1.327 . S
C2047 C2051 1.429 . S
C2048 C2031 1.574 . S
C2048 H2042 0.949 . S
C2048 C2052 1.368 . S
C2049 C2030 1.429 . S
C2049 C2043 1.429 . S
C2049 C2050 1.523 . S
C2050 C2031 1.368 . S
C2050 C2044 1.368 . S
C2050 C2049 1.523 . S
C2051 C2035 1.429 . S
C2051 C2047 1.429 . S
C2051 C2052 1.523 . S
C2052 C2036 1.368 . S
C2052 C2048 1.368 . S
C2052 C2051 1.523 . S
H2053 C2028 0.950 . S
H2054 C2030 0.950 . S
H2055 C2031 0.949 . S
H2056 C2033 0.950 . S
H2057 C2035 0.950 . S
C2058 C2059 1.344 1_545 S
C2058 C2060 1.333 . S
C2058 H2083 0.948 1_545 S
C2059 C2058 1.344 1_565 S
C2059 C2075 1.347 1_565 S
C2060 C2058 1.333 . S
C2060 C2079 1.429 . S
C2060 H2084 0.950 . S
C2061 C2078 1.574 . S
C2061 C2080 1.368 . S
C2061 H2085 0.949 . S
H2062 C2066 0.949 . S
C2063 C2064 1.349 . S
C2063 C2065 1.327 . S
C2063 H2086 0.950 . S
C2064 C2063 1.349 . S
C2064 C2076 1.349 . S
C2065 C2063 1.327 . S
C2065 C2081 1.429 . S
C2065 H2087 0.950 . S
C2066 H2062 0.949 . S
C2066 C2074 1.574 . S
C2066 C2082 1.368 . S
H2067 C2075 0.944 1_565 S
H2068 C2073 0.950 . S
H2069 C2074 0.949 . S
H2070 C2076 0.950 . S
H2071 C2077 0.950 . S
H2072 C2078 0.949 . S
C2073 H2068 0.950 . S
C2073 C2075 1.335 . S
C2073 C2079 1.429 . S
C2074 C2066 1.574 . S
C2074 H2069 0.949 . S
C2074 C2080 1.368 . S
C2075 C2059 1.347 1_545 S
C2075 H2067 0.944 1_545 S
C2075 C2073 1.335 . S
C2076 C2064 1.349 . S
C2076 H2070 0.950 . S
C2076 C2077 1.327 . S
C2077 H2071 0.950 . S
C2077 C2076 1.327 . S
C2077 C2081 1.429 . S
C2078 C2061 1.574 . S
C2078 H2072 0.949 . S
C2078 C2082 1.368 . S
C2079 C2060 1.429 . S
C2079 C2073 1.429 . S
C2079 C2080 1.523 . S
C2080 C2061 1.368 . S
C2080 C2074 1.368 . S
C2080 C2079 1.523 . S
C2081 C2065 1.429 . S
C2081 C2077 1.429 . S
C2081 C2082 1.523 . S
C2082 C2066 1.368 . S
C2082 C2078 1.368 . S
C2082 C2081 1.523 . S
H2083 C2058 0.948 1_565 S
H2084 C2060 0.950 . S
H2085 C2061 0.949 . S
H2086 C2063 0.950 . S
H2087 C2065 0.950 . S
C2088 C2089 1.349 . S
C2088 C2090 1.327 . S
C2088 H2113 0.950 . S
C2089 C2088 1.349 . S
C2089 C2105 1.349 . S
C2090 C2088 1.327 . S
C2090 C2109 1.429 . S
C2090 H2114 0.950 . S
C2091 C2108 1.574 . S
C2091 C2110 1.368 . S
C2091 H2115 0.949 . S
H2092 C2096 0.949 . S
C2093 C2094 1.349 . S
C2093 C2095 1.327 . S
C2093 H2116 0.950 . S
C2094 C2093 1.349 . S
C2094 C2106 1.349 . S
C2095 C2093 1.327 . S
C2095 C2111 1.429 . S
C2095 H2117 0.950 . S
C2096 H2092 0.949 . S
C2096 C2104 1.574 . S
C2096 C2112 1.368 . S
H2097 C2105 0.950 . S
H2098 C2103 0.950 . S
H2099 C2104 0.949 . S
H2100 C2106 0.950 . S
H2101 C2107 0.950 . S
H2102 C2108 0.949 . S
C2103 H2098 0.950 . S
C2103 C2105 1.327 . S
C2103 C2109 1.429 . S
C2104 C2096 1.574 . S
C2104 H2099 0.949 . S
C2104 C2110 1.368 . S
C2105 C2089 1.349 . S
C2105 H2097 0.950 . S
C2105 C2103 1.327 . S
C2106 C2094 1.349 . S
C2106 H2100 0.950 . S
C2106 C2107 1.327 . S
C2107 H2101 0.950 . S
C2107 C2106 1.327 . S
C2107 C2111 1.429 . S
C2108 C2091 1.574 . S
C2108 H2102 0.949 . S
C2108 C2112 1.368 . S
C2109 C2090 1.429 . S
C2109 C2103 1.429 . S
C2109 C2110 1.523 . S
C2110 C2091 1.368 . S
C2110 C2104 1.368 . S
C2110 C2109 1.523 . S
C2111 C2095 1.429 . S
C2111 C2107 1.429 . S
C2111 C2112 1.523 . S
C2112 C2096 1.368 . S
C2112 C2108 1.368 . S
C2112 C2111 1.523 . S
H2113 C2088 0.950 . S
H2114 C2090 0.950 . S
H2115 C2091 0.949 . S
H2116 C2093 0.950 . S
H2117 C2095 0.950 . S
C2118 C2119 1.349 . S
C2118 C2120 1.327 . S
C2118 H2143 0.950 . S
C2119 C2118 1.349 . S
C2119 C2135 1.349 . S
C2120 C2118 1.327 . S
C2120 C2139 1.429 . S
C2120 H2144 0.950 . S
C2121 C2138 1.574 . S
C2121 C2140 1.368 . S
C2121 H2145 0.949 . S
H2122 C2126 0.949 . S
C2123 C2124 1.349 . S
C2123 C2125 1.327 . S
C2123 H2146 0.950 . S
C2124 C2123 1.349 . S
C2124 C2136 1.349 . S
C2125 C2123 1.327 . S
C2125 C2141 1.429 . S
C2125 H2147 0.950 . S
C2126 H2122 0.949 . S
C2126 C2134 1.574 . S
C2126 C2142 1.368 . S
H2127 C2135 0.950 . S
H2128 C2133 0.950 . S
H2129 C2134 0.949 . S
H2130 C2136 0.950 . S
H2131 C2137 0.950 . S
H2132 C2138 0.949 . S
C2133 H2128 0.950 . S
C2133 C2135 1.327 . S
C2133 C2139 1.429 . S
C2134 C2126 1.574 . S
C2134 H2129 0.949 . S
C2134 C2140 1.368 . S
C2135 C2119 1.349 . S
C2135 H2127 0.950 . S
C2135 C2133 1.327 . S
C2136 C2124 1.349 . S
C2136 H2130 0.950 . S
C2136 C2137 1.327 . S
C2137 H2131 0.950 . S
C2137 C2136 1.327 . S
C2137 C2141 1.429 . S
C2138 C2121 1.574 . S
C2138 H2132 0.949 . S
C2138 C2142 1.368 . S
C2139 C2120 1.429 . S
C2139 C2133 1.429 . S
C2139 C2140 1.523 . S
C2140 C2121 1.368 . S
C2140 C2134 1.368 . S
C2140 C2139 1.523 . S
C2141 C2125 1.429 . S
C2141 C2137 1.429 . S
C2141 C2142 1.523 . S
C2142 C2126 1.368 . S
C2142 C2138 1.368 . S
C2142 C2141 1.523 . S
H2143 C2118 0.950 . S
H2144 C2120 0.950 . S
H2145 C2121 0.949 . S
H2146 C2123 0.950 . S
H2147 C2125 0.950 . S
C2148 C2149 1.349 . S
C2148 C2150 1.327 . S
C2148 H2173 0.950 . S
C2149 C2148 1.349 . S
C2149 C2165 1.349 . S
C2150 C2148 1.327 . S
C2150 C2169 1.429 . S
C2150 H2174 0.950 . S
C2151 C2168 1.574 . S
C2151 C2170 1.368 . S
C2151 H2175 0.949 . S
H2152 C2156 0.949 . S
C2153 C2154 1.349 . S
C2153 C2155 1.327 . S
C2153 H2176 0.950 . S
C2154 C2153 1.349 . S
C2154 C2166 1.349 . S
C2155 C2153 1.327 . S
C2155 C2171 1.429 . S
C2155 H2177 0.950 . S
C2156 H2152 0.949 . S
C2156 C2164 1.574 . S
C2156 C2172 1.368 . S
H2157 C2165 0.950 . S
H2158 C2163 0.950 . S
H2159 C2164 0.949 . S
H2160 C2166 0.950 . S
H2161 C2167 0.950 . S
H2162 C2168 0.949 . S
C2163 H2158 0.950 . S
C2163 C2165 1.327 . S
C2163 C2169 1.429 . S
C2164 C2156 1.574 . S
C2164 H2159 0.949 . S
C2164 C2170 1.368 . S
C2165 C2149 1.349 . S
C2165 H2157 0.950 . S
C2165 C2163 1.327 . S
C2166 C2154 1.349 . S
C2166 H2160 0.950 . S
C2166 C2167 1.327 . S
C2167 H2161 0.950 . S
C2167 C2166 1.327 . S
C2167 C2171 1.429 . S
C2168 C2151 1.574 . S
C2168 H2162 0.949 . S
C2168 C2172 1.368 . S
C2169 C2150 1.429 . S
C2169 C2163 1.429 . S
C2169 C2170 1.523 . S
C2170 C2151 1.368 . S
C2170 C2164 1.368 . S
C2170 C2169 1.523 . S
C2171 C2155 1.429 . S
C2171 C2167 1.429 . S
C2171 C2172 1.523 . S
C2172 C2156 1.368 . S
C2172 C2168 1.368 . S
C2172 C2171 1.523 . S
H2173 C2148 0.950 . S
H2174 C2150 0.950 . S
H2175 C2151 0.949 . S
H2176 C2153 0.950 . S
H2177 C2155 0.950 . S
C2178 C2179 1.349 . S
C2178 C2180 1.327 . S
C2178 H2203 0.950 . S
C2179 C2178 1.349 . S
C2179 C2195 1.349 . S
C2180 C2178 1.327 . S
C2180 C2199 1.429 . S
C2180 H2204 0.950 . S
C2181 C2198 1.574 . S
C2181 C2200 1.368 . S
C2181 H2205 0.949 . S
H2182 C2186 0.949 . S
C2183 C2184 1.349 . S
C2183 C2185 1.327 . S
C2183 H2206 0.950 . S
C2184 C2183 1.349 . S
C2184 C2196 1.349 . S
C2185 C2183 1.327 . S
C2185 C2201 1.429 . S
C2185 H2207 0.950 . S
C2186 H2182 0.949 . S
C2186 C2194 1.574 . S
C2186 C2202 1.368 . S
H2187 C2195 0.950 . S
H2188 C2193 0.950 . S
H2189 C2194 0.949 . S
H2190 C2196 0.950 . S
H2191 C2197 0.950 . S
H2192 C2198 0.949 . S
C2193 H2188 0.950 . S
C2193 C2195 1.327 . S
C2193 C2199 1.429 . S
C2194 C2186 1.574 . S
C2194 H2189 0.949 . S
C2194 C2200 1.368 . S
C2195 C2179 1.349 . S
C2195 H2187 0.950 . S
C2195 C2193 1.327 . S
C2196 C2184 1.349 . S
C2196 H2190 0.950 . S
C2196 C2197 1.327 . S
C2197 H2191 0.950 . S
C2197 C2196 1.327 . S
C2197 C2201 1.429 . S
C2198 C2181 1.574 . S
C2198 H2192 0.949 . S
C2198 C2202 1.368 . S
C2199 C2180 1.429 . S
C2199 C2193 1.429 . S
C2199 C2200 1.523 . S
C2200 C2181 1.368 . S
C2200 C2194 1.368 . S
C2200 C2199 1.523 . S
C2201 C2185 1.429 . S
C2201 C2197 1.429 . S
C2201 C2202 1.523 . S
C2202 C2186 1.368 . S
C2202 C2198 1.368 . S
C2202 C2201 1.523 . S
H2203 C2178 0.950 . S
H2204 C2180 0.950 . S
H2205 C2181 0.949 . S
H2206 C2183 0.950 . S
H2207 C2185 0.950 . S
C2208 C2209 1.349 . S
C2208 C2210 1.327 . S
C2208 H2233 0.950 . S
C2209 C2208 1.349 . S
C2209 C2225 1.349 . S
C2210 C2208 1.327 . S
C2210 C2229 1.429 . S
C2210 H2234 0.950 . S
C2211 C2228 1.574 . S
C2211 C2230 1.368 . S
C2211 H2235 0.949 . S
H2212 C2216 0.949 . S
C2213 C2214 1.349 . S
C2213 C2215 1.327 . S
C2213 H2236 0.950 . S
C2214 C2213 1.349 . S
C2214 C2226 1.349 . S
C2215 C2213 1.327 . S
C2215 C2231 1.429 . S
C2215 H2237 0.950 . S
C2216 H2212 0.949 . S
C2216 C2224 1.574 . S
C2216 C2232 1.368 . S
H2217 C2225 0.950 . S
H2218 C2223 0.950 . S
H2219 C2224 0.949 . S
H2220 C2226 0.950 . S
H2221 C2227 0.950 . S
H2222 C2228 0.949 . S
C2223 H2218 0.950 . S
C2223 C2225 1.327 . S
C2223 C2229 1.429 . S
C2224 C2216 1.574 . S
C2224 H2219 0.949 . S
C2224 C2230 1.368 . S
C2225 C2209 1.349 . S
C2225 H2217 0.950 . S
C2225 C2223 1.327 . S
C2226 C2214 1.349 . S
C2226 H2220 0.950 . S
C2226 C2227 1.327 . S
C2227 H2221 0.950 . S
C2227 C2226 1.327 . S
C2227 C2231 1.429 . S
C2228 C2211 1.574 . S
C2228 H2222 0.949 . S
C2228 C2232 1.368 . S
C2229 C2210 1.429 . S
C2229 C2223 1.429 . S
C2229 C2230 1.523 . S
C2230 C2211 1.368 . S
C2230 C2224 1.368 . S
C2230 C2229 1.523 . S
C2231 C2215 1.429 . S
C2231 C2227 1.429 . S
C2231 C2232 1.523 . S
C2232 C2216 1.368 . S
C2232 C2228 1.368 . S
C2232 C2231 1.523 . S
H2233 C2208 0.950 . S
H2234 C2210 0.950 . S
H2235 C2211 0.949 . S
H2236 C2213 0.950 . S
H2237 C2215 0.950 . S
C2238 C2239 1.349 . S
C2238 C2240 1.327 . S
C2238 H2263 0.950 . S
C2239 C2238 1.349 . S
C2239 C2255 1.349 . S
C2240 C2238 1.327 . S
C2240 C2259 1.429 . S
C2240 H2264 0.950 . S
C2241 C2258 1.574 . S
C2241 C2260 1.368 . S
C2241 H2265 0.949 . S
H2242 C2246 0.949 . S
C2243 C2244 1.349 . S
C2243 C2245 1.327 . S
C2243 H2266 0.950 . S
C2244 C2243 1.349 . S
C2244 C2256 1.349 . S
C2245 C2243 1.327 . S
C2245 C2261 1.429 . S
C2245 H2267 0.950 . S
C2246 H2242 0.949 . S
C2246 C2254 1.574 . S
C2246 C2262 1.368 . S
H2247 C2255 0.950 . S
H2248 C2253 0.950 . S
H2249 C2254 0.949 . S
H2250 C2256 0.950 . S
H2251 C2257 0.950 . S
H2252 C2258 0.949 . S
C2253 H2248 0.950 . S
C2253 C2255 1.327 . S
C2253 C2259 1.429 . S
C2254 C2246 1.574 . S
C2254 H2249 0.949 . S
C2254 C2260 1.368 . S
C2255 C2239 1.349 . S
C2255 H2247 0.950 . S
C2255 C2253 1.327 . S
C2256 C2244 1.349 . S
C2256 H2250 0.950 . S
C2256 C2257 1.327 . S
C2257 H2251 0.950 . S
C2257 C2256 1.327 . S
C2257 C2261 1.429 . S
C2258 C2241 1.574 . S
C2258 H2252 0.949 . S
C2258 C2262 1.368 . S
C2259 C2240 1.429 . S
C2259 C2253 1.429 . S
C2259 C2260 1.523 . S
C2260 C2241 1.368 . S
C2260 C2254 1.368 . S
C2260 C2259 1.523 . S
C2261 C2245 1.429 . S
C2261 C2257 1.429 . S
C2261 C2262 1.523 . S
C2262 C2246 1.368 . S
C2262 C2258 1.368 . S
C2262 C2261 1.523 . S
H2263 C2238 0.950 . S
H2264 C2240 0.950 . S
H2265 C2241 0.949 . S
H2266 C2243 0.950 . S
H2267 C2245 0.950 . S
C2268 C2269 1.349 . S
C2268 C2270 1.327 . S
C2268 H2293 0.950 . S
C2269 C2268 1.349 . S
C2269 C2285 1.349 . S
C2270 C2268 1.327 . S
C2270 C2289 1.429 . S
C2270 H2294 0.950 . S
C2271 C2288 1.574 . S
C2271 C2290 1.368 . S
C2271 H2295 0.949 . S
H2272 C2276 0.949 . S
C2273 C2274 1.349 . S
C2273 C2275 1.327 . S
C2273 H2296 0.950 . S
C2274 C2273 1.349 . S
C2274 C2286 1.349 . S
C2275 C2273 1.327 . S
C2275 C2291 1.429 . S
C2275 H2297 0.950 . S
C2276 H2272 0.949 . S
C2276 C2284 1.574 . S
C2276 C2292 1.368 . S
H2277 C2285 0.950 . S
H2278 C2283 0.950 . S
H2279 C2284 0.949 . S
H2280 C2286 0.950 . S
H2281 C2287 0.950 . S
H2282 C2288 0.949 . S
C2283 H2278 0.950 . S
C2283 C2285 1.327 . S
C2283 C2289 1.429 . S
C2284 C2276 1.574 . S
C2284 H2279 0.949 . S
C2284 C2290 1.368 . S
C2285 C2269 1.349 . S
C2285 H2277 0.950 . S
C2285 C2283 1.327 . S
C2286 C2274 1.349 . S
C2286 H2280 0.950 . S
C2286 C2287 1.327 . S
C2287 H2281 0.950 . S
C2287 C2286 1.327 . S
C2287 C2291 1.429 . S
C2288 C2271 1.574 . S
C2288 H2282 0.949 . S
C2288 C2292 1.368 . S
C2289 C2270 1.429 . S
C2289 C2283 1.429 . S
C2289 C2290 1.523 . S
C2290 C2271 1.368 . S
C2290 C2284 1.368 . S
C2290 C2289 1.523 . S
C2291 C2275 1.429 . S
C2291 C2287 1.429 . S
C2291 C2292 1.523 . S
C2292 C2276 1.368 . S
C2292 C2288 1.368 . S
C2292 C2291 1.523 . S
H2293 C2268 0.950 . S
H2294 C2270 0.950 . S
H2295 C2271 0.949 . S
H2296 C2273 0.950 . S
H2297 C2275 0.950 . S
C2298 C2299 1.349 . S
C2298 C2300 1.327 . S
C2298 H2323 0.950 . S
C2299 C2298 1.349 . S
C2299 C2315 1.349 . S
C2300 C2298 1.327 . S
C2300 C2319 1.429 . S
C2300 H2324 0.950 . S
C2301 C2318 1.574 . S
C2301 C2320 1.368 . S
C2301 H2325 0.949 . S
H2302 C2306 0.949 . S
C2303 C2304 1.349 . S
C2303 C2305 1.327 . S
C2303 H2326 0.950 . S
C2304 C2303 1.349 . S
C2304 C2316 1.349 . S
C2305 C2303 1.327 . S
C2305 C2321 1.429 . S
C2305 H2327 0.950 . S
C2306 H2302 0.949 . S
C2306 C2314 1.574 . S
C2306 C2322 1.368 . S
H2307 C2315 0.950 . S
H2308 C2313 0.950 . S
H2309 C2314 0.949 . S
H2310 C2316 0.950 . S
H2311 C2317 0.950 . S
H2312 C2318 0.949 . S
C2313 H2308 0.950 . S
C2313 C2315 1.327 . S
C2313 C2319 1.429 . S
C2314 C2306 1.574 . S
C2314 H2309 0.949 . S
C2314 C2320 1.368 . S
C2315 C2299 1.349 . S
C2315 H2307 0.950 . S
C2315 C2313 1.327 . S
C2316 C2304 1.349 . S
C2316 H2310 0.950 . S
C2316 C2317 1.327 . S
C2317 H2311 0.950 . S
C2317 C2316 1.327 . S
C2317 C2321 1.429 . S
C2318 C2301 1.574 . S
C2318 H2312 0.949 . S
C2318 C2322 1.368 . S
C2319 C2300 1.429 . S
C2319 C2313 1.429 . S
C2319 C2320 1.523 . S
C2320 C2301 1.368 . S
C2320 C2314 1.368 . S
C2320 C2319 1.523 . S
C2321 C2305 1.429 . S
C2321 C2317 1.429 . S
C2321 C2322 1.523 . S
C2322 C2306 1.368 . S
C2322 C2318 1.368 . S
C2322 C2321 1.523 . S
H2323 C2298 0.950 . S
H2324 C2300 0.950 . S
H2325 C2301 0.949 . S
H2326 C2303 0.950 . S
H2327 C2305 0.950 . S
C2328 C2329 1.349 . S
C2328 C2330 1.327 . S
C2328 H2353 0.950 . S
C2329 C2328 1.349 . S
C2329 C2345 1.349 . S
C2330 C2328 1.327 . S
C2330 C2349 1.429 . S
C2330 H2354 0.950 . S
C2331 C2348 1.574 . S
C2331 C2350 1.368 . S
C2331 H2355 0.949 . S
H2332 C2336 0.949 . S
C2333 C2334 1.349 . S
C2333 C2335 1.327 . S
C2333 H2356 0.950 . S
C2334 C2333 1.349 . S
C2334 C2346 1.349 . S
C2335 C2333 1.327 . S
C2335 C2351 1.429 . S
C2335 H2357 0.950 . S
C2336 H2332 0.949 . S
C2336 C2344 1.574 . S
C2336 C2352 1.368 . S
H2337 C2345 0.950 . S
H2338 C2343 0.950 . S
H2339 C2344 0.949 . S
H2340 C2346 0.950 . S
H2341 C2347 0.950 . S
H2342 C2348 0.949 . S
C2343 H2338 0.950 . S
C2343 C2345 1.327 . S
C2343 C2349 1.429 . S
C2344 C2336 1.574 . S
C2344 H2339 0.949 . S
C2344 C2350 1.368 . S
C2345 C2329 1.349 . S
C2345 H2337 0.950 . S
C2345 C2343 1.327 . S
C2346 C2334 1.349 . S
C2346 H2340 0.950 . S
C2346 C2347 1.327 . S
C2347 H2341 0.950 . S
C2347 C2346 1.327 . S
C2347 C2351 1.429 . S
C2348 C2331 1.574 . S
C2348 H2342 0.949 . S
C2348 C2352 1.368 . S
C2349 C2330 1.429 . S
C2349 C2343 1.429 . S
C2349 C2350 1.523 . S
C2350 C2331 1.368 . S
C2350 C2344 1.368 . S
C2350 C2349 1.523 . S
C2351 C2335 1.429 . S
C2351 C2347 1.429 . S
C2351 C2352 1.523 . S
C2352 C2336 1.368 . S
C2352 C2348 1.368 . S
C2352 C2351 1.523 . S
H2353 C2328 0.950 . S
H2354 C2330 0.950 . S
H2355 C2331 0.949 . S
H2356 C2333 0.950 . S
H2357 C2335 0.950 . S
C2358 C2359 1.349 . S
C2358 C2360 1.327 . S
C2358 H2383 0.950 . S
C2359 C2358 1.349 . S
C2359 C2375 1.349 . S
C2360 C2358 1.327 . S
C2360 C2379 1.429 . S
C2360 H2384 0.950 . S
C2361 C2378 1.574 . S
C2361 C2380 1.368 . S
C2361 H2385 0.949 . S
H2362 C2366 0.949 . S
C2363 C2364 1.349 . S
C2363 C2365 1.327 . S
C2363 H2386 0.950 . S
C2364 C2363 1.349 . S
C2364 C2376 1.349 . S
C2365 C2363 1.327 . S
C2365 C2381 1.429 . S
C2365 H2387 0.950 . S
C2366 H2362 0.949 . S
C2366 C2374 1.574 . S
C2366 C2382 1.368 . S
H2367 C2375 0.950 . S
H2368 C2373 0.950 . S
H2369 C2374 0.949 . S
H2370 C2376 0.950 . S
H2371 C2377 0.950 . S
H2372 C2378 0.949 . S
C2373 H2368 0.950 . S
C2373 C2375 1.327 . S
C2373 C2379 1.429 . S
C2374 C2366 1.574 . S
C2374 H2369 0.949 . S
C2374 C2380 1.368 . S
C2375 C2359 1.349 . S
C2375 H2367 0.950 . S
C2375 C2373 1.327 . S
C2376 C2364 1.349 . S
C2376 H2370 0.950 . S
C2376 C2377 1.327 . S
C2377 H2371 0.950 . S
C2377 C2376 1.327 . S
C2377 C2381 1.429 . S
C2378 C2361 1.574 . S
C2378 H2372 0.949 . S
C2378 C2382 1.368 . S
C2379 C2360 1.429 . S
C2379 C2373 1.429 . S
C2379 C2380 1.523 . S
C2380 C2361 1.368 . S
C2380 C2374 1.368 . S
C2380 C2379 1.523 . S
C2381 C2365 1.429 . S
C2381 C2377 1.429 . S
C2381 C2382 1.523 . S
C2382 C2366 1.368 . S
C2382 C2378 1.368 . S
C2382 C2381 1.523 . S
H2383 C2358 0.950 . S
H2384 C2360 0.950 . S
H2385 C2361 0.949 . S
H2386 C2363 0.950 . S
H2387 C2365 0.950 . S
C2388 C2389 1.349 . S
C2388 C2390 1.327 . S
C2388 H2413 0.950 . S
C2389 C2388 1.349 . S
C2389 C2405 1.349 . S
C2390 C2388 1.327 . S
C2390 C2409 1.429 . S
C2390 H2414 0.950 . S
C2391 C2408 1.574 . S
C2391 C2410 1.368 . S
C2391 H2415 0.949 . S
H2392 C2396 0.949 . S
C2393 C2394 1.349 . S
C2393 C2395 1.327 . S
C2393 H2416 0.950 . S
C2394 C2393 1.349 . S
C2394 C2406 1.349 . S
C2395 C2393 1.327 . S
C2395 C2411 1.429 . S
C2395 H2417 0.950 . S
C2396 H2392 0.949 . S
C2396 C2404 1.574 . S
C2396 C2412 1.368 . S
H2397 C2405 0.950 . S
H2398 C2403 0.950 . S
H2399 C2404 0.949 . S
H2400 C2406 0.950 . S
H2401 C2407 0.950 . S
H2402 C2408 0.949 . S
C2403 H2398 0.950 . S
C2403 C2405 1.327 . S
C2403 C2409 1.429 . S
C2404 C2396 1.574 . S
C2404 H2399 0.949 . S
C2404 C2410 1.368 . S
C2405 C2389 1.349 . S
C2405 H2397 0.950 . S
C2405 C2403 1.327 . S
C2406 C2394 1.349 . S
C2406 H2400 0.950 . S
C2406 C2407 1.327 . S
C2407 H2401 0.950 . S
C2407 C2406 1.327 . S
C2407 C2411 1.429 . S
C2408 C2391 1.574 . S
C2408 H2402 0.949 . S
C2408 C2412 1.368 . S
C2409 C2390 1.429 . S
C2409 C2403 1.429 . S
C2409 C2410 1.523 . S
C2410 C2391 1.368 . S
C2410 C2404 1.368 . S
C2410 C2409 1.523 . S
C2411 C2395 1.429 . S
C2411 C2407 1.429 . S
C2411 C2412 1.523 . S
C2412 C2396 1.368 . S
C2412 C2408 1.368 . S
C2412 C2411 1.523 . S
H2413 C2388 0.950 . S
H2414 C2390 0.950 . S
H2415 C2391 0.949 . S
H2416 C2393 0.950 . S
H2417 C2395 0.950 . S
C2418 C2419 1.349 . S
C2418 C2420 1.327 . S
C2418 H2443 0.950 . S
C2419 C2418 1.349 . S
C2419 C2435 1.349 . S
C2420 C2418 1.327 . S
C2420 C2439 1.429 . S
C2420 H2444 0.950 . S
C2421 C2438 1.574 . S
C2421 C2440 1.368 . S
C2421 H2445 0.949 . S
H2422 C2426 0.949 . S
C2423 C2424 1.349 . S
C2423 C2425 1.327 . S
C2423 H2446 0.950 . S
C2424 C2423 1.349 . S
C2424 C2436 1.349 . S
C2425 C2423 1.327 . S
C2425 C2441 1.429 . S
C2425 H2447 0.950 . S
C2426 H2422 0.949 . S
C2426 C2434 1.574 . S
C2426 C2442 1.368 . S
H2427 C2435 0.950 . S
H2428 C2433 0.950 . S
H2429 C2434 0.949 . S
H2430 C2436 0.950 . S
H2431 C2437 0.950 . S
H2432 C2438 0.949 . S
C2433 H2428 0.950 . S
C2433 C2435 1.327 . S
C2433 C2439 1.429 . S
C2434 C2426 1.574 . S
C2434 H2429 0.949 . S
C2434 C2440 1.368 . S
C2435 C2419 1.349 . S
C2435 H2427 0.950 . S
C2435 C2433 1.327 . S
C2436 C2424 1.349 . S
C2436 H2430 0.950 . S
C2436 C2437 1.327 . S
C2437 H2431 0.950 . S
C2437 C2436 1.327 . S
C2437 C2441 1.429 . S
C2438 C2421 1.574 . S
C2438 H2432 0.949 . S
C2438 C2442 1.368 . S
C2439 C2420 1.429 . S
C2439 C2433 1.429 . S
C2439 C2440 1.523 . S
C2440 C2421 1.368 . S
C2440 C2434 1.368 . S
C2440 C2439 1.523 . S
C2441 C2425 1.429 . S
C2441 C2437 1.429 . S
C2441 C2442 1.523 . S
C2442 C2426 1.368 . S
C2442 C2438 1.368 . S
C2442 C2441 1.523 . S
H2443 C2418 0.950 . S
H2444 C2420 0.950 . S
H2445 C2421 0.949 . S
H2446 C2423 0.950 . S
H2447 C2425 0.950 . S
C2448 C2449 1.349 . S
C2448 C2450 1.327 . S
C2448 H2473 0.950 . S
C2449 C2448 1.349 . S
C2449 C2465 1.349 . S
C2450 C2448 1.327 . S
C2450 C2469 1.429 . S
C2450 H2474 0.950 . S
C2451 C2468 1.574 . S
C2451 C2470 1.368 . S
C2451 H2475 0.949 . S
H2452 C2456 0.949 . S
C2453 C2454 1.349 . S
C2453 C2455 1.327 . S
C2453 H2476 0.950 . S
C2454 C2453 1.349 . S
C2454 C2466 1.349 . S
C2455 C2453 1.327 . S
C2455 C2471 1.429 . S
C2455 H2477 0.950 . S
C2456 H2452 0.949 . S
C2456 C2464 1.574 . S
C2456 C2472 1.368 . S
H2457 C2465 0.950 . S
H2458 C2463 0.950 . S
H2459 C2464 0.949 . S
H2460 C2466 0.950 . S
H2461 C2467 0.950 . S
H2462 C2468 0.949 . S
C2463 H2458 0.950 . S
C2463 C2465 1.327 . S
C2463 C2469 1.429 . S
C2464 C2456 1.574 . S
C2464 H2459 0.949 . S
C2464 C2470 1.368 . S
C2465 C2449 1.349 . S
C2465 H2457 0.950 . S
C2465 C2463 1.327 . S
C2466 C2454 1.349 . S
C2466 H2460 0.950 . S
C2466 C2467 1.327 . S
C2467 H2461 0.950 . S
C2467 C2466 1.327 . S
C2467 C2471 1.429 . S
C2468 C2451 1.574 . S
C2468 H2462 0.949 . S
C2468 C2472 1.368 . S
C2469 C2450 1.429 . S
C2469 C2463 1.429 . S
C2469 C2470 1.523 . S
C2470 C2451 1.368 . S
C2470 C2464 1.368 . S
C2470 C2469 1.523 . S
C2471 C2455 1.429 . S
C2471 C2467 1.429 . S
C2471 C2472 1.523 . S
C2472 C2456 1.368 . S
C2472 C2468 1.368 . S
C2472 C2471 1.523 . S
H2473 C2448 0.950 . S
H2474 C2450 0.950 . S
H2475 C2451 0.949 . S
H2476 C2453 0.950 . S
H2477 C2455 0.950 . S
C2478 C2479 1.349 . S
C2478 C2480 1.327 . S
C2478 H2503 0.950 . S
C2479 C2478 1.349 . S
C2479 C2495 1.349 . S
C2480 C2478 1.327 . S
C2480 C2499 1.429 . S
C2480 H2504 0.950 . S
C2481 C2498 1.574 . S
C2481 C2500 1.368 . S
C2481 H2505 0.949 . S
H2482 C2486 0.949 . S
C2483 C2484 1.349 . S
C2483 C2485 1.327 . S
C2483 H2506 0.950 . S
C2484 C2483 1.349 . S
C2484 C2496 1.349 . S
C2485 C2483 1.327 . S
C2485 C2501 1.429 . S
C2485 H2507 0.950 . S
C2486 H2482 0.949 . S
C2486 C2494 1.574 . S
C2486 C2502 1.368 . S
H2487 C2495 0.950 . S
H2488 C2493 0.950 . S
H2489 C2494 0.949 . S
H2490 C2496 0.950 . S
H2491 C2497 0.950 . S
H2492 C2498 0.949 . S
C2493 H2488 0.950 . S
C2493 C2495 1.327 . S
C2493 C2499 1.429 . S
C2494 C2486 1.574 . S
C2494 H2489 0.949 . S
C2494 C2500 1.368 . S
C2495 C2479 1.349 . S
C2495 H2487 0.950 . S
C2495 C2493 1.327 . S
C2496 C2484 1.349 . S
C2496 H2490 0.950 . S
C2496 C2497 1.327 . S
C2497 H2491 0.950 . S
C2497 C2496 1.327 . S
C2497 C2501 1.429 . S
C2498 C2481 1.574 . S
C2498 H2492 0.949 . S
C2498 C2502 1.368 . S
C2499 C2480 1.429 . S
C2499 C2493 1.429 . S
C2499 C2500 1.523 . S
C2500 C2481 1.368 . S
C2500 C2494 1.368 . S
C2500 C2499 1.523 . S
C2501 C2485 1.429 . S
C2501 C2497 1.429 . S
C2501 C2502 1.523 . S
C2502 C2486 1.368 . S
C2502 C2498 1.368 . S
C2502 C2501 1.523 . S
H2503 C2478 0.950 . S
H2504 C2480 0.950 . S
H2505 C2481 0.949 . S
H2506 C2483 0.950 . S
H2507 C2485 0.950 . S
C2508 C2509 1.349 . S
C2508 C2510 1.327 . S
C2508 H2533 0.950 . S
C2509 C2508 1.349 . S
C2509 C2525 1.349 . S
C2510 C2508 1.327 . S
C2510 C2529 1.429 . S
C2510 H2534 0.950 . S
C2511 C2528 1.574 . S
C2511 C2530 1.368 . S
C2511 H2535 0.949 . S
H2512 C2516 0.949 . S
C2513 C2514 1.349 . S
C2513 C2515 1.327 . S
C2513 H2536 0.950 . S
C2514 C2513 1.349 . S
C2514 C2526 1.349 . S
C2515 C2513 1.327 . S
C2515 C2531 1.429 . S
C2515 H2537 0.950 . S
C2516 H2512 0.949 . S
C2516 C2524 1.574 . S
C2516 C2532 1.368 . S
H2517 C2525 0.950 . S
H2518 C2523 0.950 . S
H2519 C2524 0.949 . S
H2520 C2526 0.950 . S
H2521 C2527 0.950 . S
H2522 C2528 0.949 . S
C2523 H2518 0.950 . S
C2523 C2525 1.327 . S
C2523 C2529 1.429 . S
C2524 C2516 1.574 . S
C2524 H2519 0.949 . S
C2524 C2530 1.368 . S
C2525 C2509 1.349 . S
C2525 H2517 0.950 . S
C2525 C2523 1.327 . S
C2526 C2514 1.349 . S
C2526 H2520 0.950 . S
C2526 C2527 1.327 . S
C2527 H2521 0.950 . S
C2527 C2526 1.327 . S
C2527 C2531 1.429 . S
C2528 C2511 1.574 . S
C2528 H2522 0.949 . S
C2528 C2532 1.368 . S
C2529 C2510 1.429 . S
C2529 C2523 1.429 . S
C2529 C2530 1.523 . S
C2530 C2511 1.368 . S
C2530 C2524 1.368 . S
C2530 C2529 1.523 . S
C2531 C2515 1.429 . S
C2531 C2527 1.429 . S
C2531 C2532 1.523 . S
C2532 C2516 1.368 . S
C2532 C2528 1.368 . S
C2532 C2531 1.523 . S
H2533 C2508 0.950 . S
H2534 C2510 0.950 . S
H2535 C2511 0.949 . S
H2536 C2513 0.950 . S
H2537 C2515 0.950 . S
C2538 C2539 1.349 . S
C2538 C2540 1.327 . S
C2538 H2563 0.950 . S
C2539 C2538 1.349 . S
C2539 C2555 1.349 . S
C2540 C2538 1.327 . S
C2540 C2559 1.429 . S
C2540 H2564 0.950 . S
C2541 C2558 1.574 . S
C2541 C2560 1.368 . S
C2541 H2565 0.949 . S
H2542 C2546 0.949 . S
C2543 C2544 1.349 . S
C2543 C2545 1.327 . S
C2543 H2566 0.950 . S
C2544 C2543 1.349 . S
C2544 C2556 1.349 . S
C2545 C2543 1.327 . S
C2545 C2561 1.429 . S
C2545 H2567 0.950 . S
C2546 H2542 0.949 . S
C2546 C2554 1.574 . S
C2546 C2562 1.368 . S
H2547 C2555 0.950 . S
H2548 C2553 0.950 . S
H2549 C2554 0.949 . S
H2550 C2556 0.950 . S
H2551 C2557 0.950 . S
H2552 C2558 0.949 . S
C2553 H2548 0.950 . S
C2553 C2555 1.327 . S
C2553 C2559 1.429 . S
C2554 C2546 1.574 . S
C2554 H2549 0.949 . S
C2554 C2560 1.368 . S
C2555 C2539 1.349 . S
C2555 H2547 0.950 . S
C2555 C2553 1.327 . S
C2556 C2544 1.349 . S
C2556 H2550 0.950 . S
C2556 C2557 1.327 . S
C2557 H2551 0.950 . S
C2557 C2556 1.327 . S
C2557 C2561 1.429 . S
C2558 C2541 1.574 . S
C2558 H2552 0.949 . S
C2558 C2562 1.368 . S
C2559 C2540 1.429 . S
C2559 C2553 1.429 . S
C2559 C2560 1.523 . S
C2560 C2541 1.368 . S
C2560 C2554 1.368 . S
C2560 C2559 1.523 . S
C2561 C2545 1.429 . S
C2561 C2557 1.429 . S
C2561 C2562 1.523 . S
C2562 C2546 1.368 . S
C2562 C2558 1.368 . S
C2562 C2561 1.523 . S
H2563 C2538 0.950 . S
H2564 C2540 0.950 . S
H2565 C2541 0.949 . S
H2566 C2543 0.950 . S
H2567 C2545 0.950 . S
C2568 C2569 1.349 . S
C2568 C2570 1.327 . S
C2568 H2593 0.950 . S
C2569 C2568 1.349 . S
C2569 C2585 1.349 . S
C2570 C2568 1.327 . S
C2570 C2589 1.429 . S
C2570 H2594 0.950 . S
C2571 C2588 1.574 . S
C2571 C2590 1.368 . S
C2571 H2595 0.949 . S
H2572 C2576 0.949 . S
C2573 C2574 1.349 . S
C2573 C2575 1.327 . S
C2573 H2596 0.950 . S
C2574 C2573 1.349 . S
C2574 C2586 1.349 . S
C2575 C2573 1.327 . S
C2575 C2591 1.429 . S
C2575 H2597 0.950 . S
C2576 H2572 0.949 . S
C2576 C2584 1.574 . S
C2576 C2592 1.368 . S
H2577 C2585 0.950 . S
H2578 C2583 0.950 . S
H2579 C2584 0.949 . S
H2580 C2586 0.950 . S
H2581 C2587 0.950 . S
H2582 C2588 0.949 . S
C2583 H2578 0.950 . S
C2583 C2585 1.327 . S
C2583 C2589 1.429 . S
C2584 C2576 1.574 . S
C2584 H2579 0.949 . S
C2584 C2590 1.368 . S
C2585 C2569 1.349 . S
C2585 H2577 0.950 . S
C2585 C2583 1.327 . S
C2586 C2574 1.349 . S
C2586 H2580 0.950 . S
C2586 C2587 1.327 . S
C2587 H2581 0.950 . S
C2587 C2586 1.327 . S
C2587 C2591 1.429 . S
C2588 C2571 1.574 . S
C2588 H2582 0.949 . S
C2588 C2592 1.368 . S
C2589 C2570 1.429 . S
C2589 C2583 1.429 . S
C2589 C2590 1.523 . S
C2590 C2571 1.368 . S
C2590 C2584 1.368 . S
C2590 C2589 1.523 . S
C2591 C2575 1.429 . S
C2591 C2587 1.429 . S
C2591 C2592 1.523 . S
C2592 C2576 1.368 . S
C2592 C2588 1.368 . S
C2592 C2591 1.523 . S
H2593 C2568 0.950 . S
H2594 C2570 0.950 . S
H2595 C2571 0.949 . S
H2596 C2573 0.950 . S
H2597 C2575 0.950 . S
C2598 C2599 1.349 . S
C2598 C2600 1.327 . S
C2598 H2623 0.950 . S
C2599 C2598 1.349 . S
C2599 C2615 1.349 . S
C2600 C2598 1.327 . S
C2600 C2619 1.429 . S
C2600 H2624 0.950 . S
C2601 C2618 1.574 . S
C2601 C2620 1.368 . S
C2601 H2625 0.949 . S
H2602 C2606 0.949 . S
C2603 C2604 1.349 . S
C2603 C2605 1.327 . S
C2603 H2626 0.950 . S
C2604 C2603 1.349 . S
C2604 C2616 1.349 . S
C2605 C2603 1.327 . S
C2605 C2621 1.429 . S
C2605 H2627 0.950 . S
C2606 H2602 0.949 . S
C2606 C2614 1.574 . S
C2606 C2622 1.368 . S
H2607 C2615 0.950 . S
H2608 C2613 0.950 . S
H2609 C2614 0.949 . S
H2610 C2616 0.950 . S
H2611 C2617 0.950 . S
H2612 C2618 0.949 . S
C2613 H2608 0.950 . S
C2613 C2615 1.327 . S
C2613 C2619 1.429 . S
C2614 C2606 1.574 . S
C2614 H2609 0.949 . S
C2614 C2620 1.368 . S
C2615 C2599 1.349 . S
C2615 H2607 0.950 . S
C2615 C2613 1.327 . S
C2616 C2604 1.349 . S
C2616 H2610 0.950 . S
C2616 C2617 1.327 . S
C2617 H2611 0.950 . S
C2617 C2616 1.327 . S
C2617 C2621 1.429 . S
C2618 C2601 1.574 . S
C2618 H2612 0.949 . S
C2618 C2622 1.368 . S
C2619 C2600 1.429 . S
C2619 C2613 1.429 . S
C2619 C2620 1.523 . S
C2620 C2601 1.368 . S
C2620 C2614 1.368 . S
C2620 C2619 1.523 . S
C2621 C2605 1.429 . S
C2621 C2617 1.429 . S
C2621 C2622 1.523 . S
C2622 C2606 1.368 . S
C2622 C2618 1.368 . S
C2622 C2621 1.523 . S
H2623 C2598 0.950 . S
H2624 C2600 0.950 . S
H2625 C2601 0.949 . S
H2626 C2603 0.950 . S
H2627 C2605 0.950 . S
C2628 C2629 1.349 . S
C2628 C2630 1.327 . S
C2628 H2653 0.950 . S
C2629 C2628 1.349 . S
C2629 C2645 1.349 . S
C2630 C2628 1.327 . S
C2630 C2649 1.429 . S
C2630 H2654 0.950 . S
C2631 C2648 1.574 . S
C2631 C2650 1.368 . S
C2631 H2655 0.949 . S
H2632 C2636 0.949 . S
C2633 C2634 1.349 . S
C2633 C2635 1.327 . S
C2633 H2656 0.950 . S
C2634 C2633 1.349 . S
C2634 C2646 1.349 . S
C2635 C2633 1.327 . S
C2635 C2651 1.429 . S
C2635 H2657 0.950 . S
C2636 H2632 0.949 . S
C2636 C2644 1.574 . S
C2636 C2652 1.368 . S
H2637 C2645 0.950 . S
H2638 C2643 0.950 . S
H2639 C2644 0.949 . S
H2640 C2646 0.950 . S
H2641 C2647 0.950 . S
H2642 C2648 0.949 . S
C2643 H2638 0.950 . S
C2643 C2645 1.327 . S
C2643 C2649 1.429 . S
C2644 C2636 1.574 . S
C2644 H2639 0.949 . S
C2644 C2650 1.368 . S
C2645 C2629 1.349 . S
C2645 H2637 0.950 . S
C2645 C2643 1.327 . S
C2646 C2634 1.349 . S
C2646 H2640 0.950 . S
C2646 C2647 1.327 . S
C2647 H2641 0.950 . S
C2647 C2646 1.327 . S
C2647 C2651 1.429 . S
C2648 C2631 1.574 . S
C2648 H2642 0.949 . S
C2648 C2652 1.368 . S
C2649 C2630 1.429 . S
C2649 C2643 1.429 . S
C2649 C2650 1.523 . S
C2650 C2631 1.368 . S
C2650 C2644 1.368 . S
C2650 C2649 1.523 . S
C2651 C2635 1.429 . S
C2651 C2647 1.429 . S
C2651 C2652 1.523 . S
C2652 C2636 1.368 . S
C2652 C2648 1.368 . S
C2652 C2651 1.523 . S
H2653 C2628 0.950 . S
H2654 C2630 0.950 . S
H2655 C2631 0.949 . S
H2656 C2633 0.950 . S
H2657 C2635 0.950 . S
C2658 C2659 1.349 . S
C2658 C2660 1.327 . S
C2658 H2683 0.950 . S
C2659 C2658 1.349 . S
C2659 C2675 1.349 . S
C2660 C2658 1.327 . S
C2660 C2679 1.429 . S
C2660 H2684 0.950 . S
C2661 C2678 1.574 . S
C2661 C2680 1.368 . S
C2661 H2685 0.949 . S
H2662 C2666 0.949 . S
C2663 C2664 1.349 . S
C2663 C2665 1.327 . S
C2663 H2686 0.950 . S
C2664 C2663 1.349 . S
C2664 C2676 1.349 . S
C2665 C2663 1.327 . S
C2665 C2681 1.429 . S
C2665 H2687 0.950 . S
C2666 H2662 0.949 . S
C2666 C2674 1.574 . S
C2666 C2682 1.368 . S
H2667 C2675 0.950 . S
H2668 C2673 0.950 . S
H2669 C2674 0.949 . S
H2670 C2676 0.950 . S
H2671 C2677 0.950 . S
H2672 C2678 0.949 . S
C2673 H2668 0.950 . S
C2673 C2675 1.327 . S
C2673 C2679 1.429 . S
C2674 C2666 1.574 . S
C2674 H2669 0.949 . S
C2674 C2680 1.368 . S
C2675 C2659 1.349 . S
C2675 H2667 0.950 . S
C2675 C2673 1.327 . S
C2676 C2664 1.349 . S
C2676 H2670 0.950 . S
C2676 C2677 1.327 . S
C2677 H2671 0.950 . S
C2677 C2676 1.327 . S
C2677 C2681 1.429 . S
C2678 C2661 1.574 . S
C2678 H2672 0.949 . S
C2678 C2682 1.368 . S
C2679 C2660 1.429 . S
C2679 C2673 1.429 . S
C2679 C2680 1.523 . S
C2680 C2661 1.368 . S
C2680 C2674 1.368 . S
C2680 C2679 1.523 . S
C2681 C2665 1.429 . S
C2681 C2677 1.429 . S
C2681 C2682 1.523 . S
C2682 C2666 1.368 . S
C2682 C2678 1.368 . S
C2682 C2681 1.523 . S
H2683 C2658 0.950 . S
H2684 C2660 0.950 . S
H2685 C2661 0.949 . S
H2686 C2663 0.950 . S
H2687 C2665 0.950 . S
C2688 C2689 1.349 . S
C2688 C2690 1.327 . S
C2688 H2713 0.950 . S
C2689 C2688 1.349 . S
C2689 C2705 1.349 . S
C2690 C2688 1.327 . S
C2690 C2709 1.429 . S
C2690 H2714 0.950 . S
C2691 C2708 1.574 . S
C2691 C2710 1.368 . S
C2691 H2715 0.949 . S
H2692 C2696 0.949 . S
C2693 C2694 1.349 . S
C2693 C2695 1.327 . S
C2693 H2716 0.950 . S
C2694 C2693 1.349 . S
C2694 C2706 1.349 . S
C2695 C2693 1.327 . S
C2695 C2711 1.429 . S
C2695 H2717 0.950 . S
C2696 H2692 0.949 . S
C2696 C2704 1.574 . S
C2696 C2712 1.368 . S
H2697 C2705 0.950 . S
H2698 C2703 0.950 . S
H2699 C2704 0.949 . S
H2700 C2706 0.950 . S
H2701 C2707 0.950 . S
H2702 C2708 0.949 . S
C2703 H2698 0.950 . S
C2703 C2705 1.327 . S
C2703 C2709 1.429 . S
C2704 C2696 1.574 . S
C2704 H2699 0.949 . S
C2704 C2710 1.368 . S
C2705 C2689 1.349 . S
C2705 H2697 0.950 . S
C2705 C2703 1.327 . S
C2706 C2694 1.349 . S
C2706 H2700 0.950 . S
C2706 C2707 1.327 . S
C2707 H2701 0.950 . S
C2707 C2706 1.327 . S
C2707 C2711 1.429 . S
C2708 C2691 1.574 . S
C2708 H2702 0.949 . S
C2708 C2712 1.368 . S
C2709 C2690 1.429 . S
C2709 C2703 1.429 . S
C2709 C2710 1.523 . S
C2710 C2691 1.368 . S
C2710 C2704 1.368 . S
C2710 C2709 1.523 . S
C2711 C2695 1.429 . S
C2711 C2707 1.429 . S
C2711 C2712 1.523 . S
C2712 C2696 1.368 . S
C2712 C2708 1.368 . S
C2712 C2711 1.523 . S
H2713 C2688 0.950 . S
H2714 C2690 0.950 . S
H2715 C2691 0.949 . S
H2716 C2693 0.950 . S
H2717 C2695 0.950 . S
C1099 C253 1.439 . S
C1104 C398 1.385 . S
C1129 C272 1.471 . S
C1134 C482 1.418 . S
C1159 C234 1.426 . S
C1164 C576 1.430 . S
C1189 C215 1.410 . S
C1194 C492 1.414 1_556 S
C1224 C566 1.374 . S
C1219 C177 1.427 . S
C1249 C196 1.382 . S
C1254 C408 1.380 1_556 S
C1284 C409 1.483 . S
C1279 C220 1.462 . S
C1314 C493 1.506 . S
C1309 C182 1.486 . S
C1339 C201 1.477 . S
C1344 C585 1.537 . S
C1369 C258 1.445 . S
C1374 C501 1.485 . S
C1399 C277 1.434 . S
C1404 C577 1.451 . S
C1434 C417 1.466 . S
C1429 C239 1.423 . S
C1464 C650 1.385 . S
C1459 C25 1.439 . S
C1489 C44 1.471 . S
C1494 C734 1.418 . S
C1519 C6 1.426 . S
C1524 C828 1.430 . S
C1549 C329 1.410 . S
C1554 C744 1.414 . S
C1579 C291 1.427 . S
C1584 C818 1.370 . S
C1609 C310 1.382 . S
C1614 C660 1.385 . S
C1639 C334 1.462 . S
C1644 C661 1.483 . S
C1669 C296 1.486 . S
C1674 C745 1.506 . S
C1704 C837 1.519 . S
C1699 C315 1.476 . S
C1729 C30 1.445 . S
C1734 C753 1.485 . S
C1764 C829 1.451 . S
C1759 C49 1.434 . S
C1789 C11 1.423 . S
C1794 C669 1.466 . S
C1824 C902 1.385 . S
C1819 C139 1.439 . S
C1849 C158 1.471 . S
C1854 C986 1.418 . S
C1884 C1080 1.430 . S
C1879 C120 1.426 . S
C1914 C996 1.414 . S
C1909 C101 1.410 . S
C1944 C1070 1.370 . S
C1939 C63 1.427 . S
C1969 C82 1.382 . S
C1974 C912 1.385 . S
C1999 C106 1.462 . S
C2004 C913 1.483 . S
C2029 C68 1.486 . S
C2034 C997 1.506 . S
C2064 C1089 1.519 . S
C2059 C87 1.476 . S
C2089 C144 1.445 . S
C2094 C1005 1.485 . S
C2119 C163 1.434 . S
C2124 C1081 1.451 . S
C2149 C125 1.423 . S
C2154 C921 1.466 . S
C2179 C287 1.653 . S
C2184 C405 1.532 . S
C2214 C489 1.595 . S
C2209 C306 1.737 . S
C2239 C325 1.665 . S
C2244 C582 1.467 . S
C2269 C116 1.698 . S
C2274 C498 1.490 . S
C2299 C135 1.686 . S
C2304 C573 1.550 . S
C2334 C414 1.430 . S
C2329 C154 1.614 . S
C2359 C59 1.653 . S
C2364 C657 1.532 . S
C2389 C78 1.737 . S
C2394 C741 1.594 . S
C2419 C97 1.665 . S
C2424 C834 1.467 . S
C2449 C230 1.698 . S
C2454 C750 1.490 . S
C2484 C825 1.550 . S
C2479 C249 1.686 . S
C2509 C268 1.614 . S
C2514 C666 1.430 . S
C2539 C173 1.653 . S
C2544 C909 1.532 . S
C2569 C192 1.737 . S
C2574 C993 1.595 . S
C2604 C1086 1.467 . S
C2599 C211 1.665 . S
C2629 C2 1.698 . S
C2634 C1002 1.490 . S
C2659 C21 1.686 . S
C2664 C1077 1.550 . S
C2689 C40 1.614 . S
C2694 C918 1.430 . S
