# Generated by pormake.
# Topology nom, (4,4)-cn, num edge types: 1
# Building blocks:
#     Node 0, Type 0, BuildingBlock: MUDLON_clean_linker_0, # of connection points: 4
#     Node 1, Type 0, BuildingBlock: MUDLON_clean_linker_0, # of connection points: 4
#     Node 2, Type 0, BuildingBlock: MUDLON_clean_linker_0, # of connection points: 4
#     Node 3, Type 0, BuildingBlock: MUDLON_clean_linker_0, # of connection points: 4
#     Node 4, Type 0, BuildingBlock: MUDLON_clean_linker_0, # of connection points: 4
#     Node 5, Type 0, BuildingBlock: MUDLON_clean_linker_0, # of connection points: 4
#     Node 6, Type 1, BuildingBlock: UXUYUI_clean_sbu_0, # of connection points: 4
#     Node 7, Type 1, BuildingBlock: UXUYUI_clean_sbu_0, # of connection points: 4
#     Node 8, Type 1, BuildingBlock: UXUYUI_clean_sbu_0, # of connection points: 4
#     Node 9, Type 1, BuildingBlock: UXUYUI_clean_sbu_0, # of connection points: 4
#     Node 10, Type 1, BuildingBlock: UXUYUI_clean_sbu_0, # of connection points: 4
#     Node 11, Type 1, BuildingBlock: UXUYUI_clean_sbu_0, # of connection points: 4
#     Edge 12, Type (0, 1), BuildingBlock: UVAHIK_clean_linker_0, # of connection points: 2
#     Edge 13, Type (0, 1), BuildingBlock: UVAHIK_clean_linker_0, # of connection points: 2
#     Edge 14, Type (0, 1), BuildingBlock: UVAHIK_clean_linker_0, # of connection points: 2
#     Edge 15, Type (0, 1), BuildingBlock: UVAHIK_clean_linker_0, # of connection points: 2
#     Edge 16, Type (0, 1), BuildingBlock: UVAHIK_clean_linker_0, # of connection points: 2
#     Edge 17, Type (0, 1), BuildingBlock: UVAHIK_clean_linker_0, # of connection points: 2
#     Edge 18, Type (0, 1), BuildingBlock: UVAHIK_clean_linker_0, # of connection points: 2
#     Edge 19, Type (0, 1), BuildingBlock: UVAHIK_clean_linker_0, # of connection points: 2
#     Edge 20, Type (0, 1), BuildingBlock: UVAHIK_clean_linker_0, # of connection points: 2
#     Edge 21, Type (0, 1), BuildingBlock: UVAHIK_clean_linker_0, # of connection points: 2
#     Edge 22, Type (0, 1), BuildingBlock: UVAHIK_clean_linker_0, # of connection points: 2
#     Edge 23, Type (0, 1), BuildingBlock: UVAHIK_clean_linker_0, # of connection points: 2
#     Edge 24, Type (0, 1), BuildingBlock: UVAHIK_clean_linker_0, # of connection points: 2
#     Edge 25, Type (0, 1), BuildingBlock: UVAHIK_clean_linker_0, # of connection points: 2
#     Edge 26, Type (0, 1), BuildingBlock: UVAHIK_clean_linker_0, # of connection points: 2
#     Edge 27, Type (0, 1), BuildingBlock: UVAHIK_clean_linker_0, # of connection points: 2
#     Edge 28, Type (0, 1), BuildingBlock: UVAHIK_clean_linker_0, # of connection points: 2
#     Edge 29, Type (0, 1), BuildingBlock: UVAHIK_clean_linker_0, # of connection points: 2
#     Edge 30, Type (0, 1), BuildingBlock: UVAHIK_clean_linker_0, # of connection points: 2
#     Edge 31, Type (0, 1), BuildingBlock: UVAHIK_clean_linker_0, # of connection points: 2
#     Edge 32, Type (0, 1), BuildingBlock: UVAHIK_clean_linker_0, # of connection points: 2
#     Edge 33, Type (0, 1), BuildingBlock: UVAHIK_clean_linker_0, # of connection points: 2
#     Edge 34, Type (0, 1), BuildingBlock: UVAHIK_clean_linker_0, # of connection points: 2
#     Edge 35, Type (0, 1), BuildingBlock: UVAHIK_clean_linker_0, # of connection points: 2
# Relax obj value: 0.038
# Max RMSD: 0.149
# Mean RMSD: 0.119
data_MOF--net-nom--node1-UXUYUI_clean_sbu_0--node2-MUDLON_clean_linker_0--edge1-UVAHIK_clean_linker_0
_symmetry_space_group_name_H-M    P1
_symmetry_Int_Tables_number       1
_symmetry_cell_setting            triclinic
loop_
_symmetry_equiv_pos_as_xyz
'x, y, z'
_cell_length_a     83.656589
_cell_length_b     84.391245
_cell_length_c     84.391151
_cell_angle_alpha  90.306514
_cell_angle_beta   89.846015
_cell_angle_gamma 120.28256
loop_
_atom_site_label
_atom_site_type_symbol
_atom_site_fract_x
_atom_site_fract_y
_atom_site_fract_z
_atom_type_partial_charge
H0 H 0.11144 0.52831 0.32652 0.0
N1 N 0.08123 0.52714 0.33762 0.0
H2 H 0.13498 0.55142 0.30926 0.0
H3 H 0.07863 0.5543 0.32207 0.0
H4 H 0.10161 0.57696 0.30417 0.0
H5 H 0.09347 0.5609 0.35123 0.0
H6 H 0.10882 0.57112 0.37674 0.0
H7 H 0.08286 0.50623 0.36025 0.0
H8 H 0.09697 0.51592 0.38645 0.0
H9 H 0.06056 0.49535 0.32303 0.0
H10 H 0.05781 0.53964 0.34596 0.0
H11 H 0.02716 0.4794 0.31833 0.0
H12 H 0.02428 0.52366 0.34156 0.0
H13 H 0.93606 0.43194 0.2991 0.0
H14 H 0.92144 0.42697 0.27296 0.0
H15 H 0.92378 0.47913 0.277 0.0
H16 H 0.93853 0.4841 0.30284 0.0
H17 H 0.93952 0.48737 0.32985 0.0
H18 H 0.91458 0.48403 0.34692 0.0
H19 H 0.89755 0.42691 0.35413 0.0
H20 H 0.92174 0.43019 0.33588 0.0
H21 H 0.9656 0.4466 0.32926 0.0
H22 H 0.99899 0.46365 0.33408 0.0
H23 H 0.00091 0.51378 0.32014 0.0
N24 N 0.94453 0.45947 0.31908 0.0
H25 H 0.96747 0.49661 0.31557 0.0
C26 C 0.09327 0.53945 0.32555 0.0
C27 C 0.10911 0.53873 0.32143 0.0
C28 C 0.12249 0.55193 0.31148 0.0
C29 C 0.12026 0.56615 0.30529 0.0
C30 C 0.10394 0.5664 0.3089 0.0
C31 C 0.09063 0.55327 0.31901 0.0
C32 C 0.08743 0.53284 0.35367 0.0
C33 C 0.09411 0.55098 0.35886 0.0
C34 C 0.10276 0.55677 0.37361 0.0
C35 C 0.10451 0.54446 0.38367 0.0
C36 C 0.09647 0.52598 0.37888 0.0
C37 C 0.08818 0.52031 0.36399 0.0
C38 C 0.06161 0.51854 0.33488 0.0
C39 C 0.05268 0.50159 0.32705 0.0
C40 C 0.03361 0.49248 0.32448 0.0
C41 C 0.02303 0.5002 0.3297 0.0
C42 C 0.03206 0.51742 0.33732 0.0
C43 C 0.0512 0.52651 0.33992 0.0
C44 C 0.93824 0.45824 0.30301 0.0
C45 C 0.93372 0.44243 0.29417 0.0
C46 C 0.92542 0.43964 0.27927 0.0
C47 C 0.92134 0.4526 0.27304 0.0
C48 C 0.92658 0.46882 0.28162 0.0
C49 C 0.93507 0.47168 0.29642 0.0
C50 C 0.93217 0.45885 0.33127 0.0
C51 C 0.93042 0.47413 0.33506 0.0
C52 C 0.91621 0.47223 0.34507 0.0
C53 C 0.90372 0.45509 0.35178 0.0
C54 C 0.90646 0.44019 0.34883 0.0
C55 C 0.92042 0.44204 0.33856 0.0
C56 C 0.96408 0.47026 0.32204 0.0
C57 C 0.97327 0.46127 0.32731 0.0
C58 C 0.99233 0.47103 0.32995 0.0
C59 C 0.00264 0.49006 0.32738 0.0
C60 C 0.99334 0.49915 0.32234 0.0
C61 C 0.97421 0.48933 0.31966 0.0
H62 H 0.50923 0.92051 0.48806 0.0
N63 N 0.50703 0.94786 0.47509 0.0
H64 H 0.48703 0.89701 0.50603 0.0
H65 H 0.47771 0.94808 0.48941 0.0
H66 H 0.45535 0.92459 0.50738 0.0
H67 H 0.47365 0.93879 0.46158 0.0
H68 H 0.46229 0.92402 0.43591 0.0
H69 H 0.52607 0.94216 0.45276 0.0
H70 H 0.51475 0.92738 0.42685 0.0
H71 H 0.53737 0.96792 0.49193 0.0
H72 H 0.4955 0.97158 0.46526 0.0
H73 H 0.55307 0.00083 0.49723 0.0
H74 H 0.51163 0.00464 0.46964 0.0
H75 H 0.60627 0.1039 0.51058 0.0
H76 H 0.6109 0.11681 0.53735 0.0
H77 H 0.5517 0.0873 0.54466 0.0
H78 H 0.54722 0.07472 0.51793 0.0
H79 H 0.54858 0.0942 0.49594 0.0
H80 H 0.55073 0.12008 0.48149 0.0
H81 H 0.59896 0.12652 0.45674 0.0
H82 H 0.59713 0.10101 0.47188 0.0
H83 H 0.5882 0.06173 0.49005 0.0
H84 H 0.57139 0.02884 0.48454 0.0
H85 H 0.5196 0.02845 0.4882 0.0
N86 N 0.5744 0.0833 0.49569 0.0
H87 H 0.5367 0.06156 0.49271 0.0
C88 C 0.49509 0.93593 0.48736 0.0
C89 C 0.49769 0.92165 0.49252 0.0
C90 C 0.48503 0.9083 0.50281 0.0
C91 C 0.46939 0.90891 0.50806 0.0
C92 C 0.46717 0.92367 0.50339 0.0
C93 C 0.47997 0.93713 0.49318 0.0
C94 C 0.50074 0.94143 0.45918 0.0
C95 C 0.48283 0.93657 0.45407 0.0
C96 C 0.4763 0.92806 0.43938 0.0
C97 C 0.48757 0.92438 0.42946 0.0
C98 C 0.50579 0.93013 0.43422 0.0
C99 C 0.51226 0.93852 0.44898 0.0
C100 C 0.51549 0.96729 0.47803 0.0
C101 C 0.53168 0.9759 0.48711 0.0
C102 C 0.54071 0.99475 0.48998 0.0
C103 C 0.53383 0.00555 0.48365 0.0
C104 C 0.51731 0.99681 0.4748 0.0
C105 C 0.50812 0.97784 0.47213 0.0
C106 C 0.57649 0.08839 0.51221 0.0
C107 C 0.59435 0.09997 0.51811 0.0
C108 C 0.59695 0.10727 0.53341 0.0
C109 C 0.58164 0.10315 0.54309 0.0
C110 C 0.56375 0.09091 0.5374 0.0
C111 C 0.56118 0.08359 0.52211 0.0
C112 C 0.57292 0.09585 0.48514 0.0
C113 C 0.55942 0.10093 0.48723 0.0
C114 C 0.56062 0.11575 0.47885 0.0
C115 C 0.57522 0.12563 0.46812 0.0
C116 C 0.58781 0.11953 0.46519 0.0
C117 C 0.58669 0.10484 0.47368 0.0
C118 C 0.56377 0.06404 0.49197 0.0
C119 C 0.57322 0.0545 0.48955 0.0
C120 C 0.56354 0.03566 0.48656 0.0
C121 C 0.54406 0.02582 0.48616 0.0
C122 C 0.53458 0.03552 0.48832 0.0
C123 C 0.54434 0.05449 0.49108 0.0
H124 H 0.51418 0.60233 0.652 0.0
N125 N 0.50861 0.5776 0.67387 0.0
H126 H 0.4909 0.60344 0.63542 0.0
H127 H 0.47271 0.54984 0.67015 0.0
H128 H 0.4497 0.55002 0.65281 0.0
H129 H 0.48772 0.55053 0.69507 0.0
H130 H 0.47617 0.55476 0.72057 0.0
H131 H 0.51828 0.60907 0.68835 0.0
H132 H 0.50724 0.61352 0.71393 0.0
H133 H 0.54381 0.58958 0.68034 0.0
H134 H 0.49436 0.54189 0.66313 0.0
H135 H 0.56089 0.57335 0.67727 0.0
H136 H 0.51146 0.52604 0.65911 0.0
H137 H 0.61129 0.52207 0.64103 0.0
H138 H 0.615 0.51362 0.61409 0.0
H139 H 0.55579 0.48679 0.6072 0.0
H140 H 0.55225 0.49511 0.63428 0.0
H141 H 0.55434 0.47599 0.65548 0.0
H142 H 0.55587 0.45223 0.6704 0.0
H143 H 0.60341 0.49387 0.69598 0.0
H144 H 0.60217 0.51764 0.68041 0.0
H145 H 0.59135 0.5481 0.65347 0.0
H146 H 0.57364 0.56349 0.65776 0.0
H147 H 0.52603 0.51165 0.67105 0.0
N148 N 0.57997 0.51278 0.65613 0.0
H149 H 0.54355 0.49631 0.66578 0.0
C150 C 0.49535 0.57597 0.66214 0.0
C151 C 0.50019 0.59073 0.65193 0.0
C152 C 0.48682 0.59127 0.64242 0.0
C153 C 0.46826 0.57687 0.6428 0.0
C154 C 0.4637 0.56157 0.65241 0.0
C155 C 0.477 0.56126 0.66217 0.0
C156 C 0.50376 0.57956 0.68983 0.0
C157 C 0.49218 0.5643 0.69923 0.0
C158 C 0.48567 0.56675 0.71382 0.0
C159 C 0.49061 0.58447 0.71916 0.0
C160 C 0.5029 0.59968 0.71001 0.0
C161 C 0.50936 0.59721 0.69549 0.0
C162 C 0.51789 0.56722 0.67181 0.0
C163 C 0.53669 0.57567 0.67576 0.0
C164 C 0.54644 0.56639 0.67387 0.0
C165 C 0.53766 0.5484 0.66773 0.0
C166 C 0.51869 0.53979 0.66401 0.0
C167 C 0.50886 0.54901 0.66617 0.0
C168 C 0.58159 0.50926 0.63965 0.0
C169 C 0.59918 0.51462 0.63359 0.0
C170 C 0.60125 0.50983 0.61818 0.0
C171 C 0.58567 0.4995 0.6085 0.0
C172 C 0.56804 0.49458 0.61443 0.0
C173 C 0.566 0.49942 0.62987 0.0
C174 C 0.57834 0.49867 0.66672 0.0
C175 C 0.56493 0.48007 0.66445 0.0
C176 C 0.56575 0.46644 0.67311 0.0
C177 C 0.57991 0.47109 0.68429 0.0
C178 C 0.59255 0.48977 0.68724 0.0
C179 C 0.59177 0.50339 0.67849 0.0
C180 C 0.56897 0.52116 0.65947 0.0
C181 C 0.5771 0.54012 0.65734 0.0
C182 C 0.56695 0.54888 0.65993 0.0
C183 C 0.54838 0.53889 0.66494 0.0
C184 C 0.54021 0.5198 0.66705 0.0
C185 C 0.55033 0.51099 0.66421 0.0
H186 H 0.10867 0.59888 0.82709 0.0
N187 N 0.08151 0.57108 0.8115 0.0
H188 H 0.13207 0.59831 0.84392 0.0
H189 H 0.08154 0.54018 0.8214 0.0
H190 H 0.10443 0.53932 0.83863 0.0
H191 H 0.08435 0.54608 0.79268 0.0
H192 H 0.09963 0.55224 0.76689 0.0
H193 H 0.09375 0.60118 0.79432 0.0
H194 H 0.10927 0.60754 0.76851 0.0
H195 H 0.06244 0.58542 0.82362 0.0
H196 H 0.05632 0.53472 0.80577 0.0
H197 H 0.02926 0.57 0.82909 0.0
H198 H 0.02335 0.51896 0.81185 0.0
H199 H 0.92516 0.52033 0.85085 0.0
H200 H 0.91156 0.50936 0.87707 0.0
H201 H 0.93815 0.47685 0.87951 0.0
H202 H 0.95165 0.48789 0.85326 0.0
H203 H 0.93613 0.47446 0.82893 0.0
H204 H 0.90981 0.45166 0.81357 0.0
H205 H 0.89863 0.49388 0.79809 0.0
H206 H 0.92453 0.51643 0.81419 0.0
H207 H 0.97369 0.53504 0.85153 0.0
H208 H 0.00663 0.54871 0.84655 0.0
H209 H 0.99479 0.51643 0.80372 0.0
N210 N 0.94538 0.5102 0.83396 0.0
H211 H 0.96199 0.50218 0.80897 0.0
C212 C 0.09336 0.56966 0.82304 0.0
C213 C 0.10754 0.58582 0.82982 0.0
C214 C 0.12083 0.58542 0.83949 0.0
C215 C 0.12018 0.56875 0.84263 0.0
C216 C 0.1055 0.55242 0.83629 0.0
C217 C 0.09226 0.55287 0.82651 0.0
C218 C 0.0878 0.5732 0.79536 0.0
C219 C 0.08922 0.55934 0.78731 0.0
C220 C 0.09801 0.56289 0.77256 0.0
C221 C 0.10573 0.5804 0.76575 0.0
C222 C 0.10359 0.59397 0.77355 0.0
C223 C 0.09465 0.59035 0.7882 0.0
C224 C 0.0619 0.56129 0.81442 0.0
C225 C 0.05391 0.57091 0.82101 0.0
C226 C 0.03498 0.56201 0.82425 0.0
C227 C 0.02359 0.54315 0.82107 0.0
C228 C 0.03164 0.53351 0.81434 0.0
C229 C 0.05061 0.54251 0.81098 0.0
C230 C 0.93931 0.50491 0.8501 0.0
C231 C 0.92824 0.51105 0.85718 0.0
C232 C 0.92056 0.50481 0.87216 0.0
C233 C 0.92374 0.49218 0.88034 0.0
C234 C 0.93527 0.4864 0.87341 0.0
C235 C 0.94302 0.49272 0.85844 0.0
C236 C 0.9321 0.49714 0.82286 0.0
C237 C 0.92809 0.47882 0.82216 0.0
C238 C 0.91312 0.46582 0.81321 0.0
C239 C 0.90193 0.47087 0.80473 0.0
C240 C 0.9067 0.48943 0.80473 0.0
C241 C 0.92159 0.50238 0.81378 0.0
C242 C 0.96494 0.51694 0.8311 0.0
C243 C 0.9781 0.5305 0.84125 0.0
C244 C 0.99702 0.53855 0.83825 0.0
C245 C 0.00343 0.53371 0.82471 0.0
C246 C 0.99038 0.52024 0.81444 0.0
C247 C 0.97141 0.51202 0.81752 0.0
H248 H 0.52207 0.11291 0.99324 0.0
N249 N 0.52381 0.085 0.98073 0.0
H250 H 0.54431 0.13663 0.01108 0.0
H251 H 0.55296 0.08475 0.99523 0.0
H252 H 0.57522 0.10828 0.01334 0.0
H253 H 0.55699 0.09401 0.96688 0.0
H254 H 0.56776 0.10795 0.94091 0.0
H255 H 0.50437 0.0903 0.95871 0.0
H256 H 0.5151 0.1044 0.93261 0.0
H257 H 0.49327 0.06499 0.99733 0.0
H258 H 0.53551 0.06129 0.97103 0.0
H259 H 0.47734 0.03202 0.00219 0.0
H260 H 0.51918 0.0282 0.97498 0.0
H261 H 0.42312 0.92996 0.01372 0.0
H262 H 0.41768 0.91608 0.04001 0.0
H263 H 0.47675 0.94208 0.04726 0.0
H264 H 0.48201 0.95561 0.02097 0.0
H265 H 0.48123 0.93868 0.99734 0.0
H266 H 0.47819 0.91252 0.98238 0.0
H267 H 0.42807 0.90514 0.9608 0.0
H268 H 0.43099 0.93111 0.97625 0.0
H269 H 0.44194 0.97126 0.99349 0.0
H270 H 0.45915 0.00427 0.98878 0.0
H271 H 0.51056 0.00408 0.9932 0.0
N272 N 0.45528 0.94935 0.999 0.0
H273 H 0.49311 0.9709 0.99693 0.0
C274 C 0.53584 0.09714 0.99292 0.0
C275 C 0.53346 0.11167 0.99785 0.0
C276 C 0.54616 0.12516 0.00809 0.0
C277 C 0.56159 0.12438 0.01364 0.0
C278 C 0.5636 0.10938 0.00915 0.0
C279 C 0.55083 0.09586 0.99888 0.0
C280 C 0.52984 0.09121 0.96478 0.0
C281 C 0.54766 0.09599 0.95944 0.0
C282 C 0.55384 0.10406 0.9446 0.0
C283 C 0.54234 0.10743 0.93478 0.0
C284 C 0.52424 0.10187 0.93985 0.0
C285 C 0.5181 0.09387 0.95474 0.0
C286 C 0.51536 0.0656 0.98365 0.0
C287 C 0.49902 0.057 0.99253 0.0
C288 C 0.48986 0.03812 0.99514 0.0
C289 C 0.49676 0.0273 0.98875 0.0
C290 C 0.51347 0.03604 0.98017 0.0
C291 C 0.52277 0.05503 0.97775 0.0
C292 C 0.45288 0.94378 0.01534 0.0
C293 C 0.43486 0.93293 0.02115 0.0
C294 C 0.4318 0.92507 0.03618 0.0
C295 C 0.44679 0.9279 0.04569 0.0
C296 C 0.46491 0.93945 0.04012 0.0
C297 C 0.46794 0.94731 0.02509 0.0
C298 C 0.45618 0.93675 0.98798 0.0
C299 C 0.46984 0.93176 0.98912 0.0
C300 C 0.4681 0.91677 0.9805 0.0
C301 C 0.45273 0.90655 0.97056 0.0
C302 C 0.43988 0.91248 0.96859 0.0
C303 C 0.4416 0.92741 0.97726 0.0
C304 C 0.46617 0.96866 0.99573 0.0
C305 C 0.45693 0.97839 0.99333 0.0
C306 C 0.46683 0.99729 0.99081 0.0
C307 C 0.48632 0.00699 0.99085 0.0
C308 C 0.49559 0.99711 0.99299 0.0
C309 C 0.48561 0.97809 0.9953 0.0
H310 H 0.52576 0.4294 0.15691 0.0
N311 N 0.52632 0.45828 0.1698 0.0
H312 H 0.54949 0.42889 0.14049 0.0
H313 H 0.55675 0.48849 0.15745 0.0
H314 H 0.58012 0.48826 0.14029 0.0
H315 H 0.55531 0.48356 0.18761 0.0
H316 H 0.56407 0.47847 0.21396 0.0
H317 H 0.5072 0.42936 0.18818 0.0
H318 H 0.51593 0.42406 0.21449 0.0
H319 H 0.4923 0.44344 0.15853 0.0
H320 H 0.53838 0.49486 0.17427 0.0
H321 H 0.47434 0.45842 0.15362 0.0
H322 H 0.52096 0.51026 0.16865 0.0
H323 H 0.41833 0.50422 0.13362 0.0
H324 H 0.41457 0.5145 0.10748 0.0
H325 H 0.47364 0.55133 0.10479 0.0
H326 H 0.47735 0.54056 0.1307 0.0
H327 H 0.47529 0.55293 0.15495 0.0
H328 H 0.47077 0.57489 0.17019 0.0
H329 H 0.41843 0.5307 0.18727 0.0
H330 H 0.4226 0.50898 0.171 0.0
H331 H 0.45172 0.49145 0.13262 0.0
H332 H 0.47171 0.47868 0.13643 0.0
H333 H 0.49552 0.51306 0.17779 0.0
N334 N 0.4494 0.51665 0.15018 0.0
H335 H 0.47629 0.52653 0.17354 0.0
C336 C 0.53935 0.45888 0.15831 0.0
C337 C 0.53748 0.44227 0.15308 0.0
C338 C 0.55106 0.44206 0.1436 0.0
C339 C 0.56683 0.45855 0.13898 0.0
C340 C 0.56834 0.47528 0.14379 0.0
C341 C 0.55482 0.47545 0.15348 0.0
C342 C 0.53051 0.45681 0.18603 0.0
C343 C 0.54638 0.47075 0.19358 0.0
C344 C 0.55139 0.46781 0.20862 0.0
C345 C 0.54073 0.45083 0.2162 0.0
C346 C 0.52448 0.43721 0.20885 0.0
C347 C 0.51942 0.44023 0.19392 0.0
C348 C 0.51666 0.46799 0.16657 0.0
C349 C 0.4986 0.45804 0.16069 0.0
C350 C 0.48844 0.4667 0.15779 0.0
C351 C 0.49623 0.48565 0.16057 0.0
C352 C 0.51444 0.49564 0.16648 0.0
C353 C 0.52453 0.48687 0.16955 0.0
C354 C 0.44801 0.52175 0.13416 0.0
C355 C 0.43046 0.51428 0.12725 0.0
C356 C 0.42836 0.52012 0.11235 0.0
C357 C 0.44382 0.53377 0.10421 0.0
C358 C 0.4615 0.54091 0.11092 0.0
C359 C 0.46362 0.53483 0.12572 0.0
C360 C 0.44904 0.52929 0.16159 0.0
C361 C 0.46288 0.54794 0.16201 0.0
C362 C 0.46036 0.5605 0.17094 0.0
C363 C 0.44406 0.55468 0.17982 0.0
C364 C 0.43092 0.53579 0.18026 0.0
C365 C 0.43335 0.52329 0.17114 0.0
C366 C 0.46259 0.51043 0.15239 0.0
C367 C 0.46154 0.49661 0.14231 0.0
C368 C 0.47284 0.48909 0.14465 0.0
C369 C 0.48522 0.49474 0.15748 0.0
C370 C 0.4864 0.50859 0.16761 0.0
C371 C 0.47523 0.51633 0.16515 0.0
Li372 Li 0.63855 0.39691 0.42815 0.0
Li373 Li 0.63365 0.36829 0.41597 0.0
Li374 Li 0.66347 0.39833 0.41185 0.0
Li375 Li 0.63452 0.3922 0.3986 0.0
C376 C 0.65702 0.38555 0.44737 0.0
N377 N 0.66531 0.38836 0.47928 0.0
C378 C 0.64677 0.37063 0.45737 0.0
C379 C 0.67164 0.40181 0.45353 0.0
C380 C 0.65114 0.37234 0.47349 0.0
C381 C 0.67557 0.40298 0.46971 0.0
C382 C 0.59852 0.36504 0.41561 0.0
C383 C 0.57176 0.34219 0.40135 0.0
N384 N 0.56165 0.33798 0.41492 0.0
C385 C 0.58782 0.36065 0.42937 0.0
C386 C 0.59041 0.35589 0.40144 0.0
C387 C 0.56922 0.34686 0.4288 0.0
C388 C 0.63618 0.42474 0.44442 0.0
N389 N 0.63285 0.4073 0.44581 0.0
C390 C 0.62064 0.40502 0.47188 0.0
C391 C 0.62503 0.39731 0.45911 0.0
C392 C 0.62411 0.42311 0.47086 0.0
C393 C 0.63194 0.43296 0.45685 0.0
H394 H 0.64191 0.43222 0.43356 0.0
H395 H 0.62204 0.3833 0.45976 0.0
C396 C 0.63368 0.33554 0.41149 0.0
N397 N 0.62419 0.34268 0.41878 0.0
C398 C 0.62853 0.31721 0.41374 0.0
C399 C 0.60388 0.31381 0.43096 0.0
C400 C 0.60954 0.33226 0.4284 0.0
C401 C 0.61356 0.30612 0.42371 0.0
H402 H 0.64551 0.3442 0.40417 0.0
H403 H 0.60261 0.33837 0.43449 0.0
C404 C 0.66595 0.43206 0.40838 0.0
N405 N 0.69359 0.46793 0.40349 0.0
C406 C 0.66774 0.4403 0.39365 0.0
C407 C 0.67808 0.44211 0.42067 0.0
C408 C 0.68184 0.45844 0.39141 0.0
C409 C 0.69201 0.46021 0.41794 0.0
C410 C 0.64748 0.37154 0.38166 0.0
C411 C 0.66304 0.37941 0.37182 0.0
C412 C 0.63122 0.35603 0.37652 0.0
C413 C 0.66197 0.37179 0.35685 0.0
C414 C 0.63071 0.34881 0.36147 0.0
N415 N 0.64596 0.35679 0.35202 0.0
C416 C 0.69777 0.40127 0.41792 0.0
C417 C 0.69912 0.42197 0.39842 0.0
C418 C 0.71654 0.40729 0.41582 0.0
N419 N 0.68947 0.40862 0.40925 0.0
C420 C 0.71799 0.42865 0.39614 0.0
C421 C 0.72697 0.42115 0.40475 0.0
H422 H 0.68968 0.39037 0.42621 0.0
H423 H 0.69214 0.42721 0.39128 0.0
C424 C 0.60966 0.39952 0.38259 0.0
N425 N 0.62446 0.39718 0.3804 0.0
C426 C 0.6021 0.40396 0.3698 0.0
C427 C 0.62509 0.40341 0.35275 0.0
C428 C 0.63234 0.39922 0.36589 0.0
C429 C 0.60982 0.40589 0.35465 0.0
H430 H 0.60384 0.39808 0.39431 0.0
H431 H 0.64448 0.39796 0.36453 0.0
O432 O 0.65292 0.38414 0.43158 0.0
O433 O 0.61673 0.37854 0.41596 0.0
O434 O 0.65223 0.41432 0.41078 0.0
O435 O 0.64831 0.37883 0.39635 0.0
H436 H 0.63549 0.35791 0.45276 0.0
H437 H 0.6799 0.41335 0.44588 0.0
H438 H 0.64325 0.36095 0.4814 0.0
H439 H 0.6868 0.41551 0.47466 0.0
H440 H 0.56531 0.33496 0.39048 0.0
H441 H 0.59385 0.36772 0.4404 0.0
H442 H 0.59838 0.35943 0.39061 0.0
H443 H 0.5608 0.34322 0.43939 0.0
H444 H 0.61471 0.39693 0.48246 0.0
H445 H 0.63448 0.44678 0.45538 0.0
H446 H 0.63631 0.31182 0.40783 0.0
H447 H 0.59248 0.30585 0.43897 0.0
H448 H 0.65839 0.43275 0.38405 0.0
H449 H 0.67672 0.43601 0.43218 0.0
H450 H 0.68344 0.46498 0.38005 0.0
H451 H 0.70153 0.46814 0.42733 0.0
H452 H 0.67577 0.39135 0.37568 0.0
H453 H 0.6192 0.34953 0.38412 0.0
H454 H 0.67387 0.3778 0.34907 0.0
H455 H 0.61821 0.33683 0.35733 0.0
H456 H 0.72262 0.40072 0.42249 0.0
H457 H 0.72537 0.43949 0.38761 0.0
H458 H 0.59029 0.40573 0.37172 0.0
H459 H 0.63163 0.40512 0.3413 0.0
Li460 Li 0.2701 0.64496 0.58941 0.0
Li461 Li 0.29345 0.64112 0.57551 0.0
Li462 Li 0.29236 0.66961 0.5731 0.0
Li463 Li 0.26898 0.64184 0.56018 0.0
C464 C 0.30173 0.66411 0.60771 0.0
N465 N 0.30983 0.67314 0.63937 0.0
C466 C 0.31192 0.65796 0.61615 0.0
C467 C 0.29575 0.67492 0.61538 0.0
C468 C 0.31585 0.66266 0.63215 0.0
C469 C 0.29997 0.67933 0.63138 0.0
C470 C 0.26206 0.60887 0.58628 0.0
C471 C 0.24254 0.57709 0.59348 0.0
N472 N 0.25348 0.5798 0.60629 0.0
C473 C 0.27309 0.6113 0.5995 0.0
C474 C 0.24666 0.5916 0.58322 0.0
C475 C 0.26854 0.59646 0.60948 0.0
C476 C 0.23736 0.63634 0.60511 0.0
N477 N 0.2543 0.63824 0.60759 0.0
C478 C 0.24682 0.62968 0.63475 0.0
C479 C 0.2591 0.63477 0.62201 0.0
C480 C 0.22931 0.62775 0.63254 0.0
C481 C 0.22457 0.63104 0.61747 0.0
H482 H 0.23378 0.6389 0.59348 0.0
H483 H 0.27237 0.63579 0.62368 0.0
C484 C 0.328 0.64415 0.57962 0.0
N485 N 0.30999 0.63182 0.57637 0.0
C486 C 0.34074 0.63827 0.58172 0.0
C487 C 0.31628 0.60716 0.57655 0.0
C488 C 0.30406 0.61368 0.57436 0.0
C489 C 0.33481 0.6195 0.58052 0.0
H490 H 0.33233 0.65852 0.58103 0.0
H491 H 0.28976 0.60419 0.57141 0.0
C492 C 0.2636 0.67432 0.57256 0.0
N493 N 0.2616 0.70596 0.57072 0.0
C494 C 0.26413 0.68206 0.55783 0.0
C495 C 0.26173 0.6825 0.58634 0.0
C496 C 0.26321 0.69811 0.55715 0.0
C497 C 0.26082 0.69853 0.58517 0.0
C498 C 0.29998 0.64781 0.54333 0.0
C499 C 0.31386 0.65903 0.53265 0.0
C500 C 0.29032 0.62879 0.54108 0.0
C501 C 0.31789 0.65102 0.51988 0.0
C502 C 0.29476 0.6213 0.52817 0.0
N503 N 0.30834 0.63248 0.51793 0.0
C504 C 0.31662 0.70697 0.58236 0.0
C505 C 0.30969 0.70178 0.55497 0.0
C506 C 0.32858 0.72565 0.5797 0.0
N507 N 0.3075 0.69547 0.57006 0.0
C508 C 0.32145 0.72038 0.55176 0.0
C509 C 0.33125 0.73256 0.56421 0.0
H510 H 0.31498 0.70167 0.59419 0.0
H511 H 0.3025 0.69228 0.54537 0.0
C512 C 0.23777 0.61553 0.54334 0.0
N513 N 0.25318 0.63239 0.54227 0.0
C514 C 0.22567 0.60817 0.5305 0.0
C515 C 0.24534 0.63586 0.5158 0.0
C516 C 0.25724 0.64255 0.52884 0.0
C517 C 0.22935 0.61845 0.51657 0.0
H518 H 0.23481 0.60788 0.55421 0.0
H519 H 0.26969 0.65587 0.5283 0.0
O520 O 0.29763 0.65949 0.59206 0.0
O521 O 0.26624 0.62326 0.57637 0.0
O522 O 0.26485 0.6588 0.57347 0.0
O523 O 0.29592 0.65553 0.55586 0.0
H524 H 0.31668 0.64958 0.61046 0.0
H525 H 0.28785 0.67977 0.60906 0.0
H526 H 0.32367 0.65794 0.63882 0.0
H527 H 0.29536 0.68763 0.63745 0.0
H528 H 0.23066 0.56366 0.59125 0.0
H529 H 0.28511 0.62447 0.60199 0.0
H530 H 0.23795 0.58937 0.57303 0.0
H531 H 0.277 0.5982 0.61974 0.0
H532 H 0.25087 0.62697 0.64614 0.0
H533 H 0.2112 0.62974 0.61531 0.0
H534 H 0.35489 0.6482 0.58487 0.0
H535 H 0.31125 0.59261 0.57533 0.0
H536 H 0.26548 0.67586 0.54704 0.0
H537 H 0.2609 0.6765 0.59782 0.0
H538 H 0.26379 0.70434 0.54583 0.0
H539 H 0.25946 0.70505 0.59575 0.0
H540 H 0.32144 0.67378 0.53422 0.0
H541 H 0.2795 0.61987 0.54919 0.0
H542 H 0.3286 0.65954 0.51152 0.0
H543 H 0.28741 0.60661 0.5263 0.0
H544 H 0.33577 0.73457 0.58965 0.0
H545 H 0.32332 0.72506 0.53961 0.0
H546 H 0.21339 0.59475 0.53155 0.0
H547 H 0.24867 0.6441 0.50519 0.0
Li548 Li 0.66224 0.28394 0.74019 0.0
Li549 Li 0.63353 0.26046 0.75231 0.0
Li550 Li 0.63781 0.25981 0.72327 0.0
Li551 Li 0.63176 0.28267 0.73577 0.0
C552 C 0.66563 0.25266 0.73684 0.0
N553 N 0.69238 0.24395 0.72889 0.0
C554 C 0.67084 0.24365 0.74771 0.0
C555 C 0.67389 0.25705 0.72188 0.0
C556 C 0.68444 0.23942 0.74349 0.0
C557 C 0.6874 0.25258 0.71809 0.0
C558 C 0.64564 0.28835 0.7717 0.0
C559 C 0.62935 0.28689 0.79576 0.0
N560 N 0.64401 0.28899 0.80438 0.0
C561 C 0.66061 0.29062 0.78079 0.0
C562 C 0.62993 0.2866 0.77922 0.0
C563 C 0.65949 0.29086 0.7973 0.0
C564 C 0.69389 0.31826 0.73862 0.0
N565 N 0.6879 0.30071 0.74314 0.0
C566 C 0.7178 0.30934 0.75347 0.0
C567 C 0.69941 0.29601 0.75037 0.0
C568 C 0.72428 0.32768 0.74922 0.0
C569 C 0.71212 0.332 0.74149 0.0
H570 H 0.68435 0.32161 0.73305 0.0
H571 H 0.69421 0.28208 0.75424 0.0
C572 C 0.60549 0.23604 0.77343 0.0
N573 N 0.624 0.24546 0.7706 0.0
C574 C 0.59844 0.2246 0.7866 0.0
C575 C 0.62966 0.23275 0.79368 0.0
C576 C 0.63609 0.24408 0.78041 0.0
C577 C 0.61057 0.22273 0.7969 0.0
H578 H 0.59615 0.23726 0.7654 0.0
H579 H 0.65074 0.25172 0.77785 0.0
C580 C 0.65866 0.29392 0.70577 0.0
N581 N 0.67362 0.30895 0.6766 0.0
C582 C 0.64861 0.29807 0.69505 0.0
C583 C 0.6765 0.29777 0.70175 0.0
C584 C 0.65635 0.30555 0.68033 0.0
C585 C 0.68377 0.30527 0.68692 0.0
C586 C 0.59832 0.25288 0.73176 0.0
C587 C 0.58995 0.24529 0.7172 0.0
C588 C 0.58911 0.25787 0.74277 0.0
C589 C 0.57257 0.24302 0.71383 0.0
C590 C 0.57176 0.2554 0.73895 0.0
N591 N 0.56392 0.2481 0.72468 0.0
C592 C 0.6319 0.22775 0.70768 0.0
C593 C 0.62898 0.24865 0.691 0.0
C594 C 0.62763 0.21543 0.6951 0.0
N595 N 0.63266 0.24405 0.70539 0.0
C596 C 0.62452 0.2367 0.67812 0.0
C597 C 0.6238 0.21983 0.6801 0.0
H598 H 0.63443 0.22421 0.71933 0.0
H599 H 0.62909 0.26139 0.68958 0.0
C600 C 0.62706 0.31263 0.74275 0.0
N601 N 0.62147 0.29814 0.73271 0.0
C602 C 0.62133 0.32538 0.74038 0.0
C603 C 0.60384 0.30783 0.71757 0.0
C604 C 0.60999 0.29548 0.72034 0.0
C605 C 0.60974 0.32321 0.72752 0.0
H606 H 0.63642 0.31459 0.75235 0.0
H607 H 0.60591 0.284 0.71239 0.0
O608 O 0.65242 0.25699 0.74086 0.0
O609 O 0.6463 0.28764 0.75554 0.0
O610 O 0.65138 0.28684 0.72035 0.0
O611 O 0.61536 0.25526 0.73523 0.0
H612 H 0.66451 0.23999 0.75931 0.0
H613 H 0.66971 0.26359 0.7132 0.0
H614 H 0.68866 0.23253 0.75181 0.0
H615 H 0.69388 0.25591 0.70653 0.0
H616 H 0.61723 0.28545 0.80174 0.0
H617 H 0.67285 0.29196 0.77515 0.0
H618 H 0.61828 0.28494 0.77235 0.0
H619 H 0.67092 0.29249 0.80448 0.0
H620 H 0.72662 0.30547 0.75968 0.0
H621 H 0.71658 0.34592 0.73788 0.0
H622 H 0.58366 0.21736 0.78871 0.0
H623 H 0.63952 0.23158 0.80114 0.0
H624 H 0.63488 0.29536 0.69796 0.0
H625 H 0.68476 0.29518 0.71 0.0
H626 H 0.64863 0.30866 0.67188 0.0
H627 H 0.69752 0.30824 0.68366 0.0
H628 H 0.59678 0.24119 0.70859 0.0
H629 H 0.59539 0.26378 0.75408 0.0
H630 H 0.56596 0.23722 0.70259 0.0
H631 H 0.56454 0.25933 0.74733 0.0
H632 H 0.62692 0.20244 0.6972 0.0
H633 H 0.6217 0.24063 0.66674 0.0
H634 H 0.62649 0.33716 0.74821 0.0
H635 H 0.59474 0.30546 0.70762 0.0
Li636 Li 0.38335 0.63414 0.92849 0.0
Li637 Li 0.38859 0.66228 0.91599 0.0
Li638 Li 0.35908 0.63327 0.91204 0.0
Li639 Li 0.3877 0.63809 0.89945 0.0
C640 C 0.37363 0.65658 0.94632 0.0
N641 N 0.38262 0.67583 0.97461 0.0
C642 C 0.39178 0.66518 0.95201 0.0
C643 C 0.36006 0.65785 0.95499 0.0
C644 C 0.39606 0.67483 0.96634 0.0
C645 C 0.36487 0.66761 0.96928 0.0
C646 C 0.42405 0.66295 0.91683 0.0
C647 C 0.45295 0.68288 0.9036 0.0
N648 N 0.46216 0.685 0.91742 0.0
C649 C 0.43385 0.6651 0.93084 0.0
C650 C 0.43371 0.67171 0.90304 0.0
C651 C 0.45309 0.67639 0.93092 0.0
C652 C 0.39999 0.61659 0.94288 0.0
N653 N 0.38865 0.62341 0.94594 0.0
C654 C 0.38598 0.61446 0.97306 0.0
C655 C 0.3814 0.62225 0.9606 0.0
C656 C 0.39782 0.60739 0.97033 0.0
C657 C 0.4047 0.60841 0.95492 0.0
H658 H 0.40532 0.61748 0.93102 0.0
H659 H 0.37207 0.62738 0.96269 0.0
C660 C 0.38717 0.69437 0.91453 0.0
N661 N 0.3986 0.68803 0.91871 0.0
C662 C 0.39247 0.71272 0.91703 0.0
C663 C 0.42137 0.71782 0.92798 0.0
C664 C 0.41551 0.69934 0.92522 0.0
C665 C 0.40968 0.72469 0.92405 0.0
H666 H 0.37376 0.68503 0.90945 0.0
H667 H 0.42425 0.69396 0.92869 0.0
C668 C 0.35635 0.59969 0.91777 0.0
N669 N 0.33111 0.56635 0.9309 0.0
C670 C 0.35337 0.58335 0.91083 0.0
C671 C 0.34649 0.59908 0.93138 0.0
C672 C 0.34054 0.56663 0.91765 0.0
C673 C 0.3338 0.58209 0.93784 0.0
C674 C 0.37901 0.66173 0.88234 0.0
C675 C 0.36578 0.6569 0.8704 0.0
C676 C 0.39675 0.67682 0.88023 0.0
C677 C 0.37065 0.66704 0.85639 0.0
C678 C 0.40109 0.68663 0.86607 0.0
N679 N 0.38807 0.68157 0.85453 0.0
C680 C 0.32197 0.62232 0.92028 0.0
C681 C 0.32657 0.61462 0.89428 0.0
C682 C 0.30305 0.61472 0.91742 0.0
N683 N 0.33327 0.62229 0.9087 0.0
C684 C 0.30778 0.60694 0.89087 0.0
C685 C 0.29574 0.60706 0.90248 0.0
H686 H 0.32767 0.62829 0.9317 0.0
H687 H 0.33591 0.61469 0.88535 0.0
C688 C 0.41242 0.63002 0.88374 0.0
N689 N 0.39758 0.63225 0.88155 0.0
C690 C 0.41992 0.62534 0.87099 0.0
C691 C 0.39649 0.62497 0.85404 0.0
C692 C 0.38941 0.62961 0.86712 0.0
C693 C 0.41197 0.62279 0.85587 0.0
H694 H 0.41839 0.63183 0.89542 0.0
H695 H 0.37726 0.63086 0.86581 0.0
O696 O 0.36918 0.64723 0.93221 0.0
O697 O 0.4052 0.65184 0.91655 0.0
O698 O 0.36888 0.61615 0.91122 0.0
O699 O 0.37441 0.65191 0.89613 0.0
H700 H 0.40243 0.66442 0.94544 0.0
H701 H 0.34597 0.65142 0.95073 0.0
H702 H 0.41006 0.68153 0.97086 0.0
H703 H 0.35449 0.66868 0.97612 0.0
H704 H 0.46057 0.68977 0.89303 0.0
H705 H 0.42671 0.6581 0.94156 0.0
H706 H 0.4265 0.66971 0.89195 0.0
H707 H 0.46082 0.67826 0.94171 0.0
H708 H 0.38047 0.61423 0.98473 0.0
H709 H 0.4135 0.60282 0.95209 0.0
H710 H 0.38312 0.71745 0.91361 0.0
H711 H 0.43463 0.72648 0.93361 0.0
H712 H 0.3609 0.58361 0.90029 0.0
H713 H 0.34861 0.61157 0.93693 0.0
H714 H 0.33809 0.55386 0.9124 0.0
H715 H 0.32609 0.58142 0.94837 0.0
H716 H 0.35191 0.64538 0.87189 0.0
H717 H 0.407 0.68107 0.88948 0.0
H718 H 0.36058 0.66338 0.84702 0.0
H719 H 0.41479 0.69833 0.86428 0.0
H720 H 0.29426 0.61485 0.9268 0.0
H721 H 0.30284 0.60141 0.87913 0.0
H722 H 0.43192 0.6239 0.87293 0.0
H723 H 0.38969 0.62276 0.84267 0.0
Li724 Li 0.74368 0.39445 0.07713 0.0
Li725 Li 0.76626 0.38861 0.09014 0.0
Li726 Li 0.76689 0.392 0.06061 0.0
Li727 Li 0.74297 0.36435 0.07404 0.0
C728 C 0.7764 0.42853 0.07532 0.0
N729 N 0.78724 0.46506 0.07097 0.0
C730 C 0.78254 0.4407 0.08817 0.0
C731 C 0.77616 0.43508 0.06019 0.0
C732 C 0.78784 0.45907 0.08576 0.0
C733 C 0.7816 0.45355 0.05824 0.0
C734 C 0.73776 0.37376 0.1095 0.0
C735 C 0.74045 0.35982 0.13347 0.0
N736 N 0.73632 0.37092 0.14215 0.0
C737 C 0.73337 0.38489 0.11865 0.0
C738 C 0.74115 0.36099 0.11696 0.0
C739 C 0.73277 0.38329 0.13514 0.0
C740 C 0.71262 0.3982 0.07088 0.0
N741 N 0.72859 0.40537 0.07934 0.0
C742 C 0.72154 0.42635 0.09239 0.0
C743 C 0.73323 0.41922 0.08992 0.0
C744 C 0.70491 0.41925 0.08378 0.0
C745 C 0.70069 0.40513 0.07273 0.0
H746 H 0.70897 0.38688 0.06283 0.0
H747 H 0.74568 0.42429 0.09691 0.0
C748 C 0.7922 0.38652 0.11024 0.0
N749 N 0.78145 0.39423 0.1085 0.0
C750 C 0.8036 0.39064 0.12351 0.0
C751 C 0.79281 0.41074 0.13285 0.0
C752 C 0.78148 0.40607 0.11949 0.0
C753 C 0.80413 0.40302 0.13502 0.0
H754 H 0.79198 0.3772 0.10131 0.0
H755 H 0.77271 0.41192 0.11787 0.0
C756 C 0.73421 0.38121 0.0428 0.0
N757 N 0.72336 0.38501 0.0128 0.0
C758 C 0.72664 0.36637 0.03223 0.0
C759 C 0.73589 0.39786 0.03818 0.0
C760 C 0.72135 0.3686 0.0171 0.0
C761 C 0.73042 0.39955 0.02295 0.0
C762 C 0.77132 0.3589 0.06998 0.0
C763 C 0.77635 0.35645 0.05475 0.0
C764 C 0.76735 0.34561 0.08154 0.0
C765 C 0.77703 0.34059 0.05127 0.0
C766 C 0.76816 0.32993 0.07759 0.0
N767 N 0.77293 0.32776 0.06266 0.0
C768 C 0.80012 0.41595 0.04516 0.0
C769 C 0.77752 0.39351 0.02807 0.0
C770 C 0.81265 0.42347 0.03263 0.0
N771 N 0.78287 0.40137 0.04265 0.0
C772 C 0.78964 0.40051 0.01522 0.0
C773 C 0.80746 0.41573 0.01741 0.0
H774 H 0.80414 0.42173 0.05693 0.0
H775 H 0.76397 0.38162 0.02643 0.0
C776 C 0.71438 0.32924 0.0835 0.0
N777 N 0.72683 0.33848 0.07183 0.0
C778 C 0.70179 0.31048 0.08191 0.0
C779 C 0.71508 0.31106 0.05631 0.0
C780 C 0.72748 0.32978 0.05845 0.0
C781 C 0.70186 0.30115 0.06807 0.0
H782 H 0.71401 0.33648 0.09396 0.0
H783 H 0.73743 0.33744 0.04929 0.0
O784 O 0.77116 0.41046 0.0775 0.0
O785 O 0.73878 0.37538 0.09334 0.0
O786 O 0.73951 0.37925 0.05767 0.0
O787 O 0.77037 0.37424 0.07356 0.0
H788 H 0.78312 0.43603 0.09993 0.0
H789 H 0.77207 0.4261 0.05 0.0
H790 H 0.79246 0.46858 0.09564 0.0
H791 H 0.78141 0.45875 0.0466 0.0
H792 H 0.74318 0.35009 0.13939 0.0
H793 H 0.73052 0.39471 0.11312 0.0
H794 H 0.74441 0.35216 0.11007 0.0
H795 H 0.72949 0.3919 0.14237 0.0
H796 H 0.72525 0.43687 0.10133 0.0
H797 H 0.68822 0.39933 0.06563 0.0
H798 H 0.8118 0.38409 0.12476 0.0
H799 H 0.79288 0.42054 0.14122 0.0
H800 H 0.72494 0.35329 0.03562 0.0
H801 H 0.74101 0.40928 0.04634 0.0
H802 H 0.71561 0.35726 0.00878 0.0
H803 H 0.73168 0.41238 0.01924 0.0
H804 H 0.77962 0.36661 0.04568 0.0
H805 H 0.76359 0.34731 0.09341 0.0
H806 H 0.78081 0.33849 0.0395 0.0
H807 H 0.76499 0.31948 0.0864 0.0
H808 H 0.82635 0.43502 0.03489 0.0
H809 H 0.78505 0.39416 0.00368 0.0
H810 H 0.69205 0.3034 0.09139 0.0
H811 H 0.71551 0.30459 0.04533 0.0
Li812 Li 0.3891 0.76495 0.25029 0.0
Li813 Li 0.3597 0.74273 0.23822 0.0
Li814 Li 0.38879 0.74124 0.23342 0.0
Li815 Li 0.38456 0.76529 0.22104 0.0
C816 C 0.37786 0.73609 0.26908 0.0
N817 N 0.38427 0.73301 0.3007 0.0
C818 C 0.36495 0.73425 0.28054 0.0
C819 C 0.39389 0.73608 0.27367 0.0
C820 C 0.36848 0.73279 0.29647 0.0
C821 C 0.39692 0.73458 0.28972 0.0
C822 C 0.35775 0.77409 0.23672 0.0
C823 C 0.33473 0.77519 0.22037 0.0
N824 N 0.32994 0.78231 0.23276 0.0
C825 C 0.35272 0.78158 0.24925 0.0
C826 C 0.34878 0.77099 0.22213 0.0
C827 C 0.33859 0.78558 0.24703 0.0
C828 C 0.41819 0.79102 0.26988 0.0
N829 N 0.39953 0.78013 0.26848 0.0
C830 C 0.39481 0.7923 0.29253 0.0
C831 C 0.38783 0.78049 0.27949 0.0
C832 C 0.41402 0.80376 0.29425 0.0
C833 C 0.42578 0.80289 0.28281 0.0
H834 H 0.42717 0.79079 0.26079 0.0
H835 H 0.37305 0.77175 0.27805 0.0
C836 C 0.32342 0.71326 0.23267 0.0
N837 N 0.33377 0.72843 0.24172 0.0
C838 C 0.30456 0.7019 0.23578 0.0
C839 C 0.30743 0.72194 0.25752 0.0
C840 C 0.32618 0.73298 0.25391 0.0
C841 C 0.29642 0.70607 0.24849 0.0
H842 H 0.32989 0.7097 0.2233 0.0
H843 H 0.3348 0.74496 0.26108 0.0
C844 C 0.4237 0.77106 0.22943 0.0
N845 N 0.45843 0.77655 0.22246 0.0
C846 C 0.43153 0.77747 0.2145 0.0
C847 C 0.43362 0.76762 0.24086 0.0
C848 C 0.44909 0.78012 0.2112 0.0
C849 C 0.45113 0.77042 0.23709 0.0
C850 C 0.36465 0.73305 0.20268 0.0
C851 C 0.37525 0.72792 0.19349 0.0
C852 C 0.34908 0.73249 0.19604 0.0
C853 C 0.37033 0.72271 0.1777 0.0
C854 C 0.34461 0.7272 0.1802 0.0
N855 N 0.35526 0.72248 0.17143 0.0
C856 C 0.38785 0.70822 0.23886 0.0
C857 C 0.41122 0.7271 0.22057 0.0
C858 C 0.39221 0.69438 0.23699 0.0
N859 N 0.39731 0.72418 0.23069 0.0
C860 C 0.41616 0.7137 0.21845 0.0
C861 C 0.40647 0.697 0.2266 0.0
H862 H 0.37668 0.70611 0.24667 0.0
H863 H 0.41814 0.73957 0.21376 0.0
C864 C 0.39134 0.79771 0.2062 0.0
N865 N 0.39019 0.78129 0.20334 0.0
C866 C 0.39565 0.81031 0.19398 0.0
C867 C 0.39796 0.78911 0.1761 0.0
C868 C 0.39356 0.77689 0.18867 0.0
C869 C 0.39903 0.80609 0.17867 0.0
H870 H 0.38896 0.80105 0.21803 0.0
H871 H 0.39328 0.76413 0.18675 0.0
O872 O 0.3748 0.73783 0.25344 0.0
O873 O 0.3714 0.76984 0.23874 0.0
O874 O 0.40652 0.7684 0.23286 0.0
O875 O 0.36922 0.73808 0.2182 0.0
H876 H 0.35242 0.7341 0.27718 0.0
H877 H 0.40385 0.73716 0.26493 0.0
H878 H 0.35867 0.7315 0.30548 0.0
H879 H 0.40931 0.73464 0.29345 0.0
H880 H 0.32766 0.77282 0.20913 0.0
H881 H 0.35961 0.78423 0.26059 0.0
H882 H 0.35273 0.76554 0.21224 0.0
H883 H 0.33449 0.79129 0.25666 0.0
H884 H 0.38529 0.79246 0.30116 0.0
H885 H 0.44066 0.81169 0.28362 0.0
H886 H 0.29661 0.68963 0.22869 0.0
H887 H 0.30166 0.72567 0.26738 0.0
H888 H 0.42415 0.78035 0.20556 0.0
H889 H 0.42788 0.76283 0.25251 0.0
H890 H 0.45528 0.78502 0.19968 0.0
H891 H 0.45892 0.76773 0.24581 0.0
H892 H 0.38727 0.72817 0.19842 0.0
H893 H 0.3404 0.73591 0.20304 0.0
H894 H 0.37851 0.71885 0.17043 0.0
H895 H 0.33264 0.72677 0.17491 0.0
H896 H 0.38444 0.68172 0.24354 0.0
H897 H 0.42701 0.71612 0.2101 0.0
H898 H 0.39619 0.82317 0.1965 0.0
H899 H 0.4009 0.78544 0.16459 0.0
C900 C 0.14679 0.57783 0.28598 0.0
C901 C 0.13552 0.5813 0.29613 0.0
C902 C 0.1625 0.59229 0.27897 0.0
C903 C 0.19557 0.64172 0.28522 0.0
H904 H 0.21523 0.63687 0.245 0.0
C905 C 0.27202 0.6884 0.26876 0.0
C906 C 0.27683 0.69338 0.25286 0.0
C907 C 0.25378 0.67579 0.27293 0.0
C908 C 0.20984 0.63862 0.25615 0.0
H909 H 0.1316 0.60283 0.30619 0.0
H910 H 0.15838 0.62789 0.29337 0.0
H911 H 0.18451 0.61312 0.2533 0.0
H912 H 0.26624 0.68939 0.22889 0.0
H913 H 0.23421 0.66763 0.23619 0.0
H914 H 0.22068 0.66737 0.28793 0.0
C915 C 0.1554 0.61401 0.2912 0.0
C916 C 0.19229 0.62484 0.26102 0.0
C917 C 0.13982 0.59956 0.29837 0.0
C918 C 0.26294 0.68567 0.24123 0.0
C919 C 0.24462 0.67317 0.24542 0.0
C920 C 0.213 0.65556 0.28028 0.0
C921 C 0.16724 0.6106 0.28176 0.0
C922 C 0.18507 0.62604 0.27576 0.0
C923 C 0.23983 0.66796 0.26132 0.0
C924 C 0.22055 0.65402 0.26584 0.0
H925 H 0.14373 0.56393 0.28373 0.0
H926 H 0.1713 0.58908 0.27187 0.0
H927 H 0.19063 0.64309 0.29672 0.0
H928 H 0.28248 0.69386 0.27796 0.0
H929 H 0.25075 0.67184 0.28525 0.0
C930 C 0.59646 0.15834 0.4602 0.0
C931 C 0.57837 0.14322 0.46128 0.0
C932 C 0.59955 0.17539 0.45521 0.0
C933 C 0.57812 0.1989 0.4349 0.0
H934 H 0.61549 0.24112 0.45815 0.0
C935 C 0.59018 0.27272 0.42791 0.0
C936 C 0.60874 0.28696 0.42715 0.0
C937 C 0.58581 0.2548 0.43153 0.0
C938 C 0.60514 0.2295 0.45144 0.0
H939 H 0.54938 0.13414 0.45734 0.0
H940 H 0.55478 0.16411 0.44895 0.0
H941 H 0.60906 0.21055 0.46518 0.0
H942 H 0.63725 0.29355 0.42971 0.0
H943 H 0.62964 0.26236 0.43585 0.0
H944 H 0.57416 0.21804 0.42125 0.0
C945 C 0.56658 0.16266 0.45185 0.0
C946 C 0.60146 0.21196 0.45544 0.0
C947 C 0.56347 0.14552 0.45681 0.0
C948 C 0.62282 0.28287 0.43002 0.0
C949 C 0.61845 0.26503 0.43371 0.0
C950 C 0.58176 0.21651 0.43092 0.0
C951 C 0.58465 0.17787 0.45126 0.0
C952 C 0.58806 0.19645 0.44712 0.0
C953 C 0.59991 0.25081 0.43461 0.0
C954 C 0.59545 0.23201 0.43906 0.0
H955 H 0.60828 0.15722 0.46375 0.0
H956 H 0.61367 0.18671 0.45462 0.0
H957 H 0.5678 0.18727 0.42818 0.0
H958 H 0.57904 0.27542 0.42565 0.0
H959 H 0.57139 0.24415 0.43223 0.0
C960 C 0.45719 0.58802 0.61988 0.0
C961 C 0.45353 0.57852 0.63432 0.0
C962 C 0.44382 0.59102 0.61282 0.0
C963 C 0.40111 0.59202 0.62325 0.0
H964 H 0.3967 0.59475 0.57775 0.0
C965 C 0.34201 0.59808 0.59501 0.0
C966 C 0.34762 0.61278 0.58446 0.0
C967 C 0.35451 0.59275 0.59997 0.0
C968 C 0.39786 0.59406 0.59047 0.0
H969 H 0.4325 0.56436 0.65237 0.0
H970 H 0.40906 0.56854 0.63964 0.0
H971 H 0.41904 0.58701 0.58848 0.0
H972 H 0.37044 0.63292 0.57031 0.0
H973 H 0.3923 0.62338 0.57885 0.0
H974 H 0.37968 0.59872 0.62519 0.0
C975 C 0.42246 0.57423 0.63398 0.0
C976 C 0.4107 0.58972 0.59665 0.0
C977 C 0.43588 0.5715 0.64115 0.0
C978 C 0.3658 0.62161 0.57852 0.0
C979 C 0.37824 0.61609 0.58331 0.0
C980 C 0.38813 0.59606 0.61708 0.0
C981 C 0.42636 0.58441 0.61992 0.0
C982 C 0.41251 0.58867 0.61315 0.0
C983 C 0.3728 0.60185 0.59432 0.0
C984 C 0.38639 0.59716 0.60065 0.0
H985 H 0.47047 0.59338 0.61408 0.0
H986 H 0.44742 0.59901 0.60205 0.0
H987 H 0.4024 0.59187 0.636 0.0
H988 H 0.32814 0.59113 0.59988 0.0
H989 H 0.34995 0.58166 0.6084 0.0
C990 C 0.86837 0.4578 0.79815 0.0
C991 C 0.88453 0.45665 0.79703 0.0
C992 C 0.85161 0.44385 0.79209 0.0
C993 C 0.83068 0.40372 0.76501 0.0
H994 H 0.78712 0.3897 0.79078 0.0
C995 C 0.75849 0.3398 0.75208 0.0
C996 C 0.74322 0.3424 0.75364 0.0
C997 C 0.77617 0.35357 0.75677 0.0
C998 C 0.79912 0.39356 0.78337 0.0
H999 H 0.89578 0.44012 0.78814 0.0
H1000 H 0.86635 0.4155 0.77785 0.0
H1001 H 0.81716 0.41406 0.79987 0.0
H1002 H 0.73454 0.36144 0.76145 0.0
H1003 H 0.76531 0.38545 0.76944 0.0
H1004 H 0.81246 0.38301 0.74857 0.0
C1005 C 0.86673 0.42733 0.78331 0.0
C1006 C 0.81635 0.40756 0.78856 0.0
C1007 C 0.88356 0.44135 0.78935 0.0
C1008 C 0.74603 0.35908 0.7599 0.0
C1009 C 0.76363 0.37276 0.76466 0.0
C1010 C 0.81339 0.38963 0.75984 0.0
C1011 C 0.8505 0.42829 0.78484 0.0
C1012 C 0.83232 0.41297 0.77937 0.0
C1013 C 0.77888 0.37013 0.76326 0.0
C1014 C 0.7974 0.38455 0.76889 0.0
H1015 H 0.86848 0.46922 0.80417 0.0
H1016 H 0.83945 0.4452 0.79323 0.0
H1017 H 0.84268 0.40765 0.7576 0.0
H1018 H 0.75677 0.32714 0.74719 0.0
H1019 H 0.78764 0.35112 0.75563 0.0
C1020 C 0.43104 0.87343 0.9642 0.0
C1021 C 0.44904 0.88874 0.9637 0.0
C1022 C 0.4276 0.85622 0.95916 0.0
C1023 C 0.44605 0.83223 0.93541 0.0
H1024 H 0.41398 0.79121 0.96238 0.0
C1025 C 0.43326 0.75843 0.92577 0.0
C1026 C 0.41498 0.74395 0.92788 0.0
C1027 C 0.43817 0.77645 0.92975 0.0
C1028 C 0.4228 0.80247 0.95462 0.0
H1029 H 0.47746 0.89804 0.957 0.0
H1030 H 0.47143 0.8678 0.94826 0.0
H1031 H 0.42112 0.82202 0.96967 0.0
H1032 H 0.38759 0.73711 0.93594 0.0
H1033 H 0.39602 0.76844 0.94251 0.0
H1034 H 0.4476 0.81254 0.92031 0.0
C1035 C 0.45999 0.86922 0.95252 0.0
C1036 C 0.4269 0.82014 0.9588 0.0
C1037 C 0.46346 0.88649 0.95764 0.0
C1038 C 0.40173 0.74793 0.93397 0.0
C1039 C 0.40663 0.76589 0.93794 0.0
C1040 C 0.4419 0.81448 0.93119 0.0
C1041 C 0.44206 0.85384 0.9535 0.0
C1042 C 0.43839 0.8352 0.94917 0.0
C1043 C 0.42492 0.78037 0.93599 0.0
C1044 C 0.43005 0.79937 0.94067 0.0
H1045 H 0.41964 0.87457 0.96901 0.0
H1046 H 0.41359 0.84471 0.95984 0.0
H1047 H 0.45486 0.84355 0.92771 0.0
H1048 H 0.44376 0.75585 0.92098 0.0
H1049 H 0.4524 0.78727 0.9282 0.0
C1050 C 0.6007 0.47106 0.13333 0.0
C1051 C 0.58205 0.45814 0.13008 0.0
C1052 C 0.61498 0.46955 0.12619 0.0
C1053 C 0.62474 0.44425 0.09449 0.0
H1054 H 0.66649 0.45508 0.12154 0.0
C1055 C 0.67245 0.41376 0.08592 0.0
C1056 C 0.6917 0.42591 0.08685 0.0
C1057 C 0.66001 0.41974 0.08941 0.0
C1058 C 0.65502 0.45222 0.11379 0.0
H1059 H 0.56399 0.4341 0.11595 0.0
H1060 H 0.58869 0.43085 0.1043 0.0
H1061 H 0.64302 0.46187 0.13086 0.0
H1062 H 0.71278 0.45417 0.09178 0.0
H1063 H 0.69095 0.46433 0.09853 0.0
H1064 H 0.63643 0.43362 0.07782 0.0
C1065 C 0.5924 0.44241 0.11211 0.0
C1066 C 0.64158 0.45619 0.11907 0.0
C1067 C 0.57814 0.44409 0.11904 0.0
C1068 C 0.69811 0.44429 0.09123 0.0
C1069 C 0.68563 0.45018 0.09499 0.0
C1070 C 0.63804 0.43998 0.08934 0.0
C1071 C 0.61103 0.45493 0.1158 0.0
C1072 C 0.62611 0.45207 0.10958 0.0
C1073 C 0.66648 0.43793 0.09417 0.0
C1074 C 0.65319 0.44376 0.09901 0.0
H1075 H 0.60434 0.482 0.14184 0.0
H1076 H 0.62913 0.47971 0.12909 0.0
H1077 H 0.6133 0.44124 0.08668 0.0
H1078 H 0.66688 0.39942 0.08296 0.0
H1079 H 0.6453 0.40996 0.0889 0.0
C1080 C 0.45958 0.88526 0.52949 0.0
C1081 C 0.45482 0.8934 0.5173 0.0
C1082 C 0.44601 0.86929 0.53685 0.0
C1083 C 0.39506 0.83897 0.54166 0.0
H1084 H 0.40801 0.80129 0.54768 0.0
C1085 C 0.3408 0.76211 0.54996 0.0
C1086 C 0.34482 0.75215 0.56096 0.0
C1087 C 0.35398 0.78027 0.54636 0.0
C1088 C 0.40423 0.81174 0.54629 0.0
H1089 H 0.43202 0.89145 0.50358 0.0
H1090 H 0.40837 0.86353 0.51629 0.0
H1091 H 0.43146 0.83157 0.53867 0.0
H1092 H 0.3658 0.75351 0.57688 0.0
H1093 H 0.3887 0.78522 0.57072 0.0
H1094 H 0.36764 0.81884 0.54891 0.0
C1095 C 0.42253 0.86962 0.52038 0.0
C1096 C 0.4177 0.82914 0.54116 0.0
C1097 C 0.4361 0.88564 0.51307 0.0
C1098 C 0.36219 0.76085 0.56847 0.0
C1099 C 0.37539 0.77896 0.56482 0.0
C1100 C 0.38155 0.8215 0.54674 0.0
C1101 C 0.42738 0.86103 0.53213 0.0
C1102 C 0.41326 0.84294 0.53865 0.0
C1103 C 0.3715 0.78882 0.55361 0.0
C1104 C 0.38596 0.80766 0.54899 0.0
H1105 H 0.47387 0.89108 0.53315 0.0
H1106 H 0.45017 0.86326 0.54609 0.0
H1107 H 0.39122 0.84934 0.54005 0.0
H1108 H 0.32748 0.75584 0.54409 0.0
H1109 H 0.35062 0.78745 0.53758 0.0
C1110 C 0.60032 0.45907 0.69338 0.0
C1111 C 0.58246 0.45653 0.69168 0.0
C1112 C 0.6028 0.44481 0.69867 0.0
C1113 C 0.57935 0.39927 0.71823 0.0
H1114 H 0.61627 0.39322 0.69548 0.0
C1115 C 0.60099 0.34643 0.73627 0.0
C1116 C 0.60474 0.33743 0.72399 0.0
C1117 C 0.59747 0.36061 0.73291 0.0
C1118 C 0.60578 0.39459 0.70187 0.0
H1119 H 0.5532 0.43715 0.695 0.0
H1120 H 0.55751 0.41208 0.70386 0.0
H1121 H 0.61173 0.41869 0.68901 0.0
H1122 H 0.6075 0.33623 0.69849 0.0
H1123 H 0.60084 0.36048 0.69264 0.0
H1124 H 0.5731 0.3748 0.73079 0.0
C1125 C 0.56963 0.4252 0.70122 0.0
C1126 C 0.60337 0.40938 0.69832 0.0
C1127 C 0.56715 0.43952 0.69597 0.0
C1128 C 0.60446 0.34268 0.70825 0.0
C1129 C 0.6009 0.35679 0.7049 0.0
C1130 C 0.58175 0.38442 0.72177 0.0
C1131 C 0.58748 0.42757 0.70232 0.0
C1132 C 0.59014 0.41193 0.70645 0.0
C1133 C 0.59762 0.36611 0.71719 0.0
C1134 C 0.59496 0.38187 0.71358 0.0
H1135 H 0.61245 0.47187 0.69003 0.0
H1136 H 0.61676 0.44722 0.69965 0.0
H1137 H 0.56912 0.4009 0.72479 0.0
H1138 H 0.60088 0.3426 0.74852 0.0
H1139 H 0.5951 0.36756 0.74267 0.0
C1140 C 0.14246 0.55738 0.84655 0.0
C1141 C 0.13549 0.56868 0.85151 0.0
C1142 C 0.15809 0.55869 0.85376 0.0
C1143 C 0.1894 0.57812 0.88868 0.0
H1144 H 0.22558 0.57822 0.85979 0.0
C1145 C 0.2668 0.60904 0.90423 0.0
C1146 C 0.27586 0.59982 0.89879 0.0
C1147 C 0.2485 0.60299 0.89987 0.0
C1148 C 0.21553 0.57795 0.86806 0.0
H1149 H 0.13899 0.5895 0.86858 0.0
H1150 H 0.1666 0.59224 0.88079 0.0
H1151 H 0.1956 0.57154 0.84973 0.0
H1152 H 0.27241 0.57648 0.88507 0.0
H1153 H 0.24055 0.56608 0.87731 0.0
H1154 H 0.20972 0.58515 0.90691 0.0
C1155 C 0.15986 0.58219 0.87144 0.0
C1156 C 0.19829 0.57408 0.86231 0.0
C1157 C 0.14414 0.5808 0.86429 0.0
C1158 C 0.26599 0.58411 0.88923 0.0
C1159 C 0.24772 0.57812 0.88481 0.0
C1160 C 0.20672 0.58211 0.89442 0.0
C1161 C 0.16725 0.57142 0.86604 0.0
C1162 C 0.18506 0.57428 0.8725 0.0
C1163 C 0.23886 0.58764 0.8899 0.0
C1164 C 0.22002 0.58223 0.88414 0.0
H1165 H 0.13628 0.548 0.83666 0.0
H1166 H 0.16322 0.54995 0.84949 0.0
H1167 H 0.17945 0.57813 0.89691 0.0
H1168 H 0.27404 0.62133 0.91143 0.0
H1169 H 0.24213 0.61076 0.90382 0.0
C1170 C 0.59497 0.1468 0.01976 0.0
C1171 C 0.57611 0.1399 0.02307 0.0
C1172 C 0.60857 0.16282 0.02716 0.0
C1173 C 0.61431 0.20511 0.04464 0.0
H1174 H 0.66201 0.21304 0.05836 0.0
C1175 C 0.66935 0.27458 0.07059 0.0
C1176 C 0.68773 0.28147 0.06557 0.0
C1177 C 0.65579 0.25642 0.0674 0.0
C1178 C 0.64881 0.21109 0.05446 0.0
H1179 H 0.55687 0.14375 0.03755 0.0
H1180 H 0.5806 0.17177 0.05037 0.0
H1181 H 0.63818 0.18256 0.04943 0.0
H1182 H 0.70632 0.27431 0.05376 0.0
H1183 H 0.68255 0.24286 0.0477 0.0
H1184 H 0.62497 0.23363 0.04913 0.0
C1185 C 0.58482 0.16494 0.04186 0.0
C1186 C 0.63516 0.19362 0.0494 0.0
C1187 C 0.57124 0.1489 0.03451 0.0
C1188 C 0.69226 0.26957 0.0576 0.0
C1189 C 0.67866 0.25143 0.05432 0.0
C1190 C 0.62796 0.22257 0.04959 0.0
C1191 C 0.6036 0.17231 0.03799 0.0
C1192 C 0.61779 0.19047 0.04434 0.0
C1193 C 0.6602 0.24469 0.05899 0.0
C1194 C 0.64544 0.22583 0.05448 0.0
H1195 H 0.59921 0.14036 0.01087 0.0
H1196 H 0.6229 0.16824 0.02382 0.0
H1197 H 0.6012 0.20323 0.04054 0.0
H1198 H 0.66526 0.28334 0.0766 0.0
H1199 H 0.64178 0.25164 0.0714 0.0
C1200 C 0.42204 0.56554 0.1872 0.0
C1201 C 0.44011 0.56836 0.18738 0.0
C1202 C 0.41845 0.579 0.1929 0.0
C1203 C 0.43846 0.62235 0.21643 0.0
H1204 H 0.40299 0.62925 0.1924 0.0
C1205 C 0.42893 0.68575 0.22297 0.0
C1206 C 0.41057 0.68205 0.22366 0.0
C1207 C 0.43269 0.67169 0.21961 0.0
C1208 C 0.4128 0.62738 0.19932 0.0
H1209 H 0.46845 0.58743 0.19439 0.0
H1210 H 0.46232 0.61121 0.20372 0.0
H1211 H 0.4093 0.60514 0.18471 0.0
H1212 H 0.38177 0.66077 0.22138 0.0
H1213 H 0.38834 0.63628 0.21545 0.0
H1214 H 0.44223 0.64508 0.23075 0.0
C1215 C 0.45084 0.59843 0.19938 0.0
C1216 C 0.41638 0.61349 0.19497 0.0
C1217 C 0.45441 0.58485 0.19383 0.0
C1218 C 0.39605 0.664 0.22106 0.0
C1219 C 0.39981 0.65002 0.21754 0.0
C1220 C 0.435 0.63641 0.22068 0.0
C1221 C 0.43286 0.59579 0.19874 0.0
C1222 C 0.42916 0.61069 0.20352 0.0
C1223 C 0.41816 0.65373 0.21668 0.0
C1224 C 0.42205 0.63898 0.21221 0.0
H1225 H 0.41066 0.55318 0.18215 0.0
H1226 H 0.40435 0.57629 0.19252 0.0
H1227 H 0.44823 0.62048 0.2234 0.0
H1228 H 0.44038 0.69951 0.22502 0.0
H1229 H 0.44696 0.67496 0.21892 0.0
C1230 C 0.87021 0.43583 0.35951 0.0
C1231 C 0.88718 0.45244 0.36081 0.0
C1232 C 0.85432 0.43367 0.36696 0.0
C1233 C 0.83238 0.45922 0.3786 0.0
H1234 H 0.79905 0.41572 0.40254 0.0
C1235 C 0.75426 0.43216 0.38633 0.0
C1236 C 0.7468 0.42711 0.40169 0.0
C1237 C 0.77259 0.43705 0.38328 0.0
C1238 C 0.80832 0.42802 0.39602 0.0
H1239 H 0.90064 0.47959 0.37158 0.0
H1240 H 0.87257 0.47597 0.38401 0.0
H1241 H 0.82923 0.42052 0.39413 0.0
H1242 H 0.75324 0.42382 0.42596 0.0
H1243 H 0.78503 0.4316 0.42037 0.0
H1244 H 0.81112 0.4663 0.37987 0.0
C1245 C 0.87179 0.46465 0.37724 0.0
C1246 C 0.8255 0.43071 0.39116 0.0
C1247 C 0.88781 0.46672 0.37002 0.0
C1248 C 0.7583 0.42726 0.41392 0.0
C1249 C 0.77656 0.43183 0.41078 0.0
C1250 C 0.81506 0.45636 0.38321 0.0
C1251 C 0.85489 0.44814 0.37567 0.0
C1252 C 0.83758 0.44622 0.38224 0.0
C1253 C 0.78383 0.43672 0.39543 0.0
C1254 C 0.8028 0.44063 0.3918 0.0
H1255 H 0.86894 0.42464 0.35225 0.0
H1256 H 0.84139 0.42088 0.36538 0.0
H1257 H 0.8414 0.47121 0.37162 0.0
H1258 H 0.74583 0.43185 0.3765 0.0
H1259 H 0.77781 0.44052 0.37128 0.0
C1260 C 0.12656 0.54352 0.40336 0.0
C1261 C 0.11579 0.55112 0.39847 0.0
C1262 C 0.13814 0.55049 0.41656 0.0
C1263 C 0.14877 0.58106 0.4519 0.0
H1264 H 0.19539 0.58161 0.45018 0.0
C1265 C 0.20962 0.62144 0.49589 0.0
C1266 C 0.21646 0.61102 0.50297 0.0
C1267 C 0.19703 0.61418 0.48333 0.0
C1268 C 0.18238 0.58145 0.45083 0.0
H1269 H 0.10848 0.5718 0.40418 0.0
H1270 H 0.12942 0.58459 0.4266 0.0
H1271 H 0.17394 0.56899 0.42801 0.0
H1272 H 0.21583 0.58504 0.50239 0.0
H1273 H 0.19414 0.5725 0.48014 0.0
H1274 H 0.15777 0.59421 0.47458 0.0
C1275 C 0.1286 0.57293 0.42043 0.0
C1276 C 0.16998 0.5741 0.43818 0.0
C1277 C 0.11675 0.56574 0.40737 0.0
C1278 C 0.21068 0.59331 0.49716 0.0
C1279 C 0.19838 0.58619 0.48442 0.0
C1280 C 0.16136 0.58872 0.46443 0.0
C1281 C 0.13962 0.56552 0.42511 0.0
C1282 C 0.15291 0.57363 0.43858 0.0
C1283 C 0.19135 0.59651 0.47746 0.0
C1284 C 0.1782 0.58885 0.46405 0.0
H1285 H 0.12651 0.53247 0.39676 0.0
H1286 H 0.14604 0.5441 0.41995 0.0
H1287 H 0.1357 0.58073 0.45279 0.0
H1288 H 0.2138 0.63509 0.50024 0.0
H1289 H 0.19187 0.62243 0.47809 0.0
C1290 C 0.59883 0.11564 0.56874 0.0
C1291 C 0.58432 0.1127 0.55853 0.0
C1292 C 0.60221 0.126 0.58262 0.0
C1293 C 0.59536 0.16235 0.59936 0.0
H1294 H 0.60803 0.14903 0.63933 0.0
C1295 C 0.60411 0.20351 0.65648 0.0
C1296 C 0.61873 0.20675 0.66665 0.0
C1297 C 0.59936 0.1913 0.64376 0.0
C1298 C 0.60471 0.15304 0.62821 0.0
H1299 H 0.56181 0.11809 0.55502 0.0
H1300 H 0.56755 0.1359 0.5793 0.0
H1301 H 0.60053 0.12867 0.61641 0.0
H1302 H 0.63989 0.19978 0.67144 0.0
H1303 H 0.63177 0.17862 0.64909 0.0
H1304 H 0.59978 0.1868 0.61097 0.0
C1305 C 0.5764 0.13033 0.57652 0.0
C1306 C 0.60038 0.14136 0.6151 0.0
C1307 C 0.57298 0.11993 0.5627 0.0
C1308 C 0.62843 0.19742 0.66389 0.0
C1309 C 0.62374 0.18526 0.65111 0.0
C1310 C 0.59975 0.17405 0.61241 0.0
C1311 C 0.59121 0.13371 0.58651 0.0
C1312 C 0.59562 0.14589 0.60055 0.0
C1313 C 0.60919 0.1821 0.64085 0.0
C1314 C 0.60446 0.16954 0.62701 0.0
H1315 H 0.60771 0.11012 0.56591 0.0
H1316 H 0.61378 0.12844 0.59004 0.0
H1317 H 0.59208 0.1664 0.58822 0.0
H1318 H 0.59616 0.21024 0.65847 0.0
H1319 H 0.58786 0.18893 0.63628 0.0
C1320 C 0.48007 0.57714 0.74754 0.0
C1321 C 0.48215 0.58716 0.73367 0.0
C1322 C 0.47197 0.5798 0.76108 0.0
C1323 C 0.4413 0.59722 0.77367 0.0
H1324 H 0.46376 0.60268 0.81496 0.0
C1325 C 0.42126 0.62592 0.82726 0.0
C1326 C 0.41969 0.61781 0.84211 0.0
C1327 C 0.42843 0.6212 0.81428 0.0
C1328 C 0.45717 0.60094 0.80355 0.0
H1329 H 0.47699 0.60751 0.72303 0.0
H1330 H 0.46318 0.61232 0.74661 0.0
H1331 H 0.47693 0.59585 0.79184 0.0
H1332 H 0.42423 0.59821 0.85493 0.0
H1333 H 0.43672 0.58994 0.83223 0.0
H1334 H 0.42161 0.60238 0.78527 0.0
C1335 C 0.4677 0.60235 0.74705 0.0
C1336 C 0.46472 0.59703 0.79031 0.0
C1337 C 0.47584 0.59976 0.73359 0.0
C1338 C 0.4255 0.60489 0.84369 0.0
C1339 C 0.43265 0.60015 0.83069 0.0
C1340 C 0.43375 0.60109 0.78687 0.0
C1341 C 0.46564 0.5924 0.76094 0.0
C1342 C 0.457 0.59537 0.77519 0.0
C1343 C 0.43416 0.60822 0.81582 0.0
C1344 C 0.44173 0.60323 0.80194 0.0
H1345 H 0.48486 0.56739 0.74797 0.0
H1346 H 0.47046 0.57185 0.77158 0.0
H1347 H 0.43482 0.59568 0.76222 0.0
H1348 H 0.4172 0.63614 0.82571 0.0
H1349 H 0.42973 0.62795 0.80307 0.0
C1350 C 0.9126 0.49562 0.90711 0.0
C1351 C 0.91422 0.48439 0.89562 0.0
C1352 C 0.90239 0.48801 0.92094 0.0
C1353 C 0.86417 0.44469 0.93613 0.0
H1354 H 0.88018 0.46833 0.97719 0.0
C1355 C 0.8223 0.41171 0.99301 0.0
C1356 C 0.82059 0.4234 0.00393 0.0
C1357 C 0.83455 0.41893 0.98025 0.0
C1358 C 0.87542 0.46166 0.96578 0.0
H1359 H 0.90662 0.45639 0.88976 0.0
H1360 H 0.88897 0.44315 0.91399 0.0
H1361 H 0.90042 0.48139 0.95423 0.0
H1362 H 0.8303 0.45184 0.00995 0.0
H1363 H 0.85153 0.46445 0.98759 0.0
H1364 H 0.83906 0.42515 0.94754 0.0
C1365 C 0.89549 0.45783 0.91224 0.0
C1366 C 0.88705 0.46912 0.95264 0.0
C1367 C 0.90578 0.46544 0.89845 0.0
C1368 C 0.83148 0.44248 0.00185 0.0
C1369 C 0.84368 0.4497 0.98905 0.0
C1370 C 0.85253 0.43727 0.94924 0.0
C1371 C 0.89348 0.46899 0.92354 0.0
C1372 C 0.88151 0.46075 0.93766 0.0
C1373 C 0.84533 0.43802 0.97806 0.0
C1374 C 0.85797 0.44569 0.96422 0.0
H1375 H 0.91909 0.51029 0.90534 0.0
H1376 H 0.901 0.49697 0.92937 0.0
H1377 H 0.85936 0.43809 0.9247 0.0
H1378 H 0.81432 0.39696 0.99443 0.0
H1379 H 0.8357 0.40954 0.97217 0.0
C1380 C 0.45391 0.90936 0.06444 0.0
C1381 C 0.44348 0.91769 0.06077 0.0
C1382 C 0.44979 0.89835 0.07785 0.0
C1383 C 0.42532 0.88696 0.11626 0.0
H1384 H 0.42381 0.8406 0.11041 0.0
C1385 C 0.41583 0.8383 0.16813 0.0
C1386 C 0.40395 0.8194 0.16551 0.0
C1387 C 0.4207 0.85076 0.15569 0.0
C1388 C 0.42406 0.85344 0.11221 0.0
H1389 H 0.42099 0.92158 0.06866 0.0
H1390 H 0.41366 0.90216 0.09203 0.0
H1391 H 0.43254 0.86187 0.08833 0.0
H1392 H 0.3875 0.79888 0.1478 0.0
H1393 H 0.39611 0.82062 0.12608 0.0
H1394 H 0.41654 0.87834 0.14012 0.0
C1395 C 0.42509 0.90422 0.08455 0.0
C1396 C 0.42928 0.86573 0.09962 0.0
C1397 C 0.42918 0.91521 0.07109 0.0
C1398 C 0.39694 0.81329 0.15017 0.0
C1399 C 0.40185 0.82575 0.13773 0.0
C1400 C 0.42017 0.87469 0.12891 0.0
C1401 C 0.43516 0.89542 0.08792 0.0
C1402 C 0.42995 0.88261 0.10149 0.0
C1403 C 0.41385 0.84461 0.14033 0.0
C1404 C 0.41942 0.85776 0.12699 0.0
H1405 H 0.46489 0.91082 0.05666 0.0
H1406 H 0.45796 0.89194 0.08024 0.0
H1407 H 0.42581 0.89992 0.11809 0.0
H1408 H 0.4217 0.84344 0.17974 0.0
H1409 H 0.43016 0.86519 0.15802 0.0
C1410 C 0.5536 0.45922 0.24382 0.0
C1411 C 0.54726 0.44673 0.23108 0.0
C1412 C 0.56024 0.45536 0.25762 0.0
C1413 C 0.58154 0.42939 0.27152 0.0
H1414 H 0.56375 0.43273 0.31316 0.0
C1415 C 0.59892 0.40113 0.32653 0.0
C1416 C 0.60221 0.41074 0.34089 0.0
C1417 C 0.59213 0.40592 0.31341 0.0
C1418 C 0.5691 0.432 0.30166 0.0
H1419 H 0.54311 0.42059 0.22267 0.0
H1420 H 0.55482 0.41396 0.24667 0.0
H1421 H 0.55239 0.44091 0.28975 0.0
H1422 H 0.60112 0.43297 0.35282 0.0
H1423 H 0.58973 0.44171 0.32981 0.0
H1424 H 0.59851 0.42086 0.28324 0.0
C1425 C 0.55456 0.42665 0.24603 0.0
C1426 C 0.56253 0.43664 0.28826 0.0
C1427 C 0.54771 0.43037 0.23238 0.0
C1428 C 0.59851 0.4252 0.34192 0.0
C1429 C 0.59193 0.43016 0.32874 0.0
C1430 C 0.58827 0.42498 0.28488 0.0
C1431 C 0.56095 0.43911 0.25877 0.0
C1432 C 0.56853 0.43515 0.27307 0.0
C1433 C 0.58872 0.42062 0.31428 0.0
C1434 C 0.58198 0.42599 0.30013 0.0
H1435 H 0.55336 0.47191 0.24312 0.0
H1436 H 0.56516 0.46522 0.26726 0.0
H1437 H 0.5866 0.42839 0.25994 0.0
H1438 H 0.60142 0.38976 0.32548 0.0
H1439 H 0.58943 0.39796 0.30262 0.0
C1440 C 0.49005 0.91863 0.40055 0.0
C1441 C 0.4799 0.91347 0.41474 0.0
C1442 C 0.48297 0.9078 0.38691 0.0
C1443 C 0.43927 0.87005 0.36958 0.0
H1444 H 0.47281 0.86351 0.34222 0.0
C1445 C 0.41409 0.82787 0.31172 0.0
C1446 C 0.42172 0.81691 0.30765 0.0
C1447 C 0.42146 0.84044 0.32423 0.0
C1448 C 0.46321 0.86504 0.34981 0.0
H1449 H 0.45455 0.89283 0.42587 0.0
H1450 H 0.44237 0.87377 0.4023 0.0
H1451 H 0.48497 0.88377 0.36513 0.0
H1452 H 0.44288 0.81032 0.31357 0.0
H1453 H 0.45546 0.83189 0.3357 0.0
H1454 H 0.41742 0.85069 0.35472 0.0
C1455 C 0.45554 0.88641 0.40147 0.0
C1456 C 0.47023 0.87691 0.36283 0.0
C1457 C 0.46254 0.89732 0.41502 0.0
C1458 C 0.43685 0.81874 0.31636 0.0
C1459 C 0.4441 0.83117 0.32899 0.0
C1460 C 0.43223 0.85806 0.35665 0.0
C1461 C 0.46567 0.89147 0.38723 0.0
C1462 C 0.45833 0.87948 0.37295 0.0
C1463 C 0.43651 0.84221 0.33308 0.0
C1464 C 0.4441 0.85532 0.34663 0.0
H1465 H 0.50343 0.93109 0.39998 0.0
H1466 H 0.49103 0.91227 0.3761 0.0
H1467 H 0.4297 0.87188 0.37695 0.0
H1468 H 0.4026 0.82694 0.30505 0.0
H1469 H 0.41547 0.84893 0.32682 0.0
C1470 C 0.5757 0.47488 0.58774 0.0
C1471 C 0.58786 0.49302 0.59267 0.0
C1472 C 0.57881 0.4682 0.57357 0.0
C1473 C 0.61668 0.47625 0.54664 0.0
H1474 H 0.57709 0.44323 0.5185 0.0
C1475 C 0.63133 0.45021 0.4882 0.0
C1476 C 0.6195 0.43165 0.48424 0.0
C1477 C 0.62703 0.45827 0.50075 0.0
C1478 C 0.58828 0.4523 0.52633 0.0
H1479 H 0.61226 0.51867 0.58615 0.0
H1480 H 0.61769 0.50701 0.56142 0.0
H1481 H 0.57008 0.45654 0.54136 0.0
H1482 H 0.59368 0.40711 0.49028 0.0
H1483 H 0.58647 0.42103 0.51247 0.0
H1484 H 0.63485 0.47182 0.53184 0.0
C1485 C 0.60594 0.49785 0.56867 0.0
C1486 C 0.58426 0.45995 0.53939 0.0
C1487 C 0.60282 0.50453 0.58282 0.0
C1488 C 0.60323 0.42137 0.49313 0.0
C1489 C 0.59895 0.42943 0.50571 0.0
C1490 C 0.62069 0.46857 0.53362 0.0
C1491 C 0.59416 0.47952 0.56402 0.0
C1492 C 0.59841 0.47196 0.54973 0.0
C1493 C 0.61083 0.44797 0.50971 0.0
C1494 C 0.60654 0.45644 0.52334 0.0
H1495 H 0.56419 0.46558 0.59514 0.0
H1496 H 0.56959 0.45396 0.57041 0.0
H1497 H 0.62785 0.48519 0.55453 0.0
H1498 H 0.64406 0.4585 0.48172 0.0
H1499 H 0.63638 0.47264 0.50339 0.0
C1500 C 0.11143 0.57321 0.73807 0.0
C1501 C 0.11732 0.58498 0.75131 0.0
C1502 C 0.1229 0.57734 0.72478 0.0
C1503 C 0.17164 0.60205 0.71338 0.0
H1504 H 0.15401 0.60162 0.67085 0.0
C1505 C 0.22193 0.631 0.6607 0.0
C1506 C 0.21606 0.62233 0.64589 0.0
C1507 C 0.20948 0.62598 0.67331 0.0
C1508 C 0.15911 0.60152 0.68261 0.0
H1509 H 0.13984 0.61017 0.7611 0.0
H1510 H 0.15987 0.61729 0.73799 0.0
H1511 H 0.13275 0.59333 0.69325 0.0
H1512 H 0.19268 0.60144 0.63268 0.0
H1513 H 0.171 0.59224 0.65481 0.0
H1514 H 0.19784 0.60983 0.7029 0.0
C1515 C 0.14638 0.60494 0.73784 0.0
C1516 C 0.14692 0.59683 0.69542 0.0
C1517 C 0.13485 0.60096 0.75099 0.0
C1518 C 0.19751 0.60848 0.64395 0.0
C1519 C 0.18509 0.60328 0.65662 0.0
C1520 C 0.18376 0.6065 0.70058 0.0
C1521 C 0.14057 0.59314 0.72465 0.0
C1522 C 0.15315 0.59727 0.71094 0.0
C1523 C 0.19091 0.61197 0.67148 0.0
C1524 C 0.17773 0.60652 0.68503 0.0
H1525 H 0.09797 0.56083 0.73801 0.0
H1526 H 0.11813 0.56799 0.71477 0.0
H1527 H 0.17672 0.60222 0.72521 0.0
H1528 H 0.23611 0.6419 0.66246 0.0
H1529 H 0.21441 0.63328 0.68445 0.0
C1530 C 0.56722 0.13355 0.9194 0.0
C1531 C 0.54957 0.11774 0.91978 0.0
C1532 C 0.57376 0.14394 0.9056 0.0
C1533 C 0.55749 0.15328 0.86801 0.0
H1534 H 0.60945 0.17669 0.85672 0.0
C1535 C 0.58682 0.19319 0.80955 0.0
C1536 C 0.60335 0.21019 0.81074 0.0
C1537 C 0.58013 0.18133 0.82249 0.0
C1538 C 0.59493 0.17034 0.8598 0.0
H1539 H 0.52512 0.10015 0.90588 0.0
H1540 H 0.53665 0.11815 0.88163 0.0
H1541 H 0.59805 0.15652 0.87966 0.0
H1542 H 0.62564 0.22812 0.82663 0.0
H1543 H 0.61407 0.20728 0.84913 0.0
H1544 H 0.55441 0.16708 0.84805 0.0
C1545 C 0.5453 0.12273 0.89211 0.0
C1546 C 0.58839 0.1588 0.87295 0.0
C1547 C 0.53871 0.11238 0.90597 0.0
C1548 C 0.61303 0.21502 0.8252 0.0
C1549 C 0.6064 0.20309 0.83811 0.0
C1550 C 0.56402 0.16474 0.85479 0.0
C1551 C 0.56285 0.13873 0.8918 0.0
C1552 C 0.56962 0.15026 0.87732 0.0
C1553 C 0.58988 0.18612 0.83689 0.0
C1554 C 0.58283 0.17352 0.85063 0.0
H1555 H 0.57578 0.13822 0.92993 0.0
H1556 H 0.58718 0.15635 0.90589 0.0
H1557 H 0.54302 0.14717 0.87116 0.0
H1558 H 0.57917 0.18888 0.79852 0.0
H1559 H 0.56747 0.16824 0.82115 0.0
C1560 C 0.43032 0.52957 0.07698 0.0
C1561 C 0.44128 0.54131 0.08926 0.0
C1562 C 0.42681 0.53673 0.06339 0.0
C1563 C 0.43116 0.55863 0.03273 0.0
H1564 H 0.41058 0.59022 0.04014 0.0
C1565 C 0.42076 0.60111 0.98407 0.0
C1566 C 0.40302 0.59914 0.98348 0.0
C1567 C 0.42572 0.5936 0.99653 0.0
C1568 C 0.41631 0.58141 0.03793 0.0
H1569 H 0.45728 0.56965 0.09697 0.0
H1570 H 0.45083 0.58214 0.07331 0.0
H1571 H 0.41955 0.57825 0.06268 0.0
H1572 H 0.37646 0.5872 0.99552 0.0
H1573 H 0.38548 0.57483 0.01756 0.0
H1574 H 0.42812 0.56201 0.00794 0.0
C1575 C 0.44513 0.56745 0.07416 0.0
C1576 C 0.42154 0.57469 0.05078 0.0
C1577 C 0.44891 0.56033 0.08761 0.0
C1578 C 0.39037 0.58939 0.99569 0.0
C1579 C 0.39546 0.58218 0.00828 0.0
C1580 C 0.42625 0.56565 0.01985 0.0
C1581 C 0.43391 0.5557 0.06201 0.0
C1582 C 0.42891 0.56317 0.0483 0.0
C1583 C 0.41317 0.58424 0.00882 0.0
C1584 C 0.41865 0.57699 0.02236 0.0
H1585 H 0.42433 0.51485 0.07798 0.0
H1586 H 0.41805 0.5274 0.05419 0.0
H1587 H 0.43686 0.5498 0.03055 0.0
H1588 H 0.43102 0.60878 0.97508 0.0
H1589 H 0.43953 0.5955 0.99678 0.0
C1590 C 0.91495 0.44185 0.24473 0.0
C1591 C 0.91046 0.44862 0.25823 0.0
C1592 C 0.90402 0.43729 0.23107 0.0
C1593 C 0.85684 0.42222 0.21834 0.0
H1594 H 0.87811 0.43958 0.17675 0.0
C1595 C 0.81094 0.4113 0.1639 0.0
C1596 C 0.81649 0.40798 0.1491 0.0
C1597 C 0.82266 0.41628 0.17704 0.0
C1598 C 0.87194 0.43435 0.18822 0.0
H1599 H 0.89102 0.45586 0.26809 0.0
H1600 H 0.87184 0.44772 0.2443 0.0
H1601 H 0.89833 0.4482 0.19988 0.0
H1602 H 0.83895 0.40743 0.13663 0.0
H1603 H 0.85894 0.4152 0.15965 0.0
H1604 H 0.83054 0.40798 0.20684 0.0
C1605 C 0.88385 0.44604 0.24425 0.0
C1606 C 0.88354 0.43937 0.20147 0.0
C1607 C 0.89491 0.45085 0.25779 0.0
C1608 C 0.83404 0.40962 0.14785 0.0
C1609 C 0.84568 0.41438 0.16104 0.0
C1610 C 0.84526 0.41698 0.2051 0.0
C1611 C 0.88824 0.43912 0.23079 0.0
C1612 C 0.87608 0.43348 0.21666 0.0
C1613 C 0.84018 0.41784 0.17581 0.0
C1614 C 0.85262 0.42309 0.18987 0.0
H1615 H 0.92689 0.44006 0.24475 0.0
H1616 H 0.90765 0.43191 0.22086 0.0
H1617 H 0.85076 0.41727 0.22991 0.0
H1618 H 0.79744 0.40993 0.16542 0.0
H1619 H 0.818 0.41909 0.18812 0.0
loop_
_geom_bond_atom_site_label_1
_geom_bond_atom_site_label_2
_geom_bond_distance
_geom_bond_site_symmetry_2
_ccdc_geom_bond_type
H0 C27 0.929 . S
N1 C26 1.433 . S
N1 C32 1.435 . S
N1 C38 1.423 . S
H2 C28 0.930 . S
H3 C31 0.931 . S
H4 C30 0.929 . S
H5 C33 0.930 . S
H6 C34 0.932 . S
H7 C37 0.929 . S
H8 C36 0.931 . S
H9 C39 0.929 . S
H10 C43 0.932 . S
H11 C40 0.931 . S
H12 C42 0.929 . S
H13 C45 0.929 . S
H14 C46 0.930 . S
H15 C48 0.929 . S
H16 C49 0.931 . S
H17 C51 0.930 . S
H18 C52 0.932 . S
H19 C54 0.931 . S
H20 C55 0.929 . S
H21 C57 0.929 . S
H22 C58 0.931 1_455 S
H23 C60 0.929 . S
N24 C44 1.433 . S
N24 C50 1.435 . S
N24 C56 1.423 . S
H25 C61 0.932 . S
C26 N1 1.433 . S
C26 C27 1.363 . S
C26 C31 1.370 . S
C27 H0 0.929 . S
C27 C26 1.363 . S
C27 C28 1.385 . S
C28 H2 0.930 . S
C28 C27 1.385 . S
C28 C29 1.357 . S
C29 C28 1.357 . S
C29 C30 1.406 . S
C30 H4 0.929 . S
C30 C29 1.406 . S
C30 C31 1.391 . S
C31 H3 0.931 . S
C31 C26 1.370 . S
C31 C30 1.391 . S
C32 N1 1.435 . S
C32 C33 1.358 . S
C32 C37 1.371 . S
C33 H5 0.930 . S
C33 C32 1.358 . S
C33 C34 1.405 . S
C34 H6 0.932 . S
C34 C33 1.405 . S
C34 C35 1.383 . S
C35 C34 1.383 . S
C35 C36 1.393 . S
C36 H8 0.931 . S
C36 C35 1.393 . S
C36 C37 1.382 . S
C37 H7 0.929 . S
C37 C32 1.371 . S
C37 C36 1.382 . S
C38 N1 1.423 . S
C38 C39 1.362 . S
C38 C43 1.388 . S
C39 H9 0.929 . S
C39 C38 1.362 . S
C39 C40 1.376 . S
C40 H11 0.931 . S
C40 C39 1.376 . S
C40 C41 1.396 . S
C41 C40 1.396 . S
C41 C42 1.348 . S
C41 C59 1.472 . S
C42 H12 0.929 . S
C42 C41 1.348 . S
C42 C43 1.443 . S
C43 H10 0.932 . S
C43 C38 1.388 . S
C43 C42 1.443 . S
C44 N24 1.433 . S
C44 C45 1.363 . S
C44 C49 1.370 . S
C45 H13 0.929 . S
C45 C44 1.363 . S
C45 C46 1.385 . S
C46 H14 0.930 . S
C46 C45 1.385 . S
C46 C47 1.357 . S
C47 C46 1.357 . S
C47 C48 1.406 . S
C48 H15 0.929 . S
C48 C47 1.406 . S
C48 C49 1.391 . S
C49 H16 0.931 . S
C49 C44 1.370 . S
C49 C48 1.391 . S
C50 N24 1.435 . S
C50 C51 1.358 . S
C50 C55 1.371 . S
C51 H17 0.930 . S
C51 C50 1.358 . S
C51 C52 1.405 . S
C52 H18 0.932 . S
C52 C51 1.405 . S
C52 C53 1.383 . S
C53 C52 1.383 . S
C53 C54 1.393 . S
C54 H19 0.931 . S
C54 C53 1.393 . S
C54 C55 1.382 . S
C55 H20 0.929 . S
C55 C50 1.371 . S
C55 C54 1.382 . S
C56 N24 1.423 . S
C56 C57 1.362 . S
C56 C61 1.388 . S
C57 H21 0.929 . S
C57 C56 1.362 . S
C57 C58 1.376 . S
C58 H22 0.931 1_655 S
C58 C57 1.376 . S
C58 C59 1.396 1_655 S
C59 C41 1.472 . S
C59 C58 1.396 1_455 S
C59 C60 1.348 1_455 S
C60 H23 0.929 . S
C60 C59 1.348 1_655 S
C60 C61 1.443 . S
C61 H25 0.932 . S
C61 C56 1.388 . S
C61 C60 1.443 . S
H62 C89 0.929 . S
N63 C88 1.433 . S
N63 C94 1.435 . S
N63 C100 1.423 . S
H64 C90 0.930 . S
H65 C93 0.931 . S
H66 C92 0.929 . S
H67 C95 0.930 . S
H68 C96 0.932 . S
H69 C99 0.929 . S
H70 C98 0.931 . S
H71 C101 0.929 . S
H72 C105 0.932 . S
H73 C102 0.931 1_545 S
H74 C104 0.929 . S
H75 C107 0.929 . S
H76 C108 0.930 . S
H77 C110 0.929 . S
H78 C111 0.931 . S
H79 C113 0.930 . S
H80 C114 0.932 . S
H81 C116 0.931 . S
H82 C117 0.929 . S
H83 C119 0.929 . S
H84 C120 0.931 . S
H85 C122 0.929 . S
N86 C106 1.433 . S
N86 C112 1.435 . S
N86 C118 1.423 . S
H87 C123 0.932 . S
C88 N63 1.433 . S
C88 C89 1.363 . S
C88 C93 1.370 . S
C89 H62 0.929 . S
C89 C88 1.363 . S
C89 C90 1.385 . S
C90 H64 0.930 . S
C90 C89 1.385 . S
C90 C91 1.357 . S
C91 C90 1.357 . S
C91 C92 1.406 . S
C92 H66 0.929 . S
C92 C91 1.406 . S
C92 C93 1.391 . S
C93 H65 0.931 . S
C93 C88 1.370 . S
C93 C92 1.391 . S
C94 N63 1.435 . S
C94 C95 1.358 . S
C94 C99 1.371 . S
C95 H67 0.930 . S
C95 C94 1.358 . S
C95 C96 1.405 . S
C96 H68 0.932 . S
C96 C95 1.405 . S
C96 C97 1.383 . S
C97 C96 1.383 . S
C97 C98 1.393 . S
C98 H70 0.931 . S
C98 C97 1.393 . S
C98 C99 1.382 . S
C99 H69 0.929 . S
C99 C94 1.371 . S
C99 C98 1.382 . S
C100 N63 1.423 . S
C100 C101 1.362 . S
C100 C105 1.388 . S
C101 H71 0.929 . S
C101 C100 1.362 . S
C101 C102 1.376 . S
C102 H73 0.931 1_565 S
C102 C101 1.376 . S
C102 C103 1.396 1_565 S
C103 C102 1.396 1_545 S
C103 C104 1.348 . S
C103 C121 1.472 . S
C104 H74 0.929 . S
C104 C103 1.348 . S
C104 C105 1.443 1_545 S
C105 H72 0.932 . S
C105 C100 1.388 . S
C105 C104 1.443 1_565 S
C106 N86 1.433 . S
C106 C107 1.363 . S
C106 C111 1.370 . S
C107 H75 0.929 . S
C107 C106 1.363 . S
C107 C108 1.385 . S
C108 H76 0.930 . S
C108 C107 1.385 . S
C108 C109 1.357 . S
C109 C108 1.357 . S
C109 C110 1.406 . S
C110 H77 0.929 . S
C110 C109 1.406 . S
C110 C111 1.391 . S
C111 H78 0.931 . S
C111 C106 1.370 . S
C111 C110 1.391 . S
C112 N86 1.435 . S
C112 C113 1.358 . S
C112 C117 1.371 . S
C113 H79 0.930 . S
C113 C112 1.358 . S
C113 C114 1.405 . S
C114 H80 0.932 . S
C114 C113 1.405 . S
C114 C115 1.383 . S
C115 C114 1.383 . S
C115 C116 1.393 . S
C116 H81 0.931 . S
C116 C115 1.393 . S
C116 C117 1.382 . S
C117 H82 0.929 . S
C117 C112 1.371 . S
C117 C116 1.382 . S
C118 N86 1.423 . S
C118 C119 1.362 . S
C118 C123 1.388 . S
C119 H83 0.929 . S
C119 C118 1.362 . S
C119 C120 1.376 . S
C120 H84 0.931 . S
C120 C119 1.376 . S
C120 C121 1.396 . S
C121 C103 1.472 . S
C121 C120 1.396 . S
C121 C122 1.348 . S
C122 H85 0.929 . S
C122 C121 1.348 . S
C122 C123 1.443 . S
C123 H87 0.932 . S
C123 C118 1.388 . S
C123 C122 1.443 . S
H124 C151 0.929 . S
N125 C150 1.433 . S
N125 C156 1.435 . S
N125 C162 1.423 . S
H126 C152 0.930 . S
H127 C155 0.931 . S
H128 C154 0.929 . S
H129 C157 0.930 . S
H130 C158 0.932 . S
H131 C161 0.929 . S
H132 C160 0.931 . S
H133 C163 0.929 . S
H134 C167 0.932 . S
H135 C164 0.931 . S
H136 C166 0.929 . S
H137 C169 0.929 . S
H138 C170 0.930 . S
H139 C172 0.929 . S
H140 C173 0.931 . S
H141 C175 0.930 . S
H142 C176 0.932 . S
H143 C178 0.931 . S
H144 C179 0.929 . S
H145 C181 0.929 . S
H146 C182 0.931 . S
H147 C184 0.929 . S
N148 C168 1.433 . S
N148 C174 1.435 . S
N148 C180 1.423 . S
H149 C185 0.932 . S
C150 N125 1.433 . S
C150 C151 1.363 . S
C150 C155 1.370 . S
C151 H124 0.929 . S
C151 C150 1.363 . S
C151 C152 1.385 . S
C152 H126 0.930 . S
C152 C151 1.385 . S
C152 C153 1.357 . S
C153 C152 1.357 . S
C153 C154 1.406 . S
C154 H128 0.929 . S
C154 C153 1.406 . S
C154 C155 1.391 . S
C155 H127 0.931 . S
C155 C150 1.370 . S
C155 C154 1.391 . S
C156 N125 1.435 . S
C156 C157 1.358 . S
C156 C161 1.371 . S
C157 H129 0.930 . S
C157 C156 1.358 . S
C157 C158 1.405 . S
C158 H130 0.932 . S
C158 C157 1.405 . S
C158 C159 1.383 . S
C159 C158 1.383 . S
C159 C160 1.393 . S
C160 H132 0.931 . S
C160 C159 1.393 . S
C160 C161 1.382 . S
C161 H131 0.929 . S
C161 C156 1.371 . S
C161 C160 1.382 . S
C162 N125 1.423 . S
C162 C163 1.362 . S
C162 C167 1.388 . S
C163 H133 0.929 . S
C163 C162 1.362 . S
C163 C164 1.376 . S
C164 H135 0.931 . S
C164 C163 1.376 . S
C164 C165 1.396 . S
C165 C164 1.396 . S
C165 C166 1.348 . S
C165 C183 1.472 . S
C166 H136 0.929 . S
C166 C165 1.348 . S
C166 C167 1.443 . S
C167 H134 0.932 . S
C167 C162 1.388 . S
C167 C166 1.443 . S
C168 N148 1.433 . S
C168 C169 1.363 . S
C168 C173 1.370 . S
C169 H137 0.929 . S
C169 C168 1.363 . S
C169 C170 1.385 . S
C170 H138 0.930 . S
C170 C169 1.385 . S
C170 C171 1.357 . S
C171 C170 1.357 . S
C171 C172 1.406 . S
C172 H139 0.929 . S
C172 C171 1.406 . S
C172 C173 1.391 . S
C173 H140 0.931 . S
C173 C168 1.370 . S
C173 C172 1.391 . S
C174 N148 1.435 . S
C174 C175 1.358 . S
C174 C179 1.371 . S
C175 H141 0.930 . S
C175 C174 1.358 . S
C175 C176 1.405 . S
C176 H142 0.932 . S
C176 C175 1.405 . S
C176 C177 1.383 . S
C177 C176 1.383 . S
C177 C178 1.393 . S
C178 H143 0.931 . S
C178 C177 1.393 . S
C178 C179 1.382 . S
C179 H144 0.929 . S
C179 C174 1.371 . S
C179 C178 1.382 . S
C180 N148 1.423 . S
C180 C181 1.362 . S
C180 C185 1.388 . S
C181 H145 0.929 . S
C181 C180 1.362 . S
C181 C182 1.376 . S
C182 H146 0.931 . S
C182 C181 1.376 . S
C182 C183 1.396 . S
C183 C165 1.472 . S
C183 C182 1.396 . S
C183 C184 1.348 . S
C184 H147 0.929 . S
C184 C183 1.348 . S
C184 C185 1.443 . S
C185 H149 0.932 . S
C185 C180 1.388 . S
C185 C184 1.443 . S
H186 C213 0.929 . S
N187 C212 1.433 . S
N187 C218 1.435 . S
N187 C224 1.423 . S
H188 C214 0.930 . S
H189 C217 0.931 . S
H190 C216 0.929 . S
H191 C219 0.930 . S
H192 C220 0.932 . S
H193 C223 0.929 . S
H194 C222 0.931 . S
H195 C225 0.929 . S
H196 C229 0.932 . S
H197 C226 0.931 . S
H198 C228 0.929 . S
H199 C231 0.929 . S
H200 C232 0.930 . S
H201 C234 0.929 . S
H202 C235 0.931 . S
H203 C237 0.930 . S
H204 C238 0.932 . S
H205 C240 0.931 . S
H206 C241 0.929 . S
H207 C243 0.929 . S
H208 C244 0.931 1_455 S
H209 C246 0.929 . S
N210 C230 1.433 . S
N210 C236 1.435 . S
N210 C242 1.423 . S
H211 C247 0.932 . S
C212 N187 1.433 . S
C212 C213 1.363 . S
C212 C217 1.370 . S
C213 H186 0.929 . S
C213 C212 1.363 . S
C213 C214 1.385 . S
C214 H188 0.930 . S
C214 C213 1.385 . S
C214 C215 1.357 . S
C215 C214 1.357 . S
C215 C216 1.406 . S
C216 H190 0.929 . S
C216 C215 1.406 . S
C216 C217 1.391 . S
C217 H189 0.931 . S
C217 C212 1.370 . S
C217 C216 1.391 . S
C218 N187 1.435 . S
C218 C219 1.358 . S
C218 C223 1.371 . S
C219 H191 0.930 . S
C219 C218 1.358 . S
C219 C220 1.405 . S
C220 H192 0.932 . S
C220 C219 1.405 . S
C220 C221 1.383 . S
C221 C220 1.383 . S
C221 C222 1.393 . S
C222 H194 0.931 . S
C222 C221 1.393 . S
C222 C223 1.382 . S
C223 H193 0.929 . S
C223 C218 1.371 . S
C223 C222 1.382 . S
C224 N187 1.423 . S
C224 C225 1.362 . S
C224 C229 1.388 . S
C225 H195 0.929 . S
C225 C224 1.362 . S
C225 C226 1.376 . S
C226 H197 0.931 . S
C226 C225 1.376 . S
C226 C227 1.396 . S
C227 C226 1.396 . S
C227 C228 1.348 . S
C227 C245 1.472 . S
C228 H198 0.929 . S
C228 C227 1.348 . S
C228 C229 1.443 . S
C229 H196 0.932 . S
C229 C224 1.388 . S
C229 C228 1.443 . S
C230 N210 1.433 . S
C230 C231 1.363 . S
C230 C235 1.370 . S
C231 H199 0.929 . S
C231 C230 1.363 . S
C231 C232 1.385 . S
C232 H200 0.930 . S
C232 C231 1.385 . S
C232 C233 1.357 . S
C233 C232 1.357 . S
C233 C234 1.406 . S
C234 H201 0.929 . S
C234 C233 1.406 . S
C234 C235 1.391 . S
C235 H202 0.931 . S
C235 C230 1.370 . S
C235 C234 1.391 . S
C236 N210 1.435 . S
C236 C237 1.358 . S
C236 C241 1.371 . S
C237 H203 0.930 . S
C237 C236 1.358 . S
C237 C238 1.405 . S
C238 H204 0.932 . S
C238 C237 1.405 . S
C238 C239 1.383 . S
C239 C238 1.383 . S
C239 C240 1.393 . S
C240 H205 0.931 . S
C240 C239 1.393 . S
C240 C241 1.382 . S
C241 H206 0.929 . S
C241 C236 1.371 . S
C241 C240 1.382 . S
C242 N210 1.423 . S
C242 C243 1.362 . S
C242 C247 1.388 . S
C243 H207 0.929 . S
C243 C242 1.362 . S
C243 C244 1.376 . S
C244 H208 0.931 1_655 S
C244 C243 1.376 . S
C244 C245 1.396 1_655 S
C245 C227 1.472 . S
C245 C244 1.396 1_455 S
C245 C246 1.348 1_455 S
C246 H209 0.929 . S
C246 C245 1.348 1_655 S
C246 C247 1.443 . S
C247 H211 0.932 . S
C247 C242 1.388 . S
C247 C246 1.443 . S
H248 C275 0.929 . S
N249 C274 1.433 . S
N249 C280 1.435 . S
N249 C286 1.423 . S
H250 C276 0.930 . S
H251 C279 0.931 . S
H252 C278 0.929 . S
H253 C281 0.930 . S
H254 C282 0.932 . S
H255 C285 0.929 . S
H256 C284 0.931 . S
H257 C287 0.929 . S
H258 C291 0.932 . S
H259 C288 0.931 . S
H260 C290 0.929 . S
H261 C293 0.929 . S
H262 C294 0.930 . S
H263 C296 0.929 . S
H264 C297 0.931 . S
H265 C299 0.930 . S
H266 C300 0.932 . S
H267 C302 0.931 . S
H268 C303 0.929 . S
H269 C305 0.929 . S
H270 C306 0.931 1_545 S
H271 C308 0.929 . S
N272 C292 1.433 . S
N272 C298 1.435 1_554 S
N272 C304 1.443 . S
H273 C309 0.932 . S
C274 N249 1.433 . S
C274 C275 1.363 . S
C274 C279 1.370 . S
C275 H248 0.929 . S
C275 C274 1.363 . S
C275 C276 1.385 . S
C276 H250 0.930 . S
C276 C275 1.385 . S
C276 C277 1.357 1_556 S
C277 C276 1.357 1_554 S
C277 C278 1.406 . S
C278 H252 0.929 . S
C278 C277 1.406 . S
C278 C279 1.391 1_554 S
C279 H251 0.931 . S
C279 C274 1.370 . S
C279 C278 1.391 1_556 S
C280 N249 1.435 . S
C280 C281 1.358 . S
C280 C285 1.371 . S
C281 H253 0.930 . S
C281 C280 1.358 . S
C281 C282 1.405 . S
C282 H254 0.932 . S
C282 C281 1.405 . S
C282 C283 1.383 . S
C283 C282 1.383 . S
C283 C284 1.393 . S
C284 H256 0.931 . S
C284 C283 1.393 . S
C284 C285 1.382 . S
C285 H255 0.929 . S
C285 C280 1.371 . S
C285 C284 1.382 . S
C286 N249 1.423 . S
C286 C287 1.362 . S
C286 C291 1.388 . S
C287 H257 0.929 . S
C287 C286 1.362 . S
C287 C288 1.376 . S
C288 H259 0.931 . S
C288 C287 1.376 . S
C288 C289 1.396 . S
C289 C288 1.396 . S
C289 C290 1.348 . S
C289 C307 1.472 . S
C290 H260 0.929 . S
C290 C289 1.348 . S
C290 C291 1.443 . S
C291 H258 0.932 . S
C291 C286 1.388 . S
C291 C290 1.443 . S
C292 N272 1.433 . S
C292 C293 1.363 . S
C292 C297 1.370 . S
C293 H261 0.929 . S
C293 C292 1.363 . S
C293 C294 1.385 . S
C294 H262 0.930 . S
C294 C293 1.385 . S
C294 C295 1.357 . S
C295 C294 1.357 . S
C295 C296 1.406 . S
C296 H263 0.929 . S
C296 C295 1.406 . S
C296 C297 1.391 . S
C297 H264 0.931 . S
C297 C292 1.370 . S
C297 C296 1.391 . S
C298 N272 1.435 1_556 S
C298 C299 1.358 1_556 S
C298 C303 1.371 . S
C299 H265 0.930 . S
C299 C298 1.358 1_554 S
C299 C300 1.405 1_554 S
C300 H266 0.932 . S
C300 C299 1.405 1_556 S
C300 C301 1.383 . S
C301 C300 1.383 . S
C301 C302 1.393 . S
C302 H267 0.931 . S
C302 C301 1.393 . S
C302 C303 1.382 . S
C303 H268 0.929 . S
C303 C298 1.371 . S
C303 C302 1.382 . S
C304 N272 1.443 . S
C304 C305 1.383 . S
C304 C309 1.350 1_554 S
C305 H269 0.929 . S
C305 C304 1.383 . S
C305 C306 1.376 . S
C306 H270 0.931 1_565 S
C306 C305 1.376 . S
C306 C307 1.396 1_564 S
C307 C289 1.472 . S
C307 C306 1.396 1_546 S
C307 C308 1.348 1_545 S
C308 H271 0.929 . S
C308 C307 1.348 1_565 S
C308 C309 1.443 . S
C309 H273 0.932 . S
C309 C304 1.350 1_556 S
C309 C308 1.443 . S
H310 C337 0.929 . S
N311 C336 1.433 . S
N311 C342 1.435 . S
N311 C348 1.423 . S
H312 C338 0.930 . S
H313 C341 0.931 . S
H314 C340 0.929 . S
H315 C343 0.930 . S
H316 C344 0.932 . S
H317 C347 0.929 . S
H318 C346 0.931 . S
H319 C349 0.929 . S
H320 C353 0.932 . S
H321 C350 0.931 . S
H322 C352 0.929 . S
H323 C355 0.929 . S
H324 C356 0.930 . S
H325 C358 0.929 . S
H326 C359 0.931 . S
H327 C361 0.930 . S
H328 C362 0.932 . S
H329 C364 0.931 . S
H330 C365 0.929 . S
H331 C367 0.929 . S
H332 C368 0.931 . S
H333 C370 0.929 . S
N334 C354 1.433 . S
N334 C360 1.435 . S
N334 C366 1.423 . S
H335 C371 0.932 . S
C336 N311 1.433 . S
C336 C337 1.363 . S
C336 C341 1.370 . S
C337 H310 0.929 . S
C337 C336 1.363 . S
C337 C338 1.385 . S
C338 H312 0.930 . S
C338 C337 1.385 . S
C338 C339 1.357 . S
C339 C338 1.357 . S
C339 C340 1.406 . S
C340 H314 0.929 . S
C340 C339 1.406 . S
C340 C341 1.391 . S
C341 H313 0.931 . S
C341 C336 1.370 . S
C341 C340 1.391 . S
C342 N311 1.435 . S
C342 C343 1.358 . S
C342 C347 1.371 . S
C343 H315 0.930 . S
C343 C342 1.358 . S
C343 C344 1.405 . S
C344 H316 0.932 . S
C344 C343 1.405 . S
C344 C345 1.383 . S
C345 C344 1.383 . S
C345 C346 1.393 . S
C346 H318 0.931 . S
C346 C345 1.393 . S
C346 C347 1.382 . S
C347 H317 0.929 . S
C347 C342 1.371 . S
C347 C346 1.382 . S
C348 N311 1.423 . S
C348 C349 1.362 . S
C348 C353 1.388 . S
C349 H319 0.929 . S
C349 C348 1.362 . S
C349 C350 1.376 . S
C350 H321 0.931 . S
C350 C349 1.376 . S
C350 C351 1.396 . S
C351 C350 1.396 . S
C351 C352 1.348 . S
C351 C369 1.472 . S
C352 H322 0.929 . S
C352 C351 1.348 . S
C352 C353 1.443 . S
C353 H320 0.932 . S
C353 C348 1.388 . S
C353 C352 1.443 . S
C354 N334 1.433 . S
C354 C355 1.363 . S
C354 C359 1.370 . S
C355 H323 0.929 . S
C355 C354 1.363 . S
C355 C356 1.385 . S
C356 H324 0.930 . S
C356 C355 1.385 . S
C356 C357 1.357 . S
C357 C356 1.357 . S
C357 C358 1.406 . S
C358 H325 0.929 . S
C358 C357 1.406 . S
C358 C359 1.391 . S
C359 H326 0.931 . S
C359 C354 1.370 . S
C359 C358 1.391 . S
C360 N334 1.435 . S
C360 C361 1.358 . S
C360 C365 1.371 . S
C361 H327 0.930 . S
C361 C360 1.358 . S
C361 C362 1.405 . S
C362 H328 0.932 . S
C362 C361 1.405 . S
C362 C363 1.383 . S
C363 C362 1.383 . S
C363 C364 1.393 . S
C364 H329 0.931 . S
C364 C363 1.393 . S
C364 C365 1.382 . S
C365 H330 0.929 . S
C365 C360 1.371 . S
C365 C364 1.382 . S
C366 N334 1.423 . S
C366 C367 1.362 . S
C366 C371 1.388 . S
C367 H331 0.929 . S
C367 C366 1.362 . S
C367 C368 1.376 . S
C368 H332 0.931 . S
C368 C367 1.376 . S
C368 C369 1.396 . S
C369 C351 1.472 . S
C369 C368 1.396 . S
C369 C370 1.348 . S
C370 H333 0.929 . S
C370 C369 1.348 . S
C370 C371 1.443 . S
C371 H335 0.932 . S
C371 C366 1.388 . S
C371 C370 1.443 . S
Li372 N389 1.990 . S
Li372 O432 1.956 . S
Li372 O433 1.970 . S
Li372 O434 1.961 . S
Li373 N397 1.990 . S
Li373 O432 1.970 . S
Li373 O433 1.956 . S
Li373 O435 1.961 . S
Li374 N419 1.990 . S
Li374 O432 1.961 . S
Li374 O434 1.956 . S
Li374 O435 1.970 . S
Li375 N425 1.990 . S
Li375 O433 1.961 . S
Li375 O434 1.970 . S
Li375 O435 1.956 . S
C376 C378 1.348 . S
C376 C379 1.356 . S
C376 O432 1.325 . S
N377 C380 1.314 . S
N377 C381 1.279 . S
C378 C376 1.348 . S
C378 C380 1.353 . S
C378 H436 0.929 . S
C379 C376 1.356 . S
C379 C381 1.358 . S
C379 H437 0.930 . S
C380 N377 1.314 . S
C380 C378 1.353 . S
C380 H438 0.930 . S
C381 N377 1.279 . S
C381 C379 1.358 . S
C381 H439 0.930 . S
C382 C385 1.348 . S
C382 C386 1.356 . S
C382 O433 1.325 . S
C383 N384 1.279 . S
C383 C386 1.358 . S
C383 H440 0.930 . S
N384 C383 1.279 . S
N384 C387 1.314 . S
C385 C382 1.348 . S
C385 C387 1.353 . S
C385 H441 0.929 . S
C386 C382 1.356 . S
C386 C383 1.358 . S
C386 H442 0.930 . S
C387 N384 1.314 . S
C387 C385 1.353 . S
C387 H443 0.930 . S
C388 N389 1.314 . S
C388 C393 1.353 . S
C388 H394 0.930 . S
N389 Li372 1.990 . S
N389 C388 1.314 . S
N389 C391 1.279 . S
C390 C391 1.358 . S
C390 C392 1.356 . S
C390 H444 0.930 . S
C391 N389 1.279 . S
C391 C390 1.358 . S
C391 H395 0.930 . S
C392 C390 1.356 . S
C392 C393 1.348 . S
C393 C388 1.353 . S
C393 C392 1.348 . S
C393 H445 0.929 . S
H394 C388 0.930 . S
H395 C391 0.930 . S
C396 N397 1.314 . S
C396 C398 1.353 . S
C396 H402 0.930 . S
N397 Li373 1.990 . S
N397 C396 1.314 . S
N397 C400 1.279 . S
C398 C396 1.353 . S
C398 C401 1.348 . S
C398 H446 0.929 . S
C399 C400 1.358 . S
C399 C401 1.356 . S
C399 H447 0.930 . S
C400 N397 1.279 . S
C400 C399 1.358 . S
C400 H403 0.930 . S
C401 C398 1.348 . S
C401 C399 1.356 . S
H402 C396 0.930 . S
H403 C400 0.930 . S
C404 C406 1.348 . S
C404 C407 1.356 . S
C404 O434 1.325 . S
N405 C408 1.314 . S
N405 C409 1.279 . S
C406 C404 1.348 . S
C406 C408 1.353 . S
C406 H448 0.929 . S
C407 C404 1.356 . S
C407 C409 1.358 . S
C407 H449 0.930 . S
C408 N405 1.314 . S
C408 C406 1.353 . S
C408 H450 0.930 . S
C409 N405 1.279 . S
C409 C407 1.358 . S
C409 H451 0.930 . S
C410 C411 1.348 . S
C410 C412 1.356 . S
C410 O435 1.325 . S
C411 C410 1.348 . S
C411 C413 1.353 . S
C411 H452 0.929 . S
C412 C410 1.356 . S
C412 C414 1.358 . S
C412 H453 0.930 . S
C413 C411 1.353 . S
C413 N415 1.314 . S
C413 H454 0.930 . S
C414 C412 1.358 . S
C414 N415 1.279 . S
C414 H455 0.930 . S
N415 C413 1.314 . S
N415 C414 1.279 . S
C416 C418 1.353 . S
C416 N419 1.314 . S
C416 H422 0.930 . S
C417 N419 1.279 . S
C417 C420 1.358 . S
C417 H423 0.930 . S
C418 C416 1.353 . S
C418 C421 1.348 . S
C418 H456 0.929 . S
N419 Li374 1.990 . S
N419 C416 1.314 . S
N419 C417 1.279 . S
C420 C417 1.358 . S
C420 C421 1.356 . S
C420 H457 0.930 . S
C421 C418 1.348 . S
C421 C420 1.356 . S
H422 C416 0.930 . S
H423 C417 0.930 . S
C424 N425 1.314 . S
C424 C426 1.353 . S
C424 H430 0.930 . S
N425 Li375 1.990 . S
N425 C424 1.314 . S
N425 C428 1.279 . S
C426 C424 1.353 . S
C426 C429 1.348 . S
C426 H458 0.929 . S
C427 C428 1.358 . S
C427 C429 1.356 . S
C427 H459 0.930 . S
C428 N425 1.279 . S
C428 C427 1.358 . S
C428 H431 0.930 . S
C429 C426 1.348 . S
C429 C427 1.356 . S
H430 C424 0.930 . S
H431 C428 0.930 . S
O432 Li372 1.956 . S
O432 Li373 1.970 . S
O432 Li374 1.961 . S
O432 C376 1.325 . S
O433 Li372 1.970 . S
O433 Li373 1.956 . S
O433 Li375 1.961 . S
O433 C382 1.325 . S
O434 Li372 1.961 . S
O434 Li374 1.956 . S
O434 Li375 1.970 . S
O434 C404 1.325 . S
O435 Li373 1.961 . S
O435 Li374 1.970 . S
O435 Li375 1.956 . S
O435 C410 1.325 . S
H436 C378 0.929 . S
H437 C379 0.930 . S
H438 C380 0.930 . S
H439 C381 0.930 . S
H440 C383 0.930 . S
H441 C385 0.929 . S
H442 C386 0.930 . S
H443 C387 0.930 . S
H444 C390 0.930 . S
H445 C393 0.929 . S
H446 C398 0.929 . S
H447 C399 0.930 . S
H448 C406 0.929 . S
H449 C407 0.930 . S
H450 C408 0.930 . S
H451 C409 0.930 . S
H452 C411 0.929 . S
H453 C412 0.930 . S
H454 C413 0.930 . S
H455 C414 0.930 . S
H456 C418 0.929 . S
H457 C420 0.930 . S
H458 C426 0.929 . S
H459 C427 0.930 . S
Li460 N477 1.990 . S
Li460 O520 1.956 . S
Li460 O521 1.970 . S
Li460 O522 1.961 . S
Li461 N485 1.990 . S
Li461 O520 1.970 . S
Li461 O521 1.956 . S
Li461 O523 1.961 . S
Li462 N507 1.990 . S
Li462 O520 1.961 . S
Li462 O522 1.956 . S
Li462 O523 1.970 . S
Li463 N513 1.990 . S
Li463 O521 1.961 . S
Li463 O522 1.970 . S
Li463 O523 1.956 . S
C464 C466 1.348 . S
C464 C467 1.356 . S
C464 O520 1.325 . S
N465 C468 1.314 . S
N465 C469 1.279 . S
C466 C464 1.348 . S
C466 C468 1.353 . S
C466 H524 0.929 . S
C467 C464 1.356 . S
C467 C469 1.358 . S
C467 H525 0.930 . S
C468 N465 1.314 . S
C468 C466 1.353 . S
C468 H526 0.930 . S
C469 N465 1.279 . S
C469 C467 1.358 . S
C469 H527 0.930 . S
C470 C473 1.348 . S
C470 C474 1.356 . S
C470 O521 1.325 . S
C471 N472 1.279 . S
C471 C474 1.358 . S
C471 H528 0.930 . S
N472 C471 1.279 . S
N472 C475 1.314 . S
C473 C470 1.348 . S
C473 C475 1.353 . S
C473 H529 0.929 . S
C474 C470 1.356 . S
C474 C471 1.358 . S
C474 H530 0.930 . S
C475 N472 1.314 . S
C475 C473 1.353 . S
C475 H531 0.930 . S
C476 N477 1.314 . S
C476 C481 1.353 . S
C476 H482 0.930 . S
N477 Li460 1.990 . S
N477 C476 1.314 . S
N477 C479 1.279 . S
C478 C479 1.358 . S
C478 C480 1.356 . S
C478 H532 0.930 . S
C479 N477 1.279 . S
C479 C478 1.358 . S
C479 H483 0.930 . S
C480 C478 1.356 . S
C480 C481 1.348 . S
C481 C476 1.353 . S
C481 C480 1.348 . S
C481 H533 0.929 . S
H482 C476 0.930 . S
H483 C479 0.930 . S
C484 N485 1.314 . S
C484 C486 1.353 . S
C484 H490 0.930 . S
N485 Li461 1.990 . S
N485 C484 1.314 . S
N485 C488 1.279 . S
C486 C484 1.353 . S
C486 C489 1.348 . S
C486 H534 0.929 . S
C487 C488 1.358 . S
C487 C489 1.356 . S
C487 H535 0.930 . S
C488 N485 1.279 . S
C488 C487 1.358 . S
C488 H491 0.930 . S
C489 C486 1.348 . S
C489 C487 1.356 . S
H490 C484 0.930 . S
H491 C488 0.930 . S
C492 C494 1.348 . S
C492 C495 1.356 . S
C492 O522 1.325 . S
N493 C496 1.314 . S
N493 C497 1.279 . S
C494 C492 1.348 . S
C494 C496 1.353 . S
C494 H536 0.929 . S
C495 C492 1.356 . S
C495 C497 1.358 . S
C495 H537 0.930 . S
C496 N493 1.314 . S
C496 C494 1.353 . S
C496 H538 0.930 . S
C497 N493 1.279 . S
C497 C495 1.358 . S
C497 H539 0.930 . S
C498 C499 1.348 . S
C498 C500 1.356 . S
C498 O523 1.325 . S
C499 C498 1.348 . S
C499 C501 1.353 . S
C499 H540 0.929 . S
C500 C498 1.356 . S
C500 C502 1.358 . S
C500 H541 0.930 . S
C501 C499 1.353 . S
C501 N503 1.314 . S
C501 H542 0.930 . S
C502 C500 1.358 . S
C502 N503 1.279 . S
C502 H543 0.930 . S
N503 C501 1.314 . S
N503 C502 1.279 . S
C504 C506 1.353 . S
C504 N507 1.314 . S
C504 H510 0.930 . S
C505 N507 1.279 . S
C505 C508 1.358 . S
C505 H511 0.930 . S
C506 C504 1.353 . S
C506 C509 1.348 . S
C506 H544 0.929 . S
N507 Li462 1.990 . S
N507 C504 1.314 . S
N507 C505 1.279 . S
C508 C505 1.358 . S
C508 C509 1.356 . S
C508 H545 0.930 . S
C509 C506 1.348 . S
C509 C508 1.356 . S
H510 C504 0.930 . S
H511 C505 0.930 . S
C512 N513 1.314 . S
C512 C514 1.353 . S
C512 H518 0.930 . S
N513 Li463 1.990 . S
N513 C512 1.314 . S
N513 C516 1.279 . S
C514 C512 1.353 . S
C514 C517 1.348 . S
C514 H546 0.929 . S
C515 C516 1.358 . S
C515 C517 1.356 . S
C515 H547 0.930 . S
C516 N513 1.279 . S
C516 C515 1.358 . S
C516 H519 0.930 . S
C517 C514 1.348 . S
C517 C515 1.356 . S
H518 C512 0.930 . S
H519 C516 0.930 . S
O520 Li460 1.956 . S
O520 Li461 1.970 . S
O520 Li462 1.961 . S
O520 C464 1.325 . S
O521 Li460 1.970 . S
O521 Li461 1.956 . S
O521 Li463 1.961 . S
O521 C470 1.325 . S
O522 Li460 1.961 . S
O522 Li462 1.956 . S
O522 Li463 1.970 . S
O522 C492 1.325 . S
O523 Li461 1.961 . S
O523 Li462 1.970 . S
O523 Li463 1.956 . S
O523 C498 1.325 . S
H524 C466 0.929 . S
H525 C467 0.930 . S
H526 C468 0.930 . S
H527 C469 0.930 . S
H528 C471 0.930 . S
H529 C473 0.929 . S
H530 C474 0.930 . S
H531 C475 0.930 . S
H532 C478 0.930 . S
H533 C481 0.929 . S
H534 C486 0.929 . S
H535 C487 0.930 . S
H536 C494 0.929 . S
H537 C495 0.930 . S
H538 C496 0.930 . S
H539 C497 0.930 . S
H540 C499 0.929 . S
H541 C500 0.930 . S
H542 C501 0.930 . S
H543 C502 0.930 . S
H544 C506 0.929 . S
H545 C508 0.930 . S
H546 C514 0.929 . S
H547 C515 0.930 . S
Li548 N565 1.990 . S
Li548 O608 1.956 . S
Li548 O609 1.970 . S
Li548 O610 1.961 . S
Li549 N573 1.990 . S
Li549 O608 1.970 . S
Li549 O609 1.956 . S
Li549 O611 1.961 . S
Li550 N595 1.990 . S
Li550 O608 1.961 . S
Li550 O610 1.956 . S
Li550 O611 1.970 . S
Li551 N601 1.990 . S
Li551 O609 1.961 . S
Li551 O610 1.970 . S
Li551 O611 1.956 . S
C552 C554 1.348 . S
C552 C555 1.356 . S
C552 O608 1.325 . S
N553 C556 1.314 . S
N553 C557 1.279 . S
C554 C552 1.348 . S
C554 C556 1.353 . S
C554 H612 0.929 . S
C555 C552 1.356 . S
C555 C557 1.358 . S
C555 H613 0.930 . S
C556 N553 1.314 . S
C556 C554 1.353 . S
C556 H614 0.930 . S
C557 N553 1.279 . S
C557 C555 1.358 . S
C557 H615 0.930 . S
C558 C561 1.348 . S
C558 C562 1.356 . S
C558 O609 1.325 . S
C559 N560 1.279 . S
C559 C562 1.358 . S
C559 H616 0.930 . S
N560 C559 1.279 . S
N560 C563 1.314 . S
C561 C558 1.348 . S
C561 C563 1.353 . S
C561 H617 0.929 . S
C562 C558 1.356 . S
C562 C559 1.358 . S
C562 H618 0.930 . S
C563 N560 1.314 . S
C563 C561 1.353 . S
C563 H619 0.930 . S
C564 N565 1.314 . S
C564 C569 1.353 . S
C564 H570 0.930 . S
N565 Li548 1.990 . S
N565 C564 1.314 . S
N565 C567 1.279 . S
C566 C567 1.358 . S
C566 C568 1.356 . S
C566 H620 0.930 . S
C567 N565 1.279 . S
C567 C566 1.358 . S
C567 H571 0.930 . S
C568 C566 1.356 . S
C568 C569 1.348 . S
C569 C564 1.353 . S
C569 C568 1.348 . S
C569 H621 0.929 . S
H570 C564 0.930 . S
H571 C567 0.930 . S
C572 N573 1.314 . S
C572 C574 1.353 . S
C572 H578 0.930 . S
N573 Li549 1.990 . S
N573 C572 1.314 . S
N573 C576 1.279 . S
C574 C572 1.353 . S
C574 C577 1.348 . S
C574 H622 0.929 . S
C575 C576 1.358 . S
C575 C577 1.356 . S
C575 H623 0.930 . S
C576 N573 1.279 . S
C576 C575 1.358 . S
C576 H579 0.930 . S
C577 C574 1.348 . S
C577 C575 1.356 . S
H578 C572 0.930 . S
H579 C576 0.930 . S
C580 C582 1.348 . S
C580 C583 1.356 . S
C580 O610 1.325 . S
N581 C584 1.314 . S
N581 C585 1.279 . S
C582 C580 1.348 . S
C582 C584 1.353 . S
C582 H624 0.929 . S
C583 C580 1.356 . S
C583 C585 1.358 . S
C583 H625 0.930 . S
C584 N581 1.314 . S
C584 C582 1.353 . S
C584 H626 0.930 . S
C585 N581 1.279 . S
C585 C583 1.358 . S
C585 H627 0.930 . S
C586 C587 1.348 . S
C586 C588 1.356 . S
C586 O611 1.325 . S
C587 C586 1.348 . S
C587 C589 1.353 . S
C587 H628 0.929 . S
C588 C586 1.356 . S
C588 C590 1.358 . S
C588 H629 0.930 . S
C589 C587 1.353 . S
C589 N591 1.314 . S
C589 H630 0.930 . S
C590 C588 1.358 . S
C590 N591 1.279 . S
C590 H631 0.930 . S
N591 C589 1.314 . S
N591 C590 1.279 . S
C592 C594 1.353 . S
C592 N595 1.314 . S
C592 H598 0.930 . S
C593 N595 1.279 . S
C593 C596 1.358 . S
C593 H599 0.930 . S
C594 C592 1.353 . S
C594 C597 1.348 . S
C594 H632 0.929 . S
N595 Li550 1.990 . S
N595 C592 1.314 . S
N595 C593 1.279 . S
C596 C593 1.358 . S
C596 C597 1.356 . S
C596 H633 0.930 . S
C597 C594 1.348 . S
C597 C596 1.356 . S
H598 C592 0.930 . S
H599 C593 0.930 . S
C600 N601 1.314 . S
C600 C602 1.353 . S
C600 H606 0.930 . S
N601 Li551 1.990 . S
N601 C600 1.314 . S
N601 C604 1.279 . S
C602 C600 1.353 . S
C602 C605 1.348 . S
C602 H634 0.929 . S
C603 C604 1.358 . S
C603 C605 1.356 . S
C603 H635 0.930 . S
C604 N601 1.279 . S
C604 C603 1.358 . S
C604 H607 0.930 . S
C605 C602 1.348 . S
C605 C603 1.356 . S
H606 C600 0.930 . S
H607 C604 0.930 . S
O608 Li548 1.956 . S
O608 Li549 1.970 . S
O608 Li550 1.961 . S
O608 C552 1.325 . S
O609 Li548 1.970 . S
O609 Li549 1.956 . S
O609 Li551 1.961 . S
O609 C558 1.325 . S
O610 Li548 1.961 . S
O610 Li550 1.956 . S
O610 Li551 1.970 . S
O610 C580 1.325 . S
O611 Li549 1.961 . S
O611 Li550 1.970 . S
O611 Li551 1.956 . S
O611 C586 1.325 . S
H612 C554 0.929 . S
H613 C555 0.930 . S
H614 C556 0.930 . S
H615 C557 0.930 . S
H616 C559 0.930 . S
H617 C561 0.929 . S
H618 C562 0.930 . S
H619 C563 0.930 . S
H620 C566 0.930 . S
H621 C569 0.929 . S
H622 C574 0.929 . S
H623 C575 0.930 . S
H624 C582 0.929 . S
H625 C583 0.930 . S
H626 C584 0.930 . S
H627 C585 0.930 . S
H628 C587 0.929 . S
H629 C588 0.930 . S
H630 C589 0.930 . S
H631 C590 0.930 . S
H632 C594 0.929 . S
H633 C596 0.930 . S
H634 C602 0.929 . S
H635 C603 0.930 . S
Li636 N653 1.990 . S
Li636 O696 1.956 . S
Li636 O697 1.970 . S
Li636 O698 1.961 . S
Li637 N661 1.990 . S
Li637 O696 1.970 . S
Li637 O697 1.956 . S
Li637 O699 1.961 . S
Li638 N683 1.990 . S
Li638 O696 1.961 . S
Li638 O698 1.956 . S
Li638 O699 1.970 . S
Li639 N689 1.990 . S
Li639 O697 1.961 . S
Li639 O698 1.970 . S
Li639 O699 1.956 . S
C640 C642 1.348 . S
C640 C643 1.356 . S
C640 O696 1.325 . S
N641 C644 1.314 . S
N641 C645 1.279 . S
C642 C640 1.348 . S
C642 C644 1.353 . S
C642 H700 0.929 . S
C643 C640 1.356 . S
C643 C645 1.358 . S
C643 H701 0.930 . S
C644 N641 1.314 . S
C644 C642 1.353 . S
C644 H702 0.930 . S
C645 N641 1.279 . S
C645 C643 1.358 . S
C645 H703 0.930 . S
C646 C649 1.348 . S
C646 C650 1.356 . S
C646 O697 1.325 . S
C647 N648 1.279 . S
C647 C650 1.358 . S
C647 H704 0.930 . S
N648 C647 1.279 . S
N648 C651 1.314 . S
C649 C646 1.348 . S
C649 C651 1.353 . S
C649 H705 0.929 . S
C650 C646 1.356 . S
C650 C647 1.358 . S
C650 H706 0.930 . S
C651 N648 1.314 . S
C651 C649 1.353 . S
C651 H707 0.930 . S
C652 N653 1.314 . S
C652 C657 1.353 . S
C652 H658 0.930 . S
N653 Li636 1.990 . S
N653 C652 1.314 . S
N653 C655 1.279 . S
C654 C655 1.358 . S
C654 C656 1.356 . S
C654 H708 0.930 . S
C655 N653 1.279 . S
C655 C654 1.358 . S
C655 H659 0.930 . S
C656 C654 1.356 . S
C656 C657 1.348 . S
C657 C652 1.353 . S
C657 C656 1.348 . S
C657 H709 0.929 . S
H658 C652 0.930 . S
H659 C655 0.930 . S
C660 N661 1.314 . S
C660 C662 1.353 . S
C660 H666 0.930 . S
N661 Li637 1.990 . S
N661 C660 1.314 . S
N661 C664 1.279 . S
C662 C660 1.353 . S
C662 C665 1.348 . S
C662 H710 0.929 . S
C663 C664 1.358 . S
C663 C665 1.356 . S
C663 H711 0.930 . S
C664 N661 1.279 . S
C664 C663 1.358 . S
C664 H667 0.930 . S
C665 C662 1.348 . S
C665 C663 1.356 . S
H666 C660 0.930 . S
H667 C664 0.930 . S
C668 C670 1.348 . S
C668 C671 1.356 . S
C668 O698 1.325 . S
N669 C672 1.314 . S
N669 C673 1.279 . S
C670 C668 1.348 . S
C670 C672 1.353 . S
C670 H712 0.929 . S
C671 C668 1.356 . S
C671 C673 1.358 . S
C671 H713 0.930 . S
C672 N669 1.314 . S
C672 C670 1.353 . S
C672 H714 0.930 . S
C673 N669 1.279 . S
C673 C671 1.358 . S
C673 H715 0.930 . S
C674 C675 1.348 . S
C674 C676 1.356 . S
C674 O699 1.325 . S
C675 C674 1.348 . S
C675 C677 1.353 . S
C675 H716 0.929 . S
C676 C674 1.356 . S
C676 C678 1.358 . S
C676 H717 0.930 . S
C677 C675 1.353 . S
C677 N679 1.314 . S
C677 H718 0.930 . S
C678 C676 1.358 . S
C678 N679 1.279 . S
C678 H719 0.930 . S
N679 C677 1.314 . S
N679 C678 1.279 . S
C680 C682 1.353 . S
C680 N683 1.314 . S
C680 H686 0.930 . S
C681 N683 1.279 . S
C681 C684 1.358 . S
C681 H687 0.930 . S
C682 C680 1.353 . S
C682 C685 1.348 . S
C682 H720 0.929 . S
N683 Li638 1.990 . S
N683 C680 1.314 . S
N683 C681 1.279 . S
C684 C681 1.358 . S
C684 C685 1.356 . S
C684 H721 0.930 . S
C685 C682 1.348 . S
C685 C684 1.356 . S
H686 C680 0.930 . S
H687 C681 0.930 . S
C688 N689 1.314 . S
C688 C690 1.353 . S
C688 H694 0.930 . S
N689 Li639 1.990 . S
N689 C688 1.314 . S
N689 C692 1.279 . S
C690 C688 1.353 . S
C690 C693 1.348 . S
C690 H722 0.929 . S
C691 C692 1.358 . S
C691 C693 1.356 . S
C691 H723 0.930 . S
C692 N689 1.279 . S
C692 C691 1.358 . S
C692 H695 0.930 . S
C693 C690 1.348 . S
C693 C691 1.356 . S
H694 C688 0.930 . S
H695 C692 0.930 . S
O696 Li636 1.956 . S
O696 Li637 1.970 . S
O696 Li638 1.961 . S
O696 C640 1.325 . S
O697 Li636 1.970 . S
O697 Li637 1.956 . S
O697 Li639 1.961 . S
O697 C646 1.325 . S
O698 Li636 1.961 . S
O698 Li638 1.956 . S
O698 Li639 1.970 . S
O698 C668 1.325 . S
O699 Li637 1.961 . S
O699 Li638 1.970 . S
O699 Li639 1.956 . S
O699 C674 1.325 . S
H700 C642 0.929 . S
H701 C643 0.930 . S
H702 C644 0.930 . S
H703 C645 0.930 . S
H704 C647 0.930 . S
H705 C649 0.929 . S
H706 C650 0.930 . S
H707 C651 0.930 . S
H708 C654 0.930 . S
H709 C657 0.929 . S
H710 C662 0.929 . S
H711 C663 0.930 . S
H712 C670 0.929 . S
H713 C671 0.930 . S
H714 C672 0.930 . S
H715 C673 0.930 . S
H716 C675 0.929 . S
H717 C676 0.930 . S
H718 C677 0.930 . S
H719 C678 0.930 . S
H720 C682 0.929 . S
H721 C684 0.930 . S
H722 C690 0.929 . S
H723 C691 0.930 . S
Li724 N741 1.990 . S
Li724 O784 1.956 . S
Li724 O785 1.970 . S
Li724 O786 1.961 . S
Li725 N749 1.990 . S
Li725 O784 1.970 . S
Li725 O785 1.956 . S
Li725 O787 1.961 . S
Li726 N771 1.990 . S
Li726 O784 1.961 . S
Li726 O786 1.956 . S
Li726 O787 1.970 . S
Li727 N777 1.990 . S
Li727 O785 1.961 . S
Li727 O786 1.970 . S
Li727 O787 1.956 . S
C728 C730 1.348 . S
C728 C731 1.356 . S
C728 O784 1.325 . S
N729 C732 1.314 . S
N729 C733 1.279 . S
C730 C728 1.348 . S
C730 C732 1.353 . S
C730 H788 0.929 . S
C731 C728 1.356 . S
C731 C733 1.358 . S
C731 H789 0.930 . S
C732 N729 1.314 . S
C732 C730 1.353 . S
C732 H790 0.930 . S
C733 N729 1.279 . S
C733 C731 1.358 . S
C733 H791 0.930 . S
C734 C737 1.348 . S
C734 C738 1.356 . S
C734 O785 1.325 . S
C735 N736 1.279 . S
C735 C738 1.358 . S
C735 H792 0.930 . S
N736 C735 1.279 . S
N736 C739 1.314 . S
C737 C734 1.348 . S
C737 C739 1.353 . S
C737 H793 0.929 . S
C738 C734 1.356 . S
C738 C735 1.358 . S
C738 H794 0.930 . S
C739 N736 1.314 . S
C739 C737 1.353 . S
C739 H795 0.930 . S
C740 N741 1.314 . S
C740 C745 1.353 . S
C740 H746 0.930 . S
N741 Li724 1.990 . S
N741 C740 1.314 . S
N741 C743 1.279 . S
C742 C743 1.358 . S
C742 C744 1.356 . S
C742 H796 0.930 . S
C743 N741 1.279 . S
C743 C742 1.358 . S
C743 H747 0.930 . S
C744 C742 1.356 . S
C744 C745 1.348 . S
C745 C740 1.353 . S
C745 C744 1.348 . S
C745 H797 0.929 . S
H746 C740 0.930 . S
H747 C743 0.930 . S
C748 N749 1.314 . S
C748 C750 1.353 . S
C748 H754 0.930 . S
N749 Li725 1.990 . S
N749 C748 1.314 . S
N749 C752 1.279 . S
C750 C748 1.353 . S
C750 C753 1.348 . S
C750 H798 0.929 . S
C751 C752 1.358 . S
C751 C753 1.356 . S
C751 H799 0.930 . S
C752 N749 1.279 . S
C752 C751 1.358 . S
C752 H755 0.930 . S
C753 C750 1.348 . S
C753 C751 1.356 . S
H754 C748 0.930 . S
H755 C752 0.930 . S
C756 C758 1.348 . S
C756 C759 1.356 . S
C756 O786 1.325 . S
N757 C760 1.314 . S
N757 C761 1.279 . S
C758 C756 1.348 . S
C758 C760 1.353 . S
C758 H800 0.929 . S
C759 C756 1.356 . S
C759 C761 1.358 . S
C759 H801 0.930 . S
C760 N757 1.314 . S
C760 C758 1.353 . S
C760 H802 0.930 . S
C761 N757 1.279 . S
C761 C759 1.358 . S
C761 H803 0.930 . S
C762 C763 1.348 . S
C762 C764 1.356 . S
C762 O787 1.325 . S
C763 C762 1.348 . S
C763 C765 1.353 . S
C763 H804 0.929 . S
C764 C762 1.356 . S
C764 C766 1.358 . S
C764 H805 0.930 . S
C765 C763 1.353 . S
C765 N767 1.314 . S
C765 H806 0.930 . S
C766 C764 1.358 . S
C766 N767 1.279 . S
C766 H807 0.930 . S
N767 C765 1.314 . S
N767 C766 1.279 . S
C768 C770 1.353 . S
C768 N771 1.314 . S
C768 H774 0.930 . S
C769 N771 1.279 . S
C769 C772 1.358 . S
C769 H775 0.930 . S
C770 C768 1.353 . S
C770 C773 1.348 . S
C770 H808 0.929 . S
N771 Li726 1.990 . S
N771 C768 1.314 . S
N771 C769 1.279 . S
C772 C769 1.358 . S
C772 C773 1.356 . S
C772 H809 0.930 . S
C773 C770 1.348 . S
C773 C772 1.356 . S
H774 C768 0.930 . S
H775 C769 0.930 . S
C776 N777 1.314 . S
C776 C778 1.353 . S
C776 H782 0.930 . S
N777 Li727 1.990 . S
N777 C776 1.314 . S
N777 C780 1.279 . S
C778 C776 1.353 . S
C778 C781 1.348 . S
C778 H810 0.929 . S
C779 C780 1.358 . S
C779 C781 1.356 . S
C779 H811 0.930 . S
C780 N777 1.279 . S
C780 C779 1.358 . S
C780 H783 0.930 . S
C781 C778 1.348 . S
C781 C779 1.356 . S
H782 C776 0.930 . S
H783 C780 0.930 . S
O784 Li724 1.956 . S
O784 Li725 1.970 . S
O784 Li726 1.961 . S
O784 C728 1.325 . S
O785 Li724 1.970 . S
O785 Li725 1.956 . S
O785 Li727 1.961 . S
O785 C734 1.325 . S
O786 Li724 1.961 . S
O786 Li726 1.956 . S
O786 Li727 1.970 . S
O786 C756 1.325 . S
O787 Li725 1.961 . S
O787 Li726 1.970 . S
O787 Li727 1.956 . S
O787 C762 1.325 . S
H788 C730 0.929 . S
H789 C731 0.930 . S
H790 C732 0.930 . S
H791 C733 0.930 . S
H792 C735 0.930 . S
H793 C737 0.929 . S
H794 C738 0.930 . S
H795 C739 0.930 . S
H796 C742 0.930 . S
H797 C745 0.929 . S
H798 C750 0.929 . S
H799 C751 0.930 . S
H800 C758 0.929 . S
H801 C759 0.930 . S
H802 C760 0.930 . S
H803 C761 0.930 . S
H804 C763 0.929 . S
H805 C764 0.930 . S
H806 C765 0.930 . S
H807 C766 0.930 . S
H808 C770 0.929 . S
H809 C772 0.930 . S
H810 C778 0.929 . S
H811 C779 0.930 . S
Li812 N829 1.990 . S
Li812 O872 1.956 . S
Li812 O873 1.970 . S
Li812 O874 1.961 . S
Li813 N837 1.990 . S
Li813 O872 1.970 . S
Li813 O873 1.956 . S
Li813 O875 1.961 . S
Li814 N859 1.990 . S
Li814 O872 1.961 . S
Li814 O874 1.956 . S
Li814 O875 1.970 . S
Li815 N865 1.990 . S
Li815 O873 1.961 . S
Li815 O874 1.970 . S
Li815 O875 1.956 . S
C816 C818 1.348 . S
C816 C819 1.356 . S
C816 O872 1.325 . S
N817 C820 1.314 . S
N817 C821 1.279 . S
C818 C816 1.348 . S
C818 C820 1.353 . S
C818 H876 0.929 . S
C819 C816 1.356 . S
C819 C821 1.358 . S
C819 H877 0.930 . S
C820 N817 1.314 . S
C820 C818 1.353 . S
C820 H878 0.930 . S
C821 N817 1.279 . S
C821 C819 1.358 . S
C821 H879 0.930 . S
C822 C825 1.348 . S
C822 C826 1.356 . S
C822 O873 1.325 . S
C823 N824 1.279 . S
C823 C826 1.358 . S
C823 H880 0.930 . S
N824 C823 1.279 . S
N824 C827 1.314 . S
C825 C822 1.348 . S
C825 C827 1.353 . S
C825 H881 0.929 . S
C826 C822 1.356 . S
C826 C823 1.358 . S
C826 H882 0.930 . S
C827 N824 1.314 . S
C827 C825 1.353 . S
C827 H883 0.930 . S
C828 N829 1.314 . S
C828 C833 1.353 . S
C828 H834 0.930 . S
N829 Li812 1.990 . S
N829 C828 1.314 . S
N829 C831 1.279 . S
C830 C831 1.358 . S
C830 C832 1.356 . S
C830 H884 0.930 . S
C831 N829 1.279 . S
C831 C830 1.358 . S
C831 H835 0.930 . S
C832 C830 1.356 . S
C832 C833 1.348 . S
C833 C828 1.353 . S
C833 C832 1.348 . S
C833 H885 0.929 . S
H834 C828 0.930 . S
H835 C831 0.930 . S
C836 N837 1.314 . S
C836 C838 1.353 . S
C836 H842 0.930 . S
N837 Li813 1.990 . S
N837 C836 1.314 . S
N837 C840 1.279 . S
C838 C836 1.353 . S
C838 C841 1.348 . S
C838 H886 0.929 . S
C839 C840 1.358 . S
C839 C841 1.356 . S
C839 H887 0.930 . S
C840 N837 1.279 . S
C840 C839 1.358 . S
C840 H843 0.930 . S
C841 C838 1.348 . S
C841 C839 1.356 . S
H842 C836 0.930 . S
H843 C840 0.930 . S
C844 C846 1.348 . S
C844 C847 1.356 . S
C844 O874 1.325 . S
N845 C848 1.314 . S
N845 C849 1.279 . S
C846 C844 1.348 . S
C846 C848 1.353 . S
C846 H888 0.929 . S
C847 C844 1.356 . S
C847 C849 1.358 . S
C847 H889 0.930 . S
C848 N845 1.314 . S
C848 C846 1.353 . S
C848 H890 0.930 . S
C849 N845 1.279 . S
C849 C847 1.358 . S
C849 H891 0.930 . S
C850 C851 1.348 . S
C850 C852 1.356 . S
C850 O875 1.325 . S
C851 C850 1.348 . S
C851 C853 1.353 . S
C851 H892 0.929 . S
C852 C850 1.356 . S
C852 C854 1.358 . S
C852 H893 0.930 . S
C853 C851 1.353 . S
C853 N855 1.314 . S
C853 H894 0.930 . S
C854 C852 1.358 . S
C854 N855 1.279 . S
C854 H895 0.930 . S
N855 C853 1.314 . S
N855 C854 1.279 . S
C856 C858 1.353 . S
C856 N859 1.314 . S
C856 H862 0.930 . S
C857 N859 1.279 . S
C857 C860 1.358 . S
C857 H863 0.930 . S
C858 C856 1.353 . S
C858 C861 1.348 . S
C858 H896 0.929 . S
N859 Li814 1.990 . S
N859 C856 1.314 . S
N859 C857 1.279 . S
C860 C857 1.358 . S
C860 C861 1.356 . S
C860 H897 0.930 . S
C861 C858 1.348 . S
C861 C860 1.356 . S
H862 C856 0.930 . S
H863 C857 0.930 . S
C864 N865 1.314 . S
C864 C866 1.353 . S
C864 H870 0.930 . S
N865 Li815 1.990 . S
N865 C864 1.314 . S
N865 C868 1.279 . S
C866 C864 1.353 . S
C866 C869 1.348 . S
C866 H898 0.929 . S
C867 C868 1.358 . S
C867 C869 1.356 . S
C867 H899 0.930 . S
C868 N865 1.279 . S
C868 C867 1.358 . S
C868 H871 0.930 . S
C869 C866 1.348 . S
C869 C867 1.356 . S
H870 C864 0.930 . S
H871 C868 0.930 . S
O872 Li812 1.956 . S
O872 Li813 1.970 . S
O872 Li814 1.961 . S
O872 C816 1.325 . S
O873 Li812 1.970 . S
O873 Li813 1.956 . S
O873 Li815 1.961 . S
O873 C822 1.325 . S
O874 Li812 1.961 . S
O874 Li814 1.956 . S
O874 Li815 1.970 . S
O874 C844 1.325 . S
O875 Li813 1.961 . S
O875 Li814 1.970 . S
O875 Li815 1.956 . S
O875 C850 1.325 . S
H876 C818 0.929 . S
H877 C819 0.930 . S
H878 C820 0.930 . S
H879 C821 0.930 . S
H880 C823 0.930 . S
H881 C825 0.929 . S
H882 C826 0.930 . S
H883 C827 0.930 . S
H884 C830 0.930 . S
H885 C833 0.929 . S
H886 C838 0.929 . S
H887 C839 0.930 . S
H888 C846 0.929 . S
H889 C847 0.930 . S
H890 C848 0.930 . S
H891 C849 0.930 . S
H892 C851 0.929 . S
H893 C852 0.930 . S
H894 C853 0.930 . S
H895 C854 0.930 . S
H896 C858 0.929 . S
H897 C860 0.930 . S
H898 C866 0.929 . S
H899 C867 0.930 . S
C900 C901 1.349 . S
C900 C902 1.327 . S
C900 H925 0.950 . S
C901 C900 1.349 . S
C901 C917 1.349 . S
C902 C900 1.327 . S
C902 C921 1.429 . S
C902 H926 0.950 . S
C903 C920 1.574 . S
C903 C922 1.368 . S
C903 H927 0.949 . S
H904 C908 0.949 . S
C905 C906 1.349 . S
C905 C907 1.327 . S
C905 H928 0.950 . S
C906 C905 1.349 . S
C906 C918 1.349 . S
C907 C905 1.327 . S
C907 C923 1.429 . S
C907 H929 0.950 . S
C908 H904 0.949 . S
C908 C916 1.574 . S
C908 C924 1.368 . S
H909 C917 0.950 . S
H910 C915 0.950 . S
H911 C916 0.949 . S
H912 C918 0.950 . S
H913 C919 0.950 . S
H914 C920 0.949 . S
C915 H910 0.950 . S
C915 C917 1.327 . S
C915 C921 1.429 . S
C916 C908 1.574 . S
C916 H911 0.949 . S
C916 C922 1.368 . S
C917 C901 1.349 . S
C917 H909 0.950 . S
C917 C915 1.327 . S
C918 C906 1.349 . S
C918 H912 0.950 . S
C918 C919 1.327 . S
C919 H913 0.950 . S
C919 C918 1.327 . S
C919 C923 1.429 . S
C920 C903 1.574 . S
C920 H914 0.949 . S
C920 C924 1.368 . S
C921 C902 1.429 . S
C921 C915 1.429 . S
C921 C922 1.523 . S
C922 C903 1.368 . S
C922 C916 1.368 . S
C922 C921 1.523 . S
C923 C907 1.429 . S
C923 C919 1.429 . S
C923 C924 1.523 . S
C924 C908 1.368 . S
C924 C920 1.368 . S
C924 C923 1.523 . S
H925 C900 0.950 . S
H926 C902 0.950 . S
H927 C903 0.949 . S
H928 C905 0.950 . S
H929 C907 0.950 . S
C930 C931 1.349 . S
C930 C932 1.327 . S
C930 H955 0.950 . S
C931 C930 1.349 . S
C931 C947 1.349 . S
C932 C930 1.327 . S
C932 C951 1.429 . S
C932 H956 0.950 . S
C933 C950 1.574 . S
C933 C952 1.368 . S
C933 H957 0.949 . S
H934 C938 0.949 . S
C935 C936 1.349 . S
C935 C937 1.327 . S
C935 H958 0.950 . S
C936 C935 1.349 . S
C936 C948 1.349 . S
C937 C935 1.327 . S
C937 C953 1.429 . S
C937 H959 0.950 . S
C938 H934 0.949 . S
C938 C946 1.574 . S
C938 C954 1.368 . S
H939 C947 0.950 . S
H940 C945 0.950 . S
H941 C946 0.949 . S
H942 C948 0.950 . S
H943 C949 0.950 . S
H944 C950 0.949 . S
C945 H940 0.950 . S
C945 C947 1.327 . S
C945 C951 1.429 . S
C946 C938 1.574 . S
C946 H941 0.949 . S
C946 C952 1.368 . S
C947 C931 1.349 . S
C947 H939 0.950 . S
C947 C945 1.327 . S
C948 C936 1.349 . S
C948 H942 0.950 . S
C948 C949 1.327 . S
C949 H943 0.950 . S
C949 C948 1.327 . S
C949 C953 1.429 . S
C950 C933 1.574 . S
C950 H944 0.949 . S
C950 C954 1.368 . S
C951 C932 1.429 . S
C951 C945 1.429 . S
C951 C952 1.523 . S
C952 C933 1.368 . S
C952 C946 1.368 . S
C952 C951 1.523 . S
C953 C937 1.429 . S
C953 C949 1.429 . S
C953 C954 1.523 . S
C954 C938 1.368 . S
C954 C950 1.368 . S
C954 C953 1.523 . S
H955 C930 0.950 . S
H956 C932 0.950 . S
H957 C933 0.949 . S
H958 C935 0.950 . S
H959 C937 0.950 . S
C960 C961 1.349 . S
C960 C962 1.327 . S
C960 H985 0.950 . S
C961 C960 1.349 . S
C961 C977 1.349 . S
C962 C960 1.327 . S
C962 C981 1.429 . S
C962 H986 0.950 . S
C963 C980 1.574 . S
C963 C982 1.368 . S
C963 H987 0.949 . S
H964 C968 0.949 . S
C965 C966 1.349 . S
C965 C967 1.327 . S
C965 H988 0.950 . S
C966 C965 1.349 . S
C966 C978 1.349 . S
C967 C965 1.327 . S
C967 C983 1.429 . S
C967 H989 0.950 . S
C968 H964 0.949 . S
C968 C976 1.574 . S
C968 C984 1.368 . S
H969 C977 0.950 . S
H970 C975 0.950 . S
H971 C976 0.949 . S
H972 C978 0.950 . S
H973 C979 0.950 . S
H974 C980 0.949 . S
C975 H970 0.950 . S
C975 C977 1.327 . S
C975 C981 1.429 . S
C976 C968 1.574 . S
C976 H971 0.949 . S
C976 C982 1.368 . S
C977 C961 1.349 . S
C977 H969 0.950 . S
C977 C975 1.327 . S
C978 C966 1.349 . S
C978 H972 0.950 . S
C978 C979 1.327 . S
C979 H973 0.950 . S
C979 C978 1.327 . S
C979 C983 1.429 . S
C980 C963 1.574 . S
C980 H974 0.949 . S
C980 C984 1.368 . S
C981 C962 1.429 . S
C981 C975 1.429 . S
C981 C982 1.523 . S
C982 C963 1.368 . S
C982 C976 1.368 . S
C982 C981 1.523 . S
C983 C967 1.429 . S
C983 C979 1.429 . S
C983 C984 1.523 . S
C984 C968 1.368 . S
C984 C980 1.368 . S
C984 C983 1.523 . S
H985 C960 0.950 . S
H986 C962 0.950 . S
H987 C963 0.949 . S
H988 C965 0.950 . S
H989 C967 0.950 . S
C990 C991 1.349 . S
C990 C992 1.327 . S
C990 H1015 0.950 . S
C991 C990 1.349 . S
C991 C1007 1.349 . S
C992 C990 1.327 . S
C992 C1011 1.429 . S
C992 H1016 0.950 . S
C993 C1010 1.574 . S
C993 C1012 1.368 . S
C993 H1017 0.949 . S
H994 C998 0.949 . S
C995 C996 1.349 . S
C995 C997 1.327 . S
C995 H1018 0.950 . S
C996 C995 1.349 . S
C996 C1008 1.349 . S
C997 C995 1.327 . S
C997 C1013 1.429 . S
C997 H1019 0.950 . S
C998 H994 0.949 . S
C998 C1006 1.574 . S
C998 C1014 1.368 . S
H999 C1007 0.950 . S
H1000 C1005 0.950 . S
H1001 C1006 0.949 . S
H1002 C1008 0.950 . S
H1003 C1009 0.950 . S
H1004 C1010 0.949 . S
C1005 H1000 0.950 . S
C1005 C1007 1.327 . S
C1005 C1011 1.429 . S
C1006 C998 1.574 . S
C1006 H1001 0.949 . S
C1006 C1012 1.368 . S
C1007 C991 1.349 . S
C1007 H999 0.950 . S
C1007 C1005 1.327 . S
C1008 C996 1.349 . S
C1008 H1002 0.950 . S
C1008 C1009 1.327 . S
C1009 H1003 0.950 . S
C1009 C1008 1.327 . S
C1009 C1013 1.429 . S
C1010 C993 1.574 . S
C1010 H1004 0.949 . S
C1010 C1014 1.368 . S
C1011 C992 1.429 . S
C1011 C1005 1.429 . S
C1011 C1012 1.523 . S
C1012 C993 1.368 . S
C1012 C1006 1.368 . S
C1012 C1011 1.523 . S
C1013 C997 1.429 . S
C1013 C1009 1.429 . S
C1013 C1014 1.523 . S
C1014 C998 1.368 . S
C1014 C1010 1.368 . S
C1014 C1013 1.523 . S
H1015 C990 0.950 . S
H1016 C992 0.950 . S
H1017 C993 0.949 . S
H1018 C995 0.950 . S
H1019 C997 0.950 . S
C1020 C1021 1.349 . S
C1020 C1022 1.327 . S
C1020 H1045 0.950 . S
C1021 C1020 1.349 . S
C1021 C1037 1.349 . S
C1022 C1020 1.327 . S
C1022 C1041 1.429 . S
C1022 H1046 0.950 . S
C1023 C1040 1.574 . S
C1023 C1042 1.368 . S
C1023 H1047 0.949 . S
H1024 C1028 0.949 . S
C1025 C1026 1.349 . S
C1025 C1027 1.327 . S
C1025 H1048 0.950 . S
C1026 C1025 1.349 . S
C1026 C1038 1.349 . S
C1027 C1025 1.327 . S
C1027 C1043 1.429 . S
C1027 H1049 0.950 . S
C1028 H1024 0.949 . S
C1028 C1036 1.574 . S
C1028 C1044 1.368 . S
H1029 C1037 0.950 . S
H1030 C1035 0.950 . S
H1031 C1036 0.949 . S
H1032 C1038 0.950 . S
H1033 C1039 0.950 . S
H1034 C1040 0.949 . S
C1035 H1030 0.950 . S
C1035 C1037 1.327 . S
C1035 C1041 1.429 . S
C1036 C1028 1.574 . S
C1036 H1031 0.949 . S
C1036 C1042 1.368 . S
C1037 C1021 1.349 . S
C1037 H1029 0.950 . S
C1037 C1035 1.327 . S
C1038 C1026 1.349 . S
C1038 H1032 0.950 . S
C1038 C1039 1.327 . S
C1039 H1033 0.950 . S
C1039 C1038 1.327 . S
C1039 C1043 1.429 . S
C1040 C1023 1.574 . S
C1040 H1034 0.949 . S
C1040 C1044 1.368 . S
C1041 C1022 1.429 . S
C1041 C1035 1.429 . S
C1041 C1042 1.523 . S
C1042 C1023 1.368 . S
C1042 C1036 1.368 . S
C1042 C1041 1.523 . S
C1043 C1027 1.429 . S
C1043 C1039 1.429 . S
C1043 C1044 1.523 . S
C1044 C1028 1.368 . S
C1044 C1040 1.368 . S
C1044 C1043 1.523 . S
H1045 C1020 0.950 . S
H1046 C1022 0.950 . S
H1047 C1023 0.949 . S
H1048 C1025 0.950 . S
H1049 C1027 0.950 . S
C1050 C1051 1.349 . S
C1050 C1052 1.327 . S
C1050 H1075 0.950 . S
C1051 C1050 1.349 . S
C1051 C1067 1.349 . S
C1052 C1050 1.327 . S
C1052 C1071 1.429 . S
C1052 H1076 0.950 . S
C1053 C1070 1.574 . S
C1053 C1072 1.368 . S
C1053 H1077 0.949 . S
H1054 C1058 0.949 . S
C1055 C1056 1.349 . S
C1055 C1057 1.327 . S
C1055 H1078 0.950 . S
C1056 C1055 1.349 . S
C1056 C1068 1.349 . S
C1057 C1055 1.327 . S
C1057 C1073 1.429 . S
C1057 H1079 0.950 . S
C1058 H1054 0.949 . S
C1058 C1066 1.574 . S
C1058 C1074 1.368 . S
H1059 C1067 0.950 . S
H1060 C1065 0.950 . S
H1061 C1066 0.949 . S
H1062 C1068 0.950 . S
H1063 C1069 0.950 . S
H1064 C1070 0.949 . S
C1065 H1060 0.950 . S
C1065 C1067 1.327 . S
C1065 C1071 1.429 . S
C1066 C1058 1.574 . S
C1066 H1061 0.949 . S
C1066 C1072 1.368 . S
C1067 C1051 1.349 . S
C1067 H1059 0.950 . S
C1067 C1065 1.327 . S
C1068 C1056 1.349 . S
C1068 H1062 0.950 . S
C1068 C1069 1.327 . S
C1069 H1063 0.950 . S
C1069 C1068 1.327 . S
C1069 C1073 1.429 . S
C1070 C1053 1.574 . S
C1070 H1064 0.949 . S
C1070 C1074 1.368 . S
C1071 C1052 1.429 . S
C1071 C1065 1.429 . S
C1071 C1072 1.523 . S
C1072 C1053 1.368 . S
C1072 C1066 1.368 . S
C1072 C1071 1.523 . S
C1073 C1057 1.429 . S
C1073 C1069 1.429 . S
C1073 C1074 1.523 . S
C1074 C1058 1.368 . S
C1074 C1070 1.368 . S
C1074 C1073 1.523 . S
H1075 C1050 0.950 . S
H1076 C1052 0.950 . S
H1077 C1053 0.949 . S
H1078 C1055 0.950 . S
H1079 C1057 0.950 . S
C1080 C1081 1.349 . S
C1080 C1082 1.327 . S
C1080 H1105 0.950 . S
C1081 C1080 1.349 . S
C1081 C1097 1.349 . S
C1082 C1080 1.327 . S
C1082 C1101 1.429 . S
C1082 H1106 0.950 . S
C1083 C1100 1.574 . S
C1083 C1102 1.368 . S
C1083 H1107 0.949 . S
H1084 C1088 0.949 . S
C1085 C1086 1.349 . S
C1085 C1087 1.327 . S
C1085 H1108 0.950 . S
C1086 C1085 1.349 . S
C1086 C1098 1.349 . S
C1087 C1085 1.327 . S
C1087 C1103 1.429 . S
C1087 H1109 0.950 . S
C1088 H1084 0.949 . S
C1088 C1096 1.574 . S
C1088 C1104 1.368 . S
H1089 C1097 0.950 . S
H1090 C1095 0.950 . S
H1091 C1096 0.949 . S
H1092 C1098 0.950 . S
H1093 C1099 0.950 . S
H1094 C1100 0.949 . S
C1095 H1090 0.950 . S
C1095 C1097 1.327 . S
C1095 C1101 1.429 . S
C1096 C1088 1.574 . S
C1096 H1091 0.949 . S
C1096 C1102 1.368 . S
C1097 C1081 1.349 . S
C1097 H1089 0.950 . S
C1097 C1095 1.327 . S
C1098 C1086 1.349 . S
C1098 H1092 0.950 . S
C1098 C1099 1.327 . S
C1099 H1093 0.950 . S
C1099 C1098 1.327 . S
C1099 C1103 1.429 . S
C1100 C1083 1.574 . S
C1100 H1094 0.949 . S
C1100 C1104 1.368 . S
C1101 C1082 1.429 . S
C1101 C1095 1.429 . S
C1101 C1102 1.523 . S
C1102 C1083 1.368 . S
C1102 C1096 1.368 . S
C1102 C1101 1.523 . S
C1103 C1087 1.429 . S
C1103 C1099 1.429 . S
C1103 C1104 1.523 . S
C1104 C1088 1.368 . S
C1104 C1100 1.368 . S
C1104 C1103 1.523 . S
H1105 C1080 0.950 . S
H1106 C1082 0.950 . S
H1107 C1083 0.949 . S
H1108 C1085 0.950 . S
H1109 C1087 0.950 . S
C1110 C1111 1.349 . S
C1110 C1112 1.327 . S
C1110 H1135 0.950 . S
C1111 C1110 1.349 . S
C1111 C1127 1.349 . S
C1112 C1110 1.327 . S
C1112 C1131 1.429 . S
C1112 H1136 0.950 . S
C1113 C1130 1.574 . S
C1113 C1132 1.368 . S
C1113 H1137 0.949 . S
H1114 C1118 0.949 . S
C1115 C1116 1.349 . S
C1115 C1117 1.327 . S
C1115 H1138 0.950 . S
C1116 C1115 1.349 . S
C1116 C1128 1.349 . S
C1117 C1115 1.327 . S
C1117 C1133 1.429 . S
C1117 H1139 0.950 . S
C1118 H1114 0.949 . S
C1118 C1126 1.574 . S
C1118 C1134 1.368 . S
H1119 C1127 0.950 . S
H1120 C1125 0.950 . S
H1121 C1126 0.949 . S
H1122 C1128 0.950 . S
H1123 C1129 0.950 . S
H1124 C1130 0.949 . S
C1125 H1120 0.950 . S
C1125 C1127 1.327 . S
C1125 C1131 1.429 . S
C1126 C1118 1.574 . S
C1126 H1121 0.949 . S
C1126 C1132 1.368 . S
C1127 C1111 1.349 . S
C1127 H1119 0.950 . S
C1127 C1125 1.327 . S
C1128 C1116 1.349 . S
C1128 H1122 0.950 . S
C1128 C1129 1.327 . S
C1129 H1123 0.950 . S
C1129 C1128 1.327 . S
C1129 C1133 1.429 . S
C1130 C1113 1.574 . S
C1130 H1124 0.949 . S
C1130 C1134 1.368 . S
C1131 C1112 1.429 . S
C1131 C1125 1.429 . S
C1131 C1132 1.523 . S
C1132 C1113 1.368 . S
C1132 C1126 1.368 . S
C1132 C1131 1.523 . S
C1133 C1117 1.429 . S
C1133 C1129 1.429 . S
C1133 C1134 1.523 . S
C1134 C1118 1.368 . S
C1134 C1130 1.368 . S
C1134 C1133 1.523 . S
H1135 C1110 0.950 . S
H1136 C1112 0.950 . S
H1137 C1113 0.949 . S
H1138 C1115 0.950 . S
H1139 C1117 0.950 . S
C1140 C1141 1.349 . S
C1140 C1142 1.327 . S
C1140 H1165 0.950 . S
C1141 C1140 1.349 . S
C1141 C1157 1.349 . S
C1142 C1140 1.327 . S
C1142 C1161 1.429 . S
C1142 H1166 0.950 . S
C1143 C1160 1.574 . S
C1143 C1162 1.368 . S
C1143 H1167 0.949 . S
H1144 C1148 0.949 . S
C1145 C1146 1.349 . S
C1145 C1147 1.327 . S
C1145 H1168 0.950 . S
C1146 C1145 1.349 . S
C1146 C1158 1.349 . S
C1147 C1145 1.327 . S
C1147 C1163 1.429 . S
C1147 H1169 0.950 . S
C1148 H1144 0.949 . S
C1148 C1156 1.574 . S
C1148 C1164 1.368 . S
H1149 C1157 0.950 . S
H1150 C1155 0.950 . S
H1151 C1156 0.949 . S
H1152 C1158 0.950 . S
H1153 C1159 0.950 . S
H1154 C1160 0.949 . S
C1155 H1150 0.950 . S
C1155 C1157 1.327 . S
C1155 C1161 1.429 . S
C1156 C1148 1.574 . S
C1156 H1151 0.949 . S
C1156 C1162 1.368 . S
C1157 C1141 1.349 . S
C1157 H1149 0.950 . S
C1157 C1155 1.327 . S
C1158 C1146 1.349 . S
C1158 H1152 0.950 . S
C1158 C1159 1.327 . S
C1159 H1153 0.950 . S
C1159 C1158 1.327 . S
C1159 C1163 1.429 . S
C1160 C1143 1.574 . S
C1160 H1154 0.949 . S
C1160 C1164 1.368 . S
C1161 C1142 1.429 . S
C1161 C1155 1.429 . S
C1161 C1162 1.523 . S
C1162 C1143 1.368 . S
C1162 C1156 1.368 . S
C1162 C1161 1.523 . S
C1163 C1147 1.429 . S
C1163 C1159 1.429 . S
C1163 C1164 1.523 . S
C1164 C1148 1.368 . S
C1164 C1160 1.368 . S
C1164 C1163 1.523 . S
H1165 C1140 0.950 . S
H1166 C1142 0.950 . S
H1167 C1143 0.949 . S
H1168 C1145 0.950 . S
H1169 C1147 0.950 . S
C1170 C1171 1.349 . S
C1170 C1172 1.327 . S
C1170 H1195 0.950 . S
C1171 C1170 1.349 . S
C1171 C1187 1.349 . S
C1172 C1170 1.327 . S
C1172 C1191 1.429 . S
C1172 H1196 0.950 . S
C1173 C1190 1.574 . S
C1173 C1192 1.368 . S
C1173 H1197 0.949 . S
H1174 C1178 0.949 . S
C1175 C1176 1.349 . S
C1175 C1177 1.327 . S
C1175 H1198 0.950 . S
C1176 C1175 1.349 . S
C1176 C1188 1.349 . S
C1177 C1175 1.327 . S
C1177 C1193 1.429 . S
C1177 H1199 0.950 . S
C1178 H1174 0.949 . S
C1178 C1186 1.574 . S
C1178 C1194 1.368 . S
H1179 C1187 0.950 . S
H1180 C1185 0.950 . S
H1181 C1186 0.949 . S
H1182 C1188 0.950 . S
H1183 C1189 0.950 . S
H1184 C1190 0.949 . S
C1185 H1180 0.950 . S
C1185 C1187 1.327 . S
C1185 C1191 1.429 . S
C1186 C1178 1.574 . S
C1186 H1181 0.949 . S
C1186 C1192 1.368 . S
C1187 C1171 1.349 . S
C1187 H1179 0.950 . S
C1187 C1185 1.327 . S
C1188 C1176 1.349 . S
C1188 H1182 0.950 . S
C1188 C1189 1.327 . S
C1189 H1183 0.950 . S
C1189 C1188 1.327 . S
C1189 C1193 1.429 . S
C1190 C1173 1.574 . S
C1190 H1184 0.949 . S
C1190 C1194 1.368 . S
C1191 C1172 1.429 . S
C1191 C1185 1.429 . S
C1191 C1192 1.523 . S
C1192 C1173 1.368 . S
C1192 C1186 1.368 . S
C1192 C1191 1.523 . S
C1193 C1177 1.429 . S
C1193 C1189 1.429 . S
C1193 C1194 1.523 . S
C1194 C1178 1.368 . S
C1194 C1190 1.368 . S
C1194 C1193 1.523 . S
H1195 C1170 0.950 . S
H1196 C1172 0.950 . S
H1197 C1173 0.949 . S
H1198 C1175 0.950 . S
H1199 C1177 0.950 . S
C1200 C1201 1.349 . S
C1200 C1202 1.327 . S
C1200 H1225 0.950 . S
C1201 C1200 1.349 . S
C1201 C1217 1.349 . S
C1202 C1200 1.327 . S
C1202 C1221 1.429 . S
C1202 H1226 0.950 . S
C1203 C1220 1.574 . S
C1203 C1222 1.368 . S
C1203 H1227 0.949 . S
H1204 C1208 0.949 . S
C1205 C1206 1.349 . S
C1205 C1207 1.327 . S
C1205 H1228 0.950 . S
C1206 C1205 1.349 . S
C1206 C1218 1.349 . S
C1207 C1205 1.327 . S
C1207 C1223 1.429 . S
C1207 H1229 0.950 . S
C1208 H1204 0.949 . S
C1208 C1216 1.574 . S
C1208 C1224 1.368 . S
H1209 C1217 0.950 . S
H1210 C1215 0.950 . S
H1211 C1216 0.949 . S
H1212 C1218 0.950 . S
H1213 C1219 0.950 . S
H1214 C1220 0.949 . S
C1215 H1210 0.950 . S
C1215 C1217 1.327 . S
C1215 C1221 1.429 . S
C1216 C1208 1.574 . S
C1216 H1211 0.949 . S
C1216 C1222 1.368 . S
C1217 C1201 1.349 . S
C1217 H1209 0.950 . S
C1217 C1215 1.327 . S
C1218 C1206 1.349 . S
C1218 H1212 0.950 . S
C1218 C1219 1.327 . S
C1219 H1213 0.950 . S
C1219 C1218 1.327 . S
C1219 C1223 1.429 . S
C1220 C1203 1.574 . S
C1220 H1214 0.949 . S
C1220 C1224 1.368 . S
C1221 C1202 1.429 . S
C1221 C1215 1.429 . S
C1221 C1222 1.523 . S
C1222 C1203 1.368 . S
C1222 C1216 1.368 . S
C1222 C1221 1.523 . S
C1223 C1207 1.429 . S
C1223 C1219 1.429 . S
C1223 C1224 1.523 . S
C1224 C1208 1.368 . S
C1224 C1220 1.368 . S
C1224 C1223 1.523 . S
H1225 C1200 0.950 . S
H1226 C1202 0.950 . S
H1227 C1203 0.949 . S
H1228 C1205 0.950 . S
H1229 C1207 0.950 . S
C1230 C1231 1.349 . S
C1230 C1232 1.327 . S
C1230 H1255 0.950 . S
C1231 C1230 1.349 . S
C1231 C1247 1.349 . S
C1232 C1230 1.327 . S
C1232 C1251 1.429 . S
C1232 H1256 0.950 . S
C1233 C1250 1.574 . S
C1233 C1252 1.368 . S
C1233 H1257 0.949 . S
H1234 C1238 0.949 . S
C1235 C1236 1.349 . S
C1235 C1237 1.327 . S
C1235 H1258 0.950 . S
C1236 C1235 1.349 . S
C1236 C1248 1.349 . S
C1237 C1235 1.327 . S
C1237 C1253 1.429 . S
C1237 H1259 0.950 . S
C1238 H1234 0.949 . S
C1238 C1246 1.574 . S
C1238 C1254 1.368 . S
H1239 C1247 0.950 . S
H1240 C1245 0.950 . S
H1241 C1246 0.949 . S
H1242 C1248 0.950 . S
H1243 C1249 0.950 . S
H1244 C1250 0.949 . S
C1245 H1240 0.950 . S
C1245 C1247 1.327 . S
C1245 C1251 1.429 . S
C1246 C1238 1.574 . S
C1246 H1241 0.949 . S
C1246 C1252 1.368 . S
C1247 C1231 1.349 . S
C1247 H1239 0.950 . S
C1247 C1245 1.327 . S
C1248 C1236 1.349 . S
C1248 H1242 0.950 . S
C1248 C1249 1.327 . S
C1249 H1243 0.950 . S
C1249 C1248 1.327 . S
C1249 C1253 1.429 . S
C1250 C1233 1.574 . S
C1250 H1244 0.949 . S
C1250 C1254 1.368 . S
C1251 C1232 1.429 . S
C1251 C1245 1.429 . S
C1251 C1252 1.523 . S
C1252 C1233 1.368 . S
C1252 C1246 1.368 . S
C1252 C1251 1.523 . S
C1253 C1237 1.429 . S
C1253 C1249 1.429 . S
C1253 C1254 1.523 . S
C1254 C1238 1.368 . S
C1254 C1250 1.368 . S
C1254 C1253 1.523 . S
H1255 C1230 0.950 . S
H1256 C1232 0.950 . S
H1257 C1233 0.949 . S
H1258 C1235 0.950 . S
H1259 C1237 0.950 . S
C1260 C1261 1.349 . S
C1260 C1262 1.327 . S
C1260 H1285 0.950 . S
C1261 C1260 1.349 . S
C1261 C1277 1.349 . S
C1262 C1260 1.327 . S
C1262 C1281 1.429 . S
C1262 H1286 0.950 . S
C1263 C1280 1.574 . S
C1263 C1282 1.368 . S
C1263 H1287 0.949 . S
H1264 C1268 0.949 . S
C1265 C1266 1.349 . S
C1265 C1267 1.327 . S
C1265 H1288 0.950 . S
C1266 C1265 1.349 . S
C1266 C1278 1.349 . S
C1267 C1265 1.327 . S
C1267 C1283 1.429 . S
C1267 H1289 0.950 . S
C1268 H1264 0.949 . S
C1268 C1276 1.574 . S
C1268 C1284 1.368 . S
H1269 C1277 0.950 . S
H1270 C1275 0.950 . S
H1271 C1276 0.949 . S
H1272 C1278 0.950 . S
H1273 C1279 0.950 . S
H1274 C1280 0.949 . S
C1275 H1270 0.950 . S
C1275 C1277 1.327 . S
C1275 C1281 1.429 . S
C1276 C1268 1.574 . S
C1276 H1271 0.949 . S
C1276 C1282 1.368 . S
C1277 C1261 1.349 . S
C1277 H1269 0.950 . S
C1277 C1275 1.327 . S
C1278 C1266 1.349 . S
C1278 H1272 0.950 . S
C1278 C1279 1.327 . S
C1279 H1273 0.950 . S
C1279 C1278 1.327 . S
C1279 C1283 1.429 . S
C1280 C1263 1.574 . S
C1280 H1274 0.949 . S
C1280 C1284 1.368 . S
C1281 C1262 1.429 . S
C1281 C1275 1.429 . S
C1281 C1282 1.523 . S
C1282 C1263 1.368 . S
C1282 C1276 1.368 . S
C1282 C1281 1.523 . S
C1283 C1267 1.429 . S
C1283 C1279 1.429 . S
C1283 C1284 1.523 . S
C1284 C1268 1.368 . S
C1284 C1280 1.368 . S
C1284 C1283 1.523 . S
H1285 C1260 0.950 . S
H1286 C1262 0.950 . S
H1287 C1263 0.949 . S
H1288 C1265 0.950 . S
H1289 C1267 0.950 . S
C1290 C1291 1.349 . S
C1290 C1292 1.327 . S
C1290 H1315 0.950 . S
C1291 C1290 1.349 . S
C1291 C1307 1.349 . S
C1292 C1290 1.327 . S
C1292 C1311 1.429 . S
C1292 H1316 0.950 . S
C1293 C1310 1.574 . S
C1293 C1312 1.368 . S
C1293 H1317 0.949 . S
H1294 C1298 0.949 . S
C1295 C1296 1.349 . S
C1295 C1297 1.327 . S
C1295 H1318 0.950 . S
C1296 C1295 1.349 . S
C1296 C1308 1.349 . S
C1297 C1295 1.327 . S
C1297 C1313 1.429 . S
C1297 H1319 0.950 . S
C1298 H1294 0.949 . S
C1298 C1306 1.574 . S
C1298 C1314 1.368 . S
H1299 C1307 0.950 . S
H1300 C1305 0.950 . S
H1301 C1306 0.949 . S
H1302 C1308 0.950 . S
H1303 C1309 0.950 . S
H1304 C1310 0.949 . S
C1305 H1300 0.950 . S
C1305 C1307 1.327 . S
C1305 C1311 1.429 . S
C1306 C1298 1.574 . S
C1306 H1301 0.949 . S
C1306 C1312 1.368 . S
C1307 C1291 1.349 . S
C1307 H1299 0.950 . S
C1307 C1305 1.327 . S
C1308 C1296 1.349 . S
C1308 H1302 0.950 . S
C1308 C1309 1.327 . S
C1309 H1303 0.950 . S
C1309 C1308 1.327 . S
C1309 C1313 1.429 . S
C1310 C1293 1.574 . S
C1310 H1304 0.949 . S
C1310 C1314 1.368 . S
C1311 C1292 1.429 . S
C1311 C1305 1.429 . S
C1311 C1312 1.523 . S
C1312 C1293 1.368 . S
C1312 C1306 1.368 . S
C1312 C1311 1.523 . S
C1313 C1297 1.429 . S
C1313 C1309 1.429 . S
C1313 C1314 1.523 . S
C1314 C1298 1.368 . S
C1314 C1310 1.368 . S
C1314 C1313 1.523 . S
H1315 C1290 0.950 . S
H1316 C1292 0.950 . S
H1317 C1293 0.949 . S
H1318 C1295 0.950 . S
H1319 C1297 0.950 . S
C1320 C1321 1.349 . S
C1320 C1322 1.327 . S
C1320 H1345 0.950 . S
C1321 C1320 1.349 . S
C1321 C1337 1.349 . S
C1322 C1320 1.327 . S
C1322 C1341 1.429 . S
C1322 H1346 0.950 . S
C1323 C1340 1.574 . S
C1323 C1342 1.368 . S
C1323 H1347 0.949 . S
H1324 C1328 0.949 . S
C1325 C1326 1.349 . S
C1325 C1327 1.327 . S
C1325 H1348 0.950 . S
C1326 C1325 1.349 . S
C1326 C1338 1.349 . S
C1327 C1325 1.327 . S
C1327 C1343 1.429 . S
C1327 H1349 0.950 . S
C1328 H1324 0.949 . S
C1328 C1336 1.574 . S
C1328 C1344 1.368 . S
H1329 C1337 0.950 . S
H1330 C1335 0.950 . S
H1331 C1336 0.949 . S
H1332 C1338 0.950 . S
H1333 C1339 0.950 . S
H1334 C1340 0.949 . S
C1335 H1330 0.950 . S
C1335 C1337 1.327 . S
C1335 C1341 1.429 . S
C1336 C1328 1.574 . S
C1336 H1331 0.949 . S
C1336 C1342 1.368 . S
C1337 C1321 1.349 . S
C1337 H1329 0.950 . S
C1337 C1335 1.327 . S
C1338 C1326 1.349 . S
C1338 H1332 0.950 . S
C1338 C1339 1.327 . S
C1339 H1333 0.950 . S
C1339 C1338 1.327 . S
C1339 C1343 1.429 . S
C1340 C1323 1.574 . S
C1340 H1334 0.949 . S
C1340 C1344 1.368 . S
C1341 C1322 1.429 . S
C1341 C1335 1.429 . S
C1341 C1342 1.523 . S
C1342 C1323 1.368 . S
C1342 C1336 1.368 . S
C1342 C1341 1.523 . S
C1343 C1327 1.429 . S
C1343 C1339 1.429 . S
C1343 C1344 1.523 . S
C1344 C1328 1.368 . S
C1344 C1340 1.368 . S
C1344 C1343 1.523 . S
H1345 C1320 0.950 . S
H1346 C1322 0.950 . S
H1347 C1323 0.949 . S
H1348 C1325 0.950 . S
H1349 C1327 0.950 . S
C1350 C1351 1.349 . S
C1350 C1352 1.327 . S
C1350 H1375 0.950 . S
C1351 C1350 1.349 . S
C1351 C1367 1.349 . S
C1352 C1350 1.327 . S
C1352 C1371 1.429 . S
C1352 H1376 0.950 . S
C1353 C1370 1.574 . S
C1353 C1372 1.368 . S
C1353 H1377 0.949 . S
H1354 C1358 0.949 . S
C1355 C1356 1.378 . S
C1355 C1357 1.327 . S
C1355 H1378 0.950 . S
C1356 C1355 1.378 . S
C1356 C1368 1.345 1_556 S
C1357 C1355 1.327 . S
C1357 C1373 1.429 . S
C1357 H1379 0.950 . S
C1358 H1354 0.949 . S
C1358 C1366 1.574 . S
C1358 C1374 1.368 . S
H1359 C1367 0.950 . S
H1360 C1365 0.950 . S
H1361 C1366 0.949 . S
H1362 C1368 0.986 . S
H1363 C1369 0.950 . S
H1364 C1370 0.949 . S
C1365 H1360 0.950 . S
C1365 C1367 1.327 . S
C1365 C1371 1.429 . S
C1366 C1358 1.574 . S
C1366 H1361 0.949 . S
C1366 C1372 1.368 . S
C1367 C1351 1.349 . S
C1367 H1359 0.950 . S
C1367 C1365 1.327 . S
C1368 C1356 1.345 1_554 S
C1368 H1362 0.986 . S
C1368 C1369 1.296 1_554 S
C1369 H1363 0.950 . S
C1369 C1368 1.296 1_556 S
C1369 C1373 1.429 . S
C1370 C1353 1.574 . S
C1370 H1364 0.949 . S
C1370 C1374 1.368 . S
C1371 C1352 1.429 . S
C1371 C1365 1.429 . S
C1371 C1372 1.523 . S
C1372 C1353 1.368 . S
C1372 C1366 1.368 . S
C1372 C1371 1.523 . S
C1373 C1357 1.429 . S
C1373 C1369 1.429 . S
C1373 C1374 1.523 . S
C1374 C1358 1.368 . S
C1374 C1370 1.368 . S
C1374 C1373 1.523 . S
H1375 C1350 0.950 . S
H1376 C1352 0.950 . S
H1377 C1353 0.949 . S
H1378 C1355 0.950 . S
H1379 C1357 0.950 . S
C1380 C1381 1.349 . S
C1380 C1382 1.327 . S
C1380 H1405 0.950 . S
C1381 C1380 1.349 . S
C1381 C1397 1.349 . S
C1382 C1380 1.327 . S
C1382 C1401 1.429 . S
C1382 H1406 0.950 . S
C1383 C1400 1.574 . S
C1383 C1402 1.368 . S
C1383 H1407 0.949 . S
H1384 C1388 0.949 . S
C1385 C1386 1.349 . S
C1385 C1387 1.327 . S
C1385 H1408 0.950 . S
C1386 C1385 1.349 . S
C1386 C1398 1.349 . S
C1387 C1385 1.327 . S
C1387 C1403 1.429 . S
C1387 H1409 0.950 . S
C1388 H1384 0.949 . S
C1388 C1396 1.574 . S
C1388 C1404 1.368 . S
H1389 C1397 0.950 . S
H1390 C1395 0.950 . S
H1391 C1396 0.949 . S
H1392 C1398 0.950 . S
H1393 C1399 0.950 . S
H1394 C1400 0.949 . S
C1395 H1390 0.950 . S
C1395 C1397 1.327 . S
C1395 C1401 1.429 . S
C1396 C1388 1.574 . S
C1396 H1391 0.949 . S
C1396 C1402 1.368 . S
C1397 C1381 1.349 . S
C1397 H1389 0.950 . S
C1397 C1395 1.327 . S
C1398 C1386 1.349 . S
C1398 H1392 0.950 . S
C1398 C1399 1.327 . S
C1399 H1393 0.950 . S
C1399 C1398 1.327 . S
C1399 C1403 1.429 . S
C1400 C1383 1.574 . S
C1400 H1394 0.949 . S
C1400 C1404 1.368 . S
C1401 C1382 1.429 . S
C1401 C1395 1.429 . S
C1401 C1402 1.523 . S
C1402 C1383 1.368 . S
C1402 C1396 1.368 . S
C1402 C1401 1.523 . S
C1403 C1387 1.429 . S
C1403 C1399 1.429 . S
C1403 C1404 1.523 . S
C1404 C1388 1.368 . S
C1404 C1400 1.368 . S
C1404 C1403 1.523 . S
H1405 C1380 0.950 . S
H1406 C1382 0.950 . S
H1407 C1383 0.949 . S
H1408 C1385 0.950 . S
H1409 C1387 0.950 . S
C1410 C1411 1.349 . S
C1410 C1412 1.327 . S
C1410 H1435 0.950 . S
C1411 C1410 1.349 . S
C1411 C1427 1.349 . S
C1412 C1410 1.327 . S
C1412 C1431 1.429 . S
C1412 H1436 0.950 . S
C1413 C1430 1.574 . S
C1413 C1432 1.368 . S
C1413 H1437 0.949 . S
H1414 C1418 0.949 . S
C1415 C1416 1.349 . S
C1415 C1417 1.327 . S
C1415 H1438 0.950 . S
C1416 C1415 1.349 . S
C1416 C1428 1.349 . S
C1417 C1415 1.327 . S
C1417 C1433 1.429 . S
C1417 H1439 0.950 . S
C1418 H1414 0.949 . S
C1418 C1426 1.574 . S
C1418 C1434 1.368 . S
H1419 C1427 0.950 . S
H1420 C1425 0.950 . S
H1421 C1426 0.949 . S
H1422 C1428 0.950 . S
H1423 C1429 0.950 . S
H1424 C1430 0.949 . S
C1425 H1420 0.950 . S
C1425 C1427 1.327 . S
C1425 C1431 1.429 . S
C1426 C1418 1.574 . S
C1426 H1421 0.949 . S
C1426 C1432 1.368 . S
C1427 C1411 1.349 . S
C1427 H1419 0.950 . S
C1427 C1425 1.327 . S
C1428 C1416 1.349 . S
C1428 H1422 0.950 . S
C1428 C1429 1.327 . S
C1429 H1423 0.950 . S
C1429 C1428 1.327 . S
C1429 C1433 1.429 . S
C1430 C1413 1.574 . S
C1430 H1424 0.949 . S
C1430 C1434 1.368 . S
C1431 C1412 1.429 . S
C1431 C1425 1.429 . S
C1431 C1432 1.523 . S
C1432 C1413 1.368 . S
C1432 C1426 1.368 . S
C1432 C1431 1.523 . S
C1433 C1417 1.429 . S
C1433 C1429 1.429 . S
C1433 C1434 1.523 . S
C1434 C1418 1.368 . S
C1434 C1430 1.368 . S
C1434 C1433 1.523 . S
H1435 C1410 0.950 . S
H1436 C1412 0.950 . S
H1437 C1413 0.949 . S
H1438 C1415 0.950 . S
H1439 C1417 0.950 . S
C1440 C1441 1.349 . S
C1440 C1442 1.327 . S
C1440 H1465 0.950 . S
C1441 C1440 1.349 . S
C1441 C1457 1.349 . S
C1442 C1440 1.327 . S
C1442 C1461 1.429 . S
C1442 H1466 0.950 . S
C1443 C1460 1.574 . S
C1443 C1462 1.368 . S
C1443 H1467 0.949 . S
H1444 C1448 0.949 . S
C1445 C1446 1.349 . S
C1445 C1447 1.327 . S
C1445 H1468 0.950 . S
C1446 C1445 1.349 . S
C1446 C1458 1.349 . S
C1447 C1445 1.327 . S
C1447 C1463 1.429 . S
C1447 H1469 0.950 . S
C1448 H1444 0.949 . S
C1448 C1456 1.574 . S
C1448 C1464 1.368 . S
H1449 C1457 0.950 . S
H1450 C1455 0.950 . S
H1451 C1456 0.949 . S
H1452 C1458 0.950 . S
H1453 C1459 0.950 . S
H1454 C1460 0.949 . S
C1455 H1450 0.950 . S
C1455 C1457 1.327 . S
C1455 C1461 1.429 . S
C1456 C1448 1.574 . S
C1456 H1451 0.949 . S
C1456 C1462 1.368 . S
C1457 C1441 1.349 . S
C1457 H1449 0.950 . S
C1457 C1455 1.327 . S
C1458 C1446 1.349 . S
C1458 H1452 0.950 . S
C1458 C1459 1.327 . S
C1459 H1453 0.950 . S
C1459 C1458 1.327 . S
C1459 C1463 1.429 . S
C1460 C1443 1.574 . S
C1460 H1454 0.949 . S
C1460 C1464 1.368 . S
C1461 C1442 1.429 . S
C1461 C1455 1.429 . S
C1461 C1462 1.523 . S
C1462 C1443 1.368 . S
C1462 C1456 1.368 . S
C1462 C1461 1.523 . S
C1463 C1447 1.429 . S
C1463 C1459 1.429 . S
C1463 C1464 1.523 . S
C1464 C1448 1.368 . S
C1464 C1460 1.368 . S
C1464 C1463 1.523 . S
H1465 C1440 0.950 . S
H1466 C1442 0.950 . S
H1467 C1443 0.949 . S
H1468 C1445 0.950 . S
H1469 C1447 0.950 . S
C1470 C1471 1.349 . S
C1470 C1472 1.327 . S
C1470 H1495 0.950 . S
C1471 C1470 1.349 . S
C1471 C1487 1.349 . S
C1472 C1470 1.327 . S
C1472 C1491 1.429 . S
C1472 H1496 0.950 . S
C1473 C1490 1.574 . S
C1473 C1492 1.368 . S
C1473 H1497 0.949 . S
H1474 C1478 0.949 . S
C1475 C1476 1.349 . S
C1475 C1477 1.327 . S
C1475 H1498 0.950 . S
C1476 C1475 1.349 . S
C1476 C1488 1.349 . S
C1477 C1475 1.327 . S
C1477 C1493 1.429 . S
C1477 H1499 0.950 . S
C1478 H1474 0.949 . S
C1478 C1486 1.574 . S
C1478 C1494 1.368 . S
H1479 C1487 0.950 . S
H1480 C1485 0.950 . S
H1481 C1486 0.949 . S
H1482 C1488 0.950 . S
H1483 C1489 0.950 . S
H1484 C1490 0.949 . S
C1485 H1480 0.950 . S
C1485 C1487 1.327 . S
C1485 C1491 1.429 . S
C1486 C1478 1.574 . S
C1486 H1481 0.949 . S
C1486 C1492 1.368 . S
C1487 C1471 1.349 . S
C1487 H1479 0.950 . S
C1487 C1485 1.327 . S
C1488 C1476 1.349 . S
C1488 H1482 0.950 . S
C1488 C1489 1.327 . S
C1489 H1483 0.950 . S
C1489 C1488 1.327 . S
C1489 C1493 1.429 . S
C1490 C1473 1.574 . S
C1490 H1484 0.949 . S
C1490 C1494 1.368 . S
C1491 C1472 1.429 . S
C1491 C1485 1.429 . S
C1491 C1492 1.523 . S
C1492 C1473 1.368 . S
C1492 C1486 1.368 . S
C1492 C1491 1.523 . S
C1493 C1477 1.429 . S
C1493 C1489 1.429 . S
C1493 C1494 1.523 . S
C1494 C1478 1.368 . S
C1494 C1490 1.368 . S
C1494 C1493 1.523 . S
H1495 C1470 0.950 . S
H1496 C1472 0.950 . S
H1497 C1473 0.949 . S
H1498 C1475 0.950 . S
H1499 C1477 0.950 . S
C1500 C1501 1.349 . S
C1500 C1502 1.327 . S
C1500 H1525 0.950 . S
C1501 C1500 1.349 . S
C1501 C1517 1.349 . S
C1502 C1500 1.327 . S
C1502 C1521 1.429 . S
C1502 H1526 0.950 . S
C1503 C1520 1.574 . S
C1503 C1522 1.368 . S
C1503 H1527 0.949 . S
H1504 C1508 0.949 . S
C1505 C1506 1.349 . S
C1505 C1507 1.327 . S
C1505 H1528 0.950 . S
C1506 C1505 1.349 . S
C1506 C1518 1.349 . S
C1507 C1505 1.327 . S
C1507 C1523 1.429 . S
C1507 H1529 0.950 . S
C1508 H1504 0.949 . S
C1508 C1516 1.574 . S
C1508 C1524 1.368 . S
H1509 C1517 0.950 . S
H1510 C1515 0.950 . S
H1511 C1516 0.949 . S
H1512 C1518 0.950 . S
H1513 C1519 0.950 . S
H1514 C1520 0.949 . S
C1515 H1510 0.950 . S
C1515 C1517 1.327 . S
C1515 C1521 1.429 . S
C1516 C1508 1.574 . S
C1516 H1511 0.949 . S
C1516 C1522 1.368 . S
C1517 C1501 1.349 . S
C1517 H1509 0.950 . S
C1517 C1515 1.327 . S
C1518 C1506 1.349 . S
C1518 H1512 0.950 . S
C1518 C1519 1.327 . S
C1519 H1513 0.950 . S
C1519 C1518 1.327 . S
C1519 C1523 1.429 . S
C1520 C1503 1.574 . S
C1520 H1514 0.949 . S
C1520 C1524 1.368 . S
C1521 C1502 1.429 . S
C1521 C1515 1.429 . S
C1521 C1522 1.523 . S
C1522 C1503 1.368 . S
C1522 C1516 1.368 . S
C1522 C1521 1.523 . S
C1523 C1507 1.429 . S
C1523 C1519 1.429 . S
C1523 C1524 1.523 . S
C1524 C1508 1.368 . S
C1524 C1520 1.368 . S
C1524 C1523 1.523 . S
H1525 C1500 0.950 . S
H1526 C1502 0.950 . S
H1527 C1503 0.949 . S
H1528 C1505 0.950 . S
H1529 C1507 0.950 . S
C1530 C1531 1.349 . S
C1530 C1532 1.327 . S
C1530 H1555 0.950 . S
C1531 C1530 1.349 . S
C1531 C1547 1.349 . S
C1532 C1530 1.327 . S
C1532 C1551 1.429 . S
C1532 H1556 0.950 . S
C1533 C1550 1.574 . S
C1533 C1552 1.368 . S
C1533 H1557 0.949 . S
H1534 C1538 0.949 . S
C1535 C1536 1.349 . S
C1535 C1537 1.327 . S
C1535 H1558 0.950 . S
C1536 C1535 1.349 . S
C1536 C1548 1.349 . S
C1537 C1535 1.327 . S
C1537 C1553 1.429 . S
C1537 H1559 0.950 . S
C1538 H1534 0.949 . S
C1538 C1546 1.574 . S
C1538 C1554 1.368 . S
H1539 C1547 0.950 . S
H1540 C1545 0.950 . S
H1541 C1546 0.949 . S
H1542 C1548 0.950 . S
H1543 C1549 0.950 . S
H1544 C1550 0.949 . S
C1545 H1540 0.950 . S
C1545 C1547 1.327 . S
C1545 C1551 1.429 . S
C1546 C1538 1.574 . S
C1546 H1541 0.949 . S
C1546 C1552 1.368 . S
C1547 C1531 1.349 . S
C1547 H1539 0.950 . S
C1547 C1545 1.327 . S
C1548 C1536 1.349 . S
C1548 H1542 0.950 . S
C1548 C1549 1.327 . S
C1549 H1543 0.950 . S
C1549 C1548 1.327 . S
C1549 C1553 1.429 . S
C1550 C1533 1.574 . S
C1550 H1544 0.949 . S
C1550 C1554 1.368 . S
C1551 C1532 1.429 . S
C1551 C1545 1.429 . S
C1551 C1552 1.523 . S
C1552 C1533 1.368 . S
C1552 C1546 1.368 . S
C1552 C1551 1.523 . S
C1553 C1537 1.429 . S
C1553 C1549 1.429 . S
C1553 C1554 1.523 . S
C1554 C1538 1.368 . S
C1554 C1550 1.368 . S
C1554 C1553 1.523 . S
H1555 C1530 0.950 . S
H1556 C1532 0.950 . S
H1557 C1533 0.949 . S
H1558 C1535 0.950 . S
H1559 C1537 0.950 . S
C1560 C1561 1.349 . S
C1560 C1562 1.327 . S
C1560 H1585 0.950 . S
C1561 C1560 1.349 . S
C1561 C1577 1.349 . S
C1562 C1560 1.327 . S
C1562 C1581 1.429 . S
C1562 H1586 0.950 . S
C1563 C1580 1.574 . S
C1563 C1582 1.368 . S
C1563 H1587 0.949 . S
H1564 C1568 0.949 . S
C1565 C1566 1.349 . S
C1565 C1567 1.357 . S
C1565 H1588 0.950 . S
C1566 C1565 1.349 . S
C1566 C1578 1.349 1_556 S
C1567 C1565 1.357 . S
C1567 C1583 1.392 1_556 S
C1567 H1589 0.958 . S
C1568 H1564 0.949 . S
C1568 C1576 1.574 . S
C1568 C1584 1.368 . S
H1569 C1577 0.950 . S
H1570 C1575 0.950 . S
H1571 C1576 0.949 . S
H1572 C1578 0.950 . S
H1573 C1579 0.950 . S
H1574 C1580 0.949 . S
C1575 H1570 0.950 . S
C1575 C1577 1.327 . S
C1575 C1581 1.429 . S
C1576 C1568 1.574 . S
C1576 H1571 0.949 . S
C1576 C1582 1.368 . S
C1577 C1561 1.349 . S
C1577 H1569 0.950 . S
C1577 C1575 1.327 . S
C1578 C1566 1.349 1_554 S
C1578 H1572 0.950 . S
C1578 C1579 1.327 . S
C1579 H1573 0.950 . S
C1579 C1578 1.327 . S
C1579 C1583 1.429 . S
C1580 C1563 1.574 . S
C1580 H1574 0.949 . S
C1580 C1584 1.368 . S
C1581 C1562 1.429 . S
C1581 C1575 1.429 . S
C1581 C1582 1.523 . S
C1582 C1563 1.368 . S
C1582 C1576 1.368 . S
C1582 C1581 1.523 . S
C1583 C1567 1.392 1_554 S
C1583 C1579 1.429 . S
C1583 C1584 1.523 . S
C1584 C1568 1.368 . S
C1584 C1580 1.368 . S
C1584 C1583 1.523 . S
H1585 C1560 0.950 . S
H1586 C1562 0.950 . S
H1587 C1563 0.949 . S
H1588 C1565 0.950 . S
H1589 C1567 0.958 . S
C1590 C1591 1.349 . S
C1590 C1592 1.327 . S
C1590 H1615 0.950 . S
C1591 C1590 1.349 . S
C1591 C1607 1.349 . S
C1592 C1590 1.327 . S
C1592 C1611 1.429 . S
C1592 H1616 0.950 . S
C1593 C1610 1.574 . S
C1593 C1612 1.368 . S
C1593 H1617 0.949 . S
H1594 C1598 0.949 . S
C1595 C1596 1.349 . S
C1595 C1597 1.327 . S
C1595 H1618 0.950 . S
C1596 C1595 1.349 . S
C1596 C1608 1.349 . S
C1597 C1595 1.327 . S
C1597 C1613 1.429 . S
C1597 H1619 0.950 . S
C1598 H1594 0.949 . S
C1598 C1606 1.574 . S
C1598 C1614 1.368 . S
H1599 C1607 0.950 . S
H1600 C1605 0.950 . S
H1601 C1606 0.949 . S
H1602 C1608 0.950 . S
H1603 C1609 0.950 . S
H1604 C1610 0.949 . S
C1605 H1600 0.950 . S
C1605 C1607 1.327 . S
C1605 C1611 1.429 . S
C1606 C1598 1.574 . S
C1606 H1601 0.949 . S
C1606 C1612 1.368 . S
C1607 C1591 1.349 . S
C1607 H1599 0.950 . S
C1607 C1605 1.327 . S
C1608 C1596 1.349 . S
C1608 H1602 0.950 . S
C1608 C1609 1.327 . S
C1609 H1603 0.950 . S
C1609 C1608 1.327 . S
C1609 C1613 1.429 . S
C1610 C1593 1.574 . S
C1610 H1604 0.949 . S
C1610 C1614 1.368 . S
C1611 C1592 1.429 . S
C1611 C1605 1.429 . S
C1611 C1612 1.523 . S
C1612 C1593 1.368 . S
C1612 C1606 1.368 . S
C1612 C1611 1.523 . S
C1613 C1597 1.429 . S
C1613 C1609 1.429 . S
C1613 C1614 1.523 . S
C1614 C1598 1.368 . S
C1614 C1610 1.368 . S
C1614 C1613 1.523 . S
H1615 C1590 0.950 . S
H1616 C1592 0.950 . S
H1617 C1593 0.949 . S
H1618 C1595 0.950 . S
H1619 C1597 0.950 . S
C906 C841 1.679 . S
C901 C29 1.610 . S
C931 C115 1.547 . S
C936 C401 1.561 . S
C961 C153 1.595 . S
C966 C489 1.671 . S
C991 C239 1.571 . S
C996 C568 1.582 . S
C1026 C665 1.606 . S
C1021 C301 1.584 . S
C1051 C339 1.880 . S
C1056 C744 1.969 . S
C1081 C91 1.596 . S
C1086 C509 1.671 . S
C1111 C177 1.547 . S
C1116 C605 1.561 . S
C1141 C215 1.610 . S
C1146 C685 1.679 . S
C1176 C781 1.970 . S
C1171 C277 1.881 . S
C1206 C861 1.606 . S
C1201 C363 1.584 . S
C1236 C421 1.582 . S
C1231 C53 1.571 . S
C1261 C35 1.521 . S
C1266 C517 1.551 . S
C1291 C109 1.384 . S
C1296 C597 1.497 . S
C1326 C693 1.411 . S
C1321 C159 1.386 . S
C1351 C233 1.607 . S
C1356 C773 1.704 1_556 S
C1386 C869 1.534 . S
C1381 C295 1.406 . S
C1416 C429 1.327 . S
C1411 C345 1.305 . S
C1446 C832 1.412 . S
C1441 C97 1.386 . S
C1471 C171 1.383 . S
C1476 C392 1.497 . S
C1506 C480 1.551 . S
C1501 C221 1.521 . S
C1531 C283 1.305 . S
C1536 C577 1.327 . S
C1561 C357 1.405 . S
C1566 C656 1.533 . S
C1591 C47 1.607 . S
C1596 C753 1.732 . S
