# Generated by pormake.
# Topology pyr, (3,6)-cn, num edge types: 1
# Building blocks:
#     Node 0, Type 0, BuildingBlock: KAKCAD_clean_linker_0, # of connection points: 3
#     Node 1, Type 0, BuildingBlock: KAKCAD_clean_linker_0, # of connection points: 3
#     Node 2, Type 0, BuildingBlock: KAKCAD_clean_linker_0, # of connection points: 3
#     Node 3, Type 0, BuildingBlock: KAKCAD_clean_linker_0, # of connection points: 3
#     Node 4, Type 0, BuildingBlock: KAKCAD_clean_linker_0, # of connection points: 3
#     Node 5, Type 0, BuildingBlock: KAKCAD_clean_linker_0, # of connection points: 3
#     Node 6, Type 0, BuildingBlock: KAKCAD_clean_linker_0, # of connection points: 3
#     Node 7, Type 0, BuildingBlock: KAKCAD_clean_linker_0, # of connection points: 3
#     Node 8, Type 1, BuildingBlock: FUNLAD_clean_sbu_0, # of connection points: 6
#     Node 9, Type 1, BuildingBlock: FUNLAD_clean_sbu_0, # of connection points: 6
#     Node 10, Type 1, BuildingBlock: FUNLAD_clean_sbu_0, # of connection points: 6
#     Node 11, Type 1, BuildingBlock: FUNLAD_clean_sbu_0, # of connection points: 6
#     Edge 12, Type (0, 1), BuildingBlock: XUDNAN_clean_linker_2, # of connection points: 2
#     Edge 13, Type (0, 1), BuildingBlock: XUDNAN_clean_linker_2, # of connection points: 2
#     Edge 14, Type (0, 1), BuildingBlock: XUDNAN_clean_linker_2, # of connection points: 2
#     Edge 15, Type (0, 1), BuildingBlock: XUDNAN_clean_linker_2, # of connection points: 2
#     Edge 16, Type (0, 1), BuildingBlock: XUDNAN_clean_linker_2, # of connection points: 2
#     Edge 17, Type (0, 1), BuildingBlock: XUDNAN_clean_linker_2, # of connection points: 2
#     Edge 18, Type (0, 1), BuildingBlock: XUDNAN_clean_linker_2, # of connection points: 2
#     Edge 19, Type (0, 1), BuildingBlock: XUDNAN_clean_linker_2, # of connection points: 2
#     Edge 20, Type (0, 1), BuildingBlock: XUDNAN_clean_linker_2, # of connection points: 2
#     Edge 21, Type (0, 1), BuildingBlock: XUDNAN_clean_linker_2, # of connection points: 2
#     Edge 22, Type (0, 1), BuildingBlock: XUDNAN_clean_linker_2, # of connection points: 2
#     Edge 23, Type (0, 1), BuildingBlock: XUDNAN_clean_linker_2, # of connection points: 2
#     Edge 24, Type (0, 1), BuildingBlock: XUDNAN_clean_linker_2, # of connection points: 2
#     Edge 25, Type (0, 1), BuildingBlock: XUDNAN_clean_linker_2, # of connection points: 2
#     Edge 26, Type (0, 1), BuildingBlock: XUDNAN_clean_linker_2, # of connection points: 2
#     Edge 27, Type (0, 1), BuildingBlock: XUDNAN_clean_linker_2, # of connection points: 2
#     Edge 28, Type (0, 1), BuildingBlock: XUDNAN_clean_linker_2, # of connection points: 2
#     Edge 29, Type (0, 1), BuildingBlock: XUDNAN_clean_linker_2, # of connection points: 2
#     Edge 30, Type (0, 1), BuildingBlock: XUDNAN_clean_linker_2, # of connection points: 2
#     Edge 31, Type (0, 1), BuildingBlock: XUDNAN_clean_linker_2, # of connection points: 2
#     Edge 32, Type (0, 1), BuildingBlock: XUDNAN_clean_linker_2, # of connection points: 2
#     Edge 33, Type (0, 1), BuildingBlock: XUDNAN_clean_linker_2, # of connection points: 2
#     Edge 34, Type (0, 1), BuildingBlock: XUDNAN_clean_linker_2, # of connection points: 2
#     Edge 35, Type (0, 1), BuildingBlock: XUDNAN_clean_linker_2, # of connection points: 2
# Relax obj value: 0.055
# Max RMSD: 0.062
# Mean RMSD: 0.029
data_MOF--net-pry--node1-FUNLAD_clean_sbu_0--node2-KAKCAD_clean_linker_0--edge1-XUDNAN_clean_linker_2
_symmetry_space_group_name_H-M    P1
_symmetry_Int_Tables_number       1
_symmetry_cell_setting            triclinic
loop_
_symmetry_equiv_pos_as_xyz
'x, y, z'
_cell_length_a     44.149699
_cell_length_b     46.696377
_cell_length_c     46.925066
_cell_angle_alpha  90.578368
_cell_angle_beta   89.869759
_cell_angle_gamma 85.950996
loop_
_atom_site_label
_atom_site_type_symbol
_atom_site_fract_x
_atom_site_fract_y
_atom_site_fract_z
_atom_type_partial_charge
C0 C 0.09368 0.14166 0.2692 0.0
C1 C 0.11188 0.13187 0.29225 0.0
C2 C 0.10611 0.15597 0.24614 0.0
C3 C 0.13732 0.16035 0.24503 0.0
C4 C 0.15545 0.15103 0.26836 0.0
C5 C 0.14283 0.13729 0.29179 0.0
C6 C 0.15112 0.17267 0.21881 0.0
C7 C 0.13771 0.19776 0.20572 0.0
C8 C 0.14946 0.20802 0.17996 0.0
C9 C 0.17486 0.1927 0.16747 0.0
C10 C 0.18863 0.16764 0.17979 0.0
C11 C 0.17687 0.15814 0.20576 0.0
C12 C 0.21446 0.15117 0.16447 0.0
C13 C 0.2132 0.14724 0.13474 0.0
C14 C 0.24088 0.14034 0.17873 0.0
C15 C 0.26591 0.12741 0.16338 0.0
C16 C 0.26507 0.12493 0.13342 0.0
C17 C 0.13534 0.2341 0.16495 0.0
C18 C 0.12872 0.26061 0.17913 0.0
C19 C 0.13062 0.23307 0.13532 0.0
C20 C 0.12121 0.25781 0.12011 0.0
C21 C 0.11635 0.28476 0.13381 0.0
C22 C 0.1194 0.28563 0.16376 0.0
C23 C 0.23795 0.13433 0.11955 0.0
H24 H 0.06979 0.13772 0.26876 0.0
H25 H 0.09147 0.16256 0.22855 0.0
H26 H 0.17955 0.15404 0.26832 0.0
H27 H 0.15757 0.1298 0.30899 0.0
H28 H 0.11788 0.209 0.21533 0.0
H29 H 0.18686 0.13857 0.21513 0.0
H30 H 0.18424 0.20057 0.14792 0.0
H31 H 0.19304 0.15451 0.12302 0.0
H32 H 0.2427 0.1429 0.20161 0.0
H33 H 0.28635 0.12048 0.17485 0.0
H34 H 0.13209 0.26229 0.20192 0.0
H35 H 0.13481 0.21303 0.12366 0.0
H36 H 0.23598 0.13217 0.09663 0.0
H37 H 0.1159 0.30585 0.17519 0.0
H38 H 0.11828 0.25581 0.09729 0.0
C39 C 0.39296 0.91623 0.76601 0.0
C40 C 0.40218 0.89787 0.78848 0.0
C41 C 0.3827 0.90516 0.73996 0.0
C42 C 0.38132 0.8753 0.73538 0.0
C43 C 0.39168 0.85695 0.75748 0.0
C44 C 0.40194 0.868 0.78346 0.0
C45 C 0.36772 0.86355 0.70844 0.0
C46 C 0.34243 0.87858 0.69562 0.0
C47 C 0.32836 0.86776 0.67121 0.0
C48 C 0.34004 0.84146 0.6594 0.0
C49 C 0.3651 0.82555 0.67151 0.0
C50 C 0.37889 0.83696 0.696 0.0
C51 C 0.37623 0.79713 0.65809 0.0
C52 C 0.35533 0.77901 0.64605 0.0
C53 C 0.40742 0.78842 0.65561 0.0
C54 C 0.41727 0.76318 0.64037 0.0
C55 C 0.39621 0.74612 0.62704 0.0
C56 C 0.30127 0.88377 0.65802 0.0
C57 C 0.3004 0.91367 0.65445 0.0
C58 C 0.27613 0.86926 0.64862 0.0
C59 C 0.25072 0.88428 0.6364 0.0
C60 C 0.24971 0.91428 0.63301 0.0
C61 C 0.27518 0.92863 0.64201 0.0
C62 C 0.36513 0.75415 0.63069 0.0
H63 H 0.39267 0.93929 0.76882 0.0
H64 H 0.37553 0.92017 0.72346 0.0
H65 H 0.39097 0.83392 0.75515 0.0
H66 H 0.40939 0.85295 0.79983 0.0
H67 H 0.33287 0.89838 0.70524 0.0
H68 H 0.39816 0.82504 0.70549 0.0
H69 H 0.32984 0.83365 0.64011 0.0
H70 H 0.33113 0.78421 0.64813 0.0
H71 H 0.42431 0.80166 0.66445 0.0
H72 H 0.44139 0.7577 0.638 0.0
H73 H 0.31949 0.92553 0.66092 0.0
H74 H 0.2758 0.84627 0.65123 0.0
H75 H 0.34819 0.74129 0.62129 0.0
H76 H 0.27586 0.95156 0.63924 0.0
H77 H 0.23159 0.87235 0.63022 0.0
C78 C 0.74651 0.45321 0.96021 0.0
C79 C 0.76397 0.42839 0.96844 0.0
C80 C 0.71598 0.45182 0.95306 0.0
C81 C 0.70235 0.4255 0.95369 0.0
C82 C 0.7198 0.40075 0.96238 0.0
C83 C 0.75025 0.40223 0.96983 0.0
C84 C 0.67071 0.4235 0.94355 0.0
C85 C 0.66068 0.43852 0.91914 0.0
C86 C 0.63201 0.43471 0.90753 0.0
C87 C 0.61307 0.41594 0.92076 0.0
C88 C 0.62275 0.4004 0.94491 0.0
C89 C 0.6514 0.40474 0.95653 0.0
C90 C 0.60465 0.37691 0.95514 0.0
C91 C 0.5727 0.37996 0.95511 0.0
C92 C 0.61919 0.34993 0.96126 0.0
C93 C 0.60228 0.3262 0.96537 0.0
C94 C 0.57047 0.32887 0.96331 0.0
C95 C 0.6231 0.44799 0.87997 0.0
C96 C 0.62879 0.4766 0.87422 0.0
C97 C 0.60971 0.4316 0.85879 0.0
C98 C 0.60221 0.44349 0.83244 0.0
C99 C 0.60815 0.47198 0.82651 0.0
C100 C 0.62133 0.48851 0.84772 0.0
C101 C 0.55578 0.35612 0.95898 0.0
H102 H 0.75645 0.47375 0.95944 0.0
H103 H 0.70308 0.47135 0.94688 0.0
H104 H 0.71024 0.38003 0.96258 0.0
H105 H 0.76331 0.38275 0.97594 0.0
H106 H 0.67593 0.45186 0.90809 0.0
H107 H 0.65892 0.393 0.97532 0.0
H108 H 0.59129 0.41234 0.91128 0.0
H109 H 0.56081 0.40057 0.95095 0.0
H110 H 0.64372 0.34666 0.96101 0.0
H111 H 0.61426 0.3054 0.96836 0.0
H112 H 0.63898 0.48975 0.8902 0.0
H113 H 0.60551 0.40934 0.86236 0.0
H114 H 0.53125 0.35882 0.9577 0.0
H115 H 0.62634 0.51048 0.84368 0.0
H116 H 0.59166 0.43032 0.8167 0.0
C117 C 0.88393 0.57656 0.33378 0.0
C118 C 0.91374 0.57153 0.32369 0.0
C119 C 0.87814 0.57874 0.36286 0.0
C120 C 0.90203 0.57572 0.38266 0.0
C121 C 0.93172 0.56882 0.3726 0.0
C122 C 0.93752 0.56665 0.34328 0.0
C123 C 0.896 0.58407 0.41286 0.0
C124 C 0.86819 0.57862 0.42534 0.0
C125 C 0.85685 0.59484 0.44883 0.0
C126 C 0.87554 0.61387 0.46241 0.0
C127 C 0.90449 0.61825 0.45128 0.0
C128 C 0.91451 0.60315 0.42654 0.0
C129 C 0.92179 0.64245 0.46154 0.0
C130 C 0.90662 0.66945 0.4669 0.0
C131 C 0.95373 0.63992 0.46201 0.0
C132 C 0.97011 0.66421 0.46584 0.0
C133 C 0.95485 0.69142 0.46948 0.0
C134 C 0.8238 0.59609 0.45493 0.0
C135 C 0.80331 0.59795 0.43202 0.0
C136 C 0.81234 0.59668 0.48289 0.0
C137 C 0.78091 0.59835 0.48771 0.0
C138 C 0.76053 0.59973 0.46463 0.0
C139 C 0.77218 0.59954 0.43679 0.0
C140 C 0.92297 0.69364 0.47088 0.0
H141 H 0.86514 0.57995 0.3191 0.0
H142 H 0.85505 0.58459 0.36963 0.0
H143 H 0.95055 0.56626 0.38732 0.0
H144 H 0.96073 0.56267 0.33595 0.0
H145 H 0.85385 0.5638 0.41492 0.0
H146 H 0.93528 0.60862 0.41622 0.0
H147 H 0.8667 0.62682 0.48025 0.0
H148 H 0.88209 0.67234 0.46612 0.0
H149 H 0.96603 0.61933 0.45821 0.0
H150 H 0.99468 0.66183 0.46506 0.0
H151 H 0.81132 0.59837 0.4102 0.0
H152 H 0.82763 0.59554 0.50093 0.0
H153 H 0.91052 0.71436 0.47326 0.0
H154 H 0.75726 0.60004 0.41849 0.0
H155 H 0.77257 0.59862 0.50944 0.0
C156 C 0.90544 0.86805 0.74145 0.0
C157 C 0.90306 0.89778 0.73578 0.0
C158 C 0.89543 0.85717 0.7674 0.0
C159 C 0.88276 0.87552 0.789 0.0
C160 C 0.88132 0.90537 0.78376 0.0
C161 C 0.89131 0.91629 0.75766 0.0
C162 C 0.87018 0.86342 0.81617 0.0
C163 C 0.88347 0.83786 0.8284 0.0
C164 C 0.87078 0.82534 0.85275 0.0
C165 C 0.84434 0.8393 0.86499 0.0
C166 C 0.83098 0.86513 0.85388 0.0
C167 C 0.84406 0.87684 0.82948 0.0
C168 C 0.80333 0.88 0.8678 0.0
C169 C 0.7788 0.86465 0.87709 0.0
C170 C 0.80135 0.90992 0.872 0.0
C171 C 0.77556 0.92413 0.88459 0.0
C172 C 0.7505 0.90903 0.89309 0.0
C173 C 0.8845 0.79743 0.86504 0.0
C174 C 0.89893 0.77601 0.84737 0.0
C175 C 0.88257 0.79141 0.89445 0.0
C176 C 0.89363 0.76472 0.9055 0.0
C177 C 0.9073 0.74305 0.88762 0.0
C178 C 0.9103 0.74953 0.85844 0.0
C179 C 0.75274 0.87895 0.88948 0.0
H180 H 0.91488 0.85291 0.72562 0.0
H181 H 0.89688 0.83412 0.7701 0.0
H182 H 0.87229 0.92047 0.79982 0.0
H183 H 0.88896 0.93925 0.75435 0.0
H184 H 0.90413 0.82792 0.81914 0.0
H185 H 0.83311 0.89606 0.82029 0.0
H186 H 0.83392 0.83006 0.88332 0.0
H187 H 0.77939 0.84159 0.87413 0.0
H188 H 0.81996 0.92244 0.86576 0.0
H189 H 0.77538 0.94715 0.88765 0.0
H190 H 0.90089 0.77925 0.82466 0.0
H191 H 0.87238 0.80731 0.90916 0.0
H192 H 0.73401 0.86647 0.89547 0.0
H193 H 0.92135 0.73404 0.84383 0.0
H194 H 0.89069 0.76089 0.92801 0.0
C195 C 0.61884 0.11087 0.26252 0.0
C196 C 0.61523 0.12528 0.23632 0.0
C197 C 0.62922 0.12469 0.28691 0.0
C198 C 0.63593 0.15367 0.28635 0.0
C199 C 0.6307 0.16878 0.26076 0.0
C200 C 0.62059 0.15475 0.23603 0.0
C201 C 0.65023 0.16684 0.31198 0.0
C202 C 0.67546 0.15194 0.32492 0.0
C203 C 0.6889 0.16245 0.34979 0.0
C204 C 0.67635 0.18827 0.36201 0.0
C205 C 0.65082 0.2036 0.35 0.0
C206 C 0.63833 0.19303 0.32448 0.0
C207 C 0.63672 0.22961 0.36554 0.0
C208 C 0.63198 0.22854 0.39515 0.0
C209 C 0.62933 0.25585 0.35174 0.0
C210 C 0.61896 0.28063 0.36746 0.0
C211 C 0.61552 0.27974 0.39737 0.0
C212 C 0.71543 0.14594 0.36345 0.0
C213 C 0.71584 0.11595 0.36617 0.0
C214 C 0.7405 0.15986 0.37395 0.0
C215 C 0.76553 0.14414 0.38615 0.0
C216 C 0.76617 0.11401 0.38844 0.0
C217 C 0.74063 0.10031 0.37858 0.0
C218 C 0.62144 0.25302 0.41071 0.0
H219 H 0.61402 0.08854 0.26424 0.0
H220 H 0.6324 0.11247 0.30631 0.0
H221 H 0.63563 0.19113 0.25953 0.0
H222 H 0.61815 0.16673 0.21644 0.0
H223 H 0.68494 0.13208 0.3153 0.0
H224 H 0.61854 0.20434 0.31519 0.0
H225 H 0.68616 0.19623 0.38145 0.0
H226 H 0.6367 0.20862 0.40648 0.0
H227 H 0.63267 0.25749 0.32896 0.0
H228 H 0.61471 0.30067 0.35629 0.0
H229 H 0.69674 0.1045 0.35896 0.0
H230 H 0.74112 0.18291 0.37212 0.0
H231 H 0.61819 0.25094 0.43345 0.0
H232 H 0.73957 0.07733 0.38057 0.0
H233 H 0.7847 0.15561 0.39313 0.0
C234 C 0.27921 0.60236 0.08255 0.0
C235 C 0.27061 0.60669 0.05408 0.0
C236 C 0.30971 0.59977 0.09001 0.0
C237 C 0.33236 0.60164 0.06922 0.0
C238 C 0.32397 0.60641 0.04072 0.0
C239 C 0.29319 0.60855 0.03311 0.0
C240 C 0.36443 0.59932 0.07824 0.0
C241 C 0.3747 0.57626 0.09538 0.0
C242 C 0.40139 0.57734 0.11138 0.0
C243 C 0.41927 0.60078 0.10798 0.0
C244 C 0.40958 0.6239 0.09046 0.0
C245 C 0.38228 0.62277 0.07523 0.0
C246 C 0.42475 0.65124 0.09225 0.0
C247 C 0.43328 0.66191 0.11898 0.0
C248 C 0.42828 0.66807 0.06798 0.0
C249 C 0.43908 0.69543 0.07055 0.0
C250 C 0.44639 0.70647 0.09747 0.0
C251 C 0.40698 0.55768 0.13581 0.0
C252 C 0.38247 0.5511 0.15319 0.0
C253 C 0.43664 0.54867 0.1443 0.0
C254 C 0.44169 0.53498 0.17042 0.0
C255 C 0.41716 0.52993 0.18841 0.0
C256 C 0.38749 0.53733 0.17908 0.0
C257 C 0.44404 0.68916 0.12153 0.0
H258 H 0.26228 0.60045 0.09905 0.0
H259 H 0.31564 0.59649 0.1122 0.0
H260 H 0.34115 0.60809 0.02443 0.0
H261 H 0.28701 0.61183 1.011 0.0
H262 H 0.36042 0.55852 0.0981 0.0
H263 H 0.37339 0.6413 0.06335 0.0
H264 H 0.43948 0.60224 0.12081 0.0
H265 H 0.43037 0.64978 0.13822 0.0
H266 H 0.42196 0.66038 0.04712 0.0
H267 H 0.44046 0.70839 0.05164 0.0
H268 H 0.35934 0.55829 0.14784 0.0
H269 H 0.45598 0.55317 0.13127 0.0
H270 H 0.44979 0.69699 0.1425 0.0
H271 H 0.36811 0.53426 0.19262 0.0
H272 H 0.46481 0.52921 0.17698 0.0
C273 C 0.07427 0.33471 0.6197 0.0
C274 C 0.0702 0.31726 0.59568 0.0
C275 C 0.08775 0.36062 0.6171 0.0
C276 C 0.09703 0.37013 0.5903 0.0
C277 C 0.092 0.35319 0.56608 0.0
C278 C 0.07878 0.32699 0.56874 0.0
C279 C 0.11369 0.39663 0.58829 0.0
C280 C 0.13983 0.39705 0.57112 0.0
C281 C 0.1586 0.42009 0.57293 0.0
C282 C 0.15082 0.44292 0.59184 0.0
C283 C 0.12544 0.44238 0.60975 0.0
C284 C 0.10621 0.4199 0.60681 0.0
C285 C 0.12295 0.46087 0.63566 0.0
C286 C 0.14897 0.46403 0.6523 0.0
C287 C 0.09448 0.47115 0.64649 0.0
C288 C 0.09189 0.48227 0.67424 0.0
C289 C 0.11774 0.48331 0.69159 0.0
C290 C 0.18921 0.41818 0.55974 0.0
C291 C 0.20878 0.39346 0.56358 0.0
C292 C 0.20078 0.44259 0.54771 0.0
C293 C 0.23174 0.44307 0.5418 0.0
C294 C 0.25173 0.41913 0.54785 0.0
C295 C 0.23976 0.39395 0.55771 0.0
C296 C 0.14639 0.47512 0.67991 0.0
H297 H 0.06752 0.3281 0.64071 0.0
H298 H 0.09181 0.37266 0.63639 0.0
H299 H 0.09872 0.35996 0.54512 0.0
H300 H 0.07625 0.31394 0.5498 0.0
H301 H 0.14671 0.37869 0.55773 0.0
H302 H 0.08673 0.41926 0.62081 0.0
H303 H 0.16612 0.4599 0.59456 0.0
H304 H 0.17121 0.45584 0.64494 0.0
H305 H 0.07407 0.46925 0.63405 0.0
H306 H 0.06955 0.48894 0.68251 0.0
H307 H 0.2006 0.3744 0.57307 0.0
H308 H 0.18615 0.46189 0.54445 0.0
H309 H 0.16674 0.47524 0.69275 0.0
H310 H 0.25458 0.37504 0.56217 0.0
H311 H 0.24024 0.46286 0.53434 0.0
C312 C 0.03485 0.03121 0.46165 0.0
N313 N 1.00629 0.07071 0.54021 0.0
C314 C 0.03321 0.08316 0.53928 0.0
C315 C 0.03612 0.10971 0.55227 0.0
C316 C 0.01102 0.12364 0.56602 0.0
C317 C 0.98333 0.11075 0.56647 0.0
C318 C 0.98149 0.08387 0.55341 0.0
Zn319 Zn 1.00504 0.03151 0.52138 0.0
C320 C 0.95045 0.02664 0.48488 0.0
N321 N 1.00685 0.94929 0.48205 0.0
C322 C 0.03292 0.93428 0.47357 0.0
C323 C 0.97993 0.93686 0.48253 0.0
C324 C 0.97874 0.90788 0.4758 0.0
C325 C 1.0056 0.89131 0.46896 0.0
C326 C 0.03282 0.90504 0.46692 0.0
Zn327 Zn 0.00776 0.9891 0.49996 0.0
O328 O 0.02757 0.0477 0.48285 0.0
C329 C 0.06243 0.99452 0.53652 0.0
O330 O 0.02994 1.00474 0.46344 0.0
H331 H 0.95951 0.94904 0.48957 0.0
H332 H 0.05255 0.07243 0.5285 0.0
H333 H 0.05409 0.9446 0.47338 0.0
O334 O 0.04815 0.01889 0.54031 0.0
O335 O 0.05104 0.97657 0.51982 0.0
H336 H 0.96035 0.0735 0.55384 0.0
O337 O 0.98506 0.97346 0.53636 0.0
O338 O 0.9825 0.01445 0.55943 0.0
O339 O 0.96475 1.00233 0.48037 0.0
O340 O 0.96166 0.04403 0.50233 0.0
C341 C 0.97723 0.98791 0.55862 0.0
H342 H 0.05772 0.11936 0.55151 0.0
H343 H 0.96359 0.12121 0.57695 0.0
H344 H 0.95712 0.89833 0.47698 0.0
H345 H 0.05406 0.89305 0.4618 0.0
C346 C 0.56137 0.9939 0.98687 0.0
N347 N 0.51168 0.07334 0.9806 0.0
C348 C 0.53893 0.08505 0.98252 0.0
C349 C 0.54165 0.11344 0.97477 0.0
C350 C 0.51595 0.13018 0.96546 0.0
C351 C 0.48853 0.11702 0.96196 0.0
C352 C 0.48692 0.08834 0.96963 0.0
Zn353 Zn 0.50756 0.0351 1.00006 0.0
C354 C 0.47564 0.99223 0.9648 0.0
N355 N 0.49986 0.95717 0.04398 0.0
C356 C 0.52458 0.94097 0.05349 0.0
C357 C 0.47132 0.94834 0.04698 0.0
C358 C 0.46673 0.92243 0.06017 0.0
C359 C 0.4918 0.90517 0.06974 0.0
C360 C 0.52105 0.91449 0.06625 0.0
Zn361 Zn 0.50454 0.99496 0.02374 0.0
O362 O 0.54981 0.01925 0.98314 0.0
C363 C 0.53652 0.03605 0.0598 0.0
O364 O 0.54745 0.9774 1.00315 0.0
H365 H 0.45204 0.96123 0.03879 0.0
H366 H 0.55829 0.07284 0.99144 0.0
H367 H 0.54704 0.94845 0.05093 0.0
O368 O 0.52985 0.05211 0.03854 0.0
O369 O 0.52939 0.01015 0.05883 0.0
H370 H 0.46547 0.07857 0.9683 0.0
O371 O 0.46169 0.01386 0.04387 0.0
O372 O 0.46527 0.05104 0.01658 0.0
O373 O 0.4798 0.97939 0.98841 0.0
O374 O 0.48527 0.01725 0.96228 0.0
C375 C 0.45073 0.03833 0.03541 0.0
H376 H 0.56344 0.12249 0.97711 0.0
H377 H 0.46813 0.12913 0.95494 0.0
H378 H 0.4439 0.91557 0.06222 0.0
H379 H 0.54083 0.90151 0.07339 0.0
C380 C 0.5348 0.46108 0.49295 0.0
N381 N 0.53276 0.50692 0.57142 0.0
C382 C 0.53117 0.4828 0.5872 0.0
C383 C 0.54096 0.48247 0.6155 0.0
C384 C 0.55239 0.50721 0.6275 0.0
C385 C 0.55471 0.53137 0.61036 0.0
C386 C 0.54466 0.53078 0.58231 0.0
Zn387 Zn 0.51461 0.51005 0.53175 0.0
C388 C 0.55507 0.54167 0.49349 0.0
N389 N 0.47746 0.52064 0.44889 0.0
C390 C 0.4669 0.496 0.43837 0.0
C391 C 0.47693 0.54486 0.43299 0.0
C392 C 0.46585 0.54461 0.40506 0.0
C393 C 0.45539 0.51918 0.39355 0.0
C394 C 0.4559 0.49475 0.41073 0.0
Zn395 Zn 0.49583 0.51789 0.48861 0.0
O396 O 0.53702 0.46936 0.51879 0.0
C397 C 0.45529 0.48615 0.52696 0.0
O398 O 0.51928 0.47717 0.47586 0.0
H399 H 0.48548 0.56419 0.4418 0.0
H400 H 0.52152 0.46414 0.5781 0.0
H401 H 0.46762 0.4769 0.45125 0.0
O402 O 0.47626 0.48883 0.54507 0.0
O403 O 0.45799 0.49639 0.50222 0.0
H404 H 0.54566 0.54977 0.56946 0.0
O405 O 0.4729 0.55841 0.50187 0.0
O406 O 0.4921 0.55106 0.54436 0.0
O407 O 0.53378 0.53981 0.47553 0.0
O408 O 0.55267 0.53078 0.51798 0.0
C409 C 0.47606 0.56699 0.52752 0.0
H410 H 0.53858 0.46345 0.6281 0.0
H411 H 0.56384 0.55069 0.61865 0.0
H412 H 0.4656 0.56404 0.39263 0.0
H413 H 0.4487 0.47451 0.40268 0.0
C414 C 0.98933 0.56409 0.98317 0.0
N415 N 0.99142 0.53477 0.0683 0.0
C416 C 0.99115 0.56273 0.07675 0.0
C417 C 0.97998 0.57115 0.10356 0.0
C418 C 0.96912 0.55056 0.12181 0.0
C419 C 0.96937 0.52191 0.11244 0.0
C420 C 0.98065 0.51444 0.08541 0.0
Zn421 Zn 0.00955 0.52309 0.02991 0.0
C422 C 0.96924 0.48466 0.99834 0.0
N423 N 0.04717 0.49815 0.94939 0.0
C424 C 0.05911 0.52087 0.93666 0.0
C425 C 0.04816 0.47188 0.93642 0.0
C426 C 0.06167 0.4679 0.90945 0.0
C427 C 0.07442 0.49114 0.89621 0.0
C428 C 0.07289 0.51782 0.91016 0.0
Zn429 Zn 0.02807 0.50762 0.98825 0.0
O430 O 0.98646 0.56156 1.01005 0.0
C431 C 0.06843 0.54609 0.02078 0.0
O432 O 1.0052 0.54468 0.96966 0.0
H433 H 0.03842 0.45414 0.94689 0.0
H434 H 1.0 0.57847 0.06281 0.0
H435 H 0.0578 0.54171 0.94697 0.0
O436 O 0.04703 0.54682 0.03885 0.0
O437 O 0.06652 0.53106 0.99828 0.0
H438 H 0.98101 0.49236 0.07817 0.0
O439 O 0.05026 0.47015 1.00696 0.0
O440 O 0.03268 0.4843 0.04889 0.0
O441 O 0.98953 0.48428 0.97903 0.0
O442 O 0.97219 0.49918 0.02104 0.0
C443 C 0.04793 0.46562 0.0336 0.0
H444 H 0.98047 0.59341 0.11015 0.0
H445 H 0.96083 0.50548 0.12581 0.0
H446 H 0.06233 0.44699 0.89918 0.0
H447 H 0.08173 0.53646 0.90041 0.0
H448 H 0.1103 0.13985 0.3515 0.0
H449 H 0.08449 0.0822 0.28421 0.0
H450 H 0.06374 0.05049 0.32007 0.0
H451 H 0.1307 0.08562 0.40463 0.0
H452 H 0.11456 0.1063 0.43429 0.0
H453 H 0.12856 0.1243 0.40365 0.0
H454 H 0.07628 0.15226 0.39781 0.0
H455 H 0.06216 0.1344 0.42847 0.0
H456 H 0.0426 0.13275 0.39488 0.0
H457 H 0.04736 0.02394 0.36281 0.0
H458 H 0.03166 1.00621 0.40933 0.0
H459 H 0.06351 0.082 0.45069 0.0
C460 C 0.10033 0.12049 0.34442 0.0
C461 C 0.09916 0.11348 0.31487 0.0
C462 C 0.08561 0.0881 0.30655 0.0
C463 C 0.07384 0.06988 0.32683 0.0
C464 C 0.07525 0.07733 0.35564 0.0
C465 C 0.08775 0.1022 0.36454 0.0
C466 C 0.08503 0.1055 0.39692 0.0
C467 C 0.1166 0.10543 0.41068 0.0
C468 C 0.06534 0.13286 0.40499 0.0
C469 C 0.06923 0.07857 0.40474 0.0
C470 C 0.06427 0.06255 0.38048 0.0
C471 C 0.05095 0.03643 0.3819 0.0
C472 C 0.04219 0.02645 0.40861 0.0
C473 C 0.04617 0.04256 0.43397 0.0
C474 C 0.05993 0.06914 0.43184 0.0
H475 H 0.43386 0.9462 0.80275 0.0
H476 H 0.38826 0.8764 0.84069 0.0
H477 H 0.40096 0.89395 0.8884 0.0
H478 H 0.49504 0.94676 0.85376 0.0
H479 H 0.49614 0.98527 0.85479 0.0
H480 H 0.48338 0.96769 0.8231 0.0
H481 H 0.43297 0.99947 0.82497 0.0
H482 H 0.44556 0.0171 0.85671 0.0
H483 H 0.41007 1.00025 0.85686 0.0
H484 H 0.41876 0.91794 0.93224 0.0
H485 H 0.44132 0.94653 0.96977 0.0
H486 H 0.47549 1.00261 0.90572 0.0
C487 C 0.42636 0.93468 0.82108 0.0
C488 C 0.41024 0.90948 0.81751 0.0
C489 C 0.40117 0.89521 0.84237 0.0
C490 C 0.40805 0.90522 0.86977 0.0
C491 C 0.42403 0.92979 0.87247 0.0
C492 C 0.43313 0.94444 0.84889 0.0
C493 C 0.45045 0.97017 0.85819 0.0
C494 C 0.4832 0.96729 0.84678 0.0
C495 C 0.43376 0.99843 0.84861 0.0
C496 C 0.44974 0.96751 0.89061 0.0
C497 C 0.43424 0.94401 0.89816 0.0
C498 C 0.43085 0.93643 0.92655 0.0
C499 C 0.44386 0.95293 0.94782 0.0
C500 C 0.46024 0.97706 0.94102 0.0
C501 C 0.46289 0.98457 0.91183 0.0
H502 H 0.61679 0.44561 0.77453 0.0
H503 H 0.58208 0.52556 0.81452 0.0
H504 H 0.5667 0.54445 0.76731 0.0
H505 H 0.64445 0.47635 0.70914 0.0
H506 H 0.63307 0.44704 0.68727 0.0
H507 H 0.64365 0.44091 0.72388 0.0
H508 H 0.59185 0.4198 0.73336 0.0
H509 H 0.58106 0.42597 0.69685 0.0
H510 H 0.55723 0.44094 0.7253 0.0
H511 H 0.55201 0.55317 0.71636 0.0
H512 H 0.53946 0.55145 0.6652 0.0
H513 H 0.58343 0.46547 0.65882 0.0
C514 C 0.60601 0.46713 0.77338 0.0
C515 C 0.60059 0.48414 0.79818 0.0
C516 C 0.58678 0.51231 0.79574 0.0
C517 C 0.57786 0.52316 0.76907 0.0
C518 C 0.58306 0.50557 0.74513 0.0
C519 C 0.59692 0.47821 0.74704 0.0
C520 C 0.59873 0.46319 0.71831 0.0
C521 C 0.63195 0.45649 0.70911 0.0
C522 C 0.58116 0.43587 0.71848 0.0
C523 C 0.58316 0.48619 0.69999 0.0
C524 C 0.57452 0.51055 0.71581 0.0
C525 C 0.55898 0.53435 0.70369 0.0
C526 C 0.55208 0.5332 0.6746 0.0
C527 C 0.56064 0.50838 0.65802 0.0
C528 C 0.57647 0.48466 0.67097 0.0
H529 H 0.94962 0.53457 0.2899 0.0
H530 H 0.89168 0.61358 0.28817 0.0
H531 H 0.90006 0.61709 0.2364 0.0
H532 H 1.00419 0.55559 0.23722 0.0
H533 H 0.00921 0.52023 0.22141 0.0
H534 H 0.99939 0.52434 0.25858 0.0
H535 H 0.95244 0.49494 0.25043 0.0
H536 H 0.96203 0.49087 0.21322 0.0
H537 H 0.92503 0.50626 0.22367 0.0
H538 H 0.91371 0.61176 0.1851 0.0
H539 H 0.93197 0.59763 0.13684 0.0
H540 H 0.98125 0.52227 0.17175 0.0
C541 C 0.93897 0.5527 0.2786 0.0
C542 C 0.91986 0.57369 0.29287 0.0
C543 C 0.90606 0.59704 0.27745 0.0
C544 C 0.9108 0.59932 0.24813 0.0
C545 C 0.92942 0.57809 0.23459 0.0
C546 C 0.94334 0.55525 0.24924 0.0
C547 C 0.96175 0.53508 0.22935 0.0
C548 C 0.99564 0.53375 0.2371 0.0
C549 C 0.94957 0.50501 0.22916 0.0
C550 C 0.95579 0.5501 0.20128 0.0
C551 C 0.93721 0.57494 0.20482 0.0
C552 C 0.9284 0.59242 0.18201 0.0
C553 C 0.93894 0.5843 0.15475 0.0
C554 C 0.95797 0.55889 0.15064 0.0
C555 C 0.96644 0.54164 0.17425 0.0
H556 H 0.30841 0.07882 0.14264 0.0
H557 H 0.28483 0.14887 0.08477 0.0
H558 H 0.32812 0.13314 0.05421 0.0
H559 H 0.39071 0.08173 0.1359 0.0
H560 H 0.3987 0.04336 0.13693 0.0
H561 H 0.36564 0.05972 0.1549 0.0
H562 H 0.33158 0.02675 0.12658 0.0
H563 H 0.36452 0.01039 0.10842 0.0
H564 H 0.33315 0.02632 0.08818 0.0
H565 H 0.373 0.11086 0.02945 0.0
H566 H 0.4188 0.0837 0.01189 0.0
H567 H 0.41649 0.02664 0.08436 0.0
C568 C 0.31249 0.09089 0.12361 0.0
C569 C 0.29263 0.11497 0.11604 0.0
C570 C 0.29899 0.13006 0.09087 0.0
C571 C 0.32375 0.12137 0.07335 0.0
C572 C 0.34242 0.09745 0.08105 0.0
C573 C 0.33737 0.08237 0.10557 0.0
C574 C 0.36146 0.05738 0.10845 0.0
C575 C 0.38024 0.06076 0.13566 0.0
C576 C 0.3468 0.02849 0.10788 0.0
C577 C 0.3807 0.06097 0.08177 0.0
C578 C 0.36901 0.08432 0.06646 0.0
C579 C 0.38239 0.09255 0.04126 0.0
C580 C 0.40858 0.07684 0.03145 0.0
C581 C 0.42161 0.05286 0.04659 0.0
C582 C 0.40716 0.04469 0.07211 0.0
H583 H 0.20973 0.89772 0.59072 0.0
H584 H 0.22607 0.96831 0.64845 0.0
H585 H 0.18173 0.99615 0.62892 0.0
H586 H 0.18351 0.94064 0.53087 0.0
H587 H 0.15439 0.9174 0.52068 0.0
H588 H 0.18807 0.90281 0.53847 0.0
H589 H 0.15495 0.88185 0.57764 0.0
H590 H 0.12116 0.89628 0.5599 0.0
H591 H 0.12758 0.90531 0.59673 0.0
H592 H 0.13569 0.01685 0.60349 0.0
H593 H 0.08972 0.02833 0.57515 0.0
H594 H 0.10051 0.94419 0.53457 0.0
C595 C 0.20396 0.91894 0.59945 0.0
C596 C 0.22209 0.93076 0.62104 0.0
C597 C 0.21343 0.9588 0.6315 0.0
C598 C 0.18798 0.97482 0.62066 0.0
C599 C 0.17092 0.96264 0.59938 0.0
C600 C 0.17835 0.93529 0.58896 0.0
C601 C 0.1556 0.92722 0.56637 0.0
C602 C 0.17134 0.92169 0.53738 0.0
C603 C 0.13883 0.90112 0.57573 0.0
C604 C 0.13427 0.95432 0.56582 0.0
C605 C 0.14375 0.97446 0.58499 0.0
C606 C 0.12804 1.00121 0.58845 0.0
C607 C 0.10186 1.00754 0.57214 0.0
C608 C 0.09123 0.98725 0.5525 0.0
C609 C 0.10791 0.96025 0.54931 0.0
H610 H 0.80713 0.45441 0.93808 0.0
H611 H 0.79373 0.40598 0.01494 0.0
H612 H 0.84732 0.41063 0.02821 0.0
H613 H 0.88608 0.42554 0.92422 0.0
H614 H 0.89751 0.45948 0.91158 0.0
H615 H 0.85892 0.4501 0.90681 0.0
H616 H 0.83929 0.49705 0.93281 0.0
H617 H 0.87773 0.50659 0.93757 0.0
H618 H 0.85308 0.50456 0.96805 0.0
H619 H 0.89951 0.42576 0.03609 0.0
H620 H 0.94819 0.44881 0.03719 0.0
H621 H 0.92928 0.48505 0.95394 0.0
C622 C 0.81563 0.44457 0.95756 0.0
C623 C 0.79643 0.42985 0.97555 0.0
C624 C 0.80823 0.41712 1.0008 0.0
C625 C 0.83858 0.41966 1.00847 0.0
C626 C 0.85684 0.43458 0.99042 0.0
C627 C 0.84594 0.4466 0.96534 0.0
C628 C 0.86993 0.4627 0.95044 0.0
C629 C 0.87862 0.4486 0.92155 0.0
C630 C 0.85937 0.49461 0.94703 0.0
C631 C 0.8957 0.45873 0.97158 0.0
C632 C 0.88765 0.44232 0.99443 0.0
C633 C 0.9064 0.43802 0.01803 0.0
C634 C 0.93389 0.45117 0.0185 0.0
C635 C 0.94247 0.46805 0.99538 0.0
C636 C 0.92349 0.47143 0.97139 0.0
H637 H 0.73012 0.56836 0.50302 0.0
H638 H 0.71565 0.63066 0.43548 0.0
H639 H 0.66069 0.6243 0.43688 0.0
H640 H 0.67902 0.52099 0.48017 0.0
H641 H 0.66523 0.51216 0.51495 0.0
H642 H 0.70298 0.52377 0.511 0.0
H643 H 0.691 0.5649 0.5477 0.0
H644 H 0.65329 0.55312 0.55216 0.0
H645 H 0.65838 0.58972 0.54242 0.0
H646 H 0.60859 0.60622 0.44112 0.0
H647 H 0.56201 0.58176 0.45209 0.0
H648 H 0.61035 0.53383 0.51871 0.0
C649 C 0.71533 0.58139 0.48918 0.0
C650 C 0.72723 0.5998 0.46898 0.0
C651 C 0.70709 0.61603 0.45082 0.0
C652 C 0.67582 0.6127 0.45154 0.0
C653 C 0.66499 0.59348 0.47091 0.0
C654 C 0.68403 0.57857 0.48983 0.0
C655 C 0.66685 0.55834 0.5077 0.0
C656 C 0.67926 0.52697 0.50316 0.0
C657 C 0.66741 0.56705 0.53937 0.0
C658 C 0.63542 0.56358 0.49528 0.0
C659 C 0.63475 0.58389 0.47405 0.0
C660 C 0.60865 0.59071 0.45811 0.0
C661 C 0.58242 0.5766 0.46431 0.0
C662 C 0.5826 0.55617 0.48638 0.0
C663 C 0.60944 0.54972 0.50202 0.0
H664 H 0.07716 0.334 0.14473 0.0
H665 H 0.14246 0.29704 0.08291 0.0
H666 H 0.13248 0.33886 0.05221 0.0
H667 H 0.02358 0.36505 0.09374 0.0
H668 H 0.01414 0.39743 0.11406 0.0
H669 H 0.02645 0.36476 0.13206 0.0
H670 H 0.06939 0.39068 0.15661 0.0
H671 H 0.05718 0.42344 0.1387 0.0
H672 H 0.09589 0.40877 0.13513 0.0
H673 H 0.11485 0.38352 0.02685 0.0
H674 H 0.09132 0.42908 1.00882 0.0
H675 H 0.03774 0.4401 0.08637 0.0
C676 C 0.08953 0.33481 0.12485 0.0
C677 C 0.11036 0.31159 0.11627 0.0
C678 C 0.12588 0.31383 0.08992 0.0
C679 C 0.12054 0.33776 0.07229 0.0
C680 C 0.09966 0.35986 0.08107 0.0
C681 C 0.08444 0.35882 0.10675 0.0
C682 C 0.06293 0.38572 0.11061 0.0
C683 C 0.02981 0.37776 0.11274 0.0
C684 C 0.07189 0.40319 0.13683 0.0
C685 C 0.06843 0.40178 0.08306 0.0
C686 C 0.08975 0.38628 0.06644 0.0
C687 C 0.09826 0.39592 0.03977 0.0
C688 C 0.08465 0.42195 0.02966 0.0
C689 C 0.06268 0.43855 0.04606 0.0
C690 C 0.05466 0.42823 0.07333 0.0
H691 H 0.57701 0.28279 0.99884 0.0
H692 H 0.52626 0.31566 0.9257 0.0
H693 H 0.50345 0.26913 0.92006 0.0
H694 H 0.59652 0.21537 0.97089 0.0
H695 H 0.59296 0.19618 1.00373 0.0
H696 H 0.60194 0.23316 1.00459 0.0
H697 H 0.55537 0.24624 0.03715 0.0
H698 H 0.54649 0.20916 0.03676 0.0
H699 H 0.51828 0.23673 0.02608 0.0
H700 H 0.49133 0.21706 0.91887 0.0
H701 H 0.48847 0.16465 0.92422 0.0
H702 H 0.54644 0.16682 0.99873 0.0
C703 C 0.56062 0.28036 0.98201 0.0
C704 C 0.55326 0.3028 0.9628 0.0
C705 C 0.5318 0.29886 0.94095 0.0
C706 C 0.51887 0.27247 0.93748 0.0
C707 C 0.52742 0.25043 0.95622 0.0
C708 C 0.54746 0.25427 0.97833 0.0
C709 C 0.55435 0.22679 0.99453 0.0
C710 C 0.58846 0.21733 0.99334 0.0
C711 C 0.54293 0.22992 0.02546 0.0
C712 C 0.53587 0.20667 0.97752 0.0
C713 C 0.52032 0.22064 0.95562 0.0
C714 C 0.503 0.20597 0.93624 0.0
C715 C 0.5015 0.17624 0.93945 0.0
C716 C 0.51735 0.16157 0.96179 0.0
C717 C 0.53444 0.17722 0.98113 0.0
H718 H 0.94546 0.73924 0.50344 0.0
H719 H 1.00102 0.70362 0.43355 0.0
H720 H 0.02348 0.75022 0.42792 0.0
H721 H 0.92669 0.805 0.47258 0.0
H722 H 0.92766 0.82586 0.50505 0.0
H723 H 0.91925 0.78877 0.50636 0.0
H724 H 0.96363 0.77808 0.54164 0.0
H725 H 0.97195 0.81529 0.54075 0.0
H726 H 1.00123 0.78762 0.5323 0.0
H727 H 0.03518 0.80244 0.42629 0.0
H728 H 0.03682 0.85522 0.43047 0.0
H729 H 0.97381 0.85578 0.50167 0.0
C730 C 0.96277 0.7411 0.48731 0.0
C731 C 0.97162 0.71781 0.46904 0.0
C732 C 0.9943 0.72106 0.44812 0.0
C733 C 1.00705 0.74748 0.44465 0.0
C734 C 0.99705 0.77031 0.46243 0.0
C735 C 0.97569 0.76724 0.48358 0.0
C736 C 0.96728 0.79542 0.49868 0.0
C737 C 0.93321 0.80427 0.49545 0.0
C738 C 0.9766 0.79401 0.53021 0.0
C739 C 0.98655 0.81501 0.48216 0.0
C740 C 1.00375 0.8002 0.46147 0.0
C741 C 0.02216 0.8142 0.44271 0.0
C742 C 0.02297 0.84414 0.44525 0.0
C743 C 1.00532 0.85966 0.46626 0.0
C744 C 0.98722 0.84467 0.48507 0.0
H745 H 0.4396 0.70064 0.63641 0.0
H746 H 0.37493 0.73494 0.57388 0.0
H747 H 0.38873 0.69383 0.5419 0.0
H748 H 0.49715 0.67162 0.58581 0.0
H749 H 0.50691 0.63981 0.60622 0.0
H750 H 0.49288 0.67247 0.62403 0.0
H751 H 0.45012 0.64551 0.64735 0.0
H752 H 0.46401 0.6128 0.62955 0.0
H753 H 0.42506 0.62627 0.62507 0.0
H754 H 0.4093 0.64886 0.51627 0.0
H755 H 0.43409 0.60262 0.49963 0.0
H756 H 0.48466 0.59558 0.57877 0.0
C757 C 0.42856 0.69959 0.61589 0.0
C758 C 0.40603 0.72119 0.60778 0.0
C759 C 0.39197 0.71869 0.5808 0.0
C760 C 0.39977 0.6954 0.56237 0.0
C761 C 0.42168 0.67437 0.57106 0.0
C762 C 0.43586 0.67612 0.59722 0.0
C763 C 0.45801 0.64999 0.60154 0.0
C764 C 0.49068 0.65902 0.60458 0.0
C765 C 0.44874 0.63262 0.62741 0.0
C766 C 0.45403 0.63341 0.57381 0.0
C767 C 0.43309 0.64801 0.55648 0.0
C768 C 0.4257 0.63723 0.52972 0.0
C769 C 0.43996 0.61086 0.5204 0.0
C770 C 0.46133 0.59518 0.53778 0.0
C771 C 0.46835 0.60682 0.56491 0.0
H772 H 0.93039 0.94838 0.72087 0.0
H773 H 0.89369 0.87257 0.68384 0.0
H774 H 0.90748 0.88837 0.63611 0.0
H775 H 0.90505 0.99736 0.66348 0.0
H776 H 0.9386 0.01722 0.66441 0.0
H777 H 0.92578 1.00049 0.69629 0.0
H778 H 0.97842 0.97307 0.7016 0.0
H779 H 0.99139 0.98974 0.66977 0.0
H780 H 0.99375 0.95116 0.67241 0.0
H781 H 0.92605 0.91082 0.59224 0.0
H782 H 0.94816 0.93884 0.5545 0.0
H783 H 0.97248 1.00222 0.61722 0.0
C784 C 0.92503 0.93519 0.70273 0.0
C785 C 0.9112 0.90877 0.70664 0.0
C786 C 0.90487 0.89237 0.68199 0.0
C787 C 0.91239 0.90134 0.65454 0.0
C788 C 0.9262 0.92706 0.65152 0.0
C789 C 0.93243 0.94392 0.67482 0.0
C790 C 0.9478 0.97056 0.66513 0.0
C791 C 0.92813 0.99804 0.67279 0.0
C792 C 0.97974 0.97116 0.678 0.0
C793 C 0.94936 0.96582 0.63284 0.0
C794 C 0.93665 0.94051 0.6257 0.0
C795 C 0.93591 0.93074 0.5976 0.0
C796 C 0.94865 0.94693 0.5762 0.0
C797 C 0.9621 0.97298 0.58254 0.0
C798 C 0.96211 0.98266 0.61143 0.0
H799 H 0.57922 0.14277 0.18915 0.0
H800 H 0.63491 0.07006 0.22196 0.0
H801 H 0.62161 0.0411 0.1806 0.0
H802 H 0.5199 0.10267 0.15992 0.0
H803 H 0.51449 0.12394 0.12826 0.0
H804 H 0.5284 0.13987 0.16037 0.0
H805 H 0.57541 0.15519 0.13293 0.0
H806 H 0.56161 0.13932 0.10072 0.0
H807 H 0.59906 0.12851 0.11364 0.0
H808 H 0.60063 0.01845 0.13756 0.0
H809 H 0.57503 1.00416 0.09366 0.0
H810 H 0.53468 0.09106 0.08475 0.0
C811 C 0.58886 0.12086 0.18754 0.0
C812 C 0.60773 0.10878 0.20961 0.0
C813 C 0.61969 0.07988 0.20623 0.0
C814 C 0.6125 0.06317 0.18251 0.0
C815 C 0.59352 0.07545 0.16164 0.0
C816 C 0.58204 0.10369 0.1636 0.0
C817 C 0.56204 0.11122 0.1378 0.0
C818 C 0.52926 0.11994 0.14715 0.0
C819 C 0.57533 0.13498 0.12023 0.0
C820 C 0.5639 0.08271 0.12137 0.0
C821 C 0.58218 0.06246 0.13576 0.0
C822 C 0.58654 0.03421 0.12595 0.0
C823 C 0.57179 0.02626 0.10092 0.0
C824 C 0.553 0.04641 0.08542 0.0
C825 C 0.54928 0.07521 0.09575 0.0
H826 H 0.45896 0.54788 0.22635 0.0
H827 H 0.38564 0.49117 0.21786 0.0
H828 H 0.38776 0.48204 0.26958 0.0
H829 H 0.50118 0.50588 0.28207 0.0
H830 H 0.51229 0.53788 0.29985 0.0
H831 H 0.50662 0.53774 0.26184 0.0
H832 H 0.46808 0.58197 0.26726 0.0
H833 H 0.47305 0.58185 0.30531 0.0
H834 H 0.43566 0.57997 0.29039 0.0
H835 H 0.39406 0.48331 0.32244 0.0
H836 H 0.40815 0.49016 0.37269 0.0
H837 H 0.47928 0.54406 0.34641 0.0
C838 C 0.44403 0.53279 0.23518 0.0
C839 C 0.42212 0.52022 0.2181 0.0
C840 C 0.40244 0.50118 0.23063 0.0
C841 C 0.4035 0.49585 0.25993 0.0
C842 C 0.42456 0.50949 0.27631 0.0
C843 C 0.44487 0.52713 0.26435 0.0
C844 C 0.46458 0.53989 0.28686 0.0
C845 C 0.49816 0.52973 0.28239 0.0
C846 C 0.46005 0.57287 0.28748 0.0
C847 C 0.45178 0.52707 0.3134 0.0
C848 C 0.42867 0.50968 0.30683 0.0
C849 C 0.41254 0.4964 0.32783 0.0
C850 C 0.42077 0.5004 0.35631 0.0
C851 C 0.4451 0.51736 0.36354 0.0
C852 C 0.46049 0.53111 0.34169 0.0
H853 H 0.07483 0.46535 0.72837 0.0
H854 H 0.1547 0.51448 0.72497 0.0
H855 H 0.15423 0.51853 0.77745 0.0
H856 H 0.03771 0.50651 0.78655 0.0
H857 H 0.02222 0.47538 0.80178 0.0
H858 H 0.02894 0.47676 0.76397 0.0
H859 H 0.06211 0.4288 0.76684 0.0
H860 H 0.05608 0.42765 0.80478 0.0
H861 H 0.09417 0.4261 0.79064 0.0
H862 H 0.14645 0.51556 0.82991 0.0
H863 H 0.1278 0.51157 0.87919 0.0
H864 H 0.05174 0.46612 0.84841 0.0
C865 C 0.09183 0.47754 0.73856 0.0
C866 C 0.11489 0.48953 0.72255 0.0
C867 C 0.13704 0.50483 0.73682 0.0
C868 C 0.13698 0.50722 0.76659 0.0
C869 C 0.11451 0.49436 0.78171 0.0
C870 C 0.09202 0.48028 0.76821 0.0
C871 C 0.07014 0.46883 0.78948 0.0
C872 C 0.03785 0.48271 0.78519 0.0
C873 C 0.07068 0.43589 0.78782 0.0
C874 C 0.08385 0.47875 0.81708 0.0
C875 C 0.10963 0.49313 0.81207 0.0
C876 C 0.12618 0.50453 0.83411 0.0
C877 C 0.11544 0.50212 0.86198 0.0
C878 C 0.08827 0.48868 0.86751 0.0
C879 C 0.07275 0.47619 0.84481 0.0
H880 H 0.70958 0.89304 0.93515 0.0
H881 H 0.72562 0.96141 0.87595 0.0
H882 H 0.68055 0.98932 0.89432 0.0
H883 H 0.62674 0.89977 0.92863 0.0
H884 H 0.61986 0.89247 0.96564 0.0
H885 H 0.65394 0.87733 0.94843 0.0
H886 H 0.68645 0.90024 0.98714 0.0
H887 H 0.65247 0.91554 1.00441 0.0
H888 H 0.68163 0.9384 0.99374 0.0
H889 H 0.63502 0.01082 0.91887 0.0
H890 H 0.58935 0.02427 0.94685 0.0
H891 H 0.59855 0.94224 0.99014 0.0
C892 C 0.70353 0.91379 0.9259 0.0
C893 C 0.72196 0.92506 0.90429 0.0
C894 C 0.71286 0.95241 0.89299 0.0
C895 C 0.68698 0.96845 0.90315 0.0
C896 C 0.66977 0.957 0.92457 0.0
C897 C 0.67736 0.93024 0.93575 0.0
C898 C 0.65425 0.92321 0.95851 0.0
C899 C 0.63772 0.89661 0.94978 0.0
C900 C 0.66962 0.9191 0.98768 0.0
C901 C 0.6327 0.95028 0.95832 0.0
C902 C 0.64243 0.96937 0.93854 0.0
C903 C 0.62709 0.996 0.93433 0.0
C904 C 0.60102 1.00345 0.95054 0.0
C905 C 0.58994 0.98443 0.97091 0.0
C906 C 0.60619 0.95733 0.9748 0.0
H907 H 0.80605 0.12823 0.43187 0.0
H908 H 0.78916 0.06033 0.37116 0.0
H909 H 0.83255 0.03088 0.39033 0.0
H910 H 0.88835 0.119 0.42702 0.0
H911 H 0.89427 0.12651 0.46427 0.0
H912 H 0.86116 0.14233 0.44647 0.0
H913 H 0.82671 0.12075 0.48418 0.0
H914 H 0.85973 0.10476 0.50202 0.0
H915 H 0.83017 0.08263 0.49042 0.0
H916 H 0.87771 1.00814 0.41587 0.0
H917 H 0.923 0.99467 0.44461 0.0
H918 H 0.91323 0.07736 0.48809 0.0
C919 C 0.81151 0.10726 0.42242 0.0
C920 C 0.79343 0.09667 0.40011 0.0
C921 C 0.80171 0.06892 0.38869 0.0
C922 C 0.82663 0.05197 0.39931 0.0
C923 C 0.8436 0.06292 0.42136 0.0
C924 C 0.8366 0.08999 0.4327 0.0
C925 C 0.85915 0.09666 0.45599 0.0
C926 C 0.87678 0.12267 0.44795 0.0
C927 C 0.84297 0.10148 0.48486 0.0
C928 C 0.87982 0.06911 0.45591 0.0
C929 C 0.87025 0.04994 0.4358 0.0
C930 C 0.88544 0.02303 0.43164 0.0
C931 C 0.91121 0.01553 0.44819 0.0
C932 C 0.92193 0.03483 0.46876 0.0
C933 C 0.90574 0.06201 0.47265 0.0
H934 H 0.24321 0.57511 0.01355 0.0
H935 H 0.22475 0.63974 0.07945 0.0
H936 H 0.16973 0.63487 0.07417 0.0
H937 H 0.17302 0.59398 0.96949 0.0
H938 H 0.16863 0.55672 0.96124 0.0
H939 H 0.20601 0.56907 0.96647 0.0
H940 H 0.21644 0.53058 1.00529 0.0
H941 H 0.17903 0.51841 1.00054 0.0
H942 H 0.19099 0.5297 0.03533 0.0
H943 H 0.1184 0.61738 0.0678 0.0
H944 H 0.07308 0.59085 0.058 0.0
H945 H 0.12427 0.53814 0.99537 0.0
C946 C 0.22746 0.58903 0.02597 0.0
C947 C 0.23803 0.60792 0.04675 0.0
C948 C 0.21693 0.62518 0.06338 0.0
C949 C 0.18571 0.62262 0.06048 0.0
C950 C 0.17599 0.60287 0.04068 0.0
C951 C 0.19615 0.58667 0.02336 0.0
C952 C 0.17997 0.56506 1.0058 0.0
C953 C 0.18203 0.57161 0.97385 0.0
C954 C 0.19235 0.53412 0.01214 0.0
C955 C 0.14785 0.57087 0.01683 0.0
C956 C 0.14602 0.59293 0.03675 0.0
C957 C 0.11934 0.60052 0.05176 0.0
C958 C 0.09381 0.58519 0.04622 0.0
C959 C 0.09518 0.5626 0.02582 0.0
C960 C 0.12247 0.55563 1.01075 0.0
H961 H 0.28493 0.44492 0.50704 0.0
H962 H 0.29342 0.40037 0.58767 0.0
H963 H 0.34755 0.41009 0.58985 0.0
H964 H 0.36155 0.42268 0.47969 0.0
H965 H 0.36584 0.45704 0.46359 0.0
H966 H 0.32867 0.44375 0.46691 0.0
H967 H 0.30988 0.49036 0.49397 0.0
H968 H 0.347 0.50366 0.49097 0.0
H969 H 0.32965 0.50088 0.52554 0.0
H970 H 0.39922 0.42928 0.58589 0.0
H971 H 0.44552 0.45375 0.57418 0.0
H972 H 0.40302 0.48539 0.49617 0.0
C973 C 0.29831 0.43682 0.52492 0.0
C974 C 0.28501 0.4217 0.54706 0.0
C975 C 0.30325 0.4115 0.57016 0.0
C976 C 0.33398 0.41709 0.5717 0.0
C977 C 0.34617 0.43272 0.54989 0.0
C978 C 0.329 0.44213 0.52676 0.0
C979 C 0.34712 0.45968 0.50686 0.0
C980 C 0.35103 0.44489 0.47753 0.0
C981 C 0.33254 0.49046 0.5042 0.0
C982 C 0.37691 0.45919 0.52275 0.0
C983 C 0.37598 0.44351 0.54749 0.0
C984 C 0.40038 0.44129 0.56636 0.0
C985 C 0.42649 0.45536 0.55963 0.0
C986 C 0.42791 0.47133 0.53423 0.0
C987 C 0.40277 0.4731 0.51561 0.0
H988 H 0.93055 0.72687 0.94145 0.0
H989 H 0.90593 0.69119 0.85946 0.0
H990 H 0.92313 0.64307 0.87571 0.0
H991 H 0.99708 0.67982 0.95359 0.0
H992 H 0.99044 0.67574 0.9912 0.0
H993 H 0.97631 0.70803 0.97351 0.0
H994 H 0.922 0.70035 0.99129 0.0
H995 H 0.93597 0.66801 1.00904 0.0
H996 H 0.90556 0.66688 0.98357 0.0
H997 H 0.94472 0.5988 0.89925 0.0
H998 H 0.96772 0.56055 0.92955 0.0
H999 H 0.97599 0.62203 0.99858 0.0
C1000 C 0.92847 0.70898 0.92693 0.0
C1001 C 0.91724 0.71349 0.89871 0.0
C1002 C 0.91522 0.68905 0.88071 0.0
C1003 C 0.92467 0.66133 0.88989 0.0
C1004 C 0.93585 0.65779 0.91746 0.0
C1005 C 0.93759 0.68082 0.9359 0.0
C1006 C 0.95049 0.6706 0.96456 0.0
C1007 C 0.98035 0.68437 0.97109 0.0
C1008 C 0.92711 0.67684 0.98854 0.0
C1009 C 0.95602 0.63834 0.95911 0.0
C1010 C 0.94739 0.63166 0.93166 0.0
C1011 C 0.95127 0.60376 0.92085 0.0
C1012 C 0.96446 0.58211 0.9383 0.0
C1013 C 0.97352 0.58802 0.96661 0.0
C1014 C 0.96887 0.61663 0.97724 0.0
H1015 H 0.48473 0.73612 0.06434 0.0
H1016 H 0.42463 0.74523 0.13769 0.0
H1017 H 0.43442 0.79641 0.14176 0.0
H1018 H 0.53965 0.7872 0.08919 0.0
H1019 H 0.5451 0.80085 0.05389 0.0
H1020 H 0.53599 0.76415 0.05852 0.0
H1021 H 0.48958 0.77268 0.02515 0.0
H1022 H 0.49856 0.8093 0.0204 0.0
H1023 H 0.46148 0.80158 0.03309 0.0
H1024 H 0.44552 0.8473 0.13449 0.0
H1025 H 0.45869 0.89467 0.11689 0.0
H1026 H 0.51282 0.85274 0.04934 0.0
C1027 C 0.47395 0.74884 0.08144 0.0
C1028 C 0.45414 0.73666 0.10084 0.0
C1029 C 0.44036 0.75398 0.12292 0.0
C1030 C 0.44569 0.78309 0.12536 0.0
C1031 C 0.46508 0.7945 0.10573 0.0
C1032 C 0.4792 0.77792 0.08431 0.0
C1033 C 0.4976 0.79588 0.06501 0.0
C1034 C 0.53161 0.78645 0.06677 0.0
C1035 C 0.4861 0.79479 0.03409 0.0
C1036 C 0.49081 0.82527 0.07838 0.0
C1037 C 0.47214 0.82396 0.10196 0.0
C1038 C 0.46066 0.84859 0.11646 0.0
C1039 C 0.46816 0.87531 0.10635 0.0
C1040 C 0.48711 0.87704 0.0822 0.0
C1041 C 0.49896 0.85175 0.06834 0.0
H1042 H 0.03147 0.28981 0.56039 0.0
H1043 H 0.084 0.2788 0.63815 0.0
H1044 H 0.06756 0.22982 0.6427 0.0
H1045 H 0.96875 0.24528 0.58081 0.0
H1046 H 0.96597 0.23045 0.54538 0.0
H1047 H 0.97801 0.26626 0.55036 0.0
H1048 H 0.02726 0.2524 0.52171 0.0
H1049 H 0.01529 0.21672 0.51651 0.0
H1050 H 0.05159 0.22184 0.53257 0.0
H1051 H 0.05109 0.18052 0.63593 0.0
H1052 H 0.03661 0.13367 0.61715 0.0
H1053 H 0.99529 0.17593 0.54377 0.0
C1054 C 0.03925 0.27723 0.57855 0.0
C1055 C 0.05873 0.28836 0.59909 0.0
C1056 C 0.06845 0.2711 0.6225 0.0
C1057 C 0.0593 0.24317 0.62525 0.0
C1058 C 0.04037 0.23278 0.60449 0.0
C1059 C 0.03043 0.24924 0.58157 0.0
C1060 C 0.01255 0.23204 0.56084 0.0
C1061 C 0.97934 0.24424 0.55927 0.0
C1062 C 0.02758 0.23067 0.53117 0.0
C1063 C 0.01499 0.20307 0.57515 0.0
C1064 C 0.03072 0.2041 0.60056 0.0
C1065 C 0.03815 0.17953 0.61644 0.0
C1066 C 0.02984 0.15312 0.60573 0.0
C1067 C 0.01432 0.15167 0.57954 0.0
C1068 C 1.00632 0.1769 0.56432 0.0
H1069 H 0.57536 0.32733 0.38513 0.0
H1070 H 0.63751 0.29329 0.45009 0.0
H1071 H 0.62339 0.33499 0.48084 0.0
H1072 H 0.59078 0.40255 0.39655 0.0
H1073 H 0.55205 0.41595 0.39057 0.0
H1074 H 0.56677 0.38325 0.37326 0.0
H1075 H 0.52295 0.35635 0.39478 0.0
H1076 H 0.50818 0.38895 0.41223 0.0
H1077 H 0.51708 0.3571 0.43282 0.0
H1078 H 0.60187 0.37979 0.50572 0.0
H1079 H 0.57591 0.42563 0.5219 0.0
H1080 H 0.52871 0.43292 0.44095 0.0
C1081 C 0.58621 0.32871 0.4057 0.0
C1082 C 0.60729 0.30636 0.41513 0.0
C1083 C 0.62073 0.30937 0.4424 0.0
C1084 C 0.61302 0.33324 0.46008 0.0
C1085 C 0.59192 0.35448 0.45039 0.0
C1086 C 0.57882 0.35266 0.42377 0.0
C1087 C 0.55685 0.37878 0.41869 0.0
C1088 C 0.56724 0.39616 0.39326 0.0
C1089 C 0.52434 0.36975 0.41437 0.0
C1090 C 0.55962 0.39537 0.44662 0.0
C1091 C 0.57995 0.38083 0.46459 0.0
C1092 C 0.58601 0.39143 0.49175 0.0
C1093 C 0.57106 0.41755 0.5008 0.0
C1094 C 0.55025 0.43316 0.48281 0.0
C1095 C 0.54458 0.42173 0.45527 0.0
loop_
_geom_bond_atom_site_label_1
_geom_bond_atom_site_label_2
_geom_bond_distance
_geom_bond_site_symmetry_2
_ccdc_geom_bond_type
C0 C1 1.386 . S
C0 C2 1.397 . S
C0 H24 0.931 . S
C1 C0 1.386 . S
C1 C5 1.397 . S
C2 C0 1.397 . S
C2 C3 1.384 . S
C2 H25 0.930 . S
C3 C2 1.384 . S
C3 C4 1.377 . S
C3 C6 1.481 . S
C4 C3 1.377 . S
C4 C5 1.389 . S
C4 H26 0.929 . S
C5 C1 1.397 . S
C5 C4 1.389 . S
C5 H27 0.931 . S
C6 C3 1.481 . S
C6 C7 1.387 . S
C6 C11 1.390 . S
C7 C6 1.387 . S
C7 C8 1.401 . S
C7 H28 0.930 . S
C8 C7 1.401 . S
C8 C9 1.376 . S
C8 C17 1.511 . S
C9 C8 1.376 . S
C9 C10 1.392 . S
C9 H30 0.931 . S
C10 C9 1.392 . S
C10 C11 1.361 . S
C10 C12 1.500 . S
C11 C6 1.390 . S
C11 C10 1.361 . S
C11 H29 0.931 . S
C12 C10 1.500 . S
C12 C13 1.371 . S
C12 C14 1.365 . S
C13 C12 1.371 . S
C13 C23 1.386 . S
C13 H31 0.931 . S
C14 C12 1.365 . S
C14 C15 1.409 . S
C14 H32 0.929 . S
C15 C14 1.409 . S
C15 C16 1.380 . S
C15 H33 0.930 . S
C16 C15 1.380 . S
C16 C23 1.357 . S
C17 C8 1.511 . S
C17 C18 1.341 . S
C17 C19 1.371 . S
C18 C17 1.341 . S
C18 C22 1.394 . S
C18 H34 0.930 . S
C19 C17 1.371 . S
C19 C20 1.392 . S
C19 H35 0.931 . S
C20 C19 1.392 . S
C20 C21 1.331 . S
C20 H38 0.932 . S
C21 C20 1.331 . S
C21 C22 1.336 . S
C22 C18 1.394 . S
C22 C21 1.336 . S
C22 H37 0.929 . S
C23 C13 1.386 . S
C23 C16 1.357 . S
C23 H36 0.928 . S
H24 C0 0.931 . S
H25 C2 0.930 . S
H26 C4 0.929 . S
H27 C5 0.931 . S
H28 C7 0.930 . S
H29 C11 0.931 . S
H30 C9 0.931 . S
H31 C13 0.931 . S
H32 C14 0.929 . S
H33 C15 0.930 . S
H34 C18 0.930 . S
H35 C19 0.931 . S
H36 C23 0.928 . S
H37 C22 0.929 . S
H38 C20 0.932 . S
C39 C40 1.386 . S
C39 C41 1.397 . S
C39 H63 0.931 . S
C40 C39 1.386 . S
C40 C44 1.397 . S
C41 C39 1.397 . S
C41 C42 1.384 . S
C41 H64 0.930 . S
C42 C41 1.384 . S
C42 C43 1.377 . S
C42 C45 1.481 . S
C43 C42 1.377 . S
C43 C44 1.389 . S
C43 H65 0.929 . S
C44 C40 1.397 . S
C44 C43 1.389 . S
C44 H66 0.931 . S
C45 C42 1.481 . S
C45 C46 1.387 . S
C45 C50 1.390 . S
C46 C45 1.387 . S
C46 C47 1.401 . S
C46 H67 0.930 . S
C47 C46 1.401 . S
C47 C48 1.376 . S
C47 C56 1.511 . S
C48 C47 1.376 . S
C48 C49 1.392 . S
C48 H69 0.931 . S
C49 C48 1.392 . S
C49 C50 1.361 . S
C49 C51 1.500 . S
C50 C45 1.390 . S
C50 C49 1.361 . S
C50 H68 0.931 . S
C51 C49 1.500 . S
C51 C52 1.371 . S
C51 C53 1.365 . S
C52 C51 1.371 . S
C52 C62 1.386 . S
C52 H70 0.931 . S
C53 C51 1.365 . S
C53 C54 1.409 . S
C53 H71 0.929 . S
C54 C53 1.409 . S
C54 C55 1.380 . S
C54 H72 0.930 . S
C55 C54 1.380 . S
C55 C62 1.357 . S
C56 C47 1.511 . S
C56 C57 1.341 . S
C56 C58 1.371 . S
C57 C56 1.341 . S
C57 C61 1.394 . S
C57 H73 0.930 . S
C58 C56 1.371 . S
C58 C59 1.392 . S
C58 H74 0.931 . S
C59 C58 1.392 . S
C59 C60 1.331 . S
C59 H77 0.932 . S
C60 C59 1.331 . S
C60 C61 1.336 . S
C61 C57 1.394 . S
C61 C60 1.336 . S
C61 H76 0.929 . S
C62 C52 1.386 . S
C62 C55 1.357 . S
C62 H75 0.928 . S
H63 C39 0.931 . S
H64 C41 0.930 . S
H65 C43 0.929 . S
H66 C44 0.931 . S
H67 C46 0.930 . S
H68 C50 0.931 . S
H69 C48 0.931 . S
H70 C52 0.931 . S
H71 C53 0.929 . S
H72 C54 0.930 . S
H73 C57 0.930 . S
H74 C58 0.931 . S
H75 C62 0.928 . S
H76 C61 0.929 . S
H77 C59 0.932 . S
C78 C79 1.386 . S
C78 C80 1.397 . S
C78 H102 0.931 . S
C79 C78 1.386 . S
C79 C83 1.397 . S
C80 C78 1.397 . S
C80 C81 1.384 . S
C80 H103 0.930 . S
C81 C80 1.384 . S
C81 C82 1.377 . S
C81 C84 1.481 . S
C82 C81 1.377 . S
C82 C83 1.389 . S
C82 H104 0.929 . S
C83 C79 1.397 . S
C83 C82 1.389 . S
C83 H105 0.931 . S
C84 C81 1.481 . S
C84 C85 1.387 . S
C84 C89 1.390 . S
C85 C84 1.387 . S
C85 C86 1.401 . S
C85 H106 0.930 . S
C86 C85 1.401 . S
C86 C87 1.376 . S
C86 C95 1.511 . S
C87 C86 1.376 . S
C87 C88 1.392 . S
C87 H108 0.931 . S
C88 C87 1.392 . S
C88 C89 1.361 . S
C88 C90 1.500 . S
C89 C84 1.390 . S
C89 C88 1.361 . S
C89 H107 0.931 . S
C90 C88 1.500 . S
C90 C91 1.371 . S
C90 C92 1.365 . S
C91 C90 1.371 . S
C91 C101 1.386 . S
C91 H109 0.931 . S
C92 C90 1.365 . S
C92 C93 1.409 . S
C92 H110 0.929 . S
C93 C92 1.409 . S
C93 C94 1.380 . S
C93 H111 0.930 . S
C94 C93 1.380 . S
C94 C101 1.357 . S
C95 C86 1.511 . S
C95 C96 1.341 . S
C95 C97 1.371 . S
C96 C95 1.341 . S
C96 C100 1.394 . S
C96 H112 0.930 . S
C97 C95 1.371 . S
C97 C98 1.392 . S
C97 H113 0.931 . S
C98 C97 1.392 . S
C98 C99 1.331 . S
C98 H116 0.932 . S
C99 C98 1.331 . S
C99 C100 1.336 . S
C100 C96 1.394 . S
C100 C99 1.336 . S
C100 H115 0.929 . S
C101 C91 1.386 . S
C101 C94 1.357 . S
C101 H114 0.928 . S
H102 C78 0.931 . S
H103 C80 0.930 . S
H104 C82 0.929 . S
H105 C83 0.931 . S
H106 C85 0.930 . S
H107 C89 0.931 . S
H108 C87 0.931 . S
H109 C91 0.931 . S
H110 C92 0.929 . S
H111 C93 0.930 . S
H112 C96 0.930 . S
H113 C97 0.931 . S
H114 C101 0.928 . S
H115 C100 0.929 . S
H116 C98 0.932 . S
C117 C118 1.386 . S
C117 C119 1.397 . S
C117 H141 0.931 . S
C118 C117 1.386 . S
C118 C122 1.397 . S
C119 C117 1.397 . S
C119 C120 1.384 . S
C119 H142 0.930 . S
C120 C119 1.384 . S
C120 C121 1.377 . S
C120 C123 1.481 . S
C121 C120 1.377 . S
C121 C122 1.389 . S
C121 H143 0.929 . S
C122 C118 1.397 . S
C122 C121 1.389 . S
C122 H144 0.931 . S
C123 C120 1.481 . S
C123 C124 1.387 . S
C123 C128 1.390 . S
C124 C123 1.387 . S
C124 C125 1.401 . S
C124 H145 0.930 . S
C125 C124 1.401 . S
C125 C126 1.376 . S
C125 C134 1.511 . S
C126 C125 1.376 . S
C126 C127 1.392 . S
C126 H147 0.931 . S
C127 C126 1.392 . S
C127 C128 1.361 . S
C127 C129 1.500 . S
C128 C123 1.390 . S
C128 C127 1.361 . S
C128 H146 0.931 . S
C129 C127 1.500 . S
C129 C130 1.371 . S
C129 C131 1.365 . S
C130 C129 1.371 . S
C130 C140 1.386 . S
C130 H148 0.931 . S
C131 C129 1.365 . S
C131 C132 1.409 . S
C131 H149 0.929 . S
C132 C131 1.409 . S
C132 C133 1.380 . S
C132 H150 0.930 . S
C133 C132 1.380 . S
C133 C140 1.357 . S
C134 C125 1.511 . S
C134 C135 1.341 . S
C134 C136 1.371 . S
C135 C134 1.341 . S
C135 C139 1.394 . S
C135 H151 0.930 . S
C136 C134 1.371 . S
C136 C137 1.392 . S
C136 H152 0.931 . S
C137 C136 1.392 . S
C137 C138 1.331 . S
C137 H155 0.932 . S
C138 C137 1.331 . S
C138 C139 1.336 . S
C139 C135 1.394 . S
C139 C138 1.336 . S
C139 H154 0.929 . S
C140 C130 1.386 . S
C140 C133 1.357 . S
C140 H153 0.928 . S
H141 C117 0.931 . S
H142 C119 0.930 . S
H143 C121 0.929 . S
H144 C122 0.931 . S
H145 C124 0.930 . S
H146 C128 0.931 . S
H147 C126 0.931 . S
H148 C130 0.931 . S
H149 C131 0.929 . S
H150 C132 0.930 . S
H151 C135 0.930 . S
H152 C136 0.931 . S
H153 C140 0.928 . S
H154 C139 0.929 . S
H155 C137 0.932 . S
C156 C157 1.386 . S
C156 C158 1.397 . S
C156 H180 0.931 . S
C157 C156 1.386 . S
C157 C161 1.397 . S
C158 C156 1.397 . S
C158 C159 1.384 . S
C158 H181 0.930 . S
C159 C158 1.384 . S
C159 C160 1.377 . S
C159 C162 1.481 . S
C160 C159 1.377 . S
C160 C161 1.389 . S
C160 H182 0.929 . S
C161 C157 1.397 . S
C161 C160 1.389 . S
C161 H183 0.931 . S
C162 C159 1.481 . S
C162 C163 1.387 . S
C162 C167 1.390 . S
C163 C162 1.387 . S
C163 C164 1.401 . S
C163 H184 0.930 . S
C164 C163 1.401 . S
C164 C165 1.376 . S
C164 C173 1.511 . S
C165 C164 1.376 . S
C165 C166 1.392 . S
C165 H186 0.931 . S
C166 C165 1.392 . S
C166 C167 1.361 . S
C166 C168 1.500 . S
C167 C162 1.390 . S
C167 C166 1.361 . S
C167 H185 0.931 . S
C168 C166 1.500 . S
C168 C169 1.371 . S
C168 C170 1.365 . S
C169 C168 1.371 . S
C169 C179 1.386 . S
C169 H187 0.931 . S
C170 C168 1.365 . S
C170 C171 1.409 . S
C170 H188 0.929 . S
C171 C170 1.409 . S
C171 C172 1.380 . S
C171 H189 0.930 . S
C172 C171 1.380 . S
C172 C179 1.357 . S
C173 C164 1.511 . S
C173 C174 1.341 . S
C173 C175 1.371 . S
C174 C173 1.341 . S
C174 C178 1.394 . S
C174 H190 0.930 . S
C175 C173 1.371 . S
C175 C176 1.392 . S
C175 H191 0.931 . S
C176 C175 1.392 . S
C176 C177 1.331 . S
C176 H194 0.932 . S
C177 C176 1.331 . S
C177 C178 1.336 . S
C178 C174 1.394 . S
C178 C177 1.336 . S
C178 H193 0.929 . S
C179 C169 1.386 . S
C179 C172 1.357 . S
C179 H192 0.928 . S
H180 C156 0.931 . S
H181 C158 0.930 . S
H182 C160 0.929 . S
H183 C161 0.931 . S
H184 C163 0.930 . S
H185 C167 0.931 . S
H186 C165 0.931 . S
H187 C169 0.931 . S
H188 C170 0.929 . S
H189 C171 0.930 . S
H190 C174 0.930 . S
H191 C175 0.931 . S
H192 C179 0.928 . S
H193 C178 0.929 . S
H194 C176 0.932 . S
C195 C196 1.386 . S
C195 C197 1.397 . S
C195 H219 0.931 . S
C196 C195 1.386 . S
C196 C200 1.397 . S
C197 C195 1.397 . S
C197 C198 1.384 . S
C197 H220 0.930 . S
C198 C197 1.384 . S
C198 C199 1.377 . S
C198 C201 1.481 . S
C199 C198 1.377 . S
C199 C200 1.389 . S
C199 H221 0.929 . S
C200 C196 1.397 . S
C200 C199 1.389 . S
C200 H222 0.931 . S
C201 C198 1.481 . S
C201 C202 1.387 . S
C201 C206 1.390 . S
C202 C201 1.387 . S
C202 C203 1.401 . S
C202 H223 0.930 . S
C203 C202 1.401 . S
C203 C204 1.376 . S
C203 C212 1.511 . S
C204 C203 1.376 . S
C204 C205 1.392 . S
C204 H225 0.931 . S
C205 C204 1.392 . S
C205 C206 1.361 . S
C205 C207 1.500 . S
C206 C201 1.390 . S
C206 C205 1.361 . S
C206 H224 0.931 . S
C207 C205 1.500 . S
C207 C208 1.371 . S
C207 C209 1.365 . S
C208 C207 1.371 . S
C208 C218 1.386 . S
C208 H226 0.931 . S
C209 C207 1.365 . S
C209 C210 1.409 . S
C209 H227 0.929 . S
C210 C209 1.409 . S
C210 C211 1.380 . S
C210 H228 0.930 . S
C211 C210 1.380 . S
C211 C218 1.357 . S
C212 C203 1.511 . S
C212 C213 1.341 . S
C212 C214 1.371 . S
C213 C212 1.341 . S
C213 C217 1.394 . S
C213 H229 0.930 . S
C214 C212 1.371 . S
C214 C215 1.392 . S
C214 H230 0.931 . S
C215 C214 1.392 . S
C215 C216 1.331 . S
C215 H233 0.932 . S
C216 C215 1.331 . S
C216 C217 1.336 . S
C217 C213 1.394 . S
C217 C216 1.336 . S
C217 H232 0.929 . S
C218 C208 1.386 . S
C218 C211 1.357 . S
C218 H231 0.928 . S
H219 C195 0.931 . S
H220 C197 0.930 . S
H221 C199 0.929 . S
H222 C200 0.931 . S
H223 C202 0.930 . S
H224 C206 0.931 . S
H225 C204 0.931 . S
H226 C208 0.931 . S
H227 C209 0.929 . S
H228 C210 0.930 . S
H229 C213 0.930 . S
H230 C214 0.931 . S
H231 C218 0.928 . S
H232 C217 0.929 . S
H233 C215 0.932 . S
C234 C235 1.386 . S
C234 C236 1.397 . S
C234 H258 0.931 . S
C235 C234 1.386 . S
C235 C239 1.397 . S
C236 C234 1.397 . S
C236 C237 1.384 . S
C236 H259 0.930 . S
C237 C236 1.384 . S
C237 C238 1.377 . S
C237 C240 1.481 . S
C238 C237 1.377 . S
C238 C239 1.389 . S
C238 H260 0.929 . S
C239 C235 1.397 . S
C239 C238 1.389 . S
C239 H261 0.931 . S
C240 C237 1.481 . S
C240 C241 1.387 . S
C240 C245 1.390 . S
C241 C240 1.387 . S
C241 C242 1.401 . S
C241 H262 0.930 . S
C242 C241 1.401 . S
C242 C243 1.376 . S
C242 C251 1.511 . S
C243 C242 1.376 . S
C243 C244 1.392 . S
C243 H264 0.931 . S
C244 C243 1.392 . S
C244 C245 1.361 . S
C244 C246 1.500 . S
C245 C240 1.390 . S
C245 C244 1.361 . S
C245 H263 0.931 . S
C246 C244 1.500 . S
C246 C247 1.371 . S
C246 C248 1.365 . S
C247 C246 1.371 . S
C247 C257 1.386 . S
C247 H265 0.931 . S
C248 C246 1.365 . S
C248 C249 1.409 . S
C248 H266 0.929 . S
C249 C248 1.409 . S
C249 C250 1.380 . S
C249 H267 0.930 . S
C250 C249 1.380 . S
C250 C257 1.357 . S
C251 C242 1.511 . S
C251 C252 1.341 . S
C251 C253 1.371 . S
C252 C251 1.341 . S
C252 C256 1.394 . S
C252 H268 0.930 . S
C253 C251 1.371 . S
C253 C254 1.392 . S
C253 H269 0.931 . S
C254 C253 1.392 . S
C254 C255 1.331 . S
C254 H272 0.932 . S
C255 C254 1.331 . S
C255 C256 1.336 . S
C256 C252 1.394 . S
C256 C255 1.336 . S
C256 H271 0.929 . S
C257 C247 1.386 . S
C257 C250 1.357 . S
C257 H270 0.928 . S
H258 C234 0.931 . S
H259 C236 0.930 . S
H260 C238 0.929 . S
H261 C239 0.931 . S
H262 C241 0.930 . S
H263 C245 0.931 . S
H264 C243 0.931 . S
H265 C247 0.931 . S
H266 C248 0.929 . S
H267 C249 0.930 . S
H268 C252 0.930 . S
H269 C253 0.931 . S
H270 C257 0.928 . S
H271 C256 0.929 . S
H272 C254 0.932 . S
C273 C274 1.386 . S
C273 C275 1.397 . S
C273 H297 0.931 . S
C274 C273 1.386 . S
C274 C278 1.397 . S
C275 C273 1.397 . S
C275 C276 1.384 . S
C275 H298 0.930 . S
C276 C275 1.384 . S
C276 C277 1.377 . S
C276 C279 1.481 . S
C277 C276 1.377 . S
C277 C278 1.389 . S
C277 H299 0.929 . S
C278 C274 1.397 . S
C278 C277 1.389 . S
C278 H300 0.931 . S
C279 C276 1.481 . S
C279 C280 1.387 . S
C279 C284 1.390 . S
C280 C279 1.387 . S
C280 C281 1.401 . S
C280 H301 0.930 . S
C281 C280 1.401 . S
C281 C282 1.376 . S
C281 C290 1.511 . S
C282 C281 1.376 . S
C282 C283 1.392 . S
C282 H303 0.931 . S
C283 C282 1.392 . S
C283 C284 1.361 . S
C283 C285 1.500 . S
C284 C279 1.390 . S
C284 C283 1.361 . S
C284 H302 0.931 . S
C285 C283 1.500 . S
C285 C286 1.371 . S
C285 C287 1.365 . S
C286 C285 1.371 . S
C286 C296 1.386 . S
C286 H304 0.931 . S
C287 C285 1.365 . S
C287 C288 1.409 . S
C287 H305 0.929 . S
C288 C287 1.409 . S
C288 C289 1.380 . S
C288 H306 0.930 . S
C289 C288 1.380 . S
C289 C296 1.357 . S
C290 C281 1.511 . S
C290 C291 1.341 . S
C290 C292 1.371 . S
C291 C290 1.341 . S
C291 C295 1.394 . S
C291 H307 0.930 . S
C292 C290 1.371 . S
C292 C293 1.392 . S
C292 H308 0.931 . S
C293 C292 1.392 . S
C293 C294 1.331 . S
C293 H311 0.932 . S
C294 C293 1.331 . S
C294 C295 1.336 . S
C295 C291 1.394 . S
C295 C294 1.336 . S
C295 H310 0.929 . S
C296 C286 1.386 . S
C296 C289 1.357 . S
C296 H309 0.928 . S
H297 C273 0.931 . S
H298 C275 0.930 . S
H299 C277 0.929 . S
H300 C278 0.931 . S
H301 C280 0.930 . S
H302 C284 0.931 . S
H303 C282 0.931 . S
H304 C286 0.931 . S
H305 C287 0.929 . S
H306 C288 0.930 . S
H307 C291 0.930 . S
H308 C292 0.931 . S
H309 C296 0.928 . S
H310 C295 0.929 . S
H311 C293 0.932 . S
C312 O328 1.251 . S
C312 O330 1.254 1_545 S
N313 C314 1.333 . S
N313 C318 1.307 . S
N313 Zn319 2.020 . S
C314 N313 1.333 . S
C314 C315 1.379 . S
C314 H332 0.952 . S
C315 C314 1.379 . S
C315 C316 1.390 . S
C315 H342 0.949 . S
C316 C315 1.390 . S
C316 C317 1.357 . S
C317 C316 1.357 . S
C317 C318 1.370 . S
C317 H343 0.950 . S
C318 N313 1.307 . S
C318 C317 1.370 . S
C318 H336 0.948 1_455 S
Zn319 N313 2.020 . S
Zn319 O328 2.039 . S
Zn319 O334 2.034 . S
Zn319 O338 2.025 1_455 S
Zn319 O340 2.024 1_455 S
C320 O339 1.246 1_545 S
C320 O340 1.249 . S
N321 C322 1.322 . S
N321 C323 1.333 . S
N321 Zn327 2.020 . S
C322 N321 1.322 . S
C322 C326 1.380 . S
C322 H333 0.923 1_655 S
C323 N321 1.333 . S
C323 C324 1.379 . S
C323 H331 0.952 . S
C324 C323 1.379 . S
C324 C325 1.390 . S
C324 H344 0.949 . S
C325 C324 1.390 . S
C325 C326 1.357 . S
C326 C322 1.380 . S
C326 C325 1.357 . S
C326 H345 0.950 1_655 S
Zn327 N321 2.020 . S
Zn327 O330 2.025 1_655 S
Zn327 O335 2.024 1_655 S
Zn327 O337 2.039 . S
Zn327 O339 2.034 . S
O328 C312 1.251 . S
O328 Zn319 2.039 . S
C329 O334 1.246 1_565 S
C329 O335 1.249 . S
O330 C312 1.254 1_565 S
O330 Zn327 2.025 1_455 S
H331 C323 0.952 . S
H332 C314 0.952 . S
H333 C322 0.923 1_455 S
O334 Zn319 2.034 . S
O334 C329 1.246 1_545 S
O335 Zn327 2.024 1_455 S
O335 C329 1.249 . S
H336 C318 0.948 1_655 S
O337 Zn327 2.039 . S
O337 C341 1.251 . S
O338 Zn319 2.025 1_655 S
O338 C341 1.254 1_545 S
O339 C320 1.246 1_565 S
O339 Zn327 2.034 . S
O340 Zn319 2.024 1_655 S
O340 C320 1.249 . S
C341 O337 1.251 . S
C341 O338 1.254 1_565 S
H342 C315 0.949 . S
H343 C317 0.950 . S
H344 C324 0.949 . S
H345 C326 0.950 1_455 S
C346 O362 1.251 1_565 S
C346 O364 1.254 . S
N347 C348 1.333 . S
N347 C352 1.307 . S
N347 Zn353 2.020 . S
C348 N347 1.333 . S
C348 C349 1.379 . S
C348 H366 0.952 . S
C349 C348 1.379 . S
C349 C350 1.390 . S
C349 H376 0.949 . S
C350 C349 1.390 . S
C350 C351 1.357 . S
C351 C350 1.357 . S
C351 C352 1.370 . S
C351 H377 0.950 . S
C352 N347 1.307 . S
C352 C351 1.370 . S
C352 H370 0.948 . S
Zn353 N347 2.020 . S
Zn353 O362 2.039 . S
Zn353 O368 2.034 1_556 S
Zn353 O372 2.025 1_556 S
Zn353 O374 2.024 . S
C354 O373 1.246 . S
C354 O374 1.249 1_565 S
N355 C356 1.307 . S
N355 C357 1.333 . S
N355 Zn361 2.020 . S
C356 N355 1.307 . S
C356 C360 1.370 . S
C356 H367 0.948 . S
C357 N355 1.333 . S
C357 C358 1.379 . S
C357 H365 0.952 . S
C358 C357 1.379 . S
C358 C359 1.390 . S
C358 H378 0.949 . S
C359 C358 1.390 . S
C359 C360 1.357 . S
C360 C356 1.370 . S
C360 C359 1.357 . S
C360 H379 0.950 . S
Zn361 N355 2.020 . S
Zn361 O364 2.025 1_554 S
Zn361 O369 2.024 . S
Zn361 O371 2.039 . S
Zn361 O373 2.034 1_554 S
O362 C346 1.251 1_545 S
O362 Zn353 2.039 . S
C363 O368 1.246 . S
C363 O369 1.249 1_545 S
O364 C346 1.254 . S
O364 Zn361 2.025 1_556 S
H365 C357 0.952 . S
H366 C348 0.952 . S
H367 C356 0.948 . S
O368 Zn353 2.034 1_554 S
O368 C363 1.246 . S
O369 Zn361 2.024 . S
O369 C363 1.249 1_565 S
H370 C352 0.948 . S
O371 Zn361 2.039 . S
O371 C375 1.251 1_565 S
O372 Zn353 2.025 1_554 S
O372 C375 1.254 . S
O373 C354 1.246 . S
O373 Zn361 2.034 1_556 S
O374 Zn353 2.024 . S
O374 C354 1.249 1_545 S
C375 O371 1.251 1_545 S
C375 O372 1.254 . S
H376 C349 0.949 . S
H377 C351 0.950 . S
H378 C358 0.949 . S
H379 C360 0.950 . S
C380 O396 1.251 . S
C380 O398 1.254 . S
N381 C382 1.333 . S
N381 C386 1.307 . S
N381 Zn387 2.020 . S
C382 N381 1.333 . S
C382 C383 1.379 . S
C382 H400 0.952 . S
C383 C382 1.379 . S
C383 C384 1.390 . S
C383 H410 0.949 . S
C384 C383 1.390 . S
C384 C385 1.357 . S
C385 C384 1.357 . S
C385 C386 1.370 . S
C385 H411 0.950 . S
C386 N381 1.307 . S
C386 C385 1.370 . S
C386 H404 0.948 . S
Zn387 N381 2.020 . S
Zn387 O396 2.039 . S
Zn387 O402 2.034 . S
Zn387 O406 2.025 . S
Zn387 O408 2.024 . S
C388 O407 1.246 . S
C388 O408 1.249 . S
N389 C390 1.307 . S
N389 C391 1.333 . S
N389 Zn395 2.020 . S
C390 N389 1.307 . S
C390 C394 1.370 . S
C390 H401 0.948 . S
C391 N389 1.333 . S
C391 C392 1.379 . S
C391 H399 0.952 . S
C392 C391 1.379 . S
C392 C393 1.390 . S
C392 H412 0.949 . S
C393 C392 1.390 . S
C393 C394 1.357 . S
C394 C390 1.370 . S
C394 C393 1.357 . S
C394 H413 0.950 . S
Zn395 N389 2.020 . S
Zn395 O398 2.025 . S
Zn395 O403 2.024 . S
Zn395 O405 2.039 . S
Zn395 O407 2.034 . S
O396 C380 1.251 . S
O396 Zn387 2.039 . S
C397 O402 1.246 . S
C397 O403 1.249 . S
O398 C380 1.254 . S
O398 Zn395 2.025 . S
H399 C391 0.952 . S
H400 C382 0.952 . S
H401 C390 0.948 . S
O402 Zn387 2.034 . S
O402 C397 1.246 . S
O403 Zn395 2.024 . S
O403 C397 1.249 . S
H404 C386 0.948 . S
O405 Zn395 2.039 . S
O405 C409 1.251 . S
O406 Zn387 2.025 . S
O406 C409 1.254 . S
O407 C388 1.246 . S
O407 Zn395 2.034 . S
O408 Zn387 2.024 . S
O408 C388 1.249 . S
C409 O405 1.251 . S
C409 O406 1.254 . S
H410 C383 0.949 . S
H411 C385 0.950 . S
H412 C392 0.949 . S
H413 C394 0.950 . S
C414 O430 1.251 1_556 S
C414 O432 1.267 . S
N415 C416 1.333 . S
N415 C420 1.307 . S
N415 Zn421 2.020 . S
C416 N415 1.333 . S
C416 C417 1.379 . S
C416 H434 0.952 . S
C417 C416 1.379 . S
C417 C418 1.390 . S
C417 H444 0.949 . S
C418 C417 1.390 . S
C418 C419 1.357 . S
C419 C418 1.357 . S
C419 C420 1.370 . S
C419 H445 0.950 . S
C420 N415 1.307 . S
C420 C419 1.370 . S
C420 H438 0.948 . S
Zn421 N415 2.020 . S
Zn421 O430 2.039 . S
Zn421 O436 2.034 1_655 S
Zn421 O440 2.025 1_655 S
Zn421 O442 2.024 . S
C422 O441 1.246 . S
C422 O442 1.249 1_556 S
N423 C424 1.307 . S
N423 C425 1.333 . S
N423 Zn429 2.020 . S
C424 N423 1.307 . S
C424 C428 1.370 . S
C424 H435 0.948 . S
C425 N423 1.333 . S
C425 C426 1.379 . S
C425 H433 0.952 . S
C426 C425 1.379 . S
C426 C427 1.390 . S
C426 H446 0.949 . S
C427 C426 1.390 . S
C427 C428 1.357 . S
C428 C424 1.370 . S
C428 C427 1.357 . S
C428 H447 0.950 . S
Zn429 N423 2.020 . S
Zn429 O432 2.017 1_455 S
Zn429 O437 2.024 . S
Zn429 O439 2.039 . S
Zn429 O441 2.034 1_455 S
O430 C414 1.251 1_554 S
O430 Zn421 2.039 . S
C431 O436 1.246 . S
C431 O437 1.249 1_554 S
O432 C414 1.267 . S
O432 Zn429 2.017 1_655 S
H433 C425 0.952 . S
H434 C416 0.952 . S
H435 C424 0.948 . S
O436 Zn421 2.034 1_455 S
O436 C431 1.246 . S
O437 Zn429 2.024 . S
O437 C431 1.249 1_556 S
H438 C420 0.948 . S
O439 Zn429 2.039 . S
O439 C443 1.251 1_556 S
O440 Zn421 2.025 1_455 S
O440 C443 1.254 . S
O441 C422 1.246 . S
O441 Zn429 2.034 1_655 S
O442 Zn421 2.024 . S
O442 C422 1.249 1_554 S
C443 O439 1.251 1_554 S
C443 O440 1.254 . S
H444 C417 0.949 . S
H445 C419 0.950 . S
H446 C426 0.949 . S
H447 C428 0.950 . S
H448 C460 0.930 . S
H449 C462 0.930 . S
H450 C463 0.930 . S
H451 C467 0.959 . S
H452 C467 0.959 . S
H453 C467 0.961 . S
H454 C468 0.960 . S
H455 C468 0.961 . S
H456 C468 0.959 . S
H457 C471 0.929 1_565 S
H458 C472 0.931 1_565 S
H459 C474 0.930 . S
C460 H448 0.930 . S
C460 C461 1.399 . S
C460 C465 1.399 . S
C461 C460 1.399 . S
C461 C462 1.376 . S
C462 H449 0.930 . S
C462 C461 1.376 . S
C462 C463 1.388 . S
C463 H450 0.930 . S
C463 C462 1.388 . S
C463 C464 1.390 . S
C464 C463 1.390 . S
C464 C465 1.394 . S
C464 C470 1.465 . S
C465 C460 1.399 . S
C465 C464 1.394 . S
C465 C466 1.516 . S
C466 C465 1.516 . S
C466 C467 1.502 . S
C466 C468 1.561 . S
C466 C469 1.526 . S
C467 H451 0.959 . S
C467 H452 0.959 . S
C467 H453 0.961 . S
C467 C466 1.502 . S
C468 H454 0.960 . S
C468 H455 0.961 . S
C468 H456 0.959 . S
C468 C466 1.561 . S
C469 C466 1.526 . S
C469 C470 1.396 . S
C469 C474 1.390 . S
C470 C464 1.465 . S
C470 C469 1.396 . S
C470 C471 1.399 . S
C471 H457 0.929 1_545 S
C471 C470 1.399 . S
C471 C472 1.385 . S
C472 H458 0.931 1_545 S
C472 C471 1.385 . S
C472 C473 1.389 . S
C473 C472 1.389 . S
C473 C474 1.387 . S
C474 H459 0.930 . S
C474 C469 1.390 . S
C474 C473 1.387 . S
H475 C487 0.930 . S
H476 C489 0.930 . S
H477 C490 0.930 . S
H478 C494 0.959 1_565 S
H479 C494 0.959 . S
H480 C494 0.961 . S
H481 C495 0.960 . S
H482 C495 0.961 . S
H483 C495 0.959 . S
H484 C498 0.929 . S
H485 C499 0.931 . S
H486 C501 0.930 1_545 S
C487 H475 0.930 . S
C487 C488 1.399 . S
C487 C492 1.399 . S
C488 C487 1.399 . S
C488 C489 1.376 . S
C489 H476 0.930 . S
C489 C488 1.376 . S
C489 C490 1.388 . S
C490 H477 0.930 . S
C490 C489 1.388 . S
C490 C491 1.390 . S
C491 C490 1.390 . S
C491 C492 1.394 . S
C491 C497 1.465 . S
C492 C487 1.399 . S
C492 C491 1.394 . S
C492 C493 1.516 . S
C493 C492 1.516 . S
C493 C494 1.502 1_565 S
C493 C495 1.561 1_565 S
C493 C496 1.526 . S
C494 H478 0.959 1_545 S
C494 H479 0.959 . S
C494 H480 0.961 . S
C494 C493 1.502 1_545 S
C495 H481 0.960 . S
C495 H482 0.961 . S
C495 H483 0.959 . S
C495 C493 1.561 1_545 S
C496 C493 1.526 . S
C496 C497 1.396 . S
C496 C501 1.390 . S
C497 C491 1.465 . S
C497 C496 1.396 . S
C497 C498 1.399 . S
C498 H484 0.929 . S
C498 C497 1.399 . S
C498 C499 1.385 . S
C499 H485 0.931 . S
C499 C498 1.385 . S
C499 C500 1.389 . S
C500 C499 1.389 . S
C500 C501 1.387 . S
C501 H486 0.930 1_565 S
C501 C496 1.390 . S
C501 C500 1.387 . S
H502 C514 0.930 . S
H503 C516 0.930 . S
H504 C517 0.930 . S
H505 C521 0.959 . S
H506 C521 0.959 . S
H507 C521 0.961 . S
H508 C522 0.960 . S
H509 C522 0.961 . S
H510 C522 0.959 . S
H511 C525 0.929 . S
H512 C526 0.931 . S
H513 C528 0.930 . S
C514 H502 0.930 . S
C514 C515 1.399 . S
C514 C519 1.399 . S
C515 C514 1.399 . S
C515 C516 1.376 . S
C516 H503 0.930 . S
C516 C515 1.376 . S
C516 C517 1.388 . S
C517 H504 0.930 . S
C517 C516 1.388 . S
C517 C518 1.390 . S
C518 C517 1.390 . S
C518 C519 1.394 . S
C518 C524 1.465 . S
C519 C514 1.399 . S
C519 C518 1.394 . S
C519 C520 1.516 . S
C520 C519 1.516 . S
C520 C521 1.502 . S
C520 C522 1.561 . S
C520 C523 1.526 . S
C521 H505 0.959 . S
C521 H506 0.959 . S
C521 H507 0.961 . S
C521 C520 1.502 . S
C522 H508 0.960 . S
C522 H509 0.961 . S
C522 H510 0.959 . S
C522 C520 1.561 . S
C523 C520 1.526 . S
C523 C524 1.396 . S
C523 C528 1.390 . S
C524 C518 1.465 . S
C524 C523 1.396 . S
C524 C525 1.399 . S
C525 H511 0.929 . S
C525 C524 1.399 . S
C525 C526 1.385 . S
C526 H512 0.931 . S
C526 C525 1.385 . S
C526 C527 1.389 . S
C527 C526 1.389 . S
C527 C528 1.387 . S
C528 H513 0.930 . S
C528 C523 1.390 . S
C528 C527 1.387 . S
H529 C541 0.930 . S
H530 C543 0.930 . S
H531 C544 0.930 . S
H532 C548 0.959 . S
H533 C548 0.959 . S
H534 C548 0.961 . S
H535 C549 0.960 . S
H536 C549 0.961 . S
H537 C549 0.959 . S
H538 C552 0.929 . S
H539 C553 0.931 . S
H540 C555 0.930 . S
C541 H529 0.930 . S
C541 C542 1.399 . S
C541 C546 1.399 . S
C542 C541 1.399 . S
C542 C543 1.376 . S
C543 H530 0.930 . S
C543 C542 1.376 . S
C543 C544 1.388 . S
C544 H531 0.930 . S
C544 C543 1.388 . S
C544 C545 1.390 . S
C545 C544 1.390 . S
C545 C546 1.394 . S
C545 C551 1.465 . S
C546 C541 1.399 . S
C546 C545 1.394 . S
C546 C547 1.516 . S
C547 C546 1.516 . S
C547 C548 1.502 . S
C547 C549 1.561 . S
C547 C550 1.526 . S
C548 H532 0.959 . S
C548 H533 0.959 . S
C548 H534 0.961 . S
C548 C547 1.502 . S
C549 H535 0.960 . S
C549 H536 0.961 . S
C549 H537 0.959 . S
C549 C547 1.561 . S
C550 C547 1.526 . S
C550 C551 1.396 . S
C550 C555 1.390 . S
C551 C545 1.465 . S
C551 C550 1.396 . S
C551 C552 1.399 . S
C552 H538 0.929 . S
C552 C551 1.399 . S
C552 C553 1.385 . S
C553 H539 0.931 . S
C553 C552 1.385 . S
C553 C554 1.389 . S
C554 C553 1.389 . S
C554 C555 1.387 . S
C555 H540 0.930 . S
C555 C550 1.390 . S
C555 C554 1.387 . S
H556 C568 0.930 . S
H557 C570 0.930 . S
H558 C571 0.930 . S
H559 C575 0.959 . S
H560 C575 0.959 . S
H561 C575 0.961 . S
H562 C576 0.960 . S
H563 C576 0.961 . S
H564 C576 0.959 . S
H565 C579 0.931 . S
H566 C580 0.931 1_556 S
H567 C582 0.930 . S
C568 H556 0.930 . S
C568 C569 1.399 . S
C568 C573 1.399 . S
C569 C568 1.399 . S
C569 C570 1.376 . S
C570 H557 0.930 . S
C570 C569 1.376 . S
C570 C571 1.388 . S
C571 H558 0.930 . S
C571 C570 1.388 . S
C571 C572 1.390 . S
C572 C571 1.390 . S
C572 C573 1.394 . S
C572 C578 1.465 . S
C573 C568 1.399 . S
C573 C572 1.394 . S
C573 C574 1.516 . S
C574 C573 1.516 . S
C574 C575 1.502 . S
C574 C576 1.561 1_545 S
C574 C577 1.526 . S
C575 H559 0.959 . S
C575 H560 0.959 . S
C575 H561 0.961 . S
C575 C574 1.502 . S
C576 H562 0.960 . S
C576 H563 0.961 . S
C576 H564 0.959 . S
C576 C574 1.561 1_565 S
C577 C574 1.526 . S
C577 C578 1.396 . S
C577 C582 1.390 . S
C578 C572 1.465 . S
C578 C577 1.396 . S
C578 C579 1.399 . S
C579 H565 0.931 . S
C579 C578 1.399 . S
C579 C580 1.385 . S
C580 H566 0.931 1_554 S
C580 C579 1.385 . S
C580 C581 1.389 . S
C581 C580 1.389 . S
C581 C582 1.387 . S
C582 H567 0.930 . S
C582 C577 1.390 . S
C582 C581 1.387 . S
H583 C595 0.930 . S
H584 C597 0.930 . S
H585 C598 0.930 . S
H586 C602 0.959 . S
H587 C602 0.959 . S
H588 C602 0.961 . S
H589 C603 0.960 . S
H590 C603 0.961 . S
H591 C603 0.959 . S
H592 C606 0.929 . S
H593 C607 0.931 . S
H594 C609 0.930 . S
C595 H583 0.930 . S
C595 C596 1.399 . S
C595 C600 1.399 . S
C596 C595 1.399 . S
C596 C597 1.376 . S
C597 H584 0.930 . S
C597 C596 1.376 . S
C597 C598 1.388 . S
C598 H585 0.930 . S
C598 C597 1.388 . S
C598 C599 1.390 . S
C599 C598 1.390 . S
C599 C600 1.394 . S
C599 C605 1.465 . S
C600 C595 1.399 . S
C600 C599 1.394 . S
C600 C601 1.516 . S
C601 C600 1.516 . S
C601 C602 1.502 . S
C601 C603 1.561 . S
C601 C604 1.526 . S
C602 H586 0.959 . S
C602 H587 0.959 . S
C602 H588 0.961 . S
C602 C601 1.502 . S
C603 H589 0.960 . S
C603 H590 0.961 . S
C603 H591 0.959 . S
C603 C601 1.561 . S
C604 C601 1.526 . S
C604 C605 1.396 . S
C604 C609 1.390 . S
C605 C599 1.465 . S
C605 C604 1.396 . S
C605 C606 1.399 . S
C606 H592 0.929 . S
C606 C605 1.399 . S
C606 C607 1.385 . S
C607 H593 0.931 . S
C607 C606 1.385 . S
C607 C608 1.389 . S
C608 C607 1.389 . S
C608 C609 1.387 . S
C609 H594 0.930 . S
C609 C604 1.390 . S
C609 C608 1.387 . S
H610 C622 0.930 . S
H611 C624 0.930 . S
H612 C625 0.930 1_554 S
H613 C629 0.959 . S
H614 C629 0.959 . S
H615 C629 0.961 . S
H616 C630 0.960 . S
H617 C630 0.961 . S
H618 C630 0.959 . S
H619 C633 0.929 . S
H620 C634 0.931 . S
H621 C636 0.930 . S
C622 H610 0.930 . S
C622 C623 1.399 . S
C622 C627 1.399 . S
C623 C622 1.399 . S
C623 C624 1.376 . S
C624 H611 0.930 . S
C624 C623 1.376 . S
C624 C625 1.388 . S
C625 H612 0.930 1_556 S
C625 C624 1.388 . S
C625 C626 1.390 . S
C626 C625 1.390 . S
C626 C627 1.394 . S
C626 C632 1.465 . S
C627 C622 1.399 . S
C627 C626 1.394 . S
C627 C628 1.516 . S
C628 C627 1.516 . S
C628 C629 1.502 . S
C628 C630 1.561 . S
C628 C631 1.526 . S
C629 H613 0.959 . S
C629 H614 0.959 . S
C629 H615 0.961 . S
C629 C628 1.502 . S
C630 H616 0.960 . S
C630 H617 0.961 . S
C630 H618 0.959 . S
C630 C628 1.561 . S
C631 C628 1.526 . S
C631 C632 1.396 . S
C631 C636 1.390 . S
C632 C626 1.465 . S
C632 C631 1.396 . S
C632 C633 1.399 1_556 S
C633 H619 0.929 . S
C633 C632 1.399 1_554 S
C633 C634 1.385 . S
C634 H620 0.931 . S
C634 C633 1.385 . S
C634 C635 1.389 1_554 S
C635 C634 1.389 1_556 S
C635 C636 1.387 . S
C636 H621 0.930 . S
C636 C631 1.390 . S
C636 C635 1.387 . S
H637 C649 0.930 . S
H638 C651 0.930 . S
H639 C652 0.930 . S
H640 C656 0.959 . S
H641 C656 0.959 . S
H642 C656 0.961 . S
H643 C657 0.960 . S
H644 C657 0.961 . S
H645 C657 0.959 . S
H646 C660 0.929 . S
H647 C661 0.931 . S
H648 C663 0.930 . S
C649 H637 0.930 . S
C649 C650 1.399 . S
C649 C654 1.399 . S
C650 C649 1.399 . S
C650 C651 1.376 . S
C651 H638 0.930 . S
C651 C650 1.376 . S
C651 C652 1.388 . S
C652 H639 0.930 . S
C652 C651 1.388 . S
C652 C653 1.390 . S
C653 C652 1.390 . S
C653 C654 1.394 . S
C653 C659 1.465 . S
C654 C649 1.399 . S
C654 C653 1.394 . S
C654 C655 1.516 . S
C655 C654 1.516 . S
C655 C656 1.502 . S
C655 C657 1.561 . S
C655 C658 1.526 . S
C656 H640 0.959 . S
C656 H641 0.959 . S
C656 H642 0.961 . S
C656 C655 1.502 . S
C657 H643 0.960 . S
C657 H644 0.961 . S
C657 H645 0.959 . S
C657 C655 1.561 . S
C658 C655 1.526 . S
C658 C659 1.396 . S
C658 C663 1.390 . S
C659 C653 1.465 . S
C659 C658 1.396 . S
C659 C660 1.399 . S
C660 H646 0.929 . S
C660 C659 1.399 . S
C660 C661 1.385 . S
C661 H647 0.931 . S
C661 C660 1.385 . S
C661 C662 1.389 . S
C662 C661 1.389 . S
C662 C663 1.387 . S
C663 H648 0.930 . S
C663 C658 1.390 . S
C663 C662 1.387 . S
H664 C676 0.930 . S
H665 C678 0.930 . S
H666 C679 0.930 . S
H667 C683 0.959 . S
H668 C683 0.959 . S
H669 C683 0.961 . S
H670 C684 0.960 1_655 S
H671 C684 0.961 1_655 S
H672 C684 0.959 . S
H673 C687 0.929 . S
H674 C688 0.931 . S
H675 C690 0.930 1_655 S
C676 H664 0.930 . S
C676 C677 1.399 . S
C676 C681 1.399 . S
C677 C676 1.399 . S
C677 C678 1.376 . S
C678 H665 0.930 . S
C678 C677 1.376 . S
C678 C679 1.388 . S
C679 H666 0.930 . S
C679 C678 1.388 . S
C679 C680 1.390 . S
C680 C679 1.390 . S
C680 C681 1.394 . S
C680 C686 1.465 . S
C681 C676 1.399 . S
C681 C680 1.394 . S
C681 C682 1.516 . S
C682 C681 1.516 . S
C682 C683 1.502 1_455 S
C682 C684 1.561 . S
C682 C685 1.526 . S
C683 H667 0.959 . S
C683 H668 0.959 . S
C683 H669 0.961 . S
C683 C682 1.502 1_655 S
C684 H670 0.960 1_455 S
C684 H671 0.961 1_455 S
C684 H672 0.959 . S
C684 C682 1.561 . S
C685 C682 1.526 . S
C685 C686 1.396 . S
C685 C690 1.390 . S
C686 C680 1.465 . S
C686 C685 1.396 . S
C686 C687 1.399 . S
C687 H673 0.929 . S
C687 C686 1.399 . S
C687 C688 1.385 . S
C688 H674 0.931 . S
C688 C687 1.385 . S
C688 C689 1.389 . S
C689 C688 1.389 . S
C689 C690 1.387 . S
C690 H675 0.930 1_455 S
C690 C685 1.390 . S
C690 C689 1.387 . S
H691 C703 0.930 . S
H692 C705 0.930 . S
H693 C706 0.930 . S
H694 C710 0.959 1_556 S
H695 C710 0.959 . S
H696 C710 0.961 . S
H697 C711 0.960 . S
H698 C711 0.961 . S
H699 C711 0.959 . S
H700 C714 0.929 . S
H701 C715 0.931 . S
H702 C717 0.930 . S
C703 H691 0.930 . S
C703 C704 1.399 . S
C703 C708 1.399 . S
C704 C703 1.399 . S
C704 C705 1.376 . S
C705 H692 0.930 . S
C705 C704 1.376 . S
C705 C706 1.388 . S
C706 H693 0.930 . S
C706 C705 1.388 . S
C706 C707 1.390 . S
C707 C706 1.390 . S
C707 C708 1.394 . S
C707 C713 1.465 . S
C708 C703 1.399 . S
C708 C707 1.394 . S
C708 C709 1.516 . S
C709 C708 1.516 . S
C709 C710 1.502 1_556 S
C709 C711 1.561 1_556 S
C709 C712 1.526 . S
C710 H694 0.959 1_554 S
C710 H695 0.959 . S
C710 H696 0.961 . S
C710 C709 1.502 1_554 S
C711 H697 0.960 . S
C711 H698 0.961 . S
C711 H699 0.959 . S
C711 C709 1.561 1_554 S
C712 C709 1.526 . S
C712 C713 1.396 . S
C712 C717 1.390 . S
C713 C707 1.465 . S
C713 C712 1.396 . S
C713 C714 1.399 . S
C714 H700 0.929 . S
C714 C713 1.399 . S
C714 C715 1.385 . S
C715 H701 0.931 . S
C715 C714 1.385 . S
C715 C716 1.389 . S
C716 C715 1.389 . S
C716 C717 1.387 . S
C717 H702 0.930 . S
C717 C712 1.390 . S
C717 C716 1.387 . S
H718 C730 0.930 . S
H719 C732 0.930 . S
H720 C733 0.930 . S
H721 C737 0.959 . S
H722 C737 0.959 . S
H723 C737 0.961 . S
H724 C738 0.960 . S
H725 C738 0.961 . S
H726 C738 0.959 . S
H727 C741 0.929 . S
H728 C742 0.931 . S
H729 C744 0.930 . S
C730 H718 0.930 . S
C730 C731 1.399 . S
C730 C735 1.399 . S
C731 C730 1.399 . S
C731 C732 1.376 . S
C732 H719 0.930 . S
C732 C731 1.376 . S
C732 C733 1.388 . S
C733 H720 0.930 . S
C733 C732 1.388 . S
C733 C734 1.390 . S
C734 C733 1.390 . S
C734 C735 1.394 . S
C734 C740 1.465 . S
C735 C730 1.399 . S
C735 C734 1.394 . S
C735 C736 1.516 . S
C736 C735 1.516 . S
C736 C737 1.502 . S
C736 C738 1.561 . S
C736 C739 1.526 . S
C737 H721 0.959 . S
C737 H722 0.959 . S
C737 H723 0.961 . S
C737 C736 1.502 . S
C738 H724 0.960 . S
C738 H725 0.961 . S
C738 H726 0.959 . S
C738 C736 1.561 . S
C739 C736 1.526 . S
C739 C740 1.396 . S
C739 C744 1.390 . S
C740 C734 1.465 . S
C740 C739 1.396 . S
C740 C741 1.399 . S
C741 H727 0.929 . S
C741 C740 1.399 . S
C741 C742 1.385 . S
C742 H728 0.931 . S
C742 C741 1.385 . S
C742 C743 1.389 . S
C743 C742 1.389 . S
C743 C744 1.387 . S
C744 H729 0.930 . S
C744 C739 1.390 . S
C744 C743 1.387 . S
H745 C757 0.930 . S
H746 C759 0.930 . S
H747 C760 0.930 . S
H748 C764 0.959 . S
H749 C764 0.959 . S
H750 C764 0.961 . S
H751 C765 0.960 . S
H752 C765 0.961 . S
H753 C765 0.959 . S
H754 C768 0.929 . S
H755 C769 0.931 . S
H756 C771 0.930 . S
C757 H745 0.930 . S
C757 C758 1.399 . S
C757 C762 1.399 . S
C758 C757 1.399 . S
C758 C759 1.376 . S
C759 H746 0.930 . S
C759 C758 1.376 . S
C759 C760 1.388 . S
C760 H747 0.930 . S
C760 C759 1.388 . S
C760 C761 1.390 . S
C761 C760 1.390 . S
C761 C762 1.394 . S
C761 C767 1.465 . S
C762 C757 1.399 . S
C762 C761 1.394 . S
C762 C763 1.516 . S
C763 C762 1.516 . S
C763 C764 1.502 . S
C763 C765 1.561 . S
C763 C766 1.526 . S
C764 H748 0.959 . S
C764 H749 0.959 . S
C764 H750 0.961 . S
C764 C763 1.502 . S
C765 H751 0.960 . S
C765 H752 0.961 . S
C765 H753 0.959 . S
C765 C763 1.561 . S
C766 C763 1.526 . S
C766 C767 1.396 . S
C766 C771 1.390 . S
C767 C761 1.465 . S
C767 C766 1.396 . S
C767 C768 1.399 . S
C768 H754 0.929 . S
C768 C767 1.399 . S
C768 C769 1.385 . S
C769 H755 0.931 . S
C769 C768 1.385 . S
C769 C770 1.389 . S
C770 C769 1.389 . S
C770 C771 1.387 . S
C771 H756 0.930 . S
C771 C766 1.390 . S
C771 C770 1.387 . S
H772 C784 0.930 . S
H773 C786 0.930 . S
H774 C787 0.930 . S
H775 C791 0.959 . S
H776 C791 0.959 1_455 S
H777 C791 0.961 . S
H778 C792 0.960 . S
H779 C792 0.961 . S
H780 C792 0.959 . S
H781 C795 0.929 . S
H782 C796 0.931 . S
H783 C798 0.930 1_455 S
C784 H772 0.930 . S
C784 C785 1.399 . S
C784 C789 1.399 . S
C785 C784 1.399 . S
C785 C786 1.376 . S
C786 H773 0.930 . S
C786 C785 1.376 . S
C786 C787 1.388 . S
C787 H774 0.930 . S
C787 C786 1.388 . S
C787 C788 1.390 . S
C788 C787 1.390 . S
C788 C789 1.394 . S
C788 C794 1.465 . S
C789 C784 1.399 . S
C789 C788 1.394 . S
C789 C790 1.516 . S
C790 C789 1.516 . S
C790 C791 1.502 1_565 S
C790 C792 1.561 1_655 S
C790 C793 1.526 . S
C791 H775 0.959 . S
C791 H776 0.959 1_655 S
C791 H777 0.961 . S
C791 C790 1.502 1_545 S
C792 H778 0.960 . S
C792 H779 0.961 . S
C792 H780 0.959 . S
C792 C790 1.561 1_455 S
C793 C790 1.526 . S
C793 C794 1.396 . S
C793 C798 1.390 . S
C794 C788 1.465 . S
C794 C793 1.396 . S
C794 C795 1.399 . S
C795 H781 0.929 . S
C795 C794 1.399 . S
C795 C796 1.385 . S
C796 H782 0.931 . S
C796 C795 1.385 . S
C796 C797 1.389 . S
C797 C796 1.389 . S
C797 C798 1.387 . S
C798 H783 0.930 1_655 S
C798 C793 1.390 . S
C798 C797 1.387 . S
H799 C811 0.930 . S
H800 C813 0.930 . S
H801 C814 0.930 . S
H802 C818 0.959 . S
H803 C818 0.959 . S
H804 C818 0.961 . S
H805 C819 0.960 . S
H806 C819 0.961 . S
H807 C819 0.959 . S
H808 C822 0.929 1_565 S
H809 C823 0.931 1_565 S
H810 C825 0.930 . S
C811 H799 0.930 . S
C811 C812 1.399 . S
C811 C816 1.399 . S
C812 C811 1.399 . S
C812 C813 1.376 . S
C813 H800 0.930 . S
C813 C812 1.376 . S
C813 C814 1.388 . S
C814 H801 0.930 . S
C814 C813 1.388 . S
C814 C815 1.390 . S
C815 C814 1.390 . S
C815 C816 1.394 . S
C815 C821 1.465 . S
C816 C811 1.399 . S
C816 C815 1.394 . S
C816 C817 1.516 . S
C817 C816 1.516 . S
C817 C818 1.502 . S
C817 C819 1.561 . S
C817 C820 1.526 . S
C818 H802 0.959 . S
C818 H803 0.959 . S
C818 H804 0.961 . S
C818 C817 1.502 . S
C819 H805 0.960 . S
C819 H806 0.961 . S
C819 H807 0.959 . S
C819 C817 1.561 . S
C820 C817 1.526 . S
C820 C821 1.396 . S
C820 C825 1.390 . S
C821 C815 1.465 . S
C821 C820 1.396 . S
C821 C822 1.399 . S
C822 H808 0.929 1_545 S
C822 C821 1.399 . S
C822 C823 1.385 . S
C823 H809 0.931 1_545 S
C823 C822 1.385 . S
C823 C824 1.389 . S
C824 C823 1.389 . S
C824 C825 1.387 . S
C825 H810 0.930 . S
C825 C820 1.390 . S
C825 C824 1.387 . S
H826 C838 0.930 . S
H827 C840 0.930 . S
H828 C841 0.930 . S
H829 C845 0.959 . S
H830 C845 0.959 . S
H831 C845 0.961 . S
H832 C846 0.960 . S
H833 C846 0.961 . S
H834 C846 0.959 . S
H835 C849 0.929 . S
H836 C850 0.931 . S
H837 C852 0.930 . S
C838 H826 0.930 . S
C838 C839 1.399 . S
C838 C843 1.399 . S
C839 C838 1.399 . S
C839 C840 1.376 . S
C840 H827 0.930 . S
C840 C839 1.376 . S
C840 C841 1.388 . S
C841 H828 0.930 . S
C841 C840 1.388 . S
C841 C842 1.390 . S
C842 C841 1.390 . S
C842 C843 1.394 . S
C842 C848 1.465 . S
C843 C838 1.399 . S
C843 C842 1.394 . S
C843 C844 1.516 . S
C844 C843 1.516 . S
C844 C845 1.502 . S
C844 C846 1.561 . S
C844 C847 1.526 . S
C845 H829 0.959 . S
C845 H830 0.959 . S
C845 H831 0.961 . S
C845 C844 1.502 . S
C846 H832 0.960 . S
C846 H833 0.961 . S
C846 H834 0.959 . S
C846 C844 1.561 . S
C847 C844 1.526 . S
C847 C848 1.396 . S
C847 C852 1.390 . S
C848 C842 1.465 . S
C848 C847 1.396 . S
C848 C849 1.399 . S
C849 H835 0.929 . S
C849 C848 1.399 . S
C849 C850 1.385 . S
C850 H836 0.931 . S
C850 C849 1.385 . S
C850 C851 1.389 . S
C851 C850 1.389 . S
C851 C852 1.387 . S
C852 H837 0.930 . S
C852 C847 1.390 . S
C852 C851 1.387 . S
H853 C865 0.930 . S
H854 C867 0.930 . S
H855 C868 0.930 . S
H856 C872 0.959 . S
H857 C872 0.959 . S
H858 C872 0.961 . S
H859 C873 0.960 . S
H860 C873 0.961 . S
H861 C873 0.959 . S
H862 C876 0.929 . S
H863 C877 0.931 . S
H864 C879 0.930 . S
C865 H853 0.930 . S
C865 C866 1.399 . S
C865 C870 1.399 . S
C866 C865 1.399 . S
C866 C867 1.376 . S
C867 H854 0.930 . S
C867 C866 1.376 . S
C867 C868 1.388 . S
C868 H855 0.930 . S
C868 C867 1.388 . S
C868 C869 1.390 . S
C869 C868 1.390 . S
C869 C870 1.394 . S
C869 C875 1.465 . S
C870 C865 1.399 . S
C870 C869 1.394 . S
C870 C871 1.516 . S
C871 C870 1.516 . S
C871 C872 1.502 . S
C871 C873 1.561 . S
C871 C874 1.526 . S
C872 H856 0.959 . S
C872 H857 0.959 . S
C872 H858 0.961 . S
C872 C871 1.502 . S
C873 H859 0.960 . S
C873 H860 0.961 . S
C873 H861 0.959 . S
C873 C871 1.561 . S
C874 C871 1.526 . S
C874 C875 1.396 . S
C874 C879 1.390 . S
C875 C869 1.465 . S
C875 C874 1.396 . S
C875 C876 1.399 . S
C876 H862 0.929 . S
C876 C875 1.399 . S
C876 C877 1.385 . S
C877 H863 0.931 . S
C877 C876 1.385 . S
C877 C878 1.389 . S
C878 C877 1.389 . S
C878 C879 1.387 . S
C879 H864 0.930 . S
C879 C874 1.390 . S
C879 C878 1.387 . S
H880 C892 0.930 . S
H881 C894 0.930 . S
H882 C895 0.930 1_545 S
H883 C899 0.959 . S
H884 C899 0.959 . S
H885 C899 0.961 . S
H886 C900 0.960 . S
H887 C900 0.961 . S
H888 C900 0.959 . S
H889 C903 0.927 1_545 S
H890 C904 0.931 . S
H891 C906 0.930 . S
C892 H880 0.930 . S
C892 C893 1.399 . S
C892 C897 1.399 . S
C893 C892 1.399 . S
C893 C894 1.376 . S
C894 H881 0.930 . S
C894 C893 1.376 . S
C894 C895 1.388 . S
C895 H882 0.930 1_565 S
C895 C894 1.388 . S
C895 C896 1.390 . S
C896 C895 1.390 . S
C896 C897 1.394 . S
C896 C902 1.465 . S
C897 C892 1.399 . S
C897 C896 1.394 . S
C897 C898 1.516 . S
C898 C897 1.516 . S
C898 C899 1.502 . S
C898 C900 1.561 1_556 S
C898 C901 1.526 . S
C899 H883 0.959 . S
C899 H884 0.959 . S
C899 H885 0.961 . S
C899 C898 1.502 . S
C900 H886 0.960 . S
C900 H887 0.961 . S
C900 H888 0.959 . S
C900 C898 1.561 1_554 S
C901 C898 1.526 . S
C901 C902 1.396 . S
C901 C906 1.390 . S
C902 C896 1.465 . S
C902 C901 1.396 . S
C902 C903 1.401 . S
C903 H889 0.927 1_565 S
C903 C902 1.401 . S
C903 C904 1.385 1_565 S
C904 H890 0.931 . S
C904 C903 1.385 1_545 S
C904 C905 1.389 1_545 S
C905 C904 1.389 1_565 S
C905 C906 1.387 . S
C906 H891 0.930 . S
C906 C901 1.390 . S
C906 C905 1.387 . S
H907 C919 0.930 . S
H908 C921 0.930 . S
H909 C922 0.930 . S
H910 C926 0.959 . S
H911 C926 0.959 . S
H912 C926 0.961 . S
H913 C927 0.960 . S
H914 C927 0.961 . S
H915 C927 0.959 . S
H916 C930 0.929 1_565 S
H917 C931 0.931 1_565 S
H918 C933 0.930 . S
C919 H907 0.930 . S
C919 C920 1.399 . S
C919 C924 1.399 . S
C920 C919 1.399 . S
C920 C921 1.376 . S
C921 H908 0.930 . S
C921 C920 1.376 . S
C921 C922 1.388 . S
C922 H909 0.930 . S
C922 C921 1.388 . S
C922 C923 1.390 . S
C923 C922 1.390 . S
C923 C924 1.394 . S
C923 C929 1.465 . S
C924 C919 1.399 . S
C924 C923 1.394 . S
C924 C925 1.516 . S
C925 C924 1.516 . S
C925 C926 1.502 . S
C925 C927 1.561 . S
C925 C928 1.526 . S
C926 H910 0.959 . S
C926 H911 0.959 . S
C926 H912 0.961 . S
C926 C925 1.502 . S
C927 H913 0.960 . S
C927 H914 0.961 . S
C927 H915 0.959 . S
C927 C925 1.561 . S
C928 C925 1.526 . S
C928 C929 1.396 . S
C928 C933 1.390 . S
C929 C923 1.465 . S
C929 C928 1.396 . S
C929 C930 1.399 . S
C930 H916 0.929 1_545 S
C930 C929 1.399 . S
C930 C931 1.385 . S
C931 H917 0.931 1_545 S
C931 C930 1.385 . S
C931 C932 1.389 . S
C932 C931 1.389 . S
C932 C933 1.387 . S
C933 H918 0.930 . S
C933 C928 1.390 . S
C933 C932 1.387 . S
H934 C946 0.930 . S
H935 C948 0.930 . S
H936 C949 0.930 . S
H937 C953 0.959 . S
H938 C953 0.959 . S
H939 C953 0.961 . S
H940 C954 0.960 . S
H941 C954 0.961 . S
H942 C954 0.959 . S
H943 C957 0.929 . S
H944 C958 0.931 . S
H945 C960 0.930 . S
C946 H934 0.930 . S
C946 C947 1.399 . S
C946 C951 1.399 . S
C947 C946 1.399 . S
C947 C948 1.376 . S
C948 H935 0.930 . S
C948 C947 1.376 . S
C948 C949 1.388 . S
C949 H936 0.930 . S
C949 C948 1.388 . S
C949 C950 1.390 . S
C950 C949 1.390 . S
C950 C951 1.394 . S
C950 C956 1.465 . S
C951 C946 1.399 . S
C951 C950 1.394 . S
C951 C952 1.516 . S
C952 C951 1.516 . S
C952 C953 1.502 1_554 S
C952 C954 1.561 . S
C952 C955 1.526 . S
C953 H937 0.959 . S
C953 H938 0.959 . S
C953 H939 0.961 . S
C953 C952 1.502 1_556 S
C954 H940 0.960 . S
C954 H941 0.961 . S
C954 H942 0.959 . S
C954 C952 1.561 . S
C955 C952 1.526 . S
C955 C956 1.396 . S
C955 C960 1.390 . S
C956 C950 1.465 . S
C956 C955 1.396 . S
C956 C957 1.399 . S
C957 H943 0.929 . S
C957 C956 1.399 . S
C957 C958 1.385 . S
C958 H944 0.931 . S
C958 C957 1.385 . S
C958 C959 1.389 . S
C959 C958 1.389 . S
C959 C960 1.387 . S
C960 H945 0.930 . S
C960 C955 1.390 . S
C960 C959 1.387 . S
H961 C973 0.930 . S
H962 C975 0.930 . S
H963 C976 0.930 . S
H964 C980 0.959 . S
H965 C980 0.959 . S
H966 C980 0.961 . S
H967 C981 0.960 . S
H968 C981 0.961 . S
H969 C981 0.959 . S
H970 C984 0.929 . S
H971 C985 0.931 . S
H972 C987 0.930 . S
C973 H961 0.930 . S
C973 C974 1.399 . S
C973 C978 1.399 . S
C974 C973 1.399 . S
C974 C975 1.376 . S
C975 H962 0.930 . S
C975 C974 1.376 . S
C975 C976 1.388 . S
C976 H963 0.930 . S
C976 C975 1.388 . S
C976 C977 1.390 . S
C977 C976 1.390 . S
C977 C978 1.394 . S
C977 C983 1.465 . S
C978 C973 1.399 . S
C978 C977 1.394 . S
C978 C979 1.516 . S
C979 C978 1.516 . S
C979 C980 1.502 . S
C979 C981 1.561 . S
C979 C982 1.526 . S
C980 H964 0.959 . S
C980 H965 0.959 . S
C980 H966 0.961 . S
C980 C979 1.502 . S
C981 H967 0.960 . S
C981 H968 0.961 . S
C981 H969 0.959 . S
C981 C979 1.561 . S
C982 C979 1.526 . S
C982 C983 1.396 . S
C982 C987 1.390 . S
C983 C977 1.465 . S
C983 C982 1.396 . S
C983 C984 1.399 . S
C984 H970 0.929 . S
C984 C983 1.399 . S
C984 C985 1.385 . S
C985 H971 0.931 . S
C985 C984 1.385 . S
C985 C986 1.389 . S
C986 C985 1.389 . S
C986 C987 1.387 . S
C987 H972 0.930 . S
C987 C982 1.390 . S
C987 C986 1.387 . S
H988 C1000 0.930 . S
H989 C1002 0.930 . S
H990 C1003 0.930 . S
H991 C1007 0.959 . S
H992 C1007 0.959 . S
H993 C1007 0.961 . S
H994 C1008 0.960 . S
H995 C1008 0.961 . S
H996 C1008 0.959 . S
H997 C1011 0.929 . S
H998 C1012 0.931 . S
H999 C1014 0.930 . S
C1000 H988 0.930 . S
C1000 C1001 1.399 . S
C1000 C1005 1.399 . S
C1001 C1000 1.399 . S
C1001 C1002 1.376 . S
C1002 H989 0.930 . S
C1002 C1001 1.376 . S
C1002 C1003 1.388 . S
C1003 H990 0.930 . S
C1003 C1002 1.388 . S
C1003 C1004 1.390 . S
C1004 C1003 1.390 . S
C1004 C1005 1.394 . S
C1004 C1010 1.465 . S
C1005 C1000 1.399 . S
C1005 C1004 1.394 . S
C1005 C1006 1.516 . S
C1006 C1005 1.516 . S
C1006 C1007 1.502 1_655 S
C1006 C1008 1.561 1_556 S
C1006 C1009 1.526 . S
C1007 H991 0.959 . S
C1007 H992 0.959 . S
C1007 H993 0.961 . S
C1007 C1006 1.502 1_455 S
C1008 H994 0.960 . S
C1008 H995 0.961 . S
C1008 H996 0.959 . S
C1008 C1006 1.561 1_554 S
C1009 C1006 1.526 . S
C1009 C1010 1.396 . S
C1009 C1014 1.390 . S
C1010 C1004 1.465 . S
C1010 C1009 1.396 . S
C1010 C1011 1.399 . S
C1011 H997 0.929 . S
C1011 C1010 1.399 . S
C1011 C1012 1.385 . S
C1012 H998 0.931 . S
C1012 C1011 1.385 . S
C1012 C1013 1.389 . S
C1013 C1012 1.389 . S
C1013 C1014 1.387 . S
C1014 H999 0.930 . S
C1014 C1009 1.390 . S
C1014 C1013 1.387 . S
H1015 C1027 0.930 . S
H1016 C1029 0.930 . S
H1017 C1030 0.930 . S
H1018 C1034 0.959 1_554 S
H1019 C1034 0.959 . S
H1020 C1034 0.961 . S
H1021 C1035 0.960 . S
H1022 C1035 0.961 . S
H1023 C1035 0.959 1_554 S
H1024 C1038 0.929 . S
H1025 C1039 0.931 . S
H1026 C1041 0.930 . S
C1027 H1015 0.930 . S
C1027 C1028 1.399 . S
C1027 C1032 1.399 . S
C1028 C1027 1.399 . S
C1028 C1029 1.376 . S
C1029 H1016 0.930 . S
C1029 C1028 1.376 . S
C1029 C1030 1.388 . S
C1030 H1017 0.930 . S
C1030 C1029 1.388 . S
C1030 C1031 1.390 . S
C1031 C1030 1.390 . S
C1031 C1032 1.394 . S
C1031 C1037 1.465 . S
C1032 C1027 1.399 . S
C1032 C1031 1.394 . S
C1032 C1033 1.516 . S
C1033 C1032 1.516 . S
C1033 C1034 1.502 1_554 S
C1033 C1035 1.561 1_554 S
C1033 C1036 1.526 . S
C1034 H1018 0.959 1_556 S
C1034 H1019 0.959 . S
C1034 H1020 0.961 . S
C1034 C1033 1.502 1_556 S
C1035 H1021 0.960 . S
C1035 H1022 0.961 . S
C1035 H1023 0.959 1_556 S
C1035 C1033 1.561 1_556 S
C1036 C1033 1.526 . S
C1036 C1037 1.396 . S
C1036 C1041 1.390 . S
C1037 C1031 1.465 . S
C1037 C1036 1.396 . S
C1037 C1038 1.399 . S
C1038 H1024 0.929 . S
C1038 C1037 1.399 . S
C1038 C1039 1.385 . S
C1039 H1025 0.931 . S
C1039 C1038 1.385 . S
C1039 C1040 1.389 . S
C1040 C1039 1.389 . S
C1040 C1041 1.387 . S
C1041 H1026 0.930 . S
C1041 C1036 1.390 . S
C1041 C1040 1.387 . S
H1042 C1054 0.930 . S
H1043 C1056 0.930 . S
H1044 C1057 0.930 . S
H1045 C1061 0.959 . S
H1046 C1061 0.959 . S
H1047 C1061 0.961 . S
H1048 C1062 0.961 1_655 S
H1049 C1062 0.961 1_655 S
H1050 C1062 0.959 . S
H1051 C1065 0.929 . S
H1052 C1066 0.931 . S
H1053 C1068 0.930 . S
C1054 H1042 0.930 . S
C1054 C1055 1.399 . S
C1054 C1059 1.399 . S
C1055 C1054 1.399 . S
C1055 C1056 1.376 . S
C1056 H1043 0.930 . S
C1056 C1055 1.376 . S
C1056 C1057 1.388 . S
C1057 H1044 0.930 . S
C1057 C1056 1.388 . S
C1057 C1058 1.390 . S
C1058 C1057 1.390 . S
C1058 C1059 1.394 . S
C1058 C1064 1.465 . S
C1059 C1054 1.399 . S
C1059 C1058 1.394 . S
C1059 C1060 1.516 . S
C1060 C1059 1.516 . S
C1060 C1061 1.502 . S
C1060 C1062 1.561 . S
C1060 C1063 1.526 . S
C1061 H1045 0.959 . S
C1061 H1046 0.959 . S
C1061 H1047 0.961 . S
C1061 C1060 1.502 . S
C1062 H1048 0.961 1_455 S
C1062 H1049 0.961 1_455 S
C1062 H1050 0.959 . S
C1062 C1060 1.561 . S
C1063 C1060 1.526 . S
C1063 C1064 1.396 . S
C1063 C1068 1.390 . S
C1064 C1058 1.465 . S
C1064 C1063 1.396 . S
C1064 C1065 1.399 . S
C1065 H1051 0.929 . S
C1065 C1064 1.399 . S
C1065 C1066 1.385 . S
C1066 H1052 0.931 . S
C1066 C1065 1.385 . S
C1066 C1067 1.389 . S
C1067 C1066 1.389 . S
C1067 C1068 1.387 . S
C1068 H1053 0.930 . S
C1068 C1063 1.390 . S
C1068 C1067 1.387 . S
H1069 C1081 0.930 . S
H1070 C1083 0.930 . S
H1071 C1084 0.930 . S
H1072 C1088 0.959 . S
H1073 C1088 0.959 . S
H1074 C1088 0.961 . S
H1075 C1089 0.960 . S
H1076 C1089 0.961 . S
H1077 C1089 0.959 . S
H1078 C1092 0.929 . S
H1079 C1093 0.931 . S
H1080 C1095 0.930 . S
C1081 H1069 0.930 . S
C1081 C1082 1.399 . S
C1081 C1086 1.399 . S
C1082 C1081 1.399 . S
C1082 C1083 1.376 . S
C1083 H1070 0.930 . S
C1083 C1082 1.376 . S
C1083 C1084 1.388 . S
C1084 H1071 0.930 . S
C1084 C1083 1.388 . S
C1084 C1085 1.390 . S
C1085 C1084 1.390 . S
C1085 C1086 1.394 . S
C1085 C1091 1.465 . S
C1086 C1081 1.399 . S
C1086 C1085 1.394 . S
C1086 C1087 1.516 . S
C1087 C1086 1.516 . S
C1087 C1088 1.502 . S
C1087 C1089 1.561 . S
C1087 C1090 1.526 . S
C1088 H1072 0.959 . S
C1088 H1073 0.959 . S
C1088 H1074 0.961 . S
C1088 C1087 1.502 . S
C1089 H1075 0.960 . S
C1089 H1076 0.961 . S
C1089 H1077 0.959 . S
C1089 C1087 1.561 . S
C1090 C1087 1.526 . S
C1090 C1091 1.396 . S
C1090 C1095 1.390 . S
C1091 C1085 1.465 . S
C1091 C1090 1.396 . S
C1091 C1092 1.399 . S
C1092 H1078 0.929 . S
C1092 C1091 1.399 . S
C1092 C1093 1.385 . S
C1093 H1079 0.931 . S
C1093 C1092 1.385 . S
C1093 C1094 1.389 . S
C1094 C1093 1.389 . S
C1094 C1095 1.387 . S
C1095 H1080 0.930 . S
C1095 C1090 1.390 . S
C1095 C1094 1.387 . S
C461 C1 2.339 . S
C473 C312 2.340 . S
C488 C40 2.260 . S
C500 C354 2.296 . S
C527 C384 0.980 . S
C515 C99 1.046 . S
C542 C118 1.021 . S
C554 C418 1.105 . S
C581 C375 1.882 . S
C569 C16 1.867 . S
C608 C329 1.874 . S
C596 C60 1.833 . S
C635 C422 1.379 . S
C623 C79 1.393 . S
C662 C388 1.412 . S
C650 C138 1.362 . S
C677 C21 2.197 . S
C689 C443 2.228 . S
C716 C350 1.186 . S
C704 C94 1.139 . S
C731 C133 1.125 . S
C743 C325 1.158 . S
C758 C55 2.183 . S
C770 C409 2.192 . S
C797 C341 2.348 . S
C785 C157 2.314 . S
C812 C196 2.275 . S
C824 C363 2.291 . S
C839 C255 0.992 . S
C851 C393 1.010 . S
C866 C289 1.070 . S
C878 C427 1.046 . S
C893 C172 1.878 . S
C905 C346 1.875 . S
C932 C320 1.865 . S
C920 C216 1.873 . S
C959 C431 1.401 . S
C947 C235 1.336 . S
C986 C397 1.425 . S
C974 C294 1.368 . S
C1001 C177 2.183 . S
C1013 C414 2.227 . S
C1040 C359 1.197 . S
C1028 C250 1.123 . S
C1067 C316 1.147 . S
C1055 C274 1.149 . S
C1082 C211 2.182 . S
C1094 C380 2.188 . S
