# Generated by pormake.
# Topology zzz, (3,6)-cn, num edge types: 1
# Building blocks:
#     Node 0, Type 0, BuildingBlock: BELTOD_clean_linker_0, # of connection points: 3
#     Node 1, Type 0, BuildingBlock: BELTOD_clean_linker_0, # of connection points: 3
#     Node 2, Type 0, BuildingBlock: BELTOD_clean_linker_0, # of connection points: 3
#     Node 3, Type 0, BuildingBlock: BELTOD_clean_linker_0, # of connection points: 3
#     Node 4, Type 0, BuildingBlock: BELTOD_clean_linker_0, # of connection points: 3
#     Node 5, Type 0, BuildingBlock: BELTOD_clean_linker_0, # of connection points: 3
#     Node 6, Type 0, BuildingBlock: BELTOD_clean_linker_0, # of connection points: 3
#     Node 7, Type 0, BuildingBlock: BELTOD_clean_linker_0, # of connection points: 3
#     Node 8, Type 1, BuildingBlock: BETFEN_clean_sbu_0, # of connection points: 6
#     Node 9, Type 1, BuildingBlock: BETFEN_clean_sbu_0, # of connection points: 6
#     Node 10, Type 1, BuildingBlock: BETFEN_clean_sbu_0, # of connection points: 6
#     Node 11, Type 1, BuildingBlock: BETFEN_clean_sbu_0, # of connection points: 6
#     Edge 12, Type (0, 1), BuildingBlock: XIVTED_clean_linker_0, # of connection points: 2
#     Edge 13, Type (0, 1), BuildingBlock: XIVTED_clean_linker_0, # of connection points: 2
#     Edge 14, Type (0, 1), BuildingBlock: XIVTED_clean_linker_0, # of connection points: 2
#     Edge 15, Type (0, 1), BuildingBlock: XIVTED_clean_linker_0, # of connection points: 2
#     Edge 16, Type (0, 1), BuildingBlock: XIVTED_clean_linker_0, # of connection points: 2
#     Edge 17, Type (0, 1), BuildingBlock: XIVTED_clean_linker_0, # of connection points: 2
#     Edge 18, Type (0, 1), BuildingBlock: XIVTED_clean_linker_0, # of connection points: 2
#     Edge 19, Type (0, 1), BuildingBlock: XIVTED_clean_linker_0, # of connection points: 2
#     Edge 20, Type (0, 1), BuildingBlock: XIVTED_clean_linker_0, # of connection points: 2
#     Edge 21, Type (0, 1), BuildingBlock: XIVTED_clean_linker_0, # of connection points: 2
#     Edge 22, Type (0, 1), BuildingBlock: XIVTED_clean_linker_0, # of connection points: 2
#     Edge 23, Type (0, 1), BuildingBlock: XIVTED_clean_linker_0, # of connection points: 2
#     Edge 24, Type (0, 1), BuildingBlock: XIVTED_clean_linker_0, # of connection points: 2
#     Edge 25, Type (0, 1), BuildingBlock: XIVTED_clean_linker_0, # of connection points: 2
#     Edge 26, Type (0, 1), BuildingBlock: XIVTED_clean_linker_0, # of connection points: 2
#     Edge 27, Type (0, 1), BuildingBlock: XIVTED_clean_linker_0, # of connection points: 2
#     Edge 28, Type (0, 1), BuildingBlock: XIVTED_clean_linker_0, # of connection points: 2
#     Edge 29, Type (0, 1), BuildingBlock: XIVTED_clean_linker_0, # of connection points: 2
#     Edge 30, Type (0, 1), BuildingBlock: XIVTED_clean_linker_0, # of connection points: 2
#     Edge 31, Type (0, 1), BuildingBlock: XIVTED_clean_linker_0, # of connection points: 2
#     Edge 32, Type (0, 1), BuildingBlock: XIVTED_clean_linker_0, # of connection points: 2
#     Edge 33, Type (0, 1), BuildingBlock: XIVTED_clean_linker_0, # of connection points: 2
#     Edge 34, Type (0, 1), BuildingBlock: XIVTED_clean_linker_0, # of connection points: 2
#     Edge 35, Type (0, 1), BuildingBlock: XIVTED_clean_linker_0, # of connection points: 2
# Relax obj value: 0.439
# Max RMSD: 0.257
# Mean RMSD: 0.245
data_MOF--net-zzz--node1-BETFEN_clean_sbu_0--node2-BELTOD_clean_linker_0--edge1-XIVTED_clean_linker_0
_symmetry_space_group_name_H-M    P1
_symmetry_Int_Tables_number       1
_symmetry_cell_setting            triclinic
loop_
_symmetry_equiv_pos_as_xyz
'x, y, z'
_cell_length_a     56.469131
_cell_length_b     56.466088
_cell_length_c     17.2155
_cell_angle_alpha  89.889127
_cell_angle_beta   89.989074
_cell_angle_gamma 90.010177
loop_
_atom_site_label
_atom_site_type_symbol
_atom_site_fract_x
_atom_site_fract_y
_atom_site_fract_z
_atom_type_partial_charge
P0 P 0.72275 0.47098 0.38608 0.0
H1 H 0.73976 0.48175 0.54296 0.0
H2 H 0.77841 0.494 0.58933 0.0
H3 H 0.7988 0.51188 0.35425 0.0
H4 H 0.76074 0.49769 0.30796 0.0
H5 H 0.67179 0.46417 0.37533 0.0
H6 H 0.64276 0.47522 0.27752 0.0
H7 H 0.69519 0.51871 0.16298 0.0
H8 H 0.72431 0.50729 0.26091 0.0
H9 H 0.76355 0.44138 0.41905 0.0
H10 H 0.71371 0.44975 0.23106 0.0
O11 O 0.70944 0.45804 0.46163 0.0
H12 H 0.78981 0.41947 0.3344 0.0
H13 H 0.73932 0.4266 0.1467 0.0
C14 C 0.74691 0.48916 0.42183 0.0
C15 C 0.75222 0.48901 0.50147 0.0
C16 C 0.77457 0.49607 0.52813 0.0
C17 C 0.79221 0.50368 0.47574 0.0
C18 C 0.78607 0.50561 0.39656 0.0
C19 C 0.76385 0.49814 0.3699 0.0
C20 C 0.7003 0.4851 0.32664 0.0
C21 C 0.67693 0.4767 0.33074 0.0
C22 C 0.66025 0.48304 0.27436 0.0
C23 C 0.66658 0.49778 0.21175 0.0
C24 C 0.68974 0.50708 0.20975 0.0
C25 C 0.70642 0.50075 0.26649 0.0
C26 C 0.73719 0.44814 0.33061 0.0
C27 C 0.75789 0.43784 0.36009 0.0
C28 C 0.77284 0.42499 0.31144 0.0
C29 C 0.76708 0.42178 0.23257 0.0
C30 C 0.74474 0.42946 0.20627 0.0
C31 C 0.72999 0.44271 0.25476 0.0
P32 P 0.0369 0.72143 0.38788 0.0
H33 H 0.02524 0.73805 0.54451 0.0
H34 H 0.01249 0.77653 0.59097 0.0
H35 H 0.99594 0.79741 0.35531 0.0
H36 H 0.01055 0.75949 0.30906 0.0
H37 H 0.04529 0.67087 0.37273 0.0
H38 H 0.03412 0.64207 0.27463 0.0
H39 H 0.98779 0.69373 0.16858 0.0
H40 H 0.99939 0.72264 0.26675 0.0
H41 H 0.06604 0.76256 0.42063 0.0
H42 H 0.05871 0.71228 0.23376 0.0
O43 O 0.0497 0.70812 0.46367 0.0
H44 H 0.08805 0.78881 0.336 0.0
H45 H 0.0821 0.73782 0.1496 0.0
C46 C 0.0185 0.74546 0.42315 0.0
C47 C 0.01817 0.75058 0.50288 0.0
C48 C 0.01082 0.77282 0.52957 0.0
C49 C 1.00342 0.79054 0.47711 0.0
C50 C 1.00201 0.7846 0.3977 0.0
C51 C 0.00974 0.76248 0.37104 0.0
C52 C 0.02299 0.69896 0.32825 0.0
C53 C 0.03215 0.67586 0.32995 0.0
C54 C 0.02573 0.65931 0.2734 0.0
C55 C 0.01011 0.6655 0.21306 0.0
C56 C 1.00012 0.68838 0.21348 0.0
C57 C 0.00656 0.70495 0.27034 0.0
C58 C 0.0598 0.73597 0.33271 0.0
C59 C 0.06984 0.7568 0.36195 0.0
C60 C 0.08276 0.77176 0.3133 0.0
C61 C 0.08634 0.76585 0.23472 0.0
C62 C 0.07894 0.74338 0.20885 0.0
C63 C 0.06557 0.72865 0.25726 0.0
P64 P 0.78718 0.03664 0.39323 0.0
H65 H 0.77071 0.0256 0.55012 0.0
H66 H 0.73235 0.01277 0.59722 0.0
H67 H 0.71195 0.99437 0.36287 0.0
H68 H 0.74994 0.00882 0.31574 0.0
H69 H 0.83429 0.05241 0.35395 0.0
H70 H 0.86263 0.04117 0.2542 0.0
H71 H 0.81634 0.98442 0.18206 0.0
H72 H 0.78795 0.99575 0.28319 0.0
H73 H 0.76277 0.07811 0.45316 0.0
H74 H 0.77422 0.04501 0.23081 0.0
O75 O 0.8017 0.04816 0.46872 0.0
H76 H 0.7307 0.10172 0.39762 0.0
H77 H 0.74207 0.06803 0.1755 0.0
C78 C 0.76364 0.01781 0.42929 0.0
C79 C 0.75837 0.01804 0.50895 0.0
C80 C 0.73617 0.01066 0.53603 0.0
C81 C 0.71862 1.00276 0.48404 0.0
C82 C 0.72467 1.00082 0.40481 0.0
C83 C 0.7468 0.00852 0.37772 0.0
C84 C 0.80905 0.0248 0.32699 0.0
C85 C 0.83041 0.03718 0.31801 0.0
C86 C 0.84668 0.0307 0.26076 0.0
C87 C 0.84186 0.01183 0.21005 0.0
C88 C 0.82056 0.99914 0.21984 0.0
C89 C 0.80431 0.00554 0.27798 0.0
C90 C 0.77104 0.05997 0.34601 0.0
C91 C 0.75909 0.07667 0.39161 0.0
C92 C 0.74059 0.08998 0.35997 0.0
C93 C 0.73362 0.08656 0.28239 0.0
C94 C 0.74711 0.07137 0.23517 0.0
C95 C 0.76559 0.05809 0.26689 0.0
P96 P 0.47602 0.78306 0.38556 0.0
H97 H 0.49767 0.77114 0.53591 0.0
H98 H 0.51195 0.73342 0.58688 0.0
H99 H 0.5087 0.70359 0.35603 0.0
H100 H 0.49537 0.74158 0.30543 0.0
H101 H 0.46847 0.83376 0.36989 0.0
H102 H 0.47913 0.86223 0.2697 0.0
H103 H 0.52168 0.80894 0.15602 0.0
H104 H 0.51047 0.78029 0.25655 0.0
H105 H 0.44618 0.74378 0.43198 0.0
H106 H 0.45272 0.78955 0.23227 0.0
O107 O 0.46514 0.79666 0.46379 0.0
H108 H 0.42353 0.71581 0.35585 0.0
H109 H 0.42857 0.76243 0.15657 0.0
C110 C 0.49532 0.75925 0.41681 0.0
C111 C 0.5009 0.75677 0.49575 0.0
C112 C 0.50873 0.73497 0.52508 0.0
C113 C 0.51088 0.7151 0.47615 0.0
C114 C 0.50737 0.71836 0.39581 0.0
C115 C 0.49981 0.74024 0.36647 0.0
C116 C 0.489 0.80496 0.32173 0.0
C117 C 0.48065 0.82833 0.32474 0.0
C118 C 0.48679 0.84467 0.26709 0.0
C119 C 0.50128 0.83798 0.20438 0.0
C120 C 0.5103 0.81469 0.20296 0.0
C121 C 0.50414 0.79832 0.26097 0.0
C122 C 0.45192 0.76827 0.33719 0.0
C123 C 0.44191 0.74826 0.37238 0.0
C124 C 0.42871 0.73228 0.32848 0.0
C125 C 0.42476 0.73635 0.24876 0.0
C126 C 0.43207 0.75816 0.21682 0.0
C127 C 0.4458 0.77387 0.26043 0.0
P128 P 0.29682 0.45731 0.04216 0.0
H129 H 0.2804 0.46883 0.88486 0.0
H130 H 0.24178 0.48186 0.83926 0.0
H131 H 0.22242 0.50049 0.07416 0.0
H132 H 0.26083 0.48664 0.11957 0.0
H133 H 0.34444 0.44098 0.07525 0.0
H134 H 0.3737 0.45176 0.17298 0.0
H135 H 0.32925 0.5098 0.2464 0.0
H136 H 0.29998 0.4989 0.14772 0.0
H137 H 0.262 0.42244 0.99494 0.0
H138 H 0.29161 0.44802 0.20998 0.0
O139 O 0.30931 0.44307 0.96782 0.0
H140 H 0.22494 0.41354 0.06134 0.0
H141 H 0.25482 0.43881 0.27634 0.0
C142 C 0.27394 0.47703 0.00573 0.0
C143 C 0.2683 0.47664 0.92632 0.0
C144 C 0.24596 0.48402 0.9002 0.0
C145 C 0.22861 0.49192 0.95298 0.0
C146 C 0.23505 0.49411 0.03174 0.0
C147 C 0.2574 0.48672 0.05773 0.0
C148 C 0.32008 0.46928 0.10309 0.0
C149 C 0.34122 0.45645 0.11082 0.0
C150 C 0.358 0.46263 0.16702 0.0
C151 C 0.35388 0.48164 0.21791 0.0
C152 C 0.33292 0.49492 0.20868 0.0
C153 C 0.3162 0.48882 0.15172 0.0
C154 C 0.27932 0.43657 0.09685 0.0
C155 C 0.26118 0.42459 0.0574 0.0
C156 C 0.2399 0.41954 0.09542 0.0
C157 C 0.2369 0.42623 0.17324 0.0
C158 C 0.25667 0.4339 0.21581 0.0
C159 C 0.2778 0.43916 0.17766 0.0
P160 P 0.04827 0.29525 0.04286 0.0
H161 H 0.03619 0.27897 0.88586 0.0
H162 H 0.02333 0.24034 0.84001 0.0
H163 H 0.00639 0.22 0.07567 0.0
H164 H 0.02033 0.25835 0.1213 0.0
H165 H 0.06252 0.34383 0.07109 0.0
H166 H 0.05202 0.3725 0.1706 0.0
H167 H 0.99651 0.3259 0.25154 0.0
H168 H 0.00742 0.29707 0.15185 0.0
H169 H 0.07871 0.25566 0.00376 0.0
H170 H 0.06459 0.29816 0.20656 0.0
O171 O 0.06221 0.30786 0.96795 0.0
H172 H 0.09112 0.22312 0.08625 0.0
H173 H 0.07842 0.26621 0.28933 0.0
C174 C 0.02895 0.27195 0.00714 0.0
C175 C 0.02885 0.26661 0.92753 0.0
C176 C 0.02154 0.24427 0.90124 0.0
C177 C 0.01414 0.22666 0.95406 0.0
C178 C 0.01241 0.23281 0.03318 0.0
C179 C 0.01981 0.25512 0.05937 0.0
C180 C 0.03557 0.31836 0.10282 0.0
C181 C 0.0476 0.34003 0.10862 0.0
C182 C 0.04157 0.35648 0.16599 0.0
C183 C 0.02345 0.35159 0.21977 0.0
C184 C 0.01078 0.33019 0.21192 0.0
C185 C 0.01684 0.31372 0.15419 0.0
C186 C 0.06965 0.27889 0.09892 0.0
C187 C 0.07955 0.2585 0.06592 0.0
C188 C 0.0868 0.23983 0.11352 0.0
C189 C 0.08468 0.24167 0.19471 0.0
C190 C 0.07926 0.2639 0.22693 0.0
C191 C 0.07139 0.28232 0.17934 0.0
P192 P 0.21331 0.0462 0.0449 0.0
H193 H 0.22964 0.03461 0.88752 0.0
H194 H 0.26821 0.02164 0.84137 0.0
H195 H 0.28814 1.00357 0.07648 0.0
H196 H 0.24994 0.01773 0.12247 0.0
H197 H 0.16433 0.05977 0.07038 0.0
H198 H 0.13537 0.04913 0.16922 0.0
H199 H 0.18258 0.99488 0.25507 0.0
H200 H 0.21161 0.00578 0.15578 0.0
H201 H 0.25316 0.07643 0.00644 0.0
H202 H 0.21038 0.06219 0.20889 0.0
O203 O 0.20083 0.06044 0.97039 0.0
H204 H 0.28554 0.08896 0.08914 0.0
H205 H 0.24218 0.07611 0.29192 0.0
C206 C 0.23648 0.02684 0.00857 0.0
C207 C 0.24189 0.02701 0.92897 0.0
C208 C 0.26419 0.01962 0.90251 0.0
C209 C 0.28168 0.01188 0.95513 0.0
C210 C 0.27543 0.00987 0.03415 0.0
C211 C 0.25318 0.01738 0.06053 0.0
C212 C 0.19011 0.03339 0.10448 0.0
C213 C 0.16822 0.04507 0.1088 0.0
C214 C 0.15161 0.03898 0.16577 0.0
C215 C 0.15659 0.0212 0.22069 0.0
C216 C 0.17822 0.00887 0.21441 0.0
C217 C 0.19482 0.01493 0.15695 0.0
C218 C 0.22979 0.06733 0.10142 0.0
C219 C 0.25024 0.07723 0.06859 0.0
C220 C 0.26881 0.08454 0.1163 0.0
C221 C 0.26685 0.08249 0.19751 0.0
C222 C 0.2446 0.0769 0.22956 0.0
C223 C 0.22627 0.069 0.18182 0.0
P224 P 0.45989 0.21509 0.05397 0.0
H225 H 0.47255 0.22982 0.8969 0.0
H226 H 0.48703 0.2679 0.85184 0.0
H227 H 0.50854 0.28525 0.08573 0.0
H228 H 0.49356 0.24694 0.13064 0.0
H229 H 0.43129 0.18902 0.16397 0.0
H230 H 0.44028 0.16088 0.26756 0.0
H231 H 0.51465 0.16549 0.2117 0.0
H232 H 0.5055 0.19442 0.10818 0.0
H233 H 0.42625 0.24593 0.97532 0.0
H234 H 0.44972 0.2329 0.20995 0.0
O235 O 0.44786 0.19988 0.98094 0.0
H236 H 0.41111 0.28468 0.01486 0.0
H237 H 0.43426 0.27087 0.24973 0.0
C238 C 0.48211 0.23527 0.01722 0.0
C239 C 0.48149 0.24121 0.93806 0.0
C240 C 0.48964 0.26328 0.91229 0.0
C241 C 0.49853 0.28002 0.96529 0.0
C242 C 0.50134 0.27305 0.04342 0.0
C243 C 0.49326 0.25086 0.06903 0.0
C244 C 0.46778 0.19436 0.12992 0.0
C245 C 0.44959 0.18423 0.17439 0.0
C246 C 0.45473 0.16811 0.23357 0.0
C247 C 0.47818 0.16118 0.24834 0.0
C248 C 0.49642 0.1706 0.2017 0.0
C249 C 0.49124 0.18719 0.14297 0.0
C250 C 0.43879 0.23626 0.0898 0.0
C251 C 0.42688 0.25073 0.03617 0.0
C252 C 0.41846 0.27298 0.05859 0.0
C253 C 0.42163 0.28087 0.13523 0.0
C254 C 0.4312 0.26522 0.19048 0.0
C255 C 0.43997 0.24324 0.16776 0.0
Pr256 Pr 0.01322 0.9991 0.80064 0.0
Pr257 Pr 0.98585 0.01768 0.63671 0.0
C258 C 0.02274 0.98039 0.94023 0.0
C259 C 0.03635 0.95967 0.96765 0.0
C260 C 0.06124 0.95884 0.9625 0.0
C261 C 0.07345 0.93798 0.98068 0.0
C262 C 0.06093 0.91763 0.00318 0.0
C263 C 0.03622 0.91878 0.01124 0.0
C264 C 0.02408 0.93962 0.99422 0.0
C265 C 0.04501 0.00603 0.67595 0.0
C266 C 0.99598 0.95967 0.66399 0.0
C267 C 0.9798 0.03611 0.49471 0.0
C268 C 0.99489 0.0525 0.45124 0.0
C269 C 0.98657 0.06357 0.3838 0.0
C270 C 0.99988 0.08159 0.34905 0.0
C271 C 0.02173 0.08849 0.38114 0.0
C272 C 0.0305 0.07652 0.4465 0.0
C273 C 0.01701 0.05888 0.48189 0.0
C274 C 0.95396 0.0085 0.75891 0.0
C275 C 0.00379 0.05657 0.77221 0.0
O276 O 1.00339 0.9755 0.90116 0.0
O277 O 0.03472 0.99832 0.91142 0.0
O278 O 0.02305 0.00952 0.67798 0.0
O279 O 0.05185 0.9988 0.74419 0.0
O280 O 0.98958 0.97682 0.61539 0.0
O281 O 0.00365 0.96356 0.73589 0.0
O282 O 0.98861 0.01491 0.50606 0.0
O283 O 0.97008 0.04522 0.55698 0.0
O284 O 0.97613 0.00714 0.75851 0.0
O285 O 0.94684 0.01435 0.68946 0.0
O286 O 0.00601 0.03934 0.82423 0.0
O287 O 1.00023 0.05239 0.69714 0.0
H288 H 0.07124 0.97404 0.94249 0.0
H289 H 0.09254 0.93749 0.97454 0.0
H290 H 0.02623 0.90341 0.03002 0.0
H291 H 0.00496 0.93983 0.99958 0.0
H292 H 0.96942 0.05898 0.35998 0.0
H293 H 0.99277 0.09069 0.29874 0.0
H294 H 0.04705 0.08183 0.47315 0.0
H295 H 0.02334 0.05099 0.53536 0.0
Pr296 Pr 0.50927 0.01233 0.80732 0.0
Pr297 Pr 0.49157 0.98626 0.64035 0.0
C298 C 0.52539 0.02178 0.95032 0.0
C299 C 0.5436 0.03729 0.98395 0.0
C300 C 0.53904 0.04938 0.05335 0.0
C301 C 0.55653 0.06358 0.08705 0.0
C302 C 0.57896 0.06578 0.05204 0.0
C303 C 0.58314 0.05413 0.98113 0.0
C304 C 0.56561 0.04016 0.94723 0.0
C305 C 0.5016 0.04512 0.68596 0.0
C306 C 0.54947 0.99642 0.67169 0.0
C307 C 0.47463 0.98169 0.49594 0.0
C308 C 0.45796 0.99651 0.4526 0.0
C309 C 0.44574 0.98731 0.38872 0.0
C310 C 0.42726 1.00023 0.35521 0.0
C311 C 0.42096 0.02254 0.38502 0.0
C312 C 0.43409 0.0322 0.44643 0.0
C313 C 0.45226 0.01913 0.48061 0.0
C314 C 0.50054 0.95331 0.75972 0.0
C315 C 0.45205 1.00203 0.77558 0.0
O316 O 0.53305 0.0039 0.9086 0.0
O317 O 0.50679 0.03238 0.92075 0.0
O318 O 0.49898 0.02307 0.68561 0.0
O319 O 0.50844 0.05155 0.75493 0.0
O320 O 0.53254 0.99018 0.62224 0.0
O321 O 0.5453 0.00369 0.7439 0.0
O322 O 0.49526 0.99135 0.51076 0.0
O323 O 0.46541 0.97062 0.55571 0.0
O324 O 0.50193 0.97547 0.76166 0.0
O325 O 0.49474 0.94684 0.68958 0.0
O326 O 0.46915 1.00353 0.82819 0.0
O327 O 0.45644 0.99963 0.70019 0.0
H328 H 0.52203 0.04762 0.08197 0.0
H329 H 0.55256 0.07257 0.141 0.0
H330 H 0.60027 0.05503 0.953 0.0
H331 H 0.56946 0.03121 0.89304 0.0
H332 H 0.44979 0.96977 0.36701 0.0
H333 H 0.41732 0.99245 0.30786 0.0
H334 H 0.42931 0.04916 0.47126 0.0
H335 H 0.46107 0.02617 0.53139 0.0
Pr336 Pr 0.49546 0.50621 0.80068 0.0
Pr337 Pr 0.52243 0.48795 0.63633 0.0
C338 C 0.48485 0.52369 0.94104 0.0
C339 C 0.46877 0.54244 0.96684 0.0
C340 C 0.468 0.54904 0.04509 0.0
C341 C 0.4544 0.56849 0.06813 0.0
C342 C 0.44147 0.58164 0.013 0.0
C343 C 0.44158 0.57428 0.93503 0.0
C344 C 0.45514 0.55484 0.91215 0.0
C345 C 0.46339 0.4996 0.67655 0.0
C346 C 0.51364 0.54606 0.66643 0.0
C347 C 0.527 0.47031 0.49262 0.0
C348 C 0.51042 0.45611 0.44669 0.0
C349 C 0.51648 0.4479 0.37271 0.0
C350 C 0.50078 0.43337 0.33164 0.0
C351 C 0.47863 0.42713 0.3637 0.0
C352 C 0.47245 0.43625 0.43696 0.0
C353 C 0.48838 0.45014 0.47856 0.0
C354 C 0.55483 0.4962 0.75751 0.0
C355 C 0.5056 0.449 0.77271 0.0
O356 O 0.50306 0.53099 0.90012 0.0
O357 O 0.47469 0.50467 0.91273 0.0
O358 O 0.48535 0.49622 0.678 0.0
O359 O 0.45668 0.50647 0.74515 0.0
O360 O 0.5201 0.52909 0.61747 0.0
O361 O 0.50534 0.54185 0.73741 0.0
O362 O 0.52034 0.49217 0.5059 0.0
O363 O 0.53552 0.45967 0.55431 0.0
O364 O 0.53267 0.49816 0.75841 0.0
O365 O 0.56153 0.49011 0.68783 0.0
O366 O 0.50373 0.4662 0.82464 0.0
O367 O 0.50833 0.45323 0.69731 0.0
H368 H 0.4785 0.53964 0.08788 0.0
H369 H 0.45495 0.5739 0.12842 0.0
H370 H 0.43165 0.58391 0.89139 0.0
H371 H 0.45556 0.5499 0.85136 0.0
H372 H 0.53354 0.45222 0.34759 0.0
H373 H 0.50641 0.42639 0.27611 0.0
H374 H 0.45546 0.43234 0.46312 0.0
H375 H 0.48362 0.45599 0.53637 0.0
Pr376 Pr 1.00089 0.4929 0.8044 0.0
Pr377 Pr 0.01867 0.5207 0.64046 0.0
C378 C 0.98332 0.48278 0.9451 0.0
C379 C 0.96288 0.46901 0.97356 0.0
C380 C 0.9605 0.44464 0.95799 0.0
C381 C 0.93946 0.43278 0.97643 0.0
C382 C 0.92048 0.44523 0.0094 0.0
C383 C 0.92325 0.46927 0.02786 0.0
C384 C 0.94432 0.481 0.01066 0.0
C385 C 0.0078 0.46144 0.67889 0.0
C386 C 0.96071 0.5101 0.67064 0.0
C387 C 0.03464 0.52756 0.49552 0.0
C388 C 0.04956 0.51313 0.4447 0.0
C389 C 0.05321 0.51969 0.3672 0.0
C390 C 0.0691 0.50693 0.32117 0.0
C391 C 0.08146 0.48744 0.35224 0.0
C392 C 0.07678 0.48029 0.42894 0.0
C393 C 0.06106 0.49313 0.47489 0.0
C394 C 0.00985 0.55247 0.76305 0.0
C395 C 0.05825 0.50281 0.77369 0.0
O396 O 0.97795 0.50219 0.90694 0.0
O397 O 1.00106 0.47099 0.91451 0.0
O398 O 0.01119 0.4834 0.6816 0.0
O399 O 1.00049 0.45441 0.74684 0.0
O400 O 0.97766 0.51666 0.62161 0.0
O401 O 0.96493 0.50229 0.7422 0.0
O402 O 0.01356 0.51896 0.5103 0.0
O403 O 0.04533 0.53609 0.55702 0.0
O404 O 0.00829 0.5303 0.76279 0.0
O405 O 0.01573 0.55958 0.69362 0.0
O406 O 0.04119 0.50041 0.82614 0.0
O407 O 0.05384 0.50653 0.69875 0.0
H408 H 0.97451 0.43492 0.92927 0.0
H409 H 0.93764 0.41421 0.96193 0.0
H410 H 0.90889 0.47911 0.0543 0.0
H411 H 0.94576 0.49972 0.0236 0.0
H412 H 0.04433 0.53504 0.34308 0.0
H413 H 0.07228 0.51273 0.26207 0.0
H414 H 0.08626 0.46561 0.45497 0.0
H415 H 0.05846 0.4879 0.53489 0.0
H416 H 0.16761 0.01258 0.37362 0.0
H417 H 0.0328 0.00857 0.52164 0.0
H418 H 0.1077 0.02037 0.2201 0.0
H419 H 0.0932 0.00676 0.6739 0.0
H420 H 0.05954 0.0116 0.40968 0.0
H421 H 0.14043 0.0082 0.48302 0.0
C422 C 0.14874 0.01307 0.36258 0.0
C423 C 0.14003 0.01684 0.28709 0.0
C424 C 0.06697 0.01064 0.46758 0.0
C425 C 0.10862 0.01222 0.41316 0.0
C426 C 0.05166 0.00915 0.53148 0.0
C427 C 0.06073 0.00797 0.60715 0.0
C428 C 0.09162 0.01061 0.47946 0.0
C429 C 0.08542 0.00785 0.61654 0.0
C430 C 0.13319 0.01078 0.42539 0.0
C431 C 0.1153 0.01776 0.27717 0.0
N432 N 0.09997 0.00918 0.55363 0.0
N433 N 0.10051 0.0155 0.33932 0.0
H434 H 0.46301 0.16438 0.39811 0.0
H435 H 0.50704 0.03604 0.53011 0.0
H436 H 0.50429 0.11994 0.24637 0.0
H437 H 0.48983 0.09165 0.69139 0.0
H438 H 0.50224 0.0643 0.42209 0.0
H439 H 0.46898 0.13592 0.5035 0.0
C440 C 0.4734 0.14861 0.38711 0.0
C441 C 0.48318 0.14452 0.31342 0.0
C442 C 0.49951 0.07028 0.48114 0.0
C443 C 0.48989 0.11163 0.43381 0.0
C444 C 0.502 0.05412 0.54257 0.0
C445 C 0.49843 0.06147 0.61947 0.0
C446 C 0.49324 0.09388 0.49699 0.0
C447 C 0.49258 0.08524 0.63284 0.0
C448 C 0.47685 0.13239 0.44733 0.0
C449 C 0.49659 0.12383 0.30251 0.0
N450 N 0.48999 0.10052 0.57231 0.0
N451 N 0.49939 0.10802 0.36187 0.0
H452 H 0.4027 0.48106 0.21598 0.0
H453 H 0.41534 0.49653 0.67672 0.0
H454 H 0.34342 0.49263 0.36941 0.0
H455 H 0.47505 0.49924 0.52147 0.0
H456 H 0.38886 0.49351 0.56471 0.0
H457 H 0.42963 0.48592 0.32643 0.0
C458 C 0.39532 0.48471 0.27278 0.0
C459 C 0.37067 0.48644 0.28315 0.0
C460 C 0.40776 0.49466 0.55489 0.0
C461 C 0.40151 0.49202 0.41015 0.0
C462 C 0.4229 0.49634 0.61888 0.0
C463 C 0.4475 0.49756 0.60833 0.0
C464 C 0.41724 0.49422 0.47941 0.0
C465 C 0.45628 0.49756 0.53213 0.0
C466 C 0.41074 0.48757 0.33579 0.0
C467 C 0.36223 0.49143 0.35817 0.0
N468 N 0.44121 0.49577 0.47054 0.0
N469 N 0.37757 0.49388 0.41864 0.0
H470 H 0.01291 0.34019 0.37132 0.0
H471 H 0.01604 0.47412 0.52715 0.0
H472 H 0.02443 0.40053 0.22166 0.0
H473 H 1.00356 0.41343 0.67301 0.0
H474 H 0.01908 0.44786 0.41412 0.0
H475 H 0.00845 0.36698 0.4814 0.0
C476 C 0.0142 0.35908 0.36117 0.0
C477 C 0.01905 0.36799 0.28654 0.0
C478 C 0.01568 0.44026 0.47083 0.0
C479 C 0.0144 0.39896 0.41365 0.0
C480 C 0.01412 0.45528 0.53535 0.0
C481 C 0.00983 0.44598 0.60956 0.0
C482 C 0.01277 0.41568 0.4806 0.0
C483 C 0.00698 0.42138 0.61686 0.0
C484 C 0.01186 0.3744 0.42446 0.0
C485 C 0.02101 0.39272 0.27801 0.0
N486 N 0.00853 0.40712 0.5534 0.0
N487 N 0.01874 0.40728 0.34063 0.0
H488 H 0.83103 1.00137 0.05835 0.0
H489 H 0.96611 0.00502 0.91286 0.0
H490 H 0.89057 0.0108 0.21227 0.0
H491 H 0.90592 0.00439 0.759 0.0
H492 H 0.93911 1.00214 0.02423 0.0
H493 H 0.85852 0.99712 0.94941 0.0
C494 C 0.84989 1.00218 0.06953 0.0
C495 C 0.85844 0.00661 0.14472 0.0
C496 C 0.93181 1.00241 0.96608 0.0
C497 C 0.89011 1.00207 0.01969 0.0
C498 C 0.94724 0.00389 0.90254 0.0
C499 C 0.93823 0.00483 0.82669 0.0
C500 C 0.90718 1.00184 0.9536 0.0
C501 C 0.9136 0.00373 0.81658 0.0
C502 C 0.86559 0.99995 0.0071 0.0
C503 C 0.88312 0.00778 0.15521 0.0
N504 N 0.89895 1.00236 0.8792 0.0
N505 N 0.89804 0.00565 0.0935 0.0
H506 H 0.50249 0.82804 0.04821 0.0
H507 H 0.50692 0.96404 0.91388 0.0
H508 H 0.50876 0.88627 0.20902 0.0
H509 H 0.5018 0.90515 0.75588 0.0
H510 H 0.51031 0.93603 0.02256 0.0
H511 H 0.5053 0.856 0.94047 0.0
C512 C 0.50483 0.84665 0.06108 0.0
C513 C 0.5053 0.85471 0.13825 0.0
C514 C 0.50865 0.92923 0.96405 0.0
C515 C 0.50804 0.88708 0.01429 0.0
C516 C 0.50683 0.94523 0.90203 0.0
C517 C 0.50418 0.9369 0.82583 0.0
C518 C 0.50773 0.90472 0.94968 0.0
C519 C 0.50381 0.91234 0.81377 0.0
C520 C 0.50623 0.86269 0.9993 0.0
C521 C 0.50793 0.8792 0.1507 0.0
N522 N 0.50547 0.89715 0.87493 0.0
N523 N 0.50907 0.89449 0.08952 0.0
H524 H 0.61818 0.50477 0.21693 0.0
H525 H 0.60292 0.49675 0.75473 0.0
H526 H 0.67638 0.49893 0.05553 0.0
H527 H 0.54379 0.50328 0.91158 0.0
H528 H 0.63001 0.50007 0.86467 0.0
H529 H 0.59071 0.50676 0.10701 0.0
C530 C 0.62524 0.50402 0.15849 0.0
C531 C 0.64973 0.50159 0.14585 0.0
C532 C 0.61113 0.50094 0.87532 0.0
C533 C 0.61825 0.50392 0.01941 0.0
C534 C 0.59564 0.49905 0.81244 0.0
C535 C 0.57107 0.49976 0.82405 0.0
C536 C 0.60206 0.50341 0.9509 0.0
C537 C 0.56262 0.50277 0.90009 0.0
C538 C 0.60951 0.50524 0.0957 0.0
C539 C 0.65775 0.50108 0.06856 0.0
N540 N 0.57809 0.50435 0.96073 0.0
N541 N 0.64209 0.50206 0.0086 0.0
H542 H 0.00639 0.676 0.05765 0.0
H543 H 0.00519 0.54058 0.91736 0.0
H544 H 0.00493 0.61684 0.21677 0.0
H545 H 0.0073 0.60055 0.76227 0.0
H546 H 1.00208 0.56785 0.02793 0.0
H547 H 1.00334 0.64845 0.94931 0.0
C548 C 0.00505 0.65725 0.07011 0.0
C549 C 0.00598 0.64885 0.14694 0.0
C550 C 1.00301 0.57504 0.96966 0.0
C551 C 1.00298 0.61693 0.02206 0.0
C552 C 0.00464 0.55946 0.90656 0.0
C553 C 0.00636 0.56832 0.83058 0.0
C554 C 1.00316 0.59965 0.95657 0.0
C555 C 0.00601 0.59296 0.81992 0.0
C556 C 1.00353 0.64145 0.00791 0.0
C557 C 0.00464 0.6242 0.15869 0.0
N558 N 0.00453 0.60772 0.88204 0.0
N559 N 1.00333 0.60915 0.09706 0.0
H560 H 0.05237 0.23413 0.30957 0.0
H561 H 0.06868 0.09468 0.34373 0.0
H562 H 0.10863 0.19887 0.18477 0.0
H563 H 1.00206 0.13169 0.36049 0.0
H564 H 0.08823 0.13242 0.31014 0.0
H565 H 0.03986 0.19638 0.36167 0.0
C566 C 0.06268 0.21861 0.29485 0.0
C567 C 0.08157 0.21981 0.24185 0.0
C568 C 0.06934 0.13212 0.32096 0.0
C569 C 0.06649 0.17615 0.29968 0.0
C570 C 0.05822 0.11072 0.33975 0.0
C571 C 0.03373 0.11017 0.35386 0.0
C572 C 0.05588 0.15298 0.31853 0.0
C573 C 0.0209 0.13132 0.34871 0.0
C574 C 0.05517 0.19693 0.32377 0.0
C575 C 0.09374 0.19874 0.22434 0.0
N576 N 0.03215 0.15188 0.332 0.0
N577 N 0.08579 0.17763 0.25245 0.0
H578 H 0.27458 0.0509 0.31465 0.0
H579 H 0.41416 0.06899 0.34188 0.0
H580 H 0.30934 0.10697 0.18679 0.0
H581 H 0.37751 1.00267 0.37429 0.0
H582 H 0.37609 0.08793 0.30895 0.0
H583 H 0.31237 0.03931 0.36852 0.0
C584 C 0.28999 0.06135 0.29954 0.0
C585 C 0.28865 0.0799 0.24518 0.0
C586 C 0.37653 0.06924 0.32319 0.0
C587 C 0.33239 0.06586 0.30504 0.0
C588 C 0.39812 0.05847 0.34166 0.0
C589 C 0.39888 0.03421 0.35971 0.0
C590 C 0.35569 0.0557 0.32491 0.0
C591 C 0.37772 0.02131 0.35931 0.0
C592 C 0.31171 0.05437 0.32952 0.0
C593 C 0.30958 0.09229 0.22731 0.0
N594 N 0.357 0.03223 0.34259 0.0
N595 N 0.33073 0.08484 0.25639 0.0
H596 H 0.43758 0.31863 0.05082 0.0
H597 H 0.45029 0.39336 0.43117 0.0
H598 H 0.40256 0.30092 0.26602 0.0
H599 H 0.47121 0.42047 0.2064 0.0
H600 H 0.42811 0.3623 0.36756 0.0
H601 H 0.44484 0.35845 0.09991 0.0
C602 C 0.43064 0.32337 0.10735 0.0
C603 C 0.4197 0.30633 0.15492 0.0
C604 C 0.43724 0.37522 0.3319 0.0
C605 C 0.42859 0.35168 0.21229 0.0
C606 C 0.44989 0.39319 0.36833 0.0
C607 C 0.46295 0.40964 0.32438 0.0
C608 C 0.43796 0.3732 0.25074 0.0
C609 C 0.46196 0.40789 0.24296 0.0
C610 C 0.435 0.34609 0.13567 0.0
C611 C 0.41142 0.3134 0.22806 0.0
N612 N 0.45002 0.38977 0.20881 0.0
N613 N 0.41644 0.3354 0.25509 0.0
H614 H 0.19661 0.39835 0.17783 0.0
H615 H 0.1156 0.51026 0.26966 0.0
H616 H 0.22265 0.46865 0.22604 0.0
H617 H 0.09333 0.44025 0.33974 0.0
H618 H 0.15223 0.49352 0.21944 0.0
H619 H 0.15622 0.41193 0.21089 0.0
C620 C 0.19384 0.41645 0.19644 0.0
C621 C 0.21295 0.43227 0.20123 0.0
C622 C 0.1392 0.48178 0.24507 0.0
C623 C 0.1673 0.44798 0.23523 0.0
C624 C 0.11815 0.49127 0.27286 0.0
C625 C 0.10147 0.47665 0.30947 0.0
C626 C 0.14365 0.45747 0.25373 0.0
C627 C 0.10595 0.45216 0.31289 0.0
C628 C 0.17093 0.42418 0.21473 0.0
C629 C 0.20851 0.4557 0.2238 0.0
N630 N 0.12678 0.44329 0.28587 0.0
N631 N 0.18617 0.46285 0.23942 0.0
H632 H 0.07069 0.77184 0.08511 0.0
H633 H 0.09901 0.90872 0.09776 0.0
H634 H 0.11743 0.80336 0.25475 0.0
H635 H 0.0505 0.875 0.93942 0.0
H636 H 0.11427 0.86955 0.13487 0.0
H637 H 0.0729 0.80767 0.00859 0.0
C638 C 0.08203 0.78595 0.10561 0.0
C639 C 0.09332 0.78464 0.17825 0.0
C640 C 0.10062 0.87077 0.09089 0.0
C641 C 0.09498 0.8265 0.09149 0.0
C642 C 0.09196 0.89308 0.06974 0.0
C643 C 0.07316 0.8949 0.01689 0.0
C644 C 0.09038 0.85033 0.05858 0.0
C645 C 0.06465 0.87422 0.98181 0.0
C646 C 0.08302 0.80668 0.06193 0.0
C647 C 0.10762 0.80385 0.20078 0.0
N648 N 0.07311 0.8528 0.00398 0.0
N649 N 0.10754 0.82423 0.15861 0.0
H650 H 0.72141 0.10426 0.13859 0.0
H651 H 0.58859 0.06712 0.20816 0.0
H652 H 0.69199 0.08674 0.36291 0.0
H653 H 0.61453 0.0929 0.9876 0.0
H654 H 0.62436 0.0817 0.27012 0.0
H655 H 0.68123 0.10757 0.08662 0.0
C656 C 0.70651 0.10164 0.1773 0.0
C657 C 0.71011 0.09484 0.2549 0.0
C658 C 0.62212 0.08453 0.20832 0.0
C659 C 0.66414 0.09835 0.1958 0.0
C660 C 0.60153 0.07631 0.17281 0.0
C661 C 0.59866 0.07831 0.09205 0.0
C662 C 0.6402 0.09451 0.16276 0.0
C663 C 0.61628 0.09026 0.04961 0.0
C664 C 0.68357 0.10355 0.14766 0.0
C665 C 0.69016 0.09204 0.30276 0.0
N666 N 0.63649 0.09751 0.08521 0.0
N667 N 0.66807 0.09336 0.27208 0.0
H668 H 0.43875 0.7273 0.09888 0.0
H669 H 0.41522 0.59155 0.14363 0.0
H670 H 0.39417 0.69918 0.28132 0.0
H671 H 0.44235 0.62358 0.93389 0.0
H672 H 0.40279 0.63075 0.18852 0.0
H673 H 0.43467 0.69047 0.02901 0.0
C674 C 0.4275 0.71373 0.12369 0.0
C675 C 0.41725 0.71641 0.19761 0.0
C676 C 0.411 0.62912 0.13194 0.0
C677 C 0.41341 0.67338 0.11823 0.0
C678 C 0.41824 0.60678 0.10656 0.0
C679 C 0.43014 0.60433 0.03542 0.0
C680 C 0.41603 0.64916 0.08632 0.0
C681 C 0.43323 0.62458 0.98908 0.0
C682 C 0.4254 0.69244 0.08368 0.0
C683 C 0.40317 0.69774 0.22604 0.0
N684 N 0.4266 0.64616 0.01593 0.0
N685 N 0.40214 0.67681 0.18725 0.0
H686 H 0.77381 0.43845 0.08455 0.0
H687 H 0.9101 0.40547 0.0946 0.0
H688 H 0.80403 0.39001 0.25204 0.0
H689 H 0.8783 0.45939 0.95112 0.0
H690 H 0.87028 0.39116 0.12908 0.0
H691 H 0.8099 0.43628 0.00938 0.0
C692 C 0.78769 0.42675 0.10476 0.0
C693 C 0.78595 0.41493 0.17644 0.0
C694 C 0.87206 0.40582 0.08888 0.0
C695 C 0.82806 0.41327 0.09134 0.0
C696 C 0.89471 0.41393 0.06926 0.0
C697 C 0.89726 0.43386 0.02136 0.0
C698 C 0.85205 0.41772 0.05975 0.0
C699 C 0.87694 0.44424 0.98953 0.0
C700 C 0.80855 0.42578 0.06191 0.0
C701 C 0.80485 0.40018 0.19876 0.0
N702 N 0.8552 0.43621 0.00993 0.0
N703 N 0.82538 0.40023 0.15741 0.0
H704 H 0.99518 0.21029 0.81571 0.0
H705 H 0.01468 0.07289 0.91827 0.0
H706 H 0.02526 0.18536 0.03146 0.0
H707 H 0.99559 0.09764 0.68928 0.0
H708 H 0.01597 0.11389 0.96296 0.0
H709 H 0.99248 0.16923 0.7711 0.0
C710 C 1.00119 0.19628 0.85392 0.0
C711 C 0.01046 0.20157 0.92779 0.0
C712 C 0.01152 0.11039 0.90289 0.0
C713 C 0.0072 0.15423 0.87683 0.0
C714 C 0.01077 0.0869 0.87718 0.0
C715 C 0.00506 0.08162 0.79961 0.0
C716 C 0.00639 0.12895 0.85105 0.0
C717 C 1.00016 0.10073 0.74948 0.0
C718 C 0.99957 0.17277 0.82834 0.0
C719 C 0.01759 0.18239 0.97473 0.0
N720 N 1.00088 0.12346 0.77604 0.0
N721 N 0.01584 0.15972 0.94848 0.0
H722 H 0.29818 0.99357 0.81595 0.0
H723 H 0.43543 0.01123 0.92247 0.0
H724 H 0.32289 0.02231 0.03362 0.0
H725 H 0.41117 0.9947 0.69105 0.0
H726 H 0.39435 0.01229 0.96644 0.0
H727 H 0.33932 0.99081 0.77182 0.0
C728 C 0.31215 0.99927 0.85469 0.0
C729 C 0.30678 0.00817 0.92897 0.0
C730 C 0.39797 0.00844 0.90601 0.0
C731 C 0.3542 0.00483 0.87859 0.0
C732 C 0.42151 0.0078 0.88071 0.0
C733 C 0.42694 1.00291 0.80267 0.0
C734 C 0.37951 0.004 0.85325 0.0
C735 C 0.40795 0.99863 0.75165 0.0
C736 C 0.3357 0.99762 0.82937 0.0
C737 C 0.32591 0.01491 0.97656 0.0
N738 N 0.38515 0.99923 0.77781 0.0
N739 N 0.34862 0.01313 0.95058 0.0
H740 H 0.48812 0.32064 0.0464 0.0
H741 H 0.51371 0.40825 0.6892 0.0
H742 H 0.51644 0.29717 0.8267 0.0
H743 H 0.49638 0.43245 0.92005 0.0
H744 H 0.51358 0.36743 0.73717 0.0
H745 H 0.49055 0.36153 1.00086 0.0
C746 C 0.49526 0.32403 0.98906 0.0
C747 C 0.50219 0.30522 0.94061 0.0
C748 C 0.50983 0.38168 0.77735 0.0
C749 C 0.50443 0.35233 0.8871 0.0
C750 C 0.50981 0.40505 0.74991 0.0
C751 C 0.50502 0.42397 0.80048 0.0
C752 C 0.50489 0.37704 0.85598 0.0
C753 C 0.50018 0.41855 0.8787 0.0
C754 C 0.49642 0.34747 0.96277 0.0
C755 C 0.51066 0.31093 0.866 0.0
N756 N 0.50019 0.39566 0.90386 0.0
N757 N 0.51145 0.33389 0.84154 0.0
H758 H 0.21209 0.51049 0.81423 0.0
H759 H 0.07483 0.49189 0.91951 0.0
H760 H 0.18743 0.48143 0.0319 0.0
H761 H 0.0992 0.51098 0.69007 0.0
H762 H 0.11588 0.49049 0.96364 0.0
H763 H 0.17097 0.51336 0.77026 0.0
C764 C 0.19812 0.50474 0.85298 0.0
C765 C 0.2035 0.4957 0.92716 0.0
C766 C 0.11229 0.49497 0.9036 0.0
C767 C 0.15608 0.49914 0.87693 0.0
C768 C 0.08876 0.49579 0.87819 0.0
C769 C 0.08336 0.50153 0.80066 0.0
C770 C 0.13077 0.50005 0.85148 0.0
C771 C 0.10238 0.50639 0.75024 0.0
C772 C 0.17458 0.50646 0.82776 0.0
C773 C 0.18438 0.4889 0.97484 0.0
N774 N 0.12516 0.50558 0.77651 0.0
N775 N 0.16167 0.49072 0.9489 0.0
H776 H 0.98582 0.80629 0.61846 0.0
H777 H 0.99399 0.94407 0.51332 0.0
H778 H 0.01211 0.83233 0.3985 0.0
H779 H 0.99595 0.91841 0.74957 0.0
H780 H 0.99385 0.9031 0.46731 0.0
H781 H 0.98296 0.84718 0.66428 0.0
C782 C 0.99098 0.82045 0.57951 0.0
C783 C 0.99933 0.8155 0.50415 0.0
C784 C 0.99424 0.90645 0.52922 0.0
C785 C 0.99552 0.86261 0.55636 0.0
C786 C 0.99422 0.92985 0.55565 0.0
C787 C 0.99504 0.93479 0.63558 0.0
C788 C 0.99472 0.8877 0.58294 0.0
C789 C 0.99544 0.91551 0.68746 0.0
C790 C 0.98923 0.84385 0.60585 0.0
C791 C 0.00516 0.83494 0.45638 0.0
N792 N 0.99519 0.89285 0.66029 0.0
N793 N 1.00313 0.85751 0.48321 0.0
H794 H 0.70282 0.98576 0.62619 0.0
H795 H 0.56522 0.99456 0.52128 0.0
H796 H 0.67694 0.01122 0.40506 0.0
H797 H 0.59069 0.99658 0.75759 0.0
H798 H 0.60615 0.9942 0.47532 0.0
H799 H 0.66193 0.98338 0.67256 0.0
C800 C 0.68868 0.99082 0.58711 0.0
C801 C 0.69367 0.9988 0.51128 0.0
C802 C 0.60278 0.99467 0.53723 0.0
C803 C 0.64657 0.99559 0.56415 0.0
C804 C 0.57939 0.99478 0.56367 0.0
C805 C 0.5744 0.99564 0.6436 0.0
C806 C 0.62149 0.99506 0.59092 0.0
C807 C 0.59363 0.99603 0.69548 0.0
C808 C 0.66529 0.98936 0.61377 0.0
C809 C 0.67428 0.00455 0.46334 0.0
N810 N 0.61631 0.99565 0.66828 0.0
N811 N 0.65171 1.00282 0.49052 0.0
H812 H 0.49307 0.69713 0.61273 0.0
H813 H 0.53264 0.56345 0.53035 0.0
H814 H 0.53556 0.67702 0.41494 0.0
H815 H 0.49848 0.58616 0.74193 0.0
H816 H 0.53409 0.60471 0.48695 0.0
H817 H 0.49561 0.65673 0.66135 0.0
C818 C 0.50331 0.68439 0.57993 0.0
C819 C 0.51419 0.69077 0.50939 0.0
C820 C 0.52638 0.60067 0.54301 0.0
C821 C 0.51658 0.64385 0.56438 0.0
C822 C 0.52549 0.57706 0.56789 0.0
C823 C 0.51536 0.57116 0.64002 0.0
C824 C 0.51694 0.61861 0.59024 0.0
C825 C 0.50646 0.58971 0.68594 0.0
C826 C 0.50454 0.66115 0.60758 0.0
C827 C 0.52662 0.67303 0.46899 0.0
N828 N 0.50737 0.61249 0.66015 0.0
N829 N 0.52736 0.65043 0.4968 0.0
H830 H 0.83368 0.49525 0.39532 0.0
H831 H 0.91981 0.5094 0.75772 0.0
H832 H 0.8086 0.51996 0.61812 0.0
H833 H 0.94448 0.51277 0.52064 0.0
H834 H 0.87887 0.5099 0.71014 0.0
H835 H 0.87419 0.49879 0.44188 0.0
C836 C 0.83651 0.5018 0.4536 0.0
C837 C 0.81729 0.50739 0.50239 0.0
C838 C 0.89327 0.51066 0.66866 0.0
C839 C 0.8642 0.51062 0.55717 0.0
C840 C 0.91667 0.51028 0.69572 0.0
C841 C 0.93572 0.51105 0.64318 0.0
C842 C 0.88881 0.51139 0.58838 0.0
C843 C 0.93045 0.51225 0.56344 0.0
C844 C 0.85981 0.50359 0.48038 0.0
C845 C 0.82258 0.51504 0.57835 0.0
N846 N 0.90756 0.51218 0.53856 0.0
N847 N 0.84544 0.51623 0.60348 0.0
loop_
_geom_bond_atom_site_label_1
_geom_bond_atom_site_label_2
_geom_bond_distance
_geom_bond_site_symmetry_2
_ccdc_geom_bond_type
P0 O11 1.490 . S
P0 C14 1.812 . S
P0 C20 1.803 . S
P0 C26 1.819 . S
H1 C15 0.941 . S
H2 C16 0.939 . S
H3 C18 0.940 . S
H4 C19 0.940 . S
H5 C21 0.939 . S
H6 C22 0.942 . S
H7 C24 0.940 . S
H8 C25 0.939 . S
H9 C27 0.941 . S
H10 C31 0.939 . S
O11 P0 1.490 . S
H12 C28 0.939 . S
H13 C30 0.940 . S
C14 P0 1.812 . S
C14 C15 1.389 . S
C14 C19 1.391 . S
C15 H1 0.941 . S
C15 C14 1.389 . S
C15 C16 1.397 . S
C16 H2 0.939 . S
C16 C15 1.397 . S
C16 C17 1.378 . S
C17 C16 1.378 . S
C17 C18 1.378 . S
C18 H3 0.940 . S
C18 C17 1.378 . S
C18 C19 1.396 . S
C19 H4 0.940 . S
C19 C14 1.391 . S
C19 C18 1.396 . S
C20 P0 1.803 . S
C20 C21 1.378 . S
C20 C25 1.400 . S
C21 H5 0.939 . S
C21 C20 1.378 . S
C21 C22 1.361 . S
C22 H6 0.942 . S
C22 C21 1.361 . S
C22 C23 1.369 . S
C23 C22 1.369 . S
C23 C24 1.404 . S
C24 H7 0.940 . S
C24 C23 1.404 . S
C24 C25 1.389 . S
C25 H8 0.939 . S
C25 C20 1.400 . S
C25 C24 1.389 . S
C26 P0 1.819 . S
C26 C27 1.391 . S
C26 C31 1.391 . S
C27 H9 0.941 . S
C27 C26 1.391 . S
C27 C28 1.396 . S
C28 H12 0.939 . S
C28 C27 1.396 . S
C28 C29 1.397 . S
C29 C28 1.397 . S
C29 C30 1.385 . S
C30 H13 0.940 . S
C30 C29 1.385 . S
C30 C31 1.388 . S
C31 H10 0.939 . S
C31 C26 1.391 . S
C31 C30 1.388 . S
P32 O43 1.490 . S
P32 C46 1.812 . S
P32 C52 1.803 . S
P32 C58 1.819 . S
H33 C47 0.941 . S
H34 C48 0.939 . S
H35 C50 0.940 . S
H36 C51 0.950 . S
H37 C53 0.939 . S
H38 C54 0.942 . S
H39 C56 0.940 . S
H40 C57 0.959 . S
H41 C59 0.941 . S
H42 C63 0.929 1_655 S
O43 P32 1.490 . S
H44 C60 0.939 . S
H45 C62 0.940 . S
C46 P32 1.812 . S
C46 C47 1.389 . S
C46 C51 1.375 1_455 S
C47 H33 0.941 . S
C47 C46 1.389 . S
C47 C48 1.397 . S
C48 H34 0.939 . S
C48 C47 1.397 . S
C48 C49 1.378 . S
C49 C48 1.378 . S
C49 C50 1.378 1_455 S
C50 H35 0.940 . S
C50 C49 1.378 1_655 S
C50 C51 1.403 . S
C51 H36 0.950 . S
C51 C46 1.375 1_655 S
C51 C50 1.403 . S
C52 P32 1.803 . S
C52 C53 1.378 . S
C52 C57 1.368 1_455 S
C53 H37 0.939 . S
C53 C52 1.378 . S
C53 C54 1.361 . S
C54 H38 0.942 . S
C54 C53 1.361 . S
C54 C55 1.369 . S
C55 C54 1.369 . S
C55 C56 1.404 1_455 S
C56 H39 0.940 . S
C56 C55 1.404 1_655 S
C56 C57 1.402 . S
C57 H40 0.959 . S
C57 C52 1.368 1_655 S
C57 C56 1.402 . S
C58 P32 1.819 . S
C58 C59 1.391 . S
C58 C63 1.391 . S
C59 H41 0.941 . S
C59 C58 1.391 . S
C59 C60 1.396 . S
C60 H44 0.939 . S
C60 C59 1.396 . S
C60 C61 1.397 . S
C61 C60 1.397 . S
C61 C62 1.385 1_455 S
C62 H45 0.940 . S
C62 C61 1.385 1_655 S
C62 C63 1.388 1_655 S
C63 H42 0.929 1_455 S
C63 C58 1.391 . S
C63 C62 1.388 1_455 S
P64 O75 1.490 . S
P64 C78 1.812 . S
P64 C84 1.803 . S
P64 C90 1.819 . S
H65 C79 0.941 . S
H66 C80 0.939 . S
H67 C82 0.940 . S
H68 C83 0.950 . S
H69 C85 0.939 . S
H70 C86 0.942 . S
H71 C88 0.940 . S
H72 C89 0.959 . S
H73 C91 0.941 . S
H74 C95 0.929 1_565 S
O75 P64 1.490 . S
H76 C92 0.939 . S
H77 C94 0.940 . S
C78 P64 1.812 . S
C78 C79 1.389 . S
C78 C83 1.375 1_545 S
C79 H65 0.941 . S
C79 C78 1.389 . S
C79 C80 1.397 . S
C80 H66 0.939 . S
C80 C79 1.397 . S
C80 C81 1.378 . S
C81 C80 1.378 . S
C81 C82 1.378 1_545 S
C82 H67 0.940 . S
C82 C81 1.378 1_565 S
C82 C83 1.403 . S
C83 H68 0.950 . S
C83 C78 1.375 1_565 S
C83 C82 1.403 . S
C84 P64 1.803 . S
C84 C85 1.378 . S
C84 C89 1.368 1_545 S
C85 H69 0.939 . S
C85 C84 1.378 . S
C85 C86 1.361 . S
C86 H70 0.942 . S
C86 C85 1.361 . S
C86 C87 1.369 . S
C87 C86 1.369 . S
C87 C88 1.404 1_545 S
C88 H71 0.940 . S
C88 C87 1.404 1_565 S
C88 C89 1.402 . S
C89 H72 0.959 . S
C89 C84 1.368 1_565 S
C89 C88 1.402 . S
C90 P64 1.819 . S
C90 C91 1.391 . S
C90 C95 1.391 . S
C91 H73 0.941 . S
C91 C90 1.391 . S
C91 C92 1.396 . S
C92 H76 0.939 . S
C92 C91 1.396 . S
C92 C93 1.397 . S
C93 C92 1.397 . S
C93 C94 1.385 1_545 S
C94 H77 0.940 . S
C94 C93 1.385 1_565 S
C94 C95 1.388 1_565 S
C95 H74 0.929 1_545 S
C95 C90 1.391 . S
C95 C94 1.388 1_545 S
P96 O107 1.490 . S
P96 C110 1.812 . S
P96 C116 1.803 . S
P96 C122 1.819 . S
H97 C111 0.941 . S
H98 C112 0.939 . S
H99 C114 0.940 . S
H100 C115 0.940 . S
H101 C117 0.939 . S
H102 C118 0.942 . S
H103 C120 0.940 . S
H104 C121 0.939 . S
H105 C123 0.941 . S
H106 C127 0.939 . S
O107 P96 1.490 . S
H108 C124 0.939 . S
H109 C126 0.940 . S
C110 P96 1.812 . S
C110 C111 1.389 . S
C110 C115 1.391 . S
C111 H97 0.941 . S
C111 C110 1.389 . S
C111 C112 1.397 . S
C112 H98 0.939 . S
C112 C111 1.397 . S
C112 C113 1.378 . S
C113 C112 1.378 . S
C113 C114 1.378 . S
C114 H99 0.940 . S
C114 C113 1.378 . S
C114 C115 1.396 . S
C115 H100 0.940 . S
C115 C110 1.391 . S
C115 C114 1.396 . S
C116 P96 1.803 . S
C116 C117 1.378 . S
C116 C121 1.400 . S
C117 H101 0.939 . S
C117 C116 1.378 . S
C117 C118 1.361 . S
C118 H102 0.942 . S
C118 C117 1.361 . S
C118 C119 1.369 . S
C119 C118 1.369 . S
C119 C120 1.404 . S
C120 H103 0.940 . S
C120 C119 1.404 . S
C120 C121 1.389 . S
C121 H104 0.939 . S
C121 C116 1.400 . S
C121 C120 1.389 . S
C122 P96 1.819 . S
C122 C123 1.391 . S
C122 C127 1.391 . S
C123 H105 0.941 . S
C123 C122 1.391 . S
C123 C124 1.396 . S
C124 H108 0.939 . S
C124 C123 1.396 . S
C124 C125 1.397 . S
C125 C124 1.397 . S
C125 C126 1.385 . S
C126 H109 0.940 . S
C126 C125 1.385 . S
C126 C127 1.388 . S
C127 H106 0.939 . S
C127 C122 1.391 . S
C127 C126 1.388 . S
P128 O139 1.490 . S
P128 C142 1.812 1_554 S
P128 C148 1.803 . S
P128 C154 1.819 . S
H129 C143 0.941 . S
H130 C144 0.939 . S
H131 C146 0.940 . S
H132 C147 0.940 . S
H133 C149 0.939 . S
H134 C150 0.942 . S
H135 C152 0.940 . S
H136 C153 0.939 . S
H137 C155 0.941 . S
H138 C159 0.939 . S
O139 P128 1.490 . S
H140 C156 0.939 . S
H141 C158 0.940 . S
C142 P128 1.812 1_556 S
C142 C143 1.389 . S
C142 C147 1.391 . S
C143 H129 0.941 . S
C143 C142 1.389 . S
C143 C144 1.397 . S
C144 H130 0.939 . S
C144 C143 1.397 . S
C144 C145 1.378 . S
C145 C144 1.378 . S
C145 C146 1.378 . S
C146 H131 0.940 . S
C146 C145 1.378 . S
C146 C147 1.396 . S
C147 H132 0.940 . S
C147 C142 1.391 . S
C147 C146 1.396 . S
C148 P128 1.803 . S
C148 C149 1.378 . S
C148 C153 1.400 . S
C149 H133 0.939 . S
C149 C148 1.378 . S
C149 C150 1.361 . S
C150 H134 0.942 . S
C150 C149 1.361 . S
C150 C151 1.369 . S
C151 C150 1.369 . S
C151 C152 1.404 . S
C152 H135 0.940 . S
C152 C151 1.404 . S
C152 C153 1.389 . S
C153 H136 0.939 . S
C153 C148 1.400 . S
C153 C152 1.389 . S
C154 P128 1.819 . S
C154 C155 1.391 . S
C154 C159 1.391 . S
C155 H137 0.941 . S
C155 C154 1.391 . S
C155 C156 1.396 . S
C156 H140 0.939 . S
C156 C155 1.396 . S
C156 C157 1.397 . S
C157 C156 1.397 . S
C157 C158 1.385 . S
C158 H141 0.940 . S
C158 C157 1.385 . S
C158 C159 1.388 . S
C159 H138 0.939 . S
C159 C154 1.391 . S
C159 C158 1.388 . S
P160 O171 1.490 . S
P160 C174 1.812 1_554 S
P160 C180 1.803 . S
P160 C186 1.819 . S
H161 C175 0.941 . S
H162 C176 0.939 . S
H163 C178 0.940 . S
H164 C179 0.944 . S
H165 C181 0.939 . S
H166 C182 0.942 . S
H167 C184 0.940 . S
H168 C185 0.953 . S
H169 C187 0.941 . S
H170 C191 0.933 1_655 S
O171 P160 1.490 . S
H172 C188 0.939 . S
H173 C190 0.940 . S
C174 P160 1.812 1_556 S
C174 C175 1.389 . S
C174 C179 1.385 1_455 S
C175 H161 0.941 . S
C175 C174 1.389 . S
C175 C176 1.397 . S
C176 H162 0.939 . S
C176 C175 1.397 . S
C176 C177 1.378 . S
C177 C176 1.378 . S
C177 C178 1.378 1_455 S
C178 H163 0.940 . S
C178 C177 1.378 1_655 S
C178 C179 1.399 . S
C179 H164 0.944 . S
C179 C174 1.385 1_655 S
C179 C178 1.399 . S
C180 P160 1.803 . S
C180 C181 1.378 . S
C180 C185 1.379 1_455 S
C181 H165 0.939 . S
C181 C180 1.378 . S
C181 C182 1.361 . S
C182 H166 0.942 . S
C182 C181 1.361 . S
C182 C183 1.369 . S
C183 C182 1.369 . S
C183 C184 1.404 1_455 S
C184 H167 0.940 . S
C184 C183 1.404 1_655 S
C184 C185 1.398 . S
C185 H168 0.953 . S
C185 C180 1.379 1_655 S
C185 C184 1.398 . S
C186 P160 1.819 . S
C186 C187 1.391 . S
C186 C191 1.391 . S
C187 H169 0.941 . S
C187 C186 1.391 . S
C187 C188 1.396 . S
C188 H172 0.939 . S
C188 C187 1.396 . S
C188 C189 1.397 . S
C189 C188 1.397 . S
C189 C190 1.385 1_455 S
C190 H173 0.940 . S
C190 C189 1.385 1_655 S
C190 C191 1.388 1_655 S
C191 H170 0.933 1_455 S
C191 C186 1.391 . S
C191 C190 1.388 1_455 S
P192 O203 1.490 . S
P192 C206 1.812 1_554 S
P192 C212 1.803 . S
P192 C218 1.819 . S
H193 C207 0.941 . S
H194 C208 0.939 . S
H195 C210 0.940 . S
H196 C211 0.944 . S
H197 C213 0.939 . S
H198 C214 0.942 . S
H199 C216 0.940 . S
H200 C217 0.953 . S
H201 C219 0.941 . S
H202 C223 0.933 1_565 S
O203 P192 1.490 . S
H204 C220 0.939 . S
H205 C222 0.940 . S
C206 P192 1.812 1_556 S
C206 C207 1.389 . S
C206 C211 1.385 1_545 S
C207 H193 0.941 . S
C207 C206 1.389 . S
C207 C208 1.397 . S
C208 H194 0.939 . S
C208 C207 1.397 . S
C208 C209 1.378 . S
C209 C208 1.378 . S
C209 C210 1.378 1_545 S
C210 H195 0.940 . S
C210 C209 1.378 1_565 S
C210 C211 1.399 . S
C211 H196 0.944 . S
C211 C206 1.385 1_565 S
C211 C210 1.399 . S
C212 P192 1.803 . S
C212 C213 1.378 . S
C212 C217 1.379 1_545 S
C213 H197 0.939 . S
C213 C212 1.378 . S
C213 C214 1.361 . S
C214 H198 0.942 . S
C214 C213 1.361 . S
C214 C215 1.369 . S
C215 C214 1.369 . S
C215 C216 1.404 1_545 S
C216 H199 0.940 . S
C216 C215 1.404 1_565 S
C216 C217 1.398 . S
C217 H200 0.953 . S
C217 C212 1.379 1_565 S
C217 C216 1.398 . S
C218 P192 1.819 . S
C218 C219 1.391 . S
C218 C223 1.391 . S
C219 H201 0.941 . S
C219 C218 1.391 . S
C219 C220 1.396 . S
C220 H204 0.939 . S
C220 C219 1.396 . S
C220 C221 1.397 . S
C221 C220 1.397 . S
C221 C222 1.385 1_545 S
C222 H205 0.940 . S
C222 C221 1.385 1_565 S
C222 C223 1.388 1_565 S
C223 H202 0.933 1_545 S
C223 C218 1.391 . S
C223 C222 1.388 1_545 S
P224 O235 1.490 . S
P224 C238 1.812 1_554 S
P224 C244 1.803 . S
P224 C250 1.819 . S
H225 C239 0.941 . S
H226 C240 0.939 . S
H227 C242 0.940 . S
H228 C243 0.940 . S
H229 C245 0.939 . S
H230 C246 0.942 . S
H231 C248 0.940 . S
H232 C249 0.939 . S
H233 C251 0.941 . S
H234 C255 0.939 . S
O235 P224 1.490 . S
H236 C252 0.939 . S
H237 C254 0.940 . S
C238 P224 1.812 1_556 S
C238 C239 1.389 . S
C238 C243 1.391 . S
C239 H225 0.941 . S
C239 C238 1.389 . S
C239 C240 1.397 . S
C240 H226 0.939 . S
C240 C239 1.397 . S
C240 C241 1.378 . S
C241 C240 1.378 . S
C241 C242 1.378 . S
C242 H227 0.940 . S
C242 C241 1.378 . S
C242 C243 1.396 . S
C243 H228 0.940 . S
C243 C238 1.391 . S
C243 C242 1.396 . S
C244 P224 1.803 . S
C244 C245 1.378 . S
C244 C249 1.400 . S
C245 H229 0.939 . S
C245 C244 1.378 . S
C245 C246 1.361 . S
C246 H230 0.942 . S
C246 C245 1.361 . S
C246 C247 1.369 . S
C247 C246 1.369 . S
C247 C248 1.404 . S
C248 H231 0.940 . S
C248 C247 1.404 . S
C248 C249 1.389 . S
C249 H232 0.939 . S
C249 C244 1.400 . S
C249 C248 1.389 . S
C250 P224 1.819 . S
C250 C251 1.391 . S
C250 C255 1.391 . S
C251 H233 0.941 . S
C251 C250 1.391 . S
C251 C252 1.396 . S
C252 H236 0.939 . S
C252 C251 1.396 . S
C252 C253 1.397 . S
C253 C252 1.397 . S
C253 C254 1.385 . S
C254 H237 0.940 . S
C254 C253 1.385 . S
C254 C255 1.388 . S
C255 H234 0.939 . S
C255 C250 1.391 . S
C255 C254 1.388 . S
Pr256 C258 2.880 . S
Pr256 O276 2.562 . S
Pr256 O277 2.490 . S
Pr256 O278 2.695 1_565 S
Pr256 O279 2.512 . S
Pr256 O281 2.437 . S
Pr256 O284 2.436 1_455 S
Pr256 O286 2.438 1_565 S
Pr257 C267 2.880 . S
Pr257 O278 2.436 1_655 S
Pr257 O280 2.438 1_545 S
Pr257 O282 2.562 . S
Pr257 O283 2.490 . S
Pr257 O284 2.695 1_545 S
Pr257 O285 2.512 . S
Pr257 O287 2.437 . S
C258 Pr256 2.880 . S
C258 C259 1.491 . S
C258 O276 1.254 . S
C258 O277 1.225 . S
C259 C258 1.491 . S
C259 C260 1.392 . S
C259 C264 1.356 . S
C260 C259 1.392 . S
C260 C261 1.368 . S
C260 H288 0.929 . S
C261 C260 1.368 . S
C261 C262 1.386 . S
C261 H289 0.929 . S
C262 C261 1.386 . S
C262 C263 1.373 . S
C263 C262 1.373 . S
C263 C264 1.409 . S
C263 H290 0.931 . S
C264 C259 1.356 . S
C264 C263 1.409 . S
C264 H291 0.930 1_455 S
C265 O278 1.270 1_565 S
C265 O279 1.248 . S
C266 O280 1.267 . S
C266 O281 1.278 1_655 S
C267 Pr257 2.880 . S
C267 C268 1.491 . S
C267 O282 1.254 . S
C267 O283 1.225 . S
C268 C267 1.491 . S
C268 C269 1.392 . S
C268 C273 1.356 . S
C269 C268 1.392 . S
C269 C270 1.368 . S
C269 H292 0.929 . S
C270 C269 1.368 . S
C270 C271 1.386 . S
C270 H293 0.929 . S
C271 C270 1.386 . S
C271 C272 1.373 . S
C272 C271 1.373 . S
C272 C273 1.409 . S
C272 H294 0.931 1_655 S
C273 C268 1.356 . S
C273 C272 1.409 . S
C273 H295 0.930 1_655 S
C274 O284 1.270 1_545 S
C274 O285 1.248 . S
C275 O286 1.267 . S
C275 O287 1.278 1_455 S
O276 Pr256 2.562 . S
O276 C258 1.254 . S
O277 Pr256 2.490 . S
O277 C258 1.225 . S
O278 Pr256 2.695 1_545 S
O278 Pr257 2.436 1_455 S
O278 C265 1.270 1_545 S
O279 Pr256 2.512 . S
O279 C265 1.248 . S
O280 Pr257 2.438 1_565 S
O280 C266 1.267 . S
O281 Pr256 2.437 . S
O281 C266 1.278 1_455 S
O282 Pr257 2.562 . S
O282 C267 1.254 . S
O283 Pr257 2.490 . S
O283 C267 1.225 . S
O284 Pr256 2.436 1_655 S
O284 Pr257 2.695 1_565 S
O284 C274 1.270 1_565 S
O285 Pr257 2.512 . S
O285 C274 1.248 . S
O286 Pr256 2.438 1_545 S
O286 C275 1.267 . S
O287 Pr257 2.437 . S
O287 C275 1.278 1_655 S
H288 C260 0.929 . S
H289 C261 0.929 . S
H290 C263 0.931 . S
H291 C264 0.930 1_655 S
H292 C269 0.929 . S
H293 C270 0.929 . S
H294 C272 0.931 1_455 S
H295 C273 0.930 1_455 S
Pr296 C298 2.880 . S
Pr296 O316 2.562 . S
Pr296 O317 2.490 . S
Pr296 O318 2.695 . S
Pr296 O319 2.512 . S
Pr296 O321 2.437 . S
Pr296 O324 2.436 1_545 S
Pr296 O326 2.438 . S
Pr297 C307 2.880 . S
Pr297 O318 2.436 1_565 S
Pr297 O320 2.438 . S
Pr297 O322 2.562 . S
Pr297 O323 2.490 . S
Pr297 O324 2.695 . S
Pr297 O325 2.512 . S
Pr297 O327 2.437 . S
C298 Pr296 2.880 . S
C298 C299 1.491 . S
C298 O316 1.254 . S
C298 O317 1.225 . S
C299 C298 1.491 . S
C299 C300 1.392 . S
C299 C304 1.356 . S
C300 C299 1.392 . S
C300 C301 1.368 . S
C300 H328 0.929 . S
C301 C300 1.368 . S
C301 C302 1.386 . S
C301 H329 0.929 . S
C302 C301 1.386 . S
C302 C303 1.373 . S
C303 C302 1.373 . S
C303 C304 1.409 . S
C303 H330 0.908 1_545 S
C304 C299 1.356 . S
C304 C303 1.409 . S
C304 H331 0.930 1_545 S
C305 O318 1.270 . S
C305 O319 1.248 . S
C306 O320 1.267 . S
C306 O321 1.278 1_565 S
C307 Pr297 2.880 . S
C307 C308 1.491 . S
C307 O322 1.254 . S
C307 O323 1.225 . S
C308 C307 1.491 . S
C308 C309 1.392 . S
C308 C313 1.356 . S
C309 C308 1.392 . S
C309 C310 1.368 . S
C309 H332 0.929 . S
C310 C309 1.368 . S
C310 C311 1.386 . S
C310 H333 0.929 . S
C311 C310 1.386 . S
C311 C312 1.373 . S
C312 C311 1.373 . S
C312 C313 1.409 . S
C312 H334 0.899 1_565 S
C313 C308 1.356 . S
C313 C312 1.409 . S
C313 H335 0.930 1_565 S
C314 O324 1.270 . S
C314 O325 1.248 . S
C315 O326 1.267 . S
C315 O327 1.278 1_545 S
O316 Pr296 2.562 . S
O316 C298 1.254 . S
O317 Pr296 2.490 . S
O317 C298 1.225 . S
O318 Pr296 2.695 . S
O318 Pr297 2.436 1_545 S
O318 C305 1.270 . S
O319 Pr296 2.512 . S
O319 C305 1.248 . S
O320 Pr297 2.438 . S
O320 C306 1.267 . S
O321 Pr296 2.437 . S
O321 C306 1.278 1_545 S
O322 Pr297 2.562 . S
O322 C307 1.254 . S
O323 Pr297 2.490 . S
O323 C307 1.225 . S
O324 Pr296 2.436 1_565 S
O324 Pr297 2.695 . S
O324 C314 1.270 . S
O325 Pr297 2.512 . S
O325 C314 1.248 . S
O326 Pr296 2.438 . S
O326 C315 1.267 . S
O327 Pr297 2.437 . S
O327 C315 1.278 1_565 S
H328 C300 0.929 . S
H329 C301 0.929 . S
H330 C303 0.908 1_565 S
H331 C304 0.930 1_565 S
H332 C309 0.929 . S
H333 C310 0.929 . S
H334 C312 0.899 1_545 S
H335 C313 0.930 1_545 S
Pr336 C338 2.880 . S
Pr336 O356 2.562 . S
Pr336 O357 2.490 . S
Pr336 O358 2.695 . S
Pr336 O359 2.512 . S
Pr336 O361 2.437 . S
Pr336 O364 2.436 . S
Pr336 O366 2.438 . S
Pr337 C347 2.880 . S
Pr337 O358 2.436 . S
Pr337 O360 2.438 . S
Pr337 O362 2.562 . S
Pr337 O363 2.490 . S
Pr337 O364 2.695 . S
Pr337 O365 2.512 . S
Pr337 O367 2.437 . S
C338 Pr336 2.880 . S
C338 C339 1.491 . S
C338 O356 1.254 . S
C338 O357 1.225 . S
C339 C338 1.491 . S
C339 C340 1.392 . S
C339 C344 1.356 . S
C340 C339 1.392 . S
C340 C341 1.368 . S
C340 H368 0.929 . S
C341 C340 1.368 . S
C341 C342 1.386 . S
C341 H369 0.929 . S
C342 C341 1.386 . S
C342 C343 1.373 . S
C343 C342 1.373 . S
C343 C344 1.409 . S
C343 H370 0.931 . S
C344 C339 1.356 . S
C344 C343 1.409 . S
C344 H371 0.930 . S
C345 O358 1.270 . S
C345 O359 1.248 . S
C346 O360 1.267 . S
C346 O361 1.278 . S
C347 Pr337 2.880 . S
C347 C348 1.491 . S
C347 O362 1.254 . S
C347 O363 1.225 . S
C348 C347 1.491 . S
C348 C349 1.392 . S
C348 C353 1.356 . S
C349 C348 1.392 . S
C349 C350 1.368 . S
C349 H372 0.929 . S
C350 C349 1.368 . S
C350 C351 1.386 . S
C350 H373 0.929 . S
C351 C350 1.386 . S
C351 C352 1.373 . S
C352 C351 1.373 . S
C352 C353 1.409 . S
C352 H374 0.931 . S
C353 C348 1.356 . S
C353 C352 1.409 . S
C353 H375 0.930 . S
C354 O364 1.270 . S
C354 O365 1.248 . S
C355 O366 1.267 . S
C355 O367 1.278 . S
O356 Pr336 2.562 . S
O356 C338 1.254 . S
O357 Pr336 2.490 . S
O357 C338 1.225 . S
O358 Pr336 2.695 . S
O358 Pr337 2.436 . S
O358 C345 1.270 . S
O359 Pr336 2.512 . S
O359 C345 1.248 . S
O360 Pr337 2.438 . S
O360 C346 1.267 . S
O361 Pr336 2.437 . S
O361 C346 1.278 . S
O362 Pr337 2.562 . S
O362 C347 1.254 . S
O363 Pr337 2.490 . S
O363 C347 1.225 . S
O364 Pr336 2.436 . S
O364 Pr337 2.695 . S
O364 C354 1.270 . S
O365 Pr337 2.512 . S
O365 C354 1.248 . S
O366 Pr336 2.438 . S
O366 C355 1.267 . S
O367 Pr337 2.437 . S
O367 C355 1.278 . S
H368 C340 0.929 . S
H369 C341 0.929 . S
H370 C343 0.931 . S
H371 C344 0.930 . S
H372 C349 0.929 . S
H373 C350 0.929 . S
H374 C352 0.931 . S
H375 C353 0.930 . S
Pr376 C378 2.880 . S
Pr376 O396 2.562 . S
Pr376 O397 2.490 . S
Pr376 O398 2.695 1_655 S
Pr376 O399 2.512 . S
Pr376 O401 2.437 . S
Pr376 O404 2.436 . S
Pr376 O406 2.438 1_655 S
Pr377 C387 2.880 . S
Pr377 O398 2.436 . S
Pr377 O400 2.438 1_455 S
Pr377 O402 2.562 . S
Pr377 O403 2.490 . S
Pr377 O404 2.695 1_455 S
Pr377 O405 2.512 . S
Pr377 O407 2.437 . S
C378 Pr376 2.880 . S
C378 C379 1.491 . S
C378 O396 1.254 . S
C378 O397 1.225 . S
C379 C378 1.491 . S
C379 C380 1.392 . S
C379 C384 1.356 . S
C380 C379 1.392 . S
C380 C381 1.368 . S
C380 H408 0.929 . S
C381 C380 1.368 . S
C381 C382 1.386 . S
C381 H409 0.929 . S
C382 C381 1.386 . S
C382 C383 1.373 . S
C383 C382 1.373 . S
C383 C384 1.409 . S
C383 H410 0.931 . S
C384 C379 1.356 . S
C384 C383 1.409 . S
C384 H411 0.930 . S
C385 O398 1.261 1_655 S
C385 O399 1.265 . S
C386 O400 1.267 . S
C386 O401 1.278 . S
C387 Pr377 2.880 . S
C387 C388 1.491 . S
C387 O402 1.254 . S
C387 O403 1.225 . S
C388 C387 1.491 . S
C388 C389 1.392 . S
C388 C393 1.356 . S
C389 C388 1.392 . S
C389 C390 1.368 . S
C389 H412 0.929 . S
C390 C389 1.368 . S
C390 C391 1.386 . S
C390 H413 0.929 . S
C391 C390 1.386 . S
C391 C392 1.373 . S
C392 C391 1.373 . S
C392 C393 1.409 . S
C392 H414 0.931 . S
C393 C388 1.356 . S
C393 C392 1.409 . S
C393 H415 0.930 . S
C394 O404 1.257 1_455 S
C394 O405 1.271 . S
C395 O406 1.267 . S
C395 O407 1.278 . S
O396 Pr376 2.562 . S
O396 C378 1.254 . S
O397 Pr376 2.490 . S
O397 C378 1.225 . S
O398 Pr376 2.695 1_455 S
O398 Pr377 2.436 . S
O398 C385 1.261 1_455 S
O399 Pr376 2.512 . S
O399 C385 1.265 . S
O400 Pr377 2.438 1_655 S
O400 C386 1.267 . S
O401 Pr376 2.437 . S
O401 C386 1.278 . S
O402 Pr377 2.562 . S
O402 C387 1.254 . S
O403 Pr377 2.490 . S
O403 C387 1.225 . S
O404 Pr376 2.436 . S
O404 Pr377 2.695 1_655 S
O404 C394 1.257 1_655 S
O405 Pr377 2.512 . S
O405 C394 1.271 . S
O406 Pr376 2.438 1_455 S
O406 C395 1.267 . S
O407 Pr377 2.437 . S
O407 C395 1.278 . S
H408 C380 0.929 . S
H409 C381 0.929 . S
H410 C383 0.931 . S
H411 C384 0.930 . S
H412 C389 0.929 . S
H413 C390 0.929 . S
H414 C392 0.931 . S
H415 C393 0.930 . S
H416 C422 0.930 . S
H417 C426 0.930 . S
H418 C431 0.929 . S
H419 C429 0.929 . S
H420 C424 0.929 . S
H421 C430 0.929 . S
C422 H416 0.930 . S
C422 C423 1.372 . S
C422 C430 1.378 . S
C423 C422 1.372 . S
C423 C431 1.427 1_565 S
C424 H420 0.929 . S
C424 C426 1.378 . S
C424 C428 1.350 . S
C425 C428 1.462 1_565 S
C425 C430 1.351 . S
C425 N433 1.426 1_565 S
C426 H417 0.930 . S
C426 C424 1.378 . S
C426 C427 1.367 . S
C427 C426 1.367 . S
C427 C429 1.433 1_545 S
C428 C424 1.350 . S
C428 C425 1.462 1_545 S
C428 N432 1.427 1_545 S
C429 H419 0.929 . S
C429 C427 1.433 1_565 S
C429 N432 1.384 . S
C430 H421 0.929 . S
C430 C422 1.378 . S
C430 C425 1.351 . S
C431 H418 0.929 . S
C431 C423 1.427 1_545 S
C431 N433 1.384 . S
N432 C428 1.427 1_565 S
N432 C429 1.384 . S
N433 C425 1.426 1_545 S
N433 C431 1.384 . S
H434 C440 0.930 . S
H435 C444 0.930 . S
H436 C449 0.929 . S
H437 C447 0.929 . S
H438 C442 0.929 . S
H439 C448 0.929 . S
C440 H434 0.930 . S
C440 C441 1.367 . S
C440 C448 1.378 . S
C441 C440 1.367 . S
C441 C449 1.433 . S
C442 H438 0.929 . S
C442 C444 1.378 . S
C442 C446 1.350 . S
C443 C446 1.463 . S
C443 C448 1.350 . S
C443 N451 1.427 . S
C444 H435 0.930 . S
C444 C442 1.378 . S
C444 C445 1.367 . S
C445 C444 1.367 . S
C445 C447 1.433 . S
C446 C442 1.350 . S
C446 C443 1.463 . S
C446 N450 1.427 . S
C447 H437 0.929 . S
C447 C445 1.433 . S
C447 N450 1.384 . S
C448 H439 0.929 . S
C448 C440 1.378 . S
C448 C443 1.350 . S
C449 H436 0.929 . S
C449 C441 1.433 . S
C449 N451 1.384 . S
N450 C446 1.427 . S
N450 C447 1.384 . S
N451 C443 1.427 . S
N451 C449 1.384 . S
H452 C458 0.930 . S
H453 C462 0.930 . S
H454 C467 0.929 . S
H455 C465 0.929 . S
H456 C460 0.929 . S
H457 C466 0.929 . S
C458 H452 0.930 . S
C458 C459 1.367 . S
C458 C466 1.378 . S
C459 C458 1.367 . S
C459 C467 1.433 . S
C460 H456 0.929 . S
C460 C462 1.378 . S
C460 C464 1.350 . S
C461 C464 1.463 . S
C461 C466 1.350 . S
C461 N469 1.427 . S
C462 H453 0.930 . S
C462 C460 1.378 . S
C462 C463 1.367 . S
C463 C462 1.367 . S
C463 C465 1.433 . S
C464 C460 1.350 . S
C464 C461 1.463 . S
C464 N468 1.427 . S
C465 H455 0.929 . S
C465 C463 1.433 . S
C465 N468 1.384 . S
C466 H457 0.929 . S
C466 C458 1.378 . S
C466 C461 1.350 . S
C467 H454 0.929 . S
C467 C459 1.433 . S
C467 N469 1.384 . S
N468 C464 1.427 . S
N468 C465 1.384 . S
N469 C461 1.427 . S
N469 C467 1.384 . S
H470 C476 0.930 . S
H471 C480 0.930 . S
H472 C485 0.929 . S
H473 C483 0.929 . S
H474 C478 0.929 . S
H475 C484 0.929 . S
C476 H470 0.930 . S
C476 C477 1.368 . S
C476 C484 1.378 . S
C477 C476 1.368 . S
C477 C485 1.432 1_655 S
C478 H474 0.929 . S
C478 C480 1.378 . S
C478 C482 1.350 . S
C479 C482 1.463 . S
C479 C484 1.348 1_455 S
C479 N487 1.429 . S
C480 H471 0.930 . S
C480 C478 1.378 . S
C480 C481 1.367 . S
C481 C480 1.367 . S
C481 C483 1.433 1_455 S
C482 C478 1.350 . S
C482 C479 1.463 . S
C482 N486 1.427 1_455 S
C483 H473 0.929 . S
C483 C481 1.433 1_655 S
C483 N486 1.384 . S
C484 H475 0.929 . S
C484 C476 1.378 . S
C484 C479 1.348 1_655 S
C485 H472 0.929 . S
C485 C477 1.432 1_455 S
C485 N487 1.384 . S
N486 C482 1.427 1_655 S
N486 C483 1.384 . S
N487 C479 1.429 . S
N487 C485 1.384 . S
H488 C494 0.930 . S
H489 C498 0.930 . S
H490 C503 0.929 . S
H491 C501 0.929 . S
H492 C496 0.929 . S
H493 C502 0.929 . S
C494 H488 0.930 . S
C494 C495 1.370 . S
C494 C502 1.378 . S
C495 C494 1.370 . S
C495 C503 1.430 1_545 S
C496 H492 0.929 . S
C496 C498 1.378 1_554 S
C496 C500 1.376 . S
C497 C500 1.461 1_545 S
C497 C502 1.348 . S
C497 N505 1.429 1_545 S
C498 H489 0.930 . S
C498 C496 1.378 1_556 S
C498 C499 1.367 . S
C499 C498 1.367 . S
C499 C501 1.433 1_565 S
C500 C496 1.376 . S
C500 C497 1.461 1_565 S
C500 N504 1.403 1_564 S
C501 H491 0.929 . S
C501 C499 1.433 1_545 S
C501 N504 1.384 . S
C502 H493 0.929 . S
C502 C494 1.378 . S
C502 C497 1.348 . S
C503 H490 0.929 . S
C503 C495 1.430 1_565 S
C503 N505 1.384 . S
N504 C500 1.403 1_546 S
N504 C501 1.384 . S
N505 C497 1.429 1_565 S
N505 C503 1.384 . S
H506 C512 0.930 . S
H507 C516 0.930 . S
H508 C521 0.929 . S
H509 C519 0.929 . S
H510 C514 0.929 . S
H511 C520 0.929 . S
C512 H506 0.930 . S
C512 C513 1.367 . S
C512 C520 1.378 . S
C513 C512 1.367 . S
C513 C521 1.433 . S
C514 H510 0.929 . S
C514 C516 1.378 1_554 S
C514 C518 1.350 . S
C515 C518 1.463 . S
C515 C520 1.350 . S
C515 N523 1.427 . S
C516 H507 0.930 . S
C516 C514 1.378 1_556 S
C516 C517 1.367 . S
C517 C516 1.367 . S
C517 C519 1.433 . S
C518 C514 1.350 . S
C518 C515 1.463 . S
C518 N522 1.427 1_554 S
C519 H509 0.929 . S
C519 C517 1.433 . S
C519 N522 1.384 . S
C520 H511 0.929 . S
C520 C512 1.378 . S
C520 C515 1.350 . S
C521 H508 0.929 . S
C521 C513 1.433 . S
C521 N523 1.384 . S
N522 C518 1.427 1_556 S
N522 C519 1.384 . S
N523 C515 1.427 . S
N523 C521 1.384 . S
H524 C530 0.930 . S
H525 C534 0.930 . S
H526 C539 0.929 . S
H527 C537 0.929 . S
H528 C532 0.929 . S
H529 C538 0.929 . S
C530 H524 0.930 . S
C530 C531 1.367 . S
C530 C538 1.378 . S
C531 C530 1.367 . S
C531 C539 1.433 . S
C532 H528 0.929 . S
C532 C534 1.378 . S
C532 C536 1.350 1_556 S
C533 C536 1.463 . S
C533 C538 1.350 . S
C533 N541 1.427 . S
C534 H525 0.930 . S
C534 C532 1.378 . S
C534 C535 1.367 . S
C535 C534 1.367 . S
C535 C537 1.433 . S
C536 C532 1.350 1_554 S
C536 C533 1.463 . S
C536 N540 1.427 . S
C537 H527 0.929 . S
C537 C535 1.433 . S
C537 N540 1.384 1_556 S
C538 H529 0.929 . S
C538 C530 1.378 . S
C538 C533 1.350 . S
C539 H526 0.929 . S
C539 C531 1.433 . S
C539 N541 1.384 . S
N540 C536 1.427 . S
N540 C537 1.384 1_554 S
N541 C533 1.427 . S
N541 C539 1.384 . S
H542 C548 0.930 . S
H543 C552 0.930 . S
H544 C557 0.929 . S
H545 C555 0.929 . S
H546 C550 0.929 1_554 S
H547 C556 0.929 . S
C548 H542 0.930 . S
C548 C549 1.368 . S
C548 C556 1.378 . S
C549 C548 1.368 . S
C549 C557 1.432 1_455 S
C550 H546 0.929 1_556 S
C550 C552 1.378 . S
C550 C554 1.350 1_556 S
C551 C554 1.463 . S
C551 C556 1.347 1_655 S
C551 N559 1.430 . S
C552 H543 0.930 . S
C552 C550 1.378 . S
C552 C553 1.367 . S
C553 C552 1.367 . S
C553 C555 1.433 1_655 S
C554 C550 1.350 1_554 S
C554 C551 1.463 . S
C554 N558 1.427 1_654 S
C555 H545 0.929 . S
C555 C553 1.433 1_455 S
C555 N558 1.384 . S
C556 H547 0.929 . S
C556 C548 1.378 . S
C556 C551 1.347 1_455 S
C557 H544 0.929 . S
C557 C549 1.432 1_655 S
C557 N559 1.384 . S
N558 C554 1.427 1_456 S
N558 C555 1.384 . S
N559 C551 1.430 . S
N559 C557 1.384 . S
H560 C566 0.930 . S
H561 C570 0.930 . S
H562 C575 0.929 . S
H563 C573 0.929 . S
H564 C568 0.929 1_455 S
H565 C574 0.929 . S
C566 H560 0.930 . S
C566 C567 1.367 1_655 S
C566 C574 1.378 . S
C567 C566 1.367 1_455 S
C567 C575 1.433 . S
C568 H564 0.929 1_655 S
C568 C570 1.378 . S
C568 C572 1.350 . S
C569 C572 1.463 . S
C569 C574 1.350 . S
C569 N577 1.427 1_655 S
C570 H561 0.930 . S
C570 C568 1.378 . S
C570 C571 1.367 . S
C571 C570 1.367 . S
C571 C573 1.433 . S
C572 C568 1.350 . S
C572 C569 1.463 . S
C572 N576 1.427 . S
C573 H563 0.929 . S
C573 C571 1.433 . S
C573 N576 1.384 . S
C574 H565 0.929 . S
C574 C566 1.378 . S
C574 C569 1.350 . S
C575 H562 0.929 . S
C575 C567 1.433 . S
C575 N577 1.384 . S
N576 C572 1.427 . S
N576 C573 1.384 . S
N577 C569 1.427 1_455 S
N577 C575 1.384 . S
H578 C584 0.930 . S
H579 C588 0.930 . S
H580 C593 0.929 . S
H581 C591 0.929 . S
H582 C586 0.929 1_545 S
H583 C592 0.929 . S
C584 H578 0.930 . S
C584 C585 1.367 1_565 S
C584 C592 1.378 . S
C585 C584 1.367 1_545 S
C585 C593 1.433 . S
C586 H582 0.929 1_565 S
C586 C588 1.378 . S
C586 C590 1.350 . S
C587 C590 1.463 . S
C587 C592 1.350 . S
C587 N595 1.427 1_565 S
C588 H579 0.930 . S
C588 C586 1.378 . S
C588 C589 1.367 . S
C589 C588 1.367 . S
C589 C591 1.433 . S
C590 C586 1.350 . S
C590 C587 1.463 . S
C590 N594 1.427 . S
C591 H581 0.929 . S
C591 C589 1.433 . S
C591 N594 1.384 . S
C592 H583 0.929 . S
C592 C584 1.378 . S
C592 C587 1.350 . S
C593 H580 0.929 . S
C593 C585 1.433 . S
C593 N595 1.384 . S
N594 C590 1.427 . S
N594 C591 1.384 . S
N595 C587 1.427 1_545 S
N595 C593 1.384 . S
H596 C602 0.930 . S
H597 C606 0.930 . S
H598 C611 0.929 . S
H599 C609 0.929 . S
H600 C604 0.929 . S
H601 C610 0.929 . S
C602 H596 0.930 . S
C602 C603 1.367 . S
C602 C610 1.378 . S
C603 C602 1.367 . S
C603 C611 1.433 . S
C604 H600 0.929 . S
C604 C606 1.378 . S
C604 C608 1.350 . S
C605 C608 1.463 . S
C605 C610 1.350 . S
C605 N613 1.427 . S
C606 H597 0.930 . S
C606 C604 1.378 . S
C606 C607 1.367 . S
C607 C606 1.367 . S
C607 C609 1.433 . S
C608 C604 1.350 . S
C608 C605 1.463 . S
C608 N612 1.427 . S
C609 H599 0.929 . S
C609 C607 1.433 . S
C609 N612 1.384 . S
C610 H601 0.929 . S
C610 C602 1.378 . S
C610 C605 1.350 . S
C611 H598 0.929 . S
C611 C603 1.433 . S
C611 N613 1.384 . S
N612 C608 1.427 . S
N612 C609 1.384 . S
N613 C605 1.427 . S
N613 C611 1.384 . S
H614 C620 0.930 . S
H615 C624 0.930 . S
H616 C629 0.929 . S
H617 C627 0.929 . S
H618 C622 0.929 . S
H619 C628 0.929 . S
C620 H614 0.930 . S
C620 C621 1.367 . S
C620 C628 1.378 . S
C621 C620 1.367 . S
C621 C629 1.433 . S
C622 H618 0.929 . S
C622 C624 1.378 . S
C622 C626 1.350 . S
C623 C626 1.463 . S
C623 C628 1.350 . S
C623 N631 1.427 . S
C624 H615 0.930 . S
C624 C622 1.378 . S
C624 C625 1.367 . S
C625 C624 1.367 . S
C625 C627 1.433 . S
C626 C622 1.350 . S
C626 C623 1.463 . S
C626 N630 1.427 . S
C627 H617 0.929 . S
C627 C625 1.433 . S
C627 N630 1.384 . S
C628 H619 0.929 . S
C628 C620 1.378 . S
C628 C623 1.350 . S
C629 H616 0.929 . S
C629 C621 1.433 . S
C629 N631 1.384 . S
N630 C626 1.427 . S
N630 C627 1.384 . S
N631 C623 1.427 . S
N631 C629 1.384 . S
H632 C638 0.930 . S
H633 C642 0.930 . S
H634 C647 0.929 . S
H635 C645 0.929 . S
H636 C640 0.929 . S
H637 C646 0.929 . S
C638 H632 0.930 . S
C638 C639 1.367 . S
C638 C646 1.378 . S
C639 C638 1.367 . S
C639 C647 1.433 1_655 S
C640 H636 0.929 . S
C640 C642 1.378 . S
C640 C644 1.350 . S
C641 C644 1.463 . S
C641 C646 1.350 1_455 S
C641 N649 1.427 . S
C642 H633 0.930 . S
C642 C640 1.378 . S
C642 C643 1.367 1_554 S
C643 C642 1.367 1_556 S
C643 C645 1.433 . S
C644 C640 1.350 . S
C644 C641 1.463 . S
C644 N648 1.427 1_554 S
C645 H635 0.929 . S
C645 C643 1.433 . S
C645 N648 1.384 . S
C646 H637 0.929 . S
C646 C638 1.378 . S
C646 C641 1.350 1_655 S
C647 H634 0.929 . S
C647 C639 1.433 1_455 S
C647 N649 1.384 . S
N648 C644 1.427 1_556 S
N648 C645 1.384 . S
N649 C641 1.427 . S
N649 C647 1.384 . S
H650 C656 0.930 . S
H651 C660 0.930 . S
H652 C665 0.929 . S
H653 C663 0.929 . S
H654 C658 0.929 . S
H655 C664 0.944 . S
C656 H650 0.930 . S
C656 C657 1.367 . S
C656 C664 1.396 . S
C657 C656 1.367 . S
C657 C665 1.433 1_565 S
C658 H654 0.929 . S
C658 C660 1.378 . S
C658 C662 1.350 . S
C659 C662 1.463 . S
C659 C664 1.319 1_545 S
C659 N667 1.427 . S
C660 H651 0.930 . S
C660 C658 1.378 . S
C660 C661 1.367 1_554 S
C661 C660 1.367 1_556 S
C661 C663 1.433 . S
C662 C658 1.350 . S
C662 C659 1.463 . S
C662 N666 1.427 1_554 S
C663 H653 0.929 . S
C663 C661 1.433 . S
C663 N666 1.384 . S
C664 H655 0.944 . S
C664 C656 1.396 . S
C664 C659 1.319 1_565 S
C665 H652 0.929 . S
C665 C657 1.433 1_545 S
C665 N667 1.384 . S
N666 C662 1.427 1_556 S
N666 C663 1.384 . S
N667 C659 1.427 . S
N667 C665 1.384 . S
H668 C674 0.930 . S
H669 C678 0.930 . S
H670 C683 0.929 . S
H671 C681 0.929 . S
H672 C676 0.929 1_556 S
H673 C682 0.929 . S
C674 H668 0.930 . S
C674 C675 1.367 . S
C674 C682 1.378 . S
C675 C674 1.367 . S
C675 C683 1.433 . S
C676 H672 0.929 1_554 S
C676 C678 1.378 1_554 S
C676 C680 1.350 . S
C677 C680 1.463 . S
C677 C682 1.350 . S
C677 N685 1.427 . S
C678 H669 0.930 . S
C678 C676 1.378 1_556 S
C678 C679 1.367 . S
C679 C678 1.367 . S
C679 C681 1.433 1_556 S
C680 C676 1.350 . S
C680 C677 1.463 . S
C680 N684 1.427 . S
C681 H671 0.929 . S
C681 C679 1.433 1_554 S
C681 N684 1.384 . S
C682 H673 0.929 . S
C682 C674 1.378 . S
C682 C677 1.350 . S
C683 H670 0.929 . S
C683 C675 1.433 . S
C683 N685 1.384 . S
N684 C680 1.427 . S
N684 C681 1.384 . S
N685 C677 1.427 . S
N685 C683 1.384 . S
H686 C692 0.930 . S
H687 C696 0.930 . S
H688 C701 0.929 . S
H689 C699 0.929 . S
H690 C694 0.929 . S
H691 C700 0.929 . S
C692 H686 0.930 . S
C692 C693 1.367 . S
C692 C700 1.378 . S
C693 C692 1.367 . S
C693 C701 1.433 . S
C694 H690 0.929 . S
C694 C696 1.378 . S
C694 C698 1.350 . S
C695 C698 1.463 . S
C695 C700 1.350 . S
C695 N703 1.427 . S
C696 H687 0.930 . S
C696 C694 1.378 . S
C696 C697 1.367 1_554 S
C697 C696 1.367 1_556 S
C697 C699 1.433 . S
C698 C694 1.350 . S
C698 C695 1.463 . S
C698 N702 1.427 . S
C699 H689 0.929 . S
C699 C697 1.433 . S
C699 N702 1.384 1_556 S
C700 H691 0.929 . S
C700 C692 1.378 . S
C700 C695 1.350 . S
C701 H688 0.929 . S
C701 C693 1.433 . S
C701 N703 1.384 . S
N702 C698 1.427 . S
N702 C699 1.384 1_554 S
N703 C695 1.427 . S
N703 C701 1.384 . S
H704 C710 0.930 . S
H705 C714 0.923 1_655 S
H706 C719 0.929 . S
H707 C717 0.929 . S
H708 C712 0.929 . S
H709 C718 0.929 . S
C710 H704 0.930 . S
C710 C711 1.367 . S
C710 C718 1.378 . S
C711 C710 1.367 . S
C711 C719 1.433 1_455 S
C712 H708 0.929 . S
C712 C714 1.376 1_655 S
C712 C716 1.350 1_655 S
C713 C716 1.463 . S
C713 C718 1.350 . S
C713 N721 1.427 1_455 S
C714 H705 0.923 1_455 S
C714 C712 1.376 1_455 S
C714 C715 1.376 . S
C715 C714 1.376 . S
C715 C717 1.433 . S
C716 C712 1.350 1_455 S
C716 C713 1.463 . S
C716 N720 1.427 . S
C717 H707 0.929 . S
C717 C715 1.433 . S
C717 N720 1.384 . S
C718 H709 0.929 . S
C718 C710 1.378 . S
C718 C713 1.350 . S
C719 H706 0.929 . S
C719 C711 1.433 1_655 S
C719 N721 1.384 . S
N720 C716 1.427 . S
N720 C717 1.384 . S
N721 C713 1.427 1_655 S
N721 C719 1.384 . S
H722 C728 0.930 . S
H723 C732 0.930 . S
H724 C737 0.929 . S
H725 C735 0.929 1_565 S
H726 C730 0.929 . S
H727 C736 0.929 . S
C728 H722 0.930 . S
C728 C729 1.367 1_565 S
C728 C736 1.378 . S
C729 C728 1.367 1_545 S
C729 C737 1.433 . S
C730 H726 0.929 . S
C730 C732 1.378 . S
C730 C734 1.350 . S
C731 C734 1.463 . S
C731 C736 1.350 1_545 S
C731 N739 1.427 . S
C732 H723 0.930 . S
C732 C730 1.378 . S
C732 C733 1.367 . S
C733 C732 1.367 . S
C733 C735 1.433 . S
C734 C730 1.350 . S
C734 C731 1.463 . S
C734 N738 1.427 . S
C735 H725 0.929 1_545 S
C735 C733 1.433 . S
C735 N738 1.384 . S
C736 H727 0.929 . S
C736 C728 1.378 . S
C736 C731 1.350 1_565 S
C737 H724 0.929 . S
C737 C729 1.433 . S
C737 N739 1.384 . S
N738 C734 1.427 . S
N738 C735 1.384 . S
N739 C731 1.427 . S
N739 C737 1.384 . S
H740 C746 0.930 . S
H741 C750 0.930 . S
H742 C755 0.929 . S
H743 C753 0.929 . S
H744 C748 0.929 . S
H745 C754 0.929 . S
C746 H740 0.930 . S
C746 C747 1.367 . S
C746 C754 1.378 . S
C747 C746 1.367 . S
C747 C755 1.433 . S
C748 H744 0.929 . S
C748 C750 1.378 . S
C748 C752 1.350 . S
C749 C752 1.463 . S
C749 C754 1.350 . S
C749 N757 1.427 . S
C750 H741 0.930 . S
C750 C748 1.378 . S
C750 C751 1.367 . S
C751 C750 1.367 . S
C751 C753 1.433 . S
C752 C748 1.350 . S
C752 C749 1.463 . S
C752 N756 1.427 . S
C753 H743 0.929 . S
C753 C751 1.433 . S
C753 N756 1.384 . S
C754 H745 0.929 . S
C754 C746 1.378 . S
C754 C749 1.350 . S
C755 H742 0.929 . S
C755 C747 1.433 . S
C755 N757 1.384 . S
N756 C752 1.427 . S
N756 C753 1.384 . S
N757 C749 1.427 . S
N757 C755 1.384 . S
H758 C764 0.930 . S
H759 C768 0.930 . S
H760 C773 0.929 . S
H761 C771 0.929 . S
H762 C766 0.929 . S
H763 C772 0.929 . S
C764 H758 0.930 . S
C764 C765 1.367 . S
C764 C772 1.378 . S
C765 C764 1.367 . S
C765 C773 1.433 . S
C766 H762 0.929 . S
C766 C768 1.378 . S
C766 C770 1.350 . S
C767 C770 1.463 . S
C767 C772 1.350 . S
C767 N775 1.427 . S
C768 H759 0.930 . S
C768 C766 1.378 . S
C768 C769 1.367 . S
C769 C768 1.367 . S
C769 C771 1.433 . S
C770 C766 1.350 . S
C770 C767 1.463 . S
C770 N774 1.427 . S
C771 H761 0.929 . S
C771 C769 1.433 . S
C771 N774 1.384 . S
C772 H763 0.929 . S
C772 C764 1.378 . S
C772 C767 1.350 . S
C773 H760 0.929 . S
C773 C765 1.433 . S
C773 N775 1.384 . S
N774 C770 1.427 . S
N774 C771 1.384 . S
N775 C767 1.427 . S
N775 C773 1.384 . S
H776 C782 0.930 . S
H777 C786 0.930 . S
H778 C791 0.929 . S
H779 C789 0.937 . S
H780 C784 0.929 . S
H781 C790 0.937 . S
C782 H776 0.930 . S
C782 C783 1.367 1_455 S
C782 C790 1.381 . S
C783 C782 1.367 1_655 S
C783 C791 1.433 . S
C784 H780 0.929 . S
C784 C786 1.378 . S
C784 C788 1.350 . S
C785 C788 1.463 . S
C785 C790 1.340 1_655 S
C785 N793 1.427 . S
C786 H777 0.930 . S
C786 C784 1.378 . S
C786 C787 1.367 . S
C787 C786 1.367 . S
C787 C789 1.433 . S
C788 C784 1.350 . S
C788 C785 1.463 . S
C788 N792 1.427 . S
C789 H779 0.937 . S
C789 C787 1.433 . S
C789 N792 1.384 . S
C790 H781 0.937 . S
C790 C782 1.381 . S
C790 C785 1.340 1_455 S
C791 H778 0.929 . S
C791 C783 1.433 . S
C791 N793 1.384 . S
N792 C788 1.427 . S
N792 C789 1.384 . S
N793 C785 1.427 . S
N793 C791 1.384 . S
H794 C800 0.930 . S
H795 C804 0.930 . S
H796 C809 0.929 . S
H797 C807 0.929 . S
H798 C802 0.920 1_545 S
H799 C808 0.929 . S
C800 H794 0.930 . S
C800 C801 1.367 . S
C800 C808 1.378 . S
C801 C800 1.367 . S
C801 C809 1.433 1_565 S
C802 H798 0.920 1_565 S
C802 C804 1.378 . S
C802 C806 1.350 . S
C803 C806 1.463 . S
C803 C808 1.350 . S
C803 N811 1.426 1_565 S
C804 H795 0.930 . S
C804 C802 1.378 . S
C804 C805 1.367 . S
C805 C804 1.367 . S
C805 C807 1.433 . S
C806 C802 1.350 . S
C806 C803 1.463 . S
C806 N810 1.427 . S
C807 H797 0.929 . S
C807 C805 1.433 . S
C807 N810 1.384 . S
C808 H799 0.929 . S
C808 C800 1.378 . S
C808 C803 1.350 . S
C809 H796 0.929 . S
C809 C801 1.433 1_545 S
C809 N811 1.384 . S
N810 C806 1.427 . S
N810 C807 1.384 . S
N811 C803 1.426 1_545 S
N811 C809 1.384 . S
H812 C818 0.930 . S
H813 C822 0.930 . S
H814 C827 0.929 . S
H815 C825 0.929 . S
H816 C820 0.929 . S
H817 C826 0.929 . S
C818 H812 0.930 . S
C818 C819 1.367 . S
C818 C826 1.378 . S
C819 C818 1.367 . S
C819 C827 1.433 . S
C820 H816 0.929 . S
C820 C822 1.378 . S
C820 C824 1.350 . S
C821 C824 1.463 . S
C821 C826 1.350 . S
C821 N829 1.427 . S
C822 H813 0.930 . S
C822 C820 1.378 . S
C822 C823 1.367 . S
C823 C822 1.367 . S
C823 C825 1.433 . S
C824 C820 1.350 . S
C824 C821 1.463 . S
C824 N828 1.427 . S
C825 H815 0.929 . S
C825 C823 1.433 . S
C825 N828 1.384 . S
C826 H817 0.929 . S
C826 C818 1.378 . S
C826 C821 1.350 . S
C827 H814 0.929 . S
C827 C819 1.433 . S
C827 N829 1.384 . S
N828 C824 1.427 . S
N828 C825 1.384 . S
N829 C821 1.427 . S
N829 C827 1.384 . S
H830 C836 0.930 . S
H831 C840 0.930 . S
H832 C845 0.929 . S
H833 C843 0.929 . S
H834 C838 0.929 . S
H835 C844 0.929 . S
C836 H830 0.930 . S
C836 C837 1.367 . S
C836 C844 1.378 . S
C837 C836 1.367 . S
C837 C845 1.433 . S
C838 H834 0.929 . S
C838 C840 1.378 . S
C838 C842 1.350 . S
C839 C842 1.463 . S
C839 C844 1.350 . S
C839 N847 1.427 . S
C840 H831 0.930 . S
C840 C838 1.378 . S
C840 C841 1.367 . S
C841 C840 1.367 . S
C841 C843 1.433 . S
C842 C838 1.350 . S
C842 C839 1.463 . S
C842 N846 1.427 . S
C843 H833 0.929 . S
C843 C841 1.433 . S
C843 N846 1.384 . S
C844 H835 0.929 . S
C844 C836 1.378 . S
C844 C839 1.350 . S
C845 H832 0.929 . S
C845 C837 1.433 . S
C845 N847 1.384 . S
N846 C842 1.427 . S
N846 C843 1.384 . S
N847 C839 1.427 . S
N847 C845 1.384 . S
C423 C215 2.008 1_565 S
C427 C265 2.174 1_545 S
C445 C305 2.184 . S
C441 C247 2.000 . S
C463 C345 2.188 . S
C459 C151 2.012 . S
C481 C385 2.179 1_455 S
C477 C183 2.015 1_655 S
C499 C274 2.176 1_565 S
C495 C87 2.004 . S
C513 C119 2.019 . S
C517 C314 2.189 . S
C531 C23 2.033 . S
C535 C354 2.191 . S
C549 C55 2.009 . S
C553 C394 2.178 1_655 S
C571 C271 0.452 . S
C567 C189 0.401 . S
C589 C311 0.454 . S
C585 C221 0.413 . S
C607 C351 0.479 . S
C603 C253 0.398 . S
C621 C157 0.389 . S
C625 C391 0.480 . S
C639 C61 0.581 1_655 S
C643 C262 0.490 . S
C661 C302 0.488 . S
C657 C93 0.568 1_565 S
C679 C342 0.483 . S
C675 C125 0.554 . S
C693 C29 0.570 . S
C697 C382 0.494 . S
C711 C177 2.515 . S
C715 C275 2.822 . S
C729 C209 2.494 . S
C733 C315 2.805 . S
C751 C355 2.793 . S
C747 C241 2.463 . S
C769 C395 2.821 . S
C765 C145 2.493 . S
C783 C49 2.545 1_655 S
C787 C266 2.835 . S
C805 C306 2.803 . S
C801 C81 2.522 1_565 S
C823 C346 2.796 . S
C819 C113 2.510 . S
C837 C17 2.527 . S
C841 C386 2.825 . S
