# Generated by pormake.
# Topology tsx, (6,3)-cn, num edge types: 1
# Building blocks:
#     Node 0, Type 0, BuildingBlock: FUNLAD_clean_sbu_0, # of connection points: 6
#     Node 1, Type 0, BuildingBlock: FUNLAD_clean_sbu_0, # of connection points: 6
#     Node 2, Type 1, BuildingBlock: KAKCAD_clean_linker_0, # of connection points: 3
#     Node 3, Type 1, BuildingBlock: KAKCAD_clean_linker_0, # of connection points: 3
#     Node 4, Type 1, BuildingBlock: KAKCAD_clean_linker_0, # of connection points: 3
#     Node 5, Type 1, BuildingBlock: KAKCAD_clean_linker_0, # of connection points: 3
#     Edge 6, Type (0, 1), BuildingBlock: OJICUG_clean_linker_0, # of connection points: 2
#     Edge 7, Type (0, 1), BuildingBlock: OJICUG_clean_linker_0, # of connection points: 2
#     Edge 8, Type (0, 1), BuildingBlock: OJICUG_clean_linker_0, # of connection points: 2
#     Edge 9, Type (0, 1), BuildingBlock: OJICUG_clean_linker_0, # of connection points: 2
#     Edge 10, Type (0, 1), BuildingBlock: OJICUG_clean_linker_0, # of connection points: 2
#     Edge 11, Type (0, 1), BuildingBlock: OJICUG_clean_linker_0, # of connection points: 2
#     Edge 12, Type (0, 1), BuildingBlock: OJICUG_clean_linker_0, # of connection points: 2
#     Edge 13, Type (0, 1), BuildingBlock: OJICUG_clean_linker_0, # of connection points: 2
#     Edge 14, Type (0, 1), BuildingBlock: OJICUG_clean_linker_0, # of connection points: 2
#     Edge 15, Type (0, 1), BuildingBlock: OJICUG_clean_linker_0, # of connection points: 2
#     Edge 16, Type (0, 1), BuildingBlock: OJICUG_clean_linker_0, # of connection points: 2
#     Edge 17, Type (0, 1), BuildingBlock: OJICUG_clean_linker_0, # of connection points: 2
# Relax obj value: 0.164
# Max RMSD: 0.154
# Mean RMSD: 0.080
data_MOF--net-tsx--node1-FUNLAD_clean_sbu_0--node2-KAKCAD_clean_linker_0--edge1-OJICUG_clean_linker_0
_symmetry_space_group_name_H-M    P1
_symmetry_Int_Tables_number       1
_symmetry_cell_setting            triclinic
loop_
_symmetry_equiv_pos_as_xyz
'x, y, z'
_cell_length_a     17.846414
_cell_length_b     20.209037
_cell_length_c     41.188837
_cell_angle_alpha  91.300061
_cell_angle_beta   91.797833
_cell_angle_gamma 89.603009
loop_
_atom_site_label
_atom_site_type_symbol
_atom_site_fract_x
_atom_site_fract_y
_atom_site_fract_z
_atom_type_partial_charge
C0 C 0.92062 0.8981 -0.00179 0.0
N1 N 0.03156 -0.00086 0.07387 0.0
C2 C 0.96458 0.0062 0.08851 0.0
C3 C 0.96127 0.00677 0.1223 0.0
C4 C 0.0274 -0.00077 0.1412 0.0
C5 C 0.09583 -0.00771 0.12553 0.0
C6 C 0.0967 -0.00724 0.09163 0.0
Zn7 Zn 0.03251 -0.00472 0.0243 0.0
C8 C 0.14092 0.89519 -0.00117 0.0
N9 N 0.03061 0.9859 0.92079 0.0
C10 C 0.96404 0.98478 0.90377 0.0
C11 C 0.0969 0.98714 0.90538 0.0
C12 C 0.09787 0.98838 0.87151 0.0
C13 C 0.02995 0.98864 0.85335 0.0
C14 C 0.96242 0.98622 0.8699 0.0
Zn15 Zn 0.03081 0.98954 0.97038 0.0
O16 O 0.94823 0.92548 0.02382 0.0
C17 C 0.92088 0.08798 -0.00607 0.0
O18 O 0.94607 0.91318 0.9708 0.0
H19 H 0.14917 0.98826 0.91939 0.0
H20 H 0.91336 0.0105 0.07397 0.0
H21 H 0.91199 0.98365 0.9165 0.0
O22 O 0.94811 0.0725 0.02169 0.0
O23 O 0.94673 0.06037 0.96869 0.0
H24 H 0.14934 0.98744 0.0795 0.0
O25 O 0.11367 0.06675 0.97132 0.0
O26 O 0.11758 0.06588 0.02464 0.0
O27 O 0.11557 0.9181 0.97223 0.0
O28 O 0.11521 0.91704 0.02552 0.0
C29 C 0.14109 0.08855 -0.00163 0.0
H30 H 0.90731 0.01144 0.13349 0.0
H31 H 0.14808 0.98686 0.13934 0.0
H32 H 0.15117 0.99088 0.85974 0.0
H33 H 0.90884 0.98545 0.8568 0.0
C34 C 0.4312 0.39361 0.49571 0.0
N35 N 0.52619 0.50199 0.57261 0.0
C36 C 0.45831 0.49918 0.58663 0.0
C37 C 0.45372 0.49665 0.6203 0.0
C38 C 0.51962 0.49652 0.63987 0.0
C39 C 0.58896 0.50046 0.62476 0.0
C40 C 0.59095 0.50325 0.59093 0.0
Zn41 Zn 0.52919 0.5005 0.5231 0.0
C42 C 0.6485 0.40994 0.49774 0.0
N43 N 0.5313 0.49416 0.41957 0.0
C44 C 0.46598 0.48541 0.40212 0.0
C45 C 0.59711 0.50392 0.4046 0.0
C46 C 0.59869 0.50612 0.37077 0.0
C47 C 0.53202 0.49763 0.35219 0.0
C48 C 0.46513 0.4867 0.36825 0.0
Zn49 Zn 0.52974 0.49583 0.46913 0.0
O50 O 0.45631 0.42171 0.52157 0.0
C51 C 0.40866 0.5841 0.49271 0.0
O52 O 0.45237 0.41363 0.46839 0.0
H53 H 0.64843 0.51055 0.41894 0.0
H54 H 0.40748 0.49808 0.57165 0.0
H55 H 0.41421 0.47824 0.4145 0.0
O56 O 0.43546 0.56825 0.52048 0.0
O57 O 0.43895 0.56105 0.46738 0.0
H58 H 0.6443 0.50536 0.57926 0.0
O59 O 0.60577 0.57856 0.47132 0.0
O60 O 0.60195 0.5806 0.52458 0.0
O61 O 0.62037 0.43007 0.47103 0.0
O62 O 0.62189 0.43127 0.52436 0.0
C63 C 0.62557 0.60468 0.49866 0.0
H64 H 0.39899 0.49483 0.63087 0.0
H65 H 0.64123 0.49979 0.63883 0.0
H66 H 0.65156 0.51397 0.35927 0.0
H67 H 0.41239 0.48065 0.3548 0.0
C68 C 0.99153 0.92406 0.29461 0.0
C69 C 0.00713 0.98501 0.28065 0.0
C70 C 0.98444 0.91968 0.32817 0.0
C71 C 0.99357 0.97605 0.34855 0.0
C72 C 0.00949 0.03698 0.33447 0.0
C73 C 0.01576 0.04146 0.30088 0.0
C74 C 0.98751 0.97112 0.38435 0.0
C75 C 0.01707 0.91593 0.40062 0.0
C76 C 0.01377 0.91177 0.43454 0.0
C77 C 0.97917 0.96285 0.45222 0.0
C78 C 0.95096 0.01895 0.4365 0.0
C79 C 0.95477 0.02257 0.40263 0.0
C80 C 0.92056 0.07581 0.4551 0.0
C81 C 0.8546 0.06995 0.47243 0.0
C82 C 0.95461 0.13787 0.45328 0.0
C83 C 0.92057 0.19411 0.46662 0.0
C84 C 0.85129 0.18948 0.48173 0.0
C85 C 0.05383 0.8574 0.4514 0.0
C86 C 0.04685 0.79196 0.43967 0.0
C87 C 0.10644 0.87179 0.47665 0.0
C88 C 0.15576 0.82271 0.4879 0.0
C89 C 0.15308 0.75848 0.47411 0.0
C90 C 0.09574 0.7429 0.45103 0.0
C91 C 0.82011 0.12645 0.48567 0.0
H92 H 0.98365 0.87993 0.2795 0.0
H93 H 0.97098 0.87219 0.33809 0.0
H94 H 0.0184 0.08115 0.34943 0.0
H95 H 0.02865 0.08891 0.29076 0.0
H96 H 0.04611 0.87756 0.38706 0.0
H97 H 0.93161 0.0656 0.39058 0.0
H98 H 0.97632 0.95941 0.47818 0.0
H99 H 0.82762 0.02235 0.47408 0.0
H100 H 0.00626 0.14315 0.44045 0.0
H101 H 0.94675 0.24175 0.46378 0.0
H102 H 0.00584 0.77943 0.42061 0.0
H103 H 0.11295 0.92195 0.48613 0.0
H104 H 0.76664 0.12123 0.49705 0.0
H105 H 0.09114 0.69343 0.44051 0.0
H106 H 0.19931 0.83632 0.50566 0.0
C107 C 0.01886 0.06999 0.69855 0.0
C108 C 0.02743 0.00813 0.71321 0.0
C109 C 0.01499 0.07453 0.66476 0.0
C110 C 0.0193 0.01729 0.64487 0.0
C111 C 0.02896 0.95552 0.65951 0.0
C112 C 0.03316 0.951 0.69332 0.0
C113 C 0.01193 0.02199 0.60901 0.0
C114 C 0.04917 0.07182 0.59274 0.0
C115 C 0.04117 0.07735 0.55881 0.0
C116 C 0.99474 0.03279 0.54128 0.0
C117 C 0.95854 0.9821 0.55715 0.0
C118 C 0.96708 0.97692 0.5909 0.0
C119 C 0.91091 0.93417 0.53898 0.0
C120 C 0.83377 0.94605 0.53539 0.0
C121 C 0.94083 0.87315 0.52865 0.0
C122 C 0.89349 0.82339 0.51603 0.0
C123 C 0.81554 0.83369 0.51436 0.0
C124 C 0.08442 0.1277 0.54179 0.0
C125 C 0.0925 0.19162 0.5554 0.0
C126 C 0.12357 0.1106 0.5136 0.0
C127 C 0.17495 0.15468 0.50109 0.0
C128 C 0.18767 0.21622 0.51665 0.0
C129 C 0.14368 0.23538 0.54298 0.0
C130 C 0.78634 0.89612 0.52319 0.0
H131 H 0.01515 0.11497 0.71323 0.0
H132 H 0.00703 0.12277 0.6542 0.0
H133 H 0.03329 0.91061 0.64481 0.0
H134 H 0.03928 0.9026 0.70389 0.0
H135 H 0.0862 0.10514 0.60646 0.0
H136 H 0.93758 0.93834 0.60307 0.0
H137 H 0.98674 0.03817 0.51545 0.0
H138 H 0.80993 -0.00712 0.54339 0.0
H139 H 1.00033 0.86316 0.53161 0.0
H140 H 0.91728 0.77554 0.50965 0.0
H141 H 0.06161 0.2068 0.57657 0.0
H142 H 0.1182 0.06168 0.50249 0.0
H143 H 0.72644 0.90525 0.52201 0.0
H144 H 0.1518 0.28313 0.55504 0.0
H145 H 0.20832 0.13892 0.48077 0.0
C146 C 0.48845 0.41415 0.79375 0.0
C147 C 0.50245 0.47543 0.77968 0.0
C148 C 0.48256 0.40943 0.82735 0.0
C149 C 0.49085 0.46583 0.84772 0.0
C150 C 0.50533 0.52703 0.83368 0.0
C151 C 0.51089 0.5318 0.80006 0.0
C152 C 0.4848 0.4607 0.88348 0.0
C153 C 0.51704 0.40675 0.89986 0.0
C154 C 0.51314 0.40226 0.93378 0.0
C155 C 0.47497 0.45151 0.95121 0.0
C156 C 0.44431 0.5064 0.93537 0.0
C157 C 0.44896 0.51069 0.90159 0.0
C158 C 0.41094 0.5616 0.95396 0.0
C159 C 0.34013 0.55531 0.96727 0.0
C160 C 0.44788 0.62258 0.9563 0.0
C161 C 0.41264 0.6777 0.97018 0.0
C162 C 0.3396 0.67278 0.98171 0.0
C163 C 0.55596 0.34994 0.951 0.0
C164 C 0.55565 0.2847 0.93866 0.0
C165 C 0.60464 0.36662 0.97743 0.0
C166 C 0.65714 0.32053 0.98911 0.0
C167 C 0.66152 0.25718 0.97455 0.0
C168 C 0.60774 0.23869 0.95041 0.0
C169 C 0.30471 0.61053 0.9812 0.0
H170 H 0.48259 0.36956 0.77882 0.0
H171 H 0.47075 0.36163 0.83734 0.0
H172 H 0.51311 0.5713 0.84868 0.0
H173 H 0.5209 0.5799 0.79003 0.0
H174 H 0.54846 0.36982 0.88638 0.0
H175 H 0.42413 0.55298 0.88949 0.0
H176 H 0.47118 0.44768 0.97712 0.0
H177 H 0.31079 0.50857 0.96542 0.0
H178 H 0.50299 0.628 0.9464 0.0
H179 H 0.44116 0.72487 0.97062 0.0
H180 H 0.51761 0.27021 0.91878 0.0
H181 H 0.60594 0.41663 0.98748 0.0
H182 H 0.24819 0.60542 0.98961 0.0
H183 H 0.60873 0.18959 0.93929 0.0
H184 H 0.6978 0.3361 0.00776 0.0
C185 C 0.51328 0.57402 0.197 0.0
C186 C 0.52636 0.51306 0.21199 0.0
C187 C 0.50771 0.57747 0.16315 0.0
C188 C 0.51552 0.52006 0.14358 0.0
C189 C 0.53028 0.45937 0.15865 0.0
C190 C 0.53534 0.45588 0.19245 0.0
C191 C 0.50709 0.52302 0.10761 0.0
C192 C 0.53754 0.57559 0.09069 0.0
C193 C 0.53111 0.57751 0.05659 0.0
C194 C 0.4925 0.52692 0.03946 0.0
C195 C 0.46255 0.47387 0.05602 0.0
C196 C 0.46976 0.47228 0.08994 0.0
C197 C 0.42549 0.41826 0.0384 0.0
C198 C 0.35353 0.42604 0.02433 0.0
C199 C 0.45916 0.35538 0.03855 0.0
C200 C 0.41982 0.30029 0.02634 0.0
C201 C 0.34599 0.30719 0.0139 0.0
C202 C 0.57052 0.62951 0.03909 0.0
C203 C 0.56633 0.69573 0.04983 0.0
C204 C 0.61945 0.61225 0.0141 0.0
C205 C 0.66861 0.65919 0.00239 0.0
C206 C 0.66918 0.72405 0.01542 0.0
C207 C 0.61484 0.74261 0.03797 0.0
C208 C 0.31415 0.3709 0.01193 0.0
H209 H 0.50542 0.61881 0.21148 0.0
H210 H 0.49553 0.62487 0.15234 0.0
H211 H 0.53831 0.41443 0.14432 0.0
H212 H 0.54674 0.40841 0.20333 0.0
H213 H 0.5692 0.61358 0.10395 0.0
H214 H 0.44538 0.43152 0.10253 0.0
H215 H 0.48726 0.52869 0.01337 0.0
H216 H 0.3264 0.47413 0.02454 0.0
H217 H 0.51486 0.3486 0.04924 0.0
H218 H 0.44591 0.25186 0.02787 0.0
H219 H 0.52795 0.71056 0.06856 0.0
H220 H 0.62356 0.56146 0.0053 0.0
H221 H 0.25708 0.37755 0.00279 0.0
H222 H 0.61273 0.7927 0.04786 0.0
H223 H 0.70974 0.64344 0.98499 0.0
C224 C 0.24664 0.14643 0.02753 0.0
C225 C 0.19861 0.14085 -4e-05 0.0
H226 H 0.3312 0.20284 0.05317 0.0
C227 C 0.20307 0.18798 0.97552 0.0
H228 H 0.24467 0.11071 0.04671 0.0
C229 C 0.25236 0.24156 0.97944 0.0
C230 C 0.29905 0.24778 0.00747 0.0
H231 H 0.16643 0.18491 0.95408 0.0
H232 H 0.25324 0.2786 0.96085 0.0
C233 C 0.29662 0.19895 0.03113 0.0
C234 C 0.24673 0.83937 0.97153 0.0
C235 C 0.19854 0.84259 -0.00219 0.0
H236 H 0.32939 0.78365 0.94622 0.0
C237 C 0.20191 0.79233 0.02084 0.0
H238 H 0.24551 0.87759 0.95348 0.0
C239 C 0.24978 0.73769 0.01646 0.0
C240 C 0.296 0.73352 0.98942 0.0
H241 H 0.16505 0.79363 0.04124 0.0
H242 H 0.24945 0.69805 0.03372 0.0
C243 C 0.29522 0.78576 0.9675 0.0
C244 C 0.8285 0.84267 0.0323 0.0
C245 C 0.85705 0.85212 0.00132 0.0
H246 H 0.748 0.7953 0.06075 0.0
C247 C 0.82281 0.81913 0.97437 0.0
H248 H 0.85324 0.867 0.05372 0.0
C249 C 0.76119 0.77751 0.97854 0.0
C250 C 0.73248 0.76915 0.00963 0.0
H251 H 0.84344 0.82552 0.95019 0.0
H252 H 0.73562 0.75245 0.95752 0.0
C253 C 0.76729 0.80196 0.03636 0.0
C254 C 0.82797 0.14679 0.9587 0.0
C255 C 0.85657 0.13405 -0.00986 0.0
H256 H 0.74485 0.19525 0.92943 0.0
C257 C 0.82072 0.16282 0.01698 0.0
H258 H 0.85411 0.12584 0.93738 0.0
C259 C 0.75695 0.20301 0.01228 0.0
C260 C 0.72781 0.21415 0.98071 0.0
H261 H 0.84136 0.15375 0.0415 0.0
H262 H 0.72985 0.2245 0.03322 0.0
C263 C 0.76459 0.18613 0.95408 0.0
C264 C 0.66528 0.70811 0.52768 0.0
C265 C 0.67253 0.66452 0.50092 0.0
H266 H 0.70404 0.79598 0.55241 0.0
C267 C 0.72529 0.67836 0.4774 0.0
H268 H 0.62475 0.69898 0.54609 0.0
C269 C 0.77177 0.73391 0.48131 0.0
C270 C 0.76438 0.77715 0.50828 0.0
H271 H 0.73198 0.64539 0.45657 0.0
H272 H 0.8135 0.74302 0.46343 0.0
C273 C 0.71019 0.764 0.53117 0.0
C274 C 0.75267 0.35338 0.46941 0.0
C275 C 0.70833 0.35907 0.49689 0.0
H276 H 0.83226 0.29586 0.44328 0.0
C277 C 0.71642 0.31165 0.52123 0.0
H278 H 0.74775 0.38922 0.45027 0.0
C279 C 0.76495 0.25733 0.51711 0.0
C280 C 0.80702 0.2504 0.48887 0.0
H281 H 0.68255 0.3147 0.54259 0.0
H282 H 0.76823 0.22001 0.53557 0.0
C283 C 0.80158 0.29998 0.46552 0.0
C284 C 0.32628 0.32164 0.47256 0.0
C285 C 0.37449 0.34131 0.49865 0.0
H286 H 0.22796 0.26587 0.45777 0.0
C287 C 0.36383 0.31507 0.52947 0.0
H288 H 0.33322 0.34113 0.44857 0.0
C289 C 0.30413 0.27341 0.53466 0.0
C290 C 0.25354 0.25641 0.5092 0.0
H291 H 0.40045 0.32828 0.55005 0.0
H292 H 0.2967 0.25525 0.5589 0.0
C293 C 0.26611 0.27903 0.47781 0.0
C294 C 0.31061 0.66081 0.51584 0.0
C295 C 0.34185 0.62743 0.4891 0.0
H296 H 0.22553 0.72844 0.53222 0.0
C297 C 0.30857 0.63556 0.45806 0.0
H298 H 0.3349 0.65534 0.54006 0.0
C299 C 0.24637 0.6766 0.45366 0.0
C300 C 0.21551 0.7109 0.48014 0.0
H301 H 0.33086 0.61052 0.43689 0.0
H302 H 0.22379 0.68293 0.4292 0.0
C303 C 0.24815 0.70259 0.51135 0.0
C304 C 0.98141 0.04361 0.1943 0.0
C305 C 0.02444 -0.00296 0.17705 0.0
H306 H 0.94249 0.07637 0.24068 0.0
C307 C 0.06286 0.9472 0.19415 0.0
H308 H 0.95159 0.08276 0.18171 0.0
C309 C 0.05731 0.94332 0.22782 0.0
C310 C 0.01399 0.9897 0.24504 0.0
H311 H 0.09594 0.91037 0.18141 0.0
H312 H 0.08716 0.9042 0.24042 0.0
C313 C 0.9766 0.04022 0.228 0.0
C314 C 0.0806 0.95635 0.79896 0.0
C315 C 0.0294 -0.00682 0.81743 0.0
H316 H 0.12044 0.93242 0.75156 0.0
C317 C 0.97792 0.03509 0.80137 0.0
H318 H 0.12061 0.92329 0.81062 0.0
C319 C 0.97761 0.04008 0.76762 0.0
C320 C 0.02862 0.00315 0.74912 0.0
H321 H 0.93834 0.0647 0.81493 0.0
H322 H 0.93675 0.07235 0.75596 0.0
C323 C 0.08007 0.96113 0.76514 0.0
C324 C 0.46287 0.44938 0.68925 0.0
C325 C 0.5158 0.49104 0.67571 0.0
H326 H 0.41631 0.41264 0.73244 0.0
C327 C 0.56481 0.5272 0.69666 0.0
H328 H 0.42496 0.42005 0.67386 0.0
C329 C 0.56075 0.52198 0.73035 0.0
C330 C 0.50746 0.4806 0.74386 0.0
H331 H 0.60581 0.56019 0.68707 0.0
H332 H 0.59984 0.54999 0.74578 0.0
C333 C 0.4586 0.44438 0.72289 0.0
C334 C 0.57104 0.55118 0.30107 0.0
C335 C 0.53191 0.50093 0.31626 0.0
H336 H 0.5999 0.59447 0.25615 0.0
C337 C 0.4917 0.45441 0.29692 0.0
H338 H 0.602 0.58805 0.31539 0.0
C339 C 0.4905 0.4581 0.26309 0.0
C340 C 0.529 0.5087 0.2479 0.0
H341 H 0.4615 0.41486 0.30794 0.0
H342 H 0.45844 0.42189 0.24882 0.0
C343 C 0.56929 0.55523 0.26722 0.0
loop_
_geom_bond_atom_site_label_1
_geom_bond_atom_site_label_2
_geom_bond_distance
_geom_bond_site_symmetry_2
_ccdc_geom_bond_type
C0 O16 1.251 . S
C0 O18 1.254 1_554 S
N1 C2 1.333 1_445 S
N1 C6 1.307 . S
N1 Zn7 2.020 . S
C2 N1 1.333 1_665 S
C2 C3 1.379 . S
C2 H20 0.952 . S
C3 C2 1.379 . S
C3 C4 1.390 1_665 S
C3 H30 0.949 . S
C4 C3 1.390 1_445 S
C4 C5 1.357 . S
C5 C4 1.357 . S
C5 C6 1.370 . S
C5 H31 0.950 . S
C6 N1 1.307 . S
C6 C5 1.370 . S
C6 H24 0.948 . S
Zn7 N1 2.020 . S
Zn7 O16 2.039 1_445 S
Zn7 O22 2.034 1_455 S
Zn7 O26 2.025 . S
Zn7 O28 2.024 1_545 S
C8 O27 1.246 1_554 S
C8 O28 1.249 . S
N9 C10 1.307 1_445 S
N9 C11 1.333 . S
N9 Zn15 2.020 . S
C10 N9 1.307 1_665 S
C10 C14 1.370 . S
C10 H21 0.948 . S
C11 N9 1.333 . S
C11 C12 1.379 . S
C11 H19 0.952 . S
C12 C11 1.379 . S
C12 C13 1.390 . S
C12 H32 0.949 . S
C13 C12 1.390 . S
C13 C14 1.357 1_445 S
C14 C10 1.370 . S
C14 C13 1.357 1_665 S
C14 H33 0.950 . S
Zn15 N9 2.020 . S
Zn15 O18 2.025 1_445 S
Zn15 O23 2.024 1_455 S
Zn15 O25 2.039 . S
Zn15 O27 2.034 1_545 S
O16 C0 1.251 . S
O16 Zn7 2.039 1_665 S
C17 O22 1.246 . S
C17 O23 1.249 1_554 S
O18 C0 1.254 1_556 S
O18 Zn15 2.025 1_665 S
H19 C11 0.952 . S
H20 C2 0.952 . S
H21 C10 0.948 . S
O22 Zn7 2.034 1_655 S
O22 C17 1.246 . S
O23 Zn15 2.024 1_655 S
O23 C17 1.249 1_556 S
H24 C6 0.948 . S
O25 Zn15 2.039 . S
O25 C29 1.251 1_556 S
O26 Zn7 2.025 . S
O26 C29 1.254 . S
O27 C8 1.246 1_556 S
O27 Zn15 2.034 1_565 S
O28 Zn7 2.024 1_565 S
O28 C8 1.249 . S
C29 O25 1.251 1_554 S
C29 O26 1.254 . S
H30 C3 0.949 . S
H31 C5 0.950 . S
H32 C12 0.949 . S
H33 C14 0.950 . S
C34 O50 1.251 . S
C34 O52 1.254 . S
N35 C36 1.333 . S
N35 C40 1.307 . S
N35 Zn41 2.020 . S
C36 N35 1.333 . S
C36 C37 1.379 . S
C36 H54 0.952 . S
C37 C36 1.379 . S
C37 C38 1.390 . S
C37 H64 0.949 . S
C38 C37 1.390 . S
C38 C39 1.357 . S
C39 C38 1.357 . S
C39 C40 1.370 . S
C39 H65 0.950 . S
C40 N35 1.307 . S
C40 C39 1.370 . S
C40 H58 0.948 . S
Zn41 N35 2.020 . S
Zn41 O50 2.039 . S
Zn41 O56 2.034 . S
Zn41 O60 2.025 . S
Zn41 O62 2.024 . S
C42 O61 1.246 . S
C42 O62 1.249 . S
N43 C44 1.307 . S
N43 C45 1.333 . S
N43 Zn49 2.020 . S
C44 N43 1.307 . S
C44 C48 1.370 . S
C44 H55 0.948 . S
C45 N43 1.333 . S
C45 C46 1.379 . S
C45 H53 0.952 . S
C46 C45 1.379 . S
C46 C47 1.390 . S
C46 H66 0.949 . S
C47 C46 1.390 . S
C47 C48 1.357 . S
C48 C44 1.370 . S
C48 C47 1.357 . S
C48 H67 0.950 . S
Zn49 N43 2.020 . S
Zn49 O52 2.025 . S
Zn49 O57 2.024 . S
Zn49 O59 2.039 . S
Zn49 O61 2.034 . S
O50 C34 1.251 . S
O50 Zn41 2.039 . S
C51 O56 1.246 . S
C51 O57 1.249 . S
O52 C34 1.254 . S
O52 Zn49 2.025 . S
H53 C45 0.952 . S
H54 C36 0.952 . S
H55 C44 0.948 . S
O56 Zn41 2.034 . S
O56 C51 1.246 . S
O57 Zn49 2.024 . S
O57 C51 1.249 . S
H58 C40 0.948 . S
O59 Zn49 2.039 . S
O59 C63 1.251 . S
O60 Zn41 2.025 . S
O60 C63 1.254 . S
O61 C42 1.246 . S
O61 Zn49 2.034 . S
O62 Zn41 2.024 . S
O62 C42 1.249 . S
C63 O59 1.251 . S
C63 O60 1.254 . S
H64 C37 0.949 . S
H65 C39 0.950 . S
H66 C46 0.949 . S
H67 C48 0.950 . S
C68 C69 1.386 1_565 S
C68 C70 1.397 . S
C68 H92 0.931 . S
C69 C68 1.386 1_545 S
C69 C73 1.397 1_655 S
C70 C68 1.397 . S
C70 C71 1.384 1_655 S
C70 H93 0.930 . S
C71 C70 1.384 1_455 S
C71 C72 1.377 1_565 S
C71 C74 1.481 . S
C72 C71 1.377 1_545 S
C72 C73 1.389 . S
C72 H94 0.929 . S
C73 C69 1.397 1_455 S
C73 C72 1.389 . S
C73 H95 0.931 . S
C74 C71 1.481 . S
C74 C75 1.388 . S
C74 C79 1.389 1_465 S
C75 C74 1.388 . S
C75 C76 1.401 . S
C75 H96 0.930 . S
C76 C75 1.401 . S
C76 C77 1.369 1_455 S
C76 C85 1.511 . S
C77 C76 1.369 1_655 S
C77 C78 1.399 1_565 S
C77 H98 0.932 . S
C78 C77 1.399 1_545 S
C78 C79 1.361 . S
C78 C80 1.500 . S
C79 C74 1.389 1_645 S
C79 C78 1.361 . S
C79 H97 0.931 . S
C80 C78 1.500 . S
C80 C81 1.371 . S
C80 C82 1.365 . S
C81 C80 1.371 . S
C81 C91 1.386 . S
C81 H99 0.931 . S
C82 C80 1.365 . S
C82 C83 1.409 . S
C82 H100 0.929 . S
C83 C82 1.409 . S
C83 C84 1.380 . S
C83 H101 0.930 . S
C84 C83 1.380 . S
C84 C91 1.357 . S
C85 C76 1.511 . S
C85 C86 1.341 . S
C85 C87 1.371 . S
C86 C85 1.341 . S
C86 C90 1.394 . S
C86 H102 0.930 . S
C87 C85 1.371 . S
C87 C88 1.392 . S
C87 H103 0.931 . S
C88 C87 1.392 . S
C88 C89 1.331 . S
C88 H106 0.932 . S
C89 C88 1.331 . S
C89 C90 1.336 . S
C90 C86 1.394 . S
C90 C89 1.336 . S
C90 H105 0.929 . S
C91 C81 1.386 . S
C91 C84 1.357 . S
C91 H104 0.928 . S
H92 C68 0.931 . S
H93 C70 0.930 . S
H94 C72 0.929 . S
H95 C73 0.931 . S
H96 C75 0.930 . S
H97 C79 0.931 . S
H98 C77 0.932 . S
H99 C81 0.931 . S
H100 C82 0.929 . S
H101 C83 0.930 . S
H102 C86 0.930 . S
H103 C87 0.931 . S
H104 C91 0.928 . S
H105 C90 0.929 . S
H106 C88 0.932 . S
C107 C108 1.386 . S
C107 C109 1.397 . S
C107 H131 0.931 . S
C108 C107 1.386 . S
C108 C112 1.397 1_545 S
C109 C107 1.397 . S
C109 C110 1.384 . S
C109 H132 0.930 . S
C110 C109 1.384 . S
C110 C111 1.377 1_545 S
C110 C113 1.481 . S
C111 C110 1.377 1_565 S
C111 C112 1.389 . S
C111 H133 0.929 . S
C112 C108 1.397 1_565 S
C112 C111 1.389 . S
C112 H134 0.931 . S
C113 C110 1.481 . S
C113 C114 1.387 . S
C113 C118 1.390 1_445 S
C114 C113 1.387 . S
C114 C115 1.401 . S
C114 H135 0.930 . S
C115 C114 1.401 . S
C115 C116 1.376 . S
C115 C124 1.511 . S
C116 C115 1.376 . S
C116 C117 1.392 1_445 S
C116 H137 0.931 . S
C117 C116 1.392 1_665 S
C117 C118 1.361 . S
C117 C119 1.500 . S
C118 C113 1.390 1_665 S
C118 C117 1.361 . S
C118 H136 0.931 . S
C119 C117 1.500 . S
C119 C120 1.371 . S
C119 C121 1.365 . S
C120 C119 1.371 . S
C120 C130 1.386 . S
C120 H138 0.931 . S
C121 C119 1.365 . S
C121 C122 1.409 . S
C121 H139 0.929 . S
C122 C121 1.409 . S
C122 C123 1.380 . S
C122 H140 0.930 . S
C123 C122 1.380 . S
C123 C130 1.357 . S
C124 C115 1.511 . S
C124 C125 1.341 . S
C124 C126 1.371 . S
C125 C124 1.341 . S
C125 C129 1.394 . S
C125 H141 0.930 . S
C126 C124 1.371 . S
C126 C127 1.392 . S
C126 H142 0.931 . S
C127 C126 1.392 . S
C127 C128 1.331 . S
C127 H145 0.932 . S
C128 C127 1.331 . S
C128 C129 1.336 . S
C129 C125 1.394 . S
C129 C128 1.336 . S
C129 H144 0.929 . S
C130 C120 1.386 . S
C130 C123 1.357 . S
C130 H143 0.928 . S
H131 C107 0.931 . S
H132 C109 0.930 . S
H133 C111 0.929 . S
H134 C112 0.931 . S
H135 C114 0.930 . S
H136 C118 0.931 . S
H137 C116 0.931 . S
H138 C120 0.931 . S
H139 C121 0.929 . S
H140 C122 0.930 . S
H141 C125 0.930 . S
H142 C126 0.931 . S
H143 C130 0.928 . S
H144 C129 0.929 . S
H145 C127 0.932 . S
C146 C147 1.386 . S
C146 C148 1.397 . S
C146 H170 0.931 . S
C147 C146 1.386 . S
C147 C151 1.397 . S
C148 C146 1.397 . S
C148 C149 1.384 . S
C148 H171 0.930 . S
C149 C148 1.384 . S
C149 C150 1.377 . S
C149 C152 1.481 . S
C150 C149 1.377 . S
C150 C151 1.389 . S
C150 H172 0.929 . S
C151 C147 1.397 . S
C151 C150 1.389 . S
C151 H173 0.931 . S
C152 C149 1.481 . S
C152 C153 1.387 . S
C152 C157 1.390 . S
C153 C152 1.387 . S
C153 C154 1.401 . S
C153 H174 0.930 . S
C154 C153 1.401 . S
C154 C155 1.376 . S
C154 C163 1.511 . S
C155 C154 1.376 . S
C155 C156 1.392 . S
C155 H176 0.931 1_556 S
C156 C155 1.392 . S
C156 C157 1.361 . S
C156 C158 1.500 . S
C157 C152 1.390 . S
C157 C156 1.361 . S
C157 H175 0.931 . S
C158 C156 1.500 . S
C158 C159 1.371 1_556 S
C158 C160 1.365 . S
C159 C158 1.371 1_554 S
C159 C169 1.386 . S
C159 H177 0.931 . S
C160 C158 1.365 . S
C160 C161 1.409 . S
C160 H178 0.929 . S
C161 C160 1.409 . S
C161 C162 1.380 1_556 S
C161 H179 0.930 . S
C162 C161 1.380 1_554 S
C162 C169 1.357 . S
C163 C154 1.511 . S
C163 C164 1.341 . S
C163 C165 1.371 1_556 S
C164 C163 1.341 . S
C164 C168 1.394 . S
C164 H180 0.930 . S
C165 C163 1.371 1_554 S
C165 C166 1.392 . S
C165 H181 0.931 . S
C166 C165 1.392 . S
C166 C167 1.331 . S
C166 H184 0.932 . S
C167 C166 1.331 . S
C167 C168 1.336 1_554 S
C168 C164 1.394 . S
C168 C167 1.336 1_556 S
C168 H183 0.929 . S
C169 C159 1.386 . S
C169 C162 1.357 . S
C169 H182 0.928 . S
H170 C146 0.931 . S
H171 C148 0.930 . S
H172 C150 0.929 . S
H173 C151 0.931 . S
H174 C153 0.930 . S
H175 C157 0.931 . S
H176 C155 0.931 1_554 S
H177 C159 0.931 . S
H178 C160 0.929 . S
H179 C161 0.930 . S
H180 C164 0.930 . S
H181 C165 0.931 . S
H182 C169 0.928 . S
H183 C168 0.929 . S
H184 C166 0.932 . S
C185 C186 1.386 . S
C185 C187 1.397 . S
C185 H209 0.931 . S
C186 C185 1.386 . S
C186 C190 1.397 . S
C187 C185 1.397 . S
C187 C188 1.384 . S
C187 H210 0.930 . S
C188 C187 1.384 . S
C188 C189 1.377 . S
C188 C191 1.481 . S
C189 C188 1.377 . S
C189 C190 1.389 . S
C189 H211 0.929 . S
C190 C186 1.397 . S
C190 C189 1.389 . S
C190 H212 0.931 . S
C191 C188 1.481 . S
C191 C192 1.387 . S
C191 C196 1.390 . S
C192 C191 1.387 . S
C192 C193 1.401 . S
C192 H213 0.930 . S
C193 C192 1.401 . S
C193 C194 1.376 . S
C193 C202 1.511 . S
C194 C193 1.376 . S
C194 C195 1.392 . S
C194 H215 0.931 . S
C195 C194 1.392 . S
C195 C196 1.361 . S
C195 C197 1.500 . S
C196 C191 1.390 . S
C196 C195 1.361 . S
C196 H214 0.931 . S
C197 C195 1.500 . S
C197 C198 1.371 . S
C197 C199 1.365 . S
C198 C197 1.371 . S
C198 C208 1.386 1_554 S
C198 H216 0.931 1_554 S
C199 C197 1.365 . S
C199 C200 1.409 . S
C199 H217 0.929 . S
C200 C199 1.409 . S
C200 C201 1.380 1_554 S
C200 H218 0.930 . S
C201 C200 1.380 1_556 S
C201 C208 1.357 . S
C202 C193 1.511 . S
C202 C203 1.341 . S
C202 C204 1.371 . S
C203 C202 1.341 . S
C203 C207 1.394 . S
C203 H219 0.930 . S
C204 C202 1.371 . S
C204 C205 1.392 1_554 S
C204 H220 0.931 1_554 S
C205 C204 1.392 1_556 S
C205 C206 1.319 1_556 S
C205 H223 0.932 . S
C206 C205 1.319 1_554 S
C206 C207 1.361 . S
C207 C203 1.394 . S
C207 C206 1.361 . S
C207 H222 0.929 . S
C208 C198 1.386 1_556 S
C208 C201 1.357 . S
C208 H221 0.928 . S
H209 C185 0.931 . S
H210 C187 0.930 . S
H211 C189 0.929 . S
H212 C190 0.931 . S
H213 C192 0.930 . S
H214 C196 0.931 . S
H215 C194 0.931 . S
H216 C198 0.931 1_556 S
H217 C199 0.929 . S
H218 C200 0.930 . S
H219 C203 0.930 . S
H220 C204 0.931 1_556 S
H221 C208 0.928 . S
H222 C207 0.929 . S
H223 C205 0.932 . S
C224 C225 1.387 . S
C224 H228 0.950 . S
C224 C233 1.390 . S
C225 C224 1.387 . S
C225 C227 1.387 1_554 S
H226 C233 0.950 . S
C227 C225 1.387 1_556 S
C227 C229 1.390 . S
C227 H231 0.950 . S
H228 C224 0.950 . S
C229 C227 1.390 . S
C229 C230 1.387 . S
C229 H232 0.950 . S
C230 C229 1.387 . S
C230 C233 1.387 1_556 S
H231 C227 0.950 . S
H232 C229 0.950 . S
C233 C224 1.390 . S
C233 H226 0.950 . S
C233 C230 1.387 1_554 S
C234 C235 1.387 1_556 S
C234 H238 0.950 . S
C234 C243 1.390 . S
C235 C234 1.387 1_554 S
C235 C237 1.387 . S
H236 C243 0.950 . S
C237 C235 1.387 . S
C237 C239 1.390 . S
C237 H241 0.950 . S
H238 C234 0.950 . S
C239 C237 1.390 . S
C239 C240 1.387 . S
C239 H242 0.950 . S
C240 C239 1.387 . S
C240 C243 1.387 1_554 S
H241 C237 0.950 . S
H242 C239 0.950 . S
C243 C234 1.390 . S
C243 H236 0.950 . S
C243 C240 1.387 1_556 S
C244 C245 1.387 . S
C244 H248 0.950 . S
C244 C253 1.390 . S
C245 C244 1.387 . S
C245 C247 1.387 1_554 S
H246 C253 0.950 . S
C247 C245 1.387 1_556 S
C247 C249 1.390 . S
C247 H251 0.950 . S
H248 C244 0.950 . S
C249 C247 1.390 . S
C249 C250 1.387 . S
C249 H252 0.950 . S
C250 C249 1.387 . S
C250 C253 1.387 1_556 S
H251 C247 0.950 . S
H252 C249 0.950 . S
C253 C244 1.390 . S
C253 H246 0.950 . S
C253 C250 1.387 1_554 S
C254 C255 1.387 1_556 S
C254 H258 0.950 . S
C254 C263 1.390 . S
C255 C254 1.387 1_554 S
C255 C257 1.387 . S
H256 C263 0.950 . S
C257 C255 1.387 . S
C257 C259 1.390 . S
C257 H261 0.950 . S
H258 C254 0.950 . S
C259 C257 1.390 . S
C259 C260 1.387 . S
C259 H262 0.950 . S
C260 C259 1.387 . S
C260 C263 1.387 1_554 S
H261 C257 0.950 . S
H262 C259 0.950 . S
C263 C254 1.390 . S
C263 H256 0.950 . S
C263 C260 1.387 1_556 S
C264 C265 1.387 . S
C264 H268 0.950 . S
C264 C273 1.390 . S
C265 C264 1.387 . S
C265 C267 1.387 . S
H266 C273 0.950 . S
C267 C265 1.387 . S
C267 C269 1.390 . S
C267 H271 0.950 . S
H268 C264 0.950 . S
C269 C267 1.390 . S
C269 C270 1.387 . S
C269 H272 0.950 . S
C270 C269 1.387 . S
C270 C273 1.387 . S
H271 C267 0.950 . S
H272 C269 0.950 . S
C273 C264 1.390 . S
C273 H266 0.950 . S
C273 C270 1.387 . S
C274 C275 1.387 . S
C274 H278 0.950 . S
C274 C283 1.390 . S
C275 C274 1.387 . S
C275 C277 1.387 . S
H276 C283 0.950 . S
C277 C275 1.387 . S
C277 C279 1.390 . S
C277 H281 0.950 . S
H278 C274 0.950 . S
C279 C277 1.390 . S
C279 C280 1.387 . S
C279 H282 0.950 . S
C280 C279 1.387 . S
C280 C283 1.387 . S
H281 C277 0.950 . S
H282 C279 0.950 . S
C283 C274 1.390 . S
C283 H276 0.950 . S
C283 C280 1.387 . S
C284 C285 1.387 . S
C284 H288 0.950 . S
C284 C293 1.390 . S
C285 C284 1.387 . S
C285 C287 1.387 . S
H286 C293 0.950 . S
C287 C285 1.387 . S
C287 C289 1.390 . S
C287 H291 0.950 . S
H288 C284 0.950 . S
C289 C287 1.390 . S
C289 C290 1.387 . S
C289 H292 0.950 . S
C290 C289 1.387 . S
C290 C293 1.387 . S
H291 C287 0.950 . S
H292 C289 0.950 . S
C293 C284 1.390 . S
C293 H286 0.950 . S
C293 C290 1.387 . S
C294 C295 1.387 . S
C294 H298 0.950 . S
C294 C303 1.390 . S
C295 C294 1.387 . S
C295 C297 1.387 . S
H296 C303 0.950 . S
C297 C295 1.387 . S
C297 C299 1.390 . S
C297 H301 0.950 . S
H298 C294 0.950 . S
C299 C297 1.390 . S
C299 C300 1.387 . S
C299 H302 0.950 . S
C300 C299 1.387 . S
C300 C303 1.387 . S
H301 C297 0.950 . S
H302 C299 0.950 . S
C303 C294 1.390 . S
C303 H296 0.950 . S
C303 C300 1.387 . S
C304 C305 1.387 1_655 S
C304 H308 0.950 . S
C304 C313 1.390 . S
C305 C304 1.387 1_455 S
C305 C307 1.387 1_545 S
H306 C313 0.950 . S
C307 C305 1.387 1_565 S
C307 C309 1.390 . S
C307 H311 0.950 . S
H308 C304 0.950 . S
C309 C307 1.390 . S
C309 C310 1.387 1_465 S
C309 H312 0.950 . S
C310 C309 1.387 1_645 S
C310 C313 1.387 . S
H311 C307 0.950 . S
H312 C309 0.950 . S
C313 C304 1.390 . S
C313 H306 0.950 . S
C313 C310 1.387 . S
C314 C315 1.387 1_565 S
C314 H318 0.950 . S
C314 C323 1.390 . S
C315 C314 1.387 1_545 S
C315 C317 1.387 . S
H316 C323 0.950 . S
C317 C315 1.387 . S
C317 C319 1.390 . S
C317 H321 0.950 . S
H318 C314 0.950 . S
C319 C317 1.390 . S
C319 C320 1.387 . S
C319 H322 0.950 . S
C320 C319 1.387 . S
C320 C323 1.387 1_545 S
H321 C317 0.950 . S
H322 C319 0.950 . S
C323 C314 1.390 . S
C323 H316 0.950 . S
C323 C320 1.387 1_565 S
C324 C325 1.387 . S
C324 H328 0.950 . S
C324 C333 1.390 . S
C325 C324 1.387 . S
C325 C327 1.387 . S
H326 C333 0.950 . S
C327 C325 1.387 . S
C327 C329 1.390 . S
C327 H331 0.950 . S
H328 C324 0.950 . S
C329 C327 1.390 . S
C329 C330 1.387 . S
C329 H332 0.950 . S
C330 C329 1.387 . S
C330 C333 1.387 . S
H331 C327 0.950 . S
H332 C329 0.950 . S
C333 C324 1.390 . S
C333 H326 0.950 . S
C333 C330 1.387 . S
C334 C335 1.387 . S
C334 H338 0.950 . S
C334 C343 1.390 . S
C335 C334 1.387 . S
C335 C337 1.387 . S
H336 C343 0.950 . S
C337 C335 1.387 . S
C337 C339 1.390 . S
C337 H341 0.950 . S
H338 C334 0.950 . S
C339 C337 1.390 . S
C339 C340 1.387 . S
C339 H342 0.950 . S
C340 C339 1.387 . S
C340 C343 1.387 . S
H341 C337 0.950 . S
H342 C339 0.950 . S
C343 C334 1.390 . S
C343 H336 0.950 . S
C343 C340 1.387 . S
C230 C201 1.541 . S
C225 C29 1.630 . S
C235 C8 1.598 . S
C240 C162 1.523 . S
C245 C0 1.590 . S
C250 C206 1.516 1_556 S
C255 C17 1.622 . S
C260 C167 1.544 . S
C265 C63 1.629 . S
C270 C123 1.539 . S
C275 C42 1.599 . S
C280 C84 1.523 . S
C290 C128 1.522 . S
C285 C34 1.590 . S
C300 C89 1.544 . S
C295 C51 1.621 . S
C305 C4 1.491 . S
C310 C69 1.492 . S
C315 C13 1.489 . S
C320 C108 1.490 . S
C330 C147 1.492 . S
C325 C38 1.491 . S
C335 C47 1.489 . S
C340 C186 1.491 . S
