# Generated by pormake.
# Topology anh, (6,3)-cn, num edge types: 1
# Building blocks:
#     Node 0, Type 0, BuildingBlock: CUKXOW_clean_sbu_0, # of connection points: 6
#     Node 1, Type 0, BuildingBlock: CUKXOW_clean_sbu_0, # of connection points: 6
#     Node 2, Type 0, BuildingBlock: CUKXOW_clean_sbu_0, # of connection points: 6
#     Node 3, Type 1, BuildingBlock: MIDCAF_clean_linker_0, # of connection points: 3
#     Node 4, Type 1, BuildingBlock: MIDCAF_clean_linker_0, # of connection points: 3
#     Node 5, Type 1, BuildingBlock: MIDCAF_clean_linker_0, # of connection points: 3
#     Node 6, Type 1, BuildingBlock: MIDCAF_clean_linker_0, # of connection points: 3
#     Node 7, Type 1, BuildingBlock: MIDCAF_clean_linker_0, # of connection points: 3
#     Node 8, Type 1, BuildingBlock: MIDCAF_clean_linker_0, # of connection points: 3
#     Edge 9, Type (0, 1), BuildingBlock: EZIPEK_clean_linker_0, # of connection points: 2
#     Edge 10, Type (0, 1), BuildingBlock: EZIPEK_clean_linker_0, # of connection points: 2
#     Edge 11, Type (0, 1), BuildingBlock: EZIPEK_clean_linker_0, # of connection points: 2
#     Edge 12, Type (0, 1), BuildingBlock: EZIPEK_clean_linker_0, # of connection points: 2
#     Edge 13, Type (0, 1), BuildingBlock: EZIPEK_clean_linker_0, # of connection points: 2
#     Edge 14, Type (0, 1), BuildingBlock: EZIPEK_clean_linker_0, # of connection points: 2
#     Edge 15, Type (0, 1), BuildingBlock: EZIPEK_clean_linker_0, # of connection points: 2
#     Edge 16, Type (0, 1), BuildingBlock: EZIPEK_clean_linker_0, # of connection points: 2
#     Edge 17, Type (0, 1), BuildingBlock: EZIPEK_clean_linker_0, # of connection points: 2
#     Edge 18, Type (0, 1), BuildingBlock: EZIPEK_clean_linker_0, # of connection points: 2
#     Edge 19, Type (0, 1), BuildingBlock: EZIPEK_clean_linker_0, # of connection points: 2
#     Edge 20, Type (0, 1), BuildingBlock: EZIPEK_clean_linker_0, # of connection points: 2
#     Edge 21, Type (0, 1), BuildingBlock: EZIPEK_clean_linker_0, # of connection points: 2
#     Edge 22, Type (0, 1), BuildingBlock: EZIPEK_clean_linker_0, # of connection points: 2
#     Edge 23, Type (0, 1), BuildingBlock: EZIPEK_clean_linker_0, # of connection points: 2
#     Edge 24, Type (0, 1), BuildingBlock: EZIPEK_clean_linker_0, # of connection points: 2
#     Edge 25, Type (0, 1), BuildingBlock: EZIPEK_clean_linker_0, # of connection points: 2
#     Edge 26, Type (0, 1), BuildingBlock: EZIPEK_clean_linker_0, # of connection points: 2
# Relax obj value: 0.137
# Max RMSD: 0.194
# Mean RMSD: 0.141
data_MOF--net-anh--node1-CUKXOW_clean_sbu_0--node2-MIDCAF_clean_linker_0--edge1-EZIPEK_clean_linker_0
_symmetry_space_group_name_H-M    P1
_symmetry_Int_Tables_number       1
_symmetry_cell_setting            triclinic
loop_
_symmetry_equiv_pos_as_xyz
'x, y, z'
_cell_length_a     26.7897
_cell_length_b     26.108236
_cell_length_c     50.987522
_cell_angle_alpha  94.709326
_cell_angle_beta   90.219073
_cell_angle_gamma 113.21228
loop_
_atom_site_label
_atom_site_type_symbol
_atom_site_fract_x
_atom_site_fract_y
_atom_site_fract_z
_atom_type_partial_charge
Tb0 Tb 0.09132 0.55498 0.14608 0.0
C1 C 0.05813 0.49511 0.19859 0.0
Tb2 Tb 1.02139 0.42604 0.14308 0.0
O3 O 1.0244 0.58456 0.15022 0.0
O4 O 1.0097 0.50111 0.14779 0.0
O5 O 0.08998 0.54025 0.18747 0.0
C6 C 0.93823 0.32701 0.13969 0.0
O7 O 1.02582 0.44757 0.18532 0.0
C8 C 0.12861 0.4572 0.1473 0.0
C9 C 0.04062 0.48973 0.09152 0.0
O10 O 0.94171 0.37077 0.1548 0.0
O11 O 0.9818 0.33885 0.1261 0.0
O12 O 0.09319 0.41015 0.15432 0.0
O13 O 0.10255 0.47989 0.1352 0.0
O14 O 1.01008 0.44455 0.10305 0.0
O15 O 0.08023 0.53372 0.10391 0.0
C16 C 0.18254 0.64639 0.14787 0.0
O17 O 0.13884 0.63857 0.13405 0.0
O18 O 0.17448 0.60323 0.16081 0.0
C19 C 0.98584 0.53443 0.14923 0.0
Tb20 Tb 0.52802 0.99085 0.49454 0.0
C21 C 0.59301 0.0204 0.44279 0.0
Tb22 Tb 0.65387 0.06517 0.49908 0.0
O23 O 0.51188 0.06159 0.4823 0.0
O24 O 0.58015 0.07538 0.50579 0.0
O25 O 0.54745 0.98787 0.45333 0.0
C26 C 0.7409 0.1603 0.50035 0.0
O27 O 0.63713 0.05555 0.45661 0.0
C28 C 0.63363 0.95705 0.49507 0.0
C29 C 0.59066 0.02337 0.55034 0.0
O30 O 0.69664 0.14818 0.48629 0.0
O31 O 0.73653 0.1186 0.51382 0.0
O32 O 0.68268 0.99622 0.49729 0.0
O33 O 0.60185 0.98164 0.49374 0.0
O34 O 0.63469 0.06056 0.54046 0.0
O35 O 0.54714 0.98935 0.53585 0.0
C36 C 0.43062 0.90858 0.49589 0.0
O37 O 0.44526 0.95782 0.50853 0.0
O38 O 0.47087 0.90568 0.48264 0.0
C39 C 0.55758 0.09926 0.49233 0.0
Tb40 Tb 0.4873 0.52508 0.83223 0.0
C41 C 0.57173 0.54517 0.87987 0.0
Tb42 Tb 0.6081 0.54342 0.82102 0.0
O43 O 0.45499 0.43345 0.83556 0.0
O44 O 0.53538 0.47928 0.8292 0.0
O45 O 0.52413 0.54408 0.87179 0.0
C46 C 0.69794 0.53468 0.80308 0.0
O47 O 0.60968 0.54192 0.86377 0.0
C48 C 0.58779 0.63363 0.83039 0.0
C49 C 0.51967 0.5127 0.77373 0.0
O50 O 0.68011 0.57234 0.79773 0.0
O51 O 0.66582 0.50309 0.81965 0.0
O52 O 0.63488 0.63206 0.83502 0.0
O53 O 0.55744 0.58766 0.81824 0.0
O54 O 0.56751 0.51437 0.78199 0.0
O55 O 0.4838 0.52056 0.78966 0.0
C56 C 0.41171 0.56357 0.84315 0.0
O57 O 0.40299 0.51675 0.82902 0.0
O58 O 0.46204 0.58742 0.85147 0.0
C59 C 0.50192 0.43028 0.83158 0.0
C60 C 0.39464 0.8375 0.19533 0.0
C61 C 0.38935 0.82654 0.16794 0.0
C62 C 0.43247 0.85622 0.15235 0.0
C63 C 0.48094 0.89613 0.16427 0.0
H64 H 0.63042 0.02938 0.15075 0.0
H65 H 0.70398 0.09755 0.12766 0.0
H66 H 0.79646 0.16169 0.20103 0.0
H67 H 0.72424 0.09433 0.22423 0.0
H68 H 0.67354 0.05968 0.27772 0.0
H69 H 0.67752 0.06845 0.32598 0.0
H70 H 0.51809 0.93597 0.32611 0.0
H71 H 0.51331 0.92654 0.27809 0.0
H72 H 0.44522 0.88397 0.22849 0.0
H73 H 0.36158 0.81493 0.20758 0.0
H74 H 0.42873 0.84808 0.13111 0.0
H75 H 0.51394 0.9182 0.15192 0.0
N76 N 0.57954 0.98092 0.1913 0.0
N77 N 0.63025 0.02148 0.23083 0.0
N78 N 0.5432 0.95127 0.23181 0.0
C79 C 0.62598 0.01821 0.2041 0.0
C80 C 0.58904 0.98808 0.24482 0.0
C81 C 0.53791 0.94723 0.20517 0.0
C82 C 0.6711 0.05656 0.18943 0.0
C83 C 0.66657 0.05768 0.16195 0.0
C84 C 0.70845 0.09646 0.1487 0.0
C85 C 0.75521 0.13459 0.16277 0.0
C86 C 0.76047 0.13257 0.18994 0.0
C87 C 0.71895 0.09401 0.20314 0.0
C88 C 0.59303 0.9925 0.27396 0.0
C89 C 0.6394 0.03216 0.28796 0.0
C90 C 0.64185 0.03727 0.31549 0.0
C91 C 0.59809 1.0028 0.32936 0.0
C92 C 0.55218 0.96279 0.31558 0.0
C93 C 0.54963 0.95761 0.28813 0.0
C94 C 0.48669 0.90657 0.1919 0.0
C95 C 0.44271 0.87699 0.2072 0.0
C96 C 0.6258 0.36492 0.5333 0.0
C97 C 0.59342 0.33392 0.51124 0.0
C98 C 0.56528 0.35819 0.49656 0.0
C99 C 0.56638 0.41123 0.50506 0.0
H100 H 0.61925 0.61539 0.4984 0.0
H101 H 0.63061 0.7066 0.48351 0.0
H102 H 0.53393 0.73092 0.54682 0.0
H103 H 0.52205 0.64071 0.5617 0.0
H104 H 0.52856 0.59158 0.61497 0.0
H105 H 0.50399 0.58156 0.65978 0.0
H106 H 0.53574 0.43109 0.65734 0.0
H107 H 0.56041 0.44177 0.61255 0.0
H108 H 0.64877 0.43865 0.56007 0.0
H109 H 0.64784 0.34698 0.54482 0.0
H110 H 0.53996 0.33473 0.4795 0.0
H111 H 0.54133 0.42744 0.49458 0.0
N112 N 0.58242 0.5302 0.5297 0.0
N113 N 0.55756 0.56543 0.56925 0.0
N114 N 0.57209 0.4829 0.56797 0.0
C115 C 0.56956 0.57036 0.54345 0.0
C116 C 0.55868 0.52194 0.58165 0.0
C117 C 0.58385 0.48636 0.54217 0.0
C118 C 0.57032 0.62083 0.53146 0.0
C119 C 0.59943 0.63957 0.50879 0.0
C120 C 0.60595 0.69164 0.50025 0.0
C121 C 0.58317 0.72542 0.51415 0.0
C122 C 0.55177 0.70546 0.53584 0.0
C123 C 0.54533 0.65384 0.54437 0.0
C124 C 0.54387 0.51598 0.60955 0.0
C125 C 0.52808 0.55499 0.62375 0.0
C126 C 0.5119 0.54782 0.64968 0.0
C127 C 0.50822 0.49983 0.66204 0.0
C128 C 0.52965 0.46419 0.64828 0.0
C129 C 0.54584 0.47131 0.62238 0.0
C130 C 0.59513 0.44011 0.52847 0.0
C131 C 0.62639 0.41733 0.54191 0.0
C132 C 0.90459 0.63726 0.85406 0.0
C133 C 0.9118 0.6171 0.82865 0.0
C134 C 0.96402 0.62495 0.8206 0.0
C135 C 1.00848 0.65059 0.83836 0.0
H136 H 0.16966 0.70685 0.84449 0.0
H137 H 0.24315 0.68083 0.82901 0.0
H138 H 0.29996 0.6901 0.90914 0.0
H139 H 0.22652 0.71589 0.92506 0.0
H140 H 0.13062 0.69948 0.97372 0.0
H141 H 0.11271 0.64428 0.01183 0.0
H142 H 0.96339 0.52543 0.97355 0.0
H143 H 0.97982 0.58147 0.93588 0.0
H144 H 0.94171 0.67491 0.8918 0.0
H145 H 0.86432 0.63145 0.86045 0.0
H146 H 0.96994 0.60935 0.80101 0.0
H147 H 0.04816 0.65381 0.83216 0.0
N148 N 0.09716 0.70057 0.87768 0.0
N149 N 0.1237 0.69114 0.9202 0.0
N150 N 0.03188 0.66758 0.90943 0.0
C151 C 0.13712 0.70565 0.89541 0.0
C152 C 0.07124 0.67222 0.92736 0.0
C153 C 0.04465 0.68246 0.88468 0.0
C154 C 0.19107 0.71149 0.88609 0.0
C155 C 0.19886 0.70552 0.85888 0.0
C156 C 0.24082 0.69063 0.84992 0.0
C157 C 0.27578 0.68251 0.86804 0.0
C158 C 0.27273 0.6958 0.89499 0.0
C159 C 0.23068 0.71046 0.904 0.0
C160 C 0.05644 0.64501 0.952 0.0
C161 C 0.09331 0.6624 0.97377 0.0
C162 C 0.08325 0.63086 -0.00458 0.0
C163 C 0.03679 0.58088 -0.00462 0.0
C164 C 0.99922 0.56411 0.97396 0.0
C165 C 1.00856 0.5964 0.95258 0.0
C166 C 1.00078 0.66751 0.86444 0.0
C167 C 0.94871 0.6621 0.87188 0.0
C168 C 0.21805 0.72037 0.44839 0.0
C169 C 0.22772 0.72356 0.47557 0.0
C170 C 0.19192 0.68268 0.49045 0.0
C171 C 0.14764 0.63783 0.47795 0.0
H172 H 1.00992 0.4931 0.49023 0.0
H173 H 0.94602 0.41585 0.51307 0.0
H174 H 0.87765 0.3246 0.43834 0.0
H175 H 0.94039 0.40064 0.41533 0.0
H176 H 0.98784 0.44376 0.36313 0.0
H177 H 0.98822 0.43297 0.31499 0.0
H178 H 0.11734 0.59668 0.31538 0.0
H179 H 0.11767 0.60829 0.3634 0.0
H180 H 0.16844 0.67456 0.41482 0.0
H181 H 0.24525 0.75191 0.43671 0.0
H182 H 0.1989 0.68496 0.51154 0.0
H183 H 0.12117 0.60604 0.48972 0.0
N184 N 0.05843 0.54404 0.44991 0.0
N185 N 1.01773 0.49327 0.40988 0.0
N186 N 0.09212 0.57878 0.40978 0.0
C187 C 1.01957 0.49826 0.43664 0.0
C188 C 0.05382 0.53336 0.39631 0.0
C189 C 0.0948 0.5846 0.4365 0.0
C190 C 0.98046 0.4531 0.45091 0.0
C191 C 0.98117 0.45669 0.47864 0.0
C192 C 0.94482 0.41279 0.49175 0.0
C193 C 0.90756 0.36492 0.47726 0.0
C194 C 0.90636 0.36142 0.44973 0.0
C195 C 0.94233 0.40504 0.43666 0.0
C196 C 0.05277 0.52691 0.36718 0.0
C197 C 1.0163 0.4776 0.35304 0.0
C198 C 1.01647 0.4712 0.32559 0.0
C199 C 0.05295 0.51397 0.31191 0.0
C200 C 0.0891 0.56328 0.3258 0.0
C201 C 0.08909 0.56973 0.35322 0.0
C202 C 0.13878 0.63362 0.45047 0.0
C203 C 0.17407 0.67596 0.43595 0.0
C204 C 0.56574 0.22109 0.7904 0.0
C205 C 0.53666 0.2243 0.81272 0.0
C206 C 0.51598 0.17817 0.82782 0.0
C207 C 0.5222 0.12825 0.81979 0.0
H208 H 0.60331 0.97681 0.83002 0.0
H209 H 0.61325 0.89369 0.8449 0.0
H210 H 0.48616 0.78763 0.789 0.0
H211 H 0.47668 0.86989 0.77398 0.0
H212 H 0.6033 0.96185 0.7168 0.0
H213 H 0.61716 0.96244 0.66918 0.0
H214 H 0.51913 0.05848 0.66262 0.0
H215 H 0.50713 0.06005 0.71016 0.0
H216 H 0.5936 0.17043 0.76466 0.0
H217 H 0.58237 0.25642 0.77869 0.0
H218 H 0.49354 0.18023 0.84521 0.0
H219 H 0.50389 0.09234 0.83098 0.0
N220 N 0.54433 0.02682 0.79916 0.0
N221 N 0.54612 0.97288 0.75998 0.0
N222 N 0.5508 0.06358 0.75815 0.0
C223 C 0.54294 0.97787 0.7866 0.0
C224 C 0.54993 0.01557 0.74572 0.0
C225 C 0.54833 0.07004 0.78469 0.0
C226 C 0.53928 0.9296 0.80087 0.0
C227 C 0.57619 0.93557 0.8217 0.0
C228 C 0.58205 0.88823 0.83009 0.0
C229 C 0.55054 0.83458 0.81794 0.0
C230 C 0.51067 0.82852 0.79868 0.0
C231 C 0.50533 0.87557 0.79013 0.0
C232 C 0.55429 0.01101 0.71699 0.0
C233 C 0.58443 0.98262 0.70508 0.0
C234 C 0.59251 0.9831 0.67802 0.0
C235 C 0.5692 0.01059 0.66253 0.0
C236 C 0.53756 0.03726 0.67433 0.0
C237 C 0.53073 0.03809 0.7014 0.0
C238 C 0.549 0.12414 0.79655 0.0
C239 C 0.57201 0.17174 0.78246 0.0
C240 C 0.72173 0.45919 0.11939 0.0
C241 C 0.75462 0.49657 0.13986 0.0
C242 C 0.73287 0.52956 0.15534 0.0
C243 C 0.68074 0.52795 0.14919 0.0
H244 H 0.45748 0.45058 0.15061 0.0
H245 H 0.36324 0.43716 0.1609 0.0
H246 H 0.36975 0.56072 0.10856 0.0
H247 H 0.46281 0.57467 0.09844 0.0
H248 H 0.52702 0.58021 0.04574 0.0
H249 H 0.53432 0.58986 -0.00164 0.0
H250 H 0.6484 0.51067 -0.00558 0.0
H251 H 0.6424 0.50174 0.0418 0.0
H252 H 0.64746 0.43105 0.09616 0.0
H253 H 0.73737 0.43348 0.1071 0.0
H254 H 0.75757 0.55908 0.17114 0.0
H255 H 0.66698 0.55706 0.16004 0.0
N256 N 0.55905 0.50399 0.12669 0.0
N257 N 0.53068 0.52865 0.08751 0.0
N258 N 0.61231 0.51664 0.08912 0.0
C259 C 0.52125 0.516 0.11286 0.0
C260 C 0.57577 0.52898 0.07553 0.0
C261 C 0.60518 0.50469 0.11456 0.0
C262 C 0.46816 0.51357 0.12359 0.0
C263 C 0.43933 0.47584 0.14181 0.0
C264 C 0.38522 0.46785 0.14755 0.0
C265 C 0.35899 0.49759 0.13529 0.0
C266 C 0.38865 0.53701 0.11815 0.0
C267 C 0.4422 0.5449 0.11243 0.0
C268 C 0.58373 0.53974 0.04749 0.0
C269 C 0.55428 0.56559 0.03489 0.0
C270 C 0.5587 0.57156 0.00791 0.0
C271 C 0.592 0.55109 -0.00691 0.0
C272 C 0.62287 0.52705 0.00569 0.0
C273 C 0.61916 0.52186 0.03273 0.0
C274 C 0.64942 0.49323 0.12746 0.0
C275 C 0.66999 0.45756 0.1133 0.0
C276 C 0.22737 0.50129 0.16408 0.0
C277 C 0.18784 0.46838 0.14412 0.0
C278 C 0.25963 0.44922 0.12014 0.0
C279 C 0.29972 0.48598 0.13899 0.0
N280 N 0.32281 0.55394 0.17669 0.0
N281 N 0.16708 0.41506 0.10175 0.0
C282 C 0.28381 0.51393 0.16035 0.0
C283 C 0.2043 0.44356 0.12174 0.0
N284 N 0.21088 0.51903 0.1871 0.0
N285 N 0.27428 0.41846 0.10106 0.0
H286 H 0.12602 0.40798 0.10266 0.0
H287 H 0.17725 0.40166 0.08354 0.0
H288 H 0.31422 0.42199 0.09906 0.0
H289 H 0.24659 0.38639 0.08845 0.0
H290 H 0.23668 0.53779 0.20357 0.0
H291 H 0.17029 0.51082 0.19049 0.0
H292 H 0.31452 0.58081 0.19056 0.0
H293 H 0.36422 0.56329 0.175 0.0
C294 C 0.84044 0.21715 0.49535 0.0
C295 C 0.78774 0.21464 0.50106 0.0
C296 C 0.81742 0.31486 0.49664 0.0
C297 C 0.86961 0.31702 0.49034 0.0
N298 N 0.93564 0.27586 0.49078 0.0
N299 N 0.73054 0.26282 0.51503 0.0
C300 C 0.88275 0.26996 0.49228 0.0
C301 C 0.7777 0.2642 0.50427 0.0
N302 N 0.84924 0.16909 0.49086 0.0
N303 N 0.80517 0.36039 0.49417 0.0
H304 H 0.70135 0.22654 0.52156 0.0
H305 H 0.72275 0.2984 0.51992 0.0
H306 H 0.83402 0.39886 0.4896 0.0
H307 H 0.76593 0.35923 0.49524 0.0
H308 H 0.88505 0.1681 0.48346 0.0
H309 H 0.81948 0.12936 0.49264 0.0
H310 H 0.94871 0.24443 0.49454 0.0
H311 H 0.96733 0.31411 0.48822 0.0
C312 C 0.56252 0.71165 0.84955 0.0
C313 C 0.58101 0.68678 0.828 0.0
C314 C 0.58924 0.76484 0.80225 0.0
C315 C 0.56382 0.78558 0.82242 0.0
N316 N 0.5209 0.7759 0.86421 0.0
N317 N 0.60876 0.68708 0.78301 0.0
C318 C 0.54928 0.75843 0.8459 0.0
C319 C 0.59345 0.71264 0.8041 0.0
N320 N 0.5587 0.69129 0.87363 0.0
N321 N 0.61121 0.79618 0.78177 0.0
H322 H 0.61516 0.65035 0.78385 0.0
H323 H 0.61149 0.70009 0.76411 0.0
H324 H 0.60986 0.83511 0.77994 0.0
H325 H 0.63527 0.78632 0.76794 0.0
H326 H 0.55065 0.71091 0.89073 0.0
H327 H 0.56808 0.65716 0.87692 0.0
H328 H 0.50338 0.75371 0.88018 0.0
H329 H 0.51117 0.81041 0.86233 0.0
C330 C 0.88664 0.48271 0.16144 0.0
C331 C 0.92573 0.52139 0.14609 0.0
C332 C 0.8532 0.54744 0.12897 0.0
C333 C 0.81367 0.50564 0.14267 0.0
N334 N 0.79147 0.42657 0.16822 0.0
N335 N 0.94265 0.58163 0.11071 0.0
C336 C 0.83004 0.47101 0.15766 0.0
C337 C 0.90798 0.55143 0.12868 0.0
N338 N 0.90362 0.45987 0.18094 0.0
N339 N 0.83852 0.58378 0.11623 0.0
H340 H 0.98177 0.58296 0.10848 0.0
H341 H 0.93071 0.59984 0.0958 0.0
H342 H 0.79863 0.58088 0.11489 0.0
H343 H 0.86646 0.61943 0.10874 0.0
H344 H 0.87784 0.43602 0.19458 0.0
H345 H 0.94442 0.46948 0.18514 0.0
H346 H 0.8002 0.39582 0.17661 0.0
H347 H 0.75005 0.4181 0.16676 0.0
C348 C 0.37389 0.80762 0.49933 0.0
C349 C 0.37664 0.8622 0.49628 0.0
C350 C 0.27766 0.8246 0.48997 0.0
C351 C 0.27668 0.76985 0.4877 0.0
N352 N 0.3238 0.70805 0.48897 0.0
N353 N 0.33121 0.92264 0.4863 0.0
C354 C 0.32465 0.76086 0.49241 0.0
C355 C 0.32847 0.87106 0.49149 0.0
N356 N 0.418 0.80064 0.50934 0.0
N357 N 0.22988 0.83189 0.49027 0.0
H358 H 0.36745 0.95776 0.48617 0.0
H359 H 0.29777 0.92967 0.47975 0.0
H360 H 0.19208 0.79826 0.48907 0.0
H361 H 0.22777 0.87073 0.49434 0.0
H362 H 0.41691 0.76218 0.5141 0.0
H363 H 0.45416 0.8342 0.51553 0.0
H364 H 0.35883 0.69984 0.48888 0.0
H365 H 0.28824 0.6725 0.48452 0.0
C366 C 0.55422 0.37054 0.8408 0.0
C367 C 0.51128 0.37749 0.82703 0.0
C368 C 0.48024 0.28027 0.8074 0.0
C369 C 0.52622 0.2757 0.81913 0.0
N370 N 0.612 0.31921 0.84348 0.0
N371 N 0.44008 0.342 0.79289 0.0
C372 C 0.56481 0.32175 0.83471 0.0
C373 C 0.47585 0.33303 0.80924 0.0
N374 N 0.58281 0.4087 0.86091 0.0
N375 N 0.44061 0.23407 0.7945 0.0
H376 H 0.43724 0.38062 0.79253 0.0
H377 H 0.41745 0.31307 0.7776 0.0
H378 H 0.4431 0.19509 0.79212 0.0
H379 H 0.4033 0.23322 0.78811 0.0
H380 H 0.61076 0.40316 0.87341 0.0
H381 H 0.57398 0.44286 0.867 0.0
H382 H 0.64469 0.35395 0.85202 0.0
H383 H 0.62013 0.28328 0.84046 0.0
C384 C 0.64526 0.88456 0.52121 0.0
C385 C 0.61916 0.89727 0.49983 0.0
C386 C 0.56612 0.79655 0.48872 0.0
C387 C 0.59676 0.78426 0.50815 0.0
N388 N 0.67206 0.81649 0.53993 0.0
N389 N 0.56181 0.86467 0.46026 0.0
C390 C 0.63846 0.82831 0.52341 0.0
C391 C 0.58121 0.85306 0.48282 0.0
N392 N 0.67384 0.92556 0.54047 0.0
N393 N 0.52207 0.75439 0.47621 0.0
H394 H 0.5738 0.90514 0.45473 0.0
H395 H 0.5382 0.83397 0.44581 0.0
H396 H 0.51085 0.71246 0.47953 0.0
H397 H 0.4944 0.76146 0.46414 0.0
H398 H 0.68887 0.91748 0.55783 0.0
H399 H 0.67669 0.96658 0.54088 0.0
H400 H 0.70695 0.84714 0.54927 0.0
H401 H 0.66795 0.7758 0.54246 0.0
C402 C 0.77465 0.50492 0.81011 0.0
C403 C 0.75329 0.53815 0.79728 0.0
C404 C 0.84384 0.6099 0.79338 0.0
C405 C 0.86311 0.58357 0.8118 0.0
N406 N 0.85255 0.50138 0.83332 0.0
N407 N 0.76892 0.60251 0.7642 0.0
C408 C 0.8305 0.52866 0.81822 0.0
C409 C 0.78857 0.58421 0.78459 0.0
N410 N 0.74149 0.45121 0.8141 0.0
N411 N 0.87709 0.66098 0.78595 0.0
H412 H 0.72905 0.5812 0.7567 0.0
H413 H 0.79318 0.63402 0.753 0.0
H414 H 0.91823 0.67999 0.79165 0.0
H415 H 0.86354 0.68532 0.77503 0.0
H416 H 0.75428 0.42349 0.82273 0.0
H417 H 0.70166 0.43281 0.80626 0.0
H418 H 0.8303 0.46356 0.84093 0.0
H419 H 0.89398 0.51746 0.83848 0.0
C420 C 0.28297 0.6838 0.14375 0.0
C421 C 0.23537 0.69449 0.14754 0.0
C422 C 0.29121 0.79486 0.15503 0.0
C423 C 0.33819 0.7827 0.15625 0.0
N424 N 0.37974 0.71566 0.15298 0.0
N425 N 0.19349 0.75997 0.15827 0.0
C426 C 0.33449 0.72724 0.15061 0.0
C427 C 0.2391 0.7501 0.15307 0.0
N428 N 0.27891 0.6325 0.13298 0.0
N429 N 0.29669 0.84929 0.156 0.0
H430 H 0.15454 0.72848 0.15747 0.0
H431 H 0.19454 0.79893 0.16539 0.0
H432 H 0.33456 0.88281 0.15758 0.0
H433 H 0.26439 0.86097 0.15273 0.0
H434 H 0.31238 0.62371 0.12764 0.0
H435 H 0.24184 0.60033 0.12676 0.0
H436 H 0.37834 0.67513 0.1524 0.0
H437 H 0.41854 0.74664 0.15717 0.0
C438 C 0.59737 0.19795 0.47906 0.0
C439 C 0.56746 0.15949 0.4971 0.0
C440 C 0.54963 0.23425 0.52239 0.0
C441 C 0.58377 0.27368 0.50578 0.0
N442 N 0.64686 0.29509 0.47078 0.0
N443 N 0.52088 0.14199 0.53791 0.0
C444 C 0.60948 0.25608 0.48475 0.0
C445 C 0.5454 0.17799 0.51939 0.0
N446 N 0.61312 0.17881 0.45617 0.0
N447 N 0.51956 0.25012 0.54041 0.0
H448 H 0.51482 0.09985 0.53601 0.0
H449 H 0.51015 0.15473 0.55615 0.0
H450 H 0.52114 0.29077 0.54314 0.0
H451 H 0.48944 0.22209 0.55105 0.0
H452 H 0.62975 0.20369 0.4409 0.0
H453 H 0.6058 0.13682 0.45161 0.0
H454 H 0.67175 0.2856 0.4573 0.0
H455 H 0.65618 0.33787 0.47423 0.0
C456 C 0.38791 0.64511 0.83815 0.0
C457 C 0.37312 0.59062 0.84643 0.0
C458 C 0.28946 0.59318 0.86386 0.0
C459 C 0.30853 0.65067 0.85935 0.0
N460 N 0.37707 0.73319 0.84387 0.0
N461 N 0.31266 0.51377 0.86908 0.0
C462 C 0.35801 0.67719 0.84681 0.0
C463 C 0.32435 0.56454 0.85956 0.0
N464 N 0.42927 0.66523 0.82124 0.0
N465 N 0.2376 0.56574 0.87174 0.0
H466 H 0.33704 0.49117 0.86612 0.0
H467 H 0.28098 0.4959 0.88157 0.0
H468 H 0.21057 0.5852 0.87507 0.0
H469 H 0.21965 0.52258 0.87265 0.0
H470 H 0.43844 0.70235 0.81249 0.0
H471 H 0.45103 0.64211 0.81383 0.0
H472 H 0.41562 0.75608 0.83732 0.0
H473 H 0.35568 0.75775 0.84973 0.0
C474 C 0.89621 0.22251 0.14246 0.0
C475 C 0.8904 0.2731 0.1384 0.0
C476 C 0.79272 0.22889 0.14523 0.0
C477 C 0.79867 0.17871 0.14977 0.0
N478 N 0.85128 0.12236 0.14557 0.0
N479 N 0.83179 0.31923 0.12762 0.0
C480 C 0.84893 0.17374 0.14582 0.0
C481 C 0.83806 0.27447 0.13704 0.0
N482 N 0.94673 0.22181 0.14508 0.0
N483 N 0.74474 0.23413 0.15013 0.0
H484 H 0.86414 0.35254 0.12071 0.0
H485 H 0.79408 0.32069 0.12408 0.0
H486 H 0.71014 0.20131 0.15562 0.0
H487 H 0.74021 0.272 0.15041 0.0
H488 H 0.95341 0.18795 0.1513 0.0
H489 H 0.98255 0.25636 0.14285 0.0
H490 H 0.88553 0.1149 0.14037 0.0
H491 H 0.8171 0.08609 0.14812 0.0
C492 C 0.07148 0.50009 0.04555 0.0
C493 C 0.02985 0.49376 0.06356 0.0
C494 C 0.98706 0.5363 0.0348 0.0
C495 C 0.02985 0.54465 0.01716 0.0
N496 N 0.10203 0.51853 0.00129 0.0
N497 N 0.93868 0.48673 0.07109 0.0
C498 C 0.06859 0.52114 0.02107 0.0
C499 C 0.98419 0.50499 0.05662 0.0
N500 N 0.11455 0.48762 0.05228 0.0
N501 N 0.95154 0.5615 0.03188 0.0
H502 H 0.9355 0.46429 0.08741 0.0
H503 H 0.90238 0.4893 0.06544 0.0
H504 H 0.95293 0.58601 0.01654 0.0
H505 H 0.92342 0.56189 0.04586 0.0
H506 H 0.1496 0.49784 0.04152 0.0
H507 H 0.11587 0.46888 0.06942 0.0
H508 H 0.12799 0.49768 0.00216 0.0
H509 H 0.09997 0.53264 0.98291 0.0
C510 C 0.62827 0.99167 0.4012 0.0
C511 C 0.59518 0.01669 0.4138 0.0
C512 C 0.56994 0.03867 0.37121 0.0
C513 C 0.59918 0.00948 0.35849 0.0
N514 N 0.65081 0.95227 0.36042 0.0
N515 N 0.52904 0.05781 0.41104 0.0
C516 C 0.62715 0.98455 0.37322 0.0
C517 C 0.56432 0.03832 0.39887 0.0
N518 N 0.6607 0.97469 0.41596 0.0
N519 N 0.54892 0.06812 0.35689 0.0
H520 H 0.5252 0.06042 0.43136 0.0
H521 H 0.50073 0.0678 0.40094 0.0
H522 H 0.55198 0.06908 0.33652 0.0
H523 H 0.53248 0.09539 0.36531 0.0
H524 H 0.69044 0.96234 0.4081 0.0
H525 H 0.66033 0.97602 0.43644 0.0
H526 H 0.66638 0.9276 0.36989 0.0
H527 H 0.65156 0.9469 0.33995 0.0
C528 C 0.49144 0.54229 0.73252 0.0
C529 C 0.506 0.50328 0.74514 0.0
C530 C 0.48974 0.44538 0.70318 0.0
C531 C 0.48952 0.49115 0.69011 0.0
N532 N 0.44182 0.55217 0.69514 0.0
N533 N 0.51377 0.41369 0.74272 0.0
C534 C 0.47611 0.53124 0.70542 0.0
C535 C 0.50332 0.45336 0.73059 0.0
N536 N 0.49453 0.59113 0.7458 0.0
N537 N 0.4688 0.39294 0.69038 0.0
H538 H 0.52078 0.41618 0.763 0.0
H539 H 0.51818 0.37974 0.73233 0.0
H540 H 0.45068 0.38556 0.6715 0.0
H541 H 0.46292 0.35685 0.69952 0.0
H542 H 0.48891 0.62252 0.73634 0.0
H543 H 0.50734 0.60252 0.76552 0.0
H544 H 0.42681 0.57787 0.70631 0.0
H545 H 0.42287 0.53711 0.67651 0.0
C546 C 0.56966 0.96701 0.58948 0.0
C547 C 0.58882 0.02014 0.57919 0.0
C548 C 0.60581 0.06585 0.62402 0.0
C549 C 0.57877 0.0131 0.63397 0.0
N550 N 0.52589 0.91372 0.62553 0.0
N551 N 0.61307 0.12001 0.58705 0.0
C552 C 0.55828 0.9636 0.61656 0.0
C553 C 0.60394 0.06971 0.59653 0.0
N554 N 0.56376 0.91992 0.57368 0.0
N555 N 0.63397 0.11217 0.64077 0.0
H556 H 0.60856 0.12462 0.56719 0.0
H557 H 0.61899 0.15611 0.59927 0.0
H558 H 0.6374 0.11073 0.66106 0.0
H559 H 0.65851 0.15056 0.6342 0.0
H560 H 0.5553 0.8813 0.58092 0.0
H561 H 0.57279 0.92039 0.55384 0.0
H562 H 0.50525 0.87767 0.61304 0.0
H563 H 0.51536 0.90948 0.64514 0.0
C564 C 0.54261 0.50111 0.92198 0.0
C565 C 0.58008 0.54529 0.90862 0.0
C566 C 0.62965 0.58989 0.9505 0.0
C567 C 0.58927 0.54854 0.96394 0.0
N568 N 0.5052 0.46687 0.96332 0.0
N569 N 0.65551 0.63502 0.91003 0.0
C570 C 0.54523 0.50467 0.94989 0.0
C571 C 0.623 0.59036 0.92279 0.0
N572 N 0.50555 0.45463 0.90794 0.0
N573 N 0.67441 0.62848 0.96424 0.0
H574 H 0.65188 0.63694 0.88981 0.0
H575 H 0.68347 0.67204 0.91961 0.0
H576 H 0.67943 0.63066 0.98466 0.0
H577 H 0.70826 0.65582 0.95535 0.0
H578 H 0.48215 0.41799 0.91625 0.0
H579 H 0.50079 0.4505 0.88752 0.0
H580 H 0.46826 0.43892 0.9546 0.0
H581 H 0.50723 0.46535 0.98365 0.0
C582 C 0.07938 0.46943 0.24225 0.0
C583 C 0.05629 0.49909 0.22755 0.0
C584 C 1.02585 0.53319 0.26804 0.0
C585 C 0.05304 0.5076 0.28284 0.0
N586 N 0.11131 0.45732 0.28496 0.0
N587 N 1.01216 0.56369 0.22602 0.0
C588 C 0.08124 0.47715 0.2702 0.0
C589 C 0.03095 0.53241 0.24033 0.0
N590 N 0.09916 0.43363 0.2295 0.0
N591 N 0.99376 0.55668 0.28047 0.0
H592 H 1.01241 0.56217 0.20555 0.0
H593 H 0.9994 0.59393 0.23445 0.0
H594 H 0.98951 0.55855 0.30081 0.0
H595 H 0.96792 0.57037 0.27058 0.0
H596 H 0.1108 0.40604 0.23898 0.0
H597 H 0.10066 0.42863 0.20907 0.0
H598 H 0.13782 0.44043 0.27701 0.0
H599 H 0.1129 0.46141 0.30551 0.0
loop_
_geom_bond_atom_site_label_1
_geom_bond_atom_site_label_2
_geom_bond_distance
_geom_bond_site_symmetry_2
_ccdc_geom_bond_type
Tb0 O3 2.453 1_455 S
Tb0 O4 2.596 1_455 S
Tb0 O5 2.374 . S
Tb0 O13 2.343 . S
Tb0 O15 2.353 . S
Tb0 O17 2.427 . S
Tb0 O18 2.513 . S
C1 O5 1.251 . S
C1 O7 1.263 . S
Tb2 O4 2.343 1_455 S
Tb2 O7 2.353 . S
Tb2 O10 2.427 1_455 S
Tb2 O11 2.513 1_455 S
Tb2 O12 2.453 . S
Tb2 O13 2.596 . S
Tb2 O14 2.374 . S
O3 Tb0 2.453 1_655 S
O3 C19 1.245 . S
O4 Tb0 2.596 1_655 S
O4 Tb2 2.343 1_655 S
O4 C19 1.259 . S
O5 Tb0 2.374 . S
O5 C1 1.251 . S
C6 O10 1.275 . S
C6 O11 1.246 . S
O7 C1 1.263 . S
O7 Tb2 2.353 . S
C8 O12 1.245 . S
C8 O13 1.259 . S
C9 O14 1.250 . S
C9 O15 1.263 . S
O10 Tb2 2.427 1_655 S
O10 C6 1.275 . S
O11 Tb2 2.513 1_655 S
O11 C6 1.246 . S
O12 Tb2 2.453 . S
O12 C8 1.245 . S
O13 Tb0 2.343 . S
O13 Tb2 2.596 . S
O13 C8 1.259 . S
O14 Tb2 2.374 . S
O14 C9 1.250 . S
O15 Tb0 2.353 . S
O15 C9 1.263 . S
C16 O17 1.275 . S
C16 O18 1.246 . S
O17 Tb0 2.427 . S
O17 C16 1.275 . S
O18 Tb0 2.513 . S
O18 C16 1.246 . S
C19 O3 1.245 . S
C19 O4 1.259 . S
Tb20 O23 2.453 . S
Tb20 O24 2.596 . S
Tb20 O25 2.374 . S
Tb20 O33 2.343 1_545 S
Tb20 O35 2.353 . S
Tb20 O37 2.427 1_545 S
Tb20 O38 2.513 1_545 S
C21 O25 1.251 . S
C21 O27 1.263 . S
Tb22 O24 2.343 . S
Tb22 O27 2.353 . S
Tb22 O30 2.427 . S
Tb22 O31 2.513 . S
Tb22 O32 2.453 1_545 S
Tb22 O33 2.596 1_545 S
Tb22 O34 2.374 . S
O23 Tb20 2.453 . S
O23 C39 1.245 . S
O24 Tb20 2.596 . S
O24 Tb22 2.343 . S
O24 C39 1.259 . S
O25 Tb20 2.374 . S
O25 C21 1.251 . S
C26 O30 1.275 . S
C26 O31 1.246 . S
O27 C21 1.263 . S
O27 Tb22 2.353 . S
C28 O32 1.245 . S
C28 O33 1.259 . S
C29 O34 1.250 . S
C29 O35 1.263 . S
O30 Tb22 2.427 . S
O30 C26 1.275 . S
O31 Tb22 2.513 . S
O31 C26 1.246 . S
O32 Tb22 2.453 1_565 S
O32 C28 1.245 . S
O33 Tb20 2.343 1_565 S
O33 Tb22 2.596 1_565 S
O33 C28 1.259 . S
O34 Tb22 2.374 . S
O34 C29 1.250 . S
O35 Tb20 2.353 . S
O35 C29 1.263 . S
C36 O37 1.275 . S
C36 O38 1.246 . S
O37 Tb20 2.427 1_565 S
O37 C36 1.275 . S
O38 Tb20 2.513 1_565 S
O38 C36 1.246 . S
C39 O23 1.245 . S
C39 O24 1.259 . S
Tb40 O43 2.453 . S
Tb40 O44 2.596 . S
Tb40 O45 2.374 . S
Tb40 O53 2.343 . S
Tb40 O55 2.353 . S
Tb40 O57 2.427 . S
Tb40 O58 2.513 . S
C41 O45 1.251 . S
C41 O47 1.263 . S
Tb42 O44 2.343 . S
Tb42 O47 2.353 . S
Tb42 O50 2.427 . S
Tb42 O51 2.513 . S
Tb42 O52 2.453 . S
Tb42 O53 2.596 . S
Tb42 O54 2.374 . S
O43 Tb40 2.453 . S
O43 C59 1.245 . S
O44 Tb40 2.596 . S
O44 Tb42 2.343 . S
O44 C59 1.259 . S
O45 Tb40 2.374 . S
O45 C41 1.251 . S
C46 O50 1.275 . S
C46 O51 1.246 . S
O47 C41 1.263 . S
O47 Tb42 2.353 . S
C48 O52 1.245 . S
C48 O53 1.259 . S
C49 O54 1.250 . S
C49 O55 1.263 . S
O50 Tb42 2.427 . S
O50 C46 1.275 . S
O51 Tb42 2.513 . S
O51 C46 1.246 . S
O52 Tb42 2.453 . S
O52 C48 1.245 . S
O53 Tb40 2.343 . S
O53 Tb42 2.596 . S
O53 C48 1.259 . S
O54 Tb42 2.374 . S
O54 C49 1.250 . S
O55 Tb40 2.353 . S
O55 C49 1.263 . S
C56 O57 1.275 . S
C56 O58 1.246 . S
O57 Tb40 2.427 . S
O57 C56 1.275 . S
O58 Tb40 2.513 . S
O58 C56 1.246 . S
C59 O43 1.245 . S
C59 O44 1.259 . S
C60 C61 1.384 . S
C60 H73 0.947 . S
C60 C95 1.382 . S
C61 C60 1.384 . S
C61 C62 1.378 . S
C62 C61 1.378 . S
C62 C63 1.378 . S
C62 H74 0.952 . S
C63 C62 1.378 . S
C63 H75 0.950 . S
C63 C94 1.383 . S
H64 C83 0.947 . S
H65 C84 0.946 . S
H66 C86 0.953 . S
H67 C87 0.945 . S
H68 C89 0.952 . S
H69 C90 0.949 . S
H70 C92 0.950 1_565 S
H71 C93 0.948 1_565 S
H72 C95 0.951 . S
H73 C60 0.947 . S
H74 C62 0.952 . S
H75 C63 0.950 . S
N76 C79 1.382 . S
N76 C81 1.363 1_545 S
N77 C79 1.371 . S
N77 C80 1.372 . S
N78 C80 1.361 1_565 S
N78 C81 1.377 . S
C79 N76 1.382 . S
C79 N77 1.371 . S
C79 C82 1.480 . S
C80 N77 1.372 . S
C80 N78 1.361 1_545 S
C80 C88 1.457 . S
C81 N76 1.363 1_565 S
C81 N78 1.377 . S
C81 C94 1.479 . S
C82 C79 1.480 . S
C82 C83 1.383 . S
C82 C87 1.385 . S
C83 H64 0.947 . S
C83 C82 1.383 . S
C83 C84 1.388 . S
C84 H65 0.946 . S
C84 C83 1.388 . S
C84 C85 1.384 . S
C85 C84 1.384 . S
C85 C86 1.377 . S
C86 H66 0.953 . S
C86 C85 1.377 . S
C86 C87 1.369 . S
C87 H67 0.945 . S
C87 C82 1.385 . S
C87 C86 1.369 . S
C88 C80 1.457 . S
C88 C89 1.372 . S
C88 C93 1.364 . S
C89 H68 0.952 . S
C89 C88 1.372 . S
C89 C90 1.389 . S
C90 H69 0.949 . S
C90 C89 1.389 . S
C90 C91 1.387 . S
C91 C90 1.387 . S
C91 C92 1.372 . S
C92 H70 0.950 1_545 S
C92 C91 1.372 . S
C92 C93 1.379 . S
C93 H71 0.948 1_545 S
C93 C88 1.364 . S
C93 C92 1.379 . S
C94 C63 1.383 . S
C94 C81 1.479 . S
C94 C95 1.398 . S
C95 C60 1.382 . S
C95 H72 0.951 . S
C95 C94 1.398 . S
C96 C97 1.384 . S
C96 H109 0.947 . S
C96 C131 1.382 . S
C97 C96 1.384 . S
C97 C98 1.378 . S
C98 C97 1.378 . S
C98 C99 1.378 . S
C98 H110 0.952 . S
C99 C98 1.378 . S
C99 H111 0.950 . S
C99 C130 1.383 . S
H100 C119 0.947 . S
H101 C120 0.946 . S
H102 C122 0.953 . S
H103 C123 0.945 . S
H104 C125 0.952 . S
H105 C126 0.949 . S
H106 C128 0.950 . S
H107 C129 0.948 . S
H108 C131 0.951 . S
H109 C96 0.947 . S
H110 C98 0.952 . S
H111 C99 0.950 . S
N112 C115 1.382 . S
N112 C117 1.363 . S
N113 C115 1.371 . S
N113 C116 1.372 . S
N114 C116 1.361 . S
N114 C117 1.377 . S
C115 N112 1.382 . S
C115 N113 1.371 . S
C115 C118 1.480 . S
C116 N113 1.372 . S
C116 N114 1.361 . S
C116 C124 1.457 . S
C117 N112 1.363 . S
C117 N114 1.377 . S
C117 C130 1.479 . S
C118 C115 1.480 . S
C118 C119 1.383 . S
C118 C123 1.385 . S
C119 H100 0.947 . S
C119 C118 1.383 . S
C119 C120 1.388 . S
C120 H101 0.946 . S
C120 C119 1.388 . S
C120 C121 1.384 . S
C121 C120 1.384 . S
C121 C122 1.377 . S
C122 H102 0.953 . S
C122 C121 1.377 . S
C122 C123 1.369 . S
C123 H103 0.945 . S
C123 C118 1.385 . S
C123 C122 1.369 . S
C124 C116 1.457 . S
C124 C125 1.372 . S
C124 C129 1.364 . S
C125 H104 0.952 . S
C125 C124 1.372 . S
C125 C126 1.389 . S
C126 H105 0.949 . S
C126 C125 1.389 . S
C126 C127 1.387 . S
C127 C126 1.387 . S
C127 C128 1.372 . S
C128 H106 0.950 . S
C128 C127 1.372 . S
C128 C129 1.379 . S
C129 H107 0.948 . S
C129 C124 1.364 . S
C129 C128 1.379 . S
C130 C99 1.383 . S
C130 C117 1.479 . S
C130 C131 1.398 . S
C131 C96 1.382 . S
C131 H108 0.951 . S
C131 C130 1.398 . S
C132 C133 1.384 . S
C132 H145 0.947 . S
C132 C167 1.382 . S
C133 C132 1.384 . S
C133 C134 1.378 . S
C134 C133 1.378 . S
C134 C135 1.378 . S
C134 H146 0.952 . S
C135 C134 1.378 . S
C135 H147 0.950 1_655 S
C135 C166 1.383 . S
H136 C155 0.947 . S
H137 C156 0.946 . S
H138 C158 0.953 . S
H139 C159 0.945 . S
H140 C161 0.952 . S
H141 C162 0.949 . S
H142 C164 0.950 1_655 S
H143 C165 0.948 1_655 S
H144 C167 0.951 . S
H145 C132 0.947 . S
H146 C134 0.952 . S
H147 C135 0.950 1_455 S
N148 C151 1.382 . S
N148 C153 1.363 . S
N149 C151 1.371 . S
N149 C152 1.372 . S
N150 C152 1.361 . S
N150 C153 1.377 . S
C151 N148 1.382 . S
C151 N149 1.371 . S
C151 C154 1.480 . S
C152 N149 1.372 . S
C152 N150 1.361 . S
C152 C160 1.457 . S
C153 N148 1.363 . S
C153 N150 1.377 . S
C153 C166 1.479 1_455 S
C154 C151 1.480 . S
C154 C155 1.383 . S
C154 C159 1.385 . S
C155 H136 0.947 . S
C155 C154 1.383 . S
C155 C156 1.388 . S
C156 H137 0.946 . S
C156 C155 1.388 . S
C156 C157 1.384 . S
C157 C156 1.384 . S
C157 C158 1.377 . S
C158 H138 0.953 . S
C158 C157 1.377 . S
C158 C159 1.369 . S
C159 H139 0.945 . S
C159 C154 1.385 . S
C159 C158 1.369 . S
C160 C152 1.457 . S
C160 C161 1.372 . S
C160 C165 1.364 . S
C161 H140 0.952 . S
C161 C160 1.372 . S
C161 C162 1.389 . S
C162 H141 0.949 . S
C162 C161 1.389 . S
C162 C163 1.404 . S
C163 C162 1.404 . S
C163 C164 1.392 . S
C164 H142 0.950 1_455 S
C164 C163 1.392 . S
C164 C165 1.379 . S
C165 H143 0.948 1_455 S
C165 C160 1.364 . S
C165 C164 1.379 . S
C166 C135 1.383 . S
C166 C153 1.479 1_655 S
C166 C167 1.398 . S
C167 C132 1.382 . S
C167 H144 0.951 . S
C167 C166 1.398 . S
C168 C169 1.384 . S
C168 H181 0.947 . S
C168 C203 1.382 . S
C169 C168 1.384 . S
C169 C170 1.378 . S
C170 C169 1.378 . S
C170 C171 1.378 . S
C170 H182 0.952 . S
C171 C170 1.378 . S
C171 H183 0.950 . S
C171 C202 1.383 . S
H172 C191 0.947 . S
H173 C192 0.946 . S
H174 C194 0.953 . S
H175 C195 0.945 . S
H176 C197 0.952 . S
H177 C198 0.949 . S
H178 C200 0.950 . S
H179 C201 0.948 . S
H180 C203 0.951 . S
H181 C168 0.947 . S
H182 C170 0.952 . S
H183 C171 0.950 . S
N184 C187 1.382 1_455 S
N184 C189 1.363 . S
N185 C187 1.371 . S
N185 C188 1.372 1_655 S
N186 C188 1.361 . S
N186 C189 1.377 . S
C187 N184 1.382 1_655 S
C187 N185 1.371 . S
C187 C190 1.480 . S
C188 N185 1.372 1_455 S
C188 N186 1.361 . S
C188 C196 1.457 . S
C189 N184 1.363 . S
C189 N186 1.377 . S
C189 C202 1.479 . S
C190 C187 1.480 . S
C190 C191 1.383 . S
C190 C195 1.385 . S
C191 H172 0.947 . S
C191 C190 1.383 . S
C191 C192 1.388 . S
C192 H173 0.946 . S
C192 C191 1.388 . S
C192 C193 1.384 . S
C193 C192 1.384 . S
C193 C194 1.377 . S
C194 H174 0.953 . S
C194 C193 1.377 . S
C194 C195 1.369 . S
C195 H175 0.945 . S
C195 C190 1.385 . S
C195 C194 1.369 . S
C196 C188 1.457 . S
C196 C197 1.372 1_455 S
C196 C201 1.364 . S
C197 H176 0.952 . S
C197 C196 1.372 1_655 S
C197 C198 1.389 . S
C198 H177 0.949 . S
C198 C197 1.389 . S
C198 C199 1.387 1_655 S
C199 C198 1.387 1_455 S
C199 C200 1.372 . S
C200 H178 0.950 . S
C200 C199 1.372 . S
C200 C201 1.379 . S
C201 H179 0.948 . S
C201 C196 1.364 . S
C201 C200 1.379 . S
C202 C171 1.383 . S
C202 C189 1.479 . S
C202 C203 1.398 . S
C203 C168 1.382 . S
C203 H180 0.951 . S
C203 C202 1.398 . S
C204 C205 1.384 . S
C204 H217 0.947 . S
C204 C239 1.382 . S
C205 C204 1.384 . S
C205 C206 1.378 . S
C206 C205 1.378 . S
C206 C207 1.378 . S
C206 H218 0.952 . S
C207 C206 1.378 . S
C207 H219 0.950 . S
C207 C238 1.383 . S
H208 C227 0.947 . S
H209 C228 0.946 . S
H210 C230 0.953 . S
H211 C231 0.945 . S
H212 C233 0.952 . S
H213 C234 0.949 . S
H214 C236 0.950 . S
H215 C237 0.948 . S
H216 C239 0.951 . S
H217 C204 0.947 . S
H218 C206 0.952 . S
H219 C207 0.950 . S
N220 C223 1.382 1_545 S
N220 C225 1.363 . S
N221 C223 1.371 . S
N221 C224 1.372 1_565 S
N222 C224 1.361 . S
N222 C225 1.377 . S
C223 N220 1.382 1_565 S
C223 N221 1.371 . S
C223 C226 1.480 . S
C224 N221 1.372 1_545 S
C224 N222 1.361 . S
C224 C232 1.457 . S
C225 N220 1.363 . S
C225 N222 1.377 . S
C225 C238 1.479 . S
C226 C223 1.480 . S
C226 C227 1.383 . S
C226 C231 1.385 . S
C227 H208 0.947 . S
C227 C226 1.383 . S
C227 C228 1.388 . S
C228 H209 0.946 . S
C228 C227 1.388 . S
C228 C229 1.384 . S
C229 C228 1.384 . S
C229 C230 1.377 . S
C230 H210 0.953 . S
C230 C229 1.377 . S
C230 C231 1.369 . S
C231 H211 0.945 . S
C231 C226 1.385 . S
C231 C230 1.369 . S
C232 C224 1.457 . S
C232 C233 1.372 1_545 S
C232 C237 1.364 . S
C233 H212 0.952 . S
C233 C232 1.372 1_565 S
C233 C234 1.389 . S
C234 H213 0.949 . S
C234 C233 1.389 . S
C234 C235 1.387 1_565 S
C235 C234 1.387 1_545 S
C235 C236 1.372 . S
C236 H214 0.950 . S
C236 C235 1.372 . S
C236 C237 1.379 . S
C237 H215 0.948 . S
C237 C232 1.364 . S
C237 C236 1.379 . S
C238 C207 1.383 . S
C238 C225 1.479 . S
C238 C239 1.398 . S
C239 C204 1.382 . S
C239 H216 0.951 . S
C239 C238 1.398 . S
C240 C241 1.384 . S
C240 H253 0.947 . S
C240 C275 1.382 . S
C241 C240 1.384 . S
C241 C242 1.378 . S
C242 C241 1.378 . S
C242 C243 1.378 . S
C242 H254 0.952 . S
C243 C242 1.378 . S
C243 H255 0.950 . S
C243 C274 1.383 . S
H244 C263 0.947 . S
H245 C264 0.946 . S
H246 C266 0.953 . S
H247 C267 0.945 . S
H248 C269 0.952 . S
H249 C270 0.949 . S
H250 C272 0.950 . S
H251 C273 0.948 . S
H252 C275 0.951 . S
H253 C240 0.947 . S
H254 C242 0.952 . S
H255 C243 0.950 . S
N256 C259 1.382 . S
N256 C261 1.363 . S
N257 C259 1.371 . S
N257 C260 1.372 . S
N258 C260 1.361 . S
N258 C261 1.377 . S
C259 N256 1.382 . S
C259 N257 1.371 . S
C259 C262 1.480 . S
C260 N257 1.372 . S
C260 N258 1.361 . S
C260 C268 1.457 . S
C261 N256 1.363 . S
C261 N258 1.377 . S
C261 C274 1.479 . S
C262 C259 1.480 . S
C262 C263 1.383 . S
C262 C267 1.385 . S
C263 H244 0.947 . S
C263 C262 1.383 . S
C263 C264 1.388 . S
C264 H245 0.946 . S
C264 C263 1.388 . S
C264 C265 1.384 . S
C265 C264 1.384 . S
C265 C266 1.377 . S
C266 H246 0.953 . S
C266 C265 1.377 . S
C266 C267 1.369 . S
C267 H247 0.945 . S
C267 C262 1.385 . S
C267 C266 1.369 . S
C268 C260 1.457 . S
C268 C269 1.372 . S
C268 C273 1.364 . S
C269 H248 0.952 . S
C269 C268 1.372 . S
C269 C270 1.389 . S
C270 H249 0.949 . S
C270 C269 1.389 . S
C270 C271 1.370 1_554 S
C271 C270 1.370 1_556 S
C271 C272 1.354 1_556 S
C272 H250 0.950 . S
C272 C271 1.354 1_554 S
C272 C273 1.379 . S
C273 H251 0.948 . S
C273 C268 1.364 . S
C273 C272 1.379 . S
C274 C243 1.383 . S
C274 C261 1.479 . S
C274 C275 1.398 . S
C275 C240 1.382 . S
C275 H252 0.951 . S
C275 C274 1.398 . S
C276 C277 1.363 . S
C276 C282 1.379 . S
C276 N284 1.356 . S
C277 C276 1.363 . S
C277 C283 1.363 . S
C278 C279 1.363 . S
C278 C283 1.379 . S
C278 N285 1.356 . S
C279 C278 1.363 . S
C279 C282 1.363 . S
N280 C282 1.356 . S
N280 H292 0.984 . S
N280 H293 0.985 . S
N281 C283 1.356 . S
N281 H286 0.984 . S
N281 H287 0.985 . S
C282 C276 1.379 . S
C282 C279 1.363 . S
C282 N280 1.356 . S
C283 C277 1.363 . S
C283 C278 1.379 . S
C283 N281 1.356 . S
N284 C276 1.356 . S
N284 H290 0.984 . S
N284 H291 0.984 . S
N285 C278 1.356 . S
N285 H288 0.984 . S
N285 H289 0.985 . S
H286 N281 0.984 . S
H287 N281 0.985 . S
H288 N285 0.984 . S
H289 N285 0.985 . S
H290 N284 0.984 . S
H291 N284 0.984 . S
H292 N280 0.984 . S
H293 N280 0.985 . S
C294 C295 1.363 . S
C294 C300 1.379 . S
C294 N302 1.356 . S
C295 C294 1.363 . S
C295 C301 1.363 . S
C296 C297 1.363 . S
C296 C301 1.379 . S
C296 N303 1.356 . S
C297 C296 1.363 . S
C297 C300 1.363 . S
N298 C300 1.356 . S
N298 H310 0.984 . S
N298 H311 0.985 . S
N299 C301 1.356 . S
N299 H304 0.984 . S
N299 H305 0.985 . S
C300 C294 1.379 . S
C300 C297 1.363 . S
C300 N298 1.356 . S
C301 C295 1.363 . S
C301 C296 1.379 . S
C301 N299 1.356 . S
N302 C294 1.356 . S
N302 H308 0.984 . S
N302 H309 0.984 . S
N303 C296 1.356 . S
N303 H306 0.984 . S
N303 H307 0.985 . S
H304 N299 0.984 . S
H305 N299 0.985 . S
H306 N303 0.984 . S
H307 N303 0.985 . S
H308 N302 0.984 . S
H309 N302 0.984 . S
H310 N298 0.984 . S
H311 N298 0.985 . S
C312 C313 1.363 . S
C312 C318 1.379 . S
C312 N320 1.356 . S
C313 C312 1.363 . S
C313 C319 1.363 . S
C314 C315 1.363 . S
C314 C319 1.379 . S
C314 N321 1.356 . S
C315 C314 1.363 . S
C315 C318 1.363 . S
N316 C318 1.356 . S
N316 H328 0.984 . S
N316 H329 0.985 . S
N317 C319 1.356 . S
N317 H322 0.984 . S
N317 H323 0.985 . S
C318 C312 1.379 . S
C318 C315 1.363 . S
C318 N316 1.356 . S
C319 C313 1.363 . S
C319 C314 1.379 . S
C319 N317 1.356 . S
N320 C312 1.356 . S
N320 H326 0.984 . S
N320 H327 0.984 . S
N321 C314 1.356 . S
N321 H324 0.984 . S
N321 H325 0.985 . S
H322 N317 0.984 . S
H323 N317 0.985 . S
H324 N321 0.984 . S
H325 N321 0.985 . S
H326 N320 0.984 . S
H327 N320 0.984 . S
H328 N316 0.984 . S
H329 N316 0.985 . S
C330 C331 1.363 . S
C330 C336 1.379 . S
C330 N338 1.356 . S
C331 C330 1.363 . S
C331 C337 1.363 . S
C332 C333 1.363 . S
C332 C337 1.379 . S
C332 N339 1.356 . S
C333 C332 1.363 . S
C333 C336 1.363 . S
N334 C336 1.356 . S
N334 H346 0.984 . S
N334 H347 0.985 . S
N335 C337 1.356 . S
N335 H340 0.984 . S
N335 H341 0.985 . S
C336 C330 1.379 . S
C336 C333 1.363 . S
C336 N334 1.356 . S
C337 C331 1.363 . S
C337 C332 1.379 . S
C337 N335 1.356 . S
N338 C330 1.356 . S
N338 H344 0.984 . S
N338 H345 0.984 . S
N339 C332 1.356 . S
N339 H342 0.984 . S
N339 H343 0.985 . S
H340 N335 0.984 . S
H341 N335 0.985 . S
H342 N339 0.984 . S
H343 N339 0.985 . S
H344 N338 0.984 . S
H345 N338 0.984 . S
H346 N334 0.984 . S
H347 N334 0.985 . S
C348 C349 1.363 . S
C348 C354 1.379 . S
C348 N356 1.356 . S
C349 C348 1.363 . S
C349 C355 1.363 . S
C350 C351 1.363 . S
C350 C355 1.379 . S
C350 N357 1.356 . S
C351 C350 1.363 . S
C351 C354 1.363 . S
N352 C354 1.356 . S
N352 H364 0.984 . S
N352 H365 0.985 . S
N353 C355 1.356 . S
N353 H358 0.984 . S
N353 H359 0.985 . S
C354 C348 1.379 . S
C354 C351 1.363 . S
C354 N352 1.356 . S
C355 C349 1.363 . S
C355 C350 1.379 . S
C355 N353 1.356 . S
N356 C348 1.356 . S
N356 H362 0.984 . S
N356 H363 0.984 . S
N357 C350 1.356 . S
N357 H360 0.984 . S
N357 H361 0.985 . S
H358 N353 0.984 . S
H359 N353 0.985 . S
H360 N357 0.984 . S
H361 N357 0.985 . S
H362 N356 0.984 . S
H363 N356 0.984 . S
H364 N352 0.984 . S
H365 N352 0.985 . S
C366 C367 1.363 . S
C366 C372 1.379 . S
C366 N374 1.356 . S
C367 C366 1.363 . S
C367 C373 1.363 . S
C368 C369 1.363 . S
C368 C373 1.379 . S
C368 N375 1.356 . S
C369 C368 1.363 . S
C369 C372 1.363 . S
N370 C372 1.356 . S
N370 H382 0.984 . S
N370 H383 0.985 . S
N371 C373 1.356 . S
N371 H376 0.984 . S
N371 H377 0.985 . S
C372 C366 1.379 . S
C372 C369 1.363 . S
C372 N370 1.356 . S
C373 C367 1.363 . S
C373 C368 1.379 . S
C373 N371 1.356 . S
N374 C366 1.356 . S
N374 H380 0.984 . S
N374 H381 0.984 . S
N375 C368 1.356 . S
N375 H378 0.984 . S
N375 H379 0.985 . S
H376 N371 0.984 . S
H377 N371 0.985 . S
H378 N375 0.984 . S
H379 N375 0.985 . S
H380 N374 0.984 . S
H381 N374 0.984 . S
H382 N370 0.984 . S
H383 N370 0.985 . S
C384 C385 1.363 . S
C384 C390 1.379 . S
C384 N392 1.356 . S
C385 C384 1.363 . S
C385 C391 1.363 . S
C386 C387 1.363 . S
C386 C391 1.379 . S
C386 N393 1.356 . S
C387 C386 1.363 . S
C387 C390 1.363 . S
N388 C390 1.356 . S
N388 H400 0.984 . S
N388 H401 0.985 . S
N389 C391 1.356 . S
N389 H394 0.984 . S
N389 H395 0.985 . S
C390 C384 1.379 . S
C390 C387 1.363 . S
C390 N388 1.356 . S
C391 C385 1.363 . S
C391 C386 1.379 . S
C391 N389 1.356 . S
N392 C384 1.356 . S
N392 H398 0.984 . S
N392 H399 0.984 . S
N393 C386 1.356 . S
N393 H396 0.984 . S
N393 H397 0.985 . S
H394 N389 0.984 . S
H395 N389 0.985 . S
H396 N393 0.984 . S
H397 N393 0.985 . S
H398 N392 0.984 . S
H399 N392 0.984 . S
H400 N388 0.984 . S
H401 N388 0.985 . S
C402 C403 1.363 . S
C402 C408 1.379 . S
C402 N410 1.356 . S
C403 C402 1.363 . S
C403 C409 1.363 . S
C404 C405 1.363 . S
C404 C409 1.379 . S
C404 N411 1.356 . S
C405 C404 1.363 . S
C405 C408 1.363 . S
N406 C408 1.356 . S
N406 H418 0.984 . S
N406 H419 0.985 . S
N407 C409 1.356 . S
N407 H412 0.984 . S
N407 H413 0.985 . S
C408 C402 1.379 . S
C408 C405 1.363 . S
C408 N406 1.356 . S
C409 C403 1.363 . S
C409 C404 1.379 . S
C409 N407 1.356 . S
N410 C402 1.356 . S
N410 H416 0.984 . S
N410 H417 0.984 . S
N411 C404 1.356 . S
N411 H414 0.984 . S
N411 H415 0.985 . S
H412 N407 0.984 . S
H413 N407 0.985 . S
H414 N411 0.984 . S
H415 N411 0.985 . S
H416 N410 0.984 . S
H417 N410 0.984 . S
H418 N406 0.984 . S
H419 N406 0.985 . S
C420 C421 1.363 . S
C420 C426 1.379 . S
C420 N428 1.356 . S
C421 C420 1.363 . S
C421 C427 1.363 . S
C422 C423 1.363 . S
C422 C427 1.379 . S
C422 N429 1.356 . S
C423 C422 1.363 . S
C423 C426 1.363 . S
N424 C426 1.356 . S
N424 H436 0.984 . S
N424 H437 0.985 . S
N425 C427 1.356 . S
N425 H430 0.984 . S
N425 H431 0.985 . S
C426 C420 1.379 . S
C426 C423 1.363 . S
C426 N424 1.356 . S
C427 C421 1.363 . S
C427 C422 1.379 . S
C427 N425 1.356 . S
N428 C420 1.356 . S
N428 H434 0.984 . S
N428 H435 0.984 . S
N429 C422 1.356 . S
N429 H432 0.984 . S
N429 H433 0.985 . S
H430 N425 0.984 . S
H431 N425 0.985 . S
H432 N429 0.984 . S
H433 N429 0.985 . S
H434 N428 0.984 . S
H435 N428 0.984 . S
H436 N424 0.984 . S
H437 N424 0.985 . S
C438 C439 1.363 . S
C438 C444 1.379 . S
C438 N446 1.356 . S
C439 C438 1.363 . S
C439 C445 1.363 . S
C440 C441 1.363 . S
C440 C445 1.379 . S
C440 N447 1.356 . S
C441 C440 1.363 . S
C441 C444 1.363 . S
N442 C444 1.356 . S
N442 H454 0.984 . S
N442 H455 0.985 . S
N443 C445 1.356 . S
N443 H448 0.984 . S
N443 H449 0.985 . S
C444 C438 1.379 . S
C444 C441 1.363 . S
C444 N442 1.356 . S
C445 C439 1.363 . S
C445 C440 1.379 . S
C445 N443 1.356 . S
N446 C438 1.356 . S
N446 H452 0.984 . S
N446 H453 0.984 . S
N447 C440 1.356 . S
N447 H450 0.984 . S
N447 H451 0.985 . S
H448 N443 0.984 . S
H449 N443 0.985 . S
H450 N447 0.984 . S
H451 N447 0.985 . S
H452 N446 0.984 . S
H453 N446 0.984 . S
H454 N442 0.984 . S
H455 N442 0.985 . S
C456 C457 1.363 . S
C456 C462 1.379 . S
C456 N464 1.356 . S
C457 C456 1.363 . S
C457 C463 1.363 . S
C458 C459 1.363 . S
C458 C463 1.379 . S
C458 N465 1.356 . S
C459 C458 1.363 . S
C459 C462 1.363 . S
N460 C462 1.356 . S
N460 H472 0.984 . S
N460 H473 0.985 . S
N461 C463 1.356 . S
N461 H466 0.984 . S
N461 H467 0.985 . S
C462 C456 1.379 . S
C462 C459 1.363 . S
C462 N460 1.356 . S
C463 C457 1.363 . S
C463 C458 1.379 . S
C463 N461 1.356 . S
N464 C456 1.356 . S
N464 H470 0.984 . S
N464 H471 0.984 . S
N465 C458 1.356 . S
N465 H468 0.984 . S
N465 H469 0.985 . S
H466 N461 0.984 . S
H467 N461 0.985 . S
H468 N465 0.984 . S
H469 N465 0.985 . S
H470 N464 0.984 . S
H471 N464 0.984 . S
H472 N460 0.984 . S
H473 N460 0.985 . S
C474 C475 1.363 . S
C474 C480 1.379 . S
C474 N482 1.356 . S
C475 C474 1.363 . S
C475 C481 1.363 . S
C476 C477 1.363 . S
C476 C481 1.379 . S
C476 N483 1.356 . S
C477 C476 1.363 . S
C477 C480 1.363 . S
N478 C480 1.356 . S
N478 H490 0.984 . S
N478 H491 0.985 . S
N479 C481 1.356 . S
N479 H484 0.984 . S
N479 H485 0.985 . S
C480 C474 1.379 . S
C480 C477 1.363 . S
C480 N478 1.356 . S
C481 C475 1.363 . S
C481 C476 1.379 . S
C481 N479 1.356 . S
N482 C474 1.356 . S
N482 H488 0.984 . S
N482 H489 0.984 . S
N483 C476 1.356 . S
N483 H486 0.984 . S
N483 H487 0.985 . S
H484 N479 0.984 . S
H485 N479 0.985 . S
H486 N483 0.984 . S
H487 N483 0.985 . S
H488 N482 0.984 . S
H489 N482 0.984 . S
H490 N478 0.984 . S
H491 N478 0.985 . S
C492 C493 1.363 . S
C492 C498 1.379 . S
C492 N500 1.356 . S
C493 C492 1.363 . S
C493 C499 1.363 . S
C494 C495 1.363 . S
C494 C499 1.379 . S
C494 N501 1.356 . S
C495 C494 1.363 . S
C495 C498 1.363 . S
N496 C498 1.356 . S
N496 H508 0.984 . S
N496 H509 0.985 1_554 S
N497 C499 1.356 . S
N497 H502 0.984 . S
N497 H503 0.985 . S
C498 C492 1.379 . S
C498 C495 1.363 . S
C498 N496 1.356 . S
C499 C493 1.363 . S
C499 C494 1.379 . S
C499 N497 1.356 . S
N500 C492 1.356 . S
N500 H506 0.984 . S
N500 H507 0.984 . S
N501 C494 1.356 . S
N501 H504 0.984 . S
N501 H505 0.985 . S
H502 N497 0.984 . S
H503 N497 0.985 . S
H504 N501 0.984 . S
H505 N501 0.985 . S
H506 N500 0.984 . S
H507 N500 0.984 . S
H508 N496 0.984 . S
H509 N496 0.985 1_556 S
C510 C511 1.363 . S
C510 C516 1.379 . S
C510 N518 1.356 1_545 S
C511 C510 1.363 . S
C511 C517 1.363 . S
C512 C513 1.363 . S
C512 C517 1.379 . S
C512 N519 1.356 . S
C513 C512 1.363 . S
C513 C516 1.363 . S
N514 C516 1.356 1_565 S
N514 H526 0.984 . S
N514 H527 0.985 1_565 S
N515 C517 1.356 . S
N515 H520 0.984 . S
N515 H521 0.985 . S
C516 C510 1.379 . S
C516 C513 1.363 . S
C516 N514 1.356 1_545 S
C517 C511 1.363 . S
C517 C512 1.379 . S
C517 N515 1.356 . S
N518 C510 1.356 1_565 S
N518 H524 0.984 . S
N518 H525 0.984 . S
N519 C512 1.356 . S
N519 H522 0.984 . S
N519 H523 0.985 . S
H520 N515 0.984 . S
H521 N515 0.985 . S
H522 N519 0.984 . S
H523 N519 0.985 . S
H524 N518 0.984 . S
H525 N518 0.984 . S
H526 N514 0.984 . S
H527 N514 0.985 1_545 S
C528 C529 1.363 . S
C528 C534 1.379 . S
C528 N536 1.356 . S
C529 C528 1.363 . S
C529 C535 1.363 . S
C530 C531 1.363 . S
C530 C535 1.379 . S
C530 N537 1.356 . S
C531 C530 1.363 . S
C531 C534 1.363 . S
N532 C534 1.356 . S
N532 H544 0.984 . S
N532 H545 0.985 . S
N533 C535 1.356 . S
N533 H538 0.984 . S
N533 H539 0.985 . S
C534 C528 1.379 . S
C534 C531 1.363 . S
C534 N532 1.356 . S
C535 C529 1.363 . S
C535 C530 1.379 . S
C535 N533 1.356 . S
N536 C528 1.356 . S
N536 H542 0.984 . S
N536 H543 0.984 . S
N537 C530 1.356 . S
N537 H540 0.984 . S
N537 H541 0.985 . S
H538 N533 0.984 . S
H539 N533 0.985 . S
H540 N537 0.984 . S
H541 N537 0.985 . S
H542 N536 0.984 . S
H543 N536 0.984 . S
H544 N532 0.984 . S
H545 N532 0.985 . S
C546 C547 1.363 1_565 S
C546 C552 1.379 . S
C546 N554 1.356 . S
C547 C546 1.363 1_545 S
C547 C553 1.363 . S
C548 C549 1.363 . S
C548 C553 1.379 . S
C548 N555 1.356 . S
C549 C548 1.363 . S
C549 C552 1.363 1_545 S
N550 C552 1.356 . S
N550 H562 0.984 . S
N550 H563 0.985 . S
N551 C553 1.356 . S
N551 H556 0.984 . S
N551 H557 0.985 . S
C552 C546 1.379 . S
C552 C549 1.363 1_565 S
C552 N550 1.356 . S
C553 C547 1.363 . S
C553 C548 1.379 . S
C553 N551 1.356 . S
N554 C546 1.356 . S
N554 H560 0.984 . S
N554 H561 0.984 . S
N555 C548 1.356 . S
N555 H558 0.984 . S
N555 H559 0.985 . S
H556 N551 0.984 . S
H557 N551 0.985 . S
H558 N555 0.984 . S
H559 N555 0.985 . S
H560 N554 0.984 . S
H561 N554 0.984 . S
H562 N550 0.984 . S
H563 N550 0.985 . S
C564 C565 1.363 . S
C564 C570 1.379 . S
C564 N572 1.356 . S
C565 C564 1.363 . S
C565 C571 1.363 . S
C566 C567 1.363 . S
C566 C571 1.379 . S
C566 N573 1.356 . S
C567 C566 1.363 . S
C567 C570 1.363 . S
N568 C570 1.356 . S
N568 H580 0.984 . S
N568 H581 0.985 . S
N569 C571 1.356 . S
N569 H574 0.984 . S
N569 H575 0.985 . S
C570 C564 1.379 . S
C570 C567 1.363 . S
C570 N568 1.356 . S
C571 C565 1.363 . S
C571 C566 1.379 . S
C571 N569 1.356 . S
N572 C564 1.356 . S
N572 H578 0.984 . S
N572 H579 0.984 . S
N573 C566 1.356 . S
N573 H576 0.984 1_556 S
N573 H577 0.985 . S
H574 N569 0.984 . S
H575 N569 0.985 . S
H576 N573 0.984 1_554 S
H577 N573 0.985 . S
H578 N572 0.984 . S
H579 N572 0.984 . S
H580 N568 0.984 . S
H581 N568 0.985 . S
C582 C583 1.363 . S
C582 C588 1.379 . S
C582 N590 1.356 . S
C583 C582 1.363 . S
C583 C589 1.363 1_455 S
C584 C585 1.363 1_655 S
C584 C589 1.379 . S
C584 N591 1.356 . S
C585 C584 1.363 1_455 S
C585 C588 1.363 . S
N586 C588 1.356 . S
N586 H598 0.984 . S
N586 H599 0.985 . S
N587 C589 1.356 . S
N587 H592 0.984 . S
N587 H593 0.985 . S
C588 C582 1.379 . S
C588 C585 1.363 . S
C588 N586 1.356 . S
C589 C583 1.363 1_655 S
C589 C584 1.379 . S
C589 N587 1.356 . S
N590 C582 1.356 . S
N590 H596 0.984 . S
N590 H597 0.984 . S
N591 C584 1.356 . S
N591 H594 0.984 . S
N591 H595 0.985 . S
H592 N587 0.984 . S
H593 N587 0.985 . S
H594 N591 0.984 . S
H595 N591 0.985 . S
H596 N590 0.984 . S
H597 N590 0.984 . S
H598 N586 0.984 . S
H599 N586 0.985 . S
C277 C8 2.063 . S
C279 C265 2.086 . S
C295 C26 1.415 . S
C297 C193 1.372 . S
C313 C48 1.579 . S
C315 C229 1.581 . S
C331 C19 1.957 . S
C333 C241 1.956 . S
C351 C169 1.566 . S
C349 C36 1.573 . S
C369 C205 1.825 . S
C367 C59 1.816 . S
C385 C28 1.601 . S
C387 C121 1.606 . S
C403 C46 1.288 . S
C405 C133 1.288 . S
C421 C16 1.642 . S
C423 C61 1.630 . S
C441 C97 1.793 . S
C439 C39 1.797 . S
C459 C157 1.098 . S
C457 C56 1.112 . S
C475 C6 1.483 . S
C477 C85 1.414 . S
C495 C163 1.400 1_554 S
C493 C9 1.408 . S
C511 C21 1.517 . S
C513 C91 1.506 . S
C529 C49 1.484 . S
C531 C127 1.485 . S
C549 C235 1.471 . S
C547 C29 1.480 . S
C567 C271 1.628 . S
C565 C41 1.575 . S
C583 C1 1.506 . S
C585 C199 1.506 . S
