# Generated by pormake.
# Topology zzz, (3,6)-cn, num edge types: 1
# Building blocks:
#     Node 0, Type 0, BuildingBlock: QEWDON_clean_linker_0, # of connection points: 3
#     Node 1, Type 0, BuildingBlock: QEWDON_clean_linker_0, # of connection points: 3
#     Node 2, Type 0, BuildingBlock: QEWDON_clean_linker_0, # of connection points: 3
#     Node 3, Type 0, BuildingBlock: QEWDON_clean_linker_0, # of connection points: 3
#     Node 4, Type 0, BuildingBlock: QEWDON_clean_linker_0, # of connection points: 3
#     Node 5, Type 0, BuildingBlock: QEWDON_clean_linker_0, # of connection points: 3
#     Node 6, Type 0, BuildingBlock: QEWDON_clean_linker_0, # of connection points: 3
#     Node 7, Type 0, BuildingBlock: QEWDON_clean_linker_0, # of connection points: 3
#     Node 8, Type 1, BuildingBlock: GEDQOX_clean_sbu_0, # of connection points: 6
#     Node 9, Type 1, BuildingBlock: GEDQOX_clean_sbu_0, # of connection points: 6
#     Node 10, Type 1, BuildingBlock: GEDQOX_clean_sbu_0, # of connection points: 6
#     Node 11, Type 1, BuildingBlock: GEDQOX_clean_sbu_0, # of connection points: 6
#     Edge 12, Type (0, 1), BuildingBlock: TEMPAE_clean_linker_10, # of connection points: 2
#     Edge 13, Type (0, 1), BuildingBlock: TEMPAE_clean_linker_10, # of connection points: 2
#     Edge 14, Type (0, 1), BuildingBlock: TEMPAE_clean_linker_10, # of connection points: 2
#     Edge 15, Type (0, 1), BuildingBlock: TEMPAE_clean_linker_10, # of connection points: 2
#     Edge 16, Type (0, 1), BuildingBlock: TEMPAE_clean_linker_10, # of connection points: 2
#     Edge 17, Type (0, 1), BuildingBlock: TEMPAE_clean_linker_10, # of connection points: 2
#     Edge 18, Type (0, 1), BuildingBlock: TEMPAE_clean_linker_10, # of connection points: 2
#     Edge 19, Type (0, 1), BuildingBlock: TEMPAE_clean_linker_10, # of connection points: 2
#     Edge 20, Type (0, 1), BuildingBlock: TEMPAE_clean_linker_10, # of connection points: 2
#     Edge 21, Type (0, 1), BuildingBlock: TEMPAE_clean_linker_10, # of connection points: 2
#     Edge 22, Type (0, 1), BuildingBlock: TEMPAE_clean_linker_10, # of connection points: 2
#     Edge 23, Type (0, 1), BuildingBlock: TEMPAE_clean_linker_10, # of connection points: 2
#     Edge 24, Type (0, 1), BuildingBlock: TEMPAE_clean_linker_10, # of connection points: 2
#     Edge 25, Type (0, 1), BuildingBlock: TEMPAE_clean_linker_10, # of connection points: 2
#     Edge 26, Type (0, 1), BuildingBlock: TEMPAE_clean_linker_10, # of connection points: 2
#     Edge 27, Type (0, 1), BuildingBlock: TEMPAE_clean_linker_10, # of connection points: 2
#     Edge 28, Type (0, 1), BuildingBlock: TEMPAE_clean_linker_10, # of connection points: 2
#     Edge 29, Type (0, 1), BuildingBlock: TEMPAE_clean_linker_10, # of connection points: 2
#     Edge 30, Type (0, 1), BuildingBlock: TEMPAE_clean_linker_10, # of connection points: 2
#     Edge 31, Type (0, 1), BuildingBlock: TEMPAE_clean_linker_10, # of connection points: 2
#     Edge 32, Type (0, 1), BuildingBlock: TEMPAE_clean_linker_10, # of connection points: 2
#     Edge 33, Type (0, 1), BuildingBlock: TEMPAE_clean_linker_10, # of connection points: 2
#     Edge 34, Type (0, 1), BuildingBlock: TEMPAE_clean_linker_10, # of connection points: 2
#     Edge 35, Type (0, 1), BuildingBlock: TEMPAE_clean_linker_10, # of connection points: 2
# Relax obj value: 0.067
# Max RMSD: 0.160
# Mean RMSD: 0.050
data_MOF--net-zzz--node1-GEDQOX_clean_sbu_0--node2-QEWDON_clean_linker_0--edge1-TEMPAE_clean_linker_10
_symmetry_space_group_name_H-M    P1
_symmetry_Int_Tables_number       1
_symmetry_cell_setting            triclinic
loop_
_symmetry_equiv_pos_as_xyz
'x, y, z'
_cell_length_a     58.558631
_cell_length_b     57.514977
_cell_length_c     17.113512
_cell_angle_alpha  80.372011
_cell_angle_beta   89.261779
_cell_angle_gamma 98.716732
loop_
_atom_site_label
_atom_site_type_symbol
_atom_site_fract_x
_atom_site_fract_y
_atom_site_fract_z
_atom_type_partial_charge
H0 H 0.80565 0.55565 0.02346 0.0
C1 C 0.80955 0.55203 0.08565 0.0
C2 C 0.82852 0.5405 0.10877 0.0
C3 C 0.79692 0.5607 0.14217 0.0
H4 H 0.85006 0.52984 0.20416 0.0
C5 C 0.83451 0.53739 0.18826 0.0
C6 C 0.82296 0.54698 0.24454 0.0
C7 C 0.80392 0.55837 0.22127 0.0
C8 C 0.77977 0.57659 0.11625 0.0
H9 H 0.79531 0.56656 0.26353 0.0
C10 C 0.75733 0.56776 0.09457 0.0
C11 C 0.74134 0.5836 0.07197 0.0
C12 C 0.78612 0.60117 0.11487 0.0
H13 H 0.80326 0.60825 0.13142 0.0
C14 C 0.77052 0.61683 0.09231 0.0
H15 H 0.75237 0.54877 0.09572 0.0
C16 C 0.74833 0.60818 0.07131 0.0
H17 H 0.73644 0.62079 0.05603 0.0
H18 H 0.77557 0.63575 0.09179 0.0
H19 H 0.03306 0.79767 0.1216 0.0
C20 C 0.03538 0.80332 0.17868 0.0
C21 C 0.04432 0.82726 0.18172 0.0
C22 C 0.02787 0.7872 0.24917 0.0
H23 H 0.052 0.85374 0.25599 0.0
C24 C 0.04618 0.83494 0.25492 0.0
C25 C 0.03793 0.81981 0.3253 0.0
C26 C 0.02885 0.79585 0.3224 0.0
C27 C 0.01596 0.76248 0.24529 0.0
H28 H 0.02211 0.78414 0.37673 0.0
C29 C 0.02483 0.7474 0.19842 0.0
C30 C 0.01231 0.72456 0.1939 0.0
C31 C 0.99467 0.7542 0.28723 0.0
H32 H 0.98716 0.76533 0.32241 0.0
C33 C 0.98242 0.73176 0.28282 0.0
H34 H 0.04121 0.75338 0.16567 0.0
C35 C 0.99108 0.7171 0.23649 0.0
H36 H 0.98121 0.6997 0.23438 0.0
H37 H 0.96601 0.72572 0.31524 0.0
H38 H 0.76595 0.01909 0.00276 0.0
C39 C 0.76063 0.01944 0.06339 0.0
C40 C 0.7419 0.03093 0.07844 0.0
C41 C 0.77124 1.00683 0.12692 0.0
H42 H 0.7189 0.03793 0.16731 0.0
C43 C 0.7342 0.03018 0.1567 0.0
C44 C 0.74389 0.01691 0.22029 0.0
C45 C 0.76259 1.00545 0.20514 0.0
C46 C 0.78918 0.99227 0.11209 0.0
H47 H 0.76992 0.99478 0.25394 0.0
C48 C 0.81054 1.00268 0.07287 0.0
C49 C 0.82799 0.98859 0.06468 0.0
C50 C 0.78503 0.96762 0.14067 0.0
H51 H 0.76869 0.95924 0.17054 0.0
C52 C 0.80192 0.95357 0.1316 0.0
H53 H 0.81365 0.0217 0.05056 0.0
C54 C 0.82325 0.96391 0.09482 0.0
H55 H 0.83626 0.95252 0.09221 0.0
H56 H 0.79861 0.93461 0.15458 0.0
H57 H 0.55121 0.80086 0.32192 0.0
C58 C 0.54974 0.78746 0.37492 0.0
C59 C 0.54427 0.76348 0.36649 0.0
C60 C 0.5539 0.79373 0.45064 0.0
H61 H 0.53924 0.72698 0.4252 0.0
C62 C 0.5432 0.74552 0.43279 0.0
C63 C 0.54728 0.75094 0.50829 0.0
C64 C 0.55243 0.77501 0.51732 0.0
C65 C 0.55993 0.81951 0.46012 0.0
H66 H 0.55474 0.77884 0.5767 0.0
C67 C 0.55346 0.83834 0.40425 0.0
C68 C 0.55934 0.86251 0.41346 0.0
C69 C 0.57261 0.8256 0.52522 0.0
H70 H 0.57901 0.81225 0.56779 0.0
C71 C 0.57761 0.84923 0.53646 0.0
H72 H 0.54401 0.83434 0.3532 0.0
C73 C 0.57088 0.86747 0.48186 0.0
H74 H 0.57484 0.88553 0.49362 0.0
H75 H 0.58696 0.85347 0.58772 0.0
H76 H 0.26977 0.56015 0.7634 0.0
C77 C 0.26377 0.55139 0.71443 0.0
C78 C 0.24046 0.54097 0.71359 0.0
C79 C 0.27904 0.55174 0.64973 0.0
H80 H 0.21461 0.52368 0.64523 0.0
C81 C 0.23282 0.53057 0.64822 0.0
C82 C 0.24755 0.53121 0.58257 0.0
C83 C 0.27072 0.542 0.58326 0.0
C84 C 0.30238 0.56605 0.64541 0.0
H85 H 0.28205 0.54351 0.53145 0.0
C86 C 0.32114 0.55713 0.68462 0.0
C87 C 0.34305 0.57163 0.68047 0.0
C88 C 0.30567 0.5893 0.60189 0.0
H89 H 0.29145 0.5964 0.57147 0.0
C90 C 0.32721 0.60364 0.59768 0.0
H91 H 0.31865 0.53916 0.71828 0.0
C92 C 0.34575 0.59494 0.63659 0.0
H93 H 0.36239 0.60637 0.63111 0.0
H94 H 0.32959 0.62156 0.56387 0.0
H95 H 0.02327 0.28682 0.67773 0.0
C96 C 0.02983 0.28142 0.62518 0.0
C97 C 0.03605 0.2585 0.63068 0.0
C98 C 0.03098 0.29674 0.55082 0.0
H99 H 0.04701 0.23275 0.56645 0.0
C100 C 0.04327 0.25084 0.56246 0.0
C101 C 0.04374 0.26509 0.4882 0.0
C102 C 0.03805 0.28818 0.48229 0.0
C103 C 0.0224 0.32038 0.54246 0.0
H104 H 0.03857 0.29912 0.42408 0.0
C105 C 0.02614 0.33582 0.5997 0.0
C106 C 0.0174 0.35788 0.58898 0.0
C107 C 1.00965 0.32737 0.47576 0.0
H108 H 1.0056 0.31588 0.43218 0.0
C109 C 1.00154 0.34913 0.46428 0.0
H110 H 0.03567 0.33073 0.65199 0.0
C111 C 1.0055 0.36428 0.51963 0.0
H112 H 0.99922 0.38125 0.50758 0.0
H113 H 0.99203 0.35429 0.41202 0.0
H114 H 0.30869 0.02902 0.77089 0.0
C115 C 0.31421 0.03888 0.71236 0.0
C116 C 0.3374 0.04952 0.69706 0.0
C117 C 0.29836 0.03977 0.65116 0.0
H118 H 0.36248 0.06868 0.60675 0.0
C119 C 0.34437 0.06152 0.62038 0.0
C120 C 0.32906 0.06195 0.55829 0.0
C121 C 0.30596 0.05099 0.57363 0.0
C122 C 0.27521 0.02519 0.66594 0.0
H123 H 0.29429 0.05022 0.52514 0.0
C124 C 0.25543 0.03533 0.68034 0.0
C125 C 0.2337 0.02066 0.69748 0.0
C126 C 0.27324 1.00048 0.66865 0.0
H127 H 0.28833 0.99242 0.65818 0.0
C128 C 0.2519 0.98593 0.68554 0.0
H129 H 0.25699 0.05445 0.67817 0.0
C130 C 0.23231 0.99586 0.70014 0.0
H131 H 0.21608 0.98398 0.71481 0.0
H132 H 0.25056 0.96684 0.68803 0.0
H133 H 0.56042 0.28119 0.45254 0.0
C134 C 0.5555 0.2946 0.40644 0.0
C135 C 0.56328 0.31861 0.41014 0.0
C136 C 0.54197 0.28813 0.34332 0.0
H137 H 0.56347 0.35498 0.35435 0.0
C138 C 0.55803 0.33637 0.34983 0.0
C139 C 0.54502 0.33074 0.28576 0.0
C140 C 0.53648 0.30662 0.28372 0.0
C141 C 0.53426 0.26224 0.3388 0.0
H142 H 0.52574 0.30246 0.23543 0.0
C143 C 0.53151 0.24437 0.40776 0.0
C144 C 0.52572 0.21999 0.40249 0.0
C145 C 0.53052 0.25496 0.2647 0.0
H146 H 0.53316 0.26764 0.20989 0.0
C147 C 0.524 0.23094 0.25956 0.0
H148 H 0.53374 0.24919 0.46595 0.0
C149 C 0.5217 0.21356 0.32765 0.0
H150 H 0.5175 0.19498 0.32136 0.0
H151 H 0.52128 0.22569 0.20211 0.0
Nd152 Nd 0.03012 0.03833 0.81604 0.0
Nd153 Nd 0.04674 0.04946 0.98749 0.0
C154 C 0.01106 0.01674 0.70219 0.0
C155 C 0.01314 0.99423 0.67355 0.0
C156 C 0.99664 0.98495 0.6236 0.0
C157 C 0.99861 0.96368 0.59596 0.0
C158 C 0.01702 0.95113 0.61844 0.0
C159 C 0.03342 0.96043 0.66907 0.0
C160 C 0.03158 0.98184 0.69586 0.0
C161 C 0.07648 0.05481 0.82628 0.0
C162 C 0.04544 0.99517 0.9545 0.0
C163 C 0.07085 0.07049 0.09288 0.0
C164 C 0.0681 0.09145 0.12987 0.0
C165 C 0.08321 0.09848 0.18753 0.0
C166 C 0.081 0.11894 0.22004 0.0
C167 C 0.06382 0.13292 0.1946 0.0
C168 C 0.04866 0.12567 0.13708 0.0
C169 C 0.05066 0.10504 0.10569 0.0
C170 C 0.99899 0.03969 0.9849 0.0
C171 C 0.02791 0.09092 0.854 0.0
O172 O 1.00124 0.01458 0.77279 0.0
O173 O 0.02933 0.03333 0.69038 0.0
O174 O 0.06451 0.06051 0.76436 0.0
O175 O 0.06388 0.04037 0.87918 0.0
O176 O 0.03679 1.00194 0.88452 0.0
O177 O 0.05179 1.01011 0.00442 0.0
O178 O 0.07614 0.07521 0.01653 0.0
O179 O 0.05502 0.05154 0.11273 0.0
O180 O 1.00994 0.04287 0.04877 0.0
O181 O 0.01371 0.04132 0.92966 0.0
O182 O 0.04086 0.08552 0.91527 0.0
O183 O 0.01917 0.07517 0.80972 0.0
H184 H 0.98226 0.9942 0.6057 0.0
H185 H 0.98563 0.95694 0.55741 0.0
H186 H 0.04799 0.95144 0.68642 0.0
H187 H 0.04468 0.9889 0.73338 0.0
H188 H 0.0968 0.08827 0.20703 0.0
H189 H 0.09299 0.12408 0.26405 0.0
H190 H 0.03504 0.1358 0.1171 0.0
H191 H 0.03862 0.09966 0.0623 0.0
Nd192 Nd 0.54389 0.02353 0.84919 0.0
Nd193 Nd 0.53486 0.05709 0.9749 0.0
C194 C 0.55721 0.98925 0.78274 0.0
C195 C 0.5781 0.98851 0.73471 0.0
C196 C 0.59905 1.00291 0.74548 0.0
C197 C 0.61864 1.00312 0.69792 0.0
C198 C 0.61775 0.98893 0.63834 0.0
C199 C 0.5968 0.97427 0.62826 0.0
C200 C 0.57714 0.9741 0.67606 0.0
C201 C 0.54197 0.06942 0.77133 0.0
C202 C 0.58839 0.05534 0.91713 0.0
C203 C 0.52563 0.08968 0.0569 0.0
C204 C 0.50365 0.09221 0.09541 0.0
C205 C 0.50358 0.10186 0.16536 0.0
C206 C 0.48265 0.10216 0.2056 0.0
C207 C 0.46141 0.09271 0.17668 0.0
C208 C 0.4616 0.08356 0.10551 0.0
C209 C 0.48247 0.08329 0.06545 0.0
C210 C 0.52972 1.00884 0.03368 0.0
C211 C 0.49115 0.02935 0.89444 0.0
O212 O 0.56058 0.9913 0.8568 0.0
O213 O 0.54287 1.00298 0.74964 0.0
O214 O 0.54581 0.05216 0.73537 0.0
O215 O 0.53983 0.0617 0.84467 0.0
O216 O 0.58063 0.04066 0.86845 0.0
O217 O 0.57473 0.06383 0.96417 0.0
O218 O 0.52617 0.093 0.97919 0.0
O219 O 0.53494 0.07112 0.08825 0.0
O220 O 0.51709 0.02329 0.05697 0.0
O221 O 0.54498 0.02037 0.98293 0.0
O222 O 0.49953 0.04855 0.92384 0.0
O223 O 0.50436 0.01479 0.87112 0.0
H224 H 0.60029 0.01427 0.79009 0.0
H225 H 0.63432 0.01492 0.70656 0.0
H226 H 0.59559 0.96296 0.58337 0.0
H227 H 0.56114 0.96288 0.66675 0.0
H228 H 0.51971 0.10873 0.18966 0.0
H229 H 0.48311 0.10957 0.25981 0.0
H230 H 0.44567 0.07582 0.08207 0.0
H231 H 0.48203 0.07559 0.01188 0.0
Nd232 Nd 0.52216 0.54584 0.97431 0.0
Nd233 Nd 0.54874 0.5337 0.82448 0.0
C234 C 0.49099 0.56149 0.05522 0.0
C235 C 0.49187 0.58535 0.07564 0.0
C236 C 0.473 0.59186 0.1133 0.0
C237 C 0.47403 0.61523 0.12818 0.0
C238 C 0.49375 0.63234 0.10387 0.0
C239 C 0.51251 0.62565 0.06605 0.0
C240 C 0.51164 0.60233 0.05271 0.0
C241 C 0.56958 0.5523 0.99365 0.0
C242 C 0.54671 0.58905 0.83011 0.0
C243 C 0.57518 0.51541 0.73282 0.0
C244 C 0.57693 0.49064 0.72577 0.0
C245 C 0.59825 0.48441 0.70618 0.0
C246 C 0.59972 0.4609 0.69751 0.0
C247 C 0.57983 0.44348 0.70796 0.0
C248 C 0.55872 0.4496 0.73075 0.0
C249 C 0.5573 0.47295 0.74006 0.0
C250 C 0.50302 0.53806 0.80761 0.0
C251 C 0.52728 0.49019 0.97464 0.0
O252 O 0.48987 0.56111 0.97901 0.0
O253 O 0.50611 0.54883 0.08955 0.0
O254 O 0.55487 0.55609 0.04582 0.0
O255 O 0.55853 0.54584 0.93661 0.0
O256 O 0.53039 0.58148 0.88693 0.0
O257 O 0.55884 0.57439 0.80203 0.0
O258 O 0.58201 0.52189 0.79942 0.0
O259 O 0.55591 0.52286 0.7097 0.0
O260 O 0.51863 0.54486 0.75023 0.0
O261 O 0.51161 0.52815 0.86958 0.0
O262 O 0.53936 0.49708 0.90638 0.0
O263 O 0.51786 0.50517 0.01143 0.0
H264 H 0.45757 0.57896 0.13095 0.0
H265 H 0.45947 0.62001 0.15816 0.0
H266 H 0.5281 0.63834 0.04853 0.0
H267 H 0.52644 0.59752 0.02422 0.0
H268 H 0.61363 0.49779 0.6961 0.0
H269 H 0.61613 0.45658 0.67923 0.0
H270 H 0.54319 0.43641 0.73936 0.0
H271 H 0.54075 0.47729 0.75684 0.0
Nd272 Nd 0.03285 0.55358 0.84166 0.0
Nd273 Nd 0.03739 0.52594 0.99572 0.0
C274 C 0.01757 0.58104 0.72023 0.0
C275 C 0.99571 0.57917 0.67697 0.0
C276 C 0.97619 0.58751 0.70418 0.0
C277 C 0.95528 0.58454 0.66554 0.0
C278 C 0.9534 0.5732 0.59863 0.0
C279 C 0.97303 0.5651 0.5711 0.0
C280 C 0.99392 0.56817 0.60944 0.0
C281 C 0.03885 0.5074 0.83115 0.0
C282 C 0.9856 0.52548 0.94475 0.0
C283 C 0.0535 0.49851 0.11515 0.0
C284 C 0.0759 0.50135 0.15399 0.0
C285 C 0.08728 0.48161 0.17618 0.0
C286 C 0.10898 0.48446 0.21001 0.0
C287 C 0.11956 0.50709 0.22267 0.0
C288 C 0.10825 0.52686 0.19935 0.0
C289 C 0.08673 0.52406 0.16486 0.0
C290 C 0.03109 0.57197 0.00565 0.0
C291 C 0.08457 0.55455 0.89348 0.0
O292 O 0.01627 0.58489 0.79323 0.0
O293 O 0.03117 0.5655 0.71202 0.0
O294 O 0.0488 0.52637 0.7841 0.0
O295 O 0.02583 0.51299 0.88258 0.0
O296 O 0.99497 0.5427 0.88769 0.0
O297 O 0.99855 0.51327 0.99302 0.0
O298 O 0.05445 0.49472 0.04209 0.0
O299 O 0.03971 0.51376 0.12489 0.0
O300 O 0.02121 0.55305 0.05311 0.0
O301 O 0.04434 0.56644 0.95482 0.0
O302 O 0.07524 0.53714 0.94989 0.0
O303 O 0.07155 0.56669 0.8454 0.0
H304 H 0.97696 0.5962 0.75578 0.0
H305 H 0.94065 0.59131 0.68779 0.0
H306 H 0.97219 0.55596 0.52055 0.0
H307 H 1.00859 0.56156 0.58674 0.0
H308 H 0.07939 0.46401 0.16723 0.0
H309 H 0.11728 0.4689 0.22781 0.0
H310 H 0.11614 0.54454 0.2075 0.0
H311 H 0.07861 0.5397 0.14643 0.0
C312 C 0.21261 0.04784 0.76346 0.0
C313 C 0.21237 0.0306 0.7141 0.0
C314 C 0.19198 0.05529 0.78566 0.0
C315 C 0.17062 0.04514 0.75834 0.0
C316 C 0.17042 0.02838 0.70636 0.0
C317 C 0.19124 0.02149 0.6845 0.0
C318 C 0.19296 0.07347 0.84018 0.0
C319 C 0.14809 0.01711 0.67551 0.0
C320 C 0.1129 0.0395 0.86936 0.0
C321 C 0.10187 0.05582 0.81912 0.0
C322 C 0.13587 0.03685 0.85306 0.0
C323 C 0.14821 0.05114 0.78561 0.0
C324 C 0.13774 0.069 0.73862 0.0
C325 C 0.11463 0.07101 0.75558 0.0
C326 C 0.14628 0.0175 0.90457 0.0
C327 C 0.15038 0.08495 0.66725 0.0
H328 H 0.22881 0.05489 0.78699 0.0
H329 H 0.19091 1.00858 0.64493 0.0
H330 H 0.18328 0.08802 0.81558 0.0
H331 H 0.18457 0.06488 0.89851 0.0
H332 H 0.211 0.08139 0.8498 0.0
H333 H 0.15094 1.00461 0.63469 0.0
H334 H 0.13654 1.00715 0.7259 0.0
H335 H 0.13892 0.03115 0.64354 0.0
H336 H 0.10315 0.02773 0.91866 0.0
H337 H 0.10622 0.0838 0.71695 0.0
H338 H 0.16388 0.02455 0.92147 0.0
H339 H 0.14796 1.00295 0.87071 0.0
H340 H 0.13554 1.00979 0.95942 0.0
H341 H 0.16824 0.09196 0.68185 0.0
H342 H 0.14136 0.10025 0.6447 0.0
H343 H 0.1517 0.07447 0.61898 0.0
C344 C 0.54389 0.20165 0.52524 0.0
C345 C 0.5255 0.20094 0.47346 0.0
C346 C 0.54599 0.18194 0.58419 0.0
C347 C 0.52925 0.16105 0.5918 0.0
C348 C 0.50979 0.16092 0.54342 0.0
C349 C 0.5082 0.1808 0.48476 0.0
C350 C 0.567 0.18288 0.63438 0.0
C351 C 0.49139 0.13917 0.54997 0.0
C352 C 0.54843 0.1006 0.65086 0.0
C353 C 0.54004 0.09372 0.72967 0.0
C354 C 0.54554 0.12269 0.60651 0.0
C355 C 0.53371 0.13834 0.64144 0.0
C356 C 0.52554 0.1317 0.7217 0.0
C357 C 0.52886 0.10943 0.76504 0.0
C358 C 0.55473 0.12902 0.52145 0.0
C359 C 0.51269 0.14777 0.76092 0.0
H360 H 0.5574 0.21707 0.51667 0.0
H361 H 0.49375 0.18027 0.44577 0.0
H362 H 0.562 0.17583 0.69761 0.0
H363 H 0.57886 0.17144 0.61494 0.0
H364 H 0.57657 0.20132 0.62948 0.0
H365 H 0.47597 0.14298 0.51589 0.0
H366 H 0.49856 0.12476 0.52682 0.0
H367 H 0.48585 0.13234 0.61291 0.0
H368 H 0.55713 0.08852 0.62328 0.0
H369 H 0.52204 0.10399 0.8255 0.0
H370 H 0.56633 0.14647 0.51207 0.0
H371 H 0.54018 0.13082 0.48109 0.0
H372 H 0.56444 0.11536 0.50436 0.0
H373 H 0.52274 0.16602 0.75328 0.0
H374 H 0.50915 0.14097 0.82528 0.0
H375 H 0.49598 0.14923 0.73213 0.0
C376 C 0.36975 0.54099 0.70648 0.0
C377 C 0.36359 0.56279 0.71861 0.0
C378 C 0.39126 0.53463 0.72999 0.0
C379 C 0.40693 0.55039 0.76675 0.0
C380 C 0.40005 0.57161 0.78408 0.0
C381 C 0.37854 0.57754 0.75976 0.0
C382 C 0.39783 0.51179 0.7107 0.0
C383 C 0.41603 0.58885 0.82374 0.0
C384 C 0.46163 0.53099 0.85949 0.0
C385 C 0.47833 0.54073 0.7986 0.0
C386 C 0.43823 0.53371 0.85003 0.0
C387 C 0.43141 0.54636 0.77792 0.0
C388 C 0.44827 0.55602 0.71625 0.0
C389 C 0.47143 0.5531 0.72738 0.0
C390 C 0.42085 0.52321 0.91728 0.0
C391 C 0.44188 0.56971 0.63847 0.0
H392 H 0.35834 0.52956 0.67449 0.0
H393 H 0.37373 0.59425 0.77042 0.0
H394 H 0.41123 0.51611 0.66186 0.0
H395 H 0.40533 0.50182 0.76272 0.0
H396 H 0.38279 0.50004 0.69198 0.0
H397 H 0.40713 0.60298 0.84171 0.0
H398 H 0.42333 0.57927 0.87698 0.0
H399 H 0.43074 0.59756 0.78223 0.0
H400 H 0.46685 0.52129 0.91452 0.0
H401 H 0.48424 0.56066 0.68004 0.0
H402 H 0.40672 0.51081 0.8967 0.0
H403 H 0.41288 0.53763 0.93729 0.0
H404 H 0.42879 0.51341 0.96878 0.0
H405 H 0.42831 0.55846 0.61078 0.0
H406 H 0.45693 0.57561 0.59584 0.0
H407 H 0.43464 0.5857 0.6491 0.0
C408 C 1.00236 0.38753 0.66107 0.0
C409 C 0.02045 0.37498 0.64712 0.0
C410 C 1.00581 0.40717 0.70101 0.0
C411 C 0.02775 0.41424 0.73087 0.0
C412 C 0.04553 0.40034 0.72358 0.0
C413 C 0.04176 0.38103 0.68123 0.0
C414 C 0.98634 0.42141 0.70597 0.0
C415 C 0.06894 0.40661 0.75686 0.0
C416 C 0.04362 0.48108 0.73138 0.0
C417 C 0.03718 0.48318 0.80894 0.0
C418 C 0.04112 0.4588 0.70621 0.0
C419 C 0.03259 0.43769 0.76036 0.0
C420 C 0.02699 0.43955 0.83992 0.0
C421 C 0.02899 0.46228 0.86293 0.0
C422 C 0.0468 0.45799 0.62043 0.0
C423 C 0.01859 0.41757 0.90044 0.0
H424 H 0.98559 0.38265 0.63727 0.0
H425 H 0.05586 0.37151 0.67146 0.0
H426 H 0.9833 0.42388 0.76791 0.0
H427 H 0.99114 0.43943 0.66959 0.0
H428 H 0.96991 0.41276 0.68443 0.0
H429 H 0.07928 0.39183 0.75981 0.0
H430 H 0.07865 0.42263 0.71864 0.0
H431 H 0.06711 0.41098 0.81717 0.0
H432 H 0.04997 0.49707 0.68906 0.0
H433 H 0.0242 0.4637 0.92316 0.0
H434 H 0.03107 0.45045 0.59213 0.0
H435 H 0.0599 0.44615 0.61651 0.0
H436 H 0.05353 0.47593 0.58601 0.0
H437 H 1.00096 0.40965 0.88654 0.0
H438 H 0.01803 0.42162 0.96161 0.0
H439 H 0.02998 0.40389 0.89843 0.0
C440 C 0.86458 0.98609 0.98944 0.0
C441 C 0.85167 0.99931 0.03043 0.0
C442 C 0.88825 0.9936 0.9707 0.0
C443 C 0.89926 0.01535 0.99067 0.0
C444 C 0.8859 0.02992 0.02492 0.0
C445 C 0.86238 0.02161 0.04536 0.0
C446 C 0.9018 0.97729 0.93525 0.0
C447 C 0.89679 0.05363 0.04478 0.0
C448 C 0.96165 0.01989 0.05188 0.0
C449 C 0.97377 0.03238 0.98276 0.0
C450 C 0.93752 0.01379 0.0542 0.0
C451 C 0.92504 0.02111 0.98646 0.0
C452 C 0.93723 0.03378 0.9162 0.0
C453 C 0.96158 0.03894 0.91477 0.0
C454 C 0.92539 0.99959 0.12957 0.0
C455 C 0.92455 0.04256 0.84364 0.0
H456 H 0.8564 0.96924 0.97487 0.0
H457 H 0.85279 0.03208 0.07691 0.0
H458 H 0.913 0.98737 0.88422 0.0
H459 H 0.91329 0.96963 0.98038 0.0
H460 H 0.89037 0.96236 0.91515 0.0
H461 H 0.88359 0.06458 0.05778 0.0
H462 H 0.90739 0.05056 0.0977 0.0
H463 H 0.90845 0.06389 0.99515 0.0
H464 H 0.97111 0.01476 0.10441 0.0
H465 H 0.97099 0.04886 0.86161 0.0
H466 H 0.91431 0.98335 0.11654 0.0
H467 H 0.91396 1.01039 0.15484 0.0
H468 H 0.93773 0.99404 0.17518 0.0
H469 H 0.91272 0.0276 0.82566 0.0
H470 H 0.93656 0.05118 0.79268 0.0
H471 H 0.91375 0.05571 0.85772 0.0
C472 C 0.56884 0.90477 0.33918 0.0
C473 C 0.55402 0.88268 0.35191 0.0
C474 C 0.5638 0.92432 0.28501 0.0
C475 C 0.54396 0.92166 0.23905 0.0
C476 C 0.52939 0.89926 0.24877 0.0
C477 C 0.53433 0.88021 0.30595 0.0
C478 C 0.57959 0.948 0.27804 0.0
C479 C 0.50848 0.89545 0.19906 0.0
C480 C 0.52028 0.97858 0.15723 0.0
C481 C 0.53157 0.98528 0.08218 0.0
C482 C 0.52378 0.95768 0.20822 0.0
C483 C 0.5383 0.94261 0.18264 0.0
C484 C 0.54878 0.94866 0.10532 0.0
C485 C 0.54566 0.97015 0.05677 0.0
C486 C 0.51284 0.95239 0.29096 0.0
C487 C 0.56379 0.93276 0.07457 0.0
H488 H 0.58455 0.90694 0.37163 0.0
H489 H 0.52248 0.86353 0.31515 0.0
H490 H 0.58739 0.95339 0.21711 0.0
H491 H 0.5695 0.96207 0.28903 0.0
H492 H 0.59375 0.94741 0.32056 0.0
H493 H 0.50008 0.87648 0.20867 0.0
H494 H 0.49561 0.90652 0.21366 0.0
H495 H 0.5135 0.9012 0.13519 0.0
H496 H 0.50944 0.99021 0.17771 0.0
H497 H 0.55456 0.97523 0.99947 0.0
H498 H 0.52658 0.9528 0.33502 0.0
H499 H 0.50258 0.93422 0.30247 0.0
H500 H 0.50139 0.96544 0.30084 0.0
H501 H 0.58018 0.9334 0.10644 0.0
H502 H 0.56805 0.93826 0.01003 0.0
H503 H 0.55501 0.91394 0.08568 0.0
C504 C 0.70662 0.58829 0.98957 0.0
C505 C 0.71708 0.57508 0.0518 0.0
C506 C 0.68288 0.583 0.97701 0.0
C507 C 0.66913 0.56377 0.02724 0.0
C508 C 0.6798 0.54944 0.08716 0.0
C509 C 0.70364 0.55528 0.09887 0.0
C510 C 0.67232 0.59873 0.91224 0.0
C511 C 0.66585 0.52858 0.14134 0.0
C512 C 0.60551 0.56892 0.05516 0.0
C513 C 0.59497 0.55484 0.00228 0.0
C514 C 0.62955 0.57174 0.06438 0.0
C515 C 0.64342 0.55991 0.02045 0.0
C516 C 0.63276 0.54527 0.96812 0.0
C517 C 0.60867 0.54297 0.95962 0.0
C518 C 0.64015 0.5877 0.12028 0.0
C519 C 0.64679 0.53206 0.92102 0.0
H520 H 0.71694 0.60333 0.9518 0.0
H521 H 0.71149 0.54502 0.14728 0.0
H522 H 0.66227 0.58773 0.87327 0.0
H523 H 0.66013 0.60845 0.93906 0.0
H524 H 0.68557 0.61202 0.87515 0.0
H525 H 0.67701 0.51766 0.17888 0.0
H526 H 0.65409 0.53525 0.18073 0.0
H527 H 0.65493 0.51696 0.10626 0.0
H528 H 0.59496 0.57806 0.08862 0.0
H529 H 0.60052 0.53152 0.92078 0.0
H530 H 0.65262 0.60262 0.08691 0.0
H531 H 0.64991 0.57754 0.16558 0.0
H532 H 0.62696 0.59531 0.15106 0.0
H533 H 0.65969 0.54496 0.88136 0.0
H534 H 0.63583 0.52095 0.88433 0.0
H535 H 0.65651 0.52036 0.96168 0.0
C536 C 1.00695 0.69964 0.08691 0.0
C537 C 0.02064 0.70767 0.1467 0.0
C538 C 0.01099 0.67961 0.05445 0.0
C539 C 0.02896 0.6669 0.08329 0.0
C540 C 0.04375 0.67586 0.14021 0.0
C541 C 0.03945 0.69617 0.17104 0.0
C542 C 0.9949 0.67106 0.99338 0.0
C543 C 0.06304 0.66295 0.17309 0.0
C544 C 0.01723 0.59953 0.08783 0.0
C545 C 0.0308 0.59653 0.02308 0.0
C546 C 0.01676 0.62217 0.10807 0.0
C547 C 0.0301 0.64267 0.06233 0.0
C548 C 0.04378 0.63984 0.99642 0.0
C549 C 0.044 0.61682 0.97762 0.0
C550 C 1.00186 0.62411 0.17873 0.0
C551 C 0.05811 0.66115 0.94566 0.0
H552 H 0.99227 0.70835 0.06836 0.0
H553 H 0.04985 0.70206 0.2181 0.0
H554 H 1.00484 0.66658 0.9438 0.0
H555 H 0.98329 0.65457 0.02099 0.0
H556 H 0.98406 0.68462 0.96888 0.0
H557 H 0.07486 0.67376 0.20831 0.0
H558 H 0.05557 0.646 0.212 0.0
H559 H 0.07324 0.65831 0.12448 0.0
H560 H 1.00691 0.58403 0.12334 0.0
H561 H 0.05452 0.6147 0.92748 0.0
H562 H 0.98862 0.63555 0.1595 0.0
H563 H 0.01261 0.63271 0.22207 0.0
H564 H 0.99291 0.60644 0.20926 0.0
H565 H 0.04676 0.67396 0.91944 0.0
H566 H 0.06795 0.65605 0.89693 0.0
H567 H 0.07049 0.67061 0.98269 0.0
C568 C 1.00981 0.22754 0.72078 0.0
C569 C 0.03218 0.24014 0.70293 0.0
C570 C 1.00638 0.20363 0.75938 0.0
C571 C 0.0258 0.19222 0.77976 0.0
C572 C 0.04823 0.20586 0.77089 0.0
C573 C 0.05113 0.22974 0.7328 0.0
C574 C 0.98214 0.18995 0.77088 0.0
C575 C 0.0694 0.19456 0.79322 0.0
C576 C 0.02214 0.12924 0.89538 0.0
C577 C 0.02404 0.11603 0.83433 0.0
C578 C 0.02145 0.15386 0.87883 0.0
C579 C 0.02318 0.16567 0.79909 0.0
C580 C 0.02414 0.15222 0.73695 0.0
C581 C 0.02431 0.12747 0.7554 0.0
C582 C 0.01999 0.16722 0.9471 0.0
C583 C 0.02619 0.16415 0.65097 0.0
H584 H 0.99516 0.23547 0.69683 0.0
H585 H 0.06844 0.23944 0.71809 0.0
H586 H 0.97911 0.17828 0.72535 0.0
H587 H 0.97975 0.17831 0.82995 0.0
H588 H 0.96895 0.20208 0.76529 0.0
H589 H 0.0852 0.20809 0.79105 0.0
H590 H 0.06698 0.18383 0.85375 0.0
H591 H 0.07214 0.18229 0.75155 0.0
H592 H 0.02148 0.12037 0.9565 0.0
H593 H 0.02587 0.11732 0.70814 0.0
H594 H 1.00986 0.18207 0.93228 0.0
H595 H 0.03768 0.17496 0.9611 0.0
H596 H 0.01201 0.15517 0.00128 0.0
H597 H 0.01187 0.1746 0.63707 0.0
H598 H 0.02584 0.15109 0.60978 0.0
H599 H 0.04263 0.17684 0.63975 0.0
C600 C 0.35669 0.02199 0.79474 0.0
C601 C 0.35556 0.04521 0.75532 0.0
C602 C 0.37689 0.01646 0.83222 0.0
C603 C 0.39643 0.03448 0.82862 0.0
C604 C 0.39464 0.05832 0.79491 0.0
C605 C 0.3741 0.06343 0.75979 0.0
C606 C 0.37784 0.99105 0.87065 0.0
C607 C 0.41503 0.07813 0.78984 0.0
C608 C 0.45112 0.03011 0.94195 0.0
C609 C 0.46606 0.02539 0.88387 0.0
C610 C 0.42777 0.0312 0.9273 0.0
C611 C 0.41944 0.02828 0.85179 0.0
C612 C 0.4342 0.0222 0.79448 0.0
C613 C 0.45733 0.0205 0.81174 0.0
C614 C 0.41254 0.03701 0.99092 0.0
C615 C 0.4261 0.01936 0.71269 0.0
H616 H 0.34248 1.00776 0.79154 0.0
H617 H 0.37311 0.08149 0.73073 0.0
H618 H 0.38653 0.99056 0.92802 0.0
H619 H 0.36031 0.98028 0.88115 0.0
H620 H 0.38807 0.98257 0.83159 0.0
H621 H 0.41036 0.0959 0.76603 0.0
H622 H 0.42226 0.07874 0.84914 0.0
H623 H 0.42891 0.07465 0.75055 0.0
H624 H 0.45792 0.03377 0.99805 0.0
H625 H 0.46899 0.01711 0.76667 0.0
H626 H 0.39486 0.02671 0.99223 0.0
H627 H 0.41103 0.05626 0.97827 0.0
H628 H 0.41979 0.03319 0.05056 0.0
H629 H 0.4098 1.0065 0.71689 0.0
H630 H 0.43916 1.01309 0.67697 0.0
H631 H 0.42244 0.03677 0.68069 0.0
C632 C 0.59432 0.34423 0.46749 0.0
C633 C 0.57503 0.32618 0.47977 0.0
C634 C 0.59956 0.35927 0.52331 0.0
C635 C 0.58528 0.3558 0.5929 0.0
C636 C 0.56875 0.33483 0.61199 0.0
C637 C 0.56358 0.32026 0.55444 0.0
C638 C 0.61789 0.38097 0.5017 0.0
C639 C 0.55427 0.32972 0.68814 0.0
C640 C 0.59613 0.4052 0.71713 0.0
C641 C 0.58034 0.41992 0.68524 0.0
C642 C 0.59721 0.38341 0.69128 0.0
C643 C 0.58277 0.37685 0.63022 0.0
C644 C 0.56657 0.39163 0.599 0.0
C645 C 0.56542 0.4128 0.62762 0.0
C646 C 0.61428 0.368 0.72786 0.0
C647 C 0.551 0.38565 0.53292 0.0
H648 H 0.60352 0.34838 0.41024 0.0
H649 H 0.54889 0.30602 0.56461 0.0
H650 H 0.60946 0.39687 0.48176 0.0
H651 H 0.62811 0.38431 0.55387 0.0
H652 H 0.62984 0.37902 0.45309 0.0
H653 H 0.54683 0.3105 0.70339 0.0
H654 H 0.56466 0.33502 0.73789 0.0
H655 H 0.53978 0.34021 0.68129 0.0
H656 H 0.60761 0.41074 0.76207 0.0
H657 H 0.55339 0.42436 0.60254 0.0
H658 H 0.63115 0.37359 0.69469 0.0
H659 H 0.60847 0.34882 0.72608 0.0
H660 H 0.61712 0.3702 0.79045 0.0
H661 H 0.56158 0.38429 0.48006 0.0
H662 H 0.53961 0.39925 0.51499 0.0
H663 H 0.5399 0.36813 0.5519 0.0
C664 C 0.20476 0.52465 0.79824 0.0
C665 C 0.22269 0.54367 0.773 0.0
C666 C 0.18386 0.52852 0.83072 0.0
C667 C 0.1811 0.55189 0.84081 0.0
C668 C 0.20021 0.57054 0.82516 0.0
C669 C 0.22077 0.56629 0.79049 0.0
C670 C 0.164 0.50804 0.84647 0.0
C671 C 0.19833 0.59542 0.8389 0.0
C672 C 0.12003 0.56458 0.80471 0.0
C673 C 0.10998 0.55861 0.88142 0.0
C674 C 0.14355 0.56357 0.79115 0.0
C675 C 0.15744 0.55715 0.85623 0.0
C676 C 0.14773 0.55304 0.93442 0.0
C677 C 0.124 0.55341 0.94597 0.0
C678 C 0.15306 0.56764 0.70665 0.0
C679 C 0.16196 0.54693 0.00576 0.0
H680 H 0.20636 0.50703 0.78615 0.0
H681 H 0.23456 0.58109 0.77142 0.0
H682 H 0.15609 0.50668 0.90655 0.0
H683 H 0.15042 0.5113 0.80312 0.0
H684 H 0.1695 0.49067 0.84143 0.0
H685 H 0.21562 0.60639 0.83994 0.0
H686 H 0.18864 0.60437 0.7905 0.0
H687 H 0.1887 0.59485 0.89565 0.0
H688 H 0.10918 0.56839 0.75477 0.0
H689 H 0.11627 0.54893 0.00556 0.0
H690 H 0.15805 0.55084 0.69306 0.0
H691 H 0.16883 0.58129 0.69871 0.0
H692 H 0.14033 0.57356 0.66306 0.0
H693 H 0.16376 0.52776 0.01383 0.0
H694 H 0.15366 0.55015 0.06092 0.0
H695 H 0.17958 0.55749 0.99762 0.0
C696 C 0.06884 0.86106 0.09585 0.0
C697 C 0.04736 0.84628 0.11112 0.0
C698 C 0.07034 0.88481 0.05712 0.0
C699 C 0.04983 0.89398 0.03455 0.0
C700 C 0.02848 0.87832 0.04182 0.0
C701 C 0.02754 0.85453 0.07965 0.0
C702 C 0.09356 0.90066 0.04738 0.0
C703 C 1.00625 0.88727 0.01758 0.0
C704 C 0.04709 0.95841 0.05507 0.0
C705 C 0.04828 0.96972 0.97573 0.0
C706 C 0.04777 0.93379 0.07483 0.0
C707 C 0.05021 0.92028 0.01377 0.0
C708 C 0.05236 0.93184 0.93374 0.0
C709 C 0.05109 0.95633 0.91574 0.0
C710 C 0.04522 0.92209 0.16106 0.0
C711 C 0.05535 0.91837 0.8667 0.0
H712 H 0.08413 0.85475 0.12112 0.0
H713 H 0.01088 0.84323 0.09267 0.0
H714 H 0.09567 0.91197 0.98769 0.0
H715 H 0.09472 0.91276 0.09184 0.0
H716 H 0.10803 0.89015 0.05576 0.0
H717 H 0.99164 0.87242 0.0187 0.0
H718 H 1.00176 0.89902 0.05881 0.0
H719 H 1.00833 0.89805 0.95711 0.0
H720 H 0.04481 0.96863 0.10161 0.0
H721 H 0.05233 0.96499 0.85432 0.0
H722 H 0.06041 0.91321 0.17798 0.0
H723 H 0.0297 0.90808 0.17043 0.0
H724 H 0.04354 0.93507 0.20132 0.0
H725 H 0.06664 0.90461 0.88306 0.0
H726 H 0.06284 0.93054 0.81211 0.0
H727 H 0.03823 0.90915 0.85276 0.0
C728 C 0.70953 0.02178 0.99284 0.0
C729 C 0.7264 0.03903 0.01585 0.0
C730 C 0.68872 0.02793 0.96241 0.0
C731 C 0.68507 0.05203 0.95288 0.0
C732 C 0.70331 0.06989 0.96658 0.0
C733 C 0.72366 0.06311 0.99963 0.0
C734 C 0.66971 1.00823 0.94934 0.0
C735 C 0.70057 0.0959 0.95304 0.0
C736 C 0.62835 0.06166 0.85731 0.0
C737 C 0.6137 0.05994 0.92424 0.0
C738 C 0.65212 0.06107 0.86487 0.0
C739 C 0.6612 0.05768 0.94146 0.0
C740 C 0.64661 0.05708 0.00894 0.0
C741 C 0.62309 0.05864 0.99927 0.0
C742 C 0.66709 0.06267 0.79113 0.0
C743 C 0.65542 0.05291 0.09195 0.0
H744 H 0.71153 1.00312 0.00693 0.0
H745 H 0.73662 0.07639 0.01845 0.0
H746 H 0.65559 1.00632 0.99496 0.0
H747 H 0.66223 1.01263 0.89054 0.0
H748 H 0.67594 0.99078 0.95307 0.0
H749 H 0.71755 0.10771 0.94985 0.0
H750 H 0.69151 0.1006 0.8974 0.0
H751 H 0.68998 0.09945 0.00266 0.0
H752 H 0.62108 0.06267 0.79909 0.0
H753 H 0.6117 0.05697 0.05107 0.0
H754 H 0.6689 0.04443 0.78149 0.0
H755 H 0.68467 0.07245 0.79696 0.0
H756 H 0.65933 0.0717 0.73777 0.0
H757 H 0.66114 0.03516 0.1042 0.0
H758 H 0.64204 0.05357 0.13781 0.0
H759 H 0.67062 0.06649 0.09773 0.0
C760 C 0.55309 0.74161 0.26062 0.0
C761 C 0.53892 0.75599 0.28978 0.0
C762 C 0.54428 0.72552 0.21146 0.0
C763 C 0.52081 0.72402 0.19092 0.0
C764 C 0.50753 0.74097 0.21085 0.0
C765 C 0.51674 0.75675 0.26093 0.0
C766 C 0.55918 0.70798 0.1909 0.0
C767 C 0.48277 0.74057 0.18734 0.0
C768 C 0.50329 0.67664 0.06442 0.0
C769 C 0.49595 0.65666 0.1231 0.0
C770 C 0.50974 0.69934 0.08453 0.0
C771 C 0.50927 0.70185 0.16533 0.0
C772 C 0.50039 0.68195 0.22415 0.0
C773 C 0.49366 0.6596 0.2021 0.0
C774 C 0.51844 0.72015 0.01982 0.0
C775 C 0.49968 0.68379 0.31122 0.0
H776 H 0.57022 0.74107 0.28353 0.0
H777 H 0.50578 0.76784 0.28398 0.0
H778 H 0.55343 0.69025 0.22821 0.0
H779 H 0.55744 0.70579 0.12802 0.0
H780 H 0.57773 0.71364 0.20125 0.0
H781 H 0.47687 0.75791 0.18986 0.0
H782 H 0.48054 0.7364 0.12663 0.0
H783 H 0.47148 0.72646 0.22879 0.0
H784 H 0.50474 0.67433 0.00308 0.0
H785 H 0.4881 0.6441 0.24738 0.0
H786 H 0.53761 0.72292 0.01633 0.0
H787 H 0.51297 0.73685 0.03234 0.0
H788 H 0.51217 0.71687 0.96103 0.0
H789 H 0.51756 0.68791 0.33135 0.0
H790 H 0.49104 0.66702 0.3487 0.0
H791 H 0.49039 0.69854 0.32112 0.0
C792 C 0.84916 0.51338 0.04454 0.0
C793 C 0.84589 0.53662 0.05092 0.0
C794 C 0.87021 0.50897 0.01396 0.0
C795 C 0.88862 0.52817 0.99265 0.0
C796 C 0.8847 0.55185 0.99362 0.0
C797 C 0.86325 0.55578 0.02182 0.0
C798 C 0.87332 0.48361 0.01049 0.0
C799 C 0.90388 0.57286 0.97292 0.0
C800 C 0.95033 0.51814 0.03398 0.0
C801 C 0.96021 0.52173 0.95721 0.0
C802 C 0.9268 0.5194 0.04629 0.0
C803 C 0.91268 0.52351 0.98012 0.0
C804 C 0.92228 0.52539 0.90256 0.0
C805 C 0.94605 0.52499 0.89197 0.0
C806 C 0.91746 0.51794 0.12997 0.0
C807 C 0.90774 0.5289 0.83058 0.0
H808 H 0.83586 0.49854 0.0684 0.0
H809 H 0.86086 0.57368 0.02864 0.0
H810 H 0.88308 0.4827 0.95533 0.0
H811 H 0.88342 0.47684 0.06142 0.0
H812 H 0.85645 0.47163 0.0132 0.0
H813 H 0.89751 0.5902 0.97033 0.0
H814 H 0.91722 0.57166 0.01831 0.0
H815 H 0.91241 0.57263 0.91493 0.0
H816 H 0.96133 0.51596 0.08434 0.0
H817 H 0.95369 0.52778 0.83242 0.0
H818 H 0.90213 0.50381 0.14287 0.0
H819 H 0.91179 0.5351 0.13648 0.0
H820 H 0.93051 0.51409 0.17491 0.0
H821 H 0.89088 0.51689 0.84067 0.0
H822 H 0.91661 0.52553 0.77672 0.0
H823 H 0.90412 0.54752 0.81911 0.0
C824 C 0.02787 0.23936 0.39297 0.0
C825 C 0.04701 0.25346 0.41865 0.0
C826 C 0.03068 0.22156 0.34798 0.0
C827 C 0.05324 0.21789 0.32749 0.0
C828 C 0.0726 0.23337 0.34817 0.0
C829 C 0.06927 0.25076 0.39447 0.0
C830 C 1.00952 0.20537 0.3285 0.0
C831 C 0.09692 0.23044 0.3264 0.0
C832 C 0.06165 0.15436 0.31046 0.0
C833 C 0.06158 0.15486 0.22823 0.0
C834 C 0.05893 0.1747 0.34323 0.0
C835 C 0.05654 0.19633 0.29257 0.0
C836 C 0.0568 0.19704 0.20938 0.0
C837 C 0.05909 0.17627 0.1783 0.0
C838 C 0.05825 0.17291 0.43235 0.0
C839 C 0.05467 0.21974 0.15319 0.0
H840 H 0.01068 0.24096 0.41365 0.0
H841 H 0.08409 0.26121 0.41606 0.0
H842 H 0.01033 0.20324 0.26535 0.0
H843 H 1.00885 0.18738 0.36497 0.0
H844 H 0.99328 0.21219 0.34041 0.0
H845 H 0.10977 0.2459 0.33614 0.0
H846 H 0.10139 0.21407 0.36316 0.0
H847 H 0.09834 0.22829 0.26337 0.0
H848 H 0.0633 0.13783 0.34943 0.0
H849 H 0.05921 0.17685 0.11464 0.0
H850 H 0.04168 0.1775 0.45271 0.0
H851 H 0.07237 0.18592 0.45012 0.0
H852 H 0.06005 0.15477 0.46357 0.0
H853 H 0.03798 0.22564 0.16503 0.0
H854 H 0.05567 0.21751 0.09005 0.0
H855 H 0.06863 0.23419 0.16301 0.0
C856 C 0.34355 0.05281 0.43217 0.0
C857 C 0.33933 0.07004 0.47712 0.0
C858 C 0.36103 0.05808 0.37197 0.0
C859 C 0.37434 0.08121 0.35616 0.0
C860 C 0.36828 0.09935 0.3954 0.0
C861 C 0.35096 0.09348 0.45606 0.0
C862 C 0.36691 0.03817 0.33184 0.0
C863 C 0.38166 0.12434 0.37939 0.0
C864 C 0.43813 0.08394 0.30509 0.0
C865 C 0.43924 0.09112 0.2225 0.0
C866 C 0.41716 0.08093 0.34896 0.0
C867 C 0.39669 0.08524 0.30946 0.0
C868 C 0.39771 0.09288 0.2263 0.0
C869 C 0.41896 0.09568 0.18378 0.0
C870 C 0.41687 0.07267 0.43765 0.0
C871 C 0.37634 0.09788 0.18225 0.0
H872 H 0.33487 0.03458 0.44951 0.0
H873 H 0.34788 0.10671 0.49166 0.0
H874 H 0.3829 0.03226 0.35666 0.0
H875 H 0.35287 0.02254 0.34093 0.0
H876 H 0.37029 0.0444 0.26725 0.0
H877 H 0.3722 0.13722 0.40286 0.0
H878 H 0.39851 0.12449 0.40843 0.0
H879 H 0.38532 0.13049 0.31487 0.0
H880 H 0.45358 0.07999 0.33539 0.0
H881 H 0.4197 0.10148 0.12007 0.0
H882 H 0.40509 0.05544 0.45411 0.0
H883 H 0.41019 0.08581 0.46891 0.0
H884 H 0.43431 0.07028 0.45935 0.0
H885 H 0.3634 0.08139 0.18935 0.0
H886 H 0.38016 0.10446 0.11792 0.0
H887 H 0.36831 0.11138 0.20764 0.0
C888 C 0.5586 0.36951 0.19618 0.0
C889 C 0.54052 0.35075 0.22321 0.0
C890 C 0.55442 0.39079 0.14955 0.0
C891 C 0.53161 0.39335 0.12748 0.0
C892 C 0.5135 0.37383 0.14945 0.0
C893 C 0.51813 0.35276 0.19755 0.0
C894 C 0.57431 0.41104 0.12775 0.0
C895 C 0.48907 0.37561 0.12522 0.0
C896 C 0.52081 0.45779 0.09429 0.0
C897 C 0.52519 0.46467 0.01228 0.0
C898 C 0.52178 0.43429 0.13203 0.0
C899 C 0.52681 0.41709 0.08655 0.0
C900 C 0.52985 0.42359 0.0031 0.0
C901 C 0.52924 0.44732 0.96713 0.0
C902 C 0.51876 0.42826 0.22126 0.0
C903 C 0.53483 0.40579 0.95201 0.0
H904 H 0.57602 0.36789 0.21453 0.0
H905 H 0.50408 0.33839 0.21818 0.0
H906 H 0.57551 0.41725 0.0627 0.0
H907 H 0.57127 0.42638 0.156 0.0
H908 H 0.59114 0.40584 0.14694 0.0
H909 H 0.47766 0.35803 0.13771 0.0
H910 H 0.48184 0.38809 0.15807 0.0
H911 H 0.48881 0.38292 0.06103 0.0
H912 H 0.51774 0.47105 0.12971 0.0
H913 H 0.53239 0.45237 0.90358 0.0
H914 H 0.53534 0.42431 0.247 0.0
H915 H 0.5057 0.41205 0.23891 0.0
H916 H 0.51333 0.44307 0.24747 0.0
H917 H 0.55288 0.40242 0.95968 0.0
H918 H 0.53267 0.41234 0.8881 0.0
H919 H 0.52328 0.38849 0.97009 0.0
C920 C 0.23758 0.5401 0.44017 0.0
C921 C 0.23694 0.5236 0.51072 0.0
C922 C 0.22151 0.53628 0.38137 0.0
C923 C 0.20441 0.51561 0.39407 0.0
C924 C 0.2054 0.49777 0.46129 0.0
C925 C 0.22174 0.50194 0.51855 0.0
C926 C 0.22143 0.5555 0.30966 0.0
C927 C 0.1876 0.47544 0.47743 0.0
C928 C 0.14378 0.52226 0.32783 0.0
C929 C 0.14179 0.51 0.26345 0.0
C930 C 0.16421 0.5245 0.36964 0.0
C931 C 0.18334 0.51453 0.34588 0.0
C932 C 0.18167 0.50267 0.2795 0.0
C933 C 0.1608 0.50033 0.23948 0.0
C934 C 0.16508 0.53705 0.44067 0.0
C935 C 0.20178 0.49219 0.25153 0.0
H936 H 0.24921 0.55692 0.43398 0.0
H937 H 0.22132 0.4891 0.57296 0.0
H938 H 0.21774 0.54757 0.25548 0.0
H939 H 0.20759 0.56616 0.31818 0.0
H940 H 0.23819 0.56776 0.30016 0.0
H941 H 0.19278 0.46185 0.52516 0.0
H942 H 0.17088 0.4801 0.49606 0.0
H943 H 0.18471 0.46743 0.42311 0.0
H944 H 0.12905 0.52956 0.3469 0.0
H945 H 0.15937 0.49106 0.18915 0.0
H946 H 0.17963 0.55212 0.43268 0.0
H947 H 0.16816 0.52451 0.49481 0.0
H948 H 0.14883 0.5441 0.45059 0.0
H949 H 0.21763 0.50578 0.24326 0.0
H950 H 0.19844 0.48547 0.1949 0.0
H951 H 0.20532 0.47718 0.29715 0.0
C952 C 0.01411 0.83104 0.43175 0.0
C953 C 0.03594 0.8311 0.39697 0.0
C954 C 0.01065 0.84798 0.47979 0.0
C955 C 0.02942 0.86545 0.49283 0.0
C956 C 0.05186 0.86407 0.46392 0.0
C957 C 0.05485 0.84685 0.4169 0.0
C958 C 0.98651 0.84844 0.51074 0.0
C959 C 0.07243 0.88222 0.476 0.0
C960 C 0.01706 0.9279 0.50646 0.0
C961 C 0.01946 0.9288 0.58739 0.0
C962 C 0.02005 0.90736 0.47544 0.0
C963 C 0.02523 0.88692 0.5267 0.0
C964 C 0.02729 0.88756 0.60879 0.0
C965 C 0.02458 0.90853 0.63801 0.0
C966 C 0.01813 0.90773 0.38728 0.0
C967 C 0.03249 0.86615 0.66564 0.0
H968 H 0.99937 0.81912 0.41602 0.0
H969 H 0.07176 0.84698 0.39008 0.0
H970 H 0.98671 0.85147 0.5731 0.0
H971 H 0.9794 0.86342 0.47485 0.0
H972 H 0.97475 0.83158 0.50756 0.0
H973 H 0.08902 0.87684 0.45939 0.0
H974 H 0.07093 0.89965 0.43885 0.0
H975 H 0.07292 0.88491 0.53865 0.0
H976 H 0.0134 0.94356 0.46682 0.0
H977 H 0.02627 0.90902 0.70074 0.0
H978 H 1.00458 0.89308 0.37616 0.0
H979 H 0.0347 0.90469 0.36155 0.0
H980 H 0.01386 0.92492 0.35556 0.0
H981 H 0.01939 0.85035 0.66148 0.0
H982 H 0.0327 0.86918 0.72809 0.0
H983 H 0.04955 0.86178 0.64943 0.0
C984 C 0.72425 0.9885 0.33679 0.0
C985 C 0.73157 1.01211 0.29908 0.0
C986 C 0.70771 0.98327 0.39999 0.0
C987 C 0.69833 1.0021 0.42588 0.0
C988 C 0.70703 0.02606 0.39211 0.0
C989 C 0.72356 0.03076 0.32913 0.0
C990 C 0.699 0.9575 0.43474 0.0
C991 C 0.69767 0.04668 0.41841 0.0
C992 C 0.63589 0.99134 0.50311 0.0
C993 C 0.63837 0.99035 0.58495 0.0
C994 C 0.65527 0.99453 0.45112 0.0
C995 C 0.67774 0.99682 0.48159 0.0
C996 C 0.68037 0.99519 0.5643 0.0
C997 C 0.66067 0.99195 0.615 0.0
C998 C 0.65169 0.99617 0.3632 0.0
C999 C 0.70402 0.99742 0.59902 0.0
H1000 H 0.73019 0.974 0.31325 0.0
H1001 H 0.72929 0.04904 0.30032 0.0
H1002 H 0.69788 0.95496 0.50045 0.0
H1003 H 0.68133 0.95235 0.41436 0.0
H1004 H 0.71027 0.94528 0.41658 0.0
H1005 H 0.70807 0.06417 0.39284 0.0
H1006 H 0.67962 0.04671 0.39941 0.0
H1007 H 0.6973 0.04477 0.48401 0.0
H1008 H 0.61879 0.99044 0.47921 0.0
H1009 H 0.66273 0.99085 0.6783 0.0
H1010 H 0.66069 0.98309 0.3392 0.0
H1011 H 0.65928 0.01422 0.33172 0.0
H1012 H 0.6331 0.9928 0.34951 0.0
H1013 H 0.71404 0.98442 0.57924 0.0
H1014 H 0.70308 0.99439 0.6649 0.0
H1015 H 0.71373 0.01552 0.57731 0.0
C1016 C 0.566 0.72826 0.62158 0.0
C1017 C 0.54662 0.73076 0.57553 0.0
C1018 C 0.56754 0.7066 0.67225 0.0
C1019 C 0.54931 0.6871 0.67651 0.0
C1020 C 0.52905 0.6902 0.6343 0.0
C1021 C 0.52795 0.71197 0.58457 0.0
C1022 C 0.58912 0.70419 0.71816 0.0
C1023 C 0.50902 0.67008 0.63813 0.0
C1024 C 0.56009 0.62264 0.7176 0.0
C1025 C 0.55023 0.61478 0.79433 0.0
C1026 C 0.56081 0.64645 0.67986 0.0
C1027 C 0.5518 0.66292 0.72024 0.0
C1028 C 0.54314 0.65541 0.79948 0.0
C1029 C 0.54222 0.63142 0.83512 0.0
C1030 C 0.57013 0.65368 0.59519 0.0
C1031 C 0.5337 0.67224 0.84579 0.0
H1032 H 0.5805 0.7427 0.61444 0.0
H1033 H 0.51286 0.71395 0.54944 0.0
H1034 H 0.5845 0.69664 0.78138 0.0
H1035 H 0.59883 0.69163 0.6942 0.0
H1036 H 0.60065 0.72157 0.71482 0.0
H1037 H 0.49408 0.67576 0.60481 0.0
H1038 H 0.51463 0.65518 0.61301 0.0
H1039 H 0.50321 0.66307 0.70072 0.0
H1040 H 0.56629 0.60994 0.68557 0.0
H1041 H 0.53478 0.62564 0.89472 0.0
H1042 H 0.58331 0.66996 0.58933 0.0
H1043 H 0.5559 0.65802 0.55583 0.0
H1044 H 0.57803 0.63935 0.57408 0.0
H1045 H 0.54314 0.69072 0.83001 0.0
H1046 H 0.53469 0.66628 0.91065 0.0
H1047 H 0.51526 0.67259 0.8323 0.0
C1048 C 0.84387 0.52973 0.36161 0.0
C1049 C 0.83413 0.54895 0.32128 0.0
C1050 C 0.86061 0.53318 0.41825 0.0
C1051 C 0.86753 0.55636 0.43575 0.0
C1052 C 0.85587 0.57524 0.40184 0.0
C1053 C 0.83934 0.57134 0.34469 0.0
C1054 C 0.8725 0.5125 0.45305 0.0
C1055 C 0.8624 0.60013 0.42001 0.0
C1056 C 0.9099 0.56353 0.60057 0.0
C1057 C 0.93115 0.56977 0.55741 0.0
C1058 C 0.88894 0.55948 0.56207 0.0
C1059 C 0.88925 0.56157 0.47845 0.0
C1060 C 0.9106 0.56814 0.43454 0.0
C1061 C 0.93119 0.57231 0.47442 0.0
C1062 C 0.86655 0.55267 0.61087 0.0
C1063 C 0.91175 0.5705 0.34521 0.0
H1064 H 0.83969 0.51232 0.34437 0.0
H1065 H 0.83202 0.58633 0.31362 0.0
H1066 H 0.89 0.51477 0.42447 0.0
H1067 H 0.87468 0.51198 0.51755 0.0
H1068 H 0.86278 0.4951 0.44358 0.0
H1069 H 0.84909 0.61155 0.40095 0.0
H1070 H 0.86488 0.59963 0.48438 0.0
H1071 H 0.87901 0.60854 0.38831 0.0
H1072 H 0.90965 0.56133 0.66468 0.0
H1073 H 0.94741 0.57763 0.4403 0.0
H1074 H 0.85815 0.5346 0.60331 0.0
H1075 H 0.85442 0.56524 0.58993 0.0
H1076 H 0.86918 0.55269 0.67505 0.0
H1077 H 0.90442 0.55327 0.32759 0.0
H1078 H 0.92972 0.5758 0.31992 0.0
H1079 H 0.90122 0.58403 0.31834 0.0
loop_
_geom_bond_atom_site_label_1
_geom_bond_atom_site_label_2
_geom_bond_distance
_geom_bond_site_symmetry_2
_ccdc_geom_bond_type
H0 C1 0.949 . S
C1 H0 0.949 . S
C1 C2 1.395 . S
C1 C3 1.391 1_556 S
C2 C1 1.395 . S
C2 C5 1.390 1_556 S
C3 C1 1.391 1_554 S
C3 C7 1.387 . S
C3 C8 1.491 . S
H4 C5 0.950 . S
C5 C2 1.390 1_554 S
C5 H4 0.950 . S
C5 C6 1.378 . S
C6 C5 1.378 . S
C6 C7 1.409 . S
C7 C3 1.387 . S
C7 C6 1.409 . S
C7 H9 0.951 . S
C8 C3 1.491 . S
C8 C10 1.382 1_554 S
C8 C12 1.404 . S
H9 C7 0.951 . S
C10 C8 1.382 1_556 S
C10 C11 1.390 . S
C10 H15 0.949 . S
C11 C10 1.390 . S
C11 C16 1.401 . S
C12 C8 1.404 . S
C12 H13 0.950 . S
C12 C14 1.375 . S
H13 C12 0.950 . S
C14 C12 1.375 . S
C14 C16 1.380 1_554 S
C14 H18 0.950 . S
H15 C10 0.949 . S
C16 C11 1.401 . S
C16 C14 1.380 1_556 S
C16 H17 0.952 . S
H17 C16 0.952 . S
H18 C14 0.950 . S
H19 C20 0.949 . S
C20 H19 0.949 . S
C20 C21 1.395 . S
C20 C22 1.391 . S
C21 C20 1.395 . S
C21 C24 1.390 . S
C22 C20 1.391 . S
C22 C26 1.387 . S
C22 C27 1.491 . S
H23 C24 0.950 . S
C24 C21 1.390 . S
C24 H23 0.950 . S
C24 C25 1.378 . S
C25 C24 1.378 . S
C25 C26 1.409 . S
C26 C22 1.387 . S
C26 C25 1.409 . S
C26 H28 0.951 . S
C27 C22 1.491 . S
C27 C29 1.382 . S
C27 C31 1.404 . S
H28 C26 0.951 . S
C29 C27 1.382 . S
C29 C30 1.390 . S
C29 H34 0.949 1_655 S
C30 C29 1.390 . S
C30 C35 1.399 . S
C31 C27 1.404 . S
C31 H32 0.950 . S
C31 C33 1.375 . S
H32 C31 0.950 . S
C33 C31 1.375 . S
C33 C35 1.382 . S
C33 H37 0.950 . S
H34 C29 0.949 1_455 S
C35 C30 1.399 . S
C35 C33 1.382 . S
C35 H36 0.952 . S
H36 C35 0.952 . S
H37 C33 0.950 . S
H38 C39 0.949 1_556 S
C39 H38 0.949 1_554 S
C39 C40 1.395 . S
C39 C41 1.391 . S
C40 C39 1.395 . S
C40 C43 1.390 . S
C41 C39 1.391 . S
C41 C45 1.387 . S
C41 C46 1.491 . S
H42 C43 0.950 . S
C43 C40 1.390 . S
C43 H42 0.950 . S
C43 C44 1.378 . S
C44 C43 1.378 . S
C44 C45 1.409 . S
C45 C41 1.387 . S
C45 C44 1.409 . S
C45 H47 0.951 . S
C46 C41 1.491 . S
C46 C48 1.382 . S
C46 C50 1.404 . S
H47 C45 0.951 . S
C48 C46 1.382 . S
C48 C49 1.390 . S
C48 H53 0.949 1_554 S
C49 C48 1.390 . S
C49 C54 1.399 . S
C50 C46 1.404 . S
C50 H51 0.950 . S
C50 C52 1.375 . S
H51 C50 0.950 . S
C52 C50 1.375 . S
C52 C54 1.382 . S
C52 H56 0.950 . S
H53 C48 0.949 1_556 S
C54 C49 1.399 . S
C54 C52 1.382 . S
C54 H55 0.952 . S
H55 C54 0.952 . S
H56 C52 0.950 . S
H57 C58 0.949 . S
C58 H57 0.949 . S
C58 C59 1.395 . S
C58 C60 1.391 . S
C59 C58 1.395 . S
C59 C62 1.390 . S
C60 C58 1.391 . S
C60 C64 1.387 . S
C60 C65 1.491 . S
H61 C62 0.950 . S
C62 C59 1.390 . S
C62 H61 0.950 . S
C62 C63 1.378 . S
C63 C62 1.378 . S
C63 C64 1.409 . S
C64 C60 1.387 . S
C64 C63 1.409 . S
C64 H66 0.951 . S
C65 C60 1.491 . S
C65 C67 1.382 . S
C65 C69 1.404 . S
H66 C64 0.951 . S
C67 C65 1.382 . S
C67 C68 1.390 . S
C67 H72 0.949 . S
C68 C67 1.390 . S
C68 C73 1.399 . S
C69 C65 1.404 . S
C69 H70 0.950 . S
C69 C71 1.375 . S
H70 C69 0.950 . S
C71 C69 1.375 . S
C71 C73 1.382 . S
C71 H75 0.950 . S
H72 C67 0.949 . S
C73 C68 1.399 . S
C73 C71 1.382 . S
C73 H74 0.952 . S
H74 C73 0.952 . S
H75 C71 0.950 . S
H76 C77 0.949 . S
C77 H76 0.949 . S
C77 C78 1.395 . S
C77 C79 1.391 . S
C78 C77 1.395 . S
C78 C81 1.390 . S
C79 C77 1.391 . S
C79 C83 1.387 . S
C79 C84 1.491 . S
H80 C81 0.950 . S
C81 C78 1.390 . S
C81 H80 0.950 . S
C81 C82 1.378 . S
C82 C81 1.378 . S
C82 C83 1.409 . S
C83 C79 1.387 . S
C83 C82 1.409 . S
C83 H85 0.951 . S
C84 C79 1.491 . S
C84 C86 1.382 . S
C84 C88 1.404 . S
H85 C83 0.951 . S
C86 C84 1.382 . S
C86 C87 1.390 . S
C86 H91 0.949 . S
C87 C86 1.390 . S
C87 C92 1.399 . S
C88 C84 1.404 . S
C88 H89 0.950 . S
C88 C90 1.375 . S
H89 C88 0.950 . S
C90 C88 1.375 . S
C90 C92 1.382 . S
C90 H94 0.950 . S
H91 C86 0.949 . S
C92 C87 1.399 . S
C92 C90 1.382 . S
C92 H93 0.952 . S
H93 C92 0.952 . S
H94 C90 0.950 . S
H95 C96 0.949 . S
C96 H95 0.949 . S
C96 C97 1.395 . S
C96 C98 1.391 . S
C97 C96 1.395 . S
C97 C100 1.390 . S
C98 C96 1.391 . S
C98 C102 1.387 . S
C98 C103 1.491 . S
H99 C100 0.950 . S
C100 C97 1.390 . S
C100 H99 0.950 . S
C100 C101 1.378 . S
C101 C100 1.378 . S
C101 C102 1.409 . S
C102 C98 1.387 . S
C102 C101 1.409 . S
C102 H104 0.951 . S
C103 C98 1.491 . S
C103 C105 1.382 . S
C103 C107 1.404 . S
H104 C102 0.951 . S
C105 C103 1.382 . S
C105 C106 1.390 . S
C105 H110 0.949 . S
C106 C105 1.390 . S
C106 C111 1.399 . S
C107 C103 1.404 . S
C107 H108 0.950 . S
C107 C109 1.375 . S
H108 C107 0.950 . S
C109 C107 1.375 . S
C109 C111 1.382 . S
C109 H113 0.950 . S
H110 C105 0.949 . S
C111 C106 1.399 . S
C111 C109 1.382 . S
C111 H112 0.952 . S
H112 C111 0.952 . S
H113 C109 0.950 . S
H114 C115 0.949 . S
C115 H114 0.949 . S
C115 C116 1.395 . S
C115 C117 1.391 . S
C116 C115 1.395 . S
C116 C119 1.390 . S
C117 C115 1.391 . S
C117 C121 1.387 . S
C117 C122 1.491 . S
H118 C119 0.950 . S
C119 C116 1.390 . S
C119 H118 0.950 . S
C119 C120 1.378 . S
C120 C119 1.378 . S
C120 C121 1.409 . S
C121 C117 1.387 . S
C121 C120 1.409 . S
C121 H123 0.951 . S
C122 C117 1.491 . S
C122 C124 1.382 . S
C122 C126 1.404 . S
H123 C121 0.951 . S
C124 C122 1.382 . S
C124 C125 1.390 . S
C124 H129 0.949 . S
C125 C124 1.390 . S
C125 C130 1.399 . S
C126 C122 1.404 . S
C126 H127 0.950 . S
C126 C128 1.375 . S
H127 C126 0.950 . S
C128 C126 1.375 . S
C128 C130 1.382 . S
C128 H132 0.950 . S
H129 C124 0.949 . S
C130 C125 1.399 . S
C130 C128 1.382 . S
C130 H131 0.952 . S
H131 C130 0.952 . S
H132 C128 0.950 . S
H133 C134 0.949 . S
C134 H133 0.949 . S
C134 C135 1.395 . S
C134 C136 1.391 . S
C135 C134 1.395 . S
C135 C138 1.390 . S
C136 C134 1.391 . S
C136 C140 1.387 . S
C136 C141 1.491 . S
H137 C138 0.950 . S
C138 C135 1.390 . S
C138 H137 0.950 . S
C138 C139 1.378 . S
C139 C138 1.378 . S
C139 C140 1.409 . S
C140 C136 1.387 . S
C140 C139 1.409 . S
C140 H142 0.951 . S
C141 C136 1.491 . S
C141 C143 1.382 . S
C141 C145 1.404 . S
H142 C140 0.951 . S
C143 C141 1.382 . S
C143 C144 1.390 . S
C143 H148 0.949 . S
C144 C143 1.390 . S
C144 C149 1.399 . S
C145 C141 1.404 . S
C145 H146 0.950 . S
C145 C147 1.375 . S
H146 C145 0.950 . S
C147 C145 1.375 . S
C147 C149 1.382 . S
C147 H151 0.950 . S
H148 C143 0.949 . S
C149 C144 1.399 . S
C149 C147 1.382 . S
C149 H150 0.952 . S
H150 C149 0.952 . S
H151 C147 0.950 . S
Nd152 C154 2.836 1_545 S
Nd152 O172 2.500 1_545 S
Nd152 O173 2.484 1_545 S
Nd152 O174 2.487 . S
Nd152 O175 2.682 . S
Nd152 O176 2.410 1_545 S
Nd152 O181 2.448 . S
Nd152 O183 2.424 . S
Nd153 C163 2.836 . S
Nd153 O175 2.414 1_554 S
Nd153 O177 2.424 1_545 S
Nd153 O178 2.500 . S
Nd153 O179 2.492 . S
Nd153 O180 2.487 1_455 S
Nd153 O181 2.711 1_554 S
Nd153 O182 2.410 1_554 S
C154 Nd152 2.836 1_565 S
C154 C155 1.498 . S
C154 O172 1.258 . S
C154 O173 1.243 . S
C155 C154 1.498 . S
C155 C156 1.366 1_455 S
C155 C160 1.407 . S
C156 C155 1.366 1_655 S
C156 C157 1.392 . S
C156 H184 0.930 . S
C157 C156 1.392 . S
C157 C158 1.398 1_655 S
C157 H185 0.929 . S
C158 C157 1.398 1_455 S
C158 C159 1.352 . S
C159 C158 1.352 . S
C159 C160 1.384 . S
C159 H186 0.930 . S
C160 C155 1.407 . S
C160 C159 1.384 . S
C160 H187 0.929 . S
C161 O174 1.241 . S
C161 O175 1.273 . S
C162 O176 1.251 . S
C162 O177 1.268 1_556 S
C163 Nd153 2.836 . S
C163 C164 1.498 . S
C163 O178 1.258 . S
C163 O179 1.239 . S
C164 C163 1.498 . S
C164 C165 1.366 . S
C164 C169 1.407 . S
C165 C164 1.366 . S
C165 C166 1.392 . S
C165 H188 0.930 . S
C166 C165 1.392 . S
C166 C167 1.398 . S
C166 H189 0.929 . S
C167 C166 1.398 . S
C167 C168 1.352 . S
C168 C167 1.352 . S
C168 C169 1.384 . S
C168 H190 0.930 . S
C169 C164 1.407 . S
C169 C168 1.384 . S
C169 H191 0.929 . S
C170 O180 1.241 1_556 S
C170 O181 1.230 1_655 S
C171 O182 1.251 . S
C171 O183 1.268 . S
O172 Nd152 2.500 1_565 S
O172 C154 1.258 . S
O173 Nd152 2.484 1_565 S
O173 C154 1.243 . S
O174 Nd152 2.487 . S
O174 C161 1.241 . S
O175 Nd152 2.682 . S
O175 Nd153 2.414 1_556 S
O175 C161 1.273 . S
O176 Nd152 2.410 1_565 S
O176 C162 1.251 . S
O177 Nd153 2.424 1_565 S
O177 C162 1.268 1_554 S
O178 Nd153 2.500 . S
O178 C163 1.258 . S
O179 Nd153 2.492 . S
O179 C163 1.239 . S
O180 Nd153 2.487 1_655 S
O180 C170 1.241 1_554 S
O181 Nd152 2.448 . S
O181 Nd153 2.711 1_556 S
O181 C170 1.230 1_455 S
O182 Nd153 2.410 1_556 S
O182 C171 1.251 . S
O183 Nd152 2.424 . S
O183 C171 1.268 . S
H184 C156 0.930 . S
H185 C157 0.929 . S
H186 C159 0.930 . S
H187 C160 0.929 . S
H188 C165 0.930 . S
H189 C166 0.929 . S
H190 C168 0.930 . S
H191 C169 0.929 . S
Nd192 C194 2.836 . S
Nd192 O212 2.500 1_545 S
Nd192 O213 2.492 . S
Nd192 O214 2.487 . S
Nd192 O215 2.682 . S
Nd192 O216 2.410 . S
Nd192 O221 2.425 . S
Nd192 O223 2.424 . S
Nd193 C203 2.836 . S
Nd193 O215 2.414 1_554 S
Nd193 O217 2.424 1_554 S
Nd193 O218 2.500 . S
Nd193 O219 2.492 . S
Nd193 O220 2.487 1_545 S
Nd193 O221 2.715 1_554 S
Nd193 O222 2.410 1_554 S
C194 Nd192 2.836 . S
C194 C195 1.498 1_545 S
C194 O212 1.258 1_545 S
C194 O213 1.239 . S
C195 C194 1.498 1_565 S
C195 C196 1.366 . S
C195 C200 1.407 1_565 S
C196 C195 1.366 . S
C196 C197 1.392 . S
C196 H224 0.930 . S
C197 C196 1.392 . S
C197 C198 1.398 . S
C197 H225 0.929 . S
C198 C197 1.398 . S
C198 C199 1.352 1_565 S
C199 C198 1.352 1_545 S
C199 C200 1.384 . S
C199 H226 0.930 . S
C200 C195 1.407 1_545 S
C200 C199 1.384 . S
C200 H227 0.929 . S
C201 O214 1.241 . S
C201 O215 1.273 . S
C202 O216 1.251 . S
C202 O217 1.268 . S
C203 Nd193 2.836 . S
C203 C204 1.498 . S
C203 O218 1.258 . S
C203 O219 1.239 . S
C204 C203 1.498 . S
C204 C205 1.366 . S
C204 C209 1.407 . S
C205 C204 1.366 . S
C205 C206 1.392 . S
C205 H228 0.930 . S
C206 C205 1.392 . S
C206 C207 1.398 . S
C206 H229 0.929 . S
C207 C206 1.398 . S
C207 C208 1.352 . S
C208 C207 1.352 . S
C208 C209 1.384 . S
C208 H230 0.930 . S
C209 C204 1.407 . S
C209 C208 1.384 . S
C209 H231 0.929 . S
C210 O220 1.241 1_556 S
C210 O221 1.255 1_565 S
C211 O222 1.251 . S
C211 O223 1.268 . S
O212 Nd192 2.500 1_565 S
O212 C194 1.258 1_565 S
O213 Nd192 2.492 . S
O213 C194 1.239 . S
O214 Nd192 2.487 . S
O214 C201 1.241 . S
O215 Nd192 2.682 . S
O215 Nd193 2.414 1_556 S
O215 C201 1.273 . S
O216 Nd192 2.410 . S
O216 C202 1.251 . S
O217 Nd193 2.424 1_556 S
O217 C202 1.268 . S
O218 Nd193 2.500 . S
O218 C203 1.258 . S
O219 Nd193 2.492 . S
O219 C203 1.239 . S
O220 Nd193 2.487 1_565 S
O220 C210 1.241 1_554 S
O221 Nd192 2.425 . S
O221 Nd193 2.715 1_556 S
O221 C210 1.255 1_545 S
O222 Nd193 2.410 1_556 S
O222 C211 1.251 . S
O223 Nd192 2.424 . S
O223 C211 1.268 . S
H224 C196 0.930 . S
H225 C197 0.929 . S
H226 C199 0.930 . S
H227 C200 0.929 . S
H228 C205 0.930 . S
H229 C206 0.929 . S
H230 C208 0.930 . S
H231 C209 0.929 . S
Nd232 C234 2.836 . S
Nd232 O252 2.500 . S
Nd232 O253 2.492 . S
Nd232 O254 2.487 1_554 S
Nd232 O255 2.682 1_554 S
Nd232 O256 2.410 1_554 S
Nd232 O261 2.414 1_554 S
Nd232 O263 2.424 . S
Nd233 C243 2.836 . S
Nd233 O255 2.414 . S
Nd233 O257 2.424 . S
Nd233 O258 2.500 . S
Nd233 O259 2.492 . S
Nd233 O260 2.487 . S
Nd233 O261 2.682 . S
Nd233 O262 2.410 . S
C234 Nd232 2.836 . S
C234 C235 1.498 . S
C234 O252 1.258 . S
C234 O253 1.239 . S
C235 C234 1.498 . S
C235 C236 1.366 . S
C235 C240 1.407 . S
C236 C235 1.366 . S
C236 C237 1.392 . S
C236 H264 0.930 . S
C237 C236 1.392 . S
C237 C238 1.398 . S
C237 H265 0.929 . S
C238 C237 1.398 . S
C238 C239 1.352 . S
C239 C238 1.352 . S
C239 C240 1.384 . S
C239 H266 0.930 . S
C240 C235 1.407 . S
C240 C239 1.384 . S
C240 H267 0.929 . S
C241 O254 1.241 . S
C241 O255 1.273 . S
C242 O256 1.251 . S
C242 O257 1.268 . S
C243 Nd233 2.836 . S
C243 C244 1.498 . S
C243 O258 1.258 . S
C243 O259 1.239 . S
C244 C243 1.498 . S
C244 C245 1.366 . S
C244 C249 1.407 . S
C245 C244 1.366 . S
C245 C246 1.392 . S
C245 H268 0.930 . S
C246 C245 1.392 . S
C246 C247 1.398 . S
C246 H269 0.929 . S
C247 C246 1.398 . S
C247 C248 1.352 . S
C248 C247 1.352 . S
C248 C249 1.384 . S
C248 H270 0.930 . S
C249 C244 1.407 . S
C249 C248 1.384 . S
C249 H271 0.929 . S
C250 O260 1.241 . S
C250 O261 1.273 . S
C251 O262 1.251 . S
C251 O263 1.268 1_556 S
O252 Nd232 2.500 . S
O252 C234 1.258 . S
O253 Nd232 2.492 . S
O253 C234 1.239 . S
O254 Nd232 2.487 1_556 S
O254 C241 1.241 . S
O255 Nd232 2.682 1_556 S
O255 Nd233 2.414 . S
O255 C241 1.273 . S
O256 Nd232 2.410 1_556 S
O256 C242 1.251 . S
O257 Nd233 2.424 . S
O257 C242 1.268 . S
O258 Nd233 2.500 . S
O258 C243 1.258 . S
O259 Nd233 2.492 . S
O259 C243 1.239 . S
O260 Nd233 2.487 . S
O260 C250 1.241 . S
O261 Nd232 2.414 1_556 S
O261 Nd233 2.682 . S
O261 C250 1.273 . S
O262 Nd233 2.410 . S
O262 C251 1.251 . S
O263 Nd232 2.424 . S
O263 C251 1.268 1_554 S
H264 C236 0.930 . S
H265 C237 0.929 . S
H266 C239 0.930 . S
H267 C240 0.929 . S
H268 C245 0.930 . S
H269 C246 0.929 . S
H270 C248 0.930 . S
H271 C249 0.929 . S
Nd272 C274 2.836 1_455 S
Nd272 O292 2.500 1_455 S
Nd272 O293 2.492 1_455 S
Nd272 O294 2.487 . S
Nd272 O295 2.682 . S
Nd272 O296 2.410 1_455 S
Nd272 O301 2.414 . S
Nd272 O303 2.424 . S
Nd273 C283 2.836 . S
Nd273 O295 2.414 1_554 S
Nd273 O297 2.424 1_454 S
Nd273 O298 2.500 . S
Nd273 O299 2.492 . S
Nd273 O300 2.487 . S
Nd273 O301 2.682 1_554 S
Nd273 O302 2.410 1_554 S
C274 Nd272 2.836 1_655 S
C274 C275 1.498 . S
C274 O292 1.258 . S
C274 O293 1.239 . S
C275 C274 1.498 . S
C275 C276 1.366 . S
C275 C280 1.407 . S
C276 C275 1.366 . S
C276 C277 1.392 . S
C276 H304 0.930 . S
C277 C276 1.392 . S
C277 C278 1.398 . S
C277 H305 0.929 . S
C278 C277 1.398 . S
C278 C279 1.352 . S
C279 C278 1.352 . S
C279 C280 1.384 . S
C279 H306 0.930 . S
C280 C275 1.407 . S
C280 C279 1.384 . S
C280 H307 0.929 . S
C281 O294 1.241 . S
C281 O295 1.273 . S
C282 O296 1.251 . S
C282 O297 1.268 . S
C283 Nd273 2.836 . S
C283 C284 1.498 . S
C283 O298 1.258 . S
C283 O299 1.239 . S
C284 C283 1.498 . S
C284 C285 1.366 . S
C284 C289 1.407 . S
C285 C284 1.366 . S
C285 C286 1.392 . S
C285 H308 0.930 . S
C286 C285 1.392 . S
C286 C287 1.398 . S
C286 H309 0.929 . S
C287 C286 1.398 . S
C287 C288 1.352 . S
C288 C287 1.352 . S
C288 C289 1.384 . S
C288 H310 0.930 . S
C289 C284 1.407 . S
C289 C288 1.384 . S
C289 H311 0.929 . S
C290 O300 1.241 1_556 S
C290 O301 1.273 . S
C291 O302 1.251 . S
C291 O303 1.268 . S
O292 Nd272 2.500 1_655 S
O292 C274 1.258 . S
O293 Nd272 2.492 1_655 S
O293 C274 1.239 . S
O294 Nd272 2.487 . S
O294 C281 1.241 . S
O295 Nd272 2.682 . S
O295 Nd273 2.414 1_556 S
O295 C281 1.273 . S
O296 Nd272 2.410 1_655 S
O296 C282 1.251 . S
O297 Nd273 2.424 1_656 S
O297 C282 1.268 . S
O298 Nd273 2.500 . S
O298 C283 1.258 . S
O299 Nd273 2.492 . S
O299 C283 1.239 . S
O300 Nd273 2.487 . S
O300 C290 1.241 1_554 S
O301 Nd272 2.414 . S
O301 Nd273 2.682 1_556 S
O301 C290 1.273 . S
O302 Nd273 2.410 1_556 S
O302 C291 1.251 . S
O303 Nd272 2.424 . S
O303 C291 1.268 . S
H304 C276 0.930 . S
H305 C277 0.929 . S
H306 C279 0.930 . S
H307 C280 0.929 . S
H308 C285 0.930 . S
H309 C286 0.929 . S
H310 C288 0.930 . S
H311 C289 0.929 . S
C312 C313 1.391 . S
C312 C314 1.394 . S
C312 H328 0.931 . S
C313 C312 1.391 . S
C313 C317 1.376 . S
C314 C312 1.394 . S
C314 C315 1.369 . S
C314 C318 1.531 . S
C315 C314 1.369 . S
C315 C316 1.410 . S
C315 C323 1.503 . S
C316 C315 1.410 . S
C316 C317 1.392 . S
C316 C319 1.511 . S
C317 C313 1.376 . S
C317 C316 1.392 . S
C317 H329 0.929 . S
C318 C314 1.531 . S
C318 H330 0.960 . S
C318 H331 0.962 1_556 S
C318 H332 0.960 1_556 S
C319 C316 1.511 . S
C319 H333 0.961 . S
C319 H334 0.961 . S
C319 H335 0.961 . S
C320 C321 1.370 . S
C320 C322 1.363 . S
C320 H336 0.931 . S
C321 C320 1.370 . S
C321 C325 1.408 . S
C322 C320 1.363 . S
C322 C323 1.370 . S
C322 C326 1.524 . S
C323 C315 1.503 . S
C323 C322 1.370 . S
C323 C324 1.403 . S
C324 C323 1.403 . S
C324 C325 1.404 . S
C324 C327 1.539 . S
C325 C321 1.408 . S
C325 C324 1.404 . S
C325 H337 0.930 . S
C326 C322 1.524 . S
C326 H338 0.956 . S
C326 H339 0.961 . S
C326 H340 0.961 . S
C327 C324 1.539 . S
C327 H341 0.958 . S
C327 H342 0.961 . S
C327 H343 0.960 . S
H328 C312 0.931 . S
H329 C317 0.929 . S
H330 C318 0.960 . S
H331 C318 0.962 1_554 S
H332 C318 0.960 1_554 S
H333 C319 0.961 . S
H334 C319 0.961 . S
H335 C319 0.961 . S
H336 C320 0.931 . S
H337 C325 0.930 . S
H338 C326 0.956 . S
H339 C326 0.961 . S
H340 C326 0.961 . S
H341 C327 0.958 . S
H342 C327 0.961 . S
H343 C327 0.960 . S
C344 C345 1.391 . S
C344 C346 1.394 . S
C344 H360 0.931 . S
C345 C344 1.391 . S
C345 C349 1.376 . S
C346 C344 1.394 . S
C346 C347 1.369 . S
C346 C350 1.531 . S
C347 C346 1.369 . S
C347 C348 1.410 . S
C347 C355 1.503 . S
C348 C347 1.410 . S
C348 C349 1.392 . S
C348 C351 1.511 . S
C349 C345 1.376 . S
C349 C348 1.392 . S
C349 H361 0.929 . S
C350 C346 1.531 . S
C350 H362 0.960 . S
C350 H363 0.962 . S
C350 H364 0.960 . S
C351 C348 1.511 . S
C351 H365 0.961 . S
C351 H366 0.961 . S
C351 H367 0.961 . S
C352 C353 1.370 . S
C352 C354 1.363 . S
C352 H368 0.931 . S
C353 C352 1.370 . S
C353 C357 1.408 . S
C354 C352 1.363 . S
C354 C355 1.370 . S
C354 C358 1.524 . S
C355 C347 1.503 . S
C355 C354 1.370 . S
C355 C356 1.403 . S
C356 C355 1.403 . S
C356 C357 1.404 . S
C356 C359 1.539 . S
C357 C353 1.408 . S
C357 C356 1.404 . S
C357 H369 0.930 . S
C358 C354 1.524 . S
C358 H370 0.956 . S
C358 H371 0.961 . S
C358 H372 0.961 . S
C359 C356 1.539 . S
C359 H373 0.958 . S
C359 H374 0.961 . S
C359 H375 0.960 . S
H360 C344 0.931 . S
H361 C349 0.929 . S
H362 C350 0.960 . S
H363 C350 0.962 . S
H364 C350 0.960 . S
H365 C351 0.961 . S
H366 C351 0.961 . S
H367 C351 0.961 . S
H368 C352 0.931 . S
H369 C357 0.930 . S
H370 C358 0.956 . S
H371 C358 0.961 . S
H372 C358 0.961 . S
H373 C359 0.958 . S
H374 C359 0.961 . S
H375 C359 0.960 . S
C376 C377 1.391 . S
C376 C378 1.394 . S
C376 H392 0.931 . S
C377 C376 1.391 . S
C377 C381 1.376 . S
C378 C376 1.394 . S
C378 C379 1.369 . S
C378 C382 1.531 . S
C379 C378 1.369 . S
C379 C380 1.410 . S
C379 C387 1.503 . S
C380 C379 1.410 . S
C380 C381 1.392 . S
C380 C383 1.511 1_556 S
C381 C377 1.376 . S
C381 C380 1.392 . S
C381 H393 0.929 . S
C382 C378 1.531 . S
C382 H394 0.960 . S
C382 H395 0.962 . S
C382 H396 0.960 . S
C383 C380 1.511 1_554 S
C383 H397 0.961 . S
C383 H398 0.961 . S
C383 H399 0.961 . S
C384 C385 1.370 . S
C384 C386 1.363 . S
C384 H400 0.931 . S
C385 C384 1.370 . S
C385 C389 1.408 . S
C386 C384 1.363 . S
C386 C387 1.370 . S
C386 C390 1.524 . S
C387 C379 1.503 . S
C387 C386 1.370 . S
C387 C388 1.403 . S
C388 C387 1.403 . S
C388 C389 1.404 . S
C388 C391 1.539 . S
C389 C385 1.408 . S
C389 C388 1.404 . S
C389 H401 0.930 . S
C390 C386 1.524 . S
C390 H402 0.956 . S
C390 H403 0.961 . S
C390 H404 0.961 . S
C391 C388 1.539 . S
C391 H405 0.958 . S
C391 H406 0.961 . S
C391 H407 0.960 . S
H392 C376 0.931 . S
H393 C381 0.929 . S
H394 C382 0.960 . S
H395 C382 0.962 . S
H396 C382 0.960 . S
H397 C383 0.961 . S
H398 C383 0.961 . S
H399 C383 0.961 . S
H400 C384 0.931 . S
H401 C389 0.930 . S
H402 C390 0.956 . S
H403 C390 0.961 . S
H404 C390 0.961 . S
H405 C391 0.958 . S
H406 C391 0.961 . S
H407 C391 0.960 . S
C408 C409 1.391 . S
C408 C410 1.394 . S
C408 H424 0.931 . S
C409 C408 1.391 . S
C409 C413 1.376 . S
C410 C408 1.394 . S
C410 C411 1.369 . S
C410 C414 1.531 . S
C411 C410 1.369 . S
C411 C412 1.410 . S
C411 C419 1.503 . S
C412 C411 1.410 . S
C412 C413 1.392 . S
C412 C415 1.511 . S
C413 C409 1.376 . S
C413 C412 1.392 . S
C413 H425 0.929 . S
C414 C410 1.531 . S
C414 H426 0.960 . S
C414 H427 0.962 . S
C414 H428 0.960 1_455 S
C415 C412 1.511 . S
C415 H429 0.961 . S
C415 H430 0.961 . S
C415 H431 0.961 . S
C416 C417 1.370 . S
C416 C418 1.363 . S
C416 H432 0.931 . S
C417 C416 1.370 . S
C417 C421 1.408 . S
C418 C416 1.363 . S
C418 C419 1.370 . S
C418 C422 1.524 . S
C419 C411 1.503 . S
C419 C418 1.370 . S
C419 C420 1.403 . S
C420 C419 1.403 . S
C420 C421 1.404 . S
C420 C423 1.539 . S
C421 C417 1.408 . S
C421 C420 1.404 . S
C421 H433 0.930 . S
C422 C418 1.524 . S
C422 H434 0.956 . S
C422 H435 0.961 . S
C422 H436 0.961 . S
C423 C420 1.539 . S
C423 H437 0.958 . S
C423 H438 0.961 1_556 S
C423 H439 0.960 . S
H424 C408 0.931 . S
H425 C413 0.929 . S
H426 C414 0.960 . S
H427 C414 0.962 . S
H428 C414 0.960 1_655 S
H429 C415 0.961 . S
H430 C415 0.961 . S
H431 C415 0.961 . S
H432 C416 0.931 . S
H433 C421 0.930 . S
H434 C422 0.956 . S
H435 C422 0.961 . S
H436 C422 0.961 . S
H437 C423 0.958 . S
H438 C423 0.961 1_554 S
H439 C423 0.960 . S
C440 C441 1.391 1_554 S
C440 C442 1.394 . S
C440 H456 0.931 . S
C441 C440 1.391 1_556 S
C441 C445 1.376 . S
C442 C440 1.394 . S
C442 C443 1.369 1_554 S
C442 C446 1.531 . S
C443 C442 1.369 1_556 S
C443 C444 1.410 . S
C443 C451 1.503 . S
C444 C443 1.410 . S
C444 C445 1.392 . S
C444 C447 1.511 1_565 S
C445 C441 1.376 . S
C445 C444 1.392 . S
C445 H457 0.930 1_565 S
C446 C442 1.531 . S
C446 H458 0.960 . S
C446 H459 0.962 . S
C446 H460 0.960 . S
C447 C444 1.511 1_545 S
C447 H461 0.961 . S
C447 H462 0.961 . S
C447 H463 0.961 . S
C448 C449 1.370 . S
C448 C450 1.363 . S
C448 H464 0.931 1_556 S
C449 C448 1.370 . S
C449 C453 1.408 1_545 S
C450 C448 1.363 . S
C450 C451 1.370 1_545 S
C450 C454 1.524 1_556 S
C451 C443 1.503 . S
C451 C450 1.370 1_565 S
C451 C452 1.403 . S
C452 C451 1.403 . S
C452 C453 1.404 . S
C452 C455 1.539 . S
C453 C449 1.408 1_565 S
C453 C452 1.404 . S
C453 H465 0.930 . S
C454 C450 1.524 1_554 S
C454 H466 0.956 . S
C454 H467 0.961 . S
C454 H468 0.961 . S
C455 C452 1.539 . S
C455 H469 0.958 . S
C455 H470 0.961 . S
C455 H471 0.960 . S
H456 C440 0.931 . S
H457 C445 0.930 1_545 S
H458 C446 0.960 . S
H459 C446 0.962 . S
H460 C446 0.960 . S
H461 C447 0.961 . S
H462 C447 0.961 . S
H463 C447 0.961 . S
H464 C448 0.931 1_554 S
H465 C453 0.930 . S
H466 C454 0.956 . S
H467 C454 0.961 . S
H468 C454 0.961 . S
H469 C455 0.958 . S
H470 C455 0.961 . S
H471 C455 0.960 . S
C472 C473 1.391 . S
C472 C474 1.394 . S
C472 H488 0.931 . S
C473 C472 1.391 . S
C473 C477 1.376 . S
C474 C472 1.394 . S
C474 C475 1.369 . S
C474 C478 1.531 . S
C475 C474 1.369 . S
C475 C476 1.410 . S
C475 C483 1.503 . S
C476 C475 1.410 . S
C476 C477 1.392 . S
C476 C479 1.511 . S
C477 C473 1.376 . S
C477 C476 1.392 . S
C477 H489 0.929 . S
C478 C474 1.531 . S
C478 H490 0.960 . S
C478 H491 0.962 . S
C478 H492 0.960 . S
C479 C476 1.511 . S
C479 H493 0.961 . S
C479 H494 0.961 . S
C479 H495 0.961 . S
C480 C481 1.370 . S
C480 C482 1.363 . S
C480 H496 0.931 . S
C481 C480 1.370 . S
C481 C485 1.408 1_554 S
C482 C480 1.363 . S
C482 C483 1.370 . S
C482 C486 1.524 . S
C483 C475 1.503 . S
C483 C482 1.370 . S
C483 C484 1.403 . S
C484 C483 1.403 . S
C484 C485 1.404 1_554 S
C484 C487 1.539 . S
C485 C481 1.408 1_556 S
C485 C484 1.404 1_556 S
C485 H497 0.930 . S
C486 C482 1.524 . S
C486 H498 0.956 . S
C486 H499 0.961 . S
C486 H500 0.961 . S
C487 C484 1.539 . S
C487 H501 0.958 . S
C487 H502 0.961 1_554 S
C487 H503 0.960 . S
H488 C472 0.931 . S
H489 C477 0.929 . S
H490 C478 0.960 . S
H491 C478 0.962 . S
H492 C478 0.960 . S
H493 C479 0.961 . S
H494 C479 0.961 . S
H495 C479 0.961 . S
H496 C480 0.931 . S
H497 C485 0.930 . S
H498 C486 0.956 . S
H499 C486 0.961 . S
H500 C486 0.961 . S
H501 C487 0.958 . S
H502 C487 0.961 1_556 S
H503 C487 0.960 . S
C504 C505 1.391 . S
C504 C506 1.394 . S
C504 H520 0.931 . S
C505 C504 1.391 . S
C505 C509 1.376 . S
C506 C504 1.394 . S
C506 C507 1.369 . S
C506 C510 1.531 . S
C507 C506 1.369 . S
C507 C508 1.410 . S
C507 C515 1.503 . S
C508 C507 1.410 . S
C508 C509 1.392 . S
C508 C511 1.511 . S
C509 C505 1.376 . S
C509 C508 1.392 . S
C509 H521 0.929 . S
C510 C506 1.531 . S
C510 H522 0.960 . S
C510 H523 0.962 . S
C510 H524 0.960 . S
C511 C508 1.511 . S
C511 H525 0.961 1_556 S
C511 H526 0.961 . S
C511 H527 0.961 . S
C512 C513 1.370 . S
C512 C514 1.363 . S
C512 H528 0.931 1_556 S
C513 C512 1.370 . S
C513 C517 1.408 . S
C514 C512 1.363 . S
C514 C515 1.370 . S
C514 C518 1.524 1_556 S
C515 C507 1.503 . S
C515 C514 1.370 . S
C515 C516 1.403 . S
C516 C515 1.403 . S
C516 C517 1.404 . S
C516 C519 1.539 . S
C517 C513 1.408 . S
C517 C516 1.404 . S
C517 H529 0.930 . S
C518 C514 1.524 1_554 S
C518 H530 0.956 . S
C518 H531 0.961 . S
C518 H532 0.961 . S
C519 C516 1.539 . S
C519 H533 0.958 . S
C519 H534 0.961 . S
C519 H535 0.960 . S
H520 C504 0.931 . S
H521 C509 0.929 . S
H522 C510 0.960 . S
H523 C510 0.962 . S
H524 C510 0.960 . S
H525 C511 0.961 1_554 S
H526 C511 0.961 . S
H527 C511 0.961 . S
H528 C512 0.931 1_554 S
H529 C517 0.930 . S
H530 C518 0.956 . S
H531 C518 0.961 . S
H532 C518 0.961 . S
H533 C519 0.958 . S
H534 C519 0.961 . S
H535 C519 0.960 . S
C536 C537 1.391 1_556 S
C536 C538 1.394 . S
C536 H552 0.931 . S
C537 C536 1.391 1_554 S
C537 C541 1.376 1_655 S
C538 C536 1.394 . S
C538 C539 1.369 1_655 S
C538 C542 1.531 . S
C539 C538 1.369 1_455 S
C539 C540 1.410 1_556 S
C539 C547 1.503 . S
C540 C539 1.410 1_554 S
C540 C541 1.392 . S
C540 C543 1.511 . S
C541 C537 1.376 1_455 S
C541 C540 1.392 . S
C541 H553 0.929 . S
C542 C538 1.531 . S
C542 H554 0.960 . S
C542 H555 0.962 . S
C542 H556 0.960 . S
C543 C540 1.511 . S
C543 H557 0.961 . S
C543 H558 0.961 . S
C543 H559 0.961 . S
C544 C545 1.370 . S
C544 C546 1.362 1_556 S
C544 H560 0.931 1_456 S
C545 C544 1.370 . S
C545 C549 1.408 . S
C546 C544 1.362 1_554 S
C546 C547 1.369 1_554 S
C546 C550 1.526 1_455 S
C547 C539 1.503 . S
C547 C546 1.369 1_556 S
C547 C548 1.403 . S
C548 C547 1.403 . S
C548 C549 1.404 . S
C548 C551 1.539 . S
C549 C545 1.408 . S
C549 C548 1.404 . S
C549 H561 0.930 . S
C550 C546 1.526 1_655 S
C550 H562 0.956 . S
C550 H563 0.961 . S
C550 H564 0.961 . S
C551 C548 1.539 . S
C551 H565 0.958 . S
C551 H566 0.961 . S
C551 H567 0.960 . S
H552 C536 0.931 . S
H553 C541 0.929 . S
H554 C542 0.960 . S
H555 C542 0.962 . S
H556 C542 0.960 . S
H557 C543 0.961 . S
H558 C543 0.961 . S
H559 C543 0.961 . S
H560 C544 0.931 1_654 S
H561 C549 0.930 . S
H562 C550 0.956 . S
H563 C550 0.961 . S
H564 C550 0.961 . S
H565 C551 0.958 . S
H566 C551 0.961 . S
H567 C551 0.960 . S
C568 C569 1.391 . S
C568 C570 1.394 . S
C568 H584 0.931 . S
C569 C568 1.391 . S
C569 C573 1.376 . S
C570 C568 1.394 . S
C570 C571 1.369 . S
C570 C574 1.531 . S
C571 C570 1.369 . S
C571 C572 1.410 . S
C571 C579 1.503 . S
C572 C571 1.410 . S
C572 C573 1.392 . S
C572 C575 1.511 . S
C573 C569 1.376 . S
C573 C572 1.392 . S
C573 H585 0.929 . S
C574 C570 1.531 . S
C574 H586 0.960 . S
C574 H587 0.962 . S
C574 H588 0.960 . S
C575 C572 1.511 . S
C575 H589 0.961 . S
C575 H590 0.961 . S
C575 H591 0.961 . S
C576 C577 1.370 . S
C576 C578 1.363 . S
C576 H592 0.931 . S
C577 C576 1.370 . S
C577 C581 1.408 . S
C578 C576 1.363 . S
C578 C579 1.370 . S
C578 C582 1.524 . S
C579 C571 1.503 . S
C579 C578 1.370 . S
C579 C580 1.403 . S
C580 C579 1.403 . S
C580 C581 1.404 . S
C580 C583 1.539 . S
C581 C577 1.408 . S
C581 C580 1.404 . S
C581 H593 0.930 . S
C582 C578 1.524 . S
C582 H594 0.956 . S
C582 H595 0.961 . S
C582 H596 0.974 . S
C583 C580 1.539 . S
C583 H597 0.958 . S
C583 H598 0.961 . S
C583 H599 0.960 . S
H584 C568 0.931 . S
H585 C573 0.929 . S
H586 C574 0.960 . S
H587 C574 0.962 . S
H588 C574 0.960 . S
H589 C575 0.961 . S
H590 C575 0.961 . S
H591 C575 0.961 . S
H592 C576 0.931 . S
H593 C581 0.930 . S
H594 C582 0.956 . S
H595 C582 0.961 . S
H596 C582 0.974 . S
H597 C583 0.958 . S
H598 C583 0.961 . S
H599 C583 0.960 . S
C600 C601 1.391 . S
C600 C602 1.394 . S
C600 H616 0.931 . S
C601 C600 1.391 . S
C601 C605 1.376 . S
C602 C600 1.394 . S
C602 C603 1.369 . S
C602 C606 1.531 . S
C603 C602 1.369 . S
C603 C604 1.410 . S
C603 C611 1.503 . S
C604 C603 1.410 . S
C604 C605 1.392 . S
C604 C607 1.514 . S
C605 C601 1.376 . S
C605 C604 1.392 . S
C605 H617 0.929 . S
C606 C602 1.531 . S
C606 H618 0.960 . S
C606 H619 0.962 . S
C606 H620 0.960 . S
C607 C604 1.514 . S
C607 H621 0.959 1_556 S
C607 H622 0.962 1_556 S
C607 H623 0.959 1_556 S
C608 C609 1.370 . S
C608 C610 1.363 . S
C608 H624 0.931 . S
C609 C608 1.370 . S
C609 C613 1.408 . S
C610 C608 1.363 . S
C610 C611 1.370 . S
C610 C614 1.524 . S
C611 C603 1.503 . S
C611 C610 1.370 . S
C611 C612 1.403 . S
C612 C611 1.403 . S
C612 C613 1.404 . S
C612 C615 1.539 . S
C613 C609 1.408 . S
C613 C612 1.404 . S
C613 H625 0.930 . S
C614 C610 1.524 . S
C614 H626 0.956 . S
C614 H627 0.961 . S
C614 H628 0.961 . S
C615 C612 1.539 . S
C615 H629 0.958 . S
C615 H630 0.961 . S
C615 H631 0.960 . S
H616 C600 0.931 . S
H617 C605 0.929 . S
H618 C606 0.960 . S
H619 C606 0.962 . S
H620 C606 0.960 . S
H621 C607 0.959 1_554 S
H622 C607 0.962 1_554 S
H623 C607 0.959 1_554 S
H624 C608 0.931 . S
H625 C613 0.930 . S
H626 C614 0.956 . S
H627 C614 0.961 . S
H628 C614 0.961 . S
H629 C615 0.958 . S
H630 C615 0.961 . S
H631 C615 0.960 . S
C632 C633 1.391 . S
C632 C634 1.394 . S
C632 H648 0.931 . S
C633 C632 1.391 . S
C633 C637 1.376 . S
C634 C632 1.394 . S
C634 C635 1.369 . S
C634 C638 1.531 . S
C635 C634 1.369 . S
C635 C636 1.410 . S
C635 C643 1.503 . S
C636 C635 1.410 . S
C636 C637 1.392 . S
C636 C639 1.511 . S
C637 C633 1.376 . S
C637 C636 1.392 . S
C637 H649 0.929 . S
C638 C634 1.531 . S
C638 H650 0.960 . S
C638 H651 0.962 . S
C638 H652 0.960 . S
C639 C636 1.511 . S
C639 H653 0.961 . S
C639 H654 0.961 . S
C639 H655 0.961 . S
C640 C641 1.370 . S
C640 C642 1.363 . S
C640 H656 0.931 . S
C641 C640 1.370 . S
C641 C645 1.408 . S
C642 C640 1.363 . S
C642 C643 1.370 . S
C642 C646 1.524 . S
C643 C635 1.503 . S
C643 C642 1.370 . S
C643 C644 1.403 . S
C644 C643 1.403 . S
C644 C645 1.404 . S
C644 C647 1.539 . S
C645 C641 1.408 . S
C645 C644 1.404 . S
C645 H657 0.930 . S
C646 C642 1.524 . S
C646 H658 0.956 . S
C646 H659 0.961 . S
C646 H660 0.961 . S
C647 C644 1.539 . S
C647 H661 0.958 . S
C647 H662 0.961 . S
C647 H663 0.960 . S
H648 C632 0.931 . S
H649 C637 0.929 . S
H650 C638 0.960 . S
H651 C638 0.962 . S
H652 C638 0.960 . S
H653 C639 0.961 . S
H654 C639 0.961 . S
H655 C639 0.961 . S
H656 C640 0.931 . S
H657 C645 0.930 . S
H658 C646 0.956 . S
H659 C646 0.961 . S
H660 C646 0.961 . S
H661 C647 0.958 . S
H662 C647 0.961 . S
H663 C647 0.960 . S
C664 C665 1.391 . S
C664 C666 1.394 . S
C664 H680 0.931 . S
C665 C664 1.391 . S
C665 C669 1.376 . S
C666 C664 1.394 . S
C666 C667 1.369 . S
C666 C670 1.531 1_556 S
C667 C666 1.369 . S
C667 C668 1.410 . S
C667 C675 1.503 . S
C668 C667 1.410 . S
C668 C669 1.392 . S
C668 C671 1.511 . S
C669 C665 1.376 . S
C669 C668 1.392 . S
C669 H681 0.929 . S
C670 C666 1.531 1_554 S
C670 H682 0.960 . S
C670 H683 0.962 . S
C670 H684 0.960 . S
C671 C668 1.511 . S
C671 H685 0.961 . S
C671 H686 0.961 . S
C671 H687 0.961 . S
C672 C673 1.370 . S
C672 C674 1.363 . S
C672 H688 0.931 . S
C673 C672 1.370 . S
C673 C677 1.408 . S
C674 C672 1.363 . S
C674 C675 1.370 . S
C674 C678 1.524 . S
C675 C667 1.503 . S
C675 C674 1.370 . S
C675 C676 1.403 . S
C676 C675 1.403 . S
C676 C677 1.404 . S
C676 C679 1.539 . S
C677 C673 1.408 . S
C677 C676 1.404 . S
C677 H689 0.930 . S
C678 C674 1.524 . S
C678 H690 0.956 . S
C678 H691 0.961 . S
C678 H692 0.961 . S
C679 C676 1.539 . S
C679 H693 0.958 . S
C679 H694 0.961 . S
C679 H695 0.960 . S
H680 C664 0.931 . S
H681 C669 0.929 . S
H682 C670 0.960 . S
H683 C670 0.962 . S
H684 C670 0.960 . S
H685 C671 0.961 . S
H686 C671 0.961 . S
H687 C671 0.961 . S
H688 C672 0.931 . S
H689 C677 0.930 . S
H690 C678 0.956 . S
H691 C678 0.961 . S
H692 C678 0.961 . S
H693 C679 0.958 . S
H694 C679 0.961 . S
H695 C679 0.960 . S
C696 C697 1.391 1_455 S
C696 C698 1.394 1_554 S
C696 H712 0.931 . S
C697 C696 1.391 1_655 S
C697 C701 1.376 1_554 S
C698 C696 1.394 1_556 S
C698 C699 1.369 . S
C698 C702 1.531 . S
C699 C698 1.369 . S
C699 C700 1.410 1_455 S
C699 C707 1.503 . S
C700 C699 1.410 1_655 S
C700 C701 1.392 . S
C700 C703 1.511 . S
C701 C697 1.376 1_556 S
C701 C700 1.392 . S
C701 H713 0.929 . S
C702 C698 1.531 . S
C702 H714 0.960 . S
C702 H715 0.962 1_556 S
C702 H716 0.960 . S
C703 C700 1.511 . S
C703 H717 0.961 . S
C703 H718 0.961 . S
C703 H719 0.961 . S
C704 C705 1.370 1_554 S
C704 C706 1.363 . S
C704 H720 0.931 . S
C705 C704 1.370 1_556 S
C705 C709 1.408 . S
C706 C704 1.363 . S
C706 C707 1.370 1_554 S
C706 C710 1.524 . S
C707 C699 1.503 . S
C707 C706 1.370 1_556 S
C707 C708 1.403 . S
C708 C707 1.403 . S
C708 C709 1.404 . S
C708 C711 1.539 . S
C709 C705 1.408 . S
C709 C708 1.404 . S
C709 H721 0.930 . S
C710 C706 1.524 . S
C710 H722 0.956 . S
C710 H723 0.961 1_455 S
C710 H724 0.961 . S
C711 C708 1.539 . S
C711 H725 0.958 . S
C711 H726 0.961 . S
C711 H727 0.960 . S
H712 C696 0.931 . S
H713 C701 0.929 . S
H714 C702 0.960 . S
H715 C702 0.962 1_554 S
H716 C702 0.960 . S
H717 C703 0.961 . S
H718 C703 0.961 . S
H719 C703 0.961 . S
H720 C704 0.931 . S
H721 C709 0.930 . S
H722 C710 0.956 . S
H723 C710 0.961 1_655 S
H724 C710 0.961 . S
H725 C711 0.958 . S
H726 C711 0.961 . S
H727 C711 0.960 . S
C728 C729 1.391 . S
C728 C730 1.394 . S
C728 H744 0.931 . S
C729 C728 1.391 . S
C729 C733 1.376 1_556 S
C730 C728 1.394 . S
C730 C731 1.369 . S
C730 C734 1.531 . S
C731 C730 1.369 . S
C731 C732 1.410 1_556 S
C731 C739 1.503 . S
C732 C731 1.410 1_554 S
C732 C733 1.392 . S
C732 C735 1.511 1_565 S
C733 C729 1.376 1_554 S
C733 C732 1.392 . S
C733 H745 0.929 . S
C734 C730 1.531 . S
C734 H746 0.960 . S
C734 H747 0.962 . S
C734 H748 0.960 . S
C735 C732 1.511 1_545 S
C735 H749 0.961 . S
C735 H750 0.961 . S
C735 H751 0.961 . S
C736 C737 1.370 . S
C736 C738 1.363 . S
C736 H752 0.931 . S
C737 C736 1.370 . S
C737 C741 1.378 1_545 S
C738 C736 1.363 . S
C738 C739 1.370 1_545 S
C738 C742 1.524 . S
C739 C731 1.503 . S
C739 C738 1.370 1_565 S
C739 C740 1.403 1_556 S
C740 C739 1.403 1_554 S
C740 C741 1.428 1_554 S
C740 C743 1.539 . S
C741 C737 1.378 1_565 S
C741 C740 1.428 1_556 S
C741 H753 0.937 1_556 S
C742 C738 1.524 . S
C742 H754 0.956 . S
C742 H755 0.961 . S
C742 H756 0.961 . S
C743 C740 1.539 . S
C743 H757 0.958 . S
C743 H758 0.961 . S
C743 H759 0.960 . S
H744 C728 0.931 . S
H745 C733 0.929 . S
H746 C734 0.960 . S
H747 C734 0.962 . S
H748 C734 0.960 . S
H749 C735 0.961 . S
H750 C735 0.961 . S
H751 C735 0.961 . S
H752 C736 0.931 . S
H753 C741 0.937 1_554 S
H754 C742 0.956 . S
H755 C742 0.961 . S
H756 C742 0.961 . S
H757 C743 0.958 . S
H758 C743 0.961 . S
H759 C743 0.960 . S
C760 C761 1.391 . S
C760 C762 1.394 . S
C760 H776 0.931 . S
C761 C760 1.391 . S
C761 C765 1.376 . S
C762 C760 1.394 . S
C762 C763 1.369 . S
C762 C766 1.531 . S
C763 C762 1.369 . S
C763 C764 1.410 . S
C763 C771 1.503 . S
C764 C763 1.410 . S
C764 C765 1.392 . S
C764 C767 1.511 . S
C765 C761 1.376 . S
C765 C764 1.392 . S
C765 H777 0.929 . S
C766 C762 1.531 . S
C766 H778 0.960 . S
C766 H779 0.962 . S
C766 H780 0.960 . S
C767 C764 1.511 . S
C767 H781 0.961 . S
C767 H782 0.961 . S
C767 H783 0.961 . S
C768 C769 1.370 . S
C768 C770 1.363 . S
C768 H784 0.931 . S
C769 C768 1.370 . S
C769 C773 1.408 . S
C770 C768 1.363 . S
C770 C771 1.370 . S
C770 C774 1.524 . S
C771 C763 1.503 . S
C771 C770 1.370 . S
C771 C772 1.403 . S
C772 C771 1.403 . S
C772 C773 1.404 . S
C772 C775 1.539 . S
C773 C769 1.408 . S
C773 C772 1.404 . S
C773 H785 0.930 . S
C774 C770 1.524 . S
C774 H786 0.956 . S
C774 H787 0.961 . S
C774 H788 0.961 . S
C775 C772 1.539 . S
C775 H789 0.958 . S
C775 H790 0.961 . S
C775 H791 0.960 . S
H776 C760 0.931 . S
H777 C765 0.929 . S
H778 C766 0.960 . S
H779 C766 0.962 . S
H780 C766 0.960 . S
H781 C767 0.961 . S
H782 C767 0.961 . S
H783 C767 0.961 . S
H784 C768 0.931 . S
H785 C773 0.930 . S
H786 C774 0.956 . S
H787 C774 0.961 . S
H788 C774 0.961 . S
H789 C775 0.958 . S
H790 C775 0.961 . S
H791 C775 0.960 . S
C792 C793 1.391 . S
C792 C794 1.394 . S
C792 H808 0.931 . S
C793 C792 1.391 . S
C793 C797 1.376 . S
C794 C792 1.394 . S
C794 C795 1.369 . S
C794 C798 1.531 1_556 S
C795 C794 1.369 . S
C795 C796 1.410 . S
C795 C803 1.503 . S
C796 C795 1.410 . S
C796 C797 1.392 . S
C796 C799 1.511 . S
C797 C793 1.376 . S
C797 C796 1.392 . S
C797 H809 0.929 . S
C798 C794 1.531 1_554 S
C798 H810 0.960 1_554 S
C798 H811 0.962 . S
C798 H812 0.960 . S
C799 C796 1.511 . S
C799 H813 0.961 . S
C799 H814 0.961 . S
C799 H815 0.961 . S
C800 C801 1.370 . S
C800 C802 1.363 . S
C800 H816 0.931 1_556 S
C801 C800 1.370 . S
C801 C805 1.408 . S
C802 C800 1.363 . S
C802 C803 1.370 . S
C802 C806 1.524 1_556 S
C803 C795 1.503 . S
C803 C802 1.370 . S
C803 C804 1.403 . S
C804 C803 1.403 . S
C804 C805 1.404 . S
C804 C807 1.539 . S
C805 C801 1.408 . S
C805 C804 1.404 . S
C805 H817 0.930 . S
C806 C802 1.524 1_554 S
C806 H818 0.956 . S
C806 H819 0.956 1_554 S
C806 H820 0.961 . S
C807 C804 1.539 . S
C807 H821 0.958 . S
C807 H822 0.961 . S
C807 H823 0.960 . S
H808 C792 0.931 . S
H809 C797 0.929 . S
H810 C798 0.960 1_556 S
H811 C798 0.962 . S
H812 C798 0.960 . S
H813 C799 0.961 . S
H814 C799 0.961 . S
H815 C799 0.961 . S
H816 C800 0.931 1_554 S
H817 C805 0.930 . S
H818 C806 0.956 . S
H819 C806 0.956 1_556 S
H820 C806 0.961 . S
H821 C807 0.958 . S
H822 C807 0.961 . S
H823 C807 0.960 . S
C824 C825 1.391 . S
C824 C826 1.394 . S
C824 H840 0.931 . S
C825 C824 1.391 . S
C825 C829 1.376 . S
C826 C824 1.394 . S
C826 C827 1.369 . S
C826 C830 1.531 . S
C827 C826 1.369 . S
C827 C828 1.410 . S
C827 C835 1.503 . S
C828 C827 1.410 . S
C828 C829 1.392 . S
C828 C831 1.511 . S
C829 C825 1.376 . S
C829 C828 1.392 . S
C829 H841 0.929 . S
C830 C826 1.531 . S
C830 H842 0.960 . S
C830 H843 0.962 . S
C830 H844 0.960 . S
C831 C828 1.511 . S
C831 H845 0.961 . S
C831 H846 0.961 . S
C831 H847 0.961 . S
C832 C833 1.370 . S
C832 C834 1.363 . S
C832 H848 0.931 . S
C833 C832 1.370 . S
C833 C837 1.408 . S
C834 C832 1.363 . S
C834 C835 1.370 . S
C834 C838 1.524 . S
C835 C827 1.503 . S
C835 C834 1.370 . S
C835 C836 1.403 . S
C836 C835 1.403 . S
C836 C837 1.404 . S
C836 C839 1.539 . S
C837 C833 1.408 . S
C837 C836 1.404 . S
C837 H849 0.930 . S
C838 C834 1.524 . S
C838 H850 0.956 . S
C838 H851 0.961 . S
C838 H852 0.961 . S
C839 C836 1.539 . S
C839 H853 0.958 . S
C839 H854 0.961 1_455 S
C839 H855 0.960 . S
H840 C824 0.931 . S
H841 C829 0.929 . S
H842 C830 0.960 . S
H843 C830 0.962 . S
H844 C830 0.960 . S
H845 C831 0.961 . S
H846 C831 0.961 . S
H847 C831 0.961 . S
H848 C832 0.931 . S
H849 C837 0.930 . S
H850 C838 0.956 . S
H851 C838 0.961 . S
H852 C838 0.961 . S
H853 C839 0.958 . S
H854 C839 0.961 1_655 S
H855 C839 0.960 . S
C856 C857 1.391 . S
C856 C858 1.394 . S
C856 H872 0.931 . S
C857 C856 1.391 . S
C857 C861 1.376 . S
C858 C856 1.394 . S
C858 C859 1.369 . S
C858 C862 1.531 . S
C859 C858 1.369 . S
C859 C860 1.410 . S
C859 C867 1.503 . S
C860 C859 1.410 . S
C860 C861 1.392 . S
C860 C863 1.511 . S
C861 C857 1.376 . S
C861 C860 1.392 . S
C861 H873 0.929 . S
C862 C858 1.531 . S
C862 H874 0.960 . S
C862 H875 0.962 . S
C862 H876 0.960 . S
C863 C860 1.511 . S
C863 H877 0.961 . S
C863 H878 0.961 . S
C863 H879 0.961 . S
C864 C865 1.370 . S
C864 C866 1.363 . S
C864 H880 0.931 . S
C865 C864 1.370 . S
C865 C869 1.408 . S
C866 C864 1.363 . S
C866 C867 1.370 . S
C866 C870 1.524 . S
C867 C859 1.503 . S
C867 C866 1.370 . S
C867 C868 1.403 . S
C868 C867 1.403 . S
C868 C869 1.404 . S
C868 C871 1.539 . S
C869 C865 1.408 . S
C869 C868 1.404 . S
C869 H881 0.930 . S
C870 C866 1.524 . S
C870 H882 0.956 . S
C870 H883 0.961 . S
C870 H884 0.961 . S
C871 C868 1.539 . S
C871 H885 0.958 . S
C871 H886 0.961 . S
C871 H887 0.960 . S
H872 C856 0.931 . S
H873 C861 0.929 . S
H874 C862 0.960 . S
H875 C862 0.962 . S
H876 C862 0.960 . S
H877 C863 0.961 . S
H878 C863 0.961 . S
H879 C863 0.961 . S
H880 C864 0.931 . S
H881 C869 0.930 . S
H882 C870 0.956 . S
H883 C870 0.961 . S
H884 C870 0.961 . S
H885 C871 0.958 . S
H886 C871 0.961 . S
H887 C871 0.960 . S
C888 C889 1.391 . S
C888 C890 1.394 . S
C888 H904 0.931 . S
C889 C888 1.391 . S
C889 C893 1.376 . S
C890 C888 1.394 . S
C890 C891 1.369 . S
C890 C894 1.531 1_554 S
C891 C890 1.369 . S
C891 C892 1.410 . S
C891 C899 1.503 . S
C892 C891 1.410 . S
C892 C893 1.392 . S
C892 C895 1.511 . S
C893 C889 1.376 . S
C893 C892 1.392 . S
C893 H905 0.929 . S
C894 C890 1.531 1_556 S
C894 H906 0.960 . S
C894 H907 0.962 . S
C894 H908 0.960 . S
C895 C892 1.511 . S
C895 H909 0.961 . S
C895 H910 0.961 . S
C895 H911 0.961 . S
C896 C897 1.370 . S
C896 C898 1.363 . S
C896 H912 0.931 . S
C897 C896 1.370 . S
C897 C901 1.408 . S
C898 C896 1.363 . S
C898 C899 1.370 . S
C898 C902 1.524 . S
C899 C891 1.503 . S
C899 C898 1.370 . S
C899 C900 1.403 . S
C900 C899 1.403 . S
C900 C901 1.404 . S
C900 C903 1.539 . S
C901 C897 1.408 . S
C901 C900 1.404 . S
C901 H913 0.930 1_554 S
C902 C898 1.524 . S
C902 H914 0.956 . S
C902 H915 0.961 . S
C902 H916 0.961 . S
C903 C900 1.539 . S
C903 H917 0.958 1_554 S
C903 H918 0.961 . S
C903 H919 0.960 . S
H904 C888 0.931 . S
H905 C893 0.929 . S
H906 C894 0.960 . S
H907 C894 0.962 . S
H908 C894 0.960 . S
H909 C895 0.961 . S
H910 C895 0.961 . S
H911 C895 0.961 . S
H912 C896 0.931 . S
H913 C901 0.930 1_556 S
H914 C902 0.956 . S
H915 C902 0.961 . S
H916 C902 0.961 . S
H917 C903 0.958 1_556 S
H918 C903 0.961 . S
H919 C903 0.960 . S
C920 C921 1.391 . S
C920 C922 1.394 . S
C920 H936 0.931 . S
C921 C920 1.391 . S
C921 C925 1.376 . S
C922 C920 1.394 . S
C922 C923 1.369 . S
C922 C926 1.531 . S
C923 C922 1.369 . S
C923 C924 1.410 . S
C923 C931 1.503 . S
C924 C923 1.410 . S
C924 C925 1.392 . S
C924 C927 1.511 . S
C925 C921 1.376 . S
C925 C924 1.392 . S
C925 H937 0.929 . S
C926 C922 1.531 . S
C926 H938 0.960 . S
C926 H939 0.962 . S
C926 H940 0.960 . S
C927 C924 1.511 . S
C927 H941 0.961 . S
C927 H942 0.961 . S
C927 H943 0.961 . S
C928 C929 1.370 . S
C928 C930 1.363 . S
C928 H944 0.931 . S
C929 C928 1.370 . S
C929 C933 1.408 . S
C930 C928 1.363 . S
C930 C931 1.370 . S
C930 C934 1.524 . S
C931 C923 1.503 . S
C931 C930 1.370 . S
C931 C932 1.403 . S
C932 C931 1.403 . S
C932 C933 1.404 . S
C932 C935 1.539 . S
C933 C929 1.408 . S
C933 C932 1.404 . S
C933 H945 0.930 . S
C934 C930 1.524 . S
C934 H946 0.956 . S
C934 H947 0.961 . S
C934 H948 0.961 . S
C935 C932 1.539 . S
C935 H949 0.958 . S
C935 H950 0.961 . S
C935 H951 0.960 . S
H936 C920 0.931 . S
H937 C925 0.929 . S
H938 C926 0.960 . S
H939 C926 0.962 . S
H940 C926 0.960 . S
H941 C927 0.961 . S
H942 C927 0.961 . S
H943 C927 0.961 . S
H944 C928 0.931 . S
H945 C933 0.930 . S
H946 C934 0.956 . S
H947 C934 0.961 . S
H948 C934 0.961 . S
H949 C935 0.958 . S
H950 C935 0.961 . S
H951 C935 0.960 . S
C952 C953 1.391 . S
C952 C954 1.394 . S
C952 H968 0.931 . S
C953 C952 1.391 . S
C953 C957 1.376 1_655 S
C954 C952 1.394 . S
C954 C955 1.400 . S
C954 C958 1.531 . S
C955 C954 1.400 . S
C955 C956 1.379 1_655 S
C955 C963 1.510 1_655 S
C956 C955 1.379 1_455 S
C956 C957 1.392 . S
C956 C959 1.511 . S
C957 C953 1.376 1_455 S
C957 C956 1.392 . S
C957 H969 0.929 . S
C958 C954 1.531 . S
C958 H970 0.960 . S
C958 H971 0.962 . S
C958 H972 0.960 . S
C959 C956 1.511 . S
C959 H973 0.961 . S
C959 H974 0.961 . S
C959 H975 0.961 . S
C960 C961 1.370 1_655 S
C960 C962 1.363 . S
C960 H976 0.931 . S
C961 C960 1.370 1_455 S
C961 C965 1.408 . S
C962 C960 1.363 . S
C962 C963 1.349 1_655 S
C962 C966 1.524 . S
C963 C955 1.510 1_455 S
C963 C962 1.349 1_455 S
C963 C964 1.423 . S
C964 C963 1.423 . S
C964 C965 1.404 . S
C964 C967 1.539 . S
C965 C961 1.408 . S
C965 C964 1.404 . S
C965 H977 0.930 . S
C966 C962 1.524 . S
C966 H978 0.956 . S
C966 H979 0.961 . S
C966 H980 0.961 . S
C967 C964 1.539 . S
C967 H981 0.958 . S
C967 H982 0.961 . S
C967 H983 0.960 . S
H968 C952 0.931 . S
H969 C957 0.929 . S
H970 C958 0.960 . S
H971 C958 0.962 . S
H972 C958 0.960 . S
H973 C959 0.961 . S
H974 C959 0.961 . S
H975 C959 0.961 . S
H976 C960 0.931 . S
H977 C965 0.930 . S
H978 C966 0.956 . S
H979 C966 0.961 . S
H980 C966 0.961 . S
H981 C967 0.958 . S
H982 C967 0.961 . S
H983 C967 0.960 . S
C984 C985 1.391 . S
C984 C986 1.394 . S
C984 H1000 0.931 . S
C985 C984 1.391 . S
C985 C989 1.376 . S
C986 C984 1.394 . S
C986 C987 1.369 . S
C986 C990 1.531 . S
C987 C986 1.369 . S
C987 C988 1.410 . S
C987 C995 1.503 . S
C988 C987 1.410 . S
C988 C989 1.392 . S
C988 C991 1.511 . S
C989 C985 1.376 . S
C989 C988 1.392 . S
C989 H1001 0.929 . S
C990 C986 1.531 . S
C990 H1002 0.960 . S
C990 H1003 0.962 . S
C990 H1004 0.960 . S
C991 C988 1.511 . S
C991 H1005 0.961 . S
C991 H1006 0.961 . S
C991 H1007 0.961 . S
C992 C993 1.370 . S
C992 C994 1.363 . S
C992 H1008 0.931 1_565 S
C993 C992 1.370 . S
C993 C997 1.408 . S
C994 C992 1.363 . S
C994 C995 1.370 . S
C994 C998 1.524 1_565 S
C995 C987 1.503 . S
C995 C994 1.370 . S
C995 C996 1.403 . S
C996 C995 1.403 . S
C996 C997 1.404 . S
C996 C999 1.539 . S
C997 C993 1.408 . S
C997 C996 1.404 . S
C997 H1009 0.930 . S
C998 C994 1.524 1_545 S
C998 H1010 0.956 . S
C998 H1011 0.961 . S
C998 H1012 0.961 . S
C999 C996 1.539 . S
C999 H1013 0.958 . S
C999 H1014 0.961 . S
C999 H1015 0.960 . S
H1000 C984 0.931 . S
H1001 C989 0.929 . S
H1002 C990 0.960 . S
H1003 C990 0.962 . S
H1004 C990 0.960 . S
H1005 C991 0.961 . S
H1006 C991 0.961 . S
H1007 C991 0.961 . S
H1008 C992 0.931 1_545 S
H1009 C997 0.930 . S
H1010 C998 0.956 . S
H1011 C998 0.961 . S
H1012 C998 0.961 . S
H1013 C999 0.958 . S
H1014 C999 0.961 . S
H1015 C999 0.960 . S
C1016 C1017 1.391 . S
C1016 C1018 1.394 . S
C1016 H1032 0.931 . S
C1017 C1016 1.391 . S
C1017 C1021 1.376 . S
C1018 C1016 1.394 . S
C1018 C1019 1.369 . S
C1018 C1022 1.531 . S
C1019 C1018 1.369 . S
C1019 C1020 1.410 . S
C1019 C1027 1.503 . S
C1020 C1019 1.410 . S
C1020 C1021 1.392 . S
C1020 C1023 1.511 . S
C1021 C1017 1.376 . S
C1021 C1020 1.392 . S
C1021 H1033 0.929 . S
C1022 C1018 1.531 . S
C1022 H1034 0.960 . S
C1022 H1035 0.962 . S
C1022 H1036 0.960 . S
C1023 C1020 1.511 . S
C1023 H1037 0.961 . S
C1023 H1038 0.961 . S
C1023 H1039 0.961 . S
C1024 C1025 1.370 . S
C1024 C1026 1.363 . S
C1024 H1040 0.931 . S
C1025 C1024 1.370 . S
C1025 C1029 1.408 . S
C1026 C1024 1.363 . S
C1026 C1027 1.370 . S
C1026 C1030 1.524 . S
C1027 C1019 1.503 . S
C1027 C1026 1.370 . S
C1027 C1028 1.403 . S
C1028 C1027 1.403 . S
C1028 C1029 1.404 . S
C1028 C1031 1.539 . S
C1029 C1025 1.408 . S
C1029 C1028 1.404 . S
C1029 H1041 0.930 . S
C1030 C1026 1.524 . S
C1030 H1042 0.956 . S
C1030 H1043 0.961 . S
C1030 H1044 0.961 . S
C1031 C1028 1.539 . S
C1031 H1045 0.958 . S
C1031 H1046 0.961 . S
C1031 H1047 0.960 . S
H1032 C1016 0.931 . S
H1033 C1021 0.929 . S
H1034 C1022 0.960 . S
H1035 C1022 0.962 . S
H1036 C1022 0.960 . S
H1037 C1023 0.961 . S
H1038 C1023 0.961 . S
H1039 C1023 0.961 . S
H1040 C1024 0.931 . S
H1041 C1029 0.930 . S
H1042 C1030 0.956 . S
H1043 C1030 0.961 . S
H1044 C1030 0.961 . S
H1045 C1031 0.958 . S
H1046 C1031 0.961 . S
H1047 C1031 0.960 . S
C1048 C1049 1.391 . S
C1048 C1050 1.394 . S
C1048 H1064 0.931 . S
C1049 C1048 1.391 . S
C1049 C1053 1.376 . S
C1050 C1048 1.394 . S
C1050 C1051 1.369 . S
C1050 C1054 1.531 . S
C1051 C1050 1.369 . S
C1051 C1052 1.410 . S
C1051 C1059 1.503 . S
C1052 C1051 1.410 . S
C1052 C1053 1.392 . S
C1052 C1055 1.511 . S
C1053 C1049 1.376 . S
C1053 C1052 1.392 . S
C1053 H1065 0.929 . S
C1054 C1050 1.531 . S
C1054 H1066 0.960 . S
C1054 H1067 0.962 . S
C1054 H1068 0.960 . S
C1055 C1052 1.511 . S
C1055 H1069 0.961 . S
C1055 H1070 0.961 . S
C1055 H1071 0.961 . S
C1056 C1057 1.370 . S
C1056 C1058 1.363 . S
C1056 H1072 0.931 . S
C1057 C1056 1.370 . S
C1057 C1061 1.408 . S
C1058 C1056 1.363 . S
C1058 C1059 1.370 . S
C1058 C1062 1.524 . S
C1059 C1051 1.503 . S
C1059 C1058 1.370 . S
C1059 C1060 1.403 . S
C1060 C1059 1.403 . S
C1060 C1061 1.404 . S
C1060 C1063 1.539 . S
C1061 C1057 1.408 . S
C1061 C1060 1.404 . S
C1061 H1073 0.930 . S
C1062 C1058 1.524 . S
C1062 H1074 0.956 . S
C1062 H1075 0.961 . S
C1062 H1076 0.961 . S
C1063 C1060 1.539 . S
C1063 H1077 0.958 . S
C1063 H1078 0.961 . S
C1063 H1079 0.960 . S
H1064 C1048 0.931 . S
H1065 C1053 0.929 . S
H1066 C1054 0.960 . S
H1067 C1054 0.962 . S
H1068 C1054 0.960 . S
H1069 C1055 0.961 . S
H1070 C1055 0.961 . S
H1071 C1055 0.961 . S
H1072 C1056 0.931 . S
H1073 C1061 0.930 . S
H1074 C1062 0.956 . S
H1075 C1062 0.961 . S
H1076 C1062 0.961 . S
H1077 C1063 0.958 . S
H1078 C1063 0.961 . S
H1079 C1063 0.960 . S
C313 C125 1.474 . S
C321 C161 1.646 . S
C353 C201 1.278 . S
C345 C144 1.385 . S
C385 C250 1.414 . S
C377 C87 1.242 . S
C417 C281 1.792 . S
C409 C106 1.697 . S
C449 C170 1.656 . S
C441 C49 1.584 1_556 S
C473 C68 1.366 . S
C481 C210 1.303 1_554 S
C505 C11 1.351 . S
C513 C241 1.418 . S
C537 C30 1.803 . S
C545 C290 1.787 . S
C577 C171 1.147 . S
C569 C97 1.010 . S
C609 C211 1.553 . S
C601 C116 1.386 . S
C641 C247 0.830 . S
C633 C135 0.806 . S
C665 C78 1.164 . S
C673 C291 1.322 . S
C697 C21 1.098 . S
C705 C162 1.145 . S
C737 C202 1.554 . S
C729 C40 1.339 1_556 S
C769 C238 0.836 . S
C761 C59 0.804 . S
C793 C2 1.219 . S
C801 C282 1.321 . S
C825 C101 1.620 . S
C833 C167 1.657 . S
C857 C120 1.378 . S
C865 C207 1.378 . S
C897 C251 1.919 1_554 S
C889 C139 1.805 . S
C929 C287 1.389 . S
C921 C82 1.390 . S
C953 C25 1.644 . S
C961 C158 1.658 . S
C993 C198 1.393 . S
C985 C44 1.394 . S
C1025 C242 1.921 . S
C1017 C63 1.822 . S
C1049 C6 1.364 . S
C1057 C278 1.380 . S
