# Generated by pormake.
# Topology pto, (3,4)-cn, num edge types: 1
# Building blocks:
#     Node 0, Type 0, BuildingBlock: ESEHIV_clean_linker_0, # of connection points: 3
#     Node 1, Type 0, BuildingBlock: ESEHIV_clean_linker_0, # of connection points: 3
#     Node 2, Type 0, BuildingBlock: ESEHIV_clean_linker_0, # of connection points: 3
#     Node 3, Type 0, BuildingBlock: ESEHIV_clean_linker_0, # of connection points: 3
#     Node 4, Type 0, BuildingBlock: ESEHIV_clean_linker_0, # of connection points: 3
#     Node 5, Type 0, BuildingBlock: ESEHIV_clean_linker_0, # of connection points: 3
#     Node 6, Type 0, BuildingBlock: ESEHIV_clean_linker_0, # of connection points: 3
#     Node 7, Type 0, BuildingBlock: ESEHIV_clean_linker_0, # of connection points: 3
#     Node 8, Type 1, BuildingBlock: NAWXER_clean_sbu_0, # of connection points: 4
#     Node 9, Type 1, BuildingBlock: NAWXER_clean_sbu_0, # of connection points: 4
#     Node 10, Type 1, BuildingBlock: NAWXER_clean_sbu_0, # of connection points: 4
#     Node 11, Type 1, BuildingBlock: NAWXER_clean_sbu_0, # of connection points: 4
#     Node 12, Type 1, BuildingBlock: NAWXER_clean_sbu_0, # of connection points: 4
#     Node 13, Type 1, BuildingBlock: NAWXER_clean_sbu_0, # of connection points: 4
#     Edge 14, Type (0, 1), BuildingBlock: CIFDUS_clean_linker_0, # of connection points: 2
#     Edge 15, Type (0, 1), BuildingBlock: CIFDUS_clean_linker_0, # of connection points: 2
#     Edge 16, Type (0, 1), BuildingBlock: CIFDUS_clean_linker_0, # of connection points: 2
#     Edge 17, Type (0, 1), BuildingBlock: CIFDUS_clean_linker_0, # of connection points: 2
#     Edge 18, Type (0, 1), BuildingBlock: CIFDUS_clean_linker_0, # of connection points: 2
#     Edge 19, Type (0, 1), BuildingBlock: CIFDUS_clean_linker_0, # of connection points: 2
#     Edge 20, Type (0, 1), BuildingBlock: CIFDUS_clean_linker_0, # of connection points: 2
#     Edge 21, Type (0, 1), BuildingBlock: CIFDUS_clean_linker_0, # of connection points: 2
#     Edge 22, Type (0, 1), BuildingBlock: CIFDUS_clean_linker_0, # of connection points: 2
#     Edge 23, Type (0, 1), BuildingBlock: CIFDUS_clean_linker_0, # of connection points: 2
#     Edge 24, Type (0, 1), BuildingBlock: CIFDUS_clean_linker_0, # of connection points: 2
#     Edge 25, Type (0, 1), BuildingBlock: CIFDUS_clean_linker_0, # of connection points: 2
#     Edge 26, Type (0, 1), BuildingBlock: CIFDUS_clean_linker_0, # of connection points: 2
#     Edge 27, Type (0, 1), BuildingBlock: CIFDUS_clean_linker_0, # of connection points: 2
#     Edge 28, Type (0, 1), BuildingBlock: CIFDUS_clean_linker_0, # of connection points: 2
#     Edge 29, Type (0, 1), BuildingBlock: CIFDUS_clean_linker_0, # of connection points: 2
#     Edge 30, Type (0, 1), BuildingBlock: CIFDUS_clean_linker_0, # of connection points: 2
#     Edge 31, Type (0, 1), BuildingBlock: CIFDUS_clean_linker_0, # of connection points: 2
#     Edge 32, Type (0, 1), BuildingBlock: CIFDUS_clean_linker_0, # of connection points: 2
#     Edge 33, Type (0, 1), BuildingBlock: CIFDUS_clean_linker_0, # of connection points: 2
#     Edge 34, Type (0, 1), BuildingBlock: CIFDUS_clean_linker_0, # of connection points: 2
#     Edge 35, Type (0, 1), BuildingBlock: CIFDUS_clean_linker_0, # of connection points: 2
#     Edge 36, Type (0, 1), BuildingBlock: CIFDUS_clean_linker_0, # of connection points: 2
#     Edge 37, Type (0, 1), BuildingBlock: CIFDUS_clean_linker_0, # of connection points: 2
# Relax obj value: 0.000
# Max RMSD: 0.005
# Mean RMSD: 0.003
data_MOF--net-pto--node1-NAWXER_clean_sbu_0--node2-ESEHIV_clean_linker_0--edge1-CIFDUS_clean_linker_0
_symmetry_space_group_name_H-M    P1
_symmetry_Int_Tables_number       1
_symmetry_cell_setting            triclinic
loop_
_symmetry_equiv_pos_as_xyz
'x, y, z'
_cell_length_a     35.177294
_cell_length_b     33.261061
_cell_length_c     31.30025
_cell_angle_alpha  90.400194
_cell_angle_beta   89.843382
_cell_angle_gamma 90.205052
loop_
_atom_site_label
_atom_site_type_symbol
_atom_site_fract_x
_atom_site_fract_y
_atom_site_fract_z
_atom_type_partial_charge
H0 H 0.268 0.32909 0.21857 0.0
H1 H 0.32754 0.23293 0.27837 0.0
H2 H 0.2238 0.27735 0.33415 0.0
C3 C 0.27038 0.30813 0.24472 0.0
C4 C 0.24309 0.30835 0.27776 0.0
C5 C 0.3007 0.28085 0.24465 0.0
C6 C 0.30305 0.25251 0.27737 0.0
C7 C 0.27483 0.24979 0.30912 0.0
C8 C 0.24517 0.27835 0.30934 0.0
H9 H 0.25652 0.69837 0.82588 0.0
H10 H 0.30732 0.80078 0.76489 0.0
H11 H 0.20368 0.75015 0.716 0.0
C12 C 0.25587 0.72154 0.80176 0.0
C13 C 0.22684 0.72078 0.771 0.0
C14 C 0.28496 0.75079 0.80017 0.0
C15 C 0.28479 0.7788 0.76668 0.0
C16 C 0.25637 0.77843 0.7352 0.0
C17 C 0.22686 0.74996 0.73867 0.0
H18 H 0.7229 0.80467 0.24546 0.0
H19 H 0.81754 0.74931 0.30731 0.0
H20 H 0.76816 0.69354 0.19627 0.0
C21 C 0.74218 0.77951 0.24784 0.0
C22 C 0.74136 0.74881 0.21681 0.0
C23 C 0.76844 0.77914 0.28144 0.0
C24 C 0.79629 0.74891 0.28234 0.0
C25 C 0.79727 0.71867 0.25068 0.0
C26 C 0.76882 0.71814 0.21905 0.0
H27 H 0.70117 0.2272 0.75361 0.0
H28 H 0.81138 0.25898 0.70387 0.0
H29 H 0.77018 0.31366 0.81976 0.0
C30 C 0.72795 0.24313 0.75634 0.0
C31 C 0.73358 0.26873 0.79155 0.0
C32 C 0.75558 0.23927 0.72411 0.0
C33 C 0.7891 0.26244 0.7275 0.0
C34 C 0.79431 0.29029 0.76115 0.0
C35 C 0.76657 0.29264 0.79349 0.0
H36 H 0.73314 0.80055 0.76437 0.0
H37 H 0.76778 0.68259 0.80245 0.0
H38 H 0.8212 0.73988 0.69472 0.0
C39 C 0.75109 0.77449 0.75977 0.0
C40 C 0.77911 0.77491 0.7276 0.0
C41 C 0.74592 0.74063 0.78595 0.0
C42 C 0.77018 0.7075 0.78053 0.0
C43 C 0.79814 0.70699 0.74818 0.0
C44 C 0.80147 0.74054 0.72129 0.0
H45 H 0.70742 0.22081 0.25092 0.0
H46 H 0.75761 0.33199 0.20841 0.0
H47 H 0.81643 0.25806 0.2982 0.0
C48 C 0.73021 0.24274 0.25181 0.0
C49 C 0.76146 0.23586 0.27874 0.0
C50 C 0.72774 0.27771 0.22675 0.0
C51 C 0.7589 0.30439 0.22646 0.0
C52 C 0.79128 0.29684 0.25132 0.0
C53 C 0.79215 0.26284 0.27766 0.0
H54 H 0.21141 0.25829 0.70293 0.0
H55 H 0.31687 0.21263 0.75141 0.0
H56 H 0.26657 0.31772 0.80848 0.0
C57 C 0.23484 0.26032 0.72526 0.0
C58 C 0.23556 0.29144 0.7558 0.0
C59 C 0.26407 0.23179 0.72333 0.0
C60 C 0.29427 0.23466 0.75258 0.0
C61 C 0.29549 0.26555 0.78349 0.0
C62 C 0.26603 0.29391 0.78468 0.0
H63 H 0.20317 0.74758 0.28742 0.0
H64 H 0.254 0.69793 0.17313 0.0
H65 H 0.31205 0.78974 0.24493 0.0
C66 C 0.22589 0.74685 0.26402 0.0
C67 C 0.25718 0.77254 0.26971 0.0
C68 C 0.22401 0.71984 0.22918 0.0
C69 C 0.25508 0.71777 0.20068 0.0
C70 C 0.28709 0.74261 0.20646 0.0
C71 C 0.28773 0.77 0.24088 0.0
C72 C 0.96359 0.45049 0.21911 0.0
C73 C 0.06451 0.55067 0.21134 0.0
O74 O 0.97386 0.46397 0.25575 0.0
Zn75 Zn 0.01367 0.50563 0.28212 0.0
O76 O 0.98004 0.46333 0.18564 0.0
Zn77 Zn 0.01433 0.50054 0.21419 0.0
O78 O 0.05304 0.46162 0.24662 0.0
O79 O 0.04578 0.4708 0.31615 0.0
O80 O 0.04932 0.53182 0.18032 0.0
O81 O 0.05364 0.54399 0.2498 0.0
O82 O 0.98033 0.54371 0.3103 0.0
O83 O 0.97567 0.54487 0.24004 0.0
C84 C 0.06207 0.45302 0.28509 0.0
C85 C 0.9652 0.55808 0.27687 0.0
C86 C 0.96527 0.44795 0.79235 0.0
C87 C 0.0643 0.55302 0.79635 0.0
O88 O 0.97977 0.46374 0.82575 0.0
Zn89 Zn 0.01462 0.50042 0.79678 0.0
O90 O 0.97698 0.45918 0.75547 0.0
Zn91 Zn 0.01723 0.50008 0.72822 0.0
O92 O 0.05199 0.46475 0.69865 0.0
O93 O 0.05492 0.45993 0.76889 0.0
O94 O 0.05502 0.54111 0.7588 0.0
O95 O 0.04764 0.53778 0.8286 0.0
O96 O 0.97605 0.54016 0.76557 0.0
O97 O 0.98573 0.53594 0.69573 0.0
C98 C 0.06659 0.44913 0.73171 0.0
C99 C 0.96804 0.55096 0.72745 0.0
C100 C 0.28676 0.94763 0.55847 0.0
C101 C 0.29087 0.05112 0.44905 0.0
O102 O 0.25381 0.95805 0.54532 0.0
Zn103 Zn 0.22945 0.99923 0.50123 0.0
O104 O 0.31651 0.96366 0.54277 0.0
Zn105 Zn 0.29081 0.99782 0.50221 0.0
O106 O 0.26497 0.04017 0.54412 0.0
O107 O 0.20245 0.03599 0.53989 0.0
O108 O 0.31935 0.03261 0.46417 0.0
O109 O 0.2571 0.04132 0.46031 0.0
O110 O 0.20301 0.96354 0.4612 0.0
O111 O 0.26527 0.95623 0.45926 0.0
C112 C 0.23206 0.05227 0.55593 0.0
C113 C 0.2322 0.94584 0.44614 0.0
C114 C 0.56603 0.76825 0.05697 0.0
C115 C 0.47049 0.76939 0.94473 0.0
O116 O 0.55667 0.73303 0.04382 0.0
Zn117 Zn 0.51829 0.7059 0.99926 0.0
O118 O 0.55019 0.79919 0.04148 0.0
Zn119 Zn 0.51878 0.77091 1.00036 0.0
O120 O 0.47776 0.74347 0.04058 0.0
O121 O 0.48217 0.67744 0.03666 0.0
O122 O 0.48685 0.80006 0.96086 0.0
O123 O 0.47983 0.73398 0.95637 0.0
O124 O 0.55358 0.67825 0.96032 0.0
O125 O 0.55966 0.74425 0.95908 0.0
C126 C 0.46601 0.70867 0.0519 0.0
C127 C 0.57048 0.70946 0.94631 0.0
C128 C 0.77102 0.96016 0.566 0.0
C129 C 0.78249 0.0609 0.45158 0.0
O130 O 0.74001 0.97183 0.54906 0.0
Zn131 Zn 0.71885 0.01028 0.50209 0.0
O132 O 0.80253 0.97444 0.55259 0.0
Zn133 Zn 0.78087 0.01022 0.50873 0.0
O134 O 0.75144 0.0534 0.54649 0.0
O135 O 0.68924 0.0474 0.53719 0.0
O136 O 0.81073 0.04532 0.47078 0.0
O137 O 0.74871 0.04966 0.46117 0.0
O138 O 0.69597 0.97202 0.46207 0.0
O139 O 0.75854 0.96793 0.46464 0.0
C140 C 0.71749 0.06473 0.55493 0.0
C141 C 0.72677 0.95572 0.44941 0.0
C142 C 0.56068 0.31772 0.06235 0.0
C143 C 0.46178 0.30698 0.9526 0.0
O144 O 0.55013 0.28162 0.05407 0.0
Zn145 Zn 0.51225 0.25018 0.01246 0.0
O146 O 0.54573 0.34702 0.04265 0.0
Zn147 Zn 0.51107 0.31483 0.00775 0.0
O148 O 0.47292 0.28936 0.05359 0.0
O149 O 0.47882 0.22326 0.05233 0.0
O150 O 0.47648 0.3394 0.96688 0.0
O151 O 0.47305 0.2732 0.96721 0.0
O152 O 0.54753 0.21986 0.97671 0.0
O153 O 0.55089 0.28546 0.96741 0.0
C154 C 0.46305 0.25466 0.0675 0.0
C155 C 0.56265 0.25002 0.95842 0.0
H156 H 0.16931 0.3038 0.30863 0.0
H157 H 0.2494 0.38659 0.2513 0.0
H158 H 0.20068 0.43779 0.24842 0.0
H159 H 0.13475 0.45919 0.26009 0.0
H160 H 0.05648 0.38064 0.32498 0.0
H161 H 0.10542 0.32818 0.32835 0.0
C162 C 0.17658 0.33316 0.29622 0.0
C163 C 0.21318 0.34041 0.27914 0.0
C164 C 0.14872 0.36352 0.2963 0.0
C165 C 0.22133 0.37902 0.26306 0.0
C166 C 0.19354 0.40878 0.26188 0.0
C167 C 0.12873 0.43071 0.27547 0.0
C168 C 0.09237 0.42349 0.29227 0.0
C169 C 0.15708 0.40125 0.27794 0.0
C170 C 0.08455 0.38673 0.31219 0.0
C171 C 0.11241 0.35676 0.31384 0.0
H172 H 0.18648 0.68883 0.83834 0.0
H173 H 0.20252 0.67838 0.70187 0.0
H174 H 0.1541 0.62617 0.69833 0.0
H175 H 0.10704 0.58412 0.73291 0.0
H176 H 0.08978 0.592 0.86926 0.0
H177 H 0.13914 0.64426 0.87395 0.0
C178 C 0.17949 0.6749 0.80793 0.0
C179 C 0.19782 0.68801 0.77032 0.0
C180 C 0.15146 0.64446 0.80605 0.0
C181 C 0.18835 0.66963 0.73116 0.0
C182 C 0.1608 0.63953 0.7291 0.0
C183 C 0.11389 0.59714 0.76383 0.0
C184 C 0.0945 0.58417 0.80067 0.0
C185 C 0.14205 0.62693 0.76621 0.0
C186 C 0.10417 0.6014 0.84035 0.0
C187 C 0.13238 0.63131 0.84302 0.0
H188 H 0.83214 0.68051 0.31766 0.0
H189 H 0.83422 0.68991 0.18009 0.0
H190 H 0.88585 0.64154 0.17632 0.0
H191 H 0.93068 0.59677 0.21153 0.0
H192 H 0.93077 0.58827 0.34906 0.0
H193 H 0.8787 0.63672 0.35329 0.0
C194 C 0.84406 0.67228 0.28686 0.0
C195 C 0.82882 0.68873 0.24921 0.0
C196 C 0.87438 0.64475 0.28485 0.0
C197 C 0.84458 0.6772 0.2096 0.0
C198 C 0.87444 0.64975 0.20737 0.0
C199 C 0.91945 0.60552 0.24252 0.0
C200 C 0.93469 0.58877 0.27991 0.0
C201 C 0.88953 0.63331 0.24473 0.0
C202 C 0.91971 0.60067 0.31973 0.0
C203 C 0.88982 0.62833 0.32218 0.0
H204 H 0.83671 0.3184 0.82916 0.0
H205 H 0.82585 0.32725 0.69204 0.0
H206 H 0.87811 0.37509 0.69 0.0
H207 H 0.9255 0.41596 0.72651 0.0
H208 H 0.93574 0.4109 0.86373 0.0
H209 H 0.88462 0.36063 0.86631 0.0
C210 C 0.8456 0.33093 0.79884 0.0
C211 C 0.82734 0.31868 0.76075 0.0
C212 C 0.87541 0.35937 0.79787 0.0
C213 C 0.83973 0.33513 0.72179 0.0
C214 C 0.86946 0.36292 0.72057 0.0
C215 C 0.91676 0.40389 0.75711 0.0
C216 C 0.93458 0.41724 0.79488 0.0
C217 C 0.88735 0.37536 0.75835 0.0
C218 C 0.92256 0.40124 0.83415 0.0
C219 C 0.89333 0.37246 0.83562 0.0
H220 H 0.30389 0.17383 0.29899 0.0
H221 H 0.25008 0.25095 0.39308 0.0
H222 H 0.25059 0.19623 0.44419 0.0
H223 H 0.26523 0.12595 0.462 0.0
H224 H 0.32615 0.05205 0.37158 0.0
H225 H 0.32566 0.10703 0.31963 0.0
C226 C 0.29315 0.17946 0.33093 0.0
C227 C 0.27664 0.21692 0.34153 0.0
C228 C 0.29521 0.1485 0.36103 0.0
C229 C 0.26198 0.22244 0.38308 0.0
C230 C 0.26268 0.19123 0.41272 0.0
C231 C 0.27885 0.12228 0.43106 0.0
C232 C 0.29568 0.08535 0.42024 0.0
C233 C 0.279 0.15412 0.40193 0.0
C234 C 0.31337 0.08051 0.38041 0.0
C235 C 0.31279 0.11177 0.35076 0.0
H236 H 0.35963 0.77344 0.78912 0.0
H237 H 0.28092 0.73087 0.88532 0.0
H238 H 0.33139 0.73339 0.93839 0.0
H239 H 0.39804 0.7477 0.95761 0.0
H240 H 0.4739 0.79819 0.86386 0.0
H241 H 0.42346 0.79474 0.80989 0.0
C242 C 0.35279 0.76576 0.82182 0.0
C243 C 0.316 0.75204 0.83277 0.0
C244 C 0.38135 0.76933 0.85278 0.0
C245 C 0.30889 0.74074 0.87534 0.0
C246 C 0.33767 0.74267 0.90599 0.0
C247 C 0.40311 0.75856 0.92546 0.0
C248 C 0.43918 0.77341 0.91437 0.0
C249 C 0.37393 0.75696 0.89506 0.0
C250 C 0.446 0.78721 0.87288 0.0
C251 C 0.41734 0.78485 0.84211 0.0
H252 H 0.70548 0.81154 0.31898 0.0
H253 H 0.82808 0.8195 0.31826 0.0
H254 H 0.82545 0.87423 0.37042 0.0
H255 H 0.78872 0.92076 0.41429 0.0
H256 H 0.66604 0.91536 0.41378 0.0
H257 H 0.66837 0.85907 0.36287 0.0
C258 C 0.73165 0.82544 0.32998 0.0
C259 C 0.76697 0.81135 0.31463 0.0
C260 C 0.72991 0.8575 0.35931 0.0
C261 C 0.80057 0.82923 0.32989 0.0
C262 C 0.79907 0.8608 0.35944 0.0
C263 C 0.76234 0.90739 0.40317 0.0
C264 C 0.72719 0.92232 0.41788 0.0
C265 C 0.76393 0.87528 0.37409 0.0
C266 C 0.69344 0.90456 0.40291 0.0
C267 C 0.69479 0.87233 0.37392 0.0
H268 H 0.69465 0.20725 0.82861 0.0
H269 H 0.70538 0.33661 0.82934 0.0
H270 H 0.65397 0.34161 0.88156 0.0
H271 H 0.60496 0.30979 0.92471 0.0
H272 H 0.59258 0.18057 0.92406 0.0
H273 H 0.64558 0.17498 0.87336 0.0
C274 C 0.68563 0.23653 0.84015 0.0
C275 C 0.7038 0.27154 0.82509 0.0
C276 C 0.65569 0.23921 0.86976 0.0
C277 C 0.69223 0.30922 0.84079 0.0
C278 C 0.66263 0.31211 0.87036 0.0
C279 C 0.61366 0.28028 0.91351 0.0
C280 C 0.5946 0.24561 0.92793 0.0
C281 C 0.644 0.27736 0.8847 0.0
C282 C 0.60666 0.20771 0.91335 0.0
C283 C 0.63695 0.20453 0.88441 0.0
H284 H 0.28888 0.85417 0.73112 0.0
H285 H 0.22999 0.76579 0.65321 0.0
H286 H 0.23417 0.81024 0.59233 0.0
H287 H 0.25474 0.87422 0.5605 0.0
H288 H 0.32219 0.95721 0.63475 0.0
H289 H 0.31649 0.91347 0.69725 0.0
C290 C 0.27775 0.84367 0.70082 0.0
C291 C 0.25874 0.80626 0.69772 0.0
C292 C 0.28243 0.8682 0.66485 0.0
C293 C 0.24363 0.7947 0.65775 0.0
C294 C 0.24655 0.81988 0.62239 0.0
C295 C 0.2687 0.88221 0.59026 0.0
C296 C 0.28896 0.91852 0.59335 0.0
C297 C 0.26592 0.85662 0.62556 0.0
C298 C 0.30693 0.92898 0.63177 0.0
C299 C 0.30331 0.90423 0.66749 0.0
H300 H 0.66911 0.78021 0.21945 0.0
H301 H 0.74769 0.71948 0.13432 0.0
H302 H 0.70016 0.71974 0.0782 0.0
H303 H 0.63619 0.73722 0.05282 0.0
H304 H 0.56157 0.8064 0.13391 0.0
H305 H 0.60866 0.80467 0.19161 0.0
C306 C 0.67662 0.76788 0.18846 0.0
C307 C 0.71234 0.74953 0.18187 0.0
C308 C 0.64996 0.77014 0.15531 0.0
C309 C 0.72033 0.73276 0.14136 0.0
C310 C 0.69328 0.73338 0.1088 0.0
C311 C 0.63061 0.7523 0.08305 0.0
C312 C 0.59576 0.77186 0.08953 0.0
C313 C 0.65805 0.75192 0.11545 0.0
C314 C 0.5885 0.79149 0.12842 0.0
C315 C 0.61524 0.79021 0.16136 0.0
H316 H 0.71369 0.16911 0.721 0.0
H317 H 0.7814 0.24778 0.64139 0.0
H318 H 0.77329 0.20187 0.58146 0.0
H319 H 0.7498 0.13765 0.55237 0.0
H320 H 0.67671 0.06281 0.62886 0.0
H321 H 0.68229 0.11044 0.68881 0.0
C322 C 0.72597 0.17713 0.69045 0.0
C323 C 0.74886 0.21195 0.68659 0.0
C324 C 0.71969 0.15156 0.65525 0.0
C325 C 0.76489 0.2207 0.64638 0.0
C326 C 0.75978 0.19472 0.61165 0.0
C327 C 0.73431 0.13246 0.58188 0.0
C328 C 0.71272 0.09717 0.58646 0.0
C329 C 0.73766 0.15988 0.61588 0.0
C330 C 0.69294 0.09025 0.62465 0.0
C331 C 0.69658 0.11717 0.65897 0.0
H332 H 0.33483 0.21778 0.2037 0.0
H333 H 0.33383 0.34752 0.20998 0.0
H334 H 0.38347 0.35048 0.15559 0.0
H335 H 0.4277 0.3166 0.10739 0.0
H336 H 0.43067 0.18689 0.10188 0.0
H337 H 0.38011 0.1836 0.15565 0.0
C338 C 0.34569 0.2467 0.19343 0.0
C339 C 0.3305 0.28239 0.2109 0.0
C340 C 0.37469 0.24821 0.16255 0.0
C341 C 0.34452 0.31961 0.19668 0.0
C342 C 0.37314 0.32134 0.1658 0.0
C343 C 0.41739 0.2875 0.11787 0.0
C344 C 0.433 0.25202 0.10058 0.0
C345 C 0.38847 0.28586 0.14866 0.0
C346 C 0.41923 0.21467 0.11469 0.0
C347 C 0.39028 0.21278 0.14538 0.0
H348 H 0.87184 0.70778 0.71928 0.0
H349 H 0.78448 0.62685 0.76524 0.0
H350 H 0.82925 0.57135 0.76204 0.0
H351 H 0.89418 0.54619 0.7489 0.0
H352 H 0.97839 0.62514 0.69454 0.0
H353 H 0.93303 0.68094 0.69633 0.0
C354 C 0.86184 0.67797 0.72745 0.0
C355 C 0.82456 0.67214 0.74308 0.0
C356 C 0.88713 0.64569 0.72361 0.0
C357 C 0.81315 0.63298 0.75443 0.0
C358 C 0.83863 0.60093 0.75211 0.0
C359 C 0.90214 0.57551 0.7367 0.0
C360 C 0.93919 0.58196 0.72153 0.0
C361 C 0.87579 0.60705 0.73723 0.0
C362 C 0.9497 0.61975 0.70586 0.0
C363 C 0.92393 0.65158 0.70726 0.0
H364 H 0.82747 0.33009 0.18304 0.0
H365 H 0.82697 0.32825 0.32089 0.0
H366 H 0.8807 0.37474 0.32262 0.0
H367 H 0.92726 0.41589 0.28549 0.0
H368 H 0.92889 0.41892 0.14763 0.0
H369 H 0.87517 0.37184 0.14535 0.0
C370 C 0.83909 0.34012 0.21338 0.0
C371 C 0.82346 0.32567 0.25178 0.0
C372 C 0.87011 0.36687 0.21414 0.0
C373 C 0.83886 0.33856 0.29092 0.0
C374 C 0.86946 0.36524 0.29194 0.0
C375 C 0.91601 0.40631 0.25482 0.0
C376 C 0.93207 0.42098 0.21677 0.0
C377 C 0.88529 0.37949 0.2538 0.0
C378 C 0.9171 0.40804 0.1774 0.0
C379 C 0.88634 0.38121 0.17609 0.0
H380 H 0.20034 0.32886 0.68969 0.0
H381 H 0.19968 0.31962 0.82722 0.0
H382 H 0.14743 0.36745 0.83152 0.0
H383 H 0.10192 0.41128 0.79657 0.0
H384 H 0.10112 0.4203 0.65901 0.0
H385 H 0.15365 0.37241 0.65437 0.0
C386 C 0.18853 0.33708 0.72057 0.0
C387 C 0.20398 0.3208 0.75809 0.0
C388 C 0.15819 0.36431 0.72281 0.0
C389 C 0.18873 0.33217 0.7979 0.0
C390 C 0.15867 0.35929 0.80039 0.0
C391 C 0.11309 0.4028 0.76547 0.0
C392 C 0.09759 0.41938 0.72818 0.0
C393 C 0.14322 0.37549 0.76307 0.0
C394 C 0.1125 0.40795 0.68822 0.0
C395 C 0.14257 0.38064 0.68555 0.0
H396 H 0.21936 0.64317 0.19593 0.0
H397 H 0.14987 0.73912 0.24728 0.0
H398 H 0.09442 0.69553 0.24528 0.0
H399 H 0.0661 0.6288 0.23327 0.0
H400 H 0.133 0.53513 0.17489 0.0
H401 H 0.18882 0.57964 0.17398 0.0
C402 C 0.19205 0.65503 0.20583 0.0
C403 C 0.18943 0.69425 0.22301 0.0
C404 C 0.15968 0.63022 0.20317 0.0
C405 C 0.15344 0.70864 0.23564 0.0
C406 C 0.12143 0.68387 0.23407 0.0
C407 C 0.0928 0.61856 0.21966 0.0
C408 C 0.09581 0.57908 0.2042 0.0
C409 C 0.12437 0.64441 0.21871 0.0
C410 C 0.13026 0.56573 0.18658 0.0
C411 C 0.16212 0.59103 0.18637 0.0
H412 H 0.72509 0.82457 0.69536 0.0
H413 H 0.84644 0.80623 0.69747 0.0
H414 H 0.8555 0.86255 0.64878 0.0
H415 H 0.82839 0.91607 0.60318 0.0
H416 H 0.70684 0.93462 0.60525 0.0
H417 H 0.69889 0.88021 0.65537 0.0
C418 C 0.75363 0.83324 0.68596 0.0
C419 C 0.78489 0.81081 0.69995 0.0
C420 C 0.75875 0.86597 0.65852 0.0
C421 C 0.82164 0.82234 0.68657 0.0
C422 C 0.82693 0.8548 0.65891 0.0
C423 C 0.80029 0.90843 0.61498 0.0
C424 C 0.76835 0.92928 0.59988 0.0
C425 C 0.79562 0.87667 0.64425 0.0
C426 C 0.73207 0.91896 0.61572 0.0
C427 C 0.72733 0.88772 0.64453 0.0
H428 H 0.71941 0.31979 0.15148 0.0
H429 H 0.65429 0.25802 0.24862 0.0
H430 H 0.59672 0.26749 0.20769 0.0
H431 H 0.56509 0.28906 0.14202 0.0
H432 H 0.62766 0.35673 0.04834 0.0
H433 H 0.68566 0.35091 0.0913 0.0
C434 C 0.69268 0.30905 0.1644 0.0
C435 C 0.692 0.28688 0.20275 0.0
C436 C 0.65895 0.31614 0.14153 0.0
C437 C 0.65656 0.27341 0.21838 0.0
C438 C 0.62325 0.27937 0.19529 0.0
C439 C 0.59126 0.30345 0.13171 0.0
C440 C 0.59232 0.32343 0.09241 0.0
C441 C 0.62422 0.30001 0.15651 0.0
C442 C 0.62623 0.34178 0.07894 0.0
C443 C 0.65941 0.33797 0.10322 0.0
H444 H 0.20321 0.18648 0.69676 0.0
H445 H 0.32345 0.20443 0.67549 0.0
H446 H 0.3235 0.15075 0.62224 0.0
H447 H 0.29013 0.09912 0.5821 0.0
H448 H 0.16967 0.08071 0.60045 0.0
H449 H 0.16884 0.135 0.65405 0.0
C450 C 0.22933 0.17888 0.68017 0.0
C451 C 0.26338 0.19931 0.69044 0.0
C452 C 0.22911 0.14812 0.64908 0.0
C453 C 0.29704 0.18876 0.66891 0.0
C454 C 0.29705 0.15825 0.6382 0.0
C455 C 0.26355 0.10675 0.59778 0.0
C456 C 0.23002 0.08561 0.58748 0.0
C457 C 0.26335 0.13771 0.62822 0.0
C458 C 0.19588 0.09644 0.60783 0.0
C459 C 0.19545 0.1274 0.6385 0.0
H460 H 0.32502 0.67685 0.17475 0.0
H461 H 0.32149 0.80642 0.16906 0.0
H462 H 0.37644 0.80672 0.12162 0.0
H463 H 0.4256 0.77112 0.08287 0.0
H464 H 0.43098 0.64156 0.08637 0.0
H465 H 0.37508 0.6403 0.13363 0.0
C466 C 0.33619 0.70504 0.16277 0.0
C467 C 0.31937 0.74162 0.17572 0.0
C468 C 0.36813 0.70503 0.1354 0.0
C469 C 0.33423 0.77795 0.16014 0.0
C470 C 0.36558 0.77815 0.13291 0.0
C471 C 0.41481 0.7424 0.09389 0.0
C472 C 0.43271 0.70645 0.08115 0.0
C473 C 0.38288 0.74198 0.12065 0.0
C474 C 0.4179 0.6697 0.09576 0.0
C475 C 0.3859 0.669 0.12272 0.0
H476 H 0.82015 0.18781 0.30687 0.0
H477 H 0.70004 0.21021 0.32415 0.0
H478 H 0.69671 0.15821 0.37784 0.0
H479 H 0.7271 0.10784 0.42093 0.0
H480 H 0.8474 0.08552 0.40855 0.0
H481 H 0.8516 0.13702 0.35267 0.0
C482 C 0.79329 0.18147 0.32251 0.0
C483 C 0.76026 0.20275 0.31069 0.0
C484 C 0.79163 0.1519 0.35454 0.0
C485 C 0.72572 0.19377 0.33135 0.0
C486 C 0.72381 0.16427 0.36257 0.0
C487 C 0.75439 0.11394 0.40606 0.0
C488 C 0.78688 0.09259 0.41877 0.0
C489 C 0.7565 0.1433 0.37442 0.0
C490 C 0.82196 0.10151 0.39939 0.0
C491 C 0.82429 0.13084 0.36737 0.0
H492 H 0.33408 0.33193 0.81285 0.0
H493 H 0.32711 0.20296 0.82627 0.0
H494 H 0.3782 0.20479 0.87855 0.0
H495 H 0.42398 0.24245 0.92107 0.0
H496 H 0.43099 0.37159 0.9104 0.0
H497 H 0.38032 0.37024 0.85674 0.0
C498 C 0.34357 0.30427 0.82745 0.0
C499 C 0.32684 0.26731 0.81534 0.0
C500 C 0.37284 0.30554 0.85802 0.0
C501 C 0.33984 0.23173 0.83429 0.0
C502 C 0.36891 0.23275 0.86446 0.0
C503 C 0.4146 0.27044 0.90707 0.0
C504 C 0.43138 0.3071 0.9198 0.0
C505 C 0.38555 0.26943 0.87656 0.0
C506 C 0.41862 0.34295 0.90123 0.0
C507 C 0.38964 0.34218 0.87055 0.0
H508 H 0.19868 0.81943 0.29876 0.0
H509 H 0.31699 0.79274 0.32119 0.0
H510 H 0.31913 0.84354 0.37764 0.0
H511 H 0.28814 0.896 0.41965 0.0
H512 H 0.16955 0.92255 0.39943 0.0
H513 H 0.16662 0.8706 0.34354 0.0
C514 C 0.22481 0.82435 0.31636 0.0
C515 C 0.25773 0.80239 0.30543 0.0
C516 C 0.22579 0.85349 0.34915 0.0
C517 C 0.29144 0.8096 0.3283 0.0
C518 C 0.29264 0.8385 0.3608 0.0
C519 C 0.26154 0.89053 0.40312 0.0
C520 C 0.22915 0.9134 0.41355 0.0
C521 C 0.26011 0.86078 0.37123 0.0
C522 C 0.19491 0.90546 0.39202 0.0
C523 C 0.19326 0.87582 0.36001 0.0
H524 H 0.69896 0.67806 0.80777 0.0
H525 H 0.72427 0.80192 0.83929 0.0
H526 H 0.67255 0.8026 0.89116 0.0
H527 H 0.61984 0.76892 0.92675 0.0
H528 H 0.59458 0.64459 0.89812 0.0
H529 H 0.64719 0.643 0.84646 0.0
C530 C 0.69347 0.70507 0.82635 0.0
C531 C 0.71538 0.74006 0.81916 0.0
C532 C 0.66377 0.70517 0.85664 0.0
C533 C 0.70751 0.77484 0.84335 0.0
C534 C 0.67805 0.77519 0.87328 0.0
C535 C 0.62568 0.74136 0.90925 0.0
C536 C 0.603 0.70698 0.91607 0.0
C537 C 0.65586 0.74069 0.87991 0.0
C538 C 0.61149 0.67148 0.89346 0.0
C539 C 0.64153 0.67062 0.86387 0.0
loop_
_geom_bond_atom_site_label_1
_geom_bond_atom_site_label_2
_geom_bond_distance
_geom_bond_site_symmetry_2
_ccdc_geom_bond_type
H0 C3 0.931 . S
H1 C6 0.928 . S
H2 C8 0.930 . S
C3 H0 0.931 . S
C3 C4 1.413 . S
C3 C5 1.360 . S
C4 C3 1.413 . S
C4 C8 1.429 . S
C5 C3 1.360 . S
C5 C6 1.372 . S
C6 H1 0.928 . S
C6 C5 1.372 . S
C6 C7 1.404 . S
C7 C6 1.404 . S
C7 C8 1.391 . S
C8 H2 0.930 . S
C8 C4 1.429 . S
C8 C7 1.391 . S
H9 C12 0.931 . S
H10 C15 0.928 . S
H11 C17 0.930 . S
C12 H9 0.931 . S
C12 C13 1.413 . S
C12 C14 1.360 . S
C13 C12 1.413 . S
C13 C17 1.429 . S
C14 C12 1.360 . S
C14 C15 1.372 . S
C15 H10 0.928 . S
C15 C14 1.372 . S
C15 C16 1.404 . S
C16 C15 1.404 . S
C16 C17 1.391 . S
C17 H11 0.930 . S
C17 C13 1.429 . S
C17 C16 1.391 . S
H18 C21 0.931 . S
H19 C24 0.928 . S
H20 C26 0.930 . S
C21 H18 0.931 . S
C21 C22 1.413 . S
C21 C23 1.360 . S
C22 C21 1.413 . S
C22 C26 1.429 . S
C23 C21 1.360 . S
C23 C24 1.372 . S
C24 H19 0.928 . S
C24 C23 1.372 . S
C24 C25 1.404 . S
C25 C24 1.404 . S
C25 C26 1.391 . S
C26 H20 0.930 . S
C26 C22 1.429 . S
C26 C25 1.391 . S
H27 C30 0.931 . S
H28 C33 0.928 . S
H29 C35 0.930 . S
C30 H27 0.931 . S
C30 C31 1.413 . S
C30 C32 1.360 . S
C31 C30 1.413 . S
C31 C35 1.429 . S
C32 C30 1.360 . S
C32 C33 1.372 . S
C33 H28 0.928 . S
C33 C32 1.372 . S
C33 C34 1.404 . S
C34 C33 1.404 . S
C34 C35 1.391 . S
C35 H29 0.930 . S
C35 C31 1.429 . S
C35 C34 1.391 . S
H36 C39 0.931 . S
H37 C42 0.928 . S
H38 C44 0.930 . S
C39 H36 0.931 . S
C39 C40 1.413 . S
C39 C41 1.360 . S
C40 C39 1.413 . S
C40 C44 1.429 . S
C41 C39 1.360 . S
C41 C42 1.372 . S
C42 H37 0.928 . S
C42 C41 1.372 . S
C42 C43 1.404 . S
C43 C42 1.404 . S
C43 C44 1.391 . S
C44 H38 0.930 . S
C44 C40 1.429 . S
C44 C43 1.391 . S
H45 C48 0.931 . S
H46 C51 0.928 . S
H47 C53 0.930 . S
C48 H45 0.931 . S
C48 C49 1.413 . S
C48 C50 1.360 . S
C49 C48 1.413 . S
C49 C53 1.429 . S
C50 C48 1.360 . S
C50 C51 1.372 . S
C51 H46 0.928 . S
C51 C50 1.372 . S
C51 C52 1.404 . S
C52 C51 1.404 . S
C52 C53 1.391 . S
C53 H47 0.930 . S
C53 C49 1.429 . S
C53 C52 1.391 . S
H54 C57 0.931 . S
H55 C60 0.928 . S
H56 C62 0.930 . S
C57 H54 0.931 . S
C57 C58 1.413 . S
C57 C59 1.360 . S
C58 C57 1.413 . S
C58 C62 1.429 . S
C59 C57 1.360 . S
C59 C60 1.372 . S
C60 H55 0.928 . S
C60 C59 1.372 . S
C60 C61 1.404 . S
C61 C60 1.404 . S
C61 C62 1.391 . S
C62 H56 0.930 . S
C62 C58 1.429 . S
C62 C61 1.391 . S
H63 C66 0.931 . S
H64 C69 0.928 . S
H65 C71 0.930 . S
C66 H63 0.931 . S
C66 C67 1.413 . S
C66 C68 1.360 . S
C67 C66 1.413 . S
C67 C71 1.429 . S
C68 C66 1.360 . S
C68 C69 1.372 . S
C69 H64 0.928 . S
C69 C68 1.372 . S
C69 C70 1.404 . S
C70 C69 1.404 . S
C70 C71 1.391 . S
C71 H65 0.930 . S
C71 C67 1.429 . S
C71 C70 1.391 . S
C72 O74 1.247 . S
C72 O76 1.258 . S
C73 O80 1.247 . S
C73 O81 1.258 . S
O74 C72 1.247 . S
O74 Zn75 2.028 1_655 S
Zn75 O74 2.028 1_455 S
Zn75 O79 2.035 . S
Zn75 O81 2.035 . S
Zn75 O82 2.028 1_455 S
O76 C72 1.258 . S
O76 Zn77 2.035 1_655 S
Zn77 O76 2.035 1_455 S
Zn77 O78 2.028 . S
Zn77 O80 2.028 . S
Zn77 O83 2.035 1_455 S
O78 Zn77 2.028 . S
O78 C84 1.247 . S
O79 Zn75 2.035 . S
O79 C84 1.258 . S
O80 C73 1.247 . S
O80 Zn77 2.028 . S
O81 C73 1.258 . S
O81 Zn75 2.035 . S
O82 Zn75 2.028 1_655 S
O82 C85 1.247 . S
O83 Zn77 2.035 1_655 S
O83 C85 1.258 . S
C84 O78 1.247 . S
C84 O79 1.258 . S
C85 O82 1.247 . S
C85 O83 1.258 . S
C86 O88 1.247 . S
C86 O90 1.258 . S
C87 O94 1.247 . S
C87 O95 1.258 . S
O88 C86 1.247 . S
O88 Zn89 2.028 1_655 S
Zn89 O88 2.028 1_455 S
Zn89 O93 2.035 . S
Zn89 O95 2.035 . S
Zn89 O96 2.028 1_455 S
O90 C86 1.258 . S
O90 Zn91 2.035 1_655 S
Zn91 O90 2.035 1_455 S
Zn91 O92 2.028 . S
Zn91 O94 2.028 . S
Zn91 O97 2.035 1_455 S
O92 Zn91 2.028 . S
O92 C98 1.247 . S
O93 Zn89 2.035 . S
O93 C98 1.258 . S
O94 C87 1.247 . S
O94 Zn91 2.028 . S
O95 C87 1.258 . S
O95 Zn89 2.035 . S
O96 Zn89 2.028 1_655 S
O96 C99 1.247 . S
O97 Zn91 2.035 1_655 S
O97 C99 1.258 . S
C98 O92 1.247 . S
C98 O93 1.258 . S
C99 O96 1.247 . S
C99 O97 1.258 . S
C100 O102 1.247 . S
C100 O104 1.258 . S
C101 O108 1.247 . S
C101 O109 1.258 . S
O102 C100 1.247 . S
O102 Zn103 2.025 1_565 S
Zn103 O102 2.025 1_545 S
Zn103 O107 2.038 . S
Zn103 O109 2.038 . S
Zn103 O110 2.025 1_545 S
O104 C100 1.258 . S
O104 Zn105 2.016 1_565 S
Zn105 O104 2.016 1_545 S
Zn105 O106 2.046 . S
Zn105 O108 2.047 . S
Zn105 O111 2.017 1_545 S
O106 Zn105 2.046 . S
O106 C112 1.247 . S
O107 Zn103 2.038 . S
O107 C112 1.258 . S
O108 C101 1.247 . S
O108 Zn105 2.047 . S
O109 C101 1.258 . S
O109 Zn103 2.038 . S
O110 Zn103 2.025 1_565 S
O110 C113 1.247 . S
O111 Zn105 2.017 1_565 S
O111 C113 1.258 . S
C112 O106 1.247 . S
C112 O107 1.258 . S
C113 O110 1.247 . S
C113 O111 1.258 . S
C114 O116 1.247 . S
C114 O118 1.258 . S
C115 O122 1.247 . S
C115 O123 1.258 . S
O116 C114 1.247 . S
O116 Zn117 2.026 . S
Zn117 O116 2.026 . S
Zn117 O121 2.033 . S
Zn117 O123 2.037 1_554 S
Zn117 O124 2.030 1_554 S
O118 C114 1.258 . S
O118 Zn119 2.048 . S
Zn119 O118 2.048 . S
Zn119 O120 2.041 . S
Zn119 O122 2.015 1_554 S
Zn119 O125 2.023 1_554 S
O120 Zn119 2.041 . S
O120 C126 1.247 . S
O121 Zn117 2.033 . S
O121 C126 1.258 . S
O122 C115 1.247 . S
O122 Zn119 2.015 1_556 S
O123 C115 1.258 . S
O123 Zn117 2.037 1_556 S
O124 Zn117 2.030 1_556 S
O124 C127 1.247 . S
O125 Zn119 2.023 1_556 S
O125 C127 1.258 . S
C126 O120 1.247 . S
C126 O121 1.258 . S
C127 O124 1.247 . S
C127 O125 1.258 . S
C128 O130 1.247 . S
C128 O132 1.258 . S
C129 O136 1.247 . S
C129 O137 1.258 . S
O130 C128 1.247 . S
O130 Zn131 2.028 . S
Zn131 O130 2.028 . S
Zn131 O135 2.035 1_565 S
Zn131 O137 2.035 1_565 S
Zn131 O138 2.028 . S
O132 C128 1.258 . S
O132 Zn133 2.024 1_565 S
Zn133 O132 2.024 1_545 S
Zn133 O134 2.039 . S
Zn133 O136 2.039 . S
Zn133 O139 2.024 1_545 S
O134 Zn133 2.039 . S
O134 C140 1.247 . S
O135 Zn131 2.035 1_545 S
O135 C140 1.258 . S
O136 C129 1.247 . S
O136 Zn133 2.039 . S
O137 C129 1.258 . S
O137 Zn131 2.035 1_545 S
O138 Zn131 2.028 . S
O138 C141 1.247 . S
O139 Zn133 2.024 1_565 S
O139 C141 1.258 . S
C140 O134 1.247 . S
C140 O135 1.258 . S
C141 O138 1.247 . S
C141 O139 1.258 . S
C142 O144 1.247 . S
C142 O146 1.258 . S
C143 O150 1.247 . S
C143 O151 1.258 . S
O144 C142 1.247 . S
O144 Zn145 2.028 . S
Zn145 O144 2.028 . S
Zn145 O149 2.035 . S
Zn145 O151 2.035 1_554 S
Zn145 O152 2.028 1_554 S
O146 C142 1.258 . S
O146 Zn147 2.035 . S
Zn147 O146 2.035 . S
Zn147 O148 2.028 . S
Zn147 O150 2.028 1_554 S
Zn147 O153 2.035 1_554 S
O148 Zn147 2.028 . S
O148 C154 1.247 . S
O149 Zn145 2.035 . S
O149 C154 1.258 . S
O150 C143 1.247 . S
O150 Zn147 2.028 1_556 S
O151 C143 1.258 . S
O151 Zn145 2.035 1_556 S
O152 Zn145 2.028 1_556 S
O152 C155 1.247 . S
O153 Zn147 2.035 1_556 S
O153 C155 1.258 . S
C154 O148 1.247 . S
C154 O149 1.258 . S
C155 O152 1.247 . S
C155 O153 1.258 . S
H156 C162 0.930 . S
H157 C165 0.930 . S
H158 C166 0.930 . S
H159 C167 0.930 . S
H160 C170 0.930 . S
H161 C171 0.930 . S
C162 H156 0.930 . S
C162 C163 1.355 . S
C162 C164 1.415 . S
C163 C162 1.355 . S
C163 C165 1.419 . S
C164 C162 1.415 . S
C164 C169 1.425 . S
C164 C171 1.409 . S
C165 H157 0.930 . S
C165 C163 1.419 . S
C165 C166 1.362 . S
C166 H158 0.930 . S
C166 C165 1.362 . S
C166 C169 1.409 . S
C167 H159 0.930 . S
C167 C168 1.355 . S
C167 C169 1.415 . S
C168 C167 1.355 . S
C168 C170 1.419 . S
C169 C164 1.425 . S
C169 C166 1.409 . S
C169 C167 1.415 . S
C170 H160 0.930 . S
C170 C168 1.419 . S
C170 C171 1.362 . S
C171 H161 0.930 . S
C171 C164 1.409 . S
C171 C170 1.362 . S
H172 C178 0.930 . S
H173 C181 0.930 . S
H174 C182 0.930 . S
H175 C183 0.930 . S
H176 C186 0.930 . S
H177 C187 0.930 . S
C178 H172 0.930 . S
C178 C179 1.355 . S
C178 C180 1.415 . S
C179 C178 1.355 . S
C179 C181 1.419 . S
C180 C178 1.415 . S
C180 C185 1.425 . S
C180 C187 1.409 . S
C181 H173 0.930 . S
C181 C179 1.419 . S
C181 C182 1.362 . S
C182 H174 0.930 . S
C182 C181 1.362 . S
C182 C185 1.409 . S
C183 H175 0.930 . S
C183 C184 1.355 . S
C183 C185 1.415 . S
C184 C183 1.355 . S
C184 C186 1.419 . S
C185 C180 1.425 . S
C185 C182 1.409 . S
C185 C183 1.415 . S
C186 H176 0.930 . S
C186 C184 1.419 . S
C186 C187 1.362 . S
C187 H177 0.930 . S
C187 C180 1.409 . S
C187 C186 1.362 . S
H188 C194 0.930 . S
H189 C197 0.930 . S
H190 C198 0.930 . S
H191 C199 0.930 . S
H192 C202 0.930 . S
H193 C203 0.930 . S
C194 H188 0.930 . S
C194 C195 1.355 . S
C194 C196 1.415 . S
C195 C194 1.355 . S
C195 C197 1.419 . S
C196 C194 1.415 . S
C196 C201 1.425 . S
C196 C203 1.409 . S
C197 H189 0.930 . S
C197 C195 1.419 . S
C197 C198 1.362 . S
C198 H190 0.930 . S
C198 C197 1.362 . S
C198 C201 1.409 . S
C199 H191 0.930 . S
C199 C200 1.355 . S
C199 C201 1.415 . S
C200 C199 1.355 . S
C200 C202 1.419 . S
C201 C196 1.425 . S
C201 C198 1.409 . S
C201 C199 1.415 . S
C202 H192 0.930 . S
C202 C200 1.419 . S
C202 C203 1.362 . S
C203 H193 0.930 . S
C203 C196 1.409 . S
C203 C202 1.362 . S
H204 C210 0.930 . S
H205 C213 0.930 . S
H206 C214 0.930 . S
H207 C215 0.930 . S
H208 C218 0.930 . S
H209 C219 0.930 . S
C210 H204 0.930 . S
C210 C211 1.355 . S
C210 C212 1.415 . S
C211 C210 1.355 . S
C211 C213 1.419 . S
C212 C210 1.415 . S
C212 C217 1.425 . S
C212 C219 1.409 . S
C213 H205 0.930 . S
C213 C211 1.419 . S
C213 C214 1.362 . S
C214 H206 0.930 . S
C214 C213 1.362 . S
C214 C217 1.409 . S
C215 H207 0.930 . S
C215 C216 1.355 . S
C215 C217 1.415 . S
C216 C215 1.355 . S
C216 C218 1.419 . S
C217 C212 1.425 . S
C217 C214 1.409 . S
C217 C215 1.415 . S
C218 H208 0.930 . S
C218 C216 1.419 . S
C218 C219 1.362 . S
C219 H209 0.930 . S
C219 C212 1.409 . S
C219 C218 1.362 . S
H220 C226 0.930 . S
H221 C229 0.930 . S
H222 C230 0.930 . S
H223 C231 0.930 . S
H224 C234 0.930 . S
H225 C235 0.930 . S
C226 H220 0.930 . S
C226 C227 1.355 . S
C226 C228 1.415 . S
C227 C226 1.355 . S
C227 C229 1.419 . S
C228 C226 1.415 . S
C228 C233 1.425 . S
C228 C235 1.409 . S
C229 H221 0.930 . S
C229 C227 1.419 . S
C229 C230 1.362 . S
C230 H222 0.930 . S
C230 C229 1.362 . S
C230 C233 1.409 . S
C231 H223 0.930 . S
C231 C232 1.355 . S
C231 C233 1.415 . S
C232 C231 1.355 . S
C232 C234 1.419 . S
C233 C228 1.425 . S
C233 C230 1.409 . S
C233 C231 1.415 . S
C234 H224 0.930 . S
C234 C232 1.419 . S
C234 C235 1.362 . S
C235 H225 0.930 . S
C235 C228 1.409 . S
C235 C234 1.362 . S
H236 C242 0.930 . S
H237 C245 0.930 . S
H238 C246 0.930 . S
H239 C247 0.930 . S
H240 C250 0.930 . S
H241 C251 0.930 . S
C242 H236 0.930 . S
C242 C243 1.355 . S
C242 C244 1.415 . S
C243 C242 1.355 . S
C243 C245 1.419 . S
C244 C242 1.415 . S
C244 C249 1.425 . S
C244 C251 1.409 . S
C245 H237 0.930 . S
C245 C243 1.419 . S
C245 C246 1.362 . S
C246 H238 0.930 . S
C246 C245 1.362 . S
C246 C249 1.409 . S
C247 H239 0.930 . S
C247 C248 1.355 . S
C247 C249 1.415 . S
C248 C247 1.355 . S
C248 C250 1.419 . S
C249 C244 1.425 . S
C249 C246 1.409 . S
C249 C247 1.415 . S
C250 H240 0.930 . S
C250 C248 1.419 . S
C250 C251 1.362 . S
C251 H241 0.930 . S
C251 C244 1.409 . S
C251 C250 1.362 . S
H252 C258 0.930 . S
H253 C261 0.930 . S
H254 C262 0.930 . S
H255 C263 0.930 . S
H256 C266 0.930 . S
H257 C267 0.930 . S
C258 H252 0.930 . S
C258 C259 1.355 . S
C258 C260 1.415 . S
C259 C258 1.355 . S
C259 C261 1.419 . S
C260 C258 1.415 . S
C260 C265 1.425 . S
C260 C267 1.409 . S
C261 H253 0.930 . S
C261 C259 1.419 . S
C261 C262 1.362 . S
C262 H254 0.930 . S
C262 C261 1.362 . S
C262 C265 1.409 . S
C263 H255 0.930 . S
C263 C264 1.355 . S
C263 C265 1.415 . S
C264 C263 1.355 . S
C264 C266 1.419 . S
C265 C260 1.425 . S
C265 C262 1.409 . S
C265 C263 1.415 . S
C266 H256 0.930 . S
C266 C264 1.419 . S
C266 C267 1.362 . S
C267 H257 0.930 . S
C267 C260 1.409 . S
C267 C266 1.362 . S
H268 C274 0.930 . S
H269 C277 0.930 . S
H270 C278 0.930 . S
H271 C279 0.930 . S
H272 C282 0.930 . S
H273 C283 0.930 . S
C274 H268 0.930 . S
C274 C275 1.355 . S
C274 C276 1.415 . S
C275 C274 1.355 . S
C275 C277 1.419 . S
C276 C274 1.415 . S
C276 C281 1.425 . S
C276 C283 1.409 . S
C277 H269 0.930 . S
C277 C275 1.419 . S
C277 C278 1.362 . S
C278 H270 0.930 . S
C278 C277 1.362 . S
C278 C281 1.409 . S
C279 H271 0.930 . S
C279 C280 1.355 . S
C279 C281 1.415 . S
C280 C279 1.355 . S
C280 C282 1.419 . S
C281 C276 1.425 . S
C281 C278 1.409 . S
C281 C279 1.415 . S
C282 H272 0.930 . S
C282 C280 1.419 . S
C282 C283 1.362 . S
C283 H273 0.930 . S
C283 C276 1.409 . S
C283 C282 1.362 . S
H284 C290 0.930 . S
H285 C293 0.930 . S
H286 C294 0.930 . S
H287 C295 0.930 . S
H288 C298 0.930 . S
H289 C299 0.930 . S
C290 H284 0.930 . S
C290 C291 1.355 . S
C290 C292 1.415 . S
C291 C290 1.355 . S
C291 C293 1.419 . S
C292 C290 1.415 . S
C292 C297 1.425 . S
C292 C299 1.409 . S
C293 H285 0.930 . S
C293 C291 1.419 . S
C293 C294 1.362 . S
C294 H286 0.930 . S
C294 C293 1.362 . S
C294 C297 1.409 . S
C295 H287 0.930 . S
C295 C296 1.355 . S
C295 C297 1.415 . S
C296 C295 1.355 . S
C296 C298 1.419 . S
C297 C292 1.425 . S
C297 C294 1.409 . S
C297 C295 1.415 . S
C298 H288 0.930 . S
C298 C296 1.419 . S
C298 C299 1.362 . S
C299 H289 0.930 . S
C299 C292 1.409 . S
C299 C298 1.362 . S
H300 C306 0.930 . S
H301 C309 0.930 . S
H302 C310 0.930 . S
H303 C311 0.930 . S
H304 C314 0.930 . S
H305 C315 0.930 . S
C306 H300 0.930 . S
C306 C307 1.355 . S
C306 C308 1.415 . S
C307 C306 1.355 . S
C307 C309 1.419 . S
C308 C306 1.415 . S
C308 C313 1.425 . S
C308 C315 1.409 . S
C309 H301 0.930 . S
C309 C307 1.419 . S
C309 C310 1.362 . S
C310 H302 0.930 . S
C310 C309 1.362 . S
C310 C313 1.409 . S
C311 H303 0.930 . S
C311 C312 1.355 . S
C311 C313 1.415 . S
C312 C311 1.355 . S
C312 C314 1.419 . S
C313 C308 1.425 . S
C313 C310 1.409 . S
C313 C311 1.415 . S
C314 H304 0.930 . S
C314 C312 1.419 . S
C314 C315 1.362 . S
C315 H305 0.930 . S
C315 C308 1.409 . S
C315 C314 1.362 . S
H316 C322 0.930 . S
H317 C325 0.930 . S
H318 C326 0.930 . S
H319 C327 0.930 . S
H320 C330 0.930 . S
H321 C331 0.930 . S
C322 H316 0.930 . S
C322 C323 1.355 . S
C322 C324 1.415 . S
C323 C322 1.355 . S
C323 C325 1.419 . S
C324 C322 1.415 . S
C324 C329 1.425 . S
C324 C331 1.409 . S
C325 H317 0.930 . S
C325 C323 1.419 . S
C325 C326 1.362 . S
C326 H318 0.930 . S
C326 C325 1.362 . S
C326 C329 1.409 . S
C327 H319 0.930 . S
C327 C328 1.355 . S
C327 C329 1.415 . S
C328 C327 1.355 . S
C328 C330 1.419 . S
C329 C324 1.425 . S
C329 C326 1.409 . S
C329 C327 1.415 . S
C330 H320 0.930 . S
C330 C328 1.419 . S
C330 C331 1.362 . S
C331 H321 0.930 . S
C331 C324 1.409 . S
C331 C330 1.362 . S
H332 C338 0.930 . S
H333 C341 0.930 . S
H334 C342 0.930 . S
H335 C343 0.930 . S
H336 C346 0.930 . S
H337 C347 0.930 . S
C338 H332 0.930 . S
C338 C339 1.355 . S
C338 C340 1.415 . S
C339 C338 1.355 . S
C339 C341 1.419 . S
C340 C338 1.415 . S
C340 C345 1.425 . S
C340 C347 1.409 . S
C341 H333 0.930 . S
C341 C339 1.419 . S
C341 C342 1.362 . S
C342 H334 0.930 . S
C342 C341 1.362 . S
C342 C345 1.409 . S
C343 H335 0.930 . S
C343 C344 1.355 . S
C343 C345 1.415 . S
C344 C343 1.355 . S
C344 C346 1.419 . S
C345 C340 1.425 . S
C345 C342 1.409 . S
C345 C343 1.415 . S
C346 H336 0.930 . S
C346 C344 1.419 . S
C346 C347 1.362 . S
C347 H337 0.930 . S
C347 C340 1.409 . S
C347 C346 1.362 . S
H348 C354 0.930 . S
H349 C357 0.930 . S
H350 C358 0.930 . S
H351 C359 0.930 . S
H352 C362 0.930 . S
H353 C363 0.930 . S
C354 H348 0.930 . S
C354 C355 1.355 . S
C354 C356 1.415 . S
C355 C354 1.355 . S
C355 C357 1.419 . S
C356 C354 1.415 . S
C356 C361 1.425 . S
C356 C363 1.409 . S
C357 H349 0.930 . S
C357 C355 1.419 . S
C357 C358 1.362 . S
C358 H350 0.930 . S
C358 C357 1.362 . S
C358 C361 1.409 . S
C359 H351 0.930 . S
C359 C360 1.355 . S
C359 C361 1.415 . S
C360 C359 1.355 . S
C360 C362 1.419 . S
C361 C356 1.425 . S
C361 C358 1.409 . S
C361 C359 1.415 . S
C362 H352 0.930 . S
C362 C360 1.419 . S
C362 C363 1.362 . S
C363 H353 0.930 . S
C363 C356 1.409 . S
C363 C362 1.362 . S
H364 C370 0.930 . S
H365 C373 0.930 . S
H366 C374 0.930 . S
H367 C375 0.930 . S
H368 C378 0.930 . S
H369 C379 0.930 . S
C370 H364 0.930 . S
C370 C371 1.355 . S
C370 C372 1.415 . S
C371 C370 1.355 . S
C371 C373 1.419 . S
C372 C370 1.415 . S
C372 C377 1.425 . S
C372 C379 1.409 . S
C373 H365 0.930 . S
C373 C371 1.419 . S
C373 C374 1.362 . S
C374 H366 0.930 . S
C374 C373 1.362 . S
C374 C377 1.409 . S
C375 H367 0.930 . S
C375 C376 1.355 . S
C375 C377 1.415 . S
C376 C375 1.355 . S
C376 C378 1.419 . S
C377 C372 1.425 . S
C377 C374 1.409 . S
C377 C375 1.415 . S
C378 H368 0.930 . S
C378 C376 1.419 . S
C378 C379 1.362 . S
C379 H369 0.930 . S
C379 C372 1.409 . S
C379 C378 1.362 . S
H380 C386 0.930 . S
H381 C389 0.930 . S
H382 C390 0.930 . S
H383 C391 0.930 . S
H384 C394 0.930 . S
H385 C395 0.930 . S
C386 H380 0.930 . S
C386 C387 1.355 . S
C386 C388 1.415 . S
C387 C386 1.355 . S
C387 C389 1.419 . S
C388 C386 1.415 . S
C388 C393 1.425 . S
C388 C395 1.409 . S
C389 H381 0.930 . S
C389 C387 1.419 . S
C389 C390 1.362 . S
C390 H382 0.930 . S
C390 C389 1.362 . S
C390 C393 1.409 . S
C391 H383 0.930 . S
C391 C392 1.355 . S
C391 C393 1.415 . S
C392 C391 1.355 . S
C392 C394 1.419 . S
C393 C388 1.425 . S
C393 C390 1.409 . S
C393 C391 1.415 . S
C394 H384 0.930 . S
C394 C392 1.419 . S
C394 C395 1.362 . S
C395 H385 0.930 . S
C395 C388 1.409 . S
C395 C394 1.362 . S
H396 C402 0.930 . S
H397 C405 0.930 . S
H398 C406 0.930 . S
H399 C407 0.930 . S
H400 C410 0.930 . S
H401 C411 0.930 . S
C402 H396 0.930 . S
C402 C403 1.355 . S
C402 C404 1.415 . S
C403 C402 1.355 . S
C403 C405 1.419 . S
C404 C402 1.415 . S
C404 C409 1.425 . S
C404 C411 1.409 . S
C405 H397 0.930 . S
C405 C403 1.419 . S
C405 C406 1.362 . S
C406 H398 0.930 . S
C406 C405 1.362 . S
C406 C409 1.409 . S
C407 H399 0.930 . S
C407 C408 1.355 . S
C407 C409 1.415 . S
C408 C407 1.355 . S
C408 C410 1.419 . S
C409 C404 1.425 . S
C409 C406 1.409 . S
C409 C407 1.415 . S
C410 H400 0.930 . S
C410 C408 1.419 . S
C410 C411 1.362 . S
C411 H401 0.930 . S
C411 C404 1.409 . S
C411 C410 1.362 . S
H412 C418 0.930 . S
H413 C421 0.930 . S
H414 C422 0.930 . S
H415 C423 0.930 . S
H416 C426 0.930 . S
H417 C427 0.930 . S
C418 H412 0.930 . S
C418 C419 1.355 . S
C418 C420 1.415 . S
C419 C418 1.355 . S
C419 C421 1.419 . S
C420 C418 1.415 . S
C420 C425 1.425 . S
C420 C427 1.409 . S
C421 H413 0.930 . S
C421 C419 1.419 . S
C421 C422 1.362 . S
C422 H414 0.930 . S
C422 C421 1.362 . S
C422 C425 1.409 . S
C423 H415 0.930 . S
C423 C424 1.355 . S
C423 C425 1.415 . S
C424 C423 1.355 . S
C424 C426 1.419 . S
C425 C420 1.425 . S
C425 C422 1.409 . S
C425 C423 1.415 . S
C426 H416 0.930 . S
C426 C424 1.419 . S
C426 C427 1.362 . S
C427 H417 0.930 . S
C427 C420 1.409 . S
C427 C426 1.362 . S
H428 C434 0.930 . S
H429 C437 0.930 . S
H430 C438 0.930 . S
H431 C439 0.930 . S
H432 C442 0.930 . S
H433 C443 0.930 . S
C434 H428 0.930 . S
C434 C435 1.355 . S
C434 C436 1.415 . S
C435 C434 1.355 . S
C435 C437 1.419 . S
C436 C434 1.415 . S
C436 C441 1.425 . S
C436 C443 1.409 . S
C437 H429 0.930 . S
C437 C435 1.419 . S
C437 C438 1.362 . S
C438 H430 0.930 . S
C438 C437 1.362 . S
C438 C441 1.409 . S
C439 H431 0.930 . S
C439 C440 1.355 . S
C439 C441 1.415 . S
C440 C439 1.355 . S
C440 C442 1.419 . S
C441 C436 1.425 . S
C441 C438 1.409 . S
C441 C439 1.415 . S
C442 H432 0.930 . S
C442 C440 1.419 . S
C442 C443 1.362 . S
C443 H433 0.930 . S
C443 C436 1.409 . S
C443 C442 1.362 . S
H444 C450 0.930 . S
H445 C453 0.930 . S
H446 C454 0.930 . S
H447 C455 0.930 . S
H448 C458 0.930 . S
H449 C459 0.930 . S
C450 H444 0.930 . S
C450 C451 1.355 . S
C450 C452 1.415 . S
C451 C450 1.355 . S
C451 C453 1.419 . S
C452 C450 1.415 . S
C452 C457 1.425 . S
C452 C459 1.409 . S
C453 H445 0.930 . S
C453 C451 1.419 . S
C453 C454 1.362 . S
C454 H446 0.930 . S
C454 C453 1.362 . S
C454 C457 1.409 . S
C455 H447 0.930 . S
C455 C456 1.355 . S
C455 C457 1.415 . S
C456 C455 1.355 . S
C456 C458 1.419 . S
C457 C452 1.425 . S
C457 C454 1.409 . S
C457 C455 1.415 . S
C458 H448 0.930 . S
C458 C456 1.419 . S
C458 C459 1.362 . S
C459 H449 0.930 . S
C459 C452 1.409 . S
C459 C458 1.362 . S
H460 C466 0.930 . S
H461 C469 0.930 . S
H462 C470 0.930 . S
H463 C471 0.930 . S
H464 C474 0.930 . S
H465 C475 0.930 . S
C466 H460 0.930 . S
C466 C467 1.355 . S
C466 C468 1.415 . S
C467 C466 1.355 . S
C467 C469 1.419 . S
C468 C466 1.415 . S
C468 C473 1.425 . S
C468 C475 1.409 . S
C469 H461 0.930 . S
C469 C467 1.419 . S
C469 C470 1.362 . S
C470 H462 0.930 . S
C470 C469 1.362 . S
C470 C473 1.409 . S
C471 H463 0.930 . S
C471 C472 1.355 . S
C471 C473 1.415 . S
C472 C471 1.355 . S
C472 C474 1.419 . S
C473 C468 1.425 . S
C473 C470 1.409 . S
C473 C471 1.415 . S
C474 H464 0.930 . S
C474 C472 1.419 . S
C474 C475 1.362 . S
C475 H465 0.930 . S
C475 C468 1.409 . S
C475 C474 1.362 . S
H476 C482 0.930 . S
H477 C485 0.930 . S
H478 C486 0.930 . S
H479 C487 0.930 . S
H480 C490 0.930 . S
H481 C491 0.930 . S
C482 H476 0.930 . S
C482 C483 1.355 . S
C482 C484 1.415 . S
C483 C482 1.355 . S
C483 C485 1.419 . S
C484 C482 1.415 . S
C484 C489 1.425 . S
C484 C491 1.409 . S
C485 H477 0.930 . S
C485 C483 1.419 . S
C485 C486 1.362 . S
C486 H478 0.930 . S
C486 C485 1.362 . S
C486 C489 1.409 . S
C487 H479 0.930 . S
C487 C488 1.355 . S
C487 C489 1.415 . S
C488 C487 1.355 . S
C488 C490 1.419 . S
C489 C484 1.425 . S
C489 C486 1.409 . S
C489 C487 1.415 . S
C490 H480 0.930 . S
C490 C488 1.419 . S
C490 C491 1.362 . S
C491 H481 0.930 . S
C491 C484 1.409 . S
C491 C490 1.362 . S
H492 C498 0.930 . S
H493 C501 0.930 . S
H494 C502 0.930 . S
H495 C503 0.930 . S
H496 C506 0.930 . S
H497 C507 0.930 . S
C498 H492 0.930 . S
C498 C499 1.355 . S
C498 C500 1.415 . S
C499 C498 1.355 . S
C499 C501 1.419 . S
C500 C498 1.415 . S
C500 C505 1.425 . S
C500 C507 1.409 . S
C501 H493 0.930 . S
C501 C499 1.419 . S
C501 C502 1.362 . S
C502 H494 0.930 . S
C502 C501 1.362 . S
C502 C505 1.409 . S
C503 H495 0.930 . S
C503 C504 1.355 . S
C503 C505 1.415 . S
C504 C503 1.355 . S
C504 C506 1.419 . S
C505 C500 1.425 . S
C505 C502 1.409 . S
C505 C503 1.415 . S
C506 H496 0.930 . S
C506 C504 1.419 . S
C506 C507 1.362 . S
C507 H497 0.930 . S
C507 C500 1.409 . S
C507 C506 1.362 . S
H508 C514 0.930 . S
H509 C517 0.930 . S
H510 C518 0.930 . S
H511 C519 0.930 . S
H512 C522 0.930 . S
H513 C523 0.930 . S
C514 H508 0.930 . S
C514 C515 1.355 . S
C514 C516 1.415 . S
C515 C514 1.355 . S
C515 C517 1.419 . S
C516 C514 1.415 . S
C516 C521 1.425 . S
C516 C523 1.409 . S
C517 H509 0.930 . S
C517 C515 1.419 . S
C517 C518 1.362 . S
C518 H510 0.930 . S
C518 C517 1.362 . S
C518 C521 1.409 . S
C519 H511 0.930 . S
C519 C520 1.355 . S
C519 C521 1.415 . S
C520 C519 1.355 . S
C520 C522 1.419 . S
C521 C516 1.425 . S
C521 C518 1.409 . S
C521 C519 1.415 . S
C522 H512 0.930 . S
C522 C520 1.419 . S
C522 C523 1.362 . S
C523 H513 0.930 . S
C523 C516 1.409 . S
C523 C522 1.362 . S
H524 C530 0.930 . S
H525 C533 0.930 . S
H526 C534 0.930 . S
H527 C535 0.930 . S
H528 C538 0.930 . S
H529 C539 0.930 . S
C530 H524 0.930 . S
C530 C531 1.355 . S
C530 C532 1.415 . S
C531 C530 1.355 . S
C531 C533 1.419 . S
C532 C530 1.415 . S
C532 C537 1.425 . S
C532 C539 1.409 . S
C533 H525 0.930 . S
C533 C531 1.419 . S
C533 C534 1.362 . S
C534 H526 0.930 . S
C534 C533 1.362 . S
C534 C537 1.409 . S
C535 H527 0.930 . S
C535 C536 1.355 . S
C535 C537 1.415 . S
C536 C535 1.355 . S
C536 C538 1.419 . S
C537 C532 1.425 . S
C537 C534 1.409 . S
C537 C535 1.415 . S
C538 H528 0.930 . S
C538 C536 1.419 . S
C538 C539 1.362 . S
C539 H529 0.930 . S
C539 C532 1.409 . S
C539 C538 1.362 . S
C168 C84 1.493 . S
C163 C4 1.502 . S
C184 C87 1.496 . S
C179 C13 1.502 . S
C200 C85 1.503 . S
C195 C25 1.496 . S
C216 C86 1.496 . S
C211 C34 1.502 . S
C232 C101 1.483 . S
C227 C7 1.492 . S
C248 C115 1.492 . S
C243 C14 1.499 . S
C259 C23 1.493 . S
C264 C141 1.496 . S
C280 C155 1.509 . S
C275 C31 1.507 . S
C296 C100 1.485 . S
C291 C16 1.496 . S
C307 C22 1.502 . S
C312 C114 1.495 . S
C328 C140 1.491 . S
C323 C32 1.494 . S
C344 C154 1.507 . S
C339 C5 1.503 . S
C355 C43 1.505 . S
C360 C99 1.497 . S
C376 C72 1.495 . S
C371 C52 1.503 . S
C387 C58 1.493 . S
C392 C98 1.493 . S
C403 C68 1.499 . S
C408 C73 1.502 . S
C424 C128 1.497 . S
C419 C40 1.500 . S
C440 C142 1.504 . S
C435 C50 1.504 . S
C456 C112 1.491 . S
C451 C59 1.501 . S
C467 C70 1.494 . S
C472 C126 1.487 . S
C488 C129 1.500 . S
C483 C49 1.506 . S
C504 C143 1.486 . S
C499 C61 1.491 . S
C520 C113 1.497 . S
C515 C67 1.499 . S
C531 C41 1.500 . S
C536 C127 1.502 . S
