# Generated by pormake.
# Topology pyr, (3,6)-cn, num edge types: 1
# Building blocks:
#     Node 0, Type 0, BuildingBlock: BETDIP_clean_linker_0, # of connection points: 3
#     Node 1, Type 0, BuildingBlock: BETDIP_clean_linker_0, # of connection points: 3
#     Node 2, Type 0, BuildingBlock: BETDIP_clean_linker_0, # of connection points: 3
#     Node 3, Type 0, BuildingBlock: BETDIP_clean_linker_0, # of connection points: 3
#     Node 4, Type 0, BuildingBlock: BETDIP_clean_linker_0, # of connection points: 3
#     Node 5, Type 0, BuildingBlock: BETDIP_clean_linker_0, # of connection points: 3
#     Node 6, Type 0, BuildingBlock: BETDIP_clean_linker_0, # of connection points: 3
#     Node 7, Type 0, BuildingBlock: BETDIP_clean_linker_0, # of connection points: 3
#     Node 8, Type 1, BuildingBlock: FUNLAD_clean_sbu_0, # of connection points: 6
#     Node 9, Type 1, BuildingBlock: FUNLAD_clean_sbu_0, # of connection points: 6
#     Node 10, Type 1, BuildingBlock: FUNLAD_clean_sbu_0, # of connection points: 6
#     Node 11, Type 1, BuildingBlock: FUNLAD_clean_sbu_0, # of connection points: 6
#     Edge 12, Type (0, 1), BuildingBlock: XIVTED_clean_linker_0, # of connection points: 2
#     Edge 13, Type (0, 1), BuildingBlock: XIVTED_clean_linker_0, # of connection points: 2
#     Edge 14, Type (0, 1), BuildingBlock: XIVTED_clean_linker_0, # of connection points: 2
#     Edge 15, Type (0, 1), BuildingBlock: XIVTED_clean_linker_0, # of connection points: 2
#     Edge 16, Type (0, 1), BuildingBlock: XIVTED_clean_linker_0, # of connection points: 2
#     Edge 17, Type (0, 1), BuildingBlock: XIVTED_clean_linker_0, # of connection points: 2
#     Edge 18, Type (0, 1), BuildingBlock: XIVTED_clean_linker_0, # of connection points: 2
#     Edge 19, Type (0, 1), BuildingBlock: XIVTED_clean_linker_0, # of connection points: 2
#     Edge 20, Type (0, 1), BuildingBlock: XIVTED_clean_linker_0, # of connection points: 2
#     Edge 21, Type (0, 1), BuildingBlock: XIVTED_clean_linker_0, # of connection points: 2
#     Edge 22, Type (0, 1), BuildingBlock: XIVTED_clean_linker_0, # of connection points: 2
#     Edge 23, Type (0, 1), BuildingBlock: XIVTED_clean_linker_0, # of connection points: 2
#     Edge 24, Type (0, 1), BuildingBlock: XIVTED_clean_linker_0, # of connection points: 2
#     Edge 25, Type (0, 1), BuildingBlock: XIVTED_clean_linker_0, # of connection points: 2
#     Edge 26, Type (0, 1), BuildingBlock: XIVTED_clean_linker_0, # of connection points: 2
#     Edge 27, Type (0, 1), BuildingBlock: XIVTED_clean_linker_0, # of connection points: 2
#     Edge 28, Type (0, 1), BuildingBlock: XIVTED_clean_linker_0, # of connection points: 2
#     Edge 29, Type (0, 1), BuildingBlock: XIVTED_clean_linker_0, # of connection points: 2
#     Edge 30, Type (0, 1), BuildingBlock: XIVTED_clean_linker_0, # of connection points: 2
#     Edge 31, Type (0, 1), BuildingBlock: XIVTED_clean_linker_0, # of connection points: 2
#     Edge 32, Type (0, 1), BuildingBlock: XIVTED_clean_linker_0, # of connection points: 2
#     Edge 33, Type (0, 1), BuildingBlock: XIVTED_clean_linker_0, # of connection points: 2
#     Edge 34, Type (0, 1), BuildingBlock: XIVTED_clean_linker_0, # of connection points: 2
#     Edge 35, Type (0, 1), BuildingBlock: XIVTED_clean_linker_0, # of connection points: 2
# Relax obj value: 0.199
# Max RMSD: 0.198
# Mean RMSD: 0.134
data_MOF--net-pry--node1-FUNLAD_clean_sbu_0--node2-BETDIP_clean_linker_0--edge1-XIVTED_clean_linker_0
_symmetry_space_group_name_H-M    P1
_symmetry_Int_Tables_number       1
_symmetry_cell_setting            triclinic
loop_
_symmetry_equiv_pos_as_xyz
'x, y, z'
_cell_length_a     35.012964
_cell_length_b     36.838638
_cell_length_c     38.586002
_cell_angle_alpha  93.737548
_cell_angle_beta   85.880785
_cell_angle_gamma 89.257438
loop_
_atom_site_label
_atom_site_type_symbol
_atom_site_fract_x
_atom_site_fract_y
_atom_site_fract_z
_atom_type_partial_charge
H0 H 0.09759 0.18813 0.25449 0.0
H1 H 0.18441 0.19136 0.17043 0.0
H2 H 0.19199 0.11131 0.24629 0.0
H3 H 0.13217 0.20813 0.14174 0.0
C4 C 0.1197 0.22882 0.16074 0.0
C5 C 0.12385 0.17721 0.24095 0.0
C6 C 0.14364 0.14833 0.25453 0.0
C7 C 0.13785 0.19223 0.21002 0.0
C8 C 0.17242 0.1784 0.19299 0.0
C9 C 0.19228 0.14886 0.2053 0.0
C10 C 0.17763 0.13428 0.23643 0.0
N11 N 0.11745 0.22167 0.19679 0.0
H12 H 0.34974 0.92027 0.75395 0.0
H13 H 0.35992 0.83622 0.67141 0.0
H14 H 0.43831 0.8374 0.75231 0.0
H15 H 0.29815 0.84828 0.66791 0.0
C16 C 0.29487 0.8775 0.6732 0.0
C17 C 0.3644 0.89611 0.74181 0.0
C18 C 0.39587 0.88111 0.7572 0.0
C19 C 0.35067 0.8798 0.71139 0.0
C20 C 0.36961 0.84852 0.69534 0.0
C21 C 0.40123 0.83279 0.70977 0.0
C22 C 0.4138 0.84901 0.74113 0.0
N23 N 0.31836 0.89594 0.69719 0.0
H24 H 0.66105 0.52759 0.97032 0.0
H25 H 0.5653 0.45823 0.95437 0.0
H26 H 0.67509 0.41161 0.97189 0.0
H27 H 0.5291 0.54494 0.95421 0.0
C28 C 0.5532 0.52872 0.9422 0.0
C29 C 0.64932 0.50052 0.9679 0.0
C30 C 0.67275 0.46996 0.97124 0.0
C31 C 0.61067 0.49646 0.96175 0.0
C32 C 0.59526 0.46144 0.95896 0.0
C33 C 0.61829 0.43055 0.96239 0.0
C34 C 0.65706 0.43513 0.96869 0.0
N35 N 0.58744 0.52808 0.95986 0.0
H36 H 0.88359 0.50878 0.47499 0.0
H37 H 0.97333 0.58639 0.46127 0.0
H38 H 0.85987 0.62268 0.49943 0.0
H39 H 0.01555 0.50461 0.43545 0.0
C40 C 0.98878 0.51811 0.43094 0.0
C41 C 0.89315 0.53667 0.47662 0.0
C42 C 0.86733 0.56495 0.48841 0.0
C43 C 0.93128 0.54427 0.46656 0.0
C44 C 0.94368 0.58048 0.46842 0.0
C45 C 0.91821 0.60889 0.48085 0.0
C46 C 0.88008 0.60083 0.49075 0.0
N47 N 0.95704 0.51503 0.45558 0.0
H48 H 0.83204 0.87153 0.9206 0.0
H49 H 0.9182 0.86777 0.83545 0.0
H50 H 0.82636 0.94702 0.84021 0.0
H51 H 0.9384 0.81638 0.85794 0.0
C52 C 0.92486 0.81368 0.8838 0.0
C53 C 0.84364 0.88259 0.89681 0.0
C54 C 0.82493 0.91194 0.88317 0.0
C55 C 0.87703 0.86639 0.88022 0.0
C56 C 0.89228 0.87965 0.84866 0.0
C57 C 0.87353 0.90841 0.83374 0.0
C58 C 0.83998 0.92429 0.8512 0.0
N59 N 0.89383 0.83721 0.89689 0.0
H60 H 0.66763 0.13881 0.3342 0.0
H61 H 0.65776 0.22081 0.41859 0.0
H62 H 0.57969 0.22241 0.33752 0.0
H63 H 0.71897 0.20741 0.42288 0.0
C64 C 0.72221 0.17837 0.41637 0.0
C65 C 0.65311 0.1628 0.34685 0.0
C66 C 0.62186 0.17851 0.33173 0.0
C67 C 0.66679 0.17812 0.37769 0.0
C68 C 0.64805 0.20922 0.39439 0.0
C69 C 0.61661 0.22564 0.38025 0.0
C70 C 0.60408 0.21034 0.34851 0.0
N71 N 0.69882 0.16114 0.39157 0.0
H72 H 0.37686 0.52746 0.11682 0.0
H73 H 0.47081 0.60084 0.12616 0.0
H74 H 0.3631 0.63952 0.09462 0.0
H75 H 0.50884 0.52034 0.13801 0.0
C76 C 0.48307 0.53462 0.14918 0.0
C77 C 0.38829 0.55458 0.11537 0.0
C78 C 0.36538 0.58292 0.10512 0.0
C79 C 0.4262 0.56085 0.12318 0.0
C80 C 0.44125 0.59594 0.12099 0.0
C81 C 0.41878 0.62431 0.11015 0.0
C82 C 0.38086 0.61757 0.10242 0.0
N83 N 0.44931 0.53096 0.13105 0.0
H84 H 0.0375 0.4655 0.59958 0.0
H85 H 0.12937 0.54125 0.6059 0.0
H86 H 0.15457 0.4268 0.58703 0.0
H87 H 0.04881 0.58776 0.63969 0.0
C88 C 0.05427 0.55886 0.64116 0.0
C89 C 0.06794 0.47072 0.59844 0.0
C90 C 0.0946 0.44179 0.59297 0.0
C91 C 0.08051 0.50645 0.60342 0.0
C92 C 0.11987 0.51349 0.60206 0.0
C93 C 0.14682 0.48486 0.59581 0.0
C94 C 0.13391 0.44909 0.59153 0.0
N95 N 0.05347 0.53536 0.6106 0.0
C96 C 0.04472 0.04427 0.47928 0.0
N97 N 0.02625 0.1023 0.57615 0.0
C98 C 0.06216 0.11502 0.56971 0.0
C99 C 0.06956 0.15178 0.57619 0.0
C100 C 0.03961 0.17581 0.589 0.0
C101 C 1.00343 0.16154 0.5977 0.0
C102 C 0.99735 0.12441 0.59104 0.0
Zn103 Zn 0.01493 0.05155 0.55587 0.0
C104 C 0.94015 0.0525 0.52046 0.0
N105 N 0.99043 0.94787 0.50866 0.0
C106 C 0.019 0.92605 0.4927 0.0
C107 C 0.95458 0.9351 0.51533 0.0
C108 C 0.94686 0.89858 0.50773 0.0
C109 C 0.97639 0.87483 0.49339 0.0
C110 C 0.01254 0.88917 0.48474 0.0
Zn111 Zn 1.00185 0.9986 0.52912 0.0
O112 O 0.0433 0.06507 0.50701 0.0
C113 C 0.07663 0.99785 0.56463 0.0
O114 O 0.02978 1.01297 0.48033 0.0
H115 H 0.93232 0.95286 0.52816 0.0
H116 H 0.08467 0.09704 0.55768 0.0
H117 H 0.04732 0.93681 0.48773 0.0
O118 O 0.06719 0.03095 0.57247 0.0
O119 O 0.05501 0.97832 0.54619 0.0
H120 H 0.969 0.11368 0.59588 0.0
O121 O 0.97353 0.98508 0.57818 0.0
O122 O 0.98708 0.03733 0.60458 0.0
O123 O 0.94935 0.01935 0.51249 0.0
O124 O 0.96197 0.07178 0.53887 0.0
C125 C 0.97223 1.00602 0.60584 0.0
H126 H 0.0981 0.16152 0.56983 0.0
H127 H 0.97951 0.17912 0.60752 0.0
H128 H 0.91838 0.88876 0.51421 0.0
H129 H 0.03613 0.87175 0.4738 0.0
C130 C 0.5811 1.01013 1.0132 0.0
N131 N 0.51912 0.10808 1.01053 0.0
C132 C 0.55446 0.12253 1.01286 0.0
C133 C 0.56247 0.15645 1.00051 0.0
C134 C 0.53374 0.17609 0.98597 0.0
C135 C 0.49738 0.16074 0.98393 0.0
C136 C 0.49071 0.1263 0.99625 0.0
Zn137 Zn 0.51086 0.0587 1.0307 0.0
C138 C 0.47849 1.0038 0.9822 0.0
N139 N 0.49959 0.95649 0.07523 0.0
C140 C 0.52851 0.93771 0.08821 0.0
C141 C 0.465 0.94115 0.0709 0.0
C142 C 0.459 0.90507 0.07799 0.0
C143 C 0.4889 0.88433 0.08948 0.0
C144 C 0.52368 0.90128 0.0957 0.0
Zn145 Zn 0.50743 1.00626 0.05585 0.0
O146 O 0.56614 0.04069 1.0078 0.0
C147 C 0.5398 0.06095 0.10438 0.0
O148 O 0.56307 0.98946 0.03357 0.0
H149 H 0.44246 0.95642 0.06039 0.0
H150 H 0.57648 0.10792 1.02479 0.0
H151 H 0.55583 0.95044 0.0913 0.0
O152 O 0.53495 0.0796 0.07829 0.0
O153 O 0.53129 0.02741 0.10244 0.0
H154 H 0.4628 0.11429 0.99473 0.0
O155 O 0.45198 0.02409 0.07852 0.0
O156 O 0.45528 0.07566 0.0532 0.0
O157 O 0.48367 0.98536 1.00831 0.0
O158 O 0.48667 0.03742 0.98402 0.0
C159 C 0.43712 0.05479 0.07335 0.0
H160 H 0.59065 0.16764 1.0032 0.0
H161 H 0.47449 0.17515 0.97288 0.0
H162 H 0.43153 0.89315 0.07343 0.0
H163 H 0.54744 0.8861 0.10449 0.0
C164 C 0.52122 0.45817 0.5145 0.0
N165 N 0.52292 0.49931 0.61989 0.0
C166 C 0.50387 0.47115 0.63396 0.0
C167 C 0.50848 0.46325 0.66845 0.0
C168 C 0.53332 0.48424 0.68826 0.0
C169 C 0.55345 0.51227 0.67263 0.0
C170 C 0.54759 0.51953 0.63846 0.0
Zn171 Zn 0.51257 0.51639 0.57198 0.0
C172 C 0.58463 0.54096 0.53467 0.0
N173 N 0.49258 0.55717 0.47382 0.0
C174 C 0.4684 0.5374 0.45432 0.0
C175 C 0.51199 0.58565 0.46081 0.0
C176 C 0.50862 0.59419 0.42635 0.0
C177 C 0.48477 0.5734 0.40534 0.0
C178 C 0.46389 0.5452 0.41999 0.0
Zn179 Zn 0.50266 0.53958 0.52152 0.0
O180 O 0.52329 0.46261 0.54736 0.0
C181 C 0.43054 0.51489 0.55871 0.0
O182 O 0.51228 0.4854 0.49786 0.0
H183 H 0.53109 0.601 0.47678 0.0
H184 H 0.48424 0.45552 0.6188 0.0
H185 H 0.45364 0.51456 0.46494 0.0
O186 O 0.45355 0.50533 0.58058 0.0
O187 O 0.44357 0.52975 0.5316 0.0
H188 H 0.56184 0.54231 0.62723 0.0
O189 O 0.4934 0.59355 0.54589 0.0
O190 O 0.50161 0.5704 0.59577 0.0
O191 O 0.56183 0.54904 0.5121 0.0
O192 O 0.57147 0.52763 0.56251 0.0
C193 C 0.49414 0.59785 0.57888 0.0
H194 H 0.49244 0.44139 0.67965 0.0
H195 H 0.57224 0.52961 0.68718 0.0
H196 H 0.52506 0.61628 0.41605 0.0
H197 H 0.4457 0.52809 0.40457 0.0
C198 C 1.00403 0.59637 1.01027 0.0
N199 N 0.99114 0.55585 0.11073 0.0
C200 C 1.00564 0.58629 0.12641 0.0
C201 C 0.99982 0.59332 0.16245 0.0
C202 C 0.97871 0.56888 0.18238 0.0
C203 C 0.96194 0.53907 0.16512 0.0
C204 C 0.96868 0.53296 0.12915 0.0
Zn205 Zn 0.00938 0.53949 0.06063 0.0
C206 C 0.94667 0.50765 1.02071 0.0
N207 N 0.05 0.502 0.95751 0.0
C208 C 0.07329 0.52633 0.9419 0.0
C209 C 0.03675 0.47271 0.93898 0.0
C210 C 0.04528 0.46824 0.90288 0.0
C211 C 0.06733 0.49438 0.8858 0.0
C212 C 0.08219 0.52313 0.90614 0.0
Zn213 Zn 0.03058 0.51681 1.00781 0.0
O214 O 0.99629 0.59257 0.0426 0.0
C215 C 0.09334 0.54816 0.04801 0.0
O216 O 0.0187 0.56956 0.99133 0.0
H217 H 0.01813 0.45377 0.95187 0.0
H218 H 0.02343 0.60411 0.11126 0.0
H219 H 0.08318 0.54974 0.95684 0.0
O220 O 0.06576 0.55551 0.07068 0.0
O221 O 0.08664 0.53221 1.01899 0.0
H222 H 0.95779 0.50871 0.11625 0.0
O223 O 0.04221 0.46391 1.02514 0.0
O224 O 0.0227 0.48647 0.07755 0.0
O225 O 0.97395 0.50174 0.99735 0.0
O226 O 0.95355 0.52266 0.05016 0.0
C227 C 0.03624 0.45975 0.05761 0.0
H228 H 0.01291 0.61683 0.17473 0.0
H229 H 0.9459 0.51926 0.17946 0.0
H230 H 0.03361 0.44531 0.88844 0.0
H231 H 0.09855 0.5445 0.89448 0.0
H232 H 0.07266 0.12021 0.27037 0.0
H233 H 0.1 0.09553 0.47025 0.0
H234 H 0.18105 0.1402 0.31367 0.0
H235 H 0.02735 0.02424 0.41232 0.0
H236 H 0.12471 0.12002 0.41549 0.0
H237 H 0.04963 0.09302 0.32452 0.0
C238 C 0.09151 0.11905 0.29135 0.0
C239 C 0.12884 0.13248 0.2875 0.0
C240 C 0.10352 0.09888 0.41477 0.0
C241 C 0.10252 0.10189 0.34966 0.0
C242 C 0.08936 0.08489 0.44601 0.0
C243 C 0.0617 0.05757 0.44593 0.0
C244 C 0.08919 0.0863 0.38316 0.0
C245 C 0.04891 0.04499 0.41363 0.0
C246 C 0.07845 0.10335 0.32211 0.0
C247 C 0.15214 0.13006 0.31549 0.0
N248 N 0.06237 0.05974 0.38365 0.0
N249 N 0.13851 0.11545 0.34545 0.0
H250 H 0.40371 0.95433 0.77373 0.0
H251 H 0.4645 0.93124 0.96808 0.0
H252 H 0.41934 0.84988 0.81562 0.0
H253 H 0.46229 0.03443 0.92136 0.0
H254 H 0.4455 0.90129 0.91363 0.0
H255 H 0.42289 0.98405 0.82813 0.0
C256 C 0.41107 0.93755 0.79438 0.0
C257 C 0.40961 0.89937 0.7899 0.0
C258 C 0.4491 0.93049 0.91525 0.0
C259 C 0.43191 0.93359 0.85276 0.0
C260 C 0.45985 0.94772 0.94647 0.0
C261 C 0.46505 0.98558 0.94955 0.0
C262 C 0.44323 0.95113 0.88664 0.0
C263 C 0.45865 1.00525 0.92039 0.0
C264 C 0.42222 0.95463 0.82548 0.0
C265 C 0.42023 0.87929 0.8176 0.0
N266 N 0.44809 0.98786 0.89032 0.0
N267 N 0.43067 0.89658 0.84779 0.0
H268 H 0.61286 0.50973 0.89324 0.0
H269 H 0.4752 0.47588 0.73834 0.0
H270 H 0.48953 0.5151 0.90783 0.0
H271 H 0.59814 0.48277 0.72372 0.0
H272 H 0.4801 0.47906 0.80145 0.0
H273 H 0.60803 0.48944 0.83243 0.0
C274 C 0.58469 0.50593 0.8839 0.0
C275 C 0.55143 0.51376 0.90576 0.0
C276 C 0.50604 0.4794 0.78442 0.0
C277 C 0.54576 0.49138 0.83569 0.0
C278 C 0.50328 0.47725 0.7484 0.0
C279 C 0.5363 0.47947 0.72583 0.0
C280 C 0.54208 0.48371 0.79787 0.0
C281 C 0.57193 0.48157 0.74027 0.0
C282 C 0.58197 0.49459 0.84899 0.0
C283 C 0.51581 0.5093 0.89177 0.0
N284 N 0.57384 0.48399 0.77535 0.0
N285 N 0.51388 0.49858 0.85756 0.0
H286 H 0.92293 0.52938 0.39738 0.0
H287 H 0.03778 0.5853 0.22303 0.0
H288 H 0.04567 0.54031 0.38625 0.0
H289 H 0.91814 0.55779 0.22961 0.0
H290 H 0.03878 0.58029 0.28573 0.0
H291 H 0.91875 0.55035 0.33914 0.0
C292 C 0.94899 0.53692 0.38302 0.0
C293 C 0.98479 0.53346 0.39681 0.0
C294 C 0.01219 0.57577 0.27354 0.0
C295 C 0.98017 0.55671 0.32968 0.0
C296 C 0.01148 0.57898 0.23777 0.0
C297 C 0.97787 0.57168 0.22098 0.0
C298 C 0.97906 0.5652 0.29272 0.0
C299 C 0.94482 0.56309 0.24141 0.0
C300 C 0.94657 0.54862 0.34957 0.0
C301 C 0.01757 0.54265 0.37649 0.0
N302 N 0.94633 0.55979 0.27616 0.0
N303 N 0.01452 0.55373 0.34387 0.0
H304 H 0.21018 0.14492 0.13415 0.0
H305 H 0.40392 0.03023 0.13366 0.0
H306 H 0.25632 0.11665 0.23 0.0
H307 H 0.38622 0.10705 0.05636 0.0
H308 H 0.3443 0.05228 0.16598 0.0
H309 H 0.26917 0.12233 0.1022 0.0
C310 C 0.23264 0.13434 0.14873 0.0
C311 C 0.22794 0.13342 0.18526 0.0
C312 C 0.35348 0.06421 0.14191 0.0
C313 C 0.29546 0.10594 0.14803 0.0
C314 C 0.38734 0.05151 0.12331 0.0
C315 C 0.40011 0.0668 0.09219 0.0
C316 C 0.33167 0.09184 0.12896 0.0
C317 C 0.37754 0.09453 0.08024 0.0
C318 C 0.2663 0.12115 0.13024 0.0
C319 C 0.25801 0.1178 0.202 0.0
N320 N 0.3443 0.10596 0.09847 0.0
N321 N 0.29032 0.1046 0.18328 0.0
H322 H 0.2467 0.84731 0.62818 0.0
H323 H 0.1278 0.03125 0.60665 0.0
H324 H 0.2725 0.95035 0.68002 0.0
H325 H 0.10392 0.92739 0.55509 0.0
H326 H 0.18183 1.00308 0.63242 0.0
H327 H 0.19524 0.87689 0.60031 0.0
C328 C 0.24149 0.87624 0.63368 0.0
C329 C 0.26387 0.89633 0.65651 0.0
C330 C 0.16488 0.98649 0.61536 0.0
C331 C 0.20479 0.93062 0.62458 0.0
C332 C 0.13402 1.00257 0.60053 0.0
C333 C 0.11111 0.9817 0.57862 0.0
C334 C 0.17301 0.94916 0.60834 0.0
C335 C 0.12066 0.94463 0.57178 0.0
C336 C 0.21209 0.89315 0.61772 0.0
C337 C 0.25592 0.93377 0.66264 0.0
N338 N 0.1507 0.92961 0.58663 0.0
N339 N 0.22699 0.94969 0.64681 0.0
H340 H 0.7273 0.50506 0.93269 0.0
H341 H 0.88666 0.49527 0.06741 0.0
H342 H 0.71057 0.44479 1.0245 0.0
H343 H 0.91622 0.50058 0.95736 0.0
H344 H 0.81998 0.48428 0.05489 0.0
H345 H 0.79512 0.51188 0.94395 0.0
C346 C 0.738 0.49339 0.95524 0.0
C347 C 0.71357 0.47437 0.97775 0.0
C348 C 0.84117 0.48763 0.03352 0.0
C349 C 0.79048 0.48231 0.99091 0.0
C350 C 0.87912 0.49399 0.04062 0.0
C351 C 0.90693 0.4988 1.01335 0.0
C352 C 0.83084 0.48696 0.99902 0.0
C353 C 0.89566 0.49681 0.9791 0.0
C354 C 0.77658 0.49707 0.96152 0.0
C355 C 0.72867 0.45951 1.00651 0.0
N356 N 0.85834 0.49147 0.97292 0.0
N357 N 0.76614 0.4641 1.0125 0.0
H358 H 0.82548 0.58288 0.54949 0.0
H359 H 0.62496 0.54622 0.47194 0.0
H360 H 0.81675 0.53204 0.44661 0.0
H361 H 0.63903 0.54447 0.58205 0.0
H362 H 0.69462 0.54955 0.46117 0.0
H363 H 0.75617 0.57643 0.56141 0.0
C364 C 0.80888 0.57004 0.5296 0.0
C365 C 0.82655 0.55776 0.49714 0.0
C366 C 0.68236 0.54841 0.48765 0.0
C367 C 0.74769 0.55115 0.51016 0.0
C368 C 0.64269 0.54683 0.49385 0.0
C369 C 0.62629 0.5451 0.52794 0.0
C370 C 0.70564 0.54896 0.5158 0.0
C371 C 0.65057 0.54568 0.55536 0.0
C372 C 0.76952 0.56638 0.53636 0.0
C373 C 0.80404 0.54149 0.47206 0.0
N374 N 0.68908 0.5478 0.54872 0.0
N375 N 0.76558 0.53901 0.47894 0.0
H376 H 0.08579 0.29006 0.19717 0.0
H377 H 0.06653 0.39681 1.02342 0.0
H378 H 0.12044 0.24535 0.0935 0.0
H379 H 0.02927 0.44285 0.12618 0.0
H380 H 0.08519 0.34078 0.04898 0.0
H381 H 0.06383 0.34588 0.17229 0.0
C382 C 0.08866 0.29192 0.16922 0.0
C383 C 0.10496 0.26298 0.14735 0.0
C384 C 0.07283 0.36307 0.06599 0.0
C385 C 0.08002 0.32674 0.11867 0.0
C386 C 0.0621 0.39515 0.05134 0.0
C387 C 0.04627 0.42478 0.07257 0.0
C388 C 0.06787 0.36037 0.10226 0.0
C389 C 0.04134 0.42081 0.10868 0.0
C390 C 0.07615 0.3238 0.15499 0.0
C391 C 0.10803 0.26697 0.11131 0.0
N392 N 0.05216 0.38936 0.12234 0.0
N393 N 0.09579 0.29812 0.09817 0.0
H394 H 0.54861 0.40892 0.99037 0.0
H395 H 0.59604 0.19795 0.94654 0.0
H396 H 0.65034 0.36794 0.92979 0.0
H397 H 0.49015 0.23825 1.0003 0.0
H398 H 0.61356 0.26028 0.93545 0.0
H399 H 0.5239 0.34719 0.98977 0.0
C400 C 0.56556 0.38702 0.97656 0.0
C401 C 0.60179 0.3936 0.96036 0.0
C402 C 0.58629 0.25556 0.94935 0.0
C403 C 0.57385 0.32276 0.95998 0.0
C404 C 0.57632 0.21999 0.95571 0.0
C405 C 0.5418 0.21304 0.97468 0.0
C406 C 0.56175 0.28451 0.96236 0.0
C407 C 0.51702 0.24247 0.98553 0.0
C408 C 0.55149 0.35174 0.97636 0.0
C409 C 0.62263 0.36406 0.94322 0.0
N410 N 0.5277 0.27701 0.97961 0.0
N411 N 0.60848 0.32993 0.9437 0.0
H412 H 0.90308 0.65894 0.53533 0.0
H413 H 1.00125 0.82454 0.44019 0.0
H414 H 0.96207 0.64564 0.43311 0.0
H415 H 0.93823 0.83435 0.54079 0.0
H416 H 0.99064 0.75868 0.43753 0.0
H417 H 0.9194 0.72302 0.53844 0.0
C418 C 0.91953 0.6696 0.51351 0.0
C419 C 0.9309 0.64709 0.48378 0.0
C420 C 0.97914 0.77534 0.46012 0.0
C421 C 0.94985 0.72061 0.4871 0.0
C422 C 0.98523 0.81286 0.46168 0.0
C423 C 0.97017 0.83503 0.49055 0.0
C424 C 0.95808 0.76 0.48775 0.0
C425 C 0.94961 0.8185 0.51765 0.0
C426 C 0.92895 0.70619 0.5153 0.0
C427 C 0.95284 0.66212 0.45654 0.0
N428 N 0.94418 0.7821 0.51555 0.0
N429 N 0.96139 0.6981 0.45873 0.0
H430 H 0.42756 0.77086 0.73803 0.0
H431 H 0.47627 0.66279 0.55175 0.0
H432 H 0.41886 0.81838 0.63959 0.0
H433 H 0.48996 0.6153 0.6495 0.0
H434 H 0.45756 0.72061 0.58373 0.0
H435 H 0.45343 0.71471 0.7066 0.0
C436 C 0.43145 0.76971 0.70988 0.0
C437 C 0.42051 0.79946 0.69154 0.0
C438 C 0.46483 0.69761 0.59823 0.0
C439 C 0.44981 0.7349 0.65523 0.0
C440 C 0.47557 0.6645 0.57992 0.0
C441 C 0.48469 0.63391 0.59783 0.0
C442 C 0.46299 0.70039 0.63488 0.0
C443 C 0.48317 0.63802 0.63446 0.0
C444 C 0.446 0.7375 0.6919 0.0
C445 C 0.42606 0.79605 0.65495 0.0
N446 N 0.4724 0.67046 0.6517 0.0
N447 N 0.44003 0.76448 0.63812 0.0
H448 H 0.94487 0.93529 0.81695 0.0
H449 H 0.91767 0.95413 0.61584 0.0
H450 H 0.83671 0.91347 0.77389 0.0
H451 H 0.98975 0.02724 0.67242 0.0
H452 H 0.89339 0.93052 0.67118 0.0
H453 H 0.96817 0.96037 0.76179 0.0
C454 C 0.92617 0.93553 0.79579 0.0
C455 C 0.8888 0.92228 0.8 0.0
C456 C 0.91439 0.95184 0.67145 0.0
C457 C 0.91539 0.95047 0.73675 0.0
C458 C 0.9283 0.96533 0.63989 0.0
C459 C 0.95563 0.99294 0.63942 0.0
C460 C 0.92867 0.96523 0.70284 0.0
C461 C 0.96843 1.00625 0.67151 0.0
C462 C 0.93936 0.95003 0.76445 0.0
C463 C 0.86566 0.92349 0.77177 0.0
N464 N 0.95522 0.992 0.7018 0.0
N465 N 0.8794 0.93698 0.74131 0.0
H466 H 0.61339 0.10574 0.31366 0.0
H467 H 0.55394 0.13341 0.11964 0.0
H468 H 0.59908 0.21144 0.27392 0.0
H469 H 0.55578 0.02926 0.16459 0.0
H470 H 0.57282 0.16231 0.17468 0.0
H471 H 0.59442 0.07746 0.25863 0.0
C472 C 0.60636 0.1231 0.29335 0.0
C473 C 0.60814 0.16119 0.29862 0.0
C474 C 0.56916 0.13313 0.17252 0.0
C475 C 0.58606 0.12863 0.23499 0.0
C476 C 0.55849 0.11651 0.14097 0.0
C477 C 0.55322 0.07869 0.13724 0.0
C478 C 0.57486 0.11189 0.20075 0.0
C479 C 0.55947 0.05843 0.16605 0.0
C480 C 0.59533 0.10685 0.26187 0.0
C481 C 0.59793 0.18205 0.27131 0.0
N482 N 0.56993 0.07522 0.19641 0.0
N483 N 0.58758 0.16555 0.24072 0.0
H484 H 0.42011 0.55423 0.19426 0.0
H485 H 0.54539 0.5842 0.35854 0.0
H486 H 0.54361 0.54802 0.18774 0.0
H487 H 0.42255 0.57348 0.36607 0.0
H488 H 0.5447 0.58305 0.29516 0.0
H489 H 0.42024 0.57279 0.25604 0.0
C490 C 0.44734 0.55736 0.20562 0.0
C491 C 0.48202 0.54952 0.18582 0.0
C492 C 0.51784 0.58139 0.3107 0.0
C493 C 0.48224 0.57029 0.25679 0.0
C494 C 0.51818 0.58236 0.3469 0.0
C495 C 0.484 0.57856 0.36758 0.0
C496 C 0.48308 0.57665 0.29507 0.0
C497 C 0.44962 0.57587 0.35105 0.0
C498 C 0.44735 0.56779 0.24103 0.0
C499 C 0.51629 0.55367 0.2022 0.0
N500 N 0.45007 0.57465 0.31576 0.0
N501 N 0.51556 0.56353 0.2368 0.0
H502 H 0.02727 0.49554 0.66607 0.0
H503 H 0.12835 0.5175 0.84407 0.0
H504 H 0.09351 0.58955 0.69359 0.0
H505 H 0.0154 0.47237 0.83866 0.0
H506 H 0.12833 0.52988 0.78263 0.0
H507 H 0.0351 0.47326 0.72374 0.0
C508 C 0.044 0.51115 0.68409 0.0
C509 C 0.06006 0.54429 0.67521 0.0
C510 C 0.10386 0.51685 0.79497 0.0
C511 C 0.06922 0.51892 0.74067 0.0
C512 C 0.10367 0.50984 0.83006 0.0
C513 C 0.07138 0.49464 0.84708 0.0
C514 C 0.072 0.50776 0.77645 0.0
C515 C 0.04098 0.48407 0.82693 0.0
C516 C 0.04823 0.49854 0.71693 0.0
C517 C 0.08073 0.5639 0.69965 0.0
N518 N 0.04194 0.49105 0.79271 0.0
N519 N 0.08495 0.55082 0.73133 0.0
H520 H 0.80833 0.92073 0.95431 0.0
H521 H 0.61376 0.03343 0.9521 0.0
H522 H 0.76131 0.9437 0.85735 0.0
H523 H 0.63252 0.959 0.03125 0.0
H524 H 0.67349 1.01111 0.92004 0.0
H525 H 0.74968 0.9448 0.98573 0.0
C526 C 0.78574 0.9305 0.9394 0.0
C527 C 0.78996 0.92928 0.90274 0.0
C528 C 0.66451 0.99979 0.94447 0.0
C529 C 0.72286 0.95848 0.93927 0.0
C530 C 0.6306 1.01263 0.96291 0.0
C531 C 0.61812 0.99807 0.99446 0.0
C532 C 0.68663 0.97281 0.95806 0.0
C533 C 0.64098 0.97095 1.00703 0.0
C534 C 0.75228 0.94453 0.95757 0.0
C535 C 0.75985 0.94407 0.88547 0.0
N536 N 0.67424 0.9594 0.98895 0.0
N537 N 0.72767 0.95809 0.90386 0.0
H538 H 0.77039 0.20631 0.4625 0.0
H539 H 0.88905 0.0206 0.47722 0.0
H540 H 0.74447 0.10555 0.40656 0.0
H541 H 0.91293 0.1227 0.53208 0.0
H542 H 0.83504 0.05001 0.45234 0.0
H543 H 0.82176 0.17519 0.48908 0.0
C544 C 0.77555 0.17755 0.45583 0.0
C545 C 0.75315 0.15857 0.43223 0.0
C546 C 0.85201 0.06592 0.46993 0.0
C547 C 0.81217 0.12248 0.46268 0.0
C548 C 0.88283 0.04912 0.48425 0.0
C549 C 0.90573 0.06916 0.50683 0.0
C550 C 0.84391 0.10309 0.47818 0.0
C551 C 0.89623 0.10608 0.51483 0.0
C552 C 0.80491 0.15975 0.47104 0.0
C553 C 0.76106 0.12129 0.42457 0.0
N554 N 0.86623 0.12177 0.5005 0.0
N555 N 0.78996 0.10448 0.43972 0.0
H556 H 0.30786 0.55343 0.1453 0.0
H557 H 0.15566 0.554 1.00207 0.0
H558 H 0.33232 0.59857 0.04595 0.0
H559 H 0.12161 0.55889 0.11205 0.0
H560 H 0.22228 0.5624 1.0159 0.0
H561 H 0.24075 0.5463 0.13168 0.0
C562 C 0.29907 0.56153 0.12054 0.0
C563 C 0.3254 0.5766 0.09668 0.0
C564 C 0.20015 0.56183 0.03696 0.0
C565 C 0.24928 0.56849 0.08095 0.0
C566 C 0.1622 0.55702 1.02912 0.0
C567 C 0.13313 0.55584 0.05598 0.0
C568 C 0.20915 0.56471 0.07188 0.0
C569 C 0.14317 0.55988 0.09058 0.0
C570 C 0.26087 0.55775 0.11291 0.0
C571 C 0.31271 0.58699 0.06506 0.0
N572 N 0.18045 0.56378 0.09757 0.0
N573 N 0.27555 0.58255 0.058 0.0
H574 H 0.18432 0.53597 0.55867 0.0
H575 H 0.39291 0.47745 0.60959 0.0
H576 H 0.20384 0.44972 0.62611 0.0
H577 H 0.37317 0.54216 0.52301 0.0
H578 H 0.32358 0.47176 0.62066 0.0
H579 H 0.25358 0.54426 0.55068 0.0
C580 C 0.2032 0.51907 0.57208 0.0
C581 C 0.18842 0.49203 0.59294 0.0
C582 C 0.33449 0.48715 0.59922 0.0
C583 C 0.26754 0.50111 0.58375 0.0
C584 C 0.37402 0.4904 0.59289 0.0
C585 C 0.38885 0.51021 0.56527 0.0
C586 C 0.30963 0.50413 0.57801 0.0
C587 C 0.36303 0.52648 0.54449 0.0
C588 C 0.2427 0.52359 0.56731 0.0
C589 C 0.21415 0.4706 0.60947 0.0
N590 N 0.3247 0.52318 0.55137 0.0
N591 N 0.25248 0.47559 0.60452 0.0
H592 H 0.89981 0.79756 0.95066 0.0
H593 H 0.02775 0.61486 0.94495 0.0
H594 H 0.97862 0.76073 0.86414 0.0
H595 H 0.9594 0.65587 0.03703 0.0
H596 H 0.00987 0.6684 0.9156 0.0
H597 H 0.92062 0.74651 0.98291 0.0
C598 C 0.92155 0.7788 0.93842 0.0
C599 C 0.93745 0.78342 0.90449 0.0
C600 C 0.99884 0.66593 0.94227 0.0
C601 C 0.96138 0.72473 0.94142 0.0
C602 C 0.00907 0.63524 0.95916 0.0
C603 C 0.99504 0.63063 0.99364 0.0
C604 C 0.97403 0.69249 0.95967 0.0
C605 C 0.97101 0.65822 1.01052 0.0
C606 C 0.93346 0.74965 0.95693 0.0
C607 C 0.96556 0.75822 0.89015 0.0
N608 N 0.96107 0.68782 0.99332 0.0
N609 N 0.97648 0.73 0.90856 0.0
H610 H 0.41361 0.66521 0.05453 0.0
H611 H 0.50878 0.84182 0.14186 0.0
H612 H 0.46058 0.66608 0.1549 0.0
H613 H 0.459 0.83659 0.04261 0.0
H614 H 0.49683 0.7765 0.14594 0.0
H615 H 0.43545 0.72702 0.04837 0.0
C616 C 0.42859 0.67853 0.0753 0.0
C617 C 0.43485 0.66078 0.10546 0.0
C618 C 0.48871 0.78972 0.12325 0.0
C619 C 0.46009 0.73175 0.09867 0.0
C620 C 0.4956 0.82687 0.12089 0.0
C621 C 0.48424 0.84468 0.09215 0.0
C622 C 0.47063 0.77044 0.09653 0.0
C623 C 0.46737 0.82414 0.06563 0.0
C624 C 0.4412 0.71381 0.07176 0.0
C625 C 0.45515 0.67895 0.13126 0.0
N626 N 0.46096 0.78826 0.06855 0.0
N627 N 0.46677 0.7137 0.12745 0.0
H628 H 0.11921 0.3889 0.54357 0.0
H629 H 0.01169 0.22856 0.63871 0.0
H630 H 0.04194 0.40817 0.63531 0.0
H631 H 0.07972 0.21401 0.5408 0.0
H632 H 0.02113 0.29438 0.63816 0.0
H633 H 0.10356 0.32455 0.54196 0.0
C634 C 0.09872 0.37949 0.56326 0.0
C635 C 0.08197 0.40369 0.5897 0.0
C636 C 0.03395 0.27669 0.61684 0.0
C637 C 0.06404 0.33005 0.58828 0.0
C638 C 0.02856 0.23917 0.61713 0.0
C639 C 0.04537 0.21567 0.59 0.0
C640 C 0.05623 0.2907 0.5892 0.0
C641 C 0.06702 0.23091 0.56273 0.0
C642 C 0.08974 0.34279 0.56235 0.0
C643 C 0.05529 0.39029 0.61439 0.0
N644 N 0.07188 0.26735 0.5631 0.0
N645 N 0.04737 0.35421 0.61329 0.0
H646 H 0.58958 0.28802 0.35321 0.0
H647 H 0.54177 0.39349 0.54084 0.0
H648 H 0.59972 0.23903 0.45076 0.0
H649 H 0.52378 0.44102 0.44391 0.0
H650 H 0.56139 0.33625 0.50815 0.0
H651 H 0.56322 0.34342 0.38554 0.0
C652 C 0.58595 0.28868 0.38136 0.0
C653 C 0.59741 0.25871 0.39914 0.0
C654 C 0.55297 0.35913 0.494 0.0
C655 C 0.56754 0.3225 0.43653 0.0
C656 C 0.54169 0.3919 0.51272 0.0
C657 C 0.53108 0.42234 0.49524 0.0
C658 C 0.55388 0.35658 0.45737 0.0
C659 C 0.53169 0.41841 0.45864 0.0
C660 C 0.57109 0.32048 0.39986 0.0
C661 C 0.59217 0.26155 0.43578 0.0
N662 N 0.54303 0.38634 0.44101 0.0
N663 N 0.57791 0.29275 0.45312 0.0
loop_
_geom_bond_atom_site_label_1
_geom_bond_atom_site_label_2
_geom_bond_distance
_geom_bond_site_symmetry_2
_ccdc_geom_bond_type
H0 C5 0.930 . S
H1 C8 0.930 . S
H2 C10 0.930 . S
H3 C4 1.016 . S
C4 H3 1.016 . S
C4 N11 1.286 . S
C5 H0 0.930 . S
C5 C6 1.397 . S
C5 C7 1.361 . S
C6 C5 1.397 . S
C6 C10 1.390 . S
C7 C5 1.361 . S
C7 C8 1.393 . S
C7 N11 1.413 . S
C8 H1 0.930 . S
C8 C7 1.393 . S
C8 C9 1.399 . S
C9 C8 1.399 . S
C9 C10 1.381 . S
C10 H2 0.930 . S
C10 C6 1.390 . S
C10 C9 1.381 . S
N11 C4 1.286 . S
N11 C7 1.413 . S
H12 C17 0.930 . S
H13 C20 0.930 . S
H14 C22 0.930 . S
H15 C16 1.016 . S
C16 H15 1.016 . S
C16 N23 1.286 . S
C17 H12 0.930 . S
C17 C18 1.397 . S
C17 C19 1.361 . S
C18 C17 1.397 . S
C18 C22 1.390 . S
C19 C17 1.361 . S
C19 C20 1.393 . S
C19 N23 1.413 . S
C20 H13 0.930 . S
C20 C19 1.393 . S
C20 C21 1.399 . S
C21 C20 1.399 . S
C21 C22 1.381 . S
C22 H14 0.930 . S
C22 C18 1.390 . S
C22 C21 1.381 . S
N23 C16 1.286 . S
N23 C19 1.413 . S
H24 C29 0.930 . S
H25 C32 0.930 . S
H26 C34 0.930 . S
H27 C28 1.016 . S
C28 H27 1.016 . S
C28 N35 1.286 . S
C29 H24 0.930 . S
C29 C30 1.397 . S
C29 C31 1.361 . S
C30 C29 1.397 . S
C30 C34 1.390 . S
C31 C29 1.361 . S
C31 C32 1.393 . S
C31 N35 1.413 . S
C32 H25 0.930 . S
C32 C31 1.393 . S
C32 C33 1.399 . S
C33 C32 1.399 . S
C33 C34 1.381 . S
C34 H26 0.930 . S
C34 C30 1.390 . S
C34 C33 1.381 . S
N35 C28 1.286 . S
N35 C31 1.413 . S
H36 C41 0.930 . S
H37 C44 0.930 . S
H38 C46 0.930 . S
H39 C40 1.016 . S
C40 H39 1.016 . S
C40 N47 1.286 . S
C41 H36 0.930 . S
C41 C42 1.397 . S
C41 C43 1.361 . S
C42 C41 1.397 . S
C42 C46 1.390 . S
C43 C41 1.361 . S
C43 C44 1.393 . S
C43 N47 1.413 . S
C44 H37 0.930 . S
C44 C43 1.393 . S
C44 C45 1.399 . S
C45 C44 1.399 . S
C45 C46 1.381 . S
C46 H38 0.930 . S
C46 C42 1.390 . S
C46 C45 1.381 . S
N47 C40 1.286 . S
N47 C43 1.413 . S
H48 C53 0.930 . S
H49 C56 0.930 . S
H50 C58 0.930 . S
H51 C52 1.016 . S
C52 H51 1.016 . S
C52 N59 1.286 . S
C53 H48 0.930 . S
C53 C54 1.397 . S
C53 C55 1.361 . S
C54 C53 1.397 . S
C54 C58 1.390 . S
C55 C53 1.361 . S
C55 C56 1.393 . S
C55 N59 1.413 . S
C56 H49 0.930 . S
C56 C55 1.393 . S
C56 C57 1.399 . S
C57 C56 1.399 . S
C57 C58 1.381 . S
C58 H50 0.930 . S
C58 C54 1.390 . S
C58 C57 1.381 . S
N59 C52 1.286 . S
N59 C55 1.413 . S
H60 C65 0.930 . S
H61 C68 0.930 . S
H62 C70 0.930 . S
H63 C64 1.016 . S
C64 H63 1.016 . S
C64 N71 1.286 . S
C65 H60 0.930 . S
C65 C66 1.397 . S
C65 C67 1.361 . S
C66 C65 1.397 . S
C66 C70 1.390 . S
C67 C65 1.361 . S
C67 C68 1.393 . S
C67 N71 1.413 . S
C68 H61 0.930 . S
C68 C67 1.393 . S
C68 C69 1.399 . S
C69 C68 1.399 . S
C69 C70 1.381 . S
C70 H62 0.930 . S
C70 C66 1.390 . S
C70 C69 1.381 . S
N71 C64 1.286 . S
N71 C67 1.413 . S
H72 C77 0.930 . S
H73 C80 0.930 . S
H74 C82 0.930 . S
H75 C76 1.016 . S
C76 H75 1.016 . S
C76 N83 1.286 . S
C77 H72 0.930 . S
C77 C78 1.397 . S
C77 C79 1.361 . S
C78 C77 1.397 . S
C78 C82 1.390 . S
C79 C77 1.361 . S
C79 C80 1.393 . S
C79 N83 1.413 . S
C80 H73 0.930 . S
C80 C79 1.393 . S
C80 C81 1.399 . S
C81 C80 1.399 . S
C81 C82 1.381 . S
C82 H74 0.930 . S
C82 C78 1.390 . S
C82 C81 1.381 . S
N83 C76 1.286 . S
N83 C79 1.413 . S
H84 C89 0.930 . S
H85 C92 0.930 . S
H86 C94 0.930 . S
H87 C88 1.016 . S
C88 H87 1.016 . S
C88 N95 1.286 . S
C89 H84 0.930 . S
C89 C90 1.397 . S
C89 C91 1.361 . S
C90 C89 1.397 . S
C90 C94 1.390 . S
C91 C89 1.361 . S
C91 C92 1.393 . S
C91 N95 1.413 . S
C92 H85 0.930 . S
C92 C91 1.393 . S
C92 C93 1.399 . S
C93 C92 1.399 . S
C93 C94 1.381 . S
C94 H86 0.930 . S
C94 C90 1.390 . S
C94 C93 1.381 . S
N95 C88 1.286 . S
N95 C91 1.413 . S
C96 O112 1.251 . S
C96 O114 1.254 1_545 S
N97 C98 1.333 . S
N97 C102 1.307 . S
N97 Zn103 2.020 . S
C98 N97 1.333 . S
C98 C99 1.379 . S
C98 H116 0.952 . S
C99 C98 1.379 . S
C99 C100 1.390 . S
C99 H126 0.949 . S
C100 C99 1.390 . S
C100 C101 1.357 . S
C101 C100 1.357 . S
C101 C102 1.370 . S
C101 H127 0.950 . S
C102 N97 1.307 . S
C102 C101 1.370 . S
C102 H120 0.948 1_455 S
Zn103 N97 2.020 . S
Zn103 O112 2.039 . S
Zn103 O118 2.034 . S
Zn103 O122 2.025 1_455 S
Zn103 O124 2.024 1_455 S
C104 O123 1.246 1_545 S
C104 O124 1.249 . S
N105 C106 1.307 . S
N105 C107 1.333 . S
N105 Zn111 2.020 . S
C106 N105 1.307 . S
C106 C110 1.370 . S
C106 H117 0.948 1_655 S
C107 N105 1.333 . S
C107 C108 1.379 . S
C107 H115 0.952 . S
C108 C107 1.379 . S
C108 C109 1.390 . S
C108 H128 0.949 . S
C109 C108 1.390 . S
C109 C110 1.357 . S
C110 C106 1.370 . S
C110 C109 1.357 . S
C110 H129 0.950 . S
Zn111 N105 2.020 . S
Zn111 O114 2.025 1_655 S
Zn111 O119 2.024 1_655 S
Zn111 O121 2.039 . S
Zn111 O123 2.034 . S
O112 C96 1.251 . S
O112 Zn103 2.039 . S
C113 O118 1.246 1_565 S
C113 O119 1.249 . S
O114 C96 1.254 1_565 S
O114 Zn111 2.025 1_455 S
H115 C107 0.952 . S
H116 C98 0.952 . S
H117 C106 0.948 1_455 S
O118 Zn103 2.034 . S
O118 C113 1.246 1_545 S
O119 Zn111 2.024 1_455 S
O119 C113 1.249 . S
H120 C102 0.948 1_655 S
O121 Zn111 2.039 . S
O121 C125 1.251 . S
O122 Zn103 2.025 1_655 S
O122 C125 1.254 1_545 S
O123 C104 1.246 1_565 S
O123 Zn111 2.034 . S
O124 Zn103 2.024 1_655 S
O124 C104 1.249 . S
C125 O121 1.251 . S
C125 O122 1.254 1_565 S
H126 C99 0.949 . S
H127 C101 0.950 . S
H128 C108 0.949 . S
H129 C110 0.950 . S
C130 O146 1.251 1_565 S
C130 O148 1.254 1_556 S
N131 C132 1.333 . S
N131 C136 1.307 . S
N131 Zn137 2.020 . S
C132 N131 1.333 . S
C132 C133 1.379 . S
C132 H150 0.952 . S
C133 C132 1.379 . S
C133 C134 1.390 . S
C133 H160 0.949 . S
C134 C133 1.390 . S
C134 C135 1.357 . S
C135 C134 1.357 . S
C135 C136 1.370 . S
C135 H161 0.950 . S
C136 N131 1.307 . S
C136 C135 1.370 . S
C136 H154 0.948 . S
Zn137 N131 2.020 . S
Zn137 O146 2.039 . S
Zn137 O152 2.034 1_556 S
Zn137 O156 2.025 1_556 S
Zn137 O158 2.024 . S
C138 O157 1.246 . S
C138 O158 1.249 1_565 S
N139 C140 1.307 . S
N139 C141 1.333 . S
N139 Zn145 2.020 . S
C140 N139 1.307 . S
C140 C144 1.370 . S
C140 H151 0.948 . S
C141 N139 1.333 . S
C141 C142 1.379 . S
C141 H149 0.952 . S
C142 C141 1.379 . S
C142 C143 1.390 . S
C142 H162 0.949 . S
C143 C142 1.390 . S
C143 C144 1.357 . S
C144 C140 1.370 . S
C144 C143 1.357 . S
C144 H163 0.950 . S
Zn145 N139 2.020 . S
Zn145 O148 2.025 . S
Zn145 O153 2.024 . S
Zn145 O155 2.039 1_565 S
Zn145 O157 2.034 1_554 S
O146 C130 1.251 1_545 S
O146 Zn137 2.039 . S
C147 O152 1.246 . S
C147 O153 1.249 1_545 S
O148 C130 1.254 1_554 S
O148 Zn145 2.025 . S
H149 C141 0.952 . S
H150 C132 0.952 . S
H151 C140 0.948 . S
O152 Zn137 2.034 1_554 S
O152 C147 1.246 . S
O153 Zn145 2.024 . S
O153 C147 1.249 1_565 S
H154 C136 0.948 . S
O155 Zn145 2.039 1_545 S
O155 C159 1.251 . S
O156 Zn137 2.025 1_554 S
O156 C159 1.254 . S
O157 C138 1.246 . S
O157 Zn145 2.034 1_556 S
O158 Zn137 2.024 . S
O158 C138 1.249 1_545 S
C159 O155 1.251 . S
C159 O156 1.254 . S
H160 C133 0.949 . S
H161 C135 0.950 . S
H162 C142 0.949 . S
H163 C144 0.950 . S
C164 O180 1.251 . S
C164 O182 1.254 . S
N165 C166 1.333 . S
N165 C170 1.307 . S
N165 Zn171 2.020 . S
C166 N165 1.333 . S
C166 C167 1.379 . S
C166 H184 0.952 . S
C167 C166 1.379 . S
C167 C168 1.390 . S
C167 H194 0.949 . S
C168 C167 1.390 . S
C168 C169 1.357 . S
C169 C168 1.357 . S
C169 C170 1.370 . S
C169 H195 0.950 . S
C170 N165 1.307 . S
C170 C169 1.370 . S
C170 H188 0.948 . S
Zn171 N165 2.020 . S
Zn171 O180 2.039 . S
Zn171 O186 2.034 . S
Zn171 O190 2.025 . S
Zn171 O192 2.024 . S
C172 O191 1.246 . S
C172 O192 1.249 . S
N173 C174 1.307 . S
N173 C175 1.333 . S
N173 Zn179 2.020 . S
C174 N173 1.307 . S
C174 C178 1.370 . S
C174 H185 0.948 . S
C175 N173 1.333 . S
C175 C176 1.379 . S
C175 H183 0.952 . S
C176 C175 1.379 . S
C176 C177 1.390 . S
C176 H196 0.949 . S
C177 C176 1.390 . S
C177 C178 1.357 . S
C178 C174 1.370 . S
C178 C177 1.357 . S
C178 H197 0.950 . S
Zn179 N173 2.020 . S
Zn179 O182 2.025 . S
Zn179 O187 2.024 . S
Zn179 O189 2.039 . S
Zn179 O191 2.034 . S
O180 C164 1.251 . S
O180 Zn171 2.039 . S
C181 O186 1.246 . S
C181 O187 1.249 . S
O182 C164 1.254 . S
O182 Zn179 2.025 . S
H183 C175 0.952 . S
H184 C166 0.952 . S
H185 C174 0.948 . S
O186 Zn171 2.034 . S
O186 C181 1.246 . S
O187 Zn179 2.024 . S
O187 C181 1.249 . S
H188 C170 0.948 . S
O189 Zn179 2.039 . S
O189 C193 1.251 . S
O190 Zn171 2.025 . S
O190 C193 1.254 . S
O191 C172 1.246 . S
O191 Zn179 2.034 . S
O192 Zn171 2.024 . S
O192 C172 1.249 . S
C193 O189 1.251 . S
C193 O190 1.254 . S
H194 C167 0.949 . S
H195 C169 0.950 . S
H196 C176 0.949 . S
H197 C178 0.950 . S
C198 O214 1.251 1_556 S
C198 O216 1.254 1_655 S
N199 C200 1.333 . S
N199 C204 1.307 . S
N199 Zn205 2.020 . S
C200 N199 1.333 . S
C200 C201 1.379 . S
C200 H218 0.952 . S
C201 C200 1.379 . S
C201 C202 1.390 . S
C201 H228 0.949 . S
C202 C201 1.390 . S
C202 C203 1.357 . S
C203 C202 1.357 . S
C203 C204 1.370 . S
C203 H229 0.950 . S
C204 N199 1.307 . S
C204 C203 1.370 . S
C204 H222 0.948 . S
Zn205 N199 2.020 . S
Zn205 O214 2.039 . S
Zn205 O220 2.034 1_655 S
Zn205 O224 2.025 1_655 S
Zn205 O226 2.024 . S
C206 O225 1.246 . S
C206 O226 1.249 1_556 S
N207 C208 1.307 . S
N207 C209 1.333 . S
N207 Zn213 2.020 . S
C208 N207 1.307 . S
C208 C212 1.370 . S
C208 H219 0.948 . S
C209 N207 1.333 . S
C209 C210 1.379 . S
C209 H217 0.952 . S
C210 C209 1.379 . S
C210 C211 1.390 . S
C210 H230 0.949 . S
C211 C210 1.390 . S
C211 C212 1.357 . S
C212 C208 1.370 . S
C212 C211 1.357 . S
C212 H231 0.950 . S
Zn213 N207 2.020 . S
Zn213 O216 2.025 . S
Zn213 O221 2.024 . S
Zn213 O223 2.039 . S
Zn213 O225 2.034 1_455 S
O214 C198 1.251 1_554 S
O214 Zn205 2.039 . S
C215 O220 1.246 . S
C215 O221 1.249 1_554 S
O216 C198 1.254 1_455 S
O216 Zn213 2.025 . S
H217 C209 0.952 . S
H218 C200 0.952 . S
H219 C208 0.948 . S
O220 Zn205 2.034 1_455 S
O220 C215 1.246 . S
O221 Zn213 2.024 . S
O221 C215 1.249 1_556 S
H222 C204 0.948 . S
O223 Zn213 2.039 . S
O223 C227 1.251 1_556 S
O224 Zn205 2.025 1_455 S
O224 C227 1.254 . S
O225 C206 1.246 . S
O225 Zn213 2.034 1_655 S
O226 Zn205 2.024 . S
O226 C206 1.249 1_554 S
C227 O223 1.251 1_554 S
C227 O224 1.254 . S
H228 C201 0.949 . S
H229 C203 0.950 . S
H230 C210 0.949 . S
H231 C212 0.950 . S
H232 C238 0.930 . S
H233 C242 0.930 . S
H234 C247 0.929 . S
H235 C245 0.929 1_655 S
H236 C240 0.929 . S
H237 C246 0.929 . S
C238 H232 0.930 . S
C238 C239 1.367 . S
C238 C246 1.378 . S
C239 C238 1.367 . S
C239 C247 1.433 . S
C240 H236 0.929 . S
C240 C242 1.378 . S
C240 C244 1.350 . S
C241 C244 1.463 . S
C241 C246 1.350 . S
C241 N249 1.427 . S
C242 H233 0.930 . S
C242 C240 1.378 . S
C242 C243 1.367 . S
C243 C242 1.367 . S
C243 C245 1.433 . S
C244 C240 1.350 . S
C244 C241 1.463 . S
C244 N248 1.427 . S
C245 H235 0.929 1_455 S
C245 C243 1.433 . S
C245 N248 1.384 . S
C246 H237 0.929 . S
C246 C238 1.378 . S
C246 C241 1.350 . S
C247 H234 0.929 . S
C247 C239 1.433 . S
C247 N249 1.384 . S
N248 C244 1.427 . S
N248 C245 1.384 . S
N249 C241 1.427 . S
N249 C247 1.384 . S
H250 C256 0.930 . S
H251 C260 0.930 . S
H252 C265 0.929 . S
H253 C263 0.929 1_545 S
H254 C258 0.929 . S
H255 C264 0.929 . S
C256 H250 0.930 . S
C256 C257 1.367 . S
C256 C264 1.378 . S
C257 C256 1.367 . S
C257 C265 1.433 . S
C258 H254 0.929 . S
C258 C260 1.378 . S
C258 C262 1.350 . S
C259 C262 1.463 . S
C259 C264 1.350 . S
C259 N267 1.427 . S
C260 H251 0.930 . S
C260 C258 1.378 . S
C260 C261 1.367 . S
C261 C260 1.367 . S
C261 C263 1.433 . S
C262 C258 1.350 . S
C262 C259 1.463 . S
C262 N266 1.427 . S
C263 H253 0.929 1_565 S
C263 C261 1.433 . S
C263 N266 1.384 . S
C264 H255 0.929 . S
C264 C256 1.378 . S
C264 C259 1.350 . S
C265 H252 0.929 . S
C265 C257 1.433 . S
C265 N267 1.384 . S
N266 C262 1.427 . S
N266 C263 1.384 . S
N267 C259 1.427 . S
N267 C265 1.384 . S
H268 C274 0.930 . S
H269 C278 0.930 . S
H270 C283 0.929 . S
H271 C281 0.929 . S
H272 C276 0.929 . S
H273 C282 0.929 . S
C274 H268 0.930 . S
C274 C275 1.367 . S
C274 C282 1.378 . S
C275 C274 1.367 . S
C275 C283 1.433 . S
C276 H272 0.929 . S
C276 C278 1.378 . S
C276 C280 1.350 . S
C277 C280 1.463 . S
C277 C282 1.350 . S
C277 N285 1.427 . S
C278 H269 0.930 . S
C278 C276 1.378 . S
C278 C279 1.367 . S
C279 C278 1.367 . S
C279 C281 1.433 . S
C280 C276 1.350 . S
C280 C277 1.463 . S
C280 N284 1.427 . S
C281 H271 0.929 . S
C281 C279 1.433 . S
C281 N284 1.384 . S
C282 H273 0.929 . S
C282 C274 1.378 . S
C282 C277 1.350 . S
C283 H270 0.929 . S
C283 C275 1.433 . S
C283 N285 1.384 . S
N284 C280 1.427 . S
N284 C281 1.384 . S
N285 C277 1.427 . S
N285 C283 1.384 . S
H286 C292 0.930 . S
H287 C296 0.930 . S
H288 C301 0.929 . S
H289 C299 0.929 . S
H290 C294 0.929 . S
H291 C300 0.929 . S
C292 H286 0.930 . S
C292 C293 1.367 . S
C292 C300 1.378 . S
C293 C292 1.367 . S
C293 C301 1.433 . S
C294 H290 0.929 . S
C294 C296 1.378 . S
C294 C298 1.350 . S
C295 C298 1.463 . S
C295 C300 1.350 . S
C295 N303 1.427 . S
C296 H287 0.930 . S
C296 C294 1.378 . S
C296 C297 1.367 . S
C297 C296 1.367 . S
C297 C299 1.433 . S
C298 C294 1.350 . S
C298 C295 1.463 . S
C298 N302 1.427 . S
C299 H289 0.929 . S
C299 C297 1.433 . S
C299 N302 1.384 . S
C300 H291 0.929 . S
C300 C292 1.378 . S
C300 C295 1.350 . S
C301 H288 0.929 . S
C301 C293 1.433 . S
C301 N303 1.384 . S
N302 C298 1.427 . S
N302 C299 1.384 . S
N303 C295 1.427 . S
N303 C301 1.384 . S
H304 C310 0.930 . S
H305 C314 0.930 . S
H306 C319 0.929 . S
H307 C317 0.929 . S
H308 C312 0.929 . S
H309 C318 0.929 . S
C310 H304 0.930 . S
C310 C311 1.367 . S
C310 C318 1.378 . S
C311 C310 1.367 . S
C311 C319 1.433 . S
C312 H308 0.929 . S
C312 C314 1.378 . S
C312 C316 1.350 . S
C313 C316 1.463 . S
C313 C318 1.350 . S
C313 N321 1.427 . S
C314 H305 0.930 . S
C314 C312 1.378 . S
C314 C315 1.367 . S
C315 C314 1.367 . S
C315 C317 1.433 . S
C316 C312 1.350 . S
C316 C313 1.463 . S
C316 N320 1.427 . S
C317 H307 0.929 . S
C317 C315 1.433 . S
C317 N320 1.384 . S
C318 H309 0.929 . S
C318 C310 1.378 . S
C318 C313 1.350 . S
C319 H306 0.929 . S
C319 C311 1.433 . S
C319 N321 1.384 . S
N320 C316 1.427 . S
N320 C317 1.384 . S
N321 C313 1.427 . S
N321 C319 1.384 . S
H322 C328 0.930 . S
H323 C332 0.930 1_545 S
H324 C337 0.929 . S
H325 C335 0.929 . S
H326 C330 0.929 1_545 S
H327 C336 0.929 . S
C328 H322 0.930 . S
C328 C329 1.367 . S
C328 C336 1.378 . S
C329 C328 1.367 . S
C329 C337 1.433 . S
C330 H326 0.929 1_565 S
C330 C332 1.378 . S
C330 C334 1.350 . S
C331 C334 1.463 . S
C331 C336 1.350 . S
C331 N339 1.427 . S
C332 H323 0.930 1_565 S
C332 C330 1.378 . S
C332 C333 1.367 . S
C333 C332 1.367 . S
C333 C335 1.433 . S
C334 C330 1.350 . S
C334 C331 1.463 . S
C334 N338 1.427 . S
C335 H325 0.929 . S
C335 C333 1.433 . S
C335 N338 1.384 . S
C336 H327 0.929 . S
C336 C328 1.378 . S
C336 C331 1.350 . S
C337 H324 0.929 . S
C337 C329 1.433 . S
C337 N339 1.384 . S
N338 C334 1.427 . S
N338 C335 1.384 . S
N339 C331 1.427 . S
N339 C337 1.384 . S
H340 C346 0.930 . S
H341 C350 0.930 . S
H342 C355 0.929 . S
H343 C353 0.929 . S
H344 C348 0.929 1_554 S
H345 C354 0.929 . S
C346 H340 0.930 . S
C346 C347 1.367 . S
C346 C354 1.378 . S
C347 C346 1.367 . S
C347 C355 1.433 . S
C348 H344 0.929 1_556 S
C348 C350 1.378 1_556 S
C348 C352 1.350 . S
C349 C352 1.463 . S
C349 C354 1.350 . S
C349 N357 1.427 . S
C350 H341 0.930 . S
C350 C348 1.378 1_554 S
C350 C351 1.367 1_554 S
C351 C350 1.367 1_556 S
C351 C353 1.433 . S
C352 C348 1.350 . S
C352 C349 1.463 . S
C352 N356 1.427 . S
C353 H343 0.929 . S
C353 C351 1.433 . S
C353 N356 1.384 . S
C354 H345 0.929 . S
C354 C346 1.378 . S
C354 C349 1.350 . S
C355 H342 0.929 . S
C355 C347 1.433 . S
C355 N357 1.384 . S
N356 C352 1.427 . S
N356 C353 1.384 . S
N357 C349 1.427 . S
N357 C355 1.384 . S
H358 C364 0.930 . S
H359 C368 0.930 . S
H360 C373 0.929 . S
H361 C371 0.929 . S
H362 C366 0.929 . S
H363 C372 0.929 . S
C364 H358 0.930 . S
C364 C365 1.367 . S
C364 C372 1.378 . S
C365 C364 1.367 . S
C365 C373 1.433 . S
C366 H362 0.929 . S
C366 C368 1.378 . S
C366 C370 1.350 . S
C367 C370 1.463 . S
C367 C372 1.350 . S
C367 N375 1.427 . S
C368 H359 0.930 . S
C368 C366 1.378 . S
C368 C369 1.367 . S
C369 C368 1.367 . S
C369 C371 1.433 . S
C370 C366 1.350 . S
C370 C367 1.463 . S
C370 N374 1.427 . S
C371 H361 0.929 . S
C371 C369 1.433 . S
C371 N374 1.384 . S
C372 H363 0.929 . S
C372 C364 1.378 . S
C372 C367 1.350 . S
C373 H360 0.929 . S
C373 C365 1.433 . S
C373 N375 1.384 . S
N374 C370 1.427 . S
N374 C371 1.384 . S
N375 C367 1.427 . S
N375 C373 1.384 . S
H376 C382 0.930 . S
H377 C386 0.930 1_556 S
H378 C391 0.929 . S
H379 C389 0.929 . S
H380 C384 0.929 . S
H381 C390 0.929 . S
C382 H376 0.930 . S
C382 C383 1.367 . S
C382 C390 1.378 . S
C383 C382 1.367 . S
C383 C391 1.433 . S
C384 H380 0.929 . S
C384 C386 1.378 . S
C384 C388 1.350 . S
C385 C388 1.463 . S
C385 C390 1.350 . S
C385 N393 1.427 . S
C386 H377 0.930 1_554 S
C386 C384 1.378 . S
C386 C387 1.367 . S
C387 C386 1.367 . S
C387 C389 1.433 . S
C388 C384 1.350 . S
C388 C385 1.463 . S
C388 N392 1.427 . S
C389 H379 0.929 . S
C389 C387 1.433 . S
C389 N392 1.384 . S
C390 H381 0.929 . S
C390 C382 1.378 . S
C390 C385 1.350 . S
C391 H378 0.929 . S
C391 C383 1.433 . S
C391 N393 1.384 . S
N392 C388 1.427 . S
N392 C389 1.384 . S
N393 C385 1.427 . S
N393 C391 1.384 . S
H394 C400 0.930 . S
H395 C404 0.930 . S
H396 C409 0.929 . S
H397 C407 0.929 . S
H398 C402 0.929 . S
H399 C408 0.929 . S
C400 H394 0.930 . S
C400 C401 1.367 . S
C400 C408 1.378 . S
C401 C400 1.367 . S
C401 C409 1.433 . S
C402 H398 0.929 . S
C402 C404 1.378 . S
C402 C406 1.350 . S
C403 C406 1.463 . S
C403 C408 1.350 . S
C403 N411 1.427 . S
C404 H395 0.930 . S
C404 C402 1.378 . S
C404 C405 1.367 . S
C405 C404 1.367 . S
C405 C407 1.433 . S
C406 C402 1.350 . S
C406 C403 1.463 . S
C406 N410 1.427 . S
C407 H397 0.929 . S
C407 C405 1.433 . S
C407 N410 1.384 . S
C408 H399 0.929 . S
C408 C400 1.378 . S
C408 C403 1.350 . S
C409 H396 0.929 . S
C409 C401 1.433 . S
C409 N411 1.384 . S
N410 C406 1.427 . S
N410 C407 1.384 . S
N411 C403 1.427 . S
N411 C409 1.384 . S
H412 C418 0.930 . S
H413 C422 0.930 . S
H414 C427 0.929 . S
H415 C425 0.929 . S
H416 C420 0.929 . S
H417 C426 0.929 . S
C418 H412 0.930 . S
C418 C419 1.367 . S
C418 C426 1.378 . S
C419 C418 1.367 . S
C419 C427 1.433 . S
C420 H416 0.929 . S
C420 C422 1.378 . S
C420 C424 1.350 . S
C421 C424 1.463 . S
C421 C426 1.350 . S
C421 N429 1.427 . S
C422 H413 0.930 . S
C422 C420 1.378 . S
C422 C423 1.367 . S
C423 C422 1.367 . S
C423 C425 1.433 . S
C424 C420 1.350 . S
C424 C421 1.463 . S
C424 N428 1.427 . S
C425 H415 0.929 . S
C425 C423 1.433 . S
C425 N428 1.384 . S
C426 H417 0.929 . S
C426 C418 1.378 . S
C426 C421 1.350 . S
C427 H414 0.929 . S
C427 C419 1.433 . S
C427 N429 1.384 . S
N428 C424 1.427 . S
N428 C425 1.384 . S
N429 C421 1.427 . S
N429 C427 1.384 . S
H430 C436 0.930 . S
H431 C440 0.930 . S
H432 C445 0.929 . S
H433 C443 0.929 . S
H434 C438 0.929 . S
H435 C444 0.929 . S
C436 H430 0.930 . S
C436 C437 1.367 . S
C436 C444 1.378 . S
C437 C436 1.367 . S
C437 C445 1.433 . S
C438 H434 0.929 . S
C438 C440 1.378 . S
C438 C442 1.350 . S
C439 C442 1.463 . S
C439 C444 1.350 . S
C439 N447 1.427 . S
C440 H431 0.930 . S
C440 C438 1.378 . S
C440 C441 1.367 . S
C441 C440 1.367 . S
C441 C443 1.433 . S
C442 C438 1.350 . S
C442 C439 1.463 . S
C442 N446 1.427 . S
C443 H433 0.929 . S
C443 C441 1.433 . S
C443 N446 1.384 . S
C444 H435 0.929 . S
C444 C436 1.378 . S
C444 C439 1.350 . S
C445 H432 0.929 . S
C445 C437 1.433 . S
C445 N447 1.384 . S
N446 C442 1.427 . S
N446 C443 1.384 . S
N447 C439 1.427 . S
N447 C445 1.384 . S
H448 C454 0.930 . S
H449 C458 0.930 . S
H450 C463 0.929 . S
H451 C461 0.929 1_455 S
H452 C456 0.929 . S
H453 C462 0.929 . S
C454 H448 0.930 . S
C454 C455 1.367 . S
C454 C462 1.378 . S
C455 C454 1.367 . S
C455 C463 1.433 . S
C456 H452 0.929 . S
C456 C458 1.378 . S
C456 C460 1.350 . S
C457 C460 1.463 . S
C457 C462 1.350 . S
C457 N465 1.427 . S
C458 H449 0.930 . S
C458 C456 1.378 . S
C458 C459 1.367 . S
C459 C458 1.367 . S
C459 C461 1.433 . S
C460 C456 1.350 . S
C460 C457 1.463 . S
C460 N464 1.427 . S
C461 H451 0.929 1_655 S
C461 C459 1.433 . S
C461 N464 1.384 . S
C462 H453 0.929 . S
C462 C454 1.378 . S
C462 C457 1.350 . S
C463 H450 0.929 . S
C463 C455 1.433 . S
C463 N465 1.384 . S
N464 C460 1.427 . S
N464 C461 1.384 . S
N465 C457 1.427 . S
N465 C463 1.384 . S
H466 C472 0.930 . S
H467 C476 0.930 . S
H468 C481 0.929 . S
H469 C479 0.929 . S
H470 C474 0.929 . S
H471 C480 0.929 . S
C472 H466 0.930 . S
C472 C473 1.367 . S
C472 C480 1.378 . S
C473 C472 1.367 . S
C473 C481 1.433 . S
C474 H470 0.929 . S
C474 C476 1.378 . S
C474 C478 1.350 . S
C475 C478 1.463 . S
C475 C480 1.350 . S
C475 N483 1.427 . S
C476 H467 0.930 . S
C476 C474 1.378 . S
C476 C477 1.367 . S
C477 C476 1.367 . S
C477 C479 1.433 . S
C478 C474 1.350 . S
C478 C475 1.463 . S
C478 N482 1.427 . S
C479 H469 0.929 . S
C479 C477 1.433 . S
C479 N482 1.384 . S
C480 H471 0.929 . S
C480 C472 1.378 . S
C480 C475 1.350 . S
C481 H468 0.929 . S
C481 C473 1.433 . S
C481 N483 1.384 . S
N482 C478 1.427 . S
N482 C479 1.384 . S
N483 C475 1.427 . S
N483 C481 1.384 . S
H484 C490 0.930 . S
H485 C494 0.930 . S
H486 C499 0.929 . S
H487 C497 0.929 . S
H488 C492 0.929 . S
H489 C498 0.929 . S
C490 H484 0.930 . S
C490 C491 1.367 . S
C490 C498 1.378 . S
C491 C490 1.367 . S
C491 C499 1.433 . S
C492 H488 0.929 . S
C492 C494 1.378 . S
C492 C496 1.350 . S
C493 C496 1.463 . S
C493 C498 1.350 . S
C493 N501 1.427 . S
C494 H485 0.930 . S
C494 C492 1.378 . S
C494 C495 1.367 . S
C495 C494 1.367 . S
C495 C497 1.433 . S
C496 C492 1.350 . S
C496 C493 1.463 . S
C496 N500 1.427 . S
C497 H487 0.929 . S
C497 C495 1.433 . S
C497 N500 1.384 . S
C498 H489 0.929 . S
C498 C490 1.378 . S
C498 C493 1.350 . S
C499 H486 0.929 . S
C499 C491 1.433 . S
C499 N501 1.384 . S
N500 C496 1.427 . S
N500 C497 1.384 . S
N501 C493 1.427 . S
N501 C499 1.384 . S
H502 C508 0.930 . S
H503 C512 0.930 . S
H504 C517 0.929 . S
H505 C515 0.929 . S
H506 C510 0.929 . S
H507 C516 0.929 . S
C508 H502 0.930 . S
C508 C509 1.367 . S
C508 C516 1.378 . S
C509 C508 1.367 . S
C509 C517 1.433 . S
C510 H506 0.929 . S
C510 C512 1.378 . S
C510 C514 1.350 . S
C511 C514 1.463 . S
C511 C516 1.350 . S
C511 N519 1.427 . S
C512 H503 0.930 . S
C512 C510 1.378 . S
C512 C513 1.367 . S
C513 C512 1.367 . S
C513 C515 1.433 . S
C514 C510 1.350 . S
C514 C511 1.463 . S
C514 N518 1.427 . S
C515 H505 0.929 . S
C515 C513 1.433 . S
C515 N518 1.384 . S
C516 H507 0.929 . S
C516 C508 1.378 . S
C516 C511 1.350 . S
C517 H504 0.929 . S
C517 C509 1.433 . S
C517 N519 1.384 . S
N518 C514 1.427 . S
N518 C515 1.384 . S
N519 C511 1.427 . S
N519 C517 1.384 . S
H520 C526 0.930 . S
H521 C530 0.930 1_545 S
H522 C535 0.929 . S
H523 C533 0.929 1_554 S
H524 C528 0.929 . S
H525 C534 0.929 . S
C526 H520 0.930 . S
C526 C527 1.367 . S
C526 C534 1.378 . S
C527 C526 1.367 . S
C527 C535 1.433 . S
C528 H524 0.929 . S
C528 C530 1.378 . S
C528 C532 1.350 . S
C529 C532 1.463 . S
C529 C534 1.350 . S
C529 N537 1.427 . S
C530 H521 0.930 1_565 S
C530 C528 1.378 . S
C530 C531 1.367 . S
C531 C530 1.367 . S
C531 C533 1.433 . S
C532 C528 1.350 . S
C532 C529 1.463 . S
C532 N536 1.427 . S
C533 H523 0.929 1_556 S
C533 C531 1.433 . S
C533 N536 1.384 . S
C534 H525 0.929 . S
C534 C526 1.378 . S
C534 C529 1.350 . S
C535 H522 0.929 . S
C535 C527 1.433 . S
C535 N537 1.384 . S
N536 C532 1.427 . S
N536 C533 1.384 . S
N537 C529 1.427 . S
N537 C535 1.384 . S
H538 C544 0.930 . S
H539 C548 0.930 1_565 S
H540 C553 0.929 . S
H541 C551 0.929 . S
H542 C546 0.929 . S
H543 C552 0.929 . S
C544 H538 0.930 . S
C544 C545 1.367 . S
C544 C552 1.378 . S
C545 C544 1.367 . S
C545 C553 1.433 . S
C546 H542 0.929 . S
C546 C548 1.378 . S
C546 C550 1.350 . S
C547 C550 1.463 . S
C547 C552 1.350 . S
C547 N555 1.427 . S
C548 H539 0.930 1_545 S
C548 C546 1.378 . S
C548 C549 1.367 . S
C549 C548 1.367 . S
C549 C551 1.433 . S
C550 C546 1.350 . S
C550 C547 1.463 . S
C550 N554 1.427 . S
C551 H541 0.929 . S
C551 C549 1.433 . S
C551 N554 1.384 . S
C552 H543 0.929 . S
C552 C544 1.378 . S
C552 C547 1.350 . S
C553 H540 0.929 . S
C553 C545 1.433 . S
C553 N555 1.384 . S
N554 C550 1.427 . S
N554 C551 1.384 . S
N555 C547 1.427 . S
N555 C553 1.384 . S
H556 C562 0.930 . S
H557 C566 0.930 1_556 S
H558 C571 0.929 . S
H559 C569 0.929 . S
H560 C564 0.929 . S
H561 C570 0.929 . S
C562 H556 0.930 . S
C562 C563 1.367 . S
C562 C570 1.378 . S
C563 C562 1.367 . S
C563 C571 1.433 . S
C564 H560 0.929 . S
C564 C566 1.378 . S
C564 C568 1.350 . S
C565 C568 1.463 . S
C565 C570 1.350 . S
C565 N573 1.427 . S
C566 H557 0.930 1_554 S
C566 C564 1.378 . S
C566 C567 1.367 . S
C567 C566 1.367 . S
C567 C569 1.433 . S
C568 C564 1.350 . S
C568 C565 1.463 . S
C568 N572 1.427 . S
C569 H559 0.929 . S
C569 C567 1.433 . S
C569 N572 1.384 . S
C570 H561 0.929 . S
C570 C562 1.378 . S
C570 C565 1.350 . S
C571 H558 0.929 . S
C571 C563 1.433 . S
C571 N573 1.384 . S
N572 C568 1.427 . S
N572 C569 1.384 . S
N573 C565 1.427 . S
N573 C571 1.384 . S
H574 C580 0.930 . S
H575 C584 0.930 . S
H576 C589 0.929 . S
H577 C587 0.929 . S
H578 C582 0.929 . S
H579 C588 0.929 . S
C580 H574 0.930 . S
C580 C581 1.367 . S
C580 C588 1.378 . S
C581 C580 1.367 . S
C581 C589 1.433 . S
C582 H578 0.929 . S
C582 C584 1.378 . S
C582 C586 1.350 . S
C583 C586 1.463 . S
C583 C588 1.350 . S
C583 N591 1.427 . S
C584 H575 0.930 . S
C584 C582 1.378 . S
C584 C585 1.367 . S
C585 C584 1.367 . S
C585 C587 1.433 . S
C586 C582 1.350 . S
C586 C583 1.463 . S
C586 N590 1.427 . S
C587 H577 0.929 . S
C587 C585 1.433 . S
C587 N590 1.384 . S
C588 H579 0.929 . S
C588 C580 1.378 . S
C588 C583 1.350 . S
C589 H576 0.929 . S
C589 C581 1.433 . S
C589 N591 1.384 . S
N590 C586 1.427 . S
N590 C587 1.384 . S
N591 C583 1.427 . S
N591 C589 1.384 . S
H592 C598 0.930 . S
H593 C602 0.930 . S
H594 C607 0.929 . S
H595 C605 0.929 1_554 S
H596 C600 0.924 1_455 S
H597 C606 0.929 . S
C598 H592 0.930 . S
C598 C599 1.367 . S
C598 C606 1.378 . S
C599 C598 1.367 . S
C599 C607 1.433 . S
C600 H596 0.924 1_655 S
C600 C602 1.375 1_655 S
C600 C604 1.357 . S
C601 C604 1.463 . S
C601 C606 1.350 . S
C601 N609 1.427 . S
C602 H593 0.930 . S
C602 C600 1.375 1_455 S
C602 C603 1.367 1_455 S
C603 C602 1.367 1_655 S
C603 C605 1.433 . S
C604 C600 1.357 . S
C604 C601 1.463 . S
C604 N608 1.427 . S
C605 H595 0.929 1_556 S
C605 C603 1.433 . S
C605 N608 1.384 . S
C606 H597 0.929 . S
C606 C598 1.378 . S
C606 C601 1.350 . S
C607 H594 0.929 . S
C607 C599 1.433 . S
C607 N609 1.384 . S
N608 C604 1.427 . S
N608 C605 1.384 . S
N609 C601 1.427 . S
N609 C607 1.384 . S
H610 C616 0.930 . S
H611 C620 0.930 . S
H612 C625 0.929 . S
H613 C623 0.929 . S
H614 C618 0.929 . S
H615 C624 0.929 . S
C616 H610 0.930 . S
C616 C617 1.367 . S
C616 C624 1.378 . S
C617 C616 1.367 . S
C617 C625 1.433 . S
C618 H614 0.929 . S
C618 C620 1.378 . S
C618 C622 1.350 . S
C619 C622 1.463 . S
C619 C624 1.350 . S
C619 N627 1.427 . S
C620 H611 0.930 . S
C620 C618 1.378 . S
C620 C621 1.367 . S
C621 C620 1.367 . S
C621 C623 1.433 . S
C622 C618 1.350 . S
C622 C619 1.463 . S
C622 N626 1.427 . S
C623 H613 0.929 . S
C623 C621 1.433 . S
C623 N626 1.384 . S
C624 H615 0.929 . S
C624 C616 1.378 . S
C624 C619 1.350 . S
C625 H612 0.929 . S
C625 C617 1.433 . S
C625 N627 1.384 . S
N626 C622 1.427 . S
N626 C623 1.384 . S
N627 C619 1.427 . S
N627 C625 1.384 . S
H628 C634 0.930 . S
H629 C638 0.930 . S
H630 C643 0.929 . S
H631 C641 0.929 . S
H632 C636 0.929 . S
H633 C642 0.929 . S
C634 H628 0.930 . S
C634 C635 1.367 . S
C634 C642 1.378 . S
C635 C634 1.367 . S
C635 C643 1.433 . S
C636 H632 0.929 . S
C636 C638 1.378 . S
C636 C640 1.350 . S
C637 C640 1.463 . S
C637 C642 1.350 . S
C637 N645 1.427 . S
C638 H629 0.930 . S
C638 C636 1.378 . S
C638 C639 1.367 . S
C639 C638 1.367 . S
C639 C641 1.433 . S
C640 C636 1.350 . S
C640 C637 1.463 . S
C640 N644 1.427 . S
C641 H631 0.929 . S
C641 C639 1.433 . S
C641 N644 1.384 . S
C642 H633 0.929 . S
C642 C634 1.378 . S
C642 C637 1.350 . S
C643 H630 0.929 . S
C643 C635 1.433 . S
C643 N645 1.384 . S
N644 C640 1.427 . S
N644 C641 1.384 . S
N645 C637 1.427 . S
N645 C643 1.384 . S
H646 C652 0.930 . S
H647 C656 0.930 . S
H648 C661 0.929 . S
H649 C659 0.929 . S
H650 C654 0.929 . S
H651 C660 0.929 . S
C652 H646 0.930 . S
C652 C653 1.367 . S
C652 C660 1.378 . S
C653 C652 1.367 . S
C653 C661 1.433 . S
C654 H650 0.929 . S
C654 C656 1.378 . S
C654 C658 1.350 . S
C655 C658 1.463 . S
C655 C660 1.350 . S
C655 N663 1.427 . S
C656 H647 0.930 . S
C656 C654 1.378 . S
C656 C657 1.367 . S
C657 C656 1.367 . S
C657 C659 1.433 . S
C658 C654 1.350 . S
C658 C655 1.463 . S
C658 N662 1.427 . S
C659 H649 0.929 . S
C659 C657 1.433 . S
C659 N662 1.384 . S
C660 H651 0.929 . S
C660 C652 1.378 . S
C660 C655 1.350 . S
C661 H648 0.929 . S
C661 C653 1.433 . S
C661 N663 1.384 . S
N662 C658 1.427 . S
N662 C659 1.384 . S
N663 C655 1.427 . S
N663 C661 1.384 . S
C239 C6 2.496 . S
C243 C96 2.500 . S
C257 C18 2.561 . S
C261 C138 2.588 . S
C279 C168 0.949 . S
C275 C28 0.942 . S
C293 C40 0.679 . S
C297 C202 0.664 . S
C315 C159 2.109 . S
C311 C9 2.103 . S
C333 C113 1.848 . S
C329 C16 1.831 . S
C351 C206 1.292 . S
C347 C30 1.285 . S
C369 C172 0.989 . S
C365 C42 0.982 . S
C383 C4 2.129 . S
C387 C227 2.156 . S
C405 C134 1.142 . S
C401 C33 1.141 . S
C419 C45 0.957 . S
C423 C109 0.960 . S
C437 C21 2.412 . S
C441 C193 2.425 . S
C459 C125 2.558 . S
C455 C57 2.550 . S
C473 C66 2.563 . S
C477 C147 2.570 . S
C491 C76 0.972 . S
C495 C177 0.974 . S
C509 C88 0.630 . S
C513 C211 0.621 . S
C527 C54 2.073 . S
C531 C130 2.081 . S
C549 C104 1.882 . S
C545 C64 1.856 . S
C567 C215 1.157 . S
C563 C78 1.134 . S
C585 C181 0.995 . S
C581 C93 0.994 . S
C599 C52 2.097 . S
C603 C198 2.112 . S
C621 C143 1.135 . S
C617 C81 1.128 . S
C639 C100 0.969 . S
C635 C90 0.965 . S
C653 C69 2.446 . S
C657 C164 2.452 . S
