# Generated by pormake.
# Topology sqc, (4,8)-cn, num edge types: 1
# Building blocks:
#     Node 0, Type 0, BuildingBlock: GIZVER_clean_linker_0, # of connection points: 4
#     Node 1, Type 0, BuildingBlock: GIZVER_clean_linker_0, # of connection points: 4
#     Node 2, Type 0, BuildingBlock: GIZVER_clean_linker_0, # of connection points: 4
#     Node 3, Type 0, BuildingBlock: GIZVER_clean_linker_0, # of connection points: 4
#     Node 4, Type 0, BuildingBlock: GIZVER_clean_linker_0, # of connection points: 4
#     Node 5, Type 0, BuildingBlock: GIZVER_clean_linker_0, # of connection points: 4
#     Node 6, Type 0, BuildingBlock: GIZVER_clean_linker_0, # of connection points: 4
#     Node 7, Type 0, BuildingBlock: GIZVER_clean_linker_0, # of connection points: 4
#     Node 8, Type 1, BuildingBlock: VETTIZ_charged_sbu_0, # of connection points: 8
#     Node 9, Type 1, BuildingBlock: VETTIZ_charged_sbu_0, # of connection points: 8
#     Node 10, Type 1, BuildingBlock: VETTIZ_charged_sbu_0, # of connection points: 8
#     Node 11, Type 1, BuildingBlock: VETTIZ_charged_sbu_0, # of connection points: 8
#     Edge 12, Type (0, 1), BuildingBlock: ZUJKAS_clean_linker_0, # of connection points: 2
#     Edge 13, Type (0, 1), BuildingBlock: ZUJKAS_clean_linker_0, # of connection points: 2
#     Edge 14, Type (0, 1), BuildingBlock: ZUJKAS_clean_linker_0, # of connection points: 2
#     Edge 15, Type (0, 1), BuildingBlock: ZUJKAS_clean_linker_0, # of connection points: 2
#     Edge 16, Type (0, 1), BuildingBlock: ZUJKAS_clean_linker_0, # of connection points: 2
#     Edge 17, Type (0, 1), BuildingBlock: ZUJKAS_clean_linker_0, # of connection points: 2
#     Edge 18, Type (0, 1), BuildingBlock: ZUJKAS_clean_linker_0, # of connection points: 2
#     Edge 19, Type (0, 1), BuildingBlock: ZUJKAS_clean_linker_0, # of connection points: 2
#     Edge 20, Type (0, 1), BuildingBlock: ZUJKAS_clean_linker_0, # of connection points: 2
#     Edge 21, Type (0, 1), BuildingBlock: ZUJKAS_clean_linker_0, # of connection points: 2
#     Edge 22, Type (0, 1), BuildingBlock: ZUJKAS_clean_linker_0, # of connection points: 2
#     Edge 23, Type (0, 1), BuildingBlock: ZUJKAS_clean_linker_0, # of connection points: 2
#     Edge 24, Type (0, 1), BuildingBlock: ZUJKAS_clean_linker_0, # of connection points: 2
#     Edge 25, Type (0, 1), BuildingBlock: ZUJKAS_clean_linker_0, # of connection points: 2
#     Edge 26, Type (0, 1), BuildingBlock: ZUJKAS_clean_linker_0, # of connection points: 2
#     Edge 27, Type (0, 1), BuildingBlock: ZUJKAS_clean_linker_0, # of connection points: 2
#     Edge 28, Type (0, 1), BuildingBlock: ZUJKAS_clean_linker_0, # of connection points: 2
#     Edge 29, Type (0, 1), BuildingBlock: ZUJKAS_clean_linker_0, # of connection points: 2
#     Edge 30, Type (0, 1), BuildingBlock: ZUJKAS_clean_linker_0, # of connection points: 2
#     Edge 31, Type (0, 1), BuildingBlock: ZUJKAS_clean_linker_0, # of connection points: 2
#     Edge 32, Type (0, 1), BuildingBlock: ZUJKAS_clean_linker_0, # of connection points: 2
#     Edge 33, Type (0, 1), BuildingBlock: ZUJKAS_clean_linker_0, # of connection points: 2
#     Edge 34, Type (0, 1), BuildingBlock: ZUJKAS_clean_linker_0, # of connection points: 2
#     Edge 35, Type (0, 1), BuildingBlock: ZUJKAS_clean_linker_0, # of connection points: 2
#     Edge 36, Type (0, 1), BuildingBlock: ZUJKAS_clean_linker_0, # of connection points: 2
#     Edge 37, Type (0, 1), BuildingBlock: ZUJKAS_clean_linker_0, # of connection points: 2
#     Edge 38, Type (0, 1), BuildingBlock: ZUJKAS_clean_linker_0, # of connection points: 2
#     Edge 39, Type (0, 1), BuildingBlock: ZUJKAS_clean_linker_0, # of connection points: 2
#     Edge 40, Type (0, 1), BuildingBlock: ZUJKAS_clean_linker_0, # of connection points: 2
#     Edge 41, Type (0, 1), BuildingBlock: ZUJKAS_clean_linker_0, # of connection points: 2
#     Edge 42, Type (0, 1), BuildingBlock: ZUJKAS_clean_linker_0, # of connection points: 2
#     Edge 43, Type (0, 1), BuildingBlock: ZUJKAS_clean_linker_0, # of connection points: 2
# Relax obj value: 0.167
# Max RMSD: 0.279
# Mean RMSD: 0.219
data_MOF--net-sqc--node1-VETTIZ_charged_sbu_0--node2-GIZVER_clean_linker_0--edge1-ZUJKAS_clean_linker_0
_symmetry_space_group_name_H-M    P1
_symmetry_Int_Tables_number       1
_symmetry_cell_setting            triclinic
loop_
_symmetry_equiv_pos_as_xyz
'x, y, z'
_cell_length_a     31.687181
_cell_length_b     31.729651
_cell_length_c     86.05135
_cell_angle_alpha  89.992838
_cell_angle_beta   90.146243
_cell_angle_gamma 90.327586
loop_
_atom_site_label
_atom_site_type_symbol
_atom_site_fract_x
_atom_site_fract_y
_atom_site_fract_z
_atom_type_partial_charge
H0 H 0.95399 0.02549 0.47868 0.0
H1 H 0.97207 0.09186 0.52181 0.0
H2 H 0.86477 0.01006 0.51577 0.0
H3 H 0.99969 0.0859 0.47967 0.0
H4 H 0.99958 0.11911 0.49626 0.0
H5 H 0.05828 0.0408 0.4748 0.0
H6 H 0.16729 0.0547 0.50409 0.0
H7 H 0.04813 0.10353 0.51916 0.0
C8 C 0.94482 0.03114 0.49062 0.0
C9 C 0.907 0.0135 0.49627 0.0
C10 C 0.96867 0.05935 0.49983 0.0
C11 C 0.95489 0.0688 0.51496 0.0
C12 C 0.91747 0.05105 0.52084 0.0
C13 C 0.89438 0.0228 0.51152 0.0
C14 C 1.00328 0.08574 0.49254 0.0
C15 C 0.04742 0.07181 0.49684 0.0
C16 C 0.07214 0.05046 0.48578 0.0
C17 C 0.11555 0.04498 0.48825 0.0
C18 C 0.13373 0.059 0.50217 0.0
C19 C 0.10975 0.0798 0.51342 0.0
C20 C 0.06636 0.08571 0.51083 0.0
H21 H 0.34568 0.81849 0.75156 0.0
H22 H 0.27073 0.81363 0.79327 0.0
H23 H 0.26856 0.92386 0.76424 0.0
H24 H 0.36057 0.76634 0.77124 0.0
H25 H 0.33512 0.76882 0.78964 0.0
H26 H 0.32381 0.73107 0.74861 0.0
H27 H 0.24495 0.62677 0.7622 0.0
H28 H 0.27791 0.72214 0.79556 0.0
C29 C 0.3225 0.83249 0.7592 0.0
C30 C 0.30755 0.87317 0.75606 0.0
C31 C 0.30883 0.81051 0.7725 0.0
C32 C 0.27999 0.82969 0.78268 0.0
C33 C 0.26574 0.87079 0.77982 0.0
C34 C 0.27896 0.89184 0.76634 0.0
C35 C 0.32917 0.76929 0.77689 0.0
C36 C 0.30223 0.7318 0.77239 0.0
C37 C 0.30444 0.71531 0.75723 0.0
C38 C 0.28368 0.67739 0.75343 0.0
C39 C 0.25997 0.65668 0.7649 0.0
C40 C 0.25806 0.67217 0.78015 0.0
C41 C 0.27835 0.71042 0.78373 0.0
H42 H 0.55493 0.01428 0.04277 0.0
H43 H 0.54721 0.07236 0.99756 0.0
H44 H 0.64458 0.98245 0.00748 0.0
H45 H 0.51559 0.07819 0.03944 0.0
H46 H 0.51774 0.1064 0.02162 0.0
H47 H 0.45641 0.03184 0.04524 0.0
H48 H 0.3486 0.03898 0.01489 0.0
H49 H 0.46736 0.09068 1.00022 0.0
C50 C 0.56544 0.01652 0.03082 0.0
C51 C 0.60156 0.99453 0.02616 0.0
C52 C 0.54535 0.04459 0.02053 0.0
C53 C 0.56126 0.04944 0.00531 0.0
C54 C 0.59669 0.02644 1.0004 0.0
C55 C 0.61605 0.99874 0.01088 0.0
C56 C 0.51225 0.07451 0.02664 0.0
C57 C 0.46762 0.06075 0.02282 0.0
C58 C 0.44271 0.03994 0.03409 0.0
C59 C 0.3994 0.03278 0.03143 0.0
C60 C 0.38196 0.04428 0.01706 0.0
C61 C 0.40619 0.06496 0.00578 0.0
C62 C 0.449 0.07322 0.00869 0.0
H63 H 0.22185 0.20756 0.24201 0.0
H64 H 0.26224 0.20273 0.28991 0.0
H65 H 0.28872 0.09974 0.25923 0.0
H66 H 0.18671 0.24963 0.26274 0.0
H67 H 0.20677 0.25042 0.28201 0.0
H68 H 0.21095 0.29942 0.24369 0.0
H69 H 0.28603 0.40388 0.25994 0.0
H70 H 0.26909 0.29501 0.28895 0.0
C71 C 0.23915 0.19213 0.25126 0.0
C72 C 0.25673 0.15209 0.24865 0.0
C73 C 0.24191 0.21127 0.26607 0.0
C74 C 0.26208 0.18951 0.27829 0.0
C75 C 0.27839 0.14898 0.27587 0.0
C76 C 0.27678 0.13137 0.26097 0.0
C77 C 0.21654 0.25047 0.2696 0.0
C78 C 0.23984 0.29132 0.26623 0.0
C79 C 0.23192 0.31325 0.25228 0.0
C80 C 0.24761 0.3544 0.25005 0.0
C81 C 0.27371 0.37224 0.26155 0.0
C82 C 0.28135 0.35146 0.27565 0.0
C83 C 0.2645 0.31078 0.27791 0.0
H84 H 0.65221 0.29223 0.26214 0.0
H85 H 0.71986 0.31038 0.21918 0.0
H86 H 0.71798 0.40849 0.25361 0.0
H87 H 0.63498 0.2505 0.23826 0.0
H88 H 0.66727 0.2545 0.2214 0.0
H89 H 0.65925 0.21069 0.26147 0.0
H90 H 0.75056 0.11427 0.25217 0.0
H91 H 0.73213 0.21443 0.21932 0.0
C92 C 0.67289 0.3111 0.25489 0.0
C93 C 0.68425 0.35189 0.25963 0.0
C94 C 0.68563 0.29581 0.24028 0.0
C95 C 0.71075 0.32154 0.23059 0.0
C96 C 0.72312 0.36208 0.23545 0.0
C97 C 0.70986 0.3767 0.25 0.0
C98 C 0.6682 0.25444 0.23433 0.0
C99 C 0.69363 0.21728 0.23996 0.0
C100 C 0.6839 0.19774 0.25422 0.0
C101 C 0.70469 0.1607 0.25884 0.0
C102 C 0.73595 0.14397 0.24912 0.0
C103 C 0.74605 0.16298 0.23486 0.0
C104 C 0.72503 0.19992 0.23042 0.0
H105 H 0.70174 0.72427 0.75197 0.0
H106 H 0.74105 0.72153 0.79994 0.0
H107 H 0.78318 0.62591 0.76838 0.0
H108 H 0.66022 0.75885 0.77308 0.0
H109 H 0.68065 0.76267 0.79227 0.0
H110 H 0.66862 0.81665 0.7558 0.0
H111 H 0.73627 0.92631 0.77144 0.0
H112 H 0.74516 0.81094 0.79735 0.0
C113 C 0.72093 0.71077 0.76113 0.0
C114 C 0.74401 0.6738 0.75822 0.0
C115 C 0.72045 0.7289 0.7761 0.0
C116 C 0.74304 0.70921 0.78821 0.0
C117 C 0.76613 0.67225 0.78544 0.0
C118 C 0.76723 0.65558 0.77036 0.0
C119 C 0.68984 0.76405 0.77981 0.0
C120 C 0.70694 0.80787 0.77645 0.0
C121 C 0.69096 0.83116 0.76375 0.0
C122 C 0.70086 0.87416 0.7621 0.0
C123 C 0.72888 0.89303 0.77265 0.0
C124 C 0.74524 0.87068 0.78532 0.0
C125 C 0.73404 0.82801 0.78724 0.0
H126 H 0.4838 0.49845 0.0397 0.0
H127 H 0.4792 0.42146 0.99845 0.0
H128 H 0.36933 0.48961 0.01312 0.0
H129 H 0.52961 0.43161 0.03553 0.0
H130 H 0.53676 0.41337 0.01619 0.0
H131 H 0.57508 0.48538 0.04538 0.0
H132 H 0.66854 0.53891 0.01502 0.0
H133 H 0.56711 0.46476 0.99598 0.0
C134 C 0.46697 0.48721 0.02952 0.0
C135 C 0.42441 0.49787 0.02739 0.0
C136 C 0.48699 0.45945 0.01916 0.0
C137 C 0.46416 0.44338 0.00631 0.0
C138 C 0.42165 0.45451 0.00387 0.0
C139 C 0.40239 0.48182 0.01451 0.0
C140 C 0.53005 0.44203 0.02319 0.0
C141 C 0.56567 0.47345 0.02085 0.0
C142 C 0.58659 0.49157 0.03375 0.0
C143 C 0.62354 0.51583 0.03173 0.0
C144 C 0.63876 0.52247 0.01661 0.0
C145 C 0.61886 0.50416 0.00367 0.0
C146 C 0.58193 0.48015 0.00585 0.0
H147 H 0.07227 0.53485 0.54449 0.0
H148 H 0.0552 0.56359 0.4959 0.0
H149 H 0.1649 0.49621 0.51118 0.0
H150 H 0.02023 0.58443 0.53718 0.0
H151 H 0.02343 0.60737 0.51841 0.0
H152 H 0.9675 0.52971 0.54298 0.0
H153 H 0.86253 0.52213 0.51133 0.0
H154 H 0.97633 0.58526 0.49735 0.0
C155 C 0.08217 0.53159 0.5325 0.0
C156 C 0.12135 0.51313 0.52921 0.0
C157 C 0.05759 0.5494 0.5205 0.0
C158 C 0.07255 0.54788 0.50507 0.0
C159 C 0.11105 0.52809 0.50161 0.0
C160 C 0.13451 0.51014 0.51372 0.0
C161 C 0.0201 0.57668 0.52457 0.0
C162 C 0.97788 0.5572 0.52028 0.0
C163 C 0.95421 0.53494 0.53153 0.0
C164 C 0.91213 0.523 0.52848 0.0
C165 C 0.89501 0.53101 0.51373 0.0
C166 C 0.91774 0.55345 0.50249 0.0
C167 C 0.95925 0.56642 0.50578 0.0
Fe168 Fe 0.0196 0.75587 0.1765 0.0
O169 O 0.02278 0.76415 0.1542 0.0
Fe170 Fe 0.9679 0.75385 0.13989 0.0
Fe171 Fe 0.07215 0.75896 0.13998 0.0
O172 O 0.01717 0.74828 0.1542 0.0
O173 O 0.01658 0.76367 0.12565 0.0
O174 O 0.02345 0.748 0.1257 0.0
Fe175 Fe 0.01975 0.75553 0.10336 0.0
C176 C 0.10809 0.79801 0.16931 0.0
O177 O 0.05723 0.70299 0.17516 0.0
O178 O 0.07727 0.69765 0.14962 0.0
O179 O 0.98321 0.70124 0.10467 0.0
O180 O 0.96713 0.69253 0.1304 0.0
O181 O 0.92379 0.7345 0.15597 0.0
O182 O 0.96583 0.71825 0.1764 0.0
O183 O 0.11694 0.74431 0.1237 0.0
O184 O 0.0765 0.72207 0.1034 0.0
C185 C 0.93087 0.71536 0.16886 0.0
O186 O 0.963 0.78908 0.10306 0.0
O187 O 0.9231 0.76839 0.1236 0.0
O188 O 0.07326 0.79347 0.17676 0.0
O189 O 0.11579 0.78005 0.15622 0.0
C190 C 0.074 0.68293 0.16366 0.0
C191 C 0.11214 0.72526 0.11063 0.0
C192 C 0.07264 0.83149 0.11568 0.0
O193 O 0.0721 0.82 0.13017 0.0
O194 O 0.0559 0.80998 0.10445 0.0
C195 C 0.96588 0.68062 0.11598 0.0
O196 O 0.96365 0.81531 0.14931 0.0
O197 O 0.98198 0.80878 0.17504 0.0
C198 C 0.92757 0.78653 0.11038 0.0
C199 C 0.96608 0.82942 0.16346 0.0
Fe200 Fe 0.48788 0.75915 0.4246 0.0
O201 O 0.48247 0.75315 0.40182 0.0
Fe202 Fe 0.50909 0.8011 0.38814 0.0
Fe203 Fe 0.50474 0.70378 0.39 0.0
O204 O 0.48327 0.7572 0.40182 0.0
O205 O 0.53238 0.75199 0.37649 0.0
O206 O 0.53171 0.74777 0.37651 0.0
Fe207 Fe 0.52896 0.7474 0.35373 0.0
C208 C 0.56306 0.70221 0.41792 0.0
O209 O 0.44479 0.71056 0.42401 0.0
O210 O 0.47196 0.66424 0.40591 0.0
O211 O 0.48544 0.79536 0.35129 0.0
O212 O 0.45582 0.80177 0.37453 0.0
O213 O 0.47895 0.84687 0.40199 0.0
O214 O 0.4468 0.80838 0.42158 0.0
O215 O 0.45122 0.70098 0.37623 0.0
O216 O 0.48114 0.70329 0.35282 0.0
C217 C 0.45129 0.84187 0.41307 0.0
O218 O 0.57274 0.79637 0.35496 0.0
O219 O 0.53992 0.84098 0.37228 0.0
O220 O 0.53357 0.71345 0.42702 0.0
O221 O 0.55888 0.70304 0.40324 0.0
C222 C 0.44646 0.67395 0.41729 0.0
C223 C 0.45136 0.6917 0.36179 0.0
C224 C 0.55939 0.66089 0.3644 0.0
O225 O 0.53267 0.65806 0.37587 0.0
O226 O 0.56788 0.69541 0.35673 0.0
C227 C 0.45679 0.81008 0.36008 0.0
O228 O 0.56326 0.80311 0.40138 0.0
O229 O 0.53527 0.80424 0.42499 0.0
C230 C 0.56655 0.83341 0.3611 0.0
C231 C 0.56626 0.81028 0.41587 0.0
Fe232 Fe 0.5119 0.30373 0.67767 0.0
O233 O 0.51768 0.30661 0.65485 0.0
Fe234 Fe 0.46733 0.28156 0.64177 0.0
Fe235 Fe 0.56507 0.27983 0.64322 0.0
O236 O 0.51344 0.30623 0.65485 0.0
O237 O 0.51454 0.25488 0.6301 0.0
O238 O 0.51874 0.25492 0.63017 0.0
Fe239 Fe 0.51807 0.25576 0.60736 0.0
C240 C 0.59949 0.33819 0.66995 0.0
O241 O 0.55487 0.25554 0.68055 0.0
O242 O 0.56241 0.22698 0.65712 0.0
O243 O 0.46656 0.21514 0.60927 0.0
O244 O 0.42485 0.25141 0.62661 0.0
O245 O 0.46416 0.22874 0.65552 0.0
O246 O 0.46404 0.25943 0.67865 0.0
O247 O 0.60831 0.24727 0.62919 0.0
O248 O 0.56727 0.21366 0.61059 0.0
C249 C 0.45825 0.22726 0.67009 0.0
O250 O 0.47281 0.30203 0.60472 0.0
O251 O 0.46835 0.33373 0.62766 0.0
O252 O 0.56306 0.34333 0.67652 0.0
O253 O 0.60731 0.31137 0.65875 0.0
C254 C 0.56362 0.22433 0.67185 0.0
C255 C 0.60263 0.21971 0.61809 0.0
C256 C 0.579 0.33019 0.6144 0.0
O257 O 0.57076 0.33174 0.62889 0.0
O258 O 0.5652 0.30058 0.60574 0.0
C259 C 0.43034 0.22344 0.61571 0.0
O260 O 0.42368 0.31473 0.6556 0.0
O261 O 0.46528 0.34754 0.67419 0.0
C262 C 0.45999 0.33225 0.61322 0.0
C263 C 0.43098 0.34378 0.66602 0.0
Fe264 Fe 0.97921 0.26535 0.92969 0.0
O265 O 0.97213 0.26475 0.90687 0.0
Fe266 Fe 0.99891 0.31548 0.89458 0.0
Fe267 Fe 0.99441 0.21803 0.89363 0.0
O268 O 0.97254 0.26904 0.90695 0.0
O269 O 0.01996 0.26879 0.88115 0.0
O270 O 0.01991 0.26476 0.88113 0.0
Fe271 Fe 0.01591 0.26873 0.85845 0.0
C272 C 0.05367 0.21184 0.92101 0.0
O273 O 0.93497 0.2181 0.92789 0.0
O274 O 0.96258 0.17536 0.90867 0.0
O275 O 0.97159 0.31629 0.85771 0.0
O276 O 0.94471 0.32186 0.88154 0.0
O277 O 0.9718 0.35876 0.91034 0.0
O278 O 0.93989 0.3164 0.92877 0.0
O279 O 0.94017 0.21754 0.8803 0.0
O280 O 0.96856 0.22404 0.85677 0.0
C281 C 0.94525 0.3522 0.9217 0.0
O282 O 0.05981 0.31736 0.86071 0.0
O283 O 0.03005 0.35816 0.87997 0.0
O284 O 0.02299 0.21776 0.93019 0.0
O285 O 0.04948 0.21588 0.90641 0.0
C286 C 0.93675 0.18292 0.92019 0.0
C287 C 0.93957 0.21035 0.86572 0.0
C288 C 0.04878 0.1811 0.86665 0.0
O289 O 0.0225 0.17532 0.87813 0.0
O290 O 0.05572 0.21712 0.85978 0.0
C291 C 0.94374 0.33015 0.86705 0.0
O292 O 0.05414 0.31148 0.90717 0.0
O293 O 0.02824 0.30869 0.93105 0.0
C294 C 0.05587 0.3525 0.8684 0.0
C295 C 0.05904 0.31401 0.92179 0.0
H296 H 0.10903 0.96994 0.47255 0.0
H297 H 0.16232 0.93889 0.45525 0.0
H298 H 0.23832 0.05155 0.45939 0.0
H299 H 0.18541 0.08254 0.47647 0.0
H300 H 0.23585 0.01446 0.42844 0.0
H301 H 0.27611 0.90159 0.47573 0.0
H302 H 0.22187 0.90261 0.46953 0.0
H303 H 0.24439 0.94773 0.47909 0.0
C304 C 0.13672 0.98825 0.46946 0.0
C305 C 0.14353 0.02829 0.47598 0.0
C306 C 0.16714 0.97052 0.45967 0.0
C307 C 0.20445 0.9928 0.45623 0.0
C308 C 0.20983 0.03383 0.46193 0.0
H309 H 0.45252 0.89952 0.43625 0.0
H310 H 0.39223 0.94125 0.44519 0.0
C311 C 0.17972 0.05137 0.47174 0.0
C312 C 0.23993 0.97242 0.44802 0.0
H313 H 0.3167 0.89863 0.45298 0.0
C314 C 0.25338 0.98887 0.4337 0.0
C315 C 0.26309 0.93961 0.45509 0.0
C316 C 0.25101 0.92189 0.47076 0.0
C317 C 0.28954 0.97327 0.42625 0.0
C318 C 0.31264 0.94049 0.43336 0.0
C319 C 0.29897 0.92393 0.44761 0.0
C320 C 0.35105 0.92234 0.42629 0.0
C321 C 0.30343 0.99259 0.41108 0.0
C322 C 0.34816 0.89885 0.41251 0.0
C323 C 0.38258 0.87525 0.40741 0.0
C324 C 0.42043 0.87521 0.41591 0.0
C325 C 0.42399 0.90018 0.42929 0.0
C326 C 0.38954 0.92368 0.43443 0.0
H327 H 0.28771 0.02322 0.40884 0.0
H328 H 0.33815 0.99752 0.41097 0.0
H329 H 0.29527 0.97082 0.40142 0.0
H330 H 0.31849 0.89647 0.40629 0.0
H331 H 0.37854 0.85459 0.3975 0.0
H332 H 0.39015 0.8916 0.75041 0.0
H333 H 0.41751 0.94657 0.73305 0.0
H334 H 0.29176 0.96774 0.71549 0.0
H335 H 0.26418 0.91389 0.73324 0.0
H336 H 0.41825 0.96537 0.70197 0.0
H337 H 0.32116 0.08083 0.73425 0.0
H338 H 0.32735 0.02711 0.74063 0.0
H339 H 0.29042 0.03966 0.72541 0.0
C340 C 0.36859 0.90732 0.74255 0.0
C341 C 0.32505 0.89889 0.74322 0.0
C342 C 0.38419 0.93878 0.73268 0.0
C343 C 0.3565 0.96204 0.72327 0.0
C344 C 0.31352 0.95101 0.72296 0.0
H345 H 0.42898 0.15553 0.65571 0.0
H346 H 0.4061 0.08971 0.66804 0.0
C347 C 0.29783 0.92007 0.73299 0.0
C348 C 0.37188 1.00008 0.71491 0.0
H349 H 0.3576 0.10642 0.71225 0.0
C350 C 0.40499 0.99623 0.70418 0.0
C351 C 0.35522 0.04051 0.71808 0.0
C352 C 0.3219 0.04748 0.73033 0.0
C353 C 0.42145 0.03166 0.69639 0.0
C354 C 0.40369 0.07178 0.69919 0.0
C355 C 0.37087 0.07558 0.70999 0.0
C356 C 0.41934 0.1107 0.6915 0.0
C357 C 0.45841 0.02604 0.68559 0.0
C358 C 0.43363 0.14465 0.70058 0.0
C359 C 0.44607 0.18244 0.69361 0.0
C360 C 0.44449 0.18716 0.67737 0.0
C361 C 0.43057 0.15295 0.66825 0.0
C362 C 0.41784 0.11516 0.67527 0.0
H363 H 0.47524 0.99603 0.68786 0.0
H364 H 0.44682 0.02535 0.67341 0.0
H365 H 0.48122 0.05257 0.68673 0.0
H366 H 0.43502 0.14194 0.71313 0.0
H367 H 0.45709 0.20791 0.70099 0.0
H368 H 0.39529 0.1475 0.99861 0.0
H369 H 0.34227 0.17614 0.98073 0.0
H370 H 0.31396 0.05046 0.9645 0.0
H371 H 0.36567 0.02174 0.98285 0.0
H372 H 0.3205 0.17547 0.94953 0.0
H373 H 0.20441 0.08561 0.98474 0.0
H374 H 0.25907 0.09061 0.99029 0.0
H375 H 0.24324 0.05266 0.97582 0.0
C376 C 0.37867 0.12624 0.99084 0.0
C377 C 0.38426 0.0825 0.99208 0.0
C378 C 0.34831 0.14257 0.98068 0.0
C379 C 0.32341 0.11532 0.97158 0.0
C380 C 0.33212 0.07195 0.97169 0.0
H381 H 0.12371 0.18177 0.90589 0.0
H382 H 0.19161 0.16218 0.91751 0.0
C383 C 0.36188 0.05559 0.98204 0.0
C384 C 0.28524 0.13144 0.96353 0.0
H385 H 0.17805 0.12049 0.96256 0.0
C386 C 0.28933 0.16345 0.95233 0.0
C387 C 0.24445 0.11657 0.96753 0.0
C388 C 0.23735 0.08482 0.98036 0.0
C389 C 0.2537 0.18032 0.94481 0.0
C390 C 0.2132 0.16407 0.94837 0.0
C391 C 0.20919 0.13254 0.9597 0.0
C392 C 0.17404 0.1797 0.94092 0.0
C393 C 0.25956 0.21593 0.93338 0.0
C394 C 0.14162 0.1958 0.95021 0.0
C395 C 0.10275 0.20628 0.94369 0.0
C396 C 0.09536 0.20093 0.92768 0.0
C397 C 0.12831 0.186 0.91827 0.0
C398 C 0.16726 0.17519 0.92486 0.0
H399 H 0.29033 0.23227 0.93509 0.0
H400 H 0.25877 0.20305 0.9214 0.0
H401 H 0.23387 0.23941 0.93443 0.0
H402 H 0.14621 0.19963 0.96262 0.0
H403 H 0.07841 0.2185 0.95124 0.0
H404 H 0.31497 0.11173 0.23086 0.0
H405 H 0.30099 0.05519 0.21216 0.0
H406 H 0.16738 0.07804 0.21597 0.0
H407 H 0.18137 0.13495 0.23452 0.0
H408 H 0.25886 0.98575 0.22112 0.0
H409 H 0.17798 0.05337 0.16994 0.0
H410 H 0.20748 0.08541 0.18356 0.0
H411 H 0.15414 0.06951 0.18785 0.0
C412 C 0.28273 0.10575 0.22722 0.0
C413 C 0.24926 0.12782 0.23411 0.0
C414 C 0.27475 0.07328 0.2166 0.0
C415 C 0.23314 0.06225 0.2126 0.0
C416 C 0.1998 0.08638 0.21859 0.0
H417 H 0.11107 0.82961 0.19875 0.0
H418 H 0.14908 0.89178 0.20779 0.0
C419 C 0.20781 0.11905 0.22919 0.0
C420 C 0.22437 0.02205 0.20419 0.0
H421 H 0.16727 0.97882 0.17437 0.0
C422 C 0.23948 0.9844 0.21072 0.0
C423 C 0.19942 0.02004 0.19054 0.0
C424 C 0.18418 0.0593 0.18247 0.0
C425 C 0.22846 0.94491 0.20451 0.0
C426 C 0.20123 0.94282 0.19149 0.0
C427 C 0.18799 0.98042 0.18441 0.0
C428 C 0.18241 0.90223 0.18622 0.0
C429 C 0.24522 0.90563 0.21217 0.0
C430 C 0.18911 0.88674 0.17113 0.0
C431 C 0.16763 0.85052 0.16593 0.0
C432 C 0.1382 0.82997 0.17559 0.0
C433 C 0.13324 0.84463 0.19092 0.0
C434 C 0.15504 0.88027 0.19615 0.0
H435 H 0.27473 0.91221 0.21875 0.0
H436 H 0.22138 0.89342 0.22048 0.0
H437 H 0.25151 0.88065 0.20345 0.0
H438 H 0.2102 0.90319 0.16328 0.0
H439 H 0.17254 0.8399 0.15413 0.0
H440 H 0.17635 0.13331 0.51258 0.0
H441 H 0.22091 0.15631 0.53416 0.0
H442 H 0.13899 0.09181 0.56642 0.0
H443 H 0.09415 0.06812 0.54458 0.0
H444 H 0.2043 0.20287 0.56102 0.0
H445 H 0.25658 0.03962 0.57456 0.0
H446 H 0.22924 0.05254 0.55677 0.0
H447 H 0.2007 0.04935 0.57472 0.0
C448 C 0.16755 0.1244 0.52429 0.0
C449 C 0.13208 0.09863 0.52693 0.0
C450 C 0.193 0.1376 0.53662 0.0
C451 C 0.18372 0.12521 0.55187 0.0
C452 C 0.14709 0.10115 0.55469 0.0
H453 H 0.34775 0.23367 0.62459 0.0
H454 H 0.28449 0.20733 0.61144 0.0
C455 C 0.12132 0.088 0.54228 0.0
C456 C 0.21391 0.13648 0.56447 0.0
H457 H 0.29012 0.09487 0.58802 0.0
C458 C 0.2226 0.17929 0.56715 0.0
C459 C 0.23814 0.1056 0.57225 0.0
C460 C 0.2311 0.05915 0.56943 0.0
C461 C 0.25575 0.19211 0.57696 0.0
C462 C 0.28047 0.16126 0.58455 0.0
C463 C 0.27095 0.11843 0.58227 0.0
C464 C 0.31847 0.17297 0.59379 0.0
C465 C 0.26547 0.23855 0.57844 0.0
C466 C 0.35862 0.16085 0.58867 0.0
C467 C 0.39498 0.17564 0.5962 0.0
C468 C 0.39196 0.20287 0.60907 0.0
C469 C 0.3515 0.21307 0.61466 0.0
C470 C 0.31518 0.19821 0.60711 0.0
H471 H 0.24918 0.25742 0.56938 0.0
H472 H 0.25483 0.24984 0.58997 0.0
H473 H 0.29995 0.24453 0.57755 0.0
H474 H 0.36191 0.14124 0.57844 0.0
H475 H 0.42544 0.16687 0.59157 0.0
H476 H 0.28552 0.94613 0.79272 0.0
H477 H 0.24355 0.98788 0.8108 0.0
H478 H 0.14803 0.89057 0.81143 0.0
H479 H 0.19052 0.84809 0.79332 0.0
H480 H 0.12208 0.98058 0.80392 0.0
H481 H 0.21514 0.96413 0.85833 0.0
H482 H 0.24566 0.97339 0.84104 0.0
H483 H 0.21599 0.92529 0.84295 0.0
C484 C 0.25572 0.93347 0.79681 0.0
C485 C 0.24103 0.89407 0.79158 0.0
C486 C 0.23196 0.95719 0.8072 0.0
C487 C 0.19294 0.94213 0.81252 0.0
C488 C 0.17828 0.9025 0.80752 0.0
H489 H 0.04575 0.09913 0.87717 0.0
H490 H 0.07713 0.03686 0.86504 0.0
C491 C 0.20247 0.87834 0.79723 0.0
C492 C 0.16667 0.9697 0.82238 0.0
H493 H 0.16769 0.02245 0.85697 0.0
C494 C 0.13145 0.98913 0.81564 0.0
C495 C 0.17899 0.98066 0.83766 0.0
C496 C 0.21582 0.95959 0.84553 0.0
C497 C 0.10967 0.02109 0.82348 0.0
C498 C 0.12366 0.03395 0.83838 0.0
C499 C 0.15728 0.01274 0.8455 0.0
C500 C 0.10582 0.07146 0.84614 0.0
C501 C 0.0726 0.04181 0.81561 0.0
C502 C 0.11253 0.11153 0.83972 0.0
C503 C 0.095 0.14715 0.84663 0.0
C504 C 0.07023 0.14349 0.86014 0.0
C505 C 0.0645 0.10324 0.86677 0.0
C506 C 0.08234 0.06757 0.85986 0.0
H507 H 0.05947 0.02185 0.80613 0.0
H508 H 0.04719 0.04857 0.8241 0.0
H509 H 0.08305 0.07218 0.81045 0.0
H510 H 0.13114 0.11521 0.82926 0.0
H511 H 0.10032 0.17746 0.84117 0.0
H512 H 0.41031 0.96483 0.05099 0.0
H513 H 0.35879 0.93583 0.06956 0.0
H514 H 0.27266 0.03611 0.05831 0.0
H515 H 0.32397 0.06553 0.04017 0.0
H516 H 0.27399 0.01696 0.09012 0.0
H517 H 0.2532 0.87357 0.05358 0.0
H518 H 0.30603 0.88419 0.0602 0.0
H519 H 0.28116 0.91964 0.04677 0.0
C520 C 0.38063 0.98093 0.05268 0.0
C521 C 0.37086 0.01695 0.04389 0.0
C522 C 0.35113 0.96424 0.06321 0.0
C523 C 0.31152 0.98341 0.06512 0.0
C524 C 0.30282 0.02062 0.05698 0.0
H525 H 0.07307 0.87425 0.08808 0.0
H526 H 0.13135 0.91572 0.07756 0.0
C527 C 0.33208 0.03718 0.0465 0.0
C528 C 0.27771 0.96368 0.07469 0.0
H529 H 0.21077 0.87902 0.07577 0.0
C530 C 0.26037 0.9866 0.0871 0.0
C531 C 0.2596 0.92435 0.07059 0.0
C532 C 0.2756 0.89902 0.057 0.0
C533 C 0.22507 0.97148 0.09537 0.0
C534 C 0.20683 0.93234 0.09115 0.0
C535 C 0.22472 0.90911 0.07896 0.0
C536 C 0.16828 0.91504 0.09872 0.0
C537 C 0.20668 0.99808 0.10817 0.0
C538 C 0.16859 0.9027 0.1144 0.0
C539 C 0.13489 0.87921 0.12054 0.0
C540 C 0.10069 0.86705 0.11103 0.0
C541 C 0.09899 0.88265 0.09573 0.0
C542 C 0.13244 0.90624 0.08965 0.0
H543 H 0.21869 0.03103 0.10779 0.0
H544 H 0.17169 0.99853 0.10738 0.0
H545 H 0.21539 0.98433 0.11958 0.0
H546 H 0.196 0.90879 0.12162 0.0
H547 H 0.13728 0.86776 0.13233 0.0
H548 H 0.24728 0.0722 0.28327 0.0
H549 H 0.275 0.02196 0.30205 0.0
H550 H 0.3681 0.11334 0.31684 0.0
H551 H 0.34047 0.164 0.29765 0.0
H552 H 0.40294 0.03736 0.30958 0.0
H553 H 0.2677 0.01028 0.34866 0.0
H554 H 0.25211 1.00475 0.32872 0.0
H555 H 0.27061 0.05508 0.33574 0.0
C556 C 0.27324 0.08185 0.29071 0.0
C557 C 0.29196 0.12184 0.28897 0.0
C558 C 0.2888 0.05323 0.30155 0.0
C559 C 0.32326 0.06398 0.31104 0.0
C560 C 0.34122 0.10452 0.30973 0.0
H561 H 0.42154 0.87487 0.37631 0.0
H562 H 0.38869 0.93836 0.36577 0.0
C563 C 0.32542 0.13344 0.29884 0.0
C564 C 0.34277 0.03102 0.32096 0.0
H565 H 0.31838 0.95338 0.34702 0.0
C566 C 0.38468 0.0195 0.31798 0.0
C567 C 0.31919 0.00794 0.33207 0.0
C568 C 0.27506 0.02047 0.3366 0.0
C569 C 0.40278 0.98411 0.32511 0.0
C570 C 0.37801 0.95905 0.33524 0.0
C571 C 0.33701 0.97203 0.33897 0.0
C572 C 0.39398 0.91884 0.34177 0.0
C573 C 0.44819 0.97366 0.3216 0.0
C574 C 0.40617 0.88599 0.33184 0.0
C575 C 0.42445 0.84944 0.33786 0.0
C576 C 0.43044 0.84481 0.35396 0.0
C577 C 0.41626 0.87689 0.36392 0.0
C578 C 0.39801 0.91349 0.35789 0.0
H579 H 0.46596 1.00183 0.31752 0.0
H580 H 0.46438 0.96068 0.332 0.0
H581 H 0.44919 0.94962 0.31225 0.0
H582 H 0.40245 0.88905 0.31937 0.0
H583 H 0.43508 0.82535 0.32988 0.0
H584 H 0.87766 1.00531 0.54364 0.0
H585 H 0.83201 0.03295 0.56414 0.0
H586 H 0.86799 0.15974 0.55174 0.0
H587 H 0.91259 0.1326 0.53096 0.0
H588 H 0.84102 0.09227 0.59036 0.0
H589 H 0.7392 0.1497 0.54213 0.0
H590 H 0.78122 0.11249 0.53909 0.0
H591 H 0.79312 0.16749 0.54163 0.0
C592 C 0.87645 0.03906 0.54547 0.0
C593 C 0.89834 0.06674 0.53551 0.0
C594 C 0.85056 0.05476 0.55724 0.0
C595 C 0.84616 0.09837 0.55926 0.0
C596 C 0.87069 0.12596 0.55024 0.0
H597 H 0.68642 0.23574 0.6241 0.0
H598 H 0.74739 0.20365 0.61146 0.0
C599 C 0.89649 0.11033 0.53845 0.0
C600 C 0.81217 0.11492 0.56931 0.0
H601 H 0.71764 0.16571 0.56758 0.0
C602 C 0.81407 0.10846 0.58544 0.0
C603 C 0.77675 0.13539 0.56278 0.0
C604 C 0.77204 0.14146 0.54545 0.0
C605 C 0.78149 0.1224 0.59524 0.0
C606 C 0.74643 0.14342 0.5887 0.0
C607 C 0.74461 0.14967 0.57257 0.0
C608 C 0.71056 0.15872 0.59814 0.0
C609 C 0.78432 0.11378 0.61244 0.0
C610 C 0.66966 0.14386 0.59498 0.0
C611 C 0.63475 0.16227 0.60207 0.0
C612 C 0.63996 0.19612 0.61248 0.0
C613 C 0.68119 0.2096 0.61622 0.0
C614 C 0.71616 0.19119 0.60904 0.0
H615 H 0.80816 0.0893 0.61515 0.0
H616 H 0.7936 0.14319 0.61857 0.0
H617 H 0.75326 0.10342 0.61707 0.0
H618 H 0.66464 0.11885 0.58659 0.0
H619 H 0.60358 0.1508 0.59899 0.0
H620 H 0.75463 0.12104 0.28032 0.0
H621 H 0.73235 0.07029 0.30012 0.0
H622 H 0.60204 0.09471 0.28897 0.0
H623 H 0.62405 0.14445 0.26878 0.0
H624 H 0.68004 0.07253 0.32645 0.0
H625 H 0.61459 0.96829 0.28034 0.0
H626 H 0.64779 0.01315 0.27605 0.0
H627 H 0.59297 0.02048 0.28058 0.0
C628 C 0.7212 0.11589 0.28217 0.0
C629 C 0.69115 0.13639 0.2728 0.0
C630 C 0.70852 0.08703 0.29355 0.0
C631 C 0.66557 0.07805 0.29578 0.0
C632 C 0.6354 0.10059 0.28722 0.0
H633 H 0.55273 0.9174 0.36664 0.0
H634 H 0.57927 0.97738 0.3518 0.0
C635 C 0.64804 0.12941 0.2758 0.0
C636 C 0.65268 0.04303 0.30624 0.0
H637 H 0.60434 0.94654 0.3063 0.0
C638 C 0.66342 0.04499 0.32207 0.0
C639 C 0.63172 0.00675 0.30045 0.0
C640 C 0.62138 1.00167 0.28341 0.0
C641 C 0.65327 0.01185 0.3323 0.0
C642 C 0.63139 0.97606 0.32655 0.0
C643 C 0.621 0.97403 0.31071 0.0
C644 C 0.61877 0.94018 0.33667 0.0
C645 C 0.66681 0.01504 0.34908 0.0
C646 C 0.6321 0.89916 0.33314 0.0
C647 C 0.61675 0.8646 0.34154 0.0
C648 C 0.58752 0.87028 0.35364 0.0
C649 C 0.57541 0.91165 0.3575 0.0
C650 C 0.59069 0.94617 0.34904 0.0
H651 H 0.69272 0.03841 0.35066 0.0
H652 H 0.63961 0.02538 0.35619 0.0
H653 H 0.67749 0.98404 0.35355 0.0
H654 H 0.6537 0.89378 0.32361 0.0
H655 H 0.62688 0.83334 0.33821 0.0
H656 H 0.68418 0.00887 0.032 0.0
H657 H 0.73115 0.96962 0.04918 0.0
H658 H 0.62709 0.8905 0.06339 0.0
H659 H 0.57943 0.93017 0.04606 0.0
H660 H 0.72144 0.95275 0.08329 0.0
H661 H 0.72389 0.81077 0.0451 0.0
H662 H 0.70852 0.86184 0.03783 0.0
H663 H 0.67374 0.83307 0.05039 0.0
C664 C 0.67124 0.98318 0.03882 0.0
C665 C 0.62835 0.97213 0.03759 0.0
C666 C 0.69804 0.96095 0.04867 0.0
C667 C 0.68263 0.92703 0.05742 0.0
C668 C 0.63953 0.91649 0.05661 0.0
H669 H 0.84941 0.79696 0.12342 0.0
H670 H 0.78695 0.82867 0.11161 0.0
C671 C 0.61241 0.93914 0.0468 0.0
C672 C 0.71271 0.90229 0.06687 0.0
H673 H 0.77129 0.81231 0.06615 0.0
C674 C 0.73186 0.9217 0.07975 0.0
C675 C 0.72651 0.86211 0.06203 0.0
C676 C 0.70739 0.84051 0.04805 0.0
C677 C 0.76532 0.90236 0.08771 0.0
C678 C 0.77983 0.86265 0.08263 0.0
C679 C 0.75995 0.84275 0.07 0.0
C680 C 0.81726 0.84249 0.08971 0.0
C681 C 0.78619 0.92529 0.10106 0.0
C682 C 0.85482 0.83933 0.0812 0.0
C683 C 0.89071 0.82134 0.0879 0.0
C684 C 0.88959 0.80581 0.10322 0.0
C685 C 0.85157 0.80862 0.11162 0.0
C686 C 0.8158 0.82682 0.10492 0.0
H687 H 0.77524 0.95837 0.10208 0.0
H688 H 0.7788 0.90869 0.11208 0.0
H689 H 0.82101 0.92539 0.09964 0.0
H690 H 0.85648 0.85125 0.06942 0.0
H691 H 0.91926 0.81954 0.08105 0.0
H692 H 0.72891 0.87871 0.81641 0.0
H693 H 0.7572 0.93372 0.83378 0.0
H694 H 0.84301 0.97376 0.79784 0.0
H695 H 0.81503 0.91909 0.78054 0.0
H696 H 0.84877 0.96142 0.843 0.0
H697 H 0.75725 0.07457 0.80721 0.0
H698 H 0.74557 0.01878 0.8076 0.0
H699 H 0.78941 0.03829 0.79648 0.0
C700 C 0.75491 0.89823 0.81246 0.0
C701 C 0.76977 0.89472 0.79713 0.0
C702 C 0.7708 0.92982 0.82234 0.0
C703 C 0.80169 0.95818 0.81699 0.0
C704 C 0.81888 0.95244 0.80214 0.0
H705 H 0.93319 0.18357 0.83564 0.0
H706 H 0.89404 0.12311 0.82577 0.0
C707 C 0.80306 0.92107 0.7923 0.0
C708 C 0.81326 0.99634 0.82607 0.0
H709 H 0.80775 0.10377 0.82465 0.0
C710 C 0.83933 0.99256 0.8392 0.0
C711 C 0.80064 0.03686 0.8211 0.0
C712 C 0.77138 0.04261 0.8074 0.0
C713 C 0.85508 0.02852 0.84695 0.0
C714 C 0.84386 0.06914 0.84153 0.0
C715 C 0.8163 0.07268 0.82881 0.0
C716 C 0.86412 0.10818 0.84767 0.0
C717 C 0.88538 0.02285 0.86032 0.0
C718 C 0.85899 0.12116 0.86317 0.0
C719 C 0.88129 0.15629 0.86889 0.0
C720 C 0.90935 0.17875 0.85925 0.0
C721 C 0.91224 0.167 0.8435 0.0
C722 C 0.8899 0.13223 0.83781 0.0
H723 H 0.89594 0.98967 0.8615 0.0
H724 H 0.91358 0.04338 0.85881 0.0
H725 H 0.86967 0.03214 0.8713 0.0
H726 H 0.83841 0.10371 0.8709 0.0
H727 H 0.87761 0.16502 0.88095 0.0
H728 H 0.82244 0.02518 0.49301 0.0
H729 H 0.77278 0.986 0.4768 0.0
H730 H 0.87461 0.91061 0.45901 0.0
H731 H 0.9249 0.94951 0.47561 0.0
H732 H 0.77181 0.97675 0.44424 0.0
H733 H 0.78688 0.82265 0.47468 0.0
H734 H 0.80554 0.87139 0.48315 0.0
H735 H 0.83476 0.84695 0.4678 0.0
C736 C 0.83436 0.99994 0.4858 0.0
C737 C 0.87758 0.98994 0.48583 0.0
C738 C 0.80591 0.97779 0.47643 0.0
C739 C 0.81982 0.94502 0.46683 0.0
C740 C 0.86308 0.93538 0.46651 0.0
H741 H 0.63741 0.83543 0.40003 0.0
H742 H 0.70268 0.86506 0.4109 0.0
C743 C 0.89179 0.95777 0.47591 0.0
C744 C 0.78836 0.92143 0.45732 0.0
H745 H 0.73669 0.82683 0.45458 0.0
C746 C 0.76449 0.94379 0.44633 0.0
C747 C 0.77863 0.87855 0.46018 0.0
C748 C 0.80249 0.85333 0.47215 0.0
C749 C 0.73037 0.92487 0.43847 0.0
C750 C 0.72012 0.88221 0.44153 0.0
C751 C 0.74474 0.85947 0.4522 0.0
C752 C 0.68184 0.86185 0.4348 0.0
C753 C 0.7043 0.95128 0.4275 0.0
C754 C 0.64888 0.84915 0.44463 0.0
C755 C 0.6116 0.83219 0.43848 0.0
C756 C 0.60646 0.82734 0.42232 0.0
C757 C 0.64006 0.83902 0.41251 0.0
C758 C 0.67739 0.8561 0.4187 0.0
H759 H 0.71148 0.98546 0.42867 0.0
H760 H 0.71107 0.9418 0.41535 0.0
H761 H 0.67009 0.94625 0.42962 0.0
H762 H 0.65166 0.85317 0.4571 0.0
H763 H 0.58668 0.82317 0.44642 0.0
H764 H 0.73389 0.14554 0.20402 0.0
H765 H 0.77472 0.09653 0.18801 0.0
H766 H 0.86364 0.0807 0.22552 0.0
H767 H 0.82312 0.12956 0.24156 0.0
H768 H 0.86696 0.08842 0.17928 0.0
H769 H 0.8044 0.96299 0.2181 0.0
H770 H 0.78171 0.015 0.21718 0.0
H771 H 0.82951 0.00633 0.22797 0.0
C772 C 0.76287 0.13262 0.20867 0.0
C773 C 0.77513 0.14099 0.2241 0.0
C774 C 0.78605 0.10456 0.19953 0.0
C775 C 0.82176 0.08462 0.20569 0.0
C776 C 0.83585 0.09547 0.22064 0.0
H777 H 0.98364 0.87841 0.18865 0.0
H778 H 0.94889 0.94309 0.19658 0.0
C779 C 0.81269 0.12331 0.22978 0.0
C780 C 0.84154 0.049 0.19738 0.0
H781 H 0.85801 0.94318 0.20047 0.0
C782 C 0.86479 0.05656 0.18378 0.0
C783 C 0.8381 0.00746 0.20321 0.0
C784 C 0.81179 0.9972 0.21734 0.0
C785 C 0.88641 0.02369 0.17627 0.0
C786 C 0.88424 0.98252 0.18251 0.0
C787 C 0.85979 0.97489 0.19578 0.0
C788 C 0.90903 0.947 0.17621 0.0
C789 C 0.91264 0.03327 0.16211 0.0
C790 C 0.89871 0.92817 0.16191 0.0
C791 C 0.91861 0.89082 0.15729 0.0
C792 C 0.94876 0.87167 0.16701 0.0
C793 C 0.9602 0.89189 0.18096 0.0
C794 C 0.9405 0.92903 0.18551 0.0
H795 H 0.91522 0.06766 0.15985 0.0
H796 H 0.94485 0.02014 0.16351 0.0
H797 H 0.89804 0.018 0.15179 0.0
H798 H 0.87408 0.94131 0.15467 0.0
H799 H 0.90901 0.87602 0.1465 0.0
H800 H 0.61848 0.10314 0.98836 0.0
H801 H 0.67077 0.11662 0.96812 0.0
H802 H 0.67863 0.98329 0.95892 0.0
H803 H 0.62642 0.96966 0.97926 0.0
H804 H 0.75422 0.01634 0.96633 0.0
H805 H 0.68127 0.11632 0.92125 0.0
H806 H 0.67169 0.13665 0.94035 0.0
H807 H 0.65029 0.08602 0.93491 0.0
C808 C 0.62996 0.07686 0.98158 0.0
C809 C 0.61843 0.03534 0.98544 0.0
C810 C 0.65996 0.08458 0.96998 0.0
C811 C 0.67862 0.05098 0.96191 0.0
C812 C 0.66469 0.00972 0.96495 0.0
H813 H 0.89633 0.12276 0.90223 0.0
H814 H 0.83374 0.0811 0.90982 0.0
C815 C 0.63481 1.00199 0.97656 0.0
C816 C 0.71691 0.05842 0.95228 0.0
H817 H 0.75751 0.12263 0.92409 0.0
C818 C 0.75465 0.03879 0.95682 0.0
C819 C 0.71766 0.08732 0.93975 0.0
C820 C 0.67792 0.10743 0.93367 0.0
C821 C 0.7934 0.04971 0.95001 0.0
C822 C 0.79459 0.08123 0.93843 0.0
C823 C 0.75658 0.09855 0.93303 0.0
C824 C 0.83491 0.10157 0.93381 0.0
C825 C 0.83314 0.0289 0.95578 0.0
C826 C 0.85659 0.12603 0.94481 0.0
C827 C 0.89144 0.15018 0.94047 0.0
C828 C 0.90568 0.15036 0.925 0.0
C829 C 0.88576 0.12362 0.91416 0.0
C830 C 0.85007 0.09988 0.91848 0.0
H831 H 0.8263 0.99769 0.96109 0.0
H832 H 0.85614 0.02473 0.94619 0.0
H833 H 0.84803 0.04915 0.96479 0.0
H834 H 0.84532 0.12799 0.95667 0.0
H835 H 0.90629 0.1701 0.94915 0.0
H836 H 0.6591 0.94654 0.76798 0.0
H837 H 0.63256 0.99797 0.74932 0.0
H838 H 0.6669 0.916 0.71152 0.0
H839 H 0.69403 0.86393 0.73034 0.0
H840 H 0.69294 0.03032 0.72436 0.0
H841 H 0.54026 0.96401 0.70287 0.0
H842 H 0.56017 0.95134 0.722 0.0
H843 H 0.58542 0.93011 0.70516 0.0
C844 C 0.66055 0.93915 0.75569 0.0
C845 C 0.67913 0.90148 0.75058 0.0
C846 C 0.64525 0.96851 0.74507 0.0
C847 C 0.64783 0.96083 0.72907 0.0
C848 C 0.66438 0.92233 0.72385 0.0
H849 H 0.58167 0.14889 0.65761 0.0
H850 H 0.60237 0.08251 0.67003 0.0
C851 C 0.67979 0.89266 0.73457 0.0
C852 C 0.63703 0.99531 0.71815 0.0
H853 H 0.5586 0.03265 0.69464 0.0
C854 C 0.66383 0.03063 0.71769 0.0
C855 C 0.59912 0.99551 0.70947 0.0
C856 C 0.56929 0.95837 0.70981 0.0
C857 C 0.65317 0.06669 0.70915 0.0
C858 C 0.61433 0.06777 0.70103 0.0
C859 C 0.58825 0.03179 0.70094 0.0
C860 C 0.59951 0.10702 0.69344 0.0
C861 C 0.6833 0.1037 0.70906 0.0
C862 C 0.59034 0.14253 0.70251 0.0
C863 C 0.57858 0.18042 0.6955 0.0
C864 C 0.57572 0.18372 0.67922 0.0
C865 C 0.58397 0.14769 0.67016 0.0
C866 C 0.59561 0.10964 0.67723 0.0
H867 H 0.71577 0.0942 0.71241 0.0
H868 H 0.68437 0.11871 0.69741 0.0
H869 H 0.67236 0.12758 0.71754 0.0
H870 H 0.59262 0.14099 0.71506 0.0
H871 H 0.57201 0.20722 0.70288 0.0
H872 H 0.63678 0.43655 0.98547 0.0
H873 H 0.6902 0.4332 0.96515 0.0
H874 H 0.70693 0.56805 0.96758 0.0
H875 H 0.65398 0.57141 0.98829 0.0
H876 H 0.70898 0.46773 0.93649 0.0
H877 H 0.82078 0.52556 0.98197 0.0
H878 H 0.76709 0.51121 0.98646 0.0
H879 H 0.77839 0.56013 0.97675 0.0
C880 C 0.65072 0.46569 0.98131 0.0
C881 C 0.64158 0.50418 0.98859 0.0
C882 C 0.68142 0.46374 0.96972 0.0
C883 C 0.70339 0.50024 0.96513 0.0
C884 C 0.69116 0.53935 0.97122 0.0
H885 H 0.91989 0.42347 0.9057 0.0
H886 H 0.86366 0.47241 0.91351 0.0
C887 C 0.66075 0.54127 0.98297 0.0
C888 C 0.74236 0.49582 0.95571 0.0
H889 H 0.8497 0.49723 0.9595 0.0
C890 C 0.73981 0.47516 0.94129 0.0
C891 C 0.78261 0.50553 0.96204 0.0
C892 C 0.78769 0.52658 0.97768 0.0
C893 C 0.77627 0.46106 0.93364 0.0
C894 C 0.81624 0.46824 0.94054 0.0
C895 C 0.81896 0.49204 0.95424 0.0
C896 C 0.8536 0.44326 0.93596 0.0
C897 C 0.77164 0.43542 0.91897 0.0
C898 C 0.86761 0.41199 0.9462 0.0
C899 C 0.8991 0.38417 0.94177 0.0
C900 C 0.91759 0.38689 0.92697 0.0
C901 C 0.90573 0.42013 0.91706 0.0
C902 C 0.87359 0.448 0.92149 0.0
H903 H 0.7381 0.4309 0.91554 0.0
H904 H 0.78837 0.45153 0.90931 0.0
H905 H 0.78627 0.40399 0.92055 0.0
H906 H 0.85284 0.4079 0.95745 0.0
H907 H 0.90792 0.35949 0.94984 0.0
H908 H 0.7051 0.38301 0.20527 0.0
H909 H 0.73425 0.44286 0.19058 0.0
H910 H 0.82127 0.46868 0.22804 0.0
H911 H 0.7924 0.40918 0.24269 0.0
H912 H 0.7666 0.53741 0.21913 0.0
H913 H 0.84991 0.46646 0.16862 0.0
H914 H 0.79741 0.44787 0.17291 0.0
H915 H 0.8396 0.43709 0.18622 0.0
C916 C 0.73139 0.40064 0.21012 0.0
C917 C 0.74644 0.39156 0.22513 0.0
C918 C 0.74789 0.43489 0.20175 0.0
C919 C 0.77985 0.46024 0.20825 0.0
C920 C 0.79653 0.4496 0.22284 0.0
H921 H 0.92814 0.67878 0.19752 0.0
H922 H 0.88451 0.61966 0.2058 0.0
C923 C 0.78009 0.41558 0.23118 0.0
C924 C 0.79339 0.50015 0.20075 0.0
H925 H 0.85125 0.54046 0.17073 0.0
C926 C 0.78479 0.53812 0.20846 0.0
C927 C 0.81652 0.50102 0.18673 0.0
C928 C 0.82674 0.46103 0.1781 0.0
C929 C 0.79999 0.57681 0.20285 0.0
C930 C 0.82511 0.57751 0.1893 0.0
C931 C 0.832 0.53982 0.18113 0.0
C932 C 0.84837 0.61606 0.18448 0.0
C933 C 0.78962 0.61656 0.21163 0.0
C934 C 0.84241 0.63401 0.16972 0.0
C935 C 0.86732 0.66828 0.16493 0.0
C936 C 0.89924 0.68451 0.1747 0.0
C937 C 0.90399 0.66718 0.18965 0.0
C938 C 0.87892 0.63336 0.19446 0.0
H939 H 0.76005 0.61287 0.21842 0.0
H940 H 0.81555 0.62371 0.21993 0.0
H941 H 0.78617 0.64379 0.20363 0.0
H942 H 0.81906 0.62101 0.16182 0.0
H943 H 0.86278 0.68081 0.15334 0.0
H944 H 0.90661 0.63467 0.49327 0.0
H945 H 0.85199 0.66029 0.47544 0.0
H946 H 0.82096 0.53217 0.46294 0.0
H947 H 0.87472 0.50648 0.48109 0.0
H948 H 0.828 0.6527 0.44436 0.0
H949 H 0.71321 0.57349 0.48345 0.0
H950 H 0.76833 0.57897 0.4883 0.0
H951 H 0.75112 0.5384 0.47509 0.0
C952 C 0.88911 0.61209 0.4863 0.0
C953 C 0.89464 0.56862 0.48859 0.0
C954 C 0.85775 0.62673 0.47619 0.0
C955 C 0.83164 0.59809 0.46818 0.0
C956 C 0.84005 0.55478 0.4693 0.0
H957 H 0.62901 0.66337 0.40314 0.0
H958 H 0.69538 0.63929 0.41462 0.0
C959 C 0.87099 0.54014 0.47953 0.0
C960 C 0.79303 0.61317 0.46012 0.0
H961 H 0.68546 0.60579 0.46098 0.0
C962 C 0.79681 0.64238 0.44793 0.0
C963 C 0.75228 0.60043 0.46506 0.0
C964 C 0.7458 0.57144 0.47878 0.0
C965 C 0.76094 0.65879 0.44044 0.0
C966 C 0.7203 0.64501 0.44508 0.0
C967 C 0.71662 0.61603 0.45733 0.0
C968 C 0.6809 0.66105 0.43783 0.0
C969 C 0.7668 0.69161 0.42793 0.0
C970 C 0.65027 0.68053 0.4471 0.0
C971 C 0.61209 0.6938 0.44063 0.0
C972 C 0.60362 0.68784 0.42472 0.0
C973 C 0.6345 0.66856 0.41542 0.0
C974 C 0.67265 0.65507 0.42194 0.0
H975 H 0.79854 0.7066 0.42855 0.0
H976 H 0.76356 0.67641 0.41637 0.0
H977 H 0.74252 0.71658 0.42883 0.0
H978 H 0.65589 0.68541 0.4594 0.0
H979 H 0.58928 0.70886 0.44813 0.0
H980 H 0.67068 0.65114 0.7437 0.0
H981 H 0.6618 0.59663 0.72383 0.0
H982 H 0.79696 0.58599 0.71986 0.0
H983 H 0.80595 0.63987 0.74005 0.0
H984 H 0.68638 0.58123 0.69368 0.0
H985 H 0.76371 0.469 0.73428 0.0
H986 H 0.74899 0.52145 0.74009 0.0
H987 H 0.79549 0.51333 0.72857 0.0
C988 C 0.69851 0.63814 0.73825 0.0
C989 C 0.73901 0.64956 0.74351 0.0
C990 C 0.69341 0.60677 0.72694 0.0
C991 C 0.7287 0.58635 0.72063 0.0
C992 C 0.76924 0.60043 0.72485 0.0
H993 H 0.66371 0.37992 0.65431 0.0
H994 H 0.70534 0.43973 0.66449 0.0
C995 C 0.77435 0.63147 0.73628 0.0
C996 C 0.72265 0.54798 0.71086 0.0
H997 H 0.73637 0.44114 0.71117 0.0
C998 C 0.69788 0.55066 0.69734 0.0
C999 C 0.73744 0.50798 0.71572 0.0
C1000 C 0.76259 0.50246 0.73051 0.0
C1001 C 0.68601 0.51437 0.68894 0.0
C1002 C 0.69982 0.47432 0.69407 0.0
C1003 C 0.72626 0.47188 0.70715 0.0
C1004 C 0.68098 0.43456 0.68792 0.0
C1005 C 0.6565 0.51891 0.67526 0.0
C1006 C 0.65563 0.4103 0.69784 0.0
C1007 C 0.63209 0.37656 0.69206 0.0
C1008 C 0.63332 0.36597 0.6762 0.0
C1009 C 0.66164 0.38771 0.66649 0.0
C1010 C 0.68517 0.42205 0.6723 0.0
H1011 H 0.64449 0.55157 0.67402 0.0
H1012 H 0.6734 0.51048 0.66443 0.0
H1013 H 0.62913 0.49714 0.67647 0.0
H1014 H 0.65211 0.41896 0.70995 0.0
H1015 H 0.61098 0.36009 0.69991 0.0
H1016 H 0.66286 0.59202 0.03578 0.0
H1017 H 0.71761 0.60976 0.05477 0.0
H1018 H 0.69933 0.48945 0.07714 0.0
H1019 H 0.64531 0.47091 0.05781 0.0
H1020 H 0.72178 0.61578 0.08665 0.0
H1021 H 0.82384 0.48615 0.0653 0.0
H1022 H 0.77676 0.50229 0.05515 0.0
H1023 H 0.77283 0.47035 0.07233 0.0
C1024 C 0.67013 0.5695 0.04485 0.0
C1025 C 0.64999 0.52986 0.04516 0.0
C1026 C 0.7014 0.57972 0.05574 0.0
C1027 C 0.71335 0.55057 0.06719 0.0
C1028 C 0.69133 0.51209 0.06821 0.0
H1029 H 0.90547 0.64181 0.13406 0.0
H1030 H 0.84374 0.60271 0.12458 0.0
C1031 C 0.65999 0.50178 0.05728 0.0
C1032 C 0.75043 0.55998 0.07733 0.0
H1033 H 0.85216 0.53017 0.08467 0.0
C1034 C 0.7501 0.59675 0.0864 0.0
C1035 C 0.7876 0.53537 0.07685 0.0
C1036 C 0.79067 0.49651 0.06681 0.0
C1037 C 0.78616 0.61029 0.09461 0.0
C1038 C 0.82349 0.58594 0.09399 0.0
C1039 C 0.82343 0.5485 0.0853 0.0
C1040 C 0.86413 0.6017 0.10059 0.0
C1041 C 0.78467 0.65183 0.10316 0.0
C1042 C 0.89762 0.61126 0.09053 0.0
C1043 C 0.9331 0.63323 0.09593 0.0
C1044 C 0.93589 0.64628 0.11155 0.0
C1045 C 0.90426 0.63281 0.12194 0.0
C1046 C 0.86866 0.61077 0.1165 0.0
H1047 H 0.75617 0.67033 0.10011 0.0
H1048 H 0.78414 0.64584 0.11586 0.0
H1049 H 0.81306 0.67121 0.10052 0.0
H1050 H 0.89515 0.60415 0.07825 0.0
H1051 H 0.95692 0.64252 0.08758 0.0
H1052 H 0.63884 0.4234 0.26121 0.0
H1053 H 0.61662 0.46129 0.28444 0.0
H1054 H 0.66719 0.36239 0.31328 0.0
H1055 H 0.68975 0.32404 0.28979 0.0
H1056 H 0.56414 0.43573 0.31062 0.0
H1057 H 0.73097 0.47387 0.32626 0.0
H1058 H 0.71663 0.45545 0.30711 0.0
H1059 H 0.7163 0.41957 0.3232 0.0
C1060 C 0.64478 0.4095 0.2725 0.0
C1061 C 0.66634 0.37112 0.27378 0.0
C1062 C 0.63196 0.43105 0.28574 0.0
C1063 C 0.64064 0.41483 0.30055 0.0
C1064 C 0.66053 0.37552 0.30192 0.0
H1065 H 0.5445 0.58025 0.37477 0.0
H1066 H 0.56624 0.51448 0.36246 0.0
C1067 C 0.67317 0.35362 0.28857 0.0
C1068 C 0.63111 0.44125 0.31425 0.0
H1069 H 0.67792 0.51114 0.33915 0.0
C1070 C 0.58886 0.45152 0.31718 0.0
C1071 C 0.6636 0.46195 0.32262 0.0
C1072 C 0.70952 0.4525 0.31969 0.0
C1073 C 0.57828 0.48374 0.32762 0.0
C1074 C 0.61094 0.5059 0.33543 0.0
C1075 C 0.65305 0.49397 0.33316 0.0
C1076 C 0.60234 0.54488 0.34431 0.0
C1077 C 0.53247 0.49573 0.3294 0.0
C1078 C 0.61713 0.58366 0.33861 0.0
C1079 C 0.60502 0.62135 0.34564 0.0
C1080 C 0.57784 0.62102 0.35854 0.0
C1081 C 0.56519 0.58187 0.36479 0.0
C1082 C 0.57736 0.54415 0.35773 0.0
H1083 H 0.51186 0.47978 0.32072 0.0
H1084 H 0.5214 0.48663 0.34116 0.0
H1085 H 0.52858 0.53033 0.32818 0.0
H1086 H 0.63662 0.58486 0.32829 0.0
H1087 H 0.61567 0.65074 0.34054 0.0
H1088 H 0.83297 0.54979 0.53521 0.0
H1089 H 0.78275 0.5198 0.55347 0.0
H1090 H 0.87625 0.43059 0.56881 0.0
H1091 H 0.92678 0.45987 0.5499 0.0
H1092 H 0.80256 0.39218 0.56282 0.0
H1093 H 0.7698 0.53041 0.5995 0.0
H1094 H 0.76258 0.54349 0.57942 0.0
H1095 H 0.81415 0.52878 0.5864 0.0
C1096 C 0.84303 0.52381 0.54248 0.0
C1097 C 0.88374 0.5068 0.54094 0.0
C1098 C 0.81438 0.5071 0.55312 0.0
C1099 C 0.82577 0.47337 0.56276 0.0
C1100 C 0.86681 0.45687 0.56158 0.0
H1101 H 0.63692 0.3795 0.62977 0.0
H1102 H 0.69937 0.41407 0.61865 0.0
C1103 C 0.8957 0.47366 0.55083 0.0
C1104 C 0.79332 0.45349 0.57294 0.0
H1105 H 0.71453 0.47706 0.59855 0.0
C1106 C 0.78381 0.41061 0.57083 0.0
C1107 C 0.76916 0.47718 0.58365 0.0
C1108 C 0.7798 0.52239 0.5875 0.0
C1109 C 0.74946 0.39146 0.5784 0.0
C1110 C 0.72303 0.41613 0.58802 0.0
C1111 C 0.73405 0.45834 0.59089 0.0
C1112 C 0.68336 0.39882 0.59482 0.0
C1113 C 0.74184 0.34492 0.57595 0.0
C1114 C 0.65245 0.38075 0.58515 0.0
C1115 C 0.6171 0.36072 0.59151 0.0
C1116 C 0.61141 0.35892 0.60771 0.0
C1117 C 0.64061 0.38004 0.61731 0.0
C1118 C 0.67637 0.39968 0.61094 0.0
H1119 H 0.77147 0.32843 0.57281 0.0
H1120 H 0.72849 0.32985 0.58651 0.0
H1121 H 0.71921 0.34046 0.56622 0.0
H1122 H 0.65623 0.38108 0.57264 0.0
H1123 H 0.59495 0.34535 0.58371 0.0
H1124 H 0.72655 0.6465 0.81197 0.0
H1125 H 0.75067 0.59243 0.83031 0.0
H1126 H 0.86898 0.58458 0.80588 0.0
H1127 H 0.84501 0.63847 0.78754 0.0
H1128 H 0.77359 0.50941 0.81955 0.0
H1129 H 0.90346 0.58607 0.85263 0.0
H1130 H 0.86304 0.6157 0.84266 0.0
H1131 H 0.90614 0.5935 0.83195 0.0
C1132 C 0.75823 0.63425 0.81084 0.0
C1133 C 0.78402 0.64686 0.79838 0.0
C1134 C 0.77183 0.60314 0.82124 0.0
C1135 C 0.81169 0.58464 0.81951 0.0
C1136 C 0.83834 0.59882 0.80757 0.0
H1137 H 0.926 0.34944 0.83678 0.0
H1138 H 0.88744 0.41038 0.82702 0.0
C1139 C 0.82461 0.62954 0.79709 0.0
C1140 C 0.82388 0.54754 0.82902 0.0
H1141 H 0.90064 0.51066 0.85335 0.0
C1142 C 0.80095 0.50985 0.82714 0.0
C1143 C 0.85946 0.54817 0.83897 0.0
C1144 C 0.88431 0.5881 0.84182 0.0
C1145 C 0.81394 0.47231 0.83434 0.0
C1146 C 0.85072 0.4725 0.84366 0.0
C1147 C 0.87247 0.51059 0.84617 0.0
C1148 C 0.86929 0.43294 0.84973 0.0
C1149 C 0.7889 0.43241 0.83166 0.0
C1150 C 0.87106 0.42486 0.86576 0.0
C1151 C 0.89266 0.38954 0.8714 0.0
C1152 C 0.91378 0.36234 0.86114 0.0
C1153 C 0.9103 0.36972 0.84505 0.0
C1154 C 0.88824 0.40458 0.83943 0.0
H1155 H 0.75672 0.43909 0.82716 0.0
H1156 H 0.80548 0.41264 0.82299 0.0
H1157 H 0.78619 0.41395 0.84258 0.0
H1158 H 0.85659 0.44639 0.87391 0.0
H1159 H 0.89446 0.38466 0.88383 0.0
H1160 H 0.34984 0.47802 0.04103 0.0
H1161 H 0.30662 0.52232 0.05776 0.0
H1162 H 0.40304 0.61881 0.05711 0.0
H1163 H 0.44651 0.57444 0.04004 0.0
H1164 H 0.32227 0.56003 0.08711 0.0
H1165 H 0.29575 0.67791 0.04014 0.0
H1166 H 0.31726 0.62642 0.03629 0.0
H1167 H 0.34961 0.66636 0.04515 0.0
C1168 C 0.36195 0.50862 0.0445 0.0
C1169 C 0.40121 0.52313 0.03905 0.0
C1170 C 0.33734 0.53378 0.05413 0.0
C1171 C 0.35134 0.57406 0.05849 0.0
C1172 C 0.39143 0.58801 0.05369 0.0
H1173 H 0.19285 0.72174 0.12232 0.0
H1174 H 0.25447 0.68852 0.11058 0.0
C1175 C 0.41631 0.56261 0.04405 0.0
C1176 C 0.32246 0.60163 0.06736 0.0
H1177 H 0.25816 0.68701 0.06335 0.0
C1178 C 0.30869 0.5882 0.08205 0.0
C1179 C 0.30447 0.63802 0.0606 0.0
C1180 C 0.31716 0.6531 0.04464 0.0
C1181 C 0.27649 0.60947 0.08998 0.0
C1182 C 0.25793 0.64536 0.08308 0.0
C1183 C 0.27259 0.65954 0.06861 0.0
C1184 C 0.22112 0.66668 0.09012 0.0
C1185 C 0.26117 0.59221 0.10532 0.0
C1186 C 0.18212 0.66615 0.08237 0.0
C1187 C 0.14682 0.68517 0.089 0.0
C1188 C 0.1498 0.70537 0.10352 0.0
C1189 C 0.1892 0.70633 0.11116 0.0
C1190 C 0.22451 0.68722 0.10451 0.0
H1191 H 0.27332 0.56002 0.10762 0.0
H1192 H 0.27212 0.61316 0.11485 0.0
H1193 H 0.22614 0.5912 0.10562 0.0
H1194 H 0.17888 0.6505 0.07123 0.0
H1195 H 0.11717 0.68388 0.08272 0.0
H1196 H 0.26899 0.58813 0.78458 0.0
H1197 H 0.23529 0.54262 0.80369 0.0
H1198 H 0.1723 0.65001 0.82354 0.0
H1199 H 0.20513 0.696 0.8039 0.0
H1200 H 0.23842 0.54346 0.83581 0.0
H1201 H 0.07468 0.5686 0.8141 0.0
H1202 H 0.12047 0.58483 0.80315 0.0
H1203 H 0.10388 0.61493 0.81969 0.0
C1204 C 0.24758 0.60213 0.79288 0.0
C1205 C 0.23894 0.64555 0.79251 0.0
C1206 C 0.22869 0.57609 0.80391 0.0
C1207 C 0.20081 0.59278 0.81489 0.0
C1208 C 0.19314 0.63638 0.81497 0.0
H1209 H 0.04583 0.43531 0.87667 0.0
H1210 H 0.08257 0.49684 0.86609 0.0
C1211 C 0.21211 0.66263 0.80385 0.0
C1212 C 0.17945 0.56365 0.82586 0.0
H1213 H 0.08379 0.51872 0.83393 0.0
C1214 C 0.20453 0.53841 0.83556 0.0
C1215 C 0.13523 0.55716 0.82552 0.0
C1216 C 0.10685 0.58251 0.815 0.0
C1217 C 0.18678 0.5059 0.8445 0.0
C1218 C 0.14289 0.49819 0.8436 0.0
C1219 C 0.11749 0.52472 0.83454 0.0
C1220 C 0.12312 0.46084 0.85098 0.0
C1221 C 0.2152 0.47954 0.85464 0.0
C1222 C 0.13383 0.4202 0.84598 0.0
C1223 C 0.11281 0.3849 0.85193 0.0
C1224 C 0.08058 0.38956 0.863 0.0
C1225 C 0.0706 0.4304 0.86822 0.0
C1226 C 0.09148 0.46569 0.86218 0.0
H1227 H 0.2451 0.49639 0.85744 0.0
H1228 H 0.19922 0.47075 0.86565 0.0
H1229 H 0.22331 0.45011 0.84838 0.0
H1230 H 0.15769 0.41584 0.83714 0.0
H1231 H 0.12136 0.35404 0.84762 0.0
H1232 H 0.10666 0.46556 0.55549 0.0
H1233 H 0.15925 0.44215 0.57472 0.0
H1234 H 0.25627 0.51033 0.55001 0.0
H1235 H 0.20422 0.53458 0.53127 0.0
H1236 H 0.22639 0.39333 0.56892 0.0
H1237 H 0.28443 0.54286 0.59388 0.0
H1238 H 0.23609 0.53957 0.58277 0.0
H1239 H 0.28622 0.54484 0.57308 0.0
C1240 C 0.13907 0.47614 0.5544 0.0
C1241 C 0.15141 0.50144 0.54178 0.0
C1242 C 0.16908 0.46274 0.56535 0.0
C1243 C 0.21168 0.47499 0.56396 0.0
C1244 C 0.22357 0.50124 0.5516 0.0
H1245 H 0.43678 0.34146 0.58281 0.0
H1246 H 0.37498 0.37798 0.57272 0.0
C1247 C 0.19381 0.51455 0.54073 0.0
C1248 C 0.24481 0.45716 0.57428 0.0
H1249 H 0.33348 0.4841 0.59482 0.0
C1250 C 0.2493 0.41322 0.57483 0.0
C1251 C 0.2745 0.48294 0.58221 0.0
C1252 C 0.26977 0.53015 0.5831 0.0
C1253 C 0.28399 0.39454 0.58224 0.0
C1254 C 0.31558 0.4205 0.58897 0.0
C1255 C 0.30975 0.46428 0.58934 0.0
C1256 C 0.35555 0.40255 0.59501 0.0
C1257 C 0.28676 0.34711 0.58259 0.0
C1258 C 0.36647 0.4062 0.61077 0.0
C1259 C 0.40214 0.38553 0.61661 0.0
C1260 C 0.42754 0.36098 0.60674 0.0
C1261 C 0.41784 0.35975 0.59078 0.0
C1262 C 0.38231 0.38037 0.58499 0.0
H1263 H 0.25501 0.33237 0.5815 0.0
H1264 H 0.30614 0.33628 0.57265 0.0
H1265 H 0.30169 0.33584 0.5935 0.0
H1266 H 0.34645 0.42352 0.61868 0.0
H1267 H 0.40852 0.38708 0.62896 0.0
H1268 H 0.35596 0.3949 0.27488 0.0
H1269 H 0.38104 0.44742 0.29364 0.0
H1270 H 0.27649 0.41761 0.32374 0.0
H1271 H 0.25119 0.36496 0.30493 0.0
H1272 H 0.28374 0.50423 0.31576 0.0
H1273 H 0.43674 0.4422 0.33692 0.0
H1274 H 0.43119 0.44134 0.31615 0.0
H1275 H 0.39716 0.40897 0.3279 0.0
C1276 C 0.33904 0.39867 0.28572 0.0
C1277 C 0.30177 0.37562 0.28848 0.0
C1278 C 0.35344 0.42865 0.29645 0.0
C1279 C 0.33082 0.43633 0.31016 0.0
C1280 C 0.29461 0.41203 0.31329 0.0
H1281 H 0.40543 0.6326 0.37785 0.0
H1282 H 0.37083 0.56955 0.36698 0.0
C1283 C 0.28039 0.38169 0.3026 0.0
C1284 C 0.34254 0.47267 0.32027 0.0
H1285 H 0.42439 0.51587 0.3409 0.0
C1286 C 0.31419 0.50644 0.32149 0.0
C1287 C 0.38232 0.47565 0.32773 0.0
C1288 C 0.41351 0.43996 0.32726 0.0
C1289 C 0.32534 0.54374 0.32937 0.0
C1290 C 0.36565 0.54727 0.33627 0.0
C1291 C 0.39339 0.51298 0.33561 0.0
C1292 C 0.38106 0.58754 0.34303 0.0
C1293 C 0.2946 0.57979 0.32989 0.0
C1294 C 0.39703 0.61896 0.33319 0.0
C1295 C 0.41701 0.65462 0.33938 0.0
C1296 C 0.4213 0.65972 0.35556 0.0
C1297 C 0.40262 0.62956 0.3654 0.0
C1298 C 0.38307 0.59347 0.35919 0.0
H1299 H 0.26269 0.57035 0.32574 0.0
H1300 H 0.2921 0.59211 0.34193 0.0
H1301 H 0.30642 0.60584 0.32244 0.0
H1302 H 0.39573 0.61497 0.32069 0.0
H1303 H 0.43091 0.67724 0.33144 0.0
H1304 H 0.42028 0.37237 0.9934 0.0
H1305 H 0.36939 0.34012 0.97541 0.0
H1306 H 0.31041 0.46104 0.96882 0.0
H1307 H 0.36254 0.49364 0.98578 0.0
H1308 H 0.28946 0.33068 0.97882 0.0
H1309 H 0.30894 0.42323 0.92534 0.0
H1310 H 0.34681 0.42611 0.941 0.0
H1311 H 0.3004 0.4589 0.94111 0.0
C1312 C 0.39741 0.39232 0.98767 0.0
C1313 C 0.39549 0.43564 0.99113 0.0
C1314 C 0.36799 0.37375 0.97749 0.0
C1315 C 0.33608 0.39807 0.97054 0.0
C1316 C 0.33515 0.44154 0.97361 0.0
H1317 H 0.08025 0.33416 0.95177 0.0
H1318 H 0.1504 0.34801 0.96241 0.0
C1319 C 0.36476 0.46013 0.98356 0.0
C1320 C 0.30131 0.37797 0.96133 0.0
H1321 H 0.23858 0.39342 0.92949 0.0
C1322 C 0.27891 0.34396 0.96788 0.0
C1323 C 0.28782 0.39413 0.94679 0.0
C1324 C 0.31267 0.42726 0.9381 0.0
C1325 C 0.24201 0.32785 0.96089 0.0
C1326 C 0.22602 0.34727 0.94729 0.0
C1327 C 0.25002 0.37916 0.94014 0.0
C1328 C 0.18349 0.33688 0.94082 0.0
C1329 C 0.22049 0.2903 0.96824 0.0
C1330 C 0.17826 0.32715 0.92499 0.0
C1331 C 0.13791 0.32003 0.91878 0.0
C1332 C 0.10184 0.32249 0.92826 0.0
C1333 C 0.10723 0.33197 0.94411 0.0
C1334 C 0.14749 0.33944 0.95027 0.0
H1335 H 0.24377 0.2697 0.97417 0.0
H1336 H 0.19789 0.30145 0.97715 0.0
H1337 H 0.20297 0.27116 0.95954 0.0
H1338 H 0.20544 0.32511 0.91743 0.0
H1339 H 0.13504 0.31237 0.90656 0.0
H1340 H 0.35924 0.66662 0.73884 0.0
H1341 H 0.37508 0.61544 0.71852 0.0
H1342 H 0.24289 0.584 0.71474 0.0
H1343 H 0.22663 0.63611 0.73477 0.0
H1344 H 0.35649 0.5318 0.72478 0.0
H1345 H 0.28204 0.58065 0.66919 0.0
H1346 H 0.29296 0.61727 0.6848 0.0
H1347 H 0.24805 0.58262 0.68587 0.0
C1348 C 0.33331 0.65021 0.73323 0.0
C1349 C 0.29169 0.65521 0.7385 0.0
C1350 C 0.34246 0.62069 0.72168 0.0
C1351 C 0.31019 0.59585 0.71512 0.0
C1352 C 0.26824 0.60314 0.71948 0.0
H1353 H 0.36043 0.33995 0.68393 0.0
H1354 H 0.32237 0.40114 0.6943 0.0
C1355 C 0.25904 0.63272 0.73102 0.0
C1356 C 0.32113 0.55821 0.70577 0.0
H1357 H 0.30797 0.51036 0.67048 0.0
C1358 C 0.34592 0.52719 0.7129 0.0
C1359 C 0.30715 0.5522 0.6903 0.0
C1360 C 0.28135 0.58506 0.682 0.0
C1361 C 0.35736 0.49043 0.70499 0.0
C1362 C 0.34298 0.48404 0.68959 0.0
C1363 C 0.31826 0.51506 0.68238 0.0
C1364 C 0.35686 0.44689 0.68056 0.0
C1365 C 0.38573 0.45917 0.71307 0.0
C1366 C 0.38692 0.4523 0.66879 0.0
C1367 C 0.40838 0.41752 0.66287 0.0
C1368 C 0.39962 0.37688 0.66848 0.0
C1369 C 0.36704 0.371 0.67927 0.0
C1370 C 0.34559 0.40589 0.68524 0.0
H1371 H 0.40025 0.47251 0.72377 0.0
H1372 H 0.36696 0.43098 0.71642 0.0
H1373 H 0.41135 0.44874 0.7052 0.0
H1374 H 0.39621 0.48364 0.66509 0.0
H1375 H 0.434 0.42268 0.65476 0.0
H1376 H 0.12499 0.59934 0.48467 0.0
H1377 H 0.17709 0.60805 0.46402 0.0
H1378 H 0.19753 0.47378 0.46346 0.0
H1379 H 0.14579 0.46511 0.48431 0.0
H1380 H 0.2688 0.51516 0.46912 0.0
H1381 H 0.19339 0.58904 0.41817 0.0
H1382 H 0.1805 0.61692 0.43563 0.0
H1383 H 0.16318 0.56311 0.43322 0.0
C1384 C 0.13914 0.57151 0.47964 0.0
C1385 C 0.13136 0.53156 0.48611 0.0
C1386 C 0.16903 0.57649 0.46781 0.0
C1387 C 0.19128 0.54155 0.46209 0.0
C1388 C 0.18082 0.5012 0.46764 0.0
H1389 H 0.41168 0.60477 0.40217 0.0
H1390 H 0.35045 0.56275 0.41085 0.0
C1391 C 0.15113 0.49625 0.47952 0.0
C1392 C 0.22989 0.54799 0.45251 0.0
H1393 H 0.26863 0.60355 0.42159 0.0
C1394 C 0.26852 0.53352 0.45849 0.0
C1395 C 0.22984 0.57157 0.43854 0.0
C1396 C 0.18939 0.58564 0.43094 0.0
C1397 C 0.30707 0.54476 0.4516 0.0
C1398 C 0.30714 0.57144 0.43846 0.0
C1399 C 0.26855 0.58324 0.43174 0.0
C1400 C 0.34632 0.59306 0.43332 0.0
C1401 C 0.34763 0.52979 0.45889 0.0
C1402 C 0.36457 0.62329 0.44314 0.0
C1403 C 0.39862 0.6476 0.43813 0.0
C1404 C 0.41551 0.64235 0.42313 0.0
C1405 C 0.39892 0.61018 0.41362 0.0
C1406 C 0.36403 0.58613 0.41858 0.0
H1407 H 0.34261 0.50058 0.46578 0.0
H1408 H 0.37195 0.52374 0.4499 0.0
H1409 H 0.35991 0.55453 0.46685 0.0
H1410 H 0.35137 0.62924 0.45453 0.0
H1411 H 0.41088 0.67161 0.4459 0.0
H1412 H 0.23442 0.33214 0.21927 0.0
H1413 H 0.2089 0.3777 0.19809 0.0
H1414 H 0.20147 0.48209 0.22997 0.0
H1415 H 0.22521 0.43723 0.25106 0.0
H1416 H 0.12972 0.42773 0.19775 0.0
H1417 H 0.27335 0.52682 0.19252 0.0
H1418 H 0.27391 0.47473 0.20104 0.0
H1419 H 0.25675 0.51923 0.21227 0.0
C1420 C 0.2273 0.3648 0.22174 0.0
C1421 C 0.23282 0.38113 0.23684 0.0
C1422 C 0.21293 0.39078 0.20962 0.0
C1423 C 0.20425 0.43348 0.21241 0.0
C1424 C 0.20907 0.44953 0.22747 0.0
H1425 H 0.05126 0.6312 0.18747 0.0
H1426 H 0.08311 0.56484 0.19515 0.0
C1427 C 0.22295 0.42374 0.23952 0.0
C1428 C 0.18838 0.46177 0.2 0.0
H1429 H 0.20822 0.55808 0.18383 0.0
C1430 C 0.14722 0.45571 0.19436 0.0
C1431 C 0.21142 0.49797 0.1954 0.0
C1432 C 0.25649 0.50497 0.20049 0.0
C1433 C 0.1273 0.4867 0.1853 0.0
C1434 C 0.14899 0.52478 0.18197 0.0
C1435 C 0.19139 0.52911 0.18648 0.0
C1436 C 0.12681 0.56252 0.1759 0.0
C1437 C 0.08261 0.47908 0.17988 0.0
C1438 C 0.14091 0.58369 0.16251 0.0
C1439 C 0.12265 0.62207 0.15804 0.0
C1440 C 0.09061 0.64025 0.16709 0.0
C1441 C 0.07602 0.61832 0.18026 0.0
C1442 C 0.09392 0.58001 0.1846 0.0
H1443 H 0.07608 0.44486 0.17843 0.0
H1444 H 0.06044 0.4913 0.18875 0.0
H1445 H 0.07621 0.49537 0.1687 0.0
H1446 H 0.1666 0.57098 0.15572 0.0
H1447 H 0.13474 0.63825 0.14788 0.0
loop_
_geom_bond_atom_site_label_1
_geom_bond_atom_site_label_2
_geom_bond_distance
_geom_bond_site_symmetry_2
_ccdc_geom_bond_type
H0 C8 0.930 . S
H1 C11 0.930 . S
H2 C13 0.930 . S
H3 C14 0.970 . S
H4 C14 0.970 . S
H5 C16 0.930 . S
H6 C18 0.934 . S
H7 C20 0.930 . S
C8 H0 0.930 . S
C8 C9 1.382 . S
C8 C10 1.426 . S
C9 C8 1.382 . S
C9 C13 1.389 . S
C10 C8 1.426 . S
C10 C11 1.375 . S
C10 C14 1.532 1_655 S
C11 H1 0.930 . S
C11 C10 1.375 . S
C11 C12 1.416 . S
C12 C11 1.416 . S
C12 C13 1.371 . S
C13 H2 0.930 . S
C13 C9 1.389 . S
C13 C12 1.371 . S
C14 H3 0.970 . S
C14 H4 0.970 . S
C14 C10 1.532 1_455 S
C14 C15 1.499 . S
C15 C14 1.499 . S
C15 C16 1.370 . S
C15 C20 1.415 . S
C16 H5 0.930 . S
C16 C15 1.370 . S
C16 C17 1.406 1_545 S
C17 C16 1.406 1_565 S
C17 C18 1.364 1_565 S
C18 H6 0.934 . S
C18 C17 1.364 1_545 S
C18 C19 1.393 . S
C19 C18 1.393 . S
C19 C20 1.387 . S
C20 H7 0.930 . S
C20 C15 1.415 . S
C20 C19 1.387 . S
H21 C29 0.930 . S
H22 C32 0.930 . S
H23 C34 0.930 . S
H24 C35 0.970 . S
H25 C35 0.970 . S
H26 C37 0.930 . S
H27 C39 0.930 . S
H28 C41 0.930 . S
C29 H21 0.930 . S
C29 C30 1.382 . S
C29 C31 1.426 . S
C30 C29 1.382 . S
C30 C34 1.389 . S
C31 C29 1.426 . S
C31 C32 1.375 . S
C31 C35 1.532 . S
C32 H22 0.930 . S
C32 C31 1.375 . S
C32 C33 1.416 . S
C33 C32 1.416 . S
C33 C34 1.371 . S
C34 H23 0.930 . S
C34 C30 1.389 . S
C34 C33 1.371 . S
C35 H24 0.970 . S
C35 H25 0.970 . S
C35 C31 1.532 . S
C35 C36 1.499 . S
C36 C35 1.499 . S
C36 C37 1.370 . S
C36 C41 1.415 . S
C37 H26 0.930 . S
C37 C36 1.370 . S
C37 C38 1.407 . S
C38 C37 1.407 . S
C38 C39 1.365 . S
C39 H27 0.930 . S
C39 C38 1.365 . S
C39 C40 1.393 . S
C40 C39 1.393 . S
C40 C41 1.387 . S
C41 H28 0.930 . S
C41 C36 1.415 . S
C41 C40 1.387 . S
H42 C50 0.930 1_565 S
H43 C53 0.930 . S
H44 C55 0.930 . S
H45 C56 0.970 . S
H46 C56 0.970 . S
H47 C58 0.930 1_565 S
H48 C60 0.930 . S
H49 C62 0.930 . S
C50 H42 0.930 1_545 S
C50 C51 1.382 1_545 S
C50 C52 1.426 . S
C51 C50 1.382 1_565 S
C51 C55 1.389 . S
C52 C50 1.426 . S
C52 C53 1.375 . S
C52 C56 1.532 . S
C53 H43 0.930 . S
C53 C52 1.375 . S
C53 C54 1.416 . S
C54 C53 1.416 . S
C54 C55 1.371 1_545 S
C55 H44 0.930 . S
C55 C51 1.389 . S
C55 C54 1.371 1_565 S
C56 H45 0.970 . S
C56 H46 0.970 . S
C56 C52 1.532 . S
C56 C57 1.499 . S
C57 C56 1.499 . S
C57 C58 1.370 . S
C57 C62 1.415 . S
C58 H47 0.930 1_545 S
C58 C57 1.370 . S
C58 C59 1.407 1_545 S
C59 C58 1.407 1_565 S
C59 C60 1.365 . S
C60 H48 0.930 . S
C60 C59 1.365 . S
C60 C61 1.393 1_565 S
C61 C60 1.393 1_545 S
C61 C62 1.387 . S
C62 H49 0.930 . S
C62 C57 1.415 . S
C62 C61 1.387 . S
H63 C71 0.930 . S
H64 C74 0.930 . S
H65 C76 0.930 . S
H66 C77 0.970 . S
H67 C77 0.970 . S
H68 C79 0.930 . S
H69 C81 0.930 . S
H70 C83 0.930 . S
C71 H63 0.930 . S
C71 C72 1.382 . S
C71 C73 1.426 . S
C72 C71 1.382 . S
C72 C76 1.389 . S
C73 C71 1.426 . S
C73 C74 1.375 . S
C73 C77 1.532 . S
C74 H64 0.930 . S
C74 C73 1.375 . S
C74 C75 1.416 . S
C75 C74 1.416 . S
C75 C76 1.371 . S
C76 H65 0.930 . S
C76 C72 1.389 . S
C76 C75 1.371 . S
C77 H66 0.970 . S
C77 H67 0.970 . S
C77 C73 1.532 . S
C77 C78 1.499 . S
C78 C77 1.499 . S
C78 C79 1.370 . S
C78 C83 1.415 . S
C79 H68 0.930 . S
C79 C78 1.370 . S
C79 C80 1.407 . S
C80 C79 1.407 . S
C80 C81 1.365 . S
C81 H69 0.930 . S
C81 C80 1.365 . S
C81 C82 1.393 . S
C82 C81 1.393 . S
C82 C83 1.387 . S
C83 H70 0.930 . S
C83 C78 1.415 . S
C83 C82 1.387 . S
H84 C92 0.930 . S
H85 C95 0.930 . S
H86 C97 0.930 . S
H87 C98 0.970 . S
H88 C98 0.970 . S
H89 C100 0.930 . S
H90 C102 0.930 . S
H91 C104 0.930 . S
C92 H84 0.930 . S
C92 C93 1.382 . S
C92 C94 1.426 . S
C93 C92 1.382 . S
C93 C97 1.389 . S
C94 C92 1.426 . S
C94 C95 1.375 . S
C94 C98 1.532 . S
C95 H85 0.930 . S
C95 C94 1.375 . S
C95 C96 1.416 . S
C96 C95 1.416 . S
C96 C97 1.371 . S
C97 H86 0.930 . S
C97 C93 1.389 . S
C97 C96 1.371 . S
C98 H87 0.970 . S
C98 H88 0.970 . S
C98 C94 1.532 . S
C98 C99 1.499 . S
C99 C98 1.499 . S
C99 C100 1.370 . S
C99 C104 1.415 . S
C100 H89 0.930 . S
C100 C99 1.370 . S
C100 C101 1.407 . S
C101 C100 1.407 . S
C101 C102 1.365 . S
C102 H90 0.930 . S
C102 C101 1.365 . S
C102 C103 1.393 . S
C103 C102 1.393 . S
C103 C104 1.387 . S
C104 H91 0.930 . S
C104 C99 1.415 . S
C104 C103 1.387 . S
H105 C113 0.930 . S
H106 C116 0.930 . S
H107 C118 0.930 . S
H108 C119 0.970 . S
H109 C119 0.970 . S
H110 C121 0.930 . S
H111 C123 0.930 . S
H112 C125 0.930 . S
C113 H105 0.930 . S
C113 C114 1.382 . S
C113 C115 1.426 . S
C114 C113 1.382 . S
C114 C118 1.389 . S
C115 C113 1.426 . S
C115 C116 1.375 . S
C115 C119 1.532 . S
C116 H106 0.930 . S
C116 C115 1.375 . S
C116 C117 1.416 . S
C117 C116 1.416 . S
C117 C118 1.371 . S
C118 H107 0.930 . S
C118 C114 1.389 . S
C118 C117 1.371 . S
C119 H108 0.970 . S
C119 H109 0.970 . S
C119 C115 1.532 . S
C119 C120 1.499 . S
C120 C119 1.499 . S
C120 C121 1.370 . S
C120 C125 1.415 . S
C121 H110 0.930 . S
C121 C120 1.370 . S
C121 C122 1.407 . S
C122 C121 1.407 . S
C122 C123 1.365 . S
C123 H111 0.930 . S
C123 C122 1.365 . S
C123 C124 1.393 . S
C124 C123 1.393 . S
C124 C125 1.387 . S
C125 H112 0.930 . S
C125 C120 1.415 . S
C125 C124 1.387 . S
H126 C134 0.930 . S
H127 C137 0.930 . S
H128 C139 0.930 . S
H129 C140 0.970 . S
H130 C140 0.970 . S
H131 C142 0.930 . S
H132 C144 0.930 . S
H133 C146 0.930 . S
C134 H126 0.930 . S
C134 C135 1.382 . S
C134 C136 1.426 . S
C135 C134 1.382 . S
C135 C139 1.389 . S
C136 C134 1.426 . S
C136 C137 1.375 . S
C136 C140 1.532 . S
C137 H127 0.930 . S
C137 C136 1.375 . S
C137 C138 1.416 . S
C138 C137 1.416 . S
C138 C139 1.371 . S
C139 H128 0.930 . S
C139 C135 1.389 . S
C139 C138 1.371 . S
C140 H129 0.970 . S
C140 H130 0.970 . S
C140 C136 1.532 . S
C140 C141 1.499 . S
C141 C140 1.499 . S
C141 C142 1.370 . S
C141 C146 1.415 . S
C142 H131 0.930 . S
C142 C141 1.370 . S
C142 C143 1.407 . S
C143 C142 1.407 . S
C143 C144 1.365 . S
C144 H132 0.930 . S
C144 C143 1.365 . S
C144 C145 1.393 . S
C145 C144 1.393 . S
C145 C146 1.387 . S
C146 H133 0.930 . S
C146 C141 1.415 . S
C146 C145 1.387 . S
H147 C155 0.930 . S
H148 C158 0.930 . S
H149 C160 0.930 . S
H150 C161 0.971 . S
H151 C161 0.970 . S
H152 C163 0.930 . S
H153 C165 0.930 . S
H154 C167 0.930 . S
C155 H147 0.930 . S
C155 C156 1.382 . S
C155 C157 1.426 . S
C156 C155 1.382 . S
C156 C160 1.389 . S
C157 C155 1.426 . S
C157 C158 1.375 . S
C157 C161 1.532 . S
C158 H148 0.930 . S
C158 C157 1.375 . S
C158 C159 1.416 . S
C159 C158 1.416 . S
C159 C160 1.371 . S
C160 H149 0.930 . S
C160 C156 1.389 . S
C160 C159 1.371 . S
C161 H150 0.971 . S
C161 H151 0.970 . S
C161 C157 1.532 . S
C161 C162 1.499 1_455 S
C162 C161 1.499 1_655 S
C162 C163 1.370 . S
C162 C167 1.415 . S
C163 H152 0.930 . S
C163 C162 1.370 . S
C163 C164 1.407 . S
C164 C163 1.407 . S
C164 C165 1.365 . S
C165 H153 0.930 . S
C165 C164 1.365 . S
C165 C166 1.393 . S
C166 C165 1.393 . S
C166 C167 1.387 . S
C167 H154 0.930 . S
C167 C162 1.415 . S
C167 C166 1.387 . S
Fe168 O169 1.886 . S
Fe168 O172 1.715 1_455 S
Fe168 O177 2.077 . S
Fe168 O182 1.935 1_455 S
Fe168 O188 2.077 . S
Fe168 O197 1.935 1_455 S
O169 Fe168 1.886 . S
O169 Fe171 1.715 . S
Fe170 O172 1.886 . S
Fe170 O173 1.715 . S
Fe170 O180 1.935 . S
Fe170 O181 2.077 . S
Fe170 O187 1.935 . S
Fe170 O196 2.077 . S
Fe171 O169 1.715 . S
Fe171 O174 1.886 . S
Fe171 O178 1.935 . S
Fe171 O183 2.077 . S
Fe171 O189 1.935 . S
Fe171 O193 2.077 . S
O172 Fe168 1.715 1_655 S
O172 Fe170 1.886 . S
O173 Fe170 1.715 . S
O173 Fe175 1.878 1_655 S
O174 Fe171 1.886 . S
O174 Fe175 1.723 . S
Fe175 O173 1.878 1_455 S
Fe175 O174 1.723 . S
Fe175 O179 2.070 1_455 S
Fe175 O184 1.941 . S
Fe175 O186 2.070 1_455 S
Fe175 O194 1.941 . S
C176 O188 1.381 . S
C176 O189 1.421 . S
O177 Fe168 2.077 . S
O177 C190 1.381 . S
O178 Fe171 1.935 . S
O178 C190 1.421 . S
O179 Fe175 2.070 1_655 S
O179 C195 1.381 . S
O180 Fe170 1.935 . S
O180 C195 1.421 . S
O181 Fe170 2.077 . S
O181 C185 1.381 . S
O182 Fe168 1.935 1_655 S
O182 C185 1.421 . S
O183 Fe171 2.077 . S
O183 C191 1.381 . S
O184 Fe175 1.941 . S
O184 C191 1.421 . S
C185 O181 1.381 . S
C185 O182 1.421 . S
O186 Fe175 2.070 1_655 S
O186 C198 1.381 . S
O187 Fe170 1.935 . S
O187 C198 1.421 . S
O188 Fe168 2.077 . S
O188 C176 1.381 . S
O189 Fe171 1.935 . S
O189 C176 1.421 . S
C190 O177 1.381 . S
C190 O178 1.421 . S
C191 O183 1.381 . S
C191 O184 1.421 . S
C192 O193 1.381 . S
C192 O194 1.421 . S
O193 Fe171 2.077 . S
O193 C192 1.381 . S
O194 Fe175 1.941 . S
O194 C192 1.421 . S
C195 O179 1.381 . S
C195 O180 1.421 . S
O196 Fe170 2.077 . S
O196 C199 1.381 . S
O197 Fe168 1.935 1_655 S
O197 C199 1.421 . S
C198 O186 1.381 . S
C198 O187 1.421 . S
C199 O196 1.381 . S
C199 O197 1.421 . S
Fe200 O201 1.886 . S
Fe200 O204 1.715 . S
Fe200 O209 2.077 . S
Fe200 O214 1.935 . S
Fe200 O220 2.077 . S
Fe200 O229 1.935 . S
O201 Fe200 1.886 . S
O201 Fe203 1.715 . S
Fe202 O204 1.886 . S
Fe202 O205 1.715 . S
Fe202 O212 1.935 . S
Fe202 O213 2.077 . S
Fe202 O219 1.935 . S
Fe202 O228 2.077 . S
Fe203 O201 1.715 . S
Fe203 O206 1.886 . S
Fe203 O210 1.935 . S
Fe203 O215 2.077 . S
Fe203 O221 1.935 . S
Fe203 O225 2.077 . S
O204 Fe200 1.715 . S
O204 Fe202 1.886 . S
O205 Fe202 1.715 . S
O205 Fe207 1.886 . S
O206 Fe203 1.886 . S
O206 Fe207 1.715 . S
Fe207 O205 1.886 . S
Fe207 O206 1.715 . S
Fe207 O211 2.077 . S
Fe207 O216 1.935 . S
Fe207 O218 2.077 . S
Fe207 O226 1.935 . S
C208 O220 1.381 . S
C208 O221 1.421 . S
O209 Fe200 2.077 . S
O209 C222 1.381 . S
O210 Fe203 1.935 . S
O210 C222 1.421 . S
O211 Fe207 2.077 . S
O211 C227 1.381 . S
O212 Fe202 1.935 . S
O212 C227 1.421 . S
O213 Fe202 2.077 . S
O213 C217 1.381 . S
O214 Fe200 1.935 . S
O214 C217 1.421 . S
O215 Fe203 2.077 . S
O215 C223 1.381 . S
O216 Fe207 1.935 . S
O216 C223 1.421 . S
C217 O213 1.381 . S
C217 O214 1.421 . S
O218 Fe207 2.077 . S
O218 C230 1.381 . S
O219 Fe202 1.935 . S
O219 C230 1.421 . S
O220 Fe200 2.077 . S
O220 C208 1.381 . S
O221 Fe203 1.935 . S
O221 C208 1.421 . S
C222 O209 1.381 . S
C222 O210 1.421 . S
C223 O215 1.381 . S
C223 O216 1.421 . S
C224 O225 1.381 . S
C224 O226 1.421 . S
O225 Fe203 2.077 . S
O225 C224 1.381 . S
O226 Fe207 1.935 . S
O226 C224 1.421 . S
C227 O211 1.381 . S
C227 O212 1.421 . S
O228 Fe202 2.077 . S
O228 C231 1.381 . S
O229 Fe200 1.935 . S
O229 C231 1.421 . S
C230 O218 1.381 . S
C230 O219 1.421 . S
C231 O228 1.381 . S
C231 O229 1.421 . S
Fe232 O233 1.886 . S
Fe232 O236 1.715 . S
Fe232 O241 2.077 . S
Fe232 O246 1.935 . S
Fe232 O252 2.077 . S
Fe232 O261 1.935 . S
O233 Fe232 1.886 . S
O233 Fe235 1.715 . S
Fe234 O236 1.886 . S
Fe234 O237 1.715 . S
Fe234 O244 1.935 . S
Fe234 O245 2.077 . S
Fe234 O251 1.935 . S
Fe234 O260 2.077 . S
Fe235 O233 1.715 . S
Fe235 O238 1.886 . S
Fe235 O242 1.935 . S
Fe235 O247 2.077 . S
Fe235 O253 1.935 . S
Fe235 O257 2.077 . S
O236 Fe232 1.715 . S
O236 Fe234 1.886 . S
O237 Fe234 1.715 . S
O237 Fe239 1.886 . S
O238 Fe235 1.886 . S
O238 Fe239 1.715 . S
Fe239 O237 1.886 . S
Fe239 O238 1.715 . S
Fe239 O243 2.077 . S
Fe239 O248 1.935 . S
Fe239 O250 2.077 . S
Fe239 O258 1.935 . S
C240 O252 1.381 . S
C240 O253 1.421 . S
O241 Fe232 2.077 . S
O241 C254 1.381 . S
O242 Fe235 1.935 . S
O242 C254 1.421 . S
O243 Fe239 2.077 . S
O243 C259 1.381 . S
O244 Fe234 1.935 . S
O244 C259 1.421 . S
O245 Fe234 2.077 . S
O245 C249 1.381 . S
O246 Fe232 1.935 . S
O246 C249 1.421 . S
O247 Fe235 2.077 . S
O247 C255 1.381 . S
O248 Fe239 1.935 . S
O248 C255 1.421 . S
C249 O245 1.381 . S
C249 O246 1.421 . S
O250 Fe239 2.077 . S
O250 C262 1.381 . S
O251 Fe234 1.935 . S
O251 C262 1.421 . S
O252 Fe232 2.077 . S
O252 C240 1.381 . S
O253 Fe235 1.935 . S
O253 C240 1.421 . S
C254 O241 1.381 . S
C254 O242 1.421 . S
C255 O247 1.381 . S
C255 O248 1.421 . S
C256 O257 1.381 . S
C256 O258 1.421 . S
O257 Fe235 2.077 . S
O257 C256 1.381 . S
O258 Fe239 1.935 . S
O258 C256 1.421 . S
C259 O243 1.381 . S
C259 O244 1.421 . S
O260 Fe234 2.077 . S
O260 C263 1.381 . S
O261 Fe232 1.935 . S
O261 C263 1.421 . S
C262 O250 1.381 . S
C262 O251 1.421 . S
C263 O260 1.381 . S
C263 O261 1.421 . S
Fe264 O265 1.886 . S
Fe264 O268 1.715 . S
Fe264 O273 2.077 1_455 S
Fe264 O278 1.935 1_455 S
Fe264 O284 2.077 . S
Fe264 O293 1.935 . S
O265 Fe264 1.886 . S
O265 Fe267 1.715 . S
Fe266 O268 1.886 . S
Fe266 O269 1.715 . S
Fe266 O276 1.935 1_455 S
Fe266 O277 2.077 1_455 S
Fe266 O283 1.935 . S
Fe266 O292 2.077 . S
Fe267 O265 1.715 . S
Fe267 O270 1.886 . S
Fe267 O274 1.935 1_455 S
Fe267 O279 2.077 1_455 S
Fe267 O285 1.935 . S
Fe267 O289 2.077 . S
O268 Fe264 1.715 . S
O268 Fe266 1.886 . S
O269 Fe266 1.715 . S
O269 Fe271 1.886 . S
O270 Fe267 1.886 . S
O270 Fe271 1.715 . S
Fe271 O269 1.886 . S
Fe271 O270 1.715 . S
Fe271 O275 2.077 1_455 S
Fe271 O280 1.935 1_455 S
Fe271 O282 2.077 . S
Fe271 O290 1.935 . S
C272 O284 1.381 . S
C272 O285 1.421 . S
O273 Fe264 2.077 1_655 S
O273 C286 1.381 . S
O274 Fe267 1.935 1_655 S
O274 C286 1.421 . S
O275 Fe271 2.077 1_655 S
O275 C291 1.381 . S
O276 Fe266 1.935 1_655 S
O276 C291 1.421 . S
O277 Fe266 2.077 1_655 S
O277 C281 1.381 . S
O278 Fe264 1.935 1_655 S
O278 C281 1.421 . S
O279 Fe267 2.077 1_655 S
O279 C287 1.381 . S
O280 Fe271 1.935 1_655 S
O280 C287 1.421 . S
C281 O277 1.381 . S
C281 O278 1.421 . S
O282 Fe271 2.077 . S
O282 C294 1.381 . S
O283 Fe266 1.935 . S
O283 C294 1.421 . S
O284 Fe264 2.077 . S
O284 C272 1.381 . S
O285 Fe267 1.935 . S
O285 C272 1.421 . S
C286 O273 1.381 . S
C286 O274 1.421 . S
C287 O279 1.381 . S
C287 O280 1.421 . S
C288 O289 1.381 . S
C288 O290 1.421 . S
O289 Fe267 2.077 . S
O289 C288 1.381 . S
O290 Fe271 1.935 . S
O290 C288 1.421 . S
C291 O275 1.381 . S
C291 O276 1.421 . S
O292 Fe266 2.077 . S
O292 C295 1.381 . S
O293 Fe264 1.935 . S
O293 C295 1.421 . S
C294 O282 1.381 . S
C294 O283 1.421 . S
C295 O292 1.381 . S
C295 O293 1.421 . S
H296 C304 0.929 . S
H297 C306 0.930 . S
H298 C308 0.930 . S
H299 C311 0.929 . S
H300 C314 0.930 . S
H301 C316 0.960 . S
H302 C316 0.960 . S
H303 C316 0.960 . S
C304 H296 0.929 . S
C304 C305 1.377 . S
C304 C306 1.384 . S
C305 C304 1.377 . S
C305 C311 1.390 . S
C306 H297 0.930 . S
C306 C304 1.384 . S
C306 C307 1.372 . S
C307 C306 1.372 . S
C307 C308 1.400 . S
C307 C312 1.490 . S
C308 H298 0.930 . S
C308 C307 1.400 . S
C308 C311 1.386 . S
H309 C325 0.930 . S
H310 C326 0.931 . S
C311 H299 0.929 . S
C311 C305 1.390 . S
C311 C308 1.386 . S
C312 C307 1.490 . S
C312 C314 1.395 . S
C312 C315 1.403 . S
H313 C319 0.930 . S
C314 H300 0.930 . S
C314 C312 1.395 . S
C314 C317 1.403 . S
C315 C312 1.403 . S
C315 C316 1.524 . S
C315 C319 1.400 . S
C316 H301 0.960 . S
C316 H302 0.960 . S
C316 H303 0.960 . S
C316 C315 1.524 . S
C317 C314 1.403 . S
C317 C318 1.392 . S
C317 C321 1.495 . S
C318 C317 1.392 . S
C318 C319 1.385 . S
C318 C320 1.478 . S
C319 H313 0.930 . S
C319 C315 1.400 . S
C319 C318 1.385 . S
C320 C318 1.478 . S
C320 C322 1.381 . S
C320 C326 1.383 . S
C321 C317 1.495 . S
C321 H327 0.959 . S
C321 H328 0.961 . S
C321 H329 0.960 . S
C322 C320 1.381 . S
C322 C323 1.394 . S
C322 H330 0.930 . S
C323 C322 1.394 . S
C323 C324 1.383 . S
C323 H331 0.929 . S
C324 C323 1.383 . S
C324 C325 1.377 . S
C325 H309 0.930 . S
C325 C324 1.377 . S
C325 C326 1.379 . S
C326 H310 0.931 . S
C326 C320 1.383 . S
C326 C325 1.379 . S
H327 C321 0.959 . S
H328 C321 0.961 . S
H329 C321 0.960 . S
H330 C322 0.930 . S
H331 C323 0.929 . S
H332 C340 0.929 . S
H333 C342 0.930 . S
H334 C344 0.930 . S
H335 C347 0.929 . S
H336 C350 0.930 . S
H337 C352 0.960 . S
H338 C352 0.960 . S
H339 C352 0.960 . S
C340 H332 0.929 . S
C340 C341 1.377 . S
C340 C342 1.384 . S
C341 C340 1.377 . S
C341 C347 1.390 . S
C342 H333 0.930 . S
C342 C340 1.384 . S
C342 C343 1.372 . S
C343 C342 1.372 . S
C343 C344 1.400 . S
C343 C348 1.490 . S
C344 H334 0.930 . S
C344 C343 1.400 . S
C344 C347 1.386 . S
H345 C361 0.930 . S
H346 C362 0.931 . S
C347 H335 0.929 . S
C347 C341 1.390 . S
C347 C344 1.386 . S
C348 C343 1.490 . S
C348 C350 1.395 . S
C348 C351 1.403 1_565 S
H349 C355 0.930 . S
C350 H336 0.930 . S
C350 C348 1.395 . S
C350 C353 1.403 1_565 S
C351 C348 1.403 1_545 S
C351 C352 1.524 . S
C351 C355 1.400 . S
C352 H337 0.960 . S
C352 H338 0.960 . S
C352 H339 0.960 . S
C352 C351 1.524 . S
C353 C350 1.403 1_545 S
C353 C354 1.392 . S
C353 C357 1.495 . S
C354 C353 1.392 . S
C354 C355 1.385 . S
C354 C356 1.478 . S
C355 H349 0.930 . S
C355 C351 1.400 . S
C355 C354 1.385 . S
C356 C354 1.478 . S
C356 C358 1.381 . S
C356 C362 1.383 . S
C357 C353 1.495 . S
C357 H363 0.959 1_545 S
C357 H364 0.961 . S
C357 H365 0.960 . S
C358 C356 1.381 . S
C358 C359 1.394 . S
C358 H366 0.930 . S
C359 C358 1.394 . S
C359 C360 1.383 . S
C359 H367 0.929 . S
C360 C359 1.383 . S
C360 C361 1.377 . S
C361 H345 0.930 . S
C361 C360 1.377 . S
C361 C362 1.379 . S
C362 H346 0.931 . S
C362 C356 1.383 . S
C362 C361 1.379 . S
H363 C357 0.959 1_565 S
H364 C357 0.961 . S
H365 C357 0.960 . S
H366 C358 0.930 . S
H367 C359 0.929 . S
H368 C376 0.929 1_554 S
H369 C378 0.930 . S
H370 C380 0.930 . S
H371 C383 0.929 1_565 S
H372 C386 0.930 . S
H373 C388 0.960 . S
H374 C388 0.960 . S
H375 C388 0.960 . S
C376 H368 0.929 1_556 S
C376 C377 1.377 . S
C376 C378 1.384 . S
C377 C376 1.377 . S
C377 C383 1.390 . S
C378 H369 0.930 . S
C378 C376 1.384 . S
C378 C379 1.372 . S
C379 C378 1.372 . S
C379 C380 1.400 . S
C379 C384 1.490 . S
C380 H370 0.930 . S
C380 C379 1.400 . S
C380 C383 1.386 . S
H381 C397 0.930 . S
H382 C398 0.931 . S
C383 H371 0.929 1_545 S
C383 C377 1.390 . S
C383 C380 1.386 . S
C384 C379 1.490 . S
C384 C386 1.395 . S
C384 C387 1.403 . S
H385 C391 0.930 . S
C386 H372 0.930 . S
C386 C384 1.395 . S
C386 C389 1.403 . S
C387 C384 1.403 . S
C387 C388 1.524 . S
C387 C391 1.400 . S
C388 H373 0.960 . S
C388 H374 0.960 . S
C388 H375 0.960 . S
C388 C387 1.524 . S
C389 C386 1.403 . S
C389 C390 1.392 . S
C389 C393 1.495 . S
C390 C389 1.392 . S
C390 C391 1.385 . S
C390 C392 1.478 . S
C391 H385 0.930 . S
C391 C387 1.400 . S
C391 C390 1.385 . S
C392 C390 1.478 . S
C392 C394 1.381 . S
C392 C398 1.383 . S
C393 C389 1.495 . S
C393 H399 0.959 . S
C393 H400 0.961 . S
C393 H401 0.960 . S
C394 C392 1.381 . S
C394 C395 1.394 . S
C394 H402 0.930 . S
C395 C394 1.394 . S
C395 C396 1.383 . S
C395 H403 0.929 . S
C396 C395 1.383 . S
C396 C397 1.377 . S
C397 H381 0.930 . S
C397 C396 1.377 . S
C397 C398 1.379 . S
C398 H382 0.931 . S
C398 C392 1.383 . S
C398 C397 1.379 . S
H399 C393 0.959 . S
H400 C393 0.961 . S
H401 C393 0.960 . S
H402 C394 0.930 . S
H403 C395 0.929 . S
H404 C412 0.929 . S
H405 C414 0.930 . S
H406 C416 0.930 . S
H407 C419 0.929 . S
H408 C422 0.928 1_545 S
H409 C424 0.960 . S
H410 C424 0.960 . S
H411 C424 0.960 . S
C412 H404 0.929 . S
C412 C413 1.377 . S
C412 C414 1.384 . S
C413 C412 1.377 . S
C413 C419 1.390 . S
C414 H405 0.930 . S
C414 C412 1.384 . S
C414 C415 1.372 . S
C415 C414 1.372 . S
C415 C416 1.400 . S
C415 C420 1.490 . S
C416 H406 0.930 . S
C416 C415 1.400 . S
C416 C419 1.386 . S
H417 C433 0.930 . S
H418 C434 0.931 . S
C419 H407 0.929 . S
C419 C413 1.390 . S
C419 C416 1.386 . S
C420 C415 1.490 . S
C420 C422 1.395 1_545 S
C420 C423 1.403 . S
H421 C427 0.930 . S
C422 H408 0.928 1_565 S
C422 C420 1.395 1_565 S
C422 C425 1.403 . S
C423 C420 1.403 . S
C423 C424 1.524 . S
C423 C427 1.400 1_545 S
C424 H409 0.960 . S
C424 H410 0.960 . S
C424 H411 0.960 . S
C424 C423 1.524 . S
C425 C422 1.403 . S
C425 C426 1.392 . S
C425 C429 1.495 . S
C426 C425 1.392 . S
C426 C427 1.385 . S
C426 C428 1.478 . S
C427 H421 0.930 . S
C427 C423 1.400 1_565 S
C427 C426 1.385 . S
C428 C426 1.478 . S
C428 C430 1.381 . S
C428 C434 1.383 . S
C429 C425 1.495 . S
C429 H435 0.959 . S
C429 H436 0.961 . S
C429 H437 0.960 . S
C430 C428 1.381 . S
C430 C431 1.394 . S
C430 H438 0.930 . S
C431 C430 1.394 . S
C431 C432 1.383 . S
C431 H439 0.929 . S
C432 C431 1.383 . S
C432 C433 1.377 . S
C433 H417 0.930 . S
C433 C432 1.377 . S
C433 C434 1.379 . S
C434 H418 0.931 . S
C434 C428 1.383 . S
C434 C433 1.379 . S
H435 C429 0.959 . S
H436 C429 0.961 . S
H437 C429 0.960 . S
H438 C430 0.930 . S
H439 C431 0.929 . S
H440 C448 0.929 . S
H441 C450 0.930 . S
H442 C452 0.930 . S
H443 C455 0.929 . S
H444 C458 0.930 . S
H445 C460 0.960 . S
H446 C460 0.960 . S
H447 C460 0.960 . S
C448 H440 0.929 . S
C448 C449 1.377 . S
C448 C450 1.384 . S
C449 C448 1.377 . S
C449 C455 1.390 . S
C450 H441 0.930 . S
C450 C448 1.384 . S
C450 C451 1.372 . S
C451 C450 1.372 . S
C451 C452 1.400 . S
C451 C456 1.490 . S
C452 H442 0.930 . S
C452 C451 1.400 . S
C452 C455 1.386 . S
H453 C469 0.930 . S
H454 C470 0.931 . S
C455 H443 0.929 . S
C455 C449 1.390 . S
C455 C452 1.386 . S
C456 C451 1.490 . S
C456 C458 1.395 . S
C456 C459 1.403 . S
H457 C463 0.930 . S
C458 H444 0.930 . S
C458 C456 1.395 . S
C458 C461 1.403 . S
C459 C456 1.403 . S
C459 C460 1.524 . S
C459 C463 1.400 . S
C460 H445 0.960 . S
C460 H446 0.960 . S
C460 H447 0.960 . S
C460 C459 1.524 . S
C461 C458 1.403 . S
C461 C462 1.392 . S
C461 C465 1.495 . S
C462 C461 1.392 . S
C462 C463 1.385 . S
C462 C464 1.478 . S
C463 H457 0.930 . S
C463 C459 1.400 . S
C463 C462 1.385 . S
C464 C462 1.478 . S
C464 C466 1.381 . S
C464 C470 1.383 . S
C465 C461 1.495 . S
C465 H471 0.959 . S
C465 H472 0.961 . S
C465 H473 0.960 . S
C466 C464 1.381 . S
C466 C467 1.394 . S
C466 H474 0.930 . S
C467 C466 1.394 . S
C467 C468 1.383 . S
C467 H475 0.929 . S
C468 C467 1.383 . S
C468 C469 1.377 . S
C469 H453 0.930 . S
C469 C468 1.377 . S
C469 C470 1.379 . S
C470 H454 0.931 . S
C470 C464 1.383 . S
C470 C469 1.379 . S
H471 C465 0.959 . S
H472 C465 0.961 . S
H473 C465 0.960 . S
H474 C466 0.930 . S
H475 C467 0.929 . S
H476 C484 0.929 . S
H477 C486 0.930 . S
H478 C488 0.930 . S
H479 C491 0.929 . S
H480 C494 0.930 . S
H481 C496 0.960 . S
H482 C496 0.960 . S
H483 C496 0.960 . S
C484 H476 0.929 . S
C484 C485 1.377 . S
C484 C486 1.384 . S
C485 C484 1.377 . S
C485 C491 1.390 . S
C486 H477 0.930 . S
C486 C484 1.384 . S
C486 C487 1.372 . S
C487 C486 1.372 . S
C487 C488 1.400 . S
C487 C492 1.490 . S
C488 H478 0.930 . S
C488 C487 1.400 . S
C488 C491 1.386 . S
H489 C505 0.930 . S
H490 C506 0.931 . S
C491 H479 0.929 . S
C491 C485 1.390 . S
C491 C488 1.386 . S
C492 C487 1.490 . S
C492 C494 1.395 1_565 S
C492 C495 1.403 . S
H493 C499 0.930 . S
C494 H480 0.930 . S
C494 C492 1.395 1_545 S
C494 C497 1.403 . S
C495 C492 1.403 . S
C495 C496 1.524 . S
C495 C499 1.400 1_565 S
C496 H481 0.960 . S
C496 H482 0.960 . S
C496 H483 0.960 . S
C496 C495 1.524 . S
C497 C494 1.403 . S
C497 C498 1.392 . S
C497 C501 1.495 . S
C498 C497 1.392 . S
C498 C499 1.385 . S
C498 C500 1.478 . S
C499 H493 0.930 . S
C499 C495 1.400 1_545 S
C499 C498 1.385 . S
C500 C498 1.478 . S
C500 C502 1.381 . S
C500 C506 1.383 . S
C501 C497 1.495 . S
C501 H507 0.959 . S
C501 H508 0.961 . S
C501 H509 0.960 . S
C502 C500 1.381 . S
C502 C503 1.394 . S
C502 H510 0.930 . S
C503 C502 1.394 . S
C503 C504 1.383 . S
C503 H511 0.929 . S
C504 C503 1.383 . S
C504 C505 1.377 . S
C505 H489 0.930 . S
C505 C504 1.377 . S
C505 C506 1.379 . S
C506 H490 0.931 . S
C506 C500 1.383 . S
C506 C505 1.379 . S
H507 C501 0.959 . S
H508 C501 0.961 . S
H509 C501 0.960 . S
H510 C502 0.930 . S
H511 C503 0.929 . S
H512 C520 0.929 . S
H513 C522 0.930 . S
H514 C524 0.930 . S
H515 C527 0.942 . S
H516 C530 0.930 . S
H517 C532 0.960 . S
H518 C532 0.960 . S
H519 C532 0.960 . S
C520 H512 0.929 . S
C520 C521 1.377 . S
C520 C522 1.384 . S
C521 C520 1.377 . S
C521 C527 1.390 . S
C522 H513 0.930 . S
C522 C520 1.384 . S
C522 C523 1.372 . S
C523 C522 1.372 . S
C523 C524 1.400 . S
C523 C528 1.490 . S
C524 H514 0.930 . S
C524 C523 1.400 . S
C524 C527 1.386 . S
H525 C541 0.930 . S
H526 C542 0.931 . S
C527 H515 0.942 . S
C527 C521 1.390 . S
C527 C524 1.386 . S
C528 C523 1.490 . S
C528 C530 1.395 . S
C528 C531 1.403 . S
H529 C535 0.930 . S
C530 H516 0.930 . S
C530 C528 1.395 . S
C530 C533 1.403 . S
C531 C528 1.403 . S
C531 C532 1.524 . S
C531 C535 1.400 . S
C532 H517 0.960 . S
C532 H518 0.960 . S
C532 H519 0.960 . S
C532 C531 1.524 . S
C533 C530 1.403 . S
C533 C534 1.392 . S
C533 C537 1.495 . S
C534 C533 1.392 . S
C534 C535 1.385 . S
C534 C536 1.478 . S
C535 H529 0.930 . S
C535 C531 1.400 . S
C535 C534 1.385 . S
C536 C534 1.478 . S
C536 C538 1.381 . S
C536 C542 1.383 . S
C537 C533 1.495 . S
C537 H543 0.959 . S
C537 H544 0.961 . S
C537 H545 0.960 . S
C538 C536 1.381 . S
C538 C539 1.394 . S
C538 H546 0.930 . S
C539 C538 1.394 . S
C539 C540 1.383 . S
C539 H547 0.929 . S
C540 C539 1.383 . S
C540 C541 1.377 . S
C541 H525 0.930 . S
C541 C540 1.377 . S
C541 C542 1.379 . S
C542 H526 0.931 . S
C542 C536 1.383 . S
C542 C541 1.379 . S
H543 C537 0.959 . S
H544 C537 0.961 . S
H545 C537 0.960 . S
H546 C538 0.930 . S
H547 C539 0.929 . S
H548 C556 0.929 . S
H549 C558 0.930 . S
H550 C560 0.930 . S
H551 C563 0.929 . S
H552 C566 0.930 . S
H553 C568 0.960 . S
H554 C568 0.960 . S
H555 C568 0.960 . S
C556 H548 0.929 . S
C556 C557 1.377 . S
C556 C558 1.384 . S
C557 C556 1.377 . S
C557 C563 1.390 . S
C558 H549 0.930 . S
C558 C556 1.384 . S
C558 C559 1.372 . S
C559 C558 1.372 . S
C559 C560 1.400 . S
C559 C564 1.490 . S
C560 H550 0.930 . S
C560 C559 1.400 . S
C560 C563 1.386 . S
H561 C577 0.930 . S
H562 C578 0.931 . S
C563 H551 0.929 . S
C563 C557 1.390 . S
C563 C560 1.386 . S
C564 C559 1.490 . S
C564 C566 1.395 . S
C564 C567 1.403 . S
H565 C571 0.930 . S
C566 H552 0.930 . S
C566 C564 1.395 . S
C566 C569 1.403 1_545 S
C567 C564 1.403 . S
C567 C568 1.524 . S
C567 C571 1.400 1_545 S
C568 H553 0.960 . S
C568 H554 0.960 . S
C568 H555 0.960 . S
C568 C567 1.524 . S
C569 C566 1.403 1_565 S
C569 C570 1.392 . S
C569 C573 1.495 . S
C570 C569 1.392 . S
C570 C571 1.385 . S
C570 C572 1.478 . S
C571 H565 0.930 . S
C571 C567 1.400 1_565 S
C571 C570 1.385 . S
C572 C570 1.478 . S
C572 C574 1.381 . S
C572 C578 1.383 . S
C573 C569 1.495 . S
C573 H579 0.959 . S
C573 H580 0.961 . S
C573 H581 0.960 . S
C574 C572 1.381 . S
C574 C575 1.394 . S
C574 H582 0.930 . S
C575 C574 1.394 . S
C575 C576 1.383 . S
C575 H583 0.929 . S
C576 C575 1.383 . S
C576 C577 1.377 . S
C577 H561 0.930 . S
C577 C576 1.377 . S
C577 C578 1.379 . S
C578 H562 0.931 . S
C578 C572 1.383 . S
C578 C577 1.379 . S
H579 C573 0.959 . S
H580 C573 0.961 . S
H581 C573 0.960 . S
H582 C574 0.930 . S
H583 C575 0.929 . S
H584 C592 0.929 . S
H585 C594 0.930 . S
H586 C596 0.930 . S
H587 C599 0.929 . S
H588 C602 0.930 . S
H589 C604 0.960 . S
H590 C604 0.960 . S
H591 C604 0.960 . S
C592 H584 0.929 . S
C592 C593 1.377 . S
C592 C594 1.384 . S
C593 C592 1.377 . S
C593 C599 1.390 . S
C594 H585 0.930 . S
C594 C592 1.384 . S
C594 C595 1.372 . S
C595 C594 1.372 . S
C595 C596 1.400 . S
C595 C600 1.490 . S
C596 H586 0.930 . S
C596 C595 1.400 . S
C596 C599 1.386 . S
H597 C613 0.930 . S
H598 C614 0.931 . S
C599 H587 0.929 . S
C599 C593 1.390 . S
C599 C596 1.386 . S
C600 C595 1.490 . S
C600 C602 1.395 . S
C600 C603 1.403 . S
H601 C607 0.930 . S
C602 H588 0.930 . S
C602 C600 1.395 . S
C602 C605 1.403 . S
C603 C600 1.403 . S
C603 C604 1.524 . S
C603 C607 1.400 . S
C604 H589 0.960 . S
C604 H590 0.960 . S
C604 H591 0.960 . S
C604 C603 1.524 . S
C605 C602 1.403 . S
C605 C606 1.392 . S
C605 C609 1.495 . S
C606 C605 1.392 . S
C606 C607 1.385 . S
C606 C608 1.478 . S
C607 H601 0.930 . S
C607 C603 1.400 . S
C607 C606 1.385 . S
C608 C606 1.478 . S
C608 C610 1.381 . S
C608 C614 1.383 . S
C609 C605 1.495 . S
C609 H615 0.959 . S
C609 H616 0.961 . S
C609 H617 0.960 . S
C610 C608 1.381 . S
C610 C611 1.394 . S
C610 H618 0.930 . S
C611 C610 1.394 . S
C611 C612 1.383 . S
C611 H619 0.929 . S
C612 C611 1.383 . S
C612 C613 1.377 . S
C613 H597 0.930 . S
C613 C612 1.377 . S
C613 C614 1.379 . S
C614 H598 0.931 . S
C614 C608 1.383 . S
C614 C613 1.379 . S
H615 C609 0.959 . S
H616 C609 0.961 . S
H617 C609 0.960 . S
H618 C610 0.930 . S
H619 C611 0.929 . S
H620 C628 0.929 . S
H621 C630 0.930 . S
H622 C632 0.930 . S
H623 C635 0.929 . S
H624 C638 0.930 . S
H625 C640 0.960 1_565 S
H626 C640 0.960 . S
H627 C640 0.960 . S
C628 H620 0.929 . S
C628 C629 1.377 . S
C628 C630 1.384 . S
C629 C628 1.377 . S
C629 C635 1.390 . S
C630 H621 0.930 . S
C630 C628 1.384 . S
C630 C631 1.372 . S
C631 C630 1.372 . S
C631 C632 1.400 . S
C631 C636 1.490 . S
C632 H622 0.930 . S
C632 C631 1.400 . S
C632 C635 1.386 . S
H633 C649 0.930 . S
H634 C650 0.931 . S
C635 H623 0.929 . S
C635 C629 1.390 . S
C635 C632 1.386 . S
C636 C631 1.490 . S
C636 C638 1.395 . S
C636 C639 1.403 . S
H637 C643 0.930 . S
C638 H624 0.930 . S
C638 C636 1.395 . S
C638 C641 1.403 1_545 S
C639 C636 1.403 . S
C639 C640 1.524 . S
C639 C643 1.400 1_545 S
C640 H625 0.960 1_545 S
C640 H626 0.960 . S
C640 H627 0.960 . S
C640 C639 1.524 . S
C641 C638 1.403 1_565 S
C641 C642 1.392 . S
C641 C645 1.495 . S
C642 C641 1.392 . S
C642 C643 1.385 . S
C642 C644 1.478 . S
C643 H637 0.930 . S
C643 C639 1.400 1_565 S
C643 C642 1.385 . S
C644 C642 1.478 . S
C644 C646 1.381 . S
C644 C650 1.383 . S
C645 C641 1.495 . S
C645 H651 0.959 1_565 S
C645 H652 0.961 . S
C645 H653 0.960 . S
C646 C644 1.381 . S
C646 C647 1.394 . S
C646 H654 0.930 . S
C647 C646 1.394 . S
C647 C648 1.383 . S
C647 H655 0.929 . S
C648 C647 1.383 . S
C648 C649 1.377 . S
C649 H633 0.930 . S
C649 C648 1.377 . S
C649 C650 1.379 . S
C650 H634 0.931 . S
C650 C644 1.383 . S
C650 C649 1.379 . S
H651 C645 0.959 1_545 S
H652 C645 0.961 . S
H653 C645 0.960 . S
H654 C646 0.930 . S
H655 C647 0.929 . S
H656 C664 0.929 1_545 S
H657 C666 0.930 . S
H658 C668 0.930 . S
H659 C671 0.929 . S
H660 C674 0.930 . S
H661 C676 0.960 . S
H662 C676 0.960 . S
H663 C676 0.960 . S
C664 H656 0.929 1_565 S
C664 C665 1.377 . S
C664 C666 1.384 . S
C665 C664 1.377 . S
C665 C671 1.390 . S
C666 H657 0.930 . S
C666 C664 1.384 . S
C666 C667 1.372 . S
C667 C666 1.372 . S
C667 C668 1.400 . S
C667 C672 1.490 . S
C668 H658 0.930 . S
C668 C667 1.400 . S
C668 C671 1.386 . S
H669 C685 0.930 . S
H670 C686 0.931 . S
C671 H659 0.929 . S
C671 C665 1.390 . S
C671 C668 1.386 . S
C672 C667 1.490 . S
C672 C674 1.395 . S
C672 C675 1.403 . S
H673 C679 0.930 . S
C674 H660 0.930 . S
C674 C672 1.395 . S
C674 C677 1.403 . S
C675 C672 1.403 . S
C675 C676 1.524 . S
C675 C679 1.400 . S
C676 H661 0.960 . S
C676 H662 0.960 . S
C676 H663 0.960 . S
C676 C675 1.524 . S
C677 C674 1.403 . S
C677 C678 1.392 . S
C677 C681 1.495 . S
C678 C677 1.392 . S
C678 C679 1.385 . S
C678 C680 1.478 . S
C679 H673 0.930 . S
C679 C675 1.400 . S
C679 C678 1.385 . S
C680 C678 1.478 . S
C680 C682 1.381 . S
C680 C686 1.383 . S
C681 C677 1.495 . S
C681 H687 0.959 . S
C681 H688 0.961 . S
C681 H689 0.960 . S
C682 C680 1.381 . S
C682 C683 1.394 . S
C682 H690 0.930 . S
C683 C682 1.394 . S
C683 C684 1.383 . S
C683 H691 0.929 . S
C684 C683 1.383 . S
C684 C685 1.377 . S
C685 H669 0.930 . S
C685 C684 1.377 . S
C685 C686 1.379 . S
C686 H670 0.931 . S
C686 C680 1.383 . S
C686 C685 1.379 . S
H687 C681 0.959 . S
H688 C681 0.961 . S
H689 C681 0.960 . S
H690 C682 0.930 . S
H691 C683 0.929 . S
H692 C700 0.929 . S
H693 C702 0.930 . S
H694 C704 0.930 . S
H695 C707 0.929 . S
H696 C710 0.930 . S
H697 C712 0.960 . S
H698 C712 0.960 . S
H699 C712 0.960 . S
C700 H692 0.929 . S
C700 C701 1.377 . S
C700 C702 1.384 . S
C701 C700 1.377 . S
C701 C707 1.390 . S
C702 H693 0.930 . S
C702 C700 1.384 . S
C702 C703 1.372 . S
C703 C702 1.372 . S
C703 C704 1.400 . S
C703 C708 1.490 . S
C704 H694 0.930 . S
C704 C703 1.400 . S
C704 C707 1.386 . S
H705 C721 0.930 . S
H706 C722 0.931 . S
C707 H695 0.929 . S
C707 C701 1.390 . S
C707 C704 1.386 . S
C708 C703 1.490 . S
C708 C710 1.395 . S
C708 C711 1.403 1_565 S
H709 C715 0.930 . S
C710 H696 0.930 . S
C710 C708 1.395 . S
C710 C713 1.403 1_565 S
C711 C708 1.403 1_545 S
C711 C712 1.524 . S
C711 C715 1.400 . S
C712 H697 0.960 . S
C712 H698 0.960 . S
C712 H699 0.960 . S
C712 C711 1.524 . S
C713 C710 1.403 1_545 S
C713 C714 1.392 . S
C713 C717 1.495 . S
C714 C713 1.392 . S
C714 C715 1.385 . S
C714 C716 1.478 . S
C715 H709 0.930 . S
C715 C711 1.400 . S
C715 C714 1.385 . S
C716 C714 1.478 . S
C716 C718 1.381 . S
C716 C722 1.383 . S
C717 C713 1.495 . S
C717 H723 0.959 1_545 S
C717 H724 0.961 . S
C717 H725 0.960 . S
C718 C716 1.381 . S
C718 C719 1.394 . S
C718 H726 0.930 . S
C719 C718 1.394 . S
C719 C720 1.383 . S
C719 H727 0.929 . S
C720 C719 1.383 . S
C720 C721 1.377 . S
C721 H705 0.930 . S
C721 C720 1.377 . S
C721 C722 1.379 . S
C722 H706 0.931 . S
C722 C716 1.383 . S
C722 C721 1.379 . S
H723 C717 0.959 1_565 S
H724 C717 0.961 . S
H725 C717 0.960 . S
H726 C718 0.930 . S
H727 C719 0.929 . S
H728 C736 0.929 1_545 S
H729 C738 0.932 . S
H730 C740 0.930 . S
H731 C743 0.929 . S
H732 C746 0.930 . S
H733 C748 0.960 . S
H734 C748 0.960 . S
H735 C748 0.960 . S
C736 H728 0.929 1_565 S
C736 C737 1.377 . S
C736 C738 1.384 . S
C737 C736 1.377 . S
C737 C743 1.390 . S
C738 H729 0.932 . S
C738 C736 1.384 . S
C738 C739 1.372 . S
C739 C738 1.372 . S
C739 C740 1.400 . S
C739 C744 1.490 . S
C740 H730 0.930 . S
C740 C739 1.400 . S
C740 C743 1.386 . S
H741 C757 0.930 . S
H742 C758 0.931 . S
C743 H731 0.929 . S
C743 C737 1.390 . S
C743 C740 1.386 . S
C744 C739 1.490 . S
C744 C746 1.395 . S
C744 C747 1.403 . S
H745 C751 0.930 . S
C746 H732 0.930 . S
C746 C744 1.395 . S
C746 C749 1.403 . S
C747 C744 1.403 . S
C747 C748 1.524 . S
C747 C751 1.400 . S
C748 H733 0.960 . S
C748 H734 0.960 . S
C748 H735 0.960 . S
C748 C747 1.524 . S
C749 C746 1.403 . S
C749 C750 1.392 . S
C749 C753 1.495 . S
C750 C749 1.392 . S
C750 C751 1.385 . S
C750 C752 1.478 . S
C751 H745 0.930 . S
C751 C747 1.400 . S
C751 C750 1.385 . S
C752 C750 1.478 . S
C752 C754 1.381 . S
C752 C758 1.383 . S
C753 C749 1.495 . S
C753 H759 0.959 . S
C753 H760 0.961 . S
C753 H761 0.960 . S
C754 C752 1.381 . S
C754 C755 1.394 . S
C754 H762 0.930 . S
C755 C754 1.394 . S
C755 C756 1.383 . S
C755 H763 0.929 . S
C756 C755 1.383 . S
C756 C757 1.377 . S
C757 H741 0.930 . S
C757 C756 1.377 . S
C757 C758 1.379 . S
C758 H742 0.931 . S
C758 C752 1.383 . S
C758 C757 1.379 . S
H759 C753 0.959 . S
H760 C753 0.961 . S
H761 C753 0.960 . S
H762 C754 0.930 . S
H763 C755 0.929 . S
H764 C772 0.929 . S
H765 C774 0.930 . S
H766 C776 0.930 . S
H767 C779 0.929 . S
H768 C782 0.930 . S
H769 C784 0.960 . S
H770 C784 0.960 . S
H771 C784 0.948 1_545 S
C772 H764 0.929 . S
C772 C773 1.377 . S
C772 C774 1.384 . S
C773 C772 1.377 . S
C773 C779 1.390 . S
C774 H765 0.930 . S
C774 C772 1.384 . S
C774 C775 1.372 . S
C775 C774 1.372 . S
C775 C776 1.400 . S
C775 C780 1.490 . S
C776 H766 0.930 . S
C776 C775 1.400 . S
C776 C779 1.386 . S
H777 C793 0.930 . S
H778 C794 0.931 . S
C779 H767 0.929 . S
C779 C773 1.390 . S
C779 C776 1.386 . S
C780 C775 1.490 . S
C780 C782 1.395 . S
C780 C783 1.403 1_545 S
H781 C787 0.930 . S
C782 H768 0.930 . S
C782 C780 1.395 . S
C782 C785 1.403 . S
C783 C780 1.403 1_565 S
C783 C784 1.524 . S
C783 C787 1.400 . S
C784 H769 0.960 . S
C784 H770 0.960 . S
C784 H771 0.948 1_565 S
C784 C783 1.524 . S
C785 C782 1.403 . S
C785 C786 1.392 1_545 S
C785 C789 1.495 . S
C786 C785 1.392 1_565 S
C786 C787 1.385 . S
C786 C788 1.478 . S
C787 H781 0.930 . S
C787 C783 1.400 . S
C787 C786 1.385 . S
C788 C786 1.478 . S
C788 C790 1.381 . S
C788 C794 1.383 . S
C789 C785 1.495 . S
C789 H795 0.959 . S
C789 H796 0.961 . S
C789 H797 0.960 1_545 S
C790 C788 1.381 . S
C790 C791 1.394 . S
C790 H798 0.930 . S
C791 C790 1.394 . S
C791 C792 1.383 . S
C791 H799 0.929 . S
C792 C791 1.383 . S
C792 C793 1.377 . S
C793 H777 0.930 . S
C793 C792 1.377 . S
C793 C794 1.379 . S
C794 H778 0.931 . S
C794 C788 1.383 . S
C794 C793 1.379 . S
H795 C789 0.959 . S
H796 C789 0.961 . S
H797 C789 0.960 1_565 S
H798 C790 0.930 . S
H799 C791 0.929 . S
H800 C808 0.929 1_554 S
H801 C810 0.930 . S
H802 C812 0.930 . S
H803 C815 0.929 . S
H804 C818 0.930 . S
H805 C820 0.960 . S
H806 C820 0.960 . S
H807 C820 0.960 . S
C808 H800 0.929 1_556 S
C808 C809 1.377 . S
C808 C810 1.384 . S
C809 C808 1.377 . S
C809 C815 1.390 . S
C810 H801 0.930 . S
C810 C808 1.384 . S
C810 C811 1.372 . S
C811 C810 1.372 . S
C811 C812 1.400 . S
C811 C816 1.490 . S
C812 H802 0.930 . S
C812 C811 1.400 . S
C812 C815 1.386 . S
H813 C829 0.930 . S
H814 C830 0.931 . S
C815 H803 0.929 . S
C815 C809 1.390 . S
C815 C812 1.386 . S
C816 C811 1.490 . S
C816 C818 1.395 . S
C816 C819 1.403 . S
H817 C823 0.930 . S
C818 H804 0.930 . S
C818 C816 1.395 . S
C818 C821 1.403 . S
C819 C816 1.403 . S
C819 C820 1.524 . S
C819 C823 1.400 . S
C820 H805 0.960 . S
C820 H806 0.960 . S
C820 H807 0.960 . S
C820 C819 1.524 . S
C821 C818 1.403 . S
C821 C822 1.392 . S
C821 C825 1.495 . S
C822 C821 1.392 . S
C822 C823 1.385 . S
C822 C824 1.478 . S
C823 H817 0.930 . S
C823 C819 1.400 . S
C823 C822 1.385 . S
C824 C822 1.478 . S
C824 C826 1.381 . S
C824 C830 1.383 . S
C825 C821 1.495 . S
C825 H831 0.959 . S
C825 H832 0.961 . S
C825 H833 0.960 . S
C826 C824 1.381 . S
C826 C827 1.394 . S
C826 H834 0.930 . S
C827 C826 1.394 . S
C827 C828 1.383 . S
C827 H835 0.929 . S
C828 C827 1.383 . S
C828 C829 1.377 . S
C829 H813 0.930 . S
C829 C828 1.377 . S
C829 C830 1.379 . S
C830 H814 0.931 . S
C830 C824 1.383 . S
C830 C829 1.379 . S
H831 C825 0.959 . S
H832 C825 0.961 . S
H833 C825 0.960 . S
H834 C826 0.930 . S
H835 C827 0.929 . S
H836 C844 0.929 . S
H837 C846 0.930 . S
H838 C848 0.930 . S
H839 C851 0.929 . S
H840 C854 0.930 . S
H841 C856 0.960 . S
H842 C856 0.960 . S
H843 C856 0.960 . S
C844 H836 0.929 . S
C844 C845 1.377 . S
C844 C846 1.384 . S
C845 C844 1.377 . S
C845 C851 1.390 . S
C846 H837 0.930 . S
C846 C844 1.384 . S
C846 C847 1.372 . S
C847 C846 1.372 . S
C847 C848 1.400 . S
C847 C852 1.490 . S
C848 H838 0.930 . S
C848 C847 1.400 . S
C848 C851 1.386 . S
H849 C865 0.930 . S
H850 C866 0.931 . S
C851 H839 0.929 . S
C851 C845 1.390 . S
C851 C848 1.386 . S
C852 C847 1.490 . S
C852 C854 1.395 1_565 S
C852 C855 1.403 . S
H853 C859 0.930 . S
C854 H840 0.930 . S
C854 C852 1.395 1_545 S
C854 C857 1.403 . S
C855 C852 1.403 . S
C855 C856 1.524 . S
C855 C859 1.400 1_565 S
C856 H841 0.960 . S
C856 H842 0.960 . S
C856 H843 0.960 . S
C856 C855 1.524 . S
C857 C854 1.403 . S
C857 C858 1.392 . S
C857 C861 1.495 . S
C858 C857 1.392 . S
C858 C859 1.385 . S
C858 C860 1.478 . S
C859 H853 0.930 . S
C859 C855 1.400 1_545 S
C859 C858 1.385 . S
C860 C858 1.478 . S
C860 C862 1.381 . S
C860 C866 1.383 . S
C861 C857 1.495 . S
C861 H867 0.959 . S
C861 H868 0.961 . S
C861 H869 0.960 . S
C862 C860 1.381 . S
C862 C863 1.394 . S
C862 H870 0.930 . S
C863 C862 1.394 . S
C863 C864 1.383 . S
C863 H871 0.929 . S
C864 C863 1.383 . S
C864 C865 1.377 . S
C865 H849 0.930 . S
C865 C864 1.377 . S
C865 C866 1.379 . S
C866 H850 0.931 . S
C866 C860 1.383 . S
C866 C865 1.379 . S
H867 C861 0.959 . S
H868 C861 0.961 . S
H869 C861 0.960 . S
H870 C862 0.930 . S
H871 C863 0.929 . S
H872 C880 0.929 1_554 S
H873 C882 0.930 . S
H874 C884 0.930 . S
H875 C887 0.929 . S
H876 C890 0.930 . S
H877 C892 0.960 . S
H878 C892 0.960 . S
H879 C892 0.960 . S
C880 H872 0.929 1_556 S
C880 C881 1.377 . S
C880 C882 1.384 . S
C881 C880 1.377 . S
C881 C887 1.390 . S
C882 H873 0.930 . S
C882 C880 1.384 . S
C882 C883 1.372 . S
C883 C882 1.372 . S
C883 C884 1.400 . S
C883 C888 1.490 . S
C884 H874 0.930 . S
C884 C883 1.400 . S
C884 C887 1.386 . S
H885 C901 0.930 . S
H886 C902 0.931 . S
C887 H875 0.929 . S
C887 C881 1.390 . S
C887 C884 1.386 . S
C888 C883 1.490 . S
C888 C890 1.395 . S
C888 C891 1.403 . S
H889 C895 0.930 . S
C890 H876 0.930 . S
C890 C888 1.395 . S
C890 C893 1.403 . S
C891 C888 1.403 . S
C891 C892 1.524 . S
C891 C895 1.400 . S
C892 H877 0.960 . S
C892 H878 0.960 . S
C892 H879 0.960 . S
C892 C891 1.524 . S
C893 C890 1.403 . S
C893 C894 1.392 . S
C893 C897 1.495 . S
C894 C893 1.392 . S
C894 C895 1.385 . S
C894 C896 1.478 . S
C895 H889 0.930 . S
C895 C891 1.400 . S
C895 C894 1.385 . S
C896 C894 1.478 . S
C896 C898 1.381 . S
C896 C902 1.383 . S
C897 C893 1.495 . S
C897 H903 0.959 . S
C897 H904 0.961 . S
C897 H905 0.960 . S
C898 C896 1.381 . S
C898 C899 1.394 . S
C898 H906 0.930 . S
C899 C898 1.394 . S
C899 C900 1.383 . S
C899 H907 0.929 . S
C900 C899 1.383 . S
C900 C901 1.377 . S
C901 H885 0.930 . S
C901 C900 1.377 . S
C901 C902 1.379 . S
C902 H886 0.931 . S
C902 C896 1.383 . S
C902 C901 1.379 . S
H903 C897 0.959 . S
H904 C897 0.961 . S
H905 C897 0.960 . S
H906 C898 0.930 . S
H907 C899 0.929 . S
H908 C916 0.929 . S
H909 C918 0.930 . S
H910 C920 0.930 . S
H911 C923 0.929 . S
H912 C926 0.930 . S
H913 C928 0.960 . S
H914 C928 0.960 . S
H915 C928 0.960 . S
C916 H908 0.929 . S
C916 C917 1.377 . S
C916 C918 1.384 . S
C917 C916 1.377 . S
C917 C923 1.390 . S
C918 H909 0.930 . S
C918 C916 1.384 . S
C918 C919 1.372 . S
C919 C918 1.372 . S
C919 C920 1.400 . S
C919 C924 1.490 . S
C920 H910 0.930 . S
C920 C919 1.400 . S
C920 C923 1.386 . S
H921 C937 0.930 . S
H922 C938 0.931 . S
C923 H911 0.929 . S
C923 C917 1.390 . S
C923 C920 1.386 . S
C924 C919 1.490 . S
C924 C926 1.395 . S
C924 C927 1.403 . S
H925 C931 0.930 . S
C926 H912 0.930 . S
C926 C924 1.395 . S
C926 C929 1.403 . S
C927 C924 1.403 . S
C927 C928 1.524 . S
C927 C931 1.400 . S
C928 H913 0.960 . S
C928 H914 0.960 . S
C928 H915 0.960 . S
C928 C927 1.524 . S
C929 C926 1.403 . S
C929 C930 1.392 . S
C929 C933 1.495 . S
C930 C929 1.392 . S
C930 C931 1.385 . S
C930 C932 1.478 . S
C931 H925 0.930 . S
C931 C927 1.400 . S
C931 C930 1.385 . S
C932 C930 1.478 . S
C932 C934 1.381 . S
C932 C938 1.383 . S
C933 C929 1.495 . S
C933 H939 0.959 . S
C933 H940 0.961 . S
C933 H941 0.960 . S
C934 C932 1.381 . S
C934 C935 1.394 . S
C934 H942 0.930 . S
C935 C934 1.394 . S
C935 C936 1.383 . S
C935 H943 0.929 . S
C936 C935 1.383 . S
C936 C937 1.377 . S
C937 H921 0.930 . S
C937 C936 1.377 . S
C937 C938 1.379 . S
C938 H922 0.931 . S
C938 C932 1.383 . S
C938 C937 1.379 . S
H939 C933 0.959 . S
H940 C933 0.961 . S
H941 C933 0.960 . S
H942 C934 0.930 . S
H943 C935 0.929 . S
H944 C952 0.929 . S
H945 C954 0.930 . S
H946 C956 0.930 . S
H947 C959 0.929 . S
H948 C962 0.930 . S
H949 C964 0.960 . S
H950 C964 0.960 . S
H951 C964 0.960 . S
C952 H944 0.929 . S
C952 C953 1.377 . S
C952 C954 1.384 . S
C953 C952 1.377 . S
C953 C959 1.390 . S
C954 H945 0.930 . S
C954 C952 1.384 . S
C954 C955 1.372 . S
C955 C954 1.372 . S
C955 C956 1.400 . S
C955 C960 1.490 . S
C956 H946 0.930 . S
C956 C955 1.400 . S
C956 C959 1.386 . S
H957 C973 0.930 . S
H958 C974 0.931 . S
C959 H947 0.929 . S
C959 C953 1.390 . S
C959 C956 1.386 . S
C960 C955 1.490 . S
C960 C962 1.395 . S
C960 C963 1.403 . S
H961 C967 0.930 . S
C962 H948 0.930 . S
C962 C960 1.395 . S
C962 C965 1.403 . S
C963 C960 1.403 . S
C963 C964 1.524 . S
C963 C967 1.400 . S
C964 H949 0.960 . S
C964 H950 0.960 . S
C964 H951 0.960 . S
C964 C963 1.524 . S
C965 C962 1.403 . S
C965 C966 1.392 . S
C965 C969 1.495 . S
C966 C965 1.392 . S
C966 C967 1.385 . S
C966 C968 1.478 . S
C967 H961 0.930 . S
C967 C963 1.400 . S
C967 C966 1.385 . S
C968 C966 1.478 . S
C968 C970 1.381 . S
C968 C974 1.383 . S
C969 C965 1.495 . S
C969 H975 0.959 . S
C969 H976 0.961 . S
C969 H977 0.960 . S
C970 C968 1.381 . S
C970 C971 1.394 . S
C970 H978 0.930 . S
C971 C970 1.394 . S
C971 C972 1.383 . S
C971 H979 0.929 . S
C972 C971 1.383 . S
C972 C973 1.377 . S
C973 H957 0.930 . S
C973 C972 1.377 . S
C973 C974 1.379 . S
C974 H958 0.931 . S
C974 C968 1.383 . S
C974 C973 1.379 . S
H975 C969 0.959 . S
H976 C969 0.961 . S
H977 C969 0.960 . S
H978 C970 0.930 . S
H979 C971 0.929 . S
H980 C988 0.929 . S
H981 C990 0.930 . S
H982 C992 0.930 . S
H983 C995 0.929 . S
H984 C998 0.930 . S
H985 C1000 0.960 . S
H986 C1000 0.960 . S
H987 C1000 0.960 . S
C988 H980 0.929 . S
C988 C989 1.377 . S
C988 C990 1.384 . S
C989 C988 1.377 . S
C989 C995 1.390 . S
C990 H981 0.930 . S
C990 C988 1.384 . S
C990 C991 1.372 . S
C991 C990 1.372 . S
C991 C992 1.400 . S
C991 C996 1.490 . S
C992 H982 0.930 . S
C992 C991 1.400 . S
C992 C995 1.386 . S
H993 C1009 0.930 . S
H994 C1010 0.931 . S
C995 H983 0.929 . S
C995 C989 1.390 . S
C995 C992 1.386 . S
C996 C991 1.490 . S
C996 C998 1.395 . S
C996 C999 1.403 . S
H997 C1003 0.930 . S
C998 H984 0.930 . S
C998 C996 1.395 . S
C998 C1001 1.403 . S
C999 C996 1.403 . S
C999 C1000 1.524 . S
C999 C1003 1.400 . S
C1000 H985 0.960 . S
C1000 H986 0.960 . S
C1000 H987 0.960 . S
C1000 C999 1.524 . S
C1001 C998 1.403 . S
C1001 C1002 1.392 . S
C1001 C1005 1.495 . S
C1002 C1001 1.392 . S
C1002 C1003 1.385 . S
C1002 C1004 1.478 . S
C1003 H997 0.930 . S
C1003 C999 1.400 . S
C1003 C1002 1.385 . S
C1004 C1002 1.478 . S
C1004 C1006 1.381 . S
C1004 C1010 1.383 . S
C1005 C1001 1.495 . S
C1005 H1011 0.959 . S
C1005 H1012 0.961 . S
C1005 H1013 0.960 . S
C1006 C1004 1.381 . S
C1006 C1007 1.394 . S
C1006 H1014 0.930 . S
C1007 C1006 1.394 . S
C1007 C1008 1.383 . S
C1007 H1015 0.929 . S
C1008 C1007 1.383 . S
C1008 C1009 1.377 . S
C1009 H993 0.930 . S
C1009 C1008 1.377 . S
C1009 C1010 1.379 . S
C1010 H994 0.931 . S
C1010 C1004 1.383 . S
C1010 C1009 1.379 . S
H1011 C1005 0.959 . S
H1012 C1005 0.961 . S
H1013 C1005 0.960 . S
H1014 C1006 0.930 . S
H1015 C1007 0.929 . S
H1016 C1024 0.929 . S
H1017 C1026 0.930 . S
H1018 C1028 0.930 . S
H1019 C1031 0.929 . S
H1020 C1034 0.930 . S
H1021 C1036 0.960 . S
H1022 C1036 0.960 . S
H1023 C1036 0.960 . S
C1024 H1016 0.929 . S
C1024 C1025 1.377 . S
C1024 C1026 1.384 . S
C1025 C1024 1.377 . S
C1025 C1031 1.390 . S
C1026 H1017 0.930 . S
C1026 C1024 1.384 . S
C1026 C1027 1.372 . S
C1027 C1026 1.372 . S
C1027 C1028 1.400 . S
C1027 C1032 1.490 . S
C1028 H1018 0.930 . S
C1028 C1027 1.400 . S
C1028 C1031 1.386 . S
H1029 C1045 0.930 . S
H1030 C1046 0.931 . S
C1031 H1019 0.929 . S
C1031 C1025 1.390 . S
C1031 C1028 1.386 . S
C1032 C1027 1.490 . S
C1032 C1034 1.395 . S
C1032 C1035 1.403 . S
H1033 C1039 0.930 . S
C1034 H1020 0.930 . S
C1034 C1032 1.395 . S
C1034 C1037 1.403 . S
C1035 C1032 1.403 . S
C1035 C1036 1.524 . S
C1035 C1039 1.400 . S
C1036 H1021 0.960 . S
C1036 H1022 0.960 . S
C1036 H1023 0.960 . S
C1036 C1035 1.524 . S
C1037 C1034 1.403 . S
C1037 C1038 1.392 . S
C1037 C1041 1.495 . S
C1038 C1037 1.392 . S
C1038 C1039 1.385 . S
C1038 C1040 1.478 . S
C1039 H1033 0.930 . S
C1039 C1035 1.400 . S
C1039 C1038 1.385 . S
C1040 C1038 1.478 . S
C1040 C1042 1.381 . S
C1040 C1046 1.383 . S
C1041 C1037 1.495 . S
C1041 H1047 0.959 . S
C1041 H1048 0.961 . S
C1041 H1049 0.960 . S
C1042 C1040 1.381 . S
C1042 C1043 1.394 . S
C1042 H1050 0.930 . S
C1043 C1042 1.394 . S
C1043 C1044 1.383 . S
C1043 H1051 0.929 . S
C1044 C1043 1.383 . S
C1044 C1045 1.377 . S
C1045 H1029 0.930 . S
C1045 C1044 1.377 . S
C1045 C1046 1.379 . S
C1046 H1030 0.931 . S
C1046 C1040 1.383 . S
C1046 C1045 1.379 . S
H1047 C1041 0.959 . S
H1048 C1041 0.961 . S
H1049 C1041 0.960 . S
H1050 C1042 0.930 . S
H1051 C1043 0.929 . S
H1052 C1060 0.929 . S
H1053 C1062 0.930 . S
H1054 C1064 0.930 . S
H1055 C1067 0.929 . S
H1056 C1070 0.930 . S
H1057 C1072 0.960 . S
H1058 C1072 0.960 . S
H1059 C1072 0.960 . S
C1060 H1052 0.929 . S
C1060 C1061 1.377 . S
C1060 C1062 1.384 . S
C1061 C1060 1.377 . S
C1061 C1067 1.390 . S
C1062 H1053 0.930 . S
C1062 C1060 1.384 . S
C1062 C1063 1.372 . S
C1063 C1062 1.372 . S
C1063 C1064 1.400 . S
C1063 C1068 1.490 . S
C1064 H1054 0.930 . S
C1064 C1063 1.400 . S
C1064 C1067 1.386 . S
H1065 C1081 0.930 . S
H1066 C1082 0.931 . S
C1067 H1055 0.929 . S
C1067 C1061 1.390 . S
C1067 C1064 1.386 . S
C1068 C1063 1.490 . S
C1068 C1070 1.395 . S
C1068 C1071 1.403 . S
H1069 C1075 0.930 . S
C1070 H1056 0.930 . S
C1070 C1068 1.395 . S
C1070 C1073 1.403 . S
C1071 C1068 1.403 . S
C1071 C1072 1.524 . S
C1071 C1075 1.400 . S
C1072 H1057 0.960 . S
C1072 H1058 0.960 . S
C1072 H1059 0.960 . S
C1072 C1071 1.524 . S
C1073 C1070 1.403 . S
C1073 C1074 1.392 . S
C1073 C1077 1.495 . S
C1074 C1073 1.392 . S
C1074 C1075 1.385 . S
C1074 C1076 1.478 . S
C1075 H1069 0.930 . S
C1075 C1071 1.400 . S
C1075 C1074 1.385 . S
C1076 C1074 1.478 . S
C1076 C1078 1.381 . S
C1076 C1082 1.383 . S
C1077 C1073 1.495 . S
C1077 H1083 0.959 . S
C1077 H1084 0.961 . S
C1077 H1085 0.960 . S
C1078 C1076 1.381 . S
C1078 C1079 1.394 . S
C1078 H1086 0.930 . S
C1079 C1078 1.394 . S
C1079 C1080 1.383 . S
C1079 H1087 0.929 . S
C1080 C1079 1.383 . S
C1080 C1081 1.377 . S
C1081 H1065 0.930 . S
C1081 C1080 1.377 . S
C1081 C1082 1.379 . S
C1082 H1066 0.931 . S
C1082 C1076 1.383 . S
C1082 C1081 1.379 . S
H1083 C1077 0.959 . S
H1084 C1077 0.961 . S
H1085 C1077 0.960 . S
H1086 C1078 0.930 . S
H1087 C1079 0.929 . S
H1088 C1096 0.929 . S
H1089 C1098 0.930 . S
H1090 C1100 0.930 . S
H1091 C1103 0.929 . S
H1092 C1106 0.930 . S
H1093 C1108 0.960 . S
H1094 C1108 0.960 . S
H1095 C1108 0.960 . S
C1096 H1088 0.929 . S
C1096 C1097 1.377 . S
C1096 C1098 1.384 . S
C1097 C1096 1.377 . S
C1097 C1103 1.390 . S
C1098 H1089 0.930 . S
C1098 C1096 1.384 . S
C1098 C1099 1.372 . S
C1099 C1098 1.372 . S
C1099 C1100 1.400 . S
C1099 C1104 1.490 . S
C1100 H1090 0.930 . S
C1100 C1099 1.400 . S
C1100 C1103 1.386 . S
H1101 C1117 0.930 . S
H1102 C1118 0.931 . S
C1103 H1091 0.929 . S
C1103 C1097 1.390 . S
C1103 C1100 1.386 . S
C1104 C1099 1.490 . S
C1104 C1106 1.395 . S
C1104 C1107 1.403 . S
H1105 C1111 0.930 . S
C1106 H1092 0.930 . S
C1106 C1104 1.395 . S
C1106 C1109 1.403 . S
C1107 C1104 1.403 . S
C1107 C1108 1.524 . S
C1107 C1111 1.400 . S
C1108 H1093 0.960 . S
C1108 H1094 0.960 . S
C1108 H1095 0.960 . S
C1108 C1107 1.524 . S
C1109 C1106 1.403 . S
C1109 C1110 1.392 . S
C1109 C1113 1.495 . S
C1110 C1109 1.392 . S
C1110 C1111 1.385 . S
C1110 C1112 1.478 . S
C1111 H1105 0.930 . S
C1111 C1107 1.400 . S
C1111 C1110 1.385 . S
C1112 C1110 1.478 . S
C1112 C1114 1.381 . S
C1112 C1118 1.383 . S
C1113 C1109 1.495 . S
C1113 H1119 0.959 . S
C1113 H1120 0.961 . S
C1113 H1121 0.960 . S
C1114 C1112 1.381 . S
C1114 C1115 1.394 . S
C1114 H1122 0.930 . S
C1115 C1114 1.394 . S
C1115 C1116 1.383 . S
C1115 H1123 0.929 . S
C1116 C1115 1.383 . S
C1116 C1117 1.377 . S
C1117 H1101 0.930 . S
C1117 C1116 1.377 . S
C1117 C1118 1.379 . S
C1118 H1102 0.931 . S
C1118 C1112 1.383 . S
C1118 C1117 1.379 . S
H1119 C1113 0.959 . S
H1120 C1113 0.961 . S
H1121 C1113 0.960 . S
H1122 C1114 0.930 . S
H1123 C1115 0.929 . S
H1124 C1132 0.929 . S
H1125 C1134 0.930 . S
H1126 C1136 0.930 . S
H1127 C1139 0.929 . S
H1128 C1142 0.930 . S
H1129 C1144 0.960 . S
H1130 C1144 0.960 . S
H1131 C1144 0.960 . S
C1132 H1124 0.929 . S
C1132 C1133 1.377 . S
C1132 C1134 1.384 . S
C1133 C1132 1.377 . S
C1133 C1139 1.390 . S
C1134 H1125 0.930 . S
C1134 C1132 1.384 . S
C1134 C1135 1.372 . S
C1135 C1134 1.372 . S
C1135 C1136 1.400 . S
C1135 C1140 1.490 . S
C1136 H1126 0.930 . S
C1136 C1135 1.400 . S
C1136 C1139 1.386 . S
H1137 C1153 0.930 . S
H1138 C1154 0.931 . S
C1139 H1127 0.929 . S
C1139 C1133 1.390 . S
C1139 C1136 1.386 . S
C1140 C1135 1.490 . S
C1140 C1142 1.395 . S
C1140 C1143 1.403 . S
H1141 C1147 0.930 . S
C1142 H1128 0.930 . S
C1142 C1140 1.395 . S
C1142 C1145 1.403 . S
C1143 C1140 1.403 . S
C1143 C1144 1.524 . S
C1143 C1147 1.400 . S
C1144 H1129 0.960 . S
C1144 H1130 0.960 . S
C1144 H1131 0.960 . S
C1144 C1143 1.524 . S
C1145 C1142 1.403 . S
C1145 C1146 1.392 . S
C1145 C1149 1.495 . S
C1146 C1145 1.392 . S
C1146 C1147 1.385 . S
C1146 C1148 1.478 . S
C1147 H1141 0.930 . S
C1147 C1143 1.400 . S
C1147 C1146 1.385 . S
C1148 C1146 1.478 . S
C1148 C1150 1.381 . S
C1148 C1154 1.383 . S
C1149 C1145 1.495 . S
C1149 H1155 0.959 . S
C1149 H1156 0.961 . S
C1149 H1157 0.960 . S
C1150 C1148 1.381 . S
C1150 C1151 1.394 . S
C1150 H1158 0.930 . S
C1151 C1150 1.394 . S
C1151 C1152 1.383 . S
C1151 H1159 0.929 . S
C1152 C1151 1.383 . S
C1152 C1153 1.377 . S
C1153 H1137 0.930 . S
C1153 C1152 1.377 . S
C1153 C1154 1.379 . S
C1154 H1138 0.931 . S
C1154 C1148 1.383 . S
C1154 C1153 1.379 . S
H1155 C1149 0.959 . S
H1156 C1149 0.961 . S
H1157 C1149 0.960 . S
H1158 C1150 0.930 . S
H1159 C1151 0.929 . S
H1160 C1168 0.929 . S
H1161 C1170 0.930 . S
H1162 C1172 0.930 . S
H1163 C1175 0.929 . S
H1164 C1178 0.930 . S
H1165 C1180 0.960 . S
H1166 C1180 0.960 . S
H1167 C1180 0.960 . S
C1168 H1160 0.929 . S
C1168 C1169 1.377 . S
C1168 C1170 1.384 . S
C1169 C1168 1.377 . S
C1169 C1175 1.390 . S
C1170 H1161 0.930 . S
C1170 C1168 1.384 . S
C1170 C1171 1.372 . S
C1171 C1170 1.372 . S
C1171 C1172 1.400 . S
C1171 C1176 1.490 . S
C1172 H1162 0.930 . S
C1172 C1171 1.400 . S
C1172 C1175 1.386 . S
H1173 C1189 0.930 . S
H1174 C1190 0.931 . S
C1175 H1163 0.929 . S
C1175 C1169 1.390 . S
C1175 C1172 1.386 . S
C1176 C1171 1.490 . S
C1176 C1178 1.395 . S
C1176 C1179 1.403 . S
H1177 C1183 0.930 . S
C1178 H1164 0.930 . S
C1178 C1176 1.395 . S
C1178 C1181 1.403 . S
C1179 C1176 1.403 . S
C1179 C1180 1.524 . S
C1179 C1183 1.400 . S
C1180 H1165 0.960 . S
C1180 H1166 0.960 . S
C1180 H1167 0.960 . S
C1180 C1179 1.524 . S
C1181 C1178 1.403 . S
C1181 C1182 1.392 . S
C1181 C1185 1.495 . S
C1182 C1181 1.392 . S
C1182 C1183 1.385 . S
C1182 C1184 1.478 . S
C1183 H1177 0.930 . S
C1183 C1179 1.400 . S
C1183 C1182 1.385 . S
C1184 C1182 1.478 . S
C1184 C1186 1.381 . S
C1184 C1190 1.383 . S
C1185 C1181 1.495 . S
C1185 H1191 0.959 . S
C1185 H1192 0.961 . S
C1185 H1193 0.960 . S
C1186 C1184 1.381 . S
C1186 C1187 1.394 . S
C1186 H1194 0.930 . S
C1187 C1186 1.394 . S
C1187 C1188 1.383 . S
C1187 H1195 0.929 . S
C1188 C1187 1.383 . S
C1188 C1189 1.377 . S
C1189 H1173 0.930 . S
C1189 C1188 1.377 . S
C1189 C1190 1.379 . S
C1190 H1174 0.931 . S
C1190 C1184 1.383 . S
C1190 C1189 1.379 . S
H1191 C1185 0.959 . S
H1192 C1185 0.961 . S
H1193 C1185 0.960 . S
H1194 C1186 0.930 . S
H1195 C1187 0.929 . S
H1196 C1204 0.929 . S
H1197 C1206 0.930 . S
H1198 C1208 0.930 . S
H1199 C1211 0.929 . S
H1200 C1214 0.930 . S
H1201 C1216 0.960 . S
H1202 C1216 0.960 . S
H1203 C1216 0.960 . S
C1204 H1196 0.929 . S
C1204 C1205 1.377 . S
C1204 C1206 1.384 . S
C1205 C1204 1.377 . S
C1205 C1211 1.390 . S
C1206 H1197 0.930 . S
C1206 C1204 1.384 . S
C1206 C1207 1.372 . S
C1207 C1206 1.372 . S
C1207 C1208 1.400 . S
C1207 C1212 1.490 . S
C1208 H1198 0.930 . S
C1208 C1207 1.400 . S
C1208 C1211 1.386 . S
H1209 C1225 0.930 . S
H1210 C1226 0.931 . S
C1211 H1199 0.929 . S
C1211 C1205 1.390 . S
C1211 C1208 1.386 . S
C1212 C1207 1.490 . S
C1212 C1214 1.395 . S
C1212 C1215 1.403 . S
H1213 C1219 0.930 . S
C1214 H1200 0.930 . S
C1214 C1212 1.395 . S
C1214 C1217 1.403 . S
C1215 C1212 1.403 . S
C1215 C1216 1.524 . S
C1215 C1219 1.400 . S
C1216 H1201 0.960 . S
C1216 H1202 0.960 . S
C1216 H1203 0.960 . S
C1216 C1215 1.524 . S
C1217 C1214 1.403 . S
C1217 C1218 1.392 . S
C1217 C1221 1.495 . S
C1218 C1217 1.392 . S
C1218 C1219 1.385 . S
C1218 C1220 1.478 . S
C1219 H1213 0.930 . S
C1219 C1215 1.400 . S
C1219 C1218 1.385 . S
C1220 C1218 1.478 . S
C1220 C1222 1.381 . S
C1220 C1226 1.383 . S
C1221 C1217 1.495 . S
C1221 H1227 0.959 . S
C1221 H1228 0.961 . S
C1221 H1229 0.960 . S
C1222 C1220 1.381 . S
C1222 C1223 1.394 . S
C1222 H1230 0.930 . S
C1223 C1222 1.394 . S
C1223 C1224 1.383 . S
C1223 H1231 0.929 . S
C1224 C1223 1.383 . S
C1224 C1225 1.377 . S
C1225 H1209 0.930 . S
C1225 C1224 1.377 . S
C1225 C1226 1.379 . S
C1226 H1210 0.931 . S
C1226 C1220 1.383 . S
C1226 C1225 1.379 . S
H1227 C1221 0.959 . S
H1228 C1221 0.961 . S
H1229 C1221 0.960 . S
H1230 C1222 0.930 . S
H1231 C1223 0.929 . S
H1232 C1240 0.929 . S
H1233 C1242 0.930 . S
H1234 C1244 0.930 . S
H1235 C1247 0.929 . S
H1236 C1250 0.930 . S
H1237 C1252 0.960 . S
H1238 C1252 0.960 . S
H1239 C1252 0.960 . S
C1240 H1232 0.929 . S
C1240 C1241 1.377 . S
C1240 C1242 1.384 . S
C1241 C1240 1.377 . S
C1241 C1247 1.390 . S
C1242 H1233 0.930 . S
C1242 C1240 1.384 . S
C1242 C1243 1.372 . S
C1243 C1242 1.372 . S
C1243 C1244 1.400 . S
C1243 C1248 1.490 . S
C1244 H1234 0.930 . S
C1244 C1243 1.400 . S
C1244 C1247 1.386 . S
H1245 C1261 0.930 . S
H1246 C1262 0.931 . S
C1247 H1235 0.929 . S
C1247 C1241 1.390 . S
C1247 C1244 1.386 . S
C1248 C1243 1.490 . S
C1248 C1250 1.395 . S
C1248 C1251 1.403 . S
H1249 C1255 0.930 . S
C1250 H1236 0.930 . S
C1250 C1248 1.395 . S
C1250 C1253 1.403 . S
C1251 C1248 1.403 . S
C1251 C1252 1.524 . S
C1251 C1255 1.400 . S
C1252 H1237 0.960 . S
C1252 H1238 0.960 . S
C1252 H1239 0.960 . S
C1252 C1251 1.524 . S
C1253 C1250 1.403 . S
C1253 C1254 1.392 . S
C1253 C1257 1.495 . S
C1254 C1253 1.392 . S
C1254 C1255 1.385 . S
C1254 C1256 1.478 . S
C1255 H1249 0.930 . S
C1255 C1251 1.400 . S
C1255 C1254 1.385 . S
C1256 C1254 1.478 . S
C1256 C1258 1.381 . S
C1256 C1262 1.383 . S
C1257 C1253 1.495 . S
C1257 H1263 0.959 . S
C1257 H1264 0.961 . S
C1257 H1265 0.960 . S
C1258 C1256 1.381 . S
C1258 C1259 1.394 . S
C1258 H1266 0.930 . S
C1259 C1258 1.394 . S
C1259 C1260 1.383 . S
C1259 H1267 0.929 . S
C1260 C1259 1.383 . S
C1260 C1261 1.377 . S
C1261 H1245 0.930 . S
C1261 C1260 1.377 . S
C1261 C1262 1.379 . S
C1262 H1246 0.931 . S
C1262 C1256 1.383 . S
C1262 C1261 1.379 . S
H1263 C1257 0.959 . S
H1264 C1257 0.961 . S
H1265 C1257 0.960 . S
H1266 C1258 0.930 . S
H1267 C1259 0.929 . S
H1268 C1276 0.929 . S
H1269 C1278 0.930 . S
H1270 C1280 0.930 . S
H1271 C1283 0.929 . S
H1272 C1286 0.930 . S
H1273 C1288 0.960 . S
H1274 C1288 0.960 . S
H1275 C1288 0.960 . S
C1276 H1268 0.929 . S
C1276 C1277 1.377 . S
C1276 C1278 1.384 . S
C1277 C1276 1.377 . S
C1277 C1283 1.390 . S
C1278 H1269 0.930 . S
C1278 C1276 1.384 . S
C1278 C1279 1.372 . S
C1279 C1278 1.372 . S
C1279 C1280 1.400 . S
C1279 C1284 1.490 . S
C1280 H1270 0.930 . S
C1280 C1279 1.400 . S
C1280 C1283 1.386 . S
H1281 C1297 0.930 . S
H1282 C1298 0.931 . S
C1283 H1271 0.929 . S
C1283 C1277 1.390 . S
C1283 C1280 1.386 . S
C1284 C1279 1.490 . S
C1284 C1286 1.395 . S
C1284 C1287 1.403 . S
H1285 C1291 0.930 . S
C1286 H1272 0.930 . S
C1286 C1284 1.395 . S
C1286 C1289 1.403 . S
C1287 C1284 1.403 . S
C1287 C1288 1.524 . S
C1287 C1291 1.400 . S
C1288 H1273 0.960 . S
C1288 H1274 0.960 . S
C1288 H1275 0.960 . S
C1288 C1287 1.524 . S
C1289 C1286 1.403 . S
C1289 C1290 1.392 . S
C1289 C1293 1.495 . S
C1290 C1289 1.392 . S
C1290 C1291 1.385 . S
C1290 C1292 1.478 . S
C1291 H1285 0.930 . S
C1291 C1287 1.400 . S
C1291 C1290 1.385 . S
C1292 C1290 1.478 . S
C1292 C1294 1.381 . S
C1292 C1298 1.383 . S
C1293 C1289 1.495 . S
C1293 H1299 0.959 . S
C1293 H1300 0.961 . S
C1293 H1301 0.960 . S
C1294 C1292 1.381 . S
C1294 C1295 1.394 . S
C1294 H1302 0.930 . S
C1295 C1294 1.394 . S
C1295 C1296 1.383 . S
C1295 H1303 0.929 . S
C1296 C1295 1.383 . S
C1296 C1297 1.377 . S
C1297 H1281 0.930 . S
C1297 C1296 1.377 . S
C1297 C1298 1.379 . S
C1298 H1282 0.931 . S
C1298 C1292 1.383 . S
C1298 C1297 1.379 . S
H1299 C1293 0.959 . S
H1300 C1293 0.961 . S
H1301 C1293 0.960 . S
H1302 C1294 0.930 . S
H1303 C1295 0.929 . S
H1304 C1312 0.929 . S
H1305 C1314 0.930 . S
H1306 C1316 0.930 . S
H1307 C1319 0.929 . S
H1308 C1322 0.930 . S
H1309 C1324 0.960 . S
H1310 C1324 0.960 . S
H1311 C1324 0.960 . S
C1312 H1304 0.929 . S
C1312 C1313 1.377 . S
C1312 C1314 1.384 . S
C1313 C1312 1.377 . S
C1313 C1319 1.390 . S
C1314 H1305 0.930 . S
C1314 C1312 1.384 . S
C1314 C1315 1.372 . S
C1315 C1314 1.372 . S
C1315 C1316 1.400 . S
C1315 C1320 1.490 . S
C1316 H1306 0.930 . S
C1316 C1315 1.400 . S
C1316 C1319 1.386 . S
H1317 C1333 0.930 . S
H1318 C1334 0.931 . S
C1319 H1307 0.929 . S
C1319 C1313 1.390 . S
C1319 C1316 1.386 . S
C1320 C1315 1.490 . S
C1320 C1322 1.395 . S
C1320 C1323 1.403 . S
H1321 C1327 0.930 . S
C1322 H1308 0.930 . S
C1322 C1320 1.395 . S
C1322 C1325 1.403 . S
C1323 C1320 1.403 . S
C1323 C1324 1.524 . S
C1323 C1327 1.400 . S
C1324 H1309 0.960 . S
C1324 H1310 0.960 . S
C1324 H1311 0.960 . S
C1324 C1323 1.524 . S
C1325 C1322 1.403 . S
C1325 C1326 1.392 . S
C1325 C1329 1.495 . S
C1326 C1325 1.392 . S
C1326 C1327 1.385 . S
C1326 C1328 1.478 . S
C1327 H1321 0.930 . S
C1327 C1323 1.400 . S
C1327 C1326 1.385 . S
C1328 C1326 1.478 . S
C1328 C1330 1.381 . S
C1328 C1334 1.383 . S
C1329 C1325 1.495 . S
C1329 H1335 0.959 . S
C1329 H1336 0.961 . S
C1329 H1337 0.960 . S
C1330 C1328 1.381 . S
C1330 C1331 1.394 . S
C1330 H1338 0.930 . S
C1331 C1330 1.394 . S
C1331 C1332 1.383 . S
C1331 H1339 0.929 . S
C1332 C1331 1.383 . S
C1332 C1333 1.377 . S
C1333 H1317 0.930 . S
C1333 C1332 1.377 . S
C1333 C1334 1.379 . S
C1334 H1318 0.931 . S
C1334 C1328 1.383 . S
C1334 C1333 1.379 . S
H1335 C1329 0.959 . S
H1336 C1329 0.961 . S
H1337 C1329 0.960 . S
H1338 C1330 0.930 . S
H1339 C1331 0.929 . S
H1340 C1348 0.929 . S
H1341 C1350 0.930 . S
H1342 C1352 0.930 . S
H1343 C1355 0.929 . S
H1344 C1358 0.930 . S
H1345 C1360 0.960 . S
H1346 C1360 0.960 . S
H1347 C1360 0.960 . S
C1348 H1340 0.929 . S
C1348 C1349 1.377 . S
C1348 C1350 1.384 . S
C1349 C1348 1.377 . S
C1349 C1355 1.390 . S
C1350 H1341 0.930 . S
C1350 C1348 1.384 . S
C1350 C1351 1.372 . S
C1351 C1350 1.372 . S
C1351 C1352 1.400 . S
C1351 C1356 1.490 . S
C1352 H1342 0.930 . S
C1352 C1351 1.400 . S
C1352 C1355 1.386 . S
H1353 C1369 0.930 . S
H1354 C1370 0.931 . S
C1355 H1343 0.929 . S
C1355 C1349 1.390 . S
C1355 C1352 1.386 . S
C1356 C1351 1.490 . S
C1356 C1358 1.395 . S
C1356 C1359 1.403 . S
H1357 C1363 0.930 . S
C1358 H1344 0.930 . S
C1358 C1356 1.395 . S
C1358 C1361 1.403 . S
C1359 C1356 1.403 . S
C1359 C1360 1.524 . S
C1359 C1363 1.400 . S
C1360 H1345 0.960 . S
C1360 H1346 0.960 . S
C1360 H1347 0.960 . S
C1360 C1359 1.524 . S
C1361 C1358 1.403 . S
C1361 C1362 1.392 . S
C1361 C1365 1.495 . S
C1362 C1361 1.392 . S
C1362 C1363 1.385 . S
C1362 C1364 1.478 . S
C1363 H1357 0.930 . S
C1363 C1359 1.400 . S
C1363 C1362 1.385 . S
C1364 C1362 1.478 . S
C1364 C1366 1.381 . S
C1364 C1370 1.383 . S
C1365 C1361 1.495 . S
C1365 H1371 0.959 . S
C1365 H1372 0.961 . S
C1365 H1373 0.960 . S
C1366 C1364 1.381 . S
C1366 C1367 1.394 . S
C1366 H1374 0.930 . S
C1367 C1366 1.394 . S
C1367 C1368 1.383 . S
C1367 H1375 0.929 . S
C1368 C1367 1.383 . S
C1368 C1369 1.377 . S
C1369 H1353 0.930 . S
C1369 C1368 1.377 . S
C1369 C1370 1.379 . S
C1370 H1354 0.931 . S
C1370 C1364 1.383 . S
C1370 C1369 1.379 . S
H1371 C1365 0.959 . S
H1372 C1365 0.961 . S
H1373 C1365 0.960 . S
H1374 C1366 0.930 . S
H1375 C1367 0.929 . S
H1376 C1384 0.929 . S
H1377 C1386 0.930 . S
H1378 C1388 0.930 . S
H1379 C1391 0.929 . S
H1380 C1394 0.930 . S
H1381 C1396 0.960 . S
H1382 C1396 0.960 . S
H1383 C1396 0.960 . S
C1384 H1376 0.929 . S
C1384 C1385 1.377 . S
C1384 C1386 1.384 . S
C1385 C1384 1.377 . S
C1385 C1391 1.390 . S
C1386 H1377 0.930 . S
C1386 C1384 1.384 . S
C1386 C1387 1.372 . S
C1387 C1386 1.372 . S
C1387 C1388 1.400 . S
C1387 C1392 1.490 . S
C1388 H1378 0.930 . S
C1388 C1387 1.400 . S
C1388 C1391 1.386 . S
H1389 C1405 0.930 . S
H1390 C1406 0.931 . S
C1391 H1379 0.929 . S
C1391 C1385 1.390 . S
C1391 C1388 1.386 . S
C1392 C1387 1.490 . S
C1392 C1394 1.395 . S
C1392 C1395 1.403 . S
H1393 C1399 0.930 . S
C1394 H1380 0.930 . S
C1394 C1392 1.395 . S
C1394 C1397 1.403 . S
C1395 C1392 1.403 . S
C1395 C1396 1.524 . S
C1395 C1399 1.400 . S
C1396 H1381 0.960 . S
C1396 H1382 0.960 . S
C1396 H1383 0.960 . S
C1396 C1395 1.524 . S
C1397 C1394 1.403 . S
C1397 C1398 1.392 . S
C1397 C1401 1.495 . S
C1398 C1397 1.392 . S
C1398 C1399 1.385 . S
C1398 C1400 1.478 . S
C1399 H1393 0.930 . S
C1399 C1395 1.400 . S
C1399 C1398 1.385 . S
C1400 C1398 1.478 . S
C1400 C1402 1.381 . S
C1400 C1406 1.383 . S
C1401 C1397 1.495 . S
C1401 H1407 0.959 . S
C1401 H1408 0.961 . S
C1401 H1409 0.960 . S
C1402 C1400 1.381 . S
C1402 C1403 1.394 . S
C1402 H1410 0.930 . S
C1403 C1402 1.394 . S
C1403 C1404 1.383 . S
C1403 H1411 0.929 . S
C1404 C1403 1.383 . S
C1404 C1405 1.377 . S
C1405 H1389 0.930 . S
C1405 C1404 1.377 . S
C1405 C1406 1.379 . S
C1406 H1390 0.931 . S
C1406 C1400 1.383 . S
C1406 C1405 1.379 . S
H1407 C1401 0.959 . S
H1408 C1401 0.961 . S
H1409 C1401 0.960 . S
H1410 C1402 0.930 . S
H1411 C1403 0.929 . S
H1412 C1420 0.929 . S
H1413 C1422 0.930 . S
H1414 C1424 0.930 . S
H1415 C1427 0.929 . S
H1416 C1430 0.930 . S
H1417 C1432 0.960 . S
H1418 C1432 0.960 . S
H1419 C1432 0.960 . S
C1420 H1412 0.929 . S
C1420 C1421 1.377 . S
C1420 C1422 1.384 . S
C1421 C1420 1.377 . S
C1421 C1427 1.390 . S
C1422 H1413 0.930 . S
C1422 C1420 1.384 . S
C1422 C1423 1.372 . S
C1423 C1422 1.372 . S
C1423 C1424 1.400 . S
C1423 C1428 1.490 . S
C1424 H1414 0.930 . S
C1424 C1423 1.400 . S
C1424 C1427 1.386 . S
H1425 C1441 0.930 . S
H1426 C1442 0.931 . S
C1427 H1415 0.929 . S
C1427 C1421 1.390 . S
C1427 C1424 1.386 . S
C1428 C1423 1.490 . S
C1428 C1430 1.395 . S
C1428 C1431 1.403 . S
H1429 C1435 0.930 . S
C1430 H1416 0.930 . S
C1430 C1428 1.395 . S
C1430 C1433 1.403 . S
C1431 C1428 1.403 . S
C1431 C1432 1.524 . S
C1431 C1435 1.400 . S
C1432 H1417 0.960 . S
C1432 H1418 0.960 . S
C1432 H1419 0.960 . S
C1432 C1431 1.524 . S
C1433 C1430 1.403 . S
C1433 C1434 1.392 . S
C1433 C1437 1.495 . S
C1434 C1433 1.392 . S
C1434 C1435 1.385 . S
C1434 C1436 1.478 . S
C1435 H1429 0.930 . S
C1435 C1431 1.400 . S
C1435 C1434 1.385 . S
C1436 C1434 1.478 . S
C1436 C1438 1.381 . S
C1436 C1442 1.383 . S
C1437 C1433 1.495 . S
C1437 H1443 0.959 . S
C1437 H1444 0.961 . S
C1437 H1445 0.960 . S
C1438 C1436 1.381 . S
C1438 C1439 1.394 . S
C1438 H1446 0.930 . S
C1439 C1438 1.394 . S
C1439 C1440 1.383 . S
C1439 H1447 0.929 . S
C1440 C1439 1.383 . S
C1440 C1441 1.377 . S
C1441 H1425 0.930 . S
C1441 C1440 1.377 . S
C1441 C1442 1.379 . S
C1442 H1426 0.931 . S
C1442 C1436 1.383 . S
C1442 C1441 1.379 . S
H1443 C1437 0.959 . S
H1444 C1437 0.961 . S
H1445 C1437 0.960 . S
H1446 C1438 0.930 . S
H1447 C1439 0.929 . S
C324 C217 1.550 . S
C305 C17 1.491 . S
C341 C30 1.462 . S
C360 C249 1.504 . S
C377 C61 1.458 1_556 S
C396 C272 1.505 . S
C432 C176 1.534 . S
C413 C72 1.504 . S
C468 C259 1.346 . S
C449 C19 1.460 . S
C504 C288 1.409 . S
C485 C33 1.444 . S
C540 C192 1.433 . S
C521 C59 1.470 . S
C576 C227 1.363 . S
C557 C75 1.417 . S
C593 C12 1.433 . S
C612 C255 1.394 . S
C629 C101 1.440 . S
C648 C230 1.400 . S
C665 C51 1.408 . S
C684 C198 1.370 . S
C720 C287 1.350 . S
C701 C124 1.409 . S
C756 C231 1.540 . S
C737 C9 1.487 1_565 S
C773 C103 1.483 . S
C792 C199 1.531 . S
C809 C54 1.501 1_556 S
C828 C286 1.557 . S
C864 C254 1.564 . S
C845 C122 1.512 . S
C881 C145 1.464 1_556 S
C900 C281 1.498 . S
C917 C96 1.459 . S
C936 C185 1.513 . S
C953 C166 1.492 . S
C972 C208 1.539 . S
C989 C114 1.464 . S
C1008 C240 1.518 . S
C1044 C195 1.381 . S
C1025 C143 1.466 . S
C1061 C93 1.458 . S
C1080 C224 1.367 . S
C1097 C164 1.430 . S
C1116 C256 1.388 . S
C1152 C291 1.426 . S
C1133 C117 1.452 . S
C1169 C135 1.413 . S
C1188 C191 1.399 . S
C1205 C40 1.413 . S
C1224 C294 1.379 . S
C1241 C156 1.441 . S
C1260 C262 1.345 . S
C1296 C223 1.385 . S
C1277 C82 1.451 . S
C1332 C295 1.549 . S
C1313 C138 1.510 1_556 S
C1368 C263 1.547 . S
C1349 C38 1.515 . S
C1404 C222 1.524 . S
C1385 C159 1.470 . S
C1440 C190 1.553 . S
C1421 C80 1.489 . S
