# Generated by pormake.
# Topology ctn, (3,4)-cn, num edge types: 1
# Building blocks:
#     Node 0, Type 0, BuildingBlock: MIDCAF_clean_linker_0, # of connection points: 3
#     Node 1, Type 0, BuildingBlock: MIDCAF_clean_linker_0, # of connection points: 3
#     Node 2, Type 0, BuildingBlock: MIDCAF_clean_linker_0, # of connection points: 3
#     Node 3, Type 0, BuildingBlock: MIDCAF_clean_linker_0, # of connection points: 3
#     Node 4, Type 0, BuildingBlock: MIDCAF_clean_linker_0, # of connection points: 3
#     Node 5, Type 0, BuildingBlock: MIDCAF_clean_linker_0, # of connection points: 3
#     Node 6, Type 0, BuildingBlock: MIDCAF_clean_linker_0, # of connection points: 3
#     Node 7, Type 0, BuildingBlock: MIDCAF_clean_linker_0, # of connection points: 3
#     Node 8, Type 0, BuildingBlock: MIDCAF_clean_linker_0, # of connection points: 3
#     Node 9, Type 0, BuildingBlock: MIDCAF_clean_linker_0, # of connection points: 3
#     Node 10, Type 0, BuildingBlock: MIDCAF_clean_linker_0, # of connection points: 3
#     Node 11, Type 0, BuildingBlock: MIDCAF_clean_linker_0, # of connection points: 3
#     Node 12, Type 0, BuildingBlock: MIDCAF_clean_linker_0, # of connection points: 3
#     Node 13, Type 0, BuildingBlock: MIDCAF_clean_linker_0, # of connection points: 3
#     Node 14, Type 0, BuildingBlock: MIDCAF_clean_linker_0, # of connection points: 3
#     Node 15, Type 0, BuildingBlock: MIDCAF_clean_linker_0, # of connection points: 3
#     Node 16, Type 1, BuildingBlock: TATPOV_clean_sbu_0, # of connection points: 4
#     Node 17, Type 1, BuildingBlock: TATPOV_clean_sbu_0, # of connection points: 4
#     Node 18, Type 1, BuildingBlock: TATPOV_clean_sbu_0, # of connection points: 4
#     Node 19, Type 1, BuildingBlock: TATPOV_clean_sbu_0, # of connection points: 4
#     Node 20, Type 1, BuildingBlock: TATPOV_clean_sbu_0, # of connection points: 4
#     Node 21, Type 1, BuildingBlock: TATPOV_clean_sbu_0, # of connection points: 4
#     Node 22, Type 1, BuildingBlock: TATPOV_clean_sbu_0, # of connection points: 4
#     Node 23, Type 1, BuildingBlock: TATPOV_clean_sbu_0, # of connection points: 4
#     Node 24, Type 1, BuildingBlock: TATPOV_clean_sbu_0, # of connection points: 4
#     Node 25, Type 1, BuildingBlock: TATPOV_clean_sbu_0, # of connection points: 4
#     Node 26, Type 1, BuildingBlock: TATPOV_clean_sbu_0, # of connection points: 4
#     Node 27, Type 1, BuildingBlock: TATPOV_clean_sbu_0, # of connection points: 4
#     Edge 28, Type (0, 1), BuildingBlock: MIFKUJ_clean_linker_0, # of connection points: 2
#     Edge 29, Type (0, 1), BuildingBlock: MIFKUJ_clean_linker_0, # of connection points: 2
#     Edge 30, Type (0, 1), BuildingBlock: MIFKUJ_clean_linker_0, # of connection points: 2
#     Edge 31, Type (0, 1), BuildingBlock: MIFKUJ_clean_linker_0, # of connection points: 2
#     Edge 32, Type (0, 1), BuildingBlock: MIFKUJ_clean_linker_0, # of connection points: 2
#     Edge 33, Type (0, 1), BuildingBlock: MIFKUJ_clean_linker_0, # of connection points: 2
#     Edge 34, Type (0, 1), BuildingBlock: MIFKUJ_clean_linker_0, # of connection points: 2
#     Edge 35, Type (0, 1), BuildingBlock: MIFKUJ_clean_linker_0, # of connection points: 2
#     Edge 36, Type (0, 1), BuildingBlock: MIFKUJ_clean_linker_0, # of connection points: 2
#     Edge 37, Type (0, 1), BuildingBlock: MIFKUJ_clean_linker_0, # of connection points: 2
#     Edge 38, Type (0, 1), BuildingBlock: MIFKUJ_clean_linker_0, # of connection points: 2
#     Edge 39, Type (0, 1), BuildingBlock: MIFKUJ_clean_linker_0, # of connection points: 2
#     Edge 40, Type (0, 1), BuildingBlock: MIFKUJ_clean_linker_0, # of connection points: 2
#     Edge 41, Type (0, 1), BuildingBlock: MIFKUJ_clean_linker_0, # of connection points: 2
#     Edge 42, Type (0, 1), BuildingBlock: MIFKUJ_clean_linker_0, # of connection points: 2
#     Edge 43, Type (0, 1), BuildingBlock: MIFKUJ_clean_linker_0, # of connection points: 2
#     Edge 44, Type (0, 1), BuildingBlock: MIFKUJ_clean_linker_0, # of connection points: 2
#     Edge 45, Type (0, 1), BuildingBlock: MIFKUJ_clean_linker_0, # of connection points: 2
#     Edge 46, Type (0, 1), BuildingBlock: MIFKUJ_clean_linker_0, # of connection points: 2
#     Edge 47, Type (0, 1), BuildingBlock: MIFKUJ_clean_linker_0, # of connection points: 2
#     Edge 48, Type (0, 1), BuildingBlock: MIFKUJ_clean_linker_0, # of connection points: 2
#     Edge 49, Type (0, 1), BuildingBlock: MIFKUJ_clean_linker_0, # of connection points: 2
#     Edge 50, Type (0, 1), BuildingBlock: MIFKUJ_clean_linker_0, # of connection points: 2
#     Edge 51, Type (0, 1), BuildingBlock: MIFKUJ_clean_linker_0, # of connection points: 2
#     Edge 52, Type (0, 1), BuildingBlock: MIFKUJ_clean_linker_0, # of connection points: 2
#     Edge 53, Type (0, 1), BuildingBlock: MIFKUJ_clean_linker_0, # of connection points: 2
#     Edge 54, Type (0, 1), BuildingBlock: MIFKUJ_clean_linker_0, # of connection points: 2
#     Edge 55, Type (0, 1), BuildingBlock: MIFKUJ_clean_linker_0, # of connection points: 2
#     Edge 56, Type (0, 1), BuildingBlock: MIFKUJ_clean_linker_0, # of connection points: 2
#     Edge 57, Type (0, 1), BuildingBlock: MIFKUJ_clean_linker_0, # of connection points: 2
#     Edge 58, Type (0, 1), BuildingBlock: MIFKUJ_clean_linker_0, # of connection points: 2
#     Edge 59, Type (0, 1), BuildingBlock: MIFKUJ_clean_linker_0, # of connection points: 2
#     Edge 60, Type (0, 1), BuildingBlock: MIFKUJ_clean_linker_0, # of connection points: 2
#     Edge 61, Type (0, 1), BuildingBlock: MIFKUJ_clean_linker_0, # of connection points: 2
#     Edge 62, Type (0, 1), BuildingBlock: MIFKUJ_clean_linker_0, # of connection points: 2
#     Edge 63, Type (0, 1), BuildingBlock: MIFKUJ_clean_linker_0, # of connection points: 2
#     Edge 64, Type (0, 1), BuildingBlock: MIFKUJ_clean_linker_0, # of connection points: 2
#     Edge 65, Type (0, 1), BuildingBlock: MIFKUJ_clean_linker_0, # of connection points: 2
#     Edge 66, Type (0, 1), BuildingBlock: MIFKUJ_clean_linker_0, # of connection points: 2
#     Edge 67, Type (0, 1), BuildingBlock: MIFKUJ_clean_linker_0, # of connection points: 2
#     Edge 68, Type (0, 1), BuildingBlock: MIFKUJ_clean_linker_0, # of connection points: 2
#     Edge 69, Type (0, 1), BuildingBlock: MIFKUJ_clean_linker_0, # of connection points: 2
#     Edge 70, Type (0, 1), BuildingBlock: MIFKUJ_clean_linker_0, # of connection points: 2
#     Edge 71, Type (0, 1), BuildingBlock: MIFKUJ_clean_linker_0, # of connection points: 2
#     Edge 72, Type (0, 1), BuildingBlock: MIFKUJ_clean_linker_0, # of connection points: 2
#     Edge 73, Type (0, 1), BuildingBlock: MIFKUJ_clean_linker_0, # of connection points: 2
#     Edge 74, Type (0, 1), BuildingBlock: MIFKUJ_clean_linker_0, # of connection points: 2
#     Edge 75, Type (0, 1), BuildingBlock: MIFKUJ_clean_linker_0, # of connection points: 2
# Relax obj value: 0.003
# Max RMSD: 0.049
# Mean RMSD: 0.022
data_MOF--net-ctn--node1-TATPOV_clean_sbu_0--node2-MIDCAF_clean_linker_0--edge1-MIFKUJ_clean_linker_0
_symmetry_space_group_name_H-M    P1
_symmetry_Int_Tables_number       1
_symmetry_cell_setting            triclinic
loop_
_symmetry_equiv_pos_as_xyz
'x, y, z'
_cell_length_a     83.609095
_cell_length_b     83.607203
_cell_length_c     83.606542
_cell_angle_alpha  90.960532
_cell_angle_beta   90.958503
_cell_angle_gamma 91.031156
loop_
_atom_site_label
_atom_site_type_symbol
_atom_site_fract_x
_atom_site_fract_y
_atom_site_fract_z
_atom_type_partial_charge
C0 C 0.9887 0.03848 0.07879 0.0
C1 C 0.99152 0.02662 0.09018 0.0
C2 C 0.00525 0.01728 0.08876 0.0
C3 C 0.01584 0.01965 0.07622 0.0
H4 H 0.05508 0.00041 0.05571 0.0
H5 H 0.07717 0.98222 0.05225 0.0
H6 H 0.09148 0.00746 0.01001 0.0
H7 H 0.06955 0.02591 0.01359 0.0
H8 H 0.04902 0.0546 0.00143 0.0
H9 H 0.0449 0.07621 0.98276 0.0
H10 H 0.00614 0.09359 0.01141 0.0
H11 H 0.00996 0.07177 0.0299 0.0
H12 H 0.99669 0.05007 0.05766 0.0
H13 H 0.97814 0.04576 0.07939 0.0
H14 H 0.00795 0.00821 0.09745 0.0
H15 H 0.02629 0.0122 0.07556 0.0
N16 N 0.03668 0.02384 0.04933 0.0
N17 N 0.04463 0.03794 0.02672 0.0
N18 N 0.02209 0.04594 0.04093 0.0
C19 C 0.04694 0.02578 0.03705 0.0
C20 C 0.03224 0.0481 0.02857 0.0
C21 C 0.02421 0.03384 0.05137 0.0
C22 C 0.06047 0.01468 0.03493 0.0
C23 C 0.06291 0.00214 0.04567 0.0
C24 C 0.07555 0.99162 0.04364 0.0
C25 C 0.08608 0.99334 0.03083 0.0
C26 C 0.0837 0.0059 0.02012 0.0
C27 C 0.07105 0.01644 0.02214 0.0
C28 C 0.02982 0.06137 0.01722 0.0
C29 C 0.0396 0.063 0.00379 0.0
C30 C 0.03731 0.07548 0.9931 0.0
C31 C 0.0252 0.08667 0.99556 0.0
C32 C 0.01543 0.08506 0.009 0.0
C33 C 0.0177 0.07257 0.01967 0.0
C34 C 0.01301 0.03147 0.06478 0.0
C35 C 0.99932 0.04089 0.06626 0.0
C36 C 0.24235 0.66939 0.24329 0.0
C37 C 0.22852 0.6678 0.23355 0.0
C38 C 0.22515 0.67985 0.22253 0.0
C39 C 0.23547 0.69308 0.22114 0.0
H40 H 0.24245 0.73394 0.19518 0.0
H41 H 0.23799 0.75365 0.17448 0.0
H42 H 0.28173 0.77849 0.18899 0.0
H43 H 0.28639 0.75873 0.20946 0.0
H44 H 0.31101 0.74124 0.23148 0.0
H45 H 0.33586 0.74266 0.2469 0.0
H46 H 0.31805 0.7059 0.27806 0.0
H47 H 0.29329 0.70409 0.26226 0.0
H48 H 0.26323 0.68335 0.24958 0.0
H49 H 0.24517 0.66044 0.25207 0.0
H50 H 0.21468 0.6789 0.21474 0.0
H51 H 0.23257 0.70203 0.21239 0.0
N52 N 0.25762 0.71983 0.21804 0.0
N53 N 0.28174 0.73303 0.22509 0.0
N54 N 0.27439 0.70936 0.2379 0.0
C55 C 0.26807 0.73225 0.21608 0.0
C56 C 0.28499 0.72167 0.23604 0.0
C57 C 0.26068 0.70833 0.22894 0.0
C58 C 0.26485 0.74463 0.20396 0.0
C59 C 0.2511 0.74363 0.19402 0.0
C60 C 0.24847 0.75499 0.18221 0.0
C61 C 0.25954 0.7676 0.18004 0.0
C62 C 0.2731 0.76879 0.19019 0.0
C63 C 0.27572 0.75746 0.20199 0.0
C64 C 0.30009 0.72258 0.24563 0.0
C65 C 0.31233 0.73346 0.24163 0.0
C66 C 0.32659 0.73433 0.25055 0.0
C67 C 0.32896 0.72447 0.26382 0.0
C68 C 0.31673 0.71354 0.26781 0.0
C69 C 0.30248 0.71257 0.25879 0.0
C70 C 0.24942 0.69457 0.23074 0.0
C71 C 0.25266 0.6826 0.24191 0.0
C72 C 0.96657 0.38689 0.03189 0.0
C73 C 0.96156 0.38602 0.01574 0.0
C74 C 0.95394 0.39935 0.00913 0.0
C75 C 0.95148 0.41313 0.01838 0.0
H76 H 0.92386 0.45504 0.02138 0.0
H77 H 0.90294 0.474 0.01527 0.0
H78 H 0.90849 0.49485 0.06276 0.0
H79 H 0.92981 0.47636 0.0686 0.0
H80 H 0.96791 0.47477 0.0811 0.0
H81 H 0.98716 0.48149 0.10247 0.0
H82 H 0.00551 0.43359 0.0999 0.0
H83 H 0.98623 0.42674 0.07857 0.0
H84 H 0.96851 0.40109 0.0534 0.0
H85 H 0.97215 0.3768 0.03754 0.0
H86 H 0.95019 0.39934 0.99668 0.0
H87 H 0.94576 0.42322 0.01286 0.0
N88 N 0.94322 0.43933 0.0403 0.0
N89 N 0.95197 0.45632 0.06139 0.0
N90 N 0.96524 0.43238 0.05634 0.0
C91 C 0.94155 0.453 0.0491 0.0
C92 C 0.96388 0.44613 0.06504 0.0
C93 C 0.95499 0.42892 0.04394 0.0
C94 C 0.92855 0.46422 0.04544 0.0
C95 C 0.92059 0.46366 0.03051 0.0
C96 C 0.90852 0.47448 0.02706 0.0
C97 C 0.90398 0.48598 0.03853 0.0
C98 C 0.91184 0.48638 0.05353 0.0
C99 C 0.92404 0.4757 0.05691 0.0
C100 C 0.97548 0.45018 0.07813 0.0
C101 C 0.97601 0.46563 0.08509 0.0
C102 C 0.98711 0.46955 0.09724 0.0
C103 C 0.99782 0.45807 0.10281 0.0
C104 C 0.9973 0.44263 0.09591 0.0
C105 C 0.98629 0.43874 0.08365 0.0
C106 C 0.95686 0.41406 0.03437 0.0
C107 C 0.96439 0.40079 0.04104 0.0
C108 C 0.74397 0.74234 0.1633 0.0
C109 C 0.73424 0.72857 0.16106 0.0
C110 C 0.72236 0.72527 0.1723 0.0
C111 C 0.72012 0.7356 0.18536 0.0
H112 H 0.68676 0.74798 0.21992 0.0
H113 H 0.66467 0.74372 0.23823 0.0
H114 H 0.68747 0.77604 0.27271 0.0
H115 H 0.70952 0.78053 0.25437 0.0
H116 H 0.72665 0.8116 0.23285 0.0
H117 H 0.7412 0.83699 0.2341 0.0
H118 H 0.77599 0.81832 0.20133 0.0
H119 H 0.76104 0.79306 0.19959 0.0
H120 H 0.74944 0.76319 0.17762 0.0
H121 H 0.75339 0.74511 0.155 0.0
H122 H 0.71455 0.71485 0.17083 0.0
H123 H 0.71073 0.73275 0.19366 0.0
N124 N 0.71545 0.75762 0.21186 0.0
N125 N 0.72176 0.78165 0.2256 0.0
N126 N 0.73595 0.77445 0.2027 0.0
C127 C 0.71279 0.76797 0.22419 0.0
C128 C 0.73336 0.78499 0.21489 0.0
C129 C 0.72707 0.76072 0.2011 0.0
C130 C 0.69986 0.76467 0.23565 0.0
C131 C 0.68715 0.75409 0.23145 0.0
C132 C 0.67448 0.75168 0.24189 0.0
C133 C 0.6744 0.75956 0.25685 0.0
C134 C 0.68732 0.76974 0.26128 0.0
C135 C 0.69987 0.77238 0.25073 0.0
C136 C 0.74265 0.80025 0.21612 0.0
C137 C 0.73743 0.81286 0.22594 0.0
C138 C 0.74585 0.82744 0.22672 0.0
C139 C 0.75984 0.82975 0.21785 0.0
C140 C 0.76514 0.81709 0.20813 0.0
C141 C 0.75661 0.80254 0.20721 0.0
C142 C 0.72973 0.74949 0.1875 0.0
C143 C 0.74174 0.75267 0.17635 0.0
C144 C 0.05099 0.91073 0.48833 0.0
C145 C 0.03792 0.90021 0.48544 0.0
C146 C 0.02643 0.90417 0.47373 0.0
C147 C 0.02793 0.91834 0.46522 0.0
H148 H 0.01368 0.93964 0.42333 0.0
H149 H 0.99797 0.94362 0.39904 0.0
H150 H 0.01839 0.99118 0.39507 0.0
H151 H 0.03437 0.98718 0.41928 0.0
H152 H 0.05669 0.00124 0.44758 0.0
H153 H 0.07547 0.02182 0.4578 0.0
H154 H 0.09219 0.9895 0.49391 0.0
H155 H 0.07363 0.9689 0.48375 0.0
H156 H 0.06258 0.93284 0.48256 0.0
H157 H 0.06022 0.90795 0.49704 0.0
H158 H 0.01605 0.89651 0.47137 0.0
H159 H 0.01876 0.9211 0.45644 0.0
N160 N 0.03351 0.94665 0.44616 0.0
N161 N 0.04436 0.97263 0.44445 0.0
N162 N 0.05183 0.95626 0.46569 0.0
C163 C 0.03461 0.96075 0.43835 0.0
C164 C 0.05298 0.97047 0.45814 0.0
C165 C 0.04211 0.94431 0.45982 0.0
C166 C 0.02526 0.96312 0.42337 0.0
C167 C 0.0149 0.95095 0.4173 0.0
C168 C 0.00583 0.95324 0.40339 0.0
C169 C 0.00689 0.96774 0.39518 0.0
C170 C 0.01743 0.97981 0.40105 0.0
C171 C 0.0265 0.97754 0.41501 0.0
C172 C 0.06373 0.98333 0.46473 0.0
C173 C 0.0643 0.99853 0.45775 0.0
C174 C 0.07496 0.01037 0.46367 0.0
C175 C 0.08532 0.00721 0.47659 0.0
C176 C 0.08446 0.99219 0.48381 0.0
C177 C 0.07378 0.98041 0.47798 0.0
C178 C 0.04083 0.92898 0.46835 0.0
C179 C 0.05239 0.92499 0.47996 0.0
C180 C 0.22951 0.75441 0.82935 0.0
C181 C 0.21586 0.76279 0.83398 0.0
C182 C 0.20256 0.76291 0.82346 0.0
C183 C 0.20289 0.75481 0.80871 0.0
H184 H 0.17903 0.75063 0.76565 0.0
H185 H 0.15707 0.75333 0.7465 0.0
H186 H 0.17798 0.71757 0.7158 0.0
H187 H 0.20016 0.71506 0.73477 0.0
H188 H 0.23235 0.69922 0.74498 0.0
H189 H 0.25264 0.67917 0.74057 0.0
H190 H 0.27536 0.69243 0.78576 0.0
H191 H 0.25495 0.71228 0.79038 0.0
H192 H 0.24054 0.73991 0.81151 0.0
H193 H 0.24008 0.75429 0.83701 0.0
H194 H 0.19178 0.76907 0.82672 0.0
H195 H 0.19238 0.75507 0.80099 0.0
N196 N 0.20473 0.7391 0.7777 0.0
N197 N 0.21684 0.72067 0.76051 0.0
N198 N 0.2288 0.72726 0.78537 0.0
C199 C 0.2047 0.73081 0.76358 0.0
C200 C 0.22896 0.71883 0.77133 0.0
C201 C 0.21674 0.73742 0.78865 0.0
C202 C 0.19141 0.7326 0.7518 0.0
C203 C 0.17901 0.74334 0.75482 0.0
C204 C 0.16634 0.74484 0.74387 0.0
C205 C 0.16574 0.73563 0.72964 0.0
C206 C 0.17818 0.72498 0.72656 0.0
C207 C 0.19086 0.72348 0.7375 0.0
C208 C 0.24189 0.70732 0.76812 0.0
C209 C 0.2417 0.69796 0.75397 0.0
C210 C 0.25341 0.68651 0.75137 0.0
C211 C 0.26557 0.68414 0.76285 0.0
C212 C 0.266 0.69378 0.77679 0.0
C213 C 0.25432 0.70523 0.7794 0.0
C214 C 0.2165 0.7463 0.80415 0.0
C215 C 0.22981 0.74623 0.81465 0.0
C216 C 0.99344 0.56916 0.50062 0.0
C217 C 0.98498 0.57089 0.51489 0.0
C218 C 0.96953 0.56409 0.51581 0.0
C219 C 0.96242 0.55635 0.50247 0.0
H220 H 0.9211 0.53316 0.48637 0.0
H221 H 0.89585 0.5184 0.48832 0.0
H222 H 0.89949 0.50288 0.43902 0.0
H223 H 0.92484 0.51746 0.43702 0.0
H224 H 0.95693 0.52528 0.41803 0.0
H225 H 0.97327 0.52401 0.39411 0.0
H226 H 0.00597 0.55936 0.41505 0.0
H227 H 0.98969 0.56078 0.43882 0.0
H228 H 0.99315 0.56067 0.47642 0.0
H229 H 0.00545 0.5741 0.49963 0.0
H230 H 0.96264 0.56538 0.5266 0.0
H231 H 0.95032 0.55165 0.50343 0.0
N232 N 0.94808 0.54107 0.47406 0.0
N233 N 0.94871 0.53531 0.4465 0.0
N234 N 0.97025 0.54893 0.45916 0.0
C235 C 0.94095 0.53459 0.46065 0.0
C236 C 0.96333 0.54256 0.44566 0.0
C237 C 0.96277 0.54821 0.4734 0.0
C238 C 0.92512 0.52641 0.46157 0.0
C239 C 0.91651 0.52668 0.4759 0.0
C240 C 0.90196 0.51832 0.477 0.0
C241 C 0.89572 0.50945 0.46384 0.0
C242 C 0.9041 0.50947 0.44941 0.0
C243 C 0.91861 0.51789 0.44827 0.0
C244 C 0.9721 0.54297 0.43044 0.0
C245 C 0.96746 0.53296 0.41744 0.0
C246 C 0.97683 0.53219 0.40376 0.0
C247 C 0.99092 0.54153 0.40276 0.0
C248 C 0.9951 0.55213 0.41541 0.0
C249 C 0.98583 0.55281 0.42911 0.0
C250 C 0.97062 0.55528 0.48796 0.0
C251 C 0.98635 0.56147 0.48731 0.0
C252 C 0.86353 0.78544 0.76756 0.0
C253 C 0.86318 0.79331 0.75285 0.0
C254 C 0.85254 0.80593 0.7507 0.0
C255 C 0.84243 0.81059 0.763 0.0
H256 H 0.81029 0.84474 0.77532 0.0
H257 H 0.79073 0.86542 0.77047 0.0
H258 H 0.7685 0.85497 0.81546 0.0
H259 H 0.78788 0.83415 0.82031 0.0
H260 H 0.80703 0.81031 0.84466 0.0
H261 H 0.80425 0.79332 0.86792 0.0
H262 H 0.8282 0.7553 0.84271 0.0
H263 H 0.83158 0.77243 0.8199 0.0
H264 H 0.85392 0.78363 0.79098 0.0
H265 H 0.8715 0.77556 0.7695 0.0
H266 H 0.85214 0.81234 0.73956 0.0
H267 H 0.83438 0.82036 0.76091 0.0
N268 N 0.82204 0.82009 0.7889 0.0
N269 N 0.81114 0.8155 0.81411 0.0
N270 N 0.83097 0.79871 0.80422 0.0
C271 C 0.81172 0.82426 0.80057 0.0
C272 C 0.82075 0.80272 0.81602 0.0
C273 C 0.83175 0.80737 0.79065 0.0
C274 C 0.80061 0.83765 0.79816 0.0
C275 C 0.80131 0.84688 0.78425 0.0
C276 C 0.79016 0.85881 0.78149 0.0
C277 C 0.77803 0.86173 0.79253 0.0
C278 C 0.77758 0.85282 0.80662 0.0
C279 C 0.78876 0.84094 0.80942 0.0
C280 C 0.81953 0.79274 0.83041 0.0
C281 C 0.81181 0.79836 0.84416 0.0
C282 C 0.81015 0.78859 0.85747 0.0
C283 C 0.816 0.77291 0.85725 0.0
C284 C 0.82385 0.7674 0.84352 0.0
C285 C 0.82569 0.77722 0.83033 0.0
C286 C 0.84269 0.80266 0.77771 0.0
C287 C 0.85338 0.79003 0.77984 0.0
C288 C 0.36715 0.29122 0.29313 0.0
C289 C 0.36925 0.30071 0.27961 0.0
C290 C 0.36015 0.31456 0.27796 0.0
C291 C 0.34879 0.31856 0.28931 0.0
H292 H 0.31551 0.3518 0.29925 0.0
H293 H 0.297 0.37282 0.2923 0.0
H294 H 0.26517 0.35712 0.32927 0.0
H295 H 0.28351 0.33592 0.33615 0.0
H296 H 0.29281 0.30626 0.35712 0.0
H297 H 0.28419 0.2857 0.3756 0.0
H298 H 0.32133 0.25478 0.35868 0.0
H299 H 0.32992 0.27516 0.3401 0.0
H300 H 0.3541 0.28736 0.31456 0.0
H301 H 0.37396 0.28043 0.29466 0.0
H302 H 0.3617 0.32223 0.26776 0.0
H303 H 0.34179 0.32917 0.28745 0.0
N304 N 0.32406 0.3254 0.31176 0.0
N305 N 0.30772 0.31761 0.33285 0.0
N306 N 0.32929 0.30176 0.32538 0.0
C307 C 0.31138 0.32822 0.32127 0.0
C308 C 0.31665 0.30438 0.33502 0.0
C309 C 0.33312 0.31224 0.31375 0.0
C310 C 0.30095 0.34202 0.31816 0.0
C311 C 0.30465 0.35288 0.30603 0.0
C312 C 0.29409 0.36501 0.30208 0.0
C313 C 0.27958 0.36654 0.31015 0.0
C314 C 0.27616 0.35608 0.32268 0.0
C315 C 0.28673 0.34397 0.32667 0.0
C316 C 0.31202 0.29237 0.34702 0.0
C317 C 0.29921 0.29512 0.35737 0.0
C318 C 0.2943 0.28337 0.36802 0.0
C319 C 0.30201 0.2686 0.36849 0.0
C320 C 0.315 0.26596 0.35841 0.0
C321 C 0.31998 0.27771 0.34783 0.0
C322 C 0.34621 0.30875 0.30255 0.0
C323 C 0.35571 0.29517 0.30448 0.0
C324 C 0.47824 0.90058 0.52758 0.0
C325 C 0.46647 0.89331 0.51759 0.0
C326 C 0.45052 0.8981 0.51886 0.0
C327 C 0.44645 0.91016 0.52977 0.0
H328 H 0.41975 0.95396 0.53172 0.0
H329 H 0.39825 0.97237 0.52633 0.0
H330 H 0.39943 0.98782 0.57596 0.0
H331 H 0.42144 0.96986 0.58118 0.0
H332 H 0.45354 0.96243 0.60195 0.0
H333 H 0.4719 0.96965 0.62404 0.0
H334 H 0.5102 0.94595 0.59971 0.0
H335 H 0.49191 0.93859 0.57763 0.0
H336 H 0.48352 0.91784 0.54617 0.0
H337 H 0.49061 0.89704 0.52686 0.0
H338 H 0.44125 0.89274 0.51119 0.0
H339 H 0.43408 0.91371 0.53039 0.0
N340 N 0.4404 0.9387 0.54922 0.0
N341 N 0.44654 0.95396 0.57237 0.0
N342 N 0.46394 0.93398 0.5639 0.0
C343 C 0.4366 0.95058 0.55971 0.0
C344 C 0.46024 0.94574 0.57453 0.0
C345 C 0.45402 0.93029 0.5513 0.0
C346 C 0.4224 0.96051 0.55685 0.0
C347 C 0.41532 0.96116 0.54152 0.0
C348 C 0.4029 0.97169 0.53846 0.0
C349 C 0.39709 0.98167 0.55069 0.0
C350 C 0.4038 0.98057 0.56617 0.0
C351 C 0.41636 0.97019 0.56918 0.0
C352 C 0.47126 0.94992 0.58804 0.0
C353 C 0.46587 0.95875 0.60129 0.0
C354 C 0.47634 0.96284 0.61396 0.0
C355 C 0.49244 0.95839 0.6135 0.0
C356 C 0.49786 0.94964 0.60025 0.0
C357 C 0.48735 0.94534 0.58769 0.0
C358 C 0.45823 0.91746 0.53979 0.0
C359 C 0.47415 0.91244 0.53866 0.0
C360 C 0.24483 0.24527 0.66819 0.0
C361 C 0.23537 0.23122 0.66707 0.0
C362 C 0.22391 0.22837 0.67885 0.0
C363 C 0.2218 0.23944 0.69133 0.0
H364 H 0.19783 0.24631 0.73346 0.0
H365 H 0.1769 0.24185 0.75286 0.0
H366 H 0.18341 0.29039 0.77062 0.0
H367 H 0.2046 0.29477 0.75155 0.0
H368 H 0.23558 0.31455 0.74015 0.0
H369 H 0.24986 0.34013 0.73966 0.0
H370 H 0.26645 0.32895 0.69216 0.0
H371 H 0.25259 0.30315 0.69283 0.0
H372 H 0.25019 0.26706 0.68102 0.0
H373 H 0.25395 0.2477 0.65946 0.0
H374 H 0.2163 0.21775 0.67824 0.0
H375 H 0.21272 0.23693 0.70007 0.0
N376 N 0.21775 0.2628 0.71685 0.0
N377 N 0.22337 0.28809 0.72837 0.0
N378 N 0.23664 0.27989 0.70525 0.0
C379 C 0.2151 0.27394 0.72849 0.0
C380 C 0.23417 0.29116 0.7168 0.0
C381 C 0.22852 0.26567 0.7052 0.0
C382 C 0.20289 0.27094 0.74084 0.0
C383 C 0.1949 0.25602 0.74156 0.0
C384 C 0.18283 0.25347 0.75265 0.0
C385 C 0.17841 0.26577 0.76327 0.0
C386 C 0.18664 0.28057 0.76279 0.0
C387 C 0.19875 0.28311 0.75174 0.0
C388 C 0.24292 0.30675 0.71654 0.0
C389 C 0.24228 0.31752 0.7296 0.0
C390 C 0.2504 0.33226 0.72927 0.0
C391 C 0.25928 0.33666 0.71584 0.0
C392 C 0.25993 0.32588 0.70279 0.0
C393 C 0.2519 0.31109 0.70315 0.0
C394 C 0.2311 0.25362 0.6923 0.0
C395 C 0.24272 0.25634 0.68063 0.0
C396 C 0.75029 0.16343 0.73462 0.0
C397 C 0.73586 0.16281 0.72574 0.0
C398 C 0.73256 0.17519 0.71508 0.0
C399 C 0.74352 0.18782 0.71321 0.0
H400 H 0.75128 0.22844 0.68745 0.0
H401 H 0.74632 0.24897 0.66774 0.0
H402 H 0.79154 0.27195 0.68048 0.0
H403 H 0.79671 0.25131 0.69996 0.0
H404 H 0.82234 0.23071 0.7196 0.0
H405 H 0.84763 0.23087 0.73435 0.0
H406 H 0.82778 0.19738 0.76785 0.0
H407 H 0.80265 0.19674 0.75271 0.0
H408 H 0.77223 0.17608 0.73981 0.0
H409 H 0.75308 0.15421 0.74312 0.0
H410 H 0.72162 0.17497 0.70795 0.0
H411 H 0.74063 0.19707 0.70478 0.0
N412 N 0.76686 0.21337 0.70922 0.0
N413 N 0.79184 0.22534 0.7153 0.0
N414 N 0.78396 0.20184 0.72812 0.0
C415 C 0.77777 0.22533 0.70692 0.0
C416 C 0.79502 0.21366 0.72594 0.0
C417 C 0.76986 0.20158 0.71979 0.0
C418 C 0.77445 0.23812 0.69527 0.0
C419 C 0.76017 0.23788 0.68611 0.0
C420 C 0.75726 0.24972 0.67486 0.0
C421 C 0.76855 0.26209 0.67251 0.0
C422 C 0.7827 0.26247 0.68183 0.0
C423 C 0.78562 0.25064 0.69307 0.0
C424 C 0.81043 0.21375 0.73498 0.0
C425 C 0.82335 0.22337 0.73011 0.0
C426 C 0.83786 0.22352 0.73864 0.0
C427 C 0.83978 0.21421 0.75239 0.0
C428 C 0.82686 0.20453 0.75721 0.0
C429 C 0.81238 0.20424 0.74856 0.0
C430 C 0.75803 0.18838 0.722 0.0
C431 C 0.76123 0.17606 0.73278 0.0
C432 C 0.4883 0.5456 0.57314 0.0
C433 C 0.48958 0.53307 0.58407 0.0
C434 C 0.502 0.5221 0.58225 0.0
C435 C 0.51286 0.52362 0.56981 0.0
H436 H 0.55257 0.50312 0.55103 0.0
H437 H 0.57419 0.48421 0.54839 0.0
H438 H 0.59028 0.5084 0.50618 0.0
H439 H 0.56887 0.52754 0.50894 0.0
H440 H 0.55099 0.55796 0.49702 0.0
H441 H 0.54831 0.57973 0.47823 0.0
H442 H 0.50687 0.59633 0.50333 0.0
H443 H 0.50965 0.57478 0.52231 0.0
H444 H 0.4978 0.55697 0.55256 0.0
H445 H 0.479 0.55437 0.57431 0.0
H446 H 0.50321 0.51218 0.59033 0.0
H447 H 0.52223 0.5149 0.56878 0.0
N448 N 0.53518 0.52719 0.54397 0.0
N449 N 0.54419 0.54066 0.52135 0.0
N450 N 0.52173 0.54979 0.53497 0.0
C451 C 0.54578 0.52855 0.53188 0.0
C452 C 0.5322 0.55134 0.52281 0.0
C453 C 0.52312 0.53775 0.54561 0.0
C454 C 0.55892 0.51692 0.53021 0.0
C455 C 0.56069 0.50446 0.54117 0.0
C456 C 0.57306 0.49353 0.53961 0.0
C457 C 0.58397 0.49477 0.52706 0.0
C458 C 0.58221 0.50722 0.51611 0.0
C459 C 0.56985 0.51815 0.51765 0.0
C460 C 0.53055 0.56456 0.51125 0.0
C461 C 0.54129 0.56624 0.49858 0.0
C462 C 0.53972 0.57868 0.48772 0.0
C463 C 0.52738 0.58978 0.48926 0.0
C464 C 0.51664 0.58812 0.50191 0.0
C465 C 0.5182 0.57567 0.51276 0.0
C466 C 0.51159 0.53615 0.55886 0.0
C467 C 0.49916 0.54713 0.5607 0.0
C468 C 0.55065 0.42813 0.99526 0.0
C469 C 0.53876 0.41614 0.99333 0.0
C470 C 0.52916 0.41584 0.97936 0.0
C471 C 0.53121 0.42744 0.96771 0.0
H472 H 0.51245 0.4425 0.92498 0.0
H473 H 0.49468 0.44309 0.90159 0.0
H474 H 0.51942 0.48542 0.88528 0.0
H475 H 0.53733 0.48476 0.90843 0.0
H476 H 0.56243 0.50225 0.93038 0.0
H477 H 0.58237 0.52354 0.93441 0.0
H478 H 0.59843 0.50166 0.97813 0.0
H479 H 0.5783 0.48048 0.97434 0.0
H480 H 0.56183 0.44894 0.98562 0.0
H481 H 0.55814 0.42876 0.00596 0.0
H482 H 0.52005 0.40661 0.97742 0.0
H483 H 0.5235 0.42688 0.95716 0.0
N484 N 0.53531 0.45206 0.94421 0.0
N485 N 0.54758 0.47584 0.93586 0.0
N486 N 0.55546 0.46448 0.9601 0.0
C487 C 0.53672 0.46377 0.93322 0.0
C488 C 0.55699 0.47631 0.94926 0.0
C489 C 0.54467 0.45231 0.95768 0.0
C490 C 0.5263 0.46364 0.91868 0.0
C491 C 0.5142 0.45189 0.91637 0.0
C492 C 0.50395 0.45225 0.90299 0.0
C493 C 0.50563 0.46431 0.8916 0.0
C494 C 0.51794 0.47584 0.89373 0.0
C495 C 0.52815 0.47553 0.9071 0.0
C496 C 0.5688 0.48955 0.95198 0.0
C497 C 0.57014 0.50197 0.94091 0.0
C498 C 0.58161 0.51417 0.94318 0.0
C499 C 0.59201 0.51426 0.95655 0.0
C500 C 0.59046 0.50205 0.9678 0.0
C501 C 0.57899 0.48983 0.96554 0.0
C502 C 0.5429 0.43964 0.96976 0.0
C503 C 0.55269 0.43976 0.98363 0.0
C504 C 0.73017 0.25535 0.32671 0.0
C505 C 0.71675 0.26404 0.33151 0.0
C506 C 0.70307 0.26379 0.32149 0.0
C507 C 0.70275 0.25497 0.30714 0.0
H508 H 0.67739 0.24949 0.26517 0.0
H509 H 0.65518 0.25233 0.24635 0.0
H510 H 0.67349 0.21399 0.21706 0.0
H511 H 0.69593 0.21127 0.23571 0.0
H512 H 0.72239 0.1888 0.25238 0.0
H513 H 0.7413 0.16715 0.24906 0.0
H514 H 0.77508 0.19203 0.28059 0.0
H515 H 0.75609 0.21371 0.28418 0.0
H516 H 0.74032 0.23982 0.30916 0.0
H517 H 0.74102 0.2555 0.33396 0.0
H518 H 0.69244 0.27014 0.32489 0.0
H519 H 0.69191 0.25492 0.29986 0.0
N520 N 0.70311 0.23773 0.27693 0.0
N521 N 0.71338 0.21727 0.26085 0.0
N522 N 0.72678 0.22512 0.28467 0.0
C523 C 0.70204 0.22839 0.2635 0.0
C524 C 0.7258 0.21558 0.27134 0.0
C525 C 0.71542 0.23619 0.28757 0.0
C526 C 0.6885 0.23013 0.252 0.0
C527 C 0.67674 0.24164 0.25473 0.0
C528 C 0.66392 0.24323 0.24397 0.0
C529 C 0.66254 0.23336 0.23023 0.0
C530 C 0.67431 0.2219 0.22745 0.0
C531 C 0.68714 0.22029 0.23821 0.0
C532 C 0.7377 0.20296 0.26861 0.0
C533 C 0.73389 0.18976 0.25853 0.0
C534 C 0.74467 0.17733 0.25665 0.0
C535 C 0.75959 0.17796 0.26459 0.0
C536 C 0.76366 0.19134 0.27428 0.0
C537 C 0.75276 0.20367 0.2764 0.0
C538 C 0.71606 0.24607 0.30249 0.0
C539 C 0.7298 0.24642 0.31242 0.0
C540 C 0.47741 0.0864 0.00506 0.0
C541 C 0.46506 0.09023 0.01554 0.0
C542 C 0.45054 0.08153 0.01441 0.0
C543 C 0.44819 0.06966 0.0026 0.0
H544 H 0.42496 0.02453 0.99034 0.0
H545 H 0.40215 0.00593 0.99048 0.0
H546 H 0.40145 0.00409 0.93889 0.0
H547 H 0.42465 0.02252 0.93862 0.0
H548 H 0.45972 0.03568 0.9214 0.0
H549 H 0.4796 0.03489 0.90013 0.0
H550 H 0.51612 0.05162 0.93377 0.0
H551 H 0.49642 0.05268 0.95488 0.0
H552 H 0.48469 0.07231 0.98502 0.0
H553 H 0.48868 0.09301 0.00555 0.0
H554 H 0.44087 0.08414 0.02245 0.0
H555 H 0.43671 0.06347 0.00178 0.0
N556 N 0.44395 0.04556 0.97739 0.0
N557 N 0.45125 0.03546 0.9522 0.0
N558 N 0.46766 0.05449 0.96573 0.0
C559 C 0.44086 0.03572 0.96456 0.0
C560 C 0.46475 0.04479 0.9528 0.0
C561 C 0.4573 0.05505 0.97802 0.0
C562 C 0.42663 0.02496 0.96446 0.0
C563 C 0.41993 0.02026 0.979 0.0
C564 C 0.40693 0.00958 0.97911 0.0
C565 C 0.40015 0.00365 0.9647 0.0
C566 C 0.40651 0.0086 0.95013 0.0
C567 C 0.41978 0.01905 0.95 0.0
C568 C 0.4765 0.04423 0.93981 0.0
C569 C 0.47198 0.0392 0.92422 0.0
C570 C 0.48329 0.03885 0.91206 0.0
C571 C 0.49932 0.04319 0.9154 0.0
C572 C 0.50383 0.04817 0.93095 0.0
C573 C 0.49252 0.04882 0.94299 0.0
C574 C 0.46029 0.06635 0.9916 0.0
C575 C 0.47505 0.07462 0.99319 0.0
Zn576 Zn 0.2723 0.85281 0.00431 0.0
Zn577 Zn 0.24751 0.8726 0.00614 0.0
O578 O 0.24881 0.86254 0.02866 0.0
O579 O 0.26993 0.84725 0.0274 0.0
O580 O 0.22915 0.88784 0.008 0.0
O581 O 0.28671 0.87126 0.9984 0.0
O582 O 0.26635 0.88751 0.00013 0.0
C583 C 0.25849 0.85294 0.03527 0.0
C584 C 0.24682 0.84469 0.98183 0.0
O585 O 0.24046 0.85713 0.98781 0.0
O586 O 0.26024 0.8401 0.98709 0.0
C587 C 0.2153 0.88299 0.01195 0.0
O588 O 0.21292 0.86771 0.01474 0.0
C589 C 0.28109 0.88518 0.9974 0.0
Zn590 Zn 0.11251 0.46482 0.26859 0.0
Zn591 Zn 0.12736 0.49232 0.26124 0.0
O592 O 0.11389 0.49868 0.28062 0.0
O593 O 0.10243 0.4759 0.28733 0.0
O594 O 0.13924 0.51269 0.25617 0.0
O595 O 0.13353 0.45396 0.27123 0.0
O596 O 0.14572 0.47668 0.26564 0.0
C597 C 0.10469 0.49077 0.28971 0.0
C598 C 0.10386 0.47614 0.23735 0.0
O599 O 0.11367 0.48751 0.24102 0.0
O600 O 0.10138 0.46495 0.24708 0.0
C601 C 0.13199 0.52568 0.25371 0.0
O602 O 0.1163 0.52578 0.25432 0.0
C603 C 0.14632 0.46197 0.26934 0.0
Zn604 Zn 0.76821 0.60992 0.95934 0.0
Zn605 Zn 0.76356 0.62502 0.98712 0.0
O606 O 0.78032 0.60819 0.99305 0.0
O607 O 0.78183 0.59397 0.97073 0.0
O608 O 0.76005 0.63704 0.00777 0.0
O609 O 0.7783 0.62983 0.95044 0.0
O610 O 0.77137 0.64287 0.97229 0.0
C611 C 0.78579 0.5963 0.98527 0.0
C612 C 0.7355 0.60865 0.96887 0.0
O613 O 0.74128 0.61548 0.98148 0.0
O614 O 0.74445 0.60574 0.95714 0.0
C615 C 0.75676 0.63003 0.02071 0.0
O616 O 0.75563 0.61434 0.02074 0.0
C617 C 0.77739 0.64279 0.9584 0.0
Zn618 Zn 0.85061 0.00102 0.27601 0.0
Zn619 Zn 0.86679 0.00533 0.24918 0.0
O620 O 0.85496 0.0267 0.25236 0.0
O621 O 0.84125 0.02288 0.27426 0.0
O622 O 0.8794 0.00907 0.22914 0.0
O623 O 0.87118 0.99766 0.28816 0.0
O624 O 0.88455 0.00107 0.26599 0.0
C625 C 0.8452 0.03173 0.26279 0.0
C626 C 0.84201 0.97775 0.25168 0.0
O627 O 0.85226 0.98552 0.24357 0.0
O628 O 0.83915 0.98209 0.2659 0.0
C629 C 0.8868 0.99776 0.22232 0.0
O630 O 0.88588 0.98334 0.22828 0.0
C631 C 0.88434 0.99819 0.28091 0.0
Zn632 Zn 0.25714 0.1006 0.47004 0.0
Zn633 Zn 0.2558 0.11828 0.49734 0.0
O634 O 0.27417 0.10284 0.50196 0.0
O635 O 0.27553 0.08859 0.47964 0.0
O636 O 0.25475 0.13181 0.51737 0.0
O637 O 0.26099 0.12085 0.45764 0.0
O638 O 0.26011 0.13489 0.4801 0.0
C639 C 0.28052 0.09172 0.49376 0.0
C640 C 0.22708 0.09748 0.48613 0.0
O641 O 0.23353 0.10756 0.49596 0.0
O642 O 0.2347 0.09255 0.4741 0.0
C643 C 0.25263 0.12563 0.53097 0.0
O644 O 0.25131 0.10999 0.53197 0.0
C645 C 0.26178 0.13422 0.46499 0.0
Zn646 Zn 0.34965 0.50672 0.77081 0.0
Zn647 Zn 0.36851 0.50971 0.74537 0.0
O648 O 0.35839 0.53204 0.74766 0.0
O649 O 0.34425 0.53001 0.76953 0.0
O650 O 0.38323 0.51209 0.72664 0.0
O651 O 0.36857 0.4999 0.78416 0.0
O652 O 0.3841 0.50361 0.76351 0.0
C653 C 0.34932 0.53828 0.75807 0.0
C654 C 0.34071 0.48518 0.74489 0.0
O655 O 0.35302 0.49132 0.73841 0.0
O656 O 0.33639 0.49012 0.75853 0.0
C657 C 0.37825 0.51619 0.71288 0.0
O658 O 0.36295 0.51894 0.71068 0.0
C659 C 0.38233 0.49979 0.77808 0.0
Zn660 Zn 0.77158 0.35679 0.50056 0.0
Zn661 Zn 0.7457 0.3746 0.5045 0.0
O662 O 0.74823 0.36351 0.52636 0.0
O663 O 0.7707 0.35049 0.52362 0.0
O664 O 0.72664 0.38879 0.50732 0.0
O665 O 0.78438 0.37624 0.49422 0.0
O666 O 0.76348 0.39102 0.49926 0.0
C667 C 0.75906 0.35462 0.53215 0.0
C668 C 0.74591 0.34774 0.47892 0.0
O669 O 0.73911 0.35965 0.48546 0.0
O670 O 0.75967 0.34365 0.48368 0.0
C671 C 0.71289 0.38358 0.51121 0.0
O672 O 0.71076 0.3682 0.51359 0.0
C673 C 0.778 0.38984 0.49506 0.0
Zn674 Zn 0.61133 0.97002 0.77861 0.0
Zn675 Zn 0.62704 0.9956 0.76708 0.0
O676 O 0.61622 0.00441 0.78721 0.0
O677 O 0.6056 0.98299 0.79813 0.0
O678 O 0.63951 0.01462 0.75927 0.0
O679 O 0.63162 0.95748 0.77851 0.0
O680 O 0.64455 0.9789 0.77033 0.0
C681 C 0.60855 0.9979 0.79849 0.0
C682 C 0.59961 0.98009 0.74765 0.0
O683 O 0.61112 0.99024 0.74886 0.0
O684 O 0.59698 0.97041 0.75886 0.0
C685 C 0.63284 0.02789 0.75664 0.0
O686 O 0.61738 0.02911 0.75883 0.0
C687 C 0.64456 0.96434 0.7746 0.0
Zn688 Zn 0.00199 0.27425 0.85719 0.0
Zn689 Zn 0.00669 0.24643 0.87159 0.0
O690 O 0.0283 0.25095 0.86075 0.0
O691 O 0.02506 0.2748 0.85055 0.0
O692 O 0.01044 0.22589 0.88337 0.0
O693 O 0.99528 0.28443 0.87789 0.0
O694 O 0.00101 0.26202 0.89004 0.0
C695 C 0.03382 0.26289 0.85315 0.0
C696 C 0.98102 0.24911 0.84503 0.0
O697 O 0.98799 0.24092 0.85575 0.0
O698 O 0.9852 0.26356 0.84302 0.0
C699 C 0.99893 0.21877 0.8902 0.0
O700 O 0.98451 0.22468 0.88904 0.0
C701 C 0.99634 0.27645 0.89057 0.0
Zn702 Zn 0.50238 0.77986 0.35459 0.0
Zn703 Zn 0.50497 0.75322 0.37127 0.0
O704 O 0.52598 0.75386 0.35835 0.0
O705 O 0.52254 0.77475 0.34305 0.0
O706 O 0.50714 0.73372 0.38501 0.0
O707 O 0.50318 0.79344 0.37471 0.0
O708 O 0.50263 0.77115 0.38834 0.0
C709 C 0.53082 0.76297 0.34726 0.0
C710 C 0.4763 0.75756 0.34849 0.0
O711 O 0.48438 0.74866 0.35774 0.0
O712 O 0.48123 0.77163 0.34569 0.0
C713 C 0.51044 0.71992 0.37952 0.0
O714 O 0.51251 0.71796 0.36407 0.0
C715 C 0.50253 0.78638 0.38796 0.0
Zn716 Zn 0.97283 0.742 0.59055 0.0
Zn717 Zn 0.99885 0.74431 0.61021 0.0
O718 O 0.00367 0.7609 0.59301 0.0
O719 O 0.98319 0.75824 0.57619 0.0
O720 O 0.01805 0.74572 0.62497 0.0
O721 O 0.95911 0.74913 0.60899 0.0
O722 O 0.98038 0.74999 0.62488 0.0
C723 C 0.99645 0.76484 0.58016 0.0
C724 C 0.98933 0.71231 0.5939 0.0
O725 O 0.9988 0.7208 0.60277 0.0
O726 O 0.97724 0.71855 0.58737 0.0
C727 C 0.03209 0.74423 0.6196 0.0
O728 O 0.03395 0.74208 0.60414 0.0
C729 C 0.96538 0.75155 0.62274 0.0
Zn730 Zn 0.46475 0.27161 0.10685 0.0
Zn731 Zn 0.4927 0.26574 0.12209 0.0
O732 O 0.49827 0.28544 0.10874 0.0
O733 O 0.47539 0.29067 0.09667 0.0
O734 O 0.51303 0.2614 0.13425 0.0
O735 O 0.45393 0.27413 0.12808 0.0
O736 O 0.47685 0.26939 0.14025 0.0
C737 C 0.49005 0.294 0.09932 0.0
C738 C 0.47739 0.24054 0.09936 0.0
O739 O 0.4886 0.2451 0.10897 0.0
O740 O 0.46584 0.2497 0.0964 0.0
C741 C 0.52612 0.25839 0.12741 0.0
O742 O 0.52657 0.25818 0.11171 0.0
C743 C 0.46202 0.27251 0.14087 0.0
H744 H 0.22815 0.75299 0.86269 0.0
H745 H 0.22874 0.76749 0.88821 0.0
H746 H 0.2028 0.80607 0.86684 0.0
H747 H 0.20287 0.79196 0.84099 0.0
H748 H 0.22666 0.81771 0.88417 0.0
H749 H 0.18479 0.78004 0.89343 0.0
H750 H 0.17132 0.75359 0.89402 0.0
H751 H 0.20675 0.7373 0.92745 0.0
H752 H 0.22058 0.76359 0.92689 0.0
H753 H 0.22319 0.85506 0.96155 0.0
H754 H 0.21298 0.84156 0.93707 0.0
H755 H 0.24299 0.80129 0.94667 0.0
H756 H 0.25326 0.81465 0.971 0.0
H757 H 0.21236 0.79229 0.93532 0.0
H758 H 0.25591 0.82897 0.92234 0.0
H759 H 0.26916 0.85554 0.92168 0.0
H760 H 0.22927 0.87384 0.89512 0.0
H761 H 0.21569 0.8474 0.89582 0.0
C762 C 0.22265 0.7646 0.86335 0.0
C763 C 0.21552 0.77132 0.84973 0.0
C764 C 0.22279 0.77279 0.87804 0.0
C765 C 0.21558 0.78777 0.87954 0.0
C766 C 0.20834 0.79448 0.86601 0.0
C767 C 0.20829 0.78633 0.85126 0.0
C768 C 0.21645 0.79675 0.89502 0.0
C769 C 0.22316 0.81226 0.8953 0.0
C770 C 0.21208 0.78961 0.90961 0.0
C771 C 0.20378 0.77377 0.91003 0.0
C772 C 0.18978 0.77079 0.90082 0.0
C773 C 0.18206 0.75582 0.90117 0.0
C774 C 0.18819 0.74376 0.91075 0.0
C775 C 0.20202 0.74666 0.92003 0.0
C776 C 0.20979 0.76159 0.91972 0.0
C777 C 0.22741 0.84323 0.95857 0.0
C778 C 0.23914 0.83598 0.96812 0.0
C779 C 0.2216 0.83556 0.94457 0.0
C780 C 0.22734 0.8205 0.94003 0.0
C781 C 0.23841 0.81291 0.94998 0.0
C782 C 0.24433 0.82061 0.96383 0.0
C783 C 0.22282 0.81301 0.92438 0.0
C784 C 0.21548 0.79779 0.92411 0.0
C785 C 0.22651 0.82043 0.90979 0.0
C786 C 0.2347 0.83628 0.90931 0.0
C787 C 0.24991 0.8387 0.91648 0.0
C788 C 0.25749 0.85372 0.91607 0.0
C789 C 0.25003 0.86639 0.90841 0.0
C790 C 0.23501 0.86403 0.90109 0.0
C791 C 0.22737 0.84903 0.90148 0.0
H792 H 0.25592 0.87801 0.9081 0.0
H793 H 0.1822 0.73219 0.911 0.0
H794 H 0.0006 0.51323 0.39013 0.0
H795 H 0.02159 0.50897 0.37065 0.0
H796 H 0.028 0.55997 0.3661 0.0
H797 H 0.00682 0.56438 0.38563 0.0
H798 H 0.02879 0.54118 0.33612 0.0
H799 H 0.05342 0.54431 0.3881 0.0
H800 H 0.05624 0.53816 0.41674 0.0
H801 H 0.06205 0.48845 0.40495 0.0
H802 H 0.059 0.49425 0.37624 0.0
H803 H 0.10094 0.52306 0.29455 0.0
H804 H 0.08361 0.53603 0.3141 0.0
H805 H 0.07075 0.48987 0.33284 0.0
H806 H 0.088 0.4769 0.3136 0.0
H807 H 0.07579 0.51181 0.35653 0.0
H808 H 0.04696 0.50787 0.30557 0.0
H809 H 0.04309 0.51312 0.27683 0.0
H810 H 0.04472 0.56372 0.2866 0.0
H811 H 0.04881 0.55874 0.3154 0.0
C812 C 0.0062 0.52355 0.38472 0.0
C813 C 0.0021 0.53914 0.38941 0.0
C814 C 0.01826 0.5211 0.3737 0.0
C815 C 0.02642 0.53416 0.36713 0.0
C816 C 0.02185 0.54976 0.37112 0.0
C817 C 0.00983 0.55224 0.38229 0.0
C818 C 0.04031 0.5313 0.35685 0.0
C819 C 0.03926 0.53509 0.3406 0.0
C820 C 0.05384 0.52324 0.36276 0.0
C821 C 0.05588 0.51971 0.38002 0.0
C822 C 0.05519 0.53204 0.39162 0.0
C823 C 0.05684 0.52863 0.40786 0.0
C824 C 0.05929 0.51292 0.41266 0.0
C825 C 0.06014 0.50061 0.40122 0.0
C826 C 0.05847 0.50396 0.38495 0.0
C827 C 0.09459 0.51571 0.303 0.0
C828 C 0.09574 0.49894 0.30246 0.0
C829 C 0.08465 0.52313 0.31409 0.0
C830 C 0.07578 0.51388 0.32478 0.0
C831 C 0.07748 0.49723 0.32469 0.0
C832 C 0.08731 0.48983 0.31363 0.0
C833 C 0.06408 0.5212 0.33566 0.0
C834 C 0.06554 0.51825 0.35207 0.0
C835 C 0.05091 0.52995 0.32986 0.0
C836 C 0.0484 0.53294 0.31259 0.0
C837 C 0.04663 0.52011 0.30157 0.0
C838 C 0.04437 0.52304 0.28528 0.0
C839 C 0.04372 0.53875 0.27989 0.0
C840 C 0.04527 0.55156 0.29079 0.0
C841 C 0.04755 0.5487 0.30709 0.0
H842 H 0.04197 0.54099 0.26727 0.0
H843 H 0.06057 0.5103 0.42525 0.0
H844 H 0.78967 0.7706 0.8764 0.0
H845 H 0.7844 0.75077 0.89692 0.0
H846 H 0.83051 0.73014 0.88894 0.0
H847 H 0.83633 0.75039 0.86904 0.0
H848 H 0.80058 0.70928 0.88492 0.0
H849 H 0.82847 0.74668 0.92117 0.0
H850 H 0.83275 0.77306 0.93432 0.0
H851 H 0.78552 0.77051 0.95363 0.0
H852 H 0.78087 0.7442 0.94038 0.0
H853 H 0.80196 0.64659 0.93799 0.0
H854 H 0.80966 0.67073 0.92382 0.0
H855 H 0.77242 0.69673 0.94749 0.0
H856 H 0.7653 0.67271 0.96246 0.0
H857 H 0.7966 0.71598 0.9438 0.0
H858 H 0.76726 0.68049 0.90875 0.0
H859 H 0.76013 0.65502 0.8949 0.0
H860 H 0.80577 0.65506 0.87212 0.0
H861 H 0.81327 0.68043 0.88601 0.0
C862 C 0.79892 0.76217 0.87931 0.0
C863 C 0.81338 0.76202 0.8709 0.0
C864 C 0.79582 0.7508 0.89099 0.0
C865 C 0.80706 0.73904 0.89434 0.0
C866 C 0.82169 0.73915 0.88643 0.0
C867 C 0.82491 0.75064 0.87496 0.0
C868 C 0.80299 0.72569 0.90493 0.0
C869 C 0.79992 0.71065 0.89782 0.0
C870 C 0.80143 0.72778 0.92163 0.0
C871 C 0.80426 0.74355 0.92963 0.0
C872 C 0.81894 0.75181 0.92808 0.0
C873 C 0.82145 0.76674 0.93558 0.0
C874 C 0.8094 0.77348 0.94476 0.0
C875 C 0.79484 0.76529 0.94649 0.0
C876 C 0.79226 0.75036 0.939 0.0
C877 C 0.79555 0.65752 0.94031 0.0
C878 C 0.78292 0.65779 0.95114 0.0
C879 C 0.79989 0.67129 0.93215 0.0
C880 C 0.79129 0.68543 0.9342 0.0
C881 C 0.77915 0.68593 0.94561 0.0
C882 C 0.77507 0.67222 0.95413 0.0
C883 C 0.79453 0.69934 0.92384 0.0
C884 C 0.79728 0.71453 0.93092 0.0
C885 C 0.79537 0.69752 0.90699 0.0
C886 C 0.79088 0.68229 0.89854 0.0
C887 C 0.77582 0.67501 0.90087 0.0
C888 C 0.77171 0.6606 0.893 0.0
C889 C 0.78251 0.65341 0.88267 0.0
C890 C 0.79743 0.66064 0.88014 0.0
C891 C 0.80161 0.67504 0.888 0.0
H892 H 0.7793 0.64225 0.87659 0.0
H893 H 0.81137 0.78504 0.95056 0.0
H894 H 0.01516 0.98166 0.36691 0.0
H895 H 0.99775 0.98636 0.34362 0.0
H896 H 0.95803 0.96465 0.36803 0.0
H897 H 0.97528 0.95992 0.3912 0.0
H898 H 0.9588 0.9543 0.33775 0.0
H899 H 0.96327 0.00564 0.36575 0.0
H900 H 0.97801 0.02909 0.37718 0.0
H901 H 0.99689 0.03951 0.33097 0.0
H902 H 0.98241 0.01598 0.31931 0.0
H903 H 0.8871 0.98549 0.31051 0.0
H904 H 0.91146 0.97976 0.32551 0.0
H905 H 0.93996 0.99777 0.28702 0.0
H906 H 0.91542 0.00348 0.27166 0.0
H907 H 0.9492 0.00935 0.31897 0.0
H908 H 0.94013 0.96024 0.29044 0.0
H909 H 0.9243 0.93725 0.27961 0.0
H910 H 0.91329 0.92281 0.32729 0.0
H911 H 0.92885 0.94586 0.33841 0.0
C912 C 0.00269 0.97795 0.36729 0.0
C913 C 0.99658 0.9704 0.38088 0.0
C914 C 0.99278 0.98061 0.35398 0.0
C915 C 0.97657 0.97592 0.35412 0.0
C916 C 0.97053 0.96827 0.36761 0.0
C917 C 0.98041 0.96555 0.38084 0.0
C918 C 0.96563 0.97917 0.34045 0.0
C919 C 0.9567 0.96634 0.33365 0.0
C920 C 0.96328 0.99481 0.33471 0.0
C921 C 0.97193 0.00896 0.34171 0.0
C922 C 0.97067 0.01286 0.35806 0.0
C923 C 0.97896 0.02617 0.36457 0.0
C924 C 0.98843 0.03575 0.35482 0.0
C925 C 0.98959 0.03206 0.33852 0.0
C926 C 0.98134 0.01874 0.33195 0.0
C927 C 0.89851 0.98827 0.30517 0.0
C928 C 0.89932 0.99494 0.28987 0.0
C929 C 0.91243 0.98491 0.31375 0.0
C930 C 0.92747 0.98821 0.3073 0.0
C931 C 0.92842 0.99509 0.29214 0.0
C932 C 0.91442 0.9983 0.2834 0.0
C933 C 0.942 0.98455 0.31677 0.0
C934 C 0.9516 0.99727 0.32278 0.0
C935 C 0.94492 0.96881 0.32187 0.0
C936 C 0.93561 0.95485 0.31525 0.0
C937 C 0.93424 0.95223 0.29862 0.0
C938 C 0.92533 0.93918 0.29243 0.0
C939 C 0.91778 0.92858 0.30275 0.0
C940 C 0.91915 0.93102 0.3193 0.0
C941 C 0.92804 0.94407 0.32555 0.0
H942 H 0.91088 0.91848 0.29794 0.0
H943 H 0.99483 0.04605 0.35988 0.0
H944 H 0.23995 0.2381 0.63559 0.0
H945 H 0.24294 0.21936 0.6132 0.0
H946 H 0.23745 0.17969 0.64511 0.0
H947 H 0.23503 0.19841 0.66774 0.0
H948 H 0.26133 0.17466 0.6245 0.0
H949 H 0.20671 0.19044 0.62078 0.0
H950 H 0.18444 0.20934 0.61957 0.0
H951 H 0.20299 0.22885 0.57631 0.0
H952 H 0.22551 0.21021 0.57739 0.0
H953 H 0.24815 0.11642 0.56188 0.0
H954 H 0.24524 0.13367 0.58554 0.0
H955 H 0.25115 0.17541 0.55642 0.0
H956 H 0.25389 0.15829 0.53271 0.0
H957 H 0.22626 0.17838 0.57629 0.0
H958 H 0.28136 0.16296 0.58061 0.0
H959 H 0.30348 0.14389 0.5819 0.0
H960 H 0.2837 0.12338 0.62413 0.0
H961 H 0.26132 0.1422 0.62296 0.0
C962 C 0.23956 0.22539 0.6379 0.0
C963 C 0.23723 0.21976 0.65347 0.0
C964 C 0.2411 0.21469 0.62506 0.0
C965 C 0.2402 0.19812 0.62745 0.0
C966 C 0.23811 0.19243 0.64299 0.0
C967 C 0.23659 0.20314 0.65587 0.0
C968 C 0.24148 0.18679 0.61371 0.0
C969 C 0.25351 0.1753 0.61406 0.0
C970 C 0.23144 0.18782 0.59997 0.0
C971 C 0.21788 0.19901 0.59925 0.0
C972 C 0.20611 0.19884 0.61108 0.0
C973 C 0.19343 0.20949 0.6104 0.0
C974 C 0.19232 0.22031 0.59789 0.0
C975 C 0.20387 0.22047 0.58601 0.0
C976 C 0.21659 0.20985 0.58663 0.0
C977 C 0.24888 0.12926 0.56051 0.0
C978 C 0.25126 0.13598 0.5454 0.0
C979 C 0.24727 0.1391 0.57406 0.0
C980 C 0.2481 0.15582 0.57275 0.0
C981 C 0.25047 0.16254 0.55769 0.0
C982 C 0.25208 0.15273 0.54416 0.0
C983 C 0.24623 0.16637 0.58701 0.0
C984 C 0.23405 0.1777 0.58676 0.0
C985 C 0.2561 0.16515 0.60084 0.0
C986 C 0.26958 0.15388 0.6016 0.0
C987 C 0.28166 0.1543 0.5901 0.0
C988 C 0.29426 0.14355 0.59082 0.0
C989 C 0.29497 0.1324 0.60306 0.0
C990 C 0.28311 0.13201 0.61464 0.0
C991 C 0.27048 0.14272 0.61396 0.0
H992 H 0.30473 0.12409 0.6036 0.0
H993 H 0.18249 0.22855 0.59739 0.0
H994 H 0.4958 0.52529 0.61524 0.0
H995 H 0.47672 0.52232 0.63687 0.0
H996 H 0.43812 0.5343 0.60461 0.0
H997 H 0.45713 0.53719 0.58288 0.0
H998 H 0.43562 0.54983 0.63295 0.0
H999 H 0.44396 0.49574 0.61532 0.0
H1000 H 0.45986 0.47213 0.60842 0.0
H1001 H 0.47886 0.47125 0.65642 0.0
H1002 H 0.46323 0.49501 0.66356 0.0
H1003 H 0.37161 0.5245 0.68197 0.0
H1004 H 0.39041 0.5274 0.66007 0.0
H1005 H 0.42934 0.5149 0.6917 0.0
H1006 H 0.4106 0.51174 0.7136 0.0
H1007 H 0.4315 0.49959 0.66349 0.0
H1008 H 0.42343 0.55371 0.68114 0.0
H1009 H 0.40768 0.5774 0.68813 0.0
H1010 H 0.38835 0.5783 0.64026 0.0
H1011 H 0.40382 0.55447 0.63303 0.0
C1012 C 0.48323 0.52715 0.6127 0.0
C1013 C 0.47799 0.53141 0.5973 0.0
C1014 C 0.47234 0.52548 0.62509 0.0
C1015 C 0.45596 0.52792 0.62232 0.0
C1016 C 0.45071 0.53237 0.60703 0.0
C1017 C 0.4616 0.53407 0.59463 0.0
C1018 C 0.44431 0.52588 0.6354 0.0
C1019 C 0.43456 0.53876 0.63949 0.0
C1020 C 0.44318 0.51158 0.64417 0.0
C1021 C 0.45254 0.49725 0.63993 0.0
C1022 C 0.45162 0.49059 0.62437 0.0
C1023 C 0.46057 0.47717 0.62042 0.0
C1024 C 0.4704 0.47022 0.63196 0.0
C1025 C 0.47126 0.47666 0.64749 0.0
C1026 C 0.46235 0.49009 0.6515 0.0
C1027 C 0.38417 0.52237 0.68428 0.0
C1028 C 0.3896 0.51793 0.69956 0.0
C1029 C 0.39491 0.5241 0.67176 0.0
C1030 C 0.41132 0.52155 0.67428 0.0
C1031 C 0.41674 0.51695 0.68948 0.0
C1032 C 0.40601 0.5152 0.702 0.0
C1033 C 0.42282 0.52354 0.66107 0.0
C1034 C 0.43255 0.51065 0.65696 0.0
C1035 C 0.42394 0.53784 0.65229 0.0
C1036 C 0.41466 0.5522 0.65659 0.0
C1037 C 0.41572 0.55888 0.67214 0.0
C1038 C 0.40686 0.57235 0.67614 0.0
C1039 C 0.39699 0.57933 0.66466 0.0
C1040 C 0.39598 0.57287 0.64914 0.0
C1041 C 0.40481 0.55939 0.64508 0.0
H1042 H 0.39014 0.58976 0.66778 0.0
H1043 H 0.47731 0.45983 0.62888 0.0
H1044 H 0.7407 0.27743 0.66503 0.0
H1045 H 0.73624 0.29668 0.6437 0.0
H1046 H 0.78573 0.29339 0.63047 0.0
H1047 H 0.79026 0.27417 0.65163 0.0
H1048 H 0.77622 0.32397 0.6305 0.0
H1049 H 0.75601 0.2728 0.60984 0.0
H1050 H 0.73876 0.24857 0.61005 0.0
H1051 H 0.69693 0.27761 0.60894 0.0
H1052 H 0.71395 0.30204 0.60892 0.0
H1053 H 0.78292 0.34129 0.54959 0.0
H1054 H 0.7814 0.32971 0.57602 0.0
H1055 H 0.73179 0.34259 0.57883 0.0
H1056 H 0.7332 0.35432 0.5521 0.0
H1057 H 0.7371 0.31101 0.5867 0.0
H1058 H 0.7581 0.36211 0.60242 0.0
H1059 H 0.77586 0.38591 0.60139 0.0
H1060 H 0.81659 0.35692 0.6113 0.0
H1061 H 0.79912 0.33289 0.61216 0.0
C1062 C 0.75062 0.28078 0.65754 0.0
C1063 C 0.76583 0.27424 0.66001 0.0
C1064 C 0.74805 0.29181 0.64539 0.0
C1065 C 0.76063 0.29639 0.63543 0.0
C1066 C 0.77588 0.2901 0.63807 0.0
C1067 C 0.77845 0.27913 0.6502 0.0
C1068 C 0.75797 0.30733 0.62187 0.0
C1069 C 0.7677 0.32113 0.6209 0.0
C1070 C 0.74647 0.30391 0.60961 0.0
C1071 C 0.73624 0.28924 0.60959 0.0
C1072 C 0.74313 0.27402 0.60977 0.0
C1073 C 0.7334 0.26025 0.60983 0.0
C1074 C 0.71676 0.26155 0.60957 0.0
C1075 C 0.70982 0.27662 0.60919 0.0
C1076 C 0.7195 0.29043 0.60915 0.0
C1077 C 0.77168 0.34182 0.55583 0.0
C1078 C 0.75815 0.3487 0.54871 0.0
C1079 C 0.77087 0.33527 0.57101 0.0
C1080 C 0.75653 0.33543 0.57946 0.0
C1081 C 0.74299 0.34243 0.57252 0.0
C1082 C 0.74383 0.34915 0.55729 0.0
C1083 C 0.75572 0.32736 0.59509 0.0
C1084 C 0.74535 0.31408 0.59647 0.0
C1085 C 0.76669 0.33122 0.6077 0.0
C1086 C 0.77728 0.34566 0.60727 0.0
C1087 C 0.77085 0.36078 0.60427 0.0
C1088 C 0.78087 0.37432 0.60373 0.0
C1089 C 0.79734 0.37292 0.60626 0.0
C1090 C 0.80383 0.35798 0.60935 0.0
C1091 C 0.79387 0.3444 0.60989 0.0
H1092 H 0.80508 0.38342 0.60584 0.0
H1093 H 0.70924 0.25087 0.60961 0.0
H1094 H 0.52203 0.97242 0.6118 0.0
H1095 H 0.5407 0.97888 0.63394 0.0
H1096 H 0.50664 0.96011 0.6674 0.0
H1097 H 0.48778 0.95415 0.64532 0.0
H1098 H 0.51994 0.98602 0.67947 0.0
H1099 H 0.53948 0.93837 0.65408 0.0
H1100 H 0.54883 0.92169 0.63161 0.0
H1101 H 0.58775 0.95483 0.62431 0.0
H1102 H 0.5785 0.97182 0.64661 0.0
H1103 H 0.57048 0.9652 0.74419 0.0
H1104 H 0.55289 0.96443 0.7206 0.0
H1105 H 0.58709 0.99301 0.69501 0.0
H1106 H 0.60482 0.99401 0.71871 0.0
H1107 H 0.57497 0.9648 0.67819 0.0
H1108 H 0.55585 0.0109 0.70644 0.0
H1109 H 0.54641 0.02565 0.73015 0.0
H1110 H 0.50629 0.99314 0.73332 0.0
H1111 H 0.51562 0.97803 0.70976 0.0
C1112 C 0.51857 0.96971 0.6239 0.0
C1113 C 0.50354 0.96271 0.62689 0.0
C1114 C 0.52923 0.97337 0.63653 0.0
C1115 C 0.52518 0.96974 0.65232 0.0
C1116 C 0.51003 0.96303 0.65532 0.0
C1117 C 0.49927 0.95961 0.64273 0.0
C1118 C 0.53682 0.97258 0.6657 0.0
C1119 C 0.53192 0.98127 0.67922 0.0
C1120 C 0.55259 0.96666 0.66527 0.0
C1121 C 0.55819 0.95645 0.65189 0.0
C1122 C 0.54996 0.94216 0.6476 0.0
C1123 C 0.55525 0.93264 0.63491 0.0
C1124 C 0.56885 0.93722 0.62651 0.0
C1125 C 0.57721 0.95131 0.63081 0.0
C1126 C 0.57195 0.96088 0.64348 0.0
C1127 C 0.5743 0.97134 0.73356 0.0
C1128 C 0.58905 0.97966 0.7333 0.0
C1129 C 0.56419 0.97094 0.72013 0.0
C1130 C 0.56868 0.97876 0.70616 0.0
C1131 C 0.58345 0.98695 0.70575 0.0
C1132 C 0.59351 0.98753 0.71928 0.0
C1133 C 0.55797 0.97801 0.69193 0.0
C1134 C 0.56304 0.9697 0.6783 0.0
C1135 C 0.54229 0.98405 0.69237 0.0
C1136 C 0.53651 0.99326 0.7064 0.0
C1137 C 0.54507 0.00682 0.71225 0.0
C1138 C 0.53973 0.01526 0.72566 0.0
C1139 C 0.52578 0.01031 0.73326 0.0
C1140 C 0.5171 0.99695 0.72743 0.0
C1141 C 0.5224 0.98846 0.71403 0.0
H1142 H 0.52167 0.01685 0.74365 0.0
H1143 H 0.57293 0.92984 0.61669 0.0
H1144 H 0.85928 0.24031 0.75864 0.0
H1145 H 0.88458 0.24139 0.77353 0.0
H1146 H 0.88015 0.191 0.78305 0.0
H1147 H 0.85498 0.18962 0.76761 0.0
H1148 H 0.88882 0.2106 0.81039 0.0
H1149 H 0.90608 0.20077 0.75708 0.0
H1150 H 0.90706 0.2048 0.72797 0.0
H1151 H 0.92472 0.25286 0.73596 0.0
H1152 H 0.92362 0.2492 0.76513 0.0
H1153 H 0.96801 0.21857 0.84548 0.0
H1154 H 0.9454 0.20793 0.8292 0.0
H1155 H 0.94132 0.2535 0.80614 0.0
H1156 H 0.96386 0.26402 0.82193 0.0
H1157 H 0.93837 0.23018 0.78473 0.0
H1158 H 0.91667 0.24181 0.83716 0.0
H1159 H 0.91486 0.23893 0.8664 0.0
H1160 H 0.90505 0.1886 0.86016 0.0
H1161 H 0.907 0.19117 0.83088 0.0
C1162 C 0.86375 0.22937 0.76365 0.0
C1163 C 0.8551 0.21484 0.76176 0.0
C1164 C 0.87818 0.23004 0.77225 0.0
C1165 C 0.88428 0.21624 0.77926 0.0
C1166 C 0.87562 0.20177 0.77772 0.0
C1167 C 0.8612 0.20104 0.76895 0.0
C1168 C 0.8997 0.21719 0.78823 0.0
C1169 C 0.89977 0.21453 0.80476 0.0
C1170 C 0.91389 0.22249 0.78087 0.0
C1171 C 0.91468 0.22473 0.76331 0.0
C1172 C 0.91007 0.21224 0.75264 0.0
C1173 C 0.91066 0.21445 0.73612 0.0
C1174 C 0.91592 0.22909 0.73012 0.0
C1175 C 0.92064 0.24153 0.74062 0.0
C1176 C 0.92006 0.23938 0.75715 0.0
C1177 C 0.96233 0.22627 0.83687 0.0
C1178 C 0.96774 0.24216 0.83505 0.0
C1179 C 0.94939 0.22019 0.82761 0.0
C1180 C 0.94159 0.22996 0.81651 0.0
C1181 C 0.94717 0.24571 0.81456 0.0
C1182 C 0.96006 0.25173 0.82369 0.0
C1183 C 0.92739 0.2242 0.80704 0.0
C1184 C 0.92754 0.22592 0.79036 0.0
C1185 C 0.91338 0.21818 0.8143 0.0
C1186 C 0.91219 0.21664 0.83187 0.0
C1187 C 0.91426 0.23011 0.84204 0.0
C1188 C 0.91318 0.22854 0.85861 0.0
C1189 C 0.9099 0.21358 0.86514 0.0
C1190 C 0.90763 0.20017 0.8551 0.0
C1191 C 0.90872 0.20168 0.83852 0.0
H1192 H 0.90906 0.21239 0.87797 0.0
H1193 H 0.91637 0.23078 0.71733 0.0
H1194 H 0.49009 0.89546 0.49572 0.0
H1195 H 0.4968 0.87577 0.47496 0.0
H1196 H 0.45974 0.84392 0.4916 0.0
H1197 H 0.45279 0.86373 0.51229 0.0
H1198 H 0.49199 0.82973 0.4845 0.0
H1199 H 0.44982 0.8615 0.46168 0.0
H1200 H 0.43707 0.88688 0.45471 0.0
H1201 H 0.47749 0.89982 0.42635 0.0
H1202 H 0.49059 0.87461 0.43336 0.0
H1203 H 0.48921 0.77714 0.41608 0.0
H1204 H 0.48385 0.79408 0.43947 0.0
H1205 H 0.50721 0.83404 0.41687 0.0
H1206 H 0.51186 0.81737 0.39323 0.0
H1207 H 0.481 0.84359 0.42795 0.0
H1208 H 0.52373 0.81299 0.45003 0.0
H1209 H 0.53807 0.78859 0.4574 0.0
H1210 H 0.49921 0.77436 0.48726 0.0
H1211 H 0.48454 0.79858 0.47991 0.0
C1212 C 0.48348 0.8842 0.49503 0.0
C1213 C 0.47091 0.88109 0.50554 0.0
C1214 C 0.4873 0.873 0.48319 0.0
C1215 C 0.47875 0.85845 0.48181 0.0
C1216 C 0.46648 0.8551 0.49256 0.0
C1217 C 0.46247 0.86642 0.50425 0.0
C1218 C 0.48217 0.84712 0.4686 0.0
C1219 C 0.48943 0.83258 0.47212 0.0
C1220 C 0.47917 0.85114 0.45251 0.0
C1221 C 0.47125 0.86624 0.44818 0.0
C1222 C 0.45605 0.86982 0.45407 0.0
C1223 C 0.44875 0.88416 0.4501 0.0
C1224 C 0.45649 0.89498 0.44013 0.0
C1225 C 0.47152 0.89145 0.43409 0.0
C1226 C 0.47888 0.87713 0.43805 0.0
C1227 C 0.49336 0.78949 0.41622 0.0
C1228 C 0.50089 0.79596 0.40283 0.0
C1229 C 0.49036 0.79916 0.42962 0.0
C1230 C 0.49521 0.81536 0.43002 0.0
C1231 C 0.50324 0.82163 0.41684 0.0
C1232 C 0.50595 0.81208 0.40334 0.0
C1233 C 0.49113 0.82608 0.44367 0.0
C1234 C 0.48365 0.84058 0.44028 0.0
C1235 C 0.49417 0.82209 0.45984 0.0
C1236 C 0.50297 0.80751 0.46428 0.0
C1237 C 0.51819 0.80459 0.45807 0.0
C1238 C 0.52638 0.79081 0.46226 0.0
C1239 C 0.51953 0.77991 0.47275 0.0
C1240 C 0.50449 0.7828 0.47911 0.0
C1241 C 0.49623 0.79656 0.47495 0.0
H1242 H 0.5259 0.76925 0.47598 0.0
H1243 H 0.45081 0.90608 0.43706 0.0
H1244 H 0.14988 0.25014 0.75702 0.0
H1245 H 0.12674 0.24812 0.77432 0.0
H1246 H 0.1525 0.27477 0.81143 0.0
H1247 H 0.17599 0.27631 0.79441 0.0
H1248 H 0.13442 0.2511 0.82406 0.0
H1249 H 0.12696 0.29364 0.78705 0.0
H1250 H 0.12568 0.30597 0.76048 0.0
H1251 H 0.08745 0.27355 0.7462 0.0
H1252 H 0.08866 0.26088 0.77264 0.0
H1253 H 0.05071 0.2881 0.84137 0.0
H1254 H 0.07665 0.28775 0.82854 0.0
H1255 H 0.0798 0.23708 0.83674 0.0
H1256 H 0.05389 0.23741 0.85 0.0
H1257 H 0.0841 0.27325 0.80218 0.0
H1258 H 0.11949 0.22679 0.8385 0.0
H1259 H 0.12153 0.21709 0.86616 0.0
H1260 H 0.10495 0.26219 0.88404 0.0
H1261 H 0.10302 0.27222 0.85652 0.0
C1262 C 0.15079 0.25528 0.76898 0.0
C1263 C 0.16478 0.2635 0.77427 0.0
C1264 C 0.13748 0.25423 0.77882 0.0
C1265 C 0.13782 0.2615 0.79408 0.0
C1266 C 0.15197 0.26912 0.79967 0.0
C1267 C 0.16532 0.27014 0.78986 0.0
C1268 C 0.12311 0.26201 0.80375 0.0
C1269 C 0.12339 0.25589 0.81929 0.0
C1270 C 0.10882 0.26858 0.79764 0.0
C1271 C 0.10801 0.27621 0.78176 0.0
C1272 C 0.11836 0.28907 0.7782 0.0
C1273 C 0.11764 0.29612 0.76318 0.0
C1274 C 0.10652 0.29052 0.75165 0.0
C1275 C 0.09607 0.27787 0.75514 0.0
C1276 C 0.09676 0.27075 0.77014 0.0
C1277 C 0.05697 0.27689 0.84062 0.0
C1278 C 0.05019 0.26276 0.84664 0.0
C1279 C 0.07181 0.27671 0.83324 0.0
C1280 C 0.0802 0.26241 0.83165 0.0
C1281 C 0.07366 0.24831 0.838 0.0
C1282 C 0.05882 0.24851 0.84553 0.0
C1283 C 0.09528 0.26221 0.82251 0.0
C1284 C 0.09508 0.26837 0.807 0.0
C1285 C 0.10969 0.25604 0.82882 0.0
C1286 C 0.11094 0.25018 0.84543 0.0
C1287 C 0.11633 0.23464 0.84834 0.0
C1288 C 0.11746 0.22909 0.86399 0.0
C1289 C 0.11332 0.239 0.87684 0.0
C1290 C 0.10809 0.2545 0.87407 0.0
C1291 C 0.10695 0.26012 0.85845 0.0
H1292 H 0.1142 0.23467 0.88895 0.0
H1293 H 0.10597 0.296 0.74002 0.0
H1294 H 0.5307 0.58857 0.4567 0.0
H1295 H 0.52791 0.61041 0.43783 0.0
H1296 H 0.51736 0.64282 0.47678 0.0
H1297 H 0.5202 0.62105 0.49573 0.0
H1298 H 0.49705 0.6467 0.45206 0.0
H1299 H 0.55398 0.64338 0.45923 0.0
H1300 H 0.58002 0.63001 0.45969 0.0
H1301 H 0.57432 0.6177 0.40983 0.0
H1302 H 0.54812 0.63081 0.40912 0.0
H1303 H 0.50713 0.72008 0.41202 0.0
H1304 H 0.50988 0.69766 0.43013 0.0
H1305 H 0.52 0.66638 0.39015 0.0
H1306 H 0.51748 0.68884 0.37193 0.0
H1307 H 0.5403 0.66152 0.41489 0.0
H1308 H 0.4835 0.66528 0.40768 0.0
H1309 H 0.45752 0.67877 0.40729 0.0
H1310 H 0.46303 0.69033 0.45734 0.0
H1311 H 0.48917 0.6771 0.45798 0.0
C1312 C 0.52794 0.60038 0.46128 0.0
C1313 C 0.52571 0.60306 0.47774 0.0
C1314 C 0.52633 0.61286 0.45046 0.0
C1315 C 0.52258 0.6283 0.4559 0.0
C1316 C 0.52023 0.63099 0.4723 0.0
C1317 C 0.52181 0.61852 0.48312 0.0
C1318 C 0.52095 0.64164 0.44448 0.0
C1319 C 0.50659 0.65007 0.44408 0.0
C1320 C 0.53324 0.64579 0.43378 0.0
C1321 C 0.54901 0.63794 0.43416 0.0
C1322 C 0.55821 0.63771 0.44839 0.0
C1323 C 0.57302 0.6302 0.44869 0.0
C1324 C 0.5788 0.62297 0.43481 0.0
C1325 C 0.56981 0.62328 0.42058 0.0
C1326 C 0.55499 0.63076 0.42022 0.0
C1327 C 0.50991 0.70844 0.40705 0.0
C1328 C 0.51203 0.70626 0.3905 0.0
C1329 C 0.51142 0.6956 0.41742 0.0
C1330 C 0.51496 0.68029 0.41148 0.0
C1331 C 0.51723 0.67809 0.395 0.0
C1332 C 0.51574 0.69094 0.38459 0.0
C1333 C 0.51643 0.66661 0.42252 0.0
C1334 C 0.53075 0.65812 0.42285 0.0
C1335 C 0.50411 0.66241 0.43317 0.0
C1336 C 0.48836 0.67033 0.43284 0.0
C1337 C 0.47923 0.67081 0.41857 0.0
C1338 C 0.46447 0.67839 0.41832 0.0
C1339 C 0.45864 0.68543 0.43227 0.0
C1340 C 0.46756 0.68488 0.44653 0.0
C1341 C 0.48235 0.67733 0.44685 0.0
H1342 H 0.44721 0.6913 0.43205 0.0
H1343 H 0.59026 0.61716 0.43507 0.0
H1344 H 0.85561 0.7893 0.7211 0.0
H1345 H 0.8734 0.78157 0.69949 0.0
H1346 H 0.91256 0.77814 0.73345 0.0
H1347 H 0.89491 0.78621 0.75509 0.0
H1348 H 0.92106 0.79451 0.70691 0.0
H1349 H 0.89476 0.74476 0.71858 0.0
H1350 H 0.87176 0.72655 0.72287 0.0
H1351 H 0.85488 0.73422 0.67487 0.0
H1352 H 0.87767 0.75267 0.67036 0.0
H1353 H 0.97429 0.75554 0.65423 0.0
H1354 H 0.95718 0.76216 0.67672 0.0
H1355 H 0.91637 0.76416 0.64459 0.0
H1356 H 0.9333 0.75727 0.62208 0.0
H1357 H 0.90914 0.74794 0.67083 0.0
H1358 H 0.93469 0.7983 0.65935 0.0
H1359 H 0.95752 0.81667 0.65488 0.0
H1360 H 0.97556 0.8081 0.7023 0.0
H1361 H 0.95293 0.7895 0.70697 0.0
C1362 C 0.86803 0.78698 0.72395 0.0
C1363 C 0.87388 0.78836 0.73978 0.0
C1364 C 0.87814 0.78243 0.71162 0.0
C1365 C 0.89425 0.77914 0.71491 0.0
C1366 C 0.90014 0.78057 0.73069 0.0
C1367 C 0.89003 0.78507 0.74303 0.0
C1368 C 0.90503 0.77455 0.70182 0.0
C1369 C 0.9186 0.78419 0.69916 0.0
C1370 C 0.90157 0.7613 0.69151 0.0
C1371 C 0.88784 0.75022 0.69419 0.0
C1372 C 0.88607 0.74268 0.70898 0.0
C1373 C 0.87309 0.73229 0.71144 0.0
C1374 C 0.86185 0.72926 0.69916 0.0
C1375 C 0.86359 0.73659 0.68438 0.0
C1376 C 0.87654 0.74701 0.68186 0.0
C1377 C 0.96168 0.75743 0.65193 0.0
C1378 C 0.95517 0.75592 0.63635 0.0
C1379 C 0.95193 0.76126 0.66479 0.0
C1380 C 0.93553 0.7638 0.66229 0.0
C1381 C 0.92899 0.76224 0.64678 0.0
C1382 C 0.93871 0.75835 0.63392 0.0
C1383 C 0.92513 0.76796 0.67585 0.0
C1384 C 0.91163 0.75824 0.6786 0.0
C1385 C 0.92862 0.78117 0.68622 0.0
C1386 C 0.94221 0.79238 0.68345 0.0
C1387 C 0.94359 0.80024 0.66878 0.0
C1388 C 0.95648 0.81071 0.66621 0.0
C1389 C 0.96801 0.81352 0.67828 0.0
C1390 C 0.96663 0.80589 0.69295 0.0
C1391 C 0.95377 0.79539 0.69557 0.0
H1392 H 0.97798 0.82163 0.67627 0.0
H1393 H 0.85181 0.72121 0.70109 0.0
H1394 H 0.02663 0.87074 0.47504 0.0
H1395 H 0.02164 0.84706 0.49107 0.0
H1396 H 0.04036 0.87205 0.53304 0.0
H1397 H 0.04484 0.89603 0.51729 0.0
H1398 H 0.0509 0.83929 0.52911 0.0
H1399 H 0.00272 0.87031 0.52963 0.0
H1400 H 0.98058 0.88497 0.51713 0.0
H1401 H 0.96514 0.84229 0.49159 0.0
H1402 H 0.98736 0.82744 0.50377 0.0
H1403 H 0.01846 0.78825 0.58856 0.0
H1404 H 0.02766 0.81046 0.57217 0.0
H1405 H 0.99925 0.79176 0.53226 0.0
H1406 H 0.98953 0.77 0.54877 0.0
H1407 H 0.99436 0.8217 0.53516 0.0
H1408 H 0.04165 0.79013 0.53439 0.0
H1409 H 0.06402 0.77505 0.5459 0.0
H1410 H 0.0815 0.81748 0.57055 0.0
H1411 H 0.05911 0.83278 0.55935 0.0
C1412 C 0.02962 0.87127 0.48769 0.0
C1413 C 0.03601 0.88538 0.49488 0.0
C1414 C 0.02688 0.85768 0.49679 0.0
C1415 C 0.03059 0.85788 0.51322 0.0
C1416 C 0.03752 0.87168 0.52034 0.0
C1417 C 0.04011 0.88535 0.51129 0.0
C1418 C 0.02632 0.84401 0.52311 0.0
C1419 C 0.03855 0.83548 0.53061 0.0
C1420 C 0.01023 0.83893 0.52472 0.0
C1421 C 0.9968 0.84781 0.51749 0.0
C1422 C 0.99469 0.86409 0.52125 0.0
C1423 C 0.98211 0.87243 0.51424 0.0
C1424 C 0.97149 0.86458 0.50354 0.0
C1425 C 0.97339 0.84836 0.49986 0.0
C1426 C 0.98597 0.83998 0.50682 0.0
C1427 C 0.01432 0.78881 0.57624 0.0
C1428 C 0.00321 0.77745 0.56997 0.0
C1429 C 0.01964 0.80146 0.56685 0.0
C1430 C 0.01425 0.80274 0.55091 0.0
C1431 C 0.00353 0.7911 0.54453 0.0
C1432 C 0.998 0.77864 0.55398 0.0
C1433 C 0.01895 0.81666 0.54111 0.0
C1434 C 0.00676 0.82534 0.53366 0.0
C1435 C 0.0351 0.82172 0.53944 0.0
C1436 C 0.0486 0.81257 0.54616 0.0
C1437 C 0.05019 0.79622 0.54237 0.0
C1438 C 0.06289 0.78764 0.54882 0.0
C1439 C 0.07415 0.79529 0.55899 0.0
C1440 C 0.07276 0.81156 0.56269 0.0
C1441 C 0.06007 0.8202 0.55628 0.0
H1442 H 0.08397 0.78863 0.56397 0.0
H1443 H 0.96176 0.87105 0.49812 0.0
H1444 H 0.16664 0.73621 0.69691 0.0
H1445 H 0.14409 0.73808 0.67808 0.0
H1446 H 0.11154 0.74051 0.71751 0.0
H1447 H 0.13396 0.73808 0.73639 0.0
H1448 H 0.1004 0.72032 0.69469 0.0
H1449 H 0.1218 0.77394 0.6968 0.0
H1450 H 0.14276 0.79494 0.69517 0.0
H1451 H 0.15065 0.78191 0.64607 0.0
H1452 H 0.12988 0.76066 0.64748 0.0
H1453 H 0.03209 0.7465 0.65226 0.0
H1454 H 0.05508 0.74554 0.67061 0.0
H1455 H 0.08665 0.74099 0.63058 0.0
H1456 H 0.06372 0.74207 0.61208 0.0
H1457 H 0.09841 0.76222 0.6534 0.0
H1458 H 0.07684 0.70861 0.65144 0.0
H1459 H 0.05572 0.68777 0.65318 0.0
H1460 H 0.04802 0.70105 0.70225 0.0
H1461 H 0.06896 0.72213 0.70073 0.0
C1462 C 0.15467 0.73702 0.70157 0.0
C1463 C 0.1521 0.73703 0.71816 0.0
C1464 C 0.14181 0.73825 0.6908 0.0
C1465 C 0.12615 0.73963 0.6964 0.0
C1466 C 0.12353 0.73953 0.71293 0.0
C1467 C 0.13638 0.73828 0.7237 0.0
C1468 C 0.11244 0.74091 0.68502 0.0
C1469 C 0.09987 0.72962 0.68581 0.0
C1470 C 0.11193 0.75281 0.67318 0.0
C1471 C 0.1244 0.7656 0.67229 0.0
C1472 C 0.12809 0.77546 0.68569 0.0
C1473 C 0.13992 0.78743 0.6848 0.0
C1474 C 0.14806 0.78973 0.67054 0.0
C1475 C 0.14436 0.7801 0.65712 0.0
C1476 C 0.13255 0.7681 0.65795 0.0
C1477 C 0.04392 0.74535 0.64733 0.0
C1478 C 0.04606 0.74427 0.6307 0.0
C1479 C 0.05704 0.74475 0.65785 0.0
C1480 C 0.07254 0.743 0.65196 0.0
C1481 C 0.07477 0.74231 0.63537 0.0
C1482 C 0.06165 0.74288 0.62482 0.0
C1483 C 0.08638 0.74168 0.66313 0.0
C1484 C 0.09897 0.75294 0.66229 0.0
C1485 C 0.0869 0.72977 0.67495 0.0
C1486 C 0.07436 0.71705 0.67592 0.0
C1487 C 0.07056 0.70717 0.66256 0.0
C1488 C 0.05863 0.6953 0.66352 0.0
C1489 C 0.05051 0.69312 0.67781 0.0
C1490 C 0.05432 0.70277 0.69119 0.0
C1491 C 0.06622 0.71468 0.69029 0.0
H1492 H 0.04128 0.68392 0.67852 0.0
H1493 H 0.15722 0.79901 0.66988 0.0
H1494 H -0.00019 0.59987 0.51242 0.0
H1495 H 0.00712 0.61867 0.53379 0.0
H1496 H 0.99217 0.58438 0.56884 0.0
H1497 H 0.98451 0.56542 0.54722 0.0
H1498 H 0.97881 0.61055 0.57491 0.0
H1499 H 0.03227 0.59854 0.5677 0.0
H1500 H 0.05719 0.59203 0.55387 0.0
H1501 H 0.05808 0.63848 0.53275 0.0
H1502 H 0.03304 0.64521 0.54622 0.0
H1503 H 0.01395 0.69435 0.60582 0.0
H1504 H 0.01842 0.66574 0.60092 0.0
H1505 H 0.97597 0.66307 0.57086 0.0
H1506 H 0.97132 0.69126 0.57581 0.0
H1507 H 0.02405 0.64971 0.5739 0.0
H1508 H 0.95633 0.62962 0.57381 0.0
H1509 H 0.93241 0.6352 0.58965 0.0
H1510 H 0.9622 0.65047 0.62956 0.0
H1511 H 0.98632 0.64475 0.61407 0.0
C1512 C 0.99853 0.59609 0.52467 0.0
C1513 C 0.99156 0.58117 0.52813 0.0
C1514 C 0.00281 0.60686 0.53695 0.0
C1515 C 0.00045 0.6029 0.553 0.0
C1516 C 0.99418 0.58768 0.55655 0.0
C1517 C 0.98974 0.57691 0.54421 0.0
C1518 C 0.00219 0.61562 0.56554 0.0
C1519 C 0.98885 0.61894 0.57492 0.0
C1520 C 0.01558 0.62626 0.56619 0.0
C1521 C 0.03073 0.62238 0.55802 0.0
C1522 C 0.03773 0.60735 0.56005 0.0
C1523 C 0.05189 0.60362 0.55227 0.0
C1524 C 0.05922 0.61483 0.54244 0.0
C1525 C 0.05241 0.62981 0.54039 0.0
C1526 C 0.03824 0.63361 0.54814 0.0
C1527 C 0.00553 0.6876 0.59826 0.0
C1528 C 0.99225 0.69508 0.59123 0.0
C1529 C 0.00809 0.67128 0.5955 0.0
C1530 C 0.99735 0.66221 0.5858 0.0
C1531 C 0.98419 0.66971 0.57874 0.0
C1532 C 0.98162 0.68591 0.58148 0.0
C1533 C 0.00011 0.64513 0.58195 0.0
C1534 C 0.0143 0.64101 0.57431 0.0
C1535 C 0.9877 0.63354 0.58327 0.0
C1536 C 0.97317 0.63675 0.59274 0.0
C1537 C 0.9578 0.63402 0.58601 0.0
C1538 C 0.9442 0.63725 0.59492 0.0
C1539 C 0.94578 0.64319 0.6106 0.0
C1540 C 0.96098 0.64589 0.61741 0.0
C1541 C 0.97463 0.64268 0.60856 0.0
H1542 H 0.93523 0.6457 0.61747 0.0
H1543 H 0.07018 0.61192 0.53643 0.0
H1544 H 0.77515 0.84557 0.19369 0.0
H1545 H 0.78943 0.87139 0.19537 0.0
H1546 H 0.77861 0.87531 0.2455 0.0
H1547 H 0.76488 0.84933 0.24414 0.0
H1548 H 0.77151 0.90293 0.22773 0.0
H1549 H 0.81466 0.86534 0.23527 0.0
H1550 H 0.83133 0.84267 0.22714 0.0
H1551 H 0.84482 0.86743 0.18471 0.0
H1552 H 0.82804 0.89017 0.1925 0.0
H1553 H 0.82077 0.9585 0.2668 0.0
H1554 H 0.80696 0.93467 0.25649 0.0
H1555 H 0.82974 0.94026 0.21096 0.0
H1556 H 0.84407 0.96429 0.2214 0.0
H1557 H 0.83003 0.9094 0.22034 0.0
H1558 H 0.79035 0.9486 0.21436 0.0
H1559 H 0.77374 0.97149 0.22195 0.0
H1560 H 0.75319 0.94428 0.25982 0.0
H1561 H 0.76985 0.9213 0.25262 0.0
C1562 C 0.776 0.85179 0.20514 0.0
C1563 C 0.76878 0.84534 0.21877 0.0
C1564 C 0.78409 0.86659 0.20604 0.0
C1565 C 0.78502 0.87524 0.22055 0.0
C1566 C 0.77789 0.86886 0.23415 0.0
C1567 C 0.76997 0.85403 0.23332 0.0
C1568 C 0.79327 0.89105 0.22172 0.0
C1569 C 0.78431 0.90437 0.22617 0.0
C1570 C 0.80984 0.893 0.219 0.0
C1571 C 0.81994 0.87935 0.21436 0.0
C1572 C 0.82106 0.86588 0.22413 0.0
C1573 C 0.83055 0.85303 0.2196 0.0
C1574 C 0.83908 0.85358 0.20539 0.0
C1575 C 0.83818 0.867 0.1957 0.0
C1576 C 0.82868 0.87988 0.20017 0.0
C1577 C 0.82286 0.9548 0.25455 0.0
C1578 C 0.83348 0.96341 0.2449 0.0
C1579 C 0.81485 0.94116 0.24864 0.0
C1580 C 0.81705 0.93584 0.23285 0.0
C1581 C 0.82777 0.94425 0.22315 0.0
C1582 C 0.83591 0.95797 0.22911 0.0
C1583 C 0.80835 0.92121 0.22695 0.0
C1584 C 0.81718 0.90811 0.22157 0.0
C1585 C 0.79158 0.91947 0.22864 0.0
C1586 C 0.78143 0.93323 0.23298 0.0
C1587 C 0.78237 0.94752 0.22437 0.0
C1588 C 0.77293 0.96051 0.2286 0.0
C1589 C 0.76243 0.95934 0.24137 0.0
C1590 C 0.76133 0.94516 0.24992 0.0
C1591 C 0.77075 0.93214 0.24576 0.0
H1592 H 0.75514 0.96942 0.24462 0.0
H1593 H 0.84643 0.84362 0.2019 0.0
H1594 H 0.75251 0.14676 0.27002 0.0
H1595 H 0.7705 0.124 0.26872 0.0
H1596 H 0.80915 0.15539 0.25489 0.0
H1597 H 0.7912 0.17839 0.25654 0.0
H1598 H 0.80198 0.12294 0.23579 0.0
H1599 H 0.81477 0.14647 0.28768 0.0
H1600 H 0.80802 0.15814 0.31394 0.0
H1601 H 0.78341 0.11462 0.32614 0.0
H1602 H 0.78979 0.10279 0.29983 0.0
H1603 H 0.85583 0.05736 0.24544 0.0
H1604 H 0.84448 0.08421 0.24478 0.0
H1605 H 0.80724 0.06895 0.27658 0.0
H1606 H 0.8188 0.04251 0.27774 0.0
H1607 H 0.81781 0.09646 0.28616 0.0
H1608 H 0.8016 0.0737 0.23474 0.0
H1609 H 0.80588 0.06133 0.2082 0.0
H1610 H 0.83436 0.10203 0.19474 0.0
H1611 H 0.8304 0.11456 0.22129 0.0
C1612 C 0.76482 0.14878 0.26663 0.0
C1613 C 0.7705 0.16428 0.26337 0.0
C1614 C 0.77506 0.13582 0.26591 0.0
C1615 C 0.79109 0.13808 0.2617 0.0
C1616 C 0.79678 0.15347 0.25813 0.0
C1617 C 0.78658 0.16655 0.25915 0.0
C1618 C 0.80183 0.12424 0.2615 0.0
C1619 C 0.8058 0.11728 0.24676 0.0
C1620 C 0.80639 0.11677 0.27585 0.0
C1621 C 0.80264 0.1238 0.29173 0.0
C1622 C 0.80779 0.13945 0.2959 0.0
C1623 C 0.80405 0.14607 0.31081 0.0
C1624 C 0.79526 0.13714 0.32169 0.0
C1625 C 0.79021 0.12153 0.3177 0.0
C1626 C 0.79389 0.11485 0.30279 0.0
C1627 C 0.84521 0.05977 0.25224 0.0
C1628 C 0.83824 0.04783 0.26167 0.0
C1629 C 0.8387 0.07509 0.25182 0.0
C1630 C 0.82493 0.07861 0.26057 0.0
C1631 C 0.81793 0.06661 0.26983 0.0
C1632 C 0.82453 0.05145 0.27044 0.0
C1633 C 0.81772 0.09474 0.26038 0.0
C1634 C 0.81435 0.10218 0.27511 0.0
C1635 C 0.81349 0.10248 0.246 0.0
C1636 C 0.81588 0.09497 0.23005 0.0
C1637 C 0.80889 0.07995 0.22616 0.0
C1638 C 0.81123 0.07292 0.21111 0.0
C1639 C 0.82043 0.08086 0.19981 0.0
C1640 C 0.82727 0.09587 0.20352 0.0
C1641 C 0.82497 0.10295 0.21856 0.0
H1642 H 0.82223 0.0754 0.18816 0.0
H1643 H 0.79238 0.14229 0.33323 0.0
H1644 H 0.37012 0.00635 0.95182 0.0
H1645 H 0.34747 0.98733 0.95428 0.0
H1646 H 0.37779 0.95556 0.98068 0.0
H1647 H 0.40022 0.97466 0.97861 0.0
H1648 H 0.35735 0.94104 0.95452 0.0
H1649 H 0.35596 0.97664 0.00156 0.0
H1650 H 0.35431 0.00327 0.01451 0.0
H1651 H 0.30944 0.011 0.99038 0.0
H1652 H 0.31096 0.98448 0.97709 0.0
H1653 H 0.31363 0.88564 0.99728 0.0
H1654 H 0.33144 0.907 0.98863 0.0
H1655 H 0.2908 0.93624 0.97775 0.0
H1656 H 0.27277 0.91493 0.98694 0.0
H1657 H 0.31341 0.95396 0.99152 0.0
H1658 H 0.31186 0.91764 0.9476 0.0
H1659 H 0.31271 0.89165 0.93331 0.0
H1660 H 0.3615 0.88598 0.94871 0.0
H1661 H 0.36088 0.91183 0.9633 0.0
C1662 C 0.37189 0.99523 0.95802 0.0
C1663 C 0.3868 0.99189 0.96507 0.0
C1664 C 0.35901 0.98444 0.95944 0.0
C1665 C 0.36103 0.9701 0.96767 0.0
C1666 C 0.37606 0.96657 0.97426 0.0
C1667 C 0.3888 0.97746 0.97313 0.0
C1668 C 0.34743 0.95892 0.97004 0.0
C1669 C 0.34774 0.94379 0.96262 0.0
C1670 C 0.33462 0.96283 0.98012 0.0
C1671 C 0.33368 0.97869 0.98818 0.0
C1672 C 0.34583 0.98409 0.99889 0.0
C1673 C 0.3449 0.99914 0.00632 0.0
C1674 C 0.33181 0.00884 0.00322 0.0
C1675 C 0.31959 0.00349 0.99273 0.0
C1676 C 0.32048 0.98845 0.98526 0.0
C1677 C 0.30843 0.8966 0.99306 0.0
C1678 C 0.29177 0.89854 0.99269 0.0
C1679 C 0.31865 0.90879 0.98801 0.0
C1680 C 0.31246 0.92309 0.98215 0.0
C1681 C 0.29583 0.92525 0.9821 0.0
C1682 C 0.28556 0.91308 0.98736 0.0
C1683 C 0.32354 0.93575 0.97639 0.0
C1684 C 0.32279 0.9512 0.98315 0.0
C1685 C 0.3358 0.93222 0.96544 0.0
C1686 C 0.33629 0.91665 0.95663 0.0
C1687 C 0.32274 0.91081 0.94803 0.0
C1688 C 0.32318 0.8961 0.93986 0.0
C1689 C 0.33714 0.88716 0.94012 0.0
C1690 C 0.35069 0.89292 0.94852 0.0
C1691 C 0.35031 0.90762 0.95672 0.0
H1692 H 0.33746 0.87577 0.93379 0.0
H1693 H 0.3311 0.02049 0.00899 0.0
H1694 H 0.24748 0.36172 0.30608 0.0
H1695 H 0.22777 0.38067 0.2966 0.0
H1696 H 0.26485 0.4168 0.29228 0.0
H1697 H 0.28472 0.39789 0.30212 0.0
H1698 H 0.23759 0.42842 0.30645 0.0
H1699 H 0.25064 0.39942 0.25919 0.0
H1700 H 0.25564 0.3756 0.24237 0.0
H1701 H 0.20719 0.35926 0.24848 0.0
H1702 H 0.20195 0.38286 0.26555 0.0
H1703 H 0.17659 0.47538 0.26843 0.0
H1704 H 0.20207 0.46185 0.27272 0.0
H1705 H 0.17654 0.41727 0.27962 0.0
H1706 H 0.15123 0.43051 0.27524 0.0
H1707 H 0.20189 0.41335 0.26042 0.0
H1708 H 0.19066 0.4398 0.31123 0.0
H1709 H 0.18559 0.46328 0.32854 0.0
H1710 H 0.2307 0.48427 0.31561 0.0
H1711 H 0.23595 0.46098 0.29806 0.0
C1712 C 0.25144 0.37375 0.3033 0.0
C1713 C 0.26764 0.37833 0.30488 0.0
C1714 C 0.24019 0.38451 0.29772 0.0
C1715 C 0.24491 0.40005 0.29352 0.0
C1716 C 0.26101 0.40481 0.29536 0.0
C1717 C 0.27233 0.394 0.3009 0.0
C1718 C 0.23281 0.41122 0.28741 0.0
C1719 C 0.23 0.42533 0.29616 0.0
C1720 C 0.22287 0.4071 0.27406 0.0
C1721 C 0.22593 0.39289 0.26374 0.0
C1722 C 0.24108 0.3907 0.25705 0.0
C1723 C 0.24395 0.37724 0.24745 0.0
C1724 C 0.23175 0.36591 0.24437 0.0
C1725 C 0.21663 0.36804 0.25087 0.0
C1726 C 0.2137 0.38147 0.26049 0.0
C1727 C 0.17643 0.46269 0.2708 0.0
C1728 C 0.16187 0.45404 0.27155 0.0
C1729 C 0.19099 0.45499 0.27328 0.0
C1730 C 0.19117 0.43858 0.27655 0.0
C1731 C 0.17667 0.42993 0.27705 0.0
C1732 C 0.16219 0.43757 0.27462 0.0
C1733 C 0.20629 0.4302 0.27983 0.0
C1734 C 0.2097 0.41662 0.27049 0.0
C1735 C 0.21675 0.4348 0.29264 0.0
C1736 C 0.2136 0.44877 0.30319 0.0
C1737 C 0.19944 0.44949 0.31198 0.0
C1738 C 0.19654 0.46275 0.32185 0.0
C1739 C 0.20779 0.47529 0.32313 0.0
C1740 C 0.22198 0.47457 0.31458 0.0
C1741 C 0.22493 0.46134 0.30467 0.0
H1742 H 0.20553 0.48554 0.33079 0.0
H1743 H 0.234 0.3555 0.23694 0.0
H1744 H 0.11675 0.00186 0.48248 0.0
H1745 H 0.13768 0.0213 0.48985 0.0
H1746 H 0.10303 0.05897 0.49003 0.0
H1747 H 0.08194 0.03941 0.48224 0.0
H1748 H 0.12804 0.06854 0.47493 0.0
H1749 H 0.12111 0.04642 0.52561 0.0
H1750 H 0.11718 0.02575 0.54592 0.0
H1751 H 0.16324 0.00658 0.53562 0.0
H1752 H 0.16737 0.02697 0.51507 0.0
H1753 H 0.20269 0.11145 0.50255 0.0
H1754 H 0.17552 0.10036 0.50625 0.0
H1755 H 0.1882 0.05766 0.48016 0.0
H1756 H 0.21499 0.06872 0.47599 0.0
H1757 H 0.17064 0.05698 0.51493 0.0
H1758 H 0.17034 0.07545 0.45798 0.0
H1759 H 0.17373 0.09728 0.43875 0.0
H1760 H 0.13992 0.12551 0.46444 0.0
H1761 H 0.13651 0.10387 0.48393 0.0
C1762 C 0.11352 0.01423 0.48436 0.0
C1763 C 0.09771 0.01911 0.4819 0.0
C1764 C 0.12549 0.02535 0.48866 0.0
C1765 C 0.1219 0.04158 0.49088 0.0
C1766 C 0.10607 0.0465 0.48851 0.0
C1767 C 0.09406 0.03535 0.48403 0.0
C1768 C 0.13505 0.05333 0.49437 0.0
C1769 C 0.13709 0.06624 0.48401 0.0
C1770 C 0.14686 0.05054 0.50632 0.0
C1771 C 0.14453 0.03824 0.51874 0.0
C1772 C 0.13037 0.03775 0.5276 0.0
C1773 C 0.12811 0.02608 0.53917 0.0
C1774 C 0.13995 0.01485 0.54205 0.0
C1775 C 0.15409 0.01529 0.53338 0.0
C1776 C 0.15641 0.02693 0.52179 0.0
C1777 C 0.19964 0.09969 0.49765 0.0
C1778 C 0.21088 0.09097 0.4889 0.0
C1779 C 0.18419 0.09341 0.49978 0.0
C1780 C 0.18 0.07823 0.49348 0.0
C1781 C 0.1913 0.06939 0.4851 0.0
C1782 C 0.20654 0.07577 0.48266 0.0
C1783 C 0.16375 0.07143 0.49504 0.0
C1784 C 0.16121 0.05951 0.50633 0.0
C1785 C 0.15135 0.0753 0.48422 0.0
C1786 C 0.15333 0.08818 0.47248 0.0
C1787 C 0.16376 0.08638 0.45959 0.0
C1788 C 0.16565 0.09869 0.44863 0.0
C1789 C 0.15709 0.1128 0.4504 0.0
C1790 C 0.14657 0.11459 0.46311 0.0
C1791 C 0.14465 0.10232 0.4741 0.0
H1792 H 0.15856 0.12232 0.44191 0.0
H1793 H 0.13817 0.00583 0.55101 0.0
H1794 H 0.74256 0.13104 0.72807 0.0
H1795 H 0.72378 0.10874 0.73171 0.0
H1796 H 0.6844 0.14137 0.73073 0.0
H1797 H 0.7032 0.16384 0.72757 0.0
H1798 H 0.6817 0.12064 0.75486 0.0
H1799 H 0.69136 0.1171 0.69875 0.0
H1800 H 0.70765 0.11577 0.67447 0.0
H1801 H 0.72821 0.07197 0.69034 0.0
H1802 H 0.71221 0.07316 0.71484 0.0
H1803 H 0.62266 0.05826 0.75103 0.0
H1804 H 0.63897 0.08163 0.74408 0.0
H1805 H 0.68121 0.05276 0.7446 0.0
H1806 H 0.665 0.02931 0.75133 0.0
H1807 H 0.68093 0.07246 0.71935 0.0
H1808 H 0.67271 0.07705 0.77617 0.0
H1809 H 0.65667 0.07842 0.80062 0.0
H1810 H 0.63352 0.12035 0.78337 0.0
H1811 H 0.64928 0.1191 0.7587 0.0
C1812 C 0.72991 0.13349 0.72872 0.0
C1813 C 0.72437 0.14922 0.72755 0.0
C1814 C 0.71917 0.12071 0.73063 0.0
C1815 C 0.70267 0.12337 0.73129 0.0
C1816 C 0.69708 0.13905 0.73017 0.0
C1817 C 0.70783 0.15185 0.72825 0.0
C1818 C 0.69132 0.1098 0.73362 0.0
C1819 C 0.68132 0.11023 0.74693 0.0
C1820 C 0.69107 0.09608 0.72346 0.0
C1821 C 0.70067 0.09529 0.7087 0.0
C1822 C 0.69944 0.10725 0.69713 0.0
C1823 C 0.70861 0.10651 0.68331 0.0
C1824 C 0.71898 0.09381 0.68088 0.0
C1825 C 0.72018 0.0818 0.69224 0.0
C1826 C 0.71105 0.0825 0.70609 0.0
C1827 C 0.63541 0.05686 0.74959 0.0
C1828 C 0.64254 0.04194 0.75182 0.0
C1829 C 0.64472 0.07025 0.74567 0.0
C1830 C 0.66133 0.06897 0.74401 0.0
C1831 C 0.66842 0.05401 0.74584 0.0
C1832 C 0.65913 0.04063 0.74974 0.0
C1833 C 0.67144 0.08325 0.74067 0.0
C1834 C 0.68121 0.08295 0.72719 0.0
C1835 C 0.6715 0.09708 0.75067 0.0
C1836 C 0.66204 0.09787 0.76551 0.0
C1837 C 0.66411 0.08649 0.77753 0.0
C1838 C 0.65508 0.08725 0.79144 0.0
C1839 C 0.64405 0.09944 0.79353 0.0
C1840 C 0.64205 0.11091 0.78172 0.0
C1841 C 0.65103 0.11018 0.76778 0.0
H1842 H 0.63707 0.10002 0.8043 0.0
H1843 H 0.72607 0.09326 0.67018 0.0
H1844 H 0.37122 0.97838 0.53017 0.0
H1845 H 0.35235 0.99892 0.52241 0.0
H1846 H 0.3752 0.0324 0.55564 0.0
H1847 H 0.39465 0.0122 0.56301 0.0
H1848 H 0.33963 0.03156 0.55507 0.0
H1849 H 0.38498 0.03732 0.52074 0.0
H1850 H 0.40546 0.0275 0.5023 0.0
H1851 H 0.36869 0.01107 0.46919 0.0
H1852 H 0.34797 0.02057 0.48756 0.0
H1853 H 0.2985 0.09772 0.52109 0.0
H1854 H 0.31929 0.08086 0.53257 0.0
H1855 H 0.31148 0.04636 0.49411 0.0
H1856 H 0.2913 0.06333 0.48233 0.0
H1857 H 0.34168 0.05001 0.49902 0.0
H1858 H 0.29635 0.04172 0.53323 0.0
H1859 H 0.27509 0.0501 0.55151 0.0
H1860 H 0.31047 0.06976 0.58446 0.0
H1861 H 0.33193 0.06165 0.56627 0.0
C1862 C 0.37234 0.99012 0.5358 0.0
C1863 C 0.38461 0.99364 0.54711 0.0
C1864 C 0.36145 0.00179 0.53144 0.0
C1865 C 0.36249 0.01715 0.53841 0.0
C1866 C 0.37421 0.02056 0.55019 0.0
C1867 C 0.38527 0.00895 0.55443 0.0
C1868 C 0.35183 0.02982 0.53267 0.0
C1869 C 0.34018 0.03582 0.5429 0.0
C1870 C 0.35249 0.03512 0.51673 0.0
C1871 C 0.36492 0.02953 0.50559 0.0
C1872 C 0.38126 0.0315 0.50959 0.0
C1873 C 0.39291 0.02601 0.49914 0.0
C1874 C 0.38838 0.01863 0.4846 0.0
C1875 C 0.37218 0.01677 0.48046 0.0
C1876 C 0.36048 0.02222 0.49088 0.0
C1877 C 0.30129 0.08656 0.51508 0.0
C1878 C 0.29327 0.08187 0.50079 0.0
C1879 C 0.3131 0.07689 0.5217 0.0
C1880 C 0.31684 0.06223 0.51431 0.0
C1881 C 0.30888 0.05763 0.50001 0.0
C1882 C 0.2973 0.06736 0.49329 0.0
C1883 C 0.32903 0.05154 0.52125 0.0
C1884 C 0.34111 0.04591 0.51125 0.0
C1885 C 0.3286 0.04646 0.53733 0.0
C1886 C 0.31572 0.05125 0.54831 0.0
C1887 C 0.29958 0.04793 0.54432 0.0
C1888 C 0.2875 0.05261 0.55468 0.0
C1889 C 0.29143 0.0605 0.56912 0.0
C1890 C 0.30745 0.06368 0.57326 0.0
C1891 C 0.31957 0.05903 0.56294 0.0
H1892 H 0.28206 0.06413 0.57711 0.0
H1893 H 0.39742 0.01439 0.47652 0.0
H1894 H 0.58262 0.46231 0.53117 0.0
H1895 H 0.60433 0.44329 0.52865 0.0
H1896 H 0.63679 0.48175 0.5166 0.0
H1897 H 0.61516 0.50087 0.51919 0.0
H1898 H 0.6403 0.45633 0.49695 0.0
H1899 H 0.63771 0.46543 0.55369 0.0
H1900 H 0.62466 0.46685 0.57989 0.0
H1901 H 0.61202 0.41691 0.57602 0.0
H1902 H 0.6248 0.41524 0.54968 0.0
H1903 H 0.7134 0.41599 0.50715 0.0
H1904 H 0.69125 0.43441 0.50982 0.0
H1905 H 0.65974 0.39511 0.52167 0.0
H1906 H 0.68193 0.37657 0.51922 0.0
H1907 H 0.6554 0.42054 0.54126 0.0
H1908 H 0.6583 0.41138 0.48464 0.0
H1909 H 0.67142 0.40999 0.45847 0.0
H1910 H 0.6835 0.46006 0.46213 0.0
H1911 H 0.67065 0.46171 0.48844 0.0
C1912 C 0.59441 0.46676 0.52814 0.0
C1913 C 0.59715 0.48314 0.52544 0.0
C1914 C 0.60681 0.45585 0.52667 0.0
C1915 C 0.62224 0.46111 0.52259 0.0
C1916 C 0.62498 0.47742 0.51973 0.0
C1917 C 0.61258 0.48833 0.52117 0.0
C1918 C 0.6355 0.44959 0.52118 0.0
C1919 C 0.64374 0.44865 0.50671 0.0
C1920 C 0.63973 0.43929 0.53378 0.0
C1921 C 0.63207 0.44025 0.54963 0.0
C1922 C 0.63203 0.45478 0.55836 0.0
C1923 C 0.6247 0.45563 0.57325 0.0
C1924 C 0.61748 0.44199 0.5796 0.0
C1925 C 0.6176 0.42747 0.57108 0.0
C1926 C 0.6249 0.42656 0.55618 0.0
C1927 C 0.70177 0.41123 0.51032 0.0
C1928 C 0.69944 0.39477 0.51291 0.0
C1929 C 0.68909 0.42179 0.51178 0.0
C1930 C 0.67377 0.41612 0.51575 0.0
C1931 C 0.67144 0.39974 0.51856 0.0
C1932 C 0.68414 0.38915 0.51711 0.0
C1933 C 0.66024 0.42732 0.51705 0.0
C1934 C 0.65194 0.4282 0.53149 0.0
C1935 C 0.65595 0.43757 0.50443 0.0
C1936 C 0.66364 0.43663 0.48858 0.0
C1937 C 0.66386 0.42207 0.47992 0.0
C1938 C 0.67123 0.42124 0.46505 0.0
C1939 C 0.67832 0.43492 0.45866 0.0
C1940 C 0.67802 0.44947 0.46711 0.0
C1941 C 0.67068 0.45037 0.48199 0.0
H1942 H 0.68402 0.43425 0.44714 0.0
H1943 H 0.61181 0.44267 0.59113 0.0
H1944 H 0.70361 0.29328 0.33807 0.0
H1945 H 0.70385 0.30797 0.36358 0.0
H1946 H 0.73114 0.27051 0.38529 0.0
H1947 H 0.7302 0.25535 0.36011 0.0
H1948 H 0.709 0.28008 0.40502 0.0
H1949 H 0.74857 0.30631 0.37262 0.0
H1950 H 0.75835 0.32035 0.34888 0.0
H1951 H 0.72494 0.35792 0.35703 0.0
H1952 H 0.71482 0.34398 0.38072 0.0
H1953 H 0.75279 0.3179 0.46796 0.0
H1954 H 0.74271 0.30448 0.44364 0.0
H1955 H 0.71217 0.34434 0.43404 0.0
H1956 H 0.72219 0.35793 0.45861 0.0
H1957 H 0.73127 0.33546 0.40822 0.0
H1958 H 0.69495 0.31032 0.44362 0.0
H1959 H 0.68676 0.29613 0.46785 0.0
H1960 H 0.71562 0.25624 0.45455 0.0
H1961 H 0.72418 0.27028 0.43035 0.0
C1962 C 0.70949 0.28805 0.34832 0.0
C1963 C 0.71697 0.27314 0.34698 0.0
C1964 C 0.70975 0.29655 0.36287 0.0
C1965 C 0.71769 0.29045 0.37631 0.0
C1966 C 0.72496 0.27549 0.37507 0.0
C1967 C 0.72459 0.26692 0.36059 0.0
C1968 C 0.71873 0.29968 0.39165 0.0
C1969 C 0.71395 0.29216 0.40573 0.0
C1970 C 0.72474 0.31563 0.39254 0.0
C1971 C 0.73081 0.32401 0.37831 0.0
C1972 C 0.74322 0.3175 0.36927 0.0
C1973 C 0.74884 0.32545 0.35584 0.0
C1974 C 0.74223 0.33999 0.35142 0.0
C1975 C 0.73002 0.34664 0.36045 0.0
C1976 C 0.72435 0.33872 0.37388 0.0
C1977 C 0.74376 0.32375 0.46082 0.0
C1978 C 0.73832 0.33901 0.46517 0.0
C1979 C 0.73796 0.31602 0.44695 0.0
C1980 C 0.72664 0.32338 0.43709 0.0
C1981 C 0.72087 0.33845 0.44155 0.0
C1982 C 0.72654 0.34615 0.4556 0.0
C1983 C 0.72192 0.3157 0.42158 0.0
C1984 C 0.72603 0.3235 0.40747 0.0
C1985 C 0.71546 0.29995 0.42069 0.0
C1986 C 0.71028 0.29141 0.4352 0.0
C1987 C 0.69965 0.29857 0.44592 0.0
C1988 C 0.69492 0.29055 0.45964 0.0
C1989 C 0.70068 0.27531 0.46275 0.0
C1990 C 0.71116 0.26805 0.45213 0.0
C1991 C 0.71594 0.27602 0.43839 0.0
H1992 H 0.69701 0.26911 0.47338 0.0
H1993 H 0.7466 0.34613 0.34102 0.0
H1994 H 0.52708 0.02702 0.91681 0.0
H1995 H 0.54753 0.02513 0.89643 0.0
H1996 H 0.51991 0.0556 0.8657 0.0
H1997 H 0.49898 0.05684 0.88594 0.0
H1998 H 0.5307 0.03315 0.8486 0.0
H1999 H 0.55576 0.06893 0.88565 0.0
H2000 H 0.56509 0.07986 0.91181 0.0
H2001 H 0.59562 0.0396 0.91795 0.0
H2002 H 0.58631 0.02828 0.89193 0.0
H2003 H 0.59771 0.0284 0.79649 0.0
H2004 H 0.58137 0.04242 0.81624 0.0
H2005 H 0.58741 0.00354 0.84892 0.0
H2006 H 0.6033 0.9893 0.82913 0.0
H2007 H 0.58852 0.03711 0.86292 0.0
H2008 H 0.55717 0.00014 0.82718 0.0
H2009 H 0.54825 0.9911 0.80018 0.0
H2010 H 0.53012 0.03782 0.79082 0.0
H2011 H 0.53917 0.04718 0.8177 0.0
C2012 C 0.52543 0.03335 0.90571 0.0
C2013 C 0.51155 0.04212 0.90291 0.0
C2014 C 0.53718 0.03241 0.89413 0.0
C2015 C 0.53551 0.04059 0.87966 0.0
C2016 C 0.52154 0.04929 0.8768 0.0
C2017 C 0.5096 0.04997 0.88831 0.0
C2018 C 0.548 0.03922 0.86729 0.0
C2019 C 0.54332 0.03444 0.8517 0.0
C2020 C 0.56453 0.04096 0.87118 0.0
C2021 C 0.57026 0.04771 0.88685 0.0
C2022 C 0.56439 0.06234 0.89262 0.0
C2023 C 0.56969 0.06862 0.90742 0.0
C2024 C 0.58093 0.06042 0.91654 0.0
C2025 C 0.58692 0.04594 0.91086 0.0
C2026 C 0.58165 0.0396 0.89607 0.0
C2027 C 0.59589 0.02307 0.80806 0.0
C2028 C 0.60163 0.00774 0.8113 0.0
C2029 C 0.58656 0.03106 0.81928 0.0
C2030 C 0.5832 0.02394 0.83395 0.0
C2031 C 0.58996 0.00921 0.83766 0.0
C2032 C 0.59895 0.00108 0.82635 0.0
C2033 C 0.57108 0.03063 0.84467 0.0
C2034 C 0.57586 0.03633 0.85988 0.0
C2035 C 0.55467 0.03013 0.84035 0.0
C2036 C 0.54901 0.0244 0.82434 0.0
C2037 C 0.55139 0.00851 0.81931 0.0
C2038 C 0.5463 0.00333 0.80404 0.0
C2039 C 0.53867 0.0139 0.79377 0.0
C2040 C 0.53606 0.02966 0.79877 0.0
C2041 C 0.54117 0.03491 0.81402 0.0
H2042 H 0.53473 0.00987 0.78195 0.0
H2043 H 0.58501 0.06529 0.928 0.0
H2044 H 0.29356 0.27136 0.39991 0.0
H2045 H 0.28465 0.24993 0.41753 0.0
H2046 H 0.28889 0.21559 0.37881 0.0
H2047 H 0.29751 0.23694 0.3611 0.0
H2048 H 0.26115 0.21129 0.39553 0.0
H2049 H 0.31773 0.21897 0.40685 0.0
H2050 H 0.34188 0.23476 0.4147 0.0
H2051 H 0.32099 0.24652 0.45988 0.0
H2052 H 0.29661 0.23096 0.4522 0.0
H2053 H 0.26648 0.13691 0.43289 0.0
H2054 H 0.27125 0.16125 0.41793 0.0
H2055 H 0.26807 0.18949 0.46139 0.0
H2056 H 0.26352 0.16509 0.47657 0.0
H2057 H 0.29317 0.19885 0.44411 0.0
H2058 H 0.2376 0.18908 0.434 0.0
H2059 H 0.21339 0.17334 0.4263 0.0
H2060 H 0.2318 0.16577 0.37919 0.0
H2061 H 0.25624 0.18128 0.38668 0.0
C2062 C 0.29245 0.25926 0.39514 0.0
C2063 C 0.29634 0.25579 0.37918 0.0
C2064 C 0.28746 0.24704 0.40523 0.0
C2065 C 0.28625 0.23118 0.39949 0.0
C2066 C 0.28978 0.22776 0.38347 0.0
C2067 C 0.29484 0.23993 0.37342 0.0
C2068 C 0.28167 0.218 0.4102 0.0
C2069 C 0.26819 0.20848 0.40609 0.0
C2070 C 0.29061 0.21468 0.42422 0.0
C2071 C 0.30528 0.22396 0.42888 0.0
C2072 C 0.31823 0.22503 0.4184 0.0
C2073 C 0.33197 0.23392 0.42283 0.0
C2074 C 0.33295 0.24168 0.43776 0.0
C2075 C 0.32021 0.24053 0.44831 0.0
C2076 C 0.30643 0.23167 0.44393 0.0
C2077 C 0.26675 0.14828 0.4393 0.0
C2078 C 0.26458 0.14905 0.45594 0.0
C2079 C 0.26939 0.1622 0.4307 0.0
C2080 C 0.26978 0.1772 0.43851 0.0
C2081 C 0.26775 0.17803 0.45513 0.0
C2082 C 0.26513 0.16408 0.46377 0.0
C2083 C 0.27279 0.19191 0.4293 0.0
C2084 C 0.28597 0.20174 0.43367 0.0
C2085 C 0.26353 0.19555 0.41554 0.0
C2086 C 0.24882 0.18625 0.41095 0.0
C2087 C 0.23654 0.18396 0.42204 0.0
C2088 C 0.22277 0.1751 0.4177 0.0
C2089 C 0.22107 0.16853 0.40228 0.0
C2090 C 0.23313 0.17085 0.39114 0.0
C2091 C 0.24694 0.1797 0.39542 0.0
H2092 H 0.21039 0.16167 0.39894 0.0
H2093 H 0.3436 0.24855 0.44117 0.0
H2094 H 0.51211 0.47092 0.86035 0.0
H2095 H 0.49285 0.4748 0.83843 0.0
H2096 H 0.45402 0.46414 0.87012 0.0
H2097 H 0.47316 0.46025 0.89204 0.0
H2098 H 0.44885 0.4504 0.84107 0.0
H2099 H 0.46492 0.50265 0.86204 0.0
H2100 H 0.48441 0.5241 0.86949 0.0
H2101 H 0.50001 0.52603 0.82087 0.0
H2102 H 0.48075 0.50442 0.81318 0.0
H2103 H 0.3821 0.48862 0.80853 0.0
H2104 H 0.40482 0.4805 0.8249 0.0
H2105 H 0.43683 0.49172 0.78658 0.0
H2106 H 0.41405 0.5 0.77002 0.0
H2107 H 0.44767 0.50361 0.81569 0.0
H2108 H 0.42884 0.45349 0.79422 0.0
H2109 H 0.40886 0.43243 0.78704 0.0
H2110 H 0.39807 0.42661 0.83666 0.0
H2111 H 0.41781 0.44782 0.84412 0.0
C2112 C 0.49946 0.46937 0.86262 0.0
C2113 C 0.49414 0.46538 0.87795 0.0
C2114 C 0.48849 0.47156 0.85009 0.0
C2115 C 0.472 0.46995 0.85271 0.0
C2116 C 0.4667 0.46541 0.86784 0.0
C2117 C 0.47765 0.46316 0.88034 0.0
C2118 C 0.46016 0.47369 0.83997 0.0
C2119 C 0.44853 0.46205 0.83558 0.0
C2120 C 0.46003 0.48875 0.83248 0.0
C2121 C 0.47154 0.5018 0.83708 0.0
C2122 C 0.4726 0.50757 0.85296 0.0
C2123 C 0.48359 0.51976 0.85723 0.0
C2124 C 0.49348 0.52639 0.84567 0.0
C2125 C 0.49237 0.52086 0.82982 0.0
C2126 C 0.48141 0.50865 0.8255 0.0
C2127 C 0.39395 0.48936 0.80352 0.0
C2128 C 0.39625 0.49495 0.78794 0.0
C2129 C 0.40692 0.48461 0.81288 0.0
C2130 C 0.42247 0.4853 0.80687 0.0
C2131 C 0.42489 0.49102 0.79139 0.0
C2132 C 0.41187 0.49573 0.78196 0.0
C2133 C 0.43616 0.48044 0.81705 0.0
C2134 C 0.44813 0.49186 0.82098 0.0
C2135 C 0.43657 0.46519 0.82414 0.0
C2136 C 0.42474 0.45234 0.81972 0.0
C2137 C 0.42213 0.44781 0.80359 0.0
C2138 C 0.41085 0.43583 0.79947 0.0
C2139 C 0.40218 0.4282 0.81138 0.0
C2140 C 0.40479 0.43253 0.82744 0.0
C2141 C 0.41604 0.44452 0.83163 0.0
H2142 H 0.39346 0.41893 0.80817 0.0
H2143 H 0.50198 0.53583 0.849 0.0
H2144 H 0.73342 0.69577 0.15994 0.0
H2145 H 0.73657 0.67824 0.13652 0.0
H2146 H 0.74331 0.71951 0.10693 0.0
H2147 H 0.73966 0.73711 0.13016 0.0
H2148 H 0.7233 0.69794 0.09276 0.0
H2149 H 0.77495 0.69725 0.11899 0.0
H2150 H 0.79373 0.69348 0.14161 0.0
H2151 H 0.77865 0.64427 0.14455 0.0
H2152 H 0.75961 0.64781 0.12206 0.0
H2153 H 0.75721 0.66259 0.02431 0.0
H2154 H 0.7527 0.67827 0.04864 0.0
H2155 H 0.7457 0.63485 0.07497 0.0
H2156 H 0.75036 0.61899 0.05065 0.0
H2157 H 0.76483 0.65631 0.09134 0.0
H2158 H 0.71395 0.65673 0.06435 0.0
H2159 H 0.69526 0.66052 0.04167 0.0
H2160 H 0.70886 0.71023 0.04016 0.0
H2161 H 0.72782 0.70669 0.0627 0.0
C2162 C 0.73545 0.70111 0.14842 0.0
C2163 C 0.73634 0.71784 0.14693 0.0
C2164 C 0.73739 0.69107 0.13508 0.0
C2165 C 0.74034 0.69757 0.12001 0.0
C2166 C 0.74109 0.71425 0.11846 0.0
C2167 C 0.73915 0.72428 0.13178 0.0
C2168 C 0.74255 0.68702 0.1058 0.0
C2169 C 0.7325 0.68896 0.09238 0.0
C2170 C 0.75426 0.67501 0.10547 0.0
C2171 C 0.76573 0.67284 0.11896 0.0
C2172 C 0.77554 0.68566 0.12454 0.0
C2173 C 0.78625 0.68356 0.13733 0.0
C2174 C 0.78735 0.66866 0.14454 0.0
C2175 C 0.77777 0.65581 0.13896 0.0
C2176 C 0.76702 0.65786 0.12619 0.0
C2177 C 0.75471 0.65634 0.03525 0.0
C2178 C 0.75409 0.63952 0.03552 0.0
C2179 C 0.75207 0.66534 0.04914 0.0
C2180 C 0.74867 0.65773 0.06357 0.0
C2181 C 0.74825 0.64095 0.06394 0.0
C2182 C 0.75088 0.63192 0.05003 0.0
C2183 C 0.7457 0.66736 0.07825 0.0
C2184 C 0.75558 0.66523 0.09175 0.0
C2185 C 0.73384 0.67921 0.07866 0.0
C2186 C 0.72241 0.6814 0.06513 0.0
C2187 C 0.71305 0.66844 0.0591 0.0
C2188 C 0.70239 0.67055 0.04629 0.0
C2189 C 0.7009 0.6856 0.03945 0.0
C2190 C 0.71004 0.69858 0.04545 0.0
C2191 C 0.72073 0.69653 0.05826 0.0
H2192 H 0.69263 0.68721 0.02953 0.0
H2193 H 0.79565 0.66705 0.15444 0.0
H2194 H 0.9815 0.99804 0.10252 0.0
H2195 H 0.96326 0.99366 0.12458 0.0
H2196 H 0.95706 0.04459 0.12965 0.0
H2197 H 0.97584 0.04911 0.108 0.0
H2198 H 0.96095 0.03154 0.15816 0.0
H2199 H 0.92803 0.02023 0.11183 0.0
H2200 H 0.92062 0.00733 0.08596 0.0
H2201 H 0.92141 0.96119 0.10773 0.0
H2202 H 0.92904 0.9738 0.1337 0.0
H2203 H 0.89338 0.02659 0.20855 0.0
H2204 H 0.91054 0.03177 0.18574 0.0
H2205 H 0.92005 0.98137 0.18132 0.0
H2206 H 0.90284 0.97605 0.20406 0.0
H2207 H 0.91392 0.99474 0.15227 0.0
H2208 H 0.94745 0.0063 0.19848 0.0
H2209 H 0.95468 0.01941 0.2243 0.0
H2210 H 0.95238 0.06548 0.2025 0.0
H2211 H 0.94492 0.05263 0.17659 0.0
C2212 C 0.97639 0.00833 0.10841 0.0
C2213 C 0.98016 0.02394 0.10345 0.0
C2214 C 0.9658 0.0058 0.12091 0.0
C2215 C 0.9586 0.01878 0.12865 0.0
C2216 C 0.96241 0.03438 0.12382 0.0
C2217 C 0.97304 0.03693 0.11134 0.0
C2218 C 0.94732 0.01609 0.14194 0.0
C2219 C 0.95053 0.02368 0.15678 0.0
C2220 C 0.93389 0.00558 0.14028 0.0
C2221 C 0.92925 0.99796 0.12468 0.0
C2222 C 0.92674 0.00732 0.11108 0.0
C2223 C 0.92248 6e-05 0.0964 0.0
C2224 C 0.92058 0.98344 0.0952 0.0
C2225 C 0.9229 0.97406 0.10868 0.0
C2226 C 0.92718 0.98126 0.12339 0.0
C2227 C 0.89908 0.01659 0.2027 0.0
C2228 C 0.89678 0.0009 0.20818 0.0
C2229 C 0.90893 0.01958 0.1897 0.0
C2230 C 0.91671 0.00697 0.18193 0.0
C2231 C 0.91418 0.99128 0.18715 0.0
C2232 C 0.90437 0.98827 0.20019 0.0
C2233 C 0.9276 0.01015 0.16845 0.0
C2234 C 0.92431 0.00263 0.15359 0.0
C2235 C 0.94092 0.02077 0.17008 0.0
C2236 C 0.94546 0.02851 0.18563 0.0
C2237 C 0.94836 0.01923 0.19922 0.0
C2238 C 0.95252 0.02661 0.21387 0.0
C2239 C 0.95394 0.04327 0.21505 0.0
C2240 C 0.95125 0.05258 0.20157 0.0
C2241 C 0.94706 0.04525 0.1869 0.0
H2242 H 0.95717 0.04896 0.2264 0.0
H2243 H 0.91728 0.97785 0.08382 0.0
H2244 H 0.23187 0.78202 0.17022 0.0
H2245 H 0.2284 0.80037 0.14791 0.0
H2246 H 0.2787 0.79738 0.13779 0.0
H2247 H 0.28223 0.77913 0.15995 0.0
H2248 H 0.26907 0.82759 0.13597 0.0
H2249 H 0.25005 0.7756 0.11628 0.0
H2250 H 0.2328 0.75137 0.11647 0.0
H2251 H 0.19106 0.78023 0.11179 0.0
H2252 H 0.20809 0.80466 0.11178 0.0
H2253 H 0.28087 0.8399 0.05472 0.0
H2254 H 0.27751 0.8299 0.08165 0.0
H2255 H 0.22829 0.84449 0.08091 0.0
H2256 H 0.2316 0.85472 0.05371 0.0
H2257 H 0.23259 0.81269 0.09051 0.0
H2258 H 0.25297 0.86439 0.10494 0.0
H2259 H 0.27098 0.888 0.1038 0.0
H2260 H 0.31082 0.85934 0.11768 0.0
H2261 H 0.2931 0.8355 0.11867 0.0
C2262 C 0.24217 0.78526 0.1632 0.0
C2263 C 0.25733 0.77911 0.16686 0.0
C2264 C 0.24017 0.79577 0.15049 0.0
C2265 C 0.25327 0.80018 0.14112 0.0
C2266 C 0.26843 0.79424 0.14492 0.0
C2267 C 0.27044 0.78381 0.15762 0.0
C2268 C 0.25131 0.81058 0.12702 0.0
C2269 C 0.26111 0.82433 0.12602 0.0
C2270 C 0.24054 0.80662 0.11425 0.0
C2271 C 0.23032 0.79195 0.11424 0.0
C2272 C 0.23719 0.77678 0.11542 0.0
C2273 C 0.22745 0.76301 0.11547 0.0
C2274 C 0.21084 0.76426 0.1142 0.0
C2275 C 0.20393 0.77928 0.11282 0.0
C2276 C 0.21361 0.79309 0.11279 0.0
C2277 C 0.26934 0.84114 0.06029 0.0
C2278 C 0.25648 0.84806 0.05206 0.0
C2279 C 0.26747 0.83549 0.07574 0.0
C2280 C 0.25269 0.83657 0.08332 0.0
C2281 C 0.23981 0.84363 0.07526 0.0
C2282 C 0.24174 0.8495 0.05978 0.0
C2283 C 0.25075 0.82936 0.09926 0.0
C2284 C 0.24024 0.8162 0.10062 0.0
C2285 C 0.26096 0.83379 0.11231 0.0
C2286 C 0.27169 0.84812 0.11181 0.0
C2287 C 0.26559 0.86309 0.10764 0.0
C2288 C 0.27575 0.87652 0.10704 0.0
C2289 C 0.29204 0.87517 0.11065 0.0
C2290 C 0.2982 0.86037 0.11489 0.0
C2291 C 0.28809 0.8469 0.11551 0.0
H2292 H 0.29988 0.88558 0.11017 0.0
H2293 H 0.20332 0.75359 0.11424 0.0
H2294 H 0.01707 0.48477 0.10621 0.0
H2295 H 0.03592 0.49136 0.12826 0.0
H2296 H 0.02329 0.44706 0.15101 0.0
H2297 H 0.00439 0.44049 0.12915 0.0
H2298 H 0.02353 0.47339 0.17177 0.0
H2299 H 0.05715 0.44994 0.13112 0.0
H2300 H 0.06882 0.4482 0.10426 0.0
H2301 H 0.08881 0.49562 0.11033 0.0
H2302 H 0.07707 0.49772 0.13716 0.0
H2303 H 0.0826 0.45342 0.2262 0.0
H2304 H 0.06551 0.45431 0.20244 0.0
H2305 H 0.08657 0.49984 0.19016 0.0
H2306 H 0.10394 0.49909 0.21413 0.0
H2307 H 0.08209 0.47849 0.16375 0.0
H2308 H 0.05156 0.50076 0.20569 0.0
H2309 H 0.04018 0.50264 0.23265 0.0
H2310 H 0.0142 0.45845 0.22425 0.0
H2311 H 0.02563 0.45615 0.19732 0.0
C2312 C 0.01829 0.47649 0.11597 0.0
C2313 C 0.00932 0.4621 0.11598 0.0
C2314 C 0.0291 0.48023 0.12847 0.0
C2315 C 0.03101 0.46965 0.14119 0.0
C2316 C 0.02196 0.45536 0.14128 0.0
C2317 C 0.01128 0.45157 0.12875 0.0
C2318 C 0.04237 0.47336 0.15453 0.0
C2319 C 0.03634 0.47445 0.17005 0.0
C2320 C 0.05899 0.47534 0.15215 0.0
C2321 C 0.06607 0.47406 0.13605 0.0
C2322 C 0.06391 0.46005 0.12666 0.0
C2323 C 0.07056 0.45899 0.11146 0.0
C2324 C 0.07951 0.47181 0.10557 0.0
C2325 C 0.08185 0.48571 0.11489 0.0
C2326 C 0.07521 0.48684 0.1301 0.0
C2327 C 0.08373 0.46362 0.21846 0.0
C2328 C 0.09455 0.47626 0.22215 0.0
C2329 C 0.0739 0.46411 0.20489 0.0
C2330 C 0.07461 0.47726 0.19474 0.0
C2331 C 0.08581 0.48964 0.19795 0.0
C2332 C 0.09569 0.48918 0.21163 0.0
C2333 C 0.06327 0.47796 0.18102 0.0
C2334 C 0.06926 0.47774 0.16546 0.0
C2335 C 0.04656 0.47688 0.18333 0.0
C2336 C 0.03954 0.47824 0.1995 0.0
C2337 C 0.04351 0.49138 0.20963 0.0
C2338 C 0.03704 0.49253 0.2249 0.0
C2339 C 0.02649 0.48066 0.23017 0.0
C2340 C 0.02238 0.46763 0.22015 0.0
C2341 C 0.02884 0.46641 0.20487 0.0
H2342 H 0.02149 0.48157 0.242 0.0
H2343 H 0.08465 0.47096 0.0938 0.0
H2344 H 0.3461 0.70021 0.27737 0.0
H2345 H 0.37141 0.7025 0.29249 0.0
H2346 H 0.37158 0.75365 0.28678 0.0
H2347 H 0.34615 0.75158 0.27213 0.0
H2348 H 0.40038 0.73952 0.27859 0.0
H2349 H 0.36212 0.73836 0.32165 0.0
H2350 H 0.34011 0.7264 0.33696 0.0
H2351 H 0.36835 0.68497 0.34582 0.0
H2352 H 0.39046 0.69661 0.33035 0.0
H2353 H 0.45478 0.77503 0.33183 0.0
H2354 H 0.43049 0.76572 0.31802 0.0
H2355 H 0.43903 0.71758 0.33337 0.0
H2356 H 0.4635 0.72692 0.34763 0.0
H2357 H 0.40746 0.72522 0.33561 0.0
H2358 H 0.4468 0.7272 0.29541 0.0
H2359 H 0.46905 0.73863 0.28007 0.0
H2360 H 0.43929 0.77716 0.26518 0.0
H2361 H 0.41692 0.7661 0.28063 0.0
C2362 C 0.35139 0.71197 0.27953 0.0
C2363 C 0.3441 0.72571 0.27343 0.0
C2364 C 0.36589 0.71324 0.28812 0.0
C2365 C 0.37336 0.72824 0.29071 0.0
C2366 C 0.36606 0.74195 0.28479 0.0
C2367 C 0.35156 0.74072 0.27633 0.0
C2368 C 0.38898 0.72982 0.29927 0.0
C2369 C 0.40192 0.73648 0.29108 0.0
C2370 C 0.39113 0.72522 0.31537 0.0
C2371 C 0.37786 0.71826 0.32468 0.0
C2372 C 0.36358 0.72664 0.32673 0.0
C2373 C 0.3511 0.71993 0.33546 0.0
C2374 C 0.35281 0.70491 0.34231 0.0
C2375 C 0.36702 0.69659 0.34048 0.0
C2376 C 0.37953 0.70324 0.33174 0.0
C2377 C 0.45157 0.76244 0.33233 0.0
C2378 C 0.4612 0.75168 0.34072 0.0
C2379 C 0.43766 0.75713 0.32436 0.0
C2380 C 0.43312 0.7409 0.32438 0.0
C2381 C 0.4424 0.73014 0.33312 0.0
C2382 C 0.45637 0.73549 0.34123 0.0
C2383 C 0.41871 0.73546 0.31507 0.0
C2384 C 0.40602 0.72803 0.32306 0.0
C2385 C 0.41681 0.73919 0.29869 0.0
C2386 C 0.4302 0.74585 0.28927 0.0
C2387 C 0.44502 0.73817 0.28895 0.0
C2388 C 0.45766 0.74458 0.28022 0.0
C2389 C 0.45559 0.75863 0.27167 0.0
C2390 C 0.44087 0.76628 0.27181 0.0
C2391 C 0.4282 0.75993 0.28053 0.0
H2392 H 0.46539 0.76357 0.26492 0.0
H2393 H 0.34313 0.69974 0.34907 0.0
H2394 H 0.94277 0.37295 0.99139 0.0
H2395 H 0.94891 0.35073 0.97358 0.0
H2396 H 0.99272 0.34296 0.00013 0.0
H2397 H 0.98738 0.36612 0.01713 0.0
H2398 H 0.99916 0.34114 0.97103 0.0
H2399 H 0.95854 0.31646 0.00111 0.0
H2400 H 0.93257 0.31326 0.01432 0.0
H2401 H 0.90819 0.31496 0.96879 0.0
H2402 H 0.934 0.3184 0.95531 0.0
H2403 H 0.00834 0.27055 0.92057 0.0
H2404 H 0.00242 0.28521 0.9455 0.0
H2405 H 0.96839 0.31378 0.91993 0.0
H2406 H 0.97455 0.29963 0.89504 0.0
H2407 H 0.95866 0.30071 0.95213 0.0
H2408 H 0.00097 0.33027 0.92413 0.0
H2409 H 0.02763 0.33212 0.91202 0.0
H2410 H 0.04954 0.31855 0.95647 0.0
H2411 H 0.02295 0.31641 0.96877 0.0
C2412 C 0.9538 0.36666 0.9934 0.0
C2413 C 0.9646 0.3715 0.00571 0.0
C2414 C 0.95715 0.35368 0.98336 0.0
C2415 C 0.97116 0.3449 0.98564 0.0
C2416 C 0.98179 0.34946 0.99814 0.0
C2417 C 0.97861 0.36264 0.008 0.0
C2418 C 0.9752 0.33178 0.97425 0.0
C2419 C 0.99038 0.33209 0.96725 0.0
C2420 C 0.96382 0.31989 0.96917 0.0
C2421 C 0.94823 0.31779 0.9772 0.0
C2422 C 0.94764 0.31626 0.99391 0.0
C2423 C 0.93294 0.31439 0.00145 0.0
C2424 C 0.91874 0.31393 0.9924 0.0
C2425 C 0.9192 0.31532 0.97579 0.0
C2426 C 0.93387 0.3172 0.96818 0.0
C2427 C -0.00051 0.27985 0.92035 0.0
C2428 C 0.99199 0.28407 0.90589 0.0
C2429 C 0.99613 0.28817 0.93455 0.0
C2430 C 0.98496 0.30051 0.93447 0.0
C2431 C 0.97698 0.30424 0.92019 0.0
C2432 C 0.9806 0.29622 0.90599 0.0
C2433 C 0.98232 0.31049 0.9489 0.0
C2434 C 0.96746 0.30957 0.95635 0.0
C2435 C 0.99406 0.32159 0.95466 0.0
C2436 C 0.01 0.32297 0.94728 0.0
C2437 C 0.01147 0.32752 0.93126 0.0
C2438 C 0.02656 0.32866 0.92438 0.0
C2439 C 0.04027 0.3254 0.93346 0.0
C2440 C 0.03891 0.32104 0.94945 0.0
C2441 C 0.02384 0.31986 0.95638 0.0
H2442 H 0.05195 0.32629 0.92811 0.0
H2443 H 0.90737 0.31248 0.99826 0.0
H2444 H 0.67434 0.75231 0.28867 0.0
H2445 H 0.65106 0.75078 0.30625 0.0
H2446 H 0.62002 0.76207 0.26648 0.0
H2447 H 0.6431 0.7633 0.24885 0.0
H2448 H 0.61793 0.78193 0.29664 0.0
H2449 H 0.6182 0.72691 0.27629 0.0
H2450 H 0.63071 0.70075 0.2719 0.0
H2451 H 0.6373 0.69572 0.3226 0.0
H2452 H 0.62504 0.72199 0.32727 0.0
H2453 H 0.53902 0.77262 0.31769 0.0
H2454 H 0.56467 0.7701 0.3047 0.0
H2455 H 0.58327 0.74498 0.34546 0.0
H2456 H 0.55715 0.74697 0.3584 0.0
H2457 H 0.59441 0.7322 0.3187 0.0
H2458 H 0.59259 0.78483 0.34023 0.0
H2459 H 0.58136 0.81129 0.34622 0.0
H2460 H 0.57988 0.82175 0.29612 0.0
H2461 H 0.59088 0.79525 0.2898 0.0
C2462 C 0.66251 0.75434 0.28371 0.0
C2463 C 0.66046 0.75788 0.26742 0.0
C2464 C 0.64927 0.75342 0.29371 0.0
C2465 C 0.63388 0.75629 0.28761 0.0
C2466 C 0.63182 0.75978 0.27136 0.0
C2467 C 0.64498 0.76041 0.26132 0.0
C2468 C 0.61989 0.75639 0.29819 0.0
C2469 C 0.6127 0.77107 0.30139 0.0
C2470 C 0.61358 0.74229 0.30493 0.0
C2471 C 0.6209 0.7265 0.30211 0.0
C2472 C 0.62248 0.72031 0.28649 0.0
C2473 C 0.62948 0.70544 0.28395 0.0
C2474 C 0.63485 0.69661 0.29696 0.0
C2475 C 0.63317 0.7026 0.31254 0.0
C2476 C 0.62619 0.71747 0.31513 0.0
C2477 C 0.54852 0.76648 0.3239 0.0
C2478 C 0.54614 0.76017 0.33917 0.0
C2479 C 0.56323 0.76511 0.31648 0.0
C2480 C 0.57607 0.75777 0.32429 0.0
C2481 C 0.57358 0.75084 0.33928 0.0
C2482 C 0.55868 0.75198 0.34665 0.0
C2483 C 0.59203 0.75773 0.31673 0.0
C2484 C 0.5997 0.74312 0.31415 0.0
C2485 C 0.59902 0.77198 0.31081 0.0
C2486 C 0.59247 0.788 0.31454 0.0
C2487 C 0.58977 0.79273 0.33048 0.0
C2488 C 0.58346 0.80774 0.33393 0.0
C2489 C 0.57989 0.81818 0.32156 0.0
C2490 C 0.58265 0.81365 0.30569 0.0
C2491 C 0.58894 0.79864 0.30217 0.0
H2492 H 0.575 0.8298 0.32426 0.0
H2493 H 0.64026 0.68509 0.29498 0.0
H2494 H 0.99681 0.0987 0.98464 0.0
H2495 H 0.99285 0.12071 0.96623 0.0
H2496 H 0.04395 0.12642 0.9618 0.0
H2497 H 0.04804 0.10483 0.98073 0.0
H2498 H 0.03048 0.15474 0.96515 0.0
H2499 H 0.02081 0.10821 0.93203 0.0
H2500 H 0.0084 0.08219 0.92426 0.0
H2501 H 0.96205 0.10349 0.92329 0.0
H2502 H 0.97417 0.1296 0.93127 0.0
H2503 H 0.02764 0.20512 0.89752 0.0
H2504 H 0.0324 0.18223 0.91469 0.0
H2505 H 0.98169 0.17721 0.92237 0.0
H2506 H 0.9768 0.20002 0.90514 0.0
H2507 H 0.99554 0.14832 0.91683 0.0
H2508 H 0.00543 0.19473 0.95059 0.0
H2509 H 0.01806 0.22071 0.95816 0.0
H2510 H 0.0644 0.1994 0.9576 0.0
H2511 H 0.05205 0.17333 0.94979 0.0
C2512 C 0.00723 0.10472 0.97988 0.0
C2513 C 0.02275 0.09995 0.98417 0.0
C2514 C 0.00493 0.1172 0.9692 0.0
C2515 C 0.0181 0.12509 0.96244 0.0
C2516 C 0.03361 0.12046 0.96679 0.0
C2517 C 0.03592 0.10801 0.97751 0.0
C2518 C 0.01568 0.13833 0.95104 0.0
C2519 C 0.02304 0.15325 0.95446 0.0
C2520 C 0.00571 0.13651 0.93724 0.0
C2521 C 0.99839 0.12083 0.93239 0.0
C2522 C 0.00796 0.10732 0.93028 0.0
C2523 C 0.00098 0.09256 0.92581 0.0
C2524 C 0.98444 0.09118 0.92332 0.0
C2525 C 0.97486 0.10457 0.92524 0.0
C2526 C 0.98178 0.11936 0.92972 0.0
C2527 C 0.01748 0.19911 0.90279 0.0
C2528 C 0.00183 0.20446 0.90001 0.0
C2529 C 0.02023 0.18606 0.91266 0.0
C2530 C 0.00741 0.17812 0.91996 0.0
C2531 C 0.99176 0.18318 0.91688 0.0
C2532 C 0.98899 0.19626 0.90707 0.0
C2533 C 0.0103 0.16469 0.93098 0.0
C2534 C 0.00303 0.14976 0.9275 0.0
C2535 C 0.02039 0.16648 0.94469 0.0
C2536 C 0.02783 0.18212 0.94944 0.0
C2537 C 0.01832 0.19562 0.95195 0.0
C2538 C 0.02543 0.21035 0.95631 0.0
C2539 C 0.04202 0.21172 0.95832 0.0
C2540 C 0.05155 0.19833 0.95601 0.0
C2541 C 0.0445 0.18357 0.95163 0.0
H2542 H 0.0475 0.22313 0.96169 0.0
H2543 H 0.97906 0.07974 0.91986 0.0
H2544 H 0.36334 0.30019 0.24754 0.0
H2545 H 0.38139 0.29245 0.22624 0.0
H2546 H 0.41803 0.28218 0.26133 0.0
H2547 H 0.39998 0.29016 0.28283 0.0
H2548 H 0.42929 0.30021 0.2361 0.0
H2549 H 0.39981 0.25175 0.24303 0.0
H2550 H 0.37584 0.23456 0.24617 0.0
H2551 H 0.3587 0.24761 0.19957 0.0
H2552 H 0.38245 0.26507 0.19623 0.0
H2553 H 0.47521 0.26911 0.17089 0.0
H2554 H 0.46161 0.27121 0.19655 0.0
H2555 H 0.41737 0.28137 0.17176 0.0
H2556 H 0.43072 0.27912 0.14618 0.0
H2557 H 0.41287 0.25964 0.19474 0.0
H2558 H 0.44011 0.31103 0.18981 0.0
H2559 H 0.46373 0.32872 0.18665 0.0
H2560 H 0.48485 0.31022 0.22954 0.0
H2561 H 0.46143 0.29225 0.23283 0.0
C2562 C 0.37527 0.29637 0.25073 0.0
C2563 C 0.3803 0.29584 0.26683 0.0
C2564 C 0.38551 0.2918 0.23857 0.0
C2565 C 0.40097 0.28658 0.24225 0.0
C2566 C 0.4061 0.2861 0.25829 0.0
C2567 C 0.39579 0.29059 0.27052 0.0
C2568 C 0.41176 0.2821 0.22913 0.0
C2569 C 0.42591 0.29109 0.22723 0.0
C2570 C 0.4072 0.27034 0.2175 0.0
C2571 C 0.39289 0.25981 0.21943 0.0
C2572 C 0.39087 0.25105 0.2335 0.0
C2573 C 0.37733 0.24124 0.23531 0.0
C2574 C 0.36574 0.24001 0.22309 0.0
C2575 C 0.36769 0.24857 0.20903 0.0
C2576 C 0.3812 0.25842 0.20716 0.0
C2577 C 0.46259 0.27181 0.17091 0.0
C2578 C 0.45406 0.27398 0.15648 0.0
C2579 C 0.45485 0.27303 0.18558 0.0
C2580 C 0.43851 0.27651 0.18604 0.0
C2581 C 0.42998 0.27861 0.17166 0.0
C2582 C 0.43767 0.27739 0.15704 0.0
C2583 C 0.4301 0.27812 0.20142 0.0
C2584 C 0.41641 0.26855 0.20376 0.0
C2585 C 0.43507 0.28936 0.21342 0.0
C2586 C 0.44913 0.30016 0.21145 0.0
C2587 C 0.44986 0.31064 0.19849 0.0
C2588 C 0.4632 0.32073 0.19669 0.0
C2589 C 0.47581 0.32056 0.20786 0.0
C2590 C 0.47509 0.31031 0.22087 0.0
C2591 C 0.46179 0.30018 0.22272 0.0
H2592 H 0.48612 0.32838 0.20645 0.0
H2593 H 0.35527 0.2324 0.22452 0.0
H2594 H 0.56119 0.39991 0.01068 0.0
H2595 H 0.55642 0.38036 0.03169 0.0
H2596 H 0.5055 0.38587 0.02542 0.0
H2597 H 0.51017 0.40565 0.0048 0.0
H2598 H 0.51426 0.3859 0.05679 0.0
H2599 H 0.52461 0.35416 0.00903 0.0
H2600 H 0.54074 0.34536 0.98619 0.0
H2601 H 0.57837 0.33156 0.01842 0.0
H2602 H 0.56252 0.34049 0.04145 0.0
H2603 H 0.47498 0.31687 0.0822 0.0
H2604 H 0.48705 0.33879 0.06758 0.0
H2605 H 0.53402 0.3243 0.08298 0.0
H2606 H 0.52198 0.3021 0.09774 0.0
H2607 H 0.5321 0.32989 0.05058 0.0
H2608 H 0.51964 0.35768 0.09857 0.0
H2609 H 0.50313 0.36602 0.12128 0.0
H2610 H 0.46948 0.38713 0.08892 0.0
H2611 H 0.48567 0.37872 0.06598 0.0
C2612 C 0.54899 0.39703 0.01389 0.0
C2613 C 0.53604 0.40424 0.00602 0.0
C2614 C 0.54629 0.3858 0.02581 0.0
C2615 C 0.5306 0.3816 0.03003 0.0
C2616 C 0.5177 0.38894 0.02234 0.0
C2617 C 0.52038 0.40012 0.01044 0.0
C2618 C 0.52743 0.36939 0.04227 0.0
C2619 C 0.51811 0.37364 0.05542 0.0
C2620 C 0.53296 0.35354 0.04077 0.0
C2621 C 0.54247 0.34818 0.02694 0.0
C2622 C 0.53638 0.34938 0.01123 0.0
C2623 C 0.54546 0.34434 0.99826 0.0
C2624 C 0.5606 0.33796 0.00085 0.0
C2625 C 0.56666 0.33655 0.01643 0.0
C2626 C 0.55764 0.34159 0.02945 0.0
C2627 C 0.48788 0.31835 0.0826 0.0
C2628 C 0.49752 0.30772 0.09114 0.0
C2629 C 0.49476 0.33096 0.0743 0.0
C2630 C 0.51141 0.33327 0.07435 0.0
C2631 C 0.52113 0.32275 0.08288 0.0
C2632 C 0.51423 0.31012 0.09132 0.0
C2633 C 0.51846 0.34629 0.06479 0.0
C2634 C 0.52853 0.34222 0.05216 0.0
C2635 C 0.51362 0.36232 0.06677 0.0
C2636 C 0.50385 0.36748 0.08054 0.0
C2637 C 0.50867 0.36401 0.09628 0.0
C2638 C 0.49937 0.36876 0.1092 0.0
C2639 C 0.48526 0.37708 0.10655 0.0
C2640 C 0.48042 0.38069 0.09096 0.0
C2641 C 0.48967 0.37595 0.07799 0.0
H2642 H 0.47807 0.38075 0.11657 0.0
H2643 H 0.56761 0.33406 0.99079 0.0
H2644 H 0.66293 0.23258 0.19746 0.0
H2645 H 0.64028 0.23552 0.17889 0.0
H2646 H 0.60864 0.24117 0.21874 0.0
H2647 H 0.63111 0.23775 0.23736 0.0
H2648 H 0.59565 0.2215 0.19605 0.0
H2649 H 0.62174 0.27338 0.19794 0.0
H2650 H 0.64452 0.29231 0.19569 0.0
H2651 H 0.6498 0.27849 0.14639 0.0
H2652 H 0.62717 0.2593 0.14842 0.0
H2653 H 0.52877 0.25724 0.15996 0.0
H2654 H 0.55256 0.25169 0.17606 0.0
H2655 H 0.58005 0.24633 0.13316 0.0
H2656 H 0.55626 0.25205 0.11688 0.0
H2657 H 0.59595 0.26443 0.15578 0.0
H2658 H 0.56868 0.2137 0.15347 0.0
H2659 H 0.54578 0.19494 0.15578 0.0
H2660 H 0.54263 0.20656 0.20583 0.0
H2661 H 0.56538 0.22558 0.20378 0.0
C2662 C 0.65112 0.23429 0.20226 0.0
C2663 C 0.64882 0.235 0.21889 0.0
C2664 C 0.63822 0.2361 0.19164 0.0
C2665 C 0.62281 0.23874 0.19744 0.0
C2666 C 0.62044 0.2392 0.21401 0.0
C2667 C 0.63332 0.23739 0.22463 0.0
C2668 C 0.60912 0.24113 0.18628 0.0
C2669 C 0.59564 0.23098 0.18735 0.0
C2670 C 0.60931 0.25322 0.17463 0.0
C2671 C 0.62288 0.26478 0.17338 0.0
C2672 C 0.62784 0.27428 0.18666 0.0
C2673 C 0.64071 0.28507 0.18542 0.0
C2674 C 0.64863 0.28656 0.17092 0.0
C2675 C 0.64367 0.2773 0.15762 0.0
C2676 C 0.63081 0.26647 0.1588 0.0
C2677 C 0.53986 0.25486 0.15391 0.0
C2678 C 0.5406 0.25504 0.13712 0.0
C2679 C 0.55344 0.25162 0.16314 0.0
C2680 C 0.56802 0.2484 0.1558 0.0
C2681 C 0.56888 0.24874 0.13905 0.0
C2682 C 0.55528 0.25197 0.12978 0.0
C2683 C 0.58239 0.24493 0.16569 0.0
C2684 C 0.59599 0.25486 0.16439 0.0
C2685 C 0.58232 0.23264 0.17713 0.0
C2686 C 0.56866 0.22117 0.17843 0.0
C2687 C 0.56303 0.21235 0.16494 0.0
C2688 C 0.55009 0.20166 0.16621 0.0
C2689 C 0.54273 0.19959 0.18094 0.0
C2690 C 0.54833 0.20819 0.19443 0.0
C2691 C 0.56126 0.21891 0.19322 0.0
H2692 H 0.53272 0.1913 0.18189 0.0
H2693 H 0.65859 0.29493 0.16998 0.0
H2694 H 0.49076 0.09843 0.03497 0.0
H2695 H 0.49467 0.12319 0.05084 0.0
H2696 H 0.44754 0.1383 0.03666 0.0
H2697 H 0.44362 0.11376 0.02071 0.0
H2698 H 0.47154 0.16095 0.03129 0.0
H2699 H 0.45393 0.12641 0.07366 0.0
H2700 H 0.45522 0.10259 0.09059 0.0
H2701 H 0.50264 0.11648 0.10648 0.0
H2702 H 0.50172 0.14028 0.08945 0.0
H2703 H 0.45452 0.22674 0.07977 0.0
H2704 H 0.45478 0.20046 0.06685 0.0
H2705 H 0.501 0.1916 0.08828 0.0
H2706 H 0.50075 0.21796 0.10157 0.0
H2707 H 0.48117 0.16555 0.08993 0.0
H2708 H 0.49861 0.20074 0.04944 0.0
H2709 H 0.49816 0.22451 0.03239 0.0
H2710 H 0.45261 0.2093 0.01249 0.0
H2711 H 0.45267 0.18555 0.02959 0.0
C2712 C 0.4812 0.10699 0.03538 0.0
C2713 C 0.46688 0.10418 0.02662 0.0
C2714 C 0.48342 0.12105 0.04449 0.0
C2715 C 0.47138 0.13253 0.04489 0.0
C2716 C 0.45695 0.12956 0.03648 0.0
C2717 C 0.45468 0.11549 0.02749 0.0
C2718 C 0.47407 0.14808 0.05325 0.0
C2719 C 0.47349 0.16198 0.04413 0.0
C2720 C 0.47728 0.14931 0.06989 0.0
C2721 C 0.47783 0.13502 0.08013 0.0
C2722 C 0.46469 0.12431 0.08064 0.0
C2723 C 0.46534 0.11083 0.09028 0.0
C2724 C 0.47902 0.108 0.09957 0.0
C2725 C 0.49207 0.11867 0.09926 0.0
C2726 C 0.49148 0.13216 0.08962 0.0
C2727 C 0.46478 0.21926 0.08176 0.0
C2728 C 0.47767 0.2245 0.09163 0.0
C2729 C 0.46492 0.20423 0.07431 0.0
C2730 C 0.47802 0.19419 0.07641 0.0
C2731 C 0.49081 0.19922 0.08646 0.0
C2732 C 0.49066 0.21429 0.094 0.0
C2733 C 0.47816 0.17846 0.06801 0.0
C2734 C 0.47936 0.16453 0.07707 0.0
C2735 C 0.47568 0.17716 0.05125 0.0
C2736 C 0.4756 0.19142 0.04089 0.0
C2737 C 0.48844 0.20252 0.04151 0.0
C2738 C 0.48827 0.21599 0.03182 0.0
C2739 C 0.47535 0.21843 0.02138 0.0
C2740 C 0.4626 0.2074 0.02059 0.0
C2741 C 0.46271 0.19392 0.03026 0.0
H2742 H 0.47524 0.22886 0.01389 0.0
H2743 H 0.4795 0.09756 0.10703 0.0
H2744 H 0.24908 0.36556 0.72733 0.0
H2745 H 0.26347 0.39116 0.72772 0.0
H2746 H 0.30281 0.36946 0.70323 0.0
H2747 H 0.28883 0.34355 0.70356 0.0
H2748 H 0.31385 0.38746 0.72674 0.0
H2749 H 0.27685 0.39537 0.68398 0.0
H2750 H 0.25062 0.39545 0.67007 0.0
H2751 H 0.23357 0.42967 0.70434 0.0
H2752 H 0.25963 0.42963 0.7186 0.0
H2753 H 0.3511 0.4647 0.72146 0.0
H2754 H 0.33763 0.44005 0.71159 0.0
H2755 H 0.29715 0.45021 0.74116 0.0
H2756 H 0.31049 0.47468 0.75113 0.0
H2757 H 0.28846 0.43802 0.71055 0.0
H2758 H 0.32454 0.42649 0.755 0.0
H2759 H 0.35094 0.42638 0.76862 0.0
H2760 H 0.36993 0.39881 0.72977 0.0
H2761 H 0.34368 0.39895 0.71582 0.0
C2762 C 0.26084 0.36617 0.72212 0.0
C2763 C 0.26779 0.35244 0.71546 0.0
C2764 C 0.26897 0.3809 0.72213 0.0
C2765 C 0.28413 0.38233 0.71525 0.0
C2766 C 0.29108 0.36868 0.70851 0.0
C2767 C 0.283 0.3539 0.7086 0.0
C2768 C 0.293 0.39789 0.71589 0.0
C2769 C 0.30841 0.39845 0.72284 0.0
C2770 C 0.28588 0.41231 0.71099 0.0
C2771 C 0.27018 0.41241 0.70243 0.0
C2772 C 0.26748 0.40283 0.68862 0.0
C2773 C 0.25264 0.40288 0.68066 0.0
C2774 C 0.24043 0.41253 0.68633 0.0
C2775 C 0.24304 0.42219 0.69996 0.0
C2776 C 0.25785 0.42217 0.70798 0.0
C2777 C 0.33921 0.46181 0.72563 0.0
C2778 C 0.33191 0.47154 0.73718 0.0
C2779 C 0.33156 0.44773 0.72002 0.0
C2780 C 0.31646 0.44328 0.72576 0.0
C2781 C 0.3088 0.45344 0.73658 0.0
C2782 C 0.31648 0.46738 0.74232 0.0
C2783 C 0.30907 0.42749 0.72162 0.0
C2784 C 0.29396 0.42693 0.71408 0.0
C2785 C 0.31648 0.41306 0.72586 0.0
C2786 C 0.33222 0.4129 0.73428 0.0
C2787 C 0.33439 0.42052 0.74931 0.0
C2788 C 0.34931 0.42043 0.7571 0.0
C2789 C 0.36212 0.41264 0.75004 0.0
C2790 C 0.36001 0.40487 0.7352 0.0
C2791 C 0.34512 0.40495 0.72735 0.0
H2792 H 0.37367 0.41258 0.75609 0.0
H2793 H 0.22895 0.41255 0.68015 0.0
H2794 H 0.27629 0.66333 0.78523 0.0
H2795 H 0.29463 0.6413 0.7816 0.0
H2796 H 0.29958 0.65318 0.73189 0.0
H2797 H 0.28113 0.67538 0.73546 0.0
H2798 H 0.29469 0.62187 0.73501 0.0
H2799 H 0.33056 0.6604 0.75851 0.0
H2800 H 0.34009 0.68119 0.77782 0.0
H2801 H 0.33787 0.64736 0.81583 0.0
H2802 H 0.3281 0.62641 0.7968 0.0
H2803 H 0.35152 0.55816 0.73226 0.0
H2804 H 0.34138 0.58547 0.73024 0.0
H2805 H 0.32576 0.58357 0.77909 0.0
H2806 H 0.33575 0.55651 0.78121 0.0
H2807 H 0.3403 0.61247 0.7722 0.0
H2808 H 0.29976 0.57594 0.74901 0.0
H2809 H 0.29 0.55524 0.72968 0.0
H2810 H 0.3016 0.58595 0.69072 0.0
H2811 H 0.31163 0.60676 0.70984 0.0
C2812 C 0.28149 0.66147 0.77359 0.0
C2813 C 0.27731 0.67118 0.76066 0.0
C2814 C 0.29199 0.64885 0.77152 0.0
C2815 C 0.29869 0.64573 0.75653 0.0
C2816 C 0.2946 0.65541 0.74358 0.0
C2817 C 0.28402 0.66804 0.74563 0.0
C2818 C 0.30928 0.63182 0.75436 0.0
C2819 C 0.30491 0.62001 0.74289 0.0
C2820 C 0.32255 0.6293 0.7647 0.0
C2821 C 0.32851 0.64184 0.77622 0.0
C2822 C 0.332 0.65741 0.771 0.0
C2823 C 0.33746 0.66923 0.7819 0.0
C2824 C 0.33956 0.66561 0.79804 0.0
C2825 C 0.33624 0.65015 0.80332 0.0
C2826 C 0.33076 0.63829 0.79247 0.0
C2827 C 0.34606 0.56365 0.7426 0.0
C2828 C 0.34432 0.55513 0.75685 0.0
C2829 C 0.34025 0.57921 0.74141 0.0
C2830 C 0.33275 0.58649 0.75449 0.0
C2831 C 0.33154 0.5782 0.76886 0.0
C2832 C 0.33718 0.56267 0.77001 0.0
C2833 C 0.32535 0.60241 0.75324 0.0
C2834 C 0.33033 0.61457 0.76408 0.0
C2835 C 0.31269 0.60528 0.74229 0.0
C2836 C 0.30662 0.59281 0.73083 0.0
C2837 C 0.30035 0.57822 0.73631 0.0
C2838 C 0.29475 0.56648 0.7254 0.0
C2839 C 0.29523 0.56925 0.70898 0.0
C2840 C 0.30127 0.5838 0.70344 0.0
C2841 C 0.30691 0.59557 0.71431 0.0
H2842 H 0.29089 0.56015 0.70055 0.0
H2843 H 0.34379 0.67477 0.80646 0.0
H2844 H 0.86764 0.51763 0.47807 0.0
H2845 H 0.84406 0.50042 0.48209 0.0
H2846 H 0.86718 0.4616 0.45753 0.0
H2847 H 0.8906 0.47873 0.45334 0.0
H2848 H 0.83666 0.46241 0.44883 0.0
H2849 H 0.86662 0.46501 0.49897 0.0
H2850 H 0.87937 0.47876 0.52233 0.0
H2851 H 0.83413 0.49818 0.53543 0.0
H2852 H 0.82116 0.4847 0.51201 0.0
H2853 H 0.80646 0.39087 0.47973 0.0
H2854 H 0.82252 0.41438 0.47315 0.0
H2855 H 0.78748 0.44497 0.49448 0.0
H2856 H 0.77113 0.42136 0.50108 0.0
H2857 H 0.8196 0.45197 0.50432 0.0
H2858 H 0.78919 0.44499 0.45596 0.0
H2859 H 0.77714 0.43006 0.43297 0.0
H2860 H 0.82388 0.41779 0.41677 0.0
H2861 H 0.83622 0.43245 0.4398 0.0
C2862 C 0.86764 0.50544 0.4735 0.0
C2863 C 0.88098 0.49951 0.46543 0.0
C2864 C 0.85417 0.49563 0.47579 0.0
C2865 C 0.85393 0.47966 0.47027 0.0
C2866 C 0.86706 0.47389 0.46184 0.0
C2867 C 0.88045 0.4837 0.45944 0.0
C2868 C 0.84035 0.46865 0.47374 0.0
C2869 C 0.83296 0.4601 0.46097 0.0
C2870 C 0.83519 0.46597 0.48954 0.0
C2871 C 0.84297 0.47402 0.50364 0.0
C2872 C 0.85943 0.47232 0.50677 0.0
C2873 C 0.86668 0.48004 0.52003 0.0
C2874 C 0.85758 0.48939 0.53033 0.0
C2875 C 0.84118 0.49098 0.52742 0.0
C2876 C 0.83387 0.48329 0.51416 0.0
C2877 C 0.8021 0.40258 0.48301 0.0
C2878 C 0.78751 0.40424 0.49095 0.0
C2879 C 0.81126 0.41601 0.47915 0.0
C2880 C 0.8061 0.43139 0.4832 0.0
C2881 C 0.7916 0.43317 0.4912 0.0
C2882 C 0.78229 0.41969 0.49492 0.0
C2883 C 0.8163 0.44544 0.47945 0.0
C2884 C 0.82306 0.45454 0.49216 0.0
C2885 C 0.82098 0.44853 0.46361 0.0
C2886 C 0.81362 0.43975 0.44968 0.0
C2887 C 0.7969 0.43901 0.44756 0.0
C2888 C 0.79001 0.43062 0.43451 0.0
C2889 C 0.79973 0.42297 0.42343 0.0
C2890 C 0.81636 0.42372 0.42536 0.0
C2891 C 0.82331 0.4321 0.4384 0.0
H2892 H 0.79438 0.41647 0.41333 0.0
H2893 H 0.86322 0.49536 0.54059 0.0
H2894 H 0.7818 0.8919 0.78063 0.0
H2895 H 0.7608 0.91116 0.77476 0.0
H2896 H 0.7251 0.87747 0.79086 0.0
H2897 H 0.74591 0.85813 0.79644 0.0
H2898 H 0.71644 0.89135 0.76264 0.0
H2899 H 0.73777 0.90803 0.81478 0.0
H2900 H 0.75927 0.91692 0.83363 0.0
H2901 H 0.76882 0.95792 0.80479 0.0
H2902 H 0.7475 0.94914 0.78565 0.0
H2903 H 0.6483 0.93322 0.78285 0.0
H2904 H 0.67275 0.91789 0.78294 0.0
H2905 H 0.69933 0.95912 0.76687 0.0
H2906 H 0.67478 0.97475 0.7669 0.0
H2907 H 0.71492 0.94389 0.79106 0.0
H2908 H 0.69112 0.92921 0.74084 0.0
H2909 H 0.66956 0.92049 0.72202 0.0
H2910 H 0.66481 0.87598 0.74654 0.0
H2911 H 0.68619 0.88453 0.76566 0.0
C2912 C 0.76946 0.8886 0.78282 0.0
C2913 C 0.76549 0.87356 0.78909 0.0
C2914 C 0.7575 0.89962 0.77955 0.0
C2915 C 0.74142 0.89575 0.78247 0.0
C2916 C 0.73744 0.88068 0.78854 0.0
C2917 C 0.74936 0.86971 0.79186 0.0
C2918 C 0.72861 0.90735 0.77942 0.0
C2919 C 0.71605 0.90281 0.76889 0.0
C2920 C 0.72844 0.92252 0.78716 0.0
C2921 C 0.74119 0.92783 0.7987 0.0
C2922 C 0.74455 0.91887 0.81239 0.0
C2923 C 0.75668 0.9239 0.82314 0.0
C2924 C 0.76544 0.93795 0.82038 0.0
C2925 C 0.76205 0.94702 0.8069 0.0
C2926 C 0.74994 0.94203 0.7961 0.0
C2927 C 0.65931 0.93909 0.77931 0.0
C2928 C 0.65956 0.95522 0.7748 0.0
C2929 C 0.67327 0.93026 0.77929 0.0
C2930 C 0.68779 0.93729 0.77466 0.0
C2931 C 0.68821 0.95346 0.77039 0.0
C2932 C 0.67418 0.96235 0.7704 0.0
C2933 C 0.70248 0.92766 0.77465 0.0
C2934 C 0.71542 0.93256 0.78457 0.0
C2935 C 0.70303 0.91283 0.76629 0.0
C2936 C 0.69021 0.90757 0.75476 0.0
C2937 C 0.68541 0.91761 0.74229 0.0
C2938 C 0.67323 0.91269 0.73156 0.0
C2939 C 0.66581 0.8977 0.73309 0.0
C2940 C 0.67057 0.88759 0.74536 0.0
C2941 C 0.68274 0.89246 0.75614 0.0
H2942 H 0.65638 0.89391 0.72477 0.0
H2943 H 0.77483 0.94182 0.82872 0.0
H2944 H 0.60208 0.53039 0.98385 0.0
H2945 H 0.62485 0.54912 0.9869 0.0
H2946 H 0.63378 0.5447 0.93636 0.0
H2947 H 0.6114 0.52571 0.93331 0.0
H2948 H 0.66039 0.54021 0.95423 0.0
H2949 H 0.61804 0.5785 0.95209 0.0
H2950 H 0.59283 0.59068 0.96052 0.0
H2951 H 0.61278 0.59961 0.00755 0.0
H2952 H 0.63806 0.58727 -0.00054 0.0
H2953 H 0.71834 0.59876 0.94247 0.0
H2954 H 0.6921 0.58559 0.94159 0.0
H2955 H 0.68835 0.59191 0.99269 0.0
H2956 H 0.71465 0.60542 0.99367 0.0
H2957 H 0.65909 0.59555 0.97657 0.0
H2958 H 0.70117 0.55753 0.97905 0.0
H2959 H 0.72648 0.54524 0.97108 0.0
H2960 H 0.70689 0.53528 0.92409 0.0
H2961 H 0.68153 0.54773 0.93171 0.0
C2962 C 0.60889 0.53345 0.9734 0.0
C2963 C 0.60496 0.52655 0.95834 0.0
C2964 C 0.62179 0.54426 0.97513 0.0
C2965 C 0.63093 0.54835 0.96183 0.0
C2966 C 0.62684 0.54172 0.94676 0.0
C2967 C 0.61397 0.53096 0.94502 0.0
C2968 C 0.64543 0.5587 0.96369 0.0
C2969 C 0.66005 0.55238 0.95892 0.0
C2970 C 0.64505 0.57436 0.97035 0.0
C2971 C 0.62988 0.58181 0.97522 0.0
C2972 C 0.61701 0.58293 0.96428 0.0
C2973 C 0.60272 0.58989 0.96898 0.0
C2974 C 0.60119 0.59587 0.98458 0.0
C2975 C 0.61397 0.59495 0.99548 0.0
C2976 C 0.62829 0.58799 0.99084 0.0
C2977 C 0.71187 0.59758 0.95351 0.0
C2978 C 0.71868 0.6029 0.96818 0.0
C2979 C 0.69687 0.59005 0.95298 0.0
C2980 C 0.68846 0.5875 0.96712 0.0
C2981 C 0.69471 0.59372 0.98166 0.0
C2982 C 0.70974 0.60139 0.9822 0.0
C2983 C 0.67391 0.57715 0.96674 0.0
C2984 C 0.65937 0.58338 0.97189 0.0
C2985 C 0.67431 0.56132 0.96051 0.0
C2986 C 0.6895 0.55369 0.95592 0.0
C2987 C 0.7023 0.55282 0.96699 0.0
C2988 C 0.71665 0.54581 0.96253 0.0
C2989 C 0.7183 0.53952 0.94707 0.0
C2990 C 0.70559 0.54018 0.93605 0.0
C2991 C 0.69122 0.5472 0.94044 0.0
H2992 H 0.72942 0.5341 0.94365 0.0
H2993 H 0.59012 0.60126 0.9882 0.0
H2994 H 0.23712 0.6366 0.23671 0.0
H2995 H 0.21959 0.61311 0.239 0.0
H2996 H 0.17822 0.64296 0.23492 0.0
H2997 H 0.19572 0.66664 0.23312 0.0
H2998 H 0.17489 0.62169 0.25858 0.0
H2999 H 0.18939 0.61979 0.20354 0.0
H3000 H 0.20772 0.61999 0.18074 0.0
H3001 H 0.22991 0.5775 0.19789 0.0
H3002 H 0.21186 0.57717 0.22093 0.0
H3003 H 0.1204 0.5556 0.24841 0.0
H3004 H 0.13577 0.58021 0.24379 0.0
H3005 H 0.17969 0.55412 0.24744 0.0
H3006 H 0.16444 0.52945 0.25185 0.0
H3007 H 0.18031 0.57428 0.22271 0.0
H3008 H 0.16685 0.57717 0.27851 0.0
H3009 H 0.14863 0.57704 0.3014 0.0
H3010 H 0.12447 0.61777 0.28271 0.0
H3011 H 0.14242 0.61801 0.25957 0.0
C3012 C 0.22429 0.6382 0.23643 0.0
C3013 C 0.21782 0.6535 0.23474 0.0
C3014 C 0.21428 0.62473 0.23757 0.0
C3015 C 0.19759 0.62626 0.23693 0.0
C3016 C 0.19107 0.64151 0.23536 0.0
C3017 C 0.20108 0.65501 0.23422 0.0
C3018 C 0.187 0.61192 0.23819 0.0
C3019 C 0.17588 0.61143 0.25057 0.0
C3020 C 0.18851 0.59841 0.22792 0.0
C3021 C 0.19935 0.59854 0.21404 0.0
C3022 C 0.19826 0.61056 0.20252 0.0
C3023 C 0.20858 0.61069 0.18954 0.0
C3024 C 0.21999 0.59879 0.18789 0.0
C3025 C 0.22107 0.58672 0.19919 0.0
C3026 C 0.21079 0.58655 0.21221 0.0
C3027 C 0.13333 0.55508 0.2482 0.0
C3028 C 0.14119 0.54056 0.25057 0.0
C3029 C 0.1421 0.56918 0.24561 0.0
C3030 C 0.15889 0.56903 0.24544 0.0
C3031 C 0.16674 0.55451 0.24753 0.0
C3032 C 0.158 0.54042 0.2501 0.0
C3033 C 0.16834 0.58399 0.24321 0.0
C3034 C 0.17924 0.5846 0.23064 0.0
C3035 C 0.16663 0.5976 0.2533 0.0
C3036 C 0.15586 0.5975 0.26722 0.0
C3037 C 0.15757 0.58602 0.27921 0.0
C3038 C 0.1473 0.58594 0.29224 0.0
C3039 C 0.13537 0.59736 0.29348 0.0
C3040 C 0.1337 0.60891 0.28171 0.0
C3041 C 0.14392 0.60904 0.26865 0.0
H3042 H 0.12744 0.59728 0.30358 0.0
H3043 H 0.22798 0.59891 0.17783 0.0
H3044 H 0.8763 0.48075 0.02098 0.0
H3045 H 0.85613 0.50025 0.01376 0.0
H3046 H 0.88208 0.53686 0.04086 0.0
H3047 H 0.90272 0.51765 0.04764 0.0
H3048 H 0.84739 0.53582 0.04537 0.0
H3049 H 0.88669 0.53786 0.0038 0.0
H3050 H 0.90397 0.52614 0.98324 0.0
H3051 H 0.86258 0.50708 0.95791 0.0
H3052 H 0.84507 0.51849 0.97847 0.0
H3053 H 0.80549 0.60173 0.01144 0.0
H3054 H 0.82535 0.58352 0.02245 0.0
H3055 H 0.81036 0.54725 0.98771 0.0
H3056 H 0.79111 0.56556 0.97632 0.0
H3057 H 0.84082 0.5492 0.98807 0.0
H3058 H 0.80125 0.54587 0.02901 0.0
H3059 H 0.78322 0.55628 0.04962 0.0
H3060 H 0.8235 0.57621 0.07607 0.0
H3061 H 0.84176 0.56609 0.0555 0.0
C3062 C 0.87784 0.49297 0.02531 0.0
C3063 C 0.89124 0.49762 0.0348 0.0
C3064 C 0.86622 0.50405 0.02129 0.0
C3065 C 0.86769 0.51996 0.02677 0.0
C3066 C 0.88073 0.52459 0.03662 0.0
C3067 C 0.89248 0.51356 0.0405 0.0
C3068 C 0.85597 0.53189 0.02152 0.0
C3069 C 0.84603 0.53895 0.03288 0.0
C3070 C 0.85408 0.53565 0.0052 0.0
C3071 C 0.86458 0.5289 0.99276 0.0
C3072 C 0.88129 0.53106 0.99392 0.0
C3073 C 0.89112 0.52449 0.98225 0.0
C3074 C 0.88438 0.51584 0.9693 0.0
C3075 C 0.86779 0.51377 0.96796 0.0
C3076 C 0.8579 0.5203 0.97961 0.0
C3077 C 0.80638 0.58982 0.00627 0.0
C3078 C 0.79685 0.58509 0.99296 0.0
C3079 C 0.81768 0.57939 0.01261 0.0
C3080 C 0.81932 0.56395 0.00596 0.0
C3081 C 0.80943 0.55912 0.99298 0.0
C3082 C 0.7984 0.5696 0.98649 0.0
C3083 C 0.83183 0.55301 0.01185 0.0
C3084 C 0.84206 0.54616 0.00059 0.0
C3085 C 0.8338 0.54931 0.02824 0.0
C3086 C 0.82285 0.55538 0.04063 0.0
C3087 C 0.80625 0.55259 0.03916 0.0
C3088 C 0.79599 0.55841 0.05084 0.0
C3089 C 0.80221 0.56695 0.06412 0.0
C3090 C 0.8187 0.56963 0.06577 0.0
C3091 C 0.82901 0.56384 0.05411 0.0
H3092 H 0.79425 0.57145 0.07316 0.0
H3093 H 0.89202 0.51077 0.96027 0.0
H3094 H 0.11694 0.00026 0.02231 0.0
H3095 H 0.13888 0.98164 0.01879 0.0
H3096 H 0.10756 0.94231 0.03101 0.0
H3097 H 0.08555 0.96084 0.03447 0.0
H3098 H 0.13599 0.94035 0.04625 0.0
H3099 H 0.1178 0.94876 0.99228 0.0
H3100 H 0.11057 0.96474 0.9688 0.0
H3101 H 0.15837 0.98433 0.96773 0.0
H3102 H 0.16583 0.96863 0.99135 0.0
H3103 H 0.18434 0.87654 0.02018 0.0
H3104 H 0.16262 0.89547 0.02321 0.0
H3105 H 0.19451 0.93425 0.01071 0.0
H3106 H 0.21626 0.91536 0.00743 0.0
H3107 H 0.16604 0.93675 0.99568 0.0
H3108 H 0.18433 0.92835 0.04948 0.0
H3109 H 0.19166 0.9125 0.07301 0.0
H3110 H 0.14383 0.89308 0.07452 0.0
H3111 H 0.13626 0.90865 0.05084 0.0
C3112 C 0.11467 0.98763 0.02409 0.0
C3113 C 0.09946 0.98205 0.02864 0.0
C3114 C 0.12723 0.977 0.0221 0.0
C3115 C 0.12483 0.96055 0.02449 0.0
C3116 C 0.10971 0.95495 0.02914 0.0
C3117 C 0.09715 0.96557 0.03115 0.0
C3118 C 0.1381 0.94918 0.02231 0.0
C3119 C 0.14242 0.93941 0.03512 0.0
C3120 C 0.14677 0.94823 0.00793 0.0
C3121 C 0.14233 0.95764 0.99368 0.0
C3122 C 0.12674 0.95657 0.98712 0.0
C3123 C 0.1226 0.96556 0.97377 0.0
C3124 C 0.13399 0.97557 0.9668 0.0
C3125 C 0.14955 0.97658 0.97315 0.0
C3126 C 0.15374 0.96763 0.98651 0.0
C3127 C 0.18675 0.88909 0.01806 0.0
C3128 C 0.20206 0.89444 0.01362 0.0
C3129 C 0.17433 0.89992 0.01986 0.0
C3130 C 0.17698 0.91632 0.01738 0.0
C3131 C 0.19219 0.92166 0.01272 0.0
C3132 C 0.20462 0.91084 0.01089 0.0
C3133 C 0.16389 0.92789 0.0196 0.0
C3134 C 0.15962 0.9377 0.00682 0.0
C3135 C 0.15527 0.92889 0.03402 0.0
C3136 C 0.15977 0.91955 0.04829 0.0
C3137 C 0.1754 0.92061 0.05475 0.0
C3138 C 0.1796 0.91169 0.06813 0.0
C3139 C 0.16823 0.90176 0.07523 0.0
C3140 C 0.15263 0.90076 0.06899 0.0
C3141 C 0.14838 0.90964 0.0556 0.0
H3142 H 0.1715 0.89487 0.08559 0.0
H3143 H 0.13077 0.98252 0.95647 0.0
loop_
_geom_bond_atom_site_label_1
_geom_bond_atom_site_label_2
_geom_bond_distance
_geom_bond_site_symmetry_2
_ccdc_geom_bond_type
C0 C1 1.384 1_655 S
C0 H13 0.947 . S
C0 C35 1.382 1_655 S
C1 C0 1.384 1_455 S
C1 C2 1.378 . S
C2 C1 1.378 . S
C2 C3 1.378 . S
C2 H14 0.952 . S
C3 C2 1.378 . S
C3 H15 0.950 . S
C3 C34 1.383 . S
H4 C23 0.947 . S
H5 C24 0.946 . S
H6 C26 0.953 . S
H7 C27 0.945 . S
H8 C29 0.952 . S
H9 C30 0.949 . S
H10 C32 0.950 . S
H11 C33 0.948 . S
H12 C35 0.951 . S
H13 C0 0.947 . S
H14 C2 0.952 . S
H15 C3 0.950 . S
N16 C19 1.382 . S
N16 C21 1.363 . S
N17 C19 1.371 . S
N17 C20 1.372 . S
N18 C20 1.361 . S
N18 C21 1.377 . S
C19 N16 1.382 . S
C19 N17 1.371 . S
C19 C22 1.480 . S
C20 N17 1.372 . S
C20 N18 1.361 . S
C20 C28 1.457 . S
C21 N16 1.363 . S
C21 N18 1.377 . S
C21 C34 1.479 . S
C22 C19 1.480 . S
C22 C23 1.383 . S
C22 C27 1.385 . S
C23 H4 0.947 . S
C23 C22 1.383 . S
C23 C24 1.388 1_545 S
C24 H5 0.946 . S
C24 C23 1.388 1_565 S
C24 C25 1.384 1_565 S
C25 C24 1.384 1_545 S
C25 C26 1.377 . S
C26 H6 0.953 . S
C26 C25 1.377 . S
C26 C27 1.369 . S
C27 H7 0.945 . S
C27 C22 1.385 . S
C27 C26 1.369 . S
C28 C20 1.457 . S
C28 C29 1.372 . S
C28 C33 1.364 . S
C29 H8 0.952 . S
C29 C28 1.372 . S
C29 C30 1.389 1_554 S
C30 H9 0.949 . S
C30 C29 1.389 1_556 S
C30 C31 1.387 1_556 S
C31 C30 1.387 1_554 S
C31 C32 1.372 . S
C32 H10 0.950 . S
C32 C31 1.372 . S
C32 C33 1.379 . S
C33 H11 0.948 . S
C33 C28 1.364 . S
C33 C32 1.379 . S
C34 C3 1.383 . S
C34 C21 1.479 . S
C34 C35 1.398 . S
C35 C0 1.382 1_455 S
C35 H12 0.951 . S
C35 C34 1.398 . S
C36 C37 1.384 . S
C36 H49 0.947 . S
C36 C71 1.382 . S
C37 C36 1.384 . S
C37 C38 1.378 . S
C38 C37 1.378 . S
C38 C39 1.378 . S
C38 H50 0.952 . S
C39 C38 1.378 . S
C39 H51 0.950 . S
C39 C70 1.383 . S
H40 C59 0.947 . S
H41 C60 0.946 . S
H42 C62 0.953 . S
H43 C63 0.945 . S
H44 C65 0.952 . S
H45 C66 0.949 . S
H46 C68 0.950 . S
H47 C69 0.948 . S
H48 C71 0.951 . S
H49 C36 0.947 . S
H50 C38 0.952 . S
H51 C39 0.950 . S
N52 C55 1.382 . S
N52 C57 1.363 . S
N53 C55 1.371 . S
N53 C56 1.372 . S
N54 C56 1.361 . S
N54 C57 1.377 . S
C55 N52 1.382 . S
C55 N53 1.371 . S
C55 C58 1.480 . S
C56 N53 1.372 . S
C56 N54 1.361 . S
C56 C64 1.457 . S
C57 N52 1.363 . S
C57 N54 1.377 . S
C57 C70 1.479 . S
C58 C55 1.480 . S
C58 C59 1.383 . S
C58 C63 1.385 . S
C59 H40 0.947 . S
C59 C58 1.383 . S
C59 C60 1.388 . S
C60 H41 0.946 . S
C60 C59 1.388 . S
C60 C61 1.384 . S
C61 C60 1.384 . S
C61 C62 1.377 . S
C62 H42 0.953 . S
C62 C61 1.377 . S
C62 C63 1.369 . S
C63 H43 0.945 . S
C63 C58 1.385 . S
C63 C62 1.369 . S
C64 C56 1.457 . S
C64 C65 1.372 . S
C64 C69 1.364 . S
C65 H44 0.952 . S
C65 C64 1.372 . S
C65 C66 1.389 . S
C66 H45 0.949 . S
C66 C65 1.389 . S
C66 C67 1.387 . S
C67 C66 1.387 . S
C67 C68 1.372 . S
C68 H46 0.950 . S
C68 C67 1.372 . S
C68 C69 1.379 . S
C69 H47 0.948 . S
C69 C64 1.364 . S
C69 C68 1.379 . S
C70 C39 1.383 . S
C70 C57 1.479 . S
C70 C71 1.398 . S
C71 C36 1.382 . S
C71 H48 0.951 . S
C71 C70 1.398 . S
C72 C73 1.384 . S
C72 H85 0.947 . S
C72 C107 1.382 . S
C73 C72 1.384 . S
C73 C74 1.378 . S
C74 C73 1.378 . S
C74 C75 1.378 . S
C74 H86 0.898 1_554 S
C75 C74 1.378 . S
C75 H87 0.950 . S
C75 C106 1.383 . S
H76 C95 0.947 . S
H77 C96 0.946 . S
H78 C98 0.953 . S
H79 C99 0.945 . S
H80 C101 0.952 . S
H81 C102 0.949 . S
H82 C104 0.950 1_455 S
H83 C105 0.948 . S
H84 C107 0.951 . S
H85 C72 0.947 . S
H86 C74 0.898 1_556 S
H87 C75 0.950 . S
N88 C91 1.382 . S
N88 C93 1.363 . S
N89 C91 1.371 . S
N89 C92 1.372 . S
N90 C92 1.361 . S
N90 C93 1.377 . S
C91 N88 1.382 . S
C91 N89 1.371 . S
C91 C94 1.480 . S
C92 N89 1.372 . S
C92 N90 1.361 . S
C92 C100 1.457 . S
C93 N88 1.363 . S
C93 N90 1.377 . S
C93 C106 1.479 . S
C94 C91 1.480 . S
C94 C95 1.383 . S
C94 C99 1.385 . S
C95 H76 0.947 . S
C95 C94 1.383 . S
C95 C96 1.388 . S
C96 H77 0.946 . S
C96 C95 1.388 . S
C96 C97 1.384 . S
C97 C96 1.384 . S
C97 C98 1.377 . S
C98 H78 0.953 . S
C98 C97 1.377 . S
C98 C99 1.369 . S
C99 H79 0.945 . S
C99 C94 1.385 . S
C99 C98 1.369 . S
C100 C92 1.457 . S
C100 C101 1.372 . S
C100 C105 1.364 . S
C101 H80 0.952 . S
C101 C100 1.372 . S
C101 C102 1.389 . S
C102 H81 0.949 . S
C102 C101 1.389 . S
C102 C103 1.387 . S
C103 C102 1.387 . S
C103 C104 1.372 . S
C104 H82 0.950 1_655 S
C104 C103 1.372 . S
C104 C105 1.379 . S
C105 H83 0.948 . S
C105 C100 1.364 . S
C105 C104 1.379 . S
C106 C75 1.383 . S
C106 C93 1.479 . S
C106 C107 1.398 . S
C107 C72 1.382 . S
C107 H84 0.951 . S
C107 C106 1.398 . S
C108 C109 1.384 . S
C108 H121 0.947 . S
C108 C143 1.382 . S
C109 C108 1.384 . S
C109 C110 1.378 . S
C110 C109 1.378 . S
C110 C111 1.378 . S
C110 H122 0.952 . S
C111 C110 1.378 . S
C111 H123 0.950 . S
C111 C142 1.383 . S
H112 C131 0.947 . S
H113 C132 0.946 . S
H114 C134 0.953 . S
H115 C135 0.945 . S
H116 C137 0.952 . S
H117 C138 0.949 . S
H118 C140 0.950 . S
H119 C141 0.948 . S
H120 C143 0.951 . S
H121 C108 0.947 . S
H122 C110 0.952 . S
H123 C111 0.950 . S
N124 C127 1.382 . S
N124 C129 1.363 . S
N125 C127 1.371 . S
N125 C128 1.372 . S
N126 C128 1.361 . S
N126 C129 1.377 . S
C127 N124 1.382 . S
C127 N125 1.371 . S
C127 C130 1.480 . S
C128 N125 1.372 . S
C128 N126 1.361 . S
C128 C136 1.457 . S
C129 N124 1.363 . S
C129 N126 1.377 . S
C129 C142 1.479 . S
C130 C127 1.480 . S
C130 C131 1.383 . S
C130 C135 1.385 . S
C131 H112 0.947 . S
C131 C130 1.383 . S
C131 C132 1.388 . S
C132 H113 0.946 . S
C132 C131 1.388 . S
C132 C133 1.384 . S
C133 C132 1.384 . S
C133 C134 1.377 . S
C134 H114 0.953 . S
C134 C133 1.377 . S
C134 C135 1.369 . S
C135 H115 0.945 . S
C135 C130 1.385 . S
C135 C134 1.369 . S
C136 C128 1.457 . S
C136 C137 1.372 . S
C136 C141 1.364 . S
C137 H116 0.952 . S
C137 C136 1.372 . S
C137 C138 1.389 . S
C138 H117 0.949 . S
C138 C137 1.389 . S
C138 C139 1.387 . S
C139 C138 1.387 . S
C139 C140 1.372 . S
C140 H118 0.950 . S
C140 C139 1.372 . S
C140 C141 1.379 . S
C141 H119 0.948 . S
C141 C136 1.364 . S
C141 C140 1.379 . S
C142 C111 1.383 . S
C142 C129 1.479 . S
C142 C143 1.398 . S
C143 C108 1.382 . S
C143 H120 0.951 . S
C143 C142 1.398 . S
C144 C145 1.384 . S
C144 H157 0.947 . S
C144 C179 1.382 . S
C145 C144 1.384 . S
C145 C146 1.378 . S
C146 C145 1.378 . S
C146 C147 1.378 . S
C146 H158 0.952 . S
C147 C146 1.378 . S
C147 H159 0.950 . S
C147 C178 1.383 . S
H148 C167 0.947 . S
H149 C168 0.913 1_655 S
H150 C170 0.953 . S
H151 C171 0.945 . S
H152 C173 0.952 . S
H153 C174 0.949 1_545 S
H154 C176 0.950 . S
H155 C177 0.948 . S
H156 C179 0.951 . S
H157 C144 0.947 . S
H158 C146 0.952 . S
H159 C147 0.950 . S
N160 C163 1.382 . S
N160 C165 1.363 . S
N161 C163 1.371 . S
N161 C164 1.372 . S
N162 C164 1.361 . S
N162 C165 1.377 . S
C163 N160 1.382 . S
C163 N161 1.371 . S
C163 C166 1.480 . S
C164 N161 1.372 . S
C164 N162 1.361 . S
C164 C172 1.457 . S
C165 N160 1.363 . S
C165 N162 1.377 . S
C165 C178 1.479 . S
C166 C163 1.480 . S
C166 C167 1.383 . S
C166 C171 1.385 . S
C167 H148 0.947 . S
C167 C166 1.383 . S
C167 C168 1.388 . S
C168 H149 0.913 1_455 S
C168 C167 1.388 . S
C168 C169 1.384 . S
C169 C168 1.384 . S
C169 C170 1.377 . S
C170 H150 0.953 . S
C170 C169 1.377 . S
C170 C171 1.369 . S
C171 H151 0.945 . S
C171 C166 1.385 . S
C171 C170 1.369 . S
C172 C164 1.457 . S
C172 C173 1.372 . S
C172 C177 1.364 . S
C173 H152 0.952 . S
C173 C172 1.372 . S
C173 C174 1.389 . S
C174 H153 0.949 1_565 S
C174 C173 1.389 . S
C174 C175 1.387 . S
C175 C174 1.387 . S
C175 C176 1.372 . S
C176 H154 0.950 . S
C176 C175 1.372 . S
C176 C177 1.379 . S
C177 H155 0.948 . S
C177 C172 1.364 . S
C177 C176 1.379 . S
C178 C147 1.383 . S
C178 C165 1.479 . S
C178 C179 1.398 . S
C179 C144 1.382 . S
C179 H156 0.951 . S
C179 C178 1.398 . S
C180 C181 1.384 . S
C180 H193 0.947 . S
C180 C215 1.382 . S
C181 C180 1.384 . S
C181 C182 1.378 . S
C182 C181 1.378 . S
C182 C183 1.378 . S
C182 H194 0.952 . S
C183 C182 1.378 . S
C183 H195 0.950 . S
C183 C214 1.383 . S
H184 C203 0.947 . S
H185 C204 0.946 . S
H186 C206 0.953 . S
H187 C207 0.945 . S
H188 C209 0.952 . S
H189 C210 0.949 . S
H190 C212 0.950 . S
H191 C213 0.948 . S
H192 C215 0.951 . S
H193 C180 0.947 . S
H194 C182 0.952 . S
H195 C183 0.950 . S
N196 C199 1.382 . S
N196 C201 1.363 . S
N197 C199 1.371 . S
N197 C200 1.372 . S
N198 C200 1.361 . S
N198 C201 1.377 . S
C199 N196 1.382 . S
C199 N197 1.371 . S
C199 C202 1.480 . S
C200 N197 1.372 . S
C200 N198 1.361 . S
C200 C208 1.457 . S
C201 N196 1.363 . S
C201 N198 1.377 . S
C201 C214 1.479 . S
C202 C199 1.480 . S
C202 C203 1.383 . S
C202 C207 1.385 . S
C203 H184 0.947 . S
C203 C202 1.383 . S
C203 C204 1.388 . S
C204 H185 0.946 . S
C204 C203 1.388 . S
C204 C205 1.384 . S
C205 C204 1.384 . S
C205 C206 1.377 . S
C206 H186 0.953 . S
C206 C205 1.377 . S
C206 C207 1.369 . S
C207 H187 0.945 . S
C207 C202 1.385 . S
C207 C206 1.369 . S
C208 C200 1.457 . S
C208 C209 1.372 . S
C208 C213 1.364 . S
C209 H188 0.952 . S
C209 C208 1.372 . S
C209 C210 1.389 . S
C210 H189 0.949 . S
C210 C209 1.389 . S
C210 C211 1.387 . S
C211 C210 1.387 . S
C211 C212 1.372 . S
C212 H190 0.950 . S
C212 C211 1.372 . S
C212 C213 1.379 . S
C213 H191 0.948 . S
C213 C208 1.364 . S
C213 C212 1.379 . S
C214 C183 1.383 . S
C214 C201 1.479 . S
C214 C215 1.398 . S
C215 C180 1.382 . S
C215 H192 0.951 . S
C215 C214 1.398 . S
C216 C217 1.384 . S
C216 H229 0.947 . S
C216 C251 1.382 . S
C217 C216 1.384 . S
C217 C218 1.378 . S
C218 C217 1.378 . S
C218 C219 1.378 . S
C218 H230 0.952 . S
C219 C218 1.378 . S
C219 H231 0.950 . S
C219 C250 1.383 . S
H220 C239 0.947 . S
H221 C240 0.946 . S
H222 C242 0.953 . S
H223 C243 0.945 . S
H224 C245 0.952 . S
H225 C246 0.949 . S
H226 C248 0.950 . S
H227 C249 0.948 . S
H228 C251 0.951 . S
H229 C216 0.947 . S
H230 C218 0.952 . S
H231 C219 0.950 . S
N232 C235 1.382 . S
N232 C237 1.363 . S
N233 C235 1.371 . S
N233 C236 1.372 . S
N234 C236 1.361 . S
N234 C237 1.377 . S
C235 N232 1.382 . S
C235 N233 1.371 . S
C235 C238 1.480 . S
C236 N233 1.372 . S
C236 N234 1.361 . S
C236 C244 1.457 . S
C237 N232 1.363 . S
C237 N234 1.377 . S
C237 C250 1.479 . S
C238 C235 1.480 . S
C238 C239 1.383 . S
C238 C243 1.385 . S
C239 H220 0.947 . S
C239 C238 1.383 . S
C239 C240 1.388 . S
C240 H221 0.946 . S
C240 C239 1.388 . S
C240 C241 1.384 . S
C241 C240 1.384 . S
C241 C242 1.377 . S
C242 H222 0.953 . S
C242 C241 1.377 . S
C242 C243 1.369 . S
C243 H223 0.945 . S
C243 C238 1.385 . S
C243 C242 1.369 . S
C244 C236 1.457 . S
C244 C245 1.372 . S
C244 C249 1.364 . S
C245 H224 0.952 . S
C245 C244 1.372 . S
C245 C246 1.389 . S
C246 H225 0.949 . S
C246 C245 1.389 . S
C246 C247 1.387 . S
C247 C246 1.387 . S
C247 C248 1.372 1_655 S
C248 H226 0.950 . S
C248 C247 1.372 1_455 S
C248 C249 1.379 1_455 S
C249 H227 0.948 . S
C249 C244 1.364 . S
C249 C248 1.379 1_655 S
C250 C219 1.383 . S
C250 C237 1.479 . S
C250 C251 1.398 . S
C251 C216 1.382 . S
C251 H228 0.951 . S
C251 C250 1.398 . S
C252 C253 1.384 . S
C252 H265 0.947 . S
C252 C287 1.382 . S
C253 C252 1.384 . S
C253 C254 1.378 . S
C254 C253 1.378 . S
C254 C255 1.378 . S
C254 H266 0.952 . S
C255 C254 1.378 . S
C255 H267 0.950 . S
C255 C286 1.383 . S
H256 C275 0.947 . S
H257 C276 0.946 . S
H258 C278 0.953 . S
H259 C279 0.945 . S
H260 C281 0.952 . S
H261 C282 0.949 . S
H262 C284 0.950 . S
H263 C285 0.948 . S
H264 C287 0.951 . S
H265 C252 0.947 . S
H266 C254 0.952 . S
H267 C255 0.950 . S
N268 C271 1.382 . S
N268 C273 1.363 . S
N269 C271 1.371 . S
N269 C272 1.372 . S
N270 C272 1.361 . S
N270 C273 1.377 . S
C271 N268 1.382 . S
C271 N269 1.371 . S
C271 C274 1.480 . S
C272 N269 1.372 . S
C272 N270 1.361 . S
C272 C280 1.457 . S
C273 N268 1.363 . S
C273 N270 1.377 . S
C273 C286 1.479 . S
C274 C271 1.480 . S
C274 C275 1.383 . S
C274 C279 1.385 . S
C275 H256 0.947 . S
C275 C274 1.383 . S
C275 C276 1.388 . S
C276 H257 0.946 . S
C276 C275 1.388 . S
C276 C277 1.384 . S
C277 C276 1.384 . S
C277 C278 1.377 . S
C278 H258 0.953 . S
C278 C277 1.377 . S
C278 C279 1.369 . S
C279 H259 0.945 . S
C279 C274 1.385 . S
C279 C278 1.369 . S
C280 C272 1.457 . S
C280 C281 1.372 . S
C280 C285 1.364 . S
C281 H260 0.952 . S
C281 C280 1.372 . S
C281 C282 1.389 . S
C282 H261 0.949 . S
C282 C281 1.389 . S
C282 C283 1.387 . S
C283 C282 1.387 . S
C283 C284 1.372 . S
C284 H262 0.950 . S
C284 C283 1.372 . S
C284 C285 1.379 . S
C285 H263 0.948 . S
C285 C280 1.364 . S
C285 C284 1.379 . S
C286 C255 1.383 . S
C286 C273 1.479 . S
C286 C287 1.398 . S
C287 C252 1.382 . S
C287 H264 0.951 . S
C287 C286 1.398 . S
C288 C289 1.384 . S
C288 H301 0.947 . S
C288 C323 1.382 . S
C289 C288 1.384 . S
C289 C290 1.378 . S
C290 C289 1.378 . S
C290 C291 1.378 . S
C290 H302 0.952 . S
C291 C290 1.378 . S
C291 H303 0.950 . S
C291 C322 1.383 . S
H292 C311 0.947 . S
H293 C312 0.946 . S
H294 C314 0.953 . S
H295 C315 0.945 . S
H296 C317 0.952 . S
H297 C318 0.949 . S
H298 C320 0.950 . S
H299 C321 0.948 . S
H300 C323 0.951 . S
H301 C288 0.947 . S
H302 C290 0.952 . S
H303 C291 0.950 . S
N304 C307 1.382 . S
N304 C309 1.363 . S
N305 C307 1.371 . S
N305 C308 1.372 . S
N306 C308 1.361 . S
N306 C309 1.377 . S
C307 N304 1.382 . S
C307 N305 1.371 . S
C307 C310 1.480 . S
C308 N305 1.372 . S
C308 N306 1.361 . S
C308 C316 1.457 . S
C309 N304 1.363 . S
C309 N306 1.377 . S
C309 C322 1.479 . S
C310 C307 1.480 . S
C310 C311 1.383 . S
C310 C315 1.385 . S
C311 H292 0.947 . S
C311 C310 1.383 . S
C311 C312 1.388 . S
C312 H293 0.946 . S
C312 C311 1.388 . S
C312 C313 1.384 . S
C313 C312 1.384 . S
C313 C314 1.377 . S
C314 H294 0.953 . S
C314 C313 1.377 . S
C314 C315 1.369 . S
C315 H295 0.945 . S
C315 C310 1.385 . S
C315 C314 1.369 . S
C316 C308 1.457 . S
C316 C317 1.372 . S
C316 C321 1.364 . S
C317 H296 0.952 . S
C317 C316 1.372 . S
C317 C318 1.389 . S
C318 H297 0.949 . S
C318 C317 1.389 . S
C318 C319 1.387 . S
C319 C318 1.387 . S
C319 C320 1.372 . S
C320 H298 0.950 . S
C320 C319 1.372 . S
C320 C321 1.379 . S
C321 H299 0.948 . S
C321 C316 1.364 . S
C321 C320 1.379 . S
C322 C291 1.383 . S
C322 C309 1.479 . S
C322 C323 1.398 . S
C323 C288 1.382 . S
C323 H300 0.951 . S
C323 C322 1.398 . S
C324 C325 1.384 . S
C324 H337 0.947 . S
C324 C359 1.382 . S
C325 C324 1.384 . S
C325 C326 1.378 . S
C326 C325 1.378 . S
C326 C327 1.378 . S
C326 H338 0.952 . S
C327 C326 1.378 . S
C327 H339 0.950 . S
C327 C358 1.383 . S
H328 C347 0.947 . S
H329 C348 0.946 . S
H330 C350 0.953 . S
H331 C351 0.945 . S
H332 C353 0.952 . S
H333 C354 0.949 . S
H334 C356 0.950 . S
H335 C357 0.948 . S
H336 C359 0.951 . S
H337 C324 0.947 . S
H338 C326 0.952 . S
H339 C327 0.950 . S
N340 C343 1.382 . S
N340 C345 1.363 . S
N341 C343 1.371 . S
N341 C344 1.372 . S
N342 C344 1.361 . S
N342 C345 1.377 . S
C343 N340 1.382 . S
C343 N341 1.371 . S
C343 C346 1.480 . S
C344 N341 1.372 . S
C344 N342 1.361 . S
C344 C352 1.457 . S
C345 N340 1.363 . S
C345 N342 1.377 . S
C345 C358 1.479 . S
C346 C343 1.480 . S
C346 C347 1.383 . S
C346 C351 1.385 . S
C347 H328 0.947 . S
C347 C346 1.383 . S
C347 C348 1.388 . S
C348 H329 0.946 . S
C348 C347 1.388 . S
C348 C349 1.384 . S
C349 C348 1.384 . S
C349 C350 1.377 1_565 S
C350 H330 0.953 . S
C350 C349 1.377 1_545 S
C350 C351 1.369 1_545 S
C351 H331 0.945 . S
C351 C346 1.385 . S
C351 C350 1.369 1_565 S
C352 C344 1.457 . S
C352 C353 1.372 . S
C352 C357 1.364 . S
C353 H332 0.952 . S
C353 C352 1.372 . S
C353 C354 1.389 . S
C354 H333 0.949 . S
C354 C353 1.389 . S
C354 C355 1.387 . S
C355 C354 1.387 . S
C355 C356 1.372 . S
C356 H334 0.950 . S
C356 C355 1.372 . S
C356 C357 1.379 . S
C357 H335 0.948 . S
C357 C352 1.364 . S
C357 C356 1.379 . S
C358 C327 1.383 . S
C358 C345 1.479 . S
C358 C359 1.398 . S
C359 C324 1.382 . S
C359 H336 0.951 . S
C359 C358 1.398 . S
C360 C361 1.384 . S
C360 H373 0.947 . S
C360 C395 1.382 . S
C361 C360 1.384 . S
C361 C362 1.378 . S
C362 C361 1.378 . S
C362 C363 1.378 . S
C362 H374 0.952 . S
C363 C362 1.378 . S
C363 H375 0.950 . S
C363 C394 1.383 . S
H364 C383 0.947 . S
H365 C384 0.946 . S
H366 C386 0.953 . S
H367 C387 0.945 . S
H368 C389 0.952 . S
H369 C390 0.949 . S
H370 C392 0.950 . S
H371 C393 0.948 . S
H372 C395 0.951 . S
H373 C360 0.947 . S
H374 C362 0.952 . S
H375 C363 0.950 . S
N376 C379 1.382 . S
N376 C381 1.363 . S
N377 C379 1.371 . S
N377 C380 1.372 . S
N378 C380 1.361 . S
N378 C381 1.377 . S
C379 N376 1.382 . S
C379 N377 1.371 . S
C379 C382 1.480 . S
C380 N377 1.372 . S
C380 N378 1.361 . S
C380 C388 1.457 . S
C381 N376 1.363 . S
C381 N378 1.377 . S
C381 C394 1.479 . S
C382 C379 1.480 . S
C382 C383 1.383 . S
C382 C387 1.385 . S
C383 H364 0.947 . S
C383 C382 1.383 . S
C383 C384 1.388 . S
C384 H365 0.946 . S
C384 C383 1.388 . S
C384 C385 1.384 . S
C385 C384 1.384 . S
C385 C386 1.377 . S
C386 H366 0.953 . S
C386 C385 1.377 . S
C386 C387 1.369 . S
C387 H367 0.945 . S
C387 C382 1.385 . S
C387 C386 1.369 . S
C388 C380 1.457 . S
C388 C389 1.372 . S
C388 C393 1.364 . S
C389 H368 0.952 . S
C389 C388 1.372 . S
C389 C390 1.389 . S
C390 H369 0.949 . S
C390 C389 1.389 . S
C390 C391 1.387 . S
C391 C390 1.387 . S
C391 C392 1.372 . S
C392 H370 0.950 . S
C392 C391 1.372 . S
C392 C393 1.379 . S
C393 H371 0.948 . S
C393 C388 1.364 . S
C393 C392 1.379 . S
C394 C363 1.383 . S
C394 C381 1.479 . S
C394 C395 1.398 . S
C395 C360 1.382 . S
C395 H372 0.951 . S
C395 C394 1.398 . S
C396 C397 1.384 . S
C396 H409 0.947 . S
C396 C431 1.382 . S
C397 C396 1.384 . S
C397 C398 1.378 . S
C398 C397 1.378 . S
C398 C399 1.378 . S
C398 H410 0.952 . S
C399 C398 1.378 . S
C399 H411 0.950 . S
C399 C430 1.383 . S
H400 C419 0.947 . S
H401 C420 0.946 . S
H402 C422 0.953 . S
H403 C423 0.945 . S
H404 C425 0.952 . S
H405 C426 0.949 . S
H406 C428 0.950 . S
H407 C429 0.948 . S
H408 C431 0.951 . S
H409 C396 0.947 . S
H410 C398 0.952 . S
H411 C399 0.950 . S
N412 C415 1.382 . S
N412 C417 1.363 . S
N413 C415 1.371 . S
N413 C416 1.372 . S
N414 C416 1.361 . S
N414 C417 1.377 . S
C415 N412 1.382 . S
C415 N413 1.371 . S
C415 C418 1.480 . S
C416 N413 1.372 . S
C416 N414 1.361 . S
C416 C424 1.457 . S
C417 N412 1.363 . S
C417 N414 1.377 . S
C417 C430 1.479 . S
C418 C415 1.480 . S
C418 C419 1.383 . S
C418 C423 1.385 . S
C419 H400 0.947 . S
C419 C418 1.383 . S
C419 C420 1.388 . S
C420 H401 0.946 . S
C420 C419 1.388 . S
C420 C421 1.384 . S
C421 C420 1.384 . S
C421 C422 1.377 . S
C422 H402 0.953 . S
C422 C421 1.377 . S
C422 C423 1.369 . S
C423 H403 0.945 . S
C423 C418 1.385 . S
C423 C422 1.369 . S
C424 C416 1.457 . S
C424 C425 1.372 . S
C424 C429 1.364 . S
C425 H404 0.952 . S
C425 C424 1.372 . S
C425 C426 1.389 . S
C426 H405 0.949 . S
C426 C425 1.389 . S
C426 C427 1.387 . S
C427 C426 1.387 . S
C427 C428 1.372 . S
C428 H406 0.950 . S
C428 C427 1.372 . S
C428 C429 1.379 . S
C429 H407 0.948 . S
C429 C424 1.364 . S
C429 C428 1.379 . S
C430 C399 1.383 . S
C430 C417 1.479 . S
C430 C431 1.398 . S
C431 C396 1.382 . S
C431 H408 0.951 . S
C431 C430 1.398 . S
C432 C433 1.384 . S
C432 H445 0.947 . S
C432 C467 1.382 . S
C433 C432 1.384 . S
C433 C434 1.378 . S
C434 C433 1.378 . S
C434 C435 1.378 . S
C434 H446 0.952 . S
C435 C434 1.378 . S
C435 H447 0.950 . S
C435 C466 1.383 . S
H436 C455 0.947 . S
H437 C456 0.946 . S
H438 C458 0.953 . S
H439 C459 0.945 . S
H440 C461 0.952 . S
H441 C462 0.949 . S
H442 C464 0.950 . S
H443 C465 0.948 . S
H444 C467 0.951 . S
H445 C432 0.947 . S
H446 C434 0.952 . S
H447 C435 0.950 . S
N448 C451 1.382 . S
N448 C453 1.363 . S
N449 C451 1.371 . S
N449 C452 1.372 . S
N450 C452 1.361 . S
N450 C453 1.377 . S
C451 N448 1.382 . S
C451 N449 1.371 . S
C451 C454 1.480 . S
C452 N449 1.372 . S
C452 N450 1.361 . S
C452 C460 1.457 . S
C453 N448 1.363 . S
C453 N450 1.377 . S
C453 C466 1.479 . S
C454 C451 1.480 . S
C454 C455 1.383 . S
C454 C459 1.385 . S
C455 H436 0.947 . S
C455 C454 1.383 . S
C455 C456 1.388 . S
C456 H437 0.946 . S
C456 C455 1.388 . S
C456 C457 1.384 . S
C457 C456 1.384 . S
C457 C458 1.377 . S
C458 H438 0.953 . S
C458 C457 1.377 . S
C458 C459 1.369 . S
C459 H439 0.945 . S
C459 C454 1.385 . S
C459 C458 1.369 . S
C460 C452 1.457 . S
C460 C461 1.372 . S
C460 C465 1.364 . S
C461 H440 0.952 . S
C461 C460 1.372 . S
C461 C462 1.389 . S
C462 H441 0.949 . S
C462 C461 1.389 . S
C462 C463 1.387 . S
C463 C462 1.387 . S
C463 C464 1.372 . S
C464 H442 0.950 . S
C464 C463 1.372 . S
C464 C465 1.379 . S
C465 H443 0.948 . S
C465 C460 1.364 . S
C465 C464 1.379 . S
C466 C435 1.383 . S
C466 C453 1.479 . S
C466 C467 1.398 . S
C467 C432 1.382 . S
C467 H444 0.951 . S
C467 C466 1.398 . S
C468 C469 1.390 . S
C468 H481 0.918 1_556 S
C468 C503 1.405 . S
C469 C468 1.390 . S
C469 C470 1.378 . S
C470 C469 1.378 . S
C470 C471 1.378 . S
C470 H482 0.952 . S
C471 C470 1.378 . S
C471 H483 0.950 . S
C471 C502 1.383 . S
H472 C491 0.947 . S
H473 C492 0.946 . S
H474 C494 0.953 . S
H475 C495 0.945 . S
H476 C497 0.952 . S
H477 C498 0.949 . S
H478 C500 0.950 . S
H479 C501 0.948 . S
H480 C503 0.951 . S
H481 C468 0.918 1_554 S
H482 C470 0.952 . S
H483 C471 0.950 . S
N484 C487 1.382 . S
N484 C489 1.363 . S
N485 C487 1.371 . S
N485 C488 1.372 . S
N486 C488 1.361 . S
N486 C489 1.377 . S
C487 N484 1.382 . S
C487 N485 1.371 . S
C487 C490 1.480 . S
C488 N485 1.372 . S
C488 N486 1.361 . S
C488 C496 1.457 . S
C489 N484 1.363 . S
C489 N486 1.377 . S
C489 C502 1.479 . S
C490 C487 1.480 . S
C490 C491 1.383 . S
C490 C495 1.385 . S
C491 H472 0.947 . S
C491 C490 1.383 . S
C491 C492 1.388 . S
C492 H473 0.946 . S
C492 C491 1.388 . S
C492 C493 1.384 . S
C493 C492 1.384 . S
C493 C494 1.377 . S
C494 H474 0.953 . S
C494 C493 1.377 . S
C494 C495 1.369 . S
C495 H475 0.945 . S
C495 C490 1.385 . S
C495 C494 1.369 . S
C496 C488 1.457 . S
C496 C497 1.372 . S
C496 C501 1.364 . S
C497 H476 0.952 . S
C497 C496 1.372 . S
C497 C498 1.389 . S
C498 H477 0.949 . S
C498 C497 1.389 . S
C498 C499 1.387 . S
C499 C498 1.387 . S
C499 C500 1.372 . S
C500 H478 0.950 . S
C500 C499 1.372 . S
C500 C501 1.379 . S
C501 H479 0.948 . S
C501 C496 1.364 . S
C501 C500 1.379 . S
C502 C471 1.383 . S
C502 C489 1.479 . S
C502 C503 1.398 . S
C503 C468 1.405 . S
C503 H480 0.951 . S
C503 C502 1.398 . S
C504 C505 1.384 . S
C504 H517 0.947 . S
C504 C539 1.382 . S
C505 C504 1.384 . S
C505 C506 1.378 . S
C506 C505 1.378 . S
C506 C507 1.378 . S
C506 H518 0.952 . S
C507 C506 1.378 . S
C507 H519 0.950 . S
C507 C538 1.383 . S
H508 C527 0.947 . S
H509 C528 0.946 . S
H510 C530 0.953 . S
H511 C531 0.945 . S
H512 C533 0.952 . S
H513 C534 0.949 . S
H514 C536 0.950 . S
H515 C537 0.948 . S
H516 C539 0.951 . S
H517 C504 0.947 . S
H518 C506 0.952 . S
H519 C507 0.950 . S
N520 C523 1.382 . S
N520 C525 1.363 . S
N521 C523 1.371 . S
N521 C524 1.372 . S
N522 C524 1.361 . S
N522 C525 1.377 . S
C523 N520 1.382 . S
C523 N521 1.371 . S
C523 C526 1.480 . S
C524 N521 1.372 . S
C524 N522 1.361 . S
C524 C532 1.457 . S
C525 N520 1.363 . S
C525 N522 1.377 . S
C525 C538 1.479 . S
C526 C523 1.480 . S
C526 C527 1.383 . S
C526 C531 1.385 . S
C527 H508 0.947 . S
C527 C526 1.383 . S
C527 C528 1.388 . S
C528 H509 0.946 . S
C528 C527 1.388 . S
C528 C529 1.384 . S
C529 C528 1.384 . S
C529 C530 1.377 . S
C530 H510 0.953 . S
C530 C529 1.377 . S
C530 C531 1.369 . S
C531 H511 0.945 . S
C531 C526 1.385 . S
C531 C530 1.369 . S
C532 C524 1.457 . S
C532 C533 1.372 . S
C532 C537 1.364 . S
C533 H512 0.952 . S
C533 C532 1.372 . S
C533 C534 1.389 . S
C534 H513 0.949 . S
C534 C533 1.389 . S
C534 C535 1.387 . S
C535 C534 1.387 . S
C535 C536 1.372 . S
C536 H514 0.950 . S
C536 C535 1.372 . S
C536 C537 1.379 . S
C537 H515 0.948 . S
C537 C532 1.364 . S
C537 C536 1.379 . S
C538 C507 1.383 . S
C538 C525 1.479 . S
C538 C539 1.398 . S
C539 C504 1.382 . S
C539 H516 0.951 . S
C539 C538 1.398 . S
C540 C541 1.384 . S
C540 H553 0.947 . S
C540 C575 1.382 . S
C541 C540 1.384 . S
C541 C542 1.378 . S
C542 C541 1.378 . S
C542 C543 1.378 . S
C542 H554 0.952 1_556 S
C543 C542 1.378 . S
C543 H555 0.950 . S
C543 C574 1.383 . S
H544 C563 0.947 . S
H545 C564 0.946 . S
H546 C566 0.953 1_565 S
H547 C567 0.945 . S
H548 C569 0.952 . S
H549 C570 0.949 . S
H550 C572 0.950 . S
H551 C573 0.948 . S
H552 C575 0.951 . S
H553 C540 0.947 . S
H554 C542 0.952 1_554 S
H555 C543 0.950 . S
N556 C559 1.382 . S
N556 C561 1.363 . S
N557 C559 1.371 . S
N557 C560 1.372 . S
N558 C560 1.361 . S
N558 C561 1.377 . S
C559 N556 1.382 . S
C559 N557 1.371 . S
C559 C562 1.480 . S
C560 N557 1.372 . S
C560 N558 1.361 . S
C560 C568 1.457 . S
C561 N556 1.363 . S
C561 N558 1.377 . S
C561 C574 1.479 . S
C562 C559 1.480 . S
C562 C563 1.383 . S
C562 C567 1.385 . S
C563 H544 0.947 . S
C563 C562 1.383 . S
C563 C564 1.388 . S
C564 H545 0.946 . S
C564 C563 1.388 . S
C564 C565 1.384 . S
C565 C564 1.384 . S
C565 C566 1.377 . S
C566 H546 0.953 1_545 S
C566 C565 1.377 . S
C566 C567 1.369 . S
C567 H547 0.945 . S
C567 C562 1.385 . S
C567 C566 1.369 . S
C568 C560 1.457 . S
C568 C569 1.372 . S
C568 C573 1.364 . S
C569 H548 0.952 . S
C569 C568 1.372 . S
C569 C570 1.389 . S
C570 H549 0.949 . S
C570 C569 1.389 . S
C570 C571 1.387 . S
C571 C570 1.387 . S
C571 C572 1.372 . S
C572 H550 0.950 . S
C572 C571 1.372 . S
C572 C573 1.379 . S
C573 H551 0.948 . S
C573 C568 1.364 . S
C573 C572 1.379 . S
C574 C543 1.383 . S
C574 C561 1.479 . S
C574 C575 1.398 . S
C575 C540 1.382 . S
C575 H552 0.951 . S
C575 C574 1.398 . S
Zn576 O579 2.064 . S
Zn576 O581 2.027 1_554 S
Zn576 O586 2.022 1_554 S
Zn577 O578 1.962 . S
Zn577 O580 1.986 . S
Zn577 O582 1.996 . S
Zn577 O585 1.943 1_554 S
O578 Zn577 1.962 . S
O578 C583 1.254 . S
O579 Zn576 2.064 . S
O579 C583 1.269 . S
O580 Zn577 1.986 . S
O580 C587 1.262 . S
O581 Zn576 2.027 1_556 S
O581 C589 1.260 . S
O582 Zn577 1.996 . S
O582 C589 1.257 1_554 S
C583 O578 1.254 . S
C583 O579 1.269 . S
C584 O585 1.249 . S
C584 O586 1.270 . S
O585 Zn577 1.943 1_556 S
O585 C584 1.249 . S
O586 Zn576 2.022 1_556 S
O586 C584 1.270 . S
C587 O580 1.262 . S
C587 O588 1.232 . S
O588 C587 1.232 . S
C589 O581 1.260 . S
C589 O582 1.257 1_556 S
Zn590 O593 2.031 . S
Zn590 O595 2.049 . S
Zn590 O600 2.067 . S
Zn591 O592 1.962 . S
Zn591 O594 1.986 . S
Zn591 O596 1.996 . S
Zn591 O599 1.943 . S
O592 Zn591 1.962 . S
O592 C597 1.254 . S
O593 Zn590 2.031 . S
O593 C597 1.269 . S
O594 Zn591 1.986 . S
O594 C601 1.262 . S
O595 Zn590 2.049 . S
O595 C603 1.260 . S
O596 Zn591 1.996 . S
O596 C603 1.257 . S
C597 O592 1.254 . S
C597 O593 1.269 . S
C598 O599 1.249 . S
C598 O600 1.270 . S
O599 Zn591 1.943 . S
O599 C598 1.249 . S
O600 Zn590 2.067 . S
O600 C598 1.270 . S
C601 O594 1.262 . S
C601 O602 1.232 . S
O602 C601 1.232 . S
C603 O595 1.260 . S
C603 O596 1.257 . S
Zn604 O607 2.031 . S
Zn604 O609 2.049 . S
Zn604 O614 2.067 . S
Zn605 O606 1.962 . S
Zn605 O608 1.986 . S
Zn605 O610 1.996 1_554 S
Zn605 O613 1.943 . S
O606 Zn605 1.962 . S
O606 C611 1.254 . S
O607 Zn604 2.031 . S
O607 C611 1.269 1_556 S
O608 Zn605 1.986 . S
O608 C615 1.262 . S
O609 Zn604 2.049 . S
O609 C617 1.260 . S
O610 Zn605 1.996 1_556 S
O610 C617 1.257 . S
C611 O606 1.254 . S
C611 O607 1.269 1_554 S
C612 O613 1.249 1_556 S
C612 O614 1.270 . S
O613 Zn605 1.943 . S
O613 C612 1.249 1_554 S
O614 Zn604 2.067 . S
O614 C612 1.270 . S
C615 O608 1.262 . S
C615 O616 1.232 . S
O616 C615 1.232 . S
C617 O609 1.260 . S
C617 O610 1.257 . S
Zn618 O621 2.060 . S
Zn618 O623 2.030 1_545 S
Zn618 O628 2.028 1_545 S
Zn619 O620 1.962 . S
Zn619 O622 1.986 . S
Zn619 O624 1.996 . S
Zn619 O627 1.943 1_545 S
O620 Zn619 1.962 . S
O620 C625 1.254 . S
O621 Zn618 2.060 . S
O621 C625 1.269 . S
O622 Zn619 1.986 . S
O622 C629 1.262 . S
O623 Zn618 2.030 1_565 S
O623 C631 1.260 . S
O624 Zn619 1.996 . S
O624 C631 1.257 1_545 S
C625 O620 1.254 . S
C625 O621 1.269 . S
C626 O627 1.249 . S
C626 O628 1.270 . S
O627 Zn619 1.943 1_565 S
O627 C626 1.249 . S
O628 Zn618 2.028 1_565 S
O628 C626 1.270 . S
C629 O622 1.262 . S
C629 O630 1.232 . S
O630 C629 1.232 . S
C631 O623 1.260 . S
C631 O624 1.257 1_565 S
Zn632 O635 2.031 . S
Zn632 O637 2.049 . S
Zn632 O642 2.067 . S
Zn633 O634 1.962 . S
Zn633 O636 1.986 . S
Zn633 O638 1.996 . S
Zn633 O641 1.943 . S
O634 Zn633 1.962 . S
O634 C639 1.254 . S
O635 Zn632 2.031 . S
O635 C639 1.269 . S
O636 Zn633 1.986 . S
O636 C643 1.262 . S
O637 Zn632 2.049 . S
O637 C645 1.260 . S
O638 Zn633 1.996 . S
O638 C645 1.257 . S
C639 O634 1.254 . S
C639 O635 1.269 . S
C640 O641 1.249 . S
C640 O642 1.270 . S
O641 Zn633 1.943 . S
O641 C640 1.249 . S
O642 Zn632 2.067 . S
O642 C640 1.270 . S
C643 O636 1.262 . S
C643 O644 1.232 . S
O644 C643 1.232 . S
C645 O637 1.260 . S
C645 O638 1.257 . S
Zn646 O649 2.031 . S
Zn646 O651 2.049 . S
Zn646 O656 2.067 . S
Zn647 O648 1.962 . S
Zn647 O650 1.986 . S
Zn647 O652 1.996 . S
Zn647 O655 1.943 . S
O648 Zn647 1.962 . S
O648 C653 1.254 . S
O649 Zn646 2.031 . S
O649 C653 1.269 . S
O650 Zn647 1.986 . S
O650 C657 1.262 . S
O651 Zn646 2.049 . S
O651 C659 1.260 . S
O652 Zn647 1.996 . S
O652 C659 1.257 . S
C653 O648 1.254 . S
C653 O649 1.269 . S
C654 O655 1.249 . S
C654 O656 1.270 . S
O655 Zn647 1.943 . S
O655 C654 1.249 . S
O656 Zn646 2.067 . S
O656 C654 1.270 . S
C657 O650 1.262 . S
C657 O658 1.232 . S
O658 C657 1.232 . S
C659 O651 1.260 . S
C659 O652 1.257 . S
Zn660 O663 2.031 . S
Zn660 O665 2.049 . S
Zn660 O670 2.067 . S
Zn661 O662 1.962 . S
Zn661 O664 1.986 . S
Zn661 O666 1.996 . S
Zn661 O669 1.943 . S
O662 Zn661 1.962 . S
O662 C667 1.254 . S
O663 Zn660 2.031 . S
O663 C667 1.269 . S
O664 Zn661 1.986 . S
O664 C671 1.262 . S
O665 Zn660 2.049 . S
O665 C673 1.260 . S
O666 Zn661 1.996 . S
O666 C673 1.257 . S
C667 O662 1.254 . S
C667 O663 1.269 . S
C668 O669 1.249 . S
C668 O670 1.270 . S
O669 Zn661 1.943 . S
O669 C668 1.249 . S
O670 Zn660 2.067 . S
O670 C668 1.270 . S
C671 O664 1.262 . S
C671 O672 1.232 . S
O672 C671 1.232 . S
C673 O665 1.260 . S
C673 O666 1.257 . S
Zn674 O677 2.031 . S
Zn674 O679 2.049 . S
Zn674 O684 2.067 . S
Zn675 O676 1.962 . S
Zn675 O678 1.986 . S
Zn675 O680 1.996 1_545 S
Zn675 O683 1.943 . S
O676 Zn675 1.962 . S
O676 C681 1.254 . S
O677 Zn674 2.031 . S
O677 C681 1.269 1_565 S
O678 Zn675 1.986 . S
O678 C685 1.262 . S
O679 Zn674 2.049 . S
O679 C687 1.260 . S
O680 Zn675 1.996 1_565 S
O680 C687 1.257 . S
C681 O676 1.254 . S
C681 O677 1.269 1_545 S
C682 O683 1.249 1_565 S
C682 O684 1.270 . S
O683 Zn675 1.943 . S
O683 C682 1.249 1_545 S
O684 Zn674 2.067 . S
O684 C682 1.270 . S
C685 O678 1.262 . S
C685 O686 1.232 . S
O686 C685 1.232 . S
C687 O679 1.260 . S
C687 O680 1.257 . S
Zn688 O691 2.041 . S
Zn688 O693 2.042 1_455 S
Zn688 O698 2.053 1_455 S
Zn689 O690 1.962 . S
Zn689 O692 1.986 . S
Zn689 O694 1.996 . S
Zn689 O697 1.943 1_455 S
O690 Zn689 1.962 . S
O690 C695 1.254 . S
O691 Zn688 2.041 . S
O691 C695 1.269 . S
O692 Zn689 1.986 . S
O692 C699 1.262 . S
O693 Zn688 2.042 1_655 S
O693 C701 1.260 . S
O694 Zn689 1.996 . S
O694 C701 1.257 1_455 S
C695 O690 1.254 . S
C695 O691 1.269 . S
C696 O697 1.249 . S
C696 O698 1.270 . S
O697 Zn689 1.943 1_655 S
O697 C696 1.249 . S
O698 Zn688 2.053 1_655 S
O698 C696 1.270 . S
C699 O692 1.262 . S
C699 O700 1.232 . S
O700 C699 1.232 . S
C701 O693 1.260 . S
C701 O694 1.257 1_655 S
Zn702 O705 2.031 . S
Zn702 O707 2.049 . S
Zn702 O712 2.067 . S
Zn703 O704 1.962 . S
Zn703 O706 1.986 . S
Zn703 O708 1.996 . S
Zn703 O711 1.943 . S
O704 Zn703 1.962 . S
O704 C709 1.254 . S
O705 Zn702 2.031 . S
O705 C709 1.269 . S
O706 Zn703 1.986 . S
O706 C713 1.262 . S
O707 Zn702 2.049 . S
O707 C715 1.260 . S
O708 Zn703 1.996 . S
O708 C715 1.257 . S
C709 O704 1.254 . S
C709 O705 1.269 . S
C710 O711 1.249 . S
C710 O712 1.270 . S
O711 Zn703 1.943 . S
O711 C710 1.249 . S
O712 Zn702 2.067 . S
O712 C710 1.270 . S
C713 O706 1.262 . S
C713 O714 1.232 . S
O714 C713 1.232 . S
C715 O707 1.260 . S
C715 O708 1.257 . S
Zn716 O719 2.031 . S
Zn716 O721 2.049 . S
Zn716 O726 2.067 . S
Zn717 O718 1.962 . S
Zn717 O720 1.986 . S
Zn717 O722 1.996 1_455 S
Zn717 O725 1.943 . S
O718 Zn717 1.962 . S
O718 C723 1.254 . S
O719 Zn716 2.031 . S
O719 C723 1.269 1_655 S
O720 Zn717 1.986 . S
O720 C727 1.262 . S
O721 Zn716 2.049 . S
O721 C729 1.260 . S
O722 Zn717 1.996 1_655 S
O722 C729 1.257 . S
C723 O718 1.254 . S
C723 O719 1.269 1_455 S
C724 O725 1.249 1_655 S
C724 O726 1.270 . S
O725 Zn717 1.943 . S
O725 C724 1.249 1_455 S
O726 Zn716 2.067 . S
O726 C724 1.270 . S
C727 O720 1.262 . S
C727 O728 1.232 . S
O728 C727 1.232 . S
C729 O721 1.260 . S
C729 O722 1.257 . S
Zn730 O733 2.031 . S
Zn730 O735 2.049 . S
Zn730 O740 2.067 . S
Zn731 O732 1.962 . S
Zn731 O734 1.986 . S
Zn731 O736 1.996 . S
Zn731 O739 1.943 . S
O732 Zn731 1.962 . S
O732 C737 1.254 . S
O733 Zn730 2.031 . S
O733 C737 1.269 . S
O734 Zn731 1.986 . S
O734 C741 1.262 . S
O735 Zn730 2.049 . S
O735 C743 1.260 . S
O736 Zn731 1.996 . S
O736 C743 1.257 . S
C737 O732 1.254 . S
C737 O733 1.269 . S
C738 O739 1.249 . S
C738 O740 1.270 . S
O739 Zn731 1.943 . S
O739 C738 1.249 . S
O740 Zn730 2.067 . S
O740 C738 1.270 . S
C741 O734 1.262 . S
C741 O742 1.232 . S
O742 C741 1.232 . S
C743 O735 1.260 . S
C743 O736 1.257 . S
H744 C762 0.951 . S
H745 C764 0.951 . S
H746 C766 0.950 . S
H747 C767 0.950 . S
H748 C769 0.950 . S
H749 C772 0.950 . S
H750 C773 0.950 . S
H751 C775 0.950 . S
H752 C776 0.950 . S
H753 C777 0.951 . S
H754 C779 0.951 . S
H755 C781 0.950 . S
H756 C782 0.950 . S
H757 C784 0.950 . S
H758 C787 0.950 . S
H759 C788 0.950 . S
H760 C790 0.950 . S
H761 C791 0.950 . S
C762 H744 0.951 . S
C762 C763 1.366 . S
C762 C764 1.388 . S
C763 C762 1.366 . S
C763 C767 1.385 . S
C764 H745 0.951 . S
C764 C762 1.388 . S
C764 C765 1.366 . S
C765 C764 1.366 . S
C765 C766 1.414 . S
C765 C768 1.499 . S
C766 H746 0.950 . S
C766 C765 1.414 . S
C766 C767 1.374 . S
C767 H747 0.950 . S
C767 C763 1.385 . S
C767 C766 1.374 . S
C768 C765 1.499 . S
C768 C769 1.373 . S
C768 C770 1.389 . S
C769 H748 0.950 . S
C769 C768 1.373 . S
C769 C785 1.377 . S
C770 C768 1.389 . S
C770 C771 1.524 . S
C770 C784 1.377 . S
C771 C770 1.524 . S
C771 C772 1.397 . S
C771 C776 1.363 . S
C772 H749 0.950 . S
C772 C771 1.397 . S
C772 C773 1.334 . S
C773 H750 0.950 . S
C773 C772 1.334 . S
C773 C774 1.287 . S
C774 C773 1.287 . S
C774 C775 1.524 . S
C774 H793 0.913 . S
C775 H751 0.950 . S
C775 C774 1.524 . S
C775 C776 1.415 . S
C776 H752 0.950 . S
C776 C771 1.363 . S
C776 C775 1.415 . S
C777 H753 0.951 . S
C777 C778 1.366 . S
C777 C779 1.388 . S
C778 C777 1.366 . S
C778 C782 1.385 . S
C779 H754 0.951 . S
C779 C777 1.388 . S
C779 C780 1.366 . S
C780 C779 1.366 . S
C780 C781 1.414 . S
C780 C783 1.499 . S
C781 H755 0.950 . S
C781 C780 1.414 . S
C781 C782 1.374 . S
C782 H756 0.950 . S
C782 C778 1.385 . S
C782 C781 1.374 . S
C783 C780 1.499 . S
C783 C784 1.373 . S
C783 C785 1.389 . S
C784 H757 0.950 . S
C784 C770 1.377 . S
C784 C783 1.373 . S
C785 C769 1.377 . S
C785 C783 1.389 . S
C785 C786 1.524 . S
C786 C785 1.524 . S
C786 C787 1.397 . S
C786 C791 1.363 . S
C787 H758 0.950 . S
C787 C786 1.397 . S
C787 C788 1.334 . S
C788 H759 0.950 . S
C788 C787 1.334 . S
C788 C789 1.287 . S
C789 C788 1.287 . S
C789 C790 1.524 . S
C789 H792 0.999 . S
C790 H760 0.950 . S
C790 C789 1.524 . S
C790 C791 1.415 . S
C791 H761 0.950 . S
C791 C786 1.363 . S
C791 C790 1.415 . S
H792 C789 0.999 . S
H793 C774 0.913 . S
H794 C812 0.951 . S
H795 C814 0.951 . S
H796 C816 0.950 . S
H797 C817 0.950 . S
H798 C819 0.950 . S
H799 C822 0.950 . S
H800 C823 0.950 . S
H801 C825 0.950 . S
H802 C826 0.950 . S
H803 C827 0.951 . S
H804 C829 0.951 . S
H805 C831 0.950 . S
H806 C832 0.950 . S
H807 C834 0.950 . S
H808 C837 0.950 . S
H809 C838 0.950 . S
H810 C840 0.950 . S
H811 C841 0.950 . S
C812 H794 0.951 . S
C812 C813 1.366 . S
C812 C814 1.388 . S
C813 C812 1.366 . S
C813 C817 1.385 . S
C814 H795 0.951 . S
C814 C812 1.388 . S
C814 C815 1.366 . S
C815 C814 1.366 . S
C815 C816 1.414 . S
C815 C818 1.499 . S
C816 H796 0.950 . S
C816 C815 1.414 . S
C816 C817 1.374 . S
C817 H797 0.950 . S
C817 C813 1.385 . S
C817 C816 1.374 . S
C818 C815 1.499 . S
C818 C819 1.373 . S
C818 C820 1.389 . S
C819 H798 0.950 . S
C819 C818 1.373 . S
C819 C835 1.377 . S
C820 C818 1.389 . S
C820 C821 1.524 . S
C820 C834 1.377 . S
C821 C820 1.524 . S
C821 C822 1.397 . S
C821 C826 1.363 . S
C822 H799 0.950 . S
C822 C821 1.397 . S
C822 C823 1.334 . S
C823 H800 0.950 . S
C823 C822 1.334 . S
C823 C824 1.287 . S
C824 C823 1.287 . S
C824 C825 1.524 . S
C824 H843 0.913 . S
C825 H801 0.950 . S
C825 C824 1.524 . S
C825 C826 1.415 . S
C826 H802 0.950 . S
C826 C821 1.363 . S
C826 C825 1.415 . S
C827 H803 0.951 . S
C827 C828 1.366 . S
C827 C829 1.388 . S
C828 C827 1.366 . S
C828 C832 1.385 . S
C829 H804 0.951 . S
C829 C827 1.388 . S
C829 C830 1.366 . S
C830 C829 1.366 . S
C830 C831 1.414 . S
C830 C833 1.499 . S
C831 H805 0.950 . S
C831 C830 1.414 . S
C831 C832 1.374 . S
C832 H806 0.950 . S
C832 C828 1.385 . S
C832 C831 1.374 . S
C833 C830 1.499 . S
C833 C834 1.373 . S
C833 C835 1.389 . S
C834 H807 0.950 . S
C834 C820 1.377 . S
C834 C833 1.373 . S
C835 C819 1.377 . S
C835 C833 1.389 . S
C835 C836 1.524 . S
C836 C835 1.524 . S
C836 C837 1.397 . S
C836 C841 1.363 . S
C837 H808 0.950 . S
C837 C836 1.397 . S
C837 C838 1.334 . S
C838 H809 0.950 . S
C838 C837 1.334 . S
C838 C839 1.287 . S
C839 C838 1.287 . S
C839 C840 1.524 . S
C839 H842 0.999 . S
C840 H810 0.950 . S
C840 C839 1.524 . S
C840 C841 1.415 . S
C841 H811 0.950 . S
C841 C836 1.363 . S
C841 C840 1.415 . S
H842 C839 0.999 . S
H843 C824 0.913 . S
H844 C862 0.951 . S
H845 C864 0.951 . S
H846 C866 0.950 . S
H847 C867 0.950 . S
H848 C869 0.950 . S
H849 C872 0.950 . S
H850 C873 0.950 . S
H851 C875 0.950 . S
H852 C876 0.950 . S
H853 C877 0.951 . S
H854 C879 0.951 . S
H855 C881 0.950 . S
H856 C882 0.950 . S
H857 C884 0.950 . S
H858 C887 0.950 . S
H859 C888 0.950 . S
H860 C890 0.950 . S
H861 C891 0.950 . S
C862 H844 0.951 . S
C862 C863 1.366 . S
C862 C864 1.388 . S
C863 C862 1.366 . S
C863 C867 1.385 . S
C864 H845 0.951 . S
C864 C862 1.388 . S
C864 C865 1.366 . S
C865 C864 1.366 . S
C865 C866 1.414 . S
C865 C868 1.499 . S
C866 H846 0.950 . S
C866 C865 1.414 . S
C866 C867 1.374 . S
C867 H847 0.950 . S
C867 C863 1.385 . S
C867 C866 1.374 . S
C868 C865 1.499 . S
C868 C869 1.373 . S
C868 C870 1.389 . S
C869 H848 0.950 . S
C869 C868 1.373 . S
C869 C885 1.377 . S
C870 C868 1.389 . S
C870 C871 1.524 . S
C870 C884 1.377 . S
C871 C870 1.524 . S
C871 C872 1.397 . S
C871 C876 1.363 . S
C872 H849 0.950 . S
C872 C871 1.397 . S
C872 C873 1.334 . S
C873 H850 0.950 . S
C873 C872 1.334 . S
C873 C874 1.287 . S
C874 C873 1.287 . S
C874 C875 1.524 . S
C874 H893 0.913 . S
C875 H851 0.950 . S
C875 C874 1.524 . S
C875 C876 1.415 . S
C876 H852 0.950 . S
C876 C871 1.363 . S
C876 C875 1.415 . S
C877 H853 0.951 . S
C877 C878 1.366 . S
C877 C879 1.388 . S
C878 C877 1.366 . S
C878 C882 1.385 . S
C879 H854 0.951 . S
C879 C877 1.388 . S
C879 C880 1.366 . S
C880 C879 1.366 . S
C880 C881 1.414 . S
C880 C883 1.499 . S
C881 H855 0.950 . S
C881 C880 1.414 . S
C881 C882 1.374 . S
C882 H856 0.950 . S
C882 C878 1.385 . S
C882 C881 1.374 . S
C883 C880 1.499 . S
C883 C884 1.373 . S
C883 C885 1.389 . S
C884 H857 0.950 . S
C884 C870 1.377 . S
C884 C883 1.373 . S
C885 C869 1.377 . S
C885 C883 1.389 . S
C885 C886 1.524 . S
C886 C885 1.524 . S
C886 C887 1.397 . S
C886 C891 1.363 . S
C887 H858 0.950 . S
C887 C886 1.397 . S
C887 C888 1.334 . S
C888 H859 0.950 . S
C888 C887 1.334 . S
C888 C889 1.287 . S
C889 C888 1.287 . S
C889 C890 1.524 . S
C889 H892 0.999 . S
C890 H860 0.950 . S
C890 C889 1.524 . S
C890 C891 1.415 . S
C891 H861 0.950 . S
C891 C886 1.363 . S
C891 C890 1.415 . S
H892 C889 0.999 . S
H893 C874 0.913 . S
H894 C912 0.951 . S
H895 C914 0.951 . S
H896 C916 0.950 . S
H897 C917 0.950 . S
H898 C919 0.950 . S
H899 C922 0.954 . S
H900 C923 0.950 . S
H901 C925 0.950 . S
H902 C926 0.950 . S
H903 C927 0.951 1_545 S
H904 C929 0.951 . S
H905 C931 0.950 . S
H906 C932 0.950 . S
H907 C934 0.950 . S
H908 C937 0.950 . S
H909 C938 0.950 . S
H910 C940 0.950 . S
H911 C941 0.950 . S
C912 H894 0.951 . S
C912 C913 1.374 . S
C912 C914 1.388 1_455 S
C913 C912 1.374 . S
C913 C917 1.346 1_455 S
C914 H895 0.951 . S
C914 C912 1.388 1_655 S
C914 C915 1.366 . S
C915 C914 1.366 . S
C915 C916 1.414 . S
C915 C918 1.499 . S
C916 H896 0.950 . S
C916 C915 1.414 . S
C916 C917 1.374 . S
C917 H897 0.950 . S
C917 C913 1.346 1_655 S
C917 C916 1.374 . S
C918 C915 1.499 . S
C918 C919 1.373 . S
C918 C920 1.389 . S
C919 H898 0.950 . S
C919 C918 1.373 . S
C919 C935 1.377 . S
C920 C918 1.389 . S
C920 C921 1.524 . S
C920 C934 1.377 . S
C921 C920 1.524 . S
C921 C922 1.397 . S
C921 C926 1.363 . S
C922 H899 0.954 . S
C922 C921 1.397 . S
C922 C923 1.334 1_665 S
C923 H900 0.950 . S
C923 C922 1.334 1_445 S
C923 C924 1.287 1_545 S
C924 C923 1.287 1_565 S
C924 C925 1.524 . S
C924 H943 0.918 . S
C925 H901 0.950 . S
C925 C924 1.524 . S
C925 C926 1.415 1_455 S
C926 H902 0.950 . S
C926 C921 1.363 . S
C926 C925 1.415 1_655 S
C927 H903 0.951 1_565 S
C927 C928 1.366 . S
C927 C929 1.388 . S
C928 C927 1.366 . S
C928 C932 1.385 . S
C929 H904 0.951 . S
C929 C927 1.388 . S
C929 C930 1.366 . S
C930 C929 1.366 . S
C930 C931 1.414 . S
C930 C933 1.499 . S
C931 H905 0.950 . S
C931 C930 1.414 . S
C931 C932 1.374 . S
C932 H906 0.950 . S
C932 C928 1.385 . S
C932 C931 1.374 . S
C933 C930 1.499 . S
C933 C934 1.373 . S
C933 C935 1.389 . S
C934 H907 0.950 . S
C934 C920 1.377 . S
C934 C933 1.373 . S
C935 C919 1.377 . S
C935 C933 1.389 . S
C935 C936 1.524 . S
C936 C935 1.524 . S
C936 C937 1.397 . S
C936 C941 1.363 . S
C937 H908 0.950 . S
C937 C936 1.397 . S
C937 C938 1.334 . S
C938 H909 0.950 . S
C938 C937 1.334 . S
C938 C939 1.287 . S
C939 C938 1.287 . S
C939 C940 1.524 . S
C939 H942 0.999 . S
C940 H910 0.950 . S
C940 C939 1.524 . S
C940 C941 1.415 . S
C941 H911 0.950 . S
C941 C936 1.363 . S
C941 C940 1.415 . S
H942 C939 0.999 . S
H943 C924 0.918 . S
H944 C962 0.951 . S
H945 C964 0.951 . S
H946 C966 0.950 . S
H947 C967 0.950 . S
H948 C969 0.950 . S
H949 C972 0.950 . S
H950 C973 0.950 . S
H951 C975 0.950 . S
H952 C976 0.950 . S
H953 C977 0.951 . S
H954 C979 0.951 . S
H955 C981 0.950 . S
H956 C982 0.950 . S
H957 C984 0.950 . S
H958 C987 0.950 . S
H959 C988 0.950 . S
H960 C990 0.950 . S
H961 C991 0.950 . S
C962 H944 0.951 . S
C962 C963 1.366 . S
C962 C964 1.388 . S
C963 C962 1.366 . S
C963 C967 1.385 . S
C964 H945 0.951 . S
C964 C962 1.388 . S
C964 C965 1.366 . S
C965 C964 1.366 . S
C965 C966 1.414 . S
C965 C968 1.499 . S
C966 H946 0.950 . S
C966 C965 1.414 . S
C966 C967 1.374 . S
C967 H947 0.950 . S
C967 C963 1.385 . S
C967 C966 1.374 . S
C968 C965 1.499 . S
C968 C969 1.373 . S
C968 C970 1.389 . S
C969 H948 0.950 . S
C969 C968 1.373 . S
C969 C985 1.377 . S
C970 C968 1.389 . S
C970 C971 1.524 . S
C970 C984 1.377 . S
C971 C970 1.524 . S
C971 C972 1.397 . S
C971 C976 1.363 . S
C972 H949 0.950 . S
C972 C971 1.397 . S
C972 C973 1.334 . S
C973 H950 0.950 . S
C973 C972 1.334 . S
C973 C974 1.287 . S
C974 C973 1.287 . S
C974 C975 1.524 . S
C974 H993 0.913 . S
C975 H951 0.950 . S
C975 C974 1.524 . S
C975 C976 1.415 . S
C976 H952 0.950 . S
C976 C971 1.363 . S
C976 C975 1.415 . S
C977 H953 0.951 . S
C977 C978 1.366 . S
C977 C979 1.388 . S
C978 C977 1.366 . S
C978 C982 1.385 . S
C979 H954 0.951 . S
C979 C977 1.388 . S
C979 C980 1.366 . S
C980 C979 1.366 . S
C980 C981 1.414 . S
C980 C983 1.499 . S
C981 H955 0.950 . S
C981 C980 1.414 . S
C981 C982 1.374 . S
C982 H956 0.950 . S
C982 C978 1.385 . S
C982 C981 1.374 . S
C983 C980 1.499 . S
C983 C984 1.373 . S
C983 C985 1.389 . S
C984 H957 0.950 . S
C984 C970 1.377 . S
C984 C983 1.373 . S
C985 C969 1.377 . S
C985 C983 1.389 . S
C985 C986 1.524 . S
C986 C985 1.524 . S
C986 C987 1.397 . S
C986 C991 1.363 . S
C987 H958 0.950 . S
C987 C986 1.397 . S
C987 C988 1.334 . S
C988 H959 0.950 . S
C988 C987 1.334 . S
C988 C989 1.287 . S
C989 C988 1.287 . S
C989 C990 1.524 . S
C989 H992 0.999 . S
C990 H960 0.950 . S
C990 C989 1.524 . S
C990 C991 1.415 . S
C991 H961 0.950 . S
C991 C986 1.363 . S
C991 C990 1.415 . S
H992 C989 0.999 . S
H993 C974 0.913 . S
H994 C1012 0.951 . S
H995 C1014 0.951 . S
H996 C1016 0.950 . S
H997 C1017 0.950 . S
H998 C1019 0.950 . S
H999 C1022 0.950 . S
H1000 C1023 0.950 . S
H1001 C1025 0.950 . S
H1002 C1026 0.950 . S
H1003 C1027 0.951 . S
H1004 C1029 0.951 . S
H1005 C1031 0.950 . S
H1006 C1032 0.950 . S
H1007 C1034 0.950 . S
H1008 C1037 0.950 . S
H1009 C1038 0.950 . S
H1010 C1040 0.950 . S
H1011 C1041 0.950 . S
C1012 H994 0.951 . S
C1012 C1013 1.366 . S
C1012 C1014 1.388 . S
C1013 C1012 1.366 . S
C1013 C1017 1.385 . S
C1014 H995 0.951 . S
C1014 C1012 1.388 . S
C1014 C1015 1.366 . S
C1015 C1014 1.366 . S
C1015 C1016 1.414 . S
C1015 C1018 1.499 . S
C1016 H996 0.950 . S
C1016 C1015 1.414 . S
C1016 C1017 1.374 . S
C1017 H997 0.950 . S
C1017 C1013 1.385 . S
C1017 C1016 1.374 . S
C1018 C1015 1.499 . S
C1018 C1019 1.373 . S
C1018 C1020 1.389 . S
C1019 H998 0.950 . S
C1019 C1018 1.373 . S
C1019 C1035 1.377 . S
C1020 C1018 1.389 . S
C1020 C1021 1.524 . S
C1020 C1034 1.377 . S
C1021 C1020 1.524 . S
C1021 C1022 1.397 . S
C1021 C1026 1.363 . S
C1022 H999 0.950 . S
C1022 C1021 1.397 . S
C1022 C1023 1.334 . S
C1023 H1000 0.950 . S
C1023 C1022 1.334 . S
C1023 C1024 1.287 . S
C1024 C1023 1.287 . S
C1024 C1025 1.524 . S
C1024 H1043 0.913 . S
C1025 H1001 0.950 . S
C1025 C1024 1.524 . S
C1025 C1026 1.415 . S
C1026 H1002 0.950 . S
C1026 C1021 1.363 . S
C1026 C1025 1.415 . S
C1027 H1003 0.951 . S
C1027 C1028 1.366 . S
C1027 C1029 1.388 . S
C1028 C1027 1.366 . S
C1028 C1032 1.385 . S
C1029 H1004 0.951 . S
C1029 C1027 1.388 . S
C1029 C1030 1.366 . S
C1030 C1029 1.366 . S
C1030 C1031 1.414 . S
C1030 C1033 1.499 . S
C1031 H1005 0.950 . S
C1031 C1030 1.414 . S
C1031 C1032 1.374 . S
C1032 H1006 0.950 . S
C1032 C1028 1.385 . S
C1032 C1031 1.374 . S
C1033 C1030 1.499 . S
C1033 C1034 1.373 . S
C1033 C1035 1.389 . S
C1034 H1007 0.950 . S
C1034 C1020 1.377 . S
C1034 C1033 1.373 . S
C1035 C1019 1.377 . S
C1035 C1033 1.389 . S
C1035 C1036 1.524 . S
C1036 C1035 1.524 . S
C1036 C1037 1.397 . S
C1036 C1041 1.363 . S
C1037 H1008 0.950 . S
C1037 C1036 1.397 . S
C1037 C1038 1.334 . S
C1038 H1009 0.950 . S
C1038 C1037 1.334 . S
C1038 C1039 1.287 . S
C1039 C1038 1.287 . S
C1039 C1040 1.524 . S
C1039 H1042 0.999 . S
C1040 H1010 0.950 . S
C1040 C1039 1.524 . S
C1040 C1041 1.415 . S
C1041 H1011 0.950 . S
C1041 C1036 1.363 . S
C1041 C1040 1.415 . S
H1042 C1039 0.999 . S
H1043 C1024 0.913 . S
H1044 C1062 0.951 . S
H1045 C1064 0.951 . S
H1046 C1066 0.950 . S
H1047 C1067 0.950 . S
H1048 C1069 0.950 . S
H1049 C1072 0.950 . S
H1050 C1073 0.950 . S
H1051 C1075 0.950 . S
H1052 C1076 0.950 . S
H1053 C1077 0.951 . S
H1054 C1079 0.951 . S
H1055 C1081 0.950 . S
H1056 C1082 0.950 . S
H1057 C1084 0.950 . S
H1058 C1087 0.950 . S
H1059 C1088 0.950 . S
H1060 C1090 0.950 . S
H1061 C1091 0.950 . S
C1062 H1044 0.951 . S
C1062 C1063 1.366 . S
C1062 C1064 1.388 . S
C1063 C1062 1.366 . S
C1063 C1067 1.385 . S
C1064 H1045 0.951 . S
C1064 C1062 1.388 . S
C1064 C1065 1.366 . S
C1065 C1064 1.366 . S
C1065 C1066 1.414 . S
C1065 C1068 1.499 . S
C1066 H1046 0.950 . S
C1066 C1065 1.414 . S
C1066 C1067 1.374 . S
C1067 H1047 0.950 . S
C1067 C1063 1.385 . S
C1067 C1066 1.374 . S
C1068 C1065 1.499 . S
C1068 C1069 1.373 . S
C1068 C1070 1.389 . S
C1069 H1048 0.950 . S
C1069 C1068 1.373 . S
C1069 C1085 1.377 . S
C1070 C1068 1.389 . S
C1070 C1071 1.524 . S
C1070 C1084 1.377 . S
C1071 C1070 1.524 . S
C1071 C1072 1.397 . S
C1071 C1076 1.363 . S
C1072 H1049 0.950 . S
C1072 C1071 1.397 . S
C1072 C1073 1.334 . S
C1073 H1050 0.950 . S
C1073 C1072 1.334 . S
C1073 C1074 1.287 . S
C1074 C1073 1.287 . S
C1074 C1075 1.524 . S
C1074 H1093 0.913 . S
C1075 H1051 0.950 . S
C1075 C1074 1.524 . S
C1075 C1076 1.415 . S
C1076 H1052 0.950 . S
C1076 C1071 1.363 . S
C1076 C1075 1.415 . S
C1077 H1053 0.951 . S
C1077 C1078 1.366 . S
C1077 C1079 1.388 . S
C1078 C1077 1.366 . S
C1078 C1082 1.385 . S
C1079 H1054 0.951 . S
C1079 C1077 1.388 . S
C1079 C1080 1.366 . S
C1080 C1079 1.366 . S
C1080 C1081 1.414 . S
C1080 C1083 1.499 . S
C1081 H1055 0.950 . S
C1081 C1080 1.414 . S
C1081 C1082 1.374 . S
C1082 H1056 0.950 . S
C1082 C1078 1.385 . S
C1082 C1081 1.374 . S
C1083 C1080 1.499 . S
C1083 C1084 1.373 . S
C1083 C1085 1.389 . S
C1084 H1057 0.950 . S
C1084 C1070 1.377 . S
C1084 C1083 1.373 . S
C1085 C1069 1.377 . S
C1085 C1083 1.389 . S
C1085 C1086 1.524 . S
C1086 C1085 1.524 . S
C1086 C1087 1.397 . S
C1086 C1091 1.363 . S
C1087 H1058 0.950 . S
C1087 C1086 1.397 . S
C1087 C1088 1.334 . S
C1088 H1059 0.950 . S
C1088 C1087 1.334 . S
C1088 C1089 1.287 . S
C1089 C1088 1.287 . S
C1089 C1090 1.524 . S
C1089 H1092 0.999 . S
C1090 H1060 0.950 . S
C1090 C1089 1.524 . S
C1090 C1091 1.415 . S
C1091 H1061 0.950 . S
C1091 C1086 1.363 . S
C1091 C1090 1.415 . S
H1092 C1089 0.999 . S
H1093 C1074 0.913 . S
H1094 C1112 0.951 . S
H1095 C1114 0.951 . S
H1096 C1116 0.950 . S
H1097 C1117 0.950 . S
H1098 C1119 0.950 . S
H1099 C1122 0.950 . S
H1100 C1123 0.950 . S
H1101 C1125 0.950 . S
H1102 C1126 0.950 . S
H1103 C1127 0.951 . S
H1104 C1129 0.951 . S
H1105 C1131 0.950 1_545 S
H1106 C1132 0.950 . S
H1107 C1134 0.950 . S
H1108 C1137 0.950 . S
H1109 C1138 0.950 . S
H1110 C1140 0.950 . S
H1111 C1141 0.950 . S
C1112 H1094 0.951 . S
C1112 C1113 1.366 . S
C1112 C1114 1.388 . S
C1113 C1112 1.366 . S
C1113 C1117 1.385 . S
C1114 H1095 0.951 . S
C1114 C1112 1.388 . S
C1114 C1115 1.366 . S
C1115 C1114 1.366 . S
C1115 C1116 1.414 . S
C1115 C1118 1.499 . S
C1116 H1096 0.950 . S
C1116 C1115 1.414 . S
C1116 C1117 1.374 . S
C1117 H1097 0.950 . S
C1117 C1113 1.385 . S
C1117 C1116 1.374 . S
C1118 C1115 1.499 . S
C1118 C1119 1.373 . S
C1118 C1120 1.389 . S
C1119 H1098 0.950 . S
C1119 C1118 1.373 . S
C1119 C1135 1.377 . S
C1120 C1118 1.389 . S
C1120 C1121 1.524 . S
C1120 C1134 1.377 . S
C1121 C1120 1.524 . S
C1121 C1122 1.397 . S
C1121 C1126 1.363 . S
C1122 H1099 0.950 . S
C1122 C1121 1.397 . S
C1122 C1123 1.334 . S
C1123 H1100 0.950 . S
C1123 C1122 1.334 . S
C1123 C1124 1.287 . S
C1124 C1123 1.287 . S
C1124 C1125 1.524 . S
C1124 H1143 0.913 . S
C1125 H1101 0.950 . S
C1125 C1124 1.524 . S
C1125 C1126 1.415 . S
C1126 H1102 0.950 . S
C1126 C1121 1.363 . S
C1126 C1125 1.415 . S
C1127 H1103 0.951 . S
C1127 C1128 1.366 . S
C1127 C1129 1.388 . S
C1128 C1127 1.366 . S
C1128 C1132 1.385 1_565 S
C1129 H1104 0.951 . S
C1129 C1127 1.388 . S
C1129 C1130 1.366 . S
C1130 C1129 1.366 . S
C1130 C1131 1.414 . S
C1130 C1133 1.499 . S
C1131 H1105 0.950 1_565 S
C1131 C1130 1.414 . S
C1131 C1132 1.374 1_565 S
C1132 H1106 0.950 . S
C1132 C1128 1.385 1_545 S
C1132 C1131 1.374 1_545 S
C1133 C1130 1.499 . S
C1133 C1134 1.373 . S
C1133 C1135 1.389 . S
C1134 H1107 0.950 . S
C1134 C1120 1.377 . S
C1134 C1133 1.373 . S
C1135 C1119 1.377 . S
C1135 C1133 1.389 . S
C1135 C1136 1.524 . S
C1136 C1135 1.524 . S
C1136 C1137 1.397 1_565 S
C1136 C1141 1.363 . S
C1137 H1108 0.950 . S
C1137 C1136 1.397 1_545 S
C1137 C1138 1.334 . S
C1138 H1109 0.950 . S
C1138 C1137 1.334 . S
C1138 C1139 1.287 . S
C1139 C1138 1.287 . S
C1139 C1140 1.524 1_545 S
C1139 H1142 0.999 . S
C1140 H1110 0.950 . S
C1140 C1139 1.524 1_565 S
C1140 C1141 1.415 . S
C1141 H1111 0.950 . S
C1141 C1136 1.363 . S
C1141 C1140 1.415 . S
H1142 C1139 0.999 . S
H1143 C1124 0.913 . S
H1144 C1162 0.951 . S
H1145 C1164 0.951 . S
H1146 C1166 0.950 . S
H1147 C1167 0.950 . S
H1148 C1169 0.950 . S
H1149 C1172 0.950 . S
H1150 C1173 0.950 . S
H1151 C1175 0.950 . S
H1152 C1176 0.950 . S
H1153 C1177 0.951 . S
H1154 C1179 0.951 . S
H1155 C1181 0.950 . S
H1156 C1182 0.950 . S
H1157 C1184 0.950 . S
H1158 C1187 0.950 . S
H1159 C1188 0.950 . S
H1160 C1190 0.950 . S
H1161 C1191 0.950 . S
C1162 H1144 0.951 . S
C1162 C1163 1.366 . S
C1162 C1164 1.388 . S
C1163 C1162 1.366 . S
C1163 C1167 1.385 . S
C1164 H1145 0.951 . S
C1164 C1162 1.388 . S
C1164 C1165 1.366 . S
C1165 C1164 1.366 . S
C1165 C1166 1.414 . S
C1165 C1168 1.499 . S
C1166 H1146 0.950 . S
C1166 C1165 1.414 . S
C1166 C1167 1.374 . S
C1167 H1147 0.950 . S
C1167 C1163 1.385 . S
C1167 C1166 1.374 . S
C1168 C1165 1.499 . S
C1168 C1169 1.373 . S
C1168 C1170 1.389 . S
C1169 H1148 0.950 . S
C1169 C1168 1.373 . S
C1169 C1185 1.377 . S
C1170 C1168 1.389 . S
C1170 C1171 1.524 . S
C1170 C1184 1.377 . S
C1171 C1170 1.524 . S
C1171 C1172 1.397 . S
C1171 C1176 1.363 . S
C1172 H1149 0.950 . S
C1172 C1171 1.397 . S
C1172 C1173 1.334 . S
C1173 H1150 0.950 . S
C1173 C1172 1.334 . S
C1173 C1174 1.287 . S
C1174 C1173 1.287 . S
C1174 C1175 1.524 . S
C1174 H1193 0.913 . S
C1175 H1151 0.950 . S
C1175 C1174 1.524 . S
C1175 C1176 1.415 . S
C1176 H1152 0.950 . S
C1176 C1171 1.363 . S
C1176 C1175 1.415 . S
C1177 H1153 0.951 . S
C1177 C1178 1.366 . S
C1177 C1179 1.388 . S
C1178 C1177 1.366 . S
C1178 C1182 1.385 . S
C1179 H1154 0.951 . S
C1179 C1177 1.388 . S
C1179 C1180 1.366 . S
C1180 C1179 1.366 . S
C1180 C1181 1.414 . S
C1180 C1183 1.499 . S
C1181 H1155 0.950 . S
C1181 C1180 1.414 . S
C1181 C1182 1.374 . S
C1182 H1156 0.950 . S
C1182 C1178 1.385 . S
C1182 C1181 1.374 . S
C1183 C1180 1.499 . S
C1183 C1184 1.373 . S
C1183 C1185 1.389 . S
C1184 H1157 0.950 . S
C1184 C1170 1.377 . S
C1184 C1183 1.373 . S
C1185 C1169 1.377 . S
C1185 C1183 1.389 . S
C1185 C1186 1.524 . S
C1186 C1185 1.524 . S
C1186 C1187 1.397 . S
C1186 C1191 1.363 . S
C1187 H1158 0.950 . S
C1187 C1186 1.397 . S
C1187 C1188 1.334 . S
C1188 H1159 0.950 . S
C1188 C1187 1.334 . S
C1188 C1189 1.287 . S
C1189 C1188 1.287 . S
C1189 C1190 1.524 . S
C1189 H1192 0.999 . S
C1190 H1160 0.950 . S
C1190 C1189 1.524 . S
C1190 C1191 1.415 . S
C1191 H1161 0.950 . S
C1191 C1186 1.363 . S
C1191 C1190 1.415 . S
H1192 C1189 0.999 . S
H1193 C1174 0.913 . S
H1194 C1212 0.951 . S
H1195 C1214 0.951 . S
H1196 C1216 0.950 . S
H1197 C1217 0.950 . S
H1198 C1219 0.950 . S
H1199 C1222 0.950 . S
H1200 C1223 0.950 . S
H1201 C1225 0.950 . S
H1202 C1226 0.950 . S
H1203 C1227 0.951 . S
H1204 C1229 0.951 . S
H1205 C1231 0.950 . S
H1206 C1232 0.950 . S
H1207 C1234 0.950 . S
H1208 C1237 0.950 . S
H1209 C1238 0.950 . S
H1210 C1240 0.950 . S
H1211 C1241 0.950 . S
C1212 H1194 0.951 . S
C1212 C1213 1.366 . S
C1212 C1214 1.388 . S
C1213 C1212 1.366 . S
C1213 C1217 1.385 . S
C1214 H1195 0.951 . S
C1214 C1212 1.388 . S
C1214 C1215 1.366 . S
C1215 C1214 1.366 . S
C1215 C1216 1.414 . S
C1215 C1218 1.499 . S
C1216 H1196 0.950 . S
C1216 C1215 1.414 . S
C1216 C1217 1.374 . S
C1217 H1197 0.950 . S
C1217 C1213 1.385 . S
C1217 C1216 1.374 . S
C1218 C1215 1.499 . S
C1218 C1219 1.373 . S
C1218 C1220 1.389 . S
C1219 H1198 0.950 . S
C1219 C1218 1.373 . S
C1219 C1235 1.377 . S
C1220 C1218 1.389 . S
C1220 C1221 1.524 . S
C1220 C1234 1.377 . S
C1221 C1220 1.524 . S
C1221 C1222 1.397 . S
C1221 C1226 1.363 . S
C1222 H1199 0.950 . S
C1222 C1221 1.397 . S
C1222 C1223 1.334 . S
C1223 H1200 0.950 . S
C1223 C1222 1.334 . S
C1223 C1224 1.287 . S
C1224 C1223 1.287 . S
C1224 C1225 1.524 . S
C1224 H1243 0.913 . S
C1225 H1201 0.950 . S
C1225 C1224 1.524 . S
C1225 C1226 1.415 . S
C1226 H1202 0.950 . S
C1226 C1221 1.363 . S
C1226 C1225 1.415 . S
C1227 H1203 0.951 . S
C1227 C1228 1.366 . S
C1227 C1229 1.388 . S
C1228 C1227 1.366 . S
C1228 C1232 1.385 . S
C1229 H1204 0.951 . S
C1229 C1227 1.388 . S
C1229 C1230 1.366 . S
C1230 C1229 1.366 . S
C1230 C1231 1.414 . S
C1230 C1233 1.499 . S
C1231 H1205 0.950 . S
C1231 C1230 1.414 . S
C1231 C1232 1.374 . S
C1232 H1206 0.950 . S
C1232 C1228 1.385 . S
C1232 C1231 1.374 . S
C1233 C1230 1.499 . S
C1233 C1234 1.373 . S
C1233 C1235 1.389 . S
C1234 H1207 0.950 . S
C1234 C1220 1.377 . S
C1234 C1233 1.373 . S
C1235 C1219 1.377 . S
C1235 C1233 1.389 . S
C1235 C1236 1.524 . S
C1236 C1235 1.524 . S
C1236 C1237 1.397 . S
C1236 C1241 1.363 . S
C1237 H1208 0.950 . S
C1237 C1236 1.397 . S
C1237 C1238 1.334 . S
C1238 H1209 0.950 . S
C1238 C1237 1.334 . S
C1238 C1239 1.287 . S
C1239 C1238 1.287 . S
C1239 C1240 1.524 . S
C1239 H1242 0.999 . S
C1240 H1210 0.950 . S
C1240 C1239 1.524 . S
C1240 C1241 1.415 . S
C1241 H1211 0.950 . S
C1241 C1236 1.363 . S
C1241 C1240 1.415 . S
H1242 C1239 0.999 . S
H1243 C1224 0.913 . S
H1244 C1262 0.951 . S
H1245 C1264 0.951 . S
H1246 C1266 0.950 . S
H1247 C1267 0.950 . S
H1248 C1269 0.950 . S
H1249 C1272 0.950 . S
H1250 C1273 0.950 . S
H1251 C1275 0.950 . S
H1252 C1276 0.950 . S
H1253 C1277 0.951 . S
H1254 C1279 0.951 . S
H1255 C1281 0.950 . S
H1256 C1282 0.950 . S
H1257 C1284 0.950 . S
H1258 C1287 0.950 . S
H1259 C1288 0.950 . S
H1260 C1290 0.950 . S
H1261 C1291 0.950 . S
C1262 H1244 0.951 . S
C1262 C1263 1.366 . S
C1262 C1264 1.388 . S
C1263 C1262 1.366 . S
C1263 C1267 1.385 . S
C1264 H1245 0.951 . S
C1264 C1262 1.388 . S
C1264 C1265 1.366 . S
C1265 C1264 1.366 . S
C1265 C1266 1.414 . S
C1265 C1268 1.499 . S
C1266 H1246 0.950 . S
C1266 C1265 1.414 . S
C1266 C1267 1.374 . S
C1267 H1247 0.950 . S
C1267 C1263 1.385 . S
C1267 C1266 1.374 . S
C1268 C1265 1.499 . S
C1268 C1269 1.373 . S
C1268 C1270 1.389 . S
C1269 H1248 0.950 . S
C1269 C1268 1.373 . S
C1269 C1285 1.377 . S
C1270 C1268 1.389 . S
C1270 C1271 1.524 . S
C1270 C1284 1.377 . S
C1271 C1270 1.524 . S
C1271 C1272 1.397 . S
C1271 C1276 1.363 . S
C1272 H1249 0.950 . S
C1272 C1271 1.397 . S
C1272 C1273 1.334 . S
C1273 H1250 0.950 . S
C1273 C1272 1.334 . S
C1273 C1274 1.287 . S
C1274 C1273 1.287 . S
C1274 C1275 1.524 . S
C1274 H1293 0.913 . S
C1275 H1251 0.950 . S
C1275 C1274 1.524 . S
C1275 C1276 1.415 . S
C1276 H1252 0.950 . S
C1276 C1271 1.363 . S
C1276 C1275 1.415 . S
C1277 H1253 0.951 . S
C1277 C1278 1.366 . S
C1277 C1279 1.388 . S
C1278 C1277 1.366 . S
C1278 C1282 1.385 . S
C1279 H1254 0.951 . S
C1279 C1277 1.388 . S
C1279 C1280 1.366 . S
C1280 C1279 1.366 . S
C1280 C1281 1.414 . S
C1280 C1283 1.499 . S
C1281 H1255 0.950 . S
C1281 C1280 1.414 . S
C1281 C1282 1.374 . S
C1282 H1256 0.950 . S
C1282 C1278 1.385 . S
C1282 C1281 1.374 . S
C1283 C1280 1.499 . S
C1283 C1284 1.373 . S
C1283 C1285 1.389 . S
C1284 H1257 0.950 . S
C1284 C1270 1.377 . S
C1284 C1283 1.373 . S
C1285 C1269 1.377 . S
C1285 C1283 1.389 . S
C1285 C1286 1.524 . S
C1286 C1285 1.524 . S
C1286 C1287 1.397 . S
C1286 C1291 1.363 . S
C1287 H1258 0.950 . S
C1287 C1286 1.397 . S
C1287 C1288 1.334 . S
C1288 H1259 0.950 . S
C1288 C1287 1.334 . S
C1288 C1289 1.287 . S
C1289 C1288 1.287 . S
C1289 C1290 1.524 . S
C1289 H1292 0.999 . S
C1290 H1260 0.950 . S
C1290 C1289 1.524 . S
C1290 C1291 1.415 . S
C1291 H1261 0.950 . S
C1291 C1286 1.363 . S
C1291 C1290 1.415 . S
H1292 C1289 0.999 . S
H1293 C1274 0.913 . S
H1294 C1312 0.951 . S
H1295 C1314 0.951 . S
H1296 C1316 0.950 . S
H1297 C1317 0.950 . S
H1298 C1319 0.950 . S
H1299 C1322 0.950 . S
H1300 C1323 0.950 . S
H1301 C1325 0.950 . S
H1302 C1326 0.950 . S
H1303 C1327 0.951 . S
H1304 C1329 0.951 . S
H1305 C1331 0.950 . S
H1306 C1332 0.950 . S
H1307 C1334 0.950 . S
H1308 C1337 0.950 . S
H1309 C1338 0.950 . S
H1310 C1340 0.950 . S
H1311 C1341 0.950 . S
C1312 H1294 0.951 . S
C1312 C1313 1.366 . S
C1312 C1314 1.388 . S
C1313 C1312 1.366 . S
C1313 C1317 1.385 . S
C1314 H1295 0.951 . S
C1314 C1312 1.388 . S
C1314 C1315 1.366 . S
C1315 C1314 1.366 . S
C1315 C1316 1.414 . S
C1315 C1318 1.499 . S
C1316 H1296 0.950 . S
C1316 C1315 1.414 . S
C1316 C1317 1.374 . S
C1317 H1297 0.950 . S
C1317 C1313 1.385 . S
C1317 C1316 1.374 . S
C1318 C1315 1.499 . S
C1318 C1319 1.373 . S
C1318 C1320 1.389 . S
C1319 H1298 0.950 . S
C1319 C1318 1.373 . S
C1319 C1335 1.377 . S
C1320 C1318 1.389 . S
C1320 C1321 1.524 . S
C1320 C1334 1.377 . S
C1321 C1320 1.524 . S
C1321 C1322 1.397 . S
C1321 C1326 1.363 . S
C1322 H1299 0.950 . S
C1322 C1321 1.397 . S
C1322 C1323 1.334 . S
C1323 H1300 0.950 . S
C1323 C1322 1.334 . S
C1323 C1324 1.287 . S
C1324 C1323 1.287 . S
C1324 C1325 1.524 . S
C1324 H1343 0.913 . S
C1325 H1301 0.950 . S
C1325 C1324 1.524 . S
C1325 C1326 1.415 . S
C1326 H1302 0.950 . S
C1326 C1321 1.363 . S
C1326 C1325 1.415 . S
C1327 H1303 0.951 . S
C1327 C1328 1.366 . S
C1327 C1329 1.388 . S
C1328 C1327 1.366 . S
C1328 C1332 1.385 . S
C1329 H1304 0.951 . S
C1329 C1327 1.388 . S
C1329 C1330 1.366 . S
C1330 C1329 1.366 . S
C1330 C1331 1.414 . S
C1330 C1333 1.499 . S
C1331 H1305 0.950 . S
C1331 C1330 1.414 . S
C1331 C1332 1.374 . S
C1332 H1306 0.950 . S
C1332 C1328 1.385 . S
C1332 C1331 1.374 . S
C1333 C1330 1.499 . S
C1333 C1334 1.373 . S
C1333 C1335 1.389 . S
C1334 H1307 0.950 . S
C1334 C1320 1.377 . S
C1334 C1333 1.373 . S
C1335 C1319 1.377 . S
C1335 C1333 1.389 . S
C1335 C1336 1.524 . S
C1336 C1335 1.524 . S
C1336 C1337 1.397 . S
C1336 C1341 1.363 . S
C1337 H1308 0.950 . S
C1337 C1336 1.397 . S
C1337 C1338 1.334 . S
C1338 H1309 0.950 . S
C1338 C1337 1.334 . S
C1338 C1339 1.287 . S
C1339 C1338 1.287 . S
C1339 C1340 1.524 . S
C1339 H1342 0.999 . S
C1340 H1310 0.950 . S
C1340 C1339 1.524 . S
C1340 C1341 1.415 . S
C1341 H1311 0.950 . S
C1341 C1336 1.363 . S
C1341 C1340 1.415 . S
H1342 C1339 0.999 . S
H1343 C1324 0.913 . S
H1344 C1362 0.951 . S
H1345 C1364 0.951 . S
H1346 C1366 0.950 . S
H1347 C1367 0.950 . S
H1348 C1369 0.950 . S
H1349 C1372 0.950 . S
H1350 C1373 0.950 . S
H1351 C1375 0.950 . S
H1352 C1376 0.950 . S
H1353 C1377 0.951 . S
H1354 C1379 0.951 . S
H1355 C1381 0.950 . S
H1356 C1382 0.950 . S
H1357 C1384 0.950 . S
H1358 C1387 0.950 . S
H1359 C1388 0.950 . S
H1360 C1390 0.950 . S
H1361 C1391 0.950 . S
C1362 H1344 0.951 . S
C1362 C1363 1.366 . S
C1362 C1364 1.388 . S
C1363 C1362 1.366 . S
C1363 C1367 1.385 . S
C1364 H1345 0.951 . S
C1364 C1362 1.388 . S
C1364 C1365 1.366 . S
C1365 C1364 1.366 . S
C1365 C1366 1.414 . S
C1365 C1368 1.499 . S
C1366 H1346 0.950 . S
C1366 C1365 1.414 . S
C1366 C1367 1.374 . S
C1367 H1347 0.950 . S
C1367 C1363 1.385 . S
C1367 C1366 1.374 . S
C1368 C1365 1.499 . S
C1368 C1369 1.373 . S
C1368 C1370 1.389 . S
C1369 H1348 0.950 . S
C1369 C1368 1.373 . S
C1369 C1385 1.377 . S
C1370 C1368 1.389 . S
C1370 C1371 1.524 . S
C1370 C1384 1.377 . S
C1371 C1370 1.524 . S
C1371 C1372 1.397 . S
C1371 C1376 1.363 . S
C1372 H1349 0.950 . S
C1372 C1371 1.397 . S
C1372 C1373 1.334 . S
C1373 H1350 0.950 . S
C1373 C1372 1.334 . S
C1373 C1374 1.287 . S
C1374 C1373 1.287 . S
C1374 C1375 1.524 . S
C1374 H1393 0.913 . S
C1375 H1351 0.950 . S
C1375 C1374 1.524 . S
C1375 C1376 1.415 . S
C1376 H1352 0.950 . S
C1376 C1371 1.363 . S
C1376 C1375 1.415 . S
C1377 H1353 0.951 . S
C1377 C1378 1.366 . S
C1377 C1379 1.388 . S
C1378 C1377 1.366 . S
C1378 C1382 1.385 . S
C1379 H1354 0.951 . S
C1379 C1377 1.388 . S
C1379 C1380 1.366 . S
C1380 C1379 1.366 . S
C1380 C1381 1.414 . S
C1380 C1383 1.499 . S
C1381 H1355 0.950 . S
C1381 C1380 1.414 . S
C1381 C1382 1.374 . S
C1382 H1356 0.950 . S
C1382 C1378 1.385 . S
C1382 C1381 1.374 . S
C1383 C1380 1.499 . S
C1383 C1384 1.373 . S
C1383 C1385 1.389 . S
C1384 H1357 0.950 . S
C1384 C1370 1.377 . S
C1384 C1383 1.373 . S
C1385 C1369 1.377 . S
C1385 C1383 1.389 . S
C1385 C1386 1.524 . S
C1386 C1385 1.524 . S
C1386 C1387 1.397 . S
C1386 C1391 1.363 . S
C1387 H1358 0.950 . S
C1387 C1386 1.397 . S
C1387 C1388 1.334 . S
C1388 H1359 0.950 . S
C1388 C1387 1.334 . S
C1388 C1389 1.287 . S
C1389 C1388 1.287 . S
C1389 C1390 1.524 . S
C1389 H1392 0.999 . S
C1390 H1360 0.950 . S
C1390 C1389 1.524 . S
C1390 C1391 1.415 . S
C1391 H1361 0.950 . S
C1391 C1386 1.363 . S
C1391 C1390 1.415 . S
H1392 C1389 0.999 . S
H1393 C1374 0.913 . S
H1394 C1412 0.951 . S
H1395 C1414 0.951 . S
H1396 C1416 0.950 . S
H1397 C1417 0.950 . S
H1398 C1419 0.950 . S
H1399 C1422 0.950 1_455 S
H1400 C1423 0.950 . S
H1401 C1425 0.950 . S
H1402 C1426 0.950 . S
H1403 C1427 0.951 . S
H1404 C1429 0.951 . S
H1405 C1431 0.950 . S
H1406 C1432 0.950 . S
H1407 C1434 0.950 . S
H1408 C1437 0.950 . S
H1409 C1438 0.950 . S
H1410 C1440 0.950 . S
H1411 C1441 0.950 . S
C1412 H1394 0.951 . S
C1412 C1413 1.366 . S
C1412 C1414 1.388 . S
C1413 C1412 1.366 . S
C1413 C1417 1.385 . S
C1414 H1395 0.951 . S
C1414 C1412 1.388 . S
C1414 C1415 1.366 . S
C1415 C1414 1.366 . S
C1415 C1416 1.414 . S
C1415 C1418 1.499 . S
C1416 H1396 0.950 . S
C1416 C1415 1.414 . S
C1416 C1417 1.374 . S
C1417 H1397 0.950 . S
C1417 C1413 1.385 . S
C1417 C1416 1.374 . S
C1418 C1415 1.499 . S
C1418 C1419 1.373 . S
C1418 C1420 1.389 . S
C1419 H1398 0.950 . S
C1419 C1418 1.373 . S
C1419 C1435 1.377 . S
C1420 C1418 1.389 . S
C1420 C1421 1.524 . S
C1420 C1434 1.377 . S
C1421 C1420 1.524 . S
C1421 C1422 1.397 1_455 S
C1421 C1426 1.363 1_455 S
C1422 H1399 0.950 1_655 S
C1422 C1421 1.397 1_655 S
C1422 C1423 1.334 . S
C1423 H1400 0.950 . S
C1423 C1422 1.334 . S
C1423 C1424 1.287 . S
C1424 C1423 1.287 . S
C1424 C1425 1.524 . S
C1424 H1443 0.913 . S
C1425 H1401 0.950 . S
C1425 C1424 1.524 . S
C1425 C1426 1.415 . S
C1426 H1402 0.950 . S
C1426 C1421 1.363 1_655 S
C1426 C1425 1.415 . S
C1427 H1403 0.951 . S
C1427 C1428 1.366 . S
C1427 C1429 1.388 . S
C1428 C1427 1.366 . S
C1428 C1432 1.385 . S
C1429 H1404 0.951 . S
C1429 C1427 1.388 . S
C1429 C1430 1.366 . S
C1430 C1429 1.366 . S
C1430 C1431 1.414 . S
C1430 C1433 1.499 . S
C1431 H1405 0.950 . S
C1431 C1430 1.414 . S
C1431 C1432 1.374 . S
C1432 H1406 0.950 . S
C1432 C1428 1.385 . S
C1432 C1431 1.374 . S
C1433 C1430 1.499 . S
C1433 C1434 1.373 . S
C1433 C1435 1.389 . S
C1434 H1407 0.950 . S
C1434 C1420 1.377 . S
C1434 C1433 1.373 . S
C1435 C1419 1.377 . S
C1435 C1433 1.389 . S
C1435 C1436 1.524 . S
C1436 C1435 1.524 . S
C1436 C1437 1.397 . S
C1436 C1441 1.363 . S
C1437 H1408 0.950 . S
C1437 C1436 1.397 . S
C1437 C1438 1.334 . S
C1438 H1409 0.950 . S
C1438 C1437 1.334 . S
C1438 C1439 1.287 . S
C1439 C1438 1.287 . S
C1439 C1440 1.524 . S
C1439 H1442 0.999 . S
C1440 H1410 0.950 . S
C1440 C1439 1.524 . S
C1440 C1441 1.415 . S
C1441 H1411 0.950 . S
C1441 C1436 1.363 . S
C1441 C1440 1.415 . S
H1442 C1439 0.999 . S
H1443 C1424 0.913 . S
H1444 C1462 0.951 . S
H1445 C1464 0.951 . S
H1446 C1466 0.950 . S
H1447 C1467 0.950 . S
H1448 C1469 0.950 . S
H1449 C1472 0.950 . S
H1450 C1473 0.950 . S
H1451 C1475 0.950 . S
H1452 C1476 0.950 . S
H1453 C1477 0.951 . S
H1454 C1479 0.951 . S
H1455 C1481 0.950 . S
H1456 C1482 0.950 . S
H1457 C1484 0.950 . S
H1458 C1487 0.950 . S
H1459 C1488 0.950 . S
H1460 C1490 0.950 . S
H1461 C1491 0.950 . S
C1462 H1444 0.951 . S
C1462 C1463 1.366 . S
C1462 C1464 1.388 . S
C1463 C1462 1.366 . S
C1463 C1467 1.385 . S
C1464 H1445 0.951 . S
C1464 C1462 1.388 . S
C1464 C1465 1.366 . S
C1465 C1464 1.366 . S
C1465 C1466 1.414 . S
C1465 C1468 1.499 . S
C1466 H1446 0.950 . S
C1466 C1465 1.414 . S
C1466 C1467 1.374 . S
C1467 H1447 0.950 . S
C1467 C1463 1.385 . S
C1467 C1466 1.374 . S
C1468 C1465 1.499 . S
C1468 C1469 1.373 . S
C1468 C1470 1.389 . S
C1469 H1448 0.950 . S
C1469 C1468 1.373 . S
C1469 C1485 1.377 . S
C1470 C1468 1.389 . S
C1470 C1471 1.524 . S
C1470 C1484 1.377 . S
C1471 C1470 1.524 . S
C1471 C1472 1.397 . S
C1471 C1476 1.363 . S
C1472 H1449 0.950 . S
C1472 C1471 1.397 . S
C1472 C1473 1.334 . S
C1473 H1450 0.950 . S
C1473 C1472 1.334 . S
C1473 C1474 1.287 . S
C1474 C1473 1.287 . S
C1474 C1475 1.524 . S
C1474 H1493 0.913 . S
C1475 H1451 0.950 . S
C1475 C1474 1.524 . S
C1475 C1476 1.415 . S
C1476 H1452 0.950 . S
C1476 C1471 1.363 . S
C1476 C1475 1.415 . S
C1477 H1453 0.951 . S
C1477 C1478 1.366 . S
C1477 C1479 1.388 . S
C1478 C1477 1.366 . S
C1478 C1482 1.385 . S
C1479 H1454 0.951 . S
C1479 C1477 1.388 . S
C1479 C1480 1.366 . S
C1480 C1479 1.366 . S
C1480 C1481 1.414 . S
C1480 C1483 1.499 . S
C1481 H1455 0.950 . S
C1481 C1480 1.414 . S
C1481 C1482 1.374 . S
C1482 H1456 0.950 . S
C1482 C1478 1.385 . S
C1482 C1481 1.374 . S
C1483 C1480 1.499 . S
C1483 C1484 1.373 . S
C1483 C1485 1.389 . S
C1484 H1457 0.950 . S
C1484 C1470 1.377 . S
C1484 C1483 1.373 . S
C1485 C1469 1.377 . S
C1485 C1483 1.389 . S
C1485 C1486 1.524 . S
C1486 C1485 1.524 . S
C1486 C1487 1.397 . S
C1486 C1491 1.363 . S
C1487 H1458 0.950 . S
C1487 C1486 1.397 . S
C1487 C1488 1.334 . S
C1488 H1459 0.950 . S
C1488 C1487 1.334 . S
C1488 C1489 1.287 . S
C1489 C1488 1.287 . S
C1489 C1490 1.524 . S
C1489 H1492 0.999 . S
C1490 H1460 0.950 . S
C1490 C1489 1.524 . S
C1490 C1491 1.415 . S
C1491 H1461 0.950 . S
C1491 C1486 1.363 . S
C1491 C1490 1.415 . S
H1492 C1489 0.999 . S
H1493 C1474 0.913 . S
H1494 C1512 0.951 . S
H1495 C1514 0.951 . S
H1496 C1516 0.950 . S
H1497 C1517 0.950 . S
H1498 C1519 0.950 . S
H1499 C1522 0.950 . S
H1500 C1523 0.950 . S
H1501 C1525 0.950 . S
H1502 C1526 0.950 . S
H1503 C1527 0.951 . S
H1504 C1529 0.951 . S
H1505 C1531 0.956 . S
H1506 C1532 0.946 1_455 S
H1507 C1534 0.950 1_455 S
H1508 C1537 0.950 . S
H1509 C1538 0.950 . S
H1510 C1540 0.950 . S
H1511 C1541 0.950 . S
C1512 H1494 0.951 . S
C1512 C1513 1.366 . S
C1512 C1514 1.388 . S
C1513 C1512 1.366 . S
C1513 C1517 1.385 . S
C1514 H1495 0.951 . S
C1514 C1512 1.388 . S
C1514 C1515 1.366 . S
C1515 C1514 1.366 . S
C1515 C1516 1.414 . S
C1515 C1518 1.499 . S
C1516 H1496 0.950 . S
C1516 C1515 1.414 . S
C1516 C1517 1.374 . S
C1517 H1497 0.950 . S
C1517 C1513 1.385 . S
C1517 C1516 1.374 . S
C1518 C1515 1.499 . S
C1518 C1519 1.373 . S
C1518 C1520 1.389 . S
C1519 H1498 0.950 . S
C1519 C1518 1.373 . S
C1519 C1535 1.377 . S
C1520 C1518 1.389 . S
C1520 C1521 1.524 1_655 S
C1520 C1534 1.377 . S
C1521 C1520 1.524 1_455 S
C1521 C1522 1.397 . S
C1521 C1526 1.363 . S
C1522 H1499 0.950 . S
C1522 C1521 1.397 . S
C1522 C1523 1.334 . S
C1523 H1500 0.950 . S
C1523 C1522 1.334 . S
C1523 C1524 1.287 . S
C1524 C1523 1.287 . S
C1524 C1525 1.524 . S
C1524 H1543 0.913 . S
C1525 H1501 0.950 . S
C1525 C1524 1.524 . S
C1525 C1526 1.415 . S
C1526 H1502 0.950 . S
C1526 C1521 1.363 . S
C1526 C1525 1.415 . S
C1527 H1503 0.951 . S
C1527 C1528 1.366 . S
C1527 C1529 1.388 . S
C1528 C1527 1.366 . S
C1528 C1532 1.387 . S
C1529 H1504 0.951 . S
C1529 C1527 1.388 . S
C1529 C1530 1.366 . S
C1530 C1529 1.366 . S
C1530 C1531 1.414 . S
C1530 C1533 1.499 . S
C1531 H1505 0.956 . S
C1531 C1530 1.414 . S
C1531 C1532 1.376 . S
C1532 H1506 0.946 1_655 S
C1532 C1528 1.387 . S
C1532 C1531 1.376 . S
C1533 C1530 1.499 . S
C1533 C1534 1.373 . S
C1533 C1535 1.389 . S
C1534 H1507 0.950 1_655 S
C1534 C1520 1.377 . S
C1534 C1533 1.373 . S
C1535 C1519 1.377 . S
C1535 C1533 1.389 . S
C1535 C1536 1.524 . S
C1536 C1535 1.524 . S
C1536 C1537 1.397 . S
C1536 C1541 1.363 . S
C1537 H1508 0.950 . S
C1537 C1536 1.397 . S
C1537 C1538 1.334 . S
C1538 H1509 0.950 . S
C1538 C1537 1.334 . S
C1538 C1539 1.287 . S
C1539 C1538 1.287 . S
C1539 C1540 1.524 . S
C1539 H1542 0.999 . S
C1540 H1510 0.950 . S
C1540 C1539 1.524 . S
C1540 C1541 1.415 . S
C1541 H1511 0.950 . S
C1541 C1536 1.363 . S
C1541 C1540 1.415 . S
H1542 C1539 0.999 . S
H1543 C1524 0.913 . S
H1544 C1562 0.951 . S
H1545 C1564 0.951 . S
H1546 C1566 0.950 . S
H1547 C1567 0.950 . S
H1548 C1569 0.950 . S
H1549 C1572 0.950 . S
H1550 C1573 0.950 . S
H1551 C1575 0.950 . S
H1552 C1576 0.950 . S
H1553 C1577 0.951 . S
H1554 C1579 0.951 . S
H1555 C1581 0.950 . S
H1556 C1582 0.950 . S
H1557 C1584 0.950 . S
H1558 C1587 0.950 . S
H1559 C1588 0.950 . S
H1560 C1590 0.950 . S
H1561 C1591 0.950 . S
C1562 H1544 0.951 . S
C1562 C1563 1.366 . S
C1562 C1564 1.388 . S
C1563 C1562 1.366 . S
C1563 C1567 1.385 . S
C1564 H1545 0.951 . S
C1564 C1562 1.388 . S
C1564 C1565 1.366 . S
C1565 C1564 1.366 . S
C1565 C1566 1.414 . S
C1565 C1568 1.499 . S
C1566 H1546 0.950 . S
C1566 C1565 1.414 . S
C1566 C1567 1.374 . S
C1567 H1547 0.950 . S
C1567 C1563 1.385 . S
C1567 C1566 1.374 . S
C1568 C1565 1.499 . S
C1568 C1569 1.373 . S
C1568 C1570 1.389 . S
C1569 H1548 0.950 . S
C1569 C1568 1.373 . S
C1569 C1585 1.377 . S
C1570 C1568 1.389 . S
C1570 C1571 1.524 . S
C1570 C1584 1.377 . S
C1571 C1570 1.524 . S
C1571 C1572 1.397 . S
C1571 C1576 1.363 . S
C1572 H1549 0.950 . S
C1572 C1571 1.397 . S
C1572 C1573 1.334 . S
C1573 H1550 0.950 . S
C1573 C1572 1.334 . S
C1573 C1574 1.287 . S
C1574 C1573 1.287 . S
C1574 C1575 1.524 . S
C1574 H1593 0.913 . S
C1575 H1551 0.950 . S
C1575 C1574 1.524 . S
C1575 C1576 1.415 . S
C1576 H1552 0.950 . S
C1576 C1571 1.363 . S
C1576 C1575 1.415 . S
C1577 H1553 0.951 . S
C1577 C1578 1.366 . S
C1577 C1579 1.388 . S
C1578 C1577 1.366 . S
C1578 C1582 1.385 . S
C1579 H1554 0.951 . S
C1579 C1577 1.388 . S
C1579 C1580 1.366 . S
C1580 C1579 1.366 . S
C1580 C1581 1.414 . S
C1580 C1583 1.499 . S
C1581 H1555 0.950 . S
C1581 C1580 1.414 . S
C1581 C1582 1.374 . S
C1582 H1556 0.950 . S
C1582 C1578 1.385 . S
C1582 C1581 1.374 . S
C1583 C1580 1.499 . S
C1583 C1584 1.373 . S
C1583 C1585 1.389 . S
C1584 H1557 0.950 . S
C1584 C1570 1.377 . S
C1584 C1583 1.373 . S
C1585 C1569 1.377 . S
C1585 C1583 1.389 . S
C1585 C1586 1.524 . S
C1586 C1585 1.524 . S
C1586 C1587 1.397 . S
C1586 C1591 1.363 . S
C1587 H1558 0.950 . S
C1587 C1586 1.397 . S
C1587 C1588 1.334 . S
C1588 H1559 0.950 . S
C1588 C1587 1.334 . S
C1588 C1589 1.287 . S
C1589 C1588 1.287 . S
C1589 C1590 1.524 . S
C1589 H1592 0.999 . S
C1590 H1560 0.950 . S
C1590 C1589 1.524 . S
C1590 C1591 1.415 . S
C1591 H1561 0.950 . S
C1591 C1586 1.363 . S
C1591 C1590 1.415 . S
H1592 C1589 0.999 . S
H1593 C1574 0.913 . S
H1594 C1612 0.951 . S
H1595 C1614 0.951 . S
H1596 C1616 0.950 . S
H1597 C1617 0.950 . S
H1598 C1619 0.950 . S
H1599 C1622 0.950 . S
H1600 C1623 0.950 . S
H1601 C1625 0.950 . S
H1602 C1626 0.950 . S
H1603 C1627 0.951 . S
H1604 C1629 0.951 . S
H1605 C1631 0.950 . S
H1606 C1632 0.950 . S
H1607 C1634 0.950 . S
H1608 C1637 0.950 . S
H1609 C1638 0.950 . S
H1610 C1640 0.950 . S
H1611 C1641 0.950 . S
C1612 H1594 0.951 . S
C1612 C1613 1.366 . S
C1612 C1614 1.388 . S
C1613 C1612 1.366 . S
C1613 C1617 1.385 . S
C1614 H1595 0.951 . S
C1614 C1612 1.388 . S
C1614 C1615 1.366 . S
C1615 C1614 1.366 . S
C1615 C1616 1.414 . S
C1615 C1618 1.499 . S
C1616 H1596 0.950 . S
C1616 C1615 1.414 . S
C1616 C1617 1.374 . S
C1617 H1597 0.950 . S
C1617 C1613 1.385 . S
C1617 C1616 1.374 . S
C1618 C1615 1.499 . S
C1618 C1619 1.373 . S
C1618 C1620 1.389 . S
C1619 H1598 0.950 . S
C1619 C1618 1.373 . S
C1619 C1635 1.377 . S
C1620 C1618 1.389 . S
C1620 C1621 1.524 . S
C1620 C1634 1.377 . S
C1621 C1620 1.524 . S
C1621 C1622 1.397 . S
C1621 C1626 1.363 . S
C1622 H1599 0.950 . S
C1622 C1621 1.397 . S
C1622 C1623 1.334 . S
C1623 H1600 0.950 . S
C1623 C1622 1.334 . S
C1623 C1624 1.287 . S
C1624 C1623 1.287 . S
C1624 C1625 1.524 . S
C1624 H1643 0.913 . S
C1625 H1601 0.950 . S
C1625 C1624 1.524 . S
C1625 C1626 1.415 . S
C1626 H1602 0.950 . S
C1626 C1621 1.363 . S
C1626 C1625 1.415 . S
C1627 H1603 0.951 . S
C1627 C1628 1.366 . S
C1627 C1629 1.388 . S
C1628 C1627 1.366 . S
C1628 C1632 1.385 . S
C1629 H1604 0.951 . S
C1629 C1627 1.388 . S
C1629 C1630 1.366 . S
C1630 C1629 1.366 . S
C1630 C1631 1.414 . S
C1630 C1633 1.499 . S
C1631 H1605 0.950 . S
C1631 C1630 1.414 . S
C1631 C1632 1.374 . S
C1632 H1606 0.950 . S
C1632 C1628 1.385 . S
C1632 C1631 1.374 . S
C1633 C1630 1.499 . S
C1633 C1634 1.373 . S
C1633 C1635 1.389 . S
C1634 H1607 0.950 . S
C1634 C1620 1.377 . S
C1634 C1633 1.373 . S
C1635 C1619 1.377 . S
C1635 C1633 1.389 . S
C1635 C1636 1.524 . S
C1636 C1635 1.524 . S
C1636 C1637 1.397 . S
C1636 C1641 1.363 . S
C1637 H1608 0.950 . S
C1637 C1636 1.397 . S
C1637 C1638 1.334 . S
C1638 H1609 0.950 . S
C1638 C1637 1.334 . S
C1638 C1639 1.287 . S
C1639 C1638 1.287 . S
C1639 C1640 1.524 . S
C1639 H1642 0.999 . S
C1640 H1610 0.950 . S
C1640 C1639 1.524 . S
C1640 C1641 1.415 . S
C1641 H1611 0.950 . S
C1641 C1636 1.363 . S
C1641 C1640 1.415 . S
H1642 C1639 0.999 . S
H1643 C1624 0.913 . S
H1644 C1662 0.951 . S
H1645 C1664 0.951 . S
H1646 C1666 0.950 . S
H1647 C1667 0.950 . S
H1648 C1669 0.950 . S
H1649 C1672 0.950 . S
H1650 C1673 0.950 1_554 S
H1651 C1675 0.950 . S
H1652 C1676 0.950 . S
H1653 C1677 0.951 1_554 S
H1654 C1679 0.952 . S
H1655 C1681 0.950 . S
H1656 C1682 0.950 . S
H1657 C1684 0.950 . S
H1658 C1687 0.950 . S
H1659 C1688 0.950 . S
H1660 C1690 0.950 . S
H1661 C1691 0.950 . S
C1662 H1644 0.951 . S
C1662 C1663 1.369 . S
C1662 C1664 1.388 1_545 S
C1663 C1662 1.369 . S
C1663 C1667 1.364 1_545 S
C1664 H1645 0.951 . S
C1664 C1662 1.388 1_565 S
C1664 C1665 1.366 . S
C1665 C1664 1.366 . S
C1665 C1666 1.414 . S
C1665 C1668 1.499 . S
C1666 H1646 0.950 . S
C1666 C1665 1.414 . S
C1666 C1667 1.374 . S
C1667 H1647 0.950 . S
C1667 C1663 1.364 1_565 S
C1667 C1666 1.374 . S
C1668 C1665 1.499 . S
C1668 C1669 1.373 . S
C1668 C1670 1.389 . S
C1669 H1648 0.950 . S
C1669 C1668 1.373 . S
C1669 C1685 1.377 . S
C1670 C1668 1.389 . S
C1670 C1671 1.524 . S
C1670 C1684 1.377 . S
C1671 C1670 1.524 . S
C1671 C1672 1.397 . S
C1671 C1676 1.363 . S
C1672 H1649 0.950 . S
C1672 C1671 1.397 . S
C1672 C1673 1.334 1_565 S
C1673 H1650 0.950 1_556 S
C1673 C1672 1.334 1_545 S
C1673 C1674 1.287 . S
C1674 C1673 1.287 . S
C1674 C1675 1.524 . S
C1674 H1693 0.913 . S
C1675 H1651 0.950 . S
C1675 C1674 1.524 . S
C1675 C1676 1.415 1_545 S
C1676 H1652 0.950 . S
C1676 C1671 1.363 . S
C1676 C1675 1.415 1_565 S
C1677 H1653 0.951 1_556 S
C1677 C1678 1.366 . S
C1677 C1679 1.388 . S
C1678 C1677 1.366 . S
C1678 C1682 1.385 . S
C1679 H1654 0.952 . S
C1679 C1677 1.388 . S
C1679 C1680 1.366 . S
C1680 C1679 1.366 . S
C1680 C1681 1.414 . S
C1680 C1683 1.499 . S
C1681 H1655 0.950 . S
C1681 C1680 1.414 . S
C1681 C1682 1.374 . S
C1682 H1656 0.950 . S
C1682 C1678 1.385 . S
C1682 C1681 1.374 . S
C1683 C1680 1.499 . S
C1683 C1684 1.373 . S
C1683 C1685 1.389 . S
C1684 H1657 0.950 . S
C1684 C1670 1.377 . S
C1684 C1683 1.373 . S
C1685 C1669 1.377 . S
C1685 C1683 1.389 . S
C1685 C1686 1.524 . S
C1686 C1685 1.524 . S
C1686 C1687 1.397 . S
C1686 C1691 1.363 . S
C1687 H1658 0.950 . S
C1687 C1686 1.397 . S
C1687 C1688 1.334 . S
C1688 H1659 0.950 . S
C1688 C1687 1.334 . S
C1688 C1689 1.287 . S
C1689 C1688 1.287 . S
C1689 C1690 1.524 . S
C1689 H1692 0.999 . S
C1690 H1660 0.950 . S
C1690 C1689 1.524 . S
C1690 C1691 1.415 . S
C1691 H1661 0.950 . S
C1691 C1686 1.363 . S
C1691 C1690 1.415 . S
H1692 C1689 0.999 . S
H1693 C1674 0.913 . S
H1694 C1712 0.951 . S
H1695 C1714 0.951 . S
H1696 C1716 0.950 . S
H1697 C1717 0.950 . S
H1698 C1719 0.950 . S
H1699 C1722 0.950 . S
H1700 C1723 0.950 . S
H1701 C1725 0.950 . S
H1702 C1726 0.950 . S
H1703 C1727 0.951 . S
H1704 C1729 0.951 . S
H1705 C1731 0.950 . S
H1706 C1732 0.950 . S
H1707 C1734 0.950 . S
H1708 C1737 0.950 . S
H1709 C1738 0.950 . S
H1710 C1740 0.950 . S
H1711 C1741 0.950 . S
C1712 H1694 0.951 . S
C1712 C1713 1.366 . S
C1712 C1714 1.388 . S
C1713 C1712 1.366 . S
C1713 C1717 1.385 . S
C1714 H1695 0.951 . S
C1714 C1712 1.388 . S
C1714 C1715 1.366 . S
C1715 C1714 1.366 . S
C1715 C1716 1.414 . S
C1715 C1718 1.499 . S
C1716 H1696 0.950 . S
C1716 C1715 1.414 . S
C1716 C1717 1.374 . S
C1717 H1697 0.950 . S
C1717 C1713 1.385 . S
C1717 C1716 1.374 . S
C1718 C1715 1.499 . S
C1718 C1719 1.373 . S
C1718 C1720 1.389 . S
C1719 H1698 0.950 . S
C1719 C1718 1.373 . S
C1719 C1735 1.377 . S
C1720 C1718 1.389 . S
C1720 C1721 1.524 . S
C1720 C1734 1.377 . S
C1721 C1720 1.524 . S
C1721 C1722 1.397 . S
C1721 C1726 1.363 . S
C1722 H1699 0.950 . S
C1722 C1721 1.397 . S
C1722 C1723 1.334 . S
C1723 H1700 0.950 . S
C1723 C1722 1.334 . S
C1723 C1724 1.287 . S
C1724 C1723 1.287 . S
C1724 C1725 1.524 . S
C1724 H1743 0.913 . S
C1725 H1701 0.950 . S
C1725 C1724 1.524 . S
C1725 C1726 1.415 . S
C1726 H1702 0.950 . S
C1726 C1721 1.363 . S
C1726 C1725 1.415 . S
C1727 H1703 0.951 . S
C1727 C1728 1.366 . S
C1727 C1729 1.388 . S
C1728 C1727 1.366 . S
C1728 C1732 1.385 . S
C1729 H1704 0.951 . S
C1729 C1727 1.388 . S
C1729 C1730 1.366 . S
C1730 C1729 1.366 . S
C1730 C1731 1.414 . S
C1730 C1733 1.499 . S
C1731 H1705 0.950 . S
C1731 C1730 1.414 . S
C1731 C1732 1.374 . S
C1732 H1706 0.950 . S
C1732 C1728 1.385 . S
C1732 C1731 1.374 . S
C1733 C1730 1.499 . S
C1733 C1734 1.373 . S
C1733 C1735 1.389 . S
C1734 H1707 0.950 . S
C1734 C1720 1.377 . S
C1734 C1733 1.373 . S
C1735 C1719 1.377 . S
C1735 C1733 1.389 . S
C1735 C1736 1.524 . S
C1736 C1735 1.524 . S
C1736 C1737 1.397 . S
C1736 C1741 1.363 . S
C1737 H1708 0.950 . S
C1737 C1736 1.397 . S
C1737 C1738 1.334 . S
C1738 H1709 0.950 . S
C1738 C1737 1.334 . S
C1738 C1739 1.287 . S
C1739 C1738 1.287 . S
C1739 C1740 1.524 . S
C1739 H1742 0.999 . S
C1740 H1710 0.950 . S
C1740 C1739 1.524 . S
C1740 C1741 1.415 . S
C1741 H1711 0.950 . S
C1741 C1736 1.363 . S
C1741 C1740 1.415 . S
H1742 C1739 0.999 . S
H1743 C1724 0.913 . S
H1744 C1762 0.951 . S
H1745 C1764 0.951 . S
H1746 C1766 0.950 . S
H1747 C1767 0.950 . S
H1748 C1769 0.950 . S
H1749 C1772 0.950 . S
H1750 C1773 0.950 . S
H1751 C1775 0.935 1_565 S
H1752 C1776 0.950 . S
H1753 C1777 0.951 . S
H1754 C1779 0.951 . S
H1755 C1781 0.950 . S
H1756 C1782 0.950 . S
H1757 C1784 0.950 . S
H1758 C1787 0.950 . S
H1759 C1788 0.950 . S
H1760 C1790 0.950 . S
H1761 C1791 0.950 . S
C1762 H1744 0.951 . S
C1762 C1763 1.366 1_565 S
C1762 C1764 1.388 1_565 S
C1763 C1762 1.366 1_545 S
C1763 C1767 1.385 . S
C1764 H1745 0.951 . S
C1764 C1762 1.388 1_545 S
C1764 C1765 1.366 . S
C1765 C1764 1.366 . S
C1765 C1766 1.414 . S
C1765 C1768 1.499 . S
C1766 H1746 0.950 . S
C1766 C1765 1.414 . S
C1766 C1767 1.374 . S
C1767 H1747 0.950 . S
C1767 C1763 1.385 . S
C1767 C1766 1.374 . S
C1768 C1765 1.499 . S
C1768 C1769 1.373 . S
C1768 C1770 1.389 . S
C1769 H1748 0.950 . S
C1769 C1768 1.373 . S
C1769 C1785 1.377 . S
C1770 C1768 1.389 . S
C1770 C1771 1.524 . S
C1770 C1784 1.377 . S
C1771 C1770 1.524 . S
C1771 C1772 1.397 . S
C1771 C1776 1.363 . S
C1772 H1749 0.950 . S
C1772 C1771 1.397 . S
C1772 C1773 1.334 . S
C1773 H1750 0.950 . S
C1773 C1772 1.334 . S
C1773 C1774 1.287 . S
C1774 C1773 1.287 . S
C1774 C1775 1.524 . S
C1774 H1793 0.908 1_545 S
C1775 H1751 0.935 1_545 S
C1775 C1774 1.524 . S
C1775 C1776 1.415 . S
C1776 H1752 0.950 . S
C1776 C1771 1.363 . S
C1776 C1775 1.415 . S
C1777 H1753 0.951 . S
C1777 C1778 1.366 . S
C1777 C1779 1.388 . S
C1778 C1777 1.366 . S
C1778 C1782 1.385 . S
C1779 H1754 0.951 . S
C1779 C1777 1.388 . S
C1779 C1780 1.366 . S
C1780 C1779 1.366 . S
C1780 C1781 1.414 . S
C1780 C1783 1.499 . S
C1781 H1755 0.950 . S
C1781 C1780 1.414 . S
C1781 C1782 1.374 . S
C1782 H1756 0.950 . S
C1782 C1778 1.385 . S
C1782 C1781 1.374 . S
C1783 C1780 1.499 . S
C1783 C1784 1.373 . S
C1783 C1785 1.389 . S
C1784 H1757 0.950 . S
C1784 C1770 1.377 . S
C1784 C1783 1.373 . S
C1785 C1769 1.377 . S
C1785 C1783 1.389 . S
C1785 C1786 1.524 . S
C1786 C1785 1.524 . S
C1786 C1787 1.397 . S
C1786 C1791 1.363 . S
C1787 H1758 0.950 . S
C1787 C1786 1.397 . S
C1787 C1788 1.334 . S
C1788 H1759 0.950 . S
C1788 C1787 1.334 . S
C1788 C1789 1.287 . S
C1789 C1788 1.287 . S
C1789 C1790 1.524 . S
C1789 H1792 0.999 . S
C1790 H1760 0.950 . S
C1790 C1789 1.524 . S
C1790 C1791 1.415 . S
C1791 H1761 0.950 . S
C1791 C1786 1.363 . S
C1791 C1790 1.415 . S
H1792 C1789 0.999 . S
H1793 C1774 0.908 1_565 S
H1794 C1812 0.951 . S
H1795 C1814 0.951 . S
H1796 C1816 0.950 . S
H1797 C1817 0.950 . S
H1798 C1819 0.950 . S
H1799 C1822 0.950 . S
H1800 C1823 0.950 . S
H1801 C1825 0.950 . S
H1802 C1826 0.950 . S
H1803 C1827 0.951 . S
H1804 C1829 0.951 . S
H1805 C1831 0.950 . S
H1806 C1832 0.950 . S
H1807 C1834 0.950 . S
H1808 C1837 0.950 . S
H1809 C1838 0.950 . S
H1810 C1840 0.950 . S
H1811 C1841 0.950 . S
C1812 H1794 0.951 . S
C1812 C1813 1.366 . S
C1812 C1814 1.388 . S
C1813 C1812 1.366 . S
C1813 C1817 1.385 . S
C1814 H1795 0.951 . S
C1814 C1812 1.388 . S
C1814 C1815 1.366 . S
C1815 C1814 1.366 . S
C1815 C1816 1.414 . S
C1815 C1818 1.499 . S
C1816 H1796 0.950 . S
C1816 C1815 1.414 . S
C1816 C1817 1.374 . S
C1817 H1797 0.950 . S
C1817 C1813 1.385 . S
C1817 C1816 1.374 . S
C1818 C1815 1.499 . S
C1818 C1819 1.373 . S
C1818 C1820 1.389 . S
C1819 H1798 0.950 . S
C1819 C1818 1.373 . S
C1819 C1835 1.377 . S
C1820 C1818 1.389 . S
C1820 C1821 1.524 . S
C1820 C1834 1.377 . S
C1821 C1820 1.524 . S
C1821 C1822 1.397 . S
C1821 C1826 1.363 . S
C1822 H1799 0.950 . S
C1822 C1821 1.397 . S
C1822 C1823 1.334 . S
C1823 H1800 0.950 . S
C1823 C1822 1.334 . S
C1823 C1824 1.287 . S
C1824 C1823 1.287 . S
C1824 C1825 1.524 . S
C1824 H1843 0.913 . S
C1825 H1801 0.950 . S
C1825 C1824 1.524 . S
C1825 C1826 1.415 . S
C1826 H1802 0.950 . S
C1826 C1821 1.363 . S
C1826 C1825 1.415 . S
C1827 H1803 0.951 . S
C1827 C1828 1.366 . S
C1827 C1829 1.388 . S
C1828 C1827 1.366 . S
C1828 C1832 1.385 . S
C1829 H1804 0.951 . S
C1829 C1827 1.388 . S
C1829 C1830 1.366 . S
C1830 C1829 1.366 . S
C1830 C1831 1.414 . S
C1830 C1833 1.499 . S
C1831 H1805 0.950 . S
C1831 C1830 1.414 . S
C1831 C1832 1.374 . S
C1832 H1806 0.950 . S
C1832 C1828 1.385 . S
C1832 C1831 1.374 . S
C1833 C1830 1.499 . S
C1833 C1834 1.373 . S
C1833 C1835 1.389 . S
C1834 H1807 0.950 . S
C1834 C1820 1.377 . S
C1834 C1833 1.373 . S
C1835 C1819 1.377 . S
C1835 C1833 1.389 . S
C1835 C1836 1.524 . S
C1836 C1835 1.524 . S
C1836 C1837 1.397 . S
C1836 C1841 1.363 . S
C1837 H1808 0.950 . S
C1837 C1836 1.397 . S
C1837 C1838 1.334 . S
C1838 H1809 0.950 . S
C1838 C1837 1.334 . S
C1838 C1839 1.287 . S
C1839 C1838 1.287 . S
C1839 C1840 1.524 . S
C1839 H1842 0.999 . S
C1840 H1810 0.950 . S
C1840 C1839 1.524 . S
C1840 C1841 1.415 . S
C1841 H1811 0.950 . S
C1841 C1836 1.363 . S
C1841 C1840 1.415 . S
H1842 C1839 0.999 . S
H1843 C1824 0.913 . S
H1844 C1862 0.951 1_565 S
H1845 C1864 0.951 . S
H1846 C1866 0.950 . S
H1847 C1867 0.950 . S
H1848 C1869 0.950 . S
H1849 C1872 0.950 . S
H1850 C1873 0.950 . S
H1851 C1875 0.950 . S
H1852 C1876 0.950 . S
H1853 C1877 0.951 . S
H1854 C1879 0.951 . S
H1855 C1881 0.950 . S
H1856 C1882 0.950 . S
H1857 C1884 0.950 . S
H1858 C1887 0.950 . S
H1859 C1888 0.950 . S
H1860 C1890 0.950 . S
H1861 C1891 0.950 . S
C1862 H1844 0.951 1_545 S
C1862 C1863 1.366 . S
C1862 C1864 1.388 . S
C1863 C1862 1.366 . S
C1863 C1867 1.385 . S
C1864 H1845 0.951 . S
C1864 C1862 1.388 . S
C1864 C1865 1.366 . S
C1865 C1864 1.366 . S
C1865 C1866 1.414 . S
C1865 C1868 1.499 . S
C1866 H1846 0.950 . S
C1866 C1865 1.414 . S
C1866 C1867 1.374 . S
C1867 H1847 0.950 . S
C1867 C1863 1.385 . S
C1867 C1866 1.374 . S
C1868 C1865 1.499 . S
C1868 C1869 1.373 . S
C1868 C1870 1.389 . S
C1869 H1848 0.950 . S
C1869 C1868 1.373 . S
C1869 C1885 1.377 . S
C1870 C1868 1.389 . S
C1870 C1871 1.524 . S
C1870 C1884 1.377 . S
C1871 C1870 1.524 . S
C1871 C1872 1.397 . S
C1871 C1876 1.363 . S
C1872 H1849 0.950 . S
C1872 C1871 1.397 . S
C1872 C1873 1.334 . S
C1873 H1850 0.950 . S
C1873 C1872 1.334 . S
C1873 C1874 1.287 . S
C1874 C1873 1.287 . S
C1874 C1875 1.524 . S
C1874 H1893 0.913 . S
C1875 H1851 0.950 . S
C1875 C1874 1.524 . S
C1875 C1876 1.415 . S
C1876 H1852 0.950 . S
C1876 C1871 1.363 . S
C1876 C1875 1.415 . S
C1877 H1853 0.951 . S
C1877 C1878 1.366 . S
C1877 C1879 1.388 . S
C1878 C1877 1.366 . S
C1878 C1882 1.385 . S
C1879 H1854 0.951 . S
C1879 C1877 1.388 . S
C1879 C1880 1.366 . S
C1880 C1879 1.366 . S
C1880 C1881 1.414 . S
C1880 C1883 1.499 . S
C1881 H1855 0.950 . S
C1881 C1880 1.414 . S
C1881 C1882 1.374 . S
C1882 H1856 0.950 . S
C1882 C1878 1.385 . S
C1882 C1881 1.374 . S
C1883 C1880 1.499 . S
C1883 C1884 1.373 . S
C1883 C1885 1.389 . S
C1884 H1857 0.950 . S
C1884 C1870 1.377 . S
C1884 C1883 1.373 . S
C1885 C1869 1.377 . S
C1885 C1883 1.389 . S
C1885 C1886 1.524 . S
C1886 C1885 1.524 . S
C1886 C1887 1.397 . S
C1886 C1891 1.363 . S
C1887 H1858 0.950 . S
C1887 C1886 1.397 . S
C1887 C1888 1.334 . S
C1888 H1859 0.950 . S
C1888 C1887 1.334 . S
C1888 C1889 1.287 . S
C1889 C1888 1.287 . S
C1889 C1890 1.524 . S
C1889 H1892 0.999 . S
C1890 H1860 0.950 . S
C1890 C1889 1.524 . S
C1890 C1891 1.415 . S
C1891 H1861 0.950 . S
C1891 C1886 1.363 . S
C1891 C1890 1.415 . S
H1892 C1889 0.999 . S
H1893 C1874 0.913 . S
H1894 C1912 0.951 . S
H1895 C1914 0.951 . S
H1896 C1916 0.950 . S
H1897 C1917 0.950 . S
H1898 C1919 0.950 . S
H1899 C1922 0.950 . S
H1900 C1923 0.950 . S
H1901 C1925 0.950 . S
H1902 C1926 0.950 . S
H1903 C1927 0.951 . S
H1904 C1929 0.951 . S
H1905 C1931 0.950 . S
H1906 C1932 0.950 . S
H1907 C1934 0.950 . S
H1908 C1937 0.950 . S
H1909 C1938 0.950 . S
H1910 C1940 0.950 . S
H1911 C1941 0.950 . S
C1912 H1894 0.951 . S
C1912 C1913 1.366 . S
C1912 C1914 1.388 . S
C1913 C1912 1.366 . S
C1913 C1917 1.385 . S
C1914 H1895 0.951 . S
C1914 C1912 1.388 . S
C1914 C1915 1.366 . S
C1915 C1914 1.366 . S
C1915 C1916 1.414 . S
C1915 C1918 1.499 . S
C1916 H1896 0.950 . S
C1916 C1915 1.414 . S
C1916 C1917 1.374 . S
C1917 H1897 0.950 . S
C1917 C1913 1.385 . S
C1917 C1916 1.374 . S
C1918 C1915 1.499 . S
C1918 C1919 1.373 . S
C1918 C1920 1.389 . S
C1919 H1898 0.950 . S
C1919 C1918 1.373 . S
C1919 C1935 1.377 . S
C1920 C1918 1.389 . S
C1920 C1921 1.524 . S
C1920 C1934 1.377 . S
C1921 C1920 1.524 . S
C1921 C1922 1.397 . S
C1921 C1926 1.363 . S
C1922 H1899 0.950 . S
C1922 C1921 1.397 . S
C1922 C1923 1.334 . S
C1923 H1900 0.950 . S
C1923 C1922 1.334 . S
C1923 C1924 1.287 . S
C1924 C1923 1.287 . S
C1924 C1925 1.524 . S
C1924 H1943 0.913 . S
C1925 H1901 0.950 . S
C1925 C1924 1.524 . S
C1925 C1926 1.415 . S
C1926 H1902 0.950 . S
C1926 C1921 1.363 . S
C1926 C1925 1.415 . S
C1927 H1903 0.951 . S
C1927 C1928 1.366 . S
C1927 C1929 1.388 . S
C1928 C1927 1.366 . S
C1928 C1932 1.385 . S
C1929 H1904 0.951 . S
C1929 C1927 1.388 . S
C1929 C1930 1.366 . S
C1930 C1929 1.366 . S
C1930 C1931 1.414 . S
C1930 C1933 1.499 . S
C1931 H1905 0.950 . S
C1931 C1930 1.414 . S
C1931 C1932 1.374 . S
C1932 H1906 0.950 . S
C1932 C1928 1.385 . S
C1932 C1931 1.374 . S
C1933 C1930 1.499 . S
C1933 C1934 1.373 . S
C1933 C1935 1.389 . S
C1934 H1907 0.950 . S
C1934 C1920 1.377 . S
C1934 C1933 1.373 . S
C1935 C1919 1.377 . S
C1935 C1933 1.389 . S
C1935 C1936 1.524 . S
C1936 C1935 1.524 . S
C1936 C1937 1.397 . S
C1936 C1941 1.363 . S
C1937 H1908 0.950 . S
C1937 C1936 1.397 . S
C1937 C1938 1.334 . S
C1938 H1909 0.950 . S
C1938 C1937 1.334 . S
C1938 C1939 1.287 . S
C1939 C1938 1.287 . S
C1939 C1940 1.524 . S
C1939 H1942 0.999 . S
C1940 H1910 0.950 . S
C1940 C1939 1.524 . S
C1940 C1941 1.415 . S
C1941 H1911 0.950 . S
C1941 C1936 1.363 . S
C1941 C1940 1.415 . S
H1942 C1939 0.999 . S
H1943 C1924 0.913 . S
H1944 C1962 0.951 . S
H1945 C1964 0.951 . S
H1946 C1966 0.950 . S
H1947 C1967 0.950 . S
H1948 C1969 0.950 . S
H1949 C1972 0.950 . S
H1950 C1973 0.950 . S
H1951 C1975 0.950 . S
H1952 C1976 0.950 . S
H1953 C1977 0.951 . S
H1954 C1979 0.951 . S
H1955 C1981 0.950 . S
H1956 C1982 0.950 . S
H1957 C1984 0.950 . S
H1958 C1987 0.950 . S
H1959 C1988 0.950 . S
H1960 C1990 0.950 . S
H1961 C1991 0.950 . S
C1962 H1944 0.951 . S
C1962 C1963 1.366 . S
C1962 C1964 1.388 . S
C1963 C1962 1.366 . S
C1963 C1967 1.385 . S
C1964 H1945 0.951 . S
C1964 C1962 1.388 . S
C1964 C1965 1.366 . S
C1965 C1964 1.366 . S
C1965 C1966 1.414 . S
C1965 C1968 1.499 . S
C1966 H1946 0.950 . S
C1966 C1965 1.414 . S
C1966 C1967 1.374 . S
C1967 H1947 0.950 . S
C1967 C1963 1.385 . S
C1967 C1966 1.374 . S
C1968 C1965 1.499 . S
C1968 C1969 1.373 . S
C1968 C1970 1.389 . S
C1969 H1948 0.950 . S
C1969 C1968 1.373 . S
C1969 C1985 1.377 . S
C1970 C1968 1.389 . S
C1970 C1971 1.524 . S
C1970 C1984 1.377 . S
C1971 C1970 1.524 . S
C1971 C1972 1.397 . S
C1971 C1976 1.363 . S
C1972 H1949 0.950 . S
C1972 C1971 1.397 . S
C1972 C1973 1.334 . S
C1973 H1950 0.950 . S
C1973 C1972 1.334 . S
C1973 C1974 1.287 . S
C1974 C1973 1.287 . S
C1974 C1975 1.524 . S
C1974 H1993 0.913 . S
C1975 H1951 0.950 . S
C1975 C1974 1.524 . S
C1975 C1976 1.415 . S
C1976 H1952 0.950 . S
C1976 C1971 1.363 . S
C1976 C1975 1.415 . S
C1977 H1953 0.951 . S
C1977 C1978 1.366 . S
C1977 C1979 1.388 . S
C1978 C1977 1.366 . S
C1978 C1982 1.385 . S
C1979 H1954 0.951 . S
C1979 C1977 1.388 . S
C1979 C1980 1.366 . S
C1980 C1979 1.366 . S
C1980 C1981 1.414 . S
C1980 C1983 1.499 . S
C1981 H1955 0.950 . S
C1981 C1980 1.414 . S
C1981 C1982 1.374 . S
C1982 H1956 0.950 . S
C1982 C1978 1.385 . S
C1982 C1981 1.374 . S
C1983 C1980 1.499 . S
C1983 C1984 1.373 . S
C1983 C1985 1.389 . S
C1984 H1957 0.950 . S
C1984 C1970 1.377 . S
C1984 C1983 1.373 . S
C1985 C1969 1.377 . S
C1985 C1983 1.389 . S
C1985 C1986 1.524 . S
C1986 C1985 1.524 . S
C1986 C1987 1.397 . S
C1986 C1991 1.363 . S
C1987 H1958 0.950 . S
C1987 C1986 1.397 . S
C1987 C1988 1.334 . S
C1988 H1959 0.950 . S
C1988 C1987 1.334 . S
C1988 C1989 1.287 . S
C1989 C1988 1.287 . S
C1989 C1990 1.524 . S
C1989 H1992 0.999 . S
C1990 H1960 0.950 . S
C1990 C1989 1.524 . S
C1990 C1991 1.415 . S
C1991 H1961 0.950 . S
C1991 C1986 1.363 . S
C1991 C1990 1.415 . S
H1992 C1989 0.999 . S
H1993 C1974 0.913 . S
H1994 C2012 0.951 . S
H1995 C2014 0.951 . S
H1996 C2016 0.950 . S
H1997 C2017 0.950 . S
H1998 C2019 0.950 . S
H1999 C2022 0.950 . S
H2000 C2023 0.950 . S
H2001 C2025 0.950 . S
H2002 C2026 0.950 . S
H2003 C2027 0.951 . S
H2004 C2029 0.951 . S
H2005 C2031 0.950 . S
H2006 C2032 0.950 . S
H2007 C2034 0.950 . S
H2008 C2037 0.950 . S
H2009 C2038 0.950 . S
H2010 C2040 0.950 . S
H2011 C2041 0.950 . S
C2012 H1994 0.951 . S
C2012 C2013 1.366 . S
C2012 C2014 1.388 . S
C2013 C2012 1.366 . S
C2013 C2017 1.385 . S
C2014 H1995 0.951 . S
C2014 C2012 1.388 . S
C2014 C2015 1.366 . S
C2015 C2014 1.366 . S
C2015 C2016 1.414 . S
C2015 C2018 1.499 . S
C2016 H1996 0.950 . S
C2016 C2015 1.414 . S
C2016 C2017 1.374 . S
C2017 H1997 0.950 . S
C2017 C2013 1.385 . S
C2017 C2016 1.374 . S
C2018 C2015 1.499 . S
C2018 C2019 1.373 . S
C2018 C2020 1.389 . S
C2019 H1998 0.950 . S
C2019 C2018 1.373 . S
C2019 C2035 1.377 . S
C2020 C2018 1.389 . S
C2020 C2021 1.524 . S
C2020 C2034 1.377 . S
C2021 C2020 1.524 . S
C2021 C2022 1.397 . S
C2021 C2026 1.363 . S
C2022 H1999 0.950 . S
C2022 C2021 1.397 . S
C2022 C2023 1.334 . S
C2023 H2000 0.950 . S
C2023 C2022 1.334 . S
C2023 C2024 1.287 . S
C2024 C2023 1.287 . S
C2024 C2025 1.524 . S
C2024 H2043 0.913 . S
C2025 H2001 0.950 . S
C2025 C2024 1.524 . S
C2025 C2026 1.415 . S
C2026 H2002 0.950 . S
C2026 C2021 1.363 . S
C2026 C2025 1.415 . S
C2027 H2003 0.951 . S
C2027 C2028 1.366 . S
C2027 C2029 1.388 . S
C2028 C2027 1.366 . S
C2028 C2032 1.385 . S
C2029 H2004 0.951 . S
C2029 C2027 1.388 . S
C2029 C2030 1.366 . S
C2030 C2029 1.366 . S
C2030 C2031 1.414 . S
C2030 C2033 1.499 . S
C2031 H2005 0.950 . S
C2031 C2030 1.414 . S
C2031 C2032 1.374 . S
C2032 H2006 0.950 . S
C2032 C2028 1.385 . S
C2032 C2031 1.374 . S
C2033 C2030 1.499 . S
C2033 C2034 1.373 . S
C2033 C2035 1.389 . S
C2034 H2007 0.950 . S
C2034 C2020 1.377 . S
C2034 C2033 1.373 . S
C2035 C2019 1.377 . S
C2035 C2033 1.389 . S
C2035 C2036 1.524 . S
C2036 C2035 1.524 . S
C2036 C2037 1.397 1_545 S
C2036 C2041 1.363 . S
C2037 H2008 0.950 . S
C2037 C2036 1.397 1_565 S
C2037 C2038 1.334 . S
C2038 H2009 0.950 . S
C2038 C2037 1.334 . S
C2038 C2039 1.287 . S
C2039 C2038 1.287 . S
C2039 C2040 1.524 1_565 S
C2039 H2042 0.999 . S
C2040 H2010 0.950 . S
C2040 C2039 1.524 1_545 S
C2040 C2041 1.415 . S
C2041 H2011 0.950 . S
C2041 C2036 1.363 . S
C2041 C2040 1.415 . S
H2042 C2039 0.999 . S
H2043 C2024 0.913 . S
H2044 C2062 0.951 . S
H2045 C2064 0.951 . S
H2046 C2066 0.950 . S
H2047 C2067 0.950 . S
H2048 C2069 0.950 . S
H2049 C2072 0.950 . S
H2050 C2073 0.950 . S
H2051 C2075 0.950 . S
H2052 C2076 0.950 . S
H2053 C2077 0.951 . S
H2054 C2079 0.951 . S
H2055 C2081 0.950 . S
H2056 C2082 0.950 . S
H2057 C2084 0.950 . S
H2058 C2087 0.950 . S
H2059 C2088 0.950 . S
H2060 C2090 0.950 . S
H2061 C2091 0.950 . S
C2062 H2044 0.951 . S
C2062 C2063 1.366 . S
C2062 C2064 1.388 . S
C2063 C2062 1.366 . S
C2063 C2067 1.385 . S
C2064 H2045 0.951 . S
C2064 C2062 1.388 . S
C2064 C2065 1.366 . S
C2065 C2064 1.366 . S
C2065 C2066 1.414 . S
C2065 C2068 1.499 . S
C2066 H2046 0.950 . S
C2066 C2065 1.414 . S
C2066 C2067 1.374 . S
C2067 H2047 0.950 . S
C2067 C2063 1.385 . S
C2067 C2066 1.374 . S
C2068 C2065 1.499 . S
C2068 C2069 1.373 . S
C2068 C2070 1.389 . S
C2069 H2048 0.950 . S
C2069 C2068 1.373 . S
C2069 C2085 1.377 . S
C2070 C2068 1.389 . S
C2070 C2071 1.524 . S
C2070 C2084 1.377 . S
C2071 C2070 1.524 . S
C2071 C2072 1.397 . S
C2071 C2076 1.363 . S
C2072 H2049 0.950 . S
C2072 C2071 1.397 . S
C2072 C2073 1.334 . S
C2073 H2050 0.950 . S
C2073 C2072 1.334 . S
C2073 C2074 1.287 . S
C2074 C2073 1.287 . S
C2074 C2075 1.524 . S
C2074 H2093 0.913 . S
C2075 H2051 0.950 . S
C2075 C2074 1.524 . S
C2075 C2076 1.415 . S
C2076 H2052 0.950 . S
C2076 C2071 1.363 . S
C2076 C2075 1.415 . S
C2077 H2053 0.951 . S
C2077 C2078 1.366 . S
C2077 C2079 1.388 . S
C2078 C2077 1.366 . S
C2078 C2082 1.385 . S
C2079 H2054 0.951 . S
C2079 C2077 1.388 . S
C2079 C2080 1.366 . S
C2080 C2079 1.366 . S
C2080 C2081 1.414 . S
C2080 C2083 1.499 . S
C2081 H2055 0.950 . S
C2081 C2080 1.414 . S
C2081 C2082 1.374 . S
C2082 H2056 0.950 . S
C2082 C2078 1.385 . S
C2082 C2081 1.374 . S
C2083 C2080 1.499 . S
C2083 C2084 1.373 . S
C2083 C2085 1.389 . S
C2084 H2057 0.950 . S
C2084 C2070 1.377 . S
C2084 C2083 1.373 . S
C2085 C2069 1.377 . S
C2085 C2083 1.389 . S
C2085 C2086 1.524 . S
C2086 C2085 1.524 . S
C2086 C2087 1.397 . S
C2086 C2091 1.363 . S
C2087 H2058 0.950 . S
C2087 C2086 1.397 . S
C2087 C2088 1.334 . S
C2088 H2059 0.950 . S
C2088 C2087 1.334 . S
C2088 C2089 1.287 . S
C2089 C2088 1.287 . S
C2089 C2090 1.524 . S
C2089 H2092 0.999 . S
C2090 H2060 0.950 . S
C2090 C2089 1.524 . S
C2090 C2091 1.415 . S
C2091 H2061 0.950 . S
C2091 C2086 1.363 . S
C2091 C2090 1.415 . S
H2092 C2089 0.999 . S
H2093 C2074 0.913 . S
H2094 C2112 0.951 . S
H2095 C2114 0.951 . S
H2096 C2116 0.950 . S
H2097 C2117 0.950 . S
H2098 C2119 0.950 . S
H2099 C2122 0.950 . S
H2100 C2123 0.950 . S
H2101 C2125 0.950 . S
H2102 C2126 0.950 . S
H2103 C2127 0.951 . S
H2104 C2129 0.951 . S
H2105 C2131 0.950 . S
H2106 C2132 0.950 . S
H2107 C2134 0.950 . S
H2108 C2137 0.950 . S
H2109 C2138 0.950 . S
H2110 C2140 0.950 . S
H2111 C2141 0.950 . S
C2112 H2094 0.951 . S
C2112 C2113 1.366 . S
C2112 C2114 1.388 . S
C2113 C2112 1.366 . S
C2113 C2117 1.385 . S
C2114 H2095 0.951 . S
C2114 C2112 1.388 . S
C2114 C2115 1.366 . S
C2115 C2114 1.366 . S
C2115 C2116 1.414 . S
C2115 C2118 1.499 . S
C2116 H2096 0.950 . S
C2116 C2115 1.414 . S
C2116 C2117 1.374 . S
C2117 H2097 0.950 . S
C2117 C2113 1.385 . S
C2117 C2116 1.374 . S
C2118 C2115 1.499 . S
C2118 C2119 1.373 . S
C2118 C2120 1.389 . S
C2119 H2098 0.950 . S
C2119 C2118 1.373 . S
C2119 C2135 1.377 . S
C2120 C2118 1.389 . S
C2120 C2121 1.524 . S
C2120 C2134 1.377 . S
C2121 C2120 1.524 . S
C2121 C2122 1.397 . S
C2121 C2126 1.363 . S
C2122 H2099 0.950 . S
C2122 C2121 1.397 . S
C2122 C2123 1.334 . S
C2123 H2100 0.950 . S
C2123 C2122 1.334 . S
C2123 C2124 1.287 . S
C2124 C2123 1.287 . S
C2124 C2125 1.524 . S
C2124 H2143 0.913 . S
C2125 H2101 0.950 . S
C2125 C2124 1.524 . S
C2125 C2126 1.415 . S
C2126 H2102 0.950 . S
C2126 C2121 1.363 . S
C2126 C2125 1.415 . S
C2127 H2103 0.951 . S
C2127 C2128 1.366 . S
C2127 C2129 1.388 . S
C2128 C2127 1.366 . S
C2128 C2132 1.385 . S
C2129 H2104 0.951 . S
C2129 C2127 1.388 . S
C2129 C2130 1.366 . S
C2130 C2129 1.366 . S
C2130 C2131 1.414 . S
C2130 C2133 1.499 . S
C2131 H2105 0.950 . S
C2131 C2130 1.414 . S
C2131 C2132 1.374 . S
C2132 H2106 0.950 . S
C2132 C2128 1.385 . S
C2132 C2131 1.374 . S
C2133 C2130 1.499 . S
C2133 C2134 1.373 . S
C2133 C2135 1.389 . S
C2134 H2107 0.950 . S
C2134 C2120 1.377 . S
C2134 C2133 1.373 . S
C2135 C2119 1.377 . S
C2135 C2133 1.389 . S
C2135 C2136 1.524 . S
C2136 C2135 1.524 . S
C2136 C2137 1.397 . S
C2136 C2141 1.363 . S
C2137 H2108 0.950 . S
C2137 C2136 1.397 . S
C2137 C2138 1.334 . S
C2138 H2109 0.950 . S
C2138 C2137 1.334 . S
C2138 C2139 1.287 . S
C2139 C2138 1.287 . S
C2139 C2140 1.524 . S
C2139 H2142 0.999 . S
C2140 H2110 0.950 . S
C2140 C2139 1.524 . S
C2140 C2141 1.415 . S
C2141 H2111 0.950 . S
C2141 C2136 1.363 . S
C2141 C2140 1.415 . S
H2142 C2139 0.999 . S
H2143 C2124 0.913 . S
H2144 C2162 0.951 . S
H2145 C2164 0.951 . S
H2146 C2166 0.950 . S
H2147 C2167 0.950 . S
H2148 C2169 0.950 . S
H2149 C2172 0.950 . S
H2150 C2173 0.950 . S
H2151 C2175 0.950 . S
H2152 C2176 0.950 . S
H2153 C2177 0.951 . S
H2154 C2179 0.951 . S
H2155 C2181 0.950 . S
H2156 C2182 0.950 . S
H2157 C2184 0.950 . S
H2158 C2187 0.950 . S
H2159 C2188 0.950 . S
H2160 C2190 0.950 . S
H2161 C2191 0.950 . S
C2162 H2144 0.951 . S
C2162 C2163 1.366 . S
C2162 C2164 1.388 . S
C2163 C2162 1.366 . S
C2163 C2167 1.385 . S
C2164 H2145 0.951 . S
C2164 C2162 1.388 . S
C2164 C2165 1.366 . S
C2165 C2164 1.366 . S
C2165 C2166 1.414 . S
C2165 C2168 1.499 . S
C2166 H2146 0.950 . S
C2166 C2165 1.414 . S
C2166 C2167 1.374 . S
C2167 H2147 0.950 . S
C2167 C2163 1.385 . S
C2167 C2166 1.374 . S
C2168 C2165 1.499 . S
C2168 C2169 1.373 . S
C2168 C2170 1.389 . S
C2169 H2148 0.950 . S
C2169 C2168 1.373 . S
C2169 C2185 1.377 . S
C2170 C2168 1.389 . S
C2170 C2171 1.524 . S
C2170 C2184 1.377 . S
C2171 C2170 1.524 . S
C2171 C2172 1.397 . S
C2171 C2176 1.363 . S
C2172 H2149 0.950 . S
C2172 C2171 1.397 . S
C2172 C2173 1.334 . S
C2173 H2150 0.950 . S
C2173 C2172 1.334 . S
C2173 C2174 1.287 . S
C2174 C2173 1.287 . S
C2174 C2175 1.524 . S
C2174 H2193 0.913 . S
C2175 H2151 0.950 . S
C2175 C2174 1.524 . S
C2175 C2176 1.415 . S
C2176 H2152 0.950 . S
C2176 C2171 1.363 . S
C2176 C2175 1.415 . S
C2177 H2153 0.951 . S
C2177 C2178 1.366 . S
C2177 C2179 1.388 . S
C2178 C2177 1.366 . S
C2178 C2182 1.385 . S
C2179 H2154 0.951 . S
C2179 C2177 1.388 . S
C2179 C2180 1.366 . S
C2180 C2179 1.366 . S
C2180 C2181 1.414 . S
C2180 C2183 1.499 . S
C2181 H2155 0.950 . S
C2181 C2180 1.414 . S
C2181 C2182 1.374 . S
C2182 H2156 0.950 . S
C2182 C2178 1.385 . S
C2182 C2181 1.374 . S
C2183 C2180 1.499 . S
C2183 C2184 1.373 . S
C2183 C2185 1.389 . S
C2184 H2157 0.950 . S
C2184 C2170 1.377 . S
C2184 C2183 1.373 . S
C2185 C2169 1.377 . S
C2185 C2183 1.389 . S
C2185 C2186 1.524 . S
C2186 C2185 1.524 . S
C2186 C2187 1.397 . S
C2186 C2191 1.363 . S
C2187 H2158 0.950 . S
C2187 C2186 1.397 . S
C2187 C2188 1.334 . S
C2188 H2159 0.950 . S
C2188 C2187 1.334 . S
C2188 C2189 1.287 . S
C2189 C2188 1.287 . S
C2189 C2190 1.524 . S
C2189 H2192 0.999 . S
C2190 H2160 0.950 . S
C2190 C2189 1.524 . S
C2190 C2191 1.415 . S
C2191 H2161 0.950 . S
C2191 C2186 1.363 . S
C2191 C2190 1.415 . S
H2192 C2189 0.999 . S
H2193 C2174 0.913 . S
H2194 C2212 0.951 . S
H2195 C2214 0.951 . S
H2196 C2216 0.950 . S
H2197 C2217 0.950 . S
H2198 C2219 0.950 . S
H2199 C2222 0.950 . S
H2200 C2223 0.950 . S
H2201 C2225 0.937 1_565 S
H2202 C2226 0.950 1_565 S
H2203 C2227 0.951 . S
H2204 C2229 0.951 . S
H2205 C2231 0.950 1_565 S
H2206 C2232 0.985 . S
H2207 C2234 0.950 . S
H2208 C2237 0.950 . S
H2209 C2238 0.950 . S
H2210 C2240 0.950 . S
H2211 C2241 0.950 . S
C2212 H2194 0.951 . S
C2212 C2213 1.366 . S
C2212 C2214 1.388 . S
C2213 C2212 1.366 . S
C2213 C2217 1.385 . S
C2214 H2195 0.951 . S
C2214 C2212 1.388 . S
C2214 C2215 1.366 . S
C2215 C2214 1.366 . S
C2215 C2216 1.414 . S
C2215 C2218 1.499 . S
C2216 H2196 0.950 . S
C2216 C2215 1.414 . S
C2216 C2217 1.374 . S
C2217 H2197 0.950 . S
C2217 C2213 1.385 . S
C2217 C2216 1.374 . S
C2218 C2215 1.499 . S
C2218 C2219 1.373 . S
C2218 C2220 1.389 . S
C2219 H2198 0.950 . S
C2219 C2218 1.373 . S
C2219 C2235 1.377 . S
C2220 C2218 1.389 . S
C2220 C2221 1.524 . S
C2220 C2234 1.377 . S
C2221 C2220 1.524 . S
C2221 C2222 1.397 . S
C2221 C2226 1.363 . S
C2222 H2199 0.950 . S
C2222 C2221 1.397 . S
C2222 C2223 1.334 . S
C2223 H2200 0.950 . S
C2223 C2222 1.334 . S
C2223 C2224 1.287 . S
C2224 C2223 1.287 . S
C2224 C2225 1.538 . S
C2224 H2243 0.913 . S
C2225 H2201 0.937 1_545 S
C2225 C2224 1.538 . S
C2225 C2226 1.416 . S
C2226 H2202 0.950 1_545 S
C2226 C2221 1.363 . S
C2226 C2225 1.416 . S
C2227 H2203 0.951 . S
C2227 C2228 1.366 . S
C2227 C2229 1.388 . S
C2228 C2227 1.366 . S
C2228 C2232 1.355 1_545 S
C2229 H2204 0.951 . S
C2229 C2227 1.388 . S
C2229 C2230 1.366 . S
C2230 C2229 1.366 . S
C2230 C2231 1.414 . S
C2230 C2233 1.499 . S
C2231 H2205 0.950 1_545 S
C2231 C2230 1.414 . S
C2231 C2232 1.370 1_545 S
C2232 H2206 0.985 . S
C2232 C2228 1.355 1_565 S
C2232 C2231 1.370 1_565 S
C2233 C2230 1.499 . S
C2233 C2234 1.373 . S
C2233 C2235 1.389 . S
C2234 H2207 0.950 . S
C2234 C2220 1.377 . S
C2234 C2233 1.373 . S
C2235 C2219 1.377 . S
C2235 C2233 1.389 . S
C2235 C2236 1.524 . S
C2236 C2235 1.524 . S
C2236 C2237 1.397 . S
C2236 C2241 1.363 . S
C2237 H2208 0.950 . S
C2237 C2236 1.397 . S
C2237 C2238 1.334 . S
C2238 H2209 0.950 . S
C2238 C2237 1.334 . S
C2238 C2239 1.287 . S
C2239 C2238 1.287 . S
C2239 C2240 1.524 . S
C2239 H2242 0.999 . S
C2240 H2210 0.950 . S
C2240 C2239 1.524 . S
C2240 C2241 1.415 . S
C2241 H2211 0.950 . S
C2241 C2236 1.363 . S
C2241 C2240 1.415 . S
H2242 C2239 0.999 . S
H2243 C2224 0.913 . S
H2244 C2262 0.951 . S
H2245 C2264 0.951 . S
H2246 C2266 0.950 . S
H2247 C2267 0.950 . S
H2248 C2269 0.950 . S
H2249 C2272 0.950 . S
H2250 C2273 0.950 . S
H2251 C2275 0.950 . S
H2252 C2276 0.950 . S
H2253 C2277 0.951 . S
H2254 C2279 0.951 . S
H2255 C2281 0.950 . S
H2256 C2282 0.950 . S
H2257 C2284 0.950 . S
H2258 C2287 0.950 . S
H2259 C2288 0.950 . S
H2260 C2290 0.950 . S
H2261 C2291 0.950 . S
C2262 H2244 0.951 . S
C2262 C2263 1.366 . S
C2262 C2264 1.388 . S
C2263 C2262 1.366 . S
C2263 C2267 1.385 . S
C2264 H2245 0.951 . S
C2264 C2262 1.388 . S
C2264 C2265 1.366 . S
C2265 C2264 1.366 . S
C2265 C2266 1.414 . S
C2265 C2268 1.499 . S
C2266 H2246 0.950 . S
C2266 C2265 1.414 . S
C2266 C2267 1.374 . S
C2267 H2247 0.950 . S
C2267 C2263 1.385 . S
C2267 C2266 1.374 . S
C2268 C2265 1.499 . S
C2268 C2269 1.373 . S
C2268 C2270 1.389 . S
C2269 H2248 0.950 . S
C2269 C2268 1.373 . S
C2269 C2285 1.377 . S
C2270 C2268 1.389 . S
C2270 C2271 1.524 . S
C2270 C2284 1.377 . S
C2271 C2270 1.524 . S
C2271 C2272 1.397 . S
C2271 C2276 1.363 . S
C2272 H2249 0.950 . S
C2272 C2271 1.397 . S
C2272 C2273 1.334 . S
C2273 H2250 0.950 . S
C2273 C2272 1.334 . S
C2273 C2274 1.287 . S
C2274 C2273 1.287 . S
C2274 C2275 1.524 . S
C2274 H2293 0.913 . S
C2275 H2251 0.950 . S
C2275 C2274 1.524 . S
C2275 C2276 1.415 . S
C2276 H2252 0.950 . S
C2276 C2271 1.363 . S
C2276 C2275 1.415 . S
C2277 H2253 0.951 . S
C2277 C2278 1.366 . S
C2277 C2279 1.388 . S
C2278 C2277 1.366 . S
C2278 C2282 1.385 . S
C2279 H2254 0.951 . S
C2279 C2277 1.388 . S
C2279 C2280 1.366 . S
C2280 C2279 1.366 . S
C2280 C2281 1.414 . S
C2280 C2283 1.499 . S
C2281 H2255 0.950 . S
C2281 C2280 1.414 . S
C2281 C2282 1.374 . S
C2282 H2256 0.950 . S
C2282 C2278 1.385 . S
C2282 C2281 1.374 . S
C2283 C2280 1.499 . S
C2283 C2284 1.373 . S
C2283 C2285 1.389 . S
C2284 H2257 0.950 . S
C2284 C2270 1.377 . S
C2284 C2283 1.373 . S
C2285 C2269 1.377 . S
C2285 C2283 1.389 . S
C2285 C2286 1.524 . S
C2286 C2285 1.524 . S
C2286 C2287 1.397 . S
C2286 C2291 1.363 . S
C2287 H2258 0.950 . S
C2287 C2286 1.397 . S
C2287 C2288 1.334 . S
C2288 H2259 0.950 . S
C2288 C2287 1.334 . S
C2288 C2289 1.287 . S
C2289 C2288 1.287 . S
C2289 C2290 1.524 . S
C2289 H2292 0.999 . S
C2290 H2260 0.950 . S
C2290 C2289 1.524 . S
C2290 C2291 1.415 . S
C2291 H2261 0.950 . S
C2291 C2286 1.363 . S
C2291 C2290 1.415 . S
H2292 C2289 0.999 . S
H2293 C2274 0.913 . S
H2294 C2312 0.951 . S
H2295 C2314 0.951 . S
H2296 C2316 0.950 . S
H2297 C2317 0.950 1_655 S
H2298 C2319 0.950 . S
H2299 C2322 0.950 . S
H2300 C2323 0.950 . S
H2301 C2325 0.950 . S
H2302 C2326 0.950 . S
H2303 C2327 0.951 . S
H2304 C2329 0.951 . S
H2305 C2331 0.950 . S
H2306 C2332 0.950 . S
H2307 C2334 0.950 . S
H2308 C2337 0.950 . S
H2309 C2338 0.950 . S
H2310 C2340 0.950 . S
H2311 C2341 0.950 . S
C2312 H2294 0.951 . S
C2312 C2313 1.366 . S
C2312 C2314 1.388 . S
C2313 C2312 1.366 . S
C2313 C2317 1.385 . S
C2314 H2295 0.951 . S
C2314 C2312 1.388 . S
C2314 C2315 1.366 . S
C2315 C2314 1.366 . S
C2315 C2316 1.414 . S
C2315 C2318 1.499 . S
C2316 H2296 0.950 . S
C2316 C2315 1.414 . S
C2316 C2317 1.374 . S
C2317 H2297 0.950 1_455 S
C2317 C2313 1.385 . S
C2317 C2316 1.374 . S
C2318 C2315 1.499 . S
C2318 C2319 1.373 . S
C2318 C2320 1.389 . S
C2319 H2298 0.950 . S
C2319 C2318 1.373 . S
C2319 C2335 1.377 . S
C2320 C2318 1.389 . S
C2320 C2321 1.524 . S
C2320 C2334 1.377 . S
C2321 C2320 1.524 . S
C2321 C2322 1.397 . S
C2321 C2326 1.363 . S
C2322 H2299 0.950 . S
C2322 C2321 1.397 . S
C2322 C2323 1.334 . S
C2323 H2300 0.950 . S
C2323 C2322 1.334 . S
C2323 C2324 1.287 . S
C2324 C2323 1.287 . S
C2324 C2325 1.524 . S
C2324 H2343 0.913 . S
C2325 H2301 0.950 . S
C2325 C2324 1.524 . S
C2325 C2326 1.415 . S
C2326 H2302 0.950 . S
C2326 C2321 1.363 . S
C2326 C2325 1.415 . S
C2327 H2303 0.951 . S
C2327 C2328 1.366 . S
C2327 C2329 1.388 . S
C2328 C2327 1.366 . S
C2328 C2332 1.385 . S
C2329 H2304 0.951 . S
C2329 C2327 1.388 . S
C2329 C2330 1.366 . S
C2330 C2329 1.366 . S
C2330 C2331 1.414 . S
C2330 C2333 1.499 . S
C2331 H2305 0.950 . S
C2331 C2330 1.414 . S
C2331 C2332 1.374 . S
C2332 H2306 0.950 . S
C2332 C2328 1.385 . S
C2332 C2331 1.374 . S
C2333 C2330 1.499 . S
C2333 C2334 1.373 . S
C2333 C2335 1.389 . S
C2334 H2307 0.950 . S
C2334 C2320 1.377 . S
C2334 C2333 1.373 . S
C2335 C2319 1.377 . S
C2335 C2333 1.389 . S
C2335 C2336 1.524 . S
C2336 C2335 1.524 . S
C2336 C2337 1.397 . S
C2336 C2341 1.363 . S
C2337 H2308 0.950 . S
C2337 C2336 1.397 . S
C2337 C2338 1.334 . S
C2338 H2309 0.950 . S
C2338 C2337 1.334 . S
C2338 C2339 1.287 . S
C2339 C2338 1.287 . S
C2339 C2340 1.524 . S
C2339 H2342 0.999 . S
C2340 H2310 0.950 . S
C2340 C2339 1.524 . S
C2340 C2341 1.415 . S
C2341 H2311 0.950 . S
C2341 C2336 1.363 . S
C2341 C2340 1.415 . S
H2342 C2339 0.999 . S
H2343 C2324 0.913 . S
H2344 C2362 0.951 . S
H2345 C2364 0.951 . S
H2346 C2366 0.950 . S
H2347 C2367 0.950 . S
H2348 C2369 0.950 . S
H2349 C2372 0.950 . S
H2350 C2373 0.950 . S
H2351 C2375 0.950 . S
H2352 C2376 0.950 . S
H2353 C2377 0.951 . S
H2354 C2379 0.951 . S
H2355 C2381 0.950 . S
H2356 C2382 0.950 . S
H2357 C2384 0.950 . S
H2358 C2387 0.950 . S
H2359 C2388 0.950 . S
H2360 C2390 0.950 . S
H2361 C2391 0.950 . S
C2362 H2344 0.951 . S
C2362 C2363 1.366 . S
C2362 C2364 1.388 . S
C2363 C2362 1.366 . S
C2363 C2367 1.385 . S
C2364 H2345 0.951 . S
C2364 C2362 1.388 . S
C2364 C2365 1.366 . S
C2365 C2364 1.366 . S
C2365 C2366 1.414 . S
C2365 C2368 1.499 . S
C2366 H2346 0.950 . S
C2366 C2365 1.414 . S
C2366 C2367 1.374 . S
C2367 H2347 0.950 . S
C2367 C2363 1.385 . S
C2367 C2366 1.374 . S
C2368 C2365 1.499 . S
C2368 C2369 1.373 . S
C2368 C2370 1.389 . S
C2369 H2348 0.950 . S
C2369 C2368 1.373 . S
C2369 C2385 1.377 . S
C2370 C2368 1.389 . S
C2370 C2371 1.524 . S
C2370 C2384 1.377 . S
C2371 C2370 1.524 . S
C2371 C2372 1.397 . S
C2371 C2376 1.363 . S
C2372 H2349 0.950 . S
C2372 C2371 1.397 . S
C2372 C2373 1.334 . S
C2373 H2350 0.950 . S
C2373 C2372 1.334 . S
C2373 C2374 1.287 . S
C2374 C2373 1.287 . S
C2374 C2375 1.524 . S
C2374 H2393 0.913 . S
C2375 H2351 0.950 . S
C2375 C2374 1.524 . S
C2375 C2376 1.415 . S
C2376 H2352 0.950 . S
C2376 C2371 1.363 . S
C2376 C2375 1.415 . S
C2377 H2353 0.951 . S
C2377 C2378 1.366 . S
C2377 C2379 1.388 . S
C2378 C2377 1.366 . S
C2378 C2382 1.385 . S
C2379 H2354 0.951 . S
C2379 C2377 1.388 . S
C2379 C2380 1.366 . S
C2380 C2379 1.366 . S
C2380 C2381 1.414 . S
C2380 C2383 1.499 . S
C2381 H2355 0.950 . S
C2381 C2380 1.414 . S
C2381 C2382 1.374 . S
C2382 H2356 0.950 . S
C2382 C2378 1.385 . S
C2382 C2381 1.374 . S
C2383 C2380 1.499 . S
C2383 C2384 1.373 . S
C2383 C2385 1.389 . S
C2384 H2357 0.950 . S
C2384 C2370 1.377 . S
C2384 C2383 1.373 . S
C2385 C2369 1.377 . S
C2385 C2383 1.389 . S
C2385 C2386 1.524 . S
C2386 C2385 1.524 . S
C2386 C2387 1.397 . S
C2386 C2391 1.363 . S
C2387 H2358 0.950 . S
C2387 C2386 1.397 . S
C2387 C2388 1.334 . S
C2388 H2359 0.950 . S
C2388 C2387 1.334 . S
C2388 C2389 1.287 . S
C2389 C2388 1.287 . S
C2389 C2390 1.524 . S
C2389 H2392 0.999 . S
C2390 H2360 0.950 . S
C2390 C2389 1.524 . S
C2390 C2391 1.415 . S
C2391 H2361 0.950 . S
C2391 C2386 1.363 . S
C2391 C2390 1.415 . S
H2392 C2389 0.999 . S
H2393 C2374 0.913 . S
H2394 C2412 0.951 . S
H2395 C2414 0.951 . S
H2396 C2416 0.950 . S
H2397 C2417 0.959 . S
H2398 C2419 0.950 . S
H2399 C2422 0.968 . S
H2400 C2423 0.950 . S
H2401 C2425 0.950 . S
H2402 C2426 0.950 . S
H2403 C2427 0.951 . S
H2404 C2429 0.939 1_455 S
H2405 C2431 0.950 . S
H2406 C2432 0.950 . S
H2407 C2434 0.950 . S
H2408 C2437 0.950 . S
H2409 C2438 0.950 . S
H2410 C2440 0.950 . S
H2411 C2441 0.950 . S
C2412 H2394 0.951 . S
C2412 C2413 1.366 1_556 S
C2412 C2414 1.388 . S
C2413 C2412 1.366 1_554 S
C2413 C2417 1.386 . S
C2414 H2395 0.951 . S
C2414 C2412 1.388 . S
C2414 C2415 1.366 . S
C2415 C2414 1.366 . S
C2415 C2416 1.414 . S
C2415 C2418 1.499 . S
C2416 H2396 0.950 . S
C2416 C2415 1.414 . S
C2416 C2417 1.363 1_556 S
C2417 H2397 0.959 . S
C2417 C2413 1.386 . S
C2417 C2416 1.363 1_554 S
C2418 C2415 1.499 . S
C2418 C2419 1.373 . S
C2418 C2420 1.389 . S
C2419 H2398 0.950 . S
C2419 C2418 1.373 . S
C2419 C2435 1.377 . S
C2420 C2418 1.389 . S
C2420 C2421 1.524 . S
C2420 C2434 1.377 . S
C2421 C2420 1.524 . S
C2421 C2422 1.397 . S
C2421 C2426 1.363 . S
C2422 H2399 0.968 . S
C2422 C2421 1.397 . S
C2422 C2423 1.334 1_556 S
C2423 H2400 0.950 . S
C2423 C2422 1.334 1_554 S
C2423 C2424 1.287 . S
C2424 C2423 1.287 . S
C2424 C2425 1.524 1_554 S
C2424 H2443 0.913 . S
C2425 H2401 0.950 . S
C2425 C2424 1.524 1_556 S
C2425 C2426 1.415 . S
C2426 H2402 0.950 . S
C2426 C2421 1.363 . S
C2426 C2425 1.415 . S
C2427 H2403 0.951 . S
C2427 C2428 1.366 1_455 S
C2427 C2429 1.384 1_455 S
C2428 C2427 1.366 1_655 S
C2428 C2432 1.385 . S
C2429 H2404 0.939 1_655 S
C2429 C2427 1.384 1_655 S
C2429 C2430 1.381 . S
C2430 C2429 1.381 . S
C2430 C2431 1.414 . S
C2430 C2433 1.499 . S
C2431 H2405 0.950 . S
C2431 C2430 1.414 . S
C2431 C2432 1.374 . S
C2432 H2406 0.950 . S
C2432 C2428 1.385 . S
C2432 C2431 1.374 . S
C2433 C2430 1.499 . S
C2433 C2434 1.373 . S
C2433 C2435 1.389 . S
C2434 H2407 0.950 . S
C2434 C2420 1.377 . S
C2434 C2433 1.373 . S
C2435 C2419 1.377 . S
C2435 C2433 1.389 . S
C2435 C2436 1.524 1_655 S
C2436 C2435 1.524 1_455 S
C2436 C2437 1.397 1_455 S
C2436 C2441 1.363 . S
C2437 H2408 0.950 . S
C2437 C2436 1.397 1_655 S
C2437 C2438 1.334 1_655 S
C2438 H2409 0.950 . S
C2438 C2437 1.334 1_455 S
C2438 C2439 1.287 . S
C2439 C2438 1.287 . S
C2439 C2440 1.524 . S
C2439 H2442 0.999 . S
C2440 H2410 0.950 . S
C2440 C2439 1.524 . S
C2440 C2441 1.415 . S
C2441 H2411 0.950 . S
C2441 C2436 1.363 . S
C2441 C2440 1.415 . S
H2442 C2439 0.999 . S
H2443 C2424 0.913 . S
H2444 C2462 0.951 . S
H2445 C2464 0.951 . S
H2446 C2466 0.950 . S
H2447 C2467 0.950 . S
H2448 C2469 0.950 . S
H2449 C2472 0.950 . S
H2450 C2473 0.950 . S
H2451 C2475 0.950 . S
H2452 C2476 0.950 . S
H2453 C2477 0.951 . S
H2454 C2479 0.951 . S
H2455 C2481 0.950 . S
H2456 C2482 0.950 . S
H2457 C2484 0.950 . S
H2458 C2487 0.950 . S
H2459 C2488 0.950 . S
H2460 C2490 0.950 . S
H2461 C2491 0.950 . S
C2462 H2444 0.951 . S
C2462 C2463 1.366 . S
C2462 C2464 1.388 . S
C2463 C2462 1.366 . S
C2463 C2467 1.385 . S
C2464 H2445 0.951 . S
C2464 C2462 1.388 . S
C2464 C2465 1.366 . S
C2465 C2464 1.366 . S
C2465 C2466 1.414 . S
C2465 C2468 1.499 . S
C2466 H2446 0.950 . S
C2466 C2465 1.414 . S
C2466 C2467 1.374 . S
C2467 H2447 0.950 . S
C2467 C2463 1.385 . S
C2467 C2466 1.374 . S
C2468 C2465 1.499 . S
C2468 C2469 1.373 . S
C2468 C2470 1.389 . S
C2469 H2448 0.950 . S
C2469 C2468 1.373 . S
C2469 C2485 1.377 . S
C2470 C2468 1.389 . S
C2470 C2471 1.524 . S
C2470 C2484 1.377 . S
C2471 C2470 1.524 . S
C2471 C2472 1.397 . S
C2471 C2476 1.363 . S
C2472 H2449 0.950 . S
C2472 C2471 1.397 . S
C2472 C2473 1.334 . S
C2473 H2450 0.950 . S
C2473 C2472 1.334 . S
C2473 C2474 1.287 . S
C2474 C2473 1.287 . S
C2474 C2475 1.524 . S
C2474 H2493 0.913 . S
C2475 H2451 0.950 . S
C2475 C2474 1.524 . S
C2475 C2476 1.415 . S
C2476 H2452 0.950 . S
C2476 C2471 1.363 . S
C2476 C2475 1.415 . S
C2477 H2453 0.951 . S
C2477 C2478 1.366 . S
C2477 C2479 1.388 . S
C2478 C2477 1.366 . S
C2478 C2482 1.385 . S
C2479 H2454 0.951 . S
C2479 C2477 1.388 . S
C2479 C2480 1.366 . S
C2480 C2479 1.366 . S
C2480 C2481 1.414 . S
C2480 C2483 1.499 . S
C2481 H2455 0.950 . S
C2481 C2480 1.414 . S
C2481 C2482 1.374 . S
C2482 H2456 0.950 . S
C2482 C2478 1.385 . S
C2482 C2481 1.374 . S
C2483 C2480 1.499 . S
C2483 C2484 1.373 . S
C2483 C2485 1.389 . S
C2484 H2457 0.950 . S
C2484 C2470 1.377 . S
C2484 C2483 1.373 . S
C2485 C2469 1.377 . S
C2485 C2483 1.389 . S
C2485 C2486 1.524 . S
C2486 C2485 1.524 . S
C2486 C2487 1.397 . S
C2486 C2491 1.363 . S
C2487 H2458 0.950 . S
C2487 C2486 1.397 . S
C2487 C2488 1.334 . S
C2488 H2459 0.950 . S
C2488 C2487 1.334 . S
C2488 C2489 1.287 . S
C2489 C2488 1.287 . S
C2489 C2490 1.524 . S
C2489 H2492 0.999 . S
C2490 H2460 0.950 . S
C2490 C2489 1.524 . S
C2490 C2491 1.415 . S
C2491 H2461 0.950 . S
C2491 C2486 1.363 . S
C2491 C2490 1.415 . S
H2492 C2489 0.999 . S
H2493 C2474 0.913 . S
H2494 C2512 0.951 . S
H2495 C2514 0.951 . S
H2496 C2516 0.950 . S
H2497 C2517 0.950 . S
H2498 C2519 0.950 . S
H2499 C2522 0.950 . S
H2500 C2523 0.950 . S
H2501 C2525 0.950 . S
H2502 C2526 0.950 . S
H2503 C2527 0.951 . S
H2504 C2529 0.951 . S
H2505 C2531 0.921 1_655 S
H2506 C2532 0.950 . S
H2507 C2534 0.950 . S
H2508 C2537 0.950 . S
H2509 C2538 0.950 . S
H2510 C2540 0.950 . S
H2511 C2541 0.950 . S
C2512 H2494 0.951 . S
C2512 C2513 1.366 . S
C2512 C2514 1.388 . S
C2513 C2512 1.366 . S
C2513 C2517 1.385 . S
C2514 H2495 0.951 . S
C2514 C2512 1.388 . S
C2514 C2515 1.366 . S
C2515 C2514 1.366 . S
C2515 C2516 1.414 . S
C2515 C2518 1.499 . S
C2516 H2496 0.950 . S
C2516 C2515 1.414 . S
C2516 C2517 1.374 . S
C2517 H2497 0.950 . S
C2517 C2513 1.385 . S
C2517 C2516 1.374 . S
C2518 C2515 1.499 . S
C2518 C2519 1.373 . S
C2518 C2520 1.389 . S
C2519 H2498 0.950 . S
C2519 C2518 1.373 . S
C2519 C2535 1.377 . S
C2520 C2518 1.389 . S
C2520 C2521 1.524 . S
C2520 C2534 1.377 . S
C2521 C2520 1.524 . S
C2521 C2522 1.397 . S
C2521 C2526 1.363 1_455 S
C2522 H2499 0.950 . S
C2522 C2521 1.397 . S
C2522 C2523 1.334 . S
C2523 H2500 0.950 . S
C2523 C2522 1.334 . S
C2523 C2524 1.287 . S
C2524 C2523 1.287 . S
C2524 C2525 1.524 1_455 S
C2524 H2543 0.913 . S
C2525 H2501 0.950 . S
C2525 C2524 1.524 1_655 S
C2525 C2526 1.415 . S
C2526 H2502 0.950 . S
C2526 C2521 1.363 1_655 S
C2526 C2525 1.415 . S
C2527 H2503 0.951 . S
C2527 C2528 1.366 . S
C2527 C2529 1.388 . S
C2528 C2527 1.366 . S
C2528 C2532 1.385 1_455 S
C2529 H2504 0.951 . S
C2529 C2527 1.388 . S
C2529 C2530 1.366 . S
C2530 C2529 1.366 . S
C2530 C2531 1.449 . S
C2530 C2533 1.499 . S
C2531 H2505 0.921 1_455 S
C2531 C2530 1.449 . S
C2531 C2532 1.370 1_455 S
C2532 H2506 0.950 . S
C2532 C2528 1.385 1_655 S
C2532 C2531 1.370 1_655 S
C2533 C2530 1.499 . S
C2533 C2534 1.373 . S
C2533 C2535 1.389 . S
C2534 H2507 0.950 . S
C2534 C2520 1.377 . S
C2534 C2533 1.373 . S
C2535 C2519 1.377 . S
C2535 C2533 1.389 . S
C2535 C2536 1.524 . S
C2536 C2535 1.524 . S
C2536 C2537 1.397 . S
C2536 C2541 1.363 . S
C2537 H2508 0.950 . S
C2537 C2536 1.397 . S
C2537 C2538 1.334 . S
C2538 H2509 0.950 . S
C2538 C2537 1.334 . S
C2538 C2539 1.287 . S
C2539 C2538 1.287 . S
C2539 C2540 1.524 . S
C2539 H2542 0.999 . S
C2540 H2510 0.950 . S
C2540 C2539 1.524 . S
C2540 C2541 1.415 . S
C2541 H2511 0.950 . S
C2541 C2536 1.363 . S
C2541 C2540 1.415 . S
H2542 C2539 0.999 . S
H2543 C2524 0.913 . S
H2544 C2562 0.951 . S
H2545 C2564 0.951 . S
H2546 C2566 0.950 . S
H2547 C2567 0.950 . S
H2548 C2569 0.950 . S
H2549 C2572 0.950 . S
H2550 C2573 0.950 . S
H2551 C2575 0.950 . S
H2552 C2576 0.950 . S
H2553 C2577 0.951 . S
H2554 C2579 0.951 . S
H2555 C2581 0.950 . S
H2556 C2582 0.950 . S
H2557 C2584 0.950 . S
H2558 C2587 0.950 . S
H2559 C2588 0.950 . S
H2560 C2590 0.950 . S
H2561 C2591 0.950 . S
C2562 H2544 0.951 . S
C2562 C2563 1.366 . S
C2562 C2564 1.388 . S
C2563 C2562 1.366 . S
C2563 C2567 1.385 . S
C2564 H2545 0.951 . S
C2564 C2562 1.388 . S
C2564 C2565 1.366 . S
C2565 C2564 1.366 . S
C2565 C2566 1.414 . S
C2565 C2568 1.499 . S
C2566 H2546 0.950 . S
C2566 C2565 1.414 . S
C2566 C2567 1.374 . S
C2567 H2547 0.950 . S
C2567 C2563 1.385 . S
C2567 C2566 1.374 . S
C2568 C2565 1.499 . S
C2568 C2569 1.373 . S
C2568 C2570 1.389 . S
C2569 H2548 0.950 . S
C2569 C2568 1.373 . S
C2569 C2585 1.377 . S
C2570 C2568 1.389 . S
C2570 C2571 1.524 . S
C2570 C2584 1.377 . S
C2571 C2570 1.524 . S
C2571 C2572 1.397 . S
C2571 C2576 1.363 . S
C2572 H2549 0.950 . S
C2572 C2571 1.397 . S
C2572 C2573 1.334 . S
C2573 H2550 0.950 . S
C2573 C2572 1.334 . S
C2573 C2574 1.287 . S
C2574 C2573 1.287 . S
C2574 C2575 1.524 . S
C2574 H2593 0.913 . S
C2575 H2551 0.950 . S
C2575 C2574 1.524 . S
C2575 C2576 1.415 . S
C2576 H2552 0.950 . S
C2576 C2571 1.363 . S
C2576 C2575 1.415 . S
C2577 H2553 0.951 . S
C2577 C2578 1.366 . S
C2577 C2579 1.388 . S
C2578 C2577 1.366 . S
C2578 C2582 1.385 . S
C2579 H2554 0.951 . S
C2579 C2577 1.388 . S
C2579 C2580 1.366 . S
C2580 C2579 1.366 . S
C2580 C2581 1.414 . S
C2580 C2583 1.499 . S
C2581 H2555 0.950 . S
C2581 C2580 1.414 . S
C2581 C2582 1.374 . S
C2582 H2556 0.950 . S
C2582 C2578 1.385 . S
C2582 C2581 1.374 . S
C2583 C2580 1.499 . S
C2583 C2584 1.373 . S
C2583 C2585 1.389 . S
C2584 H2557 0.950 . S
C2584 C2570 1.377 . S
C2584 C2583 1.373 . S
C2585 C2569 1.377 . S
C2585 C2583 1.389 . S
C2585 C2586 1.524 . S
C2586 C2585 1.524 . S
C2586 C2587 1.397 . S
C2586 C2591 1.363 . S
C2587 H2558 0.950 . S
C2587 C2586 1.397 . S
C2587 C2588 1.334 . S
C2588 H2559 0.950 . S
C2588 C2587 1.334 . S
C2588 C2589 1.287 . S
C2589 C2588 1.287 . S
C2589 C2590 1.524 . S
C2589 H2592 0.999 . S
C2590 H2560 0.950 . S
C2590 C2589 1.524 . S
C2590 C2591 1.415 . S
C2591 H2561 0.950 . S
C2591 C2586 1.363 . S
C2591 C2590 1.415 . S
H2592 C2589 0.999 . S
H2593 C2574 0.913 . S
H2594 C2612 0.951 . S
H2595 C2614 0.951 . S
H2596 C2616 0.950 . S
H2597 C2617 0.950 . S
H2598 C2619 0.950 . S
H2599 C2622 0.950 . S
H2600 C2623 0.950 1_556 S
H2601 C2625 0.950 . S
H2602 C2626 0.950 . S
H2603 C2627 0.951 . S
H2604 C2629 0.951 . S
H2605 C2631 0.950 . S
H2606 C2632 0.950 . S
H2607 C2634 0.950 . S
H2608 C2637 0.950 . S
H2609 C2638 0.950 . S
H2610 C2640 0.950 . S
H2611 C2641 0.950 . S
C2612 H2594 0.951 . S
C2612 C2613 1.366 . S
C2612 C2614 1.388 . S
C2613 C2612 1.366 . S
C2613 C2617 1.385 . S
C2614 H2595 0.951 . S
C2614 C2612 1.388 . S
C2614 C2615 1.366 . S
C2615 C2614 1.366 . S
C2615 C2616 1.414 . S
C2615 C2618 1.499 . S
C2616 H2596 0.950 . S
C2616 C2615 1.414 . S
C2616 C2617 1.374 . S
C2617 H2597 0.950 . S
C2617 C2613 1.385 . S
C2617 C2616 1.374 . S
C2618 C2615 1.499 . S
C2618 C2619 1.373 . S
C2618 C2620 1.389 . S
C2619 H2598 0.950 . S
C2619 C2618 1.373 . S
C2619 C2635 1.377 . S
C2620 C2618 1.389 . S
C2620 C2621 1.524 . S
C2620 C2634 1.377 . S
C2621 C2620 1.524 . S
C2621 C2622 1.397 . S
C2621 C2626 1.363 . S
C2622 H2599 0.950 . S
C2622 C2621 1.397 . S
C2622 C2623 1.334 . S
C2623 H2600 0.950 1_554 S
C2623 C2622 1.334 . S
C2623 C2624 1.287 . S
C2624 C2623 1.287 . S
C2624 C2625 1.524 . S
C2624 H2643 0.913 . S
C2625 H2601 0.950 . S
C2625 C2624 1.524 . S
C2625 C2626 1.415 . S
C2626 H2602 0.950 . S
C2626 C2621 1.363 . S
C2626 C2625 1.415 . S
C2627 H2603 0.951 . S
C2627 C2628 1.366 . S
C2627 C2629 1.388 . S
C2628 C2627 1.366 . S
C2628 C2632 1.385 . S
C2629 H2604 0.951 . S
C2629 C2627 1.388 . S
C2629 C2630 1.366 . S
C2630 C2629 1.366 . S
C2630 C2631 1.414 . S
C2630 C2633 1.499 . S
C2631 H2605 0.950 . S
C2631 C2630 1.414 . S
C2631 C2632 1.374 . S
C2632 H2606 0.950 . S
C2632 C2628 1.385 . S
C2632 C2631 1.374 . S
C2633 C2630 1.499 . S
C2633 C2634 1.373 . S
C2633 C2635 1.389 . S
C2634 H2607 0.950 . S
C2634 C2620 1.377 . S
C2634 C2633 1.373 . S
C2635 C2619 1.377 . S
C2635 C2633 1.389 . S
C2635 C2636 1.524 . S
C2636 C2635 1.524 . S
C2636 C2637 1.397 . S
C2636 C2641 1.363 . S
C2637 H2608 0.950 . S
C2637 C2636 1.397 . S
C2637 C2638 1.334 . S
C2638 H2609 0.950 . S
C2638 C2637 1.334 . S
C2638 C2639 1.287 . S
C2639 C2638 1.287 . S
C2639 C2640 1.524 . S
C2639 H2642 0.999 . S
C2640 H2610 0.950 . S
C2640 C2639 1.524 . S
C2640 C2641 1.415 . S
C2641 H2611 0.950 . S
C2641 C2636 1.363 . S
C2641 C2640 1.415 . S
H2642 C2639 0.999 . S
H2643 C2624 0.913 . S
H2644 C2662 0.951 . S
H2645 C2664 0.951 . S
H2646 C2666 0.950 . S
H2647 C2667 0.950 . S
H2648 C2669 0.950 . S
H2649 C2672 0.950 . S
H2650 C2673 0.950 . S
H2651 C2675 0.950 . S
H2652 C2676 0.950 . S
H2653 C2677 0.951 . S
H2654 C2679 0.951 . S
H2655 C2681 0.950 . S
H2656 C2682 0.950 . S
H2657 C2684 0.950 . S
H2658 C2687 0.950 . S
H2659 C2688 0.950 . S
H2660 C2690 0.950 . S
H2661 C2691 0.950 . S
C2662 H2644 0.951 . S
C2662 C2663 1.366 . S
C2662 C2664 1.388 . S
C2663 C2662 1.366 . S
C2663 C2667 1.385 . S
C2664 H2645 0.951 . S
C2664 C2662 1.388 . S
C2664 C2665 1.366 . S
C2665 C2664 1.366 . S
C2665 C2666 1.414 . S
C2665 C2668 1.499 . S
C2666 H2646 0.950 . S
C2666 C2665 1.414 . S
C2666 C2667 1.374 . S
C2667 H2647 0.950 . S
C2667 C2663 1.385 . S
C2667 C2666 1.374 . S
C2668 C2665 1.499 . S
C2668 C2669 1.373 . S
C2668 C2670 1.389 . S
C2669 H2648 0.950 . S
C2669 C2668 1.373 . S
C2669 C2685 1.377 . S
C2670 C2668 1.389 . S
C2670 C2671 1.524 . S
C2670 C2684 1.377 . S
C2671 C2670 1.524 . S
C2671 C2672 1.397 . S
C2671 C2676 1.363 . S
C2672 H2649 0.950 . S
C2672 C2671 1.397 . S
C2672 C2673 1.334 . S
C2673 H2650 0.950 . S
C2673 C2672 1.334 . S
C2673 C2674 1.287 . S
C2674 C2673 1.287 . S
C2674 C2675 1.524 . S
C2674 H2693 0.913 . S
C2675 H2651 0.950 . S
C2675 C2674 1.524 . S
C2675 C2676 1.415 . S
C2676 H2652 0.950 . S
C2676 C2671 1.363 . S
C2676 C2675 1.415 . S
C2677 H2653 0.951 . S
C2677 C2678 1.366 . S
C2677 C2679 1.388 . S
C2678 C2677 1.366 . S
C2678 C2682 1.385 . S
C2679 H2654 0.951 . S
C2679 C2677 1.388 . S
C2679 C2680 1.366 . S
C2680 C2679 1.366 . S
C2680 C2681 1.414 . S
C2680 C2683 1.499 . S
C2681 H2655 0.950 . S
C2681 C2680 1.414 . S
C2681 C2682 1.374 . S
C2682 H2656 0.950 . S
C2682 C2678 1.385 . S
C2682 C2681 1.374 . S
C2683 C2680 1.499 . S
C2683 C2684 1.373 . S
C2683 C2685 1.389 . S
C2684 H2657 0.950 . S
C2684 C2670 1.377 . S
C2684 C2683 1.373 . S
C2685 C2669 1.377 . S
C2685 C2683 1.389 . S
C2685 C2686 1.524 . S
C2686 C2685 1.524 . S
C2686 C2687 1.397 . S
C2686 C2691 1.363 . S
C2687 H2658 0.950 . S
C2687 C2686 1.397 . S
C2687 C2688 1.334 . S
C2688 H2659 0.950 . S
C2688 C2687 1.334 . S
C2688 C2689 1.287 . S
C2689 C2688 1.287 . S
C2689 C2690 1.524 . S
C2689 H2692 0.999 . S
C2690 H2660 0.950 . S
C2690 C2689 1.524 . S
C2690 C2691 1.415 . S
C2691 H2661 0.950 . S
C2691 C2686 1.363 . S
C2691 C2690 1.415 . S
H2692 C2689 0.999 . S
H2693 C2674 0.913 . S
H2694 C2712 0.951 . S
H2695 C2714 0.951 . S
H2696 C2716 0.950 . S
H2697 C2717 0.950 . S
H2698 C2719 0.950 . S
H2699 C2722 0.950 . S
H2700 C2723 0.950 . S
H2701 C2725 0.950 . S
H2702 C2726 0.950 . S
H2703 C2727 0.951 . S
H2704 C2729 0.951 . S
H2705 C2731 0.950 . S
H2706 C2732 0.950 . S
H2707 C2734 0.950 . S
H2708 C2737 0.950 . S
H2709 C2738 0.950 . S
H2710 C2740 0.950 . S
H2711 C2741 0.950 . S
C2712 H2694 0.951 . S
C2712 C2713 1.366 . S
C2712 C2714 1.388 . S
C2713 C2712 1.366 . S
C2713 C2717 1.385 . S
C2714 H2695 0.951 . S
C2714 C2712 1.388 . S
C2714 C2715 1.366 . S
C2715 C2714 1.366 . S
C2715 C2716 1.414 . S
C2715 C2718 1.499 . S
C2716 H2696 0.950 . S
C2716 C2715 1.414 . S
C2716 C2717 1.374 . S
C2717 H2697 0.950 . S
C2717 C2713 1.385 . S
C2717 C2716 1.374 . S
C2718 C2715 1.499 . S
C2718 C2719 1.373 . S
C2718 C2720 1.389 . S
C2719 H2698 0.950 . S
C2719 C2718 1.373 . S
C2719 C2735 1.377 . S
C2720 C2718 1.389 . S
C2720 C2721 1.524 . S
C2720 C2734 1.377 . S
C2721 C2720 1.524 . S
C2721 C2722 1.397 . S
C2721 C2726 1.363 . S
C2722 H2699 0.950 . S
C2722 C2721 1.397 . S
C2722 C2723 1.334 . S
C2723 H2700 0.950 . S
C2723 C2722 1.334 . S
C2723 C2724 1.287 . S
C2724 C2723 1.287 . S
C2724 C2725 1.524 . S
C2724 H2743 0.913 . S
C2725 H2701 0.950 . S
C2725 C2724 1.524 . S
C2725 C2726 1.415 . S
C2726 H2702 0.950 . S
C2726 C2721 1.363 . S
C2726 C2725 1.415 . S
C2727 H2703 0.951 . S
C2727 C2728 1.366 . S
C2727 C2729 1.388 . S
C2728 C2727 1.366 . S
C2728 C2732 1.385 . S
C2729 H2704 0.951 . S
C2729 C2727 1.388 . S
C2729 C2730 1.366 . S
C2730 C2729 1.366 . S
C2730 C2731 1.414 . S
C2730 C2733 1.499 . S
C2731 H2705 0.950 . S
C2731 C2730 1.414 . S
C2731 C2732 1.374 . S
C2732 H2706 0.950 . S
C2732 C2728 1.385 . S
C2732 C2731 1.374 . S
C2733 C2730 1.499 . S
C2733 C2734 1.373 . S
C2733 C2735 1.389 . S
C2734 H2707 0.950 . S
C2734 C2720 1.377 . S
C2734 C2733 1.373 . S
C2735 C2719 1.377 . S
C2735 C2733 1.389 . S
C2735 C2736 1.524 . S
C2736 C2735 1.524 . S
C2736 C2737 1.397 . S
C2736 C2741 1.363 . S
C2737 H2708 0.950 . S
C2737 C2736 1.397 . S
C2737 C2738 1.334 . S
C2738 H2709 0.950 . S
C2738 C2737 1.334 . S
C2738 C2739 1.287 . S
C2739 C2738 1.287 . S
C2739 C2740 1.524 . S
C2739 H2742 0.999 . S
C2740 H2710 0.950 . S
C2740 C2739 1.524 . S
C2740 C2741 1.415 . S
C2741 H2711 0.950 . S
C2741 C2736 1.363 . S
C2741 C2740 1.415 . S
H2742 C2739 0.999 . S
H2743 C2724 0.913 . S
H2744 C2762 0.951 . S
H2745 C2764 0.951 . S
H2746 C2766 0.950 . S
H2747 C2767 0.950 . S
H2748 C2769 0.950 . S
H2749 C2772 0.950 . S
H2750 C2773 0.950 . S
H2751 C2775 0.950 . S
H2752 C2776 0.950 . S
H2753 C2777 0.951 . S
H2754 C2779 0.951 . S
H2755 C2781 0.950 . S
H2756 C2782 0.950 . S
H2757 C2784 0.950 . S
H2758 C2787 0.950 . S
H2759 C2788 0.950 . S
H2760 C2790 0.950 . S
H2761 C2791 0.950 . S
C2762 H2744 0.951 . S
C2762 C2763 1.366 . S
C2762 C2764 1.388 . S
C2763 C2762 1.366 . S
C2763 C2767 1.385 . S
C2764 H2745 0.951 . S
C2764 C2762 1.388 . S
C2764 C2765 1.366 . S
C2765 C2764 1.366 . S
C2765 C2766 1.414 . S
C2765 C2768 1.499 . S
C2766 H2746 0.950 . S
C2766 C2765 1.414 . S
C2766 C2767 1.374 . S
C2767 H2747 0.950 . S
C2767 C2763 1.385 . S
C2767 C2766 1.374 . S
C2768 C2765 1.499 . S
C2768 C2769 1.373 . S
C2768 C2770 1.389 . S
C2769 H2748 0.950 . S
C2769 C2768 1.373 . S
C2769 C2785 1.377 . S
C2770 C2768 1.389 . S
C2770 C2771 1.524 . S
C2770 C2784 1.377 . S
C2771 C2770 1.524 . S
C2771 C2772 1.397 . S
C2771 C2776 1.363 . S
C2772 H2749 0.950 . S
C2772 C2771 1.397 . S
C2772 C2773 1.334 . S
C2773 H2750 0.950 . S
C2773 C2772 1.334 . S
C2773 C2774 1.287 . S
C2774 C2773 1.287 . S
C2774 C2775 1.524 . S
C2774 H2793 0.913 . S
C2775 H2751 0.950 . S
C2775 C2774 1.524 . S
C2775 C2776 1.415 . S
C2776 H2752 0.950 . S
C2776 C2771 1.363 . S
C2776 C2775 1.415 . S
C2777 H2753 0.951 . S
C2777 C2778 1.366 . S
C2777 C2779 1.388 . S
C2778 C2777 1.366 . S
C2778 C2782 1.385 . S
C2779 H2754 0.951 . S
C2779 C2777 1.388 . S
C2779 C2780 1.366 . S
C2780 C2779 1.366 . S
C2780 C2781 1.414 . S
C2780 C2783 1.499 . S
C2781 H2755 0.950 . S
C2781 C2780 1.414 . S
C2781 C2782 1.374 . S
C2782 H2756 0.950 . S
C2782 C2778 1.385 . S
C2782 C2781 1.374 . S
C2783 C2780 1.499 . S
C2783 C2784 1.373 . S
C2783 C2785 1.389 . S
C2784 H2757 0.950 . S
C2784 C2770 1.377 . S
C2784 C2783 1.373 . S
C2785 C2769 1.377 . S
C2785 C2783 1.389 . S
C2785 C2786 1.524 . S
C2786 C2785 1.524 . S
C2786 C2787 1.397 . S
C2786 C2791 1.363 . S
C2787 H2758 0.950 . S
C2787 C2786 1.397 . S
C2787 C2788 1.334 . S
C2788 H2759 0.950 . S
C2788 C2787 1.334 . S
C2788 C2789 1.287 . S
C2789 C2788 1.287 . S
C2789 C2790 1.524 . S
C2789 H2792 0.999 . S
C2790 H2760 0.950 . S
C2790 C2789 1.524 . S
C2790 C2791 1.415 . S
C2791 H2761 0.950 . S
C2791 C2786 1.363 . S
C2791 C2790 1.415 . S
H2792 C2789 0.999 . S
H2793 C2774 0.913 . S
H2794 C2812 0.951 . S
H2795 C2814 0.951 . S
H2796 C2816 0.950 . S
H2797 C2817 0.950 . S
H2798 C2819 0.950 . S
H2799 C2822 0.950 . S
H2800 C2823 0.950 . S
H2801 C2825 0.950 . S
H2802 C2826 0.950 . S
H2803 C2827 0.951 . S
H2804 C2829 0.951 . S
H2805 C2831 0.950 . S
H2806 C2832 0.950 . S
H2807 C2834 0.950 . S
H2808 C2837 0.950 . S
H2809 C2838 0.950 . S
H2810 C2840 0.950 . S
H2811 C2841 0.950 . S
C2812 H2794 0.951 . S
C2812 C2813 1.366 . S
C2812 C2814 1.388 . S
C2813 C2812 1.366 . S
C2813 C2817 1.385 . S
C2814 H2795 0.951 . S
C2814 C2812 1.388 . S
C2814 C2815 1.366 . S
C2815 C2814 1.366 . S
C2815 C2816 1.414 . S
C2815 C2818 1.499 . S
C2816 H2796 0.950 . S
C2816 C2815 1.414 . S
C2816 C2817 1.374 . S
C2817 H2797 0.950 . S
C2817 C2813 1.385 . S
C2817 C2816 1.374 . S
C2818 C2815 1.499 . S
C2818 C2819 1.373 . S
C2818 C2820 1.389 . S
C2819 H2798 0.950 . S
C2819 C2818 1.373 . S
C2819 C2835 1.377 . S
C2820 C2818 1.389 . S
C2820 C2821 1.524 . S
C2820 C2834 1.377 . S
C2821 C2820 1.524 . S
C2821 C2822 1.397 . S
C2821 C2826 1.363 . S
C2822 H2799 0.950 . S
C2822 C2821 1.397 . S
C2822 C2823 1.334 . S
C2823 H2800 0.950 . S
C2823 C2822 1.334 . S
C2823 C2824 1.287 . S
C2824 C2823 1.287 . S
C2824 C2825 1.524 . S
C2824 H2843 0.913 . S
C2825 H2801 0.950 . S
C2825 C2824 1.524 . S
C2825 C2826 1.415 . S
C2826 H2802 0.950 . S
C2826 C2821 1.363 . S
C2826 C2825 1.415 . S
C2827 H2803 0.951 . S
C2827 C2828 1.366 . S
C2827 C2829 1.388 . S
C2828 C2827 1.366 . S
C2828 C2832 1.385 . S
C2829 H2804 0.951 . S
C2829 C2827 1.388 . S
C2829 C2830 1.366 . S
C2830 C2829 1.366 . S
C2830 C2831 1.414 . S
C2830 C2833 1.499 . S
C2831 H2805 0.950 . S
C2831 C2830 1.414 . S
C2831 C2832 1.374 . S
C2832 H2806 0.950 . S
C2832 C2828 1.385 . S
C2832 C2831 1.374 . S
C2833 C2830 1.499 . S
C2833 C2834 1.373 . S
C2833 C2835 1.389 . S
C2834 H2807 0.950 . S
C2834 C2820 1.377 . S
C2834 C2833 1.373 . S
C2835 C2819 1.377 . S
C2835 C2833 1.389 . S
C2835 C2836 1.524 . S
C2836 C2835 1.524 . S
C2836 C2837 1.397 . S
C2836 C2841 1.363 . S
C2837 H2808 0.950 . S
C2837 C2836 1.397 . S
C2837 C2838 1.334 . S
C2838 H2809 0.950 . S
C2838 C2837 1.334 . S
C2838 C2839 1.287 . S
C2839 C2838 1.287 . S
C2839 C2840 1.524 . S
C2839 H2842 0.999 . S
C2840 H2810 0.950 . S
C2840 C2839 1.524 . S
C2840 C2841 1.415 . S
C2841 H2811 0.950 . S
C2841 C2836 1.363 . S
C2841 C2840 1.415 . S
H2842 C2839 0.999 . S
H2843 C2824 0.913 . S
H2844 C2862 0.951 . S
H2845 C2864 0.951 . S
H2846 C2866 0.950 . S
H2847 C2867 0.950 . S
H2848 C2869 0.950 . S
H2849 C2872 0.950 . S
H2850 C2873 0.950 . S
H2851 C2875 0.950 . S
H2852 C2876 0.950 . S
H2853 C2877 0.951 . S
H2854 C2879 0.951 . S
H2855 C2881 0.950 . S
H2856 C2882 0.950 . S
H2857 C2884 0.950 . S
H2858 C2887 0.950 . S
H2859 C2888 0.950 . S
H2860 C2890 0.950 . S
H2861 C2891 0.950 . S
C2862 H2844 0.951 . S
C2862 C2863 1.366 . S
C2862 C2864 1.388 . S
C2863 C2862 1.366 . S
C2863 C2867 1.385 . S
C2864 H2845 0.951 . S
C2864 C2862 1.388 . S
C2864 C2865 1.366 . S
C2865 C2864 1.366 . S
C2865 C2866 1.414 . S
C2865 C2868 1.499 . S
C2866 H2846 0.950 . S
C2866 C2865 1.414 . S
C2866 C2867 1.374 . S
C2867 H2847 0.950 . S
C2867 C2863 1.385 . S
C2867 C2866 1.374 . S
C2868 C2865 1.499 . S
C2868 C2869 1.373 . S
C2868 C2870 1.389 . S
C2869 H2848 0.950 . S
C2869 C2868 1.373 . S
C2869 C2885 1.377 . S
C2870 C2868 1.389 . S
C2870 C2871 1.524 . S
C2870 C2884 1.377 . S
C2871 C2870 1.524 . S
C2871 C2872 1.397 . S
C2871 C2876 1.363 . S
C2872 H2849 0.950 . S
C2872 C2871 1.397 . S
C2872 C2873 1.334 . S
C2873 H2850 0.950 . S
C2873 C2872 1.334 . S
C2873 C2874 1.287 . S
C2874 C2873 1.287 . S
C2874 C2875 1.524 . S
C2874 H2893 0.913 . S
C2875 H2851 0.950 . S
C2875 C2874 1.524 . S
C2875 C2876 1.415 . S
C2876 H2852 0.950 . S
C2876 C2871 1.363 . S
C2876 C2875 1.415 . S
C2877 H2853 0.951 . S
C2877 C2878 1.366 . S
C2877 C2879 1.388 . S
C2878 C2877 1.366 . S
C2878 C2882 1.385 . S
C2879 H2854 0.951 . S
C2879 C2877 1.388 . S
C2879 C2880 1.366 . S
C2880 C2879 1.366 . S
C2880 C2881 1.414 . S
C2880 C2883 1.499 . S
C2881 H2855 0.950 . S
C2881 C2880 1.414 . S
C2881 C2882 1.374 . S
C2882 H2856 0.950 . S
C2882 C2878 1.385 . S
C2882 C2881 1.374 . S
C2883 C2880 1.499 . S
C2883 C2884 1.373 . S
C2883 C2885 1.389 . S
C2884 H2857 0.950 . S
C2884 C2870 1.377 . S
C2884 C2883 1.373 . S
C2885 C2869 1.377 . S
C2885 C2883 1.389 . S
C2885 C2886 1.524 . S
C2886 C2885 1.524 . S
C2886 C2887 1.397 . S
C2886 C2891 1.363 . S
C2887 H2858 0.950 . S
C2887 C2886 1.397 . S
C2887 C2888 1.334 . S
C2888 H2859 0.950 . S
C2888 C2887 1.334 . S
C2888 C2889 1.287 . S
C2889 C2888 1.287 . S
C2889 C2890 1.524 . S
C2889 H2892 0.999 . S
C2890 H2860 0.950 . S
C2890 C2889 1.524 . S
C2890 C2891 1.415 . S
C2891 H2861 0.950 . S
C2891 C2886 1.363 . S
C2891 C2890 1.415 . S
H2892 C2889 0.999 . S
H2893 C2874 0.913 . S
H2894 C2912 0.951 . S
H2895 C2914 0.951 . S
H2896 C2916 0.950 . S
H2897 C2917 0.950 . S
H2898 C2919 0.950 . S
H2899 C2922 0.950 . S
H2900 C2923 0.950 . S
H2901 C2925 0.950 . S
H2902 C2926 0.950 . S
H2903 C2927 0.951 . S
H2904 C2929 0.951 . S
H2905 C2931 0.950 . S
H2906 C2932 0.950 . S
H2907 C2934 0.950 . S
H2908 C2937 0.950 . S
H2909 C2938 0.950 . S
H2910 C2940 0.950 . S
H2911 C2941 0.950 . S
C2912 H2894 0.951 . S
C2912 C2913 1.366 . S
C2912 C2914 1.388 . S
C2913 C2912 1.366 . S
C2913 C2917 1.385 . S
C2914 H2895 0.951 . S
C2914 C2912 1.388 . S
C2914 C2915 1.366 . S
C2915 C2914 1.366 . S
C2915 C2916 1.414 . S
C2915 C2918 1.499 . S
C2916 H2896 0.950 . S
C2916 C2915 1.414 . S
C2916 C2917 1.374 . S
C2917 H2897 0.950 . S
C2917 C2913 1.385 . S
C2917 C2916 1.374 . S
C2918 C2915 1.499 . S
C2918 C2919 1.373 . S
C2918 C2920 1.389 . S
C2919 H2898 0.950 . S
C2919 C2918 1.373 . S
C2919 C2935 1.377 . S
C2920 C2918 1.389 . S
C2920 C2921 1.524 . S
C2920 C2934 1.377 . S
C2921 C2920 1.524 . S
C2921 C2922 1.397 . S
C2921 C2926 1.363 . S
C2922 H2899 0.950 . S
C2922 C2921 1.397 . S
C2922 C2923 1.334 . S
C2923 H2900 0.950 . S
C2923 C2922 1.334 . S
C2923 C2924 1.287 . S
C2924 C2923 1.287 . S
C2924 C2925 1.524 . S
C2924 H2943 0.913 . S
C2925 H2901 0.950 . S
C2925 C2924 1.524 . S
C2925 C2926 1.415 . S
C2926 H2902 0.950 . S
C2926 C2921 1.363 . S
C2926 C2925 1.415 . S
C2927 H2903 0.951 . S
C2927 C2928 1.366 . S
C2927 C2929 1.388 . S
C2928 C2927 1.366 . S
C2928 C2932 1.385 . S
C2929 H2904 0.951 . S
C2929 C2927 1.388 . S
C2929 C2930 1.366 . S
C2930 C2929 1.366 . S
C2930 C2931 1.414 . S
C2930 C2933 1.499 . S
C2931 H2905 0.950 . S
C2931 C2930 1.414 . S
C2931 C2932 1.374 . S
C2932 H2906 0.950 . S
C2932 C2928 1.385 . S
C2932 C2931 1.374 . S
C2933 C2930 1.499 . S
C2933 C2934 1.373 . S
C2933 C2935 1.389 . S
C2934 H2907 0.950 . S
C2934 C2920 1.377 . S
C2934 C2933 1.373 . S
C2935 C2919 1.377 . S
C2935 C2933 1.389 . S
C2935 C2936 1.524 . S
C2936 C2935 1.524 . S
C2936 C2937 1.397 . S
C2936 C2941 1.363 . S
C2937 H2908 0.950 . S
C2937 C2936 1.397 . S
C2937 C2938 1.334 . S
C2938 H2909 0.950 . S
C2938 C2937 1.334 . S
C2938 C2939 1.287 . S
C2939 C2938 1.287 . S
C2939 C2940 1.524 . S
C2939 H2942 0.999 . S
C2940 H2910 0.950 . S
C2940 C2939 1.524 . S
C2940 C2941 1.415 . S
C2941 H2911 0.950 . S
C2941 C2936 1.363 . S
C2941 C2940 1.415 . S
H2942 C2939 0.999 . S
H2943 C2924 0.913 . S
H2944 C2962 0.951 . S
H2945 C2964 0.954 1_554 S
H2946 C2966 0.950 . S
H2947 C2967 0.950 . S
H2948 C2969 0.950 . S
H2949 C2972 0.950 . S
H2950 C2973 0.966 . S
H2951 C2975 0.950 . S
H2952 C2976 0.950 . S
H2953 C2977 0.951 . S
H2954 C2979 0.951 . S
H2955 C2981 0.950 . S
H2956 C2982 0.950 . S
H2957 C2984 0.950 1_554 S
H2958 C2987 0.950 . S
H2959 C2988 0.950 . S
H2960 C2990 0.950 . S
H2961 C2991 0.950 . S
C2962 H2944 0.951 . S
C2962 C2963 1.366 . S
C2962 C2964 1.388 . S
C2963 C2962 1.366 . S
C2963 C2967 1.385 . S
C2964 H2945 0.954 1_556 S
C2964 C2962 1.388 . S
C2964 C2965 1.366 . S
C2965 C2964 1.366 . S
C2965 C2966 1.414 . S
C2965 C2968 1.499 . S
C2966 H2946 0.950 . S
C2966 C2965 1.414 . S
C2966 C2967 1.374 . S
C2967 H2947 0.950 . S
C2967 C2963 1.385 . S
C2967 C2966 1.374 . S
C2968 C2965 1.499 . S
C2968 C2969 1.373 . S
C2968 C2970 1.389 . S
C2969 H2948 0.950 . S
C2969 C2968 1.373 . S
C2969 C2985 1.377 . S
C2970 C2968 1.389 . S
C2970 C2971 1.524 1_556 S
C2970 C2984 1.377 . S
C2971 C2970 1.524 1_554 S
C2971 C2972 1.397 1_554 S
C2971 C2976 1.363 . S
C2972 H2949 0.950 . S
C2972 C2971 1.397 1_556 S
C2972 C2973 1.348 . S
C2973 H2950 0.966 . S
C2973 C2972 1.348 . S
C2973 C2974 1.258 1_556 S
C2974 C2973 1.258 1_554 S
C2974 C2975 1.524 . S
C2974 H2993 0.913 . S
C2975 H2951 0.950 . S
C2975 C2974 1.524 . S
C2975 C2976 1.415 . S
C2976 H2952 0.950 . S
C2976 C2971 1.363 . S
C2976 C2975 1.415 . S
C2977 H2953 0.951 . S
C2977 C2978 1.366 . S
C2977 C2979 1.388 . S
C2978 C2977 1.366 . S
C2978 C2982 1.385 1_556 S
C2979 H2954 0.951 . S
C2979 C2977 1.388 . S
C2979 C2980 1.366 . S
C2980 C2979 1.366 . S
C2980 C2981 1.414 1_556 S
C2980 C2983 1.499 . S
C2981 H2955 0.950 . S
C2981 C2980 1.414 1_554 S
C2981 C2982 1.374 . S
C2982 H2956 0.950 . S
C2982 C2978 1.385 1_554 S
C2982 C2981 1.374 . S
C2983 C2980 1.499 . S
C2983 C2984 1.373 . S
C2983 C2985 1.389 . S
C2984 H2957 0.950 1_556 S
C2984 C2970 1.377 . S
C2984 C2983 1.373 . S
C2985 C2969 1.377 . S
C2985 C2983 1.389 . S
C2985 C2986 1.524 . S
C2986 C2985 1.524 . S
C2986 C2987 1.397 . S
C2986 C2991 1.363 . S
C2987 H2958 0.950 . S
C2987 C2986 1.397 . S
C2987 C2988 1.334 . S
C2988 H2959 0.950 . S
C2988 C2987 1.334 . S
C2988 C2989 1.287 . S
C2989 C2988 1.287 . S
C2989 C2990 1.524 . S
C2989 H2992 0.999 . S
C2990 H2960 0.950 . S
C2990 C2989 1.524 . S
C2990 C2991 1.415 . S
C2991 H2961 0.950 . S
C2991 C2986 1.363 . S
C2991 C2990 1.415 . S
H2992 C2989 0.999 . S
H2993 C2974 0.913 . S
H2994 C3012 0.951 . S
H2995 C3014 0.951 . S
H2996 C3016 0.950 . S
H2997 C3017 0.950 . S
H2998 C3019 0.950 . S
H2999 C3022 0.950 . S
H3000 C3023 0.950 . S
H3001 C3025 0.950 . S
H3002 C3026 0.950 . S
H3003 C3027 0.951 . S
H3004 C3029 0.951 . S
H3005 C3031 0.950 . S
H3006 C3032 0.950 . S
H3007 C3034 0.950 . S
H3008 C3037 0.950 . S
H3009 C3038 0.950 . S
H3010 C3040 0.950 . S
H3011 C3041 0.950 . S
C3012 H2994 0.951 . S
C3012 C3013 1.366 . S
C3012 C3014 1.388 . S
C3013 C3012 1.366 . S
C3013 C3017 1.385 . S
C3014 H2995 0.951 . S
C3014 C3012 1.388 . S
C3014 C3015 1.366 . S
C3015 C3014 1.366 . S
C3015 C3016 1.414 . S
C3015 C3018 1.499 . S
C3016 H2996 0.950 . S
C3016 C3015 1.414 . S
C3016 C3017 1.374 . S
C3017 H2997 0.950 . S
C3017 C3013 1.385 . S
C3017 C3016 1.374 . S
C3018 C3015 1.499 . S
C3018 C3019 1.373 . S
C3018 C3020 1.389 . S
C3019 H2998 0.950 . S
C3019 C3018 1.373 . S
C3019 C3035 1.377 . S
C3020 C3018 1.389 . S
C3020 C3021 1.524 . S
C3020 C3034 1.377 . S
C3021 C3020 1.524 . S
C3021 C3022 1.397 . S
C3021 C3026 1.363 . S
C3022 H2999 0.950 . S
C3022 C3021 1.397 . S
C3022 C3023 1.334 . S
C3023 H3000 0.950 . S
C3023 C3022 1.334 . S
C3023 C3024 1.287 . S
C3024 C3023 1.287 . S
C3024 C3025 1.524 . S
C3024 H3043 0.913 . S
C3025 H3001 0.950 . S
C3025 C3024 1.524 . S
C3025 C3026 1.415 . S
C3026 H3002 0.950 . S
C3026 C3021 1.363 . S
C3026 C3025 1.415 . S
C3027 H3003 0.951 . S
C3027 C3028 1.366 . S
C3027 C3029 1.388 . S
C3028 C3027 1.366 . S
C3028 C3032 1.385 . S
C3029 H3004 0.951 . S
C3029 C3027 1.388 . S
C3029 C3030 1.366 . S
C3030 C3029 1.366 . S
C3030 C3031 1.414 . S
C3030 C3033 1.499 . S
C3031 H3005 0.950 . S
C3031 C3030 1.414 . S
C3031 C3032 1.374 . S
C3032 H3006 0.950 . S
C3032 C3028 1.385 . S
C3032 C3031 1.374 . S
C3033 C3030 1.499 . S
C3033 C3034 1.373 . S
C3033 C3035 1.389 . S
C3034 H3007 0.950 . S
C3034 C3020 1.377 . S
C3034 C3033 1.373 . S
C3035 C3019 1.377 . S
C3035 C3033 1.389 . S
C3035 C3036 1.524 . S
C3036 C3035 1.524 . S
C3036 C3037 1.397 . S
C3036 C3041 1.363 . S
C3037 H3008 0.950 . S
C3037 C3036 1.397 . S
C3037 C3038 1.334 . S
C3038 H3009 0.950 . S
C3038 C3037 1.334 . S
C3038 C3039 1.287 . S
C3039 C3038 1.287 . S
C3039 C3040 1.524 . S
C3039 H3042 0.999 . S
C3040 H3010 0.950 . S
C3040 C3039 1.524 . S
C3040 C3041 1.415 . S
C3041 H3011 0.950 . S
C3041 C3036 1.363 . S
C3041 C3040 1.415 . S
H3042 C3039 0.999 . S
H3043 C3024 0.913 . S
H3044 C3062 0.951 . S
H3045 C3064 0.951 . S
H3046 C3066 0.950 . S
H3047 C3067 0.950 . S
H3048 C3069 0.950 . S
H3049 C3072 0.954 . S
H3050 C3073 0.950 . S
H3051 C3075 0.950 . S
H3052 C3076 0.950 . S
H3053 C3077 0.951 . S
H3054 C3079 0.951 . S
H3055 C3081 0.950 . S
H3056 C3082 0.950 . S
H3057 C3084 0.950 . S
H3058 C3087 0.950 . S
H3059 C3088 0.950 . S
H3060 C3090 0.950 . S
H3061 C3091 0.950 . S
C3062 H3044 0.951 . S
C3062 C3063 1.366 . S
C3062 C3064 1.388 . S
C3063 C3062 1.366 . S
C3063 C3067 1.385 . S
C3064 H3045 0.951 . S
C3064 C3062 1.388 . S
C3064 C3065 1.366 . S
C3065 C3064 1.366 . S
C3065 C3066 1.414 . S
C3065 C3068 1.499 . S
C3066 H3046 0.950 . S
C3066 C3065 1.414 . S
C3066 C3067 1.374 . S
C3067 H3047 0.950 . S
C3067 C3063 1.385 . S
C3067 C3066 1.374 . S
C3068 C3065 1.499 . S
C3068 C3069 1.373 . S
C3068 C3070 1.389 . S
C3069 H3048 0.950 . S
C3069 C3068 1.373 . S
C3069 C3085 1.377 . S
C3070 C3068 1.389 . S
C3070 C3071 1.524 . S
C3070 C3084 1.377 . S
C3071 C3070 1.524 . S
C3071 C3072 1.397 1_554 S
C3071 C3076 1.363 . S
C3072 H3049 0.954 . S
C3072 C3071 1.397 1_556 S
C3072 C3073 1.334 . S
C3073 H3050 0.950 . S
C3073 C3072 1.334 . S
C3073 C3074 1.287 . S
C3074 C3073 1.287 . S
C3074 C3075 1.524 . S
C3074 H3093 0.913 . S
C3075 H3051 0.950 . S
C3075 C3074 1.524 . S
C3075 C3076 1.415 1_556 S
C3076 H3052 0.950 . S
C3076 C3071 1.363 . S
C3076 C3075 1.415 1_554 S
C3077 H3053 0.951 . S
C3077 C3078 1.366 . S
C3077 C3079 1.388 . S
C3078 C3077 1.366 . S
C3078 C3082 1.385 . S
C3079 H3054 0.951 . S
C3079 C3077 1.388 . S
C3079 C3080 1.366 . S
C3080 C3079 1.366 . S
C3080 C3081 1.414 . S
C3080 C3083 1.499 . S
C3081 H3055 0.950 . S
C3081 C3080 1.414 . S
C3081 C3082 1.374 . S
C3082 H3056 0.950 . S
C3082 C3078 1.385 . S
C3082 C3081 1.374 . S
C3083 C3080 1.499 . S
C3083 C3084 1.373 . S
C3083 C3085 1.389 . S
C3084 H3057 0.950 . S
C3084 C3070 1.377 . S
C3084 C3083 1.373 . S
C3085 C3069 1.377 . S
C3085 C3083 1.389 . S
C3085 C3086 1.524 . S
C3086 C3085 1.524 . S
C3086 C3087 1.397 . S
C3086 C3091 1.363 . S
C3087 H3058 0.950 . S
C3087 C3086 1.397 . S
C3087 C3088 1.334 . S
C3088 H3059 0.950 . S
C3088 C3087 1.334 . S
C3088 C3089 1.287 . S
C3089 C3088 1.287 . S
C3089 C3090 1.524 . S
C3089 H3092 0.999 . S
C3090 H3060 0.950 . S
C3090 C3089 1.524 . S
C3090 C3091 1.415 . S
C3091 H3061 0.950 . S
C3091 C3086 1.363 . S
C3091 C3090 1.415 . S
H3092 C3089 0.999 . S
H3093 C3074 0.913 . S
H3094 C3112 0.951 1_545 S
H3095 C3114 0.951 . S
H3096 C3116 0.950 . S
H3097 C3117 0.950 . S
H3098 C3119 0.950 . S
H3099 C3122 0.950 . S
H3100 C3123 0.950 . S
H3101 C3125 0.950 . S
H3102 C3126 0.950 . S
H3103 C3127 0.951 . S
H3104 C3129 0.951 . S
H3105 C3131 0.950 . S
H3106 C3132 0.950 . S
H3107 C3134 0.950 . S
H3108 C3137 0.950 . S
H3109 C3138 0.950 . S
H3110 C3140 0.950 . S
H3111 C3141 0.950 . S
C3112 H3094 0.951 1_565 S
C3112 C3113 1.366 . S
C3112 C3114 1.388 . S
C3113 C3112 1.366 . S
C3113 C3117 1.385 . S
C3114 H3095 0.951 . S
C3114 C3112 1.388 . S
C3114 C3115 1.366 . S
C3115 C3114 1.366 . S
C3115 C3116 1.414 . S
C3115 C3118 1.499 . S
C3116 H3096 0.950 . S
C3116 C3115 1.414 . S
C3116 C3117 1.374 . S
C3117 H3097 0.950 . S
C3117 C3113 1.385 . S
C3117 C3116 1.374 . S
C3118 C3115 1.499 . S
C3118 C3119 1.373 . S
C3118 C3120 1.389 . S
C3119 H3098 0.950 . S
C3119 C3118 1.373 . S
C3119 C3135 1.377 . S
C3120 C3118 1.389 . S
C3120 C3121 1.524 . S
C3120 C3134 1.377 . S
C3121 C3120 1.524 . S
C3121 C3122 1.397 1_554 S
C3121 C3126 1.363 . S
C3122 H3099 0.950 . S
C3122 C3121 1.397 1_556 S
C3122 C3123 1.334 . S
C3123 H3100 0.950 . S
C3123 C3122 1.334 . S
C3123 C3124 1.287 1_565 S
C3124 C3123 1.287 1_545 S
C3124 C3125 1.524 . S
C3124 H3143 0.913 . S
C3125 H3101 0.950 . S
C3125 C3124 1.524 . S
C3125 C3126 1.415 1_546 S
C3126 H3102 0.950 . S
C3126 C3121 1.363 . S
C3126 C3125 1.415 1_564 S
C3127 H3103 0.951 . S
C3127 C3128 1.366 . S
C3127 C3129 1.388 . S
C3128 C3127 1.366 . S
C3128 C3132 1.385 . S
C3129 H3104 0.951 . S
C3129 C3127 1.388 . S
C3129 C3130 1.366 . S
C3130 C3129 1.366 . S
C3130 C3131 1.414 . S
C3130 C3133 1.499 . S
C3131 H3105 0.950 . S
C3131 C3130 1.414 . S
C3131 C3132 1.374 . S
C3132 H3106 0.950 . S
C3132 C3128 1.385 . S
C3132 C3131 1.374 . S
C3133 C3130 1.499 . S
C3133 C3134 1.373 . S
C3133 C3135 1.389 . S
C3134 H3107 0.950 . S
C3134 C3120 1.377 . S
C3134 C3133 1.373 . S
C3135 C3119 1.377 . S
C3135 C3133 1.389 . S
C3135 C3136 1.524 . S
C3136 C3135 1.524 . S
C3136 C3137 1.397 . S
C3136 C3141 1.363 . S
C3137 H3108 0.950 . S
C3137 C3136 1.397 . S
C3137 C3138 1.334 . S
C3138 H3109 0.950 . S
C3138 C3137 1.334 . S
C3138 C3139 1.287 . S
C3139 C3138 1.287 . S
C3139 C3140 1.524 . S
C3139 H3142 0.999 . S
C3140 H3110 0.950 . S
C3140 C3139 1.524 . S
C3140 C3141 1.415 . S
C3141 H3111 0.950 . S
C3141 C3136 1.363 . S
C3141 C3140 1.415 . S
H3142 C3139 0.999 . S
H3143 C3124 0.913 . S
C778 C584 1.484 . S
C763 C181 1.509 . S
C828 C597 1.470 . S
C813 C247 1.469 1_455 S
C863 C283 1.668 . S
C878 C617 1.570 . S
C928 C631 1.356 . S
C913 C169 1.463 . S
C978 C643 1.525 . S
C963 C361 1.529 . S
C1028 C657 1.406 . S
C1013 C433 1.404 . S
C1063 C421 1.487 . S
C1078 C667 1.481 . S
C1128 C682 1.524 . S
C1113 C355 1.550 . S
C1163 C427 1.534 . S
C1178 C696 1.508 . S
C1228 C715 1.357 . S
C1213 C325 1.427 . S
C1263 C385 1.491 . S
C1278 C695 1.484 . S
C1328 C713 1.411 . S
C1313 C463 1.409 . S
C1363 C253 1.675 . S
C1378 C729 1.574 . S
C1413 C145 1.483 . S
C1428 C723 1.475 . S
C1463 C205 1.505 . S
C1478 C727 1.503 . S
C1513 C217 1.527 . S
C1528 C724 1.502 . S
C1563 C139 1.531 . S
C1578 C626 1.505 . S
C1613 C535 1.489 . S
C1628 C625 1.482 . S
C1678 C589 1.336 . S
C1663 C565 1.416 . S
C1728 C603 1.561 . S
C1713 C313 1.658 . S
C1763 C175 1.561 1_545 S
C1778 C640 1.527 . S
C1828 C685 1.519 . S
C1813 C397 1.522 . S
C1878 C639 1.474 . S
C1863 C349 1.472 1_545 S
C1928 C671 1.416 . S
C1913 C457 1.412 . S
C1978 C668 1.483 . S
C1963 C505 1.509 . S
C2013 C571 1.469 . S
C2028 C681 1.470 . S
C2063 C319 1.668 . S
C2078 C645 1.570 . S
C2128 C659 1.355 . S
C2113 C493 1.429 . S
C2163 C109 1.528 . S
C2178 C615 1.525 . S
C2228 C629 1.405 . S
C2213 C1 1.404 1_655 S
C2278 C583 1.481 . S
C2263 C61 1.487 . S
C2328 C598 1.524 . S
C2313 C103 1.550 1_455 S
C2363 C67 1.534 . S
C2378 C710 1.508 . S
C2413 C73 1.427 . S
C2428 C701 1.358 . S
C2463 C133 1.491 . S
C2478 C709 1.484 . S
C2513 C31 1.408 1_556 S
C2528 C699 1.411 . S
C2578 C743 1.574 . S
C2563 C289 1.675 . S
C2628 C737 1.476 . S
C2613 C469 1.483 1_554 S
C2678 C741 1.503 . S
C2663 C529 1.505 . S
C2713 C541 1.527 1_554 S
C2728 C738 1.502 . S
C2763 C391 1.531 . S
C2778 C654 1.506 . S
C2828 C653 1.482 . S
C2813 C211 1.489 . S
C2878 C673 1.335 . S
C2863 C241 1.401 . S
C2928 C687 1.562 . S
C2913 C277 1.659 . S
C2963 C499 1.561 . S
C2978 C612 1.527 . S
C3028 C601 1.519 . S
C3013 C37 1.522 . S
C3063 C97 1.472 . S
C3078 C611 1.474 . S
C3128 C587 1.416 . S
C3113 C25 1.412 1_565 S
