# Generated by pormake.
# Topology ptr, (4,4)-cn, num edge types: 1
# Building blocks:
#     Node 0, Type 0, BuildingBlock: GALJAG_clean_sbu_0, # of connection points: 4
#     Node 1, Type 0, BuildingBlock: GALJAG_clean_sbu_0, # of connection points: 4
#     Node 2, Type 0, BuildingBlock: GALJAG_clean_sbu_0, # of connection points: 4
#     Node 3, Type 0, BuildingBlock: GALJAG_clean_sbu_0, # of connection points: 4
#     Node 4, Type 0, BuildingBlock: GALJAG_clean_sbu_0, # of connection points: 4
#     Node 5, Type 0, BuildingBlock: GALJAG_clean_sbu_0, # of connection points: 4
#     Node 6, Type 0, BuildingBlock: GALJAG_clean_sbu_0, # of connection points: 4
#     Node 7, Type 0, BuildingBlock: GALJAG_clean_sbu_0, # of connection points: 4
#     Node 8, Type 0, BuildingBlock: GALJAG_clean_sbu_0, # of connection points: 4
#     Node 9, Type 0, BuildingBlock: GALJAG_clean_sbu_0, # of connection points: 4
#     Node 10, Type 0, BuildingBlock: GALJAG_clean_sbu_0, # of connection points: 4
#     Node 11, Type 0, BuildingBlock: GALJAG_clean_sbu_0, # of connection points: 4
#     Node 12, Type 0, BuildingBlock: GALJAG_clean_sbu_0, # of connection points: 4
#     Node 13, Type 0, BuildingBlock: GALJAG_clean_sbu_0, # of connection points: 4
#     Node 14, Type 0, BuildingBlock: GALJAG_clean_sbu_0, # of connection points: 4
#     Node 15, Type 0, BuildingBlock: GALJAG_clean_sbu_0, # of connection points: 4
#     Node 16, Type 0, BuildingBlock: GALJAG_clean_sbu_0, # of connection points: 4
#     Node 17, Type 0, BuildingBlock: GALJAG_clean_sbu_0, # of connection points: 4
#     Node 18, Type 1, BuildingBlock: MIFKUJ_clean_linker_1, # of connection points: 4
#     Node 19, Type 1, BuildingBlock: MIFKUJ_clean_linker_1, # of connection points: 4
#     Node 20, Type 1, BuildingBlock: MIFKUJ_clean_linker_1, # of connection points: 4
#     Node 21, Type 1, BuildingBlock: MIFKUJ_clean_linker_1, # of connection points: 4
#     Node 22, Type 1, BuildingBlock: MIFKUJ_clean_linker_1, # of connection points: 4
#     Node 23, Type 1, BuildingBlock: MIFKUJ_clean_linker_1, # of connection points: 4
#     Node 24, Type 1, BuildingBlock: MIFKUJ_clean_linker_1, # of connection points: 4
#     Node 25, Type 1, BuildingBlock: MIFKUJ_clean_linker_1, # of connection points: 4
#     Node 26, Type 1, BuildingBlock: MIFKUJ_clean_linker_1, # of connection points: 4
#     Node 27, Type 1, BuildingBlock: MIFKUJ_clean_linker_1, # of connection points: 4
#     Node 28, Type 1, BuildingBlock: MIFKUJ_clean_linker_1, # of connection points: 4
#     Node 29, Type 1, BuildingBlock: MIFKUJ_clean_linker_1, # of connection points: 4
#     Node 30, Type 1, BuildingBlock: MIFKUJ_clean_linker_1, # of connection points: 4
#     Node 31, Type 1, BuildingBlock: MIFKUJ_clean_linker_1, # of connection points: 4
#     Node 32, Type 1, BuildingBlock: MIFKUJ_clean_linker_1, # of connection points: 4
#     Node 33, Type 1, BuildingBlock: MIFKUJ_clean_linker_1, # of connection points: 4
#     Node 34, Type 1, BuildingBlock: MIFKUJ_clean_linker_1, # of connection points: 4
#     Node 35, Type 1, BuildingBlock: MIFKUJ_clean_linker_1, # of connection points: 4
#     Edge 36, Type (0, 1), BuildingBlock: ZUJKAS_clean_linker_0, # of connection points: 2
#     Edge 37, Type (0, 1), BuildingBlock: ZUJKAS_clean_linker_0, # of connection points: 2
#     Edge 38, Type (0, 1), BuildingBlock: ZUJKAS_clean_linker_0, # of connection points: 2
#     Edge 39, Type (0, 1), BuildingBlock: ZUJKAS_clean_linker_0, # of connection points: 2
#     Edge 40, Type (0, 1), BuildingBlock: ZUJKAS_clean_linker_0, # of connection points: 2
#     Edge 41, Type (0, 1), BuildingBlock: ZUJKAS_clean_linker_0, # of connection points: 2
#     Edge 42, Type (0, 1), BuildingBlock: ZUJKAS_clean_linker_0, # of connection points: 2
#     Edge 43, Type (0, 1), BuildingBlock: ZUJKAS_clean_linker_0, # of connection points: 2
#     Edge 44, Type (0, 1), BuildingBlock: ZUJKAS_clean_linker_0, # of connection points: 2
#     Edge 45, Type (0, 1), BuildingBlock: ZUJKAS_clean_linker_0, # of connection points: 2
#     Edge 46, Type (0, 1), BuildingBlock: ZUJKAS_clean_linker_0, # of connection points: 2
#     Edge 47, Type (0, 1), BuildingBlock: ZUJKAS_clean_linker_0, # of connection points: 2
#     Edge 48, Type (0, 1), BuildingBlock: ZUJKAS_clean_linker_0, # of connection points: 2
#     Edge 49, Type (0, 1), BuildingBlock: ZUJKAS_clean_linker_0, # of connection points: 2
#     Edge 50, Type (0, 1), BuildingBlock: ZUJKAS_clean_linker_0, # of connection points: 2
#     Edge 51, Type (0, 1), BuildingBlock: ZUJKAS_clean_linker_0, # of connection points: 2
#     Edge 52, Type (0, 1), BuildingBlock: ZUJKAS_clean_linker_0, # of connection points: 2
#     Edge 53, Type (0, 1), BuildingBlock: ZUJKAS_clean_linker_0, # of connection points: 2
#     Edge 54, Type (0, 1), BuildingBlock: ZUJKAS_clean_linker_0, # of connection points: 2
#     Edge 55, Type (0, 1), BuildingBlock: ZUJKAS_clean_linker_0, # of connection points: 2
#     Edge 56, Type (0, 1), BuildingBlock: ZUJKAS_clean_linker_0, # of connection points: 2
#     Edge 57, Type (0, 1), BuildingBlock: ZUJKAS_clean_linker_0, # of connection points: 2
#     Edge 58, Type (0, 1), BuildingBlock: ZUJKAS_clean_linker_0, # of connection points: 2
#     Edge 59, Type (0, 1), BuildingBlock: ZUJKAS_clean_linker_0, # of connection points: 2
#     Edge 60, Type (0, 1), BuildingBlock: ZUJKAS_clean_linker_0, # of connection points: 2
#     Edge 61, Type (0, 1), BuildingBlock: ZUJKAS_clean_linker_0, # of connection points: 2
#     Edge 62, Type (0, 1), BuildingBlock: ZUJKAS_clean_linker_0, # of connection points: 2
#     Edge 63, Type (0, 1), BuildingBlock: ZUJKAS_clean_linker_0, # of connection points: 2
#     Edge 64, Type (0, 1), BuildingBlock: ZUJKAS_clean_linker_0, # of connection points: 2
#     Edge 65, Type (0, 1), BuildingBlock: ZUJKAS_clean_linker_0, # of connection points: 2
#     Edge 66, Type (0, 1), BuildingBlock: ZUJKAS_clean_linker_0, # of connection points: 2
#     Edge 67, Type (0, 1), BuildingBlock: ZUJKAS_clean_linker_0, # of connection points: 2
#     Edge 68, Type (0, 1), BuildingBlock: ZUJKAS_clean_linker_0, # of connection points: 2
#     Edge 69, Type (0, 1), BuildingBlock: ZUJKAS_clean_linker_0, # of connection points: 2
#     Edge 70, Type (0, 1), BuildingBlock: ZUJKAS_clean_linker_0, # of connection points: 2
#     Edge 71, Type (0, 1), BuildingBlock: ZUJKAS_clean_linker_0, # of connection points: 2
#     Edge 72, Type (0, 1), BuildingBlock: ZUJKAS_clean_linker_0, # of connection points: 2
#     Edge 73, Type (0, 1), BuildingBlock: ZUJKAS_clean_linker_0, # of connection points: 2
#     Edge 74, Type (0, 1), BuildingBlock: ZUJKAS_clean_linker_0, # of connection points: 2
#     Edge 75, Type (0, 1), BuildingBlock: ZUJKAS_clean_linker_0, # of connection points: 2
#     Edge 76, Type (0, 1), BuildingBlock: ZUJKAS_clean_linker_0, # of connection points: 2
#     Edge 77, Type (0, 1), BuildingBlock: ZUJKAS_clean_linker_0, # of connection points: 2
#     Edge 78, Type (0, 1), BuildingBlock: ZUJKAS_clean_linker_0, # of connection points: 2
#     Edge 79, Type (0, 1), BuildingBlock: ZUJKAS_clean_linker_0, # of connection points: 2
#     Edge 80, Type (0, 1), BuildingBlock: ZUJKAS_clean_linker_0, # of connection points: 2
#     Edge 81, Type (0, 1), BuildingBlock: ZUJKAS_clean_linker_0, # of connection points: 2
#     Edge 82, Type (0, 1), BuildingBlock: ZUJKAS_clean_linker_0, # of connection points: 2
#     Edge 83, Type (0, 1), BuildingBlock: ZUJKAS_clean_linker_0, # of connection points: 2
#     Edge 84, Type (0, 1), BuildingBlock: ZUJKAS_clean_linker_0, # of connection points: 2
#     Edge 85, Type (0, 1), BuildingBlock: ZUJKAS_clean_linker_0, # of connection points: 2
#     Edge 86, Type (0, 1), BuildingBlock: ZUJKAS_clean_linker_0, # of connection points: 2
#     Edge 87, Type (0, 1), BuildingBlock: ZUJKAS_clean_linker_0, # of connection points: 2
#     Edge 88, Type (0, 1), BuildingBlock: ZUJKAS_clean_linker_0, # of connection points: 2
#     Edge 89, Type (0, 1), BuildingBlock: ZUJKAS_clean_linker_0, # of connection points: 2
#     Edge 90, Type (0, 1), BuildingBlock: ZUJKAS_clean_linker_0, # of connection points: 2
#     Edge 91, Type (0, 1), BuildingBlock: ZUJKAS_clean_linker_0, # of connection points: 2
#     Edge 92, Type (0, 1), BuildingBlock: ZUJKAS_clean_linker_0, # of connection points: 2
#     Edge 93, Type (0, 1), BuildingBlock: ZUJKAS_clean_linker_0, # of connection points: 2
#     Edge 94, Type (0, 1), BuildingBlock: ZUJKAS_clean_linker_0, # of connection points: 2
#     Edge 95, Type (0, 1), BuildingBlock: ZUJKAS_clean_linker_0, # of connection points: 2
#     Edge 96, Type (0, 1), BuildingBlock: ZUJKAS_clean_linker_0, # of connection points: 2
#     Edge 97, Type (0, 1), BuildingBlock: ZUJKAS_clean_linker_0, # of connection points: 2
#     Edge 98, Type (0, 1), BuildingBlock: ZUJKAS_clean_linker_0, # of connection points: 2
#     Edge 99, Type (0, 1), BuildingBlock: ZUJKAS_clean_linker_0, # of connection points: 2
#     Edge 100, Type (0, 1), BuildingBlock: ZUJKAS_clean_linker_0, # of connection points: 2
#     Edge 101, Type (0, 1), BuildingBlock: ZUJKAS_clean_linker_0, # of connection points: 2
#     Edge 102, Type (0, 1), BuildingBlock: ZUJKAS_clean_linker_0, # of connection points: 2
#     Edge 103, Type (0, 1), BuildingBlock: ZUJKAS_clean_linker_0, # of connection points: 2
#     Edge 104, Type (0, 1), BuildingBlock: ZUJKAS_clean_linker_0, # of connection points: 2
#     Edge 105, Type (0, 1), BuildingBlock: ZUJKAS_clean_linker_0, # of connection points: 2
#     Edge 106, Type (0, 1), BuildingBlock: ZUJKAS_clean_linker_0, # of connection points: 2
#     Edge 107, Type (0, 1), BuildingBlock: ZUJKAS_clean_linker_0, # of connection points: 2
# Relax obj value: 0.053
# Max RMSD: 0.081
# Mean RMSD: 0.075
data_MOF--net-ptr--node1-GALJAG_clean_sbu_0--node2-MIFKUJ_clean_linker_1--edge1-ZUJKAS_clean_linker_0
_symmetry_space_group_name_H-M    P1
_symmetry_Int_Tables_number       1
_symmetry_cell_setting            triclinic
loop_
_symmetry_equiv_pos_as_xyz
'x, y, z'
_cell_length_a     110.57339
_cell_length_b     110.69927
_cell_length_c     81.276877
_cell_angle_alpha  90.015451
_cell_angle_beta   89.996043
_cell_angle_gamma 120.10184
loop_
_atom_site_label
_atom_site_type_symbol
_atom_site_fract_x
_atom_site_fract_y
_atom_site_fract_z
_atom_type_partial_charge
In0 In 0.00077 0.35306 0.01332 0.0
O1 O 0.98836 0.35512 0.03467 0.0
O2 O 0.00878 0.37206 0.02991 0.0
C3 C 0.98188 0.32831 1.00008 0.0
C4 C 0.01978 0.34747 0.02667 0.0
C5 C 0.00361 0.3699 0.98781 0.0
O6 O 0.97875 0.33407 0.01142 0.0
O7 O 0.99451 0.33493 0.99567 0.0
O8 O 0.01328 0.36763 0.9921 0.0
O9 O 0.99266 0.36371 0.99638 0.0
C10 C 0.99793 0.36721 0.03868 0.0
O11 O 0.02271 0.35593 0.01488 0.0
O12 O 0.00726 0.34175 0.03152 0.0
In13 In 0.6476 0.64686 0.01305 0.0
O14 O 0.64567 0.63246 0.03435 0.0
O15 O 0.62827 0.63504 0.02909 0.0
C16 C 0.67248 0.65256 1.00028 0.0
C17 C 0.65307 0.67118 0.02712 0.0
C18 C 0.63074 0.63364 0.98716 0.0
O19 O 0.66585 0.64281 0.01046 0.0
O20 O 0.66667 0.65954 0.99676 0.0
O21 O 0.63295 0.64538 0.99217 0.0
O22 O 0.63701 0.62869 0.99517 0.0
C23 C 0.63334 0.62935 0.03801 0.0
O24 O 0.64548 0.66635 0.01448 0.0
O25 O 0.65801 0.66385 0.03247 0.0
In26 In 0.35294 0.00064 0.01228 0.0
O27 O 0.35378 0.02171 0.01228 0.0
O28 O 0.34343 0.00778 0.99242 0.0
C29 C 0.37002 0.00367 0.03766 0.0
C30 C 0.36752 0.99803 0.98729 0.0
C31 C 0.32788 0.98164 0.02484 0.0
O32 O 0.36841 0.01358 0.03267 0.0
O33 O 0.36306 0.99238 0.02988 0.0
O34 O 0.33381 0.97864 0.01359 0.0
O35 O 0.33448 0.9942 0.02948 0.0
C36 C 0.34722 0.01951 0.99888 0.0
O37 O 0.35561 0.9882 0.99149 0.0
O38 O 0.37199 0.00903 0.99571 0.0
In39 In 0.99978 0.64714 0.01222 0.0
O40 O 0.01232 0.6458 0.99052 0.0
O41 O 0.9921 0.62849 0.99506 0.0
C42 C 0.01902 0.6715 0.02593 0.0
C43 C 0.98072 0.65289 0.99931 0.0
C44 C 0.99664 0.63018 0.03776 0.0
O45 O 0.02197 0.66576 0.01439 0.0
O46 O 0.00637 0.66506 0.03031 0.0
O47 O 0.98742 0.63325 0.03399 0.0
O48 O 0.00728 0.63557 0.0286 0.0
C49 C 0.00294 0.63372 0.98624 0.0
O50 O 0.97748 0.64311 0.00947 0.0
O51 O 0.99356 0.65985 0.99586 0.0
In52 In 0.35432 0.3546 0.01235 0.0
O53 O 0.35488 0.36789 0.99047 0.0
O54 O 0.37294 0.36632 0.99533 0.0
C55 C 0.32959 0.34968 0.02495 0.0
C56 C 0.35012 0.33076 0.99821 0.0
C57 C 0.37135 0.36701 0.03841 0.0
O58 O 0.33799 0.36099 0.01794 0.0
O59 O 0.33357 0.34083 0.02542 0.0
O60 O 0.36559 0.35403 0.03586 0.0
O61 O 0.36854 0.37357 0.02787 0.0
C62 C 0.3672 0.3713 0.98633 0.0
O63 O 0.35851 0.33643 0.01006 0.0
O64 O 0.34377 0.33701 0.99371 0.0
In65 In 0.64776 0.99997 0.01293 0.0
O66 O 0.64568 0.01291 0.03358 0.0
O67 O 0.62881 0.99232 0.02961 0.0
C68 C 0.67259 0.01863 0.9996 0.0
C69 C 0.65345 0.98115 0.02662 0.0
C70 C 0.63088 0.99675 0.98729 0.0
O71 O 0.66718 0.02171 0.0114 0.0
O72 O 0.66559 0.00613 0.9948 0.0
O73 O 0.63232 0.98684 0.99267 0.0
O74 O 0.63783 0.00813 0.99491 0.0
C75 C 0.63366 0.00341 0.03793 0.0
O76 O 0.64557 0.97831 0.01425 0.0
O77 O 0.65858 0.99348 0.03186 0.0
In78 In 0.66671 0.6866 0.34653 0.0
O79 O 0.65306 0.68895 0.36604 0.0
O80 O 0.6745 0.70457 0.36481 0.0
C81 C 0.64801 0.66189 0.33302 0.0
C82 C 0.68549 0.68043 0.3594 0.0
C83 C 0.6704 0.70413 0.32143 0.0
O84 O 0.64528 0.66674 0.34564 0.0
O85 O 0.6602 0.6694 0.32741 0.0
O86 O 0.68024 0.70267 0.32702 0.0
O87 O 0.65881 0.69683 0.32853 0.0
C88 C 0.66286 0.70023 0.37178 0.0
O89 O 0.68837 0.68877 0.3475 0.0
O90 O 0.67312 0.67512 0.36466 0.0
In91 In 0.31305 0.98021 0.34559 0.0
O92 O 0.31157 0.96598 0.36685 0.0
O93 O 0.29449 0.96937 0.36294 0.0
C94 C 0.33712 0.98442 0.33186 0.0
C95 C 0.31912 0.00486 0.35934 0.0
C96 C 0.29566 0.9672 0.32002 0.0
O97 O 0.33088 0.9755 0.34304 0.0
O98 O 0.33133 0.99132 0.32783 0.0
O99 O 0.30056 0.98002 0.32297 0.0
O100 O 0.29945 0.96102 0.32999 0.0
C101 C 0.2996 0.96346 0.3714 0.0
O102 O 0.30946 0.99869 0.34892 0.0
O103 O 0.32582 0.99869 0.36261 0.0
In104 In 0.0207 0.33469 0.3459 0.0
O105 O 0.02536 0.35715 0.34311 0.0
O106 O 0.00809 0.34133 0.32989 0.0
C107 C 0.03819 0.33815 0.371 0.0
C108 C 0.03391 0.33114 0.31998 0.0
C109 C 0.99606 0.31559 0.35925 0.0
O110 O 0.03407 0.3467 0.36812 0.0
O111 O 0.03353 0.32794 0.36122 0.0
O112 O 0.00087 0.31319 0.34635 0.0
O113 O 0.00358 0.32763 0.36523 0.0
C114 C 0.01548 0.35416 0.33317 0.0
O115 O 0.02284 0.32119 0.32596 0.0
O116 O 0.03821 0.34272 0.32705 0.0
In117 In 0.66691 0.9798 0.34552 0.0
O118 O 0.67994 0.97838 0.32453 0.0
O119 O 0.65986 0.96081 0.32901 0.0
C120 C 0.6858 0.0045 0.35899 0.0
C121 C 0.64796 0.98509 0.33131 0.0
C122 C 0.66297 0.96278 0.37128 0.0
O123 O 0.68905 0.99842 0.34821 0.0
O124 O 0.67301 0.99825 0.36274 0.0
O125 O 0.65354 0.96512 0.36622 0.0
O126 O 0.67426 0.96895 0.36331 0.0
C127 C 0.67084 0.96613 0.32042 0.0
O128 O 0.64503 0.97704 0.3435 0.0
O129 O 0.66047 0.99062 0.32649 0.0
In130 In 0.02052 0.6877 0.34677 0.0
O131 O 0.02091 0.70003 0.32389 0.0
O132 O 0.0401 0.70222 0.3322 0.0
C133 C 0.99557 0.68145 0.3598 0.0
C134 C 0.01652 0.6638 0.33286 0.0
C135 C 0.03677 0.70051 0.37318 0.0
O136 O 0.00246 0.69185 0.35055 0.0
O137 O 0.00115 0.67408 0.36226 0.0
O138 O 0.03552 0.68939 0.36725 0.0
O139 O 0.02983 0.70507 0.3658 0.0
C140 C 0.03393 0.70559 0.32172 0.0
O141 O 0.02474 0.66952 0.34482 0.0
O142 O 0.01021 0.67003 0.32814 0.0
In143 In 0.31359 0.33312 0.34672 0.0
O144 O 0.30976 0.31087 0.34893 0.0
O145 O 0.32532 0.32652 0.3642 0.0
C146 C 0.29701 0.32969 0.32067 0.0
C147 C 0.30027 0.33691 0.37237 0.0
C148 C 0.33818 0.35212 0.33322 0.0
O149 O 0.29889 0.32002 0.3259 0.0
O150 O 0.30337 0.34095 0.32866 0.0
O151 O 0.33193 0.35534 0.34383 0.0
O152 O 0.33215 0.33931 0.32965 0.0
C153 C 0.3188 0.31384 0.36004 0.0
O154 O 0.31283 0.34554 0.36886 0.0
O155 O 0.29446 0.32653 0.36287 0.0
In156 In 0.33383 0.02074 0.68073 0.0
O157 O 0.35635 0.02524 0.68315 0.0
O158 O 0.34089 0.00951 0.69838 0.0
C159 C 0.3372 0.03767 0.65513 0.0
C160 C 0.32989 0.03405 0.70619 0.0
C161 C 0.31455 0.99627 0.66713 0.0
O162 O 0.34588 0.03375 0.65835 0.0
O163 O 0.32692 0.03308 0.66481 0.0
O164 O 0.3116 0.0021 0.67853 0.0
O165 O 0.32721 0.00266 0.66282 0.0
C166 C 0.35359 0.01629 0.6943 0.0
O167 O 0.32151 0.02134 0.70305 0.0
O168 O 0.34016 0.03997 0.69652 0.0
In169 In 0.98 0.31316 0.67932 0.0
O170 O 0.97553 0.33117 0.68178 0.0
O171 O 0.9915 0.33161 0.69672 0.0
C172 C 0.96308 0.29939 0.65373 0.0
C173 C 0.967 0.29604 0.70506 0.0
C174 C 0.00459 0.31898 0.66557 0.0
O175 O 0.96562 0.31141 0.65806 0.0
O176 O 0.96905 0.2944 0.6623 0.0
O177 O 0.99863 0.30972 0.67648 0.0
O178 O 0.99824 0.32538 0.66176 0.0
C179 C 0.98465 0.33746 0.69276 0.0
O180 O 0.97974 0.30061 0.70187 0.0
O181 O 0.96088 0.30003 0.69524 0.0
In182 In 0.6869 0.66762 0.67885 0.0
O183 O 0.69075 0.68987 0.67617 0.0
O184 O 0.67523 0.67405 0.66105 0.0
C185 C 0.70347 0.67088 0.70484 0.0
C186 C 0.70068 0.66383 0.65375 0.0
C187 C 0.66223 0.64874 0.6923 0.0
O188 O 0.70104 0.68036 0.70023 0.0
O189 O 0.69762 0.65989 0.69629 0.0
O190 O 0.66788 0.64568 0.68077 0.0
O191 O 0.66892 0.66134 0.69683 0.0
C192 C 0.68173 0.68678 0.66501 0.0
O193 O 0.68818 0.65498 0.65728 0.0
O194 O 0.70616 0.67445 0.66291 0.0
In195 In 0.33359 0.31384 0.67897 0.0
O196 O 0.34667 0.31193 0.65835 0.0
O197 O 0.32584 0.29531 0.6616 0.0
C198 C 0.35243 0.33839 0.69272 0.0
C199 C 0.31487 0.31995 0.66572 0.0
C200 C 0.32989 0.29621 0.70394 0.0
O201 O 0.35535 0.33323 0.68054 0.0
O202 O 0.34 0.33128 0.69775 0.0
O203 O 0.32014 0.29797 0.69866 0.0
O204 O 0.34141 0.3033 0.69659 0.0
C205 C 0.33706 0.30014 0.65354 0.0
O206 O 0.31204 0.312 0.67801 0.0
O207 O 0.32716 0.32495 0.66034 0.0
In208 In 0.68823 0.02055 0.67917 0.0
O209 O 0.69006 0.03583 0.65901 0.0
O210 O 0.70593 0.03039 0.66053 0.0
C211 C 0.66403 0.0161 0.69274 0.0
C212 C 0.68228 0.99584 0.66574 0.0
C213 C 0.70571 0.03366 0.70466 0.0
O214 O 0.66968 0.02426 0.68073 0.0
O215 O 0.67047 0.01008 0.69769 0.0
O216 O 0.7005 0.02076 0.70201 0.0
O217 O 0.7022 0.03989 0.69442 0.0
C218 C 0.70134 0.03734 0.65324 0.0
O219 O 0.69257 0.00265 0.67519 0.0
O220 O 0.67489 0.00139 0.66326 0.0
In221 In 0.98043 0.66648 0.67901 0.0
O222 O 0.97726 0.64445 0.68056 0.0
O223 O 0.99128 0.65967 0.6975 0.0
C224 C 0.96357 0.66328 0.65333 0.0
C225 C 0.96679 0.66981 0.70459 0.0
C226 C 0.00522 0.68554 0.66591 0.0
O227 O 0.96614 0.65384 0.65765 0.0
O228 O 0.96942 0.6742 0.662 0.0
O229 O 0.99904 0.68865 0.67672 0.0
O230 O 0.99902 0.6728 0.66196 0.0
C231 C 0.98546 0.64718 0.69259 0.0
O232 O 0.97906 0.679 0.70062 0.0
O233 O 0.96143 0.65908 0.69559 0.0
H234 H 0.15553 0.34382 0.18639 0.0
H235 H 0.13751 0.34325 0.20414 0.0
H236 H 0.10609 0.30696 0.17808 0.0
H237 H 0.12435 0.30727 0.16073 0.0
H238 H 0.16372 0.32551 0.18385 0.0
H239 H 0.14514 0.34567 0.14705 0.0
H240 H 0.1275 0.34764 0.13108 0.0
H241 H 0.11779 0.30988 0.10478 0.0
H242 H 0.13554 0.30803 0.12079 0.0
H243 H 0.17449 0.30737 0.12224 0.0
H244 H 0.19418 0.30947 0.10624 0.0
H245 H 0.22113 0.34981 0.12844 0.0
H246 H 0.2015 0.34729 0.14484 0.0
H247 H 0.16342 0.32565 0.12284 0.0
H248 H 0.18509 0.30795 0.15956 0.0
H249 H 0.20319 0.30762 0.17651 0.0
H250 H 0.2076 0.34312 0.20388 0.0
H251 H 0.19008 0.34381 0.18638 0.0
C252 C 0.14131 0.32563 0.17218 0.0
C253 C 0.14476 0.33575 0.18447 0.0
C254 C 0.1344 0.33549 0.19451 0.0
C255 C 0.12032 0.32509 0.19249 0.0
C256 C 0.11684 0.31504 0.18004 0.0
C257 C 0.12725 0.31528 0.17001 0.0
C258 C 0.15258 0.32565 0.1622 0.0
C259 C 0.16374 0.32572 0.1705 0.0
C260 C 0.15242 0.32556 0.14479 0.0
C261 C 0.14153 0.3266 0.13526 0.0
C262 C 0.1391 0.33773 0.13798 0.0
C263 C 0.129 0.33883 0.12884 0.0
C264 C 0.12119 0.32888 0.1167 0.0
C265 C 0.12372 0.3178 0.11393 0.0
C266 C 0.13382 0.31669 0.1231 0.0
C267 C 0.18659 0.32711 0.1348 0.0
C268 C 0.18467 0.31663 0.12365 0.0
C269 C 0.19594 0.31791 0.11444 0.0
C270 C 0.2093 0.32982 0.11601 0.0
C271 C 0.2111 0.34036 0.12711 0.0
C272 C 0.19987 0.33899 0.13645 0.0
C273 C 0.17466 0.32578 0.14454 0.0
C274 C 0.16336 0.32539 0.13619 0.0
C275 C 0.17483 0.32587 0.16194 0.0
C276 C 0.1863 0.32599 0.17159 0.0
C277 C 0.19018 0.31584 0.16898 0.0
C278 C 0.20041 0.31556 0.17883 0.0
C279 C 0.20686 0.32533 0.1916 0.0
C280 C 0.20304 0.33557 0.19402 0.0
C281 C 0.19291 0.3359 0.18412 0.0
H282 H 0.70115 0.86958 0.18041 0.0
H283 H 0.70106 0.88722 0.19845 0.0
H284 H 0.65969 0.87574 0.1812 0.0
H285 H 0.65966 0.85782 0.16362 0.0
H286 H 0.68428 0.84214 0.1823 0.0
H287 H 0.69544 0.87674 0.14059 0.0
H288 H 0.69293 0.89397 0.12445 0.0
H289 H 0.65165 0.8619 0.10932 0.0
H290 H 0.65434 0.8447 0.1253 0.0
H291 H 0.65423 0.80833 0.12647 0.0
H292 H 0.65147 0.78823 0.11087 0.0
H293 H 0.69301 0.798 0.12548 0.0
H294 H 0.6956 0.81798 0.14122 0.0
H295 H 0.67249 0.83561 0.12289 0.0
H296 H 0.66008 0.8018 0.16619 0.0
H297 H 0.66082 0.78497 0.18495 0.0
H298 H 0.70351 0.81526 0.1976 0.0
H299 H 0.70251 0.83216 0.17912 0.0
C300 C 0.68046 0.86244 0.17058 0.0
C301 C 0.69211 0.87095 0.18043 0.0
C302 C 0.69208 0.88109 0.19065 0.0
C303 C 0.68035 0.88287 0.19129 0.0
C304 C 0.66882 0.87453 0.18112 0.0
C305 C 0.66886 0.86439 0.17092 0.0
C306 C 0.68 0.85084 0.16089 0.0
C307 C 0.682 0.84088 0.16922 0.0
C308 C 0.67659 0.84895 0.14395 0.0
C309 C 0.67504 0.85945 0.13424 0.0
C310 C 0.68582 0.87345 0.13387 0.0
C311 C 0.68435 0.8833 0.12466 0.0
C312 C 0.67208 0.87933 0.1156 0.0
C313 C 0.66132 0.86528 0.11596 0.0
C314 C 0.66281 0.85544 0.12514 0.0
C315 C 0.67507 0.8146 0.13511 0.0
C316 C 0.66273 0.80613 0.1263 0.0
C317 C 0.6612 0.79468 0.11733 0.0
C318 C 0.67203 0.7915 0.11689 0.0
C319 C 0.68438 0.80002 0.12575 0.0
C320 C 0.68589 0.81146 0.13474 0.0
C321 C 0.67672 0.8269 0.14434 0.0
C322 C 0.67493 0.83698 0.13592 0.0
C323 C 0.68028 0.82889 0.16123 0.0
C324 C 0.68125 0.81821 0.17123 0.0
C325 C 0.66966 0.80473 0.17281 0.0
C326 C 0.67013 0.79509 0.18353 0.0
C327 C 0.68221 0.79876 0.19288 0.0
C328 C 0.69395 0.81216 0.19083 0.0
C329 C 0.69344 0.82181 0.1802 0.0
H330 H 0.13157 0.83241 0.18022 0.0
H331 H 0.11354 0.81545 0.1986 0.0
H332 H 0.12325 0.78404 0.1827 0.0
H333 H 0.14138 0.80108 0.16445 0.0
H334 H 0.15861 0.84199 0.18213 0.0
H335 H 0.12328 0.81726 0.14116 0.0
H336 H 0.10607 0.79696 0.12563 0.0
H337 H 0.13877 0.78917 0.10936 0.0
H338 H 0.1558 0.80914 0.12543 0.0
H339 H 0.19143 0.84518 0.12514 0.0
H340 H 0.21111 0.86242 0.10885 0.0
H341 H 0.2024 0.89448 0.12501 0.0
H342 H 0.1824 0.87708 0.14079 0.0
H343 H 0.16443 0.83593 0.12278 0.0
H344 H 0.19956 0.85981 0.16382 0.0
H345 H 0.21666 0.8783 0.18166 0.0
H346 H 0.18481 0.88717 0.19828 0.0
H347 H 0.16779 0.8688 0.18028 0.0
C348 C 0.13779 0.81802 0.17088 0.0
C349 C 0.12975 0.82184 0.1806 0.0
C350 C 0.11947 0.81216 0.19112 0.0
C351 C 0.11702 0.79843 0.19213 0.0
C352 C 0.12479 0.79449 0.18204 0.0
C353 C 0.13515 0.80422 0.17158 0.0
C354 C 0.14959 0.82875 0.16098 0.0
C355 C 0.15975 0.8408 0.16906 0.0
C356 C 0.15133 0.82693 0.14408 0.0
C357 C 0.14082 0.81464 0.13462 0.0
C358 C 0.12671 0.81108 0.1344 0.0
C359 C 0.11691 0.79956 0.12536 0.0
C360 C 0.12103 0.79142 0.11625 0.0
C361 C 0.13519 0.79508 0.11643 0.0
C362 C 0.14497 0.80657 0.12549 0.0
C363 C 0.1855 0.85985 0.1343 0.0
C364 C 0.19373 0.85592 0.12513 0.0
C365 C 0.20506 0.86581 0.11593 0.0
C366 C 0.20837 0.87985 0.11567 0.0
C367 C 0.20006 0.88374 0.12481 0.0
C368 C 0.18871 0.87383 0.13399 0.0
C369 C 0.17341 0.84923 0.14393 0.0
C370 C 0.16323 0.83719 0.13581 0.0
C371 C 0.17168 0.85102 0.16084 0.0
C372 C 0.18239 0.86297 0.1706 0.0
C373 C 0.19632 0.86593 0.17103 0.0
C374 C 0.20608 0.87649 0.18125 0.0
C375 C 0.20206 0.88415 0.19141 0.0
C376 C 0.18818 0.88133 0.19073 0.0
C377 C 0.17846 0.87087 0.18043 0.0
H378 H 0.2997 0.16963 0.84798 0.0
H379 H 0.29811 0.18623 0.82957 0.0
H380 H 0.34157 0.21622 0.83907 0.0
H381 H 0.34291 0.19969 0.85781 0.0
H382 H 0.31726 0.159 0.84363 0.0
H383 H 0.30842 0.18444 0.88525 0.0
H384 H 0.31191 0.20489 0.90067 0.0
H385 H 0.35405 0.21483 0.9124 0.0
H386 H 0.35038 0.19421 0.89718 0.0
H387 H 0.34948 0.15619 0.89733 0.0
H388 H 0.35183 0.1389 0.91372 0.0
H389 H 0.30851 0.10863 0.90433 0.0
H390 H 0.30623 0.12595 0.88787 0.0
H391 H 0.33185 0.16688 0.90217 0.0
H392 H 0.34093 0.14154 0.86183 0.0
H393 H 0.33925 0.12292 0.84413 0.0
H394 H 0.29835 0.11397 0.82803 0.0
H395 H 0.29992 0.13242 0.84605 0.0
C396 C 0.32139 0.18345 0.8543 0.0
C397 C 0.30882 0.17985 0.84622 0.0
C398 C 0.30797 0.18933 0.83562 0.0
C399 C 0.31974 0.20255 0.83271 0.0
C400 C 0.33224 0.20623 0.84117 0.0
C401 C 0.33304 0.19677 0.85187 0.0
C402 C 0.32261 0.1729 0.86429 0.0
C403 C 0.32015 0.16055 0.85654 0.0
C404 C 0.32695 0.17526 0.88092 0.0
C405 C 0.32917 0.18786 0.88996 0.0
C406 C 0.31845 0.1911 0.89104 0.0
C407 C 0.32047 0.20282 0.89983 0.0
C408 C 0.33328 0.21154 0.90777 0.0
C409 C 0.344 0.20825 0.90664 0.0
C410 C 0.34195 0.1965 0.89789 0.0
C411 C 0.3277 0.14232 0.89134 0.0
C412 C 0.3405 0.14583 0.8988 0.0
C413 C 0.34185 0.13594 0.90807 0.0
C414 C 0.33035 0.12244 0.91027 0.0
C415 C 0.31751 0.11899 0.9029 0.0
C416 C 0.31622 0.12882 0.89344 0.0
C417 C 0.3263 0.15284 0.88156 0.0
C418 C 0.32879 0.16522 0.88932 0.0
C419 C 0.32206 0.15053 0.86488 0.0
C420 C 0.32049 0.13832 0.85543 0.0
C421 C 0.33142 0.13533 0.85487 0.0
C422 C 0.33048 0.12471 0.84469 0.0
C423 C 0.31868 0.11703 0.83467 0.0
C424 C 0.30762 0.11981 0.83551 0.0
C425 C 0.3085 0.13033 0.84582 0.0
H426 H 0.83306 0.13186 0.84498 0.0
H427 H 0.81608 0.11347 0.82696 0.0
H428 H 0.78417 0.12229 0.8435 0.0
H429 H 0.80123 0.14077 0.86139 0.0
H430 H 0.84213 0.15873 0.84306 0.0
H431 H 0.81908 0.12375 0.88501 0.0
H432 H 0.79944 0.1063 0.90121 0.0
H433 H 0.78902 0.13764 0.91535 0.0
H434 H 0.80882 0.15506 0.89935 0.0
H435 H 0.84541 0.19152 0.90015 0.0
H436 H 0.8627 0.2113 0.91629 0.0
H437 H 0.89489 0.20288 0.89968 0.0
H438 H 0.87743 0.1828 0.88405 0.0
H439 H 0.83638 0.16455 0.90251 0.0
H440 H 0.85974 0.19968 0.86136 0.0
H441 H 0.87813 0.21688 0.8435 0.0
H442 H 0.88722 0.1853 0.82654 0.0
H443 H 0.86897 0.16818 0.84459 0.0
C444 C 0.81842 0.13765 0.85463 0.0
C445 C 0.82238 0.12977 0.84482 0.0
C446 C 0.81268 0.11929 0.8345 0.0
C447 C 0.7988 0.11647 0.83378 0.0
C448 C 0.79474 0.12411 0.84394 0.0
C449 C 0.80449 0.13466 0.85419 0.0
C450 C 0.82911 0.14962 0.86436 0.0
C451 C 0.84102 0.15987 0.85614 0.0
C452 C 0.8274 0.15136 0.88129 0.0
C453 C 0.81535 0.14068 0.89088 0.0
C454 C 0.8125 0.12682 0.89152 0.0
C455 C 0.80124 0.11685 0.90076 0.0
C456 C 0.79263 0.12056 0.90959 0.0
C457 C 0.79555 0.13447 0.90892 0.0
C458 C 0.80683 0.14443 0.89971 0.0
C459 C 0.86013 0.18575 0.89077 0.0
C460 C 0.85618 0.19391 0.90003 0.0
C461 C 0.86611 0.20529 0.90914 0.0
C462 C 0.8802 0.20871 0.90923 0.0
C463 C 0.88411 0.20046 0.90001 0.0
C464 C 0.87417 0.18906 0.89092 0.0
C465 C 0.8495 0.17361 0.88122 0.0
C466 C 0.83758 0.16336 0.88946 0.0
C467 C 0.8512 0.17188 0.86427 0.0
C468 C 0.86303 0.18264 0.85443 0.0
C469 C 0.86589 0.19652 0.85407 0.0
C470 C 0.87638 0.20634 0.84384 0.0
C471 C 0.88408 0.20242 0.83359 0.0
C472 C 0.88136 0.18859 0.83417 0.0
C473 C 0.87096 0.17881 0.8445 0.0
H474 H 0.8093 0.65415 0.83962 0.0
H475 H 0.79217 0.65505 0.8215 0.0
H476 H 0.79914 0.69279 0.84569 0.0
H477 H 0.8163 0.69181 0.86385 0.0
H478 H 0.83621 0.67242 0.84115 0.0
H479 H 0.79852 0.65286 0.87967 0.0
H480 H 0.77915 0.65103 0.89615 0.0
H481 H 0.80729 0.69034 0.91959 0.0
H482 H 0.82664 0.69219 0.90293 0.0
H483 H 0.86575 0.69211 0.90278 0.0
H484 H 0.88344 0.69039 0.91918 0.0
H485 H 0.87195 0.65099 0.89587 0.0
H486 H 0.85422 0.65269 0.87967 0.0
H487 H 0.83718 0.67424 0.90211 0.0
H488 H 0.87566 0.69136 0.86383 0.0
H489 H 0.89366 0.69204 0.84566 0.0
H490 H 0.86234 0.65465 0.8213 0.0
H491 H 0.84444 0.65399 0.83948 0.0
C492 C 0.81408 0.67289 0.85311 0.0
C493 C 0.80708 0.66257 0.84111 0.0
C494 C 0.79733 0.66313 0.83071 0.0
C495 C 0.7944 0.67407 0.83206 0.0
C496 C 0.80109 0.68417 0.84443 0.0
C497 C 0.81089 0.68361 0.85483 0.0
C498 C 0.82542 0.67293 0.86294 0.0
C499 C 0.83632 0.67261 0.8545 0.0
C500 C 0.82576 0.67359 0.88032 0.0
C501 C 0.81399 0.67272 0.88999 0.0
C502 C 0.80049 0.66115 0.88825 0.0
C503 C 0.78947 0.66005 0.89776 0.0
C504 C 0.79172 0.67053 0.90917 0.0
C505 C 0.80522 0.68217 0.91079 0.0
C506 C 0.81628 0.6832 0.90136 0.0
C507 C 0.85876 0.67259 0.88993 0.0
C508 C 0.86707 0.68312 0.90121 0.0
C509 C 0.87721 0.68216 0.91048 0.0
C510 C 0.87907 0.67055 0.9088 0.0
C511 C 0.87068 0.66 0.89753 0.0
C512 C 0.86063 0.66101 0.88818 0.0
C513 C 0.84785 0.67347 0.88029 0.0
C514 C 0.83708 0.67407 0.88877 0.0
C515 C 0.84749 0.6728 0.8629 0.0
C516 C 0.85869 0.67261 0.85303 0.0
C517 C 0.87272 0.68316 0.85478 0.0
C518 C 0.883 0.68355 0.84438 0.0
C519 C 0.87939 0.67347 0.83196 0.0
C520 C 0.86541 0.6627 0.83057 0.0
C521 C 0.85517 0.66228 0.84098 0.0
H522 H 0.82113 0.67926 0.51712 0.0
H523 H 0.80281 0.67833 0.53477 0.0
H524 H 0.77259 0.63962 0.51171 0.0
H525 H 0.79109 0.6405 0.49421 0.0
H526 H 0.83019 0.66084 0.51648 0.0
H527 H 0.81136 0.6796 0.47857 0.0
H528 H 0.7936 0.68115 0.46238 0.0
H529 H 0.78369 0.64274 0.43752 0.0
H530 H 0.80161 0.64133 0.45373 0.0
H531 H 0.8403 0.64107 0.45515 0.0
H532 H 0.85982 0.64283 0.43892 0.0
H533 H 0.88765 0.68242 0.46202 0.0
H534 H 0.86811 0.68067 0.47804 0.0
H535 H 0.82956 0.65894 0.45551 0.0
H536 H 0.85055 0.6418 0.49441 0.0
H537 H 0.86791 0.64131 0.51268 0.0
H538 H 0.87461 0.67929 0.53596 0.0
H539 H 0.85723 0.67966 0.51777 0.0
C540 C 0.80747 0.65997 0.50433 0.0
C541 C 0.81054 0.67062 0.51578 0.0
C542 C 0.80004 0.67013 0.52577 0.0
C543 C 0.78625 0.6589 0.52462 0.0
C544 C 0.78314 0.64834 0.51295 0.0
C545 C 0.79366 0.64889 0.50287 0.0
C546 C 0.8189 0.66012 0.49461 0.0
C547 C 0.83015 0.6606 0.50313 0.0
C548 C 0.81865 0.6595 0.47723 0.0
C549 C 0.80769 0.66025 0.46752 0.0
C550 C 0.80525 0.67143 0.46977 0.0
C551 C 0.79507 0.67228 0.46051 0.0
C552 C 0.78716 0.66202 0.44871 0.0
C553 C 0.78969 0.65088 0.44639 0.0
C554 C 0.79988 0.65003 0.45568 0.0
C555 C 0.85278 0.66068 0.46788 0.0
C556 C 0.85062 0.65011 0.45671 0.0
C557 C 0.86178 0.65109 0.44754 0.0
C558 C 0.87526 0.66277 0.44921 0.0
C559 C 0.87737 0.67336 0.46036 0.0
C560 C 0.86624 0.67232 0.46962 0.0
C561 C 0.84093 0.65977 0.47742 0.0
C562 C 0.82957 0.6591 0.46885 0.0
C563 C 0.84119 0.66047 0.4948 0.0
C564 C 0.8526 0.66078 0.50472 0.0
C565 C 0.85594 0.65014 0.50327 0.0
C566 C 0.86586 0.64987 0.51372 0.0
C567 C 0.87254 0.66019 0.52587 0.0
C568 C 0.86946 0.67104 0.52693 0.0
C569 C 0.85957 0.67131 0.5165 0.0
H570 H 0.36503 0.20135 0.51424 0.0
H571 H 0.36535 0.21922 0.53221 0.0
H572 H 0.32401 0.20822 0.51535 0.0
H573 H 0.32357 0.19006 0.4978 0.0
H574 H 0.34772 0.1739 0.51628 0.0
H575 H 0.35908 0.20895 0.47502 0.0
H576 H 0.35628 0.22623 0.45931 0.0
H577 H 0.31571 0.19378 0.44273 0.0
H578 H 0.31839 0.17664 0.45887 0.0
H579 H 0.31916 0.14083 0.45913 0.0
H580 H 0.31708 0.12112 0.44327 0.0
H581 H 0.35803 0.13063 0.46 0.0
H582 H 0.36023 0.15061 0.47542 0.0
H583 H 0.3369 0.16802 0.45663 0.0
H584 H 0.32531 0.13298 0.49769 0.0
H585 H 0.32651 0.11603 0.51591 0.0
H586 H 0.36672 0.1482 0.53368 0.0
H587 H 0.3656 0.16507 0.51524 0.0
C588 C 0.34431 0.19441 0.50461 0.0
C589 C 0.35607 0.20286 0.51434 0.0
C590 C 0.35629 0.21314 0.52451 0.0
C591 C 0.3447 0.21514 0.52523 0.0
C592 C 0.33304 0.20685 0.51521 0.0
C593 C 0.33284 0.19656 0.50503 0.0
C594 C 0.34371 0.18277 0.49487 0.0
C595 C 0.34564 0.17275 0.50316 0.0
C596 C 0.34049 0.18103 0.47788 0.0
C597 C 0.33888 0.19153 0.46826 0.0
C598 C 0.34953 0.20559 0.46812 0.0
C599 C 0.34798 0.21542 0.459 0.0
C600 C 0.33577 0.21138 0.44977 0.0
C601 C 0.32516 0.19727 0.44986 0.0
C602 C 0.32672 0.18744 0.45898 0.0
C603 C 0.3398 0.14714 0.46857 0.0
C604 C 0.32771 0.1387 0.45933 0.0
C605 C 0.32649 0.12736 0.45038 0.0
C606 C 0.33736 0.12426 0.45043 0.0
C607 C 0.34951 0.1328 0.4596 0.0
C608 C 0.35073 0.14415 0.46855 0.0
C609 C 0.341 0.15916 0.47805 0.0
C610 C 0.33913 0.16923 0.46972 0.0
C611 C 0.34423 0.16091 0.49504 0.0
C612 C 0.34542 0.1503 0.50498 0.0
C613 C 0.33454 0.13632 0.50521 0.0
C614 C 0.33522 0.12664 0.51565 0.0
C615 C 0.34669 0.13082 0.52625 0.0
C616 C 0.35769 0.14473 0.52577 0.0
C617 C 0.35707 0.15436 0.51522 0.0
H618 H 0.79765 0.16539 0.51079 0.0
H619 H 0.77948 0.14852 0.52907 0.0
H620 H 0.79202 0.11828 0.51726 0.0
H621 H 0.80987 0.1351 0.49864 0.0
H622 H 0.82601 0.17539 0.51445 0.0
H623 H 0.79042 0.15079 0.47374 0.0
H624 H 0.77297 0.13046 0.45844 0.0
H625 H 0.80522 0.12198 0.44226 0.0
H626 H 0.82251 0.14201 0.45808 0.0
H627 H 0.85858 0.17804 0.45737 0.0
H628 H 0.8785 0.19525 0.44132 0.0
H629 H 0.86962 0.22736 0.45684 0.0
H630 H 0.84982 0.21011 0.47299 0.0
H631 H 0.83143 0.16895 0.45507 0.0
H632 H 0.86645 0.1912 0.49602 0.0
H633 H 0.88424 0.20899 0.51389 0.0
H634 H 0.85421 0.22034 0.53083 0.0
H635 H 0.8366 0.20282 0.51253 0.0
C636 C 0.80505 0.15148 0.50332 0.0
C637 C 0.79635 0.15506 0.51202 0.0
C638 C 0.78603 0.14542 0.52254 0.0
C639 C 0.78433 0.13205 0.52477 0.0
C640 C 0.79288 0.12839 0.5157 0.0
C641 C 0.80313 0.13802 0.50508 0.0
C642 C 0.81679 0.16214 0.49336 0.0
C643 C 0.82707 0.17414 0.50138 0.0
C644 C 0.81841 0.16017 0.47648 0.0
C645 C 0.80776 0.14784 0.46721 0.0
C646 C 0.7937 0.14445 0.46706 0.0
C647 C 0.78376 0.13291 0.45815 0.0
C648 C 0.78769 0.12458 0.44913 0.0
C649 C 0.8018 0.12805 0.44926 0.0
C650 C 0.81172 0.13957 0.45818 0.0
C651 C 0.85277 0.1928 0.46649 0.0
C652 C 0.86092 0.18878 0.45728 0.0
C653 C 0.87227 0.19863 0.44807 0.0
C654 C 0.87567 0.2127 0.44779 0.0
C655 C 0.86744 0.21667 0.45698 0.0
C656 C 0.8561 0.20681 0.46621 0.0
C657 C 0.84066 0.18227 0.47616 0.0
C658 C 0.83032 0.17029 0.4681 0.0
C659 C 0.83909 0.18413 0.49309 0.0
C660 C 0.85021 0.19574 0.50283 0.0
C661 C 0.86378 0.19772 0.5033 0.0
C662 C 0.8739 0.2078 0.51367 0.0
C663 C 0.87063 0.21604 0.52384 0.0
C664 C 0.85713 0.21428 0.52302 0.0
C665 C 0.84702 0.2042 0.51265 0.0
H666 H 0.97281 0.50599 0.17794 0.0
H667 H 0.97217 0.52346 0.16014 0.0
H668 H 0.01355 0.55413 0.17665 0.0
H669 H 0.01428 0.53649 0.19407 0.0
H670 H 0.99058 0.49619 0.17569 0.0
H671 H 0.97899 0.52006 0.21673 0.0
H672 H 0.98183 0.54013 0.23249 0.0
H673 H 0.02203 0.54774 0.24978 0.0
H674 H 0.01936 0.528 0.23349 0.0
H675 H 0.01847 0.49214 0.23431 0.0
H676 H 0.02051 0.4746 0.25042 0.0
H677 H 0.98081 0.44252 0.23129 0.0
H678 H 0.97868 0.46013 0.21541 0.0
H679 H 0.00092 0.50108 0.23545 0.0
H680 H 0.01405 0.4792 0.19388 0.0
H681 H 0.01346 0.46116 0.17596 0.0
H682 H 0.97237 0.45095 0.15893 0.0
H683 H 0.97287 0.46872 0.17722 0.0
C684 C 0.99355 0.51995 0.18741 0.0
C685 C 0.98171 0.51651 0.1778 0.0
C686 C 0.98131 0.52653 0.16773 0.0
C687 C 0.99281 0.54019 0.16698 0.0
C688 C 0.00458 0.54367 0.17684 0.0
C689 C 0.00495 0.53364 0.18692 0.0
C690 C 0.99429 0.50899 0.19714 0.0
C691 C 0.99258 0.49713 0.18883 0.0
C692 C 0.99742 0.51048 0.21415 0.0
C693 C 0.99903 0.52261 0.22378 0.0
C694 C 0.98848 0.52615 0.22377 0.0
C695 C 0.99005 0.53754 0.23294 0.0
C696 C 0.00217 0.54556 0.2424 0.0
C697 C 0.01266 0.54192 0.24245 0.0
C698 C 0.0111 0.53056 0.23326 0.0
C699 C 0.99849 0.47746 0.2235 0.0
C700 C 0.01017 0.48134 0.23362 0.0
C701 C 0.01132 0.47132 0.24284 0.0
C702 C 0.00083 0.45719 0.24209 0.0
C703 C 0.98915 0.4533 0.23194 0.0
C704 C 0.98794 0.46336 0.22284 0.0
C705 C 0.99722 0.48824 0.21399 0.0
C706 C 0.99883 0.50008 0.22234 0.0
C707 C 0.99418 0.48682 0.19695 0.0
C708 C 0.99346 0.47524 0.18698 0.0
C709 C 0.00481 0.4729 0.18651 0.0
C710 C 0.00452 0.46268 0.17614 0.0
C711 C 0.99288 0.45464 0.16598 0.0
C712 C 0.98142 0.45683 0.16674 0.0
C713 C 0.98173 0.46705 0.17709 0.0
H714 H 0.49887 0.4652 0.17873 0.0
H715 H 0.48185 0.44674 0.1608 0.0
H716 H 0.45002 0.45574 0.17713 0.0
H717 H 0.4671 0.47428 0.1949 0.0
H718 H 0.50797 0.49222 0.17674 0.0
H719 H 0.48419 0.45691 0.2182 0.0
H720 H 0.46402 0.4395 0.23378 0.0
H721 H 0.45513 0.47156 0.24944 0.0
H722 H 0.47501 0.4888 0.2334 0.0
H723 H 0.51095 0.52515 0.23338 0.0
H724 H 0.52818 0.54514 0.2493 0.0
H725 H 0.56033 0.5362 0.234 0.0
H726 H 0.54306 0.51634 0.21793 0.0
H727 H 0.50211 0.49798 0.23618 0.0
H728 H 0.52383 0.53268 0.19458 0.0
H729 H 0.54165 0.55032 0.17659 0.0
H730 H 0.55314 0.52026 0.16031 0.0
H731 H 0.53557 0.50279 0.17868 0.0
C732 C 0.48426 0.47107 0.18826 0.0
C733 C 0.4882 0.46313 0.17853 0.0
C734 C 0.47848 0.45261 0.16827 0.0
C735 C 0.4646 0.4498 0.16754 0.0
C736 C 0.46058 0.45753 0.17759 0.0
C737 C 0.47034 0.46812 0.18777 0.0
C738 C 0.49494 0.48302 0.19803 0.0
C739 C 0.50683 0.49333 0.18982 0.0
C740 C 0.49317 0.48475 0.21495 0.0
C741 C 0.48103 0.47414 0.2245 0.0
C742 C 0.47782 0.46016 0.22487 0.0
C743 C 0.46637 0.45024 0.23391 0.0
C744 C 0.45795 0.45413 0.24283 0.0
C745 C 0.46127 0.46817 0.24252 0.0
C746 C 0.47271 0.47807 0.23348 0.0
C747 C 0.52573 0.51932 0.22437 0.0
C748 C 0.52171 0.5275 0.23347 0.0
C749 C 0.53157 0.53889 0.24262 0.0
C750 C 0.54565 0.54227 0.24295 0.0
C751 C 0.54963 0.53403 0.23382 0.0
C752 C 0.53976 0.52265 0.22465 0.0
C753 C 0.51517 0.5071 0.21488 0.0
C754 C 0.50331 0.49678 0.22313 0.0
C755 C 0.51687 0.50541 0.19794 0.0
C756 C 0.52843 0.51643 0.18807 0.0
C757 C 0.53038 0.52997 0.18739 0.0
C758 C 0.54047 0.54 0.17698 0.0
C759 C 0.54878 0.53668 0.16697 0.0
C760 C 0.54703 0.52321 0.16799 0.0
C761 C 0.53693 0.51318 0.17839 0.0
H762 H 0.53325 0.02935 0.17734 0.0
H763 H 0.55124 0.03012 0.15918 0.0
H764 H 0.54109 0.98899 0.17575 0.0
H765 H 0.52282 0.98812 0.19349 0.0
H766 H 0.50579 0.01163 0.17546 0.0
H767 H 0.54112 0.02379 0.2168 0.0
H768 H 0.55877 0.02175 0.2327 0.0
H769 H 0.52744 0.98017 0.24777 0.0
H770 H 0.50982 0.9824 0.23205 0.0
H771 H 0.47338 0.98216 0.23277 0.0
H772 H 0.45356 0.97946 0.24897 0.0
H773 H 0.46156 0.01988 0.23224 0.0
H774 H 0.48168 0.02273 0.21654 0.0
H775 H 0.50036 0.00039 0.23501 0.0
H776 H 0.46521 0.98768 0.19363 0.0
H777 H 0.44768 0.98838 0.17595 0.0
H778 H 0.47855 0.02963 0.1594 0.0
H779 H 0.49587 0.02905 0.17752 0.0
C780 C 0.52674 0.00872 0.18685 0.0
C781 C 0.53497 0.02055 0.17714 0.0
C782 C 0.54533 0.02101 0.16685 0.0
C783 C 0.54759 0.00961 0.166 0.0
C784 C 0.53951 0.99789 0.176 0.0
C785 C 0.52917 0.99744 0.18628 0.0
C786 C 0.51501 0.00781 0.19671 0.0
C787 C 0.50473 0.00945 0.18856 0.0
C788 C 0.51341 0.00449 0.21367 0.0
C789 C 0.52417 0.00321 0.22315 0.0
C790 C 0.53808 0.0142 0.22345 0.0
C791 C 0.54817 0.013 0.23252 0.0
C792 C 0.54453 0.00078 0.24151 0.0
C793 C 0.53057 0.9898 0.24119 0.0
C794 C 0.52049 0.99103 0.23216 0.0
C795 C 0.47895 0.00259 0.22333 0.0
C796 C 0.47089 0.99046 0.23264 0.0
C797 C 0.45948 0.98888 0.24178 0.0
C798 C 0.45593 0.99944 0.24186 0.0
C799 C 0.46408 0.01161 0.23257 0.0
C800 C 0.4755 0.01319 0.22345 0.0
C801 C 0.49113 0.00424 0.21375 0.0
C802 C 0.50147 0.0027 0.22194 0.0
C803 C 0.49276 0.00759 0.19679 0.0
C804 C 0.48183 0.00837 0.18701 0.0
C805 C 0.46812 0.99699 0.18645 0.0
C806 C 0.45815 0.99734 0.1762 0.0
C807 C 0.46172 0.00905 0.16621 0.0
C808 C 0.47539 0.02054 0.16707 0.0
C809 C 0.48534 0.02018 0.17733 0.0
H810 H 0.49196 0.01606 0.85432 0.0
H811 H 0.4737 0.01484 0.8722 0.0
H812 H 0.44264 0.97953 0.84445 0.0
H813 H 0.46113 0.98044 0.827 0.0
H814 H 0.50008 0.99777 0.85087 0.0
H815 H 0.48131 0.01864 0.81534 0.0
H816 H 0.46346 0.0205 0.79975 0.0
H817 H 0.45615 0.98488 0.77041 0.0
H818 H 0.47356 0.98267 0.7866 0.0
H819 H 0.51046 0.98193 0.78684 0.0
H820 H 0.52991 0.98365 0.77064 0.0
H821 H 0.55863 0.02057 0.79793 0.0
H822 H 0.53915 0.01872 0.81413 0.0
H823 H 0.50071 0.99979 0.78992 0.0
H824 H 0.5207 0.9799 0.82621 0.0
H825 H 0.53831 0.97858 0.84314 0.0
H826 H 0.54392 0.01422 0.8712 0.0
H827 H 0.5268 0.01581 0.85385 0.0
C828 C 0.47793 0.99839 0.83927 0.0
C829 C 0.48121 0.00807 0.85206 0.0
C830 C 0.47072 0.00744 0.86217 0.0
C831 C 0.45667 0.99712 0.85973 0.0
C832 C 0.45336 0.98753 0.84676 0.0
C833 C 0.46391 0.98813 0.83666 0.0
C834 C 0.48934 0.99872 0.82926 0.0
C835 C 0.5003 0.9984 0.83754 0.0
C836 C 0.48944 0.99917 0.81184 0.0
C837 C 0.47863 0.00038 0.80232 0.0
C838 C 0.47573 0.01111 0.8057 0.0
C839 C 0.46563 0.01227 0.79662 0.0
C840 C 0.45834 0.00283 0.78381 0.0
C841 C 0.46139 0.99219 0.78034 0.0
C842 C 0.47143 0.99098 0.7895 0.0
C843 C 0.52337 1.00009 0.80182 0.0
C844 C 0.52095 0.9904 0.78931 0.0
C845 C 0.53208 0.99143 0.78002 0.0
C846 C 0.54584 0.00223 0.78302 0.0
C847 C 0.5482 0.01199 0.79549 0.0
C848 C 0.53707 0.01095 0.80476 0.0
C849 C 0.51153 0.99902 0.81158 0.0
C850 C 0.50046 0.99914 0.80325 0.0
C851 C 0.5114 0.99857 0.82898 0.0
C852 C 0.5225 0.99802 0.83867 0.0
C853 C 0.52592 0.98757 0.83582 0.0
C854 C 0.53587 0.98674 0.84563 0.0
C855 C 0.54254 0.9963 0.85854 0.0
C856 C 0.53918 0.00682 0.86122 0.0
C857 C 0.52928 0.00767 0.8514 0.0
H858 H 0.02751 0.53245 0.84794 0.0
H859 H 0.02824 0.55071 0.86556 0.0
H860 H 0.98713 0.54034 0.84845 0.0
H861 H 0.98629 0.52181 0.83128 0.0
H862 H 0.00991 0.50505 0.85002 0.0
H863 H 0.02215 0.53991 0.80816 0.0
H864 H 0.02016 0.55739 0.7919 0.0
H865 H 0.97853 0.52599 0.77695 0.0
H866 H 0.98072 0.50853 0.79303 0.0
H867 H 0.98088 0.47204 0.79283 0.0
H868 H 0.97867 0.45237 0.77675 0.0
H869 H 0.01936 0.46126 0.79379 0.0
H870 H 0.0217 0.48121 0.80938 0.0
H871 H 0.99891 0.49914 0.79039 0.0
H872 H 0.98634 0.46437 0.83219 0.0
H873 H 0.98723 0.44708 0.85008 0.0
H874 H 0.02844 0.47828 0.86649 0.0
H875 H 0.02765 0.49539 0.84819 0.0
C876 C 0.0069 0.52582 0.83821 0.0
C877 C 0.0187 0.53417 0.84792 0.0
C878 C 0.01913 0.54468 0.85789 0.0
C879 C 0.00773 0.54698 0.85841 0.0
C880 C 0.99602 0.53875 0.84845 0.0
C881 C 0.99559 0.52824 0.83849 0.0
C882 C 0.00606 0.51403 0.82857 0.0
C883 C 0.00778 0.50389 0.8369 0.0
C884 C 0.00282 0.51229 0.81159 0.0
C885 C 0.00155 0.52294 0.80189 0.0
C886 C 0.01257 0.53682 0.80146 0.0
C887 C 0.01139 0.54681 0.79218 0.0
C888 C 0.99917 0.54311 0.78313 0.0
C889 C 0.98816 0.52917 0.78358 0.0
C890 C 0.98937 0.51918 0.79282 0.0
C891 C 0.0014 0.47804 0.80242 0.0
C892 C 0.98934 0.46977 0.79306 0.0
C893 C 0.98804 0.45845 0.78399 0.0
C894 C 0.99882 0.45521 0.78402 0.0
C895 C 0.01092 0.46355 0.79337 0.0
C896 C 0.01221 0.47487 0.80243 0.0
C897 C 0.00279 0.49015 0.81185 0.0
C898 C 0.00116 0.50035 0.80348 0.0
C899 C 0.00607 0.49192 0.82883 0.0
C900 C 0.00697 0.48115 0.83876 0.0
C901 C 0.99567 0.46741 0.8394 0.0
C902 C 0.99614 0.45758 0.84975 0.0
C903 C 0.00789 0.46131 0.85975 0.0
C904 C 0.01931 0.47501 0.85881 0.0
C905 C 0.01883 0.48483 0.84846 0.0
H906 H 0.46539 0.49773 0.8469 0.0
H907 H 0.44735 0.48004 0.86467 0.0
H908 H 0.45819 0.44973 0.84746 0.0
H909 H 0.47649 0.46757 0.83015 0.0
H910 H 0.49299 0.50786 0.84883 0.0
H911 H 0.45781 0.4847 0.80714 0.0
H912 H 0.44036 0.46484 0.79122 0.0
H913 H 0.47213 0.45526 0.77619 0.0
H914 H 0.48955 0.47528 0.7919 0.0
H915 H 0.52613 0.51173 0.79233 0.0
H916 H 0.54607 0.52911 0.7765 0.0
H917 H 0.53641 0.56081 0.79148 0.0
H918 H 0.51664 0.54339 0.80755 0.0
H919 H 0.49871 0.50272 0.78918 0.0
H920 H 0.53359 0.52471 0.83061 0.0
H921 H 0.55113 0.54259 0.84862 0.0
H922 H 0.52041 0.55286 0.86591 0.0
H923 H 0.50305 0.5353 0.84743 0.0
C924 C 0.47223 0.48396 0.83711 0.0
C925 C 0.46381 0.48724 0.84689 0.0
C926 C 0.45343 0.47709 0.85694 0.0
C927 C 0.45134 0.46347 0.85749 0.0
C928 C 0.45963 0.46016 0.84744 0.0
C929 C 0.47 0.47031 0.8374 0.0
C930 C 0.48391 0.49501 0.8274 0.0
C931 C 0.49409 0.5069 0.83571 0.0
C932 C 0.48559 0.49348 0.81041 0.0
C933 C 0.47496 0.48142 0.80079 0.0
C934 C 0.46099 0.47827 0.80047 0.0
C935 C 0.45102 0.46689 0.7914 0.0
C936 C 0.45482 0.45843 0.78243 0.0
C937 C 0.46886 0.46167 0.78274 0.0
C938 C 0.47883 0.47307 0.79177 0.0
C939 C 0.51995 0.52628 0.8012 0.0
C940 C 0.52832 0.52243 0.79219 0.0
C941 C 0.53968 0.53238 0.78309 0.0
C942 C 0.54284 0.54637 0.78267 0.0
C943 C 0.53442 0.55018 0.79172 0.0
C944 C 0.52308 0.54023 0.80088 0.0
C945 C 0.50778 0.51561 0.81062 0.0
C946 C 0.49753 0.50379 0.80226 0.0
C947 C 0.50608 0.51715 0.82761 0.0
C948 C 0.51703 0.52874 0.83755 0.0
C949 C 0.53071 0.53102 0.83801 0.0
C950 C 0.54069 0.54114 0.84846 0.0
C951 C 0.53716 0.54911 0.85877 0.0
C952 C 0.52353 0.54702 0.858 0.0
C953 C 0.51356 0.53691 0.84753 0.0
H954 H 0.63194 0.8356 0.51131 0.0
H955 H 0.63188 0.85322 0.49322 0.0
H956 H 0.67317 0.88345 0.51047 0.0
H957 H 0.67335 0.86566 0.5281 0.0
H958 H 0.64895 0.82525 0.50952 0.0
H959 H 0.63811 0.84957 0.54998 0.0
H960 H 0.64077 0.86954 0.56584 0.0
H961 H 0.68062 0.87689 0.58399 0.0
H962 H 0.67804 0.85706 0.56791 0.0
H963 H 0.67902 0.82233 0.56586 0.0
H964 H 0.68223 0.80538 0.58164 0.0
H965 H 0.64171 0.77251 0.56549 0.0
H966 H 0.63834 0.78963 0.55023 0.0
H967 H 0.6605 0.83059 0.56898 0.0
H968 H 0.67331 0.80942 0.52533 0.0
H969 H 0.67242 0.79168 0.50668 0.0
H970 H 0.6295 0.77882 0.49483 0.0
H971 H 0.63064 0.79687 0.51316 0.0
C972 C 0.6526 0.84932 0.52113 0.0
C973 C 0.64093 0.84606 0.51127 0.0
C974 C 0.64088 0.85617 0.50103 0.0
C975 C 0.65253 0.86974 0.50038 0.0
C976 C 0.66409 0.87306 0.51055 0.0
C977 C 0.66414 0.86294 0.52077 0.0
C978 C 0.65311 0.83826 0.53091 0.0
C979 C 0.65121 0.82631 0.52261 0.0
C980 C 0.65643 0.83981 0.54788 0.0
C981 C 0.65795 0.85188 0.55758 0.0
C982 C 0.6475 0.85557 0.55721 0.0
C983 C 0.64902 0.86697 0.5663 0.0
C984 C 0.66092 0.87478 0.57614 0.0
C985 C 0.67127 0.87098 0.57666 0.0
C986 C 0.66981 0.85966 0.56745 0.0
C987 C 0.65849 0.80725 0.55675 0.0
C988 C 0.67081 0.81148 0.56575 0.0
C989 C 0.67269 0.80175 0.57465 0.0
C990 C 0.66225 0.78757 0.57478 0.0
C991 C 0.6499 0.78336 0.56578 0.0
C992 C 0.64802 0.79312 0.5569 0.0
C993 C 0.65654 0.81772 0.54752 0.0
C994 C 0.65813 0.82952 0.55593 0.0
C995 C 0.653 0.8161 0.53063 0.0
C996 C 0.65203 0.80443 0.52065 0.0
C997 C 0.66365 0.80264 0.51888 0.0
C998 C 0.66311 0.79244 0.50824 0.0
C999 C 0.6509 0.78384 0.49916 0.0
C1000 C 0.63915 0.78542 0.50138 0.0
C1001 C 0.63974 0.79567 0.51193 0.0
H1002 H 0.16575 0.79774 0.51404 0.0
H1003 H 0.14862 0.77956 0.49594 0.0
H1004 H 0.11846 0.792 0.50869 0.0
H1005 H 0.13553 0.80988 0.52705 0.0
H1006 H 0.17585 0.82595 0.51067 0.0
H1007 H 0.15146 0.7906 0.5516 0.0
H1008 H 0.13121 0.7732 0.56704 0.0
H1009 H 0.12266 0.8054 0.58311 0.0
H1010 H 0.14262 0.82264 0.56717 0.0
H1011 H 0.17855 0.85902 0.56685 0.0
H1012 H 0.19568 0.87906 0.58277 0.0
H1013 H 0.22778 0.86965 0.56868 0.0
H1014 H 0.21062 0.84981 0.55251 0.0
H1015 H 0.16959 0.83166 0.57003 0.0
H1016 H 0.19165 0.86641 0.52888 0.0
H1017 H 0.20934 0.88411 0.51087 0.0
H1018 H 0.22072 0.85412 0.49399 0.0
H1019 H 0.20334 0.8366 0.51247 0.0
C1020 C 0.15189 0.8051 0.52195 0.0
C1021 C 0.15539 0.79642 0.51305 0.0
C1022 C 0.1456 0.78609 0.50264 0.0
C1023 C 0.13216 0.78435 0.50076 0.0
C1024 C 0.12861 0.79288 0.51 0.0
C1025 C 0.13838 0.80315 0.52048 0.0
C1026 C 0.16266 0.81683 0.53184 0.0
C1027 C 0.17465 0.82706 0.52374 0.0
C1028 C 0.16076 0.81852 0.54872 0.0
C1029 C 0.14848 0.80791 0.55808 0.0
C1030 C 0.14513 0.79388 0.55829 0.0
C1031 C 0.13364 0.78397 0.56728 0.0
C1032 C 0.12531 0.78791 0.57631 0.0
C1033 C 0.12874 0.80198 0.57612 0.0
C1034 C 0.14022 0.81187 0.56712 0.0
C1035 C 0.19332 0.85298 0.55842 0.0
C1036 C 0.18928 0.86129 0.56721 0.0
C1037 C 0.19909 0.8727 0.57637 0.0
C1038 C 0.21313 0.87597 0.57705 0.0
C1039 C 0.21712 0.86758 0.56824 0.0
C1040 C 0.20731 0.8562 0.55902 0.0
C1041 C 0.18283 0.84078 0.54886 0.0
C1042 C 0.17089 0.83048 0.557 0.0
C1043 C 0.18467 0.83912 0.53195 0.0
C1044 C 0.19624 0.8502 0.52214 0.0
C1045 C 0.19818 0.86374 0.52159 0.0
C1046 C 0.20819 0.87381 0.51114 0.0
C1047 C 0.2164 0.87051 0.50092 0.0
C1048 C 0.21469 0.85705 0.50182 0.0
C1049 C 0.20469 0.84699 0.5123 0.0
H1050 H 0.14257 0.32203 0.50765 0.0
H1051 H 0.12526 0.32311 0.48997 0.0
H1052 H 0.13413 0.36185 0.51309 0.0
H1053 H 0.15157 0.36075 0.53072 0.0
H1054 H 0.17051 0.34105 0.50856 0.0
H1055 H 0.13187 0.32127 0.54537 0.0
H1056 H 0.11235 0.31969 0.56114 0.0
H1057 H 0.1409 0.3571 0.58776 0.0
H1058 H 0.16044 0.35861 0.57189 0.0
H1059 H 0.19781 0.35789 0.57239 0.0
H1060 H 0.21504 0.35566 0.58899 0.0
H1061 H 0.20664 0.3189 0.56133 0.0
H1062 H 0.18906 0.32087 0.54526 0.0
H1063 H 0.1704 0.34086 0.56956 0.0
H1064 H 0.20972 0.35882 0.5324 0.0
H1065 H 0.22799 0.35977 0.51443 0.0
H1066 H 0.19675 0.32396 0.48763 0.0
H1067 H 0.1786 0.32291 0.50569 0.0
C1068 C 0.14832 0.34129 0.52051 0.0
C1069 C 0.14071 0.3307 0.50899 0.0
C1070 C 0.13076 0.33128 0.49898 0.0
C1071 C 0.12834 0.34256 0.50017 0.0
C1072 C 0.13585 0.35308 0.51186 0.0
C1073 C 0.14573 0.35242 0.52199 0.0
C1074 C 0.15945 0.34097 0.53033 0.0
C1075 C 0.17043 0.34083 0.52191 0.0
C1076 C 0.15945 0.34105 0.54772 0.0
C1077 C 0.1476 0.34018 0.55728 0.0
C1078 C 0.13392 0.32923 0.55446 0.0
C1079 C 0.12276 0.32834 0.56349 0.0
C1080 C 0.12506 0.33832 0.57565 0.0
C1081 C 0.1388 0.34919 0.57858 0.0
C1082 C 0.14997 0.35009 0.56949 0.0
C1083 C 0.19224 0.33964 0.55746 0.0
C1084 C 0.19968 0.34934 0.56993 0.0
C1085 C 0.2096 0.34812 0.57933 0.0
C1086 C 0.21225 0.33712 0.57648 0.0
C1087 C 0.20476 0.32741 0.56398 0.0
C1088 C 0.19482 0.32862 0.55463 0.0
C1089 C 0.18148 0.34078 0.54776 0.0
C1090 C 0.17057 0.34114 0.55621 0.0
C1091 C 0.18145 0.34071 0.53033 0.0
C1092 C 0.19277 0.34077 0.52043 0.0
C1093 C 0.20684 0.35101 0.52286 0.0
C1094 C 0.21727 0.35157 0.51257 0.0
C1095 C 0.21376 0.34201 0.49956 0.0
C1096 C 0.19973 0.3316 0.4974 0.0
C1097 C 0.18936 0.33097 0.50774 0.0
H1098 H 0.01753 0.39297 0.04949 0.0
H1099 H 0.01551 0.40645 0.07202 0.0
H1100 H 0.97338 0.37328 0.08137 0.0
H1101 H 0.9754 0.35958 0.05891 0.0
H1102 H 0.99636 0.41562 0.07485 0.0
H1103 H 0.99147 0.38104 0.12709 0.0
H1104 H 0.99747 0.37944 0.10699 0.0
H1105 H 0.97917 0.3727 0.11065 0.0
C1106 C 0.00786 0.38849 0.05639 0.0
C1107 C 0.99663 0.3752 0.05246 0.0
C1108 C 0.00672 0.39622 0.06925 0.0
C1109 C 0.99437 0.3908 0.07849 0.0
C1110 C 0.98311 0.37754 0.07459 0.0
H1111 H 0.9715 0.42838 0.15836 0.0
H1112 H 0.97134 0.41255 0.13715 0.0
C1113 C 0.98424 0.36977 0.06171 0.0
C1114 C 0.99322 0.39934 0.09178 0.0
H1115 H 0.98918 0.40069 0.1333 0.0
C1116 C 0.99479 0.41236 0.08763 0.0
C1117 C 0.99111 0.39502 0.10843 0.0
C1118 C 0.98982 0.38134 0.11365 0.0
C1119 C 0.99433 0.42119 0.09967 0.0
C1120 C 0.99248 0.41699 0.11634 0.0
C1121 C 0.99064 0.40387 0.1205 0.0
C1122 C 0.99275 0.42627 0.12964 0.0
C1123 C 0.99573 0.43492 0.09444 0.0
C1124 C 0.00493 0.43907 0.13264 0.0
C1125 C 0.00504 0.44814 0.14467 0.0
C1126 C 0.99298 0.44455 0.15399 0.0
C1127 C 0.9809 0.43153 0.15125 0.0
C1128 C 0.98081 0.42244 0.13922 0.0
H1129 H 0.9935 0.43499 0.08112 0.0
H1130 H 0.98854 0.4372 0.10158 0.0
H1131 H 0.00659 0.44344 0.09676 0.0
H1132 H 0.01431 0.44212 0.12553 0.0
H1133 H 0.01448 0.45813 0.14636 0.0
H1134 H 0.64162 0.61524 0.05854 0.0
H1135 H 0.62808 0.59918 0.08086 0.0
H1136 H 0.59379 0.60617 0.07072 0.0
H1137 H 0.60711 0.622 0.04833 0.0
H1138 H 0.61665 0.60409 0.10913 0.0
H1139 H 0.57517 0.56365 0.06972 0.0
H1140 H 0.59151 0.57732 0.06149 0.0
H1141 H 0.57769 0.5808 0.06648 0.0
C1142 C 0.63117 0.6133 0.06105 0.0
C1143 C 0.62537 0.61979 0.05162 0.0
C1144 C 0.62347 0.60416 0.0738 0.0
C1145 C 0.60985 0.60131 0.07725 0.0
C1146 C 0.60416 0.60797 0.06803 0.0
H1147 H 0.5444 0.55386 0.14684 0.0
H1148 H 0.56008 0.56985 0.12584 0.0
C1149 C 0.61182 0.61708 0.05529 0.0
C1150 C 0.6016 0.59155 0.09064 0.0
H1151 H 0.57069 0.56181 0.09856 0.0
C1152 C 0.60667 0.59477 0.10683 0.0
C1153 C 0.5886 0.57938 0.08757 0.0
C1154 C 0.58297 0.57499 0.07036 0.0
C1155 C 0.59881 0.58638 0.12012 0.0
C1156 C 0.58567 0.57441 0.11707 0.0
C1157 C 0.58074 0.57105 0.10085 0.0
C1158 C 0.57666 0.56532 0.13051 0.0
C1159 C 0.60442 0.5906 0.13736 0.0
C1160 C 0.58082 0.55751 0.14011 0.0
C1161 C 0.5719 0.5484 0.15219 0.0
C1162 C 0.55865 0.54693 0.15485 0.0
C1163 C 0.55461 0.55491 0.1453 0.0
C1164 C 0.56351 0.56397 0.13321 0.0
H1165 H 0.61323 0.60154 0.13791 0.0
H1166 H 0.59606 0.58948 0.14587 0.0
H1167 H 0.60827 0.58366 0.14181 0.0
H1168 H 0.59086 0.55827 0.13805 0.0
H1169 H 0.57534 0.54245 0.1594 0.0
H1170 H 0.3862 0.02677 0.05658 0.0
H1171 H 0.40204 0.0289 0.079 0.0
H1172 H 0.39062 0.98582 0.07226 0.0
H1173 H 0.37493 0.98364 0.04986 0.0
H1174 H 0.39592 0.01305 0.10877 0.0
H1175 H 0.4336 0.00708 0.06941 0.0
H1176 H 0.42086 0.01109 0.06112 0.0
H1177 H 0.41577 0.99347 0.06677 0.0
C1178 C 0.3871 0.01778 0.05988 0.0
C1179 C 0.3794 0.00507 0.0514 0.0
C1180 C 0.39612 0.019 0.07268 0.0
C1181 C 0.39765 0.00758 0.0771 0.0
C1182 C 0.38979 0.99484 0.06883 0.0
H1183 H 0.44351 0.98753 0.14654 0.0
H1184 H 0.42765 0.98776 0.12579 0.0
C1185 C 0.38078 0.9936 0.05608 0.0
C1186 C 0.40736 0.00885 0.09041 0.0
H1187 H 0.43581 0.00542 0.09832 0.0
C1188 C 0.40473 0.01152 0.1065 0.0
C1189 C 0.41884 0.00686 0.08737 0.0
C1190 C 0.42255 0.00459 0.07021 0.0
C1191 C 0.413 0.01176 0.11977 0.0
C1192 C 0.4243 0.00947 0.11675 0.0
C1193 C 0.42708 0.00708 0.1006 0.0
C1194 C 0.43325 0.00922 0.13016 0.0
C1195 C 0.40932 0.01399 0.13694 0.0
C1196 C 0.44162 0.02122 0.13956 0.0
C1197 C 0.45065 0.02109 0.15154 0.0
C1198 C 0.4515 0.00899 0.15428 0.0
C1199 C 0.44296 0.99696 0.14495 0.0
C1200 C 0.43396 0.9971 0.13299 0.0
H1201 H 0.39857 0.01238 0.1376 0.0
H1202 H 0.41018 0.00682 0.1458 0.0
H1203 H 0.41674 0.02487 0.14084 0.0
H1204 H 0.4414 0.03075 0.13739 0.0
H1205 H 0.45702 0.0305 0.15858 0.0
H1206 H 0.36149 0.97488 0.96898 0.0
H1207 H 0.37557 0.97315 0.94674 0.0
H1208 H 0.40574 0.01694 0.95222 0.0
H1209 H 0.39196 0.01867 0.97459 0.0
H1210 H 0.38392 0.98681 0.91695 0.0
H1211 H 0.43014 0.99937 0.95536 0.0
H1212 H 0.41345 0.99502 0.96413 0.0
H1213 H 0.42512 0.01243 0.95679 0.0
C1214 C 0.37115 0.98411 0.96546 0.0
C1215 C 0.3757 0.99688 0.97362 0.0
C1216 C 0.37917 0.98312 0.95276 0.0
C1217 C 0.39184 0.99485 0.94805 0.0
C1218 C 0.39619 0.00767 0.95593 0.0
H1219 H 0.45424 0.01853 0.87312 0.0
H1220 H 0.43758 0.01696 0.89398 0.0
C1221 C 0.38826 0.00865 0.96866 0.0
C1222 C 0.40051 0.99385 0.93479 0.0
H1223 H 0.43356 0.00058 0.92621 0.0
C1224 C 0.39472 0.98966 0.919 0.0
C1225 C 0.41458 0.99748 0.93753 0.0
C1226 C 0.42115 0.00119 0.95441 0.0
C1227 C 0.40282 0.98953 0.90574 0.0
C1228 C 0.41699 0.99368 0.90841 0.0
C1229 C 0.42269 0.99754 0.92423 0.0
C1230 C 0.42626 0.99441 0.89487 0.0
C1231 C 0.39636 0.98536 0.88887 0.0
C1232 C 0.42531 0.98221 0.88844 0.0
C1233 C 0.43493 0.98305 0.87667 0.0
C1234 C 0.44567 0.99613 0.87113 0.0
C1235 C 0.44627 0.0083 0.8773 0.0
C1236 C 0.43671 0.00744 0.88913 0.0
H1237 H 0.3856 0.98375 0.88851 0.0
H1238 H 0.40292 0.9935 0.87974 0.0
H1239 H 0.39591 0.97551 0.88511 0.0
H1240 H 0.41738 0.97206 0.89289 0.0
H1241 H 0.43426 0.97348 0.87236 0.0
H1242 H 0.98388 0.37566 0.97656 0.0
H1243 H 0.98592 0.39105 0.95389 0.0
H1244 H 0.02829 0.40058 0.9452 0.0
H1245 H 0.02627 0.38499 0.96782 0.0
H1246 H 0.00506 0.41958 0.95119 0.0
H1247 H 0.01042 0.38988 0.89925 0.0
H1248 H 0.00425 0.38226 0.91932 0.0
H1249 H 0.02257 0.39394 0.9159 0.0
C1250 C 0.99362 0.38096 0.96977 0.0
C1251 C 0.00491 0.3791 0.97393 0.0
C1252 C 0.99476 0.38976 0.95683 0.0
C1253 C 0.00719 0.39682 0.94775 0.0
C1254 C 0.01851 0.39501 0.95187 0.0
H1255 H 0.02945 0.45671 0.86726 0.0
H1256 H 0.02988 0.44128 0.88859 0.0
C1257 C 0.01737 0.38618 0.96483 0.0
C1258 C 0.00833 0.40644 0.93439 0.0
H1259 H 0.01236 0.41163 0.89285 0.0
C1260 C 0.00667 0.41785 0.93843 0.0
C1261 C 0.0105 0.40419 0.91778 0.0
C1262 C 0.01193 0.39185 0.9127 0.0
C1263 C 0.00705 0.42705 0.92631 0.0
C1264 C 0.00892 0.42463 0.90967 0.0
C1265 C 0.01088 0.4134 0.90563 0.0
C1266 C 0.0085 0.43347 0.89628 0.0
C1267 C 0.00555 0.43934 0.93143 0.0
C1268 C 0.99624 0.43394 0.89333 0.0
C1269 C 0.99597 0.44276 0.88124 0.0
C1270 C 0.00795 0.45124 0.87179 0.0
C1271 C 0.02011 0.45045 0.87447 0.0
C1272 C 0.02035 0.44159 0.88658 0.0
H1273 H 0.00786 0.44177 0.94472 0.0
H1274 H 0.01262 0.44878 0.92416 0.0
H1275 H 0.99464 0.43685 0.9292 0.0
H1276 H 0.98691 0.42759 0.90054 0.0
H1277 H 0.98648 0.4432 0.87961 0.0
H1278 H 0.62484 0.60847 0.97463 0.0
H1279 H 0.60907 0.59561 0.95198 0.0
H1280 H 0.5995 0.6286 0.94565 0.0
H1281 H 0.61545 0.64167 0.96827 0.0
H1282 H 0.58039 0.5863 0.95033 0.0
H1283 H 0.60935 0.62232 0.89874 0.0
H1284 H 0.61735 0.6233 0.91844 0.0
H1285 H 0.60573 0.6301 0.91606 0.0
C1286 C 0.61946 0.61305 0.96836 0.0
C1287 C 0.6214 0.6261 0.9732 0.0
C1288 C 0.61044 0.60568 0.95543 0.0
C1289 C 0.60324 0.61122 0.94702 0.0
C1290 C 0.60516 0.62426 0.95179 0.0
H1291 H 0.54216 0.57525 0.86721 0.0
H1292 H 0.55791 0.5907 0.88868 0.0
C1293 C 0.6142 0.63167 0.96476 0.0
C1294 C 0.59334 0.60299 0.93372 0.0
H1295 H 0.58745 0.60261 0.89241 0.0
C1296 C 0.58192 0.58986 0.93767 0.0
C1297 C 0.59533 0.60773 0.91724 0.0
C1298 C 0.60765 0.62158 0.91226 0.0
C1299 C 0.57246 0.58129 0.92556 0.0
C1300 C 0.57462 0.58587 0.90902 0.0
C1301 C 0.58586 0.59912 0.9051 0.0
C1302 C 0.56552 0.57683 0.8956 0.0
C1303 C 0.56016 0.56743 0.93061 0.0
C1304 C 0.56482 0.56407 0.89218 0.0
C1305 C 0.55582 0.55522 0.88002 0.0
C1306 C 0.54737 0.55899 0.87095 0.0
C1307 C 0.54838 0.57197 0.87412 0.0
C1308 C 0.55742 0.58083 0.8863 0.0
H1309 H 0.55791 0.56714 0.94398 0.0
H1310 H 0.55063 0.56517 0.92361 0.0
H1311 H 0.56256 0.55902 0.92799 0.0
H1312 H 0.57116 0.56089 0.89905 0.0
H1313 H 0.55521 0.54526 0.87802 0.0
H1314 H 0.98365 0.6081 0.97468 0.0
H1315 H 0.98596 0.59538 0.95146 0.0
H1316 H 0.02766 0.62947 0.94238 0.0
H1317 H 0.02547 0.64228 0.96576 0.0
H1318 H 0.99176 0.60399 0.91788 0.0
H1319 H 0.03242 0.59474 0.94567 0.0
H1320 H 0.0221 0.59994 0.95777 0.0
H1321 H 0.03621 0.61255 0.94533 0.0
C1322 C 0.99333 0.6129 0.96777 0.0
C1323 C 0.00441 0.62617 0.97208 0.0
C1324 C 0.99462 0.60562 0.95449 0.0
C1325 C 0.00703 0.61142 0.94533 0.0
C1326 C 0.01808 0.62473 0.94947 0.0
H1327 H 0.02938 0.57331 0.86525 0.0
H1328 H 0.02966 0.59003 0.88523 0.0
C1329 C 0.01679 0.63205 0.96277 0.0
C1330 C 0.00824 0.60347 0.93139 0.0
H1331 H 0.02502 0.58627 0.9188 0.0
C1332 C 0.99908 0.60017 0.91803 0.0
C1333 C 0.01784 0.59856 0.93161 0.0
C1334 C 0.02766 0.6015 0.94589 0.0
C1335 C 0.99916 0.59196 0.90491 0.0
C1336 C 0.00847 0.5867 0.90535 0.0
C1337 C 0.01789 0.59031 0.91851 0.0
C1338 C 0.00814 0.57687 0.89272 0.0
C1339 C 0.98931 0.58905 0.89067 0.0
C1340 C 0.99597 0.5639 0.8904 0.0
C1341 C 0.99579 0.55433 0.87905 0.0
C1342 C 0.00781 0.55749 0.86987 0.0
C1343 C 0.01998 0.57052 0.87221 0.0
C1344 C 0.02015 0.5801 0.88356 0.0
H1345 H 0.98611 0.59707 0.88974 0.0
H1346 H 0.99416 0.58871 0.87884 0.0
H1347 H 0.97973 0.57877 0.89256 0.0
H1348 H 0.9867 0.56104 0.89764 0.0
H1349 H 0.98633 0.54429 0.87782 0.0
H1350 H 0.39311 0.37877 0.97469 0.0
H1351 H 0.40525 0.39386 0.95125 0.0
H1352 H 0.36986 0.39931 0.94216 0.0
H1353 H 0.35761 0.38422 0.96573 0.0
H1354 H 0.39595 0.39016 0.91754 0.0
H1355 H 0.40387 0.43969 0.94506 0.0
H1356 H 0.39953 0.42445 0.95733 0.0
H1357 H 0.3863 0.42509 0.94519 0.0
C1358 C 0.3879 0.38319 0.96774 0.0
C1359 C 0.37443 0.38037 0.97208 0.0
C1360 C 0.39485 0.39178 0.95434 0.0
C1361 C 0.3885 0.39779 0.9451 0.0
C1362 C 0.375 0.39491 0.9493 0.0
H1363 H 0.42486 0.45823 0.86459 0.0
H1364 H 0.40843 0.44162 0.88471 0.0
C1365 C 0.36801 0.38627 0.9627 0.0
C1366 C 0.3961 0.40698 0.93103 0.0
H1367 H 0.41238 0.4409 0.91821 0.0
C1368 C 0.39948 0.40125 0.91762 0.0
C1369 C 0.40061 0.4214 0.93117 0.0
C1370 C 0.39751 0.42811 0.94548 0.0
C1371 C 0.40742 0.4096 0.90438 0.0
C1372 C 0.41233 0.42412 0.90477 0.0
C1373 C 0.40861 0.42978 0.91796 0.0
C1374 C 0.42198 0.43373 0.89207 0.0
C1375 C 0.41043 0.4028 0.8901 0.0
C1376 C 0.43508 0.43487 0.88965 0.0
C1377 C 0.44448 0.44435 0.87823 0.0
C1378 C 0.44102 0.45297 0.86907 0.0
C1379 C 0.42788 0.4518 0.87152 0.0
C1380 C 0.41846 0.44229 0.88295 0.0
H1381 H 0.40256 0.3915 0.88923 0.0
H1382 H 0.41058 0.4079 0.87828 0.0
H1383 H 0.42082 0.40376 0.8919 0.0
H1384 H 0.43817 0.42864 0.89687 0.0
H1385 H 0.45462 0.44519 0.87691 0.0
H1386 H 0.62837 0.01731 0.97215 0.0
H1387 H 0.61355 0.01507 0.94867 0.0
H1388 H 0.59831 0.97081 0.94676 0.0
H1389 H 0.61319 0.97295 0.97031 0.0
H1390 H 0.61337 0.0027 0.91584 0.0
H1391 H 0.56272 0.97568 0.94966 0.0
H1392 H 0.57925 0.98579 0.96012 0.0
H1393 H 0.57447 0.96895 0.95188 0.0
C1394 C 0.62186 0.00709 0.96676 0.0
C1395 C 0.62189 0.99529 0.9731 0.0
C1396 C 0.61344 0.00584 0.95333 0.0
C1397 C 0.60481 0.99277 0.94609 0.0
C1398 C 0.60484 0.98096 0.95231 0.0
H1399 H 0.54073 0.97244 0.87106 0.0
H1400 H 0.55647 0.97059 0.89072 0.0
C1401 C 0.61334 0.98221 0.96571 0.0
C1402 C 0.59578 0.99162 0.93206 0.0
H1403 H 0.56193 0.98068 0.92172 0.0
C1404 C 0.60211 0.99781 0.91704 0.0
C1405 C 0.58112 0.98514 0.9337 0.0
C1406 C 0.5739 0.97855 0.9497 0.0
C1407 C 0.59413 0.99783 0.90362 0.0
C1408 C 0.5795 0.99183 0.90545 0.0
C1409 C 0.57315 0.9853 0.92035 0.0
C1410 C 0.57065 0.99287 0.89243 0.0
C1411 C 0.60147 0.00424 0.88762 0.0
C1412 C 0.57342 0.00601 0.88681 0.0
C1413 C 0.56455 0.00709 0.87544 0.0
C1414 C 0.55259 0.99506 0.8696 0.0
C1415 C 0.54994 0.9819 0.8751 0.0
C1416 C 0.55887 0.98083 0.88643 0.0
H1417 H 0.61138 0.00404 0.8865 0.0
H1418 H 0.59474 0.99871 0.87688 0.0
H1419 H 0.60412 0.01532 0.88718 0.0
H1420 H 0.58226 0.01547 0.89153 0.0
H1421 H 0.56698 0.01738 0.87135 0.0
H1422 H 0.64152 0.02636 0.05741 0.0
H1423 H 0.62856 0.02854 0.08066 0.0
H1424 H 0.59535 0.98619 0.07282 0.0
H1425 H 0.60821 0.9839 0.04974 0.0
H1426 H 0.60118 0.02494 0.08054 0.0
H1427 H 0.60474 0.98705 0.12201 0.0
H1428 H 0.6159 0.9945 0.10426 0.0
H1429 H 0.59828 0.98031 0.10181 0.0
C1430 C 0.63147 0.01751 0.06069 0.0
C1431 C 0.6259 0.00494 0.05181 0.0
C1432 C 0.6241 0.01877 0.07395 0.0
C1433 C 0.61112 0.00745 0.07861 0.0
C1434 C 0.60548 0.99496 0.06964 0.0
H1435 H 0.54445 0.98823 0.14624 0.0
H1436 H 0.56081 0.98859 0.12578 0.0
C1437 C 0.61281 0.9937 0.05639 0.0
C1438 C 0.6032 0.00872 0.09256 0.0
H1439 H 0.58834 0.99411 0.12947 0.0
C1440 C 0.5985 0.01834 0.09135 0.0
C1441 C 0.59974 1.00007 0.1066 0.0
C1442 C 0.60503 0.98999 0.10888 0.0
C1443 C 0.58992 0.01914 0.10354 0.0
C1444 C 0.5862 0.01026 0.11742 0.0
C1445 C 0.59119 0.00088 0.1188 0.0
C1446 C 0.57662 0.01009 0.1303 0.0
C1447 C 0.58447 0.02908 0.10114 0.0
C1448 C 0.58021 0.02199 0.13984 0.0
C1449 C 0.57088 0.0218 0.1516 0.0
C1450 C 0.55785 0.00967 0.15412 0.0
C1451 C 0.55446 0.99769 0.14477 0.0
C1452 C 0.56377 0.99789 0.13301 0.0
H1453 H 0.58571 0.03281 0.08822 0.0
H1454 H 0.57325 0.02404 0.10454 0.0
H1455 H 0.59039 0.03831 0.1092 0.0
H1456 H 0.59021 0.03142 0.13818 0.0
H1457 H 0.57389 0.03114 0.15878 0.0
H1458 H 0.01573 0.62332 0.0485 0.0
H1459 H 0.01369 0.60852 0.07187 0.0
H1460 H 0.97261 0.60197 0.08244 0.0
H1461 H 0.97453 0.61675 0.05894 0.0
H1462 H 0.00886 0.61233 0.10569 0.0
H1463 H 0.96705 0.56202 0.0798 0.0
H1464 H 0.97734 0.57721 0.06715 0.0
H1465 H 0.96363 0.57628 0.07987 0.0
C1466 C 0.00623 0.6187 0.05575 0.0
C1467 C 0.99526 0.62114 0.05185 0.0
C1468 C 0.00511 0.61027 0.06911 0.0
C1469 C 0.99296 0.60406 0.07876 0.0
C1470 C 0.98199 0.60652 0.07498 0.0
H1471 H 0.97134 0.54512 0.16033 0.0
H1472 H 0.97101 0.56131 0.14002 0.0
C1473 C 0.98313 0.615 0.06161 0.0
C1474 C 0.99195 0.59513 0.09287 0.0
H1475 H 0.97501 0.56143 0.10651 0.0
C1476 C 0.00142 0.60121 0.10593 0.0
C1477 C 0.98218 0.58066 0.09315 0.0
C1478 C 0.97201 0.57357 0.07922 0.0
C1479 C 0.00148 0.59316 0.11923 0.0
C1480 C 0.99199 0.5786 0.11929 0.0
C1481 C 0.98228 0.57259 0.10642 0.0
C1482 C 0.99239 0.56931 0.13215 0.0
C1483 C 0.01164 0.60033 0.13314 0.0
C1484 C 0.00448 0.56838 0.13438 0.0
C1485 C 0.0047 0.55915 0.14592 0.0
C1486 C 0.99277 0.55055 0.15538 0.0
C1487 C 0.98067 0.55153 0.15315 0.0
C1488 C 0.98048 0.5608 0.14161 0.0
H1489 H 0.015 0.61161 0.13377 0.0
H1490 H 0.007 0.59543 0.14516 0.0
H1491 H 0.0211 0.59947 0.1311 0.0
H1492 H 0.01368 0.57458 0.12691 0.0
H1493 H 0.01408 0.55845 0.14709 0.0
H1494 H 0.38668 0.39494 0.04403 0.0
H1495 H 0.40186 0.40688 0.06742 0.0
H1496 H 0.39182 0.36717 0.08855 0.0
H1497 H 0.37681 0.35511 0.06485 0.0
H1498 H 0.39525 0.40535 0.09972 0.0
H1499 H 0.43423 0.38833 0.09024 0.0
H1500 H 0.42154 0.38604 0.07478 0.0
H1501 H 0.41647 0.37435 0.09204 0.0
C1502 C 0.38775 0.38873 0.0536 0.0
C1503 C 0.38061 0.37409 0.05258 0.0
C1504 C 0.39642 0.39557 0.06698 0.0
C1505 C 0.39811 0.38794 0.07965 0.0
C1506 C 0.3909 0.37328 0.07875 0.0
H1507 H 0.43722 0.42984 0.17276 0.0
H1508 H 0.42051 0.4136 0.15256 0.0
C1509 C 0.38228 0.36641 0.06526 0.0
C1510 C 0.40723 0.39546 0.09386 0.0
H1511 H 0.43699 0.40184 0.11394 0.0
C1512 C 0.40434 0.40454 0.10289 0.0
C1513 C 0.41915 0.39447 0.09787 0.0
C1514 C 0.42315 0.38537 0.08816 0.0
C1515 C 0.41318 0.41285 0.11562 0.0
C1516 C 0.42505 0.41179 0.11972 0.0
C1517 C 0.42782 0.40254 0.11087 0.0
C1518 C 0.43525 0.42089 0.13235 0.0
C1519 C 0.41002 0.4231 0.12408 0.0
C1520 C 0.44919 0.43003 0.12785 0.0
C1521 C 0.45876 0.43919 0.13937 0.0
C1522 C 0.45458 0.43943 0.15565 0.0
C1523 C 0.44069 0.43003 0.16025 0.0
C1524 C 0.43113 0.42078 0.14872 0.0
H1525 H 0.4026 0.425 0.11686 0.0
H1526 H 0.40518 0.41883 0.13623 0.0
H1527 H 0.41972 0.43325 0.12613 0.0
H1528 H 0.45259 0.4303 0.11528 0.0
H1529 H 0.46934 0.44639 0.1354 0.0
H1530 H 0.63844 0.69434 0.38707 0.0
H1531 H 0.63532 0.70773 0.40903 0.0
H1532 H 0.67976 0.7366 0.40949 0.0
H1533 H 0.68291 0.72348 0.38737 0.0
H1534 H 0.6461 0.71426 0.44048 0.0
H1535 H 0.66388 0.7624 0.40364 0.0
H1536 H 0.6598 0.74593 0.39449 0.0
H1537 H 0.67644 0.75666 0.40428 0.0
C1538 C 0.64753 0.70355 0.39185 0.0
C1539 C 0.6609 0.70794 0.38541 0.0
C1540 C 0.64574 0.71117 0.4044 0.0
C1541 C 0.65727 0.7233 0.41068 0.0
C1542 C 0.67067 0.72747 0.40455 0.0
H1543 H 0.6629 0.76733 0.50139 0.0
H1544 H 0.6638 0.75213 0.48018 0.0
C1545 C 0.67246 0.71991 0.39197 0.0
C1546 C 0.65535 0.73162 0.42365 0.0
H1547 H 0.66142 0.76434 0.43245 0.0
C1548 C 0.64937 0.72519 0.43871 0.0
C1549 C 0.65942 0.74581 0.42122 0.0
C1550 C 0.66511 0.75308 0.40498 0.0
C1551 C 0.64764 0.73269 0.45157 0.0
C1552 C 0.65228 0.74705 0.44938 0.0
C1553 C 0.65799 0.75337 0.43419 0.0
C1554 C 0.65127 0.75576 0.46259 0.0
C1555 C 0.64067 0.7251 0.46726 0.0
C1556 C 0.64418 0.7631 0.45964 0.0
C1557 C 0.64389 0.77201 0.4716 0.0
C1558 C 0.65067 0.77378 0.48681 0.0
C1559 C 0.65765 0.7663 0.48979 0.0
C1560 C 0.65801 0.75744 0.47776 0.0
H1561 H 0.63418 0.71366 0.46524 0.0
H1562 H 0.64882 0.72689 0.47646 0.0
H1563 H 0.63395 0.72896 0.47248 0.0
H1564 H 0.639 0.76205 0.44798 0.0
H1565 H 0.63864 0.77779 0.46872 0.0
H1566 H 0.27399 0.95695 0.38321 0.0
H1567 H 0.26121 0.94143 0.40609 0.0
H1568 H 0.29508 0.93334 0.41395 0.0
H1569 H 0.30805 0.94904 0.39114 0.0
H1570 H 0.25264 0.91309 0.40882 0.0
H1571 H 0.2881 0.94369 0.46013 0.0
H1572 H 0.28902 0.95114 0.4401 0.0
H1573 H 0.29628 0.94001 0.44328 0.0
C1574 C 0.27877 0.95194 0.38986 0.0
C1575 C 0.29204 0.95423 0.38541 0.0
C1576 C 0.27145 0.94307 0.40292 0.0
C1577 C 0.27727 0.93638 0.41184 0.0
C1578 C 0.29052 0.93862 0.40743 0.0
H1579 H 0.24282 0.87625 0.49255 0.0
H1580 H 0.25795 0.89204 0.47091 0.0
C1581 C 0.29787 0.94752 0.39434 0.0
C1582 C 0.26916 0.92665 0.42532 0.0
H1583 H 0.26894 0.92147 0.46678 0.0
C1584 C 0.2562 0.91492 0.4215 0.0
C1585 C 0.27388 0.92904 0.44182 0.0
C1586 C 0.28753 0.9417 0.44668 0.0
C1587 C 0.2478 0.90551 0.43373 0.0
C1588 C 0.25239 0.90804 0.45027 0.0
C1589 C 0.26546 0.91961 0.45408 0.0
C1590 C 0.24354 0.89894 0.4638 0.0
C1591 C 0.23413 0.89288 0.42883 0.0
C1592 C 0.23058 0.89784 0.46716 0.0
C1593 C 0.22192 0.88882 0.47943 0.0
C1594 C 0.22607 0.88076 0.48864 0.0
C1595 C 0.23925 0.88218 0.48553 0.0
C1596 C 0.24793 0.89124 0.47325 0.0
H1597 H 0.23388 0.89052 0.41551 0.0
H1598 H 0.23223 0.88354 0.43599 0.0
H1599 H 0.22546 0.89492 0.43138 0.0
H1600 H 0.2271 0.90386 0.46016 0.0
H1601 H 0.2118 0.88789 0.48138 0.0
H1602 H 0.04852 0.35843 0.39471 0.0
H1603 H 0.06418 0.361 0.41753 0.0
H1604 H 0.06469 0.32419 0.40123 0.0
H1605 H 0.04913 0.32157 0.37842 0.0
H1606 H 0.0596 0.34086 0.44295 0.0
H1607 H 0.10657 0.35466 0.40505 0.0
H1608 H 0.09186 0.35582 0.39734 0.0
H1609 H 0.09097 0.33918 0.39852 0.0
C1610 C 0.05202 0.35092 0.39597 0.0
C1611 C 0.04766 0.33983 0.38475 0.0
C1612 C 0.06093 0.35239 0.40901 0.0
C1613 C 0.06571 0.34289 0.41091 0.0
C1614 C 0.06129 0.33176 0.3998 0.0
H1615 H 0.10215 0.32195 0.49136 0.0
H1616 H 0.08678 0.32315 0.47053 0.0
C1617 C 0.05236 0.33025 0.38682 0.0
C1618 C 0.07514 0.3444 0.42467 0.0
H1619 H 0.10745 0.3491 0.43314 0.0
C1620 C 0.07011 0.34278 0.44085 0.0
C1621 C 0.08887 0.34703 0.42186 0.0
C1622 C 0.09498 0.34941 0.40477 0.0
C1623 C 0.07832 0.34326 0.45429 0.0
C1624 C 0.09185 0.34535 0.45141 0.0
C1625 C 0.09704 0.34742 0.43528 0.0
C1626 C 0.10065 0.34497 0.46488 0.0
C1627 C 0.0725 0.34152 0.47145 0.0
C1628 C 0.11354 0.35683 0.46855 0.0
C1629 C 0.12234 0.35618 0.48043 0.0
C1630 C 0.11846 0.34358 0.48868 0.0
C1631 C 0.10544 0.33177 0.48514 0.0
C1632 C 0.09661 0.33247 0.47335 0.0
H1633 H 0.06348 0.34331 0.4719 0.0
H1634 H 0.06887 0.33071 0.47573 0.0
H1635 H 0.08066 0.34883 0.48013 0.0
H1636 H 0.11687 0.36654 0.46204 0.0
H1637 H 0.13238 0.3654 0.48275 0.0
H1638 H 0.02844 0.30694 0.30444 0.0
H1639 H 0.04191 0.30436 0.28207 0.0
H1640 H 0.06967 0.34896 0.2815 0.0
H1641 H 0.05651 0.35158 0.30395 0.0
H1642 H 0.04807 0.31549 0.25039 0.0
H1643 H 0.09653 0.33424 0.28694 0.0
H1644 H 0.07991 0.32945 0.29625 0.0
H1645 H 0.09025 0.34635 0.28691 0.0
C1646 C 0.03742 0.31617 0.29952 0.0
C1647 C 0.04151 0.32945 0.30604 0.0
C1648 C 0.04508 0.31469 0.28675 0.0
C1649 C 0.05695 0.32644 0.28036 0.0
C1650 C 0.06076 0.33972 0.28653 0.0
H1651 H 0.11798 0.34699 0.20438 0.0
H1652 H 0.10163 0.34628 0.22513 0.0
C1653 C 0.05318 0.3412 0.29931 0.0
C1654 C 0.06542 0.32494 0.26725 0.0
H1655 H 0.09873 0.33293 0.25785 0.0
C1656 C 0.05911 0.31916 0.25205 0.0
C1657 C 0.07981 0.32965 0.2695 0.0
C1658 C 0.087 0.33514 0.28583 0.0
C1659 C 0.06695 0.31847 0.23885 0.0
C1660 C 0.08141 0.32364 0.24097 0.0
C1661 C 0.08764 0.3291 0.25626 0.0
C1662 C 0.09042 0.32379 0.22744 0.0
C1663 C 0.05988 0.31263 0.22256 0.0
C1664 C 0.08943 0.31135 0.22182 0.0
C1665 C 0.09887 0.31171 0.21008 0.0
C1666 C 0.10947 0.32455 0.2038 0.0
C1667 C 0.11011 0.33695 0.20915 0.0
C1668 C 0.10073 0.33657 0.22092 0.0
H1669 H 0.04909 0.31091 0.22222 0.0
H1670 H 0.06603 0.31979 0.21239 0.0
H1671 H 0.05935 0.30248 0.22033 0.0
H1672 H 0.08165 0.3014 0.22689 0.0
H1673 H 0.09819 0.30199 0.20642 0.0
H1674 H 0.65009 0.70665 0.30558 0.0
H1675 H 0.65289 0.7223 0.28287 0.0
H1676 H 0.6975 0.73893 0.28372 0.0
H1677 H 0.69471 0.723 0.30622 0.0
H1678 H 0.66694 0.75033 0.28234 0.0
H1679 H 0.68889 0.73037 0.23531 0.0
H1680 H 0.68102 0.72104 0.25411 0.0
H1681 H 0.69867 0.73549 0.25415 0.0
C1682 C 0.66049 0.71357 0.30086 0.0
C1683 C 0.67218 0.71357 0.30763 0.0
C1684 C 0.66208 0.72251 0.28789 0.0
C1685 C 0.67538 0.73165 0.28142 0.0
C1686 C 0.6871 0.73174 0.28824 0.0
H1687 H 0.69402 0.80499 0.22358 0.0
H1688 H 0.69309 0.78884 0.24462 0.0
C1689 C 0.68551 0.72271 0.30117 0.0
C1690 C 0.67694 0.74143 0.26802 0.0
H1691 H 0.68916 0.75148 0.22889 0.0
C1692 C 0.67177 0.75055 0.27064 0.0
C1693 C 0.68308 0.74159 0.25268 0.0
C1694 C 0.68811 0.73151 0.24879 0.0
C1695 C 0.67267 0.7599 0.25841 0.0
C1696 C 0.67924 0.7604 0.24328 0.0
C1697 C 0.68428 0.75118 0.24057 0.0
C1698 C 0.68073 0.77027 0.23003 0.0
C1699 C 0.66627 0.76893 0.2617 0.0
C1700 C 0.67463 0.76524 0.21456 0.0
C1701 C 0.67538 0.77448 0.20234 0.0
C1702 C 0.68227 0.78895 0.20536 0.0
C1703 C 0.68874 0.79395 0.22073 0.0
C1704 C 0.68806 0.78471 0.23288 0.0
H1705 H 0.65838 0.76459 0.27172 0.0
H1706 H 0.6746 0.77948 0.26556 0.0
H1707 H 0.66118 0.77005 0.25049 0.0
H1708 H 0.66903 0.75413 0.21206 0.0
H1709 H 0.67048 0.77028 0.19057 0.0
H1710 H 0.28194 0.93934 0.31348 0.0
H1711 H 0.26693 0.92726 0.28998 0.0
H1712 H 0.27365 0.96653 0.27093 0.0
H1713 H 0.28844 0.97868 0.29473 0.0
H1714 H 0.24647 0.94642 0.26906 0.0
H1715 H 0.27927 0.92621 0.24356 0.0
H1716 H 0.27473 0.92121 0.26464 0.0
H1717 H 0.28544 0.9394 0.25941 0.0
C1718 C 0.28025 0.94541 0.30427 0.0
C1719 C 0.28642 0.95996 0.30589 0.0
C1720 C 0.27175 0.93851 0.29078 0.0
C1721 C 0.26943 0.94602 0.27849 0.0
C1722 C 0.2754 0.96054 0.2802 0.0
H1723 H 0.22937 0.90422 0.1861 0.0
H1724 H 0.24602 0.9207 0.20618 0.0
C1725 C 0.28384 0.96746 0.29379 0.0
C1726 C 0.26046 0.93861 0.26413 0.0
H1727 H 0.25567 0.91539 0.23367 0.0
C1728 C 0.24856 0.93976 0.2612 0.0
C1729 C 0.26333 0.93014 0.25366 0.0
C1730 C 0.27647 0.92928 0.25535 0.0
C1731 C 0.23915 0.93219 0.24852 0.0
C1732 C 0.24153 0.92298 0.23878 0.0
C1733 C 0.25374 0.9223 0.24127 0.0
C1734 C 0.23126 0.91356 0.22637 0.0
C1735 C 0.22678 0.9342 0.24568 0.0
C1736 C 0.21748 0.904 0.23106 0.0
C1737 C 0.20796 0.89466 0.21962 0.0
C1738 C 0.21209 0.89453 0.20329 0.0
C1739 C 0.22591 0.90405 0.19861 0.0
C1740 C 0.23541 0.91348 0.21005 0.0
H1741 H 0.22894 0.9446 0.25008 0.0
H1742 H 0.22392 0.93317 0.23245 0.0
H1743 H 0.21767 0.92616 0.25268 0.0
H1744 H 0.21415 0.90354 0.24369 0.0
H1745 H 0.19747 0.88726 0.22368 0.0
H1746 H 0.65222 0.94016 0.30904 0.0
H1747 H 0.65517 0.92769 0.28596 0.0
H1748 H 0.69647 0.96259 0.27717 0.0
H1749 H 0.69365 0.97513 0.30036 0.0
H1750 H 0.66096 0.93656 0.25245 0.0
H1751 H 0.70243 0.92858 0.28023 0.0
H1752 H 0.6917 0.93326 0.29234 0.0
H1753 H 0.70574 0.94623 0.28012 0.0
C1754 C 0.66196 0.94517 0.30224 0.0
C1755 C 0.67273 0.9586 0.30654 0.0
C1756 C 0.66361 0.93804 0.28905 0.0
C1757 C 0.67609 0.94416 0.27998 0.0
C1758 C 0.68685 0.9576 0.28418 0.0
H1759 H 0.70124 0.90937 0.199 0.0
H1760 H 0.70058 0.92523 0.21956 0.0
C1761 C 0.68519 0.96477 0.29738 0.0
C1762 C 0.67765 0.93647 0.266 0.0
H1763 H 0.69561 0.92056 0.25307 0.0
C1764 C 0.66856 0.93309 0.25254 0.0
C1765 C 0.68763 0.93205 0.26614 0.0
C1766 C 0.69739 0.9351 0.28051 0.0
C1767 C 0.66913 0.92531 0.23923 0.0
C1768 C 0.67885 0.92056 0.23956 0.0
C1769 C 0.68816 0.92422 0.25285 0.0
C1770 C 0.6791 0.91123 0.22665 0.0
C1771 C 0.65936 0.92233 0.22488 0.0
C1772 C 0.66729 0.89808 0.22392 0.0
C1773 C 0.66764 0.889 0.21224 0.0
C1774 C 0.67986 0.89285 0.20313 0.0
C1775 C 0.6917 0.90606 0.20589 0.0
C1776 C 0.69132 0.91515 0.21758 0.0
H1777 H 0.65571 0.93002 0.22418 0.0
H1778 H 0.66447 0.92248 0.21307 0.0
H1779 H 0.65002 0.91181 0.22645 0.0
H1780 H 0.65787 0.89469 0.23108 0.0
H1781 H 0.65844 0.8788 0.21069 0.0
H1782 H 0.06204 0.72072 0.31687 0.0
H1783 H 0.07454 0.73613 0.29382 0.0
H1784 H 0.03529 0.72694 0.2719 0.0
H1785 H 0.0227 0.71175 0.29523 0.0
H1786 H 0.07351 0.72993 0.26154 0.0
H1787 H 0.05688 0.76919 0.27064 0.0
H1788 H 0.05413 0.7563 0.286 0.0
H1789 H 0.04268 0.75159 0.26851 0.0
C1790 C 0.05607 0.72206 0.3072 0.0
C1791 C 0.0414 0.7151 0.30788 0.0
C1792 C 0.06322 0.73084 0.29402 0.0
C1793 C 0.05587 0.73283 0.28123 0.0
C1794 C 0.0412 0.72581 0.28181 0.0
H1795 H 0.09735 0.77086 0.18771 0.0
H1796 H 0.08152 0.75442 0.20842 0.0
C1797 C 0.03402 0.71709 0.29509 0.0
C1798 C 0.06366 0.74199 0.26716 0.0
H1799 H 0.0701 0.77158 0.2467 0.0
C1800 C 0.07275 0.73903 0.25826 0.0
C1801 C 0.06273 0.75392 0.26301 0.0
C1802 C 0.05369 0.75805 0.27262 0.0
C1803 C 0.08106 0.74773 0.24545 0.0
C1804 C 0.07999 0.75955 0.24114 0.0
C1805 C 0.0708 0.76244 0.24993 0.0
C1806 C 0.08896 0.76952 0.22825 0.0
C1807 C 0.09128 0.74446 0.23709 0.0
C1808 C 0.09803 0.78355 0.23238 0.0
C1809 C 0.10694 0.79296 0.22056 0.0
C1810 C 0.10697 0.78852 0.20436 0.0
C1811 C 0.09768 0.77452 0.20015 0.0
C1812 C 0.08867 0.76513 0.21197 0.0
H1813 H 0.09329 0.73723 0.24452 0.0
H1814 H 0.0869 0.73938 0.22508 0.0
H1815 H 0.1014 0.75414 0.23477 0.0
H1816 H 0.09843 0.78717 0.24486 0.0
H1817 H 0.11409 0.80364 0.22424 0.0
H1818 H 0.27977 0.30579 0.30364 0.0
H1819 H 0.26499 0.30335 0.27987 0.0
H1820 H 0.27962 0.3475 0.28148 0.0
H1821 H 0.2943 0.35002 0.30522 0.0
H1822 H 0.24358 0.31227 0.27934 0.0
H1823 H 0.28548 0.33864 0.23255 0.0
H1824 H 0.28788 0.33124 0.25124 0.0
H1825 H 0.28837 0.34769 0.25182 0.0
C1826 C 0.27986 0.31497 0.29887 0.0
C1827 C 0.28818 0.32809 0.30627 0.0
C1828 C 0.27143 0.31356 0.28533 0.0
C1829 C 0.27138 0.32528 0.27885 0.0
C1830 C 0.27969 0.33838 0.28618 0.0
H1831 H 0.23079 0.34702 0.20467 0.0
H1832 H 0.24621 0.34581 0.22528 0.0
C1833 C 0.28801 0.33978 0.29978 0.0
C1834 C 0.26221 0.32383 0.26485 0.0
H1835 H 0.26282 0.3342 0.22517 0.0
C1836 C 0.24773 0.31689 0.26741 0.0
C1837 C 0.26773 0.32996 0.24939 0.0
C1838 C 0.28321 0.33722 0.24596 0.0
C1839 C 0.2386 0.31641 0.25509 0.0
C1840 C 0.24412 0.32272 0.23965 0.0
C1841 C 0.25861 0.32936 0.23699 0.0
C1842 C 0.23513 0.32323 0.22644 0.0
C1843 C 0.22321 0.30971 0.259 0.0
C1844 C 0.22397 0.31094 0.21993 0.0
C1845 C 0.21498 0.31159 0.20833 0.0
C1846 C 0.21708 0.32457 0.20286 0.0
C1847 C 0.22867 0.33685 0.20887 0.0
C1848 C 0.23757 0.33618 0.22055 0.0
H1849 H 0.22124 0.30859 0.27247 0.0
H1850 H 0.21873 0.31591 0.25384 0.0
H1851 H 0.2176 0.29913 0.25347 0.0
H1852 H 0.22208 0.30083 0.22401 0.0
H1853 H 0.20614 0.30193 0.20405 0.0
H1854 H 0.3106 0.35808 0.395 0.0
H1855 H 0.29834 0.36049 0.41883 0.0
H1856 H 0.26116 0.32212 0.4055 0.0
H1857 H 0.27333 0.31957 0.38184 0.0
H1858 H 0.27389 0.36225 0.41925 0.0
H1859 H 0.26665 0.31604 0.45407 0.0
H1860 H 0.27888 0.32352 0.43725 0.0
H1861 H 0.26058 0.31209 0.43321 0.0
C1862 C 0.29983 0.35015 0.3972 0.0
C1863 C 0.29294 0.33861 0.38661 0.0
C1864 C 0.29285 0.35154 0.4108 0.0
C1865 C 0.27893 0.34136 0.41408 0.0
C1866 C 0.272 0.32993 0.4034 0.0
H1867 H 0.2121 0.34086 0.46613 0.0
H1868 H 0.22946 0.34208 0.44655 0.0
C1869 C 0.27895 0.32854 0.38983 0.0
C1870 C 0.27141 0.34285 0.42831 0.0
H1871 H 0.25256 0.32579 0.46245 0.0
C1872 C 0.26937 0.35438 0.42882 0.0
C1873 C 0.2657 0.33267 0.4409 0.0
C1874 C 0.26817 0.32045 0.44147 0.0
C1875 C 0.26118 0.35563 0.44115 0.0
C1876 C 0.25479 0.34502 0.45316 0.0
C1877 C 0.25738 0.33385 0.45313 0.0
C1878 C 0.24463 0.34484 0.46515 0.0
C1879 C 0.25924 0.36818 0.44113 0.0
C1880 C 0.24737 0.34581 0.4821 0.0
C1881 C 0.23744 0.3451 0.49335 0.0
C1882 C 0.22455 0.34317 0.48779 0.0
C1883 C 0.22188 0.34221 0.47078 0.0
C1884 C 0.23183 0.34304 0.45958 0.0
H1885 H 0.26758 0.37697 0.43398 0.0
H1886 H 0.24903 0.36528 0.43539 0.0
H1887 H 0.25922 0.37179 0.45387 0.0
H1888 H 0.25716 0.34708 0.48661 0.0
H1889 H 0.23972 0.34577 0.50639 0.0
H1890 H 0.63951 0.94788 0.3901 0.0
H1891 H 0.63662 0.93281 0.41367 0.0
H1892 H 0.67913 0.94186 0.40781 0.0
H1893 H 0.68214 0.95698 0.38442 0.0
H1894 H 0.63981 0.90903 0.41432 0.0
H1895 H 0.67713 0.95014 0.45668 0.0
H1896 H 0.67035 0.95405 0.43848 0.0
H1897 H 0.68441 0.95038 0.43686 0.0
C1898 C 0.64825 0.9467 0.3939 0.0
C1899 C 0.66107 0.95365 0.38547 0.0
C1900 C 0.64658 0.9381 0.40734 0.0
C1901 C 0.65774 0.93642 0.41264 0.0
C1902 C 0.67049 0.94326 0.40414 0.0
H1903 H 0.67441 0.88785 0.48107 0.0
H1904 H 0.67476 0.90417 0.4606 0.0
C1905 C 0.67216 0.95182 0.39071 0.0
C1906 C 0.65598 0.92715 0.42669 0.0
H1907 H 0.66966 0.92656 0.46414 0.0
C1908 C 0.6462 0.91286 0.42532 0.0
C1909 C 0.66434 0.93221 0.44099 0.0
C1910 C 0.67456 0.94755 0.44346 0.0
C1911 C 0.64495 0.90338 0.4376 0.0
C1912 C 0.65356 0.9084 0.45173 0.0
C1913 C 0.6631 0.92274 0.45327 0.0
C1914 C 0.65332 0.89886 0.46467 0.0
C1915 C 0.63485 0.88802 0.43505 0.0
C1916 C 0.64121 0.89066 0.47398 0.0
C1917 C 0.64099 0.88134 0.48577 0.0
C1918 C 0.65291 0.88014 0.48852 0.0
C1919 C 0.66511 0.88863 0.47942 0.0
C1920 C 0.66531 0.89792 0.46765 0.0
H1921 H 0.63128 0.8856 0.42207 0.0
H1922 H 0.63969 0.88171 0.4386 0.0
H1923 H 0.62552 0.88476 0.44293 0.0
H1924 H 0.63194 0.89145 0.47211 0.0
H1925 H 0.6315 0.87511 0.49275 0.0
H1926 H 0.0553 0.69484 0.38879 0.0
H1927 H 0.0711 0.70792 0.41146 0.0
H1928 H 0.05436 0.73572 0.41238 0.0
H1929 H 0.03883 0.72293 0.38951 0.0
H1930 H 0.08243 0.74983 0.41246 0.0
H1931 H 0.06306 0.70835 0.46002 0.0
H1932 H 0.06798 0.70356 0.44113 0.0
H1933 H 0.0535 0.70667 0.44135 0.0
C1934 C 0.05492 0.70367 0.39393 0.0
C1935 C 0.04584 0.70787 0.38739 0.0
C1936 C 0.06388 0.71108 0.40695 0.0
C1937 C 0.06377 0.72268 0.41378 0.0
C1938 C 0.05459 0.72677 0.40735 0.0
H1939 H 0.10369 0.76753 0.50368 0.0
H1940 H 0.0872 0.75242 0.48263 0.0
C1941 C 0.04572 0.71945 0.39428 0.0
C1942 C 0.0737 0.73107 0.42703 0.0
H1943 H 0.08427 0.72934 0.46602 0.0
C1944 C 0.0828 0.74535 0.42419 0.0
C1945 C 0.07406 0.72525 0.4424 0.0
C1946 C 0.06404 0.71015 0.44651 0.0
C1947 C 0.09232 0.75396 0.43622 0.0
C1948 C 0.09303 0.74806 0.45137 0.0
C1949 C 0.08383 0.7338 0.45431 0.0
C1950 C 0.1031 0.75661 0.4644 0.0
C1951 C 0.10133 0.76937 0.43268 0.0
C1952 C 0.11751 0.76372 0.46127 0.0
C1953 C 0.12694 0.77251 0.47317 0.0
C1954 C 0.12216 0.77423 0.48856 0.0
C1955 C 0.10772 0.76665 0.49187 0.0
C1956 C 0.09829 0.75792 0.47991 0.0
H1957 H 0.09686 0.77278 0.42269 0.0
H1958 H 0.10259 0.7757 0.44383 0.0
H1959 H 0.11184 0.77158 0.42868 0.0
H1960 H 0.12148 0.76264 0.4495 0.0
H1961 H 0.13795 0.77825 0.4701 0.0
H1962 H 0.31107 0.02298 0.73144 0.0
H1963 H 0.30817 0.03552 0.75456 0.0
H1964 H 0.34109 0.07448 0.73508 0.0
H1965 H 0.34432 0.06199 0.7123 0.0
H1966 H 0.34413 0.07274 0.76742 0.0
H1967 H 0.28937 0.05866 0.75415 0.0
H1968 H 0.29167 0.04384 0.75687 0.0
H1969 H 0.29984 0.05543 0.73974 0.0
C1970 C 0.31765 0.03422 0.73209 0.0
C1971 C 0.32789 0.04152 0.72005 0.0
C1972 C 0.31592 0.04138 0.74524 0.0
C1973 C 0.32425 0.05597 0.74641 0.0
C1974 C 0.33452 0.06323 0.73441 0.0
H1975 H 0.31125 0.11445 0.80235 0.0
H1976 H 0.31225 0.09883 0.78184 0.0
C1977 C 0.33634 0.05608 0.72138 0.0
C1978 C 0.32256 0.06375 0.76026 0.0
H1979 H 0.2992 0.07092 0.77897 0.0
C1980 C 0.3343 0.07233 0.76996 0.0
C1981 C 0.30977 0.06332 0.76345 0.0
C1982 C 0.29697 0.05493 0.75292 0.0
C1983 C 0.33366 0.0806 0.78264 0.0
C1984 C 0.32079 0.07996 0.78605 0.0
C1985 C 0.30902 0.07128 0.77645 0.0
C1986 C 0.31954 0.08883 0.79886 0.0
C1987 C 0.34691 0.09032 0.79182 0.0
C1988 C 0.32302 0.08821 0.81534 0.0
C1989 C 0.32257 0.09722 0.82707 0.0
C1990 C 0.31836 0.10683 0.82258 0.0
C1991 C 0.3144 0.10707 0.80621 0.0
C1992 C 0.31501 0.09818 0.79447 0.0
H1993 H 0.35638 0.09226 0.7849 0.0
H1994 H 0.34759 0.10052 0.79428 0.0
H1995 H 0.34697 0.08554 0.8038 0.0
H1996 H 0.3262 0.08083 0.8191 0.0
H1997 H 0.32551 0.09669 0.83965 0.0
H1998 H 0.93917 0.28277 0.71197 0.0
H1999 H 0.92712 0.26784 0.73551 0.0
H2000 H 0.96637 0.27392 0.75399 0.0
H2001 H 0.97848 0.28861 0.73013 0.0
H2002 H 0.94615 0.24697 0.75588 0.0
H2003 H 0.92643 0.27993 0.78207 0.0
H2004 H 0.92123 0.27548 0.76102 0.0
H2005 H 0.93949 0.28605 0.76606 0.0
C2006 C 0.94525 0.28096 0.72106 0.0
C2007 C 0.95978 0.28691 0.71926 0.0
C2008 C 0.93836 0.27251 0.73458 0.0
C2009 C 0.94588 0.27002 0.74672 0.0
C2010 C 0.96038 0.2758 0.74484 0.0
H2011 H 0.90417 0.22967 0.83905 0.0
H2012 H 0.92064 0.2464 0.81902 0.0
C2013 C 0.96728 0.28418 0.73122 0.0
C2014 C 0.93849 0.26103 0.76107 0.0
H2015 H 0.91541 0.25627 0.79173 0.0
C2016 C 0.93956 0.24908 0.76384 0.0
C2017 C 0.93011 0.26393 0.77168 0.0
C2018 C 0.92936 0.27713 0.77018 0.0
C2019 C 0.932 0.23965 0.77649 0.0
C2020 C 0.92286 0.24205 0.78636 0.0
C2021 C 0.92227 0.25431 0.78403 0.0
C2022 C 0.91341 0.23176 0.79871 0.0
C2023 C 0.93394 0.22724 0.77917 0.0
C2024 C 0.9038 0.21803 0.79393 0.0
C2025 C 0.89448 0.20847 0.80535 0.0
C2026 C 0.89441 0.2125 0.82173 0.0
C2027 C 0.90396 0.22628 0.82649 0.0
C2028 C 0.91339 0.23582 0.81509 0.0
H2029 H 0.94433 0.22937 0.77473 0.0
H2030 H 0.9329 0.2243 0.79237 0.0
H2031 H 0.92586 0.2182 0.77212 0.0
H2032 H 0.9033 0.21476 0.78127 0.0
H2033 H 0.88705 0.19801 0.80123 0.0
H2034 H 0.7092 0.65146 0.71726 0.0
H2035 H 0.72404 0.65388 0.74075 0.0
H2036 H 0.73275 0.69607 0.74831 0.0
H2037 H 0.71794 0.69375 0.72465 0.0
H2038 H 0.75662 0.6933 0.7487 0.0
H2039 H 0.7155 0.6545 0.7898 0.0
H2040 H 0.71537 0.64773 0.76969 0.0
H2041 H 0.71156 0.66165 0.77197 0.0
C2042 C 0.71422 0.66124 0.72395 0.0
C2043 C 0.71238 0.67241 0.71915 0.0
C2044 C 0.72261 0.66257 0.73744 0.0
C2045 C 0.72929 0.67507 0.74644 0.0
C2046 C 0.72758 0.68629 0.7416 0.0
H2047 H 0.77398 0.6807 0.83813 0.0
H2048 H 0.75838 0.68253 0.81807 0.0
C2049 C 0.71913 0.68496 0.7281 0.0
C2050 C 0.73852 0.67652 0.76042 0.0
H2051 H 0.73916 0.66149 0.79684 0.0
C2052 C 0.75279 0.68647 0.75933 0.0
C2053 C 0.73345 0.66774 0.77439 0.0
C2054 C 0.71811 0.65739 0.77666 0.0
C2055 C 0.76225 0.68742 0.77147 0.0
C2056 C 0.75731 0.67805 0.78493 0.0
C2057 C 0.74294 0.66856 0.78643 0.0
C2058 C 0.76697 0.6774 0.79705 0.0
C2059 C 0.77748 0.69835 0.76972 0.0
C2060 C 0.77684 0.67378 0.79189 0.0
C2061 C 0.78572 0.67274 0.80326 0.0
C2062 C 0.78488 0.67522 0.82008 0.0
C2063 C 0.77496 0.67885 0.82525 0.0
C2064 C 0.76602 0.67984 0.81383 0.0
H2065 H 0.77889 0.70711 0.76173 0.0
H2066 H 0.78229 0.70262 0.7819 0.0
H2067 H 0.78317 0.69355 0.76398 0.0
H2068 H 0.77757 0.67161 0.77904 0.0
H2069 H 0.79334 0.67008 0.79885 0.0
H2070 H 0.72804 0.68068 0.64561 0.0
H2071 H 0.74075 0.67805 0.62257 0.0
H2072 H 0.70348 0.64044 0.60758 0.0
H2073 H 0.69062 0.64299 0.63067 0.0
H2074 H 0.74411 0.65414 0.61571 0.0
H2075 H 0.71725 0.66589 0.56555 0.0
H2076 H 0.71691 0.67068 0.58672 0.0
H2077 H 0.70629 0.65286 0.58032 0.0
C2078 C 0.72253 0.67185 0.63741 0.0
C2079 C 0.70832 0.66206 0.63991 0.0
C2080 C 0.72981 0.67036 0.62427 0.0
C2081 C 0.72301 0.65914 0.61331 0.0
C2082 C 0.70885 0.64927 0.6158 0.0
H2083 H 0.76685 0.63596 0.54156 0.0
H2084 H 0.75036 0.63495 0.5624 0.0
C2085 C 0.70155 0.65071 0.62903 0.0
C2086 C 0.73089 0.65775 0.59944 0.0
H2087 H 0.73441 0.6603 0.55763 0.0
C2088 C 0.74194 0.65538 0.60299 0.0
C2089 C 0.72807 0.65951 0.58291 0.0
C2090 C 0.71656 0.66247 0.57854 0.0
C2091 C 0.75035 0.65481 0.59043 0.0
C2092 C 0.74753 0.65655 0.5739 0.0
C2093 C 0.73644 0.65885 0.57033 0.0
C2094 C 0.75653 0.65677 0.56029 0.0
C2095 C 0.76244 0.65276 0.59496 0.0
C2096 C 0.76512 0.66928 0.55189 0.0
C2097 C 0.77451 0.66988 0.53996 0.0
C2098 C 0.77539 0.65796 0.53614 0.0
C2099 C 0.76635 0.6453 0.54414 0.0
C2100 C 0.75701 0.64472 0.55613 0.0
H2101 H 0.76469 0.65409 0.60837 0.0
H2102 H 0.7599 0.64205 0.59145 0.0
H2103 H 0.77202 0.66026 0.58818 0.0
H2104 H 0.76484 0.67867 0.5549 0.0
H2105 H 0.7812 0.67973 0.53386 0.0
H2106 H 0.35612 0.04587 0.62995 0.0
H2107 H 0.35856 0.06103 0.6067 0.0
H2108 H 0.32474 0.06573 0.62583 0.0
H2109 H 0.32197 0.05027 0.64874 0.0
H2110 H 0.32202 0.06086 0.5934 0.0
H2111 H 0.37613 0.10293 0.60722 0.0
H2112 H 0.37444 0.08605 0.60458 0.0
H2113 H 0.36587 0.08908 0.62157 0.0
C2114 C 0.34924 0.05018 0.6292 0.0
C2115 C 0.33889 0.04694 0.64118 0.0
C2116 C 0.3507 0.0589 0.61597 0.0
C2117 C 0.34199 0.06471 0.61467 0.0
C2118 C 0.3316 0.0614 0.6266 0.0
H2119 H 0.35318 0.13551 0.55882 0.0
H2120 H 0.35228 0.11897 0.57936 0.0
C2121 C 0.33005 0.05258 0.6397 0.0
C2122 C 0.34344 0.07406 0.60079 0.0
H2123 H 0.3662 0.10497 0.58231 0.0
C2124 C 0.33168 0.0705 0.59095 0.0
C2125 C 0.35602 0.08671 0.59773 0.0
C2126 C 0.3688 0.09152 0.60841 0.0
C2127 C 0.3321 0.07928 0.57825 0.0
C2128 C 0.34475 0.0918 0.57499 0.0
C2129 C 0.35655 0.0953 0.58473 0.0
C2130 C 0.34574 0.10184 0.56221 0.0
C2131 C 0.31882 0.0753 0.56888 0.0
C2132 C 0.34259 0.09778 0.54567 0.0
C2133 C 0.34299 0.1072 0.53391 0.0
C2134 C 0.3468 0.12091 0.53845 0.0
C2135 C 0.35034 0.12505 0.55492 0.0
C2136 C 0.3498 0.1156 0.56668 0.0
H2137 H 0.3094 0.06748 0.57566 0.0
H2138 H 0.31775 0.08459 0.56642 0.0
H2139 H 0.31909 0.07064 0.5569 0.0
H2140 H 0.33978 0.08732 0.54185 0.0
H2141 H 0.34038 0.1038 0.52126 0.0
H2142 H 0.94847 0.30752 0.63382 0.0
H2143 H 0.93261 0.29423 0.61123 0.0
H2144 H 0.94102 0.26067 0.61959 0.0
H2145 H 0.95669 0.27376 0.64224 0.0
H2146 H 0.93796 0.28367 0.58223 0.0
H2147 H 0.89829 0.24103 0.62113 0.0
H2148 H 0.91168 0.25741 0.62959 0.0
H2149 H 0.91569 0.24407 0.62405 0.0
C2150 C 0.9469 0.2973 0.63085 0.0
C2151 C 0.95373 0.29163 0.63987 0.0
C2152 C 0.93787 0.28974 0.61794 0.0
C2153 C 0.93547 0.27638 0.61393 0.0
C2154 C 0.9425 0.27083 0.62272 0.0
H2155 H 0.88808 0.21163 0.5435 0.0
H2156 H 0.90416 0.22714 0.56454 0.0
C2157 C 0.9515 0.27836 0.6356 0.0
C2158 C 0.92573 0.26822 0.60047 0.0
H2159 H 0.89629 0.23714 0.5922 0.0
C2160 C 0.92877 0.27356 0.58439 0.0
C2161 C 0.91374 0.25504 0.60337 0.0
C2162 C 0.90955 0.24909 0.62049 0.0
C2163 C 0.92038 0.26583 0.57103 0.0
C2164 C 0.90857 0.25252 0.57391 0.0
C2165 C 0.90541 0.24731 0.59003 0.0
C2166 C 0.89947 0.24365 0.56039 0.0
C2167 C 0.92444 0.27175 0.5539 0.0
C2168 C 0.89152 0.24783 0.55105 0.0
C2169 C 0.88236 0.23901 0.53893 0.0
C2170 C 0.88096 0.22584 0.53597 0.0
C2171 C 0.88907 0.22179 0.54526 0.0
C2172 C 0.89819 0.23059 0.55737 0.0
H2173 H 0.93536 0.28061 0.55338 0.0
H2174 H 0.92332 0.26358 0.54508 0.0
H2175 H 0.9174 0.27561 0.54984 0.0
H2176 H 0.8922 0.25779 0.55336 0.0
H2177 H 0.87632 0.24247 0.53193 0.0
H2178 H 0.36024 0.30806 0.63442 0.0
H2179 H 0.36259 0.29535 0.61103 0.0
H2180 H 0.31994 0.26239 0.61782 0.0
H2181 H 0.31748 0.27502 0.64103 0.0
H2182 H 0.35893 0.2682 0.61073 0.0
H2183 H 0.32142 0.27201 0.56882 0.0
H2184 H 0.32856 0.28292 0.58681 0.0
H2185 H 0.31435 0.26527 0.58882 0.0
C2186 C 0.35136 0.29813 0.63087 0.0
C2187 C 0.33866 0.29256 0.6395 0.0
C2188 C 0.35271 0.29089 0.61752 0.0
C2189 C 0.34136 0.27805 0.61253 0.0
C2190 C 0.32873 0.27243 0.62125 0.0
H2191 H 0.32306 0.21176 0.54472 0.0
H2192 H 0.32309 0.228 0.56511 0.0
C2193 C 0.32738 0.27962 0.63458 0.0
C2194 C 0.34277 0.27024 0.59856 0.0
H2195 H 0.32848 0.25559 0.56144 0.0
C2196 C 0.35241 0.26557 0.59985 0.0
C2197 C 0.33423 0.26685 0.5844 0.0
C2198 C 0.32414 0.27213 0.58201 0.0
C2199 C 0.35335 0.2571 0.58764 0.0
C2200 C 0.34458 0.25344 0.57365 0.0
C2201 C 0.33517 0.25839 0.57219 0.0
C2202 C 0.34457 0.24397 0.56074 0.0
C2203 C 0.36333 0.2517 0.59011 0.0
C2204 C 0.35655 0.2477 0.55129 0.0
C2205 C 0.35655 0.23845 0.53955 0.0
C2206 C 0.34453 0.22534 0.53699 0.0
C2207 C 0.33244 0.22182 0.54623 0.0
C2208 C 0.33246 0.23106 0.55795 0.0
H2209 H 0.36701 0.25291 0.60305 0.0
H2210 H 0.35833 0.2405 0.58667 0.0
H2211 H 0.37261 0.25764 0.58211 0.0
H2212 H 0.36592 0.25774 0.55301 0.0
H2213 H 0.36596 0.24157 0.53246 0.0
H2214 H 0.7244 0.04032 0.63742 0.0
H2215 H 0.7373 0.05631 0.61495 0.0
H2216 H 0.70835 0.07167 0.61521 0.0
H2217 H 0.69516 0.05543 0.63752 0.0
H2218 H 0.71478 0.06724 0.58382 0.0
H2219 H 0.76309 0.09809 0.62037 0.0
H2220 H 0.75738 0.07979 0.61989 0.0
H2221 H 0.74665 0.08569 0.62964 0.0
C2222 C 0.72076 0.04709 0.63269 0.0
C2223 C 0.70883 0.04671 0.63931 0.0
C2224 C 0.72819 0.05627 0.6199 0.0
C2225 C 0.72395 0.06538 0.61364 0.0
C2226 C 0.71184 0.06479 0.61995 0.0
H2227 H 0.77829 0.13833 0.55516 0.0
H2228 H 0.76255 0.12227 0.57595 0.0
C2229 C 0.70434 0.05553 0.63269 0.0
C2230 C 0.73221 0.07554 0.60057 0.0
H2231 H 0.76491 0.10231 0.59153 0.0
C2232 C 0.72572 0.07497 0.58551 0.0
C2233 C 0.74643 0.08576 0.6029 0.0
C2234 C 0.75377 0.08749 0.61912 0.0
C2235 C 0.73316 0.08415 0.57258 0.0
C2236 C 0.74753 0.09396 0.57468 0.0
C2237 C 0.75393 0.0947 0.58986 0.0
C2238 C 0.7562 0.10366 0.56141 0.0
C2239 C 0.72549 0.08338 0.55691 0.0
C2240 C 0.75783 0.09856 0.54626 0.0
C2241 C 0.76668 0.10776 0.53419 0.0
C2242 C 0.77422 0.12224 0.53712 0.0
C2243 C 0.77248 0.12729 0.55231 0.0
C2244 C 0.76356 0.11811 0.5643 0.0
H2245 H 0.71404 0.07839 0.55899 0.0
H2246 H 0.72932 0.09393 0.55161 0.0
H2247 H 0.72725 0.07699 0.54775 0.0
H2248 H 0.75249 0.08744 0.54387 0.0
H2249 H 0.76768 0.1035 0.52261 0.0
H2250 H 0.95717 0.68252 0.64192 0.0
H2251 H 0.94202 0.68017 0.6188 0.0
H2252 H 0.93446 0.63858 0.60953 0.0
H2253 H 0.94955 0.6408 0.63283 0.0
H2254 H 0.94447 0.67464 0.58532 0.0
H2255 H 0.89491 0.63353 0.61349 0.0
H2256 H 0.91061 0.64381 0.62538 0.0
H2257 H 0.90898 0.62983 0.61262 0.0
C2258 C 0.95227 0.67285 0.63499 0.0
C2259 C 0.95448 0.6618 0.63924 0.0
C2260 C 0.94365 0.67155 0.62176 0.0
C2261 C 0.93702 0.65916 0.61257 0.0
C2262 C 0.93932 0.64815 0.61663 0.0
H2263 H 0.89295 0.65347 0.5201 0.0
H2264 H 0.90876 0.65216 0.54027 0.0
C2265 C 0.94797 0.64945 0.62989 0.0
C2266 C 0.92768 0.65789 0.5988 0.0
H2267 H 0.89348 0.64099 0.58678 0.0
C2268 C 0.93334 0.66721 0.58554 0.0
C2269 C 0.91316 0.64826 0.59924 0.0
C2270 C 0.90647 0.63834 0.61348 0.0
C2271 C 0.92481 0.66731 0.57281 0.0
C2272 C 0.91028 0.65772 0.57329 0.0
C2273 C 0.90465 0.64825 0.58641 0.0
C2274 C 0.90058 0.65808 0.561 0.0
C2275 C 0.93132 0.67802 0.55927 0.0
C2276 C 0.89057 0.66154 0.56605 0.0
C2277 C 0.88151 0.66221 0.55463 0.0
C2278 C 0.88222 0.65938 0.5379 0.0
C2279 C 0.89212 0.65568 0.5329 0.0
C2280 C 0.90123 0.65504 0.54437 0.0
H2281 H 0.94214 0.68629 0.56236 0.0
H2282 H 0.93171 0.67278 0.54781 0.0
H2283 H 0.92495 0.68301 0.55678 0.0
H2284 H 0.88985 0.66385 0.57885 0.0
H2285 H 0.87383 0.66482 0.55895 0.0
H2286 H 0.97576 0.69212 0.72543 0.0
H2287 H 0.9632 0.69434 0.74907 0.0
H2288 H 0.92837 0.65322 0.73925 0.0
H2289 H 0.94084 0.65089 0.71576 0.0
H2290 H 0.93697 0.69282 0.74917 0.0
H2291 H 0.93649 0.65161 0.78836 0.0
H2292 H 0.94805 0.65907 0.77094 0.0
H2293 H 0.9301 0.6458 0.76789 0.0
C2294 C 0.96545 0.68354 0.72836 0.0
C2295 C 0.9593 0.67132 0.71879 0.0
C2296 C 0.9583 0.68482 0.74185 0.0
C2297 C 0.94497 0.67385 0.74605 0.0
C2298 C 0.93878 0.66169 0.73642 0.0
H2299 H 0.87652 0.66998 0.79871 0.0
H2300 H 0.89371 0.6713 0.77884 0.0
C2301 C 0.94588 0.66042 0.72294 0.0
C2302 C 0.93722 0.67523 0.7601 0.0
H2303 H 0.92064 0.65948 0.7959 0.0
C2304 C 0.93354 0.68565 0.75949 0.0
C2305 C 0.93292 0.66598 0.77366 0.0
C2306 C 0.9372 0.65507 0.77539 0.0
C2307 C 0.92511 0.68665 0.77172 0.0
C2308 C 0.92015 0.67687 0.78476 0.0
C2309 C 0.92437 0.66688 0.78579 0.0
C2310 C 0.90993 0.67636 0.79692 0.0
C2311 C 0.92148 0.69805 0.77049 0.0
C2312 C 0.91327 0.67848 0.81373 0.0
C2313 C 0.9034 0.67764 0.82516 0.0
C2314 C 0.88999 0.67447 0.81997 0.0
C2315 C 0.8867 0.67229 0.80312 0.0
C2316 C 0.89657 0.6732 0.79173 0.0
H2317 H 0.92908 0.70683 0.76268 0.0
H2318 H 0.91098 0.69374 0.76483 0.0
H2319 H 0.92118 0.70218 0.78285 0.0
H2320 H 0.9235 0.68081 0.81797 0.0
H2321 H 0.90619 0.67926 0.83808 0.0
H2322 H 0.34994 0.29251 0.71861 0.0
H2323 H 0.34696 0.27643 0.74089 0.0
H2324 H 0.30277 0.26197 0.74224 0.0
H2325 H 0.30573 0.27829 0.72012 0.0
H2326 H 0.31443 0.26662 0.77319 0.0
H2327 H 0.32989 0.23448 0.73621 0.0
H2328 H 0.34285 0.25269 0.73616 0.0
H2329 H 0.326 0.24698 0.72703 0.0
C2330 C 0.33958 0.28589 0.72363 0.0
C2331 C 0.32804 0.28658 0.71754 0.0
C2332 C 0.33789 0.27666 0.73631 0.0
C2333 C 0.32461 0.26781 0.74301 0.0
C2334 C 0.3131 0.26865 0.73717 0.0
H2335 H 0.30636 0.19569 0.80293 0.0
H2336 H 0.30629 0.21138 0.78192 0.0
C2337 C 0.3148 0.27795 0.72452 0.0
C2338 C 0.32279 0.25776 0.75617 0.0
H2339 H 0.32832 0.23081 0.76519 0.0
C2340 C 0.31738 0.25873 0.77143 0.0
C2341 C 0.32644 0.24733 0.75377 0.0
C2342 C 0.33148 0.24519 0.73736 0.0
C2343 C 0.31583 0.24974 0.78449 0.0
C2344 C 0.32008 0.23973 0.7823 0.0
C2345 C 0.3252 0.23858 0.76692 0.0
C2346 C 0.31931 0.23027 0.79572 0.0
C2347 C 0.30949 0.25094 0.8004 0.0
C2348 C 0.3266 0.23566 0.81052 0.0
C2349 C 0.32649 0.22668 0.82271 0.0
C2350 C 0.31921 0.21213 0.82025 0.0
C2351 C 0.31185 0.2068 0.80542 0.0
C2352 C 0.3119 0.21577 0.79331 0.0
H2353 H 0.30311 0.25602 0.79852 0.0
H2354 H 0.30279 0.24053 0.80607 0.0
H2355 H 0.31799 0.25745 0.80918 0.0
H2356 H 0.33264 0.24683 0.81252 0.0
H2357 H 0.33218 0.23116 0.83401 0.0
H2358 H 0.71248 0.02214 0.73032 0.0
H2359 H 0.72718 0.03431 0.75416 0.0
H2360 H 0.73472 0.07367 0.73446 0.0
H2361 H 0.71981 0.06159 0.71088 0.0
H2362 H 0.75453 0.0542 0.7561 0.0
H2363 H 0.72206 0.07515 0.78066 0.0
H2364 H 0.71585 0.06184 0.76495 0.0
H2365 H 0.72679 0.07996 0.75957 0.0
C2366 C 0.71725 0.03339 0.73112 0.0
C2367 C 0.71492 0.04091 0.71881 0.0
C2368 C 0.72563 0.04032 0.74473 0.0
C2369 C 0.7318 0.05487 0.74626 0.0
C2370 C 0.72974 0.06241 0.73378 0.0
H2371 H 0.80354 0.11333 0.80157 0.0
H2372 H 0.78694 0.09711 0.78147 0.0
C2373 C 0.72131 0.05549 0.72024 0.0
C2374 C 0.74071 0.06227 0.76066 0.0
H2375 H 0.74552 0.08566 0.79092 0.0
C2376 C 0.75249 0.06097 0.76383 0.0
C2377 C 0.73789 0.07087 0.77097 0.0
C2378 C 0.72488 0.07193 0.76899 0.0
C2379 C 0.76183 0.06849 0.77658 0.0
C2380 C 0.7595 0.07781 0.78617 0.0
C2381 C 0.74741 0.07866 0.78344 0.0
C2382 C 0.7697 0.08718 0.79864 0.0
C2383 C 0.77407 0.06633 0.77967 0.0
C2384 C 0.76547 0.08727 0.81492 0.0
C2385 C 0.77493 0.09666 0.82642 0.0
C2386 C 0.78881 0.10612 0.82185 0.0
C2387 C 0.79301 0.10597 0.80556 0.0
C2388 C 0.78353 0.09667 0.79406 0.0
H2389 H 0.77186 0.05591 0.7753 0.0
H2390 H 0.7833 0.07433 0.77279 0.0
H2391 H 0.77677 0.06732 0.79295 0.0
H2392 H 0.75482 0.0801 0.8187 0.0
H2393 H 0.77141 0.09649 0.8389 0.0
H2394 H 0.01565 0.32985 0.0522 0.0
H2395 H 0.03319 0.32644 0.06647 0.0
H2396 H 0.06503 0.35562 0.03353 0.0
H2397 H 0.04755 0.35921 0.01926 0.0
H2398 H 0.05117 0.31731 0.05446 0.0
H2399 H 0.08052 0.37122 0.07961 0.0
H2400 H 0.06323 0.36399 0.07093 0.0
H2401 H 0.07818 0.37014 0.05768 0.0
C2402 C 0.02638 0.33551 0.04795 0.0
C2403 C 0.03026 0.34487 0.03467 0.0
C2404 C 0.03638 0.33354 0.05611 0.0
C2405 C 0.05042 0.34092 0.0512 0.0
C2406 C 0.05428 0.35 0.03768 0.0
H2407 H 0.11612 0.32462 0.0836 0.0
H2408 H 0.09885 0.32715 0.06742 0.0
C2409 C 0.04428 0.35199 0.0295 0.0
C2410 C 0.06102 0.33918 0.0604 0.0
H2411 H 0.0901 0.35664 0.08444 0.0
C2412 C 0.05971 0.3259 0.06099 0.0
C2413 C 0.07202 0.35038 0.06907 0.0
C2414 C 0.07356 0.36472 0.06946 0.0
C2415 C 0.06917 0.32354 0.06998 0.0
C2416 C 0.08032 0.3348 0.0784 0.0
C2417 C 0.08159 0.34806 0.07787 0.0
C2418 C 0.09062 0.333 0.08817 0.0
C2419 C 0.06697 0.30895 0.0707 0.0
C2420 C 0.09186 0.33567 0.10514 0.0
C2421 C 0.1017 0.33423 0.11442 0.0
C2422 C 0.11056 0.33017 0.10687 0.0
C2423 C 0.1093 0.32753 0.08983 0.0
C2424 C 0.09945 0.32898 0.08057 0.0
H2425 H 0.05621 0.30098 0.06693 0.0
H2426 H 0.07443 0.3082 0.06221 0.0
H2427 H 0.06893 0.30644 0.0833 0.0
H2428 H 0.08514 0.33879 0.11123 0.0
H2429 H 0.10229 0.33619 0.12753 0.0
H2430 H 0.66765 0.68246 0.05543 0.0
H2431 H 0.67097 0.7033 0.06987 0.0
H2432 H 0.64782 0.71017 0.03191 0.0
H2433 H 0.64422 0.68916 0.01754 0.0
H2434 H 0.6837 0.73079 0.05978 0.0
H2435 H 0.62759 0.71056 0.07361 0.0
H2436 H 0.63409 0.69945 0.06643 0.0
H2437 H 0.63133 0.71025 0.05217 0.0
C2438 C 0.66327 0.68841 0.05015 0.0
C2439 C 0.6556 0.68413 0.03541 0.0
C2440 C 0.66518 0.70031 0.05841 0.0
C2441 C 0.65944 0.70814 0.05211 0.0
C2442 C 0.65207 0.7041 0.03718 0.0
H2443 H 0.66019 0.7829 0.0864 0.0
H2444 H 0.65743 0.76291 0.07049 0.0
C2445 C 0.6501 0.69215 0.02893 0.0
C2446 C 0.66125 0.72057 0.06119 0.0
H2447 H 0.64328 0.73425 0.08028 0.0
C2448 C 0.67487 0.73154 0.06429 0.0
C2449 C 0.6497 0.7215 0.06709 0.0
C2450 C 0.63485 0.70977 0.06481 0.0
C2451 C 0.67725 0.7435 0.07298 0.0
C2452 C 0.66571 0.74442 0.07888 0.0
C2453 C 0.65209 0.7335 0.0757 0.0
C2454 C 0.66753 0.75657 0.08853 0.0
C2455 C 0.69208 0.75516 0.07557 0.0
C2456 C 0.67396 0.7595 0.10404 0.0
C2457 C 0.67545 0.77084 0.11324 0.0
C2458 C 0.67048 0.77944 0.10712 0.0
C2459 C 0.66397 0.7764 0.09159 0.0
C2460 C 0.66246 0.76504 0.08242 0.0
H2461 H 0.69948 0.75434 0.06703 0.0
H2462 H 0.69291 0.7655 0.07385 0.0
H2463 H 0.69534 0.75465 0.08835 0.0
H2464 H 0.67769 0.75291 0.10911 0.0
H2465 H 0.68029 0.77273 0.12526 0.0
H2466 H 0.31294 0.95348 0.01923 0.0
H2467 H 0.29194 0.93612 0.03376 0.0
H2468 H 0.29201 0.96887 0.06261 0.0
H2469 H 0.31309 0.98622 0.04836 0.0
H2470 H 0.28937 0.94721 0.08152 0.0
H2471 H 0.25151 0.92723 0.0298 0.0
H2472 H 0.26721 0.92663 0.02607 0.0
H2473 H 0.26813 0.94322 0.02845 0.0
C2474 C 0.30837 0.95698 0.02854 0.0
C2475 C 0.31464 0.9712 0.03265 0.0
C2476 C 0.29634 0.94706 0.03677 0.0
C2477 C 0.29032 0.95122 0.04913 0.0
C2478 C 0.29647 0.96544 0.05308 0.0
H2479 H 0.20978 0.90098 0.09669 0.0
H2480 H 0.22976 0.91842 0.08083 0.0
C2481 C 0.3085 0.97534 0.0449 0.0
C2482 C 0.27807 0.94074 0.05862 0.0
H2483 H 0.2441 0.91462 0.05497 0.0
C2484 C 0.27945 0.94011 0.07572 0.0
C2485 C 0.26511 0.9316 0.05105 0.0
C2486 C 0.26281 0.93225 0.03286 0.0
C2487 C 0.26828 0.93047 0.08545 0.0
C2488 C 0.25546 0.92104 0.07783 0.0
C2489 C 0.254 0.92178 0.06076 0.0
C2490 C 0.24338 0.91042 0.08741 0.0
C2491 C 0.27024 0.93065 0.10385 0.0
C2492 C 0.24439 0.90006 0.09622 0.0
C2493 C 0.23305 0.89017 0.10542 0.0
C2494 C 0.22043 0.89037 0.10587 0.0
C2495 C 0.21941 0.90066 0.09683 0.0
C2496 C 0.23077 0.91056 0.08765 0.0
H2497 H 0.27921 0.94071 0.10809 0.0
H2498 H 0.26069 0.92886 0.11046 0.0
H2499 H 0.27237 0.92219 0.10729 0.0
H2500 H 0.25396 0.89962 0.09598 0.0
H2501 H 0.23423 0.88246 0.11232 0.0
H2502 H 0.35046 0.04363 0.01225 0.0
H2503 H 0.34636 0.06109 0.99885 0.0
H2504 H 0.33461 0.03678 0.95414 0.0
H2505 H 0.33817 0.01911 0.96764 0.0
H2506 H 0.35879 0.07729 0.97336 0.0
H2507 H 0.30279 0.04394 0.95831 0.0
H2508 H 0.31181 0.03826 0.97196 0.0
H2509 H 0.31295 0.03689 0.94999 0.0
C2510 C 0.34686 0.04196 0.99962 0.0
C2511 C 0.34452 0.02997 0.99102 0.0
C2512 C 0.34453 0.05194 0.99197 0.0
C2513 C 0.3399 0.05013 0.97557 0.0
C2514 C 0.33775 0.03822 0.96694 0.0
H2515 H 0.35068 0.11541 0.90832 0.0
H2516 H 0.3529 0.09814 0.92482 0.0
C2517 C 0.33989 0.02816 0.97464 0.0
C2518 C 0.33796 0.06098 0.96723 0.0
H2519 H 0.31503 0.06571 0.94382 0.0
C2520 C 0.34916 0.07478 0.96705 0.0
C2521 C 0.32532 0.05779 0.95923 0.0
C2522 C 0.31249 0.04344 0.96003 0.0
C2523 C 0.34823 0.08539 0.95869 0.0
C2524 C 0.33592 0.082 0.9498 0.0
C2525 C 0.32456 0.06828 0.95041 0.0
C2526 C 0.33458 0.09248 0.93975 0.0
C2527 C 0.36041 0.10013 0.9597 0.0
C2528 C 0.32325 0.09468 0.94218 0.0
C2529 C 0.32182 0.10434 0.93252 0.0
C2530 C 0.33174 0.11204 0.92033 0.0
C2531 C 0.34301 0.10976 0.91782 0.0
C2532 C 0.34433 0.09996 0.92731 0.0
H2533 H 0.36672 0.10172 0.97097 0.0
H2534 H 0.36735 0.10218 0.94894 0.0
H2535 H 0.35684 0.10788 0.95968 0.0
H2536 H 0.31556 0.08898 0.95162 0.0
H2537 H 0.31307 0.10594 0.93476 0.0
H2538 H 0.95369 0.3132 0.00556 0.0
H2539 H 0.93643 0.29226 0.99087 0.0
H2540 H 0.96936 0.29287 0.96177 0.0
H2541 H 0.98661 0.31391 0.97619 0.0
H2542 H 0.94745 0.28994 0.94301 0.0
H2543 H 0.92813 0.25206 0.99466 0.0
H2544 H 0.9273 0.26761 0.99853 0.0
H2545 H 0.94401 0.26878 0.99596 0.0
C2546 C 0.95725 0.30878 0.99615 0.0
C2547 C 0.9715 0.31517 0.99204 0.0
C2548 C 0.94739 0.29678 0.98783 0.0
C2549 C 0.95163 0.29091 0.97537 0.0
C2550 C 0.96587 0.29721 0.97138 0.0
H2551 H 0.90159 0.21033 0.92793 0.0
H2552 H 0.91909 0.23038 0.94363 0.0
C2553 C 0.97571 0.30921 0.97965 0.0
C2554 C 0.9412 0.27863 0.9659 0.0
H2555 H 0.91533 0.24459 0.9696 0.0
C2556 C 0.94045 0.28001 0.94881 0.0
C2557 C 0.9322 0.26564 0.97347 0.0
C2558 C 0.933 0.26334 0.99164 0.0
C2559 C 0.93082 0.26881 0.93911 0.0
C2560 C 0.92151 0.25595 0.94676 0.0
C2561 C 0.92239 0.2545 0.9638 0.0
C2562 C 0.91087 0.24385 0.93723 0.0
C2563 C 0.93085 0.27077 0.92073 0.0
C2564 C 0.90038 0.24475 0.92855 0.0
C2565 C 0.89045 0.23337 0.91945 0.0
C2566 C 0.89076 0.22082 0.91894 0.0
C2567 C 0.90119 0.21991 0.92784 0.0
C2568 C 0.91113 0.23131 0.93692 0.0
H2569 H 0.94086 0.27978 0.91643 0.0
H2570 H 0.92909 0.26126 0.91407 0.0
H2571 H 0.9223 0.2728 0.91742 0.0
H2572 H 0.89986 0.25426 0.92885 0.0
H2573 H 0.88263 0.23446 0.91265 0.0
H2574 H 0.68955 0.67416 0.98009 0.0
H2575 H 0.71058 0.67766 0.96576 0.0
H2576 H 0.70603 0.64031 0.98818 0.0
H2577 H 0.68504 0.63677 0.00267 0.0
H2578 H 0.73651 0.67805 0.98147 0.0
H2579 H 0.70637 0.63634 0.93534 0.0
H2580 H 0.69878 0.64509 0.94641 0.0
H2581 H 0.70164 0.63241 0.95669 0.0
C2582 C 0.69309 0.66675 0.98207 0.0
C2583 C 0.68564 0.65516 0.99246 0.0
C2584 C 0.70509 0.66878 0.9739 0.0
C2585 C 0.70974 0.65919 0.97586 0.0
C2586 C 0.70252 0.64777 0.98647 0.0
H2587 H 0.77233 0.6475 0.92585 0.0
H2588 H 0.75293 0.64517 0.94268 0.0
C2589 C 0.69057 0.64579 0.99475 0.0
C2590 C 0.72193 0.6609 0.96643 0.0
H2591 H 0.7309 0.64766 0.93378 0.0
C2592 C 0.73534 0.67144 0.97103 0.0
C2593 C 0.72028 0.6522 0.9529 0.0
C2594 C 0.70601 0.64089 0.94739 0.0
C2595 C 0.74726 0.67339 0.96253 0.0
C2596 C 0.74562 0.6648 0.94882 0.0
C2597 C 0.73215 0.65425 0.94427 0.0
C2598 C 0.7577 0.66648 0.93901 0.0
C2599 C 0.76148 0.6844 0.96858 0.0
C2600 C 0.76677 0.6792 0.93123 0.0
C2601 C 0.77791 0.68058 0.92168 0.0
C2602 C 0.78004 0.66919 0.9195 0.0
C2603 C 0.77088 0.65643 0.92718 0.0
C2604 C 0.75982 0.6551 0.93684 0.0
H2605 H 0.76115 0.68709 0.98169 0.0
H2606 H 0.76925 0.6809 0.96728 0.0
H2607 H 0.76511 0.69405 0.96121 0.0
H2608 H 0.76511 0.68801 0.93234 0.0
H2609 H 0.78469 0.69048 0.91571 0.0
H2610 H 0.98562 0.67482 0.9796 0.0
H2611 H 0.96837 0.67886 0.96563 0.0
H2612 H 0.93507 0.64097 0.98677 0.0
H2613 H 0.95226 0.63709 0.00114 0.0
H2614 H 0.94966 0.66288 0.94278 0.0
H2615 H 0.92156 0.66791 0.99642 0.0
H2616 H 0.93805 0.6684 0.99841 0.0
H2617 H 0.92203 0.65194 0.99661 0.0
C2618 C 0.97461 0.66744 0.98143 0.0
C2619 C 0.97028 0.65567 0.99152 0.0
C2620 C 0.96477 0.66976 0.97343 0.0
C2621 C 0.95041 0.66034 0.97533 0.0
C2622 C 0.94607 0.64858 0.98544 0.0
H2623 H 0.87589 0.64768 0.92541 0.0
H2624 H 0.89347 0.64564 0.94163 0.0
C2625 C 0.95591 0.64632 0.99357 0.0
C2626 C 0.94005 0.66243 0.96601 0.0
H2627 H 0.91071 0.66508 0.97017 0.0
C2628 C 0.94123 0.66349 0.94879 0.0
C2629 C 0.92904 0.66323 0.97387 0.0
C2630 C 0.92765 0.66295 0.99235 0.0
C2631 C 0.93154 0.66504 0.93921 0.0
C2632 C 0.92042 0.66557 0.94705 0.0
C2633 C 0.91925 0.6646 0.96424 0.0
C2634 C 0.90981 0.66698 0.93752 0.0
C2635 C 0.93305 0.66583 0.92074 0.0
C2636 C 0.91321 0.67969 0.92999 0.0
C2637 C 0.9032 0.6809 0.92076 0.0
C2638 C 0.88965 0.66938 0.91883 0.0
C2639 C 0.88628 0.65668 0.92651 0.0
C2640 C 0.89626 0.65552 0.93585 0.0
H2641 H 0.94108 0.66333 0.91644 0.0
H2642 H 0.92291 0.65852 0.91481 0.0
H2643 H 0.93613 0.67655 0.91658 0.0
H2644 H 0.92361 0.68866 0.93124 0.0
H2645 H 0.90611 0.69078 0.9149 0.0
H2646 H 0.33421 0.31811 0.97114 0.0
H2647 H 0.33163 0.2976 0.95659 0.0
H2648 H 0.35918 0.29429 0.99151 0.0
H2649 H 0.36181 0.31483 0.00619 0.0
H2650 H 0.35432 0.29489 0.94266 0.0
H2651 H 0.32386 0.25445 0.98982 0.0
H2652 H 0.32508 0.27134 0.98972 0.0
H2653 H 0.33952 0.26965 0.99688 0.0
C2654 C 0.33964 0.31296 0.97581 0.0
C2655 C 0.34819 0.31805 0.98984 0.0
C2656 C 0.33818 0.30127 0.96746 0.0
C2657 C 0.34511 0.29438 0.97307 0.0
C2658 C 0.35359 0.29936 0.98713 0.0
H2659 H 0.34677 0.22113 0.93729 0.0
H2660 H 0.35033 0.24159 0.9528 0.0
C2661 C 0.35512 0.31111 0.99546 0.0
C2662 C 0.34382 0.28226 0.96382 0.0
H2663 H 0.33088 0.2471 0.96621 0.0
C2664 C 0.34919 0.28443 0.94778 0.0
C2665 C 0.3372 0.26868 0.97061 0.0
C2666 C 0.33098 0.26578 0.98766 0.0
C2667 C 0.3482 0.27335 0.93833 0.0
C2668 C 0.34135 0.2597 0.94499 0.0
C2669 C 0.3361 0.25757 0.96112 0.0
C2670 C 0.33938 0.24745 0.93537 0.0
C2671 C 0.35474 0.27643 0.92144 0.0
C2672 C 0.33193 0.24387 0.9205 0.0
C2673 C 0.33002 0.23229 0.9115 0.0
C2674 C 0.33539 0.22394 0.91728 0.0
C2675 C 0.3427 0.22746 0.93231 0.0
C2676 C 0.34465 0.23909 0.94127 0.0
H2677 H 0.36293 0.28759 0.92015 0.0
H2678 H 0.35947 0.26987 0.91873 0.0
H2679 H 0.34655 0.27415 0.91208 0.0
H2680 H 0.32751 0.25001 0.91588 0.0
H2681 H 0.32443 0.22995 0.89993 0.0
H2682 H 0.68976 0.04605 0.00788 0.0
H2683 H 0.71068 0.06342 0.99316 0.0
H2684 H 0.70579 0.03198 0.9582 0.0
H2685 H 0.68492 0.01458 0.97278 0.0
H2686 H 0.73612 0.06252 0.98482 0.0
H2687 H 0.70675 0.0641 0.93013 0.0
H2688 H 0.69845 0.05716 0.94973 0.0
H2689 H 0.70295 0.04699 0.93652 0.0
C2690 C 0.69319 0.04283 0.99711 0.0
C2691 C 0.68567 0.02898 0.99143 0.0
C2692 C 0.70513 0.05275 0.98873 0.0
C2693 C 0.70964 0.049 0.97449 0.0
C2694 C 0.70235 0.03511 0.96904 0.0
H2695 H 0.77424 0.09327 0.90165 0.0
H2696 H 0.75465 0.07592 0.91801 0.0
C2697 C 0.69047 0.02518 0.97743 0.0
C2698 C 0.72187 0.05961 0.96518 0.0
H2699 H 0.73142 0.07657 0.92828 0.0
C2700 C 0.73513 0.06566 0.97249 0.0
C2701 C 0.72048 0.06362 0.94909 0.0
C2702 C 0.70639 0.05774 0.94089 0.0
C2703 C 0.74714 0.07544 0.96396 0.0
C2704 C 0.74576 0.07947 0.94786 0.0
C2705 C 0.73246 0.07344 0.94061 0.0
C2706 C 0.75795 0.08994 0.93827 0.0
C2707 C 0.76122 0.08107 0.97212 0.0
C2708 C 0.76624 0.10361 0.94417 0.0
C2709 C 0.77754 0.11351 0.93493 0.0
C2710 C 0.78069 0.10998 0.9195 0.0
C2711 C 0.77226 0.09629 0.91358 0.0
C2712 C 0.761 0.08638 0.92287 0.0
H2713 H 0.76088 0.07415 0.98223 0.0
H2714 H 0.7693 0.0823 0.96309 0.0
H2715 H 0.76443 0.09147 0.97749 0.0
H2716 H 0.76391 0.10667 0.95587 0.0
H2717 H 0.78387 0.12391 0.93994 0.0
H2718 H 0.64399 0.95407 0.01745 0.0
H2719 H 0.64738 0.93659 0.03202 0.0
H2720 H 0.67206 0.96721 0.0688 0.0
H2721 H 0.6687 0.98471 0.05438 0.0
H2722 H 0.67356 0.93788 0.04136 0.0
H2723 H 0.64054 0.93391 0.09497 0.0
H2724 H 0.6397 0.94139 0.07555 0.0
H2725 H 0.65384 0.95133 0.08956 0.0
C2726 C 0.65017 0.95708 0.02861 0.0
C2727 C 0.65602 0.97073 0.03483 0.0
C2728 C 0.65211 0.9471 0.0369 0.0
C2729 C 0.6598 0.95059 0.05159 0.0
C2730 C 0.6659 0.96428 0.05761 0.0
H2731 H 0.68006 0.90628 0.12407 0.0
H2732 H 0.67753 0.9235 0.1079 0.0
C2733 C 0.66403 0.97427 0.04932 0.0
C2734 C 0.66141 0.93991 0.06071 0.0
H2735 H 0.65336 0.9221 0.09706 0.0
C2736 C 0.6691 0.93436 0.0535 0.0
C2737 C 0.65559 0.9354 0.07655 0.0
C2738 C 0.64685 0.9407 0.08461 0.0
C2739 C 0.6714 0.9246 0.0619 0.0
C2740 C 0.66559 0.92009 0.07777 0.0
C2741 C 0.65783 0.9256 0.08491 0.0
C2742 C 0.66746 0.9097 0.08726 0.0
C2743 C 0.68035 0.91952 0.0539 0.0
C2744 C 0.66254 0.89619 0.08107 0.0
C2745 C 0.6641 0.88636 0.09021 0.0
C2746 C 0.6705 0.88981 0.1058 0.0
C2747 C 0.6753 0.90334 0.11201 0.0
C2748 C 0.67377 0.91316 0.10284 0.0
H2749 H 0.68703 0.9267 0.04402 0.0
H2750 H 0.68716 0.91841 0.06308 0.0
H2751 H 0.67348 0.90914 0.04826 0.0
H2752 H 0.65738 0.8932 0.06922 0.0
H2753 H 0.66039 0.87609 0.08499 0.0
H2754 H 0.04718 0.68627 0.02021 0.0
H2755 H 0.06481 0.70685 0.03516 0.0
H2756 H 0.0324 0.7065 0.06505 0.0
H2757 H 0.01478 0.68584 0.05036 0.0
H2758 H 0.0679 0.73324 0.03933 0.0
H2759 H 0.05932 0.70604 0.09919 0.0
H2760 H 0.05253 0.69679 0.08006 0.0
H2761 H 0.04372 0.70455 0.09043 0.0
C2762 C 0.04382 0.69061 0.02994 0.0
C2763 C 0.02962 0.68439 0.0342 0.0
C2764 C 0.05389 0.70236 0.03846 0.0
C2765 C 0.04993 0.70804 0.05141 0.0
C2766 C 0.03571 0.70209 0.05535 0.0
H2767 H 0.09939 0.78925 0.09755 0.0
H2768 H 0.08232 0.7691 0.08167 0.0
C2769 C 0.02565 0.69034 0.04687 0.0
C2770 C 0.06065 0.72015 0.06084 0.0
H2771 H 0.07377 0.73074 0.09953 0.0
C2772 C 0.06923 0.7327 0.05248 0.0
C2773 C 0.0625 0.71934 0.07795 0.0
C2774 C 0.05413 0.70593 0.08744 0.0
C2775 C 0.07943 0.74457 0.06084 0.0
C2776 C 0.08091 0.7439 0.07806 0.0
C2777 C 0.07251 0.73127 0.08635 0.0
C2778 C 0.09121 0.75613 0.08771 0.0
C2779 C 0.08867 0.75763 0.05113 0.0
C2780 C 0.10162 0.75539 0.09677 0.0
C2781 C 0.11127 0.76682 0.10606 0.0
C2782 C 0.11066 0.77921 0.10652 0.0
C2783 C 0.1001 0.77985 0.09756 0.0
C2784 C 0.09045 0.7684 0.0883 0.0
H2785 H 0.0888 0.75533 0.03784 0.0
H2786 H 0.08463 0.76496 0.0523 0.0
H2787 H 0.09956 0.76293 0.05584 0.0
H2788 H 0.10232 0.74597 0.0966 0.0
H2789 H 0.11911 0.76588 0.11302 0.0
H2790 H 0.30783 0.32482 0.03524 0.0
H2791 H 0.28643 0.32072 0.04903 0.0
H2792 H 0.30062 0.36479 0.04667 0.0
H2793 H 0.32176 0.36885 0.03226 0.0
H2794 H 0.2834 0.32953 0.07766 0.0
H2795 H 0.26153 0.3493 0.03059 0.0
H2796 H 0.27589 0.34642 0.02628 0.0
H2797 H 0.27896 0.36225 0.03628 0.0
C2798 C 0.30628 0.3336 0.03747 0.0
C2799 C 0.3164 0.34714 0.0326 0.0
C2800 C 0.29407 0.33125 0.04537 0.0
C2801 C 0.29178 0.34241 0.04868 0.0
C2802 C 0.30192 0.35595 0.04384 0.0
H2803 H 0.23681 0.34155 0.12531 0.0
H2804 H 0.2565 0.3445 0.10878 0.0
C2805 C 0.31405 0.35828 0.03571 0.0
C2806 C 0.27917 0.33994 0.05799 0.0
H2807 H 0.25176 0.34595 0.05762 0.0
C2808 C 0.27642 0.33302 0.0732 0.0
C2809 C 0.26992 0.34429 0.05209 0.0
C2810 C 0.27163 0.35084 0.03533 0.0
C2811 C 0.26485 0.33056 0.08279 0.0
C2812 C 0.25604 0.3356 0.0773 0.0
C2813 C 0.25861 0.34226 0.06194 0.0
C2814 C 0.24408 0.33405 0.08727 0.0
C2815 C 0.26208 0.32236 0.09854 0.0
C2816 C 0.23059 0.32768 0.0805 0.0
C2817 C 0.21933 0.32634 0.08978 0.0
C2818 C 0.2213 0.33128 0.10608 0.0
C2819 C 0.23487 0.33773 0.11277 0.0
C2820 C 0.24614 0.33923 0.10341 0.0
H2821 H 0.2668 0.31556 0.09823 0.0
H2822 H 0.26685 0.32972 0.10899 0.0
H2823 H 0.2507 0.31573 0.1009 0.0
H2824 H 0.22875 0.32372 0.06801 0.0
H2825 H 0.20911 0.32158 0.08407 0.0
H2826 H 0.71297 0.69143 0.35106 0.0
H2827 H 0.7304 0.68733 0.36458 0.0
H2828 H 0.69903 0.65905 0.39862 0.0
H2829 H 0.68154 0.66297 0.38509 0.0
H2830 H 0.73866 0.69273 0.39739 0.0
H2831 H 0.71719 0.6367 0.38265 0.0
H2832 H 0.71182 0.64753 0.37194 0.0
H2833 H 0.70472 0.64052 0.39187 0.0
C2834 C 0.70976 0.68423 0.36132 0.0
C2835 C 0.69589 0.67749 0.367 0.0
C2836 C 0.71973 0.68191 0.36903 0.0
C2837 C 0.71596 0.67275 0.38246 0.0
C2838 C 0.70209 0.66594 0.38807 0.0
H2839 H 0.76844 0.66973 0.45907 0.0
H2840 H 0.7515 0.67241 0.44246 0.0
C2841 C 0.69213 0.66826 0.38038 0.0
C2842 C 0.72669 0.6709 0.39118 0.0
H2843 H 0.73505 0.64641 0.40313 0.0
C2844 C 0.73793 0.68263 0.39855 0.0
C2845 C 0.72578 0.65773 0.39253 0.0
C2846 C 0.7143 0.64491 0.3842 0.0
C2847 C 0.7481 0.68147 0.40761 0.0
C2848 C 0.74688 0.6682 0.40953 0.0
C2849 C 0.73586 0.65654 0.40178 0.0
C2850 C 0.75691 0.66624 0.41962 0.0
C2851 C 0.76012 0.69447 0.41498 0.0
C2852 C 0.7653 0.66152 0.41235 0.0
C2853 C 0.77503 0.66 0.42181 0.0
C2854 C 0.77647 0.66311 0.43874 0.0
C2855 C 0.7678 0.66752 0.44602 0.0
C2856 C 0.7581 0.66904 0.43656 0.0
H2857 H 0.76149 0.70409 0.40897 0.0
H2858 H 0.75804 0.695 0.42824 0.0
H2859 H 0.77005 0.6943 0.4139 0.0
H2860 H 0.7645 0.65926 0.3993 0.0
H2861 H 0.78163 0.65671 0.41578 0.0
H2862 H 0.30541 0.01946 0.35536 0.0
H2863 H 0.30948 0.0404 0.37025 0.0
H2864 H 0.34336 0.0407 0.3969 0.0
H2865 H 0.33925 0.01967 0.38222 0.0
H2866 H 0.32473 0.04346 0.41707 0.0
H2867 H 0.34122 0.08079 0.36496 0.0
H2868 H 0.32484 0.06502 0.36174 0.0
H2869 H 0.34063 0.06422 0.36353 0.0
C2870 C 0.31381 0.02407 0.36428 0.0
C2871 C 0.32203 0.01794 0.3676 0.0
C2872 C 0.31617 0.03607 0.37272 0.0
C2873 C 0.32684 0.04221 0.38453 0.0
C2874 C 0.33512 0.03616 0.38778 0.0
H2875 H 0.35729 0.12304 0.43161 0.0
H2876 H 0.35503 0.10307 0.41604 0.0
C2877 C 0.33276 0.02416 0.37936 0.0
C2878 C 0.32895 0.05453 0.39409 0.0
H2879 H 0.33648 0.08833 0.39035 0.0
C2880 C 0.32736 0.05329 0.41124 0.0
C2881 C 0.33253 0.06739 0.38647 0.0
C2882 C 0.33504 0.06953 0.36818 0.0
C2883 C 0.329 0.06449 0.42097 0.0
C2884 C 0.3321 0.07719 0.4133 0.0
C2885 C 0.33397 0.07853 0.39618 0.0
C2886 C 0.33345 0.08922 0.42285 0.0
C2887 C 0.32756 0.06268 0.43941 0.0
C2888 C 0.32203 0.08807 0.4317 0.0
C2889 C 0.32331 0.09942 0.44069 0.0
C2890 C 0.33603 0.11217 0.44092 0.0
C2891 C 0.34742 0.11331 0.4319 0.0
C2892 C 0.34612 0.10195 0.4229 0.0
H2893 H 0.32884 0.05383 0.4436 0.0
H2894 H 0.3354 0.07232 0.44582 0.0
H2895 H 0.31699 0.06048 0.44313 0.0
H2896 H 0.31209 0.0784 0.43161 0.0
H2897 H 0.31437 0.09816 0.44759 0.0
H2898 H 0.97795 0.28901 0.34876 0.0
H2899 H 0.95656 0.27139 0.36247 0.0
H2900 H 0.96336 0.30064 0.40138 0.0
H2901 H 0.98455 0.31832 0.38766 0.0
H2902 H 0.95413 0.26021 0.39347 0.0
H2903 H 0.92275 0.28648 0.3893 0.0
H2904 H 0.93836 0.2919 0.37725 0.0
H2905 H 0.93964 0.29722 0.3984 0.0
C2906 C 0.97479 0.29171 0.36015 0.0
C2907 C 0.98288 0.30506 0.3671 0.0
C2908 C 0.9626 0.28164 0.36797 0.0
C2909 C 0.95825 0.28477 0.38281 0.0
C2910 C 0.96633 0.29809 0.38975 0.0
H2911 H 0.8949 0.23961 0.45623 0.0
H2912 H 0.91469 0.25677 0.43991 0.0
C2913 C 0.97849 0.30816 0.38194 0.0
C2914 C 0.94566 0.27393 0.39147 0.0
H2915 H 0.91429 0.26702 0.40757 0.0
C2916 C 0.94535 0.26163 0.39641 0.0
C2917 C 0.93424 0.27583 0.39532 0.0
C2918 C 0.93366 0.28851 0.38966 0.0
C2919 C 0.9341 0.25133 0.40551 0.0
C2920 C 0.92279 0.25334 0.40957 0.0
C2921 C 0.92302 0.26556 0.40448 0.0
C2922 C 0.91069 0.24293 0.41927 0.0
C2923 C 0.93457 0.23858 0.4111 0.0
C2924 C 0.90179 0.22954 0.41295 0.0
C2925 C 0.89042 0.21973 0.42219 0.0
C2926 C 0.88771 0.22316 0.43791 0.0
C2927 C 0.89659 0.23667 0.44411 0.0
C2928 C 0.90794 0.24647 0.43484 0.0
H2929 H 0.94526 0.24007 0.41015 0.0
H2930 H 0.93094 0.23593 0.42403 0.0
H2931 H 0.9275 0.22956 0.40325 0.0
H2932 H 0.90359 0.2267 0.40081 0.0
H2933 H 0.88365 0.20952 0.41691 0.0
H2934 H 0.03208 0.38248 0.33515 0.0
H2935 H 0.02907 0.40021 0.32066 0.0
H2936 H 0.99096 0.36788 0.2988 0.0
H2937 H 0.99391 0.35008 0.31319 0.0
H2938 H 0.02649 0.40115 0.28466 0.0
H2939 H 0.98099 0.39685 0.31908 0.0
H2940 H 0.99229 0.39096 0.32746 0.0
H2941 H 0.97951 0.38071 0.31217 0.0
C2942 C 0.02298 0.37915 0.32739 0.0
C2943 C 0.01321 0.3649 0.32531 0.0
C2944 C 0.0213 0.38928 0.31911 0.0
C2945 C 0.00974 0.38533 0.30879 0.0
C2946 C 0.99986 0.37113 0.30688 0.0
H2947 H 0.9959 0.43151 0.23213 0.0
H2948 H 0.99812 0.4141 0.24847 0.0
C2949 C 0.00158 0.36098 0.31506 0.0
C2950 C 0.00837 0.39603 0.29941 0.0
H2951 H 0.9882 0.4112 0.29532 0.0
C2952 C 0.01815 0.40339 0.28699 0.0
C2953 C 0.99751 0.39893 0.30259 0.0
C2954 C 0.987 0.39155 0.31612 0.0
C2955 C 0.01721 0.41346 0.27746 0.0
C2956 C 0.00621 0.41617 0.28044 0.0
C2957 C 0.99656 0.40899 0.29303 0.0
C2958 C 0.00466 0.42657 0.27065 0.0
C2959 C 0.02803 0.42121 0.26433 0.0
C2960 C 0.00745 0.43923 0.27783 0.0
C2961 C 0.00623 0.44919 0.26854 0.0
C2962 C 0.00204 0.44657 0.25197 0.0
C2963 C 0.99906 0.43377 0.24489 0.0
C2964 C 0.0004 0.42387 0.25416 0.0
H2965 H 0.03711 0.41956 0.26538 0.0
H2966 H 0.02321 0.41751 0.25203 0.0
H2967 H 0.03183 0.43258 0.26506 0.0
H2968 H 0.0107 0.44145 0.29058 0.0
H2969 H 0.00843 0.45889 0.27437 0.0
H2970 H 0.62119 0.64385 0.34281 0.0
H2971 H 0.60375 0.62262 0.32871 0.0
H2972 H 0.63378 0.62937 0.29077 0.0
H2973 H 0.6513 0.6504 0.30491 0.0
H2974 H 0.59326 0.62055 0.29747 0.0
H2975 H 0.61891 0.58865 0.30249 0.0
H2976 H 0.6243 0.60419 0.31463 0.0
H2977 H 0.62997 0.60554 0.29362 0.0
C2978 C 0.62411 0.64071 0.33156 0.0
C2979 C 0.63762 0.64874 0.325 0.0
C2980 C 0.61414 0.6286 0.32351 0.0
C2981 C 0.61753 0.6243 0.30882 0.0
C2982 C 0.63103 0.6323 0.30228 0.0
H2983 H 0.57268 0.56141 0.23469 0.0
H2984 H 0.58984 0.58111 0.25113 0.0
C2985 C 0.64101 0.64437 0.31033 0.0
C2986 C 0.60676 0.61185 0.29988 0.0
H2987 H 0.59974 0.58047 0.28381 0.0
C2988 C 0.59461 0.61172 0.29461 0.0
C2989 C 0.60857 0.60036 0.29614 0.0
C2990 C 0.62108 0.59959 0.30215 0.0
C2991 C 0.58437 0.60057 0.28535 0.0
C2992 C 0.58627 0.5892 0.28142 0.0
C2993 C 0.59836 0.58925 0.2868 0.0
C2994 C 0.57587 0.57717 0.27163 0.0
C2995 C 0.57176 0.60121 0.27945 0.0
C2996 C 0.56241 0.56835 0.27784 0.0
C2997 C 0.55261 0.55702 0.26854 0.0
C2998 C 0.55611 0.55429 0.25286 0.0
C2999 C 0.56968 0.56311 0.24677 0.0
C3000 C 0.57948 0.57441 0.25611 0.0
H3001 H 0.57334 0.61193 0.28039 0.0
H3002 H 0.56928 0.59766 0.26647 0.0
H3003 H 0.56259 0.59418 0.28711 0.0
H3004 H 0.55952 0.57016 0.28993 0.0
H3005 H 0.54235 0.5503 0.27374 0.0
H3006 H 0.35212 0.003 0.30766 0.0
H3007 H 0.37252 0.00535 0.29303 0.0
H3008 H 0.3712 0.97232 0.32252 0.0
H3009 H 0.35085 0.97002 0.33738 0.0
H3010 H 0.39819 0.9954 0.31873 0.0
H3011 H 0.37103 0.97748 0.25868 0.0
H3012 H 0.36997 0.99176 0.26759 0.0
H3013 H 0.36177 0.9751 0.27778 0.0
C3014 C 0.3562 0.99626 0.31107 0.0
C3015 C 0.34985 0.98627 0.3236 0.0
C3016 C 0.3678 0.99757 0.30264 0.0
C3017 C 0.37321 0.98884 0.3065 0.0
C3018 C 0.36712 0.9791 0.31929 0.0
H3019 H 0.43023 0.97596 0.24529 0.0
H3020 H 0.41043 0.97315 0.26169 0.0
C3021 C 0.35551 0.97779 0.32775 0.0
C3022 C 0.38519 0.98988 0.29714 0.0
H3023 H 0.39566 0.98706 0.25851 0.0
C3024 C 0.39764 0.99353 0.30557 0.0
C3025 C 0.38437 0.98723 0.28003 0.0
C3026 C 0.37103 0.98254 0.27048 0.0
C3027 C 0.40941 0.99491 0.29727 0.0
C3028 C 0.40874 0.99277 0.28005 0.0
C3029 C 0.39619 0.98883 0.27169 0.0
C3030 C 0.4209 0.99449 0.27045 0.0
C3031 C 0.42238 0.99845 0.30703 0.0
C3032 C 0.4333 0.00745 0.26982 0.0
C3033 C 0.44468 0.00906 0.26055 0.0
C3034 C 0.44383 0.99776 0.25165 0.0
C3035 C 0.43132 0.98482 0.2522 0.0
C3036 C 0.41996 0.98322 0.26148 0.0
H3037 H 0.42002 0.99608 0.32032 0.0
H3038 H 0.42743 0.99262 0.30237 0.0
H3039 H 0.42997 0.00978 0.30583 0.0
H3040 H 0.43416 0.01635 0.2764 0.0
H3041 H 0.45418 0.01914 0.2605 0.0
H3042 H 0.62062 0.97493 0.33983 0.0
H3043 H 0.60303 0.97795 0.32492 0.0
H3044 H 0.634 0.00346 0.28887 0.0
H3045 H 0.65162 0.00049 0.30365 0.0
H3046 H 0.60382 0.00388 0.31582 0.0
H3047 H 0.60141 0.97184 0.26189 0.0
H3048 H 0.60872 0.97097 0.28142 0.0
H3049 H 0.61863 0.98536 0.26773 0.0
C3050 C 0.62368 0.98122 0.32876 0.0
C3051 C 0.63747 0.98743 0.32286 0.0
C3052 C 0.61364 0.98294 0.32028 0.0
C3053 C 0.61719 0.99077 0.3057 0.0
C3054 C 0.63101 0.99721 0.29997 0.0
H3055 H 0.57168 0.00952 0.23298 0.0
H3056 H 0.5893 0.00758 0.2491 0.0
C3057 C 0.64107 0.99555 0.30847 0.0
C3058 C 0.60645 0.99217 0.29641 0.0
H3059 H 0.58888 0.98392 0.25987 0.0
C3060 C 0.60049 0.99948 0.30361 0.0
C3061 C 0.60219 0.98644 0.28049 0.0
C3062 C 0.60796 0.97811 0.27242 0.0
C3063 C 0.59055 0.00147 0.29515 0.0
C3064 C 0.58625 0.9957 0.27922 0.0
C3065 C 0.5922 0.98835 0.27206 0.0
C3066 C 0.5756 0.99716 0.26972 0.0
C3067 C 0.58501 0.01002 0.30317 0.0
C3068 C 0.56201 0.99184 0.2759 0.0
C3069 C 0.55196 0.99307 0.2668 0.0
C3070 C 0.55525 0.99952 0.25124 0.0
C3071 C 0.56885 0.0047 0.24502 0.0
C3072 C 0.57891 0.00351 0.25417 0.0
H3073 H 0.59208 0.01683 0.31306 0.0
H3074 H 0.58362 0.01667 0.29401 0.0
H3075 H 0.57469 0.0029 0.3088 0.0
H3076 H 0.55914 0.98663 0.28772 0.0
H3077 H 0.54163 0.98906 0.27202 0.0
H3078 H 0.03031 0.64959 0.33925 0.0
H3079 H 0.02827 0.6294 0.32432 0.0
H3080 H 0.99669 0.6292 0.29299 0.0
H3081 H 0.99882 0.64947 0.30765 0.0
H3082 H 0.00543 0.60282 0.3194 0.0
H3083 H 0.02527 0.63059 0.26006 0.0
H3084 H 0.02703 0.63964 0.27918 0.0
H3085 H 0.01073 0.63166 0.26815 0.0
C3086 C 0.02292 0.64521 0.3292 0.0
C3087 C 0.0148 0.65116 0.32454 0.0
C3088 C 0.02176 0.63369 0.32069 0.0
C3089 C 0.01251 0.62797 0.30736 0.0
C3090 C 0.00412 0.63365 0.303 0.0
H3091 H 0.98232 0.5474 0.26069 0.0
H3092 H 0.98509 0.56735 0.27667 0.0
C3093 C 0.00529 0.64518 0.31146 0.0
C3094 C 0.01162 0.61605 0.298 0.0
H3095 H 0.01518 0.6059 0.25949 0.0
C3096 C 0.00762 0.60349 0.30632 0.0
C3097 C 0.01469 0.61704 0.28099 0.0
C3098 C 0.0198 0.63049 0.27158 0.0
C3099 C 0.00629 0.59177 0.29799 0.0
C3100 C 0.0088 0.59259 0.28084 0.0
C3101 C 0.01311 0.60525 0.27261 0.0
C3102 C 0.0071 0.58047 0.27118 0.0
C3103 C 0.00239 0.57868 0.30766 0.0
C3104 C 0.01845 0.58135 0.26241 0.0
C3105 C 0.01685 0.57004 0.25307 0.0
C3106 C 0.00384 0.55763 0.25225 0.0
C3107 C 0.99245 0.55683 0.26094 0.0
C3108 C 0.99406 0.56816 0.27026 0.0
H3109 H 0.0046 0.58092 0.32099 0.0
H3110 H 0.99103 0.57126 0.30623 0.0
H3111 H 0.00815 0.57352 0.30311 0.0
H3112 H 0.02857 0.59081 0.26283 0.0
H3113 H 0.02577 0.57109 0.24632 0.0
H3114 H 0.35224 0.38041 0.33757 0.0
H3115 H 0.37288 0.39783 0.32255 0.0
H3116 H 0.37409 0.36497 0.29541 0.0
H3117 H 0.35337 0.34751 0.3102 0.0
H3118 H 0.39975 0.40145 0.31983 0.0
H3119 H 0.3732 0.39028 0.25917 0.0
H3120 H 0.36374 0.38405 0.27827 0.0
H3121 H 0.372 0.37524 0.26913 0.0
C3122 C 0.35694 0.3769 0.32844 0.0
C3123 C 0.35114 0.36261 0.32497 0.0
C3124 C 0.36872 0.38686 0.31988 0.0
C3125 C 0.37485 0.38269 0.30768 0.0
C3126 C 0.36933 0.36841 0.30454 0.0
H3127 H 0.45632 0.43304 0.26208 0.0
H3128 H 0.43624 0.41579 0.27793 0.0
C3129 C 0.35755 0.35846 0.31307 0.0
C3130 C 0.38697 0.3933 0.29816 0.0
H3131 H 0.39777 0.40555 0.25922 0.0
C3132 C 0.39933 0.40238 0.30659 0.0
C3133 C 0.3863 0.3946 0.28091 0.0
C3134 C 0.37307 0.38562 0.27132 0.0
C3135 C 0.41115 0.4126 0.29817 0.0
C3136 C 0.41062 0.41359 0.28086 0.0
C3137 C 0.39818 0.40466 0.27248 0.0
C3138 C 0.42279 0.42397 0.27121 0.0
C3139 C 0.424 0.42239 0.30792 0.0
C3140 C 0.42176 0.43405 0.26182 0.0
C3141 C 0.43315 0.44381 0.25259 0.0
C3142 C 0.44578 0.44363 0.2525 0.0
C3143 C 0.44672 0.4334 0.26178 0.0
C3144 C 0.43531 0.42364 0.27101 0.0
H3145 H 0.42154 0.42264 0.32112 0.0
H3146 H 0.43173 0.41881 0.3071 0.0
H3147 H 0.42893 0.43317 0.30293 0.0
H3148 H 0.41214 0.4344 0.26169 0.0
H3149 H 0.43201 0.4514 0.24537 0.0
H3150 H 0.3383 0.31815 0.38333 0.0
H3151 H 0.34163 0.30057 0.39755 0.0
H3152 H 0.30785 0.26804 0.36954 0.0
H3153 H 0.30461 0.28561 0.35505 0.0
H3154 H 0.32255 0.27907 0.4169 0.0
H3155 H 0.33879 0.25846 0.36429 0.0
H3156 H 0.33855 0.27463 0.3632 0.0
H3157 H 0.32259 0.2582 0.36113 0.0
C3158 C 0.33167 0.30727 0.38008 0.0
C3159 C 0.32122 0.30325 0.36804 0.0
C3160 C 0.33358 0.29724 0.38823 0.0
C3161 C 0.3251 0.28302 0.38447 0.0
C3162 C 0.3147 0.27898 0.37239 0.0
H3163 H 0.31239 0.21378 0.44675 0.0
H3164 H 0.30972 0.231 0.43073 0.0
C3165 C 0.31281 0.28902 0.36418 0.0
C3166 C 0.32677 0.27243 0.39376 0.0
H3167 H 0.33391 0.24594 0.38947 0.0
C3168 C 0.32507 0.27185 0.41091 0.0
C3169 C 0.33019 0.26311 0.38593 0.0
C3170 C 0.33277 0.26367 0.36764 0.0
C3171 C 0.32655 0.2621 0.42044 0.0
C3172 C 0.32958 0.25253 0.41257 0.0
C3173 C 0.33145 0.25321 0.39544 0.0
C3174 C 0.33107 0.24189 0.42195 0.0
C3175 C 0.32508 0.26228 0.43889 0.0
C3176 C 0.34386 0.24209 0.42198 0.0
C3177 C 0.34539 0.2322 0.431 0.0
C3178 C 0.33411 0.22184 0.44007 0.0
C3179 C 0.32125 0.22155 0.43981 0.0
C3180 C 0.31974 0.23147 0.4308 0.0
H3181 H 0.32622 0.27231 0.44326 0.0
H3182 H 0.31456 0.25376 0.44255 0.0
H3183 H 0.333 0.26056 0.4452 0.0
H3184 H 0.3527 0.25 0.41513 0.0
H3185 H 0.35537 0.23257 0.43074 0.0
H3186 H 0.71406 0.01907 0.35418 0.0
H3187 H 0.73141 0.03977 0.36916 0.0
H3188 H 0.69845 0.04008 0.39718 0.0
H3189 H 0.68107 0.01929 0.38243 0.0
H3190 H 0.73453 0.06637 0.37236 0.0
H3191 H 0.72449 0.0396 0.43276 0.0
H3192 H 0.71815 0.03021 0.41363 0.0
H3193 H 0.70919 0.03817 0.42316 0.0
C3194 C 0.71051 0.02358 0.36349 0.0
C3195 C 0.69622 0.01751 0.36722 0.0
C3196 C 0.72043 0.0354 0.37203 0.0
C3197 C 0.71622 0.0413 0.38447 0.0
C3198 C 0.70193 0.03551 0.38786 0.0
H3199 H 0.76624 0.12271 0.43031 0.0
H3200 H 0.74896 0.1026 0.41454 0.0
C3201 C 0.69201 0.02369 0.37936 0.0
C3202 C 0.7268 0.05346 0.39397 0.0
H3203 H 0.73944 0.06419 0.4328 0.0
C3204 C 0.73564 0.06591 0.38557 0.0
C3205 C 0.72834 0.05275 0.41117 0.0
C3206 C 0.71964 0.03944 0.42072 0.0
C3207 C 0.74584 0.07775 0.39395 0.0
C3208 C 0.74708 0.07717 0.41123 0.0
C3209 C 0.73838 0.06465 0.41958 0.0
C3210 C 0.75747 0.08935 0.42086 0.0
C3211 C 0.75537 0.0907 0.38421 0.0
C3212 C 0.76774 0.08845 0.43002 0.0
C3213 C 0.77752 0.09986 0.43922 0.0
C3214 C 0.77717 0.11239 0.4395 0.0
C3215 C 0.76674 0.11319 0.43046 0.0
C3216 C 0.75696 0.10176 0.42127 0.0
H3217 H 0.75553 0.08832 0.37096 0.0
H3218 H 0.7516 0.09825 0.38525 0.0
H3219 H 0.76623 0.09578 0.38903 0.0
H3220 H 0.76823 0.07892 0.42998 0.0
H3221 H 0.78526 0.09881 0.44624 0.0
H3222 H 0.98354 0.69778 0.35986 0.0
H3223 H 0.96249 0.69361 0.37462 0.0
H3224 H 0.95655 0.65422 0.39218 0.0
H3225 H 0.9778 0.65851 0.37782 0.0
H3226 H 0.93535 0.67294 0.37234 0.0
H3227 H 0.95582 0.67282 0.43464 0.0
H3228 H 0.96685 0.67853 0.41664 0.0
H3229 H 0.95602 0.6602 0.42097 0.0
C3230 C 0.97773 0.68822 0.36684 0.0
C3231 C 0.98237 0.67852 0.36781 0.0
C3232 C 0.96571 0.68585 0.37527 0.0
C3233 C 0.95811 0.67374 0.38478 0.0
C3234 C 0.96246 0.66381 0.38528 0.0
H3235 H 0.88225 0.64268 0.44345 0.0
H3236 H 0.90196 0.64489 0.4272 0.0
C3237 C 0.97454 0.66623 0.37698 0.0
C3238 C 0.94565 0.67155 0.39416 0.0
H3239 H 0.93192 0.66643 0.43291 0.0
C3240 C 0.93462 0.67155 0.38558 0.0
C3241 C 0.94473 0.66978 0.41146 0.0
C3242 C 0.95654 0.67046 0.42151 0.0
C3243 C 0.92265 0.66969 0.39383 0.0
C3244 C 0.92173 0.66787 0.41107 0.0
C3245 C 0.93267 0.66776 0.41965 0.0
C3246 C 0.90965 0.66644 0.42051 0.0
C3247 C 0.91099 0.66959 0.38406 0.0
C3248 C 0.90756 0.67787 0.42219 0.0
C3249 C 0.89638 0.67667 0.4315 0.0
C3250 C 0.88707 0.66398 0.43924 0.0
C3251 C 0.88917 0.65253 0.43748 0.0
C3252 C 0.90044 0.65379 0.42828 0.0
H3253 H 0.91208 0.6684 0.37066 0.0
H3254 H 0.90068 0.66098 0.38824 0.0
H3255 H 0.91115 0.67958 0.38607 0.0
H3256 H 0.91466 0.68776 0.41642 0.0
H3257 H 0.89496 0.68563 0.43253 0.0
H3258 H 0.38144 0.02891 0.68692 0.0
H3259 H 0.39943 0.02623 0.70135 0.0
H3260 H 0.36818 0.99663 0.73452 0.0
H3261 H 0.35016 0.99924 0.7202 0.0
H3262 H 0.39283 0.01903 0.74988 0.0
H3263 H 0.40519 0.99166 0.70105 0.0
H3264 H 0.40523 0.00727 0.69481 0.0
H3265 H 0.38917 0.99227 0.70119 0.0
C3266 C 0.37839 0.02175 0.6972 0.0
C3267 C 0.36439 0.01427 0.70242 0.0
C3268 C 0.38866 0.02019 0.70538 0.0
C3269 C 0.38509 0.01114 0.71889 0.0
C3270 C 0.37112 0.00362 0.72407 0.0
H3271 H 0.43315 0.98181 0.77244 0.0
H3272 H 0.4156 0.98402 0.75646 0.0
C3273 C 0.36085 0.00511 0.71586 0.0
C3274 C 0.39596 0.00989 0.72807 0.0
H3275 H 0.41945 0.99855 0.72488 0.0
C3276 C 0.39867 0.01456 0.74443 0.0
C3277 C 0.40344 0.00395 0.72094 0.0
C3278 C 0.40059 0.99839 0.70357 0.0
C3279 C 0.40878 0.01357 0.75382 0.0
C3280 C 0.41642 0.00784 0.7466 0.0
C3281 C 0.41362 0.00302 0.7303 0.0
C3282 C 0.42724 0.00658 0.75591 0.0
C3283 C 0.4111 0.01847 0.77147 0.0
C3284 C 0.43965 0.01856 0.76068 0.0
C3285 C 0.44976 0.01735 0.76967 0.0
C3286 C 0.44764 0.00412 0.77407 0.0
C3287 C 0.43521 0.99214 0.7691 0.0
C3288 C 0.42514 0.99337 0.76004 0.0
H3289 H 0.40253 0.02003 0.77612 0.0
H3290 H 0.41196 0.01084 0.77954 0.0
H3291 H 0.42105 0.02857 0.77238 0.0
H3292 H 0.44153 0.02884 0.75738 0.0
H3293 H 0.45931 0.02678 0.77301 0.0
H3294 H 0.97018 0.35121 0.68774 0.0
H3295 H 0.97297 0.37176 0.70251 0.0
H3296 H 0.00662 0.37323 0.73092 0.0
H3297 H 0.00378 0.35261 0.7164 0.0
H3298 H 0.98685 0.37492 0.75004 0.0
H3299 H 0.00386 0.41264 0.69825 0.0
H3300 H 0.98788 0.39656 0.69456 0.0
H3301 H 0.00396 0.3964 0.69703 0.0
C3302 C 0.97826 0.356 0.69703 0.0
C3303 C 0.98678 0.35032 0.7009 0.0
C3304 C 0.97988 0.36777 0.70539 0.0
C3305 C 0.99011 0.37411 0.71767 0.0
C3306 C 0.9987 0.36852 0.72145 0.0
H3307 H 0.01887 0.45412 0.76535 0.0
H3308 H 0.01669 0.4343 0.74954 0.0
C3309 C 0.99708 0.35676 0.71312 0.0
C3310 C 0.99148 0.38617 0.72715 0.0
H3311 H 0.99852 0.41982 0.72346 0.0
C3312 C 0.98943 0.38475 0.74424 0.0
C3313 C 0.99499 0.39902 0.71956 0.0
C3314 C 0.99793 0.40135 0.70137 0.0
C3315 C 0.99065 0.39579 0.75395 0.0
C3316 C 0.99378 0.40851 0.74631 0.0
C3317 C 0.996 0.41 0.72925 0.0
C3318 C 0.995 0.42047 0.75588 0.0
C3319 C 0.98882 0.39382 0.77234 0.0
C3320 C 0.98348 0.41929 0.76455 0.0
C3321 C 0.98472 0.43055 0.7737 0.0
C3322 C 0.99749 0.44324 0.77427 0.0
C3323 C 0.00895 0.44442 0.76539 0.0
C3324 C 0.0077 0.43316 0.75624 0.0
H3325 H 0.98999 0.38493 0.77661 0.0
H3326 H 0.99652 0.4034 0.77896 0.0
H3327 H 0.97818 0.3916 0.77574 0.0
H3328 H 0.97352 0.40966 0.76422 0.0
H3329 H 0.97571 0.42925 0.78048 0.0
H3330 H 0.64536 0.62133 0.68395 0.0
H3331 H 0.62417 0.60391 0.69812 0.0
H3332 H 0.6287 0.63507 0.73335 0.0
H3333 H 0.64966 0.65257 0.71906 0.0
H3334 H 0.62172 0.5948 0.72971 0.0
H3335 H 0.58807 0.61812 0.72047 0.0
H3336 H 0.60404 0.6238 0.70908 0.0
H3337 H 0.60459 0.63001 0.72969 0.0
C3338 C 0.64174 0.62449 0.69461 0.0
C3339 C 0.64912 0.63832 0.70035 0.0
C3340 C 0.62965 0.61453 0.70269 0.0
C3341 C 0.62473 0.61824 0.71663 0.0
C3342 C 0.6321 0.63205 0.72238 0.0
H3343 H 0.56153 0.5736 0.79068 0.0
H3344 H 0.5812 0.59083 0.77424 0.0
C3345 C 0.64413 0.64202 0.71425 0.0
C3346 C 0.61231 0.60751 0.72568 0.0
H3347 H 0.58025 0.59979 0.7403 0.0
C3348 C 0.6126 0.59583 0.7319 0.0
C3349 C 0.60042 0.60888 0.72853 0.0
C3350 C 0.59917 0.62081 0.72146 0.0
C3351 C 0.60146 0.58564 0.74121 0.0
C3352 C 0.5897 0.58713 0.74427 0.0
C3353 C 0.58934 0.59874 0.73797 0.0
C3354 C 0.57766 0.57674 0.75401 0.0
C3355 C 0.60247 0.5735 0.74805 0.0
C3356 C 0.56909 0.56319 0.74795 0.0
C3357 C 0.55777 0.55336 0.75721 0.0
C3358 C 0.55482 0.55689 0.77275 0.0
C3359 C 0.5634 0.57056 0.7787 0.0
C3360 C 0.57468 0.5804 0.76938 0.0
H3361 H 0.61329 0.57531 0.74737 0.0
H3362 H 0.59895 0.57152 0.76107 0.0
H3363 H 0.59554 0.56396 0.74087 0.0
H3364 H 0.57111 0.56025 0.73598 0.0
H3365 H 0.55123 0.54303 0.7521 0.0
H3366 H 0.66265 0.68222 0.64104 0.0
H3367 H 0.65939 0.69962 0.62629 0.0
H3368 H 0.69216 0.73239 0.65513 0.0
H3369 H 0.69537 0.71499 0.67013 0.0
H3370 H 0.66854 0.73526 0.65155 0.0
H3371 H 0.6863 0.72617 0.59135 0.0
H3372 H 0.67239 0.71067 0.60056 0.0
H3373 H 0.68918 0.71971 0.61047 0.0
C3374 C 0.66914 0.69313 0.64428 0.0
C3375 C 0.67933 0.69726 0.65668 0.0
C3376 C 0.66731 0.70306 0.63578 0.0
C3377 C 0.67571 0.71731 0.63941 0.0
C3378 C 0.68564 0.72145 0.65207 0.0
H3379 H 0.68602 0.78586 0.57765 0.0
H3380 H 0.68941 0.76922 0.59396 0.0
C3381 C 0.68746 0.71151 0.66062 0.0
C3382 C 0.67413 0.72788 0.62997 0.0
H3383 H 0.67605 0.74057 0.59119 0.0
C3384 C 0.67022 0.73647 0.63837 0.0
C3385 C 0.67652 0.72955 0.6128 0.0
C3386 C 0.68146 0.72114 0.60326 0.0
C3387 C 0.66837 0.74653 0.62999 0.0
C3388 C 0.67028 0.74785 0.61273 0.0
C3389 C 0.67445 0.73944 0.60439 0.0
C3390 C 0.66817 0.75801 0.60309 0.0
C3391 C 0.66461 0.75579 0.63973 0.0
C3392 C 0.65506 0.75712 0.60266 0.0
C3393 C 0.65312 0.76668 0.59345 0.0
C3394 C 0.66424 0.77726 0.58439 0.0
C3395 C 0.67731 0.77799 0.58469 0.0
C3396 C 0.67924 0.76844 0.59392 0.0
H3397 H 0.66717 0.75602 0.65298 0.0
H3398 H 0.67016 0.76664 0.63491 0.0
H3399 H 0.6532 0.75171 0.63869 0.0
H3400 H 0.64631 0.74899 0.60939 0.0
H3401 H 0.64295 0.76588 0.59359 0.0
H3402 H 0.31822 0.98356 0.64043 0.0
H3403 H 0.30053 0.96275 0.62605 0.0
H3404 H 0.26944 0.95863 0.66119 0.0
H3405 H 0.28703 0.97968 0.67541 0.0
H3406 H 0.2843 0.93591 0.6365 0.0
H3407 H 0.25093 0.95788 0.61789 0.0
H3408 H 0.26831 0.96857 0.62607 0.0
H3409 H 0.25387 0.95839 0.63966 0.0
C3410 C 0.30761 0.97823 0.6451 0.0
C3411 C 0.30398 0.9833 0.65898 0.0
C3412 C 0.29752 0.96633 0.63687 0.0
C3413 C 0.28362 0.95928 0.64236 0.0
C3414 C 0.28003 0.96411 0.65649 0.0
H3415 H 0.20941 0.88466 0.60728 0.0
H3416 H 0.22648 0.90466 0.62338 0.0
C3417 C 0.29011 0.97607 0.66468 0.0
C3418 C 0.27294 0.94686 0.63329 0.0
H3419 H 0.24208 0.93385 0.61239 0.0
C3420 C 0.27508 0.93547 0.6312 0.0
C3421 C 0.26093 0.94632 0.62635 0.0
C3422 C 0.2584 0.95848 0.62745 0.0
C3423 C 0.26549 0.92352 0.62247 0.0
C3424 C 0.25351 0.923 0.61557 0.0
C3425 C 0.25128 0.9343 0.61776 0.0
C3426 C 0.24325 0.91089 0.60581 0.0
C3427 C 0.26813 0.91147 0.62083 0.0
C3428 C 0.24702 0.90791 0.59051 0.0
C3429 C 0.23726 0.89659 0.58117 0.0
C3430 C 0.22353 0.88804 0.58697 0.0
C3431 C 0.21982 0.89112 0.60232 0.0
C3432 C 0.22957 0.90249 0.6116 0.0
H3433 H 0.27615 0.91227 0.62969 0.0
H3434 H 0.25834 0.90137 0.62281 0.0
H3435 H 0.27191 0.91139 0.6082 0.0
H3436 H 0.25748 0.91444 0.58571 0.0
H3437 H 0.24042 0.89469 0.56929 0.0
H3438 H 0.01868 0.33777 0.64116 0.0
H3439 H 0.03965 0.34149 0.62662 0.0
H3440 H 0.04116 0.31035 0.65703 0.0
H3441 H 0.02006 0.30643 0.6715 0.0
H3442 H 0.06647 0.3496 0.63826 0.0
H3443 H 0.04131 0.29677 0.61011 0.0
H3444 H 0.0314 0.30376 0.61969 0.0
H3445 H 0.03994 0.29682 0.63213 0.0
C3446 C 0.0235 0.33174 0.64478 0.0
C3447 C 0.01768 0.32174 0.6574 0.0
C3448 C 0.03548 0.33389 0.63647 0.0
C3449 C 0.04183 0.32605 0.64058 0.0
C3450 C 0.03626 0.31632 0.65346 0.0
H3451 H 0.12396 0.34229 0.60877 0.0
H3452 H 0.10407 0.33984 0.6247 0.0
C3453 C 0.02426 0.31415 0.66177 0.0
C3454 C 0.05419 0.32799 0.63123 0.0
H3455 H 0.06572 0.31107 0.60622 0.0
C3456 C 0.06633 0.34119 0.63125 0.0
C3457 C 0.05388 0.31704 0.62193 0.0
C3458 C 0.04091 0.30283 0.62079 0.0
C3459 C 0.07825 0.3437 0.62233 0.0
C3460 C 0.07806 0.33266 0.61335 0.0
C3461 C 0.06587 0.31949 0.61322 0.0
C3462 C 0.09028 0.33457 0.60371 0.0
C3463 C 0.09084 0.35822 0.6223 0.0
C3464 C 0.08905 0.33221 0.58667 0.0
C3465 C 0.10038 0.33357 0.57755 0.0
C3466 C 0.11315 0.33726 0.58531 0.0
C3467 C 0.11435 0.33965 0.60239 0.0
C3468 C 0.10299 0.33826 0.61151 0.0
H3469 H 0.08811 0.36617 0.62627 0.0
H3470 H 0.09877 0.35861 0.63098 0.0
H3471 H 0.09564 0.36107 0.60988 0.0
H3472 H 0.07932 0.32933 0.58042 0.0
H3473 H 0.09916 0.33181 0.56439 0.0
H3474 H 0.28784 0.31056 0.67513 0.0
H3475 H 0.27026 0.31394 0.66073 0.0
H3476 H 0.30079 0.33877 0.62393 0.0
H3477 H 0.31838 0.33542 0.63818 0.0
H3478 H 0.27096 0.33969 0.65142 0.0
H3479 H 0.26766 0.3069 0.59789 0.0
H3480 H 0.27532 0.30633 0.61729 0.0
H3481 H 0.285 0.32047 0.60322 0.0
C3482 C 0.29082 0.3168 0.66402 0.0
C3483 C 0.30446 0.32266 0.65772 0.0
C3484 C 0.28078 0.31873 0.65583 0.0
C3485 C 0.28421 0.32645 0.64117 0.0
C3486 C 0.2979 0.33261 0.63511 0.0
H3487 H 0.23792 0.35783 0.58705 0.0
H3488 H 0.25509 0.35533 0.60347 0.0
C3489 C 0.30795 0.33073 0.6433 0.0
C3490 C 0.27339 0.32784 0.63203 0.0
H3491 H 0.25536 0.31924 0.59578 0.0
C3492 C 0.26751 0.33521 0.63927 0.0
C3493 C 0.26884 0.32183 0.61627 0.0
C3494 C 0.27442 0.31333 0.60821 0.0
C3495 C 0.25733 0.33695 0.63101 0.0
C3496 C 0.25304 0.33125 0.61507 0.0
C3497 C 0.25876 0.32368 0.60796 0.0
C3498 C 0.24249 0.33286 0.60558 0.0
C3499 C 0.2511 0.3447 0.63946 0.0
C3500 C 0.22982 0.32104 0.60114 0.0
C3501 C 0.21998 0.32243 0.5918 0.0
C3502 C 0.22267 0.33568 0.5866 0.0
C3503 C 0.23542 0.34751 0.59106 0.0
C3504 C 0.24524 0.3461 0.60044 0.0
H3505 H 0.25307 0.34557 0.65293 0.0
H3506 H 0.25587 0.35542 0.63434 0.0
H3507 H 0.23964 0.33943 0.63733 0.0
H3508 H 0.22752 0.31073 0.60497 0.0
H3509 H 0.21021 0.31313 0.58878 0.0
H3510 H 0.69852 0.98369 0.66611 0.0
H3511 H 0.69443 0.96266 0.65133 0.0
H3512 H 0.6557 0.9574 0.63225 0.0
H3513 H 0.65972 0.97845 0.64691 0.0
H3514 H 0.65529 0.93209 0.64623 0.0
H3515 H 0.69654 0.96111 0.59928 0.0
H3516 H 0.70148 0.96559 0.62048 0.0
H3517 H 0.68891 0.96929 0.61138 0.0
C3518 C 0.6891 0.97801 0.65884 0.0
C3519 C 0.67947 0.98274 0.65761 0.0
C3520 C 0.68681 0.96605 0.65037 0.0
C3521 C 0.67484 0.9586 0.64061 0.0
C3522 C 0.66502 0.96306 0.63969 0.0
H3523 H 0.65611 0.89556 0.56603 0.0
H3524 H 0.65903 0.91565 0.58199 0.0
C3525 C 0.66735 0.97508 0.64806 0.0
C3526 C 0.67265 0.94625 0.63113 0.0
H3527 H 0.6851 0.93647 0.59836 0.0
C3528 C 0.66179 0.93301 0.63577 0.0
C3529 C 0.68109 0.94757 0.61742 0.0
C3530 C 0.69262 0.96164 0.61169 0.0
C3531 C 0.65927 0.92097 0.62714 0.0
C3532 C 0.66787 0.92227 0.6136 0.0
C3533 C 0.6786 0.93554 0.60882 0.0
C3534 C 0.66584 0.90997 0.60414 0.0
C3535 C 0.64736 0.90696 0.63242 0.0
C3536 C 0.6688 0.90022 0.61132 0.0
C3537 C 0.66718 0.88878 0.60224 0.0
C3538 C 0.66253 0.88687 0.58583 0.0
C3539 C 0.65955 0.89667 0.5787 0.0
C3540 C 0.66128 0.90816 0.58776 0.0
H3541 H 0.64015 0.90801 0.64105 0.0
H3542 H 0.64132 0.90081 0.62156 0.0
H3543 H 0.65164 0.90101 0.63871 0.0
H3544 H 0.67246 0.90154 0.62391 0.0
H3545 H 0.66946 0.88136 0.6081 0.0
H3546 H 0.01958 0.71375 0.67093 0.0
H3547 H 0.04032 0.73126 0.65614 0.0
H3548 H 0.04116 0.6986 0.62811 0.0
H3549 H 0.02034 0.68107 0.64265 0.0
H3550 H 0.06709 0.7347 0.65308 0.0
H3551 H 0.04045 0.72449 0.59255 0.0
H3552 H 0.03101 0.71804 0.61164 0.0
H3553 H 0.03917 0.70927 0.60212 0.0
C3554 C 0.02422 0.7103 0.66166 0.0
C3555 C 0.01828 0.69605 0.65786 0.0
C3556 C 0.03606 0.72031 0.65323 0.0
C3557 C 0.04212 0.71623 0.64084 0.0
C3558 C 0.03647 0.70198 0.63739 0.0
H3559 H 0.12358 0.76663 0.59528 0.0
H3560 H 0.10349 0.74935 0.61108 0.0
C3561 C 0.02462 0.69198 0.64578 0.0
C3562 C 0.05426 0.7269 0.6314 0.0
H3563 H 0.06505 0.73959 0.59262 0.0
C3564 C 0.06666 0.73581 0.63987 0.0
C3565 C 0.05358 0.72843 0.6142 0.0
C3566 C 0.04031 0.71965 0.60458 0.0
C3567 C 0.0785 0.74608 0.63153 0.0
C3568 C 0.07795 0.7473 0.61426 0.0
C3569 C 0.06548 0.73853 0.60584 0.0
C3570 C 0.09014 0.75772 0.60467 0.0
C3571 C 0.0914 0.75568 0.64133 0.0
C3572 C 0.08917 0.76792 0.59546 0.0
C3573 C 0.10057 0.7777 0.58625 0.0
C3574 C 0.11314 0.77742 0.58599 0.0
C3575 C 0.11402 0.76708 0.59511 0.0
C3576 C 0.10261 0.7573 0.60431 0.0
H3577 H 0.08896 0.75581 0.65457 0.0
H3578 H 0.09904 0.752 0.64035 0.0
H3579 H 0.09642 0.76652 0.63651 0.0
H3580 H 0.07959 0.76835 0.59546 0.0
H3581 H 0.09947 0.78538 0.57917 0.0
H3582 H 0.97463 0.61979 0.68391 0.0
H3583 H 0.97712 0.60185 0.69871 0.0
H3584 H 0.0034 0.63245 0.73468 0.0
H3585 H 0.00098 0.65042 0.72001 0.0
H3586 H 0.00299 0.602 0.70796 0.0
H3587 H 0.97084 0.60026 0.76148 0.0
H3588 H 0.97021 0.60758 0.74185 0.0
H3589 H 0.98459 0.61735 0.75561 0.0
C3590 C 0.98099 0.6227 0.69493 0.0
C3591 C 0.98756 0.63649 0.70085 0.0
C3592 C 0.9824 0.61246 0.70335 0.0
C3593 C 0.99028 0.61582 0.71788 0.0
C3594 C 0.99711 0.62963 0.72361 0.0
H3595 H 0.00796 0.5703 0.79128 0.0
H3596 H 0.00615 0.58779 0.77482 0.0
C3597 C 0.99576 0.63988 0.71517 0.0
C3598 C 0.9913 0.60489 0.72719 0.0
H3599 H 0.98258 0.58741 0.76377 0.0
C3600 C 0.99848 0.59873 0.72013 0.0
C3601 C 0.98542 0.60072 0.74305 0.0
C3602 C 0.97722 0.60671 0.75095 0.0
C3603 C 0.00024 0.58871 0.72872 0.0
C3604 C 0.99436 0.58454 0.74462 0.0
C3605 C 0.98709 0.59064 0.7516 0.0
C3606 C 0.99571 0.57393 0.75432 0.0
C3607 C 0.00869 0.58298 0.72088 0.0
C3608 C 0.99033 0.5603 0.74833 0.0
C3609 C 0.99149 0.55031 0.75763 0.0
C3610 C 0.99793 0.55373 0.7732 0.0
C3611 C 0.00316 0.56737 0.77924 0.0
C3612 C 0.00204 0.57736 0.7699 0.0
H3613 H 0.01556 0.58991 0.71093 0.0
H3614 H 0.01528 0.58159 0.73014 0.0
H3615 H 0.00149 0.57264 0.71535 0.0
H3616 H 0.98514 0.55734 0.7365 0.0
H3617 H 0.98746 0.53995 0.75255 0.0
H3618 H 0.34884 0.35015 0.7204 0.0
H3619 H 0.36636 0.37108 0.73481 0.0
H3620 H 0.39711 0.37686 0.69829 0.0
H3621 H 0.37962 0.35592 0.68375 0.0
H3622 H 0.39258 0.37521 0.74743 0.0
H3623 H 0.39961 0.4156 0.70171 0.0
H3624 H 0.38447 0.39826 0.70177 0.0
H3625 H 0.40084 0.40108 0.69382 0.0
C3626 C 0.3593 0.35594 0.71535 0.0
C3627 C 0.36286 0.35142 0.70093 0.0
C3628 C 0.36929 0.36787 0.72361 0.0
C3629 C 0.38297 0.37557 0.71752 0.0
C3630 C 0.38654 0.37117 0.70304 0.0
H3631 H 0.45781 0.44958 0.75197 0.0
H3632 H 0.44052 0.42926 0.73653 0.0
C3633 C 0.37656 0.35919 0.6948 0.0
C3634 C 0.39363 0.38784 0.72675 0.0
H3635 H 0.41484 0.42321 0.72463 0.0
C3636 C 0.39743 0.38572 0.74249 0.0
C3637 C 0.39997 0.40149 0.72019 0.0
C3638 C 0.39599 0.40434 0.7035 0.0
C3639 C 0.40755 0.3969 0.75182 0.0
C3640 C 0.41379 0.4106 0.74537 0.0
C3641 C 0.41003 0.4127 0.72957 0.0
C3642 C 0.42423 0.4229 0.75482 0.0
C3643 C 0.4117 0.39387 0.76834 0.0
C3644 C 0.42075 0.42618 0.77015 0.0
C3645 C 0.43066 0.43769 0.7791 0.0
C3646 C 0.44421 0.44626 0.77283 0.0
C3647 C 0.44756 0.44308 0.75731 0.0
C3648 C 0.43766 0.43152 0.7484 0.0
H3649 H 0.40902 0.38279 0.76936 0.0
H3650 H 0.42308 0.40066 0.77055 0.0
H3651 H 0.40598 0.3959 0.77817 0.0
H3652 H 0.41036 0.41983 0.77519 0.0
H3653 H 0.42774 0.43976 0.79104 0.0
H3654 H 0.64892 0.02878 0.68528 0.0
H3655 H 0.62826 0.0262 0.69966 0.0
H3656 H 0.62962 0.99655 0.73291 0.0
H3657 H 0.65016 0.99896 0.71854 0.0
H3658 H 0.6026 0.98834 0.72082 0.0
H3659 H 0.62927 0.0424 0.74573 0.0
H3660 H 0.63046 0.04112 0.72381 0.0
H3661 H 0.63873 0.0345 0.73718 0.0
C3662 C 0.64478 0.02167 0.69562 0.0
C3663 C 0.65119 0.01412 0.70084 0.0
C3664 C 0.63303 0.02027 0.70387 0.0
C3665 C 0.62755 0.01133 0.71749 0.0
C3666 C 0.63373 0.00354 0.72246 0.0
H3667 H 0.57187 0.00875 0.79385 0.0
H3668 H 0.5914 0.01079 0.77753 0.0
C3669 C 0.64547 0.00495 0.71425 0.0
C3670 C 0.61543 0.01015 0.72669 0.0
H3671 H 0.60498 0.02858 0.75066 0.0
C3672 C 0.60309 0.99713 0.72732 0.0
C3673 C 0.61619 0.02161 0.73532 0.0
C3674 C 0.6294 0.03568 0.73565 0.0
C3675 C 0.59142 0.99528 0.73629 0.0
C3676 C 0.5921 0.0068 0.74467 0.0
C3677 C 0.60447 0.0198 0.74411 0.0
C3678 C 0.58019 0.00552 0.75442 0.0
C3679 C 0.57859 0.98094 0.73704 0.0
C3680 C 0.56746 0.00203 0.7468 0.0
C3681 C 0.5563 0.00092 0.75607 0.0
C3682 C 0.55768 0.00336 0.77314 0.0
C3683 C 0.5705 0.00695 0.78071 0.0
C3684 C 0.58165 0.00806 0.77142 0.0
H3685 H 0.5809 0.97266 0.73324 0.0
H3686 H 0.57414 0.97859 0.74965 0.0
H3687 H 0.57053 0.98056 0.72858 0.0
H3688 H 0.56622 0.0003 0.73364 0.0
H3689 H 0.54666 0.99837 0.74982 0.0
loop_
_geom_bond_atom_site_label_1
_geom_bond_atom_site_label_2
_geom_bond_distance
_geom_bond_site_symmetry_2
_ccdc_geom_bond_type
In0 O1 2.262 1_455 S
In0 O2 2.331 . S
In0 O6 2.230 1_455 S
In0 O7 2.334 1_454 S
In0 O8 2.278 1_554 S
In0 O9 2.284 1_454 S
In0 O11 2.352 . S
In0 O12 2.358 . S
O1 In0 2.262 1_655 S
O1 C10 1.218 1_655 S
O2 In0 2.331 . S
O2 C10 1.294 . S
C3 O6 1.252 1_556 S
C3 O7 1.260 . S
C4 O11 1.240 . S
C4 O12 1.252 . S
C5 O8 1.284 . S
C5 O9 1.237 1_455 S
O6 In0 2.230 1_655 S
O6 C3 1.252 1_554 S
O7 In0 2.334 1_656 S
O7 C3 1.260 . S
O8 In0 2.278 1_556 S
O8 C5 1.284 . S
O9 In0 2.284 1_656 S
O9 C5 1.237 1_655 S
C10 O1 1.218 1_455 S
C10 O2 1.294 . S
O11 In0 2.352 . S
O11 C4 1.240 . S
O12 In0 2.358 . S
O12 C4 1.252 . S
In13 O14 2.294 . S
In13 O15 2.326 . S
In13 O19 2.266 . S
In13 O20 2.326 1_554 S
In13 O21 2.266 1_554 S
In13 O22 2.326 1_554 S
In13 O24 2.294 . S
In13 O25 2.326 . S
O14 In13 2.294 . S
O14 C23 1.240 . S
O15 In13 2.326 . S
O15 C23 1.252 . S
C16 O19 1.252 1_556 S
C16 O20 1.260 . S
C17 O24 1.240 . S
C17 O25 1.252 . S
C18 O21 1.252 . S
C18 O22 1.260 . S
O19 In13 2.266 . S
O19 C16 1.252 1_554 S
O20 In13 2.326 1_556 S
O20 C16 1.260 . S
O21 In13 2.266 1_556 S
O21 C18 1.252 . S
O22 In13 2.326 1_556 S
O22 C18 1.260 . S
C23 O14 1.240 . S
C23 O15 1.252 . S
O24 In13 2.294 . S
O24 C17 1.240 . S
O25 In13 2.326 . S
O25 C17 1.252 . S
In26 O27 2.372 . S
In26 O28 2.370 1_554 S
In26 O32 2.282 . S
In26 O33 2.269 1_545 S
In26 O34 2.218 1_545 S
In26 O35 2.338 1_545 S
In26 O37 2.250 1_544 S
In26 O38 2.333 1_554 S
O27 In26 2.372 . S
O27 C36 1.240 1_554 S
O28 In26 2.370 1_556 S
O28 C36 1.252 . S
C29 O32 1.307 . S
C29 O33 1.222 1_545 S
C30 O37 1.210 1_545 S
C30 O38 1.311 . S
C31 O34 1.252 . S
C31 O35 1.260 . S
O32 In26 2.282 . S
O32 C29 1.307 . S
O33 In26 2.269 1_565 S
O33 C29 1.222 1_565 S
O34 In26 2.218 1_565 S
O34 C31 1.252 . S
O35 In26 2.338 1_565 S
O35 C31 1.260 . S
C36 O27 1.240 1_556 S
C36 O28 1.252 . S
O37 In26 2.250 1_566 S
O37 C30 1.210 1_565 S
O38 In26 2.333 1_556 S
O38 C30 1.311 . S
In39 O40 2.293 1_554 S
In39 O41 2.326 1_454 S
In39 O45 2.265 . S
In39 O46 2.326 . S
In39 O47 2.267 1_455 S
In39 O48 2.324 . S
In39 O50 2.296 1_455 S
In39 O51 2.328 1_454 S
O40 In39 2.293 1_556 S
O40 C49 1.239 . S
O41 In39 2.326 1_656 S
O41 C49 1.253 1_655 S
C42 O45 1.252 . S
C42 O46 1.260 . S
C43 O50 1.240 1_556 S
C43 O51 1.252 . S
C44 O47 1.232 1_455 S
C44 O48 1.275 . S
O45 In39 2.265 . S
O45 C42 1.252 . S
O46 In39 2.326 . S
O46 C42 1.260 . S
O47 In39 2.267 1_655 S
O47 C44 1.232 1_655 S
O48 In39 2.324 . S
O48 C44 1.275 . S
C49 O40 1.239 . S
C49 O41 1.253 1_455 S
O50 In39 2.296 1_655 S
O50 C43 1.240 1_554 S
O51 In39 2.328 1_656 S
O51 C43 1.252 . S
In52 O53 2.294 1_554 S
In52 O54 2.326 1_554 S
In52 O58 2.266 . S
In52 O59 2.326 . S
In52 O60 2.266 . S
In52 O61 2.326 . S
In52 O63 2.294 . S
In52 O64 2.326 1_554 S
O53 In52 2.294 1_556 S
O53 C62 1.240 . S
O54 In52 2.326 1_556 S
O54 C62 1.252 . S
C55 O58 1.252 . S
C55 O59 1.260 . S
C56 O63 1.240 1_556 S
C56 O64 1.252 . S
C57 O60 1.252 . S
C57 O61 1.260 . S
O58 In52 2.266 . S
O58 C55 1.252 . S
O59 In52 2.326 . S
O59 C55 1.260 . S
O60 In52 2.266 . S
O60 C57 1.252 . S
O61 In52 2.326 . S
O61 C57 1.260 . S
C62 O53 1.240 . S
C62 O54 1.252 . S
O63 In52 2.294 . S
O63 C56 1.240 1_554 S
O64 In52 2.326 1_556 S
O64 C56 1.252 . S
In65 O66 2.293 . S
In65 O67 2.326 1_545 S
In65 O71 2.265 . S
In65 O72 2.326 1_554 S
In65 O73 2.267 1_544 S
In65 O74 2.324 1_554 S
In65 O76 2.296 1_545 S
In65 O77 2.328 1_545 S
O66 In65 2.293 . S
O66 C75 1.239 . S
O67 In65 2.326 1_565 S
O67 C75 1.255 1_565 S
C68 O71 1.252 1_556 S
C68 O72 1.260 . S
C69 O76 1.240 . S
C69 O77 1.252 . S
C70 O73 1.234 1_545 S
C70 O74 1.273 . S
O71 In65 2.265 . S
O71 C68 1.252 1_554 S
O72 In65 2.326 1_556 S
O72 C68 1.260 . S
O73 In65 2.267 1_566 S
O73 C70 1.234 1_565 S
O74 In65 2.324 1_556 S
O74 C70 1.273 . S
C75 O66 1.239 . S
C75 O67 1.255 1_545 S
O76 In65 2.296 1_565 S
O76 C69 1.240 . S
O77 In65 2.328 1_565 S
O77 C69 1.252 . S
In78 O79 2.294 . S
In78 O80 2.326 . S
In78 O84 2.266 . S
In78 O85 2.326 . S
In78 O86 2.266 . S
In78 O87 2.326 . S
In78 O89 2.294 . S
In78 O90 2.326 . S
O79 In78 2.294 . S
O79 C88 1.240 . S
O80 In78 2.326 . S
O80 C88 1.252 . S
C81 O84 1.252 . S
C81 O85 1.260 . S
C82 O89 1.240 . S
C82 O90 1.252 . S
C83 O86 1.252 . S
C83 O87 1.260 . S
O84 In78 2.266 . S
O84 C81 1.252 . S
O85 In78 2.326 . S
O85 C81 1.260 . S
O86 In78 2.266 . S
O86 C83 1.252 . S
O87 In78 2.326 . S
O87 C83 1.260 . S
C88 O79 1.240 . S
C88 O80 1.252 . S
O89 In78 2.294 . S
O89 C82 1.240 . S
O90 In78 2.326 . S
O90 C82 1.252 . S
In91 O92 2.294 . S
In91 O93 2.326 . S
In91 O97 2.266 . S
In91 O98 2.326 . S
In91 O99 2.266 . S
In91 O100 2.326 . S
In91 O102 2.248 1_565 S
In91 O103 2.326 . S
O92 In91 2.294 . S
O92 C101 1.240 . S
O93 In91 2.326 . S
O93 C101 1.252 . S
C94 O97 1.252 . S
C94 O98 1.260 . S
C95 O102 1.241 . S
C95 O103 1.252 1_545 S
C96 O99 1.252 . S
C96 O100 1.260 . S
O97 In91 2.266 . S
O97 C94 1.252 . S
O98 In91 2.326 . S
O98 C94 1.260 . S
O99 In91 2.266 . S
O99 C96 1.252 . S
O100 In91 2.326 . S
O100 C96 1.260 . S
C101 O92 1.240 . S
C101 O93 1.252 . S
O102 In91 2.248 1_545 S
O102 C95 1.241 . S
O103 In91 2.326 . S
O103 C95 1.252 1_565 S
In104 O105 2.294 . S
In104 O106 2.326 . S
In104 O110 2.266 . S
In104 O111 2.326 . S
In104 O112 2.289 . S
In104 O113 2.326 . S
In104 O115 2.294 . S
In104 O116 2.326 . S
O105 In104 2.294 . S
O105 C114 1.240 . S
O106 In104 2.326 . S
O106 C114 1.252 . S
C107 O110 1.252 . S
C107 O111 1.260 . S
C108 O115 1.240 . S
C108 O116 1.252 . S
C109 O112 1.219 1_655 S
C109 O113 1.260 1_655 S
O110 In104 2.266 . S
O110 C107 1.252 . S
O111 In104 2.326 . S
O111 C107 1.260 . S
O112 In104 2.289 . S
O112 C109 1.219 1_455 S
O113 In104 2.326 . S
O113 C109 1.260 1_455 S
C114 O105 1.240 . S
C114 O106 1.252 . S
O115 In104 2.294 . S
O115 C108 1.240 . S
O116 In104 2.326 . S
O116 C108 1.252 . S
In117 O118 2.294 . S
In117 O119 2.326 . S
In117 O123 2.273 . S
In117 O124 2.326 . S
In117 O125 2.266 . S
In117 O126 2.326 . S
In117 O128 2.294 . S
In117 O129 2.326 . S
O118 In117 2.294 . S
O118 C127 1.240 . S
O119 In117 2.326 . S
O119 C127 1.252 . S
C120 O123 1.241 1_545 S
C120 O124 1.260 1_545 S
C121 O128 1.240 . S
C121 O129 1.252 . S
C122 O125 1.252 . S
C122 O126 1.260 . S
O123 In117 2.273 . S
O123 C120 1.241 1_565 S
O124 In117 2.326 . S
O124 C120 1.260 1_565 S
O125 In117 2.266 . S
O125 C122 1.252 . S
O126 In117 2.326 . S
O126 C122 1.260 . S
C127 O118 1.240 . S
C127 O119 1.252 . S
O128 In117 2.294 . S
O128 C121 1.240 . S
O129 In117 2.326 . S
O129 C121 1.252 . S
In130 O131 2.294 . S
In130 O132 2.326 . S
In130 O136 2.312 . S
In130 O137 2.326 . S
In130 O138 2.266 . S
In130 O139 2.326 . S
In130 O141 2.294 . S
In130 O142 2.326 . S
O131 In130 2.294 . S
O131 C140 1.240 . S
O132 In130 2.326 . S
O132 C140 1.252 . S
C133 O136 1.252 1_655 S
C133 O137 1.260 1_655 S
C134 O141 1.240 . S
C134 O142 1.252 . S
C135 O138 1.252 . S
C135 O139 1.260 . S
O136 In130 2.312 . S
O136 C133 1.252 1_455 S
O137 In130 2.326 . S
O137 C133 1.260 1_455 S
O138 In130 2.266 . S
O138 C135 1.252 . S
O139 In130 2.326 . S
O139 C135 1.260 . S
C140 O131 1.240 . S
C140 O132 1.252 . S
O141 In130 2.294 . S
O141 C134 1.240 . S
O142 In130 2.326 . S
O142 C134 1.252 . S
In143 O144 2.294 . S
In143 O145 2.326 . S
In143 O149 2.266 . S
In143 O150 2.326 . S
In143 O151 2.266 . S
In143 O152 2.326 . S
In143 O154 2.294 . S
In143 O155 2.326 . S
O144 In143 2.294 . S
O144 C153 1.240 . S
O145 In143 2.326 . S
O145 C153 1.252 . S
C146 O149 1.252 . S
C146 O150 1.260 . S
C147 O154 1.240 . S
C147 O155 1.252 . S
C148 O151 1.252 . S
C148 O152 1.260 . S
O149 In143 2.266 . S
O149 C146 1.252 . S
O150 In143 2.326 . S
O150 C146 1.260 . S
O151 In143 2.266 . S
O151 C148 1.252 . S
O152 In143 2.326 . S
O152 C148 1.260 . S
C153 O144 1.240 . S
C153 O145 1.252 . S
O154 In143 2.294 . S
O154 C147 1.240 . S
O155 In143 2.326 . S
O155 C147 1.252 . S
In156 O157 2.294 . S
In156 O158 2.326 . S
In156 O162 2.266 . S
In156 O163 2.326 . S
In156 O164 2.289 . S
In156 O165 2.326 . S
In156 O167 2.294 . S
In156 O168 2.326 . S
O157 In156 2.294 . S
O157 C166 1.240 . S
O158 In156 2.326 . S
O158 C166 1.252 . S
C159 O162 1.252 . S
C159 O163 1.260 . S
C160 O167 1.240 . S
C160 O168 1.252 . S
C161 O164 1.219 1_565 S
C161 O165 1.260 1_565 S
O162 In156 2.266 . S
O162 C159 1.252 . S
O163 In156 2.326 . S
O163 C159 1.260 . S
O164 In156 2.289 . S
O164 C161 1.219 1_545 S
O165 In156 2.326 . S
O165 C161 1.260 1_545 S
C166 O157 1.240 . S
C166 O158 1.252 . S
O167 In156 2.294 . S
O167 C160 1.240 . S
O168 In156 2.326 . S
O168 C160 1.252 . S
In169 O170 2.294 . S
In169 O171 2.326 . S
In169 O175 2.266 . S
In169 O176 2.326 . S
In169 O177 2.261 . S
In169 O178 2.326 . S
In169 O180 2.294 . S
In169 O181 2.326 . S
O170 In169 2.294 . S
O170 C179 1.240 . S
O171 In169 2.326 . S
O171 C179 1.252 . S
C172 O175 1.252 . S
C172 O176 1.260 . S
C173 O180 1.240 . S
C173 O181 1.252 . S
C174 O177 1.252 1_455 S
C174 O178 1.260 1_455 S
O175 In169 2.266 . S
O175 C172 1.252 . S
O176 In169 2.326 . S
O176 C172 1.260 . S
O177 In169 2.261 . S
O177 C174 1.252 1_655 S
O178 In169 2.326 . S
O178 C174 1.260 1_655 S
C179 O170 1.240 . S
C179 O171 1.252 . S
O180 In169 2.294 . S
O180 C173 1.240 . S
O181 In169 2.326 . S
O181 C173 1.252 . S
In182 O183 2.294 . S
In182 O184 2.326 . S
In182 O188 2.266 . S
In182 O189 2.326 . S
In182 O190 2.266 . S
In182 O191 2.326 . S
In182 O193 2.294 . S
In182 O194 2.326 . S
O183 In182 2.294 . S
O183 C192 1.240 . S
O184 In182 2.326 . S
O184 C192 1.252 . S
C185 O188 1.252 . S
C185 O189 1.260 . S
C186 O193 1.240 . S
C186 O194 1.252 . S
C187 O190 1.252 . S
C187 O191 1.260 . S
O188 In182 2.266 . S
O188 C185 1.252 . S
O189 In182 2.326 . S
O189 C185 1.260 . S
O190 In182 2.266 . S
O190 C187 1.252 . S
O191 In182 2.326 . S
O191 C187 1.260 . S
C192 O183 1.240 . S
C192 O184 1.252 . S
O193 In182 2.294 . S
O193 C186 1.240 . S
O194 In182 2.326 . S
O194 C186 1.252 . S
In195 O196 2.294 . S
In195 O197 2.326 . S
In195 O201 2.266 . S
In195 O202 2.326 . S
In195 O203 2.266 . S
In195 O204 2.326 . S
In195 O206 2.294 . S
In195 O207 2.326 . S
O196 In195 2.294 . S
O196 C205 1.240 . S
O197 In195 2.326 . S
O197 C205 1.252 . S
C198 O201 1.252 . S
C198 O202 1.260 . S
C199 O206 1.240 . S
C199 O207 1.252 . S
C200 O203 1.252 . S
C200 O204 1.260 . S
O201 In195 2.266 . S
O201 C198 1.252 . S
O202 In195 2.326 . S
O202 C198 1.260 . S
O203 In195 2.266 . S
O203 C200 1.252 . S
O204 In195 2.326 . S
O204 C200 1.260 . S
C205 O196 1.240 . S
C205 O197 1.252 . S
O206 In195 2.294 . S
O206 C199 1.240 . S
O207 In195 2.326 . S
O207 C199 1.252 . S
In208 O209 2.294 . S
In208 O210 2.326 . S
In208 O214 2.266 . S
In208 O215 2.326 . S
In208 O216 2.266 . S
In208 O217 2.326 . S
In208 O219 2.292 . S
In208 O220 2.326 . S
O209 In208 2.294 . S
O209 C218 1.240 . S
O210 In208 2.326 . S
O210 C218 1.252 . S
C211 O214 1.252 . S
C211 O215 1.260 . S
C212 O219 1.240 1_565 S
C212 O220 1.252 1_565 S
C213 O216 1.252 . S
C213 O217 1.260 . S
O214 In208 2.266 . S
O214 C211 1.252 . S
O215 In208 2.326 . S
O215 C211 1.260 . S
O216 In208 2.266 . S
O216 C213 1.252 . S
O217 In208 2.326 . S
O217 C213 1.260 . S
C218 O209 1.240 . S
C218 O210 1.252 . S
O219 In208 2.292 . S
O219 C212 1.240 1_545 S
O220 In208 2.326 . S
O220 C212 1.252 1_545 S
In221 O222 2.294 . S
In221 O223 2.326 . S
In221 O227 2.266 . S
In221 O228 2.326 . S
In221 O229 2.268 . S
In221 O230 2.326 . S
In221 O232 2.294 . S
In221 O233 2.326 . S
O222 In221 2.294 . S
O222 C231 1.240 . S
O223 In221 2.326 . S
O223 C231 1.252 . S
C224 O227 1.252 . S
C224 O228 1.260 . S
C225 O232 1.240 . S
C225 O233 1.252 . S
C226 O229 1.248 1_455 S
C226 O230 1.260 1_455 S
O227 In221 2.266 . S
O227 C224 1.252 . S
O228 In221 2.326 . S
O228 C224 1.260 . S
O229 In221 2.268 . S
O229 C226 1.248 1_655 S
O230 In221 2.326 . S
O230 C226 1.260 1_655 S
C231 O222 1.240 . S
C231 O223 1.252 . S
O232 In221 2.294 . S
O232 C225 1.240 . S
O233 In221 2.326 . S
O233 C225 1.252 . S
H234 C253 0.949 . S
H235 C254 0.950 . S
H236 C256 0.950 . S
H237 C257 0.950 . S
H238 C259 0.950 . S
H239 C262 0.950 . S
H240 C263 0.950 . S
H241 C265 0.951 . S
H242 C266 0.949 . S
H243 C268 0.949 . S
H244 C269 0.950 . S
H245 C271 0.950 . S
H246 C272 0.950 . S
H247 C274 0.950 . S
H248 C277 0.950 . S
H249 C278 0.950 . S
H250 C280 0.951 . S
H251 C281 0.949 . S
C252 C253 1.376 . S
C252 C257 1.386 . S
C252 C258 1.483 . S
C253 H234 0.949 . S
C253 C252 1.376 . S
C253 C254 1.397 . S
C254 H235 0.950 . S
C254 C253 1.397 . S
C254 C255 1.391 . S
C255 C254 1.391 . S
C255 C256 1.405 . S
C256 H236 0.950 . S
C256 C255 1.405 . S
C256 C257 1.367 . S
C257 H237 0.950 . S
C257 C252 1.386 . S
C257 C256 1.367 . S
C258 C252 1.483 . S
C258 C259 1.382 . S
C258 C260 1.403 . S
C259 H238 0.950 . S
C259 C258 1.382 . S
C259 C275 1.411 . S
C260 C258 1.403 . S
C260 C261 1.489 . S
C260 C274 1.411 . S
C261 C260 1.489 . S
C261 C262 1.383 . S
C261 C266 1.382 . S
C262 H239 0.950 . S
C262 C261 1.383 . S
C262 C263 1.395 . S
C263 H240 0.950 . S
C263 C262 1.395 . S
C263 C264 1.288 . S
C264 C263 1.288 . S
C264 C265 1.392 . S
C265 H241 0.951 . S
C265 C264 1.392 . S
C265 C266 1.392 . S
C266 H242 0.949 . S
C266 C261 1.382 . S
C266 C265 1.392 . S
C267 C268 1.376 . S
C267 C272 1.386 . S
C267 C273 1.483 . S
C268 H243 0.949 . S
C268 C267 1.376 . S
C268 C269 1.397 . S
C269 H244 0.950 . S
C269 C268 1.397 . S
C269 C270 1.391 . S
C270 C269 1.391 . S
C270 C271 1.405 . S
C271 H245 0.950 . S
C271 C270 1.405 . S
C271 C272 1.367 . S
C272 H246 0.950 . S
C272 C267 1.386 . S
C272 C271 1.367 . S
C273 C267 1.483 . S
C273 C274 1.382 . S
C273 C275 1.403 . S
C274 H247 0.950 . S
C274 C260 1.411 . S
C274 C273 1.382 . S
C275 C259 1.411 . S
C275 C273 1.403 . S
C275 C276 1.489 . S
C276 C275 1.489 . S
C276 C277 1.383 . S
C276 C281 1.382 . S
C277 H248 0.950 . S
C277 C276 1.383 . S
C277 C278 1.395 . S
C278 H249 0.950 . S
C278 C277 1.395 . S
C278 C279 1.288 . S
C279 C278 1.288 . S
C279 C280 1.392 . S
C280 H250 0.951 . S
C280 C279 1.392 . S
C280 C281 1.392 . S
C281 H251 0.949 . S
C281 C276 1.382 . S
C281 C280 1.392 . S
H282 C301 0.949 . S
H283 C302 0.950 . S
H284 C304 0.950 . S
H285 C305 0.950 . S
H286 C307 0.950 . S
H287 C310 0.950 . S
H288 C311 0.950 . S
H289 C313 0.951 . S
H290 C314 0.949 . S
H291 C316 0.949 . S
H292 C317 0.950 . S
H293 C319 0.950 . S
H294 C320 0.950 . S
H295 C322 0.950 . S
H296 C325 0.950 . S
H297 C326 0.950 . S
H298 C328 0.951 . S
H299 C329 0.949 . S
C300 C301 1.376 . S
C300 C305 1.386 . S
C300 C306 1.483 . S
C301 H282 0.949 . S
C301 C300 1.376 . S
C301 C302 1.397 . S
C302 H283 0.950 . S
C302 C301 1.397 . S
C302 C303 1.391 . S
C303 C302 1.391 . S
C303 C304 1.405 . S
C304 H284 0.950 . S
C304 C303 1.405 . S
C304 C305 1.367 . S
C305 H285 0.950 . S
C305 C300 1.386 . S
C305 C304 1.367 . S
C306 C300 1.483 . S
C306 C307 1.382 . S
C306 C308 1.403 . S
C307 H286 0.950 . S
C307 C306 1.382 . S
C307 C323 1.411 . S
C308 C306 1.403 . S
C308 C309 1.489 . S
C308 C322 1.411 . S
C309 C308 1.489 . S
C309 C310 1.383 . S
C309 C314 1.382 . S
C310 H287 0.950 . S
C310 C309 1.383 . S
C310 C311 1.395 . S
C311 H288 0.950 . S
C311 C310 1.395 . S
C311 C312 1.288 . S
C312 C311 1.288 . S
C312 C313 1.392 . S
C313 H289 0.951 . S
C313 C312 1.392 . S
C313 C314 1.392 . S
C314 H290 0.949 . S
C314 C309 1.382 . S
C314 C313 1.392 . S
C315 C316 1.376 . S
C315 C320 1.386 . S
C315 C321 1.483 . S
C316 H291 0.949 . S
C316 C315 1.376 . S
C316 C317 1.397 . S
C317 H292 0.950 . S
C317 C316 1.397 . S
C317 C318 1.391 . S
C318 C317 1.391 . S
C318 C319 1.405 . S
C319 H293 0.950 . S
C319 C318 1.405 . S
C319 C320 1.367 . S
C320 H294 0.950 . S
C320 C315 1.386 . S
C320 C319 1.367 . S
C321 C315 1.483 . S
C321 C322 1.382 . S
C321 C323 1.403 . S
C322 H295 0.950 . S
C322 C308 1.411 . S
C322 C321 1.382 . S
C323 C307 1.411 . S
C323 C321 1.403 . S
C323 C324 1.489 . S
C324 C323 1.489 . S
C324 C325 1.383 . S
C324 C329 1.382 . S
C325 H296 0.950 . S
C325 C324 1.383 . S
C325 C326 1.395 . S
C326 H297 0.950 . S
C326 C325 1.395 . S
C326 C327 1.288 . S
C327 C326 1.288 . S
C327 C328 1.392 . S
C328 H298 0.951 . S
C328 C327 1.392 . S
C328 C329 1.392 . S
C329 H299 0.949 . S
C329 C324 1.382 . S
C329 C328 1.392 . S
H330 C349 0.949 . S
H331 C350 0.950 . S
H332 C352 0.950 . S
H333 C353 0.950 . S
H334 C355 0.950 . S
H335 C358 0.950 . S
H336 C359 0.950 . S
H337 C361 0.951 . S
H338 C362 0.949 . S
H339 C364 0.949 . S
H340 C365 0.950 . S
H341 C367 0.950 . S
H342 C368 0.950 . S
H343 C370 0.950 . S
H344 C373 0.950 . S
H345 C374 0.950 . S
H346 C376 0.951 . S
H347 C377 0.949 . S
C348 C349 1.376 . S
C348 C353 1.386 . S
C348 C354 1.483 . S
C349 H330 0.949 . S
C349 C348 1.376 . S
C349 C350 1.397 . S
C350 H331 0.950 . S
C350 C349 1.397 . S
C350 C351 1.391 . S
C351 C350 1.391 . S
C351 C352 1.405 . S
C352 H332 0.950 . S
C352 C351 1.405 . S
C352 C353 1.367 . S
C353 H333 0.950 . S
C353 C348 1.386 . S
C353 C352 1.367 . S
C354 C348 1.483 . S
C354 C355 1.382 . S
C354 C356 1.403 . S
C355 H334 0.950 . S
C355 C354 1.382 . S
C355 C371 1.411 . S
C356 C354 1.403 . S
C356 C357 1.489 . S
C356 C370 1.411 . S
C357 C356 1.489 . S
C357 C358 1.383 . S
C357 C362 1.382 . S
C358 H335 0.950 . S
C358 C357 1.383 . S
C358 C359 1.395 . S
C359 H336 0.950 . S
C359 C358 1.395 . S
C359 C360 1.288 . S
C360 C359 1.288 . S
C360 C361 1.392 . S
C361 H337 0.951 . S
C361 C360 1.392 . S
C361 C362 1.392 . S
C362 H338 0.949 . S
C362 C357 1.382 . S
C362 C361 1.392 . S
C363 C364 1.376 . S
C363 C368 1.386 . S
C363 C369 1.483 . S
C364 H339 0.949 . S
C364 C363 1.376 . S
C364 C365 1.397 . S
C365 H340 0.950 . S
C365 C364 1.397 . S
C365 C366 1.391 . S
C366 C365 1.391 . S
C366 C367 1.405 . S
C367 H341 0.950 . S
C367 C366 1.405 . S
C367 C368 1.367 . S
C368 H342 0.950 . S
C368 C363 1.386 . S
C368 C367 1.367 . S
C369 C363 1.483 . S
C369 C370 1.382 . S
C369 C371 1.403 . S
C370 H343 0.950 . S
C370 C356 1.411 . S
C370 C369 1.382 . S
C371 C355 1.411 . S
C371 C369 1.403 . S
C371 C372 1.489 . S
C372 C371 1.489 . S
C372 C373 1.383 . S
C372 C377 1.382 . S
C373 H344 0.950 . S
C373 C372 1.383 . S
C373 C374 1.395 . S
C374 H345 0.950 . S
C374 C373 1.395 . S
C374 C375 1.288 . S
C375 C374 1.288 . S
C375 C376 1.392 . S
C376 H346 0.951 . S
C376 C375 1.392 . S
C376 C377 1.392 . S
C377 H347 0.949 . S
C377 C372 1.382 . S
C377 C376 1.392 . S
H378 C397 0.949 . S
H379 C398 0.950 . S
H380 C400 0.950 . S
H381 C401 0.950 . S
H382 C403 0.950 . S
H383 C406 0.950 . S
H384 C407 0.950 . S
H385 C409 0.951 . S
H386 C410 0.949 . S
H387 C412 0.949 . S
H388 C413 0.950 . S
H389 C415 0.950 . S
H390 C416 0.950 . S
H391 C418 0.950 . S
H392 C421 0.950 . S
H393 C422 0.950 . S
H394 C424 0.951 . S
H395 C425 0.949 . S
C396 C397 1.376 . S
C396 C401 1.386 . S
C396 C402 1.483 . S
C397 H378 0.949 . S
C397 C396 1.376 . S
C397 C398 1.397 . S
C398 H379 0.950 . S
C398 C397 1.397 . S
C398 C399 1.391 . S
C399 C398 1.391 . S
C399 C400 1.405 . S
C400 H380 0.950 . S
C400 C399 1.405 . S
C400 C401 1.367 . S
C401 H381 0.950 . S
C401 C396 1.386 . S
C401 C400 1.367 . S
C402 C396 1.483 . S
C402 C403 1.382 . S
C402 C404 1.403 . S
C403 H382 0.950 . S
C403 C402 1.382 . S
C403 C419 1.411 . S
C404 C402 1.403 . S
C404 C405 1.489 . S
C404 C418 1.411 . S
C405 C404 1.489 . S
C405 C406 1.383 . S
C405 C410 1.382 . S
C406 H383 0.950 . S
C406 C405 1.383 . S
C406 C407 1.395 . S
C407 H384 0.950 . S
C407 C406 1.395 . S
C407 C408 1.288 . S
C408 C407 1.288 . S
C408 C409 1.392 . S
C409 H385 0.951 . S
C409 C408 1.392 . S
C409 C410 1.392 . S
C410 H386 0.949 . S
C410 C405 1.382 . S
C410 C409 1.392 . S
C411 C412 1.376 . S
C411 C416 1.386 . S
C411 C417 1.483 . S
C412 H387 0.949 . S
C412 C411 1.376 . S
C412 C413 1.397 . S
C413 H388 0.950 . S
C413 C412 1.397 . S
C413 C414 1.391 . S
C414 C413 1.391 . S
C414 C415 1.405 . S
C415 H389 0.950 . S
C415 C414 1.405 . S
C415 C416 1.367 . S
C416 H390 0.950 . S
C416 C411 1.386 . S
C416 C415 1.367 . S
C417 C411 1.483 . S
C417 C418 1.382 . S
C417 C419 1.403 . S
C418 H391 0.950 . S
C418 C404 1.411 . S
C418 C417 1.382 . S
C419 C403 1.411 . S
C419 C417 1.403 . S
C419 C420 1.489 . S
C420 C419 1.489 . S
C420 C421 1.383 . S
C420 C425 1.382 . S
C421 H392 0.950 . S
C421 C420 1.383 . S
C421 C422 1.395 . S
C422 H393 0.950 . S
C422 C421 1.395 . S
C422 C423 1.288 . S
C423 C422 1.288 . S
C423 C424 1.392 . S
C424 H394 0.951 . S
C424 C423 1.392 . S
C424 C425 1.392 . S
C425 H395 0.949 . S
C425 C420 1.382 . S
C425 C424 1.392 . S
H426 C445 0.949 . S
H427 C446 0.950 . S
H428 C448 0.950 . S
H429 C449 0.950 . S
H430 C451 0.950 . S
H431 C454 0.950 . S
H432 C455 0.950 . S
H433 C457 0.951 . S
H434 C458 0.949 . S
H435 C460 0.949 . S
H436 C461 0.950 . S
H437 C463 0.950 . S
H438 C464 0.950 . S
H439 C466 0.950 . S
H440 C469 0.950 . S
H441 C470 0.950 . S
H442 C472 0.951 . S
H443 C473 0.949 . S
C444 C445 1.376 . S
C444 C449 1.386 . S
C444 C450 1.483 . S
C445 H426 0.949 . S
C445 C444 1.376 . S
C445 C446 1.397 . S
C446 H427 0.950 . S
C446 C445 1.397 . S
C446 C447 1.391 . S
C447 C446 1.391 . S
C447 C448 1.405 . S
C448 H428 0.950 . S
C448 C447 1.405 . S
C448 C449 1.367 . S
C449 H429 0.950 . S
C449 C444 1.386 . S
C449 C448 1.367 . S
C450 C444 1.483 . S
C450 C451 1.382 . S
C450 C452 1.403 . S
C451 H430 0.950 . S
C451 C450 1.382 . S
C451 C467 1.411 . S
C452 C450 1.403 . S
C452 C453 1.489 . S
C452 C466 1.411 . S
C453 C452 1.489 . S
C453 C454 1.383 . S
C453 C458 1.382 . S
C454 H431 0.950 . S
C454 C453 1.383 . S
C454 C455 1.395 . S
C455 H432 0.950 . S
C455 C454 1.395 . S
C455 C456 1.288 . S
C456 C455 1.288 . S
C456 C457 1.392 . S
C457 H433 0.951 . S
C457 C456 1.392 . S
C457 C458 1.392 . S
C458 H434 0.949 . S
C458 C453 1.382 . S
C458 C457 1.392 . S
C459 C460 1.376 . S
C459 C464 1.386 . S
C459 C465 1.483 . S
C460 H435 0.949 . S
C460 C459 1.376 . S
C460 C461 1.397 . S
C461 H436 0.950 . S
C461 C460 1.397 . S
C461 C462 1.391 . S
C462 C461 1.391 . S
C462 C463 1.405 . S
C463 H437 0.950 . S
C463 C462 1.405 . S
C463 C464 1.367 . S
C464 H438 0.950 . S
C464 C459 1.386 . S
C464 C463 1.367 . S
C465 C459 1.483 . S
C465 C466 1.382 . S
C465 C467 1.403 . S
C466 H439 0.950 . S
C466 C452 1.411 . S
C466 C465 1.382 . S
C467 C451 1.411 . S
C467 C465 1.403 . S
C467 C468 1.489 . S
C468 C467 1.489 . S
C468 C469 1.383 . S
C468 C473 1.382 . S
C469 H440 0.950 . S
C469 C468 1.383 . S
C469 C470 1.395 . S
C470 H441 0.950 . S
C470 C469 1.395 . S
C470 C471 1.288 . S
C471 C470 1.288 . S
C471 C472 1.392 . S
C472 H442 0.951 . S
C472 C471 1.392 . S
C472 C473 1.392 . S
C473 H443 0.949 . S
C473 C468 1.382 . S
C473 C472 1.392 . S
H474 C493 0.949 . S
H475 C494 0.950 . S
H476 C496 0.950 . S
H477 C497 0.950 . S
H478 C499 0.950 . S
H479 C502 0.950 . S
H480 C503 0.950 . S
H481 C505 0.951 . S
H482 C506 0.949 . S
H483 C508 0.949 . S
H484 C509 0.950 . S
H485 C511 0.950 . S
H486 C512 0.950 . S
H487 C514 0.950 . S
H488 C517 0.950 . S
H489 C518 0.950 . S
H490 C520 0.951 . S
H491 C521 0.949 . S
C492 C493 1.376 . S
C492 C497 1.386 . S
C492 C498 1.483 . S
C493 H474 0.949 . S
C493 C492 1.376 . S
C493 C494 1.397 . S
C494 H475 0.950 . S
C494 C493 1.397 . S
C494 C495 1.391 . S
C495 C494 1.391 . S
C495 C496 1.405 . S
C496 H476 0.950 . S
C496 C495 1.405 . S
C496 C497 1.367 . S
C497 H477 0.950 . S
C497 C492 1.386 . S
C497 C496 1.367 . S
C498 C492 1.483 . S
C498 C499 1.382 . S
C498 C500 1.403 . S
C499 H478 0.950 . S
C499 C498 1.382 . S
C499 C515 1.411 . S
C500 C498 1.403 . S
C500 C501 1.489 . S
C500 C514 1.411 . S
C501 C500 1.489 . S
C501 C502 1.383 . S
C501 C506 1.382 . S
C502 H479 0.950 . S
C502 C501 1.383 . S
C502 C503 1.395 . S
C503 H480 0.950 . S
C503 C502 1.395 . S
C503 C504 1.288 . S
C504 C503 1.288 . S
C504 C505 1.392 . S
C505 H481 0.951 . S
C505 C504 1.392 . S
C505 C506 1.392 . S
C506 H482 0.949 . S
C506 C501 1.382 . S
C506 C505 1.392 . S
C507 C508 1.376 . S
C507 C512 1.386 . S
C507 C513 1.483 . S
C508 H483 0.949 . S
C508 C507 1.376 . S
C508 C509 1.397 . S
C509 H484 0.950 . S
C509 C508 1.397 . S
C509 C510 1.391 . S
C510 C509 1.391 . S
C510 C511 1.405 . S
C511 H485 0.950 . S
C511 C510 1.405 . S
C511 C512 1.367 . S
C512 H486 0.950 . S
C512 C507 1.386 . S
C512 C511 1.367 . S
C513 C507 1.483 . S
C513 C514 1.382 . S
C513 C515 1.403 . S
C514 H487 0.950 . S
C514 C500 1.411 . S
C514 C513 1.382 . S
C515 C499 1.411 . S
C515 C513 1.403 . S
C515 C516 1.489 . S
C516 C515 1.489 . S
C516 C517 1.383 . S
C516 C521 1.382 . S
C517 H488 0.950 . S
C517 C516 1.383 . S
C517 C518 1.395 . S
C518 H489 0.950 . S
C518 C517 1.395 . S
C518 C519 1.288 . S
C519 C518 1.288 . S
C519 C520 1.392 . S
C520 H490 0.951 . S
C520 C519 1.392 . S
C520 C521 1.392 . S
C521 H491 0.949 . S
C521 C516 1.382 . S
C521 C520 1.392 . S
H522 C541 0.949 . S
H523 C542 0.950 . S
H524 C544 0.950 . S
H525 C545 0.950 . S
H526 C547 0.950 . S
H527 C550 0.950 . S
H528 C551 0.950 . S
H529 C553 0.951 . S
H530 C554 0.949 . S
H531 C556 0.949 . S
H532 C557 0.950 . S
H533 C559 0.950 . S
H534 C560 0.950 . S
H535 C562 0.950 . S
H536 C565 0.950 . S
H537 C566 0.950 . S
H538 C568 0.951 . S
H539 C569 0.949 . S
C540 C541 1.376 . S
C540 C545 1.386 . S
C540 C546 1.483 . S
C541 H522 0.949 . S
C541 C540 1.376 . S
C541 C542 1.397 . S
C542 H523 0.950 . S
C542 C541 1.397 . S
C542 C543 1.391 . S
C543 C542 1.391 . S
C543 C544 1.405 . S
C544 H524 0.950 . S
C544 C543 1.405 . S
C544 C545 1.367 . S
C545 H525 0.950 . S
C545 C540 1.386 . S
C545 C544 1.367 . S
C546 C540 1.483 . S
C546 C547 1.382 . S
C546 C548 1.403 . S
C547 H526 0.950 . S
C547 C546 1.382 . S
C547 C563 1.411 . S
C548 C546 1.403 . S
C548 C549 1.489 . S
C548 C562 1.411 . S
C549 C548 1.489 . S
C549 C550 1.383 . S
C549 C554 1.382 . S
C550 H527 0.950 . S
C550 C549 1.383 . S
C550 C551 1.395 . S
C551 H528 0.950 . S
C551 C550 1.395 . S
C551 C552 1.288 . S
C552 C551 1.288 . S
C552 C553 1.392 . S
C553 H529 0.951 . S
C553 C552 1.392 . S
C553 C554 1.392 . S
C554 H530 0.949 . S
C554 C549 1.382 . S
C554 C553 1.392 . S
C555 C556 1.376 . S
C555 C560 1.386 . S
C555 C561 1.483 . S
C556 H531 0.949 . S
C556 C555 1.376 . S
C556 C557 1.397 . S
C557 H532 0.950 . S
C557 C556 1.397 . S
C557 C558 1.391 . S
C558 C557 1.391 . S
C558 C559 1.405 . S
C559 H533 0.950 . S
C559 C558 1.405 . S
C559 C560 1.367 . S
C560 H534 0.950 . S
C560 C555 1.386 . S
C560 C559 1.367 . S
C561 C555 1.483 . S
C561 C562 1.382 . S
C561 C563 1.403 . S
C562 H535 0.950 . S
C562 C548 1.411 . S
C562 C561 1.382 . S
C563 C547 1.411 . S
C563 C561 1.403 . S
C563 C564 1.489 . S
C564 C563 1.489 . S
C564 C565 1.383 . S
C564 C569 1.382 . S
C565 H536 0.950 . S
C565 C564 1.383 . S
C565 C566 1.395 . S
C566 H537 0.950 . S
C566 C565 1.395 . S
C566 C567 1.288 . S
C567 C566 1.288 . S
C567 C568 1.392 . S
C568 H538 0.951 . S
C568 C567 1.392 . S
C568 C569 1.392 . S
C569 H539 0.949 . S
C569 C564 1.382 . S
C569 C568 1.392 . S
H570 C589 0.949 . S
H571 C590 0.950 . S
H572 C592 0.950 . S
H573 C593 0.950 . S
H574 C595 0.950 . S
H575 C598 0.950 . S
H576 C599 0.950 . S
H577 C601 0.951 . S
H578 C602 0.949 . S
H579 C604 0.949 . S
H580 C605 0.950 . S
H581 C607 0.950 . S
H582 C608 0.950 . S
H583 C610 0.950 . S
H584 C613 0.950 . S
H585 C614 0.950 . S
H586 C616 0.951 . S
H587 C617 0.949 . S
C588 C589 1.376 . S
C588 C593 1.386 . S
C588 C594 1.483 . S
C589 H570 0.949 . S
C589 C588 1.376 . S
C589 C590 1.397 . S
C590 H571 0.950 . S
C590 C589 1.397 . S
C590 C591 1.391 . S
C591 C590 1.391 . S
C591 C592 1.405 . S
C592 H572 0.950 . S
C592 C591 1.405 . S
C592 C593 1.367 . S
C593 H573 0.950 . S
C593 C588 1.386 . S
C593 C592 1.367 . S
C594 C588 1.483 . S
C594 C595 1.382 . S
C594 C596 1.403 . S
C595 H574 0.950 . S
C595 C594 1.382 . S
C595 C611 1.411 . S
C596 C594 1.403 . S
C596 C597 1.489 . S
C596 C610 1.411 . S
C597 C596 1.489 . S
C597 C598 1.383 . S
C597 C602 1.382 . S
C598 H575 0.950 . S
C598 C597 1.383 . S
C598 C599 1.395 . S
C599 H576 0.950 . S
C599 C598 1.395 . S
C599 C600 1.288 . S
C600 C599 1.288 . S
C600 C601 1.392 . S
C601 H577 0.951 . S
C601 C600 1.392 . S
C601 C602 1.392 . S
C602 H578 0.949 . S
C602 C597 1.382 . S
C602 C601 1.392 . S
C603 C604 1.376 . S
C603 C608 1.386 . S
C603 C609 1.483 . S
C604 H579 0.949 . S
C604 C603 1.376 . S
C604 C605 1.397 . S
C605 H580 0.950 . S
C605 C604 1.397 . S
C605 C606 1.391 . S
C606 C605 1.391 . S
C606 C607 1.405 . S
C607 H581 0.950 . S
C607 C606 1.405 . S
C607 C608 1.367 . S
C608 H582 0.950 . S
C608 C603 1.386 . S
C608 C607 1.367 . S
C609 C603 1.483 . S
C609 C610 1.382 . S
C609 C611 1.403 . S
C610 H583 0.950 . S
C610 C596 1.411 . S
C610 C609 1.382 . S
C611 C595 1.411 . S
C611 C609 1.403 . S
C611 C612 1.489 . S
C612 C611 1.489 . S
C612 C613 1.383 . S
C612 C617 1.382 . S
C613 H584 0.950 . S
C613 C612 1.383 . S
C613 C614 1.395 . S
C614 H585 0.950 . S
C614 C613 1.395 . S
C614 C615 1.288 . S
C615 C614 1.288 . S
C615 C616 1.392 . S
C616 H586 0.951 . S
C616 C615 1.392 . S
C616 C617 1.392 . S
C617 H587 0.949 . S
C617 C612 1.382 . S
C617 C616 1.392 . S
H618 C637 0.949 . S
H619 C638 0.950 . S
H620 C640 0.950 . S
H621 C641 0.950 . S
H622 C643 0.950 . S
H623 C646 0.950 . S
H624 C647 0.950 . S
H625 C649 0.951 . S
H626 C650 0.949 . S
H627 C652 0.949 . S
H628 C653 0.950 . S
H629 C655 0.950 . S
H630 C656 0.950 . S
H631 C658 0.950 . S
H632 C661 0.950 . S
H633 C662 0.950 . S
H634 C664 0.951 . S
H635 C665 0.949 . S
C636 C637 1.376 . S
C636 C641 1.386 . S
C636 C642 1.483 . S
C637 H618 0.949 . S
C637 C636 1.376 . S
C637 C638 1.397 . S
C638 H619 0.950 . S
C638 C637 1.397 . S
C638 C639 1.391 . S
C639 C638 1.391 . S
C639 C640 1.405 . S
C640 H620 0.950 . S
C640 C639 1.405 . S
C640 C641 1.367 . S
C641 H621 0.950 . S
C641 C636 1.386 . S
C641 C640 1.367 . S
C642 C636 1.483 . S
C642 C643 1.382 . S
C642 C644 1.403 . S
C643 H622 0.950 . S
C643 C642 1.382 . S
C643 C659 1.411 . S
C644 C642 1.403 . S
C644 C645 1.489 . S
C644 C658 1.411 . S
C645 C644 1.489 . S
C645 C646 1.383 . S
C645 C650 1.382 . S
C646 H623 0.950 . S
C646 C645 1.383 . S
C646 C647 1.395 . S
C647 H624 0.950 . S
C647 C646 1.395 . S
C647 C648 1.288 . S
C648 C647 1.288 . S
C648 C649 1.392 . S
C649 H625 0.951 . S
C649 C648 1.392 . S
C649 C650 1.392 . S
C650 H626 0.949 . S
C650 C645 1.382 . S
C650 C649 1.392 . S
C651 C652 1.376 . S
C651 C656 1.386 . S
C651 C657 1.483 . S
C652 H627 0.949 . S
C652 C651 1.376 . S
C652 C653 1.397 . S
C653 H628 0.950 . S
C653 C652 1.397 . S
C653 C654 1.391 . S
C654 C653 1.391 . S
C654 C655 1.405 . S
C655 H629 0.950 . S
C655 C654 1.405 . S
C655 C656 1.367 . S
C656 H630 0.950 . S
C656 C651 1.386 . S
C656 C655 1.367 . S
C657 C651 1.483 . S
C657 C658 1.382 . S
C657 C659 1.403 . S
C658 H631 0.950 . S
C658 C644 1.411 . S
C658 C657 1.382 . S
C659 C643 1.411 . S
C659 C657 1.403 . S
C659 C660 1.489 . S
C660 C659 1.489 . S
C660 C661 1.383 . S
C660 C665 1.382 . S
C661 H632 0.950 . S
C661 C660 1.383 . S
C661 C662 1.395 . S
C662 H633 0.950 . S
C662 C661 1.395 . S
C662 C663 1.288 . S
C663 C662 1.288 . S
C663 C664 1.392 . S
C664 H634 0.951 . S
C664 C663 1.392 . S
C664 C665 1.392 . S
C665 H635 0.949 . S
C665 C660 1.382 . S
C665 C664 1.392 . S
H666 C685 0.949 . S
H667 C686 0.950 . S
H668 C688 0.950 . S
H669 C689 0.950 . S
H670 C691 0.950 . S
H671 C694 0.950 . S
H672 C695 0.950 . S
H673 C697 0.951 . S
H674 C698 0.949 . S
H675 C700 0.949 . S
H676 C701 0.950 . S
H677 C703 0.950 . S
H678 C704 0.950 . S
H679 C706 0.950 . S
H680 C709 0.950 . S
H681 C710 0.950 . S
H682 C712 0.951 . S
H683 C713 0.949 . S
C684 C685 1.376 . S
C684 C689 1.386 1_655 S
C684 C690 1.483 . S
C685 H666 0.949 . S
C685 C684 1.376 . S
C685 C686 1.397 . S
C686 H667 0.950 . S
C686 C685 1.397 . S
C686 C687 1.391 . S
C687 C686 1.391 . S
C687 C688 1.405 1_655 S
C688 H668 0.950 . S
C688 C687 1.405 1_455 S
C688 C689 1.367 . S
C689 H669 0.950 . S
C689 C684 1.386 1_455 S
C689 C688 1.367 . S
C690 C684 1.483 . S
C690 C691 1.382 . S
C690 C692 1.403 1_655 S
C691 H670 0.950 . S
C691 C690 1.382 . S
C691 C707 1.411 . S
C692 C690 1.403 1_455 S
C692 C693 1.489 . S
C692 C706 1.411 . S
C693 C692 1.489 . S
C693 C694 1.383 1_455 S
C693 C698 1.382 . S
C694 H671 0.950 . S
C694 C693 1.383 1_655 S
C694 C695 1.395 . S
C695 H672 0.950 . S
C695 C694 1.395 . S
C695 C696 1.288 1_655 S
C696 C695 1.288 1_455 S
C696 C697 1.392 . S
C697 H673 0.951 . S
C697 C696 1.392 . S
C697 C698 1.392 . S
C698 H674 0.949 . S
C698 C693 1.382 . S
C698 C697 1.392 . S
C699 C700 1.376 . S
C699 C704 1.386 1_455 S
C699 C705 1.483 . S
C700 H675 0.949 . S
C700 C699 1.376 . S
C700 C701 1.397 . S
C701 H676 0.950 . S
C701 C700 1.397 . S
C701 C702 1.391 . S
C702 C701 1.391 . S
C702 C703 1.405 1_455 S
C703 H677 0.950 . S
C703 C702 1.405 1_655 S
C703 C704 1.367 . S
C704 H678 0.950 . S
C704 C699 1.386 1_655 S
C704 C703 1.367 . S
C705 C699 1.483 . S
C705 C706 1.382 . S
C705 C707 1.403 1_455 S
C706 H679 0.950 . S
C706 C692 1.411 . S
C706 C705 1.382 . S
C707 C691 1.411 . S
C707 C705 1.403 1_655 S
C707 C708 1.489 . S
C708 C707 1.489 . S
C708 C709 1.383 1_655 S
C708 C713 1.382 . S
C709 H680 0.950 . S
C709 C708 1.383 1_455 S
C709 C710 1.395 . S
C710 H681 0.950 . S
C710 C709 1.395 . S
C710 C711 1.288 1_455 S
C711 C710 1.288 1_655 S
C711 C712 1.392 . S
C712 H682 0.951 . S
C712 C711 1.392 . S
C712 C713 1.392 . S
C713 H683 0.949 . S
C713 C708 1.382 . S
C713 C712 1.392 . S
H714 C733 0.949 . S
H715 C734 0.950 . S
H716 C736 0.950 . S
H717 C737 0.950 . S
H718 C739 0.950 . S
H719 C742 0.950 . S
H720 C743 0.950 . S
H721 C745 0.951 . S
H722 C746 0.949 . S
H723 C748 0.949 . S
H724 C749 0.950 . S
H725 C751 0.950 . S
H726 C752 0.950 . S
H727 C754 0.950 . S
H728 C757 0.950 . S
H729 C758 0.950 . S
H730 C760 0.951 . S
H731 C761 0.949 . S
C732 C733 1.376 . S
C732 C737 1.386 . S
C732 C738 1.483 . S
C733 H714 0.949 . S
C733 C732 1.376 . S
C733 C734 1.397 . S
C734 H715 0.950 . S
C734 C733 1.397 . S
C734 C735 1.391 . S
C735 C734 1.391 . S
C735 C736 1.405 . S
C736 H716 0.950 . S
C736 C735 1.405 . S
C736 C737 1.367 . S
C737 H717 0.950 . S
C737 C732 1.386 . S
C737 C736 1.367 . S
C738 C732 1.483 . S
C738 C739 1.382 . S
C738 C740 1.403 . S
C739 H718 0.950 . S
C739 C738 1.382 . S
C739 C755 1.411 . S
C740 C738 1.403 . S
C740 C741 1.489 . S
C740 C754 1.411 . S
C741 C740 1.489 . S
C741 C742 1.383 . S
C741 C746 1.382 . S
C742 H719 0.950 . S
C742 C741 1.383 . S
C742 C743 1.395 . S
C743 H720 0.950 . S
C743 C742 1.395 . S
C743 C744 1.288 . S
C744 C743 1.288 . S
C744 C745 1.392 . S
C745 H721 0.951 . S
C745 C744 1.392 . S
C745 C746 1.392 . S
C746 H722 0.949 . S
C746 C741 1.382 . S
C746 C745 1.392 . S
C747 C748 1.376 . S
C747 C752 1.386 . S
C747 C753 1.483 . S
C748 H723 0.949 . S
C748 C747 1.376 . S
C748 C749 1.397 . S
C749 H724 0.950 . S
C749 C748 1.397 . S
C749 C750 1.391 . S
C750 C749 1.391 . S
C750 C751 1.405 . S
C751 H725 0.950 . S
C751 C750 1.405 . S
C751 C752 1.367 . S
C752 H726 0.950 . S
C752 C747 1.386 . S
C752 C751 1.367 . S
C753 C747 1.483 . S
C753 C754 1.382 . S
C753 C755 1.403 . S
C754 H727 0.950 . S
C754 C740 1.411 . S
C754 C753 1.382 . S
C755 C739 1.411 . S
C755 C753 1.403 . S
C755 C756 1.489 . S
C756 C755 1.489 . S
C756 C757 1.383 . S
C756 C761 1.382 . S
C757 H728 0.950 . S
C757 C756 1.383 . S
C757 C758 1.395 . S
C758 H729 0.950 . S
C758 C757 1.395 . S
C758 C759 1.288 . S
C759 C758 1.288 . S
C759 C760 1.392 . S
C760 H730 0.951 . S
C760 C759 1.392 . S
C760 C761 1.392 . S
C761 H731 0.949 . S
C761 C756 1.382 . S
C761 C760 1.392 . S
H762 C781 0.949 . S
H763 C782 0.950 . S
H764 C784 0.950 . S
H765 C785 0.950 . S
H766 C787 0.950 . S
H767 C790 0.950 . S
H768 C791 0.950 . S
H769 C793 0.951 . S
H770 C794 0.949 . S
H771 C796 0.949 . S
H772 C797 0.950 . S
H773 C799 0.950 . S
H774 C800 0.950 . S
H775 C802 0.950 . S
H776 C805 0.950 . S
H777 C806 0.950 . S
H778 C808 0.951 . S
H779 C809 0.949 . S
C780 C781 1.376 . S
C780 C785 1.386 1_545 S
C780 C786 1.483 . S
C781 H762 0.949 . S
C781 C780 1.376 . S
C781 C782 1.397 . S
C782 H763 0.950 . S
C782 C781 1.397 . S
C782 C783 1.391 . S
C783 C782 1.391 . S
C783 C784 1.405 1_545 S
C784 H764 0.950 . S
C784 C783 1.405 1_565 S
C784 C785 1.367 . S
C785 H765 0.950 . S
C785 C780 1.386 1_565 S
C785 C784 1.367 . S
C786 C780 1.483 . S
C786 C787 1.382 . S
C786 C788 1.403 1_545 S
C787 H766 0.950 . S
C787 C786 1.382 . S
C787 C803 1.411 . S
C788 C786 1.403 1_565 S
C788 C789 1.489 . S
C788 C802 1.411 . S
C789 C788 1.489 . S
C789 C790 1.383 1_565 S
C789 C794 1.382 . S
C790 H767 0.950 . S
C790 C789 1.383 1_545 S
C790 C791 1.395 . S
C791 H768 0.950 . S
C791 C790 1.395 . S
C791 C792 1.288 1_545 S
C792 C791 1.288 1_565 S
C792 C793 1.392 . S
C793 H769 0.951 . S
C793 C792 1.392 . S
C793 C794 1.392 . S
C794 H770 0.949 . S
C794 C789 1.382 . S
C794 C793 1.392 . S
C795 C796 1.376 . S
C795 C800 1.386 1_565 S
C795 C801 1.483 . S
C796 H771 0.949 . S
C796 C795 1.376 . S
C796 C797 1.397 . S
C797 H772 0.950 . S
C797 C796 1.397 . S
C797 C798 1.391 . S
C798 C797 1.391 . S
C798 C799 1.405 1_565 S
C799 H773 0.950 . S
C799 C798 1.405 1_545 S
C799 C800 1.367 . S
C800 H774 0.950 . S
C800 C795 1.386 1_545 S
C800 C799 1.367 . S
C801 C795 1.483 . S
C801 C802 1.382 . S
C801 C803 1.403 1_565 S
C802 H775 0.950 . S
C802 C788 1.411 . S
C802 C801 1.382 . S
C803 C787 1.411 . S
C803 C801 1.403 1_545 S
C803 C804 1.489 . S
C804 C803 1.489 . S
C804 C805 1.383 1_545 S
C804 C809 1.382 . S
C805 H776 0.950 . S
C805 C804 1.383 1_565 S
C805 C806 1.395 . S
C806 H777 0.950 . S
C806 C805 1.395 . S
C806 C807 1.288 1_565 S
C807 C806 1.288 1_545 S
C807 C808 1.392 . S
C808 H778 0.951 . S
C808 C807 1.392 . S
C808 C809 1.392 . S
C809 H779 0.949 . S
C809 C804 1.382 . S
C809 C808 1.392 . S
H810 C829 0.949 . S
H811 C830 0.950 . S
H812 C832 0.950 . S
H813 C833 0.950 . S
H814 C835 0.950 . S
H815 C838 0.950 . S
H816 C839 0.950 . S
H817 C841 0.951 . S
H818 C842 0.949 . S
H819 C844 0.949 . S
H820 C845 0.950 . S
H821 C847 0.950 . S
H822 C848 0.950 . S
H823 C850 0.950 . S
H824 C853 0.950 . S
H825 C854 0.950 . S
H826 C856 0.951 . S
H827 C857 0.949 . S
C828 C829 1.383 . S
C828 C833 1.383 1_545 S
C828 C834 1.504 . S
C829 H810 0.949 . S
C829 C828 1.383 . S
C829 C830 1.397 . S
C830 H811 0.950 . S
C830 C829 1.397 . S
C830 C831 1.391 1_545 S
C831 C830 1.391 1_565 S
C831 C832 1.405 . S
C832 H812 0.950 . S
C832 C831 1.405 . S
C832 C833 1.367 . S
C833 H813 0.950 . S
C833 C828 1.383 1_565 S
C833 C832 1.367 . S
C834 C828 1.504 . S
C834 C835 1.358 . S
C834 C836 1.398 1_545 S
C835 H814 0.950 . S
C835 C834 1.358 . S
C835 C851 1.444 . S
C836 C834 1.398 1_565 S
C836 C837 1.484 . S
C836 C850 1.433 . S
C837 C836 1.484 . S
C837 C838 1.353 1_565 S
C837 C842 1.398 . S
C838 H815 0.950 . S
C838 C837 1.353 1_545 S
C838 C839 1.395 . S
C839 H816 0.950 . S
C839 C838 1.395 . S
C839 C840 1.288 . S
C840 C839 1.288 . S
C840 C841 1.392 1_545 S
C841 H817 0.951 . S
C841 C840 1.392 1_565 S
C841 C842 1.392 . S
C842 H818 0.949 . S
C842 C837 1.398 . S
C842 C841 1.392 . S
C843 C844 1.383 1_545 S
C843 C848 1.383 . S
C843 C849 1.495 1_545 S
C844 H819 0.949 . S
C844 C843 1.383 1_565 S
C844 C845 1.397 . S
C845 H820 0.950 . S
C845 C844 1.397 . S
C845 C846 1.391 1_565 S
C846 C845 1.391 1_545 S
C846 C847 1.405 . S
C847 H821 0.950 . S
C847 C846 1.405 . S
C847 C848 1.367 . S
C848 H822 0.950 . S
C848 C843 1.383 . S
C848 C847 1.367 . S
C849 C843 1.495 1_565 S
C849 C850 1.366 . S
C849 C851 1.398 1_565 S
C850 H823 0.950 . S
C850 C836 1.433 . S
C850 C849 1.366 . S
C851 C835 1.444 . S
C851 C849 1.398 1_545 S
C851 C852 1.484 . S
C852 C851 1.484 . S
C852 C853 1.332 1_545 S
C852 C857 1.410 . S
C853 H824 0.950 . S
C853 C852 1.332 1_565 S
C853 C854 1.395 . S
C854 H825 0.950 . S
C854 C853 1.395 . S
C854 C855 1.330 . S
C855 C854 1.330 . S
C855 C856 1.311 1_565 S
C856 H826 0.951 . S
C856 C855 1.311 1_545 S
C856 C857 1.392 . S
C857 H827 0.949 . S
C857 C852 1.410 . S
C857 C856 1.392 . S
H858 C877 0.949 . S
H859 C878 0.950 . S
H860 C880 0.950 . S
H861 C881 0.950 . S
H862 C883 0.950 . S
H863 C886 0.950 . S
H864 C887 0.950 . S
H865 C889 0.951 . S
H866 C890 0.949 . S
H867 C892 0.949 . S
H868 C893 0.950 . S
H869 C895 0.950 . S
H870 C896 0.950 . S
H871 C898 0.950 . S
H872 C901 0.950 . S
H873 C902 0.950 . S
H874 C904 0.951 . S
H875 C905 0.949 . S
C876 C877 1.376 . S
C876 C881 1.386 1_455 S
C876 C882 1.483 . S
C877 H858 0.949 . S
C877 C876 1.376 . S
C877 C878 1.397 . S
C878 H859 0.950 . S
C878 C877 1.397 . S
C878 C879 1.391 . S
C879 C878 1.391 . S
C879 C880 1.405 1_455 S
C880 H860 0.950 . S
C880 C879 1.405 1_655 S
C880 C881 1.367 . S
C881 H861 0.950 . S
C881 C876 1.386 1_655 S
C881 C880 1.367 . S
C882 C876 1.483 . S
C882 C883 1.382 . S
C882 C884 1.403 1_455 S
C883 H862 0.950 . S
C883 C882 1.382 . S
C883 C899 1.411 . S
C884 C882 1.403 1_655 S
C884 C885 1.489 . S
C884 C898 1.411 . S
C885 C884 1.489 . S
C885 C886 1.383 1_655 S
C885 C890 1.382 . S
C886 H863 0.950 . S
C886 C885 1.383 1_455 S
C886 C887 1.395 . S
C887 H864 0.950 . S
C887 C886 1.395 . S
C887 C888 1.288 1_455 S
C888 C887 1.288 1_655 S
C888 C889 1.392 . S
C889 H865 0.951 . S
C889 C888 1.392 . S
C889 C890 1.392 . S
C890 H866 0.949 . S
C890 C885 1.382 . S
C890 C889 1.392 . S
C891 C892 1.376 . S
C891 C896 1.386 1_655 S
C891 C897 1.483 . S
C892 H867 0.949 . S
C892 C891 1.376 . S
C892 C893 1.397 . S
C893 H868 0.950 . S
C893 C892 1.397 . S
C893 C894 1.391 . S
C894 C893 1.391 . S
C894 C895 1.405 1_655 S
C895 H869 0.950 . S
C895 C894 1.405 1_455 S
C895 C896 1.367 . S
C896 H870 0.950 . S
C896 C891 1.386 1_455 S
C896 C895 1.367 . S
C897 C891 1.483 . S
C897 C898 1.382 . S
C897 C899 1.403 1_655 S
C898 H871 0.950 . S
C898 C884 1.411 . S
C898 C897 1.382 . S
C899 C883 1.411 . S
C899 C897 1.403 1_455 S
C899 C900 1.489 . S
C900 C899 1.489 . S
C900 C901 1.383 1_455 S
C900 C905 1.382 . S
C901 H872 0.950 . S
C901 C900 1.383 1_655 S
C901 C902 1.395 . S
C902 H873 0.950 . S
C902 C901 1.395 . S
C902 C903 1.288 1_655 S
C903 C902 1.288 1_455 S
C903 C904 1.392 . S
C904 H874 0.951 . S
C904 C903 1.392 . S
C904 C905 1.392 . S
C905 H875 0.949 . S
C905 C900 1.382 . S
C905 C904 1.392 . S
H906 C925 0.949 . S
H907 C926 0.950 . S
H908 C928 0.950 . S
H909 C929 0.950 . S
H910 C931 0.950 . S
H911 C934 0.950 . S
H912 C935 0.950 . S
H913 C937 0.951 . S
H914 C938 0.949 . S
H915 C940 0.949 . S
H916 C941 0.950 . S
H917 C943 0.950 . S
H918 C944 0.950 . S
H919 C946 0.950 . S
H920 C949 0.950 . S
H921 C950 0.950 . S
H922 C952 0.951 . S
H923 C953 0.949 . S
C924 C925 1.376 . S
C924 C929 1.386 . S
C924 C930 1.483 . S
C925 H906 0.949 . S
C925 C924 1.376 . S
C925 C926 1.397 . S
C926 H907 0.950 . S
C926 C925 1.397 . S
C926 C927 1.391 . S
C927 C926 1.391 . S
C927 C928 1.405 . S
C928 H908 0.950 . S
C928 C927 1.405 . S
C928 C929 1.367 . S
C929 H909 0.950 . S
C929 C924 1.386 . S
C929 C928 1.367 . S
C930 C924 1.483 . S
C930 C931 1.382 . S
C930 C932 1.403 . S
C931 H910 0.950 . S
C931 C930 1.382 . S
C931 C947 1.411 . S
C932 C930 1.403 . S
C932 C933 1.489 . S
C932 C946 1.411 . S
C933 C932 1.489 . S
C933 C934 1.383 . S
C933 C938 1.382 . S
C934 H911 0.950 . S
C934 C933 1.383 . S
C934 C935 1.395 . S
C935 H912 0.950 . S
C935 C934 1.395 . S
C935 C936 1.288 . S
C936 C935 1.288 . S
C936 C937 1.392 . S
C937 H913 0.951 . S
C937 C936 1.392 . S
C937 C938 1.392 . S
C938 H914 0.949 . S
C938 C933 1.382 . S
C938 C937 1.392 . S
C939 C940 1.376 . S
C939 C944 1.386 . S
C939 C945 1.483 . S
C940 H915 0.949 . S
C940 C939 1.376 . S
C940 C941 1.397 . S
C941 H916 0.950 . S
C941 C940 1.397 . S
C941 C942 1.391 . S
C942 C941 1.391 . S
C942 C943 1.405 . S
C943 H917 0.950 . S
C943 C942 1.405 . S
C943 C944 1.367 . S
C944 H918 0.950 . S
C944 C939 1.386 . S
C944 C943 1.367 . S
C945 C939 1.483 . S
C945 C946 1.382 . S
C945 C947 1.403 . S
C946 H919 0.950 . S
C946 C932 1.411 . S
C946 C945 1.382 . S
C947 C931 1.411 . S
C947 C945 1.403 . S
C947 C948 1.489 . S
C948 C947 1.489 . S
C948 C949 1.383 . S
C948 C953 1.382 . S
C949 H920 0.950 . S
C949 C948 1.383 . S
C949 C950 1.395 . S
C950 H921 0.950 . S
C950 C949 1.395 . S
C950 C951 1.288 . S
C951 C950 1.288 . S
C951 C952 1.392 . S
C952 H922 0.951 . S
C952 C951 1.392 . S
C952 C953 1.392 . S
C953 H923 0.949 . S
C953 C948 1.382 . S
C953 C952 1.392 . S
H954 C973 0.949 . S
H955 C974 0.950 . S
H956 C976 0.950 . S
H957 C977 0.950 . S
H958 C979 0.950 . S
H959 C982 0.950 . S
H960 C983 0.950 . S
H961 C985 0.951 . S
H962 C986 0.949 . S
H963 C988 0.949 . S
H964 C989 0.950 . S
H965 C991 0.950 . S
H966 C992 0.950 . S
H967 C994 0.950 . S
H968 C997 0.950 . S
H969 C998 0.950 . S
H970 C1000 0.951 . S
H971 C1001 0.949 . S
C972 C973 1.376 . S
C972 C977 1.386 . S
C972 C978 1.483 . S
C973 H954 0.949 . S
C973 C972 1.376 . S
C973 C974 1.397 . S
C974 H955 0.950 . S
C974 C973 1.397 . S
C974 C975 1.391 . S
C975 C974 1.391 . S
C975 C976 1.405 . S
C976 H956 0.950 . S
C976 C975 1.405 . S
C976 C977 1.367 . S
C977 H957 0.950 . S
C977 C972 1.386 . S
C977 C976 1.367 . S
C978 C972 1.483 . S
C978 C979 1.382 . S
C978 C980 1.403 . S
C979 H958 0.950 . S
C979 C978 1.382 . S
C979 C995 1.411 . S
C980 C978 1.403 . S
C980 C981 1.489 . S
C980 C994 1.411 . S
C981 C980 1.489 . S
C981 C982 1.383 . S
C981 C986 1.382 . S
C982 H959 0.950 . S
C982 C981 1.383 . S
C982 C983 1.395 . S
C983 H960 0.950 . S
C983 C982 1.395 . S
C983 C984 1.288 . S
C984 C983 1.288 . S
C984 C985 1.392 . S
C985 H961 0.951 . S
C985 C984 1.392 . S
C985 C986 1.392 . S
C986 H962 0.949 . S
C986 C981 1.382 . S
C986 C985 1.392 . S
C987 C988 1.376 . S
C987 C992 1.386 . S
C987 C993 1.483 . S
C988 H963 0.949 . S
C988 C987 1.376 . S
C988 C989 1.397 . S
C989 H964 0.950 . S
C989 C988 1.397 . S
C989 C990 1.391 . S
C990 C989 1.391 . S
C990 C991 1.405 . S
C991 H965 0.950 . S
C991 C990 1.405 . S
C991 C992 1.367 . S
C992 H966 0.950 . S
C992 C987 1.386 . S
C992 C991 1.367 . S
C993 C987 1.483 . S
C993 C994 1.382 . S
C993 C995 1.403 . S
C994 H967 0.950 . S
C994 C980 1.411 . S
C994 C993 1.382 . S
C995 C979 1.411 . S
C995 C993 1.403 . S
C995 C996 1.489 . S
C996 C995 1.489 . S
C996 C997 1.383 . S
C996 C1001 1.382 . S
C997 H968 0.950 . S
C997 C996 1.383 . S
C997 C998 1.395 . S
C998 H969 0.950 . S
C998 C997 1.395 . S
C998 C999 1.288 . S
C999 C998 1.288 . S
C999 C1000 1.392 . S
C1000 H970 0.951 . S
C1000 C999 1.392 . S
C1000 C1001 1.392 . S
C1001 H971 0.949 . S
C1001 C996 1.382 . S
C1001 C1000 1.392 . S
H1002 C1021 0.949 . S
H1003 C1022 0.950 . S
H1004 C1024 0.950 . S
H1005 C1025 0.950 . S
H1006 C1027 0.950 . S
H1007 C1030 0.950 . S
H1008 C1031 0.950 . S
H1009 C1033 0.951 . S
H1010 C1034 0.949 . S
H1011 C1036 0.949 . S
H1012 C1037 0.950 . S
H1013 C1039 0.950 . S
H1014 C1040 0.950 . S
H1015 C1042 0.950 . S
H1016 C1045 0.950 . S
H1017 C1046 0.950 . S
H1018 C1048 0.951 . S
H1019 C1049 0.949 . S
C1020 C1021 1.376 . S
C1020 C1025 1.386 . S
C1020 C1026 1.483 . S
C1021 H1002 0.949 . S
C1021 C1020 1.376 . S
C1021 C1022 1.397 . S
C1022 H1003 0.950 . S
C1022 C1021 1.397 . S
C1022 C1023 1.391 . S
C1023 C1022 1.391 . S
C1023 C1024 1.405 . S
C1024 H1004 0.950 . S
C1024 C1023 1.405 . S
C1024 C1025 1.367 . S
C1025 H1005 0.950 . S
C1025 C1020 1.386 . S
C1025 C1024 1.367 . S
C1026 C1020 1.483 . S
C1026 C1027 1.382 . S
C1026 C1028 1.403 . S
C1027 H1006 0.950 . S
C1027 C1026 1.382 . S
C1027 C1043 1.411 . S
C1028 C1026 1.403 . S
C1028 C1029 1.489 . S
C1028 C1042 1.411 . S
C1029 C1028 1.489 . S
C1029 C1030 1.383 . S
C1029 C1034 1.382 . S
C1030 H1007 0.950 . S
C1030 C1029 1.383 . S
C1030 C1031 1.395 . S
C1031 H1008 0.950 . S
C1031 C1030 1.395 . S
C1031 C1032 1.288 . S
C1032 C1031 1.288 . S
C1032 C1033 1.392 . S
C1033 H1009 0.951 . S
C1033 C1032 1.392 . S
C1033 C1034 1.392 . S
C1034 H1010 0.949 . S
C1034 C1029 1.382 . S
C1034 C1033 1.392 . S
C1035 C1036 1.376 . S
C1035 C1040 1.386 . S
C1035 C1041 1.483 . S
C1036 H1011 0.949 . S
C1036 C1035 1.376 . S
C1036 C1037 1.397 . S
C1037 H1012 0.950 . S
C1037 C1036 1.397 . S
C1037 C1038 1.391 . S
C1038 C1037 1.391 . S
C1038 C1039 1.405 . S
C1039 H1013 0.950 . S
C1039 C1038 1.405 . S
C1039 C1040 1.367 . S
C1040 H1014 0.950 . S
C1040 C1035 1.386 . S
C1040 C1039 1.367 . S
C1041 C1035 1.483 . S
C1041 C1042 1.382 . S
C1041 C1043 1.403 . S
C1042 H1015 0.950 . S
C1042 C1028 1.411 . S
C1042 C1041 1.382 . S
C1043 C1027 1.411 . S
C1043 C1041 1.403 . S
C1043 C1044 1.489 . S
C1044 C1043 1.489 . S
C1044 C1045 1.383 . S
C1044 C1049 1.382 . S
C1045 H1016 0.950 . S
C1045 C1044 1.383 . S
C1045 C1046 1.395 . S
C1046 H1017 0.950 . S
C1046 C1045 1.395 . S
C1046 C1047 1.288 . S
C1047 C1046 1.288 . S
C1047 C1048 1.392 . S
C1048 H1018 0.951 . S
C1048 C1047 1.392 . S
C1048 C1049 1.392 . S
C1049 H1019 0.949 . S
C1049 C1044 1.382 . S
C1049 C1048 1.392 . S
H1050 C1069 0.949 . S
H1051 C1070 0.950 . S
H1052 C1072 0.950 . S
H1053 C1073 0.950 . S
H1054 C1075 0.950 . S
H1055 C1078 0.950 . S
H1056 C1079 0.950 . S
H1057 C1081 0.951 . S
H1058 C1082 0.949 . S
H1059 C1084 0.949 . S
H1060 C1085 0.950 . S
H1061 C1087 0.950 . S
H1062 C1088 0.950 . S
H1063 C1090 0.950 . S
H1064 C1093 0.950 . S
H1065 C1094 0.950 . S
H1066 C1096 0.951 . S
H1067 C1097 0.949 . S
C1068 C1069 1.376 . S
C1068 C1073 1.386 . S
C1068 C1074 1.483 . S
C1069 H1050 0.949 . S
C1069 C1068 1.376 . S
C1069 C1070 1.397 . S
C1070 H1051 0.950 . S
C1070 C1069 1.397 . S
C1070 C1071 1.391 . S
C1071 C1070 1.391 . S
C1071 C1072 1.405 . S
C1072 H1052 0.950 . S
C1072 C1071 1.405 . S
C1072 C1073 1.367 . S
C1073 H1053 0.950 . S
C1073 C1068 1.386 . S
C1073 C1072 1.367 . S
C1074 C1068 1.483 . S
C1074 C1075 1.382 . S
C1074 C1076 1.403 . S
C1075 H1054 0.950 . S
C1075 C1074 1.382 . S
C1075 C1091 1.411 . S
C1076 C1074 1.403 . S
C1076 C1077 1.489 . S
C1076 C1090 1.411 . S
C1077 C1076 1.489 . S
C1077 C1078 1.383 . S
C1077 C1082 1.382 . S
C1078 H1055 0.950 . S
C1078 C1077 1.383 . S
C1078 C1079 1.395 . S
C1079 H1056 0.950 . S
C1079 C1078 1.395 . S
C1079 C1080 1.288 . S
C1080 C1079 1.288 . S
C1080 C1081 1.392 . S
C1081 H1057 0.951 . S
C1081 C1080 1.392 . S
C1081 C1082 1.392 . S
C1082 H1058 0.949 . S
C1082 C1077 1.382 . S
C1082 C1081 1.392 . S
C1083 C1084 1.376 . S
C1083 C1088 1.386 . S
C1083 C1089 1.483 . S
C1084 H1059 0.949 . S
C1084 C1083 1.376 . S
C1084 C1085 1.397 . S
C1085 H1060 0.950 . S
C1085 C1084 1.397 . S
C1085 C1086 1.391 . S
C1086 C1085 1.391 . S
C1086 C1087 1.405 . S
C1087 H1061 0.950 . S
C1087 C1086 1.405 . S
C1087 C1088 1.367 . S
C1088 H1062 0.950 . S
C1088 C1083 1.386 . S
C1088 C1087 1.367 . S
C1089 C1083 1.483 . S
C1089 C1090 1.382 . S
C1089 C1091 1.403 . S
C1090 H1063 0.950 . S
C1090 C1076 1.411 . S
C1090 C1089 1.382 . S
C1091 C1075 1.411 . S
C1091 C1089 1.403 . S
C1091 C1092 1.489 . S
C1092 C1091 1.489 . S
C1092 C1093 1.383 . S
C1092 C1097 1.382 . S
C1093 H1064 0.950 . S
C1093 C1092 1.383 . S
C1093 C1094 1.395 . S
C1094 H1065 0.950 . S
C1094 C1093 1.395 . S
C1094 C1095 1.288 . S
C1095 C1094 1.288 . S
C1095 C1096 1.392 . S
C1096 H1066 0.951 . S
C1096 C1095 1.392 . S
C1096 C1097 1.392 . S
C1097 H1067 0.949 . S
C1097 C1092 1.382 . S
C1097 C1096 1.392 . S
H1098 C1106 0.929 . S
H1099 C1108 0.930 . S
H1100 C1110 0.930 . S
H1101 C1113 0.929 . S
H1102 C1116 0.930 . S
H1103 C1118 0.960 . S
H1104 C1118 0.960 . S
H1105 C1118 0.960 . S
C1106 H1098 0.929 . S
C1106 C1107 1.375 . S
C1106 C1108 1.384 . S
C1107 C1106 1.375 . S
C1107 C1113 1.385 1_455 S
C1108 H1099 0.930 . S
C1108 C1106 1.384 . S
C1108 C1109 1.374 1_455 S
C1109 C1108 1.374 1_655 S
C1109 C1110 1.401 . S
C1109 C1114 1.465 . S
C1110 H1100 0.930 . S
C1110 C1109 1.401 . S
C1110 C1113 1.386 . S
H1111 C1127 0.930 . S
H1112 C1128 0.931 . S
C1113 H1101 0.929 . S
C1113 C1107 1.385 1_655 S
C1113 C1110 1.386 . S
C1114 C1109 1.465 . S
C1114 C1116 1.446 . S
C1114 C1117 1.377 1_655 S
H1115 C1121 0.930 . S
C1116 H1102 0.930 . S
C1116 C1114 1.446 . S
C1116 C1119 1.403 . S
C1117 C1114 1.377 1_455 S
C1117 C1118 1.524 . S
C1117 C1121 1.400 . S
C1118 H1103 0.960 . S
C1118 H1104 0.960 . S
C1118 H1105 0.960 . S
C1118 C1117 1.524 . S
C1119 C1116 1.403 . S
C1119 C1120 1.392 . S
C1119 C1123 1.495 . S
C1120 C1119 1.392 . S
C1120 C1121 1.385 1_655 S
C1120 C1122 1.478 . S
C1121 H1115 0.930 . S
C1121 C1117 1.400 . S
C1121 C1120 1.385 1_455 S
C1122 C1120 1.478 . S
C1122 C1124 1.381 1_655 S
C1122 C1128 1.383 . S
C1123 C1119 1.495 . S
C1123 H1129 0.959 . S
C1123 H1130 0.961 . S
C1123 H1131 0.960 . S
C1124 C1122 1.381 1_455 S
C1124 C1125 1.394 . S
C1124 H1132 0.930 . S
C1125 C1124 1.394 . S
C1125 C1126 1.383 1_455 S
C1125 H1133 0.929 . S
C1126 C1125 1.383 1_655 S
C1126 C1127 1.377 . S
C1127 H1111 0.930 . S
C1127 C1126 1.377 . S
C1127 C1128 1.379 . S
C1128 H1112 0.931 . S
C1128 C1122 1.383 . S
C1128 C1127 1.379 . S
H1129 C1123 0.959 . S
H1130 C1123 0.961 . S
H1131 C1123 0.960 . S
H1132 C1124 0.930 . S
H1133 C1125 0.929 . S
H1134 C1142 0.929 . S
H1135 C1144 0.930 . S
H1136 C1146 0.930 . S
H1137 C1149 0.929 . S
H1138 C1152 0.930 . S
H1139 C1154 0.960 . S
H1140 C1154 0.960 . S
H1141 C1154 0.960 . S
C1142 H1134 0.929 . S
C1142 C1143 1.377 . S
C1142 C1144 1.384 . S
C1143 C1142 1.377 . S
C1143 C1149 1.390 . S
C1144 H1135 0.930 . S
C1144 C1142 1.384 . S
C1144 C1145 1.372 . S
C1145 C1144 1.372 . S
C1145 C1146 1.400 . S
C1145 C1150 1.490 . S
C1146 H1136 0.930 . S
C1146 C1145 1.400 . S
C1146 C1149 1.386 . S
H1147 C1163 0.930 . S
H1148 C1164 0.931 . S
C1149 H1137 0.929 . S
C1149 C1143 1.390 . S
C1149 C1146 1.386 . S
C1150 C1145 1.490 . S
C1150 C1152 1.395 . S
C1150 C1153 1.403 . S
H1151 C1157 0.930 . S
C1152 H1138 0.930 . S
C1152 C1150 1.395 . S
C1152 C1155 1.403 . S
C1153 C1150 1.403 . S
C1153 C1154 1.524 . S
C1153 C1157 1.400 . S
C1154 H1139 0.960 . S
C1154 H1140 0.960 . S
C1154 H1141 0.960 . S
C1154 C1153 1.524 . S
C1155 C1152 1.403 . S
C1155 C1156 1.392 . S
C1155 C1159 1.495 . S
C1156 C1155 1.392 . S
C1156 C1157 1.385 . S
C1156 C1158 1.478 . S
C1157 H1151 0.930 . S
C1157 C1153 1.400 . S
C1157 C1156 1.385 . S
C1158 C1156 1.478 . S
C1158 C1160 1.381 . S
C1158 C1164 1.383 . S
C1159 C1155 1.495 . S
C1159 H1165 0.959 . S
C1159 H1166 0.961 . S
C1159 H1167 0.960 . S
C1160 C1158 1.381 . S
C1160 C1161 1.394 . S
C1160 H1168 0.930 . S
C1161 C1160 1.394 . S
C1161 C1162 1.383 . S
C1161 H1169 0.929 . S
C1162 C1161 1.383 . S
C1162 C1163 1.377 . S
C1163 H1147 0.930 . S
C1163 C1162 1.377 . S
C1163 C1164 1.379 . S
C1164 H1148 0.931 . S
C1164 C1158 1.383 . S
C1164 C1163 1.379 . S
H1165 C1159 0.959 . S
H1166 C1159 0.961 . S
H1167 C1159 0.960 . S
H1168 C1160 0.930 . S
H1169 C1161 0.929 . S
H1170 C1178 0.929 . S
H1171 C1180 0.930 . S
H1172 C1182 0.930 . S
H1173 C1185 0.929 . S
H1174 C1188 0.930 . S
H1175 C1190 0.960 . S
H1176 C1190 0.960 1_545 S
H1177 C1190 0.960 . S
C1178 H1170 0.929 . S
C1178 C1179 1.377 . S
C1178 C1180 1.384 . S
C1179 C1178 1.377 . S
C1179 C1185 1.390 1_545 S
C1180 H1171 0.930 . S
C1180 C1178 1.384 . S
C1180 C1181 1.372 . S
C1181 C1180 1.372 . S
C1181 C1182 1.400 1_545 S
C1181 C1186 1.490 . S
C1182 H1172 0.930 . S
C1182 C1181 1.400 1_565 S
C1182 C1185 1.386 . S
H1183 C1199 0.930 . S
H1184 C1200 0.931 . S
C1185 H1173 0.929 . S
C1185 C1179 1.390 1_565 S
C1185 C1182 1.386 . S
C1186 C1181 1.490 . S
C1186 C1188 1.395 . S
C1186 C1189 1.367 1_545 S
H1187 C1193 0.950 . S
C1188 H1174 0.930 . S
C1188 C1186 1.395 . S
C1188 C1191 1.403 . S
C1189 C1186 1.367 1_565 S
C1189 C1190 1.544 . S
C1189 C1193 1.408 . S
C1190 H1175 0.960 . S
C1190 H1176 0.960 1_565 S
C1190 H1177 0.960 . S
C1190 C1189 1.544 . S
C1191 C1188 1.403 . S
C1191 C1192 1.392 . S
C1191 C1195 1.495 . S
C1192 C1191 1.392 . S
C1192 C1193 1.375 1_545 S
C1192 C1194 1.478 . S
C1193 H1187 0.950 . S
C1193 C1189 1.408 . S
C1193 C1192 1.375 1_565 S
C1194 C1192 1.478 . S
C1194 C1196 1.381 . S
C1194 C1200 1.383 1_545 S
C1195 C1191 1.495 . S
C1195 H1201 0.959 . S
C1195 H1202 0.961 . S
C1195 H1203 0.960 . S
C1196 C1194 1.381 . S
C1196 C1197 1.394 . S
C1196 H1204 0.930 . S
C1197 C1196 1.394 . S
C1197 C1198 1.383 . S
C1197 H1205 0.929 . S
C1198 C1197 1.383 . S
C1198 C1199 1.377 1_545 S
C1199 H1183 0.930 . S
C1199 C1198 1.377 1_565 S
C1199 C1200 1.379 . S
C1200 H1184 0.931 . S
C1200 C1194 1.383 1_565 S
C1200 C1199 1.379 . S
H1201 C1195 0.959 . S
H1202 C1195 0.961 . S
H1203 C1195 0.960 . S
H1204 C1196 0.930 . S
H1205 C1197 0.929 . S
H1206 C1214 0.929 . S
H1207 C1216 0.930 . S
H1208 C1218 0.930 . S
H1209 C1221 0.929 . S
H1210 C1224 0.930 . S
H1211 C1226 0.960 . S
H1212 C1226 0.960 . S
H1213 C1226 0.960 . S
C1214 H1206 0.929 . S
C1214 C1215 1.372 1_565 S
C1214 C1216 1.384 . S
C1215 C1214 1.372 1_545 S
C1215 C1221 1.393 . S
C1216 H1207 0.930 . S
C1216 C1214 1.384 . S
C1216 C1217 1.372 . S
C1217 C1216 1.372 . S
C1217 C1218 1.400 1_565 S
C1217 C1222 1.490 . S
C1218 H1208 0.930 . S
C1218 C1217 1.400 1_545 S
C1218 C1221 1.386 . S
H1219 C1235 0.930 . S
H1220 C1236 0.931 . S
C1221 H1209 0.929 . S
C1221 C1215 1.393 . S
C1221 C1218 1.386 . S
C1222 C1217 1.490 . S
C1222 C1224 1.395 . S
C1222 C1225 1.403 1_565 S
H1223 C1229 0.930 . S
C1224 H1210 0.930 . S
C1224 C1222 1.395 . S
C1224 C1227 1.403 . S
C1225 C1222 1.403 1_545 S
C1225 C1226 1.524 . S
C1225 C1229 1.400 . S
C1226 H1211 0.960 . S
C1226 H1212 0.960 . S
C1226 H1213 0.960 . S
C1226 C1225 1.524 . S
C1227 C1224 1.403 . S
C1227 C1228 1.392 . S
C1227 C1231 1.495 . S
C1228 C1227 1.392 . S
C1228 C1229 1.385 1_565 S
C1228 C1230 1.478 . S
C1229 H1223 0.930 . S
C1229 C1225 1.400 . S
C1229 C1228 1.385 1_545 S
C1230 C1228 1.478 . S
C1230 C1232 1.381 . S
C1230 C1236 1.383 1_565 S
C1231 C1227 1.495 . S
C1231 H1237 0.959 . S
C1231 H1238 0.961 . S
C1231 H1239 0.960 . S
C1232 C1230 1.381 . S
C1232 C1233 1.394 . S
C1232 H1240 0.930 . S
C1233 C1232 1.394 . S
C1233 C1234 1.383 . S
C1233 H1241 0.929 . S
C1234 C1233 1.383 . S
C1234 C1235 1.377 1_565 S
C1235 H1219 0.930 . S
C1235 C1234 1.377 1_545 S
C1235 C1236 1.379 . S
C1236 H1220 0.931 . S
C1236 C1230 1.383 1_545 S
C1236 C1235 1.379 . S
H1237 C1231 0.959 . S
H1238 C1231 0.961 . S
H1239 C1231 0.960 . S
H1240 C1232 0.930 . S
H1241 C1233 0.929 . S
H1242 C1250 0.929 . S
H1243 C1252 0.930 . S
H1244 C1254 0.930 . S
H1245 C1257 0.929 . S
H1246 C1260 0.930 . S
H1247 C1262 0.960 . S
H1248 C1262 0.960 . S
H1249 C1262 0.960 . S
C1250 H1242 0.929 . S
C1250 C1251 1.321 1_655 S
C1250 C1252 1.384 . S
C1251 C1250 1.321 1_455 S
C1251 C1257 1.425 . S
C1252 H1243 0.930 . S
C1252 C1250 1.384 . S
C1252 C1253 1.340 1_655 S
C1253 C1252 1.340 1_455 S
C1253 C1254 1.455 . S
C1253 C1258 1.470 . S
C1254 H1244 0.930 . S
C1254 C1253 1.455 . S
C1254 C1257 1.386 . S
H1255 C1271 0.930 . S
H1256 C1272 0.931 . S
C1257 H1245 0.929 . S
C1257 C1251 1.425 . S
C1257 C1254 1.386 . S
C1258 C1253 1.470 . S
C1258 C1260 1.395 . S
C1258 C1261 1.403 1_455 S
H1259 C1265 0.930 . S
C1260 H1246 0.930 . S
C1260 C1258 1.395 . S
C1260 C1263 1.403 . S
C1261 C1258 1.403 1_655 S
C1261 C1262 1.524 . S
C1261 C1265 1.400 . S
C1262 H1247 0.960 . S
C1262 H1248 0.960 . S
C1262 H1249 0.960 . S
C1262 C1261 1.524 . S
C1263 C1260 1.403 . S
C1263 C1264 1.392 . S
C1263 C1267 1.495 . S
C1264 C1263 1.392 . S
C1264 C1265 1.385 1_455 S
C1264 C1266 1.478 . S
C1265 H1259 0.930 . S
C1265 C1261 1.400 . S
C1265 C1264 1.385 1_655 S
C1266 C1264 1.478 . S
C1266 C1268 1.381 1_455 S
C1266 C1272 1.383 . S
C1267 C1263 1.495 . S
C1267 H1273 0.959 . S
C1267 H1274 0.961 . S
C1267 H1275 0.960 . S
C1268 C1266 1.381 1_655 S
C1268 C1269 1.394 . S
C1268 H1276 0.930 . S
C1269 C1268 1.394 . S
C1269 C1270 1.383 1_655 S
C1269 H1277 0.929 . S
C1270 C1269 1.383 1_455 S
C1270 C1271 1.377 . S
C1271 H1255 0.930 . S
C1271 C1270 1.377 . S
C1271 C1272 1.379 . S
C1272 H1256 0.931 . S
C1272 C1266 1.383 . S
C1272 C1271 1.379 . S
H1273 C1267 0.959 . S
H1274 C1267 0.961 . S
H1275 C1267 0.960 . S
H1276 C1268 0.930 . S
H1277 C1269 0.929 . S
H1278 C1286 0.929 . S
H1279 C1288 0.930 . S
H1280 C1290 0.930 . S
H1281 C1293 0.929 . S
H1282 C1296 0.930 . S
H1283 C1298 0.960 . S
H1284 C1298 0.960 . S
H1285 C1298 0.960 . S
C1286 H1278 0.929 . S
C1286 C1287 1.377 . S
C1286 C1288 1.384 . S
C1287 C1286 1.377 . S
C1287 C1293 1.390 . S
C1288 H1279 0.930 . S
C1288 C1286 1.384 . S
C1288 C1289 1.372 . S
C1289 C1288 1.372 . S
C1289 C1290 1.400 . S
C1289 C1294 1.490 . S
C1290 H1280 0.930 . S
C1290 C1289 1.400 . S
C1290 C1293 1.386 . S
H1291 C1307 0.930 . S
H1292 C1308 0.931 . S
C1293 H1281 0.929 . S
C1293 C1287 1.390 . S
C1293 C1290 1.386 . S
C1294 C1289 1.490 . S
C1294 C1296 1.395 . S
C1294 C1297 1.403 . S
H1295 C1301 0.930 . S
C1296 H1282 0.930 . S
C1296 C1294 1.395 . S
C1296 C1299 1.403 . S
C1297 C1294 1.403 . S
C1297 C1298 1.524 . S
C1297 C1301 1.400 . S
C1298 H1283 0.960 . S
C1298 H1284 0.960 . S
C1298 H1285 0.960 . S
C1298 C1297 1.524 . S
C1299 C1296 1.403 . S
C1299 C1300 1.392 . S
C1299 C1303 1.495 . S
C1300 C1299 1.392 . S
C1300 C1301 1.385 . S
C1300 C1302 1.478 . S
C1301 H1295 0.930 . S
C1301 C1297 1.400 . S
C1301 C1300 1.385 . S
C1302 C1300 1.478 . S
C1302 C1304 1.381 . S
C1302 C1308 1.383 . S
C1303 C1299 1.495 . S
C1303 H1309 0.959 . S
C1303 H1310 0.961 . S
C1303 H1311 0.960 . S
C1304 C1302 1.381 . S
C1304 C1305 1.394 . S
C1304 H1312 0.930 . S
C1305 C1304 1.394 . S
C1305 C1306 1.383 . S
C1305 H1313 0.929 . S
C1306 C1305 1.383 . S
C1306 C1307 1.377 . S
C1307 H1291 0.930 . S
C1307 C1306 1.377 . S
C1307 C1308 1.379 . S
C1308 H1292 0.931 . S
C1308 C1302 1.383 . S
C1308 C1307 1.379 . S
H1309 C1303 0.959 . S
H1310 C1303 0.961 . S
H1311 C1303 0.960 . S
H1312 C1304 0.930 . S
H1313 C1305 0.929 . S
H1314 C1322 0.929 . S
H1315 C1324 0.930 . S
H1316 C1326 0.930 . S
H1317 C1329 0.929 . S
H1318 C1332 0.930 . S
H1319 C1334 0.960 . S
H1320 C1334 0.960 . S
H1321 C1334 0.960 . S
C1322 H1314 0.929 . S
C1322 C1323 1.373 1_655 S
C1322 C1324 1.384 . S
C1323 C1322 1.373 1_455 S
C1323 C1329 1.418 . S
C1324 H1315 0.930 . S
C1324 C1322 1.384 . S
C1324 C1325 1.347 1_655 S
C1325 C1324 1.347 1_455 S
C1325 C1326 1.407 . S
C1325 C1330 1.500 . S
C1326 H1316 0.930 . S
C1326 C1325 1.407 . S
C1326 C1329 1.386 . S
H1327 C1343 0.930 . S
H1328 C1344 0.931 . S
C1329 H1317 0.929 . S
C1329 C1323 1.418 . S
C1329 C1326 1.386 . S
C1330 C1325 1.500 . S
C1330 C1332 1.378 1_455 S
C1330 C1333 1.428 . S
H1331 C1337 0.930 . S
C1332 H1318 0.930 . S
C1332 C1330 1.378 1_655 S
C1332 C1335 1.403 . S
C1333 C1330 1.428 . S
C1333 C1334 1.524 . S
C1333 C1337 1.400 . S
C1334 H1319 0.960 . S
C1334 H1320 0.960 . S
C1334 H1321 0.960 . S
C1334 C1333 1.524 . S
C1335 C1332 1.403 . S
C1335 C1336 1.392 . S
C1335 C1339 1.495 . S
C1336 C1335 1.392 . S
C1336 C1337 1.385 1_655 S
C1336 C1338 1.510 . S
C1337 H1331 0.930 . S
C1337 C1333 1.400 . S
C1337 C1336 1.385 1_455 S
C1338 C1336 1.510 . S
C1338 C1340 1.382 . S
C1338 C1344 1.351 1_655 S
C1339 C1335 1.495 . S
C1339 H1345 0.959 . S
C1339 H1346 0.961 . S
C1339 H1347 0.960 . S
C1340 C1338 1.382 . S
C1340 C1341 1.394 . S
C1340 H1348 0.930 . S
C1341 C1340 1.394 . S
C1341 C1342 1.383 1_655 S
C1341 H1349 0.929 . S
C1342 C1341 1.383 1_455 S
C1342 C1343 1.377 . S
C1343 H1327 0.930 . S
C1343 C1342 1.377 . S
C1343 C1344 1.379 . S
C1344 H1328 0.931 . S
C1344 C1338 1.351 1_455 S
C1344 C1343 1.379 . S
H1345 C1339 0.959 . S
H1346 C1339 0.961 . S
H1347 C1339 0.960 . S
H1348 C1340 0.930 . S
H1349 C1341 0.929 . S
H1350 C1358 0.929 . S
H1351 C1360 0.930 . S
H1352 C1362 0.930 . S
H1353 C1365 0.929 . S
H1354 C1368 0.930 . S
H1355 C1370 0.960 . S
H1356 C1370 0.960 . S
H1357 C1370 0.960 . S
C1358 H1350 0.929 . S
C1358 C1359 1.377 . S
C1358 C1360 1.384 . S
C1359 C1358 1.377 . S
C1359 C1365 1.390 . S
C1360 H1351 0.930 . S
C1360 C1358 1.384 . S
C1360 C1361 1.372 . S
C1361 C1360 1.372 . S
C1361 C1362 1.400 . S
C1361 C1366 1.490 . S
C1362 H1352 0.930 . S
C1362 C1361 1.400 . S
C1362 C1365 1.386 . S
H1363 C1379 0.930 . S
H1364 C1380 0.931 . S
C1365 H1353 0.929 . S
C1365 C1359 1.390 . S
C1365 C1362 1.386 . S
C1366 C1361 1.490 . S
C1366 C1368 1.395 . S
C1366 C1369 1.403 . S
H1367 C1373 0.930 . S
C1368 H1354 0.930 . S
C1368 C1366 1.395 . S
C1368 C1371 1.403 . S
C1369 C1366 1.403 . S
C1369 C1370 1.524 . S
C1369 C1373 1.400 . S
C1370 H1355 0.960 . S
C1370 H1356 0.960 . S
C1370 H1357 0.960 . S
C1370 C1369 1.524 . S
C1371 C1368 1.403 . S
C1371 C1372 1.392 . S
C1371 C1375 1.495 . S
C1372 C1371 1.392 . S
C1372 C1373 1.385 . S
C1372 C1374 1.478 . S
C1373 H1367 0.930 . S
C1373 C1369 1.400 . S
C1373 C1372 1.385 . S
C1374 C1372 1.478 . S
C1374 C1376 1.381 . S
C1374 C1380 1.383 . S
C1375 C1371 1.495 . S
C1375 H1381 0.959 . S
C1375 H1382 0.961 . S
C1375 H1383 0.960 . S
C1376 C1374 1.381 . S
C1376 C1377 1.394 . S
C1376 H1384 0.930 . S
C1377 C1376 1.394 . S
C1377 C1378 1.383 . S
C1377 H1385 0.929 . S
C1378 C1377 1.383 . S
C1378 C1379 1.377 . S
C1379 H1363 0.930 . S
C1379 C1378 1.377 . S
C1379 C1380 1.379 . S
C1380 H1364 0.931 . S
C1380 C1374 1.383 . S
C1380 C1379 1.379 . S
H1381 C1375 0.959 . S
H1382 C1375 0.961 . S
H1383 C1375 0.960 . S
H1384 C1376 0.930 . S
H1385 C1377 0.929 . S
H1386 C1394 0.929 . S
H1387 C1396 0.930 . S
H1388 C1398 0.930 . S
H1389 C1401 0.929 . S
H1390 C1404 0.930 . S
H1391 C1406 0.960 . S
H1392 C1406 0.960 . S
H1393 C1406 0.960 . S
C1394 H1386 0.929 . S
C1394 C1395 1.364 1_545 S
C1394 C1396 1.384 . S
C1395 C1394 1.364 1_565 S
C1395 C1401 1.398 . S
C1396 H1387 0.930 . S
C1396 C1394 1.384 . S
C1396 C1397 1.370 1_545 S
C1397 C1396 1.370 1_565 S
C1397 C1398 1.403 . S
C1397 C1402 1.492 1_565 S
C1398 H1388 0.930 . S
C1398 C1397 1.403 . S
C1398 C1401 1.386 . S
H1399 C1415 0.930 . S
H1400 C1416 0.931 . S
C1401 H1389 0.929 . S
C1401 C1395 1.398 . S
C1401 C1398 1.386 . S
C1402 C1397 1.492 1_545 S
C1402 C1404 1.390 . S
C1402 C1405 1.405 1_545 S
H1403 C1409 0.930 . S
C1404 H1390 0.930 . S
C1404 C1402 1.390 . S
C1404 C1407 1.403 . S
C1405 C1402 1.405 1_565 S
C1405 C1406 1.524 . S
C1405 C1409 1.400 . S
C1406 H1391 0.960 . S
C1406 H1392 0.960 . S
C1406 H1393 0.960 . S
C1406 C1405 1.524 . S
C1407 C1404 1.403 . S
C1407 C1408 1.419 . S
C1407 C1411 1.495 . S
C1408 C1407 1.419 . S
C1408 C1409 1.329 1_545 S
C1408 C1410 1.493 . S
C1409 H1403 0.930 . S
C1409 C1405 1.400 . S
C1409 C1408 1.329 1_565 S
C1410 C1408 1.493 . S
C1410 C1412 1.431 . S
C1410 C1416 1.349 1_545 S
C1411 C1407 1.495 . S
C1411 H1417 0.959 . S
C1411 H1418 0.961 . S
C1411 H1419 0.960 . S
C1412 C1410 1.431 . S
C1412 C1413 1.394 . S
C1412 H1420 0.930 . S
C1413 C1412 1.394 . S
C1413 C1414 1.383 1_545 S
C1413 H1421 0.929 . S
C1414 C1413 1.383 1_565 S
C1414 C1415 1.377 . S
C1415 H1399 0.930 . S
C1415 C1414 1.377 . S
C1415 C1416 1.379 . S
C1416 H1400 0.931 . S
C1416 C1410 1.349 1_565 S
C1416 C1415 1.379 . S
H1417 C1411 0.959 . S
H1418 C1411 0.961 . S
H1419 C1411 0.960 . S
H1420 C1412 0.930 . S
H1421 C1413 0.929 . S
H1422 C1430 0.929 . S
H1423 C1432 0.930 . S
H1424 C1434 0.930 . S
H1425 C1437 0.929 . S
H1426 C1440 0.930 . S
H1427 C1442 0.960 . S
H1428 C1442 0.960 . S
H1429 C1442 0.960 . S
C1430 H1422 0.929 . S
C1430 C1431 1.431 . S
C1430 C1432 1.384 . S
C1431 C1430 1.431 . S
C1431 C1437 1.360 1_545 S
C1432 H1423 0.930 . S
C1432 C1430 1.384 . S
C1432 C1433 1.372 . S
C1433 C1432 1.372 . S
C1433 C1434 1.400 1_545 S
C1433 C1438 1.490 . S
C1434 H1424 0.930 . S
C1434 C1433 1.400 1_565 S
C1434 C1437 1.386 . S
H1435 C1451 0.930 . S
H1436 C1452 0.931 . S
C1437 H1425 0.929 . S
C1437 C1431 1.360 1_565 S
C1437 C1434 1.386 . S
C1438 C1433 1.490 . S
C1438 C1440 1.395 . S
C1438 C1441 1.403 1_545 S
H1439 C1445 0.930 . S
C1440 H1426 0.930 . S
C1440 C1438 1.395 . S
C1440 C1443 1.403 . S
C1441 C1438 1.403 1_565 S
C1441 C1442 1.524 . S
C1441 C1445 1.400 . S
C1442 H1427 0.960 . S
C1442 H1428 0.960 . S
C1442 H1429 0.960 . S
C1442 C1441 1.524 . S
C1443 C1440 1.403 . S
C1443 C1444 1.392 . S
C1443 C1447 1.495 . S
C1444 C1443 1.392 . S
C1444 C1445 1.385 1_545 S
C1444 C1446 1.478 . S
C1445 H1439 0.930 . S
C1445 C1441 1.400 . S
C1445 C1444 1.385 1_565 S
C1446 C1444 1.478 . S
C1446 C1448 1.381 . S
C1446 C1452 1.383 1_545 S
C1447 C1443 1.495 . S
C1447 H1453 0.959 . S
C1447 H1454 0.961 . S
C1447 H1455 0.960 . S
C1448 C1446 1.381 . S
C1448 C1449 1.394 . S
C1448 H1456 0.930 . S
C1449 C1448 1.394 . S
C1449 C1450 1.383 . S
C1449 H1457 0.929 . S
C1450 C1449 1.383 . S
C1450 C1451 1.377 1_545 S
C1451 H1435 0.930 . S
C1451 C1450 1.377 1_565 S
C1451 C1452 1.379 . S
C1452 H1436 0.931 . S
C1452 C1446 1.383 1_565 S
C1452 C1451 1.379 . S
H1453 C1447 0.959 . S
H1454 C1447 0.961 . S
H1455 C1447 0.960 . S
H1456 C1448 0.930 . S
H1457 C1449 0.929 . S
H1458 C1466 0.929 . S
H1459 C1468 0.930 . S
H1460 C1470 0.930 . S
H1461 C1473 0.929 . S
H1462 C1476 0.930 . S
H1463 C1478 0.960 . S
H1464 C1478 0.960 . S
H1465 C1478 0.960 . S
C1466 H1458 0.929 . S
C1466 C1467 1.358 1_455 S
C1466 C1468 1.384 . S
C1467 C1466 1.358 1_655 S
C1467 C1473 1.402 . S
C1468 H1459 0.930 . S
C1468 C1466 1.384 . S
C1468 C1469 1.357 1_455 S
C1469 C1468 1.357 1_655 S
C1469 C1470 1.426 . S
C1469 C1474 1.480 . S
C1470 H1460 0.930 . S
C1470 C1469 1.426 . S
C1470 C1473 1.386 . S
H1471 C1487 0.930 . S
H1472 C1488 0.931 . S
C1473 H1461 0.929 . S
C1473 C1467 1.402 . S
C1473 C1470 1.386 . S
C1474 C1469 1.480 . S
C1474 C1476 1.393 1_655 S
C1474 C1477 1.404 . S
H1475 C1481 0.930 . S
C1476 H1462 0.930 . S
C1476 C1474 1.393 1_455 S
C1476 C1479 1.403 . S
C1477 C1474 1.404 . S
C1477 C1478 1.524 . S
C1477 C1481 1.400 . S
C1478 H1463 0.960 . S
C1478 H1464 0.960 . S
C1478 H1465 0.960 . S
C1478 C1477 1.524 . S
C1479 C1476 1.403 . S
C1479 C1480 1.392 . S
C1479 C1483 1.495 . S
C1480 C1479 1.392 . S
C1480 C1481 1.385 1_455 S
C1480 C1482 1.478 . S
C1481 H1475 0.930 . S
C1481 C1477 1.400 . S
C1481 C1480 1.385 1_655 S
C1482 C1480 1.478 . S
C1482 C1484 1.381 . S
C1482 C1488 1.383 1_455 S
C1483 C1479 1.495 . S
C1483 H1489 0.959 . S
C1483 H1490 0.961 . S
C1483 H1491 0.960 . S
C1484 C1482 1.381 . S
C1484 C1485 1.394 . S
C1484 H1492 0.930 . S
C1485 C1484 1.394 . S
C1485 C1486 1.383 1_455 S
C1485 H1493 0.929 . S
C1486 C1485 1.383 1_655 S
C1486 C1487 1.377 . S
C1487 H1471 0.930 . S
C1487 C1486 1.377 . S
C1487 C1488 1.379 . S
C1488 H1472 0.931 . S
C1488 C1482 1.383 1_655 S
C1488 C1487 1.379 . S
H1489 C1483 0.959 . S
H1490 C1483 0.961 . S
H1491 C1483 0.960 . S
H1492 C1484 0.930 . S
H1493 C1485 0.929 . S
H1494 C1502 0.929 . S
H1495 C1504 0.930 . S
H1496 C1506 0.930 . S
H1497 C1509 0.929 . S
H1498 C1512 0.930 . S
H1499 C1514 0.960 . S
H1500 C1514 0.960 . S
H1501 C1514 0.960 . S
C1502 H1494 0.929 . S
C1502 C1503 1.377 . S
C1502 C1504 1.384 . S
C1503 C1502 1.377 . S
C1503 C1509 1.390 . S
C1504 H1495 0.930 . S
C1504 C1502 1.384 . S
C1504 C1505 1.372 . S
C1505 C1504 1.372 . S
C1505 C1506 1.400 . S
C1505 C1510 1.490 . S
C1506 H1496 0.930 . S
C1506 C1505 1.400 . S
C1506 C1509 1.386 . S
H1507 C1523 0.930 . S
H1508 C1524 0.931 . S
C1509 H1497 0.929 . S
C1509 C1503 1.390 . S
C1509 C1506 1.386 . S
C1510 C1505 1.490 . S
C1510 C1512 1.395 . S
C1510 C1513 1.403 . S
H1511 C1517 0.930 . S
C1512 H1498 0.930 . S
C1512 C1510 1.395 . S
C1512 C1515 1.403 . S
C1513 C1510 1.403 . S
C1513 C1514 1.524 . S
C1513 C1517 1.400 . S
C1514 H1499 0.960 . S
C1514 H1500 0.960 . S
C1514 H1501 0.960 . S
C1514 C1513 1.524 . S
C1515 C1512 1.403 . S
C1515 C1516 1.392 . S
C1515 C1519 1.495 . S
C1516 C1515 1.392 . S
C1516 C1517 1.385 . S
C1516 C1518 1.478 . S
C1517 H1511 0.930 . S
C1517 C1513 1.400 . S
C1517 C1516 1.385 . S
C1518 C1516 1.478 . S
C1518 C1520 1.381 . S
C1518 C1524 1.383 . S
C1519 C1515 1.495 . S
C1519 H1525 0.959 . S
C1519 H1526 0.961 . S
C1519 H1527 0.960 . S
C1520 C1518 1.381 . S
C1520 C1521 1.394 . S
C1520 H1528 0.930 . S
C1521 C1520 1.394 . S
C1521 C1522 1.383 . S
C1521 H1529 0.929 . S
C1522 C1521 1.383 . S
C1522 C1523 1.377 . S
C1523 H1507 0.930 . S
C1523 C1522 1.377 . S
C1523 C1524 1.379 . S
C1524 H1508 0.931 . S
C1524 C1518 1.383 . S
C1524 C1523 1.379 . S
H1525 C1519 0.959 . S
H1526 C1519 0.961 . S
H1527 C1519 0.960 . S
H1528 C1520 0.930 . S
H1529 C1521 0.929 . S
H1530 C1538 0.929 . S
H1531 C1540 0.930 . S
H1532 C1542 0.930 . S
H1533 C1545 0.929 . S
H1534 C1548 0.930 . S
H1535 C1550 0.960 . S
H1536 C1550 0.960 . S
H1537 C1550 0.960 . S
C1538 H1530 0.929 . S
C1538 C1539 1.377 . S
C1538 C1540 1.384 . S
C1539 C1538 1.377 . S
C1539 C1545 1.390 . S
C1540 H1531 0.930 . S
C1540 C1538 1.384 . S
C1540 C1541 1.372 . S
C1541 C1540 1.372 . S
C1541 C1542 1.400 . S
C1541 C1546 1.490 . S
C1542 H1532 0.930 . S
C1542 C1541 1.400 . S
C1542 C1545 1.386 . S
H1543 C1559 0.930 . S
H1544 C1560 0.931 . S
C1545 H1533 0.929 . S
C1545 C1539 1.390 . S
C1545 C1542 1.386 . S
C1546 C1541 1.490 . S
C1546 C1548 1.395 . S
C1546 C1549 1.403 . S
H1547 C1553 0.930 . S
C1548 H1534 0.930 . S
C1548 C1546 1.395 . S
C1548 C1551 1.403 . S
C1549 C1546 1.403 . S
C1549 C1550 1.524 . S
C1549 C1553 1.400 . S
C1550 H1535 0.960 . S
C1550 H1536 0.960 . S
C1550 H1537 0.960 . S
C1550 C1549 1.524 . S
C1551 C1548 1.403 . S
C1551 C1552 1.392 . S
C1551 C1555 1.495 . S
C1552 C1551 1.392 . S
C1552 C1553 1.385 . S
C1552 C1554 1.478 . S
C1553 H1547 0.930 . S
C1553 C1549 1.400 . S
C1553 C1552 1.385 . S
C1554 C1552 1.478 . S
C1554 C1556 1.381 . S
C1554 C1560 1.383 . S
C1555 C1551 1.495 . S
C1555 H1561 0.959 . S
C1555 H1562 0.961 . S
C1555 H1563 0.960 . S
C1556 C1554 1.381 . S
C1556 C1557 1.394 . S
C1556 H1564 0.930 . S
C1557 C1556 1.394 . S
C1557 C1558 1.383 . S
C1557 H1565 0.929 . S
C1558 C1557 1.383 . S
C1558 C1559 1.377 . S
C1559 H1543 0.930 . S
C1559 C1558 1.377 . S
C1559 C1560 1.379 . S
C1560 H1544 0.931 . S
C1560 C1554 1.383 . S
C1560 C1559 1.379 . S
H1561 C1555 0.959 . S
H1562 C1555 0.961 . S
H1563 C1555 0.960 . S
H1564 C1556 0.930 . S
H1565 C1557 0.929 . S
H1566 C1574 0.929 . S
H1567 C1576 0.930 . S
H1568 C1578 0.930 . S
H1569 C1581 0.929 . S
H1570 C1584 0.930 . S
H1571 C1586 0.960 . S
H1572 C1586 0.960 . S
H1573 C1586 0.960 . S
C1574 H1566 0.929 . S
C1574 C1575 1.377 . S
C1574 C1576 1.384 . S
C1575 C1574 1.377 . S
C1575 C1581 1.390 . S
C1576 H1567 0.930 . S
C1576 C1574 1.384 . S
C1576 C1577 1.372 . S
C1577 C1576 1.372 . S
C1577 C1578 1.400 . S
C1577 C1582 1.490 . S
C1578 H1568 0.930 . S
C1578 C1577 1.400 . S
C1578 C1581 1.386 . S
H1579 C1595 0.930 . S
H1580 C1596 0.931 . S
C1581 H1569 0.929 . S
C1581 C1575 1.390 . S
C1581 C1578 1.386 . S
C1582 C1577 1.490 . S
C1582 C1584 1.395 . S
C1582 C1585 1.403 . S
H1583 C1589 0.930 . S
C1584 H1570 0.930 . S
C1584 C1582 1.395 . S
C1584 C1587 1.403 . S
C1585 C1582 1.403 . S
C1585 C1586 1.524 . S
C1585 C1589 1.400 . S
C1586 H1571 0.960 . S
C1586 H1572 0.960 . S
C1586 H1573 0.960 . S
C1586 C1585 1.524 . S
C1587 C1584 1.403 . S
C1587 C1588 1.392 . S
C1587 C1591 1.495 . S
C1588 C1587 1.392 . S
C1588 C1589 1.385 . S
C1588 C1590 1.478 . S
C1589 H1583 0.930 . S
C1589 C1585 1.400 . S
C1589 C1588 1.385 . S
C1590 C1588 1.478 . S
C1590 C1592 1.381 . S
C1590 C1596 1.383 . S
C1591 C1587 1.495 . S
C1591 H1597 0.959 . S
C1591 H1598 0.961 . S
C1591 H1599 0.960 . S
C1592 C1590 1.381 . S
C1592 C1593 1.394 . S
C1592 H1600 0.930 . S
C1593 C1592 1.394 . S
C1593 C1594 1.383 . S
C1593 H1601 0.929 . S
C1594 C1593 1.383 . S
C1594 C1595 1.377 . S
C1595 H1579 0.930 . S
C1595 C1594 1.377 . S
C1595 C1596 1.379 . S
C1596 H1580 0.931 . S
C1596 C1590 1.383 . S
C1596 C1595 1.379 . S
H1597 C1591 0.959 . S
H1598 C1591 0.961 . S
H1599 C1591 0.960 . S
H1600 C1592 0.930 . S
H1601 C1593 0.929 . S
H1602 C1610 0.929 . S
H1603 C1612 0.930 . S
H1604 C1614 0.930 . S
H1605 C1617 0.929 . S
H1606 C1620 0.930 . S
H1607 C1622 0.960 . S
H1608 C1622 0.960 . S
H1609 C1622 0.960 . S
C1610 H1602 0.929 . S
C1610 C1611 1.377 . S
C1610 C1612 1.384 . S
C1611 C1610 1.377 . S
C1611 C1617 1.390 . S
C1612 H1603 0.930 . S
C1612 C1610 1.384 . S
C1612 C1613 1.372 . S
C1613 C1612 1.372 . S
C1613 C1614 1.400 . S
C1613 C1618 1.490 . S
C1614 H1604 0.930 . S
C1614 C1613 1.400 . S
C1614 C1617 1.386 . S
H1615 C1631 0.930 . S
H1616 C1632 0.931 . S
C1617 H1605 0.929 . S
C1617 C1611 1.390 . S
C1617 C1614 1.386 . S
C1618 C1613 1.490 . S
C1618 C1620 1.395 . S
C1618 C1621 1.403 . S
H1619 C1625 0.930 . S
C1620 H1606 0.930 . S
C1620 C1618 1.395 . S
C1620 C1623 1.403 . S
C1621 C1618 1.403 . S
C1621 C1622 1.524 . S
C1621 C1625 1.400 . S
C1622 H1607 0.960 . S
C1622 H1608 0.960 . S
C1622 H1609 0.960 . S
C1622 C1621 1.524 . S
C1623 C1620 1.403 . S
C1623 C1624 1.392 . S
C1623 C1627 1.495 . S
C1624 C1623 1.392 . S
C1624 C1625 1.385 . S
C1624 C1626 1.478 . S
C1625 H1619 0.930 . S
C1625 C1621 1.400 . S
C1625 C1624 1.385 . S
C1626 C1624 1.478 . S
C1626 C1628 1.381 . S
C1626 C1632 1.383 . S
C1627 C1623 1.495 . S
C1627 H1633 0.959 . S
C1627 H1634 0.961 . S
C1627 H1635 0.960 . S
C1628 C1626 1.381 . S
C1628 C1629 1.394 . S
C1628 H1636 0.930 . S
C1629 C1628 1.394 . S
C1629 C1630 1.383 . S
C1629 H1637 0.929 . S
C1630 C1629 1.383 . S
C1630 C1631 1.377 . S
C1631 H1615 0.930 . S
C1631 C1630 1.377 . S
C1631 C1632 1.379 . S
C1632 H1616 0.931 . S
C1632 C1626 1.383 . S
C1632 C1631 1.379 . S
H1633 C1627 0.959 . S
H1634 C1627 0.961 . S
H1635 C1627 0.960 . S
H1636 C1628 0.930 . S
H1637 C1629 0.929 . S
H1638 C1646 0.929 . S
H1639 C1648 0.930 . S
H1640 C1650 0.930 . S
H1641 C1653 0.929 . S
H1642 C1656 0.930 . S
H1643 C1658 0.960 . S
H1644 C1658 0.960 . S
H1645 C1658 0.960 . S
C1646 H1638 0.929 . S
C1646 C1647 1.377 . S
C1646 C1648 1.384 . S
C1647 C1646 1.377 . S
C1647 C1653 1.390 . S
C1648 H1639 0.930 . S
C1648 C1646 1.384 . S
C1648 C1649 1.372 . S
C1649 C1648 1.372 . S
C1649 C1650 1.400 . S
C1649 C1654 1.490 . S
C1650 H1640 0.930 . S
C1650 C1649 1.400 . S
C1650 C1653 1.386 . S
H1651 C1667 0.930 . S
H1652 C1668 0.931 . S
C1653 H1641 0.929 . S
C1653 C1647 1.390 . S
C1653 C1650 1.386 . S
C1654 C1649 1.490 . S
C1654 C1656 1.395 . S
C1654 C1657 1.403 . S
H1655 C1661 0.930 . S
C1656 H1642 0.930 . S
C1656 C1654 1.395 . S
C1656 C1659 1.403 . S
C1657 C1654 1.403 . S
C1657 C1658 1.524 . S
C1657 C1661 1.400 . S
C1658 H1643 0.960 . S
C1658 H1644 0.960 . S
C1658 H1645 0.960 . S
C1658 C1657 1.524 . S
C1659 C1656 1.403 . S
C1659 C1660 1.392 . S
C1659 C1663 1.495 . S
C1660 C1659 1.392 . S
C1660 C1661 1.385 . S
C1660 C1662 1.478 . S
C1661 H1655 0.930 . S
C1661 C1657 1.400 . S
C1661 C1660 1.385 . S
C1662 C1660 1.478 . S
C1662 C1664 1.381 . S
C1662 C1668 1.383 . S
C1663 C1659 1.495 . S
C1663 H1669 0.959 . S
C1663 H1670 0.961 . S
C1663 H1671 0.960 . S
C1664 C1662 1.381 . S
C1664 C1665 1.394 . S
C1664 H1672 0.930 . S
C1665 C1664 1.394 . S
C1665 C1666 1.383 . S
C1665 H1673 0.929 . S
C1666 C1665 1.383 . S
C1666 C1667 1.377 . S
C1667 H1651 0.930 . S
C1667 C1666 1.377 . S
C1667 C1668 1.379 . S
C1668 H1652 0.931 . S
C1668 C1662 1.383 . S
C1668 C1667 1.379 . S
H1669 C1663 0.959 . S
H1670 C1663 0.961 . S
H1671 C1663 0.960 . S
H1672 C1664 0.930 . S
H1673 C1665 0.929 . S
H1674 C1682 0.929 . S
H1675 C1684 0.930 . S
H1676 C1686 0.930 . S
H1677 C1689 0.929 . S
H1678 C1692 0.930 . S
H1679 C1694 0.960 . S
H1680 C1694 0.960 . S
H1681 C1694 0.960 . S
C1682 H1674 0.929 . S
C1682 C1683 1.377 . S
C1682 C1684 1.384 . S
C1683 C1682 1.377 . S
C1683 C1689 1.390 . S
C1684 H1675 0.930 . S
C1684 C1682 1.384 . S
C1684 C1685 1.372 . S
C1685 C1684 1.372 . S
C1685 C1686 1.400 . S
C1685 C1690 1.490 . S
C1686 H1676 0.930 . S
C1686 C1685 1.400 . S
C1686 C1689 1.386 . S
H1687 C1703 0.930 . S
H1688 C1704 0.931 . S
C1689 H1677 0.929 . S
C1689 C1683 1.390 . S
C1689 C1686 1.386 . S
C1690 C1685 1.490 . S
C1690 C1692 1.395 . S
C1690 C1693 1.403 . S
H1691 C1697 0.930 . S
C1692 H1678 0.930 . S
C1692 C1690 1.395 . S
C1692 C1695 1.403 . S
C1693 C1690 1.403 . S
C1693 C1694 1.524 . S
C1693 C1697 1.400 . S
C1694 H1679 0.960 . S
C1694 H1680 0.960 . S
C1694 H1681 0.960 . S
C1694 C1693 1.524 . S
C1695 C1692 1.403 . S
C1695 C1696 1.392 . S
C1695 C1699 1.495 . S
C1696 C1695 1.392 . S
C1696 C1697 1.385 . S
C1696 C1698 1.478 . S
C1697 H1691 0.930 . S
C1697 C1693 1.400 . S
C1697 C1696 1.385 . S
C1698 C1696 1.478 . S
C1698 C1700 1.381 . S
C1698 C1704 1.383 . S
C1699 C1695 1.495 . S
C1699 H1705 0.959 . S
C1699 H1706 0.961 . S
C1699 H1707 0.960 . S
C1700 C1698 1.381 . S
C1700 C1701 1.394 . S
C1700 H1708 0.930 . S
C1701 C1700 1.394 . S
C1701 C1702 1.383 . S
C1701 H1709 0.929 . S
C1702 C1701 1.383 . S
C1702 C1703 1.377 . S
C1703 H1687 0.930 . S
C1703 C1702 1.377 . S
C1703 C1704 1.379 . S
C1704 H1688 0.931 . S
C1704 C1698 1.383 . S
C1704 C1703 1.379 . S
H1705 C1699 0.959 . S
H1706 C1699 0.961 . S
H1707 C1699 0.960 . S
H1708 C1700 0.930 . S
H1709 C1701 0.929 . S
H1710 C1718 0.929 . S
H1711 C1720 0.930 . S
H1712 C1722 0.930 . S
H1713 C1725 0.929 . S
H1714 C1728 0.930 . S
H1715 C1730 0.960 . S
H1716 C1730 0.960 . S
H1717 C1730 0.960 . S
C1718 H1710 0.929 . S
C1718 C1719 1.377 . S
C1718 C1720 1.384 . S
C1719 C1718 1.377 . S
C1719 C1725 1.390 . S
C1720 H1711 0.930 . S
C1720 C1718 1.384 . S
C1720 C1721 1.372 . S
C1721 C1720 1.372 . S
C1721 C1722 1.400 . S
C1721 C1726 1.490 . S
C1722 H1712 0.930 . S
C1722 C1721 1.400 . S
C1722 C1725 1.386 . S
H1723 C1739 0.930 . S
H1724 C1740 0.931 . S
C1725 H1713 0.929 . S
C1725 C1719 1.390 . S
C1725 C1722 1.386 . S
C1726 C1721 1.490 . S
C1726 C1728 1.395 . S
C1726 C1729 1.403 . S
H1727 C1733 0.930 . S
C1728 H1714 0.930 . S
C1728 C1726 1.395 . S
C1728 C1731 1.403 . S
C1729 C1726 1.403 . S
C1729 C1730 1.524 . S
C1729 C1733 1.400 . S
C1730 H1715 0.960 . S
C1730 H1716 0.960 . S
C1730 H1717 0.960 . S
C1730 C1729 1.524 . S
C1731 C1728 1.403 . S
C1731 C1732 1.392 . S
C1731 C1735 1.495 . S
C1732 C1731 1.392 . S
C1732 C1733 1.385 . S
C1732 C1734 1.478 . S
C1733 H1727 0.930 . S
C1733 C1729 1.400 . S
C1733 C1732 1.385 . S
C1734 C1732 1.478 . S
C1734 C1736 1.381 . S
C1734 C1740 1.383 . S
C1735 C1731 1.495 . S
C1735 H1741 0.959 . S
C1735 H1742 0.961 . S
C1735 H1743 0.960 . S
C1736 C1734 1.381 . S
C1736 C1737 1.394 . S
C1736 H1744 0.930 . S
C1737 C1736 1.394 . S
C1737 C1738 1.383 . S
C1737 H1745 0.929 . S
C1738 C1737 1.383 . S
C1738 C1739 1.377 . S
C1739 H1723 0.930 . S
C1739 C1738 1.377 . S
C1739 C1740 1.379 . S
C1740 H1724 0.931 . S
C1740 C1734 1.383 . S
C1740 C1739 1.379 . S
H1741 C1735 0.959 . S
H1742 C1735 0.961 . S
H1743 C1735 0.960 . S
H1744 C1736 0.930 . S
H1745 C1737 0.929 . S
H1746 C1754 0.929 . S
H1747 C1756 0.930 . S
H1748 C1758 0.930 . S
H1749 C1761 0.929 . S
H1750 C1764 0.930 . S
H1751 C1766 0.960 . S
H1752 C1766 0.960 . S
H1753 C1766 0.960 . S
C1754 H1746 0.929 . S
C1754 C1755 1.377 . S
C1754 C1756 1.384 . S
C1755 C1754 1.377 . S
C1755 C1761 1.390 . S
C1756 H1747 0.930 . S
C1756 C1754 1.384 . S
C1756 C1757 1.372 . S
C1757 C1756 1.372 . S
C1757 C1758 1.400 . S
C1757 C1762 1.490 . S
C1758 H1748 0.930 . S
C1758 C1757 1.400 . S
C1758 C1761 1.386 . S
H1759 C1775 0.930 . S
H1760 C1776 0.931 . S
C1761 H1749 0.929 . S
C1761 C1755 1.390 . S
C1761 C1758 1.386 . S
C1762 C1757 1.490 . S
C1762 C1764 1.395 . S
C1762 C1765 1.403 . S
H1763 C1769 0.930 . S
C1764 H1750 0.930 . S
C1764 C1762 1.395 . S
C1764 C1767 1.403 . S
C1765 C1762 1.403 . S
C1765 C1766 1.524 . S
C1765 C1769 1.400 . S
C1766 H1751 0.960 . S
C1766 H1752 0.960 . S
C1766 H1753 0.960 . S
C1766 C1765 1.524 . S
C1767 C1764 1.403 . S
C1767 C1768 1.392 . S
C1767 C1771 1.495 . S
C1768 C1767 1.392 . S
C1768 C1769 1.385 . S
C1768 C1770 1.478 . S
C1769 H1763 0.930 . S
C1769 C1765 1.400 . S
C1769 C1768 1.385 . S
C1770 C1768 1.478 . S
C1770 C1772 1.381 . S
C1770 C1776 1.383 . S
C1771 C1767 1.495 . S
C1771 H1777 0.959 . S
C1771 H1778 0.961 . S
C1771 H1779 0.960 . S
C1772 C1770 1.381 . S
C1772 C1773 1.394 . S
C1772 H1780 0.930 . S
C1773 C1772 1.394 . S
C1773 C1774 1.383 . S
C1773 H1781 0.929 . S
C1774 C1773 1.383 . S
C1774 C1775 1.377 . S
C1775 H1759 0.930 . S
C1775 C1774 1.377 . S
C1775 C1776 1.379 . S
C1776 H1760 0.931 . S
C1776 C1770 1.383 . S
C1776 C1775 1.379 . S
H1777 C1771 0.959 . S
H1778 C1771 0.961 . S
H1779 C1771 0.960 . S
H1780 C1772 0.930 . S
H1781 C1773 0.929 . S
H1782 C1790 0.929 . S
H1783 C1792 0.930 . S
H1784 C1794 0.930 . S
H1785 C1797 0.929 . S
H1786 C1800 0.930 . S
H1787 C1802 0.960 . S
H1788 C1802 0.960 . S
H1789 C1802 0.960 . S
C1790 H1782 0.929 . S
C1790 C1791 1.377 . S
C1790 C1792 1.384 . S
C1791 C1790 1.377 . S
C1791 C1797 1.390 . S
C1792 H1783 0.930 . S
C1792 C1790 1.384 . S
C1792 C1793 1.372 . S
C1793 C1792 1.372 . S
C1793 C1794 1.400 . S
C1793 C1798 1.490 . S
C1794 H1784 0.930 . S
C1794 C1793 1.400 . S
C1794 C1797 1.386 . S
H1795 C1811 0.930 . S
H1796 C1812 0.931 . S
C1797 H1785 0.929 . S
C1797 C1791 1.390 . S
C1797 C1794 1.386 . S
C1798 C1793 1.490 . S
C1798 C1800 1.395 . S
C1798 C1801 1.403 . S
H1799 C1805 0.930 . S
C1800 H1786 0.930 . S
C1800 C1798 1.395 . S
C1800 C1803 1.403 . S
C1801 C1798 1.403 . S
C1801 C1802 1.524 . S
C1801 C1805 1.400 . S
C1802 H1787 0.960 . S
C1802 H1788 0.960 . S
C1802 H1789 0.960 . S
C1802 C1801 1.524 . S
C1803 C1800 1.403 . S
C1803 C1804 1.392 . S
C1803 C1807 1.495 . S
C1804 C1803 1.392 . S
C1804 C1805 1.385 . S
C1804 C1806 1.478 . S
C1805 H1799 0.930 . S
C1805 C1801 1.400 . S
C1805 C1804 1.385 . S
C1806 C1804 1.478 . S
C1806 C1808 1.381 . S
C1806 C1812 1.383 . S
C1807 C1803 1.495 . S
C1807 H1813 0.959 . S
C1807 H1814 0.961 . S
C1807 H1815 0.960 . S
C1808 C1806 1.381 . S
C1808 C1809 1.394 . S
C1808 H1816 0.930 . S
C1809 C1808 1.394 . S
C1809 C1810 1.383 . S
C1809 H1817 0.929 . S
C1810 C1809 1.383 . S
C1810 C1811 1.377 . S
C1811 H1795 0.930 . S
C1811 C1810 1.377 . S
C1811 C1812 1.379 . S
C1812 H1796 0.931 . S
C1812 C1806 1.383 . S
C1812 C1811 1.379 . S
H1813 C1807 0.959 . S
H1814 C1807 0.961 . S
H1815 C1807 0.960 . S
H1816 C1808 0.930 . S
H1817 C1809 0.929 . S
H1818 C1826 0.929 . S
H1819 C1828 0.930 . S
H1820 C1830 0.930 . S
H1821 C1833 0.929 . S
H1822 C1836 0.930 . S
H1823 C1838 0.960 . S
H1824 C1838 0.960 . S
H1825 C1838 0.960 . S
C1826 H1818 0.929 . S
C1826 C1827 1.377 . S
C1826 C1828 1.384 . S
C1827 C1826 1.377 . S
C1827 C1833 1.390 . S
C1828 H1819 0.930 . S
C1828 C1826 1.384 . S
C1828 C1829 1.372 . S
C1829 C1828 1.372 . S
C1829 C1830 1.400 . S
C1829 C1834 1.490 . S
C1830 H1820 0.930 . S
C1830 C1829 1.400 . S
C1830 C1833 1.386 . S
H1831 C1847 0.930 . S
H1832 C1848 0.931 . S
C1833 H1821 0.929 . S
C1833 C1827 1.390 . S
C1833 C1830 1.386 . S
C1834 C1829 1.490 . S
C1834 C1836 1.395 . S
C1834 C1837 1.403 . S
H1835 C1841 0.930 . S
C1836 H1822 0.930 . S
C1836 C1834 1.395 . S
C1836 C1839 1.403 . S
C1837 C1834 1.403 . S
C1837 C1838 1.524 . S
C1837 C1841 1.400 . S
C1838 H1823 0.960 . S
C1838 H1824 0.960 . S
C1838 H1825 0.960 . S
C1838 C1837 1.524 . S
C1839 C1836 1.403 . S
C1839 C1840 1.392 . S
C1839 C1843 1.495 . S
C1840 C1839 1.392 . S
C1840 C1841 1.385 . S
C1840 C1842 1.478 . S
C1841 H1835 0.930 . S
C1841 C1837 1.400 . S
C1841 C1840 1.385 . S
C1842 C1840 1.478 . S
C1842 C1844 1.381 . S
C1842 C1848 1.383 . S
C1843 C1839 1.495 . S
C1843 H1849 0.959 . S
C1843 H1850 0.961 . S
C1843 H1851 0.960 . S
C1844 C1842 1.381 . S
C1844 C1845 1.394 . S
C1844 H1852 0.930 . S
C1845 C1844 1.394 . S
C1845 C1846 1.383 . S
C1845 H1853 0.929 . S
C1846 C1845 1.383 . S
C1846 C1847 1.377 . S
C1847 H1831 0.930 . S
C1847 C1846 1.377 . S
C1847 C1848 1.379 . S
C1848 H1832 0.931 . S
C1848 C1842 1.383 . S
C1848 C1847 1.379 . S
H1849 C1843 0.959 . S
H1850 C1843 0.961 . S
H1851 C1843 0.960 . S
H1852 C1844 0.930 . S
H1853 C1845 0.929 . S
H1854 C1862 0.929 . S
H1855 C1864 0.930 . S
H1856 C1866 0.930 . S
H1857 C1869 0.929 . S
H1858 C1872 0.930 . S
H1859 C1874 0.960 . S
H1860 C1874 0.960 . S
H1861 C1874 0.960 . S
C1862 H1854 0.929 . S
C1862 C1863 1.377 . S
C1862 C1864 1.384 . S
C1863 C1862 1.377 . S
C1863 C1869 1.390 . S
C1864 H1855 0.930 . S
C1864 C1862 1.384 . S
C1864 C1865 1.372 . S
C1865 C1864 1.372 . S
C1865 C1866 1.400 . S
C1865 C1870 1.490 . S
C1866 H1856 0.930 . S
C1866 C1865 1.400 . S
C1866 C1869 1.386 . S
H1867 C1883 0.930 . S
H1868 C1884 0.931 . S
C1869 H1857 0.929 . S
C1869 C1863 1.390 . S
C1869 C1866 1.386 . S
C1870 C1865 1.490 . S
C1870 C1872 1.395 . S
C1870 C1873 1.403 . S
H1871 C1877 0.930 . S
C1872 H1858 0.930 . S
C1872 C1870 1.395 . S
C1872 C1875 1.403 . S
C1873 C1870 1.403 . S
C1873 C1874 1.524 . S
C1873 C1877 1.400 . S
C1874 H1859 0.960 . S
C1874 H1860 0.960 . S
C1874 H1861 0.960 . S
C1874 C1873 1.524 . S
C1875 C1872 1.403 . S
C1875 C1876 1.392 . S
C1875 C1879 1.495 . S
C1876 C1875 1.392 . S
C1876 C1877 1.385 . S
C1876 C1878 1.478 . S
C1877 H1871 0.930 . S
C1877 C1873 1.400 . S
C1877 C1876 1.385 . S
C1878 C1876 1.478 . S
C1878 C1880 1.381 . S
C1878 C1884 1.383 . S
C1879 C1875 1.495 . S
C1879 H1885 0.959 . S
C1879 H1886 0.961 . S
C1879 H1887 0.960 . S
C1880 C1878 1.381 . S
C1880 C1881 1.394 . S
C1880 H1888 0.930 . S
C1881 C1880 1.394 . S
C1881 C1882 1.383 . S
C1881 H1889 0.929 . S
C1882 C1881 1.383 . S
C1882 C1883 1.377 . S
C1883 H1867 0.930 . S
C1883 C1882 1.377 . S
C1883 C1884 1.379 . S
C1884 H1868 0.931 . S
C1884 C1878 1.383 . S
C1884 C1883 1.379 . S
H1885 C1879 0.959 . S
H1886 C1879 0.961 . S
H1887 C1879 0.960 . S
H1888 C1880 0.930 . S
H1889 C1881 0.929 . S
H1890 C1898 0.929 . S
H1891 C1900 0.930 . S
H1892 C1902 0.930 . S
H1893 C1905 0.929 . S
H1894 C1908 0.930 . S
H1895 C1910 0.960 . S
H1896 C1910 0.960 . S
H1897 C1910 0.960 . S
C1898 H1890 0.929 . S
C1898 C1899 1.377 . S
C1898 C1900 1.384 . S
C1899 C1898 1.377 . S
C1899 C1905 1.390 . S
C1900 H1891 0.930 . S
C1900 C1898 1.384 . S
C1900 C1901 1.372 . S
C1901 C1900 1.372 . S
C1901 C1902 1.400 . S
C1901 C1906 1.490 . S
C1902 H1892 0.930 . S
C1902 C1901 1.400 . S
C1902 C1905 1.386 . S
H1903 C1919 0.930 . S
H1904 C1920 0.931 . S
C1905 H1893 0.929 . S
C1905 C1899 1.390 . S
C1905 C1902 1.386 . S
C1906 C1901 1.490 . S
C1906 C1908 1.395 . S
C1906 C1909 1.403 . S
H1907 C1913 0.930 . S
C1908 H1894 0.930 . S
C1908 C1906 1.395 . S
C1908 C1911 1.403 . S
C1909 C1906 1.403 . S
C1909 C1910 1.524 . S
C1909 C1913 1.400 . S
C1910 H1895 0.960 . S
C1910 H1896 0.960 . S
C1910 H1897 0.960 . S
C1910 C1909 1.524 . S
C1911 C1908 1.403 . S
C1911 C1912 1.392 . S
C1911 C1915 1.495 . S
C1912 C1911 1.392 . S
C1912 C1913 1.385 . S
C1912 C1914 1.478 . S
C1913 H1907 0.930 . S
C1913 C1909 1.400 . S
C1913 C1912 1.385 . S
C1914 C1912 1.478 . S
C1914 C1916 1.381 . S
C1914 C1920 1.383 . S
C1915 C1911 1.495 . S
C1915 H1921 0.959 . S
C1915 H1922 0.961 . S
C1915 H1923 0.960 . S
C1916 C1914 1.381 . S
C1916 C1917 1.394 . S
C1916 H1924 0.930 . S
C1917 C1916 1.394 . S
C1917 C1918 1.383 . S
C1917 H1925 0.929 . S
C1918 C1917 1.383 . S
C1918 C1919 1.377 . S
C1919 H1903 0.930 . S
C1919 C1918 1.377 . S
C1919 C1920 1.379 . S
C1920 H1904 0.931 . S
C1920 C1914 1.383 . S
C1920 C1919 1.379 . S
H1921 C1915 0.959 . S
H1922 C1915 0.961 . S
H1923 C1915 0.960 . S
H1924 C1916 0.930 . S
H1925 C1917 0.929 . S
H1926 C1934 0.929 . S
H1927 C1936 0.930 . S
H1928 C1938 0.930 . S
H1929 C1941 0.929 . S
H1930 C1944 0.930 . S
H1931 C1946 0.960 . S
H1932 C1946 0.960 . S
H1933 C1946 0.960 . S
C1934 H1926 0.929 . S
C1934 C1935 1.377 . S
C1934 C1936 1.384 . S
C1935 C1934 1.377 . S
C1935 C1941 1.390 . S
C1936 H1927 0.930 . S
C1936 C1934 1.384 . S
C1936 C1937 1.372 . S
C1937 C1936 1.372 . S
C1937 C1938 1.400 . S
C1937 C1942 1.490 . S
C1938 H1928 0.930 . S
C1938 C1937 1.400 . S
C1938 C1941 1.386 . S
H1939 C1955 0.930 . S
H1940 C1956 0.931 . S
C1941 H1929 0.929 . S
C1941 C1935 1.390 . S
C1941 C1938 1.386 . S
C1942 C1937 1.490 . S
C1942 C1944 1.395 . S
C1942 C1945 1.403 . S
H1943 C1949 0.930 . S
C1944 H1930 0.930 . S
C1944 C1942 1.395 . S
C1944 C1947 1.403 . S
C1945 C1942 1.403 . S
C1945 C1946 1.524 . S
C1945 C1949 1.400 . S
C1946 H1931 0.960 . S
C1946 H1932 0.960 . S
C1946 H1933 0.960 . S
C1946 C1945 1.524 . S
C1947 C1944 1.403 . S
C1947 C1948 1.392 . S
C1947 C1951 1.495 . S
C1948 C1947 1.392 . S
C1948 C1949 1.385 . S
C1948 C1950 1.478 . S
C1949 H1943 0.930 . S
C1949 C1945 1.400 . S
C1949 C1948 1.385 . S
C1950 C1948 1.478 . S
C1950 C1952 1.381 . S
C1950 C1956 1.383 . S
C1951 C1947 1.495 . S
C1951 H1957 0.959 . S
C1951 H1958 0.961 . S
C1951 H1959 0.960 . S
C1952 C1950 1.381 . S
C1952 C1953 1.394 . S
C1952 H1960 0.930 . S
C1953 C1952 1.394 . S
C1953 C1954 1.383 . S
C1953 H1961 0.929 . S
C1954 C1953 1.383 . S
C1954 C1955 1.377 . S
C1955 H1939 0.930 . S
C1955 C1954 1.377 . S
C1955 C1956 1.379 . S
C1956 H1940 0.931 . S
C1956 C1950 1.383 . S
C1956 C1955 1.379 . S
H1957 C1951 0.959 . S
H1958 C1951 0.961 . S
H1959 C1951 0.960 . S
H1960 C1952 0.930 . S
H1961 C1953 0.929 . S
H1962 C1970 0.929 . S
H1963 C1972 0.930 . S
H1964 C1974 0.930 . S
H1965 C1977 0.929 . S
H1966 C1980 0.930 . S
H1967 C1982 0.960 . S
H1968 C1982 0.960 . S
H1969 C1982 0.960 . S
C1970 H1962 0.929 . S
C1970 C1971 1.377 . S
C1970 C1972 1.384 . S
C1971 C1970 1.377 . S
C1971 C1977 1.390 . S
C1972 H1963 0.930 . S
C1972 C1970 1.384 . S
C1972 C1973 1.372 . S
C1973 C1972 1.372 . S
C1973 C1974 1.400 . S
C1973 C1978 1.490 . S
C1974 H1964 0.930 . S
C1974 C1973 1.400 . S
C1974 C1977 1.386 . S
H1975 C1991 0.930 . S
H1976 C1992 0.931 . S
C1977 H1965 0.929 . S
C1977 C1971 1.390 . S
C1977 C1974 1.386 . S
C1978 C1973 1.490 . S
C1978 C1980 1.395 . S
C1978 C1981 1.403 . S
H1979 C1985 0.930 . S
C1980 H1966 0.930 . S
C1980 C1978 1.395 . S
C1980 C1983 1.403 . S
C1981 C1978 1.403 . S
C1981 C1982 1.524 . S
C1981 C1985 1.400 . S
C1982 H1967 0.960 . S
C1982 H1968 0.960 . S
C1982 H1969 0.960 . S
C1982 C1981 1.524 . S
C1983 C1980 1.403 . S
C1983 C1984 1.392 . S
C1983 C1987 1.495 . S
C1984 C1983 1.392 . S
C1984 C1985 1.385 . S
C1984 C1986 1.478 . S
C1985 H1979 0.930 . S
C1985 C1981 1.400 . S
C1985 C1984 1.385 . S
C1986 C1984 1.478 . S
C1986 C1988 1.381 . S
C1986 C1992 1.383 . S
C1987 C1983 1.495 . S
C1987 H1993 0.959 . S
C1987 H1994 0.961 . S
C1987 H1995 0.960 . S
C1988 C1986 1.381 . S
C1988 C1989 1.394 . S
C1988 H1996 0.930 . S
C1989 C1988 1.394 . S
C1989 C1990 1.383 . S
C1989 H1997 0.929 . S
C1990 C1989 1.383 . S
C1990 C1991 1.377 . S
C1991 H1975 0.930 . S
C1991 C1990 1.377 . S
C1991 C1992 1.379 . S
C1992 H1976 0.931 . S
C1992 C1986 1.383 . S
C1992 C1991 1.379 . S
H1993 C1987 0.959 . S
H1994 C1987 0.961 . S
H1995 C1987 0.960 . S
H1996 C1988 0.930 . S
H1997 C1989 0.929 . S
H1998 C2006 0.929 . S
H1999 C2008 0.930 . S
H2000 C2010 0.930 . S
H2001 C2013 0.929 . S
H2002 C2016 0.930 . S
H2003 C2018 0.960 . S
H2004 C2018 0.960 . S
H2005 C2018 0.960 . S
C2006 H1998 0.929 . S
C2006 C2007 1.377 . S
C2006 C2008 1.384 . S
C2007 C2006 1.377 . S
C2007 C2013 1.390 . S
C2008 H1999 0.930 . S
C2008 C2006 1.384 . S
C2008 C2009 1.372 . S
C2009 C2008 1.372 . S
C2009 C2010 1.400 . S
C2009 C2014 1.490 . S
C2010 H2000 0.930 . S
C2010 C2009 1.400 . S
C2010 C2013 1.386 . S
H2011 C2027 0.930 . S
H2012 C2028 0.931 . S
C2013 H2001 0.929 . S
C2013 C2007 1.390 . S
C2013 C2010 1.386 . S
C2014 C2009 1.490 . S
C2014 C2016 1.395 . S
C2014 C2017 1.403 . S
H2015 C2021 0.930 . S
C2016 H2002 0.930 . S
C2016 C2014 1.395 . S
C2016 C2019 1.403 . S
C2017 C2014 1.403 . S
C2017 C2018 1.524 . S
C2017 C2021 1.400 . S
C2018 H2003 0.960 . S
C2018 H2004 0.960 . S
C2018 H2005 0.960 . S
C2018 C2017 1.524 . S
C2019 C2016 1.403 . S
C2019 C2020 1.392 . S
C2019 C2023 1.495 . S
C2020 C2019 1.392 . S
C2020 C2021 1.385 . S
C2020 C2022 1.478 . S
C2021 H2015 0.930 . S
C2021 C2017 1.400 . S
C2021 C2020 1.385 . S
C2022 C2020 1.478 . S
C2022 C2024 1.381 . S
C2022 C2028 1.383 . S
C2023 C2019 1.495 . S
C2023 H2029 0.959 . S
C2023 H2030 0.961 . S
C2023 H2031 0.960 . S
C2024 C2022 1.381 . S
C2024 C2025 1.394 . S
C2024 H2032 0.930 . S
C2025 C2024 1.394 . S
C2025 C2026 1.383 . S
C2025 H2033 0.929 . S
C2026 C2025 1.383 . S
C2026 C2027 1.377 . S
C2027 H2011 0.930 . S
C2027 C2026 1.377 . S
C2027 C2028 1.379 . S
C2028 H2012 0.931 . S
C2028 C2022 1.383 . S
C2028 C2027 1.379 . S
H2029 C2023 0.959 . S
H2030 C2023 0.961 . S
H2031 C2023 0.960 . S
H2032 C2024 0.930 . S
H2033 C2025 0.929 . S
H2034 C2042 0.929 . S
H2035 C2044 0.930 . S
H2036 C2046 0.930 . S
H2037 C2049 0.929 . S
H2038 C2052 0.930 . S
H2039 C2054 0.960 . S
H2040 C2054 0.960 . S
H2041 C2054 0.960 . S
C2042 H2034 0.929 . S
C2042 C2043 1.377 . S
C2042 C2044 1.384 . S
C2043 C2042 1.377 . S
C2043 C2049 1.390 . S
C2044 H2035 0.930 . S
C2044 C2042 1.384 . S
C2044 C2045 1.372 . S
C2045 C2044 1.372 . S
C2045 C2046 1.400 . S
C2045 C2050 1.490 . S
C2046 H2036 0.930 . S
C2046 C2045 1.400 . S
C2046 C2049 1.386 . S
H2047 C2063 0.930 . S
H2048 C2064 0.931 . S
C2049 H2037 0.929 . S
C2049 C2043 1.390 . S
C2049 C2046 1.386 . S
C2050 C2045 1.490 . S
C2050 C2052 1.395 . S
C2050 C2053 1.403 . S
H2051 C2057 0.930 . S
C2052 H2038 0.930 . S
C2052 C2050 1.395 . S
C2052 C2055 1.403 . S
C2053 C2050 1.403 . S
C2053 C2054 1.524 . S
C2053 C2057 1.400 . S
C2054 H2039 0.960 . S
C2054 H2040 0.960 . S
C2054 H2041 0.960 . S
C2054 C2053 1.524 . S
C2055 C2052 1.403 . S
C2055 C2056 1.392 . S
C2055 C2059 1.495 . S
C2056 C2055 1.392 . S
C2056 C2057 1.385 . S
C2056 C2058 1.478 . S
C2057 H2051 0.930 . S
C2057 C2053 1.400 . S
C2057 C2056 1.385 . S
C2058 C2056 1.478 . S
C2058 C2060 1.381 . S
C2058 C2064 1.383 . S
C2059 C2055 1.495 . S
C2059 H2065 0.959 . S
C2059 H2066 0.961 . S
C2059 H2067 0.960 . S
C2060 C2058 1.381 . S
C2060 C2061 1.394 . S
C2060 H2068 0.930 . S
C2061 C2060 1.394 . S
C2061 C2062 1.383 . S
C2061 H2069 0.929 . S
C2062 C2061 1.383 . S
C2062 C2063 1.377 . S
C2063 H2047 0.930 . S
C2063 C2062 1.377 . S
C2063 C2064 1.379 . S
C2064 H2048 0.931 . S
C2064 C2058 1.383 . S
C2064 C2063 1.379 . S
H2065 C2059 0.959 . S
H2066 C2059 0.961 . S
H2067 C2059 0.960 . S
H2068 C2060 0.930 . S
H2069 C2061 0.929 . S
H2070 C2078 0.929 . S
H2071 C2080 0.930 . S
H2072 C2082 0.930 . S
H2073 C2085 0.929 . S
H2074 C2088 0.930 . S
H2075 C2090 0.960 . S
H2076 C2090 0.960 . S
H2077 C2090 0.960 . S
C2078 H2070 0.929 . S
C2078 C2079 1.377 . S
C2078 C2080 1.384 . S
C2079 C2078 1.377 . S
C2079 C2085 1.390 . S
C2080 H2071 0.930 . S
C2080 C2078 1.384 . S
C2080 C2081 1.372 . S
C2081 C2080 1.372 . S
C2081 C2082 1.400 . S
C2081 C2086 1.490 . S
C2082 H2072 0.930 . S
C2082 C2081 1.400 . S
C2082 C2085 1.386 . S
H2083 C2099 0.930 . S
H2084 C2100 0.931 . S
C2085 H2073 0.929 . S
C2085 C2079 1.390 . S
C2085 C2082 1.386 . S
C2086 C2081 1.490 . S
C2086 C2088 1.395 . S
C2086 C2089 1.403 . S
H2087 C2093 0.930 . S
C2088 H2074 0.930 . S
C2088 C2086 1.395 . S
C2088 C2091 1.403 . S
C2089 C2086 1.403 . S
C2089 C2090 1.524 . S
C2089 C2093 1.400 . S
C2090 H2075 0.960 . S
C2090 H2076 0.960 . S
C2090 H2077 0.960 . S
C2090 C2089 1.524 . S
C2091 C2088 1.403 . S
C2091 C2092 1.392 . S
C2091 C2095 1.495 . S
C2092 C2091 1.392 . S
C2092 C2093 1.385 . S
C2092 C2094 1.478 . S
C2093 H2087 0.930 . S
C2093 C2089 1.400 . S
C2093 C2092 1.385 . S
C2094 C2092 1.478 . S
C2094 C2096 1.381 . S
C2094 C2100 1.383 . S
C2095 C2091 1.495 . S
C2095 H2101 0.959 . S
C2095 H2102 0.961 . S
C2095 H2103 0.960 . S
C2096 C2094 1.381 . S
C2096 C2097 1.394 . S
C2096 H2104 0.930 . S
C2097 C2096 1.394 . S
C2097 C2098 1.383 . S
C2097 H2105 0.929 . S
C2098 C2097 1.383 . S
C2098 C2099 1.377 . S
C2099 H2083 0.930 . S
C2099 C2098 1.377 . S
C2099 C2100 1.379 . S
C2100 H2084 0.931 . S
C2100 C2094 1.383 . S
C2100 C2099 1.379 . S
H2101 C2095 0.959 . S
H2102 C2095 0.961 . S
H2103 C2095 0.960 . S
H2104 C2096 0.930 . S
H2105 C2097 0.929 . S
H2106 C2114 0.929 . S
H2107 C2116 0.930 . S
H2108 C2118 0.930 . S
H2109 C2121 0.929 . S
H2110 C2124 0.930 . S
H2111 C2126 0.960 . S
H2112 C2126 0.960 . S
H2113 C2126 0.960 . S
C2114 H2106 0.929 . S
C2114 C2115 1.377 . S
C2114 C2116 1.384 . S
C2115 C2114 1.377 . S
C2115 C2121 1.390 . S
C2116 H2107 0.930 . S
C2116 C2114 1.384 . S
C2116 C2117 1.372 . S
C2117 C2116 1.372 . S
C2117 C2118 1.400 . S
C2117 C2122 1.490 . S
C2118 H2108 0.930 . S
C2118 C2117 1.400 . S
C2118 C2121 1.386 . S
H2119 C2135 0.930 . S
H2120 C2136 0.931 . S
C2121 H2109 0.929 . S
C2121 C2115 1.390 . S
C2121 C2118 1.386 . S
C2122 C2117 1.490 . S
C2122 C2124 1.395 . S
C2122 C2125 1.403 . S
H2123 C2129 0.930 . S
C2124 H2110 0.930 . S
C2124 C2122 1.395 . S
C2124 C2127 1.403 . S
C2125 C2122 1.403 . S
C2125 C2126 1.524 . S
C2125 C2129 1.400 . S
C2126 H2111 0.960 . S
C2126 H2112 0.960 . S
C2126 H2113 0.960 . S
C2126 C2125 1.524 . S
C2127 C2124 1.403 . S
C2127 C2128 1.392 . S
C2127 C2131 1.495 . S
C2128 C2127 1.392 . S
C2128 C2129 1.385 . S
C2128 C2130 1.478 . S
C2129 H2123 0.930 . S
C2129 C2125 1.400 . S
C2129 C2128 1.385 . S
C2130 C2128 1.478 . S
C2130 C2132 1.381 . S
C2130 C2136 1.383 . S
C2131 C2127 1.495 . S
C2131 H2137 0.959 . S
C2131 H2138 0.961 . S
C2131 H2139 0.960 . S
C2132 C2130 1.381 . S
C2132 C2133 1.394 . S
C2132 H2140 0.930 . S
C2133 C2132 1.394 . S
C2133 C2134 1.383 . S
C2133 H2141 0.929 . S
C2134 C2133 1.383 . S
C2134 C2135 1.377 . S
C2135 H2119 0.930 . S
C2135 C2134 1.377 . S
C2135 C2136 1.379 . S
C2136 H2120 0.931 . S
C2136 C2130 1.383 . S
C2136 C2135 1.379 . S
H2137 C2131 0.959 . S
H2138 C2131 0.961 . S
H2139 C2131 0.960 . S
H2140 C2132 0.930 . S
H2141 C2133 0.929 . S
H2142 C2150 0.929 . S
H2143 C2152 0.930 . S
H2144 C2154 0.930 . S
H2145 C2157 0.929 . S
H2146 C2160 0.930 . S
H2147 C2162 0.960 . S
H2148 C2162 0.960 . S
H2149 C2162 0.960 . S
C2150 H2142 0.929 . S
C2150 C2151 1.377 . S
C2150 C2152 1.384 . S
C2151 C2150 1.377 . S
C2151 C2157 1.390 . S
C2152 H2143 0.930 . S
C2152 C2150 1.384 . S
C2152 C2153 1.372 . S
C2153 C2152 1.372 . S
C2153 C2154 1.400 . S
C2153 C2158 1.490 . S
C2154 H2144 0.930 . S
C2154 C2153 1.400 . S
C2154 C2157 1.386 . S
H2155 C2171 0.930 . S
H2156 C2172 0.931 . S
C2157 H2145 0.929 . S
C2157 C2151 1.390 . S
C2157 C2154 1.386 . S
C2158 C2153 1.490 . S
C2158 C2160 1.395 . S
C2158 C2161 1.403 . S
H2159 C2165 0.930 . S
C2160 H2146 0.930 . S
C2160 C2158 1.395 . S
C2160 C2163 1.403 . S
C2161 C2158 1.403 . S
C2161 C2162 1.524 . S
C2161 C2165 1.400 . S
C2162 H2147 0.960 . S
C2162 H2148 0.960 . S
C2162 H2149 0.960 . S
C2162 C2161 1.524 . S
C2163 C2160 1.403 . S
C2163 C2164 1.392 . S
C2163 C2167 1.495 . S
C2164 C2163 1.392 . S
C2164 C2165 1.385 . S
C2164 C2166 1.478 . S
C2165 H2159 0.930 . S
C2165 C2161 1.400 . S
C2165 C2164 1.385 . S
C2166 C2164 1.478 . S
C2166 C2168 1.381 . S
C2166 C2172 1.383 . S
C2167 C2163 1.495 . S
C2167 H2173 0.959 . S
C2167 H2174 0.961 . S
C2167 H2175 0.960 . S
C2168 C2166 1.381 . S
C2168 C2169 1.394 . S
C2168 H2176 0.930 . S
C2169 C2168 1.394 . S
C2169 C2170 1.383 . S
C2169 H2177 0.929 . S
C2170 C2169 1.383 . S
C2170 C2171 1.377 . S
C2171 H2155 0.930 . S
C2171 C2170 1.377 . S
C2171 C2172 1.379 . S
C2172 H2156 0.931 . S
C2172 C2166 1.383 . S
C2172 C2171 1.379 . S
H2173 C2167 0.959 . S
H2174 C2167 0.961 . S
H2175 C2167 0.960 . S
H2176 C2168 0.930 . S
H2177 C2169 0.929 . S
H2178 C2186 0.929 . S
H2179 C2188 0.930 . S
H2180 C2190 0.930 . S
H2181 C2193 0.929 . S
H2182 C2196 0.930 . S
H2183 C2198 0.960 . S
H2184 C2198 0.960 . S
H2185 C2198 0.960 . S
C2186 H2178 0.929 . S
C2186 C2187 1.377 . S
C2186 C2188 1.384 . S
C2187 C2186 1.377 . S
C2187 C2193 1.390 . S
C2188 H2179 0.930 . S
C2188 C2186 1.384 . S
C2188 C2189 1.372 . S
C2189 C2188 1.372 . S
C2189 C2190 1.400 . S
C2189 C2194 1.490 . S
C2190 H2180 0.930 . S
C2190 C2189 1.400 . S
C2190 C2193 1.386 . S
H2191 C2207 0.930 . S
H2192 C2208 0.931 . S
C2193 H2181 0.929 . S
C2193 C2187 1.390 . S
C2193 C2190 1.386 . S
C2194 C2189 1.490 . S
C2194 C2196 1.395 . S
C2194 C2197 1.403 . S
H2195 C2201 0.930 . S
C2196 H2182 0.930 . S
C2196 C2194 1.395 . S
C2196 C2199 1.403 . S
C2197 C2194 1.403 . S
C2197 C2198 1.524 . S
C2197 C2201 1.400 . S
C2198 H2183 0.960 . S
C2198 H2184 0.960 . S
C2198 H2185 0.960 . S
C2198 C2197 1.524 . S
C2199 C2196 1.403 . S
C2199 C2200 1.392 . S
C2199 C2203 1.495 . S
C2200 C2199 1.392 . S
C2200 C2201 1.385 . S
C2200 C2202 1.478 . S
C2201 H2195 0.930 . S
C2201 C2197 1.400 . S
C2201 C2200 1.385 . S
C2202 C2200 1.478 . S
C2202 C2204 1.381 . S
C2202 C2208 1.383 . S
C2203 C2199 1.495 . S
C2203 H2209 0.959 . S
C2203 H2210 0.961 . S
C2203 H2211 0.960 . S
C2204 C2202 1.381 . S
C2204 C2205 1.394 . S
C2204 H2212 0.930 . S
C2205 C2204 1.394 . S
C2205 C2206 1.383 . S
C2205 H2213 0.929 . S
C2206 C2205 1.383 . S
C2206 C2207 1.377 . S
C2207 H2191 0.930 . S
C2207 C2206 1.377 . S
C2207 C2208 1.379 . S
C2208 H2192 0.931 . S
C2208 C2202 1.383 . S
C2208 C2207 1.379 . S
H2209 C2203 0.959 . S
H2210 C2203 0.961 . S
H2211 C2203 0.960 . S
H2212 C2204 0.930 . S
H2213 C2205 0.929 . S
H2214 C2222 0.929 . S
H2215 C2224 0.930 . S
H2216 C2226 0.930 . S
H2217 C2229 0.929 . S
H2218 C2232 0.930 . S
H2219 C2234 0.960 . S
H2220 C2234 0.960 . S
H2221 C2234 0.960 . S
C2222 H2214 0.929 . S
C2222 C2223 1.377 . S
C2222 C2224 1.384 . S
C2223 C2222 1.377 . S
C2223 C2229 1.390 . S
C2224 H2215 0.930 . S
C2224 C2222 1.384 . S
C2224 C2225 1.372 . S
C2225 C2224 1.372 . S
C2225 C2226 1.400 . S
C2225 C2230 1.490 . S
C2226 H2216 0.930 . S
C2226 C2225 1.400 . S
C2226 C2229 1.386 . S
H2227 C2243 0.930 . S
H2228 C2244 0.931 . S
C2229 H2217 0.929 . S
C2229 C2223 1.390 . S
C2229 C2226 1.386 . S
C2230 C2225 1.490 . S
C2230 C2232 1.395 . S
C2230 C2233 1.403 . S
H2231 C2237 0.930 . S
C2232 H2218 0.930 . S
C2232 C2230 1.395 . S
C2232 C2235 1.403 . S
C2233 C2230 1.403 . S
C2233 C2234 1.524 . S
C2233 C2237 1.400 . S
C2234 H2219 0.960 . S
C2234 H2220 0.960 . S
C2234 H2221 0.960 . S
C2234 C2233 1.524 . S
C2235 C2232 1.403 . S
C2235 C2236 1.392 . S
C2235 C2239 1.495 . S
C2236 C2235 1.392 . S
C2236 C2237 1.385 . S
C2236 C2238 1.478 . S
C2237 H2231 0.930 . S
C2237 C2233 1.400 . S
C2237 C2236 1.385 . S
C2238 C2236 1.478 . S
C2238 C2240 1.381 . S
C2238 C2244 1.383 . S
C2239 C2235 1.495 . S
C2239 H2245 0.959 . S
C2239 H2246 0.961 . S
C2239 H2247 0.960 . S
C2240 C2238 1.381 . S
C2240 C2241 1.394 . S
C2240 H2248 0.930 . S
C2241 C2240 1.394 . S
C2241 C2242 1.383 . S
C2241 H2249 0.929 . S
C2242 C2241 1.383 . S
C2242 C2243 1.377 . S
C2243 H2227 0.930 . S
C2243 C2242 1.377 . S
C2243 C2244 1.379 . S
C2244 H2228 0.931 . S
C2244 C2238 1.383 . S
C2244 C2243 1.379 . S
H2245 C2239 0.959 . S
H2246 C2239 0.961 . S
H2247 C2239 0.960 . S
H2248 C2240 0.930 . S
H2249 C2241 0.929 . S
H2250 C2258 0.929 . S
H2251 C2260 0.930 . S
H2252 C2262 0.930 . S
H2253 C2265 0.929 . S
H2254 C2268 0.930 . S
H2255 C2270 0.960 . S
H2256 C2270 0.960 . S
H2257 C2270 0.960 . S
C2258 H2250 0.929 . S
C2258 C2259 1.377 . S
C2258 C2260 1.384 . S
C2259 C2258 1.377 . S
C2259 C2265 1.390 . S
C2260 H2251 0.930 . S
C2260 C2258 1.384 . S
C2260 C2261 1.372 . S
C2261 C2260 1.372 . S
C2261 C2262 1.400 . S
C2261 C2266 1.490 . S
C2262 H2252 0.930 . S
C2262 C2261 1.400 . S
C2262 C2265 1.386 . S
H2263 C2279 0.930 . S
H2264 C2280 0.931 . S
C2265 H2253 0.929 . S
C2265 C2259 1.390 . S
C2265 C2262 1.386 . S
C2266 C2261 1.490 . S
C2266 C2268 1.395 . S
C2266 C2269 1.403 . S
H2267 C2273 0.930 . S
C2268 H2254 0.930 . S
C2268 C2266 1.395 . S
C2268 C2271 1.403 . S
C2269 C2266 1.403 . S
C2269 C2270 1.524 . S
C2269 C2273 1.400 . S
C2270 H2255 0.960 . S
C2270 H2256 0.960 . S
C2270 H2257 0.960 . S
C2270 C2269 1.524 . S
C2271 C2268 1.403 . S
C2271 C2272 1.392 . S
C2271 C2275 1.495 . S
C2272 C2271 1.392 . S
C2272 C2273 1.385 . S
C2272 C2274 1.478 . S
C2273 H2267 0.930 . S
C2273 C2269 1.400 . S
C2273 C2272 1.385 . S
C2274 C2272 1.478 . S
C2274 C2276 1.381 . S
C2274 C2280 1.383 . S
C2275 C2271 1.495 . S
C2275 H2281 0.959 . S
C2275 H2282 0.961 . S
C2275 H2283 0.960 . S
C2276 C2274 1.381 . S
C2276 C2277 1.394 . S
C2276 H2284 0.930 . S
C2277 C2276 1.394 . S
C2277 C2278 1.383 . S
C2277 H2285 0.929 . S
C2278 C2277 1.383 . S
C2278 C2279 1.377 . S
C2279 H2263 0.930 . S
C2279 C2278 1.377 . S
C2279 C2280 1.379 . S
C2280 H2264 0.931 . S
C2280 C2274 1.383 . S
C2280 C2279 1.379 . S
H2281 C2275 0.959 . S
H2282 C2275 0.961 . S
H2283 C2275 0.960 . S
H2284 C2276 0.930 . S
H2285 C2277 0.929 . S
H2286 C2294 0.929 . S
H2287 C2296 0.930 . S
H2288 C2298 0.930 . S
H2289 C2301 0.929 . S
H2290 C2304 0.930 . S
H2291 C2306 0.960 . S
H2292 C2306 0.960 . S
H2293 C2306 0.960 . S
C2294 H2286 0.929 . S
C2294 C2295 1.377 . S
C2294 C2296 1.384 . S
C2295 C2294 1.377 . S
C2295 C2301 1.390 . S
C2296 H2287 0.930 . S
C2296 C2294 1.384 . S
C2296 C2297 1.372 . S
C2297 C2296 1.372 . S
C2297 C2298 1.400 . S
C2297 C2302 1.490 . S
C2298 H2288 0.930 . S
C2298 C2297 1.400 . S
C2298 C2301 1.386 . S
H2299 C2315 0.930 . S
H2300 C2316 0.931 . S
C2301 H2289 0.929 . S
C2301 C2295 1.390 . S
C2301 C2298 1.386 . S
C2302 C2297 1.490 . S
C2302 C2304 1.395 . S
C2302 C2305 1.403 . S
H2303 C2309 0.930 . S
C2304 H2290 0.930 . S
C2304 C2302 1.395 . S
C2304 C2307 1.403 . S
C2305 C2302 1.403 . S
C2305 C2306 1.524 . S
C2305 C2309 1.400 . S
C2306 H2291 0.960 . S
C2306 H2292 0.960 . S
C2306 H2293 0.960 . S
C2306 C2305 1.524 . S
C2307 C2304 1.403 . S
C2307 C2308 1.392 . S
C2307 C2311 1.495 . S
C2308 C2307 1.392 . S
C2308 C2309 1.385 . S
C2308 C2310 1.478 . S
C2309 H2303 0.930 . S
C2309 C2305 1.400 . S
C2309 C2308 1.385 . S
C2310 C2308 1.478 . S
C2310 C2312 1.381 . S
C2310 C2316 1.383 . S
C2311 C2307 1.495 . S
C2311 H2317 0.959 . S
C2311 H2318 0.961 . S
C2311 H2319 0.960 . S
C2312 C2310 1.381 . S
C2312 C2313 1.394 . S
C2312 H2320 0.930 . S
C2313 C2312 1.394 . S
C2313 C2314 1.383 . S
C2313 H2321 0.929 . S
C2314 C2313 1.383 . S
C2314 C2315 1.377 . S
C2315 H2299 0.930 . S
C2315 C2314 1.377 . S
C2315 C2316 1.379 . S
C2316 H2300 0.931 . S
C2316 C2310 1.383 . S
C2316 C2315 1.379 . S
H2317 C2311 0.959 . S
H2318 C2311 0.961 . S
H2319 C2311 0.960 . S
H2320 C2312 0.930 . S
H2321 C2313 0.929 . S
H2322 C2330 0.929 . S
H2323 C2332 0.930 . S
H2324 C2334 0.930 . S
H2325 C2337 0.929 . S
H2326 C2340 0.930 . S
H2327 C2342 0.960 . S
H2328 C2342 0.960 . S
H2329 C2342 0.960 . S
C2330 H2322 0.929 . S
C2330 C2331 1.377 . S
C2330 C2332 1.384 . S
C2331 C2330 1.377 . S
C2331 C2337 1.390 . S
C2332 H2323 0.930 . S
C2332 C2330 1.384 . S
C2332 C2333 1.372 . S
C2333 C2332 1.372 . S
C2333 C2334 1.400 . S
C2333 C2338 1.490 . S
C2334 H2324 0.930 . S
C2334 C2333 1.400 . S
C2334 C2337 1.386 . S
H2335 C2351 0.930 . S
H2336 C2352 0.931 . S
C2337 H2325 0.929 . S
C2337 C2331 1.390 . S
C2337 C2334 1.386 . S
C2338 C2333 1.490 . S
C2338 C2340 1.395 . S
C2338 C2341 1.403 . S
H2339 C2345 0.930 . S
C2340 H2326 0.930 . S
C2340 C2338 1.395 . S
C2340 C2343 1.403 . S
C2341 C2338 1.403 . S
C2341 C2342 1.524 . S
C2341 C2345 1.400 . S
C2342 H2327 0.960 . S
C2342 H2328 0.960 . S
C2342 H2329 0.960 . S
C2342 C2341 1.524 . S
C2343 C2340 1.403 . S
C2343 C2344 1.392 . S
C2343 C2347 1.495 . S
C2344 C2343 1.392 . S
C2344 C2345 1.385 . S
C2344 C2346 1.478 . S
C2345 H2339 0.930 . S
C2345 C2341 1.400 . S
C2345 C2344 1.385 . S
C2346 C2344 1.478 . S
C2346 C2348 1.381 . S
C2346 C2352 1.383 . S
C2347 C2343 1.495 . S
C2347 H2353 0.959 . S
C2347 H2354 0.961 . S
C2347 H2355 0.960 . S
C2348 C2346 1.381 . S
C2348 C2349 1.394 . S
C2348 H2356 0.930 . S
C2349 C2348 1.394 . S
C2349 C2350 1.383 . S
C2349 H2357 0.929 . S
C2350 C2349 1.383 . S
C2350 C2351 1.377 . S
C2351 H2335 0.930 . S
C2351 C2350 1.377 . S
C2351 C2352 1.379 . S
C2352 H2336 0.931 . S
C2352 C2346 1.383 . S
C2352 C2351 1.379 . S
H2353 C2347 0.959 . S
H2354 C2347 0.961 . S
H2355 C2347 0.960 . S
H2356 C2348 0.930 . S
H2357 C2349 0.929 . S
H2358 C2366 0.929 . S
H2359 C2368 0.930 . S
H2360 C2370 0.930 . S
H2361 C2373 0.929 . S
H2362 C2376 0.930 . S
H2363 C2378 0.960 . S
H2364 C2378 0.960 . S
H2365 C2378 0.960 . S
C2366 H2358 0.929 . S
C2366 C2367 1.377 . S
C2366 C2368 1.384 . S
C2367 C2366 1.377 . S
C2367 C2373 1.390 . S
C2368 H2359 0.930 . S
C2368 C2366 1.384 . S
C2368 C2369 1.372 . S
C2369 C2368 1.372 . S
C2369 C2370 1.400 . S
C2369 C2374 1.490 . S
C2370 H2360 0.930 . S
C2370 C2369 1.400 . S
C2370 C2373 1.386 . S
H2371 C2387 0.930 . S
H2372 C2388 0.931 . S
C2373 H2361 0.929 . S
C2373 C2367 1.390 . S
C2373 C2370 1.386 . S
C2374 C2369 1.490 . S
C2374 C2376 1.395 . S
C2374 C2377 1.403 . S
H2375 C2381 0.930 . S
C2376 H2362 0.930 . S
C2376 C2374 1.395 . S
C2376 C2379 1.403 . S
C2377 C2374 1.403 . S
C2377 C2378 1.524 . S
C2377 C2381 1.400 . S
C2378 H2363 0.960 . S
C2378 H2364 0.960 . S
C2378 H2365 0.960 . S
C2378 C2377 1.524 . S
C2379 C2376 1.403 . S
C2379 C2380 1.392 . S
C2379 C2383 1.495 . S
C2380 C2379 1.392 . S
C2380 C2381 1.385 . S
C2380 C2382 1.478 . S
C2381 H2375 0.930 . S
C2381 C2377 1.400 . S
C2381 C2380 1.385 . S
C2382 C2380 1.478 . S
C2382 C2384 1.381 . S
C2382 C2388 1.383 . S
C2383 C2379 1.495 . S
C2383 H2389 0.959 . S
C2383 H2390 0.961 . S
C2383 H2391 0.960 . S
C2384 C2382 1.381 . S
C2384 C2385 1.394 . S
C2384 H2392 0.930 . S
C2385 C2384 1.394 . S
C2385 C2386 1.383 . S
C2385 H2393 0.929 . S
C2386 C2385 1.383 . S
C2386 C2387 1.377 . S
C2387 H2371 0.930 . S
C2387 C2386 1.377 . S
C2387 C2388 1.379 . S
C2388 H2372 0.931 . S
C2388 C2382 1.383 . S
C2388 C2387 1.379 . S
H2389 C2383 0.959 . S
H2390 C2383 0.961 . S
H2391 C2383 0.960 . S
H2392 C2384 0.930 . S
H2393 C2385 0.929 . S
H2394 C2402 0.929 . S
H2395 C2404 0.930 . S
H2396 C2406 0.930 . S
H2397 C2409 0.929 . S
H2398 C2412 0.930 . S
H2399 C2414 0.960 . S
H2400 C2414 0.960 . S
H2401 C2414 0.960 . S
C2402 H2394 0.929 . S
C2402 C2403 1.377 . S
C2402 C2404 1.384 . S
C2403 C2402 1.377 . S
C2403 C2409 1.390 . S
C2404 H2395 0.930 . S
C2404 C2402 1.384 . S
C2404 C2405 1.372 . S
C2405 C2404 1.372 . S
C2405 C2406 1.400 . S
C2405 C2410 1.490 . S
C2406 H2396 0.930 . S
C2406 C2405 1.400 . S
C2406 C2409 1.386 . S
H2407 C2423 0.930 . S
H2408 C2424 0.931 . S
C2409 H2397 0.929 . S
C2409 C2403 1.390 . S
C2409 C2406 1.386 . S
C2410 C2405 1.490 . S
C2410 C2412 1.395 . S
C2410 C2413 1.403 . S
H2411 C2417 0.930 . S
C2412 H2398 0.930 . S
C2412 C2410 1.395 . S
C2412 C2415 1.403 . S
C2413 C2410 1.403 . S
C2413 C2414 1.524 . S
C2413 C2417 1.400 . S
C2414 H2399 0.960 . S
C2414 H2400 0.960 . S
C2414 H2401 0.960 . S
C2414 C2413 1.524 . S
C2415 C2412 1.403 . S
C2415 C2416 1.392 . S
C2415 C2419 1.495 . S
C2416 C2415 1.392 . S
C2416 C2417 1.385 . S
C2416 C2418 1.478 . S
C2417 H2411 0.930 . S
C2417 C2413 1.400 . S
C2417 C2416 1.385 . S
C2418 C2416 1.478 . S
C2418 C2420 1.381 . S
C2418 C2424 1.383 . S
C2419 C2415 1.495 . S
C2419 H2425 0.959 . S
C2419 H2426 0.961 . S
C2419 H2427 0.960 . S
C2420 C2418 1.381 . S
C2420 C2421 1.394 . S
C2420 H2428 0.930 . S
C2421 C2420 1.394 . S
C2421 C2422 1.383 . S
C2421 H2429 0.929 . S
C2422 C2421 1.383 . S
C2422 C2423 1.377 . S
C2423 H2407 0.930 . S
C2423 C2422 1.377 . S
C2423 C2424 1.379 . S
C2424 H2408 0.931 . S
C2424 C2418 1.383 . S
C2424 C2423 1.379 . S
H2425 C2419 0.959 . S
H2426 C2419 0.961 . S
H2427 C2419 0.960 . S
H2428 C2420 0.930 . S
H2429 C2421 0.929 . S
H2430 C2438 0.929 . S
H2431 C2440 0.930 . S
H2432 C2442 0.930 . S
H2433 C2445 0.929 . S
H2434 C2448 0.930 . S
H2435 C2450 0.960 . S
H2436 C2450 0.960 . S
H2437 C2450 0.960 . S
C2438 H2430 0.929 . S
C2438 C2439 1.377 . S
C2438 C2440 1.384 . S
C2439 C2438 1.377 . S
C2439 C2445 1.390 . S
C2440 H2431 0.930 . S
C2440 C2438 1.384 . S
C2440 C2441 1.372 . S
C2441 C2440 1.372 . S
C2441 C2442 1.400 . S
C2441 C2446 1.490 . S
C2442 H2432 0.930 . S
C2442 C2441 1.400 . S
C2442 C2445 1.386 . S
H2443 C2459 0.930 . S
H2444 C2460 0.931 . S
C2445 H2433 0.929 . S
C2445 C2439 1.390 . S
C2445 C2442 1.386 . S
C2446 C2441 1.490 . S
C2446 C2448 1.395 . S
C2446 C2449 1.403 . S
H2447 C2453 0.930 . S
C2448 H2434 0.930 . S
C2448 C2446 1.395 . S
C2448 C2451 1.403 . S
C2449 C2446 1.403 . S
C2449 C2450 1.524 . S
C2449 C2453 1.400 . S
C2450 H2435 0.960 . S
C2450 H2436 0.960 . S
C2450 H2437 0.960 . S
C2450 C2449 1.524 . S
C2451 C2448 1.403 . S
C2451 C2452 1.392 . S
C2451 C2455 1.495 . S
C2452 C2451 1.392 . S
C2452 C2453 1.385 . S
C2452 C2454 1.478 . S
C2453 H2447 0.930 . S
C2453 C2449 1.400 . S
C2453 C2452 1.385 . S
C2454 C2452 1.478 . S
C2454 C2456 1.381 . S
C2454 C2460 1.383 . S
C2455 C2451 1.495 . S
C2455 H2461 0.959 . S
C2455 H2462 0.961 . S
C2455 H2463 0.960 . S
C2456 C2454 1.381 . S
C2456 C2457 1.394 . S
C2456 H2464 0.930 . S
C2457 C2456 1.394 . S
C2457 C2458 1.383 . S
C2457 H2465 0.929 . S
C2458 C2457 1.383 . S
C2458 C2459 1.377 . S
C2459 H2443 0.930 . S
C2459 C2458 1.377 . S
C2459 C2460 1.379 . S
C2460 H2444 0.931 . S
C2460 C2454 1.383 . S
C2460 C2459 1.379 . S
H2461 C2455 0.959 . S
H2462 C2455 0.961 . S
H2463 C2455 0.960 . S
H2464 C2456 0.930 . S
H2465 C2457 0.929 . S
H2466 C2474 0.929 . S
H2467 C2476 0.930 . S
H2468 C2478 0.930 . S
H2469 C2481 0.929 . S
H2470 C2484 0.930 . S
H2471 C2486 0.960 . S
H2472 C2486 0.960 . S
H2473 C2486 0.960 . S
C2474 H2466 0.929 . S
C2474 C2475 1.377 . S
C2474 C2476 1.384 . S
C2475 C2474 1.377 . S
C2475 C2481 1.390 . S
C2476 H2467 0.930 . S
C2476 C2474 1.384 . S
C2476 C2477 1.372 . S
C2477 C2476 1.372 . S
C2477 C2478 1.400 . S
C2477 C2482 1.490 . S
C2478 H2468 0.930 . S
C2478 C2477 1.400 . S
C2478 C2481 1.386 . S
H2479 C2495 0.930 . S
H2480 C2496 0.931 . S
C2481 H2469 0.929 . S
C2481 C2475 1.390 . S
C2481 C2478 1.386 . S
C2482 C2477 1.490 . S
C2482 C2484 1.395 . S
C2482 C2485 1.403 . S
H2483 C2489 0.930 . S
C2484 H2470 0.930 . S
C2484 C2482 1.395 . S
C2484 C2487 1.403 . S
C2485 C2482 1.403 . S
C2485 C2486 1.524 . S
C2485 C2489 1.400 . S
C2486 H2471 0.960 . S
C2486 H2472 0.960 . S
C2486 H2473 0.960 . S
C2486 C2485 1.524 . S
C2487 C2484 1.403 . S
C2487 C2488 1.392 . S
C2487 C2491 1.495 . S
C2488 C2487 1.392 . S
C2488 C2489 1.385 . S
C2488 C2490 1.478 . S
C2489 H2483 0.930 . S
C2489 C2485 1.400 . S
C2489 C2488 1.385 . S
C2490 C2488 1.478 . S
C2490 C2492 1.381 . S
C2490 C2496 1.383 . S
C2491 C2487 1.495 . S
C2491 H2497 0.959 . S
C2491 H2498 0.961 . S
C2491 H2499 0.960 . S
C2492 C2490 1.381 . S
C2492 C2493 1.394 . S
C2492 H2500 0.930 . S
C2493 C2492 1.394 . S
C2493 C2494 1.383 . S
C2493 H2501 0.929 . S
C2494 C2493 1.383 . S
C2494 C2495 1.377 . S
C2495 H2479 0.930 . S
C2495 C2494 1.377 . S
C2495 C2496 1.379 . S
C2496 H2480 0.931 . S
C2496 C2490 1.383 . S
C2496 C2495 1.379 . S
H2497 C2491 0.959 . S
H2498 C2491 0.961 . S
H2499 C2491 0.960 . S
H2500 C2492 0.930 . S
H2501 C2493 0.929 . S
H2502 C2510 0.929 1_554 S
H2503 C2512 0.930 . S
H2504 C2514 0.930 . S
H2505 C2517 0.929 . S
H2506 C2520 0.930 . S
H2507 C2522 0.960 . S
H2508 C2522 0.960 . S
H2509 C2522 0.960 . S
C2510 H2502 0.929 1_556 S
C2510 C2511 1.377 . S
C2510 C2512 1.384 . S
C2511 C2510 1.377 . S
C2511 C2517 1.390 . S
C2512 H2503 0.930 . S
C2512 C2510 1.384 . S
C2512 C2513 1.372 . S
C2513 C2512 1.372 . S
C2513 C2514 1.400 . S
C2513 C2518 1.490 . S
C2514 H2504 0.930 . S
C2514 C2513 1.400 . S
C2514 C2517 1.386 . S
H2515 C2531 0.930 . S
H2516 C2532 0.931 . S
C2517 H2505 0.929 . S
C2517 C2511 1.390 . S
C2517 C2514 1.386 . S
C2518 C2513 1.490 . S
C2518 C2520 1.395 . S
C2518 C2521 1.403 . S
H2519 C2525 0.930 . S
C2520 H2506 0.930 . S
C2520 C2518 1.395 . S
C2520 C2523 1.403 . S
C2521 C2518 1.403 . S
C2521 C2522 1.524 . S
C2521 C2525 1.400 . S
C2522 H2507 0.960 . S
C2522 H2508 0.960 . S
C2522 H2509 0.960 . S
C2522 C2521 1.524 . S
C2523 C2520 1.403 . S
C2523 C2524 1.392 . S
C2523 C2527 1.495 . S
C2524 C2523 1.392 . S
C2524 C2525 1.385 . S
C2524 C2526 1.478 . S
C2525 H2519 0.930 . S
C2525 C2521 1.400 . S
C2525 C2524 1.385 . S
C2526 C2524 1.478 . S
C2526 C2528 1.381 . S
C2526 C2532 1.383 . S
C2527 C2523 1.495 . S
C2527 H2533 0.959 . S
C2527 H2534 0.961 . S
C2527 H2535 0.960 . S
C2528 C2526 1.381 . S
C2528 C2529 1.394 . S
C2528 H2536 0.930 . S
C2529 C2528 1.394 . S
C2529 C2530 1.383 . S
C2529 H2537 0.929 . S
C2530 C2529 1.383 . S
C2530 C2531 1.377 . S
C2531 H2515 0.930 . S
C2531 C2530 1.377 . S
C2531 C2532 1.379 . S
C2532 H2516 0.931 . S
C2532 C2526 1.383 . S
C2532 C2531 1.379 . S
H2533 C2527 0.959 . S
H2534 C2527 0.961 . S
H2535 C2527 0.960 . S
H2536 C2528 0.930 . S
H2537 C2529 0.929 . S
H2538 C2546 0.929 . S
H2539 C2548 0.930 . S
H2540 C2550 0.930 . S
H2541 C2553 0.956 . S
H2542 C2556 0.930 . S
H2543 C2558 0.960 . S
H2544 C2558 0.960 . S
H2545 C2558 0.960 . S
C2546 H2538 0.929 . S
C2546 C2547 1.377 . S
C2546 C2548 1.384 . S
C2547 C2546 1.377 . S
C2547 C2553 1.390 . S
C2548 H2539 0.930 . S
C2548 C2546 1.384 . S
C2548 C2549 1.372 . S
C2549 C2548 1.372 . S
C2549 C2550 1.400 . S
C2549 C2554 1.490 . S
C2550 H2540 0.930 . S
C2550 C2549 1.400 . S
C2550 C2553 1.386 . S
H2551 C2567 0.930 . S
H2552 C2568 0.931 . S
C2553 H2541 0.956 . S
C2553 C2547 1.390 . S
C2553 C2550 1.386 . S
C2554 C2549 1.490 . S
C2554 C2556 1.395 . S
C2554 C2557 1.403 . S
H2555 C2561 0.930 . S
C2556 H2542 0.930 . S
C2556 C2554 1.395 . S
C2556 C2559 1.403 . S
C2557 C2554 1.403 . S
C2557 C2558 1.524 . S
C2557 C2561 1.400 . S
C2558 H2543 0.960 . S
C2558 H2544 0.960 . S
C2558 H2545 0.960 . S
C2558 C2557 1.524 . S
C2559 C2556 1.403 . S
C2559 C2560 1.392 . S
C2559 C2563 1.495 . S
C2560 C2559 1.392 . S
C2560 C2561 1.385 . S
C2560 C2562 1.478 . S
C2561 H2555 0.930 . S
C2561 C2557 1.400 . S
C2561 C2560 1.385 . S
C2562 C2560 1.478 . S
C2562 C2564 1.381 . S
C2562 C2568 1.383 . S
C2563 C2559 1.495 . S
C2563 H2569 0.959 . S
C2563 H2570 0.961 . S
C2563 H2571 0.960 . S
C2564 C2562 1.381 . S
C2564 C2565 1.394 . S
C2564 H2572 0.930 . S
C2565 C2564 1.394 . S
C2565 C2566 1.383 . S
C2565 H2573 0.929 . S
C2566 C2565 1.383 . S
C2566 C2567 1.377 . S
C2567 H2551 0.930 . S
C2567 C2566 1.377 . S
C2567 C2568 1.379 . S
C2568 H2552 0.931 . S
C2568 C2562 1.383 . S
C2568 C2567 1.379 . S
H2569 C2563 0.959 . S
H2570 C2563 0.961 . S
H2571 C2563 0.960 . S
H2572 C2564 0.930 . S
H2573 C2565 0.929 . S
H2574 C2582 0.929 . S
H2575 C2584 0.930 . S
H2576 C2586 0.930 . S
H2577 C2589 0.929 . S
H2578 C2592 0.930 . S
H2579 C2594 0.960 . S
H2580 C2594 0.960 . S
H2581 C2594 0.960 . S
C2582 H2574 0.929 . S
C2582 C2583 1.377 . S
C2582 C2584 1.384 . S
C2583 C2582 1.377 . S
C2583 C2589 1.390 . S
C2584 H2575 0.930 . S
C2584 C2582 1.384 . S
C2584 C2585 1.372 . S
C2585 C2584 1.372 . S
C2585 C2586 1.400 . S
C2585 C2590 1.490 . S
C2586 H2576 0.930 . S
C2586 C2585 1.400 . S
C2586 C2589 1.386 . S
H2587 C2603 0.930 . S
H2588 C2604 0.931 . S
C2589 H2577 0.929 . S
C2589 C2583 1.390 . S
C2589 C2586 1.386 . S
C2590 C2585 1.490 . S
C2590 C2592 1.395 . S
C2590 C2593 1.403 . S
H2591 C2597 0.930 . S
C2592 H2578 0.930 . S
C2592 C2590 1.395 . S
C2592 C2595 1.403 . S
C2593 C2590 1.403 . S
C2593 C2594 1.524 . S
C2593 C2597 1.400 . S
C2594 H2579 0.960 . S
C2594 H2580 0.960 . S
C2594 H2581 0.960 . S
C2594 C2593 1.524 . S
C2595 C2592 1.403 . S
C2595 C2596 1.392 . S
C2595 C2599 1.495 . S
C2596 C2595 1.392 . S
C2596 C2597 1.385 . S
C2596 C2598 1.478 . S
C2597 H2591 0.930 . S
C2597 C2593 1.400 . S
C2597 C2596 1.385 . S
C2598 C2596 1.478 . S
C2598 C2600 1.381 . S
C2598 C2604 1.383 . S
C2599 C2595 1.495 . S
C2599 H2605 0.959 . S
C2599 H2606 0.961 . S
C2599 H2607 0.960 . S
C2600 C2598 1.381 . S
C2600 C2601 1.394 . S
C2600 H2608 0.930 . S
C2601 C2600 1.394 . S
C2601 C2602 1.383 . S
C2601 H2609 0.929 . S
C2602 C2601 1.383 . S
C2602 C2603 1.377 . S
C2603 H2587 0.930 . S
C2603 C2602 1.377 . S
C2603 C2604 1.379 . S
C2604 H2588 0.931 . S
C2604 C2598 1.383 . S
C2604 C2603 1.379 . S
H2605 C2599 0.959 . S
H2606 C2599 0.961 . S
H2607 C2599 0.960 . S
H2608 C2600 0.930 . S
H2609 C2601 0.929 . S
H2610 C2618 0.929 . S
H2611 C2620 0.930 . S
H2612 C2622 0.930 . S
H2613 C2625 0.929 . S
H2614 C2628 0.930 . S
H2615 C2630 0.960 . S
H2616 C2630 0.960 . S
H2617 C2630 0.960 . S
C2618 H2610 0.929 . S
C2618 C2619 1.377 . S
C2618 C2620 1.384 . S
C2619 C2618 1.377 . S
C2619 C2625 1.390 . S
C2620 H2611 0.930 . S
C2620 C2618 1.384 . S
C2620 C2621 1.372 . S
C2621 C2620 1.372 . S
C2621 C2622 1.400 . S
C2621 C2626 1.490 . S
C2622 H2612 0.930 . S
C2622 C2621 1.400 . S
C2622 C2625 1.386 . S
H2623 C2639 0.930 . S
H2624 C2640 0.931 . S
C2625 H2613 0.929 . S
C2625 C2619 1.390 . S
C2625 C2622 1.386 . S
C2626 C2621 1.490 . S
C2626 C2628 1.395 . S
C2626 C2629 1.403 . S
H2627 C2633 0.930 . S
C2628 H2614 0.930 . S
C2628 C2626 1.395 . S
C2628 C2631 1.403 . S
C2629 C2626 1.403 . S
C2629 C2630 1.524 . S
C2629 C2633 1.400 . S
C2630 H2615 0.960 . S
C2630 H2616 0.960 . S
C2630 H2617 0.960 . S
C2630 C2629 1.524 . S
C2631 C2628 1.403 . S
C2631 C2632 1.392 . S
C2631 C2635 1.495 . S
C2632 C2631 1.392 . S
C2632 C2633 1.385 . S
C2632 C2634 1.478 . S
C2633 H2627 0.930 . S
C2633 C2629 1.400 . S
C2633 C2632 1.385 . S
C2634 C2632 1.478 . S
C2634 C2636 1.381 . S
C2634 C2640 1.383 . S
C2635 C2631 1.495 . S
C2635 H2641 0.959 . S
C2635 H2642 0.961 . S
C2635 H2643 0.960 . S
C2636 C2634 1.381 . S
C2636 C2637 1.394 . S
C2636 H2644 0.930 . S
C2637 C2636 1.394 . S
C2637 C2638 1.383 . S
C2637 H2645 0.929 . S
C2638 C2637 1.383 . S
C2638 C2639 1.377 . S
C2639 H2623 0.930 . S
C2639 C2638 1.377 . S
C2639 C2640 1.379 . S
C2640 H2624 0.931 . S
C2640 C2634 1.383 . S
C2640 C2639 1.379 . S
H2641 C2635 0.959 . S
H2642 C2635 0.961 . S
H2643 C2635 0.960 . S
H2644 C2636 0.930 . S
H2645 C2637 0.929 . S
H2646 C2654 0.929 . S
H2647 C2656 0.930 . S
H2648 C2658 0.930 . S
H2649 C2661 0.902 1_554 S
H2650 C2664 0.930 . S
H2651 C2666 0.960 . S
H2652 C2666 0.960 . S
H2653 C2666 0.960 . S
C2654 H2646 0.929 . S
C2654 C2655 1.377 . S
C2654 C2656 1.384 . S
C2655 C2654 1.377 . S
C2655 C2661 1.390 . S
C2656 H2647 0.930 . S
C2656 C2654 1.384 . S
C2656 C2657 1.372 . S
C2657 C2656 1.372 . S
C2657 C2658 1.400 . S
C2657 C2662 1.490 . S
C2658 H2648 0.930 . S
C2658 C2657 1.400 . S
C2658 C2661 1.386 . S
H2659 C2675 0.930 . S
H2660 C2676 0.931 . S
C2661 H2649 0.902 1_556 S
C2661 C2655 1.390 . S
C2661 C2658 1.386 . S
C2662 C2657 1.490 . S
C2662 C2664 1.395 . S
C2662 C2665 1.403 . S
H2663 C2669 0.930 . S
C2664 H2650 0.930 . S
C2664 C2662 1.395 . S
C2664 C2667 1.403 . S
C2665 C2662 1.403 . S
C2665 C2666 1.524 . S
C2665 C2669 1.400 . S
C2666 H2651 0.960 . S
C2666 H2652 0.960 . S
C2666 H2653 0.960 . S
C2666 C2665 1.524 . S
C2667 C2664 1.403 . S
C2667 C2668 1.392 . S
C2667 C2671 1.495 . S
C2668 C2667 1.392 . S
C2668 C2669 1.385 . S
C2668 C2670 1.478 . S
C2669 H2663 0.930 . S
C2669 C2665 1.400 . S
C2669 C2668 1.385 . S
C2670 C2668 1.478 . S
C2670 C2672 1.381 . S
C2670 C2676 1.383 . S
C2671 C2667 1.495 . S
C2671 H2677 0.959 . S
C2671 H2678 0.961 . S
C2671 H2679 0.960 . S
C2672 C2670 1.381 . S
C2672 C2673 1.394 . S
C2672 H2680 0.930 . S
C2673 C2672 1.394 . S
C2673 C2674 1.383 . S
C2673 H2681 0.929 . S
C2674 C2673 1.383 . S
C2674 C2675 1.377 . S
C2675 H2659 0.930 . S
C2675 C2674 1.377 . S
C2675 C2676 1.379 . S
C2676 H2660 0.931 . S
C2676 C2670 1.383 . S
C2676 C2675 1.379 . S
H2677 C2671 0.959 . S
H2678 C2671 0.961 . S
H2679 C2671 0.960 . S
H2680 C2672 0.930 . S
H2681 C2673 0.929 . S
H2682 C2690 0.949 . S
H2683 C2692 0.930 . S
H2684 C2694 0.930 . S
H2685 C2697 0.929 . S
H2686 C2700 0.930 . S
H2687 C2702 0.960 . S
H2688 C2702 0.960 . S
H2689 C2702 0.960 . S
C2690 H2682 0.949 . S
C2690 C2691 1.377 . S
C2690 C2692 1.384 . S
C2691 C2690 1.377 . S
C2691 C2697 1.390 . S
C2692 H2683 0.930 . S
C2692 C2690 1.384 . S
C2692 C2693 1.372 . S
C2693 C2692 1.372 . S
C2693 C2694 1.400 . S
C2693 C2698 1.490 . S
C2694 H2684 0.930 . S
C2694 C2693 1.400 . S
C2694 C2697 1.386 . S
H2695 C2711 0.930 . S
H2696 C2712 0.931 . S
C2697 H2685 0.929 . S
C2697 C2691 1.390 . S
C2697 C2694 1.386 . S
C2698 C2693 1.490 . S
C2698 C2700 1.395 . S
C2698 C2701 1.403 . S
H2699 C2705 0.930 . S
C2700 H2686 0.930 . S
C2700 C2698 1.395 . S
C2700 C2703 1.403 . S
C2701 C2698 1.403 . S
C2701 C2702 1.524 . S
C2701 C2705 1.400 . S
C2702 H2687 0.960 . S
C2702 H2688 0.960 . S
C2702 H2689 0.960 . S
C2702 C2701 1.524 . S
C2703 C2700 1.403 . S
C2703 C2704 1.392 . S
C2703 C2707 1.495 . S
C2704 C2703 1.392 . S
C2704 C2705 1.385 . S
C2704 C2706 1.478 . S
C2705 H2699 0.930 . S
C2705 C2701 1.400 . S
C2705 C2704 1.385 . S
C2706 C2704 1.478 . S
C2706 C2708 1.381 . S
C2706 C2712 1.383 . S
C2707 C2703 1.495 . S
C2707 H2713 0.959 . S
C2707 H2714 0.961 . S
C2707 H2715 0.960 . S
C2708 C2706 1.381 . S
C2708 C2709 1.394 . S
C2708 H2716 0.930 . S
C2709 C2708 1.394 . S
C2709 C2710 1.383 . S
C2709 H2717 0.929 . S
C2710 C2709 1.383 . S
C2710 C2711 1.377 . S
C2711 H2695 0.930 . S
C2711 C2710 1.377 . S
C2711 C2712 1.379 . S
C2712 H2696 0.931 . S
C2712 C2706 1.383 . S
C2712 C2711 1.379 . S
H2713 C2707 0.959 . S
H2714 C2707 0.961 . S
H2715 C2707 0.960 . S
H2716 C2708 0.930 . S
H2717 C2709 0.929 . S
H2718 C2726 0.929 . S
H2719 C2728 0.930 . S
H2720 C2730 0.930 . S
H2721 C2733 0.929 . S
H2722 C2736 0.930 . S
H2723 C2738 0.960 . S
H2724 C2738 0.960 . S
H2725 C2738 0.960 . S
C2726 H2718 0.929 . S
C2726 C2727 1.377 . S
C2726 C2728 1.384 . S
C2727 C2726 1.377 . S
C2727 C2733 1.390 . S
C2728 H2719 0.930 . S
C2728 C2726 1.384 . S
C2728 C2729 1.372 . S
C2729 C2728 1.372 . S
C2729 C2730 1.400 . S
C2729 C2734 1.490 . S
C2730 H2720 0.930 . S
C2730 C2729 1.400 . S
C2730 C2733 1.386 . S
H2731 C2747 0.930 . S
H2732 C2748 0.931 . S
C2733 H2721 0.929 . S
C2733 C2727 1.390 . S
C2733 C2730 1.386 . S
C2734 C2729 1.490 . S
C2734 C2736 1.395 . S
C2734 C2737 1.403 . S
H2735 C2741 0.930 . S
C2736 H2722 0.930 . S
C2736 C2734 1.395 . S
C2736 C2739 1.403 . S
C2737 C2734 1.403 . S
C2737 C2738 1.524 . S
C2737 C2741 1.400 . S
C2738 H2723 0.960 . S
C2738 H2724 0.960 . S
C2738 H2725 0.960 . S
C2738 C2737 1.524 . S
C2739 C2736 1.403 . S
C2739 C2740 1.392 . S
C2739 C2743 1.495 . S
C2740 C2739 1.392 . S
C2740 C2741 1.385 . S
C2740 C2742 1.478 . S
C2741 H2735 0.930 . S
C2741 C2737 1.400 . S
C2741 C2740 1.385 . S
C2742 C2740 1.478 . S
C2742 C2744 1.381 . S
C2742 C2748 1.383 . S
C2743 C2739 1.495 . S
C2743 H2749 0.959 . S
C2743 H2750 0.961 . S
C2743 H2751 0.960 . S
C2744 C2742 1.381 . S
C2744 C2745 1.394 . S
C2744 H2752 0.930 . S
C2745 C2744 1.394 . S
C2745 C2746 1.383 . S
C2745 H2753 0.929 . S
C2746 C2745 1.383 . S
C2746 C2747 1.377 . S
C2747 H2731 0.930 . S
C2747 C2746 1.377 . S
C2747 C2748 1.379 . S
C2748 H2732 0.931 . S
C2748 C2742 1.383 . S
C2748 C2747 1.379 . S
H2749 C2743 0.959 . S
H2750 C2743 0.961 . S
H2751 C2743 0.960 . S
H2752 C2744 0.930 . S
H2753 C2745 0.929 . S
H2754 C2762 0.929 . S
H2755 C2764 0.930 . S
H2756 C2766 0.930 . S
H2757 C2769 0.929 . S
H2758 C2772 0.930 . S
H2759 C2774 0.960 . S
H2760 C2774 0.960 . S
H2761 C2774 0.960 . S
C2762 H2754 0.929 . S
C2762 C2763 1.377 . S
C2762 C2764 1.384 . S
C2763 C2762 1.377 . S
C2763 C2769 1.390 . S
C2764 H2755 0.930 . S
C2764 C2762 1.384 . S
C2764 C2765 1.372 . S
C2765 C2764 1.372 . S
C2765 C2766 1.400 . S
C2765 C2770 1.490 . S
C2766 H2756 0.930 . S
C2766 C2765 1.400 . S
C2766 C2769 1.386 . S
H2767 C2783 0.930 . S
H2768 C2784 0.931 . S
C2769 H2757 0.929 . S
C2769 C2763 1.390 . S
C2769 C2766 1.386 . S
C2770 C2765 1.490 . S
C2770 C2772 1.395 . S
C2770 C2773 1.403 . S
H2771 C2777 0.930 . S
C2772 H2758 0.930 . S
C2772 C2770 1.395 . S
C2772 C2775 1.403 . S
C2773 C2770 1.403 . S
C2773 C2774 1.524 . S
C2773 C2777 1.400 . S
C2774 H2759 0.960 . S
C2774 H2760 0.960 . S
C2774 H2761 0.960 . S
C2774 C2773 1.524 . S
C2775 C2772 1.403 . S
C2775 C2776 1.392 . S
C2775 C2779 1.495 . S
C2776 C2775 1.392 . S
C2776 C2777 1.385 . S
C2776 C2778 1.478 . S
C2777 H2771 0.930 . S
C2777 C2773 1.400 . S
C2777 C2776 1.385 . S
C2778 C2776 1.478 . S
C2778 C2780 1.381 . S
C2778 C2784 1.383 . S
C2779 C2775 1.495 . S
C2779 H2785 0.959 . S
C2779 H2786 0.961 . S
C2779 H2787 0.960 . S
C2780 C2778 1.381 . S
C2780 C2781 1.394 . S
C2780 H2788 0.930 . S
C2781 C2780 1.394 . S
C2781 C2782 1.383 . S
C2781 H2789 0.929 . S
C2782 C2781 1.383 . S
C2782 C2783 1.377 . S
C2783 H2767 0.930 . S
C2783 C2782 1.377 . S
C2783 C2784 1.379 . S
C2784 H2768 0.931 . S
C2784 C2778 1.383 . S
C2784 C2783 1.379 . S
H2785 C2779 0.959 . S
H2786 C2779 0.961 . S
H2787 C2779 0.960 . S
H2788 C2780 0.930 . S
H2789 C2781 0.929 . S
H2790 C2798 0.929 . S
H2791 C2800 0.930 . S
H2792 C2802 0.930 . S
H2793 C2805 0.929 . S
H2794 C2808 0.930 . S
H2795 C2810 0.960 . S
H2796 C2810 0.960 . S
H2797 C2810 0.960 . S
C2798 H2790 0.929 . S
C2798 C2799 1.377 . S
C2798 C2800 1.384 . S
C2799 C2798 1.377 . S
C2799 C2805 1.390 . S
C2800 H2791 0.930 . S
C2800 C2798 1.384 . S
C2800 C2801 1.372 . S
C2801 C2800 1.372 . S
C2801 C2802 1.400 . S
C2801 C2806 1.490 . S
C2802 H2792 0.930 . S
C2802 C2801 1.400 . S
C2802 C2805 1.386 . S
H2803 C2819 0.930 . S
H2804 C2820 0.931 . S
C2805 H2793 0.929 . S
C2805 C2799 1.390 . S
C2805 C2802 1.386 . S
C2806 C2801 1.490 . S
C2806 C2808 1.395 . S
C2806 C2809 1.403 . S
H2807 C2813 0.930 . S
C2808 H2794 0.930 . S
C2808 C2806 1.395 . S
C2808 C2811 1.403 . S
C2809 C2806 1.403 . S
C2809 C2810 1.524 . S
C2809 C2813 1.400 . S
C2810 H2795 0.960 . S
C2810 H2796 0.960 . S
C2810 H2797 0.960 . S
C2810 C2809 1.524 . S
C2811 C2808 1.403 . S
C2811 C2812 1.392 . S
C2811 C2815 1.495 . S
C2812 C2811 1.392 . S
C2812 C2813 1.385 . S
C2812 C2814 1.478 . S
C2813 H2807 0.930 . S
C2813 C2809 1.400 . S
C2813 C2812 1.385 . S
C2814 C2812 1.478 . S
C2814 C2816 1.381 . S
C2814 C2820 1.383 . S
C2815 C2811 1.495 . S
C2815 H2821 0.959 . S
C2815 H2822 0.961 . S
C2815 H2823 0.960 . S
C2816 C2814 1.381 . S
C2816 C2817 1.394 . S
C2816 H2824 0.930 . S
C2817 C2816 1.394 . S
C2817 C2818 1.383 . S
C2817 H2825 0.929 . S
C2818 C2817 1.383 . S
C2818 C2819 1.377 . S
C2819 H2803 0.930 . S
C2819 C2818 1.377 . S
C2819 C2820 1.379 . S
C2820 H2804 0.931 . S
C2820 C2814 1.383 . S
C2820 C2819 1.379 . S
H2821 C2815 0.959 . S
H2822 C2815 0.961 . S
H2823 C2815 0.960 . S
H2824 C2816 0.930 . S
H2825 C2817 0.929 . S
H2826 C2834 0.929 . S
H2827 C2836 0.930 . S
H2828 C2838 0.930 . S
H2829 C2841 0.929 . S
H2830 C2844 0.930 . S
H2831 C2846 0.960 . S
H2832 C2846 0.960 . S
H2833 C2846 0.960 . S
C2834 H2826 0.929 . S
C2834 C2835 1.377 . S
C2834 C2836 1.384 . S
C2835 C2834 1.377 . S
C2835 C2841 1.390 . S
C2836 H2827 0.930 . S
C2836 C2834 1.384 . S
C2836 C2837 1.372 . S
C2837 C2836 1.372 . S
C2837 C2838 1.400 . S
C2837 C2842 1.490 . S
C2838 H2828 0.930 . S
C2838 C2837 1.400 . S
C2838 C2841 1.386 . S
H2839 C2855 0.930 . S
H2840 C2856 0.931 . S
C2841 H2829 0.929 . S
C2841 C2835 1.390 . S
C2841 C2838 1.386 . S
C2842 C2837 1.490 . S
C2842 C2844 1.395 . S
C2842 C2845 1.403 . S
H2843 C2849 0.930 . S
C2844 H2830 0.930 . S
C2844 C2842 1.395 . S
C2844 C2847 1.403 . S
C2845 C2842 1.403 . S
C2845 C2846 1.524 . S
C2845 C2849 1.400 . S
C2846 H2831 0.960 . S
C2846 H2832 0.960 . S
C2846 H2833 0.960 . S
C2846 C2845 1.524 . S
C2847 C2844 1.403 . S
C2847 C2848 1.392 . S
C2847 C2851 1.495 . S
C2848 C2847 1.392 . S
C2848 C2849 1.385 . S
C2848 C2850 1.478 . S
C2849 H2843 0.930 . S
C2849 C2845 1.400 . S
C2849 C2848 1.385 . S
C2850 C2848 1.478 . S
C2850 C2852 1.381 . S
C2850 C2856 1.383 . S
C2851 C2847 1.495 . S
C2851 H2857 0.959 . S
C2851 H2858 0.961 . S
C2851 H2859 0.960 . S
C2852 C2850 1.381 . S
C2852 C2853 1.394 . S
C2852 H2860 0.930 . S
C2853 C2852 1.394 . S
C2853 C2854 1.383 . S
C2853 H2861 0.929 . S
C2854 C2853 1.383 . S
C2854 C2855 1.377 . S
C2855 H2839 0.930 . S
C2855 C2854 1.377 . S
C2855 C2856 1.379 . S
C2856 H2840 0.931 . S
C2856 C2850 1.383 . S
C2856 C2855 1.379 . S
H2857 C2851 0.959 . S
H2858 C2851 0.961 . S
H2859 C2851 0.960 . S
H2860 C2852 0.930 . S
H2861 C2853 0.929 . S
H2862 C2870 0.929 . S
H2863 C2872 0.930 . S
H2864 C2874 0.930 . S
H2865 C2877 0.929 . S
H2866 C2880 0.930 . S
H2867 C2882 0.960 . S
H2868 C2882 0.960 . S
H2869 C2882 0.960 . S
C2870 H2862 0.929 . S
C2870 C2871 1.377 . S
C2870 C2872 1.384 . S
C2871 C2870 1.377 . S
C2871 C2877 1.390 . S
C2872 H2863 0.930 . S
C2872 C2870 1.384 . S
C2872 C2873 1.372 . S
C2873 C2872 1.372 . S
C2873 C2874 1.400 . S
C2873 C2878 1.490 . S
C2874 H2864 0.930 . S
C2874 C2873 1.400 . S
C2874 C2877 1.386 . S
H2875 C2891 0.930 . S
H2876 C2892 0.931 . S
C2877 H2865 0.929 . S
C2877 C2871 1.390 . S
C2877 C2874 1.386 . S
C2878 C2873 1.490 . S
C2878 C2880 1.395 . S
C2878 C2881 1.403 . S
H2879 C2885 0.930 . S
C2880 H2866 0.930 . S
C2880 C2878 1.395 . S
C2880 C2883 1.403 . S
C2881 C2878 1.403 . S
C2881 C2882 1.524 . S
C2881 C2885 1.400 . S
C2882 H2867 0.960 . S
C2882 H2868 0.960 . S
C2882 H2869 0.960 . S
C2882 C2881 1.524 . S
C2883 C2880 1.403 . S
C2883 C2884 1.392 . S
C2883 C2887 1.495 . S
C2884 C2883 1.392 . S
C2884 C2885 1.385 . S
C2884 C2886 1.478 . S
C2885 H2879 0.930 . S
C2885 C2881 1.400 . S
C2885 C2884 1.385 . S
C2886 C2884 1.478 . S
C2886 C2888 1.381 . S
C2886 C2892 1.383 . S
C2887 C2883 1.495 . S
C2887 H2893 0.959 . S
C2887 H2894 0.961 . S
C2887 H2895 0.960 . S
C2888 C2886 1.381 . S
C2888 C2889 1.394 . S
C2888 H2896 0.930 . S
C2889 C2888 1.394 . S
C2889 C2890 1.383 . S
C2889 H2897 0.929 . S
C2890 C2889 1.383 . S
C2890 C2891 1.377 . S
C2891 H2875 0.930 . S
C2891 C2890 1.377 . S
C2891 C2892 1.379 . S
C2892 H2876 0.931 . S
C2892 C2886 1.383 . S
C2892 C2891 1.379 . S
H2893 C2887 0.959 . S
H2894 C2887 0.961 . S
H2895 C2887 0.960 . S
H2896 C2888 0.930 . S
H2897 C2889 0.929 . S
H2898 C2906 0.929 . S
H2899 C2908 0.930 . S
H2900 C2910 0.930 . S
H2901 C2913 0.929 . S
H2902 C2916 0.930 . S
H2903 C2918 0.960 . S
H2904 C2918 0.960 . S
H2905 C2918 0.960 . S
C2906 H2898 0.929 . S
C2906 C2907 1.377 . S
C2906 C2908 1.384 . S
C2907 C2906 1.377 . S
C2907 C2913 1.390 . S
C2908 H2899 0.930 . S
C2908 C2906 1.384 . S
C2908 C2909 1.372 . S
C2909 C2908 1.372 . S
C2909 C2910 1.400 . S
C2909 C2914 1.490 . S
C2910 H2900 0.930 . S
C2910 C2909 1.400 . S
C2910 C2913 1.386 . S
H2911 C2927 0.930 . S
H2912 C2928 0.931 . S
C2913 H2901 0.929 . S
C2913 C2907 1.390 . S
C2913 C2910 1.386 . S
C2914 C2909 1.490 . S
C2914 C2916 1.395 . S
C2914 C2917 1.403 . S
H2915 C2921 0.930 . S
C2916 H2902 0.930 . S
C2916 C2914 1.395 . S
C2916 C2919 1.403 . S
C2917 C2914 1.403 . S
C2917 C2918 1.524 . S
C2917 C2921 1.400 . S
C2918 H2903 0.960 . S
C2918 H2904 0.960 . S
C2918 H2905 0.960 . S
C2918 C2917 1.524 . S
C2919 C2916 1.403 . S
C2919 C2920 1.392 . S
C2919 C2923 1.495 . S
C2920 C2919 1.392 . S
C2920 C2921 1.385 . S
C2920 C2922 1.478 . S
C2921 H2915 0.930 . S
C2921 C2917 1.400 . S
C2921 C2920 1.385 . S
C2922 C2920 1.478 . S
C2922 C2924 1.381 . S
C2922 C2928 1.383 . S
C2923 C2919 1.495 . S
C2923 H2929 0.959 . S
C2923 H2930 0.961 . S
C2923 H2931 0.960 . S
C2924 C2922 1.381 . S
C2924 C2925 1.394 . S
C2924 H2932 0.930 . S
C2925 C2924 1.394 . S
C2925 C2926 1.383 . S
C2925 H2933 0.929 . S
C2926 C2925 1.383 . S
C2926 C2927 1.377 . S
C2927 H2911 0.930 . S
C2927 C2926 1.377 . S
C2927 C2928 1.379 . S
C2928 H2912 0.931 . S
C2928 C2922 1.383 . S
C2928 C2927 1.379 . S
H2929 C2923 0.959 . S
H2930 C2923 0.961 . S
H2931 C2923 0.960 . S
H2932 C2924 0.930 . S
H2933 C2925 0.929 . S
H2934 C2942 0.929 . S
H2935 C2944 0.930 . S
H2936 C2946 0.995 . S
H2937 C2949 0.930 1_655 S
H2938 C2952 0.930 . S
H2939 C2954 0.960 . S
H2940 C2954 0.960 . S
H2941 C2954 0.960 . S
C2942 H2934 0.929 . S
C2942 C2943 1.377 . S
C2942 C2944 1.384 . S
C2943 C2942 1.377 . S
C2943 C2949 1.388 . S
C2944 H2935 0.930 . S
C2944 C2942 1.384 . S
C2944 C2945 1.372 . S
C2945 C2944 1.372 . S
C2945 C2946 1.373 1_455 S
C2945 C2950 1.490 . S
C2946 H2936 0.995 . S
C2946 C2945 1.373 1_655 S
C2946 C2949 1.353 1_655 S
H2947 C2963 0.930 . S
H2948 C2964 0.931 . S
C2949 H2937 0.930 1_455 S
C2949 C2943 1.388 . S
C2949 C2946 1.353 1_455 S
C2950 C2945 1.490 . S
C2950 C2952 1.395 . S
C2950 C2953 1.465 . S
H2951 C2957 0.900 1_655 S
C2952 H2938 0.930 . S
C2952 C2950 1.395 . S
C2952 C2955 1.403 . S
C2953 C2950 1.465 . S
C2953 C2954 1.493 1_455 S
C2953 C2957 1.385 . S
C2954 H2939 0.960 . S
C2954 H2940 0.960 . S
C2954 H2941 0.960 . S
C2954 C2953 1.493 1_655 S
C2955 C2952 1.403 . S
C2955 C2956 1.392 . S
C2955 C2959 1.495 . S
C2956 C2955 1.392 . S
C2956 C2957 1.400 . S
C2956 C2958 1.478 . S
C2957 H2951 0.900 1_455 S
C2957 C2953 1.385 . S
C2957 C2956 1.400 . S
C2958 C2956 1.478 . S
C2958 C2960 1.381 . S
C2958 C2964 1.383 1_455 S
C2959 C2955 1.495 . S
C2959 H2965 0.959 . S
C2959 H2966 0.961 . S
C2959 H2967 0.960 . S
C2960 C2958 1.381 . S
C2960 C2961 1.394 . S
C2960 H2968 0.930 . S
C2961 C2960 1.394 . S
C2961 C2962 1.383 . S
C2961 H2969 0.929 . S
C2962 C2961 1.383 . S
C2962 C2963 1.377 1_455 S
C2963 H2947 0.930 . S
C2963 C2962 1.377 1_655 S
C2963 C2964 1.379 . S
C2964 H2948 0.931 . S
C2964 C2958 1.383 1_655 S
C2964 C2963 1.379 . S
H2965 C2959 0.959 . S
H2966 C2959 0.961 . S
H2967 C2959 0.960 . S
H2968 C2960 0.930 . S
H2969 C2961 0.929 . S
H2970 C2978 0.929 . S
H2971 C2980 0.930 . S
H2972 C2982 0.930 . S
H2973 C2985 0.929 . S
H2974 C2988 0.930 . S
H2975 C2990 0.960 . S
H2976 C2990 0.960 . S
H2977 C2990 0.960 . S
C2978 H2970 0.929 . S
C2978 C2979 1.377 . S
C2978 C2980 1.384 . S
C2979 C2978 1.377 . S
C2979 C2985 1.390 . S
C2980 H2971 0.930 . S
C2980 C2978 1.384 . S
C2980 C2981 1.372 . S
C2981 C2980 1.372 . S
C2981 C2982 1.400 . S
C2981 C2986 1.490 . S
C2982 H2972 0.930 . S
C2982 C2981 1.400 . S
C2982 C2985 1.386 . S
H2983 C2999 0.930 . S
H2984 C3000 0.931 . S
C2985 H2973 0.929 . S
C2985 C2979 1.390 . S
C2985 C2982 1.386 . S
C2986 C2981 1.490 . S
C2986 C2988 1.395 . S
C2986 C2989 1.403 . S
H2987 C2993 0.930 . S
C2988 H2974 0.930 . S
C2988 C2986 1.395 . S
C2988 C2991 1.403 . S
C2989 C2986 1.403 . S
C2989 C2990 1.524 . S
C2989 C2993 1.400 . S
C2990 H2975 0.960 . S
C2990 H2976 0.960 . S
C2990 H2977 0.960 . S
C2990 C2989 1.524 . S
C2991 C2988 1.403 . S
C2991 C2992 1.392 . S
C2991 C2995 1.495 . S
C2992 C2991 1.392 . S
C2992 C2993 1.385 . S
C2992 C2994 1.478 . S
C2993 H2987 0.930 . S
C2993 C2989 1.400 . S
C2993 C2992 1.385 . S
C2994 C2992 1.478 . S
C2994 C2996 1.381 . S
C2994 C3000 1.383 . S
C2995 C2991 1.495 . S
C2995 H3001 0.959 . S
C2995 H3002 0.961 . S
C2995 H3003 0.960 . S
C2996 C2994 1.381 . S
C2996 C2997 1.394 . S
C2996 H3004 0.930 . S
C2997 C2996 1.394 . S
C2997 C2998 1.383 . S
C2997 H3005 0.929 . S
C2998 C2997 1.383 . S
C2998 C2999 1.377 . S
C2999 H2983 0.930 . S
C2999 C2998 1.377 . S
C2999 C3000 1.379 . S
C3000 H2984 0.931 . S
C3000 C2994 1.383 . S
C3000 C2999 1.379 . S
H3001 C2995 0.959 . S
H3002 C2995 0.961 . S
H3003 C2995 0.960 . S
H3004 C2996 0.930 . S
H3005 C2997 0.929 . S
H3006 C3014 0.929 . S
H3007 C3016 0.930 . S
H3008 C3018 0.930 . S
H3009 C3021 0.929 . S
H3010 C3024 0.930 . S
H3011 C3026 0.960 . S
H3012 C3026 0.960 . S
H3013 C3026 0.960 . S
C3014 H3006 0.929 . S
C3014 C3015 1.377 1_545 S
C3014 C3016 1.384 . S
C3015 C3014 1.377 1_565 S
C3015 C3021 1.390 . S
C3016 H3007 0.930 . S
C3016 C3014 1.384 . S
C3016 C3017 1.372 1_545 S
C3017 C3016 1.372 1_565 S
C3017 C3018 1.400 . S
C3017 C3022 1.490 . S
C3018 H3008 0.930 . S
C3018 C3017 1.400 . S
C3018 C3021 1.386 . S
H3019 C3035 0.930 . S
H3020 C3036 0.931 . S
C3021 H3009 0.929 . S
C3021 C3015 1.390 . S
C3021 C3018 1.386 . S
C3022 C3017 1.490 . S
C3022 C3024 1.395 . S
C3022 C3025 1.403 . S
H3023 C3029 0.930 . S
C3024 H3010 0.930 . S
C3024 C3022 1.395 . S
C3024 C3027 1.403 . S
C3025 C3022 1.403 . S
C3025 C3026 1.524 . S
C3025 C3029 1.400 . S
C3026 H3011 0.960 . S
C3026 H3012 0.960 . S
C3026 H3013 0.960 . S
C3026 C3025 1.524 . S
C3027 C3024 1.403 . S
C3027 C3028 1.392 . S
C3027 C3031 1.495 1_565 S
C3028 C3027 1.392 . S
C3028 C3029 1.385 . S
C3028 C3030 1.478 . S
C3029 H3023 0.930 . S
C3029 C3025 1.400 . S
C3029 C3028 1.385 . S
C3030 C3028 1.478 . S
C3030 C3032 1.381 1_565 S
C3030 C3036 1.383 . S
C3031 C3027 1.495 1_545 S
C3031 H3037 0.959 . S
C3031 H3038 0.961 1_545 S
C3031 H3039 0.960 . S
C3032 C3030 1.381 1_545 S
C3032 C3033 1.394 . S
C3032 H3040 0.930 . S
C3033 C3032 1.394 . S
C3033 C3034 1.383 1_545 S
C3033 H3041 0.929 . S
C3034 C3033 1.383 1_565 S
C3034 C3035 1.377 . S
C3035 H3019 0.930 . S
C3035 C3034 1.377 . S
C3035 C3036 1.379 . S
C3036 H3020 0.931 . S
C3036 C3030 1.383 . S
C3036 C3035 1.379 . S
H3037 C3031 0.959 . S
H3038 C3031 0.961 1_565 S
H3039 C3031 0.960 . S
H3040 C3032 0.930 . S
H3041 C3033 0.929 . S
H3042 C3050 0.929 . S
H3043 C3052 0.930 . S
H3044 C3054 0.930 1_545 S
H3045 C3057 0.929 1_545 S
H3046 C3060 0.930 . S
H3047 C3062 0.960 . S
H3048 C3062 0.960 . S
H3049 C3062 0.960 . S
C3050 H3042 0.929 . S
C3050 C3051 1.377 . S
C3050 C3052 1.384 . S
C3051 C3050 1.377 . S
C3051 C3057 1.390 . S
C3052 H3043 0.930 . S
C3052 C3050 1.384 . S
C3052 C3053 1.372 . S
C3053 C3052 1.372 . S
C3053 C3054 1.400 . S
C3053 C3058 1.490 . S
C3054 H3044 0.930 1_565 S
C3054 C3053 1.400 . S
C3054 C3057 1.386 . S
H3055 C3071 0.930 . S
H3056 C3072 0.931 . S
C3057 H3045 0.929 1_565 S
C3057 C3051 1.390 . S
C3057 C3054 1.386 . S
C3058 C3053 1.490 . S
C3058 C3060 1.395 . S
C3058 C3061 1.403 . S
H3059 C3065 0.930 . S
C3060 H3046 0.930 . S
C3060 C3058 1.395 . S
C3060 C3063 1.403 . S
C3061 C3058 1.403 . S
C3061 C3062 1.524 . S
C3061 C3065 1.400 . S
C3062 H3047 0.960 . S
C3062 H3048 0.960 . S
C3062 H3049 0.960 . S
C3062 C3061 1.524 . S
C3063 C3060 1.403 . S
C3063 C3064 1.392 . S
C3063 C3067 1.495 1_565 S
C3064 C3063 1.392 . S
C3064 C3065 1.385 . S
C3064 C3066 1.478 . S
C3065 H3059 0.930 . S
C3065 C3061 1.400 . S
C3065 C3064 1.385 . S
C3066 C3064 1.478 . S
C3066 C3068 1.381 . S
C3066 C3072 1.383 1_565 S
C3067 C3063 1.495 1_545 S
C3067 H3073 0.959 . S
C3067 H3074 0.961 . S
C3067 H3075 0.960 1_545 S
C3068 C3066 1.381 . S
C3068 C3069 1.394 . S
C3068 H3076 0.930 . S
C3069 C3068 1.394 . S
C3069 C3070 1.383 . S
C3069 H3077 0.929 . S
C3070 C3069 1.383 . S
C3070 C3071 1.377 1_565 S
C3071 H3055 0.930 . S
C3071 C3070 1.377 1_545 S
C3071 C3072 1.379 . S
C3072 H3056 0.931 . S
C3072 C3066 1.383 1_545 S
C3072 C3071 1.379 . S
H3073 C3067 0.959 . S
H3074 C3067 0.961 . S
H3075 C3067 0.960 1_565 S
H3076 C3068 0.930 . S
H3077 C3069 0.929 . S
H3078 C3086 0.929 . S
H3079 C3088 0.930 . S
H3080 C3090 0.930 . S
H3081 C3093 0.977 . S
H3082 C3096 0.930 . S
H3083 C3098 0.972 . S
H3084 C3098 0.938 1_455 S
H3085 C3098 1.019 . S
C3086 H3078 0.929 . S
C3086 C3087 1.377 . S
C3086 C3088 1.384 . S
C3087 C3086 1.377 . S
C3087 C3093 1.362 1_455 S
C3088 H3079 0.930 . S
C3088 C3086 1.384 . S
C3088 C3089 1.372 . S
C3089 C3088 1.372 . S
C3089 C3090 1.400 1_455 S
C3089 C3094 1.490 . S
C3090 H3080 0.930 . S
C3090 C3089 1.400 1_655 S
C3090 C3093 1.367 . S
H3091 C3107 0.930 . S
H3092 C3108 0.931 . S
C3093 H3081 0.977 . S
C3093 C3087 1.362 1_655 S
C3093 C3090 1.367 . S
C3094 C3089 1.490 . S
C3094 C3096 1.395 . S
C3094 C3097 1.403 . S
H3095 C3101 0.916 1_655 S
C3096 H3082 0.930 . S
C3096 C3094 1.395 . S
C3096 C3099 1.403 . S
C3097 C3094 1.403 . S
C3097 C3098 1.480 1_455 S
C3097 C3101 1.400 . S
C3098 H3083 0.972 . S
C3098 H3084 0.938 1_655 S
C3098 H3085 1.019 . S
C3098 C3097 1.480 1_655 S
C3099 C3096 1.403 . S
C3099 C3100 1.392 . S
C3099 C3103 1.495 . S
C3100 C3099 1.392 . S
C3100 C3101 1.385 . S
C3100 C3102 1.478 . S
C3101 H3095 0.916 1_455 S
C3101 C3097 1.400 . S
C3101 C3100 1.385 . S
C3102 C3100 1.478 . S
C3102 C3104 1.381 . S
C3102 C3108 1.383 1_455 S
C3103 C3099 1.495 . S
C3103 H3109 0.959 . S
C3103 H3110 0.961 . S
C3103 H3111 0.960 . S
C3104 C3102 1.381 . S
C3104 C3105 1.394 . S
C3104 H3112 0.930 . S
C3105 C3104 1.394 . S
C3105 C3106 1.383 . S
C3105 H3113 0.929 . S
C3106 C3105 1.383 . S
C3106 C3107 1.377 1_455 S
C3107 H3091 0.930 . S
C3107 C3106 1.377 1_655 S
C3107 C3108 1.379 . S
C3108 H3092 0.931 . S
C3108 C3102 1.383 1_655 S
C3108 C3107 1.379 . S
H3109 C3103 0.959 . S
H3110 C3103 0.961 . S
H3111 C3103 0.960 . S
H3112 C3104 0.930 . S
H3113 C3105 0.929 . S
H3114 C3122 0.929 . S
H3115 C3124 0.930 . S
H3116 C3126 0.930 . S
H3117 C3129 0.929 . S
H3118 C3132 0.930 . S
H3119 C3134 0.960 . S
H3120 C3134 0.960 . S
H3121 C3134 0.960 . S
C3122 H3114 0.929 . S
C3122 C3123 1.377 . S
C3122 C3124 1.384 . S
C3123 C3122 1.377 . S
C3123 C3129 1.390 . S
C3124 H3115 0.930 . S
C3124 C3122 1.384 . S
C3124 C3125 1.372 . S
C3125 C3124 1.372 . S
C3125 C3126 1.400 . S
C3125 C3130 1.490 . S
C3126 H3116 0.930 . S
C3126 C3125 1.400 . S
C3126 C3129 1.386 . S
H3127 C3143 0.930 . S
H3128 C3144 0.931 . S
C3129 H3117 0.929 . S
C3129 C3123 1.390 . S
C3129 C3126 1.386 . S
C3130 C3125 1.490 . S
C3130 C3132 1.395 . S
C3130 C3133 1.403 . S
H3131 C3137 0.930 . S
C3132 H3118 0.930 . S
C3132 C3130 1.395 . S
C3132 C3135 1.403 . S
C3133 C3130 1.403 . S
C3133 C3134 1.524 . S
C3133 C3137 1.400 . S
C3134 H3119 0.960 . S
C3134 H3120 0.960 . S
C3134 H3121 0.960 . S
C3134 C3133 1.524 . S
C3135 C3132 1.403 . S
C3135 C3136 1.392 . S
C3135 C3139 1.495 . S
C3136 C3135 1.392 . S
C3136 C3137 1.385 . S
C3136 C3138 1.478 . S
C3137 H3131 0.930 . S
C3137 C3133 1.400 . S
C3137 C3136 1.385 . S
C3138 C3136 1.478 . S
C3138 C3140 1.381 . S
C3138 C3144 1.383 . S
C3139 C3135 1.495 . S
C3139 H3145 0.959 . S
C3139 H3146 0.961 . S
C3139 H3147 0.960 . S
C3140 C3138 1.381 . S
C3140 C3141 1.394 . S
C3140 H3148 0.930 . S
C3141 C3140 1.394 . S
C3141 C3142 1.383 . S
C3141 H3149 0.929 . S
C3142 C3141 1.383 . S
C3142 C3143 1.377 . S
C3143 H3127 0.930 . S
C3143 C3142 1.377 . S
C3143 C3144 1.379 . S
C3144 H3128 0.931 . S
C3144 C3138 1.383 . S
C3144 C3143 1.379 . S
H3145 C3139 0.959 . S
H3146 C3139 0.961 . S
H3147 C3139 0.960 . S
H3148 C3140 0.930 . S
H3149 C3141 0.929 . S
H3150 C3158 0.929 . S
H3151 C3160 0.930 . S
H3152 C3162 0.930 . S
H3153 C3165 0.929 . S
H3154 C3168 0.930 . S
H3155 C3170 0.960 . S
H3156 C3170 0.960 . S
H3157 C3170 0.960 . S
C3158 H3150 0.929 . S
C3158 C3159 1.377 . S
C3158 C3160 1.384 . S
C3159 C3158 1.377 . S
C3159 C3165 1.390 . S
C3160 H3151 0.930 . S
C3160 C3158 1.384 . S
C3160 C3161 1.372 . S
C3161 C3160 1.372 . S
C3161 C3162 1.400 . S
C3161 C3166 1.490 . S
C3162 H3152 0.930 . S
C3162 C3161 1.400 . S
C3162 C3165 1.386 . S
H3163 C3179 0.930 . S
H3164 C3180 0.931 . S
C3165 H3153 0.929 . S
C3165 C3159 1.390 . S
C3165 C3162 1.386 . S
C3166 C3161 1.490 . S
C3166 C3168 1.395 . S
C3166 C3169 1.403 . S
H3167 C3173 0.930 . S
C3168 H3154 0.930 . S
C3168 C3166 1.395 . S
C3168 C3171 1.403 . S
C3169 C3166 1.403 . S
C3169 C3170 1.524 . S
C3169 C3173 1.400 . S
C3170 H3155 0.960 . S
C3170 H3156 0.960 . S
C3170 H3157 0.960 . S
C3170 C3169 1.524 . S
C3171 C3168 1.403 . S
C3171 C3172 1.392 . S
C3171 C3175 1.495 . S
C3172 C3171 1.392 . S
C3172 C3173 1.385 . S
C3172 C3174 1.478 . S
C3173 H3167 0.930 . S
C3173 C3169 1.400 . S
C3173 C3172 1.385 . S
C3174 C3172 1.478 . S
C3174 C3176 1.381 . S
C3174 C3180 1.383 . S
C3175 C3171 1.495 . S
C3175 H3181 0.959 . S
C3175 H3182 0.961 . S
C3175 H3183 0.960 . S
C3176 C3174 1.381 . S
C3176 C3177 1.394 . S
C3176 H3184 0.930 . S
C3177 C3176 1.394 . S
C3177 C3178 1.383 . S
C3177 H3185 0.929 . S
C3178 C3177 1.383 . S
C3178 C3179 1.377 . S
C3179 H3163 0.930 . S
C3179 C3178 1.377 . S
C3179 C3180 1.379 . S
C3180 H3164 0.931 . S
C3180 C3174 1.383 . S
C3180 C3179 1.379 . S
H3181 C3175 0.959 . S
H3182 C3175 0.961 . S
H3183 C3175 0.960 . S
H3184 C3176 0.930 . S
H3185 C3177 0.929 . S
H3186 C3194 0.929 . S
H3187 C3196 0.930 . S
H3188 C3198 0.930 . S
H3189 C3201 0.929 . S
H3190 C3204 0.930 . S
H3191 C3206 0.960 . S
H3192 C3206 0.960 . S
H3193 C3206 0.960 . S
C3194 H3186 0.929 . S
C3194 C3195 1.377 . S
C3194 C3196 1.384 . S
C3195 C3194 1.377 . S
C3195 C3201 1.390 . S
C3196 H3187 0.930 . S
C3196 C3194 1.384 . S
C3196 C3197 1.372 . S
C3197 C3196 1.372 . S
C3197 C3198 1.400 . S
C3197 C3202 1.490 . S
C3198 H3188 0.930 . S
C3198 C3197 1.400 . S
C3198 C3201 1.386 . S
H3199 C3215 0.930 . S
H3200 C3216 0.931 . S
C3201 H3189 0.929 . S
C3201 C3195 1.390 . S
C3201 C3198 1.386 . S
C3202 C3197 1.490 . S
C3202 C3204 1.395 . S
C3202 C3205 1.403 . S
H3203 C3209 0.930 . S
C3204 H3190 0.930 . S
C3204 C3202 1.395 . S
C3204 C3207 1.403 . S
C3205 C3202 1.403 . S
C3205 C3206 1.524 . S
C3205 C3209 1.400 . S
C3206 H3191 0.960 . S
C3206 H3192 0.960 . S
C3206 H3193 0.960 . S
C3206 C3205 1.524 . S
C3207 C3204 1.403 . S
C3207 C3208 1.392 . S
C3207 C3211 1.495 . S
C3208 C3207 1.392 . S
C3208 C3209 1.385 . S
C3208 C3210 1.478 . S
C3209 H3203 0.930 . S
C3209 C3205 1.400 . S
C3209 C3208 1.385 . S
C3210 C3208 1.478 . S
C3210 C3212 1.381 . S
C3210 C3216 1.383 . S
C3211 C3207 1.495 . S
C3211 H3217 0.959 . S
C3211 H3218 0.961 . S
C3211 H3219 0.960 . S
C3212 C3210 1.381 . S
C3212 C3213 1.394 . S
C3212 H3220 0.930 . S
C3213 C3212 1.394 . S
C3213 C3214 1.383 . S
C3213 H3221 0.929 . S
C3214 C3213 1.383 . S
C3214 C3215 1.377 . S
C3215 H3199 0.930 . S
C3215 C3214 1.377 . S
C3215 C3216 1.379 . S
C3216 H3200 0.931 . S
C3216 C3210 1.383 . S
C3216 C3215 1.379 . S
H3217 C3211 0.959 . S
H3218 C3211 0.961 . S
H3219 C3211 0.960 . S
H3220 C3212 0.930 . S
H3221 C3213 0.929 . S
H3222 C3230 0.929 . S
H3223 C3232 0.930 . S
H3224 C3234 0.930 . S
H3225 C3237 0.929 . S
H3226 C3240 0.930 . S
H3227 C3242 0.960 . S
H3228 C3242 0.960 . S
H3229 C3242 0.960 . S
C3230 H3222 0.929 . S
C3230 C3231 1.377 . S
C3230 C3232 1.384 . S
C3231 C3230 1.377 . S
C3231 C3237 1.390 . S
C3232 H3223 0.930 . S
C3232 C3230 1.384 . S
C3232 C3233 1.372 . S
C3233 C3232 1.372 . S
C3233 C3234 1.400 . S
C3233 C3238 1.490 . S
C3234 H3224 0.930 . S
C3234 C3233 1.400 . S
C3234 C3237 1.386 . S
H3235 C3251 0.930 . S
H3236 C3252 0.931 . S
C3237 H3225 0.929 . S
C3237 C3231 1.390 . S
C3237 C3234 1.386 . S
C3238 C3233 1.490 . S
C3238 C3240 1.395 . S
C3238 C3241 1.403 . S
H3239 C3245 0.930 . S
C3240 H3226 0.930 . S
C3240 C3238 1.395 . S
C3240 C3243 1.403 . S
C3241 C3238 1.403 . S
C3241 C3242 1.524 . S
C3241 C3245 1.400 . S
C3242 H3227 0.960 . S
C3242 H3228 0.960 . S
C3242 H3229 0.960 . S
C3242 C3241 1.524 . S
C3243 C3240 1.403 . S
C3243 C3244 1.392 . S
C3243 C3247 1.495 . S
C3244 C3243 1.392 . S
C3244 C3245 1.385 . S
C3244 C3246 1.478 . S
C3245 H3239 0.930 . S
C3245 C3241 1.400 . S
C3245 C3244 1.385 . S
C3246 C3244 1.478 . S
C3246 C3248 1.381 . S
C3246 C3252 1.383 . S
C3247 C3243 1.495 . S
C3247 H3253 0.959 . S
C3247 H3254 0.961 . S
C3247 H3255 0.960 . S
C3248 C3246 1.381 . S
C3248 C3249 1.394 . S
C3248 H3256 0.930 . S
C3249 C3248 1.394 . S
C3249 C3250 1.383 . S
C3249 H3257 0.929 . S
C3250 C3249 1.383 . S
C3250 C3251 1.377 . S
C3251 H3235 0.930 . S
C3251 C3250 1.377 . S
C3251 C3252 1.379 . S
C3252 H3236 0.931 . S
C3252 C3246 1.383 . S
C3252 C3251 1.379 . S
H3253 C3247 0.959 . S
H3254 C3247 0.961 . S
H3255 C3247 0.960 . S
H3256 C3248 0.930 . S
H3257 C3249 0.929 . S
H3258 C3266 0.929 . S
H3259 C3268 0.930 . S
H3260 C3270 0.972 . S
H3261 C3273 0.918 1_565 S
H3262 C3276 0.930 . S
H3263 C3278 0.960 . S
H3264 C3278 0.960 . S
H3265 C3278 0.960 1_565 S
C3266 H3258 0.929 . S
C3266 C3267 1.377 . S
C3266 C3268 1.384 . S
C3267 C3266 1.377 . S
C3267 C3273 1.411 . S
C3268 H3259 0.930 . S
C3268 C3266 1.384 . S
C3268 C3269 1.372 . S
C3269 C3268 1.372 . S
C3269 C3270 1.379 1_545 S
C3269 C3274 1.490 . S
C3270 H3260 0.972 . S
C3270 C3269 1.379 1_565 S
C3270 C3273 1.356 1_565 S
H3271 C3287 0.930 . S
H3272 C3288 0.931 . S
C3273 H3261 0.918 1_545 S
C3273 C3267 1.411 . S
C3273 C3270 1.356 1_545 S
C3274 C3269 1.490 . S
C3274 C3276 1.395 . S
C3274 C3277 1.403 . S
H3275 C3281 0.930 . S
C3276 H3262 0.930 . S
C3276 C3274 1.395 . S
C3276 C3279 1.403 . S
C3277 C3274 1.403 . S
C3277 C3278 1.524 . S
C3277 C3281 1.400 . S
C3278 H3263 0.960 . S
C3278 H3264 0.960 . S
C3278 H3265 0.960 1_545 S
C3278 C3277 1.524 . S
C3279 C3276 1.403 . S
C3279 C3280 1.392 . S
C3279 C3283 1.495 . S
C3280 C3279 1.392 . S
C3280 C3281 1.385 . S
C3280 C3282 1.478 . S
C3281 H3275 0.930 . S
C3281 C3277 1.400 . S
C3281 C3280 1.385 . S
C3282 C3280 1.478 . S
C3282 C3284 1.381 . S
C3282 C3288 1.383 1_545 S
C3283 C3279 1.495 . S
C3283 H3289 0.959 . S
C3283 H3290 0.961 . S
C3283 H3291 0.960 . S
C3284 C3282 1.381 . S
C3284 C3285 1.394 . S
C3284 H3292 0.930 . S
C3285 C3284 1.394 . S
C3285 C3286 1.383 . S
C3285 H3293 0.929 . S
C3286 C3285 1.383 . S
C3286 C3287 1.377 1_545 S
C3287 H3271 0.930 . S
C3287 C3286 1.377 1_565 S
C3287 C3288 1.379 . S
C3288 H3272 0.931 . S
C3288 C3282 1.383 1_565 S
C3288 C3287 1.379 . S
H3289 C3283 0.959 . S
H3290 C3283 0.961 . S
H3291 C3283 0.960 . S
H3292 C3284 0.930 . S
H3293 C3285 0.929 . S
H3294 C3302 0.929 . S
H3295 C3304 0.930 . S
H3296 C3306 0.930 . S
H3297 C3309 1.004 . S
H3298 C3312 0.930 . S
H3299 C3314 0.973 1_455 S
H3300 C3314 0.994 . S
H3301 C3314 0.906 1_455 S
C3302 H3294 0.929 . S
C3302 C3303 1.377 . S
C3302 C3304 1.384 . S
C3303 C3302 1.377 . S
C3303 C3309 1.349 1_655 S
C3304 H3295 0.930 . S
C3304 C3302 1.384 . S
C3304 C3305 1.372 . S
C3305 C3304 1.372 . S
C3305 C3306 1.400 1_655 S
C3305 C3310 1.490 . S
C3306 H3296 0.930 . S
C3306 C3305 1.400 1_455 S
C3306 C3309 1.356 . S
H3307 C3323 0.930 . S
H3308 C3324 0.931 . S
C3309 H3297 1.004 . S
C3309 C3303 1.349 1_455 S
C3309 C3306 1.356 . S
C3310 C3305 1.490 . S
C3310 C3312 1.395 . S
C3310 C3313 1.403 . S
H3311 C3317 0.927 . S
C3312 H3298 0.930 . S
C3312 C3310 1.395 . S
C3312 C3315 1.403 . S
C3313 C3310 1.403 . S
C3313 C3314 1.535 . S
C3313 C3317 1.400 . S
C3314 H3299 0.973 1_655 S
C3314 H3300 0.994 . S
C3314 H3301 0.906 1_655 S
C3314 C3313 1.535 . S
C3315 C3312 1.403 . S
C3315 C3316 1.392 . S
C3315 C3319 1.495 . S
C3316 C3315 1.392 . S
C3316 C3317 1.385 . S
C3316 C3318 1.478 . S
C3317 H3311 0.927 . S
C3317 C3313 1.400 . S
C3317 C3316 1.385 . S
C3318 C3316 1.478 . S
C3318 C3320 1.381 . S
C3318 C3324 1.383 1_655 S
C3319 C3315 1.495 . S
C3319 H3325 0.959 . S
C3319 H3326 0.961 . S
C3319 H3327 0.960 . S
C3320 C3318 1.381 . S
C3320 C3321 1.394 . S
C3320 H3328 0.930 . S
C3321 C3320 1.394 . S
C3321 C3322 1.383 . S
C3321 H3329 0.929 . S
C3322 C3321 1.383 . S
C3322 C3323 1.377 1_655 S
C3323 H3307 0.930 . S
C3323 C3322 1.377 1_455 S
C3323 C3324 1.379 . S
C3324 H3308 0.931 . S
C3324 C3318 1.383 1_455 S
C3324 C3323 1.379 . S
H3325 C3319 0.959 . S
H3326 C3319 0.961 . S
H3327 C3319 0.960 . S
H3328 C3320 0.930 . S
H3329 C3321 0.929 . S
H3330 C3338 0.929 . S
H3331 C3340 0.930 . S
H3332 C3342 0.930 . S
H3333 C3345 0.929 . S
H3334 C3348 0.930 . S
H3335 C3350 0.960 . S
H3336 C3350 0.960 . S
H3337 C3350 0.960 . S
C3338 H3330 0.929 . S
C3338 C3339 1.377 . S
C3338 C3340 1.384 . S
C3339 C3338 1.377 . S
C3339 C3345 1.390 . S
C3340 H3331 0.930 . S
C3340 C3338 1.384 . S
C3340 C3341 1.372 . S
C3341 C3340 1.372 . S
C3341 C3342 1.400 . S
C3341 C3346 1.490 . S
C3342 H3332 0.930 . S
C3342 C3341 1.400 . S
C3342 C3345 1.386 . S
H3343 C3359 0.930 . S
H3344 C3360 0.931 . S
C3345 H3333 0.929 . S
C3345 C3339 1.390 . S
C3345 C3342 1.386 . S
C3346 C3341 1.490 . S
C3346 C3348 1.395 . S
C3346 C3349 1.403 . S
H3347 C3353 0.930 . S
C3348 H3334 0.930 . S
C3348 C3346 1.395 . S
C3348 C3351 1.403 . S
C3349 C3346 1.403 . S
C3349 C3350 1.524 . S
C3349 C3353 1.400 . S
C3350 H3335 0.960 . S
C3350 H3336 0.960 . S
C3350 H3337 0.960 . S
C3350 C3349 1.524 . S
C3351 C3348 1.403 . S
C3351 C3352 1.392 . S
C3351 C3355 1.495 . S
C3352 C3351 1.392 . S
C3352 C3353 1.385 . S
C3352 C3354 1.478 . S
C3353 H3347 0.930 . S
C3353 C3349 1.400 . S
C3353 C3352 1.385 . S
C3354 C3352 1.478 . S
C3354 C3356 1.381 . S
C3354 C3360 1.383 . S
C3355 C3351 1.495 . S
C3355 H3361 0.959 . S
C3355 H3362 0.961 . S
C3355 H3363 0.960 . S
C3356 C3354 1.381 . S
C3356 C3357 1.394 . S
C3356 H3364 0.930 . S
C3357 C3356 1.394 . S
C3357 C3358 1.383 . S
C3357 H3365 0.929 . S
C3358 C3357 1.383 . S
C3358 C3359 1.377 . S
C3359 H3343 0.930 . S
C3359 C3358 1.377 . S
C3359 C3360 1.379 . S
C3360 H3344 0.931 . S
C3360 C3354 1.383 . S
C3360 C3359 1.379 . S
H3361 C3355 0.959 . S
H3362 C3355 0.961 . S
H3363 C3355 0.960 . S
H3364 C3356 0.930 . S
H3365 C3357 0.929 . S
H3366 C3374 0.929 . S
H3367 C3376 0.930 . S
H3368 C3378 0.930 . S
H3369 C3381 0.929 . S
H3370 C3384 0.930 . S
H3371 C3386 0.960 . S
H3372 C3386 0.960 . S
H3373 C3386 0.960 . S
C3374 H3366 0.929 . S
C3374 C3375 1.377 . S
C3374 C3376 1.384 . S
C3375 C3374 1.377 . S
C3375 C3381 1.390 . S
C3376 H3367 0.930 . S
C3376 C3374 1.384 . S
C3376 C3377 1.372 . S
C3377 C3376 1.372 . S
C3377 C3378 1.400 . S
C3377 C3382 1.490 . S
C3378 H3368 0.930 . S
C3378 C3377 1.400 . S
C3378 C3381 1.386 . S
H3379 C3395 0.930 . S
H3380 C3396 0.931 . S
C3381 H3369 0.929 . S
C3381 C3375 1.390 . S
C3381 C3378 1.386 . S
C3382 C3377 1.490 . S
C3382 C3384 1.395 . S
C3382 C3385 1.403 . S
H3383 C3389 0.930 . S
C3384 H3370 0.930 . S
C3384 C3382 1.395 . S
C3384 C3387 1.403 . S
C3385 C3382 1.403 . S
C3385 C3386 1.524 . S
C3385 C3389 1.400 . S
C3386 H3371 0.960 . S
C3386 H3372 0.960 . S
C3386 H3373 0.960 . S
C3386 C3385 1.524 . S
C3387 C3384 1.403 . S
C3387 C3388 1.392 . S
C3387 C3391 1.495 . S
C3388 C3387 1.392 . S
C3388 C3389 1.385 . S
C3388 C3390 1.478 . S
C3389 H3383 0.930 . S
C3389 C3385 1.400 . S
C3389 C3388 1.385 . S
C3390 C3388 1.478 . S
C3390 C3392 1.381 . S
C3390 C3396 1.383 . S
C3391 C3387 1.495 . S
C3391 H3397 0.959 . S
C3391 H3398 0.961 . S
C3391 H3399 0.960 . S
C3392 C3390 1.381 . S
C3392 C3393 1.394 . S
C3392 H3400 0.930 . S
C3393 C3392 1.394 . S
C3393 C3394 1.383 . S
C3393 H3401 0.929 . S
C3394 C3393 1.383 . S
C3394 C3395 1.377 . S
C3395 H3379 0.930 . S
C3395 C3394 1.377 . S
C3395 C3396 1.379 . S
C3396 H3380 0.931 . S
C3396 C3390 1.383 . S
C3396 C3395 1.379 . S
H3397 C3391 0.959 . S
H3398 C3391 0.961 . S
H3399 C3391 0.960 . S
H3400 C3392 0.930 . S
H3401 C3393 0.929 . S
H3402 C3410 0.929 . S
H3403 C3412 0.930 . S
H3404 C3414 0.930 . S
H3405 C3417 0.929 . S
H3406 C3420 0.930 . S
H3407 C3422 0.960 . S
H3408 C3422 0.960 . S
H3409 C3422 0.960 . S
C3410 H3402 0.929 . S
C3410 C3411 1.377 . S
C3410 C3412 1.384 . S
C3411 C3410 1.377 . S
C3411 C3417 1.390 . S
C3412 H3403 0.930 . S
C3412 C3410 1.384 . S
C3412 C3413 1.372 . S
C3413 C3412 1.372 . S
C3413 C3414 1.400 . S
C3413 C3418 1.490 . S
C3414 H3404 0.930 . S
C3414 C3413 1.400 . S
C3414 C3417 1.386 . S
H3415 C3431 0.930 . S
H3416 C3432 0.931 . S
C3417 H3405 0.929 . S
C3417 C3411 1.390 . S
C3417 C3414 1.386 . S
C3418 C3413 1.490 . S
C3418 C3420 1.395 . S
C3418 C3421 1.403 . S
H3419 C3425 0.930 . S
C3420 H3406 0.930 . S
C3420 C3418 1.395 . S
C3420 C3423 1.403 . S
C3421 C3418 1.403 . S
C3421 C3422 1.524 . S
C3421 C3425 1.400 . S
C3422 H3407 0.960 . S
C3422 H3408 0.960 . S
C3422 H3409 0.960 . S
C3422 C3421 1.524 . S
C3423 C3420 1.403 . S
C3423 C3424 1.392 . S
C3423 C3427 1.495 . S
C3424 C3423 1.392 . S
C3424 C3425 1.385 . S
C3424 C3426 1.478 . S
C3425 H3419 0.930 . S
C3425 C3421 1.400 . S
C3425 C3424 1.385 . S
C3426 C3424 1.478 . S
C3426 C3428 1.381 . S
C3426 C3432 1.383 . S
C3427 C3423 1.495 . S
C3427 H3433 0.959 . S
C3427 H3434 0.961 . S
C3427 H3435 0.960 . S
C3428 C3426 1.381 . S
C3428 C3429 1.394 . S
C3428 H3436 0.930 . S
C3429 C3428 1.394 . S
C3429 C3430 1.383 . S
C3429 H3437 0.929 . S
C3430 C3429 1.383 . S
C3430 C3431 1.377 . S
C3431 H3415 0.930 . S
C3431 C3430 1.377 . S
C3431 C3432 1.379 . S
C3432 H3416 0.931 . S
C3432 C3426 1.383 . S
C3432 C3431 1.379 . S
H3433 C3427 0.959 . S
H3434 C3427 0.961 . S
H3435 C3427 0.960 . S
H3436 C3428 0.930 . S
H3437 C3429 0.929 . S
H3438 C3446 0.929 . S
H3439 C3448 0.930 . S
H3440 C3450 0.930 . S
H3441 C3453 0.929 . S
H3442 C3456 0.930 . S
H3443 C3458 0.960 . S
H3444 C3458 0.960 . S
H3445 C3458 0.960 . S
C3446 H3438 0.929 . S
C3446 C3447 1.377 . S
C3446 C3448 1.384 . S
C3447 C3446 1.377 . S
C3447 C3453 1.390 . S
C3448 H3439 0.930 . S
C3448 C3446 1.384 . S
C3448 C3449 1.372 . S
C3449 C3448 1.372 . S
C3449 C3450 1.400 . S
C3449 C3454 1.490 . S
C3450 H3440 0.930 . S
C3450 C3449 1.400 . S
C3450 C3453 1.386 . S
H3451 C3467 0.930 . S
H3452 C3468 0.931 . S
C3453 H3441 0.929 . S
C3453 C3447 1.390 . S
C3453 C3450 1.386 . S
C3454 C3449 1.490 . S
C3454 C3456 1.395 . S
C3454 C3457 1.403 . S
H3455 C3461 0.930 . S
C3456 H3442 0.930 . S
C3456 C3454 1.395 . S
C3456 C3459 1.403 . S
C3457 C3454 1.403 . S
C3457 C3458 1.524 . S
C3457 C3461 1.400 . S
C3458 H3443 0.960 . S
C3458 H3444 0.960 . S
C3458 H3445 0.960 . S
C3458 C3457 1.524 . S
C3459 C3456 1.403 . S
C3459 C3460 1.392 . S
C3459 C3463 1.495 . S
C3460 C3459 1.392 . S
C3460 C3461 1.385 . S
C3460 C3462 1.478 . S
C3461 H3455 0.930 . S
C3461 C3457 1.400 . S
C3461 C3460 1.385 . S
C3462 C3460 1.478 . S
C3462 C3464 1.381 . S
C3462 C3468 1.383 . S
C3463 C3459 1.495 . S
C3463 H3469 0.959 . S
C3463 H3470 0.961 . S
C3463 H3471 0.960 . S
C3464 C3462 1.381 . S
C3464 C3465 1.394 . S
C3464 H3472 0.930 . S
C3465 C3464 1.394 . S
C3465 C3466 1.383 . S
C3465 H3473 0.929 . S
C3466 C3465 1.383 . S
C3466 C3467 1.377 . S
C3467 H3451 0.930 . S
C3467 C3466 1.377 . S
C3467 C3468 1.379 . S
C3468 H3452 0.931 . S
C3468 C3462 1.383 . S
C3468 C3467 1.379 . S
H3469 C3463 0.959 . S
H3470 C3463 0.961 . S
H3471 C3463 0.960 . S
H3472 C3464 0.930 . S
H3473 C3465 0.929 . S
H3474 C3482 0.929 . S
H3475 C3484 0.930 . S
H3476 C3486 0.930 . S
H3477 C3489 0.929 . S
H3478 C3492 0.930 . S
H3479 C3494 0.960 . S
H3480 C3494 0.960 . S
H3481 C3494 0.960 . S
C3482 H3474 0.929 . S
C3482 C3483 1.377 . S
C3482 C3484 1.384 . S
C3483 C3482 1.377 . S
C3483 C3489 1.390 . S
C3484 H3475 0.930 . S
C3484 C3482 1.384 . S
C3484 C3485 1.372 . S
C3485 C3484 1.372 . S
C3485 C3486 1.400 . S
C3485 C3490 1.490 . S
C3486 H3476 0.930 . S
C3486 C3485 1.400 . S
C3486 C3489 1.386 . S
H3487 C3503 0.930 . S
H3488 C3504 0.931 . S
C3489 H3477 0.929 . S
C3489 C3483 1.390 . S
C3489 C3486 1.386 . S
C3490 C3485 1.490 . S
C3490 C3492 1.395 . S
C3490 C3493 1.403 . S
H3491 C3497 0.930 . S
C3492 H3478 0.930 . S
C3492 C3490 1.395 . S
C3492 C3495 1.403 . S
C3493 C3490 1.403 . S
C3493 C3494 1.524 . S
C3493 C3497 1.400 . S
C3494 H3479 0.960 . S
C3494 H3480 0.960 . S
C3494 H3481 0.960 . S
C3494 C3493 1.524 . S
C3495 C3492 1.403 . S
C3495 C3496 1.392 . S
C3495 C3499 1.495 . S
C3496 C3495 1.392 . S
C3496 C3497 1.385 . S
C3496 C3498 1.478 . S
C3497 H3491 0.930 . S
C3497 C3493 1.400 . S
C3497 C3496 1.385 . S
C3498 C3496 1.478 . S
C3498 C3500 1.381 . S
C3498 C3504 1.383 . S
C3499 C3495 1.495 . S
C3499 H3505 0.959 . S
C3499 H3506 0.961 . S
C3499 H3507 0.960 . S
C3500 C3498 1.381 . S
C3500 C3501 1.394 . S
C3500 H3508 0.930 . S
C3501 C3500 1.394 . S
C3501 C3502 1.383 . S
C3501 H3509 0.929 . S
C3502 C3501 1.383 . S
C3502 C3503 1.377 . S
C3503 H3487 0.930 . S
C3503 C3502 1.377 . S
C3503 C3504 1.379 . S
C3504 H3488 0.931 . S
C3504 C3498 1.383 . S
C3504 C3503 1.379 . S
H3505 C3499 0.959 . S
H3506 C3499 0.961 . S
H3507 C3499 0.960 . S
H3508 C3500 0.930 . S
H3509 C3501 0.929 . S
H3510 C3518 0.929 . S
H3511 C3520 0.930 . S
H3512 C3522 0.930 . S
H3513 C3525 0.929 . S
H3514 C3528 0.930 . S
H3515 C3530 0.960 . S
H3516 C3530 0.960 . S
H3517 C3530 0.960 . S
C3518 H3510 0.929 . S
C3518 C3519 1.377 . S
C3518 C3520 1.384 . S
C3519 C3518 1.377 . S
C3519 C3525 1.390 . S
C3520 H3511 0.930 . S
C3520 C3518 1.384 . S
C3520 C3521 1.372 . S
C3521 C3520 1.372 . S
C3521 C3522 1.400 . S
C3521 C3526 1.490 . S
C3522 H3512 0.930 . S
C3522 C3521 1.400 . S
C3522 C3525 1.386 . S
H3523 C3539 0.930 . S
H3524 C3540 0.931 . S
C3525 H3513 0.929 . S
C3525 C3519 1.390 . S
C3525 C3522 1.386 . S
C3526 C3521 1.490 . S
C3526 C3528 1.395 . S
C3526 C3529 1.403 . S
H3527 C3533 0.930 . S
C3528 H3514 0.930 . S
C3528 C3526 1.395 . S
C3528 C3531 1.403 . S
C3529 C3526 1.403 . S
C3529 C3530 1.524 . S
C3529 C3533 1.400 . S
C3530 H3515 0.960 . S
C3530 H3516 0.960 . S
C3530 H3517 0.960 . S
C3530 C3529 1.524 . S
C3531 C3528 1.403 . S
C3531 C3532 1.392 . S
C3531 C3535 1.495 . S
C3532 C3531 1.392 . S
C3532 C3533 1.385 . S
C3532 C3534 1.478 . S
C3533 H3527 0.930 . S
C3533 C3529 1.400 . S
C3533 C3532 1.385 . S
C3534 C3532 1.478 . S
C3534 C3536 1.381 . S
C3534 C3540 1.383 . S
C3535 C3531 1.495 . S
C3535 H3541 0.959 . S
C3535 H3542 0.961 . S
C3535 H3543 0.960 . S
C3536 C3534 1.381 . S
C3536 C3537 1.394 . S
C3536 H3544 0.930 . S
C3537 C3536 1.394 . S
C3537 C3538 1.383 . S
C3537 H3545 0.929 . S
C3538 C3537 1.383 . S
C3538 C3539 1.377 . S
C3539 H3523 0.930 . S
C3539 C3538 1.377 . S
C3539 C3540 1.379 . S
C3540 H3524 0.931 . S
C3540 C3534 1.383 . S
C3540 C3539 1.379 . S
H3541 C3535 0.959 . S
H3542 C3535 0.961 . S
H3543 C3535 0.960 . S
H3544 C3536 0.930 . S
H3545 C3537 0.929 . S
H3546 C3554 0.929 . S
H3547 C3556 0.930 . S
H3548 C3558 0.930 . S
H3549 C3561 0.929 . S
H3550 C3564 0.930 . S
H3551 C3566 0.960 . S
H3552 C3566 0.960 . S
H3553 C3566 0.960 . S
C3554 H3546 0.929 . S
C3554 C3555 1.377 . S
C3554 C3556 1.384 . S
C3555 C3554 1.377 . S
C3555 C3561 1.390 . S
C3556 H3547 0.930 . S
C3556 C3554 1.384 . S
C3556 C3557 1.372 . S
C3557 C3556 1.372 . S
C3557 C3558 1.400 . S
C3557 C3562 1.490 . S
C3558 H3548 0.930 . S
C3558 C3557 1.400 . S
C3558 C3561 1.386 . S
H3559 C3575 0.930 . S
H3560 C3576 0.931 . S
C3561 H3549 0.929 . S
C3561 C3555 1.390 . S
C3561 C3558 1.386 . S
C3562 C3557 1.490 . S
C3562 C3564 1.395 . S
C3562 C3565 1.403 . S
H3563 C3569 0.930 . S
C3564 H3550 0.930 . S
C3564 C3562 1.395 . S
C3564 C3567 1.403 . S
C3565 C3562 1.403 . S
C3565 C3566 1.524 . S
C3565 C3569 1.400 . S
C3566 H3551 0.960 . S
C3566 H3552 0.960 . S
C3566 H3553 0.960 . S
C3566 C3565 1.524 . S
C3567 C3564 1.403 . S
C3567 C3568 1.392 . S
C3567 C3571 1.495 . S
C3568 C3567 1.392 . S
C3568 C3569 1.385 . S
C3568 C3570 1.478 . S
C3569 H3563 0.930 . S
C3569 C3565 1.400 . S
C3569 C3568 1.385 . S
C3570 C3568 1.478 . S
C3570 C3572 1.381 . S
C3570 C3576 1.383 . S
C3571 C3567 1.495 . S
C3571 H3577 0.959 . S
C3571 H3578 0.961 . S
C3571 H3579 0.960 . S
C3572 C3570 1.381 . S
C3572 C3573 1.394 . S
C3572 H3580 0.930 . S
C3573 C3572 1.394 . S
C3573 C3574 1.383 . S
C3573 H3581 0.929 . S
C3574 C3573 1.383 . S
C3574 C3575 1.377 . S
C3575 H3559 0.930 . S
C3575 C3574 1.377 . S
C3575 C3576 1.379 . S
C3576 H3560 0.931 . S
C3576 C3570 1.383 . S
C3576 C3575 1.379 . S
H3577 C3571 0.959 . S
H3578 C3571 0.961 . S
H3579 C3571 0.960 . S
H3580 C3572 0.930 . S
H3581 C3573 0.929 . S
H3582 C3590 0.929 . S
H3583 C3592 0.930 . S
H3584 C3594 0.930 1_455 S
H3585 C3597 0.929 1_455 S
H3586 C3600 0.930 . S
H3587 C3602 0.960 . S
H3588 C3602 0.960 . S
H3589 C3602 0.960 . S
C3590 H3582 0.929 . S
C3590 C3591 1.377 . S
C3590 C3592 1.384 . S
C3591 C3590 1.377 . S
C3591 C3597 1.390 . S
C3592 H3583 0.930 . S
C3592 C3590 1.384 . S
C3592 C3593 1.372 . S
C3593 C3592 1.372 . S
C3593 C3594 1.400 . S
C3593 C3598 1.490 . S
C3594 H3584 0.930 1_655 S
C3594 C3593 1.400 . S
C3594 C3597 1.386 . S
H3595 C3611 0.930 . S
H3596 C3612 0.931 . S
C3597 H3585 0.929 1_655 S
C3597 C3591 1.390 . S
C3597 C3594 1.386 . S
C3598 C3593 1.490 . S
C3598 C3600 1.395 . S
C3598 C3601 1.403 . S
H3599 C3605 0.930 . S
C3600 H3586 0.930 . S
C3600 C3598 1.395 . S
C3600 C3603 1.403 . S
C3601 C3598 1.403 . S
C3601 C3602 1.524 . S
C3601 C3605 1.400 . S
C3602 H3587 0.960 . S
C3602 H3588 0.960 . S
C3602 H3589 0.960 . S
C3602 C3601 1.524 . S
C3603 C3600 1.403 . S
C3603 C3604 1.392 . S
C3603 C3607 1.492 1_655 S
C3604 C3603 1.392 . S
C3604 C3605 1.385 . S
C3604 C3606 1.478 . S
C3605 H3599 0.930 . S
C3605 C3601 1.400 . S
C3605 C3604 1.385 . S
C3606 C3604 1.478 . S
C3606 C3608 1.381 . S
C3606 C3612 1.383 1_655 S
C3607 C3603 1.492 1_455 S
C3607 H3613 0.959 . S
C3607 H3614 0.967 . S
C3607 H3615 0.958 1_455 S
C3608 C3606 1.381 . S
C3608 C3609 1.394 . S
C3608 H3616 0.930 . S
C3609 C3608 1.394 . S
C3609 C3610 1.383 . S
C3609 H3617 0.929 . S
C3610 C3609 1.383 . S
C3610 C3611 1.377 1_655 S
C3611 H3595 0.930 . S
C3611 C3610 1.377 1_455 S
C3611 C3612 1.379 . S
C3612 H3596 0.931 . S
C3612 C3606 1.383 1_455 S
C3612 C3611 1.379 . S
H3613 C3607 0.959 . S
H3614 C3607 0.967 . S
H3615 C3607 0.958 1_655 S
H3616 C3608 0.930 . S
H3617 C3609 0.929 . S
H3618 C3626 0.929 . S
H3619 C3628 0.930 . S
H3620 C3630 0.930 . S
H3621 C3633 0.929 . S
H3622 C3636 0.930 . S
H3623 C3638 0.960 . S
H3624 C3638 0.960 . S
H3625 C3638 0.960 . S
C3626 H3618 0.929 . S
C3626 C3627 1.377 . S
C3626 C3628 1.384 . S
C3627 C3626 1.377 . S
C3627 C3633 1.390 . S
C3628 H3619 0.930 . S
C3628 C3626 1.384 . S
C3628 C3629 1.372 . S
C3629 C3628 1.372 . S
C3629 C3630 1.400 . S
C3629 C3634 1.490 . S
C3630 H3620 0.930 . S
C3630 C3629 1.400 . S
C3630 C3633 1.386 . S
H3631 C3647 0.930 . S
H3632 C3648 0.931 . S
C3633 H3621 0.929 . S
C3633 C3627 1.390 . S
C3633 C3630 1.386 . S
C3634 C3629 1.490 . S
C3634 C3636 1.395 . S
C3634 C3637 1.403 . S
H3635 C3641 0.930 . S
C3636 H3622 0.930 . S
C3636 C3634 1.395 . S
C3636 C3639 1.403 . S
C3637 C3634 1.403 . S
C3637 C3638 1.524 . S
C3637 C3641 1.400 . S
C3638 H3623 0.960 . S
C3638 H3624 0.960 . S
C3638 H3625 0.960 . S
C3638 C3637 1.524 . S
C3639 C3636 1.403 . S
C3639 C3640 1.392 . S
C3639 C3643 1.495 . S
C3640 C3639 1.392 . S
C3640 C3641 1.385 . S
C3640 C3642 1.478 . S
C3641 H3635 0.930 . S
C3641 C3637 1.400 . S
C3641 C3640 1.385 . S
C3642 C3640 1.478 . S
C3642 C3644 1.381 . S
C3642 C3648 1.383 . S
C3643 C3639 1.495 . S
C3643 H3649 0.959 . S
C3643 H3650 0.961 . S
C3643 H3651 0.960 . S
C3644 C3642 1.381 . S
C3644 C3645 1.394 . S
C3644 H3652 0.930 . S
C3645 C3644 1.394 . S
C3645 C3646 1.383 . S
C3645 H3653 0.929 . S
C3646 C3645 1.383 . S
C3646 C3647 1.377 . S
C3647 H3631 0.930 . S
C3647 C3646 1.377 . S
C3647 C3648 1.379 . S
C3648 H3632 0.931 . S
C3648 C3642 1.383 . S
C3648 C3647 1.379 . S
H3649 C3643 0.959 . S
H3650 C3643 0.961 . S
H3651 C3643 0.960 . S
H3652 C3644 0.930 . S
H3653 C3645 0.929 . S
H3654 C3662 0.929 . S
H3655 C3664 0.930 . S
H3656 C3666 0.930 . S
H3657 C3669 0.929 . S
H3658 C3672 0.930 . S
H3659 C3674 0.960 . S
H3660 C3674 0.960 . S
H3661 C3674 0.960 . S
C3662 H3654 0.929 . S
C3662 C3663 1.377 . S
C3662 C3664 1.384 . S
C3663 C3662 1.377 . S
C3663 C3669 1.390 . S
C3664 H3655 0.930 . S
C3664 C3662 1.384 . S
C3664 C3665 1.372 . S
C3665 C3664 1.372 . S
C3665 C3666 1.400 . S
C3665 C3670 1.490 . S
C3666 H3656 0.930 . S
C3666 C3665 1.400 . S
C3666 C3669 1.386 . S
H3667 C3683 0.924 1_565 S
H3668 C3684 0.939 . S
C3669 H3657 0.929 . S
C3669 C3663 1.390 . S
C3669 C3666 1.386 . S
C3670 C3665 1.490 . S
C3670 C3672 1.395 1_545 S
C3670 C3673 1.403 . S
H3671 C3677 0.930 . S
C3672 H3658 0.930 . S
C3672 C3670 1.395 1_565 S
C3672 C3675 1.403 . S
C3673 C3670 1.403 . S
C3673 C3674 1.524 . S
C3673 C3677 1.400 . S
C3674 H3659 0.960 . S
C3674 H3660 0.960 . S
C3674 H3661 0.960 . S
C3674 C3673 1.524 . S
C3675 C3672 1.403 . S
C3675 C3676 1.392 1_565 S
C3675 C3679 1.495 . S
C3676 C3675 1.392 1_545 S
C3676 C3677 1.385 . S
C3676 C3678 1.478 . S
C3677 H3671 0.930 . S
C3677 C3673 1.400 . S
C3677 C3676 1.385 . S
C3678 C3676 1.478 . S
C3678 C3680 1.381 . S
C3678 C3684 1.383 . S
C3679 C3675 1.495 . S
C3679 H3685 0.959 . S
C3679 H3686 0.961 . S
C3679 H3687 0.960 . S
C3680 C3678 1.381 . S
C3680 C3681 1.394 . S
C3680 H3688 0.930 . S
C3681 C3680 1.394 . S
C3681 C3682 1.383 . S
C3681 H3689 0.929 . S
C3682 C3681 1.383 . S
C3682 C3683 1.419 . S
C3683 H3667 0.924 1_545 S
C3683 C3682 1.419 . S
C3683 C3684 1.349 . S
C3684 H3668 0.939 . S
C3684 C3678 1.383 . S
C3684 C3683 1.349 . S
H3685 C3679 0.959 . S
H3686 C3679 0.961 . S
H3687 C3679 0.960 . S
H3688 C3680 0.930 . S
H3689 C3681 0.929 . S
C1107 C10 1.597 . S
C1126 C711 1.581 . S
C1143 C23 1.628 . S
C1162 C759 1.625 . S
C1198 C807 1.609 . S
C1179 C29 1.598 . S
C1215 C30 1.585 . S
C1234 C831 1.608 . S
C1251 C5 1.626 . S
C1270 C903 1.597 . S
C1287 C18 1.637 . S
C1306 C951 1.617 . S
C1323 C49 1.588 . S
C1342 C879 1.597 . S
C1378 C927 1.626 . S
C1359 C62 1.631 . S
C1414 C855 1.632 . S
C1395 C70 1.623 1_565 S
C1431 C75 1.585 . S
C1450 C783 1.589 . S
C1486 C687 1.624 . S
C1467 C44 1.637 1_655 S
C1503 C57 1.637 . S
C1522 C735 1.628 . S
C1539 C88 1.662 . S
C1558 C999 1.651 . S
C1575 C101 1.659 . S
C1594 C1047 1.637 . S
C1630 C1071 1.651 . S
C1611 C107 1.652 . S
C1647 C108 1.639 . S
C1666 C255 1.637 . S
C1683 C83 1.655 . S
C1702 C327 1.641 . S
C1719 C96 1.647 . S
C1738 C375 1.631 . S
C1755 C127 1.638 . S
C1774 C303 1.638 . S
C1791 C140 1.646 . S
C1810 C351 1.633 . S
C1846 C279 1.613 . S
C1827 C146 1.645 . S
C1882 C1095 1.647 . S
C1863 C147 1.661 . S
C1918 C975 1.655 . S
C1899 C122 1.661 . S
C1954 C1023 1.654 . S
C1935 C135 1.666 . S
C1971 C160 1.639 . S
C1990 C423 1.631 . S
C2007 C173 1.641 . S
C2026 C471 1.618 . S
C2043 C185 1.649 . S
C2062 C495 1.637 . S
C2079 C186 1.664 . S
C2098 C543 1.646 . S
C2134 C615 1.650 . S
C2115 C159 1.659 . S
C2170 C663 1.661 . S
C2151 C172 1.663 . S
C2206 C591 1.655 . S
C2187 C205 1.667 . S
C2242 C639 1.662 . S
C2223 C218 1.662 . S
C2259 C224 1.645 . S
C2278 C567 1.613 . S
C2314 C519 1.618 . S
C2295 C225 1.634 . S
C2331 C200 1.657 . S
C2350 C399 1.660 . S
C2386 C447 1.652 . S
C2367 C213 1.652 . S
C2422 C264 1.508 . S
C2403 C4 1.514 . S
C2439 C17 1.486 . S
C2458 C318 1.477 . S
C2494 C366 1.493 . S
C2475 C31 1.517 . S
C2530 C414 1.509 . S
C2511 C36 1.518 . S
C2566 C462 1.501 . S
C2547 C3 1.521 . S
C2602 C504 1.489 . S
C2583 C16 1.494 . S
C2619 C43 1.523 . S
C2638 C510 1.517 . S
C2655 C56 1.489 . S
C2674 C408 1.463 . S
C2691 C68 1.508 . S
C2710 C456 1.494 . S
C2727 C69 1.517 . S
C2746 C312 1.524 . S
C2782 C360 1.492 . S
C2763 C42 1.515 . S
C2799 C55 1.498 . S
C2818 C270 1.488 . S
C2854 C552 1.514 . S
C2835 C82 1.514 . S
C2871 C95 1.527 . S
C2890 C606 1.511 . S
C2907 C109 1.547 . S
C2926 C654 1.528 . S
C2962 C702 1.471 . S
C2943 C114 1.481 . S
C2979 C81 1.526 . S
C2998 C750 1.504 . S
C3015 C94 1.488 . S
C3034 C798 1.492 . S
C3051 C121 1.483 . S
C3070 C792 1.480 . S
C3087 C134 1.477 . S
C3106 C696 1.474 . S
C3142 C744 1.491 . S
C3123 C148 1.517 . S
C3159 C153 1.514 . S
C3178 C600 1.507 . S
C3195 C120 1.547 . S
C3214 C648 1.526 . S
C3250 C558 1.539 . S
C3231 C133 1.539 . S
C3286 C840 1.480 . S
C3267 C166 1.478 . S
C3303 C179 1.475 . S
C3322 C894 1.465 . S
C3339 C187 1.522 . S
C3358 C942 1.501 . S
C3394 C990 1.514 . S
C3375 C192 1.516 . S
C3430 C1038 1.545 . S
C3411 C161 1.548 . S
C3447 C174 1.536 . S
C3466 C1080 1.529 . S
C3483 C199 1.518 . S
C3502 C1086 1.519 . S
C3519 C212 1.528 . S
C3538 C984 1.526 . S
C3574 C1032 1.512 . S
C3555 C226 1.540 . S
C3610 C888 1.478 . S
C3591 C231 1.472 . S
C3646 C936 1.497 . S
C3627 C198 1.528 . S
C3663 C211 1.491 . S
C3682 C846 1.492 . S
