# Generated by pormake.
# Topology tsx, (6,3)-cn, num edge types: 1
# Building blocks:
#     Node 0, Type 0, BuildingBlock: CIFDUS_clean_sbu_1, # of connection points: 6
#     Node 1, Type 0, BuildingBlock: CIFDUS_clean_sbu_1, # of connection points: 6
#     Node 2, Type 1, BuildingBlock: ESEHIV_clean_linker_0, # of connection points: 3
#     Node 3, Type 1, BuildingBlock: ESEHIV_clean_linker_0, # of connection points: 3
#     Node 4, Type 1, BuildingBlock: ESEHIV_clean_linker_0, # of connection points: 3
#     Node 5, Type 1, BuildingBlock: ESEHIV_clean_linker_0, # of connection points: 3
#     Edge 6, Type (0, 1), BuildingBlock: KIFKEQ_clean_linker_1, # of connection points: 2
#     Edge 7, Type (0, 1), BuildingBlock: KIFKEQ_clean_linker_1, # of connection points: 2
#     Edge 8, Type (0, 1), BuildingBlock: KIFKEQ_clean_linker_1, # of connection points: 2
#     Edge 9, Type (0, 1), BuildingBlock: KIFKEQ_clean_linker_1, # of connection points: 2
#     Edge 10, Type (0, 1), BuildingBlock: KIFKEQ_clean_linker_1, # of connection points: 2
#     Edge 11, Type (0, 1), BuildingBlock: KIFKEQ_clean_linker_1, # of connection points: 2
#     Edge 12, Type (0, 1), BuildingBlock: KIFKEQ_clean_linker_1, # of connection points: 2
#     Edge 13, Type (0, 1), BuildingBlock: KIFKEQ_clean_linker_1, # of connection points: 2
#     Edge 14, Type (0, 1), BuildingBlock: KIFKEQ_clean_linker_1, # of connection points: 2
#     Edge 15, Type (0, 1), BuildingBlock: KIFKEQ_clean_linker_1, # of connection points: 2
#     Edge 16, Type (0, 1), BuildingBlock: KIFKEQ_clean_linker_1, # of connection points: 2
#     Edge 17, Type (0, 1), BuildingBlock: KIFKEQ_clean_linker_1, # of connection points: 2
# Relax obj value: 0.128
# Max RMSD: 0.156
# Mean RMSD: 0.118
data_MOF--net-tsx--node1-CIFDUS_clean_sbu_1--node2-ESEHIV_clean_linker_0--edge1-KIFKEQ_clean_linker_1
_symmetry_space_group_name_H-M    P1
_symmetry_Int_Tables_number       1
_symmetry_cell_setting            triclinic
loop_
_symmetry_equiv_pos_as_xyz
'x, y, z'
_cell_length_a     15.977362
_cell_length_b     21.379256
_cell_length_c     35.432082
_cell_angle_alpha  96.92585
_cell_angle_beta   95.948614
_cell_angle_gamma 92.285134
loop_
_atom_site_label
_atom_site_type_symbol
_atom_site_fract_x
_atom_site_fract_y
_atom_site_fract_z
_atom_type_partial_charge
O0 O 1.03087 0.11907 0.00892 0.0
Mn1 Mn 0.09536 0.03444 0.00625 0.0
O2 O 0.89577 0.09044 0.98565 0.0
Mn3 Mn 0.91537 0.01166 0.96186 0.0
O4 O 0.15634 0.94939 0.00297 0.0
O5 O 0.20676 0.0846 0.01612 0.0
Mn6 Mn 0.27179 0.05177 0.05128 0.0
O7 O 0.08817 0.03388 0.06524 0.0
O8 O 0.28715 0.96883 0.03321 0.0
O9 O 0.10187 0.03487 0.94763 0.0
O10 O 0.97072 0.00967 0.91825 0.0
O11 O 0.33565 0.11729 0.03817 0.0
O12 O 0.21774 0.06307 0.09487 0.0
C13 C 0.93464 0.93569 0.99578 0.0
C14 C 0.95251 0.13115 0.00223 0.0
C15 C 0.22951 0.93148 0.01429 0.0
C16 C 0.26849 0.12559 0.01596 0.0
C17 C 0.13965 0.04965 0.0957 0.0
C18 C 1.04928 0.02213 0.91735 0.0
O19 O 0.98689 0.9828 0.99551 0.0
O20 O 0.86503 0.93804 0.97403 0.0
O21 O 0.51257 0.6373 0.51159 0.0
Mn22 Mn 0.56658 0.54843 0.50518 0.0
O23 O 0.37369 0.61878 0.49442 0.0
Mn24 Mn 0.38793 0.54671 0.46224 0.0
O25 O 0.62031 0.46034 0.4987 0.0
O26 O 0.68158 0.59354 0.51871 0.0
Mn27 Mn 0.73776 0.55451 0.55373 0.0
O28 O 0.55257 0.54078 0.56322 0.0
O29 O 0.74717 0.47171 0.53356 0.0
O30 O 0.57749 0.55613 0.44748 0.0
O31 O 0.44381 0.55827 0.41996 0.0
O32 O 0.81084 0.61766 0.54471 0.0
O33 O 0.67994 0.56506 0.59604 0.0
C34 C 0.39479 0.45789 0.48445 0.0
C35 C 0.43621 0.6549 0.50981 0.0
C36 C 0.68989 0.43835 0.51155 0.0
C37 C 0.7482 0.63122 0.52141 0.0
C38 C 0.60113 0.55275 0.59491 0.0
C39 C 0.52342 0.56057 0.41843 0.0
O40 O 0.45383 0.50212 0.49011 0.0
O41 O 0.32768 0.472 0.46418 0.0
H42 H 0.9427 0.07854 0.36865 0.0
H43 H 0.14905 0.95622 0.37872 0.0
H44 H 1.03136 0.02421 0.47824 0.0
C45 C 0.98366 0.05112 0.3858 0.0
C46 C 0.9785 0.05492 0.42534 0.0
C47 C 1.04505 0.01596 0.36862 0.0
C48 C 0.10159 0.98397 0.39155 0.0
C49 C 0.09659 0.98671 0.43098 0.0
C50 C 1.03475 0.02184 0.44775 0.0
H51 H 0.06163 0.95586 0.63086 0.0
H52 H 0.25295 0.10673 0.64941 0.0
H53 H 0.1349 0.04237 0.53542 0.0
C54 C 0.10122 0.99022 0.61983 0.0
C55 C 0.0932 0.99375 0.58041 0.0
C56 C 0.15781 0.03138 0.64506 0.0
C57 C 0.20744 0.07611 0.63017 0.0
C58 C 0.19982 0.08097 0.59068 0.0
C59 C 0.14205 0.03937 0.56587 0.0
H60 H 0.43032 0.55184 0.86795 0.0
H61 H 0.61585 0.4113 0.86837 0.0
H62 H 0.54309 0.50027 0.97453 0.0
C63 C 0.47127 0.52193 0.88327 0.0
C64 C 0.47851 0.52931 0.92342 0.0
C65 C 0.52157 0.48046 0.863 0.0
C66 C 0.57706 0.44403 0.88354 0.0
C67 C 0.58506 0.45113 0.9237 0.0
C68 C 0.53636 0.49427 0.94355 0.0
H69 H 0.52398 0.47148 0.12524 0.0
H70 H 0.72886 0.61168 0.14798 0.0
H71 H 0.65449 0.52212 0.03286 0.0
C72 C 0.57293 0.49992 0.11533 0.0
C73 C 0.5819 0.49404 0.07615 0.0
C74 C 0.62769 0.54081 0.14168 0.0
C75 C 0.69052 0.5771 0.12799 0.0
C76 C 0.7011 0.57149 0.08871 0.0
C77 C 0.64716 0.52839 0.06309 0.0
H78 H 0.3492 0.1518 0.95588 0.0
H79 H 0.18823 0.22999 0.03764 0.0
H80 H 0.4135 0.25644 0.95381 0.0
H81 H 0.25502 0.33373 0.03781 0.0
H82 H 0.41467 0.50673 0.05741 0.0
H83 H 0.31247 0.4272 0.02176 0.0
H84 H 0.51559 0.30362 1.00137 0.0
H85 H 0.61656 0.3846 0.03508 0.0
C86 C 0.32415 0.19209 0.97172 0.0
C87 C 0.2646 0.18301 0.99724 0.0
C88 C 0.3624 0.25197 0.9713 0.0
C89 C 0.3429 0.30327 0.99715 0.0
C90 C 0.27294 0.29568 0.01774 0.0
C91 C 0.23358 0.23595 0.01745 0.0
C92 C 0.43695 0.46299 0.04428 0.0
C93 C 0.52283 0.45099 0.04923 0.0
C94 C 0.3786 0.41732 0.02398 0.0
C95 C 0.40492 0.35816 0.00904 0.0
C96 C 0.49218 0.34854 0.01182 0.0
C97 C 0.55046 0.39466 0.03153 0.0
H98 H 0.17743 0.85003 0.94973 0.0
H99 H 0.32587 0.86309 0.05955 0.0
H100 H 0.22873 0.74553 0.93229 0.0
H101 H 0.37301 0.75748 0.04349 0.0
H102 H 0.54082 0.62175 0.97986 0.0
H103 H 0.46948 0.71301 0.00538 0.0
H104 H 0.23676 0.63824 0.93886 0.0
H105 H 0.3103 0.54814 0.91202 0.0
C106 C 0.21942 0.82975 0.97043 0.0
C107 C 0.24922 0.86491 0.00558 0.0
C108 C 0.24852 0.76966 0.96064 0.0
C109 C 0.30648 0.74319 0.98623 0.0
C110 C 0.33083 0.77695 0.02253 0.0
C111 C 0.30341 0.83736 0.03187 0.0
C112 C 0.47404 0.62429 0.97135 0.0
C113 C 0.43115 0.57832 0.94382 0.0
C114 C 0.43273 0.67659 0.98605 0.0
C115 C 0.34708 0.6836 0.97401 0.0
C116 C 0.30306 0.63534 0.94814 0.0
C117 C 0.34487 0.58348 0.93298 0.0
H118 H 0.91716 0.92346 0.06942 0.0
H119 H 0.97692 0.82255 0.96378 0.0
H120 H 0.88928 0.8234 0.09401 0.0
H121 H 0.94547 0.7222 0.98751 0.0
H122 H 0.68909 0.62087 0.02029 0.0
H123 H 0.78161 0.70052 1.00067 0.0
H124 H 0.94497 0.70418 0.10576 0.0
H125 H 0.85595 0.62032 0.12471 0.0
C126 C 0.92976 0.87985 0.05258 0.0
C127 C 0.95137 0.8803 0.01531 0.0
C128 C 0.91278 0.82259 0.06635 0.0
C129 C 0.91494 0.76534 0.04249 0.0
C130 C 0.94379 0.7658 0.00643 0.0
C131 C 0.96222 0.82302 0.99299 0.0
C132 C 0.7462 0.63629 0.03879 0.0
C133 C 0.76384 0.61415 0.07447 0.0
C134 C 0.79918 0.68233 0.02748 0.0
C135 C 0.87019 0.70831 0.05178 0.0
C136 C 0.89036 0.68478 0.08663 0.0
C137 C 0.83852 0.63736 0.09758 0.0
H138 H 0.82115 0.16451 0.0405 0.0
H139 H 1.01376 0.24023 0.97943 0.0
H140 H 0.73611 0.25437 0.03016 0.0
H141 H 0.92816 0.33093 0.96912 0.0
H142 H 0.72883 0.49305 0.96999 0.0
H143 H 0.83246 0.42824 0.0016 0.0
H144 H 0.67744 0.26063 0.95622 0.0
H145 H 0.57604 0.32488 0.9241 0.0
C146 C 0.84717 0.20215 0.02659 0.0
C147 C 0.92365 0.19544 0.01057 0.0
C148 C 0.79823 0.25326 0.02044 0.0
C149 C 0.82506 0.29873 0.99829 0.0
C150 C 0.90633 0.2964 0.98638 0.0
C151 C 0.95555 0.24481 0.9925 0.0
C152 C 0.71725 0.44233 0.96713 0.0
C153 C 0.64504 0.41351 0.94471 0.0
C154 C 0.77628 0.4055 0.98506 0.0
C155 C 0.76247 0.33967 0.98147 0.0
C156 C 0.68911 0.31139 0.95972 0.0
C157 C 0.63142 0.34788 0.94121 0.0
H158 H 0.67704 0.74258 0.53875 0.0
H159 H 0.84707 0.64967 0.46638 0.0
H160 H 0.75607 0.84301 0.53907 0.0
H161 H 0.92577 0.74974 0.46638 0.0
H162 H 0.11079 0.86884 0.56634 0.0
H163 H 1.00747 0.78846 0.53335 0.0
H164 H 0.83733 0.93308 0.50716 0.0
H165 H 0.94329 0.01435 0.53973 0.0
C166 C 0.7274 0.74449 0.52057 0.0
C167 C 0.75631 0.68846 0.50268 0.0
C168 C 0.7733 0.80198 0.52105 0.0
C169 C 0.84835 0.80372 0.50355 0.0
C170 C 0.86874 0.74953 0.48048 0.0
C171 C 0.82295 0.69233 0.48004 0.0
C172 C 0.05227 0.88347 0.5526 0.0
C173 C 1.03512 0.94746 0.55509 0.0
C174 C 0.99319 0.83761 0.53355 0.0
C175 C 0.91453 0.85452 0.5173 0.0
C176 C 0.89777 0.91885 0.51907 0.0
C177 C 0.95816 0.96513 0.53756 0.0
H178 H 0.75488 0.35918 0.55919 0.0
H179 H 0.66376 0.36787 0.44113 0.0
H180 H 0.80756 0.25552 0.54209 0.0
H181 H 0.72046 0.26505 0.4233 0.0
H182 H 0.8129 0.06994 0.40095 0.0
H183 H 0.72459 0.15369 0.42441 0.0
H184 H 0.92604 0.22385 0.51223 0.0
H185 H 1.0126 0.13977 0.48936 0.0
C186 C 0.74542 0.3383 0.52954 0.0
C187 C 0.70638 0.37154 0.50134 0.0
C188 C 0.77612 0.27914 0.51967 0.0
C189 C 0.7703 0.25244 0.4812 0.0
C190 C 0.72584 0.28394 0.45326 0.0
C191 C 0.6935 0.3429 0.46333 0.0
C192 C 0.83747 0.10282 0.42567 0.0
C193 C 0.91982 0.09859 0.44319 0.0
C194 C 0.78709 0.15094 0.43899 0.0
C195 C 0.81818 0.196 0.47002 0.0
C196 C 0.89911 0.18958 0.48866 0.0
C197 C 0.94909 0.14129 0.47553 0.0
H198 H 0.31937 0.34994 0.44769 0.0
H199 H 0.48009 0.42394 0.54994 0.0
H200 H 0.29497 0.25195 0.47383 0.0
H201 H 0.45406 0.32517 0.57706 0.0
H202 H 0.23942 0.20265 0.62347 0.0
H203 H 0.31582 0.28565 0.59787 0.0
H204 H 0.35108 0.15599 0.49824 0.0
H205 H 0.27619 0.07197 0.52436 0.0
C206 C 0.35118 0.34454 0.47555 0.0
C207 C 0.40009 0.39494 0.49726 0.0
C208 C 0.33756 0.28814 0.49045 0.0
C209 C 0.37159 0.28108 0.52771 0.0
C210 C 0.42621 0.32967 0.54838 0.0
C211 C 0.4413 0.38605 0.53297 0.0
C212 C 0.26525 0.19114 0.59656 0.0
C213 C 0.25091 0.13055 0.57582 0.0
C214 C 0.30948 0.23882 0.58198 0.0
C215 C 0.33978 0.22736 0.54612 0.0
C216 C 0.32813 0.16629 0.52592 0.0
C217 C 0.28442 0.11837 0.54067 0.0
H218 H 0.3246 0.70394 0.55614 0.0
H219 H 0.5008 0.75393 0.47914 0.0
H220 H 0.25087 0.79986 0.54791 0.0
H221 H 0.42494 0.84824 0.46904 0.0
H222 H 0.26501 0.01207 0.45052 0.0
H223 H 0.36439 0.94729 0.48393 0.0
H224 H 0.15835 0.81473 0.49364 0.0
H225 H 0.06001 0.88132 0.46225 0.0
C226 C 0.34966 0.73705 0.53875 0.0
C227 C 0.4181 0.72172 0.51822 0.0
C228 C 0.30659 0.79143 0.53343 0.0
C229 C 0.3299 0.83066 0.50669 0.0
C230 C 0.40482 0.81921 0.48979 0.0
C231 C 0.4489 0.76526 0.49573 0.0
C232 C 0.24148 0.96964 0.46069 0.0
C233 C 0.15531 0.95147 0.45425 0.0
C234 C 0.29815 0.93245 0.47965 0.0
C235 C 0.26966 0.87582 0.49184 0.0
C236 C 0.1827 0.85879 0.48581 0.0
C237 C 0.12616 0.8965 0.46751 0.0
H238 H 1.01478 0.97447 0.11763 0.0
H239 H 0.20145 0.12451 0.16039 0.0
H240 H 0.98592 0.96403 0.18329 0.0
H241 H 0.17242 0.11494 0.22544 0.0
H242 H 0.18961 0.02692 0.3346 0.0
H243 H 0.20333 0.03499 0.26765 0.0
H244 H 0.93252 0.01716 0.24205 0.0
H245 H 0.91877 0.0066 0.30916 0.0
C246 C 1.04786 0.0062 0.14092 0.0
C247 C 0.1106 0.04987 0.13394 0.0
C248 C 1.03178 0.00011 0.1785 0.0
C249 C 0.07827 0.03779 0.20957 0.0
C250 C 0.13725 0.084 0.20222 0.0
C251 C 0.15342 0.0898 0.16491 0.0
C252 C 0.13299 0.02355 0.31465 0.0
C253 C 0.05311 0.01632 0.32726 0.0
C254 C 0.14076 0.02907 0.27634 0.0
C255 C 0.06888 0.02775 0.24968 0.0
C256 C 0.98901 0.01841 0.26193 0.0
C257 C 0.98119 0.01289 0.30038 0.0
H258 H 0.97844 0.95531 0.85114 0.0
H259 H 0.18814 0.08554 0.89737 0.0
H260 H 1.02084 0.95608 0.78735 0.0
H261 H 0.23052 0.08657 0.83266 0.0
H262 H 0.17107 0.13036 0.70269 0.0
H263 H 0.16079 0.12587 0.77064 0.0
H264 H 0.14219 0.92241 0.75013 0.0
H265 H 0.15438 0.92656 0.68242 0.0
C266 C 1.03396 0.98394 0.84769 0.0
C267 C 0.07971 0.02065 0.87926 0.0
C268 C 0.05863 0.98392 0.81114 0.0
C269 C 0.12915 0.02115 0.8051 0.0
C270 C 0.17582 0.05749 0.83662 0.0
C271 C 0.15182 0.0567 0.87355 0.0
C272 C 0.16702 0.08463 0.7128 0.0
C273 C 0.1623 0.0288 0.68699 0.0
C274 C 0.16117 0.08213 0.75173 0.0
C275 C 0.14993 0.02383 0.76551 0.0
C276 C 0.14969 0.96803 0.74012 0.0
C277 C 0.15617 0.97046 0.70134 0.0
H278 H 0.66339 0.61651 0.66309 0.0
H279 H 0.46726 0.47833 0.61151 0.0
H280 H 0.63519 0.59415 0.72618 0.0
H281 H 0.43941 0.45525 0.67552 0.0
H282 H 0.38776 0.48477 0.8078 0.0
H283 H 0.39433 0.50347 0.74117 0.0
H284 H 0.66519 0.49684 0.75731 0.0
H285 H 0.65918 0.48001 0.82358 0.0
C286 C 0.61335 0.5818 0.66524 0.0
C287 C 0.56877 0.5482 0.63222 0.0
C288 C 0.59765 0.56871 0.70143 0.0
C289 C 0.53696 0.52159 0.70571 0.0
C290 C 0.48723 0.49138 0.67296 0.0
C291 C 0.50299 0.50469 0.63637 0.0
C292 C 0.44859 0.48678 0.79693 0.0
C293 C 0.52304 0.48133 0.82113 0.0
C294 C 0.45218 0.49709 0.75878 0.0
C295 C 0.5303 0.50269 0.7443 0.0
C296 C 0.60411 0.49386 0.7679 0.0
C297 C 0.60057 0.48335 0.8058 0.0
H298 H 0.66084 0.51074 0.3874 0.0
H299 H 0.44951 0.62512 0.36409 0.0
H300 H 0.69137 0.50841 0.32082 0.0
H301 H 0.48132 0.62497 0.29857 0.0
H302 H 0.48139 0.54162 0.17569 0.0
H303 H 0.46499 0.54952 0.24335 0.0
H304 H 0.73562 0.56517 0.27044 0.0
H305 H 0.75214 0.55357 0.20222 0.0
C306 C 0.62226 0.53655 0.3683 0.0
C307 C 0.55211 0.5673 0.3807 0.0
C308 C 0.63963 0.53529 0.33017 0.0
C309 C 0.5876 0.56535 0.30403 0.0
C310 C 0.52106 0.59956 0.31745 0.0
C311 C 0.50318 0.60009 0.35514 0.0
C312 C 0.53755 0.54592 0.19594 0.0
C313 C 0.61807 0.54681 0.18336 0.0
C314 C 0.52818 0.55147 0.23492 0.0
C315 C 0.59902 0.55874 0.26253 0.0
C316 C 0.6797 0.55937 0.25002 0.0
C317 C 0.6891 0.55346 0.21089 0.0
loop_
_geom_bond_atom_site_label_1
_geom_bond_atom_site_label_2
_geom_bond_distance
_geom_bond_site_symmetry_2
_ccdc_geom_bond_type
O0 Mn1 2.163 1_654 S
O0 C14 1.244 1_554 S
Mn1 O0 2.163 1_456 S
Mn1 O4 2.160 1_545 S
Mn1 O5 2.221 1_556 S
Mn1 O7 2.163 1_556 S
Mn1 O9 2.160 . S
Mn1 O19 2.221 1_445 S
O2 Mn3 2.087 . S
O2 C14 1.256 . S
Mn3 O2 2.087 . S
Mn3 O10 2.089 . S
Mn3 O19 2.290 1_545 S
Mn3 O20 2.251 1_545 S
O4 Mn1 2.160 1_565 S
O4 C15 1.239 1_556 S
O5 Mn1 2.221 1_554 S
O5 Mn6 2.290 . S
O5 C16 1.278 . S
Mn6 O5 2.290 . S
Mn6 O8 2.089 1_545 S
Mn6 O11 2.251 . S
Mn6 O12 2.087 . S
O7 Mn1 2.163 1_554 S
O7 C17 1.244 . S
O8 Mn6 2.089 1_565 S
O8 C15 1.256 . S
O9 Mn1 2.160 . S
O9 C18 1.239 . S
O10 Mn3 2.089 . S
O10 C18 1.256 1_655 S
O11 Mn6 2.251 . S
O11 C16 1.241 . S
O12 Mn6 2.087 . S
O12 C17 1.256 . S
C13 O19 1.266 1_554 S
C13 O20 1.235 1_554 S
C14 O0 1.244 1_556 S
C14 O2 1.256 . S
C15 O4 1.239 1_554 S
C15 O8 1.256 . S
C16 O5 1.278 . S
C16 O11 1.241 . S
C17 O7 1.244 . S
C17 O12 1.256 . S
C18 O9 1.239 . S
C18 O10 1.256 1_455 S
O19 Mn1 2.221 1_665 S
O19 Mn3 2.290 1_565 S
O19 C13 1.266 1_556 S
O20 Mn3 2.251 1_565 S
O20 C13 1.235 1_556 S
O21 Mn22 2.163 . S
O21 C35 1.244 . S
Mn22 O21 2.163 . S
Mn22 O25 2.160 . S
Mn22 O26 2.221 . S
Mn22 O28 2.163 . S
Mn22 O30 2.160 . S
Mn22 O40 2.221 . S
O23 Mn24 2.087 . S
O23 C35 1.256 . S
Mn24 O23 2.087 . S
Mn24 O31 2.089 . S
Mn24 O40 2.290 . S
Mn24 O41 2.251 . S
O25 Mn22 2.160 . S
O25 C36 1.239 . S
O26 Mn22 2.221 . S
O26 Mn27 2.290 . S
O26 C37 1.278 . S
Mn27 O26 2.290 . S
Mn27 O29 2.089 . S
Mn27 O32 2.251 . S
Mn27 O33 2.087 . S
O28 Mn22 2.163 . S
O28 C38 1.244 . S
O29 Mn27 2.089 . S
O29 C36 1.256 . S
O30 Mn22 2.160 . S
O30 C39 1.239 . S
O31 Mn24 2.089 . S
O31 C39 1.256 . S
O32 Mn27 2.251 . S
O32 C37 1.241 . S
O33 Mn27 2.087 . S
O33 C38 1.256 . S
C34 O40 1.278 . S
C34 O41 1.241 . S
C35 O21 1.244 . S
C35 O23 1.256 . S
C36 O25 1.239 . S
C36 O29 1.256 . S
C37 O26 1.278 . S
C37 O32 1.241 . S
C38 O28 1.244 . S
C38 O33 1.256 . S
C39 O30 1.239 . S
C39 O31 1.256 . S
O40 Mn22 2.221 . S
O40 Mn24 2.290 . S
O40 C34 1.278 . S
O41 Mn24 2.251 . S
O41 C34 1.241 . S
H42 C45 0.931 1_655 S
H43 C48 0.928 . S
H44 C50 0.930 . S
C45 H42 0.931 1_455 S
C45 C46 1.413 1_455 S
C45 C47 1.356 1_545 S
C46 C45 1.413 1_655 S
C46 C50 1.429 1_655 S
C47 C45 1.356 1_565 S
C47 C48 1.376 . S
C48 H43 0.928 . S
C48 C47 1.376 . S
C48 C49 1.404 . S
C49 C48 1.404 . S
C49 C50 1.391 1_565 S
C50 H44 0.930 . S
C50 C46 1.429 1_455 S
C50 C49 1.391 1_545 S
H51 C54 0.931 . S
H52 C57 0.928 . S
H53 C59 0.930 . S
C54 H51 0.931 . S
C54 C55 1.413 . S
C54 C56 1.360 1_655 S
C55 C54 1.413 . S
C55 C59 1.429 . S
C56 C54 1.360 1_455 S
C56 C57 1.372 . S
C57 H52 0.928 . S
C57 C56 1.372 . S
C57 C58 1.404 . S
C58 C57 1.404 . S
C58 C59 1.391 1_455 S
C59 H53 0.930 . S
C59 C55 1.429 . S
C59 C58 1.391 1_655 S
H60 C63 0.931 . S
H61 C66 0.928 . S
H62 C68 0.930 . S
C63 H60 0.931 . S
C63 C64 1.413 . S
C63 C65 1.360 . S
C64 C63 1.413 . S
C64 C68 1.429 . S
C65 C63 1.360 . S
C65 C66 1.372 . S
C66 H61 0.928 . S
C66 C65 1.372 . S
C66 C67 1.404 . S
C67 C66 1.404 . S
C67 C68 1.391 . S
C68 H62 0.930 . S
C68 C64 1.429 . S
C68 C67 1.391 . S
H69 C72 0.931 . S
H70 C75 0.928 . S
H71 C77 0.930 . S
C72 H69 0.931 . S
C72 C73 1.413 . S
C72 C74 1.360 . S
C73 C72 1.413 . S
C73 C77 1.429 . S
C74 C72 1.360 . S
C74 C75 1.372 . S
C75 H70 0.928 . S
C75 C74 1.372 . S
C75 C76 1.404 . S
C76 C75 1.404 . S
C76 C77 1.391 . S
C77 H71 0.930 . S
C77 C73 1.429 . S
C77 C76 1.391 . S
H78 C86 0.950 . S
H79 C91 0.950 . S
H80 C88 0.950 1_556 S
H81 C90 0.950 . S
H82 C92 0.950 . S
H83 C94 0.950 . S
H84 C96 0.950 . S
H85 C97 0.950 . S
C86 H78 0.950 . S
C86 C87 1.386 1_556 S
C86 C88 1.391 1_556 S
C87 C86 1.386 1_554 S
C87 C91 1.393 . S
C88 H80 0.950 1_554 S
C88 C86 1.391 1_554 S
C88 C89 1.400 . S
C89 C88 1.400 . S
C89 C90 1.398 . S
C89 C95 1.491 . S
C90 H81 0.950 . S
C90 C89 1.398 . S
C90 C91 1.391 . S
C91 H79 0.950 . S
C91 C87 1.393 . S
C91 C90 1.391 . S
C92 H82 0.950 . S
C92 C93 1.386 . S
C92 C94 1.391 . S
C93 C92 1.386 . S
C93 C97 1.393 . S
C94 H83 0.950 . S
C94 C92 1.391 . S
C94 C95 1.400 . S
C95 C89 1.491 . S
C95 C94 1.400 . S
C95 C96 1.398 . S
C96 H84 0.950 . S
C96 C95 1.398 . S
C96 C97 1.391 . S
C97 H85 0.950 . S
C97 C93 1.393 . S
C97 C96 1.391 . S
H98 C106 0.950 . S
H99 C111 0.950 . S
H100 C108 0.950 . S
H101 C110 0.950 1_554 S
H102 C112 0.950 . S
H103 C114 0.950 . S
H104 C116 0.950 . S
H105 C117 0.950 . S
C106 H98 0.950 . S
C106 C107 1.386 . S
C106 C108 1.391 . S
C107 C106 1.386 . S
C107 C111 1.393 1_556 S
C108 H100 0.950 . S
C108 C106 1.391 . S
C108 C109 1.400 . S
C109 C108 1.400 . S
C109 C110 1.398 . S
C109 C115 1.491 . S
C110 H101 0.950 1_556 S
C110 C109 1.398 . S
C110 C111 1.391 1_556 S
C111 H99 0.950 . S
C111 C107 1.393 1_554 S
C111 C110 1.391 1_554 S
C112 H102 0.950 . S
C112 C113 1.386 . S
C112 C114 1.391 . S
C113 C112 1.386 . S
C113 C117 1.393 . S
C114 H103 0.950 . S
C114 C112 1.391 . S
C114 C115 1.400 . S
C115 C109 1.491 . S
C115 C114 1.400 . S
C115 C116 1.398 . S
C116 H104 0.950 . S
C116 C115 1.398 . S
C116 C117 1.391 . S
C117 H105 0.950 . S
C117 C113 1.393 . S
C117 C116 1.391 . S
H118 C126 0.950 . S
H119 C131 0.950 . S
H120 C128 0.950 . S
H121 C130 0.950 . S
H122 C132 0.950 . S
H123 C134 0.950 1_556 S
H124 C136 0.950 . S
H125 C137 0.950 . S
C126 H118 0.950 . S
C126 C127 1.386 . S
C126 C128 1.391 . S
C127 C126 1.386 . S
C127 C131 1.393 1_554 S
C128 H120 0.950 . S
C128 C126 1.391 . S
C128 C129 1.400 . S
C129 C128 1.400 . S
C129 C130 1.398 1_554 S
C129 C135 1.491 . S
C130 H121 0.950 . S
C130 C129 1.398 1_556 S
C130 C131 1.391 . S
C131 H119 0.950 . S
C131 C127 1.393 1_556 S
C131 C130 1.391 . S
C132 H122 0.950 . S
C132 C133 1.386 . S
C132 C134 1.391 . S
C133 C132 1.386 . S
C133 C137 1.393 . S
C134 H123 0.950 1_554 S
C134 C132 1.391 . S
C134 C135 1.400 . S
C135 C129 1.491 . S
C135 C134 1.400 . S
C135 C136 1.398 . S
C136 H124 0.950 . S
C136 C135 1.398 . S
C136 C137 1.391 . S
C137 H125 0.950 . S
C137 C133 1.393 . S
C137 C136 1.391 . S
H138 C146 0.950 . S
H139 C151 0.950 . S
H140 C148 0.950 1_554 S
H141 C150 0.950 . S
H142 C152 0.950 . S
H143 C154 0.950 . S
H144 C156 0.950 . S
H145 C157 0.950 . S
C146 H138 0.950 . S
C146 C147 1.386 1_554 S
C146 C148 1.391 1_554 S
C147 C146 1.386 1_556 S
C147 C151 1.393 . S
C148 H140 0.950 1_556 S
C148 C146 1.391 1_556 S
C148 C149 1.400 . S
C149 C148 1.400 . S
C149 C150 1.398 . S
C149 C155 1.491 . S
C150 H141 0.950 . S
C150 C149 1.398 . S
C150 C151 1.391 . S
C151 H139 0.950 . S
C151 C147 1.393 . S
C151 C150 1.391 . S
C152 H142 0.950 . S
C152 C153 1.386 . S
C152 C154 1.391 . S
C153 C152 1.386 . S
C153 C157 1.393 . S
C154 H143 0.950 . S
C154 C152 1.391 . S
C154 C155 1.400 . S
C155 C149 1.491 . S
C155 C154 1.400 . S
C155 C156 1.398 . S
C156 H144 0.950 . S
C156 C155 1.398 . S
C156 C157 1.391 . S
C157 H145 0.950 . S
C157 C153 1.393 . S
C157 C156 1.391 . S
H158 C166 0.950 . S
H159 C171 0.950 . S
H160 C168 0.950 . S
H161 C170 0.950 . S
H162 C172 0.950 . S
H163 C174 0.950 . S
H164 C176 0.950 . S
H165 C177 0.950 . S
C166 H158 0.950 . S
C166 C167 1.386 . S
C166 C168 1.391 . S
C167 C166 1.386 . S
C167 C171 1.393 . S
C168 H160 0.950 . S
C168 C166 1.391 . S
C168 C169 1.400 . S
C169 C168 1.400 . S
C169 C170 1.398 . S
C169 C175 1.491 . S
C170 H161 0.950 . S
C170 C169 1.398 . S
C170 C171 1.391 . S
C171 H159 0.950 . S
C171 C167 1.393 . S
C171 C170 1.391 . S
C172 H162 0.950 . S
C172 C173 1.386 . S
C172 C174 1.391 . S
C173 C172 1.386 . S
C173 C177 1.393 . S
C174 H163 0.950 . S
C174 C172 1.391 . S
C174 C175 1.400 . S
C175 C169 1.491 . S
C175 C174 1.400 . S
C175 C176 1.398 . S
C176 H164 0.950 . S
C176 C175 1.398 . S
C176 C177 1.391 . S
C177 H165 0.950 . S
C177 C173 1.393 . S
C177 C176 1.391 . S
H178 C186 0.950 . S
H179 C191 0.950 . S
H180 C188 0.950 . S
H181 C190 0.950 . S
H182 C192 0.950 . S
H183 C194 0.950 . S
H184 C196 0.950 . S
H185 C197 0.950 1_455 S
C186 H178 0.950 . S
C186 C187 1.386 . S
C186 C188 1.391 . S
C187 C186 1.386 . S
C187 C191 1.393 . S
C188 H180 0.950 . S
C188 C186 1.391 . S
C188 C189 1.400 . S
C189 C188 1.400 . S
C189 C190 1.398 . S
C189 C195 1.491 . S
C190 H181 0.950 . S
C190 C189 1.398 . S
C190 C191 1.391 . S
C191 H179 0.950 . S
C191 C187 1.393 . S
C191 C190 1.391 . S
C192 H182 0.950 . S
C192 C193 1.386 . S
C192 C194 1.391 . S
C193 C192 1.386 . S
C193 C197 1.393 . S
C194 H183 0.950 . S
C194 C192 1.391 . S
C194 C195 1.400 . S
C195 C189 1.491 . S
C195 C194 1.400 . S
C195 C196 1.398 . S
C196 H184 0.950 . S
C196 C195 1.398 . S
C196 C197 1.391 . S
C197 H185 0.950 1_655 S
C197 C193 1.393 . S
C197 C196 1.391 . S
H198 C206 0.950 . S
H199 C211 0.950 . S
H200 C208 0.950 . S
H201 C210 0.950 . S
H202 C212 0.950 . S
H203 C214 0.950 . S
H204 C216 0.950 . S
H205 C217 0.950 . S
C206 H198 0.950 . S
C206 C207 1.386 . S
C206 C208 1.391 . S
C207 C206 1.386 . S
C207 C211 1.393 . S
C208 H200 0.950 . S
C208 C206 1.391 . S
C208 C209 1.400 . S
C209 C208 1.400 . S
C209 C210 1.398 . S
C209 C215 1.491 . S
C210 H201 0.950 . S
C210 C209 1.398 . S
C210 C211 1.391 . S
C211 H199 0.950 . S
C211 C207 1.393 . S
C211 C210 1.391 . S
C212 H202 0.950 . S
C212 C213 1.386 . S
C212 C214 1.391 . S
C213 C212 1.386 . S
C213 C217 1.393 . S
C214 H203 0.950 . S
C214 C212 1.391 . S
C214 C215 1.400 . S
C215 C209 1.491 . S
C215 C214 1.400 . S
C215 C216 1.398 . S
C216 H204 0.950 . S
C216 C215 1.398 . S
C216 C217 1.391 . S
C217 H205 0.950 . S
C217 C213 1.393 . S
C217 C216 1.391 . S
H218 C226 0.950 . S
H219 C231 0.950 . S
H220 C228 0.950 . S
H221 C230 0.950 . S
H222 C232 0.950 . S
H223 C234 0.950 . S
H224 C236 0.950 . S
H225 C237 0.950 . S
C226 H218 0.950 . S
C226 C227 1.386 . S
C226 C228 1.391 . S
C227 C226 1.386 . S
C227 C231 1.393 . S
C228 H220 0.950 . S
C228 C226 1.391 . S
C228 C229 1.400 . S
C229 C228 1.400 . S
C229 C230 1.398 . S
C229 C235 1.491 . S
C230 H221 0.950 . S
C230 C229 1.398 . S
C230 C231 1.391 . S
C231 H219 0.950 . S
C231 C227 1.393 . S
C231 C230 1.391 . S
C232 H222 0.950 . S
C232 C233 1.386 . S
C232 C234 1.391 . S
C233 C232 1.386 . S
C233 C237 1.393 . S
C234 H223 0.950 . S
C234 C232 1.391 . S
C234 C235 1.400 . S
C235 C229 1.491 . S
C235 C234 1.400 . S
C235 C236 1.398 . S
C236 H224 0.950 . S
C236 C235 1.398 . S
C236 C237 1.391 . S
C237 H225 0.950 . S
C237 C233 1.393 . S
C237 C236 1.391 . S
H238 C246 0.950 1_655 S
H239 C251 0.950 . S
H240 C248 0.950 1_655 S
H241 C250 0.950 . S
H242 C252 0.950 . S
H243 C254 0.950 . S
H244 C256 0.950 . S
H245 C257 0.950 . S
C246 H238 0.950 1_455 S
C246 C247 1.386 1_565 S
C246 C248 1.391 . S
C247 C246 1.386 1_545 S
C247 C251 1.393 . S
C248 H240 0.950 1_455 S
C248 C246 1.391 . S
C248 C249 1.400 1_565 S
C249 C248 1.400 1_545 S
C249 C250 1.398 . S
C249 C255 1.491 . S
C250 H241 0.950 . S
C250 C249 1.398 . S
C250 C251 1.391 . S
C251 H239 0.950 . S
C251 C247 1.393 . S
C251 C250 1.391 . S
C252 H242 0.950 . S
C252 C253 1.386 . S
C252 C254 1.391 . S
C253 C252 1.386 . S
C253 C257 1.393 1_445 S
C254 H243 0.950 . S
C254 C252 1.391 . S
C254 C255 1.400 . S
C255 C249 1.491 . S
C255 C254 1.400 . S
C255 C256 1.398 1_445 S
C256 H244 0.950 . S
C256 C255 1.398 1_665 S
C256 C257 1.391 . S
C257 H245 0.950 . S
C257 C253 1.393 1_665 S
C257 C256 1.391 . S
H258 C266 0.960 . S
H259 C271 0.950 1_655 S
H260 C268 0.950 1_565 S
H261 C270 0.950 . S
H262 C272 0.950 . S
H263 C274 0.950 . S
H264 C276 0.950 1_565 S
H265 C277 0.950 1_565 S
C266 H258 0.960 . S
C266 C267 1.378 1_565 S
C266 C268 1.389 1_565 S
C267 C266 1.378 1_545 S
C267 C271 1.393 . S
C268 H260 0.950 1_545 S
C268 C266 1.389 1_545 S
C268 C269 1.400 . S
C269 C268 1.400 . S
C269 C270 1.398 1_455 S
C269 C275 1.491 . S
C270 H261 0.950 . S
C270 C269 1.398 1_655 S
C270 C271 1.391 1_655 S
C271 H259 0.950 1_455 S
C271 C267 1.393 . S
C271 C270 1.391 1_455 S
C272 H262 0.950 . S
C272 C273 1.386 1_655 S
C272 C274 1.391 . S
C273 C272 1.386 1_455 S
C273 C277 1.393 . S
C274 H263 0.950 . S
C274 C272 1.391 . S
C274 C275 1.400 1_655 S
C275 C269 1.491 . S
C275 C274 1.400 1_455 S
C275 C276 1.398 . S
C276 H264 0.950 1_545 S
C276 C275 1.398 . S
C276 C277 1.391 . S
C277 H265 0.950 1_545 S
C277 C273 1.393 . S
C277 C276 1.391 . S
H278 C286 0.950 . S
H279 C291 0.950 . S
H280 C288 0.950 . S
H281 C290 0.950 . S
H282 C292 0.950 . S
H283 C294 0.950 . S
H284 C296 0.950 . S
H285 C297 0.950 . S
C286 H278 0.950 . S
C286 C287 1.386 . S
C286 C288 1.391 . S
C287 C286 1.386 . S
C287 C291 1.393 . S
C288 H280 0.950 . S
C288 C286 1.391 . S
C288 C289 1.400 . S
C289 C288 1.400 . S
C289 C290 1.398 . S
C289 C295 1.491 . S
C290 H281 0.950 . S
C290 C289 1.398 . S
C290 C291 1.391 . S
C291 H279 0.950 . S
C291 C287 1.393 . S
C291 C290 1.391 . S
C292 H282 0.950 . S
C292 C293 1.386 . S
C292 C294 1.391 . S
C293 C292 1.386 . S
C293 C297 1.393 . S
C294 H283 0.950 . S
C294 C292 1.391 . S
C294 C295 1.400 . S
C295 C289 1.491 . S
C295 C294 1.400 . S
C295 C296 1.398 . S
C296 H284 0.950 . S
C296 C295 1.398 . S
C296 C297 1.391 . S
C297 H285 0.950 . S
C297 C293 1.393 . S
C297 C296 1.391 . S
H298 C306 0.950 . S
H299 C311 0.950 . S
H300 C308 0.950 . S
H301 C310 0.950 . S
H302 C312 0.950 . S
H303 C314 0.950 . S
H304 C316 0.950 . S
H305 C317 0.950 . S
C306 H298 0.950 . S
C306 C307 1.386 . S
C306 C308 1.391 . S
C307 C306 1.386 . S
C307 C311 1.393 . S
C308 H300 0.950 . S
C308 C306 1.391 . S
C308 C309 1.400 . S
C309 C308 1.400 . S
C309 C310 1.398 . S
C309 C315 1.491 . S
C310 H301 0.950 . S
C310 C309 1.398 . S
C310 C311 1.391 . S
C311 H299 0.950 . S
C311 C307 1.393 . S
C311 C310 1.391 . S
C312 H302 0.950 . S
C312 C313 1.386 . S
C312 C314 1.391 . S
C313 C312 1.386 . S
C313 C317 1.393 . S
C314 H303 0.950 . S
C314 C312 1.391 . S
C314 C315 1.400 . S
C315 C309 1.491 . S
C315 C314 1.400 . S
C315 C316 1.398 . S
C316 H304 0.950 . S
C316 C315 1.398 . S
C316 C317 1.391 . S
C317 H305 0.950 . S
C317 C313 1.393 . S
C317 C316 1.391 . S
C93 C73 1.360 . S
C87 C16 1.205 . S
C107 C15 1.423 1_556 S
C113 C64 1.438 . S
C127 C13 1.257 . S
C133 C76 1.410 . S
C147 C14 1.312 . S
C153 C67 1.348 . S
C167 C37 1.152 . S
C173 C55 1.376 1_565 S
C187 C36 1.432 . S
C193 C46 1.424 . S
C213 C58 1.420 . S
C207 C34 1.283 . S
C233 C49 1.350 . S
C227 C35 1.312 . S
C247 C17 1.502 . S
C253 C47 1.548 1_545 S
C267 C18 1.360 . S
C273 C56 1.425 . S
C293 C65 1.551 . S
C287 C38 1.510 . S
C307 C39 1.365 . S
C313 C74 1.427 . S
