# Generated by pormake.
# Topology tsx, (6,3)-cn, num edge types: 1
# Building blocks:
#     Node 0, Type 0, BuildingBlock: VOLQOD_clean_sbu_1, # of connection points: 6
#     Node 1, Type 0, BuildingBlock: VOLQOD_clean_sbu_1, # of connection points: 6
#     Node 2, Type 1, BuildingBlock: VETTIZ_charged_linker_0, # of connection points: 3
#     Node 3, Type 1, BuildingBlock: VETTIZ_charged_linker_0, # of connection points: 3
#     Node 4, Type 1, BuildingBlock: VETTIZ_charged_linker_0, # of connection points: 3
#     Node 5, Type 1, BuildingBlock: VETTIZ_charged_linker_0, # of connection points: 3
#     Edge 6, Type (0, 1), BuildingBlock: ZUJKAS_clean_linker_0, # of connection points: 2
#     Edge 7, Type (0, 1), BuildingBlock: ZUJKAS_clean_linker_0, # of connection points: 2
#     Edge 8, Type (0, 1), BuildingBlock: ZUJKAS_clean_linker_0, # of connection points: 2
#     Edge 9, Type (0, 1), BuildingBlock: ZUJKAS_clean_linker_0, # of connection points: 2
#     Edge 10, Type (0, 1), BuildingBlock: ZUJKAS_clean_linker_0, # of connection points: 2
#     Edge 11, Type (0, 1), BuildingBlock: ZUJKAS_clean_linker_0, # of connection points: 2
#     Edge 12, Type (0, 1), BuildingBlock: ZUJKAS_clean_linker_0, # of connection points: 2
#     Edge 13, Type (0, 1), BuildingBlock: ZUJKAS_clean_linker_0, # of connection points: 2
#     Edge 14, Type (0, 1), BuildingBlock: ZUJKAS_clean_linker_0, # of connection points: 2
#     Edge 15, Type (0, 1), BuildingBlock: ZUJKAS_clean_linker_0, # of connection points: 2
#     Edge 16, Type (0, 1), BuildingBlock: ZUJKAS_clean_linker_0, # of connection points: 2
#     Edge 17, Type (0, 1), BuildingBlock: ZUJKAS_clean_linker_0, # of connection points: 2
# Relax obj value: 0.078
# Max RMSD: 0.110
# Mean RMSD: 0.086
data_MOF--net-tsx--node1-VOLQOD_clean_sbu_1--node2-VETTIZ_charged_linker_0--edge1-ZUJKAS_clean_linker_0
_symmetry_space_group_name_H-M    P1
_symmetry_Int_Tables_number       1
_symmetry_cell_setting            triclinic
loop_
_symmetry_equiv_pos_as_xyz
'x, y, z'
_cell_length_a     30.648146
_cell_length_b     31.772138
_cell_length_c     60.943605
_cell_angle_alpha  90.320475
_cell_angle_beta   89.917472
_cell_angle_gamma 90.067017
loop_
_atom_site_label
_atom_site_type_symbol
_atom_site_fract_x
_atom_site_fract_y
_atom_site_fract_z
_atom_type_partial_charge
O0 O 0.0409 -0.00046 0.06151 0.0
Zn1 Zn 0.05901 -0.00192 0.02966 0.0
O2 O 0.00866 0.00393 0.01019 0.0
Zn3 Zn 0.00505 0.95495 0.9908 0.0
Zn4 Zn 0.95546 0.00787 0.02775 0.0
Zn5 Zn 0.01484 0.05465 0.99245 0.0
O6 O 0.00496 0.97181 0.95911 0.0
O7 O 0.01335 0.04116 0.96003 0.0
O8 O 0.0911 0.94381 0.02398 0.0
O9 O 0.05576 0.91626 0.99555 0.0
O10 O 0.95053 0.92143 0.99637 0.0
O11 O 0.91608 0.95861 0.02197 0.0
O12 O 0.92195 0.06067 0.02117 0.0
O13 O 0.10167 0.04531 0.02483 0.0
O14 O 0.96562 0.09481 0.99825 0.0
O15 O 0.07081 0.08486 -0.00076 0.0
C16 C 0.00411 0.00389 0.07101 0.0
C17 C 0.00874 0.00691 0.94932 0.0
C18 C 0.9182 0.92683 0.00921 0.0
C19 C 0.08656 0.91507 0.00952 0.0
C20 C 0.93071 0.09273 0.00953 0.0
C21 C 0.10207 0.07738 0.01239 0.0
O22 O 0.96909 0.00782 0.06 0.0
O23 O 0.53982 0.49992 0.56222 0.0
Zn24 Zn 0.55746 0.4989 0.53027 0.0
O25 O 0.50702 0.50539 0.51087 0.0
Zn26 Zn 0.50156 0.45594 0.49186 0.0
Zn27 Zn 0.45451 0.51122 0.52873 0.0
Zn28 Zn 0.51404 0.5554 0.49263 0.0
O29 O 0.50249 0.47168 0.45998 0.0
O30 O 0.51404 0.54061 0.46041 0.0
O31 O 0.58908 0.44442 0.52425 0.0
O32 O 0.55127 0.41611 0.49683 0.0
O33 O 0.4459 0.42425 0.49779 0.0
O34 O 0.41402 0.46247 0.52383 0.0
O35 O 0.42196 0.56422 0.52171 0.0
O36 O 0.60012 0.54629 0.52565 0.0
O37 O 0.46446 0.59597 0.49737 0.0
O38 O 0.5702 0.58533 0.49958 0.0
C39 C 0.50346 0.50649 0.57179 0.0
C40 C 0.50836 0.50625 0.44994 0.0
C41 C 0.41449 0.4306 0.51108 0.0
C42 C 0.58304 0.41508 0.51026 0.0
C43 C 0.43009 0.59509 0.50913 0.0
C44 C 0.60103 0.5781 0.51302 0.0
O45 O 0.46866 0.51232 0.56086 0.0
C46 C 0.0814 0.90823 0.44467 0.0
C47 C 0.11072 0.8809 0.43401 0.0
C48 C 0.11005 0.87806 0.41092 0.0
C49 C 0.05267 0.93021 0.40944 0.0
C50 C 0.05281 0.93253 0.4321 0.0
C51 C 0.02022 0.9639 0.44073 0.0
H52 H 0.86592 0.11032 0.41998 0.0
C53 C 0.0199 0.96023 0.40126 0.0
C54 C 0.00066 0.98001 0.4195 0.0
H55 H 0.91591 0.07169 0.4831 0.0
H56 H 0.96285 0.02102 0.46529 0.0
H57 H 0.95814 0.11446 0.39674 0.0
H58 H 0.85977 0.01774 0.39837 0.0
H59 H 0.87959 0.0202 0.37133 0.0
H60 H 0.85315 0.06561 0.38324 0.0
H61 H 0.90822 0.11839 0.38154 0.0
H62 H 0.95565 0.09247 0.3703 0.0
C63 C 0.04543 -0.00121 0.45331 0.0
C64 C 0.98623 0.93991 0.45476 0.0
C65 C -5e-05 0.97895 0.31917 0.0
C66 C 0.97305 0.00527 0.30657 0.0
C67 C 0.94331 0.03212 0.31742 0.0
C68 C 0.94082 0.03315 0.34039 0.0
C69 C 0.96843 0.00714 0.35273 0.0
C70 C -0.00286 0.98045 0.34208 0.0
C71 C 0.02403 0.95512 0.35783 0.0
C72 C 0.007 0.97131 0.37969 0.0
C73 C 0.97452 0.00177 0.3766 0.0
C74 C 0.07268 0.96668 0.35423 0.0
C75 C 0.01312 0.90792 0.35423 0.0
C76 C 0.88721 0.09125 0.43001 0.0
C77 C 0.88727 0.09527 0.45302 0.0
C78 C 0.91488 0.06904 0.46539 0.0
C79 C 0.94236 0.03981 0.45499 0.0
C80 C 0.94243 0.03683 0.43196 0.0
C81 C 0.91504 0.06223 0.4199 0.0
C82 C 0.91998 0.05546 0.39559 0.0
C83 C 0.95486 0.02169 0.39502 0.0
C84 C 0.96785 0.01086 0.41635 0.0
C85 C 0.93603 0.09726 0.38531 0.0
C86 C 0.87589 0.03917 0.38646 0.0
H87 H 0.08245 0.89893 0.38111 0.0
H88 H 0.08132 0.91134 0.46238 0.0
H89 H 0.97883 0.90859 0.44738 0.0
H90 H 0.95444 0.95611 0.45572 0.0
H91 H -0.00142 0.93458 0.47165 0.0
H92 H 0.07766 0.00495 0.44552 0.0
H93 H 0.05149 0.98956 0.47059 0.0
H94 H 0.02861 0.0295 0.45312 0.0
H95 H 0.02269 0.95748 0.31138 0.0
H96 H 0.9225 0.05303 0.30816 0.0
H97 H 0.91776 0.05448 0.34763 0.0
H98 H 0.07631 0.00066 0.35027 0.0
H99 H 0.08689 0.94833 0.3404 0.0
H100 H 0.09293 0.96209 0.36898 0.0
H101 H 0.97833 0.90366 0.34949 0.0
H102 H 0.01694 0.88901 0.36927 0.0
H103 H 0.0335 0.89407 0.34096 0.0
H104 H 0.13176 0.85669 0.40234 0.0
C105 C 0.08121 0.90248 0.39861 0.0
C106 C 0.09498 0.08861 0.57531 0.0
C107 C 0.11834 0.12137 0.58557 0.0
C108 C 0.11431 0.12694 0.60847 0.0
C109 C 0.06564 0.0671 0.61054 0.0
C110 C 0.06884 0.06207 0.58806 0.0
C111 C 0.04157 0.02596 0.57978 0.0
H112 H 0.90303 0.86566 0.60158 0.0
C113 C 0.03636 0.03407 0.61899 0.0
C114 C 0.02193 0.00997 0.60105 0.0
H115 H 0.95139 0.90581 0.53835 0.0
H116 H 0.99319 0.96101 0.55582 0.0
H117 H 0.9955 0.8747 0.62707 0.0
H118 H 0.88462 0.95671 0.62046 0.0
H119 H 0.90251 0.9608 0.64775 0.0
H120 H 0.88341 0.91074 0.63744 0.0
H121 H 0.94444 0.86479 0.64055 0.0
H122 H 0.98576 0.89769 0.65289 0.0
C123 C 0.07246 0.99316 0.56908 0.0
C124 C 0.00638 0.04381 0.56412 0.0
C125 C 0.01003 0.02242 0.70102 0.0
C126 C 0.98526 0.99456 0.71388 0.0
C127 C 0.96071 0.96281 0.70333 0.0
C128 C 0.96118 0.9586 0.68042 0.0
C129 C 0.9865 0.9864 0.66784 0.0
C130 C 0.01015 0.01779 0.67817 0.0
C131 C 0.03508 0.04454 0.6622 0.0
C132 C 0.02276 0.02382 0.64058 0.0
C133 C 0.99441 0.98977 0.64398 0.0
C134 C 0.08438 0.0398 0.66725 0.0
C135 C 0.01763 0.09025 0.66394 0.0
C136 C 0.9231 0.88598 0.59151 0.0
C137 C 0.9241 0.88127 0.56856 0.0
C138 C 0.94987 0.909 0.55604 0.0
C139 C 0.9742 0.94095 0.56623 0.0
C140 C 0.97264 0.94536 0.58919 0.0
C141 C 0.94742 0.91809 0.60142 0.0
C142 C 0.94922 0.92775 0.62558 0.0
C143 C 0.97953 0.9655 0.62585 0.0
C144 C 0.99322 0.97558 0.60451 0.0
C145 C 0.96946 0.88931 0.63733 0.0
C146 C 0.9026 0.93937 0.63343 0.0
H147 H 0.08674 0.10589 0.6383 0.0
H148 H 0.09742 0.08328 0.55778 0.0
H149 H -0.00391 0.07592 0.56935 0.0
H150 H 0.97596 0.02513 0.56412 0.0
H151 H 0.01892 0.04607 0.54706 0.0
H152 H 0.10333 0.99052 0.57856 0.0
H153 H 0.08113 0.0023 0.55205 0.0
H154 H 0.05871 0.96104 0.56884 0.0
H155 H 0.02966 0.04687 0.70856 0.0
H156 H 0.94082 0.94131 0.71279 0.0
H157 H 0.94185 0.93378 0.67341 0.0
H158 H 0.09224 0.00677 0.67174 0.0
H159 H 0.09421 0.06034 0.6812 0.0
H160 H 0.10548 0.0467 0.65303 0.0
H161 H 0.9825 0.09067 0.66857 0.0
H162 H 0.01901 0.10718 0.64816 0.0
H163 H 0.03569 0.10859 0.67657 0.0
H164 H 0.1311 0.15246 0.61677 0.0
C165 C 0.08823 0.1 0.62097 0.0
C166 C 0.57604 0.40019 0.94477 0.0
C167 C 0.60272 0.37069 0.93395 0.0
C168 C 0.60098 0.36753 0.91089 0.0
C169 C 0.54734 0.42325 0.90973 0.0
C170 C 0.54851 0.4259 0.93237 0.0
C171 C 0.51779 0.45877 0.94119 0.0
H172 H 0.36874 0.61056 0.92146 0.0
C173 C 0.51593 0.45475 0.90175 0.0
C174 C 0.49822 0.47546 0.92009 0.0
H175 H 0.41905 0.5703 0.98423 0.0
H176 H 0.4638 0.51822 0.9661 0.0
H177 H 0.46156 0.61073 0.89728 0.0
H178 H 0.35792 0.51937 0.90017 0.0
H179 H 0.37762 0.51931 0.87309 0.0
H180 H 0.35372 0.56664 0.88433 0.0
H181 H 0.41065 0.61763 0.88325 0.0
H182 H 0.45548 0.58959 0.87079 0.0
C183 C 0.54513 0.49266 0.95337 0.0
C184 C 0.48324 0.4365 0.95566 0.0
C185 C 0.49589 0.47531 0.81979 0.0
C186 C 0.4694 0.50231 0.80736 0.0
C187 C 0.44036 0.5296 0.81841 0.0
C188 C 0.43828 0.53049 0.84138 0.0
C189 C 0.46552 0.50383 0.85354 0.0
C190 C 0.49332 0.47651 0.84272 0.0
C191 C 0.5193 0.44994 0.85829 0.0
C192 C 0.50304 0.46637 0.88026 0.0
C193 C 0.47175 0.49804 0.87737 0.0
C194 C 0.56831 0.45983 0.85469 0.0
C195 C 0.50663 0.40318 0.85448 0.0
C196 C 0.38969 0.59086 0.93134 0.0
C197 C 0.39045 0.59478 0.95434 0.0
C198 C 0.41752 0.56773 0.96652 0.0
C199 C 0.44371 0.53767 0.95594 0.0
C200 C 0.44296 0.53463 0.93291 0.0
C201 C 0.4162 0.56096 0.92103 0.0
C202 C 0.42007 0.55389 0.8967 0.0
C203 C 0.4535 0.51879 0.8959 0.0
C204 C 0.46674 0.50762 0.91714 0.0
C205 C 0.43755 0.595 0.88627 0.0
C206 C 0.37506 0.53931 0.88792 0.0
H207 H 0.57399 0.38991 0.88125 0.0
H208 H 0.57639 0.40304 0.96249 0.0
H209 H 0.47462 0.40511 0.94871 0.0
H210 H 0.45201 0.45371 0.95653 0.0
H211 H 0.49566 0.43154 0.97256 0.0
H212 H 0.57703 0.49768 0.94504 0.0
H213 H 0.55199 0.48308 0.97052 0.0
H214 H 0.52949 0.52394 0.95352 0.0
H215 H 0.51883 0.45417 0.81191 0.0
H216 H 0.41895 0.55016 0.80929 0.0
H217 H 0.41561 0.55203 0.84877 0.0
H218 H 0.57332 0.49409 0.85193 0.0
H219 H 0.5812 0.44277 0.84011 0.0
H220 H 0.58877 0.45225 0.86901 0.0
H221 H 0.4724 0.4002 0.84859 0.0
H222 H 0.5075 0.38447 0.86971 0.0
H223 H 0.52806 0.38817 0.84199 0.0
H224 H 0.62164 0.34538 0.90218 0.0
C225 C 0.57348 0.39361 0.89874 0.0
C226 C 0.59541 0.59043 0.07361 0.0
C227 C 0.62242 0.62083 0.08349 0.0
C228 C 0.62416 0.62349 0.10657 0.0
C229 C 0.57168 0.56684 0.10952 0.0
C230 C 0.57029 0.56399 0.08689 0.0
C231 C 0.53896 0.53074 0.07905 0.0
H232 H 0.38674 0.38387 0.10313 0.0
C233 C 0.54085 0.53565 0.11849 0.0
C234 C 0.52148 0.51447 0.10072 0.0
H235 H 0.43573 0.41843 0.03918 0.0
H236 H 0.48468 0.469 0.05592 0.0
H237 H 0.47867 0.38001 0.12569 0.0
H238 H 0.3823 0.47824 0.12359 0.0
H239 H 0.40227 0.47616 0.15058 0.0
H240 H 0.37505 0.43082 0.13906 0.0
H241 H 0.42991 0.37823 0.14197 0.0
H242 H 0.47875 0.40407 0.15166 0.0
C243 C 0.56523 0.49667 0.06641 0.0
C244 C 0.50301 0.55249 0.06534 0.0
C245 C 0.52228 0.52191 0.20103 0.0
C246 C 0.49558 0.49624 0.21417 0.0
C247 C 0.46649 0.46793 0.20389 0.0
C248 C 0.46424 0.46501 0.18098 0.0
C249 C 0.49134 0.49064 0.1681 0.0
C250 C 0.51961 0.5186 0.17815 0.0
C251 C 0.54566 0.54357 0.16182 0.0
C252 C 0.52873 0.52555 0.14033 0.0
C253 C 0.49696 0.49462 0.14413 0.0
C254 C 0.59461 0.53348 0.16528 0.0
C255 C 0.53368 0.59069 0.16471 0.0
C256 C 0.40765 0.40278 0.09274 0.0
C257 C 0.40717 0.39768 0.06984 0.0
C258 C 0.43564 0.42194 0.05688 0.0
C259 C 0.4639 0.45128 0.06663 0.0
C260 C 0.46387 0.45613 0.0896 0.0
C261 C 0.43629 0.43182 0.10223 0.0
C262 C 0.44191 0.43983 0.12639 0.0
C263 C 0.4771 0.47338 0.12619 0.0
C264 C 0.48957 0.48302 0.10462 0.0
C265 C 0.45784 0.39851 0.13718 0.0
C266 C 0.39818 0.4569 0.13559 0.0
H267 H 0.60177 0.60028 0.13707 0.0
H268 H 0.59315 0.58786 0.05591 0.0
H269 H 0.49362 0.58314 0.0729 0.0
H270 H 0.47244 0.53421 0.06447 0.0
H271 H 0.51457 0.55884 0.04839 0.0
H272 H 0.59876 0.49346 0.07318 0.0
H273 H 0.56839 0.50472 0.04876 0.0
H274 H 0.55083 0.46491 0.06789 0.0
H275 H 0.54526 0.54374 0.20836 0.0
H276 H 0.44504 0.44828 0.21358 0.0
H277 H 0.44141 0.44289 0.1742 0.0
H278 H 0.5992 0.4996 0.16919 0.0
H279 H 0.60831 0.55219 0.1791 0.0
H280 H 0.61462 0.53885 0.15049 0.0
H281 H 0.49914 0.59443 0.17002 0.0
H282 H 0.53592 0.60858 0.14925 0.0
H283 H 0.55457 0.60605 0.1773 0.0
H284 H 0.64525 0.64625 0.11456 0.0
C285 C 0.59902 0.59665 0.11962 0.0
H286 H 0.10495 0.15814 0.99731 0.0
H287 H 0.16275 0.20988 0.003 0.0
H288 H 0.24016 0.11653 0.03622 0.0
H289 H 0.1818 0.06491 0.03124 0.0
H290 H 0.23465 0.18564 0.05975 0.0
H291 H 0.27927 0.23 0.97503 0.0
H292 H 0.22186 0.23572 0.97984 0.0
H293 H 0.2464 0.18429 0.98103 0.0
C294 C 0.13454 0.14841 0.00553 0.0
C295 C 0.13873 0.10748 0.01392 0.0
C296 C 0.16775 0.17797 0.00861 0.0
C297 C 0.2061 0.16691 0.01972 0.0
C298 C 0.2109 0.12568 0.02751 0.0
H299 H 0.4273 0.33758 0.03925 0.0
H300 H 0.37983 0.28074 0.02586 0.0
C301 C 0.17749 0.09625 0.02469 0.0
C302 C 0.23909 0.19938 0.02522 0.0
H303 H 0.30105 0.2784 0.0036 0.0
C304 C 0.24956 0.20554 0.04742 0.0
C305 C 0.25896 0.22504 0.00912 0.0
C306 C 0.2514 0.21814 0.98492 0.0
C307 C 0.27822 0.23747 0.05404 0.0
C308 C 0.29588 0.26483 0.03809 0.0
C309 C 0.28679 0.25781 0.01582 0.0
C310 C 0.32337 0.30115 0.04443 0.0
C311 C 0.28941 0.24143 0.07809 0.0
C312 C 0.3068 0.33214 0.05865 0.0
C313 C 0.33379 0.36425 0.0664 0.0
C314 C 0.37763 0.36631 0.05977 0.0
C315 C 0.39356 0.33668 0.04455 0.0
C316 C 0.36658 0.30423 0.03696 0.0
H317 H 0.28411 0.2113 0.08688 0.0
H318 H 0.32388 0.25127 0.08041 0.0
H319 H 0.26803 0.26551 0.08579 0.0
H320 H 0.27319 0.33093 0.06413 0.0
H321 H 0.32057 0.38717 0.07782 0.0
H322 H 0.14805 0.89343 0.0401 0.0
H323 H 0.20129 0.83617 0.03767 0.0
H324 H 0.15041 0.80107 0.97419 0.0
H325 H 0.09647 0.85715 0.97672 0.0
H326 H 0.16498 0.7331 -0.00021 0.0
H327 H 0.30998 0.8386 -0.00012 0.0
H328 H 0.27487 0.84345 0.02337 0.0
H329 H 0.25518 0.85823 0.99674 0.0
C330 C 0.14818 0.87345 0.02564 0.0
C331 C 0.1182 0.88001 0.00853 0.0
C332 C 0.17874 0.84089 0.02425 0.0
C333 C 0.18023 0.81483 0.0056 0.0
C334 C 0.14983 0.82086 0.98872 0.0
H335 H 0.37545 0.67533 0.941 0.0
H336 H 0.32565 0.7266 0.9571 0.0
C337 C 0.11906 0.85302 0.99018 0.0
C338 C 0.21368 0.78155 0.00319 0.0
H339 H 0.32309 0.76598 0.99666 0.0
C340 C 0.19962 0.74012 -0.00068 0.0
C341 C 0.25878 0.791 0.00249 0.0
C342 C 0.27575 0.83524 0.00566 0.0
C343 C 0.22925 0.70815 0.99382 0.0
C344 C 0.27431 0.71773 0.9928 0.0
C345 C 0.28853 0.75877 0.9976 0.0
C346 C 0.30655 0.68705 0.98429 0.0
C347 C 0.21177 0.66509 0.98795 0.0
C348 C 0.31305 0.64807 0.99449 0.0
C349 C 0.34096 0.61823 0.98505 0.0
C350 C 0.36315 0.62715 0.96538 0.0
C351 C 0.35804 0.66702 0.95584 0.0
C352 C 0.32994 0.69657 0.96516 0.0
H353 H 0.17597 0.66549 0.98512 0.0
H354 H 0.22796 0.65261 0.97296 0.0
H355 H 0.21843 0.64309 0.00162 0.0
H356 H 0.29598 0.64044 0.00952 0.0
H357 H 0.34415 0.5878 0.9928 0.0
H358 H 0.84642 0.92624 0.03579 0.0
H359 H 0.79281 0.87011 0.03987 0.0
H360 H 0.85667 0.79845 0.98886 0.0
H361 H 0.91117 0.85428 0.98482 0.0
H362 H 0.73482 0.83118 0.0097 0.0
H363 H 0.859 0.71976 0.04225 0.0
H364 H 0.86972 0.77535 0.03961 0.0
H365 H 0.86959 0.74204 0.01572 0.0
C366 C 0.84902 0.89874 0.02529 0.0
C367 C 0.88345 0.89454 0.01017 0.0
C368 C 0.81822 0.86675 0.02761 0.0
C369 C 0.82122 0.82998 0.01488 0.0
C370 C 0.85431 0.82635 -0.00092 0.0
H371 H 0.67133 0.60243 0.04707 0.0
H372 H 0.71655 0.65104 0.02565 0.0
C373 C 0.8853 0.85835 0.99677 0.0
C374 C 0.79088 0.79485 0.01926 0.0
H375 H 0.78605 0.69787 0.04289 0.0
C376 C 0.74599 0.80175 0.01665 0.0
C377 C 0.80568 0.75644 0.0282 0.0
C378 C 0.85357 0.7478 0.03179 0.0
C379 C 0.71533 0.77188 0.02362 0.0
C380 C 0.73008 0.7346 0.03372 0.0
C381 C 0.77497 0.7266 0.03515 0.0
C382 C 0.69986 0.70583 0.04514 0.0
C383 C 0.66742 0.78093 0.0206 0.0
C384 C 0.67583 0.72063 0.06319 0.0
C385 C 0.65021 0.69309 0.07542 0.0
C386 C 0.64832 0.65015 0.06988 0.0
C387 C 0.67191 0.63545 0.05158 0.0
C388 C 0.69776 0.66307 0.03938 0.0
H389 H 0.66189 0.80288 0.00675 0.0
H390 H 0.64869 0.75154 0.01753 0.0
H391 H 0.65446 0.79602 0.03572 0.0
H392 H 0.67777 0.75336 0.06818 0.0
H393 H 0.63203 0.70536 0.0893 0.0
H394 H 0.94425 0.17218 0.99414 0.0
H395 H 0.88939 0.22621 0.98736 0.0
H396 H 0.78954 0.14461 0.01339 0.0
H397 H 0.84439 0.09093 0.02086 0.0
H398 H 0.82495 0.21604 0.95918 0.0
H399 H 0.75425 0.2554 0.04032 0.0
H400 H 0.80495 0.22702 0.03734 0.0
H401 H 0.75357 0.19984 0.03497 0.0
C402 C 0.91074 0.16604 -0.00118 0.0
C403 C 0.89858 0.12719 0.0079 0.0
C404 C 0.87946 0.19699 0.99499 0.0
C405 C 0.83543 0.18962 5e-05 0.0
C406 C 0.82344 0.15144 0.00985 0.0
H407 H 0.61693 0.28654 0.92889 0.0
H408 H 0.6729 0.24394 0.94671 0.0
C409 C 0.85482 0.12063 0.01395 0.0
C410 C 0.80162 0.21947 0.99253 0.0
H411 H 0.71143 0.27455 0.00877 0.0
C412 C 0.80049 0.22922 0.97011 0.0
C413 C 0.7699 0.23693 0.00681 0.0
C414 C 0.77094 0.22961 0.03123 0.0
C415 C 0.76783 0.25492 0.96144 0.0
C416 C 0.73472 0.2704 0.97547 0.0
C417 C 0.73653 0.26197 0.99803 0.0
C418 C 0.69783 0.295 0.96675 0.0
C419 C 0.7691 0.26528 0.93729 0.0
C420 C 0.6922 0.33725 0.97288 0.0
C421 C 0.66013 0.36162 0.96278 0.0
C422 C 0.63333 0.34399 0.94642 0.0
C423 C 0.63771 0.30111 0.94114 0.0
C424 C 0.66956 0.27678 0.95131 0.0
H425 H 0.80226 0.26079 0.93027 0.0
H426 H 0.74641 0.24407 0.92834 0.0
H427 H 0.75876 0.29827 0.93438 0.0
H428 H 0.71368 0.35174 0.98484 0.0
H429 H 0.65752 0.39464 0.9671 0.0
H430 H 0.67001 0.576 0.54145 0.0
H431 H 0.7287 0.62758 0.5452 0.0
H432 H 0.67551 0.6987 0.49147 0.0
H433 H 0.61619 0.64765 0.48774 0.0
H434 H 0.792 0.65623 0.5148 0.0
H435 H 0.6804 0.78432 0.54215 0.0
H436 H 0.66368 0.72988 0.54111 0.0
H437 H 0.66712 0.76003 0.51632 0.0
C438 C 0.67079 0.6025 0.53035 0.0
C439 C 0.63808 0.60792 0.51444 0.0
C440 C 0.70444 0.63187 0.53249 0.0
C441 C 0.706 0.66718 0.51882 0.0
C442 C 0.67436 0.67201 0.50243 0.0
H443 H 0.87349 0.88875 0.53188 0.0
H444 H 0.82408 0.83595 0.5162 0.0
C445 C 0.64058 0.64272 0.5003 0.0
C446 C 0.74002 0.69954 0.52231 0.0
H447 H 0.75493 0.80101 0.53933 0.0
C448 C 0.78397 0.68798 0.52003 0.0
C449 C 0.7293 0.74093 0.52906 0.0
C450 C 0.68262 0.75463 0.5325 0.0
C451 C 0.81764 0.71666 0.52461 0.0
C452 C 0.80691 0.75763 0.53197 0.0
C453 C 0.76297 0.76956 0.53361 0.0
C454 C 0.84045 0.78771 0.5397 0.0
C455 C 0.86435 0.70283 0.52163 0.0
C456 C 0.86613 0.77789 0.558 0.0
C457 C 0.89437 0.80787 0.56694 0.0
C458 C 0.89723 0.84831 0.55781 0.0
C459 C 0.87233 0.85771 0.53911 0.0
C460 C 0.84399 0.82769 0.5302 0.0
H461 H 0.86693 0.67616 0.50983 0.0
H462 H 0.88507 0.72915 0.51572 0.0
H463 H 0.87739 0.69213 0.53763 0.0
H464 H 0.86324 0.74751 0.56584 0.0
H465 H 0.91343 0.79962 0.58123 0.0
H466 H 0.6461 0.39349 0.54004 0.0
H467 H 0.69893 0.33596 0.53705 0.0
H468 H 0.64388 0.29991 0.47459 0.0
H469 H 0.59032 0.35622 0.47773 0.0
H470 H 0.66061 0.23227 0.4998 0.0
H471 H 0.80507 0.33831 0.49771 0.0
H472 H 0.77158 0.34308 0.52179 0.0
H473 H 0.75002 0.35775 0.4955 0.0
C474 C 0.64521 0.37322 0.5257 0.0
C475 C 0.6142 0.37962 0.50904 0.0
C476 C 0.67554 0.3405 0.52398 0.0
C477 C 0.67581 0.31414 0.50542 0.0
C478 C 0.64429 0.31993 0.48905 0.0
H479 H 0.87032 0.17525 0.4393 0.0
H480 H 0.81993 0.226 0.45537 0.0
C481 C 0.61373 0.35222 0.49085 0.0
C482 C 0.70925 0.28093 0.50253 0.0
H483 H 0.81838 0.2657 0.49465 0.0
C484 C 0.69518 0.23942 0.49887 0.0
C485 C 0.75428 0.29053 0.50122 0.0
C486 C 0.77127 0.33485 0.50407 0.0
C487 C 0.72468 0.20752 0.49305 0.0
C488 C 0.76963 0.21724 0.49146 0.0
C489 C 0.7839 0.25836 0.49601 0.0
C490 C 0.80171 0.18656 0.48274 0.0
C491 C 0.70709 0.16436 0.48747 0.0
C492 C 0.8088 0.14773 0.49301 0.0
C493 C 0.83705 0.11815 0.48358 0.0
C494 C 0.85902 0.12716 0.46386 0.0
C495 C 0.85311 0.16682 0.45418 0.0
C496 C 0.82467 0.1961 0.46348 0.0
H497 H 0.67119 0.16469 0.48494 0.0
H498 H 0.72279 0.15172 0.47239 0.0
H499 H 0.71423 0.14256 0.50115 0.0
H500 H 0.79209 0.14008 0.50814 0.0
H501 H 0.84082 0.0879 0.49145 0.0
H502 H 0.35162 0.42556 0.54266 0.0
H503 H 0.29758 0.37016 0.54753 0.0
H504 H 0.34163 0.30967 0.48795 0.0
H505 H 0.39704 0.36451 0.48327 0.0
H506 H 0.22993 0.34139 0.52304 0.0
H507 H 0.35595 0.21679 0.53244 0.0
H508 H 0.36957 0.27198 0.53199 0.0
H509 H 0.35705 0.24459 0.50688 0.0
C510 C 0.34974 0.40068 0.53047 0.0
C511 C 0.37905 0.39916 0.51273 0.0
C512 C 0.31871 0.36905 0.53326 0.0
C513 C 0.31611 0.33542 0.51831 0.0
C514 C 0.34381 0.33483 0.49996 0.0
H515 H 0.10367 0.15419 0.5446 0.0
H516 H 0.15058 0.20255 0.52413 0.0
C517 C 0.3753 0.36628 0.49727 0.0
C518 C 0.2857 0.30029 0.52285 0.0
H519 H 0.283 0.19675 0.53737 0.0
C520 C 0.24134 0.30959 0.52592 0.0
C521 C 0.30088 0.25893 0.52669 0.0
C522 C 0.34847 0.24735 0.52452 0.0
C523 C 0.21207 0.27921 0.53378 0.0
C524 C 0.22748 0.23812 0.53809 0.0
C525 C 0.27136 0.22827 0.53396 0.0
C526 C 0.20013 0.20643 0.54933 0.0
C527 C 0.16563 0.29209 0.53862 0.0
C528 C 0.2133 0.19133 0.56986 0.0
C529 C 0.18712 0.16315 0.58136 0.0
C530 C 0.14701 0.14964 0.57265 0.0
C531 C 0.13442 0.1639 0.55176 0.0
C532 C 0.16092 0.19191 0.54015 0.0
H533 H 0.16152 0.32683 0.53859 0.0
H534 H 0.14377 0.27863 0.52589 0.0
H535 H 0.15495 0.27996 0.55482 0.0
H536 H 0.2436 0.20194 0.57718 0.0
H537 H 0.19832 0.15204 0.59715 0.0
H538 H 0.43431 0.66428 0.48271 0.0
H539 H 0.37819 0.71747 0.4772 0.0
H540 H 0.29682 0.65761 0.52569 0.0
H541 H 0.35258 0.60372 0.53115 0.0
H542 H 0.25461 0.67117 0.48686 0.0
H543 H 0.33747 0.81731 0.51378 0.0
H544 H 0.36958 0.78778 0.49448 0.0
H545 H 0.3572 0.76561 0.52089 0.0
C546 C 0.4048 0.66268 0.49247 0.0
C547 C 0.39791 0.6296 0.50731 0.0
C548 C 0.37287 0.69337 0.48941 0.0
C549 C 0.33365 0.69183 0.50128 0.0
C550 C 0.32705 0.65949 0.5165 0.0
H551 H 0.09619 0.83717 0.47197 0.0
H552 H 0.14826 0.79305 0.49191 0.0
C553 C 0.35895 0.62872 0.51956 0.0
C554 C 0.29804 0.72154 0.49611 0.0
H555 H 0.27573 0.82594 0.48972 0.0
C556 C 0.2588 0.70503 0.48789 0.0
C557 C 0.30368 0.76564 0.49752 0.0
C558 C 0.34411 0.78514 0.50736 0.0
C559 C 0.22603 0.73146 0.47979 0.0
C560 C 0.23258 0.77551 0.48024 0.0
C561 C 0.27098 0.7921 0.48935 0.0
C562 C 0.20175 0.80452 0.46951 0.0
C563 C 0.18572 0.71204 0.46974 0.0
C564 C 0.21508 0.82637 0.45074 0.0
C565 C 0.18564 0.85165 0.43944 0.0
C566 C 0.14232 0.85565 0.44675 0.0
C567 C 0.12939 0.83475 0.46599 0.0
C568 C 0.15894 0.80935 0.47729 0.0
H569 H 0.18904 0.67748 0.46741 0.0
H570 H 0.15735 0.71789 0.48066 0.0
H571 H 0.17859 0.72654 0.4536 0.0
H572 H 0.24808 0.82313 0.44456 0.0
H573 H 0.19677 0.86799 0.42491 0.0
H574 H 0.07169 -0.00171 0.10029 0.0
H575 H 0.06736 -0.00146 0.14035 0.0
H576 H 0.92736 0.00987 0.13685 0.0
H577 H 0.93127 0.01023 0.09683 0.0
H578 H 0.96594 0.06562 0.16663 0.0
H579 H 0.0245 0.90214 0.17924 0.0
H580 H 0.06013 0.9344 0.16302 0.0
H581 H 0.00684 0.92109 0.15284 0.0
C582 C 0.03994 0.00073 0.10801 0.0
C583 C 0.00181 0.00408 0.0953 0.0
C584 C 0.03754 0.00062 0.13092 0.0
C585 C -0.00301 0.00356 0.14153 0.0
C586 C 0.95895 0.00735 0.12894 0.0
H587 H 0.90669 0.00857 0.27656 0.0
H588 H 0.91272 0.00917 0.23653 0.0
C589 C 0.96129 0.00752 0.10606 0.0
C590 C 0.99415 0.00359 0.16578 0.0
H591 H 0.01526 0.94435 0.2111 0.0
C592 C 0.97658 0.03907 0.17637 0.0
C593 C 0.00812 0.9689 0.1784 0.0
C594 C 0.02561 0.92928 0.16784 0.0
C595 C 0.9731 0.04104 0.19931 0.0
C596 C 0.98697 0.00632 0.21192 0.0
C597 C 0.0047 0.9709 0.20135 0.0
C598 C 0.98324 0.00608 0.23612 0.0
C599 C 0.95538 0.08053 0.2099 0.0
C600 C 0.02085 0.00328 0.2491 0.0
C601 C 0.01753 0.00299 0.27196 0.0
C602 C 0.97647 0.00521 0.28226 0.0
C603 C 0.93881 0.00756 0.26916 0.0
C604 C 0.94219 0.00787 0.24629 0.0
H605 H 0.95632 0.10771 0.19851 0.0
H606 H 0.92091 0.0752 0.21474 0.0
H607 H 0.97413 0.08877 0.2249 0.0
H608 H 0.05282 0.00178 0.24153 0.0
H609 H 0.0472 0.00167 0.28157 0.0
H610 H 0.00957 0.07594 0.92246 0.0
H611 H 0.00329 0.07696 0.88243 0.0
H612 H -0.00244 0.94136 0.88119 0.0
H613 H 0.00317 0.93992 0.9211 0.0
H614 H 0.05703 0.0406 0.85064 0.0
H615 H 0.88968 0.97467 0.84615 0.0
H616 H 0.91289 0.99466 0.87135 0.0
H617 H 0.92666 0.94276 0.86165 0.0
C618 C 0.00694 0.04631 0.91369 0.0
C619 C 0.00657 0.00785 0.92503 0.0
C620 C 0.00334 0.04699 0.89082 0.0
C621 C -0.00088 0.00928 0.87892 0.0
C622 C -0.00028 0.97086 0.89012 0.0
H623 H 0.98864 0.93079 0.74382 0.0
H624 H 0.99111 0.93676 0.78382 0.0
C625 C 0.00321 0.97012 0.91295 0.0
C626 C 0.99492 0.00989 0.85472 0.0
H627 H 0.92954 0.97753 0.81256 0.0
C628 C 0.029 0.0272 0.84228 0.0
C629 C 0.95821 0.99247 0.84392 0.0
C630 C 0.91957 0.97545 0.85644 0.0
C631 C 0.02803 0.02625 0.81926 0.0
C632 C 0.99177 0.00797 0.80849 0.0
C633 C 0.95736 0.99133 0.82091 0.0
C634 C 0.98942 0.00481 0.7843 0.0
C635 C 0.06636 0.04361 0.80662 0.0
C636 C 0.98693 0.04113 0.7714 0.0
C637 C 0.98517 0.03785 0.74854 0.0
C638 C 0.98574 -0.00187 0.73819 0.0
C639 C 0.9876 0.96181 0.75125 0.0
C640 C 0.98927 0.96515 0.77409 0.0
H641 H 0.09534 0.04852 0.81727 0.0
H642 H 0.07547 0.02213 0.79293 0.0
H643 H 0.05724 0.0744 0.79947 0.0
H644 H 0.98616 0.07201 0.77902 0.0
H645 H 0.983 0.0664 0.73898 0.0
H646 H 0.4346 0.52999 0.59759 0.0
H647 H 0.43044 0.53011 0.63757 0.0
H648 H 0.56219 0.48308 0.64105 0.0
H649 H 0.56711 0.48379 0.60099 0.0
H650 H 0.43719 0.46487 0.66558 0.0
H651 H 0.5669 0.58228 0.68298 0.0
H652 H 0.54471 0.57426 0.65587 0.0
H653 H 0.58508 0.53874 0.66647 0.0
C654 C 0.46285 0.51988 0.60682 0.0
C655 C 0.50128 0.50704 0.59607 0.0
C656 C 0.46037 0.51996 0.62969 0.0
C657 C 0.49619 0.50717 0.64229 0.0
C658 C 0.53451 0.49401 0.63165 0.0
H659 H 0.47981 0.43475 0.77961 0.0
H660 H 0.48704 0.43553 0.7397 0.0
C661 C 0.53716 0.49422 0.60874 0.0
C662 C 0.49271 0.50646 0.66655 0.0
H663 H 0.53835 0.5452 0.71357 0.0
C664 C 0.45924 0.48251 0.67609 0.0
C665 C 0.52118 0.52993 0.68019 0.0
C666 C 0.55623 0.55809 0.67089 0.0
C667 C 0.45359 0.48114 0.69892 0.0
C668 C 0.48291 0.50353 0.71259 0.0
C669 C 0.51618 0.52775 0.70305 0.0
C670 C 0.47912 0.50296 0.73682 0.0
C671 C 0.41568 0.4565 0.70812 0.0
C672 C 0.47356 0.54073 0.74852 0.0
C673 C 0.47024 0.5405 0.77137 0.0
C674 C 0.47244 0.50244 0.78301 0.0
C675 C 0.47829 0.46466 0.77121 0.0
C676 C 0.48188 0.46497 0.74836 0.0
H677 H 0.38984 0.45129 0.69562 0.0
H678 H 0.42737 0.42522 0.71356 0.0
H679 H 0.40102 0.47292 0.72247 0.0
H680 H 0.47168 0.57045 0.73993 0.0
H681 H 0.4666 0.57025 0.77994 0.0
H682 H 0.51632 0.57411 0.42261 0.0
H683 H 0.51389 0.57421 0.38249 0.0
H684 H 0.49799 0.43935 0.3821 0.0
H685 H 0.49978 0.43885 0.42214 0.0
H686 H 0.56807 0.53249 0.35232 0.0
H687 H 0.39611 0.47979 0.34436 0.0
H688 H 0.41855 0.49897 0.3699 0.0
H689 H 0.42914 0.44592 0.36095 0.0
C690 C 0.51222 0.54445 0.41402 0.0
C691 C 0.50795 0.50649 0.42563 0.0
C692 C 0.51087 0.54459 0.39109 0.0
C693 C 0.50502 0.50689 0.37938 0.0
C694 C 0.50157 0.4689 0.39087 0.0
H695 H 0.49372 0.43128 0.24343 0.0
H696 H 0.49673 0.43552 0.28347 0.0
C697 C 0.50284 0.46869 0.41376 0.0
C698 C 0.50315 0.50709 0.35512 0.0
H699 H 0.43852 0.48032 0.31165 0.0
C700 C 0.53967 0.52139 0.34339 0.0
C701 C 0.46598 0.49264 0.34358 0.0
C702 C 0.42504 0.47882 0.35531 0.0
C703 C 0.54045 0.52053 0.32036 0.0
C704 C 0.50351 0.50551 0.30886 0.0
C705 C 0.46684 0.49165 0.32057 0.0
C706 C 0.50236 0.50336 0.28462 0.0
C707 C 0.58116 0.53463 0.30853 0.0
C708 C 0.50413 0.54018 0.27206 0.0
C709 C 0.50211 0.53792 0.24918 0.0
C710 C 0.49808 0.49876 0.23847 0.0
C711 C 0.49624 0.46196 0.25116 0.0
C712 C 0.4982 0.46428 0.27402 0.0
H713 H 0.60976 0.53632 0.31969 0.0
H714 H 0.58895 0.51295 0.29472 0.0
H715 H 0.57572 0.56645 0.30164 0.0
H716 H 0.50648 0.57071 0.27998 0.0
H717 H 0.50291 0.56688 0.2399 0.0
loop_
_geom_bond_atom_site_label_1
_geom_bond_atom_site_label_2
_geom_bond_distance
_geom_bond_site_symmetry_2
_ccdc_geom_bond_type
O0 Zn1 1.953 . S
O0 C16 1.225 1_565 S
Zn1 O0 1.953 . S
Zn1 O2 1.949 1_565 S
Zn1 O8 1.919 . S
Zn1 O13 1.924 1_565 S
O2 Zn1 1.949 1_545 S
O2 Zn3 1.923 1_444 S
O2 Zn4 1.950 1_455 S
O2 Zn5 1.945 1_554 S
Zn3 O2 1.923 1_666 S
Zn3 O6 1.934 . S
Zn3 O9 1.941 1_655 S
Zn3 O10 1.962 1_556 S
Zn4 O2 1.950 1_655 S
Zn4 O11 1.938 1_545 S
Zn4 O12 1.906 . S
Zn4 O22 1.953 . S
Zn5 O2 1.945 1_556 S
Zn5 O7 1.932 . S
Zn5 O14 1.977 1_455 S
Zn5 O15 1.910 1_556 S
O6 Zn3 1.934 . S
O6 C17 1.224 1_665 S
O7 Zn5 1.932 . S
O7 C17 1.307 . S
O8 Zn1 1.919 . S
O8 C19 1.253 . S
O9 Zn3 1.941 1_455 S
O9 C19 1.283 1_556 S
O10 Zn3 1.962 1_554 S
O10 C18 1.316 . S
O11 Zn4 1.938 1_565 S
O11 C18 1.247 . S
O12 Zn4 1.906 . S
O12 C20 1.304 . S
O13 Zn1 1.924 1_545 S
O13 C21 1.311 . S
O14 Zn5 1.977 1_655 S
O14 C20 1.272 1_556 S
O15 Zn5 1.910 1_554 S
O15 C21 1.231 . S
C16 O0 1.225 1_545 S
C16 O22 1.298 1_455 S
C17 O6 1.224 1_445 S
C17 O7 1.307 . S
C18 O10 1.316 . S
C18 O11 1.247 . S
C19 O8 1.253 . S
C19 O9 1.283 1_554 S
C20 O12 1.304 . S
C20 O14 1.272 1_554 S
C21 O13 1.311 . S
C21 O15 1.231 . S
O22 Zn4 1.953 . S
O22 C16 1.298 1_655 S
O23 Zn24 1.953 . S
O23 C39 1.225 . S
Zn24 O23 1.953 . S
Zn24 O25 1.949 . S
Zn24 O31 1.919 . S
Zn24 O36 1.924 . S
O25 Zn24 1.949 . S
O25 Zn26 1.923 . S
O25 Zn27 1.950 . S
O25 Zn28 1.945 . S
Zn26 O25 1.923 . S
Zn26 O29 1.933 . S
Zn26 O32 1.941 . S
Zn26 O33 1.965 . S
Zn27 O25 1.950 . S
Zn27 O34 1.938 . S
Zn27 O35 1.906 . S
Zn27 O45 1.953 . S
Zn28 O25 1.945 . S
Zn28 O30 1.932 . S
Zn28 O37 1.977 . S
Zn28 O38 1.910 . S
O29 Zn26 1.933 . S
O29 C40 1.226 . S
O30 Zn28 1.932 . S
O30 C40 1.307 . S
O31 Zn24 1.919 . S
O31 C42 1.253 . S
O32 Zn26 1.941 . S
O32 C42 1.283 . S
O33 Zn26 1.965 . S
O33 C41 1.303 . S
O34 Zn27 1.938 . S
O34 C41 1.247 . S
O35 Zn27 1.906 . S
O35 C43 1.304 . S
O36 Zn24 1.924 . S
O36 C44 1.311 . S
O37 Zn28 1.977 . S
O37 C43 1.272 . S
O38 Zn28 1.910 . S
O38 C44 1.231 . S
C39 O23 1.225 . S
C39 O45 1.298 . S
C40 O29 1.226 . S
C40 O30 1.307 . S
C41 O33 1.303 . S
C41 O34 1.247 . S
C42 O31 1.253 . S
C42 O32 1.283 . S
C43 O35 1.304 . S
C43 O37 1.272 . S
C44 O36 1.311 . S
C44 O38 1.231 . S
O45 Zn27 1.953 . S
O45 C39 1.298 . S
C46 C47 1.391 . S
C46 C50 1.391 . S
C46 H88 0.948 . S
C47 C46 1.391 . S
C47 C48 1.391 . S
C48 C47 1.391 . S
C48 H104 0.947 . S
C48 C105 1.392 . S
C49 C50 1.391 . S
C49 C53 1.397 . S
C49 C105 1.419 . S
C50 C46 1.391 . S
C50 C49 1.391 . S
C50 C51 1.399 . S
C51 C50 1.399 . S
C51 C54 1.396 . S
C51 C63 1.453 1_565 S
C51 C64 1.684 1_455 S
H52 C76 0.948 . S
C53 C49 1.397 . S
C53 C54 1.394 . S
C53 C72 1.723 . S
C54 C51 1.396 . S
C54 C53 1.394 . S
C54 C84 1.723 1_465 S
H55 C78 0.947 . S
H56 C79 0.948 . S
H57 C85 0.982 . S
H58 C86 0.979 . S
H59 C86 0.980 . S
H60 C86 0.983 . S
H61 C85 0.979 . S
H62 C85 0.977 . S
C63 C51 1.453 1_545 S
C63 H92 0.982 . S
C63 H93 0.979 1_545 S
C63 H94 0.977 . S
C64 C51 1.684 1_655 S
C64 H89 0.979 . S
C64 H90 0.980 . S
C64 H91 0.983 1_655 S
C65 C66 1.391 1_465 S
C65 C70 1.391 . S
C65 H95 0.948 . S
C66 C65 1.391 1_645 S
C66 C67 1.391 . S
C67 C66 1.391 . S
C67 C68 1.392 . S
C67 H96 0.947 . S
C68 C67 1.392 . S
C68 C69 1.419 . S
C68 H97 0.948 . S
C69 C68 1.419 . S
C69 C70 1.391 1_645 S
C69 C73 1.397 . S
C70 C65 1.391 . S
C70 C69 1.391 1_465 S
C70 C71 1.399 . S
C71 C70 1.399 . S
C71 C72 1.396 . S
C71 C74 1.453 . S
C71 C75 1.684 . S
C72 C53 1.723 . S
C72 C71 1.396 . S
C72 C73 1.394 1_465 S
C73 C69 1.397 . S
C73 C72 1.394 1_645 S
C73 C83 1.723 . S
C74 C71 1.453 . S
C74 H98 0.982 . S
C74 H99 0.979 . S
C74 H100 0.977 . S
C75 C71 1.684 . S
C75 H101 0.979 . S
C75 H102 0.980 . S
C75 H103 0.983 . S
C76 H52 0.948 . S
C76 C77 1.391 . S
C76 C81 1.391 . S
C77 C76 1.391 . S
C77 C78 1.391 . S
C78 H55 0.947 . S
C78 C77 1.391 . S
C78 C79 1.392 . S
C79 H56 0.948 . S
C79 C78 1.392 . S
C79 C80 1.419 . S
C80 C79 1.419 . S
C80 C81 1.391 . S
C80 C84 1.397 . S
C81 C76 1.391 . S
C81 C80 1.391 . S
C81 C82 1.399 . S
C82 C81 1.399 . S
C82 C83 1.396 . S
C82 C85 1.453 . S
C82 C86 1.684 . S
C83 C73 1.723 . S
C83 C82 1.396 . S
C83 C84 1.394 . S
C84 C54 1.723 1_645 S
C84 C80 1.397 . S
C84 C83 1.394 . S
C85 H57 0.982 . S
C85 H61 0.979 . S
C85 H62 0.977 . S
C85 C82 1.453 . S
C86 H58 0.979 . S
C86 H59 0.980 . S
C86 H60 0.983 . S
C86 C82 1.684 . S
H87 C105 0.948 . S
H88 C46 0.948 . S
H89 C64 0.979 . S
H90 C64 0.980 . S
H91 C64 0.983 1_455 S
H92 C63 0.982 . S
H93 C63 0.979 1_565 S
H94 C63 0.977 . S
H95 C65 0.948 . S
H96 C67 0.947 . S
H97 C68 0.948 . S
H98 C74 0.982 . S
H99 C74 0.979 . S
H100 C74 0.977 . S
H101 C75 0.979 . S
H102 C75 0.980 . S
H103 C75 0.983 . S
H104 C48 0.947 . S
C105 C48 1.392 . S
C105 C49 1.419 . S
C105 H87 0.948 . S
C106 C107 1.391 . S
C106 C110 1.391 . S
C106 H148 0.948 . S
C107 C106 1.391 . S
C107 C108 1.391 . S
C108 C107 1.391 . S
C108 H164 0.947 . S
C108 C165 1.392 . S
C109 C110 1.391 . S
C109 C113 1.397 . S
C109 C165 1.419 . S
C110 C106 1.391 . S
C110 C109 1.391 . S
C110 C111 1.399 . S
C111 C110 1.399 . S
C111 C114 1.396 . S
C111 C123 1.470 . S
C111 C124 1.684 . S
H112 C136 0.948 . S
C113 C109 1.397 . S
C113 C114 1.394 . S
C113 C132 1.723 . S
C114 C111 1.396 . S
C114 C113 1.394 . S
C114 C144 1.723 1_445 S
H115 C138 0.947 . S
H116 C139 0.948 . S
H117 C145 0.982 . S
H118 C146 0.979 . S
H119 C146 0.980 . S
H120 C146 0.983 . S
H121 C145 0.979 . S
H122 C145 0.977 . S
C123 C111 1.470 . S
C123 H152 0.972 1_545 S
C123 H153 0.988 . S
C123 H154 0.962 1_545 S
C124 C111 1.684 . S
C124 H149 0.979 1_455 S
C124 H150 0.980 1_455 S
C124 H151 0.983 . S
C125 C126 1.391 . S
C125 C130 1.391 . S
C125 H155 0.948 . S
C126 C125 1.391 . S
C126 C127 1.391 1_445 S
C127 C126 1.391 1_665 S
C127 C128 1.392 . S
C127 H156 0.947 . S
C128 C127 1.392 . S
C128 C129 1.419 1_655 S
C128 H157 0.948 . S
C129 C128 1.419 1_455 S
C129 C130 1.391 1_565 S
C129 C133 1.397 . S
C130 C125 1.391 . S
C130 C129 1.391 1_545 S
C130 C131 1.399 . S
C131 C130 1.399 . S
C131 C132 1.396 . S
C131 C134 1.453 . S
C131 C135 1.684 . S
C132 C113 1.723 . S
C132 C131 1.396 . S
C132 C133 1.394 1_545 S
C133 C129 1.397 . S
C133 C132 1.394 1_565 S
C133 C143 1.723 1_455 S
C134 C131 1.453 . S
C134 H158 0.982 . S
C134 H159 0.979 . S
C134 H160 0.977 . S
C135 C131 1.684 . S
C135 H161 0.979 . S
C135 H162 0.980 . S
C135 H163 0.983 . S
C136 H112 0.948 . S
C136 C137 1.391 . S
C136 C141 1.391 . S
C137 C136 1.391 . S
C137 C138 1.391 . S
C138 H115 0.947 . S
C138 C137 1.391 . S
C138 C139 1.392 . S
C139 H116 0.948 . S
C139 C138 1.392 . S
C139 C140 1.419 . S
C140 C139 1.419 . S
C140 C141 1.391 . S
C140 C144 1.397 . S
C141 C136 1.391 . S
C141 C140 1.391 . S
C141 C142 1.399 . S
C142 C141 1.399 . S
C142 C143 1.396 . S
C142 C145 1.453 . S
C142 C146 1.684 . S
C143 C133 1.723 1_655 S
C143 C142 1.396 . S
C143 C144 1.394 . S
C144 C114 1.723 1_665 S
C144 C140 1.397 . S
C144 C143 1.394 . S
C145 H117 0.982 . S
C145 H121 0.979 . S
C145 H122 0.977 . S
C145 C142 1.453 . S
C146 H118 0.979 . S
C146 H119 0.980 . S
C146 H120 0.983 . S
C146 C142 1.684 . S
H147 C165 0.948 . S
H148 C106 0.948 . S
H149 C124 0.979 1_655 S
H150 C124 0.980 1_655 S
H151 C124 0.983 . S
H152 C123 0.972 1_565 S
H153 C123 0.988 . S
H154 C123 0.962 1_565 S
H155 C125 0.948 . S
H156 C127 0.947 . S
H157 C128 0.948 . S
H158 C134 0.982 . S
H159 C134 0.979 . S
H160 C134 0.977 . S
H161 C135 0.979 . S
H162 C135 0.980 . S
H163 C135 0.983 . S
H164 C108 0.947 . S
C165 C108 1.392 . S
C165 C109 1.419 . S
C165 H147 0.948 . S
C166 C167 1.391 . S
C166 C170 1.391 . S
C166 H208 0.948 . S
C167 C166 1.391 . S
C167 C168 1.391 . S
C168 C167 1.391 . S
C168 H224 0.947 . S
C168 C225 1.392 . S
C169 C170 1.391 . S
C169 C173 1.397 . S
C169 C225 1.419 . S
C170 C166 1.391 . S
C170 C169 1.391 . S
C170 C171 1.399 . S
C171 C170 1.399 . S
C171 C174 1.396 . S
C171 C183 1.453 . S
C171 C184 1.684 . S
H172 C196 0.948 . S
C173 C169 1.397 . S
C173 C174 1.394 . S
C173 C192 1.723 . S
C174 C171 1.396 . S
C174 C173 1.394 . S
C174 C204 1.723 . S
H175 C198 0.947 . S
H176 C199 0.948 . S
H177 C205 0.982 . S
H178 C206 0.979 . S
H179 C206 0.980 . S
H180 C206 0.983 . S
H181 C205 0.979 . S
H182 C205 0.977 . S
C183 C171 1.453 . S
C183 H212 0.982 . S
C183 H213 0.979 . S
C183 H214 0.977 . S
C184 C171 1.684 . S
C184 H209 0.979 . S
C184 H210 0.980 . S
C184 H211 0.983 . S
C185 C186 1.391 . S
C185 C190 1.391 . S
C185 H215 0.948 . S
C186 C185 1.391 . S
C186 C187 1.391 . S
C187 C186 1.391 . S
C187 C188 1.392 . S
C187 H216 0.947 . S
C188 C187 1.392 . S
C188 C189 1.419 . S
C188 H217 0.948 . S
C189 C188 1.419 . S
C189 C190 1.391 . S
C189 C193 1.397 . S
C190 C185 1.391 . S
C190 C189 1.391 . S
C190 C191 1.399 . S
C191 C190 1.399 . S
C191 C192 1.396 . S
C191 C194 1.453 . S
C191 C195 1.684 . S
C192 C173 1.723 . S
C192 C191 1.396 . S
C192 C193 1.394 . S
C193 C189 1.397 . S
C193 C192 1.394 . S
C193 C203 1.723 . S
C194 C191 1.453 . S
C194 H218 0.982 . S
C194 H219 0.979 . S
C194 H220 0.977 . S
C195 C191 1.684 . S
C195 H221 0.979 . S
C195 H222 0.980 . S
C195 H223 0.983 . S
C196 H172 0.948 . S
C196 C197 1.391 . S
C196 C201 1.391 . S
C197 C196 1.391 . S
C197 C198 1.391 . S
C198 H175 0.947 . S
C198 C197 1.391 . S
C198 C199 1.392 . S
C199 H176 0.948 . S
C199 C198 1.392 . S
C199 C200 1.419 . S
C200 C199 1.419 . S
C200 C201 1.391 . S
C200 C204 1.397 . S
C201 C196 1.391 . S
C201 C200 1.391 . S
C201 C202 1.399 . S
C202 C201 1.399 . S
C202 C203 1.396 . S
C202 C205 1.453 . S
C202 C206 1.684 . S
C203 C193 1.723 . S
C203 C202 1.396 . S
C203 C204 1.394 . S
C204 C174 1.723 . S
C204 C200 1.397 . S
C204 C203 1.394 . S
C205 H177 0.982 . S
C205 H181 0.979 . S
C205 H182 0.977 . S
C205 C202 1.453 . S
C206 H178 0.979 . S
C206 H179 0.980 . S
C206 H180 0.983 . S
C206 C202 1.684 . S
H207 C225 0.948 . S
H208 C166 0.948 . S
H209 C184 0.979 . S
H210 C184 0.980 . S
H211 C184 0.983 . S
H212 C183 0.982 . S
H213 C183 0.979 . S
H214 C183 0.977 . S
H215 C185 0.948 . S
H216 C187 0.947 . S
H217 C188 0.948 . S
H218 C194 0.982 . S
H219 C194 0.979 . S
H220 C194 0.977 . S
H221 C195 0.979 . S
H222 C195 0.980 . S
H223 C195 0.983 . S
H224 C168 0.947 . S
C225 C168 1.392 . S
C225 C169 1.419 . S
C225 H207 0.948 . S
C226 C227 1.391 . S
C226 C230 1.391 . S
C226 H268 0.948 . S
C227 C226 1.391 . S
C227 C228 1.391 . S
C228 C227 1.391 . S
C228 H284 0.947 . S
C228 C285 1.392 . S
C229 C230 1.391 . S
C229 C233 1.397 . S
C229 C285 1.419 . S
C230 C226 1.391 . S
C230 C229 1.391 . S
C230 C231 1.399 . S
C231 C230 1.399 . S
C231 C234 1.396 . S
C231 C243 1.453 . S
C231 C244 1.684 . S
H232 C256 0.948 . S
C233 C229 1.397 . S
C233 C234 1.394 . S
C233 C252 1.723 . S
C234 C231 1.396 . S
C234 C233 1.394 . S
C234 C264 1.723 . S
H235 C258 0.947 . S
H236 C259 0.948 . S
H237 C265 0.982 . S
H238 C266 0.979 . S
H239 C266 0.980 . S
H240 C266 0.983 . S
H241 C265 0.979 . S
H242 C265 0.977 . S
C243 C231 1.453 . S
C243 H272 0.982 . S
C243 H273 0.979 . S
C243 H274 0.977 . S
C244 C231 1.684 . S
C244 H269 0.979 . S
C244 H270 0.980 . S
C244 H271 0.983 . S
C245 C246 1.391 . S
C245 C250 1.391 . S
C245 H275 0.948 . S
C246 C245 1.391 . S
C246 C247 1.391 . S
C247 C246 1.391 . S
C247 C248 1.392 . S
C247 H276 0.947 . S
C248 C247 1.392 . S
C248 C249 1.419 . S
C248 H277 0.948 . S
C249 C248 1.419 . S
C249 C250 1.391 . S
C249 C253 1.397 . S
C250 C245 1.391 . S
C250 C249 1.391 . S
C250 C251 1.399 . S
C251 C250 1.399 . S
C251 C252 1.396 . S
C251 C254 1.453 . S
C251 C255 1.684 . S
C252 C233 1.723 . S
C252 C251 1.396 . S
C252 C253 1.394 . S
C253 C249 1.397 . S
C253 C252 1.394 . S
C253 C263 1.723 . S
C254 C251 1.453 . S
C254 H278 0.982 . S
C254 H279 0.979 . S
C254 H280 0.977 . S
C255 C251 1.684 . S
C255 H281 0.979 . S
C255 H282 0.980 . S
C255 H283 0.983 . S
C256 H232 0.948 . S
C256 C257 1.391 . S
C256 C261 1.391 . S
C257 C256 1.391 . S
C257 C258 1.391 . S
C258 H235 0.947 . S
C258 C257 1.391 . S
C258 C259 1.392 . S
C259 H236 0.948 . S
C259 C258 1.392 . S
C259 C260 1.419 . S
C260 C259 1.419 . S
C260 C261 1.391 . S
C260 C264 1.397 . S
C261 C256 1.391 . S
C261 C260 1.391 . S
C261 C262 1.399 . S
C262 C261 1.399 . S
C262 C263 1.396 . S
C262 C265 1.453 . S
C262 C266 1.684 . S
C263 C253 1.723 . S
C263 C262 1.396 . S
C263 C264 1.394 . S
C264 C234 1.723 . S
C264 C260 1.397 . S
C264 C263 1.394 . S
C265 H237 0.982 . S
C265 H241 0.979 . S
C265 H242 0.977 . S
C265 C262 1.453 . S
C266 H238 0.979 . S
C266 H239 0.980 . S
C266 H240 0.983 . S
C266 C262 1.684 . S
H267 C285 0.948 . S
H268 C226 0.948 . S
H269 C244 0.979 . S
H270 C244 0.980 . S
H271 C244 0.983 . S
H272 C243 0.982 . S
H273 C243 0.979 . S
H274 C243 0.977 . S
H275 C245 0.948 . S
H276 C247 0.947 . S
H277 C248 0.948 . S
H278 C254 0.982 . S
H279 C254 0.979 . S
H280 C254 0.977 . S
H281 C255 0.979 . S
H282 C255 0.980 . S
H283 C255 0.983 . S
H284 C228 0.947 . S
C285 C228 1.392 . S
C285 C229 1.419 . S
C285 H267 0.948 . S
H286 C294 0.929 . S
H287 C296 0.930 . S
H288 C298 0.930 . S
H289 C301 0.929 . S
H290 C304 0.930 . S
H291 C306 0.960 1_556 S
H292 C306 0.960 1_556 S
H293 C306 0.960 . S
C294 H286 0.929 . S
C294 C295 1.377 . S
C294 C296 1.384 . S
C295 C294 1.377 . S
C295 C301 1.390 . S
C296 H287 0.930 . S
C296 C294 1.384 . S
C296 C297 1.372 . S
C297 C296 1.372 . S
C297 C298 1.400 . S
C297 C302 1.490 . S
C298 H288 0.930 . S
C298 C297 1.400 . S
C298 C301 1.386 . S
H299 C315 0.930 . S
H300 C316 0.931 . S
C301 H289 0.929 . S
C301 C295 1.390 . S
C301 C298 1.386 . S
C302 C297 1.490 . S
C302 C304 1.395 . S
C302 C305 1.403 . S
H303 C309 0.930 . S
C304 H290 0.930 . S
C304 C302 1.395 . S
C304 C307 1.403 . S
C305 C302 1.403 . S
C305 C306 1.524 . S
C305 C309 1.400 . S
C306 H291 0.960 1_554 S
C306 H292 0.960 1_554 S
C306 H293 0.960 . S
C306 C305 1.524 . S
C307 C304 1.403 . S
C307 C308 1.392 . S
C307 C311 1.495 . S
C308 C307 1.392 . S
C308 C309 1.385 . S
C308 C310 1.478 . S
C309 H303 0.930 . S
C309 C305 1.400 . S
C309 C308 1.385 . S
C310 C308 1.478 . S
C310 C312 1.381 . S
C310 C316 1.383 . S
C311 C307 1.495 . S
C311 H317 0.959 . S
C311 H318 0.961 . S
C311 H319 0.960 . S
C312 C310 1.381 . S
C312 C313 1.394 . S
C312 H320 0.930 . S
C313 C312 1.394 . S
C313 C314 1.383 . S
C313 H321 0.929 . S
C314 C313 1.383 . S
C314 C315 1.377 . S
C315 H299 0.930 . S
C315 C314 1.377 . S
C315 C316 1.379 . S
C316 H300 0.931 . S
C316 C310 1.383 . S
C316 C315 1.379 . S
H317 C311 0.959 . S
H318 C311 0.961 . S
H319 C311 0.960 . S
H320 C312 0.930 . S
H321 C313 0.929 . S
H322 C330 0.929 . S
H323 C332 0.930 . S
H324 C334 0.930 . S
H325 C337 0.929 . S
H326 C340 0.930 . S
H327 C342 0.960 . S
H328 C342 0.960 1_554 S
H329 C342 0.960 . S
C330 H322 0.929 . S
C330 C331 1.377 1_554 S
C330 C332 1.384 . S
C331 C330 1.377 1_556 S
C331 C337 1.390 . S
C332 H323 0.930 . S
C332 C330 1.384 . S
C332 C333 1.372 1_554 S
C333 C332 1.372 1_556 S
C333 C334 1.400 . S
C333 C338 1.490 . S
C334 H324 0.930 . S
C334 C333 1.400 . S
C334 C337 1.386 . S
H335 C351 0.930 . S
H336 C352 0.931 . S
C337 H325 0.929 . S
C337 C331 1.390 . S
C337 C334 1.386 . S
C338 C333 1.490 . S
C338 C340 1.395 . S
C338 C341 1.403 . S
H339 C345 0.930 . S
C340 H326 0.930 . S
C340 C338 1.395 . S
C340 C343 1.403 . S
C341 C338 1.403 . S
C341 C342 1.524 . S
C341 C345 1.400 . S
C342 H327 0.960 . S
C342 H328 0.960 1_556 S
C342 H329 0.960 . S
C342 C341 1.524 . S
C343 C340 1.403 . S
C343 C344 1.392 . S
C343 C347 1.495 . S
C344 C343 1.392 . S
C344 C345 1.385 . S
C344 C346 1.478 . S
C345 H339 0.930 . S
C345 C341 1.400 . S
C345 C344 1.385 . S
C346 C344 1.478 . S
C346 C348 1.381 . S
C346 C352 1.383 . S
C347 C343 1.495 . S
C347 H353 0.959 . S
C347 H354 0.961 . S
C347 H355 0.960 . S
C348 C346 1.381 . S
C348 C349 1.394 . S
C348 H356 0.930 . S
C349 C348 1.394 . S
C349 C350 1.383 . S
C349 H357 0.929 . S
C350 C349 1.383 . S
C350 C351 1.377 . S
C351 H335 0.930 . S
C351 C350 1.377 . S
C351 C352 1.379 . S
C352 H336 0.931 . S
C352 C346 1.383 . S
C352 C351 1.379 . S
H353 C347 0.959 . S
H354 C347 0.961 . S
H355 C347 0.960 . S
H356 C348 0.930 . S
H357 C349 0.929 . S
H358 C366 0.929 . S
H359 C368 0.930 . S
H360 C370 0.930 . S
H361 C373 0.929 1_556 S
H362 C376 0.930 . S
H363 C378 0.960 . S
H364 C378 0.960 . S
H365 C378 0.960 . S
C366 H358 0.929 . S
C366 C367 1.377 . S
C366 C368 1.384 . S
C367 C366 1.377 . S
C367 C373 1.390 . S
C368 H359 0.930 . S
C368 C366 1.384 . S
C368 C369 1.372 . S
C369 C368 1.372 . S
C369 C370 1.400 . S
C369 C374 1.490 . S
C370 H360 0.930 . S
C370 C369 1.400 . S
C370 C373 1.386 . S
H371 C387 0.930 . S
H372 C388 0.931 . S
C373 H361 0.929 1_554 S
C373 C367 1.390 . S
C373 C370 1.386 . S
C374 C369 1.490 . S
C374 C376 1.395 . S
C374 C377 1.403 . S
H375 C381 0.930 . S
C376 H362 0.930 . S
C376 C374 1.395 . S
C376 C379 1.403 . S
C377 C374 1.403 . S
C377 C378 1.524 . S
C377 C381 1.400 . S
C378 H363 0.960 . S
C378 H364 0.960 . S
C378 H365 0.960 . S
C378 C377 1.524 . S
C379 C376 1.403 . S
C379 C380 1.392 . S
C379 C383 1.495 . S
C380 C379 1.392 . S
C380 C381 1.385 . S
C380 C382 1.478 . S
C381 H375 0.930 . S
C381 C377 1.400 . S
C381 C380 1.385 . S
C382 C380 1.478 . S
C382 C384 1.381 . S
C382 C388 1.383 . S
C383 C379 1.495 . S
C383 H389 0.959 . S
C383 H390 0.961 . S
C383 H391 0.960 . S
C384 C382 1.381 . S
C384 C385 1.394 . S
C384 H392 0.930 . S
C385 C384 1.394 . S
C385 C386 1.383 . S
C385 H393 0.929 . S
C386 C385 1.383 . S
C386 C387 1.377 . S
C387 H371 0.930 . S
C387 C386 1.377 . S
C387 C388 1.379 . S
C388 H372 0.931 . S
C388 C382 1.383 . S
C388 C387 1.379 . S
H389 C383 0.959 . S
H390 C383 0.961 . S
H391 C383 0.960 . S
H392 C384 0.930 . S
H393 C385 0.929 . S
H394 C402 0.926 1_554 S
H395 C404 0.930 . S
H396 C406 0.930 . S
H397 C409 0.929 . S
H398 C412 0.930 . S
H399 C414 0.960 . S
H400 C414 0.960 . S
H401 C414 0.960 . S
C402 H394 0.926 1_556 S
C402 C403 1.379 . S
C402 C404 1.386 . S
C403 C402 1.379 . S
C403 C409 1.390 . S
C404 H395 0.930 . S
C404 C402 1.386 . S
C404 C405 1.372 . S
C405 C404 1.372 . S
C405 C406 1.400 . S
C405 C410 1.490 . S
C406 H396 0.930 . S
C406 C405 1.400 . S
C406 C409 1.386 . S
H407 C423 0.930 . S
H408 C424 0.931 . S
C409 H397 0.929 . S
C409 C403 1.390 . S
C409 C406 1.386 . S
C410 C405 1.490 . S
C410 C412 1.395 . S
C410 C413 1.403 . S
H411 C417 0.930 . S
C412 H398 0.930 . S
C412 C410 1.395 . S
C412 C415 1.403 . S
C413 C410 1.403 . S
C413 C414 1.524 1_556 S
C413 C417 1.400 . S
C414 H399 0.960 . S
C414 H400 0.960 . S
C414 H401 0.960 . S
C414 C413 1.524 1_554 S
C415 C412 1.403 . S
C415 C416 1.392 . S
C415 C419 1.495 . S
C416 C415 1.392 . S
C416 C417 1.385 . S
C416 C418 1.478 . S
C417 H411 0.930 . S
C417 C413 1.400 . S
C417 C416 1.385 . S
C418 C416 1.478 . S
C418 C420 1.381 . S
C418 C424 1.383 . S
C419 C415 1.495 . S
C419 H425 0.959 . S
C419 H426 0.961 . S
C419 H427 0.960 . S
C420 C418 1.381 . S
C420 C421 1.394 . S
C420 H428 0.930 . S
C421 C420 1.394 . S
C421 C422 1.383 . S
C421 H429 0.929 . S
C422 C421 1.383 . S
C422 C423 1.377 . S
C423 H407 0.930 . S
C423 C422 1.377 . S
C423 C424 1.379 . S
C424 H408 0.931 . S
C424 C418 1.383 . S
C424 C423 1.379 . S
H425 C419 0.959 . S
H426 C419 0.961 . S
H427 C419 0.960 . S
H428 C420 0.930 . S
H429 C421 0.929 . S
H430 C438 0.929 . S
H431 C440 0.930 . S
H432 C442 0.930 . S
H433 C445 0.929 . S
H434 C448 0.930 . S
H435 C450 0.960 . S
H436 C450 0.960 . S
H437 C450 0.960 . S
C438 H430 0.929 . S
C438 C439 1.377 . S
C438 C440 1.384 . S
C439 C438 1.377 . S
C439 C445 1.390 . S
C440 H431 0.930 . S
C440 C438 1.384 . S
C440 C441 1.372 . S
C441 C440 1.372 . S
C441 C442 1.400 . S
C441 C446 1.490 . S
C442 H432 0.930 . S
C442 C441 1.400 . S
C442 C445 1.386 . S
H443 C459 0.930 . S
H444 C460 0.931 . S
C445 H433 0.929 . S
C445 C439 1.390 . S
C445 C442 1.386 . S
C446 C441 1.490 . S
C446 C448 1.395 . S
C446 C449 1.403 . S
H447 C453 0.930 . S
C448 H434 0.930 . S
C448 C446 1.395 . S
C448 C451 1.403 . S
C449 C446 1.403 . S
C449 C450 1.524 . S
C449 C453 1.400 . S
C450 H435 0.960 . S
C450 H436 0.960 . S
C450 H437 0.960 . S
C450 C449 1.524 . S
C451 C448 1.403 . S
C451 C452 1.392 . S
C451 C455 1.495 . S
C452 C451 1.392 . S
C452 C453 1.385 . S
C452 C454 1.478 . S
C453 H447 0.930 . S
C453 C449 1.400 . S
C453 C452 1.385 . S
C454 C452 1.478 . S
C454 C456 1.381 . S
C454 C460 1.383 . S
C455 C451 1.495 . S
C455 H461 0.959 . S
C455 H462 0.961 . S
C455 H463 0.960 . S
C456 C454 1.381 . S
C456 C457 1.394 . S
C456 H464 0.930 . S
C457 C456 1.394 . S
C457 C458 1.383 . S
C457 H465 0.929 . S
C458 C457 1.383 . S
C458 C459 1.377 . S
C459 H443 0.930 . S
C459 C458 1.377 . S
C459 C460 1.379 . S
C460 H444 0.931 . S
C460 C454 1.383 . S
C460 C459 1.379 . S
H461 C455 0.959 . S
H462 C455 0.961 . S
H463 C455 0.960 . S
H464 C456 0.930 . S
H465 C457 0.929 . S
H466 C474 0.929 . S
H467 C476 0.930 . S
H468 C478 0.930 . S
H469 C481 0.929 . S
H470 C484 0.930 . S
H471 C486 0.960 . S
H472 C486 0.960 . S
H473 C486 0.960 . S
C474 H466 0.929 . S
C474 C475 1.377 . S
C474 C476 1.384 . S
C475 C474 1.377 . S
C475 C481 1.390 . S
C476 H467 0.930 . S
C476 C474 1.384 . S
C476 C477 1.372 . S
C477 C476 1.372 . S
C477 C478 1.400 . S
C477 C482 1.490 . S
C478 H468 0.930 . S
C478 C477 1.400 . S
C478 C481 1.386 . S
H479 C495 0.930 . S
H480 C496 0.931 . S
C481 H469 0.929 . S
C481 C475 1.390 . S
C481 C478 1.386 . S
C482 C477 1.490 . S
C482 C484 1.395 . S
C482 C485 1.403 . S
H483 C489 0.930 . S
C484 H470 0.930 . S
C484 C482 1.395 . S
C484 C487 1.403 . S
C485 C482 1.403 . S
C485 C486 1.524 . S
C485 C489 1.400 . S
C486 H471 0.960 . S
C486 H472 0.960 . S
C486 H473 0.960 . S
C486 C485 1.524 . S
C487 C484 1.403 . S
C487 C488 1.392 . S
C487 C491 1.495 . S
C488 C487 1.392 . S
C488 C489 1.385 . S
C488 C490 1.478 . S
C489 H483 0.930 . S
C489 C485 1.400 . S
C489 C488 1.385 . S
C490 C488 1.478 . S
C490 C492 1.381 . S
C490 C496 1.383 . S
C491 C487 1.495 . S
C491 H497 0.959 . S
C491 H498 0.961 . S
C491 H499 0.960 . S
C492 C490 1.381 . S
C492 C493 1.394 . S
C492 H500 0.930 . S
C493 C492 1.394 . S
C493 C494 1.383 . S
C493 H501 0.929 . S
C494 C493 1.383 . S
C494 C495 1.377 . S
C495 H479 0.930 . S
C495 C494 1.377 . S
C495 C496 1.379 . S
C496 H480 0.931 . S
C496 C490 1.383 . S
C496 C495 1.379 . S
H497 C491 0.959 . S
H498 C491 0.961 . S
H499 C491 0.960 . S
H500 C492 0.930 . S
H501 C493 0.929 . S
H502 C510 0.929 . S
H503 C512 0.930 . S
H504 C514 0.930 . S
H505 C517 0.929 . S
H506 C520 0.930 . S
H507 C522 0.960 . S
H508 C522 0.960 . S
H509 C522 0.960 . S
C510 H502 0.929 . S
C510 C511 1.377 . S
C510 C512 1.384 . S
C511 C510 1.377 . S
C511 C517 1.390 . S
C512 H503 0.930 . S
C512 C510 1.384 . S
C512 C513 1.372 . S
C513 C512 1.372 . S
C513 C514 1.400 . S
C513 C518 1.490 . S
C514 H504 0.930 . S
C514 C513 1.400 . S
C514 C517 1.386 . S
H515 C531 0.930 . S
H516 C532 0.931 . S
C517 H505 0.929 . S
C517 C511 1.390 . S
C517 C514 1.386 . S
C518 C513 1.490 . S
C518 C520 1.395 . S
C518 C521 1.403 . S
H519 C525 0.930 . S
C520 H506 0.930 . S
C520 C518 1.395 . S
C520 C523 1.403 . S
C521 C518 1.403 . S
C521 C522 1.524 . S
C521 C525 1.400 . S
C522 H507 0.960 . S
C522 H508 0.960 . S
C522 H509 0.960 . S
C522 C521 1.524 . S
C523 C520 1.403 . S
C523 C524 1.392 . S
C523 C527 1.495 . S
C524 C523 1.392 . S
C524 C525 1.385 . S
C524 C526 1.478 . S
C525 H519 0.930 . S
C525 C521 1.400 . S
C525 C524 1.385 . S
C526 C524 1.478 . S
C526 C528 1.381 . S
C526 C532 1.383 . S
C527 C523 1.495 . S
C527 H533 0.959 . S
C527 H534 0.961 . S
C527 H535 0.960 . S
C528 C526 1.381 . S
C528 C529 1.394 . S
C528 H536 0.930 . S
C529 C528 1.394 . S
C529 C530 1.383 . S
C529 H537 0.929 . S
C530 C529 1.383 . S
C530 C531 1.377 . S
C531 H515 0.930 . S
C531 C530 1.377 . S
C531 C532 1.379 . S
C532 H516 0.931 . S
C532 C526 1.383 . S
C532 C531 1.379 . S
H533 C527 0.959 . S
H534 C527 0.961 . S
H535 C527 0.960 . S
H536 C528 0.930 . S
H537 C529 0.929 . S
H538 C546 0.929 . S
H539 C548 0.930 . S
H540 C550 0.930 . S
H541 C553 0.929 . S
H542 C556 0.930 . S
H543 C558 0.960 . S
H544 C558 0.960 . S
H545 C558 0.960 . S
C546 H538 0.929 . S
C546 C547 1.377 . S
C546 C548 1.384 . S
C547 C546 1.377 . S
C547 C553 1.390 . S
C548 H539 0.930 . S
C548 C546 1.384 . S
C548 C549 1.372 . S
C549 C548 1.372 . S
C549 C550 1.400 . S
C549 C554 1.490 . S
C550 H540 0.930 . S
C550 C549 1.400 . S
C550 C553 1.386 . S
H551 C567 0.930 . S
H552 C568 0.931 . S
C553 H541 0.929 . S
C553 C547 1.390 . S
C553 C550 1.386 . S
C554 C549 1.490 . S
C554 C556 1.395 . S
C554 C557 1.403 . S
H555 C561 0.930 . S
C556 H542 0.930 . S
C556 C554 1.395 . S
C556 C559 1.403 . S
C557 C554 1.403 . S
C557 C558 1.524 . S
C557 C561 1.400 . S
C558 H543 0.960 . S
C558 H544 0.960 . S
C558 H545 0.960 . S
C558 C557 1.524 . S
C559 C556 1.403 . S
C559 C560 1.392 . S
C559 C563 1.495 . S
C560 C559 1.392 . S
C560 C561 1.385 . S
C560 C562 1.478 . S
C561 H555 0.930 . S
C561 C557 1.400 . S
C561 C560 1.385 . S
C562 C560 1.478 . S
C562 C564 1.381 . S
C562 C568 1.383 . S
C563 C559 1.495 . S
C563 H569 0.959 . S
C563 H570 0.961 . S
C563 H571 0.960 . S
C564 C562 1.381 . S
C564 C565 1.394 . S
C564 H572 0.930 . S
C565 C564 1.394 . S
C565 C566 1.383 . S
C565 H573 0.929 . S
C566 C565 1.383 . S
C566 C567 1.377 . S
C567 H551 0.930 . S
C567 C566 1.377 . S
C567 C568 1.379 . S
C568 H552 0.931 . S
C568 C562 1.383 . S
C568 C567 1.379 . S
H569 C563 0.959 . S
H570 C563 0.961 . S
H571 C563 0.960 . S
H572 C564 0.930 . S
H573 C565 0.929 . S
H574 C582 0.929 . S
H575 C584 0.930 . S
H576 C586 0.930 . S
H577 C589 0.929 . S
H578 C592 0.930 1_655 S
H579 C594 0.960 . S
H580 C594 0.960 . S
H581 C594 0.960 1_655 S
C582 H574 0.929 . S
C582 C583 1.377 . S
C582 C584 1.384 . S
C583 C582 1.377 . S
C583 C589 1.390 1_445 S
C584 H575 0.930 . S
C584 C582 1.384 . S
C584 C585 1.372 . S
C585 C584 1.372 . S
C585 C586 1.400 1_445 S
C585 C590 1.490 . S
C586 H576 0.930 . S
C586 C585 1.400 1_665 S
C586 C589 1.386 . S
H587 C603 0.930 . S
H588 C604 0.931 . S
C589 H577 0.929 . S
C589 C583 1.390 1_665 S
C589 C586 1.386 . S
C590 C585 1.490 . S
C590 C592 1.395 . S
C590 C593 1.403 1_545 S
H591 C597 0.930 . S
C592 H578 0.930 1_455 S
C592 C590 1.395 . S
C592 C595 1.403 1_455 S
C593 C590 1.403 1_565 S
C593 C594 1.524 . S
C593 C597 1.400 . S
C594 H579 0.960 . S
C594 H580 0.960 . S
C594 H581 0.960 1_455 S
C594 C593 1.524 . S
C595 C592 1.403 1_655 S
C595 C596 1.391 1_655 S
C595 C599 1.497 . S
C596 C595 1.391 1_455 S
C596 C597 1.385 1_545 S
C596 C598 1.478 . S
C597 H591 0.930 . S
C597 C593 1.400 . S
C597 C596 1.385 1_565 S
C598 C596 1.478 . S
C598 C600 1.381 . S
C598 C604 1.383 1_445 S
C599 C595 1.497 . S
C599 H605 0.959 . S
C599 H606 0.961 . S
C599 H607 0.960 1_655 S
C600 C598 1.381 . S
C600 C601 1.394 . S
C600 H608 0.930 . S
C601 C600 1.394 . S
C601 C602 1.386 1_455 S
C601 H609 0.929 . S
C602 C601 1.386 1_655 S
C602 C603 1.375 1_545 S
C603 H587 0.930 . S
C603 C602 1.375 1_565 S
C603 C604 1.379 . S
C604 H588 0.931 . S
C604 C598 1.383 1_665 S
C604 C603 1.379 . S
H605 C599 0.959 . S
H606 C599 0.961 . S
H607 C599 0.960 1_455 S
H608 C600 0.930 . S
H609 C601 0.929 . S
H610 C618 0.929 . S
H611 C620 0.930 . S
H612 C622 0.930 . S
H613 C625 0.929 . S
H614 C628 0.930 . S
H615 C630 0.960 . S
H616 C630 0.960 . S
H617 C630 0.960 . S
C618 H610 0.929 . S
C618 C619 1.377 1_655 S
C618 C620 1.384 . S
C619 C618 1.377 1_455 S
C619 C625 1.390 1_545 S
C620 H611 0.930 . S
C620 C618 1.384 . S
C620 C621 1.372 1_655 S
C621 C620 1.372 1_455 S
C621 C622 1.400 1_545 S
C621 C626 1.490 . S
C622 H612 0.930 . S
C622 C621 1.400 1_565 S
C622 C625 1.386 . S
H623 C639 0.930 . S
H624 C640 0.931 . S
C625 H613 0.929 . S
C625 C619 1.390 1_565 S
C625 C622 1.386 . S
C626 C621 1.490 . S
C626 C628 1.395 . S
C626 C629 1.403 1_445 S
H627 C633 0.930 . S
C628 H614 0.930 . S
C628 C626 1.395 . S
C628 C631 1.403 . S
C629 C626 1.403 1_665 S
C629 C630 1.524 . S
C629 C633 1.400 . S
C630 H615 0.960 . S
C630 H616 0.960 . S
C630 H617 0.960 . S
C630 C629 1.524 . S
C631 C628 1.403 . S
C631 C632 1.392 . S
C631 C635 1.495 . S
C632 C631 1.392 . S
C632 C633 1.385 1_445 S
C632 C634 1.478 . S
C633 H627 0.930 . S
C633 C629 1.400 . S
C633 C632 1.385 1_665 S
C634 C632 1.478 . S
C634 C636 1.381 1_455 S
C634 C640 1.383 1_545 S
C635 C631 1.495 . S
C635 H641 0.959 . S
C635 H642 0.961 . S
C635 H643 0.960 . S
C636 C634 1.381 1_655 S
C636 C637 1.394 . S
C636 H644 0.930 . S
C637 C636 1.394 . S
C637 C638 1.383 1_655 S
C637 H645 0.929 . S
C638 C637 1.383 1_455 S
C638 C639 1.377 1_545 S
C639 H623 0.930 . S
C639 C638 1.377 1_565 S
C639 C640 1.379 . S
C640 H624 0.931 . S
C640 C634 1.383 1_565 S
C640 C639 1.379 . S
H641 C635 0.959 . S
H642 C635 0.961 . S
H643 C635 0.960 . S
H644 C636 0.930 . S
H645 C637 0.929 . S
H646 C654 0.929 . S
H647 C656 0.930 . S
H648 C658 0.930 . S
H649 C661 0.929 . S
H650 C664 0.930 . S
H651 C666 0.960 . S
H652 C666 0.960 . S
H653 C666 0.960 . S
C654 H646 0.929 . S
C654 C655 1.377 . S
C654 C656 1.384 . S
C655 C654 1.377 . S
C655 C661 1.390 . S
C656 H647 0.930 . S
C656 C654 1.384 . S
C656 C657 1.372 . S
C657 C656 1.372 . S
C657 C658 1.400 . S
C657 C662 1.490 . S
C658 H648 0.930 . S
C658 C657 1.400 . S
C658 C661 1.386 . S
H659 C675 0.930 . S
H660 C676 0.931 . S
C661 H649 0.929 . S
C661 C655 1.390 . S
C661 C658 1.386 . S
C662 C657 1.490 . S
C662 C664 1.395 . S
C662 C665 1.403 . S
H663 C669 0.930 . S
C664 H650 0.930 . S
C664 C662 1.395 . S
C664 C667 1.403 . S
C665 C662 1.403 . S
C665 C666 1.524 . S
C665 C669 1.400 . S
C666 H651 0.960 . S
C666 H652 0.960 . S
C666 H653 0.960 . S
C666 C665 1.524 . S
C667 C664 1.403 . S
C667 C668 1.392 . S
C667 C671 1.495 . S
C668 C667 1.392 . S
C668 C669 1.385 . S
C668 C670 1.478 . S
C669 H663 0.930 . S
C669 C665 1.400 . S
C669 C668 1.385 . S
C670 C668 1.478 . S
C670 C672 1.381 . S
C670 C676 1.383 . S
C671 C667 1.495 . S
C671 H677 0.959 . S
C671 H678 0.961 . S
C671 H679 0.960 . S
C672 C670 1.381 . S
C672 C673 1.394 . S
C672 H680 0.930 . S
C673 C672 1.394 . S
C673 C674 1.383 . S
C673 H681 0.929 . S
C674 C673 1.383 . S
C674 C675 1.377 . S
C675 H659 0.930 . S
C675 C674 1.377 . S
C675 C676 1.379 . S
C676 H660 0.931 . S
C676 C670 1.383 . S
C676 C675 1.379 . S
H677 C671 0.959 . S
H678 C671 0.961 . S
H679 C671 0.960 . S
H680 C672 0.930 . S
H681 C673 0.929 . S
H682 C690 0.929 . S
H683 C692 0.930 . S
H684 C694 0.930 . S
H685 C697 0.929 . S
H686 C700 0.930 . S
H687 C702 0.960 . S
H688 C702 0.960 . S
H689 C702 0.960 . S
C690 H682 0.929 . S
C690 C691 1.377 . S
C690 C692 1.384 . S
C691 C690 1.377 . S
C691 C697 1.390 . S
C692 H683 0.930 . S
C692 C690 1.384 . S
C692 C693 1.372 . S
C693 C692 1.372 . S
C693 C694 1.400 . S
C693 C698 1.490 . S
C694 H684 0.930 . S
C694 C693 1.400 . S
C694 C697 1.386 . S
H695 C711 0.930 . S
H696 C712 0.931 . S
C697 H685 0.929 . S
C697 C691 1.390 . S
C697 C694 1.386 . S
C698 C693 1.490 . S
C698 C700 1.395 . S
C698 C701 1.403 . S
H699 C705 0.930 . S
C700 H686 0.930 . S
C700 C698 1.395 . S
C700 C703 1.403 . S
C701 C698 1.403 . S
C701 C702 1.524 . S
C701 C705 1.400 . S
C702 H687 0.960 . S
C702 H688 0.960 . S
C702 H689 0.960 . S
C702 C701 1.524 . S
C703 C700 1.403 . S
C703 C704 1.392 . S
C703 C707 1.495 . S
C704 C703 1.392 . S
C704 C705 1.385 . S
C704 C706 1.478 . S
C705 H699 0.930 . S
C705 C701 1.400 . S
C705 C704 1.385 . S
C706 C704 1.478 . S
C706 C708 1.381 . S
C706 C712 1.383 . S
C707 C703 1.495 . S
C707 H713 0.959 . S
C707 H714 0.961 . S
C707 H715 0.960 . S
C708 C706 1.381 . S
C708 C709 1.394 . S
C708 H716 0.930 . S
C709 C708 1.394 . S
C709 C710 1.383 . S
C709 H717 0.929 . S
C710 C709 1.383 . S
C710 C711 1.377 . S
C711 H695 0.930 . S
C711 C710 1.377 . S
C711 C712 1.379 . S
C712 H696 0.931 . S
C712 C706 1.383 . S
C712 C711 1.379 . S
H713 C707 0.959 . S
H714 C707 0.961 . S
H715 C707 0.960 . S
H716 C708 0.930 . S
H717 C709 0.929 . S
C314 C257 1.410 . S
C295 C21 1.410 . S
C331 C19 1.397 1_556 S
C350 C197 1.397 . S
C367 C18 1.369 . S
C386 C227 1.303 . S
C403 C20 1.390 1_556 S
C422 C167 1.317 . S
C439 C44 1.413 . S
C458 C137 1.421 . S
C475 C42 1.398 . S
C494 C77 1.395 . S
C530 C107 1.288 . S
C511 C41 1.369 . S
C566 C47 1.312 . S
C547 C43 1.390 . S
C583 C16 1.488 . S
C602 C66 1.453 . S
C619 C17 1.447 . S
C638 C126 1.435 . S
C674 C186 1.450 . S
C655 C39 1.488 . S
C691 C40 1.447 . S
C710 C246 1.440 . S
