# Generated by pormake.
# Topology dag, (6,3)-cn, num edge types: 1
# Building blocks:
#     Node 0, Type 0, BuildingBlock: OJICUG_clean_sbu_0, # of connection points: 6
#     Node 1, Type 0, BuildingBlock: OJICUG_clean_sbu_0, # of connection points: 6
#     Node 2, Type 0, BuildingBlock: OJICUG_clean_sbu_0, # of connection points: 6
#     Node 3, Type 0, BuildingBlock: OJICUG_clean_sbu_0, # of connection points: 6
#     Node 4, Type 1, BuildingBlock: BETDIP_clean_linker_0, # of connection points: 3
#     Node 5, Type 1, BuildingBlock: BETDIP_clean_linker_0, # of connection points: 3
#     Node 6, Type 1, BuildingBlock: BETDIP_clean_linker_0, # of connection points: 3
#     Node 7, Type 1, BuildingBlock: BETDIP_clean_linker_0, # of connection points: 3
#     Node 8, Type 1, BuildingBlock: BETDIP_clean_linker_0, # of connection points: 3
#     Node 9, Type 1, BuildingBlock: BETDIP_clean_linker_0, # of connection points: 3
#     Node 10, Type 1, BuildingBlock: BETDIP_clean_linker_0, # of connection points: 3
#     Node 11, Type 1, BuildingBlock: BETDIP_clean_linker_0, # of connection points: 3
#     Edge 12, Type (0, 1), BuildingBlock: UVAHIK_clean_linker_0, # of connection points: 2
#     Edge 13, Type (0, 1), BuildingBlock: UVAHIK_clean_linker_0, # of connection points: 2
#     Edge 14, Type (0, 1), BuildingBlock: UVAHIK_clean_linker_0, # of connection points: 2
#     Edge 15, Type (0, 1), BuildingBlock: UVAHIK_clean_linker_0, # of connection points: 2
#     Edge 16, Type (0, 1), BuildingBlock: UVAHIK_clean_linker_0, # of connection points: 2
#     Edge 17, Type (0, 1), BuildingBlock: UVAHIK_clean_linker_0, # of connection points: 2
#     Edge 18, Type (0, 1), BuildingBlock: UVAHIK_clean_linker_0, # of connection points: 2
#     Edge 19, Type (0, 1), BuildingBlock: UVAHIK_clean_linker_0, # of connection points: 2
#     Edge 20, Type (0, 1), BuildingBlock: UVAHIK_clean_linker_0, # of connection points: 2
#     Edge 21, Type (0, 1), BuildingBlock: UVAHIK_clean_linker_0, # of connection points: 2
#     Edge 22, Type (0, 1), BuildingBlock: UVAHIK_clean_linker_0, # of connection points: 2
#     Edge 23, Type (0, 1), BuildingBlock: UVAHIK_clean_linker_0, # of connection points: 2
#     Edge 24, Type (0, 1), BuildingBlock: UVAHIK_clean_linker_0, # of connection points: 2
#     Edge 25, Type (0, 1), BuildingBlock: UVAHIK_clean_linker_0, # of connection points: 2
#     Edge 26, Type (0, 1), BuildingBlock: UVAHIK_clean_linker_0, # of connection points: 2
#     Edge 27, Type (0, 1), BuildingBlock: UVAHIK_clean_linker_0, # of connection points: 2
#     Edge 28, Type (0, 1), BuildingBlock: UVAHIK_clean_linker_0, # of connection points: 2
#     Edge 29, Type (0, 1), BuildingBlock: UVAHIK_clean_linker_0, # of connection points: 2
#     Edge 30, Type (0, 1), BuildingBlock: UVAHIK_clean_linker_0, # of connection points: 2
#     Edge 31, Type (0, 1), BuildingBlock: UVAHIK_clean_linker_0, # of connection points: 2
#     Edge 32, Type (0, 1), BuildingBlock: UVAHIK_clean_linker_0, # of connection points: 2
#     Edge 33, Type (0, 1), BuildingBlock: UVAHIK_clean_linker_0, # of connection points: 2
#     Edge 34, Type (0, 1), BuildingBlock: UVAHIK_clean_linker_0, # of connection points: 2
#     Edge 35, Type (0, 1), BuildingBlock: UVAHIK_clean_linker_0, # of connection points: 2
# Relax obj value: 0.094
# Max RMSD: 0.106
# Mean RMSD: 0.087
data_MOF--net-dag--node1-OJICUG_clean_sbu_0--node2-BETDIP_clean_linker_0--edge1-UVAHIK_clean_linker_0
_symmetry_space_group_name_H-M    P1
_symmetry_Int_Tables_number       1
_symmetry_cell_setting            triclinic
loop_
_symmetry_equiv_pos_as_xyz
'x, y, z'
_cell_length_a     49.283194
_cell_length_b     48.379485
_cell_length_c     50.409318
_cell_angle_alpha  86.104034
_cell_angle_beta   89.98181
_cell_angle_gamma 89.975042
loop_
_atom_site_label
_atom_site_type_symbol
_atom_site_fract_x
_atom_site_fract_y
_atom_site_fract_z
_atom_type_partial_charge
Sc0 Sc 0.12505 0.86893 0.99795 0.0
Sc1 Sc 0.1433 0.79852 0.0 0.0
Sc2 Sc 0.19012 0.85056 0.97684 0.0
O3 O 0.15286 0.83927 0.99158 0.0
C4 C 0.15079 0.89191 0.94284 0.0
C5 C 0.08759 0.82191 0.9755 0.0
C6 C 0.17627 0.79707 0.94547 0.0
C7 C 0.1178 0.82735 0.04938 0.0
C8 C 0.17964 0.89739 0.01694 0.0
C9 C 0.20504 0.80108 0.01951 0.0
O10 O 0.13147 0.88971 0.95953 0.0
O11 O 0.10378 0.80205 0.98162 0.0
O12 O 0.189 0.81949 0.94847 0.0
O13 O 0.11619 0.85105 0.03701 0.0
O14 O 0.19556 0.8829 0.00373 0.0
O15 O 0.18164 0.79002 0.01945 0.0
O16 O 0.15401 0.8947 0.01641 0.0
O17 O 0.12653 0.80593 0.03872 0.0
O18 O 0.21103 0.82294 0.00528 0.0
O19 O 0.09268 0.84682 0.98028 0.0
O20 O 0.17344 0.87958 0.9465 0.0
O21 O 0.15895 0.78692 0.96218 0.0
Sc22 Sc 0.70052 0.63661 0.55761 0.0
Sc23 Sc 0.65561 0.69279 0.54141 0.0
Sc24 Sc 0.63623 0.62428 0.53124 0.0
O25 O 0.66415 0.65131 0.54341 0.0
C26 C 0.69074 0.59735 0.5105 0.0
C27 C 0.71788 0.69132 0.52298 0.0
C28 C 0.6317 0.67393 0.48657 0.0
C29 C 0.68674 0.68412 0.59682 0.0
C30 C 0.65875 0.5927 0.58435 0.0
C31 C 0.59837 0.66735 0.55941 0.0
O32 O 0.70631 0.6083 0.52686 0.0
O33 O 0.69502 0.70325 0.52499 0.0
O34 O 0.62953 0.64865 0.49484 0.0
O35 O 0.69938 0.66273 0.59028 0.0
O36 O 0.64053 0.59755 0.56679 0.0
O37 O 0.61516 0.68733 0.55759 0.0
O38 O 0.68171 0.60476 0.58358 0.0
O39 O 0.6699 0.69722 0.58149 0.0
O40 O 0.60347 0.64388 0.55072 0.0
O41 O 0.72276 0.66704 0.53317 0.0
O42 O 0.6653 0.60135 0.50989 0.0
O43 O 0.64011 0.69277 0.50102 0.0
Sc44 Sc 0.84419 0.19896 0.04168 0.0
Sc45 Sc 0.79955 0.14514 0.06498 0.0
Sc46 Sc 0.86325 0.12919 0.03859 0.0
O47 O 0.83566 0.1578 0.04845 0.0
C48 C 0.86768 0.17409 0.9894 0.0
C49 C 0.78174 0.1953 0.02445 0.0
C50 C 0.80815 0.1006 0.0219 0.0
C51 C 0.81415 0.19743 0.0978 0.0
C52 C 0.9015 0.17525 0.06171 0.0
C53 C 0.84127 0.10305 0.09448 0.0
O54 O 0.85888 0.1944 0.00167 0.0
O55 O 0.77672 0.17255 0.03772 0.0
O56 O 0.83351 0.10475 0.01972 0.0
O57 O 0.83093 0.20825 0.08097 0.0
O58 O 0.89642 0.15051 0.05619 0.0
O59 O 0.819 0.11645 0.0939 0.0
O60 O 0.88471 0.19499 0.05744 0.0
O61 O 0.80107 0.17541 0.09408 0.0
O62 O 0.8586 0.10537 0.07577 0.0
O63 O 0.80471 0.20726 0.02479 0.0
O64 O 0.87032 0.1498 0.00027 0.0
O65 O 0.79333 0.11305 0.03792 0.0
Sc66 Sc 0.36386 0.37294 0.49736 0.0
Sc67 Sc 0.30002 0.35521 0.47236 0.0
Sc68 Sc 0.34682 0.30269 0.49398 0.0
O69 O 0.33688 0.34359 0.48789 0.0
C70 C 0.40298 0.32819 0.47318 0.0
C71 C 0.34025 0.39835 0.44194 0.0
C72 C 0.31576 0.30402 0.43839 0.0
C73 C 0.30815 0.40009 0.5151 0.0
C74 C 0.3704 0.32792 0.54622 0.0
C75 C 0.28473 0.30397 0.51275 0.0
O76 O 0.39733 0.35245 0.47962 0.0
O77 O 0.31778 0.38537 0.44374 0.0
O78 O 0.33272 0.29328 0.45508 0.0
O79 O 0.33376 0.39724 0.5161 0.0
O80 O 0.3623 0.30764 0.53349 0.0
O81 O 0.27864 0.32645 0.49952 0.0
O82 O 0.37176 0.35259 0.53585 0.0
O83 O 0.29322 0.38637 0.50021 0.0
O84 O 0.30814 0.29297 0.51201 0.0
O85 O 0.35855 0.39589 0.45973 0.0
O86 O 0.38685 0.30784 0.47705 0.0
O87 O 0.30231 0.32575 0.44242 0.0
H88 H 0.18902 0.2187 0.15645 0.0
H89 H 0.24682 0.15168 0.15693 0.0
H90 H 0.17133 0.14565 0.1157 0.0
H91 H 0.27332 0.1778 0.17909 0.0
C92 C 0.26182 0.19469 0.18663 0.0
C93 C 0.19509 0.19865 0.15009 0.0
C94 C 0.17739 0.18375 0.13463 0.0
C95 C 0.22037 0.18762 0.15802 0.0
C96 C 0.22793 0.16117 0.15039 0.0
C97 C 0.21018 0.14599 0.13522 0.0
C98 C 0.1852 0.15756 0.12713 0.0
N99 N 0.23643 0.20294 0.17528 0.0
H100 H 0.24446 0.65538 0.65614 0.0
H101 H 0.31646 0.70402 0.66682 0.0
H102 H 0.3163 0.64006 0.6117 0.0
H103 H 0.22396 0.68444 0.68072 0.0
C104 C 0.23906 0.69454 0.69234 0.0
C105 C 0.26507 0.66099 0.65087 0.0
C106 C 0.27852 0.64591 0.63202 0.0
C107 C 0.27856 0.6825 0.66307 0.0
C108 C 0.30578 0.68828 0.65662 0.0
C109 C 0.31965 0.67278 0.63838 0.0
C110 C 0.30563 0.65218 0.62573 0.0
N111 N 0.26637 0.69723 0.68344 0.0
H112 H 0.96541 0.82601 0.31005 0.0
H113 H 0.90374 0.88839 0.3169 0.0
H114 H 0.96544 0.8999 0.25739 0.0
H115 H 0.90549 0.87272 0.3603 0.0
C116 C 0.90672 0.85045 0.3589 0.0
C117 C 0.95675 0.84596 0.30366 0.0
C118 C 0.96843 0.86198 0.28234 0.0
C119 C 0.93411 0.85582 0.31705 0.0
C120 C 0.92216 0.88119 0.30792 0.0
C121 C 0.93368 0.89724 0.28667 0.0
C122 C 0.95702 0.88778 0.27433 0.0
N123 N 0.92315 0.83944 0.33896 0.0
H124 H 0.53417 0.30915 0.79725 0.0
H125 H 0.5959 0.37178 0.79947 0.0
H126 H 0.53134 0.38134 0.74258 0.0
H127 H 0.62182 0.33314 0.80714 0.0
C128 C 0.60979 0.32154 0.82214 0.0
C129 C 0.54243 0.32894 0.78983 0.0
C130 C 0.52912 0.34478 0.76935 0.0
C131 C 0.56696 0.33814 0.80021 0.0
C132 C 0.57762 0.36396 0.79075 0.0
C133 C 0.5649 0.37977 0.76997 0.0
C134 C 0.54064 0.36998 0.75947 0.0
N135 N 0.58108 0.32082 0.81952 0.0
H136 H 0.68956 0.27738 0.38067 0.0
H137 H 0.75652 0.33501 0.37935 0.0
H138 H 0.67708 0.36156 0.40044 0.0
H139 H 0.78219 0.29919 0.36952 0.0
C140 C 0.76839 0.28563 0.3598 0.0
C141 C 0.6975 0.29775 0.38397 0.0
C142 C 0.67985 0.3188 0.39105 0.0
C143 C 0.72518 0.30324 0.37949 0.0
C144 C 0.73542 0.32999 0.38302 0.0
C145 C 0.71795 0.35094 0.39042 0.0
C146 C 0.69039 0.34522 0.39446 0.0
N147 N 0.74125 0.28221 0.36894 0.0
H148 H 0.04281 0.18988 0.74601 0.0
H149 H 0.1033 0.12655 0.73943 0.0
H150 H 0.03634 0.11274 0.79318 0.0
H151 H 0.13017 0.1652 0.73479 0.0
C152 C 0.11832 0.17775 0.72033 0.0
C153 C 0.05047 0.16932 0.7517 0.0
C154 C 0.03616 0.15185 0.77016 0.0
C155 C 0.07503 0.16059 0.74102 0.0
C156 C 0.08492 0.13385 0.74839 0.0
C157 C 0.07117 0.11635 0.76724 0.0
C158 C 0.04669 0.12554 0.77786 0.0
N159 N 0.08966 0.17904 0.72313 0.0
H160 H 0.45881 0.68935 0.23976 0.0
H161 H 0.40048 0.6244 0.23087 0.0
H162 H 0.45981 0.61652 0.29346 0.0
H163 H 0.40896 0.64022 0.18546 0.0
C164 C 0.40516 0.66192 0.18852 0.0
C165 C 0.45055 0.66925 0.24622 0.0
C166 C 0.46223 0.65374 0.26779 0.0
C167 C 0.42879 0.6584 0.23235 0.0
C168 C 0.4178 0.63248 0.24105 0.0
C169 C 0.42879 0.61715 0.26316 0.0
C170 C 0.45127 0.62786 0.27613 0.0
N171 N 0.41768 0.6742 0.2102 0.0
H172 H 0.74026 0.84701 0.88061 0.0
H173 H 0.80426 0.7877 0.87133 0.0
H174 H 0.82111 0.86386 0.90697 0.0
H175 H 0.7688 0.75783 0.86733 0.0
C176 C 0.75509 0.77109 0.85535 0.0
C177 C 0.76117 0.8406 0.88366 0.0
C178 C 0.77973 0.8585 0.89472 0.0
C179 C 0.76965 0.81488 0.87543 0.0
C180 C 0.79708 0.80694 0.87855 0.0
C181 C 0.81581 0.82468 0.88971 0.0
C182 C 0.80686 0.85025 0.89792 0.0
N183 N 0.75073 0.79886 0.86178 0.0
C184 C 0.2176 0.92885 0.02908 0.0
C185 C 0.19117 0.91856 0.03353 0.0
C186 C 0.22756 0.95019 0.04377 0.0
C187 C 0.21543 0.98688 0.10477 0.0
H188 H 0.24108 0.05206 0.0632 0.0
C189 C 0.19732 0.09629 0.13514 0.0
C190 C 0.21649 0.11721 0.12917 0.0
C191 C 0.20162 0.06958 0.12735 0.0
C192 C 0.23464 0.03385 0.07525 0.0
H193 H 0.15498 0.92173 0.05769 0.0
H194 H 0.17231 0.95873 0.08319 0.0
H195 H 0.23513 0.00865 0.04193 0.0
H196 H 0.25573 0.12655 0.11146 0.0
H197 H 0.26328 0.07947 0.09745 0.0
H198 H 0.21375 0.01237 0.13779 0.0
C199 C 0.18538 0.95034 0.06843 0.0
C200 C 0.2312 0.00899 0.06305 0.0
C201 C 0.17534 0.92932 0.0536 0.0
C202 C 0.24067 0.11069 0.11623 0.0
C203 C 0.24489 0.08387 0.10816 0.0
C204 C 0.21894 0.01167 0.11696 0.0
C205 C 0.21143 0.96128 0.06344 0.0
C206 C 0.22049 0.9856 0.07746 0.0
C207 C 0.22518 0.06317 0.1133 0.0
C208 C 0.22747 0.03571 0.10206 0.0
H209 H 0.2303 0.92096 0.01376 0.0
H210 H 0.24773 0.95822 0.03958 0.0
H211 H 0.20763 0.969 0.11646 0.0
H212 H 0.17863 0.10078 0.14534 0.0
H213 H 0.18585 0.05426 0.13131 0.0
C214 C 0.55505 0.64822 0.57853 0.0
C215 C 0.57126 0.6714 0.57126 0.0
C216 C 0.52853 0.65152 0.58731 0.0
C217 C 0.47937 0.7001 0.61367 0.0
H218 H 0.42778 0.65044 0.58352 0.0
C219 C 0.36106 0.70245 0.6286 0.0
C220 C 0.34924 0.67618 0.63382 0.0
C221 C 0.38867 0.70481 0.62203 0.0
C222 C 0.44195 0.66437 0.59222 0.0
H223 H 0.57264 0.71632 0.56874 0.0
H224 H 0.52584 0.72208 0.58393 0.0
H225 H 0.47509 0.64924 0.57015 0.0
H226 H 0.35744 0.63206 0.63839 0.0
H227 H 0.40519 0.63617 0.62685 0.0
H228 H 0.44575 0.71508 0.63583 0.0
C229 C 0.53389 0.70136 0.58287 0.0
C230 C 0.46907 0.66364 0.58461 0.0
C231 C 0.56065 0.69804 0.57413 0.0
C232 C 0.36578 0.65254 0.63371 0.0
C233 C 0.39314 0.65488 0.62715 0.0
C234 C 0.452 0.70088 0.62128 0.0
C235 C 0.51738 0.67808 0.58891 0.0
C236 C 0.48824 0.68097 0.5957 0.0
C237 C 0.40475 0.68094 0.62059 0.0
C238 C 0.4332 0.68251 0.61106 0.0
H239 H 0.56269 0.62737 0.57705 0.0
H240 H 0.51658 0.63316 0.5925 0.0
H241 H 0.49369 0.71373 0.62251 0.0
H242 H 0.34877 0.72101 0.62865 0.0
H243 H 0.39718 0.72516 0.61711 0.0
C244 C 0.83391 0.08526 0.14213 0.0
C245 C 0.84785 0.08402 0.11788 0.0
C246 C 0.84149 0.06801 0.16437 0.0
C247 C 0.89977 0.02569 0.19024 0.0
H248 H 0.8467 0.98894 0.23712 0.0
C249 C 0.89415 0.92217 0.26536 0.0
C250 C 0.9205 0.92298 0.27576 0.0
C251 C 0.88345 0.94525 0.25075 0.0
C252 C 0.86179 -0.00101 0.22418 0.0
H253 H 0.87995 0.06288 0.09776 0.0
H254 H 0.89257 0.03264 0.13597 0.0
H255 H 0.83158 0.02177 0.2012 0.0
H256 H 0.95562 0.94883 0.28104 0.0
H257 H 0.93658 0.98965 0.25669 0.0
H258 H 0.92985 0.00193 0.21179 0.0
C259 C 0.87639 0.04746 0.13822 0.0
C260 C 0.85312 0.01807 0.20377 0.0
C261 C 0.86899 0.06472 0.11619 0.0
C262 C 0.9353 0.94774 0.27296 0.0
C263 C 0.92444 0.97098 0.25882 0.0
C264 C 0.90838 0.00652 0.21036 0.0
C265 C 0.86307 0.04914 0.16271 0.0
C266 C 0.87201 0.03112 0.18617 0.0
C267 C 0.89882 0.96971 0.24659 0.0
C268 C 0.88951 0.99249 0.22733 0.0
H269 H 0.81755 0.09995 0.14409 0.0
H270 H 0.83086 0.06987 0.18297 0.0
H271 H 0.91494 0.03583 0.17743 0.0
H272 H 0.88249 0.90315 0.26714 0.0
H273 H 0.86381 0.94328 0.24146 0.0
C274 C 0.38076 0.3447 0.59095 0.0
C275 C 0.37923 0.3227 0.57418 0.0
C276 C 0.39078 0.34037 0.61678 0.0
C277 C 0.43901 0.29756 0.65467 0.0
H278 H 0.40964 0.33408 0.71452 0.0
C279 C 0.50353 0.30726 0.74802 0.0
C280 C 0.50452 0.33442 0.75625 0.0
C281 C 0.48293 0.29941 0.73096 0.0
C282 C 0.41812 0.32372 0.69803 0.0
H283 H 0.38628 0.27868 0.5717 0.0
H284 H 0.40439 0.27127 0.61685 0.0
H285 H 0.38313 0.33272 0.67371 0.0
H286 H 0.48339 0.37376 0.75519 0.0
H287 H 0.44807 0.36049 0.72505 0.0
H288 H 0.47469 0.29012 0.67807 0.0
C289 C 0.39764 0.29181 0.6099 0.0
C290 C 0.40289 0.32289 0.67472 0.0
C291 C 0.38723 0.29606 0.58412 0.0
C292 C 0.48335 0.3528 0.74884 0.0
C293 C 0.4629 0.34504 0.73176 0.0
C294 C 0.45437 0.29864 0.67787 0.0
C295 C 0.39979 0.31401 0.62637 0.0
C296 C 0.41356 0.31057 0.65252 0.0
C297 C 0.46298 0.31858 0.72178 0.0
C298 C 0.4445 0.31257 0.69952 0.0
H299 H 0.37458 0.36543 0.58399 0.0
H300 H 0.3925 0.35794 0.6289 0.0
H301 H 0.44785 0.28812 0.6378 0.0
H302 H 0.51957 0.29263 0.75338 0.0
H303 H 0.48332 0.2787 0.72406 0.0
C304 C 0.72375 0.56044 0.49962 0.0
C305 C 0.70222 0.57822 0.4919 0.0
C306 C 0.73175 0.53954 0.48339 0.0
C307 C 0.70185 0.49865 0.43169 0.0
H308 H 0.77351 0.4657 0.42971 0.0
C309 C 0.71635 0.40129 0.37758 0.0
C310 C 0.72761 0.37935 0.39352 0.0
C311 C 0.71969 0.42853 0.38437 0.0
C312 C 0.75345 0.47481 0.43003 0.0
H313 H 0.67387 0.58994 0.46027 0.0
H314 H 0.68859 0.55448 0.43144 0.0
H315 H 0.76705 0.50913 0.4513 0.0
H316 H 0.75283 0.36835 0.42772 0.0
H317 H 0.75842 0.4162 0.44002 0.0
H318 H 0.68804 0.46435 0.41102 0.0
C319 C 0.69856 0.5557 0.45047 0.0
C320 C 0.7497 0.49959 0.44246 0.0
C321 C 0.6902 0.57613 0.4669 0.0
C322 C 0.74416 0.38509 0.41509 0.0
C323 C 0.74735 0.41243 0.42206 0.0
C324 C 0.70563 0.47421 0.41914 0.0
C325 C 0.71865 0.5364 0.45896 0.0
C326 C 0.72373 0.51161 0.44372 0.0
C327 C 0.73403 0.43425 0.40746 0.0
C328 C 0.73136 0.46181 0.4184 0.0
H329 H 0.73333 0.56165 0.51884 0.0
H330 H 0.74716 0.52499 0.49069 0.0
H331 H 0.68142 0.50671 0.43286 0.0
H332 H 0.70357 0.39721 0.36079 0.0
H333 H 0.70962 0.44497 0.37248 0.0
C334 C 0.87071 0.1575 0.944 0.0
C335 C 0.87587 0.17839 0.96131 0.0
C336 C 0.88199 0.15889 0.9186 0.0
C337 C 0.92161 0.20297 0.86871 0.0
H338 H 0.95117 0.13161 0.853 0.0
C339 C 0.01148 0.18573 0.79686 0.0
C340 C 0.0113 0.16129 0.78333 0.0
C341 C 0.99021 0.19142 0.81409 0.0
C342 C 0.94264 0.15163 0.8567 0.0
H343 H 0.89547 0.21792 0.96528 0.0
H344 H 0.91629 0.2199 0.92106 0.0
H345 H 0.9227 0.13496 0.89164 0.0
H346 H 0.98779 0.1251 0.775 0.0
H347 H 0.95043 0.13525 0.80459 0.0
H348 H 0.9429 0.21961 0.834 0.0
C349 C 0.90302 0.20272 0.92687 0.0
C350 C 0.92621 0.15358 0.87894 0.0
C351 C 0.89119 0.20158 0.95222 0.0
C352 C 0.98852 0.1439 0.78551 0.0
C353 C 0.96724 0.14967 0.80251 0.0
C354 C 0.93832 0.20102 0.84638 0.0
C355 C 0.89931 0.18085 0.91014 0.0
C356 C 0.91549 0.17923 0.88534 0.0
C357 C 0.96843 0.1728 0.81792 0.0
C358 C 0.94905 0.17529 0.84021 0.0
H359 H 0.85857 0.13961 0.95043 0.0
H360 H 0.87796 0.14213 0.90597 0.0
H361 H 0.91358 0.22302 0.87298 0.0
H362 H 0.02892 0.19938 0.79559 0.0
H363 H 0.99178 0.20935 0.82575 0.0
C364 C 0.37269 0.42359 0.41093 0.0
C365 C 0.34576 0.41706 0.4181 0.0
C366 C 0.37827 0.44194 0.38908 0.0
C367 C 0.35068 0.5017 0.35142 0.0
H368 H 0.40873 0.48803 0.30201 0.0
C369 C 0.38794 0.5879 0.27561 0.0
C370 C 0.41629 0.59063 0.27364 0.0
C371 C 0.37636 0.56413 0.28828 0.0
C372 C 0.39255 0.49225 0.3157 0.0
H373 H 0.30355 0.42436 0.40769 0.0
H374 H 0.31341 0.45716 0.36964 0.0
H375 H 0.39385 0.45096 0.33395 0.0
H376 H 0.4546 0.56972 0.28193 0.0
H377 H 0.43459 0.52889 0.30478 0.0
H378 H 0.35027 0.54335 0.33434 0.0
C379 C 0.33011 0.44778 0.38096 0.0
C380 C 0.38396 0.47097 0.33389 0.0
C381 C 0.3245 0.42899 0.40264 0.0
C382 C 0.43271 0.5685 0.28351 0.0
C383 C 0.42116 0.54486 0.2963 0.0
C384 C 0.35946 0.5231 0.33343 0.0
C385 C 0.35707 0.45448 0.37406 0.0
C386 C 0.3634 0.47569 0.35234 0.0
C387 C 0.39286 0.54258 0.29935 0.0
C388 C 0.38099 0.51884 0.31579 0.0
H389 H 0.38955 0.41459 0.42229 0.0
H390 H 0.39923 0.44697 0.38441 0.0
H391 H 0.33494 0.50596 0.36559 0.0
H392 H 0.37469 0.6046 0.26835 0.0
H393 H 0.35447 0.56291 0.2899 0.0
C394 C 0.05025 0.78935 0.96406 0.0
C395 C 0.06164 0.81608 0.9622 0.0
C396 C 0.02504 0.78448 0.95243 0.0
C397 C 0.97706 0.813 0.9016 0.0
H398 H 0.92082 0.78029 0.94746 0.0
C399 C 0.86481 0.83728 0.88503 0.0
C400 C 0.84498 0.81731 0.89217 0.0
C401 C 0.8922 0.83171 0.88969 0.0
C402 C 0.93636 0.78887 0.93413 0.0
H403 H 0.05596 0.85837 0.94589 0.0
H404 H 0.01232 0.84978 0.92548 0.0
H405 H 0.96774 0.78027 0.96296 0.0
H406 H 0.83836 0.77534 0.90868 0.0
H407 H 0.88656 0.76537 0.91663 0.0
H408 H 0.94577 0.82219 0.87298 0.0
C409 C 0.02279 0.83262 0.93595 0.0
C410 C 0.96324 0.7889 0.94306 0.0
C411 C 0.04769 0.83758 0.94786 0.0
C412 C 0.85323 0.79111 0.90298 0.0
C413 C 0.88077 0.78551 0.90772 0.0
C414 C 0.95029 0.81277 0.89259 0.0
C415 C 0.01107 0.80611 0.93832 0.0
C416 C 0.98366 0.80182 0.92722 0.0
C417 C 0.90053 0.80595 0.90153 0.0
C418 C 0.92946 0.80161 0.90911 0.0
H419 H 0.0605 0.77236 0.975 0.0
H420 H 0.01645 0.76384 0.9545 0.0
H421 H 0.99252 0.82268 0.88881 0.0
H422 H 0.85909 0.85753 0.87631 0.0
H423 H 0.90674 0.84809 0.88497 0.0
C424 C 0.80919 0.0719 0.98257 0.0
C425 C 0.79563 0.08 0.00531 0.0
C426 C 0.79844 0.05126 0.96769 0.0
C427 C 0.75785 0.98901 0.97547 0.0
H428 H 0.76453 0.99132 0.89869 0.0
C429 C 0.74915 0.88973 0.91905 0.0
C430 C 0.77147 0.8863 0.90226 0.0
C431 C 0.74378 0.91562 0.92876 0.0
C432 C 0.76239 0.99038 0.92012 0.0
H433 H 0.75971 0.07334 0.02982 0.0
H434 H 0.74114 0.03672 0.0039 0.0
H435 H 0.77069 0.03368 0.92168 0.0
H436 H 0.80445 0.90737 0.8809 0.0
H437 H 0.79536 0.95226 0.89786 0.0
H438 H 0.75118 0.94545 0.97412 0.0
C439 C 0.76005 0.04655 0.99765 0.0
C440 C 0.76588 0.01462 0.93325 0.0
C441 C 0.77065 0.06753 0.01241 0.0
C442 C 0.7873 0.90943 0.89408 0.0
C443 C 0.78186 0.93522 0.90358 0.0
C444 C 0.75447 0.96472 0.96234 0.0
C445 C 0.77401 0.03805 0.9753 0.0
C446 C 0.76471 0.01394 0.96112 0.0
C447 C 0.76047 0.93851 0.92154 0.0
C448 C 0.75782 0.96495 0.93462 0.0
H449 H 0.82836 0.08124 0.97643 0.0
H450 H 0.80986 0.04489 0.95078 0.0
H451 H 0.75697 0.98785 0.99699 0.0
H452 H 0.73665 0.87216 0.92562 0.0
H453 H 0.72704 0.91759 0.94243 0.0
C454 C 0.44257 0.29761 0.46382 0.0
C455 C 0.4298 0.32363 0.46109 0.0
C456 C 0.46896 0.29424 0.45425 0.0
C457 C 0.52973 0.33636 0.43563 0.0
H458 H 0.55572 0.26938 0.40584 0.0
C459 C 0.63191 0.33417 0.3838 0.0
C460 C 0.65026 0.31404 0.39431 0.0
C461 C 0.60441 0.33227 0.38995 0.0
C462 C 0.54866 0.28811 0.41425 0.0
H463 H 0.43388 0.36603 0.44469 0.0
H464 H 0.47922 0.35997 0.42715 0.0
H465 H 0.50827 0.27239 0.42011 0.0
H466 H 0.65385 0.27502 0.41783 0.0
H467 H 0.60523 0.27152 0.42839 0.0
H468 H 0.56981 0.35229 0.42928 0.0
C469 C 0.46948 0.34238 0.43762 0.0
C470 C 0.52158 0.28984 0.4225 0.0
C471 C 0.44339 0.34584 0.44754 0.0
C472 C 0.64017 0.29084 0.40951 0.0
C473 C 0.61243 0.28884 0.41555 0.0
C474 C 0.55652 0.33474 0.42711 0.0
C475 C 0.48292 0.31675 0.44145 0.0
C476 C 0.51173 0.31415 0.43306 0.0
C477 C 0.59454 0.31007 0.40653 0.0
C478 C 0.56619 0.31076 0.41613 0.0
H479 H 0.43256 0.28012 0.47422 0.0
H480 H 0.47871 0.27426 0.4577 0.0
H481 H 0.52322 0.35506 0.44443 0.0
H482 H 0.63899 0.35193 0.37146 0.0
H483 H 0.59092 0.34864 0.38235 0.0
C484 C 0.12008 0.91582 0.90926 0.0
C485 C 0.14656 0.91012 0.91843 0.0
C486 C 0.11559 0.93462 0.88748 0.0
C487 C 0.14402 0.99692 0.85527 0.0
H488 H 0.09048 0.98549 0.80072 0.0
C489 C 0.11123 0.08694 0.78196 0.0
C490 C 0.08316 0.08938 0.77733 0.0
C491 C 0.12214 0.06261 0.79415 0.0
C492 C 0.10538 0.9891 0.81588 0.0
H493 H 0.18918 0.91905 0.91148 0.0
H494 H 0.18122 0.95257 0.87358 0.0
H495 H 0.10388 0.94682 0.83158 0.0
H496 H 0.04482 0.06738 0.78047 0.0
H497 H 0.06355 0.02558 0.80276 0.0
H498 H 0.14451 0.03942 0.84081 0.0
C499 C 0.16402 0.94224 0.88326 0.0
C500 C 0.11314 0.96689 0.83343 0.0
C501 C 0.16856 0.92303 0.90484 0.0
C502 C 0.06645 0.06644 0.78416 0.0
C503 C 0.07731 0.04223 0.79661 0.0
C504 C 0.13603 0.0192 0.83794 0.0
C505 C 0.13746 0.94843 0.87459 0.0
C506 C 0.13211 0.97074 0.85364 0.0
C507 C 0.10523 0.0402 0.80227 0.0
C508 C 0.11615 0.01573 0.81839 0.0
H509 H 0.10271 0.90605 0.91917 0.0
H510 H 0.0949 0.93919 0.8814 0.0
H511 H 0.15845 0.00055 0.87086 0.0
H512 H 0.12474 0.1042 0.77717 0.0
H513 H 0.14379 0.06163 0.79774 0.0
C514 C 0.60518 0.70291 0.45261 0.0
C515 C 0.62332 0.68106 0.45893 0.0
C516 C 0.59254 0.70528 0.42762 0.0
C517 C 0.57245 0.6584 0.37697 0.0
H518 H 0.54833 0.72484 0.33642 0.0
C519 C 0.50961 0.6482 0.284 0.0
C520 C 0.48582 0.66408 0.28217 0.0
C521 C 0.53021 0.65468 0.30147 0.0
C522 C 0.55492 0.70614 0.3476 0.0
H523 H 0.64466 0.6464 0.44364 0.0
H524 H 0.62367 0.65118 0.39989 0.0
H525 H 0.57834 0.72872 0.37486 0.0
H526 H 0.46528 0.70002 0.29576 0.0
H527 H 0.50114 0.71111 0.32705 0.0
H528 H 0.54872 0.63575 0.35062 0.0
C529 C 0.61829 0.66586 0.41432 0.0
C530 C 0.57207 0.70835 0.36958 0.0
C531 C 0.63047 0.66322 0.43928 0.0
C532 C 0.4836 0.68761 0.29683 0.0
C533 C 0.50414 0.69395 0.31465 0.0
C534 C 0.55547 0.6562 0.35519 0.0
C535 C 0.59816 0.68599 0.40863 0.0
C536 C 0.58104 0.68444 0.38448 0.0
C537 C 0.52721 0.67688 0.31787 0.0
C538 C 0.54647 0.67997 0.34018 0.0
H539 H 0.59929 0.71681 0.46756 0.0
H540 H 0.57711 0.721 0.42389 0.0
H541 H 0.5782 0.63956 0.38844 0.0
H542 H 0.51177 0.63006 0.27269 0.0
H543 H 0.54801 0.64152 0.30299 0.0
C544 C 0.26842 0.42963 0.52667 0.0
C545 C 0.29546 0.42117 0.53115 0.0
C546 C 0.2574 0.4513 0.54023 0.0
C547 C 0.26886 0.49394 0.59775 0.0
H548 H 0.23556 0.55288 0.553 0.0
C549 C 0.26888 0.6175 0.59353 0.0
C550 C 0.26575 0.62164 0.62066 0.0
C551 C 0.26258 0.59198 0.58377 0.0
C552 C 0.24459 0.53651 0.56583 0.0
H553 H 0.33164 0.42806 0.55435 0.0
H554 H 0.31256 0.46576 0.57772 0.0
H555 H 0.24483 0.50833 0.53489 0.0
H556 H 0.2514 0.60318 0.65845 0.0
H557 H 0.23994 0.55858 0.64132 0.0
H558 H 0.27039 0.52258 0.62811 0.0
C559 C 0.29977 0.45558 0.56389 0.0
C560 C 0.24968 0.5109 0.55554 0.0
C561 C 0.31081 0.4341 0.55027 0.0
C562 C 0.25397 0.60057 0.63742 0.0
C563 C 0.24767 0.57496 0.62766 0.0
C564 C 0.2638 0.51951 0.60803 0.0
C565 C 0.2731 0.46476 0.55872 0.0
C566 C 0.26285 0.48972 0.57109 0.0
C567 C 0.253 0.57002 0.60097 0.0
C568 C 0.25256 0.54144 0.59188 0.0
H569 H 0.25598 0.42007 0.51213 0.0
H570 H 0.23673 0.45781 0.53597 0.0
H571 H 0.27864 0.47785 0.61034 0.0
H572 H 0.27769 0.63353 0.58014 0.0
H573 H 0.26712 0.58892 0.56316 0.0
C574 C 0.09528 0.80217 0.08876 0.0
C575 C 0.10938 0.82533 0.07753 0.0
C576 C 0.08434 0.80251 0.11444 0.0
C577 C 0.06187 0.85401 0.16064 0.0
H578 H 0.0535 0.79078 0.21151 0.0
C579 C 0.01354 0.86903 0.26053 0.0
C580 C 0.99139 0.8516 0.26688 0.0
C581 C 0.03214 0.86231 0.24115 0.0
C582 C 0.05574 0.80857 0.19744 0.0
H583 H 0.12526 0.86584 0.08499 0.0
H584 H 0.10734 0.866 0.12983 0.0
H585 H 0.07843 0.7856 0.16996 0.0
H586 H 0.97244 0.81245 0.25959 0.0
H587 H 0.005 0.8007 0.22535 0.0
H588 H 0.03916 0.87696 0.18766 0.0
C589 C 0.10355 0.84807 0.11864 0.0
C590 C 0.0699 0.8056 0.17364 0.0
C591 C 0.11396 0.84794 0.09297 0.0
C592 C 0.98944 0.82617 0.2551 0.0
C593 C 0.00805 0.81947 0.23552 0.0
C594 C 0.04802 0.85699 0.18433 0.0
C595 C 0.08771 0.82586 0.12936 0.0
C596 C 0.07319 0.82838 0.15499 0.0
C597 C 0.02887 0.8381 0.22755 0.0
C598 C 0.04482 0.8344 0.20306 0.0
H599 H 0.09152 0.78448 0.07722 0.0
H600 H 0.07221 0.78508 0.12205 0.0
H601 H 0.06317 0.87181 0.14646 0.0
H602 H 0.01564 0.8886 0.26959 0.0
H603 H 0.04833 0.87678 0.23582 0.0
C604 C 0.62513 0.56717 0.61387 0.0
C605 C 0.65234 0.57286 0.60711 0.0
C606 C 0.61874 0.54877 0.63545 0.0
C607 C 0.64344 0.48813 0.67366 0.0
H608 H 0.58831 0.50641 0.72454 0.0
C609 C 0.60611 0.40649 0.75367 0.0
C610 C 0.57787 0.40533 0.7577 0.0
C611 C 0.61794 0.42919 0.73947 0.0
C612 C 0.6036 0.50087 0.71041 0.0
H613 H 0.69419 0.56369 0.61774 0.0
H614 H 0.68287 0.53075 0.65524 0.0
H615 H 0.60383 0.54173 0.6911 0.0
H616 H 0.5402 0.428 0.75125 0.0
H617 H 0.56055 0.46685 0.72552 0.0
H618 H 0.6423 0.44696 0.6918 0.0
C619 C 0.66661 0.54087 0.64384 0.0
C620 C 0.61256 0.52116 0.69137 0.0
C621 C 0.67305 0.55971 0.62246 0.0
C622 C 0.56194 0.42797 0.74813 0.0
C623 C 0.57373 0.4505 0.73368 0.0
C624 C 0.63423 0.46771 0.69246 0.0
C625 C 0.63938 0.53533 0.65055 0.0
C626 C 0.63219 0.51482 0.67253 0.0
C627 C 0.60182 0.45116 0.72869 0.0
C628 C 0.61379 0.47368 0.71076 0.0
H629 H 0.60869 0.57712 0.60259 0.0
H630 H 0.59759 0.54461 0.64003 0.0
H631 H 0.65844 0.48266 0.65918 0.0
H632 H 0.61903 0.38937 0.76056 0.0
H633 H 0.6397 0.4292 0.73645 0.0
C634 C 0.94528 0.15989 0.08327 0.0
C635 C 0.92846 0.18144 0.07285 0.0
C636 C 0.97121 0.16557 0.09265 0.0
C637 C 0.02636 0.21521 0.08318 0.0
H638 H 0.05497 0.17742 0.14752 0.0
C639 C 0.13224 0.20165 0.14833 0.0
C640 C 0.14972 0.19397 0.12808 0.0
C641 C 0.1047 0.20631 0.14305 0.0
C642 C 0.04719 0.18849 0.12973 0.0
H643 H 0.92561 0.22598 0.06449 0.0
H644 H 0.97113 0.23578 0.08059 0.0
H645 H 0.007 0.17274 0.13661 0.0
H646 H 0.15273 0.18701 0.0862 0.0
H647 H 0.10471 0.1954 0.07689 0.0
H648 H 0.06679 0.23018 0.07586 0.0
C649 C 0.96412 0.21451 0.08151 0.0
C650 C 0.01981 0.18558 0.12336 0.0
C651 C 0.93803 0.20888 0.07241 0.0
C652 C 0.1396 0.19282 0.10215 0.0
C653 C 0.11218 0.19778 0.09681 0.0
C654 C 0.05383 0.2179 0.08941 0.0
C655 C 0.98101 0.19289 0.09157 0.0
C656 C 0.00924 0.19846 0.09978 0.0
C657 C 0.09428 0.20369 0.11739 0.0
C658 C 0.06461 0.20414 0.1125 0.0
H659 H 0.93853 0.13854 0.084 0.0
H660 H 0.9839 0.14846 0.10005 0.0
H661 H 0.01878 0.22525 0.0648 0.0
H662 H 0.13952 0.20248 0.16853 0.0
H663 H 0.09137 0.21105 0.15922 0.0
C664 C 0.21954 0.76647 0.05604 0.0
C665 C 0.2263 0.7878 0.03685 0.0
C666 C 0.23956 0.7537 0.0722 0.0
C667 C 0.28707 0.7189 0.09238 0.0
H668 H 0.34628 0.76156 0.11949 0.0
C669 C 0.37698 0.66561 0.14758 0.0
C670 C 0.38688 0.6779 0.17003 0.0
C671 C 0.35851 0.67971 0.13056 0.0
C672 C 0.32977 0.74937 0.11225 0.0
H673 H 0.25952 0.81243 0.01966 0.0
H674 H 0.29449 0.78974 0.04746 0.0
H675 H 0.31122 0.78496 0.09225 0.0
H676 H 0.38553 0.71468 0.19231 0.0
H677 H 0.35283 0.73912 0.16294 0.0
H678 H 0.30501 0.68349 0.11307 0.0
C679 C 0.27362 0.78323 0.05036 0.0
C680 C 0.30985 0.76274 0.09635 0.0
C681 C 0.25356 0.79615 0.03431 0.0
C682 C 0.37833 0.70474 0.17503 0.0
C683 C 0.35968 0.7188 0.15811 0.0
C684 C 0.30688 0.70558 0.10837 0.0
C685 C 0.26687 0.76178 0.06944 0.0
C686 C 0.28822 0.74766 0.08625 0.0
C687 C 0.34934 0.70633 0.13581 0.0
C688 C 0.32849 0.72063 0.11851 0.0
H689 H 0.19872 0.75966 0.05874 0.0
H690 H 0.23354 0.73761 0.08702 0.0
H691 H 0.27093 0.70656 0.08466 0.0
H692 H 0.38337 0.64496 0.14327 0.0
H693 H 0.35139 0.66968 0.11331 0.0
C694 C 0.70805 0.6775 0.6418 0.0
C695 C 0.69181 0.6936 0.62374 0.0
C696 C 0.71315 0.68604 0.66716 0.0
C697 C 0.68843 0.73181 0.71755 0.0
H698 H 0.76131 0.7214 0.74551 0.0
C699 C 0.72677 0.7779 0.81402 0.0
C700 C 0.74389 0.7611 0.83057 0.0
C701 C 0.7185 0.76923 0.78941 0.0
C702 C 0.74078 0.72413 0.73813 0.0
H703 H 0.66796 0.73129 0.61845 0.0
H704 H 0.67728 0.74645 0.66285 0.0
H705 H 0.75099 0.70816 0.70094 0.0
H706 H 0.76491 0.72177 0.83498 0.0
H707 H 0.75035 0.70648 0.792 0.0
H708 H 0.67842 0.74809 0.75485 0.0
C709 C 0.68579 0.72701 0.65732 0.0
C710 C 0.73485 0.71657 0.71257 0.0
C711 C 0.68058 0.7184 0.63184 0.0
C712 C 0.75179 0.73512 0.82252 0.0
C713 C 0.74361 0.72648 0.79788 0.0
C714 C 0.69441 0.73948 0.74318 0.0
C715 C 0.70229 0.71098 0.67518 0.0
C716 C 0.70857 0.7201 0.70204 0.0
C717 C 0.72728 0.74366 0.78086 0.0
C718 C 0.72061 0.73552 0.75378 0.0
H719 H 0.71683 0.65811 0.63646 0.0
H720 H 0.72548 0.6729 0.68059 0.0
H721 H 0.66792 0.73453 0.71012 0.0
H722 H 0.72029 0.79805 0.81972 0.0
H723 H 0.70605 0.78298 0.77667 0.0
C724 C 0.82867 0.22954 0.13237 0.0
C725 C 0.81008 0.2102 0.12337 0.0
C726 C 0.8255 0.23992 0.15745 0.0
C727 C 0.77452 0.24905 0.20963 0.0
H728 H 0.83582 0.24786 0.25795 0.0
C729 C 0.75888 0.25757 0.32097 0.0
C730 C 0.77618 0.27532 0.33396 0.0
C731 C 0.7647 0.25051 0.29523 0.0
C732 C 0.8186 0.24863 0.24458 0.0
H733 H 0.77324 0.18717 0.13342 0.0
H734 H 0.76777 0.20528 0.17682 0.0
H735 H 0.84246 0.23572 0.21204 0.0
H736 H 0.81366 0.29863 0.33083 0.0
H737 H 0.82385 0.28638 0.28552 0.0
H738 H 0.75058 0.2617 0.24199 0.0
C739 C 0.78472 0.21251 0.16454 0.0
C740 C 0.82241 0.24175 0.21831 0.0
C741 C 0.78798 0.202 0.13969 0.0
C742 C 0.80003 0.2849 0.32118 0.0
C743 C 0.80585 0.27786 0.29531 0.0
C744 C 0.77073 0.25595 0.23577 0.0
C745 C 0.80353 0.2314 0.17379 0.0
C746 C 0.80028 0.2414 0.20075 0.0
C747 C 0.78789 0.26109 0.28186 0.0
C748 C 0.7926 0.25529 0.2537 0.0
H749 H 0.84597 0.2362 0.12031 0.0
H750 H 0.84021 0.2546 0.16405 0.0
H751 H 0.75719 0.24946 0.1964 0.0
H752 H 0.74048 0.24957 0.33042 0.0
H753 H 0.75081 0.23698 0.28565 0.0
C754 C 0.23769 0.30097 0.53232 0.0
C755 C 0.26451 0.29099 0.53148 0.0
C756 C 0.21958 0.2902 0.55178 0.0
C757 C 0.21983 0.25763 0.61912 0.0
H758 H 0.14743 0.23137 0.60431 0.0
C759 C 0.16089 0.18959 0.69611 0.0
C760 C 0.13281 0.19324 0.69843 0.0
C761 C 0.17528 0.20351 0.67551 0.0
C762 C 0.16742 0.23906 0.60883 0.0
H763 H 0.29292 0.26123 0.55003 0.0
H764 H 0.26147 0.2428 0.58384 0.0
H765 H 0.17543 0.25188 0.56795 0.0
H766 H 0.09756 0.21435 0.6811 0.0
H767 H 0.12288 0.23922 0.64512 0.0
H768 H 0.21209 0.24512 0.65983 0.0
C769 C 0.25454 0.25902 0.56956 0.0
C770 C 0.18343 0.2507 0.58801 0.0
C771 C 0.27249 0.2695 0.55003 0.0
C772 C 0.11925 0.21116 0.67975 0.0
C773 C 0.13372 0.22527 0.65909 0.0
C774 C 0.20382 0.24629 0.63989 0.0
C775 C 0.22808 0.26955 0.57091 0.0
C776 C 0.21 0.25948 0.59293 0.0
C777 C 0.16194 0.22162 0.65679 0.0
C778 C 0.17767 0.23623 0.63494 0.0
H779 H 0.23085 0.31746 0.5183 0.0
H780 H 0.19925 0.29864 0.55244 0.0
H781 H 0.24006 0.26479 0.62352 0.0
H782 H 0.17175 0.17571 0.71017 0.0
H783 H 0.19687 0.19972 0.67405 0.0
C784 C 0.73826 0.73526 0.5028 0.0
C785 C 0.73973 0.70636 0.50791 0.0
C786 C 0.75868 0.74948 0.48835 0.0
C787 C 0.81018 0.74101 0.43785 0.0
H788 H 0.84023 0.80866 0.46268 0.0
C789 C 0.89308 0.80339 0.37872 0.0
C790 C 0.89052 0.83235 0.37757 0.0
C791 C 0.87686 0.78677 0.39612 0.0
C792 C 0.83186 0.78997 0.45529 0.0
H793 H 0.76376 0.66974 0.50171 0.0
H794 H 0.79925 0.6947 0.47604 0.0
H795 H 0.80741 0.78208 0.49012 0.0
H796 H 0.86931 0.86671 0.39353 0.0
H797 H 0.84049 0.83788 0.42325 0.0
H798 H 0.83376 0.74931 0.40259 0.0
C799 C 0.78232 0.70623 0.48341 0.0
C800 C 0.81315 0.77472 0.47109 0.0
C801 C 0.76208 0.69202 0.49821 0.0
C802 C 0.87173 0.8444 0.39418 0.0
C803 C 0.85537 0.82785 0.41135 0.0
C804 C 0.82867 0.75644 0.42188 0.0
C805 C 0.78081 0.7351 0.4784 0.0
C806 C 0.80191 0.75027 0.46238 0.0
C807 C 0.85766 0.79881 0.41252 0.0
C808 C 0.83949 0.78132 0.43026 0.0
H809 H 0.72137 0.74694 0.51005 0.0
H810 H 0.7569 0.77172 0.48454 0.0
H811 H 0.80162 0.72233 0.43059 0.0
H812 H 0.90754 0.79354 0.36622 0.0
H813 H 0.87945 0.76451 0.39676 0.0
C814 C 0.73391 0.19738 0.00673 0.0
C815 C 0.76068 0.20758 0.00625 0.0
C816 C 0.71488 0.20774 0.98795 0.0
C817 C 0.71187 0.23891 0.92031 0.0
H818 H 0.64123 0.26785 0.938 0.0
C819 C 0.65252 0.30873 0.84554 0.0
C820 C 0.62427 0.306 0.84401 0.0
C821 C 0.66707 0.29441 0.86577 0.0
C822 C 0.66069 0.25939 0.9327 0.0
H823 H 0.78811 0.23721 0.98601 0.0
H824 H 0.7551 0.25485 0.95336 0.0
H825 H 0.67037 0.24696 0.97334 0.0
H826 H 0.58887 0.28628 0.86248 0.0
H827 H 0.61449 0.26073 0.89792 0.0
H828 H 0.70254 0.2511 0.87986 0.0
C829 C 0.74889 0.23883 0.96818 0.0
C830 C 0.67734 0.24753 0.95293 0.0
C831 C 0.76774 0.2288 0.98704 0.0
C832 C 0.61069 0.28873 0.86322 0.0
C833 C 0.62533 0.27422 0.88354 0.0
C834 C 0.69522 0.25046 0.90016 0.0
C835 C 0.72244 0.22814 0.96819 0.0
C836 C 0.70337 0.23789 0.94692 0.0
C837 C 0.65374 0.2768 0.88491 0.0
C838 C 0.66977 0.26157 0.90616 0.0
H839 H 0.72778 0.1811 0.02131 0.0
H840 H 0.69455 0.19921 0.98833 0.0
H841 H 0.73165 0.2311 0.91512 0.0
H842 H 0.66342 0.3221 0.83108 0.0
H843 H 0.68882 0.29742 0.86656 0.0
C844 C 0.2929 0.30249 0.39418 0.0
C845 C 0.31219 0.29152 0.41256 0.0
C846 C 0.2904 0.29195 0.36924 0.0
C847 C 0.30498 0.23097 0.33182 0.0
H848 H 0.29302 0.28296 0.27092 0.0
C849 C 0.29391 0.19593 0.22479 0.0
C850 C 0.27166 0.20746 0.21062 0.0
C851 C 0.30209 0.20658 0.24863 0.0
C852 C 0.29626 0.26819 0.28774 0.0
H853 H 0.34373 0.26046 0.41915 0.0
H854 H 0.33936 0.24211 0.3754 0.0
H855 H 0.30091 0.30025 0.31454 0.0
H856 H 0.24099 0.23973 0.20976 0.0
H857 H 0.2552 0.25824 0.25121 0.0
H858 H 0.29995 0.19889 0.30497 0.0
C859 C 0.32608 0.2588 0.38048 0.0
C860 C 0.30072 0.27807 0.31273 0.0
C861 C 0.32861 0.26937 0.40552 0.0
C862 C 0.2582 0.23033 0.22025 0.0
C863 C 0.26646 0.24107 0.24393 0.0
C864 C 0.30057 0.22106 0.30676 0.0
C865 C 0.30713 0.27019 0.36197 0.0
C866 C 0.30459 0.25957 0.33515 0.0
C867 C 0.28827 0.22912 0.25855 0.0
C868 C 0.29566 0.23958 0.28457 0.0
H869 H 0.27978 0.31943 0.39891 0.0
H870 H 0.2752 0.30079 0.35565 0.0
H871 H 0.3077 0.21619 0.34873 0.0
H872 H 0.30462 0.17829 0.21773 0.0
H873 H 0.31912 0.19712 0.25936 0.0
C874 C 0.16331 0.76356 0.91161 0.0
C875 C 0.18191 0.78257 0.92115 0.0
C876 C 0.16832 0.75126 0.88773 0.0
C877 C 0.2233 0.73481 0.84207 0.0
H878 H 0.16791 0.73869 0.78732 0.0
C879 C 0.24944 0.71896 0.73342 0.0
C880 C 0.23117 0.70409 0.71848 0.0
C881 C 0.24226 0.72673 0.75863 0.0
C882 C 0.18346 0.73703 0.80252 0.0
H883 H 0.22066 0.80294 0.91351 0.0
H884 H 0.22941 0.78133 0.87223 0.0
H885 H 0.15745 0.75409 0.83136 0.0
H886 H 0.19103 0.686 0.71788 0.0
H887 H 0.17853 0.69921 0.76225 0.0
H888 H 0.24937 0.71785 0.81346 0.0
C889 C 0.21098 0.77596 0.88311 0.0
C890 C 0.17745 0.74585 0.82772 0.0
C891 C 0.20585 0.78848 0.90669 0.0
C892 C 0.20544 0.69751 0.72903 0.0
C893 C 0.19828 0.70516 0.75437 0.0
C894 C 0.22925 0.72583 0.81701 0.0
C895 C 0.19221 0.75741 0.87327 0.0
C896 C 0.19749 0.74532 0.84755 0.0
C897 C 0.21672 0.71965 0.76957 0.0
C898 C 0.2096 0.72737 0.79675 0.0
H899 H 0.14465 0.75867 0.92226 0.0
H900 H 0.15358 0.73691 0.88059 0.0
H901 H 0.239 0.73378 0.85714 0.0
H902 H 0.26936 0.72455 0.72574 0.0
H903 H 0.25673 0.73843 0.76952 0.0
loop_
_geom_bond_atom_site_label_1
_geom_bond_atom_site_label_2
_geom_bond_distance
_geom_bond_site_symmetry_2
_ccdc_geom_bond_type
Sc0 O3 2.025 . S
Sc0 O10 2.105 1_554 S
Sc0 O13 2.105 . S
Sc0 O16 2.105 . S
Sc0 O19 2.105 1_554 S
Sc1 O3 2.025 . S
Sc1 O11 2.105 1_554 S
Sc1 O15 2.105 . S
Sc1 O17 2.105 . S
Sc1 O21 2.105 1_554 S
Sc2 O3 2.025 1_556 S
Sc2 O12 2.105 . S
Sc2 O14 2.105 1_556 S
Sc2 O18 2.105 1_556 S
Sc2 O20 2.105 . S
O3 Sc0 2.025 . S
O3 Sc1 2.025 . S
O3 Sc2 2.025 1_554 S
C4 O10 1.268 . S
C4 O20 1.268 . S
C5 O11 1.268 . S
C5 O19 1.268 . S
C6 O12 1.268 . S
C6 O21 1.268 . S
C7 O13 1.268 . S
C7 O17 1.268 . S
C8 O14 1.268 . S
C8 O16 1.268 . S
C9 O15 1.268 . S
C9 O18 1.268 . S
O10 Sc0 2.105 1_556 S
O10 C4 1.268 . S
O11 Sc1 2.105 1_556 S
O11 C5 1.268 . S
O12 Sc2 2.105 . S
O12 C6 1.268 . S
O13 Sc0 2.105 . S
O13 C7 1.268 . S
O14 Sc2 2.105 1_554 S
O14 C8 1.268 . S
O15 Sc1 2.105 . S
O15 C9 1.268 . S
O16 Sc0 2.105 . S
O16 C8 1.268 . S
O17 Sc1 2.105 . S
O17 C7 1.268 . S
O18 Sc2 2.105 1_554 S
O18 C9 1.268 . S
O19 Sc0 2.105 1_556 S
O19 C5 1.268 . S
O20 Sc2 2.105 . S
O20 C4 1.268 . S
O21 Sc1 2.105 1_556 S
O21 C6 1.268 . S
Sc22 O25 2.025 . S
Sc22 O32 2.105 . S
Sc22 O35 2.105 . S
Sc22 O38 2.105 . S
Sc22 O41 2.105 . S
Sc23 O25 2.025 . S
Sc23 O33 2.105 . S
Sc23 O37 2.105 . S
Sc23 O39 2.105 . S
Sc23 O43 2.105 . S
Sc24 O25 2.025 . S
Sc24 O34 2.105 . S
Sc24 O36 2.105 . S
Sc24 O40 2.105 . S
Sc24 O42 2.105 . S
O25 Sc22 2.025 . S
O25 Sc23 2.025 . S
O25 Sc24 2.025 . S
C26 O32 1.268 . S
C26 O42 1.268 . S
C27 O33 1.268 . S
C27 O41 1.268 . S
C28 O34 1.268 . S
C28 O43 1.268 . S
C29 O35 1.268 . S
C29 O39 1.268 . S
C30 O36 1.268 . S
C30 O38 1.268 . S
C31 O37 1.268 . S
C31 O40 1.268 . S
O32 Sc22 2.105 . S
O32 C26 1.268 . S
O33 Sc23 2.105 . S
O33 C27 1.268 . S
O34 Sc24 2.105 . S
O34 C28 1.268 . S
O35 Sc22 2.105 . S
O35 C29 1.268 . S
O36 Sc24 2.105 . S
O36 C30 1.268 . S
O37 Sc23 2.105 . S
O37 C31 1.268 . S
O38 Sc22 2.105 . S
O38 C30 1.268 . S
O39 Sc23 2.105 . S
O39 C29 1.268 . S
O40 Sc24 2.105 . S
O40 C31 1.268 . S
O41 Sc22 2.105 . S
O41 C27 1.268 . S
O42 Sc24 2.105 . S
O42 C26 1.268 . S
O43 Sc23 2.105 . S
O43 C28 1.268 . S
Sc44 O47 2.025 . S
Sc44 O54 2.105 1_554 S
Sc44 O57 2.105 . S
Sc44 O60 2.105 . S
Sc44 O63 2.105 . S
Sc45 O47 2.025 . S
Sc45 O55 2.105 . S
Sc45 O59 2.105 . S
Sc45 O61 2.105 . S
Sc45 O65 2.105 . S
Sc46 O47 2.025 . S
Sc46 O56 2.105 . S
Sc46 O58 2.105 . S
Sc46 O62 2.105 . S
Sc46 O64 2.105 1_554 S
O47 Sc44 2.025 . S
O47 Sc45 2.025 . S
O47 Sc46 2.025 . S
C48 O54 1.268 . S
C48 O64 1.268 . S
C49 O55 1.268 . S
C49 O63 1.268 . S
C50 O56 1.268 . S
C50 O65 1.268 . S
C51 O57 1.268 . S
C51 O61 1.268 . S
C52 O58 1.268 . S
C52 O60 1.268 . S
C53 O59 1.268 . S
C53 O62 1.268 . S
O54 Sc44 2.105 1_556 S
O54 C48 1.268 . S
O55 Sc45 2.105 . S
O55 C49 1.268 . S
O56 Sc46 2.105 . S
O56 C50 1.268 . S
O57 Sc44 2.105 . S
O57 C51 1.268 . S
O58 Sc46 2.105 . S
O58 C52 1.268 . S
O59 Sc45 2.105 . S
O59 C53 1.268 . S
O60 Sc44 2.105 . S
O60 C52 1.268 . S
O61 Sc45 2.105 . S
O61 C51 1.268 . S
O62 Sc46 2.105 . S
O62 C53 1.268 . S
O63 Sc44 2.105 . S
O63 C49 1.268 . S
O64 Sc46 2.105 1_556 S
O64 C48 1.268 . S
O65 Sc45 2.105 . S
O65 C50 1.268 . S
Sc66 O69 2.025 . S
Sc66 O76 2.105 . S
Sc66 O79 2.105 . S
Sc66 O82 2.105 . S
Sc66 O85 2.105 . S
Sc67 O69 2.025 . S
Sc67 O77 2.105 . S
Sc67 O81 2.105 . S
Sc67 O83 2.105 . S
Sc67 O87 2.105 . S
Sc68 O69 2.025 . S
Sc68 O78 2.105 . S
Sc68 O80 2.105 . S
Sc68 O84 2.105 . S
Sc68 O86 2.105 . S
O69 Sc66 2.025 . S
O69 Sc67 2.025 . S
O69 Sc68 2.025 . S
C70 O76 1.268 . S
C70 O86 1.268 . S
C71 O77 1.268 . S
C71 O85 1.268 . S
C72 O78 1.268 . S
C72 O87 1.268 . S
C73 O79 1.268 . S
C73 O83 1.268 . S
C74 O80 1.268 . S
C74 O82 1.268 . S
C75 O81 1.268 . S
C75 O84 1.268 . S
O76 Sc66 2.105 . S
O76 C70 1.268 . S
O77 Sc67 2.105 . S
O77 C71 1.268 . S
O78 Sc68 2.105 . S
O78 C72 1.268 . S
O79 Sc66 2.105 . S
O79 C73 1.268 . S
O80 Sc68 2.105 . S
O80 C74 1.268 . S
O81 Sc67 2.105 . S
O81 C75 1.268 . S
O82 Sc66 2.105 . S
O82 C74 1.268 . S
O83 Sc67 2.105 . S
O83 C73 1.268 . S
O84 Sc68 2.105 . S
O84 C75 1.268 . S
O85 Sc66 2.105 . S
O85 C71 1.268 . S
O86 Sc68 2.105 . S
O86 C70 1.268 . S
O87 Sc67 2.105 . S
O87 C72 1.268 . S
H88 C93 0.930 . S
H89 C96 0.930 . S
H90 C98 0.930 . S
H91 C92 1.016 . S
C92 H91 1.016 . S
C92 N99 1.286 . S
C93 H88 0.930 . S
C93 C94 1.397 . S
C93 C95 1.361 . S
C94 C93 1.397 . S
C94 C98 1.390 . S
C95 C93 1.361 . S
C95 C96 1.393 . S
C95 N99 1.413 . S
C96 H89 0.930 . S
C96 C95 1.393 . S
C96 C97 1.399 . S
C97 C96 1.399 . S
C97 C98 1.381 . S
C98 H90 0.930 . S
C98 C94 1.390 . S
C98 C97 1.381 . S
N99 C92 1.286 . S
N99 C95 1.413 . S
H100 C105 0.930 . S
H101 C108 0.930 . S
H102 C110 0.930 . S
H103 C104 1.016 . S
C104 H103 1.016 . S
C104 N111 1.286 . S
C105 H100 0.930 . S
C105 C106 1.397 . S
C105 C107 1.361 . S
C106 C105 1.397 . S
C106 C110 1.390 . S
C107 C105 1.361 . S
C107 C108 1.393 . S
C107 N111 1.413 . S
C108 H101 0.930 . S
C108 C107 1.393 . S
C108 C109 1.399 . S
C109 C108 1.399 . S
C109 C110 1.381 . S
C110 H102 0.930 . S
C110 C106 1.390 . S
C110 C109 1.381 . S
N111 C104 1.286 . S
N111 C107 1.413 . S
H112 C117 0.930 . S
H113 C120 0.930 . S
H114 C122 0.930 . S
H115 C116 1.016 . S
C116 H115 1.016 . S
C116 N123 1.286 . S
C117 H112 0.930 . S
C117 C118 1.397 . S
C117 C119 1.361 . S
C118 C117 1.397 . S
C118 C122 1.390 . S
C119 C117 1.361 . S
C119 C120 1.393 . S
C119 N123 1.413 . S
C120 H113 0.930 . S
C120 C119 1.393 . S
C120 C121 1.399 . S
C121 C120 1.399 . S
C121 C122 1.381 . S
C122 H114 0.930 . S
C122 C118 1.390 . S
C122 C121 1.381 . S
N123 C116 1.286 . S
N123 C119 1.413 . S
H124 C129 0.930 . S
H125 C132 0.930 . S
H126 C134 0.930 . S
H127 C128 1.016 . S
C128 H127 1.016 . S
C128 N135 1.286 . S
C129 H124 0.930 . S
C129 C130 1.397 . S
C129 C131 1.361 . S
C130 C129 1.397 . S
C130 C134 1.390 . S
C131 C129 1.361 . S
C131 C132 1.393 . S
C131 N135 1.413 . S
C132 H125 0.930 . S
C132 C131 1.393 . S
C132 C133 1.399 . S
C133 C132 1.399 . S
C133 C134 1.381 . S
C134 H126 0.930 . S
C134 C130 1.390 . S
C134 C133 1.381 . S
N135 C128 1.286 . S
N135 C131 1.413 . S
H136 C141 0.930 . S
H137 C144 0.930 . S
H138 C146 0.930 . S
H139 C140 1.016 . S
C140 H139 1.016 . S
C140 N147 1.286 . S
C141 H136 0.930 . S
C141 C142 1.397 . S
C141 C143 1.361 . S
C142 C141 1.397 . S
C142 C146 1.390 . S
C143 C141 1.361 . S
C143 C144 1.393 . S
C143 N147 1.413 . S
C144 H137 0.930 . S
C144 C143 1.393 . S
C144 C145 1.399 . S
C145 C144 1.399 . S
C145 C146 1.381 . S
C146 H138 0.930 . S
C146 C142 1.390 . S
C146 C145 1.381 . S
N147 C140 1.286 . S
N147 C143 1.413 . S
H148 C153 0.930 . S
H149 C156 0.930 . S
H150 C158 0.930 . S
H151 C152 1.016 . S
C152 H151 1.016 . S
C152 N159 1.286 . S
C153 H148 0.930 . S
C153 C154 1.397 . S
C153 C155 1.361 . S
C154 C153 1.397 . S
C154 C158 1.390 . S
C155 C153 1.361 . S
C155 C156 1.393 . S
C155 N159 1.413 . S
C156 H149 0.930 . S
C156 C155 1.393 . S
C156 C157 1.399 . S
C157 C156 1.399 . S
C157 C158 1.381 . S
C158 H150 0.930 . S
C158 C154 1.390 . S
C158 C157 1.381 . S
N159 C152 1.286 . S
N159 C155 1.413 . S
H160 C165 0.930 . S
H161 C168 0.930 . S
H162 C170 0.930 . S
H163 C164 1.016 . S
C164 H163 1.016 . S
C164 N171 1.286 . S
C165 H160 0.930 . S
C165 C166 1.397 . S
C165 C167 1.361 . S
C166 C165 1.397 . S
C166 C170 1.390 . S
C167 C165 1.361 . S
C167 C168 1.393 . S
C167 N171 1.413 . S
C168 H161 0.930 . S
C168 C167 1.393 . S
C168 C169 1.399 . S
C169 C168 1.399 . S
C169 C170 1.381 . S
C170 H162 0.930 . S
C170 C166 1.390 . S
C170 C169 1.381 . S
N171 C164 1.286 . S
N171 C167 1.413 . S
H172 C177 0.930 . S
H173 C180 0.930 . S
H174 C182 0.930 . S
H175 C176 1.016 . S
C176 H175 1.016 . S
C176 N183 1.286 . S
C177 H172 0.930 . S
C177 C178 1.397 . S
C177 C179 1.361 . S
C178 C177 1.397 . S
C178 C182 1.390 . S
C179 C177 1.361 . S
C179 C180 1.393 . S
C179 N183 1.413 . S
C180 H173 0.930 . S
C180 C179 1.393 . S
C180 C181 1.399 . S
C181 C180 1.399 . S
C181 C182 1.381 . S
C182 H174 0.930 . S
C182 C178 1.390 . S
C182 C181 1.381 . S
N183 C176 1.286 . S
N183 C179 1.413 . S
C184 C185 1.349 . S
C184 C186 1.327 . S
C184 H209 0.950 . S
C185 C184 1.349 . S
C185 C201 1.349 . S
C186 C184 1.327 . S
C186 C205 1.429 . S
C186 H210 0.950 . S
C187 C204 1.574 . S
C187 C206 1.368 . S
C187 H211 0.949 1_545 S
H188 C192 0.949 . S
C189 C190 1.349 . S
C189 C191 1.327 . S
C189 H212 0.950 . S
C190 C189 1.349 . S
C190 C202 1.349 . S
C191 C189 1.327 . S
C191 C207 1.429 . S
C191 H213 0.950 . S
C192 H188 0.949 . S
C192 C200 1.574 . S
C192 C208 1.368 . S
H193 C201 0.950 . S
H194 C199 0.950 . S
H195 C200 0.949 . S
H196 C202 0.950 . S
H197 C203 0.950 . S
H198 C204 0.949 . S
C199 H194 0.950 . S
C199 C201 1.327 . S
C199 C205 1.429 . S
C200 C192 1.574 . S
C200 H195 0.949 . S
C200 C206 1.368 . S
C201 C185 1.349 . S
C201 H193 0.950 . S
C201 C199 1.327 . S
C202 C190 1.349 . S
C202 H196 0.950 . S
C202 C203 1.327 . S
C203 H197 0.950 . S
C203 C202 1.327 . S
C203 C207 1.429 . S
C204 C187 1.574 . S
C204 H198 0.949 . S
C204 C208 1.368 . S
C205 C186 1.429 . S
C205 C199 1.429 . S
C205 C206 1.523 1_565 S
C206 C187 1.368 . S
C206 C200 1.368 . S
C206 C205 1.523 1_545 S
C207 C191 1.429 . S
C207 C203 1.429 . S
C207 C208 1.523 . S
C208 C192 1.368 . S
C208 C204 1.368 . S
C208 C207 1.523 . S
H209 C184 0.950 . S
H210 C186 0.950 . S
H211 C187 0.949 1_565 S
H212 C189 0.950 . S
H213 C191 0.950 . S
C214 C215 1.349 . S
C214 C216 1.327 . S
C214 H239 0.950 . S
C215 C214 1.349 . S
C215 C231 1.349 . S
C216 C214 1.327 . S
C216 C235 1.429 . S
C216 H240 0.950 . S
C217 C234 1.574 . S
C217 C236 1.368 . S
C217 H241 0.949 . S
H218 C222 0.949 . S
C219 C220 1.349 . S
C219 C221 1.327 . S
C219 H242 0.950 . S
C220 C219 1.349 . S
C220 C232 1.349 . S
C221 C219 1.327 . S
C221 C237 1.429 . S
C221 H243 0.950 . S
C222 H218 0.949 . S
C222 C230 1.574 . S
C222 C238 1.368 . S
H223 C231 0.950 . S
H224 C229 0.950 . S
H225 C230 0.949 . S
H226 C232 0.950 . S
H227 C233 0.950 . S
H228 C234 0.949 . S
C229 H224 0.950 . S
C229 C231 1.327 . S
C229 C235 1.429 . S
C230 C222 1.574 . S
C230 H225 0.949 . S
C230 C236 1.368 . S
C231 C215 1.349 . S
C231 H223 0.950 . S
C231 C229 1.327 . S
C232 C220 1.349 . S
C232 H226 0.950 . S
C232 C233 1.327 . S
C233 H227 0.950 . S
C233 C232 1.327 . S
C233 C237 1.429 . S
C234 C217 1.574 . S
C234 H228 0.949 . S
C234 C238 1.368 . S
C235 C216 1.429 . S
C235 C229 1.429 . S
C235 C236 1.523 . S
C236 C217 1.368 . S
C236 C230 1.368 . S
C236 C235 1.523 . S
C237 C221 1.429 . S
C237 C233 1.429 . S
C237 C238 1.523 . S
C238 C222 1.368 . S
C238 C234 1.368 . S
C238 C237 1.523 . S
H239 C214 0.950 . S
H240 C216 0.950 . S
H241 C217 0.949 . S
H242 C219 0.950 . S
H243 C221 0.950 . S
C244 C245 1.349 . S
C244 C246 1.327 . S
C244 H269 0.950 . S
C245 C244 1.349 . S
C245 C261 1.349 . S
C246 C244 1.327 . S
C246 C265 1.429 . S
C246 H270 0.950 . S
C247 C264 1.574 . S
C247 C266 1.357 1_565 S
C247 H271 0.949 . S
H248 C252 0.949 . S
C249 C250 1.349 . S
C249 C251 1.327 . S
C249 H272 0.950 . S
C250 C249 1.349 . S
C250 C262 1.349 . S
C251 C249 1.327 . S
C251 C267 1.429 . S
C251 H273 0.950 . S
C252 H248 0.949 . S
C252 C260 1.574 1_565 S
C252 C268 1.368 . S
H253 C261 0.950 . S
H254 C259 0.950 . S
H255 C260 0.949 . S
H256 C262 0.950 . S
H257 C263 0.950 . S
H258 C264 0.949 . S
C259 H254 0.950 . S
C259 C261 1.327 . S
C259 C265 1.429 . S
C260 C252 1.574 1_545 S
C260 H255 0.949 . S
C260 C266 1.372 . S
C261 C245 1.349 . S
C261 H253 0.950 . S
C261 C259 1.327 . S
C262 C250 1.349 . S
C262 H256 0.950 . S
C262 C263 1.327 . S
C263 H257 0.950 . S
C263 C262 1.327 . S
C263 C267 1.429 . S
C264 C247 1.574 . S
C264 H258 0.949 . S
C264 C268 1.368 . S
C265 C246 1.429 . S
C265 C259 1.429 . S
C265 C266 1.533 . S
C266 C247 1.357 1_545 S
C266 C260 1.372 . S
C266 C265 1.533 . S
C267 C251 1.429 . S
C267 C263 1.429 . S
C267 C268 1.523 . S
C268 C252 1.368 . S
C268 C264 1.368 . S
C268 C267 1.523 . S
H269 C244 0.950 . S
H270 C246 0.950 . S
H271 C247 0.949 . S
H272 C249 0.950 . S
H273 C251 0.950 . S
C274 C275 1.349 . S
C274 C276 1.327 . S
C274 H299 0.950 . S
C275 C274 1.349 . S
C275 C291 1.349 . S
C276 C274 1.327 . S
C276 C295 1.429 . S
C276 H300 0.950 . S
C277 C294 1.574 . S
C277 C296 1.368 . S
C277 H301 0.949 . S
H278 C282 0.949 . S
C279 C280 1.349 . S
C279 C281 1.327 . S
C279 H302 0.950 . S
C280 C279 1.349 . S
C280 C292 1.349 . S
C281 C279 1.327 . S
C281 C297 1.429 . S
C281 H303 0.950 . S
C282 H278 0.949 . S
C282 C290 1.574 . S
C282 C298 1.368 . S
H283 C291 0.950 . S
H284 C289 0.950 . S
H285 C290 0.949 . S
H286 C292 0.950 . S
H287 C293 0.950 . S
H288 C294 0.949 . S
C289 H284 0.950 . S
C289 C291 1.327 . S
C289 C295 1.429 . S
C290 C282 1.574 . S
C290 H285 0.949 . S
C290 C296 1.368 . S
C291 C275 1.349 . S
C291 H283 0.950 . S
C291 C289 1.327 . S
C292 C280 1.349 . S
C292 H286 0.950 . S
C292 C293 1.327 . S
C293 H287 0.950 . S
C293 C292 1.327 . S
C293 C297 1.429 . S
C294 C277 1.574 . S
C294 H288 0.949 . S
C294 C298 1.368 . S
C295 C276 1.429 . S
C295 C289 1.429 . S
C295 C296 1.523 . S
C296 C277 1.368 . S
C296 C290 1.368 . S
C296 C295 1.523 . S
C297 C281 1.429 . S
C297 C293 1.429 . S
C297 C298 1.523 . S
C298 C282 1.368 . S
C298 C294 1.368 . S
C298 C297 1.523 . S
H299 C274 0.950 . S
H300 C276 0.950 . S
H301 C277 0.949 . S
H302 C279 0.950 . S
H303 C281 0.950 . S
C304 C305 1.349 . S
C304 C306 1.327 . S
C304 H329 0.950 . S
C305 C304 1.349 . S
C305 C321 1.349 . S
C306 C304 1.327 . S
C306 C325 1.429 . S
C306 H330 0.950 . S
C307 C324 1.574 . S
C307 C326 1.368 . S
C307 H331 0.949 . S
H308 C312 0.949 . S
C309 C310 1.349 . S
C309 C311 1.327 . S
C309 H332 0.950 . S
C310 C309 1.349 . S
C310 C322 1.349 . S
C311 C309 1.327 . S
C311 C327 1.429 . S
C311 H333 0.950 . S
C312 H308 0.949 . S
C312 C320 1.574 . S
C312 C328 1.368 . S
H313 C321 0.950 . S
H314 C319 0.950 . S
H315 C320 0.949 . S
H316 C322 0.950 . S
H317 C323 0.950 . S
H318 C324 0.949 . S
C319 H314 0.950 . S
C319 C321 1.327 . S
C319 C325 1.429 . S
C320 C312 1.574 . S
C320 H315 0.949 . S
C320 C326 1.368 . S
C321 C305 1.349 . S
C321 H313 0.950 . S
C321 C319 1.327 . S
C322 C310 1.349 . S
C322 H316 0.950 . S
C322 C323 1.327 . S
C323 H317 0.950 . S
C323 C322 1.327 . S
C323 C327 1.429 . S
C324 C307 1.574 . S
C324 H318 0.949 . S
C324 C328 1.368 . S
C325 C306 1.429 . S
C325 C319 1.429 . S
C325 C326 1.523 . S
C326 C307 1.368 . S
C326 C320 1.368 . S
C326 C325 1.523 . S
C327 C311 1.429 . S
C327 C323 1.429 . S
C327 C328 1.523 . S
C328 C312 1.368 . S
C328 C324 1.368 . S
C328 C327 1.523 . S
H329 C304 0.950 . S
H330 C306 0.950 . S
H331 C307 0.949 . S
H332 C309 0.950 . S
H333 C311 0.950 . S
C334 C335 1.349 . S
C334 C336 1.327 . S
C334 H359 0.950 . S
C335 C334 1.349 . S
C335 C351 1.349 . S
C336 C334 1.327 . S
C336 C355 1.429 . S
C336 H360 0.950 . S
C337 C354 1.574 . S
C337 C356 1.368 . S
C337 H361 0.949 . S
H338 C342 0.949 . S
C339 C340 1.349 . S
C339 C341 1.327 . S
C339 H362 0.950 . S
C340 C339 1.349 . S
C340 C352 1.349 . S
C341 C339 1.327 . S
C341 C357 1.429 . S
C341 H363 0.950 . S
C342 H338 0.949 . S
C342 C350 1.574 . S
C342 C358 1.368 . S
H343 C351 0.950 . S
H344 C349 0.950 . S
H345 C350 0.949 . S
H346 C352 0.950 . S
H347 C353 0.950 1_655 S
H348 C354 0.949 1_455 S
C349 H344 0.950 . S
C349 C351 1.327 . S
C349 C355 1.429 . S
C350 C342 1.574 . S
C350 H345 0.949 . S
C350 C356 1.368 . S
C351 C335 1.349 . S
C351 H343 0.950 . S
C351 C349 1.327 . S
C352 C340 1.349 . S
C352 H346 0.950 . S
C352 C353 1.327 . S
C353 H347 0.950 1_455 S
C353 C352 1.327 . S
C353 C357 1.429 . S
C354 C337 1.574 . S
C354 H348 0.949 1_655 S
C354 C358 1.368 . S
C355 C336 1.429 . S
C355 C349 1.429 . S
C355 C356 1.523 . S
C356 C337 1.368 . S
C356 C350 1.368 . S
C356 C355 1.523 . S
C357 C341 1.429 . S
C357 C353 1.429 . S
C357 C358 1.523 1_455 S
C358 C342 1.368 . S
C358 C354 1.368 . S
C358 C357 1.523 1_655 S
H359 C334 0.950 . S
H360 C336 0.950 . S
H361 C337 0.949 . S
H362 C339 0.950 . S
H363 C341 0.950 . S
C364 C365 1.349 . S
C364 C366 1.327 . S
C364 H389 0.950 . S
C365 C364 1.349 . S
C365 C381 1.349 . S
C366 C364 1.327 . S
C366 C385 1.429 . S
C366 H390 0.950 . S
C367 C384 1.574 . S
C367 C386 1.368 . S
C367 H391 0.949 . S
H368 C372 0.949 . S
C369 C370 1.349 . S
C369 C371 1.327 . S
C369 H392 0.950 . S
C370 C369 1.349 . S
C370 C382 1.349 . S
C371 C369 1.327 . S
C371 C387 1.429 . S
C371 H393 0.950 . S
C372 H368 0.949 . S
C372 C380 1.574 . S
C372 C388 1.368 . S
H373 C381 0.950 . S
H374 C379 0.950 . S
H375 C380 0.949 . S
H376 C382 0.950 . S
H377 C383 0.950 . S
H378 C384 0.949 . S
C379 H374 0.950 . S
C379 C381 1.327 . S
C379 C385 1.429 . S
C380 C372 1.574 . S
C380 H375 0.949 . S
C380 C386 1.368 . S
C381 C365 1.349 . S
C381 H373 0.950 . S
C381 C379 1.327 . S
C382 C370 1.349 . S
C382 H376 0.950 . S
C382 C383 1.327 . S
C383 H377 0.950 . S
C383 C382 1.327 . S
C383 C387 1.429 . S
C384 C367 1.574 . S
C384 H378 0.949 . S
C384 C388 1.368 . S
C385 C366 1.429 . S
C385 C379 1.429 . S
C385 C386 1.523 . S
C386 C367 1.368 . S
C386 C380 1.368 . S
C386 C385 1.523 . S
C387 C371 1.429 . S
C387 C383 1.429 . S
C387 C388 1.523 . S
C388 C372 1.368 . S
C388 C384 1.368 . S
C388 C387 1.523 . S
H389 C364 0.950 . S
H390 C366 0.950 . S
H391 C367 0.949 . S
H392 C369 0.950 . S
H393 C371 0.950 . S
C394 C395 1.349 . S
C394 C396 1.327 . S
C394 H419 0.950 . S
C395 C394 1.349 . S
C395 C411 1.349 . S
C396 C394 1.327 . S
C396 C415 1.429 . S
C396 H420 0.965 . S
C397 C414 1.574 . S
C397 C416 1.368 . S
C397 H421 0.949 . S
H398 C402 0.949 . S
C399 C400 1.349 . S
C399 C401 1.327 . S
C399 H422 0.950 . S
C400 C399 1.349 . S
C400 C412 1.349 . S
C401 C399 1.327 . S
C401 C417 1.429 . S
C401 H423 0.950 . S
C402 H398 0.949 . S
C402 C410 1.574 . S
C402 C418 1.368 . S
H403 C411 0.950 . S
H404 C409 0.950 . S
H405 C410 0.949 . S
H406 C412 0.950 . S
H407 C413 0.950 . S
H408 C414 0.949 . S
C409 H404 0.950 . S
C409 C411 1.327 . S
C409 C415 1.429 . S
C410 C402 1.574 . S
C410 H405 0.949 . S
C410 C416 1.368 . S
C411 C395 1.349 . S
C411 H403 0.950 . S
C411 C409 1.327 . S
C412 C400 1.349 . S
C412 H406 0.950 . S
C412 C413 1.327 . S
C413 H407 0.950 . S
C413 C412 1.327 . S
C413 C417 1.429 . S
C414 C397 1.574 . S
C414 H408 0.949 . S
C414 C418 1.368 . S
C415 C396 1.429 . S
C415 C409 1.429 . S
C415 C416 1.523 1_455 S
C416 C397 1.368 . S
C416 C410 1.368 . S
C416 C415 1.523 1_655 S
C417 C401 1.429 . S
C417 C413 1.429 . S
C417 C418 1.523 . S
C418 C402 1.368 . S
C418 C414 1.368 . S
C418 C417 1.523 . S
H419 C394 0.950 . S
H420 C396 0.965 . S
H421 C397 0.949 . S
H422 C399 0.950 . S
H423 C401 0.950 . S
C424 C425 1.349 . S
C424 C426 1.327 . S
C424 H449 0.950 . S
C425 C424 1.349 . S
C425 C441 1.349 1_556 S
C426 C424 1.327 . S
C426 C445 1.429 . S
C426 H450 0.950 . S
C427 C444 1.574 . S
C427 C446 1.368 . S
C427 H451 0.949 . S
H428 C432 0.949 . S
C429 C430 1.349 . S
C429 C431 1.327 . S
C429 H452 0.950 . S
C430 C429 1.349 . S
C430 C442 1.349 . S
C431 C429 1.327 . S
C431 C447 1.429 . S
C431 H453 0.950 . S
C432 H428 0.949 . S
C432 C440 1.576 . S
C432 C448 1.368 . S
H433 C441 0.950 . S
H434 C439 0.950 . S
H435 C440 0.947 1_545 S
H436 C442 0.950 . S
H437 C443 0.950 . S
H438 C444 0.949 . S
C439 H434 0.950 . S
C439 C441 1.327 1_556 S
C439 C445 1.429 . S
C440 C432 1.576 . S
C440 H435 0.947 1_565 S
C440 C446 1.369 . S
C441 C425 1.349 1_554 S
C441 H433 0.950 . S
C441 C439 1.327 1_554 S
C442 C430 1.349 . S
C442 H436 0.950 . S
C442 C443 1.327 . S
C443 H437 0.950 . S
C443 C442 1.327 . S
C443 C447 1.429 . S
C444 C427 1.574 . S
C444 H438 0.949 . S
C444 C448 1.368 . S
C445 C426 1.429 . S
C445 C439 1.429 . S
C445 C446 1.523 1_545 S
C446 C427 1.368 . S
C446 C440 1.369 . S
C446 C445 1.523 1_565 S
C447 C431 1.429 . S
C447 C443 1.429 . S
C447 C448 1.523 . S
C448 C432 1.368 . S
C448 C444 1.368 . S
C448 C447 1.523 . S
H449 C424 0.950 . S
H450 C426 0.950 . S
H451 C427 0.949 . S
H452 C429 0.950 . S
H453 C431 0.950 . S
C454 C455 1.349 . S
C454 C456 1.327 . S
C454 H479 0.950 . S
C455 C454 1.349 . S
C455 C471 1.349 . S
C456 C454 1.327 . S
C456 C475 1.429 . S
C456 H480 0.950 . S
C457 C474 1.574 . S
C457 C476 1.368 . S
C457 H481 0.949 . S
H458 C462 0.949 . S
C459 C460 1.349 . S
C459 C461 1.327 . S
C459 H482 0.950 . S
C460 C459 1.349 . S
C460 C472 1.349 . S
C461 C459 1.327 . S
C461 C477 1.429 . S
C461 H483 0.950 . S
C462 H458 0.949 . S
C462 C470 1.574 . S
C462 C478 1.368 . S
H463 C471 0.950 . S
H464 C469 0.950 . S
H465 C470 0.949 . S
H466 C472 0.950 . S
H467 C473 0.950 . S
H468 C474 0.949 . S
C469 H464 0.950 . S
C469 C471 1.327 . S
C469 C475 1.429 . S
C470 C462 1.574 . S
C470 H465 0.949 . S
C470 C476 1.368 . S
C471 C455 1.349 . S
C471 H463 0.950 . S
C471 C469 1.327 . S
C472 C460 1.349 . S
C472 H466 0.950 . S
C472 C473 1.327 . S
C473 H467 0.950 . S
C473 C472 1.327 . S
C473 C477 1.429 . S
C474 C457 1.574 . S
C474 H468 0.949 . S
C474 C478 1.368 . S
C475 C456 1.429 . S
C475 C469 1.429 . S
C475 C476 1.523 . S
C476 C457 1.368 . S
C476 C470 1.368 . S
C476 C475 1.523 . S
C477 C461 1.429 . S
C477 C473 1.429 . S
C477 C478 1.523 . S
C478 C462 1.368 . S
C478 C474 1.368 . S
C478 C477 1.523 . S
H479 C454 0.950 . S
H480 C456 0.950 . S
H481 C457 0.949 . S
H482 C459 0.950 . S
H483 C461 0.950 . S
C484 C485 1.349 . S
C484 C486 1.327 . S
C484 H509 0.950 . S
C485 C484 1.349 . S
C485 C501 1.349 . S
C486 C484 1.327 . S
C486 C505 1.429 . S
C486 H510 0.950 . S
C487 C504 1.574 . S
C487 C506 1.368 . S
C487 H511 0.949 . S
H488 C492 0.949 . S
C489 C490 1.349 . S
C489 C491 1.327 . S
C489 H512 0.950 . S
C490 C489 1.349 . S
C490 C502 1.349 . S
C491 C489 1.327 . S
C491 C507 1.429 . S
C491 H513 0.950 . S
C492 H488 0.949 . S
C492 C500 1.574 1_545 S
C492 C508 1.368 . S
H493 C501 0.950 . S
H494 C499 0.950 . S
H495 C500 0.949 . S
H496 C502 0.950 . S
H497 C503 0.950 . S
H498 C504 0.949 . S
C499 H494 0.950 . S
C499 C501 1.327 . S
C499 C505 1.429 . S
C500 C492 1.574 1_565 S
C500 H495 0.949 . S
C500 C506 1.368 1_565 S
C501 C485 1.349 . S
C501 H493 0.950 . S
C501 C499 1.327 . S
C502 C490 1.349 . S
C502 H496 0.950 . S
C502 C503 1.327 . S
C503 H497 0.950 . S
C503 C502 1.327 . S
C503 C507 1.429 . S
C504 C487 1.574 . S
C504 H498 0.949 . S
C504 C508 1.368 . S
C505 C486 1.429 . S
C505 C499 1.429 . S
C505 C506 1.523 1_565 S
C506 C487 1.368 . S
C506 C500 1.368 1_545 S
C506 C505 1.523 1_545 S
C507 C491 1.429 . S
C507 C503 1.429 . S
C507 C508 1.523 . S
C508 C492 1.368 . S
C508 C504 1.368 . S
C508 C507 1.523 . S
H509 C484 0.950 . S
H510 C486 0.950 . S
H511 C487 0.949 . S
H512 C489 0.950 . S
H513 C491 0.950 . S
C514 C515 1.349 . S
C514 C516 1.327 . S
C514 H539 0.950 . S
C515 C514 1.349 . S
C515 C531 1.349 . S
C516 C514 1.327 . S
C516 C535 1.429 . S
C516 H540 0.950 . S
C517 C534 1.574 . S
C517 C536 1.368 . S
C517 H541 0.949 . S
H518 C522 0.949 . S
C519 C520 1.349 . S
C519 C521 1.327 . S
C519 H542 0.950 . S
C520 C519 1.349 . S
C520 C532 1.349 . S
C521 C519 1.327 . S
C521 C537 1.429 . S
C521 H543 0.950 . S
C522 H518 0.949 . S
C522 C530 1.574 . S
C522 C538 1.368 . S
H523 C531 0.950 . S
H524 C529 0.950 . S
H525 C530 0.949 . S
H526 C532 0.950 . S
H527 C533 0.950 . S
H528 C534 0.949 . S
C529 H524 0.950 . S
C529 C531 1.327 . S
C529 C535 1.429 . S
C530 C522 1.574 . S
C530 H525 0.949 . S
C530 C536 1.368 . S
C531 C515 1.349 . S
C531 H523 0.950 . S
C531 C529 1.327 . S
C532 C520 1.349 . S
C532 H526 0.950 . S
C532 C533 1.327 . S
C533 H527 0.950 . S
C533 C532 1.327 . S
C533 C537 1.429 . S
C534 C517 1.574 . S
C534 H528 0.949 . S
C534 C538 1.368 . S
C535 C516 1.429 . S
C535 C529 1.429 . S
C535 C536 1.523 . S
C536 C517 1.368 . S
C536 C530 1.368 . S
C536 C535 1.523 . S
C537 C521 1.429 . S
C537 C533 1.429 . S
C537 C538 1.523 . S
C538 C522 1.368 . S
C538 C534 1.368 . S
C538 C537 1.523 . S
H539 C514 0.950 . S
H540 C516 0.950 . S
H541 C517 0.949 . S
H542 C519 0.950 . S
H543 C521 0.950 . S
C544 C545 1.349 . S
C544 C546 1.327 . S
C544 H569 0.950 . S
C545 C544 1.349 . S
C545 C561 1.349 . S
C546 C544 1.327 . S
C546 C565 1.429 . S
C546 H570 0.950 . S
C547 C564 1.574 . S
C547 C566 1.368 . S
C547 H571 0.949 . S
H548 C552 0.949 . S
C549 C550 1.349 . S
C549 C551 1.327 . S
C549 H572 0.950 . S
C550 C549 1.349 . S
C550 C562 1.349 . S
C551 C549 1.327 . S
C551 C567 1.429 . S
C551 H573 0.950 . S
C552 H548 0.949 . S
C552 C560 1.574 . S
C552 C568 1.368 . S
H553 C561 0.950 . S
H554 C559 0.950 . S
H555 C560 0.949 . S
H556 C562 0.950 . S
H557 C563 0.950 . S
H558 C564 0.949 . S
C559 H554 0.950 . S
C559 C561 1.327 . S
C559 C565 1.429 . S
C560 C552 1.574 . S
C560 H555 0.949 . S
C560 C566 1.368 . S
C561 C545 1.349 . S
C561 H553 0.950 . S
C561 C559 1.327 . S
C562 C550 1.349 . S
C562 H556 0.950 . S
C562 C563 1.327 . S
C563 H557 0.950 . S
C563 C562 1.327 . S
C563 C567 1.429 . S
C564 C547 1.574 . S
C564 H558 0.949 . S
C564 C568 1.368 . S
C565 C546 1.429 . S
C565 C559 1.429 . S
C565 C566 1.523 . S
C566 C547 1.368 . S
C566 C560 1.368 . S
C566 C565 1.523 . S
C567 C551 1.429 . S
C567 C563 1.429 . S
C567 C568 1.523 . S
C568 C552 1.368 . S
C568 C564 1.368 . S
C568 C567 1.523 . S
H569 C544 0.950 . S
H570 C546 0.950 . S
H571 C547 0.949 . S
H572 C549 0.950 . S
H573 C551 0.950 . S
C574 C575 1.349 . S
C574 C576 1.327 . S
C574 H599 0.950 . S
C575 C574 1.349 . S
C575 C591 1.349 . S
C576 C574 1.327 . S
C576 C595 1.429 . S
C576 H600 0.950 . S
C577 C594 1.574 . S
C577 C596 1.368 . S
C577 H601 0.949 . S
H578 C582 0.949 . S
C579 C580 1.349 . S
C579 C581 1.327 . S
C579 H602 0.950 . S
C580 C579 1.349 . S
C580 C592 1.349 . S
C581 C579 1.327 . S
C581 C597 1.429 . S
C581 H603 0.950 . S
C582 H578 0.949 . S
C582 C590 1.574 . S
C582 C598 1.368 . S
H583 C591 0.950 . S
H584 C589 0.950 . S
H585 C590 0.949 . S
H586 C592 0.950 . S
H587 C593 0.950 . S
H588 C594 0.949 1_655 S
C589 H584 0.950 . S
C589 C591 1.327 . S
C589 C595 1.429 . S
C590 C582 1.574 . S
C590 H585 0.949 . S
C590 C596 1.368 . S
C591 C575 1.349 . S
C591 H583 0.950 . S
C591 C589 1.327 . S
C592 C580 1.349 . S
C592 H586 0.950 . S
C592 C593 1.327 . S
C593 H587 0.950 . S
C593 C592 1.327 . S
C593 C597 1.429 . S
C594 C577 1.574 . S
C594 H588 0.949 1_455 S
C594 C598 1.368 . S
C595 C576 1.429 . S
C595 C589 1.429 . S
C595 C596 1.523 . S
C596 C577 1.368 . S
C596 C590 1.368 . S
C596 C595 1.523 . S
C597 C581 1.429 . S
C597 C593 1.429 . S
C597 C598 1.523 1_655 S
C598 C582 1.368 . S
C598 C594 1.368 . S
C598 C597 1.523 1_455 S
H599 C574 0.950 . S
H600 C576 0.950 . S
H601 C577 0.949 . S
H602 C579 0.950 . S
H603 C581 0.950 . S
C604 C605 1.349 . S
C604 C606 1.327 . S
C604 H629 0.950 . S
C605 C604 1.349 . S
C605 C621 1.349 . S
C606 C604 1.327 . S
C606 C625 1.429 . S
C606 H630 0.950 . S
C607 C624 1.574 . S
C607 C626 1.368 . S
C607 H631 0.949 . S
H608 C612 0.949 . S
C609 C610 1.349 . S
C609 C611 1.327 . S
C609 H632 0.950 . S
C610 C609 1.349 . S
C610 C622 1.349 . S
C611 C609 1.327 . S
C611 C627 1.429 . S
C611 H633 0.950 . S
C612 H608 0.949 . S
C612 C620 1.574 . S
C612 C628 1.368 . S
H613 C621 0.950 . S
H614 C619 0.950 . S
H615 C620 0.949 . S
H616 C622 0.950 . S
H617 C623 0.950 . S
H618 C624 0.949 . S
C619 H614 0.950 . S
C619 C621 1.327 . S
C619 C625 1.429 . S
C620 C612 1.574 . S
C620 H615 0.949 . S
C620 C626 1.368 . S
C621 C605 1.349 . S
C621 H613 0.950 . S
C621 C619 1.327 . S
C622 C610 1.349 . S
C622 H616 0.950 . S
C622 C623 1.327 . S
C623 H617 0.950 . S
C623 C622 1.327 . S
C623 C627 1.429 . S
C624 C607 1.574 . S
C624 H618 0.949 . S
C624 C628 1.368 . S
C625 C606 1.429 . S
C625 C619 1.429 . S
C625 C626 1.523 . S
C626 C607 1.368 . S
C626 C620 1.368 . S
C626 C625 1.523 . S
C627 C611 1.429 . S
C627 C623 1.429 . S
C627 C628 1.523 . S
C628 C612 1.368 . S
C628 C624 1.368 . S
C628 C627 1.523 . S
H629 C604 0.950 . S
H630 C606 0.950 . S
H631 C607 0.949 . S
H632 C609 0.950 . S
H633 C611 0.950 . S
C634 C635 1.349 . S
C634 C636 1.327 . S
C634 H659 0.950 . S
C635 C634 1.349 . S
C635 C651 1.349 . S
C636 C634 1.327 . S
C636 C655 1.429 . S
C636 H660 0.950 . S
C637 C654 1.574 . S
C637 C656 1.368 . S
C637 H661 0.949 . S
H638 C642 0.949 . S
C639 C640 1.349 . S
C639 C641 1.327 . S
C639 H662 0.950 . S
C640 C639 1.349 . S
C640 C652 1.349 . S
C641 C639 1.327 . S
C641 C657 1.429 . S
C641 H663 0.950 . S
C642 H638 0.949 . S
C642 C650 1.574 . S
C642 C658 1.368 . S
H643 C651 0.950 . S
H644 C649 0.950 . S
H645 C650 0.949 . S
H646 C652 0.950 . S
H647 C653 0.950 . S
H648 C654 0.949 . S
C649 H644 0.950 . S
C649 C651 1.327 . S
C649 C655 1.429 . S
C650 C642 1.574 . S
C650 H645 0.949 . S
C650 C656 1.368 . S
C651 C635 1.349 . S
C651 H643 0.950 . S
C651 C649 1.327 . S
C652 C640 1.349 . S
C652 H646 0.950 . S
C652 C653 1.327 . S
C653 H647 0.950 . S
C653 C652 1.327 . S
C653 C657 1.429 . S
C654 C637 1.574 . S
C654 H648 0.949 . S
C654 C658 1.368 . S
C655 C636 1.429 . S
C655 C649 1.429 . S
C655 C656 1.523 1_655 S
C656 C637 1.368 . S
C656 C650 1.368 . S
C656 C655 1.523 1_455 S
C657 C641 1.429 . S
C657 C653 1.429 . S
C657 C658 1.523 . S
C658 C642 1.368 . S
C658 C654 1.368 . S
C658 C657 1.523 . S
H659 C634 0.950 . S
H660 C636 0.950 . S
H661 C637 0.949 . S
H662 C639 0.950 . S
H663 C641 0.950 . S
C664 C665 1.349 . S
C664 C666 1.327 . S
C664 H689 0.950 . S
C665 C664 1.349 . S
C665 C681 1.349 . S
C666 C664 1.327 . S
C666 C685 1.429 . S
C666 H690 0.950 . S
C667 C684 1.574 . S
C667 C686 1.368 . S
C667 H691 0.949 . S
H668 C672 0.949 . S
C669 C670 1.349 . S
C669 C671 1.327 . S
C669 H692 0.950 . S
C670 C669 1.349 . S
C670 C682 1.349 . S
C671 C669 1.327 . S
C671 C687 1.429 . S
C671 H693 0.950 . S
C672 H668 0.949 . S
C672 C680 1.574 . S
C672 C688 1.368 . S
H673 C681 0.950 . S
H674 C679 0.950 . S
H675 C680 0.949 . S
H676 C682 0.950 . S
H677 C683 0.950 . S
H678 C684 0.949 . S
C679 H674 0.950 . S
C679 C681 1.327 . S
C679 C685 1.429 . S
C680 C672 1.574 . S
C680 H675 0.949 . S
C680 C686 1.368 . S
C681 C665 1.349 . S
C681 H673 0.950 . S
C681 C679 1.327 . S
C682 C670 1.349 . S
C682 H676 0.950 . S
C682 C683 1.327 . S
C683 H677 0.950 . S
C683 C682 1.327 . S
C683 C687 1.429 . S
C684 C667 1.574 . S
C684 H678 0.949 . S
C684 C688 1.368 . S
C685 C666 1.429 . S
C685 C679 1.429 . S
C685 C686 1.523 . S
C686 C667 1.368 . S
C686 C680 1.368 . S
C686 C685 1.523 . S
C687 C671 1.429 . S
C687 C683 1.429 . S
C687 C688 1.523 . S
C688 C672 1.368 . S
C688 C684 1.368 . S
C688 C687 1.523 . S
H689 C664 0.950 . S
H690 C666 0.950 . S
H691 C667 0.949 . S
H692 C669 0.950 . S
H693 C671 0.950 . S
C694 C695 1.349 . S
C694 C696 1.327 . S
C694 H719 0.950 . S
C695 C694 1.349 . S
C695 C711 1.349 . S
C696 C694 1.327 . S
C696 C715 1.429 . S
C696 H720 0.950 . S
C697 C714 1.574 . S
C697 C716 1.368 . S
C697 H721 0.949 . S
H698 C702 0.949 . S
C699 C700 1.349 . S
C699 C701 1.327 . S
C699 H722 0.950 . S
C700 C699 1.349 . S
C700 C712 1.349 . S
C701 C699 1.327 . S
C701 C717 1.429 . S
C701 H723 0.950 . S
C702 H698 0.949 . S
C702 C710 1.574 . S
C702 C718 1.368 . S
H703 C711 0.950 . S
H704 C709 0.950 . S
H705 C710 0.949 . S
H706 C712 0.950 . S
H707 C713 0.950 . S
H708 C714 0.949 . S
C709 H704 0.950 . S
C709 C711 1.327 . S
C709 C715 1.429 . S
C710 C702 1.574 . S
C710 H705 0.949 . S
C710 C716 1.368 . S
C711 C695 1.349 . S
C711 H703 0.950 . S
C711 C709 1.327 . S
C712 C700 1.349 . S
C712 H706 0.950 . S
C712 C713 1.327 . S
C713 H707 0.950 . S
C713 C712 1.327 . S
C713 C717 1.429 . S
C714 C697 1.574 . S
C714 H708 0.949 . S
C714 C718 1.368 . S
C715 C696 1.429 . S
C715 C709 1.429 . S
C715 C716 1.523 . S
C716 C697 1.368 . S
C716 C710 1.368 . S
C716 C715 1.523 . S
C717 C701 1.429 . S
C717 C713 1.429 . S
C717 C718 1.523 . S
C718 C702 1.368 . S
C718 C714 1.368 . S
C718 C717 1.523 . S
H719 C694 0.950 . S
H720 C696 0.950 . S
H721 C697 0.949 . S
H722 C699 0.950 . S
H723 C701 0.950 . S
C724 C725 1.349 . S
C724 C726 1.327 . S
C724 H749 0.950 . S
C725 C724 1.349 . S
C725 C741 1.349 . S
C726 C724 1.327 . S
C726 C745 1.429 . S
C726 H750 0.950 . S
C727 C744 1.574 . S
C727 C746 1.368 . S
C727 H751 0.949 . S
H728 C732 0.949 . S
C729 C730 1.349 . S
C729 C731 1.327 . S
C729 H752 0.950 . S
C730 C729 1.349 . S
C730 C742 1.349 . S
C731 C729 1.327 . S
C731 C747 1.429 . S
C731 H753 0.950 . S
C732 H728 0.949 . S
C732 C740 1.574 . S
C732 C748 1.368 . S
H733 C741 0.950 . S
H734 C739 0.950 . S
H735 C740 0.949 . S
H736 C742 0.950 . S
H737 C743 0.950 . S
H738 C744 0.949 . S
C739 H734 0.950 . S
C739 C741 1.327 . S
C739 C745 1.429 . S
C740 C732 1.574 . S
C740 H735 0.949 . S
C740 C746 1.368 . S
C741 C725 1.349 . S
C741 H733 0.950 . S
C741 C739 1.327 . S
C742 C730 1.349 . S
C742 H736 0.950 . S
C742 C743 1.327 . S
C743 H737 0.950 . S
C743 C742 1.327 . S
C743 C747 1.429 . S
C744 C727 1.574 . S
C744 H738 0.949 . S
C744 C748 1.368 . S
C745 C726 1.429 . S
C745 C739 1.429 . S
C745 C746 1.523 . S
C746 C727 1.368 . S
C746 C740 1.368 . S
C746 C745 1.523 . S
C747 C731 1.429 . S
C747 C743 1.429 . S
C747 C748 1.523 . S
C748 C732 1.368 . S
C748 C744 1.368 . S
C748 C747 1.523 . S
H749 C724 0.950 . S
H750 C726 0.950 . S
H751 C727 0.949 . S
H752 C729 0.950 . S
H753 C731 0.950 . S
C754 C755 1.349 . S
C754 C756 1.327 . S
C754 H779 0.950 . S
C755 C754 1.349 . S
C755 C771 1.349 . S
C756 C754 1.327 . S
C756 C775 1.429 . S
C756 H780 0.950 . S
C757 C774 1.574 . S
C757 C776 1.368 . S
C757 H781 0.949 . S
H758 C762 0.949 . S
C759 C760 1.349 . S
C759 C761 1.327 . S
C759 H782 0.950 . S
C760 C759 1.349 . S
C760 C772 1.349 . S
C761 C759 1.327 . S
C761 C777 1.429 . S
C761 H783 0.950 . S
C762 H758 0.949 . S
C762 C770 1.574 . S
C762 C778 1.368 . S
H763 C771 0.950 . S
H764 C769 0.950 . S
H765 C770 0.949 . S
H766 C772 0.950 . S
H767 C773 0.950 . S
H768 C774 0.949 . S
C769 H764 0.950 . S
C769 C771 1.327 . S
C769 C775 1.429 . S
C770 C762 1.574 . S
C770 H765 0.949 . S
C770 C776 1.368 . S
C771 C755 1.349 . S
C771 H763 0.950 . S
C771 C769 1.327 . S
C772 C760 1.349 . S
C772 H766 0.950 . S
C772 C773 1.327 . S
C773 H767 0.950 . S
C773 C772 1.327 . S
C773 C777 1.429 . S
C774 C757 1.574 . S
C774 H768 0.949 . S
C774 C778 1.368 . S
C775 C756 1.429 . S
C775 C769 1.429 . S
C775 C776 1.523 . S
C776 C757 1.368 . S
C776 C770 1.368 . S
C776 C775 1.523 . S
C777 C761 1.429 . S
C777 C773 1.429 . S
C777 C778 1.523 . S
C778 C762 1.368 . S
C778 C774 1.368 . S
C778 C777 1.523 . S
H779 C754 0.950 . S
H780 C756 0.950 . S
H781 C757 0.949 . S
H782 C759 0.950 . S
H783 C761 0.950 . S
C784 C785 1.349 . S
C784 C786 1.327 . S
C784 H809 0.950 . S
C785 C784 1.349 . S
C785 C801 1.349 . S
C786 C784 1.327 . S
C786 C805 1.429 . S
C786 H810 0.950 . S
C787 C804 1.574 . S
C787 C806 1.368 . S
C787 H811 0.949 . S
H788 C792 0.949 . S
C789 C790 1.349 . S
C789 C791 1.327 . S
C789 H812 0.950 . S
C790 C789 1.349 . S
C790 C802 1.349 . S
C791 C789 1.327 . S
C791 C807 1.429 . S
C791 H813 0.950 . S
C792 H788 0.949 . S
C792 C800 1.574 . S
C792 C808 1.368 . S
H793 C801 0.950 . S
H794 C799 0.950 . S
H795 C800 0.949 . S
H796 C802 0.950 . S
H797 C803 0.950 . S
H798 C804 0.949 . S
C799 H794 0.950 . S
C799 C801 1.327 . S
C799 C805 1.429 . S
C800 C792 1.574 . S
C800 H795 0.949 . S
C800 C806 1.368 . S
C801 C785 1.349 . S
C801 H793 0.950 . S
C801 C799 1.327 . S
C802 C790 1.349 . S
C802 H796 0.950 . S
C802 C803 1.327 . S
C803 H797 0.950 . S
C803 C802 1.327 . S
C803 C807 1.429 . S
C804 C787 1.574 . S
C804 H798 0.949 . S
C804 C808 1.368 . S
C805 C786 1.429 . S
C805 C799 1.429 . S
C805 C806 1.523 . S
C806 C787 1.368 . S
C806 C800 1.368 . S
C806 C805 1.523 . S
C807 C791 1.429 . S
C807 C803 1.429 . S
C807 C808 1.523 . S
C808 C792 1.368 . S
C808 C804 1.368 . S
C808 C807 1.523 . S
H809 C784 0.950 . S
H810 C786 0.950 . S
H811 C787 0.949 . S
H812 C789 0.950 . S
H813 C791 0.950 . S
C814 C815 1.349 . S
C814 C816 1.327 . S
C814 H839 0.950 . S
C815 C814 1.349 . S
C815 C831 1.349 . S
C816 C814 1.327 . S
C816 C835 1.429 . S
C816 H840 0.950 . S
C817 C834 1.574 . S
C817 C836 1.368 . S
C817 H841 0.949 . S
H818 C822 0.949 . S
C819 C820 1.349 . S
C819 C821 1.327 . S
C819 H842 0.950 . S
C820 C819 1.349 . S
C820 C832 1.349 . S
C821 C819 1.327 . S
C821 C837 1.429 . S
C821 H843 0.950 . S
C822 H818 0.949 . S
C822 C830 1.574 . S
C822 C838 1.368 . S
H823 C831 0.950 . S
H824 C829 0.950 . S
H825 C830 0.949 . S
H826 C832 0.950 . S
H827 C833 0.950 . S
H828 C834 0.949 . S
C829 H824 0.950 . S
C829 C831 1.327 . S
C829 C835 1.429 . S
C830 C822 1.574 . S
C830 H825 0.949 . S
C830 C836 1.368 . S
C831 C815 1.349 . S
C831 H823 0.950 . S
C831 C829 1.327 . S
C832 C820 1.349 . S
C832 H826 0.950 . S
C832 C833 1.327 . S
C833 H827 0.950 . S
C833 C832 1.327 . S
C833 C837 1.429 . S
C834 C817 1.574 . S
C834 H828 0.949 . S
C834 C838 1.368 . S
C835 C816 1.429 . S
C835 C829 1.429 . S
C835 C836 1.523 . S
C836 C817 1.368 . S
C836 C830 1.368 . S
C836 C835 1.523 . S
C837 C821 1.429 . S
C837 C833 1.429 . S
C837 C838 1.523 . S
C838 C822 1.368 . S
C838 C834 1.368 . S
C838 C837 1.523 . S
H839 C814 0.950 . S
H840 C816 0.950 . S
H841 C817 0.949 . S
H842 C819 0.950 . S
H843 C821 0.950 . S
C844 C845 1.349 . S
C844 C846 1.327 . S
C844 H869 0.950 . S
C845 C844 1.349 . S
C845 C861 1.349 . S
C846 C844 1.327 . S
C846 C865 1.429 . S
C846 H870 0.950 . S
C847 C864 1.574 . S
C847 C866 1.368 . S
C847 H871 0.949 . S
H848 C852 0.949 . S
C849 C850 1.349 . S
C849 C851 1.327 . S
C849 H872 0.950 . S
C850 C849 1.349 . S
C850 C862 1.349 . S
C851 C849 1.327 . S
C851 C867 1.429 . S
C851 H873 0.950 . S
C852 H848 0.949 . S
C852 C860 1.574 . S
C852 C868 1.368 . S
H853 C861 0.950 . S
H854 C859 0.950 . S
H855 C860 0.949 . S
H856 C862 0.950 . S
H857 C863 0.950 . S
H858 C864 0.949 . S
C859 H854 0.950 . S
C859 C861 1.327 . S
C859 C865 1.429 . S
C860 C852 1.574 . S
C860 H855 0.949 . S
C860 C866 1.368 . S
C861 C845 1.349 . S
C861 H853 0.950 . S
C861 C859 1.327 . S
C862 C850 1.349 . S
C862 H856 0.950 . S
C862 C863 1.327 . S
C863 H857 0.950 . S
C863 C862 1.327 . S
C863 C867 1.429 . S
C864 C847 1.574 . S
C864 H858 0.949 . S
C864 C868 1.368 . S
C865 C846 1.429 . S
C865 C859 1.429 . S
C865 C866 1.523 . S
C866 C847 1.368 . S
C866 C860 1.368 . S
C866 C865 1.523 . S
C867 C851 1.429 . S
C867 C863 1.429 . S
C867 C868 1.523 . S
C868 C852 1.368 . S
C868 C864 1.368 . S
C868 C867 1.523 . S
H869 C844 0.950 . S
H870 C846 0.950 . S
H871 C847 0.949 . S
H872 C849 0.950 . S
H873 C851 0.950 . S
C874 C875 1.349 . S
C874 C876 1.327 . S
C874 H899 0.950 . S
C875 C874 1.349 . S
C875 C891 1.349 . S
C876 C874 1.327 . S
C876 C895 1.429 . S
C876 H900 0.950 . S
C877 C894 1.574 . S
C877 C896 1.368 . S
C877 H901 0.949 . S
H878 C882 0.949 . S
C879 C880 1.349 . S
C879 C881 1.327 . S
C879 H902 0.950 . S
C880 C879 1.349 . S
C880 C892 1.349 . S
C881 C879 1.327 . S
C881 C897 1.429 . S
C881 H903 0.950 . S
C882 H878 0.949 . S
C882 C890 1.574 . S
C882 C898 1.368 . S
H883 C891 0.950 . S
H884 C889 0.950 . S
H885 C890 0.949 . S
H886 C892 0.950 . S
H887 C893 0.950 . S
H888 C894 0.949 . S
C889 H884 0.950 . S
C889 C891 1.327 . S
C889 C895 1.429 . S
C890 C882 1.574 . S
C890 H885 0.949 . S
C890 C896 1.368 . S
C891 C875 1.349 . S
C891 H883 0.950 . S
C891 C889 1.327 . S
C892 C880 1.349 . S
C892 H886 0.950 . S
C892 C893 1.327 . S
C893 H887 0.950 . S
C893 C892 1.327 . S
C893 C897 1.429 . S
C894 C877 1.574 . S
C894 H888 0.949 . S
C894 C898 1.368 . S
C895 C876 1.429 . S
C895 C889 1.429 . S
C895 C896 1.523 . S
C896 C877 1.368 . S
C896 C890 1.368 . S
C896 C895 1.523 . S
C897 C881 1.429 . S
C897 C893 1.429 . S
C897 C898 1.523 . S
C898 C882 1.368 . S
C898 C894 1.368 . S
C898 C897 1.523 . S
H899 C874 0.950 . S
H900 C876 0.950 . S
H901 C877 0.949 . S
H902 C879 0.950 . S
H903 C881 0.950 . S
C185 C8 1.312 . S
C190 C97 1.268 . S
C215 C31 1.371 . S
C220 C109 1.353 . S
C245 C53 1.324 . S
C250 C121 1.298 . S
C280 C130 1.182 . S
C275 C74 1.203 . S
C310 C145 1.268 . S
C305 C26 1.312 . S
C335 C48 1.203 . S
C340 C154 1.182 . S
C365 C71 1.323 . S
C370 C169 1.297 . S
C395 C5 1.371 . S
C400 C181 1.353 . S
C425 C50 1.190 1_556 S
C430 C178 1.182 . S
C460 C142 1.216 . S
C455 C70 1.206 . S
C490 C157 1.283 . S
C485 C4 1.302 . S
C515 C28 1.213 . S
C520 C166 1.182 . S
C550 C106 1.182 . S
C545 C73 1.190 . S
C575 C7 1.213 . S
C580 C118 1.182 . S
C610 C133 1.284 . S
C605 C30 1.303 . S
C640 C94 1.217 . S
C635 C52 1.206 . S
C670 C164 1.344 . S
C665 C9 1.347 . S
C700 C176 1.331 . S
C695 C29 1.343 . S
C725 C51 1.319 . S
C730 C140 1.316 . S
C760 C152 1.306 . S
C755 C75 1.318 . S
C790 C116 1.344 . S
C785 C27 1.347 . S
C815 C49 1.318 1_556 S
C820 C128 1.306 . S
C850 C92 1.316 . S
C845 C72 1.319 . S
C880 C104 1.331 . S
C875 C6 1.343 . S
