# Generated by pormake.
# Topology apo, (3,6)-cn, num edge types: 1
# Building blocks:
#     Node 0, Type 0, BuildingBlock: MIDCAF_clean_linker_0, # of connection points: 3
#     Node 1, Type 0, BuildingBlock: MIDCAF_clean_linker_0, # of connection points: 3
#     Node 2, Type 0, BuildingBlock: MIDCAF_clean_linker_0, # of connection points: 3
#     Node 3, Type 0, BuildingBlock: MIDCAF_clean_linker_0, # of connection points: 3
#     Node 4, Type 0, BuildingBlock: MIDCAF_clean_linker_0, # of connection points: 3
#     Node 5, Type 0, BuildingBlock: MIDCAF_clean_linker_0, # of connection points: 3
#     Node 6, Type 0, BuildingBlock: MIDCAF_clean_linker_0, # of connection points: 3
#     Node 7, Type 0, BuildingBlock: MIDCAF_clean_linker_0, # of connection points: 3
#     Node 8, Type 1, BuildingBlock: MIDCAF_clean_sbu_0, # of connection points: 6
#     Node 9, Type 1, BuildingBlock: MIDCAF_clean_sbu_0, # of connection points: 6
#     Node 10, Type 1, BuildingBlock: MIDCAF_clean_sbu_0, # of connection points: 6
#     Node 11, Type 1, BuildingBlock: MIDCAF_clean_sbu_0, # of connection points: 6
#     Edge 12, Type (0, 1), BuildingBlock: KIFKEQ_clean_linker_1, # of connection points: 2
#     Edge 13, Type (0, 1), BuildingBlock: KIFKEQ_clean_linker_1, # of connection points: 2
#     Edge 14, Type (0, 1), BuildingBlock: KIFKEQ_clean_linker_1, # of connection points: 2
#     Edge 15, Type (0, 1), BuildingBlock: KIFKEQ_clean_linker_1, # of connection points: 2
#     Edge 16, Type (0, 1), BuildingBlock: KIFKEQ_clean_linker_1, # of connection points: 2
#     Edge 17, Type (0, 1), BuildingBlock: KIFKEQ_clean_linker_1, # of connection points: 2
#     Edge 18, Type (0, 1), BuildingBlock: KIFKEQ_clean_linker_1, # of connection points: 2
#     Edge 19, Type (0, 1), BuildingBlock: KIFKEQ_clean_linker_1, # of connection points: 2
#     Edge 20, Type (0, 1), BuildingBlock: KIFKEQ_clean_linker_1, # of connection points: 2
#     Edge 21, Type (0, 1), BuildingBlock: KIFKEQ_clean_linker_1, # of connection points: 2
#     Edge 22, Type (0, 1), BuildingBlock: KIFKEQ_clean_linker_1, # of connection points: 2
#     Edge 23, Type (0, 1), BuildingBlock: KIFKEQ_clean_linker_1, # of connection points: 2
#     Edge 24, Type (0, 1), BuildingBlock: KIFKEQ_clean_linker_1, # of connection points: 2
#     Edge 25, Type (0, 1), BuildingBlock: KIFKEQ_clean_linker_1, # of connection points: 2
#     Edge 26, Type (0, 1), BuildingBlock: KIFKEQ_clean_linker_1, # of connection points: 2
#     Edge 27, Type (0, 1), BuildingBlock: KIFKEQ_clean_linker_1, # of connection points: 2
#     Edge 28, Type (0, 1), BuildingBlock: KIFKEQ_clean_linker_1, # of connection points: 2
#     Edge 29, Type (0, 1), BuildingBlock: KIFKEQ_clean_linker_1, # of connection points: 2
#     Edge 30, Type (0, 1), BuildingBlock: KIFKEQ_clean_linker_1, # of connection points: 2
#     Edge 31, Type (0, 1), BuildingBlock: KIFKEQ_clean_linker_1, # of connection points: 2
#     Edge 32, Type (0, 1), BuildingBlock: KIFKEQ_clean_linker_1, # of connection points: 2
#     Edge 33, Type (0, 1), BuildingBlock: KIFKEQ_clean_linker_1, # of connection points: 2
#     Edge 34, Type (0, 1), BuildingBlock: KIFKEQ_clean_linker_1, # of connection points: 2
#     Edge 35, Type (0, 1), BuildingBlock: KIFKEQ_clean_linker_1, # of connection points: 2
# Relax obj value: 0.088
# Max RMSD: 0.101
# Mean RMSD: 0.091
data_MOF--net-apo--node1-MIDCAF_clean_sbu_0--node2-MIDCAF_clean_linker_0--edge1-KIFKEQ_clean_linker_1
_symmetry_space_group_name_H-M    P1
_symmetry_Int_Tables_number       1
_symmetry_cell_setting            triclinic
loop_
_symmetry_equiv_pos_as_xyz
'x, y, z'
_cell_length_a     42.865563
_cell_length_b     51.071654
_cell_length_c     45.951842
_cell_angle_alpha  90.124295
_cell_angle_beta   90.079355
_cell_angle_gamma 90.215595
loop_
_atom_site_label
_atom_site_type_symbol
_atom_site_fract_x
_atom_site_fract_y
_atom_site_fract_z
_atom_type_partial_charge
C0 C 0.37744 0.34664 0.50339 0.0
C1 C 0.37127 0.32288 0.51757 0.0
C2 C 0.35342 0.30367 0.50311 0.0
C3 C 0.34337 0.30774 0.47437 0.0
H4 H 0.2792 0.28437 0.40614 0.0
H5 H 0.23907 0.25999 0.37962 0.0
H6 H 0.25946 0.30456 0.30214 0.0
H7 H 0.29899 0.32912 0.32844 0.0
H8 H 0.34773 0.37396 0.32818 0.0
H9 H 0.37512 0.40965 0.30372 0.0
H10 H 0.42463 0.42731 0.38338 0.0
H11 H 0.39802 0.39156 0.40757 0.0
H12 H 0.37346 0.3691 0.46467 0.0
H13 H 0.39044 0.36209 0.51419 0.0
H14 H 0.34829 0.28517 0.51357 0.0
H15 H 0.33057 0.29231 0.46333 0.0
N16 N 0.32232 0.32008 0.41422 0.0
N17 N 0.332 0.34372 0.37127 0.0
N18 N 0.35914 0.35417 0.41381 0.0
C19 C 0.31626 0.32442 0.38547 0.0
C20 C 0.35354 0.35864 0.38527 0.0
C21 C 0.34377 0.33507 0.42852 0.0
C22 C 0.29237 0.30882 0.36955 0.0
C23 C 0.27518 0.28895 0.38344 0.0
C24 C 0.25227 0.27488 0.3682 0.0
C25 C 0.246 0.2804 0.33876 0.0
C26 C 0.26336 0.30008 0.32488 0.0
C27 C 0.28622 0.31407 0.34002 0.0
C28 C 0.37056 0.37984 0.3699 0.0
C29 C 0.36461 0.38535 0.34043 0.0
C30 C 0.38023 0.40587 0.32641 0.0
C31 C 0.40218 0.42129 0.34153 0.0
C32 C 0.40833 0.41556 0.37088 0.0
C33 C 0.39278 0.39511 0.38486 0.0
C34 C 0.35109 0.33106 0.45975 0.0
C35 C 0.36759 0.35064 0.47491 0.0
C36 C 0.14082 0.1519 0.00839 0.0
C37 C 0.14468 0.17716 0.01994 0.0
C38 C 0.15336 0.19777 1.00149 0.0
C39 C 0.15829 0.19314 0.97187 0.0
H40 H 0.22635 0.20743 0.90635 0.0
H41 H 0.26669 0.23111 0.87996 0.0
H42 H 0.23325 0.1985 0.79898 0.0
H43 H 0.19273 0.17444 0.82531 0.0
H44 H 0.1467 0.12518 0.82852 0.0
H45 H 0.11785 0.08982 0.8049 0.0
H46 H 0.0745 0.0704 0.88692 0.0
H47 H 0.10267 0.10595 0.91042 0.0
H48 H 0.14151 0.12776 0.97024 0.0
H49 H 0.13382 0.13579 0.02227 0.0
H50 H 0.1563 0.21742 0.01002 0.0
H51 H 0.16492 0.20938 0.95804 0.0
N52 N 0.17844 0.17793 0.91322 0.0
N53 N 0.16592 0.15437 0.8709 0.0
N54 N 0.14154 0.14399 0.91507 0.0
C55 C 0.1827 0.17355 0.88433 0.0
C56 C 0.14521 0.13954 0.88611 0.0
C57 C 0.15796 0.16321 0.9287 0.0
C58 C 0.2063 0.18888 0.868 0.0
C59 C 0.22741 0.20526 0.88292 0.0
C60 C 0.25067 0.21874 0.86786 0.0
C61 C 0.25319 0.21641 0.83751 0.0
C62 C 0.23174 0.2006 0.8224 0.0
C63 C 0.20863 0.1868 0.83752 0.0
C64 C 0.12714 0.11844 0.87144 0.0
C65 C 0.13088 0.11348 0.84152 0.0
C66 C 0.11442 0.09314 0.82796 0.0
C67 C 0.0938 0.0773 0.84397 0.0
C68 C 0.08977 0.08249 0.87379 0.0
C69 C 0.10619 0.1028 0.88734 0.0
C70 C 0.15376 0.16796 0.96013 0.0
C71 C 0.14499 0.14738 0.97867 0.0
C72 C 0.86157 0.14909 0.51888 0.0
C73 C 0.85464 0.17234 0.504 0.0
C74 C 0.84136 0.1933 0.51941 0.0
C75 C 0.83497 0.19091 0.5492 0.0
H76 H 0.77754 0.21828 0.61584 0.0
H77 H 0.73811 0.24477 0.63959 0.0
H78 H 0.75133 0.20146 0.71927 0.0
H79 H 0.79059 0.17448 0.69538 0.0
H80 H 0.83981 0.12652 0.69647 0.0
H81 H 0.86818 0.09163 0.72144 0.0
H82 H 0.923 0.0785 0.64401 0.0
H83 H 0.89536 0.11322 0.61937 0.0
H84 H 0.86154 0.12863 0.55927 0.0
H85 H 0.87228 0.13275 0.50766 0.0
H86 H 0.83586 0.21145 0.5084 0.0
H87 H 0.82479 0.20736 0.56062 0.0
N88 N 0.81613 0.18055 0.60976 0.0
N89 N 0.82656 0.15874 0.6537 0.0
N90 N 0.85247 0.14649 0.61099 0.0
C91 C 0.81072 0.17749 0.63874 0.0
C92 C 0.84764 0.14323 0.63993 0.0
C93 C 0.8369 0.16502 0.59575 0.0
C94 C 0.78733 0.19416 0.65364 0.0
C95 C 0.77221 0.21436 0.63845 0.0
C96 C 0.7497 0.22973 0.65215 0.0
C97 C 0.74168 0.22532 0.68139 0.0
C98 C 0.75683 0.20522 0.69666 0.0
C99 C 0.77946 0.18985 0.68297 0.0
C100 C 0.86519 0.12272 0.65585 0.0
C101 C 0.8581 0.11632 0.68488 0.0
C102 C 0.87428 0.09628 0.69918 0.0
C103 C 0.89803 0.0824 0.68481 0.0
C104 C 0.9053 0.0891 0.65596 0.0
C105 C 0.88914 0.10893 0.6417 0.0
C106 C 0.84238 0.16769 0.5641 0.0
C107 C 0.85566 0.14683 0.54855 0.0
C108 C 0.64607 0.34746 0.01447 0.0
C109 C 0.65111 0.32304 1.00124 0.0
C110 C 0.66219 0.30217 0.01814 0.0
C111 C 0.66822 0.30575 0.04786 0.0
H112 H 0.72514 0.28056 0.11736 0.0
H113 H 0.76408 0.25533 0.14364 0.0
H114 H 0.753 0.30555 0.21858 0.0
H115 H 0.71409 0.33107 0.19232 0.0
H116 H 0.65868 0.37265 0.19303 0.0
H117 H 0.62786 0.40636 0.21732 0.0
H118 H 0.5767 0.41945 0.13765 0.0
H119 H 0.60685 0.38573 0.11358 0.0
H120 H 0.64694 0.3699 0.05373 0.0
H121 H 0.63716 0.36377 1.00196 0.0
H122 H 0.66615 0.28315 0.00836 0.0
H123 H 0.67661 0.28934 0.06051 0.0
N124 N 0.68816 0.31931 0.10769 0.0
N125 N 0.67572 0.34191 0.15069 0.0
N126 N 0.65035 0.35232 0.10709 0.0
C127 C 0.69276 0.32334 0.13666 0.0
C128 C 0.65431 0.35639 0.13605 0.0
C129 C 0.6671 0.33387 0.09277 0.0
C130 C 0.71634 0.30784 0.15272 0.0
C131 C 0.73091 0.28629 0.13944 0.0
C132 C 0.75312 0.27171 0.15455 0.0
C133 C 0.76143 0.2784 0.18323 0.0
C134 C 0.74714 0.30004 0.19646 0.0
C135 C 0.72472 0.31454 0.18142 0.0
C136 C 0.63538 0.37645 0.15128 0.0
C137 C 0.64072 0.38259 0.18074 0.0
C138 C 0.62311 0.40196 0.19467 0.0
C139 C 0.59968 0.41549 0.1795 0.0
C140 C 0.59414 0.40909 0.15018 0.0
C141 C 0.61173 0.38986 0.13626 0.0
C142 C 0.66246 0.33007 0.06118 0.0
C143 C 0.65144 0.35088 0.04414 0.0
C144 C 0.62363 0.66152 0.50236 0.0
C145 C 0.64283 0.67843 0.48629 0.0
C146 C 0.67008 0.68847 0.49924 0.0
C147 C 0.67738 0.6823 0.5282 0.0
H148 H 0.73925 0.69768 0.59788 0.0
H149 H 0.78018 0.72006 0.6254 0.0
H150 H 0.74103 0.69099 0.70562 0.0
H151 H 0.70007 0.66855 0.67829 0.0
H152 H 0.64337 0.6265 0.67598 0.0
H153 H 0.61346 0.59141 0.69879 0.0
H154 H 0.58909 0.56126 0.61368 0.0
H155 H 0.61754 0.59684 0.59113 0.0
H156 H 0.6153 0.64227 0.54264 0.0
H157 H 0.6027 0.65321 0.49276 0.0
H158 H 0.68524 0.70157 0.48725 0.0
H159 H 0.69824 0.69064 0.53784 0.0
N160 N 0.68679 0.67251 0.59056 0.0
N161 N 0.67394 0.64864 0.63259 0.0
N162 N 0.64701 0.64093 0.58908 0.0
C163 C 0.69171 0.66719 0.61923 0.0
C164 C 0.65163 0.63534 0.61758 0.0
C165 C 0.66429 0.6595 0.57538 0.0
C166 C 0.71635 0.68123 0.63583 0.0
C167 C 0.73928 0.69605 0.62138 0.0
C168 C 0.76288 0.70873 0.63711 0.0
C169 C 0.76385 0.70714 0.66764 0.0
C170 C 0.74076 0.69263 0.68212 0.0
C171 C 0.71739 0.67969 0.6664 0.0
C172 C 0.63293 0.61448 0.63173 0.0
C173 C 0.63141 0.61245 0.66219 0.0
C174 C 0.61434 0.59223 0.67527 0.0
C175 C 0.59872 0.57335 0.65818 0.0
C176 C 0.6001 0.57565 0.62769 0.0
C177 C 0.61674 0.59602 0.61467 0.0
C178 C 0.65774 0.6657 0.54445 0.0
C179 C 0.631 0.65517 0.53098 0.0
C180 C 0.85217 0.84148 0.99649 0.0
C181 C 0.85171 0.81563 0.9861 0.0
C182 C 0.84452 0.79514 0.00529 0.0
C183 C 0.83809 0.80043 0.03457 0.0
H184 H 0.76629 0.7891 0.10275 0.0
H185 H 0.72733 0.76618 0.13192 0.0
H186 H 0.76936 0.7966 0.21044 0.0
H187 H 0.80832 0.81981 0.1814 0.0
H188 H 0.85736 0.86734 0.1759 0.0
H189 H 0.88257 0.90569 0.19764 0.0
H190 H 0.90235 0.93587 0.11194 0.0
H191 H 0.87732 0.89768 0.09008 0.0
H192 H 0.84778 0.86678 0.03345 0.0
H193 H 0.85798 0.85754 0.98208 0.0
H194 H 0.84422 0.77505 0.99767 0.0
H195 H 0.83301 0.78427 0.04905 0.0
N196 N 0.81636 0.81665 0.09308 0.0
N197 N 0.82902 0.84188 0.13422 0.0
N198 N 0.8512 0.852 0.08904 0.0
C199 C 0.81284 0.82173 0.12197 0.0
C200 C 0.84826 0.85709 0.11791 0.0
C201 C 0.83555 0.83173 0.07654 0.0
C202 C 0.79041 0.8064 0.1397 0.0
C203 C 0.76742 0.79083 0.12622 0.0
C204 C 0.74495 0.77784 0.14289 0.0
C205 C 0.74524 0.77982 0.17339 0.0
C206 C 0.76867 0.79475 0.18696 0.0
C207 C 0.79089 0.80807 0.17028 0.0
C208 C 0.86507 0.87952 0.13123 0.0
C209 C 0.86723 0.88207 0.16167 0.0
C210 C 0.88186 0.90391 0.17415 0.0
C211 C 0.89424 0.92374 0.15645 0.0
C212 C 0.89273 0.92093 0.12607 0.0
C213 C 0.87847 0.899 0.11359 0.0
C214 C 0.83967 0.82622 0.04522 0.0
C215 C 0.84655 0.84671 0.02586 0.0
C216 C 0.15134 0.84773 0.49924 0.0
C217 C 0.1554 0.82289 0.51166 0.0
C218 C 0.16578 0.80216 0.49405 0.0
C219 C 0.17185 0.80624 0.46441 0.0
H220 H 0.23478 0.78655 0.39401 0.0
H221 H 0.273 0.76254 0.36531 0.0
H222 H 0.24774 0.80731 0.28926 0.0
H223 H 0.21008 0.83167 0.31791 0.0
H224 H 0.16941 0.88448 0.32729 0.0
H225 H 0.13877 0.9186 0.30426 0.0
H226 H 0.06879 0.91086 0.37147 0.0
H227 H 0.10041 0.87772 0.39527 0.0
H228 H 0.15278 0.87097 0.46065 0.0
H229 H 0.14305 0.86397 0.51228 0.0
H230 H 0.16901 0.78282 0.50318 0.0
H231 H 0.17953 0.78992 0.4512 0.0
N232 N 0.19194 0.82126 0.4046 0.0
N233 N 0.17823 0.84458 0.36252 0.0
N234 N 0.15331 0.85371 0.40666 0.0
C235 C 0.19587 0.82593 0.37565 0.0
C236 C 0.15678 0.85841 0.3778 0.0
C237 C 0.1708 0.83526 0.42024 0.0
C238 C 0.21921 0.81108 0.35836 0.0
C239 C 0.23735 0.79132 0.37119 0.0
C240 C 0.25917 0.77742 0.35466 0.0
C241 C 0.26339 0.78292 0.32491 0.0
C242 C 0.24537 0.80274 0.31215 0.0
C243 C 0.22357 0.81662 0.32863 0.0
C244 C 0.13747 0.87849 0.36321 0.0
C245 C 0.14744 0.89003 0.33709 0.0
C246 C 0.12963 0.90949 0.32373 0.0
C247 C 0.10109 0.91762 0.33586 0.0
C248 C 0.09085 0.90558 0.3617 0.0
C249 C 0.10894 0.88644 0.37533 0.0
C250 C 0.16679 0.83095 0.45185 0.0
C251 C 0.1567 0.85166 0.46964 0.0
C252 C 0.36672 0.65113 0.99503 0.0
C253 C 0.35626 0.674 0.0089 0.0
C254 C 0.33821 0.69191 0.99304 0.0
C255 C 0.3308 0.68702 0.96383 0.0
H256 H 0.26669 0.70588 0.89723 0.0
H257 H 0.22777 0.7308 0.87037 0.0
H258 H 0.25383 0.69081 0.79115 0.0
H259 H 0.29197 0.66547 0.81792 0.0
H260 H 0.33299 0.61568 0.82158 0.0
H261 H 0.3622 0.5827 0.79488 0.0
H262 H 0.42865 0.57805 0.86535 0.0
H263 H 0.39952 0.61122 0.89223 0.0
H264 H 0.3684 0.62864 0.95586 0.0
H265 H 0.38108 0.63714 0.00656 0.0
H266 H 0.32979 0.70967 1.00323 0.0
H267 H 0.31698 0.70126 0.95213 0.0
N268 N 0.31271 0.67322 0.90438 0.0
N269 N 0.32336 0.65 0.86149 0.0
N270 N 0.35154 0.64088 0.90388 0.0
C271 C 0.3067 0.66857 0.87574 0.0
C272 C 0.34582 0.63612 0.87529 0.0
C273 C 0.33506 0.65935 0.91862 0.0
C274 C 0.28261 0.68367 0.8598 0.0
C275 C 0.26408 0.70234 0.87411 0.0
C276 C 0.24187 0.71675 0.85865 0.0
C277 C 0.23775 0.7129 0.82853 0.0
C278 C 0.25607 0.69407 0.81435 0.0
C279 C 0.27816 0.67963 0.82977 0.0
C280 C 0.36385 0.61611 0.85912 0.0
C281 C 0.35389 0.60777 0.83142 0.0
C282 C 0.37057 0.5888 0.8161 0.0
C283 C 0.39774 0.57787 0.82797 0.0
C284 C 0.40798 0.58639 0.8555 0.0
C285 C 0.39113 0.60522 0.87099 0.0
C286 C 0.34173 0.6643 0.94983 0.0
C287 C 0.35966 0.64638 0.96585 0.0
Zn288 Zn 0.03472 0.13813 0.30351 0.0
Zn289 Zn 0.97376 0.14852 0.19007 0.0
Zn290 Zn 0.00189 0.14695 0.26013 0.0
C291 C 0.03622 0.17005 0.20023 0.0
C292 C 0.97512 0.09766 0.21756 0.0
O293 O 0.97386 0.16258 0.29688 0.0
O294 O 8e-05 0.1424 0.3316 0.0
C295 C 0.06721 0.1755 0.27506 0.0
O296 O 0.03358 0.16631 0.22799 0.0
O297 O 0.01551 0.16293 0.18216 0.0
O298 O 0.96929 0.11016 0.19439 0.0
O299 O 0.98645 0.10884 0.2406 0.0
O300 O 0.06599 0.16614 0.30037 0.0
O301 O 0.04662 0.16898 0.25589 0.0
O302 O 0.00707 0.10408 0.26513 0.0
O303 O 0.04809 0.1021 0.29411 0.0
C304 C 0.02855 0.09077 0.27785 0.0
O305 O 0.96029 0.17053 0.27075 0.0
O306 O 0.95666 0.16409 0.22469 0.0
C307 C 0.97665 0.1555 0.32366 0.0
C308 C 0.94547 0.17422 0.24708 0.0
Zn309 Zn 0.53366 0.34263 0.6793 0.0
Zn310 Zn 0.47255 0.36334 0.81002 0.0
Zn311 Zn 0.4966 0.34997 0.76219 0.0
C312 C 0.4842 0.40909 0.77845 0.0
C313 C 0.42845 0.33095 0.78373 0.0
O314 O 0.53961 0.32738 0.76865 0.0
O315 O 0.5352 0.33371 0.72273 0.0
C316 C 0.52287 0.39478 0.70883 0.0
O317 O 0.4944 0.39258 0.75967 0.0
O318 O 0.4733 0.40134 0.80242 0.0
O319 O 0.43215 0.34432 0.80663 0.0
O320 O 0.45001 0.33051 0.7642 0.0
O321 O 0.53233 0.382 0.68646 0.0
O322 O 0.51177 0.38385 0.73233 0.0
O323 O 0.4628 0.32677 0.73719 0.0
O324 O 0.50308 0.33179 0.71037 0.0
C325 C 0.47514 0.3241 0.71221 0.0
O326 O 0.5294 0.33545 0.79588 0.0
O327 O 0.50604 0.34994 0.83562 0.0
C328 C 0.55138 0.32454 0.7434 0.0
C329 C 0.52866 0.3384 0.82368 0.0
Zn330 Zn 0.02477 0.84701 0.80219 0.0
Zn331 Zn 0.97341 0.85375 0.69695 0.0
Zn332 Zn 0.9993 0.8496 0.74967 0.0
C333 C 0.97725 0.90421 0.71912 0.0
C334 C 0.93456 0.82154 0.73041 0.0
O335 O 0.04445 0.82847 0.74562 0.0
O336 O 0.06307 0.8286 0.79064 0.0
C337 C 0.01804 0.89987 0.78984 0.0
O338 O 0.9897 0.89152 0.74038 0.0
O339 O 0.96796 0.89223 0.69666 0.0
O340 O 0.93681 0.83122 0.70525 0.0
O341 O 0.95539 0.82641 0.74995 0.0
O342 O 0.02707 0.88517 0.81021 0.0
O343 O 0.007 0.88993 0.76614 0.0
O344 O 0.96632 0.82854 0.77876 0.0
O345 O 0.9913 0.82646 0.82091 0.0
C346 C 0.9675 0.82149 0.80566 0.0
O347 O 0.03309 0.83375 0.71764 0.0
O348 O 0.00939 0.83937 0.67525 0.0
C349 C 0.06571 0.8223 0.76422 0.0
C350 C 0.03284 0.83202 0.68966 0.0
Zn351 Zn 0.53185 0.64161 0.19848 0.0
Zn352 Zn 0.47531 0.65154 0.29893 0.0
Zn353 Zn 0.50282 0.6478 0.2479 0.0
C354 C 0.53263 0.67636 0.30466 0.0
C355 C 0.47965 0.59862 0.28786 0.0
O356 O 0.47341 0.66648 0.21416 0.0
O357 O 0.50323 0.66344 0.17507 0.0
C358 C 0.57319 0.66835 0.23383 0.0
O359 O 0.5352 0.66821 0.27822 0.0
O360 O 0.50779 0.67248 0.31871 0.0
O361 O 0.4716 0.61375 0.30823 0.0
O362 O 0.49136 0.608 0.26422 0.0
O363 O 0.57267 0.65664 0.20964 0.0
O364 O 0.5491 0.66778 0.25062 0.0
O365 O 0.50887 0.60524 0.2387 0.0
O366 O 0.52886 0.60315 0.19441 0.0
C367 C 0.51885 0.59174 0.21687 0.0
O368 O 0.45914 0.67077 0.24139 0.0
O369 O 0.43793 0.67012 0.28533 0.0
C370 C 0.47829 0.67099 0.18696 0.0
C371 C 0.43697 0.67699 0.25901 0.0
H372 H 0.06651 0.95555 0.36331 0.0
H373 H 0.09448 0.92943 0.27762 0.0
H374 H 0.04106 0.99325 0.34176 0.0
H375 H 0.07023 0.96817 0.25639 0.0
H376 H 0.07654 0.06331 0.25573 0.0
H377 H 0.08742 0.01705 0.26426 0.0
H378 H 0.99731 0.00807 0.30498 0.0
H379 H 0.98616 0.05447 0.2956 0.0
C380 C 0.06671 0.9574 0.33985 0.0
C381 C 0.08292 0.93936 0.32233 0.0
C382 C 0.05206 0.97911 0.32751 0.0
C383 C 0.05361 0.98356 0.29741 0.0
C384 C 0.06875 0.96517 0.27968 0.0
C385 C 0.08295 0.94317 0.29195 0.0
C386 C 0.05858 0.05112 0.26535 0.0
C387 C 0.03056 0.06221 0.27499 0.0
C388 C 0.06476 0.02468 0.27023 0.0
C389 C 0.04332 0.00909 0.28554 0.0
C390 C 0.01424 0.01975 0.29323 0.0
C391 C 0.00778 0.04615 0.28773 0.0
H392 H 0.37243 0.53506 0.80154 0.0
H393 H 0.46068 0.57283 0.81932 0.0
H394 H 0.39943 0.49811 0.7801 0.0
H395 H 0.48805 0.53598 0.797 0.0
H396 H 0.51531 0.44727 0.80673 0.0
H397 H 0.49804 0.49236 0.8114 0.0
H398 H 0.43033 0.4793 0.74297 0.0
H399 H 0.44699 0.43366 0.73953 0.0
C400 C 0.39765 0.53573 0.80016 0.0
C401 C 0.41445 0.55672 0.81233 0.0
C402 C 0.41322 0.51459 0.78763 0.0
C403 C 0.44604 0.51396 0.78671 0.0
C404 C 0.4628 0.53561 0.79766 0.0
C405 C 0.44717 0.55669 0.81049 0.0
C406 C 0.49772 0.45447 0.79183 0.0
C407 C 0.48266 0.43725 0.77258 0.0
C408 C 0.48772 0.48035 0.79447 0.0
C409 C 0.46226 0.48941 0.77799 0.0
C410 C 0.44951 0.47281 0.75648 0.0
C411 C 0.45938 0.44682 0.75407 0.0
H412 H 0.61512 0.54641 0.70764 0.0
H413 H 0.5453 0.5483 0.63971 0.0
H414 H 0.5921 0.50649 0.72656 0.0
H415 H 0.52414 0.50712 0.65692 0.0
H416 H 0.48357 0.43485 0.69529 0.0
H417 H 0.49745 0.48117 0.68991 0.0
H418 H 0.59273 0.46289 0.71353 0.0
H419 H 0.57785 0.41744 0.72094 0.0
C420 C 0.59467 0.53854 0.69684 0.0
C421 C 0.5825 0.55051 0.67175 0.0
C422 C 0.58171 0.51528 0.70746 0.0
C423 C 0.5566 0.50304 0.69298 0.0
C424 C 0.54335 0.51582 0.66887 0.0
C425 C 0.55593 0.53932 0.65859 0.0
C426 C 0.50714 0.44117 0.70024 0.0
C427 C 0.52956 0.42298 0.70905 0.0
C428 C 0.51531 0.46757 0.69676 0.0
C429 C 0.54637 0.476 0.70106 0.0
C430 C 0.56848 0.45755 0.7106 0.0
C431 C 0.56009 0.43139 0.71465 0.0
H432 H 0.93689 0.92866 0.20074 0.0
H433 H 0.88011 0.97363 0.14156 0.0
H434 H 0.95744 0.9695 0.22196 0.0
H435 H 0.90044 0.01406 0.16259 0.0
H436 H 0.91619 0.08088 0.2221 0.0
H437 H 0.89663 0.03684 0.21182 0.0
H438 H 0.99124 0.0092 0.20284 0.0
H439 H 0.01075 0.05365 0.21301 0.0
C440 C 0.92877 0.94725 0.1924 0.0
C441 C 0.90703 0.94807 0.16947 0.0
C442 C 0.94058 0.97051 0.20442 0.0
C443 C 0.93028 0.99485 0.19407 0.0
C444 C 0.90845 0.99555 0.17126 0.0
C445 C 0.89705 0.97244 0.15903 0.0
C446 C 0.93274 0.06516 0.21881 0.0
C447 C 0.96486 0.07032 0.21854 0.0
C448 C 0.92161 0.04008 0.21276 0.0
C449 C 0.94244 0.01976 0.20618 0.0
C450 C 0.97473 0.02453 0.20798 0.0
C451 C 0.9859 0.04981 0.21387 0.0
H452 H 0.87251 0.04347 0.71831 0.0
H453 H 0.96016 0.07042 0.68277 0.0
H454 H 0.89734 0.00269 0.73334 0.0
H455 H 0.98475 0.02948 0.69741 0.0
H456 H 0.9554 0.93337 0.76475 0.0
H457 H 0.94042 0.97982 0.76353 0.0
H458 H 0.97355 0.98506 0.675 0.0
H459 H 0.98806 0.93901 0.67623 0.0
C460 C 0.89725 0.04103 0.71443 0.0
C461 C 0.91421 0.05999 0.69884 0.0
C462 C 0.91148 0.01767 0.72309 0.0
C463 C 0.94287 0.0128 0.71621 0.0
C464 C 0.96039 0.03257 0.70262 0.0
C465 C 0.94626 0.05594 0.69412 0.0
C466 C 0.96006 0.94474 0.74535 0.0
C467 C 0.97285 0.93278 0.72056 0.0
C468 C 0.95137 0.97118 0.7446 0.0
C469 C 0.95584 0.98604 0.71918 0.0
C470 C 0.97017 0.97425 0.69502 0.0
C471 C 0.97831 0.94786 0.69562 0.0
H472 H 0.62242 0.45406 0.21524 0.0
H473 H 0.53736 0.42645 0.17483 0.0
H474 H 0.59574 0.49368 0.231 0.0
H475 H 0.51076 0.46627 0.19039 0.0
H476 H 0.50523 0.55744 0.17383 0.0
H477 H 0.51912 0.51131 0.17155 0.0
H478 H 0.55296 0.5151 0.26007 0.0
H479 H 0.53891 0.56163 0.26222 0.0
C480 C 0.59781 0.45609 0.21042 0.0
C481 C 0.58217 0.43729 0.19334 0.0
C482 C 0.58248 0.4788 0.21952 0.0
C483 C 0.55122 0.48321 0.21167 0.0
C484 C 0.53498 0.46357 0.1964 0.0
C485 C 0.55027 0.44084 0.18738 0.0
C486 C 0.51485 0.54821 0.19305 0.0
C487 C 0.52104 0.56299 0.21816 0.0
C488 C 0.52266 0.52175 0.19184 0.0
C489 C 0.53731 0.50958 0.21559 0.0
C490 C 0.54188 0.52402 0.24138 0.0
C491 C 0.53365 0.55053 0.2427 0.0
H492 H 0.46304 0.43717 0.3469 0.0
H493 H 0.37635 0.4572 0.30444 0.0
H494 H 0.48628 0.47797 0.32964 0.0
H495 H 0.3999 0.49772 0.28675 0.0
H496 H 0.48823 0.56993 0.33661 0.0
H497 H 0.47349 0.52436 0.34474 0.0
H498 H 0.44313 0.51796 0.25533 0.0
H499 H 0.45798 0.56386 0.24725 0.0
C500 C 0.44903 0.45014 0.33366 0.0
C501 C 0.41767 0.4441 0.32744 0.0
C502 C 0.46241 0.47341 0.32368 0.0
C503 C 0.44483 0.49108 0.30705 0.0
C504 C 0.41411 0.48434 0.2993 0.0
C505 C 0.40062 0.46111 0.30945 0.0
C506 C 0.47891 0.55863 0.31858 0.0
C507 C 0.47439 0.57026 0.29129 0.0
C508 C 0.47066 0.53252 0.32316 0.0
C509 C 0.4572 0.51761 0.30065 0.0
C510 C 0.4534 0.52905 0.27306 0.0
C511 C 0.46208 0.55517 0.26839 0.0
H512 H 0.0336 0.06066 0.85235 0.0
H513 H 0.1175 0.04241 0.8045 0.0
H514 H 0.00961 0.02016 0.83481 0.0
H515 H 0.09329 0.00219 0.78669 0.0
H516 H 0.00933 0.92812 0.83897 0.0
H517 H 0.02276 0.97391 0.84736 0.0
H518 H 0.04959 0.98174 0.7572 0.0
H519 H 0.03624 0.93555 0.7489 0.0
C520 C 0.04683 0.04815 0.83789 0.0
C521 C 0.07765 0.05461 0.83017 0.0
C522 C 0.03301 0.02504 0.82775 0.0
C523 C 0.04964 0.00795 0.80954 0.0
C524 C 0.07975 0.01513 0.80043 0.0
C525 C 0.09364 0.03818 0.81068 0.0
C526 C 0.01753 0.93978 0.82083 0.0
C527 C 0.02169 0.92841 0.79331 0.0
C528 C 0.02502 0.96604 0.82556 0.0
C529 C 0.03727 0.98141 0.80294 0.0
C530 C 0.04033 0.9703 0.77505 0.0
C531 C 0.03248 0.94399 0.77025 0.0
H532 H 0.17257 0.15527 0.06718 0.0
H533 H 0.1011 0.20984 0.04195 0.0
H534 H 0.15761 0.16019 0.11811 0.0
H535 H 0.08423 0.21343 0.09217 0.0
H536 H 0.05143 0.21827 0.17983 0.0
H537 H 0.08771 0.22563 0.13978 0.0
H538 H 0.11916 0.14546 0.14767 0.0
H539 H 0.08501 0.13939 0.18892 0.0
C540 C 0.15371 0.16843 0.07273 0.0
C541 C 0.13785 0.18212 0.05089 0.0
C542 C 0.14492 0.17116 0.10186 0.0
C543 C 0.11937 0.18701 0.10963 0.0
C544 C 0.1044 0.20146 0.08755 0.0
C545 C 0.11378 0.19924 0.05857 0.0
C546 C 0.06768 0.20293 0.17403 0.0
C547 C 0.06583 0.17839 0.18746 0.0
C548 C 0.08792 0.20682 0.15058 0.0
C549 C 0.1057 0.18587 0.13951 0.0
C550 C 0.10618 0.16224 0.1553 0.0
C551 C 0.08665 0.15868 0.17923 0.0
H552 H 0.43052 0.33363 0.53451 0.0
H553 H 0.34373 0.30146 0.56625 0.0
H554 H 0.45322 0.32976 0.58252 0.0
H555 H 0.36711 0.29648 0.61477 0.0
H556 H 0.41213 0.32835 0.70254 0.0
H557 H 0.38535 0.32387 0.65558 0.0
H558 H 0.47155 0.29823 0.61621 0.0
H559 H 0.49824 0.30377 0.6625 0.0
C560 C 0.41632 0.32555 0.55181 0.0
C561 C 0.38522 0.31813 0.54667 0.0
C562 C 0.42949 0.32297 0.57933 0.0
C563 C 0.41209 0.31261 0.60254 0.0
C564 C 0.38108 0.30466 0.59738 0.0
C565 C 0.36779 0.30728 0.5696 0.0
C566 C 0.42509 0.32135 0.68387 0.0
C567 C 0.45733 0.31688 0.68591 0.0
C568 C 0.40978 0.31869 0.65702 0.0
C569 C 0.42647 0.31122 0.63198 0.0
C570 C 0.45818 0.30477 0.63482 0.0
C571 C 0.47347 0.3078 0.66138 0.0
H572 H 0.67067 0.35252 0.95559 0.0
H573 H 0.61298 0.286 0.97725 0.0
H574 H 0.64976 0.35223 0.90621 0.0
H575 H 0.59099 0.28621 0.92816 0.0
H576 H 0.55545 0.29085 0.83623 0.0
H577 H 0.59387 0.28276 0.87511 0.0
H578 H 0.59949 0.36612 0.89129 0.0
H579 H 0.56203 0.3738 0.85281 0.0
C580 C 0.65388 0.33756 0.94953 0.0
C581 C 0.6431 0.31949 0.97018 0.0
C582 C 0.64182 0.3374 0.92132 0.0
C583 C 0.61825 0.31951 0.91336 0.0
C584 C 0.60926 0.30014 0.93344 0.0
C585 C 0.62172 0.30007 0.96161 0.0
C586 C 0.56584 0.3073 0.84765 0.0
C587 C 0.55602 0.3329 0.8418 0.0
C588 C 0.58753 0.30273 0.86999 0.0
C589 C 0.59975 0.32378 0.88639 0.0
C590 C 0.59114 0.34944 0.87893 0.0
C591 C 0.56949 0.35389 0.85697 0.0
H592 H 0.84158 0.13747 0.4609 0.0
H593 H 0.88649 0.21192 0.47691 0.0
H594 H 0.86446 0.13606 0.41238 0.0
H595 H 0.90967 0.21044 0.42819 0.0
H596 H 0.94012 0.19938 0.3316 0.0
H597 H 0.90286 0.2069 0.37165 0.0
H598 H 0.9217 0.1293 0.40432 0.0
H599 H 0.95823 0.12198 0.36501 0.0
C600 C 0.85584 0.15379 0.45376 0.0
C601 C 0.86276 0.17456 0.47278 0.0
C602 C 0.86886 0.15303 0.42601 0.0
C603 C 0.8892 0.17295 0.41673 0.0
C604 C 0.89394 0.19489 0.43475 0.0
C605 C 0.88076 0.1957 0.46262 0.0
C606 C 0.93561 0.18388 0.34707 0.0
C607 C 0.95188 0.16011 0.34526 0.0
C608 C 0.91458 0.18821 0.37001 0.0
C609 C 0.90918 0.16857 0.39089 0.0
C610 C 0.92488 0.14463 0.38832 0.0
C611 C 0.94602 0.14052 0.36592 0.0
H612 H 0.90076 0.7866 0.96841 0.0
H613 H 0.82445 0.83288 0.93608 0.0
H614 H 0.9215 0.78261 0.91956 0.0
H615 H 0.84348 0.82733 0.88641 0.0
H616 H 0.91512 0.84891 0.81507 0.0
H617 H 0.88089 0.84312 0.85649 0.0
H618 H 0.92285 0.76762 0.87332 0.0
H619 H 0.95907 0.77507 0.83332 0.0
C620 C 0.88793 0.79521 0.95051 0.0
C621 C 0.86119 0.81011 0.95584 0.0
C622 C 0.89959 0.79275 0.92229 0.0
C623 C 0.88435 0.80466 0.89853 0.0
C624 C 0.85643 0.81835 0.90395 0.0
C625 C 0.84526 0.82139 0.93236 0.0
C626 C 0.91606 0.83064 0.82699 0.0
C627 C 0.9396 0.81243 0.82114 0.0
C628 C 0.89643 0.82725 0.85097 0.0
C629 C 0.89951 0.80519 0.86918 0.0
C630 C 0.92053 0.7854 0.86075 0.0
C631 C 0.94086 0.78928 0.83737 0.0
H632 H 0.58633 0.69606 0.46923 0.0
H633 H 0.67775 0.67728 0.4362 0.0
H634 H 0.56755 0.70276 0.42011 0.0
H635 H 0.65907 0.68464 0.3863 0.0
H636 H 0.53464 0.72102 0.33617 0.0
H637 H 0.56932 0.72907 0.37732 0.0
H638 H 0.6235 0.66117 0.35339 0.0
H639 H 0.58961 0.65416 0.31125 0.0
C640 C 0.60256 0.69382 0.45134 0.0
C641 C 0.63337 0.68591 0.45645 0.0
C642 C 0.59194 0.69799 0.42312 0.0
C643 C 0.61186 0.69444 0.39913 0.0
C644 C 0.64314 0.68751 0.40428 0.0
C645 C 0.65387 0.68344 0.43278 0.0
C646 C 0.55496 0.70869 0.33891 0.0
C647 C 0.55945 0.6869 0.32084 0.0
C648 C 0.57459 0.71305 0.36266 0.0
C649 C 0.5985 0.69522 0.36924 0.0
C650 C 0.60528 0.67526 0.34904 0.0
C651 C 0.58593 0.67125 0.32482 0.0
H652 H 0.35475 0.64041 0.05496 0.0
H653 H 0.37928 0.71968 0.03159 0.0
H654 H 0.37782 0.64692 0.10293 0.0
H655 H 0.40187 0.72644 0.07993 0.0
H656 H 0.48677 0.7016 0.13969 0.0
H657 H 0.45001 0.70795 0.10009 0.0
H658 H 0.37791 0.67001 0.15051 0.0
H659 H 0.41516 0.66348 0.19033 0.0
C660 C 0.36455 0.6594 0.06033 0.0
C661 C 0.36558 0.67942 0.03944 0.0
C662 C 0.37742 0.66326 0.08795 0.0
C663 C 0.39176 0.6872 0.09523 0.0
C664 C 0.39114 0.70774 0.07489 0.0
C665 C 0.37807 0.70392 0.04729 0.0
C666 C 0.46277 0.69547 0.14273 0.0
C667 C 0.45385 0.68187 0.16793 0.0
C668 C 0.44163 0.69918 0.12005 0.0
C669 C 0.41114 0.68916 0.12199 0.0
C670 C 0.40139 0.67767 0.1483 0.0
C671 C 0.42257 0.67419 0.17122 0.0
H672 H 0.11544 0.78639 0.53357 0.0
H673 H 0.17543 0.85042 0.55901 0.0
H674 H 0.09344 0.78508 0.58238 0.0
H675 H 0.15493 0.84834 0.60841 0.0
H676 H 0.07236 0.86777 0.66892 0.0
H677 H 0.10907 0.86195 0.62946 0.0
H678 H 0.09382 0.77816 0.63265 0.0
H679 H 0.05546 0.78465 0.67156 0.0
C680 C 0.12463 0.7996 0.54998 0.0
C681 C 0.14681 0.8187 0.54252 0.0
C682 C 0.11217 0.7988 0.5781 0.0
C683 C 0.12198 0.81688 0.59949 0.0
C684 C 0.14609 0.83458 0.59243 0.0
C685 C 0.15806 0.83569 0.56418 0.0
C686 C 0.07779 0.84805 0.66184 0.0
C687 C 0.06147 0.82664 0.67329 0.0
C688 C 0.09894 0.8446 0.63915 0.0
C689 C 0.10441 0.81953 0.62743 0.0
C690 C 0.08979 0.7978 0.64065 0.0
C691 C 0.06821 0.80138 0.66324 0.0
H692 H 0.23316 0.22791 0.34019 0.0
H693 H 0.20288 0.30018 0.30071 0.0
H694 H 0.1913 0.2045 0.31532 0.0
H695 H 0.16152 0.27657 0.27501 0.0
H696 H 0.06672 0.2282 0.27976 0.0
H697 H 0.1127 0.25532 0.28916 0.0
H698 H 0.17203 0.18973 0.26816 0.0
H699 H 0.12578 0.16266 0.25935 0.0
C700 C 0.21767 0.23877 0.32606 0.0
C701 C 0.22127 0.26593 0.32259 0.0
C702 C 0.19395 0.22529 0.3114 0.0
C703 C 0.17318 0.23863 0.29293 0.0
C704 C 0.17709 0.26573 0.28908 0.0
C705 C 0.2009 0.27921 0.30369 0.0
C706 C 0.08964 0.22008 0.27577 0.0
C707 C 0.09291 0.19354 0.2686 0.0
C708 C 0.11602 0.23551 0.28133 0.0
C709 C 0.14605 0.22451 0.28003 0.0
C710 C 0.14921 0.19862 0.26993 0.0
C711 C 0.12282 0.18323 0.26441 0.0
H712 H 0.31512 0.21637 0.85019 0.0
H713 H 0.24782 0.24837 0.79012 0.0
H714 H 0.35614 0.24307 0.82792 0.0
H715 H 0.28901 0.27561 0.76827 0.0
H716 H 0.42267 0.2825 0.7587 0.0
H717 H 0.37849 0.2521 0.76471 0.0
H718 H 0.32648 0.31254 0.80852 0.0
H719 H 0.37067 0.34254 0.80353 0.0
C720 C 0.30924 0.22886 0.83198 0.0
C721 C 0.27835 0.23048 0.82194 0.0
C722 C 0.3327 0.24389 0.81912 0.0
C723 C 0.32558 0.26105 0.7963 0.0
C724 C 0.29494 0.2622 0.78563 0.0
C725 C 0.27151 0.24673 0.79813 0.0
C726 C 0.40145 0.28945 0.76885 0.0
C727 C 0.40008 0.31472 0.78092 0.0
C728 C 0.37632 0.27211 0.77229 0.0
C729 C 0.3493 0.28019 0.78697 0.0
C730 C 0.34703 0.30606 0.79689 0.0
C731 C 0.37232 0.32312 0.79413 0.0
H732 H 0.73272 0.27814 0.67709 0.0
H733 H 0.69473 0.20869 0.71744 0.0
H734 H 0.68918 0.30367 0.69581 0.0
H735 H 0.65118 0.23435 0.73632 0.0
H736 H 0.58612 0.29428 0.78062 0.0
H737 H 0.63499 0.27138 0.76947 0.0
H738 H 0.63346 0.30368 0.68267 0.0
H739 H 0.58532 0.32639 0.69374 0.0
C740 C 0.71513 0.26834 0.69005 0.0
C741 C 0.71697 0.24131 0.69544 0.0
C742 C 0.69025 0.28298 0.70084 0.0
C743 C 0.6666 0.27096 0.7173 0.0
C744 C 0.66919 0.2442 0.72392 0.0
C745 C 0.69411 0.22951 0.71307 0.0
C746 C 0.59649 0.29662 0.7593 0.0
C747 C 0.58184 0.31201 0.73801 0.0
C748 C 0.62431 0.28344 0.75288 0.0
C749 C 0.63811 0.2858 0.72522 0.0
C750 C 0.62371 0.30173 0.7043 0.0
C751 C 0.59592 0.3146 0.71059 0.0
H752 H 0.81067 0.29614 0.21605 0.0
H753 H 0.76532 0.22532 0.18632 0.0
H754 H 0.85254 0.27004 0.23764 0.0
H755 H 0.80657 0.19934 0.20823 0.0
H756 H 0.90576 0.16993 0.20226 0.0
H757 H 0.85977 0.19488 0.19211 0.0
H758 H 0.86968 0.23551 0.2742 0.0
H759 H 0.91763 0.21041 0.28427 0.0
C760 C 0.80933 0.27499 0.21468 0.0
C761 C 0.78504 0.26275 0.19908 0.0
C762 C 0.83318 0.26007 0.22719 0.0
C763 C 0.83301 0.23267 0.2244 0.0
C764 C 0.80766 0.22046 0.21032 0.0
C765 C 0.78408 0.23532 0.19766 0.0
C766 C 0.89826 0.18397 0.21849 0.0
C767 C 0.91548 0.18818 0.24418 0.0
C768 C 0.87153 0.19817 0.21269 0.0
C769 C 0.86077 0.21697 0.23247 0.0
C770 C 0.87749 0.22107 0.25857 0.0
C771 C 0.90468 0.20662 0.26448 0.0
H772 H 0.75747 0.73807 0.71589 0.0
H773 H 0.82641 0.70707 0.65685 0.0
H774 H 0.79822 0.76318 0.74105 0.0
H775 H 0.86703 0.73211 0.68191 0.0
H776 H 0.938 0.76918 0.7393 0.0
H777 H 0.89545 0.73779 0.73073 0.0
H778 H 0.8306 0.80187 0.72265 0.0
H779 H 0.87319 0.833 0.73059 0.0
C780 C 0.7814 0.7363 0.70861 0.0
C781 C 0.78878 0.7208 0.68427 0.0
C782 C 0.80465 0.75068 0.72297 0.0
C783 C 0.83579 0.74948 0.71354 0.0
C784 C 0.84331 0.73313 0.68994 0.0
C785 C 0.82003 0.71906 0.67536 0.0
C786 C 0.91438 0.77637 0.73696 0.0
C787 C 0.90862 0.80336 0.73577 0.0
C788 C 0.89015 0.75849 0.73174 0.0
C789 C 0.8598 0.76743 0.72573 0.0
C790 C 0.85367 0.7944 0.7274 0.0
C791 C 0.87797 0.81222 0.73203 0.0
H792 H 0.68237 0.78193 0.16572 0.0
H793 H 0.7533 0.7476 0.22022 0.0
H794 H 0.64226 0.75712 0.19159 0.0
H795 H 0.71303 0.72239 0.24596 0.0
H796 H 0.57348 0.71949 0.25044 0.0
H797 H 0.61721 0.75004 0.24361 0.0
H798 H 0.67769 0.68509 0.22356 0.0
H799 H 0.63392 0.65485 0.22949 0.0
C800 C 0.68928 0.76927 0.18346 0.0
C801 C 0.72089 0.76647 0.19083 0.0
C802 C 0.66633 0.75533 0.19849 0.0
C803 C 0.67456 0.738 0.22091 0.0
C804 C 0.7061 0.73576 0.22888 0.0
C805 C 0.72906 0.75011 0.21417 0.0
C806 C 0.59645 0.71175 0.24581 0.0
C807 C 0.60046 0.68493 0.24034 0.0
C808 C 0.62135 0.72919 0.24167 0.0
C809 C 0.65068 0.71989 0.23276 0.0
C810 C 0.65539 0.69277 0.23055 0.0
C811 C 0.63039 0.67547 0.23397 0.0
H812 H 0.30342 0.80155 0.28303 0.0
H813 H 0.27553 0.73042 0.3267 0.0
H814 H 0.34234 0.77711 0.25543 0.0
H815 H 0.31515 0.70632 0.30026 0.0
H816 H 0.37793 0.66198 0.24655 0.0
H817 H 0.33198 0.68915 0.25469 0.0
H818 H 0.39167 0.75691 0.26542 0.0
H819 H 0.43721 0.72971 0.2561 0.0
C820 C 0.30537 0.78066 0.28656 0.0
C821 C 0.28645 0.76798 0.30726 0.0
C822 C 0.32785 0.76668 0.27086 0.0
C823 C 0.3319 0.73968 0.27543 0.0
C824 C 0.3124 0.72696 0.29564 0.0
C825 C 0.28999 0.7409 0.31128 0.0
C826 C 0.38093 0.68295 0.24899 0.0
C827 C 0.41093 0.69387 0.25043 0.0
C828 C 0.35471 0.69847 0.25424 0.0
C829 C 0.35814 0.7251 0.26163 0.0
C830 C 0.38802 0.73652 0.2598 0.0
C831 C 0.4142 0.721 0.25422 0.0
H832 H 0.19877 0.69672 0.78444 0.0
H833 H 0.22484 0.76499 0.8347 0.0
H834 H 0.16081 0.72276 0.75762 0.0
H835 H 0.18593 0.79055 0.80919 0.0
H836 H 0.12536 0.83817 0.75697 0.0
H837 H 0.17101 0.81061 0.7649 0.0
H838 H 0.11127 0.74222 0.76678 0.0
H839 H 0.06613 0.76987 0.75745 0.0
C840 C 0.19658 0.71732 0.78964 0.0
C841 C 0.21478 0.72872 0.81186 0.0
C842 C 0.17464 0.73221 0.77439 0.0
C843 C 0.17033 0.75884 0.78104 0.0
C844 C 0.18895 0.77027 0.80295 0.0
C845 C 0.21092 0.75545 0.81806 0.0
C846 C 0.1224 0.81709 0.75748 0.0
C847 C 0.09248 0.80601 0.75638 0.0
C848 C 0.14838 0.80132 0.76259 0.0
C849 C 0.14473 0.77426 0.76743 0.0
C850 C 0.11507 0.76293 0.76316 0.0
C851 C 0.08915 0.77872 0.75762 0.0
loop_
_geom_bond_atom_site_label_1
_geom_bond_atom_site_label_2
_geom_bond_distance
_geom_bond_site_symmetry_2
_ccdc_geom_bond_type
C0 C1 1.384 . S
C0 H13 0.947 . S
C0 C35 1.382 . S
C1 C0 1.384 . S
C1 C2 1.378 . S
C2 C1 1.378 . S
C2 C3 1.378 . S
C2 H14 0.952 . S
C3 C2 1.378 . S
C3 H15 0.950 . S
C3 C34 1.383 . S
H4 C23 0.947 . S
H5 C24 0.946 . S
H6 C26 0.953 . S
H7 C27 0.945 . S
H8 C29 0.952 . S
H9 C30 0.949 . S
H10 C32 0.950 . S
H11 C33 0.948 . S
H12 C35 0.951 . S
H13 C0 0.947 . S
H14 C2 0.952 . S
H15 C3 0.950 . S
N16 C19 1.382 . S
N16 C21 1.363 . S
N17 C19 1.371 . S
N17 C20 1.372 . S
N18 C20 1.361 . S
N18 C21 1.377 . S
C19 N16 1.382 . S
C19 N17 1.371 . S
C19 C22 1.480 . S
C20 N17 1.372 . S
C20 N18 1.361 . S
C20 C28 1.457 . S
C21 N16 1.363 . S
C21 N18 1.377 . S
C21 C34 1.479 . S
C22 C19 1.480 . S
C22 C23 1.383 . S
C22 C27 1.385 . S
C23 H4 0.947 . S
C23 C22 1.383 . S
C23 C24 1.388 . S
C24 H5 0.946 . S
C24 C23 1.388 . S
C24 C25 1.384 . S
C25 C24 1.384 . S
C25 C26 1.377 . S
C26 H6 0.953 . S
C26 C25 1.377 . S
C26 C27 1.369 . S
C27 H7 0.945 . S
C27 C22 1.385 . S
C27 C26 1.369 . S
C28 C20 1.457 . S
C28 C29 1.372 . S
C28 C33 1.364 . S
C29 H8 0.952 . S
C29 C28 1.372 . S
C29 C30 1.389 . S
C30 H9 0.949 . S
C30 C29 1.389 . S
C30 C31 1.387 . S
C31 C30 1.387 . S
C31 C32 1.372 . S
C32 H10 0.950 . S
C32 C31 1.372 . S
C32 C33 1.379 . S
C33 H11 0.948 . S
C33 C28 1.364 . S
C33 C32 1.379 . S
C34 C3 1.383 . S
C34 C21 1.479 . S
C34 C35 1.398 . S
C35 C0 1.382 . S
C35 H12 0.951 . S
C35 C34 1.398 . S
C36 C37 1.384 1_556 S
C36 H49 0.947 . S
C36 C71 1.382 . S
C37 C36 1.384 1_554 S
C37 C38 1.378 1_554 S
C38 C37 1.378 1_556 S
C38 C39 1.378 . S
C38 H50 0.951 1_556 S
C39 C38 1.378 . S
C39 H51 0.950 . S
C39 C70 1.383 . S
H40 C59 0.947 . S
H41 C60 0.946 . S
H42 C62 0.953 . S
H43 C63 0.945 . S
H44 C65 0.952 . S
H45 C66 0.949 . S
H46 C68 0.950 . S
H47 C69 0.948 . S
H48 C71 0.951 . S
H49 C36 0.947 . S
H50 C38 0.951 1_554 S
H51 C39 0.950 . S
N52 C55 1.382 . S
N52 C57 1.363 . S
N53 C55 1.371 . S
N53 C56 1.372 . S
N54 C56 1.361 . S
N54 C57 1.377 . S
C55 N52 1.382 . S
C55 N53 1.371 . S
C55 C58 1.480 . S
C56 N53 1.372 . S
C56 N54 1.361 . S
C56 C64 1.457 . S
C57 N52 1.363 . S
C57 N54 1.377 . S
C57 C70 1.479 . S
C58 C55 1.480 . S
C58 C59 1.383 . S
C58 C63 1.385 . S
C59 H40 0.947 . S
C59 C58 1.383 . S
C59 C60 1.388 . S
C60 H41 0.946 . S
C60 C59 1.388 . S
C60 C61 1.384 . S
C61 C60 1.384 . S
C61 C62 1.377 . S
C62 H42 0.953 . S
C62 C61 1.377 . S
C62 C63 1.369 . S
C63 H43 0.945 . S
C63 C58 1.385 . S
C63 C62 1.369 . S
C64 C56 1.457 . S
C64 C65 1.372 . S
C64 C69 1.364 . S
C65 H44 0.952 . S
C65 C64 1.372 . S
C65 C66 1.389 . S
C66 H45 0.949 . S
C66 C65 1.389 . S
C66 C67 1.387 . S
C67 C66 1.387 . S
C67 C68 1.372 . S
C68 H46 0.950 . S
C68 C67 1.372 . S
C68 C69 1.379 . S
C69 H47 0.948 . S
C69 C64 1.364 . S
C69 C68 1.379 . S
C70 C39 1.383 . S
C70 C57 1.479 . S
C70 C71 1.398 . S
C71 C36 1.382 . S
C71 H48 0.951 . S
C71 C70 1.398 . S
C72 C73 1.384 . S
C72 H85 0.947 . S
C72 C107 1.382 . S
C73 C72 1.384 . S
C73 C74 1.378 . S
C74 C73 1.378 . S
C74 C75 1.378 . S
C74 H86 0.952 . S
C75 C74 1.378 . S
C75 H87 0.950 . S
C75 C106 1.383 . S
H76 C95 0.947 . S
H77 C96 0.946 . S
H78 C98 0.953 . S
H79 C99 0.945 . S
H80 C101 0.952 . S
H81 C102 0.949 . S
H82 C104 0.950 . S
H83 C105 0.948 . S
H84 C107 0.951 . S
H85 C72 0.947 . S
H86 C74 0.952 . S
H87 C75 0.950 . S
N88 C91 1.382 . S
N88 C93 1.363 . S
N89 C91 1.371 . S
N89 C92 1.372 . S
N90 C92 1.361 . S
N90 C93 1.377 . S
C91 N88 1.382 . S
C91 N89 1.371 . S
C91 C94 1.480 . S
C92 N89 1.372 . S
C92 N90 1.361 . S
C92 C100 1.457 . S
C93 N88 1.363 . S
C93 N90 1.377 . S
C93 C106 1.479 . S
C94 C91 1.480 . S
C94 C95 1.383 . S
C94 C99 1.385 . S
C95 H76 0.947 . S
C95 C94 1.383 . S
C95 C96 1.388 . S
C96 H77 0.946 . S
C96 C95 1.388 . S
C96 C97 1.384 . S
C97 C96 1.384 . S
C97 C98 1.377 . S
C98 H78 0.953 . S
C98 C97 1.377 . S
C98 C99 1.369 . S
C99 H79 0.945 . S
C99 C94 1.385 . S
C99 C98 1.369 . S
C100 C92 1.457 . S
C100 C101 1.372 . S
C100 C105 1.364 . S
C101 H80 0.952 . S
C101 C100 1.372 . S
C101 C102 1.389 . S
C102 H81 0.949 . S
C102 C101 1.389 . S
C102 C103 1.387 . S
C103 C102 1.387 . S
C103 C104 1.372 . S
C104 H82 0.950 . S
C104 C103 1.372 . S
C104 C105 1.379 . S
C105 H83 0.948 . S
C105 C100 1.364 . S
C105 C104 1.379 . S
C106 C75 1.383 . S
C106 C93 1.479 . S
C106 C107 1.398 . S
C107 C72 1.382 . S
C107 H84 0.951 . S
C107 C106 1.398 . S
C108 C109 1.396 . S
C108 H121 0.947 . S
C108 C143 1.382 . S
C109 C108 1.396 . S
C109 C110 1.389 . S
C110 C109 1.389 . S
C110 C111 1.378 . S
C110 H122 0.952 . S
C111 C110 1.378 . S
C111 H123 0.950 . S
C111 C142 1.383 . S
H112 C131 0.947 . S
H113 C132 0.946 . S
H114 C134 0.953 . S
H115 C135 0.945 . S
H116 C137 0.952 . S
H117 C138 0.949 . S
H118 C140 0.950 . S
H119 C141 0.948 . S
H120 C143 0.951 . S
H121 C108 0.947 . S
H122 C110 0.952 . S
H123 C111 0.950 . S
N124 C127 1.382 . S
N124 C129 1.363 . S
N125 C127 1.371 . S
N125 C128 1.372 . S
N126 C128 1.361 . S
N126 C129 1.377 . S
C127 N124 1.382 . S
C127 N125 1.371 . S
C127 C130 1.480 . S
C128 N125 1.372 . S
C128 N126 1.361 . S
C128 C136 1.457 . S
C129 N124 1.363 . S
C129 N126 1.377 . S
C129 C142 1.479 . S
C130 C127 1.480 . S
C130 C131 1.383 . S
C130 C135 1.385 . S
C131 H112 0.947 . S
C131 C130 1.383 . S
C131 C132 1.388 . S
C132 H113 0.946 . S
C132 C131 1.388 . S
C132 C133 1.384 . S
C133 C132 1.384 . S
C133 C134 1.377 . S
C134 H114 0.953 . S
C134 C133 1.377 . S
C134 C135 1.369 . S
C135 H115 0.945 . S
C135 C130 1.385 . S
C135 C134 1.369 . S
C136 C128 1.457 . S
C136 C137 1.372 . S
C136 C141 1.364 . S
C137 H116 0.952 . S
C137 C136 1.372 . S
C137 C138 1.389 . S
C138 H117 0.949 . S
C138 C137 1.389 . S
C138 C139 1.387 . S
C139 C138 1.387 . S
C139 C140 1.372 . S
C140 H118 0.950 . S
C140 C139 1.372 . S
C140 C141 1.379 . S
C141 H119 0.948 . S
C141 C136 1.364 . S
C141 C140 1.379 . S
C142 C111 1.383 . S
C142 C129 1.479 . S
C142 C143 1.398 . S
C143 C108 1.382 . S
C143 H120 0.951 . S
C143 C142 1.398 . S
C144 C145 1.384 . S
C144 H157 0.947 . S
C144 C179 1.382 . S
C145 C144 1.384 . S
C145 C146 1.378 . S
C146 C145 1.378 . S
C146 C147 1.378 . S
C146 H158 0.952 . S
C147 C146 1.378 . S
C147 H159 0.950 . S
C147 C178 1.383 . S
H148 C167 0.947 . S
H149 C168 0.946 . S
H150 C170 0.953 . S
H151 C171 0.945 . S
H152 C173 0.952 . S
H153 C174 0.949 . S
H154 C176 0.950 . S
H155 C177 0.948 . S
H156 C179 0.951 . S
H157 C144 0.947 . S
H158 C146 0.952 . S
H159 C147 0.950 . S
N160 C163 1.382 . S
N160 C165 1.363 . S
N161 C163 1.371 . S
N161 C164 1.372 . S
N162 C164 1.361 . S
N162 C165 1.377 . S
C163 N160 1.382 . S
C163 N161 1.371 . S
C163 C166 1.480 . S
C164 N161 1.372 . S
C164 N162 1.361 . S
C164 C172 1.457 . S
C165 N160 1.363 . S
C165 N162 1.377 . S
C165 C178 1.479 . S
C166 C163 1.480 . S
C166 C167 1.383 . S
C166 C171 1.385 . S
C167 H148 0.947 . S
C167 C166 1.383 . S
C167 C168 1.388 . S
C168 H149 0.946 . S
C168 C167 1.388 . S
C168 C169 1.384 . S
C169 C168 1.384 . S
C169 C170 1.377 . S
C170 H150 0.953 . S
C170 C169 1.377 . S
C170 C171 1.369 . S
C171 H151 0.945 . S
C171 C166 1.385 . S
C171 C170 1.369 . S
C172 C164 1.457 . S
C172 C173 1.372 . S
C172 C177 1.364 . S
C173 H152 0.952 . S
C173 C172 1.372 . S
C173 C174 1.389 . S
C174 H153 0.949 . S
C174 C173 1.389 . S
C174 C175 1.387 . S
C175 C174 1.387 . S
C175 C176 1.372 . S
C176 H154 0.950 . S
C176 C175 1.372 . S
C176 C177 1.379 . S
C177 H155 0.948 . S
C177 C172 1.364 . S
C177 C176 1.379 . S
C178 C147 1.383 . S
C178 C165 1.479 . S
C178 C179 1.398 . S
C179 C144 1.382 . S
C179 H156 0.951 . S
C179 C178 1.398 . S
C180 C181 1.384 1_554 S
C180 H193 0.947 . S
C180 C215 1.382 . S
C181 C180 1.384 1_556 S
C181 C182 1.378 1_556 S
C182 C181 1.378 1_554 S
C182 C183 1.378 . S
C182 H194 0.952 1_554 S
C183 C182 1.378 . S
C183 H195 0.950 . S
C183 C214 1.383 . S
H184 C203 0.947 . S
H185 C204 0.946 . S
H186 C206 0.953 . S
H187 C207 0.945 . S
H188 C209 0.952 . S
H189 C210 0.949 . S
H190 C212 0.950 . S
H191 C213 0.948 . S
H192 C215 0.951 . S
H193 C180 0.947 . S
H194 C182 0.952 1_556 S
H195 C183 0.950 . S
N196 C199 1.382 . S
N196 C201 1.363 . S
N197 C199 1.371 . S
N197 C200 1.372 . S
N198 C200 1.361 . S
N198 C201 1.377 . S
C199 N196 1.382 . S
C199 N197 1.371 . S
C199 C202 1.480 . S
C200 N197 1.372 . S
C200 N198 1.361 . S
C200 C208 1.457 . S
C201 N196 1.363 . S
C201 N198 1.377 . S
C201 C214 1.479 . S
C202 C199 1.480 . S
C202 C203 1.383 . S
C202 C207 1.385 . S
C203 H184 0.947 . S
C203 C202 1.383 . S
C203 C204 1.388 . S
C204 H185 0.946 . S
C204 C203 1.388 . S
C204 C205 1.384 . S
C205 C204 1.384 . S
C205 C206 1.377 . S
C206 H186 0.953 . S
C206 C205 1.377 . S
C206 C207 1.369 . S
C207 H187 0.945 . S
C207 C202 1.385 . S
C207 C206 1.369 . S
C208 C200 1.457 . S
C208 C209 1.372 . S
C208 C213 1.364 . S
C209 H188 0.952 . S
C209 C208 1.372 . S
C209 C210 1.389 . S
C210 H189 0.949 . S
C210 C209 1.389 . S
C210 C211 1.387 . S
C211 C210 1.387 . S
C211 C212 1.372 . S
C212 H190 0.950 . S
C212 C211 1.372 . S
C212 C213 1.379 . S
C213 H191 0.948 . S
C213 C208 1.364 . S
C213 C212 1.379 . S
C214 C183 1.383 . S
C214 C201 1.479 . S
C214 C215 1.398 . S
C215 C180 1.382 . S
C215 H192 0.951 . S
C215 C214 1.398 . S
C216 C217 1.384 . S
C216 H229 0.947 . S
C216 C251 1.382 . S
C217 C216 1.384 . S
C217 C218 1.378 . S
C218 C217 1.378 . S
C218 C219 1.378 . S
C218 H230 0.952 . S
C219 C218 1.378 . S
C219 H231 0.950 . S
C219 C250 1.383 . S
H220 C239 0.947 . S
H221 C240 0.946 . S
H222 C242 0.953 . S
H223 C243 0.945 . S
H224 C245 0.952 . S
H225 C246 0.949 . S
H226 C248 0.950 . S
H227 C249 0.948 . S
H228 C251 0.951 . S
H229 C216 0.947 . S
H230 C218 0.952 . S
H231 C219 0.950 . S
N232 C235 1.382 . S
N232 C237 1.363 . S
N233 C235 1.371 . S
N233 C236 1.372 . S
N234 C236 1.361 . S
N234 C237 1.377 . S
C235 N232 1.382 . S
C235 N233 1.371 . S
C235 C238 1.480 . S
C236 N233 1.372 . S
C236 N234 1.361 . S
C236 C244 1.457 . S
C237 N232 1.363 . S
C237 N234 1.377 . S
C237 C250 1.479 . S
C238 C235 1.480 . S
C238 C239 1.383 . S
C238 C243 1.385 . S
C239 H220 0.947 . S
C239 C238 1.383 . S
C239 C240 1.388 . S
C240 H221 0.946 . S
C240 C239 1.388 . S
C240 C241 1.384 . S
C241 C240 1.384 . S
C241 C242 1.377 . S
C242 H222 0.953 . S
C242 C241 1.377 . S
C242 C243 1.369 . S
C243 H223 0.945 . S
C243 C238 1.385 . S
C243 C242 1.369 . S
C244 C236 1.457 . S
C244 C245 1.372 . S
C244 C249 1.364 . S
C245 H224 0.952 . S
C245 C244 1.372 . S
C245 C246 1.389 . S
C246 H225 0.949 . S
C246 C245 1.389 . S
C246 C247 1.387 . S
C247 C246 1.387 . S
C247 C248 1.372 . S
C248 H226 0.950 . S
C248 C247 1.372 . S
C248 C249 1.379 . S
C249 H227 0.948 . S
C249 C244 1.364 . S
C249 C248 1.379 . S
C250 C219 1.383 . S
C250 C237 1.479 . S
C250 C251 1.398 . S
C251 C216 1.382 . S
C251 H228 0.951 . S
C251 C250 1.398 . S
C252 C253 1.368 1_556 S
C252 H265 0.947 . S
C252 C287 1.382 . S
C253 C252 1.368 1_554 S
C253 C254 1.369 1_554 S
C254 C253 1.369 1_556 S
C254 C255 1.378 . S
C254 H266 0.952 1_556 S
C255 C254 1.378 . S
C255 H267 0.950 . S
C255 C286 1.383 . S
H256 C275 0.947 . S
H257 C276 0.946 . S
H258 C278 0.953 . S
H259 C279 0.945 . S
H260 C281 0.952 . S
H261 C282 0.949 . S
H262 C284 0.950 . S
H263 C285 0.948 . S
H264 C287 0.951 . S
H265 C252 0.947 . S
H266 C254 0.952 1_554 S
H267 C255 0.950 . S
N268 C271 1.382 . S
N268 C273 1.363 . S
N269 C271 1.371 . S
N269 C272 1.372 . S
N270 C272 1.361 . S
N270 C273 1.377 . S
C271 N268 1.382 . S
C271 N269 1.371 . S
C271 C274 1.480 . S
C272 N269 1.372 . S
C272 N270 1.361 . S
C272 C280 1.457 . S
C273 N268 1.363 . S
C273 N270 1.377 . S
C273 C286 1.479 . S
C274 C271 1.480 . S
C274 C275 1.383 . S
C274 C279 1.385 . S
C275 H256 0.947 . S
C275 C274 1.383 . S
C275 C276 1.388 . S
C276 H257 0.946 . S
C276 C275 1.388 . S
C276 C277 1.384 . S
C277 C276 1.384 . S
C277 C278 1.377 . S
C278 H258 0.953 . S
C278 C277 1.377 . S
C278 C279 1.369 . S
C279 H259 0.945 . S
C279 C274 1.385 . S
C279 C278 1.369 . S
C280 C272 1.457 . S
C280 C281 1.372 . S
C280 C285 1.364 . S
C281 H260 0.952 . S
C281 C280 1.372 . S
C281 C282 1.389 . S
C282 H261 0.949 . S
C282 C281 1.389 . S
C282 C283 1.387 . S
C283 C282 1.387 . S
C283 C284 1.372 . S
C284 H262 0.950 . S
C284 C283 1.372 . S
C284 C285 1.379 . S
C285 H263 0.948 . S
C285 C280 1.364 . S
C285 C284 1.379 . S
C286 C255 1.383 . S
C286 C273 1.479 . S
C286 C287 1.398 . S
C287 C252 1.382 . S
C287 H264 0.951 . S
C287 C286 1.398 . S
Zn288 O294 1.920 1_455 S
Zn288 O300 1.898 . S
Zn288 O303 1.905 . S
Zn289 O297 1.905 1_655 S
Zn289 O298 1.898 . S
Zn289 O306 1.920 . S
Zn290 O293 2.080 1_455 S
Zn290 O296 2.114 . S
Zn290 O299 2.120 1_455 S
Zn290 O301 2.120 . S
Zn290 O302 2.114 . S
Zn290 O305 2.080 1_455 S
C291 O296 1.166 . S
C291 O297 1.182 . S
C292 O298 1.167 . S
C292 O299 1.299 . S
O293 Zn290 2.080 1_655 S
O293 C307 1.305 . S
O294 Zn288 1.920 1_655 S
O294 C307 1.234 . S
C295 O300 1.167 . S
C295 O301 1.299 . S
O296 Zn290 2.114 . S
O296 C291 1.166 . S
O297 Zn289 1.905 1_455 S
O297 C291 1.182 . S
O298 Zn289 1.898 . S
O298 C292 1.167 . S
O299 Zn290 2.120 1_655 S
O299 C292 1.299 . S
O300 Zn288 1.898 . S
O300 C295 1.167 . S
O301 Zn290 2.120 . S
O301 C295 1.299 . S
O302 Zn290 2.114 . S
O302 C304 1.166 . S
O303 Zn288 1.905 . S
O303 C304 1.182 . S
C304 O302 1.166 . S
C304 O303 1.182 . S
O305 Zn290 2.080 1_655 S
O305 C308 1.305 . S
O306 Zn289 1.920 . S
O306 C308 1.234 . S
C307 O293 1.305 . S
C307 O294 1.234 . S
C308 O305 1.305 . S
C308 O306 1.234 . S
Zn309 O315 1.920 . S
Zn309 O321 1.898 . S
Zn309 O324 1.905 . S
Zn310 O318 1.905 . S
Zn310 O319 1.898 . S
Zn310 O327 1.920 . S
Zn311 O314 2.080 . S
Zn311 O317 2.114 . S
Zn311 O320 2.120 . S
Zn311 O322 2.120 . S
Zn311 O323 2.114 . S
Zn311 O326 2.080 . S
C312 O317 1.166 . S
C312 O318 1.182 . S
C313 O319 1.167 . S
C313 O320 1.299 . S
O314 Zn311 2.080 . S
O314 C328 1.305 . S
O315 Zn309 1.920 . S
O315 C328 1.234 . S
C316 O321 1.167 . S
C316 O322 1.299 . S
O317 Zn311 2.114 . S
O317 C312 1.166 . S
O318 Zn310 1.905 . S
O318 C312 1.182 . S
O319 Zn310 1.898 . S
O319 C313 1.167 . S
O320 Zn311 2.120 . S
O320 C313 1.299 . S
O321 Zn309 1.898 . S
O321 C316 1.167 . S
O322 Zn311 2.120 . S
O322 C316 1.299 . S
O323 Zn311 2.114 . S
O323 C325 1.166 . S
O324 Zn309 1.905 . S
O324 C325 1.182 . S
C325 O323 1.166 . S
C325 O324 1.182 . S
O326 Zn311 2.080 . S
O326 C329 1.305 . S
O327 Zn310 1.920 . S
O327 C329 1.234 . S
C328 O314 1.305 . S
C328 O315 1.234 . S
C329 O326 1.305 . S
C329 O327 1.234 . S
Zn330 O336 1.920 . S
Zn330 O342 1.898 . S
Zn330 O345 1.905 1_455 S
Zn331 O339 1.905 . S
Zn331 O340 1.898 . S
Zn331 O348 1.920 1_655 S
Zn332 O335 2.080 . S
Zn332 O338 2.114 1_455 S
Zn332 O341 2.120 1_455 S
Zn332 O343 2.120 . S
Zn332 O344 2.114 1_455 S
Zn332 O347 2.080 . S
C333 O338 1.166 . S
C333 O339 1.182 . S
C334 O340 1.167 . S
C334 O341 1.299 . S
O335 Zn332 2.080 . S
O335 C349 1.305 . S
O336 Zn330 1.920 . S
O336 C349 1.234 . S
C337 O342 1.167 . S
C337 O343 1.299 . S
O338 Zn332 2.114 1_655 S
O338 C333 1.166 . S
O339 Zn331 1.905 . S
O339 C333 1.182 . S
O340 Zn331 1.898 . S
O340 C334 1.167 . S
O341 Zn332 2.120 1_655 S
O341 C334 1.299 . S
O342 Zn330 1.898 . S
O342 C337 1.167 . S
O343 Zn332 2.120 . S
O343 C337 1.299 . S
O344 Zn332 2.114 1_655 S
O344 C346 1.166 . S
O345 Zn330 1.905 1_655 S
O345 C346 1.182 . S
C346 O344 1.166 . S
C346 O345 1.182 . S
O347 Zn332 2.080 . S
O347 C350 1.305 . S
O348 Zn331 1.920 1_455 S
O348 C350 1.234 . S
C349 O335 1.305 . S
C349 O336 1.234 . S
C350 O347 1.305 . S
C350 O348 1.234 . S
Zn351 O357 1.920 . S
Zn351 O363 1.898 . S
Zn351 O366 1.905 . S
Zn352 O360 1.905 . S
Zn352 O361 1.898 . S
Zn352 O369 1.920 . S
Zn353 O356 2.080 . S
Zn353 O359 2.114 . S
Zn353 O362 2.120 . S
Zn353 O364 2.120 . S
Zn353 O365 2.114 . S
Zn353 O368 2.080 . S
C354 O359 1.166 . S
C354 O360 1.182 . S
C355 O361 1.167 . S
C355 O362 1.299 . S
O356 Zn353 2.080 . S
O356 C370 1.305 . S
O357 Zn351 1.920 . S
O357 C370 1.234 . S
C358 O363 1.167 . S
C358 O364 1.299 . S
O359 Zn353 2.114 . S
O359 C354 1.166 . S
O360 Zn352 1.905 . S
O360 C354 1.182 . S
O361 Zn352 1.898 . S
O361 C355 1.167 . S
O362 Zn353 2.120 . S
O362 C355 1.299 . S
O363 Zn351 1.898 . S
O363 C358 1.167 . S
O364 Zn353 2.120 . S
O364 C358 1.299 . S
O365 Zn353 2.114 . S
O365 C367 1.166 . S
O366 Zn351 1.905 . S
O366 C367 1.182 . S
C367 O365 1.166 . S
C367 O366 1.182 . S
O368 Zn353 2.080 . S
O368 C371 1.305 . S
O369 Zn352 1.920 . S
O369 C371 1.234 . S
C370 O356 1.305 . S
C370 O357 1.234 . S
C371 O368 1.305 . S
C371 O369 1.234 . S
H372 C380 0.950 . S
H373 C385 0.950 . S
H374 C382 0.950 1_545 S
H375 C384 0.950 . S
H376 C386 0.950 . S
H377 C388 0.950 . S
H378 C390 0.950 . S
H379 C391 0.950 . S
C380 H372 0.950 . S
C380 C381 1.386 . S
C380 C382 1.391 . S
C381 C380 1.386 . S
C381 C385 1.393 . S
C382 H374 0.950 1_565 S
C382 C380 1.391 . S
C382 C383 1.400 1_565 S
C383 C382 1.400 1_545 S
C383 C384 1.398 1_545 S
C383 C389 1.491 . S
C384 H375 0.950 . S
C384 C383 1.398 1_565 S
C384 C385 1.391 . S
C385 H373 0.950 . S
C385 C381 1.393 . S
C385 C384 1.391 . S
C386 H376 0.950 . S
C386 C387 1.386 . S
C386 C388 1.391 . S
C387 C386 1.386 . S
C387 C391 1.393 . S
C388 H377 0.950 . S
C388 C386 1.391 . S
C388 C389 1.400 . S
C389 C383 1.491 . S
C389 C388 1.400 . S
C389 C390 1.398 . S
C390 H378 0.950 . S
C390 C389 1.398 . S
C390 C391 1.391 . S
C391 H379 0.950 . S
C391 C387 1.393 . S
C391 C390 1.391 . S
H392 C400 0.950 . S
H393 C405 0.950 . S
H394 C402 0.950 . S
H395 C404 0.950 . S
H396 C406 0.950 . S
H397 C408 0.950 . S
H398 C410 0.950 . S
H399 C411 0.950 . S
C400 H392 0.950 . S
C400 C401 1.386 . S
C400 C402 1.391 . S
C401 C400 1.386 . S
C401 C405 1.393 . S
C402 H394 0.950 . S
C402 C400 1.391 . S
C402 C403 1.400 . S
C403 C402 1.400 . S
C403 C404 1.398 . S
C403 C409 1.491 . S
C404 H395 0.950 . S
C404 C403 1.398 . S
C404 C405 1.391 . S
C405 H393 0.950 . S
C405 C401 1.393 . S
C405 C404 1.391 . S
C406 H396 0.950 . S
C406 C407 1.386 . S
C406 C408 1.391 . S
C407 C406 1.386 . S
C407 C411 1.393 . S
C408 H397 0.950 . S
C408 C406 1.391 . S
C408 C409 1.400 . S
C409 C403 1.491 . S
C409 C408 1.400 . S
C409 C410 1.398 . S
C410 H398 0.950 . S
C410 C409 1.398 . S
C410 C411 1.391 . S
C411 H399 0.950 . S
C411 C407 1.393 . S
C411 C410 1.391 . S
H412 C420 0.950 . S
H413 C425 0.950 . S
H414 C422 0.950 . S
H415 C424 0.950 . S
H416 C426 0.950 . S
H417 C428 0.950 . S
H418 C430 0.950 . S
H419 C431 0.950 . S
C420 H412 0.950 . S
C420 C421 1.386 . S
C420 C422 1.391 . S
C421 C420 1.386 . S
C421 C425 1.393 . S
C422 H414 0.950 . S
C422 C420 1.391 . S
C422 C423 1.400 . S
C423 C422 1.400 . S
C423 C424 1.398 . S
C423 C429 1.491 . S
C424 H415 0.950 . S
C424 C423 1.398 . S
C424 C425 1.391 . S
C425 H413 0.950 . S
C425 C421 1.393 . S
C425 C424 1.391 . S
C426 H416 0.950 . S
C426 C427 1.386 . S
C426 C428 1.391 . S
C427 C426 1.386 . S
C427 C431 1.393 . S
C428 H417 0.950 . S
C428 C426 1.391 . S
C428 C429 1.400 . S
C429 C423 1.491 . S
C429 C428 1.400 . S
C429 C430 1.398 . S
C430 H418 0.950 . S
C430 C429 1.398 . S
C430 C431 1.391 . S
C431 H419 0.950 . S
C431 C427 1.393 . S
C431 C430 1.391 . S
H432 C440 0.950 . S
H433 C445 0.950 . S
H434 C442 0.950 . S
H435 C444 0.959 . S
H436 C446 0.950 . S
H437 C448 0.950 . S
H438 C450 0.950 . S
H439 C451 0.950 . S
C440 H432 0.950 . S
C440 C441 1.386 . S
C440 C442 1.391 . S
C441 C440 1.386 . S
C441 C445 1.393 . S
C442 H434 0.950 . S
C442 C440 1.391 . S
C442 C443 1.400 1_565 S
C443 C442 1.400 1_545 S
C443 C444 1.399 . S
C443 C449 1.491 . S
C444 H435 0.959 . S
C444 C443 1.399 . S
C444 C445 1.382 1_545 S
C445 H433 0.950 . S
C445 C441 1.393 . S
C445 C444 1.382 1_565 S
C446 H436 0.950 . S
C446 C447 1.386 . S
C446 C448 1.391 . S
C447 C446 1.386 . S
C447 C451 1.393 . S
C448 H437 0.950 . S
C448 C446 1.391 . S
C448 C449 1.400 . S
C449 C443 1.491 . S
C449 C448 1.400 . S
C449 C450 1.398 . S
C450 H438 0.950 . S
C450 C449 1.398 . S
C450 C451 1.391 . S
C451 H439 0.950 . S
C451 C447 1.393 . S
C451 C450 1.391 . S
H452 C460 0.950 . S
H453 C465 0.950 . S
H454 C462 0.950 . S
H455 C464 0.950 . S
H456 C466 0.950 . S
H457 C468 0.950 . S
H458 C470 0.950 . S
H459 C471 0.950 . S
C460 H452 0.950 . S
C460 C461 1.386 . S
C460 C462 1.391 1_545 S
C461 C460 1.386 . S
C461 C465 1.393 . S
C462 H454 0.950 . S
C462 C460 1.391 1_565 S
C462 C463 1.400 . S
C463 C462 1.400 . S
C463 C464 1.398 1_565 S
C463 C469 1.491 . S
C464 H455 0.950 . S
C464 C463 1.398 1_545 S
C464 C465 1.391 . S
C465 H453 0.950 . S
C465 C461 1.393 . S
C465 C464 1.391 . S
C466 H456 0.950 . S
C466 C467 1.386 . S
C466 C468 1.391 . S
C467 C466 1.386 . S
C467 C471 1.393 . S
C468 H457 0.950 . S
C468 C466 1.391 . S
C468 C469 1.400 . S
C469 C463 1.491 . S
C469 C468 1.400 . S
C469 C470 1.398 . S
C470 H458 0.950 . S
C470 C469 1.398 . S
C470 C471 1.391 . S
C471 H459 0.950 . S
C471 C467 1.393 . S
C471 C470 1.391 . S
H472 C480 0.950 . S
H473 C485 0.950 . S
H474 C482 0.950 . S
H475 C484 0.950 . S
H476 C486 0.950 . S
H477 C488 0.950 . S
H478 C490 0.950 . S
H479 C491 0.950 . S
C480 H472 0.950 . S
C480 C481 1.386 . S
C480 C482 1.391 . S
C481 C480 1.386 . S
C481 C485 1.393 . S
C482 H474 0.950 . S
C482 C480 1.391 . S
C482 C483 1.400 . S
C483 C482 1.400 . S
C483 C484 1.398 . S
C483 C489 1.491 . S
C484 H475 0.950 . S
C484 C483 1.398 . S
C484 C485 1.391 . S
C485 H473 0.950 . S
C485 C481 1.393 . S
C485 C484 1.391 . S
C486 H476 0.950 . S
C486 C487 1.386 . S
C486 C488 1.391 . S
C487 C486 1.386 . S
C487 C491 1.393 . S
C488 H477 0.950 . S
C488 C486 1.391 . S
C488 C489 1.400 . S
C489 C483 1.491 . S
C489 C488 1.400 . S
C489 C490 1.398 . S
C490 H478 0.950 . S
C490 C489 1.398 . S
C490 C491 1.391 . S
C491 H479 0.950 . S
C491 C487 1.393 . S
C491 C490 1.391 . S
H492 C500 0.950 . S
H493 C505 0.950 . S
H494 C502 0.950 . S
H495 C504 0.950 . S
H496 C506 0.950 . S
H497 C508 0.950 . S
H498 C510 0.950 . S
H499 C511 0.950 . S
C500 H492 0.950 . S
C500 C501 1.386 . S
C500 C502 1.391 . S
C501 C500 1.386 . S
C501 C505 1.393 . S
C502 H494 0.950 . S
C502 C500 1.391 . S
C502 C503 1.400 . S
C503 C502 1.400 . S
C503 C504 1.398 . S
C503 C509 1.491 . S
C504 H495 0.950 . S
C504 C503 1.398 . S
C504 C505 1.391 . S
C505 H493 0.950 . S
C505 C501 1.393 . S
C505 C504 1.391 . S
C506 H496 0.950 . S
C506 C507 1.386 . S
C506 C508 1.391 . S
C507 C506 1.386 . S
C507 C511 1.393 . S
C508 H497 0.950 . S
C508 C506 1.391 . S
C508 C509 1.400 . S
C509 C503 1.491 . S
C509 C508 1.400 . S
C509 C510 1.398 . S
C510 H498 0.950 . S
C510 C509 1.398 . S
C510 C511 1.391 . S
C511 H499 0.950 . S
C511 C507 1.393 . S
C511 C510 1.391 . S
H512 C520 0.950 . S
H513 C525 0.950 . S
H514 C522 0.950 . S
H515 C524 0.950 . S
H516 C526 0.950 . S
H517 C528 0.950 . S
H518 C530 0.950 . S
H519 C531 0.950 . S
C520 H512 0.950 . S
C520 C521 1.386 . S
C520 C522 1.391 . S
C521 C520 1.386 . S
C521 C525 1.393 . S
C522 H514 0.950 . S
C522 C520 1.391 . S
C522 C523 1.400 1_545 S
C523 C522 1.400 1_565 S
C523 C524 1.398 . S
C523 C529 1.491 . S
C524 H515 0.950 . S
C524 C523 1.398 . S
C524 C525 1.390 1_565 S
C525 H513 0.950 . S
C525 C521 1.393 . S
C525 C524 1.390 1_545 S
C526 H516 0.950 . S
C526 C527 1.386 . S
C526 C528 1.391 . S
C527 C526 1.386 . S
C527 C531 1.393 . S
C528 H517 0.950 . S
C528 C526 1.391 . S
C528 C529 1.400 . S
C529 C523 1.491 . S
C529 C528 1.400 . S
C529 C530 1.398 . S
C530 H518 0.950 . S
C530 C529 1.398 . S
C530 C531 1.391 . S
C531 H519 0.950 . S
C531 C527 1.393 . S
C531 C530 1.391 . S
H532 C540 0.950 . S
H533 C545 0.950 . S
H534 C542 0.950 . S
H535 C544 0.950 . S
H536 C546 0.950 . S
H537 C548 0.950 . S
H538 C550 0.950 . S
H539 C551 0.950 . S
C540 H532 0.950 . S
C540 C541 1.386 . S
C540 C542 1.391 . S
C541 C540 1.386 . S
C541 C545 1.393 . S
C542 H534 0.950 . S
C542 C540 1.391 . S
C542 C543 1.400 . S
C543 C542 1.400 . S
C543 C544 1.398 . S
C543 C549 1.491 . S
C544 H535 0.950 . S
C544 C543 1.398 . S
C544 C545 1.391 . S
C545 H533 0.950 . S
C545 C541 1.393 . S
C545 C544 1.391 . S
C546 H536 0.950 . S
C546 C547 1.386 . S
C546 C548 1.391 . S
C547 C546 1.386 . S
C547 C551 1.393 . S
C548 H537 0.950 . S
C548 C546 1.391 . S
C548 C549 1.400 . S
C549 C543 1.491 . S
C549 C548 1.400 . S
C549 C550 1.398 . S
C550 H538 0.950 . S
C550 C549 1.398 . S
C550 C551 1.391 . S
C551 H539 0.950 . S
C551 C547 1.393 . S
C551 C550 1.391 . S
H552 C560 0.950 . S
H553 C565 0.950 . S
H554 C562 0.950 . S
H555 C564 0.950 . S
H556 C566 0.950 . S
H557 C568 0.950 . S
H558 C570 0.950 . S
H559 C571 0.950 . S
C560 H552 0.950 . S
C560 C561 1.386 . S
C560 C562 1.391 . S
C561 C560 1.386 . S
C561 C565 1.393 . S
C562 H554 0.950 . S
C562 C560 1.391 . S
C562 C563 1.400 . S
C563 C562 1.400 . S
C563 C564 1.398 . S
C563 C569 1.491 . S
C564 H555 0.950 . S
C564 C563 1.398 . S
C564 C565 1.391 . S
C565 H553 0.950 . S
C565 C561 1.393 . S
C565 C564 1.391 . S
C566 H556 0.950 . S
C566 C567 1.386 . S
C566 C568 1.391 . S
C567 C566 1.386 . S
C567 C571 1.393 . S
C568 H557 0.950 . S
C568 C566 1.391 . S
C568 C569 1.400 . S
C569 C563 1.491 . S
C569 C568 1.400 . S
C569 C570 1.398 . S
C570 H558 0.950 . S
C570 C569 1.398 . S
C570 C571 1.391 . S
C571 H559 0.950 . S
C571 C567 1.393 . S
C571 C570 1.391 . S
H572 C580 0.950 . S
H573 C585 0.950 . S
H574 C582 0.950 . S
H575 C584 0.950 . S
H576 C586 0.950 . S
H577 C588 0.950 . S
H578 C590 0.950 . S
H579 C591 0.950 . S
C580 H572 0.950 . S
C580 C581 1.386 . S
C580 C582 1.391 . S
C581 C580 1.386 . S
C581 C585 1.393 . S
C582 H574 0.950 . S
C582 C580 1.391 . S
C582 C583 1.400 . S
C583 C582 1.400 . S
C583 C584 1.398 . S
C583 C589 1.491 . S
C584 H575 0.950 . S
C584 C583 1.398 . S
C584 C585 1.391 . S
C585 H573 0.950 . S
C585 C581 1.393 . S
C585 C584 1.391 . S
C586 H576 0.950 . S
C586 C587 1.386 . S
C586 C588 1.391 . S
C587 C586 1.386 . S
C587 C591 1.393 . S
C588 H577 0.950 . S
C588 C586 1.391 . S
C588 C589 1.400 . S
C589 C583 1.491 . S
C589 C588 1.400 . S
C589 C590 1.398 . S
C590 H578 0.950 . S
C590 C589 1.398 . S
C590 C591 1.391 . S
C591 H579 0.950 . S
C591 C587 1.393 . S
C591 C590 1.391 . S
H592 C600 0.950 . S
H593 C605 0.950 . S
H594 C602 0.950 . S
H595 C604 0.950 . S
H596 C606 0.950 . S
H597 C608 0.950 . S
H598 C610 0.950 . S
H599 C611 0.950 . S
C600 H592 0.950 . S
C600 C601 1.386 . S
C600 C602 1.391 . S
C601 C600 1.386 . S
C601 C605 1.393 . S
C602 H594 0.950 . S
C602 C600 1.391 . S
C602 C603 1.400 . S
C603 C602 1.400 . S
C603 C604 1.398 . S
C603 C609 1.491 . S
C604 H595 0.950 . S
C604 C603 1.398 . S
C604 C605 1.391 . S
C605 H593 0.950 . S
C605 C601 1.393 . S
C605 C604 1.391 . S
C606 H596 0.950 . S
C606 C607 1.386 . S
C606 C608 1.391 . S
C607 C606 1.386 . S
C607 C611 1.393 . S
C608 H597 0.950 . S
C608 C606 1.391 . S
C608 C609 1.400 . S
C609 C603 1.491 . S
C609 C608 1.400 . S
C609 C610 1.398 . S
C610 H598 0.950 . S
C610 C609 1.398 . S
C610 C611 1.391 . S
C611 H599 0.950 . S
C611 C607 1.393 . S
C611 C610 1.391 . S
H612 C620 0.950 . S
H613 C625 0.950 . S
H614 C622 0.950 . S
H615 C624 0.950 . S
H616 C626 0.950 . S
H617 C628 0.950 . S
H618 C630 0.950 . S
H619 C631 0.950 . S
C620 H612 0.950 . S
C620 C621 1.386 . S
C620 C622 1.391 . S
C621 C620 1.386 . S
C621 C625 1.393 . S
C622 H614 0.950 . S
C622 C620 1.391 . S
C622 C623 1.400 . S
C623 C622 1.400 . S
C623 C624 1.398 . S
C623 C629 1.491 . S
C624 H615 0.950 . S
C624 C623 1.398 . S
C624 C625 1.391 . S
C625 H613 0.950 . S
C625 C621 1.393 . S
C625 C624 1.391 . S
C626 H616 0.950 . S
C626 C627 1.386 . S
C626 C628 1.391 . S
C627 C626 1.386 . S
C627 C631 1.393 . S
C628 H617 0.950 . S
C628 C626 1.391 . S
C628 C629 1.400 . S
C629 C623 1.491 . S
C629 C628 1.400 . S
C629 C630 1.398 . S
C630 H618 0.950 . S
C630 C629 1.398 . S
C630 C631 1.391 . S
C631 H619 0.950 . S
C631 C627 1.393 . S
C631 C630 1.391 . S
H632 C640 0.950 . S
H633 C645 0.950 . S
H634 C642 0.950 . S
H635 C644 0.950 . S
H636 C646 0.950 . S
H637 C648 0.950 . S
H638 C650 0.950 . S
H639 C651 0.950 . S
C640 H632 0.950 . S
C640 C641 1.386 . S
C640 C642 1.391 . S
C641 C640 1.386 . S
C641 C645 1.393 . S
C642 H634 0.950 . S
C642 C640 1.391 . S
C642 C643 1.400 . S
C643 C642 1.400 . S
C643 C644 1.398 . S
C643 C649 1.491 . S
C644 H635 0.950 . S
C644 C643 1.398 . S
C644 C645 1.391 . S
C645 H633 0.950 . S
C645 C641 1.393 . S
C645 C644 1.391 . S
C646 H636 0.950 . S
C646 C647 1.386 . S
C646 C648 1.391 . S
C647 C646 1.386 . S
C647 C651 1.393 . S
C648 H637 0.950 . S
C648 C646 1.391 . S
C648 C649 1.400 . S
C649 C643 1.491 . S
C649 C648 1.400 . S
C649 C650 1.398 . S
C650 H638 0.950 . S
C650 C649 1.398 . S
C650 C651 1.391 . S
C651 H639 0.950 . S
C651 C647 1.393 . S
C651 C650 1.391 . S
H652 C660 0.950 . S
H653 C665 0.950 . S
H654 C662 0.950 . S
H655 C664 0.950 . S
H656 C666 0.950 . S
H657 C668 0.950 . S
H658 C670 0.950 . S
H659 C671 0.950 . S
C660 H652 0.950 . S
C660 C661 1.386 . S
C660 C662 1.391 . S
C661 C660 1.386 . S
C661 C665 1.393 . S
C662 H654 0.950 . S
C662 C660 1.391 . S
C662 C663 1.400 . S
C663 C662 1.400 . S
C663 C664 1.398 . S
C663 C669 1.491 . S
C664 H655 0.950 . S
C664 C663 1.398 . S
C664 C665 1.391 . S
C665 H653 0.950 . S
C665 C661 1.393 . S
C665 C664 1.391 . S
C666 H656 0.950 . S
C666 C667 1.386 . S
C666 C668 1.391 . S
C667 C666 1.386 . S
C667 C671 1.393 . S
C668 H657 0.950 . S
C668 C666 1.391 . S
C668 C669 1.400 . S
C669 C663 1.491 . S
C669 C668 1.400 . S
C669 C670 1.398 . S
C670 H658 0.950 . S
C670 C669 1.398 . S
C670 C671 1.391 . S
C671 H659 0.950 . S
C671 C667 1.393 . S
C671 C670 1.391 . S
H672 C680 0.950 . S
H673 C685 0.950 . S
H674 C682 0.950 . S
H675 C684 0.950 . S
H676 C686 0.950 . S
H677 C688 0.950 . S
H678 C690 0.950 . S
H679 C691 0.950 . S
C680 H672 0.950 . S
C680 C681 1.386 . S
C680 C682 1.391 . S
C681 C680 1.386 . S
C681 C685 1.393 . S
C682 H674 0.950 . S
C682 C680 1.391 . S
C682 C683 1.400 . S
C683 C682 1.400 . S
C683 C684 1.398 . S
C683 C689 1.491 . S
C684 H675 0.950 . S
C684 C683 1.398 . S
C684 C685 1.391 . S
C685 H673 0.950 . S
C685 C681 1.393 . S
C685 C684 1.391 . S
C686 H676 0.950 . S
C686 C687 1.386 . S
C686 C688 1.391 . S
C687 C686 1.386 . S
C687 C691 1.393 . S
C688 H677 0.950 . S
C688 C686 1.391 . S
C688 C689 1.400 . S
C689 C683 1.491 . S
C689 C688 1.400 . S
C689 C690 1.398 . S
C690 H678 0.950 . S
C690 C689 1.398 . S
C690 C691 1.391 . S
C691 H679 0.950 . S
C691 C687 1.393 . S
C691 C690 1.391 . S
H692 C700 0.950 . S
H693 C705 0.950 . S
H694 C702 0.950 . S
H695 C704 0.950 . S
H696 C706 0.950 . S
H697 C708 0.950 . S
H698 C710 0.950 . S
H699 C711 0.950 . S
C700 H692 0.950 . S
C700 C701 1.386 . S
C700 C702 1.391 . S
C701 C700 1.386 . S
C701 C705 1.393 . S
C702 H694 0.950 . S
C702 C700 1.391 . S
C702 C703 1.400 . S
C703 C702 1.400 . S
C703 C704 1.398 . S
C703 C709 1.491 . S
C704 H695 0.950 . S
C704 C703 1.398 . S
C704 C705 1.391 . S
C705 H693 0.950 . S
C705 C701 1.393 . S
C705 C704 1.391 . S
C706 H696 0.950 . S
C706 C707 1.386 . S
C706 C708 1.391 . S
C707 C706 1.386 . S
C707 C711 1.393 . S
C708 H697 0.950 . S
C708 C706 1.391 . S
C708 C709 1.400 . S
C709 C703 1.491 . S
C709 C708 1.400 . S
C709 C710 1.398 . S
C710 H698 0.950 . S
C710 C709 1.398 . S
C710 C711 1.391 . S
C711 H699 0.950 . S
C711 C707 1.393 . S
C711 C710 1.391 . S
H712 C720 0.950 . S
H713 C725 0.950 . S
H714 C722 0.950 . S
H715 C724 0.950 . S
H716 C726 0.950 . S
H717 C728 0.950 . S
H718 C730 0.950 . S
H719 C731 0.950 . S
C720 H712 0.950 . S
C720 C721 1.386 . S
C720 C722 1.391 . S
C721 C720 1.386 . S
C721 C725 1.393 . S
C722 H714 0.950 . S
C722 C720 1.391 . S
C722 C723 1.400 . S
C723 C722 1.400 . S
C723 C724 1.398 . S
C723 C729 1.491 . S
C724 H715 0.950 . S
C724 C723 1.398 . S
C724 C725 1.391 . S
C725 H713 0.950 . S
C725 C721 1.393 . S
C725 C724 1.391 . S
C726 H716 0.950 . S
C726 C727 1.386 . S
C726 C728 1.391 . S
C727 C726 1.386 . S
C727 C731 1.393 . S
C728 H717 0.950 . S
C728 C726 1.391 . S
C728 C729 1.400 . S
C729 C723 1.491 . S
C729 C728 1.400 . S
C729 C730 1.398 . S
C730 H718 0.950 . S
C730 C729 1.398 . S
C730 C731 1.391 . S
C731 H719 0.950 . S
C731 C727 1.393 . S
C731 C730 1.391 . S
H732 C740 0.950 . S
H733 C745 0.950 . S
H734 C742 0.950 . S
H735 C744 0.950 . S
H736 C746 0.950 . S
H737 C748 0.950 . S
H738 C750 0.950 . S
H739 C751 0.950 . S
C740 H732 0.950 . S
C740 C741 1.386 . S
C740 C742 1.391 . S
C741 C740 1.386 . S
C741 C745 1.393 . S
C742 H734 0.950 . S
C742 C740 1.391 . S
C742 C743 1.400 . S
C743 C742 1.400 . S
C743 C744 1.398 . S
C743 C749 1.491 . S
C744 H735 0.950 . S
C744 C743 1.398 . S
C744 C745 1.391 . S
C745 H733 0.950 . S
C745 C741 1.393 . S
C745 C744 1.391 . S
C746 H736 0.950 . S
C746 C747 1.386 . S
C746 C748 1.391 . S
C747 C746 1.386 . S
C747 C751 1.393 . S
C748 H737 0.950 . S
C748 C746 1.391 . S
C748 C749 1.400 . S
C749 C743 1.491 . S
C749 C748 1.400 . S
C749 C750 1.398 . S
C750 H738 0.950 . S
C750 C749 1.398 . S
C750 C751 1.391 . S
C751 H739 0.950 . S
C751 C747 1.393 . S
C751 C750 1.391 . S
H752 C760 0.950 . S
H753 C765 0.950 . S
H754 C762 0.950 . S
H755 C764 0.950 . S
H756 C766 0.950 . S
H757 C768 0.950 . S
H758 C770 0.950 . S
H759 C771 0.950 . S
C760 H752 0.950 . S
C760 C761 1.386 . S
C760 C762 1.391 . S
C761 C760 1.386 . S
C761 C765 1.393 . S
C762 H754 0.950 . S
C762 C760 1.391 . S
C762 C763 1.400 . S
C763 C762 1.400 . S
C763 C764 1.398 . S
C763 C769 1.491 . S
C764 H755 0.950 . S
C764 C763 1.398 . S
C764 C765 1.391 . S
C765 H753 0.950 . S
C765 C761 1.393 . S
C765 C764 1.391 . S
C766 H756 0.950 . S
C766 C767 1.386 . S
C766 C768 1.391 . S
C767 C766 1.386 . S
C767 C771 1.393 . S
C768 H757 0.950 . S
C768 C766 1.391 . S
C768 C769 1.400 . S
C769 C763 1.491 . S
C769 C768 1.400 . S
C769 C770 1.398 . S
C770 H758 0.950 . S
C770 C769 1.398 . S
C770 C771 1.391 . S
C771 H759 0.950 . S
C771 C767 1.393 . S
C771 C770 1.391 . S
H772 C780 0.950 . S
H773 C785 0.950 . S
H774 C782 0.950 . S
H775 C784 0.950 . S
H776 C786 0.950 . S
H777 C788 0.950 . S
H778 C790 0.950 . S
H779 C791 0.950 . S
C780 H772 0.950 . S
C780 C781 1.386 . S
C780 C782 1.391 . S
C781 C780 1.386 . S
C781 C785 1.393 . S
C782 H774 0.950 . S
C782 C780 1.391 . S
C782 C783 1.400 . S
C783 C782 1.400 . S
C783 C784 1.398 . S
C783 C789 1.491 . S
C784 H775 0.950 . S
C784 C783 1.398 . S
C784 C785 1.391 . S
C785 H773 0.950 . S
C785 C781 1.393 . S
C785 C784 1.391 . S
C786 H776 0.950 . S
C786 C787 1.386 . S
C786 C788 1.391 . S
C787 C786 1.386 . S
C787 C791 1.393 . S
C788 H777 0.950 . S
C788 C786 1.391 . S
C788 C789 1.400 . S
C789 C783 1.491 . S
C789 C788 1.400 . S
C789 C790 1.398 . S
C790 H778 0.950 . S
C790 C789 1.398 . S
C790 C791 1.391 . S
C791 H779 0.950 . S
C791 C787 1.393 . S
C791 C790 1.391 . S
H792 C800 0.950 . S
H793 C805 0.950 . S
H794 C802 0.950 . S
H795 C804 0.950 . S
H796 C806 0.950 . S
H797 C808 0.950 . S
H798 C810 0.950 . S
H799 C811 0.950 . S
C800 H792 0.950 . S
C800 C801 1.386 . S
C800 C802 1.391 . S
C801 C800 1.386 . S
C801 C805 1.393 . S
C802 H794 0.950 . S
C802 C800 1.391 . S
C802 C803 1.400 . S
C803 C802 1.400 . S
C803 C804 1.398 . S
C803 C809 1.491 . S
C804 H795 0.950 . S
C804 C803 1.398 . S
C804 C805 1.391 . S
C805 H793 0.950 . S
C805 C801 1.393 . S
C805 C804 1.391 . S
C806 H796 0.950 . S
C806 C807 1.386 . S
C806 C808 1.391 . S
C807 C806 1.386 . S
C807 C811 1.393 . S
C808 H797 0.950 . S
C808 C806 1.391 . S
C808 C809 1.400 . S
C809 C803 1.491 . S
C809 C808 1.400 . S
C809 C810 1.398 . S
C810 H798 0.950 . S
C810 C809 1.398 . S
C810 C811 1.391 . S
C811 H799 0.950 . S
C811 C807 1.393 . S
C811 C810 1.391 . S
H812 C820 0.950 . S
H813 C825 0.950 . S
H814 C822 0.950 . S
H815 C824 0.950 . S
H816 C826 0.950 . S
H817 C828 0.950 . S
H818 C830 0.950 . S
H819 C831 0.950 . S
C820 H812 0.950 . S
C820 C821 1.386 . S
C820 C822 1.391 . S
C821 C820 1.386 . S
C821 C825 1.393 . S
C822 H814 0.950 . S
C822 C820 1.391 . S
C822 C823 1.400 . S
C823 C822 1.400 . S
C823 C824 1.398 . S
C823 C829 1.491 . S
C824 H815 0.950 . S
C824 C823 1.398 . S
C824 C825 1.391 . S
C825 H813 0.950 . S
C825 C821 1.393 . S
C825 C824 1.391 . S
C826 H816 0.950 . S
C826 C827 1.386 . S
C826 C828 1.391 . S
C827 C826 1.386 . S
C827 C831 1.393 . S
C828 H817 0.950 . S
C828 C826 1.391 . S
C828 C829 1.400 . S
C829 C823 1.491 . S
C829 C828 1.400 . S
C829 C830 1.398 . S
C830 H818 0.950 . S
C830 C829 1.398 . S
C830 C831 1.391 . S
C831 H819 0.950 . S
C831 C827 1.393 . S
C831 C830 1.391 . S
H832 C840 0.950 . S
H833 C845 0.950 . S
H834 C842 0.950 . S
H835 C844 0.950 . S
H836 C846 0.950 . S
H837 C848 0.950 . S
H838 C850 0.950 . S
H839 C851 0.950 . S
C840 H832 0.950 . S
C840 C841 1.386 . S
C840 C842 1.391 . S
C841 C840 1.386 . S
C841 C845 1.393 . S
C842 H834 0.950 . S
C842 C840 1.391 . S
C842 C843 1.400 . S
C843 C842 1.400 . S
C843 C844 1.398 . S
C843 C849 1.491 . S
C844 H835 0.950 . S
C844 C843 1.398 . S
C844 C845 1.391 . S
C845 H833 0.950 . S
C845 C841 1.393 . S
C845 C844 1.391 . S
C846 H836 0.950 . S
C846 C847 1.386 . S
C846 C848 1.391 . S
C847 C846 1.386 . S
C847 C851 1.393 . S
C848 H837 0.950 . S
C848 C846 1.391 . S
C848 C849 1.400 . S
C849 C843 1.491 . S
C849 C848 1.400 . S
C849 C850 1.398 . S
C850 H838 0.950 . S
C850 C849 1.398 . S
C850 C851 1.391 . S
C851 H839 0.950 . S
C851 C847 1.393 . S
C851 C850 1.391 . S
C381 C247 1.400 . S
C387 C304 1.378 . S
C407 C312 1.357 . S
C401 C283 1.408 . S
C427 C316 1.338 . S
C421 C175 1.402 . S
C441 C211 1.381 . S
C447 C292 1.361 . S
C467 C333 1.375 . S
C461 C103 1.404 . S
C487 C367 1.386 . S
C481 C139 1.408 . S
C501 C31 1.413 . S
C507 C355 1.351 . S
C521 C67 1.413 . S
C527 C337 1.352 . S
C547 C291 1.276 . S
C541 C37 1.456 . S
C567 C325 1.307 . S
C561 C1 1.449 . S
C587 C329 1.282 . S
C581 C109 1.435 1_556 S
C607 C307 1.279 . S
C601 C73 1.457 . S
C627 C346 1.278 . S
C621 C181 1.441 . S
C641 C145 1.451 . S
C647 C354 1.299 . S
C667 C370 1.299 . S
C661 C253 1.467 . S
C681 C217 1.443 . S
C687 C350 1.285 . S
C707 C295 1.327 . S
C701 C25 1.501 . S
C727 C313 1.304 . S
C721 C61 1.499 . S
C741 C97 1.486 . S
C747 C328 1.310 . S
C767 C308 1.303 . S
C761 C133 1.484 . S
C787 C334 1.308 . S
C781 C169 1.481 . S
C801 C205 1.494 . S
C807 C358 1.307 . S
C821 C241 1.478 . S
C827 C371 1.331 . S
C841 C277 1.473 . S
C847 C349 1.326 . S
