# Generated by pormake.
# Topology bpr, (3,3)-cn, num edge types: 1
# Building blocks:
#     Node 0, Type 0, BuildingBlock: WUSLED_clean_sbu_0, # of connection points: 3
#     Node 1, Type 0, BuildingBlock: WUSLED_clean_sbu_0, # of connection points: 3
#     Node 2, Type 0, BuildingBlock: WUSLED_clean_sbu_0, # of connection points: 3
#     Node 3, Type 0, BuildingBlock: WUSLED_clean_sbu_0, # of connection points: 3
#     Node 4, Type 0, BuildingBlock: WUSLED_clean_sbu_0, # of connection points: 3
#     Node 5, Type 0, BuildingBlock: WUSLED_clean_sbu_0, # of connection points: 3
#     Node 6, Type 0, BuildingBlock: WUSLED_clean_sbu_0, # of connection points: 3
#     Node 7, Type 0, BuildingBlock: WUSLED_clean_sbu_0, # of connection points: 3
#     Node 8, Type 0, BuildingBlock: WUSLED_clean_sbu_0, # of connection points: 3
#     Node 9, Type 0, BuildingBlock: WUSLED_clean_sbu_0, # of connection points: 3
#     Node 10, Type 0, BuildingBlock: WUSLED_clean_sbu_0, # of connection points: 3
#     Node 11, Type 0, BuildingBlock: WUSLED_clean_sbu_0, # of connection points: 3
#     Node 12, Type 0, BuildingBlock: WUSLED_clean_sbu_0, # of connection points: 3
#     Node 13, Type 0, BuildingBlock: WUSLED_clean_sbu_0, # of connection points: 3
#     Node 14, Type 0, BuildingBlock: WUSLED_clean_sbu_0, # of connection points: 3
#     Node 15, Type 0, BuildingBlock: WUSLED_clean_sbu_0, # of connection points: 3
#     Node 16, Type 0, BuildingBlock: WUSLED_clean_sbu_0, # of connection points: 3
#     Node 17, Type 0, BuildingBlock: WUSLED_clean_sbu_0, # of connection points: 3
#     Node 18, Type 0, BuildingBlock: WUSLED_clean_sbu_0, # of connection points: 3
#     Node 19, Type 0, BuildingBlock: WUSLED_clean_sbu_0, # of connection points: 3
#     Node 20, Type 0, BuildingBlock: WUSLED_clean_sbu_0, # of connection points: 3
#     Node 21, Type 0, BuildingBlock: WUSLED_clean_sbu_0, # of connection points: 3
#     Node 22, Type 0, BuildingBlock: WUSLED_clean_sbu_0, # of connection points: 3
#     Node 23, Type 0, BuildingBlock: WUSLED_clean_sbu_0, # of connection points: 3
#     Node 24, Type 0, BuildingBlock: WUSLED_clean_sbu_0, # of connection points: 3
#     Node 25, Type 0, BuildingBlock: WUSLED_clean_sbu_0, # of connection points: 3
#     Node 26, Type 0, BuildingBlock: WUSLED_clean_sbu_0, # of connection points: 3
#     Node 27, Type 0, BuildingBlock: WUSLED_clean_sbu_0, # of connection points: 3
#     Node 28, Type 0, BuildingBlock: WUSLED_clean_sbu_0, # of connection points: 3
#     Node 29, Type 0, BuildingBlock: WUSLED_clean_sbu_0, # of connection points: 3
#     Node 30, Type 0, BuildingBlock: WUSLED_clean_sbu_0, # of connection points: 3
#     Node 31, Type 0, BuildingBlock: WUSLED_clean_sbu_0, # of connection points: 3
#     Node 32, Type 0, BuildingBlock: WUSLED_clean_sbu_0, # of connection points: 3
#     Node 33, Type 0, BuildingBlock: WUSLED_clean_sbu_0, # of connection points: 3
#     Node 34, Type 0, BuildingBlock: WUSLED_clean_sbu_0, # of connection points: 3
#     Node 35, Type 0, BuildingBlock: WUSLED_clean_sbu_0, # of connection points: 3
#     Node 36, Type 0, BuildingBlock: WUSLED_clean_sbu_0, # of connection points: 3
#     Node 37, Type 0, BuildingBlock: WUSLED_clean_sbu_0, # of connection points: 3
#     Node 38, Type 0, BuildingBlock: WUSLED_clean_sbu_0, # of connection points: 3
#     Node 39, Type 0, BuildingBlock: WUSLED_clean_sbu_0, # of connection points: 3
#     Node 40, Type 0, BuildingBlock: WUSLED_clean_sbu_0, # of connection points: 3
#     Node 41, Type 0, BuildingBlock: WUSLED_clean_sbu_0, # of connection points: 3
#     Node 42, Type 0, BuildingBlock: WUSLED_clean_sbu_0, # of connection points: 3
#     Node 43, Type 0, BuildingBlock: WUSLED_clean_sbu_0, # of connection points: 3
#     Node 44, Type 0, BuildingBlock: WUSLED_clean_sbu_0, # of connection points: 3
#     Node 45, Type 0, BuildingBlock: WUSLED_clean_sbu_0, # of connection points: 3
#     Node 46, Type 0, BuildingBlock: WUSLED_clean_sbu_0, # of connection points: 3
#     Node 47, Type 0, BuildingBlock: WUSLED_clean_sbu_0, # of connection points: 3
#     Node 48, Type 1, BuildingBlock: BETDIP_clean_linker_0, # of connection points: 3
#     Node 49, Type 1, BuildingBlock: BETDIP_clean_linker_0, # of connection points: 3
#     Node 50, Type 1, BuildingBlock: BETDIP_clean_linker_0, # of connection points: 3
#     Node 51, Type 1, BuildingBlock: BETDIP_clean_linker_0, # of connection points: 3
#     Node 52, Type 1, BuildingBlock: BETDIP_clean_linker_0, # of connection points: 3
#     Node 53, Type 1, BuildingBlock: BETDIP_clean_linker_0, # of connection points: 3
#     Node 54, Type 1, BuildingBlock: BETDIP_clean_linker_0, # of connection points: 3
#     Node 55, Type 1, BuildingBlock: BETDIP_clean_linker_0, # of connection points: 3
#     Node 56, Type 1, BuildingBlock: BETDIP_clean_linker_0, # of connection points: 3
#     Node 57, Type 1, BuildingBlock: BETDIP_clean_linker_0, # of connection points: 3
#     Node 58, Type 1, BuildingBlock: BETDIP_clean_linker_0, # of connection points: 3
#     Node 59, Type 1, BuildingBlock: BETDIP_clean_linker_0, # of connection points: 3
#     Node 60, Type 1, BuildingBlock: BETDIP_clean_linker_0, # of connection points: 3
#     Node 61, Type 1, BuildingBlock: BETDIP_clean_linker_0, # of connection points: 3
#     Node 62, Type 1, BuildingBlock: BETDIP_clean_linker_0, # of connection points: 3
#     Node 63, Type 1, BuildingBlock: BETDIP_clean_linker_0, # of connection points: 3
#     Node 64, Type 1, BuildingBlock: BETDIP_clean_linker_0, # of connection points: 3
#     Node 65, Type 1, BuildingBlock: BETDIP_clean_linker_0, # of connection points: 3
#     Node 66, Type 1, BuildingBlock: BETDIP_clean_linker_0, # of connection points: 3
#     Node 67, Type 1, BuildingBlock: BETDIP_clean_linker_0, # of connection points: 3
#     Node 68, Type 1, BuildingBlock: BETDIP_clean_linker_0, # of connection points: 3
#     Node 69, Type 1, BuildingBlock: BETDIP_clean_linker_0, # of connection points: 3
#     Node 70, Type 1, BuildingBlock: BETDIP_clean_linker_0, # of connection points: 3
#     Node 71, Type 1, BuildingBlock: BETDIP_clean_linker_0, # of connection points: 3
#     Node 72, Type 1, BuildingBlock: BETDIP_clean_linker_0, # of connection points: 3
#     Node 73, Type 1, BuildingBlock: BETDIP_clean_linker_0, # of connection points: 3
#     Node 74, Type 1, BuildingBlock: BETDIP_clean_linker_0, # of connection points: 3
#     Node 75, Type 1, BuildingBlock: BETDIP_clean_linker_0, # of connection points: 3
#     Node 76, Type 1, BuildingBlock: BETDIP_clean_linker_0, # of connection points: 3
#     Node 77, Type 1, BuildingBlock: BETDIP_clean_linker_0, # of connection points: 3
#     Node 78, Type 1, BuildingBlock: BETDIP_clean_linker_0, # of connection points: 3
#     Node 79, Type 1, BuildingBlock: BETDIP_clean_linker_0, # of connection points: 3
#     Node 80, Type 1, BuildingBlock: BETDIP_clean_linker_0, # of connection points: 3
#     Node 81, Type 1, BuildingBlock: BETDIP_clean_linker_0, # of connection points: 3
#     Node 82, Type 1, BuildingBlock: BETDIP_clean_linker_0, # of connection points: 3
#     Node 83, Type 1, BuildingBlock: BETDIP_clean_linker_0, # of connection points: 3
#     Node 84, Type 1, BuildingBlock: BETDIP_clean_linker_0, # of connection points: 3
#     Node 85, Type 1, BuildingBlock: BETDIP_clean_linker_0, # of connection points: 3
#     Node 86, Type 1, BuildingBlock: BETDIP_clean_linker_0, # of connection points: 3
#     Node 87, Type 1, BuildingBlock: BETDIP_clean_linker_0, # of connection points: 3
#     Node 88, Type 1, BuildingBlock: BETDIP_clean_linker_0, # of connection points: 3
#     Node 89, Type 1, BuildingBlock: BETDIP_clean_linker_0, # of connection points: 3
#     Node 90, Type 1, BuildingBlock: BETDIP_clean_linker_0, # of connection points: 3
#     Node 91, Type 1, BuildingBlock: BETDIP_clean_linker_0, # of connection points: 3
#     Node 92, Type 1, BuildingBlock: BETDIP_clean_linker_0, # of connection points: 3
#     Node 93, Type 1, BuildingBlock: BETDIP_clean_linker_0, # of connection points: 3
#     Node 94, Type 1, BuildingBlock: BETDIP_clean_linker_0, # of connection points: 3
#     Node 95, Type 1, BuildingBlock: BETDIP_clean_linker_0, # of connection points: 3
#     Edge 96, Type (0, 1), BuildingBlock: TEMPAE_clean_linker_10, # of connection points: 2
#     Edge 97, Type (0, 1), BuildingBlock: TEMPAE_clean_linker_10, # of connection points: 2
#     Edge 98, Type (0, 1), BuildingBlock: TEMPAE_clean_linker_10, # of connection points: 2
#     Edge 99, Type (0, 1), BuildingBlock: TEMPAE_clean_linker_10, # of connection points: 2
#     Edge 100, Type (0, 1), BuildingBlock: TEMPAE_clean_linker_10, # of connection points: 2
#     Edge 101, Type (0, 1), BuildingBlock: TEMPAE_clean_linker_10, # of connection points: 2
#     Edge 102, Type (0, 1), BuildingBlock: TEMPAE_clean_linker_10, # of connection points: 2
#     Edge 103, Type (0, 1), BuildingBlock: TEMPAE_clean_linker_10, # of connection points: 2
#     Edge 104, Type (0, 1), BuildingBlock: TEMPAE_clean_linker_10, # of connection points: 2
#     Edge 105, Type (0, 1), BuildingBlock: TEMPAE_clean_linker_10, # of connection points: 2
#     Edge 106, Type (0, 1), BuildingBlock: TEMPAE_clean_linker_10, # of connection points: 2
#     Edge 107, Type (0, 1), BuildingBlock: TEMPAE_clean_linker_10, # of connection points: 2
#     Edge 108, Type (0, 1), BuildingBlock: TEMPAE_clean_linker_10, # of connection points: 2
#     Edge 109, Type (0, 1), BuildingBlock: TEMPAE_clean_linker_10, # of connection points: 2
#     Edge 110, Type (0, 1), BuildingBlock: TEMPAE_clean_linker_10, # of connection points: 2
#     Edge 111, Type (0, 1), BuildingBlock: TEMPAE_clean_linker_10, # of connection points: 2
#     Edge 112, Type (0, 1), BuildingBlock: TEMPAE_clean_linker_10, # of connection points: 2
#     Edge 113, Type (0, 1), BuildingBlock: TEMPAE_clean_linker_10, # of connection points: 2
#     Edge 114, Type (0, 1), BuildingBlock: TEMPAE_clean_linker_10, # of connection points: 2
#     Edge 115, Type (0, 1), BuildingBlock: TEMPAE_clean_linker_10, # of connection points: 2
#     Edge 116, Type (0, 1), BuildingBlock: TEMPAE_clean_linker_10, # of connection points: 2
#     Edge 117, Type (0, 1), BuildingBlock: TEMPAE_clean_linker_10, # of connection points: 2
#     Edge 118, Type (0, 1), BuildingBlock: TEMPAE_clean_linker_10, # of connection points: 2
#     Edge 119, Type (0, 1), BuildingBlock: TEMPAE_clean_linker_10, # of connection points: 2
#     Edge 120, Type (0, 1), BuildingBlock: TEMPAE_clean_linker_10, # of connection points: 2
#     Edge 121, Type (0, 1), BuildingBlock: TEMPAE_clean_linker_10, # of connection points: 2
#     Edge 122, Type (0, 1), BuildingBlock: TEMPAE_clean_linker_10, # of connection points: 2
#     Edge 123, Type (0, 1), BuildingBlock: TEMPAE_clean_linker_10, # of connection points: 2
#     Edge 124, Type (0, 1), BuildingBlock: TEMPAE_clean_linker_10, # of connection points: 2
#     Edge 125, Type (0, 1), BuildingBlock: TEMPAE_clean_linker_10, # of connection points: 2
#     Edge 126, Type (0, 1), BuildingBlock: TEMPAE_clean_linker_10, # of connection points: 2
#     Edge 127, Type (0, 1), BuildingBlock: TEMPAE_clean_linker_10, # of connection points: 2
#     Edge 128, Type (0, 1), BuildingBlock: TEMPAE_clean_linker_10, # of connection points: 2
#     Edge 129, Type (0, 1), BuildingBlock: TEMPAE_clean_linker_10, # of connection points: 2
#     Edge 130, Type (0, 1), BuildingBlock: TEMPAE_clean_linker_10, # of connection points: 2
#     Edge 131, Type (0, 1), BuildingBlock: TEMPAE_clean_linker_10, # of connection points: 2
#     Edge 132, Type (0, 1), BuildingBlock: TEMPAE_clean_linker_10, # of connection points: 2
#     Edge 133, Type (0, 1), BuildingBlock: TEMPAE_clean_linker_10, # of connection points: 2
#     Edge 134, Type (0, 1), BuildingBlock: TEMPAE_clean_linker_10, # of connection points: 2
#     Edge 135, Type (0, 1), BuildingBlock: TEMPAE_clean_linker_10, # of connection points: 2
#     Edge 136, Type (0, 1), BuildingBlock: TEMPAE_clean_linker_10, # of connection points: 2
#     Edge 137, Type (0, 1), BuildingBlock: TEMPAE_clean_linker_10, # of connection points: 2
#     Edge 138, Type (0, 1), BuildingBlock: TEMPAE_clean_linker_10, # of connection points: 2
#     Edge 139, Type (0, 1), BuildingBlock: TEMPAE_clean_linker_10, # of connection points: 2
#     Edge 140, Type (0, 1), BuildingBlock: TEMPAE_clean_linker_10, # of connection points: 2
#     Edge 141, Type (0, 1), BuildingBlock: TEMPAE_clean_linker_10, # of connection points: 2
#     Edge 142, Type (0, 1), BuildingBlock: TEMPAE_clean_linker_10, # of connection points: 2
#     Edge 143, Type (0, 1), BuildingBlock: TEMPAE_clean_linker_10, # of connection points: 2
#     Edge 144, Type (0, 1), BuildingBlock: TEMPAE_clean_linker_10, # of connection points: 2
#     Edge 145, Type (0, 1), BuildingBlock: TEMPAE_clean_linker_10, # of connection points: 2
#     Edge 146, Type (0, 1), BuildingBlock: TEMPAE_clean_linker_10, # of connection points: 2
#     Edge 147, Type (0, 1), BuildingBlock: TEMPAE_clean_linker_10, # of connection points: 2
#     Edge 148, Type (0, 1), BuildingBlock: TEMPAE_clean_linker_10, # of connection points: 2
#     Edge 149, Type (0, 1), BuildingBlock: TEMPAE_clean_linker_10, # of connection points: 2
#     Edge 150, Type (0, 1), BuildingBlock: TEMPAE_clean_linker_10, # of connection points: 2
#     Edge 151, Type (0, 1), BuildingBlock: TEMPAE_clean_linker_10, # of connection points: 2
#     Edge 152, Type (0, 1), BuildingBlock: TEMPAE_clean_linker_10, # of connection points: 2
#     Edge 153, Type (0, 1), BuildingBlock: TEMPAE_clean_linker_10, # of connection points: 2
#     Edge 154, Type (0, 1), BuildingBlock: TEMPAE_clean_linker_10, # of connection points: 2
#     Edge 155, Type (0, 1), BuildingBlock: TEMPAE_clean_linker_10, # of connection points: 2
#     Edge 156, Type (0, 1), BuildingBlock: TEMPAE_clean_linker_10, # of connection points: 2
#     Edge 157, Type (0, 1), BuildingBlock: TEMPAE_clean_linker_10, # of connection points: 2
#     Edge 158, Type (0, 1), BuildingBlock: TEMPAE_clean_linker_10, # of connection points: 2
#     Edge 159, Type (0, 1), BuildingBlock: TEMPAE_clean_linker_10, # of connection points: 2
#     Edge 160, Type (0, 1), BuildingBlock: TEMPAE_clean_linker_10, # of connection points: 2
#     Edge 161, Type (0, 1), BuildingBlock: TEMPAE_clean_linker_10, # of connection points: 2
#     Edge 162, Type (0, 1), BuildingBlock: TEMPAE_clean_linker_10, # of connection points: 2
#     Edge 163, Type (0, 1), BuildingBlock: TEMPAE_clean_linker_10, # of connection points: 2
#     Edge 164, Type (0, 1), BuildingBlock: TEMPAE_clean_linker_10, # of connection points: 2
#     Edge 165, Type (0, 1), BuildingBlock: TEMPAE_clean_linker_10, # of connection points: 2
#     Edge 166, Type (0, 1), BuildingBlock: TEMPAE_clean_linker_10, # of connection points: 2
#     Edge 167, Type (0, 1), BuildingBlock: TEMPAE_clean_linker_10, # of connection points: 2
#     Edge 168, Type (0, 1), BuildingBlock: TEMPAE_clean_linker_10, # of connection points: 2
#     Edge 169, Type (0, 1), BuildingBlock: TEMPAE_clean_linker_10, # of connection points: 2
#     Edge 170, Type (0, 1), BuildingBlock: TEMPAE_clean_linker_10, # of connection points: 2
#     Edge 171, Type (0, 1), BuildingBlock: TEMPAE_clean_linker_10, # of connection points: 2
#     Edge 172, Type (0, 1), BuildingBlock: TEMPAE_clean_linker_10, # of connection points: 2
#     Edge 173, Type (0, 1), BuildingBlock: TEMPAE_clean_linker_10, # of connection points: 2
#     Edge 174, Type (0, 1), BuildingBlock: TEMPAE_clean_linker_10, # of connection points: 2
#     Edge 175, Type (0, 1), BuildingBlock: TEMPAE_clean_linker_10, # of connection points: 2
#     Edge 176, Type (0, 1), BuildingBlock: TEMPAE_clean_linker_10, # of connection points: 2
#     Edge 177, Type (0, 1), BuildingBlock: TEMPAE_clean_linker_10, # of connection points: 2
#     Edge 178, Type (0, 1), BuildingBlock: TEMPAE_clean_linker_10, # of connection points: 2
#     Edge 179, Type (0, 1), BuildingBlock: TEMPAE_clean_linker_10, # of connection points: 2
#     Edge 180, Type (0, 1), BuildingBlock: TEMPAE_clean_linker_10, # of connection points: 2
#     Edge 181, Type (0, 1), BuildingBlock: TEMPAE_clean_linker_10, # of connection points: 2
#     Edge 182, Type (0, 1), BuildingBlock: TEMPAE_clean_linker_10, # of connection points: 2
#     Edge 183, Type (0, 1), BuildingBlock: TEMPAE_clean_linker_10, # of connection points: 2
#     Edge 184, Type (0, 1), BuildingBlock: TEMPAE_clean_linker_10, # of connection points: 2
#     Edge 185, Type (0, 1), BuildingBlock: TEMPAE_clean_linker_10, # of connection points: 2
#     Edge 186, Type (0, 1), BuildingBlock: TEMPAE_clean_linker_10, # of connection points: 2
#     Edge 187, Type (0, 1), BuildingBlock: TEMPAE_clean_linker_10, # of connection points: 2
#     Edge 188, Type (0, 1), BuildingBlock: TEMPAE_clean_linker_10, # of connection points: 2
#     Edge 189, Type (0, 1), BuildingBlock: TEMPAE_clean_linker_10, # of connection points: 2
#     Edge 190, Type (0, 1), BuildingBlock: TEMPAE_clean_linker_10, # of connection points: 2
#     Edge 191, Type (0, 1), BuildingBlock: TEMPAE_clean_linker_10, # of connection points: 2
#     Edge 192, Type (0, 1), BuildingBlock: TEMPAE_clean_linker_10, # of connection points: 2
#     Edge 193, Type (0, 1), BuildingBlock: TEMPAE_clean_linker_10, # of connection points: 2
#     Edge 194, Type (0, 1), BuildingBlock: TEMPAE_clean_linker_10, # of connection points: 2
#     Edge 195, Type (0, 1), BuildingBlock: TEMPAE_clean_linker_10, # of connection points: 2
#     Edge 196, Type (0, 1), BuildingBlock: TEMPAE_clean_linker_10, # of connection points: 2
#     Edge 197, Type (0, 1), BuildingBlock: TEMPAE_clean_linker_10, # of connection points: 2
#     Edge 198, Type (0, 1), BuildingBlock: TEMPAE_clean_linker_10, # of connection points: 2
#     Edge 199, Type (0, 1), BuildingBlock: TEMPAE_clean_linker_10, # of connection points: 2
#     Edge 200, Type (0, 1), BuildingBlock: TEMPAE_clean_linker_10, # of connection points: 2
#     Edge 201, Type (0, 1), BuildingBlock: TEMPAE_clean_linker_10, # of connection points: 2
#     Edge 202, Type (0, 1), BuildingBlock: TEMPAE_clean_linker_10, # of connection points: 2
#     Edge 203, Type (0, 1), BuildingBlock: TEMPAE_clean_linker_10, # of connection points: 2
#     Edge 204, Type (0, 1), BuildingBlock: TEMPAE_clean_linker_10, # of connection points: 2
#     Edge 205, Type (0, 1), BuildingBlock: TEMPAE_clean_linker_10, # of connection points: 2
#     Edge 206, Type (0, 1), BuildingBlock: TEMPAE_clean_linker_10, # of connection points: 2
#     Edge 207, Type (0, 1), BuildingBlock: TEMPAE_clean_linker_10, # of connection points: 2
#     Edge 208, Type (0, 1), BuildingBlock: TEMPAE_clean_linker_10, # of connection points: 2
#     Edge 209, Type (0, 1), BuildingBlock: TEMPAE_clean_linker_10, # of connection points: 2
#     Edge 210, Type (0, 1), BuildingBlock: TEMPAE_clean_linker_10, # of connection points: 2
#     Edge 211, Type (0, 1), BuildingBlock: TEMPAE_clean_linker_10, # of connection points: 2
#     Edge 212, Type (0, 1), BuildingBlock: TEMPAE_clean_linker_10, # of connection points: 2
#     Edge 213, Type (0, 1), BuildingBlock: TEMPAE_clean_linker_10, # of connection points: 2
#     Edge 214, Type (0, 1), BuildingBlock: TEMPAE_clean_linker_10, # of connection points: 2
#     Edge 215, Type (0, 1), BuildingBlock: TEMPAE_clean_linker_10, # of connection points: 2
#     Edge 216, Type (0, 1), BuildingBlock: TEMPAE_clean_linker_10, # of connection points: 2
#     Edge 217, Type (0, 1), BuildingBlock: TEMPAE_clean_linker_10, # of connection points: 2
#     Edge 218, Type (0, 1), BuildingBlock: TEMPAE_clean_linker_10, # of connection points: 2
#     Edge 219, Type (0, 1), BuildingBlock: TEMPAE_clean_linker_10, # of connection points: 2
#     Edge 220, Type (0, 1), BuildingBlock: TEMPAE_clean_linker_10, # of connection points: 2
#     Edge 221, Type (0, 1), BuildingBlock: TEMPAE_clean_linker_10, # of connection points: 2
#     Edge 222, Type (0, 1), BuildingBlock: TEMPAE_clean_linker_10, # of connection points: 2
#     Edge 223, Type (0, 1), BuildingBlock: TEMPAE_clean_linker_10, # of connection points: 2
#     Edge 224, Type (0, 1), BuildingBlock: TEMPAE_clean_linker_10, # of connection points: 2
#     Edge 225, Type (0, 1), BuildingBlock: TEMPAE_clean_linker_10, # of connection points: 2
#     Edge 226, Type (0, 1), BuildingBlock: TEMPAE_clean_linker_10, # of connection points: 2
#     Edge 227, Type (0, 1), BuildingBlock: TEMPAE_clean_linker_10, # of connection points: 2
#     Edge 228, Type (0, 1), BuildingBlock: TEMPAE_clean_linker_10, # of connection points: 2
#     Edge 229, Type (0, 1), BuildingBlock: TEMPAE_clean_linker_10, # of connection points: 2
#     Edge 230, Type (0, 1), BuildingBlock: TEMPAE_clean_linker_10, # of connection points: 2
#     Edge 231, Type (0, 1), BuildingBlock: TEMPAE_clean_linker_10, # of connection points: 2
#     Edge 232, Type (0, 1), BuildingBlock: TEMPAE_clean_linker_10, # of connection points: 2
#     Edge 233, Type (0, 1), BuildingBlock: TEMPAE_clean_linker_10, # of connection points: 2
#     Edge 234, Type (0, 1), BuildingBlock: TEMPAE_clean_linker_10, # of connection points: 2
#     Edge 235, Type (0, 1), BuildingBlock: TEMPAE_clean_linker_10, # of connection points: 2
#     Edge 236, Type (0, 1), BuildingBlock: TEMPAE_clean_linker_10, # of connection points: 2
#     Edge 237, Type (0, 1), BuildingBlock: TEMPAE_clean_linker_10, # of connection points: 2
#     Edge 238, Type (0, 1), BuildingBlock: TEMPAE_clean_linker_10, # of connection points: 2
#     Edge 239, Type (0, 1), BuildingBlock: TEMPAE_clean_linker_10, # of connection points: 2
# Relax obj value: 0.044
# Max RMSD: 0.116
# Mean RMSD: 0.055
data_MOF--net-bpr--node1-WUSLED_clean_sbu_0--node2-BETDIP_clean_linker_0--edge1-TEMPAE_clean_linker_10
_symmetry_space_group_name_H-M    P1
_symmetry_Int_Tables_number       1
_symmetry_cell_setting            triclinic
loop_
_symmetry_equiv_pos_as_xyz
'x, y, z'
_cell_length_a     103.70192
_cell_length_b     107.13083
_cell_length_c     109.97144
_cell_angle_alpha  95.632987
_cell_angle_beta   93.319952
_cell_angle_gamma 97.664862
loop_
_atom_site_label
_atom_site_type_symbol
_atom_site_fract_x
_atom_site_fract_y
_atom_site_fract_z
_atom_type_partial_charge
C0 C 0.9684 0.3849 0.25315 0.0
C1 C 0.96569 0.38126 0.26475 0.0
C2 C 0.94846 0.39461 0.26597 0.0
C3 C 0.9558 0.38603 0.27108 0.0
C4 C 0.95117 0.39821 0.25431 0.0
C5 C 0.96106 0.39337 0.24794 0.0
U6 U 0.99911 0.37011 0.25536 0.0
O7 O 1.00699 0.35568 0.24341 0.0
O8 O 0.01822 0.37462 0.24799 0.0
C9 C 0.01751 0.36344 0.24169 0.0
C10 C 0.97932 0.38037 0.24688 0.0
C11 C 0.02139 0.3634 0.22906 0.0
C12 C 0.01987 0.37025 0.20865 0.0
C13 C 0.01536 0.36997 0.22042 0.0
C14 C 0.03628 0.35724 0.21408 0.0
C15 C 0.03045 0.36394 0.20538 0.0
C16 C 0.03177 0.35697 0.22578 0.0
C17 C 0.01026 0.3621 0.28696 0.0
C18 C 0.02885 0.35093 0.29033 0.0
C19 C 0.01992 0.36188 0.30755 0.0
C20 C 0.01048 0.36556 0.29959 0.0
C21 C 0.02929 0.35463 0.30299 0.0
C22 C 0.01944 0.3547 0.28236 0.0
C23 C 1.00084 0.36684 0.27871 0.0
O24 O 0.9908 0.38693 0.25035 0.0
O25 O 0.97943 0.36806 0.24612 0.0
O26 O 0.99432 0.35842 0.27029 0.0
O27 O 1.00514 0.37755 0.27448 0.0
H28 H 0.97138 0.37487 0.269 0.0
H29 H 0.95414 0.38324 0.28012 0.0
H30 H 0.94564 0.40475 0.25012 0.0
H31 H 0.96308 0.39635 0.23903 0.0
H32 H 0.01511 0.37542 0.20214 0.0
H33 H 1.0073 0.37499 0.22282 0.0
H34 H 0.0446 0.35249 0.212 0.0
H35 H 0.03659 0.35191 0.23236 0.0
H36 H 0.03603 0.34547 0.28655 0.0
H37 H 0.01995 0.36476 0.31727 0.0
H38 H 1.00348 0.3713 0.30329 0.0
H39 H 0.01948 0.35204 0.2726 0.0
C40 C 0.93879 0.81272 0.55233 0.0
C41 C 0.94713 0.81174 0.56265 0.0
C42 C 0.93487 0.79136 0.56556 0.0
C43 C 0.94521 0.80115 0.56916 0.0
C44 C 0.92678 0.79217 0.55504 0.0
C45 C 0.92877 0.80271 0.54846 0.0
U46 U 0.93718 0.84785 0.55333 0.0
O47 O 0.94885 0.86338 0.54551 0.0
O48 O 0.92777 0.85901 0.54055 0.0
C49 C 0.93886 0.86575 0.53861 0.0
C50 C 0.93984 0.82438 0.54602 0.0
C51 C 0.94098 0.86758 0.52572 0.0
C52 C 0.95371 0.8662 0.50784 0.0
C53 C 0.95155 0.86343 0.51981 0.0
C54 C 0.93461 0.87698 0.50747 0.0
C55 C 0.9453 0.87309 0.50157 0.0
C56 C 0.93251 0.87428 0.5194 0.0
C57 C 0.92894 0.86466 0.58361 0.0
C58 C 0.93262 0.88734 0.58986 0.0
C59 C 0.91623 0.87379 0.59914 0.0
C60 C 0.91925 0.86326 0.59193 0.0
C61 C 0.92289 0.88594 0.5982 0.0
C62 C 0.93557 0.87679 0.58255 0.0
C63 C 0.93174 0.85335 0.57606 0.0
O64 O 0.92885 0.82903 0.54431 0.0
O65 O 0.94981 0.83315 0.54968 0.0
O66 O 0.94373 0.85353 0.5727 0.0
O67 O 0.92281 0.84876 0.56722 0.0
H68 H 0.95493 0.81929 0.56592 0.0
H69 H 0.95154 0.80084 0.57728 0.0
H70 H 0.91882 0.7847 0.55198 0.0
H71 H 0.92225 0.80319 0.54051 0.0
H72 H 0.96198 0.86301 0.50349 0.0
H73 H 0.95823 0.85822 0.52447 0.0
H74 H 0.92808 0.88248 0.50299 0.0
H75 H 0.92436 0.87765 0.52382 0.0
H76 H 0.93785 0.89661 0.58891 0.0
H77 H 0.90881 0.8724 0.60561 0.0
H78 H 0.91402 0.85399 0.59287 0.0
H79 H 0.943 0.87811 0.57608 0.0
C80 C 0.49268 0.63663 0.72571 0.0
C81 C 0.48307 0.64469 0.72631 0.0
C82 C 0.47785 0.64017 0.70433 0.0
C83 C 0.47576 0.64648 0.71572 0.0
C84 C 0.48776 0.63238 0.70372 0.0
C85 C 0.49511 0.63062 0.71434 0.0
U86 U 0.493 0.63659 0.75978 0.0
O87 O 0.49628 0.62194 0.77179 0.0
O88 O 0.50874 0.64041 0.77456 0.0
C89 C 0.50651 0.62888 0.77781 0.0
C90 C 0.49922 0.6336 0.73704 0.0
C91 C 0.51802 0.62249 0.77982 0.0
C92 C 0.53275 0.60775 0.7731 0.0
C93 C 0.52225 0.61431 0.77057 0.0
C94 C 0.53501 0.61773 0.79401 0.0
C95 C 0.5392 0.60935 0.78489 0.0
C96 C 0.52454 0.62423 0.79148 0.0
C97 C 0.46524 0.64989 0.77549 0.0
C98 C 0.46278 0.64884 0.79721 0.0
C99 C 0.44644 0.65698 0.78472 0.0
C100 C 0.45357 0.65505 0.77447 0.0
C101 C 0.45088 0.65374 0.79618 0.0
C102 C 0.4699 0.64691 0.78693 0.0
C103 C 0.47214 0.64712 0.76448 0.0
O104 O 0.50426 0.64341 0.7448 0.0
O105 O 0.49256 0.62458 0.74232 0.0
O106 O 0.47177 0.63501 0.76087 0.0
O107 O 0.48376 0.65365 0.76423 0.0
H108 H 0.48093 0.64927 0.73505 0.0
H109 H 0.46807 0.65237 0.71655 0.0
H110 H 0.48966 0.62746 0.69507 0.0
H111 H 0.50244 0.6243 0.71373 0.0
H112 H 0.5358 0.60141 0.76587 0.0
H113 H 0.51732 0.61287 0.76148 0.0
H114 H 0.53957 0.61901 0.80324 0.0
H115 H 0.52136 0.63045 0.79874 0.0
H116 H 0.46639 0.64613 0.80587 0.0
H117 H 0.43739 0.66091 0.78367 0.0
H118 H 0.44986 0.65741 0.76569 0.0
H119 H 0.47889 0.64286 0.78785 0.0
C120 C 0.62114 0.21483 0.06076 0.0
C121 C 0.62459 0.21548 0.07335 0.0
C122 C 0.62163 0.23772 0.07592 0.0
C123 C 0.62484 0.22681 0.08086 0.0
C124 C 0.61826 0.23703 0.06325 0.0
C125 C 0.61802 0.22566 0.05574 0.0
U126 U 0.62416 0.18017 0.05852 0.0
O127 O 0.61202 0.16354 0.0485 0.0
O128 O 0.63274 0.1677 0.04509 0.0
C129 C 0.62151 0.16057 0.04184 0.0
C130 C 0.62045 0.20274 0.05304 0.0
C131 C 0.61822 0.1579 0.02859 0.0
C132 C 0.60862 0.1632 0.0094 0.0
C133 C 0.61167 0.16606 0.02203 0.0
C134 C 0.61876 0.14411 0.00983 0.0
C135 C 0.61219 0.1522 1.00317 0.0
C136 C 0.62174 0.14694 0.02242 0.0
C137 C 0.63327 0.16667 0.08825 0.0
C138 C 0.62946 0.14441 0.09151 0.0
C139 C 0.64353 0.15936 0.10611 0.0
C140 C 0.64146 0.16914 0.09904 0.0
C141 C 0.63736 0.14691 0.10256 0.0
C142 C 0.62746 0.1542 0.0844 0.0
C143 C 0.63062 0.17725 0.08137 0.0
O144 O 0.63165 0.19837 0.05205 0.0
O145 O 0.6109 0.19405 0.05516 0.0
O146 O 0.61849 0.17685 0.07698 0.0
O147 O 0.63924 0.18062 0.07358 0.0
H148 H 0.62695 0.20716 0.07739 0.0
H149 H 0.62726 0.22695 0.09059 0.0
H150 H 0.61586 0.24529 0.05915 0.0
H151 H 0.61533 0.2253 0.04603 0.0
H152 H 0.60364 0.16965 1.00448 0.0
H153 H 0.60894 0.17461 0.02666 0.0
H154 H 0.62147 0.13548 1.00534 0.0
H155 H 0.62677 0.14054 0.02736 0.0
H156 H 0.62447 0.13496 0.08856 0.0
H157 H 0.64986 0.16157 0.11444 0.0
H158 H 0.64611 0.17869 0.10209 0.0
H159 H 0.62116 0.15209 0.07603 0.0
C160 C 0.98886 0.62481 0.24473 0.0
C161 C 0.98623 0.63006 0.2338 0.0
C162 C 0.96486 0.61723 0.2309 0.0
C163 C 0.97431 0.62636 0.22699 0.0
C164 C 0.96752 0.612 0.24186 0.0
C165 C 0.97943 0.6158 0.24874 0.0
U166 U 0.02492 0.63569 0.24462 0.0
O167 O 0.03846 0.6492 0.25734 0.0
O168 O 0.04192 0.62943 0.25379 0.0
C169 C 0.0454 0.64042 0.26037 0.0
C170 C 1.00166 0.6282 0.25158 0.0
C171 C 0.04794 0.63984 0.27356 0.0
C172 C 0.04238 0.63112 0.29247 0.0
C173 C 0.03933 0.63225 0.2801 0.0
C174 C 0.06241 0.64554 0.29199 0.0
C175 C 0.05405 0.63761 0.29851 0.0
C176 C 0.05938 0.64661 0.27962 0.0
C177 C 0.03839 0.64113 0.21367 0.0
C178 C 0.06078 0.65015 0.21139 0.0
C179 C 0.04705 0.63997 0.19363 0.0
C180 C 0.03675 0.6374 0.20105 0.0
C181 C 0.0592 0.64638 0.1987 0.0
C182 C 0.05046 0.64751 0.21883 0.0
C183 C 0.02754 0.63787 0.22131 0.0
O184 O 0.01012 0.62039 0.24904 0.0
O185 O 1.00672 0.6402 0.25216 0.0
O186 O 0.02473 0.64711 0.22906 0.0
O187 O 0.02759 0.62713 0.2261 0.0
H188 H 0.99346 0.63688 0.23043 0.0
H189 H 0.97263 0.6304 0.21848 0.0
H190 H 0.96039 0.60499 0.2451 0.0
H191 H 0.98134 0.61159 0.25711 0.0
H192 H 0.03579 0.62485 0.29717 0.0
H193 H 0.03042 0.62699 0.27557 0.0
H194 H 0.07136 0.65083 0.29641 0.0
H195 H 0.06609 0.65257 0.27472 0.0
H196 H 0.06995 0.65521 0.21557 0.0
H197 H 0.04556 0.63673 0.18395 0.0
H198 H 0.02753 0.63236 0.19695 0.0
H199 H 0.05191 0.65039 0.22859 0.0
C200 C 0.6298 0.76411 0.47075 0.0
C201 C 0.62322 0.76053 0.45914 0.0
C202 C 0.63373 0.74154 0.45681 0.0
C203 C 0.6251 0.74933 0.45229 0.0
C204 C 0.64033 0.74511 0.46842 0.0
C205 C 0.63832 0.75628 0.47536 0.0
U206 U 0.62841 0.79913 0.47117 0.0
O207 O 0.61567 0.81164 0.47986 0.0
O208 O 0.63688 0.81549 0.48423 0.0
C209 C 0.62537 0.81858 0.48667 0.0
C210 C 0.62841 0.77629 0.47776 0.0
C211 C 0.62331 0.82179 0.49971 0.0
C212 C 0.61052 0.81969 0.51748 0.0
C213 C 0.61298 0.81546 0.50548 0.0
C214 C 0.62893 0.8363 0.51823 0.0
C215 C 0.61833 0.83032 0.5239 0.0
C216 C 0.63135 0.83211 0.50626 0.0
C217 C 0.63252 0.8133 0.4409 0.0
C218 C 0.63002 0.83518 0.43862 0.0
C219 C 0.63752 0.82212 0.42196 0.0
C220 C 0.6367 0.81193 0.42903 0.0
C221 C 0.63414 0.83386 0.42665 0.0
C222 C 0.62923 0.82498 0.4457 0.0
C223 C 0.63178 0.80249 0.44819 0.0
O224 O 0.63891 0.7848 0.4789 0.0
O225 O 0.61765 0.78104 0.4751 0.0
O226 O 0.62032 0.79896 0.45222 0.0
O227 O 0.64149 0.80288 0.4565 0.0
H228 H 0.61675 0.76648 0.45525 0.0
H229 H 0.62005 0.74692 0.4433 0.0
H230 H 0.647 0.73926 0.47214 0.0
H231 H 0.64357 0.75891 0.48424 0.0
H232 H 0.60225 0.81491 0.52157 0.0
H233 H 0.60661 0.80746 0.50064 0.0
H234 H 0.6353 0.84435 0.52299 0.0
H235 H 0.63937 0.83713 0.50201 0.0
H236 H 0.62722 0.84405 0.44246 0.0
H237 H 0.64094 0.82083 0.41286 0.0
H238 H 0.63936 0.80299 0.42523 0.0
H239 H 0.62601 0.82619 0.45489 0.0
C240 C 0.53522 0.42238 0.72771 0.0
C241 C 0.53335 0.42785 0.71677 0.0
C242 C 0.55686 0.43272 0.71572 0.0
C243 C 0.54406 0.43304 0.71088 0.0
C244 C 0.55867 0.42745 0.72683 0.0
C245 C 0.54793 0.42233 0.73277 0.0
U246 U 0.50055 0.40563 0.72487 0.0
O247 O 0.49164 0.38885 0.73302 0.0
O248 O 0.48422 0.40704 0.73651 0.0
C249 C 0.48363 0.39525 0.73905 0.0
C250 C 0.52404 0.41606 0.73346 0.0
C251 C 0.48281 0.39334 0.75204 0.0
C252 C 0.48915 0.3998 0.77359 0.0
C253 C 0.49103 0.40098 0.76123 0.0
C254 C 0.4712 0.38297 0.76765 0.0
C255 C 0.47903 0.39096 0.77693 0.0
C256 C 0.47307 0.38418 0.75532 0.0
C257 C 0.48128 0.40096 0.69411 0.0
C258 C 0.45964 0.38874 0.69171 0.0
C259 C 0.46727 0.40135 0.67574 0.0
C260 C 0.47914 0.40523 0.68264 0.0
C261 C 0.45734 0.39312 0.68023 0.0
C262 C 0.47149 0.39267 0.69861 0.0
C263 C 0.49349 0.40562 0.70158 0.0
O264 O 0.5138 0.42208 0.73392 0.0
O265 O 0.52103 0.40388 0.72993 0.0
O266 O 0.49968 0.39684 0.70585 0.0
O267 O 0.49278 0.4152 0.70983 0.0
H268 H 0.5236 0.42792 0.71268 0.0
H269 H 0.54231 0.43717 0.70244 0.0
H270 H 0.56838 0.42688 0.73073 0.0
H271 H 0.54955 0.41805 0.74115 0.0
H272 H 0.49527 0.40616 0.78051 0.0
H273 H 0.49863 0.4081 0.75884 0.0
H274 H 0.46346 0.37594 0.76992 0.0
H275 H 0.46668 0.37816 0.74834 0.0
H276 H 0.45229 0.38228 0.69537 0.0
H277 H 0.46576 0.40505 0.66703 0.0
H278 H 0.48656 0.41172 0.67909 0.0
H279 H 0.47297 0.38932 0.7075 0.0
C280 C 0.87188 0.2102 0.01365 0.0
C281 C 0.86497 0.1989 0.01679 0.0
C282 C 0.87912 0.20013 0.03543 0.0
C283 C 0.86851 0.19397 0.0276 0.0
C284 C 0.88594 0.21151 0.03237 0.0
C285 C 0.88231 0.21653 0.0216 0.0
U286 U 0.86632 0.20413 0.97926 0.0
O287 O 0.85154 0.20935 0.96621 0.0
O288 O 0.87239 0.21533 0.96437 0.0
C289 C 0.86032 0.21588 0.96031 0.0
C290 C 0.86883 0.21502 1.00181 0.0
C291 C 0.85736 0.22825 0.9571 0.0
C292 C 0.8611 0.25129 0.95955 0.0
C293 C 0.86322 0.2397 0.96367 0.0
C294 C 0.84693 0.24006 0.94255 0.0
C295 C 0.85307 0.25158 0.94883 0.0
C296 C 0.84906 0.22854 0.94665 0.0
C297 C 0.86939 0.17131 0.96433 0.0
C298 C 0.86255 0.16497 0.94287 0.0
C299 C 0.87522 0.1519 0.95418 0.0
C300 C 0.87554 0.16047 0.96468 0.0
C301 C 0.86867 0.15404 0.94318 0.0
C302 C 0.86296 0.17357 0.95335 0.0
C303 C 0.86995 0.18034 0.97536 0.0
O304 O 0.8784 0.21583 0.99446 0.0
O305 O 0.85747 0.21029 0.9961 0.0
O306 O 0.85873 0.18386 0.9782 0.0
O307 O 0.8795 0.18982 0.97619 0.0
H308 H 0.85697 0.1937 0.0108 0.0
H309 H 0.86319 0.18509 0.02962 0.0
H310 H 0.89412 0.21649 0.03827 0.0
H311 H 0.8878 0.22522 0.01935 0.0
H312 H 0.86587 0.26 0.96466 0.0
H313 H 0.86964 0.23968 0.9718 0.0
H314 H 0.84087 0.2399 0.93416 0.0
H315 H 0.84451 0.21979 0.94143 0.0
H316 H 0.85758 0.16695 0.93449 0.0
H317 H 0.87992 0.14351 0.95472 0.0
H318 H 0.8806 0.15863 0.97308 0.0
H319 H 0.85827 0.18198 0.95288 0.0
C320 C 0.24734 0.99324 0.35536 0.0
C321 C 0.24859 1.00489 0.35041 0.0
C322 C 0.22506 1.00462 0.34961 0.0
C323 C 0.23758 0.0105 0.34752 0.0
C324 C 0.22382 0.99285 0.35443 0.0
C325 C 0.2349 0.9872 0.35728 0.0
U326 U 0.28328 0.99894 0.36341 0.0
O327 O 0.29562 0.99309 0.37815 0.0
O328 O 0.29928 0.9881 0.35889 0.0
C329 C 0.30239 0.98691 0.37044 0.0
C330 C 0.2591 0.98795 0.35924 0.0
C331 C 0.30489 0.97423 0.37318 0.0
C332 C 0.29984 0.95497 0.38304 0.0
C333 C 0.29659 0.96663 0.38 0.0
C334 C 0.31951 0.95833 0.37223 0.0
C335 C 0.31144 0.95078 0.37931 0.0
C336 C 0.31628 0.96993 0.36924 0.0
C337 C 0.30035 0.03237 0.36179 0.0
C338 C 0.32312 0.0386 0.36887 0.0
C339 C 0.31103 0.05348 0.35951 0.0
C340 C 0.29994 0.04436 0.35787 0.0
C341 C 0.32272 0.05074 0.36513 0.0
C342 C 0.31202 0.02947 0.36719 0.0
C343 C 0.28852 0.02303 0.36035 0.0
O344 O 0.26781 0.98743 0.35103 0.0
O345 O 0.26425 0.99252 0.37024 0.0
O346 O 0.28451 0.01897 0.37057 0.0
O347 O 0.28824 0.01389 0.35141 0.0
H348 H 0.25815 0.00979 0.34902 0.0
H349 H 0.2389 0.01967 0.34405 0.0
H350 H 0.21431 0.98807 0.35609 0.0
H351 H 0.23377 0.97825 0.36117 0.0
H352 H 0.29344 0.94939 0.38852 0.0
H353 H 0.28772 0.96976 0.38312 0.0
H354 H 0.32836 0.95526 0.36897 0.0
H355 H 0.32279 0.97564 0.36394 0.0
H356 H 0.33192 0.03623 0.37334 0.0
H357 H 0.31046 0.06267 0.35638 0.0
H358 H 0.29101 0.0467 0.35362 0.0
H359 H 0.31248 0.02022 0.37026 0.0
C360 C 0.19103 0.97095 0.64239 0.0
C361 C 0.17873 0.96707 0.63615 0.0
C362 C 0.17767 0.94654 0.64401 0.0
C363 C 0.17214 0.95495 0.63691 0.0
C364 C 0.18997 0.95047 0.65028 0.0
C365 C 0.19662 0.96258 0.64944 0.0
U366 U 0.18957 1.00523 0.6378 0.0
O367 O 0.20024 0.02292 0.64727 0.0
O368 O 0.20159 0.01843 0.62749 0.0
C369 C 0.20584 0.02611 0.63738 0.0
C370 C 0.19783 0.98382 0.64186 0.0
C371 C 0.22 0.03036 0.63878 0.0
C372 C 0.24145 0.03107 0.64925 0.0
C373 C 0.22814 0.02628 0.6478 0.0
C374 C 0.23865 0.04377 0.63248 0.0
C375 C 0.24682 0.03991 0.64162 0.0
C376 C 0.22538 0.03906 0.6311 0.0
C377 C 0.15633 0.0158 0.63153 0.0
C378 C 0.15093 0.03287 0.61996 0.0
C379 C 0.1383 0.02712 0.63692 0.0
C380 C 0.14603 0.01768 0.63891 0.0
C381 C 0.14064 0.03483 0.62741 0.0
C382 C 0.15873 0.0235 0.62203 0.0
C383 C 0.16449 1.00591 0.634 0.0
O384 O 0.19736 0.98797 0.63099 0.0
O385 O 0.19563 0.99228 0.65071 0.0
O386 O 0.17049 1.00722 0.64501 0.0
O387 O 0.17188 1.0025 0.62529 0.0
H388 H 0.17416 0.97346 0.63078 0.0
H389 H 0.16259 0.95226 0.63214 0.0
H390 H 0.19447 0.94416 0.65579 0.0
H391 H 0.20607 0.96545 0.65436 0.0
H392 H 0.24754 0.02786 0.65631 0.0
H393 H 0.22422 0.01952 0.6538 0.0
H394 H 0.24245 0.05069 0.62658 0.0
H395 H 0.21925 0.04235 0.62412 0.0
H396 H 0.15291 0.03851 0.61246 0.0
H397 H 0.13062 0.02849 0.64297 0.0
H398 H 0.14403 0.01189 0.64631 0.0
H399 H 0.16664 0.0223 0.6162 0.0
C400 C 0.22456 0.02851 0.88349 0.0
C401 C 0.21242 0.02852 0.88848 0.0
C402 C 0.21219 0.05046 0.88456 0.0
C403 C 0.2063 0.03937 0.88902 0.0
C404 C 0.22444 0.05044 0.87965 0.0
C405 C 0.23058 0.03953 0.87913 0.0
U406 U 0.2212 0.99384 0.88677 0.0
O407 O 0.2262 0.97761 0.87507 0.0
O408 O 0.2346 0.98165 0.8941 0.0
C409 C 0.23442 0.97468 0.88355 0.0
C410 C 0.23054 0.0168 0.88242 0.0
C411 C 0.24719 0.97196 0.87962 0.0
C412 C 0.26537 0.97498 0.86668 0.0
C413 C 0.25354 0.97832 0.87059 0.0
C414 C 0.26471 0.95914 0.881 0.0
C415 C 0.27101 0.96523 0.87176 0.0
C416 C 0.25292 0.96245 0.88485 0.0
C417 C 0.18872 0.97939 0.89783 0.0
C418 C 0.18071 0.95687 0.89589 0.0
C419 C 0.16961 0.97165 0.90808 0.0
C420 C 0.17867 0.98167 0.90537 0.0
C421 C 0.17043 0.95915 0.90324 0.0
C422 C 0.18982 0.96691 0.89325 0.0
C423 C 0.19768 0.99016 0.89457 0.0
O424 O 0.23301 0.01225 0.89286 0.0
O425 O 0.22487 1.00809 0.87382 0.0
O426 O 0.19995 0.98994 0.88292 0.0
O427 O 0.20824 0.99364 0.90196 0.0
H428 H 0.20758 0.02004 0.89179 0.0
H429 H 0.19678 0.03897 0.89264 0.0
H430 H 0.22926 0.05885 0.87622 0.0
H431 H 0.23994 0.03966 0.87521 0.0
H432 H 0.26995 0.97983 0.85952 0.0
H433 H 0.24928 0.98574 0.86645 0.0
H434 H 0.26891 0.9518 0.88531 0.0
H435 H 0.2482 0.95749 0.89188 0.0
H436 H 0.18166 0.94733 0.89214 0.0
H437 H 0.16173 0.97372 0.91366 0.0
H438 H 0.1777 0.99125 0.90899 0.0
H439 H 0.1976 0.96496 0.88748 0.0
C440 C 0.27825 0.02815 0.13559 0.0
C441 C 0.27811 0.01646 0.14036 0.0
C442 C 0.25476 0.01512 0.14239 0.0
C443 C 0.26651 0.01003 0.14376 0.0
C444 C 0.2549 0.02684 0.13757 0.0
C445 C 0.26659 0.03332 0.13422 0.0
U446 U 0.31242 0.02564 0.12784 0.0
O447 O 0.3245 0.03307 0.11364 0.0
O448 O 0.3311 0.03776 0.13311 0.0
C449 C 0.33323 0.03974 0.12174 0.0
C450 C 0.29053 0.03456 0.13172 0.0
C451 C 0.33782 0.05299 0.11969 0.0
C452 C 0.33829 0.07084 0.1075 0.0
C453 C 0.33288 0.05864 0.10971 0.0
C454 C 0.35344 0.07198 0.12531 0.0
C455 C 0.34878 0.07756 0.11519 0.0
C456 C 0.34808 0.05983 0.12748 0.0
C457 C 0.32336 0.99326 0.13006 0.0
C458 C 0.34529 0.98918 0.1261 0.0
C459 C 0.32966 0.97259 0.13244 0.0
C460 C 0.32029 0.98082 0.13295 0.0
C461 C 0.34228 0.97668 0.12903 0.0
C462 C 0.3359 0.99742 0.12663 0.0
C463 C 0.31342 1.00179 0.13085 0.0
O464 O 0.30042 0.03597 0.14001 0.0
O465 O 0.29354 0.03034 0.12077 0.0
O466 O 0.30945 1.00556 0.12043 0.0
O467 O 0.31561 0.01097 0.13987 0.0
H468 H 0.28699 0.01223 0.14134 0.0
H469 H 0.26669 1.00092 0.14719 0.0
H470 H 0.246 0.03098 0.13643 0.0
H471 H 0.26652 0.04231 0.13049 0.0
H472 H 0.33453 0.07486 0.0996 0.0
H473 H 0.32501 0.05358 0.10348 0.0
H474 H 0.36132 0.07698 0.13156 0.0
H475 H 0.35212 0.05569 0.13519 0.0
H476 H 0.35495 0.99263 0.12354 0.0
H477 H 0.32697 0.96297 0.13457 0.0
H478 H 0.31064 0.97747 0.1356 0.0
H479 H 0.33841 1.00704 0.12442 0.0
C480 C 0.42635 0.29459 0.03402 0.0
C481 C 0.42277 0.2956 0.04614 0.0
C482 C 0.42398 0.27321 0.0472 0.0
C483 C 0.42159 0.28503 0.05266 0.0
C484 C 0.42769 0.27225 0.03506 0.0
C485 C 0.42883 0.28287 0.02851 0.0
U486 U 0.42519 0.32941 0.03451 0.0
O487 O 0.43699 0.34462 0.02642 0.0
O488 O 0.41583 0.34066 0.02176 0.0
C489 C 0.42699 0.34717 0.01964 0.0
C490 C 0.42738 0.30579 0.02724 0.0
C491 C 0.42906 0.34879 1.00672 0.0
C492 C 0.44066 0.34542 0.98833 0.0
C493 C 0.43832 0.34285 1.00032 0.0
C494 C 0.42426 0.35955 0.98892 0.0
C495 C 0.43372 0.3539 0.98255 0.0
C496 C 0.42197 0.35702 1.00088 0.0
C497 C 0.41875 0.34675 0.06524 0.0
C498 C 0.40936 0.36632 0.06851 0.0
C499 C 0.42154 0.35899 0.08522 0.0
C500 C 0.42375 0.34846 0.07749 0.0
C501 C 0.4142 0.36796 0.08085 0.0
C502 C 0.41167 0.35583 0.06074 0.0
C503 C 0.42078 0.33528 0.05747 0.0
O504 O 0.41645 0.31061 0.02577 0.0
O505 O 0.43748 0.31442 0.03079 0.0
O506 O 0.43256 0.33517 0.05371 0.0
O507 O 0.41148 0.33083 0.0489 0.0
H508 H 0.4209 0.30461 0.05056 0.0
H509 H 0.41894 0.28614 0.06206 0.0
H510 H 0.42953 0.26325 0.03059 0.0
H511 H 0.4316 0.28193 0.01915 0.0
H512 H 0.44795 0.34085 0.98362 0.0
H513 H 0.44388 0.3364 1.00464 0.0
H514 H 0.41889 0.36627 0.98482 0.0
H515 H 0.41484 0.36175 1.00568 0.0
H516 H 0.40377 0.37315 0.06487 0.0
H517 H 0.42527 0.35992 0.09472 0.0
H518 H 0.42923 0.34155 0.08112 0.0
H519 H 0.40781 0.35476 0.05127 0.0
C520 C 0.04369 0.91747 0.24291 0.0
C521 C 0.04261 0.92253 0.23166 0.0
C522 C 0.06615 0.9244 0.23043 0.0
C523 C 0.05373 0.92605 0.22553 0.0
C524 C 0.0672 0.9195 0.24182 0.0
C525 C 0.05605 0.91608 0.248 0.0
U526 U 1.0082 0.90338 0.2405 0.0
O527 O 0.99723 0.88925 0.25059 0.0
O528 O 0.99167 0.90836 0.25073 0.0
C529 C 0.9898 0.89734 0.25513 0.0
C530 C 0.03192 0.91304 0.24901 0.0
C531 C 0.98804 0.89786 0.26835 0.0
C532 C 0.99476 0.89416 0.28912 0.0
C533 C 0.99704 0.89384 0.27666 0.0
C534 C 0.97465 0.90272 0.28509 0.0
C535 C 0.98348 0.89854 0.29346 0.0
C536 C 0.97689 0.90233 0.27269 0.0
C537 C 0.99046 0.89545 0.20903 0.0
C538 C 0.96784 0.88563 0.20684 0.0
C539 C 0.97815 0.89348 0.18933 0.0
C540 C 0.98978 0.89734 0.19661 0.0
C541 C 0.96701 0.88766 0.19438 0.0
C542 C 0.97946 0.88953 0.21411 0.0
C543 C 1.00249 0.90012 0.21675 0.0
O544 O 0.02232 0.91984 0.24805 0.0
O545 O 0.02802 0.90078 0.24715 0.0
O546 O 1.00737 0.89165 0.22282 0.0
O547 O 1.00233 0.91093 0.22345 0.0
H548 H 0.03315 0.92362 0.2275 0.0
H549 H 0.05257 0.92997 0.21689 0.0
H550 H 0.07658 0.91795 0.24578 0.0
H551 H 0.05706 0.9121 0.25663 0.0
H552 H 1.00172 0.89082 0.2953 0.0
H553 H 1.00575 0.89038 0.27354 0.0
H554 H 0.96602 0.90643 0.28813 0.0
H555 H 0.96986 0.90552 0.26644 0.0
H556 H 0.95951 0.88103 0.21098 0.0
H557 H 0.9778 0.89534 0.17982 0.0
H558 H 0.99817 0.90198 0.19258 0.0
H559 H 0.97982 0.88803 0.22372 0.0
C560 C 0.10647 0.71825 0.57041 0.0
C561 C 0.10548 0.71841 0.58309 0.0
C562 C 0.10651 0.74138 0.58511 0.0
C563 C 0.10545 0.72985 0.59037 0.0
C564 C 0.1076 0.74115 0.57238 0.0
C565 C 0.10756 0.72966 0.5651 0.0
U566 U 0.10975 0.6835 0.56829 0.0
O567 O 0.09853 0.66694 0.55732 0.0
O568 O 0.11958 0.67149 0.55545 0.0
C569 C 0.10863 0.66427 0.55136 0.0
C570 C 0.10649 0.70619 0.56278 0.0
C571 C 0.10646 0.66163 0.53796 0.0
C572 C 0.09532 0.66431 0.51852 0.0
C573 C 0.09762 0.66758 0.53118 0.0
C574 C 0.11092 0.64942 0.51928 0.0
C575 C 0.10191 0.65515 0.51245 0.0
C576 C 0.11315 0.65262 0.53191 0.0
C577 C 0.11651 0.66903 0.59796 0.0
C578 C 0.111 0.64699 0.60162 0.0
C579 C 0.12797 0.66065 0.61455 0.0
C580 C 0.12601 0.67071 0.6078 0.0
C581 C 0.12037 0.64873 0.61162 0.0
C582 C 0.10914 0.65703 0.59479 0.0
C583 C 0.11432 0.67991 0.59128 0.0
O584 O 0.11782 0.70196 0.56268 0.0
O585 O 0.09674 0.69735 0.5641 0.0
O586 O 0.10252 0.67964 0.58611 0.0
O587 O 0.1236 0.68374 0.5843 0.0
H588 H 0.10467 0.70967 0.58736 0.0
H589 H 0.10441 0.72964 0.60009 0.0
H590 H 0.1086 0.74985 0.56806 0.0
H591 H 0.10842 0.7297 0.55533 0.0
H592 H 0.0884 0.66895 0.51347 0.0
H593 H 0.0924 0.67462 0.53567 0.0
H594 H 0.11602 0.6422 0.51491 0.0
H595 H 0.11998 0.64791 0.537 0.0
H596 H 0.10509 0.63788 0.59911 0.0
H597 H 0.13516 0.66229 0.62229 0.0
H598 H 0.13181 0.67988 0.61037 0.0
H599 H 0.10184 0.65545 0.58714 0.0
C600 C 0.99413 0.64184 0.79123 0.0
C601 C 0.98369 0.64889 0.7922 0.0
C602 C 0.97916 0.64107 0.81179 0.0
C603 C 0.97628 0.64852 0.80241 0.0
C604 C 0.98986 0.63429 0.81089 0.0
C605 C 0.99726 0.63467 0.80067 0.0
U606 U 0.99809 0.65043 0.75898 0.0
O607 O 0.01563 0.65559 0.74917 0.0
O608 O 1.00165 0.63877 0.7423 0.0
C609 C 0.01301 0.64548 0.74117 0.0
C610 C 1.00121 0.64133 0.78006 0.0
C611 C 0.02384 0.6382 0.73896 0.0
C612 C 0.03585 0.62079 0.74278 0.0
C613 C 0.02592 0.62804 0.74565 0.0
C614 C 0.04187 0.63405 0.72681 0.0
C615 C 0.0438 0.62362 0.7332 0.0
C616 C 0.03197 0.64124 0.72965 0.0
C617 C 0.97464 0.66997 0.74462 0.0
C618 C 0.9748 0.67271 0.72297 0.0
C619 C 0.95908 0.68185 0.73529 0.0
C620 C 0.96428 0.67708 0.7456 0.0
C621 C 0.96415 0.67956 0.7238 0.0
C622 C 0.98 0.66796 0.73329 0.0
C623 C 0.97937 0.66415 0.75525 0.0
O624 O 0.99454 0.63483 0.77044 0.0
O625 O 1.00754 0.65217 0.77763 0.0
O626 O 0.99108 0.66901 0.76006 0.0
O627 O 0.97753 0.65171 0.75396 0.0
H628 H 0.98114 0.65447 0.78496 0.0
H629 H 0.9682 0.65396 0.8029 0.0
H630 H 0.99223 0.62834 0.81788 0.0
H631 H 1.00525 0.62911 0.80001 0.0
H632 H 0.03707 0.61281 0.74785 0.0
H633 H 0.01974 0.62559 0.75291 0.0
H634 H 0.04801 0.63666 0.71956 0.0
H635 H 0.03055 0.6491 0.72445 0.0
H636 H 0.97882 0.67063 0.71425 0.0
H637 H 0.95099 0.68722 0.73628 0.0
H638 H 0.96006 0.67873 0.7543 0.0
H639 H 0.98799 0.66245 0.73237 0.0
C640 C 0.10816 0.23141 0.46245 0.0
C641 C 0.11562 0.23142 0.45221 0.0
C642 C 0.10981 0.25198 0.44816 0.0
C643 C 0.11649 0.24162 0.44516 0.0
C644 C 0.10254 0.25203 0.45859 0.0
C645 C 0.10172 0.24181 0.46566 0.0
U646 U 0.10978 0.19669 0.46277 0.0
O647 O 0.1163 0.18517 0.47676 0.0
O648 O 0.09611 0.18123 0.46861 0.0
C649 C 0.10468 0.17854 0.47689 0.0
C650 C 0.10634 0.22016 0.46917 0.0
C651 C 0.09991 0.17631 0.48898 0.0
C652 C 0.10163 0.18031 0.51123 0.0
C653 C 0.10531 0.1837 0.49981 0.0
C654 C 0.08676 0.16246 0.50113 0.0
C655 C 0.09248 0.16952 0.51202 0.0
C656 C 0.09046 0.16582 0.48975 0.0
C657 C 0.12095 0.17967 0.43398 0.0
C658 C 0.11864 0.15674 0.43014 0.0
C659 C 0.12962 0.1698 0.41601 0.0
C660 C 0.12759 0.18069 0.42332 0.0
C661 C 0.12499 0.1577 0.41923 0.0
C662 C 0.11665 0.16765 0.43747 0.0
C663 C 0.11822 0.19121 0.44111 0.0
O664 O 0.09684 0.21136 0.46442 0.0
O665 O 0.11707 0.21557 0.47229 0.0
O666 O 0.12606 0.19512 0.45096 0.0
O667 O 0.10586 0.1916 0.44294 0.0
H668 H 0.1206 0.22341 0.44952 0.0
H669 H 0.12232 0.24135 0.43731 0.0
H670 H 0.09715 0.25978 0.46107 0.0
H671 H 0.0958 0.2419 0.47347 0.0
H672 H 0.10611 0.18601 0.51945 0.0
H673 H 0.1126 0.19188 0.49948 0.0
H674 H 0.07983 0.154 0.5014 0.0
H675 H 0.08624 0.15994 0.48153 0.0
H676 H 0.11486 0.14757 0.43282 0.0
H677 H 0.13473 0.17087 0.40778 0.0
H678 H 0.13104 0.18991 0.42055 0.0
H679 H 0.11151 0.16672 0.44571 0.0
C680 C 0.46846 0.39532 0.25103 0.0
C681 C 0.46659 0.39214 0.23832 0.0
C682 C 0.44999 0.4061 0.23707 0.0
C683 C 0.45743 0.39744 0.23142 0.0
C684 C 0.4519 0.40931 0.24983 0.0
C685 C 0.46107 0.40393 0.25677 0.0
U686 U 0.49799 0.37877 0.25042 0.0
O687 O 0.51671 0.38201 0.26144 0.0
O688 O 0.5043 0.36358 0.26047 0.0
C689 C 0.51504 0.3707 0.26526 0.0
C690 C 0.4786 0.3901 0.25805 0.0
C691 C 0.5183 0.37019 0.27835 0.0
C692 C 0.51637 0.37689 0.29986 0.0
C693 C 0.51228 0.37693 0.28748 0.0
C694 C 0.53226 0.36317 0.29399 0.0
C695 C 0.52659 0.37019 0.3032 0.0
C696 C 0.52816 0.36318 0.2817 0.0
C697 C 0.51061 0.37054 0.21938 0.0
C698 C 0.53087 0.36164 0.21793 0.0
C699 C 0.51953 0.36692 0.19964 0.0
C700 C 0.50979 0.371 0.20668 0.0
C701 C 0.53027 0.36234 0.2052 0.0
C702 C 0.52111 0.36571 0.22496 0.0
C703 C 0.50088 0.37574 0.22682 0.0
O704 O 0.478 0.3777 0.25632 0.0
O705 O 0.49046 0.39607 0.25766 0.0
O706 O 0.50532 0.38624 0.23385 0.0
O707 O 0.4935 0.36752 0.23245 0.0
H708 H 0.47235 0.38565 0.23369 0.0
H709 H 0.45641 0.39496 0.22159 0.0
H710 H 0.44628 0.41593 0.25444 0.0
H711 H 0.46247 0.40656 0.26657 0.0
H712 H 0.51187 0.38243 0.30676 0.0
H713 H 0.50464 0.38239 0.28502 0.0
H714 H 0.54001 0.35776 0.2963 0.0
H715 H 0.53287 0.35789 0.27476 0.0
H716 H 0.53893 0.35803 0.22247 0.0
H717 H 0.51887 0.36773 0.18989 0.0
H718 H 0.50176 0.37477 0.20226 0.0
H719 H 0.52188 0.36531 0.23478 0.0
C720 C 0.3772 0.78133 0.96975 0.0
C721 C 0.37284 0.77984 0.95731 0.0
C722 C 0.3768 0.75789 0.95556 0.0
C723 C 0.37261 0.76823 0.95029 0.0
C724 C 0.38099 0.75937 0.9681 0.0
C725 C 0.38118 0.77103 0.97514 0.0
U726 U 0.37719 0.81623 0.96941 0.0
O727 O 0.36878 0.83034 0.9813 0.0
O728 O 0.38986 0.83269 0.97908 0.0
C729 C 0.38027 0.8368 0.98491 0.0
C730 C 0.37832 0.79385 0.97678 0.0
C731 C 0.38284 0.84003 0.99821 0.0
C732 C 0.39249 0.83623 0.01795 0.0
C733 C 0.38973 0.83262 1.00539 0.0
C734 C 0.3812 0.85446 0.0163 0.0
C735 C 0.3883 0.84723 0.02352 0.0
C736 C 0.37852 0.85089 1.00376 0.0
C737 C 0.37218 0.82798 0.93802 0.0
C738 C 0.37658 0.85011 0.93442 0.0
C739 C 0.36576 0.83452 0.91831 0.0
C740 C 0.3664 0.82502 0.92608 0.0
C741 C 0.37095 0.84717 0.92235 0.0
C742 C 0.37716 0.84059 0.9422 0.0
C743 C 0.37314 0.81778 0.94587 0.0
O744 O 0.38874 0.80164 0.97487 0.0
O745 O 0.3676 0.79917 0.97659 0.0
O746 O 0.36363 0.81577 0.95315 0.0
O747 O 0.38474 0.81764 0.95129 0.0
H748 H 0.36987 0.78776 0.95297 0.0
H749 H 0.36956 0.76748 0.94063 0.0
H750 H 0.3842 0.75155 0.97242 0.0
H751 H 0.38463 0.77205 0.98472 0.0
H752 H 0.39789 0.83042 0.02331 0.0
H753 H 0.39306 0.82412 1.00127 0.0
H754 H 0.37799 0.86307 0.02029 0.0
H755 H 0.3732 0.85672 0.99835 0.0
H756 H 0.38077 0.85972 0.93779 0.0
H757 H 0.36115 0.83197 0.90916 0.0
H758 H 0.36244 0.81534 0.92273 0.0
H759 H 0.38164 0.84304 0.95143 0.0
C760 C 1.00716 0.39617 0.77806 0.0
C761 C 0.01004 0.38986 0.78826 0.0
C762 C 0.03256 0.40009 0.78961 0.0
C763 C 0.02264 0.39176 0.79395 0.0
C764 C 0.0296 0.4065 0.77946 0.0
C765 C 0.01699 0.40451 0.7737 0.0
U766 U 0.97096 0.38638 0.77965 0.0
O767 O 0.95407 0.39474 0.77285 0.0
O768 O 0.95627 0.37519 0.76621 0.0
C769 C 0.94977 0.38478 0.76501 0.0
C770 C 0.99387 0.3943 0.77215 0.0
C771 C 0.94698 0.38747 0.75237 0.0
C772 C 0.95364 0.39706 0.7342 0.0
C773 C 0.95652 0.39432 0.74614 0.0
C774 C 0.93174 0.38592 0.73451 0.0
C775 C 0.94118 0.39295 0.72826 0.0
C776 C 0.93463 0.38322 0.74647 0.0
C777 C 0.95864 0.37599 0.80959 0.0
C778 C 0.93645 0.36611 0.81141 0.0
C779 C 0.95009 0.37514 0.82962 0.0
C780 C 0.96031 0.37863 0.82235 0.0
C781 C 0.938 0.36889 0.82424 0.0
C782 C 0.94666 0.36969 0.80414 0.0
C783 C 0.96931 0.38033 0.80211 0.0
O784 O 0.98827 0.38246 0.77013 0.0
O785 O 0.98613 0.40203 0.77673 0.0
O786 O 0.96954 0.39198 0.79926 0.0
O787 O 0.97148 0.37229 0.79287 0.0
H788 H 1.00253 0.3835 0.79185 0.0
H789 H 0.02458 0.38685 0.80187 0.0
H790 H 0.03707 0.41293 0.7759 0.0
H791 H 0.01491 0.40951 0.76587 0.0
H792 H 0.96108 0.40261 0.72971 0.0
H793 H 0.96614 0.39764 0.75058 0.0
H794 H 0.92213 0.38244 0.73015 0.0
H795 H 0.92719 0.37785 0.75113 0.0
H796 H 0.92734 0.36118 0.80697 0.0
H797 H 0.95157 0.37763 0.83943 0.0
H798 H 0.96946 0.38359 0.82669 0.0
H799 H 0.94517 0.36762 0.79428 0.0
C800 C 0.35825 0.23994 0.53052 0.0
C801 C 0.35246 0.24 0.54174 0.0
C802 C 0.35587 0.26306 0.54424 0.0
C803 C 0.35123 0.25145 0.54852 0.0
C804 C 0.36138 0.26293 0.53284 0.0
C805 C 0.36258 0.25145 0.52604 0.0
U806 U 0.35978 0.20513 0.53087 0.0
O807 O 0.35355 0.18878 0.51705 0.0
O808 O 0.37406 0.19318 0.52421 0.0
C809 C 0.36553 0.18624 0.51612 0.0
C810 C 0.36055 0.22793 0.52396 0.0
C811 C 0.36968 0.18422 0.50357 0.0
C812 C 0.38331 0.19041 0.48729 0.0
C813 C 0.37899 0.19299 0.49898 0.0
C814 C 0.36875 0.17052 0.48451 0.0
C815 C 0.3783 0.1791 0.47997 0.0
C816 C 0.36452 0.17305 0.49621 0.0
C817 C 0.35236 0.19091 0.56062 0.0
C818 C 0.35503 0.16921 0.56361 0.0
C819 C 0.34745 0.18273 0.57988 0.0
C820 C 0.34816 0.19263 0.57246 0.0
C821 C 0.35094 0.17093 0.57557 0.0
C822 C 0.35572 0.17913 0.55618 0.0
C823 C 0.35352 0.20158 0.55318 0.0
O824 O 0.37094 0.22348 0.52821 0.0
O825 O 0.35025 0.21923 0.52176 0.0
O826 O 0.34485 0.20069 0.54382 0.0
O827 O 0.36543 0.20562 0.55049 0.0
H828 H 0.34911 0.23119 0.54536 0.0
H829 H 0.34678 0.25122 0.55718 0.0
H830 H 0.36519 0.2717 0.52936 0.0
H831 H 0.36716 0.25156 0.51744 0.0
H832 H 0.39059 0.19723 0.48398 0.0
H833 H 0.38304 0.20173 0.50446 0.0
H834 H 0.36483 0.16166 0.47916 0.0
H835 H 0.35736 0.16617 0.4996 0.0
H836 H 0.35765 0.16019 0.55998 0.0
H837 H 0.34443 0.18442 0.58909 0.0
H838 H 0.34558 0.20169 0.57603 0.0
H839 H 0.35897 0.17766 0.54703 0.0
C840 C 0.47777 0.62622 0.26508 0.0
C841 C 0.47611 0.63191 0.27684 0.0
C842 C 0.45512 0.61876 0.27707 0.0
C843 C 0.46487 0.62827 0.28274 0.0
C844 C 0.45679 0.61308 0.26528 0.0
C845 C 0.46801 0.61682 0.25932 0.0
U846 U 0.51411 0.63654 0.26792 0.0
O847 O 0.52994 0.63025 0.25754 0.0
O848 O 0.52669 0.65016 0.25846 0.0
C849 C 0.53321 0.64139 0.25369 0.0
C850 C 0.48993 0.62954 0.2591 0.0
C851 C 0.53509 0.64131 0.24054 0.0
C852 C 0.52895 0.63309 0.21931 0.0
C853 C 0.52626 0.63389 0.23167 0.0
C854 C 0.54901 0.64752 0.22455 0.0
C855 C 0.5405 0.6397 0.21565 0.0
C856 C 0.54632 0.64829 0.23687 0.0
C857 C 0.53125 0.64127 0.29996 0.0
C858 C 0.55424 0.64958 0.30382 0.0
C859 C 0.54241 0.64002 0.31971 0.0
C860 C 0.53107 0.63771 0.31186 0.0
C861 C 0.55415 0.64596 0.31579 0.0
C862 C 0.54289 0.64722 0.29596 0.0
C863 C 0.51936 0.63825 0.2917 0.0
O864 O 0.49526 0.64147 0.26118 0.0
O865 O 0.49843 0.62155 0.25996 0.0
O866 O 0.51855 0.62759 0.28453 0.0
O867 O 0.51586 0.64764 0.28601 0.0
H868 H 0.48361 0.63904 0.28155 0.0
H869 H 0.46395 0.63266 0.29189 0.0
H870 H 0.44941 0.60576 0.26068 0.0
H871 H 0.46916 0.61226 0.25029 0.0
H872 H 0.52226 0.62692 0.2127 0.0
H873 H 0.5175 0.62846 0.23435 0.0
H874 H 0.55786 0.65288 0.222 0.0
H875 H 0.5532 0.65412 0.2436 0.0
H876 H 0.56307 0.65429 0.30055 0.0
H877 H 0.54202 0.6369 0.32878 0.0
H878 H 0.52218 0.633 0.31505 0.0
H879 H 0.54321 0.64996 0.28674 0.0
C880 C 0.09763 0.79196 0.02137 0.0
C881 C 0.09846 0.80519 0.02215 0.0
C882 C 0.09036 0.80393 1.00079 0.0
C883 C 0.09493 0.81111 0.01198 0.0
C884 C 0.08929 0.79062 1.00011 0.0
C885 C 0.09292 0.78468 0.01034 0.0
U886 U 0.11033 0.79689 0.05403 0.0
O887 O 0.10674 0.78638 0.06997 0.0
O888 O 0.12664 0.79021 0.06402 0.0
C889 C 0.11901 0.78458 0.07157 0.0
C890 C 0.10211 0.78606 0.03206 0.0
C891 C 0.12145 0.77179 0.07391 0.0
C892 C 0.11606 0.74885 0.07108 0.0
C893 C 0.11378 0.76082 0.06805 0.0
C894 C 0.13385 0.75875 0.08556 0.0
C895 C 0.12608 0.7477 0.07994 0.0
C896 C 0.13155 0.77065 0.08257 0.0
C897 C 0.11428 0.83132 0.06872 0.0
C898 C 0.11255 0.84025 0.08967 0.0
C899 C 0.12681 0.85162 0.07655 0.0
C900 C 0.12321 0.84194 0.06702 0.0
C901 C 0.12145 0.85095 0.08797 0.0
C902 C 0.10903 0.83052 0.08017 0.0
C903 C 0.11044 0.82142 0.05837 0.0
O904 O 0.11453 0.78945 0.03555 0.0
O905 O 0.09453 0.78643 0.04124 0.0
O906 O 0.1002 0.81307 0.05952 0.0
O907 O 0.12005 0.81637 0.05346 0.0
H908 H 0.10211 0.81097 0.0306 0.0
H909 H 0.09617 0.82136 0.01282 0.0
H910 H 0.08571 0.7848 0.99167 0.0
H911 H 0.09219 0.77445 0.0096 0.0
H912 H 0.10997 0.74051 0.06652 0.0
H913 H 0.10597 0.76151 0.06128 0.0
H914 H 0.14149 0.75824 0.09257 0.0
H915 H 0.13754 0.77902 0.08721 0.0
H916 H 0.10811 0.8395 0.09829 0.0
H917 H 0.13385 0.85961 0.07497 0.0
H918 H 0.12739 0.84276 0.05828 0.0
H919 H 0.10211 0.82244 0.08176 0.0
C920 C 0.76777 0.02708 0.64299 0.0
C921 C 0.76728 0.01405 0.64383 0.0
C922 C 0.7906 0.01689 0.64956 0.0
C923 C 0.77857 0.009 0.64707 0.0
C924 C 0.79106 0.02997 0.64866 0.0
C925 C 0.77971 0.03502 0.64542 0.0
U926 U 0.73184 0.02102 0.6341 0.0
O927 O 0.7155 0.03071 0.63988 0.0
O928 O 0.71955 0.02872 0.62044 0.0
C929 C 0.7125 0.03352 0.62879 0.0
C930 C 0.75579 0.03226 0.63961 0.0
C931 C 0.70981 0.04654 0.62777 0.0
C932 C 0.71262 0.06896 0.63513 0.0
C933 C 0.71643 0.05693 0.63548 0.0
C934 C 0.69595 0.06042 0.61902 0.0
C935 C 0.70214 0.07078 0.62707 0.0
C936 C 0.69974 0.04843 0.61939 0.0
C937 C 0.71519 0.98669 0.63183 0.0
C938 C 0.69326 0.9782 0.63638 0.0
C939 C 0.70451 0.96666 0.62125 0.0
C940 C 0.71531 0.97612 0.62326 0.0
C941 C 0.69338 0.96753 0.62786 0.0
C942 C 0.70402 0.98771 0.63831 0.0
C943 C 0.72688 0.99636 0.63404 0.0
O944 O 0.75095 0.02882 0.62828 0.0
O945 O 0.74691 0.03136 0.64765 0.0
O946 O 0.72743 1.00432 0.64401 0.0
O947 O 0.73074 1.00184 0.62443 0.0
H948 H 0.75813 1.00777 0.64193 0.0
H949 H 0.7779 0.99888 0.64746 0.0
H950 H 0.80016 0.0363 0.65059 0.0
H951 H 0.78025 0.04511 0.64483 0.0
H952 H 0.71753 0.07672 0.64151 0.0
H953 H 0.72426 0.05567 0.64201 0.0
H954 H 0.688 0.06154 0.61256 0.0
H955 H 0.69456 0.04054 0.61333 0.0
H956 H 0.68495 0.97912 0.64176 0.0
H957 H 0.70487 0.9587 0.61447 0.0
H958 H 0.72381 0.97515 0.61814 0.0
H959 H 0.70361 0.99576 0.64497 0.0
C960 C 0.78131 1.00322 0.3672 0.0
C961 C 0.77935 0.99082 0.36128 0.0
C962 C 0.75638 0.98864 0.36544 0.0
C963 C 0.76699 0.98363 0.36034 0.0
C964 C 0.75841 1.0011 0.3713 0.0
C965 C 0.77076 1.00832 0.37214 0.0
U966 U 0.81815 1.00525 0.37176 0.0
O967 O 0.83385 0.01703 0.36376 0.0
O968 O 0.8325 0.0186 0.38371 0.0
C969 C 0.8382 0.02325 0.37443 0.0
C970 C 0.79436 0.01073 0.36874 0.0
C971 C 0.84047 0.03717 0.37479 0.0
C972 C 0.83648 0.05816 0.3829 0.0
C973 C 0.83357 0.04497 0.38227 0.0
C974 C 0.85288 0.05593 0.36832 0.0
C975 C 0.84621 0.06377 0.37598 0.0
C976 C 0.85006 0.04277 0.36777 0.0
C977 C 0.83379 0.97555 0.37412 0.0
C978 C 0.85712 0.9771 0.37905 0.0
C979 C 0.84399 0.95648 0.37468 0.0
C980 C 0.83285 0.96232 0.37286 0.0
C981 C 0.85624 0.96382 0.37784 0.0
C982 C 0.84598 0.98292 0.37718 0.0
C983 C 0.82205 0.98163 0.37236 0.0
O984 O 0.8005 0.011 0.37958 0.0
O985 O 0.80188 0.00913 0.35964 0.0
O986 O 0.82102 0.98694 0.36213 0.0
O987 O 0.81926 0.98877 0.38199 0.0
H988 H 0.7874 0.98666 0.35746 0.0
H989 H 0.76575 0.97414 0.35563 0.0
H990 H 0.75054 1.00519 0.37552 0.0
H991 H 0.77212 0.01783 0.37684 0.0
H992 H 0.83112 0.06398 0.38881 0.0
H993 H 0.82605 0.04089 0.38772 0.0
H994 H 0.86054 0.05999 0.363 0.0
H995 H 0.85552 0.03693 0.36198 0.0
H996 H 0.86643 0.983 0.38131 0.0
H997 H 0.84299 0.94624 0.3738 0.0
H998 H 0.82349 0.95651 0.37051 0.0
H999 H 0.84687 0.99317 0.37815 0.0
C1000 C 0.79723 0.9708 0.15835 0.0
C1001 C 0.81023 0.97042 0.16249 0.0
C1002 C 0.80851 0.94838 0.15399 0.0
C1003 C 0.81578 0.9593 0.1604 0.0
C1004 C 0.79551 0.94878 0.14982 0.0
C1005 C 0.7899 0.9599 0.15204 0.0
U1006 U 0.80073 1.00642 0.15884 0.0
O1007 O 0.78769 0.01902 0.15184 0.0
O1008 O 0.79394 0.02103 0.17145 0.0
C1009 C 0.78647 0.02468 0.1628 0.0
C1010 C 0.79145 0.98264 0.16009 0.0
C1011 C 0.7731 0.02611 0.16581 0.0
C1012 C 0.74999 0.01812 0.16515 0.0
C1013 C 0.76279 0.01615 0.16305 0.0
C1014 C 0.75781 0.03985 0.17323 0.0
C1015 C 0.74734 0.03007 0.17007 0.0
C1016 C 0.77056 0.03788 0.17109 0.0
C1017 C 0.83288 0.02419 0.15146 0.0
C1018 C 0.8361 0.04717 0.15297 0.0
C1019 C 0.85209 0.03539 0.14373 0.0
C1020 C 0.84463 0.02404 0.14582 0.0
C1021 C 0.8479 0.0471 0.14726 0.0
C1022 C 0.82864 0.03582 0.15502 0.0
C1023 C 0.82487 0.01222 0.1532 0.0
O1024 O 0.79617 0.9905 0.16975 0.0
O1025 O 0.78993 0.98833 0.15015 0.0
O1026 O 0.81505 1.00867 0.14496 0.0
O1027 O 0.82167 0.011 0.16446 0.0
H1028 H 0.81617 0.97877 0.16722 0.0
H1029 H 0.82588 0.95932 0.16355 0.0
H1030 H 0.78968 0.94049 0.14489 0.0
H1031 H 0.77989 0.96003 0.14871 0.0
H1032 H 0.74214 0.01042 0.16255 0.0
H1033 H 0.76459 1.00697 0.159 0.0
H1034 H 0.75613 0.04909 0.17722 0.0
H1035 H 0.77843 0.04565 0.17335 0.0
H1036 H 0.83268 0.05602 0.15595 0.0
H1037 H 0.86103 0.03499 0.13917 0.0
H1038 H 0.84798 0.01512 0.14293 0.0
H1039 H 0.81954 0.03609 0.15934 0.0
C1040 C 0.70692 0.96309 0.88685 0.0
C1041 C 0.69647 0.96216 0.89442 0.0
C1042 C 0.69393 0.93913 0.89085 0.0
C1043 C 0.69009 0.9503 0.89646 0.0
C1044 C 0.70464 0.94013 0.88353 0.0
C1045 C 0.71107 0.95201 0.88155 0.0
U1046 U 0.70372 0.99717 0.88334 0.0
O1047 O 0.71716 0.01486 0.88813 0.0
O1048 O 0.70971 0.00924 0.869 0.0
C1049 C 0.71764 0.01734 0.87667 0.0
C1050 C 0.71281 0.97552 0.88373 0.0
C1051 C 0.73071 0.02104 0.87263 0.0
C1052 C 0.75333 0.01784 0.87091 0.0
C1053 C 0.74076 0.01365 0.87422 0.0
C1054 C 0.74574 0.03661 0.86408 0.0
C1055 C 0.75599 0.02948 0.86598 0.0
C1056 C 0.73324 0.03243 0.8674 0.0
C1057 C 0.67186 0.00904 0.89045 0.0
C1058 C 0.66967 0.03132 0.8904 0.0
C1059 C 0.65081 0.01611 0.89304 0.0
C1060 C 0.65854 1.00636 0.89218 0.0
C1061 C 0.6563 0.02871 0.8922 0.0
C1062 C 0.67738 0.02157 0.8895 0.0
C1063 C 0.67991 0.99876 0.88959 0.0
O1064 O 0.70747 0.97913 0.87377 0.0
O1065 O 0.71497 0.98459 0.89289 0.0
O1066 O 0.69009 1.00025 0.89755 0.0
O1067 O 0.6826 0.99487 0.87843 0.0
H1068 H 0.69305 0.97061 0.89854 0.0
H1069 H 0.682 0.94988 0.90228 0.0
H1070 H 0.70775 0.93174 0.87894 0.0
H1071 H 0.71905 0.95256 0.87559 0.0
H1072 H 0.76103 0.01218 0.87255 0.0
H1073 H 0.73895 1.0048 0.87823 0.0
H1074 H 0.74742 0.04551 0.86012 0.0
H1075 H 0.72556 0.0382 0.86604 0.0
H1076 H 0.67415 0.0409 0.88957 0.0
H1077 H 0.64057 0.01382 0.89453 0.0
H1078 H 0.65414 0.99673 0.89292 0.0
H1079 H 0.68765 0.02378 0.88807 0.0
C1080 C 0.60835 0.72095 0.96285 0.0
C1081 C 0.61242 0.72018 0.95089 0.0
C1082 C 0.61203 0.7428 0.95038 0.0
C1083 C 0.61424 0.731 0.94471 0.0
C1084 C 0.60805 0.74354 0.96243 0.0
C1085 C 0.60623 0.73268 0.96861 0.0
U1086 U 0.60683 0.68563 0.96136 0.0
O1087 O 0.61309 0.67298 0.97439 0.0
O1088 O 0.59248 0.67097 0.96759 0.0
C1089 C 0.60116 0.66729 0.97515 0.0
C1090 C 0.60591 0.70942 0.96906 0.0
C1091 C 0.59714 0.66539 0.98755 0.0
C1092 C 0.59951 0.67062 0.00966 0.0
C1093 C 0.60262 0.67346 0.99793 0.0
C1094 C 0.58502 0.65194 1.00073 0.0
C1095 C 0.59081 0.65972 0.0112 0.0
C1096 C 0.58818 0.65474 0.98904 0.0
C1097 C 0.61488 0.66836 0.93136 0.0
C1098 C 0.61001 0.64554 0.92648 0.0
C1099 C 0.62316 0.65811 0.91336 0.0
C1100 C 0.62208 0.66907 0.92101 0.0
C1101 C 0.617 0.64623 0.91591 0.0
C1102 C 0.60899 0.65651 0.93416 0.0
C1103 C 0.61345 0.68004 0.93902 0.0
O1104 O 0.59559 0.70151 0.9645 0.0
O1105 O 0.6162 0.70377 0.97115 0.0
O1106 O 0.622 0.68317 0.94847 0.0
O1107 O 0.60146 0.68136 0.94163 0.0
H1108 H 0.61401 0.71117 0.94627 0.0
H1109 H 0.61709 0.73004 0.93538 0.0
H1110 H 0.60638 0.7525 0.96708 0.0
H1111 H 0.60307 0.73342 0.97784 0.0
H1112 H 0.60402 0.67686 0.01755 0.0
H1113 H 0.60952 0.68179 0.99699 0.0
H1114 H 0.57843 0.64339 1.00159 0.0
H1115 H 0.58389 0.64838 0.98115 0.0
H1116 H 0.60505 0.63657 0.92865 0.0
H1117 H 0.62879 0.65895 0.90541 0.0
H1118 H 0.62677 0.67814 0.91878 0.0
H1119 H 0.60344 0.65579 0.94217 0.0
C1120 C 0.97266 0.11237 0.76285 0.0
C1121 C 0.97359 0.115 0.77564 0.0
C1122 C 0.95094 0.10573 0.77641 0.0
C1123 C 0.96285 0.11178 0.78234 0.0
C1124 C 0.95006 0.10306 0.76356 0.0
C1125 C 0.96085 0.10636 0.75683 0.0
U1126 U 1.00865 0.12264 0.76368 0.0
O1127 O 0.02395 0.11691 0.75223 0.0
O1128 O 0.02057 0.13681 0.75429 0.0
C1129 C 0.027 0.12832 0.74887 0.0
C1130 C 0.98411 0.11576 0.75595 0.0
C1131 C 0.02867 0.12902 0.73576 0.0
C1132 C 0.02257 0.12183 0.71429 0.0
C1133 C 0.01996 0.12183 0.72665 0.0
C1134 C 0.0423 0.13656 0.72006 0.0
C1135 C 0.03393 0.129 0.7109 0.0
C1136 C 0.0397 0.13655 0.73237 0.0
C1137 C 0.02714 0.12672 0.79514 0.0
C1138 C 0.05027 0.13467 0.79821 0.0
C1139 C 0.03866 0.12656 0.81493 0.0
C1140 C 0.02716 0.12399 0.80732 0.0
C1141 C 0.05036 0.13195 0.81048 0.0
C1142 C 0.03874 0.13206 0.79059 0.0
C1143 C 0.015 0.12368 0.78724 0.0
O1144 O 0.98947 0.12767 0.75809 0.0
O1145 O 0.99271 0.10778 0.75602 0.0
O1146 O 0.01413 0.11325 0.77972 0.0
O1147 O 0.01107 0.13319 0.78204 0.0
H1148 H 0.98266 0.11962 0.78045 0.0
H1149 H 0.96384 0.1142 0.79218 0.0
H1150 H 0.94108 0.09831 0.75871 0.0
H1151 H 0.95999 0.10418 0.74697 0.0
H1152 H 0.01598 0.11586 0.70744 0.0
H1153 H 0.01137 0.11597 0.72912 0.0
H1154 H 0.05102 0.14234 0.71773 0.0
H1155 H 0.04649 0.14221 0.73928 0.0
H1156 H 0.05907 0.13893 0.79453 0.0
H1157 H 0.03843 0.12415 0.82426 0.0
H1158 H 0.01829 0.11978 0.81093 0.0
H1159 H 0.03888 0.13418 0.78116 0.0
C1160 C 0.8763 0.29837 0.46774 0.0
C1161 C 0.86838 0.2943 0.45692 0.0
C1162 C 0.87796 0.27473 0.45456 0.0
C1163 C 0.86912 0.28257 0.45045 0.0
C1164 C 0.88563 0.27871 0.46559 0.0
C1165 C 0.8848 0.29042 0.47212 0.0
U1166 U 0.87451 0.33276 0.46492 0.0
O1167 O 0.86517 0.34709 0.47561 0.0
O1168 O 0.88632 0.35016 0.47379 0.0
C1169 C 0.87635 0.35422 0.47904 0.0
C1170 C 0.87665 0.31129 0.47383 0.0
C1171 C 0.87852 0.35854 0.49218 0.0
C1172 C 0.88719 0.35623 0.51273 0.0
C1173 C 0.88488 0.35165 0.50032 0.0
C1174 C 0.87656 0.37445 0.50899 0.0
C1175 C 0.88315 0.36775 0.51719 0.0
C1176 C 0.8743 0.36989 0.49661 0.0
C1177 C 0.86946 0.34212 0.43255 0.0
C1178 C 0.87357 0.36376 0.42741 0.0
C1179 C 0.86244 0.34716 0.4124 0.0
C1180 C 0.86338 0.33832 0.42083 0.0
C1181 C 0.86764 0.35997 0.41555 0.0
C1182 C 0.87444 0.35491 0.43586 0.0
C1183 C 0.87076 0.33258 0.4411 0.0
O1184 O 0.88679 0.31929 0.47164 0.0
O1185 O 0.86562 0.31607 0.47313 0.0
O1186 O 0.86116 0.33063 0.44828 0.0
O1187 O 0.88235 0.33327 0.44683 0.0
H1188 H 0.86182 0.30032 0.45328 0.0
H1189 H 0.86292 0.27972 0.4421 0.0
H1190 H 0.89266 0.273 0.46894 0.0
H1191 H 0.89109 0.29346 0.48038 0.0
H1192 H 0.89236 0.35089 0.51878 0.0
H1193 H 0.88816 0.34282 0.49705 0.0
H1194 H 0.87307 0.38321 0.51215 0.0
H1195 H 0.8693 0.37528 0.49047 0.0
H1196 H 0.87778 0.37352 0.4301 0.0
H1197 H 0.8576 0.34397 0.40343 0.0
H1198 H 0.85941 0.32849 0.41816 0.0
H1199 H 0.87914 0.35802 0.4449 0.0
C1200 C 0.47919 0.89032 0.7668 0.0
C1201 C 0.47652 0.88587 0.7781 0.0
C1202 C 0.45886 0.89862 0.78007 0.0
C1203 C 0.46643 0.88993 0.78464 0.0
C1204 C 0.46159 0.90311 0.76876 0.0
C1205 C 0.47167 0.89896 0.76216 0.0
U1206 U 0.51069 0.87675 0.76806 0.0
O1207 O 0.51853 0.86245 0.75589 0.0
O1208 O 0.52933 0.88165 0.75995 0.0
C1209 C 0.52863 0.87047 0.75364 0.0
C1210 C 0.49017 0.88633 0.76021 0.0
C1211 C 0.5318 0.87033 0.74075 0.0
C1212 C 0.53268 0.87973 0.72149 0.0
C1213 C 0.52859 0.87965 0.73342 0.0
C1214 C 0.54286 0.86097 0.72402 0.0
C1215 C 0.54005 0.87049 0.71673 0.0
C1216 C 0.53879 0.86092 0.73589 0.0
C1217 C 0.52285 0.86886 0.7995 0.0
C1218 C 0.54229 0.85887 0.80269 0.0
C1219 C 0.53138 0.86686 0.82012 0.0
C1220 C 0.52208 0.87079 0.81219 0.0
C1221 C 0.54164 0.8609 0.81548 0.0
C1222 C 0.53298 0.86285 0.79477 0.0
C1223 C 0.51324 0.8735 0.79138 0.0
O1224 O 0.50151 0.89325 0.76346 0.0
O1225 O 0.49077 0.87409 0.75928 0.0
O1226 O 0.50667 0.86499 0.78308 0.0
O1227 O 0.51729 0.88423 0.78705 0.0
H1228 H 0.48235 0.87933 0.78194 0.0
H1229 H 0.46475 0.88647 0.79342 0.0
H1230 H 0.45589 0.90979 0.76499 0.0
H1231 H 0.47365 0.90256 0.75349 0.0
H1232 H 0.53042 0.88722 0.71615 0.0
H1233 H 0.52316 0.887 0.73699 0.0
H1234 H 0.54829 0.85358 0.72056 0.0
H1235 H 0.54131 0.85362 0.74139 0.0
H1236 H 0.54999 0.85421 0.79882 0.0
H1237 H 0.5307 0.86877 0.8299 0.0
H1238 H 0.51435 0.8755 0.81599 0.0
H1239 H 0.53373 0.86131 0.78496 0.0
C1240 C 1.0057 0.14759 0.2351 0.0
C1241 C 0.99601 0.15556 0.23516 0.0
C1242 C 0.99201 0.15097 0.21305 0.0
C1243 C 0.98925 0.15727 0.22423 0.0
C1244 C 1.00204 0.14332 0.213 0.0
C1245 C 1.00882 0.14163 0.22396 0.0
U1246 U 1.0052 0.14885 0.2693 0.0
O1247 O 1.00711 0.13428 0.28175 0.0
O1248 O 0.02075 0.15204 0.28423 0.0
C1249 C 0.01764 0.14071 0.28774 0.0
C1250 C 0.01165 0.14463 0.24673 0.0
C1251 C 0.02851 0.13352 0.28986 0.0
C1252 C 0.04342 0.11914 0.28273 0.0
C1253 C 0.03333 0.12624 0.28028 0.0
C1254 C 0.04398 0.12669 0.30429 0.0
C1255 C 0.04886 0.11931 0.29479 0.0
C1256 C 0.03392 0.13372 0.30184 0.0
C1257 C 0.97854 0.16452 0.28438 0.0
C1258 C 0.97654 0.16507 0.30631 0.0
C1259 C 0.95973 0.17193 0.29333 0.0
C1260 C 0.96671 0.16938 0.28309 0.0
C1261 C 0.96448 0.16966 0.30504 0.0
C1262 C 0.9835 0.1625 0.29606 0.0
C1263 C 0.98526 0.16098 0.27345 0.0
O1264 O 0.01709 0.15446 0.25426 0.0
O1265 O 1.00428 0.13623 0.25217 0.0
O1266 O 0.98407 0.14875 0.27011 0.0
O1267 O 0.99723 0.16675 0.27315 0.0
H1268 H 0.99338 0.16013 0.24372 0.0
H1269 H 0.98146 0.16307 0.22462 0.0
H1270 H 1.00446 0.13843 0.20452 0.0
H1271 H 0.01624 0.1354 0.22378 0.0
H1272 H 0.04703 0.11361 0.27522 0.0
H1273 H 0.02925 0.126 0.27095 0.0
H1274 H 0.04778 0.12685 0.3137 0.0
H1275 H 0.03026 0.13922 0.30935 0.0
H1276 H 0.98053 0.16335 0.31521 0.0
H1277 H 0.9504 0.17528 0.292 0.0
H1278 H 0.96273 0.17092 0.27412 0.0
H1279 H 0.99263 0.15873 0.2972 0.0
C1280 C 0.48305 0.1304 0.73691 0.0
C1281 C 0.48091 0.13602 0.7261 0.0
C1282 C 0.45931 0.12373 0.72246 0.0
C1283 C 0.46913 0.13277 0.71898 0.0
C1284 C 0.46147 0.11812 0.7333 0.0
C1285 C 0.47325 0.12146 0.74049 0.0
U1286 U 0.51921 0.14092 0.7377 0.0
O1287 O 0.53275 0.15385 0.75091 0.0
O1288 O 0.53592 0.13406 0.74678 0.0
C1289 C 0.53961 0.14489 0.75357 0.0
C1290 C 0.49572 0.13332 0.74405 0.0
C1291 C 0.54244 0.14398 0.76666 0.0
C1292 C 0.53658 0.13619 0.78591 0.0
C1293 C 0.5333 0.13756 0.77362 0.0
C1294 C 0.55799 0.14792 0.78442 0.0
C1295 C 0.54902 0.14125 0.79141 0.0
C1296 C 0.55472 0.14925 0.77217 0.0
C1297 C 0.53344 0.14785 0.70743 0.0
C1298 C 0.55573 0.1577 0.70599 0.0
C1299 C 0.54294 0.14732 0.68777 0.0
C1300 C 0.53239 0.14426 0.69479 0.0
C1301 C 0.55474 0.15409 0.69327 0.0
C1302 C 0.54518 0.15456 0.71302 0.0
C1303 C 0.52234 0.14419 0.71466 0.0
O1304 O 0.50411 0.12549 0.7413 0.0
O1305 O 0.50096 0.1453 0.74522 0.0
O1306 O 0.51936 0.15308 0.7227 0.0
O1307 O 0.5222 0.13316 0.71896 0.0
H1308 H 0.48843 0.1428 0.72306 0.0
H1309 H 0.46783 0.1371 0.71058 0.0
H1310 H 0.45405 0.11116 0.73622 0.0
H1311 H 0.47477 0.11696 0.74876 0.0
H1312 H 0.52942 0.1311 0.79107 0.0
H1313 H 0.52374 0.13346 0.7695 0.0
H1314 H 0.56771 0.15176 0.7883 0.0
H1315 H 0.5619 0.15421 0.76691 0.0
H1316 H 0.56462 0.16302 0.7105 0.0
H1317 H 0.5419 0.14419 0.67805 0.0
H1318 H 0.52344 0.13897 0.69036 0.0
H1319 H 0.54619 0.15735 0.72281 0.0
C1320 C 0.1211 0.25891 0.95705 0.0
C1321 C 0.11545 0.25487 0.94515 0.0
C1322 C 0.12658 0.23623 0.94437 0.0
C1323 C 0.1181 0.24361 0.93891 0.0
C1324 C 0.13228 0.24031 0.95625 0.0
C1325 C 0.12951 0.25153 0.96256 0.0
U1326 U 0.11798 0.29347 0.95606 0.0
O1327 O 0.10423 0.30546 0.96385 0.0
O1328 O 0.12526 0.3104 0.96886 0.0
C1329 C 0.11344 0.31295 0.97079 0.0
C1330 C 0.11882 0.27108 0.96348 0.0
C1331 C 0.11081 0.31625 0.98367 0.0
C1332 C 0.09788 0.31349 1.00125 0.0
C1333 C 0.10076 0.30939 0.98935 0.0
C1334 C 0.11528 0.3311 1.00205 0.0
C1335 C 0.105 0.32451 0.00767 0.0
C1336 C 0.1181 0.32704 0.99018 0.0
C1337 C 0.12268 0.30725 0.92582 0.0
C1338 C 0.12057 0.32927 0.9238 0.0
C1339 C 0.12723 0.31605 0.90677 0.0
C1340 C 0.1264 0.30582 0.91378 0.0
C1341 C 0.12434 0.3279 0.9117 0.0
C1342 C 0.11977 0.31902 0.93081 0.0
C1343 C 0.12212 0.2965 0.93316 0.0
O1344 O 0.12893 0.28003 0.96474 0.0
O1345 O 0.10786 0.27516 0.96014 0.0
O1346 O 0.11057 0.29254 0.9368 0.0
O1347 O 0.13155 0.29738 0.94183 0.0
H1348 H 0.1091 0.26048 0.94058 0.0
H1349 H 0.11373 0.2408 0.9297 0.0
H1350 H 0.13882 0.23478 0.96068 0.0
H1351 H 0.13404 0.25453 0.97169 0.0
H1352 H 0.08988 0.30822 1.0053 0.0
H1353 H 0.09496 0.30101 0.98453 0.0
H1354 H 0.12115 0.33946 1.00682 0.0
H1355 H 0.1259 0.33248 0.98599 0.0
H1356 H 0.11841 0.3383 0.92789 0.0
H1357 H 0.13 0.31465 0.89744 0.0
H1358 H 0.12868 0.29678 0.90981 0.0
H1359 H 0.11695 0.32029 0.94014 0.0
C1360 C 0.36059 0.70568 0.50799 0.0
C1361 C 0.35303 0.69454 0.51074 0.0
C1362 C 0.36668 0.69463 0.52951 0.0
C1363 C 0.35601 0.68912 0.52141 0.0
C1364 C 0.37417 0.70583 0.52683 0.0
C1365 C 0.3711 0.71133 0.51619 0.0
U1366 U 0.35536 0.70142 0.47342 0.0
O1367 O 0.3414 0.70838 0.46073 0.0
O1368 O 0.3625 0.71321 0.45931 0.0
C1369 C 0.35069 0.71479 0.45531 0.0
C1370 C 0.35804 0.71112 0.49638 0.0
C1371 C 0.34877 0.72772 0.45297 0.0
C1372 C 0.35409 0.75061 0.45707 0.0
C1373 C 0.35518 0.73845 0.46035 0.0
C1374 C 0.33983 0.74138 0.43932 0.0
C1375 C 0.34656 0.75219 0.4464 0.0
C1376 C 0.34093 0.72929 0.44259 0.0
C1377 C 0.35678 0.66921 0.4565 0.0
C1378 C 0.35171 0.66557 0.4345 0.0
C1379 C 0.36078 0.64965 0.44521 0.0
C1380 C 0.36111 0.65736 0.45628 0.0
C1381 C 0.35609 0.65368 0.4342 0.0
C1382 C 0.3521 0.67329 0.44556 0.0
C1383 C 0.35753 0.67743 0.46809 0.0
O1384 O 0.36772 0.71177 0.48916 0.0
O1385 O 0.34661 0.70713 0.49046 0.0
O1386 O 0.34655 0.68142 0.47101 0.0
O1387 O 0.36759 0.68642 0.46969 0.0
H1388 H 0.34495 0.68986 0.50454 0.0
H1389 H 0.35018 0.6804 0.52316 0.0
H1390 H 0.3824 0.71031 0.53294 0.0
H1391 H 0.37708 0.7199 0.51426 0.0
H1392 H 0.3593 0.75875 0.46277 0.0
H1393 H 0.36124 0.73743 0.46845 0.0
H1394 H 0.33412 0.74222 0.43095 0.0
H1395 H 0.33596 0.72111 0.43676 0.0
H1396 H 0.34819 0.669 0.42615 0.0
H1397 H 0.36409 0.64048 0.44528 0.0
H1398 H 0.36479 0.6541 0.46465 0.0
H1399 H 0.34883 0.68249 0.44556 0.0
C1400 C 0.73406 0.48331 0.85238 0.0
C1401 C 0.73482 0.49527 0.84807 0.0
C1402 C 0.7112 0.49422 0.8477 0.0
C1403 C 0.72351 0.50064 0.84569 0.0
C1404 C 0.71046 0.4821 0.85177 0.0
C1405 C 0.72182 0.4767 0.85411 0.0
U1406 U 0.76995 0.48971 0.86112 0.0
O1407 O 0.78224 0.48308 0.87542 0.0
O1408 O 0.78643 0.47974 0.85608 0.0
C1409 C 0.78936 0.47772 0.86745 0.0
C1410 C 0.74607 0.47823 0.85589 0.0
C1411 C 0.79231 0.46493 0.86934 0.0
C1412 C 0.78905 0.44554 0.8793 0.0
C1413 C 0.7851 0.4571 0.87682 0.0
C1414 C 0.80719 0.44936 0.8666 0.0
C1415 C 0.80029 0.44165 0.87439 0.0
C1416 C 0.80326 0.46087 0.86415 0.0
C1417 C 0.78602 0.52394 0.86234 0.0
C1418 C 0.80819 0.53083 0.87101 0.0
C1419 C 0.79626 0.54544 0.86105 0.0
C1420 C 0.78552 0.53598 0.85856 0.0
C1421 C 0.80768 0.54302 0.86741 0.0
C1422 C 0.79745 0.52136 0.86847 0.0
C1423 C 0.7745 0.51424 0.86002 0.0
O1424 O 0.75496 0.47877 0.84783 0.0
O1425 O 0.7509 0.48202 0.86715 0.0
O1426 O 0.77035 0.50916 0.86973 0.0
O1427 O 0.77475 0.50587 0.8505 0.0
H1428 H 0.7442 0.50057 0.84675 0.0
H1429 H 0.72442 0.5099 0.8424 0.0
H1430 H 0.70116 0.47697 0.85355 0.0
H1431 H 0.72106 0.46752 0.85755 0.0
H1432 H 0.78355 0.43983 0.88535 0.0
H1433 H 0.7766 0.46001 0.88094 0.0
H1434 H 0.81572 0.44653 0.86246 0.0
H1435 H 0.80897 0.46675 0.85836 0.0
H1436 H 0.81678 0.52868 0.87603 0.0
H1437 H 0.79562 0.55466 0.85799 0.0
H1438 H 0.77678 0.53809 0.85375 0.0
H1439 H 0.79799 0.51208 0.87143 0.0
C1440 C 0.69307 0.47141 0.15146 0.0
C1441 C 0.68055 0.46887 0.15564 0.0
C1442 C 0.68036 0.44626 0.1501 0.0
C1443 C 0.67431 0.45642 0.15506 0.0
C1444 C 0.69293 0.44886 0.14595 0.0
C1445 C 0.69923 0.46134 0.14664 0.0
U1446 U 0.69072 0.50592 0.14849 0.0
O1447 O 0.70055 0.5234 0.15907 0.0
O1448 O 0.70288 0.52008 0.13933 0.0
C1449 C 0.70655 0.52731 0.14963 0.0
C1450 C 0.6995 0.48454 0.1516 0.0
C1451 C 0.72062 0.53167 0.15176 0.0
C1452 C 0.74194 0.53065 0.16175 0.0
C1453 C 0.72863 0.52601 0.15969 0.0
C1454 C 0.73936 0.54642 0.14777 0.0
C1455 C 0.74744 0.54097 0.15586 0.0
C1456 C 0.72609 0.54183 0.14578 0.0
C1457 C 0.65767 0.51596 0.14153 0.0
C1458 C 0.65566 0.53818 0.14068 0.0
C1459 C 0.63688 0.52217 0.13511 0.0
C1460 C 0.64448 0.51272 0.13753 0.0
C1461 C 0.64239 0.53501 0.13666 0.0
C1462 C 0.66324 0.52873 0.14307 0.0
C1463 C 0.66564 0.50599 0.14385 0.0
O1464 O 0.69905 0.48917 0.14098 0.0
O1465 O 0.69702 0.49253 0.16075 0.0
O1466 O 0.67118 0.50681 0.15501 0.0
O1467 O 0.67357 0.5035 0.13532 0.0
H1468 H 0.67555 0.47651 0.15931 0.0
H1469 H 0.66475 0.45478 0.15854 0.0
H1470 H 0.69781 0.4413 0.14194 0.0
H1471 H 0.70884 0.46313 0.14326 0.0
H1472 H 0.74786 0.52628 0.16809 0.0
H1473 H 0.72459 0.5181 0.16436 0.0
H1474 H 0.74331 0.55418 0.14287 0.0
H1475 H 0.72008 0.54626 0.13956 0.0
H1476 H 0.66016 0.54798 0.14212 0.0
H1477 H 0.62674 0.51939 0.13188 0.0
H1478 H 0.64006 0.50289 0.13622 0.0
H1479 H 0.67345 0.53138 0.14613 0.0
C1480 C 0.7191 0.53192 0.37405 0.0
C1481 C 0.70827 0.53276 0.38102 0.0
C1482 C 0.70838 0.55479 0.3772 0.0
C1483 C 0.70299 0.5441 0.38262 0.0
C1484 C 0.71938 0.55394 0.37039 0.0
C1485 C 0.72468 0.54259 0.36882 0.0
U1486 U 0.71429 0.49642 0.37429 0.0
O1487 O 0.7181 0.48123 0.36051 0.0
O1488 O 0.72757 0.48305 0.37912 0.0
C1489 C 0.72667 0.47723 0.36794 0.0
C1490 C 0.72408 0.51977 0.37163 0.0
C1491 C 0.73905 0.47491 0.36281 0.0
C1492 C 0.76237 0.48053 0.36133 0.0
C1493 C 0.75053 0.48355 0.36547 0.0
C1494 C 0.75125 0.46048 0.35138 0.0
C1495 C 0.7629 0.46884 0.35442 0.0
C1496 C 0.73946 0.46349 0.35556 0.0
C1497 C 0.68276 0.4809 0.38588 0.0
C1498 C 0.67616 0.45812 0.38327 0.0
C1499 C 0.66368 0.4717 0.39534 0.0
C1500 C 0.67225 0.4823 0.3931 0.0
C1501 C 0.66546 0.45949 0.39036 0.0
C1502 C 0.68477 0.46874 0.38108 0.0
C1503 C 0.6914 0.49218 0.38327 0.0
O1504 O 0.72686 0.51414 0.38136 0.0
O1505 O 0.71751 0.512 0.36272 0.0
O1506 O 0.6929 0.4932 0.3716 0.0
O1507 O 0.70239 0.49486 0.39016 0.0
H1508 H 0.70379 0.52458 0.38507 0.0
H1509 H 0.69463 0.54447 0.38804 0.0
H1510 H 0.72366 0.56192 0.36595 0.0
H1511 H 0.73297 0.54206 0.36333 0.0
H1512 H 0.77117 0.48713 0.36391 0.0
H1513 H 0.75041 0.49246 0.37102 0.0
H1514 H 0.75127 0.45151 0.34591 0.0
H1515 H 0.73068 0.45674 0.35334 0.0
H1516 H 0.67787 0.44883 0.37942 0.0
H1517 H 0.65545 0.47308 0.40071 0.0
H1518 H 0.67057 0.49163 0.39687 0.0
H1519 H 0.6929 0.46748 0.37555 0.0
C1520 C 0.76855 0.54866 0.63555 0.0
C1521 C 0.76706 0.53563 0.63672 0.0
C1522 C 0.74473 0.53614 0.64222 0.0
C1523 C 0.75528 0.52944 0.64001 0.0
C1524 C 0.74624 0.54921 0.64099 0.0
C1525 C 0.7581 0.55543 0.6377 0.0
U1526 U 0.80241 0.54546 0.62717 0.0
O1527 O 0.81449 0.55336 0.61315 0.0
O1528 O 0.82147 0.55675 0.63261 0.0
C1529 C 0.82363 0.55913 0.62134 0.0
C1530 C 0.78105 0.55497 0.63206 0.0
C1531 C 0.82867 0.57232 0.61979 0.0
C1532 C 0.829 0.595 0.62461 0.0
C1533 C 0.82308 0.58254 0.62519 0.0
C1534 C 0.8458 0.58708 0.61284 0.0
C1535 C 0.8406 0.59737 0.61866 0.0
C1536 C 0.83989 0.57468 0.61342 0.0
C1537 C 0.81201 0.51228 0.62682 0.0
C1538 C 0.8337 0.50788 0.6223 0.0
C1539 C 0.8175 0.49104 0.62733 0.0
C1540 C 0.80849 0.49957 0.62865 0.0
C1541 C 0.83022 0.49508 0.62414 0.0
C1542 C 0.82465 0.51642 0.62363 0.0
C1543 C 0.80246 0.52114 0.62848 0.0
O1544 O 0.79091 0.55535 0.64022 0.0
O1545 O 0.78389 0.55144 0.62085 0.0
O1546 O 0.79849 0.52579 0.61853 0.0
O1547 O 0.80512 0.5297 0.638 0.0
H1548 H 0.77503 0.53024 0.63504 0.0
H1549 H 0.75438 0.51934 0.64065 0.0
H1550 H 0.73832 0.55465 0.6427 0.0
H1551 H 0.7591 0.56549 0.63684 0.0
H1552 H 0.82481 0.60273 0.62924 0.0
H1553 H 0.81439 0.58088 0.63016 0.0
H1554 H 0.85461 0.5886 0.60804 0.0
H1555 H 0.84431 0.56689 0.60916 0.0
H1556 H 0.84337 0.51126 0.61972 0.0
H1557 H 0.81457 0.4813 0.62898 0.0
H1558 H 0.79877 0.49626 0.63119 0.0
H1559 H 0.82751 0.52624 0.62219 0.0
C1560 C 0.50591 0.14204 0.27882 0.0
C1561 C 0.49523 0.14881 0.27931 0.0
C1562 C 0.49183 0.14331 0.29997 0.0
C1563 C 0.48826 0.14946 0.28981 0.0
C1564 C 0.50276 0.13681 0.29951 0.0
C1565 C 0.50972 0.13618 0.28901 0.0
U1566 U 0.50785 0.14647 0.24526 0.0
O1567 O 0.52461 0.15117 0.23431 0.0
O1568 O 0.51148 0.13325 0.2297 0.0
C1569 C 0.52228 0.14026 0.22742 0.0
C1570 C 0.51256 0.14043 0.26746 0.0
C1571 C 0.53356 0.13353 0.22551 0.0
C1572 C 0.54749 0.11808 0.23093 0.0
C1573 C 0.53715 0.12489 0.23346 0.0
C1574 C 0.55088 0.12874 0.21269 0.0
C1575 C 0.55434 0.11981 0.2204 0.0
C1576 C 0.54057 0.1355 0.21522 0.0
C1577 C 0.48251 0.16255 0.2291 0.0
C1578 C 0.48201 0.1628 0.20703 0.0
C1579 C 0.4659 0.17229 0.21856 0.0
C1580 C 0.47165 0.16903 0.22941 0.0
C1581 C 0.47091 0.16906 0.20721 0.0
C1582 C 0.48776 0.15958 0.21788 0.0
C1583 C 0.48799 0.15843 0.2404 0.0
O1584 O 0.50585 0.13258 0.2587 0.0
O1585 O 0.5181 0.15094 0.26358 0.0
O1586 O 0.4996 0.1643 0.24448 0.0
O1587 O 0.48691 0.14608 0.24055 0.0
H1588 H 0.49214 0.15338 0.27149 0.0
H1589 H 0.47999 0.15466 0.28992 0.0
H1590 H 0.50566 0.13184 0.30711 0.0
H1591 H 0.5179 0.13085 0.28873 0.0
H1592 H 0.54992 0.11125 0.23702 0.0
H1593 H 0.53183 0.12328 0.24149 0.0
H1594 H 0.55613 0.13051 0.20466 0.0
H1595 H 0.53797 0.14219 0.20903 0.0
H1596 H 0.48601 0.16003 0.19845 0.0
H1597 H 0.45747 0.17724 0.21903 0.0
H1598 H 0.46751 0.17142 0.23801 0.0
H1599 H 0.49614 0.15453 0.2175 0.0
C1600 C 0.97532 0.91914 0.76811 0.0
C1601 C 0.97476 0.91773 0.75528 0.0
C1602 C 0.95897 0.93257 0.7545 0.0
C1603 C 0.96666 0.92432 0.74855 0.0
C1604 C 0.95948 0.93393 0.7674 0.0
C1605 C 0.96764 0.92727 0.77416 0.0
U1606 U 1.00157 0.89862 0.76657 0.0
O1607 O 0.02006 0.89885 0.77744 0.0
O1608 O 1.00534 0.88187 0.77559 0.0
C1609 C 0.01675 0.8874 0.78058 0.0
C1610 C 0.98417 0.91225 0.77493 0.0
C1611 C 0.0197 0.88576 0.79348 0.0
C1612 C 0.0179 0.89115 0.81525 0.0
C1613 C 0.01408 0.89233 0.80302 0.0
C1614 C 0.0327 0.87664 0.80841 0.0
C1615 C 0.02744 0.88346 0.81804 0.0
C1616 C 0.02886 0.87779 0.79626 0.0
C1617 C 0.01302 0.89034 0.73495 0.0
C1618 C 0.03197 0.87951 0.73235 0.0
C1619 C 0.02039 0.88577 0.71467 0.0
C1620 C 0.0116 0.8908 0.72228 0.0
C1621 C 0.03078 0.88021 0.71964 0.0
C1622 C 0.02316 0.88454 0.73996 0.0
C1623 C 1.00429 0.89644 0.74291 0.0
O1624 O 0.98185 0.89985 0.77256 0.0
O1625 O 0.99659 0.91675 0.77486 0.0
O1626 O 0.01004 0.9061 0.75046 0.0
O1627 O 0.99589 0.88874 0.74813 0.0
H1628 H 0.98061 0.91149 0.75044 0.0
H1629 H 0.9663 0.92281 0.73865 0.0
H1630 H 0.95371 0.94023 0.77225 0.0
H1631 H 0.96801 0.9285 0.78408 0.0
H1632 H 0.01374 0.89656 0.8225 0.0
H1633 H 1.00698 0.89853 0.801 0.0
H1634 H 0.03993 0.87052 0.81028 0.0
H1635 H 0.03325 0.87262 0.78899 0.0
H1636 H 0.03994 0.87541 0.73648 0.0
H1637 H 0.01909 0.8863 0.7049 0.0
H1638 H 1.0038 0.89523 0.71828 0.0
H1639 H 0.02441 0.88415 0.74976 0.0
C1640 C 0.51834 0.89369 0.28817 0.0
C1641 C 0.52076 0.88855 0.29918 0.0
C1642 C 0.54303 0.89954 0.30115 0.0
C1643 C 0.533 0.89138 0.30557 0.0
C1644 C 0.54053 0.9047 0.2901 0.0
C1645 C 0.52827 0.90178 0.28366 0.0
U1646 U 0.48216 0.88349 0.28872 0.0
O1647 O 0.4653 0.89054 0.28012 0.0
O1648 O 0.4682 0.87072 0.27576 0.0
C1649 C 0.46149 0.87982 0.27319 0.0
C1650 C 0.50536 0.89093 0.28159 0.0
C1651 C 0.45899 0.88096 0.2601 0.0
C1652 C 0.46583 0.88868 0.24112 0.0
C1653 C 0.46851 0.88731 0.25349 0.0
C1654 C 0.44419 0.87711 0.24181 0.0
C1655 C 0.45359 0.88368 0.23515 0.0
C1656 C 0.44687 0.87578 0.25418 0.0
C1657 C 0.4687 0.87643 0.31918 0.0
C1658 C 0.44609 0.86767 0.32073 0.0
C1659 C 0.45956 0.87682 0.33902 0.0
C1660 C 0.47012 0.87953 0.33191 0.0
C1661 C 0.44741 0.87095 0.33349 0.0
C1662 C 0.45665 0.87045 0.31362 0.0
C1663 C 0.47969 0.88004 0.3118 0.0
O1664 O 0.50005 0.87898 0.28055 0.0
O1665 O 0.4972 0.89883 0.28483 0.0
O1666 O 0.47983 0.89113 0.30763 0.0
O1667 O 0.48236 0.87117 0.30358 0.0
H1668 H 0.51318 0.88234 0.30285 0.0
H1669 H 0.53463 0.88707 0.31392 0.0
H1670 H 0.54797 0.91113 0.28651 0.0
H1671 H 0.52652 0.90592 0.27522 0.0
H1672 H 0.47323 0.89391 0.23631 0.0
H1673 H 0.47795 0.89135 0.25795 0.0
H1674 H 0.43475 0.87297 0.23745 0.0
H1675 H 0.43945 0.87078 0.25914 0.0
H1676 H 0.43681 0.86328 0.31622 0.0
H1677 H 0.46089 0.87935 0.34883 0.0
H1678 H 0.47936 0.88418 0.33633 0.0
H1679 H 0.45535 0.86811 0.30378 0.0
C1680 C 0.85591 0.73414 0.04456 0.0
C1681 C 0.8521 0.73412 0.05659 0.0
C1682 C 0.8545 0.75714 0.0589 0.0
C1683 C 0.85138 0.7455 0.06368 0.0
C1684 C 0.85811 0.75711 0.04675 0.0
C1685 C 0.85881 0.74567 0.03963 0.0
U1686 U 0.85815 0.69963 0.04479 0.0
O1687 O 0.85028 0.68286 0.032 0.0
O1688 O 0.87141 0.68738 0.03659 0.0
C1689 C 0.86196 0.68017 0.02969 0.0
C1690 C 0.8576 0.72214 0.03755 0.0
C1691 C 0.86426 0.67734 0.01666 0.0
C1692 C 0.87668 0.68102 0.99893 0.0
C1693 C 0.87405 0.6846 0.01102 0.0
C1694 C 0.85947 0.6632 0.99782 0.0
C1695 C 0.86954 0.67017 0.99224 0.0
C1696 C 0.85691 0.66673 0.00991 0.0
C1697 C 0.85502 0.6865 0.07566 0.0
C1698 C 0.85805 0.66487 0.07853 0.0
C1699 C 0.85254 0.67887 0.09554 0.0
C1700 C 0.85233 0.68857 0.08796 0.0
C1701 C 0.85547 0.66692 0.09094 0.0
C1702 C 0.85784 0.6746 0.07094 0.0
C1703 C 0.85508 0.69691 0.06794 0.0
O1704 O 0.86849 0.71782 0.04057 0.0
O1705 O 0.84732 0.71337 0.03652 0.0
O1706 O 0.84528 0.6958 0.0596 0.0
O1707 O 0.8664 0.70074 0.06378 0.0
H1708 H 0.84997 0.72529 0.06059 0.0
H1709 H 0.8488 0.74519 0.07306 0.0
H1710 H 0.86048 0.76592 0.04279 0.0
H1711 H 0.86182 0.74584 0.03037 0.0
H1712 H 0.88456 0.68655 0.99495 0.0
H1713 H 0.87986 0.69287 0.01601 0.0
H1714 H 0.8536 0.65494 0.99287 0.0
H1715 H 0.84929 0.66102 0.01406 0.0
H1716 H 0.86045 0.65582 0.07474 0.0
H1717 H 0.8503 0.68069 0.105 0.0
H1718 H 0.8501 0.69771 0.09171 0.0
H1719 H 0.85996 0.67288 0.06144 0.0
C1720 C 0.60222 0.29852 0.51583 0.0
C1721 C 0.59473 0.30852 0.51585 0.0
C1722 C 0.59622 0.30884 0.49386 0.0
C1723 C 0.59168 0.31356 0.50497 0.0
C1724 C 0.60337 0.29854 0.49382 0.0
C1725 C 0.60634 0.29344 0.50472 0.0
U1726 U 0.61365 0.30717 0.5489 0.0
O1727 O 0.61002 0.29801 0.56563 0.0
O1728 O 0.63006 0.30216 0.56016 0.0
C1729 C 0.62237 0.29682 0.56784 0.0
C1730 C 0.60689 0.29433 0.52747 0.0
C1731 C 0.62508 0.28438 0.57105 0.0
C1732 C 0.621 0.26136 0.56843 0.0
C1733 C 0.61872 0.27304 0.56464 0.0
C1734 C 0.63623 0.27227 0.58481 0.0
C1735 C 0.62971 0.26086 0.57862 0.0
C1736 C 0.63393 0.2839 0.58105 0.0
C1737 C 0.61474 0.34206 0.56085 0.0
C1738 C 0.62557 0.35143 0.58042 0.0
C1739 C 0.61242 0.3636 0.56851 0.0
C1740 C 0.60958 0.35331 0.55949 0.0
C1741 C 0.62053 0.36282 0.57905 0.0
C1742 C 0.62268 0.34112 0.5714 0.0
C1743 C 0.61189 0.33149 0.5511 0.0
O1744 O 0.61904 0.2989 0.53111 0.0
O1745 O 0.59894 0.2948 0.53636 0.0
O1746 O 0.60215 0.32278 0.55275 0.0
O1747 O 0.6221 0.32676 0.54709 0.0
H1748 H 0.59153 0.3127 0.52433 0.0
H1749 H 0.58599 0.32134 0.50532 0.0
H1750 H 0.60716 0.29477 0.48547 0.0
H1751 H 0.61225 0.28582 0.50454 0.0
H1752 H 0.61592 0.25273 0.56341 0.0
H1753 H 0.6119 0.27323 0.55685 0.0
H1754 H 0.64284 0.27225 0.5928 0.0
H1755 H 0.63889 0.29256 0.58612 0.0
H1756 H 0.63193 0.35055 0.58837 0.0
H1757 H 0.60819 0.37213 0.56727 0.0
H1758 H 0.60338 0.35415 0.55142 0.0
H1759 H 0.62673 0.33246 0.57259 0.0
C1760 C 0.26459 0.51138 0.13008 0.0
C1761 C 0.27375 0.5175 0.13938 0.0
C1762 C 0.28803 0.50146 0.1352 0.0
C1763 C 0.28535 0.51258 0.14194 0.0
C1764 C 0.27885 0.49546 0.1258 0.0
C1765 C 0.26723 0.5003 0.12333 0.0
U1766 U 0.22805 0.50513 0.12321 0.0
O1767 O 0.21212 0.51455 0.13043 0.0
O1768 O 0.21488 0.51329 0.11071 0.0
C1769 C 0.2084 0.51778 0.11968 0.0
C1770 C 0.25213 0.5163 0.12785 0.0
C1771 C 0.20572 0.5309 0.11942 0.0
C1772 C 0.20961 0.55323 0.12715 0.0
C1773 C 0.21322 0.54106 0.12677 0.0
C1774 C 0.19132 0.54526 0.11248 0.0
C1775 C 0.19845 0.5554 0.12018 0.0
C1776 C 0.19491 0.53313 0.11213 0.0
C1777 C 0.21149 0.47104 0.12029 0.0
C1778 C 0.18837 0.46556 0.1142 0.0
C1779 C 0.20055 0.44987 0.12199 0.0
C1780 C 0.21186 0.45873 0.12341 0.0
C1781 C 0.18867 0.4532 0.1174 0.0
C1782 C 0.19968 0.47443 0.11569 0.0
C1783 C 0.22333 0.48037 0.12228 0.0
O1784 O 0.24652 0.5136 0.11669 0.0
O1785 O 0.2439 0.5148 0.13642 0.0
O1786 O 0.22417 0.48792 0.13254 0.0
O1787 O 0.22663 0.48633 0.11279 0.0
H1788 H 0.27185 0.52599 0.14477 0.0
H1789 H 0.29209 0.51737 0.14935 0.0
H1790 H 0.28066 0.48702 0.12027 0.0
H1791 H 0.26029 0.49532 0.11616 0.0
H1792 H 0.21526 0.56082 0.13323 0.0
H1793 H 0.22164 0.53953 0.13245 0.0
H1794 H 0.18282 0.54666 0.10685 0.0
H1795 H 0.18905 0.52541 0.10636 0.0
H1796 H 0.17934 0.46843 0.11076 0.0
H1797 H 0.20113 0.44038 0.12438 0.0
H1798 H 0.2209 0.45598 0.127 0.0
H1799 H 0.19921 0.48396 0.11334 0.0
C1800 C 0.30942 0.52899 0.8677 0.0
C1801 C 0.32173 0.53191 0.8741 0.0
C1802 C 0.32225 0.55413 0.87091 0.0
C1803 C 0.32804 0.54436 0.87575 0.0
C1804 C 0.30981 0.55117 0.86464 0.0
C1805 C 0.30346 0.53869 0.86306 0.0
U1806 U 0.31282 0.49433 0.86454 0.0
O1807 O 0.3014 0.4778 0.87094 0.0
O1808 O 0.30339 0.47856 0.85124 0.0
C1809 C 0.29756 0.47262 0.85976 0.0
C1810 C 0.30318 0.51577 0.86527 0.0
C1811 C 0.28342 0.4688 0.85738 0.0
C1812 C 0.26114 0.47255 0.86017 0.0
C1813 C 0.27456 0.47659 0.86195 0.0
C1814 C 0.26528 0.45312 0.8488 0.0
C1815 C 0.25633 0.4607 0.85368 0.0
C1816 C 0.2787 0.45712 0.85067 0.0
C1817 C 0.3473 0.48592 0.86951 0.0
C1818 C 0.35215 0.46429 0.86728 0.0
C1819 C 0.3693 0.48161 0.87425 0.0
C1820 C 0.36037 0.49021 0.8734 0.0
C1821 C 0.3653 0.46855 0.87121 0.0
C1822 C 0.3432 0.47292 0.86647 0.0
C1823 C 0.33809 0.49513 0.86882 0.0
O1824 O 0.3062 0.50975 0.85506 0.0
O1825 O 0.30354 0.50905 0.87465 0.0
O1826 O 0.32994 0.49531 0.87753 0.0
O1827 O 0.33249 0.49567 0.85788 0.0
H1828 H 0.32654 0.52452 0.87768 0.0
H1829 H 0.33752 0.54633 0.88077 0.0
H1830 H 0.30515 0.55844 0.86067 0.0
H1831 H 0.29401 0.53658 0.858 0.0
H1832 H 0.25457 0.47858 0.86419 0.0
H1833 H 0.27803 0.48568 0.8671 0.0
H1834 H 0.26191 0.44404 0.84358 0.0
H1835 H 0.28541 0.45104 0.84699 0.0
H1836 H 0.34875 0.45428 0.86499 0.0
H1837 H 0.37939 0.48521 0.87714 0.0
H1838 H 0.36367 0.50023 0.87577 0.0
H1839 H 0.3331 0.46946 0.8635 0.0
C1840 C 0.27733 0.46533 0.65019 0.0
C1841 C 0.28739 0.46597 0.64219 0.0
C1842 C 0.29061 0.44431 0.64498 0.0
C1843 C 0.29391 0.45555 0.63955 0.0
C1844 C 0.28036 0.44363 0.65286 0.0
C1845 C 0.27379 0.45408 0.65545 0.0
U1846 U 0.27975 0.5007 0.65307 0.0
O1847 O 0.26605 0.51372 0.64838 0.0
O1848 O 0.27419 0.51447 0.66739 0.0
C1849 C 0.26594 0.51867 0.65979 0.0
C1850 C 0.27118 0.47665 0.6536 0.0
C1851 C 0.25302 0.5201 0.66416 0.0
C1852 C 0.22959 0.51358 0.66348 0.0
C1853 C 0.24198 0.5112 0.6603 0.0
C1854 C 0.23924 0.53347 0.67487 0.0
C1855 C 0.22806 0.5249 0.67057 0.0
C1856 C 0.25159 0.53109 0.67167 0.0
C1857 C 0.31101 0.51888 0.64365 0.0
C1858 C 0.31501 0.54187 0.64624 0.0
C1859 C 0.33017 0.52997 0.63577 0.0
C1860 C 0.32245 0.51866 0.63753 0.0
C1861 C 0.32656 0.54172 0.64014 0.0
C1862 C 0.30728 0.53054 0.64797 0.0
C1863 C 0.30299 0.50692 0.64538 0.0
O1864 O 0.27695 0.48394 0.66322 0.0
O1865 O 0.26816 0.48303 0.64446 0.0
O1866 O 0.29238 0.50396 0.63798 0.0
O1867 O 0.30101 0.5051 0.65681 0.0
H1868 H 0.29035 0.4746 0.6381 0.0
H1869 H 0.30159 0.45634 0.63328 0.0
H1870 H 0.27767 0.43516 0.65728 0.0
H1871 H 0.26612 0.45347 0.66174 0.0
H1872 H 0.22118 0.50683 0.65996 0.0
H1873 H 0.24289 0.50261 0.65452 0.0
H1874 H 0.23842 0.54215 0.68052 0.0
H1875 H 0.26 0.53804 0.67478 0.0
H1876 H 0.31204 0.55074 0.64983 0.0
H1877 H 0.33889 0.52952 0.63088 0.0
H1878 H 0.3254 0.50972 0.63408 0.0
H1879 H 0.29844 0.53086 0.6527 0.0
C1880 C 0.2367 0.50106 0.3528 0.0
C1881 C 0.24062 0.51305 0.35929 0.0
C1882 C 0.25991 0.51594 0.34774 0.0
C1883 C 0.25215 0.52038 0.35683 0.0
C1884 C 0.25588 0.50401 0.34113 0.0
C1885 C 0.24438 0.4966 0.34368 0.0
U1886 U 0.20207 0.49984 0.36174 0.0
O1887 O 0.18403 0.48724 0.35488 0.0
O1888 O 0.19091 0.4887 0.37432 0.0
C1889 C 0.18249 0.48282 0.36553 0.0
C1890 C 0.22439 0.49344 0.35521 0.0
C1891 C 0.17936 0.46892 0.3653 0.0
C1892 C 0.18151 0.44921 0.37406 0.0
C1893 C 0.18563 0.46213 0.37364 0.0
C1894 C 0.1651 0.44954 0.35756 0.0
C1895 C 0.17103 0.44281 0.36617 0.0
C1896 C 0.16918 0.46244 0.35718 0.0
C1897 C 0.18902 0.53133 0.3678 0.0
C1898 C 0.16657 0.53244 0.37249 0.0
C1899 C 0.18154 0.55174 0.37183 0.0
C1900 C 0.19148 0.54458 0.36897 0.0
C1901 C 0.16895 0.54577 0.37354 0.0
C1902 C 0.17654 0.52528 0.36963 0.0
C1903 C 0.19949 0.52398 0.36448 0.0
O1904 O 0.22127 0.4945 0.36666 0.0
O1905 O 0.2145 0.49383 0.34729 0.0
O1906 O 0.19739 0.51693 0.3539 0.0
O1907 O 0.2043 0.51809 0.37327 0.0
H1908 H 0.23474 0.5168 0.36621 0.0
H1909 H 0.25491 0.52962 0.36194 0.0
H1910 H 0.2617 0.50037 0.33409 0.0
H1911 H 0.24145 0.48742 0.33851 0.0
H1912 H 0.18622 0.44434 0.38087 0.0
H1913 H 0.1935 0.46685 0.38007 0.0
H1914 H 0.15716 0.44486 0.35119 0.0
H1915 H 0.16416 0.46744 0.35068 0.0
H1916 H 0.15696 0.52756 0.37363 0.0
H1917 H 0.18374 0.56198 0.37276 0.0
H1918 H 0.20109 0.54938 0.36763 0.0
H1919 H 0.17449 0.51503 0.36874 0.0
H1920 H 0.08224 0.35662 0.09982 0.0
H1921 H 0.10292 0.38884 0.12268 0.0
H1922 H 0.11576 0.37849 0.08718 0.0
H1923 H 0.0964 0.37621 0.13739 0.0
C1924 C 0.08623 0.37314 0.13428 0.0
C1925 C 0.09006 0.36452 0.10122 0.0
C1926 C 0.09897 0.36647 0.0922 0.0
C1927 C 0.09156 0.37238 0.11235 0.0
C1928 C 0.10178 0.3826 0.11422 0.0
C1929 C 0.11067 0.38475 0.10524 0.0
C1930 C 0.10911 0.3767 0.09426 0.0
N1931 N 0.08277 0.36979 0.12156 0.0
H1932 H 0.96729 0.90363 0.3902 0.0
H1933 H 0.9363 0.91952 0.40778 0.0
H1934 H 0.94017 0.92187 0.36941 0.0
H1935 H 0.95274 0.92262 0.42393 0.0
C1936 C 0.95492 0.91293 0.42314 0.0
C1937 C 0.95888 0.90861 0.38967 0.0
C1938 C 0.95474 0.91273 0.37852 0.0
C1939 C 0.95243 0.91121 0.40029 0.0
C1940 C 0.94149 0.91768 0.39967 0.0
C1941 C 0.93709 0.92168 0.38857 0.0
C1942 C 0.94377 0.91915 0.37808 0.0
N1943 N 0.95681 0.90688 0.41142 0.0
H1944 H 0.41207 0.65137 0.62751 0.0
H1945 H 0.37708 0.62676 0.61347 0.0
H1946 H 0.39771 0.61961 0.64647 0.0
H1947 H 0.38544 0.63222 0.59513 0.0
C1948 C 0.38777 0.6424 0.59749 0.0
C1949 C 0.40495 0.64316 0.62826 0.0
C1950 C 0.40609 0.63598 0.63821 0.0
C1951 C 0.3947 0.63974 0.61916 0.0
C1952 C 0.3853 0.62921 0.6202 0.0
C1953 C 0.38623 0.62201 0.63014 0.0
C1954 C 0.39668 0.62543 0.63904 0.0
N1955 N 0.39388 0.64721 0.60922 0.0
H1956 H 0.58566 0.13109 0.90583 0.0
H1957 H 0.59784 0.1014 0.88182 0.0
H1958 H 0.60709 0.10357 0.92058 0.0
H1959 H 0.59992 0.11762 0.8694 0.0
C1960 C 0.59063 0.12108 0.8706 0.0
C1961 C 0.59053 0.12276 0.90453 0.0
C1962 C 0.59604 0.11785 0.9147 0.0
C1963 C 0.59143 0.11708 0.89262 0.0
C1964 C 0.59758 0.10616 0.89093 0.0
C1965 C 0.60319 0.10116 0.90097 0.0
C1966 C 0.60238 0.10709 0.91281 0.0
N1967 N 0.58597 0.12242 0.8825 0.0
H1968 H 0.0755 0.62658 0.39366 0.0
H1969 H 0.10154 0.60361 0.40959 0.0
H1970 H 0.09515 0.60161 0.37048 0.0
H1971 H 0.08647 0.60447 0.42461 0.0
C1972 C 0.0864 0.61465 0.4255 0.0
C1973 C 0.08208 0.61956 0.39256 0.0
C1974 C 0.08437 0.61435 0.38078 0.0
C1975 C 0.08797 0.61552 0.40299 0.0
C1976 C 0.09665 0.60652 0.4016 0.0
C1977 C 0.09924 0.6014 0.38989 0.0
C1978 C 0.09296 0.60529 0.37956 0.0
N1979 N 0.08543 0.62097 0.41477 0.0
H1980 H 0.59107 0.86654 0.61322 0.0
H1981 H 0.6084 0.90187 0.63332 0.0
H1982 H 0.62552 0.8872 0.60118 0.0
H1983 H 0.58013 0.86371 0.62965 0.0
C1984 C 0.5807 0.8725 0.63559 0.0
C1985 C 0.5986 0.87466 0.61452 0.0
C1986 C 0.60827 0.87578 0.60607 0.0
C1987 C 0.5988 0.88402 0.62451 0.0
C1988 C 0.60849 0.89459 0.62575 0.0
C1989 C 0.61821 0.89586 0.61741 0.0
C1990 C 0.61803 0.88635 0.60765 0.0
N1991 N 0.5896 0.88328 0.63362 0.0
H1992 H 0.4605 0.3875 0.87262 0.0
H1993 H 0.43237 0.40604 0.89215 0.0
H1994 H 0.4379 0.41225 0.85473 0.0
H1995 H 0.44936 0.40608 0.90776 0.0
C1996 C 0.44967 0.39594 0.90625 0.0
C1997 C 0.45312 0.39378 0.8728 0.0
C1998 C 0.45016 0.39983 0.86241 0.0
C1999 C 0.44695 0.3962 0.88363 0.0
C2000 C 0.43735 0.40433 0.88389 0.0
C2001 C 0.43408 0.41022 0.87352 0.0
C2002 C 0.44057 0.40794 0.86285 0.0
N2003 N 0.45032 0.39022 0.89412 0.0
H2004 H 0.92822 0.15972 0.13365 0.0
H2005 H 0.89481 0.13316 0.11896 0.0
H2006 H 0.91521 0.12757 0.15263 0.0
H2007 H 0.90289 0.13929 0.10081 0.0
C2008 C 0.90465 0.14948 0.10321 0.0
C2009 C 0.92153 0.15117 0.1343 0.0
C2010 C 0.92286 0.1442 0.14437 0.0
C2011 C 0.91162 0.14713 0.12497 0.0
C2012 C 0.90279 0.13612 0.12587 0.0
C2013 C 0.90393 0.12914 0.13594 0.0
C2014 C 0.91402 0.1332 0.14507 0.0
N2015 N 0.9105 0.1545 0.11499 0.0
H2016 H 0.12462 0.06375 0.32425 0.0
H2017 H 0.14367 0.07618 0.36012 0.0
H2018 H 0.109 0.09087 0.34865 0.0
H2019 H 0.16158 0.0732 0.34904 0.0
C2020 C 0.15804 0.06381 0.34445 0.0
C2021 C 0.12502 0.06938 0.33305 0.0
C2022 C 0.11538 0.07713 0.33555 0.0
C2023 C 0.13536 0.06908 0.3418 0.0
C2024 C 0.13591 0.07651 0.35318 0.0
C2025 C 0.12634 0.08429 0.35575 0.0
C2026 C 0.11612 0.08447 0.34691 0.0
N2027 N 0.14504 0.06119 0.33905 0.0
H2028 H 0.12537 0.85346 0.64005 0.0
H2029 H 0.09316 0.83711 0.659 0.0
H2030 H 0.10906 0.87611 0.66814 0.0
H2031 H 0.09175 0.82107 0.64533 0.0
C2032 C 0.10035 0.82127 0.64018 0.0
C2033 C 0.11845 0.85439 0.64698 0.0
C2034 C 0.11842 0.8661 0.65397 0.0
C2035 C 0.10932 0.84388 0.64854 0.0
C2036 C 0.10013 0.84509 0.65739 0.0
C2037 C 0.09996 0.85672 0.66446 0.0
C2038 C 0.10919 0.86712 0.66273 0.0
N2039 N 0.10971 0.83236 0.64098 0.0
H2040 H 0.36286 0.93951 0.84159 0.0
H2041 H 0.3834 0.91095 0.85546 0.0
H2042 H 0.34862 0.9199 0.87159 0.0
H2043 H 0.40096 0.92671 0.85049 0.0
C2044 C 0.39698 0.92632 0.84107 0.0
C2045 C 0.36372 0.93253 0.84798 0.0
C2046 C 0.35452 0.93071 0.85679 0.0
C2047 C 0.37436 0.92569 0.84768 0.0
C2048 C 0.3755 0.91661 0.85596 0.0
C2049 C 0.36619 0.9144 0.86453 0.0
C2050 C 0.3558 0.92154 0.86492 0.0
N2051 N 0.38364 0.92773 0.8388 0.0
H2052 H 0.39475 0.17172 0.09955 0.0
H2053 H 0.42862 0.19124 0.12147 0.0
H2054 H 0.40909 0.1564 0.13161 0.0
H2055 H 0.42314 0.20804 0.11339 0.0
C2056 C 0.41892 0.2048 0.10417 0.0
C2057 C 0.40173 0.17231 0.10738 0.0
C2058 C 0.40067 0.16281 0.11536 0.0
C2059 C 0.41153 0.18281 0.10965 0.0
C2060 C 0.42066 0.18353 0.11981 0.0
C2061 C 0.41982 0.174 0.12774 0.0
C2062 C 0.40979 0.16374 0.12546 0.0
N2063 N 0.41204 0.19234 0.10146 0.0
H2064 H 0.15176 0.95136 0.18115 0.0
H2065 H 0.15978 0.93249 0.14663 0.0
H2066 H 0.12902 0.91583 0.1669 0.0
H2067 H 0.18037 0.94136 0.15292 0.0
C2068 C 0.17901 0.95083 0.15663 0.0
C2069 C 0.14965 0.94342 0.17409 0.0
C2070 C 0.13945 0.93365 0.17519 0.0
C2071 C 0.15741 0.9428 0.16408 0.0
C2072 C 0.15442 0.93264 0.15478 0.0
C2073 C 0.14418 0.92286 0.15569 0.0
C2074 C 0.13688 0.92338 0.16603 0.0
N2075 N 0.16803 0.95257 0.16347 0.0
H2076 H 0.33664 0.85988 0.4005 0.0
H2077 H 0.36961 0.84282 0.38844 0.0
H2078 H 0.36292 0.87874 0.37704 0.0
H2079 H 0.35428 0.82491 0.38922 0.0
C2080 C 0.35132 0.82726 0.39839 0.0
C2081 C 0.34527 0.86022 0.39537 0.0
C2082 C 0.34871 0.87043 0.38853 0.0
C2083 C 0.35262 0.85013 0.3952 0.0
C2084 C 0.36379 0.85049 0.38847 0.0
C2085 C 0.3675 0.86072 0.38178 0.0
C2086 C 0.35992 0.87064 0.38192 0.0
N2087 N 0.3487 0.83975 0.40192 0.0
H2088 H 0.34629 0.08367 0.66219 0.0
H2089 H 0.36914 0.11155 0.64379 0.0
H2090 H 0.32914 0.09881 0.63122 0.0
H2091 H 0.38548 0.10014 0.65037 0.0
C2092 C 0.38298 0.09989 0.65981 0.0
C2093 C 0.34711 0.08979 0.65491 0.0
C2094 C 0.33626 0.09024 0.64677 0.0
C2095 C 0.35904 0.09728 0.65378 0.0
C2096 C 0.36005 0.1055 0.64455 0.0
C2097 C 0.3493 0.10611 0.63637 0.0
C2098 C 0.33748 0.09838 0.63751 0.0
N2099 N 0.36972 0.09681 0.66236 0.0
H2100 H 0.15553 0.15169 0.8983 0.0
H2101 H 0.13696 0.12912 0.86588 0.0
H2102 H 0.12398 0.16438 0.87791 0.0
H2103 H 0.14283 0.11324 0.87617 0.0
C2104 C 0.15263 0.11704 0.87998 0.0
C2105 C 0.14828 0.1503 0.89061 0.0
C2106 C 0.14004 0.15949 0.88894 0.0
C2107 C 0.14711 0.13921 0.88248 0.0
C2108 C 0.13772 0.13744 0.87246 0.0
C2109 C 0.12937 0.1465 0.87072 0.0
C2110 C 0.13066 0.15753 0.87897 0.0
N2111 N 0.15556 0.13007 0.88452 0.0
H2112 H 0.83229 0.35377 0.89726 0.0
H2113 H 0.86658 0.33899 0.88523 0.0
H2114 H 0.85611 0.3729 0.87203 0.0
H2115 H 0.85287 0.32021 0.88719 0.0
C2116 C 0.8499 0.32275 0.89633 0.0
C2117 C 0.84073 0.35446 0.89186 0.0
C2118 C 0.8431 0.36443 0.8845 0.0
C2119 C 0.84893 0.34505 0.89192 0.0
C2120 C 0.85989 0.34592 0.8849 0.0
C2121 C 0.86257 0.35599 0.87778 0.0
C2122 C 0.8541 0.36515 0.8776 0.0
N2123 N 0.84616 0.33492 0.89925 0.0
H2124 H 0.8507 0.57442 0.17252 0.0
H2125 H 0.87309 0.60415 0.15601 0.0
H2126 H 0.83295 0.59216 0.1436 0.0
H2127 H 0.8894 0.59134 0.16073 0.0
C2128 C 0.88722 0.59091 0.17024 0.0
C2129 C 0.85132 0.58126 0.16587 0.0
C2130 C 0.84036 0.58221 0.15803 0.0
C2131 C 0.86323 0.58888 0.16495 0.0
C2132 C 0.86409 0.59783 0.15638 0.0
C2133 C 0.85317 0.59911 0.14869 0.0
C2134 C 0.8414 0.5912 0.14953 0.0
N2135 N 0.87407 0.58783 0.17312 0.0
H2136 H 0.65954 0.65994 0.40323 0.0
H2137 H 0.64085 0.6401 0.36955 0.0
H2138 H 0.62708 0.6737 0.38529 0.0
H2139 H 0.66204 0.63601 0.36733 0.0
C2140 C 0.66427 0.63323 0.37638 0.0
C2141 C 0.65214 0.65911 0.39572 0.0
C2142 C 0.64352 0.66817 0.39528 0.0
C2143 C 0.65151 0.64919 0.38629 0.0
C2144 C 0.64174 0.64798 0.37665 0.0
C2145 C 0.63293 0.65683 0.37619 0.0
C2146 C 0.63401 0.66698 0.38546 0.0
N2147 N 0.66053 0.64032 0.38689 0.0
H2148 H 0.85546 0.44283 0.32614 0.0
H2149 H 0.87711 0.41674 0.34304 0.0
H2150 H 0.84307 0.42776 0.35913 0.0
H2151 H 0.89416 0.43114 0.33565 0.0
C2152 C 0.88974 0.42971 0.32631 0.0
C2153 C 0.8568 0.4369 0.33342 0.0
C2154 C 0.84807 0.43629 0.34275 0.0
C2155 C 0.86754 0.4302 0.3337 0.0
C2156 C 0.8692 0.4224 0.34309 0.0
C2157 C 0.86033 0.42137 0.35221 0.0
C2158 C 0.8499 0.42845 0.35204 0.0
N2159 N 0.87634 0.431 0.32426 0.0
H2160 H 0.60993 0.55172 0.81982 0.0
H2161 H 0.62778 0.56203 0.85645 0.0
H2162 H 0.59778 0.58212 0.84296 0.0
H2163 H 0.62682 0.53943 0.8543 0.0
C2164 C 0.63162 0.53892 0.84577 0.0
C2165 C 0.6107 0.5576 0.8285 0.0
C2166 C 0.60256 0.567 0.83037 0.0
C2167 C 0.61953 0.55547 0.83801 0.0
C2168 C 0.62068 0.56329 0.84921 0.0
C2169 C 0.61277 0.57286 0.85107 0.0
C2170 C 0.6037 0.57455 0.84166 0.0
N2171 N 0.62736 0.54563 0.8361 0.0
H2172 H 0.90626 0.64382 0.90511 0.0
H2173 H 0.89317 0.6114 0.87899 0.0
H2174 H 0.87057 0.61959 0.9095 0.0
H2175 H 0.91554 0.61185 0.87848 0.0
C2176 C 0.91828 0.62188 0.87772 0.0
C2177 C 0.89917 0.63558 0.90204 0.0
C2178 C 0.88813 0.63269 0.90864 0.0
C2179 C 0.90121 0.62781 0.8915 0.0
C2180 C 0.89187 0.61727 0.88729 0.0
C2181 C 0.88079 0.61427 0.89375 0.0
C2182 C 0.87905 0.62197 0.90443 0.0
N2183 N 0.91253 0.63096 0.88513 0.0
H2184 H 0.06109 0.1297 0.6171 0.0
H2185 H 0.08972 0.10889 0.60106 0.0
H2186 H 0.07627 0.10088 0.63603 0.0
H2187 H 0.07812 0.11206 0.58349 0.0
C2188 C 0.07716 0.12203 0.58542 0.0
C2189 C 0.06741 0.12246 0.61754 0.0
C2190 C 0.06774 0.11558 0.62778 0.0
C2191 C 0.07494 0.11979 0.60767 0.0
C2192 C 0.08333 0.11052 0.60832 0.0
C2193 C 0.0839 0.10366 0.61854 0.0
C2194 C 0.07596 0.10618 0.62814 0.0
N2195 N 0.07418 0.12674 0.59732 0.0
H2196 H 0.56511 0.35958 0.39444 0.0
H2197 H 0.60084 0.37965 0.41253 0.0
H2198 H 0.5844 0.39255 0.38011 0.0
H2199 H 0.60345 0.35881 0.41568 0.0
C2200 C 0.59392 0.35583 0.41888 0.0
C2201 C 0.57305 0.36733 0.39496 0.0
C2202 C 0.57338 0.3761 0.38623 0.0
C2203 C 0.58309 0.36835 0.40426 0.0
C2204 C 0.59334 0.37851 0.40509 0.0
C2205 C 0.59376 0.38742 0.39652 0.0
C2206 C 0.58379 0.38606 0.38709 0.0
N2207 N 0.5826 0.35915 0.41277 0.0
H2208 H 0.4213 0.88094 0.11751 0.0
H2209 H 0.40998 0.91256 0.13954 0.0
H2210 H 0.3953 0.90421 0.10189 0.0
H2211 H 0.43168 0.91279 0.14783 0.0
C2212 C 0.43058 0.90281 0.14924 0.0
C2213 C 0.41591 0.88894 0.11839 0.0
C2214 C 0.40829 0.89175 0.10829 0.0
C2215 C 0.41693 0.89667 0.12955 0.0
C2216 C 0.40979 0.90696 0.13076 0.0
C2217 C 0.40185 0.90966 0.12085 0.0
C2218 C 0.40132 0.90211 0.10962 0.0
N2219 N 0.42471 0.89362 0.13961 0.0
H2220 H 0.90737 0.39814 0.61295 0.0
H2221 H 0.89833 0.43064 0.63525 0.0
H2222 H 0.88285 0.42306 0.59781 0.0
H2223 H 0.91897 0.42924 0.64422 0.0
C2224 C 0.91755 0.41914 0.64508 0.0
C2225 C 0.90262 0.40657 0.61387 0.0
C2226 C 0.895 0.4097 0.60392 0.0
C2227 C 0.90409 0.41419 0.6251 0.0
C2228 C 0.89759 0.4249 0.6265 0.0
C2229 C 0.88987 0.42814 0.61669 0.0
C2230 C 0.88876 0.42057 0.60542 0.0
N2231 N 0.9116 0.41053 0.63504 0.0
H2232 H 0.42334 0.15062 0.39713 0.0
H2233 H 0.4097 0.11792 0.37141 0.0
H2234 H 0.38873 0.12571 0.40319 0.0
H2235 H 0.43241 0.11862 0.37098 0.0
C2236 C 0.43467 0.12855 0.36953 0.0
C2237 C 0.4163 0.14227 0.39428 0.0
C2238 C 0.40594 0.13895 0.40155 0.0
C2239 C 0.41794 0.13453 0.38359 0.0
C2240 C 0.40873 0.12375 0.37983 0.0
C2241 C 0.3982 0.12047 0.3869 0.0
C2242 C 0.39695 0.12807 0.39777 0.0
N2243 N 0.42883 0.13778 0.37666 0.0
H2244 H 0.56477 0.63031 0.12092 0.0
H2245 H 0.59133 0.60664 0.1053 0.0
H2246 H 0.58105 0.60379 0.14223 0.0
H2247 H 0.57931 0.60871 0.08781 0.0
C2248 C 0.57848 0.61875 0.08893 0.0
C2249 C 0.57095 0.623 0.12177 0.0
C2250 C 0.57201 0.61747 0.1328 0.0
C2251 C 0.57755 0.6189 0.11167 0.0
C2252 C 0.58569 0.60948 0.1128 0.0
C2253 C 0.58701 0.60401 0.12382 0.0
C2254 C 0.58008 0.60801 0.13372 0.0
N2255 N 0.57617 0.62464 0.10062 0.0
H2256 H 0.06459 0.86519 0.90758 0.0
H2257 H 0.10072 0.88362 0.9264 0.0
H2258 H 0.08531 0.89825 0.8946 0.0
H2259 H 0.10212 0.86504 0.93254 0.0
C2260 C 0.09227 0.86045 0.93335 0.0
C2261 C 0.07281 0.87269 0.90841 0.0
C2262 C 0.07353 0.88195 0.90016 0.0
C2263 C 0.08272 0.87296 0.91772 0.0
C2264 C 0.09329 0.88286 0.91895 0.0
C2265 C 0.09427 0.89206 0.91067 0.0
C2266 C 0.08436 0.89148 0.90131 0.0
N2267 N 0.08171 0.86322 0.9257 0.0
H2268 H 0.88944 0.96818 0.69322 0.0
H2269 H 0.88624 0.95721 0.65428 0.0
H2270 H 0.91443 0.94302 0.6773 0.0
H2271 H 0.86557 0.96005 0.65644 0.0
C2272 C 0.86622 0.96856 0.66281 0.0
C2273 C 0.89274 0.96306 0.68526 0.0
C2274 C 0.90258 0.95537 0.68669 0.0
C2275 C 0.88661 0.96363 0.67363 0.0
C2276 C 0.89076 0.95678 0.66331 0.0
C2277 C 0.90061 0.94911 0.66461 0.0
C2278 C 0.90659 0.94868 0.67628 0.0
N2279 N 0.87613 0.9709 0.6726 0.0
H2280 H 0.87628 0.16369 0.39567 0.0
H2281 H 0.90458 0.18881 0.37934 0.0
H2282 H 0.89648 0.1495 0.36533 0.0
H2283 H 0.90738 0.19821 0.39934 0.0
C2284 C 0.89731 0.19802 0.40165 0.0
C2285 C 0.88327 0.16526 0.38883 0.0
C2286 C 0.88558 0.15513 0.38053 0.0
C2287 C 0.89036 0.17733 0.38873 0.0
C2288 C 0.89945 0.17941 0.37984 0.0
C2289 C 0.90158 0.16943 0.37126 0.0
C2290 C 0.89471 0.15731 0.37177 0.0
N2291 N 0.88801 0.18724 0.39755 0.0
H2292 H 0.6349 0.06844 0.19476 0.0
H2293 H 0.65077 0.072 0.1597 0.0
H2294 H 0.62233 0.09528 0.17157 0.0
H2295 H 0.65023 0.04948 0.16156 0.0
C2296 C 0.65582 0.05133 0.17038 0.0
C2297 C 0.63525 0.07277 0.18626 0.0
C2298 C 0.6276 0.08235 0.18422 0.0
C2299 C 0.64346 0.06882 0.17737 0.0
C2300 C 0.64417 0.07469 0.16645 0.0
C2301 C 0.63651 0.0842 0.16431 0.0
C2302 C 0.62823 0.08789 0.17319 0.0
N2303 N 0.65148 0.05947 0.17981 0.0
H2304 H 0.64222 0.84616 0.90061 0.0
H2305 H 0.60499 0.82965 0.8826 0.0
H2306 H 0.62375 0.86519 0.87316 0.0
H2307 H 0.61173 0.81151 0.88737 0.0
C2308 C 0.61681 0.81397 0.89638 0.0
C2309 C 0.63417 0.84653 0.89397 0.0
C2310 C 0.63429 0.85684 0.887 0.0
C2311 C 0.62386 0.83647 0.89221 0.0
C2312 C 0.61332 0.83701 0.88367 0.0
C2313 C 0.6132 0.8474 0.87683 0.0
C2314 C 0.62377 0.85718 0.87848 0.0
N2315 N 0.62421 0.82617 0.89942 0.0
H2316 H 0.85038 0.06833 0.83762 0.0
H2317 H 0.87574 0.09943 0.85794 0.0
H2318 H 0.84273 0.08135 0.87442 0.0
H2319 H 0.87751 0.10562 0.83884 0.0
C2320 C 0.87866 0.09677 0.83356 0.0
C2321 C 0.85296 0.07469 0.84595 0.0
C2322 C 0.84545 0.07347 0.85612 0.0
C2323 C 0.86371 0.08422 0.8464 0.0
C2324 C 0.86715 0.09239 0.85728 0.0
C2325 C 0.85969 0.09136 0.86748 0.0
C2326 C 0.84886 0.08188 0.86678 0.0
N2327 N 0.87101 0.08532 0.83589 0.0
H2328 H 0.65518 0.1778 0.61546 0.0
H2329 H 0.63849 0.15609 0.643 0.0
H2330 H 0.62114 0.18799 0.63253 0.0
H2331 H 0.66087 0.15493 0.64695 0.0
C2332 C 0.66281 0.15189 0.63758 0.0
C2333 C 0.64777 0.17616 0.62191 0.0
C2334 C 0.63822 0.18428 0.62322 0.0
C2335 C 0.64814 0.16618 0.62922 0.0
C2336 C 0.63851 0.16398 0.63756 0.0
C2337 C 0.62878 0.17186 0.63884 0.0
C2338 C 0.62877 0.18202 0.63171 0.0
N2339 N 0.65807 0.15828 0.62787 0.0
H2340 H 0.63936 0.9262 0.34531 0.0
H2341 H 0.65773 0.91309 0.37676 0.0
H2342 H 0.61929 0.8958 0.36289 0.0
H2343 H 0.66628 0.9346 0.37978 0.0
C2344 C 0.66914 0.93579 0.37056 0.0
C2345 C 0.63898 0.91993 0.35248 0.0
C2346 C 0.62793 0.9109 0.35303 0.0
C2347 C 0.64961 0.92099 0.36116 0.0
C2348 C 0.6494 0.91261 0.37024 0.0
C2349 C 0.6385 0.90346 0.37088 0.0
C2350 C 0.62777 0.90278 0.36234 0.0
N2351 N 0.66055 0.9303 0.36033 0.0
H2352 H 0.84696 0.86322 0.12553 0.0
H2353 H 0.88343 0.85039 0.13507 0.0
H2354 H 0.87577 0.88685 0.15045 0.0
H2355 H 0.87083 0.83107 0.13106 0.0
C2356 C 0.86515 0.83238 0.12278 0.0
C2357 C 0.85639 0.86477 0.13063 0.0
C2358 C 0.86043 0.87622 0.13805 0.0
C2359 C 0.86449 0.8553 0.12967 0.0
C2360 C 0.87686 0.85741 0.13611 0.0
C2361 C 0.88104 0.8688 0.14357 0.0
C2362 C 0.87275 0.87815 0.14449 0.0
N2363 N 0.86018 0.84401 0.12179 0.0
H2364 H 0.15336 0.66381 0.11388 0.0
H2365 H 0.13926 0.64341 0.14336 0.0
H2366 H 0.12216 0.67593 0.13422 0.0
H2367 H 0.16145 0.64102 0.14507 0.0
C2368 C 0.16237 0.63788 0.13549 0.0
C2369 C 0.14676 0.66264 0.1211 0.0
C2370 C 0.13778 0.67122 0.12328 0.0
C2371 C 0.1476 0.65281 0.12851 0.0
C2372 C 0.13897 0.65121 0.13783 0.0
C2373 C 0.12982 0.65956 0.13998 0.0
C2374 C 0.12937 0.66959 0.13274 0.0
N2375 N 0.15695 0.64443 0.12624 0.0
H2376 H 0.12977 0.42318 0.83306 0.0
H2377 H 0.14823 0.40566 0.86162 0.0
H2378 H 0.10804 0.39298 0.84959 0.0
H2379 H 0.1579 0.42752 0.86601 0.0
C2380 C 0.16096 0.42832 0.85679 0.0
C2381 C 0.12925 0.41623 0.83961 0.0
C2382 C 0.11753 0.40822 0.84046 0.0
C2383 C 0.1402 0.41565 0.84751 0.0
C2384 C 0.13959 0.40656 0.85593 0.0
C2385 C 0.12807 0.39823 0.85665 0.0
C2386 C 0.11704 0.39927 0.849 0.0
N2387 N 0.15187 0.424 0.84659 0.0
H2388 H 0.33675 0.36507 0.6123 0.0
H2389 H 0.37555 0.35655 0.62002 0.0
H2390 H 0.36168 0.38686 0.64174 0.0
H2391 H 0.3734 0.35129 0.59907 0.0
C2392 C 0.36374 0.34578 0.59813 0.0
C2393 C 0.34599 0.36704 0.61773 0.0
C2394 C 0.34798 0.37685 0.6274 0.0
C2395 C 0.35593 0.35982 0.61488 0.0
C2396 C 0.36787 0.36221 0.62201 0.0
C2397 C 0.37003 0.37196 0.63172 0.0
C2398 C 0.36003 0.37924 0.63434 0.0
N2399 N 0.35363 0.35012 0.6049 0.0
H2400 H 0.12048 0.56843 0.70336 0.0
H2401 H 0.1369 0.57578 0.66923 0.0
H2402 H 0.11086 0.59986 0.68484 0.0
H2403 H 0.13425 0.55282 0.6678 0.0
C2404 C 0.13974 0.55292 0.67655 0.0
C2405 C 0.12141 0.57405 0.6957 0.0
C2406 C 0.11491 0.5847 0.69531 0.0
C2407 C 0.12915 0.57062 0.6862 0.0
C2408 C 0.13053 0.57806 0.67634 0.0
C2409 C 0.12414 0.58877 0.6759 0.0
C2410 C 0.11625 0.59189 0.68535 0.0
N2411 N 0.13607 0.56011 0.68702 0.0
H2412 H 0.38822 0.45284 0.17756 0.0
H2413 H 0.38035 0.44073 0.13899 0.0
H2414 H 0.40763 0.42349 0.16025 0.0
H2415 H 0.3759 0.46083 0.13866 0.0
C2416 C 0.37049 0.46205 0.14676 0.0
C2417 C 0.38997 0.44688 0.16945 0.0
C2418 C 0.39886 0.43812 0.17023 0.0
C2419 C 0.38354 0.4482 0.15815 0.0
C2420 C 0.38569 0.4403 0.14765 0.0
C2421 C 0.39431 0.43132 0.14839 0.0
C2422 C 0.40092 0.43039 0.15966 0.0
N2423 N 0.37457 0.45715 0.15769 0.0
H2424 H 0.63764 0.34837 0.13677 0.0
H2425 H 0.6012 0.3301 0.14747 0.0
H2426 H 0.61402 0.36923 0.15992 0.0
H2427 H 0.61061 0.31248 0.14364 0.0
C2428 C 0.61604 0.31424 0.13569 0.0
C2429 C 0.62896 0.34881 0.14173 0.0
C2430 C 0.62701 0.36019 0.14843 0.0
C2431 C 0.61989 0.33784 0.14154 0.0
C2432 C 0.60857 0.33832 0.14795 0.0
C2433 C 0.60641 0.34963 0.15462 0.0
C2434 C 0.61569 0.36047 0.15482 0.0
N2435 N 0.62221 0.32666 0.1344 0.0
H2436 H 0.8926 0.69168 0.61586 0.0
H2437 H 0.92534 0.70968 0.64008 0.0
H2438 H 0.90425 0.67439 0.64768 0.0
H2439 H 0.91886 0.72746 0.63284 0.0
C2440 C 0.91677 0.72433 0.62314 0.0
C2441 C 0.89899 0.69175 0.62402 0.0
C2442 C 0.89708 0.68183 0.63148 0.0
C2443 C 0.90892 0.702 0.6272 0.0
C2444 C 0.91731 0.70211 0.63778 0.0
C2445 C 0.91571 0.6921 0.64515 0.0
C2446 C 0.90553 0.6821 0.64197 0.0
N2447 N 0.91051 0.71181 0.61936 0.0
H2448 H 0.64185 0.46701 0.66862 0.0
H2449 H 0.65344 0.44839 0.63529 0.0
H2450 H 0.62186 0.43051 0.65392 0.0
H2451 H 0.6564 0.48305 0.66548 0.0
C2452 C 0.66232 0.48056 0.65805 0.0
C2453 C 0.6407 0.45911 0.66156 0.0
C2454 C 0.63099 0.44879 0.6624 0.0
C2455 C 0.64891 0.45892 0.65177 0.0
C2456 C 0.6472 0.44843 0.64287 0.0
C2457 C 0.63741 0.43818 0.6435 0.0
C2458 C 0.62941 0.43843 0.65333 0.0
N2459 N 0.65912 0.46887 0.65048 0.0
H2460 H 0.36723 0.65023 0.89108 0.0
H2461 H 0.39895 0.67206 0.87572 0.0
H2462 H 0.38441 0.63436 0.85949 0.0
H2463 H 0.39076 0.68845 0.88461 0.0
C2464 C 0.38654 0.68547 0.89284 0.0
C2465 C 0.37434 0.65105 0.88426 0.0
C2466 C 0.37484 0.64089 0.87529 0.0
C2467 C 0.38269 0.66247 0.88429 0.0
C2468 C 0.392 0.66355 0.87548 0.0
C2469 C 0.3927 0.65343 0.86651 0.0
C2470 C 0.38401 0.64218 0.86644 0.0
N2471 N 0.38154 0.67255 0.89342 0.0
H2472 H 0.13373 0.34766 0.38534 0.0
H2473 H 0.09755 0.32652 0.36919 0.0
H2474 H 0.11383 0.36028 0.35442 0.0
H2475 H 0.09551 0.32236 0.38903 0.0
C2476 C 0.10526 0.32055 0.39182 0.0
C2477 C 0.12565 0.34641 0.37843 0.0
C2478 C 0.12517 0.35504 0.36964 0.0
C2479 C 0.1156 0.33626 0.37853 0.0
C2480 C 0.10513 0.33456 0.36948 0.0
C2481 C 0.10451 0.3431 0.36063 0.0
C2482 C 0.11455 0.35331 0.36084 0.0
N2483 N 0.11632 0.3279 0.38775 0.0
H2484 H 0.34856 0.57264 0.32534 0.0
H2485 H 0.37034 0.60335 0.34935 0.0
H2486 H 0.33253 0.58672 0.35835 0.0
H2487 H 0.38733 0.59334 0.34155 0.0
C2488 C 0.38408 0.59259 0.3319 0.0
C2489 C 0.34936 0.57915 0.33363 0.0
C2490 C 0.33919 0.57863 0.34154 0.0
C2491 C 0.36066 0.58797 0.33642 0.0
C2492 C 0.3617 0.59644 0.34718 0.0
C2493 C 0.35161 0.59602 0.35519 0.0
C2494 C 0.34037 0.58713 0.35223 0.0
N2495 N 0.37073 0.58833 0.32817 0.0
C2496 C 0.17361 0.43603 0.12527 0.0
C2497 C 0.17666 0.44378 0.11598 0.0
C2498 C 0.16253 0.42681 0.12391 0.0
C2499 C 0.15433 0.42525 0.11296 0.0
C2500 C 0.15723 0.43318 0.10363 0.0
C2501 C 0.16835 0.44238 0.10526 0.0
C2502 C 0.1597 0.41859 0.13411 0.0
C2503 C 0.14877 0.43174 0.09179 0.0
C2504 C 0.13425 0.39304 0.10399 0.0
C2505 C 0.12182 0.39518 0.10737 0.0
C2506 C 0.14487 0.40276 0.10572 0.0
C2507 C 0.14307 0.41492 0.11105 0.0
C2508 C 0.13059 0.41714 0.11458 0.0
C2509 C 0.1201 0.40724 0.11269 0.0
C2510 C 0.15803 0.40001 0.10184 0.0
C2511 C 0.12832 0.42999 0.12031 0.0
H2512 H 0.1799 0.43722 0.13365 0.0
H2513 H 0.17074 0.44826 0.09801 0.0
H2514 H 0.14969 0.41917 0.13696 0.0
H2515 H 0.16014 0.40855 0.1308 0.0
H2516 H 0.16672 0.42138 0.14224 0.0
H2517 H 0.15204 0.43902 0.08568 0.0
H2518 H 0.14895 0.42223 0.08685 0.0
H2519 H 0.13849 0.43244 0.09372 0.0
H2520 H 0.13571 0.38369 0.10008 0.0
H2521 H 0.1105 0.409 0.1152 0.0
H2522 H 0.16526 0.40172 0.10987 0.0
H2523 H 0.16155 0.40649 0.09509 0.0
H2524 H 0.15775 0.39009 0.09768 0.0
H2525 H 0.13485 0.43281 0.12876 0.0
H2526 H 0.11806 0.43013 0.12268 0.0
H2527 H 0.13074 0.43721 0.11393 0.0
C2528 C 0.87035 0.9473 0.37181 0.0
C2529 C 0.86808 0.95764 0.37986 0.0
C2530 C 0.88156 0.94148 0.37351 0.0
C2531 C 0.89072 0.94608 0.38353 0.0
C2532 C 0.88844 0.95645 0.39174 0.0
C2533 C 0.87716 0.96212 0.38979 0.0
C2534 C 0.88369 0.93048 0.36452 0.0
C2535 C 0.89795 0.96158 0.40256 0.0
C2536 C 0.91412 0.92395 0.39349 0.0
C2537 C 0.92538 0.92828 0.3878 0.0
C2538 C 0.90282 0.92977 0.39233 0.0
C2539 C 0.90277 0.94014 0.38529 0.0
C2540 C 0.91417 0.94468 0.37968 0.0
C2541 C 0.92534 0.93872 0.38103 0.0
C2542 C 0.89085 0.92468 0.39846 0.0
C2543 C 0.91451 0.95574 0.37212 0.0
H2544 H 0.86344 0.9439 0.36403 0.0
H2545 H 0.87537 0.97 0.39614 0.0
H2546 H 0.89287 0.93287 0.36002 0.0
H2547 H 0.88476 0.92206 0.3694 0.0
H2548 H 0.87554 0.92793 0.35732 0.0
H2549 H 0.89467 0.96961 0.40817 0.0
H2550 H 0.89924 0.95397 0.40849 0.0
H2551 H 0.90764 0.96484 0.39934 0.0
H2552 H 0.91403 0.9158 0.39861 0.0
H2553 H 0.93407 0.94223 0.37676 0.0
H2554 H 0.88276 0.92108 0.39142 0.0
H2555 H 0.88756 0.93237 0.4045 0.0
H2556 H 0.89265 0.91687 0.40401 0.0
H2557 H 0.9071 0.95345 0.36425 0.0
H2558 H 0.92422 0.95826 0.36855 0.0
H2559 H 0.91202 0.96417 0.37771 0.0
C2560 C 0.34851 0.55475 0.64009 0.0
C2561 C 0.33489 0.55374 0.6384 0.0
C2562 C 0.35652 0.56601 0.63849 0.0
C2563 C 0.35077 0.57657 0.63517 0.0
C2564 C 0.33702 0.57564 0.63345 0.0
C2565 C 0.32925 0.56423 0.63507 0.0
C2566 C 0.37114 0.56664 0.64044 0.0
C2567 C 0.33055 0.5867 0.62992 0.0
C2568 C 0.37148 0.60871 0.64253 0.0
C2569 C 0.37647 0.61076 0.6312 0.0
C2570 C 0.36286 0.59775 0.64388 0.0
C2571 C 0.35918 0.58861 0.63366 0.0
C2572 C 0.36394 0.59077 0.62213 0.0
C2573 C 0.37252 0.60184 0.62103 0.0
C2574 C 0.35791 0.59585 0.65631 0.0
C2575 C 0.36027 0.58121 0.61103 0.0
H2576 H 0.35294 0.54676 0.64284 0.0
H2577 H 0.31874 0.56348 0.63359 0.0
H2578 H 0.37582 0.56922 0.63204 0.0
H2579 H 0.37498 0.57413 0.64794 0.0
H2580 H 0.37408 0.55751 0.64277 0.0
H2581 H 0.31974 0.58444 0.62893 0.0
H2582 H 0.33327 0.59495 0.63694 0.0
H2583 H 0.334 0.58962 0.62112 0.0
H2584 H 0.37437 0.61567 0.65038 0.0
H2585 H 0.37645 0.60333 0.61228 0.0
H2586 H 0.36133 0.58733 0.65965 0.0
H2587 H 0.34709 0.59418 0.65563 0.0
H2588 H 0.36127 0.60411 0.6632 0.0
H2589 H 0.36395 0.57221 0.61262 0.0
H2590 H 0.3643 0.58458 0.6026 0.0
H2591 H 0.3495 0.57907 0.60947 0.0
C2592 C 0.63573 0.03764 0.8871 0.0
C2593 C 0.64815 0.0391 0.89327 0.0
C2594 C 0.62797 0.04743 0.88801 0.0
C2595 C 0.63273 0.05893 0.89531 0.0
C2596 C 0.64523 0.06045 0.9016 0.0
C2597 C 0.6528 0.05052 0.90049 0.0
C2598 C 0.61473 0.0455 0.8811 0.0
C2599 C 0.6506 0.07254 0.90955 0.0
C2600 C 0.6187 0.08901 0.88968 0.0
C2601 C 0.61025 0.08999 0.89914 0.0
C2602 C 0.62589 0.07883 0.88818 0.0
C2603 C 0.62466 0.06942 0.89638 0.0
C2604 C 0.61601 0.07023 0.90583 0.0
C2605 C 0.60888 0.08048 0.90708 0.0
C2606 C 0.635 0.07828 0.87798 0.0
C2607 C 0.61442 0.06037 0.91475 0.0
H2608 H 0.63216 0.02888 0.8814 0.0
H2609 H 0.66231 0.05164 0.90541 0.0
H2610 H 0.60706 0.04668 0.88758 0.0
H2611 H 0.61428 0.05278 0.87463 0.0
H2612 H 0.61244 0.03598 0.87585 0.0
H2613 H 0.66049 0.07219 0.91385 0.0
H2614 H 0.65111 0.08068 0.90401 0.0
H2615 H 0.64399 0.07435 0.91691 0.0
H2616 H 0.61994 0.0964 0.8836 0.0
H2617 H 0.60224 0.08107 0.9143 0.0
H2618 H 0.63272 0.06906 0.87221 0.0
H2619 H 0.6452 0.07897 0.88191 0.0
H2620 H 0.63439 0.08602 0.87205 0.0
H2621 H 0.61143 0.05083 0.90972 0.0
H2622 H 0.60707 0.06222 0.92141 0.0
H2623 H 0.62389 0.06015 0.91991 0.0
C2624 C 0.1496 0.55025 0.38512 0.0
C2625 C 0.15832 0.55344 0.37625 0.0
C2626 C 0.13961 0.55753 0.38781 0.0
C2627 C 0.13833 0.56824 0.38149 0.0
C2628 C 0.14705 0.57146 0.37249 0.0
C2629 C 0.15692 0.56401 0.36997 0.0
C2630 C 0.1305 0.55383 0.39748 0.0
C2631 C 0.14597 0.58278 0.36551 0.0
C2632 C 0.10628 0.58169 0.37969 0.0
C2633 C 0.10889 0.59238 0.38837 0.0
C2634 C 0.11565 0.57356 0.37757 0.0
C2635 C 0.12794 0.57619 0.3843 0.0
C2636 C 0.13052 0.58677 0.3933 0.0
C2637 C 0.12096 0.59474 0.39522 0.0
C2638 C 0.11251 0.56233 0.36794 0.0
C2639 C 0.14352 0.5899 0.40063 0.0
H2640 H 0.1507 0.54217 0.3901 0.0
H2641 H 0.16348 0.56641 0.36297 0.0
H2642 H 0.13126 0.56164 0.405 0.0
H2643 H 0.12026 0.55223 0.39351 0.0
H2644 H 0.13266 0.5451 0.40141 0.0
H2645 H 0.15352 0.58399 0.3588 0.0
H2646 H 0.13621 0.58177 0.36054 0.0
H2647 H 0.14697 0.59153 0.37199 0.0
H2648 H 0.0969 0.57973 0.37448 0.0
H2649 H 0.1231 0.60306 0.40184 0.0
H2650 H 0.1141 0.5535 0.37194 0.0
H2651 H 0.11916 0.56342 0.36045 0.0
H2652 H 0.10229 0.56126 0.36395 0.0
H2653 H 0.14583 0.58157 0.40515 0.0
H2654 H 0.14371 0.59804 0.40776 0.0
H2655 H 0.15134 0.59224 0.39442 0.0
C2656 C 0.68404 0.9445 0.6244 0.0
C2657 C 0.68205 0.95724 0.62605 0.0
C2658 C 0.67347 0.93469 0.62286 0.0
C2659 C 0.66059 0.93767 0.62312 0.0
C2660 C 0.65849 0.95049 0.62478 0.0
C2661 C 0.66923 0.96012 0.62616 0.0
C2662 C 0.67611 0.92113 0.62102 0.0
C2663 C 0.64489 0.95403 0.62517 0.0
C2664 C 0.63308 0.91268 0.60871 0.0
C2665 C 0.62868 0.90697 0.61895 0.0
C2666 C 0.64339 0.92274 0.60994 0.0
C2667 C 0.64934 0.92733 0.62172 0.0
C2668 C 0.64476 0.92183 0.63213 0.0
C2669 C 0.63454 0.91168 0.63061 0.0
C2670 C 0.64804 0.92832 0.59861 0.0
C2671 C 0.65079 0.92654 0.64485 0.0
H2672 H 0.69388 0.94215 0.62451 0.0
H2673 H 0.66757 0.96993 0.62723 0.0
H2674 H 0.67226 0.9159 0.62856 0.0
H2675 H 0.67097 0.91633 0.61234 0.0
H2676 H 0.68668 0.92042 0.62073 0.0
H2677 H 0.64492 0.96444 0.62663 0.0
H2678 H 0.63909 0.95031 0.61648 0.0
H2679 H 0.63987 0.94964 0.63266 0.0
H2680 H 0.62847 0.90927 0.59968 0.0
H2681 H 0.63133 0.90724 0.63857 0.0
H2682 H 0.65843 0.92717 0.59768 0.0
H2683 H 0.64745 0.93862 0.59942 0.0
H2684 H 0.64225 0.92378 0.59013 0.0
H2685 H 0.66118 0.92505 0.64553 0.0
H2686 H 0.6457 0.92165 0.65204 0.0
H2687 H 0.65055 0.93687 0.64674 0.0
C2688 C 0.38408 0.4608 0.88212 0.0
C2689 C 0.37488 0.45947 0.87205 0.0
C2690 C 0.39354 0.45263 0.88281 0.0
C2691 C 0.39381 0.44289 0.87318 0.0
C2692 C 0.38442 0.44136 0.86309 0.0
C2693 C 0.37505 0.44966 0.86265 0.0
C2694 C 0.40336 0.45452 0.89375 0.0
C2695 C 0.38443 0.43111 0.85263 0.0
C2696 C 0.42581 0.43017 0.86847 0.0
C2697 C 0.42385 0.41871 0.87373 0.0
C2698 C 0.41613 0.43813 0.86826 0.0
C2699 C 0.4042 0.43458 0.87348 0.0
C2700 C 0.40219 0.42309 0.87891 0.0
C2701 C 0.41205 0.41529 0.87897 0.0
C2702 C 0.41865 0.45033 0.86242 0.0
C2703 C 0.3896 0.419 0.88456 0.0
H2704 H 0.38387 0.46825 0.8895 0.0
H2705 H 0.36805 0.44867 0.85478 0.0
H2706 H 0.40306 0.44566 0.89824 0.0
H2707 H 0.41335 0.45676 0.89073 0.0
H2708 H 0.40157 0.46229 0.90063 0.0
H2709 H 0.37616 0.43088 0.84568 0.0
H2710 H 0.39369 0.43266 0.84807 0.0
H2711 H 0.38387 0.42171 0.85615 0.0
H2712 H 0.43498 0.43295 0.86456 0.0
H2713 H 0.41042 0.40638 0.88292 0.0
H2714 H 0.41784 0.4585 0.86922 0.0
H2715 H 0.41117 0.45038 0.8548 0.0
H2716 H 0.42845 0.45171 0.85879 0.0
H2717 H 0.38778 0.42638 0.89181 0.0
H2718 H 0.38967 0.40991 0.88862 0.0
H2719 H 0.38131 0.41787 0.8775 0.0
C2720 C 0.8497 0.06911 0.14091 0.0
C2721 C 0.85579 0.05919 0.145 0.0
C2722 C 0.85701 0.08065 0.13896 0.0
C2723 C 0.87075 0.08229 0.14108 0.0
C2724 C 0.87698 0.07228 0.14506 0.0
C2725 C 0.86942 0.06086 0.147 0.0
C2726 C 0.85002 0.09112 0.13472 0.0
C2727 C 0.89162 0.07368 0.14744 0.0
C2728 C 0.89163 0.10821 0.12693 0.0
C2729 C 0.89473 0.11748 0.13696 0.0
C2730 C 0.88366 0.09677 0.12807 0.0
C2731 C 0.87862 0.09461 0.1395 0.0
C2732 C 0.88144 0.10409 0.14956 0.0
C2733 C 0.88948 0.11539 0.14818 0.0
C2734 C 0.8809 0.08686 0.11715 0.0
C2735 C 0.87616 0.10219 0.16187 0.0
H2736 H 0.83919 0.06782 0.13915 0.0
H2737 H 0.87419 0.05332 0.15031 0.0
H2738 H 0.852 0.09958 0.14159 0.0
H2739 H 0.85375 0.09399 0.12601 0.0
H2740 H 0.8393 0.08826 0.1333 0.0
H2741 H 0.89498 0.06484 0.1501 0.0
H2742 H 0.89644 0.07633 0.13914 0.0
H2743 H 0.89488 0.08141 0.15489 0.0
H2744 H 0.89577 0.10974 0.11828 0.0
H2745 H 0.89171 0.12261 0.15591 0.0
H2746 H 0.87023 0.0841 0.11524 0.0
H2747 H 0.88508 0.07822 0.11918 0.0
H2748 H 0.88507 0.09023 0.10878 0.0
H2749 H 0.86537 0.09995 0.16085 0.0
H2750 H 0.87888 0.11068 0.16863 0.0
H2751 H 0.87996 0.09402 0.16558 0.0
C2752 C 0.1296 0.13522 0.4156 0.0
C2753 C 0.12625 0.14618 0.41093 0.0
C2754 C 0.13042 0.12421 0.40777 0.0
C2755 C 0.12781 0.12418 0.39499 0.0
C2756 C 0.12452 0.13525 0.39023 0.0
C2757 C 0.12376 0.14608 0.39825 0.0
C2758 C 0.13397 0.11259 0.41316 0.0
C2759 C 0.1216 0.13559 0.37665 0.0
C2760 C 0.13909 0.10085 0.37108 0.0
C2761 C 0.12735 0.093 0.36723 0.0
C2762 C 0.13959 0.11063 0.38065 0.0
C2763 C 0.12809 0.11255 0.3865 0.0
C2764 C 0.11644 0.1041 0.38319 0.0
C2765 C 0.11621 0.09443 0.37359 0.0
C2766 C 0.1522 0.11942 0.38394 0.0
C2767 C 0.10399 0.10575 0.38926 0.0
H2768 H 0.13166 0.13527 0.42538 0.0
H2769 H 0.12093 0.15442 0.39458 0.0
H2770 H 0.12587 0.10465 0.41102 0.0
H2771 H 0.14268 0.10954 0.40899 0.0
H2772 H 0.13602 0.11425 0.42326 0.0
H2773 H 0.11955 0.14505 0.3744 0.0
H2774 H 0.12998 0.13306 0.37156 0.0
H2775 H 0.11303 0.12849 0.37332 0.0
H2776 H 0.1477 0.09983 0.36614 0.0
H2777 H 0.10717 0.08824 0.37073 0.0
H2778 H 0.15431 0.12096 0.39402 0.0
H2779 H 0.1513 0.12878 0.38072 0.0
H2780 H 0.1606 0.11571 0.37971 0.0
H2781 H 0.10581 0.10694 0.39937 0.0
H2782 H 0.09622 0.09757 0.38663 0.0
H2783 H 0.10036 0.11444 0.38657 0.0
C2784 C 0.04546 0.86425 0.71323 0.0
C2785 C 0.04064 0.87566 0.71163 0.0
C2786 C 0.05503 0.86009 0.7059 0.0
C2787 C 0.05989 0.86753 0.69677 0.0
C2788 C 0.055 0.879 0.69507 0.0
C2789 C 0.04546 0.88293 0.70252 0.0
C2790 C 0.05999 0.84778 0.70794 0.0
C2791 C 0.05997 0.88723 0.68547 0.0
C2792 C 0.09317 0.8651 0.68485 0.0
C2793 C 0.08983 0.85828 0.67329 0.0
C2794 C 0.08355 0.86776 0.69279 0.0
C2795 C 0.07026 0.8635 0.68908 0.0
C2796 C 0.06686 0.85617 0.67764 0.0
C2797 C 0.07669 0.85366 0.66988 0.0
C2798 C 0.08757 0.87554 0.70495 0.0
C2799 C 0.05279 0.85146 0.67337 0.0
H2800 H 0.04169 0.85853 0.72017 0.0
H2801 H 0.04195 0.89186 0.70137 0.0
H2802 H 0.05843 0.84124 0.69936 0.0
H2803 H 0.07064 0.84956 0.71044 0.0
H2804 H 0.05508 0.84303 0.71531 0.0
H2805 H 0.05497 0.89575 0.68516 0.0
H2806 H 0.0706 0.89036 0.68736 0.0
H2807 H 0.05855 0.88172 0.67629 0.0
H2808 H 0.10333 0.86853 0.6876 0.0
H2809 H 0.07403 0.84848 0.66091 0.0
H2810 H 0.08324 0.87066 0.71249 0.0
H2811 H 0.08384 0.88478 0.70503 0.0
H2812 H 0.09833 0.87736 0.70683 0.0
H2813 H 0.04782 0.84641 0.68051 0.0
H2814 H 0.05186 0.84498 0.66474 0.0
H2815 H 0.0476 0.85963 0.67182 0.0
C2816 C 0.36763 0.8692 0.91819 0.0
C2817 C 0.37058 0.8572 0.91394 0.0
C2818 C 0.36717 0.8787 0.9103 0.0
C2819 C 0.36965 0.87611 0.89785 0.0
C2820 C 0.37269 0.86405 0.89351 0.0
C2821 C 0.37317 0.85476 0.90161 0.0
C2822 C 0.36391 0.89146 0.91527 0.0
C2823 C 0.37537 0.86092 0.88028 0.0
C2824 C 0.35609 0.89606 0.87482 0.0
C2825 C 0.36715 0.90454 0.87299 0.0
C2826 C 0.35677 0.88676 0.88287 0.0
C2827 C 0.36881 0.88594 0.88929 0.0
C2828 C 0.38003 0.89445 0.88747 0.0
C2829 C 0.37908 0.90363 0.87931 0.0
C2830 C 0.34462 0.87778 0.88448 0.0
C2831 C 0.39302 0.89391 0.89421 0.0
H2832 H 0.36547 0.87112 0.92766 0.0
H2833 H 0.37567 0.84559 0.89829 0.0
H2834 H 0.37176 0.89905 0.91355 0.0
H2835 H 0.35478 0.89334 0.91044 0.0
H2836 H 0.36262 0.89208 0.92526 0.0
H2837 H 0.37765 0.85111 0.87837 0.0
H2838 H 0.36677 0.86204 0.87421 0.0
H2839 H 0.3837 0.86761 0.87784 0.0
H2840 H 0.34689 0.89662 0.86983 0.0
H2841 H 0.38762 0.91025 0.87801 0.0
H2842 H 0.34234 0.87855 0.89423 0.0
H2843 H 0.34627 0.86786 0.88194 0.0
H2844 H 0.33602 0.87968 0.87882 0.0
H2845 H 0.39212 0.89531 0.90424 0.0
H2846 H 0.40081 0.90122 0.89177 0.0
H2847 H 0.39606 0.88444 0.89209 0.0
C2848 C 0.45055 0.16921 0.19386 0.0
C2849 C 0.4642 0.17158 0.19557 0.0
C2850 C 0.44405 0.17068 0.18265 0.0
C2851 C 0.45138 0.17458 0.17288 0.0
C2852 C 0.46514 0.17732 0.17463 0.0
C2853 C 0.47138 0.17578 0.18596 0.0
C2854 C 0.42936 0.16763 0.18114 0.0
C2855 C 0.47326 0.18154 0.16444 0.0
C2856 C 0.4346 0.1639 0.14134 0.0
C2857 C 0.4292 0.1747 0.13859 0.0
C2858 C 0.44227 0.1639 0.15226 0.0
C2859 C 0.44462 0.17499 0.16065 0.0
C2860 C 0.4397 0.18612 0.15768 0.0
C2861 C 0.43205 0.18584 0.14665 0.0
C2862 C 0.44742 0.15187 0.15503 0.0
C2863 C 0.44202 0.19812 0.16638 0.0
H2864 H 0.44493 0.16579 0.20116 0.0
H2865 H 0.48192 0.1778 0.18726 0.0
H2866 H 0.42507 0.17572 0.17781 0.0
H2867 H 0.42651 0.15935 0.17417 0.0
H2868 H 0.42506 0.16542 0.18984 0.0
H2869 H 0.48376 0.18409 0.16751 0.0
H2870 H 0.47228 0.17384 0.15678 0.0
H2871 H 0.46972 0.18985 0.16076 0.0
H2872 H 0.43258 0.15532 0.13503 0.0
H2873 H 0.42784 0.19419 0.14459 0.0
H2874 H 0.44277 0.14824 0.16307 0.0
H2875 H 0.45808 0.15378 0.15743 0.0
H2876 H 0.44547 0.14434 0.14719 0.0
H2877 H 0.43675 0.19665 0.17473 0.0
H2878 H 0.43863 0.20626 0.16222 0.0
H2879 H 0.45255 0.20058 0.16932 0.0
C2880 C 0.12691 0.85886 0.11018 0.0
C2881 C 0.12502 0.86145 0.09799 0.0
C2882 C 0.13011 0.86869 0.11972 0.0
C2883 C 0.13158 0.88142 0.11699 0.0
C2884 C 0.12979 0.88411 0.10471 0.0
C2885 C 0.12646 0.8741 0.09538 0.0
C2886 C 0.13186 0.86547 0.13272 0.0
C2887 C 0.13132 0.89757 0.10144 0.0
C2888 C 0.12793 0.90745 0.14204 0.0
C2889 C 0.14098 0.91219 0.14579 0.0
C2890 C 0.12474 0.89736 0.13277 0.0
C2891 C 0.13484 0.89196 0.12699 0.0
C2892 C 0.14803 0.89671 0.13068 0.0
C2893 C 0.15094 0.90673 0.14007 0.0
C2894 C 0.11055 0.89251 0.12913 0.0
C2895 C 0.15906 0.89124 0.12467 0.0
H2896 H 0.126 0.84912 0.11228 0.0
H2897 H 0.12481 0.87621 0.08602 0.0
H2898 H 0.14183 0.86936 0.13669 0.0
H2899 H 0.1249 0.86991 0.13846 0.0
H2900 H 0.13031 0.85509 0.13331 0.0
H2901 H 0.12993 0.89804 0.09141 0.0
H2902 H 0.12413 0.90283 0.10605 0.0
H2903 H 0.14118 0.90251 0.10474 0.0
H2904 H 0.12017 0.91175 0.14626 0.0
H2905 H 0.16104 0.91021 0.14302 0.0
H2906 H 0.10853 0.88224 0.13013 0.0
H2907 H 0.1083 0.89367 0.11935 0.0
H2908 H 0.10387 0.89754 0.13474 0.0
H2909 H 0.15842 0.881 0.12581 0.0
H2910 H 0.16879 0.89606 0.12854 0.0
H2911 H 0.15825 0.89207 0.11468 0.0
C2912 C 0.43328 0.87824 0.34967 0.0
C2913 C 0.43602 0.86867 0.34096 0.0
C2914 C 0.42228 0.87646 0.35648 0.0
C2915 C 0.41387 0.86479 0.3546 0.0
C2916 C 0.41671 0.85499 0.34599 0.0
C2917 C 0.42774 0.85708 0.33922 0.0
C2918 C 0.41951 0.88717 0.3655 0.0
C2919 C 0.40804 0.84238 0.34382 0.0
C2920 C 0.39087 0.85759 0.37949 0.0
C2921 C 0.37925 0.86113 0.3746 0.0
C2922 C 0.40215 0.85845 0.37296 0.0
C2923 C 0.40183 0.86305 0.36133 0.0
C2924 C 0.39009 0.86644 0.35626 0.0
C2925 C 0.37894 0.86538 0.36293 0.0
C2926 C 0.41448 0.85469 0.37862 0.0
C2927 C 0.38935 0.87141 0.34389 0.0
H2928 H 0.43957 0.88727 0.35094 0.0
H2929 H 0.42991 0.84961 0.33259 0.0
H2930 H 0.41004 0.89019 0.36271 0.0
H2931 H 0.41866 0.88394 0.37474 0.0
H2932 H 0.42722 0.89551 0.36615 0.0
H2933 H 0.4119 0.83558 0.33717 0.0
H2934 H 0.40697 0.83815 0.35258 0.0
H2935 H 0.39814 0.84375 0.34028 0.0
H2936 H 0.39123 0.85442 0.38854 0.0
H2937 H 0.36995 0.86791 0.35899 0.0
H2938 H 0.4221 0.86309 0.38034 0.0
H2939 H 0.41828 0.84763 0.37222 0.0
H2940 H 0.41291 0.85061 0.38742 0.0
H2941 H 0.39628 0.88027 0.34406 0.0
H2942 H 0.37941 0.87339 0.34115 0.0
H2943 H 0.39228 0.86445 0.33679 0.0
C2944 C 0.34015 0.15823 0.59108 0.0
C2945 C 0.35058 0.16058 0.58367 0.0
C2946 C 0.34001 0.14897 0.59927 0.0
C2947 C 0.35054 0.14187 0.60006 0.0
C2948 C 0.36097 0.14399 0.59241 0.0
C2949 C 0.36086 0.15333 0.58431 0.0
C2950 C 0.32867 0.14693 0.60722 0.0
C2951 C 0.37237 0.1366 0.59299 0.0
C2952 C 0.35615 0.12764 0.62988 0.0
C2953 C 0.35022 0.11508 0.62687 0.0
C2954 C 0.35652 0.13639 0.62118 0.0
C2955 C 0.35081 0.1325 0.60916 0.0
C2956 C 0.34502 0.11978 0.60599 0.0
C2957 C 0.34479 0.11122 0.61489 0.0
C2958 C 0.36275 0.14989 0.62492 0.0
C2959 C 0.3389 0.11526 0.59326 0.0
H2960 H 0.33208 0.16367 0.59049 0.0
H2961 H 0.36902 0.15519 0.57871 0.0
H2962 H 0.32413 0.13687 0.60582 0.0
H2963 H 0.3322 0.14905 0.61702 0.0
H2964 H 0.32108 0.153 0.60525 0.0
H2965 H 0.37939 0.13897 0.58604 0.0
H2966 H 0.3776 0.13861 0.60221 0.0
H2967 H 0.36885 0.12628 0.59156 0.0
H2968 H 0.36022 0.13072 0.63916 0.0
H2969 H 0.34033 0.10148 0.61247 0.0
H2970 H 0.35533 0.15638 0.6241 0.0
H2971 H 0.37043 0.15266 0.61869 0.0
H2972 H 0.36718 0.15128 0.63448 0.0
H2973 H 0.33067 0.12053 0.5912 0.0
H2974 H 0.33518 0.10496 0.59216 0.0
H2975 H 0.34612 0.11719 0.58638 0.0
C2976 C 0.06231 0.13961 0.83088 0.0
C2977 C 0.06258 0.1346 0.81863 0.0
C2978 C 0.07362 0.14167 0.83884 0.0
C2979 C 0.08554 0.13873 0.83446 0.0
C2980 C 0.08597 0.13391 0.82206 0.0
C2981 C 0.07448 0.13187 0.81429 0.0
C2982 C 0.07277 0.14685 0.85201 0.0
C2983 C 0.09852 0.13071 0.81705 0.0
C2984 C 0.11624 0.15398 0.85369 0.0
C2985 C 0.11883 0.14422 0.8607 0.0
C2986 C 0.10567 0.15221 0.84483 0.0
C2987 C 0.09746 0.14042 0.843 0.0
C2988 C 0.10023 0.13042 0.84981 0.0
C2989 C 0.1109 0.13244 0.85856 0.0
C2990 C 0.10311 0.16305 0.83766 0.0
C2991 C 0.09166 0.11774 0.84816 0.0
H2992 H 0.05322 0.14195 0.83424 0.0
H2993 H 0.07475 0.12787 0.80489 0.0
H2994 H 0.07566 0.13998 0.85822 0.0
H2995 H 0.07965 0.15575 0.85426 0.0
H2996 H 0.06279 0.14881 0.85393 0.0
H2997 H 0.09734 0.12759 0.80706 0.0
H2998 H 0.10621 0.13906 0.81873 0.0
H2999 H 0.10201 0.12303 0.82186 0.0
H3000 H 0.12244 0.16305 0.85522 0.0
H3001 H 0.11276 0.12491 0.86405 0.0
H3002 H 0.09365 0.16611 0.83993 0.0
H3003 H 0.10236 0.15994 0.82769 0.0
H3004 H 0.11087 0.17133 0.83963 0.0
H3005 H 0.08173 0.11892 0.85093 0.0
H3006 H 0.09555 0.11075 0.85368 0.0
H3007 H 0.09066 0.11383 0.83838 0.0
C3008 C 0.91425 0.36744 0.82807 0.0
C3009 C 0.92695 0.3657 0.83197 0.0
C3010 C 0.90384 0.3651 0.83552 0.0
C3011 C 0.90619 0.36104 0.84721 0.0
C3012 C 0.91892 0.35903 0.85112 0.0
C3013 C 0.92914 0.36134 0.84344 0.0
C3014 C 0.89038 0.3673 0.831 0.0
C3015 C 0.92181 0.35473 0.86354 0.0
C3016 C 0.88225 0.36865 0.87075 0.0
C3017 C 0.87417 0.35702 0.87045 0.0
C3018 C 0.89287 0.36999 0.86342 0.0
C3019 C 0.89542 0.35948 0.85554 0.0
C3020 C 0.88743 0.34765 0.85536 0.0
C3021 C 0.87692 0.34655 0.86287 0.0
C3022 C 0.90125 0.38273 0.86399 0.0
C3023 C 0.88979 0.33625 0.84701 0.0
H3024 H 0.91248 0.37098 0.81931 0.0
H3025 H 0.93887 0.35976 0.84645 0.0
H3026 H 0.88324 0.35872 0.83153 0.0
H3027 H 0.88723 0.37515 0.83694 0.0
H3028 H 0.89003 0.36973 0.8214 0.0
H3029 H 0.93213 0.35316 0.86503 0.0
H3030 H 0.91972 0.36194 0.87083 0.0
H3031 H 0.91539 0.3458 0.86456 0.0
H3032 H 0.88024 0.37672 0.87673 0.0
H3033 H 0.87062 0.33757 0.86256 0.0
H3034 H 0.90062 0.38641 0.85492 0.0
H3035 H 0.91163 0.38175 0.86618 0.0
H3036 H 0.89827 0.38981 0.87095 0.0
H3037 H 0.88852 0.33819 0.83732 0.0
H3038 H 0.88304 0.32761 0.84834 0.0
H3039 H 0.89997 0.33434 0.84865 0.0
C3040 C 0.85021 0.64423 0.095 0.0
C3041 C 0.85583 0.65669 0.09909 0.0
C3042 C 0.85012 0.63458 0.10278 0.0
C3043 C 0.85577 0.63748 0.11493 0.0
C3044 C 0.86165 0.64998 0.11904 0.0
C3045 C 0.86162 0.65943 0.11107 0.0
C3046 C 0.84374 0.62135 0.09807 0.0
C3047 C 0.86781 0.65343 0.13193 0.0
C3048 C 0.84388 0.61642 0.13895 0.0
C3049 C 0.8539 0.60892 0.14001 0.0
C3050 C 0.84435 0.6257 0.13078 0.0
C3051 C 0.85512 0.62754 0.12349 0.0
C3052 C 0.86528 0.62001 0.12452 0.0
C3053 C 0.86456 0.61079 0.13279 0.0
C3054 C 0.83336 0.63359 0.13 0.0
C3055 C 0.87689 0.62168 0.11687 0.0
H3056 H 0.8456 0.64207 0.0858 0.0
H3057 H 0.86617 0.66899 0.11423 0.0
H3058 H 0.8507 0.61448 0.0993 0.0
H3059 H 0.83528 0.61859 0.10344 0.0
H3060 H 0.8403 0.62054 0.08823 0.0
H3061 H 0.87229 0.66351 0.13359 0.0
H3062 H 0.86033 0.65167 0.13862 0.0
H3063 H 0.87543 0.64737 0.13374 0.0
H3064 H 0.83572 0.61515 0.14465 0.0
H3065 H 0.87226 0.60493 0.13349 0.0
H3066 H 0.8289 0.63256 0.12047 0.0
H3067 H 0.83721 0.64376 0.13243 0.0
H3068 H 0.82561 0.63086 0.13619 0.0
H3069 H 0.87359 0.62014 0.10699 0.0
H3070 H 0.88395 0.61504 0.11873 0.0
H3071 H 0.88202 0.63152 0.11871 0.0
C3072 C 0.56572 0.65208 0.33662 0.0
C3073 C 0.56625 0.64817 0.32413 0.0
C3074 C 0.57692 0.65366 0.34471 0.0
C3075 C 0.58899 0.65139 0.3402 0.0
C3076 C 0.58968 0.64769 0.32757 0.0
C3077 C 0.57829 0.64608 0.31969 0.0
C3078 C 0.57579 0.65762 0.35813 0.0
C3079 C 0.60239 0.64523 0.32241 0.0
C3080 C 0.6194 0.66564 0.36037 0.0
C3081 C 0.62224 0.65526 0.36635 0.0
C3082 C 0.60881 0.66445 0.35158 0.0
C3083 C 0.60082 0.6526 0.3488 0.0
C3084 C 0.6038 0.64202 0.35464 0.0
C3085 C 0.6145 0.64347 0.36332 0.0
C3086 C 0.60604 0.67591 0.34544 0.0
C3087 C 0.59545 0.62926 0.35199 0.0
H3088 H 0.55651 0.65394 0.3401 0.0
H3089 H 0.57877 0.64291 0.31008 0.0
H3090 H 0.57878 0.65025 0.3637 0.0
H3091 H 0.58247 0.66651 0.36112 0.0
H3092 H 0.56571 0.65914 0.36015 0.0
H3093 H 0.6014 0.64298 0.31229 0.0
H3094 H 0.60992 0.65364 0.32479 0.0
H3095 H 0.60599 0.6372 0.32654 0.0
H3096 H 0.62545 0.67474 0.36261 0.0
H3097 H 0.61657 0.63546 0.36803 0.0
H3098 H 0.59642 0.67846 0.34789 0.0
H3099 H 0.60551 0.67372 0.33534 0.0
H3100 H 0.61359 0.68425 0.34815 0.0
H3101 H 0.58543 0.63 0.35474 0.0
H3102 H 0.5994 0.62187 0.35693 0.0
H3103 H 0.59467 0.62616 0.34202 0.0
C3104 C 0.86414 0.38152 0.40995 0.0
C3105 C 0.86699 0.36929 0.40643 0.0
C3106 C 0.86339 0.39033 0.40139 0.0
C3107 C 0.86543 0.3868 0.38898 0.0
C3108 C 0.86839 0.37452 0.38536 0.0
C3109 C 0.86918 0.36594 0.39413 0.0
C3110 C 0.86024 0.40336 0.40558 0.0
C3111 C 0.8706 0.3704 0.3722 0.0
C3112 C 0.85078 0.40451 0.36458 0.0
C3113 C 0.86169 0.41263 0.36173 0.0
C3114 C 0.85186 0.3961 0.37346 0.0
C3115 C 0.86414 0.39584 0.37969 0.0
C3116 C 0.87519 0.40406 0.3769 0.0
C3117 C 0.87383 0.41233 0.3679 0.0
C3118 C 0.83988 0.3874 0.3761 0.0
C3119 C 0.88842 0.40411 0.38341 0.0
H3120 H 0.86229 0.38414 0.4194 0.0
H3121 H 0.87162 0.3566 0.39136 0.0
H3122 H 0.86792 0.41071 0.40307 0.0
H3123 H 0.8509 0.40485 0.40088 0.0
H3124 H 0.85941 0.40477 0.41563 0.0
H3125 H 0.87292 0.36055 0.37091 0.0
H3126 H 0.86176 0.37102 0.36622 0.0
H3127 H 0.87874 0.37684 0.36908 0.0
H3128 H 0.84141 0.40459 0.3597 0.0
H3129 H 0.88226 0.41868 0.36579 0.0
H3130 H 0.83806 0.38894 0.38594 0.0
H3131 H 0.84148 0.37738 0.37416 0.0
H3132 H 0.83103 0.38888 0.37054 0.0
H3133 H 0.88787 0.40622 0.39344 0.0
H3134 H 0.89599 0.4112 0.38029 0.0
H3135 H 0.89153 0.3946 0.38183 0.0
C3136 C 0.61895 0.62306 0.91168 0.0
C3137 C 0.61742 0.6347 0.9073 0.0
C3138 C 0.61888 0.61206 0.90356 0.0
C3139 C 0.61727 0.61273 0.89079 0.0
C3140 C 0.61593 0.62448 0.88632 0.0
C3141 C 0.61598 0.63529 0.89461 0.0
C3142 C 0.62034 0.5997 0.90865 0.0
C3143 C 0.61416 0.62559 0.87275 0.0
C3144 C 0.62654 0.58797 0.86701 0.0
C3145 C 0.61424 0.5816 0.86254 0.0
C3146 C 0.62778 0.59775 0.87667 0.0
C3147 C 0.61644 0.60114 0.882 0.0
C3148 C 0.6041 0.59418 0.87801 0.0
C3149 C 0.60314 0.58451 0.86831 0.0
C3150 C 0.64111 0.60494 0.88067 0.0
C3151 C 0.59179 0.59741 0.88352 0.0
H3152 H 0.62023 0.62256 0.92146 0.0
H3153 H 0.61457 0.64417 0.89115 0.0
H3154 H 0.61144 0.59278 0.906 0.0
H3155 H 0.62865 0.59559 0.90471 0.0
H3156 H 0.62196 0.60086 0.9188 0.0
H3157 H 0.61377 0.6355 0.87076 0.0
H3158 H 0.62229 0.622 0.86798 0.0
H3159 H 0.60499 0.61967 0.86882 0.0
H3160 H 0.63512 0.58578 0.86251 0.0
H3161 H 0.59364 0.57947 0.86495 0.0
H3162 H 0.64273 0.60599 0.8908 0.0
H3163 H 0.64176 0.61462 0.87774 0.0
H3164 H 0.64904 0.60022 0.87668 0.0
H3165 H 0.59299 0.59808 0.89366 0.0
H3166 H 0.58318 0.59028 0.88028 0.0
H3167 H 0.5898 0.60679 0.88101 0.0
C3168 C 0.81665 0.56555 0.87479 0.0
C3169 C 0.81887 0.55327 0.87059 0.0
C3170 C 0.82707 0.57528 0.87812 0.0
C3171 C 0.84003 0.57267 0.87731 0.0
C3172 C 0.84236 0.56034 0.873 0.0
C3173 C 0.83175 0.55079 0.86968 0.0
C3174 C 0.82419 0.58831 0.88269 0.0
C3175 C 0.85606 0.55722 0.87201 0.0
C3176 C 0.86624 0.60101 0.87699 0.0
C3177 C 0.87093 0.60315 0.88934 0.0
C3178 C 0.85638 0.59094 0.87287 0.0
C3179 C 0.85112 0.58282 0.88131 0.0
C3180 C 0.85607 0.58474 0.89372 0.0
C3181 C 0.8659 0.59489 0.89759 0.0
C3182 C 0.85132 0.58922 0.85958 0.0
C3183 C 0.85079 0.57623 0.90297 0.0
H3184 H 0.80675 0.5675 0.87571 0.0
H3185 H 0.83353 0.54137 0.86629 0.0
H3186 H 0.82833 0.59091 0.89227 0.0
H3187 H 0.82888 0.59546 0.87709 0.0
H3188 H 0.81355 0.58888 0.88239 0.0
H3189 H 0.85621 0.54723 0.86828 0.0
H3190 H 0.86141 0.56353 0.866 0.0
H3191 H 0.86144 0.55891 0.88117 0.0
H3192 H 0.87003 0.60743 0.87061 0.0
H3193 H 0.86964 0.59641 0.90711 0.0
H3194 H 0.84093 0.59071 0.85886 0.0
H3195 H 0.85177 0.5794 0.85553 0.0
H3196 H 0.85692 0.59591 0.85407 0.0
H3197 H 0.84031 0.57698 0.9039 0.0
H3198 H 0.85609 0.57866 0.91215 0.0
H3199 H 0.85148 0.5662 0.8998 0.0
C3200 C 0.11897 0.0429 0.62672 0.0
C3201 C 0.13244 0.04495 0.62536 0.0
C3202 C 0.1112 0.05249 0.62524 0.0
C3203 C 0.11699 0.06438 0.62216 0.0
C3204 C 0.13051 0.06646 0.62053 0.0
C3205 C 0.13809 0.05676 0.62222 0.0
C3206 C 0.09682 0.04993 0.62713 0.0
C3207 C 0.13702 0.079 0.61716 0.0
C3208 C 0.09431 0.08556 0.60896 0.0
C3209 C 0.09281 0.0939 0.61928 0.0
C3210 C 0.10235 0.07605 0.60969 0.0
C3211 C 0.10894 0.07477 0.62105 0.0
C3212 C 0.10759 0.08325 0.63146 0.0
C3213 C 0.09964 0.09275 0.63043 0.0
C3214 C 0.10365 0.06727 0.59836 0.0
C3215 C 0.11442 0.08216 0.64375 0.0
H3216 H 0.11446 0.03376 0.62892 0.0
H3217 H 0.14851 0.05852 0.62131 0.0
H3218 H 0.09439 0.05667 0.6347 0.0
H3219 H 0.09099 0.05146 0.61876 0.0
H3220 H 0.09379 0.04013 0.62937 0.0
H3221 H 0.1475 0.07888 0.61562 0.0
H3222 H 0.13199 0.08148 0.60873 0.0
H3223 H 0.13624 0.0866 0.62458 0.0
H3224 H 0.08898 0.08628 0.60034 0.0
H3225 H 0.09876 0.09931 0.63839 0.0
H3226 H 0.09971 0.05741 0.59978 0.0
H3227 H 0.11409 0.06737 0.59661 0.0
H3228 H 0.0984 0.0699 0.59011 0.0
H3229 H 0.11119 0.07273 0.64675 0.0
H3230 H 0.11244 0.08957 0.65093 0.0
H3231 H 0.12511 0.08295 0.64298 0.0
C3232 C 0.65106 0.4469 0.40368 0.0
C3233 C 0.65589 0.44833 0.39216 0.0
C3234 C 0.64145 0.43677 0.4053 0.0
C3235 C 0.6365 0.42792 0.39515 0.0
C3236 C 0.64155 0.42916 0.38357 0.0
C3237 C 0.6512 0.43933 0.38223 0.0
C3238 C 0.63639 0.4357 0.41781 0.0
C3239 C 0.63647 0.41996 0.37251 0.0
C3240 C 0.61765 0.3959 0.39951 0.0
C3241 C 0.60472 0.398 0.39711 0.0
C3242 C 0.6281 0.40564 0.39923 0.0
C3243 C 0.62556 0.41774 0.39644 0.0
C3244 C 0.61252 0.42001 0.39434 0.0
C3245 C 0.60227 0.41014 0.39475 0.0
C3246 C 0.64188 0.40289 0.40158 0.0
C3247 C 0.60939 0.43279 0.39135 0.0
H3248 H 0.65477 0.45374 0.41142 0.0
H3249 H 0.65478 0.44047 0.37328 0.0
H3250 H 0.62591 0.43688 0.41748 0.0
H3251 H 0.63716 0.42614 0.42063 0.0
H3252 H 0.64179 0.44291 0.4249 0.0
H3253 H 0.64184 0.42191 0.36429 0.0
H3254 H 0.63725 0.41012 0.37447 0.0
H3255 H 0.62599 0.42051 0.37035 0.0
H3256 H 0.61963 0.38652 0.40123 0.0
H3257 H 0.59229 0.41189 0.39311 0.0
H3258 H 0.64722 0.40998 0.40879 0.0
H3259 H 0.64716 0.40365 0.39314 0.0
H3260 H 0.64217 0.39327 0.40447 0.0
H3261 H 0.61383 0.44027 0.39865 0.0
H3262 H 0.59872 0.43311 0.39035 0.0
H3263 H 0.61365 0.4351 0.38268 0.0
C3264 C 0.35341 0.95975 0.13759 0.0
C3265 C 0.35214 0.96782 0.12842 0.0
C3266 C 0.36212 0.95079 0.13677 0.0
C3267 C 0.36974 0.94988 0.12654 0.0
C3268 C 0.36879 0.95824 0.11743 0.0
C3269 C 0.36 0.96712 0.11848 0.0
C3270 C 0.3629 0.94207 0.1467 0.0
C3271 C 0.37676 0.95754 0.10638 0.0
C3272 C 0.39892 0.93191 0.12848 0.0
C3273 C 0.39373 0.92006 0.1223 0.0
C3274 C 0.39126 0.94176 0.12988 0.0
C3275 C 0.37811 0.93967 0.12502 0.0
C3276 C 0.37284 0.92773 0.11878 0.0
C3277 C 0.3807 0.91808 0.11752 0.0
C3278 C 0.39722 0.95438 0.13655 0.0
C3279 C 0.35884 0.92512 0.11352 0.0
H3280 H 0.34753 0.96039 0.1454 0.0
H3281 H 0.35898 0.97325 0.11131 0.0
H3282 H 0.35957 0.93213 0.1428 0.0
H3283 H 0.37315 0.94256 0.15042 0.0
H3284 H 0.35682 0.94444 0.15437 0.0
H3285 H 0.37553 0.96526 0.10055 0.0
H3286 H 0.38726 0.95809 0.1093 0.0
H3287 H 0.3738 0.94832 0.10075 0.0
H3288 H 0.40902 0.93352 0.1321 0.0
H3289 H 0.37658 0.90888 0.11291 0.0
H3290 H 0.39166 0.95671 0.1446 0.0
H3291 H 0.39662 0.96197 0.13045 0.0
H3292 H 0.40759 0.95448 0.13975 0.0
H3293 H 0.35217 0.92638 0.12094 0.0
H3294 H 0.3563 0.91537 0.10879 0.0
H3295 H 0.35706 0.93197 0.1069 0.0
C3296 C 0.83587 0.47372 0.61687 0.0
C3297 C 0.83978 0.48595 0.62281 0.0
C3298 C 0.84461 0.46481 0.61593 0.0
C3299 C 0.85761 0.46821 0.62102 0.0
C3300 C 0.86169 0.4806 0.62686 0.0
C3301 C 0.85272 0.48933 0.62769 0.0
C3302 C 0.8399 0.45171 0.60958 0.0
C3303 C 0.87547 0.48456 0.6324 0.0
C3304 C 0.87533 0.44085 0.6286 0.0
C3305 C 0.88249 0.43909 0.61829 0.0
C3306 C 0.86749 0.45055 0.62978 0.0
C3307 C 0.86679 0.45867 0.62042 0.0
C3308 C 0.87431 0.45718 0.61017 0.0
C3309 C 0.88207 0.4474 0.60923 0.0
C3310 C 0.85959 0.45182 0.64084 0.0
C3311 C 0.87389 0.4657 0.60005 0.0
H3312 H 0.82594 0.47112 0.61291 0.0
H3313 H 0.85577 0.49872 0.63241 0.0
H3314 H 0.84599 0.4496 0.60187 0.0
H3315 H 0.84091 0.44453 0.61607 0.0
H3316 H 0.82954 0.45063 0.60596 0.0
H3317 H 0.87723 0.49468 0.63622 0.0
H3318 H 0.87749 0.47866 0.63984 0.0
H3319 H 0.88253 0.48299 0.62539 0.0
H3320 H 0.87551 0.43437 0.63557 0.0
H3321 H 0.88773 0.44617 0.60132 0.0
H3322 H 0.84904 0.44976 0.63791 0.0
H3323 H 0.86146 0.46167 0.64537 0.0
H3324 H 0.86185 0.44528 0.64765 0.0
H3325 H 0.86393 0.46434 0.59543 0.0
H3326 H 0.88091 0.46379 0.59307 0.0
H3327 H 0.87611 0.47578 0.6039 0.0
C3328 C 0.33284 0.0731 0.37177 0.0
C3329 C 0.33432 0.06065 0.36744 0.0
C3330 C 0.34369 0.08251 0.37436 0.0
C3331 C 0.35634 0.0794 0.37262 0.0
C3332 C 0.35792 0.0669 0.36812 0.0
C3333 C 0.34688 0.05767 0.36558 0.0
C3334 C 0.34161 0.09574 0.37917 0.0
C3335 C 0.37127 0.06325 0.36613 0.0
C3336 C 0.38283 0.10715 0.37079 0.0
C3337 C 0.38829 0.10927 0.3829 0.0
C3338 C 0.37268 0.0972 0.36719 0.0
C3339 C 0.36791 0.08919 0.37592 0.0
C3340 C 0.37371 0.09102 0.38805 0.0
C3341 C 0.38382 0.10104 0.39139 0.0
C3342 C 0.36672 0.09555 0.35418 0.0
C3343 C 0.36896 0.08263 0.3976 0.0
H3344 H 0.3232 0.07544 0.37341 0.0
H3345 H 0.34808 0.04811 0.36209 0.0
H3346 H 0.3465 0.09825 0.3885 0.0
H3347 H 0.34606 0.1027 0.37325 0.0
H3348 H 0.33111 0.09671 0.3796 0.0
H3349 H 0.3708 0.0532 0.36228 0.0
H3350 H 0.37632 0.0694 0.35982 0.0
H3351 H 0.37731 0.06472 0.37495 0.0
H3352 H 0.38619 0.11355 0.36422 0.0
H3353 H 0.38816 0.10254 0.40072 0.0
H3354 H 0.35649 0.09755 0.35411 0.0
H3355 H 0.36647 0.08562 0.3501 0.0
H3356 H 0.37217 0.10196 0.34829 0.0
H3357 H 0.35874 0.0838 0.39933 0.0
H3358 H 0.37501 0.08485 0.40641 0.0
H3359 H 0.36905 0.07253 0.39425 0.0
C3360 C 0.63937 0.55542 0.12814 0.0
C3361 C 0.63431 0.54508 0.13417 0.0
C3362 C 0.63194 0.56512 0.12597 0.0
C3363 C 0.61913 0.56445 0.12989 0.0
C3364 C 0.6139 0.55398 0.13585 0.0
C3365 C 0.62156 0.54444 0.13794 0.0
C3366 C 0.63784 0.57613 0.11958 0.0
C3367 C 0.60028 0.55295 0.14017 0.0
C3368 C 0.60404 0.59469 0.13565 0.0
C3369 C 0.59565 0.59415 0.12508 0.0
C3370 C 0.61187 0.58518 0.13724 0.0
C3371 C 0.61128 0.57486 0.12805 0.0
C3372 C 0.603 0.57435 0.11726 0.0
C3373 C 0.59529 0.58403 0.1159 0.0
C3374 C 0.62066 0.5861 0.14883 0.0
C3375 C 0.60208 0.56348 0.10728 0.0
H3376 H 0.64914 0.55589 0.12504 0.0
H3377 H 0.61764 0.53658 0.14274 0.0
H3378 H 0.63165 0.57697 0.11121 0.0
H3379 H 0.63822 0.58509 0.12566 0.0
H3380 H 0.64787 0.57513 0.11694 0.0
H3381 H 0.59752 0.544 0.14431 0.0
H3382 H 0.59954 0.56104 0.14708 0.0
H3383 H 0.59312 0.55341 0.1324 0.0
H3384 H 0.6045 0.60259 0.14269 0.0
H3385 H 0.58874 0.58352 0.10776 0.0
H3386 H 0.63091 0.58587 0.14654 0.0
H3387 H 0.61783 0.57784 0.15393 0.0
H3388 H 0.62021 0.5949 0.15495 0.0
H3389 H 0.6119 0.56252 0.1041 0.0
H3390 H 0.5955 0.56471 0.09929 0.0
H3391 H 0.59841 0.55448 0.11094 0.0
C3392 C 0.15557 0.94775 0.91703 0.0
C3393 C 0.16019 0.94866 0.90537 0.0
C3394 C 0.1453 0.93835 0.91894 0.0
C3395 C 0.13946 0.92975 0.90893 0.0
C3396 C 0.14427 0.93047 0.89719 0.0
C3397 C 0.1546 0.93989 0.89556 0.0
C3398 C 0.14053 0.93779 0.93162 0.0
C3399 C 0.13825 0.92152 0.88626 0.0
C3400 C 0.11846 0.89893 0.91354 0.0
C3401 C 0.10585 0.902 0.91139 0.0
C3402 C 0.12952 0.90799 0.91318 0.0
C3403 C 0.12791 0.92037 0.91052 0.0
C3404 C 0.1152 0.92364 0.90873 0.0
C3405 C 0.10434 0.91444 0.90924 0.0
C3406 C 0.14291 0.90418 0.91522 0.0
C3407 C 0.11308 0.93676 0.90589 0.0
H3408 H 0.15997 0.95443 0.92467 0.0
H3409 H 0.15803 0.94065 0.8865 0.0
H3410 H 0.13032 0.93984 0.93157 0.0
H3411 H 0.14055 0.92813 0.93443 0.0
H3412 H 0.14661 0.94468 0.93856 0.0
H3413 H 0.14347 0.92301 0.87786 0.0
H3414 H 0.13829 0.91156 0.88819 0.0
H3415 H 0.12792 0.92288 0.88441 0.0
H3416 H 0.11973 0.88931 0.91508 0.0
H3417 H 0.09462 0.91694 0.90779 0.0
H3418 H 0.1489 0.91101 0.92225 0.0
H3419 H 0.14797 0.90438 0.90661 0.0
H3420 H 0.14249 0.89452 0.9182 0.0
H3421 H 0.11826 0.94398 0.91307 0.0
H3422 H 0.10258 0.93792 0.90525 0.0
H3423 H 0.11719 0.93871 0.89707 0.0
C3424 C 0.90684 0.89858 0.60787 0.0
C3425 C 0.91985 0.89698 0.60621 0.0
C3426 C 0.90376 0.90814 0.61641 0.0
C3427 C 0.91393 0.91623 0.62352 0.0
C3428 C 0.9271 0.91505 0.62147 0.0
C3429 C 0.9299 0.90545 0.6128 0.0
C3430 C 0.8896 0.90918 0.61823 0.0
C3431 C 0.93821 0.92346 0.62891 0.0
C3432 C 0.90563 0.94539 0.6425 0.0
C3433 C 0.90418 0.94089 0.65398 0.0
C3434 C 0.9089 0.93753 0.63247 0.0
C3435 C 0.91078 0.92491 0.634 0.0
C3436 C 0.90938 0.92035 0.64556 0.0
C3437 C 0.90603 0.92836 0.65536 0.0
C3438 C 0.91028 0.94268 0.62025 0.0
C3439 C 0.91129 0.90695 0.64758 0.0
H3440 H 0.89906 0.89217 0.60264 0.0
H3441 H 0.93997 0.9042 0.61158 0.0
H3442 H 0.88719 0.90627 0.62733 0.0
H3443 H 0.88778 0.91913 0.61808 0.0
H3444 H 0.88292 0.9031 0.6111 0.0
H3445 H 0.94781 0.92227 0.6253 0.0
H3446 H 0.9368 0.93355 0.62905 0.0
H3447 H 0.93842 0.92114 0.63853 0.0
H3448 H 0.90432 0.9551 0.64139 0.0
H3449 H 0.90466 0.92472 0.66413 0.0
H3450 H 0.90322 0.93694 0.61323 0.0
H3451 H 0.92019 0.94196 0.61721 0.0
H3452 H 0.90858 0.95273 0.6206 0.0
H3453 H 0.90408 0.90013 0.64159 0.0
H3454 H 0.91021 0.905 0.65724 0.0
H3455 H 0.92114 0.90515 0.64508 0.0
C3456 C 0.94957 0.18173 0.31732 0.0
C3457 C 0.95648 0.17134 0.31572 0.0
C3458 C 0.94111 0.18279 0.32677 0.0
C3459 C 0.93952 0.17324 0.3348 0.0
C3460 C 0.94683 0.16299 0.33352 0.0
C3461 C 0.95519 0.16216 0.32399 0.0
C3462 C 0.93353 0.1939 0.32789 0.0
C3463 C 0.9454 0.15261 0.3419 0.0
C3464 C 0.92354 0.17813 0.36485 0.0
C3465 C 0.91101 0.17147 0.36175 0.0
C3466 C 0.93285 0.17914 0.35608 0.0
C3467 C 0.92951 0.17338 0.34396 0.0
C3468 C 0.91672 0.16707 0.34069 0.0
C3469 C 0.90764 0.16619 0.34962 0.0
C3470 C 0.94639 0.18596 0.35989 0.0
C3471 C 0.91274 0.16088 0.32784 0.0
H3472 H 0.95066 0.18896 0.31107 0.0
H3473 H 0.96036 0.15402 0.32274 0.0
H3474 H 0.92298 0.1905 0.32579 0.0
H3475 H 0.93473 0.19859 0.33742 0.0
H3476 H 0.93665 0.20102 0.32158 0.0
H3477 H 0.95247 0.1458 0.34026 0.0
H3478 H 0.94684 0.15673 0.35162 0.0
H3479 H 0.93538 0.14732 0.34048 0.0
H3480 H 0.9262 0.18216 0.37423 0.0
H3481 H 0.89789 0.16123 0.34715 0.0
H3482 H 0.94929 0.19307 0.35352 0.0
H3483 H 0.9535 0.17908 0.35942 0.0
H3484 H 0.94711 0.19081 0.36936 0.0
H3485 H 0.91475 0.16784 0.32112 0.0
H3486 H 0.90223 0.15691 0.32665 0.0
H3487 H 0.91857 0.1531 0.32563 0.0
C3488 C 0.63976 0.12437 0.10581 0.0
C3489 C 0.63859 0.13675 0.11068 0.0
C3490 C 0.64021 0.11463 0.11344 0.0
C3491 C 0.63949 0.11735 0.12622 0.0
C3492 C 0.63859 0.12987 0.13121 0.0
C3493 C 0.63811 0.13939 0.12339 0.0
C3494 C 0.64118 0.10138 0.10781 0.0
C3495 C 0.63779 0.13316 0.14479 0.0
C3496 C 0.62612 0.09293 0.14656 0.0
C3497 C 0.63748 0.09087 0.15314 0.0
C3498 C 0.6267 0.10094 0.13721 0.0
C3499 C 0.63896 0.10708 0.13443 0.0
C3500 C 0.65053 0.10442 0.14053 0.0
C3501 C 0.64965 0.0963 0.14982 0.0
C3502 C 0.61414 0.1034 0.13083 0.0
C3503 C 0.66377 0.11079 0.13782 0.0
H3504 H 0.6403 0.12229 0.09603 0.0
H3505 H 0.63697 0.14886 0.12722 0.0
H3506 H 0.64955 0.09774 0.11231 0.0
H3507 H 0.63224 0.09495 0.10931 0.0
H3508 H 0.64236 0.10097 0.09781 0.0
H3509 H 0.63779 0.14347 0.14727 0.0
H3510 H 0.62874 0.12798 0.1478 0.0
H3511 H 0.64614 0.13018 0.14998 0.0
H3512 H 0.61671 0.0886 0.14903 0.0
H3513 H 0.65845 0.09477 0.15495 0.0
H3514 H 0.61476 0.10243 0.12076 0.0
H3515 H 0.61247 0.11326 0.13363 0.0
H3516 H 0.60559 0.09685 0.13308 0.0
H3517 H 0.66474 0.11026 0.1278 0.0
H3518 H 0.67182 0.10649 0.14214 0.0
H3519 H 0.6649 0.12097 0.14136 0.0
C3520 C 0.54842 0.85202 0.83479 0.0
C3521 C 0.55183 0.85724 0.824 0.0
C3522 C 0.558 0.84943 0.84336 0.0
C3523 C 0.57133 0.85206 0.84107 0.0
C3524 C 0.57483 0.85692 0.83002 0.0
C3525 C 0.56504 0.85948 0.82163 0.0
C3526 C 0.55389 0.84424 0.85504 0.0
C3527 C 0.58894 0.85983 0.82723 0.0
C3528 C 0.59667 0.85961 0.868 0.0
C3529 C 0.602 0.84825 0.86805 0.0
C3530 C 0.58655 0.86088 0.85939 0.0
C3531 C 0.58165 0.85055 0.85058 0.0
C3532 C 0.58682 0.83897 0.85072 0.0
C3533 C 0.59692 0.83794 0.8595 0.0
C3534 C 0.58122 0.87334 0.85963 0.0
C3535 C 0.58189 0.82778 0.84143 0.0
H3536 H 0.53822 0.85005 0.83659 0.0
H3537 H 0.56779 0.86364 0.8134 0.0
H3538 H 0.55827 0.83552 0.85631 0.0
H3539 H 0.55751 0.85127 0.863 0.0
H3540 H 0.54312 0.84201 0.85511 0.0
H3541 H 0.58999 0.86268 0.81786 0.0
H3542 H 0.59397 0.86762 0.83393 0.0
H3543 H 0.59399 0.85144 0.82817 0.0
H3544 H 0.60045 0.86753 0.87472 0.0
H3545 H 0.60109 0.82918 0.85947 0.0
H3546 H 0.57053 0.87182 0.86051 0.0
H3547 H 0.58285 0.87747 0.85089 0.0
H3548 H 0.58585 0.88032 0.8673 0.0
H3549 H 0.57117 0.82531 0.84165 0.0
H3550 H 0.58658 0.8193 0.84307 0.0
H3551 H 0.58381 0.83027 0.83208 0.0
C3552 C 0.87937 0.13991 0.92855 0.0
C3553 C 0.86813 0.14486 0.93208 0.0
C3554 C 0.87895 0.13124 0.91804 0.0
C3555 C 0.86698 0.12737 0.91098 0.0
C3556 C 0.8556 0.13231 0.91452 0.0
C3557 C 0.85632 0.14103 0.925 0.0
C3558 C 0.8913 0.12625 0.91448 0.0
C3559 C 0.84263 0.12832 0.90729 0.0
C3560 C 0.86609 0.11347 0.87776 0.0
C3561 C 0.86274 0.10049 0.8787 0.0
C3562 C 0.86792 0.1223 0.88824 0.0
C3563 C 0.86626 0.11805 0.89991 0.0
C3564 C 0.86326 0.10494 0.90095 0.0
C3565 C 0.86159 0.09632 0.89034 0.0
C3566 C 0.87119 0.13621 0.88677 0.0
C3567 C 0.86143 0.10004 0.91324 0.0
H3568 H 0.88854 0.14296 0.93392 0.0
H3569 H 0.84758 0.14471 0.92779 0.0
H3570 H 0.89 0.11579 0.91428 0.0
H3571 H 0.89347 0.12854 0.90513 0.0
H3572 H 0.89984 0.13028 0.92091 0.0
H3573 H 0.83471 0.13307 0.91126 0.0
H3574 H 0.8434 0.13056 0.8977 0.0
H3575 H 0.83985 0.11792 0.90698 0.0
H3576 H 0.86685 0.11679 0.8688 0.0
H3577 H 0.85921 0.08628 0.89115 0.0
H3578 H 0.87991 0.14045 0.89285 0.0
H3579 H 0.86298 0.14126 0.88954 0.0
H3580 H 0.8731 0.13788 0.87719 0.0
H3581 H 0.87014 0.10347 0.91961 0.0
H3582 H 0.85969 0.08953 0.91254 0.0
H3583 H 0.85299 0.10374 0.91736 0.0
C3584 C 0.57873 0.15622 0.69018 0.0
C3585 C 0.56598 0.15722 0.68575 0.0
C3586 C 0.58935 0.15881 0.68302 0.0
C3587 C 0.58716 0.16239 0.6711 0.0
C3588 C 0.57435 0.16353 0.66661 0.0
C3589 C 0.56393 0.16099 0.67401 0.0
C3590 C 0.60289 0.15755 0.68814 0.0
C3591 C 0.57162 0.16732 0.65395 0.0
C3592 C 0.61503 0.17929 0.65533 0.0
C3593 C 0.61847 0.16936 0.64745 0.0
C3594 C 0.60502 0.17712 0.66326 0.0
C3595 C 0.59822 0.16474 0.66321 0.0
C3596 C 0.60174 0.15466 0.65535 0.0
C3597 C 0.61186 0.15708 0.6476 0.0
C3598 C 0.60165 0.18809 0.6716 0.0
C3599 C 0.59464 0.14135 0.65496 0.0
H3600 H 0.58039 0.15315 0.69917 0.0
H3601 H 0.55416 0.16201 0.67059 0.0
H3602 H 0.60688 0.15005 0.68243 0.0
H3603 H 0.60951 0.16653 0.68784 0.0
H3604 H 0.60301 0.15515 0.69774 0.0
H3605 H 0.5611 0.16782 0.65184 0.0
H3606 H 0.57725 0.1767 0.65304 0.0
H3607 H 0.57483 0.1604 0.64698 0.0
H3608 H 0.62023 0.18877 0.65533 0.0
H3609 H 0.6144 0.14941 0.64142 0.0
H3610 H 0.60233 0.18594 0.68126 0.0
H3611 H 0.59143 0.18957 0.66934 0.0
H3612 H 0.60817 0.19704 0.67082 0.0
H3613 H 0.59508 0.13811 0.66423 0.0
H3614 H 0.59879 0.13451 0.64856 0.0
H3615 H 0.58419 0.14119 0.65204 0.0
C3616 C 0.63066 0.84252 0.40654 0.0
C3617 C 0.63487 0.84462 0.41902 0.0
C3618 C 0.63145 0.8525 0.39914 0.0
C3619 C 0.63652 0.86492 0.40435 0.0
C3620 C 0.6407 0.86714 0.41695 0.0
C3621 C 0.63984 0.85696 0.42414 0.0
C3622 C 0.62687 0.84974 0.38574 0.0
C3623 C 0.64615 0.88027 0.42282 0.0
C3624 C 0.64913 0.88787 0.38212 0.0
C3625 C 0.6384 0.89431 0.38019 0.0
C3626 C 0.64878 0.8785 0.39021 0.0
C3627 C 0.63745 0.87553 0.39654 0.0
C3628 C 0.62674 0.88228 0.3949 0.0
C3629 C 0.62733 0.89157 0.38673 0.0
C3630 C 0.66038 0.87147 0.39167 0.0
C3631 C 0.61453 0.87946 0.40157 0.0
H3632 H 0.6266 0.83305 0.40255 0.0
H3633 H 0.64326 0.85864 0.43373 0.0
H3634 H 0.61892 0.85533 0.38359 0.0
H3635 H 0.63498 0.85265 0.38001 0.0
H3636 H 0.62325 0.83955 0.38309 0.0
H3637 H 0.64876 0.88045 0.43279 0.0
H3638 H 0.65498 0.8839 0.41833 0.0
H3639 H 0.63891 0.88686 0.42153 0.0
H3640 H 0.65765 0.88987 0.377 0.0
H3641 H 0.61908 0.89664 0.38537 0.0
H3642 H 0.65753 0.86134 0.38819 0.0
H3643 H 0.66366 0.87186 0.40149 0.0
H3644 H 0.66872 0.87541 0.38664 0.0
H3645 H 0.60981 0.86963 0.39862 0.0
H3646 H 0.60737 0.88604 0.39981 0.0
H3647 H 0.61702 0.88013 0.41158 0.0
C3648 C 0.95428 0.8786 0.17464 0.0
C3649 C 0.95448 0.88408 0.18678 0.0
C3650 C 0.94254 0.8756 0.16727 0.0
C3651 C 0.93072 0.87811 0.17217 0.0
C3652 C 0.93082 0.88347 0.18447 0.0
C3653 C 0.94269 0.88642 0.19161 0.0
C3654 C 0.94281 0.86987 0.15419 0.0
C3655 C 0.9184 0.88629 0.19004 0.0
C3656 C 0.90201 0.88265 0.15083 0.0
C3657 C 0.89402 0.87096 0.15048 0.0
C3658 C 0.91408 0.88501 0.15768 0.0
C3659 C 0.91825 0.87547 0.16437 0.0
C3660 C 0.91032 0.86357 0.16391 0.0
C3661 C 0.8983 0.86146 0.15695 0.0
C3662 C 0.9223 0.89779 0.15787 0.0
C3663 C 0.91442 0.85318 0.17097 0.0
H3664 H 0.96332 0.87661 0.17089 0.0
H3665 H 0.94277 0.89082 0.20092 0.0
H3666 H 0.93628 0.86069 0.15264 0.0
H3667 H 0.9391 0.8762 0.14783 0.0
H3668 H 0.95278 0.86827 0.15184 0.0
H3669 H 0.92009 0.89004 0.19986 0.0
H3670 H 0.91402 0.89334 0.18499 0.0
H3671 H 0.91118 0.87757 0.1892 0.0
H3672 H 0.89882 0.88996 0.1457 0.0
H3673 H 0.8921 0.85245 0.1568 0.0
H3674 H 0.93213 0.89659 0.15485 0.0
H3675 H 0.92366 0.90258 0.16736 0.0
H3676 H 0.91784 0.90405 0.15187 0.0
H3677 H 0.92416 0.85107 0.16846 0.0
H3678 H 0.90738 0.84431 0.16926 0.0
H3679 H 0.91526 0.85636 0.18093 0.0
C3680 C 0.08292 0.64738 0.19471 0.0
C3681 C 0.07017 0.64894 0.19074 0.0
C3682 C 0.09324 0.64931 0.18707 0.0
C3683 C 0.09074 0.65278 0.17516 0.0
C3684 C 0.07795 0.65453 0.17116 0.0
C3685 C 0.06785 0.65265 0.17901 0.0
C3686 C 0.10678 0.64743 0.19167 0.0
C3687 C 0.07489 0.65823 0.15852 0.0
C3688 C 0.11809 0.66795 0.15762 0.0
C3689 C 0.12043 0.65767 0.14954 0.0
C3690 C 0.10871 0.66643 0.16625 0.0
C3691 C 0.10142 0.65436 0.16673 0.0
C3692 C 0.10393 0.64389 0.15876 0.0
C3693 C 0.11345 0.64566 0.15029 0.0
C3694 C 0.10641 0.67779 0.17469 0.0
C3695 C 0.09629 0.63089 0.15893 0.0
H3696 H 0.08479 0.64438 0.20369 0.0
H3697 H 0.05808 0.6541 0.17596 0.0
H3698 H 0.11007 0.63953 0.18592 0.0
H3699 H 0.11377 0.65606 0.19093 0.0
H3700 H 0.1072 0.64528 0.20135 0.0
H3701 H 0.06445 0.65929 0.15684 0.0
H3702 H 0.08092 0.66731 0.15726 0.0
H3703 H 0.07737 0.65095 0.15148 0.0
H3704 H 0.12359 0.67722 0.15716 0.0
H3705 H 0.11514 0.63772 0.14397 0.0
H3706 H 0.10732 0.67572 0.18437 0.0
H3707 H 0.09635 0.67991 0.17281 0.0
H3708 H 0.11338 0.68636 0.17361 0.0
H3709 H 0.09696 0.6279 0.1683 0.0
H3710 H 0.09981 0.62364 0.1525 0.0
H3711 H 0.08583 0.63116 0.15638 0.0
C3712 C 0.11543 0.34661 0.90418 0.0
C3713 C 0.12522 0.33876 0.90422 0.0
C3714 C 0.11595 0.35665 0.89685 0.0
C3715 C 0.12652 0.3589 0.88939 0.0
C3716 C 0.13655 0.35114 0.88955 0.0
C3717 C 0.13577 0.34116 0.89695 0.0
C3718 C 0.10505 0.3647 0.89688 0.0
C3719 C 0.14801 0.35329 0.88177 0.0
C3720 C 0.12151 0.3759 0.86116 0.0
C3721 C 0.12762 0.38822 0.86514 0.0
C3722 C 0.12103 0.3663 0.86899 0.0
C3723 C 0.12685 0.36907 0.88108 0.0
C3724 C 0.13306 0.38148 0.88516 0.0
C3725 C 0.13336 0.39092 0.87714 0.0
C3726 C 0.11435 0.35317 0.86429 0.0
C3727 C 0.13937 0.38478 0.898 0.0
H3728 H 0.10719 0.34472 0.90968 0.0
H3729 H 0.14347 0.33524 0.89709 0.0
H3730 H 0.10907 0.37484 0.89915 0.0
H3731 H 0.09994 0.36369 0.88762 0.0
H3732 H 0.09779 0.36203 0.90356 0.0
H3733 H 0.15519 0.34666 0.88323 0.0
H3734 H 0.14454 0.35205 0.87194 0.0
H3735 H 0.15304 0.36314 0.88388 0.0
H3736 H 0.11724 0.37369 0.85184 0.0
H3737 H 0.13798 0.40046 0.8803 0.0
H3738 H 0.10642 0.35019 0.87019 0.0
H3739 H 0.12142 0.34628 0.86469 0.0
H3740 H 0.11013 0.35263 0.8547 0.0
H3741 H 0.13202 0.38286 0.90477 0.0
H3742 H 0.14381 0.39487 0.89975 0.0
H3743 H 0.14706 0.37873 0.89959 0.0
C3744 C 0.44388 0.38653 0.66034 0.0
C3745 C 0.44453 0.38938 0.67311 0.0
C3746 C 0.43183 0.38338 0.6535 0.0
C3747 C 0.42014 0.38302 0.65957 0.0
C3748 C 0.42071 0.3857 0.67247 0.0
C3749 C 0.43289 0.38889 0.67908 0.0
C3750 C 0.4316 0.38056 0.63976 0.0
C3751 C 0.40846 0.3854 0.67928 0.0
C3752 C 0.38902 0.38728 0.64146 0.0
C3753 C 0.38283 0.37476 0.63892 0.0
C3754 C 0.40118 0.39009 0.64813 0.0
C3755 C 0.40728 0.38013 0.65241 0.0
C3756 C 0.40108 0.36746 0.6499 0.0
C3757 C 0.38894 0.36492 0.64315 0.0
C3758 C 0.40752 0.40371 0.65056 0.0
C3759 C 0.40725 0.35661 0.65439 0.0
H3760 H 0.45282 0.38671 0.65569 0.0
H3761 H 0.43328 0.39126 0.68891 0.0
H3762 H 0.42626 0.37097 0.63683 0.0
H3763 H 0.42633 0.38741 0.63524 0.0
H3764 H 0.44156 0.38108 0.63645 0.0
H3765 H 0.41059 0.38727 0.68936 0.0
H3766 H 0.4026 0.39261 0.67622 0.0
H3767 H 0.40235 0.37603 0.67717 0.0
H3768 H 0.38441 0.3949 0.63806 0.0
H3769 H 0.38413 0.35524 0.6413 0.0
H3770 H 0.41718 0.40481 0.64665 0.0
H3771 H 0.40921 0.40648 0.66057 0.0
H3772 H 0.4015 0.41034 0.64657 0.0
H3773 H 0.41697 0.35639 0.65073 0.0
H3774 H 0.40118 0.3473 0.65161 0.0
H3775 H 0.40877 0.35796 0.66452 0.0
C3776 C 0.11062 0.63178 0.62374 0.0
C3777 C 0.12173 0.6384 0.61944 0.0
C3778 C 0.11175 0.62285 0.63212 0.0
C3779 C 0.12428 0.62041 0.6362 0.0
C3780 C 0.1355 0.62663 0.63144 0.0
C3781 C 0.1341 0.63563 0.62318 0.0
C3782 C 0.09955 0.61653 0.63708 0.0
C3783 C 0.14901 0.62411 0.63541 0.0
C3784 C 0.12676 0.61005 0.66809 0.0
C3785 C 0.12555 0.59683 0.66565 0.0
C3786 C 0.1267 0.61783 0.65858 0.0
C3787 C 0.12562 0.61228 0.64628 0.0
C3788 C 0.12505 0.59899 0.64373 0.0
C3789 C 0.12497 0.5914 0.65346 0.0
C3790 C 0.12732 0.63196 0.6617 0.0
C3791 C 0.12407 0.59276 0.63072 0.0
H3792 H 0.10105 0.63398 0.62096 0.0
H3793 H 0.14269 0.64064 0.61975 0.0
H3794 H 0.09932 0.60609 0.63608 0.0
H3795 H 0.09953 0.61964 0.647 0.0
H3796 H 0.09052 0.61881 0.63236 0.0
H3797 H 0.15658 0.62865 0.62988 0.0
H3798 H 0.1514 0.62782 0.64518 0.0
H3799 H 0.14943 0.61377 0.63465 0.0
H3800 H 0.12752 0.61434 0.6775 0.0
H3801 H 0.12398 0.58119 0.6515 0.0
H3802 H 0.11819 0.63507 0.65808 0.0
H3803 H 0.13551 0.63707 0.65731 0.0
H3804 H 0.1286 0.6348 0.67173 0.0
H3805 H 0.11447 0.59369 0.62616 0.0
H3806 H 0.12509 0.58254 0.63031 0.0
H3807 H 0.1317 0.59755 0.62543 0.0
C3808 C 0.39843 0.38154 0.08965 0.0
C3809 C 0.41122 0.37868 0.08934 0.0
C3810 C 0.39521 0.39082 0.09844 0.0
C3811 C 0.40505 0.39743 0.10706 0.0
C3812 C 0.41809 0.39496 0.10644 0.0
C3813 C 0.421 0.38558 0.09761 0.0
C3814 C 0.38119 0.39313 0.09886 0.0
C3815 C 0.42888 0.40191 0.11539 0.0
C3816 C 0.39902 0.42732 0.12633 0.0
C3817 C 0.39629 0.42263 0.1375 0.0
C3818 C 0.40173 0.41921 0.11624 0.0
C3819 C 0.40156 0.40613 0.11736 0.0
C3820 C 0.39845 0.40133 0.12854 0.0
C3821 C 0.39589 0.40964 0.13847 0.0
C3822 C 0.40509 0.42467 0.10449 0.0
C3823 C 0.39803 0.38742 0.13008 0.0
H3824 H 0.39081 0.37615 0.08333 0.0
H3825 H 0.43094 0.3835 0.09729 0.0
H3826 H 0.37723 0.38992 0.10737 0.0
H3827 H 0.38053 0.40339 0.09908 0.0
H3828 H 0.37493 0.38802 0.09088 0.0
H3829 H 0.43864 0.39965 0.11303 0.0
H3830 H 0.42891 0.41229 0.11564 0.0
H3831 H 0.42718 0.39931 0.12474 0.0
H3832 H 0.39941 0.43737 0.12559 0.0
H3833 H 0.39359 0.40598 0.14705 0.0
H3834 H 0.3986 0.41956 0.09669 0.0
H3835 H 0.41524 0.42339 0.10256 0.0
H3836 H 0.4042 0.43492 0.10492 0.0
H3837 H 0.39119 0.38164 0.12291 0.0
H3838 H 0.39494 0.38515 0.1392 0.0
H3839 H 0.40782 0.38456 0.12893 0.0
C3840 C 0.55411 0.363 0.20228 0.0
C3841 C 0.54112 0.35895 0.19784 0.0
C3842 C 0.56448 0.3606 0.19516 0.0
C3843 C 0.56181 0.354 0.1833 0.0
C3844 C 0.54874 0.34959 0.17887 0.0
C3845 C 0.53854 0.35214 0.1862 0.0
C3846 C 0.57829 0.3655 0.20019 0.0
C3847 C 0.54552 0.34245 0.1663 0.0
C3848 C 0.58761 0.36066 0.16082 0.0
C3849 C 0.59445 0.35025 0.16135 0.0
C3850 C 0.5768 0.36183 0.16772 0.0
C3851 C 0.57268 0.35235 0.17531 0.0
C3852 C 0.5793 0.34163 0.17562 0.0
C3853 C 0.59012 0.34071 0.16863 0.0
C3854 C 0.56998 0.37338 0.16709 0.0
C3855 C 0.57517 0.33133 0.18359 0.0
H3856 H 0.55618 0.36841 0.2112 0.0
H3857 H 0.52853 0.34885 0.18278 0.0
H3858 H 0.58432 0.35768 0.19976 0.0
H3859 H 0.58272 0.3727 0.1945 0.0
H3860 H 0.57875 0.36986 0.20982 0.0
H3861 H 0.53491 0.33905 0.1645 0.0
H3862 H 0.54865 0.34868 0.15922 0.0
H3863 H 0.55092 0.33419 0.16528 0.0
H3864 H 0.59078 0.36794 0.15503 0.0
H3865 H 0.59542 0.33269 0.16914 0.0
H3866 H 0.57081 0.37891 0.17625 0.0
H3867 H 0.55943 0.37048 0.16447 0.0
H3868 H 0.57411 0.37967 0.1604 0.0
H3869 H 0.57659 0.33523 0.19338 0.0
H3870 H 0.58081 0.32324 0.18222 0.0
H3871 H 0.56464 0.32774 0.18163 0.0
C3872 C 0.9654 0.68839 0.70348 0.0
C3873 C 0.95785 0.68357 0.7126 0.0
C3874 C 0.9595 0.69115 0.69241 0.0
C3875 C 0.94574 0.68901 0.69043 0.0
C3876 C 0.93807 0.68457 0.69977 0.0
C3877 C 0.94421 0.68189 0.71072 0.0
C3878 C 0.96801 0.69594 0.6827 0.0
C3879 C 0.92336 0.68214 0.698 0.0
C3880 C 0.92758 0.70254 0.66484 0.0
C3881 C 0.92462 0.69188 0.65617 0.0
C3882 C 0.93488 0.70192 0.6759 0.0
C3883 C 0.93933 0.69039 0.67826 0.0
C3884 C 0.93685 0.67979 0.66928 0.0
C3885 C 0.92955 0.68067 0.65835 0.0
C3886 C 0.93736 0.71342 0.68524 0.0
C3887 C 0.9415 0.66735 0.6714 0.0
H3888 H 0.97594 0.68988 0.70494 0.0
H3889 H 0.9383 0.67801 0.71763 0.0
H3890 H 0.96709 0.68868 0.67466 0.0
H3891 H 0.96475 0.70459 0.67948 0.0
H3892 H 0.97845 0.69815 0.68605 0.0
H3893 H 0.91879 0.67956 0.70646 0.0
H3894 H 0.91951 0.69065 0.69511 0.0
H3895 H 0.92033 0.67429 0.69061 0.0
H3896 H 0.92375 0.7112 0.6632 0.0
H3897 H 0.92748 0.67248 0.65156 0.0
H3898 H 0.94785 0.71542 0.68842 0.0
H3899 H 0.93183 0.71157 0.69336 0.0
H3900 H 0.93439 0.72198 0.68154 0.0
H3901 H 0.95214 0.66883 0.67393 0.0
H3902 H 0.93945 0.66027 0.6632 0.0
H3903 H 0.93659 0.66336 0.67915 0.0
C3904 C 0.62639 0.38618 0.58507 0.0
C3905 C 0.62369 0.37388 0.58853 0.0
C3906 C 0.62902 0.39675 0.59388 0.0
C3907 C 0.62905 0.39499 0.60647 0.0
C3908 C 0.62656 0.38261 0.61004 0.0
C3909 C 0.62388 0.3722 0.60103 0.0
C3910 C 0.63163 0.40981 0.58972 0.0
C3911 C 0.62652 0.38036 0.62339 0.0
C3912 C 0.64598 0.42161 0.62971 0.0
C3913 C 0.63537 0.42726 0.63385 0.0
C3914 C 0.64408 0.41108 0.6208 0.0
C3915 C 0.63128 0.40615 0.61589 0.0
C3916 C 0.62055 0.4119 0.61997 0.0
C3917 C 0.62273 0.42237 0.62891 0.0
C3918 C 0.65574 0.40515 0.61672 0.0
C3919 C 0.60677 0.40699 0.61488 0.0
H3920 H 0.62648 0.38754 0.57544 0.0
H3921 H 0.62166 0.36275 0.60378 0.0
H3922 H 0.62417 0.41561 0.59302 0.0
H3923 H 0.64127 0.41468 0.59373 0.0
H3924 H 0.63148 0.40954 0.57959 0.0
H3925 H 0.62494 0.37012 0.62465 0.0
H3926 H 0.63592 0.38473 0.62833 0.0
H3927 H 0.61869 0.38495 0.62771 0.0
H3928 H 0.65575 0.42529 0.63359 0.0
H3929 H 0.61452 0.42682 0.63198 0.0
H3930 H 0.65629 0.40521 0.60669 0.0
H3931 H 0.65469 0.3951 0.61865 0.0
H3932 H 0.66505 0.41016 0.62138 0.0
H3933 H 0.60598 0.40729 0.60481 0.0
H3934 H 0.59952 0.41257 0.619 0.0
H3935 H 0.60422 0.39696 0.6166 0.0
C3936 C 0.42932 0.65091 0.8054 0.0
C3937 C 0.44281 0.65491 0.80686 0.0
C3938 C 0.4216 0.65139 0.81544 0.0
C3939 C 0.42749 0.65601 0.82724 0.0
C3940 C 0.44106 0.66028 0.82876 0.0
C3941 C 0.44858 0.65965 0.81855 0.0
C3942 C 0.40716 0.64669 0.81346 0.0
C3943 C 0.44767 0.66533 0.84119 0.0
C3944 C 0.40447 0.6655 0.85106 0.0
C3945 C 0.4024 0.65454 0.85709 0.0
C3946 C 0.41295 0.66629 0.84157 0.0
C3947 C 0.41946 0.65585 0.83802 0.0
C3948 C 0.41772 0.64492 0.84433 0.0
C3949 C 0.40923 0.64441 0.8538 0.0
C3950 C 0.41459 0.67812 0.83507 0.0
C3951 C 0.42452 0.63361 0.84085 0.0
H3952 H 0.42484 0.64706 0.79644 0.0
H3953 H 0.45898 0.66289 0.8197 0.0
H3954 H 0.40469 0.63843 0.81865 0.0
H3955 H 0.40148 0.65417 0.81697 0.0
H3956 H 0.40401 0.64382 0.80364 0.0
H3957 H 0.45821 0.66876 0.84075 0.0
H3958 H 0.44287 0.67324 0.84528 0.0
H3959 H 0.44667 0.6578 0.84745 0.0
H3960 H 0.39915 0.67332 0.8535 0.0
H3961 H 0.40785 0.63601 0.85859 0.0
H3962 H 0.41049 0.67586 0.82544 0.0
H3963 H 0.4251 0.68174 0.83482 0.0
H3964 H 0.40964 0.68574 0.83953 0.0
H3965 H 0.42118 0.62953 0.83135 0.0
H3966 H 0.42261 0.62609 0.84705 0.0
H3967 H 0.43521 0.63656 0.84106 0.0
C3968 C 0.04333 0.33924 0.31061 0.0
C3969 C 0.03984 0.35149 0.31138 0.0
C3970 C 0.05347 0.33632 0.31841 0.0
C3971 C 0.06036 0.34592 0.32706 0.0
C3972 C 0.05684 0.35828 0.32788 0.0
C3973 C 0.0466 0.3609 0.32007 0.0
C3974 C 0.05687 0.32301 0.31737 0.0
C3975 C 0.06403 0.36883 0.33688 0.0
C3976 C 0.08037 0.33927 0.35511 0.0
C3977 C 0.09312 0.34195 0.35152 0.0
C3978 C 0.06954 0.33984 0.347 0.0
C3979 C 0.07152 0.34327 0.33507 0.0
C3980 C 0.08433 0.34533 0.33119 0.0
C3981 C 0.09496 0.34457 0.33944 0.0
C3982 C 0.05601 0.33744 0.35143 0.0
C3983 C 0.08687 0.349 0.31854 0.0
H3984 H 0.03805 0.33192 0.30397 0.0
H3985 H 0.04406 0.37042 0.32058 0.0
H3986 H 0.06706 0.32307 0.31479 0.0
H3987 H 0.05628 0.31917 0.32636 0.0
H3988 H 0.0503 0.31654 0.31045 0.0
H3989 H 0.05997 0.37787 0.33647 0.0
H3990 H 0.06357 0.36613 0.34635 0.0
H3991 H 0.07448 0.37043 0.33498 0.0
H3992 H 0.07885 0.33731 0.36445 0.0
H3993 H 0.10478 0.34641 0.33652 0.0
H3994 H 0.04946 0.33086 0.34461 0.0
H3995 H 0.05186 0.34647 0.35253 0.0
H3996 H 0.05602 0.3334 0.36036 0.0
H3997 H 0.08085 0.34227 0.31147 0.0
H3998 H 0.0973 0.34925 0.31661 0.0
H3999 H 0.08405 0.35853 0.31766 0.0
C4000 C 0.36646 0.63931 0.41954 0.0
C4001 C 0.35578 0.64551 0.42243 0.0
C4002 C 0.36625 0.63148 0.40849 0.0
C4003 C 0.35506 0.62977 0.40018 0.0
C4004 C 0.34427 0.63607 0.40302 0.0
C4005 C 0.34477 0.64389 0.4141 0.0
C4006 C 0.37797 0.62499 0.40575 0.0
C4007 C 0.33212 0.63441 0.39443 0.0
C4008 C 0.35777 0.61754 0.36691 0.0
C4009 C 0.35281 0.60468 0.36675 0.0
C4010 C 0.35867 0.62581 0.37775 0.0
C4011 C 0.35447 0.62111 0.38867 0.0
C4012 C 0.34956 0.60813 0.38859 0.0
C4013 C 0.34884 0.60007 0.37765 0.0
C4014 C 0.36399 0.6396 0.3775 0.0
C4015 C 0.34499 0.60275 0.40004 0.0
H4016 H 0.37506 0.64067 0.42587 0.0
H4017 H 0.33643 0.64855 0.41636 0.0
H4018 H 0.37514 0.61456 0.40476 0.0
H4019 H 0.38166 0.62756 0.39693 0.0
H4020 H 0.38603 0.62754 0.41304 0.0
H4021 H 0.32471 0.64021 0.39786 0.0
H4022 H 0.33464 0.63709 0.38528 0.0
H4023 H 0.32771 0.62431 0.39319 0.0
H4024 H 0.36073 0.62119 0.3585 0.0
H4025 H 0.34522 0.5901 0.37765 0.0
H4026 H 0.37241 0.64237 0.38436 0.0
H4027 H 0.35642 0.6456 0.38003 0.0
H4028 H 0.36717 0.64168 0.36835 0.0
H4029 H 0.35308 0.60436 0.40732 0.0
H4030 H 0.34144 0.59244 0.39843 0.0
H4031 H 0.33699 0.60769 0.40354 0.0
C4032 C 0.10198 0.34238 0.02322 0.0
C4033 C 0.10172 0.32932 0.02011 0.0
C4034 C 0.10003 0.34728 0.03516 0.0
C4035 C 0.09761 0.33893 0.04423 0.0
C4036 C 0.09665 0.32569 0.04103 0.0
C4037 C 0.09876 0.32104 0.02901 0.0
C4038 C 0.10114 0.36147 0.03817 0.0
C4039 C 0.09394 0.31649 0.05042 0.0
C4040 C 0.10946 0.35393 0.07619 0.0
C4041 C 0.09808 0.35786 0.08064 0.0
C4042 C 0.10929 0.34723 0.06458 0.0
C4043 C 0.09741 0.34424 0.05724 0.0
C4044 C 0.08572 0.34747 0.06196 0.0
C4045 C 0.08619 0.35428 0.07363 0.0
C4046 C 0.12199 0.34396 0.05993 0.0
C4047 C 0.07284 0.34429 0.05446 0.0
H4048 H 0.10393 0.34882 0.01633 0.0
H4049 H 0.09856 0.31094 0.0267 0.0
H4050 H 0.09238 0.36399 0.04263 0.0
H4051 H 0.10971 0.36484 0.04475 0.0
H4052 H 0.10226 0.36661 0.02991 0.0
H4053 H 0.09183 0.30652 0.04616 0.0
H4054 H 0.10254 0.31732 0.05709 0.0
H4055 H 0.08555 0.31874 0.05564 0.0
H4056 H 0.11863 0.35643 0.0817 0.0
H4057 H 0.07737 0.35728 0.07702 0.0
H4058 H 0.12449 0.34941 0.0521 0.0
H4059 H 0.121 0.33376 0.05654 0.0
H4060 H 0.13019 0.34615 0.0671 0.0
H4061 H 0.07275 0.35033 0.04683 0.0
H4062 H 0.06447 0.34585 0.06002 0.0
H4063 H 0.07146 0.33428 0.05035 0.0
C4064 C 0.96807 0.8957 0.31 0.0
C4065 C 0.98084 0.89889 0.30664 0.0
C4066 C 0.96509 0.89719 0.32227 0.0
C4067 C 0.97516 0.90182 0.33149 0.0
C4068 C 0.98819 0.90439 0.32826 0.0
C4069 C 0.99088 0.90296 0.31586 0.0
C4070 C 0.95104 0.89436 0.32531 0.0
C4071 C 0.99921 0.90915 0.33785 0.0
C4072 C 0.96353 0.91972 0.35921 0.0
C4073 C 0.96159 0.9103 0.36719 0.0
C4074 C 0.96846 0.91721 0.34777 0.0
C4075 C 0.97174 0.90503 0.34426 0.0
C4076 C 0.97058 0.8957 0.35257 0.0
C4077 C 0.96545 0.89843 0.36393 0.0
C4078 C 0.96953 0.92743 0.33919 0.0
C4079 C 0.97417 0.88267 0.34922 0.0
H4080 H 0.96031 0.89224 0.30297 0.0
H4081 H 1.00077 0.9055 0.31336 0.0
H4082 H 0.95018 0.88772 0.33244 0.0
H4083 H 0.94761 0.90323 0.32909 0.0
H4084 H 0.94449 0.89018 0.31717 0.0
H4085 H 1.00892 0.90912 0.33408 0.0
H4086 H 0.99834 0.91899 0.34158 0.0
H4087 H 0.99869 0.90327 0.34562 0.0
H4088 H 0.96086 0.92901 0.3618 0.0
H4089 H 0.96396 0.8911 0.37003 0.0
H4090 H 0.9626 0.92446 0.33103 0.0
H4091 H 0.97948 0.92887 0.33591 0.0
H4092 H 0.96735 0.93662 0.3436 0.0
H4093 H 0.96695 0.8774 0.34207 0.0
H4094 H 0.97439 0.87712 0.35723 0.0
H4095 H 0.98386 0.88336 0.34536 0.0
C4096 C 0.38318 0.68643 0.54303 0.0
C4097 C 0.37024 0.68836 0.54044 0.0
C4098 C 0.38651 0.6796 0.55274 0.0
C4099 C 0.37668 0.6747 0.5601 0.0
C4100 C 0.36367 0.677 0.55778 0.0
C4101 C 0.3606 0.68375 0.54793 0.0
C4102 C 0.40046 0.67724 0.55485 0.0
C4103 C 0.35294 0.67207 0.5655 0.0
C4104 C 0.38129 0.64558 0.57604 0.0
C4105 C 0.38529 0.65087 0.58803 0.0
C4106 C 0.37862 0.65325 0.56684 0.0
C4107 C 0.37982 0.66655 0.56976 0.0
C4108 C 0.38387 0.67196 0.58188 0.0
C4109 C 0.38662 0.66405 0.59088 0.0
C4110 C 0.37445 0.64711 0.55401 0.0
C4111 C 0.38513 0.68608 0.58535 0.0
H4112 H 0.39064 0.68987 0.53719 0.0
H4113 H 0.35061 0.68535 0.54603 0.0
H4114 H 0.40408 0.68033 0.56451 0.0
H4115 H 0.40096 0.66694 0.55319 0.0
H4116 H 0.40706 0.68227 0.54876 0.0
H4117 H 0.34353 0.6754 0.56302 0.0
H4118 H 0.35146 0.66156 0.56434 0.0
H4119 H 0.35573 0.67513 0.57534 0.0
H4120 H 0.38026 0.63538 0.57385 0.0
H4121 H 0.38964 0.66818 0.60017 0.0
H4122 H 0.38116 0.65114 0.54745 0.0
H4123 H 0.36454 0.64914 0.55126 0.0
H4124 H 0.37432 0.63668 0.55319 0.0
H4125 H 0.39214 0.6911 0.57962 0.0
H4126 H 0.38847 0.6888 0.59515 0.0
H4127 H 0.37558 0.68941 0.58357 0.0
C4128 C 0.56052 0.14873 0.81207 0.0
C4129 C 0.55299 0.13906 0.80415 0.0
C4130 C 0.56565 0.14638 0.82358 0.0
C4131 C 0.56319 0.13405 0.82728 0.0
C4132 C 0.55506 0.1244 0.8196 0.0
C4133 C 0.55007 0.12702 0.80813 0.0
C4134 C 0.57421 0.15694 0.83152 0.0
C4135 C 0.55218 0.11113 0.82323 0.0
C4136 C 0.58898 0.12366 0.84844 0.0
C4137 C 0.58348 0.1247 0.85976 0.0
C4138 C 0.58248 0.12674 0.83784 0.0
C4139 C 0.57014 0.13093 0.83857 0.0
C4140 C 0.56453 0.13205 0.85001 0.0
C4141 C 0.57128 0.12892 0.8605 0.0
C4142 C 0.58882 0.12544 0.82584 0.0
C4143 C 0.55138 0.13647 0.85112 0.0
H4144 H 0.56263 0.15812 0.80914 0.0
H4145 H 0.54436 0.11946 0.80203 0.0
H4146 H 0.57097 0.15771 0.84097 0.0
H4147 H 0.5844 0.1548 0.83212 0.0
H4148 H 0.57417 0.16624 0.82786 0.0
H4149 H 0.54464 0.10509 0.81685 0.0
H4150 H 0.56124 0.10666 0.82327 0.0
H4151 H 0.54882 0.11137 0.83263 0.0
H4152 H 0.5984 0.12038 0.84786 0.0
H4153 H 0.56698 0.12971 0.86924 0.0
H4154 H 0.5901 0.13468 0.82199 0.0
H4155 H 0.58244 0.11861 0.81909 0.0
H4156 H 0.5985 0.12214 0.82686 0.0
H4157 H 0.55156 0.14597 0.84788 0.0
H4158 H 0.54844 0.13697 0.86069 0.0
H4159 H 0.54385 0.12992 0.84521 0.0
C4160 C 0.10937 0.64927 0.49167 0.0
C4161 C 0.09913 0.65114 0.49913 0.0
C4162 C 0.10689 0.6443 0.47935 0.0
C4163 C 0.09383 0.64109 0.47437 0.0
C4164 C 0.08345 0.64342 0.48171 0.0
C4165 C 0.08623 0.64844 0.49401 0.0
C4166 C 0.11823 0.64204 0.4718 0.0
C4167 C 0.06941 0.64011 0.47673 0.0
C4168 C 0.08833 0.63483 0.43966 0.0
C4169 C 0.0875 0.62159 0.43791 0.0
C4170 C 0.09011 0.64133 0.45151 0.0
C4171 C 0.09108 0.63441 0.46178 0.0
C4172 C 0.08995 0.62102 0.46003 0.0
C4173 C 0.0882 0.61479 0.4481 0.0
C4174 C 0.09127 0.6556 0.45304 0.0
C4175 C 0.09089 0.61328 0.47073 0.0
H4176 H 0.11937 0.65153 0.49554 0.0
H4177 H 0.07828 0.64977 0.49976 0.0
H4178 H 0.11802 0.63172 0.46932 0.0
H4179 H 0.11744 0.64647 0.46313 0.0
H4180 H 0.12778 0.64588 0.47677 0.0
H4181 H 0.06254 0.64354 0.48326 0.0
H4182 H 0.06788 0.64422 0.46797 0.0
H4183 H 0.06697 0.62967 0.47477 0.0
H4184 H 0.0878 0.64014 0.4318 0.0
H4185 H 0.08755 0.60456 0.44674 0.0
H4186 H 0.10112 0.65969 0.45718 0.0
H4187 H 0.0841 0.65872 0.45938 0.0
H4188 H 0.08965 0.65953 0.44418 0.0
H4189 H 0.10067 0.61578 0.47567 0.0
H4190 H 0.08929 0.60294 0.46782 0.0
H4191 H 0.08359 0.61548 0.47732 0.0
C4192 C 0.55806 0.86865 0.7027 0.0
C4193 C 0.54524 0.87096 0.70441 0.0
C4194 C 0.56318 0.86896 0.69119 0.0
C4195 C 0.55533 0.8717 0.68109 0.0
C4196 C 0.5424 0.87409 0.68274 0.0
C4197 C 0.53751 0.87371 0.69438 0.0
C4198 C 0.57704 0.86642 0.68985 0.0
C4199 C 0.53374 0.87704 0.67219 0.0
C4200 C 0.5739 0.88372 0.6548 0.0
C4201 C 0.57336 0.87261 0.64677 0.0
C4202 C 0.56769 0.88364 0.66582 0.0
C4203 C 0.5608 0.87219 0.66889 0.0
C4204 C 0.55989 0.86104 0.66062 0.0
C4205 C 0.56617 0.8614 0.64965 0.0
C4206 C 0.56886 0.89574 0.67435 0.0
C4207 C 0.55265 0.84864 0.66356 0.0
H4208 H 0.56418 0.86675 0.71043 0.0
H4209 H 0.52757 0.87539 0.6956 0.0
H4210 H 0.57719 0.8583 0.6828 0.0
H4211 H 0.58291 0.87478 0.68671 0.0
H4212 H 0.5818 0.86428 0.69857 0.0
H4213 H 0.52392 0.87868 0.67497 0.0
H4214 H 0.53834 0.8856 0.66833 0.0
H4215 H 0.53256 0.86911 0.66475 0.0
H4216 H 0.57935 0.89246 0.65261 0.0
H4217 H 0.56572 0.85282 0.64344 0.0
H4218 H 0.57448 0.89466 0.68299 0.0
H4219 H 0.55905 0.89775 0.67679 0.0
H4220 H 0.57381 0.90401 0.67026 0.0
H4221 H 0.5576 0.84551 0.67171 0.0
H4222 H 0.55211 0.84105 0.65583 0.0
H4223 H 0.54259 0.84987 0.66587 0.0
C4224 C 0.42659 0.35886 0.96161 0.0
C4225 C 0.43672 0.35745 0.97018 0.0
C4226 C 0.42924 0.36385 0.95055 0.0
C4227 C 0.44234 0.3675 0.94797 0.0
C4228 C 0.45262 0.36544 0.95625 0.0
C4229 C 0.44969 0.36044 0.96727 0.0
C4230 C 0.41799 0.36583 0.94194 0.0
C4231 C 0.46672 0.36916 0.9538 0.0
C4232 C 0.44834 0.37528 0.91553 0.0
C4233 C 0.44872 0.38848 0.91687 0.0
C4234 C 0.44661 0.36829 0.92564 0.0
C4235 C 0.44518 0.37468 0.93728 0.0
C4236 C 0.44586 0.38804 0.93868 0.0
C4237 C 0.44763 0.39476 0.92845 0.0
C4238 C 0.446 0.35407 0.92382 0.0
C4239 C 0.44438 0.39524 0.95093 0.0
H4240 H 0.41655 0.35635 0.96371 0.0
H4241 H 0.45756 0.35946 0.97387 0.0
H4242 H 0.41773 0.37613 0.94173 0.0
H4243 H 0.41929 0.3618 0.93248 0.0
H4244 H 0.40845 0.36144 0.94473 0.0
H4245 H 0.47351 0.36552 0.96033 0.0
H4246 H 0.46852 0.36555 0.94434 0.0
H4247 H 0.46898 0.37964 0.95461 0.0
H4248 H 0.44919 0.37037 0.90658 0.0
H4249 H 0.44792 0.40497 0.92948 0.0
H4250 H 0.43614 0.34953 0.92562 0.0
H4251 H 0.45306 0.35094 0.93044 0.0
H4252 H 0.44812 0.35062 0.91439 0.0
H4253 H 0.43457 0.39223 0.95404 0.0
H4254 H 0.44563 0.40565 0.95055 0.0
H4255 H 0.45166 0.39305 0.95791 0.0
C4256 C 0.97902 0.14044 0.19405 0.0
C4257 C 0.98368 0.15157 0.20171 0.0
C4258 C 0.96993 0.14051 0.18412 0.0
C4259 C 0.96537 0.15198 0.18177 0.0
C4260 C 0.97046 0.16336 0.18912 0.0
C4261 C 0.97954 0.16302 0.19903 0.0
C4262 C 0.96471 0.12815 0.17652 0.0
C4263 C 0.96593 0.1758 0.18683 0.0
C4264 C 0.94653 0.15109 0.15093 0.0
C4265 C 0.93366 0.14797 0.15404 0.0
C4266 C 0.95698 0.15301 0.15994 0.0
C4267 C 0.95446 0.15176 0.17232 0.0
C4268 C 0.94143 0.14926 0.17556 0.0
C4269 C 0.9312 0.14743 0.16639 0.0
C4270 C 0.97074 0.15575 0.15615 0.0
C4271 C 0.9383 0.14793 0.18866 0.0
H4272 H 0.98203 0.13154 0.19615 0.0
H4273 H 0.98323 0.17168 0.20483 0.0
H4274 H 0.95422 0.12559 0.1779 0.0
H4275 H 0.96552 0.12915 0.16664 0.0
H4276 H 0.96997 0.12026 0.17895 0.0
H4277 H 0.97181 0.18396 0.19252 0.0
H4278 H 0.96645 0.17734 0.17703 0.0
H4279 H 0.95558 0.17556 0.18897 0.0
H4280 H 0.94849 0.15146 0.14138 0.0
H4281 H 0.92124 0.14523 0.16885 0.0
H4282 H 0.97585 0.1474 0.15718 0.0
H4283 H 0.97628 0.16386 0.16215 0.0
H4284 H 0.97099 0.1579 0.14648 0.0
H4285 H 0.94218 0.13952 0.19176 0.0
H4286 H 0.92764 0.14684 0.18977 0.0
H4287 H 0.94307 0.15633 0.19478 0.0
C4288 C 0.05871 0.09904 0.29267 0.0
C4289 C 0.05942 0.11171 0.29766 0.0
C4290 C 0.06788 0.09141 0.29652 0.0
C4291 C 0.0779 0.09658 0.30561 0.0
C4292 C 0.07905 0.10955 0.31018 0.0
C4293 C 0.06984 0.11694 0.30611 0.0
C4294 C 0.06644 0.07769 0.29132 0.0
C4295 C 0.08963 0.11549 0.31984 0.0
C4296 C 0.09212 0.07833 0.32947 0.0
C4297 C 0.105 0.07866 0.32619 0.0
C4298 C 0.08279 0.08313 0.32221 0.0
C4299 C 0.08647 0.08838 0.31138 0.0
C4300 C 0.0991 0.08754 0.30738 0.0
C4301 C 0.10827 0.08269 0.31488 0.0
C4302 C 0.06941 0.08371 0.32677 0.0
C4303 C 0.10331 0.0928 0.29579 0.0
H4304 H 0.05066 0.09492 0.28615 0.0
H4305 H 0.07061 0.1268 0.30979 0.0
H4306 H 0.07604 0.07494 0.28909 0.0
H4307 H 0.06255 0.07161 0.29825 0.0
H4308 H 0.05967 0.07572 0.28294 0.0
H4309 H 0.08962 0.12585 0.3219 0.0
H4310 H 0.08826 0.11099 0.32843 0.0
H4311 H 0.09935 0.11386 0.31682 0.0
H4312 H 0.08957 0.07508 0.33818 0.0
H4313 H 0.11824 0.08297 0.31233 0.0
H4314 H 0.06173 0.08056 0.31925 0.0
H4315 H 0.06852 0.09365 0.33013 0.0
H4316 H 0.06755 0.07776 0.33438 0.0
H4317 H 0.09545 0.09041 0.28832 0.0
H4318 H 0.11226 0.08916 0.29269 0.0
H4319 H 0.10541 0.10328 0.29746 0.0
C4320 C 0.09938 0.76286 0.58877 0.0
C4321 C 0.10635 0.75353 0.5929 0.0
C4322 C 0.09876 0.77417 0.5962 0.0
C4323 C 0.1052 0.77618 0.60808 0.0
C4324 C 0.11239 0.76689 0.61225 0.0
C4325 C 0.11292 0.75572 0.60459 0.0
C4326 C 0.09103 0.78387 0.59142 0.0
C4327 C 0.11938 0.76868 0.62486 0.0
C4328 C 0.11213 0.80969 0.62425 0.0
C4329 C 0.10182 0.80982 0.63195 0.0
C4330 C 0.11334 0.79881 0.6164 0.0
C4331 C 0.10407 0.78782 0.61631 0.0
C4332 C 0.09368 0.78791 0.62411 0.0
C4333 C 0.09267 0.79893 0.63181 0.0
C4334 C 0.12451 0.79908 0.60816 0.0
C4335 C 0.08364 0.77636 0.62434 0.0
H4336 H 0.09413 0.7612 0.57982 0.0
H4337 H 0.11851 0.74867 0.60778 0.0
H4338 H 0.08276 0.78507 0.59719 0.0
H4339 H 0.09724 0.7932 0.59198 0.0
H4340 H 0.08709 0.78113 0.58178 0.0
H4341 H 0.12476 0.76067 0.62663 0.0
H4342 H 0.12638 0.77757 0.62599 0.0
H4343 H 0.11224 0.7696 0.63192 0.0
H4344 H 0.11923 0.81809 0.6243 0.0
H4345 H 0.08471 0.79902 0.63778 0.0
H4346 H 0.12067 0.79701 0.59844 0.0
H4347 H 0.13055 0.79162 0.61014 0.0
H4348 H 0.13087 0.80839 0.6093 0.0
H4349 H 0.0786 0.77362 0.61511 0.0
H4350 H 0.07621 0.77797 0.63099 0.0
H4351 H 0.08851 0.76824 0.6268 0.0
C4352 C 0.44003 0.89461 0.79311 0.0
C4353 C 0.44843 0.90317 0.78735 0.0
C4354 C 0.43094 0.89883 0.80096 0.0
C4355 C 0.43024 0.91196 0.80313 0.0
C4356 C 0.43833 0.92063 0.79697 0.0
C4357 C 0.44732 0.91612 0.78913 0.0
C4358 C 0.42243 0.88927 0.80727 0.0
C4359 C 0.4379 0.9347 0.79907 0.0
C4360 C 0.40062 0.92147 0.81875 0.0
C4361 C 0.40548 0.92361 0.83105 0.0
C4362 C 0.40865 0.91798 0.80947 0.0
C4363 C 0.4218 0.91663 0.81261 0.0
C4364 C 0.42681 0.91913 0.825 0.0
C4365 C 0.41857 0.92256 0.83405 0.0
C4366 C 0.40297 0.91538 0.79638 0.0
C4367 C 0.44078 0.91786 0.82874 0.0
H4368 H 0.4407 0.88457 0.79162 0.0
H4369 H 0.45385 0.9228 0.78478 0.0
H4370 H 0.42505 0.89075 0.81728 0.0
H4371 H 0.41203 0.89056 0.80585 0.0
H4372 H 0.42348 0.87936 0.8039 0.0
H4373 H 0.44392 0.94005 0.79276 0.0
H4374 H 0.42771 0.93671 0.79786 0.0
H4375 H 0.44155 0.93826 0.80864 0.0
H4376 H 0.39049 0.92225 0.81639 0.0
H4377 H 0.42233 0.92422 0.84357 0.0
H4378 H 0.40293 0.90525 0.7931 0.0
H4379 H 0.40909 0.92103 0.79037 0.0
H4380 H 0.39284 0.91762 0.79535 0.0
H4381 H 0.44243 0.90787 0.82667 0.0
H4382 H 0.44332 0.92076 0.83866 0.0
H4383 H 0.44753 0.92373 0.82342 0.0
C4384 C 0.43224 0.25389 0.05414 0.0
C4385 C 0.4227 0.26202 0.05428 0.0
C4386 C 0.43159 0.24385 0.06151 0.0
C4387 C 0.42114 0.24191 0.06917 0.0
C4388 C 0.41126 0.24984 0.06903 0.0
C4389 C 0.41217 0.25979 0.0616 0.0
C4390 C 0.44231 0.23561 0.06142 0.0
C4391 C 0.39993 0.24804 0.07701 0.0
C4392 C 0.41385 0.21074 0.08301 0.0
C4393 C 0.41964 0.214 0.09494 0.0
C4394 C 0.4144 0.21967 0.07444 0.0
C4395 C 0.42092 0.23211 0.0779 0.0
C4396 C 0.42692 0.23536 0.08989 0.0
C4397 C 0.4262 0.22626 0.09825 0.0
C4398 C 0.4079 0.21587 0.06173 0.0
C4399 C 0.43396 0.24851 0.09395 0.0
H4400 H 0.44045 0.25562 0.04858 0.0
H4401 H 0.40465 0.26592 0.06158 0.0
H4402 H 0.44783 0.237 0.07051 0.0
H4403 H 0.4381 0.22546 0.05974 0.0
H4404 H 0.44924 0.23778 0.05433 0.0
H4405 H 0.39269 0.25456 0.07532 0.0
H4406 H 0.39491 0.23815 0.07536 0.0
H4407 H 0.40355 0.24974 0.0868 0.0
H4408 H 0.40879 0.20125 0.08038 0.0
H4409 H 0.43071 0.22877 0.10747 0.0
H4410 H 0.41506 0.21763 0.05477 0.0
H4411 H 0.40005 0.22173 0.06006 0.0
H4412 H 0.40358 0.20572 0.06036 0.0
H4413 H 0.44176 0.251 0.08775 0.0
H4414 H 0.43842 0.2494 0.10348 0.0
H4415 H 0.42706 0.25554 0.09339 0.0
C4416 C 0.08987 0.93282 0.22929 0.0
C4417 C 0.07783 0.92719 0.22338 0.0
C4418 C 0.101 0.93506 0.22267 0.0
C4419 C 0.10004 0.93162 0.20986 0.0
C4420 C 0.08789 0.92613 0.20383 0.0
C4421 C 0.07698 0.92392 0.21066 0.0
C4422 C 0.11381 0.9409 0.2294 0.0
C4423 C 0.08645 0.92232 0.19017 0.0
C4424 C 0.1246 0.94462 0.18837 0.0
C4425 C 0.13107 0.93412 0.18564 0.0
C4426 C 0.11493 0.94425 0.19681 0.0
C4427 C 0.11178 0.93316 0.20269 0.0
C4428 C 0.11894 0.92289 0.20057 0.0
C4429 C 0.12846 0.92348 0.19202 0.0
C4430 C 0.10749 0.95537 0.1988 0.0
C4431 C 0.11602 0.91096 0.20676 0.0
H4432 H 0.09058 0.93551 0.23909 0.0
H4433 H 0.0678 0.91935 0.20604 0.0
H4434 H 0.12101 0.93414 0.22848 0.0
H4435 H 0.11783 0.94951 0.2253 0.0
H4436 H 0.11282 0.94349 0.2393 0.0
H4437 H 0.07619 0.91872 0.1868 0.0
H4438 H 0.08993 0.93052 0.18522 0.0
H4439 H 0.09256 0.91481 0.1878 0.0
H4440 H 0.12658 0.95283 0.18339 0.0
H4441 H 0.13358 0.91541 0.19 0.0
H4442 H 0.10664 0.95792 0.20872 0.0
H4443 H 0.09745 0.95276 0.19443 0.0
H4444 H 0.11219 0.96383 0.19483 0.0
H4445 H 0.11554 0.9133 0.21676 0.0
H4446 H 0.12344 0.9045 0.20525 0.0
H4447 H 0.10635 0.90583 0.20311 0.0
C4448 C 0.35809 0.77325 0.44216 0.0
C4449 C 0.34644 0.76489 0.44202 0.0
C4450 C 0.35852 0.78439 0.43637 0.0
C4451 C 0.34704 0.78722 0.43025 0.0
C4452 C 0.33509 0.77922 0.43072 0.0
C4453 C 0.33494 0.76817 0.43663 0.0
C4454 C 0.37144 0.79272 0.43615 0.0
C4455 C 0.32263 0.78192 0.42437 0.0
C4456 C 0.34694 0.81971 0.41893 0.0
C4457 C 0.34979 0.81719 0.40669 0.0
C4458 C 0.34596 0.81004 0.42676 0.0
C4459 C 0.34782 0.79763 0.42219 0.0
C4460 C 0.35058 0.79507 0.4098 0.0
C4461 C 0.35156 0.80489 0.40223 0.0
C4462 C 0.34307 0.81312 0.43992 0.0
C4463 C 0.35257 0.78196 0.40454 0.0
H4464 H 0.36705 0.77075 0.44622 0.0
H4465 H 0.32585 0.76188 0.43668 0.0
H4466 H 0.37484 0.79181 0.42676 0.0
H4467 H 0.37036 0.80281 0.43854 0.0
H4468 H 0.37905 0.79012 0.44258 0.0
H4469 H 0.31395 0.77562 0.42675 0.0
H4470 H 0.32118 0.79191 0.42679 0.0
H4471 H 0.32327 0.78053 0.4143 0.0
H4472 H 0.34562 0.82923 0.42243 0.0
H4473 H 0.35378 0.80295 0.39277 0.0
H4474 H 0.35121 0.81115 0.44612 0.0
H4475 H 0.33416 0.80699 0.44201 0.0
H4476 H 0.34165 0.82319 0.442 0.0
H4477 H 0.36094 0.77889 0.40962 0.0
H4478 H 0.35446 0.78152 0.39467 0.0
H4479 H 0.34382 0.77508 0.4056 0.0
C4480 C 0.44222 0.10705 0.71144 0.0
C4481 C 0.44707 0.1199 0.7145 0.0
C4482 C 0.43128 0.10328 0.70312 0.0
C4483 C 0.425 0.1126 0.69781 0.0
C4484 C 0.42959 0.1256 0.7012 0.0
C4485 C 0.4406 0.12908 0.70946 0.0
C4486 C 0.42673 0.08933 0.69968 0.0
C4487 C 0.42308 0.13582 0.69584 0.0
C4488 C 0.40654 0.10435 0.66662 0.0
C4489 C 0.39357 0.10256 0.66971 0.0
C4490 C 0.41686 0.10738 0.67569 0.0
C4491 C 0.41412 0.10879 0.68818 0.0
C4492 C 0.40101 0.10688 0.69138 0.0
C4493 C 0.39087 0.10374 0.68209 0.0
C4494 C 0.4307 0.10926 0.6719 0.0
C4495 C 0.39771 0.10838 0.70458 0.0
H4496 H 0.44727 0.09991 0.71522 0.0
H4497 H 0.44422 0.13903 0.71193 0.0
H4498 H 0.41617 0.08709 0.70096 0.0
H4499 H 0.42806 0.08682 0.68985 0.0
H4500 H 0.43215 0.0833 0.70518 0.0
H4501 H 0.42733 0.14547 0.70001 0.0
H4502 H 0.42412 0.13526 0.68582 0.0
H4503 H 0.41249 0.13441 0.69719 0.0
H4504 H 0.40862 0.10344 0.65704 0.0
H4505 H 0.38084 0.10243 0.68453 0.0
H4506 H 0.43656 0.10289 0.67648 0.0
H4507 H 0.4353 0.11913 0.67485 0.0
H4508 H 0.43119 0.10737 0.66184 0.0
H4509 H 0.40283 0.10202 0.70993 0.0
H4510 H 0.38707 0.10623 0.70556 0.0
H4511 H 0.40113 0.11823 0.70869 0.0
C4512 C 0.14254 0.22218 0.93671 0.0
C4513 C 0.12959 0.22447 0.93749 0.0
C4514 C 0.14553 0.21153 0.92947 0.0
C4515 C 0.13531 0.20294 0.92297 0.0
C4516 C 0.12219 0.20501 0.92405 0.0
C4517 C 0.11951 0.21578 0.93125 0.0
C4518 C 0.15962 0.2097 0.92846 0.0
C4519 C 0.111 0.19599 0.91739 0.0
C4520 C 0.14051 0.18284 0.8938 0.0
C4521 C 0.14059 0.17087 0.89791 0.0
C4522 C 0.13942 0.19348 0.90198 0.0
C4523 C 0.13823 0.19209 0.91455 0.0
C4524 C 0.13883 0.18012 0.91883 0.0
C4525 C 0.14007 0.16964 0.91045 0.0
C4526 C 0.13901 0.20611 0.89707 0.0
C4527 C 0.1375 0.17824 0.93215 0.0
H4528 H 0.15037 0.22895 0.94145 0.0
H4529 H 0.10948 0.21745 0.93196 0.0
H4530 H 0.16112 0.2001 0.93068 0.0
H4531 H 0.16225 0.21046 0.91889 0.0
H4532 H 0.16637 0.21682 0.93464 0.0
H4533 H 0.10135 0.19859 0.91972 0.0
H4534 H 0.11166 0.19594 0.90735 0.0
H4535 H 0.11155 0.1862 0.91965 0.0
H4536 H 0.14104 0.18381 0.88411 0.0
H4537 H 0.14001 0.16037 0.91363 0.0
H4538 H 0.14611 0.21354 0.9025 0.0
H4539 H 0.12917 0.20896 0.89794 0.0
H4540 H 0.14121 0.20584 0.88729 0.0
H4541 H 0.1444 0.18541 0.9381 0.0
H4542 H 0.13933 0.16864 0.93419 0.0
H4543 H 0.1275 0.17955 0.9346 0.0
C4544 C 0.34765 0.09955 0.10929 0.0
C4545 C 0.3551 0.09026 0.11267 0.0
C4546 C 0.35362 0.11188 0.10797 0.0
C4547 C 0.36732 0.11497 0.11016 0.0
C4548 C 0.37492 0.10546 0.11301 0.0
C4549 C 0.36873 0.09323 0.11416 0.0
C4550 C 0.34522 0.12172 0.10476 0.0
C4551 C 0.38956 0.10833 0.1154 0.0
C4552 C 0.38784 0.14457 0.10182 0.0
C4553 C 0.39026 0.15172 0.1133 0.0
C4554 C 0.3796 0.1329 0.1004 0.0
C4555 C 0.37374 0.12831 0.11072 0.0
C4556 C 0.37544 0.13594 0.12211 0.0
C4557 C 0.38362 0.14756 0.12324 0.0
C4558 C 0.37785 0.12513 0.08806 0.0
C4559 C 0.36936 0.13145 0.13334 0.0
H4560 H 0.33712 0.09732 0.10813 0.0
H4561 H 0.37458 0.08601 0.11645 0.0
H4562 H 0.3449 0.12861 0.11291 0.0
H4563 H 0.34943 0.12709 0.09745 0.0
H4564 H 0.33507 0.11743 0.10165 0.0
H4565 H 0.3941 0.09971 0.11682 0.0
H4566 H 0.39396 0.11272 0.10761 0.0
H4567 H 0.39203 0.11522 0.12368 0.0
H4568 H 0.39294 0.14775 0.09411 0.0
H4569 H 0.38525 0.1532 0.13207 0.0
H4570 H 0.36748 0.12101 0.08588 0.0
H4571 H 0.38364 0.11715 0.08824 0.0
H4572 H 0.38113 0.13084 0.08061 0.0
H4573 H 0.35879 0.12813 0.1313 0.0
H4574 H 0.3706 0.13899 0.14118 0.0
H4575 H 0.37396 0.1233 0.13617 0.0
C4576 C 0.81852 0.42971 0.88 0.0
C4577 C 0.80512 0.42981 0.87752 0.0
C4578 C 0.82348 0.4185 0.88208 0.0
C4579 C 0.81481 0.40707 0.88177 0.0
C4580 C 0.80121 0.40717 0.87981 0.0
C4581 C 0.79651 0.41855 0.87768 0.0
C4582 C 0.83805 0.41883 0.88418 0.0
C4583 C 0.79167 0.39518 0.87949 0.0
C4584 C 0.83063 0.37806 0.87246 0.0
C4585 C 0.83423 0.37419 0.88384 0.0
C4586 C 0.82372 0.38836 0.87164 0.0
C4587 C 0.82022 0.39494 0.88248 0.0
C4588 C 0.82312 0.39062 0.89397 0.0
C4589 C 0.83011 0.38028 0.89452 0.0
C4590 C 0.82079 0.39261 0.8592 0.0
C4591 C 0.81944 0.39732 0.90571 0.0
H4592 H 0.82521 0.43843 0.88019 0.0
H4593 H 0.78614 0.41854 0.87574 0.0
H4594 H 0.8404 0.41465 0.89273 0.0
H4595 H 0.84169 0.41304 0.87653 0.0
H4596 H 0.84339 0.4286 0.88482 0.0
H4597 H 0.78139 0.39708 0.87922 0.0
H4598 H 0.79289 0.3887 0.87127 0.0
H4599 H 0.79362 0.39018 0.88763 0.0
H4600 H 0.83356 0.37321 0.86416 0.0
H4601 H 0.83287 0.37733 0.90334 0.0
H4602 H 0.82653 0.402 0.85857 0.0
H4603 H 0.81033 0.39368 0.85789 0.0
H4604 H 0.8232 0.38586 0.85162 0.0
H4605 H 0.8256 0.40668 0.90766 0.0
H4606 H 0.8208 0.39183 0.91364 0.0
H4607 H 0.80914 0.39905 0.90483 0.0
C4608 C 0.77103 0.53795 0.15871 0.0
C4609 C 0.76153 0.54609 0.15804 0.0
C4610 C 0.78439 0.54273 0.15985 0.0
C4611 C 0.78832 0.55594 0.1602 0.0
C4612 C 0.77878 0.56423 0.15997 0.0
C4613 C 0.76552 0.55921 0.15897 0.0
C4614 C 0.79429 0.53362 0.16022 0.0
C4615 C 0.78255 0.57838 0.16031 0.0
C4616 C 0.82269 0.57216 0.17011 0.0
C4617 C 0.82769 0.57409 0.15875 0.0
C4618 C 0.81008 0.56568 0.17076 0.0
C4619 C 0.8023 0.56113 0.15981 0.0
C4620 C 0.80755 0.56253 0.14835 0.0
C4621 C 0.82019 0.56892 0.14797 0.0
C4622 C 0.80488 0.56421 0.18316 0.0
C4623 C 0.79959 0.55782 0.13645 0.0
H4624 H 0.76805 0.5278 0.15793 0.0
H4625 H 0.75825 0.56559 0.15876 0.0
H4626 H 0.79939 0.53342 0.15163 0.0
H4627 H 0.80179 0.53679 0.1679 0.0
H4628 H 0.78971 0.52384 0.16126 0.0
H4629 H 0.77396 0.58356 0.16065 0.0
H4630 H 0.78937 0.582 0.16841 0.0
H4631 H 0.7877 0.58057 0.15204 0.0
H4632 H 0.82841 0.57616 0.17848 0.0
H4633 H 0.82412 0.57013 0.13917 0.0
H4634 H 0.80031 0.55431 0.18361 0.0
H4635 H 0.7972 0.57038 0.18463 0.0
H4636 H 0.81263 0.56682 0.19072 0.0
H4637 H 0.7956 0.54768 0.13637 0.0
H4638 H 0.80538 0.55895 0.12834 0.0
H4639 H 0.79117 0.56316 0.13557 0.0
C4640 C 0.70994 0.57855 0.37998 0.0
C4641 C 0.70224 0.56662 0.37822 0.0
C4642 C 0.70423 0.58974 0.38038 0.0
C4643 C 0.69048 0.589 0.37902 0.0
C4644 C 0.68264 0.577 0.3775 0.0
C4645 C 0.68861 0.56597 0.37709 0.0
C4646 C 0.71291 0.60236 0.38203 0.0
C4647 C 0.66794 0.5758 0.37599 0.0
C4648 C 0.67405 0.61777 0.38869 0.0
C4649 C 0.67145 0.62227 0.37738 0.0
C4650 C 0.68041 0.60704 0.38941 0.0
C4651 C 0.68427 0.60072 0.37856 0.0
C4652 C 0.68182 0.60538 0.36716 0.0
C4653 C 0.67542 0.61608 0.36672 0.0
C4654 C 0.68282 0.60233 0.40172 0.0
C4655 C 0.6858 0.59895 0.3554 0.0
H4656 H 0.72047 0.57913 0.38103 0.0
H4657 H 0.68257 0.55681 0.37555 0.0
H4658 H 0.71159 0.60743 0.37382 0.0
H4659 H 0.71014 0.60838 0.38998 0.0
H4660 H 0.72339 0.60133 0.38347 0.0
H4661 H 0.66323 0.56581 0.37555 0.0
H4662 H 0.66422 0.58139 0.38373 0.0
H4663 H 0.66494 0.57971 0.36746 0.0
H4664 H 0.67097 0.62251 0.39697 0.0
H4665 H 0.67341 0.61956 0.35797 0.0
H4666 H 0.69334 0.60173 0.4035 0.0
H4667 H 0.67748 0.59264 0.40173 0.0
H4668 H 0.67964 0.60856 0.40933 0.0
H4669 H 0.69642 0.59838 0.35613 0.0
H4670 H 0.68356 0.60399 0.34735 0.0
H4671 H 0.68066 0.5891 0.35375 0.0
C4672 C 0.24213 1.00173 0.15628 0.0
C4673 C 0.24241 1.00785 0.14557 0.0
C4674 C 0.23109 0.99352 0.15869 0.0
C4675 C 0.22005 0.99136 0.15017 0.0
C4676 C 0.22001 0.99803 0.13967 0.0
C4677 C 0.2312 1.00621 0.13749 0.0
C4678 C 0.23151 0.98666 0.17003 0.0
C4679 C 0.20842 0.99599 0.13039 0.0
C4680 C 0.19983 0.95893 0.14832 0.0
C4681 C 0.1892 0.96146 0.15498 0.0
C4682 C 0.20982 0.96862 0.14658 0.0
C4683 C 0.20917 0.98118 0.15163 0.0
C4684 C 0.19838 0.98383 0.15829 0.0
C4685 C 0.18849 0.97391 0.15989 0.0
C4686 C 0.22115 0.96538 0.13942 0.0
C4687 C 0.19737 0.9971 0.1638 0.0
H4688 H 0.25069 1.00314 0.16266 0.0
H4689 H 0.23138 0.01084 0.12916 0.0
H4690 H 0.22269 0.98759 0.1751 0.0
H4691 H 0.23157 0.97641 0.16735 0.0
H4692 H 0.24029 0.99028 0.17629 0.0
H4693 H 0.20933 1.00291 0.12348 0.0
H4694 H 0.2075 0.9863 0.12553 0.0
H4695 H 0.19928 0.99676 0.135 0.0
H4696 H 0.20036 0.94931 0.1445 0.0
H4697 H 0.18026 0.97591 0.16503 0.0
H4698 H 0.23037 0.96774 0.14533 0.0
H4699 H 0.22211 0.97111 0.13156 0.0
H4700 H 0.22004 0.9552 0.13587 0.0
H4701 H 0.20574 1.0005 0.17058 0.0
H4702 H 0.18818 0.99765 0.16842 0.0
H4703 H 0.19784 1.00365 0.15657 0.0
C4704 C 0.16408 0.92638 0.63475 0.0
C4705 C 0.17035 0.93386 0.64515 0.0
C4706 C 0.15635 0.91479 0.63578 0.0
C4707 C 0.15477 0.91064 0.6475 0.0
C4708 C 0.16137 0.91798 0.658 0.0
C4709 C 0.16913 0.92948 0.65668 0.0
C4710 C 0.14959 0.90717 0.62436 0.0
C4711 C 0.15984 0.91393 0.67066 0.0
C4712 C 0.12352 0.88929 0.65192 0.0
C4713 C 0.12776 0.87739 0.65196 0.0
C4714 C 0.13222 0.90015 0.65048 0.0
C4715 C 0.14549 0.8991 0.64888 0.0
C4716 C 0.14982 0.8871 0.64868 0.0
C4717 C 0.14091 0.87638 0.65026 0.0
C4718 C 0.1272 0.91278 0.65074 0.0
C4719 C 0.16388 0.88561 0.64692 0.0
H4720 H 0.16515 0.92966 0.6258 0.0
H4721 H 0.17387 0.93529 0.66475 0.0
H4722 H 0.15173 0.89726 0.6239 0.0
H4723 H 0.13887 0.90683 0.62465 0.0
H4724 H 0.1526 0.91123 0.61588 0.0
H4725 H 0.16627 0.92027 0.67778 0.0
H4726 H 0.14957 0.91393 0.67298 0.0
H4727 H 0.16209 0.90412 0.67095 0.0
H4728 H 0.11333 0.89013 0.65297 0.0
H4729 H 0.14429 0.86725 0.65038 0.0
H4730 H 0.12892 0.9169 0.64202 0.0
H4731 H 0.13259 0.91951 0.65822 0.0
H4732 H 0.11661 0.91199 0.65215 0.0
H4733 H 0.16684 0.88933 0.63828 0.0
H4734 H 0.16561 0.87557 0.6466 0.0
H4735 H 0.17028 0.89122 0.65451 0.0
C4736 C 0.77816 0.45264 0.35236 0.0
C4737 C 0.77562 0.465 0.35107 0.0
C4738 C 0.79027 0.44892 0.34987 0.0
C4739 C 0.80018 0.45778 0.34603 0.0
C4740 C 0.79763 0.4702 0.34444 0.0
C4741 C 0.78538 0.47368 0.34701 0.0
C4742 C 0.7926 0.43559 0.35174 0.0
C4743 C 0.80794 0.47989 0.34032 0.0
C4744 C 0.8341 0.45019 0.35386 0.0
C4745 C 0.83682 0.44353 0.3429 0.0
C4746 C 0.82252 0.45551 0.35479 0.0
C4747 C 0.81341 0.45415 0.3445 0.0
C4748 C 0.81646 0.44811 0.33318 0.0
C4749 C 0.82817 0.44288 0.33251 0.0
C4750 C 0.81972 0.46196 0.367 0.0
C4751 C 0.80701 0.4465 0.32199 0.0
H4752 H 0.77077 0.44593 0.35569 0.0
H4753 H 0.78345 0.48321 0.34586 0.0
H4754 H 0.79606 0.43095 0.34331 0.0
H4755 H 0.80033 0.43586 0.35921 0.0
H4756 H 0.78367 0.42966 0.35414 0.0
H4757 H 0.80414 0.48885 0.33871 0.0
H4758 H 0.81624 0.48207 0.34737 0.0
H4759 H 0.81182 0.47604 0.33175 0.0
H4760 H 0.84089 0.45088 0.36186 0.0
H4761 H 0.83023 0.4377 0.32403 0.0
H4762 H 0.81157 0.45614 0.37083 0.0
H4763 H 0.81663 0.47132 0.36587 0.0
H4764 H 0.82833 0.46333 0.37374 0.0
H4765 H 0.79844 0.43952 0.32334 0.0
H4766 H 0.8115 0.44311 0.31358 0.0
H4767 H 0.80339 0.45558 0.32059 0.0
C4768 C 0.69963 0.51331 0.85027 0.0
C4769 C 0.69929 0.50044 0.84613 0.0
C4770 C 0.68842 0.51928 0.84931 0.0
C4771 C 0.67653 0.51221 0.84414 0.0
C4772 C 0.67613 0.49927 0.83976 0.0
C4773 C 0.68752 0.49354 0.84081 0.0
C4774 C 0.68926 0.53308 0.85413 0.0
C4775 C 0.66363 0.49144 0.83418 0.0
C4776 C 0.64596 0.52475 0.85447 0.0
C4777 C 0.64257 0.53141 0.8447 0.0
C4778 C 0.65676 0.51814 0.85423 0.0
C4779 C 0.6644 0.51825 0.84397 0.0
C4780 C 0.66084 0.52472 0.83393 0.0
C4781 C 0.64993 0.53124 0.8344 0.0
C4782 C 0.6602 0.51134 0.86511 0.0
C4783 C 0.66876 0.52507 0.82284 0.0
H4784 H 0.70861 0.51867 0.85457 0.0
H4785 H 0.68721 0.48364 0.83746 0.0
H4786 H 0.68559 0.53852 0.84691 0.0
H4787 H 0.68299 0.53406 0.86191 0.0
H4788 H 0.69938 0.53739 0.8573 0.0
H4789 H 0.66508 0.48168 0.83069 0.0
H4790 H 0.65629 0.49084 0.84113 0.0
H4791 H 0.65951 0.49604 0.82652 0.0
H4792 H 0.64026 0.52487 0.86243 0.0
H4793 H 0.64736 0.53639 0.82683 0.0
H4794 H 0.66984 0.51577 0.86952 0.0
H4795 H 0.661 0.5013 0.86209 0.0
H4796 H 0.65286 0.5116 0.87207 0.0
H4797 H 0.67868 0.5302 0.82553 0.0
H4798 H 0.66424 0.52981 0.81548 0.0
H4799 H 0.66991 0.51531 0.8191 0.0
C4800 C 0.87281 0.65286 0.97617 0.0
C4801 C 0.87284 0.66582 0.97968 0.0
C4802 C 0.87575 0.64849 0.96435 0.0
C4803 C 0.87892 0.65729 0.95583 0.0
C4804 C 0.87917 0.6704 0.95933 0.0
C4805 C 0.87608 0.67451 0.97121 0.0
C4806 C 0.87536 0.63443 0.96098 0.0
C4807 C 0.88257 0.68006 0.95049 0.0
C4808 C 0.89654 0.64442 0.92904 0.0
C4809 C 0.88616 0.64049 0.92015 0.0
C4810 C 0.89445 0.6505 0.94052 0.0
C4811 C 0.88167 0.65262 0.94318 0.0
C4812 C 0.87128 0.64922 0.93404 0.0
C4813 C 0.87366 0.64325 0.92263 0.0
C4814 C 0.9058 0.65409 0.95 0.0
C4815 C 0.85751 0.65132 0.93651 0.0
H4816 H 0.8706 0.64609 0.98272 0.0
H4817 H 0.87602 0.68453 0.9738 0.0
H4818 H 0.86811 0.63114 0.95311 0.0
H4819 H 0.885 0.63238 0.95807 0.0
H4820 H 0.87275 0.62884 0.96869 0.0
H4821 H 0.88279 0.68993 0.95477 0.0
H4822 H 0.89224 0.67904 0.94699 0.0
H4823 H 0.87532 0.67839 0.94247 0.0
H4824 H 0.90621 0.64226 0.92723 0.0
H4825 H 0.86565 0.64047 0.91571 0.0
H4826 H 0.90462 0.64793 0.95751 0.0
H4827 H 0.90606 0.66401 0.95411 0.0
H4828 H 0.9153 0.6531 0.94608 0.0
H4829 H 0.85386 0.64523 0.94353 0.0
H4830 H 0.85074 0.64908 0.92814 0.0
H4831 H 0.85729 0.66129 0.94022 0.0
C4832 C 0.05042 0.12656 0.69546 0.0
C4833 C 0.03756 0.12799 0.69799 0.0
C4834 C 0.05409 0.12519 0.6834 0.0
C4835 C 0.04468 0.12527 0.67355 0.0
C4836 C 0.03171 0.12688 0.67601 0.0
C4837 C 0.02828 0.12816 0.68822 0.0
C4838 C 0.068 0.12337 0.68118 0.0
C4839 C 0.02146 0.1271 0.66576 0.0
C4840 C 0.05982 0.13076 0.64357 0.0
C4841 C 0.0599 0.11828 0.63838 0.0
C4842 C 0.05413 0.13326 0.65469 0.0
C4843 C 0.04845 0.12303 0.66074 0.0
C4844 C 0.04777 0.11047 0.65513 0.0
C4845 C 0.05346 0.10826 0.64401 0.0
C4846 C 0.05494 0.14679 0.66033 0.0
C4847 C 0.04177 0.09929 0.66124 0.0
H4848 H 0.05758 0.12621 0.70295 0.0
H4849 H 0.01836 0.12936 0.69013 0.0
H4850 H 0.06816 0.114 0.67595 0.0
H4851 H 0.07237 0.13069 0.6756 0.0
H4852 H 0.0742 0.12391 0.68985 0.0
H4853 H 0.01199 0.12907 0.66921 0.0
H4854 H 0.02482 0.13442 0.65974 0.0
H4855 H 0.01986 0.11784 0.66002 0.0
H4856 H 0.06481 0.13854 0.63929 0.0
H4857 H 0.05326 0.09861 0.6399 0.0
H4858 H 0.06217 0.14847 0.66837 0.0
H4859 H 0.04541 0.14864 0.66365 0.0
H4860 H 0.05795 0.15368 0.65375 0.0
H4861 H 0.04796 0.09832 0.66958 0.0
H4862 H 0.0408 0.09028 0.65512 0.0
H4863 H 0.03199 0.10078 0.66418 0.0
C4864 C 0.59151 0.3081 0.47106 0.0
C4865 C 0.59426 0.31518 0.48256 0.0
C4866 C 0.59049 0.3141 0.4603 0.0
C4867 C 0.59224 0.3275 0.46107 0.0
C4868 C 0.59467 0.33468 0.47268 0.0
C4869 C 0.5957 0.32845 0.48325 0.0
C4870 C 0.58788 0.30611 0.44809 0.0
C4871 C 0.59659 0.34899 0.4739 0.0
C4872 C 0.60449 0.34424 0.43424 0.0
C4873 C 0.59308 0.34801 0.42926 0.0
C4874 C 0.60427 0.33727 0.4444 0.0
C4875 C 0.59234 0.33407 0.44975 0.0
C4876 C 0.58073 0.33768 0.44463 0.0
C4877 C 0.58123 0.34461 0.4344 0.0
C4878 C 0.61687 0.33356 0.44955 0.0
C4879 C 0.56784 0.33449 0.45012 0.0
H4880 H 0.59022 0.29784 0.47045 0.0
H4881 H 0.59805 0.33403 0.49206 0.0
H4882 H 0.57933 0.30878 0.44294 0.0
H4883 H 0.59638 0.30788 0.44251 0.0
H4884 H 0.58603 0.29582 0.4491 0.0
H4885 H 0.59755 0.35317 0.48362 0.0
H4886 H 0.60552 0.35251 0.46949 0.0
H4887 H 0.58826 0.35246 0.46913 0.0
H4888 H 0.61366 0.34686 0.43025 0.0
H4889 H 0.57237 0.34753 0.43059 0.0
H4890 H 0.61579 0.32318 0.45002 0.0
H4891 H 0.61924 0.33821 0.45904 0.0
H4892 H 0.62519 0.33628 0.44399 0.0
H4893 H 0.5658 0.32416 0.45076 0.0
H4894 H 0.5596 0.33741 0.44468 0.0
H4895 H 0.56831 0.33931 0.45957 0.0
C4896 C 0.43825 0.88874 0.21846 0.0
C4897 C 0.45049 0.88561 0.22215 0.0
C4898 C 0.43527 0.89095 0.20632 0.0
C4899 C 0.44477 0.89008 0.19765 0.0
C4900 C 0.45709 0.88679 0.20126 0.0
C4901 C 0.4598 0.88458 0.21347 0.0
C4902 C 0.42201 0.89445 0.20283 0.0
C4903 C 0.46746 0.88577 0.19227 0.0
C4904 C 0.43262 0.88661 0.16403 0.0
C4905 C 0.43492 0.89919 0.16129 0.0
C4906 C 0.43604 0.88344 0.17578 0.0
C4907 C 0.44191 0.89308 0.18493 0.0
C4908 C 0.44454 0.90573 0.18208 0.0
C4909 C 0.44097 0.90863 0.17029 0.0
C4910 C 0.43306 0.86985 0.17849 0.0
C4911 C 0.45084 0.91626 0.19156 0.0
H4912 H 0.43107 0.88975 0.22514 0.0
H4913 H 0.46921 0.882 0.21621 0.0
H4914 H 0.42313 0.90411 0.19985 0.0
H4915 H 0.41717 0.88785 0.19499 0.0
H4916 H 0.41554 0.89423 0.21053 0.0
H4917 H 0.47641 0.88277 0.19645 0.0
H4918 H 0.46364 0.87885 0.18429 0.0
H4919 H 0.47015 0.89505 0.18876 0.0
H4920 H 0.42792 0.87927 0.15709 0.0
H4921 H 0.44275 0.91835 0.16816 0.0
H4922 H 0.42584 0.86915 0.18554 0.0
H4923 H 0.442 0.86656 0.18227 0.0
H4924 H 0.42908 0.86339 0.17021 0.0
H4925 H 0.4444 0.91736 0.1992 0.0
H4926 H 0.45278 0.92548 0.18771 0.0
H4927 H 0.46018 0.91388 0.1955 0.0
C4928 C 0.88974 0.38593 0.53345 0.0
C4929 C 0.88584 0.3729 0.53029 0.0
C4930 C 0.89169 0.3911 0.54573 0.0
C4931 C 0.88981 0.38305 0.55513 0.0
C4932 C 0.88625 0.36985 0.55204 0.0
C4933 C 0.88428 0.36493 0.53965 0.0
C4934 C 0.89547 0.40524 0.54865 0.0
C4935 C 0.88423 0.36097 0.56182 0.0
C4936 C 0.90431 0.39728 0.58679 0.0
C4937 C 0.8935 0.40176 0.59191 0.0
C4938 C 0.90317 0.3907 0.57499 0.0
C4939 C 0.89094 0.38864 0.56815 0.0
C4940 C 0.8799 0.39272 0.57345 0.0
C4941 C 0.8813 0.39916 0.58528 0.0
C4942 C 0.91514 0.3864 0.56967 0.0
C4943 C 0.86668 0.39069 0.56647 0.0
H4944 H 0.89124 0.39212 0.52628 0.0
H4945 H 0.88117 0.35487 0.53729 0.0
H4946 H 0.88775 0.4093 0.55367 0.0
H4947 H 0.9046 0.40729 0.5547 0.0
H4948 H 0.89694 0.41013 0.54028 0.0
H4949 H 0.88239 0.35087 0.55793 0.0
H4950 H 0.89292 0.36234 0.56845 0.0
H4951 H 0.8758 0.36313 0.56702 0.0
H4952 H 0.91378 0.3993 0.59183 0.0
H4953 H 0.87285 0.40236 0.58929 0.0
H4954 H 0.91786 0.39191 0.56195 0.0
H4955 H 0.91308 0.37628 0.56595 0.0
H4956 H 0.9236 0.38766 0.57656 0.0
H4957 H 0.86711 0.39607 0.55834 0.0
H4958 H 0.85894 0.3938 0.57215 0.0
H4959 H 0.86389 0.38054 0.56308 0.0
C4960 C 0.4701 0.14082 0.30896 0.0
C4961 C 0.48376 0.14304 0.31071 0.0
C4962 C 0.46232 0.13955 0.3189 0.0
C4963 C 0.46833 0.14048 0.33091 0.0
C4964 C 0.48209 0.14313 0.33279 0.0
C4965 C 0.48964 0.14437 0.32267 0.0
C4966 C 0.44769 0.13669 0.3165 0.0
C4967 C 0.48884 0.14426 0.34547 0.0
C4968 C 0.4467 0.14454 0.35743 0.0
C4969 C 0.44378 0.132 0.36015 0.0
C4970 C 0.45491 0.14752 0.34807 0.0
C4971 C 0.46025 0.13773 0.34133 0.0
C4972 C 0.45748 0.1251 0.34423 0.0
C4973 C 0.44928 0.12241 0.3536 0.0
C4974 C 0.45765 0.16108 0.34523 0.0
C4975 C 0.46299 0.11439 0.33727 0.0
H4976 H 0.46548 0.13962 0.29974 0.0
H4977 H 0.50018 0.14625 0.3241 0.0
H4978 H 0.44424 0.12705 0.31892 0.0
H4979 H 0.44286 0.14346 0.32233 0.0
H4980 H 0.4445 0.13718 0.30675 0.0
H4981 H 0.49952 0.14729 0.34548 0.0
H4982 H 0.48466 0.15117 0.35173 0.0
H4983 H 0.48724 0.13499 0.34923 0.0
H4984 H 0.44246 0.15199 0.36247 0.0
H4985 H 0.44701 0.11272 0.35571 0.0
H4986 H 0.45369 0.16186 0.33579 0.0
H4987 H 0.46833 0.16415 0.34561 0.0
H4988 H 0.45327 0.16767 0.3517 0.0
H4989 H 0.45942 0.11346 0.32747 0.0
H4990 H 0.46023 0.10517 0.34093 0.0
H4991 H 0.47379 0.11644 0.33769 0.0
C4992 C 0.5758 0.651 0.02637 0.0
C4993 C 0.58838 0.65592 0.0236 0.0
C4994 C 0.57363 0.64599 0.03753 0.0
C4995 C 0.58433 0.64588 0.04611 0.0
C4996 C 0.59696 0.65135 0.0436 0.0
C4997 C 0.59884 0.65632 0.03239 0.0
C4998 C 0.56 0.64034 0.0399 0.0
C4999 C 0.60862 0.65138 0.0525 0.0
C5000 C 0.57833 0.63879 0.07875 0.0
C5001 C 0.57961 0.62588 0.07808 0.0
C5002 C 0.57972 0.64545 0.06839 0.0
C5003 C 0.58251 0.63903 0.05717 0.0
C5004 C 0.58373 0.62597 0.05648 0.0
C5005 C 0.58224 0.61957 0.06694 0.0
C5006 C 0.57831 0.65935 0.06945 0.0
C5007 C 0.58671 0.61877 0.0447 0.0
H5008 H 0.56765 0.65083 0.01969 0.0
H5009 H 0.60861 0.65999 0.03027 0.0
H5010 H 0.55952 0.62994 0.03993 0.0
H5011 H 0.55742 0.64418 0.04904 0.0
H5012 H 0.55259 0.64224 0.03285 0.0
H5013 H 0.61755 0.657 0.0497 0.0
H5014 H 0.60662 0.6553 0.0618 0.0
H5015 H 0.61057 0.64152 0.05309 0.0
H5016 H 0.57628 0.64372 0.08736 0.0
H5017 H 0.58324 0.60959 0.06643 0.0
H5018 H 0.57056 0.66106 0.06268 0.0
H5019 H 0.58753 0.66496 0.06731 0.0
H5020 H 0.57587 0.66289 0.07875 0.0
H5021 H 0.57908 0.61933 0.03735 0.0
H5022 H 0.58728 0.60863 0.04569 0.0
H5023 H 0.59615 0.62312 0.04167 0.0
C5024 C 0.02404 0.88126 0.84024 0.0
C5025 C 0.03251 0.88301 0.83086 0.0
C5026 C 0.02893 0.88057 0.85232 0.0
C5027 C 0.04259 0.88179 0.85506 0.0
C5028 C 0.05115 0.88368 0.84563 0.0
C5029 C 0.04601 0.88424 0.83367 0.0
C5030 C 0.01953 0.87846 0.86213 0.0
C5031 C 0.06579 0.8852 0.84818 0.0
C5032 C 0.05933 0.89264 0.88651 0.0
C5033 C 0.06353 0.88143 0.88981 0.0
C5034 C 0.05174 0.89276 0.87557 0.0
C5035 C 0.04815 0.88136 0.86777 0.0
C5036 C 0.05148 0.86984 0.8715 0.0
C5037 C 0.05918 0.87002 0.88248 0.0
C5038 C 0.04837 0.90524 0.87195 0.0
C5039 C 0.04773 0.85746 0.8635 0.0
H5040 H 0.0136 0.88023 0.83807 0.0
H5041 H 0.0526 0.8858 0.82649 0.0
H5042 H 0.02097 0.86967 0.86629 0.0
H5043 H 0.02146 0.88639 0.86956 0.0
H5044 H 1.00919 0.87765 0.8585 0.0
H5045 H 0.07108 0.8866 0.83981 0.0
H5046 H 0.06903 0.89345 0.85509 0.0
H5047 H 0.06863 0.87669 0.85203 0.0
H5048 H 0.06246 0.90146 0.89228 0.0
H5049 H 0.0624 0.86132 0.88495 0.0
H5050 H 0.03793 0.90434 0.86871 0.0
H5051 H 0.05419 0.90806 0.86426 0.0
H5052 H 0.05043 0.91291 0.87965 0.0
H5053 H 0.03733 0.85638 0.86003 0.0
H5054 H 0.04933 0.84919 0.86846 0.0
H5055 H 0.05367 0.85739 0.85542 0.0
C5056 C 0.95464 0.94427 0.73643 0.0
C5057 C 0.95028 0.93936 0.74706 0.0
C5058 C 0.94605 0.94872 0.72811 0.0
C5059 C 0.93277 0.94844 0.73056 0.0
C5060 C 0.92855 0.94457 0.7418 0.0
C5061 C 0.93735 0.93999 0.74991 0.0
C5062 C 0.95099 0.95277 0.71625 0.0
C5063 C 0.91455 0.94444 0.74489 0.0
C5064 C 0.91314 0.96409 0.70756 0.0
C5065 C 0.90851 0.95369 0.69895 0.0
C5066 C 0.92039 0.9625 0.7184 0.0
C5067 C 0.92313 0.95025 0.72053 0.0
C5068 C 0.91774 0.93966 0.71222 0.0
C5069 C 0.91042 0.9415 0.70162 0.0
C5070 C 0.92569 0.97398 0.72719 0.0
C5071 C 0.92039 0.92642 0.7141 0.0
H5072 H 0.96472 0.94416 0.73435 0.0
H5073 H 0.93389 0.93626 0.75812 0.0
H5074 H 0.94666 0.94573 0.70853 0.0
H5075 H 0.94798 0.96203 0.71451 0.0
H5076 H 0.96179 0.95359 0.71626 0.0
H5077 H 0.91342 0.94365 0.75478 0.0
H5078 H 0.91078 0.95314 0.74241 0.0
H5079 H 0.90841 0.93623 0.73954 0.0
H5080 H 0.91163 0.97352 0.70558 0.0
H5081 H 0.90656 0.93339 0.69515 0.0
H5082 H 0.93626 0.97654 0.72612 0.0
H5083 H 0.92462 0.97194 0.73681 0.0
H5084 H 0.92072 0.98227 0.72551 0.0
H5085 H 0.93095 0.92586 0.71355 0.0
H5086 H 0.91485 0.91914 0.70716 0.0
H5087 H 0.91778 0.92408 0.72333 0.0
C5088 C 0.87973 0.26253 0.43421 0.0
C5089 C 0.87968 0.26283 0.447 0.0
C5090 C 0.88195 0.25162 0.42695 0.0
C5091 C 0.88431 0.24076 0.4326 0.0
C5092 C 0.88409 0.2409 0.44548 0.0
C5093 C 0.88174 0.25193 0.45252 0.0
C5094 C 0.88206 0.25183 0.41324 0.0
C5095 C 0.88659 0.2295 0.45183 0.0
C5096 C 0.88084 0.2094 0.41242 0.0
C5097 C 0.89382 0.20866 0.40985 0.0
C5098 C 0.87759 0.21973 0.41995 0.0
C5099 C 0.88758 0.22946 0.42505 0.0
C5100 C 0.90072 0.22864 0.42261 0.0
C5101 C 0.90366 0.21827 0.41499 0.0
C5102 C 0.86347 0.22034 0.42226 0.0
C5103 C 0.91166 0.23879 0.42794 0.0
H5104 H 0.87838 0.27096 0.42986 0.0
H5105 H 0.88155 0.25202 0.46237 0.0
H5106 H 0.89194 0.25074 0.41031 0.0
H5107 H 0.87521 0.24376 0.40847 0.0
H5108 H 0.87931 0.26077 0.41021 0.0
H5109 H 0.88564 0.23098 0.46186 0.0
H5110 H 0.87966 0.22107 0.44792 0.0
H5111 H 0.89657 0.22733 0.45027 0.0
H5112 H 0.87317 0.20201 0.40842 0.0
H5113 H 0.9137 0.21768 0.41301 0.0
H5114 H 0.86033 0.22884 0.41861 0.0
H5115 H 0.86226 0.22128 0.43225 0.0
H5116 H 0.85692 0.21182 0.41791 0.0
H5117 H 0.91023 0.24796 0.42456 0.0
H5118 H 0.92139 0.2365 0.42551 0.0
H5119 H 0.91157 0.24008 0.43807 0.0
C5120 C 0.57451 0.11034 0.22615 0.0
C5121 C 0.56496 0.11228 0.21722 0.0
C5122 C 0.5852 0.10423 0.22289 0.0
C5123 C 0.58636 0.10005 0.21043 0.0
C5124 C 0.5764 0.10144 0.2015 0.0
C5125 C 0.56582 0.10747 0.20501 0.0
C5126 C 0.59553 0.10276 0.23269 0.0
C5127 C 0.57722 0.0971 0.1881 0.0
C5128 C 0.61858 0.09972 0.19622 0.0
C5129 C 0.61873 0.0867 0.19334 0.0
C5130 C 0.60856 0.1042 0.20265 0.0
C5131 C 0.59848 0.09543 0.20636 0.0
C5132 C 0.59922 0.08228 0.20445 0.0
C5133 C 0.60936 0.07805 0.19791 0.0
C5134 C 0.60822 0.1183 0.20454 0.0
C5135 C 0.58879 0.07265 0.20846 0.0
H5136 H 0.57391 0.11403 0.2356 0.0
H5137 H 0.5583 0.10865 0.19812 0.0
H5138 H 0.59827 0.09307 0.23159 0.0
H5139 H 0.60444 0.1095 0.2318 0.0
H5140 H 0.59224 0.10466 0.24204 0.0
H5141 H 0.5683 0.09821 0.18244 0.0
H5142 H 0.58572 0.10268 0.18456 0.0
H5143 H 0.5787 0.087 0.18692 0.0
H5144 H 0.62597 0.10642 0.19287 0.0
H5145 H 0.60947 0.06797 0.19571 0.0
H5146 H 0.60628 0.12126 0.21413 0.0
H5147 H 0.60017 0.12073 0.19851 0.0
H5148 H 0.61749 0.12385 0.20239 0.0
H5149 H 0.58604 0.07569 0.21778 0.0
H5150 H 0.59199 0.06316 0.20842 0.0
H5151 H 0.57992 0.07181 0.20212 0.0
C5152 C 0.62391 0.75634 0.93605 0.0
C5153 C 0.61351 0.75417 0.94354 0.0
C5154 C 0.62493 0.76652 0.92887 0.0
C5155 C 0.61534 0.77476 0.9292 0.0
C5156 C 0.60502 0.77285 0.937 0.0
C5157 C 0.60422 0.76258 0.94406 0.0
C5158 C 0.63611 0.76825 0.9207 0.0
C5159 C 0.5946 0.78144 0.9376 0.0
C5160 C 0.6229 0.80665 0.91672 0.0
C5161 C 0.61657 0.80412 0.90494 0.0
C5162 C 0.62255 0.7972 0.92475 0.0
C5163 C 0.61573 0.78496 0.9209 0.0
C5164 C 0.60931 0.7824 0.90901 0.0
C5165 C 0.6098 0.79202 0.9012 0.0
C5166 C 0.62947 0.80029 0.93736 0.0
C5167 C 0.60196 0.76948 0.90454 0.0
H5168 H 0.63124 0.75002 0.93575 0.0
H5169 H 0.59607 0.7609 0.94971 0.0
H5170 H 0.63227 0.76704 0.91097 0.0
H5171 H 0.64147 0.77799 0.92262 0.0
H5172 H 0.64309 0.76138 0.92193 0.0
H5173 H 0.5877 0.77916 0.94469 0.0
H5174 H 0.59912 0.79147 0.93963 0.0
H5175 H 0.58898 0.78055 0.92859 0.0
H5176 H 0.62812 0.816 0.91968 0.0
H5177 H 0.60489 0.79006 0.8921 0.0
H5178 H 0.63698 0.79396 0.93858 0.0
H5179 H 0.62243 0.7986 0.94445 0.0
H5180 H 0.63427 0.81028 0.93899 0.0
H5181 H 0.60865 0.76223 0.90474 0.0
H5182 H 0.59746 0.76905 0.89506 0.0
H5183 H 0.59415 0.76692 0.9107 0.0
C5184 C 0.92698 0.10451 0.7795 0.0
C5185 C 0.93951 0.10251 0.78368 0.0
C5186 C 0.91636 0.10255 0.7868 0.0
C5187 C 0.91833 0.09859 0.7986 0.0
C5188 C 0.93084 0.09609 0.80267 0.0
C5189 C 0.94124 0.098 0.79514 0.0
C5190 C 0.90314 0.1052 0.78209 0.0
C5191 C 0.93337 0.09188 0.8152 0.0
C5192 C 0.89652 0.10838 0.82332 0.0
C5193 C 0.88835 0.09704 0.82419 0.0
C5194 C 0.90619 0.10903 0.81492 0.0
C5195 C 0.90765 0.09807 0.8071 0.0
C5196 C 0.89924 0.08663 0.80776 0.0
C5197 C 0.88971 0.08622 0.81636 0.0
C5198 C 0.91501 0.12139 0.81459 0.0
C5199 C 0.90043 0.07479 0.79948 0.0
H5200 H 0.92554 0.10807 0.7707 0.0
H5201 H 0.95081 0.09615 0.79834 0.0
H5202 H 0.89554 0.09715 0.78319 0.0
H5203 H 0.90056 0.11368 0.78752 0.0
H5204 H 0.9029 0.10692 0.77228 0.0
H5205 H 0.94344 0.08959 0.81669 0.0
H5206 H 0.93188 0.0995 0.82235 0.0
H5207 H 0.92637 0.08341 0.81645 0.0
H5208 H 0.89547 0.11675 0.82938 0.0
H5209 H 0.88337 0.07744 0.81697 0.0
H5210 H 0.91448 0.12442 0.80523 0.0
H5211 H 0.92528 0.1201 0.81687 0.0
H5212 H 0.91243 0.12909 0.82113 0.0
H5213 H 0.89977 0.07675 0.78976 0.0
H5214 H 0.89275 0.06684 0.80072 0.0
H5215 H 0.91011 0.07178 0.80137 0.0
C5216 C 0.62081 0.23942 0.58428 0.0
C5217 C 0.63159 0.24858 0.58325 0.0
C5218 C 0.62226 0.22839 0.58985 0.0
C5219 C 0.63479 0.22648 0.59452 0.0
C5220 C 0.64577 0.23542 0.59304 0.0
C5221 C 0.64404 0.24636 0.58743 0.0
C5222 C 0.6103 0.21907 0.59124 0.0
C5223 C 0.65929 0.2337 0.59783 0.0
C5224 C 0.63592 0.20699 0.62148 0.0
C5225 C 0.63801 0.19517 0.61585 0.0
C5226 C 0.63501 0.21726 0.61464 0.0
C5227 C 0.63622 0.2157 0.60185 0.0
C5228 C 0.63856 0.20386 0.59612 0.0
C5229 C 0.63946 0.19373 0.60321 0.0
C5230 C 0.6326 0.22975 0.62112 0.0
C5231 C 0.63988 0.20185 0.5825 0.0
H5232 H 0.61115 0.24111 0.58119 0.0
H5233 H 0.65244 0.2533 0.58649 0.0
H5234 H 0.61189 0.20933 0.58788 0.0
H5235 H 0.60845 0.21911 0.60108 0.0
H5236 H 0.60148 0.22136 0.58619 0.0
H5237 H 0.66693 0.24096 0.59506 0.0
H5238 H 0.6598 0.23435 0.60799 0.0
H5239 H 0.66152 0.22417 0.59447 0.0
H5240 H 0.635 0.20821 0.63128 0.0
H5241 H 0.64096 0.18459 0.5988 0.0
H5242 H 0.62329 0.23235 0.61735 0.0
H5243 H 0.64048 0.23736 0.61953 0.0
H5244 H 0.63212 0.22945 0.63116 0.0
H5245 H 0.63065 0.20319 0.57749 0.0
H5246 H 0.64218 0.19223 0.57953 0.0
H5247 H 0.64767 0.20897 0.57981 0.0
C5248 C 0.56755 0.90323 0.30194 0.0
C5249 C 0.55601 0.90257 0.30808 0.0
C5250 C 0.57983 0.90541 0.30847 0.0
C5251 C 0.58059 0.90683 0.32143 0.0
C5252 C 0.56901 0.9065 0.32768 0.0
C5253 C 0.55689 0.90446 0.32093 0.0
C5254 C 0.59197 0.90584 0.3015 0.0
C5255 C 0.56941 0.90795 0.3415 0.0
C5256 C 0.60977 0.89801 0.33936 0.0
C5257 C 0.61645 0.90993 0.34404 0.0
C5258 C 0.59827 0.89689 0.33173 0.0
C5259 C 0.59341 0.90795 0.32855 0.0
C5260 C 0.60039 0.92001 0.33279 0.0
C5261 C 0.6118 0.92086 0.34054 0.0
C5262 C 0.5911 0.88384 0.32743 0.0
C5263 C 0.59558 0.93202 0.32947 0.0
H5264 H 0.56698 0.90168 0.29203 0.0
H5265 H 0.54805 0.90426 0.32575 0.0
H5266 H 0.59884 0.91453 0.30474 0.0
H5267 H 0.59704 0.89762 0.30321 0.0
H5268 H 0.58976 0.90562 0.29147 0.0
H5269 H 0.55954 0.90786 0.34495 0.0
H5270 H 0.57394 0.90012 0.34512 0.0
H5271 H 0.57552 0.91695 0.34525 0.0
H5272 H 0.61345 0.88951 0.34179 0.0
H5273 H 0.61684 0.93011 0.34418 0.0
H5274 H 0.58948 0.88263 0.3173 0.0
H5275 H 0.58136 0.88272 0.3312 0.0
H5276 H 0.59646 0.87619 0.3303 0.0
H5277 H 0.59352 0.93155 0.31941 0.0
H5278 H 0.60274 0.94057 0.33256 0.0
H5279 H 0.58631 0.93307 0.33376 0.0
C5280 C 0.8449 0.77061 0.075 0.0
C5281 C 0.85469 0.76921 0.06688 0.0
C5282 C 0.84573 0.78134 0.08357 0.0
C5283 C 0.85661 0.79092 0.08402 0.0
C5284 C 0.86623 0.78983 0.07549 0.0
C5285 C 0.86516 0.77898 0.06703 0.0
C5286 C 0.83524 0.78218 0.09246 0.0
C5287 C 0.87797 0.79986 0.07567 0.0
C5288 C 0.85558 0.82303 0.10181 0.0
C5289 C 0.86252 0.82181 0.11286 0.0
C5290 C 0.85349 0.81302 0.09233 0.0
C5291 C 0.85846 0.80157 0.09399 0.0
C5292 C 0.86537 0.80029 0.10518 0.0
C5293 C 0.86733 0.81043 0.11447 0.0
C5294 C 0.84608 0.81473 0.08052 0.0
C5295 C 0.8708 0.78821 0.10731 0.0
H5296 H 0.83667 0.76317 0.0748 0.0
H5297 H 0.87283 0.77792 0.06088 0.0
H5298 H 0.8394 0.78164 0.10188 0.0
H5299 H 0.83151 0.79142 0.09243 0.0
H5300 H 0.82692 0.77446 0.09027 0.0
H5301 H 0.88397 0.79813 0.06779 0.0
H5302 H 0.87486 0.80936 0.07551 0.0
H5303 H 0.88418 0.80004 0.08427 0.0
H5304 H 0.85186 0.83183 0.10051 0.0
H5305 H 0.8727 0.8095 0.12301 0.0
H5306 H 0.83751 0.80726 0.07862 0.0
H5307 H 0.85239 0.81371 0.07278 0.0
H5308 H 0.84265 0.82414 0.08077 0.0
H5309 H 0.86282 0.7801 0.1062 0.0
H5310 H 0.8758 0.78869 0.11659 0.0
H5311 H 0.87785 0.78625 0.1004 0.0
C5312 C 0.67256 0.92525 0.89121 0.0
C5313 C 0.68624 0.92658 0.89195 0.0
C5314 C 0.66505 0.91339 0.89143 0.0
C5315 C 0.67134 0.90254 0.89233 0.0
C5316 C 0.68514 0.90384 0.8934 0.0
C5317 C 0.69243 0.91585 0.8932 0.0
C5318 C 0.65035 0.91243 0.89024 0.0
C5319 C 0.69218 0.89249 0.89442 0.0
C5320 C 0.64942 0.87359 0.90031 0.0
C5321 C 0.64517 0.86749 0.88863 0.0
C5322 C 0.65846 0.88473 0.90175 0.0
C5323 C 0.66337 0.88981 0.89124 0.0
C5324 C 0.65966 0.88327 0.87948 0.0
C5325 C 0.65059 0.87221 0.87832 0.0
C5326 C 0.6622 0.89143 0.91443 0.0
C5327 C 0.66475 0.88829 0.86805 0.0
H5328 H 0.66768 0.93343 0.89005 0.0
H5329 H 0.70299 0.91683 0.89393 0.0
H5330 H 0.64649 0.90674 0.8815 0.0
H5331 H 0.64608 0.90749 0.89779 0.0
H5332 H 0.64699 0.92186 0.89042 0.0
H5333 H 0.7029 0.89521 0.89612 0.0
H5334 H 0.68852 0.88713 0.90195 0.0
H5335 H 0.69022 0.88599 0.88582 0.0
H5336 H 0.6452 0.86999 0.90829 0.0
H5337 H 0.64746 0.86739 0.86929 0.0
H5338 H 0.65782 0.90034 0.91546 0.0
H5339 H 0.67294 0.89404 0.91586 0.0
H5340 H 0.6588 0.88552 0.92169 0.0
H5341 H 0.66094 0.8973 0.8667 0.0
H5342 H 0.66181 0.88152 0.85974 0.0
H5343 H 0.67555 0.89039 0.86901 0.0
C5344 C 0.18049 0.56875 0.12235 0.0
C5345 C 0.19381 0.56799 0.12143 0.0
C5346 C 0.17589 0.58048 0.12401 0.0
C5347 C 0.18483 0.59179 0.12479 0.0
C5348 C 0.19826 0.59113 0.12368 0.0
C5349 C 0.20261 0.57923 0.12204 0.0
C5350 C 0.1615 0.58077 0.12522 0.0
C5351 C 0.20807 0.60298 0.12442 0.0
C5352 C 0.17003 0.62181 0.12033 0.0
C5353 C 0.16895 0.62665 0.13249 0.0
C5354 C 0.17557 0.61066 0.11766 0.0
C5355 C 0.18009 0.60424 0.12738 0.0
C5356 C 0.17934 0.60931 0.13966 0.0
C5357 C 0.17378 0.62046 0.14205 0.0
C5358 C 0.17625 0.60556 0.10445 0.0
C5359 C 0.18403 0.60276 0.15028 0.0
H5360 H 0.17365 0.56012 0.1221 0.0
H5361 H 0.21289 0.57871 0.12121 0.0
H5362 H 0.15995 0.58527 0.13444 0.0
H5363 H 0.15762 0.58656 0.11841 0.0
H5364 H 0.15577 0.57114 0.12388 0.0
H5365 H 0.21807 0.60086 0.12281 0.0
H5366 H 0.20516 0.60922 0.11757 0.0
H5367 H 0.20829 0.60836 0.13359 0.0
H5368 H 0.16633 0.62658 0.1129 0.0
H5369 H 0.17296 0.62421 0.15146 0.0
H5370 H 0.16981 0.59635 0.10247 0.0
H5371 H 0.18632 0.60379 0.10274 0.0
H5372 H 0.17319 0.61213 0.09798 0.0
H5373 H 0.17808 0.59334 0.15021 0.0
H5374 H 0.1834 0.60829 0.15926 0.0
H5375 H 0.19429 0.60114 0.14938 0.0
C5376 C 0.23296 0.46439 0.85059 0.0
C5377 C 0.24207 0.45606 0.85251 0.0
C5378 C 0.2195 0.4603 0.8504 0.0
C5379 C 0.21504 0.44755 0.85207 0.0
C5380 C 0.22415 0.43899 0.85358 0.0
C5381 C 0.23754 0.44336 0.85385 0.0
C5382 C 0.21008 0.46971 0.84878 0.0
C5383 C 0.21977 0.4253 0.85532 0.0
C5384 C 0.18258 0.43918 0.86561 0.0
C5385 C 0.17452 0.43389 0.85523 0.0
C5386 C 0.1957 0.44397 0.86465 0.0
C5387 C 0.20091 0.44331 0.85302 0.0
C5388 C 0.19274 0.43815 0.84245 0.0
C5389 C 0.17959 0.43353 0.84368 0.0
C5390 C 0.20405 0.4495 0.87611 0.0
C5391 C 0.19798 0.4372 0.82992 0.0
H5392 H 0.23636 0.47416 0.84934 0.0
H5393 H 0.24447 0.43688 0.85551 0.0
H5394 H 0.20269 0.46607 0.84113 0.0
H5395 H 0.20478 0.47101 0.8572 0.0
H5396 H 0.21508 0.47909 0.84692 0.0
H5397 H 0.22801 0.41966 0.85547 0.0
H5398 H 0.21504 0.42476 0.86409 0.0
H5399 H 0.21241 0.42091 0.84787 0.0
H5400 H 0.17864 0.43947 0.87454 0.0
H5401 H 0.1734 0.4294 0.83563 0.0
H5402 H 0.2087 0.45923 0.87504 0.0
H5403 H 0.212 0.44373 0.87767 0.0
H5404 H 0.19835 0.44986 0.88436 0.0
H5405 H 0.20266 0.44664 0.82792 0.0
H5406 H 0.19023 0.4335 0.82257 0.0
H5407 H 0.20559 0.43084 0.82969 0.0
C5408 C 0.31175 0.43585 0.64225 0.0
C5409 C 0.29815 0.43353 0.64266 0.0
C5410 C 0.31907 0.42592 0.6398 0.0
C5411 C 0.31267 0.41329 0.63782 0.0
C5412 C 0.29897 0.41083 0.63841 0.0
C5413 C 0.29186 0.42098 0.64081 0.0
C5414 C 0.33367 0.42895 0.63927 0.0
C5415 C 0.29183 0.39748 0.63641 0.0
C5416 C 0.33153 0.39021 0.62039 0.0
C5417 C 0.33778 0.38506 0.62997 0.0
C5418 C 0.3229 0.39905 0.62278 0.0
C5419 C 0.32042 0.40276 0.63505 0.0
C5420 C 0.32624 0.39715 0.64472 0.0
C5421 C 0.33489 0.3884 0.64206 0.0
C5422 C 0.31693 0.40486 0.61223 0.0
C5423 C 0.32374 0.40076 0.6579 0.0
H5424 H 0.31673 0.44548 0.64392 0.0
H5425 H 0.28135 0.41912 0.64102 0.0
H5426 H 0.33873 0.42409 0.64619 0.0
H5427 H 0.33656 0.4254 0.63015 0.0
H5428 H 0.33714 0.43928 0.64097 0.0
H5429 H 0.28121 0.39713 0.63753 0.0
H5430 H 0.29318 0.39316 0.62706 0.0
H5431 H 0.29595 0.39157 0.64298 0.0
H5432 H 0.33382 0.38775 0.61104 0.0
H5433 H 0.33957 0.3843 0.64948 0.0
H5434 H 0.3209 0.41507 0.6128 0.0
H5435 H 0.30622 0.40422 0.61273 0.0
H5436 H 0.31897 0.40021 0.6032 0.0
H5437 H 0.32799 0.41077 0.66069 0.0
H5438 H 0.32806 0.3947 0.66422 0.0
H5439 H 0.3131 0.40002 0.65898 0.0
C5440 C 0.7743 0.04732 0.86683 0.0
C5441 C 0.76948 0.03453 0.86335 0.0
C5442 C 0.78701 0.05235 0.86462 0.0
C5443 C 0.79518 0.0444 0.85877 0.0
C5444 C 0.79039 0.03148 0.85515 0.0
C5445 C 0.77759 0.02668 0.85752 0.0
C5446 C 0.79177 0.06616 0.86871 0.0
C5447 C 0.79881 0.02275 0.84887 0.0
C5448 C 0.82401 0.06298 0.84582 0.0
C5449 C 0.83351 0.06404 0.8556 0.0
C5450 C 0.81168 0.05586 0.84633 0.0
C5451 C 0.80885 0.04969 0.85688 0.0
C5452 C 0.81874 0.04998 0.86637 0.0
C5453 C 0.83095 0.05714 0.86561 0.0
C5454 C 0.80142 0.05572 0.836 0.0
C5455 C 0.81616 0.04346 0.87773 0.0
H5456 H 0.76817 0.05339 0.87153 0.0
H5457 H 0.77388 0.01681 0.85472 0.0
H5458 H 0.80024 0.06702 0.87552 0.0
H5459 H 0.7951 0.07108 0.8608 0.0
H5460 H 0.78409 0.07112 0.87289 0.0
H5461 H 0.79353 0.01303 0.84635 0.0
H5462 H 0.80229 0.02658 0.84044 0.0
H5463 H 0.80757 0.02216 0.85496 0.0
H5464 H 0.82592 0.06834 0.83809 0.0
H5465 H 0.83836 0.05779 0.8731 0.0
H5466 H 0.79404 0.06173 0.83905 0.0
H5467 H 0.79627 0.04598 0.8334 0.0
H5468 H 0.80564 0.05938 0.82777 0.0
H5469 H 0.80947 0.04853 0.88327 0.0
H5470 H 0.82526 0.04328 0.88352 0.0
H5471 H 0.81132 0.0336 0.87525 0.0
C5472 C 0.85185 0.08397 0.3666 0.0
C5473 C 0.84986 0.07772 0.37709 0.0
C5474 C 0.8565 0.09696 0.36755 0.0
C5475 C 0.85934 0.10384 0.37928 0.0
C5476 C 0.85689 0.09768 0.3899 0.0
C5477 C 0.85213 0.08469 0.38867 0.0
C5478 C 0.85886 0.10322 0.356 0.0
C5479 C 0.85988 0.10466 0.40256 0.0
C5480 C 0.88598 0.13197 0.38098 0.0
C5481 C 0.87878 0.14214 0.38105 0.0
C5482 C 0.87976 0.1195 0.38072 0.0
C5483 C 0.86598 0.11713 0.38041 0.0
C5484 C 0.85865 0.1274 0.38075 0.0
C5485 C 0.86516 0.13982 0.38113 0.0
C5486 C 0.88795 0.10883 0.38053 0.0
C5487 C 0.84394 0.12522 0.38034 0.0
H5488 H 0.84994 0.07864 0.35763 0.0
H5489 H 0.8507 0.07986 0.39681 0.0
H5490 H 0.85416 0.11194 0.35614 0.0
H5491 H 0.86948 0.10607 0.35548 0.0
H5492 H 0.85507 0.09685 0.34761 0.0
H5493 H 0.85632 0.09883 0.40982 0.0
H5494 H 0.87058 0.10739 0.4043 0.0
H5495 H 0.8554 0.11352 0.40329 0.0
H5496 H 0.89653 0.13378 0.38108 0.0
H5497 H 0.85959 0.1477 0.38112 0.0
H5498 H 0.88565 0.10253 0.37184 0.0
H5499 H 0.88563 0.10301 0.38813 0.0
H5500 H 0.89857 0.11233 0.38138 0.0
H5501 H 0.83998 0.11975 0.37152 0.0
H5502 H 0.83972 0.13424 0.38129 0.0
H5503 H 0.84065 0.11951 0.38776 0.0
C5504 C 0.20483 0.5191 0.6757 0.0
C5505 C 0.21485 0.52821 0.67274 0.0
C5506 C 0.19218 0.52211 0.6772 0.0
C5507 C 0.18951 0.5345 0.67563 0.0
C5508 C 0.19963 0.54377 0.67282 0.0
C5509 C 0.21215 0.54051 0.6714 0.0
C5510 C 0.18165 0.512 0.68026 0.0
C5511 C 0.19718 0.55707 0.67099 0.0
C5512 C 0.15557 0.54103 0.66597 0.0
C5513 C 0.1518 0.54694 0.67686 0.0
C5514 C 0.1676 0.53641 0.66557 0.0
C5515 C 0.17604 0.53774 0.67634 0.0
C5516 C 0.17202 0.5432 0.68751 0.0
C5517 C 0.15993 0.54776 0.68764 0.0
C5518 C 0.17151 0.53065 0.65348 0.0
C5519 C 0.18072 0.54473 0.69919 0.0
H5520 H 0.20688 0.50961 0.67686 0.0
H5521 H 0.21976 0.54754 0.6689 0.0
H5522 H 0.17706 0.51536 0.68861 0.0
H5523 H 0.17387 0.51002 0.67269 0.0
H5524 H 0.18545 0.50302 0.68177 0.0
H5525 H 0.20622 0.56328 0.6693 0.0
H5526 H 0.18997 0.55682 0.66309 0.0
H5527 H 0.19298 0.56137 0.67918 0.0
H5528 H 0.14927 0.54037 0.65764 0.0
H5529 H 0.15703 0.55228 0.6961 0.0
H5530 H 0.1747 0.52131 0.6545 0.0
H5531 H 0.1799 0.53685 0.65046 0.0
H5532 H 0.16343 0.52939 0.64619 0.0
H5533 H 0.18426 0.53564 0.70074 0.0
H5534 H 0.17566 0.54796 0.70731 0.0
H5535 H 0.18943 0.55177 0.69841 0.0
C5536 C 0.30014 0.4829 0.13737 0.0
C5537 C 0.30028 0.49608 0.13795 0.0
C5538 C 0.31166 0.47763 0.13938 0.0
C5539 C 0.32364 0.48571 0.14222 0.0
C5540 C 0.32383 0.49901 0.14316 0.0
C5541 C 0.31217 0.50403 0.14095 0.0
C5542 C 0.31105 0.46339 0.13823 0.0
C5543 C 0.33639 0.50793 0.14626 0.0
C5544 C 0.35183 0.4712 0.15624 0.0
C5545 C 0.35881 0.46859 0.14597 0.0
C5546 C 0.34049 0.47703 0.15523 0.0
C5547 C 0.33601 0.48018 0.14365 0.0
C5548 C 0.34314 0.47768 0.1333 0.0
C5549 C 0.35448 0.47197 0.13461 0.0
C5550 C 0.33323 0.47967 0.16649 0.0
C5551 C 0.33864 0.4808 0.12078 0.0
H5552 H 0.29099 0.47667 0.13533 0.0
H5553 H 0.31243 0.5142 0.1413 0.0
H5554 H 0.31707 0.46031 0.13078 0.0
H5555 H 0.31516 0.46037 0.14683 0.0
H5556 H 0.30093 0.45843 0.13622 0.0
H5557 H 0.33477 0.51801 0.14742 0.0
H5558 H 0.34135 0.5057 0.15483 0.0
H5559 H 0.3431 0.50669 0.13887 0.0
H5560 H 0.35516 0.46865 0.16507 0.0
H5561 H 0.35987 0.46993 0.12666 0.0
H5562 H 0.3233 0.47417 0.16528 0.0
H5563 H 0.33204 0.48984 0.16782 0.0
H5564 H 0.3383 0.47716 0.1749 0.0
H5565 H 0.32885 0.47543 0.11792 0.0
H5566 H 0.34544 0.47849 0.11372 0.0
H5567 H 0.33771 0.49102 0.1211 0.0
C5568 C 0.61165 0.82751 0.54525 0.0
C5569 C 0.61526 0.83553 0.53629 0.0
C5570 C 0.60928 0.8325 0.5571 0.0
C5571 C 0.61058 0.8458 0.56004 0.0
C5572 C 0.61386 0.8539 0.55093 0.0
C5573 C 0.61611 0.84867 0.53919 0.0
C5574 C 0.60573 0.82357 0.56655 0.0
C5575 C 0.61532 0.86814 0.55366 0.0
C5576 C 0.59687 0.86234 0.58757 0.0
C5577 C 0.60822 0.86621 0.59531 0.0
C5578 C 0.59729 0.85496 0.57632 0.0
C5579 C 0.60933 0.85143 0.57278 0.0
C5580 C 0.62061 0.85461 0.58096 0.0
C5581 C 0.6199 0.86194 0.59212 0.0
C5582 C 0.58503 0.85166 0.56791 0.0
C5583 C 0.63363 0.85099 0.57759 0.0
H5584 H 0.61101 0.81735 0.54309 0.0
H5585 H 0.61858 0.85492 0.53224 0.0
H5586 H 0.61372 0.82469 0.5739 0.0
H5587 H 0.59684 0.82588 0.57091 0.0
H5588 H 0.604 0.81351 0.56255 0.0
H5589 H 0.61745 0.87309 0.54544 0.0
H5590 H 0.60626 0.87102 0.55727 0.0
H5591 H 0.62336 0.87138 0.56084 0.0
H5592 H 0.58782 0.86564 0.58998 0.0
H5593 H 0.62865 0.86473 0.59819 0.0
H5594 H 0.58382 0.84156 0.5641 0.0
H5595 H 0.58576 0.85744 0.56008 0.0
H5596 H 0.57619 0.85347 0.57266 0.0
H5597 H 0.63265 0.84077 0.57428 0.0
H5598 H 0.64112 0.85305 0.58543 0.0
H5599 H 0.63716 0.85635 0.57001 0.0
C5600 C 0.48595 0.39169 0.79933 0.0
C5601 C 0.47598 0.3907 0.78995 0.0
C5602 C 0.48309 0.39228 0.8117 0.0
C5603 C 0.46997 0.39195 0.81473 0.0
C5604 C 0.45986 0.39062 0.80528 0.0
C5605 C 0.46299 0.39001 0.79303 0.0
C5606 C 0.49411 0.3936 0.82152 0.0
C5607 C 0.44574 0.39032 0.80812 0.0
C5608 C 0.45832 0.38555 0.84595 0.0
C5609 C 0.4569 0.39779 0.85098 0.0
C5610 C 0.46322 0.38351 0.83438 0.0
C5611 C 0.46675 0.39397 0.82772 0.0
C5612 C 0.46599 0.40639 0.83306 0.0
C5613 C 0.46111 0.40815 0.84463 0.0
C5614 C 0.46397 0.37013 0.82901 0.0
C5615 C 0.4697 0.41781 0.82631 0.0
H5616 H 0.496 0.39209 0.79699 0.0
H5617 H 0.45524 0.38945 0.78586 0.0
H5618 H 0.49491 0.40301 0.82692 0.0
H5619 H 0.49211 0.38634 0.82796 0.0
H5620 H 0.50363 0.39262 0.81764 0.0
H5621 H 0.439 0.38852 0.79972 0.0
H5622 H 0.44301 0.38286 0.81418 0.0
H5623 H 0.44434 0.39952 0.81308 0.0
H5624 H 0.45505 0.37752 0.85082 0.0
H5625 H 0.46026 0.41765 0.84859 0.0
H5626 H 0.47358 0.36949 0.82523 0.0
H5627 H 0.45639 0.36735 0.82133 0.0
H5628 H 0.46244 0.36325 0.83589 0.0
H5629 H 0.4796 0.41773 0.823 0.0
H5630 H 0.46954 0.42686 0.83212 0.0
H5631 H 0.4628 0.41748 0.81815 0.0
C5632 C 0.89653 0.1931 0.04885 0.0
C5633 C 0.88335 0.19431 0.04644 0.0
C5634 C 0.90051 0.18656 0.05856 0.0
C5635 C 0.89109 0.18119 0.06608 0.0
C5636 C 0.87784 0.1828 0.06396 0.0
C5637 C 0.87413 0.18929 0.05413 0.0
C5638 C 0.91471 0.18496 0.06046 0.0
C5639 C 0.86752 0.17735 0.07186 0.0
C5640 C 0.89766 0.15245 0.08183 0.0
C5641 C 0.90159 0.15783 0.0938 0.0
C5642 C 0.89439 0.15998 0.07269 0.0
C5643 C 0.89493 0.17322 0.07565 0.0
C5644 C 0.89893 0.17872 0.08775 0.0
C5645 C 0.90227 0.17096 0.09669 0.0
C5646 C 0.89028 0.15375 0.05988 0.0
C5647 C 0.8995 0.19277 0.09128 0.0
H5648 H 0.90368 0.19685 0.04285 0.0
H5649 H 0.86395 0.19033 0.05238 0.0
H5650 H 0.91837 0.18811 0.07009 0.0
H5651 H 0.91579 0.17479 0.05868 0.0
H5652 H 0.92092 0.19038 0.05432 0.0
H5653 H 0.85784 0.18021 0.06956 0.0
H5654 H 0.86657 0.16686 0.07066 0.0
H5655 H 0.87041 0.18047 0.08167 0.0
H5656 H 0.89713 0.1423 0.0796 0.0
H5657 H 0.90524 0.17516 0.10597 0.0
H5658 H 0.89665 0.15813 0.05324 0.0
H5659 H 0.88015 0.15526 0.05728 0.0
H5660 H 0.89073 0.1434 0.05901 0.0
H5661 H 0.90611 0.19813 0.08544 0.0
H5662 H 0.90296 0.1956 0.10103 0.0
H5663 H 0.88968 0.1956 0.08969 0.0
C5664 C 0.04856 0.63461 0.32012 0.0
C5665 C 0.05785 0.63557 0.31135 0.0
C5666 C 0.05195 0.63189 0.33203 0.0
C5667 C 0.06495 0.63011 0.33525 0.0
C5668 C 0.07444 0.63139 0.32654 0.0
C5669 C 0.07077 0.63406 0.3147 0.0
C5670 C 0.04157 0.63062 0.34109 0.0
C5671 C 0.0884 0.62956 0.32961 0.0
C5672 C 0.07824 0.63137 0.36836 0.0
C5673 C 0.07812 0.61847 0.36965 0.0
C5674 C 0.07353 0.63534 0.35734 0.0
C5675 C 0.06855 0.62616 0.34745 0.0
C5676 C 0.0679 0.61312 0.34891 0.0
C5677 C 0.0727 0.60943 0.35999 0.0
C5678 C 0.0744 0.64933 0.35611 0.0
C5679 C 0.06256 0.60304 0.33862 0.0
H5680 H 0.0386 0.63593 0.31764 0.0
H5681 H 0.07798 0.63458 0.30795 0.0
H5682 H 0.04002 0.62076 0.34353 0.0
H5683 H 0.04478 0.63689 0.34966 0.0
H5684 H 0.03212 0.63302 0.33739 0.0
H5685 H 0.09475 0.63161 0.32204 0.0
H5686 H 0.09245 0.6358 0.33798 0.0
H5687 H 0.08878 0.61964 0.33155 0.0
H5688 H 0.08249 0.63838 0.37579 0.0
H5689 H 0.07242 0.59944 0.36103 0.0
H5690 H 0.06488 0.65163 0.35253 0.0
H5691 H 0.08164 0.65197 0.34943 0.0
H5692 H 0.07738 0.65521 0.36497 0.0
H5693 H 0.05272 0.60462 0.33513 0.0
H5694 H 0.06189 0.59334 0.34152 0.0
H5695 H 0.06896 0.60359 0.33089 0.0
C5696 C 0.6184 0.14459 0.98238 0.0
C5697 C 0.60905 0.14902 0.98978 0.0
C5698 C 0.61536 0.14056 0.96991 0.0
C5699 C 0.60264 0.14098 0.96467 0.0
C5700 C 0.59328 0.14586 0.97198 0.0
C5701 C 0.59661 0.14985 0.98446 0.0
C5702 C 0.62566 0.1355 0.96242 0.0
C5703 C 0.57964 0.14646 0.96672 0.0
C5704 C 0.59958 0.13727 0.92987 0.0
C5705 C 0.59586 0.12416 0.92732 0.0
C5706 C 0.60121 0.14304 0.942 0.0
C5707 C 0.59904 0.1355 0.95177 0.0
C5708 C 0.59457 0.12238 0.94918 0.0
C5709 C 0.59304 0.11687 0.937 0.0
C5710 C 0.60594 0.15707 0.94439 0.0
C5711 C 0.59205 0.11401 0.95932 0.0
H5712 H 0.6281 0.14414 0.9864 0.0
H5713 H 0.58932 0.1532 0.99016 0.0
H5714 H 0.62254 0.12533 0.95923 0.0
H5715 H 0.62689 0.14058 0.95416 0.0
H5716 H 0.63526 0.13644 0.9677 0.0
H5717 H 0.57389 0.15154 0.9733 0.0
H5718 H 0.57995 0.15126 0.95823 0.0
H5719 H 0.57447 0.13671 0.9642 0.0
H5720 H 0.60185 0.14293 0.92242 0.0
H5721 H 0.58997 0.10676 0.93504 0.0
H5722 H 0.61613 0.15858 0.94848 0.0
H5723 H 0.59993 0.16166 0.95105 0.0
H5724 H 0.60566 0.16183 0.93587 0.0
H5725 H 0.60138 0.11344 0.96456 0.0
H5726 H 0.58752 0.10425 0.95576 0.0
H5727 H 0.58555 0.11811 0.96582 0.0
C5728 C 0.03776 0.37638 0.18818 0.0
C5729 C 0.03597 0.36479 0.19322 0.0
C5730 C 0.04455 0.37767 0.17757 0.0
C5731 C 0.04973 0.36716 0.17192 0.0
C5732 C 0.04732 0.35527 0.17658 0.0
C5733 C 0.04042 0.35422 0.18712 0.0
C5734 C 0.0468 0.39048 0.17282 0.0
C5735 C 0.05266 0.34382 0.17084 0.0
C5736 C 0.06323 0.36819 0.14045 0.0
C5737 C 0.07661 0.3716 0.14365 0.0
C5738 C 0.05428 0.36685 0.14954 0.0
C5739 C 0.05888 0.36889 0.16207 0.0
C5740 C 0.07239 0.37237 0.16528 0.0
C5741 C 0.08106 0.37373 0.15604 0.0
C5742 C 0.03993 0.36323 0.14578 0.0
C5743 C 0.07773 0.37456 0.17851 0.0
H5744 H 0.03444 0.38462 0.19285 0.0
H5745 H 0.03883 0.34517 0.1908 0.0
H5746 H 0.05722 0.39455 0.17467 0.0
H5747 H 0.04457 0.38957 0.16276 0.0
H5748 H 0.04076 0.39722 0.17722 0.0
H5749 H 0.04889 0.33503 0.17482 0.0
H5750 H 0.05015 0.34244 0.16081 0.0
H5751 H 0.06346 0.34533 0.17226 0.0
H5752 H 0.05973 0.36661 0.13087 0.0
H5753 H 0.09141 0.37639 0.15851 0.0
H5754 H 0.03433 0.37047 0.14995 0.0
H5755 H 0.03629 0.35411 0.14921 0.0
H5756 H 0.0379 0.36227 0.13567 0.0
H5757 H 0.07318 0.38217 0.18348 0.0
H5758 H 0.08849 0.37728 0.17946 0.0
H5759 H 0.07526 0.36584 0.18306 0.0
C5760 C 0.96047 0.88182 0.48653 0.0
C5761 C 0.94787 0.87679 0.48916 0.0
C5762 C 0.9627 0.88678 0.47535 0.0
C5763 C 0.95209 0.88671 0.46664 0.0
C5764 C 0.93947 0.88107 0.46901 0.0
C5765 C 0.93752 0.87617 0.48023 0.0
C5766 C 0.9763 0.89267 0.47315 0.0
C5767 C 0.9279 0.88075 0.45993 0.0
C5768 C 0.9528 0.91264 0.44546 0.0
C5769 C 0.9552 0.90624 0.43428 0.0
C5770 C 0.9521 0.90646 0.45611 0.0
C5771 C 0.95386 0.89354 0.45557 0.0
C5772 C 0.95664 0.8871 0.44435 0.0
C5773 C 0.95726 0.89353 0.43381 0.0
C5774 C 0.94912 0.91368 0.46788 0.0
C5775 C 0.95863 0.87335 0.44344 0.0
H5776 H 0.96849 0.88241 0.49342 0.0
H5777 H 0.9278 0.8721 0.48213 0.0
H5778 H 0.979 0.88909 0.46396 0.0
H5779 H 0.97664 0.90309 0.47334 0.0
H5780 H 0.9837 0.89071 0.48016 0.0
H5781 H 0.91896 0.87513 0.46272 0.0
H5782 H 0.92586 0.89054 0.45907 0.0
H5783 H 0.93006 0.87665 0.45074 0.0
H5784 H 0.95121 0.92247 0.44582 0.0
H5785 H 0.95914 0.88854 0.42518 0.0
H5786 H 0.95673 0.91314 0.47525 0.0
H5787 H 0.93967 0.90935 0.47088 0.0
H5788 H 0.94856 0.92382 0.46687 0.0
H5789 H 0.96622 0.8719 0.4505 0.0
H5790 H 0.96157 0.86995 0.43428 0.0
H5791 H 0.94946 0.86743 0.44524 0.0
C5792 C 0.46496 0.65251 0.69099 0.0
C5793 C 0.46899 0.64094 0.6934 0.0
C5794 C 0.45549 0.65307 0.68148 0.0
C5795 C 0.44988 0.64178 0.67424 0.0
C5796 C 0.45428 0.63016 0.67632 0.0
C5797 C 0.46378 0.62988 0.68586 0.0
C5798 C 0.45114 0.66565 0.67946 0.0
C5799 C 0.44851 0.6179 0.66884 0.0
C5800 C 0.41526 0.63839 0.65999 0.0
C5801 C 0.41729 0.63905 0.64756 0.0
C5802 C 0.4258 0.63974 0.66882 0.0
C5803 C 0.4387 0.64186 0.66515 0.0
C5804 C 0.44082 0.64315 0.6527 0.0
C5805 C 0.43007 0.64171 0.64403 0.0
C5806 C 0.42311 0.63836 0.68201 0.0
C5807 C 0.45443 0.64549 0.64845 0.0
H5808 H 0.46907 0.66111 0.6967 0.0
H5809 H 0.46672 0.62089 0.68775 0.0
H5810 H 0.4514 0.66726 0.66966 0.0
H5811 H 0.4409 0.6656 0.68189 0.0
H5812 H 0.45731 0.67369 0.68507 0.0
H5813 H 0.45362 0.60984 0.67104 0.0
H5814 H 0.43807 0.61561 0.67059 0.0
H5815 H 0.44896 0.61888 0.65891 0.0
H5816 H 0.40539 0.63655 0.66279 0.0
H5817 H 0.43171 0.64215 0.63443 0.0
H5818 H 0.42823 0.64665 0.68807 0.0
H5819 H 0.42691 0.62982 0.68488 0.0
H5820 H 0.41253 0.63748 0.68347 0.0
H5821 H 0.46032 0.65352 0.65428 0.0
H5822 H 0.45441 0.64757 0.63875 0.0
H5823 H 0.45933 0.637 0.64936 0.0
C5824 C 0.54867 0.58889 0.78433 0.0
C5825 C 0.54986 0.60194 0.78803 0.0
C5826 C 0.55769 0.58148 0.78889 0.0
C5827 C 0.56804 0.58726 0.79741 0.0
C5828 C 0.56978 0.60056 0.80048 0.0
C5829 C 0.56072 0.60773 0.7957 0.0
C5830 C 0.55564 0.56738 0.78521 0.0
C5831 C 0.58071 0.60714 0.80949 0.0
C5832 C 0.58021 0.5708 0.82372 0.0
C5833 C 0.59292 0.56943 0.8207 0.0
C5834 C 0.57168 0.57579 0.81579 0.0
C5835 C 0.57593 0.57943 0.80448 0.0
C5836 C 0.58836 0.57704 0.80091 0.0
C5837 C 0.59677 0.57207 0.8091 0.0
C5838 C 0.55849 0.57809 0.81996 0.0
C5839 C 0.59315 0.58055 0.78884 0.0
H5840 H 0.5403 0.58433 0.77841 0.0
H5841 H 0.56187 0.61785 0.79835 0.0
H5842 H 0.56505 0.56392 0.78346 0.0
H5843 H 0.55146 0.56243 0.79278 0.0
H5844 H 0.54885 0.56474 0.77688 0.0
H5845 H 0.58138 0.61762 0.81008 0.0
H5846 H 0.57909 0.60416 0.81873 0.0
H5847 H 0.59019 0.60439 0.80687 0.0
H5848 H 0.57718 0.56858 0.83263 0.0
H5849 H 0.6066 0.57101 0.80675 0.0
H5850 H 0.5507 0.57431 0.81269 0.0
H5851 H 0.55828 0.58844 0.82178 0.0
H5852 H 0.5562 0.57366 0.82844 0.0
H5853 H 0.58531 0.57792 0.78137 0.0
H5854 H 0.60173 0.57588 0.78638 0.0
H5855 H 0.59605 0.59095 0.78945 0.0
C5856 C 0.61125 0.25685 0.08269 0.0
C5857 C 0.62147 0.24963 0.08406 0.0
C5858 C 0.6106 0.26772 0.09075 0.0
C5859 C 0.62039 0.27145 0.10042 0.0
C5860 C 0.63088 0.26436 0.1017 0.0
C5861 C 0.6313 0.25355 0.09349 0.0
C5862 C 0.59926 0.27505 0.08909 0.0
C5863 C 0.64153 0.26806 0.11186 0.0
C5864 C 0.62413 0.30513 0.1161 0.0
C5865 C 0.6174 0.30341 0.12664 0.0
C5866 C 0.6252 0.29481 0.10747 0.0
C5867 C 0.61941 0.28251 0.10947 0.0
C5868 C 0.61264 0.28074 0.12012 0.0
C5869 C 0.61171 0.29123 0.12857 0.0
C5870 C 0.63248 0.29706 0.09621 0.0
C5871 C 0.60637 0.26777 0.12259 0.0
H5872 H 0.60354 0.25381 0.07552 0.0
H5873 H 0.63933 0.24813 0.09449 0.0
H5874 H 0.59339 0.27469 0.0972 0.0
H5875 H 0.60288 0.28516 0.0884 0.0
H5876 H 0.59279 0.27125 0.08078 0.0
H5877 H 0.64923 0.26178 0.11135 0.0
H5878 H 0.64612 0.27796 0.11149 0.0
H5879 H 0.63729 0.26763 0.12088 0.0
H5880 H 0.62853 0.31454 0.11453 0.0
H5881 H 0.60649 0.2899 0.13671 0.0
H5882 H 0.62588 0.29393 0.08785 0.0
H5883 H 0.64065 0.29135 0.0958 0.0
H5884 H 0.63648 0.30719 0.09604 0.0
H5885 H 0.59901 0.26373 0.11502 0.0
H5886 H 0.60151 0.268 0.13134 0.0
H5887 H 0.61383 0.26127 0.12296 0.0
C5888 C 0.93762 0.41309 0.27389 0.0
C5889 C 0.93837 0.40005 0.27308 0.0
C5890 C 0.92902 0.41852 0.28157 0.0
C5891 C 0.92097 0.41072 0.28859 0.0
C5892 C 0.92129 0.39748 0.2874 0.0
C5893 C 0.92997 0.39232 0.27967 0.0
C5894 C 0.92897 0.43266 0.28258 0.0
C5895 C 0.91282 0.38882 0.29467 0.0
C5896 C 0.91079 0.42449 0.31909 0.0
C5897 C 0.89771 0.42571 0.31628 0.0
C5898 C 0.91853 0.41992 0.31009 0.0
C5899 C 0.91304 0.41645 0.29794 0.0
C5900 C 0.89989 0.41794 0.29496 0.0
C5901 C 0.89235 0.42256 0.30419 0.0
C5902 C 0.93251 0.41851 0.31366 0.0
C5903 C 0.89371 0.41436 0.28211 0.0
H5904 H 0.94415 0.41914 0.2689 0.0
H5905 H 0.93035 0.38221 0.27893 0.0
H5906 H 0.91885 0.43486 0.28144 0.0
H5907 H 0.93304 0.43693 0.29184 0.0
H5908 H 0.93484 0.43722 0.27567 0.0
H5909 H 0.91351 0.37866 0.29202 0.0
H5910 H 0.91581 0.39108 0.30458 0.0
H5911 H 0.90247 0.39031 0.29336 0.0
H5912 H 0.91494 0.42693 0.32844 0.0
H5913 H 0.88223 0.42347 0.30196 0.0
H5914 H 0.93918 0.42366 0.30773 0.0
H5915 H 0.93383 0.40837 0.31229 0.0
H5916 H 0.93545 0.42214 0.32337 0.0
H5917 H 0.89968 0.41925 0.27548 0.0
H5918 H 0.88364 0.41678 0.28112 0.0
H5919 H 0.89335 0.40402 0.27961 0.0
C5920 C 0.94232 0.77455 0.57753 0.0
C5921 C 0.93216 0.78069 0.57312 0.0
C5922 C 0.93995 0.76489 0.58522 0.0
C5923 C 0.92713 0.76141 0.5887 0.0
C5924 C 0.91681 0.76747 0.58414 0.0
C5925 C 0.91944 0.77699 0.57636 0.0
C5926 C 0.95118 0.75854 0.58977 0.0
C5927 C 0.90304 0.76413 0.58774 0.0
C5928 C 0.91825 0.72991 0.60155 0.0
C5929 C 0.9194 0.73366 0.61419 0.0
C5930 C 0.92087 0.73882 0.59313 0.0
C5931 C 0.92458 0.75177 0.59747 0.0
C5932 C 0.92573 0.75557 0.61024 0.0
C5933 C 0.92321 0.74645 0.61844 0.0
C5934 C 0.91969 0.73439 0.5796 0.0
C5935 C 0.92954 0.7693 0.61523 0.0
H5936 H 0.95215 0.77731 0.57496 0.0
H5937 H 0.91159 0.78182 0.5731 0.0
H5938 H 0.95269 0.76045 0.59988 0.0
H5939 H 0.94891 0.74813 0.58753 0.0
H5940 H 0.96042 0.76189 0.58573 0.0
H5941 H 0.89605 0.76945 0.58311 0.0
H5942 H 0.89974 0.75384 0.58544 0.0
H5943 H 0.90274 0.76624 0.59779 0.0
H5944 H 0.9154 0.72001 0.59822 0.0
H5945 H 0.92412 0.74934 0.62822 0.0
H5946 H 0.92908 0.73713 0.57557 0.0
H5947 H 0.91222 0.73906 0.57486 0.0
H5948 H 0.91695 0.72396 0.57772 0.0
H5949 H 0.93925 0.77292 0.61226 0.0
H5950 H 0.92991 0.7707 0.6254 0.0
H5951 H 0.92245 0.7751 0.61152 0.0
C5952 C 0.57979 0.44373 0.71497 0.0
C5953 C 0.56825 0.43714 0.70884 0.0
C5954 C 0.59083 0.44718 0.70856 0.0
C5955 C 0.59032 0.44396 0.69573 0.0
C5956 C 0.57859 0.43764 0.68945 0.0
C5957 C 0.56775 0.43427 0.69608 0.0
C5958 C 0.60316 0.45393 0.71555 0.0
C5959 C 0.57763 0.43403 0.67577 0.0
C5960 C 0.61479 0.45858 0.67493 0.0
C5961 C 0.62215 0.44868 0.67252 0.0
C5962 C 0.60479 0.45751 0.68303 0.0
C5963 C 0.60221 0.44631 0.68887 0.0
C5964 C 0.61022 0.43667 0.68706 0.0
C5965 C 0.62006 0.43796 0.67888 0.0
C5966 C 0.59647 0.468 0.68472 0.0
C5967 C 0.6079 0.42464 0.6932 0.0
H5968 H 0.58021 0.44614 0.7248 0.0
H5969 H 0.55897 0.42901 0.69127 0.0
H5970 H 0.61089 0.44771 0.71509 0.0
H5971 H 0.60677 0.46261 0.71134 0.0
H5972 H 0.60168 0.45661 0.72534 0.0
H5973 H 0.56758 0.42987 0.67217 0.0
H5974 H 0.5807 0.44245 0.67097 0.0
H5975 H 0.58432 0.42701 0.67348 0.0
H5976 H 0.61636 0.46685 0.66996 0.0
H5977 H 0.62586 0.43036 0.67712 0.0
H5978 H 0.59512 0.47037 0.69457 0.0
H5979 H 0.58666 0.46478 0.68002 0.0
H5980 H 0.60077 0.47671 0.6809 0.0
H5981 H 0.60714 0.42688 0.70317 0.0
H5982 H 0.6158 0.41869 0.69185 0.0
H5983 H 0.59853 0.41901 0.68938 0.0
C5984 C 0.86278 0.27274 0.94307 0.0
C5985 C 0.85177 0.2637 0.9436 0.0
C5986 C 0.86209 0.28333 0.9366 0.0
C5987 C 0.85012 0.28488 0.93044 0.0
C5988 C 0.83881 0.27618 0.93152 0.0
C5989 C 0.83977 0.26572 0.93811 0.0
C5990 C 0.87436 0.29243 0.93574 0.0
C5991 C 0.82586 0.27751 0.92514 0.0
C5992 C 0.84678 0.31608 0.91742 0.0
C5993 C 0.84952 0.3132 0.9052 0.0
C5994 C 0.8469 0.30696 0.92579 0.0
C5995 C 0.84977 0.29471 0.92179 0.0
C5996 C 0.85241 0.29178 0.90943 0.0
C5997 C 0.8523 0.30107 0.90131 0.0
C5998 C 0.8441 0.31044 0.93891 0.0
C5999 C 0.85544 0.27883 0.90477 0.0
H6000 H 0.87212 0.27122 0.94719 0.0
H6001 H 0.83116 0.25891 0.93867 0.0
H6002 H 0.87758 0.2913 0.92629 0.0
H6003 H 0.87247 0.30236 0.93765 0.0
H6004 H 0.88244 0.2908 0.94221 0.0
H6005 H 0.81775 0.27078 0.92794 0.0
H6006 H 0.82356 0.28729 0.9271 0.0
H6007 H 0.82639 0.2757 0.91508 0.0
H6008 H 0.84468 0.32547 0.92048 0.0
H6009 H 0.85443 0.29885 0.89187 0.0
H6010 H 0.85264 0.30944 0.94512 0.0
H6011 H 0.83572 0.30387 0.94144 0.0
H6012 H 0.84186 0.32029 0.94052 0.0
H6013 H 0.86429 0.27674 0.90991 0.0
H6014 H 0.8571 0.27803 0.89485 0.0
H6015 H 0.84728 0.27147 0.9063 0.0
C6016 C 0.94797 0.59998 0.22054 0.0
C6017 C 0.95249 0.61294 0.22328 0.0
C6018 C 0.93687 0.59577 0.21252 0.0
C6019 C 0.9301 0.60476 0.20719 0.0
C6020 C 0.93436 0.61786 0.21027 0.0
C6021 C 0.94554 0.62179 0.21824 0.0
C6022 C 0.93267 0.58172 0.20939 0.0
C6023 C 0.92733 0.62774 0.20489 0.0
C6024 C 0.9109 0.59567 0.17645 0.0
C6025 C 0.89806 0.5937 0.17989 0.0
C6026 C 0.92143 0.59899 0.18528 0.0
C6027 C 0.91903 0.6005 0.19785 0.0
C6028 C 0.90607 0.59835 0.20139 0.0
C6029 C 0.89571 0.59493 0.19235 0.0
C6030 C 0.93511 0.6011 0.18113 0.0
C6031 C 0.90313 0.59995 0.21469 0.0
H6032 H 0.95339 0.5931 0.22433 0.0
H6033 H 0.94892 0.63182 0.22046 0.0
H6034 H 0.92221 0.57924 0.21093 0.0
H6035 H 0.9338 0.57907 0.19954 0.0
H6036 H 0.93847 0.57599 0.21489 0.0
H6037 H 0.93139 0.63752 0.20882 0.0
H6038 H 0.92807 0.62701 0.19483 0.0
H6039 H 0.91681 0.62607 0.20652 0.0
H6040 H 0.9127 0.59472 0.16681 0.0
H6041 H 0.88578 0.59347 0.19505 0.0
H6042 H 0.94132 0.59504 0.18572 0.0
H6043 H 0.93949 0.61109 0.18379 0.0
H6044 H 0.93535 0.599 0.17106 0.0
H6045 H 0.9087 0.59391 0.22003 0.0
H6046 H 0.89258 0.59748 0.21596 0.0
H6047 H 0.90629 0.60992 0.21858 0.0
C6048 C 0.6255 0.72166 0.44315 0.0
C6049 C 0.63605 0.72993 0.44919 0.0
C6050 C 0.62752 0.7112 0.43513 0.0
C6051 C 0.64041 0.709 0.43301 0.0
C6052 C 0.65111 0.7171 0.43936 0.0
C6053 C 0.64879 0.72745 0.44743 0.0
C6054 C 0.61584 0.7027 0.42865 0.0
C6055 C 0.66498 0.71513 0.43727 0.0
C6056 C 0.64422 0.6765 0.41746 0.0
C6057 C 0.64413 0.67878 0.40512 0.0
C6058 C 0.6434 0.68633 0.42673 0.0
C6059 C 0.6426 0.69872 0.42355 0.0
C6060 C 0.64308 0.70115 0.41115 0.0
C6061 C 0.64377 0.69114 0.40209 0.0
C6062 C 0.64283 0.68335 0.43983 0.0
C6063 C 0.64243 0.71425 0.40739 0.0
H6064 H 0.61564 0.72346 0.44461 0.0
H6065 H 0.65698 0.73389 0.45201 0.0
H6066 H 0.61575 0.70344 0.41865 0.0
H6067 H 0.61645 0.69267 0.43003 0.0
H6068 H 0.60648 0.7052 0.43192 0.0
H6069 H 0.67218 0.72169 0.44357 0.0
H6070 H 0.66641 0.70525 0.43852 0.0
H6071 H 0.66704 0.71667 0.4277 0.0
H6072 H 0.64441 0.66693 0.41982 0.0
H6073 H 0.64385 0.69295 0.39256 0.0
H6074 H 0.6331 0.68464 0.44305 0.0
H6075 H 0.65018 0.68998 0.44587 0.0
H6076 H 0.64456 0.67349 0.4409 0.0
H6077 H 0.63279 0.71713 0.40929 0.0
H6078 H 0.64385 0.71473 0.3975 0.0
H6079 H 0.64997 0.72123 0.41282 0.0
C6080 C 0.84129 0.62076 0.61726 0.0
C6081 C 0.84781 0.61039 0.61924 0.0
C6082 C 0.84812 0.63312 0.61821 0.0
C6083 C 0.86173 0.63513 0.62134 0.0
C6084 C 0.86836 0.62467 0.62321 0.0
C6085 C 0.86133 0.61246 0.62211 0.0
C6086 C 0.84075 0.64403 0.61604 0.0
C6087 C 0.88284 0.62641 0.62669 0.0
C6088 C 0.88443 0.6648 0.6164 0.0
C6089 C 0.88654 0.67094 0.62835 0.0
C6090 C 0.87574 0.65347 0.61378 0.0
C6091 C 0.86908 0.64817 0.62336 0.0
C6092 C 0.87059 0.65474 0.63528 0.0
C6093 C 0.87925 0.66606 0.6376 0.0
C6094 C 0.87428 0.64681 0.60093 0.0
C6095 C 0.86367 0.64944 0.64576 0.0
H6096 H 0.83086 0.61919 0.61494 0.0
H6097 H 0.86639 0.60452 0.62384 0.0
H6098 H 0.84121 0.65052 0.6246 0.0
H6099 H 0.84535 0.64958 0.60903 0.0
H6100 H 0.83035 0.6408 0.61296 0.0
H6101 H 0.88659 0.61725 0.62744 0.0
H6102 H 0.88825 0.63145 0.6198 0.0
H6103 H 0.88501 0.63233 0.63563 0.0
H6104 H 0.89005 0.6685 0.60921 0.0
H6105 H 0.88062 0.67092 0.64681 0.0
H6106 H 0.86384 0.64373 0.59799 0.0
H6107 H 0.87916 0.63819 0.60071 0.0
H6108 H 0.87868 0.65294 0.59424 0.0
H6109 H 0.85309 0.64684 0.64317 0.0
H6110 H 0.86496 0.65625 0.65418 0.0
H6111 H 0.86755 0.64068 0.64791 0.0
C6112 C 0.3284 0.93793 0.38623 0.0
C6113 C 0.31531 0.93863 0.38275 0.0
C6114 C 0.33258 0.92636 0.38827 0.0
C6115 C 0.32343 0.91518 0.38693 0.0
C6116 C 0.31007 0.9159 0.3841 0.0
C6117 C 0.30616 0.92763 0.382 0.0
C6118 C 0.34693 0.92602 0.39128 0.0
C6119 C 0.3 0.90421 0.38274 0.0
C6120 C 0.33821 0.88574 0.37689 0.0
C6121 C 0.34072 0.88093 0.38807 0.0
C6122 C 0.33206 0.89656 0.37635 0.0
C6123 C 0.32816 0.90269 0.38724 0.0
C6124 C 0.32996 0.89747 0.39847 0.0
C6125 C 0.33626 0.88665 0.39876 0.0
C6126 C 0.33032 0.90178 0.36417 0.0
C6127 C 0.32579 0.90366 0.41025 0.0
H6128 H 0.33547 0.94645 0.38713 0.0
H6129 H 0.29603 0.92808 0.3793 0.0
H6130 H 0.34834 0.92115 0.3996 0.0
H6131 H 0.35095 0.92056 0.38364 0.0
H6132 H 0.35263 0.93565 0.39281 0.0
H6133 H 0.28989 0.90658 0.38217 0.0
H6134 H 0.30139 0.89813 0.37429 0.0
H6135 H 0.30119 0.89857 0.39057 0.0
H6136 H 0.34136 0.88118 0.36855 0.0
H6137 H 0.33818 0.88299 0.40743 0.0
H6138 H 0.33645 0.91114 0.36445 0.0
H6139 H 0.32004 0.90325 0.36233 0.0
H6140 H 0.33309 0.89543 0.35645 0.0
H6141 H 0.33227 0.91272 0.41303 0.0
H6142 H 0.32624 0.89755 0.41782 0.0
H6143 H 0.3157 0.90592 0.40894 0.0
C6144 C 0.26815 0.04706 0.6332 0.0
C6145 C 0.26078 0.0455 0.64337 0.0
C6146 C 0.28092 0.05352 0.63455 0.0
C6147 C 0.28646 0.05856 0.64637 0.0
C6148 C 0.27928 0.05655 0.65674 0.0
C6149 C 0.26652 0.05002 0.65512 0.0
C6150 C 0.28828 0.05538 0.62326 0.0
C6151 C 0.28486 0.06178 0.66949 0.0
C6152 C 0.32307 0.06934 0.64922 0.0
C6153 C 0.3236 0.08227 0.64782 0.0
C6154 C 0.31104 0.06153 0.64915 0.0
C6155 C 0.2993 0.0668 0.64769 0.0
C6156 C 0.29981 0.07994 0.64674 0.0
C6157 C 0.31194 0.0875 0.64682 0.0
C6158 C 0.31089 0.04757 0.65021 0.0
C6159 C 0.28752 0.08596 0.64525 0.0
H6160 H 0.26383 0.04341 0.62412 0.0
H6161 H 0.26083 0.04892 0.66301 0.0
H6162 H 0.28988 0.06559 0.62195 0.0
H6163 H 0.29802 0.05226 0.6244 0.0
H6164 H 0.28298 0.05008 0.61486 0.0
H6165 H 0.27858 0.05833 0.67666 0.0
H6166 H 0.29473 0.05914 0.67122 0.0
H6167 H 0.28588 0.07228 0.67036 0.0
H6168 H 0.33206 0.06524 0.64993 0.0
H6169 H 0.31231 0.09753 0.64596 0.0
H6170 H 0.30674 0.04204 0.64147 0.0
H6171 H 0.30455 0.04455 0.65748 0.0
H6172 H 0.3208 0.04514 0.65231 0.0
H6173 H 0.28201 0.08196 0.63647 0.0
H6174 H 0.2896 0.09641 0.64529 0.0
H6175 H 0.28111 0.08379 0.65272 0.0
C6176 C 0.20477 0.06845 0.87429 0.0
C6177 C 0.20522 0.06174 0.88461 0.0
C6178 C 0.19715 0.07831 0.87376 0.0
C6179 C 0.18978 0.08151 0.88376 0.0
C6180 C 0.19061 0.07512 0.89439 0.0
C6181 C 0.19834 0.06534 0.89469 0.0
C6182 C 0.19655 0.08493 0.86227 0.0
C6183 C 0.18294 0.07828 0.90526 0.0
C6184 C 0.17521 0.1124 0.88578 0.0
C6185 C 0.16235 0.10819 0.88104 0.0
C6186 C 0.18431 0.10384 0.88666 0.0
C6187 C 0.18042 0.09082 0.88274 0.0
C6188 C 0.16743 0.08657 0.87794 0.0
C6189 C 0.15858 0.09531 0.87713 0.0
C6190 C 0.19808 0.10871 0.89179 0.0
C6191 C 0.16287 0.07276 0.8737 0.0
H6192 H 0.20997 0.06566 0.86642 0.0
H6193 H 0.19882 0.06034 0.90278 0.0
H6194 H 0.18665 0.08256 0.85757 0.0
H6195 H 0.19838 0.09535 0.8646 0.0
H6196 H 0.20375 0.08214 0.85579 0.0
H6197 H 0.18537 0.07307 0.91315 0.0
H6198 H 0.18481 0.08859 0.90825 0.0
H6199 H 0.17234 0.07583 0.90261 0.0
H6200 H 0.17819 0.12236 0.88877 0.0
H6201 H 0.14864 0.09207 0.87346 0.0
H6202 H 0.20509 0.10634 0.88497 0.0
H6203 H 0.2004 0.10402 0.90004 0.0
H6204 H 0.1996 0.11913 0.89431 0.0
H6205 H 0.1689 0.06941 0.86637 0.0
H6206 H 0.15247 0.07102 0.87013 0.0
H6207 H 0.1641 0.06696 0.8814 0.0
C6208 C 0.72024 0.53159 0.64013 0.0
C6209 C 0.73218 0.52935 0.64557 0.0
C6210 C 0.70844 0.52447 0.6425 0.0
C6211 C 0.70858 0.51489 0.65049 0.0
C6212 C 0.72054 0.51289 0.65634 0.0
C6213 C 0.73218 0.52016 0.65383 0.0
C6214 C 0.69587 0.52689 0.63611 0.0
C6215 C 0.72111 0.5028 0.66495 0.0
C6216 C 0.67729 0.50086 0.66352 0.0
C6217 C 0.67392 0.48951 0.65585 0.0
C6218 C 0.68843 0.50935 0.66179 0.0
C6219 C 0.69637 0.50637 0.65215 0.0
C6220 C 0.6929 0.49499 0.64428 0.0
C6221 C 0.68173 0.4867 0.64622 0.0
C6222 C 0.69182 0.52139 0.67036 0.0
C6223 C 0.70111 0.49147 0.63391 0.0
H6224 H 0.72017 0.5386 0.63367 0.0
H6225 H 0.74133 0.51853 0.65824 0.0
H6226 H 0.69181 0.51851 0.62962 0.0
H6227 H 0.68852 0.52831 0.64287 0.0
H6228 H 0.69728 0.53531 0.63094 0.0
H6229 H 0.73109 0.50293 0.66928 0.0
H6230 H 0.71435 0.50409 0.67228 0.0
H6231 H 0.71792 0.49332 0.65987 0.0
H6232 H 0.67125 0.50306 0.67095 0.0
H6233 H 0.67919 0.47797 0.64022 0.0
H6234 H 0.69272 0.52972 0.66505 0.0
H6235 H 0.7014 0.52141 0.6754 0.0
H6236 H 0.68439 0.52253 0.67712 0.0
H6237 H 0.70214 0.49909 0.62775 0.0
H6238 H 0.69686 0.48245 0.6284 0.0
H6239 H 0.71105 0.49047 0.63761 0.0
C6240 C 0.68024 0.42296 0.15167 0.0
C6241 C 0.67347 0.43305 0.14919 0.0
C6242 C 0.67371 0.41054 0.15119 0.0
C6243 C 0.66006 0.40818 0.1483 0.0
C6244 C 0.65321 0.41826 0.14561 0.0
C6245 C 0.66001 0.43053 0.146 0.0
C6246 C 0.68135 0.39999 0.15399 0.0
C6247 C 0.63864 0.41614 0.14255 0.0
C6248 C 0.64212 0.37525 0.13784 0.0
C6249 C 0.63655 0.37191 0.1486 0.0
C6250 C 0.65026 0.38681 0.13771 0.0
C6251 C 0.65277 0.39528 0.14857 0.0
C6252 C 0.64755 0.39178 0.15954 0.0
C6253 C 0.63959 0.3801 0.15945 0.0
C6254 C 0.65579 0.39016 0.12586 0.0
C6255 C 0.64995 0.40056 0.17131 0.0
H6256 H 0.69062 0.42481 0.15425 0.0
H6257 H 0.65473 0.43819 0.1438 0.0
H6258 H 0.67811 0.39609 0.16246 0.0
H6259 H 0.67949 0.39214 0.14647 0.0
H6260 H 0.69202 0.40325 0.15527 0.0
H6261 H 0.63481 0.42497 0.1405 0.0
H6262 H 0.63614 0.40895 0.1345 0.0
H6263 H 0.63359 0.41242 0.15034 0.0
H6264 H 0.63976 0.36903 0.1294 0.0
H6265 H 0.63557 0.37747 0.16786 0.0
H6266 H 0.66645 0.39329 0.12732 0.0
H6267 H 0.65129 0.39818 0.12261 0.0
H6268 H 0.65399 0.38207 0.11856 0.0
H6269 H 0.66058 0.40341 0.17351 0.0
H6270 H 0.64573 0.39615 0.17918 0.0
H6271 H 0.64559 0.40932 0.17018 0.0
C6272 C 0.2848 0.94839 0.86602 0.0
C6273 C 0.28337 0.96128 0.86749 0.0
C6274 C 0.2967 0.94444 0.86308 0.0
C6275 C 0.30746 0.95359 0.86144 0.0
C6276 C 0.30592 0.96658 0.86231 0.0
C6277 C 0.2939 0.97028 0.86536 0.0
C6278 C 0.2979 0.93048 0.86224 0.0
C6279 C 0.31713 0.9766 0.8605 0.0
C6280 C 0.34004 0.94293 0.8692 0.0
C6281 C 0.34346 0.93819 0.85766 0.0
C6282 C 0.32865 0.94852 0.87048 0.0
C6283 C 0.32051 0.94952 0.85994 0.0
C6284 C 0.32431 0.94548 0.84819 0.0
C6285 C 0.33575 0.93983 0.84718 0.0
C6286 C 0.325 0.95273 0.88319 0.0
C6287 C 0.31596 0.94653 0.83673 0.0
H6288 H 0.27662 0.94134 0.86735 0.0
H6289 H 0.2929 0.98026 0.86651 0.0
H6290 H 0.30173 0.92741 0.85339 0.0
H6291 H 0.30494 0.92872 0.86965 0.0
H6292 H 0.28842 0.92454 0.86306 0.0
H6293 H 0.31395 0.98605 0.85999 0.0
H6294 H 0.32463 0.97734 0.86825 0.0
H6295 H 0.32183 0.97397 0.85199 0.0
H6296 H 0.34611 0.94194 0.87731 0.0
H6297 H 0.33834 0.93618 0.83824 0.0
H6298 H 0.31605 0.94665 0.88527 0.0
H6299 H 0.3228 0.96261 0.88371 0.0
H6300 H 0.33286 0.95217 0.89034 0.0
H6301 H 0.30692 0.93964 0.83628 0.0
H6302 H 0.32109 0.9446 0.8283 0.0
H6303 H 0.313 0.95612 0.8369 0.0
C6304 C 0.20433 0.01193 0.35622 0.0
C6305 C 0.21354 0.01122 0.34742 0.0
C6306 C 0.19433 0.01947 0.35503 0.0
C6307 C 0.19354 0.02647 0.3448 0.0
C6308 C 0.20241 0.02527 0.33558 0.0
C6309 C 0.2123 0.01767 0.337 0.0
C6310 C 0.18507 0.02048 0.36507 0.0
C6311 C 0.20184 0.03251 0.32449 0.0
C6312 C 0.16301 0.04173 0.3386 0.0
C6313 C 0.16698 0.05414 0.34406 0.0
C6314 C 0.17156 0.03258 0.33868 0.0
C6315 C 0.18433 0.03597 0.34437 0.0
C6316 C 0.18838 0.04853 0.34979 0.0
C6317 C 0.17965 0.05744 0.34957 0.0
C6318 C 0.16693 0.01929 0.3328 0.0
C6319 C 0.20191 0.05255 0.35594 0.0
H6320 H 0.20529 1.00707 0.36435 0.0
H6321 H 0.21926 0.01699 0.33007 0.0
H6322 H 0.18698 0.03013 0.37007 0.0
H6323 H 0.17483 0.01904 0.36111 0.0
H6324 H 0.18612 0.01348 0.37174 0.0
H6325 H 0.20858 0.02959 0.31759 0.0
H6326 H 0.19178 0.03111 0.32009 0.0
H6327 H 0.20453 0.04279 0.32738 0.0
H6328 H 0.1532 0.03912 0.33434 0.0
H6329 H 0.18271 0.06704 0.3538 0.0
H6330 H 0.1673 0.01249 0.33975 0.0
H6331 H 0.17348 0.01664 0.32565 0.0
H6332 H 0.1568 0.01824 0.32855 0.0
H6333 H 0.2035 0.04676 0.36358 0.0
H6334 H 0.20355 0.06271 0.35963 0.0
H6335 H 0.20933 0.05089 0.34932 0.0
C6336 C 0.37472 0.17065 0.45782 0.0
C6337 C 0.38335 0.17588 0.46787 0.0
C6338 C 0.37937 0.16618 0.44672 0.0
C6339 C 0.39299 0.16689 0.44567 0.0
C6340 C 0.40176 0.17274 0.45557 0.0
C6341 C 0.39683 0.17719 0.46656 0.0
C6342 C 0.3697 0.16013 0.43633 0.0
C6343 C 0.41633 0.17364 0.45481 0.0
C6344 C 0.40226 0.14056 0.42378 0.0
C6345 C 0.40432 0.1466 0.41318 0.0
C6346 C 0.39912 0.14722 0.43456 0.0
C6347 C 0.39792 0.16025 0.43473 0.0
C6348 C 0.40054 0.16654 0.42421 0.0
C6349 C 0.40377 0.15963 0.41354 0.0
C6350 C 0.39657 0.14017 0.44561 0.0
C6351 C 0.39933 0.18041 0.42404 0.0
H6352 H 0.3643 0.16981 0.45873 0.0
H6353 H 0.40354 0.18115 0.47432 0.0
H6354 H 0.37208 0.16419 0.4277 0.0
H6355 H 0.37026 0.14983 0.43485 0.0
H6356 H 0.35951 0.16142 0.43819 0.0
H6357 H 0.42179 0.1798 0.46266 0.0
H6358 H 0.41926 0.16405 0.45473 0.0
H6359 H 0.41925 0.1774 0.44617 0.0
H6360 H 0.40284 0.13051 0.42354 0.0
H6361 H 0.4053 0.16429 0.40531 0.0
H6362 H 0.38616 0.13985 0.44757 0.0
H6363 H 0.4025 0.14518 0.4538 0.0
H6364 H 0.39882 0.1303 0.44425 0.0
H6365 H 0.38894 0.18176 0.42446 0.0
H6366 H 0.40301 0.18419 0.41565 0.0
H6367 H 0.40478 0.18605 0.43218 0.0
C6368 C 0.53483 0.6373 0.19289 0.0
C6369 C 0.54414 0.6378 0.20278 0.0
C6370 C 0.53815 0.63486 0.18075 0.0
C6371 C 0.55104 0.63279 0.17848 0.0
C6372 C 0.56052 0.63353 0.18842 0.0
C6373 C 0.55695 0.63602 0.20042 0.0
C6374 C 0.52781 0.63423 0.17038 0.0
C6375 C 0.57435 0.6313 0.1864 0.0
C6376 C 0.55873 0.61247 0.15041 0.0
C6377 C 0.56497 0.62156 0.14355 0.0
C6378 C 0.55354 0.61605 0.1615 0.0
C6379 C 0.55456 0.62905 0.16584 0.0
C6380 C 0.56015 0.63831 0.15861 0.0
C6381 C 0.56531 0.63445 0.14753 0.0
C6382 C 0.54761 0.60587 0.16889 0.0
C6383 C 0.56134 0.65227 0.16289 0.0
H6384 H 0.52495 0.6388 0.19465 0.0
H6385 H 0.56414 0.63618 0.20801 0.0
H6386 H 0.53128 0.6406 0.16352 0.0
H6387 H 0.52587 0.62447 0.16564 0.0
H6388 H 0.51851 0.63691 0.17361 0.0
H6389 H 0.58069 0.63281 0.19507 0.0
H6390 H 0.57438 0.62145 0.18221 0.0
H6391 H 0.57866 0.63774 0.17995 0.0
H6392 H 0.55822 0.6025 0.14724 0.0
H6393 H 0.57015 0.64151 0.14228 0.0
H6394 H 0.53789 0.60781 0.17164 0.0
H6395 H 0.55389 0.60586 0.17741 0.0
H6396 H 0.54652 0.59629 0.16375 0.0
H6397 H 0.55193 0.65472 0.16603 0.0
H6398 H 0.56439 0.65825 0.15557 0.0
H6399 H 0.56869 0.65461 0.17081 0.0
C6400 C 0.09158 0.80626 0.97834 0.0
C6401 C 0.08755 0.8105 0.9898 0.0
C6402 C 0.09072 0.81342 0.96836 0.0
C6403 C 0.08591 0.82519 0.96993 0.0
C6404 C 0.0811 0.82916 0.98125 0.0
C6405 C 0.08187 0.82171 0.991 0.0
C6406 C 0.09573 0.80876 0.95636 0.0
C6407 C 0.07593 0.84167 0.98333 0.0
C6408 C 0.10048 0.85089 0.95137 0.0
C6409 C 0.09033 0.85128 0.94252 0.0
C6410 C 0.09911 0.84246 0.96033 0.0
C6411 C 0.08736 0.83404 0.96031 0.0
C6412 C 0.0771 0.83427 0.95128 0.0
C6413 C 0.07866 0.84299 0.94253 0.0
C6414 C 0.11022 0.84267 0.9699 0.0
C6415 C 0.06453 0.82528 0.95085 0.0
H6416 H 0.09603 0.79766 0.9773 0.0
H6417 H 0.07841 0.82491 0.99972 0.0
H6418 H 0.08878 0.80976 0.94858 0.0
H6419 H 0.10512 0.81458 0.95505 0.0
H6420 H 0.09734 0.79869 0.95605 0.0
H6421 H 0.07138 0.84278 0.9922 0.0
H6422 H 0.08406 0.84953 0.98329 0.0
H6423 H 0.06862 0.84262 0.97583 0.0
H6424 H 0.10949 0.85732 0.95136 0.0
H6425 H 0.07081 0.84321 0.93564 0.0
H6426 H 0.11363 0.83327 0.96945 0.0
H6427 H 0.10682 0.84466 0.97919 0.0
H6428 H 0.11863 0.84993 0.96872 0.0
H6429 H 0.06661 0.81535 0.94998 0.0
H6430 H 0.05761 0.82647 0.94309 0.0
H6431 H 0.05972 0.82682 0.95952 0.0
C6432 C 0.94703 0.3957 0.70673 0.0
C6433 C 0.93796 0.3962 0.71569 0.0
C6434 C 0.94418 0.39903 0.69493 0.0
C6435 C 0.93195 0.40291 0.69202 0.0
C6436 C 0.9227 0.4033 0.70097 0.0
C6437 C 0.92583 0.39998 0.7127 0.0
C6438 C 0.95429 0.3985 0.68562 0.0
C6439 C 0.90956 0.4074 0.69822 0.0
C6440 C 0.92816 0.42349 0.66619 0.0
C6441 C 0.92182 0.41468 0.65677 0.0
C6442 C 0.93177 0.41974 0.67763 0.0
C6443 C 0.92889 0.40686 0.67969 0.0
C6444 C 0.92267 0.39786 0.67013 0.0
C6445 C 0.91922 0.40188 0.65875 0.0
C6446 C 0.93845 0.4296 0.68756 0.0
C6447 C 0.9194 0.38406 0.67201 0.0
H6448 H 0.95635 0.39262 0.70892 0.0
H6449 H 0.91884 0.40058 0.71962 0.0
H6450 H 0.9502 0.39211 0.67736 0.0
H6451 H 0.95702 0.40804 0.68266 0.0
H6452 H 0.96326 0.39511 0.68928 0.0
H6453 H 0.90331 0.40681 0.70607 0.0
H6454 H 0.91087 0.41731 0.69588 0.0
H6455 H 0.90436 0.40139 0.69016 0.0
H6456 H 0.93017 0.43338 0.66465 0.0
H6457 H 0.91429 0.39502 0.65151 0.0
H6458 H 0.9478 0.42679 0.69102 0.0
H6459 H 0.93224 0.43028 0.69542 0.0
H6460 H 0.94049 0.43911 0.68432 0.0
H6461 H 0.92832 0.38028 0.67519 0.0
H6462 H 0.91503 0.37819 0.66351 0.0
H6463 H 0.91243 0.38304 0.67925 0.0
C6464 C 0.40441 0.8518 0.04184 0.0
C6465 C 0.39165 0.85149 0.03671 0.0
C6466 C 0.40802 0.8571 0.05395 0.0
C6467 C 0.39863 0.86217 0.06108 0.0
C6468 C 0.38558 0.86132 0.05614 0.0
C6469 C 0.38226 0.85601 0.04401 0.0
C6470 C 0.42201 0.85784 0.0589 0.0
C6471 C 0.37525 0.86652 0.06348 0.0
C6472 C 0.40424 0.87068 0.09556 0.0
C6473 C 0.40733 0.88389 0.09632 0.0
C6474 C 0.40182 0.86336 0.08412 0.0
C6475 C 0.4026 0.86943 0.07325 0.0
C6476 C 0.40633 0.8827 0.07401 0.0
C6477 C 0.40863 0.88976 0.08553 0.0
C6478 C 0.39786 0.84924 0.08367 0.0
C6479 C 0.40741 0.88953 0.06265 0.0
H6480 H 0.41172 0.8484 0.03621 0.0
H6481 H 0.37234 0.8556 0.04015 0.0
H6482 H 0.42669 0.86786 0.06001 0.0
H6483 H 0.42248 0.85436 0.06806 0.0
H6484 H 0.42775 0.85225 0.05273 0.0
H6485 H 0.36537 0.86419 0.05867 0.0
H6486 H 0.37503 0.8627 0.0725 0.0
H6487 H 0.37761 0.87697 0.06525 0.0
H6488 H 0.40317 0.86614 0.1039 0.0
H6489 H 0.4112 0.89996 0.08611 0.0
H6490 H 0.40378 0.84412 0.07732 0.0
H6491 H 0.3875 0.84676 0.08012 0.0
H6492 H 0.39897 0.84582 0.09284 0.0
H6493 H 0.41388 0.8851 0.05634 0.0
H6494 H 0.41128 0.89973 0.06481 0.0
H6495 H 0.39765 0.88872 0.0577 0.0
C6496 C 0.97598 0.63973 0.83412 0.0
C6497 C 0.97061 0.63979 0.82212 0.0
C6498 C 0.96795 0.63769 0.84379 0.0
C6499 C 0.95423 0.63563 0.84139 0.0
C6500 C 0.94875 0.636 0.82936 0.0
C6501 C 0.957 0.63808 0.81988 0.0
C6502 C 0.97414 0.63742 0.85651 0.0
C6503 C 0.93416 0.6338 0.82642 0.0
C6504 C 0.93329 0.6163 0.86193 0.0
C6505 C 0.92797 0.6257 0.86895 0.0
C6506 C 0.94205 0.61944 0.8531 0.0
C6507 C 0.94557 0.63231 0.85126 0.0
C6508 C 0.94042 0.64188 0.8585 0.0
C6509 C 0.93166 0.63846 0.86728 0.0
C6510 C 0.94733 0.60895 0.84557 0.0
C6511 C 0.94398 0.6557 0.85681 0.0
H6512 H 0.98649 0.64121 0.83594 0.0
H6513 H 0.95278 0.63793 0.81061 0.0
H6514 H 0.97009 0.64408 0.86315 0.0
H6515 H 0.97183 0.62781 0.85945 0.0
H6516 H 0.98491 0.63997 0.857 0.0
H6517 H 0.93145 0.63513 0.81675 0.0
H6518 H 0.93021 0.62401 0.82806 0.0
H6519 H 0.92939 0.64037 0.83253 0.0
H6520 H 0.93044 0.60644 0.86323 0.0
H6521 H 0.92757 0.64577 0.87271 0.0
H6522 H 0.95815 0.61056 0.84638 0.0
H6523 H 0.94417 0.60894 0.83575 0.0
H6524 H 0.94397 0.59946 0.84843 0.0
H6525 H 0.95473 0.65833 0.85768 0.0
H6526 H 0.93964 0.66201 0.86357 0.0
H6527 H 0.94053 0.65742 0.84746 0.0
C6528 C 0.09977 0.16459 0.53294 0.0
C6529 C 0.08959 0.16498 0.52407 0.0
C6530 C 0.09746 0.15879 0.54367 0.0
C6531 C 0.08466 0.15324 0.54557 0.0
C6532 C 0.07424 0.15417 0.53696 0.0
C6533 C 0.07683 0.16002 0.52631 0.0
C6534 C 0.10884 0.158 0.55262 0.0
C6535 C 0.06044 0.14845 0.53869 0.0
C6536 C 0.08163 0.12488 0.56388 0.0
C6537 C 0.07872 0.13022 0.57536 0.0
C6538 C 0.0835 0.13227 0.55412 0.0
C6539 C 0.08242 0.14535 0.55589 0.0
C6540 C 0.07938 0.1508 0.56745 0.0
C6541 C 0.07757 0.14316 0.57709 0.0
C6542 C 0.08672 0.12607 0.54195 0.0
C6543 C 0.07814 0.16471 0.56966 0.0
H6544 H 0.10967 0.16828 0.53123 0.0
H6545 H 0.06888 0.16045 0.51958 0.0
H6546 H 0.10659 0.16107 0.5621 0.0
H6547 H 0.1107 0.14801 0.5524 0.0
H6548 H 0.1179 0.1639 0.55048 0.0
H6549 H 0.05328 0.15111 0.53184 0.0
H6550 H 0.05976 0.13797 0.53782 0.0
H6551 H 0.0577 0.1515 0.54801 0.0
H6552 H 0.08252 0.11488 0.56255 0.0
H6553 H 0.07534 0.14734 0.58596 0.0
H6554 H 0.09631 0.13065 0.53945 0.0
H6555 H 0.07932 0.12737 0.53465 0.0
H6556 H 0.0871 0.11577 0.54207 0.0
H6557 H 0.0875 0.17048 0.56814 0.0
H6558 H 0.07548 0.16744 0.57909 0.0
H6559 H 0.07062 0.16711 0.56303 0.0
C6560 C 0.52352 0.36946 0.32567 0.0
C6561 C 0.53185 0.37093 0.31615 0.0
C6562 C 0.52859 0.36988 0.33788 0.0
C6563 C 0.54228 0.37194 0.34058 0.0
C6564 C 0.55069 0.37358 0.33099 0.0
C6565 C 0.54538 0.37303 0.31892 0.0
C6566 C 0.51934 0.36802 0.34785 0.0
C6567 C 0.56535 0.37594 0.33348 0.0
C6568 C 0.55869 0.38527 0.37165 0.0
C6569 C 0.56342 0.3746 0.3757 0.0
C6570 C 0.55106 0.3844 0.36057 0.0
C6571 C 0.54801 0.37255 0.35339 0.0
C6572 C 0.55194 0.36158 0.35786 0.0
C6573 C 0.55963 0.36274 0.36896 0.0
C6574 C 0.54705 0.39632 0.35616 0.0
C6575 C 0.54878 0.34875 0.35052 0.0
H6576 H 0.51306 0.36775 0.32354 0.0
H6577 H 0.55184 0.3744 0.31162 0.0
H6578 H 0.52126 0.35968 0.35256 0.0
H6579 H 0.52098 0.37638 0.35485 0.0
H6580 H 0.50896 0.36658 0.34425 0.0
H6581 H 0.57051 0.37705 0.325 0.0
H6582 H 0.5682 0.38464 0.33992 0.0
H6583 H 0.56872 0.36796 0.3379 0.0
H6584 H 0.56138 0.39443 0.37695 0.0
H6585 H 0.56329 0.35446 0.37199 0.0
H6586 H 0.53657 0.39479 0.35293 0.0
H6587 H 0.55269 0.39886 0.34828 0.0
H6588 H 0.5488 0.40445 0.36343 0.0
H6589 H 0.53836 0.34697 0.3471 0.0
H6590 H 0.55091 0.34097 0.35598 0.0
H6591 H 0.55468 0.34849 0.34242 0.0
C6592 C 0.44022 0.42506 0.23108 0.0
C6593 C 0.44061 0.41196 0.22947 0.0
C6594 C 0.43258 0.43086 0.22291 0.0
C6595 C 0.42523 0.42337 0.21289 0.0
C6596 C 0.42503 0.41006 0.21164 0.0
C6597 C 0.43269 0.40453 0.21995 0.0
C6598 C 0.43296 0.44506 0.22461 0.0
C6599 C 0.41727 0.4017 0.20113 0.0
C6600 C 0.39918 0.43455 0.19247 0.0
C6601 C 0.40594 0.4366 0.182 0.0
C6602 C 0.40551 0.43095 0.20297 0.0
C6603 C 0.41887 0.42939 0.20294 0.0
C6604 C 0.4259 0.4323 0.19268 0.0
C6605 C 0.41935 0.43588 0.18236 0.0
C6606 C 0.39772 0.42805 0.21377 0.0
C6607 C 0.44017 0.43087 0.19228 0.0
H6608 H 0.44634 0.43087 0.23839 0.0
H6609 H 0.43275 0.39437 0.2188 0.0
H6610 H 0.43865 0.44935 0.21746 0.0
H6611 H 0.42297 0.44763 0.22355 0.0
H6612 H 0.43754 0.44927 0.23373 0.0
H6613 H 0.41735 0.39147 0.202 0.0
H6614 H 0.40701 0.40359 0.20058 0.0
H6615 H 0.42142 0.40387 0.19237 0.0
H6616 H 0.3888 0.43508 0.19221 0.0
H6617 H 0.42463 0.43766 0.17433 0.0
H6618 H 0.40319 0.43236 0.22247 0.0
H6619 H 0.39601 0.41766 0.21414 0.0
H6620 H 0.38811 0.43155 0.21315 0.0
H6621 H 0.44579 0.4359 0.20062 0.0
H6622 H 0.44447 0.4346 0.18411 0.0
H6623 H 0.44132 0.4207 0.19206 0.0
C6624 C 0.38849 0.73971 0.94869 0.0
C6625 C 0.37742 0.74588 0.94777 0.0
C6626 C 0.38983 0.72914 0.94048 0.0
C6627 C 0.37985 0.72466 0.93113 0.0
C6628 C 0.36841 0.73051 0.93048 0.0
C6629 C 0.36733 0.74104 0.93881 0.0
C6630 C 0.40215 0.72312 0.94149 0.0
C6631 C 0.35753 0.72597 0.92069 0.0
C6632 C 0.38921 0.70802 0.90154 0.0
C6633 C 0.38497 0.6953 0.90286 0.0
C6634 C 0.38768 0.71765 0.91072 0.0
C6635 C 0.38177 0.71445 0.9215 0.0
C6636 C 0.37757 0.70159 0.92294 0.0
C6637 C 0.37921 0.69214 0.91359 0.0
C6638 C 0.39228 0.73126 0.90884 0.0
C6639 C 0.37125 0.69783 0.93432 0.0
H6640 H 0.39638 0.74346 0.95551 0.0
H6641 H 0.35866 0.74565 0.93818 0.0
H6642 H 0.39975 0.71272 0.94155 0.0
H6643 H 0.4078 0.72477 0.93339 0.0
H6644 H 0.40845 0.72701 0.94989 0.0
H6645 H 0.34891 0.73097 0.92196 0.0
H6646 H 0.36107 0.72751 0.91155 0.0
H6647 H 0.35442 0.71565 0.92066 0.0
H6648 H 0.39367 0.71046 0.89326 0.0
H6649 H 0.37594 0.6823 0.91467 0.0
H6650 H 0.3995 0.73566 0.9164 0.0
H6651 H 0.38394 0.73675 0.90902 0.0
H6652 H 0.39684 0.73213 0.90001 0.0
H6653 H 0.37789 0.7014 0.94256 0.0
H6654 H 0.36875 0.6874 0.93413 0.0
H6655 H 0.36221 0.70221 0.9353 0.0
C6656 C 0.05559 0.61257 0.71714 0.0
C6657 C 0.05395 0.61566 0.72959 0.0
C6658 C 0.06578 0.60607 0.71341 0.0
C6659 C 0.07451 0.60242 0.72235 0.0
C6660 C 0.07252 0.60489 0.73493 0.0
C6661 C 0.06226 0.61154 0.73842 0.0
C6662 C 0.06751 0.6036 0.69987 0.0
C6663 C 0.08152 0.60101 0.74471 0.0
C6664 C 0.0958 0.57983 0.70781 0.0
C6665 C 0.10628 0.58842 0.7049 0.0
C6666 C 0.08579 0.58408 0.71454 0.0
C6667 C 0.08635 0.59718 0.71833 0.0
C6668 C 0.09755 0.60565 0.7164 0.0
C6669 C 0.10739 0.60115 0.70973 0.0
C6670 C 0.07413 0.57471 0.71664 0.0
C6671 C 0.09861 0.61968 0.72033 0.0
H6672 H 0.04899 0.61543 0.71026 0.0
H6673 H 0.06105 0.61389 0.74806 0.0
H6674 H 0.07687 0.60892 0.69769 0.0
H6675 H 0.06795 0.59339 0.69734 0.0
H6676 H 0.05949 0.60646 0.69411 0.0
H6677 H 0.07749 0.60179 0.75386 0.0
H6678 H 0.08337 0.59112 0.74238 0.0
H6679 H 0.09106 0.60719 0.7453 0.0
H6680 H 0.09493 0.56998 0.7041 0.0
H6681 H 0.11561 0.60776 0.70762 0.0
H6682 H 0.06593 0.57558 0.70998 0.0
H6683 H 0.07086 0.5767 0.72597 0.0
H6684 H 0.07629 0.5648 0.71542 0.0
H6685 H 0.09165 0.62389 0.71446 0.0
H6686 H 0.10858 0.62468 0.71957 0.0
H6687 H 0.09601 0.6214 0.72993 0.0
C6688 C 0.10898 0.25967 0.42734 0.0
C6689 C 0.11002 0.26242 0.44013 0.0
C6690 C 0.10878 0.26932 0.4196 0.0
C6691 C 0.10957 0.28206 0.42476 0.0
C6692 C 0.11076 0.28494 0.43766 0.0
C6693 C 0.11097 0.27509 0.44519 0.0
C6694 C 0.10748 0.26585 0.40589 0.0
C6695 C 0.11163 0.29841 0.4435 0.0
C6696 C 0.1189 0.30795 0.40421 0.0
C6697 C 0.10664 0.31099 0.40049 0.0
C6698 C 0.12003 0.29864 0.41224 0.0
C6699 C 0.10864 0.29228 0.41663 0.0
C6700 C 0.09627 0.29545 0.41297 0.0
C6701 C 0.09543 0.30474 0.40493 0.0
C6702 C 0.13338 0.29549 0.41588 0.0
C6703 C 0.0839 0.28892 0.41746 0.0
H6704 H 0.10802 0.24991 0.42334 0.0
H6705 H 0.11194 0.27732 0.45505 0.0
H6706 H 0.09824 0.26849 0.402 0.0
H6707 H 0.11558 0.27122 0.40159 0.0
H6708 H 0.10754 0.25557 0.40334 0.0
H6709 H 0.11288 0.2991 0.45365 0.0
H6710 H 0.11994 0.3044 0.44012 0.0
H6711 H 0.10264 0.30237 0.44086 0.0
H6712 H 0.12761 0.31273 0.40079 0.0
H6713 H 0.08595 0.30709 0.40205 0.0
H6714 H 0.13395 0.28542 0.41275 0.0
H6715 H 0.13511 0.29669 0.42601 0.0
H6716 H 0.14129 0.30153 0.41194 0.0
H6717 H 0.08277 0.27861 0.41445 0.0
H6718 H 0.07508 0.29271 0.41402 0.0
H6719 H 0.08444 0.29003 0.42762 0.0
C6720 C 0.43947 0.60158 0.28425 0.0
C6721 C 0.44352 0.61452 0.28369 0.0
C6722 C 0.42922 0.59747 0.29135 0.0
C6723 C 0.4228 0.60654 0.29797 0.0
C6724 C 0.42654 0.6196 0.29708 0.0
C6725 C 0.43689 0.62343 0.29 0.0
C6726 C 0.42559 0.58347 0.29215 0.0
C6727 C 0.41985 0.62956 0.30389 0.0
C6728 C 0.39008 0.59625 0.31058 0.0
C6729 C 0.39383 0.59561 0.32293 0.0
C6730 C 0.39942 0.59969 0.30229 0.0
C6731 C 0.41277 0.60244 0.30646 0.0
C6732 C 0.41658 0.60158 0.31889 0.0
C6733 C 0.40705 0.59824 0.32698 0.0
C6734 C 0.39498 0.6006 0.28912 0.0
C6735 C 0.43073 0.60434 0.32369 0.0
H6736 H 0.44465 0.59466 0.27948 0.0
H6737 H 0.43989 0.63344 0.28947 0.0
H6738 H 0.42783 0.58132 0.30164 0.0
H6739 H 0.41496 0.58063 0.28996 0.0
H6740 H 0.43094 0.57762 0.28583 0.0
H6741 H 0.42329 0.63924 0.30155 0.0
H6742 H 0.40914 0.6275 0.30178 0.0
H6743 H 0.4217 0.62939 0.31391 0.0
H6744 H 0.37985 0.59428 0.30741 0.0
H6745 H 0.40994 0.59774 0.33654 0.0
H6746 H 0.40004 0.59441 0.2829 0.0
H6747 H 0.39761 0.61045 0.28687 0.0
H6748 H 0.38428 0.59786 0.28726 0.0
H6749 H 0.43661 0.5982 0.31828 0.0
H6750 H 0.4321 0.6028 0.3335 0.0
H6751 H 0.43462 0.61431 0.32266 0.0
C6752 C 0.1174 0.72649 0.08623 0.0
C6753 C 0.12809 0.73517 0.08389 0.0
C6754 C 0.11922 0.71535 0.09147 0.0
C6755 C 0.13203 0.71287 0.09446 0.0
C6756 C 0.14286 0.72127 0.09153 0.0
C6757 C 0.14075 0.7323 0.08626 0.0
C6758 C 0.10742 0.70661 0.09442 0.0
C6759 C 0.15667 0.71893 0.09452 0.0
C6760 C 0.13626 0.69406 0.12154 0.0
C6761 C 0.13707 0.68195 0.11579 0.0
C6762 C 0.1348 0.7042 0.11469 0.0
C6763 C 0.1341 0.7022 0.10173 0.0
C6764 C 0.13517 0.69005 0.09585 0.0
C6765 C 0.13669 0.68006 0.10296 0.0
C6766 C 0.13383 0.71704 0.12133 0.0
C6767 C 0.13443 0.68756 0.08206 0.0
H6768 H 0.10759 0.72867 0.08452 0.0
H6769 H 0.14906 0.73887 0.08427 0.0
H6770 H 0.10819 0.69667 0.09099 0.0
H6771 H 0.10693 0.70703 0.1045 0.0
H6772 H 0.09818 0.70917 0.09039 0.0
H6773 H 0.16396 0.72568 0.09058 0.0
H6774 H 0.15874 0.71992 0.10461 0.0
H6775 H 0.15795 0.70913 0.09102 0.0
H6776 H 0.13674 0.6956 0.13146 0.0
H6777 H 0.13721 0.67068 0.09848 0.0
H6778 H 0.12428 0.71999 0.11874 0.0
H6779 H 0.14153 0.72423 0.1186 0.0
H6780 H 0.13483 0.71707 0.13145 0.0
H6781 H 0.12473 0.68916 0.07821 0.0
H6782 H 0.13597 0.67773 0.07892 0.0
H6783 H 0.14185 0.69427 0.07828 0.0
C6784 C 0.05173 0.39179 0.79911 0.0
C6785 C 0.04588 0.40215 0.79582 0.0
C6786 C 0.06395 0.39355 0.80567 0.0
C6787 C 0.07043 0.406 0.80912 0.0
C6788 C 0.06475 0.41649 0.80553 0.0
C6789 C 0.05253 0.41444 0.79888 0.0
C6790 C 0.06974 0.3821 0.80923 0.0
C6791 C 0.07133 0.42989 0.80909 0.0
C6792 C 0.09364 0.40915 0.8375 0.0
C6793 C 0.10572 0.40898 0.83245 0.0
C6794 C 0.08214 0.40868 0.83002 0.0
C6795 C 0.08274 0.40795 0.81714 0.0
C6796 C 0.09497 0.40825 0.812 0.0
C6797 C 0.10635 0.40881 0.81973 0.0
C6798 C 0.06931 0.40854 0.83587 0.0
C6799 C 0.09598 0.40743 0.79831 0.0
H6800 H 0.0467 0.38226 0.79659 0.0
H6801 H 0.04799 0.42247 0.79643 0.0
H6802 H 0.07979 0.38235 0.8062 0.0
H6803 H 0.07042 0.38222 0.81934 0.0
H6804 H 0.06384 0.37307 0.8052 0.0
H6805 H 0.06611 0.43695 0.80484 0.0
H6806 H 0.07178 0.43207 0.8192 0.0
H6807 H 0.08152 0.43097 0.80636 0.0
H6808 H 0.09317 0.40946 0.84735 0.0
H6809 H 0.11568 0.40861 0.81581 0.0
H6810 H 0.06313 0.39929 0.83319 0.0
H6811 H 0.06393 0.41598 0.83259 0.0
H6812 H 0.07063 0.41007 0.84603 0.0
H6813 H 0.09122 0.39801 0.79403 0.0
H6814 H 0.10627 0.40881 0.79583 0.0
H6815 H 0.09077 0.41465 0.79434 0.0
C6816 C 0.35906 0.27622 0.56458 0.0
C6817 C 0.35559 0.27521 0.55196 0.0
C6818 C 0.35952 0.28774 0.57194 0.0
C6819 C 0.35647 0.29856 0.56657 0.0
C6820 C 0.35269 0.29756 0.55389 0.0
C6821 C 0.3523 0.2859 0.54673 0.0
C6822 C 0.36363 0.28842 0.58542 0.0
C6823 C 0.34932 0.30889 0.54785 0.0
C6824 C 0.34928 0.32629 0.58823 0.0
C6825 C 0.36143 0.33399 0.58964 0.0
C6826 C 0.34741 0.31483 0.58053 0.0
C6827 C 0.35795 0.31103 0.57413 0.0
C6828 C 0.37015 0.31891 0.57536 0.0
C6829 C 0.37173 0.33029 0.58311 0.0
C6830 C 0.33427 0.30667 0.57944 0.0
C6831 C 0.38162 0.31519 0.5687 0.0
H6832 H 0.36181 0.26806 0.56866 0.0
H6833 H 0.34946 0.28514 0.53702 0.0
H6834 H 0.37294 0.2949 0.58753 0.0
H6835 H 0.35623 0.29233 0.59099 0.0
H6836 H 0.365 0.279 0.5883 0.0
H6837 H 0.34591 0.30639 0.53804 0.0
H6838 H 0.34159 0.31314 0.55268 0.0
H6839 H 0.35801 0.31625 0.54849 0.0
H6840 H 0.34127 0.32911 0.59326 0.0
H6841 H 0.38112 0.33625 0.5842 0.0
H6842 H 0.33521 0.2975 0.58306 0.0
H6843 H 0.33063 0.30452 0.56967 0.0
H6844 H 0.32691 0.31127 0.58452 0.0
H6845 H 0.38434 0.30627 0.57178 0.0
H6846 H 0.3903 0.32261 0.57029 0.0
H6847 H 0.37895 0.31338 0.5587 0.0
C6848 C 0.17428 0.42041 0.36923 0.0
C6849 C 0.16585 0.42936 0.36727 0.0
C6850 C 0.16935 0.4077 0.37025 0.0
C6851 C 0.1557 0.40387 0.36925 0.0
C6852 C 0.14716 0.41289 0.36739 0.0
C6853 C 0.15233 0.4255 0.36647 0.0
C6854 C 0.17874 0.39835 0.37226 0.0
C6855 C 0.13253 0.4092 0.36628 0.0
C6856 C 0.13979 0.3703 0.35902 0.0
C6857 C 0.13511 0.36644 0.36996 0.0
C6858 C 0.14726 0.38219 0.35878 0.0
C6859 C 0.15015 0.39039 0.36977 0.0
C6860 C 0.14628 0.38617 0.38099 0.0
C6861 C 0.13878 0.37423 0.38096 0.0
C6862 C 0.15124 0.38628 0.34662 0.0
C6863 C 0.14927 0.3946 0.39292 0.0
H6864 H 0.18474 0.4233 0.36978 0.0
H6865 H 0.14574 0.43239 0.36524 0.0
H6866 H 0.17648 0.39355 0.38053 0.0
H6867 H 0.17764 0.3909 0.36437 0.0
H6868 H 0.18906 0.40294 0.37337 0.0
H6869 H 0.12724 0.41739 0.36497 0.0
H6870 H 0.12967 0.40186 0.3584 0.0
H6871 H 0.12929 0.40504 0.37463 0.0
H6872 H 0.13715 0.36421 0.35053 0.0
H6873 H 0.13515 0.37133 0.38944 0.0
H6874 H 0.16169 0.3904 0.34731 0.0
H6875 H 0.14549 0.39375 0.34401 0.0
H6876 H 0.14961 0.3783 0.3392 0.0
H6877 H 0.15964 0.39902 0.39383 0.0
H6878 H 0.14726 0.38933 0.40097 0.0
H6879 H 0.14319 0.40238 0.39305 0.0
C6880 C 0.70568 0.09461 0.62874 0.0
C6881 C 0.69712 0.08318 0.62755 0.0
C6882 C 0.70094 0.10634 0.62972 0.0
C6883 C 0.68731 0.10664 0.62957 0.0
C6884 C 0.67863 0.09514 0.62818 0.0
C6885 C 0.68363 0.08358 0.62719 0.0
C6886 C 0.71049 0.11841 0.63113 0.0
C6887 C 0.66404 0.09503 0.62806 0.0
C6888 C 0.674 0.13485 0.6453 0.0
C6889 C 0.66995 0.14091 0.63533 0.0
C6890 C 0.68003 0.1239 0.64357 0.0
C6891 C 0.68207 0.1189 0.63154 0.0
C6892 C 0.67834 0.12521 0.62143 0.0
C6893 C 0.6723 0.13615 0.62344 0.0
C6894 C 0.68384 0.11747 0.65459 0.0
C6895 C 0.68039 0.12018 0.60848 0.0
H6896 H 0.71611 0.09437 0.6289 0.0
H6897 H 0.67695 0.0748 0.62648 0.0
H6898 H 0.70808 0.12456 0.62402 0.0
H6899 H 0.70976 0.12375 0.64017 0.0
H6900 H 0.72073 0.11657 0.63041 0.0
H6901 H 0.6586 0.08529 0.62634 0.0
H6902 H 0.66148 0.09944 0.63699 0.0
H6903 H 0.66071 0.10072 0.62089 0.0
H6904 H 0.6722 0.13854 0.65449 0.0
H6905 H 0.6692 0.14082 0.61569 0.0
H6906 H 0.69427 0.11615 0.65464 0.0
H6907 H 0.67804 0.10793 0.65412 0.0
H6908 H 0.68222 0.12294 0.66335 0.0
H6909 H 0.69071 0.11868 0.60771 0.0
H6910 H 0.67784 0.12666 0.60172 0.0
H6911 H 0.67428 0.11084 0.60607 0.0
C6912 C 0.74237 0.96791 0.36686 0.0
C6913 C 0.74336 0.98077 0.36503 0.0
C6914 C 0.73017 0.96049 0.36704 0.0
C6915 C 0.71866 0.9661 0.3655 0.0
C6916 C 0.71955 0.97902 0.36345 0.0
C6917 C 0.73188 0.98618 0.36317 0.0
C6918 C 0.72962 0.94673 0.36917 0.0
C6919 C 0.70749 0.98535 0.3618 0.0
C6920 C 0.68651 0.94446 0.35744 0.0
C6921 C 0.68157 0.94378 0.369 0.0
C6922 C 0.69856 0.95176 0.35613 0.0
C6923 C 0.70572 0.95859 0.36661 0.0
C6924 C 0.70066 0.95806 0.37826 0.0
C6925 C 0.68868 0.95059 0.37931 0.0
C6926 C 0.70372 0.95199 0.34358 0.0
C6927 C 0.70794 0.9653 0.38964 0.0
H6928 H 0.75115 0.96367 0.36848 0.0
H6929 H 0.73253 0.99605 0.36154 0.0
H6930 H 0.72532 0.94516 0.378 0.0
H6931 H 0.72324 0.94065 0.36185 0.0
H6932 H 0.73942 0.9436 0.36942 0.0
H6933 H 0.70984 0.99536 0.35989 0.0
H6934 H 0.70088 0.98011 0.35416 0.0
H6935 H 0.70208 0.98512 0.37021 0.0
H6936 H 0.68108 0.93915 0.34944 0.0
H6937 H 0.68485 0.95006 0.38824 0.0
H6938 H 0.71315 0.94818 0.34355 0.0
H6939 H 0.7056 0.96189 0.34126 0.0
H6940 H 0.69685 0.94634 0.33633 0.0
H6941 H 0.71753 0.96198 0.39116 0.0
H6942 H 0.70247 0.96419 0.39794 0.0
H6943 H 0.70988 0.97553 0.38844 0.0
C6944 C 0.81363 0.93044 0.13954 0.0
C6945 C 0.81467 0.93677 0.15141 0.0
C6946 C 0.82028 0.92003 0.13678 0.0
C6947 C 0.82803 0.91581 0.14615 0.0
C6948 C 0.82874 0.92191 0.15824 0.0
C6949 C 0.82211 0.93236 0.16071 0.0
C6950 C 0.81938 0.91384 0.12376 0.0
C6951 C 0.83677 0.9176 0.16852 0.0
C6952 C 0.83877 0.88317 0.14196 0.0
C6953 C 0.8518 0.88619 0.13928 0.0
C6954 C 0.83081 0.89269 0.14401 0.0
C6955 C 0.83599 0.90548 0.14324 0.0
C6956 C 0.84903 0.90851 0.14016 0.0
C6957 C 0.85679 0.89883 0.13828 0.0
C6958 C 0.817 0.88911 0.14738 0.0
C6959 C 0.85487 0.92202 0.13909 0.0
H6960 H 0.80798 0.9339 0.13231 0.0
H6961 H 0.8228 0.93716 0.16992 0.0
H6962 H 0.82912 0.91523 0.12003 0.0
H6963 H 0.81635 0.90348 0.12351 0.0
H6964 H 0.81235 0.91778 0.1177 0.0
H6965 H 0.83566 0.92285 0.17754 0.0
H6966 H 0.83391 0.90733 0.1691 0.0
H6967 H 0.84724 0.91899 0.16665 0.0
H6968 H 0.83493 0.87341 0.14283 0.0
H6969 H 0.86683 0.90116 0.13607 0.0
H6970 H 0.81005 0.89287 0.14111 0.0
H6971 H 0.81589 0.89344 0.15679 0.0
H6972 H 0.81425 0.87869 0.14702 0.0
H6973 H 0.8487 0.9263 0.13253 0.0
H6974 H 0.86492 0.92269 0.13599 0.0
H6975 H 0.85518 0.92774 0.1481 0.0
C6976 C 0.28088 0.52962 0.35499 0.0
C6977 C 0.27212 0.52387 0.34524 0.0
C6978 C 0.29204 0.53785 0.35294 0.0
C6979 C 0.29445 0.5405 0.34085 0.0
C6980 C 0.28582 0.53446 0.33091 0.0
C6981 C 0.27477 0.52615 0.33322 0.0
C6982 C 0.30107 0.54398 0.36379 0.0
C6983 C 0.28802 0.53712 0.31791 0.0
C6984 C 0.31505 0.57233 0.34011 0.0
C6985 C 0.32754 0.56886 0.33918 0.0
C6986 C 0.30405 0.56313 0.33988 0.0
C6987 C 0.30562 0.55014 0.33883 0.0
C6988 C 0.31813 0.54657 0.33718 0.0
C6989 C 0.32896 0.556 0.33732 0.0
C6990 C 0.29087 0.56733 0.34148 0.0
C6991 C 0.3202 0.53284 0.33608 0.0
H6992 H 0.27894 0.52773 0.36426 0.0
H6993 H 0.26796 0.52178 0.32568 0.0
H6994 H 0.31122 0.54227 0.36237 0.0
H6995 H 0.30104 0.55438 0.36469 0.0
H6996 H 0.29821 0.54036 0.37251 0.0
H6997 H 0.28098 0.53096 0.31115 0.0
H6998 H 0.28701 0.54715 0.31689 0.0
H6999 H 0.29807 0.53573 0.31571 0.0
H7000 H 0.31395 0.58229 0.34143 0.0
H7001 H 0.33863 0.55331 0.33668 0.0
H7002 H 0.28762 0.56528 0.3506 0.0
H7003 H 0.2835 0.56201 0.33448 0.0
H7004 H 0.29107 0.57763 0.34078 0.0
H7005 H 0.31886 0.52905 0.34502 0.0
H7006 H 0.33013 0.53157 0.33335 0.0
H7007 H 0.31291 0.52711 0.32927 0.0
C7008 C 0.32283 0.57775 0.87456 0.0
C7009 C 0.32938 0.56724 0.87204 0.0
C7010 C 0.32949 0.59015 0.87545 0.0
C7011 C 0.34303 0.59206 0.87383 0.0
C7012 C 0.34971 0.58151 0.87136 0.0
C7013 C 0.3428 0.56924 0.87045 0.0
C7014 C 0.32205 0.60119 0.87805 0.0
C7015 C 0.36415 0.58316 0.86957 0.0
C7016 C 0.35944 0.62293 0.86408 0.0
C7017 C 0.36587 0.62886 0.87513 0.0
C7018 C 0.35162 0.61113 0.86361 0.0
C7019 C 0.35025 0.6051 0.87444 0.0
C7020 C 0.35641 0.6112 0.88569 0.0
C7021 C 0.36413 0.62304 0.88591 0.0
C7022 C 0.34512 0.60498 0.85145 0.0
C7023 C 0.35523 0.60502 0.89742 0.0
H7024 H 0.31249 0.57628 0.87593 0.0
H7025 H 0.34789 0.5612 0.86828 0.0
H7026 H 0.32638 0.6071 0.88653 0.0
H7027 H 0.32282 0.6073 0.87047 0.0
H7028 H 0.31157 0.59809 0.87915 0.0
H7029 H 0.36795 0.57396 0.86806 0.0
H7030 H 0.36613 0.58849 0.86156 0.0
H7031 H 0.36964 0.58879 0.8777 0.0
H7032 H 0.36062 0.6275 0.85577 0.0
H7033 H 0.36916 0.62756 0.89445 0.0
H7034 H 0.3345 0.60235 0.85223 0.0
H7035 H 0.34918 0.59612 0.84877 0.0
H7036 H 0.34651 0.61127 0.84404 0.0
H7037 H 0.34482 0.60222 0.89896 0.0
H7038 H 0.35993 0.61136 0.90552 0.0
H7039 H 0.35988 0.59625 0.89668 0.0
C7040 C 0.72439 0.02368 0.17568 0.0
C7041 C 0.73369 0.03258 0.1713 0.0
C7042 C 0.71139 0.02589 0.17646 0.0
C7043 C 0.70761 0.03723 0.17273 0.0
C7044 C 0.71699 0.0463 0.16844 0.0
C7045 C 0.72988 0.04385 0.16776 0.0
C7046 C 0.70166 0.01603 0.18113 0.0
C7047 C 0.71335 0.05849 0.16432 0.0
C7048 C 0.67272 0.03939 0.16177 0.0
C7049 C 0.66853 0.04659 0.17172 0.0
C7050 C 0.68524 0.03579 0.16219 0.0
C7051 C 0.69378 0.03952 0.17282 0.0
C7052 C 0.68939 0.04635 0.1831 0.0
C7053 C 0.67679 0.04982 0.18243 0.0
C7054 C 0.68953 0.02849 0.15104 0.0
C7055 C 0.6982 0.05046 0.19461 0.0
H7056 H 0.7273 0.01501 0.17854 0.0
H7057 H 0.73695 0.05068 0.16416 0.0
H7058 H 0.69691 0.02034 0.18897 0.0
H7059 H 0.69386 0.01236 0.17383 0.0
H7060 H 0.70626 1.00793 0.1841 0.0
H7061 H 0.7219 0.06474 0.16161 0.0
H7062 H 0.706 0.05636 0.15638 0.0
H7063 H 0.70885 0.06376 0.17177 0.0
H7064 H 0.66631 0.03686 0.1535 0.0
H7065 H 0.67358 0.05537 0.19017 0.0
H7066 H 0.69358 0.01997 0.15364 0.0
H7067 H 0.69741 0.03448 0.14703 0.0
H7068 H 0.68141 0.02546 0.14389 0.0
H7069 H 0.70254 0.0423 0.19773 0.0
H7070 H 0.69294 0.05464 0.20218 0.0
H7071 H 0.70636 0.05763 0.19267 0.0
C7072 C 0.80215 1.0019 0.66084 0.0
C7073 C 0.80259 0.01135 0.65284 0.0
C7074 C 0.81304 0.99579 0.66323 0.0
C7075 C 0.82469 0.99923 0.65752 0.0
C7076 C 0.82537 0.00912 0.64983 0.0
C7077 C 0.81431 0.01506 0.64757 0.0
C7078 C 0.81191 0.98532 0.67152 0.0
C7079 C 0.83762 0.01307 0.64357 0.0
C7080 C 0.85564 0.98766 0.6697 0.0
C7081 C 0.85593 0.97679 0.66155 0.0
C7082 C 0.84563 0.9952 0.66842 0.0
C7083 C 0.83572 0.99175 0.65879 0.0
C7084 C 0.8361 0.98086 0.65049 0.0
C7085 C 0.8462 0.97353 0.65198 0.0
C7086 C 0.84555 1.00676 0.67743 0.0
C7087 C 0.82574 0.97684 0.6401 0.0
H7088 H 0.7932 0.99915 0.66512 0.0
H7089 H 0.81471 0.0223 0.64132 0.0
H7090 H 0.8127 0.97617 0.66615 0.0
H7091 H 0.82002 0.98707 0.67879 0.0
H7092 H 0.80251 0.9844 0.67593 0.0
H7093 H 0.83698 0.02166 0.6388 0.0
H7094 H 0.84619 0.01496 0.65033 0.0
H7095 H 0.83936 1.00525 0.63674 0.0
H7096 H 0.86318 0.99024 0.6771 0.0
H7097 H 0.84644 0.96515 0.64565 0.0
H7098 H 0.83658 1.0057 0.68248 0.0
H7099 H 0.8454 0.01528 0.67248 0.0
H7100 H 0.85417 1.00837 0.68417 0.0
H7101 H 0.81605 0.97478 0.64383 0.0
H7102 H 0.82762 0.96829 0.63428 0.0
H7103 H 0.82521 0.98464 0.63424 0.0
loop_
_geom_bond_atom_site_label_1
_geom_bond_atom_site_label_2
_geom_bond_distance
_geom_bond_site_symmetry_2
_ccdc_geom_bond_type
C0 C1 1.264 . S
C0 C5 1.479 . S
C0 C10 1.465 . S
C1 C0 1.264 . S
C1 C3 1.339 . S
C1 H28 0.931 . S
C2 C3 1.395 . S
C2 C4 1.320 . S
C3 C1 1.339 . S
C3 C2 1.395 . S
C3 H29 0.929 . S
C4 C2 1.320 . S
C4 C5 1.405 . S
C4 H30 0.930 . S
C5 C0 1.479 . S
C5 C4 1.405 . S
C5 H31 0.931 . S
U6 O7 2.454 . S
U6 O8 2.458 1_655 S
U6 C9 2.984 1_655 S
U6 C10 2.847 . S
U6 C23 2.882 1_655 S
U6 O24 2.441 . S
U6 O25 2.420 . S
U6 O26 2.455 1_655 S
U6 O27 2.435 1_655 S
O7 U6 2.454 . S
O7 C9 1.353 1_655 S
O8 U6 2.458 1_455 S
O8 C9 1.286 . S
C9 U6 2.984 1_455 S
C9 O7 1.353 1_455 S
C9 O8 1.286 . S
C9 C11 1.363 . S
C10 C0 1.465 . S
C10 U6 2.847 . S
C10 O24 1.249 . S
C10 O25 1.202 . S
C11 C9 1.363 . S
C11 C13 1.421 . S
C11 C16 1.342 . S
C12 C13 1.318 . S
C12 C15 1.461 . S
C12 H32 0.932 1_455 S
C13 C11 1.421 . S
C13 C12 1.318 . S
C13 H33 0.910 1_455 S
C14 C15 1.474 . S
C14 C16 1.285 . S
C14 H34 0.929 . S
C15 C12 1.461 . S
C15 C14 1.474 . S
C16 C11 1.342 . S
C16 C14 1.285 . S
C16 H35 0.930 . S
C17 C20 1.424 . S
C17 C22 1.245 . S
C17 C23 1.428 . S
C18 C21 1.260 . S
C18 C22 1.477 . S
C18 H36 0.932 . S
C19 C20 1.384 . S
C19 C21 1.479 . S
C19 H37 0.929 . S
C20 C17 1.424 . S
C20 C19 1.384 . S
C20 H38 0.928 . S
C21 C18 1.260 . S
C21 C19 1.479 . S
C22 C17 1.245 . S
C22 C18 1.477 . S
C22 H39 0.932 . S
C23 U6 2.882 1_455 S
C23 C17 1.428 . S
C23 O26 1.301 . S
C23 O27 1.351 . S
O24 U6 2.441 . S
O24 C10 1.249 . S
O25 U6 2.420 . S
O25 C10 1.202 . S
O26 U6 2.455 1_455 S
O26 C23 1.301 . S
O27 U6 2.435 1_455 S
O27 C23 1.351 . S
H28 C1 0.931 . S
H29 C3 0.929 . S
H30 C4 0.930 . S
H31 C5 0.931 . S
H32 C12 0.932 1_655 S
H33 C13 0.910 1_655 S
H34 C14 0.929 . S
H35 C16 0.930 . S
H36 C18 0.932 . S
H37 C19 0.929 . S
H38 C20 0.928 . S
H39 C22 0.932 . S
C40 C41 1.264 . S
C40 C45 1.479 . S
C40 C50 1.465 . S
C41 C40 1.264 . S
C41 C43 1.339 . S
C41 H68 0.931 . S
C42 C43 1.395 . S
C42 C44 1.320 . S
C43 C41 1.339 . S
C43 C42 1.395 . S
C43 H69 0.929 . S
C44 C42 1.320 . S
C44 C45 1.405 . S
C44 H70 0.930 . S
C45 C40 1.479 . S
C45 C44 1.405 . S
C45 H71 0.931 . S
U46 O47 2.454 . S
U46 O48 2.458 . S
U46 C49 2.984 . S
U46 C50 2.847 . S
U46 C63 2.882 . S
U46 O64 2.441 . S
U46 O65 2.420 . S
U46 O66 2.455 . S
U46 O67 2.449 . S
O47 U46 2.454 . S
O47 C49 1.353 . S
O48 U46 2.458 . S
O48 C49 1.286 . S
C49 U46 2.984 . S
C49 O47 1.353 . S
C49 O48 1.286 . S
C49 C51 1.363 . S
C50 C40 1.465 . S
C50 U46 2.847 . S
C50 O64 1.249 . S
C50 O65 1.202 . S
C51 C49 1.363 . S
C51 C53 1.408 . S
C51 C56 1.342 . S
C52 C53 1.310 . S
C52 C55 1.461 . S
C52 H72 0.932 . S
C53 C51 1.408 . S
C53 C52 1.310 . S
C53 H73 0.930 . S
C54 C55 1.474 . S
C54 C56 1.285 . S
C54 H74 0.929 . S
C55 C52 1.461 . S
C55 C54 1.474 . S
C56 C51 1.342 . S
C56 C54 1.285 . S
C56 H75 0.930 . S
C57 C60 1.424 . S
C57 C62 1.245 . S
C57 C63 1.428 . S
C58 C61 1.260 . S
C58 C62 1.477 . S
C58 H76 0.932 . S
C59 C60 1.384 . S
C59 C61 1.479 . S
C59 H77 0.929 . S
C60 C57 1.424 . S
C60 C59 1.384 . S
C60 H78 0.928 . S
C61 C58 1.260 . S
C61 C59 1.479 . S
C62 C57 1.245 . S
C62 C58 1.477 . S
C62 H79 0.932 . S
C63 U46 2.882 . S
C63 C57 1.428 . S
C63 O66 1.301 . S
C63 O67 1.282 . S
O64 U46 2.441 . S
O64 C50 1.249 . S
O65 U46 2.420 . S
O65 C50 1.202 . S
O66 U46 2.455 . S
O66 C63 1.301 . S
O67 U46 2.449 . S
O67 C63 1.282 . S
H68 C41 0.931 . S
H69 C43 0.929 . S
H70 C44 0.930 . S
H71 C45 0.931 . S
H72 C52 0.932 . S
H73 C53 0.930 . S
H74 C54 0.929 . S
H75 C56 0.930 . S
H76 C58 0.932 . S
H77 C59 0.929 . S
H78 C60 0.928 . S
H79 C62 0.932 . S
C80 C81 1.264 . S
C80 C85 1.479 . S
C80 C90 1.465 . S
C81 C80 1.264 . S
C81 C83 1.339 . S
C81 H108 0.931 . S
C82 C83 1.395 . S
C82 C84 1.320 . S
C83 C81 1.339 . S
C83 C82 1.395 . S
C83 H109 0.929 . S
C84 C82 1.320 . S
C84 C85 1.405 . S
C84 H110 0.930 . S
C85 C80 1.479 . S
C85 C84 1.405 . S
C85 H111 0.931 . S
U86 O87 2.454 . S
U86 O88 2.458 . S
U86 C89 2.984 . S
U86 C90 2.847 . S
U86 C103 2.882 . S
U86 O104 2.441 . S
U86 O105 2.420 . S
U86 O106 2.455 . S
U86 O107 2.449 . S
O87 U86 2.454 . S
O87 C89 1.353 . S
O88 U86 2.458 . S
O88 C89 1.286 . S
C89 U86 2.984 . S
C89 O87 1.353 . S
C89 O88 1.286 . S
C89 C91 1.363 . S
C90 C80 1.465 . S
C90 U86 2.847 . S
C90 O104 1.249 . S
C90 O105 1.202 . S
C91 C89 1.363 . S
C91 C93 1.408 . S
C91 C96 1.342 . S
C92 C93 1.310 . S
C92 C95 1.461 . S
C92 H112 0.932 . S
C93 C91 1.408 . S
C93 C92 1.310 . S
C93 H113 0.930 . S
C94 C95 1.474 . S
C94 C96 1.285 . S
C94 H114 0.929 . S
C95 C92 1.461 . S
C95 C94 1.474 . S
C96 C91 1.342 . S
C96 C94 1.285 . S
C96 H115 0.930 . S
C97 C100 1.424 . S
C97 C102 1.245 . S
C97 C103 1.428 . S
C98 C101 1.260 . S
C98 C102 1.477 . S
C98 H116 0.932 . S
C99 C100 1.384 . S
C99 C101 1.479 . S
C99 H117 0.929 . S
C100 C97 1.424 . S
C100 C99 1.384 . S
C100 H118 0.928 . S
C101 C98 1.260 . S
C101 C99 1.479 . S
C102 C97 1.245 . S
C102 C98 1.477 . S
C102 H119 0.932 . S
C103 U86 2.882 . S
C103 C97 1.428 . S
C103 O106 1.301 . S
C103 O107 1.282 . S
O104 U86 2.441 . S
O104 C90 1.249 . S
O105 U86 2.420 . S
O105 C90 1.202 . S
O106 U86 2.455 . S
O106 C103 1.301 . S
O107 U86 2.449 . S
O107 C103 1.282 . S
H108 C81 0.931 . S
H109 C83 0.929 . S
H110 C84 0.930 . S
H111 C85 0.931 . S
H112 C92 0.932 . S
H113 C93 0.930 . S
H114 C94 0.929 . S
H115 C96 0.930 . S
H116 C98 0.932 . S
H117 C99 0.929 . S
H118 C100 0.928 . S
H119 C102 0.932 . S
C120 C121 1.264 . S
C120 C125 1.479 . S
C120 C130 1.465 . S
C121 C120 1.264 . S
C121 C123 1.339 . S
C121 H148 0.931 . S
C122 C123 1.395 . S
C122 C124 1.320 . S
C123 C121 1.339 . S
C123 C122 1.395 . S
C123 H149 0.929 . S
C124 C122 1.320 . S
C124 C125 1.405 . S
C124 H150 0.930 . S
C125 C120 1.479 . S
C125 C124 1.405 . S
C125 H151 0.931 . S
U126 O127 2.454 . S
U126 O128 2.458 . S
U126 C129 2.984 . S
U126 C130 2.847 . S
U126 C143 2.882 . S
U126 O144 2.441 . S
U126 O145 2.420 . S
U126 O146 2.455 . S
U126 O147 2.449 . S
O127 U126 2.454 . S
O127 C129 1.353 . S
O128 U126 2.458 . S
O128 C129 1.286 . S
C129 U126 2.984 . S
C129 O127 1.353 . S
C129 O128 1.286 . S
C129 C131 1.363 . S
C130 C120 1.465 . S
C130 U126 2.847 . S
C130 O144 1.249 . S
C130 O145 1.202 . S
C131 C129 1.363 . S
C131 C133 1.408 . S
C131 C136 1.342 . S
C132 C133 1.310 1_556 S
C132 C135 1.461 . S
C132 H152 0.932 . S
C133 C131 1.408 . S
C133 C132 1.310 1_554 S
C133 H153 0.930 . S
C134 C135 1.528 . S
C134 C136 1.220 1_556 S
C134 H154 0.945 . S
C135 C132 1.461 . S
C135 C134 1.528 . S
C136 C131 1.342 . S
C136 C134 1.220 1_554 S
C136 H155 0.930 . S
C137 C140 1.424 . S
C137 C142 1.245 . S
C137 C143 1.428 . S
C138 C141 1.260 . S
C138 C142 1.477 . S
C138 H156 0.932 . S
C139 C140 1.384 . S
C139 C141 1.479 . S
C139 H157 0.929 . S
C140 C137 1.424 . S
C140 C139 1.384 . S
C140 H158 0.928 . S
C141 C138 1.260 . S
C141 C139 1.479 . S
C142 C137 1.245 . S
C142 C138 1.477 . S
C142 H159 0.932 . S
C143 U126 2.882 . S
C143 C137 1.428 . S
C143 O146 1.301 . S
C143 O147 1.282 . S
O144 U126 2.441 . S
O144 C130 1.249 . S
O145 U126 2.420 . S
O145 C130 1.202 . S
O146 U126 2.455 . S
O146 C143 1.301 . S
O147 U126 2.449 . S
O147 C143 1.282 . S
H148 C121 0.931 . S
H149 C123 0.929 . S
H150 C124 0.930 . S
H151 C125 0.931 . S
H152 C132 0.932 . S
H153 C133 0.930 . S
H154 C134 0.945 . S
H155 C136 0.930 . S
H156 C138 0.932 . S
H157 C139 0.929 . S
H158 C140 0.928 . S
H159 C142 0.932 . S
C160 C161 1.264 . S
C160 C165 1.479 . S
C160 C170 1.465 . S
C161 C160 1.264 . S
C161 C163 1.339 . S
C161 H188 0.931 . S
C162 C163 1.395 . S
C162 C164 1.320 . S
C163 C161 1.339 . S
C163 C162 1.395 . S
C163 H189 0.929 . S
C164 C162 1.320 . S
C164 C165 1.405 . S
C164 H190 0.930 . S
C165 C160 1.479 . S
C165 C164 1.405 . S
C165 H191 0.931 . S
U166 O167 2.454 . S
U166 O168 2.458 . S
U166 C169 2.984 . S
U166 C170 2.847 1_455 S
U166 C183 2.882 . S
U166 O184 2.375 1_455 S
U166 O185 2.420 . S
U166 O186 2.455 . S
U166 O187 2.449 . S
O167 U166 2.454 . S
O167 C169 1.353 . S
O168 U166 2.458 . S
O168 C169 1.286 . S
C169 U166 2.984 . S
C169 O167 1.353 . S
C169 O168 1.286 . S
C169 C171 1.363 . S
C170 C160 1.465 . S
C170 U166 2.847 1_655 S
C170 O184 1.267 . S
C170 O185 1.202 1_655 S
C171 C169 1.363 . S
C171 C173 1.408 . S
C171 C176 1.342 . S
C172 C173 1.310 . S
C172 C175 1.461 . S
C172 H192 0.932 . S
C173 C171 1.408 . S
C173 C172 1.310 . S
C173 H193 0.930 . S
C174 C175 1.474 . S
C174 C176 1.285 . S
C174 H194 0.929 . S
C175 C172 1.461 . S
C175 C174 1.474 . S
C176 C171 1.342 . S
C176 C174 1.285 . S
C176 H195 0.930 . S
C177 C180 1.424 . S
C177 C182 1.245 . S
C177 C183 1.428 . S
C178 C181 1.260 . S
C178 C182 1.477 . S
C178 H196 0.932 . S
C179 C180 1.384 . S
C179 C181 1.479 . S
C179 H197 0.929 . S
C180 C177 1.424 . S
C180 C179 1.384 . S
C180 H198 0.928 . S
C181 C178 1.260 . S
C181 C179 1.479 . S
C182 C177 1.245 . S
C182 C178 1.477 . S
C182 H199 0.932 . S
C183 U166 2.882 . S
C183 C177 1.428 . S
C183 O186 1.301 . S
C183 O187 1.282 . S
O184 U166 2.375 1_655 S
O184 C170 1.267 . S
O185 U166 2.420 . S
O185 C170 1.202 1_455 S
O186 U166 2.455 . S
O186 C183 1.301 . S
O187 U166 2.449 . S
O187 C183 1.282 . S
H188 C161 0.931 . S
H189 C163 0.929 . S
H190 C164 0.930 . S
H191 C165 0.931 . S
H192 C172 0.932 . S
H193 C173 0.930 . S
H194 C174 0.929 . S
H195 C176 0.930 . S
H196 C178 0.932 . S
H197 C179 0.929 . S
H198 C180 0.928 . S
H199 C182 0.932 . S
C200 C201 1.264 . S
C200 C205 1.479 . S
C200 C210 1.465 . S
C201 C200 1.264 . S
C201 C203 1.339 . S
C201 H228 0.931 . S
C202 C203 1.395 . S
C202 C204 1.320 . S
C203 C201 1.339 . S
C203 C202 1.395 . S
C203 H229 0.929 . S
C204 C202 1.320 . S
C204 C205 1.405 . S
C204 H230 0.930 . S
C205 C200 1.479 . S
C205 C204 1.405 . S
C205 H231 0.931 . S
U206 O207 2.454 . S
U206 O208 2.458 . S
U206 C209 2.984 . S
U206 C210 2.847 . S
U206 C223 2.882 . S
U206 O224 2.441 . S
U206 O225 2.420 . S
U206 O226 2.455 . S
U206 O227 2.449 . S
O207 U206 2.454 . S
O207 C209 1.353 . S
O208 U206 2.458 . S
O208 C209 1.286 . S
C209 U206 2.984 . S
C209 O207 1.353 . S
C209 O208 1.286 . S
C209 C211 1.363 . S
C210 C200 1.465 . S
C210 U206 2.847 . S
C210 O224 1.249 . S
C210 O225 1.202 . S
C211 C209 1.363 . S
C211 C213 1.408 . S
C211 C216 1.342 . S
C212 C213 1.310 . S
C212 C215 1.461 . S
C212 H232 0.932 . S
C213 C211 1.408 . S
C213 C212 1.310 . S
C213 H233 0.930 . S
C214 C215 1.474 . S
C214 C216 1.285 . S
C214 H234 0.929 . S
C215 C212 1.461 . S
C215 C214 1.474 . S
C216 C211 1.342 . S
C216 C214 1.285 . S
C216 H235 0.930 . S
C217 C220 1.424 . S
C217 C222 1.245 . S
C217 C223 1.428 . S
C218 C221 1.260 . S
C218 C222 1.477 . S
C218 H236 0.932 . S
C219 C220 1.384 . S
C219 C221 1.479 . S
C219 H237 0.929 . S
C220 C217 1.424 . S
C220 C219 1.384 . S
C220 H238 0.928 . S
C221 C218 1.260 . S
C221 C219 1.479 . S
C222 C217 1.245 . S
C222 C218 1.477 . S
C222 H239 0.932 . S
C223 U206 2.882 . S
C223 C217 1.428 . S
C223 O226 1.301 . S
C223 O227 1.282 . S
O224 U206 2.441 . S
O224 C210 1.249 . S
O225 U206 2.420 . S
O225 C210 1.202 . S
O226 U206 2.455 . S
O226 C223 1.301 . S
O227 U206 2.449 . S
O227 C223 1.282 . S
H228 C201 0.931 . S
H229 C203 0.929 . S
H230 C204 0.930 . S
H231 C205 0.931 . S
H232 C212 0.932 . S
H233 C213 0.930 . S
H234 C214 0.929 . S
H235 C216 0.930 . S
H236 C218 0.932 . S
H237 C219 0.929 . S
H238 C220 0.928 . S
H239 C222 0.932 . S
C240 C241 1.264 . S
C240 C245 1.479 . S
C240 C250 1.465 . S
C241 C240 1.264 . S
C241 C243 1.339 . S
C241 H268 0.931 . S
C242 C243 1.395 . S
C242 C244 1.320 . S
C243 C241 1.339 . S
C243 C242 1.395 . S
C243 H269 0.929 . S
C244 C242 1.320 . S
C244 C245 1.405 . S
C244 H270 0.930 . S
C245 C240 1.479 . S
C245 C244 1.405 . S
C245 H271 0.931 . S
U246 O247 2.454 . S
U246 O248 2.458 . S
U246 C249 2.984 . S
U246 C250 2.847 . S
U246 C263 2.882 . S
U246 O264 2.441 . S
U246 O265 2.420 . S
U246 O266 2.455 . S
U246 O267 2.449 . S
O247 U246 2.454 . S
O247 C249 1.353 . S
O248 U246 2.458 . S
O248 C249 1.286 . S
C249 U246 2.984 . S
C249 O247 1.353 . S
C249 O248 1.286 . S
C249 C251 1.363 . S
C250 C240 1.465 . S
C250 U246 2.847 . S
C250 O264 1.249 . S
C250 O265 1.202 . S
C251 C249 1.363 . S
C251 C253 1.408 . S
C251 C256 1.342 . S
C252 C253 1.310 . S
C252 C255 1.461 . S
C252 H272 0.932 . S
C253 C251 1.408 . S
C253 C252 1.310 . S
C253 H273 0.930 . S
C254 C255 1.474 . S
C254 C256 1.285 . S
C254 H274 0.929 . S
C255 C252 1.461 . S
C255 C254 1.474 . S
C256 C251 1.342 . S
C256 C254 1.285 . S
C256 H275 0.930 . S
C257 C260 1.424 . S
C257 C262 1.245 . S
C257 C263 1.428 . S
C258 C261 1.260 . S
C258 C262 1.477 . S
C258 H276 0.932 . S
C259 C260 1.384 . S
C259 C261 1.479 . S
C259 H277 0.929 . S
C260 C257 1.424 . S
C260 C259 1.384 . S
C260 H278 0.928 . S
C261 C258 1.260 . S
C261 C259 1.479 . S
C262 C257 1.245 . S
C262 C258 1.477 . S
C262 H279 0.932 . S
C263 U246 2.882 . S
C263 C257 1.428 . S
C263 O266 1.301 . S
C263 O267 1.282 . S
O264 U246 2.441 . S
O264 C250 1.249 . S
O265 U246 2.420 . S
O265 C250 1.202 . S
O266 U246 2.455 . S
O266 C263 1.301 . S
O267 U246 2.449 . S
O267 C263 1.282 . S
H268 C241 0.931 . S
H269 C243 0.929 . S
H270 C244 0.930 . S
H271 C245 0.931 . S
H272 C252 0.932 . S
H273 C253 0.930 . S
H274 C254 0.929 . S
H275 C256 0.930 . S
H276 C258 0.932 . S
H277 C259 0.929 . S
H278 C260 0.928 . S
H279 C262 0.932 . S
C280 C281 1.264 . S
C280 C285 1.479 . S
C280 C290 1.465 1_554 S
C281 C280 1.264 . S
C281 C283 1.339 . S
C281 H308 0.931 1_554 S
C282 C283 1.395 . S
C282 C284 1.320 . S
C283 C281 1.339 . S
C283 C282 1.395 . S
C283 H309 0.929 . S
C284 C282 1.320 . S
C284 C285 1.405 . S
C284 H310 0.930 . S
C285 C280 1.479 . S
C285 C284 1.405 . S
C285 H311 0.931 . S
U286 O287 2.454 . S
U286 O288 2.458 . S
U286 C289 2.984 . S
U286 C290 2.847 . S
U286 C303 2.882 . S
U286 O304 2.441 . S
U286 O305 2.420 . S
U286 O306 2.455 . S
U286 O307 2.449 . S
O287 U286 2.454 . S
O287 C289 1.353 . S
O288 U286 2.458 . S
O288 C289 1.286 . S
C289 U286 2.984 . S
C289 O287 1.353 . S
C289 O288 1.286 . S
C289 C291 1.363 . S
C290 C280 1.465 1_556 S
C290 U286 2.847 . S
C290 O304 1.249 . S
C290 O305 1.202 . S
C291 C289 1.363 . S
C291 C293 1.408 . S
C291 C296 1.342 . S
C292 C293 1.310 . S
C292 C295 1.461 . S
C292 H312 0.932 . S
C293 C291 1.408 . S
C293 C292 1.310 . S
C293 H313 0.930 . S
C294 C295 1.474 . S
C294 C296 1.285 . S
C294 H314 0.929 . S
C295 C292 1.461 . S
C295 C294 1.474 . S
C296 C291 1.342 . S
C296 C294 1.285 . S
C296 H315 0.930 . S
C297 C300 1.424 . S
C297 C302 1.245 . S
C297 C303 1.428 . S
C298 C301 1.260 . S
C298 C302 1.477 . S
C298 H316 0.932 . S
C299 C300 1.384 . S
C299 C301 1.479 . S
C299 H317 0.929 . S
C300 C297 1.424 . S
C300 C299 1.384 . S
C300 H318 0.928 . S
C301 C298 1.260 . S
C301 C299 1.479 . S
C302 C297 1.245 . S
C302 C298 1.477 . S
C302 H319 0.932 . S
C303 U286 2.882 . S
C303 C297 1.428 . S
C303 O306 1.301 . S
C303 O307 1.282 . S
O304 U286 2.441 . S
O304 C290 1.249 . S
O305 U286 2.420 . S
O305 C290 1.202 . S
O306 U286 2.455 . S
O306 C303 1.301 . S
O307 U286 2.449 . S
O307 C303 1.282 . S
H308 C281 0.931 1_556 S
H309 C283 0.929 . S
H310 C284 0.930 . S
H311 C285 0.931 . S
H312 C292 0.932 . S
H313 C293 0.930 . S
H314 C294 0.929 . S
H315 C296 0.930 . S
H316 C298 0.932 . S
H317 C299 0.929 . S
H318 C300 0.928 . S
H319 C302 0.932 . S
C320 C321 1.264 . S
C320 C325 1.479 1_545 S
C320 C330 1.465 . S
C321 C320 1.264 . S
C321 C323 1.339 . S
C321 H348 0.931 . S
C322 C323 1.395 . S
C322 C324 1.320 1_545 S
C323 C321 1.339 . S
C323 C322 1.395 . S
C323 H349 0.929 . S
C324 C322 1.320 1_565 S
C324 C325 1.405 . S
C324 H350 0.930 . S
C325 C320 1.479 1_565 S
C325 C324 1.405 . S
C325 H351 0.931 . S
U326 O327 2.454 1_545 S
U326 O328 2.458 1_545 S
U326 C329 2.984 1_545 S
U326 C330 2.847 . S
U326 C343 2.882 . S
U326 O344 2.441 1_545 S
U326 O345 2.420 . S
U326 O346 2.455 . S
U326 O347 2.449 . S
O327 U326 2.454 1_565 S
O327 C329 1.353 . S
O328 U326 2.458 1_565 S
O328 C329 1.286 . S
C329 U326 2.984 1_565 S
C329 O327 1.353 . S
C329 O328 1.286 . S
C329 C331 1.363 . S
C330 C320 1.465 . S
C330 U326 2.847 . S
C330 O344 1.249 1_545 S
C330 O345 1.202 . S
C331 C329 1.363 . S
C331 C333 1.408 . S
C331 C336 1.342 . S
C332 C333 1.310 . S
C332 C335 1.461 . S
C332 H352 0.932 . S
C333 C331 1.408 . S
C333 C332 1.310 . S
C333 H353 0.930 . S
C334 C335 1.474 . S
C334 C336 1.285 . S
C334 H354 0.929 . S
C335 C332 1.461 . S
C335 C334 1.474 . S
C336 C331 1.342 . S
C336 C334 1.285 . S
C336 H355 0.930 . S
C337 C340 1.424 . S
C337 C342 1.245 . S
C337 C343 1.428 . S
C338 C341 1.260 . S
C338 C342 1.477 . S
C338 H356 0.932 . S
C339 C340 1.384 . S
C339 C341 1.479 . S
C339 H357 0.929 . S
C340 C337 1.424 . S
C340 C339 1.384 . S
C340 H358 0.928 . S
C341 C338 1.260 . S
C341 C339 1.479 . S
C342 C337 1.245 . S
C342 C338 1.477 . S
C342 H359 0.932 . S
C343 U326 2.882 . S
C343 C337 1.428 . S
C343 O346 1.301 . S
C343 O347 1.282 . S
O344 U326 2.441 1_565 S
O344 C330 1.249 1_565 S
O345 U326 2.420 . S
O345 C330 1.202 . S
O346 U326 2.455 . S
O346 C343 1.301 . S
O347 U326 2.449 . S
O347 C343 1.282 . S
H348 C321 0.931 . S
H349 C323 0.929 . S
H350 C324 0.930 . S
H351 C325 0.931 . S
H352 C332 0.932 . S
H353 C333 0.930 . S
H354 C334 0.929 . S
H355 C336 0.930 . S
H356 C338 0.932 . S
H357 C339 0.929 . S
H358 C340 0.928 . S
H359 C342 0.932 . S
C360 C361 1.264 . S
C360 C365 1.479 . S
C360 C370 1.465 . S
C361 C360 1.264 . S
C361 C363 1.339 . S
C361 H388 0.931 . S
C362 C363 1.395 . S
C362 C364 1.320 . S
C363 C361 1.339 . S
C363 C362 1.395 . S
C363 H389 0.929 . S
C364 C362 1.320 . S
C364 C365 1.405 . S
C364 H390 0.930 . S
C365 C360 1.479 . S
C365 C364 1.405 . S
C365 H391 0.931 . S
U366 O367 2.454 . S
U366 O368 2.458 . S
U366 C369 2.984 . S
U366 C370 2.847 1_545 S
U366 C383 2.882 . S
U366 O384 2.441 1_545 S
U366 O385 2.420 1_545 S
U366 O386 2.455 . S
U366 O387 2.449 . S
O367 U366 2.454 . S
O367 C369 1.353 . S
O368 U366 2.458 . S
O368 C369 1.286 . S
C369 U366 2.984 . S
C369 O367 1.353 . S
C369 O368 1.286 . S
C369 C371 1.363 . S
C370 C360 1.465 . S
C370 U366 2.847 1_565 S
C370 O384 1.249 . S
C370 O385 1.202 . S
C371 C369 1.363 . S
C371 C373 1.408 . S
C371 C376 1.342 . S
C372 C373 1.310 . S
C372 C375 1.461 . S
C372 H392 0.932 . S
C373 C371 1.408 . S
C373 C372 1.310 . S
C373 H393 0.930 . S
C374 C375 1.474 . S
C374 C376 1.285 . S
C374 H394 0.929 . S
C375 C372 1.461 . S
C375 C374 1.474 . S
C376 C371 1.342 . S
C376 C374 1.285 . S
C376 H395 0.930 . S
C377 C380 1.424 . S
C377 C382 1.245 . S
C377 C383 1.428 . S
C378 C381 1.260 . S
C378 C382 1.477 . S
C378 H396 0.932 . S
C379 C380 1.384 . S
C379 C381 1.479 . S
C379 H397 0.929 . S
C380 C377 1.424 . S
C380 C379 1.384 . S
C380 H398 0.928 . S
C381 C378 1.260 . S
C381 C379 1.479 . S
C382 C377 1.245 . S
C382 C378 1.477 . S
C382 H399 0.932 . S
C383 U366 2.882 . S
C383 C377 1.428 . S
C383 O386 1.301 . S
C383 O387 1.282 . S
O384 U366 2.441 1_565 S
O384 C370 1.249 . S
O385 U366 2.420 1_565 S
O385 C370 1.202 . S
O386 U366 2.455 . S
O386 C383 1.301 . S
O387 U366 2.449 . S
O387 C383 1.282 . S
H388 C361 0.931 . S
H389 C363 0.929 . S
H390 C364 0.930 . S
H391 C365 0.931 . S
H392 C372 0.932 . S
H393 C373 0.930 . S
H394 C374 0.929 . S
H395 C376 0.930 . S
H396 C378 0.932 . S
H397 C379 0.929 . S
H398 C380 0.928 . S
H399 C382 0.932 . S
C400 C401 1.264 . S
C400 C405 1.479 . S
C400 C410 1.465 . S
C401 C400 1.264 . S
C401 C403 1.339 . S
C401 H428 0.931 . S
C402 C403 1.395 . S
C402 C404 1.320 . S
C403 C401 1.339 . S
C403 C402 1.395 . S
C403 H429 0.929 . S
C404 C402 1.320 . S
C404 C405 1.405 . S
C404 H430 0.930 . S
C405 C400 1.479 . S
C405 C404 1.405 . S
C405 H431 0.931 . S
U406 O407 2.454 . S
U406 O408 2.458 . S
U406 C409 2.984 . S
U406 C410 2.847 1_565 S
U406 C423 2.882 . S
U406 O424 2.500 . S
U406 O425 2.420 . S
U406 O426 2.455 . S
U406 O427 2.449 . S
O407 U406 2.454 . S
O407 C409 1.353 . S
O408 U406 2.458 . S
O408 C409 1.286 . S
C409 U406 2.984 . S
C409 O407 1.353 . S
C409 O408 1.286 . S
C409 C411 1.363 . S
C410 C400 1.465 . S
C410 U406 2.847 1_545 S
C410 O424 1.228 1_545 S
C410 O425 1.202 1_545 S
C411 C409 1.363 . S
C411 C413 1.408 . S
C411 C416 1.342 . S
C412 C413 1.310 . S
C412 C415 1.461 . S
C412 H432 0.932 . S
C413 C411 1.408 . S
C413 C412 1.310 . S
C413 H433 0.930 . S
C414 C415 1.474 . S
C414 C416 1.285 . S
C414 H434 0.929 . S
C415 C412 1.461 . S
C415 C414 1.474 . S
C416 C411 1.342 . S
C416 C414 1.285 . S
C416 H435 0.930 . S
C417 C420 1.424 . S
C417 C422 1.245 . S
C417 C423 1.428 . S
C418 C421 1.260 . S
C418 C422 1.477 . S
C418 H436 0.932 . S
C419 C420 1.384 . S
C419 C421 1.479 . S
C419 H437 0.929 . S
C420 C417 1.424 . S
C420 C419 1.384 . S
C420 H438 0.928 . S
C421 C418 1.260 . S
C421 C419 1.479 . S
C422 C417 1.245 . S
C422 C418 1.477 . S
C422 H439 0.932 . S
C423 U406 2.882 . S
C423 C417 1.428 . S
C423 O426 1.301 . S
C423 O427 1.282 . S
O424 U406 2.500 . S
O424 C410 1.228 1_565 S
O425 U406 2.420 . S
O425 C410 1.202 1_565 S
O426 U406 2.455 . S
O426 C423 1.301 . S
O427 U406 2.449 . S
O427 C423 1.282 . S
H428 C401 0.931 . S
H429 C403 0.929 . S
H430 C404 0.930 . S
H431 C405 0.931 . S
H432 C412 0.932 . S
H433 C413 0.930 . S
H434 C414 0.929 . S
H435 C416 0.930 . S
H436 C418 0.932 . S
H437 C419 0.929 . S
H438 C420 0.928 . S
H439 C422 0.932 . S
C440 C441 1.264 . S
C440 C445 1.479 . S
C440 C450 1.465 . S
C441 C440 1.264 . S
C441 C443 1.339 . S
C441 H468 0.931 . S
C442 C443 1.395 . S
C442 C444 1.320 . S
C443 C441 1.339 . S
C443 C442 1.395 . S
C443 H469 0.929 . S
C444 C442 1.320 . S
C444 C445 1.405 . S
C444 H470 0.983 . S
C445 C440 1.479 . S
C445 C444 1.405 . S
C445 H471 0.931 1_565 S
U446 O447 2.444 1_565 S
U446 O448 2.451 1_565 S
U446 C449 2.975 1_565 S
U446 C450 2.849 . S
U446 C463 2.890 . S
U446 O464 2.438 1_565 S
U446 O465 2.426 . S
U446 O466 2.459 . S
U446 O467 2.459 . S
O447 U446 2.444 1_545 S
O447 C449 1.353 . S
O448 U446 2.451 1_545 S
O448 C449 1.286 . S
C449 U446 2.975 1_545 S
C449 O447 1.353 . S
C449 O448 1.286 . S
C449 C451 1.363 . S
C450 C440 1.465 . S
C450 U446 2.849 . S
C450 O464 1.249 1_565 S
C450 O465 1.202 . S
C451 C449 1.363 . S
C451 C453 1.408 . S
C451 C456 1.342 . S
C452 C453 1.310 . S
C452 C455 1.461 . S
C452 H472 0.932 . S
C453 C451 1.408 . S
C453 C452 1.310 . S
C453 H473 0.930 . S
C454 C455 1.474 . S
C454 C456 1.285 . S
C454 H474 0.929 . S
C455 C452 1.461 . S
C455 C454 1.474 . S
C456 C451 1.342 . S
C456 C454 1.285 . S
C456 H475 0.930 . S
C457 C460 1.424 . S
C457 C462 1.245 . S
C457 C463 1.428 . S
C458 C461 1.260 . S
C458 C462 1.477 . S
C458 H476 0.932 . S
C459 C460 1.384 . S
C459 C461 1.479 . S
C459 H477 0.929 . S
C460 C457 1.424 . S
C460 C459 1.384 . S
C460 H478 0.928 . S
C461 C458 1.260 . S
C461 C459 1.479 . S
C462 C457 1.245 . S
C462 C458 1.477 . S
C462 H479 0.932 . S
C463 U446 2.890 . S
C463 C457 1.428 . S
C463 O466 1.301 . S
C463 O467 1.282 . S
O464 U446 2.438 1_545 S
O464 C450 1.249 1_545 S
O465 U446 2.426 . S
O465 C450 1.202 . S
O466 U446 2.459 . S
O466 C463 1.301 . S
O467 U446 2.459 . S
O467 C463 1.282 . S
H468 C441 0.931 . S
H469 C443 0.929 . S
H470 C444 0.983 . S
H471 C445 0.931 1_545 S
H472 C452 0.932 . S
H473 C453 0.930 . S
H474 C454 0.929 . S
H475 C456 0.930 . S
H476 C458 0.932 . S
H477 C459 0.929 . S
H478 C460 0.928 . S
H479 C462 0.932 . S
C480 C481 1.264 . S
C480 C485 1.479 . S
C480 C490 1.465 . S
C481 C480 1.264 . S
C481 C483 1.339 . S
C481 H508 0.931 . S
C482 C483 1.395 . S
C482 C484 1.320 . S
C483 C481 1.339 . S
C483 C482 1.395 . S
C483 H509 0.929 . S
C484 C482 1.320 . S
C484 C485 1.405 . S
C484 H510 0.930 . S
C485 C480 1.479 . S
C485 C484 1.405 . S
C485 H511 0.931 . S
U486 O487 2.454 . S
U486 O488 2.458 . S
U486 C489 2.984 . S
U486 C490 2.847 . S
U486 C503 2.882 . S
U486 O504 2.441 . S
U486 O505 2.420 . S
U486 O506 2.455 . S
U486 O507 2.449 . S
O487 U486 2.454 . S
O487 C489 1.353 . S
O488 U486 2.458 . S
O488 C489 1.286 . S
C489 U486 2.984 . S
C489 O487 1.353 . S
C489 O488 1.286 . S
C489 C491 1.363 . S
C490 C480 1.465 . S
C490 U486 2.847 . S
C490 O504 1.249 . S
C490 O505 1.202 . S
C491 C489 1.363 . S
C491 C493 1.408 1_554 S
C491 C496 1.349 . S
C492 C493 1.310 . S
C492 C495 1.461 . S
C492 H512 0.932 . S
C493 C491 1.408 1_556 S
C493 C492 1.310 . S
C493 H513 0.930 . S
C494 C495 1.474 . S
C494 C496 1.264 1_556 S
C494 H514 0.929 . S
C495 C492 1.461 . S
C495 C494 1.474 . S
C496 C491 1.349 . S
C496 C494 1.264 1_554 S
C496 H515 0.946 . S
C497 C500 1.424 . S
C497 C502 1.245 . S
C497 C503 1.428 . S
C498 C501 1.260 . S
C498 C502 1.477 . S
C498 H516 0.932 . S
C499 C500 1.384 . S
C499 C501 1.479 . S
C499 H517 0.929 . S
C500 C497 1.424 . S
C500 C499 1.384 . S
C500 H518 0.928 . S
C501 C498 1.260 . S
C501 C499 1.479 . S
C502 C497 1.245 . S
C502 C498 1.477 . S
C502 H519 0.932 . S
C503 U486 2.882 . S
C503 C497 1.428 . S
C503 O506 1.301 . S
C503 O507 1.282 . S
O504 U486 2.441 . S
O504 C490 1.249 . S
O505 U486 2.420 . S
O505 C490 1.202 . S
O506 U486 2.455 . S
O506 C503 1.301 . S
O507 U486 2.449 . S
O507 C503 1.282 . S
H508 C481 0.931 . S
H509 C483 0.929 . S
H510 C484 0.930 . S
H511 C485 0.931 . S
H512 C492 0.932 . S
H513 C493 0.930 . S
H514 C494 0.929 . S
H515 C496 0.946 . S
H516 C498 0.932 . S
H517 C499 0.929 . S
H518 C500 0.928 . S
H519 C502 0.932 . S
C520 C521 1.264 . S
C520 C525 1.479 . S
C520 C530 1.465 . S
C521 C520 1.264 . S
C521 C523 1.339 . S
C521 H548 0.931 . S
C522 C523 1.395 . S
C522 C524 1.320 . S
C523 C521 1.339 . S
C523 C522 1.395 . S
C523 H549 0.929 . S
C524 C522 1.320 . S
C524 C525 1.405 . S
C524 H550 0.930 . S
C525 C520 1.479 . S
C525 C524 1.405 . S
C525 H551 0.931 . S
U526 O527 2.464 . S
U526 O528 2.458 . S
U526 C529 2.984 . S
U526 C530 2.847 1_655 S
U526 C543 2.882 . S
U526 O544 2.441 1_655 S
U526 O545 2.420 1_655 S
U526 O546 2.455 . S
U526 O547 2.449 . S
O527 U526 2.464 . S
O527 C529 1.417 . S
O528 U526 2.458 . S
O528 C529 1.286 . S
C529 U526 2.984 . S
C529 O527 1.417 . S
C529 O528 1.286 . S
C529 C531 1.363 . S
C530 C520 1.465 . S
C530 U526 2.847 1_455 S
C530 O544 1.249 . S
C530 O545 1.202 . S
C531 C529 1.363 . S
C531 C533 1.408 . S
C531 C536 1.342 . S
C532 C533 1.310 . S
C532 C535 1.461 . S
C532 H552 0.932 . S
C533 C531 1.408 . S
C533 C532 1.310 . S
C533 H553 0.930 1_655 S
C534 C535 1.474 . S
C534 C536 1.285 . S
C534 H554 0.929 . S
C535 C532 1.461 . S
C535 C534 1.474 . S
C536 C531 1.342 . S
C536 C534 1.285 . S
C536 H555 0.930 . S
C537 C540 1.424 . S
C537 C542 1.245 . S
C537 C543 1.428 . S
C538 C541 1.260 . S
C538 C542 1.477 . S
C538 H556 0.932 . S
C539 C540 1.384 . S
C539 C541 1.479 . S
C539 H557 0.929 . S
C540 C537 1.424 . S
C540 C539 1.384 . S
C540 H558 0.928 . S
C541 C538 1.260 . S
C541 C539 1.479 . S
C542 C537 1.245 . S
C542 C538 1.477 . S
C542 H559 0.932 . S
C543 U526 2.882 . S
C543 C537 1.428 . S
C543 O546 1.301 . S
C543 O547 1.282 . S
O544 U526 2.441 1_455 S
O544 C530 1.249 . S
O545 U526 2.420 1_455 S
O545 C530 1.202 . S
O546 U526 2.455 . S
O546 C543 1.301 . S
O547 U526 2.449 . S
O547 C543 1.282 . S
H548 C521 0.931 . S
H549 C523 0.929 . S
H550 C524 0.930 . S
H551 C525 0.931 . S
H552 C532 0.932 . S
H553 C533 0.930 1_455 S
H554 C534 0.929 . S
H555 C536 0.930 . S
H556 C538 0.932 . S
H557 C539 0.929 . S
H558 C540 0.928 . S
H559 C542 0.932 . S
C560 C561 1.264 . S
C560 C565 1.479 . S
C560 C570 1.465 . S
C561 C560 1.264 . S
C561 C563 1.339 . S
C561 H588 0.931 . S
C562 C563 1.395 . S
C562 C564 1.320 . S
C563 C561 1.339 . S
C563 C562 1.395 . S
C563 H589 0.929 . S
C564 C562 1.320 . S
C564 C565 1.405 . S
C564 H590 0.930 . S
C565 C560 1.479 . S
C565 C564 1.405 . S
C565 H591 0.931 . S
U566 O567 2.454 . S
U566 O568 2.458 . S
U566 C569 2.984 . S
U566 C570 2.847 . S
U566 C583 2.882 . S
U566 O584 2.441 . S
U566 O585 2.420 . S
U566 O586 2.455 . S
U566 O587 2.449 . S
O567 U566 2.454 . S
O567 C569 1.353 . S
O568 U566 2.458 . S
O568 C569 1.286 . S
C569 U566 2.984 . S
C569 O567 1.353 . S
C569 O568 1.286 . S
C569 C571 1.363 . S
C570 C560 1.465 . S
C570 U566 2.847 . S
C570 O584 1.249 . S
C570 O585 1.202 . S
C571 C569 1.363 . S
C571 C573 1.408 . S
C571 C576 1.342 . S
C572 C573 1.310 . S
C572 C575 1.461 . S
C572 H592 0.932 . S
C573 C571 1.408 . S
C573 C572 1.310 . S
C573 H593 0.930 . S
C574 C575 1.474 . S
C574 C576 1.285 . S
C574 H594 0.929 . S
C575 C572 1.461 . S
C575 C574 1.474 . S
C576 C571 1.342 . S
C576 C574 1.285 . S
C576 H595 0.930 . S
C577 C580 1.424 . S
C577 C582 1.245 . S
C577 C583 1.428 . S
C578 C581 1.260 . S
C578 C582 1.477 . S
C578 H596 0.932 . S
C579 C580 1.384 . S
C579 C581 1.479 . S
C579 H597 0.929 . S
C580 C577 1.424 . S
C580 C579 1.384 . S
C580 H598 0.928 . S
C581 C578 1.260 . S
C581 C579 1.479 . S
C582 C577 1.245 . S
C582 C578 1.477 . S
C582 H599 0.932 . S
C583 U566 2.882 . S
C583 C577 1.428 . S
C583 O586 1.301 . S
C583 O587 1.282 . S
O584 U566 2.441 . S
O584 C570 1.249 . S
O585 U566 2.420 . S
O585 C570 1.202 . S
O586 U566 2.455 . S
O586 C583 1.301 . S
O587 U566 2.449 . S
O587 C583 1.282 . S
H588 C561 0.931 . S
H589 C563 0.929 . S
H590 C564 0.930 . S
H591 C565 0.931 . S
H592 C572 0.932 . S
H593 C573 0.930 . S
H594 C574 0.929 . S
H595 C576 0.930 . S
H596 C578 0.932 . S
H597 C579 0.929 . S
H598 C580 0.928 . S
H599 C582 0.932 . S
C600 C601 1.264 . S
C600 C605 1.479 . S
C600 C610 1.465 . S
C601 C600 1.264 . S
C601 C603 1.339 . S
C601 H628 0.931 . S
C602 C603 1.395 . S
C602 C604 1.320 . S
C603 C601 1.339 . S
C603 C602 1.395 . S
C603 H629 0.929 . S
C604 C602 1.320 . S
C604 C605 1.405 . S
C604 H630 0.930 . S
C605 C600 1.479 . S
C605 C604 1.405 . S
C605 H631 0.931 1_655 S
U606 O607 2.454 . S
U606 O608 2.458 . S
U606 C609 2.984 . S
U606 C610 2.847 1_455 S
U606 C623 2.882 1_455 S
U606 O624 2.441 . S
U606 O625 2.420 1_455 S
U606 O626 2.455 . S
U606 O627 2.449 1_455 S
O607 U606 2.454 . S
O607 C609 1.353 . S
O608 U606 2.458 . S
O608 C609 1.286 . S
C609 U606 2.984 . S
C609 O607 1.353 . S
C609 O608 1.286 . S
C609 C611 1.363 . S
C610 C600 1.465 . S
C610 U606 2.847 1_655 S
C610 O624 1.249 1_655 S
C610 O625 1.202 . S
C611 C609 1.363 . S
C611 C613 1.408 . S
C611 C616 1.342 . S
C612 C613 1.310 . S
C612 C615 1.461 . S
C612 H632 0.932 . S
C613 C611 1.408 . S
C613 C612 1.310 . S
C613 H633 0.930 . S
C614 C615 1.474 . S
C614 C616 1.285 . S
C614 H634 0.929 . S
C615 C612 1.461 . S
C615 C614 1.474 . S
C616 C611 1.342 . S
C616 C614 1.285 . S
C616 H635 0.930 . S
C617 C620 1.424 . S
C617 C622 1.245 . S
C617 C623 1.428 . S
C618 C621 1.260 . S
C618 C622 1.477 . S
C618 H636 0.932 . S
C619 C620 1.384 . S
C619 C621 1.479 . S
C619 H637 0.929 . S
C620 C617 1.424 . S
C620 C619 1.384 . S
C620 H638 0.928 . S
C621 C618 1.260 . S
C621 C619 1.479 . S
C622 C617 1.245 . S
C622 C618 1.477 . S
C622 H639 0.932 . S
C623 U606 2.882 1_655 S
C623 C617 1.428 . S
C623 O626 1.301 1_655 S
C623 O627 1.282 . S
O624 U606 2.441 . S
O624 C610 1.249 1_455 S
O625 U606 2.420 1_655 S
O625 C610 1.202 . S
O626 U606 2.455 . S
O626 C623 1.301 1_455 S
O627 U606 2.449 1_655 S
O627 C623 1.282 . S
H628 C601 0.931 . S
H629 C603 0.929 . S
H630 C604 0.930 . S
H631 C605 0.931 1_455 S
H632 C612 0.932 . S
H633 C613 0.930 . S
H634 C614 0.929 . S
H635 C616 0.930 . S
H636 C618 0.932 . S
H637 C619 0.929 . S
H638 C620 0.928 . S
H639 C622 0.932 . S
C640 C641 1.264 . S
C640 C645 1.479 . S
C640 C650 1.465 . S
C641 C640 1.264 . S
C641 C643 1.339 . S
C641 H668 0.931 . S
C642 C643 1.395 . S
C642 C644 1.320 . S
C643 C641 1.339 . S
C643 C642 1.395 . S
C643 H669 0.929 . S
C644 C642 1.320 . S
C644 C645 1.405 . S
C644 H670 0.930 . S
C645 C640 1.479 . S
C645 C644 1.405 . S
C645 H671 0.931 . S
U646 O647 2.454 . S
U646 O648 2.458 . S
U646 C649 2.984 . S
U646 C650 2.847 . S
U646 C663 2.882 . S
U646 O664 2.441 . S
U646 O665 2.420 . S
U646 O666 2.455 . S
U646 O667 2.449 . S
O647 U646 2.454 . S
O647 C649 1.353 . S
O648 U646 2.458 . S
O648 C649 1.286 . S
C649 U646 2.984 . S
C649 O647 1.353 . S
C649 O648 1.286 . S
C649 C651 1.363 . S
C650 C640 1.465 . S
C650 U646 2.847 . S
C650 O664 1.249 . S
C650 O665 1.202 . S
C651 C649 1.363 . S
C651 C653 1.408 . S
C651 C656 1.342 . S
C652 C653 1.310 . S
C652 C655 1.461 . S
C652 H672 0.932 . S
C653 C651 1.408 . S
C653 C652 1.310 . S
C653 H673 0.930 . S
C654 C655 1.474 . S
C654 C656 1.285 . S
C654 H674 0.929 . S
C655 C652 1.461 . S
C655 C654 1.474 . S
C656 C651 1.342 . S
C656 C654 1.285 . S
C656 H675 0.930 . S
C657 C660 1.424 . S
C657 C662 1.245 . S
C657 C663 1.428 . S
C658 C661 1.260 . S
C658 C662 1.477 . S
C658 H676 0.932 . S
C659 C660 1.384 . S
C659 C661 1.479 . S
C659 H677 0.929 . S
C660 C657 1.424 . S
C660 C659 1.384 . S
C660 H678 0.928 . S
C661 C658 1.260 . S
C661 C659 1.479 . S
C662 C657 1.245 . S
C662 C658 1.477 . S
C662 H679 0.932 . S
C663 U646 2.882 . S
C663 C657 1.428 . S
C663 O666 1.301 . S
C663 O667 1.282 . S
O664 U646 2.441 . S
O664 C650 1.249 . S
O665 U646 2.420 . S
O665 C650 1.202 . S
O666 U646 2.455 . S
O666 C663 1.301 . S
O667 U646 2.449 . S
O667 C663 1.282 . S
H668 C641 0.931 . S
H669 C643 0.929 . S
H670 C644 0.930 . S
H671 C645 0.931 . S
H672 C652 0.932 . S
H673 C653 0.930 . S
H674 C654 0.929 . S
H675 C656 0.930 . S
H676 C658 0.932 . S
H677 C659 0.929 . S
H678 C660 0.928 . S
H679 C662 0.932 . S
C680 C681 1.264 . S
C680 C685 1.479 . S
C680 C690 1.465 . S
C681 C680 1.264 . S
C681 C683 1.339 . S
C681 H708 0.931 . S
C682 C683 1.395 . S
C682 C684 1.320 . S
C683 C681 1.339 . S
C683 C682 1.395 . S
C683 H709 0.929 . S
C684 C682 1.320 . S
C684 C685 1.405 . S
C684 H710 0.930 . S
C685 C680 1.479 . S
C685 C684 1.405 . S
C685 H711 0.931 . S
U686 O687 2.454 . S
U686 O688 2.458 . S
U686 C689 2.984 . S
U686 C690 2.847 . S
U686 C703 2.882 . S
U686 O704 2.441 . S
U686 O705 2.420 . S
U686 O706 2.455 . S
U686 O707 2.449 . S
O687 U686 2.454 . S
O687 C689 1.353 . S
O688 U686 2.458 . S
O688 C689 1.286 . S
C689 U686 2.984 . S
C689 O687 1.353 . S
C689 O688 1.286 . S
C689 C691 1.363 . S
C690 C680 1.465 . S
C690 U686 2.847 . S
C690 O704 1.249 . S
C690 O705 1.202 . S
C691 C689 1.363 . S
C691 C693 1.408 . S
C691 C696 1.342 . S
C692 C693 1.310 . S
C692 C695 1.461 . S
C692 H712 0.932 . S
C693 C691 1.408 . S
C693 C692 1.310 . S
C693 H713 0.930 . S
C694 C695 1.474 . S
C694 C696 1.285 . S
C694 H714 0.929 . S
C695 C692 1.461 . S
C695 C694 1.474 . S
C696 C691 1.342 . S
C696 C694 1.285 . S
C696 H715 0.930 . S
C697 C700 1.424 . S
C697 C702 1.245 . S
C697 C703 1.428 . S
C698 C701 1.260 . S
C698 C702 1.477 . S
C698 H716 0.932 . S
C699 C700 1.384 . S
C699 C701 1.479 . S
C699 H717 0.929 . S
C700 C697 1.424 . S
C700 C699 1.384 . S
C700 H718 0.928 . S
C701 C698 1.260 . S
C701 C699 1.479 . S
C702 C697 1.245 . S
C702 C698 1.477 . S
C702 H719 0.932 . S
C703 U686 2.882 . S
C703 C697 1.428 . S
C703 O706 1.301 . S
C703 O707 1.282 . S
O704 U686 2.441 . S
O704 C690 1.249 . S
O705 U686 2.420 . S
O705 C690 1.202 . S
O706 U686 2.455 . S
O706 C703 1.301 . S
O707 U686 2.449 . S
O707 C703 1.282 . S
H708 C681 0.931 . S
H709 C683 0.929 . S
H710 C684 0.930 . S
H711 C685 0.931 . S
H712 C692 0.932 . S
H713 C693 0.930 . S
H714 C694 0.929 . S
H715 C696 0.930 . S
H716 C698 0.932 . S
H717 C699 0.929 . S
H718 C700 0.928 . S
H719 C702 0.932 . S
C720 C721 1.264 . S
C720 C725 1.479 . S
C720 C730 1.465 . S
C721 C720 1.264 . S
C721 C723 1.339 . S
C721 H748 0.931 . S
C722 C723 1.395 . S
C722 C724 1.320 . S
C723 C721 1.339 . S
C723 C722 1.395 . S
C723 H749 0.929 . S
C724 C722 1.320 . S
C724 C725 1.405 . S
C724 H750 0.930 . S
C725 C720 1.479 . S
C725 C724 1.405 . S
C725 H751 0.931 . S
U726 O727 2.454 . S
U726 O728 2.458 . S
U726 C729 2.984 . S
U726 C730 2.847 . S
U726 C743 2.882 . S
U726 O744 2.441 . S
U726 O745 2.420 . S
U726 O746 2.455 . S
U726 O747 2.449 . S
O727 U726 2.454 . S
O727 C729 1.353 . S
O728 U726 2.458 . S
O728 C729 1.286 . S
C729 U726 2.984 . S
C729 O727 1.353 . S
C729 O728 1.286 . S
C729 C731 1.363 1_556 S
C730 C720 1.465 . S
C730 U726 2.847 . S
C730 O744 1.249 . S
C730 O745 1.202 . S
C731 C729 1.363 1_554 S
C731 C733 1.408 . S
C731 C736 1.342 . S
C732 C733 1.310 . S
C732 C735 1.461 . S
C732 H752 0.932 . S
C733 C731 1.408 . S
C733 C732 1.310 . S
C733 H753 0.930 . S
C734 C735 1.474 . S
C734 C736 1.285 . S
C734 H754 0.929 . S
C735 C732 1.461 . S
C735 C734 1.474 . S
C736 C731 1.342 . S
C736 C734 1.285 . S
C736 H755 0.964 . S
C737 C740 1.424 . S
C737 C742 1.245 . S
C737 C743 1.428 . S
C738 C741 1.260 . S
C738 C742 1.477 . S
C738 H756 0.932 . S
C739 C740 1.384 . S
C739 C741 1.479 . S
C739 H757 0.929 . S
C740 C737 1.424 . S
C740 C739 1.384 . S
C740 H758 0.928 . S
C741 C738 1.260 . S
C741 C739 1.479 . S
C742 C737 1.245 . S
C742 C738 1.477 . S
C742 H759 0.932 . S
C743 U726 2.882 . S
C743 C737 1.428 . S
C743 O746 1.301 . S
C743 O747 1.282 . S
O744 U726 2.441 . S
O744 C730 1.249 . S
O745 U726 2.420 . S
O745 C730 1.202 . S
O746 U726 2.455 . S
O746 C743 1.301 . S
O747 U726 2.449 . S
O747 C743 1.282 . S
H748 C721 0.931 . S
H749 C723 0.929 . S
H750 C724 0.930 . S
H751 C725 0.931 . S
H752 C732 0.932 . S
H753 C733 0.930 . S
H754 C734 0.929 . S
H755 C736 0.964 . S
H756 C738 0.932 . S
H757 C739 0.929 . S
H758 C740 0.928 . S
H759 C742 0.932 . S
C760 C761 1.264 . S
C760 C765 1.479 . S
C760 C770 1.465 1_455 S
C761 C760 1.264 . S
C761 C763 1.339 . S
C761 H788 0.931 . S
C762 C763 1.395 . S
C762 C764 1.320 . S
C763 C761 1.339 . S
C763 C762 1.395 . S
C763 H789 0.929 . S
C764 C762 1.320 . S
C764 C765 1.405 . S
C764 H790 0.930 . S
C765 C760 1.479 . S
C765 C764 1.405 . S
C765 H791 0.931 . S
U766 O767 2.454 . S
U766 O768 2.458 . S
U766 C769 2.984 . S
U766 C770 2.847 . S
U766 C783 2.882 . S
U766 O784 2.441 . S
U766 O785 2.420 . S
U766 O786 2.455 . S
U766 O787 2.449 . S
O767 U766 2.454 . S
O767 C769 1.353 . S
O768 U766 2.458 . S
O768 C769 1.286 . S
C769 U766 2.984 . S
C769 O767 1.353 . S
C769 O768 1.286 . S
C769 C771 1.363 . S
C770 C760 1.465 1_655 S
C770 U766 2.847 . S
C770 O784 1.249 . S
C770 O785 1.202 . S
C771 C769 1.363 . S
C771 C773 1.408 . S
C771 C776 1.342 . S
C772 C773 1.310 . S
C772 C775 1.461 . S
C772 H792 0.932 . S
C773 C771 1.408 . S
C773 C772 1.310 . S
C773 H793 0.930 . S
C774 C775 1.474 . S
C774 C776 1.285 . S
C774 H794 0.929 . S
C775 C772 1.461 . S
C775 C774 1.474 . S
C776 C771 1.342 . S
C776 C774 1.285 . S
C776 H795 0.930 . S
C777 C780 1.424 . S
C777 C782 1.245 . S
C777 C783 1.428 . S
C778 C781 1.260 . S
C778 C782 1.477 . S
C778 H796 0.932 . S
C779 C780 1.384 . S
C779 C781 1.479 . S
C779 H797 0.929 . S
C780 C777 1.424 . S
C780 C779 1.384 . S
C780 H798 0.928 . S
C781 C778 1.260 . S
C781 C779 1.479 . S
C782 C777 1.245 . S
C782 C778 1.477 . S
C782 H799 0.932 . S
C783 U766 2.882 . S
C783 C777 1.428 . S
C783 O786 1.301 . S
C783 O787 1.282 . S
O784 U766 2.441 . S
O784 C770 1.249 . S
O785 U766 2.420 . S
O785 C770 1.202 . S
O786 U766 2.455 . S
O786 C783 1.301 . S
O787 U766 2.449 . S
O787 C783 1.282 . S
H788 C761 0.931 . S
H789 C763 0.929 . S
H790 C764 0.930 . S
H791 C765 0.931 . S
H792 C772 0.932 . S
H793 C773 0.930 . S
H794 C774 0.929 . S
H795 C776 0.930 . S
H796 C778 0.932 . S
H797 C779 0.929 . S
H798 C780 0.928 . S
H799 C782 0.932 . S
C800 C801 1.264 . S
C800 C805 1.479 . S
C800 C810 1.465 . S
C801 C800 1.264 . S
C801 C803 1.339 . S
C801 H828 0.931 . S
C802 C803 1.395 . S
C802 C804 1.320 . S
C803 C801 1.339 . S
C803 C802 1.395 . S
C803 H829 0.929 . S
C804 C802 1.320 . S
C804 C805 1.405 . S
C804 H830 0.930 . S
C805 C800 1.479 . S
C805 C804 1.405 . S
C805 H831 0.931 . S
U806 O807 2.454 . S
U806 O808 2.458 . S
U806 C809 2.984 . S
U806 C810 2.847 . S
U806 C823 2.882 . S
U806 O824 2.441 . S
U806 O825 2.420 . S
U806 O826 2.455 . S
U806 O827 2.449 . S
O807 U806 2.454 . S
O807 C809 1.353 . S
O808 U806 2.458 . S
O808 C809 1.286 . S
C809 U806 2.984 . S
C809 O807 1.353 . S
C809 O808 1.286 . S
C809 C811 1.363 . S
C810 C800 1.465 . S
C810 U806 2.847 . S
C810 O824 1.249 . S
C810 O825 1.202 . S
C811 C809 1.363 . S
C811 C813 1.408 . S
C811 C816 1.342 . S
C812 C813 1.310 . S
C812 C815 1.461 . S
C812 H832 0.932 . S
C813 C811 1.408 . S
C813 C812 1.310 . S
C813 H833 0.930 . S
C814 C815 1.474 . S
C814 C816 1.285 . S
C814 H834 0.929 . S
C815 C812 1.461 . S
C815 C814 1.474 . S
C816 C811 1.342 . S
C816 C814 1.285 . S
C816 H835 0.930 . S
C817 C820 1.424 . S
C817 C822 1.245 . S
C817 C823 1.428 . S
C818 C821 1.260 . S
C818 C822 1.477 . S
C818 H836 0.932 . S
C819 C820 1.384 . S
C819 C821 1.479 . S
C819 H837 0.929 . S
C820 C817 1.424 . S
C820 C819 1.384 . S
C820 H838 0.928 . S
C821 C818 1.260 . S
C821 C819 1.479 . S
C822 C817 1.245 . S
C822 C818 1.477 . S
C822 H839 0.932 . S
C823 U806 2.882 . S
C823 C817 1.428 . S
C823 O826 1.301 . S
C823 O827 1.282 . S
O824 U806 2.441 . S
O824 C810 1.249 . S
O825 U806 2.420 . S
O825 C810 1.202 . S
O826 U806 2.455 . S
O826 C823 1.301 . S
O827 U806 2.449 . S
O827 C823 1.282 . S
H828 C801 0.931 . S
H829 C803 0.929 . S
H830 C804 0.930 . S
H831 C805 0.931 . S
H832 C812 0.932 . S
H833 C813 0.930 . S
H834 C814 0.929 . S
H835 C816 0.930 . S
H836 C818 0.932 . S
H837 C819 0.929 . S
H838 C820 0.928 . S
H839 C822 0.932 . S
C840 C841 1.264 . S
C840 C845 1.479 . S
C840 C850 1.465 . S
C841 C840 1.264 . S
C841 C843 1.339 . S
C841 H868 0.931 . S
C842 C843 1.395 . S
C842 C844 1.320 . S
C843 C841 1.339 . S
C843 C842 1.395 . S
C843 H869 0.929 . S
C844 C842 1.320 . S
C844 C845 1.405 . S
C844 H870 0.930 . S
C845 C840 1.479 . S
C845 C844 1.405 . S
C845 H871 0.931 . S
U846 O847 2.454 . S
U846 O848 2.458 . S
U846 C849 2.984 . S
U846 C850 2.847 . S
U846 C863 2.882 . S
U846 O864 2.441 . S
U846 O865 2.420 . S
U846 O866 2.455 . S
U846 O867 2.449 . S
O847 U846 2.454 . S
O847 C849 1.353 . S
O848 U846 2.458 . S
O848 C849 1.286 . S
C849 U846 2.984 . S
C849 O847 1.353 . S
C849 O848 1.286 . S
C849 C851 1.363 . S
C850 C840 1.465 . S
C850 U846 2.847 . S
C850 O864 1.249 . S
C850 O865 1.202 . S
C851 C849 1.363 . S
C851 C853 1.408 . S
C851 C856 1.342 . S
C852 C853 1.310 . S
C852 C855 1.461 . S
C852 H872 0.932 . S
C853 C851 1.408 . S
C853 C852 1.310 . S
C853 H873 0.930 . S
C854 C855 1.474 . S
C854 C856 1.285 . S
C854 H874 0.929 . S
C855 C852 1.461 . S
C855 C854 1.474 . S
C856 C851 1.342 . S
C856 C854 1.285 . S
C856 H875 0.930 . S
C857 C860 1.424 . S
C857 C862 1.245 . S
C857 C863 1.428 . S
C858 C861 1.260 . S
C858 C862 1.477 . S
C858 H876 0.932 . S
C859 C860 1.384 . S
C859 C861 1.479 . S
C859 H877 0.929 . S
C860 C857 1.424 . S
C860 C859 1.384 . S
C860 H878 0.928 . S
C861 C858 1.260 . S
C861 C859 1.479 . S
C862 C857 1.245 . S
C862 C858 1.477 . S
C862 H879 0.932 . S
C863 U846 2.882 . S
C863 C857 1.428 . S
C863 O866 1.301 . S
C863 O867 1.282 . S
O864 U846 2.441 . S
O864 C850 1.249 . S
O865 U846 2.420 . S
O865 C850 1.202 . S
O866 U846 2.455 . S
O866 C863 1.301 . S
O867 U846 2.449 . S
O867 C863 1.282 . S
H868 C841 0.931 . S
H869 C843 0.929 . S
H870 C844 0.930 . S
H871 C845 0.931 . S
H872 C852 0.932 . S
H873 C853 0.930 . S
H874 C854 0.929 . S
H875 C856 0.930 . S
H876 C858 0.932 . S
H877 C859 0.929 . S
H878 C860 0.928 . S
H879 C862 0.932 . S
C880 C881 1.264 . S
C880 C885 1.479 . S
C880 C890 1.465 . S
C881 C880 1.264 . S
C881 C883 1.339 . S
C881 H908 0.931 . S
C882 C883 1.395 . S
C882 C884 1.320 . S
C883 C881 1.339 . S
C883 C882 1.395 . S
C883 H909 0.929 . S
C884 C882 1.320 . S
C884 C885 1.405 . S
C884 H910 0.930 . S
C885 C880 1.479 . S
C885 C884 1.405 . S
C885 H911 0.931 . S
U886 O887 2.454 . S
U886 O888 2.458 . S
U886 C889 2.984 . S
U886 C890 2.847 . S
U886 C903 2.882 . S
U886 O904 2.441 . S
U886 O905 2.420 . S
U886 O906 2.455 . S
U886 O907 2.449 . S
O887 U886 2.454 . S
O887 C889 1.353 . S
O888 U886 2.458 . S
O888 C889 1.286 . S
C889 U886 2.984 . S
C889 O887 1.353 . S
C889 O888 1.286 . S
C889 C891 1.363 . S
C890 C880 1.465 . S
C890 U886 2.847 . S
C890 O904 1.249 . S
C890 O905 1.202 . S
C891 C889 1.363 . S
C891 C893 1.408 . S
C891 C896 1.342 . S
C892 C893 1.310 . S
C892 C895 1.461 . S
C892 H912 0.932 . S
C893 C891 1.408 . S
C893 C892 1.310 . S
C893 H913 0.930 . S
C894 C895 1.474 . S
C894 C896 1.285 . S
C894 H914 0.929 . S
C895 C892 1.461 . S
C895 C894 1.474 . S
C896 C891 1.342 . S
C896 C894 1.285 . S
C896 H915 0.930 . S
C897 C900 1.424 . S
C897 C902 1.245 . S
C897 C903 1.428 . S
C898 C901 1.260 . S
C898 C902 1.477 . S
C898 H916 0.932 . S
C899 C900 1.384 . S
C899 C901 1.479 . S
C899 H917 0.929 . S
C900 C897 1.424 . S
C900 C899 1.384 . S
C900 H918 0.928 . S
C901 C898 1.260 . S
C901 C899 1.479 . S
C902 C897 1.245 . S
C902 C898 1.477 . S
C902 H919 0.932 . S
C903 U886 2.882 . S
C903 C897 1.428 . S
C903 O906 1.301 . S
C903 O907 1.282 . S
O904 U886 2.441 . S
O904 C890 1.249 . S
O905 U886 2.420 . S
O905 C890 1.202 . S
O906 U886 2.455 . S
O906 C903 1.301 . S
O907 U886 2.449 . S
O907 C903 1.282 . S
H908 C881 0.931 . S
H909 C883 0.929 . S
H910 C884 0.930 . S
H911 C885 0.931 . S
H912 C892 0.932 . S
H913 C893 0.930 . S
H914 C894 0.929 . S
H915 C896 0.930 . S
H916 C898 0.932 . S
H917 C899 0.929 . S
H918 C900 0.928 . S
H919 C902 0.932 . S
C920 C921 1.264 . S
C920 C925 1.479 1_565 S
C920 C930 1.475 . S
C921 C920 1.264 . S
C921 C923 1.339 . S
C921 H948 0.931 . S
C922 C923 1.395 . S
C922 C924 1.320 1_565 S
C923 C921 1.339 . S
C923 C922 1.395 . S
C923 H949 0.929 . S
C924 C922 1.320 1_545 S
C924 C925 1.405 . S
C924 H950 0.930 . S
C925 C920 1.479 1_545 S
C925 C924 1.405 . S
C925 H951 0.931 . S
U926 O927 2.454 . S
U926 O928 2.458 . S
U926 C929 2.984 . S
U926 C930 2.840 1_545 S
U926 C943 2.882 1_545 S
U926 O944 2.441 . S
U926 O945 2.420 1_545 S
U926 O946 2.455 1_545 S
U926 O947 2.449 1_545 S
O927 U926 2.454 . S
O927 C929 1.353 . S
O928 U926 2.458 . S
O928 C929 1.286 . S
C929 U926 2.984 . S
C929 O927 1.353 . S
C929 O928 1.286 . S
C929 C931 1.363 . S
C930 C920 1.475 . S
C930 U926 2.840 1_565 S
C930 O944 1.223 1_565 S
C930 O945 1.221 . S
C931 C929 1.363 . S
C931 C933 1.408 . S
C931 C936 1.342 . S
C932 C933 1.310 . S
C932 C935 1.461 . S
C932 H952 0.932 . S
C933 C931 1.408 . S
C933 C932 1.310 . S
C933 H953 0.930 . S
C934 C935 1.474 . S
C934 C936 1.285 . S
C934 H954 0.929 . S
C935 C932 1.461 . S
C935 C934 1.474 . S
C936 C931 1.342 . S
C936 C934 1.285 . S
C936 H955 0.930 . S
C937 C940 1.424 . S
C937 C942 1.245 . S
C937 C943 1.428 . S
C938 C941 1.260 . S
C938 C942 1.477 . S
C938 H956 0.932 . S
C939 C940 1.384 . S
C939 C941 1.479 . S
C939 H957 0.929 . S
C940 C937 1.424 . S
C940 C939 1.384 . S
C940 H958 0.928 . S
C941 C938 1.260 . S
C941 C939 1.479 . S
C942 C937 1.245 . S
C942 C938 1.477 . S
C942 H959 0.932 . S
C943 U926 2.882 1_565 S
C943 C937 1.428 . S
C943 O946 1.301 . S
C943 O947 1.282 . S
O944 U926 2.441 . S
O944 C930 1.223 1_545 S
O945 U926 2.420 1_565 S
O945 C930 1.221 . S
O946 U926 2.455 1_565 S
O946 C943 1.301 . S
O947 U926 2.449 1_565 S
O947 C943 1.282 . S
H948 C921 0.931 . S
H949 C923 0.929 . S
H950 C924 0.930 . S
H951 C925 0.931 . S
H952 C932 0.932 . S
H953 C933 0.930 . S
H954 C934 0.929 . S
H955 C936 0.930 . S
H956 C938 0.932 . S
H957 C939 0.929 . S
H958 C940 0.928 . S
H959 C942 0.932 . S
C960 C961 1.264 . S
C960 C965 1.479 . S
C960 C970 1.465 . S
C961 C960 1.264 . S
C961 C963 1.339 . S
C961 H988 0.931 . S
C962 C963 1.395 . S
C962 C964 1.320 . S
C963 C961 1.339 . S
C963 C962 1.395 . S
C963 H989 0.929 . S
C964 C962 1.320 . S
C964 C965 1.405 . S
C964 H990 0.930 . S
C965 C960 1.479 . S
C965 C964 1.405 . S
C965 H991 0.931 1_565 S
U966 O967 2.513 . S
U966 O968 2.502 . S
U966 C969 3.042 . S
U966 C970 2.834 1_545 S
U966 C983 2.839 1_545 S
U966 O984 2.454 . S
U966 O985 2.384 1_545 S
U966 O986 2.436 1_545 S
U966 O987 2.392 1_545 S
O967 U966 2.513 . S
O967 C969 1.353 . S
O968 U966 2.502 . S
O968 C969 1.286 . S
C969 U966 3.042 . S
C969 O967 1.353 . S
C969 O968 1.286 . S
C969 C971 1.363 . S
C970 C960 1.465 . S
C970 U966 2.834 1_565 S
C970 O984 1.249 1_565 S
C970 O985 1.202 . S
C971 C969 1.363 . S
C971 C973 1.408 . S
C971 C976 1.342 . S
C972 C973 1.310 . S
C972 C975 1.461 . S
C972 H992 0.932 . S
C973 C971 1.408 . S
C973 C972 1.310 . S
C973 H993 0.930 . S
C974 C975 1.474 . S
C974 C976 1.285 . S
C974 H994 0.929 . S
C975 C972 1.461 . S
C975 C974 1.474 . S
C976 C971 1.342 . S
C976 C974 1.285 . S
C976 H995 0.930 . S
C977 C980 1.424 . S
C977 C982 1.245 . S
C977 C983 1.428 . S
C978 C981 1.260 . S
C978 C982 1.477 . S
C978 H996 0.932 . S
C979 C980 1.384 . S
C979 C981 1.479 . S
C979 H997 0.929 . S
C980 C977 1.424 . S
C980 C979 1.384 . S
C980 H998 0.928 . S
C981 C978 1.260 . S
C981 C979 1.479 . S
C982 C977 1.245 . S
C982 C978 1.477 . S
C982 H999 0.932 . S
C983 U966 2.839 1_565 S
C983 C977 1.428 . S
C983 O986 1.301 . S
C983 O987 1.282 . S
O984 U966 2.454 . S
O984 C970 1.249 1_545 S
O985 U966 2.384 1_565 S
O985 C970 1.202 . S
O986 U966 2.436 1_565 S
O986 C983 1.301 . S
O987 U966 2.392 1_565 S
O987 C983 1.282 . S
H988 C961 0.931 . S
H989 C963 0.929 . S
H990 C964 0.930 . S
H991 C965 0.931 1_545 S
H992 C972 0.932 . S
H993 C973 0.930 . S
H994 C974 0.929 . S
H995 C976 0.930 . S
H996 C978 0.932 . S
H997 C979 0.929 . S
H998 C980 0.928 . S
H999 C982 0.932 . S
C1000 C1001 1.264 . S
C1000 C1005 1.479 . S
C1000 C1010 1.465 . S
C1001 C1000 1.264 . S
C1001 C1003 1.339 . S
C1001 H1028 0.931 . S
C1002 C1003 1.395 . S
C1002 C1004 1.320 . S
C1003 C1001 1.339 . S
C1003 C1002 1.395 . S
C1003 H1029 0.929 . S
C1004 C1002 1.320 . S
C1004 C1005 1.405 . S
C1004 H1030 0.930 . S
C1005 C1000 1.479 . S
C1005 C1004 1.405 . S
C1005 H1031 0.931 . S
U1006 O1007 2.454 . S
U1006 O1008 2.458 1_565 S
U1006 C1009 2.984 1_565 S
U1006 C1010 2.847 . S
U1006 C1023 2.882 1_565 S
U1006 O1024 2.441 . S
U1006 O1025 2.420 . S
U1006 O1026 2.455 1_565 S
U1006 O1027 2.449 1_565 S
O1007 U1006 2.454 . S
O1007 C1009 1.353 1_565 S
O1008 U1006 2.458 1_545 S
O1008 C1009 1.286 . S
C1009 U1006 2.984 1_545 S
C1009 O1007 1.353 1_545 S
C1009 O1008 1.286 . S
C1009 C1011 1.363 . S
C1010 C1000 1.465 . S
C1010 U1006 2.847 . S
C1010 O1024 1.249 . S
C1010 O1025 1.202 . S
C1011 C1009 1.363 . S
C1011 C1013 1.408 1_545 S
C1011 C1016 1.342 . S
C1012 C1013 1.310 . S
C1012 C1015 1.461 1_565 S
C1012 H1032 0.932 . S
C1013 C1011 1.408 1_565 S
C1013 C1012 1.310 . S
C1013 H1033 0.930 . S
C1014 C1015 1.474 . S
C1014 C1016 1.285 . S
C1014 H1034 0.929 . S
C1015 C1012 1.461 1_545 S
C1015 C1014 1.474 . S
C1016 C1011 1.342 . S
C1016 C1014 1.285 . S
C1016 H1035 0.930 . S
C1017 C1020 1.424 . S
C1017 C1022 1.245 . S
C1017 C1023 1.428 . S
C1018 C1021 1.260 . S
C1018 C1022 1.477 . S
C1018 H1036 0.932 . S
C1019 C1020 1.384 . S
C1019 C1021 1.479 . S
C1019 H1037 0.929 . S
C1020 C1017 1.424 . S
C1020 C1019 1.384 . S
C1020 H1038 0.928 . S
C1021 C1018 1.260 . S
C1021 C1019 1.479 . S
C1022 C1017 1.245 . S
C1022 C1018 1.477 . S
C1022 H1039 0.932 . S
C1023 U1006 2.882 1_545 S
C1023 C1017 1.428 . S
C1023 O1026 1.301 . S
C1023 O1027 1.282 . S
O1024 U1006 2.441 . S
O1024 C1010 1.249 . S
O1025 U1006 2.420 . S
O1025 C1010 1.202 . S
O1026 U1006 2.455 1_545 S
O1026 C1023 1.301 . S
O1027 U1006 2.449 1_545 S
O1027 C1023 1.282 . S
H1028 C1001 0.931 . S
H1029 C1003 0.929 . S
H1030 C1004 0.930 . S
H1031 C1005 0.931 . S
H1032 C1012 0.932 . S
H1033 C1013 0.930 . S
H1034 C1014 0.929 . S
H1035 C1016 0.930 . S
H1036 C1018 0.932 . S
H1037 C1019 0.929 . S
H1038 C1020 0.928 . S
H1039 C1022 0.932 . S
C1040 C1041 1.264 . S
C1040 C1045 1.479 . S
C1040 C1050 1.465 . S
C1041 C1040 1.264 . S
C1041 C1043 1.339 . S
C1041 H1068 0.931 . S
C1042 C1043 1.395 . S
C1042 C1044 1.320 . S
C1043 C1041 1.339 . S
C1043 C1042 1.395 . S
C1043 H1069 0.929 . S
C1044 C1042 1.320 . S
C1044 C1045 1.405 . S
C1044 H1070 0.930 . S
C1045 C1040 1.479 . S
C1045 C1044 1.405 . S
C1045 H1071 0.931 . S
U1046 O1047 2.449 1_545 S
U1046 O1048 2.475 . S
U1046 C1049 2.991 . S
U1046 C1050 2.822 1_545 S
U1046 C1063 2.902 . S
U1046 O1064 2.415 1_545 S
U1046 O1065 2.400 1_545 S
U1046 O1066 2.480 . S
U1046 O1067 2.458 . S
O1047 U1046 2.449 1_565 S
O1047 C1049 1.353 1_565 S
O1048 U1046 2.475 . S
O1048 C1049 1.286 . S
C1049 U1046 2.991 . S
C1049 O1047 1.353 1_545 S
C1049 O1048 1.286 . S
C1049 C1051 1.363 . S
C1050 C1040 1.465 . S
C1050 U1046 2.822 1_565 S
C1050 O1064 1.249 . S
C1050 O1065 1.202 . S
C1051 C1049 1.363 . S
C1051 C1053 1.408 . S
C1051 C1056 1.342 . S
C1052 C1053 1.310 . S
C1052 C1055 1.461 . S
C1052 H1072 0.932 . S
C1053 C1051 1.408 . S
C1053 C1052 1.310 . S
C1053 H1073 0.930 1_545 S
C1054 C1055 1.474 . S
C1054 C1056 1.285 . S
C1054 H1074 0.929 . S
C1055 C1052 1.461 . S
C1055 C1054 1.474 . S
C1056 C1051 1.342 . S
C1056 C1054 1.285 . S
C1056 H1075 0.930 . S
C1057 C1060 1.424 . S
C1057 C1062 1.245 . S
C1057 C1063 1.428 . S
C1058 C1061 1.260 . S
C1058 C1062 1.477 . S
C1058 H1076 0.932 . S
C1059 C1060 1.384 . S
C1059 C1061 1.479 . S
C1059 H1077 0.929 . S
C1060 C1057 1.424 . S
C1060 C1059 1.384 . S
C1060 H1078 0.928 . S
C1061 C1058 1.260 . S
C1061 C1059 1.479 . S
C1062 C1057 1.245 . S
C1062 C1058 1.477 . S
C1062 H1079 0.932 . S
C1063 U1046 2.902 . S
C1063 C1057 1.428 . S
C1063 O1066 1.301 . S
C1063 O1067 1.282 . S
O1064 U1046 2.415 1_565 S
O1064 C1050 1.249 . S
O1065 U1046 2.400 1_565 S
O1065 C1050 1.202 . S
O1066 U1046 2.480 . S
O1066 C1063 1.301 . S
O1067 U1046 2.458 . S
O1067 C1063 1.282 . S
H1068 C1041 0.931 . S
H1069 C1043 0.929 . S
H1070 C1044 0.930 . S
H1071 C1045 0.931 . S
H1072 C1052 0.932 . S
H1073 C1053 0.930 1_565 S
H1074 C1054 0.929 . S
H1075 C1056 0.930 . S
H1076 C1058 0.932 . S
H1077 C1059 0.929 . S
H1078 C1060 0.928 . S
H1079 C1062 0.932 . S
C1080 C1081 1.264 . S
C1080 C1085 1.479 . S
C1080 C1090 1.465 . S
C1081 C1080 1.264 . S
C1081 C1083 1.339 . S
C1081 H1108 0.931 . S
C1082 C1083 1.395 . S
C1082 C1084 1.320 . S
C1083 C1081 1.339 . S
C1083 C1082 1.395 . S
C1083 H1109 0.929 . S
C1084 C1082 1.320 . S
C1084 C1085 1.405 . S
C1084 H1110 0.930 . S
C1085 C1080 1.479 . S
C1085 C1084 1.405 . S
C1085 H1111 0.931 . S
U1086 O1087 2.454 . S
U1086 O1088 2.458 . S
U1086 C1089 2.984 . S
U1086 C1090 2.847 . S
U1086 C1103 2.882 . S
U1086 O1104 2.441 . S
U1086 O1105 2.420 . S
U1086 O1106 2.455 . S
U1086 O1107 2.449 . S
O1087 U1086 2.454 . S
O1087 C1089 1.353 . S
O1088 U1086 2.458 . S
O1088 C1089 1.286 . S
C1089 U1086 2.984 . S
C1089 O1087 1.353 . S
C1089 O1088 1.286 . S
C1089 C1091 1.363 . S
C1090 C1080 1.465 . S
C1090 U1086 2.847 . S
C1090 O1104 1.249 . S
C1090 O1105 1.202 . S
C1091 C1089 1.363 . S
C1091 C1093 1.408 . S
C1091 C1096 1.342 . S
C1092 C1093 1.310 . S
C1092 C1095 1.440 1_556 S
C1092 H1112 0.932 1_556 S
C1093 C1091 1.408 . S
C1093 C1092 1.310 . S
C1093 H1113 0.930 . S
C1094 C1095 1.416 1_556 S
C1094 C1096 1.285 . S
C1094 H1114 0.929 . S
C1095 C1092 1.440 1_554 S
C1095 C1094 1.416 1_554 S
C1096 C1091 1.342 . S
C1096 C1094 1.285 . S
C1096 H1115 0.930 . S
C1097 C1100 1.424 . S
C1097 C1102 1.245 . S
C1097 C1103 1.428 . S
C1098 C1101 1.260 . S
C1098 C1102 1.477 . S
C1098 H1116 0.932 . S
C1099 C1100 1.384 . S
C1099 C1101 1.479 . S
C1099 H1117 0.929 . S
C1100 C1097 1.424 . S
C1100 C1099 1.384 . S
C1100 H1118 0.928 . S
C1101 C1098 1.260 . S
C1101 C1099 1.479 . S
C1102 C1097 1.245 . S
C1102 C1098 1.477 . S
C1102 H1119 0.932 . S
C1103 U1086 2.882 . S
C1103 C1097 1.428 . S
C1103 O1106 1.301 . S
C1103 O1107 1.282 . S
O1104 U1086 2.441 . S
O1104 C1090 1.249 . S
O1105 U1086 2.420 . S
O1105 C1090 1.202 . S
O1106 U1086 2.455 . S
O1106 C1103 1.301 . S
O1107 U1086 2.449 . S
O1107 C1103 1.282 . S
H1108 C1081 0.931 . S
H1109 C1083 0.929 . S
H1110 C1084 0.930 . S
H1111 C1085 0.931 . S
H1112 C1092 0.932 1_554 S
H1113 C1093 0.930 . S
H1114 C1094 0.929 . S
H1115 C1096 0.930 . S
H1116 C1098 0.932 . S
H1117 C1099 0.929 . S
H1118 C1100 0.928 . S
H1119 C1102 0.932 . S
C1120 C1121 1.264 . S
C1120 C1125 1.479 . S
C1120 C1130 1.465 . S
C1121 C1120 1.264 . S
C1121 C1123 1.339 . S
C1121 H1148 0.931 . S
C1122 C1123 1.395 . S
C1122 C1124 1.320 . S
C1123 C1121 1.339 . S
C1123 C1122 1.395 . S
C1123 H1149 0.929 . S
C1124 C1122 1.320 . S
C1124 C1125 1.405 . S
C1124 H1150 0.930 . S
C1125 C1120 1.479 . S
C1125 C1124 1.405 . S
C1125 H1151 0.931 . S
U1126 O1127 2.454 . S
U1126 O1128 2.458 . S
U1126 C1129 2.984 . S
U1126 C1130 2.847 1_455 S
U1126 C1143 2.882 . S
U1126 O1144 2.441 1_455 S
U1126 O1145 2.420 1_455 S
U1126 O1146 2.455 . S
U1126 O1147 2.449 . S
O1127 U1126 2.454 . S
O1127 C1129 1.353 . S
O1128 U1126 2.458 . S
O1128 C1129 1.286 . S
C1129 U1126 2.984 . S
C1129 O1127 1.353 . S
C1129 O1128 1.286 . S
C1129 C1131 1.363 . S
C1130 C1120 1.465 . S
C1130 U1126 2.847 1_655 S
C1130 O1144 1.249 . S
C1130 O1145 1.202 . S
C1131 C1129 1.363 . S
C1131 C1133 1.408 . S
C1131 C1136 1.342 . S
C1132 C1133 1.310 . S
C1132 C1135 1.461 . S
C1132 H1152 0.932 1_455 S
C1133 C1131 1.408 . S
C1133 C1132 1.310 . S
C1133 H1153 0.930 1_455 S
C1134 C1135 1.474 . S
C1134 C1136 1.285 . S
C1134 H1154 0.929 . S
C1135 C1132 1.461 . S
C1135 C1134 1.474 . S
C1136 C1131 1.342 . S
C1136 C1134 1.285 . S
C1136 H1155 0.930 . S
C1137 C1140 1.424 . S
C1137 C1142 1.245 . S
C1137 C1143 1.428 . S
C1138 C1141 1.260 . S
C1138 C1142 1.477 . S
C1138 H1156 0.932 . S
C1139 C1140 1.384 . S
C1139 C1141 1.479 . S
C1139 H1157 0.929 . S
C1140 C1137 1.424 . S
C1140 C1139 1.384 . S
C1140 H1158 0.928 . S
C1141 C1138 1.260 . S
C1141 C1139 1.479 . S
C1142 C1137 1.245 . S
C1142 C1138 1.477 . S
C1142 H1159 0.932 . S
C1143 U1126 2.882 . S
C1143 C1137 1.428 . S
C1143 O1146 1.301 . S
C1143 O1147 1.282 . S
O1144 U1126 2.441 1_655 S
O1144 C1130 1.249 . S
O1145 U1126 2.420 1_655 S
O1145 C1130 1.202 . S
O1146 U1126 2.455 . S
O1146 C1143 1.301 . S
O1147 U1126 2.449 . S
O1147 C1143 1.282 . S
H1148 C1121 0.931 . S
H1149 C1123 0.929 . S
H1150 C1124 0.930 . S
H1151 C1125 0.931 . S
H1152 C1132 0.932 1_655 S
H1153 C1133 0.930 1_655 S
H1154 C1134 0.929 . S
H1155 C1136 0.930 . S
H1156 C1138 0.932 . S
H1157 C1139 0.929 . S
H1158 C1140 0.928 . S
H1159 C1142 0.932 . S
C1160 C1161 1.264 . S
C1160 C1165 1.479 . S
C1160 C1170 1.465 . S
C1161 C1160 1.264 . S
C1161 C1163 1.339 . S
C1161 H1188 0.931 . S
C1162 C1163 1.395 . S
C1162 C1164 1.320 . S
C1163 C1161 1.339 . S
C1163 C1162 1.395 . S
C1163 H1189 0.929 . S
C1164 C1162 1.320 . S
C1164 C1165 1.405 . S
C1164 H1190 0.930 . S
C1165 C1160 1.479 . S
C1165 C1164 1.405 . S
C1165 H1191 0.931 . S
U1166 O1167 2.454 . S
U1166 O1168 2.458 . S
U1166 C1169 2.984 . S
U1166 C1170 2.847 . S
U1166 C1183 2.882 . S
U1166 O1184 2.441 . S
U1166 O1185 2.420 . S
U1166 O1186 2.455 . S
U1166 O1187 2.449 . S
O1167 U1166 2.454 . S
O1167 C1169 1.353 . S
O1168 U1166 2.458 . S
O1168 C1169 1.286 . S
C1169 U1166 2.984 . S
C1169 O1167 1.353 . S
C1169 O1168 1.286 . S
C1169 C1171 1.363 . S
C1170 C1160 1.465 . S
C1170 U1166 2.847 . S
C1170 O1184 1.249 . S
C1170 O1185 1.202 . S
C1171 C1169 1.363 . S
C1171 C1173 1.408 . S
C1171 C1176 1.342 . S
C1172 C1173 1.310 . S
C1172 C1175 1.461 . S
C1172 H1192 0.932 . S
C1173 C1171 1.408 . S
C1173 C1172 1.310 . S
C1173 H1193 0.930 . S
C1174 C1175 1.474 . S
C1174 C1176 1.285 . S
C1174 H1194 0.929 . S
C1175 C1172 1.461 . S
C1175 C1174 1.474 . S
C1176 C1171 1.342 . S
C1176 C1174 1.285 . S
C1176 H1195 0.930 . S
C1177 C1180 1.424 . S
C1177 C1182 1.245 . S
C1177 C1183 1.428 . S
C1178 C1181 1.260 . S
C1178 C1182 1.477 . S
C1178 H1196 0.932 . S
C1179 C1180 1.384 . S
C1179 C1181 1.479 . S
C1179 H1197 0.929 . S
C1180 C1177 1.424 . S
C1180 C1179 1.384 . S
C1180 H1198 0.928 . S
C1181 C1178 1.260 . S
C1181 C1179 1.479 . S
C1182 C1177 1.245 . S
C1182 C1178 1.477 . S
C1182 H1199 0.932 . S
C1183 U1166 2.882 . S
C1183 C1177 1.428 . S
C1183 O1186 1.301 . S
C1183 O1187 1.282 . S
O1184 U1166 2.441 . S
O1184 C1170 1.249 . S
O1185 U1166 2.420 . S
O1185 C1170 1.202 . S
O1186 U1166 2.455 . S
O1186 C1183 1.301 . S
O1187 U1166 2.449 . S
O1187 C1183 1.282 . S
H1188 C1161 0.931 . S
H1189 C1163 0.929 . S
H1190 C1164 0.930 . S
H1191 C1165 0.931 . S
H1192 C1172 0.932 . S
H1193 C1173 0.930 . S
H1194 C1174 0.929 . S
H1195 C1176 0.930 . S
H1196 C1178 0.932 . S
H1197 C1179 0.929 . S
H1198 C1180 0.928 . S
H1199 C1182 0.932 . S
C1200 C1201 1.264 . S
C1200 C1205 1.479 . S
C1200 C1210 1.465 . S
C1201 C1200 1.264 . S
C1201 C1203 1.339 . S
C1201 H1228 0.931 . S
C1202 C1203 1.395 . S
C1202 C1204 1.320 . S
C1203 C1201 1.339 . S
C1203 C1202 1.395 . S
C1203 H1229 0.929 . S
C1204 C1202 1.320 . S
C1204 C1205 1.405 . S
C1204 H1230 0.930 . S
C1205 C1200 1.479 . S
C1205 C1204 1.405 . S
C1205 H1231 0.931 . S
U1206 O1207 2.454 . S
U1206 O1208 2.458 . S
U1206 C1209 2.984 . S
U1206 C1210 2.847 . S
U1206 C1223 2.882 . S
U1206 O1224 2.441 . S
U1206 O1225 2.420 . S
U1206 O1226 2.455 . S
U1206 O1227 2.449 . S
O1207 U1206 2.454 . S
O1207 C1209 1.353 . S
O1208 U1206 2.458 . S
O1208 C1209 1.286 . S
C1209 U1206 2.984 . S
C1209 O1207 1.353 . S
C1209 O1208 1.286 . S
C1209 C1211 1.363 . S
C1210 C1200 1.465 . S
C1210 U1206 2.847 . S
C1210 O1224 1.249 . S
C1210 O1225 1.202 . S
C1211 C1209 1.363 . S
C1211 C1213 1.408 . S
C1211 C1216 1.342 . S
C1212 C1213 1.310 . S
C1212 C1215 1.461 . S
C1212 H1232 0.932 . S
C1213 C1211 1.408 . S
C1213 C1212 1.310 . S
C1213 H1233 0.930 . S
C1214 C1215 1.474 . S
C1214 C1216 1.285 . S
C1214 H1234 0.929 . S
C1215 C1212 1.461 . S
C1215 C1214 1.474 . S
C1216 C1211 1.342 . S
C1216 C1214 1.285 . S
C1216 H1235 0.930 . S
C1217 C1220 1.424 . S
C1217 C1222 1.245 . S
C1217 C1223 1.428 . S
C1218 C1221 1.260 . S
C1218 C1222 1.477 . S
C1218 H1236 0.932 . S
C1219 C1220 1.384 . S
C1219 C1221 1.479 . S
C1219 H1237 0.929 . S
C1220 C1217 1.424 . S
C1220 C1219 1.384 . S
C1220 H1238 0.928 . S
C1221 C1218 1.260 . S
C1221 C1219 1.479 . S
C1222 C1217 1.245 . S
C1222 C1218 1.477 . S
C1222 H1239 0.932 . S
C1223 U1206 2.882 . S
C1223 C1217 1.428 . S
C1223 O1226 1.301 . S
C1223 O1227 1.282 . S
O1224 U1206 2.441 . S
O1224 C1210 1.249 . S
O1225 U1206 2.420 . S
O1225 C1210 1.202 . S
O1226 U1206 2.455 . S
O1226 C1223 1.301 . S
O1227 U1206 2.449 . S
O1227 C1223 1.282 . S
H1228 C1201 0.931 . S
H1229 C1203 0.929 . S
H1230 C1204 0.930 . S
H1231 C1205 0.931 . S
H1232 C1212 0.932 . S
H1233 C1213 0.930 . S
H1234 C1214 0.929 . S
H1235 C1216 0.930 . S
H1236 C1218 0.932 . S
H1237 C1219 0.929 . S
H1238 C1220 0.928 . S
H1239 C1222 0.932 . S
C1240 C1241 1.264 . S
C1240 C1245 1.479 . S
C1240 C1250 1.465 . S
C1241 C1240 1.264 . S
C1241 C1243 1.339 . S
C1241 H1268 0.931 . S
C1242 C1243 1.395 . S
C1242 C1244 1.320 . S
C1243 C1241 1.339 . S
C1243 C1242 1.395 . S
C1243 H1269 0.929 . S
C1244 C1242 1.320 . S
C1244 C1245 1.405 . S
C1244 H1270 0.930 . S
C1245 C1240 1.479 . S
C1245 C1244 1.405 . S
C1245 H1271 0.931 . S
U1246 O1247 2.454 1_655 S
U1246 O1248 2.458 1_655 S
U1246 C1249 2.984 1_655 S
U1246 C1250 2.847 . S
U1246 C1263 2.882 . S
U1246 O1264 2.441 . S
U1246 O1265 2.420 . S
U1246 O1266 2.455 . S
U1246 O1267 2.449 . S
O1247 U1246 2.454 1_455 S
O1247 C1249 1.353 . S
O1248 U1246 2.458 1_455 S
O1248 C1249 1.286 . S
C1249 U1246 2.984 1_455 S
C1249 O1247 1.353 . S
C1249 O1248 1.286 . S
C1249 C1251 1.363 . S
C1250 C1240 1.465 . S
C1250 U1246 2.847 . S
C1250 O1264 1.249 . S
C1250 O1265 1.202 . S
C1251 C1249 1.363 . S
C1251 C1253 1.408 . S
C1251 C1256 1.342 . S
C1252 C1253 1.310 . S
C1252 C1255 1.461 . S
C1252 H1272 0.932 . S
C1253 C1251 1.408 . S
C1253 C1252 1.310 . S
C1253 H1273 0.930 . S
C1254 C1255 1.474 . S
C1254 C1256 1.285 . S
C1254 H1274 0.929 . S
C1255 C1252 1.461 . S
C1255 C1254 1.474 . S
C1256 C1251 1.342 . S
C1256 C1254 1.285 . S
C1256 H1275 0.930 . S
C1257 C1260 1.424 . S
C1257 C1262 1.245 . S
C1257 C1263 1.428 . S
C1258 C1261 1.260 . S
C1258 C1262 1.477 . S
C1258 H1276 0.932 . S
C1259 C1260 1.384 . S
C1259 C1261 1.479 . S
C1259 H1277 0.929 . S
C1260 C1257 1.424 . S
C1260 C1259 1.384 . S
C1260 H1278 0.928 . S
C1261 C1258 1.260 . S
C1261 C1259 1.479 . S
C1262 C1257 1.245 . S
C1262 C1258 1.477 . S
C1262 H1279 0.932 . S
C1263 U1246 2.882 . S
C1263 C1257 1.428 . S
C1263 O1266 1.301 . S
C1263 O1267 1.282 . S
O1264 U1246 2.441 . S
O1264 C1250 1.249 . S
O1265 U1246 2.420 . S
O1265 C1250 1.202 . S
O1266 U1246 2.455 . S
O1266 C1263 1.301 . S
O1267 U1246 2.449 . S
O1267 C1263 1.282 . S
H1268 C1241 0.931 . S
H1269 C1243 0.929 . S
H1270 C1244 0.930 . S
H1271 C1245 0.931 . S
H1272 C1252 0.932 . S
H1273 C1253 0.930 . S
H1274 C1254 0.929 . S
H1275 C1256 0.930 . S
H1276 C1258 0.932 . S
H1277 C1259 0.929 . S
H1278 C1260 0.928 . S
H1279 C1262 0.932 . S
C1280 C1281 1.264 . S
C1280 C1285 1.479 . S
C1280 C1290 1.465 . S
C1281 C1280 1.264 . S
C1281 C1283 1.339 . S
C1281 H1308 0.931 . S
C1282 C1283 1.395 . S
C1282 C1284 1.320 . S
C1283 C1281 1.339 . S
C1283 C1282 1.395 . S
C1283 H1309 0.929 . S
C1284 C1282 1.320 . S
C1284 C1285 1.405 . S
C1284 H1310 0.930 . S
C1285 C1280 1.479 . S
C1285 C1284 1.405 . S
C1285 H1311 0.931 . S
U1286 O1287 2.454 . S
U1286 O1288 2.458 . S
U1286 C1289 2.984 . S
U1286 C1290 2.847 . S
U1286 C1303 2.882 . S
U1286 O1304 2.441 . S
U1286 O1305 2.420 . S
U1286 O1306 2.455 . S
U1286 O1307 2.449 . S
O1287 U1286 2.454 . S
O1287 C1289 1.353 . S
O1288 U1286 2.458 . S
O1288 C1289 1.286 . S
C1289 U1286 2.984 . S
C1289 O1287 1.353 . S
C1289 O1288 1.286 . S
C1289 C1291 1.363 . S
C1290 C1280 1.465 . S
C1290 U1286 2.847 . S
C1290 O1304 1.249 . S
C1290 O1305 1.202 . S
C1291 C1289 1.363 . S
C1291 C1293 1.408 . S
C1291 C1296 1.342 . S
C1292 C1293 1.310 . S
C1292 C1295 1.461 . S
C1292 H1312 0.932 . S
C1293 C1291 1.408 . S
C1293 C1292 1.310 . S
C1293 H1313 0.930 . S
C1294 C1295 1.474 . S
C1294 C1296 1.285 . S
C1294 H1314 0.929 . S
C1295 C1292 1.461 . S
C1295 C1294 1.474 . S
C1296 C1291 1.342 . S
C1296 C1294 1.285 . S
C1296 H1315 0.930 . S
C1297 C1300 1.424 . S
C1297 C1302 1.245 . S
C1297 C1303 1.428 . S
C1298 C1301 1.260 . S
C1298 C1302 1.477 . S
C1298 H1316 0.932 . S
C1299 C1300 1.384 . S
C1299 C1301 1.479 . S
C1299 H1317 0.929 . S
C1300 C1297 1.424 . S
C1300 C1299 1.384 . S
C1300 H1318 0.928 . S
C1301 C1298 1.260 . S
C1301 C1299 1.479 . S
C1302 C1297 1.245 . S
C1302 C1298 1.477 . S
C1302 H1319 0.932 . S
C1303 U1286 2.882 . S
C1303 C1297 1.428 . S
C1303 O1306 1.301 . S
C1303 O1307 1.282 . S
O1304 U1286 2.441 . S
O1304 C1290 1.249 . S
O1305 U1286 2.420 . S
O1305 C1290 1.202 . S
O1306 U1286 2.455 . S
O1306 C1303 1.301 . S
O1307 U1286 2.449 . S
O1307 C1303 1.282 . S
H1308 C1281 0.931 . S
H1309 C1283 0.929 . S
H1310 C1284 0.930 . S
H1311 C1285 0.931 . S
H1312 C1292 0.932 . S
H1313 C1293 0.930 . S
H1314 C1294 0.929 . S
H1315 C1296 0.930 . S
H1316 C1298 0.932 . S
H1317 C1299 0.929 . S
H1318 C1300 0.928 . S
H1319 C1302 0.932 . S
C1320 C1321 1.264 . S
C1320 C1325 1.479 . S
C1320 C1330 1.465 . S
C1321 C1320 1.264 . S
C1321 C1323 1.339 . S
C1321 H1348 0.931 . S
C1322 C1323 1.395 . S
C1322 C1324 1.320 . S
C1323 C1321 1.339 . S
C1323 C1322 1.395 . S
C1323 H1349 0.929 . S
C1324 C1322 1.320 . S
C1324 C1325 1.405 . S
C1324 H1350 0.930 . S
C1325 C1320 1.479 . S
C1325 C1324 1.405 . S
C1325 H1351 0.931 . S
U1326 O1327 2.454 . S
U1326 O1328 2.458 . S
U1326 C1329 2.984 . S
U1326 C1330 2.847 . S
U1326 C1343 2.882 . S
U1326 O1344 2.441 . S
U1326 O1345 2.420 . S
U1326 O1346 2.455 . S
U1326 O1347 2.449 . S
O1327 U1326 2.454 . S
O1327 C1329 1.353 . S
O1328 U1326 2.458 . S
O1328 C1329 1.286 . S
C1329 U1326 2.984 . S
C1329 O1327 1.353 . S
C1329 O1328 1.286 . S
C1329 C1331 1.363 . S
C1330 C1320 1.465 . S
C1330 U1326 2.847 . S
C1330 O1344 1.249 . S
C1330 O1345 1.202 . S
C1331 C1329 1.363 . S
C1331 C1333 1.408 . S
C1331 C1336 1.342 . S
C1332 C1333 1.310 . S
C1332 C1335 1.466 . S
C1332 H1352 0.932 1_556 S
C1333 C1331 1.408 . S
C1333 C1332 1.310 . S
C1333 H1353 0.930 . S
C1334 C1335 1.492 . S
C1334 C1336 1.285 . S
C1334 H1354 0.929 . S
C1335 C1332 1.466 . S
C1335 C1334 1.492 . S
C1336 C1331 1.342 . S
C1336 C1334 1.285 . S
C1336 H1355 0.930 . S
C1337 C1340 1.424 . S
C1337 C1342 1.245 . S
C1337 C1343 1.428 . S
C1338 C1341 1.260 . S
C1338 C1342 1.477 . S
C1338 H1356 0.932 . S
C1339 C1340 1.384 . S
C1339 C1341 1.479 . S
C1339 H1357 0.929 . S
C1340 C1337 1.424 . S
C1340 C1339 1.384 . S
C1340 H1358 0.928 . S
C1341 C1338 1.260 . S
C1341 C1339 1.479 . S
C1342 C1337 1.245 . S
C1342 C1338 1.477 . S
C1342 H1359 0.932 . S
C1343 U1326 2.882 . S
C1343 C1337 1.428 . S
C1343 O1346 1.301 . S
C1343 O1347 1.282 . S
O1344 U1326 2.441 . S
O1344 C1330 1.249 . S
O1345 U1326 2.420 . S
O1345 C1330 1.202 . S
O1346 U1326 2.455 . S
O1346 C1343 1.301 . S
O1347 U1326 2.449 . S
O1347 C1343 1.282 . S
H1348 C1321 0.931 . S
H1349 C1323 0.929 . S
H1350 C1324 0.930 . S
H1351 C1325 0.931 . S
H1352 C1332 0.932 1_554 S
H1353 C1333 0.930 . S
H1354 C1334 0.929 . S
H1355 C1336 0.930 . S
H1356 C1338 0.932 . S
H1357 C1339 0.929 . S
H1358 C1340 0.928 . S
H1359 C1342 0.932 . S
C1360 C1361 1.264 . S
C1360 C1365 1.479 . S
C1360 C1370 1.465 . S
C1361 C1360 1.264 . S
C1361 C1363 1.339 . S
C1361 H1388 0.931 . S
C1362 C1363 1.395 . S
C1362 C1364 1.320 . S
C1363 C1361 1.339 . S
C1363 C1362 1.395 . S
C1363 H1389 0.929 . S
C1364 C1362 1.320 . S
C1364 C1365 1.405 . S
C1364 H1390 0.930 . S
C1365 C1360 1.479 . S
C1365 C1364 1.405 . S
C1365 H1391 0.931 . S
U1366 O1367 2.454 . S
U1366 O1368 2.458 . S
U1366 C1369 2.984 . S
U1366 C1370 2.847 . S
U1366 C1383 2.882 . S
U1366 O1384 2.441 . S
U1366 O1385 2.420 . S
U1366 O1386 2.455 . S
U1366 O1387 2.449 . S
O1367 U1366 2.454 . S
O1367 C1369 1.353 . S
O1368 U1366 2.458 . S
O1368 C1369 1.286 . S
C1369 U1366 2.984 . S
C1369 O1367 1.353 . S
C1369 O1368 1.286 . S
C1369 C1371 1.363 . S
C1370 C1360 1.465 . S
C1370 U1366 2.847 . S
C1370 O1384 1.249 . S
C1370 O1385 1.202 . S
C1371 C1369 1.363 . S
C1371 C1373 1.408 . S
C1371 C1376 1.342 . S
C1372 C1373 1.310 . S
C1372 C1375 1.461 . S
C1372 H1392 0.932 . S
C1373 C1371 1.408 . S
C1373 C1372 1.310 . S
C1373 H1393 0.930 . S
C1374 C1375 1.474 . S
C1374 C1376 1.285 . S
C1374 H1394 0.929 . S
C1375 C1372 1.461 . S
C1375 C1374 1.474 . S
C1376 C1371 1.342 . S
C1376 C1374 1.285 . S
C1376 H1395 0.930 . S
C1377 C1380 1.424 . S
C1377 C1382 1.245 . S
C1377 C1383 1.428 . S
C1378 C1381 1.260 . S
C1378 C1382 1.477 . S
C1378 H1396 0.932 . S
C1379 C1380 1.384 . S
C1379 C1381 1.479 . S
C1379 H1397 0.929 . S
C1380 C1377 1.424 . S
C1380 C1379 1.384 . S
C1380 H1398 0.928 . S
C1381 C1378 1.260 . S
C1381 C1379 1.479 . S
C1382 C1377 1.245 . S
C1382 C1378 1.477 . S
C1382 H1399 0.932 . S
C1383 U1366 2.882 . S
C1383 C1377 1.428 . S
C1383 O1386 1.301 . S
C1383 O1387 1.282 . S
O1384 U1366 2.441 . S
O1384 C1370 1.249 . S
O1385 U1366 2.420 . S
O1385 C1370 1.202 . S
O1386 U1366 2.455 . S
O1386 C1383 1.301 . S
O1387 U1366 2.449 . S
O1387 C1383 1.282 . S
H1388 C1361 0.931 . S
H1389 C1363 0.929 . S
H1390 C1364 0.930 . S
H1391 C1365 0.931 . S
H1392 C1372 0.932 . S
H1393 C1373 0.930 . S
H1394 C1374 0.929 . S
H1395 C1376 0.930 . S
H1396 C1378 0.932 . S
H1397 C1379 0.929 . S
H1398 C1380 0.928 . S
H1399 C1382 0.932 . S
C1400 C1401 1.264 . S
C1400 C1405 1.479 . S
C1400 C1410 1.465 . S
C1401 C1400 1.264 . S
C1401 C1403 1.339 . S
C1401 H1428 0.931 . S
C1402 C1403 1.395 . S
C1402 C1404 1.320 . S
C1403 C1401 1.339 . S
C1403 C1402 1.395 . S
C1403 H1429 0.929 . S
C1404 C1402 1.320 . S
C1404 C1405 1.405 . S
C1404 H1430 0.930 . S
C1405 C1400 1.479 . S
C1405 C1404 1.405 . S
C1405 H1431 0.931 . S
U1406 O1407 2.454 . S
U1406 O1408 2.458 . S
U1406 C1409 2.984 . S
U1406 C1410 2.847 . S
U1406 C1423 2.882 . S
U1406 O1424 2.441 . S
U1406 O1425 2.420 . S
U1406 O1426 2.455 . S
U1406 O1427 2.449 . S
O1407 U1406 2.454 . S
O1407 C1409 1.353 . S
O1408 U1406 2.458 . S
O1408 C1409 1.286 . S
C1409 U1406 2.984 . S
C1409 O1407 1.353 . S
C1409 O1408 1.286 . S
C1409 C1411 1.363 . S
C1410 C1400 1.465 . S
C1410 U1406 2.847 . S
C1410 O1424 1.249 . S
C1410 O1425 1.202 . S
C1411 C1409 1.363 . S
C1411 C1413 1.408 . S
C1411 C1416 1.342 . S
C1412 C1413 1.310 . S
C1412 C1415 1.461 . S
C1412 H1432 0.932 . S
C1413 C1411 1.408 . S
C1413 C1412 1.310 . S
C1413 H1433 0.930 . S
C1414 C1415 1.474 . S
C1414 C1416 1.285 . S
C1414 H1434 0.929 . S
C1415 C1412 1.461 . S
C1415 C1414 1.474 . S
C1416 C1411 1.342 . S
C1416 C1414 1.285 . S
C1416 H1435 0.930 . S
C1417 C1420 1.424 . S
C1417 C1422 1.245 . S
C1417 C1423 1.428 . S
C1418 C1421 1.260 . S
C1418 C1422 1.477 . S
C1418 H1436 0.932 . S
C1419 C1420 1.384 . S
C1419 C1421 1.479 . S
C1419 H1437 0.929 . S
C1420 C1417 1.424 . S
C1420 C1419 1.384 . S
C1420 H1438 0.928 . S
C1421 C1418 1.260 . S
C1421 C1419 1.479 . S
C1422 C1417 1.245 . S
C1422 C1418 1.477 . S
C1422 H1439 0.932 . S
C1423 U1406 2.882 . S
C1423 C1417 1.428 . S
C1423 O1426 1.301 . S
C1423 O1427 1.282 . S
O1424 U1406 2.441 . S
O1424 C1410 1.249 . S
O1425 U1406 2.420 . S
O1425 C1410 1.202 . S
O1426 U1406 2.455 . S
O1426 C1423 1.301 . S
O1427 U1406 2.449 . S
O1427 C1423 1.282 . S
H1428 C1401 0.931 . S
H1429 C1403 0.929 . S
H1430 C1404 0.930 . S
H1431 C1405 0.931 . S
H1432 C1412 0.932 . S
H1433 C1413 0.930 . S
H1434 C1414 0.929 . S
H1435 C1416 0.930 . S
H1436 C1418 0.932 . S
H1437 C1419 0.929 . S
H1438 C1420 0.928 . S
H1439 C1422 0.932 . S
C1440 C1441 1.264 . S
C1440 C1445 1.479 . S
C1440 C1450 1.465 . S
C1441 C1440 1.264 . S
C1441 C1443 1.339 . S
C1441 H1468 0.931 . S
C1442 C1443 1.395 . S
C1442 C1444 1.320 . S
C1443 C1441 1.339 . S
C1443 C1442 1.395 . S
C1443 H1469 0.929 . S
C1444 C1442 1.320 . S
C1444 C1445 1.405 . S
C1444 H1470 0.930 . S
C1445 C1440 1.479 . S
C1445 C1444 1.405 . S
C1445 H1471 0.931 . S
U1446 O1447 2.454 . S
U1446 O1448 2.458 . S
U1446 C1449 2.984 . S
U1446 C1450 2.847 . S
U1446 C1463 2.882 . S
U1446 O1464 2.441 . S
U1446 O1465 2.420 . S
U1446 O1466 2.455 . S
U1446 O1467 2.449 . S
O1447 U1446 2.454 . S
O1447 C1449 1.353 . S
O1448 U1446 2.458 . S
O1448 C1449 1.286 . S
C1449 U1446 2.984 . S
C1449 O1447 1.353 . S
C1449 O1448 1.286 . S
C1449 C1451 1.363 . S
C1450 C1440 1.465 . S
C1450 U1446 2.847 . S
C1450 O1464 1.249 . S
C1450 O1465 1.202 . S
C1451 C1449 1.363 . S
C1451 C1453 1.408 . S
C1451 C1456 1.342 . S
C1452 C1453 1.310 . S
C1452 C1455 1.461 . S
C1452 H1472 0.932 . S
C1453 C1451 1.408 . S
C1453 C1452 1.310 . S
C1453 H1473 0.930 . S
C1454 C1455 1.474 . S
C1454 C1456 1.285 . S
C1454 H1474 0.929 . S
C1455 C1452 1.461 . S
C1455 C1454 1.474 . S
C1456 C1451 1.342 . S
C1456 C1454 1.285 . S
C1456 H1475 0.930 . S
C1457 C1460 1.424 . S
C1457 C1462 1.245 . S
C1457 C1463 1.428 . S
C1458 C1461 1.260 . S
C1458 C1462 1.477 . S
C1458 H1476 0.932 . S
C1459 C1460 1.384 . S
C1459 C1461 1.479 . S
C1459 H1477 0.929 . S
C1460 C1457 1.424 . S
C1460 C1459 1.384 . S
C1460 H1478 0.928 . S
C1461 C1458 1.260 . S
C1461 C1459 1.479 . S
C1462 C1457 1.245 . S
C1462 C1458 1.477 . S
C1462 H1479 0.932 . S
C1463 U1446 2.882 . S
C1463 C1457 1.428 . S
C1463 O1466 1.301 . S
C1463 O1467 1.282 . S
O1464 U1446 2.441 . S
O1464 C1450 1.249 . S
O1465 U1446 2.420 . S
O1465 C1450 1.202 . S
O1466 U1446 2.455 . S
O1466 C1463 1.301 . S
O1467 U1446 2.449 . S
O1467 C1463 1.282 . S
H1468 C1441 0.931 . S
H1469 C1443 0.929 . S
H1470 C1444 0.930 . S
H1471 C1445 0.931 . S
H1472 C1452 0.932 . S
H1473 C1453 0.930 . S
H1474 C1454 0.929 . S
H1475 C1456 0.930 . S
H1476 C1458 0.932 . S
H1477 C1459 0.929 . S
H1478 C1460 0.928 . S
H1479 C1462 0.932 . S
C1480 C1481 1.264 . S
C1480 C1485 1.479 . S
C1480 C1490 1.465 . S
C1481 C1480 1.264 . S
C1481 C1483 1.339 . S
C1481 H1508 0.931 . S
C1482 C1483 1.395 . S
C1482 C1484 1.320 . S
C1483 C1481 1.339 . S
C1483 C1482 1.395 . S
C1483 H1509 0.929 . S
C1484 C1482 1.320 . S
C1484 C1485 1.405 . S
C1484 H1510 0.930 . S
C1485 C1480 1.479 . S
C1485 C1484 1.405 . S
C1485 H1511 0.931 . S
U1486 O1487 2.454 . S
U1486 O1488 2.458 . S
U1486 C1489 2.984 . S
U1486 C1490 2.847 . S
U1486 C1503 2.882 . S
U1486 O1504 2.441 . S
U1486 O1505 2.420 . S
U1486 O1506 2.455 . S
U1486 O1507 2.449 . S
O1487 U1486 2.454 . S
O1487 C1489 1.353 . S
O1488 U1486 2.458 . S
O1488 C1489 1.286 . S
C1489 U1486 2.984 . S
C1489 O1487 1.353 . S
C1489 O1488 1.286 . S
C1489 C1491 1.363 . S
C1490 C1480 1.465 . S
C1490 U1486 2.847 . S
C1490 O1504 1.249 . S
C1490 O1505 1.202 . S
C1491 C1489 1.363 . S
C1491 C1493 1.408 . S
C1491 C1496 1.342 . S
C1492 C1493 1.310 . S
C1492 C1495 1.461 . S
C1492 H1512 0.932 . S
C1493 C1491 1.408 . S
C1493 C1492 1.310 . S
C1493 H1513 0.930 . S
C1494 C1495 1.474 . S
C1494 C1496 1.285 . S
C1494 H1514 0.929 . S
C1495 C1492 1.461 . S
C1495 C1494 1.474 . S
C1496 C1491 1.342 . S
C1496 C1494 1.285 . S
C1496 H1515 0.930 . S
C1497 C1500 1.424 . S
C1497 C1502 1.245 . S
C1497 C1503 1.428 . S
C1498 C1501 1.260 . S
C1498 C1502 1.477 . S
C1498 H1516 0.932 . S
C1499 C1500 1.384 . S
C1499 C1501 1.479 . S
C1499 H1517 0.929 . S
C1500 C1497 1.424 . S
C1500 C1499 1.384 . S
C1500 H1518 0.928 . S
C1501 C1498 1.260 . S
C1501 C1499 1.479 . S
C1502 C1497 1.245 . S
C1502 C1498 1.477 . S
C1502 H1519 0.932 . S
C1503 U1486 2.882 . S
C1503 C1497 1.428 . S
C1503 O1506 1.301 . S
C1503 O1507 1.282 . S
O1504 U1486 2.441 . S
O1504 C1490 1.249 . S
O1505 U1486 2.420 . S
O1505 C1490 1.202 . S
O1506 U1486 2.455 . S
O1506 C1503 1.301 . S
O1507 U1486 2.449 . S
O1507 C1503 1.282 . S
H1508 C1481 0.931 . S
H1509 C1483 0.929 . S
H1510 C1484 0.930 . S
H1511 C1485 0.931 . S
H1512 C1492 0.932 . S
H1513 C1493 0.930 . S
H1514 C1494 0.929 . S
H1515 C1496 0.930 . S
H1516 C1498 0.932 . S
H1517 C1499 0.929 . S
H1518 C1500 0.928 . S
H1519 C1502 0.932 . S
C1520 C1521 1.264 . S
C1520 C1525 1.479 . S
C1520 C1530 1.465 . S
C1521 C1520 1.264 . S
C1521 C1523 1.339 . S
C1521 H1548 0.931 . S
C1522 C1523 1.395 . S
C1522 C1524 1.320 . S
C1523 C1521 1.339 . S
C1523 C1522 1.395 . S
C1523 H1549 0.929 . S
C1524 C1522 1.320 . S
C1524 C1525 1.405 . S
C1524 H1550 0.930 . S
C1525 C1520 1.479 . S
C1525 C1524 1.405 . S
C1525 H1551 0.931 . S
U1526 O1527 2.454 . S
U1526 O1528 2.458 . S
U1526 C1529 2.984 . S
U1526 C1530 2.847 . S
U1526 C1543 2.882 . S
U1526 O1544 2.441 . S
U1526 O1545 2.420 . S
U1526 O1546 2.455 . S
U1526 O1547 2.449 . S
O1527 U1526 2.454 . S
O1527 C1529 1.353 . S
O1528 U1526 2.458 . S
O1528 C1529 1.286 . S
C1529 U1526 2.984 . S
C1529 O1527 1.353 . S
C1529 O1528 1.286 . S
C1529 C1531 1.363 . S
C1530 C1520 1.465 . S
C1530 U1526 2.847 . S
C1530 O1544 1.249 . S
C1530 O1545 1.202 . S
C1531 C1529 1.363 . S
C1531 C1533 1.408 . S
C1531 C1536 1.342 . S
C1532 C1533 1.310 . S
C1532 C1535 1.461 . S
C1532 H1552 0.932 . S
C1533 C1531 1.408 . S
C1533 C1532 1.310 . S
C1533 H1553 0.930 . S
C1534 C1535 1.474 . S
C1534 C1536 1.285 . S
C1534 H1554 0.929 . S
C1535 C1532 1.461 . S
C1535 C1534 1.474 . S
C1536 C1531 1.342 . S
C1536 C1534 1.285 . S
C1536 H1555 0.930 . S
C1537 C1540 1.424 . S
C1537 C1542 1.245 . S
C1537 C1543 1.428 . S
C1538 C1541 1.260 . S
C1538 C1542 1.477 . S
C1538 H1556 0.932 . S
C1539 C1540 1.384 . S
C1539 C1541 1.479 . S
C1539 H1557 0.929 . S
C1540 C1537 1.424 . S
C1540 C1539 1.384 . S
C1540 H1558 0.928 . S
C1541 C1538 1.260 . S
C1541 C1539 1.479 . S
C1542 C1537 1.245 . S
C1542 C1538 1.477 . S
C1542 H1559 0.932 . S
C1543 U1526 2.882 . S
C1543 C1537 1.428 . S
C1543 O1546 1.301 . S
C1543 O1547 1.282 . S
O1544 U1526 2.441 . S
O1544 C1530 1.249 . S
O1545 U1526 2.420 . S
O1545 C1530 1.202 . S
O1546 U1526 2.455 . S
O1546 C1543 1.301 . S
O1547 U1526 2.449 . S
O1547 C1543 1.282 . S
H1548 C1521 0.931 . S
H1549 C1523 0.929 . S
H1550 C1524 0.930 . S
H1551 C1525 0.931 . S
H1552 C1532 0.932 . S
H1553 C1533 0.930 . S
H1554 C1534 0.929 . S
H1555 C1536 0.930 . S
H1556 C1538 0.932 . S
H1557 C1539 0.929 . S
H1558 C1540 0.928 . S
H1559 C1542 0.932 . S
C1560 C1561 1.264 . S
C1560 C1565 1.479 . S
C1560 C1570 1.465 . S
C1561 C1560 1.264 . S
C1561 C1563 1.339 . S
C1561 H1588 0.931 . S
C1562 C1563 1.395 . S
C1562 C1564 1.320 . S
C1563 C1561 1.339 . S
C1563 C1562 1.395 . S
C1563 H1589 0.929 . S
C1564 C1562 1.320 . S
C1564 C1565 1.405 . S
C1564 H1590 0.930 . S
C1565 C1560 1.479 . S
C1565 C1564 1.405 . S
C1565 H1591 0.931 . S
U1566 O1567 2.454 . S
U1566 O1568 2.458 . S
U1566 C1569 2.984 . S
U1566 C1570 2.847 . S
U1566 C1583 2.882 . S
U1566 O1584 2.441 . S
U1566 O1585 2.420 . S
U1566 O1586 2.455 . S
U1566 O1587 2.449 . S
O1567 U1566 2.454 . S
O1567 C1569 1.353 . S
O1568 U1566 2.458 . S
O1568 C1569 1.286 . S
C1569 U1566 2.984 . S
C1569 O1567 1.353 . S
C1569 O1568 1.286 . S
C1569 C1571 1.363 . S
C1570 C1560 1.465 . S
C1570 U1566 2.847 . S
C1570 O1584 1.249 . S
C1570 O1585 1.202 . S
C1571 C1569 1.363 . S
C1571 C1573 1.408 . S
C1571 C1576 1.342 . S
C1572 C1573 1.310 . S
C1572 C1575 1.461 . S
C1572 H1592 0.932 . S
C1573 C1571 1.408 . S
C1573 C1572 1.310 . S
C1573 H1593 0.930 . S
C1574 C1575 1.474 . S
C1574 C1576 1.285 . S
C1574 H1594 0.929 . S
C1575 C1572 1.461 . S
C1575 C1574 1.474 . S
C1576 C1571 1.342 . S
C1576 C1574 1.285 . S
C1576 H1595 0.930 . S
C1577 C1580 1.424 . S
C1577 C1582 1.245 . S
C1577 C1583 1.428 . S
C1578 C1581 1.260 . S
C1578 C1582 1.477 . S
C1578 H1596 0.932 . S
C1579 C1580 1.384 . S
C1579 C1581 1.479 . S
C1579 H1597 0.929 . S
C1580 C1577 1.424 . S
C1580 C1579 1.384 . S
C1580 H1598 0.928 . S
C1581 C1578 1.260 . S
C1581 C1579 1.479 . S
C1582 C1577 1.245 . S
C1582 C1578 1.477 . S
C1582 H1599 0.932 . S
C1583 U1566 2.882 . S
C1583 C1577 1.428 . S
C1583 O1586 1.301 . S
C1583 O1587 1.282 . S
O1584 U1566 2.441 . S
O1584 C1570 1.249 . S
O1585 U1566 2.420 . S
O1585 C1570 1.202 . S
O1586 U1566 2.455 . S
O1586 C1583 1.301 . S
O1587 U1566 2.449 . S
O1587 C1583 1.282 . S
H1588 C1561 0.931 . S
H1589 C1563 0.929 . S
H1590 C1564 0.930 . S
H1591 C1565 0.931 . S
H1592 C1572 0.932 . S
H1593 C1573 0.930 . S
H1594 C1574 0.929 . S
H1595 C1576 0.930 . S
H1596 C1578 0.932 . S
H1597 C1579 0.929 . S
H1598 C1580 0.928 . S
H1599 C1582 0.932 . S
C1600 C1601 1.264 . S
C1600 C1605 1.479 . S
C1600 C1610 1.465 . S
C1601 C1600 1.264 . S
C1601 C1603 1.339 . S
C1601 H1628 0.931 . S
C1602 C1603 1.395 . S
C1602 C1604 1.320 . S
C1603 C1601 1.339 . S
C1603 C1602 1.395 . S
C1603 H1629 0.929 . S
C1604 C1602 1.320 . S
C1604 C1605 1.405 . S
C1604 H1630 0.930 . S
C1605 C1600 1.479 . S
C1605 C1604 1.405 . S
C1605 H1631 0.931 . S
U1606 O1607 2.454 1_455 S
U1606 O1608 2.458 . S
U1606 C1609 2.984 . S
U1606 C1610 2.847 1_455 S
U1606 C1623 2.882 . S
U1606 O1624 2.441 1_455 S
U1606 O1625 2.420 1_455 S
U1606 O1626 2.455 . S
U1606 O1627 2.449 . S
O1607 U1606 2.454 1_655 S
O1607 C1609 1.353 1_655 S
O1608 U1606 2.458 . S
O1608 C1609 1.286 . S
C1609 U1606 2.984 . S
C1609 O1607 1.353 1_455 S
C1609 O1608 1.286 . S
C1609 C1611 1.363 . S
C1610 C1600 1.465 . S
C1610 U1606 2.847 1_655 S
C1610 O1624 1.249 . S
C1610 O1625 1.202 . S
C1611 C1609 1.363 . S
C1611 C1613 1.446 . S
C1611 C1616 1.342 . S
C1612 C1613 1.317 . S
C1612 C1615 1.461 . S
C1612 H1632 0.932 1_455 S
C1613 C1611 1.446 . S
C1613 C1612 1.317 . S
C1613 H1633 0.888 1_455 S
C1614 C1615 1.474 . S
C1614 C1616 1.285 . S
C1614 H1634 0.929 . S
C1615 C1612 1.461 . S
C1615 C1614 1.474 . S
C1616 C1611 1.342 . S
C1616 C1614 1.285 . S
C1616 H1635 0.930 . S
C1617 C1620 1.424 . S
C1617 C1622 1.245 . S
C1617 C1623 1.428 . S
C1618 C1621 1.260 . S
C1618 C1622 1.477 . S
C1618 H1636 0.932 . S
C1619 C1620 1.384 . S
C1619 C1621 1.479 . S
C1619 H1637 0.929 . S
C1620 C1617 1.424 . S
C1620 C1619 1.384 . S
C1620 H1638 0.928 . S
C1621 C1618 1.260 . S
C1621 C1619 1.479 . S
C1622 C1617 1.245 . S
C1622 C1618 1.477 . S
C1622 H1639 0.932 . S
C1623 U1606 2.882 . S
C1623 C1617 1.428 . S
C1623 O1626 1.301 . S
C1623 O1627 1.282 . S
O1624 U1606 2.441 1_655 S
O1624 C1610 1.249 . S
O1625 U1606 2.420 1_655 S
O1625 C1610 1.202 . S
O1626 U1606 2.455 . S
O1626 C1623 1.301 . S
O1627 U1606 2.449 . S
O1627 C1623 1.282 . S
H1628 C1601 0.931 . S
H1629 C1603 0.929 . S
H1630 C1604 0.930 . S
H1631 C1605 0.931 . S
H1632 C1612 0.932 1_655 S
H1633 C1613 0.888 1_655 S
H1634 C1614 0.929 . S
H1635 C1616 0.930 . S
H1636 C1618 0.932 . S
H1637 C1619 0.929 . S
H1638 C1620 0.928 . S
H1639 C1622 0.932 . S
C1640 C1641 1.264 . S
C1640 C1645 1.479 . S
C1640 C1650 1.465 . S
C1641 C1640 1.264 . S
C1641 C1643 1.339 . S
C1641 H1668 0.931 . S
C1642 C1643 1.395 . S
C1642 C1644 1.320 . S
C1643 C1641 1.339 . S
C1643 C1642 1.395 . S
C1643 H1669 0.929 . S
C1644 C1642 1.320 . S
C1644 C1645 1.405 . S
C1644 H1670 0.930 . S
C1645 C1640 1.479 . S
C1645 C1644 1.405 . S
C1645 H1671 0.931 . S
U1646 O1647 2.454 . S
U1646 O1648 2.458 . S
U1646 C1649 2.984 . S
U1646 C1650 2.847 . S
U1646 C1663 2.882 . S
U1646 O1664 2.441 . S
U1646 O1665 2.420 . S
U1646 O1666 2.455 . S
U1646 O1667 2.449 . S
O1647 U1646 2.454 . S
O1647 C1649 1.353 . S
O1648 U1646 2.458 . S
O1648 C1649 1.286 . S
C1649 U1646 2.984 . S
C1649 O1647 1.353 . S
C1649 O1648 1.286 . S
C1649 C1651 1.363 . S
C1650 C1640 1.465 . S
C1650 U1646 2.847 . S
C1650 O1664 1.249 . S
C1650 O1665 1.202 . S
C1651 C1649 1.363 . S
C1651 C1653 1.408 . S
C1651 C1656 1.342 . S
C1652 C1653 1.310 . S
C1652 C1655 1.461 . S
C1652 H1672 0.932 . S
C1653 C1651 1.408 . S
C1653 C1652 1.310 . S
C1653 H1673 0.930 . S
C1654 C1655 1.474 . S
C1654 C1656 1.285 . S
C1654 H1674 0.929 . S
C1655 C1652 1.461 . S
C1655 C1654 1.474 . S
C1656 C1651 1.342 . S
C1656 C1654 1.285 . S
C1656 H1675 0.930 . S
C1657 C1660 1.424 . S
C1657 C1662 1.245 . S
C1657 C1663 1.428 . S
C1658 C1661 1.260 . S
C1658 C1662 1.477 . S
C1658 H1676 0.932 . S
C1659 C1660 1.384 . S
C1659 C1661 1.479 . S
C1659 H1677 0.929 . S
C1660 C1657 1.424 . S
C1660 C1659 1.384 . S
C1660 H1678 0.928 . S
C1661 C1658 1.260 . S
C1661 C1659 1.479 . S
C1662 C1657 1.245 . S
C1662 C1658 1.477 . S
C1662 H1679 0.932 . S
C1663 U1646 2.882 . S
C1663 C1657 1.428 . S
C1663 O1666 1.301 . S
C1663 O1667 1.282 . S
O1664 U1646 2.441 . S
O1664 C1650 1.249 . S
O1665 U1646 2.420 . S
O1665 C1650 1.202 . S
O1666 U1646 2.455 . S
O1666 C1663 1.301 . S
O1667 U1646 2.449 . S
O1667 C1663 1.282 . S
H1668 C1641 0.931 . S
H1669 C1643 0.929 . S
H1670 C1644 0.930 . S
H1671 C1645 0.931 . S
H1672 C1652 0.932 . S
H1673 C1653 0.930 . S
H1674 C1654 0.929 . S
H1675 C1656 0.930 . S
H1676 C1658 0.932 . S
H1677 C1659 0.929 . S
H1678 C1660 0.928 . S
H1679 C1662 0.932 . S
C1680 C1681 1.264 . S
C1680 C1685 1.479 . S
C1680 C1690 1.465 . S
C1681 C1680 1.264 . S
C1681 C1683 1.339 . S
C1681 H1708 0.931 . S
C1682 C1683 1.395 . S
C1682 C1684 1.320 . S
C1683 C1681 1.339 . S
C1683 C1682 1.395 . S
C1683 H1709 0.929 . S
C1684 C1682 1.320 . S
C1684 C1685 1.405 . S
C1684 H1710 0.930 . S
C1685 C1680 1.479 . S
C1685 C1684 1.405 . S
C1685 H1711 0.931 . S
U1686 O1687 2.454 . S
U1686 O1688 2.458 . S
U1686 C1689 2.984 . S
U1686 C1690 2.847 . S
U1686 C1703 2.882 . S
U1686 O1704 2.441 . S
U1686 O1705 2.420 . S
U1686 O1706 2.455 . S
U1686 O1707 2.449 . S
O1687 U1686 2.454 . S
O1687 C1689 1.353 . S
O1688 U1686 2.458 . S
O1688 C1689 1.286 . S
C1689 U1686 2.984 . S
C1689 O1687 1.353 . S
C1689 O1688 1.286 . S
C1689 C1691 1.363 1_554 S
C1690 C1680 1.465 . S
C1690 U1686 2.847 . S
C1690 O1704 1.249 . S
C1690 O1705 1.202 . S
C1691 C1689 1.363 1_556 S
C1691 C1693 1.408 . S
C1691 C1696 1.342 . S
C1692 C1693 1.310 . S
C1692 C1695 1.461 . S
C1692 H1712 0.932 . S
C1693 C1691 1.408 . S
C1693 C1692 1.310 . S
C1693 H1713 0.930 . S
C1694 C1695 1.474 . S
C1694 C1696 1.285 . S
C1694 H1714 0.929 . S
C1695 C1692 1.461 . S
C1695 C1694 1.474 . S
C1696 C1691 1.342 . S
C1696 C1694 1.285 . S
C1696 H1715 0.930 . S
C1697 C1700 1.424 . S
C1697 C1702 1.245 . S
C1697 C1703 1.428 . S
C1698 C1701 1.260 . S
C1698 C1702 1.477 . S
C1698 H1716 0.932 . S
C1699 C1700 1.384 . S
C1699 C1701 1.479 . S
C1699 H1717 0.929 . S
C1700 C1697 1.424 . S
C1700 C1699 1.384 . S
C1700 H1718 0.928 . S
C1701 C1698 1.260 . S
C1701 C1699 1.479 . S
C1702 C1697 1.245 . S
C1702 C1698 1.477 . S
C1702 H1719 0.932 . S
C1703 U1686 2.882 . S
C1703 C1697 1.428 . S
C1703 O1706 1.301 . S
C1703 O1707 1.282 . S
O1704 U1686 2.441 . S
O1704 C1690 1.249 . S
O1705 U1686 2.420 . S
O1705 C1690 1.202 . S
O1706 U1686 2.455 . S
O1706 C1703 1.301 . S
O1707 U1686 2.449 . S
O1707 C1703 1.282 . S
H1708 C1681 0.931 . S
H1709 C1683 0.929 . S
H1710 C1684 0.930 . S
H1711 C1685 0.931 . S
H1712 C1692 0.932 . S
H1713 C1693 0.930 . S
H1714 C1694 0.929 . S
H1715 C1696 0.930 . S
H1716 C1698 0.932 . S
H1717 C1699 0.929 . S
H1718 C1700 0.928 . S
H1719 C1702 0.932 . S
C1720 C1721 1.264 . S
C1720 C1725 1.479 . S
C1720 C1730 1.465 . S
C1721 C1720 1.264 . S
C1721 C1723 1.339 . S
C1721 H1748 0.931 . S
C1722 C1723 1.395 . S
C1722 C1724 1.320 . S
C1723 C1721 1.339 . S
C1723 C1722 1.395 . S
C1723 H1749 0.929 . S
C1724 C1722 1.320 . S
C1724 C1725 1.405 . S
C1724 H1750 0.930 . S
C1725 C1720 1.479 . S
C1725 C1724 1.405 . S
C1725 H1751 0.931 . S
U1726 O1727 2.454 . S
U1726 O1728 2.458 . S
U1726 C1729 2.984 . S
U1726 C1730 2.847 . S
U1726 C1743 2.882 . S
U1726 O1744 2.441 . S
U1726 O1745 2.420 . S
U1726 O1746 2.455 . S
U1726 O1747 2.449 . S
O1727 U1726 2.454 . S
O1727 C1729 1.353 . S
O1728 U1726 2.458 . S
O1728 C1729 1.286 . S
C1729 U1726 2.984 . S
C1729 O1727 1.353 . S
C1729 O1728 1.286 . S
C1729 C1731 1.363 . S
C1730 C1720 1.465 . S
C1730 U1726 2.847 . S
C1730 O1744 1.249 . S
C1730 O1745 1.202 . S
C1731 C1729 1.363 . S
C1731 C1733 1.408 . S
C1731 C1736 1.342 . S
C1732 C1733 1.310 . S
C1732 C1735 1.461 . S
C1732 H1752 0.932 . S
C1733 C1731 1.408 . S
C1733 C1732 1.310 . S
C1733 H1753 0.930 . S
C1734 C1735 1.474 . S
C1734 C1736 1.285 . S
C1734 H1754 0.929 . S
C1735 C1732 1.461 . S
C1735 C1734 1.474 . S
C1736 C1731 1.342 . S
C1736 C1734 1.285 . S
C1736 H1755 0.930 . S
C1737 C1740 1.424 . S
C1737 C1742 1.245 . S
C1737 C1743 1.428 . S
C1738 C1741 1.260 . S
C1738 C1742 1.477 . S
C1738 H1756 0.932 . S
C1739 C1740 1.384 . S
C1739 C1741 1.479 . S
C1739 H1757 0.929 . S
C1740 C1737 1.424 . S
C1740 C1739 1.384 . S
C1740 H1758 0.928 . S
C1741 C1738 1.260 . S
C1741 C1739 1.479 . S
C1742 C1737 1.245 . S
C1742 C1738 1.477 . S
C1742 H1759 0.932 . S
C1743 U1726 2.882 . S
C1743 C1737 1.428 . S
C1743 O1746 1.301 . S
C1743 O1747 1.282 . S
O1744 U1726 2.441 . S
O1744 C1730 1.249 . S
O1745 U1726 2.420 . S
O1745 C1730 1.202 . S
O1746 U1726 2.455 . S
O1746 C1743 1.301 . S
O1747 U1726 2.449 . S
O1747 C1743 1.282 . S
H1748 C1721 0.931 . S
H1749 C1723 0.929 . S
H1750 C1724 0.930 . S
H1751 C1725 0.931 . S
H1752 C1732 0.932 . S
H1753 C1733 0.930 . S
H1754 C1734 0.929 . S
H1755 C1736 0.930 . S
H1756 C1738 0.932 . S
H1757 C1739 0.929 . S
H1758 C1740 0.928 . S
H1759 C1742 0.932 . S
C1760 C1761 1.264 . S
C1760 C1765 1.479 . S
C1760 C1770 1.465 . S
C1761 C1760 1.264 . S
C1761 C1763 1.339 . S
C1761 H1788 0.931 . S
C1762 C1763 1.395 . S
C1762 C1764 1.320 . S
C1763 C1761 1.339 . S
C1763 C1762 1.395 . S
C1763 H1789 0.929 . S
C1764 C1762 1.320 . S
C1764 C1765 1.405 . S
C1764 H1790 0.930 . S
C1765 C1760 1.479 . S
C1765 C1764 1.405 . S
C1765 H1791 0.931 . S
U1766 O1767 2.454 . S
U1766 O1768 2.458 . S
U1766 C1769 2.984 . S
U1766 C1770 2.847 . S
U1766 C1783 2.882 . S
U1766 O1784 2.441 . S
U1766 O1785 2.420 . S
U1766 O1786 2.455 . S
U1766 O1787 2.449 . S
O1767 U1766 2.454 . S
O1767 C1769 1.353 . S
O1768 U1766 2.458 . S
O1768 C1769 1.286 . S
C1769 U1766 2.984 . S
C1769 O1767 1.353 . S
C1769 O1768 1.286 . S
C1769 C1771 1.363 . S
C1770 C1760 1.465 . S
C1770 U1766 2.847 . S
C1770 O1784 1.249 . S
C1770 O1785 1.202 . S
C1771 C1769 1.363 . S
C1771 C1773 1.408 . S
C1771 C1776 1.342 . S
C1772 C1773 1.310 . S
C1772 C1775 1.461 . S
C1772 H1792 0.932 . S
C1773 C1771 1.408 . S
C1773 C1772 1.310 . S
C1773 H1793 0.930 . S
C1774 C1775 1.474 . S
C1774 C1776 1.285 . S
C1774 H1794 0.929 . S
C1775 C1772 1.461 . S
C1775 C1774 1.474 . S
C1776 C1771 1.342 . S
C1776 C1774 1.285 . S
C1776 H1795 0.930 . S
C1777 C1780 1.424 . S
C1777 C1782 1.245 . S
C1777 C1783 1.428 . S
C1778 C1781 1.260 . S
C1778 C1782 1.477 . S
C1778 H1796 0.932 . S
C1779 C1780 1.384 . S
C1779 C1781 1.479 . S
C1779 H1797 0.929 . S
C1780 C1777 1.424 . S
C1780 C1779 1.384 . S
C1780 H1798 0.928 . S
C1781 C1778 1.260 . S
C1781 C1779 1.479 . S
C1782 C1777 1.245 . S
C1782 C1778 1.477 . S
C1782 H1799 0.932 . S
C1783 U1766 2.882 . S
C1783 C1777 1.428 . S
C1783 O1786 1.301 . S
C1783 O1787 1.282 . S
O1784 U1766 2.441 . S
O1784 C1770 1.249 . S
O1785 U1766 2.420 . S
O1785 C1770 1.202 . S
O1786 U1766 2.455 . S
O1786 C1783 1.301 . S
O1787 U1766 2.449 . S
O1787 C1783 1.282 . S
H1788 C1761 0.931 . S
H1789 C1763 0.929 . S
H1790 C1764 0.930 . S
H1791 C1765 0.931 . S
H1792 C1772 0.932 . S
H1793 C1773 0.930 . S
H1794 C1774 0.929 . S
H1795 C1776 0.930 . S
H1796 C1778 0.932 . S
H1797 C1779 0.929 . S
H1798 C1780 0.928 . S
H1799 C1782 0.932 . S
C1800 C1801 1.264 . S
C1800 C1805 1.479 . S
C1800 C1810 1.465 . S
C1801 C1800 1.264 . S
C1801 C1803 1.339 . S
C1801 H1828 0.931 . S
C1802 C1803 1.395 . S
C1802 C1804 1.320 . S
C1803 C1801 1.339 . S
C1803 C1802 1.395 . S
C1803 H1829 0.929 . S
C1804 C1802 1.320 . S
C1804 C1805 1.405 . S
C1804 H1830 0.930 . S
C1805 C1800 1.479 . S
C1805 C1804 1.405 . S
C1805 H1831 0.931 . S
U1806 O1807 2.454 . S
U1806 O1808 2.458 . S
U1806 C1809 2.984 . S
U1806 C1810 2.847 . S
U1806 C1823 2.882 . S
U1806 O1824 2.441 . S
U1806 O1825 2.420 . S
U1806 O1826 2.455 . S
U1806 O1827 2.449 . S
O1807 U1806 2.454 . S
O1807 C1809 1.353 . S
O1808 U1806 2.458 . S
O1808 C1809 1.286 . S
C1809 U1806 2.984 . S
C1809 O1807 1.353 . S
C1809 O1808 1.286 . S
C1809 C1811 1.363 . S
C1810 C1800 1.465 . S
C1810 U1806 2.847 . S
C1810 O1824 1.249 . S
C1810 O1825 1.202 . S
C1811 C1809 1.363 . S
C1811 C1813 1.408 . S
C1811 C1816 1.342 . S
C1812 C1813 1.310 . S
C1812 C1815 1.461 . S
C1812 H1832 0.932 . S
C1813 C1811 1.408 . S
C1813 C1812 1.310 . S
C1813 H1833 0.930 . S
C1814 C1815 1.474 . S
C1814 C1816 1.285 . S
C1814 H1834 0.929 . S
C1815 C1812 1.461 . S
C1815 C1814 1.474 . S
C1816 C1811 1.342 . S
C1816 C1814 1.285 . S
C1816 H1835 0.930 . S
C1817 C1820 1.424 . S
C1817 C1822 1.245 . S
C1817 C1823 1.428 . S
C1818 C1821 1.260 . S
C1818 C1822 1.477 . S
C1818 H1836 0.932 . S
C1819 C1820 1.384 . S
C1819 C1821 1.479 . S
C1819 H1837 0.929 . S
C1820 C1817 1.424 . S
C1820 C1819 1.384 . S
C1820 H1838 0.928 . S
C1821 C1818 1.260 . S
C1821 C1819 1.479 . S
C1822 C1817 1.245 . S
C1822 C1818 1.477 . S
C1822 H1839 0.932 . S
C1823 U1806 2.882 . S
C1823 C1817 1.428 . S
C1823 O1826 1.301 . S
C1823 O1827 1.282 . S
O1824 U1806 2.441 . S
O1824 C1810 1.249 . S
O1825 U1806 2.420 . S
O1825 C1810 1.202 . S
O1826 U1806 2.455 . S
O1826 C1823 1.301 . S
O1827 U1806 2.449 . S
O1827 C1823 1.282 . S
H1828 C1801 0.931 . S
H1829 C1803 0.929 . S
H1830 C1804 0.930 . S
H1831 C1805 0.931 . S
H1832 C1812 0.932 . S
H1833 C1813 0.930 . S
H1834 C1814 0.929 . S
H1835 C1816 0.930 . S
H1836 C1818 0.932 . S
H1837 C1819 0.929 . S
H1838 C1820 0.928 . S
H1839 C1822 0.932 . S
C1840 C1841 1.264 . S
C1840 C1845 1.479 . S
C1840 C1850 1.465 . S
C1841 C1840 1.264 . S
C1841 C1843 1.339 . S
C1841 H1868 0.931 . S
C1842 C1843 1.395 . S
C1842 C1844 1.320 . S
C1843 C1841 1.339 . S
C1843 C1842 1.395 . S
C1843 H1869 0.929 . S
C1844 C1842 1.320 . S
C1844 C1845 1.405 . S
C1844 H1870 0.930 . S
C1845 C1840 1.479 . S
C1845 C1844 1.405 . S
C1845 H1871 0.931 . S
U1846 O1847 2.454 . S
U1846 O1848 2.458 . S
U1846 C1849 2.984 . S
U1846 C1850 2.847 . S
U1846 C1863 2.882 . S
U1846 O1864 2.441 . S
U1846 O1865 2.420 . S
U1846 O1866 2.455 . S
U1846 O1867 2.449 . S
O1847 U1846 2.454 . S
O1847 C1849 1.353 . S
O1848 U1846 2.458 . S
O1848 C1849 1.286 . S
C1849 U1846 2.984 . S
C1849 O1847 1.353 . S
C1849 O1848 1.286 . S
C1849 C1851 1.363 . S
C1850 C1840 1.465 . S
C1850 U1846 2.847 . S
C1850 O1864 1.249 . S
C1850 O1865 1.202 . S
C1851 C1849 1.363 . S
C1851 C1853 1.408 . S
C1851 C1856 1.342 . S
C1852 C1853 1.310 . S
C1852 C1855 1.461 . S
C1852 H1872 0.932 . S
C1853 C1851 1.408 . S
C1853 C1852 1.310 . S
C1853 H1873 0.930 . S
C1854 C1855 1.474 . S
C1854 C1856 1.285 . S
C1854 H1874 0.929 . S
C1855 C1852 1.461 . S
C1855 C1854 1.474 . S
C1856 C1851 1.342 . S
C1856 C1854 1.285 . S
C1856 H1875 0.930 . S
C1857 C1860 1.424 . S
C1857 C1862 1.245 . S
C1857 C1863 1.428 . S
C1858 C1861 1.260 . S
C1858 C1862 1.477 . S
C1858 H1876 0.932 . S
C1859 C1860 1.384 . S
C1859 C1861 1.479 . S
C1859 H1877 0.929 . S
C1860 C1857 1.424 . S
C1860 C1859 1.384 . S
C1860 H1878 0.928 . S
C1861 C1858 1.260 . S
C1861 C1859 1.479 . S
C1862 C1857 1.245 . S
C1862 C1858 1.477 . S
C1862 H1879 0.932 . S
C1863 U1846 2.882 . S
C1863 C1857 1.428 . S
C1863 O1866 1.301 . S
C1863 O1867 1.282 . S
O1864 U1846 2.441 . S
O1864 C1850 1.249 . S
O1865 U1846 2.420 . S
O1865 C1850 1.202 . S
O1866 U1846 2.455 . S
O1866 C1863 1.301 . S
O1867 U1846 2.449 . S
O1867 C1863 1.282 . S
H1868 C1841 0.931 . S
H1869 C1843 0.929 . S
H1870 C1844 0.930 . S
H1871 C1845 0.931 . S
H1872 C1852 0.932 . S
H1873 C1853 0.930 . S
H1874 C1854 0.929 . S
H1875 C1856 0.930 . S
H1876 C1858 0.932 . S
H1877 C1859 0.929 . S
H1878 C1860 0.928 . S
H1879 C1862 0.932 . S
C1880 C1881 1.264 . S
C1880 C1885 1.479 . S
C1880 C1890 1.465 . S
C1881 C1880 1.264 . S
C1881 C1883 1.339 . S
C1881 H1908 0.931 . S
C1882 C1883 1.395 . S
C1882 C1884 1.320 . S
C1883 C1881 1.339 . S
C1883 C1882 1.395 . S
C1883 H1909 0.929 . S
C1884 C1882 1.320 . S
C1884 C1885 1.405 . S
C1884 H1910 0.930 . S
C1885 C1880 1.479 . S
C1885 C1884 1.405 . S
C1885 H1911 0.931 . S
U1886 O1887 2.454 . S
U1886 O1888 2.458 . S
U1886 C1889 2.984 . S
U1886 C1890 2.847 . S
U1886 C1903 2.882 . S
U1886 O1904 2.441 . S
U1886 O1905 2.420 . S
U1886 O1906 2.455 . S
U1886 O1907 2.449 . S
O1887 U1886 2.454 . S
O1887 C1889 1.353 . S
O1888 U1886 2.458 . S
O1888 C1889 1.286 . S
C1889 U1886 2.984 . S
C1889 O1887 1.353 . S
C1889 O1888 1.286 . S
C1889 C1891 1.363 . S
C1890 C1880 1.465 . S
C1890 U1886 2.847 . S
C1890 O1904 1.249 . S
C1890 O1905 1.202 . S
C1891 C1889 1.363 . S
C1891 C1893 1.408 . S
C1891 C1896 1.342 . S
C1892 C1893 1.310 . S
C1892 C1895 1.461 . S
C1892 H1912 0.932 . S
C1893 C1891 1.408 . S
C1893 C1892 1.310 . S
C1893 H1913 0.930 . S
C1894 C1895 1.474 . S
C1894 C1896 1.285 . S
C1894 H1914 0.929 . S
C1895 C1892 1.461 . S
C1895 C1894 1.474 . S
C1896 C1891 1.342 . S
C1896 C1894 1.285 . S
C1896 H1915 0.930 . S
C1897 C1900 1.424 . S
C1897 C1902 1.245 . S
C1897 C1903 1.428 . S
C1898 C1901 1.260 . S
C1898 C1902 1.477 . S
C1898 H1916 0.932 . S
C1899 C1900 1.384 . S
C1899 C1901 1.479 . S
C1899 H1917 0.929 . S
C1900 C1897 1.424 . S
C1900 C1899 1.384 . S
C1900 H1918 0.928 . S
C1901 C1898 1.260 . S
C1901 C1899 1.479 . S
C1902 C1897 1.245 . S
C1902 C1898 1.477 . S
C1902 H1919 0.932 . S
C1903 U1886 2.882 . S
C1903 C1897 1.428 . S
C1903 O1906 1.301 . S
C1903 O1907 1.282 . S
O1904 U1886 2.441 . S
O1904 C1890 1.249 . S
O1905 U1886 2.420 . S
O1905 C1890 1.202 . S
O1906 U1886 2.455 . S
O1906 C1903 1.301 . S
O1907 U1886 2.449 . S
O1907 C1903 1.282 . S
H1908 C1881 0.931 . S
H1909 C1883 0.929 . S
H1910 C1884 0.930 . S
H1911 C1885 0.931 . S
H1912 C1892 0.932 . S
H1913 C1893 0.930 . S
H1914 C1894 0.929 . S
H1915 C1896 0.930 . S
H1916 C1898 0.932 . S
H1917 C1899 0.929 . S
H1918 C1900 0.928 . S
H1919 C1902 0.932 . S
H1920 C1925 0.930 . S
H1921 C1928 0.930 . S
H1922 C1930 0.930 . S
H1923 C1924 1.016 . S
C1924 H1923 1.016 . S
C1924 N1931 1.286 . S
C1925 H1920 0.930 . S
C1925 C1926 1.397 . S
C1925 C1927 1.361 . S
C1926 C1925 1.397 . S
C1926 C1930 1.390 . S
C1927 C1925 1.361 . S
C1927 C1928 1.393 . S
C1927 N1931 1.413 . S
C1928 H1921 0.930 . S
C1928 C1927 1.393 . S
C1928 C1929 1.399 . S
C1929 C1928 1.399 . S
C1929 C1930 1.381 . S
C1930 H1922 0.930 . S
C1930 C1926 1.390 . S
C1930 C1929 1.381 . S
N1931 C1924 1.286 . S
N1931 C1927 1.413 . S
H1932 C1937 0.930 . S
H1933 C1940 0.930 . S
H1934 C1942 0.930 . S
H1935 C1936 1.016 . S
C1936 H1935 1.016 . S
C1936 N1943 1.286 . S
C1937 H1932 0.930 . S
C1937 C1938 1.397 . S
C1937 C1939 1.361 . S
C1938 C1937 1.397 . S
C1938 C1942 1.390 . S
C1939 C1937 1.361 . S
C1939 C1940 1.393 . S
C1939 N1943 1.413 . S
C1940 H1933 0.930 . S
C1940 C1939 1.393 . S
C1940 C1941 1.399 . S
C1941 C1940 1.399 . S
C1941 C1942 1.381 . S
C1942 H1934 0.930 . S
C1942 C1938 1.390 . S
C1942 C1941 1.381 . S
N1943 C1936 1.286 . S
N1943 C1939 1.413 . S
H1944 C1949 0.930 . S
H1945 C1952 0.930 . S
H1946 C1954 0.930 . S
H1947 C1948 1.016 . S
C1948 H1947 1.016 . S
C1948 N1955 1.286 . S
C1949 H1944 0.930 . S
C1949 C1950 1.397 . S
C1949 C1951 1.361 . S
C1950 C1949 1.397 . S
C1950 C1954 1.390 . S
C1951 C1949 1.361 . S
C1951 C1952 1.393 . S
C1951 N1955 1.413 . S
C1952 H1945 0.930 . S
C1952 C1951 1.393 . S
C1952 C1953 1.399 . S
C1953 C1952 1.399 . S
C1953 C1954 1.381 . S
C1954 H1946 0.930 . S
C1954 C1950 1.390 . S
C1954 C1953 1.381 . S
N1955 C1948 1.286 . S
N1955 C1951 1.413 . S
H1956 C1961 0.930 . S
H1957 C1964 0.930 . S
H1958 C1966 0.930 . S
H1959 C1960 1.016 . S
C1960 H1959 1.016 . S
C1960 N1967 1.286 . S
C1961 H1956 0.930 . S
C1961 C1962 1.397 . S
C1961 C1963 1.361 . S
C1962 C1961 1.397 . S
C1962 C1966 1.390 . S
C1963 C1961 1.361 . S
C1963 C1964 1.393 . S
C1963 N1967 1.413 . S
C1964 H1957 0.930 . S
C1964 C1963 1.393 . S
C1964 C1965 1.399 . S
C1965 C1964 1.399 . S
C1965 C1966 1.381 . S
C1966 H1958 0.930 . S
C1966 C1962 1.390 . S
C1966 C1965 1.381 . S
N1967 C1960 1.286 . S
N1967 C1963 1.413 . S
H1968 C1973 0.930 . S
H1969 C1976 0.930 . S
H1970 C1978 0.930 . S
H1971 C1972 1.016 . S
C1972 H1971 1.016 . S
C1972 N1979 1.286 . S
C1973 H1968 0.930 . S
C1973 C1974 1.397 . S
C1973 C1975 1.361 . S
C1974 C1973 1.397 . S
C1974 C1978 1.390 . S
C1975 C1973 1.361 . S
C1975 C1976 1.393 . S
C1975 N1979 1.413 . S
C1976 H1969 0.930 . S
C1976 C1975 1.393 . S
C1976 C1977 1.399 . S
C1977 C1976 1.399 . S
C1977 C1978 1.381 . S
C1978 H1970 0.930 . S
C1978 C1974 1.390 . S
C1978 C1977 1.381 . S
N1979 C1972 1.286 . S
N1979 C1975 1.413 . S
H1980 C1985 0.930 . S
H1981 C1988 0.930 . S
H1982 C1990 0.930 . S
H1983 C1984 1.016 . S
C1984 H1983 1.016 . S
C1984 N1991 1.286 . S
C1985 H1980 0.930 . S
C1985 C1986 1.397 . S
C1985 C1987 1.361 . S
C1986 C1985 1.397 . S
C1986 C1990 1.390 . S
C1987 C1985 1.361 . S
C1987 C1988 1.393 . S
C1987 N1991 1.413 . S
C1988 H1981 0.930 . S
C1988 C1987 1.393 . S
C1988 C1989 1.399 . S
C1989 C1988 1.399 . S
C1989 C1990 1.381 . S
C1990 H1982 0.930 . S
C1990 C1986 1.390 . S
C1990 C1989 1.381 . S
N1991 C1984 1.286 . S
N1991 C1987 1.413 . S
H1992 C1997 0.930 . S
H1993 C2000 0.930 . S
H1994 C2002 0.930 . S
H1995 C1996 1.016 . S
C1996 H1995 1.016 . S
C1996 N2003 1.286 . S
C1997 H1992 0.930 . S
C1997 C1998 1.397 . S
C1997 C1999 1.361 . S
C1998 C1997 1.397 . S
C1998 C2002 1.390 . S
C1999 C1997 1.361 . S
C1999 C2000 1.393 . S
C1999 N2003 1.413 . S
C2000 H1993 0.930 . S
C2000 C1999 1.393 . S
C2000 C2001 1.399 . S
C2001 C2000 1.399 . S
C2001 C2002 1.381 . S
C2002 H1994 0.930 . S
C2002 C1998 1.390 . S
C2002 C2001 1.381 . S
N2003 C1996 1.286 . S
N2003 C1999 1.413 . S
H2004 C2009 0.930 . S
H2005 C2012 0.930 . S
H2006 C2014 0.930 . S
H2007 C2008 1.016 . S
C2008 H2007 1.016 . S
C2008 N2015 1.286 . S
C2009 H2004 0.930 . S
C2009 C2010 1.397 . S
C2009 C2011 1.361 . S
C2010 C2009 1.397 . S
C2010 C2014 1.390 . S
C2011 C2009 1.361 . S
C2011 C2012 1.393 . S
C2011 N2015 1.413 . S
C2012 H2005 0.930 . S
C2012 C2011 1.393 . S
C2012 C2013 1.399 . S
C2013 C2012 1.399 . S
C2013 C2014 1.381 . S
C2014 H2006 0.930 . S
C2014 C2010 1.390 . S
C2014 C2013 1.381 . S
N2015 C2008 1.286 . S
N2015 C2011 1.413 . S
H2016 C2021 0.930 . S
H2017 C2024 0.930 . S
H2018 C2026 0.930 . S
H2019 C2020 1.016 . S
C2020 H2019 1.016 . S
C2020 N2027 1.286 . S
C2021 H2016 0.930 . S
C2021 C2022 1.397 . S
C2021 C2023 1.361 . S
C2022 C2021 1.397 . S
C2022 C2026 1.390 . S
C2023 C2021 1.361 . S
C2023 C2024 1.393 . S
C2023 N2027 1.413 . S
C2024 H2017 0.930 . S
C2024 C2023 1.393 . S
C2024 C2025 1.399 . S
C2025 C2024 1.399 . S
C2025 C2026 1.381 . S
C2026 H2018 0.930 . S
C2026 C2022 1.390 . S
C2026 C2025 1.381 . S
N2027 C2020 1.286 . S
N2027 C2023 1.413 . S
H2028 C2033 0.930 . S
H2029 C2036 0.930 . S
H2030 C2038 0.930 . S
H2031 C2032 1.016 . S
C2032 H2031 1.016 . S
C2032 N2039 1.286 . S
C2033 H2028 0.930 . S
C2033 C2034 1.397 . S
C2033 C2035 1.361 . S
C2034 C2033 1.397 . S
C2034 C2038 1.390 . S
C2035 C2033 1.361 . S
C2035 C2036 1.393 . S
C2035 N2039 1.413 . S
C2036 H2029 0.930 . S
C2036 C2035 1.393 . S
C2036 C2037 1.399 . S
C2037 C2036 1.399 . S
C2037 C2038 1.381 . S
C2038 H2030 0.930 . S
C2038 C2034 1.390 . S
C2038 C2037 1.381 . S
N2039 C2032 1.286 . S
N2039 C2035 1.413 . S
H2040 C2045 0.930 . S
H2041 C2048 0.930 . S
H2042 C2050 0.930 . S
H2043 C2044 1.016 . S
C2044 H2043 1.016 . S
C2044 N2051 1.286 . S
C2045 H2040 0.930 . S
C2045 C2046 1.397 . S
C2045 C2047 1.361 . S
C2046 C2045 1.397 . S
C2046 C2050 1.390 . S
C2047 C2045 1.361 . S
C2047 C2048 1.393 . S
C2047 N2051 1.413 . S
C2048 H2041 0.930 . S
C2048 C2047 1.393 . S
C2048 C2049 1.399 . S
C2049 C2048 1.399 . S
C2049 C2050 1.381 . S
C2050 H2042 0.930 . S
C2050 C2046 1.390 . S
C2050 C2049 1.381 . S
N2051 C2044 1.286 . S
N2051 C2047 1.413 . S
H2052 C2057 0.930 . S
H2053 C2060 0.930 . S
H2054 C2062 0.930 . S
H2055 C2056 1.016 . S
C2056 H2055 1.016 . S
C2056 N2063 1.286 . S
C2057 H2052 0.930 . S
C2057 C2058 1.397 . S
C2057 C2059 1.361 . S
C2058 C2057 1.397 . S
C2058 C2062 1.390 . S
C2059 C2057 1.361 . S
C2059 C2060 1.393 . S
C2059 N2063 1.413 . S
C2060 H2053 0.930 . S
C2060 C2059 1.393 . S
C2060 C2061 1.399 . S
C2061 C2060 1.399 . S
C2061 C2062 1.381 . S
C2062 H2054 0.930 . S
C2062 C2058 1.390 . S
C2062 C2061 1.381 . S
N2063 C2056 1.286 . S
N2063 C2059 1.413 . S
H2064 C2069 0.930 . S
H2065 C2072 0.930 . S
H2066 C2074 0.930 . S
H2067 C2068 1.016 . S
C2068 H2067 1.016 . S
C2068 N2075 1.286 . S
C2069 H2064 0.930 . S
C2069 C2070 1.397 . S
C2069 C2071 1.361 . S
C2070 C2069 1.397 . S
C2070 C2074 1.390 . S
C2071 C2069 1.361 . S
C2071 C2072 1.393 . S
C2071 N2075 1.413 . S
C2072 H2065 0.930 . S
C2072 C2071 1.393 . S
C2072 C2073 1.399 . S
C2073 C2072 1.399 . S
C2073 C2074 1.381 . S
C2074 H2066 0.930 . S
C2074 C2070 1.390 . S
C2074 C2073 1.381 . S
N2075 C2068 1.286 . S
N2075 C2071 1.413 . S
H2076 C2081 0.930 . S
H2077 C2084 0.930 . S
H2078 C2086 0.930 . S
H2079 C2080 1.016 . S
C2080 H2079 1.016 . S
C2080 N2087 1.286 . S
C2081 H2076 0.930 . S
C2081 C2082 1.397 . S
C2081 C2083 1.361 . S
C2082 C2081 1.397 . S
C2082 C2086 1.390 . S
C2083 C2081 1.361 . S
C2083 C2084 1.393 . S
C2083 N2087 1.413 . S
C2084 H2077 0.930 . S
C2084 C2083 1.393 . S
C2084 C2085 1.399 . S
C2085 C2084 1.399 . S
C2085 C2086 1.381 . S
C2086 H2078 0.930 . S
C2086 C2082 1.390 . S
C2086 C2085 1.381 . S
N2087 C2080 1.286 . S
N2087 C2083 1.413 . S
H2088 C2093 0.930 . S
H2089 C2096 0.930 . S
H2090 C2098 0.930 . S
H2091 C2092 1.016 . S
C2092 H2091 1.016 . S
C2092 N2099 1.286 . S
C2093 H2088 0.930 . S
C2093 C2094 1.397 . S
C2093 C2095 1.361 . S
C2094 C2093 1.397 . S
C2094 C2098 1.390 . S
C2095 C2093 1.361 . S
C2095 C2096 1.393 . S
C2095 N2099 1.413 . S
C2096 H2089 0.930 . S
C2096 C2095 1.393 . S
C2096 C2097 1.399 . S
C2097 C2096 1.399 . S
C2097 C2098 1.381 . S
C2098 H2090 0.930 . S
C2098 C2094 1.390 . S
C2098 C2097 1.381 . S
N2099 C2092 1.286 . S
N2099 C2095 1.413 . S
H2100 C2105 0.930 . S
H2101 C2108 0.930 . S
H2102 C2110 0.930 . S
H2103 C2104 1.016 . S
C2104 H2103 1.016 . S
C2104 N2111 1.286 . S
C2105 H2100 0.930 . S
C2105 C2106 1.397 . S
C2105 C2107 1.361 . S
C2106 C2105 1.397 . S
C2106 C2110 1.390 . S
C2107 C2105 1.361 . S
C2107 C2108 1.393 . S
C2107 N2111 1.413 . S
C2108 H2101 0.930 . S
C2108 C2107 1.393 . S
C2108 C2109 1.399 . S
C2109 C2108 1.399 . S
C2109 C2110 1.381 . S
C2110 H2102 0.930 . S
C2110 C2106 1.390 . S
C2110 C2109 1.381 . S
N2111 C2104 1.286 . S
N2111 C2107 1.413 . S
H2112 C2117 0.930 . S
H2113 C2120 0.930 . S
H2114 C2122 0.930 . S
H2115 C2116 1.016 . S
C2116 H2115 1.016 . S
C2116 N2123 1.286 . S
C2117 H2112 0.930 . S
C2117 C2118 1.397 . S
C2117 C2119 1.361 . S
C2118 C2117 1.397 . S
C2118 C2122 1.390 . S
C2119 C2117 1.361 . S
C2119 C2120 1.393 . S
C2119 N2123 1.413 . S
C2120 H2113 0.930 . S
C2120 C2119 1.393 . S
C2120 C2121 1.399 . S
C2121 C2120 1.399 . S
C2121 C2122 1.381 . S
C2122 H2114 0.930 . S
C2122 C2118 1.390 . S
C2122 C2121 1.381 . S
N2123 C2116 1.286 . S
N2123 C2119 1.413 . S
H2124 C2129 0.930 . S
H2125 C2132 0.930 . S
H2126 C2134 0.930 . S
H2127 C2128 1.016 . S
C2128 H2127 1.016 . S
C2128 N2135 1.286 . S
C2129 H2124 0.930 . S
C2129 C2130 1.397 . S
C2129 C2131 1.361 . S
C2130 C2129 1.397 . S
C2130 C2134 1.390 . S
C2131 C2129 1.361 . S
C2131 C2132 1.393 . S
C2131 N2135 1.413 . S
C2132 H2125 0.930 . S
C2132 C2131 1.393 . S
C2132 C2133 1.399 . S
C2133 C2132 1.399 . S
C2133 C2134 1.381 . S
C2134 H2126 0.930 . S
C2134 C2130 1.390 . S
C2134 C2133 1.381 . S
N2135 C2128 1.286 . S
N2135 C2131 1.413 . S
H2136 C2141 0.930 . S
H2137 C2144 0.930 . S
H2138 C2146 0.930 . S
H2139 C2140 1.016 . S
C2140 H2139 1.016 . S
C2140 N2147 1.286 . S
C2141 H2136 0.930 . S
C2141 C2142 1.397 . S
C2141 C2143 1.361 . S
C2142 C2141 1.397 . S
C2142 C2146 1.390 . S
C2143 C2141 1.361 . S
C2143 C2144 1.393 . S
C2143 N2147 1.413 . S
C2144 H2137 0.930 . S
C2144 C2143 1.393 . S
C2144 C2145 1.399 . S
C2145 C2144 1.399 . S
C2145 C2146 1.381 . S
C2146 H2138 0.930 . S
C2146 C2142 1.390 . S
C2146 C2145 1.381 . S
N2147 C2140 1.286 . S
N2147 C2143 1.413 . S
H2148 C2153 0.930 . S
H2149 C2156 0.930 . S
H2150 C2158 0.930 . S
H2151 C2152 1.016 . S
C2152 H2151 1.016 . S
C2152 N2159 1.286 . S
C2153 H2148 0.930 . S
C2153 C2154 1.397 . S
C2153 C2155 1.361 . S
C2154 C2153 1.397 . S
C2154 C2158 1.390 . S
C2155 C2153 1.361 . S
C2155 C2156 1.393 . S
C2155 N2159 1.413 . S
C2156 H2149 0.930 . S
C2156 C2155 1.393 . S
C2156 C2157 1.399 . S
C2157 C2156 1.399 . S
C2157 C2158 1.381 . S
C2158 H2150 0.930 . S
C2158 C2154 1.390 . S
C2158 C2157 1.381 . S
N2159 C2152 1.286 . S
N2159 C2155 1.413 . S
H2160 C2165 0.930 . S
H2161 C2168 0.930 . S
H2162 C2170 0.930 . S
H2163 C2164 1.016 . S
C2164 H2163 1.016 . S
C2164 N2171 1.286 . S
C2165 H2160 0.930 . S
C2165 C2166 1.397 . S
C2165 C2167 1.361 . S
C2166 C2165 1.397 . S
C2166 C2170 1.390 . S
C2167 C2165 1.361 . S
C2167 C2168 1.393 . S
C2167 N2171 1.413 . S
C2168 H2161 0.930 . S
C2168 C2167 1.393 . S
C2168 C2169 1.399 . S
C2169 C2168 1.399 . S
C2169 C2170 1.381 . S
C2170 H2162 0.930 . S
C2170 C2166 1.390 . S
C2170 C2169 1.381 . S
N2171 C2164 1.286 . S
N2171 C2167 1.413 . S
H2172 C2177 0.930 . S
H2173 C2180 0.930 . S
H2174 C2182 0.930 . S
H2175 C2176 1.016 . S
C2176 H2175 1.016 . S
C2176 N2183 1.286 . S
C2177 H2172 0.930 . S
C2177 C2178 1.397 . S
C2177 C2179 1.361 . S
C2178 C2177 1.397 . S
C2178 C2182 1.390 . S
C2179 C2177 1.361 . S
C2179 C2180 1.393 . S
C2179 N2183 1.413 . S
C2180 H2173 0.930 . S
C2180 C2179 1.393 . S
C2180 C2181 1.399 . S
C2181 C2180 1.399 . S
C2181 C2182 1.381 . S
C2182 H2174 0.930 . S
C2182 C2178 1.390 . S
C2182 C2181 1.381 . S
N2183 C2176 1.286 . S
N2183 C2179 1.413 . S
H2184 C2189 0.930 . S
H2185 C2192 0.930 . S
H2186 C2194 0.930 . S
H2187 C2188 1.016 . S
C2188 H2187 1.016 . S
C2188 N2195 1.286 . S
C2189 H2184 0.930 . S
C2189 C2190 1.397 . S
C2189 C2191 1.361 . S
C2190 C2189 1.397 . S
C2190 C2194 1.390 . S
C2191 C2189 1.361 . S
C2191 C2192 1.393 . S
C2191 N2195 1.413 . S
C2192 H2185 0.930 . S
C2192 C2191 1.393 . S
C2192 C2193 1.399 . S
C2193 C2192 1.399 . S
C2193 C2194 1.381 . S
C2194 H2186 0.930 . S
C2194 C2190 1.390 . S
C2194 C2193 1.381 . S
N2195 C2188 1.286 . S
N2195 C2191 1.413 . S
H2196 C2201 0.930 . S
H2197 C2204 0.930 . S
H2198 C2206 0.930 . S
H2199 C2200 1.016 . S
C2200 H2199 1.016 . S
C2200 N2207 1.286 . S
C2201 H2196 0.930 . S
C2201 C2202 1.397 . S
C2201 C2203 1.361 . S
C2202 C2201 1.397 . S
C2202 C2206 1.390 . S
C2203 C2201 1.361 . S
C2203 C2204 1.393 . S
C2203 N2207 1.413 . S
C2204 H2197 0.930 . S
C2204 C2203 1.393 . S
C2204 C2205 1.399 . S
C2205 C2204 1.399 . S
C2205 C2206 1.381 . S
C2206 H2198 0.930 . S
C2206 C2202 1.390 . S
C2206 C2205 1.381 . S
N2207 C2200 1.286 . S
N2207 C2203 1.413 . S
H2208 C2213 0.930 . S
H2209 C2216 0.930 . S
H2210 C2218 0.930 . S
H2211 C2212 1.016 . S
C2212 H2211 1.016 . S
C2212 N2219 1.286 . S
C2213 H2208 0.930 . S
C2213 C2214 1.397 . S
C2213 C2215 1.361 . S
C2214 C2213 1.397 . S
C2214 C2218 1.390 . S
C2215 C2213 1.361 . S
C2215 C2216 1.393 . S
C2215 N2219 1.413 . S
C2216 H2209 0.930 . S
C2216 C2215 1.393 . S
C2216 C2217 1.399 . S
C2217 C2216 1.399 . S
C2217 C2218 1.381 . S
C2218 H2210 0.930 . S
C2218 C2214 1.390 . S
C2218 C2217 1.381 . S
N2219 C2212 1.286 . S
N2219 C2215 1.413 . S
H2220 C2225 0.930 . S
H2221 C2228 0.930 . S
H2222 C2230 0.930 . S
H2223 C2224 1.016 . S
C2224 H2223 1.016 . S
C2224 N2231 1.286 . S
C2225 H2220 0.930 . S
C2225 C2226 1.397 . S
C2225 C2227 1.361 . S
C2226 C2225 1.397 . S
C2226 C2230 1.390 . S
C2227 C2225 1.361 . S
C2227 C2228 1.393 . S
C2227 N2231 1.413 . S
C2228 H2221 0.930 . S
C2228 C2227 1.393 . S
C2228 C2229 1.399 . S
C2229 C2228 1.399 . S
C2229 C2230 1.381 . S
C2230 H2222 0.930 . S
C2230 C2226 1.390 . S
C2230 C2229 1.381 . S
N2231 C2224 1.286 . S
N2231 C2227 1.413 . S
H2232 C2237 0.930 . S
H2233 C2240 0.930 . S
H2234 C2242 0.930 . S
H2235 C2236 1.016 . S
C2236 H2235 1.016 . S
C2236 N2243 1.286 . S
C2237 H2232 0.930 . S
C2237 C2238 1.397 . S
C2237 C2239 1.361 . S
C2238 C2237 1.397 . S
C2238 C2242 1.390 . S
C2239 C2237 1.361 . S
C2239 C2240 1.393 . S
C2239 N2243 1.413 . S
C2240 H2233 0.930 . S
C2240 C2239 1.393 . S
C2240 C2241 1.399 . S
C2241 C2240 1.399 . S
C2241 C2242 1.381 . S
C2242 H2234 0.930 . S
C2242 C2238 1.390 . S
C2242 C2241 1.381 . S
N2243 C2236 1.286 . S
N2243 C2239 1.413 . S
H2244 C2249 0.930 . S
H2245 C2252 0.930 . S
H2246 C2254 0.930 . S
H2247 C2248 1.016 . S
C2248 H2247 1.016 . S
C2248 N2255 1.286 . S
C2249 H2244 0.930 . S
C2249 C2250 1.397 . S
C2249 C2251 1.361 . S
C2250 C2249 1.397 . S
C2250 C2254 1.390 . S
C2251 C2249 1.361 . S
C2251 C2252 1.393 . S
C2251 N2255 1.413 . S
C2252 H2245 0.930 . S
C2252 C2251 1.393 . S
C2252 C2253 1.399 . S
C2253 C2252 1.399 . S
C2253 C2254 1.381 . S
C2254 H2246 0.930 . S
C2254 C2250 1.390 . S
C2254 C2253 1.381 . S
N2255 C2248 1.286 . S
N2255 C2251 1.413 . S
H2256 C2261 0.930 . S
H2257 C2264 0.930 . S
H2258 C2266 0.930 . S
H2259 C2260 1.016 . S
C2260 H2259 1.016 . S
C2260 N2267 1.286 . S
C2261 H2256 0.930 . S
C2261 C2262 1.397 . S
C2261 C2263 1.361 . S
C2262 C2261 1.397 . S
C2262 C2266 1.390 . S
C2263 C2261 1.361 . S
C2263 C2264 1.393 . S
C2263 N2267 1.413 . S
C2264 H2257 0.930 . S
C2264 C2263 1.393 . S
C2264 C2265 1.399 . S
C2265 C2264 1.399 . S
C2265 C2266 1.381 . S
C2266 H2258 0.930 . S
C2266 C2262 1.390 . S
C2266 C2265 1.381 . S
N2267 C2260 1.286 . S
N2267 C2263 1.413 . S
H2268 C2273 0.930 . S
H2269 C2276 0.930 . S
H2270 C2278 0.930 . S
H2271 C2272 1.016 . S
C2272 H2271 1.016 . S
C2272 N2279 1.286 . S
C2273 H2268 0.930 . S
C2273 C2274 1.397 . S
C2273 C2275 1.361 . S
C2274 C2273 1.397 . S
C2274 C2278 1.390 . S
C2275 C2273 1.361 . S
C2275 C2276 1.393 . S
C2275 N2279 1.413 . S
C2276 H2269 0.930 . S
C2276 C2275 1.393 . S
C2276 C2277 1.399 . S
C2277 C2276 1.399 . S
C2277 C2278 1.381 . S
C2278 H2270 0.930 . S
C2278 C2274 1.390 . S
C2278 C2277 1.381 . S
N2279 C2272 1.286 . S
N2279 C2275 1.413 . S
H2280 C2285 0.930 . S
H2281 C2288 0.930 . S
H2282 C2290 0.930 . S
H2283 C2284 1.016 . S
C2284 H2283 1.016 . S
C2284 N2291 1.286 . S
C2285 H2280 0.930 . S
C2285 C2286 1.397 . S
C2285 C2287 1.361 . S
C2286 C2285 1.397 . S
C2286 C2290 1.390 . S
C2287 C2285 1.361 . S
C2287 C2288 1.393 . S
C2287 N2291 1.413 . S
C2288 H2281 0.930 . S
C2288 C2287 1.393 . S
C2288 C2289 1.399 . S
C2289 C2288 1.399 . S
C2289 C2290 1.381 . S
C2290 H2282 0.930 . S
C2290 C2286 1.390 . S
C2290 C2289 1.381 . S
N2291 C2284 1.286 . S
N2291 C2287 1.413 . S
H2292 C2297 0.930 . S
H2293 C2300 0.930 . S
H2294 C2302 0.930 . S
H2295 C2296 1.016 . S
C2296 H2295 1.016 . S
C2296 N2303 1.286 . S
C2297 H2292 0.930 . S
C2297 C2298 1.397 . S
C2297 C2299 1.361 . S
C2298 C2297 1.397 . S
C2298 C2302 1.390 . S
C2299 C2297 1.361 . S
C2299 C2300 1.393 . S
C2299 N2303 1.413 . S
C2300 H2293 0.930 . S
C2300 C2299 1.393 . S
C2300 C2301 1.399 . S
C2301 C2300 1.399 . S
C2301 C2302 1.381 . S
C2302 H2294 0.930 . S
C2302 C2298 1.390 . S
C2302 C2301 1.381 . S
N2303 C2296 1.286 . S
N2303 C2299 1.413 . S
H2304 C2309 0.930 . S
H2305 C2312 0.930 . S
H2306 C2314 0.930 . S
H2307 C2308 1.016 . S
C2308 H2307 1.016 . S
C2308 N2315 1.286 . S
C2309 H2304 0.930 . S
C2309 C2310 1.397 . S
C2309 C2311 1.361 . S
C2310 C2309 1.397 . S
C2310 C2314 1.390 . S
C2311 C2309 1.361 . S
C2311 C2312 1.393 . S
C2311 N2315 1.413 . S
C2312 H2305 0.930 . S
C2312 C2311 1.393 . S
C2312 C2313 1.399 . S
C2313 C2312 1.399 . S
C2313 C2314 1.381 . S
C2314 H2306 0.930 . S
C2314 C2310 1.390 . S
C2314 C2313 1.381 . S
N2315 C2308 1.286 . S
N2315 C2311 1.413 . S
H2316 C2321 0.930 . S
H2317 C2324 0.930 . S
H2318 C2326 0.930 . S
H2319 C2320 1.016 . S
C2320 H2319 1.016 . S
C2320 N2327 1.286 . S
C2321 H2316 0.930 . S
C2321 C2322 1.397 . S
C2321 C2323 1.361 . S
C2322 C2321 1.397 . S
C2322 C2326 1.390 . S
C2323 C2321 1.361 . S
C2323 C2324 1.393 . S
C2323 N2327 1.413 . S
C2324 H2317 0.930 . S
C2324 C2323 1.393 . S
C2324 C2325 1.399 . S
C2325 C2324 1.399 . S
C2325 C2326 1.381 . S
C2326 H2318 0.930 . S
C2326 C2322 1.390 . S
C2326 C2325 1.381 . S
N2327 C2320 1.286 . S
N2327 C2323 1.413 . S
H2328 C2333 0.930 . S
H2329 C2336 0.930 . S
H2330 C2338 0.930 . S
H2331 C2332 1.016 . S
C2332 H2331 1.016 . S
C2332 N2339 1.286 . S
C2333 H2328 0.930 . S
C2333 C2334 1.397 . S
C2333 C2335 1.361 . S
C2334 C2333 1.397 . S
C2334 C2338 1.390 . S
C2335 C2333 1.361 . S
C2335 C2336 1.393 . S
C2335 N2339 1.413 . S
C2336 H2329 0.930 . S
C2336 C2335 1.393 . S
C2336 C2337 1.399 . S
C2337 C2336 1.399 . S
C2337 C2338 1.381 . S
C2338 H2330 0.930 . S
C2338 C2334 1.390 . S
C2338 C2337 1.381 . S
N2339 C2332 1.286 . S
N2339 C2335 1.413 . S
H2340 C2345 0.930 . S
H2341 C2348 0.930 . S
H2342 C2350 0.930 . S
H2343 C2344 1.016 . S
C2344 H2343 1.016 . S
C2344 N2351 1.286 . S
C2345 H2340 0.930 . S
C2345 C2346 1.397 . S
C2345 C2347 1.361 . S
C2346 C2345 1.397 . S
C2346 C2350 1.390 . S
C2347 C2345 1.361 . S
C2347 C2348 1.393 . S
C2347 N2351 1.413 . S
C2348 H2341 0.930 . S
C2348 C2347 1.393 . S
C2348 C2349 1.399 . S
C2349 C2348 1.399 . S
C2349 C2350 1.381 . S
C2350 H2342 0.930 . S
C2350 C2346 1.390 . S
C2350 C2349 1.381 . S
N2351 C2344 1.286 . S
N2351 C2347 1.413 . S
H2352 C2357 0.930 . S
H2353 C2360 0.930 . S
H2354 C2362 0.930 . S
H2355 C2356 1.016 . S
C2356 H2355 1.016 . S
C2356 N2363 1.286 . S
C2357 H2352 0.930 . S
C2357 C2358 1.397 . S
C2357 C2359 1.361 . S
C2358 C2357 1.397 . S
C2358 C2362 1.390 . S
C2359 C2357 1.361 . S
C2359 C2360 1.393 . S
C2359 N2363 1.413 . S
C2360 H2353 0.930 . S
C2360 C2359 1.393 . S
C2360 C2361 1.399 . S
C2361 C2360 1.399 . S
C2361 C2362 1.381 . S
C2362 H2354 0.930 . S
C2362 C2358 1.390 . S
C2362 C2361 1.381 . S
N2363 C2356 1.286 . S
N2363 C2359 1.413 . S
H2364 C2369 0.930 . S
H2365 C2372 0.930 . S
H2366 C2374 0.930 . S
H2367 C2368 1.016 . S
C2368 H2367 1.016 . S
C2368 N2375 1.286 . S
C2369 H2364 0.930 . S
C2369 C2370 1.397 . S
C2369 C2371 1.361 . S
C2370 C2369 1.397 . S
C2370 C2374 1.390 . S
C2371 C2369 1.361 . S
C2371 C2372 1.393 . S
C2371 N2375 1.413 . S
C2372 H2365 0.930 . S
C2372 C2371 1.393 . S
C2372 C2373 1.399 . S
C2373 C2372 1.399 . S
C2373 C2374 1.381 . S
C2374 H2366 0.930 . S
C2374 C2370 1.390 . S
C2374 C2373 1.381 . S
N2375 C2368 1.286 . S
N2375 C2371 1.413 . S
H2376 C2381 0.930 . S
H2377 C2384 0.930 . S
H2378 C2386 0.930 . S
H2379 C2380 1.016 . S
C2380 H2379 1.016 . S
C2380 N2387 1.286 . S
C2381 H2376 0.930 . S
C2381 C2382 1.397 . S
C2381 C2383 1.361 . S
C2382 C2381 1.397 . S
C2382 C2386 1.390 . S
C2383 C2381 1.361 . S
C2383 C2384 1.393 . S
C2383 N2387 1.413 . S
C2384 H2377 0.930 . S
C2384 C2383 1.393 . S
C2384 C2385 1.399 . S
C2385 C2384 1.399 . S
C2385 C2386 1.381 . S
C2386 H2378 0.930 . S
C2386 C2382 1.390 . S
C2386 C2385 1.381 . S
N2387 C2380 1.286 . S
N2387 C2383 1.413 . S
H2388 C2393 0.930 . S
H2389 C2396 0.930 . S
H2390 C2398 0.930 . S
H2391 C2392 1.016 . S
C2392 H2391 1.016 . S
C2392 N2399 1.286 . S
C2393 H2388 0.930 . S
C2393 C2394 1.397 . S
C2393 C2395 1.361 . S
C2394 C2393 1.397 . S
C2394 C2398 1.390 . S
C2395 C2393 1.361 . S
C2395 C2396 1.393 . S
C2395 N2399 1.413 . S
C2396 H2389 0.930 . S
C2396 C2395 1.393 . S
C2396 C2397 1.399 . S
C2397 C2396 1.399 . S
C2397 C2398 1.381 . S
C2398 H2390 0.930 . S
C2398 C2394 1.390 . S
C2398 C2397 1.381 . S
N2399 C2392 1.286 . S
N2399 C2395 1.413 . S
H2400 C2405 0.930 . S
H2401 C2408 0.930 . S
H2402 C2410 0.930 . S
H2403 C2404 1.016 . S
C2404 H2403 1.016 . S
C2404 N2411 1.286 . S
C2405 H2400 0.930 . S
C2405 C2406 1.397 . S
C2405 C2407 1.361 . S
C2406 C2405 1.397 . S
C2406 C2410 1.390 . S
C2407 C2405 1.361 . S
C2407 C2408 1.393 . S
C2407 N2411 1.413 . S
C2408 H2401 0.930 . S
C2408 C2407 1.393 . S
C2408 C2409 1.399 . S
C2409 C2408 1.399 . S
C2409 C2410 1.381 . S
C2410 H2402 0.930 . S
C2410 C2406 1.390 . S
C2410 C2409 1.381 . S
N2411 C2404 1.286 . S
N2411 C2407 1.413 . S
H2412 C2417 0.930 . S
H2413 C2420 0.930 . S
H2414 C2422 0.930 . S
H2415 C2416 1.016 . S
C2416 H2415 1.016 . S
C2416 N2423 1.286 . S
C2417 H2412 0.930 . S
C2417 C2418 1.397 . S
C2417 C2419 1.361 . S
C2418 C2417 1.397 . S
C2418 C2422 1.390 . S
C2419 C2417 1.361 . S
C2419 C2420 1.393 . S
C2419 N2423 1.413 . S
C2420 H2413 0.930 . S
C2420 C2419 1.393 . S
C2420 C2421 1.399 . S
C2421 C2420 1.399 . S
C2421 C2422 1.381 . S
C2422 H2414 0.930 . S
C2422 C2418 1.390 . S
C2422 C2421 1.381 . S
N2423 C2416 1.286 . S
N2423 C2419 1.413 . S
H2424 C2429 0.930 . S
H2425 C2432 0.930 . S
H2426 C2434 0.930 . S
H2427 C2428 1.016 . S
C2428 H2427 1.016 . S
C2428 N2435 1.286 . S
C2429 H2424 0.930 . S
C2429 C2430 1.397 . S
C2429 C2431 1.361 . S
C2430 C2429 1.397 . S
C2430 C2434 1.390 . S
C2431 C2429 1.361 . S
C2431 C2432 1.393 . S
C2431 N2435 1.413 . S
C2432 H2425 0.930 . S
C2432 C2431 1.393 . S
C2432 C2433 1.399 . S
C2433 C2432 1.399 . S
C2433 C2434 1.381 . S
C2434 H2426 0.930 . S
C2434 C2430 1.390 . S
C2434 C2433 1.381 . S
N2435 C2428 1.286 . S
N2435 C2431 1.413 . S
H2436 C2441 0.930 . S
H2437 C2444 0.930 . S
H2438 C2446 0.930 . S
H2439 C2440 1.016 . S
C2440 H2439 1.016 . S
C2440 N2447 1.286 . S
C2441 H2436 0.930 . S
C2441 C2442 1.397 . S
C2441 C2443 1.361 . S
C2442 C2441 1.397 . S
C2442 C2446 1.390 . S
C2443 C2441 1.361 . S
C2443 C2444 1.393 . S
C2443 N2447 1.413 . S
C2444 H2437 0.930 . S
C2444 C2443 1.393 . S
C2444 C2445 1.399 . S
C2445 C2444 1.399 . S
C2445 C2446 1.381 . S
C2446 H2438 0.930 . S
C2446 C2442 1.390 . S
C2446 C2445 1.381 . S
N2447 C2440 1.286 . S
N2447 C2443 1.413 . S
H2448 C2453 0.930 . S
H2449 C2456 0.930 . S
H2450 C2458 0.930 . S
H2451 C2452 1.016 . S
C2452 H2451 1.016 . S
C2452 N2459 1.286 . S
C2453 H2448 0.930 . S
C2453 C2454 1.397 . S
C2453 C2455 1.361 . S
C2454 C2453 1.397 . S
C2454 C2458 1.390 . S
C2455 C2453 1.361 . S
C2455 C2456 1.393 . S
C2455 N2459 1.413 . S
C2456 H2449 0.930 . S
C2456 C2455 1.393 . S
C2456 C2457 1.399 . S
C2457 C2456 1.399 . S
C2457 C2458 1.381 . S
C2458 H2450 0.930 . S
C2458 C2454 1.390 . S
C2458 C2457 1.381 . S
N2459 C2452 1.286 . S
N2459 C2455 1.413 . S
H2460 C2465 0.930 . S
H2461 C2468 0.930 . S
H2462 C2470 0.930 . S
H2463 C2464 1.016 . S
C2464 H2463 1.016 . S
C2464 N2471 1.286 . S
C2465 H2460 0.930 . S
C2465 C2466 1.397 . S
C2465 C2467 1.361 . S
C2466 C2465 1.397 . S
C2466 C2470 1.390 . S
C2467 C2465 1.361 . S
C2467 C2468 1.393 . S
C2467 N2471 1.413 . S
C2468 H2461 0.930 . S
C2468 C2467 1.393 . S
C2468 C2469 1.399 . S
C2469 C2468 1.399 . S
C2469 C2470 1.381 . S
C2470 H2462 0.930 . S
C2470 C2466 1.390 . S
C2470 C2469 1.381 . S
N2471 C2464 1.286 . S
N2471 C2467 1.413 . S
H2472 C2477 0.930 . S
H2473 C2480 0.930 . S
H2474 C2482 0.930 . S
H2475 C2476 1.016 . S
C2476 H2475 1.016 . S
C2476 N2483 1.286 . S
C2477 H2472 0.930 . S
C2477 C2478 1.397 . S
C2477 C2479 1.361 . S
C2478 C2477 1.397 . S
C2478 C2482 1.390 . S
C2479 C2477 1.361 . S
C2479 C2480 1.393 . S
C2479 N2483 1.413 . S
C2480 H2473 0.930 . S
C2480 C2479 1.393 . S
C2480 C2481 1.399 . S
C2481 C2480 1.399 . S
C2481 C2482 1.381 . S
C2482 H2474 0.930 . S
C2482 C2478 1.390 . S
C2482 C2481 1.381 . S
N2483 C2476 1.286 . S
N2483 C2479 1.413 . S
H2484 C2489 0.930 . S
H2485 C2492 0.930 . S
H2486 C2494 0.930 . S
H2487 C2488 1.016 . S
C2488 H2487 1.016 . S
C2488 N2495 1.286 . S
C2489 H2484 0.930 . S
C2489 C2490 1.397 . S
C2489 C2491 1.361 . S
C2490 C2489 1.397 . S
C2490 C2494 1.390 . S
C2491 C2489 1.361 . S
C2491 C2492 1.393 . S
C2491 N2495 1.413 . S
C2492 H2485 0.930 . S
C2492 C2491 1.393 . S
C2492 C2493 1.399 . S
C2493 C2492 1.399 . S
C2493 C2494 1.381 . S
C2494 H2486 0.930 . S
C2494 C2490 1.390 . S
C2494 C2493 1.381 . S
N2495 C2488 1.286 . S
N2495 C2491 1.413 . S
C2496 C2497 1.391 . S
C2496 C2498 1.394 . S
C2496 H2512 0.931 . S
C2497 C2496 1.391 . S
C2497 C2501 1.376 . S
C2498 C2496 1.394 . S
C2498 C2499 1.369 . S
C2498 C2502 1.531 . S
C2499 C2498 1.369 . S
C2499 C2500 1.410 . S
C2499 C2507 1.503 . S
C2500 C2499 1.410 . S
C2500 C2501 1.392 . S
C2500 C2503 1.511 . S
C2501 C2497 1.376 . S
C2501 C2500 1.392 . S
C2501 H2513 0.929 . S
C2502 C2498 1.531 . S
C2502 H2514 0.960 . S
C2502 H2515 0.962 . S
C2502 H2516 0.960 . S
C2503 C2500 1.511 . S
C2503 H2517 0.961 . S
C2503 H2518 0.961 . S
C2503 H2519 0.961 . S
C2504 C2505 1.370 . S
C2504 C2506 1.363 . S
C2504 H2520 0.931 . S
C2505 C2504 1.370 . S
C2505 C2509 1.408 . S
C2506 C2504 1.363 . S
C2506 C2507 1.370 . S
C2506 C2510 1.524 . S
C2507 C2499 1.503 . S
C2507 C2506 1.370 . S
C2507 C2508 1.403 . S
C2508 C2507 1.403 . S
C2508 C2509 1.404 . S
C2508 C2511 1.539 . S
C2509 C2505 1.408 . S
C2509 C2508 1.404 . S
C2509 H2521 0.930 . S
C2510 C2506 1.524 . S
C2510 H2522 0.956 . S
C2510 H2523 0.961 . S
C2510 H2524 0.961 . S
C2511 C2508 1.539 . S
C2511 H2525 0.958 . S
C2511 H2526 0.961 . S
C2511 H2527 0.960 . S
H2512 C2496 0.931 . S
H2513 C2501 0.929 . S
H2514 C2502 0.960 . S
H2515 C2502 0.962 . S
H2516 C2502 0.960 . S
H2517 C2503 0.961 . S
H2518 C2503 0.961 . S
H2519 C2503 0.961 . S
H2520 C2504 0.931 . S
H2521 C2509 0.930 . S
H2522 C2510 0.956 . S
H2523 C2510 0.961 . S
H2524 C2510 0.961 . S
H2525 C2511 0.958 . S
H2526 C2511 0.961 . S
H2527 C2511 0.960 . S
C2528 C2529 1.391 . S
C2528 C2530 1.394 . S
C2528 H2544 0.931 . S
C2529 C2528 1.391 . S
C2529 C2533 1.376 . S
C2530 C2528 1.394 . S
C2530 C2531 1.369 . S
C2530 C2534 1.531 . S
C2531 C2530 1.369 . S
C2531 C2532 1.410 . S
C2531 C2539 1.503 . S
C2532 C2531 1.410 . S
C2532 C2533 1.392 . S
C2532 C2535 1.511 . S
C2533 C2529 1.376 . S
C2533 C2532 1.392 . S
C2533 H2545 0.929 . S
C2534 C2530 1.531 . S
C2534 H2546 0.960 . S
C2534 H2547 0.962 . S
C2534 H2548 0.960 . S
C2535 C2532 1.511 . S
C2535 H2549 0.961 . S
C2535 H2550 0.961 . S
C2535 H2551 0.961 . S
C2536 C2537 1.370 . S
C2536 C2538 1.363 . S
C2536 H2552 0.931 . S
C2537 C2536 1.370 . S
C2537 C2541 1.408 . S
C2538 C2536 1.363 . S
C2538 C2539 1.370 . S
C2538 C2542 1.524 . S
C2539 C2531 1.503 . S
C2539 C2538 1.370 . S
C2539 C2540 1.403 . S
C2540 C2539 1.403 . S
C2540 C2541 1.404 . S
C2540 C2543 1.539 . S
C2541 C2537 1.408 . S
C2541 C2540 1.404 . S
C2541 H2553 0.930 . S
C2542 C2538 1.524 . S
C2542 H2554 0.956 . S
C2542 H2555 0.961 . S
C2542 H2556 0.961 . S
C2543 C2540 1.539 . S
C2543 H2557 0.958 . S
C2543 H2558 0.961 . S
C2543 H2559 0.960 . S
H2544 C2528 0.931 . S
H2545 C2533 0.929 . S
H2546 C2534 0.960 . S
H2547 C2534 0.962 . S
H2548 C2534 0.960 . S
H2549 C2535 0.961 . S
H2550 C2535 0.961 . S
H2551 C2535 0.961 . S
H2552 C2536 0.931 . S
H2553 C2541 0.930 . S
H2554 C2542 0.956 . S
H2555 C2542 0.961 . S
H2556 C2542 0.961 . S
H2557 C2543 0.958 . S
H2558 C2543 0.961 . S
H2559 C2543 0.960 . S
C2560 C2561 1.391 . S
C2560 C2562 1.394 . S
C2560 H2576 0.931 . S
C2561 C2560 1.391 . S
C2561 C2565 1.376 . S
C2562 C2560 1.394 . S
C2562 C2563 1.369 . S
C2562 C2566 1.531 . S
C2563 C2562 1.369 . S
C2563 C2564 1.410 . S
C2563 C2571 1.503 . S
C2564 C2563 1.410 . S
C2564 C2565 1.392 . S
C2564 C2567 1.511 . S
C2565 C2561 1.376 . S
C2565 C2564 1.392 . S
C2565 H2577 0.929 . S
C2566 C2562 1.531 . S
C2566 H2578 0.960 . S
C2566 H2579 0.962 . S
C2566 H2580 0.960 . S
C2567 C2564 1.511 . S
C2567 H2581 0.961 . S
C2567 H2582 0.961 . S
C2567 H2583 0.961 . S
C2568 C2569 1.370 . S
C2568 C2570 1.363 . S
C2568 H2584 0.931 . S
C2569 C2568 1.370 . S
C2569 C2573 1.408 . S
C2570 C2568 1.363 . S
C2570 C2571 1.370 . S
C2570 C2574 1.524 . S
C2571 C2563 1.503 . S
C2571 C2570 1.370 . S
C2571 C2572 1.403 . S
C2572 C2571 1.403 . S
C2572 C2573 1.404 . S
C2572 C2575 1.539 . S
C2573 C2569 1.408 . S
C2573 C2572 1.404 . S
C2573 H2585 0.930 . S
C2574 C2570 1.524 . S
C2574 H2586 0.956 . S
C2574 H2587 0.961 . S
C2574 H2588 0.961 . S
C2575 C2572 1.539 . S
C2575 H2589 0.958 . S
C2575 H2590 0.961 . S
C2575 H2591 0.960 . S
H2576 C2560 0.931 . S
H2577 C2565 0.929 . S
H2578 C2566 0.960 . S
H2579 C2566 0.962 . S
H2580 C2566 0.960 . S
H2581 C2567 0.961 . S
H2582 C2567 0.961 . S
H2583 C2567 0.961 . S
H2584 C2568 0.931 . S
H2585 C2573 0.930 . S
H2586 C2574 0.956 . S
H2587 C2574 0.961 . S
H2588 C2574 0.961 . S
H2589 C2575 0.958 . S
H2590 C2575 0.961 . S
H2591 C2575 0.960 . S
C2592 C2593 1.391 . S
C2592 C2594 1.394 . S
C2592 H2608 0.931 . S
C2593 C2592 1.391 . S
C2593 C2597 1.376 . S
C2594 C2592 1.394 . S
C2594 C2595 1.369 . S
C2594 C2598 1.531 . S
C2595 C2594 1.369 . S
C2595 C2596 1.410 . S
C2595 C2603 1.503 . S
C2596 C2595 1.410 . S
C2596 C2597 1.392 . S
C2596 C2599 1.511 . S
C2597 C2593 1.376 . S
C2597 C2596 1.392 . S
C2597 H2609 0.929 . S
C2598 C2594 1.531 . S
C2598 H2610 0.960 . S
C2598 H2611 0.962 . S
C2598 H2612 0.960 . S
C2599 C2596 1.511 . S
C2599 H2613 0.961 . S
C2599 H2614 0.961 . S
C2599 H2615 0.961 . S
C2600 C2601 1.370 . S
C2600 C2602 1.363 . S
C2600 H2616 0.931 . S
C2601 C2600 1.370 . S
C2601 C2605 1.408 . S
C2602 C2600 1.363 . S
C2602 C2603 1.370 . S
C2602 C2606 1.524 . S
C2603 C2595 1.503 . S
C2603 C2602 1.370 . S
C2603 C2604 1.403 . S
C2604 C2603 1.403 . S
C2604 C2605 1.404 . S
C2604 C2607 1.539 . S
C2605 C2601 1.408 . S
C2605 C2604 1.404 . S
C2605 H2617 0.930 . S
C2606 C2602 1.524 . S
C2606 H2618 0.956 . S
C2606 H2619 0.961 . S
C2606 H2620 0.961 . S
C2607 C2604 1.539 . S
C2607 H2621 0.958 . S
C2607 H2622 0.961 . S
C2607 H2623 0.960 . S
H2608 C2592 0.931 . S
H2609 C2597 0.929 . S
H2610 C2598 0.960 . S
H2611 C2598 0.962 . S
H2612 C2598 0.960 . S
H2613 C2599 0.961 . S
H2614 C2599 0.961 . S
H2615 C2599 0.961 . S
H2616 C2600 0.931 . S
H2617 C2605 0.930 . S
H2618 C2606 0.956 . S
H2619 C2606 0.961 . S
H2620 C2606 0.961 . S
H2621 C2607 0.958 . S
H2622 C2607 0.961 . S
H2623 C2607 0.960 . S
C2624 C2625 1.391 . S
C2624 C2626 1.394 . S
C2624 H2640 0.931 . S
C2625 C2624 1.391 . S
C2625 C2629 1.376 . S
C2626 C2624 1.394 . S
C2626 C2627 1.369 . S
C2626 C2630 1.531 . S
C2627 C2626 1.369 . S
C2627 C2628 1.410 . S
C2627 C2635 1.503 . S
C2628 C2627 1.410 . S
C2628 C2629 1.392 . S
C2628 C2631 1.511 . S
C2629 C2625 1.376 . S
C2629 C2628 1.392 . S
C2629 H2641 0.929 . S
C2630 C2626 1.531 . S
C2630 H2642 0.960 . S
C2630 H2643 0.962 . S
C2630 H2644 0.960 . S
C2631 C2628 1.511 . S
C2631 H2645 0.961 . S
C2631 H2646 0.961 . S
C2631 H2647 0.961 . S
C2632 C2633 1.370 . S
C2632 C2634 1.363 . S
C2632 H2648 0.931 . S
C2633 C2632 1.370 . S
C2633 C2637 1.408 . S
C2634 C2632 1.363 . S
C2634 C2635 1.370 . S
C2634 C2638 1.524 . S
C2635 C2627 1.503 . S
C2635 C2634 1.370 . S
C2635 C2636 1.403 . S
C2636 C2635 1.403 . S
C2636 C2637 1.404 . S
C2636 C2639 1.539 . S
C2637 C2633 1.408 . S
C2637 C2636 1.404 . S
C2637 H2649 0.930 . S
C2638 C2634 1.524 . S
C2638 H2650 0.956 . S
C2638 H2651 0.961 . S
C2638 H2652 0.961 . S
C2639 C2636 1.539 . S
C2639 H2653 0.958 . S
C2639 H2654 0.961 . S
C2639 H2655 0.960 . S
H2640 C2624 0.931 . S
H2641 C2629 0.929 . S
H2642 C2630 0.960 . S
H2643 C2630 0.962 . S
H2644 C2630 0.960 . S
H2645 C2631 0.961 . S
H2646 C2631 0.961 . S
H2647 C2631 0.961 . S
H2648 C2632 0.931 . S
H2649 C2637 0.930 . S
H2650 C2638 0.956 . S
H2651 C2638 0.961 . S
H2652 C2638 0.961 . S
H2653 C2639 0.958 . S
H2654 C2639 0.961 . S
H2655 C2639 0.960 . S
C2656 C2657 1.391 . S
C2656 C2658 1.394 . S
C2656 H2672 0.931 . S
C2657 C2656 1.391 . S
C2657 C2661 1.376 . S
C2658 C2656 1.394 . S
C2658 C2659 1.369 . S
C2658 C2662 1.531 . S
C2659 C2658 1.369 . S
C2659 C2660 1.410 . S
C2659 C2667 1.503 . S
C2660 C2659 1.410 . S
C2660 C2661 1.392 . S
C2660 C2663 1.511 . S
C2661 C2657 1.376 . S
C2661 C2660 1.392 . S
C2661 H2673 0.929 . S
C2662 C2658 1.531 . S
C2662 H2674 0.960 . S
C2662 H2675 0.962 . S
C2662 H2676 0.960 . S
C2663 C2660 1.511 . S
C2663 H2677 0.961 . S
C2663 H2678 0.961 . S
C2663 H2679 0.961 . S
C2664 C2665 1.370 . S
C2664 C2666 1.363 . S
C2664 H2680 0.931 . S
C2665 C2664 1.370 . S
C2665 C2669 1.408 . S
C2666 C2664 1.363 . S
C2666 C2667 1.370 . S
C2666 C2670 1.524 . S
C2667 C2659 1.503 . S
C2667 C2666 1.370 . S
C2667 C2668 1.403 . S
C2668 C2667 1.403 . S
C2668 C2669 1.404 . S
C2668 C2671 1.539 . S
C2669 C2665 1.408 . S
C2669 C2668 1.404 . S
C2669 H2681 0.930 . S
C2670 C2666 1.524 . S
C2670 H2682 0.956 . S
C2670 H2683 0.961 . S
C2670 H2684 0.961 . S
C2671 C2668 1.539 . S
C2671 H2685 0.958 . S
C2671 H2686 0.961 . S
C2671 H2687 0.960 . S
H2672 C2656 0.931 . S
H2673 C2661 0.929 . S
H2674 C2662 0.960 . S
H2675 C2662 0.962 . S
H2676 C2662 0.960 . S
H2677 C2663 0.961 . S
H2678 C2663 0.961 . S
H2679 C2663 0.961 . S
H2680 C2664 0.931 . S
H2681 C2669 0.930 . S
H2682 C2670 0.956 . S
H2683 C2670 0.961 . S
H2684 C2670 0.961 . S
H2685 C2671 0.958 . S
H2686 C2671 0.961 . S
H2687 C2671 0.960 . S
C2688 C2689 1.391 . S
C2688 C2690 1.394 . S
C2688 H2704 0.931 . S
C2689 C2688 1.391 . S
C2689 C2693 1.376 . S
C2690 C2688 1.394 . S
C2690 C2691 1.369 . S
C2690 C2694 1.531 . S
C2691 C2690 1.369 . S
C2691 C2692 1.410 . S
C2691 C2699 1.503 . S
C2692 C2691 1.410 . S
C2692 C2693 1.392 . S
C2692 C2695 1.511 . S
C2693 C2689 1.376 . S
C2693 C2692 1.392 . S
C2693 H2705 0.929 . S
C2694 C2690 1.531 . S
C2694 H2706 0.960 . S
C2694 H2707 0.962 . S
C2694 H2708 0.960 . S
C2695 C2692 1.511 . S
C2695 H2709 0.961 . S
C2695 H2710 0.961 . S
C2695 H2711 0.961 . S
C2696 C2697 1.370 . S
C2696 C2698 1.363 . S
C2696 H2712 0.931 . S
C2697 C2696 1.370 . S
C2697 C2701 1.408 . S
C2698 C2696 1.363 . S
C2698 C2699 1.370 . S
C2698 C2702 1.524 . S
C2699 C2691 1.503 . S
C2699 C2698 1.370 . S
C2699 C2700 1.403 . S
C2700 C2699 1.403 . S
C2700 C2701 1.404 . S
C2700 C2703 1.539 . S
C2701 C2697 1.408 . S
C2701 C2700 1.404 . S
C2701 H2713 0.930 . S
C2702 C2698 1.524 . S
C2702 H2714 0.956 . S
C2702 H2715 0.961 . S
C2702 H2716 0.961 . S
C2703 C2700 1.539 . S
C2703 H2717 0.958 . S
C2703 H2718 0.961 . S
C2703 H2719 0.960 . S
H2704 C2688 0.931 . S
H2705 C2693 0.929 . S
H2706 C2694 0.960 . S
H2707 C2694 0.962 . S
H2708 C2694 0.960 . S
H2709 C2695 0.961 . S
H2710 C2695 0.961 . S
H2711 C2695 0.961 . S
H2712 C2696 0.931 . S
H2713 C2701 0.930 . S
H2714 C2702 0.956 . S
H2715 C2702 0.961 . S
H2716 C2702 0.961 . S
H2717 C2703 0.958 . S
H2718 C2703 0.961 . S
H2719 C2703 0.960 . S
C2720 C2721 1.391 . S
C2720 C2722 1.394 . S
C2720 H2736 0.931 . S
C2721 C2720 1.391 . S
C2721 C2725 1.376 . S
C2722 C2720 1.394 . S
C2722 C2723 1.369 . S
C2722 C2726 1.531 . S
C2723 C2722 1.369 . S
C2723 C2724 1.410 . S
C2723 C2731 1.503 . S
C2724 C2723 1.410 . S
C2724 C2725 1.392 . S
C2724 C2727 1.511 . S
C2725 C2721 1.376 . S
C2725 C2724 1.392 . S
C2725 H2737 0.929 . S
C2726 C2722 1.531 . S
C2726 H2738 0.960 . S
C2726 H2739 0.962 . S
C2726 H2740 0.960 . S
C2727 C2724 1.511 . S
C2727 H2741 0.961 . S
C2727 H2742 0.961 . S
C2727 H2743 0.961 . S
C2728 C2729 1.370 . S
C2728 C2730 1.363 . S
C2728 H2744 0.931 . S
C2729 C2728 1.370 . S
C2729 C2733 1.408 . S
C2730 C2728 1.363 . S
C2730 C2731 1.370 . S
C2730 C2734 1.524 . S
C2731 C2723 1.503 . S
C2731 C2730 1.370 . S
C2731 C2732 1.403 . S
C2732 C2731 1.403 . S
C2732 C2733 1.404 . S
C2732 C2735 1.539 . S
C2733 C2729 1.408 . S
C2733 C2732 1.404 . S
C2733 H2745 0.930 . S
C2734 C2730 1.524 . S
C2734 H2746 0.956 . S
C2734 H2747 0.961 . S
C2734 H2748 0.961 . S
C2735 C2732 1.539 . S
C2735 H2749 0.958 . S
C2735 H2750 0.961 . S
C2735 H2751 0.960 . S
H2736 C2720 0.931 . S
H2737 C2725 0.929 . S
H2738 C2726 0.960 . S
H2739 C2726 0.962 . S
H2740 C2726 0.960 . S
H2741 C2727 0.961 . S
H2742 C2727 0.961 . S
H2743 C2727 0.961 . S
H2744 C2728 0.931 . S
H2745 C2733 0.930 . S
H2746 C2734 0.956 . S
H2747 C2734 0.961 . S
H2748 C2734 0.961 . S
H2749 C2735 0.958 . S
H2750 C2735 0.961 . S
H2751 C2735 0.960 . S
C2752 C2753 1.391 . S
C2752 C2754 1.394 . S
C2752 H2768 0.931 . S
C2753 C2752 1.391 . S
C2753 C2757 1.376 . S
C2754 C2752 1.394 . S
C2754 C2755 1.369 . S
C2754 C2758 1.531 . S
C2755 C2754 1.369 . S
C2755 C2756 1.410 . S
C2755 C2763 1.503 . S
C2756 C2755 1.410 . S
C2756 C2757 1.392 . S
C2756 C2759 1.511 . S
C2757 C2753 1.376 . S
C2757 C2756 1.392 . S
C2757 H2769 0.929 . S
C2758 C2754 1.531 . S
C2758 H2770 0.960 . S
C2758 H2771 0.962 . S
C2758 H2772 0.960 . S
C2759 C2756 1.511 . S
C2759 H2773 0.961 . S
C2759 H2774 0.961 . S
C2759 H2775 0.961 . S
C2760 C2761 1.370 . S
C2760 C2762 1.363 . S
C2760 H2776 0.931 . S
C2761 C2760 1.370 . S
C2761 C2765 1.408 . S
C2762 C2760 1.363 . S
C2762 C2763 1.370 . S
C2762 C2766 1.524 . S
C2763 C2755 1.503 . S
C2763 C2762 1.370 . S
C2763 C2764 1.403 . S
C2764 C2763 1.403 . S
C2764 C2765 1.404 . S
C2764 C2767 1.539 . S
C2765 C2761 1.408 . S
C2765 C2764 1.404 . S
C2765 H2777 0.930 . S
C2766 C2762 1.524 . S
C2766 H2778 0.956 . S
C2766 H2779 0.961 . S
C2766 H2780 0.961 . S
C2767 C2764 1.539 . S
C2767 H2781 0.958 . S
C2767 H2782 0.961 . S
C2767 H2783 0.960 . S
H2768 C2752 0.931 . S
H2769 C2757 0.929 . S
H2770 C2758 0.960 . S
H2771 C2758 0.962 . S
H2772 C2758 0.960 . S
H2773 C2759 0.961 . S
H2774 C2759 0.961 . S
H2775 C2759 0.961 . S
H2776 C2760 0.931 . S
H2777 C2765 0.930 . S
H2778 C2766 0.956 . S
H2779 C2766 0.961 . S
H2780 C2766 0.961 . S
H2781 C2767 0.958 . S
H2782 C2767 0.961 . S
H2783 C2767 0.960 . S
C2784 C2785 1.391 . S
C2784 C2786 1.394 . S
C2784 H2800 0.931 . S
C2785 C2784 1.391 . S
C2785 C2789 1.376 . S
C2786 C2784 1.394 . S
C2786 C2787 1.369 . S
C2786 C2790 1.531 . S
C2787 C2786 1.369 . S
C2787 C2788 1.410 . S
C2787 C2795 1.503 . S
C2788 C2787 1.410 . S
C2788 C2789 1.392 . S
C2788 C2791 1.511 . S
C2789 C2785 1.376 . S
C2789 C2788 1.392 . S
C2789 H2801 0.929 . S
C2790 C2786 1.531 . S
C2790 H2802 0.960 . S
C2790 H2803 0.962 . S
C2790 H2804 0.960 . S
C2791 C2788 1.511 . S
C2791 H2805 0.961 . S
C2791 H2806 0.961 . S
C2791 H2807 0.961 . S
C2792 C2793 1.370 . S
C2792 C2794 1.363 . S
C2792 H2808 0.931 . S
C2793 C2792 1.370 . S
C2793 C2797 1.408 . S
C2794 C2792 1.363 . S
C2794 C2795 1.370 . S
C2794 C2798 1.524 . S
C2795 C2787 1.503 . S
C2795 C2794 1.370 . S
C2795 C2796 1.403 . S
C2796 C2795 1.403 . S
C2796 C2797 1.404 . S
C2796 C2799 1.539 . S
C2797 C2793 1.408 . S
C2797 C2796 1.404 . S
C2797 H2809 0.930 . S
C2798 C2794 1.524 . S
C2798 H2810 0.956 . S
C2798 H2811 0.961 . S
C2798 H2812 0.961 . S
C2799 C2796 1.539 . S
C2799 H2813 0.958 . S
C2799 H2814 0.961 . S
C2799 H2815 0.960 . S
H2800 C2784 0.931 . S
H2801 C2789 0.929 . S
H2802 C2790 0.960 . S
H2803 C2790 0.962 . S
H2804 C2790 0.960 . S
H2805 C2791 0.961 . S
H2806 C2791 0.961 . S
H2807 C2791 0.961 . S
H2808 C2792 0.931 . S
H2809 C2797 0.930 . S
H2810 C2798 0.956 . S
H2811 C2798 0.961 . S
H2812 C2798 0.961 . S
H2813 C2799 0.958 . S
H2814 C2799 0.961 . S
H2815 C2799 0.960 . S
C2816 C2817 1.391 . S
C2816 C2818 1.394 . S
C2816 H2832 0.931 . S
C2817 C2816 1.391 . S
C2817 C2821 1.376 . S
C2818 C2816 1.394 . S
C2818 C2819 1.369 . S
C2818 C2822 1.531 . S
C2819 C2818 1.369 . S
C2819 C2820 1.410 . S
C2819 C2827 1.503 . S
C2820 C2819 1.410 . S
C2820 C2821 1.392 . S
C2820 C2823 1.511 . S
C2821 C2817 1.376 . S
C2821 C2820 1.392 . S
C2821 H2833 0.929 . S
C2822 C2818 1.531 . S
C2822 H2834 0.960 . S
C2822 H2835 0.962 . S
C2822 H2836 0.960 . S
C2823 C2820 1.511 . S
C2823 H2837 0.961 . S
C2823 H2838 0.961 . S
C2823 H2839 0.961 . S
C2824 C2825 1.370 . S
C2824 C2826 1.363 . S
C2824 H2840 0.931 . S
C2825 C2824 1.370 . S
C2825 C2829 1.408 . S
C2826 C2824 1.363 . S
C2826 C2827 1.370 . S
C2826 C2830 1.524 . S
C2827 C2819 1.503 . S
C2827 C2826 1.370 . S
C2827 C2828 1.403 . S
C2828 C2827 1.403 . S
C2828 C2829 1.404 . S
C2828 C2831 1.539 . S
C2829 C2825 1.408 . S
C2829 C2828 1.404 . S
C2829 H2841 0.930 . S
C2830 C2826 1.524 . S
C2830 H2842 0.956 . S
C2830 H2843 0.961 . S
C2830 H2844 0.961 . S
C2831 C2828 1.539 . S
C2831 H2845 0.958 . S
C2831 H2846 0.961 . S
C2831 H2847 0.960 . S
H2832 C2816 0.931 . S
H2833 C2821 0.929 . S
H2834 C2822 0.960 . S
H2835 C2822 0.962 . S
H2836 C2822 0.960 . S
H2837 C2823 0.961 . S
H2838 C2823 0.961 . S
H2839 C2823 0.961 . S
H2840 C2824 0.931 . S
H2841 C2829 0.930 . S
H2842 C2830 0.956 . S
H2843 C2830 0.961 . S
H2844 C2830 0.961 . S
H2845 C2831 0.958 . S
H2846 C2831 0.961 . S
H2847 C2831 0.960 . S
C2848 C2849 1.391 . S
C2848 C2850 1.394 . S
C2848 H2864 0.931 . S
C2849 C2848 1.391 . S
C2849 C2853 1.376 . S
C2850 C2848 1.394 . S
C2850 C2851 1.369 . S
C2850 C2854 1.531 . S
C2851 C2850 1.369 . S
C2851 C2852 1.410 . S
C2851 C2859 1.503 . S
C2852 C2851 1.410 . S
C2852 C2853 1.392 . S
C2852 C2855 1.511 . S
C2853 C2849 1.376 . S
C2853 C2852 1.392 . S
C2853 H2865 0.929 . S
C2854 C2850 1.531 . S
C2854 H2866 0.960 . S
C2854 H2867 0.962 . S
C2854 H2868 0.960 . S
C2855 C2852 1.511 . S
C2855 H2869 0.961 . S
C2855 H2870 0.961 . S
C2855 H2871 0.961 . S
C2856 C2857 1.370 . S
C2856 C2858 1.363 . S
C2856 H2872 0.931 . S
C2857 C2856 1.370 . S
C2857 C2861 1.408 . S
C2858 C2856 1.363 . S
C2858 C2859 1.370 . S
C2858 C2862 1.524 . S
C2859 C2851 1.503 . S
C2859 C2858 1.370 . S
C2859 C2860 1.403 . S
C2860 C2859 1.403 . S
C2860 C2861 1.404 . S
C2860 C2863 1.539 . S
C2861 C2857 1.408 . S
C2861 C2860 1.404 . S
C2861 H2873 0.930 . S
C2862 C2858 1.524 . S
C2862 H2874 0.956 . S
C2862 H2875 0.961 . S
C2862 H2876 0.961 . S
C2863 C2860 1.539 . S
C2863 H2877 0.958 . S
C2863 H2878 0.961 . S
C2863 H2879 0.960 . S
H2864 C2848 0.931 . S
H2865 C2853 0.929 . S
H2866 C2854 0.960 . S
H2867 C2854 0.962 . S
H2868 C2854 0.960 . S
H2869 C2855 0.961 . S
H2870 C2855 0.961 . S
H2871 C2855 0.961 . S
H2872 C2856 0.931 . S
H2873 C2861 0.930 . S
H2874 C2862 0.956 . S
H2875 C2862 0.961 . S
H2876 C2862 0.961 . S
H2877 C2863 0.958 . S
H2878 C2863 0.961 . S
H2879 C2863 0.960 . S
C2880 C2881 1.391 . S
C2880 C2882 1.394 . S
C2880 H2896 0.931 . S
C2881 C2880 1.391 . S
C2881 C2885 1.376 . S
C2882 C2880 1.394 . S
C2882 C2883 1.369 . S
C2882 C2886 1.531 . S
C2883 C2882 1.369 . S
C2883 C2884 1.410 . S
C2883 C2891 1.503 . S
C2884 C2883 1.410 . S
C2884 C2885 1.392 . S
C2884 C2887 1.511 . S
C2885 C2881 1.376 . S
C2885 C2884 1.392 . S
C2885 H2897 0.929 . S
C2886 C2882 1.531 . S
C2886 H2898 0.960 . S
C2886 H2899 0.962 . S
C2886 H2900 0.960 . S
C2887 C2884 1.511 . S
C2887 H2901 0.961 . S
C2887 H2902 0.961 . S
C2887 H2903 0.961 . S
C2888 C2889 1.370 . S
C2888 C2890 1.363 . S
C2888 H2904 0.931 . S
C2889 C2888 1.370 . S
C2889 C2893 1.408 . S
C2890 C2888 1.363 . S
C2890 C2891 1.370 . S
C2890 C2894 1.524 . S
C2891 C2883 1.503 . S
C2891 C2890 1.370 . S
C2891 C2892 1.403 . S
C2892 C2891 1.403 . S
C2892 C2893 1.404 . S
C2892 C2895 1.539 . S
C2893 C2889 1.408 . S
C2893 C2892 1.404 . S
C2893 H2905 0.930 . S
C2894 C2890 1.524 . S
C2894 H2906 0.956 . S
C2894 H2907 0.961 . S
C2894 H2908 0.961 . S
C2895 C2892 1.539 . S
C2895 H2909 0.958 . S
C2895 H2910 0.961 . S
C2895 H2911 0.960 . S
H2896 C2880 0.931 . S
H2897 C2885 0.929 . S
H2898 C2886 0.960 . S
H2899 C2886 0.962 . S
H2900 C2886 0.960 . S
H2901 C2887 0.961 . S
H2902 C2887 0.961 . S
H2903 C2887 0.961 . S
H2904 C2888 0.931 . S
H2905 C2893 0.930 . S
H2906 C2894 0.956 . S
H2907 C2894 0.961 . S
H2908 C2894 0.961 . S
H2909 C2895 0.958 . S
H2910 C2895 0.961 . S
H2911 C2895 0.960 . S
C2912 C2913 1.391 . S
C2912 C2914 1.394 . S
C2912 H2928 0.931 . S
C2913 C2912 1.391 . S
C2913 C2917 1.376 . S
C2914 C2912 1.394 . S
C2914 C2915 1.369 . S
C2914 C2918 1.531 . S
C2915 C2914 1.369 . S
C2915 C2916 1.410 . S
C2915 C2923 1.503 . S
C2916 C2915 1.410 . S
C2916 C2917 1.392 . S
C2916 C2919 1.511 . S
C2917 C2913 1.376 . S
C2917 C2916 1.392 . S
C2917 H2929 0.929 . S
C2918 C2914 1.531 . S
C2918 H2930 0.960 . S
C2918 H2931 0.962 . S
C2918 H2932 0.960 . S
C2919 C2916 1.511 . S
C2919 H2933 0.961 . S
C2919 H2934 0.961 . S
C2919 H2935 0.961 . S
C2920 C2921 1.370 . S
C2920 C2922 1.363 . S
C2920 H2936 0.931 . S
C2921 C2920 1.370 . S
C2921 C2925 1.408 . S
C2922 C2920 1.363 . S
C2922 C2923 1.370 . S
C2922 C2926 1.524 . S
C2923 C2915 1.503 . S
C2923 C2922 1.370 . S
C2923 C2924 1.403 . S
C2924 C2923 1.403 . S
C2924 C2925 1.404 . S
C2924 C2927 1.539 . S
C2925 C2921 1.408 . S
C2925 C2924 1.404 . S
C2925 H2937 0.930 . S
C2926 C2922 1.524 . S
C2926 H2938 0.956 . S
C2926 H2939 0.961 . S
C2926 H2940 0.961 . S
C2927 C2924 1.539 . S
C2927 H2941 0.958 . S
C2927 H2942 0.961 . S
C2927 H2943 0.960 . S
H2928 C2912 0.931 . S
H2929 C2917 0.929 . S
H2930 C2918 0.960 . S
H2931 C2918 0.962 . S
H2932 C2918 0.960 . S
H2933 C2919 0.961 . S
H2934 C2919 0.961 . S
H2935 C2919 0.961 . S
H2936 C2920 0.931 . S
H2937 C2925 0.930 . S
H2938 C2926 0.956 . S
H2939 C2926 0.961 . S
H2940 C2926 0.961 . S
H2941 C2927 0.958 . S
H2942 C2927 0.961 . S
H2943 C2927 0.960 . S
C2944 C2945 1.391 . S
C2944 C2946 1.394 . S
C2944 H2960 0.931 . S
C2945 C2944 1.391 . S
C2945 C2949 1.376 . S
C2946 C2944 1.394 . S
C2946 C2947 1.369 . S
C2946 C2950 1.531 . S
C2947 C2946 1.369 . S
C2947 C2948 1.410 . S
C2947 C2955 1.503 . S
C2948 C2947 1.410 . S
C2948 C2949 1.392 . S
C2948 C2951 1.511 . S
C2949 C2945 1.376 . S
C2949 C2948 1.392 . S
C2949 H2961 0.929 . S
C2950 C2946 1.531 . S
C2950 H2962 0.960 . S
C2950 H2963 0.962 . S
C2950 H2964 0.960 . S
C2951 C2948 1.511 . S
C2951 H2965 0.961 . S
C2951 H2966 0.961 . S
C2951 H2967 0.961 . S
C2952 C2953 1.370 . S
C2952 C2954 1.363 . S
C2952 H2968 0.931 . S
C2953 C2952 1.370 . S
C2953 C2957 1.408 . S
C2954 C2952 1.363 . S
C2954 C2955 1.370 . S
C2954 C2958 1.524 . S
C2955 C2947 1.503 . S
C2955 C2954 1.370 . S
C2955 C2956 1.403 . S
C2956 C2955 1.403 . S
C2956 C2957 1.404 . S
C2956 C2959 1.539 . S
C2957 C2953 1.408 . S
C2957 C2956 1.404 . S
C2957 H2969 0.930 . S
C2958 C2954 1.524 . S
C2958 H2970 0.956 . S
C2958 H2971 0.961 . S
C2958 H2972 0.961 . S
C2959 C2956 1.539 . S
C2959 H2973 0.958 . S
C2959 H2974 0.961 . S
C2959 H2975 0.960 . S
H2960 C2944 0.931 . S
H2961 C2949 0.929 . S
H2962 C2950 0.960 . S
H2963 C2950 0.962 . S
H2964 C2950 0.960 . S
H2965 C2951 0.961 . S
H2966 C2951 0.961 . S
H2967 C2951 0.961 . S
H2968 C2952 0.931 . S
H2969 C2957 0.930 . S
H2970 C2958 0.956 . S
H2971 C2958 0.961 . S
H2972 C2958 0.961 . S
H2973 C2959 0.958 . S
H2974 C2959 0.961 . S
H2975 C2959 0.960 . S
C2976 C2977 1.391 . S
C2976 C2978 1.394 . S
C2976 H2992 0.931 . S
C2977 C2976 1.391 . S
C2977 C2981 1.376 . S
C2978 C2976 1.394 . S
C2978 C2979 1.369 . S
C2978 C2982 1.531 . S
C2979 C2978 1.369 . S
C2979 C2980 1.410 . S
C2979 C2987 1.503 . S
C2980 C2979 1.410 . S
C2980 C2981 1.392 . S
C2980 C2983 1.511 . S
C2981 C2977 1.376 . S
C2981 C2980 1.392 . S
C2981 H2993 0.929 . S
C2982 C2978 1.531 . S
C2982 H2994 0.960 . S
C2982 H2995 0.962 . S
C2982 H2996 0.960 . S
C2983 C2980 1.511 . S
C2983 H2997 0.961 . S
C2983 H2998 0.961 . S
C2983 H2999 0.961 . S
C2984 C2985 1.370 . S
C2984 C2986 1.363 . S
C2984 H3000 0.931 . S
C2985 C2984 1.370 . S
C2985 C2989 1.408 . S
C2986 C2984 1.363 . S
C2986 C2987 1.370 . S
C2986 C2990 1.524 . S
C2987 C2979 1.503 . S
C2987 C2986 1.370 . S
C2987 C2988 1.403 . S
C2988 C2987 1.403 . S
C2988 C2989 1.404 . S
C2988 C2991 1.539 . S
C2989 C2985 1.408 . S
C2989 C2988 1.404 . S
C2989 H3001 0.930 . S
C2990 C2986 1.524 . S
C2990 H3002 0.956 . S
C2990 H3003 0.961 . S
C2990 H3004 0.961 . S
C2991 C2988 1.539 . S
C2991 H3005 0.958 . S
C2991 H3006 0.961 . S
C2991 H3007 0.960 . S
H2992 C2976 0.931 . S
H2993 C2981 0.929 . S
H2994 C2982 0.960 . S
H2995 C2982 0.962 . S
H2996 C2982 0.960 . S
H2997 C2983 0.961 . S
H2998 C2983 0.961 . S
H2999 C2983 0.961 . S
H3000 C2984 0.931 . S
H3001 C2989 0.930 . S
H3002 C2990 0.956 . S
H3003 C2990 0.961 . S
H3004 C2990 0.961 . S
H3005 C2991 0.958 . S
H3006 C2991 0.961 . S
H3007 C2991 0.960 . S
C3008 C3009 1.391 . S
C3008 C3010 1.394 . S
C3008 H3024 0.931 . S
C3009 C3008 1.391 . S
C3009 C3013 1.376 . S
C3010 C3008 1.394 . S
C3010 C3011 1.369 . S
C3010 C3014 1.531 . S
C3011 C3010 1.369 . S
C3011 C3012 1.410 . S
C3011 C3019 1.503 . S
C3012 C3011 1.410 . S
C3012 C3013 1.392 . S
C3012 C3015 1.511 . S
C3013 C3009 1.376 . S
C3013 C3012 1.392 . S
C3013 H3025 0.929 . S
C3014 C3010 1.531 . S
C3014 H3026 0.960 . S
C3014 H3027 0.962 . S
C3014 H3028 0.960 . S
C3015 C3012 1.511 . S
C3015 H3029 0.961 . S
C3015 H3030 0.961 . S
C3015 H3031 0.961 . S
C3016 C3017 1.370 . S
C3016 C3018 1.363 . S
C3016 H3032 0.931 . S
C3017 C3016 1.370 . S
C3017 C3021 1.408 . S
C3018 C3016 1.363 . S
C3018 C3019 1.370 . S
C3018 C3022 1.524 . S
C3019 C3011 1.503 . S
C3019 C3018 1.370 . S
C3019 C3020 1.403 . S
C3020 C3019 1.403 . S
C3020 C3021 1.404 . S
C3020 C3023 1.539 . S
C3021 C3017 1.408 . S
C3021 C3020 1.404 . S
C3021 H3033 0.930 . S
C3022 C3018 1.524 . S
C3022 H3034 0.956 . S
C3022 H3035 0.961 . S
C3022 H3036 0.961 . S
C3023 C3020 1.539 . S
C3023 H3037 0.958 . S
C3023 H3038 0.961 . S
C3023 H3039 0.960 . S
H3024 C3008 0.931 . S
H3025 C3013 0.929 . S
H3026 C3014 0.960 . S
H3027 C3014 0.962 . S
H3028 C3014 0.960 . S
H3029 C3015 0.961 . S
H3030 C3015 0.961 . S
H3031 C3015 0.961 . S
H3032 C3016 0.931 . S
H3033 C3021 0.930 . S
H3034 C3022 0.956 . S
H3035 C3022 0.961 . S
H3036 C3022 0.961 . S
H3037 C3023 0.958 . S
H3038 C3023 0.961 . S
H3039 C3023 0.960 . S
C3040 C3041 1.391 . S
C3040 C3042 1.394 . S
C3040 H3056 0.931 . S
C3041 C3040 1.391 . S
C3041 C3045 1.376 . S
C3042 C3040 1.394 . S
C3042 C3043 1.369 . S
C3042 C3046 1.531 . S
C3043 C3042 1.369 . S
C3043 C3044 1.410 . S
C3043 C3051 1.503 . S
C3044 C3043 1.410 . S
C3044 C3045 1.392 . S
C3044 C3047 1.511 . S
C3045 C3041 1.376 . S
C3045 C3044 1.392 . S
C3045 H3057 0.929 . S
C3046 C3042 1.531 . S
C3046 H3058 0.960 . S
C3046 H3059 0.962 . S
C3046 H3060 0.960 . S
C3047 C3044 1.511 . S
C3047 H3061 0.961 . S
C3047 H3062 0.961 . S
C3047 H3063 0.961 . S
C3048 C3049 1.370 . S
C3048 C3050 1.363 . S
C3048 H3064 0.931 . S
C3049 C3048 1.370 . S
C3049 C3053 1.408 . S
C3050 C3048 1.363 . S
C3050 C3051 1.370 . S
C3050 C3054 1.524 . S
C3051 C3043 1.503 . S
C3051 C3050 1.370 . S
C3051 C3052 1.403 . S
C3052 C3051 1.403 . S
C3052 C3053 1.404 . S
C3052 C3055 1.539 . S
C3053 C3049 1.408 . S
C3053 C3052 1.404 . S
C3053 H3065 0.930 . S
C3054 C3050 1.524 . S
C3054 H3066 0.956 . S
C3054 H3067 0.961 . S
C3054 H3068 0.961 . S
C3055 C3052 1.539 . S
C3055 H3069 0.958 . S
C3055 H3070 0.961 . S
C3055 H3071 0.960 . S
H3056 C3040 0.931 . S
H3057 C3045 0.929 . S
H3058 C3046 0.960 . S
H3059 C3046 0.962 . S
H3060 C3046 0.960 . S
H3061 C3047 0.961 . S
H3062 C3047 0.961 . S
H3063 C3047 0.961 . S
H3064 C3048 0.931 . S
H3065 C3053 0.930 . S
H3066 C3054 0.956 . S
H3067 C3054 0.961 . S
H3068 C3054 0.961 . S
H3069 C3055 0.958 . S
H3070 C3055 0.961 . S
H3071 C3055 0.960 . S
C3072 C3073 1.391 . S
C3072 C3074 1.394 . S
C3072 H3088 0.931 . S
C3073 C3072 1.391 . S
C3073 C3077 1.376 . S
C3074 C3072 1.394 . S
C3074 C3075 1.369 . S
C3074 C3078 1.531 . S
C3075 C3074 1.369 . S
C3075 C3076 1.410 . S
C3075 C3083 1.503 . S
C3076 C3075 1.410 . S
C3076 C3077 1.392 . S
C3076 C3079 1.511 . S
C3077 C3073 1.376 . S
C3077 C3076 1.392 . S
C3077 H3089 0.929 . S
C3078 C3074 1.531 . S
C3078 H3090 0.960 . S
C3078 H3091 0.962 . S
C3078 H3092 0.960 . S
C3079 C3076 1.511 . S
C3079 H3093 0.961 . S
C3079 H3094 0.961 . S
C3079 H3095 0.961 . S
C3080 C3081 1.370 . S
C3080 C3082 1.363 . S
C3080 H3096 0.931 . S
C3081 C3080 1.370 . S
C3081 C3085 1.408 . S
C3082 C3080 1.363 . S
C3082 C3083 1.370 . S
C3082 C3086 1.524 . S
C3083 C3075 1.503 . S
C3083 C3082 1.370 . S
C3083 C3084 1.403 . S
C3084 C3083 1.403 . S
C3084 C3085 1.404 . S
C3084 C3087 1.539 . S
C3085 C3081 1.408 . S
C3085 C3084 1.404 . S
C3085 H3097 0.930 . S
C3086 C3082 1.524 . S
C3086 H3098 0.956 . S
C3086 H3099 0.961 . S
C3086 H3100 0.961 . S
C3087 C3084 1.539 . S
C3087 H3101 0.958 . S
C3087 H3102 0.961 . S
C3087 H3103 0.960 . S
H3088 C3072 0.931 . S
H3089 C3077 0.929 . S
H3090 C3078 0.960 . S
H3091 C3078 0.962 . S
H3092 C3078 0.960 . S
H3093 C3079 0.961 . S
H3094 C3079 0.961 . S
H3095 C3079 0.961 . S
H3096 C3080 0.931 . S
H3097 C3085 0.930 . S
H3098 C3086 0.956 . S
H3099 C3086 0.961 . S
H3100 C3086 0.961 . S
H3101 C3087 0.958 . S
H3102 C3087 0.961 . S
H3103 C3087 0.960 . S
C3104 C3105 1.391 . S
C3104 C3106 1.394 . S
C3104 H3120 0.931 . S
C3105 C3104 1.391 . S
C3105 C3109 1.376 . S
C3106 C3104 1.394 . S
C3106 C3107 1.369 . S
C3106 C3110 1.531 . S
C3107 C3106 1.369 . S
C3107 C3108 1.410 . S
C3107 C3115 1.503 . S
C3108 C3107 1.410 . S
C3108 C3109 1.392 . S
C3108 C3111 1.511 . S
C3109 C3105 1.376 . S
C3109 C3108 1.392 . S
C3109 H3121 0.929 . S
C3110 C3106 1.531 . S
C3110 H3122 0.960 . S
C3110 H3123 0.962 . S
C3110 H3124 0.960 . S
C3111 C3108 1.511 . S
C3111 H3125 0.961 . S
C3111 H3126 0.961 . S
C3111 H3127 0.961 . S
C3112 C3113 1.370 . S
C3112 C3114 1.363 . S
C3112 H3128 0.931 . S
C3113 C3112 1.370 . S
C3113 C3117 1.408 . S
C3114 C3112 1.363 . S
C3114 C3115 1.370 . S
C3114 C3118 1.524 . S
C3115 C3107 1.503 . S
C3115 C3114 1.370 . S
C3115 C3116 1.403 . S
C3116 C3115 1.403 . S
C3116 C3117 1.404 . S
C3116 C3119 1.539 . S
C3117 C3113 1.408 . S
C3117 C3116 1.404 . S
C3117 H3129 0.930 . S
C3118 C3114 1.524 . S
C3118 H3130 0.956 . S
C3118 H3131 0.961 . S
C3118 H3132 0.961 . S
C3119 C3116 1.539 . S
C3119 H3133 0.958 . S
C3119 H3134 0.961 . S
C3119 H3135 0.960 . S
H3120 C3104 0.931 . S
H3121 C3109 0.929 . S
H3122 C3110 0.960 . S
H3123 C3110 0.962 . S
H3124 C3110 0.960 . S
H3125 C3111 0.961 . S
H3126 C3111 0.961 . S
H3127 C3111 0.961 . S
H3128 C3112 0.931 . S
H3129 C3117 0.930 . S
H3130 C3118 0.956 . S
H3131 C3118 0.961 . S
H3132 C3118 0.961 . S
H3133 C3119 0.958 . S
H3134 C3119 0.961 . S
H3135 C3119 0.960 . S
C3136 C3137 1.391 . S
C3136 C3138 1.394 . S
C3136 H3152 0.931 . S
C3137 C3136 1.391 . S
C3137 C3141 1.376 . S
C3138 C3136 1.394 . S
C3138 C3139 1.369 . S
C3138 C3142 1.531 . S
C3139 C3138 1.369 . S
C3139 C3140 1.410 . S
C3139 C3147 1.503 . S
C3140 C3139 1.410 . S
C3140 C3141 1.392 . S
C3140 C3143 1.511 . S
C3141 C3137 1.376 . S
C3141 C3140 1.392 . S
C3141 H3153 0.929 . S
C3142 C3138 1.531 . S
C3142 H3154 0.960 . S
C3142 H3155 0.962 . S
C3142 H3156 0.960 . S
C3143 C3140 1.511 . S
C3143 H3157 0.961 . S
C3143 H3158 0.961 . S
C3143 H3159 0.961 . S
C3144 C3145 1.370 . S
C3144 C3146 1.363 . S
C3144 H3160 0.931 . S
C3145 C3144 1.370 . S
C3145 C3149 1.408 . S
C3146 C3144 1.363 . S
C3146 C3147 1.370 . S
C3146 C3150 1.524 . S
C3147 C3139 1.503 . S
C3147 C3146 1.370 . S
C3147 C3148 1.403 . S
C3148 C3147 1.403 . S
C3148 C3149 1.404 . S
C3148 C3151 1.539 . S
C3149 C3145 1.408 . S
C3149 C3148 1.404 . S
C3149 H3161 0.930 . S
C3150 C3146 1.524 . S
C3150 H3162 0.956 . S
C3150 H3163 0.961 . S
C3150 H3164 0.961 . S
C3151 C3148 1.539 . S
C3151 H3165 0.958 . S
C3151 H3166 0.961 . S
C3151 H3167 0.960 . S
H3152 C3136 0.931 . S
H3153 C3141 0.929 . S
H3154 C3142 0.960 . S
H3155 C3142 0.962 . S
H3156 C3142 0.960 . S
H3157 C3143 0.961 . S
H3158 C3143 0.961 . S
H3159 C3143 0.961 . S
H3160 C3144 0.931 . S
H3161 C3149 0.930 . S
H3162 C3150 0.956 . S
H3163 C3150 0.961 . S
H3164 C3150 0.961 . S
H3165 C3151 0.958 . S
H3166 C3151 0.961 . S
H3167 C3151 0.960 . S
C3168 C3169 1.391 . S
C3168 C3170 1.394 . S
C3168 H3184 0.931 . S
C3169 C3168 1.391 . S
C3169 C3173 1.376 . S
C3170 C3168 1.394 . S
C3170 C3171 1.369 . S
C3170 C3174 1.531 . S
C3171 C3170 1.369 . S
C3171 C3172 1.410 . S
C3171 C3179 1.503 . S
C3172 C3171 1.410 . S
C3172 C3173 1.392 . S
C3172 C3175 1.511 . S
C3173 C3169 1.376 . S
C3173 C3172 1.392 . S
C3173 H3185 0.929 . S
C3174 C3170 1.531 . S
C3174 H3186 0.960 . S
C3174 H3187 0.962 . S
C3174 H3188 0.960 . S
C3175 C3172 1.511 . S
C3175 H3189 0.961 . S
C3175 H3190 0.961 . S
C3175 H3191 0.961 . S
C3176 C3177 1.370 . S
C3176 C3178 1.363 . S
C3176 H3192 0.931 . S
C3177 C3176 1.370 . S
C3177 C3181 1.408 . S
C3178 C3176 1.363 . S
C3178 C3179 1.370 . S
C3178 C3182 1.524 . S
C3179 C3171 1.503 . S
C3179 C3178 1.370 . S
C3179 C3180 1.403 . S
C3180 C3179 1.403 . S
C3180 C3181 1.404 . S
C3180 C3183 1.539 . S
C3181 C3177 1.408 . S
C3181 C3180 1.404 . S
C3181 H3193 0.930 . S
C3182 C3178 1.524 . S
C3182 H3194 0.956 . S
C3182 H3195 0.961 . S
C3182 H3196 0.961 . S
C3183 C3180 1.539 . S
C3183 H3197 0.958 . S
C3183 H3198 0.961 . S
C3183 H3199 0.960 . S
H3184 C3168 0.931 . S
H3185 C3173 0.929 . S
H3186 C3174 0.960 . S
H3187 C3174 0.962 . S
H3188 C3174 0.960 . S
H3189 C3175 0.961 . S
H3190 C3175 0.961 . S
H3191 C3175 0.961 . S
H3192 C3176 0.931 . S
H3193 C3181 0.930 . S
H3194 C3182 0.956 . S
H3195 C3182 0.961 . S
H3196 C3182 0.961 . S
H3197 C3183 0.958 . S
H3198 C3183 0.961 . S
H3199 C3183 0.960 . S
C3200 C3201 1.391 . S
C3200 C3202 1.394 . S
C3200 H3216 0.931 . S
C3201 C3200 1.391 . S
C3201 C3205 1.376 . S
C3202 C3200 1.394 . S
C3202 C3203 1.369 . S
C3202 C3206 1.531 . S
C3203 C3202 1.369 . S
C3203 C3204 1.410 . S
C3203 C3211 1.503 . S
C3204 C3203 1.410 . S
C3204 C3205 1.392 . S
C3204 C3207 1.511 . S
C3205 C3201 1.376 . S
C3205 C3204 1.392 . S
C3205 H3217 0.929 . S
C3206 C3202 1.531 . S
C3206 H3218 0.960 . S
C3206 H3219 0.962 . S
C3206 H3220 0.960 . S
C3207 C3204 1.511 . S
C3207 H3221 0.961 . S
C3207 H3222 0.961 . S
C3207 H3223 0.961 . S
C3208 C3209 1.370 . S
C3208 C3210 1.363 . S
C3208 H3224 0.931 . S
C3209 C3208 1.370 . S
C3209 C3213 1.408 . S
C3210 C3208 1.363 . S
C3210 C3211 1.370 . S
C3210 C3214 1.524 . S
C3211 C3203 1.503 . S
C3211 C3210 1.370 . S
C3211 C3212 1.403 . S
C3212 C3211 1.403 . S
C3212 C3213 1.404 . S
C3212 C3215 1.539 . S
C3213 C3209 1.408 . S
C3213 C3212 1.404 . S
C3213 H3225 0.930 . S
C3214 C3210 1.524 . S
C3214 H3226 0.956 . S
C3214 H3227 0.961 . S
C3214 H3228 0.961 . S
C3215 C3212 1.539 . S
C3215 H3229 0.958 . S
C3215 H3230 0.961 . S
C3215 H3231 0.960 . S
H3216 C3200 0.931 . S
H3217 C3205 0.929 . S
H3218 C3206 0.960 . S
H3219 C3206 0.962 . S
H3220 C3206 0.960 . S
H3221 C3207 0.961 . S
H3222 C3207 0.961 . S
H3223 C3207 0.961 . S
H3224 C3208 0.931 . S
H3225 C3213 0.930 . S
H3226 C3214 0.956 . S
H3227 C3214 0.961 . S
H3228 C3214 0.961 . S
H3229 C3215 0.958 . S
H3230 C3215 0.961 . S
H3231 C3215 0.960 . S
C3232 C3233 1.391 . S
C3232 C3234 1.394 . S
C3232 H3248 0.931 . S
C3233 C3232 1.391 . S
C3233 C3237 1.376 . S
C3234 C3232 1.394 . S
C3234 C3235 1.369 . S
C3234 C3238 1.531 . S
C3235 C3234 1.369 . S
C3235 C3236 1.410 . S
C3235 C3243 1.503 . S
C3236 C3235 1.410 . S
C3236 C3237 1.392 . S
C3236 C3239 1.511 . S
C3237 C3233 1.376 . S
C3237 C3236 1.392 . S
C3237 H3249 0.929 . S
C3238 C3234 1.531 . S
C3238 H3250 0.960 . S
C3238 H3251 0.962 . S
C3238 H3252 0.960 . S
C3239 C3236 1.511 . S
C3239 H3253 0.961 . S
C3239 H3254 0.961 . S
C3239 H3255 0.961 . S
C3240 C3241 1.370 . S
C3240 C3242 1.363 . S
C3240 H3256 0.931 . S
C3241 C3240 1.370 . S
C3241 C3245 1.408 . S
C3242 C3240 1.363 . S
C3242 C3243 1.370 . S
C3242 C3246 1.524 . S
C3243 C3235 1.503 . S
C3243 C3242 1.370 . S
C3243 C3244 1.403 . S
C3244 C3243 1.403 . S
C3244 C3245 1.404 . S
C3244 C3247 1.539 . S
C3245 C3241 1.408 . S
C3245 C3244 1.404 . S
C3245 H3257 0.930 . S
C3246 C3242 1.524 . S
C3246 H3258 0.956 . S
C3246 H3259 0.961 . S
C3246 H3260 0.961 . S
C3247 C3244 1.539 . S
C3247 H3261 0.958 . S
C3247 H3262 0.961 . S
C3247 H3263 0.960 . S
H3248 C3232 0.931 . S
H3249 C3237 0.929 . S
H3250 C3238 0.960 . S
H3251 C3238 0.962 . S
H3252 C3238 0.960 . S
H3253 C3239 0.961 . S
H3254 C3239 0.961 . S
H3255 C3239 0.961 . S
H3256 C3240 0.931 . S
H3257 C3245 0.930 . S
H3258 C3246 0.956 . S
H3259 C3246 0.961 . S
H3260 C3246 0.961 . S
H3261 C3247 0.958 . S
H3262 C3247 0.961 . S
H3263 C3247 0.960 . S
C3264 C3265 1.391 . S
C3264 C3266 1.394 . S
C3264 H3280 0.931 . S
C3265 C3264 1.391 . S
C3265 C3269 1.376 . S
C3266 C3264 1.394 . S
C3266 C3267 1.369 . S
C3266 C3270 1.531 . S
C3267 C3266 1.369 . S
C3267 C3268 1.410 . S
C3267 C3275 1.503 . S
C3268 C3267 1.410 . S
C3268 C3269 1.392 . S
C3268 C3271 1.511 . S
C3269 C3265 1.376 . S
C3269 C3268 1.392 . S
C3269 H3281 0.929 . S
C3270 C3266 1.531 . S
C3270 H3282 0.960 . S
C3270 H3283 0.962 . S
C3270 H3284 0.960 . S
C3271 C3268 1.511 . S
C3271 H3285 0.961 . S
C3271 H3286 0.961 . S
C3271 H3287 0.961 . S
C3272 C3273 1.370 . S
C3272 C3274 1.363 . S
C3272 H3288 0.931 . S
C3273 C3272 1.370 . S
C3273 C3277 1.408 . S
C3274 C3272 1.363 . S
C3274 C3275 1.370 . S
C3274 C3278 1.524 . S
C3275 C3267 1.503 . S
C3275 C3274 1.370 . S
C3275 C3276 1.403 . S
C3276 C3275 1.403 . S
C3276 C3277 1.404 . S
C3276 C3279 1.539 . S
C3277 C3273 1.408 . S
C3277 C3276 1.404 . S
C3277 H3289 0.930 . S
C3278 C3274 1.524 . S
C3278 H3290 0.956 . S
C3278 H3291 0.961 . S
C3278 H3292 0.961 . S
C3279 C3276 1.539 . S
C3279 H3293 0.958 . S
C3279 H3294 0.961 . S
C3279 H3295 0.960 . S
H3280 C3264 0.931 . S
H3281 C3269 0.929 . S
H3282 C3270 0.960 . S
H3283 C3270 0.962 . S
H3284 C3270 0.960 . S
H3285 C3271 0.961 . S
H3286 C3271 0.961 . S
H3287 C3271 0.961 . S
H3288 C3272 0.931 . S
H3289 C3277 0.930 . S
H3290 C3278 0.956 . S
H3291 C3278 0.961 . S
H3292 C3278 0.961 . S
H3293 C3279 0.958 . S
H3294 C3279 0.961 . S
H3295 C3279 0.960 . S
C3296 C3297 1.391 . S
C3296 C3298 1.394 . S
C3296 H3312 0.931 . S
C3297 C3296 1.391 . S
C3297 C3301 1.376 . S
C3298 C3296 1.394 . S
C3298 C3299 1.369 . S
C3298 C3302 1.531 . S
C3299 C3298 1.369 . S
C3299 C3300 1.410 . S
C3299 C3307 1.503 . S
C3300 C3299 1.410 . S
C3300 C3301 1.392 . S
C3300 C3303 1.511 . S
C3301 C3297 1.376 . S
C3301 C3300 1.392 . S
C3301 H3313 0.929 . S
C3302 C3298 1.531 . S
C3302 H3314 0.960 . S
C3302 H3315 0.962 . S
C3302 H3316 0.960 . S
C3303 C3300 1.511 . S
C3303 H3317 0.961 . S
C3303 H3318 0.961 . S
C3303 H3319 0.961 . S
C3304 C3305 1.370 . S
C3304 C3306 1.363 . S
C3304 H3320 0.931 . S
C3305 C3304 1.370 . S
C3305 C3309 1.408 . S
C3306 C3304 1.363 . S
C3306 C3307 1.370 . S
C3306 C3310 1.524 . S
C3307 C3299 1.503 . S
C3307 C3306 1.370 . S
C3307 C3308 1.403 . S
C3308 C3307 1.403 . S
C3308 C3309 1.404 . S
C3308 C3311 1.539 . S
C3309 C3305 1.408 . S
C3309 C3308 1.404 . S
C3309 H3321 0.930 . S
C3310 C3306 1.524 . S
C3310 H3322 0.956 . S
C3310 H3323 0.961 . S
C3310 H3324 0.961 . S
C3311 C3308 1.539 . S
C3311 H3325 0.958 . S
C3311 H3326 0.961 . S
C3311 H3327 0.960 . S
H3312 C3296 0.931 . S
H3313 C3301 0.929 . S
H3314 C3302 0.960 . S
H3315 C3302 0.962 . S
H3316 C3302 0.960 . S
H3317 C3303 0.961 . S
H3318 C3303 0.961 . S
H3319 C3303 0.961 . S
H3320 C3304 0.931 . S
H3321 C3309 0.930 . S
H3322 C3310 0.956 . S
H3323 C3310 0.961 . S
H3324 C3310 0.961 . S
H3325 C3311 0.958 . S
H3326 C3311 0.961 . S
H3327 C3311 0.960 . S
C3328 C3329 1.391 . S
C3328 C3330 1.394 . S
C3328 H3344 0.931 . S
C3329 C3328 1.391 . S
C3329 C3333 1.376 . S
C3330 C3328 1.394 . S
C3330 C3331 1.369 . S
C3330 C3334 1.531 . S
C3331 C3330 1.369 . S
C3331 C3332 1.410 . S
C3331 C3339 1.503 . S
C3332 C3331 1.410 . S
C3332 C3333 1.392 . S
C3332 C3335 1.511 . S
C3333 C3329 1.376 . S
C3333 C3332 1.392 . S
C3333 H3345 0.929 . S
C3334 C3330 1.531 . S
C3334 H3346 0.960 . S
C3334 H3347 0.962 . S
C3334 H3348 0.960 . S
C3335 C3332 1.511 . S
C3335 H3349 0.961 . S
C3335 H3350 0.961 . S
C3335 H3351 0.961 . S
C3336 C3337 1.370 . S
C3336 C3338 1.363 . S
C3336 H3352 0.931 . S
C3337 C3336 1.370 . S
C3337 C3341 1.408 . S
C3338 C3336 1.363 . S
C3338 C3339 1.370 . S
C3338 C3342 1.524 . S
C3339 C3331 1.503 . S
C3339 C3338 1.370 . S
C3339 C3340 1.403 . S
C3340 C3339 1.403 . S
C3340 C3341 1.404 . S
C3340 C3343 1.539 . S
C3341 C3337 1.408 . S
C3341 C3340 1.404 . S
C3341 H3353 0.930 . S
C3342 C3338 1.524 . S
C3342 H3354 0.956 . S
C3342 H3355 0.961 . S
C3342 H3356 0.961 . S
C3343 C3340 1.539 . S
C3343 H3357 0.958 . S
C3343 H3358 0.961 . S
C3343 H3359 0.960 . S
H3344 C3328 0.931 . S
H3345 C3333 0.929 . S
H3346 C3334 0.960 . S
H3347 C3334 0.962 . S
H3348 C3334 0.960 . S
H3349 C3335 0.961 . S
H3350 C3335 0.961 . S
H3351 C3335 0.961 . S
H3352 C3336 0.931 . S
H3353 C3341 0.930 . S
H3354 C3342 0.956 . S
H3355 C3342 0.961 . S
H3356 C3342 0.961 . S
H3357 C3343 0.958 . S
H3358 C3343 0.961 . S
H3359 C3343 0.960 . S
C3360 C3361 1.391 . S
C3360 C3362 1.394 . S
C3360 H3376 0.931 . S
C3361 C3360 1.391 . S
C3361 C3365 1.376 . S
C3362 C3360 1.394 . S
C3362 C3363 1.369 . S
C3362 C3366 1.531 . S
C3363 C3362 1.369 . S
C3363 C3364 1.410 . S
C3363 C3371 1.503 . S
C3364 C3363 1.410 . S
C3364 C3365 1.392 . S
C3364 C3367 1.511 . S
C3365 C3361 1.376 . S
C3365 C3364 1.392 . S
C3365 H3377 0.929 . S
C3366 C3362 1.531 . S
C3366 H3378 0.960 . S
C3366 H3379 0.962 . S
C3366 H3380 0.960 . S
C3367 C3364 1.511 . S
C3367 H3381 0.961 . S
C3367 H3382 0.961 . S
C3367 H3383 0.961 . S
C3368 C3369 1.370 . S
C3368 C3370 1.363 . S
C3368 H3384 0.931 . S
C3369 C3368 1.370 . S
C3369 C3373 1.408 . S
C3370 C3368 1.363 . S
C3370 C3371 1.370 . S
C3370 C3374 1.524 . S
C3371 C3363 1.503 . S
C3371 C3370 1.370 . S
C3371 C3372 1.403 . S
C3372 C3371 1.403 . S
C3372 C3373 1.404 . S
C3372 C3375 1.539 . S
C3373 C3369 1.408 . S
C3373 C3372 1.404 . S
C3373 H3385 0.930 . S
C3374 C3370 1.524 . S
C3374 H3386 0.956 . S
C3374 H3387 0.961 . S
C3374 H3388 0.961 . S
C3375 C3372 1.539 . S
C3375 H3389 0.958 . S
C3375 H3390 0.961 . S
C3375 H3391 0.960 . S
H3376 C3360 0.931 . S
H3377 C3365 0.929 . S
H3378 C3366 0.960 . S
H3379 C3366 0.962 . S
H3380 C3366 0.960 . S
H3381 C3367 0.961 . S
H3382 C3367 0.961 . S
H3383 C3367 0.961 . S
H3384 C3368 0.931 . S
H3385 C3373 0.930 . S
H3386 C3374 0.956 . S
H3387 C3374 0.961 . S
H3388 C3374 0.961 . S
H3389 C3375 0.958 . S
H3390 C3375 0.961 . S
H3391 C3375 0.960 . S
C3392 C3393 1.391 . S
C3392 C3394 1.394 . S
C3392 H3408 0.931 . S
C3393 C3392 1.391 . S
C3393 C3397 1.376 . S
C3394 C3392 1.394 . S
C3394 C3395 1.369 . S
C3394 C3398 1.531 . S
C3395 C3394 1.369 . S
C3395 C3396 1.410 . S
C3395 C3403 1.503 . S
C3396 C3395 1.410 . S
C3396 C3397 1.392 . S
C3396 C3399 1.511 . S
C3397 C3393 1.376 . S
C3397 C3396 1.392 . S
C3397 H3409 0.929 . S
C3398 C3394 1.531 . S
C3398 H3410 0.960 . S
C3398 H3411 0.962 . S
C3398 H3412 0.960 . S
C3399 C3396 1.511 . S
C3399 H3413 0.961 . S
C3399 H3414 0.961 . S
C3399 H3415 0.961 . S
C3400 C3401 1.370 . S
C3400 C3402 1.363 . S
C3400 H3416 0.931 . S
C3401 C3400 1.370 . S
C3401 C3405 1.408 . S
C3402 C3400 1.363 . S
C3402 C3403 1.370 . S
C3402 C3406 1.524 . S
C3403 C3395 1.503 . S
C3403 C3402 1.370 . S
C3403 C3404 1.403 . S
C3404 C3403 1.403 . S
C3404 C3405 1.404 . S
C3404 C3407 1.539 . S
C3405 C3401 1.408 . S
C3405 C3404 1.404 . S
C3405 H3417 0.930 . S
C3406 C3402 1.524 . S
C3406 H3418 0.956 . S
C3406 H3419 0.961 . S
C3406 H3420 0.961 . S
C3407 C3404 1.539 . S
C3407 H3421 0.958 . S
C3407 H3422 0.961 . S
C3407 H3423 0.960 . S
H3408 C3392 0.931 . S
H3409 C3397 0.929 . S
H3410 C3398 0.960 . S
H3411 C3398 0.962 . S
H3412 C3398 0.960 . S
H3413 C3399 0.961 . S
H3414 C3399 0.961 . S
H3415 C3399 0.961 . S
H3416 C3400 0.931 . S
H3417 C3405 0.930 . S
H3418 C3406 0.956 . S
H3419 C3406 0.961 . S
H3420 C3406 0.961 . S
H3421 C3407 0.958 . S
H3422 C3407 0.961 . S
H3423 C3407 0.960 . S
C3424 C3425 1.391 . S
C3424 C3426 1.394 . S
C3424 H3440 0.931 . S
C3425 C3424 1.391 . S
C3425 C3429 1.376 . S
C3426 C3424 1.394 . S
C3426 C3427 1.369 . S
C3426 C3430 1.531 . S
C3427 C3426 1.369 . S
C3427 C3428 1.410 . S
C3427 C3435 1.503 . S
C3428 C3427 1.410 . S
C3428 C3429 1.392 . S
C3428 C3431 1.511 . S
C3429 C3425 1.376 . S
C3429 C3428 1.392 . S
C3429 H3441 0.929 . S
C3430 C3426 1.531 . S
C3430 H3442 0.960 . S
C3430 H3443 0.962 . S
C3430 H3444 0.960 . S
C3431 C3428 1.511 . S
C3431 H3445 0.961 . S
C3431 H3446 0.961 . S
C3431 H3447 0.961 . S
C3432 C3433 1.370 . S
C3432 C3434 1.363 . S
C3432 H3448 0.931 . S
C3433 C3432 1.370 . S
C3433 C3437 1.408 . S
C3434 C3432 1.363 . S
C3434 C3435 1.370 . S
C3434 C3438 1.524 . S
C3435 C3427 1.503 . S
C3435 C3434 1.370 . S
C3435 C3436 1.403 . S
C3436 C3435 1.403 . S
C3436 C3437 1.404 . S
C3436 C3439 1.539 . S
C3437 C3433 1.408 . S
C3437 C3436 1.404 . S
C3437 H3449 0.930 . S
C3438 C3434 1.524 . S
C3438 H3450 0.956 . S
C3438 H3451 0.961 . S
C3438 H3452 0.961 . S
C3439 C3436 1.539 . S
C3439 H3453 0.958 . S
C3439 H3454 0.961 . S
C3439 H3455 0.960 . S
H3440 C3424 0.931 . S
H3441 C3429 0.929 . S
H3442 C3430 0.960 . S
H3443 C3430 0.962 . S
H3444 C3430 0.960 . S
H3445 C3431 0.961 . S
H3446 C3431 0.961 . S
H3447 C3431 0.961 . S
H3448 C3432 0.931 . S
H3449 C3437 0.930 . S
H3450 C3438 0.956 . S
H3451 C3438 0.961 . S
H3452 C3438 0.961 . S
H3453 C3439 0.958 . S
H3454 C3439 0.961 . S
H3455 C3439 0.960 . S
C3456 C3457 1.391 . S
C3456 C3458 1.394 . S
C3456 H3472 0.931 . S
C3457 C3456 1.391 . S
C3457 C3461 1.376 . S
C3458 C3456 1.394 . S
C3458 C3459 1.369 . S
C3458 C3462 1.531 . S
C3459 C3458 1.369 . S
C3459 C3460 1.410 . S
C3459 C3467 1.503 . S
C3460 C3459 1.410 . S
C3460 C3461 1.392 . S
C3460 C3463 1.511 . S
C3461 C3457 1.376 . S
C3461 C3460 1.392 . S
C3461 H3473 0.929 . S
C3462 C3458 1.531 . S
C3462 H3474 0.960 . S
C3462 H3475 0.962 . S
C3462 H3476 0.960 . S
C3463 C3460 1.511 . S
C3463 H3477 0.961 . S
C3463 H3478 0.961 . S
C3463 H3479 0.961 . S
C3464 C3465 1.370 . S
C3464 C3466 1.363 . S
C3464 H3480 0.931 . S
C3465 C3464 1.370 . S
C3465 C3469 1.408 . S
C3466 C3464 1.363 . S
C3466 C3467 1.370 . S
C3466 C3470 1.524 . S
C3467 C3459 1.503 . S
C3467 C3466 1.370 . S
C3467 C3468 1.403 . S
C3468 C3467 1.403 . S
C3468 C3469 1.404 . S
C3468 C3471 1.539 . S
C3469 C3465 1.408 . S
C3469 C3468 1.404 . S
C3469 H3481 0.930 . S
C3470 C3466 1.524 . S
C3470 H3482 0.956 . S
C3470 H3483 0.961 . S
C3470 H3484 0.961 . S
C3471 C3468 1.539 . S
C3471 H3485 0.958 . S
C3471 H3486 0.961 . S
C3471 H3487 0.960 . S
H3472 C3456 0.931 . S
H3473 C3461 0.929 . S
H3474 C3462 0.960 . S
H3475 C3462 0.962 . S
H3476 C3462 0.960 . S
H3477 C3463 0.961 . S
H3478 C3463 0.961 . S
H3479 C3463 0.961 . S
H3480 C3464 0.931 . S
H3481 C3469 0.930 . S
H3482 C3470 0.956 . S
H3483 C3470 0.961 . S
H3484 C3470 0.961 . S
H3485 C3471 0.958 . S
H3486 C3471 0.961 . S
H3487 C3471 0.960 . S
C3488 C3489 1.391 . S
C3488 C3490 1.394 . S
C3488 H3504 0.931 . S
C3489 C3488 1.391 . S
C3489 C3493 1.376 . S
C3490 C3488 1.394 . S
C3490 C3491 1.369 . S
C3490 C3494 1.531 . S
C3491 C3490 1.369 . S
C3491 C3492 1.410 . S
C3491 C3499 1.503 . S
C3492 C3491 1.410 . S
C3492 C3493 1.392 . S
C3492 C3495 1.511 . S
C3493 C3489 1.376 . S
C3493 C3492 1.392 . S
C3493 H3505 0.929 . S
C3494 C3490 1.531 . S
C3494 H3506 0.960 . S
C3494 H3507 0.962 . S
C3494 H3508 0.960 . S
C3495 C3492 1.511 . S
C3495 H3509 0.961 . S
C3495 H3510 0.961 . S
C3495 H3511 0.961 . S
C3496 C3497 1.370 . S
C3496 C3498 1.363 . S
C3496 H3512 0.931 . S
C3497 C3496 1.370 . S
C3497 C3501 1.408 . S
C3498 C3496 1.363 . S
C3498 C3499 1.370 . S
C3498 C3502 1.524 . S
C3499 C3491 1.503 . S
C3499 C3498 1.370 . S
C3499 C3500 1.403 . S
C3500 C3499 1.403 . S
C3500 C3501 1.404 . S
C3500 C3503 1.539 . S
C3501 C3497 1.408 . S
C3501 C3500 1.404 . S
C3501 H3513 0.930 . S
C3502 C3498 1.524 . S
C3502 H3514 0.956 . S
C3502 H3515 0.961 . S
C3502 H3516 0.961 . S
C3503 C3500 1.539 . S
C3503 H3517 0.958 . S
C3503 H3518 0.961 . S
C3503 H3519 0.960 . S
H3504 C3488 0.931 . S
H3505 C3493 0.929 . S
H3506 C3494 0.960 . S
H3507 C3494 0.962 . S
H3508 C3494 0.960 . S
H3509 C3495 0.961 . S
H3510 C3495 0.961 . S
H3511 C3495 0.961 . S
H3512 C3496 0.931 . S
H3513 C3501 0.930 . S
H3514 C3502 0.956 . S
H3515 C3502 0.961 . S
H3516 C3502 0.961 . S
H3517 C3503 0.958 . S
H3518 C3503 0.961 . S
H3519 C3503 0.960 . S
C3520 C3521 1.391 . S
C3520 C3522 1.394 . S
C3520 H3536 0.931 . S
C3521 C3520 1.391 . S
C3521 C3525 1.376 . S
C3522 C3520 1.394 . S
C3522 C3523 1.369 . S
C3522 C3526 1.531 . S
C3523 C3522 1.369 . S
C3523 C3524 1.410 . S
C3523 C3531 1.503 . S
C3524 C3523 1.410 . S
C3524 C3525 1.392 . S
C3524 C3527 1.511 . S
C3525 C3521 1.376 . S
C3525 C3524 1.392 . S
C3525 H3537 0.929 . S
C3526 C3522 1.531 . S
C3526 H3538 0.960 . S
C3526 H3539 0.962 . S
C3526 H3540 0.960 . S
C3527 C3524 1.511 . S
C3527 H3541 0.961 . S
C3527 H3542 0.961 . S
C3527 H3543 0.961 . S
C3528 C3529 1.370 . S
C3528 C3530 1.363 . S
C3528 H3544 0.931 . S
C3529 C3528 1.370 . S
C3529 C3533 1.408 . S
C3530 C3528 1.363 . S
C3530 C3531 1.370 . S
C3530 C3534 1.524 . S
C3531 C3523 1.503 . S
C3531 C3530 1.370 . S
C3531 C3532 1.403 . S
C3532 C3531 1.403 . S
C3532 C3533 1.404 . S
C3532 C3535 1.539 . S
C3533 C3529 1.408 . S
C3533 C3532 1.404 . S
C3533 H3545 0.930 . S
C3534 C3530 1.524 . S
C3534 H3546 0.956 . S
C3534 H3547 0.961 . S
C3534 H3548 0.961 . S
C3535 C3532 1.539 . S
C3535 H3549 0.958 . S
C3535 H3550 0.961 . S
C3535 H3551 0.960 . S
H3536 C3520 0.931 . S
H3537 C3525 0.929 . S
H3538 C3526 0.960 . S
H3539 C3526 0.962 . S
H3540 C3526 0.960 . S
H3541 C3527 0.961 . S
H3542 C3527 0.961 . S
H3543 C3527 0.961 . S
H3544 C3528 0.931 . S
H3545 C3533 0.930 . S
H3546 C3534 0.956 . S
H3547 C3534 0.961 . S
H3548 C3534 0.961 . S
H3549 C3535 0.958 . S
H3550 C3535 0.961 . S
H3551 C3535 0.960 . S
C3552 C3553 1.391 . S
C3552 C3554 1.394 . S
C3552 H3568 0.931 . S
C3553 C3552 1.391 . S
C3553 C3557 1.376 . S
C3554 C3552 1.394 . S
C3554 C3555 1.369 . S
C3554 C3558 1.531 . S
C3555 C3554 1.369 . S
C3555 C3556 1.410 . S
C3555 C3563 1.503 . S
C3556 C3555 1.410 . S
C3556 C3557 1.392 . S
C3556 C3559 1.511 . S
C3557 C3553 1.376 . S
C3557 C3556 1.392 . S
C3557 H3569 0.929 . S
C3558 C3554 1.531 . S
C3558 H3570 0.960 . S
C3558 H3571 0.962 . S
C3558 H3572 0.960 . S
C3559 C3556 1.511 . S
C3559 H3573 0.961 . S
C3559 H3574 0.961 . S
C3559 H3575 0.961 . S
C3560 C3561 1.370 . S
C3560 C3562 1.363 . S
C3560 H3576 0.931 . S
C3561 C3560 1.370 . S
C3561 C3565 1.408 . S
C3562 C3560 1.363 . S
C3562 C3563 1.370 . S
C3562 C3566 1.524 . S
C3563 C3555 1.503 . S
C3563 C3562 1.370 . S
C3563 C3564 1.403 . S
C3564 C3563 1.403 . S
C3564 C3565 1.404 . S
C3564 C3567 1.539 . S
C3565 C3561 1.408 . S
C3565 C3564 1.404 . S
C3565 H3577 0.930 . S
C3566 C3562 1.524 . S
C3566 H3578 0.956 . S
C3566 H3579 0.961 . S
C3566 H3580 0.961 . S
C3567 C3564 1.539 . S
C3567 H3581 0.958 . S
C3567 H3582 0.961 . S
C3567 H3583 0.960 . S
H3568 C3552 0.931 . S
H3569 C3557 0.929 . S
H3570 C3558 0.960 . S
H3571 C3558 0.962 . S
H3572 C3558 0.960 . S
H3573 C3559 0.961 . S
H3574 C3559 0.961 . S
H3575 C3559 0.961 . S
H3576 C3560 0.931 . S
H3577 C3565 0.930 . S
H3578 C3566 0.956 . S
H3579 C3566 0.961 . S
H3580 C3566 0.961 . S
H3581 C3567 0.958 . S
H3582 C3567 0.961 . S
H3583 C3567 0.960 . S
C3584 C3585 1.391 . S
C3584 C3586 1.394 . S
C3584 H3600 0.931 . S
C3585 C3584 1.391 . S
C3585 C3589 1.376 . S
C3586 C3584 1.394 . S
C3586 C3587 1.369 . S
C3586 C3590 1.531 . S
C3587 C3586 1.369 . S
C3587 C3588 1.410 . S
C3587 C3595 1.503 . S
C3588 C3587 1.410 . S
C3588 C3589 1.392 . S
C3588 C3591 1.511 . S
C3589 C3585 1.376 . S
C3589 C3588 1.392 . S
C3589 H3601 0.929 . S
C3590 C3586 1.531 . S
C3590 H3602 0.960 . S
C3590 H3603 0.962 . S
C3590 H3604 0.960 . S
C3591 C3588 1.511 . S
C3591 H3605 0.961 . S
C3591 H3606 0.961 . S
C3591 H3607 0.961 . S
C3592 C3593 1.370 . S
C3592 C3594 1.363 . S
C3592 H3608 0.931 . S
C3593 C3592 1.370 . S
C3593 C3597 1.408 . S
C3594 C3592 1.363 . S
C3594 C3595 1.370 . S
C3594 C3598 1.524 . S
C3595 C3587 1.503 . S
C3595 C3594 1.370 . S
C3595 C3596 1.403 . S
C3596 C3595 1.403 . S
C3596 C3597 1.404 . S
C3596 C3599 1.539 . S
C3597 C3593 1.408 . S
C3597 C3596 1.404 . S
C3597 H3609 0.930 . S
C3598 C3594 1.524 . S
C3598 H3610 0.956 . S
C3598 H3611 0.961 . S
C3598 H3612 0.961 . S
C3599 C3596 1.539 . S
C3599 H3613 0.958 . S
C3599 H3614 0.961 . S
C3599 H3615 0.960 . S
H3600 C3584 0.931 . S
H3601 C3589 0.929 . S
H3602 C3590 0.960 . S
H3603 C3590 0.962 . S
H3604 C3590 0.960 . S
H3605 C3591 0.961 . S
H3606 C3591 0.961 . S
H3607 C3591 0.961 . S
H3608 C3592 0.931 . S
H3609 C3597 0.930 . S
H3610 C3598 0.956 . S
H3611 C3598 0.961 . S
H3612 C3598 0.961 . S
H3613 C3599 0.958 . S
H3614 C3599 0.961 . S
H3615 C3599 0.960 . S
C3616 C3617 1.391 . S
C3616 C3618 1.394 . S
C3616 H3632 0.931 . S
C3617 C3616 1.391 . S
C3617 C3621 1.376 . S
C3618 C3616 1.394 . S
C3618 C3619 1.369 . S
C3618 C3622 1.531 . S
C3619 C3618 1.369 . S
C3619 C3620 1.410 . S
C3619 C3627 1.503 . S
C3620 C3619 1.410 . S
C3620 C3621 1.392 . S
C3620 C3623 1.511 . S
C3621 C3617 1.376 . S
C3621 C3620 1.392 . S
C3621 H3633 0.929 . S
C3622 C3618 1.531 . S
C3622 H3634 0.960 . S
C3622 H3635 0.962 . S
C3622 H3636 0.960 . S
C3623 C3620 1.511 . S
C3623 H3637 0.961 . S
C3623 H3638 0.961 . S
C3623 H3639 0.961 . S
C3624 C3625 1.370 . S
C3624 C3626 1.363 . S
C3624 H3640 0.931 . S
C3625 C3624 1.370 . S
C3625 C3629 1.408 . S
C3626 C3624 1.363 . S
C3626 C3627 1.370 . S
C3626 C3630 1.524 . S
C3627 C3619 1.503 . S
C3627 C3626 1.370 . S
C3627 C3628 1.403 . S
C3628 C3627 1.403 . S
C3628 C3629 1.404 . S
C3628 C3631 1.539 . S
C3629 C3625 1.408 . S
C3629 C3628 1.404 . S
C3629 H3641 0.930 . S
C3630 C3626 1.524 . S
C3630 H3642 0.956 . S
C3630 H3643 0.961 . S
C3630 H3644 0.961 . S
C3631 C3628 1.539 . S
C3631 H3645 0.958 . S
C3631 H3646 0.961 . S
C3631 H3647 0.960 . S
H3632 C3616 0.931 . S
H3633 C3621 0.929 . S
H3634 C3622 0.960 . S
H3635 C3622 0.962 . S
H3636 C3622 0.960 . S
H3637 C3623 0.961 . S
H3638 C3623 0.961 . S
H3639 C3623 0.961 . S
H3640 C3624 0.931 . S
H3641 C3629 0.930 . S
H3642 C3630 0.956 . S
H3643 C3630 0.961 . S
H3644 C3630 0.961 . S
H3645 C3631 0.958 . S
H3646 C3631 0.961 . S
H3647 C3631 0.960 . S
C3648 C3649 1.391 . S
C3648 C3650 1.394 . S
C3648 H3664 0.931 . S
C3649 C3648 1.391 . S
C3649 C3653 1.376 . S
C3650 C3648 1.394 . S
C3650 C3651 1.369 . S
C3650 C3654 1.531 . S
C3651 C3650 1.369 . S
C3651 C3652 1.410 . S
C3651 C3659 1.503 . S
C3652 C3651 1.410 . S
C3652 C3653 1.392 . S
C3652 C3655 1.511 . S
C3653 C3649 1.376 . S
C3653 C3652 1.392 . S
C3653 H3665 0.929 . S
C3654 C3650 1.531 . S
C3654 H3666 0.960 . S
C3654 H3667 0.962 . S
C3654 H3668 0.960 . S
C3655 C3652 1.511 . S
C3655 H3669 0.961 . S
C3655 H3670 0.961 . S
C3655 H3671 0.961 . S
C3656 C3657 1.370 . S
C3656 C3658 1.363 . S
C3656 H3672 0.931 . S
C3657 C3656 1.370 . S
C3657 C3661 1.408 . S
C3658 C3656 1.363 . S
C3658 C3659 1.370 . S
C3658 C3662 1.524 . S
C3659 C3651 1.503 . S
C3659 C3658 1.370 . S
C3659 C3660 1.403 . S
C3660 C3659 1.403 . S
C3660 C3661 1.404 . S
C3660 C3663 1.539 . S
C3661 C3657 1.408 . S
C3661 C3660 1.404 . S
C3661 H3673 0.930 . S
C3662 C3658 1.524 . S
C3662 H3674 0.956 . S
C3662 H3675 0.961 . S
C3662 H3676 0.961 . S
C3663 C3660 1.539 . S
C3663 H3677 0.958 . S
C3663 H3678 0.961 . S
C3663 H3679 0.960 . S
H3664 C3648 0.931 . S
H3665 C3653 0.929 . S
H3666 C3654 0.960 . S
H3667 C3654 0.962 . S
H3668 C3654 0.960 . S
H3669 C3655 0.961 . S
H3670 C3655 0.961 . S
H3671 C3655 0.961 . S
H3672 C3656 0.931 . S
H3673 C3661 0.930 . S
H3674 C3662 0.956 . S
H3675 C3662 0.961 . S
H3676 C3662 0.961 . S
H3677 C3663 0.958 . S
H3678 C3663 0.961 . S
H3679 C3663 0.960 . S
C3680 C3681 1.391 . S
C3680 C3682 1.394 . S
C3680 H3696 0.931 . S
C3681 C3680 1.391 . S
C3681 C3685 1.376 . S
C3682 C3680 1.394 . S
C3682 C3683 1.369 . S
C3682 C3686 1.531 . S
C3683 C3682 1.369 . S
C3683 C3684 1.410 . S
C3683 C3691 1.503 . S
C3684 C3683 1.410 . S
C3684 C3685 1.392 . S
C3684 C3687 1.511 . S
C3685 C3681 1.376 . S
C3685 C3684 1.392 . S
C3685 H3697 0.929 . S
C3686 C3682 1.531 . S
C3686 H3698 0.960 . S
C3686 H3699 0.962 . S
C3686 H3700 0.960 . S
C3687 C3684 1.511 . S
C3687 H3701 0.961 . S
C3687 H3702 0.961 . S
C3687 H3703 0.961 . S
C3688 C3689 1.370 . S
C3688 C3690 1.363 . S
C3688 H3704 0.931 . S
C3689 C3688 1.370 . S
C3689 C3693 1.408 . S
C3690 C3688 1.363 . S
C3690 C3691 1.370 . S
C3690 C3694 1.524 . S
C3691 C3683 1.503 . S
C3691 C3690 1.370 . S
C3691 C3692 1.403 . S
C3692 C3691 1.403 . S
C3692 C3693 1.404 . S
C3692 C3695 1.539 . S
C3693 C3689 1.408 . S
C3693 C3692 1.404 . S
C3693 H3705 0.930 . S
C3694 C3690 1.524 . S
C3694 H3706 0.956 . S
C3694 H3707 0.961 . S
C3694 H3708 0.961 . S
C3695 C3692 1.539 . S
C3695 H3709 0.958 . S
C3695 H3710 0.961 . S
C3695 H3711 0.960 . S
H3696 C3680 0.931 . S
H3697 C3685 0.929 . S
H3698 C3686 0.960 . S
H3699 C3686 0.962 . S
H3700 C3686 0.960 . S
H3701 C3687 0.961 . S
H3702 C3687 0.961 . S
H3703 C3687 0.961 . S
H3704 C3688 0.931 . S
H3705 C3693 0.930 . S
H3706 C3694 0.956 . S
H3707 C3694 0.961 . S
H3708 C3694 0.961 . S
H3709 C3695 0.958 . S
H3710 C3695 0.961 . S
H3711 C3695 0.960 . S
C3712 C3713 1.391 . S
C3712 C3714 1.394 . S
C3712 H3728 0.931 . S
C3713 C3712 1.391 . S
C3713 C3717 1.376 . S
C3714 C3712 1.394 . S
C3714 C3715 1.369 . S
C3714 C3718 1.531 . S
C3715 C3714 1.369 . S
C3715 C3716 1.410 . S
C3715 C3723 1.503 . S
C3716 C3715 1.410 . S
C3716 C3717 1.392 . S
C3716 C3719 1.511 . S
C3717 C3713 1.376 . S
C3717 C3716 1.392 . S
C3717 H3729 0.929 . S
C3718 C3714 1.531 . S
C3718 H3730 0.960 . S
C3718 H3731 0.962 . S
C3718 H3732 0.960 . S
C3719 C3716 1.511 . S
C3719 H3733 0.961 . S
C3719 H3734 0.961 . S
C3719 H3735 0.961 . S
C3720 C3721 1.370 . S
C3720 C3722 1.363 . S
C3720 H3736 0.931 . S
C3721 C3720 1.370 . S
C3721 C3725 1.408 . S
C3722 C3720 1.363 . S
C3722 C3723 1.370 . S
C3722 C3726 1.524 . S
C3723 C3715 1.503 . S
C3723 C3722 1.370 . S
C3723 C3724 1.403 . S
C3724 C3723 1.403 . S
C3724 C3725 1.404 . S
C3724 C3727 1.539 . S
C3725 C3721 1.408 . S
C3725 C3724 1.404 . S
C3725 H3737 0.930 . S
C3726 C3722 1.524 . S
C3726 H3738 0.956 . S
C3726 H3739 0.961 . S
C3726 H3740 0.961 . S
C3727 C3724 1.539 . S
C3727 H3741 0.958 . S
C3727 H3742 0.961 . S
C3727 H3743 0.960 . S
H3728 C3712 0.931 . S
H3729 C3717 0.929 . S
H3730 C3718 0.960 . S
H3731 C3718 0.962 . S
H3732 C3718 0.960 . S
H3733 C3719 0.961 . S
H3734 C3719 0.961 . S
H3735 C3719 0.961 . S
H3736 C3720 0.931 . S
H3737 C3725 0.930 . S
H3738 C3726 0.956 . S
H3739 C3726 0.961 . S
H3740 C3726 0.961 . S
H3741 C3727 0.958 . S
H3742 C3727 0.961 . S
H3743 C3727 0.960 . S
C3744 C3745 1.391 . S
C3744 C3746 1.394 . S
C3744 H3760 0.931 . S
C3745 C3744 1.391 . S
C3745 C3749 1.376 . S
C3746 C3744 1.394 . S
C3746 C3747 1.369 . S
C3746 C3750 1.531 . S
C3747 C3746 1.369 . S
C3747 C3748 1.410 . S
C3747 C3755 1.503 . S
C3748 C3747 1.410 . S
C3748 C3749 1.392 . S
C3748 C3751 1.511 . S
C3749 C3745 1.376 . S
C3749 C3748 1.392 . S
C3749 H3761 0.929 . S
C3750 C3746 1.531 . S
C3750 H3762 0.960 . S
C3750 H3763 0.962 . S
C3750 H3764 0.960 . S
C3751 C3748 1.511 . S
C3751 H3765 0.961 . S
C3751 H3766 0.961 . S
C3751 H3767 0.961 . S
C3752 C3753 1.370 . S
C3752 C3754 1.363 . S
C3752 H3768 0.931 . S
C3753 C3752 1.370 . S
C3753 C3757 1.408 . S
C3754 C3752 1.363 . S
C3754 C3755 1.370 . S
C3754 C3758 1.524 . S
C3755 C3747 1.503 . S
C3755 C3754 1.370 . S
C3755 C3756 1.403 . S
C3756 C3755 1.403 . S
C3756 C3757 1.404 . S
C3756 C3759 1.539 . S
C3757 C3753 1.408 . S
C3757 C3756 1.404 . S
C3757 H3769 0.930 . S
C3758 C3754 1.524 . S
C3758 H3770 0.956 . S
C3758 H3771 0.961 . S
C3758 H3772 0.961 . S
C3759 C3756 1.539 . S
C3759 H3773 0.958 . S
C3759 H3774 0.961 . S
C3759 H3775 0.960 . S
H3760 C3744 0.931 . S
H3761 C3749 0.929 . S
H3762 C3750 0.960 . S
H3763 C3750 0.962 . S
H3764 C3750 0.960 . S
H3765 C3751 0.961 . S
H3766 C3751 0.961 . S
H3767 C3751 0.961 . S
H3768 C3752 0.931 . S
H3769 C3757 0.930 . S
H3770 C3758 0.956 . S
H3771 C3758 0.961 . S
H3772 C3758 0.961 . S
H3773 C3759 0.958 . S
H3774 C3759 0.961 . S
H3775 C3759 0.960 . S
C3776 C3777 1.391 . S
C3776 C3778 1.394 . S
C3776 H3792 0.931 . S
C3777 C3776 1.391 . S
C3777 C3781 1.376 . S
C3778 C3776 1.394 . S
C3778 C3779 1.369 . S
C3778 C3782 1.531 . S
C3779 C3778 1.369 . S
C3779 C3780 1.410 . S
C3779 C3787 1.503 . S
C3780 C3779 1.410 . S
C3780 C3781 1.392 . S
C3780 C3783 1.511 . S
C3781 C3777 1.376 . S
C3781 C3780 1.392 . S
C3781 H3793 0.929 . S
C3782 C3778 1.531 . S
C3782 H3794 0.960 . S
C3782 H3795 0.962 . S
C3782 H3796 0.960 . S
C3783 C3780 1.511 . S
C3783 H3797 0.961 . S
C3783 H3798 0.961 . S
C3783 H3799 0.961 . S
C3784 C3785 1.370 . S
C3784 C3786 1.363 . S
C3784 H3800 0.931 . S
C3785 C3784 1.370 . S
C3785 C3789 1.408 . S
C3786 C3784 1.363 . S
C3786 C3787 1.370 . S
C3786 C3790 1.524 . S
C3787 C3779 1.503 . S
C3787 C3786 1.370 . S
C3787 C3788 1.403 . S
C3788 C3787 1.403 . S
C3788 C3789 1.404 . S
C3788 C3791 1.539 . S
C3789 C3785 1.408 . S
C3789 C3788 1.404 . S
C3789 H3801 0.930 . S
C3790 C3786 1.524 . S
C3790 H3802 0.956 . S
C3790 H3803 0.961 . S
C3790 H3804 0.961 . S
C3791 C3788 1.539 . S
C3791 H3805 0.958 . S
C3791 H3806 0.961 . S
C3791 H3807 0.960 . S
H3792 C3776 0.931 . S
H3793 C3781 0.929 . S
H3794 C3782 0.960 . S
H3795 C3782 0.962 . S
H3796 C3782 0.960 . S
H3797 C3783 0.961 . S
H3798 C3783 0.961 . S
H3799 C3783 0.961 . S
H3800 C3784 0.931 . S
H3801 C3789 0.930 . S
H3802 C3790 0.956 . S
H3803 C3790 0.961 . S
H3804 C3790 0.961 . S
H3805 C3791 0.958 . S
H3806 C3791 0.961 . S
H3807 C3791 0.960 . S
C3808 C3809 1.391 . S
C3808 C3810 1.394 . S
C3808 H3824 0.931 . S
C3809 C3808 1.391 . S
C3809 C3813 1.376 . S
C3810 C3808 1.394 . S
C3810 C3811 1.369 . S
C3810 C3814 1.531 . S
C3811 C3810 1.369 . S
C3811 C3812 1.410 . S
C3811 C3819 1.503 . S
C3812 C3811 1.410 . S
C3812 C3813 1.392 . S
C3812 C3815 1.511 . S
C3813 C3809 1.376 . S
C3813 C3812 1.392 . S
C3813 H3825 0.929 . S
C3814 C3810 1.531 . S
C3814 H3826 0.960 . S
C3814 H3827 0.962 . S
C3814 H3828 0.960 . S
C3815 C3812 1.511 . S
C3815 H3829 0.961 . S
C3815 H3830 0.961 . S
C3815 H3831 0.961 . S
C3816 C3817 1.370 . S
C3816 C3818 1.363 . S
C3816 H3832 0.931 . S
C3817 C3816 1.370 . S
C3817 C3821 1.408 . S
C3818 C3816 1.363 . S
C3818 C3819 1.370 . S
C3818 C3822 1.524 . S
C3819 C3811 1.503 . S
C3819 C3818 1.370 . S
C3819 C3820 1.403 . S
C3820 C3819 1.403 . S
C3820 C3821 1.404 . S
C3820 C3823 1.539 . S
C3821 C3817 1.408 . S
C3821 C3820 1.404 . S
C3821 H3833 0.930 . S
C3822 C3818 1.524 . S
C3822 H3834 0.956 . S
C3822 H3835 0.961 . S
C3822 H3836 0.961 . S
C3823 C3820 1.539 . S
C3823 H3837 0.958 . S
C3823 H3838 0.961 . S
C3823 H3839 0.960 . S
H3824 C3808 0.931 . S
H3825 C3813 0.929 . S
H3826 C3814 0.960 . S
H3827 C3814 0.962 . S
H3828 C3814 0.960 . S
H3829 C3815 0.961 . S
H3830 C3815 0.961 . S
H3831 C3815 0.961 . S
H3832 C3816 0.931 . S
H3833 C3821 0.930 . S
H3834 C3822 0.956 . S
H3835 C3822 0.961 . S
H3836 C3822 0.961 . S
H3837 C3823 0.958 . S
H3838 C3823 0.961 . S
H3839 C3823 0.960 . S
C3840 C3841 1.391 . S
C3840 C3842 1.394 . S
C3840 H3856 0.931 . S
C3841 C3840 1.391 . S
C3841 C3845 1.376 . S
C3842 C3840 1.394 . S
C3842 C3843 1.369 . S
C3842 C3846 1.531 . S
C3843 C3842 1.369 . S
C3843 C3844 1.410 . S
C3843 C3851 1.503 . S
C3844 C3843 1.410 . S
C3844 C3845 1.392 . S
C3844 C3847 1.511 . S
C3845 C3841 1.376 . S
C3845 C3844 1.392 . S
C3845 H3857 0.929 . S
C3846 C3842 1.531 . S
C3846 H3858 0.960 . S
C3846 H3859 0.962 . S
C3846 H3860 0.960 . S
C3847 C3844 1.511 . S
C3847 H3861 0.961 . S
C3847 H3862 0.961 . S
C3847 H3863 0.961 . S
C3848 C3849 1.370 . S
C3848 C3850 1.363 . S
C3848 H3864 0.931 . S
C3849 C3848 1.370 . S
C3849 C3853 1.408 . S
C3850 C3848 1.363 . S
C3850 C3851 1.370 . S
C3850 C3854 1.524 . S
C3851 C3843 1.503 . S
C3851 C3850 1.370 . S
C3851 C3852 1.403 . S
C3852 C3851 1.403 . S
C3852 C3853 1.404 . S
C3852 C3855 1.539 . S
C3853 C3849 1.408 . S
C3853 C3852 1.404 . S
C3853 H3865 0.930 . S
C3854 C3850 1.524 . S
C3854 H3866 0.956 . S
C3854 H3867 0.961 . S
C3854 H3868 0.961 . S
C3855 C3852 1.539 . S
C3855 H3869 0.958 . S
C3855 H3870 0.961 . S
C3855 H3871 0.960 . S
H3856 C3840 0.931 . S
H3857 C3845 0.929 . S
H3858 C3846 0.960 . S
H3859 C3846 0.962 . S
H3860 C3846 0.960 . S
H3861 C3847 0.961 . S
H3862 C3847 0.961 . S
H3863 C3847 0.961 . S
H3864 C3848 0.931 . S
H3865 C3853 0.930 . S
H3866 C3854 0.956 . S
H3867 C3854 0.961 . S
H3868 C3854 0.961 . S
H3869 C3855 0.958 . S
H3870 C3855 0.961 . S
H3871 C3855 0.960 . S
C3872 C3873 1.391 . S
C3872 C3874 1.394 . S
C3872 H3888 0.931 . S
C3873 C3872 1.391 . S
C3873 C3877 1.376 . S
C3874 C3872 1.394 . S
C3874 C3875 1.369 . S
C3874 C3878 1.531 . S
C3875 C3874 1.369 . S
C3875 C3876 1.410 . S
C3875 C3883 1.503 . S
C3876 C3875 1.410 . S
C3876 C3877 1.392 . S
C3876 C3879 1.511 . S
C3877 C3873 1.376 . S
C3877 C3876 1.392 . S
C3877 H3889 0.929 . S
C3878 C3874 1.531 . S
C3878 H3890 0.960 . S
C3878 H3891 0.962 . S
C3878 H3892 0.960 . S
C3879 C3876 1.511 . S
C3879 H3893 0.961 . S
C3879 H3894 0.961 . S
C3879 H3895 0.961 . S
C3880 C3881 1.370 . S
C3880 C3882 1.363 . S
C3880 H3896 0.931 . S
C3881 C3880 1.370 . S
C3881 C3885 1.408 . S
C3882 C3880 1.363 . S
C3882 C3883 1.370 . S
C3882 C3886 1.524 . S
C3883 C3875 1.503 . S
C3883 C3882 1.370 . S
C3883 C3884 1.403 . S
C3884 C3883 1.403 . S
C3884 C3885 1.404 . S
C3884 C3887 1.539 . S
C3885 C3881 1.408 . S
C3885 C3884 1.404 . S
C3885 H3897 0.930 . S
C3886 C3882 1.524 . S
C3886 H3898 0.956 . S
C3886 H3899 0.961 . S
C3886 H3900 0.961 . S
C3887 C3884 1.539 . S
C3887 H3901 0.958 . S
C3887 H3902 0.961 . S
C3887 H3903 0.960 . S
H3888 C3872 0.931 . S
H3889 C3877 0.929 . S
H3890 C3878 0.960 . S
H3891 C3878 0.962 . S
H3892 C3878 0.960 . S
H3893 C3879 0.961 . S
H3894 C3879 0.961 . S
H3895 C3879 0.961 . S
H3896 C3880 0.931 . S
H3897 C3885 0.930 . S
H3898 C3886 0.956 . S
H3899 C3886 0.961 . S
H3900 C3886 0.961 . S
H3901 C3887 0.958 . S
H3902 C3887 0.961 . S
H3903 C3887 0.960 . S
C3904 C3905 1.391 . S
C3904 C3906 1.394 . S
C3904 H3920 0.931 . S
C3905 C3904 1.391 . S
C3905 C3909 1.376 . S
C3906 C3904 1.394 . S
C3906 C3907 1.369 . S
C3906 C3910 1.531 . S
C3907 C3906 1.369 . S
C3907 C3908 1.410 . S
C3907 C3915 1.503 . S
C3908 C3907 1.410 . S
C3908 C3909 1.392 . S
C3908 C3911 1.511 . S
C3909 C3905 1.376 . S
C3909 C3908 1.392 . S
C3909 H3921 0.929 . S
C3910 C3906 1.531 . S
C3910 H3922 0.960 . S
C3910 H3923 0.962 . S
C3910 H3924 0.960 . S
C3911 C3908 1.511 . S
C3911 H3925 0.961 . S
C3911 H3926 0.961 . S
C3911 H3927 0.961 . S
C3912 C3913 1.370 . S
C3912 C3914 1.363 . S
C3912 H3928 0.931 . S
C3913 C3912 1.370 . S
C3913 C3917 1.408 . S
C3914 C3912 1.363 . S
C3914 C3915 1.370 . S
C3914 C3918 1.524 . S
C3915 C3907 1.503 . S
C3915 C3914 1.370 . S
C3915 C3916 1.403 . S
C3916 C3915 1.403 . S
C3916 C3917 1.404 . S
C3916 C3919 1.539 . S
C3917 C3913 1.408 . S
C3917 C3916 1.404 . S
C3917 H3929 0.930 . S
C3918 C3914 1.524 . S
C3918 H3930 0.956 . S
C3918 H3931 0.961 . S
C3918 H3932 0.961 . S
C3919 C3916 1.539 . S
C3919 H3933 0.958 . S
C3919 H3934 0.961 . S
C3919 H3935 0.960 . S
H3920 C3904 0.931 . S
H3921 C3909 0.929 . S
H3922 C3910 0.960 . S
H3923 C3910 0.962 . S
H3924 C3910 0.960 . S
H3925 C3911 0.961 . S
H3926 C3911 0.961 . S
H3927 C3911 0.961 . S
H3928 C3912 0.931 . S
H3929 C3917 0.930 . S
H3930 C3918 0.956 . S
H3931 C3918 0.961 . S
H3932 C3918 0.961 . S
H3933 C3919 0.958 . S
H3934 C3919 0.961 . S
H3935 C3919 0.960 . S
C3936 C3937 1.391 . S
C3936 C3938 1.394 . S
C3936 H3952 0.931 . S
C3937 C3936 1.391 . S
C3937 C3941 1.376 . S
C3938 C3936 1.394 . S
C3938 C3939 1.369 . S
C3938 C3942 1.531 . S
C3939 C3938 1.369 . S
C3939 C3940 1.410 . S
C3939 C3947 1.503 . S
C3940 C3939 1.410 . S
C3940 C3941 1.392 . S
C3940 C3943 1.511 . S
C3941 C3937 1.376 . S
C3941 C3940 1.392 . S
C3941 H3953 0.929 . S
C3942 C3938 1.531 . S
C3942 H3954 0.960 . S
C3942 H3955 0.962 . S
C3942 H3956 0.960 . S
C3943 C3940 1.511 . S
C3943 H3957 0.961 . S
C3943 H3958 0.961 . S
C3943 H3959 0.961 . S
C3944 C3945 1.370 . S
C3944 C3946 1.363 . S
C3944 H3960 0.931 . S
C3945 C3944 1.370 . S
C3945 C3949 1.408 . S
C3946 C3944 1.363 . S
C3946 C3947 1.370 . S
C3946 C3950 1.524 . S
C3947 C3939 1.503 . S
C3947 C3946 1.370 . S
C3947 C3948 1.403 . S
C3948 C3947 1.403 . S
C3948 C3949 1.404 . S
C3948 C3951 1.539 . S
C3949 C3945 1.408 . S
C3949 C3948 1.404 . S
C3949 H3961 0.930 . S
C3950 C3946 1.524 . S
C3950 H3962 0.956 . S
C3950 H3963 0.961 . S
C3950 H3964 0.961 . S
C3951 C3948 1.539 . S
C3951 H3965 0.958 . S
C3951 H3966 0.961 . S
C3951 H3967 0.960 . S
H3952 C3936 0.931 . S
H3953 C3941 0.929 . S
H3954 C3942 0.960 . S
H3955 C3942 0.962 . S
H3956 C3942 0.960 . S
H3957 C3943 0.961 . S
H3958 C3943 0.961 . S
H3959 C3943 0.961 . S
H3960 C3944 0.931 . S
H3961 C3949 0.930 . S
H3962 C3950 0.956 . S
H3963 C3950 0.961 . S
H3964 C3950 0.961 . S
H3965 C3951 0.958 . S
H3966 C3951 0.961 . S
H3967 C3951 0.960 . S
C3968 C3969 1.391 . S
C3968 C3970 1.394 . S
C3968 H3984 0.931 . S
C3969 C3968 1.391 . S
C3969 C3973 1.376 . S
C3970 C3968 1.394 . S
C3970 C3971 1.369 . S
C3970 C3974 1.531 . S
C3971 C3970 1.369 . S
C3971 C3972 1.410 . S
C3971 C3979 1.503 . S
C3972 C3971 1.410 . S
C3972 C3973 1.392 . S
C3972 C3975 1.511 . S
C3973 C3969 1.376 . S
C3973 C3972 1.392 . S
C3973 H3985 0.929 . S
C3974 C3970 1.531 . S
C3974 H3986 0.960 . S
C3974 H3987 0.962 . S
C3974 H3988 0.960 . S
C3975 C3972 1.511 . S
C3975 H3989 0.961 . S
C3975 H3990 0.961 . S
C3975 H3991 0.961 . S
C3976 C3977 1.370 . S
C3976 C3978 1.363 . S
C3976 H3992 0.931 . S
C3977 C3976 1.370 . S
C3977 C3981 1.408 . S
C3978 C3976 1.363 . S
C3978 C3979 1.370 . S
C3978 C3982 1.524 . S
C3979 C3971 1.503 . S
C3979 C3978 1.370 . S
C3979 C3980 1.403 . S
C3980 C3979 1.403 . S
C3980 C3981 1.404 . S
C3980 C3983 1.539 . S
C3981 C3977 1.408 . S
C3981 C3980 1.404 . S
C3981 H3993 0.930 . S
C3982 C3978 1.524 . S
C3982 H3994 0.956 . S
C3982 H3995 0.961 . S
C3982 H3996 0.961 . S
C3983 C3980 1.539 . S
C3983 H3997 0.958 . S
C3983 H3998 0.961 . S
C3983 H3999 0.960 . S
H3984 C3968 0.931 . S
H3985 C3973 0.929 . S
H3986 C3974 0.960 . S
H3987 C3974 0.962 . S
H3988 C3974 0.960 . S
H3989 C3975 0.961 . S
H3990 C3975 0.961 . S
H3991 C3975 0.961 . S
H3992 C3976 0.931 . S
H3993 C3981 0.930 . S
H3994 C3982 0.956 . S
H3995 C3982 0.961 . S
H3996 C3982 0.961 . S
H3997 C3983 0.958 . S
H3998 C3983 0.961 . S
H3999 C3983 0.960 . S
C4000 C4001 1.391 . S
C4000 C4002 1.394 . S
C4000 H4016 0.931 . S
C4001 C4000 1.391 . S
C4001 C4005 1.376 . S
C4002 C4000 1.394 . S
C4002 C4003 1.369 . S
C4002 C4006 1.531 . S
C4003 C4002 1.369 . S
C4003 C4004 1.410 . S
C4003 C4011 1.503 . S
C4004 C4003 1.410 . S
C4004 C4005 1.392 . S
C4004 C4007 1.511 . S
C4005 C4001 1.376 . S
C4005 C4004 1.392 . S
C4005 H4017 0.929 . S
C4006 C4002 1.531 . S
C4006 H4018 0.960 . S
C4006 H4019 0.962 . S
C4006 H4020 0.960 . S
C4007 C4004 1.511 . S
C4007 H4021 0.961 . S
C4007 H4022 0.961 . S
C4007 H4023 0.961 . S
C4008 C4009 1.370 . S
C4008 C4010 1.363 . S
C4008 H4024 0.931 . S
C4009 C4008 1.370 . S
C4009 C4013 1.408 . S
C4010 C4008 1.363 . S
C4010 C4011 1.370 . S
C4010 C4014 1.524 . S
C4011 C4003 1.503 . S
C4011 C4010 1.370 . S
C4011 C4012 1.403 . S
C4012 C4011 1.403 . S
C4012 C4013 1.404 . S
C4012 C4015 1.539 . S
C4013 C4009 1.408 . S
C4013 C4012 1.404 . S
C4013 H4025 0.930 . S
C4014 C4010 1.524 . S
C4014 H4026 0.956 . S
C4014 H4027 0.961 . S
C4014 H4028 0.961 . S
C4015 C4012 1.539 . S
C4015 H4029 0.958 . S
C4015 H4030 0.961 . S
C4015 H4031 0.960 . S
H4016 C4000 0.931 . S
H4017 C4005 0.929 . S
H4018 C4006 0.960 . S
H4019 C4006 0.962 . S
H4020 C4006 0.960 . S
H4021 C4007 0.961 . S
H4022 C4007 0.961 . S
H4023 C4007 0.961 . S
H4024 C4008 0.931 . S
H4025 C4013 0.930 . S
H4026 C4014 0.956 . S
H4027 C4014 0.961 . S
H4028 C4014 0.961 . S
H4029 C4015 0.958 . S
H4030 C4015 0.961 . S
H4031 C4015 0.960 . S
C4032 C4033 1.391 . S
C4032 C4034 1.394 . S
C4032 H4048 0.931 . S
C4033 C4032 1.391 . S
C4033 C4037 1.376 . S
C4034 C4032 1.394 . S
C4034 C4035 1.369 . S
C4034 C4038 1.531 . S
C4035 C4034 1.369 . S
C4035 C4036 1.410 . S
C4035 C4043 1.503 . S
C4036 C4035 1.410 . S
C4036 C4037 1.392 . S
C4036 C4039 1.511 . S
C4037 C4033 1.376 . S
C4037 C4036 1.392 . S
C4037 H4049 0.929 . S
C4038 C4034 1.531 . S
C4038 H4050 0.960 . S
C4038 H4051 0.962 . S
C4038 H4052 0.960 . S
C4039 C4036 1.511 . S
C4039 H4053 0.961 . S
C4039 H4054 0.961 . S
C4039 H4055 0.961 . S
C4040 C4041 1.370 . S
C4040 C4042 1.363 . S
C4040 H4056 0.931 . S
C4041 C4040 1.370 . S
C4041 C4045 1.408 . S
C4042 C4040 1.363 . S
C4042 C4043 1.370 . S
C4042 C4046 1.524 . S
C4043 C4035 1.503 . S
C4043 C4042 1.370 . S
C4043 C4044 1.403 . S
C4044 C4043 1.403 . S
C4044 C4045 1.404 . S
C4044 C4047 1.539 . S
C4045 C4041 1.408 . S
C4045 C4044 1.404 . S
C4045 H4057 0.930 . S
C4046 C4042 1.524 . S
C4046 H4058 0.956 . S
C4046 H4059 0.961 . S
C4046 H4060 0.961 . S
C4047 C4044 1.539 . S
C4047 H4061 0.958 . S
C4047 H4062 0.961 . S
C4047 H4063 0.960 . S
H4048 C4032 0.931 . S
H4049 C4037 0.929 . S
H4050 C4038 0.960 . S
H4051 C4038 0.962 . S
H4052 C4038 0.960 . S
H4053 C4039 0.961 . S
H4054 C4039 0.961 . S
H4055 C4039 0.961 . S
H4056 C4040 0.931 . S
H4057 C4045 0.930 . S
H4058 C4046 0.956 . S
H4059 C4046 0.961 . S
H4060 C4046 0.961 . S
H4061 C4047 0.958 . S
H4062 C4047 0.961 . S
H4063 C4047 0.960 . S
C4064 C4065 1.391 . S
C4064 C4066 1.394 . S
C4064 H4080 0.931 . S
C4065 C4064 1.391 . S
C4065 C4069 1.376 . S
C4066 C4064 1.394 . S
C4066 C4067 1.369 . S
C4066 C4070 1.531 . S
C4067 C4066 1.369 . S
C4067 C4068 1.410 . S
C4067 C4075 1.503 . S
C4068 C4067 1.410 . S
C4068 C4069 1.392 . S
C4068 C4071 1.511 . S
C4069 C4065 1.376 . S
C4069 C4068 1.392 . S
C4069 H4081 0.929 . S
C4070 C4066 1.531 . S
C4070 H4082 0.960 . S
C4070 H4083 0.962 . S
C4070 H4084 0.960 . S
C4071 C4068 1.511 . S
C4071 H4085 0.961 . S
C4071 H4086 0.961 . S
C4071 H4087 0.961 . S
C4072 C4073 1.370 . S
C4072 C4074 1.363 . S
C4072 H4088 0.931 . S
C4073 C4072 1.370 . S
C4073 C4077 1.408 . S
C4074 C4072 1.363 . S
C4074 C4075 1.370 . S
C4074 C4078 1.524 . S
C4075 C4067 1.503 . S
C4075 C4074 1.370 . S
C4075 C4076 1.403 . S
C4076 C4075 1.403 . S
C4076 C4077 1.404 . S
C4076 C4079 1.539 . S
C4077 C4073 1.408 . S
C4077 C4076 1.404 . S
C4077 H4089 0.930 . S
C4078 C4074 1.524 . S
C4078 H4090 0.956 . S
C4078 H4091 0.961 . S
C4078 H4092 0.961 . S
C4079 C4076 1.539 . S
C4079 H4093 0.958 . S
C4079 H4094 0.961 . S
C4079 H4095 0.960 . S
H4080 C4064 0.931 . S
H4081 C4069 0.929 . S
H4082 C4070 0.960 . S
H4083 C4070 0.962 . S
H4084 C4070 0.960 . S
H4085 C4071 0.961 . S
H4086 C4071 0.961 . S
H4087 C4071 0.961 . S
H4088 C4072 0.931 . S
H4089 C4077 0.930 . S
H4090 C4078 0.956 . S
H4091 C4078 0.961 . S
H4092 C4078 0.961 . S
H4093 C4079 0.958 . S
H4094 C4079 0.961 . S
H4095 C4079 0.960 . S
C4096 C4097 1.391 . S
C4096 C4098 1.394 . S
C4096 H4112 0.931 . S
C4097 C4096 1.391 . S
C4097 C4101 1.376 . S
C4098 C4096 1.394 . S
C4098 C4099 1.369 . S
C4098 C4102 1.531 . S
C4099 C4098 1.369 . S
C4099 C4100 1.410 . S
C4099 C4107 1.503 . S
C4100 C4099 1.410 . S
C4100 C4101 1.392 . S
C4100 C4103 1.511 . S
C4101 C4097 1.376 . S
C4101 C4100 1.392 . S
C4101 H4113 0.929 . S
C4102 C4098 1.531 . S
C4102 H4114 0.960 . S
C4102 H4115 0.962 . S
C4102 H4116 0.960 . S
C4103 C4100 1.511 . S
C4103 H4117 0.961 . S
C4103 H4118 0.961 . S
C4103 H4119 0.961 . S
C4104 C4105 1.370 . S
C4104 C4106 1.363 . S
C4104 H4120 0.931 . S
C4105 C4104 1.370 . S
C4105 C4109 1.408 . S
C4106 C4104 1.363 . S
C4106 C4107 1.370 . S
C4106 C4110 1.524 . S
C4107 C4099 1.503 . S
C4107 C4106 1.370 . S
C4107 C4108 1.403 . S
C4108 C4107 1.403 . S
C4108 C4109 1.404 . S
C4108 C4111 1.539 . S
C4109 C4105 1.408 . S
C4109 C4108 1.404 . S
C4109 H4121 0.930 . S
C4110 C4106 1.524 . S
C4110 H4122 0.956 . S
C4110 H4123 0.961 . S
C4110 H4124 0.961 . S
C4111 C4108 1.539 . S
C4111 H4125 0.958 . S
C4111 H4126 0.961 . S
C4111 H4127 0.960 . S
H4112 C4096 0.931 . S
H4113 C4101 0.929 . S
H4114 C4102 0.960 . S
H4115 C4102 0.962 . S
H4116 C4102 0.960 . S
H4117 C4103 0.961 . S
H4118 C4103 0.961 . S
H4119 C4103 0.961 . S
H4120 C4104 0.931 . S
H4121 C4109 0.930 . S
H4122 C4110 0.956 . S
H4123 C4110 0.961 . S
H4124 C4110 0.961 . S
H4125 C4111 0.958 . S
H4126 C4111 0.961 . S
H4127 C4111 0.960 . S
C4128 C4129 1.391 . S
C4128 C4130 1.394 . S
C4128 H4144 0.931 . S
C4129 C4128 1.391 . S
C4129 C4133 1.376 . S
C4130 C4128 1.394 . S
C4130 C4131 1.369 . S
C4130 C4134 1.531 . S
C4131 C4130 1.369 . S
C4131 C4132 1.410 . S
C4131 C4139 1.503 . S
C4132 C4131 1.410 . S
C4132 C4133 1.392 . S
C4132 C4135 1.511 . S
C4133 C4129 1.376 . S
C4133 C4132 1.392 . S
C4133 H4145 0.929 . S
C4134 C4130 1.531 . S
C4134 H4146 0.960 . S
C4134 H4147 0.962 . S
C4134 H4148 0.960 . S
C4135 C4132 1.511 . S
C4135 H4149 0.961 . S
C4135 H4150 0.961 . S
C4135 H4151 0.961 . S
C4136 C4137 1.370 . S
C4136 C4138 1.363 . S
C4136 H4152 0.931 . S
C4137 C4136 1.370 . S
C4137 C4141 1.408 . S
C4138 C4136 1.363 . S
C4138 C4139 1.370 . S
C4138 C4142 1.524 . S
C4139 C4131 1.503 . S
C4139 C4138 1.370 . S
C4139 C4140 1.403 . S
C4140 C4139 1.403 . S
C4140 C4141 1.404 . S
C4140 C4143 1.539 . S
C4141 C4137 1.408 . S
C4141 C4140 1.404 . S
C4141 H4153 0.930 . S
C4142 C4138 1.524 . S
C4142 H4154 0.956 . S
C4142 H4155 0.961 . S
C4142 H4156 0.961 . S
C4143 C4140 1.539 . S
C4143 H4157 0.958 . S
C4143 H4158 0.961 . S
C4143 H4159 0.960 . S
H4144 C4128 0.931 . S
H4145 C4133 0.929 . S
H4146 C4134 0.960 . S
H4147 C4134 0.962 . S
H4148 C4134 0.960 . S
H4149 C4135 0.961 . S
H4150 C4135 0.961 . S
H4151 C4135 0.961 . S
H4152 C4136 0.931 . S
H4153 C4141 0.930 . S
H4154 C4142 0.956 . S
H4155 C4142 0.961 . S
H4156 C4142 0.961 . S
H4157 C4143 0.958 . S
H4158 C4143 0.961 . S
H4159 C4143 0.960 . S
C4160 C4161 1.391 . S
C4160 C4162 1.394 . S
C4160 H4176 0.931 . S
C4161 C4160 1.391 . S
C4161 C4165 1.376 . S
C4162 C4160 1.394 . S
C4162 C4163 1.369 . S
C4162 C4166 1.531 . S
C4163 C4162 1.369 . S
C4163 C4164 1.410 . S
C4163 C4171 1.503 . S
C4164 C4163 1.410 . S
C4164 C4165 1.392 . S
C4164 C4167 1.511 . S
C4165 C4161 1.376 . S
C4165 C4164 1.392 . S
C4165 H4177 0.929 . S
C4166 C4162 1.531 . S
C4166 H4178 0.960 . S
C4166 H4179 0.962 . S
C4166 H4180 0.960 . S
C4167 C4164 1.511 . S
C4167 H4181 0.961 . S
C4167 H4182 0.961 . S
C4167 H4183 0.961 . S
C4168 C4169 1.370 . S
C4168 C4170 1.363 . S
C4168 H4184 0.931 . S
C4169 C4168 1.370 . S
C4169 C4173 1.408 . S
C4170 C4168 1.363 . S
C4170 C4171 1.370 . S
C4170 C4174 1.524 . S
C4171 C4163 1.503 . S
C4171 C4170 1.370 . S
C4171 C4172 1.403 . S
C4172 C4171 1.403 . S
C4172 C4173 1.404 . S
C4172 C4175 1.539 . S
C4173 C4169 1.408 . S
C4173 C4172 1.404 . S
C4173 H4185 0.930 . S
C4174 C4170 1.524 . S
C4174 H4186 0.956 . S
C4174 H4187 0.961 . S
C4174 H4188 0.961 . S
C4175 C4172 1.539 . S
C4175 H4189 0.958 . S
C4175 H4190 0.961 . S
C4175 H4191 0.960 . S
H4176 C4160 0.931 . S
H4177 C4165 0.929 . S
H4178 C4166 0.960 . S
H4179 C4166 0.962 . S
H4180 C4166 0.960 . S
H4181 C4167 0.961 . S
H4182 C4167 0.961 . S
H4183 C4167 0.961 . S
H4184 C4168 0.931 . S
H4185 C4173 0.930 . S
H4186 C4174 0.956 . S
H4187 C4174 0.961 . S
H4188 C4174 0.961 . S
H4189 C4175 0.958 . S
H4190 C4175 0.961 . S
H4191 C4175 0.960 . S
C4192 C4193 1.391 . S
C4192 C4194 1.394 . S
C4192 H4208 0.931 . S
C4193 C4192 1.391 . S
C4193 C4197 1.376 . S
C4194 C4192 1.394 . S
C4194 C4195 1.369 . S
C4194 C4198 1.531 . S
C4195 C4194 1.369 . S
C4195 C4196 1.410 . S
C4195 C4203 1.503 . S
C4196 C4195 1.410 . S
C4196 C4197 1.392 . S
C4196 C4199 1.511 . S
C4197 C4193 1.376 . S
C4197 C4196 1.392 . S
C4197 H4209 0.929 . S
C4198 C4194 1.531 . S
C4198 H4210 0.960 . S
C4198 H4211 0.962 . S
C4198 H4212 0.960 . S
C4199 C4196 1.511 . S
C4199 H4213 0.961 . S
C4199 H4214 0.961 . S
C4199 H4215 0.961 . S
C4200 C4201 1.370 . S
C4200 C4202 1.363 . S
C4200 H4216 0.931 . S
C4201 C4200 1.370 . S
C4201 C4205 1.408 . S
C4202 C4200 1.363 . S
C4202 C4203 1.370 . S
C4202 C4206 1.524 . S
C4203 C4195 1.503 . S
C4203 C4202 1.370 . S
C4203 C4204 1.403 . S
C4204 C4203 1.403 . S
C4204 C4205 1.404 . S
C4204 C4207 1.539 . S
C4205 C4201 1.408 . S
C4205 C4204 1.404 . S
C4205 H4217 0.930 . S
C4206 C4202 1.524 . S
C4206 H4218 0.956 . S
C4206 H4219 0.961 . S
C4206 H4220 0.961 . S
C4207 C4204 1.539 . S
C4207 H4221 0.958 . S
C4207 H4222 0.961 . S
C4207 H4223 0.960 . S
H4208 C4192 0.931 . S
H4209 C4197 0.929 . S
H4210 C4198 0.960 . S
H4211 C4198 0.962 . S
H4212 C4198 0.960 . S
H4213 C4199 0.961 . S
H4214 C4199 0.961 . S
H4215 C4199 0.961 . S
H4216 C4200 0.931 . S
H4217 C4205 0.930 . S
H4218 C4206 0.956 . S
H4219 C4206 0.961 . S
H4220 C4206 0.961 . S
H4221 C4207 0.958 . S
H4222 C4207 0.961 . S
H4223 C4207 0.960 . S
C4224 C4225 1.391 . S
C4224 C4226 1.394 . S
C4224 H4240 0.931 . S
C4225 C4224 1.391 . S
C4225 C4229 1.376 . S
C4226 C4224 1.394 . S
C4226 C4227 1.369 . S
C4226 C4230 1.531 . S
C4227 C4226 1.369 . S
C4227 C4228 1.410 . S
C4227 C4235 1.503 . S
C4228 C4227 1.410 . S
C4228 C4229 1.392 . S
C4228 C4231 1.511 . S
C4229 C4225 1.376 . S
C4229 C4228 1.392 . S
C4229 H4241 0.929 . S
C4230 C4226 1.531 . S
C4230 H4242 0.960 . S
C4230 H4243 0.962 . S
C4230 H4244 0.960 . S
C4231 C4228 1.511 . S
C4231 H4245 0.961 . S
C4231 H4246 0.961 . S
C4231 H4247 0.961 . S
C4232 C4233 1.370 . S
C4232 C4234 1.363 . S
C4232 H4248 0.931 . S
C4233 C4232 1.370 . S
C4233 C4237 1.408 . S
C4234 C4232 1.363 . S
C4234 C4235 1.370 . S
C4234 C4238 1.524 . S
C4235 C4227 1.503 . S
C4235 C4234 1.370 . S
C4235 C4236 1.403 . S
C4236 C4235 1.403 . S
C4236 C4237 1.404 . S
C4236 C4239 1.539 . S
C4237 C4233 1.408 . S
C4237 C4236 1.404 . S
C4237 H4249 0.930 . S
C4238 C4234 1.524 . S
C4238 H4250 0.956 . S
C4238 H4251 0.961 . S
C4238 H4252 0.961 . S
C4239 C4236 1.539 . S
C4239 H4253 0.958 . S
C4239 H4254 0.961 . S
C4239 H4255 0.960 . S
H4240 C4224 0.931 . S
H4241 C4229 0.929 . S
H4242 C4230 0.960 . S
H4243 C4230 0.962 . S
H4244 C4230 0.960 . S
H4245 C4231 0.961 . S
H4246 C4231 0.961 . S
H4247 C4231 0.961 . S
H4248 C4232 0.931 . S
H4249 C4237 0.930 . S
H4250 C4238 0.956 . S
H4251 C4238 0.961 . S
H4252 C4238 0.961 . S
H4253 C4239 0.958 . S
H4254 C4239 0.961 . S
H4255 C4239 0.960 . S
C4256 C4257 1.391 . S
C4256 C4258 1.394 . S
C4256 H4272 0.931 . S
C4257 C4256 1.391 . S
C4257 C4261 1.376 . S
C4258 C4256 1.394 . S
C4258 C4259 1.369 . S
C4258 C4262 1.531 . S
C4259 C4258 1.369 . S
C4259 C4260 1.410 . S
C4259 C4267 1.503 . S
C4260 C4259 1.410 . S
C4260 C4261 1.392 . S
C4260 C4263 1.511 . S
C4261 C4257 1.376 . S
C4261 C4260 1.392 . S
C4261 H4273 0.929 . S
C4262 C4258 1.531 . S
C4262 H4274 0.960 . S
C4262 H4275 0.962 . S
C4262 H4276 0.960 . S
C4263 C4260 1.511 . S
C4263 H4277 0.961 . S
C4263 H4278 0.961 . S
C4263 H4279 0.961 . S
C4264 C4265 1.370 . S
C4264 C4266 1.363 . S
C4264 H4280 0.931 . S
C4265 C4264 1.370 . S
C4265 C4269 1.408 . S
C4266 C4264 1.363 . S
C4266 C4267 1.370 . S
C4266 C4270 1.524 . S
C4267 C4259 1.503 . S
C4267 C4266 1.370 . S
C4267 C4268 1.403 . S
C4268 C4267 1.403 . S
C4268 C4269 1.404 . S
C4268 C4271 1.539 . S
C4269 C4265 1.408 . S
C4269 C4268 1.404 . S
C4269 H4281 0.930 . S
C4270 C4266 1.524 . S
C4270 H4282 0.956 . S
C4270 H4283 0.961 . S
C4270 H4284 0.961 . S
C4271 C4268 1.539 . S
C4271 H4285 0.958 . S
C4271 H4286 0.961 . S
C4271 H4287 0.960 . S
H4272 C4256 0.931 . S
H4273 C4261 0.929 . S
H4274 C4262 0.960 . S
H4275 C4262 0.962 . S
H4276 C4262 0.960 . S
H4277 C4263 0.961 . S
H4278 C4263 0.961 . S
H4279 C4263 0.961 . S
H4280 C4264 0.931 . S
H4281 C4269 0.930 . S
H4282 C4270 0.956 . S
H4283 C4270 0.961 . S
H4284 C4270 0.961 . S
H4285 C4271 0.958 . S
H4286 C4271 0.961 . S
H4287 C4271 0.960 . S
C4288 C4289 1.391 . S
C4288 C4290 1.394 . S
C4288 H4304 0.931 . S
C4289 C4288 1.391 . S
C4289 C4293 1.376 . S
C4290 C4288 1.394 . S
C4290 C4291 1.369 . S
C4290 C4294 1.531 . S
C4291 C4290 1.369 . S
C4291 C4292 1.410 . S
C4291 C4299 1.503 . S
C4292 C4291 1.410 . S
C4292 C4293 1.392 . S
C4292 C4295 1.511 . S
C4293 C4289 1.376 . S
C4293 C4292 1.392 . S
C4293 H4305 0.929 . S
C4294 C4290 1.531 . S
C4294 H4306 0.960 . S
C4294 H4307 0.962 . S
C4294 H4308 0.960 . S
C4295 C4292 1.511 . S
C4295 H4309 0.961 . S
C4295 H4310 0.961 . S
C4295 H4311 0.961 . S
C4296 C4297 1.370 . S
C4296 C4298 1.363 . S
C4296 H4312 0.931 . S
C4297 C4296 1.370 . S
C4297 C4301 1.408 . S
C4298 C4296 1.363 . S
C4298 C4299 1.370 . S
C4298 C4302 1.524 . S
C4299 C4291 1.503 . S
C4299 C4298 1.370 . S
C4299 C4300 1.403 . S
C4300 C4299 1.403 . S
C4300 C4301 1.404 . S
C4300 C4303 1.539 . S
C4301 C4297 1.408 . S
C4301 C4300 1.404 . S
C4301 H4313 0.930 . S
C4302 C4298 1.524 . S
C4302 H4314 0.956 . S
C4302 H4315 0.961 . S
C4302 H4316 0.961 . S
C4303 C4300 1.539 . S
C4303 H4317 0.958 . S
C4303 H4318 0.961 . S
C4303 H4319 0.960 . S
H4304 C4288 0.931 . S
H4305 C4293 0.929 . S
H4306 C4294 0.960 . S
H4307 C4294 0.962 . S
H4308 C4294 0.960 . S
H4309 C4295 0.961 . S
H4310 C4295 0.961 . S
H4311 C4295 0.961 . S
H4312 C4296 0.931 . S
H4313 C4301 0.930 . S
H4314 C4302 0.956 . S
H4315 C4302 0.961 . S
H4316 C4302 0.961 . S
H4317 C4303 0.958 . S
H4318 C4303 0.961 . S
H4319 C4303 0.960 . S
C4320 C4321 1.391 . S
C4320 C4322 1.394 . S
C4320 H4336 0.931 . S
C4321 C4320 1.391 . S
C4321 C4325 1.376 . S
C4322 C4320 1.394 . S
C4322 C4323 1.369 . S
C4322 C4326 1.531 . S
C4323 C4322 1.369 . S
C4323 C4324 1.410 . S
C4323 C4331 1.503 . S
C4324 C4323 1.410 . S
C4324 C4325 1.392 . S
C4324 C4327 1.511 . S
C4325 C4321 1.376 . S
C4325 C4324 1.392 . S
C4325 H4337 0.929 . S
C4326 C4322 1.531 . S
C4326 H4338 0.960 . S
C4326 H4339 0.962 . S
C4326 H4340 0.960 . S
C4327 C4324 1.511 . S
C4327 H4341 0.961 . S
C4327 H4342 0.961 . S
C4327 H4343 0.961 . S
C4328 C4329 1.370 . S
C4328 C4330 1.363 . S
C4328 H4344 0.931 . S
C4329 C4328 1.370 . S
C4329 C4333 1.408 . S
C4330 C4328 1.363 . S
C4330 C4331 1.370 . S
C4330 C4334 1.524 . S
C4331 C4323 1.503 . S
C4331 C4330 1.370 . S
C4331 C4332 1.403 . S
C4332 C4331 1.403 . S
C4332 C4333 1.404 . S
C4332 C4335 1.539 . S
C4333 C4329 1.408 . S
C4333 C4332 1.404 . S
C4333 H4345 0.930 . S
C4334 C4330 1.524 . S
C4334 H4346 0.956 . S
C4334 H4347 0.961 . S
C4334 H4348 0.961 . S
C4335 C4332 1.539 . S
C4335 H4349 0.958 . S
C4335 H4350 0.961 . S
C4335 H4351 0.960 . S
H4336 C4320 0.931 . S
H4337 C4325 0.929 . S
H4338 C4326 0.960 . S
H4339 C4326 0.962 . S
H4340 C4326 0.960 . S
H4341 C4327 0.961 . S
H4342 C4327 0.961 . S
H4343 C4327 0.961 . S
H4344 C4328 0.931 . S
H4345 C4333 0.930 . S
H4346 C4334 0.956 . S
H4347 C4334 0.961 . S
H4348 C4334 0.961 . S
H4349 C4335 0.958 . S
H4350 C4335 0.961 . S
H4351 C4335 0.960 . S
C4352 C4353 1.391 . S
C4352 C4354 1.394 . S
C4352 H4368 0.931 . S
C4353 C4352 1.391 . S
C4353 C4357 1.376 . S
C4354 C4352 1.394 . S
C4354 C4355 1.369 . S
C4354 C4358 1.531 . S
C4355 C4354 1.369 . S
C4355 C4356 1.410 . S
C4355 C4363 1.503 . S
C4356 C4355 1.410 . S
C4356 C4357 1.392 . S
C4356 C4359 1.511 . S
C4357 C4353 1.376 . S
C4357 C4356 1.392 . S
C4357 H4369 0.929 . S
C4358 C4354 1.531 . S
C4358 H4370 0.960 . S
C4358 H4371 0.962 . S
C4358 H4372 0.960 . S
C4359 C4356 1.511 . S
C4359 H4373 0.961 . S
C4359 H4374 0.961 . S
C4359 H4375 0.961 . S
C4360 C4361 1.370 . S
C4360 C4362 1.363 . S
C4360 H4376 0.931 . S
C4361 C4360 1.370 . S
C4361 C4365 1.408 . S
C4362 C4360 1.363 . S
C4362 C4363 1.370 . S
C4362 C4366 1.524 . S
C4363 C4355 1.503 . S
C4363 C4362 1.370 . S
C4363 C4364 1.403 . S
C4364 C4363 1.403 . S
C4364 C4365 1.404 . S
C4364 C4367 1.539 . S
C4365 C4361 1.408 . S
C4365 C4364 1.404 . S
C4365 H4377 0.930 . S
C4366 C4362 1.524 . S
C4366 H4378 0.956 . S
C4366 H4379 0.961 . S
C4366 H4380 0.961 . S
C4367 C4364 1.539 . S
C4367 H4381 0.958 . S
C4367 H4382 0.961 . S
C4367 H4383 0.960 . S
H4368 C4352 0.931 . S
H4369 C4357 0.929 . S
H4370 C4358 0.960 . S
H4371 C4358 0.962 . S
H4372 C4358 0.960 . S
H4373 C4359 0.961 . S
H4374 C4359 0.961 . S
H4375 C4359 0.961 . S
H4376 C4360 0.931 . S
H4377 C4365 0.930 . S
H4378 C4366 0.956 . S
H4379 C4366 0.961 . S
H4380 C4366 0.961 . S
H4381 C4367 0.958 . S
H4382 C4367 0.961 . S
H4383 C4367 0.960 . S
C4384 C4385 1.391 . S
C4384 C4386 1.394 . S
C4384 H4400 0.931 . S
C4385 C4384 1.391 . S
C4385 C4389 1.376 . S
C4386 C4384 1.394 . S
C4386 C4387 1.369 . S
C4386 C4390 1.531 . S
C4387 C4386 1.369 . S
C4387 C4388 1.410 . S
C4387 C4395 1.503 . S
C4388 C4387 1.410 . S
C4388 C4389 1.392 . S
C4388 C4391 1.511 . S
C4389 C4385 1.376 . S
C4389 C4388 1.392 . S
C4389 H4401 0.929 . S
C4390 C4386 1.531 . S
C4390 H4402 0.960 . S
C4390 H4403 0.962 . S
C4390 H4404 0.960 . S
C4391 C4388 1.511 . S
C4391 H4405 0.961 . S
C4391 H4406 0.961 . S
C4391 H4407 0.961 . S
C4392 C4393 1.370 . S
C4392 C4394 1.363 . S
C4392 H4408 0.931 . S
C4393 C4392 1.370 . S
C4393 C4397 1.408 . S
C4394 C4392 1.363 . S
C4394 C4395 1.370 . S
C4394 C4398 1.524 . S
C4395 C4387 1.503 . S
C4395 C4394 1.370 . S
C4395 C4396 1.403 . S
C4396 C4395 1.403 . S
C4396 C4397 1.404 . S
C4396 C4399 1.539 . S
C4397 C4393 1.408 . S
C4397 C4396 1.404 . S
C4397 H4409 0.930 . S
C4398 C4394 1.524 . S
C4398 H4410 0.956 . S
C4398 H4411 0.961 . S
C4398 H4412 0.961 . S
C4399 C4396 1.539 . S
C4399 H4413 0.958 . S
C4399 H4414 0.961 . S
C4399 H4415 0.960 . S
H4400 C4384 0.931 . S
H4401 C4389 0.929 . S
H4402 C4390 0.960 . S
H4403 C4390 0.962 . S
H4404 C4390 0.960 . S
H4405 C4391 0.961 . S
H4406 C4391 0.961 . S
H4407 C4391 0.961 . S
H4408 C4392 0.931 . S
H4409 C4397 0.930 . S
H4410 C4398 0.956 . S
H4411 C4398 0.961 . S
H4412 C4398 0.961 . S
H4413 C4399 0.958 . S
H4414 C4399 0.961 . S
H4415 C4399 0.960 . S
C4416 C4417 1.391 . S
C4416 C4418 1.394 . S
C4416 H4432 0.931 . S
C4417 C4416 1.391 . S
C4417 C4421 1.376 . S
C4418 C4416 1.394 . S
C4418 C4419 1.369 . S
C4418 C4422 1.531 . S
C4419 C4418 1.369 . S
C4419 C4420 1.410 . S
C4419 C4427 1.503 . S
C4420 C4419 1.410 . S
C4420 C4421 1.392 . S
C4420 C4423 1.511 . S
C4421 C4417 1.376 . S
C4421 C4420 1.392 . S
C4421 H4433 0.929 . S
C4422 C4418 1.531 . S
C4422 H4434 0.960 . S
C4422 H4435 0.962 . S
C4422 H4436 0.960 . S
C4423 C4420 1.511 . S
C4423 H4437 0.961 . S
C4423 H4438 0.961 . S
C4423 H4439 0.961 . S
C4424 C4425 1.370 . S
C4424 C4426 1.363 . S
C4424 H4440 0.931 . S
C4425 C4424 1.370 . S
C4425 C4429 1.408 . S
C4426 C4424 1.363 . S
C4426 C4427 1.370 . S
C4426 C4430 1.524 . S
C4427 C4419 1.503 . S
C4427 C4426 1.370 . S
C4427 C4428 1.403 . S
C4428 C4427 1.403 . S
C4428 C4429 1.404 . S
C4428 C4431 1.539 . S
C4429 C4425 1.408 . S
C4429 C4428 1.404 . S
C4429 H4441 0.930 . S
C4430 C4426 1.524 . S
C4430 H4442 0.956 . S
C4430 H4443 0.961 . S
C4430 H4444 0.961 . S
C4431 C4428 1.539 . S
C4431 H4445 0.958 . S
C4431 H4446 0.961 . S
C4431 H4447 0.960 . S
H4432 C4416 0.931 . S
H4433 C4421 0.929 . S
H4434 C4422 0.960 . S
H4435 C4422 0.962 . S
H4436 C4422 0.960 . S
H4437 C4423 0.961 . S
H4438 C4423 0.961 . S
H4439 C4423 0.961 . S
H4440 C4424 0.931 . S
H4441 C4429 0.930 . S
H4442 C4430 0.956 . S
H4443 C4430 0.961 . S
H4444 C4430 0.961 . S
H4445 C4431 0.958 . S
H4446 C4431 0.961 . S
H4447 C4431 0.960 . S
C4448 C4449 1.391 . S
C4448 C4450 1.394 . S
C4448 H4464 0.931 . S
C4449 C4448 1.391 . S
C4449 C4453 1.376 . S
C4450 C4448 1.394 . S
C4450 C4451 1.369 . S
C4450 C4454 1.531 . S
C4451 C4450 1.369 . S
C4451 C4452 1.410 . S
C4451 C4459 1.503 . S
C4452 C4451 1.410 . S
C4452 C4453 1.392 . S
C4452 C4455 1.511 . S
C4453 C4449 1.376 . S
C4453 C4452 1.392 . S
C4453 H4465 0.929 . S
C4454 C4450 1.531 . S
C4454 H4466 0.960 . S
C4454 H4467 0.962 . S
C4454 H4468 0.960 . S
C4455 C4452 1.511 . S
C4455 H4469 0.961 . S
C4455 H4470 0.961 . S
C4455 H4471 0.961 . S
C4456 C4457 1.370 . S
C4456 C4458 1.363 . S
C4456 H4472 0.931 . S
C4457 C4456 1.370 . S
C4457 C4461 1.408 . S
C4458 C4456 1.363 . S
C4458 C4459 1.370 . S
C4458 C4462 1.524 . S
C4459 C4451 1.503 . S
C4459 C4458 1.370 . S
C4459 C4460 1.403 . S
C4460 C4459 1.403 . S
C4460 C4461 1.404 . S
C4460 C4463 1.539 . S
C4461 C4457 1.408 . S
C4461 C4460 1.404 . S
C4461 H4473 0.930 . S
C4462 C4458 1.524 . S
C4462 H4474 0.956 . S
C4462 H4475 0.961 . S
C4462 H4476 0.961 . S
C4463 C4460 1.539 . S
C4463 H4477 0.958 . S
C4463 H4478 0.961 . S
C4463 H4479 0.960 . S
H4464 C4448 0.931 . S
H4465 C4453 0.929 . S
H4466 C4454 0.960 . S
H4467 C4454 0.962 . S
H4468 C4454 0.960 . S
H4469 C4455 0.961 . S
H4470 C4455 0.961 . S
H4471 C4455 0.961 . S
H4472 C4456 0.931 . S
H4473 C4461 0.930 . S
H4474 C4462 0.956 . S
H4475 C4462 0.961 . S
H4476 C4462 0.961 . S
H4477 C4463 0.958 . S
H4478 C4463 0.961 . S
H4479 C4463 0.960 . S
C4480 C4481 1.391 . S
C4480 C4482 1.394 . S
C4480 H4496 0.931 . S
C4481 C4480 1.391 . S
C4481 C4485 1.376 . S
C4482 C4480 1.394 . S
C4482 C4483 1.369 . S
C4482 C4486 1.531 . S
C4483 C4482 1.369 . S
C4483 C4484 1.410 . S
C4483 C4491 1.503 . S
C4484 C4483 1.410 . S
C4484 C4485 1.392 . S
C4484 C4487 1.511 . S
C4485 C4481 1.376 . S
C4485 C4484 1.392 . S
C4485 H4497 0.929 . S
C4486 C4482 1.531 . S
C4486 H4498 0.960 . S
C4486 H4499 0.962 . S
C4486 H4500 0.960 . S
C4487 C4484 1.511 . S
C4487 H4501 0.961 . S
C4487 H4502 0.961 . S
C4487 H4503 0.961 . S
C4488 C4489 1.370 . S
C4488 C4490 1.363 . S
C4488 H4504 0.931 . S
C4489 C4488 1.370 . S
C4489 C4493 1.408 . S
C4490 C4488 1.363 . S
C4490 C4491 1.370 . S
C4490 C4494 1.524 . S
C4491 C4483 1.503 . S
C4491 C4490 1.370 . S
C4491 C4492 1.403 . S
C4492 C4491 1.403 . S
C4492 C4493 1.404 . S
C4492 C4495 1.539 . S
C4493 C4489 1.408 . S
C4493 C4492 1.404 . S
C4493 H4505 0.930 . S
C4494 C4490 1.524 . S
C4494 H4506 0.956 . S
C4494 H4507 0.961 . S
C4494 H4508 0.961 . S
C4495 C4492 1.539 . S
C4495 H4509 0.958 . S
C4495 H4510 0.961 . S
C4495 H4511 0.960 . S
H4496 C4480 0.931 . S
H4497 C4485 0.929 . S
H4498 C4486 0.960 . S
H4499 C4486 0.962 . S
H4500 C4486 0.960 . S
H4501 C4487 0.961 . S
H4502 C4487 0.961 . S
H4503 C4487 0.961 . S
H4504 C4488 0.931 . S
H4505 C4493 0.930 . S
H4506 C4494 0.956 . S
H4507 C4494 0.961 . S
H4508 C4494 0.961 . S
H4509 C4495 0.958 . S
H4510 C4495 0.961 . S
H4511 C4495 0.960 . S
C4512 C4513 1.391 . S
C4512 C4514 1.394 . S
C4512 H4528 0.931 . S
C4513 C4512 1.391 . S
C4513 C4517 1.376 . S
C4514 C4512 1.394 . S
C4514 C4515 1.369 . S
C4514 C4518 1.531 . S
C4515 C4514 1.369 . S
C4515 C4516 1.410 . S
C4515 C4523 1.503 . S
C4516 C4515 1.410 . S
C4516 C4517 1.392 . S
C4516 C4519 1.511 . S
C4517 C4513 1.376 . S
C4517 C4516 1.392 . S
C4517 H4529 0.929 . S
C4518 C4514 1.531 . S
C4518 H4530 0.960 . S
C4518 H4531 0.962 . S
C4518 H4532 0.960 . S
C4519 C4516 1.511 . S
C4519 H4533 0.961 . S
C4519 H4534 0.961 . S
C4519 H4535 0.961 . S
C4520 C4521 1.370 . S
C4520 C4522 1.363 . S
C4520 H4536 0.931 . S
C4521 C4520 1.370 . S
C4521 C4525 1.408 . S
C4522 C4520 1.363 . S
C4522 C4523 1.370 . S
C4522 C4526 1.524 . S
C4523 C4515 1.503 . S
C4523 C4522 1.370 . S
C4523 C4524 1.403 . S
C4524 C4523 1.403 . S
C4524 C4525 1.404 . S
C4524 C4527 1.539 . S
C4525 C4521 1.408 . S
C4525 C4524 1.404 . S
C4525 H4537 0.930 . S
C4526 C4522 1.524 . S
C4526 H4538 0.956 . S
C4526 H4539 0.961 . S
C4526 H4540 0.961 . S
C4527 C4524 1.539 . S
C4527 H4541 0.958 . S
C4527 H4542 0.961 . S
C4527 H4543 0.960 . S
H4528 C4512 0.931 . S
H4529 C4517 0.929 . S
H4530 C4518 0.960 . S
H4531 C4518 0.962 . S
H4532 C4518 0.960 . S
H4533 C4519 0.961 . S
H4534 C4519 0.961 . S
H4535 C4519 0.961 . S
H4536 C4520 0.931 . S
H4537 C4525 0.930 . S
H4538 C4526 0.956 . S
H4539 C4526 0.961 . S
H4540 C4526 0.961 . S
H4541 C4527 0.958 . S
H4542 C4527 0.961 . S
H4543 C4527 0.960 . S
C4544 C4545 1.391 . S
C4544 C4546 1.394 . S
C4544 H4560 0.931 . S
C4545 C4544 1.391 . S
C4545 C4549 1.376 . S
C4546 C4544 1.394 . S
C4546 C4547 1.369 . S
C4546 C4550 1.531 . S
C4547 C4546 1.369 . S
C4547 C4548 1.410 . S
C4547 C4555 1.503 . S
C4548 C4547 1.410 . S
C4548 C4549 1.392 . S
C4548 C4551 1.511 . S
C4549 C4545 1.376 . S
C4549 C4548 1.392 . S
C4549 H4561 0.929 . S
C4550 C4546 1.531 . S
C4550 H4562 0.960 . S
C4550 H4563 0.962 . S
C4550 H4564 0.960 . S
C4551 C4548 1.511 . S
C4551 H4565 0.961 . S
C4551 H4566 0.961 . S
C4551 H4567 0.961 . S
C4552 C4553 1.370 . S
C4552 C4554 1.363 . S
C4552 H4568 0.931 . S
C4553 C4552 1.370 . S
C4553 C4557 1.408 . S
C4554 C4552 1.363 . S
C4554 C4555 1.370 . S
C4554 C4558 1.524 . S
C4555 C4547 1.503 . S
C4555 C4554 1.370 . S
C4555 C4556 1.403 . S
C4556 C4555 1.403 . S
C4556 C4557 1.404 . S
C4556 C4559 1.539 . S
C4557 C4553 1.408 . S
C4557 C4556 1.404 . S
C4557 H4569 0.930 . S
C4558 C4554 1.524 . S
C4558 H4570 0.956 . S
C4558 H4571 0.961 . S
C4558 H4572 0.961 . S
C4559 C4556 1.539 . S
C4559 H4573 0.958 . S
C4559 H4574 0.961 . S
C4559 H4575 0.960 . S
H4560 C4544 0.931 . S
H4561 C4549 0.929 . S
H4562 C4550 0.960 . S
H4563 C4550 0.962 . S
H4564 C4550 0.960 . S
H4565 C4551 0.961 . S
H4566 C4551 0.961 . S
H4567 C4551 0.961 . S
H4568 C4552 0.931 . S
H4569 C4557 0.930 . S
H4570 C4558 0.956 . S
H4571 C4558 0.961 . S
H4572 C4558 0.961 . S
H4573 C4559 0.958 . S
H4574 C4559 0.961 . S
H4575 C4559 0.960 . S
C4576 C4577 1.391 . S
C4576 C4578 1.394 . S
C4576 H4592 0.931 . S
C4577 C4576 1.391 . S
C4577 C4581 1.376 . S
C4578 C4576 1.394 . S
C4578 C4579 1.369 . S
C4578 C4582 1.531 . S
C4579 C4578 1.369 . S
C4579 C4580 1.410 . S
C4579 C4587 1.503 . S
C4580 C4579 1.410 . S
C4580 C4581 1.392 . S
C4580 C4583 1.511 . S
C4581 C4577 1.376 . S
C4581 C4580 1.392 . S
C4581 H4593 0.929 . S
C4582 C4578 1.531 . S
C4582 H4594 0.960 . S
C4582 H4595 0.962 . S
C4582 H4596 0.960 . S
C4583 C4580 1.511 . S
C4583 H4597 0.961 . S
C4583 H4598 0.961 . S
C4583 H4599 0.961 . S
C4584 C4585 1.370 . S
C4584 C4586 1.363 . S
C4584 H4600 0.931 . S
C4585 C4584 1.370 . S
C4585 C4589 1.408 . S
C4586 C4584 1.363 . S
C4586 C4587 1.370 . S
C4586 C4590 1.524 . S
C4587 C4579 1.503 . S
C4587 C4586 1.370 . S
C4587 C4588 1.403 . S
C4588 C4587 1.403 . S
C4588 C4589 1.404 . S
C4588 C4591 1.539 . S
C4589 C4585 1.408 . S
C4589 C4588 1.404 . S
C4589 H4601 0.930 . S
C4590 C4586 1.524 . S
C4590 H4602 0.956 . S
C4590 H4603 0.961 . S
C4590 H4604 0.961 . S
C4591 C4588 1.539 . S
C4591 H4605 0.958 . S
C4591 H4606 0.961 . S
C4591 H4607 0.960 . S
H4592 C4576 0.931 . S
H4593 C4581 0.929 . S
H4594 C4582 0.960 . S
H4595 C4582 0.962 . S
H4596 C4582 0.960 . S
H4597 C4583 0.961 . S
H4598 C4583 0.961 . S
H4599 C4583 0.961 . S
H4600 C4584 0.931 . S
H4601 C4589 0.930 . S
H4602 C4590 0.956 . S
H4603 C4590 0.961 . S
H4604 C4590 0.961 . S
H4605 C4591 0.958 . S
H4606 C4591 0.961 . S
H4607 C4591 0.960 . S
C4608 C4609 1.391 . S
C4608 C4610 1.394 . S
C4608 H4624 0.931 . S
C4609 C4608 1.391 . S
C4609 C4613 1.376 . S
C4610 C4608 1.394 . S
C4610 C4611 1.369 . S
C4610 C4614 1.531 . S
C4611 C4610 1.369 . S
C4611 C4612 1.410 . S
C4611 C4619 1.503 . S
C4612 C4611 1.410 . S
C4612 C4613 1.392 . S
C4612 C4615 1.511 . S
C4613 C4609 1.376 . S
C4613 C4612 1.392 . S
C4613 H4625 0.929 . S
C4614 C4610 1.531 . S
C4614 H4626 0.960 . S
C4614 H4627 0.962 . S
C4614 H4628 0.960 . S
C4615 C4612 1.511 . S
C4615 H4629 0.961 . S
C4615 H4630 0.961 . S
C4615 H4631 0.961 . S
C4616 C4617 1.370 . S
C4616 C4618 1.363 . S
C4616 H4632 0.931 . S
C4617 C4616 1.370 . S
C4617 C4621 1.408 . S
C4618 C4616 1.363 . S
C4618 C4619 1.370 . S
C4618 C4622 1.524 . S
C4619 C4611 1.503 . S
C4619 C4618 1.370 . S
C4619 C4620 1.403 . S
C4620 C4619 1.403 . S
C4620 C4621 1.404 . S
C4620 C4623 1.539 . S
C4621 C4617 1.408 . S
C4621 C4620 1.404 . S
C4621 H4633 0.930 . S
C4622 C4618 1.524 . S
C4622 H4634 0.956 . S
C4622 H4635 0.961 . S
C4622 H4636 0.961 . S
C4623 C4620 1.539 . S
C4623 H4637 0.958 . S
C4623 H4638 0.961 . S
C4623 H4639 0.960 . S
H4624 C4608 0.931 . S
H4625 C4613 0.929 . S
H4626 C4614 0.960 . S
H4627 C4614 0.962 . S
H4628 C4614 0.960 . S
H4629 C4615 0.961 . S
H4630 C4615 0.961 . S
H4631 C4615 0.961 . S
H4632 C4616 0.931 . S
H4633 C4621 0.930 . S
H4634 C4622 0.956 . S
H4635 C4622 0.961 . S
H4636 C4622 0.961 . S
H4637 C4623 0.958 . S
H4638 C4623 0.961 . S
H4639 C4623 0.960 . S
C4640 C4641 1.391 . S
C4640 C4642 1.394 . S
C4640 H4656 0.931 . S
C4641 C4640 1.391 . S
C4641 C4645 1.376 . S
C4642 C4640 1.394 . S
C4642 C4643 1.369 . S
C4642 C4646 1.531 . S
C4643 C4642 1.369 . S
C4643 C4644 1.410 . S
C4643 C4651 1.503 . S
C4644 C4643 1.410 . S
C4644 C4645 1.392 . S
C4644 C4647 1.511 . S
C4645 C4641 1.376 . S
C4645 C4644 1.392 . S
C4645 H4657 0.929 . S
C4646 C4642 1.531 . S
C4646 H4658 0.960 . S
C4646 H4659 0.962 . S
C4646 H4660 0.960 . S
C4647 C4644 1.511 . S
C4647 H4661 0.961 . S
C4647 H4662 0.961 . S
C4647 H4663 0.961 . S
C4648 C4649 1.370 . S
C4648 C4650 1.363 . S
C4648 H4664 0.931 . S
C4649 C4648 1.370 . S
C4649 C4653 1.408 . S
C4650 C4648 1.363 . S
C4650 C4651 1.370 . S
C4650 C4654 1.524 . S
C4651 C4643 1.503 . S
C4651 C4650 1.370 . S
C4651 C4652 1.403 . S
C4652 C4651 1.403 . S
C4652 C4653 1.404 . S
C4652 C4655 1.539 . S
C4653 C4649 1.408 . S
C4653 C4652 1.404 . S
C4653 H4665 0.930 . S
C4654 C4650 1.524 . S
C4654 H4666 0.956 . S
C4654 H4667 0.961 . S
C4654 H4668 0.961 . S
C4655 C4652 1.539 . S
C4655 H4669 0.958 . S
C4655 H4670 0.961 . S
C4655 H4671 0.960 . S
H4656 C4640 0.931 . S
H4657 C4645 0.929 . S
H4658 C4646 0.960 . S
H4659 C4646 0.962 . S
H4660 C4646 0.960 . S
H4661 C4647 0.961 . S
H4662 C4647 0.961 . S
H4663 C4647 0.961 . S
H4664 C4648 0.931 . S
H4665 C4653 0.930 . S
H4666 C4654 0.956 . S
H4667 C4654 0.961 . S
H4668 C4654 0.961 . S
H4669 C4655 0.958 . S
H4670 C4655 0.961 . S
H4671 C4655 0.960 . S
C4672 C4673 1.391 . S
C4672 C4674 1.394 . S
C4672 H4688 0.931 . S
C4673 C4672 1.391 . S
C4673 C4677 1.376 . S
C4674 C4672 1.394 . S
C4674 C4675 1.369 . S
C4674 C4678 1.531 . S
C4675 C4674 1.369 . S
C4675 C4676 1.410 . S
C4675 C4683 1.503 . S
C4676 C4675 1.410 . S
C4676 C4677 1.392 . S
C4676 C4679 1.511 . S
C4677 C4673 1.376 . S
C4677 C4676 1.392 . S
C4677 H4689 0.929 . S
C4678 C4674 1.531 . S
C4678 H4690 0.960 . S
C4678 H4691 0.962 . S
C4678 H4692 0.960 . S
C4679 C4676 1.511 . S
C4679 H4693 0.961 . S
C4679 H4694 0.961 . S
C4679 H4695 0.961 . S
C4680 C4681 1.370 . S
C4680 C4682 1.363 . S
C4680 H4696 0.931 . S
C4681 C4680 1.370 . S
C4681 C4685 1.408 . S
C4682 C4680 1.363 . S
C4682 C4683 1.370 . S
C4682 C4686 1.524 . S
C4683 C4675 1.503 . S
C4683 C4682 1.370 . S
C4683 C4684 1.403 . S
C4684 C4683 1.403 . S
C4684 C4685 1.404 . S
C4684 C4687 1.539 . S
C4685 C4681 1.408 . S
C4685 C4684 1.404 . S
C4685 H4697 0.930 . S
C4686 C4682 1.524 . S
C4686 H4698 0.956 . S
C4686 H4699 0.961 . S
C4686 H4700 0.961 . S
C4687 C4684 1.539 . S
C4687 H4701 0.958 . S
C4687 H4702 0.961 . S
C4687 H4703 0.960 . S
H4688 C4672 0.931 . S
H4689 C4677 0.929 . S
H4690 C4678 0.960 . S
H4691 C4678 0.962 . S
H4692 C4678 0.960 . S
H4693 C4679 0.961 . S
H4694 C4679 0.961 . S
H4695 C4679 0.961 . S
H4696 C4680 0.931 . S
H4697 C4685 0.930 . S
H4698 C4686 0.956 . S
H4699 C4686 0.961 . S
H4700 C4686 0.961 . S
H4701 C4687 0.958 . S
H4702 C4687 0.961 . S
H4703 C4687 0.960 . S
C4704 C4705 1.391 . S
C4704 C4706 1.394 . S
C4704 H4720 0.931 . S
C4705 C4704 1.391 . S
C4705 C4709 1.376 . S
C4706 C4704 1.394 . S
C4706 C4707 1.369 . S
C4706 C4710 1.531 . S
C4707 C4706 1.369 . S
C4707 C4708 1.410 . S
C4707 C4715 1.503 . S
C4708 C4707 1.410 . S
C4708 C4709 1.392 . S
C4708 C4711 1.511 . S
C4709 C4705 1.376 . S
C4709 C4708 1.392 . S
C4709 H4721 0.929 . S
C4710 C4706 1.531 . S
C4710 H4722 0.960 . S
C4710 H4723 0.962 . S
C4710 H4724 0.960 . S
C4711 C4708 1.511 . S
C4711 H4725 0.961 . S
C4711 H4726 0.961 . S
C4711 H4727 0.961 . S
C4712 C4713 1.370 . S
C4712 C4714 1.363 . S
C4712 H4728 0.931 . S
C4713 C4712 1.370 . S
C4713 C4717 1.408 . S
C4714 C4712 1.363 . S
C4714 C4715 1.370 . S
C4714 C4718 1.524 . S
C4715 C4707 1.503 . S
C4715 C4714 1.370 . S
C4715 C4716 1.403 . S
C4716 C4715 1.403 . S
C4716 C4717 1.404 . S
C4716 C4719 1.539 . S
C4717 C4713 1.408 . S
C4717 C4716 1.404 . S
C4717 H4729 0.930 . S
C4718 C4714 1.524 . S
C4718 H4730 0.956 . S
C4718 H4731 0.961 . S
C4718 H4732 0.961 . S
C4719 C4716 1.539 . S
C4719 H4733 0.958 . S
C4719 H4734 0.961 . S
C4719 H4735 0.960 . S
H4720 C4704 0.931 . S
H4721 C4709 0.929 . S
H4722 C4710 0.960 . S
H4723 C4710 0.962 . S
H4724 C4710 0.960 . S
H4725 C4711 0.961 . S
H4726 C4711 0.961 . S
H4727 C4711 0.961 . S
H4728 C4712 0.931 . S
H4729 C4717 0.930 . S
H4730 C4718 0.956 . S
H4731 C4718 0.961 . S
H4732 C4718 0.961 . S
H4733 C4719 0.958 . S
H4734 C4719 0.961 . S
H4735 C4719 0.960 . S
C4736 C4737 1.391 . S
C4736 C4738 1.394 . S
C4736 H4752 0.931 . S
C4737 C4736 1.391 . S
C4737 C4741 1.376 . S
C4738 C4736 1.394 . S
C4738 C4739 1.369 . S
C4738 C4742 1.531 . S
C4739 C4738 1.369 . S
C4739 C4740 1.410 . S
C4739 C4747 1.503 . S
C4740 C4739 1.410 . S
C4740 C4741 1.392 . S
C4740 C4743 1.511 . S
C4741 C4737 1.376 . S
C4741 C4740 1.392 . S
C4741 H4753 0.929 . S
C4742 C4738 1.531 . S
C4742 H4754 0.960 . S
C4742 H4755 0.962 . S
C4742 H4756 0.960 . S
C4743 C4740 1.511 . S
C4743 H4757 0.961 . S
C4743 H4758 0.961 . S
C4743 H4759 0.961 . S
C4744 C4745 1.370 . S
C4744 C4746 1.363 . S
C4744 H4760 0.931 . S
C4745 C4744 1.370 . S
C4745 C4749 1.408 . S
C4746 C4744 1.363 . S
C4746 C4747 1.370 . S
C4746 C4750 1.524 . S
C4747 C4739 1.503 . S
C4747 C4746 1.370 . S
C4747 C4748 1.403 . S
C4748 C4747 1.403 . S
C4748 C4749 1.404 . S
C4748 C4751 1.539 . S
C4749 C4745 1.408 . S
C4749 C4748 1.404 . S
C4749 H4761 0.930 . S
C4750 C4746 1.524 . S
C4750 H4762 0.956 . S
C4750 H4763 0.961 . S
C4750 H4764 0.961 . S
C4751 C4748 1.539 . S
C4751 H4765 0.958 . S
C4751 H4766 0.961 . S
C4751 H4767 0.960 . S
H4752 C4736 0.931 . S
H4753 C4741 0.929 . S
H4754 C4742 0.960 . S
H4755 C4742 0.962 . S
H4756 C4742 0.960 . S
H4757 C4743 0.961 . S
H4758 C4743 0.961 . S
H4759 C4743 0.961 . S
H4760 C4744 0.931 . S
H4761 C4749 0.930 . S
H4762 C4750 0.956 . S
H4763 C4750 0.961 . S
H4764 C4750 0.961 . S
H4765 C4751 0.958 . S
H4766 C4751 0.961 . S
H4767 C4751 0.960 . S
C4768 C4769 1.391 . S
C4768 C4770 1.394 . S
C4768 H4784 0.931 . S
C4769 C4768 1.391 . S
C4769 C4773 1.376 . S
C4770 C4768 1.394 . S
C4770 C4771 1.369 . S
C4770 C4774 1.531 . S
C4771 C4770 1.369 . S
C4771 C4772 1.410 . S
C4771 C4779 1.503 . S
C4772 C4771 1.410 . S
C4772 C4773 1.392 . S
C4772 C4775 1.511 . S
C4773 C4769 1.376 . S
C4773 C4772 1.392 . S
C4773 H4785 0.929 . S
C4774 C4770 1.531 . S
C4774 H4786 0.960 . S
C4774 H4787 0.962 . S
C4774 H4788 0.960 . S
C4775 C4772 1.511 . S
C4775 H4789 0.961 . S
C4775 H4790 0.961 . S
C4775 H4791 0.961 . S
C4776 C4777 1.370 . S
C4776 C4778 1.363 . S
C4776 H4792 0.931 . S
C4777 C4776 1.370 . S
C4777 C4781 1.408 . S
C4778 C4776 1.363 . S
C4778 C4779 1.370 . S
C4778 C4782 1.524 . S
C4779 C4771 1.503 . S
C4779 C4778 1.370 . S
C4779 C4780 1.403 . S
C4780 C4779 1.403 . S
C4780 C4781 1.404 . S
C4780 C4783 1.539 . S
C4781 C4777 1.408 . S
C4781 C4780 1.404 . S
C4781 H4793 0.930 . S
C4782 C4778 1.524 . S
C4782 H4794 0.956 . S
C4782 H4795 0.961 . S
C4782 H4796 0.961 . S
C4783 C4780 1.539 . S
C4783 H4797 0.958 . S
C4783 H4798 0.961 . S
C4783 H4799 0.960 . S
H4784 C4768 0.931 . S
H4785 C4773 0.929 . S
H4786 C4774 0.960 . S
H4787 C4774 0.962 . S
H4788 C4774 0.960 . S
H4789 C4775 0.961 . S
H4790 C4775 0.961 . S
H4791 C4775 0.961 . S
H4792 C4776 0.931 . S
H4793 C4781 0.930 . S
H4794 C4782 0.956 . S
H4795 C4782 0.961 . S
H4796 C4782 0.961 . S
H4797 C4783 0.958 . S
H4798 C4783 0.961 . S
H4799 C4783 0.960 . S
C4800 C4801 1.391 . S
C4800 C4802 1.394 . S
C4800 H4816 0.931 . S
C4801 C4800 1.391 . S
C4801 C4805 1.376 . S
C4802 C4800 1.394 . S
C4802 C4803 1.369 . S
C4802 C4806 1.531 . S
C4803 C4802 1.369 . S
C4803 C4804 1.410 . S
C4803 C4811 1.503 . S
C4804 C4803 1.410 . S
C4804 C4805 1.392 . S
C4804 C4807 1.511 . S
C4805 C4801 1.376 . S
C4805 C4804 1.392 . S
C4805 H4817 0.929 . S
C4806 C4802 1.531 . S
C4806 H4818 0.960 . S
C4806 H4819 0.962 . S
C4806 H4820 0.960 . S
C4807 C4804 1.511 . S
C4807 H4821 0.961 . S
C4807 H4822 0.961 . S
C4807 H4823 0.961 . S
C4808 C4809 1.370 . S
C4808 C4810 1.363 . S
C4808 H4824 0.931 . S
C4809 C4808 1.370 . S
C4809 C4813 1.408 . S
C4810 C4808 1.363 . S
C4810 C4811 1.370 . S
C4810 C4814 1.524 . S
C4811 C4803 1.503 . S
C4811 C4810 1.370 . S
C4811 C4812 1.403 . S
C4812 C4811 1.403 . S
C4812 C4813 1.404 . S
C4812 C4815 1.539 . S
C4813 C4809 1.408 . S
C4813 C4812 1.404 . S
C4813 H4825 0.930 . S
C4814 C4810 1.524 . S
C4814 H4826 0.956 . S
C4814 H4827 0.961 . S
C4814 H4828 0.961 . S
C4815 C4812 1.539 . S
C4815 H4829 0.958 . S
C4815 H4830 0.961 . S
C4815 H4831 0.960 . S
H4816 C4800 0.931 . S
H4817 C4805 0.929 . S
H4818 C4806 0.960 . S
H4819 C4806 0.962 . S
H4820 C4806 0.960 . S
H4821 C4807 0.961 . S
H4822 C4807 0.961 . S
H4823 C4807 0.961 . S
H4824 C4808 0.931 . S
H4825 C4813 0.930 . S
H4826 C4814 0.956 . S
H4827 C4814 0.961 . S
H4828 C4814 0.961 . S
H4829 C4815 0.958 . S
H4830 C4815 0.961 . S
H4831 C4815 0.960 . S
C4832 C4833 1.391 . S
C4832 C4834 1.394 . S
C4832 H4848 0.931 . S
C4833 C4832 1.391 . S
C4833 C4837 1.376 . S
C4834 C4832 1.394 . S
C4834 C4835 1.369 . S
C4834 C4838 1.531 . S
C4835 C4834 1.369 . S
C4835 C4836 1.410 . S
C4835 C4843 1.503 . S
C4836 C4835 1.410 . S
C4836 C4837 1.392 . S
C4836 C4839 1.511 . S
C4837 C4833 1.376 . S
C4837 C4836 1.392 . S
C4837 H4849 0.929 . S
C4838 C4834 1.531 . S
C4838 H4850 0.960 . S
C4838 H4851 0.962 . S
C4838 H4852 0.960 . S
C4839 C4836 1.511 . S
C4839 H4853 0.961 . S
C4839 H4854 0.961 . S
C4839 H4855 0.961 . S
C4840 C4841 1.370 . S
C4840 C4842 1.363 . S
C4840 H4856 0.931 . S
C4841 C4840 1.370 . S
C4841 C4845 1.408 . S
C4842 C4840 1.363 . S
C4842 C4843 1.370 . S
C4842 C4846 1.524 . S
C4843 C4835 1.503 . S
C4843 C4842 1.370 . S
C4843 C4844 1.403 . S
C4844 C4843 1.403 . S
C4844 C4845 1.404 . S
C4844 C4847 1.539 . S
C4845 C4841 1.408 . S
C4845 C4844 1.404 . S
C4845 H4857 0.930 . S
C4846 C4842 1.524 . S
C4846 H4858 0.956 . S
C4846 H4859 0.961 . S
C4846 H4860 0.961 . S
C4847 C4844 1.539 . S
C4847 H4861 0.958 . S
C4847 H4862 0.961 . S
C4847 H4863 0.960 . S
H4848 C4832 0.931 . S
H4849 C4837 0.929 . S
H4850 C4838 0.960 . S
H4851 C4838 0.962 . S
H4852 C4838 0.960 . S
H4853 C4839 0.961 . S
H4854 C4839 0.961 . S
H4855 C4839 0.961 . S
H4856 C4840 0.931 . S
H4857 C4845 0.930 . S
H4858 C4846 0.956 . S
H4859 C4846 0.961 . S
H4860 C4846 0.961 . S
H4861 C4847 0.958 . S
H4862 C4847 0.961 . S
H4863 C4847 0.960 . S
C4864 C4865 1.391 . S
C4864 C4866 1.394 . S
C4864 H4880 0.931 . S
C4865 C4864 1.391 . S
C4865 C4869 1.376 . S
C4866 C4864 1.394 . S
C4866 C4867 1.369 . S
C4866 C4870 1.531 . S
C4867 C4866 1.369 . S
C4867 C4868 1.410 . S
C4867 C4875 1.503 . S
C4868 C4867 1.410 . S
C4868 C4869 1.392 . S
C4868 C4871 1.511 . S
C4869 C4865 1.376 . S
C4869 C4868 1.392 . S
C4869 H4881 0.929 . S
C4870 C4866 1.531 . S
C4870 H4882 0.960 . S
C4870 H4883 0.962 . S
C4870 H4884 0.960 . S
C4871 C4868 1.511 . S
C4871 H4885 0.961 . S
C4871 H4886 0.961 . S
C4871 H4887 0.961 . S
C4872 C4873 1.370 . S
C4872 C4874 1.363 . S
C4872 H4888 0.931 . S
C4873 C4872 1.370 . S
C4873 C4877 1.408 . S
C4874 C4872 1.363 . S
C4874 C4875 1.370 . S
C4874 C4878 1.524 . S
C4875 C4867 1.503 . S
C4875 C4874 1.370 . S
C4875 C4876 1.403 . S
C4876 C4875 1.403 . S
C4876 C4877 1.404 . S
C4876 C4879 1.539 . S
C4877 C4873 1.408 . S
C4877 C4876 1.404 . S
C4877 H4889 0.930 . S
C4878 C4874 1.524 . S
C4878 H4890 0.956 . S
C4878 H4891 0.961 . S
C4878 H4892 0.961 . S
C4879 C4876 1.539 . S
C4879 H4893 0.958 . S
C4879 H4894 0.961 . S
C4879 H4895 0.960 . S
H4880 C4864 0.931 . S
H4881 C4869 0.929 . S
H4882 C4870 0.960 . S
H4883 C4870 0.962 . S
H4884 C4870 0.960 . S
H4885 C4871 0.961 . S
H4886 C4871 0.961 . S
H4887 C4871 0.961 . S
H4888 C4872 0.931 . S
H4889 C4877 0.930 . S
H4890 C4878 0.956 . S
H4891 C4878 0.961 . S
H4892 C4878 0.961 . S
H4893 C4879 0.958 . S
H4894 C4879 0.961 . S
H4895 C4879 0.960 . S
C4896 C4897 1.391 . S
C4896 C4898 1.394 . S
C4896 H4912 0.931 . S
C4897 C4896 1.391 . S
C4897 C4901 1.376 . S
C4898 C4896 1.394 . S
C4898 C4899 1.369 . S
C4898 C4902 1.531 . S
C4899 C4898 1.369 . S
C4899 C4900 1.410 . S
C4899 C4907 1.503 . S
C4900 C4899 1.410 . S
C4900 C4901 1.392 . S
C4900 C4903 1.511 . S
C4901 C4897 1.376 . S
C4901 C4900 1.392 . S
C4901 H4913 0.929 . S
C4902 C4898 1.531 . S
C4902 H4914 0.960 . S
C4902 H4915 0.962 . S
C4902 H4916 0.960 . S
C4903 C4900 1.511 . S
C4903 H4917 0.961 . S
C4903 H4918 0.961 . S
C4903 H4919 0.961 . S
C4904 C4905 1.370 . S
C4904 C4906 1.363 . S
C4904 H4920 0.931 . S
C4905 C4904 1.370 . S
C4905 C4909 1.408 . S
C4906 C4904 1.363 . S
C4906 C4907 1.370 . S
C4906 C4910 1.524 . S
C4907 C4899 1.503 . S
C4907 C4906 1.370 . S
C4907 C4908 1.403 . S
C4908 C4907 1.403 . S
C4908 C4909 1.404 . S
C4908 C4911 1.539 . S
C4909 C4905 1.408 . S
C4909 C4908 1.404 . S
C4909 H4921 0.930 . S
C4910 C4906 1.524 . S
C4910 H4922 0.956 . S
C4910 H4923 0.961 . S
C4910 H4924 0.961 . S
C4911 C4908 1.539 . S
C4911 H4925 0.958 . S
C4911 H4926 0.961 . S
C4911 H4927 0.960 . S
H4912 C4896 0.931 . S
H4913 C4901 0.929 . S
H4914 C4902 0.960 . S
H4915 C4902 0.962 . S
H4916 C4902 0.960 . S
H4917 C4903 0.961 . S
H4918 C4903 0.961 . S
H4919 C4903 0.961 . S
H4920 C4904 0.931 . S
H4921 C4909 0.930 . S
H4922 C4910 0.956 . S
H4923 C4910 0.961 . S
H4924 C4910 0.961 . S
H4925 C4911 0.958 . S
H4926 C4911 0.961 . S
H4927 C4911 0.960 . S
C4928 C4929 1.391 . S
C4928 C4930 1.394 . S
C4928 H4944 0.931 . S
C4929 C4928 1.391 . S
C4929 C4933 1.376 . S
C4930 C4928 1.394 . S
C4930 C4931 1.369 . S
C4930 C4934 1.531 . S
C4931 C4930 1.369 . S
C4931 C4932 1.410 . S
C4931 C4939 1.503 . S
C4932 C4931 1.410 . S
C4932 C4933 1.392 . S
C4932 C4935 1.511 . S
C4933 C4929 1.376 . S
C4933 C4932 1.392 . S
C4933 H4945 0.929 . S
C4934 C4930 1.531 . S
C4934 H4946 0.960 . S
C4934 H4947 0.962 . S
C4934 H4948 0.960 . S
C4935 C4932 1.511 . S
C4935 H4949 0.961 . S
C4935 H4950 0.961 . S
C4935 H4951 0.961 . S
C4936 C4937 1.370 . S
C4936 C4938 1.363 . S
C4936 H4952 0.931 . S
C4937 C4936 1.370 . S
C4937 C4941 1.408 . S
C4938 C4936 1.363 . S
C4938 C4939 1.370 . S
C4938 C4942 1.524 . S
C4939 C4931 1.503 . S
C4939 C4938 1.370 . S
C4939 C4940 1.403 . S
C4940 C4939 1.403 . S
C4940 C4941 1.404 . S
C4940 C4943 1.539 . S
C4941 C4937 1.408 . S
C4941 C4940 1.404 . S
C4941 H4953 0.930 . S
C4942 C4938 1.524 . S
C4942 H4954 0.956 . S
C4942 H4955 0.961 . S
C4942 H4956 0.961 . S
C4943 C4940 1.539 . S
C4943 H4957 0.958 . S
C4943 H4958 0.961 . S
C4943 H4959 0.960 . S
H4944 C4928 0.931 . S
H4945 C4933 0.929 . S
H4946 C4934 0.960 . S
H4947 C4934 0.962 . S
H4948 C4934 0.960 . S
H4949 C4935 0.961 . S
H4950 C4935 0.961 . S
H4951 C4935 0.961 . S
H4952 C4936 0.931 . S
H4953 C4941 0.930 . S
H4954 C4942 0.956 . S
H4955 C4942 0.961 . S
H4956 C4942 0.961 . S
H4957 C4943 0.958 . S
H4958 C4943 0.961 . S
H4959 C4943 0.960 . S
C4960 C4961 1.391 . S
C4960 C4962 1.394 . S
C4960 H4976 0.931 . S
C4961 C4960 1.391 . S
C4961 C4965 1.376 . S
C4962 C4960 1.394 . S
C4962 C4963 1.369 . S
C4962 C4966 1.531 . S
C4963 C4962 1.369 . S
C4963 C4964 1.410 . S
C4963 C4971 1.503 . S
C4964 C4963 1.410 . S
C4964 C4965 1.392 . S
C4964 C4967 1.511 . S
C4965 C4961 1.376 . S
C4965 C4964 1.392 . S
C4965 H4977 0.929 . S
C4966 C4962 1.531 . S
C4966 H4978 0.960 . S
C4966 H4979 0.962 . S
C4966 H4980 0.960 . S
C4967 C4964 1.511 . S
C4967 H4981 0.961 . S
C4967 H4982 0.961 . S
C4967 H4983 0.961 . S
C4968 C4969 1.370 . S
C4968 C4970 1.363 . S
C4968 H4984 0.931 . S
C4969 C4968 1.370 . S
C4969 C4973 1.408 . S
C4970 C4968 1.363 . S
C4970 C4971 1.370 . S
C4970 C4974 1.524 . S
C4971 C4963 1.503 . S
C4971 C4970 1.370 . S
C4971 C4972 1.403 . S
C4972 C4971 1.403 . S
C4972 C4973 1.404 . S
C4972 C4975 1.539 . S
C4973 C4969 1.408 . S
C4973 C4972 1.404 . S
C4973 H4985 0.930 . S
C4974 C4970 1.524 . S
C4974 H4986 0.956 . S
C4974 H4987 0.961 . S
C4974 H4988 0.961 . S
C4975 C4972 1.539 . S
C4975 H4989 0.958 . S
C4975 H4990 0.961 . S
C4975 H4991 0.960 . S
H4976 C4960 0.931 . S
H4977 C4965 0.929 . S
H4978 C4966 0.960 . S
H4979 C4966 0.962 . S
H4980 C4966 0.960 . S
H4981 C4967 0.961 . S
H4982 C4967 0.961 . S
H4983 C4967 0.961 . S
H4984 C4968 0.931 . S
H4985 C4973 0.930 . S
H4986 C4974 0.956 . S
H4987 C4974 0.961 . S
H4988 C4974 0.961 . S
H4989 C4975 0.958 . S
H4990 C4975 0.961 . S
H4991 C4975 0.960 . S
C4992 C4993 1.391 . S
C4992 C4994 1.394 . S
C4992 H5008 0.931 . S
C4993 C4992 1.391 . S
C4993 C4997 1.376 . S
C4994 C4992 1.394 . S
C4994 C4995 1.369 . S
C4994 C4998 1.531 . S
C4995 C4994 1.369 . S
C4995 C4996 1.410 . S
C4995 C5003 1.503 . S
C4996 C4995 1.410 . S
C4996 C4997 1.392 . S
C4996 C4999 1.511 . S
C4997 C4993 1.376 . S
C4997 C4996 1.392 . S
C4997 H5009 0.929 . S
C4998 C4994 1.531 . S
C4998 H5010 0.960 . S
C4998 H5011 0.962 . S
C4998 H5012 0.960 . S
C4999 C4996 1.511 . S
C4999 H5013 0.961 . S
C4999 H5014 0.961 . S
C4999 H5015 0.961 . S
C5000 C5001 1.370 . S
C5000 C5002 1.363 . S
C5000 H5016 0.931 . S
C5001 C5000 1.370 . S
C5001 C5005 1.408 . S
C5002 C5000 1.363 . S
C5002 C5003 1.370 . S
C5002 C5006 1.524 . S
C5003 C4995 1.503 . S
C5003 C5002 1.370 . S
C5003 C5004 1.403 . S
C5004 C5003 1.403 . S
C5004 C5005 1.404 . S
C5004 C5007 1.539 . S
C5005 C5001 1.408 . S
C5005 C5004 1.404 . S
C5005 H5017 0.930 . S
C5006 C5002 1.524 . S
C5006 H5018 0.956 . S
C5006 H5019 0.961 . S
C5006 H5020 0.961 . S
C5007 C5004 1.539 . S
C5007 H5021 0.958 . S
C5007 H5022 0.961 . S
C5007 H5023 0.960 . S
H5008 C4992 0.931 . S
H5009 C4997 0.929 . S
H5010 C4998 0.960 . S
H5011 C4998 0.962 . S
H5012 C4998 0.960 . S
H5013 C4999 0.961 . S
H5014 C4999 0.961 . S
H5015 C4999 0.961 . S
H5016 C5000 0.931 . S
H5017 C5005 0.930 . S
H5018 C5006 0.956 . S
H5019 C5006 0.961 . S
H5020 C5006 0.961 . S
H5021 C5007 0.958 . S
H5022 C5007 0.961 . S
H5023 C5007 0.960 . S
C5024 C5025 1.391 . S
C5024 C5026 1.394 . S
C5024 H5040 0.931 . S
C5025 C5024 1.391 . S
C5025 C5029 1.376 . S
C5026 C5024 1.394 . S
C5026 C5027 1.369 . S
C5026 C5030 1.531 . S
C5027 C5026 1.369 . S
C5027 C5028 1.410 . S
C5027 C5035 1.503 . S
C5028 C5027 1.410 . S
C5028 C5029 1.392 . S
C5028 C5031 1.511 . S
C5029 C5025 1.376 . S
C5029 C5028 1.392 . S
C5029 H5041 0.929 . S
C5030 C5026 1.531 . S
C5030 H5042 0.960 . S
C5030 H5043 0.962 . S
C5030 H5044 0.960 . S
C5031 C5028 1.511 . S
C5031 H5045 0.961 . S
C5031 H5046 0.961 . S
C5031 H5047 0.961 . S
C5032 C5033 1.370 . S
C5032 C5034 1.363 . S
C5032 H5048 0.931 . S
C5033 C5032 1.370 . S
C5033 C5037 1.408 . S
C5034 C5032 1.363 . S
C5034 C5035 1.370 . S
C5034 C5038 1.524 . S
C5035 C5027 1.503 . S
C5035 C5034 1.370 . S
C5035 C5036 1.403 . S
C5036 C5035 1.403 . S
C5036 C5037 1.404 . S
C5036 C5039 1.539 . S
C5037 C5033 1.408 . S
C5037 C5036 1.404 . S
C5037 H5049 0.930 . S
C5038 C5034 1.524 . S
C5038 H5050 0.956 . S
C5038 H5051 0.961 . S
C5038 H5052 0.961 . S
C5039 C5036 1.539 . S
C5039 H5053 0.958 . S
C5039 H5054 0.961 . S
C5039 H5055 0.960 . S
H5040 C5024 0.931 . S
H5041 C5029 0.929 . S
H5042 C5030 0.960 . S
H5043 C5030 0.962 . S
H5044 C5030 0.960 . S
H5045 C5031 0.961 . S
H5046 C5031 0.961 . S
H5047 C5031 0.961 . S
H5048 C5032 0.931 . S
H5049 C5037 0.930 . S
H5050 C5038 0.956 . S
H5051 C5038 0.961 . S
H5052 C5038 0.961 . S
H5053 C5039 0.958 . S
H5054 C5039 0.961 . S
H5055 C5039 0.960 . S
C5056 C5057 1.391 . S
C5056 C5058 1.394 . S
C5056 H5072 0.931 . S
C5057 C5056 1.391 . S
C5057 C5061 1.376 . S
C5058 C5056 1.394 . S
C5058 C5059 1.369 . S
C5058 C5062 1.531 . S
C5059 C5058 1.369 . S
C5059 C5060 1.410 . S
C5059 C5067 1.503 . S
C5060 C5059 1.410 . S
C5060 C5061 1.392 . S
C5060 C5063 1.511 . S
C5061 C5057 1.376 . S
C5061 C5060 1.392 . S
C5061 H5073 0.929 . S
C5062 C5058 1.531 . S
C5062 H5074 0.960 . S
C5062 H5075 0.962 . S
C5062 H5076 0.960 . S
C5063 C5060 1.511 . S
C5063 H5077 0.961 . S
C5063 H5078 0.961 . S
C5063 H5079 0.961 . S
C5064 C5065 1.370 . S
C5064 C5066 1.363 . S
C5064 H5080 0.931 . S
C5065 C5064 1.370 . S
C5065 C5069 1.408 . S
C5066 C5064 1.363 . S
C5066 C5067 1.370 . S
C5066 C5070 1.524 . S
C5067 C5059 1.503 . S
C5067 C5066 1.370 . S
C5067 C5068 1.403 . S
C5068 C5067 1.403 . S
C5068 C5069 1.404 . S
C5068 C5071 1.539 . S
C5069 C5065 1.408 . S
C5069 C5068 1.404 . S
C5069 H5081 0.930 . S
C5070 C5066 1.524 . S
C5070 H5082 0.956 . S
C5070 H5083 0.961 . S
C5070 H5084 0.961 . S
C5071 C5068 1.539 . S
C5071 H5085 0.958 . S
C5071 H5086 0.961 . S
C5071 H5087 0.960 . S
H5072 C5056 0.931 . S
H5073 C5061 0.929 . S
H5074 C5062 0.960 . S
H5075 C5062 0.962 . S
H5076 C5062 0.960 . S
H5077 C5063 0.961 . S
H5078 C5063 0.961 . S
H5079 C5063 0.961 . S
H5080 C5064 0.931 . S
H5081 C5069 0.930 . S
H5082 C5070 0.956 . S
H5083 C5070 0.961 . S
H5084 C5070 0.961 . S
H5085 C5071 0.958 . S
H5086 C5071 0.961 . S
H5087 C5071 0.960 . S
C5088 C5089 1.391 . S
C5088 C5090 1.394 . S
C5088 H5104 0.931 . S
C5089 C5088 1.391 . S
C5089 C5093 1.376 . S
C5090 C5088 1.394 . S
C5090 C5091 1.369 . S
C5090 C5094 1.531 . S
C5091 C5090 1.369 . S
C5091 C5092 1.410 . S
C5091 C5099 1.503 . S
C5092 C5091 1.410 . S
C5092 C5093 1.392 . S
C5092 C5095 1.511 . S
C5093 C5089 1.376 . S
C5093 C5092 1.392 . S
C5093 H5105 0.929 . S
C5094 C5090 1.531 . S
C5094 H5106 0.960 . S
C5094 H5107 0.962 . S
C5094 H5108 0.960 . S
C5095 C5092 1.511 . S
C5095 H5109 0.961 . S
C5095 H5110 0.961 . S
C5095 H5111 0.961 . S
C5096 C5097 1.370 . S
C5096 C5098 1.363 . S
C5096 H5112 0.931 . S
C5097 C5096 1.370 . S
C5097 C5101 1.408 . S
C5098 C5096 1.363 . S
C5098 C5099 1.370 . S
C5098 C5102 1.524 . S
C5099 C5091 1.503 . S
C5099 C5098 1.370 . S
C5099 C5100 1.403 . S
C5100 C5099 1.403 . S
C5100 C5101 1.404 . S
C5100 C5103 1.539 . S
C5101 C5097 1.408 . S
C5101 C5100 1.404 . S
C5101 H5113 0.930 . S
C5102 C5098 1.524 . S
C5102 H5114 0.956 . S
C5102 H5115 0.961 . S
C5102 H5116 0.961 . S
C5103 C5100 1.539 . S
C5103 H5117 0.958 . S
C5103 H5118 0.961 . S
C5103 H5119 0.960 . S
H5104 C5088 0.931 . S
H5105 C5093 0.929 . S
H5106 C5094 0.960 . S
H5107 C5094 0.962 . S
H5108 C5094 0.960 . S
H5109 C5095 0.961 . S
H5110 C5095 0.961 . S
H5111 C5095 0.961 . S
H5112 C5096 0.931 . S
H5113 C5101 0.930 . S
H5114 C5102 0.956 . S
H5115 C5102 0.961 . S
H5116 C5102 0.961 . S
H5117 C5103 0.958 . S
H5118 C5103 0.961 . S
H5119 C5103 0.960 . S
C5120 C5121 1.391 . S
C5120 C5122 1.394 . S
C5120 H5136 0.931 . S
C5121 C5120 1.391 . S
C5121 C5125 1.376 . S
C5122 C5120 1.394 . S
C5122 C5123 1.369 . S
C5122 C5126 1.531 . S
C5123 C5122 1.369 . S
C5123 C5124 1.410 . S
C5123 C5131 1.503 . S
C5124 C5123 1.410 . S
C5124 C5125 1.392 . S
C5124 C5127 1.511 . S
C5125 C5121 1.376 . S
C5125 C5124 1.392 . S
C5125 H5137 0.929 . S
C5126 C5122 1.531 . S
C5126 H5138 0.960 . S
C5126 H5139 0.962 . S
C5126 H5140 0.960 . S
C5127 C5124 1.511 . S
C5127 H5141 0.961 . S
C5127 H5142 0.961 . S
C5127 H5143 0.961 . S
C5128 C5129 1.370 . S
C5128 C5130 1.363 . S
C5128 H5144 0.931 . S
C5129 C5128 1.370 . S
C5129 C5133 1.408 . S
C5130 C5128 1.363 . S
C5130 C5131 1.370 . S
C5130 C5134 1.524 . S
C5131 C5123 1.503 . S
C5131 C5130 1.370 . S
C5131 C5132 1.403 . S
C5132 C5131 1.403 . S
C5132 C5133 1.404 . S
C5132 C5135 1.539 . S
C5133 C5129 1.408 . S
C5133 C5132 1.404 . S
C5133 H5145 0.930 . S
C5134 C5130 1.524 . S
C5134 H5146 0.956 . S
C5134 H5147 0.961 . S
C5134 H5148 0.961 . S
C5135 C5132 1.539 . S
C5135 H5149 0.958 . S
C5135 H5150 0.961 . S
C5135 H5151 0.960 . S
H5136 C5120 0.931 . S
H5137 C5125 0.929 . S
H5138 C5126 0.960 . S
H5139 C5126 0.962 . S
H5140 C5126 0.960 . S
H5141 C5127 0.961 . S
H5142 C5127 0.961 . S
H5143 C5127 0.961 . S
H5144 C5128 0.931 . S
H5145 C5133 0.930 . S
H5146 C5134 0.956 . S
H5147 C5134 0.961 . S
H5148 C5134 0.961 . S
H5149 C5135 0.958 . S
H5150 C5135 0.961 . S
H5151 C5135 0.960 . S
C5152 C5153 1.391 . S
C5152 C5154 1.394 . S
C5152 H5168 0.931 . S
C5153 C5152 1.391 . S
C5153 C5157 1.376 . S
C5154 C5152 1.394 . S
C5154 C5155 1.369 . S
C5154 C5158 1.531 . S
C5155 C5154 1.369 . S
C5155 C5156 1.410 . S
C5155 C5163 1.503 . S
C5156 C5155 1.410 . S
C5156 C5157 1.392 . S
C5156 C5159 1.511 . S
C5157 C5153 1.376 . S
C5157 C5156 1.392 . S
C5157 H5169 0.929 . S
C5158 C5154 1.531 . S
C5158 H5170 0.960 . S
C5158 H5171 0.962 . S
C5158 H5172 0.960 . S
C5159 C5156 1.511 . S
C5159 H5173 0.961 . S
C5159 H5174 0.961 . S
C5159 H5175 0.961 . S
C5160 C5161 1.370 . S
C5160 C5162 1.363 . S
C5160 H5176 0.931 . S
C5161 C5160 1.370 . S
C5161 C5165 1.408 . S
C5162 C5160 1.363 . S
C5162 C5163 1.370 . S
C5162 C5166 1.524 . S
C5163 C5155 1.503 . S
C5163 C5162 1.370 . S
C5163 C5164 1.403 . S
C5164 C5163 1.403 . S
C5164 C5165 1.404 . S
C5164 C5167 1.539 . S
C5165 C5161 1.408 . S
C5165 C5164 1.404 . S
C5165 H5177 0.930 . S
C5166 C5162 1.524 . S
C5166 H5178 0.956 . S
C5166 H5179 0.961 . S
C5166 H5180 0.961 . S
C5167 C5164 1.539 . S
C5167 H5181 0.958 . S
C5167 H5182 0.961 . S
C5167 H5183 0.960 . S
H5168 C5152 0.931 . S
H5169 C5157 0.929 . S
H5170 C5158 0.960 . S
H5171 C5158 0.962 . S
H5172 C5158 0.960 . S
H5173 C5159 0.961 . S
H5174 C5159 0.961 . S
H5175 C5159 0.961 . S
H5176 C5160 0.931 . S
H5177 C5165 0.930 . S
H5178 C5166 0.956 . S
H5179 C5166 0.961 . S
H5180 C5166 0.961 . S
H5181 C5167 0.958 . S
H5182 C5167 0.961 . S
H5183 C5167 0.960 . S
C5184 C5185 1.391 . S
C5184 C5186 1.394 . S
C5184 H5200 0.931 . S
C5185 C5184 1.391 . S
C5185 C5189 1.376 . S
C5186 C5184 1.394 . S
C5186 C5187 1.369 . S
C5186 C5190 1.531 . S
C5187 C5186 1.369 . S
C5187 C5188 1.410 . S
C5187 C5195 1.503 . S
C5188 C5187 1.410 . S
C5188 C5189 1.392 . S
C5188 C5191 1.511 . S
C5189 C5185 1.376 . S
C5189 C5188 1.392 . S
C5189 H5201 0.929 . S
C5190 C5186 1.531 . S
C5190 H5202 0.960 . S
C5190 H5203 0.962 . S
C5190 H5204 0.960 . S
C5191 C5188 1.511 . S
C5191 H5205 0.961 . S
C5191 H5206 0.961 . S
C5191 H5207 0.961 . S
C5192 C5193 1.370 . S
C5192 C5194 1.363 . S
C5192 H5208 0.931 . S
C5193 C5192 1.370 . S
C5193 C5197 1.408 . S
C5194 C5192 1.363 . S
C5194 C5195 1.370 . S
C5194 C5198 1.524 . S
C5195 C5187 1.503 . S
C5195 C5194 1.370 . S
C5195 C5196 1.403 . S
C5196 C5195 1.403 . S
C5196 C5197 1.404 . S
C5196 C5199 1.539 . S
C5197 C5193 1.408 . S
C5197 C5196 1.404 . S
C5197 H5209 0.930 . S
C5198 C5194 1.524 . S
C5198 H5210 0.956 . S
C5198 H5211 0.961 . S
C5198 H5212 0.961 . S
C5199 C5196 1.539 . S
C5199 H5213 0.958 . S
C5199 H5214 0.961 . S
C5199 H5215 0.960 . S
H5200 C5184 0.931 . S
H5201 C5189 0.929 . S
H5202 C5190 0.960 . S
H5203 C5190 0.962 . S
H5204 C5190 0.960 . S
H5205 C5191 0.961 . S
H5206 C5191 0.961 . S
H5207 C5191 0.961 . S
H5208 C5192 0.931 . S
H5209 C5197 0.930 . S
H5210 C5198 0.956 . S
H5211 C5198 0.961 . S
H5212 C5198 0.961 . S
H5213 C5199 0.958 . S
H5214 C5199 0.961 . S
H5215 C5199 0.960 . S
C5216 C5217 1.391 . S
C5216 C5218 1.394 . S
C5216 H5232 0.931 . S
C5217 C5216 1.391 . S
C5217 C5221 1.376 . S
C5218 C5216 1.394 . S
C5218 C5219 1.369 . S
C5218 C5222 1.531 . S
C5219 C5218 1.369 . S
C5219 C5220 1.410 . S
C5219 C5227 1.503 . S
C5220 C5219 1.410 . S
C5220 C5221 1.392 . S
C5220 C5223 1.511 . S
C5221 C5217 1.376 . S
C5221 C5220 1.392 . S
C5221 H5233 0.929 . S
C5222 C5218 1.531 . S
C5222 H5234 0.960 . S
C5222 H5235 0.962 . S
C5222 H5236 0.960 . S
C5223 C5220 1.511 . S
C5223 H5237 0.961 . S
C5223 H5238 0.961 . S
C5223 H5239 0.961 . S
C5224 C5225 1.370 . S
C5224 C5226 1.363 . S
C5224 H5240 0.931 . S
C5225 C5224 1.370 . S
C5225 C5229 1.408 . S
C5226 C5224 1.363 . S
C5226 C5227 1.370 . S
C5226 C5230 1.524 . S
C5227 C5219 1.503 . S
C5227 C5226 1.370 . S
C5227 C5228 1.403 . S
C5228 C5227 1.403 . S
C5228 C5229 1.404 . S
C5228 C5231 1.539 . S
C5229 C5225 1.408 . S
C5229 C5228 1.404 . S
C5229 H5241 0.930 . S
C5230 C5226 1.524 . S
C5230 H5242 0.956 . S
C5230 H5243 0.961 . S
C5230 H5244 0.961 . S
C5231 C5228 1.539 . S
C5231 H5245 0.958 . S
C5231 H5246 0.961 . S
C5231 H5247 0.960 . S
H5232 C5216 0.931 . S
H5233 C5221 0.929 . S
H5234 C5222 0.960 . S
H5235 C5222 0.962 . S
H5236 C5222 0.960 . S
H5237 C5223 0.961 . S
H5238 C5223 0.961 . S
H5239 C5223 0.961 . S
H5240 C5224 0.931 . S
H5241 C5229 0.930 . S
H5242 C5230 0.956 . S
H5243 C5230 0.961 . S
H5244 C5230 0.961 . S
H5245 C5231 0.958 . S
H5246 C5231 0.961 . S
H5247 C5231 0.960 . S
C5248 C5249 1.391 . S
C5248 C5250 1.394 . S
C5248 H5264 0.931 . S
C5249 C5248 1.391 . S
C5249 C5253 1.376 . S
C5250 C5248 1.394 . S
C5250 C5251 1.369 . S
C5250 C5254 1.531 . S
C5251 C5250 1.369 . S
C5251 C5252 1.410 . S
C5251 C5259 1.503 . S
C5252 C5251 1.410 . S
C5252 C5253 1.392 . S
C5252 C5255 1.511 . S
C5253 C5249 1.376 . S
C5253 C5252 1.392 . S
C5253 H5265 0.929 . S
C5254 C5250 1.531 . S
C5254 H5266 0.960 . S
C5254 H5267 0.962 . S
C5254 H5268 0.960 . S
C5255 C5252 1.511 . S
C5255 H5269 0.961 . S
C5255 H5270 0.961 . S
C5255 H5271 0.961 . S
C5256 C5257 1.370 . S
C5256 C5258 1.363 . S
C5256 H5272 0.931 . S
C5257 C5256 1.370 . S
C5257 C5261 1.408 . S
C5258 C5256 1.363 . S
C5258 C5259 1.370 . S
C5258 C5262 1.524 . S
C5259 C5251 1.503 . S
C5259 C5258 1.370 . S
C5259 C5260 1.403 . S
C5260 C5259 1.403 . S
C5260 C5261 1.404 . S
C5260 C5263 1.539 . S
C5261 C5257 1.408 . S
C5261 C5260 1.404 . S
C5261 H5273 0.930 . S
C5262 C5258 1.524 . S
C5262 H5274 0.956 . S
C5262 H5275 0.961 . S
C5262 H5276 0.961 . S
C5263 C5260 1.539 . S
C5263 H5277 0.958 . S
C5263 H5278 0.961 . S
C5263 H5279 0.960 . S
H5264 C5248 0.931 . S
H5265 C5253 0.929 . S
H5266 C5254 0.960 . S
H5267 C5254 0.962 . S
H5268 C5254 0.960 . S
H5269 C5255 0.961 . S
H5270 C5255 0.961 . S
H5271 C5255 0.961 . S
H5272 C5256 0.931 . S
H5273 C5261 0.930 . S
H5274 C5262 0.956 . S
H5275 C5262 0.961 . S
H5276 C5262 0.961 . S
H5277 C5263 0.958 . S
H5278 C5263 0.961 . S
H5279 C5263 0.960 . S
C5280 C5281 1.391 . S
C5280 C5282 1.394 . S
C5280 H5296 0.931 . S
C5281 C5280 1.391 . S
C5281 C5285 1.376 . S
C5282 C5280 1.394 . S
C5282 C5283 1.369 . S
C5282 C5286 1.531 . S
C5283 C5282 1.369 . S
C5283 C5284 1.410 . S
C5283 C5291 1.503 . S
C5284 C5283 1.410 . S
C5284 C5285 1.392 . S
C5284 C5287 1.511 . S
C5285 C5281 1.376 . S
C5285 C5284 1.392 . S
C5285 H5297 0.929 . S
C5286 C5282 1.531 . S
C5286 H5298 0.960 . S
C5286 H5299 0.962 . S
C5286 H5300 0.960 . S
C5287 C5284 1.511 . S
C5287 H5301 0.961 . S
C5287 H5302 0.961 . S
C5287 H5303 0.961 . S
C5288 C5289 1.370 . S
C5288 C5290 1.363 . S
C5288 H5304 0.931 . S
C5289 C5288 1.370 . S
C5289 C5293 1.408 . S
C5290 C5288 1.363 . S
C5290 C5291 1.370 . S
C5290 C5294 1.524 . S
C5291 C5283 1.503 . S
C5291 C5290 1.370 . S
C5291 C5292 1.403 . S
C5292 C5291 1.403 . S
C5292 C5293 1.404 . S
C5292 C5295 1.539 . S
C5293 C5289 1.408 . S
C5293 C5292 1.404 . S
C5293 H5305 0.930 . S
C5294 C5290 1.524 . S
C5294 H5306 0.956 . S
C5294 H5307 0.961 . S
C5294 H5308 0.961 . S
C5295 C5292 1.539 . S
C5295 H5309 0.958 . S
C5295 H5310 0.961 . S
C5295 H5311 0.960 . S
H5296 C5280 0.931 . S
H5297 C5285 0.929 . S
H5298 C5286 0.960 . S
H5299 C5286 0.962 . S
H5300 C5286 0.960 . S
H5301 C5287 0.961 . S
H5302 C5287 0.961 . S
H5303 C5287 0.961 . S
H5304 C5288 0.931 . S
H5305 C5293 0.930 . S
H5306 C5294 0.956 . S
H5307 C5294 0.961 . S
H5308 C5294 0.961 . S
H5309 C5295 0.958 . S
H5310 C5295 0.961 . S
H5311 C5295 0.960 . S
C5312 C5313 1.391 . S
C5312 C5314 1.394 . S
C5312 H5328 0.931 . S
C5313 C5312 1.391 . S
C5313 C5317 1.376 . S
C5314 C5312 1.394 . S
C5314 C5315 1.369 . S
C5314 C5318 1.531 . S
C5315 C5314 1.369 . S
C5315 C5316 1.410 . S
C5315 C5323 1.503 . S
C5316 C5315 1.410 . S
C5316 C5317 1.392 . S
C5316 C5319 1.511 . S
C5317 C5313 1.376 . S
C5317 C5316 1.392 . S
C5317 H5329 0.929 . S
C5318 C5314 1.531 . S
C5318 H5330 0.960 . S
C5318 H5331 0.962 . S
C5318 H5332 0.960 . S
C5319 C5316 1.511 . S
C5319 H5333 0.961 . S
C5319 H5334 0.961 . S
C5319 H5335 0.961 . S
C5320 C5321 1.370 . S
C5320 C5322 1.363 . S
C5320 H5336 0.931 . S
C5321 C5320 1.370 . S
C5321 C5325 1.408 . S
C5322 C5320 1.363 . S
C5322 C5323 1.370 . S
C5322 C5326 1.524 . S
C5323 C5315 1.503 . S
C5323 C5322 1.370 . S
C5323 C5324 1.403 . S
C5324 C5323 1.403 . S
C5324 C5325 1.404 . S
C5324 C5327 1.539 . S
C5325 C5321 1.408 . S
C5325 C5324 1.404 . S
C5325 H5337 0.930 . S
C5326 C5322 1.524 . S
C5326 H5338 0.956 . S
C5326 H5339 0.961 . S
C5326 H5340 0.961 . S
C5327 C5324 1.539 . S
C5327 H5341 0.958 . S
C5327 H5342 0.961 . S
C5327 H5343 0.960 . S
H5328 C5312 0.931 . S
H5329 C5317 0.929 . S
H5330 C5318 0.960 . S
H5331 C5318 0.962 . S
H5332 C5318 0.960 . S
H5333 C5319 0.961 . S
H5334 C5319 0.961 . S
H5335 C5319 0.961 . S
H5336 C5320 0.931 . S
H5337 C5325 0.930 . S
H5338 C5326 0.956 . S
H5339 C5326 0.961 . S
H5340 C5326 0.961 . S
H5341 C5327 0.958 . S
H5342 C5327 0.961 . S
H5343 C5327 0.960 . S
C5344 C5345 1.391 . S
C5344 C5346 1.394 . S
C5344 H5360 0.931 . S
C5345 C5344 1.391 . S
C5345 C5349 1.376 . S
C5346 C5344 1.394 . S
C5346 C5347 1.369 . S
C5346 C5350 1.531 . S
C5347 C5346 1.369 . S
C5347 C5348 1.410 . S
C5347 C5355 1.503 . S
C5348 C5347 1.410 . S
C5348 C5349 1.392 . S
C5348 C5351 1.511 . S
C5349 C5345 1.376 . S
C5349 C5348 1.392 . S
C5349 H5361 0.929 . S
C5350 C5346 1.531 . S
C5350 H5362 0.960 . S
C5350 H5363 0.962 . S
C5350 H5364 0.960 . S
C5351 C5348 1.511 . S
C5351 H5365 0.961 . S
C5351 H5366 0.961 . S
C5351 H5367 0.961 . S
C5352 C5353 1.370 . S
C5352 C5354 1.363 . S
C5352 H5368 0.931 . S
C5353 C5352 1.370 . S
C5353 C5357 1.408 . S
C5354 C5352 1.363 . S
C5354 C5355 1.370 . S
C5354 C5358 1.524 . S
C5355 C5347 1.503 . S
C5355 C5354 1.370 . S
C5355 C5356 1.403 . S
C5356 C5355 1.403 . S
C5356 C5357 1.404 . S
C5356 C5359 1.539 . S
C5357 C5353 1.408 . S
C5357 C5356 1.404 . S
C5357 H5369 0.930 . S
C5358 C5354 1.524 . S
C5358 H5370 0.956 . S
C5358 H5371 0.961 . S
C5358 H5372 0.961 . S
C5359 C5356 1.539 . S
C5359 H5373 0.958 . S
C5359 H5374 0.961 . S
C5359 H5375 0.960 . S
H5360 C5344 0.931 . S
H5361 C5349 0.929 . S
H5362 C5350 0.960 . S
H5363 C5350 0.962 . S
H5364 C5350 0.960 . S
H5365 C5351 0.961 . S
H5366 C5351 0.961 . S
H5367 C5351 0.961 . S
H5368 C5352 0.931 . S
H5369 C5357 0.930 . S
H5370 C5358 0.956 . S
H5371 C5358 0.961 . S
H5372 C5358 0.961 . S
H5373 C5359 0.958 . S
H5374 C5359 0.961 . S
H5375 C5359 0.960 . S
C5376 C5377 1.391 . S
C5376 C5378 1.394 . S
C5376 H5392 0.931 . S
C5377 C5376 1.391 . S
C5377 C5381 1.376 . S
C5378 C5376 1.394 . S
C5378 C5379 1.369 . S
C5378 C5382 1.531 . S
C5379 C5378 1.369 . S
C5379 C5380 1.410 . S
C5379 C5387 1.503 . S
C5380 C5379 1.410 . S
C5380 C5381 1.392 . S
C5380 C5383 1.511 . S
C5381 C5377 1.376 . S
C5381 C5380 1.392 . S
C5381 H5393 0.929 . S
C5382 C5378 1.531 . S
C5382 H5394 0.960 . S
C5382 H5395 0.962 . S
C5382 H5396 0.960 . S
C5383 C5380 1.511 . S
C5383 H5397 0.961 . S
C5383 H5398 0.961 . S
C5383 H5399 0.961 . S
C5384 C5385 1.370 . S
C5384 C5386 1.363 . S
C5384 H5400 0.931 . S
C5385 C5384 1.370 . S
C5385 C5389 1.408 . S
C5386 C5384 1.363 . S
C5386 C5387 1.370 . S
C5386 C5390 1.524 . S
C5387 C5379 1.503 . S
C5387 C5386 1.370 . S
C5387 C5388 1.403 . S
C5388 C5387 1.403 . S
C5388 C5389 1.404 . S
C5388 C5391 1.539 . S
C5389 C5385 1.408 . S
C5389 C5388 1.404 . S
C5389 H5401 0.930 . S
C5390 C5386 1.524 . S
C5390 H5402 0.956 . S
C5390 H5403 0.961 . S
C5390 H5404 0.961 . S
C5391 C5388 1.539 . S
C5391 H5405 0.958 . S
C5391 H5406 0.961 . S
C5391 H5407 0.960 . S
H5392 C5376 0.931 . S
H5393 C5381 0.929 . S
H5394 C5382 0.960 . S
H5395 C5382 0.962 . S
H5396 C5382 0.960 . S
H5397 C5383 0.961 . S
H5398 C5383 0.961 . S
H5399 C5383 0.961 . S
H5400 C5384 0.931 . S
H5401 C5389 0.930 . S
H5402 C5390 0.956 . S
H5403 C5390 0.961 . S
H5404 C5390 0.961 . S
H5405 C5391 0.958 . S
H5406 C5391 0.961 . S
H5407 C5391 0.960 . S
C5408 C5409 1.391 . S
C5408 C5410 1.394 . S
C5408 H5424 0.931 . S
C5409 C5408 1.391 . S
C5409 C5413 1.376 . S
C5410 C5408 1.394 . S
C5410 C5411 1.369 . S
C5410 C5414 1.531 . S
C5411 C5410 1.369 . S
C5411 C5412 1.410 . S
C5411 C5419 1.503 . S
C5412 C5411 1.410 . S
C5412 C5413 1.392 . S
C5412 C5415 1.511 . S
C5413 C5409 1.376 . S
C5413 C5412 1.392 . S
C5413 H5425 0.929 . S
C5414 C5410 1.531 . S
C5414 H5426 0.960 . S
C5414 H5427 0.962 . S
C5414 H5428 0.960 . S
C5415 C5412 1.511 . S
C5415 H5429 0.961 . S
C5415 H5430 0.961 . S
C5415 H5431 0.961 . S
C5416 C5417 1.370 . S
C5416 C5418 1.363 . S
C5416 H5432 0.931 . S
C5417 C5416 1.370 . S
C5417 C5421 1.408 . S
C5418 C5416 1.363 . S
C5418 C5419 1.370 . S
C5418 C5422 1.524 . S
C5419 C5411 1.503 . S
C5419 C5418 1.370 . S
C5419 C5420 1.403 . S
C5420 C5419 1.403 . S
C5420 C5421 1.404 . S
C5420 C5423 1.539 . S
C5421 C5417 1.408 . S
C5421 C5420 1.404 . S
C5421 H5433 0.930 . S
C5422 C5418 1.524 . S
C5422 H5434 0.956 . S
C5422 H5435 0.961 . S
C5422 H5436 0.961 . S
C5423 C5420 1.539 . S
C5423 H5437 0.958 . S
C5423 H5438 0.961 . S
C5423 H5439 0.960 . S
H5424 C5408 0.931 . S
H5425 C5413 0.929 . S
H5426 C5414 0.960 . S
H5427 C5414 0.962 . S
H5428 C5414 0.960 . S
H5429 C5415 0.961 . S
H5430 C5415 0.961 . S
H5431 C5415 0.961 . S
H5432 C5416 0.931 . S
H5433 C5421 0.930 . S
H5434 C5422 0.956 . S
H5435 C5422 0.961 . S
H5436 C5422 0.961 . S
H5437 C5423 0.958 . S
H5438 C5423 0.961 . S
H5439 C5423 0.960 . S
C5440 C5441 1.391 . S
C5440 C5442 1.394 . S
C5440 H5456 0.931 . S
C5441 C5440 1.391 . S
C5441 C5445 1.376 . S
C5442 C5440 1.394 . S
C5442 C5443 1.369 . S
C5442 C5446 1.531 . S
C5443 C5442 1.369 . S
C5443 C5444 1.410 . S
C5443 C5451 1.503 . S
C5444 C5443 1.410 . S
C5444 C5445 1.392 . S
C5444 C5447 1.511 . S
C5445 C5441 1.376 . S
C5445 C5444 1.392 . S
C5445 H5457 0.929 . S
C5446 C5442 1.531 . S
C5446 H5458 0.960 . S
C5446 H5459 0.962 . S
C5446 H5460 0.960 . S
C5447 C5444 1.511 . S
C5447 H5461 0.961 . S
C5447 H5462 0.961 . S
C5447 H5463 0.961 . S
C5448 C5449 1.370 . S
C5448 C5450 1.363 . S
C5448 H5464 0.931 . S
C5449 C5448 1.370 . S
C5449 C5453 1.408 . S
C5450 C5448 1.363 . S
C5450 C5451 1.370 . S
C5450 C5454 1.524 . S
C5451 C5443 1.503 . S
C5451 C5450 1.370 . S
C5451 C5452 1.403 . S
C5452 C5451 1.403 . S
C5452 C5453 1.404 . S
C5452 C5455 1.539 . S
C5453 C5449 1.408 . S
C5453 C5452 1.404 . S
C5453 H5465 0.930 . S
C5454 C5450 1.524 . S
C5454 H5466 0.956 . S
C5454 H5467 0.961 . S
C5454 H5468 0.961 . S
C5455 C5452 1.539 . S
C5455 H5469 0.958 . S
C5455 H5470 0.961 . S
C5455 H5471 0.960 . S
H5456 C5440 0.931 . S
H5457 C5445 0.929 . S
H5458 C5446 0.960 . S
H5459 C5446 0.962 . S
H5460 C5446 0.960 . S
H5461 C5447 0.961 . S
H5462 C5447 0.961 . S
H5463 C5447 0.961 . S
H5464 C5448 0.931 . S
H5465 C5453 0.930 . S
H5466 C5454 0.956 . S
H5467 C5454 0.961 . S
H5468 C5454 0.961 . S
H5469 C5455 0.958 . S
H5470 C5455 0.961 . S
H5471 C5455 0.960 . S
C5472 C5473 1.391 . S
C5472 C5474 1.394 . S
C5472 H5488 0.931 . S
C5473 C5472 1.391 . S
C5473 C5477 1.376 . S
C5474 C5472 1.394 . S
C5474 C5475 1.369 . S
C5474 C5478 1.531 . S
C5475 C5474 1.369 . S
C5475 C5476 1.410 . S
C5475 C5483 1.503 . S
C5476 C5475 1.410 . S
C5476 C5477 1.392 . S
C5476 C5479 1.511 . S
C5477 C5473 1.376 . S
C5477 C5476 1.392 . S
C5477 H5489 0.929 . S
C5478 C5474 1.531 . S
C5478 H5490 0.960 . S
C5478 H5491 0.962 . S
C5478 H5492 0.960 . S
C5479 C5476 1.511 . S
C5479 H5493 0.961 . S
C5479 H5494 0.961 . S
C5479 H5495 0.961 . S
C5480 C5481 1.370 . S
C5480 C5482 1.363 . S
C5480 H5496 0.931 . S
C5481 C5480 1.370 . S
C5481 C5485 1.408 . S
C5482 C5480 1.363 . S
C5482 C5483 1.370 . S
C5482 C5486 1.524 . S
C5483 C5475 1.503 . S
C5483 C5482 1.370 . S
C5483 C5484 1.403 . S
C5484 C5483 1.403 . S
C5484 C5485 1.404 . S
C5484 C5487 1.539 . S
C5485 C5481 1.408 . S
C5485 C5484 1.404 . S
C5485 H5497 0.930 . S
C5486 C5482 1.524 . S
C5486 H5498 0.956 . S
C5486 H5499 0.961 . S
C5486 H5500 0.961 . S
C5487 C5484 1.539 . S
C5487 H5501 0.958 . S
C5487 H5502 0.961 . S
C5487 H5503 0.960 . S
H5488 C5472 0.931 . S
H5489 C5477 0.929 . S
H5490 C5478 0.960 . S
H5491 C5478 0.962 . S
H5492 C5478 0.960 . S
H5493 C5479 0.961 . S
H5494 C5479 0.961 . S
H5495 C5479 0.961 . S
H5496 C5480 0.931 . S
H5497 C5485 0.930 . S
H5498 C5486 0.956 . S
H5499 C5486 0.961 . S
H5500 C5486 0.961 . S
H5501 C5487 0.958 . S
H5502 C5487 0.961 . S
H5503 C5487 0.960 . S
C5504 C5505 1.391 . S
C5504 C5506 1.394 . S
C5504 H5520 0.931 . S
C5505 C5504 1.391 . S
C5505 C5509 1.376 . S
C5506 C5504 1.394 . S
C5506 C5507 1.369 . S
C5506 C5510 1.531 . S
C5507 C5506 1.369 . S
C5507 C5508 1.410 . S
C5507 C5515 1.503 . S
C5508 C5507 1.410 . S
C5508 C5509 1.392 . S
C5508 C5511 1.511 . S
C5509 C5505 1.376 . S
C5509 C5508 1.392 . S
C5509 H5521 0.929 . S
C5510 C5506 1.531 . S
C5510 H5522 0.960 . S
C5510 H5523 0.962 . S
C5510 H5524 0.960 . S
C5511 C5508 1.511 . S
C5511 H5525 0.961 . S
C5511 H5526 0.961 . S
C5511 H5527 0.961 . S
C5512 C5513 1.370 . S
C5512 C5514 1.363 . S
C5512 H5528 0.931 . S
C5513 C5512 1.370 . S
C5513 C5517 1.408 . S
C5514 C5512 1.363 . S
C5514 C5515 1.370 . S
C5514 C5518 1.524 . S
C5515 C5507 1.503 . S
C5515 C5514 1.370 . S
C5515 C5516 1.403 . S
C5516 C5515 1.403 . S
C5516 C5517 1.404 . S
C5516 C5519 1.539 . S
C5517 C5513 1.408 . S
C5517 C5516 1.404 . S
C5517 H5529 0.930 . S
C5518 C5514 1.524 . S
C5518 H5530 0.956 . S
C5518 H5531 0.961 . S
C5518 H5532 0.961 . S
C5519 C5516 1.539 . S
C5519 H5533 0.958 . S
C5519 H5534 0.961 . S
C5519 H5535 0.960 . S
H5520 C5504 0.931 . S
H5521 C5509 0.929 . S
H5522 C5510 0.960 . S
H5523 C5510 0.962 . S
H5524 C5510 0.960 . S
H5525 C5511 0.961 . S
H5526 C5511 0.961 . S
H5527 C5511 0.961 . S
H5528 C5512 0.931 . S
H5529 C5517 0.930 . S
H5530 C5518 0.956 . S
H5531 C5518 0.961 . S
H5532 C5518 0.961 . S
H5533 C5519 0.958 . S
H5534 C5519 0.961 . S
H5535 C5519 0.960 . S
C5536 C5537 1.391 . S
C5536 C5538 1.394 . S
C5536 H5552 0.931 . S
C5537 C5536 1.391 . S
C5537 C5541 1.376 . S
C5538 C5536 1.394 . S
C5538 C5539 1.369 . S
C5538 C5542 1.531 . S
C5539 C5538 1.369 . S
C5539 C5540 1.410 . S
C5539 C5547 1.503 . S
C5540 C5539 1.410 . S
C5540 C5541 1.392 . S
C5540 C5543 1.511 . S
C5541 C5537 1.376 . S
C5541 C5540 1.392 . S
C5541 H5553 0.929 . S
C5542 C5538 1.531 . S
C5542 H5554 0.960 . S
C5542 H5555 0.962 . S
C5542 H5556 0.960 . S
C5543 C5540 1.511 . S
C5543 H5557 0.961 . S
C5543 H5558 0.961 . S
C5543 H5559 0.961 . S
C5544 C5545 1.370 . S
C5544 C5546 1.363 . S
C5544 H5560 0.931 . S
C5545 C5544 1.370 . S
C5545 C5549 1.408 . S
C5546 C5544 1.363 . S
C5546 C5547 1.370 . S
C5546 C5550 1.524 . S
C5547 C5539 1.503 . S
C5547 C5546 1.370 . S
C5547 C5548 1.403 . S
C5548 C5547 1.403 . S
C5548 C5549 1.404 . S
C5548 C5551 1.539 . S
C5549 C5545 1.408 . S
C5549 C5548 1.404 . S
C5549 H5561 0.930 . S
C5550 C5546 1.524 . S
C5550 H5562 0.956 . S
C5550 H5563 0.961 . S
C5550 H5564 0.961 . S
C5551 C5548 1.539 . S
C5551 H5565 0.958 . S
C5551 H5566 0.961 . S
C5551 H5567 0.960 . S
H5552 C5536 0.931 . S
H5553 C5541 0.929 . S
H5554 C5542 0.960 . S
H5555 C5542 0.962 . S
H5556 C5542 0.960 . S
H5557 C5543 0.961 . S
H5558 C5543 0.961 . S
H5559 C5543 0.961 . S
H5560 C5544 0.931 . S
H5561 C5549 0.930 . S
H5562 C5550 0.956 . S
H5563 C5550 0.961 . S
H5564 C5550 0.961 . S
H5565 C5551 0.958 . S
H5566 C5551 0.961 . S
H5567 C5551 0.960 . S
C5568 C5569 1.391 . S
C5568 C5570 1.394 . S
C5568 H5584 0.931 . S
C5569 C5568 1.391 . S
C5569 C5573 1.376 . S
C5570 C5568 1.394 . S
C5570 C5571 1.369 . S
C5570 C5574 1.531 . S
C5571 C5570 1.369 . S
C5571 C5572 1.410 . S
C5571 C5579 1.503 . S
C5572 C5571 1.410 . S
C5572 C5573 1.392 . S
C5572 C5575 1.511 . S
C5573 C5569 1.376 . S
C5573 C5572 1.392 . S
C5573 H5585 0.929 . S
C5574 C5570 1.531 . S
C5574 H5586 0.960 . S
C5574 H5587 0.962 . S
C5574 H5588 0.960 . S
C5575 C5572 1.511 . S
C5575 H5589 0.961 . S
C5575 H5590 0.961 . S
C5575 H5591 0.961 . S
C5576 C5577 1.370 . S
C5576 C5578 1.363 . S
C5576 H5592 0.931 . S
C5577 C5576 1.370 . S
C5577 C5581 1.408 . S
C5578 C5576 1.363 . S
C5578 C5579 1.370 . S
C5578 C5582 1.524 . S
C5579 C5571 1.503 . S
C5579 C5578 1.370 . S
C5579 C5580 1.403 . S
C5580 C5579 1.403 . S
C5580 C5581 1.404 . S
C5580 C5583 1.539 . S
C5581 C5577 1.408 . S
C5581 C5580 1.404 . S
C5581 H5593 0.930 . S
C5582 C5578 1.524 . S
C5582 H5594 0.956 . S
C5582 H5595 0.961 . S
C5582 H5596 0.961 . S
C5583 C5580 1.539 . S
C5583 H5597 0.958 . S
C5583 H5598 0.961 . S
C5583 H5599 0.960 . S
H5584 C5568 0.931 . S
H5585 C5573 0.929 . S
H5586 C5574 0.960 . S
H5587 C5574 0.962 . S
H5588 C5574 0.960 . S
H5589 C5575 0.961 . S
H5590 C5575 0.961 . S
H5591 C5575 0.961 . S
H5592 C5576 0.931 . S
H5593 C5581 0.930 . S
H5594 C5582 0.956 . S
H5595 C5582 0.961 . S
H5596 C5582 0.961 . S
H5597 C5583 0.958 . S
H5598 C5583 0.961 . S
H5599 C5583 0.960 . S
C5600 C5601 1.391 . S
C5600 C5602 1.394 . S
C5600 H5616 0.931 . S
C5601 C5600 1.391 . S
C5601 C5605 1.376 . S
C5602 C5600 1.394 . S
C5602 C5603 1.369 . S
C5602 C5606 1.531 . S
C5603 C5602 1.369 . S
C5603 C5604 1.410 . S
C5603 C5611 1.503 . S
C5604 C5603 1.410 . S
C5604 C5605 1.392 . S
C5604 C5607 1.511 . S
C5605 C5601 1.376 . S
C5605 C5604 1.392 . S
C5605 H5617 0.929 . S
C5606 C5602 1.531 . S
C5606 H5618 0.960 . S
C5606 H5619 0.962 . S
C5606 H5620 0.960 . S
C5607 C5604 1.511 . S
C5607 H5621 0.961 . S
C5607 H5622 0.961 . S
C5607 H5623 0.961 . S
C5608 C5609 1.370 . S
C5608 C5610 1.363 . S
C5608 H5624 0.931 . S
C5609 C5608 1.370 . S
C5609 C5613 1.408 . S
C5610 C5608 1.363 . S
C5610 C5611 1.370 . S
C5610 C5614 1.524 . S
C5611 C5603 1.503 . S
C5611 C5610 1.370 . S
C5611 C5612 1.403 . S
C5612 C5611 1.403 . S
C5612 C5613 1.404 . S
C5612 C5615 1.539 . S
C5613 C5609 1.408 . S
C5613 C5612 1.404 . S
C5613 H5625 0.930 . S
C5614 C5610 1.524 . S
C5614 H5626 0.956 . S
C5614 H5627 0.961 . S
C5614 H5628 0.961 . S
C5615 C5612 1.539 . S
C5615 H5629 0.958 . S
C5615 H5630 0.961 . S
C5615 H5631 0.960 . S
H5616 C5600 0.931 . S
H5617 C5605 0.929 . S
H5618 C5606 0.960 . S
H5619 C5606 0.962 . S
H5620 C5606 0.960 . S
H5621 C5607 0.961 . S
H5622 C5607 0.961 . S
H5623 C5607 0.961 . S
H5624 C5608 0.931 . S
H5625 C5613 0.930 . S
H5626 C5614 0.956 . S
H5627 C5614 0.961 . S
H5628 C5614 0.961 . S
H5629 C5615 0.958 . S
H5630 C5615 0.961 . S
H5631 C5615 0.960 . S
C5632 C5633 1.391 . S
C5632 C5634 1.394 . S
C5632 H5648 0.931 . S
C5633 C5632 1.391 . S
C5633 C5637 1.376 . S
C5634 C5632 1.394 . S
C5634 C5635 1.369 . S
C5634 C5638 1.531 . S
C5635 C5634 1.369 . S
C5635 C5636 1.410 . S
C5635 C5643 1.503 . S
C5636 C5635 1.410 . S
C5636 C5637 1.392 . S
C5636 C5639 1.511 . S
C5637 C5633 1.376 . S
C5637 C5636 1.392 . S
C5637 H5649 0.929 . S
C5638 C5634 1.531 . S
C5638 H5650 0.960 . S
C5638 H5651 0.962 . S
C5638 H5652 0.960 . S
C5639 C5636 1.511 . S
C5639 H5653 0.961 . S
C5639 H5654 0.961 . S
C5639 H5655 0.961 . S
C5640 C5641 1.370 . S
C5640 C5642 1.363 . S
C5640 H5656 0.931 . S
C5641 C5640 1.370 . S
C5641 C5645 1.408 . S
C5642 C5640 1.363 . S
C5642 C5643 1.370 . S
C5642 C5646 1.524 . S
C5643 C5635 1.503 . S
C5643 C5642 1.370 . S
C5643 C5644 1.403 . S
C5644 C5643 1.403 . S
C5644 C5645 1.404 . S
C5644 C5647 1.539 . S
C5645 C5641 1.408 . S
C5645 C5644 1.404 . S
C5645 H5657 0.930 . S
C5646 C5642 1.524 . S
C5646 H5658 0.956 . S
C5646 H5659 0.961 . S
C5646 H5660 0.961 . S
C5647 C5644 1.539 . S
C5647 H5661 0.958 . S
C5647 H5662 0.961 . S
C5647 H5663 0.960 . S
H5648 C5632 0.931 . S
H5649 C5637 0.929 . S
H5650 C5638 0.960 . S
H5651 C5638 0.962 . S
H5652 C5638 0.960 . S
H5653 C5639 0.961 . S
H5654 C5639 0.961 . S
H5655 C5639 0.961 . S
H5656 C5640 0.931 . S
H5657 C5645 0.930 . S
H5658 C5646 0.956 . S
H5659 C5646 0.961 . S
H5660 C5646 0.961 . S
H5661 C5647 0.958 . S
H5662 C5647 0.961 . S
H5663 C5647 0.960 . S
C5664 C5665 1.391 . S
C5664 C5666 1.394 . S
C5664 H5680 0.931 . S
C5665 C5664 1.391 . S
C5665 C5669 1.376 . S
C5666 C5664 1.394 . S
C5666 C5667 1.369 . S
C5666 C5670 1.531 . S
C5667 C5666 1.369 . S
C5667 C5668 1.410 . S
C5667 C5675 1.503 . S
C5668 C5667 1.410 . S
C5668 C5669 1.392 . S
C5668 C5671 1.511 . S
C5669 C5665 1.376 . S
C5669 C5668 1.392 . S
C5669 H5681 0.929 . S
C5670 C5666 1.531 . S
C5670 H5682 0.960 . S
C5670 H5683 0.962 . S
C5670 H5684 0.960 . S
C5671 C5668 1.511 . S
C5671 H5685 0.961 . S
C5671 H5686 0.961 . S
C5671 H5687 0.961 . S
C5672 C5673 1.370 . S
C5672 C5674 1.363 . S
C5672 H5688 0.931 . S
C5673 C5672 1.370 . S
C5673 C5677 1.408 . S
C5674 C5672 1.363 . S
C5674 C5675 1.370 . S
C5674 C5678 1.524 . S
C5675 C5667 1.503 . S
C5675 C5674 1.370 . S
C5675 C5676 1.403 . S
C5676 C5675 1.403 . S
C5676 C5677 1.404 . S
C5676 C5679 1.539 . S
C5677 C5673 1.408 . S
C5677 C5676 1.404 . S
C5677 H5689 0.930 . S
C5678 C5674 1.524 . S
C5678 H5690 0.956 . S
C5678 H5691 0.961 . S
C5678 H5692 0.961 . S
C5679 C5676 1.539 . S
C5679 H5693 0.958 . S
C5679 H5694 0.961 . S
C5679 H5695 0.960 . S
H5680 C5664 0.931 . S
H5681 C5669 0.929 . S
H5682 C5670 0.960 . S
H5683 C5670 0.962 . S
H5684 C5670 0.960 . S
H5685 C5671 0.961 . S
H5686 C5671 0.961 . S
H5687 C5671 0.961 . S
H5688 C5672 0.931 . S
H5689 C5677 0.930 . S
H5690 C5678 0.956 . S
H5691 C5678 0.961 . S
H5692 C5678 0.961 . S
H5693 C5679 0.958 . S
H5694 C5679 0.961 . S
H5695 C5679 0.960 . S
C5696 C5697 1.391 . S
C5696 C5698 1.394 . S
C5696 H5712 0.931 . S
C5697 C5696 1.391 . S
C5697 C5701 1.376 . S
C5698 C5696 1.394 . S
C5698 C5699 1.369 . S
C5698 C5702 1.531 . S
C5699 C5698 1.369 . S
C5699 C5700 1.410 . S
C5699 C5707 1.503 . S
C5700 C5699 1.410 . S
C5700 C5701 1.392 . S
C5700 C5703 1.511 . S
C5701 C5697 1.376 . S
C5701 C5700 1.392 . S
C5701 H5713 0.929 . S
C5702 C5698 1.531 . S
C5702 H5714 0.960 . S
C5702 H5715 0.962 . S
C5702 H5716 0.960 . S
C5703 C5700 1.511 . S
C5703 H5717 0.961 . S
C5703 H5718 0.961 . S
C5703 H5719 0.961 . S
C5704 C5705 1.370 . S
C5704 C5706 1.363 . S
C5704 H5720 0.931 . S
C5705 C5704 1.370 . S
C5705 C5709 1.408 . S
C5706 C5704 1.363 . S
C5706 C5707 1.370 . S
C5706 C5710 1.524 . S
C5707 C5699 1.503 . S
C5707 C5706 1.370 . S
C5707 C5708 1.403 . S
C5708 C5707 1.403 . S
C5708 C5709 1.404 . S
C5708 C5711 1.539 . S
C5709 C5705 1.408 . S
C5709 C5708 1.404 . S
C5709 H5721 0.930 . S
C5710 C5706 1.524 . S
C5710 H5722 0.956 . S
C5710 H5723 0.961 . S
C5710 H5724 0.961 . S
C5711 C5708 1.539 . S
C5711 H5725 0.958 . S
C5711 H5726 0.961 . S
C5711 H5727 0.960 . S
H5712 C5696 0.931 . S
H5713 C5701 0.929 . S
H5714 C5702 0.960 . S
H5715 C5702 0.962 . S
H5716 C5702 0.960 . S
H5717 C5703 0.961 . S
H5718 C5703 0.961 . S
H5719 C5703 0.961 . S
H5720 C5704 0.931 . S
H5721 C5709 0.930 . S
H5722 C5710 0.956 . S
H5723 C5710 0.961 . S
H5724 C5710 0.961 . S
H5725 C5711 0.958 . S
H5726 C5711 0.961 . S
H5727 C5711 0.960 . S
C5728 C5729 1.391 . S
C5728 C5730 1.394 . S
C5728 H5744 0.931 . S
C5729 C5728 1.391 . S
C5729 C5733 1.376 . S
C5730 C5728 1.394 . S
C5730 C5731 1.369 . S
C5730 C5734 1.531 . S
C5731 C5730 1.369 . S
C5731 C5732 1.410 . S
C5731 C5739 1.503 . S
C5732 C5731 1.410 . S
C5732 C5733 1.392 . S
C5732 C5735 1.511 . S
C5733 C5729 1.376 . S
C5733 C5732 1.392 . S
C5733 H5745 0.929 . S
C5734 C5730 1.531 . S
C5734 H5746 0.960 . S
C5734 H5747 0.962 . S
C5734 H5748 0.960 . S
C5735 C5732 1.511 . S
C5735 H5749 0.961 . S
C5735 H5750 0.961 . S
C5735 H5751 0.961 . S
C5736 C5737 1.370 . S
C5736 C5738 1.363 . S
C5736 H5752 0.931 . S
C5737 C5736 1.370 . S
C5737 C5741 1.408 . S
C5738 C5736 1.363 . S
C5738 C5739 1.370 . S
C5738 C5742 1.524 . S
C5739 C5731 1.503 . S
C5739 C5738 1.370 . S
C5739 C5740 1.403 . S
C5740 C5739 1.403 . S
C5740 C5741 1.404 . S
C5740 C5743 1.539 . S
C5741 C5737 1.408 . S
C5741 C5740 1.404 . S
C5741 H5753 0.930 . S
C5742 C5738 1.524 . S
C5742 H5754 0.956 . S
C5742 H5755 0.961 . S
C5742 H5756 0.961 . S
C5743 C5740 1.539 . S
C5743 H5757 0.958 . S
C5743 H5758 0.961 . S
C5743 H5759 0.960 . S
H5744 C5728 0.931 . S
H5745 C5733 0.929 . S
H5746 C5734 0.960 . S
H5747 C5734 0.962 . S
H5748 C5734 0.960 . S
H5749 C5735 0.961 . S
H5750 C5735 0.961 . S
H5751 C5735 0.961 . S
H5752 C5736 0.931 . S
H5753 C5741 0.930 . S
H5754 C5742 0.956 . S
H5755 C5742 0.961 . S
H5756 C5742 0.961 . S
H5757 C5743 0.958 . S
H5758 C5743 0.961 . S
H5759 C5743 0.960 . S
C5760 C5761 1.391 . S
C5760 C5762 1.394 . S
C5760 H5776 0.931 . S
C5761 C5760 1.391 . S
C5761 C5765 1.376 . S
C5762 C5760 1.394 . S
C5762 C5763 1.369 . S
C5762 C5766 1.531 . S
C5763 C5762 1.369 . S
C5763 C5764 1.410 . S
C5763 C5771 1.503 . S
C5764 C5763 1.410 . S
C5764 C5765 1.392 . S
C5764 C5767 1.511 . S
C5765 C5761 1.376 . S
C5765 C5764 1.392 . S
C5765 H5777 0.929 . S
C5766 C5762 1.531 . S
C5766 H5778 0.960 . S
C5766 H5779 0.962 . S
C5766 H5780 0.960 . S
C5767 C5764 1.511 . S
C5767 H5781 0.961 . S
C5767 H5782 0.961 . S
C5767 H5783 0.961 . S
C5768 C5769 1.370 . S
C5768 C5770 1.363 . S
C5768 H5784 0.931 . S
C5769 C5768 1.370 . S
C5769 C5773 1.408 . S
C5770 C5768 1.363 . S
C5770 C5771 1.370 . S
C5770 C5774 1.524 . S
C5771 C5763 1.503 . S
C5771 C5770 1.370 . S
C5771 C5772 1.403 . S
C5772 C5771 1.403 . S
C5772 C5773 1.404 . S
C5772 C5775 1.539 . S
C5773 C5769 1.408 . S
C5773 C5772 1.404 . S
C5773 H5785 0.930 . S
C5774 C5770 1.524 . S
C5774 H5786 0.956 . S
C5774 H5787 0.961 . S
C5774 H5788 0.961 . S
C5775 C5772 1.539 . S
C5775 H5789 0.958 . S
C5775 H5790 0.961 . S
C5775 H5791 0.960 . S
H5776 C5760 0.931 . S
H5777 C5765 0.929 . S
H5778 C5766 0.960 . S
H5779 C5766 0.962 . S
H5780 C5766 0.960 . S
H5781 C5767 0.961 . S
H5782 C5767 0.961 . S
H5783 C5767 0.961 . S
H5784 C5768 0.931 . S
H5785 C5773 0.930 . S
H5786 C5774 0.956 . S
H5787 C5774 0.961 . S
H5788 C5774 0.961 . S
H5789 C5775 0.958 . S
H5790 C5775 0.961 . S
H5791 C5775 0.960 . S
C5792 C5793 1.391 . S
C5792 C5794 1.394 . S
C5792 H5808 0.931 . S
C5793 C5792 1.391 . S
C5793 C5797 1.376 . S
C5794 C5792 1.394 . S
C5794 C5795 1.369 . S
C5794 C5798 1.531 . S
C5795 C5794 1.369 . S
C5795 C5796 1.410 . S
C5795 C5803 1.503 . S
C5796 C5795 1.410 . S
C5796 C5797 1.392 . S
C5796 C5799 1.511 . S
C5797 C5793 1.376 . S
C5797 C5796 1.392 . S
C5797 H5809 0.929 . S
C5798 C5794 1.531 . S
C5798 H5810 0.960 . S
C5798 H5811 0.962 . S
C5798 H5812 0.960 . S
C5799 C5796 1.511 . S
C5799 H5813 0.961 . S
C5799 H5814 0.961 . S
C5799 H5815 0.961 . S
C5800 C5801 1.370 . S
C5800 C5802 1.363 . S
C5800 H5816 0.931 . S
C5801 C5800 1.370 . S
C5801 C5805 1.408 . S
C5802 C5800 1.363 . S
C5802 C5803 1.370 . S
C5802 C5806 1.524 . S
C5803 C5795 1.503 . S
C5803 C5802 1.370 . S
C5803 C5804 1.403 . S
C5804 C5803 1.403 . S
C5804 C5805 1.404 . S
C5804 C5807 1.539 . S
C5805 C5801 1.408 . S
C5805 C5804 1.404 . S
C5805 H5817 0.930 . S
C5806 C5802 1.524 . S
C5806 H5818 0.956 . S
C5806 H5819 0.961 . S
C5806 H5820 0.961 . S
C5807 C5804 1.539 . S
C5807 H5821 0.958 . S
C5807 H5822 0.961 . S
C5807 H5823 0.960 . S
H5808 C5792 0.931 . S
H5809 C5797 0.929 . S
H5810 C5798 0.960 . S
H5811 C5798 0.962 . S
H5812 C5798 0.960 . S
H5813 C5799 0.961 . S
H5814 C5799 0.961 . S
H5815 C5799 0.961 . S
H5816 C5800 0.931 . S
H5817 C5805 0.930 . S
H5818 C5806 0.956 . S
H5819 C5806 0.961 . S
H5820 C5806 0.961 . S
H5821 C5807 0.958 . S
H5822 C5807 0.961 . S
H5823 C5807 0.960 . S
C5824 C5825 1.391 . S
C5824 C5826 1.394 . S
C5824 H5840 0.931 . S
C5825 C5824 1.391 . S
C5825 C5829 1.376 . S
C5826 C5824 1.394 . S
C5826 C5827 1.369 . S
C5826 C5830 1.531 . S
C5827 C5826 1.369 . S
C5827 C5828 1.410 . S
C5827 C5835 1.503 . S
C5828 C5827 1.410 . S
C5828 C5829 1.392 . S
C5828 C5831 1.511 . S
C5829 C5825 1.376 . S
C5829 C5828 1.392 . S
C5829 H5841 0.929 . S
C5830 C5826 1.531 . S
C5830 H5842 0.960 . S
C5830 H5843 0.962 . S
C5830 H5844 0.960 . S
C5831 C5828 1.511 . S
C5831 H5845 0.961 . S
C5831 H5846 0.961 . S
C5831 H5847 0.961 . S
C5832 C5833 1.370 . S
C5832 C5834 1.363 . S
C5832 H5848 0.931 . S
C5833 C5832 1.370 . S
C5833 C5837 1.408 . S
C5834 C5832 1.363 . S
C5834 C5835 1.370 . S
C5834 C5838 1.524 . S
C5835 C5827 1.503 . S
C5835 C5834 1.370 . S
C5835 C5836 1.403 . S
C5836 C5835 1.403 . S
C5836 C5837 1.404 . S
C5836 C5839 1.539 . S
C5837 C5833 1.408 . S
C5837 C5836 1.404 . S
C5837 H5849 0.930 . S
C5838 C5834 1.524 . S
C5838 H5850 0.956 . S
C5838 H5851 0.961 . S
C5838 H5852 0.961 . S
C5839 C5836 1.539 . S
C5839 H5853 0.958 . S
C5839 H5854 0.961 . S
C5839 H5855 0.960 . S
H5840 C5824 0.931 . S
H5841 C5829 0.929 . S
H5842 C5830 0.960 . S
H5843 C5830 0.962 . S
H5844 C5830 0.960 . S
H5845 C5831 0.961 . S
H5846 C5831 0.961 . S
H5847 C5831 0.961 . S
H5848 C5832 0.931 . S
H5849 C5837 0.930 . S
H5850 C5838 0.956 . S
H5851 C5838 0.961 . S
H5852 C5838 0.961 . S
H5853 C5839 0.958 . S
H5854 C5839 0.961 . S
H5855 C5839 0.960 . S
C5856 C5857 1.391 . S
C5856 C5858 1.394 . S
C5856 H5872 0.931 . S
C5857 C5856 1.391 . S
C5857 C5861 1.376 . S
C5858 C5856 1.394 . S
C5858 C5859 1.369 . S
C5858 C5862 1.531 . S
C5859 C5858 1.369 . S
C5859 C5860 1.410 . S
C5859 C5867 1.503 . S
C5860 C5859 1.410 . S
C5860 C5861 1.392 . S
C5860 C5863 1.511 . S
C5861 C5857 1.376 . S
C5861 C5860 1.392 . S
C5861 H5873 0.929 . S
C5862 C5858 1.531 . S
C5862 H5874 0.960 . S
C5862 H5875 0.962 . S
C5862 H5876 0.960 . S
C5863 C5860 1.511 . S
C5863 H5877 0.961 . S
C5863 H5878 0.961 . S
C5863 H5879 0.961 . S
C5864 C5865 1.370 . S
C5864 C5866 1.363 . S
C5864 H5880 0.931 . S
C5865 C5864 1.370 . S
C5865 C5869 1.408 . S
C5866 C5864 1.363 . S
C5866 C5867 1.370 . S
C5866 C5870 1.524 . S
C5867 C5859 1.503 . S
C5867 C5866 1.370 . S
C5867 C5868 1.403 . S
C5868 C5867 1.403 . S
C5868 C5869 1.404 . S
C5868 C5871 1.539 . S
C5869 C5865 1.408 . S
C5869 C5868 1.404 . S
C5869 H5881 0.930 . S
C5870 C5866 1.524 . S
C5870 H5882 0.956 . S
C5870 H5883 0.961 . S
C5870 H5884 0.961 . S
C5871 C5868 1.539 . S
C5871 H5885 0.958 . S
C5871 H5886 0.961 . S
C5871 H5887 0.960 . S
H5872 C5856 0.931 . S
H5873 C5861 0.929 . S
H5874 C5862 0.960 . S
H5875 C5862 0.962 . S
H5876 C5862 0.960 . S
H5877 C5863 0.961 . S
H5878 C5863 0.961 . S
H5879 C5863 0.961 . S
H5880 C5864 0.931 . S
H5881 C5869 0.930 . S
H5882 C5870 0.956 . S
H5883 C5870 0.961 . S
H5884 C5870 0.961 . S
H5885 C5871 0.958 . S
H5886 C5871 0.961 . S
H5887 C5871 0.960 . S
C5888 C5889 1.391 . S
C5888 C5890 1.394 . S
C5888 H5904 0.931 . S
C5889 C5888 1.391 . S
C5889 C5893 1.376 . S
C5890 C5888 1.394 . S
C5890 C5891 1.369 . S
C5890 C5894 1.531 . S
C5891 C5890 1.369 . S
C5891 C5892 1.410 . S
C5891 C5899 1.503 . S
C5892 C5891 1.410 . S
C5892 C5893 1.392 . S
C5892 C5895 1.511 . S
C5893 C5889 1.376 . S
C5893 C5892 1.392 . S
C5893 H5905 0.929 . S
C5894 C5890 1.531 . S
C5894 H5906 0.960 . S
C5894 H5907 0.962 . S
C5894 H5908 0.960 . S
C5895 C5892 1.511 . S
C5895 H5909 0.961 . S
C5895 H5910 0.961 . S
C5895 H5911 0.961 . S
C5896 C5897 1.370 . S
C5896 C5898 1.363 . S
C5896 H5912 0.931 . S
C5897 C5896 1.370 . S
C5897 C5901 1.408 . S
C5898 C5896 1.363 . S
C5898 C5899 1.370 . S
C5898 C5902 1.524 . S
C5899 C5891 1.503 . S
C5899 C5898 1.370 . S
C5899 C5900 1.403 . S
C5900 C5899 1.403 . S
C5900 C5901 1.404 . S
C5900 C5903 1.539 . S
C5901 C5897 1.408 . S
C5901 C5900 1.404 . S
C5901 H5913 0.930 . S
C5902 C5898 1.524 . S
C5902 H5914 0.956 . S
C5902 H5915 0.961 . S
C5902 H5916 0.961 . S
C5903 C5900 1.539 . S
C5903 H5917 0.958 . S
C5903 H5918 0.961 . S
C5903 H5919 0.960 . S
H5904 C5888 0.931 . S
H5905 C5893 0.929 . S
H5906 C5894 0.960 . S
H5907 C5894 0.962 . S
H5908 C5894 0.960 . S
H5909 C5895 0.961 . S
H5910 C5895 0.961 . S
H5911 C5895 0.961 . S
H5912 C5896 0.931 . S
H5913 C5901 0.930 . S
H5914 C5902 0.956 . S
H5915 C5902 0.961 . S
H5916 C5902 0.961 . S
H5917 C5903 0.958 . S
H5918 C5903 0.961 . S
H5919 C5903 0.960 . S
C5920 C5921 1.391 . S
C5920 C5922 1.394 . S
C5920 H5936 0.931 . S
C5921 C5920 1.391 . S
C5921 C5925 1.376 . S
C5922 C5920 1.394 . S
C5922 C5923 1.369 . S
C5922 C5926 1.531 . S
C5923 C5922 1.369 . S
C5923 C5924 1.410 . S
C5923 C5931 1.503 . S
C5924 C5923 1.410 . S
C5924 C5925 1.392 . S
C5924 C5927 1.511 . S
C5925 C5921 1.376 . S
C5925 C5924 1.392 . S
C5925 H5937 0.929 . S
C5926 C5922 1.531 . S
C5926 H5938 0.960 . S
C5926 H5939 0.962 . S
C5926 H5940 0.960 . S
C5927 C5924 1.511 . S
C5927 H5941 0.961 . S
C5927 H5942 0.961 . S
C5927 H5943 0.961 . S
C5928 C5929 1.370 . S
C5928 C5930 1.363 . S
C5928 H5944 0.931 . S
C5929 C5928 1.370 . S
C5929 C5933 1.408 . S
C5930 C5928 1.363 . S
C5930 C5931 1.370 . S
C5930 C5934 1.524 . S
C5931 C5923 1.503 . S
C5931 C5930 1.370 . S
C5931 C5932 1.403 . S
C5932 C5931 1.403 . S
C5932 C5933 1.404 . S
C5932 C5935 1.539 . S
C5933 C5929 1.408 . S
C5933 C5932 1.404 . S
C5933 H5945 0.930 . S
C5934 C5930 1.524 . S
C5934 H5946 0.956 . S
C5934 H5947 0.961 . S
C5934 H5948 0.961 . S
C5935 C5932 1.539 . S
C5935 H5949 0.958 . S
C5935 H5950 0.961 . S
C5935 H5951 0.960 . S
H5936 C5920 0.931 . S
H5937 C5925 0.929 . S
H5938 C5926 0.960 . S
H5939 C5926 0.962 . S
H5940 C5926 0.960 . S
H5941 C5927 0.961 . S
H5942 C5927 0.961 . S
H5943 C5927 0.961 . S
H5944 C5928 0.931 . S
H5945 C5933 0.930 . S
H5946 C5934 0.956 . S
H5947 C5934 0.961 . S
H5948 C5934 0.961 . S
H5949 C5935 0.958 . S
H5950 C5935 0.961 . S
H5951 C5935 0.960 . S
C5952 C5953 1.391 . S
C5952 C5954 1.394 . S
C5952 H5968 0.931 . S
C5953 C5952 1.391 . S
C5953 C5957 1.376 . S
C5954 C5952 1.394 . S
C5954 C5955 1.369 . S
C5954 C5958 1.531 . S
C5955 C5954 1.369 . S
C5955 C5956 1.410 . S
C5955 C5963 1.503 . S
C5956 C5955 1.410 . S
C5956 C5957 1.392 . S
C5956 C5959 1.511 . S
C5957 C5953 1.376 . S
C5957 C5956 1.392 . S
C5957 H5969 0.929 . S
C5958 C5954 1.531 . S
C5958 H5970 0.960 . S
C5958 H5971 0.962 . S
C5958 H5972 0.960 . S
C5959 C5956 1.511 . S
C5959 H5973 0.961 . S
C5959 H5974 0.961 . S
C5959 H5975 0.961 . S
C5960 C5961 1.370 . S
C5960 C5962 1.363 . S
C5960 H5976 0.931 . S
C5961 C5960 1.370 . S
C5961 C5965 1.408 . S
C5962 C5960 1.363 . S
C5962 C5963 1.370 . S
C5962 C5966 1.524 . S
C5963 C5955 1.503 . S
C5963 C5962 1.370 . S
C5963 C5964 1.403 . S
C5964 C5963 1.403 . S
C5964 C5965 1.404 . S
C5964 C5967 1.539 . S
C5965 C5961 1.408 . S
C5965 C5964 1.404 . S
C5965 H5977 0.930 . S
C5966 C5962 1.524 . S
C5966 H5978 0.956 . S
C5966 H5979 0.961 . S
C5966 H5980 0.961 . S
C5967 C5964 1.539 . S
C5967 H5981 0.958 . S
C5967 H5982 0.961 . S
C5967 H5983 0.960 . S
H5968 C5952 0.931 . S
H5969 C5957 0.929 . S
H5970 C5958 0.960 . S
H5971 C5958 0.962 . S
H5972 C5958 0.960 . S
H5973 C5959 0.961 . S
H5974 C5959 0.961 . S
H5975 C5959 0.961 . S
H5976 C5960 0.931 . S
H5977 C5965 0.930 . S
H5978 C5966 0.956 . S
H5979 C5966 0.961 . S
H5980 C5966 0.961 . S
H5981 C5967 0.958 . S
H5982 C5967 0.961 . S
H5983 C5967 0.960 . S
C5984 C5985 1.391 . S
C5984 C5986 1.394 . S
C5984 H6000 0.931 . S
C5985 C5984 1.391 . S
C5985 C5989 1.376 . S
C5986 C5984 1.394 . S
C5986 C5987 1.369 . S
C5986 C5990 1.531 . S
C5987 C5986 1.369 . S
C5987 C5988 1.410 . S
C5987 C5995 1.503 . S
C5988 C5987 1.410 . S
C5988 C5989 1.392 . S
C5988 C5991 1.511 . S
C5989 C5985 1.376 . S
C5989 C5988 1.392 . S
C5989 H6001 0.929 . S
C5990 C5986 1.531 . S
C5990 H6002 0.960 . S
C5990 H6003 0.962 . S
C5990 H6004 0.960 . S
C5991 C5988 1.511 . S
C5991 H6005 0.961 . S
C5991 H6006 0.961 . S
C5991 H6007 0.961 . S
C5992 C5993 1.370 . S
C5992 C5994 1.363 . S
C5992 H6008 0.931 . S
C5993 C5992 1.370 . S
C5993 C5997 1.408 . S
C5994 C5992 1.363 . S
C5994 C5995 1.370 . S
C5994 C5998 1.524 . S
C5995 C5987 1.503 . S
C5995 C5994 1.370 . S
C5995 C5996 1.403 . S
C5996 C5995 1.403 . S
C5996 C5997 1.404 . S
C5996 C5999 1.539 . S
C5997 C5993 1.408 . S
C5997 C5996 1.404 . S
C5997 H6009 0.930 . S
C5998 C5994 1.524 . S
C5998 H6010 0.956 . S
C5998 H6011 0.961 . S
C5998 H6012 0.961 . S
C5999 C5996 1.539 . S
C5999 H6013 0.958 . S
C5999 H6014 0.961 . S
C5999 H6015 0.960 . S
H6000 C5984 0.931 . S
H6001 C5989 0.929 . S
H6002 C5990 0.960 . S
H6003 C5990 0.962 . S
H6004 C5990 0.960 . S
H6005 C5991 0.961 . S
H6006 C5991 0.961 . S
H6007 C5991 0.961 . S
H6008 C5992 0.931 . S
H6009 C5997 0.930 . S
H6010 C5998 0.956 . S
H6011 C5998 0.961 . S
H6012 C5998 0.961 . S
H6013 C5999 0.958 . S
H6014 C5999 0.961 . S
H6015 C5999 0.960 . S
C6016 C6017 1.391 . S
C6016 C6018 1.394 . S
C6016 H6032 0.931 . S
C6017 C6016 1.391 . S
C6017 C6021 1.376 . S
C6018 C6016 1.394 . S
C6018 C6019 1.369 . S
C6018 C6022 1.531 . S
C6019 C6018 1.369 . S
C6019 C6020 1.410 . S
C6019 C6027 1.503 . S
C6020 C6019 1.410 . S
C6020 C6021 1.392 . S
C6020 C6023 1.511 . S
C6021 C6017 1.376 . S
C6021 C6020 1.392 . S
C6021 H6033 0.929 . S
C6022 C6018 1.531 . S
C6022 H6034 0.960 . S
C6022 H6035 0.962 . S
C6022 H6036 0.960 . S
C6023 C6020 1.511 . S
C6023 H6037 0.961 . S
C6023 H6038 0.961 . S
C6023 H6039 0.961 . S
C6024 C6025 1.370 . S
C6024 C6026 1.363 . S
C6024 H6040 0.931 . S
C6025 C6024 1.370 . S
C6025 C6029 1.408 . S
C6026 C6024 1.363 . S
C6026 C6027 1.370 . S
C6026 C6030 1.524 . S
C6027 C6019 1.503 . S
C6027 C6026 1.370 . S
C6027 C6028 1.403 . S
C6028 C6027 1.403 . S
C6028 C6029 1.404 . S
C6028 C6031 1.539 . S
C6029 C6025 1.408 . S
C6029 C6028 1.404 . S
C6029 H6041 0.930 . S
C6030 C6026 1.524 . S
C6030 H6042 0.956 . S
C6030 H6043 0.961 . S
C6030 H6044 0.961 . S
C6031 C6028 1.539 . S
C6031 H6045 0.958 . S
C6031 H6046 0.961 . S
C6031 H6047 0.960 . S
H6032 C6016 0.931 . S
H6033 C6021 0.929 . S
H6034 C6022 0.960 . S
H6035 C6022 0.962 . S
H6036 C6022 0.960 . S
H6037 C6023 0.961 . S
H6038 C6023 0.961 . S
H6039 C6023 0.961 . S
H6040 C6024 0.931 . S
H6041 C6029 0.930 . S
H6042 C6030 0.956 . S
H6043 C6030 0.961 . S
H6044 C6030 0.961 . S
H6045 C6031 0.958 . S
H6046 C6031 0.961 . S
H6047 C6031 0.960 . S
C6048 C6049 1.391 . S
C6048 C6050 1.394 . S
C6048 H6064 0.931 . S
C6049 C6048 1.391 . S
C6049 C6053 1.376 . S
C6050 C6048 1.394 . S
C6050 C6051 1.369 . S
C6050 C6054 1.531 . S
C6051 C6050 1.369 . S
C6051 C6052 1.410 . S
C6051 C6059 1.503 . S
C6052 C6051 1.410 . S
C6052 C6053 1.392 . S
C6052 C6055 1.511 . S
C6053 C6049 1.376 . S
C6053 C6052 1.392 . S
C6053 H6065 0.929 . S
C6054 C6050 1.531 . S
C6054 H6066 0.960 . S
C6054 H6067 0.962 . S
C6054 H6068 0.960 . S
C6055 C6052 1.511 . S
C6055 H6069 0.961 . S
C6055 H6070 0.961 . S
C6055 H6071 0.961 . S
C6056 C6057 1.370 . S
C6056 C6058 1.363 . S
C6056 H6072 0.931 . S
C6057 C6056 1.370 . S
C6057 C6061 1.408 . S
C6058 C6056 1.363 . S
C6058 C6059 1.370 . S
C6058 C6062 1.524 . S
C6059 C6051 1.503 . S
C6059 C6058 1.370 . S
C6059 C6060 1.403 . S
C6060 C6059 1.403 . S
C6060 C6061 1.404 . S
C6060 C6063 1.539 . S
C6061 C6057 1.408 . S
C6061 C6060 1.404 . S
C6061 H6073 0.930 . S
C6062 C6058 1.524 . S
C6062 H6074 0.956 . S
C6062 H6075 0.961 . S
C6062 H6076 0.961 . S
C6063 C6060 1.539 . S
C6063 H6077 0.958 . S
C6063 H6078 0.961 . S
C6063 H6079 0.960 . S
H6064 C6048 0.931 . S
H6065 C6053 0.929 . S
H6066 C6054 0.960 . S
H6067 C6054 0.962 . S
H6068 C6054 0.960 . S
H6069 C6055 0.961 . S
H6070 C6055 0.961 . S
H6071 C6055 0.961 . S
H6072 C6056 0.931 . S
H6073 C6061 0.930 . S
H6074 C6062 0.956 . S
H6075 C6062 0.961 . S
H6076 C6062 0.961 . S
H6077 C6063 0.958 . S
H6078 C6063 0.961 . S
H6079 C6063 0.960 . S
C6080 C6081 1.391 . S
C6080 C6082 1.394 . S
C6080 H6096 0.931 . S
C6081 C6080 1.391 . S
C6081 C6085 1.376 . S
C6082 C6080 1.394 . S
C6082 C6083 1.369 . S
C6082 C6086 1.531 . S
C6083 C6082 1.369 . S
C6083 C6084 1.410 . S
C6083 C6091 1.503 . S
C6084 C6083 1.410 . S
C6084 C6085 1.392 . S
C6084 C6087 1.511 . S
C6085 C6081 1.376 . S
C6085 C6084 1.392 . S
C6085 H6097 0.929 . S
C6086 C6082 1.531 . S
C6086 H6098 0.960 . S
C6086 H6099 0.962 . S
C6086 H6100 0.960 . S
C6087 C6084 1.511 . S
C6087 H6101 0.961 . S
C6087 H6102 0.961 . S
C6087 H6103 0.961 . S
C6088 C6089 1.370 . S
C6088 C6090 1.363 . S
C6088 H6104 0.931 . S
C6089 C6088 1.370 . S
C6089 C6093 1.408 . S
C6090 C6088 1.363 . S
C6090 C6091 1.370 . S
C6090 C6094 1.524 . S
C6091 C6083 1.503 . S
C6091 C6090 1.370 . S
C6091 C6092 1.403 . S
C6092 C6091 1.403 . S
C6092 C6093 1.404 . S
C6092 C6095 1.539 . S
C6093 C6089 1.408 . S
C6093 C6092 1.404 . S
C6093 H6105 0.930 . S
C6094 C6090 1.524 . S
C6094 H6106 0.956 . S
C6094 H6107 0.961 . S
C6094 H6108 0.961 . S
C6095 C6092 1.539 . S
C6095 H6109 0.958 . S
C6095 H6110 0.961 . S
C6095 H6111 0.960 . S
H6096 C6080 0.931 . S
H6097 C6085 0.929 . S
H6098 C6086 0.960 . S
H6099 C6086 0.962 . S
H6100 C6086 0.960 . S
H6101 C6087 0.961 . S
H6102 C6087 0.961 . S
H6103 C6087 0.961 . S
H6104 C6088 0.931 . S
H6105 C6093 0.930 . S
H6106 C6094 0.956 . S
H6107 C6094 0.961 . S
H6108 C6094 0.961 . S
H6109 C6095 0.958 . S
H6110 C6095 0.961 . S
H6111 C6095 0.960 . S
C6112 C6113 1.391 . S
C6112 C6114 1.394 . S
C6112 H6128 0.931 . S
C6113 C6112 1.391 . S
C6113 C6117 1.376 . S
C6114 C6112 1.394 . S
C6114 C6115 1.369 . S
C6114 C6118 1.531 . S
C6115 C6114 1.369 . S
C6115 C6116 1.410 . S
C6115 C6123 1.503 . S
C6116 C6115 1.410 . S
C6116 C6117 1.392 . S
C6116 C6119 1.511 . S
C6117 C6113 1.376 . S
C6117 C6116 1.392 . S
C6117 H6129 0.929 . S
C6118 C6114 1.531 . S
C6118 H6130 0.960 . S
C6118 H6131 0.962 . S
C6118 H6132 0.960 . S
C6119 C6116 1.511 . S
C6119 H6133 0.961 . S
C6119 H6134 0.961 . S
C6119 H6135 0.961 . S
C6120 C6121 1.370 . S
C6120 C6122 1.363 . S
C6120 H6136 0.931 . S
C6121 C6120 1.370 . S
C6121 C6125 1.408 . S
C6122 C6120 1.363 . S
C6122 C6123 1.370 . S
C6122 C6126 1.524 . S
C6123 C6115 1.503 . S
C6123 C6122 1.370 . S
C6123 C6124 1.403 . S
C6124 C6123 1.403 . S
C6124 C6125 1.404 . S
C6124 C6127 1.539 . S
C6125 C6121 1.408 . S
C6125 C6124 1.404 . S
C6125 H6137 0.930 . S
C6126 C6122 1.524 . S
C6126 H6138 0.956 . S
C6126 H6139 0.961 . S
C6126 H6140 0.961 . S
C6127 C6124 1.539 . S
C6127 H6141 0.958 . S
C6127 H6142 0.961 . S
C6127 H6143 0.960 . S
H6128 C6112 0.931 . S
H6129 C6117 0.929 . S
H6130 C6118 0.960 . S
H6131 C6118 0.962 . S
H6132 C6118 0.960 . S
H6133 C6119 0.961 . S
H6134 C6119 0.961 . S
H6135 C6119 0.961 . S
H6136 C6120 0.931 . S
H6137 C6125 0.930 . S
H6138 C6126 0.956 . S
H6139 C6126 0.961 . S
H6140 C6126 0.961 . S
H6141 C6127 0.958 . S
H6142 C6127 0.961 . S
H6143 C6127 0.960 . S
C6144 C6145 1.391 . S
C6144 C6146 1.394 . S
C6144 H6160 0.931 . S
C6145 C6144 1.391 . S
C6145 C6149 1.376 . S
C6146 C6144 1.394 . S
C6146 C6147 1.369 . S
C6146 C6150 1.531 . S
C6147 C6146 1.369 . S
C6147 C6148 1.410 . S
C6147 C6155 1.503 . S
C6148 C6147 1.410 . S
C6148 C6149 1.392 . S
C6148 C6151 1.511 . S
C6149 C6145 1.376 . S
C6149 C6148 1.392 . S
C6149 H6161 0.929 . S
C6150 C6146 1.531 . S
C6150 H6162 0.960 . S
C6150 H6163 0.962 . S
C6150 H6164 0.960 . S
C6151 C6148 1.511 . S
C6151 H6165 0.961 . S
C6151 H6166 0.961 . S
C6151 H6167 0.961 . S
C6152 C6153 1.370 . S
C6152 C6154 1.363 . S
C6152 H6168 0.931 . S
C6153 C6152 1.370 . S
C6153 C6157 1.408 . S
C6154 C6152 1.363 . S
C6154 C6155 1.370 . S
C6154 C6158 1.524 . S
C6155 C6147 1.503 . S
C6155 C6154 1.370 . S
C6155 C6156 1.403 . S
C6156 C6155 1.403 . S
C6156 C6157 1.404 . S
C6156 C6159 1.539 . S
C6157 C6153 1.408 . S
C6157 C6156 1.404 . S
C6157 H6169 0.930 . S
C6158 C6154 1.524 . S
C6158 H6170 0.956 . S
C6158 H6171 0.961 . S
C6158 H6172 0.961 . S
C6159 C6156 1.539 . S
C6159 H6173 0.958 . S
C6159 H6174 0.961 . S
C6159 H6175 0.960 . S
H6160 C6144 0.931 . S
H6161 C6149 0.929 . S
H6162 C6150 0.960 . S
H6163 C6150 0.962 . S
H6164 C6150 0.960 . S
H6165 C6151 0.961 . S
H6166 C6151 0.961 . S
H6167 C6151 0.961 . S
H6168 C6152 0.931 . S
H6169 C6157 0.930 . S
H6170 C6158 0.956 . S
H6171 C6158 0.961 . S
H6172 C6158 0.961 . S
H6173 C6159 0.958 . S
H6174 C6159 0.961 . S
H6175 C6159 0.960 . S
C6176 C6177 1.391 . S
C6176 C6178 1.394 . S
C6176 H6192 0.931 . S
C6177 C6176 1.391 . S
C6177 C6181 1.376 . S
C6178 C6176 1.394 . S
C6178 C6179 1.369 . S
C6178 C6182 1.531 . S
C6179 C6178 1.369 . S
C6179 C6180 1.410 . S
C6179 C6187 1.503 . S
C6180 C6179 1.410 . S
C6180 C6181 1.392 . S
C6180 C6183 1.511 . S
C6181 C6177 1.376 . S
C6181 C6180 1.392 . S
C6181 H6193 0.929 . S
C6182 C6178 1.531 . S
C6182 H6194 0.960 . S
C6182 H6195 0.962 . S
C6182 H6196 0.960 . S
C6183 C6180 1.511 . S
C6183 H6197 0.961 . S
C6183 H6198 0.961 . S
C6183 H6199 0.961 . S
C6184 C6185 1.370 . S
C6184 C6186 1.363 . S
C6184 H6200 0.931 . S
C6185 C6184 1.370 . S
C6185 C6189 1.408 . S
C6186 C6184 1.363 . S
C6186 C6187 1.370 . S
C6186 C6190 1.524 . S
C6187 C6179 1.503 . S
C6187 C6186 1.370 . S
C6187 C6188 1.403 . S
C6188 C6187 1.403 . S
C6188 C6189 1.404 . S
C6188 C6191 1.539 . S
C6189 C6185 1.408 . S
C6189 C6188 1.404 . S
C6189 H6201 0.930 . S
C6190 C6186 1.524 . S
C6190 H6202 0.956 . S
C6190 H6203 0.961 . S
C6190 H6204 0.961 . S
C6191 C6188 1.539 . S
C6191 H6205 0.958 . S
C6191 H6206 0.961 . S
C6191 H6207 0.960 . S
H6192 C6176 0.931 . S
H6193 C6181 0.929 . S
H6194 C6182 0.960 . S
H6195 C6182 0.962 . S
H6196 C6182 0.960 . S
H6197 C6183 0.961 . S
H6198 C6183 0.961 . S
H6199 C6183 0.961 . S
H6200 C6184 0.931 . S
H6201 C6189 0.930 . S
H6202 C6190 0.956 . S
H6203 C6190 0.961 . S
H6204 C6190 0.961 . S
H6205 C6191 0.958 . S
H6206 C6191 0.961 . S
H6207 C6191 0.960 . S
C6208 C6209 1.391 . S
C6208 C6210 1.394 . S
C6208 H6224 0.931 . S
C6209 C6208 1.391 . S
C6209 C6213 1.376 . S
C6210 C6208 1.394 . S
C6210 C6211 1.369 . S
C6210 C6214 1.531 . S
C6211 C6210 1.369 . S
C6211 C6212 1.410 . S
C6211 C6219 1.503 . S
C6212 C6211 1.410 . S
C6212 C6213 1.392 . S
C6212 C6215 1.511 . S
C6213 C6209 1.376 . S
C6213 C6212 1.392 . S
C6213 H6225 0.929 . S
C6214 C6210 1.531 . S
C6214 H6226 0.960 . S
C6214 H6227 0.962 . S
C6214 H6228 0.960 . S
C6215 C6212 1.511 . S
C6215 H6229 0.961 . S
C6215 H6230 0.961 . S
C6215 H6231 0.961 . S
C6216 C6217 1.370 . S
C6216 C6218 1.363 . S
C6216 H6232 0.931 . S
C6217 C6216 1.370 . S
C6217 C6221 1.408 . S
C6218 C6216 1.363 . S
C6218 C6219 1.370 . S
C6218 C6222 1.524 . S
C6219 C6211 1.503 . S
C6219 C6218 1.370 . S
C6219 C6220 1.403 . S
C6220 C6219 1.403 . S
C6220 C6221 1.404 . S
C6220 C6223 1.539 . S
C6221 C6217 1.408 . S
C6221 C6220 1.404 . S
C6221 H6233 0.930 . S
C6222 C6218 1.524 . S
C6222 H6234 0.956 . S
C6222 H6235 0.961 . S
C6222 H6236 0.961 . S
C6223 C6220 1.539 . S
C6223 H6237 0.958 . S
C6223 H6238 0.961 . S
C6223 H6239 0.960 . S
H6224 C6208 0.931 . S
H6225 C6213 0.929 . S
H6226 C6214 0.960 . S
H6227 C6214 0.962 . S
H6228 C6214 0.960 . S
H6229 C6215 0.961 . S
H6230 C6215 0.961 . S
H6231 C6215 0.961 . S
H6232 C6216 0.931 . S
H6233 C6221 0.930 . S
H6234 C6222 0.956 . S
H6235 C6222 0.961 . S
H6236 C6222 0.961 . S
H6237 C6223 0.958 . S
H6238 C6223 0.961 . S
H6239 C6223 0.960 . S
C6240 C6241 1.391 . S
C6240 C6242 1.394 . S
C6240 H6256 0.931 . S
C6241 C6240 1.391 . S
C6241 C6245 1.376 . S
C6242 C6240 1.394 . S
C6242 C6243 1.369 . S
C6242 C6246 1.531 . S
C6243 C6242 1.369 . S
C6243 C6244 1.410 . S
C6243 C6251 1.503 . S
C6244 C6243 1.410 . S
C6244 C6245 1.392 . S
C6244 C6247 1.511 . S
C6245 C6241 1.376 . S
C6245 C6244 1.392 . S
C6245 H6257 0.929 . S
C6246 C6242 1.531 . S
C6246 H6258 0.960 . S
C6246 H6259 0.962 . S
C6246 H6260 0.960 . S
C6247 C6244 1.511 . S
C6247 H6261 0.961 . S
C6247 H6262 0.961 . S
C6247 H6263 0.961 . S
C6248 C6249 1.370 . S
C6248 C6250 1.363 . S
C6248 H6264 0.931 . S
C6249 C6248 1.370 . S
C6249 C6253 1.408 . S
C6250 C6248 1.363 . S
C6250 C6251 1.370 . S
C6250 C6254 1.524 . S
C6251 C6243 1.503 . S
C6251 C6250 1.370 . S
C6251 C6252 1.403 . S
C6252 C6251 1.403 . S
C6252 C6253 1.404 . S
C6252 C6255 1.539 . S
C6253 C6249 1.408 . S
C6253 C6252 1.404 . S
C6253 H6265 0.930 . S
C6254 C6250 1.524 . S
C6254 H6266 0.956 . S
C6254 H6267 0.961 . S
C6254 H6268 0.961 . S
C6255 C6252 1.539 . S
C6255 H6269 0.958 . S
C6255 H6270 0.961 . S
C6255 H6271 0.960 . S
H6256 C6240 0.931 . S
H6257 C6245 0.929 . S
H6258 C6246 0.960 . S
H6259 C6246 0.962 . S
H6260 C6246 0.960 . S
H6261 C6247 0.961 . S
H6262 C6247 0.961 . S
H6263 C6247 0.961 . S
H6264 C6248 0.931 . S
H6265 C6253 0.930 . S
H6266 C6254 0.956 . S
H6267 C6254 0.961 . S
H6268 C6254 0.961 . S
H6269 C6255 0.958 . S
H6270 C6255 0.961 . S
H6271 C6255 0.960 . S
C6272 C6273 1.391 . S
C6272 C6274 1.394 . S
C6272 H6288 0.931 . S
C6273 C6272 1.391 . S
C6273 C6277 1.376 . S
C6274 C6272 1.394 . S
C6274 C6275 1.369 . S
C6274 C6278 1.531 . S
C6275 C6274 1.369 . S
C6275 C6276 1.410 . S
C6275 C6283 1.503 . S
C6276 C6275 1.410 . S
C6276 C6277 1.392 . S
C6276 C6279 1.511 . S
C6277 C6273 1.376 . S
C6277 C6276 1.392 . S
C6277 H6289 0.929 . S
C6278 C6274 1.531 . S
C6278 H6290 0.960 . S
C6278 H6291 0.962 . S
C6278 H6292 0.960 . S
C6279 C6276 1.511 . S
C6279 H6293 0.961 . S
C6279 H6294 0.961 . S
C6279 H6295 0.961 . S
C6280 C6281 1.370 . S
C6280 C6282 1.363 . S
C6280 H6296 0.931 . S
C6281 C6280 1.370 . S
C6281 C6285 1.408 . S
C6282 C6280 1.363 . S
C6282 C6283 1.370 . S
C6282 C6286 1.524 . S
C6283 C6275 1.503 . S
C6283 C6282 1.370 . S
C6283 C6284 1.403 . S
C6284 C6283 1.403 . S
C6284 C6285 1.404 . S
C6284 C6287 1.539 . S
C6285 C6281 1.408 . S
C6285 C6284 1.404 . S
C6285 H6297 0.930 . S
C6286 C6282 1.524 . S
C6286 H6298 0.956 . S
C6286 H6299 0.961 . S
C6286 H6300 0.961 . S
C6287 C6284 1.539 . S
C6287 H6301 0.958 . S
C6287 H6302 0.961 . S
C6287 H6303 0.960 . S
H6288 C6272 0.931 . S
H6289 C6277 0.929 . S
H6290 C6278 0.960 . S
H6291 C6278 0.962 . S
H6292 C6278 0.960 . S
H6293 C6279 0.961 . S
H6294 C6279 0.961 . S
H6295 C6279 0.961 . S
H6296 C6280 0.931 . S
H6297 C6285 0.930 . S
H6298 C6286 0.956 . S
H6299 C6286 0.961 . S
H6300 C6286 0.961 . S
H6301 C6287 0.958 . S
H6302 C6287 0.961 . S
H6303 C6287 0.960 . S
C6304 C6305 1.391 . S
C6304 C6306 1.394 . S
C6304 H6320 0.931 . S
C6305 C6304 1.391 . S
C6305 C6309 1.376 . S
C6306 C6304 1.394 . S
C6306 C6307 1.369 . S
C6306 C6310 1.531 . S
C6307 C6306 1.369 . S
C6307 C6308 1.410 . S
C6307 C6315 1.503 . S
C6308 C6307 1.410 . S
C6308 C6309 1.392 . S
C6308 C6311 1.511 . S
C6309 C6305 1.376 . S
C6309 C6308 1.392 . S
C6309 H6321 0.929 . S
C6310 C6306 1.531 . S
C6310 H6322 0.960 . S
C6310 H6323 0.986 . S
C6310 H6324 0.960 . S
C6311 C6308 1.511 . S
C6311 H6325 0.961 . S
C6311 H6326 0.961 . S
C6311 H6327 0.961 . S
C6312 C6313 1.370 . S
C6312 C6314 1.363 . S
C6312 H6328 0.931 . S
C6313 C6312 1.370 . S
C6313 C6317 1.408 . S
C6314 C6312 1.363 . S
C6314 C6315 1.370 . S
C6314 C6318 1.524 . S
C6315 C6307 1.503 . S
C6315 C6314 1.370 . S
C6315 C6316 1.403 . S
C6316 C6315 1.403 . S
C6316 C6317 1.404 . S
C6316 C6319 1.539 . S
C6317 C6313 1.408 . S
C6317 C6316 1.404 . S
C6317 H6329 0.930 . S
C6318 C6314 1.524 . S
C6318 H6330 0.956 . S
C6318 H6331 0.961 . S
C6318 H6332 0.961 . S
C6319 C6316 1.539 . S
C6319 H6333 0.958 . S
C6319 H6334 0.961 . S
C6319 H6335 0.960 . S
H6320 C6304 0.931 . S
H6321 C6309 0.929 . S
H6322 C6310 0.960 . S
H6323 C6310 0.986 . S
H6324 C6310 0.960 . S
H6325 C6311 0.961 . S
H6326 C6311 0.961 . S
H6327 C6311 0.961 . S
H6328 C6312 0.931 . S
H6329 C6317 0.930 . S
H6330 C6318 0.956 . S
H6331 C6318 0.961 . S
H6332 C6318 0.961 . S
H6333 C6319 0.958 . S
H6334 C6319 0.961 . S
H6335 C6319 0.960 . S
C6336 C6337 1.391 . S
C6336 C6338 1.394 . S
C6336 H6352 0.931 . S
C6337 C6336 1.391 . S
C6337 C6341 1.376 . S
C6338 C6336 1.394 . S
C6338 C6339 1.369 . S
C6338 C6342 1.531 . S
C6339 C6338 1.369 . S
C6339 C6340 1.410 . S
C6339 C6347 1.503 . S
C6340 C6339 1.410 . S
C6340 C6341 1.392 . S
C6340 C6343 1.511 . S
C6341 C6337 1.376 . S
C6341 C6340 1.392 . S
C6341 H6353 0.929 . S
C6342 C6338 1.531 . S
C6342 H6354 0.960 . S
C6342 H6355 0.962 . S
C6342 H6356 0.960 . S
C6343 C6340 1.511 . S
C6343 H6357 0.961 . S
C6343 H6358 0.961 . S
C6343 H6359 0.961 . S
C6344 C6345 1.370 . S
C6344 C6346 1.363 . S
C6344 H6360 0.931 . S
C6345 C6344 1.370 . S
C6345 C6349 1.408 . S
C6346 C6344 1.363 . S
C6346 C6347 1.370 . S
C6346 C6350 1.524 . S
C6347 C6339 1.503 . S
C6347 C6346 1.370 . S
C6347 C6348 1.403 . S
C6348 C6347 1.403 . S
C6348 C6349 1.404 . S
C6348 C6351 1.539 . S
C6349 C6345 1.408 . S
C6349 C6348 1.404 . S
C6349 H6361 0.930 . S
C6350 C6346 1.524 . S
C6350 H6362 0.956 . S
C6350 H6363 0.961 . S
C6350 H6364 0.961 . S
C6351 C6348 1.539 . S
C6351 H6365 0.958 . S
C6351 H6366 0.961 . S
C6351 H6367 0.960 . S
H6352 C6336 0.931 . S
H6353 C6341 0.929 . S
H6354 C6342 0.960 . S
H6355 C6342 0.962 . S
H6356 C6342 0.960 . S
H6357 C6343 0.961 . S
H6358 C6343 0.961 . S
H6359 C6343 0.961 . S
H6360 C6344 0.931 . S
H6361 C6349 0.930 . S
H6362 C6350 0.956 . S
H6363 C6350 0.961 . S
H6364 C6350 0.961 . S
H6365 C6351 0.958 . S
H6366 C6351 0.961 . S
H6367 C6351 0.960 . S
C6368 C6369 1.391 . S
C6368 C6370 1.394 . S
C6368 H6384 0.931 . S
C6369 C6368 1.391 . S
C6369 C6373 1.376 . S
C6370 C6368 1.394 . S
C6370 C6371 1.369 . S
C6370 C6374 1.531 . S
C6371 C6370 1.369 . S
C6371 C6372 1.410 . S
C6371 C6379 1.503 . S
C6372 C6371 1.410 . S
C6372 C6373 1.392 . S
C6372 C6375 1.511 . S
C6373 C6369 1.376 . S
C6373 C6372 1.392 . S
C6373 H6385 0.929 . S
C6374 C6370 1.531 . S
C6374 H6386 0.960 . S
C6374 H6387 0.962 . S
C6374 H6388 0.960 . S
C6375 C6372 1.511 . S
C6375 H6389 0.961 . S
C6375 H6390 0.961 . S
C6375 H6391 0.961 . S
C6376 C6377 1.370 . S
C6376 C6378 1.363 . S
C6376 H6392 0.931 . S
C6377 C6376 1.370 . S
C6377 C6381 1.408 . S
C6378 C6376 1.363 . S
C6378 C6379 1.370 . S
C6378 C6382 1.524 . S
C6379 C6371 1.503 . S
C6379 C6378 1.370 . S
C6379 C6380 1.403 . S
C6380 C6379 1.403 . S
C6380 C6381 1.404 . S
C6380 C6383 1.539 . S
C6381 C6377 1.408 . S
C6381 C6380 1.404 . S
C6381 H6393 0.930 . S
C6382 C6378 1.524 . S
C6382 H6394 0.956 . S
C6382 H6395 0.961 . S
C6382 H6396 0.961 . S
C6383 C6380 1.539 . S
C6383 H6397 0.958 . S
C6383 H6398 0.961 . S
C6383 H6399 0.960 . S
H6384 C6368 0.931 . S
H6385 C6373 0.929 . S
H6386 C6374 0.960 . S
H6387 C6374 0.962 . S
H6388 C6374 0.960 . S
H6389 C6375 0.961 . S
H6390 C6375 0.961 . S
H6391 C6375 0.961 . S
H6392 C6376 0.931 . S
H6393 C6381 0.930 . S
H6394 C6382 0.956 . S
H6395 C6382 0.961 . S
H6396 C6382 0.961 . S
H6397 C6383 0.958 . S
H6398 C6383 0.961 . S
H6399 C6383 0.960 . S
C6400 C6401 1.391 . S
C6400 C6402 1.394 . S
C6400 H6416 0.931 . S
C6401 C6400 1.391 . S
C6401 C6405 1.376 . S
C6402 C6400 1.394 . S
C6402 C6403 1.369 . S
C6402 C6406 1.531 . S
C6403 C6402 1.369 . S
C6403 C6404 1.410 . S
C6403 C6411 1.503 . S
C6404 C6403 1.410 . S
C6404 C6405 1.392 . S
C6404 C6407 1.511 . S
C6405 C6401 1.376 . S
C6405 C6404 1.392 . S
C6405 H6417 0.929 1_556 S
C6406 C6402 1.531 . S
C6406 H6418 0.960 . S
C6406 H6419 0.962 . S
C6406 H6420 0.960 . S
C6407 C6404 1.511 . S
C6407 H6421 0.961 . S
C6407 H6422 0.961 . S
C6407 H6423 0.961 . S
C6408 C6409 1.370 . S
C6408 C6410 1.363 . S
C6408 H6424 0.931 . S
C6409 C6408 1.370 . S
C6409 C6413 1.408 . S
C6410 C6408 1.363 . S
C6410 C6411 1.370 . S
C6410 C6414 1.524 . S
C6411 C6403 1.503 . S
C6411 C6410 1.370 . S
C6411 C6412 1.403 . S
C6412 C6411 1.403 . S
C6412 C6413 1.404 . S
C6412 C6415 1.539 . S
C6413 C6409 1.408 . S
C6413 C6412 1.404 . S
C6413 H6425 0.930 . S
C6414 C6410 1.524 . S
C6414 H6426 0.956 . S
C6414 H6427 0.961 . S
C6414 H6428 0.961 . S
C6415 C6412 1.539 . S
C6415 H6429 0.958 . S
C6415 H6430 0.961 . S
C6415 H6431 0.960 . S
H6416 C6400 0.931 . S
H6417 C6405 0.929 1_554 S
H6418 C6406 0.960 . S
H6419 C6406 0.962 . S
H6420 C6406 0.960 . S
H6421 C6407 0.961 . S
H6422 C6407 0.961 . S
H6423 C6407 0.961 . S
H6424 C6408 0.931 . S
H6425 C6413 0.930 . S
H6426 C6414 0.956 . S
H6427 C6414 0.961 . S
H6428 C6414 0.961 . S
H6429 C6415 0.958 . S
H6430 C6415 0.961 . S
H6431 C6415 0.960 . S
C6432 C6433 1.391 . S
C6432 C6434 1.394 . S
C6432 H6448 0.931 . S
C6433 C6432 1.391 . S
C6433 C6437 1.376 . S
C6434 C6432 1.394 . S
C6434 C6435 1.369 . S
C6434 C6438 1.531 . S
C6435 C6434 1.369 . S
C6435 C6436 1.410 . S
C6435 C6443 1.503 . S
C6436 C6435 1.410 . S
C6436 C6437 1.392 . S
C6436 C6439 1.511 . S
C6437 C6433 1.376 . S
C6437 C6436 1.392 . S
C6437 H6449 0.929 . S
C6438 C6434 1.531 . S
C6438 H6450 0.960 . S
C6438 H6451 0.962 . S
C6438 H6452 0.960 . S
C6439 C6436 1.511 . S
C6439 H6453 0.961 . S
C6439 H6454 0.961 . S
C6439 H6455 0.961 . S
C6440 C6441 1.370 . S
C6440 C6442 1.363 . S
C6440 H6456 0.931 . S
C6441 C6440 1.370 . S
C6441 C6445 1.408 . S
C6442 C6440 1.363 . S
C6442 C6443 1.370 . S
C6442 C6446 1.524 . S
C6443 C6435 1.503 . S
C6443 C6442 1.370 . S
C6443 C6444 1.403 . S
C6444 C6443 1.403 . S
C6444 C6445 1.404 . S
C6444 C6447 1.539 . S
C6445 C6441 1.408 . S
C6445 C6444 1.404 . S
C6445 H6457 0.930 . S
C6446 C6442 1.524 . S
C6446 H6458 0.956 . S
C6446 H6459 0.961 . S
C6446 H6460 0.961 . S
C6447 C6444 1.539 . S
C6447 H6461 0.958 . S
C6447 H6462 0.961 . S
C6447 H6463 0.960 . S
H6448 C6432 0.931 . S
H6449 C6437 0.929 . S
H6450 C6438 0.960 . S
H6451 C6438 0.962 . S
H6452 C6438 0.960 . S
H6453 C6439 0.961 . S
H6454 C6439 0.961 . S
H6455 C6439 0.961 . S
H6456 C6440 0.931 . S
H6457 C6445 0.930 . S
H6458 C6446 0.956 . S
H6459 C6446 0.961 . S
H6460 C6446 0.961 . S
H6461 C6447 0.958 . S
H6462 C6447 0.961 . S
H6463 C6447 0.960 . S
C6464 C6465 1.391 . S
C6464 C6466 1.394 . S
C6464 H6480 0.931 . S
C6465 C6464 1.391 . S
C6465 C6469 1.376 . S
C6466 C6464 1.394 . S
C6466 C6467 1.369 . S
C6466 C6470 1.531 . S
C6467 C6466 1.369 . S
C6467 C6468 1.410 . S
C6467 C6475 1.503 . S
C6468 C6467 1.410 . S
C6468 C6469 1.392 . S
C6468 C6471 1.511 . S
C6469 C6465 1.376 . S
C6469 C6468 1.392 . S
C6469 H6481 0.929 . S
C6470 C6466 1.531 . S
C6470 H6482 0.960 . S
C6470 H6483 0.962 . S
C6470 H6484 0.960 . S
C6471 C6468 1.511 . S
C6471 H6485 0.961 . S
C6471 H6486 0.961 . S
C6471 H6487 0.961 . S
C6472 C6473 1.370 . S
C6472 C6474 1.363 . S
C6472 H6488 0.931 . S
C6473 C6472 1.370 . S
C6473 C6477 1.408 . S
C6474 C6472 1.363 . S
C6474 C6475 1.370 . S
C6474 C6478 1.524 . S
C6475 C6467 1.503 . S
C6475 C6474 1.370 . S
C6475 C6476 1.403 . S
C6476 C6475 1.403 . S
C6476 C6477 1.404 . S
C6476 C6479 1.539 . S
C6477 C6473 1.408 . S
C6477 C6476 1.404 . S
C6477 H6489 0.930 . S
C6478 C6474 1.524 . S
C6478 H6490 0.956 . S
C6478 H6491 0.961 . S
C6478 H6492 0.961 . S
C6479 C6476 1.539 . S
C6479 H6493 0.958 . S
C6479 H6494 0.961 . S
C6479 H6495 0.960 . S
H6480 C6464 0.931 . S
H6481 C6469 0.929 . S
H6482 C6470 0.960 . S
H6483 C6470 0.962 . S
H6484 C6470 0.960 . S
H6485 C6471 0.961 . S
H6486 C6471 0.961 . S
H6487 C6471 0.961 . S
H6488 C6472 0.931 . S
H6489 C6477 0.930 . S
H6490 C6478 0.956 . S
H6491 C6478 0.961 . S
H6492 C6478 0.961 . S
H6493 C6479 0.958 . S
H6494 C6479 0.961 . S
H6495 C6479 0.960 . S
C6496 C6497 1.391 . S
C6496 C6498 1.394 . S
C6496 H6512 0.931 . S
C6497 C6496 1.391 . S
C6497 C6501 1.376 . S
C6498 C6496 1.394 . S
C6498 C6499 1.369 . S
C6498 C6502 1.531 . S
C6499 C6498 1.369 . S
C6499 C6500 1.410 . S
C6499 C6507 1.503 . S
C6500 C6499 1.410 . S
C6500 C6501 1.392 . S
C6500 C6503 1.511 . S
C6501 C6497 1.376 . S
C6501 C6500 1.392 . S
C6501 H6513 0.929 . S
C6502 C6498 1.531 . S
C6502 H6514 0.960 . S
C6502 H6515 0.962 . S
C6502 H6516 0.960 . S
C6503 C6500 1.511 . S
C6503 H6517 0.961 . S
C6503 H6518 0.961 . S
C6503 H6519 0.961 . S
C6504 C6505 1.370 . S
C6504 C6506 1.363 . S
C6504 H6520 0.931 . S
C6505 C6504 1.370 . S
C6505 C6509 1.408 . S
C6506 C6504 1.363 . S
C6506 C6507 1.370 . S
C6506 C6510 1.524 . S
C6507 C6499 1.503 . S
C6507 C6506 1.370 . S
C6507 C6508 1.403 . S
C6508 C6507 1.403 . S
C6508 C6509 1.404 . S
C6508 C6511 1.539 . S
C6509 C6505 1.408 . S
C6509 C6508 1.404 . S
C6509 H6521 0.930 . S
C6510 C6506 1.524 . S
C6510 H6522 0.956 . S
C6510 H6523 0.961 . S
C6510 H6524 0.961 . S
C6511 C6508 1.539 . S
C6511 H6525 0.958 . S
C6511 H6526 0.961 . S
C6511 H6527 0.960 . S
H6512 C6496 0.931 . S
H6513 C6501 0.929 . S
H6514 C6502 0.960 . S
H6515 C6502 0.962 . S
H6516 C6502 0.960 . S
H6517 C6503 0.961 . S
H6518 C6503 0.961 . S
H6519 C6503 0.961 . S
H6520 C6504 0.931 . S
H6521 C6509 0.930 . S
H6522 C6510 0.956 . S
H6523 C6510 0.961 . S
H6524 C6510 0.961 . S
H6525 C6511 0.958 . S
H6526 C6511 0.961 . S
H6527 C6511 0.960 . S
C6528 C6529 1.391 . S
C6528 C6530 1.394 . S
C6528 H6544 0.931 . S
C6529 C6528 1.391 . S
C6529 C6533 1.376 . S
C6530 C6528 1.394 . S
C6530 C6531 1.369 . S
C6530 C6534 1.531 . S
C6531 C6530 1.369 . S
C6531 C6532 1.410 . S
C6531 C6539 1.503 . S
C6532 C6531 1.410 . S
C6532 C6533 1.392 . S
C6532 C6535 1.511 . S
C6533 C6529 1.376 . S
C6533 C6532 1.392 . S
C6533 H6545 0.929 . S
C6534 C6530 1.531 . S
C6534 H6546 0.960 . S
C6534 H6547 0.962 . S
C6534 H6548 0.960 . S
C6535 C6532 1.511 . S
C6535 H6549 0.961 . S
C6535 H6550 0.961 . S
C6535 H6551 0.961 . S
C6536 C6537 1.370 . S
C6536 C6538 1.363 . S
C6536 H6552 0.931 . S
C6537 C6536 1.370 . S
C6537 C6541 1.408 . S
C6538 C6536 1.363 . S
C6538 C6539 1.370 . S
C6538 C6542 1.524 . S
C6539 C6531 1.503 . S
C6539 C6538 1.370 . S
C6539 C6540 1.403 . S
C6540 C6539 1.403 . S
C6540 C6541 1.404 . S
C6540 C6543 1.539 . S
C6541 C6537 1.408 . S
C6541 C6540 1.404 . S
C6541 H6553 0.930 . S
C6542 C6538 1.524 . S
C6542 H6554 0.956 . S
C6542 H6555 0.961 . S
C6542 H6556 0.961 . S
C6543 C6540 1.539 . S
C6543 H6557 0.958 . S
C6543 H6558 0.961 . S
C6543 H6559 0.960 . S
H6544 C6528 0.931 . S
H6545 C6533 0.929 . S
H6546 C6534 0.960 . S
H6547 C6534 0.962 . S
H6548 C6534 0.960 . S
H6549 C6535 0.961 . S
H6550 C6535 0.961 . S
H6551 C6535 0.961 . S
H6552 C6536 0.931 . S
H6553 C6541 0.930 . S
H6554 C6542 0.956 . S
H6555 C6542 0.961 . S
H6556 C6542 0.961 . S
H6557 C6543 0.958 . S
H6558 C6543 0.961 . S
H6559 C6543 0.960 . S
C6560 C6561 1.391 . S
C6560 C6562 1.394 . S
C6560 H6576 0.931 . S
C6561 C6560 1.391 . S
C6561 C6565 1.376 . S
C6562 C6560 1.394 . S
C6562 C6563 1.369 . S
C6562 C6566 1.531 . S
C6563 C6562 1.369 . S
C6563 C6564 1.410 . S
C6563 C6571 1.503 . S
C6564 C6563 1.410 . S
C6564 C6565 1.392 . S
C6564 C6567 1.511 . S
C6565 C6561 1.376 . S
C6565 C6564 1.392 . S
C6565 H6577 0.929 . S
C6566 C6562 1.531 . S
C6566 H6578 0.960 . S
C6566 H6579 0.962 . S
C6566 H6580 0.960 . S
C6567 C6564 1.511 . S
C6567 H6581 0.961 . S
C6567 H6582 0.961 . S
C6567 H6583 0.961 . S
C6568 C6569 1.370 . S
C6568 C6570 1.363 . S
C6568 H6584 0.931 . S
C6569 C6568 1.370 . S
C6569 C6573 1.408 . S
C6570 C6568 1.363 . S
C6570 C6571 1.370 . S
C6570 C6574 1.524 . S
C6571 C6563 1.503 . S
C6571 C6570 1.370 . S
C6571 C6572 1.403 . S
C6572 C6571 1.403 . S
C6572 C6573 1.404 . S
C6572 C6575 1.539 . S
C6573 C6569 1.408 . S
C6573 C6572 1.404 . S
C6573 H6585 0.930 . S
C6574 C6570 1.524 . S
C6574 H6586 0.956 . S
C6574 H6587 0.961 . S
C6574 H6588 0.961 . S
C6575 C6572 1.539 . S
C6575 H6589 0.958 . S
C6575 H6590 0.961 . S
C6575 H6591 0.960 . S
H6576 C6560 0.931 . S
H6577 C6565 0.929 . S
H6578 C6566 0.960 . S
H6579 C6566 0.962 . S
H6580 C6566 0.960 . S
H6581 C6567 0.961 . S
H6582 C6567 0.961 . S
H6583 C6567 0.961 . S
H6584 C6568 0.931 . S
H6585 C6573 0.930 . S
H6586 C6574 0.956 . S
H6587 C6574 0.961 . S
H6588 C6574 0.961 . S
H6589 C6575 0.958 . S
H6590 C6575 0.961 . S
H6591 C6575 0.960 . S
C6592 C6593 1.391 . S
C6592 C6594 1.394 . S
C6592 H6608 0.931 . S
C6593 C6592 1.391 . S
C6593 C6597 1.376 . S
C6594 C6592 1.394 . S
C6594 C6595 1.369 . S
C6594 C6598 1.531 . S
C6595 C6594 1.369 . S
C6595 C6596 1.410 . S
C6595 C6603 1.503 . S
C6596 C6595 1.410 . S
C6596 C6597 1.392 . S
C6596 C6599 1.511 . S
C6597 C6593 1.376 . S
C6597 C6596 1.392 . S
C6597 H6609 0.929 . S
C6598 C6594 1.531 . S
C6598 H6610 0.960 . S
C6598 H6611 0.962 . S
C6598 H6612 0.960 . S
C6599 C6596 1.511 . S
C6599 H6613 0.961 . S
C6599 H6614 0.961 . S
C6599 H6615 0.961 . S
C6600 C6601 1.370 . S
C6600 C6602 1.363 . S
C6600 H6616 0.931 . S
C6601 C6600 1.370 . S
C6601 C6605 1.408 . S
C6602 C6600 1.363 . S
C6602 C6603 1.370 . S
C6602 C6606 1.524 . S
C6603 C6595 1.503 . S
C6603 C6602 1.370 . S
C6603 C6604 1.403 . S
C6604 C6603 1.403 . S
C6604 C6605 1.404 . S
C6604 C6607 1.539 . S
C6605 C6601 1.408 . S
C6605 C6604 1.404 . S
C6605 H6617 0.930 . S
C6606 C6602 1.524 . S
C6606 H6618 0.956 . S
C6606 H6619 0.961 . S
C6606 H6620 0.961 . S
C6607 C6604 1.539 . S
C6607 H6621 0.958 . S
C6607 H6622 0.961 . S
C6607 H6623 0.960 . S
H6608 C6592 0.931 . S
H6609 C6597 0.929 . S
H6610 C6598 0.960 . S
H6611 C6598 0.962 . S
H6612 C6598 0.960 . S
H6613 C6599 0.961 . S
H6614 C6599 0.961 . S
H6615 C6599 0.961 . S
H6616 C6600 0.931 . S
H6617 C6605 0.930 . S
H6618 C6606 0.956 . S
H6619 C6606 0.961 . S
H6620 C6606 0.961 . S
H6621 C6607 0.958 . S
H6622 C6607 0.961 . S
H6623 C6607 0.960 . S
C6624 C6625 1.391 . S
C6624 C6626 1.394 . S
C6624 H6640 0.931 . S
C6625 C6624 1.391 . S
C6625 C6629 1.376 . S
C6626 C6624 1.394 . S
C6626 C6627 1.369 . S
C6626 C6630 1.531 . S
C6627 C6626 1.369 . S
C6627 C6628 1.410 . S
C6627 C6635 1.503 . S
C6628 C6627 1.410 . S
C6628 C6629 1.392 . S
C6628 C6631 1.511 . S
C6629 C6625 1.376 . S
C6629 C6628 1.392 . S
C6629 H6641 0.929 . S
C6630 C6626 1.531 . S
C6630 H6642 0.960 . S
C6630 H6643 0.962 . S
C6630 H6644 0.960 . S
C6631 C6628 1.511 . S
C6631 H6645 0.961 . S
C6631 H6646 0.961 . S
C6631 H6647 0.961 . S
C6632 C6633 1.370 . S
C6632 C6634 1.363 . S
C6632 H6648 0.931 . S
C6633 C6632 1.370 . S
C6633 C6637 1.408 . S
C6634 C6632 1.363 . S
C6634 C6635 1.370 . S
C6634 C6638 1.524 . S
C6635 C6627 1.503 . S
C6635 C6634 1.370 . S
C6635 C6636 1.403 . S
C6636 C6635 1.403 . S
C6636 C6637 1.404 . S
C6636 C6639 1.539 . S
C6637 C6633 1.408 . S
C6637 C6636 1.404 . S
C6637 H6649 0.930 . S
C6638 C6634 1.524 . S
C6638 H6650 0.956 . S
C6638 H6651 0.961 . S
C6638 H6652 0.961 . S
C6639 C6636 1.539 . S
C6639 H6653 0.958 . S
C6639 H6654 0.961 . S
C6639 H6655 0.960 . S
H6640 C6624 0.931 . S
H6641 C6629 0.929 . S
H6642 C6630 0.960 . S
H6643 C6630 0.962 . S
H6644 C6630 0.960 . S
H6645 C6631 0.961 . S
H6646 C6631 0.961 . S
H6647 C6631 0.961 . S
H6648 C6632 0.931 . S
H6649 C6637 0.930 . S
H6650 C6638 0.956 . S
H6651 C6638 0.961 . S
H6652 C6638 0.961 . S
H6653 C6639 0.958 . S
H6654 C6639 0.961 . S
H6655 C6639 0.960 . S
C6656 C6657 1.391 . S
C6656 C6658 1.394 . S
C6656 H6672 0.931 . S
C6657 C6656 1.391 . S
C6657 C6661 1.376 . S
C6658 C6656 1.394 . S
C6658 C6659 1.369 . S
C6658 C6662 1.531 . S
C6659 C6658 1.369 . S
C6659 C6660 1.410 . S
C6659 C6667 1.503 . S
C6660 C6659 1.410 . S
C6660 C6661 1.392 . S
C6660 C6663 1.511 . S
C6661 C6657 1.376 . S
C6661 C6660 1.392 . S
C6661 H6673 0.929 . S
C6662 C6658 1.531 . S
C6662 H6674 0.960 . S
C6662 H6675 0.962 . S
C6662 H6676 0.960 . S
C6663 C6660 1.511 . S
C6663 H6677 0.961 . S
C6663 H6678 0.961 . S
C6663 H6679 0.961 . S
C6664 C6665 1.370 . S
C6664 C6666 1.363 . S
C6664 H6680 0.931 . S
C6665 C6664 1.370 . S
C6665 C6669 1.408 . S
C6666 C6664 1.363 . S
C6666 C6667 1.370 . S
C6666 C6670 1.524 . S
C6667 C6659 1.503 . S
C6667 C6666 1.370 . S
C6667 C6668 1.403 . S
C6668 C6667 1.403 . S
C6668 C6669 1.404 . S
C6668 C6671 1.539 . S
C6669 C6665 1.408 . S
C6669 C6668 1.404 . S
C6669 H6681 0.930 . S
C6670 C6666 1.524 . S
C6670 H6682 0.956 . S
C6670 H6683 0.961 . S
C6670 H6684 0.961 . S
C6671 C6668 1.539 . S
C6671 H6685 0.958 . S
C6671 H6686 0.961 . S
C6671 H6687 0.960 . S
H6672 C6656 0.931 . S
H6673 C6661 0.929 . S
H6674 C6662 0.960 . S
H6675 C6662 0.962 . S
H6676 C6662 0.960 . S
H6677 C6663 0.961 . S
H6678 C6663 0.961 . S
H6679 C6663 0.961 . S
H6680 C6664 0.931 . S
H6681 C6669 0.930 . S
H6682 C6670 0.956 . S
H6683 C6670 0.961 . S
H6684 C6670 0.961 . S
H6685 C6671 0.958 . S
H6686 C6671 0.961 . S
H6687 C6671 0.960 . S
C6688 C6689 1.391 . S
C6688 C6690 1.394 . S
C6688 H6704 0.931 . S
C6689 C6688 1.391 . S
C6689 C6693 1.376 . S
C6690 C6688 1.394 . S
C6690 C6691 1.369 . S
C6690 C6694 1.531 . S
C6691 C6690 1.369 . S
C6691 C6692 1.410 . S
C6691 C6699 1.503 . S
C6692 C6691 1.410 . S
C6692 C6693 1.392 . S
C6692 C6695 1.511 . S
C6693 C6689 1.376 . S
C6693 C6692 1.392 . S
C6693 H6705 0.929 . S
C6694 C6690 1.531 . S
C6694 H6706 0.960 . S
C6694 H6707 0.962 . S
C6694 H6708 0.960 . S
C6695 C6692 1.511 . S
C6695 H6709 0.961 . S
C6695 H6710 0.961 . S
C6695 H6711 0.961 . S
C6696 C6697 1.370 . S
C6696 C6698 1.363 . S
C6696 H6712 0.931 . S
C6697 C6696 1.370 . S
C6697 C6701 1.408 . S
C6698 C6696 1.363 . S
C6698 C6699 1.370 . S
C6698 C6702 1.524 . S
C6699 C6691 1.503 . S
C6699 C6698 1.370 . S
C6699 C6700 1.403 . S
C6700 C6699 1.403 . S
C6700 C6701 1.404 . S
C6700 C6703 1.539 . S
C6701 C6697 1.408 . S
C6701 C6700 1.404 . S
C6701 H6713 0.930 . S
C6702 C6698 1.524 . S
C6702 H6714 0.956 . S
C6702 H6715 0.961 . S
C6702 H6716 0.961 . S
C6703 C6700 1.539 . S
C6703 H6717 0.958 . S
C6703 H6718 0.961 . S
C6703 H6719 0.960 . S
H6704 C6688 0.931 . S
H6705 C6693 0.929 . S
H6706 C6694 0.960 . S
H6707 C6694 0.962 . S
H6708 C6694 0.960 . S
H6709 C6695 0.961 . S
H6710 C6695 0.961 . S
H6711 C6695 0.961 . S
H6712 C6696 0.931 . S
H6713 C6701 0.930 . S
H6714 C6702 0.956 . S
H6715 C6702 0.961 . S
H6716 C6702 0.961 . S
H6717 C6703 0.958 . S
H6718 C6703 0.961 . S
H6719 C6703 0.960 . S
C6720 C6721 1.391 . S
C6720 C6722 1.394 . S
C6720 H6736 0.931 . S
C6721 C6720 1.391 . S
C6721 C6725 1.376 . S
C6722 C6720 1.394 . S
C6722 C6723 1.369 . S
C6722 C6726 1.531 . S
C6723 C6722 1.369 . S
C6723 C6724 1.410 . S
C6723 C6731 1.503 . S
C6724 C6723 1.410 . S
C6724 C6725 1.392 . S
C6724 C6727 1.511 . S
C6725 C6721 1.376 . S
C6725 C6724 1.392 . S
C6725 H6737 0.929 . S
C6726 C6722 1.531 . S
C6726 H6738 0.960 . S
C6726 H6739 0.962 . S
C6726 H6740 0.960 . S
C6727 C6724 1.511 . S
C6727 H6741 0.961 . S
C6727 H6742 0.961 . S
C6727 H6743 0.961 . S
C6728 C6729 1.370 . S
C6728 C6730 1.363 . S
C6728 H6744 0.931 . S
C6729 C6728 1.370 . S
C6729 C6733 1.408 . S
C6730 C6728 1.363 . S
C6730 C6731 1.370 . S
C6730 C6734 1.524 . S
C6731 C6723 1.503 . S
C6731 C6730 1.370 . S
C6731 C6732 1.403 . S
C6732 C6731 1.403 . S
C6732 C6733 1.404 . S
C6732 C6735 1.539 . S
C6733 C6729 1.408 . S
C6733 C6732 1.404 . S
C6733 H6745 0.930 . S
C6734 C6730 1.524 . S
C6734 H6746 0.956 . S
C6734 H6747 0.961 . S
C6734 H6748 0.961 . S
C6735 C6732 1.539 . S
C6735 H6749 0.958 . S
C6735 H6750 0.961 . S
C6735 H6751 0.960 . S
H6736 C6720 0.931 . S
H6737 C6725 0.929 . S
H6738 C6726 0.960 . S
H6739 C6726 0.962 . S
H6740 C6726 0.960 . S
H6741 C6727 0.961 . S
H6742 C6727 0.961 . S
H6743 C6727 0.961 . S
H6744 C6728 0.931 . S
H6745 C6733 0.930 . S
H6746 C6734 0.956 . S
H6747 C6734 0.961 . S
H6748 C6734 0.961 . S
H6749 C6735 0.958 . S
H6750 C6735 0.961 . S
H6751 C6735 0.960 . S
C6752 C6753 1.391 . S
C6752 C6754 1.394 . S
C6752 H6768 0.931 . S
C6753 C6752 1.391 . S
C6753 C6757 1.376 . S
C6754 C6752 1.394 . S
C6754 C6755 1.369 . S
C6754 C6758 1.531 . S
C6755 C6754 1.369 . S
C6755 C6756 1.410 . S
C6755 C6763 1.503 . S
C6756 C6755 1.410 . S
C6756 C6757 1.392 . S
C6756 C6759 1.511 . S
C6757 C6753 1.376 . S
C6757 C6756 1.392 . S
C6757 H6769 0.929 . S
C6758 C6754 1.531 . S
C6758 H6770 0.960 . S
C6758 H6771 0.962 . S
C6758 H6772 0.960 . S
C6759 C6756 1.511 . S
C6759 H6773 0.961 . S
C6759 H6774 0.961 . S
C6759 H6775 0.961 . S
C6760 C6761 1.370 . S
C6760 C6762 1.363 . S
C6760 H6776 0.931 . S
C6761 C6760 1.370 . S
C6761 C6765 1.408 . S
C6762 C6760 1.363 . S
C6762 C6763 1.370 . S
C6762 C6766 1.524 . S
C6763 C6755 1.503 . S
C6763 C6762 1.370 . S
C6763 C6764 1.403 . S
C6764 C6763 1.403 . S
C6764 C6765 1.404 . S
C6764 C6767 1.539 . S
C6765 C6761 1.408 . S
C6765 C6764 1.404 . S
C6765 H6777 0.930 . S
C6766 C6762 1.524 . S
C6766 H6778 0.956 . S
C6766 H6779 0.961 . S
C6766 H6780 0.961 . S
C6767 C6764 1.539 . S
C6767 H6781 0.958 . S
C6767 H6782 0.961 . S
C6767 H6783 0.960 . S
H6768 C6752 0.931 . S
H6769 C6757 0.929 . S
H6770 C6758 0.960 . S
H6771 C6758 0.962 . S
H6772 C6758 0.960 . S
H6773 C6759 0.961 . S
H6774 C6759 0.961 . S
H6775 C6759 0.961 . S
H6776 C6760 0.931 . S
H6777 C6765 0.930 . S
H6778 C6766 0.956 . S
H6779 C6766 0.961 . S
H6780 C6766 0.961 . S
H6781 C6767 0.958 . S
H6782 C6767 0.961 . S
H6783 C6767 0.960 . S
C6784 C6785 1.391 . S
C6784 C6786 1.394 . S
C6784 H6800 0.931 . S
C6785 C6784 1.391 . S
C6785 C6789 1.376 . S
C6786 C6784 1.394 . S
C6786 C6787 1.369 . S
C6786 C6790 1.531 . S
C6787 C6786 1.369 . S
C6787 C6788 1.410 . S
C6787 C6795 1.503 . S
C6788 C6787 1.410 . S
C6788 C6789 1.392 . S
C6788 C6791 1.511 . S
C6789 C6785 1.376 . S
C6789 C6788 1.392 . S
C6789 H6801 0.929 . S
C6790 C6786 1.531 . S
C6790 H6802 0.960 . S
C6790 H6803 0.962 . S
C6790 H6804 0.960 . S
C6791 C6788 1.511 . S
C6791 H6805 0.961 . S
C6791 H6806 0.961 . S
C6791 H6807 0.961 . S
C6792 C6793 1.370 . S
C6792 C6794 1.363 . S
C6792 H6808 0.931 . S
C6793 C6792 1.370 . S
C6793 C6797 1.408 . S
C6794 C6792 1.363 . S
C6794 C6795 1.370 . S
C6794 C6798 1.524 . S
C6795 C6787 1.503 . S
C6795 C6794 1.370 . S
C6795 C6796 1.403 . S
C6796 C6795 1.403 . S
C6796 C6797 1.404 . S
C6796 C6799 1.539 . S
C6797 C6793 1.408 . S
C6797 C6796 1.404 . S
C6797 H6809 0.930 . S
C6798 C6794 1.524 . S
C6798 H6810 0.956 . S
C6798 H6811 0.961 . S
C6798 H6812 0.961 . S
C6799 C6796 1.539 . S
C6799 H6813 0.958 . S
C6799 H6814 0.961 . S
C6799 H6815 0.960 . S
H6800 C6784 0.931 . S
H6801 C6789 0.929 . S
H6802 C6790 0.960 . S
H6803 C6790 0.962 . S
H6804 C6790 0.960 . S
H6805 C6791 0.961 . S
H6806 C6791 0.961 . S
H6807 C6791 0.961 . S
H6808 C6792 0.931 . S
H6809 C6797 0.930 . S
H6810 C6798 0.956 . S
H6811 C6798 0.961 . S
H6812 C6798 0.961 . S
H6813 C6799 0.958 . S
H6814 C6799 0.961 . S
H6815 C6799 0.960 . S
C6816 C6817 1.391 . S
C6816 C6818 1.394 . S
C6816 H6832 0.931 . S
C6817 C6816 1.391 . S
C6817 C6821 1.376 . S
C6818 C6816 1.394 . S
C6818 C6819 1.369 . S
C6818 C6822 1.531 . S
C6819 C6818 1.369 . S
C6819 C6820 1.410 . S
C6819 C6827 1.503 . S
C6820 C6819 1.410 . S
C6820 C6821 1.392 . S
C6820 C6823 1.511 . S
C6821 C6817 1.376 . S
C6821 C6820 1.392 . S
C6821 H6833 0.929 . S
C6822 C6818 1.531 . S
C6822 H6834 0.960 . S
C6822 H6835 0.962 . S
C6822 H6836 0.960 . S
C6823 C6820 1.511 . S
C6823 H6837 0.961 . S
C6823 H6838 0.961 . S
C6823 H6839 0.961 . S
C6824 C6825 1.370 . S
C6824 C6826 1.363 . S
C6824 H6840 0.931 . S
C6825 C6824 1.370 . S
C6825 C6829 1.408 . S
C6826 C6824 1.363 . S
C6826 C6827 1.370 . S
C6826 C6830 1.524 . S
C6827 C6819 1.503 . S
C6827 C6826 1.370 . S
C6827 C6828 1.403 . S
C6828 C6827 1.403 . S
C6828 C6829 1.404 . S
C6828 C6831 1.539 . S
C6829 C6825 1.408 . S
C6829 C6828 1.404 . S
C6829 H6841 0.930 . S
C6830 C6826 1.524 . S
C6830 H6842 0.956 . S
C6830 H6843 0.961 . S
C6830 H6844 0.961 . S
C6831 C6828 1.539 . S
C6831 H6845 0.958 . S
C6831 H6846 0.961 . S
C6831 H6847 0.960 . S
H6832 C6816 0.931 . S
H6833 C6821 0.929 . S
H6834 C6822 0.960 . S
H6835 C6822 0.962 . S
H6836 C6822 0.960 . S
H6837 C6823 0.961 . S
H6838 C6823 0.961 . S
H6839 C6823 0.961 . S
H6840 C6824 0.931 . S
H6841 C6829 0.930 . S
H6842 C6830 0.956 . S
H6843 C6830 0.961 . S
H6844 C6830 0.961 . S
H6845 C6831 0.958 . S
H6846 C6831 0.961 . S
H6847 C6831 0.960 . S
C6848 C6849 1.391 . S
C6848 C6850 1.394 . S
C6848 H6864 0.931 . S
C6849 C6848 1.391 . S
C6849 C6853 1.376 . S
C6850 C6848 1.394 . S
C6850 C6851 1.369 . S
C6850 C6854 1.531 . S
C6851 C6850 1.369 . S
C6851 C6852 1.410 . S
C6851 C6859 1.503 . S
C6852 C6851 1.410 . S
C6852 C6853 1.392 . S
C6852 C6855 1.511 . S
C6853 C6849 1.376 . S
C6853 C6852 1.392 . S
C6853 H6865 0.929 . S
C6854 C6850 1.531 . S
C6854 H6866 0.960 . S
C6854 H6867 0.962 . S
C6854 H6868 0.960 . S
C6855 C6852 1.511 . S
C6855 H6869 0.961 . S
C6855 H6870 0.961 . S
C6855 H6871 0.961 . S
C6856 C6857 1.370 . S
C6856 C6858 1.363 . S
C6856 H6872 0.931 . S
C6857 C6856 1.370 . S
C6857 C6861 1.408 . S
C6858 C6856 1.363 . S
C6858 C6859 1.370 . S
C6858 C6862 1.524 . S
C6859 C6851 1.503 . S
C6859 C6858 1.370 . S
C6859 C6860 1.403 . S
C6860 C6859 1.403 . S
C6860 C6861 1.404 . S
C6860 C6863 1.539 . S
C6861 C6857 1.408 . S
C6861 C6860 1.404 . S
C6861 H6873 0.930 . S
C6862 C6858 1.524 . S
C6862 H6874 0.956 . S
C6862 H6875 0.961 . S
C6862 H6876 0.961 . S
C6863 C6860 1.539 . S
C6863 H6877 0.958 . S
C6863 H6878 0.961 . S
C6863 H6879 0.960 . S
H6864 C6848 0.931 . S
H6865 C6853 0.929 . S
H6866 C6854 0.960 . S
H6867 C6854 0.962 . S
H6868 C6854 0.960 . S
H6869 C6855 0.961 . S
H6870 C6855 0.961 . S
H6871 C6855 0.961 . S
H6872 C6856 0.931 . S
H6873 C6861 0.930 . S
H6874 C6862 0.956 . S
H6875 C6862 0.961 . S
H6876 C6862 0.961 . S
H6877 C6863 0.958 . S
H6878 C6863 0.961 . S
H6879 C6863 0.960 . S
C6880 C6881 1.391 . S
C6880 C6882 1.394 . S
C6880 H6896 0.931 . S
C6881 C6880 1.391 . S
C6881 C6885 1.376 . S
C6882 C6880 1.394 . S
C6882 C6883 1.369 . S
C6882 C6886 1.531 . S
C6883 C6882 1.369 . S
C6883 C6884 1.410 . S
C6883 C6891 1.503 . S
C6884 C6883 1.410 . S
C6884 C6885 1.392 . S
C6884 C6887 1.511 . S
C6885 C6881 1.376 . S
C6885 C6884 1.392 . S
C6885 H6897 0.929 . S
C6886 C6882 1.531 . S
C6886 H6898 0.960 . S
C6886 H6899 0.962 . S
C6886 H6900 0.960 . S
C6887 C6884 1.511 . S
C6887 H6901 0.961 . S
C6887 H6902 0.961 . S
C6887 H6903 0.961 . S
C6888 C6889 1.370 . S
C6888 C6890 1.363 . S
C6888 H6904 0.931 . S
C6889 C6888 1.370 . S
C6889 C6893 1.408 . S
C6890 C6888 1.363 . S
C6890 C6891 1.370 . S
C6890 C6894 1.524 . S
C6891 C6883 1.503 . S
C6891 C6890 1.370 . S
C6891 C6892 1.403 . S
C6892 C6891 1.403 . S
C6892 C6893 1.404 . S
C6892 C6895 1.539 . S
C6893 C6889 1.408 . S
C6893 C6892 1.404 . S
C6893 H6905 0.930 . S
C6894 C6890 1.524 . S
C6894 H6906 0.956 . S
C6894 H6907 0.961 . S
C6894 H6908 0.961 . S
C6895 C6892 1.539 . S
C6895 H6909 0.958 . S
C6895 H6910 0.961 . S
C6895 H6911 0.960 . S
H6896 C6880 0.931 . S
H6897 C6885 0.929 . S
H6898 C6886 0.960 . S
H6899 C6886 0.962 . S
H6900 C6886 0.960 . S
H6901 C6887 0.961 . S
H6902 C6887 0.961 . S
H6903 C6887 0.961 . S
H6904 C6888 0.931 . S
H6905 C6893 0.930 . S
H6906 C6894 0.956 . S
H6907 C6894 0.961 . S
H6908 C6894 0.961 . S
H6909 C6895 0.958 . S
H6910 C6895 0.961 . S
H6911 C6895 0.960 . S
C6912 C6913 1.391 . S
C6912 C6914 1.394 . S
C6912 H6928 0.931 . S
C6913 C6912 1.391 . S
C6913 C6917 1.376 . S
C6914 C6912 1.394 . S
C6914 C6915 1.369 . S
C6914 C6918 1.531 . S
C6915 C6914 1.369 . S
C6915 C6916 1.410 . S
C6915 C6923 1.503 . S
C6916 C6915 1.410 . S
C6916 C6917 1.392 . S
C6916 C6919 1.511 . S
C6917 C6913 1.376 . S
C6917 C6916 1.392 . S
C6917 H6929 0.929 . S
C6918 C6914 1.531 . S
C6918 H6930 0.960 . S
C6918 H6931 0.962 . S
C6918 H6932 0.960 . S
C6919 C6916 1.511 . S
C6919 H6933 0.961 . S
C6919 H6934 0.961 . S
C6919 H6935 0.961 . S
C6920 C6921 1.370 . S
C6920 C6922 1.363 . S
C6920 H6936 0.931 . S
C6921 C6920 1.370 . S
C6921 C6925 1.408 . S
C6922 C6920 1.363 . S
C6922 C6923 1.370 . S
C6922 C6926 1.524 . S
C6923 C6915 1.503 . S
C6923 C6922 1.370 . S
C6923 C6924 1.403 . S
C6924 C6923 1.403 . S
C6924 C6925 1.404 . S
C6924 C6927 1.539 . S
C6925 C6921 1.408 . S
C6925 C6924 1.404 . S
C6925 H6937 0.930 . S
C6926 C6922 1.524 . S
C6926 H6938 0.956 . S
C6926 H6939 0.961 . S
C6926 H6940 0.961 . S
C6927 C6924 1.539 . S
C6927 H6941 0.958 . S
C6927 H6942 0.961 . S
C6927 H6943 0.960 . S
H6928 C6912 0.931 . S
H6929 C6917 0.929 . S
H6930 C6918 0.960 . S
H6931 C6918 0.962 . S
H6932 C6918 0.960 . S
H6933 C6919 0.961 . S
H6934 C6919 0.961 . S
H6935 C6919 0.961 . S
H6936 C6920 0.931 . S
H6937 C6925 0.930 . S
H6938 C6926 0.956 . S
H6939 C6926 0.961 . S
H6940 C6926 0.961 . S
H6941 C6927 0.958 . S
H6942 C6927 0.961 . S
H6943 C6927 0.960 . S
C6944 C6945 1.391 . S
C6944 C6946 1.394 . S
C6944 H6960 0.931 . S
C6945 C6944 1.391 . S
C6945 C6949 1.376 . S
C6946 C6944 1.394 . S
C6946 C6947 1.369 . S
C6946 C6950 1.531 . S
C6947 C6946 1.369 . S
C6947 C6948 1.410 . S
C6947 C6955 1.503 . S
C6948 C6947 1.410 . S
C6948 C6949 1.392 . S
C6948 C6951 1.511 . S
C6949 C6945 1.376 . S
C6949 C6948 1.392 . S
C6949 H6961 0.929 . S
C6950 C6946 1.531 . S
C6950 H6962 0.960 . S
C6950 H6963 0.962 . S
C6950 H6964 0.960 . S
C6951 C6948 1.511 . S
C6951 H6965 0.961 . S
C6951 H6966 0.961 . S
C6951 H6967 0.961 . S
C6952 C6953 1.370 . S
C6952 C6954 1.363 . S
C6952 H6968 0.931 . S
C6953 C6952 1.370 . S
C6953 C6957 1.408 . S
C6954 C6952 1.363 . S
C6954 C6955 1.370 . S
C6954 C6958 1.524 . S
C6955 C6947 1.503 . S
C6955 C6954 1.370 . S
C6955 C6956 1.403 . S
C6956 C6955 1.403 . S
C6956 C6957 1.404 . S
C6956 C6959 1.539 . S
C6957 C6953 1.408 . S
C6957 C6956 1.404 . S
C6957 H6969 0.930 . S
C6958 C6954 1.524 . S
C6958 H6970 0.956 . S
C6958 H6971 0.961 . S
C6958 H6972 0.961 . S
C6959 C6956 1.539 . S
C6959 H6973 0.958 . S
C6959 H6974 0.961 . S
C6959 H6975 0.960 . S
H6960 C6944 0.931 . S
H6961 C6949 0.929 . S
H6962 C6950 0.960 . S
H6963 C6950 0.962 . S
H6964 C6950 0.960 . S
H6965 C6951 0.961 . S
H6966 C6951 0.961 . S
H6967 C6951 0.961 . S
H6968 C6952 0.931 . S
H6969 C6957 0.930 . S
H6970 C6958 0.956 . S
H6971 C6958 0.961 . S
H6972 C6958 0.961 . S
H6973 C6959 0.958 . S
H6974 C6959 0.961 . S
H6975 C6959 0.960 . S
C6976 C6977 1.391 . S
C6976 C6978 1.394 . S
C6976 H6992 0.931 . S
C6977 C6976 1.391 . S
C6977 C6981 1.376 . S
C6978 C6976 1.394 . S
C6978 C6979 1.369 . S
C6978 C6982 1.531 . S
C6979 C6978 1.369 . S
C6979 C6980 1.410 . S
C6979 C6987 1.503 . S
C6980 C6979 1.410 . S
C6980 C6981 1.392 . S
C6980 C6983 1.511 . S
C6981 C6977 1.376 . S
C6981 C6980 1.392 . S
C6981 H6993 0.929 . S
C6982 C6978 1.531 . S
C6982 H6994 0.960 . S
C6982 H6995 0.962 . S
C6982 H6996 0.960 . S
C6983 C6980 1.511 . S
C6983 H6997 0.961 . S
C6983 H6998 0.961 . S
C6983 H6999 0.961 . S
C6984 C6985 1.370 . S
C6984 C6986 1.363 . S
C6984 H7000 0.931 . S
C6985 C6984 1.370 . S
C6985 C6989 1.408 . S
C6986 C6984 1.363 . S
C6986 C6987 1.370 . S
C6986 C6990 1.524 . S
C6987 C6979 1.503 . S
C6987 C6986 1.370 . S
C6987 C6988 1.403 . S
C6988 C6987 1.403 . S
C6988 C6989 1.404 . S
C6988 C6991 1.539 . S
C6989 C6985 1.408 . S
C6989 C6988 1.404 . S
C6989 H7001 0.930 . S
C6990 C6986 1.524 . S
C6990 H7002 0.956 . S
C6990 H7003 0.961 . S
C6990 H7004 0.961 . S
C6991 C6988 1.539 . S
C6991 H7005 0.958 . S
C6991 H7006 0.961 . S
C6991 H7007 0.960 . S
H6992 C6976 0.931 . S
H6993 C6981 0.929 . S
H6994 C6982 0.960 . S
H6995 C6982 0.962 . S
H6996 C6982 0.960 . S
H6997 C6983 0.961 . S
H6998 C6983 0.961 . S
H6999 C6983 0.961 . S
H7000 C6984 0.931 . S
H7001 C6989 0.930 . S
H7002 C6990 0.956 . S
H7003 C6990 0.961 . S
H7004 C6990 0.961 . S
H7005 C6991 0.958 . S
H7006 C6991 0.961 . S
H7007 C6991 0.960 . S
C7008 C7009 1.391 . S
C7008 C7010 1.394 . S
C7008 H7024 0.931 . S
C7009 C7008 1.391 . S
C7009 C7013 1.376 . S
C7010 C7008 1.394 . S
C7010 C7011 1.369 . S
C7010 C7014 1.531 . S
C7011 C7010 1.369 . S
C7011 C7012 1.410 . S
C7011 C7019 1.503 . S
C7012 C7011 1.410 . S
C7012 C7013 1.392 . S
C7012 C7015 1.511 . S
C7013 C7009 1.376 . S
C7013 C7012 1.392 . S
C7013 H7025 0.929 . S
C7014 C7010 1.531 . S
C7014 H7026 0.960 . S
C7014 H7027 0.962 . S
C7014 H7028 0.960 . S
C7015 C7012 1.511 . S
C7015 H7029 0.961 . S
C7015 H7030 0.961 . S
C7015 H7031 0.961 . S
C7016 C7017 1.370 . S
C7016 C7018 1.363 . S
C7016 H7032 0.931 . S
C7017 C7016 1.370 . S
C7017 C7021 1.408 . S
C7018 C7016 1.363 . S
C7018 C7019 1.370 . S
C7018 C7022 1.524 . S
C7019 C7011 1.503 . S
C7019 C7018 1.370 . S
C7019 C7020 1.403 . S
C7020 C7019 1.403 . S
C7020 C7021 1.404 . S
C7020 C7023 1.539 . S
C7021 C7017 1.408 . S
C7021 C7020 1.404 . S
C7021 H7033 0.930 . S
C7022 C7018 1.524 . S
C7022 H7034 0.956 . S
C7022 H7035 0.961 . S
C7022 H7036 0.961 . S
C7023 C7020 1.539 . S
C7023 H7037 0.958 . S
C7023 H7038 0.961 . S
C7023 H7039 0.960 . S
H7024 C7008 0.931 . S
H7025 C7013 0.929 . S
H7026 C7014 0.960 . S
H7027 C7014 0.962 . S
H7028 C7014 0.960 . S
H7029 C7015 0.961 . S
H7030 C7015 0.961 . S
H7031 C7015 0.961 . S
H7032 C7016 0.931 . S
H7033 C7021 0.930 . S
H7034 C7022 0.956 . S
H7035 C7022 0.961 . S
H7036 C7022 0.961 . S
H7037 C7023 0.958 . S
H7038 C7023 0.961 . S
H7039 C7023 0.960 . S
C7040 C7041 1.391 . S
C7040 C7042 1.394 . S
C7040 H7056 0.931 . S
C7041 C7040 1.391 . S
C7041 C7045 1.376 . S
C7042 C7040 1.394 . S
C7042 C7043 1.369 . S
C7042 C7046 1.531 . S
C7043 C7042 1.369 . S
C7043 C7044 1.410 . S
C7043 C7051 1.503 . S
C7044 C7043 1.410 . S
C7044 C7045 1.392 . S
C7044 C7047 1.511 . S
C7045 C7041 1.376 . S
C7045 C7044 1.392 . S
C7045 H7057 0.929 . S
C7046 C7042 1.531 . S
C7046 H7058 0.960 . S
C7046 H7059 1.035 . S
C7046 H7060 0.960 . S
C7047 C7044 1.511 . S
C7047 H7061 0.961 . S
C7047 H7062 0.961 . S
C7047 H7063 0.961 . S
C7048 C7049 1.370 . S
C7048 C7050 1.363 . S
C7048 H7064 0.931 . S
C7049 C7048 1.370 . S
C7049 C7053 1.408 . S
C7050 C7048 1.363 . S
C7050 C7051 1.370 . S
C7050 C7054 1.524 . S
C7051 C7043 1.503 . S
C7051 C7050 1.370 . S
C7051 C7052 1.403 . S
C7052 C7051 1.403 . S
C7052 C7053 1.404 . S
C7052 C7055 1.539 . S
C7053 C7049 1.408 . S
C7053 C7052 1.404 . S
C7053 H7065 0.930 . S
C7054 C7050 1.524 . S
C7054 H7066 0.956 1_545 S
C7054 H7067 0.961 . S
C7054 H7068 0.983 . S
C7055 C7052 1.539 . S
C7055 H7069 0.958 . S
C7055 H7070 0.961 . S
C7055 H7071 0.960 . S
H7056 C7040 0.931 . S
H7057 C7045 0.929 . S
H7058 C7046 0.960 . S
H7059 C7046 1.035 . S
H7060 C7046 0.960 . S
H7061 C7047 0.961 . S
H7062 C7047 0.961 . S
H7063 C7047 0.961 . S
H7064 C7048 0.931 . S
H7065 C7053 0.930 . S
H7066 C7054 0.956 1_565 S
H7067 C7054 0.961 . S
H7068 C7054 0.983 . S
H7069 C7055 0.958 . S
H7070 C7055 0.961 . S
H7071 C7055 0.960 . S
C7072 C7073 1.391 . S
C7072 C7074 1.394 . S
C7072 H7088 0.931 . S
C7073 C7072 1.391 . S
C7073 C7077 1.376 . S
C7074 C7072 1.394 . S
C7074 C7075 1.369 . S
C7074 C7078 1.531 . S
C7075 C7074 1.369 . S
C7075 C7076 1.410 . S
C7075 C7083 1.503 . S
C7076 C7075 1.410 . S
C7076 C7077 1.392 . S
C7076 C7079 1.511 1_565 S
C7077 C7073 1.376 . S
C7077 C7076 1.392 . S
C7077 H7089 0.929 1_565 S
C7078 C7074 1.531 . S
C7078 H7090 0.960 . S
C7078 H7091 0.962 . S
C7078 H7092 0.960 . S
C7079 C7076 1.511 1_545 S
C7079 H7093 0.961 . S
C7079 H7094 0.961 . S
C7079 H7095 0.961 1_545 S
C7080 C7081 1.370 . S
C7080 C7082 1.363 . S
C7080 H7096 0.912 1_565 S
C7081 C7080 1.370 . S
C7081 C7085 1.408 . S
C7082 C7080 1.363 . S
C7082 C7083 1.370 . S
C7082 C7086 1.524 1_565 S
C7083 C7075 1.503 . S
C7083 C7082 1.370 . S
C7083 C7084 1.403 . S
C7084 C7083 1.403 . S
C7084 C7085 1.404 . S
C7084 C7087 1.539 . S
C7085 C7081 1.408 . S
C7085 C7084 1.404 . S
C7085 H7097 0.930 . S
C7086 C7082 1.524 1_545 S
C7086 H7098 0.981 . S
C7086 H7099 0.961 . S
C7086 H7100 0.961 . S
C7087 C7084 1.539 . S
C7087 H7101 0.958 . S
C7087 H7102 0.961 . S
C7087 H7103 0.960 . S
H7088 C7072 0.931 . S
H7089 C7077 0.929 1_545 S
H7090 C7078 0.960 . S
H7091 C7078 0.962 . S
H7092 C7078 0.960 . S
H7093 C7079 0.961 . S
H7094 C7079 0.961 . S
H7095 C7079 0.961 1_565 S
H7096 C7080 0.912 1_545 S
H7097 C7085 0.930 . S
H7098 C7086 0.981 . S
H7099 C7086 0.961 . S
H7100 C7086 0.961 . S
H7101 C7087 0.958 . S
H7102 C7087 0.961 . S
H7103 C7087 0.960 . S
C2497 C1781 1.728 . S
C2505 C1929 1.802 . S
C2529 C981 1.701 . S
C2537 C1941 1.653 . S
C2569 C1953 1.674 . S
C2561 C1861 1.602 . S
C2593 C1061 1.676 . S
C2601 C1965 1.641 . S
C2625 C1901 1.642 . S
C2633 C1977 1.622 . S
C2657 C941 1.682 . S
C2665 C1989 1.777 . S
C2689 C1821 1.584 . S
C2697 C2001 1.666 . S
C2721 C1021 1.678 . S
C2729 C2013 1.694 . S
C2753 C661 1.269 . S
C2761 C2025 1.253 . S
C2785 C1621 1.509 . S
C2793 C2037 1.511 . S
C2817 C741 1.794 . S
C2825 C2049 1.791 . S
C2849 C1581 1.764 . S
C2857 C2061 1.767 . S
C2881 C901 1.665 . S
C2889 C2073 1.661 . S
C2921 C2085 1.777 . S
C2913 C1661 1.722 . S
C2953 C2097 1.927 . S
C2945 C821 1.948 . S
C2977 C1141 1.546 . S
C2985 C2109 1.601 . S
C3017 C2121 1.757 . S
C3009 C781 1.736 . S
C3049 C2133 1.886 . S
C3041 C1701 1.894 . S
C3073 C861 1.588 . S
C3081 C2145 1.652 . S
C3105 C1181 1.739 . S
C3113 C2157 1.730 . S
C3145 C2169 1.390 . S
C3137 C1101 1.418 . S
C3169 C1421 1.343 . S
C3177 C2181 1.388 . S
C3209 C2193 1.611 . S
C3201 C381 1.631 . S
C3241 C2205 1.639 . S
C3233 C1501 1.612 . S
C3273 C2217 1.313 . S
C3265 C461 1.357 . S
C3305 C2229 1.554 . S
C3297 C1541 1.587 . S
C3329 C341 1.145 . S
C3337 C2241 1.167 . S
C3369 C2253 1.703 . S
C3361 C1461 1.720 . S
C3393 C421 1.652 . S
C3401 C2265 1.715 . S
C3433 C2277 1.568 . S
C3425 C61 1.602 . S
C3465 C2289 1.841 . S
C3457 C1261 1.753 . S
C3489 C141 1.555 . S
C3497 C2301 1.535 . S
C3529 C2313 1.518 . S
C3521 C1221 1.504 . S
C3561 C2325 1.473 . S
C3553 C301 1.514 . S
C3585 C1301 1.855 . S
C3593 C2337 1.838 . S
C3625 C2349 1.435 . S
C3617 C221 1.459 . S
C3657 C2361 1.570 . S
C3649 C541 1.583 . S
C3681 C181 1.680 . S
C3689 C2373 1.663 . S
C3721 C2385 1.439 . S
C3713 C1341 1.455 . S
C3745 C261 1.616 . S
C3753 C2397 1.618 . S
C3785 C2409 1.508 . S
C3777 C581 1.540 . S
C3809 C501 1.578 . S
C3817 C2421 1.550 . S
C3841 C701 1.469 . S
C3849 C2433 1.502 . S
C3881 C2445 1.806 . S
C3873 C621 1.786 . S
C3905 C1741 1.743 . S
C3913 C2457 1.702 . S
C3937 C101 1.632 . S
C3945 C2469 1.731 . S
C3977 C2481 1.506 . S
C3969 C21 1.504 . S
C4009 C2493 1.744 . S
C4001 C1381 1.774 . S
C4033 C1335 1.489 1_554 S
C4041 C1926 1.521 . S
C4065 C535 1.402 . S
C4073 C1938 1.405 . S
C4097 C1362 1.906 . S
C4105 C1948 1.832 . S
C4137 C1960 1.661 . S
C4129 C1295 1.631 . S
C4161 C575 1.314 . S
C4169 C1972 1.310 . S
C4193 C1215 1.355 . S
C4201 C1984 1.367 . S
C4233 C1996 1.543 . S
C4225 C495 1.545 . S
C4257 C1242 1.495 . S
C4265 C2010 1.572 . S
C4289 C1255 1.758 . S
C4297 C2022 1.717 . S
C4329 C2032 1.489 . S
C4321 C562 1.539 . S
C4353 C1202 1.455 . S
C4361 C2044 1.409 . S
C4393 C2056 1.611 . S
C4385 C482 1.658 . S
C4417 C522 1.241 . S
C4425 C2070 1.212 . S
C4449 C1375 1.700 . S
C4457 C2080 1.740 . S
C4489 C2092 1.787 . S
C4481 C1282 1.852 . S
C4521 C2106 1.666 . S
C4513 C1322 1.712 . S
C4545 C455 1.722 . S
C4553 C2058 1.758 . S
C4577 C1415 1.417 . S
C4585 C2118 1.452 . S
C4609 C1455 1.577 . S
C4617 C2130 1.588 . S
C4649 C2140 1.411 . S
C4641 C1482 1.437 . S
C4681 C2068 1.643 . S
C4673 C442 1.717 . S
C4705 C362 1.562 . S
C4713 C2034 1.550 . S
C4737 C1495 1.355 . S
C4745 C2154 1.314 . S
C4777 C2164 1.513 . S
C4769 C1402 1.558 . S
C4809 C2178 1.957 . S
C4801 C1695 1.981 . S
C4833 C1135 1.431 . S
C4841 C2190 1.454 . S
C4873 C2200 1.706 . S
C4865 C1722 1.709 . S
C4905 C2212 1.466 . S
C4897 C1655 1.480 . S
C4929 C1175 1.927 . S
C4937 C2226 1.890 . S
C4961 C1562 1.522 . S
C4969 C2236 1.491 . S
C4993 C1095 1.441 . S
C5001 C2248 1.366 . S
C5033 C2262 1.638 . S
C5025 C1615 1.597 . S
C5065 C2274 1.635 . S
C5057 C1602 1.666 . S
C5089 C1162 1.818 . S
C5097 C2284 1.840 . S
C5129 C2298 1.680 . S
C5121 C1575 1.717 . S
C5153 C1082 1.510 . S
C5161 C2308 1.467 . S
C5193 C2320 1.598 . S
C5185 C1122 1.593 . S
C5217 C1735 1.906 . S
C5225 C2334 1.878 . S
C5257 C2346 1.369 . S
C5249 C1642 1.331 . S
C5281 C1682 1.888 . S
C5289 C2356 1.904 . S
C5313 C1042 1.599 . S
C5321 C2310 1.605 . S
C5345 C1775 1.628 . S
C5353 C2368 1.665 . S
C5377 C1815 1.451 . S
C5385 C2380 1.451 . S
C5417 C2394 1.650 . S
C5409 C1842 1.662 . S
C5441 C1055 1.552 . S
C5449 C2322 1.453 . S
C5473 C975 1.601 . S
C5481 C2286 1.571 . S
C5513 C2404 1.802 . S
C5505 C1855 1.800 . S
C5537 C1762 1.815 . S
C5545 C2416 1.813 . S
C5577 C1986 1.532 . S
C5569 C215 1.505 . S
C5609 C1998 1.353 . S
C5601 C255 1.381 . S
C5641 C2008 1.743 . S
C5633 C282 1.817 . S
C5673 C1974 1.492 . S
C5665 C175 1.454 . S
C5705 C1962 1.414 . S
C5697 C135 1.408 . S
C5729 C15 1.375 . S
C5737 C1924 1.389 . S
C5761 C55 1.624 . S
C5769 C1936 1.649 . S
C5793 C82 1.574 . S
C5801 C1950 1.620 . S
C5825 C95 1.747 . S
C5833 C2166 1.698 . S
C5857 C122 1.391 . S
C5865 C2428 1.408 . S
C5889 C2 1.656 . S
C5897 C2152 1.591 . S
C5921 C42 1.764 . S
C5929 C2440 1.724 . S
C5953 C242 1.269 . S
C5961 C2454 1.246 . S
C5993 C2116 1.549 . S
C5985 C295 1.499 . S
C6017 C162 1.696 . S
C6025 C2128 1.632 . S
C6049 C202 1.665 . S
C6057 C2142 1.652 . S
C6089 C2442 1.609 . S
C6081 C1535 1.582 . S
C6113 C335 1.617 . S
C6121 C2082 1.643 . S
C6145 C375 1.630 . S
C6153 C2094 1.612 . S
C6177 C402 1.463 . S
C6185 C2104 1.479 . S
C6217 C2452 1.688 . S
C6209 C1522 1.764 . S
C6249 C2430 1.565 . S
C6241 C1442 1.607 . S
C6281 C2046 1.428 . S
C6273 C415 1.430 . S
C6305 C322 1.530 . S
C6313 C2020 1.471 . S
C6337 C815 1.999 . S
C6345 C2238 1.961 . S
C6369 C855 1.544 . S
C6377 C2250 1.575 . S
C6401 C882 1.811 1_556 S
C6409 C2260 1.813 . S
C6433 C775 1.543 . S
C6441 C2224 1.524 . S
C6473 C2214 1.819 . S
C6465 C735 1.838 . S
C6505 C2176 1.495 . S
C6497 C602 1.493 . S
C6537 C2188 1.390 . S
C6529 C655 1.415 . S
C6561 C695 1.620 . S
C6569 C2202 1.653 . S
C6601 C2418 1.616 . S
C6593 C682 1.584 . S
C6625 C722 1.707 . S
C6633 C2464 1.712 . S
C6657 C615 1.776 . S
C6665 C2406 1.705 . S
C6697 C2476 1.402 . S
C6689 C642 1.450 . S
C6721 C842 1.661 . S
C6729 C2488 1.696 . S
C6761 C2370 1.978 . S
C6753 C895 1.997 . S
C6785 C762 1.340 . S
C6793 C2382 1.322 . S
C6817 C802 1.868 . S
C6825 C2392 1.886 . S
C6849 C1895 1.555 . S
C6857 C2478 1.549 . S
C6889 C2332 1.795 . S
C6881 C935 1.797 . S
C6913 C962 1.506 . S
C6921 C2344 1.509 . S
C6945 C1002 1.647 . S
C6953 C2358 1.713 . S
C6977 C1882 1.512 . S
C6985 C2490 1.509 . S
C7009 C1802 1.408 . S
C7017 C2466 1.472 . S
C7049 C2296 1.711 . S
C7041 C1015 1.702 . S
C7081 C2272 1.881 . S
C7073 C922 1.930 . S
