# Generated by pormake.
# Topology ssa, (4,4)-cn, num edge types: 1
# Building blocks:
#     Node 0, Type 0, BuildingBlock: ESEHIV_clean_sbu_0, # of connection points: 4
#     Node 1, Type 0, BuildingBlock: ESEHIV_clean_sbu_0, # of connection points: 4
#     Node 2, Type 0, BuildingBlock: ESEHIV_clean_sbu_0, # of connection points: 4
#     Node 3, Type 0, BuildingBlock: ESEHIV_clean_sbu_0, # of connection points: 4
#     Node 4, Type 0, BuildingBlock: ESEHIV_clean_sbu_0, # of connection points: 4
#     Node 5, Type 0, BuildingBlock: ESEHIV_clean_sbu_0, # of connection points: 4
#     Node 6, Type 1, BuildingBlock: KUFVIS_clean_linker_0, # of connection points: 4
#     Node 7, Type 1, BuildingBlock: KUFVIS_clean_linker_0, # of connection points: 4
#     Node 8, Type 1, BuildingBlock: KUFVIS_clean_linker_0, # of connection points: 4
#     Node 9, Type 1, BuildingBlock: KUFVIS_clean_linker_0, # of connection points: 4
#     Node 10, Type 1, BuildingBlock: KUFVIS_clean_linker_0, # of connection points: 4
#     Node 11, Type 1, BuildingBlock: KUFVIS_clean_linker_0, # of connection points: 4
#     Edge 12, Type (0, 1), BuildingBlock: ZUJKAS_clean_linker_0, # of connection points: 2
#     Edge 13, Type (0, 1), BuildingBlock: ZUJKAS_clean_linker_0, # of connection points: 2
#     Edge 14, Type (0, 1), BuildingBlock: ZUJKAS_clean_linker_0, # of connection points: 2
#     Edge 15, Type (0, 1), BuildingBlock: ZUJKAS_clean_linker_0, # of connection points: 2
#     Edge 16, Type (0, 1), BuildingBlock: ZUJKAS_clean_linker_0, # of connection points: 2
#     Edge 17, Type (0, 1), BuildingBlock: ZUJKAS_clean_linker_0, # of connection points: 2
#     Edge 18, Type (0, 1), BuildingBlock: ZUJKAS_clean_linker_0, # of connection points: 2
#     Edge 19, Type (0, 1), BuildingBlock: ZUJKAS_clean_linker_0, # of connection points: 2
#     Edge 20, Type (0, 1), BuildingBlock: ZUJKAS_clean_linker_0, # of connection points: 2
#     Edge 21, Type (0, 1), BuildingBlock: ZUJKAS_clean_linker_0, # of connection points: 2
#     Edge 22, Type (0, 1), BuildingBlock: ZUJKAS_clean_linker_0, # of connection points: 2
#     Edge 23, Type (0, 1), BuildingBlock: ZUJKAS_clean_linker_0, # of connection points: 2
#     Edge 24, Type (0, 1), BuildingBlock: ZUJKAS_clean_linker_0, # of connection points: 2
#     Edge 25, Type (0, 1), BuildingBlock: ZUJKAS_clean_linker_0, # of connection points: 2
#     Edge 26, Type (0, 1), BuildingBlock: ZUJKAS_clean_linker_0, # of connection points: 2
#     Edge 27, Type (0, 1), BuildingBlock: ZUJKAS_clean_linker_0, # of connection points: 2
#     Edge 28, Type (0, 1), BuildingBlock: ZUJKAS_clean_linker_0, # of connection points: 2
#     Edge 29, Type (0, 1), BuildingBlock: ZUJKAS_clean_linker_0, # of connection points: 2
#     Edge 30, Type (0, 1), BuildingBlock: ZUJKAS_clean_linker_0, # of connection points: 2
#     Edge 31, Type (0, 1), BuildingBlock: ZUJKAS_clean_linker_0, # of connection points: 2
#     Edge 32, Type (0, 1), BuildingBlock: ZUJKAS_clean_linker_0, # of connection points: 2
#     Edge 33, Type (0, 1), BuildingBlock: ZUJKAS_clean_linker_0, # of connection points: 2
#     Edge 34, Type (0, 1), BuildingBlock: ZUJKAS_clean_linker_0, # of connection points: 2
#     Edge 35, Type (0, 1), BuildingBlock: ZUJKAS_clean_linker_0, # of connection points: 2
# Relax obj value: 0.005
# Max RMSD: 0.107
# Mean RMSD: 0.074
data_MOF--net-ssa--node1-ESEHIV_clean_sbu_0--node2-KUFVIS_clean_linker_0--edge1-ZUJKAS_clean_linker_0
_symmetry_space_group_name_H-M    P1
_symmetry_Int_Tables_number       1
_symmetry_cell_setting            triclinic
loop_
_symmetry_equiv_pos_as_xyz
'x, y, z'
_cell_length_a     67.724319
_cell_length_b     71.625302
_cell_length_c     39.288549
_cell_angle_alpha  88.101343
_cell_angle_beta   90.979831
_cell_angle_gamma 121.86484
loop_
_atom_site_label
_atom_site_type_symbol
_atom_site_fract_x
_atom_site_fract_y
_atom_site_fract_z
_atom_type_partial_charge
Cu0 Cu 1.02191 0.52215 0.02095 0.0
N1 N 1.0011 0.49326 0.03571 0.0
N2 N 0.97192 0.4582 0.03356 0.0
C3 C 0.98299 0.47811 0.01754 0.0
C4 C 0.98354 0.46094 0.06307 0.0
C5 C 1.00152 0.48268 0.0644 0.0
O6 O 1.00686 0.52778 0.98225 0.0
C7 C 0.05557 0.51032 0.00867 0.0
O8 O 0.03754 0.49022 0.00591 0.0
H9 H 0.97865 0.48148 0.99237 0.0
H10 H 1.01433 0.49012 0.08439 0.0
N11 N 0.02726 0.54103 0.05618 0.0
N12 N 0.04649 0.56969 0.09016 0.0
C13 C 0.04771 0.55949 0.06271 0.0
C14 C 1.0125 0.53934 0.08029 0.0
C15 C 0.02431 0.55706 0.10128 0.0
C16 C 1.00192 0.54269 0.98188 0.0
O17 O 1.01019 0.55722 0.00595 0.0
H18 H 0.06311 0.56534 0.04736 0.0
H19 H 0.99451 0.52609 0.08252 0.0
O20 O 0.05222 0.52612 0.01162 0.0
H21 H 0.97951 0.44815 0.08212 0.0
H22 H 1.01723 0.56011 0.1234 0.0
Cu23 Cu 0.53447 0.02123 0.50797 0.0
N24 N 0.54227 1.01175 0.46959 0.0
N25 N 0.54901 0.98992 0.43888 0.0
C26 C 0.54217 0.99291 0.4692 0.0
C27 C 0.5536 1.00766 0.41934 0.0
C28 C 0.54932 0.02107 0.43833 0.0
O29 O 0.50675 0.9948 0.52565 0.0
C30 C 0.58009 0.04866 0.52566 0.0
O31 O 0.58071 0.05339 0.49296 0.0
H32 H 0.5376 0.98186 0.49114 0.0
H33 H 0.55146 0.03659 0.43008 0.0
N34 N 0.52899 0.04388 0.49825 0.0
N35 N 0.52712 0.0736 0.50756 0.0
C36 C 0.53289 0.05938 0.52047 0.0
C37 C 0.52045 0.04835 0.4701 0.0
C38 C 0.51923 0.06666 0.4758 0.0
C39 C 0.48663 0.99217 0.52484 0.0
O40 O 0.48477 1.00934 0.51894 0.0
H41 H 0.53936 0.05984 0.54599 0.0
H42 H 0.51529 0.03886 0.44723 0.0
O43 O 0.56088 0.03365 0.53879 0.0
H44 H 0.55946 1.01067 0.39316 0.0
H45 H 0.51311 0.07429 0.45787 0.0
Cu46 Cu 0.53859 0.51271 0.03284 0.0
N47 N 0.53554 0.48528 0.0404 0.0
N48 N 0.53428 0.45447 0.02696 0.0
C49 C 0.53786 0.47405 0.01558 0.0
C50 C 0.52962 0.45347 0.06052 0.0
C51 C 0.53041 0.47246 0.06872 0.0
O52 O 0.56353 0.52797 -0.00024 0.0
C53 C 0.49167 0.49585 0.0373 0.0
O54 O 0.49479 0.48532 0.06274 0.0
H55 H 0.54221 0.48032 0.98961 0.0
H56 H 0.52694 0.47634 0.09341 0.0
N57 N 0.54683 0.53003 0.07129 0.0
N58 N 0.5536 0.55854 0.10216 0.0
C59 C 0.54804 0.54941 0.07126 0.0
C60 C 0.5519 0.52674 0.10336 0.0
C61 C 0.556 0.54429 0.12252 0.0
C62 C 0.58372 0.53399 0.01113 0.0
O63 O 0.58608 0.53101 0.04377 0.0
H64 H 0.54434 0.55639 0.04903 0.0
H65 H 0.55263 0.51268 0.11224 0.0
O66 O 0.50895 0.50861 0.01818 0.0
H67 H 0.52536 0.4398 0.07786 0.0
H68 H 0.56058 0.54646 0.14924 0.0
Cu69 Cu 1.02234 0.50684 0.50358 0.0
N70 N 0.02779 0.49386 0.46759 0.0
N71 N 0.04717 0.48464 0.43344 0.0
C72 C 0.04822 0.49572 0.46123 0.0
C73 C 0.02512 0.47545 0.42192 0.0
C74 C 1.01322 0.48122 0.44303 0.0
O75 O 0.0527 0.53302 0.51324 0.0
C76 C 1.00321 0.46598 0.54148 0.0
O77 O 1.01215 0.46047 0.51728 0.0
H78 H 0.06345 0.50484 0.47706 0.0
H79 H 0.99526 0.4766 0.44064 0.0
N80 N 1.00133 0.51494 0.48988 0.0
N81 N 0.97243 0.52126 0.49345 0.0
C82 C 0.98454 0.5135 0.50964 0.0
C83 C 0.99983 0.52378 0.45995 0.0
C84 C 0.98199 0.52769 0.46205 0.0
C85 C 0.05641 0.55239 0.51435 0.0
O86 O 0.0386 0.55496 0.51511 0.0
H87 H 0.98134 0.50681 0.53545 0.0
H88 H 1.01114 0.52742 0.43837 0.0
O89 O 1.00744 0.48558 0.54167 0.0
H90 H 1.01816 0.46557 0.39954 0.0
H91 H 0.97687 0.53516 0.44225 0.0
Cu92 Cu 0.51917 0.02221 0.04608 0.0
N93 N 0.51679 0.04541 0.06119 0.0
N94 N 0.51786 0.07716 0.05684 0.0
C95 C 0.52765 0.0659 0.04732 0.0
C96 C 0.5006 0.06339 0.07851 0.0
C97 C 0.50001 0.04384 0.08115 0.0
O98 O 0.53623 0.03187 0.00324 0.0
C99 C 0.48313 0.97712 0.03576 0.0
O100 O 0.49911 0.97552 0.01997 0.0
H101 H 0.54096 0.07169 0.028 0.0
H102 H 0.48704 0.02893 0.09437 0.0
N103 N 0.5371 0.01658 0.07615 0.0
N104 N 0.55043 0.99718 0.10222 0.0
C105 C 0.53196 0.99658 0.0876 0.0
C106 C 0.55954 0.03044 0.0843 0.0
C107 C 0.56784 0.01851 0.10041 0.0
C108 C 0.53243 0.04195 0.97921 0.0
O109 O 0.51293 0.04178 0.9792 0.0
H110 H 0.51554 0.98161 0.08302 0.0
H111 H 0.56955 0.04771 0.07698 0.0
O112 O 0.48801 0.99589 0.04547 0.0
H113 H 0.48827 0.06661 0.08981 0.0
H114 H 0.58556 0.02489 0.10868 0.0
Cu115 Cu 0.51417 0.49591 0.47975 0.0
N116 N 0.5303 0.51869 0.44787 0.0
N117 N 0.5438 0.55179 0.42315 0.0
C118 C 0.53607 0.53952 0.45221 0.0
C119 C 0.54315 0.53812 0.39964 0.0
C120 C 0.53479 0.51767 0.41501 0.0
O121 O 0.48264 0.49018 0.47988 0.0
C122 C 0.52847 0.49224 0.54732 0.0
O123 O 0.5089 0.47302 0.54908 0.0
H124 H 0.5331 0.54513 0.4757 0.0
H125 H 0.53106 0.50286 0.40271 0.0
N126 N 0.51258 0.47036 0.46621 0.0
N127 N 0.5137 0.43974 0.47208 0.0
C128 C 0.52274 0.46059 0.48202 0.0
C129 C 0.49704 0.45543 0.44468 0.0
C130 C 0.49766 0.43651 0.44825 0.0
C131 C 0.4771 0.5038 0.48859 0.0
O132 O 0.49233 0.52146 0.50483 0.0
H133 H 0.53505 0.4679 0.50261 0.0
H134 H 0.48487 0.45755 0.42943 0.0
O135 O 0.53196 0.5051 0.52188 0.0
H136 H 0.5475 0.54231 0.37297 0.0
H137 H 0.48619 0.42117 0.43581 0.0
H138 H 0.34474 0.50514 0.22271 0.0
H139 H 0.29439 0.51348 0.27346 0.0
H140 H 0.28805 0.50025 0.16567 0.0
H141 H 0.26807 0.51703 0.16522 0.0
H142 H 0.2038 0.49835 0.21366 0.0
H143 H 0.25554 0.49388 0.27087 0.0
C144 C 0.32918 0.50592 0.222 0.0
C145 C 0.31767 0.50309 0.19094 0.0
C146 C 0.32096 0.50965 0.25195 0.0
C147 C 0.30039 0.51011 0.25047 0.0
C148 C 0.28798 0.50668 0.21945 0.0
C149 C 0.29714 0.5034 0.18972 0.0
C150 C 0.26512 0.50558 0.21821 0.0
C151 C 0.2572 0.5108 0.18771 0.0
C152 C 0.23493 0.50777 0.18597 0.0
C153 C 0.22084 0.50034 0.21488 0.0
C154 C 0.22849 0.49589 0.24551 0.0
C155 C 0.25044 0.49832 0.24719 0.0
H156 H 0.71157 0.18357 0.76725 0.0
H157 H 0.75411 0.24125 0.82484 0.0
H158 H 0.77721 0.23423 0.72632 0.0
H159 H 0.79544 0.27166 0.72542 0.0
H160 H 0.84923 0.31908 0.78971 0.0
H161 H 0.79301 0.25981 0.83473 0.0
C162 C 0.72752 0.19948 0.76975 0.0
C163 C 0.74396 0.20766 0.74362 0.0
C164 C 0.73112 0.21141 0.79896 0.0
C165 C 0.75174 0.23204 0.80224 0.0
C166 C 0.76879 0.24083 0.77603 0.0
C167 C 0.76449 0.22833 0.74659 0.0
C168 C 0.79109 0.2627 0.77958 0.0
C169 C 0.80276 0.27642 0.75065 0.0
C170 C 0.82369 0.29682 0.7543 0.0
C171 C 0.83307 0.3034 0.78679 0.0
C172 C 0.822 0.2902 0.81563 0.0
C173 C 0.80106 0.26997 0.81211 0.0
H174 H 0.54427 0.70823 0.27428 0.0
H175 H 0.56165 0.76609 0.21538 0.0
H176 H 0.54799 0.76209 0.32406 0.0
H177 H 0.56715 0.79778 0.32054 0.0
H178 H 0.56533 0.84772 0.26048 0.0
H179 H 0.54862 0.78836 0.21317 0.0
C180 C 0.54682 0.72453 0.27279 0.0
C181 C 0.54599 0.73422 0.30247 0.0
C182 C 0.55207 0.73581 0.24148 0.0
C183 C 0.55665 0.75736 0.23974 0.0
C184 C 0.55475 0.76733 0.26923 0.0
C185 C 0.5496 0.75539 0.30076 0.0
C186 C 0.55795 0.78985 0.26701 0.0
C187 C 0.56406 0.80316 0.2961 0.0
C188 C 0.56662 0.82396 0.29378 0.0
C189 C 0.56363 0.83177 0.26236 0.0
C190 C 0.55751 0.8191 0.23351 0.0
C191 C 0.55434 0.79813 0.23574 0.0
H192 H 0.84679 0.53282 0.7312 0.0
H193 H 0.79385 0.52727 0.79659 0.0
H194 H 0.79071 0.53678 0.68749 0.0
H195 H 0.75188 0.51662 0.69796 0.0
H196 H 0.7099 0.53193 0.7568 0.0
H197 H 0.77578 0.5466 0.79637 0.0
C198 C 0.83081 0.53265 0.73441 0.0
C199 C 0.81966 0.53497 0.70578 0.0
C200 C 0.82172 0.53001 0.76709 0.0
C201 C 0.80096 0.52973 0.77122 0.0
C202 C 0.78914 0.53189 0.74258 0.0
C203 C 0.79886 0.53451 0.70986 0.0
C204 C 0.76695 0.53165 0.74663 0.0
C205 C 0.74971 0.52349 0.72071 0.0
C206 C 0.72917 0.5236 0.72448 0.0
C207 C 0.72582 0.53194 0.75391 0.0
C208 C 0.74245 0.54011 0.77979 0.0
C209 C 0.76291 0.53987 0.7763 0.0
H210 H 0.20665 0.70958 0.31146 0.0
H211 H 0.25522 0.76684 0.25314 0.0
H212 H 0.27115 0.75693 0.35731 0.0
H213 H 0.29054 0.79356 0.35672 0.0
H214 H 0.34439 0.84627 0.29645 0.0
H215 H 0.29362 0.78729 0.24778 0.0
C216 C 0.22332 0.72498 0.30962 0.0
C217 C 0.23807 0.7321 0.33778 0.0
C218 C 0.22971 0.73726 0.27909 0.0
C219 C 0.25116 0.75724 0.27668 0.0
C220 C 0.26658 0.76505 0.30482 0.0
C221 C 0.25979 0.75193 0.33537 0.0
C222 C 0.28898 0.78718 0.30263 0.0
C223 C 0.29877 0.79976 0.33213 0.0
C224 C 0.31877 0.82099 0.33004 0.0
C225 C 0.32889 0.82993 0.29818 0.0
C226 C 0.31968 0.81804 0.26849 0.0
C227 C 0.30016 0.79648 0.27087 0.0
H228 H 0.5182 0.3241 0.75953 0.0
H229 H 0.53125 0.27999 0.81685 0.0
H230 H 0.51689 0.27171 0.70846 0.0
H231 H 0.53365 0.25318 0.71033 0.0
H232 H 0.5291 0.19943 0.76811 0.0
H233 H 0.51838 0.24529 0.81857 0.0
C234 C 0.51947 0.30961 0.76052 0.0
C235 C 0.51775 0.29896 0.7304 0.0
C236 C 0.52378 0.30248 0.79175 0.0
C237 C 0.52691 0.28455 0.79266 0.0
C238 C 0.52423 0.27269 0.76289 0.0
C239 C 0.51959 0.2803 0.73181 0.0
C240 C 0.5259 0.25242 0.76428 0.0
C241 C 0.53035 0.24445 0.73455 0.0
C242 C 0.53117 0.22521 0.73574 0.0
C243 C 0.52825 0.21414 0.76702 0.0
C244 C 0.52416 0.22166 0.79691 0.0
C245 C 0.52268 0.24051 0.79538 0.0
H246 H 0.09605 0.54882 0.02406 0.0
H247 H 0.13289 0.55324 0.04289 0.0
H248 H 0.10484 0.48427 0.02808 0.0
H249 H 0.06822 0.4798 0.00865 0.0
H250 H 0.13783 0.53342 0.09885 0.0
H251 H 0.16879 0.5104 0.98795 0.0
H252 H 0.14632 0.51676 0.98447 0.0
H253 H 0.13936 0.48981 -0.00111 0.0
C254 C 0.0979 0.53469 0.02395 0.0
C255 C 0.07909 0.51393 0.01479 0.0
C256 C 0.11899 0.53724 0.03485 0.0
C257 C 0.12183 0.51916 0.0366 0.0
C258 C 0.10338 0.49862 0.02624 0.0
H259 H 0.20183 0.47727 0.14516 0.0
H260 H 0.17765 0.48294 0.10418 0.0
C261 C 0.08231 0.49605 0.0153 0.0
C262 C 0.14295 0.52113 0.0527 0.0
H263 H 0.1848 0.5087 0.04248 0.0
C264 C 0.14838 0.52843 0.08626 0.0
C265 C 0.15671 0.51453 0.03639 0.0
C266 C 0.15265 0.50765 -0.00019 0.0
C267 C 0.16636 0.5283 0.10448 0.0
C268 C 0.17963 0.52102 0.08855 0.0
C269 C 0.17469 0.51434 0.05465 0.0
C270 C 0.19712 0.51835 0.1079 0.0
C271 C 0.17021 0.53488 0.14125 0.0
C272 C 0.21683 0.53645 0.12231 0.0
C273 C 0.2308 0.53322 0.14555 0.0
C274 C 0.22532 0.51185 0.15446 0.0
C275 C 0.20662 0.49391 0.13817 0.0
C276 C 0.19274 0.49714 0.11494 0.0
H277 H 0.15577 0.53613 0.15149 0.0
H278 H 0.17201 0.52283 0.15739 0.0
H279 H 0.18652 0.55116 0.1434 0.0
H280 H 0.22069 0.55298 0.11697 0.0
H281 H 0.24486 0.54724 0.15829 0.0
H282 H 0.58294 0.05148 0.59536 0.0
H283 H 0.61628 0.0787 0.62862 0.0
H284 H 0.65698 0.10505 0.53674 0.0
H285 H 0.62404 0.07793 0.50348 0.0
H286 H 0.68203 0.10201 0.59348 0.0
H287 H 0.6352 0.14402 0.623 0.0
H288 H 0.62003 0.11528 0.63484 0.0
H289 H 0.62542 0.12364 0.59065 0.0
C290 C 0.59912 0.06283 0.58236 0.0
C291 C 0.60077 0.0627 0.54677 0.0
C292 C 0.61808 0.07844 0.60133 0.0
C293 C 0.63894 0.0941 0.585 0.0
C294 C 0.64102 0.09319 0.54978 0.0
H295 H 0.73717 0.21792 0.67894 0.0
H296 H 0.71556 0.1914 0.63425 0.0
C297 C 0.62211 0.07769 0.53083 0.0
C298 C 0.65813 0.1123 0.6041 0.0
H299 H 0.67159 0.15721 0.64979 0.0
C300 C 0.67982 0.11414 0.60576 0.0
C301 C 0.65534 0.12838 0.6193 0.0
C302 C 0.63283 0.12795 0.61669 0.0
C303 C 0.6986 0.13129 0.62328 0.0
C304 C 0.6955 0.14684 0.63969 0.0
C305 C 0.67399 0.14531 0.63713 0.0
C306 C 0.71346 0.16379 0.66204 0.0
C307 C 0.7216 0.13264 0.62398 0.0
C308 C 0.72032 0.15726 0.69171 0.0
C309 C 0.73271 0.17238 0.71701 0.0
C310 C 0.73838 0.19424 0.7131 0.0
C311 C 0.7333 0.20124 0.68224 0.0
C312 C 0.7208 0.18606 0.65691 0.0
H313 H 0.72338 0.12429 0.60197 0.0
H314 H 0.73638 0.15 0.62374 0.0
H315 H 0.7227 0.12432 0.64761 0.0
H316 H 0.7145 0.14014 0.69658 0.0
H317 H 0.73622 0.16659 0.74083 0.0
H318 H 0.54462 0.56863 0.1636 0.0
H319 H 0.54689 0.60263 0.17839 0.0
H320 H 0.57028 0.62887 0.07662 0.0
H321 H 0.56767 0.59476 0.06158 0.0
H322 H 0.58275 0.6445 0.17922 0.0
H323 H 0.51694 0.63814 0.08636 0.0
H324 H 0.52119 0.61568 0.09569 0.0
H325 H 0.54073 0.63793 0.06736 0.0
C326 C 0.55035 0.58167 0.14443 0.0
C327 C 0.55578 0.5789 0.11134 0.0
C328 C 0.55157 0.60109 0.15286 0.0
C329 C 0.55833 0.6182 0.12844 0.0
C330 C 0.56437 0.6157 0.09563 0.0
H331 H 0.59049 0.74564 0.20485 0.0
H332 H 0.59414 0.71966 0.17011 0.0
C333 C 0.56293 0.5962 0.0871 0.0
C334 C 0.55926 0.63865 0.13765 0.0
H335 H 0.5366 0.67053 0.11814 0.0
C336 C 0.57277 0.65027 0.16574 0.0
C337 C 0.54607 0.64608 0.12019 0.0
C338 C 0.53024 0.63373 0.09093 0.0
C339 C 0.57311 0.66878 0.17733 0.0
C340 C 0.56009 0.67634 0.15972 0.0
C341 C 0.54691 0.66497 0.13123 0.0
C342 C 0.55762 0.69419 0.17319 0.0
C343 C 0.58648 0.67936 0.20941 0.0
C344 C 0.53567 0.68922 0.18396 0.0
C345 C 0.53355 0.70416 0.20308 0.0
C346 C 0.55332 0.72437 0.21169 0.0
C347 C 0.57498 0.73027 0.19815 0.0
C348 C 0.5771 0.71529 0.17883 0.0
H349 H 0.59146 0.66878 0.22364 0.0
H350 H 0.60266 0.69512 0.20261 0.0
H351 H 0.57608 0.68292 0.22657 0.0
H352 H 0.52038 0.67313 0.1798 0.0
H353 H 0.51671 0.69917 0.21358 0.0
H354 H 0.96334 0.52214 0.56025 0.0
H355 H 0.93143 0.52387 0.58393 0.0
H356 H 0.90731 0.52665 0.48279 0.0
H357 H 0.93908 0.52439 0.45853 0.0
H358 H 0.91026 0.55881 0.53027 0.0
H359 H 0.86153 0.47338 0.58299 0.0
H360 H 0.8919 0.4881 0.59366 0.0
H361 H 0.88315 0.48228 0.54989 0.0
C362 C 0.95115 0.52277 0.54285 0.0
C363 C 0.95375 0.52283 0.50736 0.0
C364 C 0.93292 0.52385 0.55651 0.0
C365 C 0.91682 0.52504 0.53512 0.0
C366 C 0.91951 0.5256 0.49971 0.0
H367 H 0.79916 0.50945 0.65049 0.0
H368 H 0.81916 0.50789 0.60002 0.0
C369 C 0.93775 0.52441 0.48593 0.0
C370 C 0.89753 0.52603 0.55029 0.0
H371 H 0.85305 0.4987 0.60722 0.0
C372 C 0.89742 0.54553 0.54657 0.0
C373 C 0.88054 0.50854 0.57099 0.0
C374 C 0.87907 0.4868 0.57442 0.0
C375 C 0.88179 0.54856 0.56508 0.0
C376 C 0.86613 0.53176 0.58808 0.0
C377 C 0.86513 0.51166 0.58977 0.0
C378 C 0.85291 0.53551 0.61388 0.0
C379 C 0.88266 0.56997 0.56055 0.0
C380 C 0.86507 0.5519 0.63785 0.0
C381 C 0.85372 0.55278 0.66648 0.0
C382 C 0.82999 0.53723 0.67182 0.0
C383 C 0.81742 0.52174 0.64674 0.0
C384 C 0.82884 0.52079 0.61806 0.0
H385 H 0.8887 0.57722 0.53456 0.0
H386 H 0.86538 0.56773 0.56503 0.0
H387 H 0.89521 0.58189 0.57902 0.0
H388 H 0.8837 0.56312 0.63568 0.0
H389 H 0.86379 0.56484 0.68553 0.0
H390 H 0.44788 0.97459 0.07289 0.0
H391 H 0.41647 0.94231 0.1028 0.0
H392 H 0.43847 0.90167 0.05947 0.0
H393 H 0.47027 0.934 0.0298 0.0
H394 H 0.37921 0.90166 0.08243 0.0
H395 H 0.44187 0.89133 0.16171 0.0
H396 H 0.45075 0.91569 0.1356 0.0
H397 H 0.44486 0.89081 0.11647 0.0
C398 C 0.44591 0.95876 0.06928 0.0
C399 C 0.46181 0.95699 0.04912 0.0
C400 C 0.4279 0.94028 0.08646 0.0
C401 C 0.42537 0.91962 0.084 0.0
C402 C 0.44037 0.91753 0.06238 0.0
H403 H 0.33719 0.8042 0.21928 0.0
H404 H 0.3606 0.82574 0.16926 0.0
C405 C 0.45844 0.93603 0.04517 0.0
C406 C 0.40775 0.90069 0.10545 0.0
H407 H 0.40216 0.8669 0.17307 0.0
C408 C 0.38422 0.89391 0.10202 0.0
C409 C 0.41422 0.89047 0.13098 0.0
C410 C 0.43929 0.89749 0.13674 0.0
C411 C 0.36712 0.87763 0.12387 0.0
C412 C 0.37372 0.86807 0.15026 0.0
C413 C 0.39708 0.87416 0.15279 0.0
C414 C 0.35731 0.85369 0.17775 0.0
C415 C 0.34214 0.871 0.11876 0.0
C416 C 0.34751 0.86211 0.19891 0.0
C417 C 0.33431 0.84993 0.22729 0.0
C418 C 0.33057 0.82902 0.23531 0.0
C419 C 0.33959 0.82016 0.21347 0.0
C420 C 0.35305 0.8325 0.18505 0.0
H421 H 0.33882 0.87402 0.09195 0.0
H422 H 0.33003 0.85336 0.12565 0.0
H423 H 0.33827 0.88097 0.13523 0.0
H424 H 0.35089 0.87854 0.19431 0.0
H425 H 0.32761 0.85719 0.24375 0.0
H426 H 0.55221 0.44604 0.50484 0.0
H427 H 0.55504 0.41949 0.54208 0.0
H428 H 0.48425 0.36987 0.51779 0.0
H429 H 0.48139 0.3962 0.48045 0.0
H430 H 0.53 0.40111 0.59807 0.0
H431 H 0.5147 0.33467 0.51312 0.0
H432 H 0.52155 0.36135 0.49705 0.0
H433 H 0.49224 0.34078 0.50937 0.0
C434 C 0.5374 0.42936 0.50695 0.0
C435 C 0.51658 0.42329 0.48962 0.0
C436 C 0.53905 0.41418 0.52819 0.0
C437 C 0.51995 0.39257 0.53248 0.0
C438 C 0.49944 0.38623 0.51424 0.0
H439 H 0.4873 0.31207 0.71513 0.0
H440 H 0.48782 0.33352 0.66501 0.0
C441 C 0.49782 0.40138 0.49286 0.0
C442 C 0.52055 0.37749 0.55884 0.0
H443 H 0.50938 0.3254 0.57314 0.0
C444 C 0.52574 0.38465 0.59247 0.0
C445 C 0.5152 0.35606 0.5516 0.0
C446 C 0.51085 0.34783 0.51575 0.0
C447 C 0.52502 0.3708 0.61915 0.0
C448 C 0.51841 0.34898 0.61222 0.0
C449 C 0.51403 0.34201 0.57847 0.0
C450 C 0.51592 0.33332 0.63999 0.0
C451 C 0.5314 0.37973 0.65458 0.0
C452 C 0.53064 0.32503 0.64162 0.0
C453 C 0.53025 0.31259 0.67018 0.0
C454 C 0.51514 0.30831 0.69751 0.0
C455 C 0.49937 0.31541 0.69469 0.0
C456 C 0.4997 0.32771 0.66614 0.0
H457 H 0.54195 0.398 0.65406 0.0
H458 H 0.51527 0.37434 0.66916 0.0
H459 H 0.54133 0.37348 0.66834 0.0
H460 H 0.54318 0.32906 0.62158 0.0
H461 H 0.54266 0.30741 0.67174 0.0
H462 H 0.57886 0.99048 0.39301 0.0
H463 H 0.58293 0.95967 0.37843 0.0
H464 H 0.52891 0.91749 0.45017 0.0
H465 H 0.52446 0.94807 0.46449 0.0
H466 H 0.59267 0.93213 0.42552 0.0
H467 H 0.50804 0.8852 0.35756 0.0
H468 H 0.52188 0.91419 0.36538 0.0
H469 H 0.50743 0.89432 0.39942 0.0
C470 C 0.5677 0.97462 0.40546 0.0
C471 C 0.55131 0.97176 0.42987 0.0
C472 C 0.57019 0.95707 0.39731 0.0
C473 C 0.55616 0.93629 0.41313 0.0
C474 C 0.53981 0.93337 0.43753 0.0
H475 H 0.53915 0.81282 0.34998 0.0
H476 H 0.53801 0.83883 0.38782 0.0
C477 C 0.53741 0.95091 0.44584 0.0
C478 C 0.55845 0.91763 0.40369 0.0
H479 H 0.53081 0.86942 0.36137 0.0
C480 C 0.57911 0.91832 0.41168 0.0
C481 C 0.54063 0.89954 0.38601 0.0
C482 C 0.51826 0.89818 0.37631 0.0
C483 C 0.58256 0.90152 0.40196 0.0
C484 C 0.56511 0.88383 0.38304 0.0
C485 C 0.54416 0.88286 0.37604 0.0
C486 C 0.56898 0.86749 0.36692 0.0
C487 C 0.60489 0.90293 0.41208 0.0
C488 C 0.58736 0.87474 0.34376 0.0
C489 C 0.58817 0.85989 0.32256 0.0
C490 C 0.57048 0.83751 0.32379 0.0
C491 C 0.5532 0.82991 0.34891 0.0
C492 C 0.55241 0.84482 0.37025 0.0
H493 H 0.61188 0.91191 0.43614 0.0
H494 H 0.6024 0.88636 0.41544 0.0
H495 H 0.61811 0.91219 0.39192 0.0
H496 H 0.60007 0.89212 0.34003 0.0
H497 H 0.60151 0.86618 0.3031 0.0
H498 H 0.58361 0.53213 0.94135 0.0
H499 H 0.61597 0.53864 0.90519 0.0
H500 H 0.66097 0.55767 0.99291 0.0
H501 H 0.62901 0.55154 0.02902 0.0
H502 H 0.68284 0.58391 0.93397 0.0
H503 H 0.63766 0.49448 0.9102 0.0
H504 H 0.62114 0.50681 0.89892 0.0
H505 H 0.62841 0.50543 0.94276 0.0
C506 C 0.60051 0.5381 0.9528 0.0
C507 C 0.60368 0.54108 0.9881 0.0
C508 C 0.61892 0.54165 0.93218 0.0
C509 C 0.64072 0.54821 0.94655 0.0
C510 C 0.64426 0.55247 0.98137 0.0
H511 H 0.73793 0.52404 0.84489 0.0
H512 H 0.71725 0.52896 0.8911 0.0
C513 C 0.62592 0.5489 0.00196 0.0
C514 C 0.65944 0.54932 0.92591 0.0
H515 H 0.67256 0.51776 0.87976 0.0
C516 C 0.68066 0.56946 0.92215 0.0
C517 C 0.65675 0.53032 0.91131 0.0
C518 C 0.63487 0.50797 0.91618 0.0
C519 C 0.69902 0.57124 0.90315 0.0
C520 C 0.69593 0.55243 0.88731 0.0
C521 C 0.67494 0.53218 0.89195 0.0
C522 C 0.71328 0.55345 0.86351 0.0
C523 C 0.72154 0.5932 0.90033 0.0
C524 C 0.71876 0.56627 0.83335 0.0
C525 C 0.73064 0.56356 0.80719 0.0
C526 C 0.73713 0.54792 0.81066 0.0
C527 C 0.73338 0.53641 0.84185 0.0
C528 C 0.72142 0.53909 0.86808 0.0
H529 H 0.7239 0.60366 0.92216 0.0
H530 H 0.73668 0.59118 0.89914 0.0
H531 H 0.72129 0.60199 0.87668 0.0
H532 H 0.71231 0.57712 0.82892 0.0
H533 H 0.73316 0.57245 0.78319 0.0
H534 H 0.07008 0.59585 0.5126 0.0
H535 H 0.10715 0.62722 0.49245 0.0
H536 H 0.13374 0.58478 0.48113 0.0
H537 H 0.09655 0.55316 0.5008 0.0
H538 H 0.15439 0.64672 0.51251 0.0
H539 H 0.13814 0.61035 0.38451 0.0
H540 H 0.11585 0.59995 0.41675 0.0
H541 H 0.13802 0.59335 0.41927 0.0
C542 C 0.0839 0.59318 0.50635 0.0
C543 C 0.08017 0.57187 0.50801 0.0
C544 C 0.10513 0.61118 0.49484 0.0
C545 C 0.1231 0.60831 0.48463 0.0
C546 C 0.11998 0.58733 0.48825 0.0
H547 H 0.24293 0.69793 0.35695 0.0
H548 H 0.21861 0.66844 0.3985 0.0
C549 C 0.09873 0.56928 0.49976 0.0
C550 C 0.14429 0.62696 0.46797 0.0
H551 H 0.17253 0.64452 0.3915 0.0
C552 C 0.15849 0.6462 0.48613 0.0
C553 C 0.14965 0.62631 0.43352 0.0
C554 C 0.13456 0.60649 0.41218 0.0
C555 C 0.1778 0.66481 0.47072 0.0
C556 C 0.18278 0.66434 0.436 0.0
C557 C 0.16888 0.64489 0.41816 0.0
C558 C 0.20103 0.68415 0.41663 0.0
C559 C 0.19267 0.68475 0.49183 0.0
C560 C 0.19992 0.7032 0.41375 0.0
C561 C 0.21405 0.72015 0.39038 0.0
C562 C 0.22952 0.71836 0.3694 0.0
C563 C 0.23161 0.69994 0.37355 0.0
C564 C 0.21753 0.68301 0.39702 0.0
H565 H 0.19175 0.68014 0.5193 0.0
H566 H 0.21112 0.69369 0.48357 0.0
H567 H 0.18619 0.69608 0.48895 0.0
H568 H 0.18696 0.70431 0.42776 0.0
H569 H 0.21161 0.73387 0.38683 0.0
H570 H 0.55771 0.11088 0.02927 0.0
H571 H 0.56169 0.14088 0.99234 0.0
H572 H 0.48915 0.11727 0.00748 0.0
H573 H 0.48518 0.08756 0.04455 0.0
H574 H 0.54049 0.13543 0.93365 0.0
H575 H 0.51637 0.18203 0.01441 0.0
H576 H 0.52313 0.16244 0.03201 0.0
H577 H 0.49449 0.15328 0.0157 0.0
C578 C 0.54275 0.11238 0.02528 0.0
C579 C 0.52115 0.09681 0.03993 0.0
C580 C 0.54504 0.12956 0.00423 0.0
C581 C 0.52579 0.13155 0.99741 0.0
C582 C 0.50443 0.11652 0.01306 0.0
H583 H 0.49725 0.17751 0.81031 0.0
H584 H 0.49829 0.15725 0.86093 0.0
C585 C 0.50217 0.09944 0.03429 0.0
C586 C 0.52726 0.14754 0.97089 0.0
H587 H 0.5133 0.18632 0.95359 0.0
C588 C 0.53484 0.14676 0.93822 0.0
C589 C 0.52015 0.16255 0.97679 0.0
C590 C 0.51332 0.16531 0.01175 0.0
C591 C 0.53462 0.15985 0.91107 0.0
C592 C 0.52605 0.17376 0.91645 0.0
C593 C 0.51945 0.17534 0.94939 0.0
C594 C 0.52338 0.1863 0.88781 0.0
C595 C 0.54349 0.15858 0.87677 0.0
C596 C 0.53616 0.20939 0.88693 0.0
C597 C 0.53545 0.22105 0.85804 0.0
C598 C 0.52196 0.20973 0.82966 0.0
C599 C 0.5081 0.18664 0.83157 0.0
C600 C 0.50873 0.17506 0.86042 0.0
H601 H 0.55538 0.1523 0.87916 0.0
H602 H 0.52856 0.1471 0.86072 0.0
H603 H 0.55285 0.17493 0.86349 0.0
H604 H 0.54743 0.21837 0.90795 0.0
H605 H 0.54635 0.23883 0.8572 0.0
H606 H 0.45699 0.52691 0.5059 0.0
H607 H 0.42505 0.52749 0.47671 0.0
H608 H 0.41848 0.4789 0.40769 0.0
H609 H 0.44941 0.47747 0.43764 0.0
H610 H 0.42358 0.54068 0.41638 0.0
H611 H 0.3519 0.45415 0.42403 0.0
H612 H 0.37795 0.46415 0.44916 0.0
H613 H 0.37681 0.45562 0.40606 0.0
C614 C 0.4483 0.51592 0.48507 0.0
C615 C 0.45569 0.50203 0.47433 0.0
C616 C 0.43007 0.51633 0.46826 0.0
C617 C 0.41893 0.50299 0.44017 0.0
C618 C 0.42607 0.48882 0.4299 0.0
H619 H 0.36808 0.53296 0.26135 0.0
H620 H 0.38963 0.53231 0.31091 0.0
C621 C 0.44398 0.48813 0.44702 0.0
C622 C 0.40154 0.50532 0.41952 0.0
H623 H 0.35044 0.47577 0.37598 0.0
C624 C 0.40738 0.52646 0.40813 0.0
C625 C 0.37999 0.48697 0.40924 0.0
C626 C 0.37121 0.46401 0.42315 0.0
C627 C 0.39311 0.5296 0.38525 0.0
C628 C 0.37281 0.51107 0.37218 0.0
C629 C 0.36619 0.49004 0.38527 0.0
C630 C 0.35937 0.51292 0.34305 0.0
C631 C 0.40011 0.55284 0.37537 0.0
C632 C 0.33494 0.50192 0.34394 0.0
C633 C 0.32237 0.50173 0.31496 0.0
C634 C 0.334 0.51247 0.28443 0.0
C635 C 0.35847 0.52423 0.28419 0.0
C636 C 0.37093 0.52418 0.31286 0.0
H637 H 0.40932 0.56411 0.39665 0.0
H638 H 0.41233 0.55871 0.35352 0.0
H639 H 0.38485 0.55396 0.36808 0.0
H640 H 0.32553 0.49299 0.3668 0.0
H641 H 0.30356 0.49235 0.31603 0.0
H642 H 0.93792 0.45393 0.99144 0.0
H643 H 0.90843 0.42062 0.96337 0.0
H644 H 0.9336 0.38352 0.01638 0.0
H645 H 0.96312 0.41687 0.04476 0.0
H646 H 0.91919 0.39824 0.92066 0.0
H647 H 0.86311 0.34245 0.02561 0.0
H648 H 0.8827 0.37166 0.03066 0.0
H649 H 0.89366 0.35362 0.03181 0.0
C650 C 0.93703 0.43864 0.99739 0.0
C651 C 0.95296 0.43807 0.02012 0.0
C652 C 0.92009 0.41959 0.98148 0.0
C653 C 0.91867 0.39953 0.98795 0.0
C654 C 0.93403 0.3987 0.01154 0.0
H655 H 0.86378 0.2984 0.83828 0.0
H656 H 0.88629 0.32206 0.88537 0.0
C657 C 0.95094 0.41779 0.02767 0.0
C658 C 0.90284 0.38025 0.9672 0.0
H659 H 0.85742 0.32674 0.97099 0.0
C660 C 0.90565 0.38264 0.93172 0.0
C661 C 0.88512 0.35993 0.98164 0.0
C662 C 0.88075 0.35673 0.0195 0.0
C663 C 0.89135 0.36533 0.91026 0.0
C664 C 0.87401 0.34483 0.92467 0.0
C665 C 0.87094 0.3424 0.96013 0.0
C666 C 0.85869 0.32617 0.90264 0.0
C667 C 0.8947 0.36925 0.8722 0.0
C668 C 0.83525 0.3195 0.89829 0.0
C669 C 0.82226 0.30572 0.87167 0.0
C670 C 0.83265 0.29856 0.84918 0.0
C671 C 0.85543 0.30368 0.85547 0.0
C672 C 0.8683 0.31725 0.88219 0.0
H673 H 0.90504 0.38706 0.86516 0.0
H674 H 0.90411 0.3616 0.86284 0.0
H675 H 0.87769 0.36169 0.85889 0.0
H676 H 0.82756 0.32625 0.91383 0.0
H677 H 0.80481 0.30216 0.86698 0.0
H678 H 0.97552 0.51116 0.93511 0.0
H679 H 0.94355 0.50801 0.9004 0.0
H680 H 0.95592 0.56873 0.93991 0.0
H681 H 0.98771 0.57194 0.97484 0.0
H682 H 0.90915 0.53478 0.94277 0.0
H683 H 0.94583 0.5427 0.81408 0.0
H684 H 0.94549 0.52188 0.84129 0.0
H685 H 0.96344 0.55031 0.85211 0.0
C686 C 0.97171 0.52405 0.93601 0.0
C687 C 0.98431 0.54186 0.95772 0.0
C688 C 0.9534 0.52222 0.91611 0.0
C689 C 0.9474 0.53822 0.91733 0.0
C690 C 0.96021 0.55619 0.93852 0.0
H691 H 0.8414 0.55707 0.82113 0.0
H692 H 0.87061 0.55827 0.86053 0.0
C693 C 0.97848 0.55803 0.95838 0.0
C694 C 0.92729 0.5359 0.89753 0.0
H695 H 0.90649 0.5326 0.81671 0.0
C696 C 0.90857 0.53436 0.91519 0.0
C697 C 0.92653 0.53536 0.86156 0.0
C698 C 0.94646 0.53784 0.84104 0.0
C699 C 0.88895 0.53186 0.89792 0.0
C700 C 0.88819 0.53129 0.86192 0.0
C701 C 0.90697 0.53292 0.84431 0.0
C702 C 0.86822 0.52905 0.84171 0.0
C703 C 0.86902 0.52933 0.91844 0.0
C704 C 0.85688 0.51213 0.8183 0.0
C705 C 0.84036 0.51153 0.79578 0.0
C706 C 0.83474 0.52782 0.79618 0.0
C707 C 0.84509 0.54409 0.82078 0.0
C708 C 0.86182 0.54479 0.84323 0.0
H709 H 0.86933 0.52385 0.94514 0.0
H710 H 0.87039 0.54545 0.91913 0.0
H711 H 0.85203 0.51732 0.90687 0.0
H712 H 0.86145 0.4998 0.81658 0.0
H713 H 0.83276 0.49891 0.77687 0.0
H714 H 0.48473 0.95295 0.52359 0.0
H715 H 0.4524 0.91806 0.50312 0.0
H716 H 0.40935 0.94579 0.49562 0.0
H717 H 0.44138 0.98061 0.51654 0.0
H718 H 0.38461 0.8995 0.51548 0.0
H719 H 0.43974 0.9201 0.39998 0.0
H720 H 0.45239 0.91819 0.4395 0.0
H721 H 0.44652 0.93972 0.43265 0.0
C722 C 0.4682 0.95147 0.51858 0.0
C723 C 0.46581 0.96975 0.52112 0.0
C724 C 0.44975 0.93151 0.50673 0.0
C725 C 0.42866 0.92951 0.49716 0.0
C726 C 0.42553 0.94702 0.5027 0.0
H727 H 0.33267 0.86379 0.3387 0.0
H728 H 0.35731 0.88771 0.38403 0.0
C729 C 0.44392 0.96697 0.5146 0.0
C730 C 0.41115 0.9106 0.47713 0.0
H731 H 0.40237 0.8885 0.39851 0.0
C732 C 0.38853 0.89686 0.49009 0.0
C733 C 0.41626 0.90741 0.44379 0.0
C734 C 0.43996 0.92219 0.42791 0.0
C735 C 0.37083 0.88018 0.47033 0.0
C736 C 0.37594 0.87733 0.43691 0.0
C737 C 0.39862 0.89073 0.42427 0.0
C738 C 0.3578 0.86185 0.41326 0.0
C739 C 0.34659 0.86622 0.48458 0.0
C740 C 0.34942 0.83925 0.41523 0.0
C741 C 0.33533 0.82549 0.38919 0.0
C742 C 0.32966 0.83425 0.36078 0.0
C743 C 0.33699 0.85664 0.36007 0.0
C744 C 0.35098 0.87031 0.38598 0.0
H745 H 0.34518 0.87107 0.51057 0.0
H746 H 0.33412 0.86757 0.46754 0.0
H747 H 0.34143 0.8487 0.4856 0.0
H748 H 0.3547 0.83249 0.43597 0.0
H749 H 0.33005 0.80833 0.39026 0.0
H750 H 0.53935 0.42091 0.05028 0.0
H751 H 0.53979 0.39306 0.01641 0.0
H752 H 0.53082 0.42255 0.92479 0.0
H753 H 0.52988 0.45008 0.95817 0.0
H754 H 0.50489 0.36256 0.97144 0.0
H755 H 0.5879 0.41836 0.90379 0.0
H756 H 0.5797 0.42599 0.94199 0.0
H757 H 0.56779 0.4275 0.90148 0.0
C758 C 0.53736 0.42148 0.02296 0.0
C759 C 0.53474 0.438 0.00712 0.0
C760 C 0.53773 0.40557 0.00362 0.0
C761 C 0.53574 0.40595 0.96802 0.0
C762 C 0.53294 0.42223 0.95215 0.0
H763 H 0.4925 0.31249 0.81272 0.0
H764 H 0.49622 0.33561 0.85975 0.0
C765 C 0.53244 0.43805 0.97141 0.0
C766 C 0.53584 0.389 0.94731 0.0
H767 H 0.56331 0.3828 0.88045 0.0
C768 C 0.51783 0.36692 0.95184 0.0
C769 C 0.55291 0.39463 0.92207 0.0
C770 C 0.57331 0.41787 0.91718 0.0
C771 C 0.51579 0.35054 0.93064 0.0
C772 C 0.53207 0.35643 0.90407 0.0
C773 C 0.55074 0.3783 0.90068 0.0
C774 C 0.529 0.34062 0.8778 0.0
C775 C 0.49602 0.32712 0.93657 0.0
C776 C 0.54622 0.33572 0.87218 0.0
C777 C 0.5441 0.32242 0.84519 0.0
C778 C 0.52493 0.31416 0.82305 0.0
C779 C 0.5075 0.31868 0.82931 0.0
C780 C 0.50952 0.33176 0.85633 0.0
H781 H 0.48958 0.32417 0.96322 0.0
H782 H 0.48137 0.32378 0.91944 0.0
H783 H 0.50137 0.31532 0.931 0.0
H784 H 0.56149 0.34253 0.88829 0.0
H785 H 0.55789 0.31937 0.84077 0.0
H786 H 0.04331 0.45234 0.39419 0.0
H787 H 0.075 0.45053 0.36893 0.0
H788 H 0.12505 0.51179 0.41468 0.0
H789 H 0.09357 0.51388 0.4397 0.0
H790 H 0.10826 0.48154 0.32369 0.0
H791 H 0.15054 0.47237 0.43984 0.0
H792 H 0.12148 0.46745 0.44012 0.0
H793 H 0.1463 0.49509 0.44023 0.0
C794 C 0.06103 0.46545 0.39888 0.0
C795 C 0.06582 0.48323 0.41909 0.0
C796 C 0.07914 0.4643 0.38464 0.0
C797 C 0.10239 0.48081 0.39047 0.0
C798 C 0.10726 0.49856 0.41062 0.0
H799 H 0.23455 0.5199 0.30114 0.0
H800 H 0.20378 0.51396 0.34043 0.0
C801 C 0.08919 0.49973 0.42486 0.0
C802 C 0.12147 0.48034 0.37337 0.0
H803 H 0.17146 0.48042 0.3877 0.0
C804 C 0.12193 0.48104 0.33768 0.0
C805 C 0.13941 0.47991 0.39172 0.0
C806 C 0.13939 0.47847 0.43011 0.0
C807 C 0.14011 0.48185 0.31976 0.0
C808 C 0.15806 0.4814 0.33805 0.0
C809 C 0.1576 0.4806 0.37378 0.0
C810 C 0.17778 0.48258 0.32008 0.0
C811 C 0.14031 0.48394 0.28136 0.0
C812 C 0.1737 0.4663 0.29712 0.0
C813 C 0.19117 0.46972 0.27471 0.0
C814 C 0.21308 0.48926 0.27541 0.0
C815 C 0.21786 0.50458 0.30055 0.0
C816 C 0.20028 0.50125 0.3228 0.0
H817 H 0.12853 0.48938 0.27189 0.0
H818 H 0.15812 0.49582 0.27172 0.0
H819 H 0.13435 0.46769 0.27046 0.0
H820 H 0.15657 0.45162 0.29503 0.0
H821 H 0.18711 0.45781 0.25528 0.0
H822 H 0.57731 0.05155 0.98037 0.0
H823 H 0.61115 0.08272 0.95259 0.0
H824 H 0.56685 0.10126 0.90164 0.0
H825 H 0.53287 0.07042 0.93018 0.0
H826 H 0.62407 0.09463 0.88801 0.0
H827 H 0.61279 0.15806 0.94568 0.0
H828 H 0.59603 0.1295 0.95922 0.0
H829 H 0.58815 0.13877 0.92121 0.0
C830 C 0.57465 0.06208 0.96298 0.0
C831 C 0.55229 0.05849 0.95773 0.0
C832 C 0.5941 0.08 0.94719 0.0
C833 C 0.5917 0.09476 0.92572 0.0
C834 C 0.56928 0.09055 0.91893 0.0
H835 H 0.6875 0.20386 0.79504 0.0
H836 H 0.65404 0.17712 0.82974 0.0
C837 C 0.54979 0.07269 0.93492 0.0
C838 C 0.61274 0.11443 0.91051 0.0
H839 H 0.64225 0.17063 0.90332 0.0
C840 C 0.62809 0.11124 0.8916 0.0
C841 C 0.61808 0.13618 0.9152 0.0
C842 C 0.60303 0.1409 0.9367 0.0
C843 C 0.64831 0.12905 0.87678 0.0
C844 C 0.65356 0.15073 0.88128 0.0
C845 C 0.63826 0.154 0.90011 0.0
C846 C 0.67426 0.16998 0.86491 0.0
C847 C 0.66365 0.12449 0.85567 0.0
C848 C 0.69689 0.1757 0.87426 0.0
C849 C 0.71607 0.19121 0.85469 0.0
C850 C 0.71286 0.2012 0.82555 0.0
C851 C 0.69043 0.19664 0.81776 0.0
C852 C 0.67131 0.18127 0.8374 0.0
H853 H 0.65497 0.10684 0.84943 0.0
H854 H 0.66873 0.13446 0.83154 0.0
H855 H 0.67977 0.12912 0.87008 0.0
H856 H 0.69955 0.16728 0.89557 0.0
H857 H 0.73312 0.19413 0.86079 0.0
H858 H 0.55897 0.58385 0.46941 0.0
H859 H 0.56193 0.61931 0.46165 0.0
H860 H 0.54047 0.6045 0.35702 0.0
H861 H 0.53744 0.5691 0.36456 0.0
H862 H 0.57772 0.64708 0.36542 0.0
H863 H 0.50586 0.62671 0.45502 0.0
H864 H 0.52916 0.6242 0.47219 0.0
H865 H 0.51088 0.60613 0.43947 0.0
C866 C 0.55488 0.58815 0.44475 0.0
C867 C 0.54781 0.57355 0.41767 0.0
C868 C 0.55652 0.60839 0.44041 0.0
C869 C 0.55098 0.61434 0.40896 0.0
C870 C 0.54473 0.60017 0.38157 0.0
H871 H 0.50862 0.69532 0.32372 0.0
H872 H 0.51105 0.66833 0.36022 0.0
C873 C 0.54315 0.57998 0.38585 0.0
C874 C 0.55148 0.63522 0.40427 0.0
H875 H 0.52388 0.66144 0.42699 0.0
C876 C 0.5662 0.6504 0.3792 0.0
C877 C 0.53626 0.63936 0.42217 0.0
C878 C 0.51948 0.62321 0.44856 0.0
C879 C 0.56558 0.66925 0.37062 0.0
C880 C 0.55018 0.67331 0.38822 0.0
C881 C 0.53594 0.65847 0.41403 0.0
C882 C 0.54638 0.69104 0.3764 0.0
C883 C 0.58044 0.68394 0.34135 0.0
C884 C 0.56471 0.71316 0.37578 0.0
C885 C 0.56326 0.72866 0.355 0.0
C886 C 0.54344 0.72213 0.33487 0.0
C887 C 0.52398 0.70074 0.33928 0.0
C888 C 0.52544 0.68528 0.35994 0.0
H889 H 0.58834 0.67643 0.32687 0.0
H890 H 0.56999 0.68764 0.32345 0.0
H891 H 0.59473 0.69973 0.35137 0.0
H892 H 0.58089 0.71798 0.38876 0.0
H893 H 0.57855 0.745 0.3517 0.0
H894 H 0.55597 0.09645 0.55955 0.0
H895 H 0.55691 0.12576 0.59086 0.0
H896 H 0.50346 0.12251 0.52549 0.0
H897 H 0.50182 0.09256 0.49465 0.0
H898 H 0.5662 0.16705 0.56936 0.0
H899 H 0.47626 0.11546 0.62037 0.0
H900 H 0.49104 0.10378 0.60068 0.0
H901 H 0.47876 0.11631 0.57483 0.0
C902 C 0.54421 0.10175 0.55195 0.0
C903 C 0.52858 0.09185 0.52477 0.0
C904 C 0.54493 0.11869 0.56974 0.0
C905 C 0.53001 0.12613 0.56092 0.0
C906 C 0.51484 0.11677 0.53319 0.0
H907 H 0.5075 0.21698 0.67538 0.0
H908 H 0.50818 0.19573 0.62804 0.0
C909 C 0.5141 0.09978 0.51534 0.0
C910 C 0.53028 0.14345 0.58121 0.0
H911 H 0.49752 0.15259 0.63549 0.0
C912 C 0.55113 0.16394 0.58363 0.0
C913 C 0.51058 0.13944 0.59974 0.0
C914 C 0.48792 0.11752 0.59911 0.0
C915 C 0.55293 0.18036 0.60448 0.0
C916 C 0.53348 0.17609 0.62386 0.0
C917 C 0.51241 0.15589 0.62054 0.0
C918 C 0.5351 0.19142 0.64999 0.0
C919 C 0.57572 0.20212 0.60568 0.0
C920 C 0.55023 0.19636 0.67776 0.0
C921 C 0.54988 0.20847 0.70466 0.0
C922 C 0.53431 0.21585 0.7045 0.0
C923 C 0.51986 0.21173 0.67602 0.0
C924 C 0.52012 0.19947 0.6491 0.0
H925 H 0.58602 0.20543 0.58209 0.0
H926 H 0.57292 0.21588 0.60914 0.0
H927 H 0.58615 0.20172 0.62747 0.0
H928 H 0.56163 0.19001 0.6794 0.0
H929 H 0.56125 0.21141 0.72624 0.0
H930 H 0.48221 0.52446 0.00284 0.0
H931 H 0.44739 0.52657 0.00939 0.0
H932 H 0.41685 0.4685 0.07497 0.0
H933 H 0.45095 0.46598 0.06789 0.0
H934 H 0.38422 0.4695 0.03377 0.0
H935 H 0.43921 0.54928 0.09821 0.0
H936 H 0.44644 0.54806 0.0549 0.0
H937 H 0.45023 0.53213 0.08769 0.0
C938 C 0.4678 0.51186 0.01794 0.0
C939 C 0.46947 0.49523 0.03525 0.0
C940 C 0.44802 0.5132 0.02192 0.0
C941 C 0.42973 0.49798 0.04334 0.0
C942 C 0.43075 0.48051 0.05849 0.0
H943 H 0.32718 0.47135 0.18064 0.0
H944 H 0.35098 0.47054 0.13532 0.0
C945 C 0.45036 0.47914 0.0545 0.0
C946 C 0.41044 0.50093 0.05305 0.0
H947 H 0.39902 0.53233 0.1029 0.0
C948 C 0.38743 0.48347 0.04825 0.0
C949 C 0.4146 0.51919 0.07192 0.0
C950 C 0.43891 0.53821 0.07878 0.0
C951 C 0.36865 0.48316 0.06352 0.0
C952 C 0.373 0.50068 0.0843 0.0
C953 C 0.39575 0.51891 0.08694 0.0
C954 C 0.35509 0.49902 0.10762 0.0
C955 C 0.3444 0.46368 0.05842 0.0
C956 C 0.34921 0.51515 0.10694 0.0
C957 C 0.33543 0.51552 0.13281 0.0
C958 C 0.32775 0.50003 0.16001 0.0
C959 C 0.33279 0.48337 0.1598 0.0
C960 C 0.34628 0.48285 0.13383 0.0
H961 H 0.34292 0.45571 0.03392 0.0
H962 H 0.34024 0.45131 0.07928 0.0
H963 H 0.33134 0.46857 0.05883 0.0
H964 H 0.35606 0.52792 0.08717 0.0
H965 H 0.33199 0.52867 0.13271 0.0
H966 H 0.97614 0.46956 0.58914 0.0
H967 H 0.94449 0.43981 0.6232 0.0
H968 H 0.95805 0.39315 0.57979 0.0
H969 H 0.98985 0.4227 0.54631 0.0
H970 H 0.90461 0.40316 0.59995 0.0
H971 H 0.9547 0.37736 0.68021 0.0
H972 H 0.96846 0.40298 0.65591 0.0
H973 H 0.95972 0.37764 0.63545 0.0
C974 C 0.97268 0.45304 0.58732 0.0
C975 C 0.98569 0.4486 0.56508 0.0
C976 C 0.95447 0.43601 0.60667 0.0
C977 C 0.94899 0.41422 0.60439 0.0
C978 C 0.96219 0.40984 0.5826 0.0
H979 H 0.8427 0.2889 0.69991 0.0
H980 H 0.87144 0.31654 0.65944 0.0
C981 C 0.98037 0.42681 0.56332 0.0
C982 C 0.92886 0.39593 0.62354 0.0
H983 H 0.91359 0.35371 0.68135 0.0
C984 C 0.9066 0.39241 0.61785 0.0
C985 C 0.93137 0.38176 0.64676 0.0
C986 C 0.95487 0.38521 0.65524 0.0
C987 C 0.88684 0.37507 0.63449 0.0
C988 C 0.88939 0.36097 0.65776 0.0
C989 C 0.91159 0.36437 0.66325 0.0
C990 C 0.86961 0.34359 0.67855 0.0
C991 C 0.86336 0.37183 0.62672 0.0
C992 C 0.85867 0.34949 0.70219 0.0
C993 C 0.84234 0.33378 0.72514 0.0
C994 C 0.83654 0.31182 0.72494 0.0
C995 C 0.84657 0.30563 0.70018 0.0
C996 C 0.86312 0.32144 0.67732 0.0
H997 H 0.86332 0.37963 0.60182 0.0
H998 H 0.84964 0.35408 0.62641 0.0
H999 H 0.85888 0.37954 0.64677 0.0
H1000 H 0.86365 0.36648 0.70411 0.0
H1001 H 0.83507 0.33902 0.74426 0.0
H1002 H 0.51581 0.95781 0.12711 0.0
H1003 H 0.51755 0.92501 0.13959 0.0
H1004 H 0.58982 0.96072 0.1103 0.0
H1005 H 0.58823 0.99359 0.09804 0.0
H1006 H 0.52822 0.90142 0.09699 0.0
H1007 H 0.59129 0.93565 0.20375 0.0
H1008 H 0.57668 0.94889 0.18672 0.0
H1009 H 0.60127 0.95173 0.16481 0.0
C1010 C 0.53209 0.95869 0.12348 0.0
C1011 C 0.55193 0.97837 0.11186 0.0
C1012 C 0.53305 0.93994 0.13055 0.0
C1013 C 0.55386 0.94048 0.12618 0.0
C1014 C 0.5737 0.96006 0.11452 0.0
H1015 H 0.59005 0.84489 0.18647 0.0
H1016 H 0.58891 0.87284 0.15032 0.0
C1017 C 0.57279 0.97887 0.10765 0.0
C1018 C 0.55475 0.92052 0.13387 0.0
H1019 H 0.58066 0.9005 0.18574 0.0
C1020 C 0.53975 0.90121 0.1163 0.0
C1021 C 0.56981 0.92029 0.15903 0.0
C1022 C 0.58553 0.94016 0.17991 0.0
C1023 C 0.53934 0.88164 0.12338 0.0
C1024 C 0.55419 0.88138 0.14883 0.0
C1025 C 0.5695 0.9008 0.16587 0.0
C1026 C 0.55282 0.8609 0.16095 0.0
C1027 C 0.52302 0.86143 0.10367 0.0
C1028 C 0.53256 0.84418 0.17726 0.0
C1029 C 0.53316 0.82809 0.19756 0.0
C1030 C 0.55404 0.82857 0.20183 0.0
C1031 C 0.57364 0.84392 0.18283 0.0
C1032 C 0.57304 0.86 0.1625 0.0
H1033 H 0.51836 0.86581 0.07869 0.0
H1034 H 0.5308 0.85141 0.09927 0.0
H1035 H 0.50675 0.85117 0.11847 0.0
H1036 H 0.51691 0.84478 0.17706 0.0
H1037 H 0.51806 0.81676 0.21277 0.0
H1038 H 0.5732 0.52767 0.54413 0.0
H1039 H 0.60757 0.53111 0.57145 0.0
H1040 H 0.5643 0.46946 0.62592 0.0
H1041 H 0.52981 0.46556 0.59797 0.0
H1042 H 0.62153 0.53331 0.63625 0.0
H1043 H 0.6096 0.45786 0.58057 0.0
H1044 H 0.59277 0.46959 0.56692 0.0
H1045 H 0.58523 0.45291 0.60541 0.0
C1046 C 0.57089 0.51492 0.56221 0.0
C1047 C 0.54867 0.49624 0.5686 0.0
C1048 C 0.59063 0.51689 0.57774 0.0
C1049 C 0.58866 0.50025 0.60003 0.0
C1050 C 0.56639 0.48219 0.60801 0.0
H1051 H 0.68549 0.48777 0.72915 0.0
H1052 H 0.65184 0.48107 0.69496 0.0
C1053 C 0.54661 0.48014 0.59233 0.0
C1054 C 0.60996 0.5019 0.61472 0.0
H1055 H 0.63955 0.47526 0.62206 0.0
C1056 C 0.62553 0.52068 0.63291 0.0
C1057 C 0.61527 0.48544 0.61029 0.0
C1058 C 0.59997 0.46542 0.58946 0.0
C1059 C 0.64591 0.52324 0.6474 0.0
C1060 C 0.6511 0.50672 0.64325 0.0
C1061 C 0.63561 0.48795 0.62503 0.0
C1062 C 0.6719 0.50826 0.65946 0.0
C1063 C 0.66147 0.54337 0.66785 0.0
C1064 C 0.69448 0.52505 0.64975 0.0
C1065 C 0.71377 0.52871 0.66903 0.0
C1066 C 0.71071 0.51561 0.69823 0.0
C1067 C 0.6883 0.49784 0.7064 0.0
C1068 C 0.66908 0.49411 0.68704 0.0
H1069 H 0.65286 0.55244 0.67399 0.0
H1070 H 0.66681 0.53877 0.69202 0.0
H1071 H 0.67743 0.55467 0.65299 0.0
H1072 H 0.69705 0.53603 0.62834 0.0
H1073 H 0.73081 0.54274 0.66264 0.0
H1074 H 0.09284 0.58601 0.08556 0.0
H1075 H 0.1243 0.61901 0.11187 0.0
H1076 H 0.07433 0.6315 0.15476 0.0
H1077 H 0.04269 0.59859 0.12826 0.0
H1078 H 0.13699 0.66421 0.10654 0.0
H1079 H 0.11089 0.62839 0.2377 0.0
H1080 H 0.10001 0.61187 0.20033 0.0
H1081 H 0.08833 0.6281 0.21255 0.0
C1082 C 0.08848 0.59587 0.1002 0.0
C1083 C 0.06515 0.58952 0.10494 0.0
C1084 C 0.10652 0.61473 0.11529 0.0
C1085 C 0.10162 0.62755 0.13553 0.0
C1086 C 0.07845 0.62161 0.13966 0.0
H1087 H 0.18688 0.73141 0.27456 0.0
H1088 H 0.15607 0.70792 0.23469 0.0
C1089 C 0.06038 0.60274 0.1246 0.0
C1090 C 0.12071 0.64663 0.15337 0.0
H1091 H 0.14189 0.6652 0.23261 0.0
C1092 C 0.13808 0.66452 0.13411 0.0
C1093 C 0.1221 0.6469 0.1893 0.0
C1094 C 0.10448 0.62774 0.21128 0.0
C1095 C 0.15672 0.68284 0.14993 0.0
C1096 C 0.15814 0.68304 0.18589 0.0
C1097 C 0.14068 0.66514 0.20504 0.0
C1098 C 0.1779 0.70106 0.20466 0.0
C1099 C 0.1745 0.70188 0.12804 0.0
C1100 C 0.20066 0.70576 0.20019 0.0
C1101 C 0.21836 0.71948 0.22269 0.0
C1102 C 0.21344 0.72844 0.25012 0.0
C1103 C 0.19107 0.72485 0.2533 0.0
C1104 C 0.17348 0.71135 0.23068 0.0
H1105 H 0.16737 0.70224 0.10251 0.0
H1106 H 0.1807 0.71781 0.14029 0.0
H1107 H 0.18966 0.70016 0.12432 0.0
H1108 H 0.2044 0.69764 0.18083 0.0
H1109 H 0.23539 0.7217 0.22024 0.0
loop_
_geom_bond_atom_site_label_1
_geom_bond_atom_site_label_2
_geom_bond_distance
_geom_bond_site_symmetry_2
_ccdc_geom_bond_type
Cu0 N1 1.999 1_454 S
Cu0 O6 1.974 1_454 S
Cu0 N11 1.985 . S
Cu0 O20 1.959 . S
N1 Cu0 1.999 1_656 S
N1 C3 1.263 . S
N1 C5 1.389 1_556 S
N2 C3 1.358 . S
N2 C4 1.400 . S
C3 N1 1.263 . S
C3 N2 1.358 . S
C3 H9 0.930 . S
C4 N2 1.400 . S
C4 C5 1.351 1_556 S
C4 H21 0.933 . S
C5 N1 1.389 1_554 S
C5 C4 1.351 1_554 S
C5 H10 0.930 . S
O6 Cu0 1.974 1_656 S
O6 C16 1.282 . S
C7 O8 1.261 1_554 S
C7 O20 1.251 . S
O8 C7 1.261 1_556 S
H9 C3 0.930 . S
H10 C5 0.930 . S
N11 Cu0 1.985 . S
N11 C13 1.335 . S
N11 C14 1.390 . S
N12 C13 1.345 . S
N12 C15 1.336 . S
C13 N11 1.335 . S
C13 N12 1.345 . S
C13 H18 0.930 . S
C14 N11 1.390 . S
C14 C15 1.346 . S
C14 H19 0.930 1_554 S
C15 N12 1.336 . S
C15 C14 1.346 . S
C15 H22 0.929 . S
C16 O6 1.282 . S
C16 O17 1.216 1_655 S
O17 C16 1.216 1_455 S
H18 C13 0.930 . S
H19 C14 0.930 1_556 S
O20 Cu0 1.959 . S
O20 C7 1.251 . S
H21 C4 0.933 . S
H22 C15 0.929 . S
Cu23 N24 1.999 . S
Cu23 O29 1.974 . S
Cu23 N34 1.985 1_565 S
Cu23 O43 1.959 1_565 S
N24 Cu23 1.999 . S
N24 C26 1.263 . S
N24 C28 1.389 . S
N25 C26 1.358 . S
N25 C27 1.400 . S
C26 N24 1.263 . S
C26 N25 1.358 . S
C26 H32 0.930 . S
C27 N25 1.400 . S
C27 C28 1.351 . S
C27 H44 0.930 . S
C28 N24 1.389 . S
C28 C27 1.351 . S
C28 H33 0.930 . S
O29 Cu23 1.974 . S
O29 C39 1.282 . S
C30 O31 1.261 . S
C30 O43 1.251 . S
O31 C30 1.261 . S
H32 C26 0.930 . S
H33 C28 0.930 . S
N34 Cu23 1.985 1_545 S
N34 C36 1.335 . S
N34 C37 1.390 . S
N35 C36 1.345 . S
N35 C38 1.336 . S
C36 N34 1.335 . S
C36 N35 1.345 . S
C36 H41 0.930 . S
C37 N34 1.390 . S
C37 C38 1.346 . S
C37 H42 0.930 . S
C38 N35 1.336 . S
C38 C37 1.346 . S
C38 H45 0.929 . S
C39 O29 1.282 . S
C39 O40 1.216 . S
O40 C39 1.216 . S
H41 C36 0.930 . S
H42 C37 0.930 . S
O43 Cu23 1.959 1_545 S
O43 C30 1.251 . S
H44 C27 0.930 . S
H45 C38 0.929 . S
Cu46 N47 1.999 1_554 S
Cu46 O52 1.974 1_554 S
Cu46 N57 1.985 . S
Cu46 O66 1.959 . S
N47 Cu46 1.999 1_556 S
N47 C49 1.263 . S
N47 C51 1.389 . S
N48 C49 1.358 . S
N48 C50 1.400 . S
C49 N47 1.263 . S
C49 N48 1.358 . S
C49 H55 0.930 . S
C50 N48 1.400 . S
C50 C51 1.351 . S
C50 H67 0.930 . S
C51 N47 1.389 . S
C51 C50 1.351 . S
C51 H56 0.930 . S
O52 Cu46 1.974 1_556 S
O52 C62 1.272 1_556 S
C53 O54 1.261 . S
C53 O66 1.251 . S
O54 C53 1.261 . S
H55 C49 0.930 . S
H56 C51 0.930 . S
N57 Cu46 1.985 . S
N57 C59 1.335 . S
N57 C60 1.390 . S
N58 C59 1.345 . S
N58 C61 1.336 . S
C59 N57 1.335 . S
C59 N58 1.345 . S
C59 H64 0.930 . S
C60 N57 1.390 . S
C60 C61 1.346 . S
C60 H65 0.930 . S
C61 N58 1.336 . S
C61 C60 1.346 . S
C61 H68 0.929 . S
C62 O52 1.272 1_554 S
C62 O63 1.240 . S
O63 C62 1.240 . S
H64 C59 0.930 . S
H65 C60 0.930 . S
O66 Cu46 1.959 . S
O66 C53 1.251 . S
H67 C50 0.930 . S
H68 C61 0.929 . S
Cu69 N70 1.999 1_655 S
Cu69 O75 1.974 1_655 S
Cu69 N80 1.985 . S
Cu69 O89 1.959 . S
N70 Cu69 1.999 1_455 S
N70 C72 1.263 . S
N70 C74 1.389 1_455 S
N71 C72 1.358 . S
N71 C73 1.400 . S
C72 N70 1.263 . S
C72 N71 1.358 . S
C72 H78 0.930 . S
C73 N71 1.400 . S
C73 C74 1.351 1_455 S
C73 H90 0.930 . S
C74 N70 1.389 1_655 S
C74 C73 1.351 1_655 S
C74 H79 0.930 . S
O75 Cu69 1.974 1_455 S
O75 C85 1.282 . S
C76 O77 1.261 . S
C76 O89 1.251 . S
O77 C76 1.261 . S
H78 C72 0.930 . S
H79 C74 0.930 . S
N80 Cu69 1.985 . S
N80 C82 1.335 . S
N80 C83 1.390 . S
N81 C82 1.345 . S
N81 C84 1.336 . S
C82 N80 1.335 . S
C82 N81 1.345 . S
C82 H87 0.930 . S
C83 N80 1.390 . S
C83 C84 1.346 . S
C83 H88 0.930 1_655 S
C84 N81 1.336 . S
C84 C83 1.346 . S
C84 H91 0.929 . S
C85 O75 1.282 . S
C85 O86 1.216 . S
O86 C85 1.216 . S
H87 C82 0.930 . S
H88 C83 0.930 1_455 S
O89 Cu69 1.959 . S
O89 C76 1.251 . S
H90 C73 0.930 . S
H91 C84 0.929 . S
Cu92 N93 1.999 . S
Cu92 O98 1.974 . S
Cu92 N103 1.985 1_545 S
Cu92 O112 1.959 1_545 S
N93 Cu92 1.999 . S
N93 C95 1.263 1_554 S
N93 C97 1.389 . S
N94 C95 1.358 . S
N94 C96 1.400 1_556 S
C95 N93 1.263 1_556 S
C95 N94 1.358 . S
C95 H101 0.930 . S
C96 N94 1.400 1_554 S
C96 C97 1.351 . S
C96 H113 0.930 . S
C97 N93 1.389 . S
C97 C96 1.351 . S
C97 H102 0.930 . S
O98 Cu92 1.974 . S
O98 C108 1.282 1_554 S
C99 O100 1.261 . S
C99 O112 1.251 . S
O100 C99 1.261 . S
H101 C95 0.930 . S
H102 C97 0.930 . S
N103 Cu92 1.985 1_565 S
N103 C105 1.335 . S
N103 C106 1.390 . S
N104 C105 1.345 . S
N104 C107 1.336 . S
C105 N103 1.335 . S
C105 N104 1.345 . S
C105 H110 0.930 . S
C106 N103 1.390 . S
C106 C107 1.346 . S
C106 H111 0.930 1_565 S
C107 N104 1.336 . S
C107 C106 1.346 . S
C107 H114 0.929 . S
C108 O98 1.282 1_556 S
C108 O109 1.216 . S
O109 C108 1.216 . S
H110 C105 0.930 . S
H111 C106 0.930 1_545 S
O112 Cu92 1.959 1_565 S
O112 C99 1.251 . S
H113 C96 0.930 . S
H114 C107 0.929 . S
Cu115 N116 1.999 . S
Cu115 O121 1.974 . S
Cu115 N126 1.985 . S
Cu115 O135 1.959 . S
N116 Cu115 1.999 . S
N116 C118 1.263 . S
N116 C120 1.389 . S
N117 C118 1.358 . S
N117 C119 1.400 . S
C118 N116 1.263 . S
C118 N117 1.358 . S
C118 H124 0.930 . S
C119 N117 1.400 . S
C119 C120 1.351 . S
C119 H136 0.930 . S
C120 N116 1.389 . S
C120 C119 1.351 . S
C120 H125 0.930 . S
O121 Cu115 1.974 . S
O121 C131 1.282 . S
C122 O123 1.261 . S
C122 O135 1.251 . S
O123 C122 1.261 . S
H124 C118 0.930 . S
H125 C120 0.930 . S
N126 Cu115 1.985 . S
N126 C128 1.335 . S
N126 C129 1.390 . S
N127 C128 1.345 . S
N127 C130 1.336 . S
C128 N126 1.335 . S
C128 N127 1.345 . S
C128 H133 0.930 . S
C129 N126 1.390 . S
C129 C130 1.346 . S
C129 H134 0.930 . S
C130 N127 1.336 . S
C130 C129 1.346 . S
C130 H137 0.929 . S
C131 O121 1.282 . S
C131 O132 1.216 . S
O132 C131 1.216 . S
H133 C128 0.930 . S
H134 C129 0.930 . S
O135 Cu115 1.959 . S
O135 C122 1.251 . S
H136 C119 0.930 . S
H137 C130 0.929 . S
H138 C144 0.930 . S
H139 C147 0.931 . S
H140 C149 0.931 . S
H141 C151 0.930 . S
H142 C153 0.930 . S
H143 C155 0.931 . S
C144 H138 0.930 . S
C144 C145 1.380 . S
C144 C146 1.394 . S
C145 C144 1.380 . S
C145 C149 1.382 . S
C146 C144 1.394 . S
C146 C147 1.400 . S
C147 H139 0.931 . S
C147 C146 1.400 . S
C147 C148 1.375 . S
C148 C147 1.375 . S
C148 C149 1.415 . S
C148 C150 1.501 . S
C149 H140 0.931 . S
C149 C145 1.382 . S
C149 C148 1.415 . S
C150 C148 1.501 . S
C150 C151 1.384 . S
C150 C155 1.408 . S
C151 H141 0.930 . S
C151 C150 1.384 . S
C151 C152 1.389 . S
C152 C151 1.389 . S
C152 C153 1.405 . S
C153 H142 0.930 . S
C153 C152 1.405 . S
C153 C154 1.364 . S
C154 C153 1.364 . S
C154 C155 1.400 . S
C155 H143 0.931 . S
C155 C150 1.408 . S
C155 C154 1.400 . S
H156 C162 0.930 . S
H157 C165 0.931 . S
H158 C167 0.931 . S
H159 C169 0.930 . S
H160 C171 0.930 . S
H161 C173 0.931 . S
C162 H156 0.930 . S
C162 C163 1.380 . S
C162 C164 1.394 . S
C163 C162 1.380 . S
C163 C167 1.382 . S
C164 C162 1.394 . S
C164 C165 1.400 . S
C165 H157 0.931 . S
C165 C164 1.400 . S
C165 C166 1.375 . S
C166 C165 1.375 . S
C166 C167 1.415 . S
C166 C168 1.501 . S
C167 H158 0.931 . S
C167 C163 1.382 . S
C167 C166 1.415 . S
C168 C166 1.501 . S
C168 C169 1.384 . S
C168 C173 1.408 . S
C169 H159 0.930 . S
C169 C168 1.384 . S
C169 C170 1.389 . S
C170 C169 1.389 . S
C170 C171 1.405 . S
C171 H160 0.930 . S
C171 C170 1.405 . S
C171 C172 1.364 . S
C172 C171 1.364 . S
C172 C173 1.400 . S
C173 H161 0.931 . S
C173 C168 1.408 . S
C173 C172 1.400 . S
H174 C180 0.930 . S
H175 C183 0.931 . S
H176 C185 0.931 . S
H177 C187 0.930 . S
H178 C189 0.930 . S
H179 C191 0.931 . S
C180 H174 0.930 . S
C180 C181 1.380 . S
C180 C182 1.394 . S
C181 C180 1.380 . S
C181 C185 1.382 . S
C182 C180 1.394 . S
C182 C183 1.400 . S
C183 H175 0.931 . S
C183 C182 1.400 . S
C183 C184 1.375 . S
C184 C183 1.375 . S
C184 C185 1.415 . S
C184 C186 1.501 . S
C185 H176 0.931 . S
C185 C181 1.382 . S
C185 C184 1.415 . S
C186 C184 1.501 . S
C186 C187 1.384 . S
C186 C191 1.408 . S
C187 H177 0.930 . S
C187 C186 1.384 . S
C187 C188 1.389 . S
C188 C187 1.389 . S
C188 C189 1.405 . S
C189 H178 0.930 . S
C189 C188 1.405 . S
C189 C190 1.364 . S
C190 C189 1.364 . S
C190 C191 1.400 . S
C191 H179 0.931 . S
C191 C186 1.408 . S
C191 C190 1.400 . S
H192 C198 0.930 . S
H193 C201 0.931 . S
H194 C203 0.931 . S
H195 C205 0.930 . S
H196 C207 0.930 . S
H197 C209 0.931 . S
C198 H192 0.930 . S
C198 C199 1.380 . S
C198 C200 1.394 . S
C199 C198 1.380 . S
C199 C203 1.382 . S
C200 C198 1.394 . S
C200 C201 1.400 . S
C201 H193 0.931 . S
C201 C200 1.400 . S
C201 C202 1.375 . S
C202 C201 1.375 . S
C202 C203 1.415 . S
C202 C204 1.501 . S
C203 H194 0.931 . S
C203 C199 1.382 . S
C203 C202 1.415 . S
C204 C202 1.501 . S
C204 C205 1.384 . S
C204 C209 1.408 . S
C205 H195 0.930 . S
C205 C204 1.384 . S
C205 C206 1.389 . S
C206 C205 1.389 . S
C206 C207 1.405 . S
C207 H196 0.930 . S
C207 C206 1.405 . S
C207 C208 1.364 . S
C208 C207 1.364 . S
C208 C209 1.400 . S
C209 H197 0.931 . S
C209 C204 1.408 . S
C209 C208 1.400 . S
H210 C216 0.930 . S
H211 C219 0.931 . S
H212 C221 0.931 . S
H213 C223 0.930 . S
H214 C225 0.930 . S
H215 C227 0.931 . S
C216 H210 0.930 . S
C216 C217 1.380 . S
C216 C218 1.394 . S
C217 C216 1.380 . S
C217 C221 1.382 . S
C218 C216 1.394 . S
C218 C219 1.400 . S
C219 H211 0.931 . S
C219 C218 1.400 . S
C219 C220 1.375 . S
C220 C219 1.375 . S
C220 C221 1.415 . S
C220 C222 1.501 . S
C221 H212 0.931 . S
C221 C217 1.382 . S
C221 C220 1.415 . S
C222 C220 1.501 . S
C222 C223 1.384 . S
C222 C227 1.408 . S
C223 H213 0.930 . S
C223 C222 1.384 . S
C223 C224 1.389 . S
C224 C223 1.389 . S
C224 C225 1.405 . S
C225 H214 0.930 . S
C225 C224 1.405 . S
C225 C226 1.364 . S
C226 C225 1.364 . S
C226 C227 1.400 . S
C227 H215 0.931 . S
C227 C222 1.408 . S
C227 C226 1.400 . S
H228 C234 0.930 . S
H229 C237 0.931 . S
H230 C239 0.931 . S
H231 C241 0.930 . S
H232 C243 0.930 . S
H233 C245 0.931 . S
C234 H228 0.930 . S
C234 C235 1.380 . S
C234 C236 1.394 . S
C235 C234 1.380 . S
C235 C239 1.382 . S
C236 C234 1.394 . S
C236 C237 1.400 . S
C237 H229 0.931 . S
C237 C236 1.400 . S
C237 C238 1.375 . S
C238 C237 1.375 . S
C238 C239 1.415 . S
C238 C240 1.501 . S
C239 H230 0.931 . S
C239 C235 1.382 . S
C239 C238 1.415 . S
C240 C238 1.501 . S
C240 C241 1.384 . S
C240 C245 1.408 . S
C241 H231 0.930 . S
C241 C240 1.384 . S
C241 C242 1.389 . S
C242 C241 1.389 . S
C242 C243 1.405 . S
C243 H232 0.930 . S
C243 C242 1.405 . S
C243 C244 1.364 . S
C244 C243 1.364 . S
C244 C245 1.400 . S
C245 H233 0.931 . S
C245 C240 1.408 . S
C245 C244 1.400 . S
H246 C254 0.929 . S
H247 C256 0.930 . S
H248 C258 0.930 . S
H249 C261 0.929 . S
H250 C264 0.930 . S
H251 C266 0.960 . S
H252 C266 0.960 . S
H253 C266 0.960 . S
C254 H246 0.929 . S
C254 C255 1.377 . S
C254 C256 1.384 . S
C255 C254 1.377 . S
C255 C261 1.390 . S
C256 H247 0.930 . S
C256 C254 1.384 . S
C256 C257 1.372 . S
C257 C256 1.372 . S
C257 C258 1.400 . S
C257 C262 1.490 . S
C258 H248 0.930 . S
C258 C257 1.400 . S
C258 C261 1.386 . S
H259 C275 0.930 . S
H260 C276 0.931 . S
C261 H249 0.929 . S
C261 C255 1.390 . S
C261 C258 1.386 . S
C262 C257 1.490 . S
C262 C264 1.395 . S
C262 C265 1.403 . S
H263 C269 0.930 . S
C264 H250 0.930 . S
C264 C262 1.395 . S
C264 C267 1.403 . S
C265 C262 1.403 . S
C265 C266 1.524 . S
C265 C269 1.400 . S
C266 H251 0.960 . S
C266 H252 0.960 . S
C266 H253 0.960 . S
C266 C265 1.524 . S
C267 C264 1.403 . S
C267 C268 1.392 . S
C267 C271 1.495 . S
C268 C267 1.392 . S
C268 C269 1.385 . S
C268 C270 1.478 . S
C269 H263 0.930 . S
C269 C265 1.400 . S
C269 C268 1.385 . S
C270 C268 1.478 . S
C270 C272 1.381 . S
C270 C276 1.383 . S
C271 C267 1.495 . S
C271 H277 0.959 . S
C271 H278 0.961 . S
C271 H279 0.960 . S
C272 C270 1.381 . S
C272 C273 1.394 . S
C272 H280 0.930 . S
C273 C272 1.394 . S
C273 C274 1.383 . S
C273 H281 0.929 . S
C274 C273 1.383 . S
C274 C275 1.377 . S
C275 H259 0.930 . S
C275 C274 1.377 . S
C275 C276 1.379 . S
C276 H260 0.931 . S
C276 C270 1.383 . S
C276 C275 1.379 . S
H277 C271 0.959 . S
H278 C271 0.961 . S
H279 C271 0.960 . S
H280 C272 0.930 . S
H281 C273 0.929 . S
H282 C290 0.929 . S
H283 C292 0.930 . S
H284 C294 0.930 . S
H285 C297 0.929 . S
H286 C300 0.930 . S
H287 C302 0.960 . S
H288 C302 0.960 . S
H289 C302 0.960 . S
C290 H282 0.929 . S
C290 C291 1.377 . S
C290 C292 1.384 . S
C291 C290 1.377 . S
C291 C297 1.390 . S
C292 H283 0.930 . S
C292 C290 1.384 . S
C292 C293 1.372 . S
C293 C292 1.372 . S
C293 C294 1.400 . S
C293 C298 1.490 . S
C294 H284 0.930 . S
C294 C293 1.400 . S
C294 C297 1.386 . S
H295 C311 0.930 . S
H296 C312 0.931 . S
C297 H285 0.929 . S
C297 C291 1.390 . S
C297 C294 1.386 . S
C298 C293 1.490 . S
C298 C300 1.395 . S
C298 C301 1.403 . S
H299 C305 0.930 . S
C300 H286 0.930 . S
C300 C298 1.395 . S
C300 C303 1.403 . S
C301 C298 1.403 . S
C301 C302 1.524 . S
C301 C305 1.400 . S
C302 H287 0.960 . S
C302 H288 0.960 . S
C302 H289 0.960 . S
C302 C301 1.524 . S
C303 C300 1.403 . S
C303 C304 1.392 . S
C303 C307 1.495 . S
C304 C303 1.392 . S
C304 C305 1.385 . S
C304 C306 1.478 . S
C305 H299 0.930 . S
C305 C301 1.400 . S
C305 C304 1.385 . S
C306 C304 1.478 . S
C306 C308 1.381 . S
C306 C312 1.383 . S
C307 C303 1.495 . S
C307 H313 0.959 . S
C307 H314 0.961 . S
C307 H315 0.960 . S
C308 C306 1.381 . S
C308 C309 1.394 . S
C308 H316 0.930 . S
C309 C308 1.394 . S
C309 C310 1.383 . S
C309 H317 0.929 . S
C310 C309 1.383 . S
C310 C311 1.377 . S
C311 H295 0.930 . S
C311 C310 1.377 . S
C311 C312 1.379 . S
C312 H296 0.931 . S
C312 C306 1.383 . S
C312 C311 1.379 . S
H313 C307 0.959 . S
H314 C307 0.961 . S
H315 C307 0.960 . S
H316 C308 0.930 . S
H317 C309 0.929 . S
H318 C326 0.929 . S
H319 C328 0.930 . S
H320 C330 0.930 . S
H321 C333 0.929 . S
H322 C336 0.930 . S
H323 C338 0.960 . S
H324 C338 0.960 . S
H325 C338 0.960 . S
C326 H318 0.929 . S
C326 C327 1.377 . S
C326 C328 1.384 . S
C327 C326 1.377 . S
C327 C333 1.390 . S
C328 H319 0.930 . S
C328 C326 1.384 . S
C328 C329 1.372 . S
C329 C328 1.372 . S
C329 C330 1.400 . S
C329 C334 1.490 . S
C330 H320 0.930 . S
C330 C329 1.400 . S
C330 C333 1.386 . S
H331 C347 0.930 . S
H332 C348 0.931 . S
C333 H321 0.929 . S
C333 C327 1.390 . S
C333 C330 1.386 . S
C334 C329 1.490 . S
C334 C336 1.395 . S
C334 C337 1.403 . S
H335 C341 0.930 . S
C336 H322 0.930 . S
C336 C334 1.395 . S
C336 C339 1.403 . S
C337 C334 1.403 . S
C337 C338 1.524 . S
C337 C341 1.400 . S
C338 H323 0.960 . S
C338 H324 0.960 . S
C338 H325 0.960 . S
C338 C337 1.524 . S
C339 C336 1.403 . S
C339 C340 1.392 . S
C339 C343 1.495 . S
C340 C339 1.392 . S
C340 C341 1.385 . S
C340 C342 1.478 . S
C341 H335 0.930 . S
C341 C337 1.400 . S
C341 C340 1.385 . S
C342 C340 1.478 . S
C342 C344 1.381 . S
C342 C348 1.383 . S
C343 C339 1.495 . S
C343 H349 0.959 . S
C343 H350 0.961 . S
C343 H351 0.960 . S
C344 C342 1.381 . S
C344 C345 1.394 . S
C344 H352 0.930 . S
C345 C344 1.394 . S
C345 C346 1.383 . S
C345 H353 0.929 . S
C346 C345 1.383 . S
C346 C347 1.377 . S
C347 H331 0.930 . S
C347 C346 1.377 . S
C347 C348 1.379 . S
C348 H332 0.931 . S
C348 C342 1.383 . S
C348 C347 1.379 . S
H349 C343 0.959 . S
H350 C343 0.961 . S
H351 C343 0.960 . S
H352 C344 0.930 . S
H353 C345 0.929 . S
H354 C362 0.929 . S
H355 C364 0.930 . S
H356 C366 0.930 . S
H357 C369 0.929 . S
H358 C372 0.930 . S
H359 C374 0.960 . S
H360 C374 0.960 . S
H361 C374 0.960 . S
C362 H354 0.929 . S
C362 C363 1.377 . S
C362 C364 1.384 . S
C363 C362 1.377 . S
C363 C369 1.390 . S
C364 H355 0.930 . S
C364 C362 1.384 . S
C364 C365 1.372 . S
C365 C364 1.372 . S
C365 C366 1.400 . S
C365 C370 1.490 . S
C366 H356 0.930 . S
C366 C365 1.400 . S
C366 C369 1.386 . S
H367 C383 0.930 . S
H368 C384 0.931 . S
C369 H357 0.929 . S
C369 C363 1.390 . S
C369 C366 1.386 . S
C370 C365 1.490 . S
C370 C372 1.395 . S
C370 C373 1.403 . S
H371 C377 0.930 . S
C372 H358 0.930 . S
C372 C370 1.395 . S
C372 C375 1.403 . S
C373 C370 1.403 . S
C373 C374 1.524 . S
C373 C377 1.400 . S
C374 H359 0.960 . S
C374 H360 0.960 . S
C374 H361 0.960 . S
C374 C373 1.524 . S
C375 C372 1.403 . S
C375 C376 1.392 . S
C375 C379 1.495 . S
C376 C375 1.392 . S
C376 C377 1.385 . S
C376 C378 1.478 . S
C377 H371 0.930 . S
C377 C373 1.400 . S
C377 C376 1.385 . S
C378 C376 1.478 . S
C378 C380 1.381 . S
C378 C384 1.383 . S
C379 C375 1.495 . S
C379 H385 0.959 . S
C379 H386 0.961 . S
C379 H387 0.960 . S
C380 C378 1.381 . S
C380 C381 1.394 . S
C380 H388 0.930 . S
C381 C380 1.394 . S
C381 C382 1.383 . S
C381 H389 0.929 . S
C382 C381 1.383 . S
C382 C383 1.377 . S
C383 H367 0.930 . S
C383 C382 1.377 . S
C383 C384 1.379 . S
C384 H368 0.931 . S
C384 C378 1.383 . S
C384 C383 1.379 . S
H385 C379 0.959 . S
H386 C379 0.961 . S
H387 C379 0.960 . S
H388 C380 0.930 . S
H389 C381 0.929 . S
H390 C398 0.929 . S
H391 C400 0.930 . S
H392 C402 0.930 . S
H393 C405 0.929 . S
H394 C408 0.930 . S
H395 C410 0.960 . S
H396 C410 0.960 . S
H397 C410 0.960 . S
C398 H390 0.929 . S
C398 C399 1.377 . S
C398 C400 1.384 . S
C399 C398 1.377 . S
C399 C405 1.390 . S
C400 H391 0.930 . S
C400 C398 1.384 . S
C400 C401 1.372 . S
C401 C400 1.372 . S
C401 C402 1.400 . S
C401 C406 1.490 . S
C402 H392 0.930 . S
C402 C401 1.400 . S
C402 C405 1.386 . S
H403 C419 0.930 . S
H404 C420 0.931 . S
C405 H393 0.929 . S
C405 C399 1.390 . S
C405 C402 1.386 . S
C406 C401 1.490 . S
C406 C408 1.395 . S
C406 C409 1.403 . S
H407 C413 0.930 . S
C408 H394 0.930 . S
C408 C406 1.395 . S
C408 C411 1.403 . S
C409 C406 1.403 . S
C409 C410 1.524 . S
C409 C413 1.400 . S
C410 H395 0.960 . S
C410 H396 0.960 . S
C410 H397 0.960 . S
C410 C409 1.524 . S
C411 C408 1.403 . S
C411 C412 1.392 . S
C411 C415 1.495 . S
C412 C411 1.392 . S
C412 C413 1.385 . S
C412 C414 1.478 . S
C413 H407 0.930 . S
C413 C409 1.400 . S
C413 C412 1.385 . S
C414 C412 1.478 . S
C414 C416 1.381 . S
C414 C420 1.383 . S
C415 C411 1.495 . S
C415 H421 0.959 . S
C415 H422 0.961 . S
C415 H423 0.960 . S
C416 C414 1.381 . S
C416 C417 1.394 . S
C416 H424 0.930 . S
C417 C416 1.394 . S
C417 C418 1.383 . S
C417 H425 0.929 . S
C418 C417 1.383 . S
C418 C419 1.377 . S
C419 H403 0.930 . S
C419 C418 1.377 . S
C419 C420 1.379 . S
C420 H404 0.931 . S
C420 C414 1.383 . S
C420 C419 1.379 . S
H421 C415 0.959 . S
H422 C415 0.961 . S
H423 C415 0.960 . S
H424 C416 0.930 . S
H425 C417 0.929 . S
H426 C434 0.929 . S
H427 C436 0.930 . S
H428 C438 0.930 . S
H429 C441 0.929 . S
H430 C444 0.930 . S
H431 C446 0.960 . S
H432 C446 0.960 . S
H433 C446 0.960 . S
C434 H426 0.929 . S
C434 C435 1.377 . S
C434 C436 1.384 . S
C435 C434 1.377 . S
C435 C441 1.390 . S
C436 H427 0.930 . S
C436 C434 1.384 . S
C436 C437 1.372 . S
C437 C436 1.372 . S
C437 C438 1.400 . S
C437 C442 1.490 . S
C438 H428 0.930 . S
C438 C437 1.400 . S
C438 C441 1.386 . S
H439 C455 0.930 . S
H440 C456 0.931 . S
C441 H429 0.929 . S
C441 C435 1.390 . S
C441 C438 1.386 . S
C442 C437 1.490 . S
C442 C444 1.395 . S
C442 C445 1.403 . S
H443 C449 0.930 . S
C444 H430 0.930 . S
C444 C442 1.395 . S
C444 C447 1.403 . S
C445 C442 1.403 . S
C445 C446 1.524 . S
C445 C449 1.400 . S
C446 H431 0.960 . S
C446 H432 0.960 . S
C446 H433 0.960 . S
C446 C445 1.524 . S
C447 C444 1.403 . S
C447 C448 1.392 . S
C447 C451 1.495 . S
C448 C447 1.392 . S
C448 C449 1.385 . S
C448 C450 1.478 . S
C449 H443 0.930 . S
C449 C445 1.400 . S
C449 C448 1.385 . S
C450 C448 1.478 . S
C450 C452 1.381 . S
C450 C456 1.383 . S
C451 C447 1.495 . S
C451 H457 0.959 . S
C451 H458 0.961 . S
C451 H459 0.960 . S
C452 C450 1.381 . S
C452 C453 1.394 . S
C452 H460 0.930 . S
C453 C452 1.394 . S
C453 C454 1.383 . S
C453 H461 0.929 . S
C454 C453 1.383 . S
C454 C455 1.377 . S
C455 H439 0.930 . S
C455 C454 1.377 . S
C455 C456 1.379 . S
C456 H440 0.931 . S
C456 C450 1.383 . S
C456 C455 1.379 . S
H457 C451 0.959 . S
H458 C451 0.961 . S
H459 C451 0.960 . S
H460 C452 0.930 . S
H461 C453 0.929 . S
H462 C470 0.929 . S
H463 C472 0.930 . S
H464 C474 0.930 . S
H465 C477 0.929 . S
H466 C480 0.930 . S
H467 C482 0.960 . S
H468 C482 0.960 . S
H469 C482 0.960 . S
C470 H462 0.929 . S
C470 C471 1.377 . S
C470 C472 1.384 . S
C471 C470 1.377 . S
C471 C477 1.390 . S
C472 H463 0.930 . S
C472 C470 1.384 . S
C472 C473 1.372 . S
C473 C472 1.372 . S
C473 C474 1.400 . S
C473 C478 1.490 . S
C474 H464 0.930 . S
C474 C473 1.400 . S
C474 C477 1.386 . S
H475 C491 0.930 . S
H476 C492 0.931 . S
C477 H465 0.929 . S
C477 C471 1.390 . S
C477 C474 1.386 . S
C478 C473 1.490 . S
C478 C480 1.395 . S
C478 C481 1.403 . S
H479 C485 0.930 . S
C480 H466 0.930 . S
C480 C478 1.395 . S
C480 C483 1.403 . S
C481 C478 1.403 . S
C481 C482 1.524 . S
C481 C485 1.400 . S
C482 H467 0.960 . S
C482 H468 0.960 . S
C482 H469 0.960 . S
C482 C481 1.524 . S
C483 C480 1.403 . S
C483 C484 1.392 . S
C483 C487 1.495 . S
C484 C483 1.392 . S
C484 C485 1.385 . S
C484 C486 1.478 . S
C485 H479 0.930 . S
C485 C481 1.400 . S
C485 C484 1.385 . S
C486 C484 1.478 . S
C486 C488 1.381 . S
C486 C492 1.383 . S
C487 C483 1.495 . S
C487 H493 0.959 . S
C487 H494 0.961 . S
C487 H495 0.960 . S
C488 C486 1.381 . S
C488 C489 1.394 . S
C488 H496 0.930 . S
C489 C488 1.394 . S
C489 C490 1.383 . S
C489 H497 0.929 . S
C490 C489 1.383 . S
C490 C491 1.377 . S
C491 H475 0.930 . S
C491 C490 1.377 . S
C491 C492 1.379 . S
C492 H476 0.931 . S
C492 C486 1.383 . S
C492 C491 1.379 . S
H493 C487 0.959 . S
H494 C487 0.961 . S
H495 C487 0.960 . S
H496 C488 0.930 . S
H497 C489 0.929 . S
H498 C506 0.929 . S
H499 C508 0.930 . S
H500 C510 0.930 . S
H501 C513 0.929 . S
H502 C516 0.930 . S
H503 C518 0.960 . S
H504 C518 0.960 . S
H505 C518 0.960 . S
C506 H498 0.929 . S
C506 C507 1.377 . S
C506 C508 1.384 . S
C507 C506 1.377 . S
C507 C513 1.390 . S
C508 H499 0.930 . S
C508 C506 1.384 . S
C508 C509 1.372 . S
C509 C508 1.372 . S
C509 C510 1.400 . S
C509 C514 1.490 . S
C510 H500 0.930 . S
C510 C509 1.400 . S
C510 C513 1.386 . S
H511 C527 0.930 . S
H512 C528 0.931 . S
C513 H501 0.929 . S
C513 C507 1.390 . S
C513 C510 1.386 . S
C514 C509 1.490 . S
C514 C516 1.395 . S
C514 C517 1.403 . S
H515 C521 0.930 . S
C516 H502 0.930 . S
C516 C514 1.395 . S
C516 C519 1.403 . S
C517 C514 1.403 . S
C517 C518 1.524 . S
C517 C521 1.400 . S
C518 H503 0.960 . S
C518 H504 0.960 . S
C518 H505 0.960 . S
C518 C517 1.524 . S
C519 C516 1.403 . S
C519 C520 1.392 . S
C519 C523 1.495 . S
C520 C519 1.392 . S
C520 C521 1.385 . S
C520 C522 1.478 . S
C521 H515 0.930 . S
C521 C517 1.400 . S
C521 C520 1.385 . S
C522 C520 1.478 . S
C522 C524 1.381 . S
C522 C528 1.383 . S
C523 C519 1.495 . S
C523 H529 0.959 . S
C523 H530 0.961 . S
C523 H531 0.960 . S
C524 C522 1.381 . S
C524 C525 1.394 . S
C524 H532 0.930 . S
C525 C524 1.394 . S
C525 C526 1.383 . S
C525 H533 0.929 . S
C526 C525 1.383 . S
C526 C527 1.377 . S
C527 H511 0.930 . S
C527 C526 1.377 . S
C527 C528 1.379 . S
C528 H512 0.931 . S
C528 C522 1.383 . S
C528 C527 1.379 . S
H529 C523 0.959 . S
H530 C523 0.961 . S
H531 C523 0.960 . S
H532 C524 0.930 . S
H533 C525 0.929 . S
H534 C542 0.929 . S
H535 C544 0.930 . S
H536 C546 0.930 . S
H537 C549 0.929 . S
H538 C552 0.930 . S
H539 C554 0.960 . S
H540 C554 0.960 . S
H541 C554 0.960 . S
C542 H534 0.929 . S
C542 C543 1.377 . S
C542 C544 1.384 . S
C543 C542 1.377 . S
C543 C549 1.390 . S
C544 H535 0.930 . S
C544 C542 1.384 . S
C544 C545 1.372 . S
C545 C544 1.372 . S
C545 C546 1.400 . S
C545 C550 1.490 . S
C546 H536 0.930 . S
C546 C545 1.400 . S
C546 C549 1.386 . S
H547 C563 0.930 . S
H548 C564 0.931 . S
C549 H537 0.929 . S
C549 C543 1.390 . S
C549 C546 1.386 . S
C550 C545 1.490 . S
C550 C552 1.395 . S
C550 C553 1.403 . S
H551 C557 0.930 . S
C552 H538 0.930 . S
C552 C550 1.395 . S
C552 C555 1.403 . S
C553 C550 1.403 . S
C553 C554 1.524 . S
C553 C557 1.400 . S
C554 H539 0.960 . S
C554 H540 0.960 . S
C554 H541 0.960 . S
C554 C553 1.524 . S
C555 C552 1.403 . S
C555 C556 1.392 . S
C555 C559 1.495 . S
C556 C555 1.392 . S
C556 C557 1.385 . S
C556 C558 1.478 . S
C557 H551 0.930 . S
C557 C553 1.400 . S
C557 C556 1.385 . S
C558 C556 1.478 . S
C558 C560 1.381 . S
C558 C564 1.383 . S
C559 C555 1.495 . S
C559 H565 0.959 . S
C559 H566 0.961 . S
C559 H567 0.960 . S
C560 C558 1.381 . S
C560 C561 1.394 . S
C560 H568 0.930 . S
C561 C560 1.394 . S
C561 C562 1.383 . S
C561 H569 0.929 . S
C562 C561 1.383 . S
C562 C563 1.377 . S
C563 H547 0.930 . S
C563 C562 1.377 . S
C563 C564 1.379 . S
C564 H548 0.931 . S
C564 C558 1.383 . S
C564 C563 1.379 . S
H565 C559 0.959 . S
H566 C559 0.961 . S
H567 C559 0.960 . S
H568 C560 0.930 . S
H569 C561 0.929 . S
H570 C578 0.929 . S
H571 C580 0.930 . S
H572 C582 0.930 . S
H573 C585 0.929 . S
H574 C588 0.930 . S
H575 C590 0.960 . S
H576 C590 0.960 . S
H577 C590 0.960 . S
C578 H570 0.929 . S
C578 C579 1.377 . S
C578 C580 1.384 . S
C579 C578 1.377 . S
C579 C585 1.390 . S
C580 H571 0.930 . S
C580 C578 1.384 . S
C580 C581 1.372 . S
C581 C580 1.372 . S
C581 C582 1.400 . S
C581 C586 1.490 . S
C582 H572 0.930 . S
C582 C581 1.400 . S
C582 C585 1.386 . S
H583 C599 0.930 . S
H584 C600 0.931 . S
C585 H573 0.929 . S
C585 C579 1.390 . S
C585 C582 1.386 . S
C586 C581 1.490 . S
C586 C588 1.395 . S
C586 C589 1.403 . S
H587 C593 0.930 . S
C588 H574 0.930 . S
C588 C586 1.395 . S
C588 C591 1.403 . S
C589 C586 1.403 . S
C589 C590 1.524 . S
C589 C593 1.400 . S
C590 H575 0.960 . S
C590 H576 0.960 . S
C590 H577 0.960 . S
C590 C589 1.524 . S
C591 C588 1.403 . S
C591 C592 1.392 . S
C591 C595 1.495 . S
C592 C591 1.392 . S
C592 C593 1.385 . S
C592 C594 1.478 . S
C593 H587 0.930 . S
C593 C589 1.400 . S
C593 C592 1.385 . S
C594 C592 1.478 . S
C594 C596 1.381 . S
C594 C600 1.383 . S
C595 C591 1.495 . S
C595 H601 0.959 . S
C595 H602 0.961 . S
C595 H603 0.960 . S
C596 C594 1.381 . S
C596 C597 1.394 . S
C596 H604 0.930 . S
C597 C596 1.394 . S
C597 C598 1.383 . S
C597 H605 0.929 . S
C598 C597 1.383 . S
C598 C599 1.377 . S
C599 H583 0.930 . S
C599 C598 1.377 . S
C599 C600 1.379 . S
C600 H584 0.931 . S
C600 C594 1.383 . S
C600 C599 1.379 . S
H601 C595 0.959 . S
H602 C595 0.961 . S
H603 C595 0.960 . S
H604 C596 0.930 . S
H605 C597 0.929 . S
H606 C614 0.929 . S
H607 C616 0.930 . S
H608 C618 0.930 . S
H609 C621 0.929 . S
H610 C624 0.930 . S
H611 C626 0.960 . S
H612 C626 0.960 . S
H613 C626 0.960 . S
C614 H606 0.929 . S
C614 C615 1.377 . S
C614 C616 1.384 . S
C615 C614 1.377 . S
C615 C621 1.390 . S
C616 H607 0.930 . S
C616 C614 1.384 . S
C616 C617 1.372 . S
C617 C616 1.372 . S
C617 C618 1.400 . S
C617 C622 1.490 . S
C618 H608 0.930 . S
C618 C617 1.400 . S
C618 C621 1.386 . S
H619 C635 0.930 . S
H620 C636 0.931 . S
C621 H609 0.929 . S
C621 C615 1.390 . S
C621 C618 1.386 . S
C622 C617 1.490 . S
C622 C624 1.395 . S
C622 C625 1.403 . S
H623 C629 0.930 . S
C624 H610 0.930 . S
C624 C622 1.395 . S
C624 C627 1.403 . S
C625 C622 1.403 . S
C625 C626 1.524 . S
C625 C629 1.400 . S
C626 H611 0.960 . S
C626 H612 0.960 . S
C626 H613 0.960 . S
C626 C625 1.524 . S
C627 C624 1.403 . S
C627 C628 1.392 . S
C627 C631 1.495 . S
C628 C627 1.392 . S
C628 C629 1.385 . S
C628 C630 1.478 . S
C629 H623 0.930 . S
C629 C625 1.400 . S
C629 C628 1.385 . S
C630 C628 1.478 . S
C630 C632 1.381 . S
C630 C636 1.383 . S
C631 C627 1.495 . S
C631 H637 0.959 . S
C631 H638 0.961 . S
C631 H639 0.960 . S
C632 C630 1.381 . S
C632 C633 1.394 . S
C632 H640 0.930 . S
C633 C632 1.394 . S
C633 C634 1.383 . S
C633 H641 0.929 . S
C634 C633 1.383 . S
C634 C635 1.377 . S
C635 H619 0.930 . S
C635 C634 1.377 . S
C635 C636 1.379 . S
C636 H620 0.931 . S
C636 C630 1.383 . S
C636 C635 1.379 . S
H637 C631 0.959 . S
H638 C631 0.961 . S
H639 C631 0.960 . S
H640 C632 0.930 . S
H641 C633 0.929 . S
H642 C650 0.929 . S
H643 C652 0.930 . S
H644 C654 0.930 . S
H645 C657 0.929 . S
H646 C660 0.930 . S
H647 C662 0.960 . S
H648 C662 0.960 . S
H649 C662 0.960 . S
C650 H642 0.929 . S
C650 C651 1.377 . S
C650 C652 1.384 . S
C651 C650 1.377 . S
C651 C657 1.390 . S
C652 H643 0.930 . S
C652 C650 1.384 . S
C652 C653 1.372 . S
C653 C652 1.372 . S
C653 C654 1.400 . S
C653 C658 1.490 . S
C654 H644 0.930 . S
C654 C653 1.400 . S
C654 C657 1.386 . S
H655 C671 0.930 . S
H656 C672 0.931 . S
C657 H645 0.929 . S
C657 C651 1.390 . S
C657 C654 1.386 . S
C658 C653 1.490 . S
C658 C660 1.395 . S
C658 C661 1.403 . S
H659 C665 0.930 . S
C660 H646 0.930 . S
C660 C658 1.395 . S
C660 C663 1.403 . S
C661 C658 1.403 . S
C661 C662 1.524 . S
C661 C665 1.400 . S
C662 H647 0.960 . S
C662 H648 0.960 . S
C662 H649 0.960 . S
C662 C661 1.524 . S
C663 C660 1.403 . S
C663 C664 1.392 . S
C663 C667 1.495 . S
C664 C663 1.392 . S
C664 C665 1.385 . S
C664 C666 1.478 . S
C665 H659 0.930 . S
C665 C661 1.400 . S
C665 C664 1.385 . S
C666 C664 1.478 . S
C666 C668 1.381 . S
C666 C672 1.383 . S
C667 C663 1.495 . S
C667 H673 0.959 . S
C667 H674 0.961 . S
C667 H675 0.960 . S
C668 C666 1.381 . S
C668 C669 1.394 . S
C668 H676 0.930 . S
C669 C668 1.394 . S
C669 C670 1.383 . S
C669 H677 0.929 . S
C670 C669 1.383 . S
C670 C671 1.377 . S
C671 H655 0.930 . S
C671 C670 1.377 . S
C671 C672 1.379 . S
C672 H656 0.931 . S
C672 C666 1.383 . S
C672 C671 1.379 . S
H673 C667 0.959 . S
H674 C667 0.961 . S
H675 C667 0.960 . S
H676 C668 0.930 . S
H677 C669 0.929 . S
H678 C686 0.929 . S
H679 C688 0.930 . S
H680 C690 0.930 . S
H681 C693 0.929 . S
H682 C696 0.930 . S
H683 C698 0.960 . S
H684 C698 0.960 . S
H685 C698 0.960 . S
C686 H678 0.929 . S
C686 C687 1.377 . S
C686 C688 1.384 . S
C687 C686 1.377 . S
C687 C693 1.390 . S
C688 H679 0.930 . S
C688 C686 1.384 . S
C688 C689 1.372 . S
C689 C688 1.372 . S
C689 C690 1.400 . S
C689 C694 1.490 . S
C690 H680 0.930 . S
C690 C689 1.400 . S
C690 C693 1.386 . S
H691 C707 0.930 . S
H692 C708 0.931 . S
C693 H681 0.929 . S
C693 C687 1.390 . S
C693 C690 1.386 . S
C694 C689 1.490 . S
C694 C696 1.395 . S
C694 C697 1.403 . S
H695 C701 0.930 . S
C696 H682 0.930 . S
C696 C694 1.395 . S
C696 C699 1.403 . S
C697 C694 1.403 . S
C697 C698 1.524 . S
C697 C701 1.400 . S
C698 H683 0.960 . S
C698 H684 0.960 . S
C698 H685 0.960 . S
C698 C697 1.524 . S
C699 C696 1.403 . S
C699 C700 1.392 . S
C699 C703 1.495 . S
C700 C699 1.392 . S
C700 C701 1.385 . S
C700 C702 1.478 . S
C701 H695 0.930 . S
C701 C697 1.400 . S
C701 C700 1.385 . S
C702 C700 1.478 . S
C702 C704 1.381 . S
C702 C708 1.383 . S
C703 C699 1.495 . S
C703 H709 0.959 . S
C703 H710 0.961 . S
C703 H711 0.960 . S
C704 C702 1.381 . S
C704 C705 1.394 . S
C704 H712 0.930 . S
C705 C704 1.394 . S
C705 C706 1.383 . S
C705 H713 0.929 . S
C706 C705 1.383 . S
C706 C707 1.377 . S
C707 H691 0.930 . S
C707 C706 1.377 . S
C707 C708 1.379 . S
C708 H692 0.931 . S
C708 C702 1.383 . S
C708 C707 1.379 . S
H709 C703 0.959 . S
H710 C703 0.961 . S
H711 C703 0.960 . S
H712 C704 0.930 . S
H713 C705 0.929 . S
H714 C722 0.929 . S
H715 C724 0.930 . S
H716 C726 0.930 . S
H717 C729 0.929 . S
H718 C732 0.930 . S
H719 C734 0.960 . S
H720 C734 0.960 . S
H721 C734 0.960 . S
C722 H714 0.929 . S
C722 C723 1.377 . S
C722 C724 1.384 . S
C723 C722 1.377 . S
C723 C729 1.390 . S
C724 H715 0.930 . S
C724 C722 1.384 . S
C724 C725 1.372 . S
C725 C724 1.372 . S
C725 C726 1.400 . S
C725 C730 1.490 . S
C726 H716 0.930 . S
C726 C725 1.400 . S
C726 C729 1.386 . S
H727 C743 0.930 . S
H728 C744 0.931 . S
C729 H717 0.929 . S
C729 C723 1.390 . S
C729 C726 1.386 . S
C730 C725 1.490 . S
C730 C732 1.395 . S
C730 C733 1.403 . S
H731 C737 0.930 . S
C732 H718 0.930 . S
C732 C730 1.395 . S
C732 C735 1.403 . S
C733 C730 1.403 . S
C733 C734 1.524 . S
C733 C737 1.400 . S
C734 H719 0.960 . S
C734 H720 0.960 . S
C734 H721 0.960 . S
C734 C733 1.524 . S
C735 C732 1.403 . S
C735 C736 1.392 . S
C735 C739 1.495 . S
C736 C735 1.392 . S
C736 C737 1.385 . S
C736 C738 1.478 . S
C737 H731 0.930 . S
C737 C733 1.400 . S
C737 C736 1.385 . S
C738 C736 1.478 . S
C738 C740 1.381 . S
C738 C744 1.383 . S
C739 C735 1.495 . S
C739 H745 0.959 . S
C739 H746 0.961 . S
C739 H747 0.960 . S
C740 C738 1.381 . S
C740 C741 1.394 . S
C740 H748 0.930 . S
C741 C740 1.394 . S
C741 C742 1.383 . S
C741 H749 0.929 . S
C742 C741 1.383 . S
C742 C743 1.377 . S
C743 H727 0.930 . S
C743 C742 1.377 . S
C743 C744 1.379 . S
C744 H728 0.931 . S
C744 C738 1.383 . S
C744 C743 1.379 . S
H745 C739 0.959 . S
H746 C739 0.961 . S
H747 C739 0.960 . S
H748 C740 0.930 . S
H749 C741 0.929 . S
H750 C758 0.929 . S
H751 C760 0.930 . S
H752 C762 0.930 . S
H753 C765 0.929 . S
H754 C768 0.930 . S
H755 C770 0.960 . S
H756 C770 0.960 . S
H757 C770 0.960 . S
C758 H750 0.929 . S
C758 C759 1.377 . S
C758 C760 1.384 . S
C759 C758 1.377 . S
C759 C765 1.390 . S
C760 H751 0.930 . S
C760 C758 1.384 . S
C760 C761 1.372 . S
C761 C760 1.372 . S
C761 C762 1.400 . S
C761 C766 1.490 . S
C762 H752 0.930 . S
C762 C761 1.400 . S
C762 C765 1.386 . S
H763 C779 0.930 . S
H764 C780 0.931 . S
C765 H753 0.929 . S
C765 C759 1.390 . S
C765 C762 1.386 . S
C766 C761 1.490 . S
C766 C768 1.395 . S
C766 C769 1.403 . S
H767 C773 0.930 . S
C768 H754 0.930 . S
C768 C766 1.395 . S
C768 C771 1.403 . S
C769 C766 1.403 . S
C769 C770 1.524 . S
C769 C773 1.400 . S
C770 H755 0.960 . S
C770 H756 0.960 . S
C770 H757 0.960 . S
C770 C769 1.524 . S
C771 C768 1.403 . S
C771 C772 1.392 . S
C771 C775 1.495 . S
C772 C771 1.392 . S
C772 C773 1.385 . S
C772 C774 1.478 . S
C773 H767 0.930 . S
C773 C769 1.400 . S
C773 C772 1.385 . S
C774 C772 1.478 . S
C774 C776 1.381 . S
C774 C780 1.383 . S
C775 C771 1.495 . S
C775 H781 0.959 . S
C775 H782 0.961 . S
C775 H783 0.960 . S
C776 C774 1.381 . S
C776 C777 1.394 . S
C776 H784 0.930 . S
C777 C776 1.394 . S
C777 C778 1.383 . S
C777 H785 0.929 . S
C778 C777 1.383 . S
C778 C779 1.377 . S
C779 H763 0.930 . S
C779 C778 1.377 . S
C779 C780 1.379 . S
C780 H764 0.931 . S
C780 C774 1.383 . S
C780 C779 1.379 . S
H781 C775 0.959 . S
H782 C775 0.961 . S
H783 C775 0.960 . S
H784 C776 0.930 . S
H785 C777 0.929 . S
H786 C794 0.929 . S
H787 C796 0.930 . S
H788 C798 0.930 . S
H789 C801 0.929 . S
H790 C804 0.930 . S
H791 C806 0.960 . S
H792 C806 0.960 . S
H793 C806 0.960 . S
C794 H786 0.929 . S
C794 C795 1.377 . S
C794 C796 1.384 . S
C795 C794 1.377 . S
C795 C801 1.390 . S
C796 H787 0.930 . S
C796 C794 1.384 . S
C796 C797 1.372 . S
C797 C796 1.372 . S
C797 C798 1.400 . S
C797 C802 1.490 . S
C798 H788 0.930 . S
C798 C797 1.400 . S
C798 C801 1.386 . S
H799 C815 0.930 . S
H800 C816 0.931 . S
C801 H789 0.929 . S
C801 C795 1.390 . S
C801 C798 1.386 . S
C802 C797 1.490 . S
C802 C804 1.395 . S
C802 C805 1.403 . S
H803 C809 0.930 . S
C804 H790 0.930 . S
C804 C802 1.395 . S
C804 C807 1.403 . S
C805 C802 1.403 . S
C805 C806 1.524 . S
C805 C809 1.400 . S
C806 H791 0.960 . S
C806 H792 0.960 . S
C806 H793 0.960 . S
C806 C805 1.524 . S
C807 C804 1.403 . S
C807 C808 1.392 . S
C807 C811 1.495 . S
C808 C807 1.392 . S
C808 C809 1.385 . S
C808 C810 1.478 . S
C809 H803 0.930 . S
C809 C805 1.400 . S
C809 C808 1.385 . S
C810 C808 1.478 . S
C810 C812 1.381 . S
C810 C816 1.383 . S
C811 C807 1.495 . S
C811 H817 0.959 . S
C811 H818 0.961 . S
C811 H819 0.960 . S
C812 C810 1.381 . S
C812 C813 1.394 . S
C812 H820 0.930 . S
C813 C812 1.394 . S
C813 C814 1.383 . S
C813 H821 0.929 . S
C814 C813 1.383 . S
C814 C815 1.377 . S
C815 H799 0.930 . S
C815 C814 1.377 . S
C815 C816 1.379 . S
C816 H800 0.931 . S
C816 C810 1.383 . S
C816 C815 1.379 . S
H817 C811 0.959 . S
H818 C811 0.961 . S
H819 C811 0.960 . S
H820 C812 0.930 . S
H821 C813 0.929 . S
H822 C830 0.955 . S
H823 C832 0.930 . S
H824 C834 0.930 . S
H825 C837 0.929 . S
H826 C840 0.930 . S
H827 C842 0.960 . S
H828 C842 0.960 . S
H829 C842 0.960 . S
C830 H822 0.955 . S
C830 C831 1.377 . S
C830 C832 1.384 . S
C831 C830 1.377 . S
C831 C837 1.390 . S
C832 H823 0.930 . S
C832 C830 1.384 . S
C832 C833 1.372 . S
C833 C832 1.372 . S
C833 C834 1.400 . S
C833 C838 1.490 . S
C834 H824 0.930 . S
C834 C833 1.400 . S
C834 C837 1.386 . S
H835 C851 0.930 . S
H836 C852 0.931 . S
C837 H825 0.929 . S
C837 C831 1.390 . S
C837 C834 1.386 . S
C838 C833 1.490 . S
C838 C840 1.395 . S
C838 C841 1.403 . S
H839 C845 0.930 . S
C840 H826 0.930 . S
C840 C838 1.395 . S
C840 C843 1.403 . S
C841 C838 1.403 . S
C841 C842 1.524 . S
C841 C845 1.400 . S
C842 H827 0.960 . S
C842 H828 0.960 . S
C842 H829 0.960 . S
C842 C841 1.524 . S
C843 C840 1.403 . S
C843 C844 1.392 . S
C843 C847 1.495 . S
C844 C843 1.392 . S
C844 C845 1.385 . S
C844 C846 1.478 . S
C845 H839 0.930 . S
C845 C841 1.400 . S
C845 C844 1.385 . S
C846 C844 1.478 . S
C846 C848 1.381 . S
C846 C852 1.383 . S
C847 C843 1.495 . S
C847 H853 0.959 . S
C847 H854 0.961 . S
C847 H855 0.960 . S
C848 C846 1.381 . S
C848 C849 1.394 . S
C848 H856 0.930 . S
C849 C848 1.394 . S
C849 C850 1.383 . S
C849 H857 0.929 . S
C850 C849 1.383 . S
C850 C851 1.377 . S
C851 H835 0.930 . S
C851 C850 1.377 . S
C851 C852 1.379 . S
C852 H836 0.931 . S
C852 C846 1.383 . S
C852 C851 1.379 . S
H853 C847 0.959 . S
H854 C847 0.961 . S
H855 C847 0.960 . S
H856 C848 0.930 . S
H857 C849 0.929 . S
H858 C866 0.929 . S
H859 C868 0.930 . S
H860 C870 0.930 . S
H861 C873 0.929 . S
H862 C876 0.930 . S
H863 C878 0.960 . S
H864 C878 0.960 . S
H865 C878 0.960 . S
C866 H858 0.929 . S
C866 C867 1.377 . S
C866 C868 1.384 . S
C867 C866 1.377 . S
C867 C873 1.390 . S
C868 H859 0.930 . S
C868 C866 1.384 . S
C868 C869 1.372 . S
C869 C868 1.372 . S
C869 C870 1.400 . S
C869 C874 1.490 . S
C870 H860 0.930 . S
C870 C869 1.400 . S
C870 C873 1.386 . S
H871 C887 0.930 . S
H872 C888 0.931 . S
C873 H861 0.929 . S
C873 C867 1.390 . S
C873 C870 1.386 . S
C874 C869 1.490 . S
C874 C876 1.395 . S
C874 C877 1.403 . S
H875 C881 0.930 . S
C876 H862 0.930 . S
C876 C874 1.395 . S
C876 C879 1.403 . S
C877 C874 1.403 . S
C877 C878 1.524 . S
C877 C881 1.400 . S
C878 H863 0.960 . S
C878 H864 0.960 . S
C878 H865 0.960 . S
C878 C877 1.524 . S
C879 C876 1.403 . S
C879 C880 1.392 . S
C879 C883 1.495 . S
C880 C879 1.392 . S
C880 C881 1.385 . S
C880 C882 1.478 . S
C881 H875 0.930 . S
C881 C877 1.400 . S
C881 C880 1.385 . S
C882 C880 1.478 . S
C882 C884 1.381 . S
C882 C888 1.383 . S
C883 C879 1.495 . S
C883 H889 0.959 . S
C883 H890 0.961 . S
C883 H891 0.960 . S
C884 C882 1.381 . S
C884 C885 1.394 . S
C884 H892 0.930 . S
C885 C884 1.394 . S
C885 C886 1.383 . S
C885 H893 0.929 . S
C886 C885 1.383 . S
C886 C887 1.377 . S
C887 H871 0.930 . S
C887 C886 1.377 . S
C887 C888 1.379 . S
C888 H872 0.931 . S
C888 C882 1.383 . S
C888 C887 1.379 . S
H889 C883 0.959 . S
H890 C883 0.961 . S
H891 C883 0.960 . S
H892 C884 0.930 . S
H893 C885 0.929 . S
H894 C902 0.929 . S
H895 C904 0.930 . S
H896 C906 0.930 . S
H897 C909 0.929 . S
H898 C912 0.930 . S
H899 C914 0.960 . S
H900 C914 0.960 . S
H901 C914 0.960 . S
C902 H894 0.929 . S
C902 C903 1.377 . S
C902 C904 1.384 . S
C903 C902 1.377 . S
C903 C909 1.390 . S
C904 H895 0.930 . S
C904 C902 1.384 . S
C904 C905 1.372 . S
C905 C904 1.372 . S
C905 C906 1.400 . S
C905 C910 1.490 . S
C906 H896 0.930 . S
C906 C905 1.400 . S
C906 C909 1.386 . S
H907 C923 0.930 . S
H908 C924 0.931 . S
C909 H897 0.929 . S
C909 C903 1.390 . S
C909 C906 1.386 . S
C910 C905 1.490 . S
C910 C912 1.395 . S
C910 C913 1.403 . S
H911 C917 0.930 . S
C912 H898 0.930 . S
C912 C910 1.395 . S
C912 C915 1.403 . S
C913 C910 1.403 . S
C913 C914 1.524 . S
C913 C917 1.400 . S
C914 H899 0.960 . S
C914 H900 0.960 . S
C914 H901 0.960 . S
C914 C913 1.524 . S
C915 C912 1.403 . S
C915 C916 1.392 . S
C915 C919 1.495 . S
C916 C915 1.392 . S
C916 C917 1.385 . S
C916 C918 1.478 . S
C917 H911 0.930 . S
C917 C913 1.400 . S
C917 C916 1.385 . S
C918 C916 1.478 . S
C918 C920 1.381 . S
C918 C924 1.383 . S
C919 C915 1.495 . S
C919 H925 0.959 . S
C919 H926 0.961 . S
C919 H927 0.960 . S
C920 C918 1.381 . S
C920 C921 1.394 . S
C920 H928 0.930 . S
C921 C920 1.394 . S
C921 C922 1.383 . S
C921 H929 0.929 . S
C922 C921 1.383 . S
C922 C923 1.377 . S
C923 H907 0.930 . S
C923 C922 1.377 . S
C923 C924 1.379 . S
C924 H908 0.931 . S
C924 C918 1.383 . S
C924 C923 1.379 . S
H925 C919 0.959 . S
H926 C919 0.961 . S
H927 C919 0.960 . S
H928 C920 0.930 . S
H929 C921 0.929 . S
H930 C938 0.929 . S
H931 C940 0.930 . S
H932 C942 0.930 . S
H933 C945 0.929 . S
H934 C948 0.930 . S
H935 C950 0.960 . S
H936 C950 0.960 . S
H937 C950 0.960 . S
C938 H930 0.929 . S
C938 C939 1.377 . S
C938 C940 1.384 . S
C939 C938 1.377 . S
C939 C945 1.390 . S
C940 H931 0.930 . S
C940 C938 1.384 . S
C940 C941 1.372 . S
C941 C940 1.372 . S
C941 C942 1.400 . S
C941 C946 1.490 . S
C942 H932 0.930 . S
C942 C941 1.400 . S
C942 C945 1.386 . S
H943 C959 0.930 . S
H944 C960 0.931 . S
C945 H933 0.929 . S
C945 C939 1.390 . S
C945 C942 1.386 . S
C946 C941 1.490 . S
C946 C948 1.395 . S
C946 C949 1.403 . S
H947 C953 0.930 . S
C948 H934 0.930 . S
C948 C946 1.395 . S
C948 C951 1.403 . S
C949 C946 1.403 . S
C949 C950 1.524 . S
C949 C953 1.400 . S
C950 H935 0.960 . S
C950 H936 0.960 . S
C950 H937 0.960 . S
C950 C949 1.524 . S
C951 C948 1.403 . S
C951 C952 1.392 . S
C951 C955 1.495 . S
C952 C951 1.392 . S
C952 C953 1.385 . S
C952 C954 1.478 . S
C953 H947 0.930 . S
C953 C949 1.400 . S
C953 C952 1.385 . S
C954 C952 1.478 . S
C954 C956 1.381 . S
C954 C960 1.383 . S
C955 C951 1.495 . S
C955 H961 0.959 . S
C955 H962 0.961 . S
C955 H963 0.960 . S
C956 C954 1.381 . S
C956 C957 1.394 . S
C956 H964 0.930 . S
C957 C956 1.394 . S
C957 C958 1.383 . S
C957 H965 0.929 . S
C958 C957 1.383 . S
C958 C959 1.377 . S
C959 H943 0.930 . S
C959 C958 1.377 . S
C959 C960 1.379 . S
C960 H944 0.931 . S
C960 C954 1.383 . S
C960 C959 1.379 . S
H961 C955 0.959 . S
H962 C955 0.961 . S
H963 C955 0.960 . S
H964 C956 0.930 . S
H965 C957 0.929 . S
H966 C974 0.929 . S
H967 C976 0.930 . S
H968 C978 0.930 . S
H969 C981 0.929 . S
H970 C984 0.930 . S
H971 C986 0.960 . S
H972 C986 0.960 . S
H973 C986 0.960 . S
C974 H966 0.929 . S
C974 C975 1.377 . S
C974 C976 1.384 . S
C975 C974 1.377 . S
C975 C981 1.390 . S
C976 H967 0.930 . S
C976 C974 1.384 . S
C976 C977 1.372 . S
C977 C976 1.372 . S
C977 C978 1.400 . S
C977 C982 1.490 . S
C978 H968 0.930 . S
C978 C977 1.400 . S
C978 C981 1.386 . S
H979 C995 0.930 . S
H980 C996 0.931 . S
C981 H969 0.929 . S
C981 C975 1.390 . S
C981 C978 1.386 . S
C982 C977 1.490 . S
C982 C984 1.395 . S
C982 C985 1.403 . S
H983 C989 0.930 . S
C984 H970 0.930 . S
C984 C982 1.395 . S
C984 C987 1.403 . S
C985 C982 1.403 . S
C985 C986 1.524 . S
C985 C989 1.400 . S
C986 H971 0.960 . S
C986 H972 0.960 . S
C986 H973 0.960 . S
C986 C985 1.524 . S
C987 C984 1.403 . S
C987 C988 1.392 . S
C987 C991 1.495 . S
C988 C987 1.392 . S
C988 C989 1.385 . S
C988 C990 1.478 . S
C989 H983 0.930 . S
C989 C985 1.400 . S
C989 C988 1.385 . S
C990 C988 1.478 . S
C990 C992 1.381 . S
C990 C996 1.383 . S
C991 C987 1.495 . S
C991 H997 0.959 . S
C991 H998 0.961 . S
C991 H999 0.960 . S
C992 C990 1.381 . S
C992 C993 1.394 . S
C992 H1000 0.930 . S
C993 C992 1.394 . S
C993 C994 1.383 . S
C993 H1001 0.929 . S
C994 C993 1.383 . S
C994 C995 1.377 . S
C995 H979 0.930 . S
C995 C994 1.377 . S
C995 C996 1.379 . S
C996 H980 0.931 . S
C996 C990 1.383 . S
C996 C995 1.379 . S
H997 C991 0.959 . S
H998 C991 0.961 . S
H999 C991 0.960 . S
H1000 C992 0.930 . S
H1001 C993 0.929 . S
H1002 C1010 0.929 . S
H1003 C1012 0.930 . S
H1004 C1014 0.930 . S
H1005 C1017 0.929 . S
H1006 C1020 0.930 . S
H1007 C1022 0.960 . S
H1008 C1022 0.960 . S
H1009 C1022 0.960 . S
C1010 H1002 0.929 . S
C1010 C1011 1.377 . S
C1010 C1012 1.384 . S
C1011 C1010 1.377 . S
C1011 C1017 1.390 . S
C1012 H1003 0.930 . S
C1012 C1010 1.384 . S
C1012 C1013 1.372 . S
C1013 C1012 1.372 . S
C1013 C1014 1.400 . S
C1013 C1018 1.490 . S
C1014 H1004 0.930 . S
C1014 C1013 1.400 . S
C1014 C1017 1.386 . S
H1015 C1031 0.930 . S
H1016 C1032 0.931 . S
C1017 H1005 0.929 . S
C1017 C1011 1.390 . S
C1017 C1014 1.386 . S
C1018 C1013 1.490 . S
C1018 C1020 1.395 . S
C1018 C1021 1.403 . S
H1019 C1025 0.930 . S
C1020 H1006 0.930 . S
C1020 C1018 1.395 . S
C1020 C1023 1.403 . S
C1021 C1018 1.403 . S
C1021 C1022 1.524 . S
C1021 C1025 1.400 . S
C1022 H1007 0.960 . S
C1022 H1008 0.960 . S
C1022 H1009 0.960 . S
C1022 C1021 1.524 . S
C1023 C1020 1.403 . S
C1023 C1024 1.392 . S
C1023 C1027 1.495 . S
C1024 C1023 1.392 . S
C1024 C1025 1.385 . S
C1024 C1026 1.478 . S
C1025 H1019 0.930 . S
C1025 C1021 1.400 . S
C1025 C1024 1.385 . S
C1026 C1024 1.478 . S
C1026 C1028 1.381 . S
C1026 C1032 1.383 . S
C1027 C1023 1.495 . S
C1027 H1033 0.959 . S
C1027 H1034 0.961 . S
C1027 H1035 0.960 . S
C1028 C1026 1.381 . S
C1028 C1029 1.394 . S
C1028 H1036 0.930 . S
C1029 C1028 1.394 . S
C1029 C1030 1.383 . S
C1029 H1037 0.929 . S
C1030 C1029 1.383 . S
C1030 C1031 1.377 . S
C1031 H1015 0.930 . S
C1031 C1030 1.377 . S
C1031 C1032 1.379 . S
C1032 H1016 0.931 . S
C1032 C1026 1.383 . S
C1032 C1031 1.379 . S
H1033 C1027 0.959 . S
H1034 C1027 0.961 . S
H1035 C1027 0.960 . S
H1036 C1028 0.930 . S
H1037 C1029 0.929 . S
H1038 C1046 0.929 . S
H1039 C1048 0.930 . S
H1040 C1050 0.930 . S
H1041 C1053 0.929 . S
H1042 C1056 0.930 . S
H1043 C1058 0.960 . S
H1044 C1058 0.960 . S
H1045 C1058 0.960 . S
C1046 H1038 0.929 . S
C1046 C1047 1.377 . S
C1046 C1048 1.384 . S
C1047 C1046 1.377 . S
C1047 C1053 1.390 . S
C1048 H1039 0.930 . S
C1048 C1046 1.384 . S
C1048 C1049 1.372 . S
C1049 C1048 1.372 . S
C1049 C1050 1.400 . S
C1049 C1054 1.490 . S
C1050 H1040 0.930 . S
C1050 C1049 1.400 . S
C1050 C1053 1.386 . S
H1051 C1067 0.930 . S
H1052 C1068 0.931 . S
C1053 H1041 0.929 . S
C1053 C1047 1.390 . S
C1053 C1050 1.386 . S
C1054 C1049 1.490 . S
C1054 C1056 1.395 . S
C1054 C1057 1.403 . S
H1055 C1061 0.930 . S
C1056 H1042 0.930 . S
C1056 C1054 1.395 . S
C1056 C1059 1.403 . S
C1057 C1054 1.403 . S
C1057 C1058 1.524 . S
C1057 C1061 1.400 . S
C1058 H1043 0.960 . S
C1058 H1044 0.960 . S
C1058 H1045 0.960 . S
C1058 C1057 1.524 . S
C1059 C1056 1.403 . S
C1059 C1060 1.392 . S
C1059 C1063 1.495 . S
C1060 C1059 1.392 . S
C1060 C1061 1.385 . S
C1060 C1062 1.478 . S
C1061 H1055 0.930 . S
C1061 C1057 1.400 . S
C1061 C1060 1.385 . S
C1062 C1060 1.478 . S
C1062 C1064 1.381 . S
C1062 C1068 1.383 . S
C1063 C1059 1.495 . S
C1063 H1069 0.959 . S
C1063 H1070 0.961 . S
C1063 H1071 0.960 . S
C1064 C1062 1.381 . S
C1064 C1065 1.394 . S
C1064 H1072 0.930 . S
C1065 C1064 1.394 . S
C1065 C1066 1.383 . S
C1065 H1073 0.929 . S
C1066 C1065 1.383 . S
C1066 C1067 1.377 . S
C1067 H1051 0.930 . S
C1067 C1066 1.377 . S
C1067 C1068 1.379 . S
C1068 H1052 0.931 . S
C1068 C1062 1.383 . S
C1068 C1067 1.379 . S
H1069 C1063 0.959 . S
H1070 C1063 0.961 . S
H1071 C1063 0.960 . S
H1072 C1064 0.930 . S
H1073 C1065 0.929 . S
H1074 C1082 0.929 . S
H1075 C1084 0.930 . S
H1076 C1086 0.930 . S
H1077 C1089 0.929 . S
H1078 C1092 0.930 . S
H1079 C1094 0.960 . S
H1080 C1094 0.960 . S
H1081 C1094 0.960 . S
C1082 H1074 0.929 . S
C1082 C1083 1.377 . S
C1082 C1084 1.384 . S
C1083 C1082 1.377 . S
C1083 C1089 1.390 . S
C1084 H1075 0.930 . S
C1084 C1082 1.384 . S
C1084 C1085 1.372 . S
C1085 C1084 1.372 . S
C1085 C1086 1.400 . S
C1085 C1090 1.490 . S
C1086 H1076 0.930 . S
C1086 C1085 1.400 . S
C1086 C1089 1.386 . S
H1087 C1103 0.930 . S
H1088 C1104 0.931 . S
C1089 H1077 0.929 . S
C1089 C1083 1.390 . S
C1089 C1086 1.386 . S
C1090 C1085 1.490 . S
C1090 C1092 1.395 . S
C1090 C1093 1.403 . S
H1091 C1097 0.930 . S
C1092 H1078 0.930 . S
C1092 C1090 1.395 . S
C1092 C1095 1.403 . S
C1093 C1090 1.403 . S
C1093 C1094 1.524 . S
C1093 C1097 1.400 . S
C1094 H1079 0.960 . S
C1094 H1080 0.960 . S
C1094 H1081 0.960 . S
C1094 C1093 1.524 . S
C1095 C1092 1.403 . S
C1095 C1096 1.392 . S
C1095 C1099 1.495 . S
C1096 C1095 1.392 . S
C1096 C1097 1.385 . S
C1096 C1098 1.478 . S
C1097 H1091 0.930 . S
C1097 C1093 1.400 . S
C1097 C1096 1.385 . S
C1098 C1096 1.478 . S
C1098 C1100 1.381 . S
C1098 C1104 1.383 . S
C1099 C1095 1.495 . S
C1099 H1105 0.959 . S
C1099 H1106 0.961 . S
C1099 H1107 0.960 . S
C1100 C1098 1.381 . S
C1100 C1101 1.394 . S
C1100 H1108 0.930 . S
C1101 C1100 1.394 . S
C1101 C1102 1.383 . S
C1101 H1109 0.929 . S
C1102 C1101 1.383 . S
C1102 C1103 1.377 . S
C1103 H1087 0.930 . S
C1103 C1102 1.377 . S
C1103 C1104 1.379 . S
C1104 H1088 0.931 . S
C1104 C1098 1.383 . S
C1104 C1103 1.379 . S
H1105 C1099 0.959 . S
H1106 C1099 0.961 . S
H1107 C1099 0.960 . S
H1108 C1100 0.930 . S
H1109 C1101 0.929 . S
C255 C7 1.760 . S
C274 C152 1.660 . S
C291 C30 1.521 . S
C310 C163 1.469 . S
C346 C182 1.570 . S
C327 N58 1.608 . S
C382 C199 1.355 . S
C363 N81 1.371 . S
C418 C226 1.605 . S
C399 C99 1.642 . S
C454 C235 1.348 . S
C435 N127 1.400 . S
C471 N25 1.612 . S
C490 C188 1.598 . S
C507 C62 1.493 1_556 S
C526 C208 1.477 . S
C562 C217 1.658 . S
C543 C85 1.705 . S
C598 C244 1.357 . S
C579 N94 1.401 . S
C615 C131 1.674 . S
C634 C146 1.621 . S
C670 C172 1.330 . S
C651 N2 1.366 . S
C706 C200 1.696 . S
C687 C16 1.760 . S
C723 C39 1.534 . S
C742 C224 1.493 . S
C778 C236 1.622 . S
C759 N48 1.645 . S
C795 N71 1.415 . S
C814 C154 1.358 . S
C831 C108 1.695 . S
C850 C164 1.642 . S
C867 N117 1.447 . S
C886 C181 1.416 . S
C903 N35 1.652 . S
C922 C242 1.584 . S
C958 C145 1.502 . S
C939 C53 1.568 . S
C975 C76 1.794 . S
C994 C170 1.729 . S
C1011 N104 1.438 . S
C1030 C190 1.360 . S
C1047 C122 1.687 . S
C1066 C206 1.613 . S
C1083 N12 1.391 . S
C1102 C218 1.387 . S
