# Generated by pormake.
# Topology ftw, (4,12)-cn, num edge types: 1
# Building blocks:
#     Node 0, Type 0, BuildingBlock: NAWXER_clean_linker_0, # of connection points: 4
#     Node 1, Type 0, BuildingBlock: NAWXER_clean_linker_0, # of connection points: 4
#     Node 2, Type 0, BuildingBlock: NAWXER_clean_linker_0, # of connection points: 4
#     Node 3, Type 1, BuildingBlock: EZIPEK_clean_sbu_0, # of connection points: 12
#     Edge 4, Type (0, 1), BuildingBlock: XUDNAN_clean_linker_2, # of connection points: 2
#     Edge 5, Type (0, 1), BuildingBlock: XUDNAN_clean_linker_2, # of connection points: 2
#     Edge 6, Type (0, 1), BuildingBlock: XUDNAN_clean_linker_2, # of connection points: 2
#     Edge 7, Type (0, 1), BuildingBlock: XUDNAN_clean_linker_2, # of connection points: 2
#     Edge 8, Type (0, 1), BuildingBlock: XUDNAN_clean_linker_2, # of connection points: 2
#     Edge 9, Type (0, 1), BuildingBlock: XUDNAN_clean_linker_2, # of connection points: 2
#     Edge 10, Type (0, 1), BuildingBlock: XUDNAN_clean_linker_2, # of connection points: 2
#     Edge 11, Type (0, 1), BuildingBlock: XUDNAN_clean_linker_2, # of connection points: 2
#     Edge 12, Type (0, 1), BuildingBlock: XUDNAN_clean_linker_2, # of connection points: 2
#     Edge 13, Type (0, 1), BuildingBlock: XUDNAN_clean_linker_2, # of connection points: 2
#     Edge 14, Type (0, 1), BuildingBlock: XUDNAN_clean_linker_2, # of connection points: 2
#     Edge 15, Type (0, 1), BuildingBlock: XUDNAN_clean_linker_2, # of connection points: 2
# Relax obj value: 0.032
# Max RMSD: 0.131
# Mean RMSD: 0.100
data_MOF--net-ftw--node1-EZIPEK_clean_sbu_0--node2-NAWXER_clean_linker_0--edge1-XUDNAN_clean_linker_2
_symmetry_space_group_name_H-M    P1
_symmetry_Int_Tables_number       1
_symmetry_cell_setting            triclinic
loop_
_symmetry_equiv_pos_as_xyz
'x, y, z'
_cell_length_a     27.696881
_cell_length_b     28.578795
_cell_length_c     28.136527
_cell_angle_alpha  89.812666
_cell_angle_beta   89.786781
_cell_angle_gamma 90.051385
loop_
_atom_site_label
_atom_site_type_symbol
_atom_site_fract_x
_atom_site_fract_y
_atom_site_fract_z
_atom_type_partial_charge
C0 C 0.00542 0.67794 0.60766 0.0
C1 C 0.97009 0.67261 0.6434 0.0
C2 C 0.00831 0.6459 0.56997 0.0
C3 C 0.97572 0.60821 0.56729 0.0
C4 C 0.93574 0.63667 0.63869 0.0
C5 C 0.93874 0.60475 0.60135 0.0
C6 C 0.98414 0.56818 0.53473 0.0
C7 C 0.94386 0.68358 0.4307 0.0
C8 C 0.97813 0.6936 0.39497 0.0
C9 C 0.9505 0.64594 0.4621 0.0
C10 C 0.99158 0.61728 0.45851 0.0
C11 C 0.02022 0.66619 0.39277 0.0
C12 C 0.02658 0.6282 0.42384 0.0
C13 C -0.00503 0.57255 0.48577 0.0
C14 C 0.98391 0.37891 0.40779 0.0
C15 C 0.01974 0.38379 0.37245 0.0
C16 C 0.98059 0.4113 0.44522 0.0
C17 C 0.01326 0.44894 0.44814 0.0
C18 C 0.05399 0.41984 0.37731 0.0
C19 C 0.05056 0.4521 0.41438 0.0
C20 C 0.00489 0.48906 0.48077 0.0
C21 C 0.03777 0.37037 0.58457 0.0
C22 C 0.00302 0.36247 0.62054 0.0
C23 C 0.03394 0.40873 0.55353 0.0
C24 C -0.00488 0.44013 0.55744 0.0
C25 C 0.9639 0.39365 0.6239 0.0
C26 C 0.96017 0.43199 0.59296 0.0
C27 C -0.00618 0.48476 0.52981 0.0
H28 H 0.03256 0.7051 0.61035 0.0
H29 H 0.03779 0.64892 0.54476 0.0
H30 H 0.90746 0.63211 0.665 0.0
H31 H 0.91314 0.57608 0.60015 0.0
H32 H 0.91112 0.7041 0.4335 0.0
H33 H 0.92224 0.63788 0.48754 0.0
H34 H 0.04707 0.67259 0.36543 0.0
H35 H 0.05833 0.60642 0.41986 0.0
H36 H 0.95678 0.35176 0.40504 0.0
H37 H 0.95083 0.40846 0.47014 0.0
H38 H 0.0827 0.42414 0.35141 0.0
H39 H 0.07623 0.4807 0.41568 0.0
H40 H 0.06892 0.34775 0.58127 0.0
H41 H 0.06247 0.41482 0.52783 0.0
H42 H 0.93603 0.38851 0.6505 0.0
H43 H 0.93007 0.45582 0.59725 0.0
N44 N 0.98394 0.52458 0.55439 0.0
N45 N 0.00503 0.53277 0.46108 0.0
C46 C 0.58522 0.06101 0.6453 0.0
C47 C 0.61674 0.02592 0.66107 0.0
C48 C 0.55122 0.0512 0.6103 0.0
C49 C 0.54888 1.00638 0.59025 0.0
C50 C 0.61307 0.98059 0.64236 0.0
C51 C 0.57969 0.97103 0.60663 0.0
C52 C 0.51775 0.99799 0.54906 0.0
C53 C 0.41195 0.99373 0.67297 0.0
C54 C 0.38003 0.03191 0.67259 0.0
C55 C 0.44256 0.98579 0.63425 0.0
C56 C 0.44105 1.01568 0.59464 0.0
C57 C 0.38012 0.06274 0.63367 0.0
C58 C 0.4101 0.05442 0.59482 0.0
C59 C 0.46752 1.00437 0.55086 0.0
C60 C 0.39548 0.93667 0.36604 0.0
C61 C 0.36042 0.97111 0.35647 0.0
C62 C 0.43062 0.94417 0.40064 0.0
C63 C 0.43075 0.98582 0.42669 0.0
C64 C 0.36187 1.0134 0.38186 0.0
C65 C 0.39627 1.02035 0.4171 0.0
C66 C 0.46283 0.99144 0.46767 0.0
C67 C 0.56212 0.02902 0.34726 0.0
C68 C 0.60609 1.0047 0.34467 0.0
C69 C 0.53005 1.02085 0.3847 0.0
C70 C 0.54093 0.98762 0.42 0.0
C71 C 0.61569 0.96951 0.37833 0.0
C72 C 0.58348 0.96125 0.41581 0.0
C73 C 0.5135 0.98703 0.46524 0.0
H74 H 0.58776 0.09622 0.65924 0.0
H75 H 0.52812 0.07906 0.59747 0.0
H76 H 0.63753 0.95324 0.6538 0.0
H77 H 0.57853 0.93641 0.59111 0.0
H78 H 0.41245 0.96957 0.70272 0.0
H79 H 0.46581 0.95533 0.63436 0.0
H80 H 0.35542 0.09209 0.63232 0.0
H81 H 0.40834 0.07764 0.56434 0.0
H82 H 0.39512 0.90342 0.34774 0.0
H83 H 0.45645 0.91675 0.40836 0.0
H84 H 0.33648 0.04128 0.37464 0.0
H85 H 0.39585 0.05269 0.43711 0.0
H86 H 0.55356 0.05605 0.32156 0.0
H87 H 0.49854 0.04303 0.38765 0.0
H88 H 0.64946 0.95045 0.3775 0.0
H89 H 0.59302 0.93591 0.44292 0.0
N90 N 0.53905 0.98995 0.50631 0.0
N91 N 0.44186 1.00043 0.51023 0.0
C92 C 0.4126 0.37642 0.95982 0.0
C93 C 0.37924 0.36225 0.99486 0.0
C94 C 0.44332 0.41448 0.96765 0.0
C95 C 0.44142 0.43906 0.01076 0.0
C96 C 0.37847 0.38597 0.03854 0.0
C97 C 0.40894 0.42429 0.04621 0.0
C98 C 0.46903 0.48305 0.01698 0.0
C99 C 0.5837 0.37004 1.00749 0.0
C100 C 0.62248 0.37897 0.97612 0.0
C101 C 0.54918 0.40461 0.01705 0.0
C102 C 0.55163 0.4484 0.9942 0.0
C103 C 0.62467 0.42294 0.95353 0.0
C104 C 0.5896 0.45682 0.96209 0.0
C105 C 0.5188 0.48772 1.00659 0.0
C106 C 0.57936 0.67975 0.05918 0.0
C107 C 0.60072 0.6941 0.01613 0.0
C108 C 0.5488 0.64054 0.06046 0.0
C109 C 0.5401 0.61492 0.01885 0.0
C110 C 0.59116 0.66879 0.97456 0.0
C111 C 0.56169 0.62924 0.97605 0.0
C112 C 0.51333 0.57027 0.01987 0.0
C113 C 0.39804 0.68294 0.0239 0.0
C114 C 0.35945 0.67568 0.05588 0.0
C115 C 0.43278 0.6481 0.01633 0.0
C116 C 0.43088 0.60564 0.04176 0.0
C117 C 0.35774 0.63309 0.08117 0.0
C118 C 0.39303 0.59885 0.07442 0.0
C119 C 0.46372 0.56574 0.03097 0.0
H120 H 0.41413 0.35874 0.92585 0.0
H121 H 0.46726 0.42575 0.93931 0.0
H122 H 0.35275 0.3763 0.06596 0.0
H123 H 0.40642 0.44307 0.07951 0.0
H124 H 0.5802 0.3366 0.02532 0.0
H125 H 0.52161 0.39736 0.04341 0.0
H126 H 0.65438 0.43218 0.93025 0.0
H127 H 0.59299 0.49036 0.94429 0.0
H128 H 0.58622 0.6989 0.09163 0.0
H129 H 0.5331 0.62947 0.09398 0.0
H130 H 0.60743 0.67907 0.94102 0.0
H131 H 0.55594 0.60952 0.94372 0.0
H132 H 0.40119 0.71524 1.00397 0.0
H133 H 0.45973 0.65402 0.9891 0.0
H134 H 0.32821 0.62517 0.10518 0.0
H135 H 0.38992 0.56627 0.09401 0.0
N136 N 0.44383 0.52213 0.02913 0.0
N137 N 0.53852 0.53123 1.0083 0.0
C138 C 0.00454 0.12836 0.88128 0.0
C139 C 0.00451 0.15069 0.11289 0.0
C140 C 0.98437 0.90306 0.90445 0.0
C141 C 0.97429 0.9254 0.13443 0.0
C142 C 0.09733 0.90633 0.02533 0.0
C143 C 0.11858 0.12964 0.99581 0.0
C144 C 0.86327 0.92593 0.01139 0.0
C145 C 0.88585 0.14935 0.99365 0.0
C146 C 0.87509 0.04522 0.12181 0.0
C147 C 0.10663 1.01142 0.12278 0.0
C148 C 0.87764 0.03369 0.89265 0.0
C149 C 0.10959 1.01773 0.8953 0.0
Eu150 Eu 4e-05 0.1156 0.99947 0.0
O151 O 0.03879 0.06985 0.04776 0.0
O152 O 0.95416 0.06778 0.96203 0.0
Eu153 Eu 0.08177 1.01986 0.009 0.0
Eu154 Eu 0.90169 0.03559 1.0077 0.0
O155 O 0.03746 0.06064 0.963 0.0
O156 O 0.95324 0.07664 0.04669 0.0
Eu157 Eu -0.00732 1.01826 0.9187 0.0
Eu158 Eu 0.99193 0.03565 0.09898 0.0
O159 O 0.03105 0.97705 0.97043 0.0
O160 O 0.02875 0.98712 0.05376 0.0
O161 O 0.94536 0.99396 0.05451 0.0
O162 O 0.94516 0.98559 0.96974 0.0
Eu163 Eu 0.98249 0.93896 0.01715 0.0
O164 O 0.00425 0.14783 0.9246 0.0
O165 O 0.00398 0.16033 0.06624 0.0
O166 O 0.98292 0.89353 0.95103 0.0
O167 O 0.97194 0.90746 0.0907 0.0
O168 O 0.11581 0.94788 0.01339 0.0
O169 O 0.1293 0.08505 1.00559 0.0
O170 O 0.8543 0.97161 1.00816 0.0
O171 O 0.86724 0.10713 1.00218 0.0
O172 O 0.92053 0.04534 0.13734 0.0
O173 O 0.06204 1.02041 0.13872 0.0
O174 O 0.92297 0.02661 0.87846 0.0
O175 O 0.06434 1.01573 0.87949 0.0
O176 O 0.90695 0.90648 0.01597 0.0
O177 O 0.05045 0.8963 0.03055 0.0
O178 O 0.9327 0.15977 0.9903 0.0
O179 O 0.07432 0.14725 0.9911 0.0
O180 O 0.00151 0.10781 0.13201 0.0
O181 O 0.98211 0.97035 0.14518 0.0
O182 O 0.00066 0.08264 0.87245 0.0
O183 O 0.98746 0.94591 0.88543 0.0
O184 O 0.12341 1.01855 0.94044 0.0
O185 O 0.12105 1.01341 0.07775 0.0
O186 O 0.86214 0.03684 0.93745 0.0
O187 O 0.86069 0.04135 0.0769 0.0
H188 H 0.00367 0.28799 0.36304 0.0
H189 H 0.03347 0.41403 0.28141 0.0
H190 H 0.03345 0.36812 0.20767 0.0
H191 H 0.07766 0.21028 0.2922 0.0
H192 H 0.03644 0.16157 0.29614 0.0
H193 H 0.03868 0.20401 0.34329 0.0
H194 H 0.94692 0.21884 0.33431 0.0
H195 H 0.94441 0.17639 0.28717 0.0
H196 H 0.92313 0.23516 0.27705 0.0
H197 H 0.02982 0.30981 0.14252 0.0
H198 H 0.02321 0.24206 0.0894 0.0
H199 H -0.0044 0.15199 0.21136 0.0
C200 C 0.01004 0.30588 0.32962 0.0
C201 C 0.01921 0.35472 0.32832 0.0
C202 C 0.02744 0.37665 0.28371 0.0
C203 C 0.02717 0.35089 0.24145 0.0
C204 C 0.01853 0.30298 0.24396 0.0
C205 C 0.01011 0.28051 0.28677 0.0
C206 C 0.00197 0.22843 0.27899 0.0
C207 C 0.04102 0.19936 0.30415 0.0
C208 C 0.95108 0.21386 0.29535 0.0
C209 C 0.00705 0.22539 0.22523 0.0
C210 C 0.01652 0.26893 0.20593 0.0
C211 C 0.02243 0.27548 0.15719 0.0
C212 C 0.01852 0.23658 0.12723 0.0
C213 C 0.00886 0.19131 0.14585 0.0
C214 C 0.00318 0.1859 0.19575 0.0
H215 H 0.66586 0.94926 0.29029 0.0
H216 H 0.63272 0.09411 0.323 0.0
H217 H 0.69856 0.12008 0.27003 0.0
H218 H 0.79444 0.96245 0.28711 0.0
H219 H 0.80328 0.92276 0.23819 0.0
H220 H 0.75253 0.9151 0.27768 0.0
H221 H 0.69401 0.91864 0.20605 0.0
H222 H 0.74467 0.92589 0.16639 0.0
H223 H 0.69637 0.96813 0.1662 0.0
H224 H 0.76936 0.13068 0.2159 0.0
H225 H 0.83841 0.12459 0.15981 0.0
H226 H 0.82556 0.97351 0.16189 0.0
C227 C 0.67243 0.98641 0.28615 0.0
C228 C 0.64391 1.01967 0.31044 0.0
C229 C 0.65348 0.06802 0.30402 0.0
C230 C 0.69107 0.08314 0.27435 0.0
C231 C 0.71873 0.04951 0.25127 0.0
C232 C 0.70974 1.00216 0.25645 0.0
C233 C 0.74492 0.97335 0.22741 0.0
C234 C 0.77561 0.94155 0.25953 0.0
C235 C 0.7184 0.94484 0.18925 0.0
C236 C 0.77512 1.01196 0.20538 0.0
C237 C 0.75954 0.05564 0.21978 0.0
C238 C 0.78192 0.09672 0.20432 0.0
C239 C 0.82103 0.09304 0.1728 0.0
C240 C 0.83686 0.04869 0.15738 0.0
C241 C 0.81388 1.00772 0.1738 0.0
H242 H 0.039 0.76191 0.35779 0.0
H243 H 0.89408 0.70533 0.34628 0.0
H244 H 0.87678 0.76056 0.28105 0.0
H245 H 0.00553 0.88403 0.33316 0.0
H246 H 0.05967 0.89611 0.29953 0.0
H247 H 0.06059 0.85315 0.34654 0.0
H248 H 0.09284 0.79119 0.28744 0.0
H249 H 0.0919 0.834 0.24034 0.0
H250 H 0.05972 0.77958 0.2337 0.0
H251 H 0.87684 0.81699 0.21288 0.0
H252 H 0.89278 0.87537 0.14956 0.0
H253 H 0.0355 0.90007 0.20697 0.0
C254 C 0.00355 0.76143 0.3417 0.0
C255 C 0.96776 0.72935 0.35748 0.0
C256 C 0.92182 0.72993 0.33546 0.0
C257 C 0.91171 0.76105 0.29814 0.0
C258 C 0.9477 0.79197 0.28333 0.0
C259 C -0.00745 0.7929 0.30468 0.0
C260 C 0.02473 0.82974 0.28154 0.0
C261 C 0.03842 0.86803 0.31733 0.0
C262 C 0.06996 0.80727 0.25945 0.0
C263 C 0.99118 0.8487 0.24344 0.0
C264 C 0.94701 0.82613 0.24501 0.0
C265 C 0.91099 0.8354 0.21178 0.0
C266 C 0.92032 0.8685 0.17595 0.0
C267 C 0.96494 0.89252 0.17403 0.0
C268 C 0.0007 0.88278 0.20841 0.0
H269 H 0.2659 1.0016 0.35704 0.0
H270 H 0.37013 0.92454 0.27193 0.0
H271 H 0.31003 0.91662 0.2086 0.0
H272 H 0.15469 0.94136 0.31301 0.0
H273 H 0.12067 0.99507 0.31234 0.0
H274 H 0.16786 0.98665 0.35551 0.0
H275 H 0.20902 0.06339 0.32707 0.0
H276 H 0.16216 0.0719 0.28385 0.0
H277 H 0.22445 0.07023 0.26512 0.0
H278 H 0.24471 0.92479 0.15142 0.0
H279 H 0.17885 0.9519 0.10074 0.0
H280 H 0.11686 0.02876 0.21917 0.0
C281 C 0.27607 0.98268 0.32529 0.0
C282 C 0.32287 0.9634 0.31979 0.0
C283 C 0.33434 0.93866 0.27771 0.0
C284 C 0.30042 0.93405 0.24139 0.0
C285 C 0.25523 0.95443 0.24757 0.0
C286 C 0.24285 0.97834 0.28834 0.0
C287 C 0.19387 1.00162 0.28347 0.0
C288 C 0.1571 0.97987 0.31815 0.0
C289 C 0.19764 0.05493 0.29026 0.0
C290 C 0.18199 0.98919 0.23257 0.0
C291 C 0.21743 0.96084 0.21324 0.0
C292 C 0.21658 0.9467 0.16616 0.0
C293 C 0.17916 0.9628 0.13757 0.0
C294 C 0.14319 0.99322 0.15589 0.0
C295 C 0.14386 1.00556 0.20438 0.0
H296 H 0.98505 0.76826 0.65348 0.0
H297 H 0.95926 0.64083 0.73416 0.0
H298 H 0.9607 0.68581 0.80851 0.0
H299 H 0.06696 0.82151 0.73838 0.0
H300 H 0.0443 0.87996 0.72935 0.0
H301 H 0.04167 0.83797 0.68179 0.0
H302 H 0.94943 0.85112 0.67477 0.0
H303 H 0.95181 0.89312 0.72231 0.0
H304 H 0.91165 0.84361 0.72656 0.0
H305 H 0.96466 0.74342 0.87415 0.0
H306 H 0.96986 0.81092 0.92772 0.0
H307 H -0.00688 0.90265 0.80614 0.0
C308 C 0.97992 0.74989 0.68683 0.0
C309 C 0.97146 0.70098 0.6878 0.0
C310 C 0.96478 0.67831 0.73226 0.0
C311 C 0.96589 0.70351 0.77482 0.0
C312 C 0.97382 0.75155 0.77265 0.0
C313 C 0.98071 0.77467 0.72995 0.0
C314 C 0.98796 0.82677 0.73806 0.0
C315 C 0.03821 0.84246 0.72088 0.0
C316 C 0.94781 0.85533 0.714 0.0
C317 C 0.98393 0.82909 0.79189 0.0
C318 C 0.97596 0.78518 0.81096 0.0
C319 C 0.97093 0.77804 0.85969 0.0
C320 C 0.97401 0.8168 0.88989 0.0
C321 C 0.98192 0.86245 0.87146 0.0
C322 C 0.98698 0.86841 0.8216 0.0
H323 H 0.31896 0.96561 0.70848 0.0
H324 H 0.35854 0.112 0.72064 0.0
H325 H 0.29181 0.12403 0.7779 0.0
H326 H 0.19226 0.98281 0.71152 0.0
H327 H 0.17925 0.93099 0.74596 0.0
H328 H 0.23175 0.93281 0.70802 0.0
H329 H 0.28668 0.91251 0.77959 0.0
H330 H 0.23426 0.90987 0.81759 0.0
H331 H 0.28384 0.94795 0.83241 0.0
H332 H 0.22058 0.12074 0.83148 0.0
H333 H 0.15003 0.10144 0.88192 0.0
H334 H 0.15518 0.95759 0.83409 0.0
C335 C 0.31412 0.99992 0.72403 0.0
C336 C 0.34386 0.0379 0.71062 0.0
C337 C 0.33595 0.08259 0.73065 0.0
C338 C 0.29824 0.0897 0.76305 0.0
C339 C 0.26885 0.05177 0.77469 0.0
C340 C 0.27643 1.00769 0.75612 0.0
C341 C 0.23878 0.97321 0.77373 0.0
C342 C 0.20874 0.95383 0.73233 0.0
C343 C 0.2623 0.93355 0.80255 0.0
C344 C 0.20884 1.00486 0.80513 0.0
C345 C 0.22691 0.05004 0.80506 0.0
C346 C 0.20602 0.08559 0.83176 0.0
C347 C 0.16606 0.07444 0.86002 0.0
C348 C 0.14751 0.0284 0.86097 0.0
C349 C 0.16863 0.99318 0.83301 0.0
H350 H 0.98091 0.35888 0.71702 0.0
H351 H 0.03517 0.27379 0.60086 0.0
H352 H 0.04402 0.2071 0.65573 0.0
H353 H 0.05743 0.31084 0.80882 0.0
H354 H 0.01132 0.31189 0.85418 0.0
H355 H 0.00997 0.3539 0.80631 0.0
H356 H 0.92306 0.32791 0.78521 0.0
H357 H 0.92411 0.28593 0.83311 0.0
H358 H 0.91106 0.26703 0.77347 0.0
H359 H 0.04601 0.1492 0.72181 0.0
H360 H 0.03968 0.10249 0.79495 0.0
H361 H 0.98279 0.22309 0.87017 0.0
C362 C -0.00565 0.32616 0.70295 0.0
C363 C 0.00766 0.322 0.6543 0.0
C364 C 0.02557 0.27848 0.63787 0.0
C365 C 0.03048 0.24017 0.66879 0.0
C366 C 0.01727 0.24559 0.7163 0.0
C367 C -0.00057 0.28735 0.73344 0.0
C368 C 0.98733 0.28326 0.78616 0.0
C369 C 0.01837 0.31698 0.8156 0.0
C370 C 0.93317 0.29152 0.79499 0.0
C371 C 0.00101 0.23259 0.79581 0.0
C372 C 0.01824 0.21175 0.75485 0.0
C373 C 0.03252 0.16513 0.75407 0.0
C374 C 0.02859 0.13881 0.79597 0.0
C375 C 0.01049 0.15887 0.83855 0.0
C376 C -0.00294 0.20673 0.83844 0.0
H377 H 0.63661 0.98638 0.74742 0.0
H378 H 0.68646 0.09082 0.64645 0.0
H379 H 0.75782 0.10623 0.69663 0.0
H380 H 0.67598 0.05034 0.85436 0.0
H381 H 0.6928 0.99753 0.88533 0.0
H382 H 0.64461 0.99635 0.8425 0.0
H383 H 0.68866 0.93016 0.79686 0.0
H384 H 0.737 0.93149 0.83941 0.0
H385 H 0.74995 0.93921 0.77703 0.0
H386 H 0.82719 0.10393 0.75246 0.0
H387 H 0.88687 0.09068 0.81629 0.0
H388 H 0.78909 0.99269 0.8847 0.0
C389 C 0.66237 1.01286 0.73643 0.0
C390 C 0.65647 0.03759 0.69342 0.0
C391 C 0.69054 0.07197 0.67967 0.0
C392 C 0.73108 0.08078 0.70776 0.0
C393 C 0.73631 0.05543 0.74975 0.0
C394 C 0.70253 1.02279 0.76459 0.0
C395 C 0.71702 1.00034 0.81121 0.0
C396 C 0.68042 1.01185 0.85069 0.0
C397 C 0.72356 0.94715 0.80577 0.0
C398 C 0.7648 0.02459 0.81952 0.0
C399 C 0.77537 0.05597 0.78344 0.0
C400 C 0.81901 0.08013 0.7814 0.0
C401 C 0.85269 0.07221 0.81746 0.0
C402 C 0.842 0.04103 0.85517 0.0
C403 C 0.79748 1.01723 0.85647 0.0
H404 H 0.3493 0.28853 0.05156 0.0
H405 H 0.32491 0.35484 0.91476 0.0
H406 H 0.25929 0.29889 0.89849 0.0
H407 H 0.32386 0.1679 0.01183 0.0
H408 H 0.29442 0.15193 0.06679 0.0
H409 H 0.34179 0.19523 0.06667 0.0
H410 H 0.28419 0.25432 0.10737 0.0
H411 H 0.23668 0.21129 0.10749 0.0
H412 H 0.22696 0.26761 0.08015 0.0
H413 H 0.19125 0.24235 0.9004 0.0
H414 H 0.12781 0.184 0.91799 0.0
H415 H 0.19784 0.14973 0.05117 0.0
C416 C 0.33043 0.29086 0.018 0.0
C417 C 0.34244 0.32588 0.98425 0.0
C418 C 0.31691 0.32787 0.94076 0.0
C419 C 0.27941 0.29638 0.93129 0.0
C420 C 0.26815 0.26265 0.96541 0.0
C421 C 0.29318 0.25919 1.00765 0.0
C422 C 0.27278 0.22022 0.03863 0.0
C423 C 0.31047 0.18152 0.04643 0.0
C424 C 0.25404 0.23953 0.08622 0.0
C425 C 0.23164 0.2032 1.00766 0.0
C426 C 0.22969 0.22838 0.96564 0.0
C427 C 0.19291 0.22179 0.93272 0.0
C428 C 0.15703 0.18875 0.94305 0.0
C429 C 0.15856 0.16215 0.9855 0.0
C430 C 0.19663 0.16901 0.01799 0.0
H431 H 0.32337 0.7374 0.98841 0.0
H432 H 0.30537 0.69519 0.1361 0.0
H433 H 0.23542 0.74764 0.14306 0.0
H434 H 0.29479 0.86084 0.00991 0.0
H435 H 0.26522 0.86761 0.95334 0.0
H436 H 0.31369 0.82611 0.95981 0.0
H437 H 0.25761 0.76038 0.92887 0.0
H438 H 0.20881 0.80155 0.92297 0.0
H439 H 0.20084 0.74948 0.95848 0.0
H440 H 0.16353 0.80037 0.13252 0.0
H441 H 0.10152 0.85791 0.10802 0.0
H442 H 0.17186 0.87298 0.97097 0.0
C443 C 0.30562 0.73963 0.02264 0.0
C444 C 0.31993 0.71105 0.06141 0.0
C445 C 0.29464 0.71524 0.10521 0.0
C446 C 0.25493 0.74534 0.10975 0.0
C447 C 0.24136 0.77204 0.07057 0.0
C448 C 0.26658 0.77033 0.02819 0.0
C449 C 0.24525 0.80371 0.99189 0.0
C450 C 0.28192 0.84184 0.97793 0.0
C451 C 0.22705 0.77718 0.94797 0.0
C452 C 0.20366 0.82389 0.02031 0.0
C453 C 0.20169 0.80466 0.06544 0.0
C454 C 0.16502 0.81603 0.09747 0.0
C455 C 0.12981 0.84835 0.08319 0.0
C456 C 0.13214 0.86947 0.03772 0.0
C457 C 0.16957 0.85724 1.00598 0.0
H458 H 0.65762 0.31268 0.03944 0.0
H459 H 0.67716 0.36478 0.89516 0.0
H460 H 0.74822 0.31429 0.88585 0.0
H461 H 0.77948 0.29991 0.07078 0.0
H462 H 0.77173 0.24523 0.10202 0.0
H463 H 0.72236 0.28603 0.09838 0.0
H464 H 0.66795 0.22209 0.06133 0.0
H465 H 0.71695 0.1809 0.06559 0.0
H466 H 0.6884 0.19145 0.00909 0.0
H467 H 0.82147 0.26336 0.8944 0.0
H468 H 0.88367 0.20469 0.91545 0.0
H469 H 0.81029 0.17775 0.04913 0.0
C470 C 0.67592 0.31302 1.00541 0.0
C471 C 0.66191 0.344 0.96852 0.0
C472 C 0.68779 0.34299 0.92484 0.0
C473 C 0.72815 0.31405 0.91893 0.0
C474 C 0.7416 0.28516 0.95646 0.0
C475 C 0.71553 0.28338 0.99835 0.0
C476 C 0.73664 0.24773 0.03243 0.0
C477 C 0.75356 0.27114 0.07863 0.0
C478 C 0.70032 0.20819 0.04269 0.0
C479 C 0.77907 0.23034 1.00335 0.0
C480 C 0.78174 0.25301 0.95994 0.0
C481 C 0.81935 0.24484 0.92796 0.0
C482 C 0.85462 0.21186 0.94029 0.0
C483 C 0.85131 0.18697 0.98368 0.0
C484 C 0.81317 0.1963 0.01559 0.0
H485 H 0.68558 0.70909 0.06433 0.0
H486 H 0.58911 0.77084 0.96063 0.0
H487 H 0.64571 0.83688 0.94957 0.0
H488 H 0.72904 0.81963 0.11637 0.0
H489 H 0.79001 0.79872 0.1231 0.0
H490 H 0.7402 0.75817 0.12593 0.0
H491 H 0.77948 0.70922 0.05875 0.0
H492 H 0.82907 0.74992 0.05542 0.0
H493 H 0.79436 0.73706 1.00299 0.0
H494 H 0.71216 0.89451 0.94801 0.0
H495 H 0.78605 0.9416 0.95539 0.0
H496 H 0.84356 0.84182 0.05705 0.0
C497 C 0.67617 0.7371 0.04006 0.0
C498 C 0.63287 0.73541 0.0136 0.0
C499 C 0.62202 0.77187 0.98129 0.0
C500 C 0.65391 0.80939 0.97481 0.0
C501 C 0.6967 0.80971 1.00066 0.0
C502 C 0.70806 0.77468 0.03268 0.0
C503 C 0.7577 0.78278 0.05409 0.0
C504 C 0.754 0.79027 0.10808 0.0
C505 C 0.79218 0.74234 0.04208 0.0
C506 C 0.77249 0.82754 0.0287 0.0
C507 C 0.73636 0.84251 0.99847 0.0
C508 C 0.74069 0.8832 0.97158 0.0
C509 C 0.78283 0.90971 0.97604 0.0
C510 C 0.82055 0.89529 1.00665 0.0
C511 C 0.8155 0.85335 0.03301 0.0
loop_
_geom_bond_atom_site_label_1
_geom_bond_atom_site_label_2
_geom_bond_distance
_geom_bond_site_symmetry_2
_ccdc_geom_bond_type
C0 C1 1.384 1_455 S
C0 C2 1.384 . S
C0 H28 0.931 . S
C1 C0 1.384 1_655 S
C1 C4 1.382 . S
C2 C0 1.384 . S
C2 C3 1.381 1_455 S
C2 H29 0.930 . S
C3 C2 1.381 1_655 S
C3 C5 1.381 . S
C3 C6 1.487 . S
C4 C1 1.382 . S
C4 C5 1.387 . S
C4 H30 0.930 . S
C5 C3 1.381 . S
C5 C4 1.387 . S
C5 H31 0.931 . S
C6 C3 1.487 . S
C6 C13 1.399 1_655 S
C6 N44 1.343 . S
C7 C8 1.384 1_655 S
C7 C9 1.384 . S
C7 H32 0.931 . S
C8 C7 1.384 1_455 S
C8 C11 1.382 . S
C9 C7 1.384 . S
C9 C10 1.381 1_655 S
C9 H33 0.930 . S
C10 C9 1.381 1_455 S
C10 C12 1.381 . S
C10 C13 1.487 . S
C11 C8 1.382 . S
C11 C12 1.387 . S
C11 H34 0.930 . S
C12 C10 1.381 . S
C12 C11 1.387 . S
C12 H35 0.931 . S
C13 C6 1.399 1_455 S
C13 C10 1.487 . S
C13 N45 1.343 . S
C14 C15 1.384 1_655 S
C14 C16 1.384 . S
C14 H36 0.931 . S
C15 C14 1.384 1_455 S
C15 C18 1.382 . S
C16 C14 1.384 . S
C16 C17 1.381 1_655 S
C16 H37 0.930 . S
C17 C16 1.381 1_455 S
C17 C19 1.381 . S
C17 C20 1.487 . S
C18 C15 1.382 . S
C18 C19 1.387 . S
C18 H38 0.930 . S
C19 C17 1.381 . S
C19 C18 1.387 . S
C19 H39 0.931 . S
C20 C17 1.487 . S
C20 C27 1.399 1_455 S
C20 N45 1.343 . S
C21 C22 1.384 1_455 S
C21 C23 1.384 . S
C21 H40 0.931 . S
C22 C21 1.384 1_655 S
C22 C25 1.382 . S
C23 C21 1.384 . S
C23 C24 1.381 1_455 S
C23 H41 0.930 . S
C24 C23 1.381 1_655 S
C24 C26 1.381 . S
C24 C27 1.487 . S
C25 C22 1.382 . S
C25 C26 1.387 . S
C25 H42 0.930 . S
C26 C24 1.381 . S
C26 C25 1.387 . S
C26 H43 0.931 . S
C27 C20 1.399 1_655 S
C27 C24 1.487 . S
C27 N44 1.343 . S
H28 C0 0.931 . S
H29 C2 0.930 . S
H30 C4 0.930 . S
H31 C5 0.931 . S
H32 C7 0.931 . S
H33 C9 0.930 . S
H34 C11 0.930 . S
H35 C12 0.931 . S
H36 C14 0.931 . S
H37 C16 0.930 . S
H38 C18 0.930 . S
H39 C19 0.931 . S
H40 C21 0.931 . S
H41 C23 0.930 . S
H42 C25 0.930 . S
H43 C26 0.931 . S
N44 C6 1.343 . S
N44 C27 1.343 . S
N45 C13 1.343 . S
N45 C20 1.343 . S
C46 C47 1.384 1_545 S
C46 C48 1.384 . S
C46 H74 0.931 . S
C47 C46 1.384 1_565 S
C47 C50 1.382 . S
C48 C46 1.384 . S
C48 C49 1.381 1_545 S
C48 H75 0.930 . S
C49 C48 1.381 1_565 S
C49 C51 1.381 . S
C49 C52 1.487 . S
C50 C47 1.382 . S
C50 C51 1.387 . S
C50 H76 0.930 . S
C51 C49 1.381 . S
C51 C50 1.387 . S
C51 H77 0.931 . S
C52 C49 1.487 . S
C52 C59 1.399 1_565 S
C52 N90 1.343 . S
C53 C54 1.384 1_565 S
C53 C55 1.384 . S
C53 H78 0.931 . S
C54 C53 1.384 1_545 S
C54 C57 1.382 . S
C55 C53 1.384 . S
C55 C56 1.381 1_565 S
C55 H79 0.930 . S
C56 C55 1.381 1_545 S
C56 C58 1.381 . S
C56 C59 1.487 . S
C57 C54 1.382 . S
C57 C58 1.387 . S
C57 H80 0.930 . S
C58 C56 1.381 . S
C58 C57 1.387 . S
C58 H81 0.931 . S
C59 C52 1.399 1_545 S
C59 C56 1.487 . S
C59 N91 1.343 . S
C60 C61 1.384 1_565 S
C60 C62 1.384 . S
C60 H82 0.931 . S
C61 C60 1.384 1_545 S
C61 C64 1.382 . S
C62 C60 1.384 . S
C62 C63 1.381 1_565 S
C62 H83 0.930 . S
C63 C62 1.381 1_545 S
C63 C65 1.381 . S
C63 C66 1.487 . S
C64 C61 1.382 . S
C64 C65 1.387 . S
C64 H84 0.930 . S
C65 C63 1.381 . S
C65 C64 1.387 . S
C65 H85 0.931 . S
C66 C63 1.487 . S
C66 C73 1.399 1_545 S
C66 N91 1.343 . S
C67 C68 1.384 1_545 S
C67 C69 1.384 . S
C67 H86 0.931 . S
C68 C67 1.384 1_565 S
C68 C71 1.382 . S
C69 C67 1.384 . S
C69 C70 1.381 1_545 S
C69 H87 0.930 . S
C70 C69 1.381 1_565 S
C70 C72 1.381 . S
C70 C73 1.487 . S
C71 C68 1.382 . S
C71 C72 1.387 . S
C71 H88 0.930 . S
C72 C70 1.381 . S
C72 C71 1.387 . S
C72 H89 0.931 . S
C73 C66 1.399 1_565 S
C73 C70 1.487 . S
C73 N90 1.343 . S
H74 C46 0.931 . S
H75 C48 0.930 . S
H76 C50 0.930 . S
H77 C51 0.931 . S
H78 C53 0.931 . S
H79 C55 0.930 . S
H80 C57 0.930 . S
H81 C58 0.931 . S
H82 C60 0.931 . S
H83 C62 0.930 . S
H84 C64 0.930 . S
H85 C65 0.931 . S
H86 C67 0.931 . S
H87 C69 0.930 . S
H88 C71 0.930 . S
H89 C72 0.931 . S
N90 C52 1.343 . S
N90 C73 1.343 . S
N91 C59 1.343 . S
N91 C66 1.343 . S
C92 C93 1.384 1_556 S
C92 C94 1.384 . S
C92 H120 0.931 . S
C93 C92 1.384 1_554 S
C93 C96 1.382 . S
C94 C92 1.384 . S
C94 C95 1.381 1_556 S
C94 H121 0.930 . S
C95 C94 1.381 1_554 S
C95 C97 1.381 . S
C95 C98 1.487 . S
C96 C93 1.382 . S
C96 C97 1.387 . S
C96 H122 0.930 . S
C97 C95 1.381 . S
C97 C96 1.387 . S
C97 H123 0.931 . S
C98 C95 1.487 . S
C98 C105 1.399 1_554 S
C98 N136 1.343 . S
C99 C100 1.384 1_554 S
C99 C101 1.384 . S
C99 H124 0.931 . S
C100 C99 1.384 1_556 S
C100 C103 1.382 . S
C101 C99 1.384 . S
C101 C102 1.381 1_554 S
C101 H125 0.930 . S
C102 C101 1.381 1_556 S
C102 C104 1.381 . S
C102 C105 1.487 . S
C103 C100 1.382 . S
C103 C104 1.387 . S
C103 H126 0.930 . S
C104 C102 1.381 . S
C104 C103 1.387 . S
C104 H127 0.931 . S
C105 C98 1.399 1_556 S
C105 C102 1.487 . S
C105 N137 1.343 . S
C106 C107 1.384 1_554 S
C106 C108 1.384 . S
C106 H128 0.931 . S
C107 C106 1.384 1_556 S
C107 C110 1.382 . S
C108 C106 1.384 . S
C108 C109 1.381 1_554 S
C108 H129 0.930 . S
C109 C108 1.381 1_556 S
C109 C111 1.381 . S
C109 C112 1.487 . S
C110 C107 1.382 . S
C110 C111 1.387 . S
C110 H130 0.930 . S
C111 C109 1.381 . S
C111 C110 1.387 . S
C111 H131 0.931 . S
C112 C109 1.487 . S
C112 C119 1.399 1_556 S
C112 N137 1.343 . S
C113 C114 1.384 1_556 S
C113 C115 1.384 . S
C113 H132 0.931 . S
C114 C113 1.384 1_554 S
C114 C117 1.382 . S
C115 C113 1.384 . S
C115 C116 1.381 1_556 S
C115 H133 0.930 . S
C116 C115 1.381 1_554 S
C116 C118 1.381 . S
C116 C119 1.487 . S
C117 C114 1.382 . S
C117 C118 1.387 . S
C117 H134 0.930 . S
C118 C116 1.381 . S
C118 C117 1.387 . S
C118 H135 0.931 . S
C119 C112 1.399 1_554 S
C119 C116 1.487 . S
C119 N136 1.343 . S
H120 C92 0.931 . S
H121 C94 0.930 . S
H122 C96 0.930 . S
H123 C97 0.931 . S
H124 C99 0.931 . S
H125 C101 0.930 . S
H126 C103 0.930 . S
H127 C104 0.931 . S
H128 C106 0.931 . S
H129 C108 0.930 . S
H130 C110 0.930 . S
H131 C111 0.931 . S
H132 C113 0.931 . S
H133 C115 0.930 . S
H134 C117 0.930 . S
H135 C118 0.931 . S
N136 C98 1.343 . S
N136 C119 1.343 . S
N137 C105 1.343 . S
N137 C112 1.343 . S
C138 O164 1.283 . S
C138 O182 1.283 . S
C139 O165 1.283 . S
C139 O180 1.283 . S
C140 O166 1.283 . S
C140 O183 1.283 . S
C141 O167 1.283 . S
C141 O181 1.283 . S
C142 O168 1.283 . S
C142 O177 1.283 . S
C143 O169 1.283 . S
C143 O179 1.283 . S
C144 O170 1.283 . S
C144 O176 1.283 . S
C145 O171 1.283 . S
C145 O178 1.283 . S
C146 O172 1.283 . S
C146 O187 1.283 . S
C147 O173 1.283 . S
C147 O185 1.283 . S
C148 O174 1.283 . S
C148 O186 1.283 . S
C149 O175 1.283 . S
C149 O184 1.283 . S
Eu150 O151 2.370 . S
Eu150 O152 2.370 1_454 S
Eu150 O155 2.370 1_554 S
Eu150 O156 2.370 1_455 S
Eu150 O164 2.363 1_554 S
Eu150 O165 2.363 . S
Eu150 O178 2.363 1_455 S
Eu150 O179 2.363 . S
O151 Eu150 2.370 . S
O151 Eu153 2.370 . S
O151 Eu158 2.370 . S
O152 Eu150 2.370 1_656 S
O152 Eu154 2.370 1_556 S
O152 Eu157 2.370 1_655 S
Eu153 O151 2.370 . S
Eu153 O155 2.370 1_554 S
Eu153 O159 2.370 1_544 S
Eu153 O160 2.370 1_545 S
Eu153 O168 2.363 1_545 S
Eu153 O169 2.363 . S
Eu153 O184 2.363 1_554 S
Eu153 O185 2.363 . S
Eu154 O152 2.370 1_554 S
Eu154 O156 2.370 . S
Eu154 O161 2.370 1_545 S
Eu154 O162 2.370 1_544 S
Eu154 O170 2.363 1_545 S
Eu154 O171 2.363 . S
Eu154 O186 2.363 1_554 S
Eu154 O187 2.363 . S
O155 Eu150 2.370 1_556 S
O155 Eu153 2.370 1_556 S
O155 Eu157 2.370 . S
O156 Eu150 2.370 1_655 S
O156 Eu154 2.370 . S
O156 Eu158 2.370 1_655 S
Eu157 O152 2.370 1_455 S
Eu157 O155 2.370 . S
Eu157 O159 2.370 1_545 S
Eu157 O162 2.370 1_445 S
Eu157 O174 2.363 1_455 S
Eu157 O175 2.363 . S
Eu157 O182 2.363 . S
Eu157 O183 2.363 1_545 S
Eu158 O151 2.370 . S
Eu158 O156 2.370 1_455 S
Eu158 O160 2.370 1_545 S
Eu158 O161 2.370 1_445 S
Eu158 O172 2.363 1_455 S
Eu158 O173 2.363 . S
Eu158 O180 2.363 . S
Eu158 O181 2.363 1_545 S
O159 Eu153 2.370 1_566 S
O159 Eu157 2.370 1_565 S
O159 Eu163 2.370 1_556 S
O160 Eu153 2.370 1_565 S
O160 Eu158 2.370 1_565 S
O160 Eu163 2.370 . S
O161 Eu154 2.370 1_565 S
O161 Eu158 2.370 1_665 S
O161 Eu163 2.370 1_655 S
O162 Eu154 2.370 1_566 S
O162 Eu157 2.370 1_665 S
O162 Eu163 2.370 1_656 S
Eu163 O159 2.370 1_554 S
Eu163 O160 2.370 . S
Eu163 O161 2.370 1_455 S
Eu163 O162 2.370 1_454 S
Eu163 O166 2.363 1_554 S
Eu163 O167 2.363 . S
Eu163 O176 2.363 1_455 S
Eu163 O177 2.363 . S
O164 C138 1.283 . S
O164 Eu150 2.363 1_556 S
O165 C139 1.283 . S
O165 Eu150 2.363 . S
O166 C140 1.283 . S
O166 Eu163 2.363 1_556 S
O167 C141 1.283 . S
O167 Eu163 2.363 . S
O168 C142 1.283 . S
O168 Eu153 2.363 1_565 S
O169 C143 1.283 . S
O169 Eu153 2.363 . S
O170 C144 1.283 . S
O170 Eu154 2.363 1_565 S
O171 C145 1.283 . S
O171 Eu154 2.363 . S
O172 C146 1.283 . S
O172 Eu158 2.363 1_655 S
O173 C147 1.283 . S
O173 Eu158 2.363 . S
O174 C148 1.283 . S
O174 Eu157 2.363 1_655 S
O175 C149 1.283 . S
O175 Eu157 2.363 . S
O176 C144 1.283 . S
O176 Eu163 2.363 1_655 S
O177 C142 1.283 . S
O177 Eu163 2.363 . S
O178 C145 1.283 . S
O178 Eu150 2.363 1_655 S
O179 C143 1.283 . S
O179 Eu150 2.363 . S
O180 C139 1.283 . S
O180 Eu158 2.363 . S
O181 C141 1.283 . S
O181 Eu158 2.363 1_565 S
O182 C138 1.283 . S
O182 Eu157 2.363 . S
O183 C140 1.283 . S
O183 Eu157 2.363 1_565 S
O184 C149 1.283 . S
O184 Eu153 2.363 1_556 S
O185 C147 1.283 . S
O185 Eu153 2.363 . S
O186 C148 1.283 . S
O186 Eu154 2.363 1_556 S
O187 C146 1.283 . S
O187 Eu154 2.363 . S
H188 C200 0.930 . S
H189 C202 0.930 . S
H190 C203 0.930 . S
H191 C207 0.959 . S
H192 C207 0.959 . S
H193 C207 0.961 . S
H194 C208 0.960 . S
H195 C208 0.961 . S
H196 C208 0.959 1_655 S
H197 C211 0.929 . S
H198 C212 0.931 . S
H199 C214 0.930 . S
C200 H188 0.930 . S
C200 C201 1.399 1_455 S
C200 C205 1.399 . S
C201 C200 1.399 1_655 S
C201 C202 1.376 . S
C202 H189 0.930 . S
C202 C201 1.376 . S
C202 C203 1.388 . S
C203 H190 0.930 . S
C203 C202 1.388 . S
C203 C204 1.390 . S
C204 C203 1.390 . S
C204 C205 1.394 1_655 S
C204 C210 1.465 . S
C205 C200 1.399 . S
C205 C204 1.394 1_455 S
C205 C206 1.516 . S
C206 C205 1.516 . S
C206 C207 1.502 . S
C206 C208 1.561 . S
C206 C209 1.526 . S
C207 H191 0.959 . S
C207 H192 0.959 . S
C207 H193 0.961 . S
C207 C206 1.502 . S
C208 H194 0.960 . S
C208 H195 0.961 . S
C208 H196 0.959 1_455 S
C208 C206 1.561 . S
C209 C206 1.526 . S
C209 C210 1.396 1_455 S
C209 C214 1.390 . S
C210 C204 1.465 . S
C210 C209 1.396 1_655 S
C210 C211 1.399 . S
C211 H197 0.929 . S
C211 C210 1.399 . S
C211 C212 1.385 . S
C212 H198 0.931 . S
C212 C211 1.385 . S
C212 C213 1.389 . S
C213 C212 1.389 . S
C213 C214 1.387 1_655 S
C214 H199 0.930 . S
C214 C209 1.390 . S
C214 C213 1.387 1_455 S
H215 C227 0.930 . S
H216 C229 0.930 . S
H217 C230 0.930 . S
H218 C234 0.959 . S
H219 C234 0.959 . S
H220 C234 0.961 . S
H221 C235 0.960 . S
H222 C235 0.961 . S
H223 C235 0.959 . S
H224 C238 0.929 . S
H225 C239 0.931 . S
H226 C241 0.930 . S
C227 H215 0.930 . S
C227 C228 1.399 1_565 S
C227 C232 1.399 . S
C228 C227 1.399 1_545 S
C228 C229 1.376 . S
C229 H216 0.930 . S
C229 C228 1.376 . S
C229 C230 1.388 . S
C230 H217 0.930 . S
C230 C229 1.388 . S
C230 C231 1.390 . S
C231 C230 1.390 . S
C231 C232 1.394 1_545 S
C231 C237 1.465 . S
C232 C227 1.399 . S
C232 C231 1.394 1_565 S
C232 C233 1.516 . S
C233 C232 1.516 . S
C233 C234 1.502 . S
C233 C235 1.561 . S
C233 C236 1.526 . S
C234 H218 0.959 . S
C234 H219 0.959 . S
C234 H220 0.961 . S
C234 C233 1.502 . S
C235 H221 0.960 . S
C235 H222 0.961 . S
C235 H223 0.959 . S
C235 C233 1.561 . S
C236 C233 1.526 . S
C236 C237 1.396 1_565 S
C236 C241 1.390 . S
C237 C231 1.465 . S
C237 C236 1.396 1_545 S
C237 C238 1.399 . S
C238 H224 0.929 . S
C238 C237 1.399 . S
C238 C239 1.385 . S
C239 H225 0.931 . S
C239 C238 1.385 . S
C239 C240 1.389 . S
C240 C239 1.389 . S
C240 C241 1.387 1_545 S
C241 H226 0.930 . S
C241 C236 1.390 . S
C241 C240 1.387 1_565 S
H242 C254 0.930 . S
H243 C256 0.930 . S
H244 C257 0.930 . S
H245 C261 0.959 1_655 S
H246 C261 0.959 . S
H247 C261 0.961 . S
H248 C262 0.960 . S
H249 C262 0.961 . S
H250 C262 0.959 . S
H251 C265 0.929 . S
H252 C266 0.931 . S
H253 C268 0.930 . S
C254 H242 0.930 . S
C254 C255 1.400 1_455 S
C254 C259 1.399 . S
C255 C254 1.400 1_655 S
C255 C256 1.376 . S
C256 H243 0.930 . S
C256 C255 1.376 . S
C256 C257 1.388 . S
C257 H244 0.930 . S
C257 C256 1.388 . S
C257 C258 1.390 . S
C258 C257 1.390 . S
C258 C259 1.394 1_655 S
C258 C264 1.465 . S
C259 C254 1.399 . S
C259 C258 1.394 1_455 S
C259 C260 1.516 . S
C260 C259 1.516 . S
C260 C261 1.502 . S
C260 C262 1.561 . S
C260 C263 1.526 . S
C261 H245 0.959 1_455 S
C261 H246 0.959 . S
C261 H247 0.961 . S
C261 C260 1.502 . S
C262 H248 0.960 . S
C262 H249 0.961 . S
C262 H250 0.959 . S
C262 C260 1.561 . S
C263 C260 1.526 . S
C263 C264 1.396 1_455 S
C263 C268 1.390 . S
C264 C258 1.465 . S
C264 C263 1.396 1_655 S
C264 C265 1.399 . S
C265 H251 0.929 . S
C265 C264 1.399 . S
C265 C266 1.385 . S
C266 H252 0.931 . S
C266 C265 1.385 . S
C266 C267 1.389 . S
C267 C266 1.389 . S
C267 C268 1.387 1_655 S
C268 H253 0.930 . S
C268 C263 1.390 . S
C268 C267 1.387 1_455 S
H269 C281 0.930 . S
H270 C283 0.930 . S
H271 C284 0.930 . S
H272 C288 0.959 1_565 S
H273 C288 0.959 . S
H274 C288 0.961 . S
H275 C289 0.960 . S
H276 C289 0.961 . S
H277 C289 0.959 . S
H278 C292 0.929 . S
H279 C293 0.931 . S
H280 C295 0.930 . S
C281 H269 0.930 . S
C281 C282 1.399 . S
C281 C286 1.399 . S
C282 C281 1.399 . S
C282 C283 1.377 1_545 S
C283 H270 0.930 . S
C283 C282 1.377 1_565 S
C283 C284 1.388 . S
C284 H271 0.930 . S
C284 C283 1.388 . S
C284 C285 1.390 . S
C285 C284 1.390 . S
C285 C286 1.394 1_565 S
C285 C291 1.465 . S
C286 C281 1.399 . S
C286 C285 1.394 1_545 S
C286 C287 1.516 . S
C287 C286 1.516 . S
C287 C288 1.502 . S
C287 C289 1.561 . S
C287 C290 1.526 . S
C288 H272 0.959 1_545 S
C288 H273 0.959 . S
C288 H274 0.961 . S
C288 C287 1.502 . S
C289 H275 0.960 . S
C289 H276 0.961 . S
C289 H277 0.959 . S
C289 C287 1.561 . S
C290 C287 1.526 . S
C290 C291 1.396 1_545 S
C290 C295 1.390 . S
C291 C285 1.465 . S
C291 C290 1.396 1_565 S
C291 C292 1.399 . S
C292 H278 0.929 . S
C292 C291 1.399 . S
C292 C293 1.385 . S
C293 H279 0.931 . S
C293 C292 1.385 . S
C293 C294 1.389 . S
C294 C293 1.389 . S
C294 C295 1.387 1_565 S
C295 H280 0.930 . S
C295 C290 1.390 . S
C295 C294 1.387 1_545 S
H296 C308 0.930 . S
H297 C310 0.930 . S
H298 C311 0.930 . S
H299 C315 0.959 1_455 S
H300 C315 0.959 . S
H301 C315 0.961 . S
H302 C316 0.960 . S
H303 C316 0.961 . S
H304 C316 0.959 . S
H305 C319 0.929 . S
H306 C320 0.931 . S
H307 C322 0.930 . S
C308 H296 0.930 . S
C308 C309 1.396 1_655 S
C308 C313 1.399 . S
C309 C308 1.396 1_455 S
C309 C310 1.380 . S
C310 H297 0.930 . S
C310 C309 1.380 . S
C310 C311 1.388 . S
C311 H298 0.930 . S
C311 C310 1.388 . S
C311 C312 1.390 . S
C312 C311 1.390 . S
C312 C313 1.394 1_455 S
C312 C318 1.465 . S
C313 C308 1.399 . S
C313 C312 1.394 1_655 S
C313 C314 1.516 . S
C314 C313 1.516 . S
C314 C315 1.502 . S
C314 C316 1.561 . S
C314 C317 1.526 . S
C315 H299 0.959 1_655 S
C315 H300 0.959 . S
C315 H301 0.961 . S
C315 C314 1.502 . S
C316 H302 0.960 . S
C316 H303 0.961 . S
C316 H304 0.959 . S
C316 C314 1.561 . S
C317 C314 1.526 . S
C317 C318 1.396 1_655 S
C317 C322 1.390 . S
C318 C312 1.465 . S
C318 C317 1.396 1_455 S
C318 C319 1.399 . S
C319 H305 0.929 . S
C319 C318 1.399 . S
C319 C320 1.385 . S
C320 H306 0.931 . S
C320 C319 1.385 . S
C320 C321 1.389 . S
C321 C320 1.389 . S
C321 C322 1.387 1_455 S
C322 H307 0.930 . S
C322 C317 1.390 . S
C322 C321 1.387 1_655 S
H323 C335 0.930 . S
H324 C337 0.930 . S
H325 C338 0.930 . S
H326 C342 0.959 . S
H327 C342 0.959 . S
H328 C342 0.961 . S
H329 C343 0.960 . S
H330 C343 0.961 . S
H331 C343 0.959 . S
H332 C346 0.929 . S
H333 C347 0.931 . S
H334 C349 0.930 . S
C335 H323 0.930 . S
C335 C336 1.399 1_565 S
C335 C340 1.399 . S
C336 C335 1.399 1_545 S
C336 C337 1.376 . S
C337 H324 0.930 . S
C337 C336 1.376 . S
C337 C338 1.388 . S
C338 H325 0.930 . S
C338 C337 1.388 . S
C338 C339 1.390 . S
C339 C338 1.390 . S
C339 C340 1.394 1_545 S
C339 C345 1.465 . S
C340 C335 1.399 . S
C340 C339 1.394 1_565 S
C340 C341 1.516 . S
C341 C340 1.516 . S
C341 C342 1.502 . S
C341 C343 1.561 . S
C341 C344 1.526 . S
C342 H326 0.959 . S
C342 H327 0.959 . S
C342 H328 0.961 . S
C342 C341 1.502 . S
C343 H329 0.960 . S
C343 H330 0.961 . S
C343 H331 0.959 . S
C343 C341 1.561 . S
C344 C341 1.526 . S
C344 C345 1.396 1_565 S
C344 C349 1.390 . S
C345 C339 1.465 . S
C345 C344 1.396 1_545 S
C345 C346 1.399 . S
C346 H332 0.929 . S
C346 C345 1.399 . S
C346 C347 1.385 . S
C347 H333 0.931 . S
C347 C346 1.385 . S
C347 C348 1.389 . S
C348 C347 1.389 . S
C348 C349 1.387 1_545 S
C349 H334 0.930 . S
C349 C344 1.390 . S
C349 C348 1.387 1_565 S
H350 C362 0.930 . S
H351 C364 0.930 . S
H352 C365 0.930 . S
H353 C369 0.959 1_455 S
H354 C369 0.959 . S
H355 C369 0.961 . S
H356 C370 0.960 . S
H357 C370 0.961 . S
H358 C370 0.959 . S
H359 C373 0.929 . S
H360 C374 0.931 . S
H361 C376 0.930 . S
C362 H350 0.930 . S
C362 C363 1.399 . S
C362 C367 1.399 . S
C363 C362 1.399 . S
C363 C364 1.377 1_655 S
C364 H351 0.930 . S
C364 C363 1.377 1_455 S
C364 C365 1.388 . S
C365 H352 0.930 . S
C365 C364 1.388 . S
C365 C366 1.390 . S
C366 C365 1.390 . S
C366 C367 1.394 1_455 S
C366 C372 1.465 . S
C367 C362 1.399 . S
C367 C366 1.394 1_655 S
C367 C368 1.516 . S
C368 C367 1.516 . S
C368 C369 1.502 . S
C368 C370 1.561 . S
C368 C371 1.526 . S
C369 H353 0.959 1_655 S
C369 H354 0.959 . S
C369 H355 0.961 . S
C369 C368 1.502 . S
C370 H356 0.960 . S
C370 H357 0.961 . S
C370 H358 0.959 . S
C370 C368 1.561 . S
C371 C368 1.526 . S
C371 C372 1.396 1_655 S
C371 C376 1.390 . S
C372 C366 1.465 . S
C372 C371 1.396 1_455 S
C372 C373 1.399 . S
C373 H359 0.929 . S
C373 C372 1.399 . S
C373 C374 1.385 . S
C374 H360 0.931 . S
C374 C373 1.385 . S
C374 C375 1.389 . S
C375 C374 1.389 . S
C375 C376 1.387 1_455 S
C376 H361 0.930 . S
C376 C371 1.390 . S
C376 C375 1.387 1_655 S
H377 C389 0.930 . S
H378 C391 0.930 . S
H379 C392 0.930 . S
H380 C396 0.959 . S
H381 C396 0.959 . S
H382 C396 0.961 . S
H383 C397 0.960 . S
H384 C397 0.961 . S
H385 C397 0.959 . S
H386 C400 0.929 . S
H387 C401 0.931 . S
H388 C403 0.930 . S
C389 H377 0.930 . S
C389 C390 1.399 1_565 S
C389 C394 1.399 . S
C390 C389 1.399 1_545 S
C390 C391 1.376 . S
C391 H378 0.930 . S
C391 C390 1.376 . S
C391 C392 1.388 . S
C392 H379 0.930 . S
C392 C391 1.388 . S
C392 C393 1.390 . S
C393 C392 1.390 . S
C393 C394 1.394 1_545 S
C393 C399 1.465 . S
C394 C389 1.399 . S
C394 C393 1.394 1_565 S
C394 C395 1.516 . S
C395 C394 1.516 . S
C395 C396 1.502 . S
C395 C397 1.561 . S
C395 C398 1.526 . S
C396 H380 0.959 . S
C396 H381 0.959 . S
C396 H382 0.961 . S
C396 C395 1.502 . S
C397 H383 0.960 . S
C397 H384 0.961 . S
C397 H385 0.959 . S
C397 C395 1.561 . S
C398 C395 1.526 . S
C398 C399 1.396 1_565 S
C398 C403 1.390 . S
C399 C393 1.465 . S
C399 C398 1.396 1_545 S
C399 C400 1.399 . S
C400 H386 0.929 . S
C400 C399 1.399 . S
C400 C401 1.385 . S
C401 H387 0.931 . S
C401 C400 1.385 . S
C401 C402 1.389 . S
C402 C401 1.389 . S
C402 C403 1.387 1_545 S
C403 H388 0.930 . S
C403 C398 1.390 . S
C403 C402 1.387 1_565 S
H404 C416 0.930 . S
H405 C418 0.930 . S
H406 C419 0.930 . S
H407 C423 0.959 . S
H408 C423 0.959 . S
H409 C423 0.961 . S
H410 C424 0.960 . S
H411 C424 0.961 . S
H412 C424 0.959 . S
H413 C427 0.929 . S
H414 C428 0.931 . S
H415 C430 0.930 . S
C416 H404 0.930 . S
C416 C417 1.399 1_554 S
C416 C421 1.399 . S
C417 C416 1.399 1_556 S
C417 C418 1.376 . S
C418 H405 0.930 . S
C418 C417 1.376 . S
C418 C419 1.388 . S
C419 H406 0.930 . S
C419 C418 1.388 . S
C419 C420 1.390 . S
C420 C419 1.390 . S
C420 C421 1.394 1_556 S
C420 C426 1.465 . S
C421 C416 1.399 . S
C421 C420 1.394 1_554 S
C421 C422 1.516 . S
C422 C421 1.516 . S
C422 C423 1.502 . S
C422 C424 1.561 . S
C422 C425 1.526 . S
C423 H407 0.959 . S
C423 H408 0.959 . S
C423 H409 0.961 . S
C423 C422 1.502 . S
C424 H410 0.960 . S
C424 H411 0.961 . S
C424 H412 0.959 . S
C424 C422 1.561 . S
C425 C422 1.526 . S
C425 C426 1.396 1_554 S
C425 C430 1.390 . S
C426 C420 1.465 . S
C426 C425 1.396 1_556 S
C426 C427 1.399 . S
C427 H413 0.929 . S
C427 C426 1.399 . S
C427 C428 1.385 . S
C428 H414 0.931 . S
C428 C427 1.385 . S
C428 C429 1.389 . S
C429 C428 1.389 . S
C429 C430 1.387 1_556 S
C430 H415 0.930 . S
C430 C425 1.390 . S
C430 C429 1.387 1_554 S
H431 C443 0.930 . S
H432 C445 0.930 . S
H433 C446 0.930 . S
H434 C450 0.959 . S
H435 C450 0.959 . S
H436 C450 0.961 . S
H437 C451 0.960 . S
H438 C451 0.961 . S
H439 C451 0.959 . S
H440 C454 0.929 . S
H441 C455 0.931 . S
H442 C457 0.930 . S
C443 H431 0.930 . S
C443 C444 1.399 1_556 S
C443 C448 1.399 . S
C444 C443 1.399 1_554 S
C444 C445 1.376 . S
C445 H432 0.930 . S
C445 C444 1.376 . S
C445 C446 1.388 . S
C446 H433 0.930 . S
C446 C445 1.388 . S
C446 C447 1.390 . S
C447 C446 1.390 . S
C447 C448 1.394 1_554 S
C447 C453 1.465 . S
C448 C443 1.399 . S
C448 C447 1.394 1_556 S
C448 C449 1.516 . S
C449 C448 1.516 . S
C449 C450 1.502 . S
C449 C451 1.561 . S
C449 C452 1.526 . S
C450 H434 0.959 . S
C450 H435 0.959 . S
C450 H436 0.961 . S
C450 C449 1.502 . S
C451 H437 0.960 . S
C451 H438 0.961 . S
C451 H439 0.959 . S
C451 C449 1.561 . S
C452 C449 1.526 . S
C452 C453 1.396 1_556 S
C452 C457 1.390 . S
C453 C447 1.465 . S
C453 C452 1.396 1_554 S
C453 C454 1.399 . S
C454 H440 0.929 . S
C454 C453 1.399 . S
C454 C455 1.385 . S
C455 H441 0.931 . S
C455 C454 1.385 . S
C455 C456 1.389 . S
C456 C455 1.389 . S
C456 C457 1.387 1_554 S
C457 H442 0.930 . S
C457 C452 1.390 . S
C457 C456 1.387 1_556 S
H458 C470 0.930 . S
H459 C472 0.930 . S
H460 C473 0.930 . S
H461 C477 0.959 . S
H462 C477 0.959 . S
H463 C477 0.961 . S
H464 C478 0.960 . S
H465 C478 0.961 . S
H466 C478 0.959 . S
H467 C481 0.929 . S
H468 C482 0.931 . S
H469 C484 0.930 . S
C470 H458 0.930 . S
C470 C471 1.399 1_554 S
C470 C475 1.399 . S
C471 C470 1.399 1_556 S
C471 C472 1.376 . S
C472 H459 0.930 . S
C472 C471 1.376 . S
C472 C473 1.388 . S
C473 H460 0.930 . S
C473 C472 1.388 . S
C473 C474 1.390 . S
C474 C473 1.390 . S
C474 C475 1.394 1_556 S
C474 C480 1.465 . S
C475 C470 1.399 . S
C475 C474 1.394 1_554 S
C475 C476 1.516 . S
C476 C475 1.516 . S
C476 C477 1.502 . S
C476 C478 1.561 . S
C476 C479 1.526 . S
C477 H461 0.959 . S
C477 H462 0.959 . S
C477 H463 0.961 . S
C477 C476 1.502 . S
C478 H464 0.960 . S
C478 H465 0.961 . S
C478 H466 0.959 . S
C478 C476 1.561 . S
C479 C476 1.526 . S
C479 C480 1.396 1_554 S
C479 C484 1.390 . S
C480 C474 1.465 . S
C480 C479 1.396 1_556 S
C480 C481 1.399 . S
C481 H467 0.929 . S
C481 C480 1.399 . S
C481 C482 1.385 . S
C482 H468 0.931 . S
C482 C481 1.385 . S
C482 C483 1.389 . S
C483 C482 1.389 . S
C483 C484 1.387 1_556 S
C484 H469 0.930 . S
C484 C479 1.390 . S
C484 C483 1.387 1_554 S
H485 C497 0.930 . S
H486 C499 0.930 . S
H487 C500 0.930 . S
H488 C504 0.959 . S
H489 C504 0.959 . S
H490 C504 0.961 . S
H491 C505 0.960 . S
H492 C505 0.961 . S
H493 C505 0.959 . S
H494 C508 0.929 . S
H495 C509 0.931 . S
H496 C511 0.930 . S
C497 H485 0.930 . S
C497 C498 1.399 1_554 S
C497 C502 1.399 . S
C498 C497 1.399 1_556 S
C498 C499 1.376 . S
C499 H486 0.930 . S
C499 C498 1.376 . S
C499 C500 1.388 . S
C500 H487 0.930 . S
C500 C499 1.388 . S
C500 C501 1.390 . S
C501 C500 1.390 . S
C501 C502 1.394 1_556 S
C501 C507 1.465 . S
C502 C497 1.399 . S
C502 C501 1.394 1_554 S
C502 C503 1.516 . S
C503 C502 1.516 . S
C503 C504 1.502 . S
C503 C505 1.561 . S
C503 C506 1.526 . S
C504 H488 0.959 . S
C504 H489 0.959 . S
C504 H490 0.961 . S
C504 C503 1.502 . S
C505 H491 0.960 . S
C505 H492 0.961 . S
C505 H493 0.959 . S
C505 C503 1.561 . S
C506 C503 1.526 . S
C506 C507 1.396 1_554 S
C506 C511 1.390 . S
C507 C501 1.465 . S
C507 C506 1.396 1_556 S
C507 C508 1.399 . S
C508 H494 0.929 . S
C508 C507 1.399 . S
C508 C509 1.385 . S
C509 H495 0.931 . S
C509 C508 1.385 . S
C509 C510 1.389 . S
C510 C509 1.389 . S
C510 C511 1.387 1_556 S
C511 H496 0.930 . S
C511 C506 1.390 . S
C511 C510 1.387 1_554 S
C213 C139 1.769 1_655 S
C201 C15 1.757 1_655 S
C240 C146 1.294 . S
C228 C68 1.305 1_545 S
C267 C141 1.770 1_655 S
C255 C8 1.753 1_655 S
C294 C147 1.292 1_565 S
C282 C61 1.302 . S
C309 C1 1.753 1_455 S
C321 C140 1.774 . S
C348 C149 1.295 . S
C336 C54 1.300 . S
C363 C22 1.771 . S
C375 C138 1.764 . S
C390 C47 1.285 1_545 S
C402 C148 1.304 . S
C417 C93 1.514 1_556 S
C429 C143 1.516 1_556 S
C444 C114 1.510 . S
C456 C142 1.519 . S
C483 C145 1.520 1_556 S
C471 C100 1.513 . S
C510 C144 1.519 1_556 S
C498 C107 1.515 . S
