# Generated by pormake.
# Topology zzz, (3,6)-cn, num edge types: 1
# Building blocks:
#     Node 0, Type 0, BuildingBlock: QEWDON_clean_linker_0, # of connection points: 3
#     Node 1, Type 0, BuildingBlock: QEWDON_clean_linker_0, # of connection points: 3
#     Node 2, Type 0, BuildingBlock: QEWDON_clean_linker_0, # of connection points: 3
#     Node 3, Type 0, BuildingBlock: QEWDON_clean_linker_0, # of connection points: 3
#     Node 4, Type 0, BuildingBlock: QEWDON_clean_linker_0, # of connection points: 3
#     Node 5, Type 0, BuildingBlock: QEWDON_clean_linker_0, # of connection points: 3
#     Node 6, Type 0, BuildingBlock: QEWDON_clean_linker_0, # of connection points: 3
#     Node 7, Type 0, BuildingBlock: QEWDON_clean_linker_0, # of connection points: 3
#     Node 8, Type 1, BuildingBlock: BETFEN_clean_sbu_0, # of connection points: 6
#     Node 9, Type 1, BuildingBlock: BETFEN_clean_sbu_0, # of connection points: 6
#     Node 10, Type 1, BuildingBlock: BETFEN_clean_sbu_0, # of connection points: 6
#     Node 11, Type 1, BuildingBlock: BETFEN_clean_sbu_0, # of connection points: 6
#     Edge 12, Type (0, 1), BuildingBlock: ZUJKAS_clean_linker_0, # of connection points: 2
#     Edge 13, Type (0, 1), BuildingBlock: ZUJKAS_clean_linker_0, # of connection points: 2
#     Edge 14, Type (0, 1), BuildingBlock: ZUJKAS_clean_linker_0, # of connection points: 2
#     Edge 15, Type (0, 1), BuildingBlock: ZUJKAS_clean_linker_0, # of connection points: 2
#     Edge 16, Type (0, 1), BuildingBlock: ZUJKAS_clean_linker_0, # of connection points: 2
#     Edge 17, Type (0, 1), BuildingBlock: ZUJKAS_clean_linker_0, # of connection points: 2
#     Edge 18, Type (0, 1), BuildingBlock: ZUJKAS_clean_linker_0, # of connection points: 2
#     Edge 19, Type (0, 1), BuildingBlock: ZUJKAS_clean_linker_0, # of connection points: 2
#     Edge 20, Type (0, 1), BuildingBlock: ZUJKAS_clean_linker_0, # of connection points: 2
#     Edge 21, Type (0, 1), BuildingBlock: ZUJKAS_clean_linker_0, # of connection points: 2
#     Edge 22, Type (0, 1), BuildingBlock: ZUJKAS_clean_linker_0, # of connection points: 2
#     Edge 23, Type (0, 1), BuildingBlock: ZUJKAS_clean_linker_0, # of connection points: 2
#     Edge 24, Type (0, 1), BuildingBlock: ZUJKAS_clean_linker_0, # of connection points: 2
#     Edge 25, Type (0, 1), BuildingBlock: ZUJKAS_clean_linker_0, # of connection points: 2
#     Edge 26, Type (0, 1), BuildingBlock: ZUJKAS_clean_linker_0, # of connection points: 2
#     Edge 27, Type (0, 1), BuildingBlock: ZUJKAS_clean_linker_0, # of connection points: 2
#     Edge 28, Type (0, 1), BuildingBlock: ZUJKAS_clean_linker_0, # of connection points: 2
#     Edge 29, Type (0, 1), BuildingBlock: ZUJKAS_clean_linker_0, # of connection points: 2
#     Edge 30, Type (0, 1), BuildingBlock: ZUJKAS_clean_linker_0, # of connection points: 2
#     Edge 31, Type (0, 1), BuildingBlock: ZUJKAS_clean_linker_0, # of connection points: 2
#     Edge 32, Type (0, 1), BuildingBlock: ZUJKAS_clean_linker_0, # of connection points: 2
#     Edge 33, Type (0, 1), BuildingBlock: ZUJKAS_clean_linker_0, # of connection points: 2
#     Edge 34, Type (0, 1), BuildingBlock: ZUJKAS_clean_linker_0, # of connection points: 2
#     Edge 35, Type (0, 1), BuildingBlock: ZUJKAS_clean_linker_0, # of connection points: 2
# Relax obj value: 0.142
# Max RMSD: 0.162
# Mean RMSD: 0.120
data_MOF--net-zzz--node1-BETFEN_clean_sbu_0--node2-QEWDON_clean_linker_0--edge1-ZUJKAS_clean_linker_0
_symmetry_space_group_name_H-M    P1
_symmetry_Int_Tables_number       1
_symmetry_cell_setting            triclinic
loop_
_symmetry_equiv_pos_as_xyz
'x, y, z'
_cell_length_a     72.826335
_cell_length_b     72.769482
_cell_length_c     16.337356
_cell_angle_alpha  89.996009
_cell_angle_beta   90.062113
_cell_angle_gamma 90.037433
loop_
_atom_site_label
_atom_site_type_symbol
_atom_site_fract_x
_atom_site_fract_y
_atom_site_fract_z
_atom_type_partial_charge
H0 H 0.7527 0.51679 0.16113 0.0
C1 C 0.76261 0.51563 0.21026 0.0
C2 C 0.78033 0.50975 0.19086 0.0
C3 C 0.75811 0.52095 0.29086 0.0
H4 H 0.80766 0.50474 0.23494 0.0
C5 C 0.79387 0.50903 0.25139 0.0
C6 C 0.79018 0.51445 0.33169 0.0
C7 C 0.77224 0.52037 0.35163 0.0
C8 C 0.73909 0.52814 0.30888 0.0
H9 H 0.76943 0.52432 0.4142 0.0
C10 C 0.72352 0.52278 0.26155 0.0
C11 C 0.70601 0.53072 0.27475 0.0
C12 C 0.73649 0.54132 0.37086 0.0
H13 H 0.74788 0.54634 0.40706 0.0
C14 C 0.7192 0.54885 0.38545 0.0
H15 H 0.72486 0.51235 0.21479 0.0
C16 C 0.70415 0.54373 0.33782 0.0
H17 H 0.69111 0.55039 0.34923 0.0
H18 H 0.71753 0.55907 0.43298 0.0
H19 H 1.00226 0.75461 0.13703 0.0
C20 C 1.00453 0.76462 0.18499 0.0
C21 C 1.00696 0.78299 0.16229 0.0
C22 C 1.00418 0.75939 0.26818 0.0
H23 H 1.011 0.81069 0.2046 0.0
C24 C 1.0091 0.79647 0.2227 0.0
C25 C 1.00866 0.79201 0.30592 0.0
C26 C 1.00622 0.77343 0.32867 0.0
C27 C 1.00091 0.73951 0.29058 0.0
H28 H 1.00627 0.77004 0.39314 0.0
C29 C 1.00552 0.72485 0.23652 0.0
C30 C 1.00135 0.70635 0.2561 0.0
C31 C 0.9923 0.73503 0.3651 0.0
H32 H 0.98792 0.74557 0.40741 0.0
C33 C 0.98857 0.71679 0.38552 0.0
H34 H 0.01253 0.72761 0.17953 0.0
C35 C 0.99297 0.7026 0.3317 0.0
H36 H 0.98936 0.68867 0.34857 0.0
H37 H 0.98186 0.71365 0.44295 0.0
H38 H 0.77336 1.00958 0.12769 0.0
C39 C 0.76351 1.01064 0.17701 0.0
C40 C 0.74554 0.01576 0.15749 0.0
C41 C 0.76841 1.00608 0.25815 0.0
H42 H 0.71821 0.02039 0.20269 0.0
C43 C 0.73215 0.01647 0.21864 0.0
C44 C 0.73629 1.01194 0.2996 0.0
C45 C 0.75446 1.00679 0.31956 0.0
C46 C 0.78771 0.99973 0.27666 0.0
H47 H 0.7576 1.00361 0.38271 0.0
C48 C 0.80298 1.00507 0.2275 0.0
C49 C 0.8208 0.99801 0.24218 0.0
C50 C 0.79094 0.98741 0.34157 0.0
H51 H 0.77983 0.98238 0.37931 0.0
C52 C 0.80854 0.98077 0.35749 0.0
H53 H 0.80119 0.01483 0.17823 0.0
C54 C 0.8233 0.98592 0.30833 0.0
H55 H 0.83665 0.98001 0.321 0.0
H56 H 0.8107 0.97122 0.4074 0.0
H57 H 0.48976 0.77856 0.18718 0.0
C58 C 0.49524 0.76752 0.2243 0.0
C59 C 0.48905 0.74959 0.20956 0.0
C60 C 0.50798 0.77118 0.2875 0.0
H61 H 0.49112 0.72119 0.24491 0.0
C62 C 0.49567 0.7351 0.25762 0.0
C63 C 0.50839 0.73802 0.32029 0.0
C64 C 0.51449 0.75613 0.33555 0.0
C65 C 0.51402 0.79065 0.30409 0.0
H66 H 0.52461 0.75829 0.38312 0.0
C67 C 0.51469 0.80424 0.24132 0.0
C68 C 0.51982 0.82261 0.25891 0.0
C69 C 0.51857 0.79601 0.38439 0.0
H70 H 0.51771 0.78642 0.43485 0.0
C71 C 0.52383 0.81401 0.40174 0.0
H72 H 0.51158 0.80059 0.17861 0.0
C73 C 0.52445 0.82719 0.3399 0.0
H74 H 0.52819 0.84113 0.35602 0.0
H75 H 0.5272 0.81786 0.46397 0.0
H76 H 0.27576 0.51828 0.22195 0.0
C77 C 0.26574 0.51638 0.17374 0.0
C78 C 0.24739 0.5141 0.19631 0.0
C79 C 0.2709 0.51708 0.09056 0.0
H80 H 0.21956 0.51094 0.15459 0.0
C81 C 0.23379 0.51255 0.13621 0.0
C82 C 0.23818 0.51333 0.05302 0.0
C83 C 0.25677 0.51555 0.03014 0.0
C84 C 0.2908 0.52029 0.06833 0.0
H85 H 0.26006 0.51578 0.96561 0.0
C86 C 0.30543 0.51559 0.12254 0.0
C87 C 0.32391 0.51989 0.10368 0.0
C88 C 0.29534 0.529 0.99408 0.0
H89 H 0.28486 0.53344 0.9516 0.0
C90 C 0.31358 0.53278 0.97418 0.0
H91 H 0.30264 0.50845 0.17922 0.0
C92 C 0.32771 0.52837 0.02833 0.0
H93 H 0.34163 0.5321 0.01195 0.0
H94 H 0.31676 0.53957 0.91697 0.0
H95 H 0.01505 0.27515 0.2196 0.0
C96 C 0.01673 0.26507 0.1716 0.0
C97 C 0.01933 0.2467 0.19444 0.0
C98 C 0.01564 0.27025 0.08846 0.0
H99 H 0.02136 0.21876 0.15134 0.0
C100 C 0.02026 0.2331 0.1338 0.0
C101 C 0.01893 0.23751 0.05083 0.0
C102 C 0.01707 0.25614 0.02799 0.0
C103 C 1.01149 0.29001 0.06651 0.0
H104 H 0.01636 0.2594 0.96348 0.0
C105 C 0.01573 0.30489 0.12025 0.0
C106 C 1.00965 0.32299 0.10351 0.0
C107 C 1.00184 0.29406 0.99392 0.0
H108 H 0.99772 0.28336 0.95183 0.0
C109 C 0.9966 0.31201 0.97542 0.0
H110 H 0.02331 0.3025 0.17617 0.0
C111 C 1.00031 0.3263 0.02972 0.0
H112 H 0.99576 0.34003 0.01398 0.0
H113 H 0.98919 0.31481 0.91931 0.0
H114 H 0.25266 1.00743 0.22803 0.0
C115 C 0.26313 1.01003 0.18258 0.0
C116 C 0.28145 1.01021 0.20827 0.0
C117 C 0.25845 0.01238 0.09931 0.0
H118 H 0.30966 1.01142 0.16986 0.0
C119 C 0.29544 1.01207 0.15014 0.0
C120 C 0.2916 0.01366 0.06658 0.0
C121 C 0.27303 0.01447 0.04143 0.0
C122 C 0.23856 1.01079 0.07363 0.0
H123 H 0.27013 0.01614 0.97693 0.0
C124 C 0.22386 0.01451 0.12886 0.0
C125 C 0.20544 1.01043 0.10791 0.0
C126 C 0.23407 1.00394 0.99546 0.0
H127 H 0.24458 1.00037 0.9516 0.0
C128 C 0.21584 1.00076 0.97328 0.0
H129 H 0.22661 0.02004 0.18909 0.0
C130 C 0.20169 1.00377 0.029 0.0
H131 H 0.18772 1.00078 0.01039 0.0
H132 H 0.2127 0.99544 0.91299 0.0
H133 H 0.51366 0.25221 0.2104 0.0
C134 C 0.51105 0.26254 0.16428 0.0
C135 C 0.50755 0.28054 0.19013 0.0
C136 C 0.51209 0.25807 0.0804 0.0
H137 H 0.50333 0.30851 0.15109 0.0
C138 C 0.50508 0.29439 0.1314 0.0
C139 C 0.50628 0.29073 0.04756 0.0
C140 C 0.50974 0.27248 0.02203 0.0
C141 C 0.51718 0.23873 0.05581 0.0
H142 H 0.51051 0.26968 0.9571 0.0
C143 C 0.51327 0.22333 0.10688 0.0
C144 C 0.52037 0.20569 0.0889 0.0
C145 C 0.52743 0.23567 0.98406 0.0
H146 H 0.5312 0.24688 0.94397 0.0
C147 C 0.53375 0.21813 0.96431 0.0
H148 H 0.50521 0.225 0.16195 0.0
C149 C 0.53046 0.20333 0.01647 0.0
H150 H 0.53589 0.18996 0.00022 0.0
H151 H 0.54168 0.21608 0.90907 0.0
Pr152 Pr 0.02107 1.00783 0.77577 0.0
Pr153 Pr 1.00664 0.02067 0.58803 0.0
C154 C 0.02089 0.98982 0.9179 0.0
C155 C 0.02069 0.96956 0.9265 0.0
C156 C 0.03728 0.95974 0.93049 0.0
C157 C 0.03763 0.94089 0.91417 0.0
C158 C 0.02139 0.93147 0.8936 0.0
C159 C 1.00462 0.94101 0.89694 0.0
C160 C 1.00426 0.95979 0.91373 0.0
C161 C 0.0505 1.01201 0.66485 0.0
C162 C 1.01165 0.97607 0.6255 0.0
C163 C 1.00593 0.03818 0.44457 0.0
C164 C 1.00784 0.05828 0.43388 0.0
C165 C 0.99204 0.06907 0.42303 0.0
C166 C 0.9925 0.0879 0.43945 0.0
C167 C 1.00881 0.0963 0.46645 0.0
C168 C 0.02502 0.08585 0.46882 0.0
C169 C 0.02455 0.06704 0.45264 0.0
C170 C 0.97733 0.01572 0.6991 0.0
C171 C 0.01636 0.05245 0.73799 0.0
O172 O 1.00601 0.99711 0.88663 0.0
O173 O 0.03596 0.99697 0.88763 0.0
O174 O 0.03358 0.01444 0.6521 0.0
O175 O 0.05277 1.00726 0.74096 0.0
O176 O 1.00947 0.98883 0.56797 0.0
O177 O 0.01462 0.98015 0.70392 0.0
O178 O 0.02052 0.02936 0.47029 0.0
O179 O 0.99091 0.03292 0.48186 0.0
O180 O 0.99435 0.01435 0.71165 0.0
O181 O 0.97483 0.01938 0.62194 0.0
O182 O 0.01832 0.03969 0.79571 0.0
O183 O 0.01352 0.04838 0.65938 0.0
H184 H 0.05016 0.96681 0.94115 0.0
H185 H 0.05072 0.93384 0.91505 0.0
H186 H 0.99182 0.9343 0.88136 0.0
H187 H 0.99118 0.96684 0.91073 0.0
H188 H 0.979 0.06275 0.40775 0.0
H189 H 0.97991 0.09572 0.4341 0.0
H190 H 0.03785 0.09189 0.48894 0.0
H191 H 0.03705 0.05923 0.46086 0.0
Pr192 Pr 0.51961 0.02223 0.76339 0.0
Pr193 Pr 0.50673 1.00566 0.58312 0.0
C194 C 0.53758 0.02578 0.90429 0.0
C195 C 0.55596 0.03395 0.91182 0.0
C196 C 0.56114 0.04807 0.85773 0.0
C197 C 0.57963 0.05215 0.845 0.0
C198 C 0.5933 0.04211 0.8858 0.0
C199 C 0.58804 0.02895 0.94457 0.0
C200 C 0.56951 0.02486 0.95723 0.0
C201 C 0.51675 0.05055 0.64537 0.0
C202 C 0.55131 0.01313 0.6155 0.0
C203 C 0.48954 1.0017 0.44011 0.0
C204 C 0.47187 0.99243 0.42626 0.0
C205 C 0.46744 0.97654 0.47109 0.0
C206 C 0.44928 0.97051 0.47614 0.0
C207 C 0.4352 0.98033 0.43705 0.0
C208 C 0.43985 0.99561 0.38827 0.0
C209 C 0.45804 1.00158 0.38289 0.0
C210 C 0.50998 0.97725 0.70025 0.0
C211 C 0.47506 0.01512 0.73132 0.0
O212 O 0.53745 1.01033 0.86305 0.0
O213 O 0.52421 0.03699 0.88373 0.0
O214 O 0.51392 0.03359 0.63575 0.0
O215 O 0.52093 0.05346 0.72158 0.0
O216 O 0.53837 1.00991 0.55989 0.0
O217 O 0.54746 0.01658 0.69343 0.0
O218 O 0.48821 0.0167 0.48409 0.0
O219 O 0.50346 0.99124 0.46117 0.0
O220 O 0.51256 0.99424 0.71039 0.0
O221 O 0.50578 0.9744 0.62403 0.0
O222 O 0.48801 0.01822 0.78699 0.0
O223 O 0.47889 1.01161 0.65331 0.0
H224 H 0.551 0.05507 0.82062 0.0
H225 H 0.58321 0.06228 0.79913 0.0
H226 H 0.59829 0.02128 0.97833 0.0
H227 H 0.56584 0.01375 0.99825 0.0
H228 H 0.47781 0.96936 0.50623 0.0
H229 H 0.44621 0.95853 0.51302 0.0
H230 H 0.42933 1.00367 0.35813 0.0
H231 H 0.4611 0.01407 0.34943 0.0
Pr232 Pr 0.50619 0.52186 0.7853 0.0
Pr233 Pr 0.52281 0.50925 0.60378 0.0
C234 C 0.50259 0.53881 0.92907 0.0
C235 C 0.49419 0.55701 0.94432 0.0
C236 C 0.47519 0.55982 0.93352 0.0
C237 C 0.46809 0.57763 0.92718 0.0
C238 C 0.47991 0.59282 0.93041 0.0
C239 C 0.49863 0.59009 0.94685 0.0
C240 C 0.50566 0.57236 0.95465 0.0
C241 C 0.47768 0.51847 0.66874 0.0
C242 C 0.51665 0.55389 0.63899 0.0
C243 C 0.52634 0.49308 0.45752 0.0
C244 C 0.52609 0.4732 0.44088 0.0
C245 C 0.54144 0.46475 0.40504 0.0
C246 C 0.54345 0.44564 0.40856 0.0
C247 C 0.53018 0.43493 0.44841 0.0
C248 C 0.51424 0.44319 0.47865 0.0
C249 C 0.51219 0.46218 0.47505 0.0
C250 C 0.55097 0.51314 0.72209 0.0
C251 C 0.51237 0.47727 0.74879 0.0
O252 O 0.51788 0.53929 0.88674 0.0
O253 O 0.49152 0.52548 0.90647 0.0
O254 O 0.49467 0.51585 0.65799 0.0
O255 O 0.47498 0.5229 0.7448 0.0
O256 O 0.52044 0.54109 0.58354 0.0
O257 O 0.51211 0.54988 0.71583 0.0
O258 O 0.51088 0.50031 0.48237 0.0
O259 O 0.5405 0.49879 0.49976 0.0
O260 O 0.53392 0.51522 0.73112 0.0
O261 O 0.55409 0.50927 0.64576 0.0
O262 O 0.51058 0.4901 0.80617 0.0
O263 O 0.51497 0.48135 0.67022 0.0
H264 H 0.46593 0.54831 0.92534 0.0
H265 H 0.45358 0.5795 0.91523 0.0
H266 H 0.50792 0.60169 0.95109 0.0
H267 H 0.52031 0.57066 0.96342 0.0
H268 H 0.55236 0.47298 0.37895 0.0
H269 H 0.55576 0.43935 0.38414 0.0
H270 H 0.50373 0.43499 0.50816 0.0
H271 H 0.50022 0.46824 0.50368 0.0
Pr272 Pr 1.00944 0.50634 0.77503 0.0
Pr273 Pr 0.0212 0.52226 0.58995 0.0
C274 C 0.9925 0.50405 0.91919 0.0
C275 C 0.97238 0.50361 0.92944 0.0
C276 C 0.96391 0.48781 0.96101 0.0
C277 C 0.94506 0.48501 0.95022 0.0
C278 C 0.93436 0.49798 0.90765 0.0
C279 C 0.94266 0.51435 0.88115 0.0
C280 C 0.96144 0.51714 0.89182 0.0
C281 C 0.01487 0.47752 0.66195 0.0
C282 C 0.97682 0.51575 0.62919 0.0
C283 C 0.03777 0.52321 0.44463 0.0
C284 C 0.05772 0.52047 0.43199 0.0
C285 C 0.06984 0.53535 0.4421 0.0
C286 C 0.08851 0.5323 0.45538 0.0
C287 C 0.09552 0.51432 0.45787 0.0
C288 C 0.08371 0.49955 0.44052 0.0
C289 C 0.06501 0.5026 0.42723 0.0
C290 C 0.01589 0.55112 0.70268 0.0
C291 C 0.05377 0.5132 0.73612 0.0
O292 O 0.99953 0.5195 0.89238 0.0
O293 O 0.99942 0.48959 0.88296 0.0
O294 O 0.01656 0.49459 0.65037 0.0
O295 O 1.01038 0.4748 0.73794 0.0
O296 O 0.98929 0.51946 0.57215 0.0
O297 O 0.98121 0.51169 0.70622 0.0
O298 O 0.02854 0.50879 0.46948 0.0
O299 O 0.03317 0.53821 0.48387 0.0
O300 O 0.01415 0.53406 0.7147 0.0
O301 O 0.0203 0.55381 0.62648 0.0
O302 O 0.04122 0.51022 0.79375 0.0
O303 O 0.04941 0.51636 0.65818 0.0
H304 H 0.97204 0.47714 0.98969 0.0
H305 H 0.93897 0.47246 0.97331 0.0
H306 H 0.93488 0.52459 0.84774 0.0
H307 H 0.96751 0.52939 0.86568 0.0
H308 H 0.06475 0.54931 0.44553 0.0
H309 H 0.09724 0.544 0.46835 0.0
H310 H 0.08882 0.48558 0.43957 0.0
H311 H 0.05612 0.49083 0.41819 0.0
H312 H 0.179 0.98503 0.14253 0.0
H313 H 0.15287 0.98774 0.23503 0.0
H314 H 0.17042 0.04228 0.30254 0.0
H315 H 0.19707 0.03938 0.21096 0.0
H316 H 0.15889 0.02454 0.43393 0.0
H317 H 0.10619 0.01476 0.19487 0.0
H318 H 0.12173 0.9957 0.19756 0.0
H319 H 0.13009 0.01822 0.17049 0.0
C320 C 0.17728 0.99767 0.17672 0.0
C321 C 0.19005 1.01209 0.16834 0.0
C322 C 0.1622 0.99925 0.22937 0.0
C323 C 0.15918 0.01545 0.27425 0.0
C324 C 0.17223 0.0297 0.26806 0.0
H325 H 0.05265 0.03274 0.52362 0.0
H326 H 0.07872 0.03513 0.4286 0.0
C327 C 0.18752 0.02802 0.21584 0.0
C328 C 0.14266 0.01719 0.3287 0.0
H329 H 0.09602 1.01096 0.33364 0.0
C330 C 0.14514 0.02173 0.41162 0.0
C331 C 0.12452 0.01398 0.3 0.0
C332 C 0.12044 1.0106 0.21068 0.0
C333 C 0.13026 0.02239 0.46676 0.0
C334 C 0.11232 0.01787 0.43921 0.0
C335 C 0.10972 0.0141 0.35563 0.0
C336 C 0.09624 0.01647 0.49633 0.0
C337 C 0.13397 0.02815 0.55395 0.0
C338 C 0.09705 1.00496 0.56535 0.0
C339 C 0.08215 1.00361 0.61918 0.0
C340 C 0.06581 0.01339 0.60473 0.0
C341 C 0.0648 0.02467 0.5351 0.0
C342 C 0.07982 0.02617 0.4813 0.0
H343 H 0.14636 0.03702 0.55808 0.0
H344 H 0.12214 0.03572 0.58031 0.0
H345 H 0.13654 0.01574 0.59173 0.0
H346 H 0.10923 0.99688 0.57754 0.0
H347 H 0.08337 0.99472 0.67211 0.0
H348 H 0.5471 0.18257 0.14431 0.0
H349 H 0.54401 0.15581 0.23327 0.0
H350 H 0.48577 0.16558 0.25212 0.0
H351 H 0.48897 0.19293 0.16478 0.0
H352 H 0.4982 0.1559 0.39498 0.0
H353 H 0.52643 0.10597 0.17476 0.0
H354 H 0.5427 0.12393 0.19404 0.0
H355 H 0.52105 0.12928 0.14594 0.0
C356 C 0.53359 0.17899 0.16705 0.0
C357 C 0.51824 0.18981 0.1465 0.0
C358 C 0.53181 0.16353 0.21756 0.0
C359 C 0.51456 0.15813 0.24771 0.0
C360 C 0.49924 0.16922 0.22912 0.0
H361 H 0.50418 0.04891 0.48512 0.0
H362 H 0.50161 0.0745 0.38716 0.0
C363 C 0.50106 0.18491 0.17933 0.0
C364 C 0.51273 0.14131 0.30048 0.0
H365 H 0.5255 0.0961 0.3153 0.0
C366 C 0.50402 0.1428 0.37693 0.0
C367 C 0.51984 0.12392 0.27695 0.0
C368 C 0.52783 0.12062 0.19305 0.0
C369 C 0.50294 0.12779 0.43138 0.0
C370 C 0.51135 0.11083 0.41049 0.0
C371 C 0.51933 0.10909 0.33257 0.0
C372 C 0.51264 0.09507 0.46963 0.0
C373 C 0.49255 0.13032 0.51044 0.0
C374 C 0.52005 0.0978 0.54813 0.0
C375 C 0.52124 0.08329 0.60414 0.0
C376 C 0.51544 0.06546 0.58301 0.0
C377 C 0.50857 0.06248 0.50365 0.0
C378 C 0.50715 0.07714 0.44757 0.0
H379 H 0.48168 0.14094 0.50397 0.0
H380 H 0.48603 0.11731 0.53089 0.0
H381 H 0.50217 0.13507 0.55871 0.0
H382 H 0.52507 0.1112 0.56624 0.0
H383 H 0.52687 0.08607 0.66428 0.0
H384 H 0.32445 0.52559 0.27042 0.0
H385 H 0.35081 0.52339 0.36361 0.0
H386 H 0.38465 0.50431 0.16481 0.0
H387 H 0.35847 0.50654 0.07154 0.0
H388 H 0.37377 0.49499 0.41063 0.0
H389 H 0.41411 0.54797 0.24563 0.0
H390 H 0.39005 0.54407 0.22555 0.0
H391 H 0.4071 0.52903 0.18259 0.0
C392 C 0.33743 0.52068 0.24671 0.0
C393 C 0.33931 0.51645 0.16299 0.0
C394 C 0.35256 0.51953 0.30006 0.0
C395 C 0.36994 0.51415 0.27109 0.0
C396 C 0.37161 0.50906 0.18846 0.0
H397 H 0.47897 0.50829 0.50509 0.0
H398 H 0.45324 0.50602 0.40832 0.0
C399 C 0.35655 0.51027 0.13512 0.0
C400 C 0.38631 0.51404 0.32688 0.0
H401 H 0.42928 0.53234 0.35319 0.0
C402 C 0.38588 0.50319 0.39805 0.0
C403 C 0.40225 0.52466 0.31071 0.0
C404 C 0.40342 0.53723 0.23742 0.0
C405 C 0.40088 0.50254 0.45268 0.0
C406 C 0.41673 0.51333 0.43703 0.0
C407 C 0.41724 0.52402 0.3654 0.0
C408 C 0.43254 0.51434 0.49579 0.0
C409 C 0.39969 0.49 0.52603 0.0
C410 C 0.42971 0.52004 0.57693 0.0
C411 C 0.44442 0.52122 0.63204 0.0
C412 C 0.46246 0.51696 0.60763 0.0
C413 C 0.46536 0.51154 0.52613 0.0
C414 C 0.45058 0.51028 0.47072 0.0
H415 H 0.3897 0.47868 0.51578 0.0
H416 H 0.41327 0.48391 0.5409 0.0
H417 H 0.39494 0.49801 0.57975 0.0
H418 H 0.4161 0.52379 0.59766 0.0
H419 H 0.44161 0.52564 0.69409 0.0
H420 H 0.98409 0.34823 0.15143 0.0
H421 H 0.98794 0.37457 0.24211 0.0
H422 H 0.04446 0.35953 0.28269 0.0
H423 H 0.04057 0.33277 0.1922 0.0
H424 H 0.02876 0.37015 0.42331 0.0
H425 H 0.01247 0.42243 0.18933 0.0
H426 H 0.99428 0.40598 0.19904 0.0
H427 H 0.01653 0.39867 0.16349 0.0
C428 C 0.99742 0.35055 0.17908 0.0
C429 C 0.0121 0.33846 0.1633 0.0
C430 C 0.99963 0.36575 0.2308 0.0
C431 C 0.01665 0.36951 0.26767 0.0
C432 C 0.03122 0.35713 0.25437 0.0
H433 H 0.03441 0.47647 0.51675 0.0
H434 H 0.0366 0.4507 0.41951 0.0
C435 C 0.02897 0.34177 0.20283 0.0
C436 C 0.01894 0.38611 0.32135 0.0
H437 H 1.01114 0.43252 0.32922 0.0
C438 C 0.02507 0.38379 0.40229 0.0
C439 C 0.01456 0.40412 0.29414 0.0
C440 C 1.00929 0.408 0.20649 0.0
C441 C 0.02613 0.3987 0.45732 0.0
C442 C 0.0205 0.41647 0.43171 0.0
C443 C 0.01519 0.41894 0.34973 0.0
C444 C 0.01924 0.43239 0.48982 0.0
C445 C 0.03339 0.39521 0.54243 0.0
C446 C 1.00851 0.431 0.56096 0.0
C447 C 1.00721 0.44572 0.6158 0.0
C448 C 0.01629 0.46244 0.60055 0.0
C449 C 0.02684 0.46402 0.52895 0.0
C450 C 0.02825 0.44917 0.47389 0.0
H451 H 0.04271 0.38312 0.54365 0.0
H452 H 0.04095 0.40732 0.56647 0.0
H453 H 0.02172 0.39223 0.58399 0.0
H454 H 1.00099 0.4185 0.57401 0.0
H455 H 0.99889 0.44404 0.67024 0.0
H456 H 0.82166 1.00005 0.07372 0.0
H457 H 0.84862 1.00373 0.98517 0.0
H458 H 0.88314 1.0095 0.19807 0.0
H459 H 0.85637 1.00579 0.28662 0.0
H460 H 0.87437 0.03112 0.96588 0.0
H461 H 0.90875 0.96805 0.07874 0.0
H462 H 0.88508 0.97324 0.10171 0.0
H463 H 0.90329 0.98414 0.15829 0.0
C464 C 0.83495 1.00235 0.10173 0.0
C465 C 0.83679 1.00241 0.18757 0.0
C466 C 0.85041 1.00434 0.05095 0.0
C467 C 0.86809 1.0064 0.08466 0.0
C468 C 0.86981 1.00734 0.17023 0.0
H469 H 0.97832 0.01795 0.86792 0.0
H470 H 0.95224 0.01563 0.96314 0.0
C471 C 0.85442 1.00529 0.22093 0.0
C472 C 0.88469 1.00754 0.03062 0.0
H473 H 0.92613 0.98715 0.99019 0.0
C474 C 0.88563 0.02145 0.97112 0.0
C475 C 0.89953 0.99498 0.03721 0.0
C476 C 0.8991 0.97915 0.09686 0.0
C477 C 0.90097 0.02329 0.91913 0.0
C478 C 0.91575 1.01069 0.92547 0.0
C479 C 0.91489 0.99686 0.98533 0.0
C480 C 0.93186 1.01127 0.86855 0.0
C481 C 0.90134 0.03896 0.85866 0.0
C482 C 0.92928 1.00913 0.78389 0.0
C483 C 0.94416 1.01021 0.72987 0.0
C484 C 0.96211 0.01323 0.75894 0.0
C485 C 0.9648 0.01503 0.84379 0.0
C486 C 0.94984 0.01393 0.89813 0.0
H487 H 0.89182 0.05017 0.87677 0.0
H488 H 0.91539 0.04474 0.85269 0.0
H489 H 0.89696 0.03384 0.79772 0.0
H490 H 0.91567 1.0067 0.75936 0.0
H491 H 0.94158 1.00877 0.66487 0.0
H492 H 0.4938 0.83006 0.14085 0.0
H493 H 0.49285 0.85634 0.04624 0.0
H494 H 0.5449 0.87523 0.13963 0.0
H495 H 0.54604 0.84902 0.23315 0.0
H496 H 0.4936 0.89469 0.08888 0.0
H497 H 0.55236 0.87599 0.88964 0.0
H498 H 0.54118 0.85958 0.95589 0.0
H499 H 0.55734 0.87577 0.99736 0.0
C500 C 0.5052 0.83962 0.14012 0.0
C501 C 0.52 0.83737 0.19474 0.0
C502 C 0.50457 0.85475 0.08649 0.0
C503 C 0.51884 0.8678 0.08532 0.0
C504 C 0.5338 0.86532 0.13849 0.0
H505 H 0.51511 0.97947 0.86842 0.0
H506 H 0.51757 0.95365 0.96573 0.0
C507 C 0.53438 0.85033 0.19237 0.0
C508 C 0.51793 0.88427 0.03049 0.0
H509 H 0.53995 0.90583 0.87228 0.0
C510 C 0.50373 0.89712 0.04148 0.0
C511 C 0.53109 0.88748 0.96832 0.0
C512 C 0.54628 0.87393 0.95132 0.0
C513 C 0.50241 0.91306 0.99255 0.0
C514 C 0.51573 0.9164 0.93116 0.0
C515 C 0.52985 0.90347 0.9199 0.0
C516 C 0.51452 0.93241 0.87374 0.0
C517 C 0.4865 0.92599 0.00557 0.0
C518 C 0.51235 0.9292 0.78962 0.0
C519 C 0.51101 0.94384 0.73445 0.0
C520 C 0.51199 0.96219 0.76146 0.0
C521 C 0.51439 0.96552 0.84562 0.0
C522 C 0.51564 0.95075 0.90129 0.0
H523 H 0.47554 0.91969 0.04358 0.0
H524 H 0.49147 0.93852 0.03733 0.0
H525 H 0.48049 0.93025 0.94604 0.0
H526 H 0.51146 0.91527 0.76653 0.0
H527 H 0.50916 0.94073 0.67012 0.0
H528 H 0.70493 0.52537 0.10752 0.0
H529 H 0.67779 0.52139 0.02015 0.0
H530 H 0.64299 0.52236 0.23322 0.0
H531 H 0.66995 0.52612 0.32084 0.0
H532 H 0.64978 0.49452 0.01687 0.0
H533 H 0.62072 0.56303 0.09106 0.0
H534 H 0.6441 0.55684 0.11528 0.0
H535 H 0.62555 0.54882 0.17835 0.0
C536 C 0.69154 0.52446 0.13604 0.0
C537 C 0.68973 0.52629 0.22153 0.0
C538 C 0.67598 0.52231 0.08583 0.0
C539 C 0.65822 0.52203 0.11968 0.0
C540 C 0.65644 0.52307 0.20514 0.0
H541 H 0.54802 0.51698 0.89058 0.0
H542 H 0.57337 0.51866 0.99063 0.0
C543 C 0.67194 0.52519 0.2553 0.0
C544 C 0.6416 0.5207 0.0658 0.0
H545 H 0.60239 0.54345 0.00913 0.0
C546 C 0.63945 0.50524 0.01519 0.0
C547 C 0.62795 0.53459 0.06376 0.0
C548 C 0.62969 0.55184 0.11442 0.0
C549 C 0.6241 0.50326 0.96322 0.0
C550 C 0.61062 0.51732 0.95992 0.0
C551 C 0.61262 0.53265 0.01148 0.0
C552 C 0.595 0.51679 0.9001 0.0
C553 C 0.62237 0.48592 0.91312 0.0
C554 C 0.59858 0.51567 0.81585 0.0
C555 C 0.5842 0.51475 0.75913 0.0
C556 C 0.56575 0.51515 0.78468 0.0
C557 C 0.56205 0.51676 0.86887 0.0
C558 C 0.57655 0.51764 0.92604 0.0
H559 H 0.63016 0.47439 0.94107 0.0
H560 H 0.60779 0.4817 0.90644 0.0
H561 H 0.6281 0.48839 0.85118 0.0
H562 H 0.61259 0.51549 0.79368 0.0
H563 H 0.58759 0.51364 0.69477 0.0
H564 H 0.995 0.70519 0.08991 0.0
H565 H 0.9979 0.67868 0.99783 0.0
H566 H 0.01813 0.64578 0.19782 0.0
H567 H 0.01553 0.67221 0.28969 0.0
H568 H 0.03792 0.64059 0.05213 0.0
H569 H 0.96293 0.634 0.9984 0.0
H570 H 0.97229 0.65634 0.9768 0.0
H571 H 0.97236 0.64783 0.08004 0.0
C572 C 1.00032 0.69239 0.11406 0.0
C573 C 1.00491 0.69087 0.19756 0.0
C574 C 1.00175 0.67715 0.0615 0.0
C575 C 1.00789 0.66005 0.09105 0.0
C576 C 0.01318 0.65872 0.17352 0.0
H577 H 0.99669 0.55227 0.84889 0.0
H578 H 0.99509 0.57795 0.94678 0.0
C579 C 1.01164 0.67387 0.22612 0.0
C580 C 1.00873 0.64351 0.03659 0.0
H581 H 0.9823 0.61461 0.91999 0.0
C582 C 0.02575 0.63492 0.02333 0.0
C583 C 0.99282 0.63583 0.99993 0.0
C584 C 0.97402 0.64383 0.01487 0.0
C585 C 0.02735 0.61923 0.97317 0.0
C586 C 1.01154 0.6119 0.9344 0.0
C587 C 0.99445 0.62022 0.94917 0.0
C588 C 0.01261 0.59603 0.87626 0.0
C589 C 0.04599 0.61051 0.96274 0.0
C590 C 0.02275 0.59761 0.80356 0.0
C591 C 0.02372 0.58295 0.74822 0.0
C592 C 0.01467 0.56623 0.76407 0.0
C593 C 1.00432 0.56467 0.8363 0.0
C594 C 1.00323 0.57946 0.89172 0.0
H595 H 0.05556 0.61454 0.01262 0.0
H596 H 0.04491 0.59529 0.96144 0.0
H597 H 0.05202 0.6151 0.90383 0.0
H598 H 0.02979 0.61032 0.78908 0.0
H599 H 0.03168 0.58471 0.69278 0.0
H600 H 0.04286 0.22286 0.26775 0.0
H601 H 0.03784 0.20676 0.39603 0.0
H602 H 0.99196 0.24225 0.44985 0.0
H603 H 0.99629 0.25778 0.31814 0.0
H604 H 0.03281 0.21064 0.56289 0.0
H605 H 0.96607 0.19448 0.4092 0.0
H606 H 0.9833 0.20741 0.35526 0.0
H607 H 0.97104 0.21769 0.43913 0.0
C608 C 0.03192 0.22748 0.3076 0.0
C609 C 0.01956 0.24108 0.28167 0.0
C610 C 0.02918 0.21843 0.3816 0.0
C611 C 0.01413 0.22291 0.43141 0.0
C612 C 1.00333 0.23824 0.41121 0.0
H613 H 0.98248 0.11351 0.55842 0.0
H614 H 0.98135 0.14591 0.598 0.0
C615 C 1.00591 0.24718 0.33617 0.0
C616 C 1.00795 0.20894 0.49139 0.0
H617 H 0.9797 0.17167 0.48615 0.0
C618 C 0.02079 0.20241 0.54877 0.0
C619 C 0.99197 0.1984 0.47529 0.0
C620 C 0.97725 0.20475 0.4165 0.0
C621 C 0.01964 0.18441 0.57912 0.0
C622 C 1.00543 0.17284 0.55064 0.0
C623 C 0.99087 0.18047 0.50607 0.0
C624 C 1.00777 0.15267 0.5456 0.0
C625 C 0.03455 0.17745 0.63513 0.0
C626 C 0.02301 0.14569 0.50314 0.0
C627 C 0.0235 0.12735 0.47863 0.0
C628 C 1.00872 0.11559 0.49595 0.0
C629 C 0.99386 0.12237 0.54201 0.0
C630 C 0.99334 0.14077 0.56621 0.0
H631 H 0.03806 0.18807 0.68145 0.0
H632 H 0.03044 0.16464 0.66717 0.0
H633 H 0.04712 0.17471 0.59879 0.0
H634 H 0.03404 0.15471 0.48399 0.0
H635 H 0.03508 0.12265 0.44282 0.0
H636 H 0.30633 0.02848 0.30156 0.0
H637 H 0.32366 0.01509 0.41323 0.0
H638 H 0.28517 0.97003 0.42597 0.0
H639 H 0.26857 0.98276 0.30849 0.0
H640 H 0.32459 1.00068 0.56096 0.0
H641 H 0.32746 0.94283 0.33626 0.0
H642 H 0.31527 0.9635 0.31067 0.0
H643 H 0.30614 0.94791 0.38609 0.0
C644 C 0.30127 0.01596 0.32954 0.0
C645 C 0.28667 1.00621 0.29409 0.0
C646 C 0.3111 1.00834 0.39415 0.0
C647 C 0.30629 0.99099 0.42533 0.0
C648 C 0.28965 0.98297 0.40019 0.0
H649 H 0.4189 0.96925 0.58077 0.0
H650 H 0.38607 0.96446 0.60607 0.0
C651 C 0.28002 0.9904 0.33373 0.0
C652 C 0.32088 0.98026 0.46721 0.0
H653 H 0.35352 0.94911 0.41108 0.0
C654 C 0.33072 0.98898 0.53029 0.0
C655 C 0.32867 0.96459 0.42877 0.0
C656 C 0.31893 0.95411 0.3617 0.0
C657 C 0.34926 0.98478 0.54483 0.0
C658 C 0.35777 0.97098 0.49712 0.0
C659 C 0.34696 0.96 0.44572 0.0
C660 C 0.37783 0.971 0.48237 0.0
C661 C 0.36 0.99646 0.60431 0.0
C662 C 0.38413 0.97521 0.40329 0.0
C663 C 0.40279 0.97736 0.38789 0.0
C664 C 0.41563 0.97561 0.45151 0.0
C665 C 0.40939 0.97059 0.53014 0.0
C666 C 0.39062 0.96813 0.54521 0.0
H667 H 0.35159 1.00768 0.63105 0.0
H668 H 0.365 0.98769 0.6551 0.0
H669 H 0.37213 1.00266 0.57372 0.0
H670 H 0.37451 0.97743 0.35362 0.0
H671 H 0.40712 0.98083 0.3264 0.0
H672 H 0.48549 0.30433 0.27337 0.0
H673 H 0.49463 0.32179 0.39286 0.0
H674 H 0.54032 0.28505 0.4317 0.0
H675 H 0.53229 0.26862 0.30628 0.0
H676 H 0.50441 0.32323 0.54705 0.0
H677 H 0.56851 0.32827 0.36006 0.0
H678 H 0.54921 0.31546 0.32217 0.0
H679 H 0.56274 0.30668 0.40599 0.0
C680 C 0.49732 0.29975 0.30805 0.0
C681 C 0.50875 0.2858 0.27781 0.0
C682 C 0.50244 0.30961 0.37737 0.0
C683 C 0.51882 0.30538 0.41876 0.0
C684 C 0.52818 0.28916 0.39814 0.0
H685 H 0.53618 0.41806 0.5938 0.0
H686 H 0.53835 0.38481 0.61951 0.0
C687 C 0.5234 0.2796 0.32686 0.0
C688 C 0.52767 0.32025 0.46699 0.0
H689 H 0.55953 0.35376 0.43261 0.0
C690 C 0.51682 0.32971 0.52432 0.0
C691 C 0.54419 0.32852 0.43896 0.0
C692 C 0.55687 0.3193 0.37843 0.0
C693 C 0.52016 0.34829 0.54244 0.0
C694 C 0.53513 0.35721 0.50433 0.0
C695 C 0.5478 0.34684 0.45961 0.0
C696 C 0.53538 0.37734 0.49189 0.0
C697 C 0.50652 0.35866 0.59435 0.0
C698 C 0.53361 0.38413 0.41158 0.0
C699 C 0.5326 0.40295 0.39701 0.0
C700 C 0.53315 0.41525 0.46262 0.0
C701 C 0.53545 0.4086 0.54274 0.0
C702 C 0.53665 0.38971 0.5574 0.0
H703 H 0.49489 0.34986 0.61435 0.0
H704 H 0.5135 0.36406 0.64977 0.0
H705 H 0.50091 0.37055 0.55983 0.0
H706 H 0.53254 0.37479 0.36011 0.0
H707 H 0.53077 0.40789 0.33495 0.0
H708 H 0.2265 0.53896 0.27529 0.0
H709 H 0.21012 0.53419 0.40299 0.0
H710 H 0.23879 0.48288 0.4391 0.0
H711 H 0.25524 0.48776 0.30959 0.0
H712 H 0.20368 0.47736 0.42436 0.0
H713 H 0.20981 0.5328 0.64714 0.0
H714 H 0.20937 0.54358 0.54873 0.0
H715 H 0.22788 0.52804 0.57416 0.0
C716 C 0.22987 0.52709 0.31244 0.0
C717 C 0.2419 0.51364 0.28299 0.0
C718 C 0.22069 0.52444 0.38619 0.0
C719 C 0.22331 0.50822 0.43156 0.0
C720 C 0.2367 0.49558 0.40575 0.0
H721 H 0.10925 0.4875 0.55903 0.0
H722 H 0.14152 0.48194 0.59457 0.0
C723 C 0.24603 0.49832 0.33183 0.0
C724 C 0.20864 0.50266 0.48936 0.0
H725 H 0.17686 0.52487 0.60548 0.0
C726 C 0.19813 0.48724 0.46743 0.0
C727 C 0.20155 0.51513 0.54763 0.0
C728 C 0.21294 0.53068 0.58127 0.0
C729 C 0.17954 0.48606 0.48874 0.0
C730 C 0.17155 0.50058 0.53378 0.0
C731 C 0.18292 0.51406 0.56862 0.0
C732 C 0.15186 0.50483 0.52384 0.0
C733 C 0.16805 0.47074 0.45322 0.0
C734 C 0.14704 0.51962 0.47312 0.0
C735 C 0.12879 0.52268 0.45189 0.0
C736 C 0.11492 0.51103 0.48118 0.0
C737 C 0.1197 0.49646 0.53391 0.0
C738 C 0.13807 0.49339 0.55518 0.0
H739 H 0.17648 0.46049 0.41968 0.0
H740 H 0.16061 0.46353 0.50302 0.0
H741 H 0.15768 0.47647 0.4104 0.0
H742 H 0.15755 0.52844 0.44724 0.0
H743 H 0.12562 0.5339 0.41063 0.0
H744 H 0.02865 0.76948 0.03918 0.0
H745 H 0.03455 0.78449 0.90684 0.0
H746 H 0.99251 0.82447 0.96084 0.0
H747 H 0.9863 0.80929 0.0904 0.0
H748 H 0.99633 0.81824 0.7917 0.0
H749 H 0.06441 0.83086 0.93946 0.0
H750 H 0.0573 0.8079 0.9138 0.0
H751 H 0.04656 0.81977 0.99756 0.0
C752 C 0.02025 0.78106 0.02092 0.0
C753 C 1.00735 0.78859 0.07536 0.0
C754 C 0.02369 0.78966 0.94565 0.0
C755 C 0.01431 0.80588 0.9249 0.0
C756 C 0.99998 0.81202 0.97543 0.0
H757 H 0.99635 0.90426 0.92394 0.0
H758 H 0.99743 0.87243 0.88041 0.0
C759 C 0.99654 0.80346 0.04994 0.0
C760 C 0.02133 0.81888 0.86253 0.0
H761 H 0.05104 0.85499 0.86788 0.0
C762 C 1.00874 0.82592 0.80529 0.0
C763 C 0.03782 0.82866 0.87767 0.0
C764 C 0.05238 0.82149 0.93523 0.0
C765 C 1.01052 0.84393 0.77571 0.0
C766 C 0.02512 0.85493 0.80469 0.0
C767 C 0.03954 0.84664 0.8478 0.0
C768 C 0.02303 0.87505 0.81394 0.0
C769 C 0.99567 0.85163 0.72135 0.0
C770 C 0.03718 0.88716 0.792 0.0
C771 C 0.03656 0.90554 0.81685 0.0
C772 C 0.02194 0.91205 0.86537 0.0
C773 C 1.00766 0.8999 0.88565 0.0
C774 C 1.00818 0.88166 0.86003 0.0
H775 H 0.99189 0.84145 0.67353 0.0
H776 H 0.98321 0.85432 0.75851 0.0
H777 H 0.99997 0.86461 0.69123 0.0
H778 H 0.04891 0.88227 0.75769 0.0
H779 H 0.04758 0.91462 0.79829 0.0
H780 H 0.75695 0.04455 0.06324 0.0
H781 H 0.7404 0.05684 0.94382 0.0
H782 H 0.70466 1.0095 0.94684 0.0
H783 H 0.72127 0.99723 0.06419 0.0
H784 H 0.70904 0.0254 0.78709 0.0
H785 H 0.69152 0.07718 0.02734 0.0
H786 H 0.71487 0.07488 0.99345 0.0
H787 H 0.70455 0.05702 0.05391 0.0
C788 C 0.74609 0.03647 0.03565 0.0
C789 C 0.74008 0.02015 0.07293 0.0
C790 C 0.73662 0.0435 0.96785 0.0
C791 C 0.72105 0.03428 0.9378 0.0
C792 C 0.71662 0.01686 0.96904 0.0
H793 H 0.61873 0.01518 0.8639 0.0
H794 H 0.65143 0.01871 0.8401 0.0
C795 C 0.72602 1.00989 0.03634 0.0
C796 C 0.70678 0.04388 0.88963 0.0
H797 H 0.66911 0.06979 0.93248 0.0
C798 C 0.70059 0.03568 0.81684 0.0
C799 C 0.69591 0.05762 0.92735 0.0
C800 C 0.70193 0.06725 0.00481 0.0
C801 C 0.68277 0.03897 0.78751 0.0
C802 C 0.67088 0.05038 0.83334 0.0
C803 C 0.6781 0.06075 0.89823 0.0
C804 C 0.65063 0.04841 0.82936 0.0
C805 C 0.67644 0.02909 0.71144 0.0
C806 C 0.63915 0.0639 0.83234 0.0
C807 C 0.62041 0.06192 0.84894 0.0
C808 C 0.61288 0.0444 0.86309 0.0
C809 C 0.62421 0.02889 0.85553 0.0
C810 C 0.64288 0.03088 0.83958 0.0
H811 H 0.68756 0.02891 0.66493 0.0
H812 H 0.67327 0.01458 0.72685 0.0
H813 H 0.66405 0.03556 0.68422 0.0
H814 H 0.64484 0.07758 0.82574 0.0
H815 H 0.612 0.07413 0.85411 0.0
H816 H 0.45751 0.72965 0.21241 0.0
H817 H 0.44748 0.71007 0.10038 0.0
H818 H 0.48297 0.73951 0.93467 0.0
H819 H 0.4939 0.75852 0.04852 0.0
H820 H 0.43628 0.70568 0.94075 0.0
H821 H 0.51157 0.69286 0.97454 0.0
H822 H 0.49964 0.70851 0.04085 0.0
H823 H 0.50481 0.71499 0.93702 0.0
C824 C 0.46256 0.73249 0.15134 0.0
C825 C 0.47701 0.745 0.13948 0.0
C826 C 0.45676 0.72133 0.08705 0.0
C827 C 0.46517 0.72277 0.01011 0.0
C828 C 0.47681 0.73778 0.99447 0.0
H829 H 0.49204 0.61594 0.81266 0.0
H830 H 0.48487 0.64862 0.79744 0.0
C831 C 0.48293 0.74876 0.05941 0.0
C832 C 0.46562 0.7061 0.95794 0.0
H833 H 0.49399 0.66997 0.91782 0.0
C834 C 0.44896 0.69804 0.93338 0.0
C835 C 0.48219 0.69606 0.94865 0.0
C836 C 0.50057 0.70341 0.97693 0.0
C837 C 0.44828 0.67977 0.90546 0.0
C838 C 0.46465 0.66936 0.90275 0.0
C839 C 0.48143 0.67797 0.91998 0.0
C840 C 0.46483 0.64905 0.89522 0.0
C841 C 0.42997 0.67159 0.88237 0.0
C842 C 0.45549 0.63826 0.95327 0.0
C843 C 0.45951 0.61956 0.96152 0.0
C844 C 0.47317 0.61153 0.91291 0.0
C845 C 0.48161 0.62199 0.85133 0.0
C846 C 0.4774 0.64057 0.84221 0.0
H847 H 0.42071 0.68226 0.85663 0.0
H848 H 0.43152 0.66034 0.83701 0.0
H849 H 0.4233 0.66596 0.93804 0.0
H850 H 0.44611 0.64454 0.9964 0.0
H851 H 0.45288 0.6117 0.00947 0.0
H852 H 0.77236 0.47901 0.10183 0.0
H853 H 0.7898 0.46828 0.98206 0.0
H854 H 0.81883 0.52002 0.97598 0.0
H855 H 0.80114 0.53076 0.09286 0.0
H856 H 0.81669 0.50373 0.82158 0.0
H857 H 0.84056 0.45382 0.05919 0.0
H858 H 0.8171 0.45308 0.02537 0.0
H859 H 0.82505 0.47208 0.08626 0.0
C860 C 0.78186 0.4883 0.07201 0.0
C861 C 0.78568 0.50557 0.10621 0.0
C862 C 0.79189 0.48215 0.00419 0.0
C863 C 0.80596 0.49316 0.97163 0.0
C864 C 0.80808 0.51125 8e-05 0.0
H865 H 0.90577 0.52225 0.91172 0.0
H866 H 0.8734 0.51592 0.88889 0.0
C867 C 0.79804 0.51739 0.06704 0.0
C868 C 0.82116 0.48528 0.92289 0.0
H869 H 0.8616 0.46348 0.96248 0.0
C870 C 0.82628 0.49434 0.85044 0.0
C871 C 0.83359 0.47274 0.95959 0.0
C872 C 0.82892 0.46234 0.03689 0.0
C873 C 0.84432 0.49322 0.82084 0.0
C874 C 0.8574 0.48294 0.86523 0.0
C875 C 0.85155 0.47162 0.9295 0.0
C876 C 0.87725 0.48709 0.86061 0.0
C877 C 0.84959 0.50426 0.74648 0.0
C878 C 0.89023 0.47297 0.85287 0.0
C879 C 0.90885 0.47657 0.86633 0.0
C880 C 0.91476 0.4943 0.88885 0.0
C881 C 0.90176 0.5085 0.89374 0.0
C882 C 0.88322 0.50492 0.87989 0.0
H883 H 0.838 0.50496 0.70232 0.0
H884 H 0.85291 0.51853 0.76539 0.0
H885 H 0.86175 0.49829 0.71531 0.0
H886 H 0.88587 0.45907 0.83922 0.0
H887 H 0.91859 0.46541 0.86031 0.0
H888 H 0.04625 0.22439 0.95076 0.0
H889 H 0.04668 0.19463 0.87881 0.0
H890 H 0.99078 0.18478 0.95365 0.0
H891 H 0.99033 0.21447 0.024 0.0
H892 H 0.04309 0.16128 0.94996 0.0
H893 H 0.98807 0.16803 0.71863 0.0
H894 H 0.99855 0.18765 0.7675 0.0
H895 H 0.98069 0.17496 0.81858 0.0
C896 C 0.03386 0.21615 0.94895 0.0
C897 C 0.0181 0.22196 0.99125 0.0
C898 C 0.03415 0.19904 0.90859 0.0
C899 C 0.01867 0.18739 0.9095 0.0
C900 C 1.00275 0.19356 0.94967 0.0
H901 H 0.01667 0.06765 0.89278 0.0
H902 H 0.01787 0.10018 0.93042 0.0
C903 C 1.00248 0.21058 0.98998 0.0
C904 C 0.0196 0.16816 0.87601 0.0
H905 H 0.99702 0.13734 0.75336 0.0
C906 C 0.03311 0.15613 0.9063 0.0
C907 C 1.00681 0.16131 0.81801 0.0
C908 C 0.99283 0.1737 0.77806 0.0
C909 C 0.03375 0.13747 0.88289 0.0
C910 C 0.02024 0.13033 0.82889 0.0
C911 C 1.00719 0.14255 0.79594 0.0
C912 C 0.0194 0.11031 0.80598 0.0
C913 C 0.0491 0.12567 0.91579 0.0
C914 C 0.01925 0.1049 0.72337 0.0
C915 C 0.01822 0.08624 0.7016 0.0
C916 C 0.01742 0.07236 0.76175 0.0
C917 C 0.01748 0.07781 0.84451 0.0
C918 C 0.0183 0.09651 0.86624 0.0
H919 H 0.0612 0.1341 0.93346 0.0
H920 H 0.04427 0.11837 0.97137 0.0
H921 H 0.05354 0.11529 0.87011 0.0
H922 H 0.02013 0.11515 0.6755 0.0
H923 H 0.01815 0.08268 0.6374 0.0
H924 H 0.31866 0.98805 0.06166 0.0
H925 H 0.34788 0.98944 0.98971 0.0
H926 H 0.33036 0.03884 0.86652 0.0
H927 H 0.30105 0.03784 0.94194 0.0
H928 H 0.35947 0.98835 0.83885 0.0
H929 H 0.37739 0.0568 0.96603 0.0
H930 H 0.35761 0.04403 0.00016 0.0
H931 H 0.35684 0.05656 0.90528 0.0
C932 C 0.32091 0.99916 0.01867 0.0
C933 C 0.30755 0.01298 0.0085 0.0
C934 C 0.33771 0.99993 0.97728 0.0
C935 C 0.34175 0.01451 0.92388 0.0
C936 C 0.32793 0.02772 0.90913 0.0
H937 H 0.44436 1.0105 0.63486 0.0
H938 H 0.41212 1.01117 0.67582 0.0
C939 C 0.31102 0.027 0.95126 0.0
C940 C 0.36066 0.01586 0.88713 0.0
H941 H 0.3991 0.04306 0.87855 0.0
C942 C 0.36804 1.00041 0.84702 0.0
C943 C 0.37216 0.0314 0.89889 0.0
C944 C 0.36572 0.04809 0.94555 0.0
C945 C 0.38642 0.99996 0.81976 0.0
C946 C 0.39779 0.01559 0.8304 0.0
C947 C 0.3904 0.03112 0.86954 0.0
C948 C 0.41758 0.01577 0.80447 0.0
C949 C 0.39386 0.98238 0.7839 0.0
C950 C 0.43161 0.01874 0.86224 0.0
C951 C 0.45019 0.01858 0.83879 0.0
C952 C 0.45526 0.01551 0.7567 0.0
C953 C 0.44113 0.01279 0.69876 0.0
C954 C 0.42258 0.01303 0.72224 0.0
H955 H 0.38424 0.97066 0.79188 0.0
H956 H 0.39631 0.98426 0.71754 0.0
H957 H 0.40721 0.97883 0.81279 0.0
H958 H 0.4282 0.02097 0.926 0.0
H959 H 0.46057 0.02077 0.88528 0.0
H960 H 0.47876 0.31595 0.03565 0.0
H961 H 0.47988 0.34604 0.96935 0.0
H962 H 0.5329 0.33291 0.86812 0.0
H963 H 0.53185 0.30265 0.93556 0.0
H964 H 0.53299 0.3662 0.94842 0.0
H965 H 0.4738 0.36435 0.73635 0.0
H966 H 0.46779 0.35742 0.83827 0.0
H967 H 0.48369 0.3438 0.77984 0.0
C968 C 0.49041 0.31923 0.99707 0.0
C969 C 0.50512 0.30676 0.99015 0.0
C970 C 0.49104 0.3365 0.95905 0.0
C971 C 0.5064 0.34187 0.91284 0.0
C972 C 0.52083 0.32915 0.90299 0.0
H973 H 0.5104 0.44713 0.64837 0.0
H974 H 0.50934 0.41461 0.68576 0.0
C975 C 0.52014 0.31174 0.94077 0.0
C976 C 0.50799 0.36124 0.88164 0.0
H977 H 0.48551 0.39415 0.76992 0.0
C978 C 0.52268 0.37224 0.90879 0.0
C979 C 0.49471 0.36924 0.82908 0.0
C980 C 0.47921 0.35805 0.79346 0.0
C981 C 0.52411 0.39098 0.8873 0.0
C982 C 0.51028 0.39924 0.83837 0.0
C983 C 0.49596 0.38807 0.8087 0.0
C984 C 0.51058 0.41932 0.81625 0.0
C985 C 0.54061 0.40168 0.91653 0.0
C986 C 0.51109 0.43309 0.87684 0.0
C987 C 0.51154 0.45184 0.85542 0.0
C988 C 0.51148 0.45735 0.77271 0.0
C989 C 0.51065 0.44351 0.71245 0.0
C990 C 0.51005 0.42483 0.73385 0.0
H991 H 0.55227 0.39245 0.9317 0.0
H992 H 0.54522 0.4117 0.86963 0.0
H993 H 0.53692 0.40935 0.97284 0.0
H994 H 0.511 0.42937 0.94099 0.0
H995 H 0.51205 0.46199 0.90382 0.0
H996 H 0.21469 0.48476 0.02777 0.0
H997 H 0.18526 0.48531 0.95486 0.0
H998 H 0.19611 0.54078 0.87617 0.0
H999 H 0.22578 0.54015 0.94871 0.0
H1000 H 0.16168 0.53548 0.96093 0.0
H1001 H 0.16969 0.48494 0.70907 0.0
H1002 H 0.17848 0.47774 0.80681 0.0
H1003 H 0.18895 0.49679 0.75483 0.0
C1004 C 0.21109 0.49683 0.99244 0.0
C1005 C 0.22272 0.5123 0.99284 0.0
C1006 C 0.19422 0.49716 0.95085 0.0
C1007 C 0.1884 0.51304 0.90926 0.0
C1008 C 0.20029 0.52831 0.90715 0.0
H1009 H 0.08381 0.5199 0.63792 0.0
H1010 H 0.11627 0.52084 0.67693 0.0
C1011 C 0.21734 0.52789 0.94799 0.0
C1012 C 0.16923 0.51421 0.87596 0.0
H1013 H 0.1392 0.49398 0.74187 0.0
C1014 C 0.15683 0.52652 0.91245 0.0
C1015 C 0.16283 0.50269 0.81211 0.0
C1016 C 0.17566 0.48987 0.76769 0.0
C1017 C 0.13819 0.52717 0.88902 0.0
C1018 C 0.13154 0.51499 0.82801 0.0
C1019 C 0.14412 0.50317 0.78927 0.0
C1020 C 0.11162 0.51426 0.80424 0.0
C1021 C 0.12579 0.54102 0.92973 0.0
C1022 C 0.098 0.5101 0.86242 0.0
C1023 C 0.07933 0.50966 0.84047 0.0
C1024 C 0.07372 0.51323 0.75943 0.0
C1025 C 0.08745 0.51709 0.70095 0.0
C1026 C 0.10612 0.51757 0.72308 0.0
H1027 H 0.13374 0.55256 0.95675 0.0
H1028 H 0.11567 0.54672 0.88562 0.0
H1029 H 0.11813 0.53419 0.97994 0.0
H1030 H 0.1018 0.50711 0.9251 0.0
H1031 H 0.06929 0.50653 0.8873 0.0
H1032 H 0.03661 0.8167 0.31957 0.0
H1033 H 0.03652 0.84591 0.39353 0.0
H1034 H 0.98391 0.83241 0.49817 0.0
H1035 H 0.98398 0.80299 0.42344 0.0
H1036 H 0.98427 0.86665 0.42214 0.0
H1037 H 0.04369 0.86146 0.63194 0.0
H1038 H 0.04903 0.85454 0.52924 0.0
H1039 H 0.03262 0.84158 0.58793 0.0
C1040 C 0.02529 0.81968 0.3604 0.0
C1041 C 1.01039 0.80741 0.36626 0.0
C1042 C 0.02525 0.83643 0.40284 0.0
C1043 C 1.01028 0.84145 0.45223 0.0
C1044 C 0.99568 0.82888 0.4609 0.0
H1045 H 1.01159 0.94583 0.72634 0.0
H1046 H 1.00982 0.91334 0.68859 0.0
C1047 C 0.9958 0.81197 0.41882 0.0
C1048 C 1.0092 0.86048 0.48735 0.0
H1049 H 0.03294 0.89184 0.60266 0.0
C1050 C 0.99482 0.87208 0.46233 0.0
C1051 C 0.02277 0.86764 0.54079 0.0
C1052 C 0.03781 0.85563 0.57483 0.0
C1053 C 0.99406 0.89069 0.48628 0.0
C1054 C 1.00826 0.89818 0.53551 0.0
C1055 C 0.02221 0.88636 0.56358 0.0
C1056 C 1.00894 0.91819 0.5582 0.0
C1057 C 0.9779 0.90211 0.4589 0.0
C1058 C 1.00904 0.93199 0.49774 0.0
C1059 C 1.00977 0.9507 0.51925 0.0
C1060 C 1.0107 0.95615 0.6019 0.0
C1061 C 1.01085 0.94228 0.66218 0.0
C1062 C 1.00993 0.9236 0.64066 0.0
H1063 H 0.9658 0.89337 0.44442 0.0
H1064 H 0.97389 0.91222 0.50652 0.0
H1065 H 0.98165 0.90973 0.40251 0.0
H1066 H 1.00873 0.9283 0.43356 0.0
H1067 H 1.0098 0.96087 0.47086 0.0
H1068 H 0.71907 0.98276 0.37243 0.0
H1069 H 0.68869 0.98303 0.43825 0.0
H1070 H 0.68776 0.04218 0.42387 0.0
H1071 H 0.71778 0.04183 0.3561 0.0
H1072 H 0.672 0.99817 0.57375 0.0
H1073 H 0.64271 0.02887 0.29221 0.0
H1074 H 0.6659 0.02025 0.29685 0.0
H1075 H 0.66051 0.04264 0.33706 0.0
C1076 C 0.71261 0.99582 0.3858 0.0
C1077 C 0.72089 0.01228 0.35984 0.0
C1078 C 0.69516 0.99599 0.42281 0.0
C1079 C 0.68559 0.01261 0.43429 0.0
C1080 C 0.69453 0.02913 0.41393 0.0
H1081 H 0.58137 0.02491 0.70321 0.0
H1082 H 0.61361 0.02488 0.66228 0.0
C1083 C 0.71185 0.02895 0.37632 0.0
C1084 C 0.66593 0.01264 0.46217 0.0
H1085 H 0.62276 0.02642 0.40591 0.0
C1086 C 0.66124 1.00436 0.53705 0.0
C1087 C 0.65169 0.02035 0.41381 0.0
C1088 C 0.65537 0.02836 0.33016 0.0
C1089 C 0.6429 1.00387 0.56538 0.0
C1090 C 0.62875 0.01214 0.51815 0.0
C1091 C 0.63347 0.0202 0.44282 0.0
C1092 C 0.60892 0.01221 0.54408 0.0
C1093 C 0.63888 0.99404 0.64465 0.0
C1094 C 0.59513 1.00581 0.4906 0.0
C1095 C 0.57652 1.00618 0.51328 0.0
C1096 C 0.57111 0.01291 0.59036 0.0
C1097 C 0.58492 0.01944 0.64366 0.0
C1098 C 0.6035 0.01926 0.62055 0.0
H1099 H 0.6499 0.9841 0.66054 0.0
H1100 H 0.63805 1.00425 0.69491 0.0
H1101 H 0.62561 0.98655 0.64145 0.0
H1102 H 0.59879 1.00039 0.43106 0.0
H1103 H 0.56638 1.00104 0.47048 0.0
H1104 H 0.50628 0.73113 0.48592 0.0
H1105 H 0.51076 0.70129 0.55451 0.0
H1106 H 0.52804 0.67751 0.32549 0.0
H1107 H 0.52398 0.70714 0.25806 0.0
H1108 H 0.49226 0.6698 0.52246 0.0
H1109 H 0.56601 0.65612 0.47487 0.0
H1110 H 0.55615 0.67861 0.45987 0.0
H1111 H 0.55479 0.66153 0.38023 0.0
C1112 C 0.51168 0.71968 0.45116 0.0
C1113 C 0.51497 0.72157 0.36676 0.0
C1114 C 0.51405 0.70255 0.49011 0.0
C1115 C 0.51995 0.68703 0.44567 0.0
C1116 C 0.52392 0.6892 0.36207 0.0
H1117 H 0.52426 0.56847 0.48709 0.0
H1118 H 0.52514 0.60085 0.44675 0.0
C1119 C 0.52154 0.70621 0.32335 0.0
C1120 C 0.52047 0.66825 0.48379 0.0
H1121 H 0.54712 0.6297 0.50303 0.0
C1122 C 0.50436 0.66115 0.51937 0.0
C1123 C 0.53619 0.65679 0.47985 0.0
C1124 C 0.5543 0.66373 0.4474 0.0
C1125 C 0.50332 0.64284 0.54754 0.0
C1126 C 0.51888 0.63122 0.54105 0.0
C1127 C 0.53512 0.63845 0.50747 0.0
C1128 C 0.51847 0.61143 0.56681 0.0
C1129 C 0.48531 0.63586 0.58092 0.0
C1130 C 0.51468 0.60641 0.64815 0.0
C1131 C 0.51407 0.58784 0.67153 0.0
C1132 C 0.51744 0.57372 0.61424 0.0
C1133 C 0.52153 0.57883 0.53306 0.0
C1134 C 0.52208 0.59742 0.5098 0.0
H1135 H 0.47367 0.645 0.56431 0.0
H1136 H 0.48233 0.62181 0.55793 0.0
H1137 H 0.48611 0.63523 0.64867 0.0
H1138 H 0.51233 0.61691 0.69386 0.0
H1139 H 0.511 0.58458 0.73475 0.0
H1140 H 0.80674 0.54408 0.40484 0.0
H1141 H 0.8375 0.54472 0.46751 0.0
H1142 H 0.84047 0.4857 0.4494 0.0
H1143 H 0.81006 0.48513 0.38511 0.0
H1144 H 0.85566 0.52946 0.60078 0.0
H1145 H 0.8841 0.50141 0.31252 0.0
H1146 H 0.86071 0.5093 0.32081 0.0
H1147 H 0.86697 0.48683 0.35737 0.0
C1148 C 0.81373 0.53122 0.41678 0.0
C1149 C 0.80591 0.51454 0.39055 0.0
C1150 C 0.83141 0.53159 0.45195 0.0
C1151 C 0.84163 0.51529 0.46135 0.0
C1152 C 0.83317 0.49852 0.44102 0.0
H1153 H 0.94748 0.50189 0.71534 0.0
H1154 H 0.91495 0.50231 0.67838 0.0
C1155 C 0.81564 0.49817 0.40534 0.0
C1156 C 0.86146 0.51584 0.48691 0.0
H1157 H 0.90465 0.50356 0.42463 0.0
C1158 C 0.86636 0.52376 0.56236 0.0
C1159 C 0.87562 0.50883 0.43613 0.0
C1160 C 0.87166 0.50128 0.35186 0.0
C1161 C 0.88482 0.52439 0.58921 0.0
C1162 C 0.89889 0.51679 0.53956 0.0
C1163 C 0.89399 0.50924 0.46341 0.0
C1164 C 0.91882 0.51685 0.56397 0.0
C1165 C 0.88908 0.53356 0.66981 0.0
C1166 C 0.93219 0.52436 0.51144 0.0
C1167 C 0.95092 0.524 0.5323 0.0
C1168 C 0.95686 0.51611 0.60643 0.0
C1169 C 0.94348 0.50845 0.65864 0.0
C1170 C 0.92475 0.50874 0.6376 0.0
H1171 H 0.87786 0.54293 0.68919 0.0
H1172 H 0.89067 0.52289 0.71775 0.0
H1173 H 0.90207 0.54152 0.66634 0.0
H1174 H 0.92811 0.5306 0.45403 0.0
H1175 H 0.96073 0.53002 0.49034 0.0
loop_
_geom_bond_atom_site_label_1
_geom_bond_atom_site_label_2
_geom_bond_distance
_geom_bond_site_symmetry_2
_ccdc_geom_bond_type
H0 C1 0.949 . S
C1 H0 0.949 . S
C1 C2 1.395 . S
C1 C3 1.391 . S
C2 C1 1.395 . S
C2 C5 1.390 . S
C3 C1 1.391 . S
C3 C7 1.387 . S
C3 C8 1.491 . S
H4 C5 0.950 . S
C5 C2 1.390 . S
C5 H4 0.950 . S
C5 C6 1.378 . S
C6 C5 1.378 . S
C6 C7 1.409 . S
C7 C3 1.387 . S
C7 C6 1.409 . S
C7 H9 0.951 . S
C8 C3 1.491 . S
C8 C10 1.382 . S
C8 C12 1.404 . S
H9 C7 0.951 . S
C10 C8 1.382 . S
C10 C11 1.390 . S
C10 H15 0.949 . S
C11 C10 1.390 . S
C11 C16 1.399 . S
C12 C8 1.404 . S
C12 H13 0.950 . S
C12 C14 1.375 . S
H13 C12 0.950 . S
C14 C12 1.375 . S
C14 C16 1.382 . S
C14 H18 0.950 . S
H15 C10 0.949 . S
C16 C11 1.399 . S
C16 C14 1.382 . S
C16 H17 0.952 . S
H17 C16 0.952 . S
H18 C14 0.950 . S
H19 C20 0.949 . S
C20 H19 0.949 . S
C20 C21 1.405 . S
C20 C22 1.391 . S
C21 C20 1.405 . S
C21 C24 1.387 1_655 S
C22 C20 1.391 . S
C22 C26 1.387 . S
C22 C27 1.491 . S
H23 C24 0.952 . S
C24 C21 1.387 1_455 S
C24 H23 0.952 . S
C24 C25 1.377 1_455 S
C25 C24 1.377 1_655 S
C25 C26 1.409 . S
C26 C22 1.387 . S
C26 C25 1.409 . S
C26 H28 0.951 . S
C27 C22 1.491 . S
C27 C29 1.382 . S
C27 C31 1.404 . S
H28 C26 0.951 . S
C29 C27 1.382 . S
C29 C30 1.390 . S
C29 H34 0.949 1_655 S
C30 C29 1.390 . S
C30 C35 1.399 . S
C31 C27 1.404 . S
C31 H32 0.950 . S
C31 C33 1.375 . S
H32 C31 0.950 . S
C33 C31 1.375 . S
C33 C35 1.382 . S
C33 H37 0.950 . S
H34 C29 0.949 1_455 S
C35 C30 1.399 . S
C35 C33 1.382 . S
C35 H36 0.952 . S
H36 C35 0.952 . S
H37 C33 0.950 . S
H38 C39 0.949 . S
C39 H38 0.949 . S
C39 C40 1.395 . S
C39 C41 1.391 . S
C40 C39 1.395 . S
C40 C43 1.390 1_565 S
C41 C39 1.391 . S
C41 C45 1.387 . S
C41 C46 1.491 . S
H42 C43 0.950 . S
C43 C40 1.390 1_545 S
C43 H42 0.950 . S
C43 C44 1.378 1_545 S
C44 C43 1.378 1_565 S
C44 C45 1.409 . S
C45 C41 1.387 . S
C45 C44 1.409 . S
C45 H47 0.951 . S
C46 C41 1.491 . S
C46 C48 1.382 . S
C46 C50 1.404 . S
H47 C45 0.951 . S
C48 C46 1.382 . S
C48 C49 1.390 . S
C48 H53 0.949 1_565 S
C49 C48 1.390 . S
C49 C54 1.399 . S
C50 C46 1.404 . S
C50 H51 0.950 . S
C50 C52 1.375 . S
H51 C50 0.950 . S
C52 C50 1.375 . S
C52 C54 1.382 . S
C52 H56 0.950 . S
H53 C48 0.949 1_545 S
C54 C49 1.399 . S
C54 C52 1.382 . S
C54 H55 0.952 . S
H55 C54 0.952 . S
H56 C52 0.950 . S
H57 C58 0.949 . S
C58 H57 0.949 . S
C58 C59 1.395 . S
C58 C60 1.391 . S
C59 C58 1.395 . S
C59 C62 1.390 . S
C60 C58 1.391 . S
C60 C64 1.387 . S
C60 C65 1.491 . S
H61 C62 0.950 . S
C62 C59 1.390 . S
C62 H61 0.950 . S
C62 C63 1.378 . S
C63 C62 1.378 . S
C63 C64 1.409 . S
C64 C60 1.387 . S
C64 C63 1.409 . S
C64 H66 0.951 . S
C65 C60 1.491 . S
C65 C67 1.382 . S
C65 C69 1.404 . S
H66 C64 0.951 . S
C67 C65 1.382 . S
C67 C68 1.390 . S
C67 H72 0.949 . S
C68 C67 1.390 . S
C68 C73 1.399 . S
C69 C65 1.404 . S
C69 H70 0.950 . S
C69 C71 1.375 . S
H70 C69 0.950 . S
C71 C69 1.375 . S
C71 C73 1.382 . S
C71 H75 0.950 . S
H72 C67 0.949 . S
C73 C68 1.399 . S
C73 C71 1.382 . S
C73 H74 0.952 . S
H74 C73 0.952 . S
H75 C71 0.950 . S
H76 C77 0.949 . S
C77 H76 0.949 . S
C77 C78 1.395 . S
C77 C79 1.391 1_554 S
C78 C77 1.395 . S
C78 C81 1.390 1_554 S
C79 C77 1.391 1_556 S
C79 C83 1.387 . S
C79 C84 1.491 . S
H80 C81 0.950 . S
C81 C78 1.390 1_556 S
C81 H80 0.950 . S
C81 C82 1.378 . S
C82 C81 1.378 . S
C82 C83 1.409 . S
C83 C79 1.387 . S
C83 C82 1.409 . S
C83 H85 0.951 . S
C84 C79 1.491 . S
C84 C86 1.382 1_556 S
C84 C88 1.404 . S
H85 C83 0.951 . S
C86 C84 1.382 1_554 S
C86 C87 1.390 . S
C86 H91 0.949 . S
C87 C86 1.390 . S
C87 C92 1.399 1_554 S
C88 C84 1.404 . S
C88 H89 0.950 . S
C88 C90 1.375 . S
H89 C88 0.950 . S
C90 C88 1.375 . S
C90 C92 1.382 . S
C90 H94 0.950 . S
H91 C86 0.949 . S
C92 C87 1.399 1_556 S
C92 C90 1.382 . S
C92 H93 0.952 . S
H93 C92 0.952 . S
H94 C90 0.950 . S
H95 C96 0.948 1_655 S
C96 H95 0.948 1_455 S
C96 C97 1.398 . S
C96 C98 1.389 1_454 S
C97 C96 1.398 . S
C97 C100 1.390 1_554 S
C98 C96 1.389 1_656 S
C98 C102 1.387 . S
C98 C103 1.491 . S
H99 C100 0.950 . S
C100 C97 1.390 1_556 S
C100 H99 0.950 . S
C100 C101 1.378 . S
C101 C100 1.378 . S
C101 C102 1.410 1_455 S
C102 C98 1.387 . S
C102 C101 1.410 1_655 S
C102 H104 0.951 . S
C103 C98 1.491 . S
C103 C105 1.382 1_656 S
C103 C107 1.404 . S
H104 C102 0.951 . S
C105 C103 1.382 1_454 S
C105 C106 1.390 1_455 S
C105 H110 0.949 . S
C106 C105 1.390 1_655 S
C106 C111 1.399 1_554 S
C107 C103 1.404 . S
C107 H108 0.950 . S
C107 C109 1.375 . S
H108 C107 0.950 . S
C109 C107 1.375 . S
C109 C111 1.382 . S
C109 H113 0.950 . S
H110 C105 0.949 . S
C111 C106 1.399 1_556 S
C111 C109 1.382 . S
C111 H112 0.952 . S
H112 C111 0.952 . S
H113 C109 0.950 . S
H114 C115 0.948 1_565 S
C115 H114 0.948 1_545 S
C115 C116 1.396 . S
C115 C117 1.390 1_544 S
C116 C115 1.396 . S
C116 C119 1.390 1_554 S
C117 C115 1.390 1_566 S
C117 C121 1.388 . S
C117 C122 1.491 . S
H118 C119 0.950 . S
C119 C116 1.390 1_556 S
C119 H118 0.950 . S
C119 C120 1.378 . S
C120 C119 1.378 . S
C120 C121 1.408 1_545 S
C121 C117 1.388 . S
C121 C120 1.408 1_565 S
C121 H123 0.951 . S
C122 C117 1.491 . S
C122 C124 1.382 1_566 S
C122 C126 1.404 . S
H123 C121 0.951 . S
C124 C122 1.382 1_544 S
C124 C125 1.390 1_545 S
C124 H129 0.949 . S
C125 C124 1.390 1_565 S
C125 C130 1.399 1_554 S
C126 C122 1.404 . S
C126 H127 0.950 . S
C126 C128 1.375 . S
H127 C126 0.950 . S
C128 C126 1.375 . S
C128 C130 1.382 . S
C128 H132 0.950 . S
H129 C124 0.949 . S
C130 C125 1.399 1_556 S
C130 C128 1.382 . S
C130 H131 0.952 . S
H131 C130 0.952 . S
H132 C128 0.950 . S
H133 C134 0.949 . S
C134 H133 0.949 . S
C134 C135 1.395 . S
C134 C136 1.391 1_554 S
C135 C134 1.395 . S
C135 C138 1.390 1_554 S
C136 C134 1.391 1_556 S
C136 C140 1.387 . S
C136 C141 1.491 . S
H137 C138 0.950 . S
C138 C135 1.390 1_556 S
C138 H137 0.950 . S
C138 C139 1.378 . S
C139 C138 1.378 . S
C139 C140 1.409 . S
C140 C136 1.387 . S
C140 C139 1.409 . S
C140 H142 0.951 . S
C141 C136 1.491 . S
C141 C143 1.382 1_556 S
C141 C145 1.404 . S
H142 C140 0.951 . S
C143 C141 1.382 1_554 S
C143 C144 1.390 . S
C143 H148 0.949 . S
C144 C143 1.390 . S
C144 C149 1.399 1_554 S
C145 C141 1.404 . S
C145 H146 0.950 . S
C145 C147 1.375 . S
H146 C145 0.950 . S
C147 C145 1.375 . S
C147 C149 1.382 . S
C147 H151 0.950 . S
H148 C143 0.949 . S
C149 C144 1.399 1_556 S
C149 C147 1.382 . S
C149 H150 0.952 . S
H150 C149 0.952 . S
H151 C147 0.950 . S
Pr152 C154 2.880 . S
Pr152 O172 2.560 1_455 S
Pr152 O173 2.490 . S
Pr152 O174 2.695 1_565 S
Pr152 O175 2.512 . S
Pr152 O177 2.437 . S
Pr152 O180 2.436 1_455 S
Pr152 O182 2.438 1_565 S
Pr153 C163 2.880 . S
Pr153 O174 2.436 1_655 S
Pr153 O176 2.438 1_545 S
Pr153 O178 2.562 1_655 S
Pr153 O179 2.490 . S
Pr153 O180 2.695 1_545 S
Pr153 O181 2.512 . S
Pr153 O183 2.437 . S
C154 Pr152 2.880 . S
C154 C155 1.491 . S
C154 O172 1.248 1_455 S
C154 O173 1.225 . S
C155 C154 1.491 . S
C155 C156 1.392 . S
C155 C160 1.356 . S
C156 C155 1.392 . S
C156 C157 1.368 . S
C156 H184 0.929 . S
C157 C156 1.368 . S
C157 C158 1.386 . S
C157 H185 0.929 . S
C158 C157 1.386 . S
C158 C159 1.373 . S
C159 C158 1.373 . S
C159 C160 1.409 . S
C159 H186 0.931 1_455 S
C160 C155 1.356 . S
C160 C159 1.409 . S
C160 H187 0.930 1_455 S
C161 O174 1.271 . S
C161 O175 1.248 1_545 S
C162 O176 1.267 . S
C162 O177 1.278 1_655 S
C163 Pr153 2.880 . S
C163 C164 1.491 . S
C163 O178 1.254 1_655 S
C163 O179 1.225 . S
C164 C163 1.491 . S
C164 C165 1.392 . S
C164 C169 1.343 1_655 S
C165 C164 1.392 . S
C165 C166 1.368 . S
C165 H188 0.929 . S
C166 C165 1.368 . S
C166 C167 1.386 . S
C166 H189 0.929 . S
C167 C166 1.386 . S
C167 C168 1.373 . S
C168 C167 1.373 . S
C168 C169 1.408 1_655 S
C168 H190 0.931 1_655 S
C169 C164 1.343 1_455 S
C169 C168 1.408 1_455 S
C169 H191 0.944 . S
C170 O180 1.270 1_545 S
C170 O181 1.248 . S
C171 O182 1.267 . S
C171 O183 1.278 1_455 S
O172 Pr152 2.560 1_655 S
O172 C154 1.248 1_655 S
O173 Pr152 2.490 . S
O173 C154 1.225 . S
O174 Pr152 2.695 1_545 S
O174 Pr153 2.436 1_455 S
O174 C161 1.271 . S
O175 Pr152 2.512 . S
O175 C161 1.248 1_565 S
O176 Pr153 2.438 1_565 S
O176 C162 1.267 . S
O177 Pr152 2.437 . S
O177 C162 1.278 1_455 S
O178 Pr153 2.562 1_455 S
O178 C163 1.254 1_455 S
O179 Pr153 2.490 . S
O179 C163 1.225 . S
O180 Pr152 2.436 1_655 S
O180 Pr153 2.695 1_565 S
O180 C170 1.270 1_565 S
O181 Pr153 2.512 . S
O181 C170 1.248 . S
O182 Pr152 2.438 1_545 S
O182 C171 1.267 . S
O183 Pr153 2.437 . S
O183 C171 1.278 1_655 S
H184 C156 0.929 . S
H185 C157 0.929 . S
H186 C159 0.931 1_655 S
H187 C160 0.930 1_655 S
H188 C165 0.929 . S
H189 C166 0.929 . S
H190 C168 0.931 1_455 S
H191 C169 0.944 . S
Pr192 C194 2.880 . S
Pr192 O212 2.555 1_545 S
Pr192 O213 2.490 . S
Pr192 O214 2.695 . S
Pr192 O215 2.512 . S
Pr192 O217 2.437 . S
Pr192 O220 2.436 1_545 S
Pr192 O222 2.438 . S
Pr193 C203 2.880 . S
Pr193 O214 2.436 1_565 S
Pr193 O216 2.438 . S
Pr193 O218 2.562 1_565 S
Pr193 O219 2.490 . S
Pr193 O220 2.695 . S
Pr193 O221 2.512 . S
Pr193 O223 2.437 . S
C194 Pr192 2.880 . S
C194 C195 1.491 . S
C194 O212 1.236 1_545 S
C194 O213 1.225 . S
C195 C194 1.491 . S
C195 C196 1.392 . S
C195 C200 1.356 . S
C196 C195 1.392 . S
C196 C197 1.368 . S
C196 H224 0.929 . S
C197 C196 1.368 . S
C197 C198 1.386 . S
C197 H225 0.929 . S
C198 C197 1.386 . S
C198 C199 1.373 . S
C199 C198 1.373 . S
C199 C200 1.409 . S
C199 H226 0.931 1_545 S
C200 C195 1.356 . S
C200 C199 1.409 . S
C200 H227 0.930 1_545 S
C201 O214 1.270 . S
C201 O215 1.248 . S
C202 O216 1.267 . S
C202 O217 1.278 1_565 S
C203 Pr193 2.880 . S
C203 C204 1.491 . S
C203 O218 1.254 1_565 S
C203 O219 1.225 . S
C204 C203 1.491 . S
C204 C205 1.392 . S
C204 C209 1.353 1_565 S
C205 C204 1.392 . S
C205 C206 1.368 . S
C205 H228 0.929 . S
C206 C205 1.368 . S
C206 C207 1.386 . S
C206 H229 0.929 . S
C207 C206 1.386 . S
C207 C208 1.373 . S
C208 C207 1.373 . S
C208 C209 1.409 1_565 S
C208 H230 0.931 1_565 S
C209 C204 1.353 1_545 S
C209 C208 1.409 1_545 S
C209 H231 0.933 . S
C210 O220 1.270 . S
C210 O221 1.248 . S
C211 O222 1.267 . S
C211 O223 1.278 1_545 S
O212 Pr192 2.555 1_565 S
O212 C194 1.236 1_565 S
O213 Pr192 2.490 . S
O213 C194 1.225 . S
O214 Pr192 2.695 . S
O214 Pr193 2.436 1_545 S
O214 C201 1.270 . S
O215 Pr192 2.512 . S
O215 C201 1.248 . S
O216 Pr193 2.438 . S
O216 C202 1.267 . S
O217 Pr192 2.437 . S
O217 C202 1.278 1_545 S
O218 Pr193 2.562 1_545 S
O218 C203 1.254 1_545 S
O219 Pr193 2.490 . S
O219 C203 1.225 . S
O220 Pr192 2.436 1_565 S
O220 Pr193 2.695 . S
O220 C210 1.270 . S
O221 Pr193 2.512 . S
O221 C210 1.248 . S
O222 Pr192 2.438 . S
O222 C211 1.267 . S
O223 Pr193 2.437 . S
O223 C211 1.278 1_565 S
H224 C196 0.929 . S
H225 C197 0.929 . S
H226 C199 0.931 1_565 S
H227 C200 0.930 1_565 S
H228 C205 0.929 . S
H229 C206 0.929 . S
H230 C208 0.931 1_545 S
H231 C209 0.933 . S
Pr232 C234 2.880 . S
Pr232 O252 2.562 . S
Pr232 O253 2.490 . S
Pr232 O254 2.695 . S
Pr232 O255 2.512 . S
Pr232 O257 2.437 . S
Pr232 O260 2.436 . S
Pr232 O262 2.438 . S
Pr233 C243 2.880 . S
Pr233 O254 2.436 . S
Pr233 O256 2.438 . S
Pr233 O258 2.562 . S
Pr233 O259 2.490 . S
Pr233 O260 2.695 . S
Pr233 O261 2.512 . S
Pr233 O263 2.437 . S
C234 Pr232 2.880 . S
C234 C235 1.491 . S
C234 O252 1.254 . S
C234 O253 1.225 . S
C235 C234 1.491 . S
C235 C236 1.392 . S
C235 C240 1.356 . S
C236 C235 1.392 . S
C236 C237 1.368 . S
C236 H264 0.929 . S
C237 C236 1.368 . S
C237 C238 1.386 . S
C237 H265 0.929 . S
C238 C237 1.386 . S
C238 C239 1.373 . S
C239 C238 1.373 . S
C239 C240 1.409 . S
C239 H266 0.931 . S
C240 C235 1.356 . S
C240 C239 1.409 . S
C240 H267 0.930 . S
C241 O254 1.270 . S
C241 O255 1.248 . S
C242 O256 1.267 . S
C242 O257 1.278 . S
C243 Pr233 2.880 . S
C243 C244 1.491 . S
C243 O258 1.254 . S
C243 O259 1.225 . S
C244 C243 1.491 . S
C244 C245 1.392 . S
C244 C249 1.356 . S
C245 C244 1.392 . S
C245 C246 1.368 . S
C245 H268 0.929 . S
C246 C245 1.368 . S
C246 C247 1.386 . S
C246 H269 0.929 . S
C247 C246 1.386 . S
C247 C248 1.373 . S
C248 C247 1.373 . S
C248 C249 1.409 . S
C248 H270 0.931 . S
C249 C244 1.356 . S
C249 C248 1.409 . S
C249 H271 0.930 . S
C250 O260 1.270 . S
C250 O261 1.248 . S
C251 O262 1.267 . S
C251 O263 1.278 . S
O252 Pr232 2.562 . S
O252 C234 1.254 . S
O253 Pr232 2.490 . S
O253 C234 1.225 . S
O254 Pr232 2.695 . S
O254 Pr233 2.436 . S
O254 C241 1.270 . S
O255 Pr232 2.512 . S
O255 C241 1.248 . S
O256 Pr233 2.438 . S
O256 C242 1.267 . S
O257 Pr232 2.437 . S
O257 C242 1.278 . S
O258 Pr233 2.562 . S
O258 C243 1.254 . S
O259 Pr233 2.490 . S
O259 C243 1.225 . S
O260 Pr232 2.436 . S
O260 Pr233 2.695 . S
O260 C250 1.270 . S
O261 Pr233 2.512 . S
O261 C250 1.248 . S
O262 Pr232 2.438 . S
O262 C251 1.267 . S
O263 Pr233 2.437 . S
O263 C251 1.278 . S
H264 C236 0.929 . S
H265 C237 0.929 . S
H266 C239 0.931 . S
H267 C240 0.930 . S
H268 C245 0.929 . S
H269 C246 0.929 . S
H270 C248 0.931 . S
H271 C249 0.930 . S
Pr272 C274 2.880 . S
Pr272 O292 2.562 . S
Pr272 O293 2.490 . S
Pr272 O294 2.695 1_655 S
Pr272 O295 2.512 . S
Pr272 O297 2.437 . S
Pr272 O300 2.436 . S
Pr272 O302 2.438 1_655 S
Pr273 C283 2.880 . S
Pr273 O294 2.436 . S
Pr273 O296 2.438 1_455 S
Pr273 O298 2.562 . S
Pr273 O299 2.490 . S
Pr273 O300 2.695 1_455 S
Pr273 O301 2.512 . S
Pr273 O303 2.437 . S
C274 Pr272 2.880 . S
C274 C275 1.491 . S
C274 O292 1.254 . S
C274 O293 1.225 . S
C275 C274 1.491 . S
C275 C276 1.392 . S
C275 C280 1.356 . S
C276 C275 1.392 . S
C276 C277 1.368 . S
C276 H304 0.929 . S
C277 C276 1.368 . S
C277 C278 1.386 . S
C277 H305 0.929 . S
C278 C277 1.386 . S
C278 C279 1.373 . S
C279 C278 1.373 . S
C279 C280 1.409 . S
C279 H306 0.931 . S
C280 C275 1.356 . S
C280 C279 1.409 . S
C280 H307 0.930 . S
C281 O294 1.275 . S
C281 O295 1.241 1_455 S
C282 O296 1.267 . S
C282 O297 1.278 . S
C283 Pr273 2.880 . S
C283 C284 1.491 . S
C283 O298 1.254 . S
C283 O299 1.225 . S
C284 C283 1.491 . S
C284 C285 1.392 . S
C284 C289 1.356 . S
C285 C284 1.392 . S
C285 C286 1.368 . S
C285 H308 0.929 . S
C286 C285 1.368 . S
C286 C287 1.386 . S
C286 H309 0.929 . S
C287 C286 1.386 . S
C287 C288 1.373 . S
C288 C287 1.373 . S
C288 C289 1.409 . S
C288 H310 0.931 . S
C289 C284 1.356 . S
C289 C288 1.409 . S
C289 H311 0.930 . S
C290 O300 1.270 1_455 S
C290 O301 1.248 . S
C291 O302 1.267 . S
C291 O303 1.278 . S
O292 Pr272 2.562 . S
O292 C274 1.254 . S
O293 Pr272 2.490 . S
O293 C274 1.225 . S
O294 Pr272 2.695 1_455 S
O294 Pr273 2.436 . S
O294 C281 1.275 . S
O295 Pr272 2.512 . S
O295 C281 1.241 1_655 S
O296 Pr273 2.438 1_655 S
O296 C282 1.267 . S
O297 Pr272 2.437 . S
O297 C282 1.278 . S
O298 Pr273 2.562 . S
O298 C283 1.254 . S
O299 Pr273 2.490 . S
O299 C283 1.225 . S
O300 Pr272 2.436 . S
O300 Pr273 2.695 1_655 S
O300 C290 1.270 1_655 S
O301 Pr273 2.512 . S
O301 C290 1.248 . S
O302 Pr272 2.438 1_455 S
O302 C291 1.267 . S
O303 Pr273 2.437 . S
O303 C291 1.278 . S
H304 C276 0.929 . S
H305 C277 0.929 . S
H306 C279 0.931 . S
H307 C280 0.930 . S
H308 C285 0.929 . S
H309 C286 0.929 . S
H310 C288 0.931 . S
H311 C289 0.930 . S
H312 C320 0.929 . S
H313 C322 0.930 . S
H314 C324 0.930 . S
H315 C327 0.929 . S
H316 C330 0.930 . S
H317 C332 0.960 . S
H318 C332 0.960 . S
H319 C332 0.960 . S
C320 H312 0.929 . S
C320 C321 1.377 1_565 S
C320 C322 1.384 . S
C321 C320 1.377 1_545 S
C321 C327 1.390 . S
C322 H313 0.930 . S
C322 C320 1.384 . S
C322 C323 1.372 1_565 S
C323 C322 1.372 1_545 S
C323 C324 1.400 . S
C323 C328 1.490 . S
C324 H314 0.930 . S
C324 C323 1.400 . S
C324 C327 1.386 . S
H325 C341 0.930 . S
H326 C342 0.931 . S
C327 H315 0.929 . S
C327 C321 1.390 . S
C327 C324 1.386 . S
C328 C323 1.490 . S
C328 C330 1.395 1_545 S
C328 C331 1.403 . S
H329 C335 0.930 . S
C330 H316 0.930 . S
C330 C328 1.395 1_565 S
C330 C333 1.403 . S
C331 C328 1.403 . S
C331 C332 1.524 . S
C331 C335 1.400 . S
C332 H317 0.960 . S
C332 H318 0.960 . S
C332 H319 0.960 . S
C332 C331 1.524 . S
C333 C330 1.403 . S
C333 C334 1.379 1_565 S
C333 C337 1.495 . S
C334 C333 1.379 1_545 S
C334 C335 1.400 . S
C334 C336 1.479 . S
C335 H329 0.930 . S
C335 C331 1.400 . S
C335 C334 1.400 . S
C336 C334 1.479 . S
C336 C338 1.381 1_545 S
C336 C342 1.383 . S
C337 C333 1.495 . S
C337 H343 0.959 . S
C337 H344 0.961 . S
C337 H345 0.960 . S
C338 C336 1.381 1_565 S
C338 C339 1.394 . S
C338 H346 0.930 . S
C339 C338 1.394 . S
C339 C340 1.383 1_565 S
C339 H347 0.929 . S
C340 C339 1.383 1_545 S
C340 C341 1.377 . S
C341 H325 0.930 . S
C341 C340 1.377 . S
C341 C342 1.379 . S
C342 H326 0.931 . S
C342 C336 1.383 . S
C342 C341 1.379 . S
H343 C337 0.959 . S
H344 C337 0.961 . S
H345 C337 0.960 . S
H346 C338 0.930 . S
H347 C339 0.929 . S
H348 C356 0.929 . S
H349 C358 0.930 . S
H350 C360 0.930 . S
H351 C363 0.929 . S
H352 C366 0.930 . S
H353 C368 0.960 . S
H354 C368 0.960 . S
H355 C368 0.960 . S
C356 H348 0.929 . S
C356 C357 1.377 . S
C356 C358 1.384 . S
C357 C356 1.377 . S
C357 C363 1.390 . S
C358 H349 0.930 . S
C358 C356 1.384 . S
C358 C359 1.372 . S
C359 C358 1.372 . S
C359 C360 1.400 . S
C359 C364 1.490 . S
C360 H350 0.930 . S
C360 C359 1.400 . S
C360 C363 1.386 . S
H361 C377 0.930 . S
H362 C378 0.931 . S
C363 H351 0.929 . S
C363 C357 1.390 . S
C363 C360 1.386 . S
C364 C359 1.490 . S
C364 C366 1.395 . S
C364 C367 1.403 . S
H365 C371 0.930 . S
C366 H352 0.930 . S
C366 C364 1.395 . S
C366 C369 1.403 . S
C367 C364 1.403 . S
C367 C368 1.524 . S
C367 C371 1.400 . S
C368 H353 0.960 . S
C368 H354 0.960 . S
C368 H355 0.960 . S
C368 C367 1.524 . S
C369 C366 1.403 . S
C369 C370 1.392 . S
C369 C373 1.495 . S
C370 C369 1.392 . S
C370 C371 1.385 . S
C370 C372 1.478 . S
C371 H365 0.930 . S
C371 C367 1.400 . S
C371 C370 1.385 . S
C372 C370 1.478 . S
C372 C374 1.381 . S
C372 C378 1.383 . S
C373 C369 1.495 . S
C373 H379 0.959 . S
C373 H380 0.961 . S
C373 H381 0.960 . S
C374 C372 1.381 . S
C374 C375 1.394 . S
C374 H382 0.930 . S
C375 C374 1.394 . S
C375 C376 1.383 . S
C375 H383 0.929 . S
C376 C375 1.383 . S
C376 C377 1.377 . S
C377 H361 0.930 . S
C377 C376 1.377 . S
C377 C378 1.379 . S
C378 H362 0.931 . S
C378 C372 1.383 . S
C378 C377 1.379 . S
H379 C373 0.959 . S
H380 C373 0.961 . S
H381 C373 0.960 . S
H382 C374 0.930 . S
H383 C375 0.929 . S
H384 C392 0.929 . S
H385 C394 0.930 . S
H386 C396 0.930 . S
H387 C399 0.929 . S
H388 C402 0.930 . S
H389 C404 0.960 . S
H390 C404 0.960 . S
H391 C404 0.960 . S
C392 H384 0.929 . S
C392 C393 1.377 . S
C392 C394 1.384 . S
C393 C392 1.377 . S
C393 C399 1.390 . S
C394 H385 0.930 . S
C394 C392 1.384 . S
C394 C395 1.372 . S
C395 C394 1.372 . S
C395 C396 1.400 . S
C395 C400 1.490 . S
C396 H386 0.930 . S
C396 C395 1.400 . S
C396 C399 1.386 . S
H397 C413 0.930 . S
H398 C414 0.931 . S
C399 H387 0.929 . S
C399 C393 1.390 . S
C399 C396 1.386 . S
C400 C395 1.490 . S
C400 C402 1.395 . S
C400 C403 1.403 . S
H401 C407 0.930 . S
C402 H388 0.930 . S
C402 C400 1.395 . S
C402 C405 1.403 . S
C403 C400 1.403 . S
C403 C404 1.524 . S
C403 C407 1.400 . S
C404 H389 0.960 . S
C404 H390 0.960 . S
C404 H391 0.960 . S
C404 C403 1.524 . S
C405 C402 1.403 . S
C405 C406 1.392 . S
C405 C409 1.495 . S
C406 C405 1.392 . S
C406 C407 1.385 . S
C406 C408 1.478 . S
C407 H401 0.930 . S
C407 C403 1.400 . S
C407 C406 1.385 . S
C408 C406 1.478 . S
C408 C410 1.381 . S
C408 C414 1.383 . S
C409 C405 1.495 . S
C409 H415 0.959 . S
C409 H416 0.961 . S
C409 H417 0.960 . S
C410 C408 1.381 . S
C410 C411 1.394 . S
C410 H418 0.930 . S
C411 C410 1.394 . S
C411 C412 1.383 . S
C411 H419 0.929 . S
C412 C411 1.383 . S
C412 C413 1.377 . S
C413 H397 0.930 . S
C413 C412 1.377 . S
C413 C414 1.379 . S
C414 H398 0.931 . S
C414 C408 1.383 . S
C414 C413 1.379 . S
H415 C409 0.959 . S
H416 C409 0.961 . S
H417 C409 0.960 . S
H418 C410 0.930 . S
H419 C411 0.929 . S
H420 C428 0.929 . S
H421 C430 0.930 . S
H422 C432 0.930 . S
H423 C435 0.929 . S
H424 C438 0.930 . S
H425 C440 0.960 . S
H426 C440 1.004 . S
H427 C440 0.960 . S
C428 H420 0.929 . S
C428 C429 1.377 1_655 S
C428 C430 1.384 . S
C429 C428 1.377 1_455 S
C429 C435 1.390 . S
C430 H421 0.930 . S
C430 C428 1.384 . S
C430 C431 1.372 1_655 S
C431 C430 1.372 1_455 S
C431 C432 1.400 . S
C431 C436 1.490 . S
C432 H422 0.930 . S
C432 C431 1.400 . S
C432 C435 1.386 . S
H433 C449 0.930 . S
H434 C450 0.931 . S
C435 H423 0.929 . S
C435 C429 1.390 . S
C435 C432 1.386 . S
C436 C431 1.490 . S
C436 C438 1.395 1_455 S
C436 C439 1.403 . S
H437 C443 0.930 . S
C438 H424 0.930 . S
C438 C436 1.395 1_655 S
C438 C441 1.403 . S
C439 C436 1.403 . S
C439 C440 1.524 . S
C439 C443 1.400 . S
C440 H425 0.960 . S
C440 H426 1.004 . S
C440 H427 0.960 . S
C440 C439 1.524 . S
C441 C438 1.403 . S
C441 C442 1.392 1_655 S
C441 C445 1.495 . S
C442 C441 1.392 1_455 S
C442 C443 1.385 . S
C442 C444 1.478 . S
C443 H437 0.930 . S
C443 C439 1.400 . S
C443 C442 1.385 . S
C444 C442 1.478 . S
C444 C446 1.381 1_455 S
C444 C450 1.383 . S
C445 C441 1.495 . S
C445 H451 0.959 . S
C445 H452 0.916 1_655 S
C445 H453 0.960 . S
C446 C444 1.381 1_655 S
C446 C447 1.394 . S
C446 H454 0.930 . S
C447 C446 1.394 . S
C447 C448 1.383 1_655 S
C447 H455 0.929 . S
C448 C447 1.383 1_455 S
C448 C449 1.377 . S
C449 H433 0.930 . S
C449 C448 1.377 . S
C449 C450 1.379 . S
C450 H434 0.931 . S
C450 C444 1.383 . S
C450 C449 1.379 . S
H451 C445 0.959 . S
H452 C445 0.916 1_455 S
H453 C445 0.960 . S
H454 C446 0.930 . S
H455 C447 0.929 . S
H456 C464 0.929 . S
H457 C466 0.930 . S
H458 C468 0.930 . S
H459 C471 0.929 . S
H460 C474 0.929 1_545 S
H461 C476 0.960 . S
H462 C476 0.960 . S
H463 C476 0.960 1_545 S
C464 H456 0.929 . S
C464 C465 1.377 . S
C464 C466 1.384 . S
C465 C464 1.377 . S
C465 C471 1.390 1_565 S
C466 H457 0.930 . S
C466 C464 1.384 . S
C466 C467 1.372 . S
C467 C466 1.372 . S
C467 C468 1.400 1_565 S
C467 C472 1.490 . S
C468 H458 0.930 . S
C468 C467 1.400 1_545 S
C468 C471 1.386 . S
H469 C485 0.930 . S
H470 C486 0.931 . S
C471 H459 0.929 . S
C471 C465 1.390 1_545 S
C471 C468 1.386 . S
C472 C467 1.490 . S
C472 C474 1.396 1_554 S
C472 C475 1.403 . S
H473 C479 0.930 . S
C474 H460 0.929 1_565 S
C474 C472 1.396 1_556 S
C474 C477 1.403 1_565 S
C475 C472 1.403 . S
C475 C476 1.524 . S
C475 C479 1.400 . S
C476 H461 0.960 . S
C476 H462 0.960 . S
C476 H463 0.960 1_565 S
C476 C475 1.524 . S
C477 C474 1.403 1_545 S
C477 C478 1.391 1_545 S
C477 C481 1.495 . S
C478 C477 1.391 1_565 S
C478 C479 1.390 1_556 S
C478 C480 1.477 . S
C479 H473 0.930 . S
C479 C475 1.400 . S
C479 C478 1.390 1_554 S
C480 C478 1.477 . S
C480 C482 1.388 . S
C480 C486 1.376 1_565 S
C481 C477 1.495 . S
C481 H487 0.959 . S
C481 H488 0.961 . S
C481 H489 0.960 1_545 S
C482 C480 1.388 . S
C482 C483 1.394 . S
C482 H490 0.930 . S
C483 C482 1.394 . S
C483 C484 1.380 . S
C483 H491 0.929 . S
C484 C483 1.380 . S
C484 C485 1.380 1_565 S
C485 H469 0.930 . S
C485 C484 1.380 1_545 S
C485 C486 1.379 . S
C486 H470 0.931 . S
C486 C480 1.376 1_545 S
C486 C485 1.379 . S
H487 C481 0.959 . S
H488 C481 0.961 . S
H489 C481 0.960 1_565 S
H490 C482 0.930 . S
H491 C483 0.929 . S
H492 C500 0.929 . S
H493 C502 0.930 . S
H494 C504 0.930 . S
H495 C507 0.929 . S
H496 C510 0.930 . S
H497 C512 0.960 . S
H498 C512 0.960 . S
H499 C512 0.960 1_554 S
C500 H492 0.929 . S
C500 C501 1.377 . S
C500 C502 1.384 . S
C501 C500 1.377 . S
C501 C507 1.390 . S
C502 H493 0.930 . S
C502 C500 1.384 . S
C502 C503 1.372 . S
C503 C502 1.372 . S
C503 C504 1.400 . S
C503 C508 1.490 . S
C504 H494 0.930 . S
C504 C503 1.400 . S
C504 C507 1.386 . S
H505 C521 0.930 . S
H506 C522 0.931 . S
C507 H495 0.929 . S
C507 C501 1.390 . S
C507 C504 1.386 . S
C508 C503 1.490 . S
C508 C510 1.395 . S
C508 C511 1.403 . S
H509 C515 0.930 . S
C510 H496 0.930 . S
C510 C508 1.395 . S
C510 C513 1.403 . S
C511 C508 1.403 . S
C511 C512 1.524 1_554 S
C511 C515 1.400 1_554 S
C512 H497 0.960 . S
C512 H498 0.960 . S
C512 H499 0.960 1_556 S
C512 C511 1.524 1_556 S
C513 C510 1.403 . S
C513 C514 1.392 1_554 S
C513 C517 1.495 . S
C514 C513 1.392 1_556 S
C514 C515 1.385 . S
C514 C516 1.478 . S
C515 H509 0.930 . S
C515 C511 1.400 1_556 S
C515 C514 1.385 . S
C516 C514 1.478 . S
C516 C518 1.381 . S
C516 C522 1.383 . S
C517 C513 1.495 . S
C517 H523 0.959 . S
C517 H524 0.961 . S
C517 H525 0.960 . S
C518 C516 1.381 . S
C518 C519 1.394 . S
C518 H526 0.930 . S
C519 C518 1.394 . S
C519 C520 1.383 . S
C519 H527 0.929 . S
C520 C519 1.383 . S
C520 C521 1.377 . S
C521 H505 0.930 . S
C521 C520 1.377 . S
C521 C522 1.379 . S
C522 H506 0.931 . S
C522 C516 1.383 . S
C522 C521 1.379 . S
H523 C517 0.959 . S
H524 C517 0.961 . S
H525 C517 0.960 . S
H526 C518 0.930 . S
H527 C519 0.929 . S
H528 C536 0.929 . S
H529 C538 0.930 . S
H530 C540 0.930 . S
H531 C543 0.929 . S
H532 C546 0.930 . S
H533 C548 0.960 . S
H534 C548 0.960 . S
H535 C548 0.960 . S
C536 H528 0.929 . S
C536 C537 1.377 . S
C536 C538 1.384 . S
C537 C536 1.377 . S
C537 C543 1.390 . S
C538 H529 0.930 . S
C538 C536 1.384 . S
C538 C539 1.372 . S
C539 C538 1.372 . S
C539 C540 1.400 . S
C539 C544 1.490 . S
C540 H530 0.930 . S
C540 C539 1.400 . S
C540 C543 1.386 . S
H541 C557 0.930 . S
H542 C558 0.931 . S
C543 H531 0.929 . S
C543 C537 1.390 . S
C543 C540 1.386 . S
C544 C539 1.490 . S
C544 C546 1.395 . S
C544 C547 1.403 . S
H545 C551 0.930 . S
C546 H532 0.930 . S
C546 C544 1.395 . S
C546 C549 1.403 1_554 S
C547 C544 1.403 . S
C547 C548 1.524 . S
C547 C551 1.400 1_554 S
C548 H533 0.960 . S
C548 H534 0.960 . S
C548 H535 0.960 . S
C548 C547 1.524 . S
C549 C546 1.403 1_556 S
C549 C550 1.392 . S
C549 C553 1.495 . S
C550 C549 1.392 . S
C550 C551 1.385 . S
C550 C552 1.478 . S
C551 H545 0.930 . S
C551 C547 1.400 1_556 S
C551 C550 1.385 . S
C552 C550 1.478 . S
C552 C554 1.381 . S
C552 C558 1.383 . S
C553 C549 1.495 . S
C553 H559 0.959 . S
C553 H560 0.961 . S
C553 H561 0.960 . S
C554 C552 1.381 . S
C554 C555 1.394 . S
C554 H562 0.930 . S
C555 C554 1.394 . S
C555 C556 1.383 . S
C555 H563 0.929 . S
C556 C555 1.383 . S
C556 C557 1.377 . S
C557 H541 0.930 . S
C557 C556 1.377 . S
C557 C558 1.379 . S
C558 H542 0.931 . S
C558 C552 1.383 . S
C558 C557 1.379 . S
H559 C553 0.959 . S
H560 C553 0.961 . S
H561 C553 0.960 . S
H562 C554 0.930 . S
H563 C555 0.929 . S
H564 C572 0.929 . S
H565 C574 0.930 . S
H566 C576 0.930 . S
H567 C579 0.929 . S
H568 C582 0.930 . S
H569 C584 0.960 . S
H570 C584 0.960 . S
H571 C584 0.960 . S
C572 H564 0.929 . S
C572 C573 1.359 1_455 S
C572 C574 1.384 . S
C573 C572 1.359 1_655 S
C573 C579 1.411 . S
C574 H565 0.930 . S
C574 C572 1.384 . S
C574 C575 1.365 1_455 S
C575 C574 1.365 1_655 S
C575 C576 1.408 . S
C575 C580 1.489 1_655 S
C576 H566 0.930 . S
C576 C575 1.408 . S
C576 C579 1.386 . S
H577 C593 0.930 . S
H578 C594 0.931 . S
C579 H567 0.929 . S
C579 C573 1.411 . S
C579 C576 1.386 . S
C580 C575 1.489 1_455 S
C580 C582 1.411 . S
C580 C583 1.388 1_455 S
H581 C587 0.930 . S
C582 H568 0.930 . S
C582 C580 1.411 . S
C582 C585 1.403 1_554 S
C583 C580 1.388 1_655 S
C583 C584 1.524 . S
C583 C587 1.400 1_554 S
C584 H569 0.960 . S
C584 H570 0.960 . S
C584 H571 0.960 . S
C584 C583 1.524 . S
C585 C582 1.403 1_556 S
C585 C586 1.392 . S
C585 C589 1.495 . S
C586 C585 1.392 . S
C586 C587 1.385 1_455 S
C586 C588 1.478 . S
C587 H581 0.930 . S
C587 C583 1.400 1_556 S
C587 C586 1.385 1_655 S
C588 C586 1.478 . S
C588 C590 1.381 . S
C588 C594 1.383 1_455 S
C589 C585 1.495 . S
C589 H595 0.959 . S
C589 H596 0.961 . S
C589 H597 0.960 . S
C590 C588 1.381 . S
C590 C591 1.394 . S
C590 H598 0.930 . S
C591 C590 1.394 . S
C591 C592 1.383 . S
C591 H599 0.929 . S
C592 C591 1.383 . S
C592 C593 1.377 1_455 S
C593 H577 0.930 . S
C593 C592 1.377 1_655 S
C593 C594 1.379 . S
C594 H578 0.931 . S
C594 C588 1.383 1_655 S
C594 C593 1.379 . S
H595 C589 0.959 . S
H596 C589 0.961 . S
H597 C589 0.960 . S
H598 C590 0.930 . S
H599 C591 0.929 . S
H600 C608 0.929 . S
H601 C610 0.930 . S
H602 C612 0.930 . S
H603 C615 0.929 . S
H604 C618 0.930 . S
H605 C620 0.960 . S
H606 C620 0.960 . S
H607 C620 0.960 . S
C608 H600 0.929 . S
C608 C609 1.377 . S
C608 C610 1.384 . S
C609 C608 1.377 . S
C609 C615 1.390 1_455 S
C610 H601 0.930 . S
C610 C608 1.384 . S
C610 C611 1.372 1_455 S
C611 C610 1.372 1_655 S
C611 C612 1.400 . S
C611 C616 1.490 . S
C612 H602 0.930 . S
C612 C611 1.400 . S
C612 C615 1.386 . S
H613 C629 0.930 . S
H614 C630 0.931 . S
C615 H603 0.929 . S
C615 C609 1.390 1_655 S
C615 C612 1.386 . S
C616 C611 1.490 . S
C616 C618 1.395 1_655 S
C616 C619 1.403 . S
H617 C623 0.930 . S
C618 H604 0.930 . S
C618 C616 1.395 1_455 S
C618 C621 1.403 . S
C619 C616 1.403 . S
C619 C620 1.524 . S
C619 C623 1.400 . S
C620 H605 0.960 . S
C620 H606 0.960 . S
C620 H607 0.960 . S
C620 C619 1.524 . S
C621 C618 1.403 . S
C621 C622 1.392 1_455 S
C621 C625 1.495 . S
C622 C621 1.392 1_655 S
C622 C623 1.385 . S
C622 C624 1.478 . S
C623 H617 0.930 . S
C623 C619 1.400 . S
C623 C622 1.385 . S
C624 C622 1.478 . S
C624 C626 1.381 . S
C624 C630 1.383 . S
C625 C621 1.495 . S
C625 H631 0.959 . S
C625 H632 0.961 . S
C625 H633 0.960 . S
C626 C624 1.381 . S
C626 C627 1.394 . S
C626 H634 0.929 . S
C627 C626 1.394 . S
C627 C628 1.383 . S
C627 H635 0.929 . S
C628 C627 1.383 . S
C628 C629 1.377 . S
C629 H613 0.930 . S
C629 C628 1.377 . S
C629 C630 1.379 . S
C630 H614 0.931 . S
C630 C624 1.383 . S
C630 C629 1.379 . S
H631 C625 0.959 . S
H632 C625 0.961 . S
H633 C625 0.960 . S
H634 C626 0.929 . S
H635 C627 0.929 . S
H636 C644 0.929 . S
H637 C646 0.930 . S
H638 C648 0.930 . S
H639 C651 0.929 . S
H640 C654 0.930 . S
H641 C656 0.960 . S
H642 C656 0.960 . S
H643 C656 0.960 . S
C644 H636 0.929 . S
C644 C645 1.377 . S
C644 C646 1.384 . S
C645 C644 1.377 . S
C645 C651 1.390 1_545 S
C646 H637 0.930 . S
C646 C644 1.384 . S
C646 C647 1.372 1_545 S
C647 C646 1.372 1_565 S
C647 C648 1.400 . S
C647 C652 1.490 . S
C648 H638 0.930 . S
C648 C647 1.400 . S
C648 C651 1.386 . S
H649 C665 0.930 . S
H650 C666 0.931 . S
C651 H639 0.929 . S
C651 C645 1.390 1_565 S
C651 C648 1.386 . S
C652 C647 1.490 . S
C652 C654 1.395 1_565 S
C652 C655 1.403 . S
H653 C659 0.930 . S
C654 H640 0.930 . S
C654 C652 1.395 1_545 S
C654 C657 1.403 . S
C655 C652 1.403 . S
C655 C656 1.524 . S
C655 C659 1.400 . S
C656 H641 0.960 . S
C656 H642 0.960 . S
C656 H643 0.960 . S
C656 C655 1.524 . S
C657 C654 1.403 . S
C657 C658 1.392 1_545 S
C657 C661 1.495 . S
C658 C657 1.392 1_565 S
C658 C659 1.385 . S
C658 C660 1.478 . S
C659 H653 0.930 . S
C659 C655 1.400 . S
C659 C658 1.385 . S
C660 C658 1.478 . S
C660 C662 1.381 . S
C660 C666 1.383 . S
C661 C657 1.495 . S
C661 H667 0.959 . S
C661 H668 0.961 . S
C661 H669 0.960 . S
C662 C660 1.381 . S
C662 C663 1.394 . S
C662 H670 0.933 . S
C663 C662 1.394 . S
C663 C664 1.383 . S
C663 H671 0.929 . S
C664 C663 1.383 . S
C664 C665 1.377 . S
C665 H649 0.930 . S
C665 C664 1.377 . S
C665 C666 1.379 . S
C666 H650 0.931 . S
C666 C660 1.383 . S
C666 C665 1.379 . S
H667 C661 0.959 . S
H668 C661 0.961 . S
H669 C661 0.960 . S
H670 C662 0.933 . S
H671 C663 0.929 . S
H672 C680 0.929 1_556 S
H673 C682 0.930 . S
H674 C684 0.930 . S
H675 C687 0.929 . S
H676 C690 0.930 . S
H677 C692 0.960 . S
H678 C692 0.960 . S
H679 C692 0.960 . S
C680 H672 0.929 1_554 S
C680 C681 1.377 . S
C680 C682 1.384 . S
C681 C680 1.377 . S
C681 C687 1.390 . S
C682 H673 0.930 . S
C682 C680 1.384 . S
C682 C683 1.372 . S
C683 C682 1.372 . S
C683 C684 1.400 . S
C683 C688 1.490 . S
C684 H674 0.930 . S
C684 C683 1.400 . S
C684 C687 1.386 . S
H685 C701 0.930 . S
H686 C702 0.931 . S
C687 H675 0.929 . S
C687 C681 1.390 . S
C687 C684 1.386 . S
C688 C683 1.490 . S
C688 C690 1.395 . S
C688 C691 1.403 . S
H689 C695 0.930 . S
C690 H676 0.930 . S
C690 C688 1.395 . S
C690 C693 1.403 . S
C691 C688 1.403 . S
C691 C692 1.524 . S
C691 C695 1.400 . S
C692 H677 0.960 . S
C692 H678 0.960 . S
C692 H679 0.960 . S
C692 C691 1.524 . S
C693 C690 1.403 . S
C693 C694 1.392 . S
C693 C697 1.495 . S
C694 C693 1.392 . S
C694 C695 1.385 . S
C694 C696 1.478 . S
C695 H689 0.930 . S
C695 C691 1.400 . S
C695 C694 1.385 . S
C696 C694 1.478 . S
C696 C698 1.381 . S
C696 C702 1.383 . S
C697 C693 1.495 . S
C697 H703 0.959 . S
C697 H704 0.961 . S
C697 H705 0.960 . S
C698 C696 1.381 . S
C698 C699 1.394 . S
C698 H706 0.930 . S
C699 C698 1.394 . S
C699 C700 1.383 . S
C699 H707 0.929 . S
C700 C699 1.383 . S
C700 C701 1.377 . S
C701 H685 0.930 . S
C701 C700 1.377 . S
C701 C702 1.379 . S
C702 H686 0.931 . S
C702 C696 1.383 . S
C702 C701 1.379 . S
H703 C697 0.959 . S
H704 C697 0.961 . S
H705 C697 0.960 . S
H706 C698 0.930 . S
H707 C699 0.929 . S
H708 C716 0.929 . S
H709 C718 0.930 . S
H710 C720 0.930 . S
H711 C723 0.929 . S
H712 C726 0.930 . S
H713 C728 0.960 . S
H714 C728 0.960 . S
H715 C728 0.960 . S
C716 H708 0.929 . S
C716 C717 1.377 . S
C716 C718 1.384 . S
C717 C716 1.377 . S
C717 C723 1.390 . S
C718 H709 0.930 . S
C718 C716 1.384 . S
C718 C719 1.372 . S
C719 C718 1.372 . S
C719 C720 1.400 . S
C719 C724 1.490 . S
C720 H710 0.930 . S
C720 C719 1.400 . S
C720 C723 1.386 . S
H721 C737 0.930 . S
H722 C738 0.931 . S
C723 H711 0.929 . S
C723 C717 1.390 . S
C723 C720 1.386 . S
C724 C719 1.490 . S
C724 C726 1.395 . S
C724 C727 1.403 . S
H725 C731 0.930 . S
C726 H712 0.930 . S
C726 C724 1.395 . S
C726 C729 1.403 . S
C727 C724 1.403 . S
C727 C728 1.524 . S
C727 C731 1.400 . S
C728 H713 0.960 . S
C728 H714 0.960 . S
C728 H715 0.960 . S
C728 C727 1.524 . S
C729 C726 1.403 . S
C729 C730 1.392 . S
C729 C733 1.495 . S
C730 C729 1.392 . S
C730 C731 1.385 . S
C730 C732 1.478 . S
C731 H725 0.930 . S
C731 C727 1.400 . S
C731 C730 1.385 . S
C732 C730 1.478 . S
C732 C734 1.381 . S
C732 C738 1.383 . S
C733 C729 1.495 . S
C733 H739 0.959 . S
C733 H740 0.961 . S
C733 H741 0.960 . S
C734 C732 1.381 . S
C734 C735 1.394 . S
C734 H742 0.930 . S
C735 C734 1.394 . S
C735 C736 1.383 . S
C735 H743 0.929 . S
C736 C735 1.383 . S
C736 C737 1.377 . S
C737 H721 0.930 . S
C737 C736 1.377 . S
C737 C738 1.379 . S
C738 H722 0.931 . S
C738 C732 1.383 . S
C738 C737 1.379 . S
H739 C733 0.959 . S
H740 C733 0.961 . S
H741 C733 0.960 . S
H742 C734 0.930 . S
H743 C735 0.929 . S
H744 C752 0.929 . S
H745 C754 0.930 . S
H746 C756 0.930 . S
H747 C759 0.929 . S
H748 C762 0.930 . S
H749 C764 0.960 . S
H750 C764 0.960 . S
H751 C764 0.960 1_655 S
C752 H744 0.929 . S
C752 C753 1.377 1_455 S
C752 C754 1.384 . S
C753 C752 1.377 1_655 S
C753 C759 1.390 . S
C754 H745 0.930 . S
C754 C752 1.384 . S
C754 C755 1.372 . S
C755 C754 1.372 . S
C755 C756 1.400 1_455 S
C755 C760 1.490 . S
C756 H746 0.930 . S
C756 C755 1.400 1_655 S
C756 C759 1.386 . S
H757 C773 0.930 1_655 S
H758 C774 0.931 1_655 S
C759 H747 0.929 . S
C759 C753 1.390 . S
C759 C756 1.386 . S
C760 C755 1.490 . S
C760 C762 1.395 . S
C760 C763 1.403 . S
H761 C767 0.930 . S
C762 H748 0.930 . S
C762 C760 1.395 . S
C762 C765 1.403 . S
C763 C760 1.403 . S
C763 C764 1.524 . S
C763 C767 1.400 . S
C764 H749 0.960 . S
C764 H750 0.960 . S
C764 H751 0.960 1_455 S
C764 C763 1.524 . S
C765 C762 1.403 . S
C765 C766 1.392 . S
C765 C769 1.495 1_554 S
C766 C765 1.392 . S
C766 C767 1.385 . S
C766 C768 1.478 . S
C767 H761 0.930 . S
C767 C763 1.400 . S
C767 C766 1.385 . S
C768 C766 1.478 . S
C768 C770 1.381 . S
C768 C774 1.383 . S
C769 C765 1.495 1_556 S
C769 H775 0.959 . S
C769 H776 0.961 . S
C769 H777 0.960 . S
C770 C768 1.381 . S
C770 C771 1.394 1_554 S
C770 H778 0.930 . S
C771 C770 1.394 1_556 S
C771 C772 1.383 . S
C771 H779 0.929 . S
C772 C771 1.383 . S
C772 C773 1.377 . S
C773 H757 0.930 1_455 S
C773 C772 1.377 . S
C773 C774 1.379 1_556 S
C774 H758 0.931 1_455 S
C774 C768 1.383 . S
C774 C773 1.379 1_554 S
H775 C769 0.959 . S
H776 C769 0.961 . S
H777 C769 0.960 . S
H778 C770 0.930 . S
H779 C771 0.929 . S
H780 C788 0.929 . S
H781 C790 0.930 . S
H782 C792 0.930 . S
H783 C795 0.929 . S
H784 C798 0.930 . S
H785 C800 0.960 . S
H786 C800 0.960 . S
H787 C800 0.960 . S
C788 H780 0.929 . S
C788 C789 1.377 1_545 S
C788 C790 1.384 . S
C789 C788 1.377 1_565 S
C789 C795 1.390 . S
C790 H781 0.930 . S
C790 C788 1.384 . S
C790 C791 1.372 . S
C791 C790 1.372 . S
C791 C792 1.400 1_545 S
C791 C796 1.490 . S
C792 H782 0.930 . S
C792 C791 1.400 1_565 S
C792 C795 1.386 . S
H793 C809 0.930 1_565 S
H794 C810 0.931 1_566 S
C795 H783 0.929 . S
C795 C789 1.390 . S
C795 C792 1.386 . S
C796 C791 1.490 . S
C796 C798 1.395 . S
C796 C799 1.406 1_545 S
H797 C803 0.930 1_565 S
C798 H784 0.930 . S
C798 C796 1.395 . S
C798 C801 1.403 . S
C799 C796 1.406 1_565 S
C799 C800 1.519 . S
C799 C803 1.401 1_565 S
C800 H785 0.960 . S
C800 H786 0.960 . S
C800 H787 0.960 . S
C800 C799 1.519 . S
C801 C798 1.403 . S
C801 C802 1.392 . S
C801 C805 1.495 1_554 S
C802 C801 1.392 . S
C802 C803 1.385 . S
C802 C804 1.478 . S
C803 H797 0.930 1_545 S
C803 C799 1.401 1_545 S
C803 C802 1.385 . S
C804 C802 1.478 . S
C804 C806 1.381 . S
C804 C810 1.385 . S
C805 C801 1.495 1_556 S
C805 H811 0.959 . S
C805 H812 0.961 . S
C805 H813 0.959 . S
C806 C804 1.381 . S
C806 C807 1.394 . S
C806 H814 0.930 . S
C807 C806 1.394 . S
C807 C808 1.383 1_554 S
C807 H815 0.929 . S
C808 C807 1.383 1_556 S
C808 C809 1.377 . S
C809 H793 0.930 1_545 S
C809 C808 1.377 . S
C809 C810 1.377 1_556 S
C810 H794 0.931 1_544 S
C810 C804 1.385 . S
C810 C809 1.377 1_554 S
H811 C805 0.959 . S
H812 C805 0.961 . S
H813 C805 0.959 . S
H814 C806 0.930 . S
H815 C807 0.929 . S
H816 C824 0.929 . S
H817 C826 0.930 . S
H818 C828 0.930 . S
H819 C831 0.929 . S
H820 C834 0.930 . S
H821 C836 0.960 . S
H822 C836 0.960 . S
H823 C836 0.960 . S
C824 H816 0.929 . S
C824 C825 1.377 . S
C824 C826 1.384 . S
C825 C824 1.377 . S
C825 C831 1.390 . S
C826 H817 0.930 . S
C826 C824 1.384 . S
C826 C827 1.372 . S
C827 C826 1.372 . S
C827 C828 1.400 . S
C827 C832 1.490 . S
C828 H818 0.930 . S
C828 C827 1.400 . S
C828 C831 1.386 . S
H829 C845 0.930 . S
H830 C846 0.931 . S
C831 H819 0.929 . S
C831 C825 1.390 . S
C831 C828 1.386 . S
C832 C827 1.490 . S
C832 C834 1.395 . S
C832 C835 1.403 . S
H833 C839 0.930 . S
C834 H820 0.930 . S
C834 C832 1.395 . S
C834 C837 1.403 . S
C835 C832 1.403 . S
C835 C836 1.524 . S
C835 C839 1.400 . S
C836 H821 0.960 . S
C836 H822 0.960 . S
C836 H823 0.960 . S
C836 C835 1.524 . S
C837 C834 1.403 . S
C837 C838 1.392 . S
C837 C841 1.495 . S
C838 C837 1.392 . S
C838 C839 1.385 . S
C838 C840 1.478 . S
C839 H833 0.930 . S
C839 C835 1.400 . S
C839 C838 1.385 . S
C840 C838 1.478 . S
C840 C842 1.381 . S
C840 C846 1.383 1_554 S
C841 C837 1.495 . S
C841 H847 0.959 . S
C841 H848 0.961 . S
C841 H849 0.960 . S
C842 C840 1.381 . S
C842 C843 1.394 . S
C842 H850 0.930 . S
C843 C842 1.394 . S
C843 C844 1.383 1_554 S
C843 H851 0.929 . S
C844 C843 1.383 1_556 S
C844 C845 1.377 . S
C845 H829 0.930 . S
C845 C844 1.377 . S
C845 C846 1.379 . S
C846 H830 0.931 . S
C846 C840 1.383 1_556 S
C846 C845 1.379 . S
H847 C841 0.959 . S
H848 C841 0.961 . S
H849 C841 0.960 . S
H850 C842 0.930 . S
H851 C843 0.929 . S
H852 C860 0.929 . S
H853 C862 0.930 . S
H854 C864 0.930 . S
H855 C867 0.929 . S
H856 C870 0.930 . S
H857 C872 0.960 . S
H858 C872 0.960 . S
H859 C872 0.960 . S
C860 H852 0.929 . S
C860 C861 1.377 . S
C860 C862 1.384 . S
C861 C860 1.377 . S
C861 C867 1.390 . S
C862 H853 0.930 . S
C862 C860 1.384 . S
C862 C863 1.372 . S
C863 C862 1.372 . S
C863 C864 1.400 . S
C863 C868 1.490 . S
C864 H854 0.930 . S
C864 C863 1.400 . S
C864 C867 1.386 . S
H865 C881 0.930 . S
H866 C882 0.931 . S
C867 H855 0.929 . S
C867 C861 1.390 . S
C867 C864 1.386 . S
C868 C863 1.490 . S
C868 C870 1.395 . S
C868 C871 1.403 . S
H869 C875 0.930 . S
C870 H856 0.930 . S
C870 C868 1.395 . S
C870 C873 1.403 . S
C871 C868 1.403 . S
C871 C872 1.524 . S
C871 C875 1.400 . S
C872 H857 0.960 . S
C872 H858 0.960 . S
C872 H859 0.960 . S
C872 C871 1.524 . S
C873 C870 1.403 . S
C873 C874 1.392 . S
C873 C877 1.495 1_554 S
C874 C873 1.392 . S
C874 C875 1.385 . S
C874 C876 1.478 . S
C875 H869 0.930 . S
C875 C871 1.400 . S
C875 C874 1.385 . S
C876 C874 1.478 . S
C876 C878 1.381 1_554 S
C876 C882 1.383 . S
C877 C873 1.495 1_556 S
C877 H883 0.959 . S
C877 H884 0.961 . S
C877 H885 0.960 . S
C878 C876 1.381 1_556 S
C878 C879 1.394 . S
C878 H886 0.930 . S
C879 C878 1.394 . S
C879 C880 1.383 . S
C879 H887 0.929 . S
C880 C879 1.383 . S
C880 C881 1.377 1_556 S
C881 H865 0.930 . S
C881 C880 1.377 1_554 S
C881 C882 1.379 . S
C882 H866 0.931 . S
C882 C876 1.383 . S
C882 C881 1.379 . S
H883 C877 0.959 . S
H884 C877 0.961 . S
H885 C877 0.960 . S
H886 C878 0.930 . S
H887 C879 0.929 . S
H888 C896 0.929 . S
H889 C898 0.930 . S
H890 C900 0.932 . S
H891 C903 0.946 . S
H892 C906 0.930 . S
H893 C908 0.960 . S
H894 C908 0.960 . S
H895 C908 0.960 . S
C896 H888 0.929 . S
C896 C897 1.377 . S
C896 C898 1.384 . S
C897 C896 1.377 . S
C897 C903 1.377 1_455 S
C898 H889 0.930 . S
C898 C896 1.384 . S
C898 C899 1.372 . S
C899 C898 1.372 . S
C899 C900 1.397 1_455 S
C899 C904 1.490 . S
C900 H890 0.932 . S
C900 C899 1.397 1_655 S
C900 C903 1.385 . S
H901 C917 0.930 . S
H902 C918 0.931 . S
C903 H891 0.946 . S
C903 C897 1.377 1_655 S
C903 C900 1.385 . S
C904 C899 1.490 . S
C904 C906 1.395 . S
C904 C907 1.403 1_455 S
H905 C911 0.930 . S
C906 H892 0.930 . S
C906 C904 1.395 . S
C906 C909 1.403 . S
C907 C904 1.403 1_655 S
C907 C908 1.524 . S
C907 C911 1.400 . S
C908 H893 0.960 . S
C908 H894 0.960 . S
C908 H895 0.960 . S
C908 C907 1.524 . S
C909 C906 1.403 . S
C909 C910 1.392 . S
C909 C913 1.495 . S
C910 C909 1.392 . S
C910 C911 1.385 1_455 S
C910 C912 1.478 . S
C911 H905 0.930 . S
C911 C907 1.400 . S
C911 C910 1.385 1_655 S
C912 C910 1.478 . S
C912 C914 1.381 . S
C912 C918 1.383 . S
C913 C909 1.495 . S
C913 H919 0.959 . S
C913 H920 0.961 . S
C913 H921 0.960 . S
C914 C912 1.381 . S
C914 C915 1.394 . S
C914 H922 0.930 . S
C915 C914 1.394 . S
C915 C916 1.383 . S
C915 H923 0.929 . S
C916 C915 1.383 . S
C916 C917 1.377 . S
C917 H901 0.930 . S
C917 C916 1.377 . S
C917 C918 1.379 . S
C918 H902 0.931 . S
C918 C912 1.383 . S
C918 C917 1.379 . S
H919 C913 0.959 . S
H920 C913 0.961 . S
H921 C913 0.960 . S
H922 C914 0.930 . S
H923 C915 0.929 . S
H924 C932 0.926 1_565 S
H925 C934 0.930 . S
H926 C936 0.930 . S
H927 C939 0.929 . S
H928 C942 0.930 . S
H929 C944 0.960 . S
H930 C944 0.960 . S
H931 C944 0.960 . S
C932 H924 0.926 1_545 S
C932 C933 1.377 . S
C932 C934 1.384 . S
C933 C932 1.377 . S
C933 C939 1.390 . S
C934 H925 0.930 . S
C934 C932 1.384 . S
C934 C935 1.372 . S
C935 C934 1.372 . S
C935 C936 1.400 . S
C935 C940 1.490 . S
C936 H926 0.930 . S
C936 C935 1.400 . S
C936 C939 1.386 . S
H937 C953 0.930 . S
H938 C954 0.931 . S
C939 H927 0.929 . S
C939 C933 1.390 . S
C939 C936 1.386 . S
C940 C935 1.490 . S
C940 C942 1.395 1_545 S
C940 C943 1.403 . S
H941 C947 0.930 . S
C942 H928 0.930 . S
C942 C940 1.395 1_565 S
C942 C945 1.403 . S
C943 C940 1.403 . S
C943 C944 1.524 . S
C943 C947 1.400 . S
C944 H929 0.960 . S
C944 H930 0.960 . S
C944 H931 0.960 . S
C944 C943 1.524 . S
C945 C942 1.403 . S
C945 C946 1.392 1_565 S
C945 C949 1.495 . S
C946 C945 1.392 1_545 S
C946 C947 1.385 . S
C946 C948 1.478 . S
C947 H941 0.930 . S
C947 C943 1.400 . S
C947 C946 1.385 . S
C948 C946 1.478 . S
C948 C950 1.381 . S
C948 C954 1.383 . S
C949 C945 1.495 . S
C949 H955 0.959 . S
C949 H956 0.961 . S
C949 H957 0.960 . S
C950 C948 1.381 . S
C950 C951 1.394 . S
C950 H958 0.930 . S
C951 C950 1.394 . S
C951 C952 1.383 . S
C951 H959 0.929 . S
C952 C951 1.383 . S
C952 C953 1.377 . S
C953 H937 0.930 . S
C953 C952 1.377 . S
C953 C954 1.379 . S
C954 H938 0.931 . S
C954 C948 1.383 . S
C954 C953 1.379 . S
H955 C949 0.959 . S
H956 C949 0.961 . S
H957 C949 0.960 . S
H958 C950 0.930 . S
H959 C951 0.929 . S
H960 C968 0.929 . S
H961 C970 0.930 . S
H962 C972 0.930 . S
H963 C975 0.929 . S
H964 C978 0.930 . S
H965 C980 0.960 . S
H966 C980 0.960 . S
H967 C980 0.960 . S
C968 H960 0.929 . S
C968 C969 1.377 . S
C968 C970 1.384 . S
C969 C968 1.377 . S
C969 C975 1.390 . S
C970 H961 0.930 . S
C970 C968 1.384 . S
C970 C971 1.372 . S
C971 C970 1.372 . S
C971 C972 1.400 . S
C971 C976 1.490 . S
C972 H962 0.930 . S
C972 C971 1.400 . S
C972 C975 1.386 . S
H973 C989 0.930 . S
H974 C990 0.931 . S
C975 H963 0.929 . S
C975 C969 1.390 . S
C975 C972 1.386 . S
C976 C971 1.490 . S
C976 C978 1.395 . S
C976 C979 1.403 . S
H977 C983 0.930 . S
C978 H964 0.930 . S
C978 C976 1.395 . S
C978 C981 1.403 . S
C979 C976 1.403 . S
C979 C980 1.524 . S
C979 C983 1.400 . S
C980 H965 0.960 . S
C980 H966 0.960 . S
C980 H967 0.960 . S
C980 C979 1.524 . S
C981 C978 1.403 . S
C981 C982 1.392 . S
C981 C985 1.495 . S
C982 C981 1.392 . S
C982 C983 1.385 . S
C982 C984 1.478 . S
C983 H977 0.930 . S
C983 C979 1.400 . S
C983 C982 1.385 . S
C984 C982 1.478 . S
C984 C986 1.381 . S
C984 C990 1.383 . S
C985 C981 1.495 . S
C985 H991 0.959 . S
C985 H992 0.961 . S
C985 H993 0.960 . S
C986 C984 1.381 . S
C986 C987 1.394 . S
C986 H994 0.930 . S
C987 C986 1.394 . S
C987 C988 1.383 . S
C987 H995 0.929 . S
C988 C987 1.383 . S
C988 C989 1.377 . S
C989 H973 0.930 . S
C989 C988 1.377 . S
C989 C990 1.379 . S
C990 H974 0.931 . S
C990 C984 1.383 . S
C990 C989 1.379 . S
H991 C985 0.959 . S
H992 C985 0.961 . S
H993 C985 0.960 . S
H994 C986 0.930 . S
H995 C987 0.929 . S
H996 C1004 0.929 . S
H997 C1006 0.930 . S
H998 C1008 0.930 . S
H999 C1011 0.929 . S
H1000 C1014 0.930 . S
H1001 C1016 0.960 . S
H1002 C1016 0.960 . S
H1003 C1016 0.960 . S
C1004 H996 0.929 . S
C1004 C1005 1.377 . S
C1004 C1006 1.384 . S
C1005 C1004 1.377 . S
C1005 C1011 1.390 . S
C1006 H997 0.930 . S
C1006 C1004 1.384 . S
C1006 C1007 1.372 . S
C1007 C1006 1.372 . S
C1007 C1008 1.400 . S
C1007 C1012 1.490 . S
C1008 H998 0.930 . S
C1008 C1007 1.400 . S
C1008 C1011 1.386 . S
H1009 C1025 0.930 . S
H1010 C1026 0.931 . S
C1011 H999 0.929 . S
C1011 C1005 1.390 . S
C1011 C1008 1.386 . S
C1012 C1007 1.490 . S
C1012 C1014 1.395 . S
C1012 C1015 1.403 . S
H1013 C1019 0.930 . S
C1014 H1000 0.930 . S
C1014 C1012 1.395 . S
C1014 C1017 1.403 . S
C1015 C1012 1.403 . S
C1015 C1016 1.524 . S
C1015 C1019 1.400 . S
C1016 H1001 0.960 . S
C1016 H1002 0.960 . S
C1016 H1003 0.960 . S
C1016 C1015 1.524 . S
C1017 C1014 1.403 . S
C1017 C1018 1.392 . S
C1017 C1021 1.495 . S
C1018 C1017 1.392 . S
C1018 C1019 1.385 . S
C1018 C1020 1.478 . S
C1019 H1013 0.930 . S
C1019 C1015 1.400 . S
C1019 C1018 1.385 . S
C1020 C1018 1.478 . S
C1020 C1022 1.381 . S
C1020 C1026 1.383 . S
C1021 C1017 1.495 . S
C1021 H1027 0.959 1_556 S
C1021 H1028 0.961 . S
C1021 H1029 0.960 . S
C1022 C1020 1.381 . S
C1022 C1023 1.394 . S
C1022 H1030 0.930 . S
C1023 C1022 1.394 . S
C1023 C1024 1.383 . S
C1023 H1031 0.929 . S
C1024 C1023 1.383 . S
C1024 C1025 1.377 . S
C1025 H1009 0.930 . S
C1025 C1024 1.377 . S
C1025 C1026 1.379 . S
C1026 H1010 0.931 . S
C1026 C1020 1.383 . S
C1026 C1025 1.379 . S
H1027 C1021 0.959 1_554 S
H1028 C1021 0.961 . S
H1029 C1021 0.960 . S
H1030 C1022 0.930 . S
H1031 C1023 0.929 . S
H1032 C1040 0.929 . S
H1033 C1042 0.930 . S
H1034 C1044 0.930 . S
H1035 C1047 0.929 . S
H1036 C1050 0.930 . S
H1037 C1052 0.960 . S
H1038 C1052 0.960 . S
H1039 C1052 0.960 . S
C1040 H1032 0.929 . S
C1040 C1041 1.377 1_455 S
C1040 C1042 1.384 . S
C1041 C1040 1.377 1_655 S
C1041 C1047 1.390 . S
C1042 H1033 0.930 . S
C1042 C1040 1.384 . S
C1042 C1043 1.372 1_455 S
C1043 C1042 1.372 1_655 S
C1043 C1044 1.400 . S
C1043 C1048 1.490 . S
C1044 H1034 0.930 . S
C1044 C1043 1.400 . S
C1044 C1047 1.386 . S
H1045 C1061 0.930 . S
H1046 C1062 0.931 . S
C1047 H1035 0.929 . S
C1047 C1041 1.390 . S
C1047 C1044 1.386 . S
C1048 C1043 1.490 . S
C1048 C1050 1.395 . S
C1048 C1051 1.403 1_655 S
H1049 C1055 0.930 . S
C1050 H1036 0.930 . S
C1050 C1048 1.395 . S
C1050 C1053 1.403 . S
C1051 C1048 1.403 1_455 S
C1051 C1052 1.524 . S
C1051 C1055 1.400 . S
C1052 H1037 0.960 . S
C1052 H1038 0.960 . S
C1052 H1039 0.960 . S
C1052 C1051 1.524 . S
C1053 C1050 1.403 . S
C1053 C1054 1.392 . S
C1053 C1057 1.495 . S
C1054 C1053 1.392 . S
C1054 C1055 1.385 1_655 S
C1054 C1056 1.478 . S
C1055 H1049 0.930 . S
C1055 C1051 1.400 . S
C1055 C1054 1.385 1_455 S
C1056 C1054 1.478 . S
C1056 C1058 1.381 1_655 S
C1056 C1062 1.383 . S
C1057 C1053 1.495 . S
C1057 H1063 0.959 . S
C1057 H1064 0.961 . S
C1057 H1065 0.960 . S
C1058 C1056 1.381 1_455 S
C1058 C1059 1.394 . S
C1058 H1066 0.930 . S
C1059 C1058 1.394 . S
C1059 C1060 1.383 1_455 S
C1059 H1067 0.929 . S
C1060 C1059 1.383 1_655 S
C1060 C1061 1.377 . S
C1061 H1045 0.930 . S
C1061 C1060 1.377 . S
C1061 C1062 1.379 . S
C1062 H1046 0.931 . S
C1062 C1056 1.383 . S
C1062 C1061 1.379 . S
H1063 C1057 0.959 . S
H1064 C1057 0.961 . S
H1065 C1057 0.960 . S
H1066 C1058 0.930 . S
H1067 C1059 0.929 . S
H1068 C1076 0.929 . S
H1069 C1078 0.930 . S
H1070 C1080 0.930 . S
H1071 C1083 0.929 . S
H1072 C1086 0.930 . S
H1073 C1088 0.960 . S
H1074 C1088 0.960 . S
H1075 C1088 0.960 . S
C1076 H1068 0.929 . S
C1076 C1077 1.377 . S
C1076 C1078 1.384 . S
C1077 C1076 1.377 . S
C1077 C1083 1.390 1_565 S
C1078 H1069 0.930 . S
C1078 C1076 1.384 . S
C1078 C1079 1.372 . S
C1079 C1078 1.372 . S
C1079 C1080 1.400 1_565 S
C1079 C1084 1.490 . S
C1080 H1070 0.930 . S
C1080 C1079 1.400 1_545 S
C1080 C1083 1.386 . S
H1081 C1097 0.930 . S
H1082 C1098 0.931 . S
C1083 H1071 0.929 . S
C1083 C1077 1.390 1_545 S
C1083 C1080 1.386 . S
C1084 C1079 1.490 . S
C1084 C1086 1.395 . S
C1084 C1087 1.403 1_565 S
H1085 C1091 0.930 . S
C1086 H1072 0.930 . S
C1086 C1084 1.395 . S
C1086 C1089 1.403 . S
C1087 C1084 1.403 1_545 S
C1087 C1088 1.524 . S
C1087 C1091 1.400 . S
C1088 H1073 0.960 . S
C1088 H1074 0.960 . S
C1088 H1075 0.960 . S
C1088 C1087 1.524 . S
C1089 C1086 1.403 . S
C1089 C1090 1.392 . S
C1089 C1093 1.495 . S
C1090 C1089 1.392 . S
C1090 C1091 1.385 1_565 S
C1090 C1092 1.478 . S
C1091 H1085 0.930 . S
C1091 C1087 1.400 . S
C1091 C1090 1.385 1_545 S
C1092 C1090 1.478 . S
C1092 C1094 1.381 . S
C1092 C1098 1.383 1_565 S
C1093 C1089 1.495 . S
C1093 H1099 0.959 . S
C1093 H1100 0.961 . S
C1093 H1101 0.960 . S
C1094 C1092 1.381 . S
C1094 C1095 1.394 . S
C1094 H1102 0.930 . S
C1095 C1094 1.394 . S
C1095 C1096 1.383 . S
C1095 H1103 0.929 . S
C1096 C1095 1.383 . S
C1096 C1097 1.377 1_565 S
C1097 H1081 0.930 . S
C1097 C1096 1.377 1_545 S
C1097 C1098 1.379 . S
C1098 H1082 0.931 . S
C1098 C1092 1.383 1_545 S
C1098 C1097 1.379 . S
H1099 C1093 0.959 . S
H1100 C1093 0.961 . S
H1101 C1093 0.960 . S
H1102 C1094 0.930 . S
H1103 C1095 0.929 . S
H1104 C1112 0.929 . S
H1105 C1114 0.930 . S
H1106 C1116 0.930 . S
H1107 C1119 0.929 . S
H1108 C1122 0.930 . S
H1109 C1124 0.960 . S
H1110 C1124 0.960 . S
H1111 C1124 0.960 . S
C1112 H1104 0.929 . S
C1112 C1113 1.377 . S
C1112 C1114 1.384 . S
C1113 C1112 1.377 . S
C1113 C1119 1.390 . S
C1114 H1105 0.930 . S
C1114 C1112 1.384 . S
C1114 C1115 1.372 . S
C1115 C1114 1.372 . S
C1115 C1116 1.400 . S
C1115 C1120 1.490 . S
C1116 H1106 0.930 . S
C1116 C1115 1.400 . S
C1116 C1119 1.386 . S
H1117 C1133 0.930 . S
H1118 C1134 0.931 . S
C1119 H1107 0.929 . S
C1119 C1113 1.390 . S
C1119 C1116 1.386 . S
C1120 C1115 1.490 . S
C1120 C1122 1.395 . S
C1120 C1123 1.403 . S
H1121 C1127 0.930 . S
C1122 H1108 0.930 . S
C1122 C1120 1.395 . S
C1122 C1125 1.403 . S
C1123 C1120 1.403 . S
C1123 C1124 1.524 . S
C1123 C1127 1.400 . S
C1124 H1109 0.960 . S
C1124 H1110 0.960 . S
C1124 H1111 0.960 . S
C1124 C1123 1.524 . S
C1125 C1122 1.403 . S
C1125 C1126 1.392 . S
C1125 C1129 1.495 . S
C1126 C1125 1.392 . S
C1126 C1127 1.385 . S
C1126 C1128 1.478 . S
C1127 H1121 0.930 . S
C1127 C1123 1.400 . S
C1127 C1126 1.385 . S
C1128 C1126 1.478 . S
C1128 C1130 1.381 . S
C1128 C1134 1.383 . S
C1129 C1125 1.495 . S
C1129 H1135 0.959 . S
C1129 H1136 0.961 . S
C1129 H1137 0.960 . S
C1130 C1128 1.381 . S
C1130 C1131 1.394 . S
C1130 H1138 0.930 . S
C1131 C1130 1.394 . S
C1131 C1132 1.383 . S
C1131 H1139 0.929 . S
C1132 C1131 1.383 . S
C1132 C1133 1.377 . S
C1133 H1117 0.930 . S
C1133 C1132 1.377 . S
C1133 C1134 1.379 . S
C1134 H1118 0.931 . S
C1134 C1128 1.383 . S
C1134 C1133 1.379 . S
H1135 C1129 0.959 . S
H1136 C1129 0.961 . S
H1137 C1129 0.960 . S
H1138 C1130 0.930 . S
H1139 C1131 0.929 . S
H1140 C1148 0.929 . S
H1141 C1150 0.930 . S
H1142 C1152 0.930 . S
H1143 C1155 0.929 . S
H1144 C1158 0.930 . S
H1145 C1160 0.960 . S
H1146 C1160 0.960 . S
H1147 C1160 0.960 . S
C1148 H1140 0.929 . S
C1148 C1149 1.377 . S
C1148 C1150 1.384 . S
C1149 C1148 1.377 . S
C1149 C1155 1.390 . S
C1150 H1141 0.930 . S
C1150 C1148 1.384 . S
C1150 C1151 1.372 . S
C1151 C1150 1.372 . S
C1151 C1152 1.400 . S
C1151 C1156 1.490 . S
C1152 H1142 0.930 . S
C1152 C1151 1.400 . S
C1152 C1155 1.386 . S
H1153 C1169 0.930 . S
H1154 C1170 0.931 . S
C1155 H1143 0.929 . S
C1155 C1149 1.390 . S
C1155 C1152 1.386 . S
C1156 C1151 1.490 . S
C1156 C1158 1.395 . S
C1156 C1159 1.403 . S
H1157 C1163 0.930 . S
C1158 H1144 0.930 . S
C1158 C1156 1.395 . S
C1158 C1161 1.403 . S
C1159 C1156 1.403 . S
C1159 C1160 1.524 . S
C1159 C1163 1.400 . S
C1160 H1145 0.960 . S
C1160 H1146 0.960 . S
C1160 H1147 0.960 . S
C1160 C1159 1.524 . S
C1161 C1158 1.403 . S
C1161 C1162 1.392 . S
C1161 C1165 1.495 . S
C1162 C1161 1.392 . S
C1162 C1163 1.385 . S
C1162 C1164 1.478 . S
C1163 H1157 0.930 . S
C1163 C1159 1.400 . S
C1163 C1162 1.385 . S
C1164 C1162 1.478 . S
C1164 C1166 1.381 . S
C1164 C1170 1.383 . S
C1165 C1161 1.495 . S
C1165 H1171 0.959 . S
C1165 H1172 0.961 . S
C1165 H1173 0.960 . S
C1166 C1164 1.381 . S
C1166 C1167 1.394 . S
C1166 H1174 0.930 . S
C1167 C1166 1.394 . S
C1167 C1168 1.383 . S
C1167 H1175 0.929 . S
C1168 C1167 1.383 . S
C1168 C1169 1.377 . S
C1169 H1153 0.930 . S
C1169 C1168 1.377 . S
C1169 C1170 1.379 . S
C1170 H1154 0.931 . S
C1170 C1164 1.383 . S
C1170 C1169 1.379 . S
H1171 C1165 0.959 . S
H1172 C1165 0.961 . S
H1173 C1165 0.960 . S
H1174 C1166 0.930 . S
H1175 C1167 0.929 . S
C321 C125 1.786 1_545 S
C340 C161 1.814 . S
C376 C201 1.814 . S
C357 C144 1.787 . S
C412 C241 1.818 . S
C393 C87 1.786 . S
C448 C281 1.814 . S
C429 C106 1.785 1_455 S
C484 C170 1.814 1_565 S
C465 C49 1.787 . S
C501 C68 1.794 . S
C520 C210 1.824 . S
C537 C11 1.791 . S
C556 C250 1.816 . S
C573 C30 1.804 . S
C592 C290 1.816 . S
C628 C167 0.307 . S
C609 C97 0.445 . S
C664 C207 0.307 . S
C645 C116 0.445 . S
C700 C247 0.310 . S
C681 C135 0.446 . S
C717 C78 0.464 . S
C736 C287 0.367 . S
C753 C21 0.459 . S
C772 C158 0.361 . S
C808 C198 0.391 . S
C789 C40 0.444 . S
C844 C238 0.415 . S
C825 C59 0.445 . S
C861 C2 0.453 . S
C880 C278 0.345 . S
C897 C101 1.922 . S
C916 C171 2.097 . S
C933 C120 1.912 . S
C952 C211 2.072 . S
C988 C251 2.076 . S
C969 C139 1.915 . S
C1024 C291 2.081 . S
C1005 C82 1.918 . S
C1041 C25 1.916 . S
C1060 C162 2.093 . S
C1096 C202 2.092 . S
C1077 C44 1.910 . S
C1132 C242 2.073 . S
C1113 C63 1.919 . S
C1149 C6 1.910 . S
C1168 C282 2.095 . S
