# Generated by pormake.
# Topology anh, (6,3)-cn, num edge types: 1
# Building blocks:
#     Node 0, Type 0, BuildingBlock: BETFEN_clean_sbu_0, # of connection points: 6
#     Node 1, Type 0, BuildingBlock: BETFEN_clean_sbu_0, # of connection points: 6
#     Node 2, Type 0, BuildingBlock: BETFEN_clean_sbu_0, # of connection points: 6
#     Node 3, Type 1, BuildingBlock: VETTIZ_charged_linker_0, # of connection points: 3
#     Node 4, Type 1, BuildingBlock: VETTIZ_charged_linker_0, # of connection points: 3
#     Node 5, Type 1, BuildingBlock: VETTIZ_charged_linker_0, # of connection points: 3
#     Node 6, Type 1, BuildingBlock: VETTIZ_charged_linker_0, # of connection points: 3
#     Node 7, Type 1, BuildingBlock: VETTIZ_charged_linker_0, # of connection points: 3
#     Node 8, Type 1, BuildingBlock: VETTIZ_charged_linker_0, # of connection points: 3
#     Edge 9, Type (0, 1), BuildingBlock: UVAHIK_clean_linker_0, # of connection points: 2
#     Edge 10, Type (0, 1), BuildingBlock: UVAHIK_clean_linker_0, # of connection points: 2
#     Edge 11, Type (0, 1), BuildingBlock: UVAHIK_clean_linker_0, # of connection points: 2
#     Edge 12, Type (0, 1), BuildingBlock: UVAHIK_clean_linker_0, # of connection points: 2
#     Edge 13, Type (0, 1), BuildingBlock: UVAHIK_clean_linker_0, # of connection points: 2
#     Edge 14, Type (0, 1), BuildingBlock: UVAHIK_clean_linker_0, # of connection points: 2
#     Edge 15, Type (0, 1), BuildingBlock: UVAHIK_clean_linker_0, # of connection points: 2
#     Edge 16, Type (0, 1), BuildingBlock: UVAHIK_clean_linker_0, # of connection points: 2
#     Edge 17, Type (0, 1), BuildingBlock: UVAHIK_clean_linker_0, # of connection points: 2
#     Edge 18, Type (0, 1), BuildingBlock: UVAHIK_clean_linker_0, # of connection points: 2
#     Edge 19, Type (0, 1), BuildingBlock: UVAHIK_clean_linker_0, # of connection points: 2
#     Edge 20, Type (0, 1), BuildingBlock: UVAHIK_clean_linker_0, # of connection points: 2
#     Edge 21, Type (0, 1), BuildingBlock: UVAHIK_clean_linker_0, # of connection points: 2
#     Edge 22, Type (0, 1), BuildingBlock: UVAHIK_clean_linker_0, # of connection points: 2
#     Edge 23, Type (0, 1), BuildingBlock: UVAHIK_clean_linker_0, # of connection points: 2
#     Edge 24, Type (0, 1), BuildingBlock: UVAHIK_clean_linker_0, # of connection points: 2
#     Edge 25, Type (0, 1), BuildingBlock: UVAHIK_clean_linker_0, # of connection points: 2
#     Edge 26, Type (0, 1), BuildingBlock: UVAHIK_clean_linker_0, # of connection points: 2
# Relax obj value: 0.169
# Max RMSD: 0.200
# Mean RMSD: 0.153
data_MOF--net-anh--node1-BETFEN_clean_sbu_0--node2-VETTIZ_charged_linker_0--edge1-UVAHIK_clean_linker_0
_symmetry_space_group_name_H-M    P1
_symmetry_Int_Tables_number       1
_symmetry_cell_setting            triclinic
loop_
_symmetry_equiv_pos_as_xyz
'x, y, z'
_cell_length_a     43.893293
_cell_length_b     45.222535
_cell_length_c     82.863314
_cell_angle_alpha  90.638947
_cell_angle_beta   92.058778
_cell_angle_gamma 107.86779
loop_
_atom_site_label
_atom_site_type_symbol
_atom_site_fract_x
_atom_site_fract_y
_atom_site_fract_z
_atom_type_partial_charge
Pr0 Pr 0.02696 0.53507 0.15776 0.0
Pr1 Pr 0.04918 0.60273 0.1481 0.0
C2 C 0.9985 0.48025 0.17154 0.0
C3 C 0.96638 0.45727 0.17269 0.0
C4 C 0.94882 0.44155 0.15894 0.0
C5 C 0.91879 0.41939 0.16046 0.0
C6 C 0.90563 0.41267 0.17572 0.0
C7 C 0.9232 0.42857 0.18941 0.0
C8 C 0.95326 0.45053 0.18791 0.0
C9 C 0.03278 0.54326 0.12463 0.0
C10 C 0.97245 0.57182 0.14988 0.0
C11 C 0.0785 0.65863 0.13561 0.0
C12 C 0.10934 0.68297 0.1387 0.0
C13 C 0.1274 0.68344 0.15307 0.0
C14 C 0.15647 0.70687 0.1561 0.0
C15 C 0.1682 0.73019 0.14475 0.0
C16 C 0.1501 0.7293 0.13026 0.0
C17 C 0.12092 0.70591 0.12729 0.0
C18 C 0.04436 0.59423 0.18131 0.0
C19 C 0.10358 0.56521 0.15422 0.0
O20 O 1.00333 0.5071 0.17896 0.0
O21 O 1.01222 0.48256 0.15765 0.0
O22 O 1.02078 0.55875 0.13381 0.0
O23 O 0.0407 0.52166 0.13231 0.0
O24 O 0.99467 0.59299 0.14237 0.0
O25 O 0.97961 0.54972 0.15807 0.0
O26 O 0.07991 0.63247 0.12929 0.0
O27 O 0.05805 0.65459 0.1471 0.0
O28 O 0.05604 0.57895 0.17188 0.0
O29 O 0.03638 0.61596 0.17384 0.0
O30 O 0.08203 0.54344 0.16179 0.0
O31 O 0.09575 0.58766 0.14675 0.0
H32 H 0.95824 0.44628 0.14702 0.0
H33 H 0.90573 0.40772 0.14967 0.0
H34 H 0.91397 0.42363 0.20137 0.0
H35 H 0.96639 0.46216 0.1987 0.0
H36 H 0.11886 0.66581 0.16201 0.0
H37 H 0.16945 0.70698 0.16747 0.0
H38 H 0.15858 0.74653 0.12114 0.0
H39 H 0.10737 0.70575 0.11608 0.0
Pr40 Pr 0.57534 0.05901 0.5086 0.0
Pr41 Pr 0.50367 0.03913 0.51132 0.0
C42 C 0.63682 0.08628 0.50113 0.0
C43 C 0.65913 0.11778 0.49861 0.0
C44 C 0.68508 0.13044 0.50964 0.0
C45 C 0.70679 0.15987 0.50729 0.0
C46 C 0.70324 0.17726 0.49377 0.0
C47 C 0.67717 0.16451 0.48275 0.0
C48 C 0.65536 0.13518 0.48515 0.0
C49 C 0.5547 0.04851 0.53998 0.0
C50 C 0.53818 0.11434 0.51103 0.0
C51 C 0.44256 1.01153 0.51918 0.0
C52 C 0.41843 0.98093 0.51633 0.0
C53 C 0.4186 0.96312 0.50238 0.0
C54 C 0.39558 0.9341 0.49978 0.0
C55 C 0.3721 0.9221 0.51116 0.0
C56 C 0.37234 0.93996 0.52523 0.0
C57 C 0.39528 0.96911 0.52776 0.0
C58 C 0.52335 0.04807 0.47973 0.0
C59 C 0.54124 0.98345 0.50892 0.0
O60 O 0.61361 0.07495 0.49026 0.0
O61 O 0.628 0.07944 0.51589 0.0
O62 O 0.54384 0.06319 0.52958 0.0
O63 O 0.57766 0.03922 0.53449 0.0
O64 O 0.51314 0.09265 0.51639 0.0
O65 O 0.56286 0.1066 0.5056 0.0
O66 O 0.46716 1.01214 0.52872 0.0
O67 O 0.45041 1.02902 0.50658 0.0
O68 O 0.53495 0.03421 0.49028 0.0
O69 O 0.50011 0.05692 0.48518 0.0
O70 O 0.56768 1.00542 0.50527 0.0
O71 O 0.51517 0.99074 0.5126 0.0
H72 H 0.68863 0.11752 0.52009 0.0
H73 H 0.72627 0.16904 0.51615 0.0
H74 H 0.67391 0.17692 0.47205 0.0
H75 H 0.63573 0.12608 0.47636 0.0
H76 H 0.43645 0.97172 0.49344 0.0
H77 H 0.39594 0.9213 0.4887 0.0
H78 H 0.35503 0.93131 0.53439 0.0
H79 H 0.39499 0.9824 0.53869 0.0
Pr80 Pr 0.52566 0.54394 0.81466 0.0
Pr81 Pr 0.54967 0.61552 0.82902 0.0
C82 C 0.51643 0.49296 0.79614 0.0
C83 C 0.52681 0.4655 0.79908 0.0
C84 C 0.52987 0.45609 0.81498 0.0
C85 C 0.54278 0.43213 0.81815 0.0
C86 C 0.55304 0.41712 0.80548 0.0
C87 C 0.54982 0.42644 0.78952 0.0
C88 C 0.5368 0.45053 0.78635 0.0
C89 C 0.531 0.54553 0.84856 0.0
C90 C 0.60408 0.58081 0.82402 0.0
C91 C 0.55405 0.66756 0.84593 0.0
C92 C 0.52854 0.67899 0.85201 0.0
C93 C 0.50046 0.67511 0.84248 0.0
C94 C 0.47545 0.68442 0.84833 0.0
C95 C 0.47783 0.6978 0.86389 0.0
C96 C 0.50588 0.70149 0.87353 0.0
C97 C 0.53102 0.69198 0.86764 0.0
C98 C 0.55167 0.60703 0.79581 0.0
C99 C 0.47055 0.57762 0.82185 0.0
O100 O 0.53974 0.51867 0.79392 0.0
O101 O 0.49455 0.49669 0.80567 0.0
O102 O 0.53693 0.56764 0.83905 0.0
O103 O 0.522 0.51957 0.84027 0.0
O104 O 0.59702 0.60279 0.83238 0.0
O105 O 0.58227 0.55934 0.81514 0.0
O106 O 0.55702 0.64259 0.85278 0.0
O107 O 0.55607 0.66694 0.83019 0.0
O108 O 0.52974 0.59185 0.80464 0.0
O109 O 0.57299 0.62916 0.80397 0.0
O110 O 0.47683 0.5549 0.81373 0.0
O111 O 0.49333 0.60052 0.8293 0.0
H112 H 0.5229 0.46769 0.82504 0.0
H113 H 0.54538 0.42582 0.83058 0.0
H114 H 0.55726 0.41507 0.77951 0.0
H115 H 0.53503 0.4578 0.77403 0.0
H116 H 0.49773 0.66484 0.83043 0.0
H117 H 0.45457 0.68191 0.84042 0.0
H118 H 0.50841 0.71182 0.88555 0.0
H119 H 0.55233 0.69477 0.87526 0.0
C120 C 0.60606 0.14217 0.20925 0.0
C121 C 0.62826 0.1667 0.21811 0.0
C122 C 0.6294 0.16578 0.23511 0.0
C123 C 0.5872 0.11655 0.23427 0.0
C124 C 0.58559 0.11746 0.21759 0.0
C125 C 0.55974 0.08979 0.21031 0.0
H126 H 0.44343 0.95319 0.22188 0.0
C127 C 0.56348 0.08761 0.23929 0.0
C128 C 0.54717 0.0717 0.22534 0.0
H129 H 0.46818 1.00027 0.17687 0.0
H130 H 0.51007 0.04131 0.19086 0.0
H131 H 0.51464 0.96403 0.23564 0.0
H132 H 0.44724 1.01441 0.24271 0.0
H133 H 0.46487 1.01081 0.26167 0.0
H134 H 0.44219 0.97634 0.25043 0.0
H135 H 0.48198 0.95059 0.24886 0.0
H136 H 0.52009 0.97726 0.25585 0.0
C137 C 0.57556 0.07166 0.19914 0.0
C138 C 0.53406 0.10172 0.20165 0.0
C139 C 0.55483 0.06294 0.29895 0.0
C140 C 0.53677 0.03705 0.30745 0.0
C141 C 0.51617 1.01139 0.29856 0.0
C142 C 0.51312 1.01179 0.28167 0.0
C143 C 0.531 0.03803 0.27344 0.0
C144 C 0.5518 0.06277 0.28207 0.0
C145 C 0.57004 0.08804 0.27127 0.0
C146 C 0.55627 0.07464 0.25475 0.0
C147 C 0.53317 0.04554 0.2561 0.0
C148 C 0.60617 0.09114 0.27347 0.0
C149 C 0.56151 0.11799 0.27544 0.0
C150 C 0.45813 0.97213 0.21498 0.0
C151 C 0.45261 0.9734 0.19824 0.0
C152 C 0.47186 0.99885 0.18979 0.0
C153 C 0.49616 1.02262 0.19794 0.0
C154 C 0.50107 1.02114 0.21475 0.0
C155 C 0.48213 0.99614 0.22295 0.0
C156 C 0.48984 0.9987 0.24082 0.0
C157 C 0.5163 1.02952 0.24207 0.0
C158 C 0.52304 0.04257 0.22677 0.0
C159 C 0.50208 0.97119 0.24569 0.0
C160 C 0.45954 0.99995 0.24949 0.0
H161 H 0.61141 0.1417 0.25613 0.0
H162 H 0.60443 0.14242 0.19618 0.0
H163 H 0.5318 0.12278 0.20794 0.0
H164 H 0.50981 0.08478 0.20167 0.0
H165 H 0.54032 0.108 0.189 0.0
H166 H 0.59788 0.06941 0.20505 0.0
H167 H 0.58204 0.08387 0.1876 0.0
H168 H 0.56022 0.0477 0.19636 0.0
H169 H 0.57074 0.08323 0.30524 0.0
H170 H 0.50248 0.99078 0.30464 0.0
H171 H 0.49692 0.99162 0.27568 0.0
H172 H 0.6097 0.06848 0.27653 0.0
H173 H 0.61788 0.10801 0.28336 0.0
H174 H 0.61939 0.09798 0.26232 0.0
H175 H 0.5359 0.11233 0.27848 0.0
H176 H 0.56423 0.13395 0.26522 0.0
H177 H 0.57625 0.13066 0.286 0.0
H178 H 0.64651 0.18416 0.24219 0.0
C179 C 0.60911 0.14094 0.24319 0.0
C180 C 0.54071 0.63501 0.51899 0.0
C181 C 0.54143 0.66365 0.52668 0.0
C182 C 0.54348 0.66567 0.54359 0.0
C183 C 0.54354 0.61214 0.54532 0.0
C184 C 0.54183 0.60932 0.52866 0.0
C185 C 0.54123 0.57649 0.52339 0.0
H186 H 0.54467 0.4316 0.54961 0.0
C187 C 0.54385 0.58221 0.55228 0.0
C188 C 0.54255 0.56056 0.53964 0.0
H189 H 0.54065 0.45674 0.49973 0.0
H190 H 0.53972 0.50879 0.50825 0.0
H191 H 0.59558 0.49292 0.56198 0.0
H192 H 0.49287 0.46001 0.56072 0.0
H193 H 0.50394 0.48103 0.57902 0.0
H194 H 0.51675 0.44728 0.57545 0.0
H195 H 0.57325 0.4637 0.57519 0.0
H196 H 0.58443 0.50448 0.58055 0.0
C197 C 0.57102 0.57882 0.51363 0.0
C198 C 0.50976 0.56075 0.51367 0.0
C199 C 0.54831 0.57569 0.61353 0.0
C200 C 0.54792 0.5515 0.6241 0.0
C201 C 0.54623 0.5221 0.61758 0.0
C202 C 0.54517 0.51697 0.60082 0.0
C203 C 0.54564 0.54143 0.59037 0.0
C204 C 0.547 0.57007 0.59682 0.0
C205 C 0.54654 0.59311 0.58399 0.0
C206 C 0.5449 0.57365 0.56869 0.0
C207 C 0.54457 0.54357 0.5725 0.0
C208 C 0.57852 0.62014 0.58584 0.0
C209 C 0.51573 0.60276 0.5858 0.0
C210 C 0.54397 0.44816 0.54036 0.0
C211 C 0.54338 0.43983 0.52399 0.0
C212 C 0.54133 0.46232 0.5125 0.0
C213 C 0.54094 0.49258 0.51744 0.0
C214 C 0.54223 0.50049 0.53406 0.0
C215 C 0.54339 0.47786 0.54503 0.0
C216 C 0.54399 0.48858 0.56216 0.0
C217 C 0.54366 0.5216 0.56003 0.0
C218 C 0.5426 0.52939 0.54356 0.0
C219 C 0.57575 0.48724 0.57055 0.0
C220 C 0.51301 0.46818 0.56988 0.0
H221 H 0.54603 0.64422 0.56564 0.0
H222 H 0.53915 0.63271 0.50595 0.0
H223 H 0.48889 0.56194 0.52057 0.0
H224 H 0.50656 0.53595 0.51108 0.0
H225 H 0.50919 0.57248 0.502 0.0
H226 H 0.59311 0.59256 0.52054 0.0
H227 H 0.56977 0.59049 0.502 0.0
H228 H 0.57355 0.55575 0.51096 0.0
H229 H 0.54914 0.59844 0.61815 0.0
H230 H 0.54617 0.50315 0.62547 0.0
H231 H 0.54418 0.49412 0.59671 0.0
H232 H 0.59836 0.61177 0.59059 0.0
H233 H 0.57645 0.63852 0.59434 0.0
H234 H 0.58699 0.63071 0.5742 0.0
H235 H 0.4962 0.58378 0.59098 0.0
H236 H 0.5053 0.60735 0.5741 0.0
H237 H 0.5203 0.6235 0.59392 0.0
H238 H 0.54413 0.68714 0.54977 0.0
C239 C 0.54456 0.64045 0.55284 0.0
C240 C 0.12275 0.57255 0.84938 0.0
C241 C 0.15203 0.57409 0.85751 0.0
C242 C 0.15328 0.57274 0.87446 0.0
C243 C 0.09734 0.56952 0.87521 0.0
C244 C 0.0957 0.57058 0.85853 0.0
C245 C 0.06276 0.57036 0.85231 0.0
H246 H 0.91368 0.57494 0.87064 0.0
C247 C 0.06589 0.5685 0.88132 0.0
C248 C 0.04529 0.56915 0.86801 0.0
H249 H 0.94956 0.57346 0.82293 0.0
H250 H 0.99996 0.56965 0.83464 0.0
H251 H 0.93784 0.52137 0.88371 0.0
H252 H 0.97685 0.62075 0.88739 0.0
H253 H 0.98247 0.60651 0.90653 0.0
H254 H 0.94243 0.59896 0.89795 0.0
H255 H 0.92363 0.54391 0.89784 0.0
H256 H 0.95663 0.52932 0.90299 0.0
C257 C 0.04806 0.54074 0.84169 0.0
C258 C 0.06623 0.60088 0.8433 0.0
C259 C 0.05052 0.56437 0.94195 0.0
C260 C 0.02418 0.56332 0.95136 0.0
C261 C 0.99528 0.56386 0.94358 0.0
C262 C 0.99259 0.56534 0.92674 0.0
C263 C 1.01906 0.56626 0.91748 0.0
C264 C 0.04737 0.56571 0.9251 0.0
C265 C 0.07286 0.56664 0.91329 0.0
C266 C 0.05505 0.56759 0.89731 0.0
C267 C 0.0237 0.56751 0.89988 0.0
C268 C 0.08191 0.53621 0.91487 0.0
C269 C 0.10103 0.59691 0.91674 0.0
C270 C 0.93248 0.5741 0.86269 0.0
C271 C 0.92795 0.57511 0.8459 0.0
C272 C 0.95265 0.57295 0.83594 0.0
C273 C 0.98186 0.57089 0.84276 0.0
C274 C 0.98622 0.57068 0.8597 0.0
C275 C 0.96135 0.57176 0.86925 0.0
C276 C 0.969 0.57011 0.8869 0.0
C277 C 1.00291 0.56863 0.88658 0.0
C278 C 1.01331 0.56917 0.87066 0.0
C279 C 0.94556 0.53981 0.89334 0.0
C280 C 0.96747 0.60046 0.89527 0.0
H281 H 0.12904 0.56955 0.89617 0.0
H282 H 0.12123 0.57369 0.83634 0.0
H283 H 0.08259 0.62101 0.85029 0.0
H284 H 0.04338 0.60607 0.84167 0.0
H285 H 0.07634 0.60013 0.83126 0.0
H286 H 0.053 0.52039 0.84734 0.0
H287 H 0.05838 0.54352 0.82955 0.0
H288 H 1.02175 0.53442 0.84026 0.0
H289 H 0.07298 0.56368 0.94754 0.0
H290 H 0.97476 0.5635 0.95055 0.0
H291 H 0.96997 0.56583 0.92162 0.0
H292 H 0.06041 0.5162 0.91717 0.0
H293 H 0.09957 0.53801 0.92507 0.0
H294 H 0.09148 0.52952 0.90374 0.0
H295 H 0.09252 0.6156 0.92196 0.0
H296 H 0.11299 0.60701 0.90567 0.0
H297 H 0.11912 0.59294 0.92546 0.0
H298 H 0.17546 0.5736 0.88092 0.0
C299 C 0.12622 0.57036 0.88331 0.0
C300 C 0.96148 0.47994 0.45348 0.0
C301 C 0.93641 0.45766 0.44486 0.0
C302 C 0.93435 0.45879 0.4279 0.0
C303 C 0.98171 0.50375 0.42825 0.0
C304 C 0.98366 0.50298 0.44493 0.0
C305 C 1.01099 0.52955 0.45203 0.0
H306 H 0.1399 0.65522 0.43926 0.0
C307 C 1.00809 0.53041 0.42298 0.0
C308 C 0.02533 0.54587 0.43684 0.0
H309 H 0.10314 0.61997 0.48521 0.0
H310 H 0.06026 0.57919 0.47145 0.0
H311 H 0.12936 0.58836 0.42115 0.0
H312 H 0.07463 0.65228 0.42355 0.0
H313 H 0.0668 0.63562 0.40404 0.0
H314 H 0.10722 0.65811 0.41028 0.0
H315 H 0.1409 0.62578 0.41202 0.0
H316 H 0.11486 0.59192 0.40144 0.0
C317 C 0.03449 0.51582 0.46133 0.0
C318 C 0.99687 0.55024 0.46256 0.0
C319 C 0.02294 0.54955 0.36292 0.0
C320 C 0.04457 0.57308 0.35441 0.0
C321 C 0.0683 0.59663 0.36307 0.0
C322 C 0.07056 0.59677 0.37997 0.0
C323 C 0.0487 0.57323 0.38836 0.0
C324 C 0.02528 0.55026 0.37985 0.0
C325 C 1.00336 0.52792 0.39086 0.0
C326 C 1.01771 0.54118 0.40735 0.0
C327 C 0.04437 0.5675 0.40577 0.0
C328 C 1.00665 0.49525 0.38764 0.0
C329 C 0.96896 0.53001 0.38794 0.0
C330 C 0.12282 0.63848 0.44637 0.0
C331 C 0.12507 0.64041 0.46329 0.0
C332 C 0.10186 0.61878 0.47213 0.0
C333 C 0.07708 0.59518 0.46412 0.0
C334 C 0.07527 0.59353 0.44711 0.0
C335 C 0.09782 0.61524 0.43859 0.0
C336 C 0.09162 0.61122 0.42066 0.0
C337 C 0.06189 0.58317 0.41971 0.0
C338 C 0.05241 0.57262 0.4352 0.0
C339 C 0.12066 0.60413 0.41329 0.0
C340 C 0.08491 0.6408 0.41416 0.0
H341 H 0.95394 0.48099 0.40666 0.0
H342 H 0.96338 0.47978 0.46654 0.0
H343 H 0.97339 0.55089 0.45733 0.0
H344 H 1.01202 0.57477 0.46323 0.0
H345 H 0.99296 0.54127 0.47499 0.0
H346 H 0.03857 0.49649 0.4542 0.0
H347 H 0.02477 0.5064 0.47306 0.0
H348 H 0.05838 0.53284 0.46365 0.0
H349 H 1.00419 0.53141 0.35655 0.0
H350 H 0.08533 0.61486 0.35673 0.0
H351 H 0.08925 0.61528 0.38582 0.0
H352 H 0.03213 0.49681 0.38595 0.0
H353 H 0.99267 0.48428 0.37652 0.0
H354 H 0.99914 0.4794 0.39777 0.0
H355 H 0.96938 0.55333 0.3836 0.0
H356 H 0.95542 0.52717 0.39912 0.0
H357 H 0.95519 0.51254 0.37872 0.0
H358 H 0.9154 0.44171 0.42103 0.0
C359 C 0.95685 0.48156 0.41957 0.0
C360 C 0.42382 0.94728 0.81289 0.0
C361 C 0.40578 0.91739 0.80728 0.0
C362 C 0.40236 0.91119 0.79045 0.0
C363 C 0.437 0.96327 0.7855 0.0
C364 C 0.43972 0.96937 0.80195 0.0
C365 C 0.46329 1.00041 0.80641 0.0
H366 H 0.56623 0.13565 0.78352 0.0
C367 C 0.45815 0.99081 0.77761 0.0
C368 C 0.47382 1.01239 0.7899 0.0
H369 H 0.54369 0.10463 0.83209 0.0
H370 H 0.5081 0.05585 0.82149 0.0
H371 H 0.57042 0.06782 0.76901 0.0
H372 H 0.4994 0.11523 0.76962 0.0
H373 H 0.49118 0.09302 0.7516 0.0
H374 H 0.52916 0.12313 0.75465 0.0
H375 H 0.573 0.10268 0.75823 0.0
H376 H 0.55256 0.06489 0.74945 0.0
C377 C 0.49116 0.99506 0.81687 0.0
C378 C 0.44509 1.02028 0.81482 0.0
C379 C 0.46331 0.99569 0.7162 0.0
C380 C 0.479 1.01973 0.70597 0.0
C381 C 0.49799 0.04842 0.71271 0.0
C382 C 0.50181 0.05315 0.72943 0.0
C383 C 0.48623 1.02903 0.73959 0.0
C384 C 0.46688 1.00104 0.733 0.0
C385 C 0.45091 0.97889 0.74586 0.0
C386 C 0.46419 0.99819 0.76115 0.0
C387 C 0.48528 1.02728 0.75731 0.0
C388 C 0.46221 0.94973 0.74473 0.0
C389 C 0.41425 0.97206 0.74351 0.0
C390 C 0.55441 0.11801 0.79192 0.0
C391 C 0.55801 0.12391 0.80869 0.0
C392 C 0.54128 0.10065 0.81913 0.0
C393 C 0.5206 0.07236 0.81293 0.0
C394 C 0.51656 0.06723 0.79611 0.0
C395 C 0.53366 0.08972 0.78594 0.0
C396 C 0.52587 0.08065 0.76842 0.0
C397 C 0.50157 0.04871 0.76975 0.0
C398 C 0.49608 0.04114 0.78595 0.0
C399 C 0.55698 0.07903 0.76072 0.0
C400 C 0.51081 0.1042 0.76054 0.0
H401 H 0.41485 0.92771 0.76692 0.0
H402 H 0.42677 0.95315 0.82568 0.0
H403 H 0.42141 1.01711 0.80856 0.0
H404 H 0.45768 0.04546 0.81458 0.0
H405 H 0.44072 1.01345 0.82757 0.0
H406 H 0.49397 0.97187 0.81426 0.0
H407 H 0.48695 0.99629 0.82996 0.0
H408 H 0.51474 1.01171 0.81433 0.0
H409 H 0.44836 0.97352 0.71123 0.0
H410 H 0.51033 0.06711 0.70498 0.0
H411 H 0.51684 0.07544 0.73378 0.0
H412 H 0.48793 0.95626 0.74178 0.0
H413 H 0.44825 0.93327 0.73513 0.0
H414 H 0.46065 0.93742 0.75624 0.0
H415 H 0.40836 0.99363 0.74045 0.0
H416 H 0.40122 0.96362 0.75452 0.0
H417 H 0.40442 0.95479 0.73353 0.0
H418 H 0.38902 0.88828 0.78572 0.0
C419 C 0.41774 0.93402 0.77953 0.0
C420 C 0.62053 0.56631 0.12493 0.0
C421 C 0.64913 0.56815 0.11719 0.0
C422 C 0.64898 0.56701 0.10023 0.0
C423 C 0.59293 0.56367 0.0987 0.0
C424 C 0.59267 0.56436 0.11539 0.0
C425 C 0.56015 0.5637 0.12118 0.0
H426 H 0.40962 0.56909 0.10144 0.0
C427 C 0.56106 0.56308 0.09217 0.0
C428 C 0.54155 0.56335 0.10523 0.0
H429 H 0.44879 0.5624 0.1493 0.0
H430 H 0.49873 0.56091 0.13794 0.0
H431 H 0.47156 0.61708 0.08768 0.0
H432 H 0.4347 0.5173 0.08566 0.0
H433 H 0.4497 0.52884 0.06663 0.0
H434 H 0.41723 0.54136 0.0738 0.0
H435 H 0.43737 0.59645 0.07507 0.0
H436 H 0.4776 0.6053 0.06811 0.0
C437 C 0.56418 0.59366 0.13132 0.0
C438 C 0.5463 0.53346 0.13054 0.0
C439 C 0.54137 0.56112 0.03133 0.0
C440 C 0.51516 0.56244 0.02145 0.0
C441 C 0.48754 0.56507 0.0287 0.0
C442 C 0.48585 0.56585 0.04556 0.0
C443 C 0.51217 0.5642 0.05531 0.0
C444 C 0.53942 0.56223 0.04814 0.0
C445 C 0.56554 0.56205 0.06032 0.0
C446 C 0.54913 0.56325 0.07603 0.0
C447 C 0.51793 0.56438 0.07303 0.0
C448 C 0.59433 0.59173 0.05803 0.0
C449 C 0.57321 0.53103 0.05811 0.0
C450 C 0.42905 0.56761 0.10951 0.0
C451 C 0.42553 0.56637 0.12627 0.0
C452 C 0.45106 0.56353 0.13633 0.0
C453 C 0.47999 0.56276 0.12972 0.0
C454 C 0.48322 0.5645 0.11286 0.0
C455 C 0.45767 0.56643 0.10312 0.0
C456 C 0.46424 0.56663 0.08549 0.0
C457 C 0.49812 0.56489 0.08611 0.0
C458 C 0.50953 0.56397 0.10216 0.0
C459 C 0.46244 0.59781 0.07858 0.0
C460 C 0.44021 0.53721 0.07733 0.0
H461 H 0.62286 0.56397 0.07814 0.0
H462 H 0.62014 0.5672 0.13798 0.0
H463 H 0.55189 0.51369 0.12456 0.0
H464 H 0.51994 0.52627 0.13088 0.0
H465 H 0.55664 0.53591 0.1431 0.0
H466 H 0.57976 0.61423 0.12517 0.0
H467 H 0.57548 0.59239 0.1434 0.0
H468 H 0.54135 0.59848 0.13299 0.0
H469 H 0.56315 0.55969 0.02609 0.0
H470 H 0.46702 0.56603 0.0213 0.0
H471 H 0.46407 0.56764 0.05034 0.0
H472 H 0.58662 0.61048 0.05223 0.0
H473 H 0.61242 0.5868 0.05029 0.0
H474 H 0.60613 0.6023 0.06965 0.0
H475 H 0.55086 0.51146 0.05554 0.0
H476 H 0.58434 0.52428 0.06905 0.0
H477 H 0.5891 0.53211 0.04785 0.0
H478 H 0.67069 0.56813 0.0941 0.0
C479 C 0.62114 0.56464 0.09098 0.0
C480 C 0.15993 0.58862 0.14582 0.0
C481 C 0.13729 0.56485 0.15373 0.0
C482 C 0.19133 0.58803 0.14447 0.0
C483 C 0.25287 0.55541 0.16116 0.0
H484 H 0.28872 0.57591 0.11913 0.0
C485 C 0.37737 0.54539 0.14325 0.0
C486 C 0.39501 0.56805 0.13282 0.0
C487 C 0.34635 0.54467 0.14731 0.0
C488 C 0.27932 0.57053 0.13102 0.0
H489 H 0.1304 0.52221 0.16684 0.0
H490 H 0.18563 0.5212 0.16443 0.0
H491 H 0.23388 0.57465 0.12328 0.0
H492 H 0.39511 0.60897 0.11948 0.0
H493 H 0.34171 0.60823 0.12681 0.0
H494 H 0.2987 0.55148 0.16887 0.0
C495 C 0.17884 0.54032 0.15932 0.0
C496 C 0.24777 0.56973 0.13338 0.0
C497 C 0.14719 0.54084 0.16064 0.0
C498 C 0.38185 0.59095 0.12733 0.0
C499 C 0.35114 0.59037 0.13145 0.0
C500 C 0.28467 0.55631 0.1588 0.0
C501 C 0.20112 0.56369 0.15098 0.0
C502 C 0.23424 0.56262 0.14852 0.0
C503 C 0.33254 0.56668 0.14107 0.0
C504 C 0.29843 0.56437 0.14374 0.0
H505 H 0.15341 0.60769 0.14047 0.0
H506 H 0.20801 0.60673 0.13825 0.0
H507 H 0.24317 0.54994 0.17298 0.0
H508 H 0.3869 0.52738 0.14759 0.0
H509 H 0.33271 0.52608 0.15473 0.0
C510 C 0.71682 0.2324 0.48434 0.0
C511 C 0.72687 0.20825 0.49097 0.0
C512 C 0.73911 0.26096 0.48098 0.0
C513 C 0.82152 0.31153 0.49048 0.0
H514 H 0.81334 0.3446 0.44816 0.0
C515 C 0.92157 0.41303 0.46382 0.0
C516 C 0.91223 0.43297 0.45322 0.0
C517 C 0.89862 0.38717 0.46992 0.0
C518 C 0.81575 0.33613 0.46016 0.0
H519 H 0.76852 0.19565 0.49943 0.0
H520 H 0.80727 0.2457 0.49382 0.0
H521 H 0.7739 0.2969 0.45607 0.0
H522 H 0.87166 0.44287 0.44153 0.0
H523 H 0.83156 0.39866 0.45259 0.0
H524 H 0.86332 0.35091 0.49462 0.0
C525 C 0.78206 0.24246 0.4913 0.0
C526 C 0.79312 0.30864 0.46466 0.0
C527 C 0.75978 0.21377 0.49454 0.0
C528 C 0.87949 0.42758 0.44952 0.0
C529 C 0.85657 0.40208 0.45577 0.0
C530 C 0.84407 0.33927 0.48604 0.0
C531 C 0.772 0.26623 0.4843 0.0
C532 C 0.79578 0.29595 0.47984 0.0
C533 C 0.86583 0.38098 0.46567 0.0
C534 C 0.84151 0.35192 0.47078 0.0
H535 H 0.69166 0.22929 0.48174 0.0
H536 H 0.73058 0.279 0.4758 0.0
H537 H 0.82404 0.30242 0.50232 0.0
H538 H 0.94671 0.4166 0.46676 0.0
H539 H 0.90674 0.37138 0.4774 0.0
C540 C 0.42004 0.69529 0.8648 0.0
C541 C 0.45243 0.71083 0.86897 0.0
C542 C 0.39738 0.71123 0.86498 0.0
C543 C 0.38755 0.78931 0.8732 0.0
H544 H 0.36075 0.78218 0.82785 0.0
C545 C 0.41287 0.8914 0.83301 0.0
C546 C 0.39399 0.89215 0.81903 0.0
C547 C 0.4041 0.86653 0.84339 0.0
C548 C 0.3669 0.78416 0.84068 0.0
H549 H 0.48557 0.75387 0.87869 0.0
H550 H 0.44634 0.7816 0.87902 0.0
H551 H 0.37377 0.73952 0.84062 0.0
H552 H 0.35003 0.86771 0.80551 0.0
H553 H 0.33523 0.82335 0.82351 0.0
H554 H 0.3832 0.83516 0.87277 0.0
C555 C 0.4382 0.75716 0.8756 0.0
C556 C 0.37441 0.75956 0.84807 0.0
C557 C 0.46085 0.74125 0.87537 0.0
C558 C 0.36536 0.86771 0.81604 0.0
C559 C 0.35672 0.84246 0.82641 0.0
C560 C 0.37992 0.8139 0.86582 0.0
C561 C 0.40673 0.74293 0.86939 0.0
C562 C 0.38713 0.76283 0.86405 0.0
C563 C 0.37641 0.84136 0.84002 0.0
C564 C 0.37192 0.81241 0.84917 0.0
H565 H 0.41272 0.67151 0.86021 0.0
H566 H 0.37317 0.69949 0.86043 0.0
H567 H 0.39658 0.79219 0.88565 0.0
H568 H 0.43551 0.90922 0.83558 0.0
H569 H 0.42035 0.86612 0.85347 0.0
C570 C 0.93127 0.59733 0.14146 0.0
C571 C 0.93877 0.57238 0.14876 0.0
C572 C 0.89958 0.59778 0.14009 0.0
C573 C 0.81811 0.56234 0.15565 0.0
H574 H 0.79174 0.59272 0.11564 0.0
C575 C 0.68527 0.54777 0.13496 0.0
C576 C 0.67992 0.57221 0.12619 0.0
C577 C 0.71654 0.54897 0.13999 0.0
C578 C 0.79876 0.58458 0.127 0.0
H579 H 0.91866 0.52843 0.16052 0.0
H580 H 0.86324 0.52894 0.15784 0.0
H581 H 0.8465 0.59187 0.11953 0.0
H582 H 0.70228 0.61779 0.11671 0.0
H583 H 0.75652 0.62036 0.12581 0.0
H584 H 0.76981 0.55455 0.1629 0.0
C585 C 0.88197 0.54842 0.1534 0.0
C586 C 0.83027 0.58409 0.12924 0.0
C587 C 0.91377 0.54804 0.15484 0.0
C588 C 0.70587 0.59869 0.12349 0.0
C589 C 0.73693 0.59996 0.12854 0.0
C590 C 0.78639 0.56272 0.15337 0.0
C591 C 0.87443 0.57319 0.14588 0.0
C592 C 0.84051 0.57319 0.14362 0.0
C593 C 0.74284 0.57462 0.13627 0.0
C594 C 0.77642 0.5741 0.13905 0.0
H595 H 0.9499 0.61663 0.13678 0.0
H596 H 0.89484 0.61755 0.13453 0.0
H597 H 0.8252 0.55401 0.16694 0.0
H598 H 0.66562 0.52695 0.13698 0.0
H599 H 0.72026 0.52904 0.14589 0.0
C600 C 0.35522 0.86668 0.50072 0.0
C601 C 0.34736 0.89128 0.50825 0.0
C602 C 0.33176 0.83823 0.49732 0.0
C603 C 0.25183 0.78875 0.50818 0.0
H604 H 0.24854 0.75383 0.46499 0.0
C605 C 0.14487 0.68601 0.48263 0.0
C606 C 0.15138 0.6655 0.4714 0.0
C607 C 0.16936 0.71222 0.4885 0.0
C608 C 0.24937 0.76284 0.47721 0.0
H609 H 0.30842 0.9048 0.51827 0.0
H610 H 0.26767 0.85489 0.51259 0.0
H611 H 0.29017 0.8018 0.47268 0.0
H612 H 0.18873 0.65503 0.45828 0.0
H613 H 0.23161 0.6999 0.46891 0.0
H614 H 0.21114 0.74961 0.51277 0.0
C615 C 0.2921 0.85773 0.50938 0.0
C616 C 0.27323 0.79047 0.48159 0.0
C617 C 0.31552 0.88633 0.51266 0.0
C618 C 0.18303 0.67073 0.46679 0.0
C619 C 0.20752 0.6966 0.47279 0.0
C620 C 0.22807 0.76086 0.50385 0.0
C621 C 0.29989 0.83351 0.5015 0.0
C622 C 0.27472 0.80378 0.4971 0.0
C623 C 0.2009 0.71822 0.48336 0.0
C624 C 0.22651 0.74753 0.48829 0.0
H625 H 0.37957 0.86934 0.49747 0.0
H626 H 0.33859 0.81983 0.49145 0.0
H627 H 0.25255 0.79835 0.52028 0.0
H628 H 0.12058 0.68261 0.48626 0.0
H629 H 0.16325 0.72842 0.49651 0.0
C630 C 0.59409 0.38974 0.80124 0.0
C631 C 0.56687 0.39175 0.80905 0.0
C632 C 0.60664 0.36542 0.80453 0.0
C633 C 0.60222 0.30118 0.833 0.0
H634 H 0.61273 0.25642 0.79452 0.0
C635 C 0.56202 0.17014 0.82633 0.0
C636 C 0.57586 0.15555 0.81492 0.0
C637 C 0.57433 0.20209 0.82931 0.0
C638 C 0.61091 0.26893 0.80548 0.0
H639 H 0.53159 0.37002 0.82646 0.0
H640 H 0.55314 0.32758 0.83204 0.0
H641 H 0.60865 0.30844 0.79222 0.0
H642 H 0.61576 0.16214 0.79922 0.0
H643 H 0.63728 0.21815 0.8044 0.0
H644 H 0.60244 0.26068 0.84609 0.0
C645 C 0.56535 0.34512 0.82369 0.0
C646 C 0.60848 0.29883 0.80414 0.0
C647 C 0.55284 0.36934 0.82041 0.0
C648 C 0.6042 0.17295 0.80781 0.0
C649 C 0.61655 0.20495 0.8108 0.0
C650 C 0.60464 0.27122 0.83434 0.0
C651 C 0.59218 0.34268 0.81567 0.0
C652 C 0.60252 0.31464 0.81776 0.0
C653 C 0.60073 0.22007 0.82093 0.0
C654 C 0.60743 0.25423 0.82047 0.0
H655 H 0.60571 0.40698 0.79262 0.0
H656 H 0.62744 0.36422 0.79823 0.0
H657 H 0.59836 0.31315 0.84376 0.0
H658 H 0.54005 0.15745 0.83193 0.0
H659 H 0.56136 0.21298 0.83708 0.0
C660 C 0.51215 0.92566 0.51145 0.0
C661 C 0.54064 0.94985 0.50893 0.0
C662 C 0.51164 0.89431 0.51165 0.0
C663 C 0.55978 0.84075 0.50059 0.0
H664 H 0.50188 0.7841 0.52867 0.0
C665 C 0.56794 0.71616 0.51497 0.0
C666 C 0.53967 0.69228 0.51815 0.0
C667 C 0.56746 0.74673 0.51203 0.0
C668 C 0.51794 0.79931 0.52053 0.0
H669 H 0.5911 0.95919 0.50464 0.0
H670 H 0.59043 0.90508 0.50529 0.0
H671 H 0.50245 0.83796 0.5276 0.0
H672 H 0.48867 0.68218 0.52061 0.0
H673 H 0.48747 0.73482 0.51499 0.0
H674 H 0.57561 0.80199 0.49378 0.0
C675 C 0.56813 0.91011 0.50682 0.0
C676 C 0.51828 0.83056 0.51991 0.0
C677 C 0.56859 0.94145 0.50656 0.0
C678 C 0.51076 0.69968 0.51772 0.0
C679 C 0.51024 0.7302 0.51483 0.0
C680 C 0.55954 0.80947 0.50128 0.0
C681 C 0.53965 0.88581 0.50941 0.0
C682 C 0.5392 0.85202 0.50993 0.0
C683 C 0.53871 0.75459 0.51241 0.0
C684 C 0.53858 0.78808 0.51126 0.0
H685 H 0.49 0.93089 0.51323 0.0
H686 H 0.48899 0.87669 0.51338 0.0
H687 H 0.57594 0.85598 0.49251 0.0
H688 H 0.59079 0.71165 0.51582 0.0
H689 H 0.59002 0.76458 0.5104 0.0
C690 C 0.64651 0.55762 0.81548 0.0
C691 C 0.6379 0.58046 0.82427 0.0
C692 C 0.67839 0.55747 0.81559 0.0
C693 C 0.76182 0.60808 0.8245 0.0
H694 H 0.78094 0.53018 0.82831 0.0
C695 C 0.88569 0.60159 0.84587 0.0
C696 C 0.89737 0.57863 0.83927 0.0
C697 C 0.85503 0.60266 0.84153 0.0
C698 C 0.77604 0.5521 0.82695 0.0
H699 H 0.65638 0.62099 0.84016 0.0
H700 H 0.7117 0.6205 0.8405 0.0
H701 H 0.72527 0.52996 0.82606 0.0
H702 H 0.88652 0.53941 0.82249 0.0
H703 H 0.83256 0.54127 0.81478 0.0
H704 H 0.81255 0.63026 0.82573 0.0
C705 C 0.69388 0.60295 0.83329 0.0
C706 C 0.74408 0.55199 0.8257 0.0
C707 C 0.66203 0.60309 0.8332 0.0
C708 C 0.87817 0.55746 0.82769 0.0
C709 C 0.8472 0.55835 0.82342 0.0
C710 C 0.79373 0.60819 0.82578 0.0
C711 C 0.70253 0.58018 0.82447 0.0
C712 C 0.73654 0.58004 0.82474 0.0
C713 C 0.83508 0.58068 0.83051 0.0
C714 C 0.80127 0.58025 0.8273 0.0
H715 H 0.62864 0.53982 0.80843 0.0
H716 H 0.68416 0.53976 0.80853 0.0
H717 H 0.75697 0.63007 0.82341 0.0
H718 H 0.90003 0.61827 0.85479 0.0
H719 H 0.84647 0.61997 0.84736 0.0
C720 C 0.225 0.74925 0.15619 0.0
C721 C 0.19893 0.75548 0.14815 0.0
C722 C 0.25342 0.77314 0.15989 0.0
C723 C 0.28515 0.85882 0.16528 0.0
H724 H 0.36744 0.84385 0.1641 0.0
C725 C 0.40453 0.95635 0.179 0.0
C726 C 0.42611 0.94868 0.18987 0.0
C727 C 0.37789 0.93319 0.17231 0.0
C728 C 0.34462 0.84834 0.16455 0.0
H729 H 0.18264 0.792 0.13764 0.0
H730 H 0.23247 0.83343 0.14363 0.0
H731 H 0.31886 0.80277 0.15536 0.0
H732 H 0.43745 0.9106 0.20168 0.0
H733 H 0.39105 0.87024 0.19001 0.0
H734 H 0.31101 0.9044 0.1745 0.0
C735 C 0.23076 0.8101 0.14732 0.0
C736 C 0.31673 0.82477 0.15959 0.0
C737 C 0.20227 0.78621 0.14369 0.0
C738 C 0.42109 0.91727 0.19345 0.0
C739 C 0.39465 0.89412 0.18666 0.0
C740 C 0.31307 0.88245 0.17014 0.0
C741 C 0.25664 0.80394 0.15559 0.0
C742 C 0.28657 0.82956 0.16007 0.0
C743 C 0.37246 0.90185 0.1762 0.0
C744 C 0.34309 0.87738 0.17 0.0
H745 H 0.22351 0.72583 0.15962 0.0
H746 H 0.27264 0.76751 0.16642 0.0
H747 H 0.26237 0.86325 0.16607 0.0
H748 H 0.40763 0.98037 0.1761 0.0
H749 H 0.36138 0.93985 0.16417 0.0
C750 C 0.56508 0.17145 0.50528 0.0
C751 C 0.53883 0.14797 0.51111 0.0
C752 C 0.56579 0.20286 0.5054 0.0
C753 C 0.51332 0.25499 0.50945 0.0
H754 H 0.59457 0.31907 0.51739 0.0
C755 C 0.52434 0.38815 0.50793 0.0
C756 C 0.54525 0.40781 0.51962 0.0
C757 C 0.52388 0.35691 0.50566 0.0
C758 C 0.57151 0.30164 0.51524 0.0
H759 H 0.4926 0.13998 0.52165 0.0
H760 H 0.49395 0.19436 0.52205 0.0
H761 H 0.59266 0.26478 0.51654 0.0
H762 H 0.58315 0.40974 0.53749 0.0
H763 H 0.58226 0.35618 0.53369 0.0
H764 H 0.49211 0.29198 0.5086 0.0
C765 C 0.51396 0.18855 0.51713 0.0
C766 C 0.57047 0.27017 0.51454 0.0
C767 C 0.51325 0.15712 0.51701 0.0
C768 C 0.56646 0.39548 0.52846 0.0
C769 C 0.56612 0.36453 0.52616 0.0
C770 C 0.51437 0.28652 0.51013 0.0
C771 C 0.54028 0.21214 0.51136 0.0
C772 C 0.54134 0.2461 0.51174 0.0
C773 C 0.54456 0.34437 0.51488 0.0
C774 C 0.54347 0.31052 0.51319 0.0
H775 H 0.58526 0.16559 0.50056 0.0
H776 H 0.58636 0.21985 0.50058 0.0
H777 H 0.49037 0.23753 0.50703 0.0
H778 H 0.50752 0.39656 0.50093 0.0
H779 H 0.50715 0.34254 0.49669 0.0
C780 C 0.42981 0.60061 0.83243 0.0
C781 C 0.43675 0.5776 0.82303 0.0
C782 C 0.39828 0.60056 0.83415 0.0
C783 C 0.31487 0.56857 0.81706 0.0
H784 H 0.29428 0.59069 0.85973 0.0
C785 C 0.18501 0.55483 0.83814 0.0
C786 C 0.18204 0.57788 0.84893 0.0
C787 C 0.21532 0.55542 0.83293 0.0
C788 C 0.29964 0.58485 0.84767 0.0
H789 H 0.41549 0.53642 0.80791 0.0
H790 H 0.36012 0.53591 0.81121 0.0
H791 H 0.34809 0.58962 0.85492 0.0
H792 H 0.20772 0.62072 0.86176 0.0
H793 H 0.2602 0.62226 0.85244 0.0
H794 H 0.26586 0.56345 0.80998 0.0
C795 C 0.37934 0.55438 0.81704 0.0
C796 C 0.33061 0.58423 0.8449 0.0
C797 C 0.41111 0.55455 0.81523 0.0
C798 C 0.20942 0.60258 0.85351 0.0
C799 C 0.2395 0.60326 0.84829 0.0
C800 C 0.28365 0.56909 0.81986 0.0
C801 C 0.37252 0.57721 0.82669 0.0
C802 C 0.33886 0.57649 0.82952 0.0
C803 C 0.24306 0.57909 0.83845 0.0
C804 C 0.27581 0.57766 0.83517 0.0
H805 H 0.44872 0.61861 0.83871 0.0
H806 H 0.39413 0.61889 0.84142 0.0
H807 H 0.32038 0.56265 0.80504 0.0
H808 H 0.16425 0.53541 0.83455 0.0
H809 H 0.21722 0.53645 0.82536 0.0
C810 C 0.85185 0.39431 0.18806 0.0
C811 C 0.87396 0.38885 0.1775 0.0
C812 C 0.82292 0.37129 0.19057 0.0
C813 C 0.7674 0.29636 0.17426 0.0
H814 H 0.74212 0.28609 0.2187 0.0
C815 C 0.66989 0.18798 0.19763 0.0
C816 C 0.65096 0.19312 0.21003 0.0
C817 C 0.6948 0.21266 0.1919 0.0
C818 C 0.74849 0.28888 0.20618 0.0
H819 H 0.88269 0.35507 0.16099 0.0
H820 H 0.83226 0.31468 0.16549 0.0
H821 H 0.78987 0.32746 0.21214 0.0
H822 H 0.64148 0.22835 0.22521 0.0
H823 H 0.68442 0.27133 0.2151 0.0
H824 H 0.72602 0.25722 0.16843 0.0
C825 C 0.8371 0.33696 0.17168 0.0
C826 C 0.77595 0.31267 0.20241 0.0
C827 C 0.86604 0.36009 0.16912 0.0
C828 C 0.65607 0.22363 0.21584 0.0
C829 C 0.68077 0.24821 0.2101 0.0
C830 C 0.73983 0.27242 0.17805 0.0
C831 C 0.8154 0.34211 0.18264 0.0
C832 C 0.78576 0.31682 0.18641 0.0
C833 C 0.70111 0.24291 0.19844 0.0
C834 C 0.73 0.26849 0.19407 0.0
H835 H 0.85695 0.41642 0.19446 0.0
H836 H 0.80648 0.37633 0.19882 0.0
H837 H 0.77412 0.29904 0.16179 0.0
H838 H 0.66656 0.16467 0.19298 0.0
H839 H 0.71008 0.20775 0.18294 0.0
C840 C 0.02408 0.56991 0.09937 0.0
C841 C 0.03406 0.54665 0.10696 0.0
C842 C 0.02461 0.57248 0.08257 0.0
C843 C 0.04464 0.5825 0.04761 0.0
H844 H 1.01371 0.50656 0.0216 0.0
C845 C 0.05382 0.57996 0.97808 0.0
C846 C 0.02659 0.56148 0.96922 0.0
C847 C 0.05571 0.57853 -0.00508 0.0
C848 C 1.02228 0.52799 0.02869 0.0
H849 H 0.05307 0.50833 0.10308 0.0
H850 H 0.05409 0.51285 0.07378 0.0
H851 H 1.01503 0.50382 0.05096 0.0
H852 H 0.98027 0.52661 0.97105 0.0
H853 H 0.98343 0.52434 0.00042 0.0
H854 H 0.05136 0.60667 0.02529 0.0
C855 C 0.04547 0.52884 0.08074 0.0
C856 C 0.02336 0.5264 0.04551 0.0
C857 C 0.04503 0.52634 0.09752 0.0
C858 C 1.00143 0.54138 0.97755 0.0
C859 C 1.00339 0.53984 -0.00565 0.0
C860 C 0.04369 0.58408 0.03076 0.0
C861 C 0.03505 0.55179 0.07306 0.0
C862 C 0.03445 0.55363 0.05517 0.0
C863 C 0.0305 0.55844 0.00324 0.0
C864 C 0.03234 0.55683 0.02112 0.0
H865 H 1.01559 0.58593 0.10639 0.0
H866 H 1.01618 0.59024 0.07699 0.0
H867 H 0.05356 0.60387 0.05472 0.0
H868 H 0.07348 0.59586 0.97201 0.0
H869 H 0.07704 0.59295 0.00142 0.0
C870 C 0.52031 0.06823 0.45206 0.0
C871 C 0.53065 0.04869 0.46249 0.0
C872 C 0.52539 0.06764 0.43553 0.0
C873 C 0.53193 1.01575 0.40335 0.0
H874 H 0.56571 0.09061 0.37889 0.0
C875 C 0.51192 1.02254 0.33432 0.0
C876 C 0.53906 0.03701 0.32546 0.0
C877 C 0.51381 1.02318 0.3512 0.0
C878 C 0.55645 0.06953 0.3856 0.0
H879 H 0.55497 1.01365 0.46399 0.0
H880 H 0.56309 1.012 0.43491 0.0
H881 H 0.56471 0.09424 0.40839 0.0
H882 H 0.58979 0.06285 0.32763 0.0
H883 H 0.59256 0.06499 0.3571 0.0
H884 H 0.52262 0.99116 0.38053 0.0
C885 C 0.55128 1.02791 0.43958 0.0
C886 C 0.55574 0.07162 0.40242 0.0
C887 C 0.54674 1.02893 0.45618 0.0
C888 C 0.56819 0.05201 0.33398 0.0
C889 C 0.56991 0.0531 0.35087 0.0
C890 C 0.53209 1.01373 0.38652 0.0
C891 C 0.54044 0.04711 0.42911 0.0
C892 C 0.54329 0.04477 0.41143 0.0
C893 C 0.54273 0.03872 0.35961 0.0
C894 C 0.54416 0.04062 0.37749 0.0
H895 H 0.50796 0.08376 0.45665 0.0
H896 H 0.51663 0.08252 0.42769 0.0
H897 H 0.52198 0.99475 0.41003 0.0
H898 H 0.48892 1.0113 0.32827 0.0
H899 H 0.4924 1.01223 0.35769 0.0
C900 C 0.5292 0.57546 0.77077 0.0
C901 C 0.55253 0.60079 0.77835 0.0
C902 C 0.52973 0.56971 0.7542 0.0
C903 C 0.55789 0.60849 0.71647 0.0
H904 H 0.54473 0.52489 0.69973 0.0
C905 C 0.57087 0.58379 0.64901 0.0
C906 C 0.5492 0.55686 0.64184 0.0
C907 C 0.57204 0.58891 0.66572 0.0
C908 C 0.54802 0.54832 0.70417 0.0
H909 H 0.59472 0.63988 0.77464 0.0
H910 H 0.59548 0.63002 0.7456 0.0
H911 H 0.54528 0.53417 0.72881 0.0
H912 H 0.51144 0.51439 0.64651 0.0
H913 H 0.51299 0.52353 0.67563 0.0
H914 H 0.56002 0.62266 0.6919 0.0
C915 C 0.57677 0.61467 0.75247 0.0
C916 C 0.54844 0.55363 0.72084 0.0
C917 C 0.57642 0.62023 0.76908 0.0
C918 C 0.52868 0.53516 0.65173 0.0
C919 C 0.52966 0.54039 0.66842 0.0
C920 C 0.55723 0.60317 0.6998 0.0
C921 C 0.55339 0.58937 0.74485 0.0
C922 C 0.55337 0.58376 0.72716 0.0
C923 C 0.55136 0.56733 0.67564 0.0
C924 C 0.55228 0.57301 0.69342 0.0
H925 H 0.51044 0.56015 0.77763 0.0
H926 H 0.51122 0.55023 0.74863 0.0
H927 H 0.5613 0.6319 0.72099 0.0
H928 H 0.58727 0.60073 0.64171 0.0
H929 H 0.58945 0.60964 0.67086 0.0
C930 C 0.5529 1.02258 0.56656 0.0
C931 C 0.54247 0.04242 0.55635 0.0
C932 C 0.5414 1.01695 0.58211 0.0
C933 C 0.50914 0.05268 0.61425 0.0
H934 H 0.48223 0.97012 0.63202 0.0
C935 C 0.46548 0.03573 0.67868 0.0
C936 C 0.47661 1.0155 0.68824 0.0
C937 C 0.4684 0.03568 0.66197 0.0
C938 C 0.48992 0.99336 0.6273 0.0
H939 H 0.51153 0.07156 0.55422 0.0
H940 H 0.4918 0.06211 0.58149 0.0
H941 H 0.49824 0.97683 0.604 0.0
H942 H 0.49835 0.97859 0.688 0.0
H943 H 0.50447 0.97901 0.65879 0.0
H944 H 0.50224 0.06957 0.63752 0.0
C945 C 0.50888 0.05095 0.57748 0.0
C946 C 0.49901 0.99716 0.61124 0.0
C947 C 0.52011 0.05631 0.56188 0.0
C948 C 0.48932 0.99417 0.68079 0.0
C949 C 0.49275 0.99444 0.66405 0.0
C950 C 0.50045 0.04895 0.63031 0.0
C951 C 0.51951 1.03132 0.58777 0.0
C952 C 0.50879 1.02688 0.60459 0.0
C953 C 0.48317 1.01585 0.65449 0.0
C954 C 0.49077 1.01926 0.63709 0.0
H955 H 0.57001 1.01146 0.56255 0.0
H956 H 0.5502 1.00193 0.58984 0.0
H957 H 0.51707 0.07592 0.60952 0.0
H958 H 0.45548 0.05229 0.68423 0.0
H959 H 0.45991 0.05188 0.65497 0.0
C960 C 0.527 0.57458 0.87375 0.0
C961 C 0.53125 0.54824 0.86628 0.0
C962 C 0.52566 0.57646 0.89054 0.0
C963 C 0.51169 0.52688 0.92672 0.0
H964 H 0.54727 0.60584 0.94974 0.0
C965 C 0.52754 0.53813 -0.00375 0.0
C966 C 0.51668 0.56092 0.00365 0.0
C967 C 0.52914 0.53667 0.97947 0.0
C968 C 0.53704 0.58369 0.94343 0.0
H969 H 0.53764 0.50329 0.87029 0.0
H970 H 0.53652 0.50686 0.89966 0.0
H971 H 0.55155 0.60324 0.92052 0.0
H972 H 0.49931 0.60024 -0.00063 0.0
H973 H 0.50248 0.59791 0.96995 0.0
H974 H 0.49791 0.50732 0.94977 0.0
C975 C 0.53344 0.52586 0.89263 0.0
C976 C 0.53937 0.58217 0.92668 0.0
C977 C 0.53435 0.52386 0.87582 0.0
C978 C 0.50757 0.58232 0.99395 0.0
C979 C 0.50961 0.58114 0.97717 0.0
C980 C 0.50973 0.52836 0.94348 0.0
C981 C 0.5288 0.55208 0.90021 0.0
C982 C 0.52667 0.55373 0.91809 0.0
C983 C 0.52032 0.55824 0.96977 0.0
C984 C 0.52233 0.55677 0.95199 0.0
H985 H 0.52358 0.59323 0.86658 0.0
H986 H 0.52135 0.5967 0.89587 0.0
H987 H 0.50101 0.5047 0.92052 0.0
H988 H 0.53451 0.52124 0.00345 0.0
H989 H 0.53768 0.51891 0.97408 0.0
C990 C 0.03639 0.61275 0.20881 0.0
C991 C 0.04345 0.59047 0.19895 0.0
C992 C 0.03607 0.6097 0.22555 0.0
C993 C 0.02528 0.55371 0.25776 0.0
H994 H 0.07391 0.62473 0.28437 0.0
C995 C 0.04091 0.54697 0.32725 0.0
C996 C 0.04237 0.57353 0.33656 0.0
C997 C 0.04056 0.54806 0.31038 0.0
C998 C 0.05974 0.6048 0.27718 0.0
H999 H 0.05519 0.54728 0.19875 0.0
H1000 H 0.05396 0.5416 0.22813 0.0
H1001 H 0.0738 0.62835 0.25509 0.0
H1002 H 0.04318 0.62159 0.33564 0.0
H1003 H 0.04138 0.62331 0.30628 0.0
H1004 H 1.01041 0.53036 0.27979 0.0
C1005 C 0.04887 0.56148 0.22286 0.0
C1006 C 0.05987 0.60687 0.26039 0.0
C1007 C 0.04969 0.56479 0.2061 0.0
C1008 C 0.04255 0.60092 0.32872 0.0
C1009 C 0.04172 0.60191 0.31189 0.0
C1010 C 0.02475 0.55175 0.2746 0.0
C1011 C 0.04235 0.58408 0.23274 0.0
C1012 C 0.04258 0.5814 0.25053 0.0
C1013 C 0.04121 0.57564 0.30247 0.0
C1014 C 0.04189 0.57734 0.28453 0.0
H1015 H 0.03142 0.63273 0.2036 0.0
H1016 H 0.0307 0.6273 0.23289 0.0
H1017 H 1.01155 0.53381 0.25039 0.0
H1018 H 0.04096 0.52562 0.33304 0.0
H1019 H 0.04056 0.52748 0.30357 0.0
loop_
_geom_bond_atom_site_label_1
_geom_bond_atom_site_label_2
_geom_bond_distance
_geom_bond_site_symmetry_2
_ccdc_geom_bond_type
Pr0 C2 2.880 . S
Pr0 O20 2.562 . S
Pr0 O21 2.490 . S
Pr0 O22 2.695 1_655 S
Pr0 O23 2.512 . S
Pr0 O25 2.437 . S
Pr0 O28 2.436 . S
Pr0 O30 2.438 1_655 S
Pr1 C11 2.880 . S
Pr1 O22 2.436 . S
Pr1 O24 2.438 1_455 S
Pr1 O26 2.562 . S
Pr1 O27 2.490 . S
Pr1 O28 2.695 1_455 S
Pr1 O29 2.512 . S
Pr1 O31 2.437 . S
C2 Pr0 2.880 . S
C2 C3 1.491 . S
C2 O20 1.254 . S
C2 O21 1.225 . S
C3 C2 1.491 . S
C3 C4 1.392 . S
C3 C8 1.356 . S
C4 C3 1.392 . S
C4 C5 1.368 . S
C4 H32 0.929 . S
C5 C4 1.368 . S
C5 C6 1.386 . S
C5 H33 0.929 . S
C6 C5 1.386 . S
C6 C7 1.373 . S
C7 C6 1.373 . S
C7 C8 1.409 . S
C7 H34 0.931 . S
C8 C3 1.356 . S
C8 C7 1.409 . S
C8 H35 0.930 . S
C9 O22 1.270 . S
C9 O23 1.248 1_455 S
C10 O24 1.267 . S
C10 O25 1.278 . S
C11 Pr1 2.880 . S
C11 C12 1.491 . S
C11 O26 1.254 . S
C11 O27 1.225 . S
C12 C11 1.491 . S
C12 C13 1.392 . S
C12 C17 1.356 . S
C13 C12 1.392 . S
C13 C14 1.368 . S
C13 H36 0.929 . S
C14 C13 1.368 . S
C14 C15 1.386 . S
C14 H37 0.929 . S
C15 C14 1.386 . S
C15 C16 1.373 . S
C16 C15 1.373 . S
C16 C17 1.409 . S
C16 H38 0.931 . S
C17 C12 1.356 . S
C17 C16 1.409 . S
C17 H39 0.930 . S
C18 O28 1.270 1_455 S
C18 O29 1.248 . S
C19 O30 1.267 . S
C19 O31 1.278 . S
O20 Pr0 2.562 . S
O20 C2 1.254 . S
O21 Pr0 2.490 . S
O21 C2 1.225 . S
O22 Pr0 2.695 1_455 S
O22 Pr1 2.436 . S
O22 C9 1.270 . S
O23 Pr0 2.512 . S
O23 C9 1.248 1_655 S
O24 Pr1 2.438 1_655 S
O24 C10 1.267 . S
O25 Pr0 2.437 . S
O25 C10 1.278 . S
O26 Pr1 2.562 . S
O26 C11 1.254 . S
O27 Pr1 2.490 . S
O27 C11 1.225 . S
O28 Pr0 2.436 . S
O28 Pr1 2.695 1_655 S
O28 C18 1.270 1_655 S
O29 Pr1 2.512 . S
O29 C18 1.248 . S
O30 Pr0 2.438 1_455 S
O30 C19 1.267 . S
O31 Pr1 2.437 . S
O31 C19 1.278 . S
H32 C4 0.929 . S
H33 C5 0.929 . S
H34 C7 0.931 . S
H35 C8 0.930 . S
H36 C13 0.929 . S
H37 C14 0.929 . S
H38 C16 0.931 . S
H39 C17 0.930 . S
Pr40 C42 2.880 . S
Pr40 O60 2.562 . S
Pr40 O61 2.490 . S
Pr40 O62 2.695 . S
Pr40 O63 2.512 . S
Pr40 O65 2.437 . S
Pr40 O68 2.436 . S
Pr40 O70 2.438 1_545 S
Pr41 C51 2.857 1_545 S
Pr41 O62 2.433 . S
Pr41 O64 2.469 . S
Pr41 O66 2.539 1_545 S
Pr41 O67 2.471 1_545 S
Pr41 O68 2.700 . S
Pr41 O69 2.512 . S
Pr41 O71 2.409 1_545 S
C42 Pr40 2.880 . S
C42 C43 1.491 . S
C42 O60 1.254 . S
C42 O61 1.225 . S
C43 C42 1.491 . S
C43 C44 1.392 . S
C43 C48 1.356 . S
C44 C43 1.392 . S
C44 C45 1.368 . S
C44 H72 0.929 . S
C45 C44 1.368 . S
C45 C46 1.386 . S
C45 H73 0.929 . S
C46 C45 1.386 . S
C46 C47 1.373 . S
C47 C46 1.373 . S
C47 C48 1.409 . S
C47 H74 0.931 . S
C48 C43 1.356 . S
C48 C47 1.409 . S
C48 H75 0.930 . S
C49 O62 1.270 . S
C49 O63 1.248 . S
C50 O64 1.267 . S
C50 O65 1.278 . S
C51 Pr41 2.857 1_565 S
C51 C52 1.491 . S
C51 O66 1.254 . S
C51 O67 1.225 . S
C52 C51 1.491 . S
C52 C53 1.392 . S
C52 C57 1.356 . S
C53 C52 1.392 . S
C53 C54 1.368 . S
C53 H76 0.929 . S
C54 C53 1.368 . S
C54 C55 1.386 . S
C54 H77 0.929 . S
C55 C54 1.386 . S
C55 C56 1.373 . S
C56 C55 1.373 . S
C56 C57 1.409 . S
C56 H78 0.931 . S
C57 C52 1.356 . S
C57 C56 1.409 . S
C57 H79 0.930 . S
C58 O68 1.270 . S
C58 O69 1.248 . S
C59 O70 1.267 . S
C59 O71 1.278 . S
O60 Pr40 2.562 . S
O60 C42 1.254 . S
O61 Pr40 2.490 . S
O61 C42 1.225 . S
O62 Pr40 2.695 . S
O62 Pr41 2.433 . S
O62 C49 1.270 . S
O63 Pr40 2.512 . S
O63 C49 1.248 . S
O64 Pr41 2.469 . S
O64 C50 1.267 . S
O65 Pr40 2.437 . S
O65 C50 1.278 . S
O66 Pr41 2.539 1_565 S
O66 C51 1.254 . S
O67 Pr41 2.471 1_565 S
O67 C51 1.225 . S
O68 Pr40 2.436 . S
O68 Pr41 2.700 . S
O68 C58 1.270 . S
O69 Pr41 2.512 . S
O69 C58 1.248 . S
O70 Pr40 2.438 1_565 S
O70 C59 1.267 . S
O71 Pr41 2.409 1_565 S
O71 C59 1.278 . S
H72 C44 0.929 . S
H73 C45 0.929 . S
H74 C47 0.931 . S
H75 C48 0.930 . S
H76 C53 0.929 . S
H77 C54 0.929 . S
H78 C56 0.931 . S
H79 C57 0.930 . S
Pr80 C82 2.880 . S
Pr80 O100 2.562 . S
Pr80 O101 2.490 . S
Pr80 O102 2.695 . S
Pr80 O103 2.512 . S
Pr80 O105 2.437 . S
Pr80 O108 2.436 . S
Pr80 O110 2.438 . S
Pr81 C91 2.880 . S
Pr81 O102 2.436 . S
Pr81 O104 2.438 . S
Pr81 O106 2.562 . S
Pr81 O107 2.490 . S
Pr81 O108 2.695 . S
Pr81 O109 2.512 . S
Pr81 O111 2.437 . S
C82 Pr80 2.880 . S
C82 C83 1.491 . S
C82 O100 1.254 . S
C82 O101 1.225 . S
C83 C82 1.491 . S
C83 C84 1.392 . S
C83 C88 1.356 . S
C84 C83 1.392 . S
C84 C85 1.368 . S
C84 H112 0.929 . S
C85 C84 1.368 . S
C85 C86 1.386 . S
C85 H113 0.929 . S
C86 C85 1.386 . S
C86 C87 1.373 . S
C87 C86 1.373 . S
C87 C88 1.409 . S
C87 H114 0.931 . S
C88 C83 1.356 . S
C88 C87 1.409 . S
C88 H115 0.930 . S
C89 O102 1.270 . S
C89 O103 1.248 . S
C90 O104 1.267 . S
C90 O105 1.278 . S
C91 Pr81 2.880 . S
C91 C92 1.491 . S
C91 O106 1.254 . S
C91 O107 1.225 . S
C92 C91 1.491 . S
C92 C93 1.392 . S
C92 C97 1.356 . S
C93 C92 1.392 . S
C93 C94 1.368 . S
C93 H116 0.929 . S
C94 C93 1.368 . S
C94 C95 1.386 . S
C94 H117 0.929 . S
C95 C94 1.386 . S
C95 C96 1.373 . S
C96 C95 1.373 . S
C96 C97 1.409 . S
C96 H118 0.931 . S
C97 C92 1.356 . S
C97 C96 1.409 . S
C97 H119 0.930 . S
C98 O108 1.270 . S
C98 O109 1.248 . S
C99 O110 1.267 . S
C99 O111 1.278 . S
O100 Pr80 2.562 . S
O100 C82 1.254 . S
O101 Pr80 2.490 . S
O101 C82 1.225 . S
O102 Pr80 2.695 . S
O102 Pr81 2.436 . S
O102 C89 1.270 . S
O103 Pr80 2.512 . S
O103 C89 1.248 . S
O104 Pr81 2.438 . S
O104 C90 1.267 . S
O105 Pr80 2.437 . S
O105 C90 1.278 . S
O106 Pr81 2.562 . S
O106 C91 1.254 . S
O107 Pr81 2.490 . S
O107 C91 1.225 . S
O108 Pr80 2.436 . S
O108 Pr81 2.695 . S
O108 C98 1.270 . S
O109 Pr81 2.512 . S
O109 C98 1.248 . S
O110 Pr80 2.438 . S
O110 C99 1.267 . S
O111 Pr81 2.437 . S
O111 C99 1.278 . S
H112 C84 0.929 . S
H113 C85 0.929 . S
H114 C87 0.931 . S
H115 C88 0.930 . S
H116 C93 0.929 . S
H117 C94 0.929 . S
H118 C96 0.931 . S
H119 C97 0.930 . S
C120 C121 1.391 . S
C120 C124 1.391 . S
C120 H162 0.948 . S
C121 C120 1.391 . S
C121 C122 1.391 . S
C122 C121 1.391 . S
C122 H178 0.947 . S
C122 C179 1.392 . S
C123 C124 1.391 . S
C123 C127 1.397 . S
C123 C179 1.419 . S
C124 C120 1.391 . S
C124 C123 1.391 . S
C124 C125 1.399 . S
C125 C124 1.399 . S
C125 C128 1.396 . S
C125 C137 1.453 . S
C125 C138 1.684 . S
H126 C150 0.948 . S
C127 C123 1.397 . S
C127 C128 1.394 . S
C127 C146 1.723 . S
C128 C125 1.396 . S
C128 C127 1.394 . S
C128 C158 1.723 . S
H129 C152 0.947 . S
H130 C153 0.948 1_545 S
H131 C159 0.982 . S
H132 C160 0.979 . S
H133 C160 0.980 . S
H134 C160 0.983 . S
H135 C159 0.979 . S
H136 C159 0.977 . S
C137 C125 1.453 . S
C137 H166 0.982 . S
C137 H167 0.979 . S
C137 H168 0.977 . S
C138 C125 1.684 . S
C138 H163 0.979 . S
C138 H164 0.980 . S
C138 H165 0.983 . S
C139 C140 1.391 . S
C139 C144 1.391 . S
C139 H169 0.948 . S
C140 C139 1.391 . S
C140 C141 1.391 . S
C141 C140 1.391 . S
C141 C142 1.392 . S
C141 H170 0.947 1_545 S
C142 C141 1.392 . S
C142 C143 1.419 . S
C142 H171 0.948 1_545 S
C143 C142 1.419 . S
C143 C144 1.391 . S
C143 C147 1.397 . S
C144 C139 1.391 . S
C144 C143 1.391 . S
C144 C145 1.399 . S
C145 C144 1.399 . S
C145 C146 1.396 . S
C145 C148 1.453 . S
C145 C149 1.684 . S
C146 C127 1.723 . S
C146 C145 1.396 . S
C146 C147 1.394 . S
C147 C143 1.397 . S
C147 C146 1.394 . S
C147 C157 1.723 . S
C148 C145 1.453 . S
C148 H172 0.982 . S
C148 H173 0.979 . S
C148 H174 0.977 . S
C149 C145 1.684 . S
C149 H175 0.979 . S
C149 H176 0.980 . S
C149 H177 0.983 . S
C150 H126 0.948 . S
C150 C151 1.391 . S
C150 C155 1.391 . S
C151 C150 1.391 . S
C151 C152 1.391 . S
C152 H129 0.947 . S
C152 C151 1.391 . S
C152 C153 1.392 . S
C153 H130 0.948 1_565 S
C153 C152 1.392 . S
C153 C154 1.419 . S
C154 C153 1.419 . S
C154 C155 1.391 . S
C154 C158 1.397 1_565 S
C155 C150 1.391 . S
C155 C154 1.391 . S
C155 C156 1.399 . S
C156 C155 1.399 . S
C156 C157 1.396 1_565 S
C156 C159 1.453 . S
C156 C160 1.684 . S
C157 C147 1.723 . S
C157 C156 1.396 1_545 S
C157 C158 1.394 . S
C158 C128 1.723 . S
C158 C154 1.397 1_545 S
C158 C157 1.394 . S
C159 H131 0.982 . S
C159 H135 0.979 . S
C159 H136 0.977 . S
C159 C156 1.453 . S
C160 H132 0.979 . S
C160 H133 0.980 . S
C160 H134 0.983 . S
C160 C156 1.684 . S
H161 C179 0.948 . S
H162 C120 0.948 . S
H163 C138 0.979 . S
H164 C138 0.980 . S
H165 C138 0.983 . S
H166 C137 0.982 . S
H167 C137 0.979 . S
H168 C137 0.977 . S
H169 C139 0.948 . S
H170 C141 0.947 1_565 S
H171 C142 0.948 1_565 S
H172 C148 0.982 . S
H173 C148 0.979 . S
H174 C148 0.977 . S
H175 C149 0.979 . S
H176 C149 0.980 . S
H177 C149 0.983 . S
H178 C122 0.947 . S
C179 C122 1.392 . S
C179 C123 1.419 . S
C179 H161 0.948 . S
C180 C181 1.391 . S
C180 C184 1.391 . S
C180 H222 0.948 . S
C181 C180 1.391 . S
C181 C182 1.391 . S
C182 C181 1.391 . S
C182 H238 0.947 . S
C182 C239 1.392 . S
C183 C184 1.391 . S
C183 C187 1.397 . S
C183 C239 1.419 . S
C184 C180 1.391 . S
C184 C183 1.391 . S
C184 C185 1.399 . S
C185 C184 1.399 . S
C185 C188 1.396 . S
C185 C197 1.453 . S
C185 C198 1.684 . S
H186 C210 0.948 . S
C187 C183 1.397 . S
C187 C188 1.394 . S
C187 C206 1.723 . S
C188 C185 1.396 . S
C188 C187 1.394 . S
C188 C218 1.723 . S
H189 C212 0.947 . S
H190 C213 0.948 . S
H191 C219 0.982 . S
H192 C220 0.979 . S
H193 C220 0.980 . S
H194 C220 0.983 . S
H195 C219 0.979 . S
H196 C219 0.977 . S
C197 C185 1.453 . S
C197 H226 0.982 . S
C197 H227 0.979 . S
C197 H228 0.977 . S
C198 C185 1.684 . S
C198 H223 0.979 . S
C198 H224 0.980 . S
C198 H225 0.983 . S
C199 C200 1.391 . S
C199 C204 1.391 . S
C199 H229 0.948 . S
C200 C199 1.391 . S
C200 C201 1.391 . S
C201 C200 1.391 . S
C201 C202 1.392 . S
C201 H230 0.947 . S
C202 C201 1.392 . S
C202 C203 1.419 . S
C202 H231 0.948 . S
C203 C202 1.419 . S
C203 C204 1.391 . S
C203 C207 1.397 . S
C204 C199 1.391 . S
C204 C203 1.391 . S
C204 C205 1.399 . S
C205 C204 1.399 . S
C205 C206 1.396 . S
C205 C208 1.453 . S
C205 C209 1.684 . S
C206 C187 1.723 . S
C206 C205 1.396 . S
C206 C207 1.394 . S
C207 C203 1.397 . S
C207 C206 1.394 . S
C207 C217 1.723 . S
C208 C205 1.453 . S
C208 H232 0.982 . S
C208 H233 0.979 . S
C208 H234 0.977 . S
C209 C205 1.684 . S
C209 H235 0.979 . S
C209 H236 0.980 . S
C209 H237 0.983 . S
C210 H186 0.948 . S
C210 C211 1.391 . S
C210 C215 1.391 . S
C211 C210 1.391 . S
C211 C212 1.391 . S
C212 H189 0.947 . S
C212 C211 1.391 . S
C212 C213 1.392 . S
C213 H190 0.948 . S
C213 C212 1.392 . S
C213 C214 1.419 . S
C214 C213 1.419 . S
C214 C215 1.391 . S
C214 C218 1.397 . S
C215 C210 1.391 . S
C215 C214 1.391 . S
C215 C216 1.399 . S
C216 C215 1.399 . S
C216 C217 1.396 . S
C216 C219 1.453 . S
C216 C220 1.684 . S
C217 C207 1.723 . S
C217 C216 1.396 . S
C217 C218 1.394 . S
C218 C188 1.723 . S
C218 C214 1.397 . S
C218 C217 1.394 . S
C219 H191 0.982 . S
C219 H195 0.979 . S
C219 H196 0.977 . S
C219 C216 1.453 . S
C220 H192 0.979 . S
C220 H193 0.980 . S
C220 H194 0.983 . S
C220 C216 1.684 . S
H221 C239 0.948 . S
H222 C180 0.948 . S
H223 C198 0.979 . S
H224 C198 0.980 . S
H225 C198 0.983 . S
H226 C197 0.982 . S
H227 C197 0.979 . S
H228 C197 0.977 . S
H229 C199 0.948 . S
H230 C201 0.947 . S
H231 C202 0.948 . S
H232 C208 0.982 . S
H233 C208 0.979 . S
H234 C208 0.977 . S
H235 C209 0.979 . S
H236 C209 0.980 . S
H237 C209 0.983 . S
H238 C182 0.947 . S
C239 C182 1.392 . S
C239 C183 1.419 . S
C239 H221 0.948 . S
C240 C241 1.391 . S
C240 C244 1.391 . S
C240 H282 0.948 . S
C241 C240 1.391 . S
C241 C242 1.391 . S
C242 C241 1.391 . S
C242 H298 0.947 . S
C242 C299 1.392 . S
C243 C244 1.391 . S
C243 C247 1.397 . S
C243 C299 1.419 . S
C244 C240 1.391 . S
C244 C243 1.391 . S
C244 C245 1.399 . S
C245 C244 1.399 . S
C245 C248 1.396 . S
C245 C257 1.453 . S
C245 C258 1.684 . S
H246 C270 0.948 . S
C247 C243 1.397 . S
C247 C248 1.394 . S
C247 C266 1.723 . S
C248 C245 1.396 . S
C248 C247 1.394 . S
C248 C278 1.723 1_455 S
H249 C272 0.947 . S
H250 C273 0.948 . S
H251 C279 0.982 . S
H252 C280 0.979 . S
H253 C280 0.980 . S
H254 C280 0.983 . S
H255 C279 0.979 . S
H256 C279 0.977 . S
C257 C245 1.453 . S
C257 H286 0.982 . S
C257 H287 0.979 . S
C257 H288 0.977 1_455 S
C258 C245 1.684 . S
C258 H283 0.979 . S
C258 H284 0.980 . S
C258 H285 0.983 . S
C259 C260 1.391 . S
C259 C264 1.391 . S
C259 H289 0.948 . S
C260 C259 1.391 . S
C260 C261 1.391 1_455 S
C261 C260 1.391 1_655 S
C261 C262 1.392 . S
C261 H290 0.947 . S
C262 C261 1.392 . S
C262 C263 1.419 1_655 S
C262 H291 0.948 . S
C263 C262 1.419 1_455 S
C263 C264 1.391 . S
C263 C267 1.397 . S
C264 C259 1.391 . S
C264 C263 1.391 . S
C264 C265 1.399 . S
C265 C264 1.399 . S
C265 C266 1.396 . S
C265 C268 1.453 . S
C265 C269 1.684 . S
C266 C247 1.723 . S
C266 C265 1.396 . S
C266 C267 1.394 . S
C267 C263 1.397 . S
C267 C266 1.394 . S
C267 C277 1.723 1_455 S
C268 C265 1.453 . S
C268 H292 0.982 . S
C268 H293 0.979 . S
C268 H294 0.977 . S
C269 C265 1.684 . S
C269 H295 0.979 . S
C269 H296 0.980 . S
C269 H297 0.983 . S
C270 H246 0.948 . S
C270 C271 1.391 . S
C270 C275 1.391 . S
C271 C270 1.391 . S
C271 C272 1.391 . S
C272 H249 0.947 . S
C272 C271 1.391 . S
C272 C273 1.392 . S
C273 H250 0.948 . S
C273 C272 1.392 . S
C273 C274 1.419 . S
C274 C273 1.419 . S
C274 C275 1.391 . S
C274 C278 1.397 . S
C275 C270 1.391 . S
C275 C274 1.391 . S
C275 C276 1.399 . S
C276 C275 1.399 . S
C276 C277 1.396 . S
C276 C279 1.453 . S
C276 C280 1.684 . S
C277 C267 1.723 1_655 S
C277 C276 1.396 . S
C277 C278 1.394 . S
C278 C248 1.723 1_655 S
C278 C274 1.397 . S
C278 C277 1.394 . S
C279 H251 0.982 . S
C279 H255 0.979 . S
C279 H256 0.977 . S
C279 C276 1.453 . S
C280 H252 0.979 . S
C280 H253 0.980 . S
C280 H254 0.983 . S
C280 C276 1.684 . S
H281 C299 0.948 . S
H282 C240 0.948 . S
H283 C258 0.979 . S
H284 C258 0.980 . S
H285 C258 0.983 . S
H286 C257 0.982 . S
H287 C257 0.979 . S
H288 C257 0.977 1_655 S
H289 C259 0.948 . S
H290 C261 0.947 . S
H291 C262 0.948 . S
H292 C268 0.982 . S
H293 C268 0.979 . S
H294 C268 0.977 . S
H295 C269 0.979 . S
H296 C269 0.980 . S
H297 C269 0.983 . S
H298 C242 0.947 . S
C299 C242 1.392 . S
C299 C243 1.419 . S
C299 H281 0.948 . S
C300 C301 1.391 . S
C300 C304 1.391 . S
C300 H342 0.948 . S
C301 C300 1.391 . S
C301 C302 1.391 . S
C302 C301 1.391 . S
C302 H358 0.947 . S
C302 C359 1.392 . S
C303 C304 1.391 . S
C303 C307 1.397 . S
C303 C359 1.419 . S
C304 C300 1.391 . S
C304 C303 1.391 . S
C304 C305 1.399 . S
C305 C304 1.399 . S
C305 C308 1.396 . S
C305 C317 1.453 1_655 S
C305 C318 1.684 . S
H306 C330 0.948 . S
C307 C303 1.397 . S
C307 C308 1.394 . S
C307 C326 1.723 . S
C308 C305 1.396 . S
C308 C307 1.394 . S
C308 C338 1.723 1_655 S
H309 C332 0.947 . S
H310 C333 0.948 . S
H311 C339 0.982 . S
H312 C340 0.979 . S
H313 C340 0.980 . S
H314 C340 0.983 . S
H315 C339 0.979 . S
H316 C339 0.977 . S
C317 C305 1.453 1_455 S
C317 H346 0.982 . S
C317 H347 0.979 1_455 S
C317 H348 0.977 . S
C318 C305 1.684 . S
C318 H343 0.979 . S
C318 H344 0.980 . S
C318 H345 0.983 . S
C319 C320 1.403 . S
C319 C324 1.391 . S
C319 H349 0.948 . S
C320 C319 1.403 . S
C320 C321 1.379 1_655 S
C321 C320 1.379 1_455 S
C321 C322 1.392 . S
C321 H350 0.947 . S
C322 C321 1.392 . S
C322 C323 1.419 . S
C322 H351 0.948 . S
C323 C322 1.419 . S
C323 C324 1.391 1_455 S
C323 C327 1.397 . S
C324 C319 1.391 . S
C324 C323 1.391 1_655 S
C324 C325 1.399 . S
C325 C324 1.399 . S
C325 C326 1.396 . S
C325 C328 1.453 . S
C325 C329 1.684 . S
C326 C307 1.723 . S
C326 C325 1.396 . S
C326 C327 1.394 1_655 S
C327 C323 1.397 . S
C327 C326 1.394 1_455 S
C327 C337 1.723 . S
C328 C325 1.453 . S
C328 H352 0.982 . S
C328 H353 0.979 . S
C328 H354 0.977 . S
C329 C325 1.684 . S
C329 H355 0.979 . S
C329 H356 0.980 . S
C329 H357 0.983 . S
C330 H306 0.948 . S
C330 C331 1.391 . S
C330 C335 1.391 . S
C331 C330 1.391 . S
C331 C332 1.391 . S
C332 H309 0.947 . S
C332 C331 1.391 . S
C332 C333 1.392 . S
C333 H310 0.948 . S
C333 C332 1.392 . S
C333 C334 1.419 . S
C334 C333 1.419 . S
C334 C335 1.391 . S
C334 C338 1.397 . S
C335 C330 1.391 . S
C335 C334 1.391 . S
C335 C336 1.399 . S
C336 C335 1.399 . S
C336 C337 1.396 . S
C336 C339 1.453 . S
C336 C340 1.684 . S
C337 C327 1.723 . S
C337 C336 1.396 . S
C337 C338 1.394 . S
C338 C308 1.723 1_455 S
C338 C334 1.397 . S
C338 C337 1.394 . S
C339 H311 0.982 . S
C339 H315 0.979 . S
C339 H316 0.977 . S
C339 C336 1.453 . S
C340 H312 0.979 . S
C340 H313 0.980 . S
C340 H314 0.983 . S
C340 C336 1.684 . S
H341 C359 0.948 . S
H342 C300 0.948 . S
H343 C318 0.979 . S
H344 C318 0.980 . S
H345 C318 0.983 . S
H346 C317 0.982 . S
H347 C317 0.979 1_655 S
H348 C317 0.977 . S
H349 C319 0.948 . S
H350 C321 0.947 . S
H351 C322 0.948 . S
H352 C328 0.982 . S
H353 C328 0.979 . S
H354 C328 0.977 . S
H355 C329 0.979 . S
H356 C329 0.980 . S
H357 C329 0.983 . S
H358 C302 0.947 . S
C359 C302 1.392 . S
C359 C303 1.419 . S
C359 H341 0.948 . S
C360 C361 1.391 . S
C360 C364 1.391 . S
C360 H402 0.948 . S
C361 C360 1.391 . S
C361 C362 1.391 . S
C362 C361 1.391 . S
C362 H418 0.947 . S
C362 C419 1.392 . S
C363 C364 1.391 . S
C363 C367 1.397 . S
C363 C419 1.419 . S
C364 C360 1.391 . S
C364 C363 1.391 . S
C364 C365 1.399 . S
C365 C364 1.399 . S
C365 C368 1.396 . S
C365 C377 1.464 . S
C365 C378 1.684 . S
H366 C390 0.948 . S
C367 C363 1.397 . S
C367 C368 1.394 . S
C367 C386 1.723 . S
C368 C365 1.396 . S
C368 C367 1.394 . S
C368 C398 1.723 1_565 S
H369 C392 0.947 . S
H370 C393 0.948 . S
H371 C399 0.982 . S
H372 C400 0.979 . S
H373 C400 0.980 . S
H374 C400 0.983 . S
H375 C399 0.979 . S
H376 C399 0.977 . S
C377 C365 1.464 . S
C377 H406 0.990 1_565 S
C377 H407 0.997 . S
C377 H408 0.942 1_565 S
C378 C365 1.684 . S
C378 H403 0.979 . S
C378 H404 0.980 1_565 S
C378 H405 0.983 . S
C379 C380 1.391 1_565 S
C379 C384 1.391 . S
C379 H409 0.948 . S
C380 C379 1.391 1_545 S
C380 C381 1.391 . S
C381 C380 1.391 . S
C381 C382 1.392 . S
C381 H410 0.947 . S
C382 C381 1.392 . S
C382 C383 1.419 . S
C382 H411 0.948 . S
C383 C382 1.419 . S
C383 C384 1.391 1_545 S
C383 C387 1.397 . S
C384 C379 1.391 . S
C384 C383 1.391 1_565 S
C384 C385 1.399 . S
C385 C384 1.399 . S
C385 C386 1.396 . S
C385 C388 1.453 . S
C385 C389 1.684 . S
C386 C367 1.723 . S
C386 C385 1.396 . S
C386 C387 1.394 1_565 S
C387 C383 1.397 . S
C387 C386 1.394 1_545 S
C387 C397 1.723 . S
C388 C385 1.453 . S
C388 H412 0.982 . S
C388 H413 0.979 . S
C388 H414 0.977 . S
C389 C385 1.684 . S
C389 H415 0.979 . S
C389 H416 0.980 . S
C389 H417 0.983 . S
C390 H366 0.948 . S
C390 C391 1.391 . S
C390 C395 1.391 . S
C391 C390 1.391 . S
C391 C392 1.391 . S
C392 H369 0.947 . S
C392 C391 1.391 . S
C392 C393 1.392 . S
C393 H370 0.948 . S
C393 C392 1.392 . S
C393 C394 1.419 . S
C394 C393 1.419 . S
C394 C395 1.391 . S
C394 C398 1.397 . S
C395 C390 1.391 . S
C395 C394 1.391 . S
C395 C396 1.399 . S
C396 C395 1.399 . S
C396 C397 1.396 . S
C396 C399 1.453 . S
C396 C400 1.684 . S
C397 C387 1.723 . S
C397 C396 1.396 . S
C397 C398 1.394 . S
C398 C368 1.723 1_545 S
C398 C394 1.397 . S
C398 C397 1.394 . S
C399 H371 0.982 . S
C399 H375 0.979 . S
C399 H376 0.977 . S
C399 C396 1.453 . S
C400 H372 0.979 . S
C400 H373 0.980 . S
C400 H374 0.983 . S
C400 C396 1.684 . S
H401 C419 0.948 . S
H402 C360 0.948 . S
H403 C378 0.979 . S
H404 C378 0.980 1_545 S
H405 C378 0.983 . S
H406 C377 0.990 1_545 S
H407 C377 0.997 . S
H408 C377 0.942 1_545 S
H409 C379 0.948 . S
H410 C381 0.947 . S
H411 C382 0.948 . S
H412 C388 0.982 . S
H413 C388 0.979 . S
H414 C388 0.977 . S
H415 C389 0.979 . S
H416 C389 0.980 . S
H417 C389 0.983 . S
H418 C362 0.947 . S
C419 C362 1.392 . S
C419 C363 1.419 . S
C419 H401 0.948 . S
C420 C421 1.391 . S
C420 C424 1.391 . S
C420 H462 0.948 . S
C421 C420 1.391 . S
C421 C422 1.391 . S
C422 C421 1.391 . S
C422 H478 0.947 . S
C422 C479 1.392 . S
C423 C424 1.391 . S
C423 C427 1.397 . S
C423 C479 1.419 . S
C424 C420 1.391 . S
C424 C423 1.391 . S
C424 C425 1.399 . S
C425 C424 1.399 . S
C425 C428 1.396 . S
C425 C437 1.453 . S
C425 C438 1.684 . S
H426 C450 0.948 . S
C427 C423 1.397 . S
C427 C428 1.394 . S
C427 C446 1.723 . S
C428 C425 1.396 . S
C428 C427 1.394 . S
C428 C458 1.723 . S
H429 C452 0.947 . S
H430 C453 0.948 . S
H431 C459 0.982 . S
H432 C460 0.979 . S
H433 C460 0.980 . S
H434 C460 0.983 . S
H435 C459 0.979 . S
H436 C459 0.977 . S
C437 C425 1.453 . S
C437 H466 0.982 . S
C437 H467 0.979 . S
C437 H468 0.977 . S
C438 C425 1.684 . S
C438 H463 0.979 . S
C438 H464 0.980 . S
C438 H465 0.983 . S
C439 C440 1.391 . S
C439 C444 1.391 . S
C439 H469 0.948 . S
C440 C439 1.391 . S
C440 C441 1.391 . S
C441 C440 1.391 . S
C441 C442 1.392 . S
C441 H470 0.947 . S
C442 C441 1.392 . S
C442 C443 1.419 . S
C442 H471 0.948 . S
C443 C442 1.419 . S
C443 C444 1.391 . S
C443 C447 1.397 . S
C444 C439 1.391 . S
C444 C443 1.391 . S
C444 C445 1.399 . S
C445 C444 1.399 . S
C445 C446 1.396 . S
C445 C448 1.453 . S
C445 C449 1.684 . S
C446 C427 1.723 . S
C446 C445 1.396 . S
C446 C447 1.394 . S
C447 C443 1.397 . S
C447 C446 1.394 . S
C447 C457 1.723 . S
C448 C445 1.453 . S
C448 H472 0.982 . S
C448 H473 0.979 . S
C448 H474 0.977 . S
C449 C445 1.684 . S
C449 H475 0.979 . S
C449 H476 0.980 . S
C449 H477 0.983 . S
C450 H426 0.948 . S
C450 C451 1.391 . S
C450 C455 1.391 . S
C451 C450 1.391 . S
C451 C452 1.391 . S
C452 H429 0.947 . S
C452 C451 1.391 . S
C452 C453 1.392 . S
C453 H430 0.948 . S
C453 C452 1.392 . S
C453 C454 1.419 . S
C454 C453 1.419 . S
C454 C455 1.391 . S
C454 C458 1.397 . S
C455 C450 1.391 . S
C455 C454 1.391 . S
C455 C456 1.399 . S
C456 C455 1.399 . S
C456 C457 1.396 . S
C456 C459 1.453 . S
C456 C460 1.684 . S
C457 C447 1.723 . S
C457 C456 1.396 . S
C457 C458 1.394 . S
C458 C428 1.723 . S
C458 C454 1.397 . S
C458 C457 1.394 . S
C459 H431 0.982 . S
C459 H435 0.979 . S
C459 H436 0.977 . S
C459 C456 1.453 . S
C460 H432 0.979 . S
C460 H433 0.980 . S
C460 H434 0.983 . S
C460 C456 1.684 . S
H461 C479 0.948 . S
H462 C420 0.948 . S
H463 C438 0.979 . S
H464 C438 0.980 . S
H465 C438 0.983 . S
H466 C437 0.982 . S
H467 C437 0.979 . S
H468 C437 0.977 . S
H469 C439 0.948 . S
H470 C441 0.947 . S
H471 C442 0.948 . S
H472 C448 0.982 . S
H473 C448 0.979 . S
H474 C448 0.977 . S
H475 C449 0.979 . S
H476 C449 0.980 . S
H477 C449 0.983 . S
H478 C422 0.947 . S
C479 C422 1.392 . S
C479 C423 1.419 . S
C479 H461 0.948 . S
C480 C481 1.349 . S
C480 C482 1.327 . S
C480 H505 0.950 . S
C481 C480 1.349 . S
C481 C497 1.349 . S
C482 C480 1.327 . S
C482 C501 1.429 . S
C482 H506 0.950 . S
C483 C500 1.574 . S
C483 C502 1.368 . S
C483 H507 0.949 . S
H484 C488 0.949 . S
C485 C486 1.349 . S
C485 C487 1.327 . S
C485 H508 0.950 . S
C486 C485 1.349 . S
C486 C498 1.349 . S
C487 C485 1.327 . S
C487 C503 1.429 . S
C487 H509 0.950 . S
C488 H484 0.949 . S
C488 C496 1.574 . S
C488 C504 1.368 . S
H489 C497 0.950 . S
H490 C495 0.950 . S
H491 C496 0.949 . S
H492 C498 0.950 . S
H493 C499 0.950 . S
H494 C500 0.949 . S
C495 H490 0.950 . S
C495 C497 1.327 . S
C495 C501 1.429 . S
C496 C488 1.574 . S
C496 H491 0.949 . S
C496 C502 1.368 . S
C497 C481 1.349 . S
C497 H489 0.950 . S
C497 C495 1.327 . S
C498 C486 1.349 . S
C498 H492 0.950 . S
C498 C499 1.327 . S
C499 H493 0.950 . S
C499 C498 1.327 . S
C499 C503 1.429 . S
C500 C483 1.574 . S
C500 H494 0.949 . S
C500 C504 1.368 . S
C501 C482 1.429 . S
C501 C495 1.429 . S
C501 C502 1.523 . S
C502 C483 1.368 . S
C502 C496 1.368 . S
C502 C501 1.523 . S
C503 C487 1.429 . S
C503 C499 1.429 . S
C503 C504 1.523 . S
C504 C488 1.368 . S
C504 C500 1.368 . S
C504 C503 1.523 . S
H505 C480 0.950 . S
H506 C482 0.950 . S
H507 C483 0.949 . S
H508 C485 0.950 . S
H509 C487 0.950 . S
C510 C511 1.349 . S
C510 C512 1.327 . S
C510 H535 0.950 . S
C511 C510 1.349 . S
C511 C527 1.349 . S
C512 C510 1.327 . S
C512 C531 1.429 . S
C512 H536 0.950 . S
C513 C530 1.574 . S
C513 C532 1.368 . S
C513 H537 0.949 . S
H514 C518 0.949 . S
C515 C516 1.349 . S
C515 C517 1.327 . S
C515 H538 0.950 . S
C516 C515 1.349 . S
C516 C528 1.349 . S
C517 C515 1.327 . S
C517 C533 1.429 . S
C517 H539 0.950 . S
C518 H514 0.949 . S
C518 C526 1.574 . S
C518 C534 1.368 . S
H519 C527 0.950 . S
H520 C525 0.950 . S
H521 C526 0.949 . S
H522 C528 0.950 . S
H523 C529 0.950 . S
H524 C530 0.949 . S
C525 H520 0.950 . S
C525 C527 1.327 . S
C525 C531 1.429 . S
C526 C518 1.574 . S
C526 H521 0.949 . S
C526 C532 1.368 . S
C527 C511 1.349 . S
C527 H519 0.950 . S
C527 C525 1.327 . S
C528 C516 1.349 . S
C528 H522 0.950 . S
C528 C529 1.327 . S
C529 H523 0.950 . S
C529 C528 1.327 . S
C529 C533 1.429 . S
C530 C513 1.574 . S
C530 H524 0.949 . S
C530 C534 1.368 . S
C531 C512 1.429 . S
C531 C525 1.429 . S
C531 C532 1.523 . S
C532 C513 1.368 . S
C532 C526 1.368 . S
C532 C531 1.523 . S
C533 C517 1.429 . S
C533 C529 1.429 . S
C533 C534 1.523 . S
C534 C518 1.368 . S
C534 C530 1.368 . S
C534 C533 1.523 . S
H535 C510 0.950 . S
H536 C512 0.950 . S
H537 C513 0.949 . S
H538 C515 0.950 . S
H539 C517 0.950 . S
C540 C541 1.349 . S
C540 C542 1.327 . S
C540 H565 0.950 . S
C541 C540 1.349 . S
C541 C557 1.349 . S
C542 C540 1.327 . S
C542 C561 1.429 . S
C542 H566 0.950 . S
C543 C560 1.574 . S
C543 C562 1.368 . S
C543 H567 0.949 . S
H544 C548 0.949 . S
C545 C546 1.349 . S
C545 C547 1.327 . S
C545 H568 0.950 . S
C546 C545 1.349 . S
C546 C558 1.349 . S
C547 C545 1.327 . S
C547 C563 1.429 . S
C547 H569 0.950 . S
C548 H544 0.949 . S
C548 C556 1.574 . S
C548 C564 1.368 . S
H549 C557 0.950 . S
H550 C555 0.950 . S
H551 C556 0.949 . S
H552 C558 0.950 . S
H553 C559 0.950 . S
H554 C560 0.949 . S
C555 H550 0.950 . S
C555 C557 1.327 . S
C555 C561 1.429 . S
C556 C548 1.574 . S
C556 H551 0.949 . S
C556 C562 1.368 . S
C557 C541 1.349 . S
C557 H549 0.950 . S
C557 C555 1.327 . S
C558 C546 1.349 . S
C558 H552 0.950 . S
C558 C559 1.327 . S
C559 H553 0.950 . S
C559 C558 1.327 . S
C559 C563 1.429 . S
C560 C543 1.574 . S
C560 H554 0.949 . S
C560 C564 1.368 . S
C561 C542 1.429 . S
C561 C555 1.429 . S
C561 C562 1.523 . S
C562 C543 1.368 . S
C562 C556 1.368 . S
C562 C561 1.523 . S
C563 C547 1.429 . S
C563 C559 1.429 . S
C563 C564 1.523 . S
C564 C548 1.368 . S
C564 C560 1.368 . S
C564 C563 1.523 . S
H565 C540 0.950 . S
H566 C542 0.950 . S
H567 C543 0.949 . S
H568 C545 0.950 . S
H569 C547 0.950 . S
C570 C571 1.349 . S
C570 C572 1.327 . S
C570 H595 0.950 . S
C571 C570 1.349 . S
C571 C587 1.349 . S
C572 C570 1.327 . S
C572 C591 1.429 . S
C572 H596 0.950 . S
C573 C590 1.574 . S
C573 C592 1.368 . S
C573 H597 0.949 . S
H574 C578 0.949 . S
C575 C576 1.349 . S
C575 C577 1.327 . S
C575 H598 0.950 . S
C576 C575 1.349 . S
C576 C588 1.349 . S
C577 C575 1.327 . S
C577 C593 1.429 . S
C577 H599 0.950 . S
C578 H574 0.949 . S
C578 C586 1.574 . S
C578 C594 1.368 . S
H579 C587 0.950 . S
H580 C585 0.950 . S
H581 C586 0.949 . S
H582 C588 0.950 . S
H583 C589 0.950 . S
H584 C590 0.949 . S
C585 H580 0.950 . S
C585 C587 1.327 . S
C585 C591 1.429 . S
C586 C578 1.574 . S
C586 H581 0.949 . S
C586 C592 1.368 . S
C587 C571 1.349 . S
C587 H579 0.950 . S
C587 C585 1.327 . S
C588 C576 1.349 . S
C588 H582 0.950 . S
C588 C589 1.327 . S
C589 H583 0.950 . S
C589 C588 1.327 . S
C589 C593 1.429 . S
C590 C573 1.574 . S
C590 H584 0.949 . S
C590 C594 1.368 . S
C591 C572 1.429 . S
C591 C585 1.429 . S
C591 C592 1.523 . S
C592 C573 1.368 . S
C592 C586 1.368 . S
C592 C591 1.523 . S
C593 C577 1.429 . S
C593 C589 1.429 . S
C593 C594 1.523 . S
C594 C578 1.368 . S
C594 C590 1.368 . S
C594 C593 1.523 . S
H595 C570 0.950 . S
H596 C572 0.950 . S
H597 C573 0.949 . S
H598 C575 0.950 . S
H599 C577 0.950 . S
C600 C601 1.349 . S
C600 C602 1.327 . S
C600 H625 0.950 . S
C601 C600 1.349 . S
C601 C617 1.349 . S
C602 C600 1.327 . S
C602 C621 1.429 . S
C602 H626 0.950 . S
C603 C620 1.574 . S
C603 C622 1.368 . S
C603 H627 0.949 . S
H604 C608 0.949 . S
C605 C606 1.349 . S
C605 C607 1.327 . S
C605 H628 0.950 . S
C606 C605 1.349 . S
C606 C618 1.349 . S
C607 C605 1.327 . S
C607 C623 1.429 . S
C607 H629 0.950 . S
C608 H604 0.949 . S
C608 C616 1.574 . S
C608 C624 1.368 . S
H609 C617 0.950 . S
H610 C615 0.950 . S
H611 C616 0.949 . S
H612 C618 0.950 . S
H613 C619 0.950 . S
H614 C620 0.949 . S
C615 H610 0.950 . S
C615 C617 1.327 . S
C615 C621 1.429 . S
C616 C608 1.574 . S
C616 H611 0.949 . S
C616 C622 1.368 . S
C617 C601 1.349 . S
C617 H609 0.950 . S
C617 C615 1.327 . S
C618 C606 1.349 . S
C618 H612 0.950 . S
C618 C619 1.327 . S
C619 H613 0.950 . S
C619 C618 1.327 . S
C619 C623 1.429 . S
C620 C603 1.574 . S
C620 H614 0.949 . S
C620 C624 1.368 . S
C621 C602 1.429 . S
C621 C615 1.429 . S
C621 C622 1.523 . S
C622 C603 1.368 . S
C622 C616 1.368 . S
C622 C621 1.523 . S
C623 C607 1.429 . S
C623 C619 1.429 . S
C623 C624 1.523 . S
C624 C608 1.368 . S
C624 C620 1.368 . S
C624 C623 1.523 . S
H625 C600 0.950 . S
H626 C602 0.950 . S
H627 C603 0.949 . S
H628 C605 0.950 . S
H629 C607 0.950 . S
C630 C631 1.349 . S
C630 C632 1.327 . S
C630 H655 0.950 . S
C631 C630 1.349 . S
C631 C647 1.349 . S
C632 C630 1.327 . S
C632 C651 1.429 . S
C632 H656 0.950 . S
C633 C650 1.574 . S
C633 C652 1.368 . S
C633 H657 0.949 . S
H634 C638 0.949 . S
C635 C636 1.349 . S
C635 C637 1.327 . S
C635 H658 0.950 . S
C636 C635 1.349 . S
C636 C648 1.349 . S
C637 C635 1.327 . S
C637 C653 1.429 . S
C637 H659 0.950 . S
C638 H634 0.949 . S
C638 C646 1.574 . S
C638 C654 1.368 . S
H639 C647 0.950 . S
H640 C645 0.950 . S
H641 C646 0.949 . S
H642 C648 0.950 . S
H643 C649 0.950 . S
H644 C650 0.949 . S
C645 H640 0.950 . S
C645 C647 1.327 . S
C645 C651 1.429 . S
C646 C638 1.574 . S
C646 H641 0.949 . S
C646 C652 1.368 . S
C647 C631 1.349 . S
C647 H639 0.950 . S
C647 C645 1.327 . S
C648 C636 1.349 . S
C648 H642 0.950 . S
C648 C649 1.327 . S
C649 H643 0.950 . S
C649 C648 1.327 . S
C649 C653 1.429 . S
C650 C633 1.574 . S
C650 H644 0.949 . S
C650 C654 1.368 . S
C651 C632 1.429 . S
C651 C645 1.429 . S
C651 C652 1.523 . S
C652 C633 1.368 . S
C652 C646 1.368 . S
C652 C651 1.523 . S
C653 C637 1.429 . S
C653 C649 1.429 . S
C653 C654 1.523 . S
C654 C638 1.368 . S
C654 C650 1.368 . S
C654 C653 1.523 . S
H655 C630 0.950 . S
H656 C632 0.950 . S
H657 C633 0.949 . S
H658 C635 0.950 . S
H659 C637 0.950 . S
C660 C661 1.349 . S
C660 C662 1.327 . S
C660 H685 0.950 . S
C661 C660 1.349 . S
C661 C677 1.349 . S
C662 C660 1.327 . S
C662 C681 1.429 . S
C662 H686 0.950 . S
C663 C680 1.574 . S
C663 C682 1.368 . S
C663 H687 0.949 . S
H664 C668 0.949 . S
C665 C666 1.349 . S
C665 C667 1.327 . S
C665 H688 0.950 . S
C666 C665 1.349 . S
C666 C678 1.349 . S
C667 C665 1.327 . S
C667 C683 1.429 . S
C667 H689 0.950 . S
C668 H664 0.949 . S
C668 C676 1.574 . S
C668 C684 1.368 . S
H669 C677 0.950 . S
H670 C675 0.950 . S
H671 C676 0.949 . S
H672 C678 0.950 . S
H673 C679 0.950 . S
H674 C680 0.949 . S
C675 H670 0.950 . S
C675 C677 1.327 . S
C675 C681 1.429 . S
C676 C668 1.574 . S
C676 H671 0.949 . S
C676 C682 1.368 . S
C677 C661 1.349 . S
C677 H669 0.950 . S
C677 C675 1.327 . S
C678 C666 1.349 . S
C678 H672 0.950 . S
C678 C679 1.327 . S
C679 H673 0.950 . S
C679 C678 1.327 . S
C679 C683 1.429 . S
C680 C663 1.574 . S
C680 H674 0.949 . S
C680 C684 1.368 . S
C681 C662 1.429 . S
C681 C675 1.429 . S
C681 C682 1.523 . S
C682 C663 1.368 . S
C682 C676 1.368 . S
C682 C681 1.523 . S
C683 C667 1.429 . S
C683 C679 1.429 . S
C683 C684 1.523 . S
C684 C668 1.368 . S
C684 C680 1.368 . S
C684 C683 1.523 . S
H685 C660 0.950 . S
H686 C662 0.950 . S
H687 C663 0.949 . S
H688 C665 0.950 . S
H689 C667 0.950 . S
C690 C691 1.349 . S
C690 C692 1.327 . S
C690 H715 0.950 . S
C691 C690 1.349 . S
C691 C707 1.349 . S
C692 C690 1.327 . S
C692 C711 1.429 . S
C692 H716 0.950 . S
C693 C710 1.574 . S
C693 C712 1.368 . S
C693 H717 0.949 . S
H694 C698 0.949 . S
C695 C696 1.349 . S
C695 C697 1.327 . S
C695 H718 0.950 . S
C696 C695 1.349 . S
C696 C708 1.349 . S
C697 C695 1.327 . S
C697 C713 1.429 . S
C697 H719 0.950 . S
C698 H694 0.949 . S
C698 C706 1.574 . S
C698 C714 1.368 . S
H699 C707 0.950 . S
H700 C705 0.950 . S
H701 C706 0.949 . S
H702 C708 0.950 . S
H703 C709 0.950 . S
H704 C710 0.949 . S
C705 H700 0.950 . S
C705 C707 1.327 . S
C705 C711 1.429 . S
C706 C698 1.574 . S
C706 H701 0.949 . S
C706 C712 1.368 . S
C707 C691 1.349 . S
C707 H699 0.950 . S
C707 C705 1.327 . S
C708 C696 1.349 . S
C708 H702 0.950 . S
C708 C709 1.327 . S
C709 H703 0.950 . S
C709 C708 1.327 . S
C709 C713 1.429 . S
C710 C693 1.574 . S
C710 H704 0.949 . S
C710 C714 1.368 . S
C711 C692 1.429 . S
C711 C705 1.429 . S
C711 C712 1.523 . S
C712 C693 1.368 . S
C712 C706 1.368 . S
C712 C711 1.523 . S
C713 C697 1.429 . S
C713 C709 1.429 . S
C713 C714 1.523 . S
C714 C698 1.368 . S
C714 C710 1.368 . S
C714 C713 1.523 . S
H715 C690 0.950 . S
H716 C692 0.950 . S
H717 C693 0.949 . S
H718 C695 0.950 . S
H719 C697 0.950 . S
C720 C721 1.349 . S
C720 C722 1.327 . S
C720 H745 0.950 . S
C721 C720 1.349 . S
C721 C737 1.349 . S
C722 C720 1.327 . S
C722 C741 1.429 . S
C722 H746 0.950 . S
C723 C740 1.574 . S
C723 C742 1.368 . S
C723 H747 0.949 . S
H724 C728 0.949 . S
C725 C726 1.349 . S
C725 C727 1.327 . S
C725 H748 0.950 . S
C726 C725 1.349 . S
C726 C738 1.349 . S
C727 C725 1.327 . S
C727 C743 1.429 . S
C727 H749 0.950 . S
C728 H724 0.949 . S
C728 C736 1.574 . S
C728 C744 1.368 . S
H729 C737 0.950 . S
H730 C735 0.950 . S
H731 C736 0.949 . S
H732 C738 0.950 . S
H733 C739 0.950 . S
H734 C740 0.949 . S
C735 H730 0.950 . S
C735 C737 1.327 . S
C735 C741 1.429 . S
C736 C728 1.574 . S
C736 H731 0.949 . S
C736 C742 1.368 . S
C737 C721 1.349 . S
C737 H729 0.950 . S
C737 C735 1.327 . S
C738 C726 1.349 . S
C738 H732 0.950 . S
C738 C739 1.327 . S
C739 H733 0.950 . S
C739 C738 1.327 . S
C739 C743 1.429 . S
C740 C723 1.574 . S
C740 H734 0.949 . S
C740 C744 1.368 . S
C741 C722 1.429 . S
C741 C735 1.429 . S
C741 C742 1.523 . S
C742 C723 1.368 . S
C742 C736 1.368 . S
C742 C741 1.523 . S
C743 C727 1.429 . S
C743 C739 1.429 . S
C743 C744 1.523 . S
C744 C728 1.368 . S
C744 C740 1.368 . S
C744 C743 1.523 . S
H745 C720 0.950 . S
H746 C722 0.950 . S
H747 C723 0.949 . S
H748 C725 0.950 . S
H749 C727 0.950 . S
C750 C751 1.349 . S
C750 C752 1.327 . S
C750 H775 0.950 . S
C751 C750 1.349 . S
C751 C767 1.349 . S
C752 C750 1.327 . S
C752 C771 1.429 . S
C752 H776 0.950 . S
C753 C770 1.574 . S
C753 C772 1.368 . S
C753 H777 0.949 . S
H754 C758 0.949 . S
C755 C756 1.349 . S
C755 C757 1.327 . S
C755 H778 0.950 . S
C756 C755 1.349 . S
C756 C768 1.349 . S
C757 C755 1.327 . S
C757 C773 1.429 . S
C757 H779 0.950 . S
C758 H754 0.949 . S
C758 C766 1.574 . S
C758 C774 1.368 . S
H759 C767 0.950 . S
H760 C765 0.950 . S
H761 C766 0.949 . S
H762 C768 0.950 . S
H763 C769 0.950 . S
H764 C770 0.949 . S
C765 H760 0.950 . S
C765 C767 1.327 . S
C765 C771 1.429 . S
C766 C758 1.574 . S
C766 H761 0.949 . S
C766 C772 1.368 . S
C767 C751 1.349 . S
C767 H759 0.950 . S
C767 C765 1.327 . S
C768 C756 1.349 . S
C768 H762 0.950 . S
C768 C769 1.327 . S
C769 H763 0.950 . S
C769 C768 1.327 . S
C769 C773 1.429 . S
C770 C753 1.574 . S
C770 H764 0.949 . S
C770 C774 1.368 . S
C771 C752 1.429 . S
C771 C765 1.429 . S
C771 C772 1.523 . S
C772 C753 1.368 . S
C772 C766 1.368 . S
C772 C771 1.523 . S
C773 C757 1.429 . S
C773 C769 1.429 . S
C773 C774 1.523 . S
C774 C758 1.368 . S
C774 C770 1.368 . S
C774 C773 1.523 . S
H775 C750 0.950 . S
H776 C752 0.950 . S
H777 C753 0.949 . S
H778 C755 0.950 . S
H779 C757 0.950 . S
C780 C781 1.349 . S
C780 C782 1.327 . S
C780 H805 0.950 . S
C781 C780 1.349 . S
C781 C797 1.349 . S
C782 C780 1.327 . S
C782 C801 1.429 . S
C782 H806 0.950 . S
C783 C800 1.574 . S
C783 C802 1.368 . S
C783 H807 0.949 . S
H784 C788 0.949 . S
C785 C786 1.349 . S
C785 C787 1.327 . S
C785 H808 0.950 . S
C786 C785 1.349 . S
C786 C798 1.349 . S
C787 C785 1.327 . S
C787 C803 1.429 . S
C787 H809 0.950 . S
C788 H784 0.949 . S
C788 C796 1.574 . S
C788 C804 1.368 . S
H789 C797 0.950 . S
H790 C795 0.950 . S
H791 C796 0.949 . S
H792 C798 0.950 . S
H793 C799 0.950 . S
H794 C800 0.949 . S
C795 H790 0.950 . S
C795 C797 1.327 . S
C795 C801 1.429 . S
C796 C788 1.574 . S
C796 H791 0.949 . S
C796 C802 1.368 . S
C797 C781 1.349 . S
C797 H789 0.950 . S
C797 C795 1.327 . S
C798 C786 1.349 . S
C798 H792 0.950 . S
C798 C799 1.327 . S
C799 H793 0.950 . S
C799 C798 1.327 . S
C799 C803 1.429 . S
C800 C783 1.574 . S
C800 H794 0.949 . S
C800 C804 1.368 . S
C801 C782 1.429 . S
C801 C795 1.429 . S
C801 C802 1.523 . S
C802 C783 1.368 . S
C802 C796 1.368 . S
C802 C801 1.523 . S
C803 C787 1.429 . S
C803 C799 1.429 . S
C803 C804 1.523 . S
C804 C788 1.368 . S
C804 C800 1.368 . S
C804 C803 1.523 . S
H805 C780 0.950 . S
H806 C782 0.950 . S
H807 C783 0.949 . S
H808 C785 0.950 . S
H809 C787 0.950 . S
C810 C811 1.349 . S
C810 C812 1.327 . S
C810 H835 0.950 . S
C811 C810 1.349 . S
C811 C827 1.349 . S
C812 C810 1.327 . S
C812 C831 1.429 . S
C812 H836 0.950 . S
C813 C830 1.574 . S
C813 C832 1.368 . S
C813 H837 0.949 . S
H814 C818 0.949 . S
C815 C816 1.349 . S
C815 C817 1.327 . S
C815 H838 0.950 . S
C816 C815 1.349 . S
C816 C828 1.349 . S
C817 C815 1.327 . S
C817 C833 1.429 . S
C817 H839 0.950 . S
C818 H814 0.949 . S
C818 C826 1.574 . S
C818 C834 1.368 . S
H819 C827 0.950 . S
H820 C825 0.950 . S
H821 C826 0.949 . S
H822 C828 0.950 . S
H823 C829 0.950 . S
H824 C830 0.949 . S
C825 H820 0.950 . S
C825 C827 1.327 . S
C825 C831 1.429 . S
C826 C818 1.574 . S
C826 H821 0.949 . S
C826 C832 1.368 . S
C827 C811 1.349 . S
C827 H819 0.950 . S
C827 C825 1.327 . S
C828 C816 1.349 . S
C828 H822 0.950 . S
C828 C829 1.327 . S
C829 H823 0.950 . S
C829 C828 1.327 . S
C829 C833 1.429 . S
C830 C813 1.574 . S
C830 H824 0.949 . S
C830 C834 1.368 . S
C831 C812 1.429 . S
C831 C825 1.429 . S
C831 C832 1.523 . S
C832 C813 1.368 . S
C832 C826 1.368 . S
C832 C831 1.523 . S
C833 C817 1.429 . S
C833 C829 1.429 . S
C833 C834 1.523 . S
C834 C818 1.368 . S
C834 C830 1.368 . S
C834 C833 1.523 . S
H835 C810 0.950 . S
H836 C812 0.950 . S
H837 C813 0.949 . S
H838 C815 0.950 . S
H839 C817 0.950 . S
C840 C841 1.349 1_655 S
C840 C842 1.327 . S
C840 H865 0.950 . S
C841 C840 1.349 1_455 S
C841 C857 1.349 . S
C842 C840 1.327 . S
C842 C861 1.429 1_655 S
C842 H866 0.950 . S
C843 C860 1.574 . S
C843 C862 1.368 . S
C843 H867 0.949 . S
H844 C848 0.949 . S
C845 C846 1.349 . S
C845 C847 1.283 1_556 S
C845 H868 0.950 . S
C846 C845 1.349 . S
C846 C858 1.349 1_455 S
C847 C845 1.283 1_554 S
C847 C863 1.452 . S
C847 H869 0.972 . S
C848 H844 0.949 . S
C848 C856 1.574 . S
C848 C864 1.368 1_655 S
H849 C857 0.950 . S
H850 C855 0.950 . S
H851 C856 0.949 . S
H852 C858 0.950 . S
H853 C859 0.950 1_554 S
H854 C860 0.949 . S
C855 H850 0.950 . S
C855 C857 1.327 . S
C855 C861 1.429 . S
C856 C848 1.574 . S
C856 H851 0.949 . S
C856 C862 1.368 1_655 S
C857 C841 1.349 . S
C857 H849 0.950 . S
C857 C855 1.327 . S
C858 C846 1.349 1_655 S
C858 H852 0.950 . S
C858 C859 1.327 . S
C859 H853 0.950 1_556 S
C859 C858 1.327 . S
C859 C863 1.429 1_656 S
C860 C843 1.574 . S
C860 H854 0.949 . S
C860 C864 1.368 . S
C861 C842 1.429 1_455 S
C861 C855 1.429 . S
C861 C862 1.523 . S
C862 C843 1.368 . S
C862 C856 1.368 1_455 S
C862 C861 1.523 . S
C863 C847 1.452 . S
C863 C859 1.429 1_454 S
C863 C864 1.523 . S
C864 C848 1.368 1_455 S
C864 C860 1.368 . S
C864 C863 1.523 . S
H865 C840 0.950 . S
H866 C842 0.950 . S
H867 C843 0.949 . S
H868 C845 0.950 . S
H869 C847 0.972 . S
C870 C871 1.349 . S
C870 C872 1.327 . S
C870 H895 0.950 . S
C871 C870 1.349 . S
C871 C887 1.349 . S
C872 C870 1.327 . S
C872 C891 1.429 . S
C872 H896 0.950 . S
C873 C890 1.574 . S
C873 C892 1.368 . S
C873 H897 0.949 1_545 S
H874 C878 0.949 . S
C875 C876 1.349 . S
C875 C877 1.327 . S
C875 H898 0.950 1_545 S
C876 C875 1.349 . S
C876 C888 1.349 . S
C877 C875 1.327 . S
C877 C893 1.429 . S
C877 H899 0.950 1_545 S
C878 H874 0.949 . S
C878 C886 1.574 . S
C878 C894 1.368 . S
H879 C887 0.950 1_565 S
H880 C885 0.950 1_565 S
H881 C886 0.949 . S
H882 C888 0.950 . S
H883 C889 0.950 . S
H884 C890 0.949 1_565 S
C885 H880 0.950 1_545 S
C885 C887 1.327 . S
C885 C891 1.429 . S
C886 C878 1.574 . S
C886 H881 0.949 . S
C886 C892 1.368 . S
C887 C871 1.349 . S
C887 H879 0.950 1_545 S
C887 C885 1.327 . S
C888 C876 1.349 . S
C888 H882 0.950 . S
C888 C889 1.327 . S
C889 H883 0.950 . S
C889 C888 1.327 . S
C889 C893 1.429 . S
C890 C873 1.574 . S
C890 H884 0.949 1_545 S
C890 C894 1.368 . S
C891 C872 1.429 . S
C891 C885 1.429 . S
C891 C892 1.523 . S
C892 C873 1.368 . S
C892 C886 1.368 . S
C892 C891 1.523 . S
C893 C877 1.429 . S
C893 C889 1.429 . S
C893 C894 1.523 . S
C894 C878 1.368 . S
C894 C890 1.368 . S
C894 C893 1.523 . S
H895 C870 0.950 . S
H896 C872 0.950 . S
H897 C873 0.949 1_565 S
H898 C875 0.950 1_565 S
H899 C877 0.950 1_565 S
C900 C901 1.349 . S
C900 C902 1.327 . S
C900 H925 0.950 . S
C901 C900 1.349 . S
C901 C917 1.349 . S
C902 C900 1.327 . S
C902 C921 1.429 . S
C902 H926 0.950 . S
C903 C920 1.574 . S
C903 C922 1.368 . S
C903 H927 0.949 . S
H904 C908 0.949 . S
C905 C906 1.349 . S
C905 C907 1.327 . S
C905 H928 0.950 . S
C906 C905 1.349 . S
C906 C918 1.349 . S
C907 C905 1.327 . S
C907 C923 1.429 . S
C907 H929 0.950 . S
C908 H904 0.949 . S
C908 C916 1.574 . S
C908 C924 1.368 . S
H909 C917 0.950 . S
H910 C915 0.950 . S
H911 C916 0.949 . S
H912 C918 0.950 . S
H913 C919 0.950 . S
H914 C920 0.949 . S
C915 H910 0.950 . S
C915 C917 1.327 . S
C915 C921 1.429 . S
C916 C908 1.574 . S
C916 H911 0.949 . S
C916 C922 1.368 . S
C917 C901 1.349 . S
C917 H909 0.950 . S
C917 C915 1.327 . S
C918 C906 1.349 . S
C918 H912 0.950 . S
C918 C919 1.327 . S
C919 H913 0.950 . S
C919 C918 1.327 . S
C919 C923 1.429 . S
C920 C903 1.574 . S
C920 H914 0.949 . S
C920 C924 1.368 . S
C921 C902 1.429 . S
C921 C915 1.429 . S
C921 C922 1.523 . S
C922 C903 1.368 . S
C922 C916 1.368 . S
C922 C921 1.523 . S
C923 C907 1.429 . S
C923 C919 1.429 . S
C923 C924 1.523 . S
C924 C908 1.368 . S
C924 C920 1.368 . S
C924 C923 1.523 . S
H925 C900 0.950 . S
H926 C902 0.950 . S
H927 C903 0.949 . S
H928 C905 0.950 . S
H929 C907 0.950 . S
C930 C931 1.349 1_565 S
C930 C932 1.327 . S
C930 H955 0.950 . S
C931 C930 1.349 1_545 S
C931 C947 1.349 . S
C932 C930 1.327 . S
C932 C951 1.429 1_565 S
C932 H956 0.950 . S
C933 C950 1.574 . S
C933 C952 1.368 . S
C933 H957 0.949 . S
H934 C938 0.949 . S
C935 C936 1.349 . S
C935 C937 1.327 . S
C935 H958 0.950 . S
C936 C935 1.349 . S
C936 C948 1.349 1_545 S
C937 C935 1.327 . S
C937 C953 1.429 . S
C937 H959 0.950 . S
C938 H934 0.949 . S
C938 C946 1.574 . S
C938 C954 1.368 1_565 S
H939 C947 0.950 . S
H940 C945 0.950 . S
H941 C946 0.949 . S
H942 C948 0.950 . S
H943 C949 0.950 . S
H944 C950 0.949 . S
C945 H940 0.950 . S
C945 C947 1.327 . S
C945 C951 1.429 . S
C946 C938 1.574 . S
C946 H941 0.949 . S
C946 C952 1.368 1_565 S
C947 C931 1.349 . S
C947 H939 0.950 . S
C947 C945 1.327 . S
C948 C936 1.349 1_565 S
C948 H942 0.950 . S
C948 C949 1.327 . S
C949 H943 0.950 . S
C949 C948 1.327 . S
C949 C953 1.429 1_565 S
C950 C933 1.574 . S
C950 H944 0.949 . S
C950 C954 1.368 . S
C951 C932 1.429 1_545 S
C951 C945 1.429 . S
C951 C952 1.523 . S
C952 C933 1.368 . S
C952 C946 1.368 1_545 S
C952 C951 1.523 . S
C953 C937 1.429 . S
C953 C949 1.429 1_545 S
C953 C954 1.523 . S
C954 C938 1.368 1_545 S
C954 C950 1.368 . S
C954 C953 1.523 . S
H955 C930 0.950 . S
H956 C932 0.950 . S
H957 C933 0.949 . S
H958 C935 0.950 . S
H959 C937 0.950 . S
C960 C961 1.349 . S
C960 C962 1.327 . S
C960 H985 0.950 . S
C961 C960 1.349 . S
C961 C977 1.349 . S
C962 C960 1.327 . S
C962 C981 1.429 . S
C962 H986 0.950 . S
C963 C980 1.574 . S
C963 C982 1.368 . S
C963 H987 0.949 . S
H964 C968 0.949 . S
C965 C966 1.349 . S
C965 C967 1.327 . S
C965 H988 0.950 . S
C966 C965 1.349 . S
C966 C978 1.349 . S
C967 C965 1.327 . S
C967 C983 1.429 1_554 S
C967 H989 0.950 1_554 S
C968 H964 0.949 . S
C968 C976 1.574 . S
C968 C984 1.368 . S
H969 C977 0.950 . S
H970 C975 0.950 . S
H971 C976 0.949 . S
H972 C978 0.950 . S
H973 C979 0.924 1_556 S
H974 C980 0.949 . S
C975 H970 0.950 . S
C975 C977 1.327 . S
C975 C981 1.429 . S
C976 C968 1.574 . S
C976 H971 0.949 . S
C976 C982 1.368 . S
C977 C961 1.349 . S
C977 H969 0.950 . S
C977 C975 1.327 . S
C978 C966 1.349 . S
C978 H972 0.950 . S
C978 C979 1.378 . S
C979 H973 0.924 1_554 S
C979 C978 1.378 . S
C979 C983 1.404 1_554 S
C980 C963 1.574 . S
C980 H974 0.949 . S
C980 C984 1.368 . S
C981 C962 1.429 . S
C981 C975 1.429 . S
C981 C982 1.523 . S
C982 C963 1.368 . S
C982 C976 1.368 . S
C982 C981 1.523 . S
C983 C967 1.429 1_556 S
C983 C979 1.404 1_556 S
C983 C984 1.523 . S
C984 C968 1.368 . S
C984 C980 1.368 . S
C984 C983 1.523 . S
H985 C960 0.950 . S
H986 C962 0.950 . S
H987 C963 0.949 . S
H988 C965 0.950 . S
H989 C967 0.950 1_556 S
C990 C991 1.349 1_655 S
C990 C992 1.327 . S
C990 H1015 0.950 . S
C991 C990 1.349 1_455 S
C991 C1007 1.349 . S
C992 C990 1.327 . S
C992 C1011 1.429 1_655 S
C992 H1016 0.950 . S
C993 C1010 1.574 . S
C993 C1012 1.368 . S
C993 H1017 0.949 . S
H994 C998 0.949 . S
C995 C996 1.349 1_455 S
C995 C997 1.327 . S
C995 H1018 0.950 . S
C996 C995 1.349 1_655 S
C996 C1008 1.349 . S
C997 C995 1.327 . S
C997 C1013 1.429 1_455 S
C997 H1019 0.950 . S
C998 H994 0.949 . S
C998 C1006 1.574 . S
C998 C1014 1.370 . S
H999 C1007 0.950 . S
H1000 C1005 0.950 . S
H1001 C1006 0.949 . S
H1002 C1008 0.950 . S
H1003 C1009 0.950 . S
H1004 C1010 0.949 . S
C1005 H1000 0.950 . S
C1005 C1007 1.327 . S
C1005 C1011 1.429 . S
C1006 C998 1.574 . S
C1006 H1001 0.949 . S
C1006 C1012 1.368 1_655 S
C1007 C991 1.349 . S
C1007 H999 0.950 . S
C1007 C1005 1.327 . S
C1008 C996 1.349 . S
C1008 H1002 0.950 . S
C1008 C1009 1.327 . S
C1009 H1003 0.950 . S
C1009 C1008 1.327 . S
C1009 C1013 1.429 . S
C1010 C993 1.574 . S
C1010 H1004 0.949 . S
C1010 C1014 1.366 1_455 S
C1011 C992 1.429 1_455 S
C1011 C1005 1.429 . S
C1011 C1012 1.523 . S
C1012 C993 1.368 . S
C1012 C1006 1.368 1_455 S
C1012 C1011 1.523 . S
C1013 C997 1.429 1_655 S
C1013 C1009 1.429 . S
C1013 C1014 1.523 . S
C1014 C998 1.370 . S
C1014 C1010 1.366 1_655 S
C1014 C1013 1.523 . S
H1015 C990 0.950 . S
H1016 C992 0.950 . S
H1017 C993 0.949 . S
H1018 C995 0.950 . S
H1019 C997 0.950 . S
C481 C19 1.855 . S
C486 C451 1.850 . S
C511 C46 1.149 . S
C516 C301 1.118 . S
C541 C95 0.334 . S
C546 C361 0.411 . S
C571 C10 1.951 . S
C576 C421 1.821 . S
C606 C331 1.268 . S
C601 C55 1.258 . S
C636 C391 0.379 . S
C631 C86 0.438 . S
C661 C59 3.046 . S
C666 C181 2.887 . S
C691 C90 1.975 . S
C696 C271 2.000 . S
C721 C15 1.238 . S
C726 C151 1.251 . S
C756 C211 2.941 . S
C751 C50 2.927 . S
C786 C241 1.733 . S
C781 C99 1.847 . S
C811 C6 1.151 . S
C816 C121 1.111 . S
C846 C260 1.353 . S
C841 C9 1.330 . S
C871 C58 1.449 . S
C876 C140 1.477 . S
C901 C98 1.691 . S
C906 C200 1.734 . S
C936 C380 1.095 . S
C931 C49 1.083 . S
C966 C440 1.350 . S
C961 C89 1.326 . S
C991 C18 1.439 . S
C996 C320 1.460 . S
