# Generated by pormake.
# Topology anh, (6,3)-cn, num edge types: 1
# Building blocks:
#     Node 0, Type 0, BuildingBlock: BETDIP_clean_sbu_0, # of connection points: 6
#     Node 1, Type 0, BuildingBlock: BETDIP_clean_sbu_0, # of connection points: 6
#     Node 2, Type 0, BuildingBlock: BETDIP_clean_sbu_0, # of connection points: 6
#     Node 3, Type 1, BuildingBlock: BELTOD_clean_linker_0, # of connection points: 3
#     Node 4, Type 1, BuildingBlock: BELTOD_clean_linker_0, # of connection points: 3
#     Node 5, Type 1, BuildingBlock: BELTOD_clean_linker_0, # of connection points: 3
#     Node 6, Type 1, BuildingBlock: BELTOD_clean_linker_0, # of connection points: 3
#     Node 7, Type 1, BuildingBlock: BELTOD_clean_linker_0, # of connection points: 3
#     Node 8, Type 1, BuildingBlock: BELTOD_clean_linker_0, # of connection points: 3
#     Edge 9, Type (0, 1), BuildingBlock: ZUJKAS_clean_linker_0, # of connection points: 2
#     Edge 10, Type (0, 1), BuildingBlock: ZUJKAS_clean_linker_0, # of connection points: 2
#     Edge 11, Type (0, 1), BuildingBlock: ZUJKAS_clean_linker_0, # of connection points: 2
#     Edge 12, Type (0, 1), BuildingBlock: ZUJKAS_clean_linker_0, # of connection points: 2
#     Edge 13, Type (0, 1), BuildingBlock: ZUJKAS_clean_linker_0, # of connection points: 2
#     Edge 14, Type (0, 1), BuildingBlock: ZUJKAS_clean_linker_0, # of connection points: 2
#     Edge 15, Type (0, 1), BuildingBlock: ZUJKAS_clean_linker_0, # of connection points: 2
#     Edge 16, Type (0, 1), BuildingBlock: ZUJKAS_clean_linker_0, # of connection points: 2
#     Edge 17, Type (0, 1), BuildingBlock: ZUJKAS_clean_linker_0, # of connection points: 2
#     Edge 18, Type (0, 1), BuildingBlock: ZUJKAS_clean_linker_0, # of connection points: 2
#     Edge 19, Type (0, 1), BuildingBlock: ZUJKAS_clean_linker_0, # of connection points: 2
#     Edge 20, Type (0, 1), BuildingBlock: ZUJKAS_clean_linker_0, # of connection points: 2
#     Edge 21, Type (0, 1), BuildingBlock: ZUJKAS_clean_linker_0, # of connection points: 2
#     Edge 22, Type (0, 1), BuildingBlock: ZUJKAS_clean_linker_0, # of connection points: 2
#     Edge 23, Type (0, 1), BuildingBlock: ZUJKAS_clean_linker_0, # of connection points: 2
#     Edge 24, Type (0, 1), BuildingBlock: ZUJKAS_clean_linker_0, # of connection points: 2
#     Edge 25, Type (0, 1), BuildingBlock: ZUJKAS_clean_linker_0, # of connection points: 2
#     Edge 26, Type (0, 1), BuildingBlock: ZUJKAS_clean_linker_0, # of connection points: 2
# Relax obj value: 0.205
# Max RMSD: 0.174
# Mean RMSD: 0.142
data_MOF--net-anh--node1-BETDIP_clean_sbu_0--node2-BELTOD_clean_linker_0--edge1-ZUJKAS_clean_linker_0
_symmetry_space_group_name_H-M    P1
_symmetry_Int_Tables_number       1
_symmetry_cell_setting            triclinic
loop_
_symmetry_equiv_pos_as_xyz
'x, y, z'
_cell_length_a     43.599748
_cell_length_b     43.421759
_cell_length_c     75.686736
_cell_angle_alpha  90.215986
_cell_angle_beta   89.269573
_cell_angle_gamma 119.99894
loop_
_atom_site_label
_atom_site_type_symbol
_atom_site_fract_x
_atom_site_fract_y
_atom_site_fract_z
_atom_type_partial_charge
Tb0 Tb 0.08713 0.59786 0.17886 0.0
Tb1 Tb 1.05182 0.52432 0.16514 0.0
C2 C 0.12619 0.65144 0.19691 0.0
C3 C 0.16498 0.67259 0.19671 0.0
C4 C 0.18326 0.69171 0.21166 0.0
C5 C 0.22031 0.7102 0.2116 0.0
C6 C 0.23947 0.70955 0.19662 0.0
C7 C 0.22091 0.69022 0.18171 0.0
C8 C 0.18403 0.67193 0.18176 0.0
C9 C 0.0816 0.59358 0.14451 0.0
C10 C 0.13392 0.55961 0.16894 0.0
C11 C 1.01254 0.46951 0.14774 0.0
C12 C 0.9748 0.45356 0.14357 0.0
C13 C 0.96204 0.43715 0.1272 0.0
C14 C 0.92649 0.42396 0.12288 0.0
C15 C 0.90346 0.42757 0.13479 0.0
C16 C 0.9165 0.44422 0.15111 0.0
C17 C 0.95176 0.457 0.15547 0.0
C18 C 1.05748 0.53012 0.1999 0.0
C19 C 1.00664 0.56466 0.17095 0.0
O20 O 0.11308 0.61887 0.2028 0.0
O21 O 0.11099 0.65289 0.18238 0.0
O22 O 0.08852 0.57459 0.15432 0.0
O23 O 0.08072 0.6183 0.15374 0.0
O24 O 0.13177 0.586 0.1769 0.0
O25 O 0.10546 0.53295 0.16169 0.0
O26 O 1.03303 0.50057 0.14047 0.0
O27 O 1.01987 0.46883 0.16441 0.0
O28 O 1.04967 0.54797 0.18973 0.0
O29 O 1.06077 0.50664 0.19072 0.0
O30 O 1.01032 0.5395 0.16282 0.0
O31 O 1.03275 0.58881 0.18072 0.0
H32 H 0.16893 0.69209 0.22338 0.0
H33 H 0.23395 0.72463 0.22334 0.0
H34 H 0.23488 0.68959 0.1699 0.0
H35 H 0.17036 0.65711 0.17009 0.0
H36 H 0.97957 0.43464 0.11777 0.0
H37 H 0.91696 0.41095 0.11027 0.0
H38 H 0.89921 0.44666 0.16072 0.0
H39 H 0.96102 0.46979 0.16814 0.0
Tb40 Tb 0.5723 1.03112 0.51152 0.0
Tb41 Tb 0.5338 0.06803 0.50027 0.0
C42 C 0.59087 0.99429 0.52897 0.0
C43 C 0.58234 0.95713 0.52902 0.0
C44 C 0.5942 0.94478 0.5429 0.0
C45 C 0.59039 0.91095 0.54213 0.0
C46 C 0.57473 0.88897 0.52739 0.0
C47 C 0.56129 0.90085 0.51387 0.0
C48 C 0.56498 0.93471 0.51471 0.0
C49 C 0.57279 1.04003 0.47742 0.0
C50 C 0.48772 0.9846 0.50251 0.0
C51 C 0.51787 0.1093 0.48511 0.0
C52 C 0.53807 0.1485 0.48312 0.0
C53 C 0.5602 0.16438 0.46828 0.0
C54 C 0.58291 0.2012 0.46754 0.0
C55 C 0.5838 0.22294 0.48156 0.0
C56 C 0.56055 0.20715 0.49603 0.0
C57 C 0.53785 0.17044 0.49676 0.0
C58 C 0.5363 0.06039 0.53484 0.0
C59 C 0.61892 0.11314 0.50445 0.0
O60 O 0.56557 1.00034 0.53412 0.0
O61 O 0.60763 1.01245 0.51482 0.0
O62 O 0.54735 1.03257 0.48786 0.0
O63 O 0.59787 1.0386 0.4857 0.0
O64 O 0.5164 0.98584 0.50942 0.0
O65 O 0.48921 1.01401 0.49648 0.0
O66 O 0.53093 0.09187 0.47677 0.0
O67 O 0.50716 0.09701 0.50113 0.0
O68 O 0.56086 0.06816 0.52376 0.0
O69 O 0.50952 0.05878 0.52676 0.0
O70 O 0.59001 0.11047 0.49734 0.0
O71 O 0.61701 0.086 0.51344 0.0
H72 H 0.6077 0.96185 0.55402 0.0
H73 H 0.60148 0.90282 0.55264 0.0
H74 H 0.54888 0.88438 0.50244 0.0
H75 H 0.5555 0.9439 0.50391 0.0
H76 H 0.56078 0.14824 0.45747 0.0
H77 H 0.6001 0.21258 0.45609 0.0
H78 H 0.5608 0.22297 0.50718 0.0
H79 H 0.52107 0.15919 0.50835 0.0
Tb80 Tb 0.55311 0.5412 0.84034 0.0
Tb81 Tb 0.63103 0.5836 0.83694 0.0
C82 C 0.48984 0.5165 0.85016 0.0
C83 C 0.46325 0.52708 0.84732 0.0
C84 C 0.42995 0.50805 0.8555 0.0
C85 C 0.40431 0.51773 0.85264 0.0
C86 C 0.41175 0.54684 0.84166 0.0
C87 C 0.44527 0.56572 0.83344 0.0
C88 C 0.4707 0.55574 0.83616 0.0
C89 C 0.57775 0.54887 0.80781 0.0
C90 C 0.59199 0.6278 0.8362 0.0
C91 C 0.69351 0.60544 0.82685 0.0
C92 C 0.70966 0.58658 0.81819 0.0
C93 C 0.69005 0.55826 0.80657 0.0
C94 C 0.70396 0.53744 0.80023 0.0
C95 C 0.73772 0.54458 0.8054 0.0
C96 C 0.75759 0.57369 0.81665 0.0
C97 C 0.74369 0.59448 0.82295 0.0
C98 C 0.60688 0.57762 0.86961 0.0
C99 C 0.59174 0.49782 0.83738 0.0
O100 O 0.51696 0.53817 0.85978 0.0
O101 O 0.49937 0.50594 0.836 0.0
O102 O 0.58881 0.57171 0.81982 0.0
O103 O 0.54979 0.52045 0.81341 0.0
O104 O 0.56235 0.59682 0.83915 0.0
O105 O 0.62282 0.62906 0.83404 0.0
O106 O 0.67046 0.60908 0.81753 0.0
O107 O 0.68257 0.59544 0.84311 0.0
O108 O 0.59528 0.55318 0.85814 0.0
O109 O 0.63398 0.60581 0.86309 0.0
O110 O 0.61894 0.52821 0.83162 0.0
O111 O 0.56379 0.4976 0.84457 0.0
H112 H 0.42371 0.48559 0.864 0.0
H113 H 0.37857 0.5022 0.85893 0.0
H114 H 0.45208 0.58851 0.82509 0.0
H115 H 0.49615 0.57035 0.82952 0.0
H116 H 0.66358 0.55157 0.80274 0.0
H117 H 0.68805 0.51547 0.79151 0.0
H118 H 0.78333 0.57954 0.82131 0.0
H119 H 0.759 0.61591 0.83208 0.0
P120 P 0.66631 0.08592 0.23693 0.0
H121 H 0.67335 1.02887 0.21947 0.0
H122 H 0.62885 0.96891 0.20975 0.0
H123 H 0.54565 0.98995 0.22577 0.0
H124 H 0.58976 0.04919 0.23542 0.0
H125 H 0.71308 0.12914 0.20829 0.0
H126 H 0.71151 0.1718 0.18813 0.0
H127 H 0.61458 0.15508 0.21316 0.0
H128 H 0.61735 0.11342 0.23386 0.0
H129 H 0.62712 1.03288 0.26434 0.0
H130 H 0.67981 0.14709 0.25905 0.0
O131 O 0.70668 0.09056 0.23703 0.0
H132 H 0.60814 1.03705 0.2942 0.0
H133 H 0.6614 0.1514 0.28938 0.0
C134 C 0.63472 1.04318 0.22835 0.0
C135 C 0.64552 1.02054 0.22078 0.0
C136 C 0.62019 0.98644 0.21521 0.0
C137 C 0.58394 0.97475 0.21732 0.0
C138 C 0.57344 0.99809 0.22432 0.0
C139 C 0.59862 1.03204 0.22971 0.0
C140 C 0.66572 0.11865 0.22273 0.0
C141 C 0.69167 0.13488 0.20954 0.0
C142 C 0.69036 0.15887 0.19782 0.0
C143 C 0.66262 0.16661 0.19886 0.0
C144 C 0.63639 0.14992 0.21205 0.0
C145 C 0.63793 0.12607 0.22387 0.0
C146 C 0.6538 0.08961 0.25924 0.0
C147 C 0.63429 0.05887 0.2695 0.0
C148 C 0.62343 0.06124 0.28659 0.0
C149 C 0.63273 0.09449 0.29391 0.0
C150 C 0.65361 0.12545 0.28392 0.0
C151 C 0.66404 0.12299 0.26664 0.0
P152 P 0.80847 0.65695 0.58601 0.0
H153 H 0.84848 0.64549 0.55787 0.0
H154 H 0.83431 0.59389 0.53919 0.0
H155 H 0.73571 0.53272 0.56802 0.0
H156 H 0.75024 0.58391 0.58665 0.0
H157 H 0.82138 0.71145 0.5595 0.0
H158 H 0.78195 0.72889 0.54543 0.0
H159 H 0.69346 0.64795 0.57544 0.0
H160 H 0.73289 0.63099 0.58949 0.0
H161 H 0.80458 0.60231 0.61043 0.0
H162 H 0.78686 0.69148 0.61245 0.0
O163 O 0.85082 0.68887 0.58434 0.0
H164 H 0.78108 0.58567 0.64057 0.0
H165 H 0.76288 0.67479 0.64236 0.0
C166 C 0.80089 0.61814 0.57396 0.0
C167 C 0.82421 0.62069 0.56038 0.0
C168 C 0.81592 0.59135 0.54961 0.0
C169 C 0.78403 0.55916 0.55223 0.0
C170 C 0.76084 0.55685 0.56591 0.0
C171 C 0.76911 0.58613 0.57658 0.0
C172 C 0.78019 0.6707 0.5759 0.0
C173 C 0.79354 0.6977 0.56312 0.0
C174 C 0.77095 0.70735 0.55496 0.0
C175 C 0.73468 0.68992 0.55945 0.0
C176 C 0.72136 0.66224 0.57194 0.0
C177 C 0.74389 0.65257 0.57999 0.0
C178 C 0.79624 0.64737 0.609 0.0
C179 C 0.79564 0.61831 0.61734 0.0
C180 C 0.78213 0.60878 0.63456 0.0
C181 C 0.76956 0.62856 0.64377 0.0
C182 C 0.7724 0.65901 0.63569 0.0
C183 C 0.78587 0.66846 0.61852 0.0
P184 P 1.05397 0.62705 0.89724 0.0
H185 H 0.08576 0.65537 0.86277 0.0
H186 H 0.13684 0.65865 0.84693 0.0
H187 H 0.15751 0.61087 0.89181 0.0
H188 H 0.10645 0.60705 0.90733 0.0
H189 H 0.98679 0.61757 0.88484 0.0
H190 H 0.93627 0.56824 0.87068 0.0
H191 H 0.98726 0.50491 0.8741 0.0
H192 H 1.03845 0.55517 0.88799 0.0
H193 H 0.10519 0.6687 0.92406 0.0
H194 H 1.00497 0.57089 0.9219 0.0
O195 O 1.05224 0.66417 0.89415 0.0
H196 H 0.10877 0.65945 0.95561 0.0
H197 H 1.00781 0.56198 0.95346 0.0
C198 C 0.09299 0.63195 0.88639 0.0
C199 C 0.10166 0.64609 0.86924 0.0
C200 C 0.13063 0.6478 0.8602 0.0
C201 C 0.15134 0.63552 0.86828 0.0
C202 C 0.14246 0.62131 0.88545 0.0
C203 C 0.11329 0.61918 0.89435 0.0
C204 C 1.01645 0.59013 0.88721 0.0
C205 C 0.98715 0.59313 0.88255 0.0
C206 C 0.95809 0.56467 0.87462 0.0
C207 C 0.95758 0.53245 0.87138 0.0
C208 C 0.98694 0.52941 0.8763 0.0
C209 C 1.01613 0.55805 0.88423 0.0
C210 C 1.05506 0.62038 0.92061 0.0
C211 C 0.08386 0.64536 0.93042 0.0
C212 C 0.08576 0.64011 0.94847 0.0
C213 C 1.05861 0.60989 0.95707 0.0
C214 C 1.02948 0.58518 0.94719 0.0
C215 C 1.02772 0.59039 0.92911 0.0
P216 P 0.07367 0.53156 0.4524 0.0
H217 H 0.11145 0.55881 0.48604 0.0
H218 H 0.16049 0.61701 0.49458 0.0
H219 H 0.14784 0.66236 0.44647 0.0
H220 H 0.09853 0.60446 0.4383 0.0
H221 H 1.04557 0.45652 0.46129 0.0
H222 H 0.988 0.40753 0.46936 0.0
H223 H 0.94573 0.47865 0.4708 0.0
H224 H 1.00462 0.52852 0.46237 0.0
H225 H 0.12247 0.54118 0.42338 0.0
H226 H 1.01862 0.52946 0.42879 0.0
O227 O 0.10025 0.51457 0.45507 0.0
H228 H 0.11894 0.54326 0.39134 0.0
H229 H 1.01473 0.53121 0.39654 0.0
C230 C 0.10041 0.57664 0.46157 0.0
C231 C 0.11831 0.58149 0.4776 0.0
C232 C 0.14711 0.61497 0.48232 0.0
C233 C 0.15918 0.645 0.47116 0.0
C234 C 0.13974 0.64043 0.45561 0.0
C235 C 0.11104 0.60692 0.45089 0.0
C236 C 1.03047 0.4971 0.46155 0.0
C237 C 1.02444 0.46227 0.4637 0.0
C238 C 0.99093 0.43373 0.46839 0.0
C239 C 0.96148 0.43845 0.47101 0.0
C240 C 0.96738 0.47346 0.46889 0.0
C241 C 1.00135 0.50233 0.46424 0.0
C242 C 0.07044 0.53421 0.42859 0.0
C243 C 0.09869 0.53873 0.41769 0.0
C244 C 0.09661 0.53983 0.39928 0.0
C245 C 0.06632 0.53685 0.39124 0.0
C246 C 1.03847 0.53356 0.40223 0.0
C247 C 1.04054 0.5323 0.42072 0.0
P248 P 0.60752 0.07026 0.78404 0.0
H249 H 0.64804 0.12918 0.80889 0.0
H250 H 0.64336 0.18082 0.81772 0.0
H251 H 0.54226 0.13622 0.79204 0.0
H252 H 0.54713 0.08439 0.78324 0.0
H253 H 0.57706 0.999 0.76715 0.0
H254 H 0.56968 0.94253 0.77661 0.0
H255 H 0.60458 0.98491 0.82875 0.0
H256 H 0.61072 1.04195 0.81927 0.0
H257 H 0.64818 0.11223 0.75327 0.0
H258 H 0.54107 1.02887 0.76398 0.0
O259 O 0.65157 0.08906 0.78415 0.0
H260 H 0.63443 0.11101 0.722 0.0
H261 H 0.52749 1.02679 0.73239 0.0
C262 C 0.59799 0.10232 0.7953 0.0
C263 C 0.62438 0.12988 0.80544 0.0
C264 C 0.6219 0.15994 0.81032 0.0
C265 C 0.59273 0.16354 0.80538 0.0
C266 C 0.5652 0.13479 0.79618 0.0
C267 C 0.56787 0.10477 0.79117 0.0
C268 C 0.59274 1.02513 0.79263 0.0
C269 C 0.58142 0.9962 0.7809 0.0
C270 C 0.57765 0.96348 0.78631 0.0
C271 C 0.58633 0.95854 0.80353 0.0
C272 C 0.59756 0.98738 0.81537 0.0
C273 C 0.60059 1.02005 0.81002 0.0
C274 C 0.59605 0.06969 0.76096 0.0
C275 C 0.62173 0.0934 0.74892 0.0
C276 C 0.61381 0.09287 0.73101 0.0
C277 C 0.58003 0.06848 0.72469 0.0
C278 C 0.55393 0.04548 0.73684 0.0
C279 C 0.56168 0.04662 0.75487 0.0
P280 P 0.55865 0.53502 0.12109 0.0
H281 H 0.58102 0.49787 0.14586 0.0
H282 H 0.63871 0.506 0.15359 0.0
H283 H 0.69003 0.60747 0.12696 0.0
H284 H 0.63168 0.59873 0.11874 0.0
H285 H 0.50339 0.5386 0.10134 0.0
H286 H 0.45395 0.54668 0.10926 0.0
H287 H 0.49002 0.56847 0.16306 0.0
H288 H 0.54084 0.56079 0.15481 0.0
H289 H 0.56171 0.48911 0.09346 0.0
H290 H 0.57607 0.59461 0.09659 0.0
O291 O 0.53394 0.49114 0.12409 0.0
H292 H 0.56852 0.49448 0.06141 0.0
H293 H 0.58194 0.59995 0.06434 0.0
C294 C 0.60127 0.54771 0.1317 0.0
C295 C 0.60442 0.52235 0.14191 0.0
C296 C 0.63778 0.52684 0.14621 0.0
C297 C 0.66948 0.55717 0.14074 0.0
C298 C 0.66641 0.58371 0.13147 0.0
C299 C 0.63283 0.57888 0.12687 0.0
C300 C 0.52746 0.55055 0.12719 0.0
C301 C 0.50188 0.54646 0.11476 0.0
C302 C 0.47271 0.55035 0.11944 0.0
C303 C 0.46719 0.55795 0.13691 0.0
C304 C 0.4932 0.56293 0.14942 0.0
C305 C 0.52263 0.55879 0.14468 0.0
C306 C 0.56747 0.5411 0.09745 0.0
C307 C 0.56623 0.51347 0.08725 0.0
C308 C 0.56991 0.51651 0.06883 0.0
C309 C 0.57509 0.54738 0.0601 0.0
C310 C 0.57803 0.57576 0.07049 0.0
C311 C 0.5745 0.57271 0.08898 0.0
H312 H 0.14923 0.5135 0.15089 0.0
H313 H 0.20615 0.51593 0.14694 0.0
H314 H 0.25691 0.61164 0.17797 0.0
H315 H 0.19976 0.6092 0.18213 0.0
H316 H 0.26811 0.56612 0.13109 0.0
H317 H 0.29537 0.55385 0.20129 0.0
H318 H 0.25235 0.54468 0.19398 0.0
H319 H 0.28744 0.58982 0.19669 0.0
C320 C 0.17233 0.53505 0.15703 0.0
C321 C 0.16931 0.56105 0.16695 0.0
C322 C 0.20518 0.53644 0.1547 0.0
C323 C 0.23637 0.56365 0.16231 0.0
C324 C 0.23352 0.58979 0.17221 0.0
H325 H 0.45819 0.60335 0.15992 0.0
H326 H 0.40407 0.60617 0.16608 0.0
C327 C 0.2006 0.5885 0.17449 0.0
C328 C 0.27159 0.56491 0.15936 0.0
H329 H 0.34042 0.56376 0.18053 0.0
C330 C 0.28378 0.56554 0.14197 0.0
C331 C 0.29281 0.56456 0.17339 0.0
C332 C 0.28132 0.56289 0.1924 0.0
C333 C 0.31598 0.56603 0.13823 0.0
C334 C 0.33679 0.56466 0.15222 0.0
C335 C 0.32491 0.56463 0.16966 0.0
C336 C 0.37022 0.56243 0.14897 0.0
C337 C 0.32774 0.56901 0.11917 0.0
C338 C 0.36991 0.53636 0.13771 0.0
C339 C 0.40093 0.53485 0.13409 0.0
C340 C 0.4337 0.55902 0.14177 0.0
C341 C 0.43379 0.58424 0.15365 0.0
C342 C 0.40263 0.58593 0.15717 0.0
H343 H 0.31638 0.58193 0.11096 0.0
H344 H 0.35704 0.58451 0.11782 0.0
H345 H 0.31824 0.54196 0.11378 0.0
H346 H 0.34544 0.51682 0.13166 0.0
H347 H 0.39907 0.51429 0.12528 0.0
H348 H 0.63249 0.17413 0.4866 0.0
H349 H 0.68927 0.22831 0.4812 0.0
H350 H 0.74225 0.185 0.51124 0.0
H351 H 0.68555 0.13029 0.51637 0.0
H352 H 0.73698 0.27892 0.5016 0.0
H353 H 0.80453 0.2154 0.46819 0.0
H354 H 0.75763 0.19157 0.47299 0.0
H355 H 0.78887 0.19783 0.48993 0.0
C356 C 0.65615 0.1759 0.49207 0.0
C357 C 0.65397 0.14724 0.50189 0.0
C358 C 0.68887 0.2072 0.48895 0.0
C359 C 0.72081 0.2111 0.49541 0.0
C360 C 0.71859 0.18281 0.50556 0.0
H361 H 0.94512 0.37914 0.49145 0.0
H362 H 0.88772 0.32619 0.49703 0.0
C363 C 0.68583 0.15141 0.50867 0.0
C364 C 0.75596 0.24484 0.4918 0.0
H365 H 0.84065 0.27629 0.47577 0.0
C366 C 0.75952 0.27817 0.49587 0.0
C367 C 0.78589 0.24464 0.48424 0.0
C368 C 0.78404 0.2105 0.47841 0.0
C369 C 0.79177 0.31057 0.49316 0.0
C370 C 0.82179 0.31039 0.48571 0.0
C371 C 0.81814 0.27704 0.48153 0.0
C372 C 0.85721 0.3441 0.48243 0.0
C373 C 0.79347 0.34459 0.49895 0.0
C374 C 0.86022 0.37273 0.47226 0.0
C375 C 0.89351 0.40345 0.46892 0.0
C376 C 0.92517 0.40663 0.47549 0.0
C377 C 0.9219 0.378 0.4858 0.0
C378 C 0.88872 0.3474 0.48911 0.0
H379 H 0.77315 0.33943 0.5093 0.0
H380 H 0.81992 0.3638 0.50423 0.0
H381 H 0.78813 0.35697 0.48747 0.0
H382 H 0.83684 0.37109 0.46652 0.0
H383 H 0.89444 0.42428 0.46072 0.0
H384 H 0.53343 0.63636 0.83213 0.0
H385 H 0.53205 0.69142 0.82703 0.0
H386 H 0.64569 0.75189 0.83125 0.0
H387 H 0.64728 0.697 0.83555 0.0
H388 H 0.54767 0.74886 0.84445 0.0
H389 H 0.63868 0.79439 0.7868 0.0
H390 H 0.62182 0.75075 0.79624 0.0
H391 H 0.65954 0.78875 0.80576 0.0
C392 C 0.5582 0.66132 0.8319 0.0
C393 C 0.59051 0.66172 0.83408 0.0
C394 C 0.5574 0.69308 0.82898 0.0
C395 C 0.58885 0.72645 0.82819 0.0
C396 C 0.62098 0.72688 0.83103 0.0
H397 H 0.6347 0.94911 0.82278 0.0
H398 H 0.63468 0.89358 0.82909 0.0
C399 C 0.62183 0.69518 0.83371 0.0
C400 C 0.58804 0.76057 0.82468 0.0
H401 H 0.62603 0.83717 0.79964 0.0
C402 C 0.56472 0.76789 0.83454 0.0
C403 C 0.60994 0.786 0.81167 0.0
C404 C 0.63359 0.77943 0.79939 0.0
C405 C 0.56331 0.79955 0.83206 0.0
C406 C 0.58585 0.82519 0.81943 0.0
C407 C 0.60899 0.81795 0.8095 0.0
C408 C 0.58521 0.85923 0.81608 0.0
C409 C 0.53796 0.80575 0.84314 0.0
C410 C 0.55746 0.85896 0.80665 0.0
C411 C 0.55756 0.89083 0.80287 0.0
C412 C 0.58522 0.92415 0.80857 0.0
C413 C 0.61268 0.92422 0.81831 0.0
C414 C 0.61282 0.89234 0.82186 0.0
H415 H 0.52517 0.78559 0.8538 0.0
H416 H 0.55205 0.83263 0.84917 0.0
H417 H 0.51696 0.80467 0.83458 0.0
H418 H 0.53584 0.83402 0.80194 0.0
H419 H 0.53579 0.88934 0.79544 0.0
H420 H 0.98564 0.61029 0.18571 0.0
H421 H 0.92993 0.61062 0.18122 0.0
H422 H 0.89422 0.52127 0.14613 0.0
H423 H 0.94968 0.52123 0.15021 0.0
H424 H 0.89805 0.61609 0.14763 0.0
H425 H 0.81068 0.48875 0.18235 0.0
H426 H 0.85802 0.51336 0.1855 0.0
H427 H 0.84003 0.48744 0.16586 0.0
C428 C 0.96593 0.59056 0.17709 0.0
C429 C 0.97241 0.56528 0.16863 0.0
C430 C 0.9339 0.59081 0.17449 0.0
C431 C 0.9071 0.56554 0.16353 0.0
C432 C 0.91373 0.54059 0.15497 0.0
H433 H 0.68848 0.50587 0.13612 0.0
H434 H 0.74548 0.50955 0.14125 0.0
C435 C 0.94574 0.54057 0.15739 0.0
C436 C 0.87257 0.56538 0.16075 0.0
H437 H 0.78256 0.51491 0.16707 0.0
C438 C 0.87282 0.59406 0.152 0.0
C439 C 0.83925 0.53648 0.16608 0.0
C440 C 0.83673 0.5048 0.17558 0.0
C441 C 0.84113 0.59429 0.14809 0.0
C442 C 0.80763 0.56567 0.15376 0.0
C443 C 0.80763 0.5371 0.16264 0.0
C444 C 0.7724 0.56415 0.1503 0.0
C445 C 0.84416 0.62465 0.13713 0.0
C446 C 0.76719 0.59331 0.15365 0.0
C447 C 0.73441 0.59143 0.15029 0.0
C448 C 0.70513 0.55993 0.14403 0.0
C449 C 0.71008 0.53058 0.14105 0.0
C450 C 0.743 0.5327 0.14402 0.0
H451 H 0.86875 0.63694 0.12891 0.0
H452 H 0.82121 0.61577 0.12824 0.0
H453 H 0.84538 0.64558 0.14603 0.0
H454 H 0.78834 0.61761 0.15913 0.0
H455 H 0.73176 0.61449 0.15303 0.0
H456 H 0.42449 0.97151 0.48805 0.0
H457 H 0.37016 0.91463 0.48365 0.0
H458 H 0.41927 0.85964 0.50663 0.0
H459 H 0.47369 0.91664 0.5113 0.0
H460 H 0.3556 0.85722 0.46414 0.0
H461 H 0.32738 0.81335 0.53396 0.0
H462 H 0.36033 0.85806 0.52775 0.0
H463 H 0.37036 0.82263 0.52643 0.0
C464 C 0.42386 0.94743 0.49233 0.0
C465 C 0.45392 0.94922 0.50019 0.0
C466 C 0.3925 0.91462 0.48974 0.0
C467 C 0.38973 0.88222 0.49502 0.0
C468 C 0.41982 0.88388 0.50278 0.0
H469 H 0.2208 0.65673 0.48758 0.0
H470 H 0.27513 0.71295 0.49314 0.0
C471 C 0.45128 0.91676 0.50537 0.0
C472 C 0.35586 0.84704 0.49192 0.0
H473 H 0.29166 0.77103 0.51246 0.0
C474 C 0.34164 0.83855 0.47479 0.0
C475 C 0.33711 0.82203 0.50562 0.0
C476 C 0.34931 0.82952 0.52451 0.0
C477 C 0.31025 0.8062 0.47098 0.0
C478 C 0.29135 0.78127 0.4847 0.0
C479 C 0.30564 0.78968 0.50182 0.0
C480 C 0.25707 0.74647 0.48156 0.0
C481 C 0.2983 0.79867 0.45205 0.0
C482 C 0.22768 0.74565 0.47349 0.0
C483 C 0.19618 0.71322 0.47031 0.0
C484 C 0.19257 0.68017 0.47524 0.0
C485 C 0.2218 0.68118 0.4837 0.0
C486 C 0.25331 0.71363 0.48684 0.0
H487 H 0.32054 0.81434 0.44266 0.0
H488 H 0.28674 0.77002 0.4489 0.0
H489 H 0.27781 0.80625 0.4499 0.0
H490 H 0.22888 0.77025 0.46972 0.0
H491 H 0.17444 0.71419 0.46412 0.0
H492 H 0.53789 0.42877 0.84359 0.0
H493 H 0.53824 0.37304 0.83871 0.0
H494 H 0.64646 0.43236 0.82033 0.0
H495 H 0.64642 0.48809 0.82533 0.0
H496 H 0.5483 0.34349 0.80847 0.0
H497 H 0.65407 0.36689 0.85547 0.0
H498 H 0.6334 0.39397 0.85527 0.0
H499 H 0.66735 0.40147 0.83927 0.0
C500 C 0.56195 0.43012 0.83864 0.0
C501 C 0.59219 0.46341 0.83498 0.0
C502 C 0.56207 0.398 0.83578 0.0
C503 C 0.59255 0.39795 0.82934 0.0
C504 C 0.62274 0.43119 0.82563 0.0
H505 H 0.64791 0.23313 0.80395 0.0
H506 H 0.64685 0.28811 0.80946 0.0
C507 C 0.62259 0.46329 0.82841 0.0
C508 C 0.59241 0.36333 0.82611 0.0
H509 H 0.63471 0.3171 0.83654 0.0
C510 C 0.56711 0.33772 0.81473 0.0
C511 C 0.61702 0.35536 0.83402 0.0
C512 C 0.64431 0.38069 0.84681 0.0
C513 C 0.5662 0.3053 0.81078 0.0
C514 C 0.59056 0.29707 0.81886 0.0
C515 C 0.61584 0.32275 0.83027 0.0
C516 C 0.59076 0.26256 0.81551 0.0
C517 C 0.53984 0.28087 0.7974 0.0
C518 C 0.5598 0.22895 0.81722 0.0
C519 C 0.5603 0.19713 0.81392 0.0
C520 C 0.59193 0.19758 0.80914 0.0
C521 C 0.623 0.23121 0.80778 0.0
C522 C 0.6224 0.26298 0.8109 0.0
H523 H 0.53168 0.29557 0.7884 0.0
H524 H 0.55084 0.26723 0.78927 0.0
H525 H 0.51571 0.26043 0.8044 0.0
H526 H 0.5351 0.22714 0.82134 0.0
H527 H 0.53586 0.17204 0.81543 0.0
H528 H 0.59356 0.86556 0.49795 0.0
H529 H 0.60866 0.81846 0.49645 0.0
H530 H 0.57697 0.79201 0.55105 0.0
H531 H 0.56085 0.83832 0.55249 0.0
H532 H 0.66171 0.82468 0.51723 0.0
H533 H 0.54222 0.69429 0.52971 0.0
H534 H 0.53994 0.73273 0.5225 0.0
H535 H 0.54613 0.72696 0.54548 0.0
C536 C 0.58843 0.84876 0.50942 0.0
C537 C 0.5763 0.85581 0.5254 0.0
C538 C 0.59722 0.82195 0.50856 0.0
C539 C 0.59374 0.8016 0.52359 0.0
C540 C 0.57924 0.80691 0.53918 0.0
H541 H 0.68548 0.70039 0.57667 0.0
H542 H 0.64886 0.72286 0.56448 0.0
C543 C 0.57046 0.83369 0.54006 0.0
C544 C 0.61098 0.77967 0.52408 0.0
H545 H 0.59831 0.69929 0.53769 0.0
C546 C 0.64776 0.79697 0.52125 0.0
C547 C 0.5927 0.74363 0.5294 0.0
C548 C 0.55299 0.72324 0.53177 0.0
C549 C 0.66717 0.78002 0.52485 0.0
C550 C 0.64912 0.74453 0.53109 0.0
C551 C 0.61207 0.72653 0.53294 0.0
C552 C 0.66865 0.72729 0.5377 0.0
C553 C 0.70705 0.80109 0.52312 0.0
C554 C 0.69141 0.72167 0.52659 0.0
C555 C 0.71264 0.70907 0.53357 0.0
C556 C 0.711 0.70144 0.55171 0.0
C557 C 0.68712 0.70577 0.56263 0.0
C558 C 0.66617 0.71858 0.55568 0.0
H559 H 0.71711 0.82999 0.52134 0.0
H560 H 0.71963 0.79738 0.53497 0.0
H561 H 0.71554 0.79158 0.51144 0.0
H562 H 0.69324 0.72766 0.51261 0.0
H563 H 0.7304 0.70541 0.52481 0.0
H564 H 0.80574 0.56257 0.79706 0.0
H565 H 0.83044 0.52387 0.79748 0.0
H566 H 0.72528 0.43214 0.80142 0.0
H567 H 0.70058 0.47162 0.80273 0.0
H568 H 0.75659 0.42384 0.82497 0.0
H569 H 0.85414 0.46075 0.77308 0.0
H570 H 0.86357 0.50359 0.78056 0.0
H571 H 0.82053 0.47329 0.77138 0.0
C572 C 0.78775 0.53414 0.79777 0.0
C573 C 0.75131 0.52037 0.80048 0.0
C574 C 0.8019 0.51166 0.79752 0.0
C575 C 0.7799 0.47461 0.79935 0.0
C576 C 0.74301 0.46052 0.80006 0.0
H577 H 0.95784 0.48838 0.84522 0.0
H578 H 0.90811 0.44884 0.82652 0.0
C579 C 0.72884 0.4832 0.80072 0.0
C580 C 0.79611 0.45294 0.80467 0.0
H581 H 0.8803 0.46792 0.80508 0.0
C582 C 0.78312 0.43221 0.82012 0.0
C583 C 0.8296 0.46046 0.79797 0.0
C584 C 0.84231 0.47534 0.77967 0.0
C585 C 0.80575 0.42648 0.83087 0.0
C586 C 0.84228 0.44372 0.82653 0.0
C587 C 0.85288 0.4568 0.80923 0.0
C588 C 0.86962 0.45777 0.84055 0.0
C589 C 0.79094 0.40495 0.84756 0.0
C590 C 0.8645 0.47472 0.85525 0.0
C591 C 0.89258 0.49655 0.86612 0.0
C592 C 0.92686 0.50302 0.8623 0.0
C593 C 0.9317 0.48401 0.84849 0.0
C594 C 0.90326 0.46147 0.83773 0.0
H595 H 0.76639 0.37964 0.84454 0.0
H596 H 0.8101 0.39872 0.85384 0.0
H597 H 0.7834 0.41965 0.85706 0.0
H598 H 0.83947 0.47364 0.85762 0.0
H599 H 0.8878 0.51015 0.8769 0.0
H600 H 0.28488 0.68825 0.18359 0.0
H601 H 0.34975 0.72342 0.18176 0.0
H602 H 0.34716 0.81123 0.2071 0.0
H603 H 0.28258 0.7768 0.20857 0.0
H604 H 0.38964 0.82752 0.17464 0.0
H605 H 0.41927 0.75211 0.22455 0.0
H606 H 0.38898 0.72818 0.20702 0.0
H607 H 0.37653 0.74922 0.2238 0.0
C608 C 0.2982 0.71511 0.18872 0.0
C609 C 0.27869 0.7298 0.19626 0.0
C610 C 0.33518 0.73499 0.18776 0.0
C611 C 0.35306 0.76976 0.19436 0.0
C612 C 0.33369 0.78437 0.20195 0.0
H613 H 0.52878 0.9286 0.2378 0.0
H614 H 0.47776 0.87261 0.22884 0.0
C615 C 0.29686 0.76458 0.20294 0.0
C616 C 0.39201 0.79168 0.19337 0.0
H617 H 0.46641 0.807 0.21501 0.0
C618 C 0.40675 0.82273 0.1831 0.0
C619 C 0.41395 0.78499 0.20437 0.0
C620 C 0.39911 0.75192 0.21565 0.0
C621 C 0.44248 0.84883 0.18462 0.0
C622 C 0.46395 0.84332 0.19659 0.0
C623 C 0.44983 0.81094 0.20579 0.0
C624 C 0.49801 0.87338 0.20248 0.0
C625 C 0.45611 0.88335 0.1746 0.0
C626 C 0.52691 0.89166 0.19082 0.0
C627 C 0.55613 0.92397 0.19592 0.0
C628 C 0.55655 0.93818 0.21269 0.0
C629 C 0.52874 0.91845 0.2247 0.0
C630 C 0.49977 0.88635 0.21964 0.0
H631 H 0.43487 0.88455 0.16722 0.0
H632 H 0.46825 0.90624 0.18382 0.0
H633 H 0.47684 0.88634 0.16498 0.0
H634 H 0.52614 0.88178 0.17758 0.0
H635 H 0.57738 0.93872 0.18647 0.0
H636 H 0.57362 0.27699 0.49301 0.0
H637 H 0.6183 0.33896 0.4973 0.0
H638 H 0.69794 0.31926 0.4743 0.0
H639 H 0.65347 0.25644 0.47083 0.0
H640 H 0.72087 0.35334 0.50375 0.0
H641 H 0.6674 0.42383 0.46636 0.0
H642 H 0.63342 0.39287 0.48096 0.0
H643 H 0.65064 0.37676 0.46366 0.0
C644 C 0.60057 0.28582 0.48874 0.0
C645 C 0.60998 0.26164 0.4817 0.0
C646 C 0.62605 0.3215 0.49092 0.0
C647 C 0.66143 0.33407 0.48578 0.0
C648 C 0.67074 0.31029 0.47817 0.0
H649 H 0.79058 0.55901 0.51615 0.0
H650 H 0.76898 0.50708 0.49675 0.0
C651 C 0.64524 0.27441 0.47611 0.0
C652 C 0.68888 0.37091 0.49035 0.0
H653 H 0.70205 0.45515 0.49258 0.0
C654 C 0.71725 0.37577 0.5009 0.0
C655 C 0.68508 0.40061 0.48627 0.0
C656 C 0.65768 0.39824 0.4735 0.0
C657 C 0.7396 0.40863 0.50886 0.0
C658 C 0.73275 0.43693 0.50661 0.0
C659 C 0.70675 0.43315 0.49467 0.0
C660 C 0.74907 0.4687 0.51812 0.0
C661 C 0.76953 0.41229 0.52014 0.0
C662 C 0.74516 0.46432 0.53652 0.0
C663 C 0.75773 0.49377 0.54758 0.0
C664 C 0.77402 0.52828 0.54047 0.0
C665 C 0.77854 0.53275 0.52203 0.0
C666 C 0.76601 0.50315 0.51093 0.0
H667 H 0.78155 0.39733 0.51428 0.0
H668 H 0.79072 0.44043 0.52163 0.0
H669 H 0.75898 0.40085 0.53342 0.0
H670 H 0.73149 0.43798 0.54236 0.0
H671 H 0.75413 0.48947 0.56173 0.0
H672 H 0.36591 0.54789 0.86628 0.0
H673 H 0.32171 0.5659 0.86215 0.0
H674 H 0.35331 0.59037 0.80748 0.0
H675 H 0.39696 0.57108 0.81124 0.0
H676 H 0.34814 0.64606 0.83098 0.0
H677 H 0.22886 0.51144 0.83009 0.0
H678 H 0.26044 0.5181 0.84687 0.0
H679 H 0.27255 0.51963 0.82398 0.0
C680 C 0.36313 0.55646 0.85328 0.0
C681 C 0.38486 0.5578 0.83907 0.0
C682 C 0.33801 0.56693 0.85098 0.0
C683 C 0.33423 0.57911 0.83449 0.0
C684 C 0.35593 0.5809 0.82028 0.0
H685 H 0.15155 0.61139 0.83495 0.0
H686 H 0.1981 0.60298 0.82117 0.0
C687 C 0.38095 0.5701 0.82251 0.0
C688 C 0.308 0.59076 0.83255 0.0
H689 H 0.2196 0.5599 0.8374 0.0
C690 C 0.31995 0.6273 0.83194 0.0
C691 C 0.27135 0.56613 0.83353 0.0
C692 C 0.25738 0.52657 0.8335 0.0
C693 C 0.29611 0.63996 0.83376 0.0
C694 C 0.25971 0.61534 0.83639 0.0
C695 C 0.24757 0.57875 0.83547 0.0
C696 C 0.23461 0.6265 0.84279 0.0
C697 C 0.31021 0.67952 0.8336 0.0
C698 C 0.24005 0.64295 0.85934 0.0
C699 C 0.21357 0.64755 0.86723 0.0
C700 C 0.18118 0.63573 0.85871 0.0
C701 C 0.17643 0.62098 0.84171 0.0
C702 C 0.20291 0.61613 0.83386 0.0
H703 H 0.33503 0.69359 0.82561 0.0
H704 H 0.29047 0.68595 0.82825 0.0
H705 H 0.3164 0.68974 0.84732 0.0
H706 H 0.26399 0.65043 0.86663 0.0
H707 H 0.21788 0.65914 0.88031 0.0
H708 H 0.86064 0.4565 0.13919 0.0
H709 H 0.79592 0.42326 0.14206 0.0
H710 H 0.79542 0.32735 0.12642 0.0
H711 H 0.85963 0.36045 0.12318 0.0
H712 H 0.73149 0.32742 0.1178 0.0
H713 H 0.7719 0.36643 0.18783 0.0
H714 H 0.78133 0.40049 0.17179 0.0
H715 H 0.80472 0.37621 0.1708 0.0
C716 C 0.84649 0.42857 0.13577 0.0
C717 C 0.86509 0.41079 0.13138 0.0
C718 C 0.80957 0.40966 0.13738 0.0
C719 C 0.79103 0.3727 0.13492 0.0
C720 C 0.80923 0.35588 0.12842 0.0
H721 H 0.68079 0.17681 0.16379 0.0
H722 H 0.69611 0.22944 0.1465 0.0
C723 C 0.84602 0.37481 0.12661 0.0
C724 C 0.75539 0.3501 0.14278 0.0
H725 H 0.7205 0.31354 0.18291 0.0
C726 C 0.72837 0.32496 0.13205 0.0
C727 C 0.75087 0.34743 0.16139 0.0
C728 C 0.77863 0.37393 0.1737 0.0
C729 C 0.69906 0.29488 0.13946 0.0
C730 C 0.69753 0.28947 0.15796 0.0
C731 C 0.72183 0.31719 0.1687 0.0
C732 C 0.67779 0.25346 0.16606 0.0
C733 C 0.67128 0.26824 0.12731 0.0
C734 C 0.66154 0.24855 0.18278 0.0
C735 C 0.65419 0.21892 0.19309 0.0
C736 C 0.6626 0.19349 0.18676 0.0
C737 C 0.67498 0.19644 0.16927 0.0
C738 C 0.68293 0.22629 0.15913 0.0
H739 H 0.6654 0.2822 0.11677 0.0
H740 H 0.68157 0.25232 0.1207 0.0
H741 H 0.64632 0.25007 0.13451 0.0
H742 H 0.65731 0.2691 0.18845 0.0
H743 H 0.64454 0.21749 0.20649 0.0
H744 H 0.09657 0.55251 0.12261 0.0
H745 H 0.09179 0.54874 0.09026 0.0
H746 H 1.05423 0.62369 0.09076 0.0
H747 H 1.05888 0.62753 0.12298 0.0
H748 H 1.01413 0.55774 0.06912 0.0
H749 H 0.15979 0.63435 0.05628 0.0
H750 H 0.14304 0.59802 0.07181 0.0
H751 H 0.14043 0.63693 0.07708 0.0
C752 C 0.08715 0.56801 0.11578 0.0
C753 C 0.07818 0.5904 0.1252 0.0
C754 C 0.08455 0.56592 0.09737 0.0
C755 C 0.07286 0.58611 0.08822 0.0
C756 C 0.06333 0.60796 0.09765 0.0
H757 H 0.0818 0.65974 0.98333 0.0
H758 H 0.08531 0.65056 0.01491 0.0
C759 C 0.06612 0.61022 0.116 0.0
C760 C 0.07111 0.58526 0.06876 0.0
H761 H 0.12268 0.6164 0.03155 0.0
C762 C 1.03778 0.57015 0.06084 0.0
C763 C 0.10213 0.60175 0.05814 0.0
C764 C 0.13848 0.61891 0.06616 0.0
C765 C 1.03466 0.57169 0.04249 0.0
C766 C 0.06569 0.58873 0.0319 0.0
C767 C 0.09901 0.60325 0.03978 0.0
C768 C 0.06413 0.59383 0.01273 0.0
C769 C 0.99834 0.55627 0.03457 0.0
C770 C 1.05134 0.56492 1.00111 0.0
C771 C 1.04961 0.57009 0.98302 0.0
C772 C 1.06062 0.60429 0.97627 0.0
C773 C 0.07358 0.63317 0.98803 0.0
C774 C 0.07545 0.62797 0.00608 0.0
H775 H 0.97725 0.54825 0.04483 0.0
H776 H 0.99734 0.57588 0.02556 0.0
H777 H 0.99263 0.53247 0.02665 0.0
H778 H 1.04287 0.53843 0.00604 0.0
H779 H 1.04005 0.54739 0.9743 0.0
H780 H 0.51827 1.0314 0.45663 0.0
H781 H 0.52136 0.04558 0.42499 0.0
H782 H 0.63348 0.083 0.42447 0.0
H783 H 0.63062 0.0689 0.45595 0.0
H784 H 0.59893 0.1276 0.40639 0.0
H785 H 0.55227 0.9872 0.38667 0.0
H786 H 0.53179 0.9968 0.40512 0.0
H787 H 0.57615 1.00494 0.40695 0.0
C788 C 0.54356 1.04291 0.44975 0.0
C789 C 0.5742 0.04899 0.45862 0.0
C790 C 0.54528 0.05101 0.43177 0.0
C791 C 0.57767 0.06539 0.42256 0.0
C792 C 0.60833 0.07205 0.43147 0.0
H793 H 0.67371 0.13508 0.32104 0.0
H794 H 0.65626 0.13113 0.35218 0.0
C795 C 0.6066 0.06379 0.44937 0.0
C796 C 0.57955 0.07157 0.40336 0.0
H797 H 0.57204 1.02994 0.36412 0.0
C798 C 0.59264 0.10629 0.39705 0.0
C799 C 0.5711 0.04359 0.39138 0.0
C800 C 0.55704 1.00592 0.39773 0.0
C801 C 0.59829 0.11391 0.3789 0.0
C802 C 0.59151 0.08615 0.36692 0.0
C803 C 0.57723 0.05122 0.37329 0.0
C804 C 0.60097 0.09265 0.34789 0.0
C805 C 0.61149 0.15154 0.37277 0.0
C806 C 0.57579 0.07231 0.33512 0.0
C807 C 0.58588 0.07407 0.31742 0.0
C808 C 0.6213 0.09636 0.31216 0.0
C809 C 0.64617 0.11801 0.32476 0.0
C810 C 0.63615 0.11591 0.34253 0.0
H811 H 0.60351 0.16606 0.38218 0.0
H812 H 0.64085 0.16592 0.37208 0.0
H813 H 0.60131 0.15218 0.35948 0.0
H814 H 0.54854 0.05412 0.33896 0.0
H815 H 0.56619 0.0573 0.30789 0.0
H816 H 0.56867 0.49733 0.78415 0.0
H817 H 0.60164 0.50556 0.75628 0.0
H818 H 0.65999 0.61878 0.76514 0.0
H819 H 0.62712 0.61076 0.79276 0.0
H820 H 0.60765 0.54928 0.72628 0.0
H821 H 0.73782 0.592 0.75693 0.0
H822 H 0.69626 0.56792 0.76881 0.0
H823 H 0.71565 0.61484 0.76503 0.0
C824 C 0.58843 0.52393 0.78005 0.0
C825 C 0.59574 0.5534 0.79063 0.0
C826 C 0.60728 0.52858 0.76422 0.0
C827 C 0.63371 0.5627 0.75888 0.0
C828 C 0.6403 0.59216 0.76925 0.0
H829 H 0.77615 0.66945 0.67268 0.0
H830 H 0.74247 0.65027 0.70045 0.0
C831 C 0.62148 0.58755 0.78498 0.0
C832 C 0.65405 0.568 0.74226 0.0
H833 H 0.73826 0.60199 0.72601 0.0
C834 C 0.63614 0.56037 0.72617 0.0
C835 C 0.69119 0.58251 0.74223 0.0
C836 C 0.71147 0.58959 0.75916 0.0
C837 C 0.65465 0.56832 0.70998 0.0
C838 C 0.69195 0.58366 0.70996 0.0
C839 C 0.7097 0.59036 0.72608 0.0
C840 C 0.71324 0.59458 0.69341 0.0
C841 C 0.63433 0.56165 0.69306 0.0
C842 C 0.70856 0.56948 0.68044 0.0
C843 C 0.72759 0.5804 0.6645 0.0
C844 C 0.7518 0.6166 0.6613 0.0
C845 C 0.75731 0.64146 0.67462 0.0
C846 C 0.73824 0.63053 0.69052 0.0
H847 H 0.60728 0.55736 0.69548 0.0
H848 H 0.64854 0.58431 0.68374 0.0
H849 H 0.6317 0.53748 0.6866 0.0
H850 H 0.68987 0.54152 0.68255 0.0
H851 H 0.72251 0.56059 0.65447 0.0
H852 H 0.49101 0.05984 0.56025 0.0
H853 H 0.49799 0.06194 0.59235 0.0
H854 H 0.59567 0.06045 0.58557 0.0
H855 H 0.58991 0.06083 0.55347 0.0
H856 H 0.49881 1.01975 0.61545 0.0
H857 H 0.63007 0.14154 0.61817 0.0
H858 H 0.60512 0.127 0.59807 0.0
H859 H 0.63171 0.10812 0.60492 0.0
C860 C 0.51411 0.06021 0.56562 0.0
C861 C 0.53997 0.06029 0.55432 0.0
C862 C 0.51806 0.06132 0.58401 0.0
C863 C 0.54778 0.06213 0.59157 0.0
C864 C 0.5731 0.0611 0.58023 0.0
H865 H 0.55209 1.01013 0.70323 0.0
H866 H 0.54378 1.00805 0.67122 0.0
C867 C 0.56954 0.0608 0.56182 0.0
C868 C 0.55181 0.06343 0.61126 0.0
H869 H 0.61004 0.10693 0.64457 0.0
C870 C 0.5231 1.03902 0.62179 0.0
C871 C 0.58318 0.08893 0.61975 0.0
C872 C 0.61408 0.1181 0.60965 0.0
C873 C 0.52495 1.03911 0.64036 0.0
C874 C 0.55699 0.06335 0.64878 0.0
C875 C 0.58556 0.08799 0.63826 0.0
C876 C 0.56145 0.06417 0.66843 0.0
C877 C 0.49203 1.01387 0.6507 0.0
C878 C 0.57537 0.09652 0.67767 0.0
C879 C 0.58105 0.09785 0.69592 0.0
C880 C 0.57252 0.06679 0.70544 0.0
C881 C 0.55831 1.03438 0.69629 0.0
C882 C 0.55334 1.03317 0.67796 0.0
H883 H 0.46769 1.00648 0.64309 0.0
H884 H 0.49254 0.98905 0.65345 0.0
H885 H 0.49026 1.02563 0.66345 0.0
H886 H 0.58198 0.1209 0.67075 0.0
H887 H 0.59204 0.12322 0.70261 0.0
H888 H 0.56061 0.51637 0.8877 0.0
H889 H 0.55069 0.50915 0.9199 0.0
H890 H 0.62558 0.6206 0.92699 0.0
H891 H 0.63508 0.62797 0.8951 0.0
H892 H 0.5993 0.52122 0.94606 0.0
H893 H 0.54283 0.60913 0.95681 0.0
H894 H 0.54665 0.59376 0.93514 0.0
H895 H 0.58436 0.63094 0.94506 0.0
C896 C 0.57456 0.53935 0.89615 0.0
C897 C 0.59855 0.57275 0.88885 0.0
C898 C 0.56898 0.53521 0.91455 0.0
C899 C 0.58698 0.56445 0.92594 0.0
C900 C 0.61072 0.59778 0.91856 0.0
H901 H 0.61694 0.60516 0.0387 0.0
H902 H 0.61858 0.60796 0.00636 0.0
C903 C 0.6163 0.60191 0.90027 0.0
C904 C 0.58252 0.56014 0.94555 0.0
H905 H 0.56332 0.59332 0.98252 0.0
C906 C 0.59102 0.53667 0.95401 0.0
C907 C 0.57185 0.58039 0.95601 0.0
C908 C 0.56056 0.60471 0.94779 0.0
C909 C 0.59027 0.53376 0.97257 0.0
C910 C 0.58024 0.55451 0.98302 0.0
C911 C 0.57124 0.57759 0.97456 0.0
C912 C 0.57898 0.5527 1.00275 0.0
C913 C 0.60133 0.50933 0.98086 0.0
C914 C 0.5558 0.52086 0.01157 0.0
C915 C 0.5546 0.51922 0.03008 0.0
C916 C 0.57652 0.54942 0.04029 0.0
C917 C 0.59944 0.58142 0.03138 0.0
C918 C 0.60054 0.58304 0.01284 0.0
H919 H 0.61643 0.50213 0.97142 0.0
H920 H 0.61786 0.52181 0.99267 0.0
H921 H 0.57735 0.48443 0.98516 0.0
H922 H 0.53827 0.49729 0.00413 0.0
H923 H 0.53598 0.4943 0.03637 0.0
H924 H 1.04157 0.5716 0.22118 0.0
H925 H 1.04323 0.57503 0.25361 0.0
H926 H 0.07796 0.49796 0.25525 0.0
H927 H 0.07639 0.49448 0.22291 0.0
H928 H 1.00565 0.51843 0.27874 0.0
H929 H 0.1512 0.58071 0.28573 0.0
H930 H 0.13076 0.58073 0.26513 0.0
H931 H 0.13136 0.54156 0.27219 0.0
C932 C 1.04971 0.55552 0.22847 0.0
C933 C 1.05895 0.53284 0.21949 0.0
C934 C 1.05058 0.55745 0.247 0.0
C935 C 1.06112 0.53707 0.25691 0.0
C936 C 0.07029 0.51438 0.24792 0.0
H937 H 0.08716 0.50331 0.36719 0.0
H938 H 0.08481 0.5042 0.33497 0.0
C939 C 0.06922 0.51229 0.22943 0.0
C940 C 1.0618 0.53884 0.27662 0.0
H941 H 0.11661 0.55895 0.31199 0.0
C942 C 1.02994 0.52754 0.28603 0.0
C943 C 0.09347 0.55065 0.28615 0.0
C944 C 0.12873 0.56442 0.27683 0.0
C945 C 1.02869 0.52667 0.30466 0.0
C946 C 1.06035 0.53822 0.31422 0.0
C947 C 0.09229 0.54999 0.30476 0.0
C948 C 1.06096 0.53748 0.33399 0.0
C949 C 0.99322 0.51214 0.31388 0.0
C950 C 1.04853 0.55605 0.34435 0.0
C951 C 1.04978 0.55553 0.36288 0.0
C952 C 0.06395 0.53681 0.3715 0.0
C953 C 0.07648 0.51838 0.36106 0.0
C954 C 0.07504 0.51876 0.34259 0.0
H955 H 0.97101 0.49557 0.3049 0.0
H956 H 0.99133 0.49585 0.32556 0.0
H957 H 0.9899 0.53461 0.31847 0.0
H958 H 1.03836 0.57147 0.33811 0.0
H959 H 1.04038 0.57046 0.37044 0.0
loop_
_geom_bond_atom_site_label_1
_geom_bond_atom_site_label_2
_geom_bond_distance
_geom_bond_site_symmetry_2
_ccdc_geom_bond_type
Tb0 C2 2.809 . S
Tb0 O20 2.484 . S
Tb0 O21 2.440 . S
Tb0 O22 2.658 . S
Tb0 O23 2.409 . S
Tb0 O24 2.378 . S
Tb0 O28 2.325 . S
Tb0 O31 2.341 1_455 S
Tb1 C11 2.809 1_455 S
Tb1 O22 2.325 . S
Tb1 O25 2.341 . S
Tb1 O26 2.484 1_455 S
Tb1 O27 2.440 1_455 S
Tb1 O28 2.658 . S
Tb1 O29 2.409 . S
Tb1 O30 2.378 1_455 S
C2 Tb0 2.809 . S
C2 C3 1.514 . S
C2 O20 1.248 . S
C2 O21 1.266 . S
C3 C2 1.514 . S
C3 C4 1.359 . S
C3 C8 1.348 . S
C4 C3 1.359 . S
C4 C5 1.380 . S
C4 H32 0.929 . S
C5 C4 1.380 . S
C5 C6 1.347 . S
C5 H33 0.931 . S
C6 C5 1.347 . S
C6 C7 1.369 . S
C7 C6 1.369 . S
C7 C8 1.408 . S
C7 H34 0.930 . S
C8 C3 1.348 . S
C8 C7 1.408 . S
C8 H35 0.930 . S
C9 O22 1.281 . S
C9 O23 1.254 . S
C10 O24 1.236 . S
C10 O25 1.266 . S
C11 Tb1 2.809 1_655 S
C11 C12 1.514 . S
C11 O26 1.248 . S
C11 O27 1.266 . S
C12 C11 1.514 . S
C12 C13 1.359 . S
C12 C17 1.348 . S
C13 C12 1.359 . S
C13 C14 1.380 . S
C13 H36 0.929 . S
C14 C13 1.380 . S
C14 C15 1.347 . S
C14 H37 0.931 . S
C15 C14 1.347 . S
C15 C16 1.369 . S
C16 C15 1.369 . S
C16 C17 1.408 . S
C16 H38 0.930 . S
C17 C12 1.348 . S
C17 C16 1.408 . S
C17 H39 0.930 . S
C18 O28 1.281 . S
C18 O29 1.254 . S
C19 O30 1.236 . S
C19 O31 1.266 . S
O20 Tb0 2.484 . S
O20 C2 1.248 . S
O21 Tb0 2.440 . S
O21 C2 1.266 . S
O22 Tb0 2.658 . S
O22 Tb1 2.325 . S
O22 C9 1.281 . S
O23 Tb0 2.409 . S
O23 C9 1.254 . S
O24 Tb0 2.378 . S
O24 C10 1.236 . S
O25 Tb1 2.341 . S
O25 C10 1.266 . S
O26 Tb1 2.484 1_655 S
O26 C11 1.248 . S
O27 Tb1 2.440 1_655 S
O27 C11 1.266 . S
O28 Tb0 2.325 . S
O28 Tb1 2.658 . S
O28 C18 1.281 . S
O29 Tb1 2.409 . S
O29 C18 1.254 . S
O30 Tb1 2.378 1_655 S
O30 C19 1.236 . S
O31 Tb0 2.341 1_655 S
O31 C19 1.266 . S
H32 C4 0.929 . S
H33 C5 0.931 . S
H34 C7 0.930 . S
H35 C8 0.930 . S
H36 C13 0.929 . S
H37 C14 0.931 . S
H38 C16 0.930 . S
H39 C17 0.930 . S
Tb40 C42 2.809 1_545 S
Tb40 O60 2.484 1_545 S
Tb40 O61 2.440 1_545 S
Tb40 O62 2.658 . S
Tb40 O63 2.409 . S
Tb40 O64 2.378 1_545 S
Tb40 O68 2.325 . S
Tb40 O71 2.341 . S
Tb41 C51 2.809 . S
Tb41 O62 2.325 . S
Tb41 O65 2.341 1_545 S
Tb41 O66 2.484 . S
Tb41 O67 2.440 . S
Tb41 O68 2.658 . S
Tb41 O69 2.409 . S
Tb41 O70 2.378 . S
C42 Tb40 2.809 1_565 S
C42 C43 1.514 . S
C42 O60 1.248 . S
C42 O61 1.266 . S
C43 C42 1.514 . S
C43 C44 1.359 . S
C43 C48 1.348 . S
C44 C43 1.359 . S
C44 C45 1.380 . S
C44 H72 0.929 . S
C45 C44 1.380 . S
C45 C46 1.347 . S
C45 H73 0.931 . S
C46 C45 1.347 . S
C46 C47 1.369 . S
C47 C46 1.369 . S
C47 C48 1.408 . S
C47 H74 0.930 . S
C48 C43 1.348 . S
C48 C47 1.408 . S
C48 H75 0.930 . S
C49 O62 1.281 . S
C49 O63 1.254 . S
C50 O64 1.236 . S
C50 O65 1.266 . S
C51 Tb41 2.809 . S
C51 C52 1.514 . S
C51 O66 1.248 . S
C51 O67 1.266 . S
C52 C51 1.514 . S
C52 C53 1.359 . S
C52 C57 1.348 . S
C53 C52 1.359 . S
C53 C54 1.380 . S
C53 H76 0.929 . S
C54 C53 1.380 . S
C54 C55 1.347 . S
C54 H77 0.931 . S
C55 C54 1.347 . S
C55 C56 1.369 . S
C56 C55 1.369 . S
C56 C57 1.408 . S
C56 H78 0.930 . S
C57 C52 1.348 . S
C57 C56 1.408 . S
C57 H79 0.930 . S
C58 O68 1.281 . S
C58 O69 1.254 . S
C59 O70 1.236 . S
C59 O71 1.266 . S
O60 Tb40 2.484 1_565 S
O60 C42 1.248 . S
O61 Tb40 2.440 1_565 S
O61 C42 1.266 . S
O62 Tb40 2.658 . S
O62 Tb41 2.325 . S
O62 C49 1.281 . S
O63 Tb40 2.409 . S
O63 C49 1.254 . S
O64 Tb40 2.378 1_565 S
O64 C50 1.236 . S
O65 Tb41 2.341 1_565 S
O65 C50 1.266 . S
O66 Tb41 2.484 . S
O66 C51 1.248 . S
O67 Tb41 2.440 . S
O67 C51 1.266 . S
O68 Tb40 2.325 . S
O68 Tb41 2.658 . S
O68 C58 1.281 . S
O69 Tb41 2.409 . S
O69 C58 1.254 . S
O70 Tb41 2.378 . S
O70 C59 1.236 . S
O71 Tb40 2.341 . S
O71 C59 1.266 . S
H72 C44 0.929 . S
H73 C45 0.931 . S
H74 C47 0.930 . S
H75 C48 0.930 . S
H76 C53 0.929 . S
H77 C54 0.931 . S
H78 C56 0.930 . S
H79 C57 0.930 . S
Tb80 C82 2.809 . S
Tb80 O100 2.484 . S
Tb80 O101 2.440 . S
Tb80 O102 2.658 . S
Tb80 O103 2.409 . S
Tb80 O104 2.378 . S
Tb80 O108 2.325 . S
Tb80 O111 2.341 . S
Tb81 C91 2.809 . S
Tb81 O102 2.325 . S
Tb81 O105 2.341 . S
Tb81 O106 2.484 . S
Tb81 O107 2.440 . S
Tb81 O108 2.658 . S
Tb81 O109 2.409 . S
Tb81 O110 2.378 . S
C82 Tb80 2.809 . S
C82 C83 1.514 . S
C82 O100 1.248 . S
C82 O101 1.266 . S
C83 C82 1.514 . S
C83 C84 1.359 . S
C83 C88 1.348 . S
C84 C83 1.359 . S
C84 C85 1.380 . S
C84 H112 0.929 . S
C85 C84 1.380 . S
C85 C86 1.347 . S
C85 H113 0.931 . S
C86 C85 1.347 . S
C86 C87 1.369 . S
C87 C86 1.369 . S
C87 C88 1.408 . S
C87 H114 0.930 . S
C88 C83 1.348 . S
C88 C87 1.408 . S
C88 H115 0.930 . S
C89 O102 1.281 . S
C89 O103 1.254 . S
C90 O104 1.236 . S
C90 O105 1.266 . S
C91 Tb81 2.809 . S
C91 C92 1.514 . S
C91 O106 1.248 . S
C91 O107 1.266 . S
C92 C91 1.514 . S
C92 C93 1.359 . S
C92 C97 1.348 . S
C93 C92 1.359 . S
C93 C94 1.380 . S
C93 H116 0.929 . S
C94 C93 1.380 . S
C94 C95 1.347 . S
C94 H117 0.931 . S
C95 C94 1.347 . S
C95 C96 1.369 . S
C96 C95 1.369 . S
C96 C97 1.408 . S
C96 H118 0.930 . S
C97 C92 1.348 . S
C97 C96 1.408 . S
C97 H119 0.930 . S
C98 O108 1.281 . S
C98 O109 1.254 . S
C99 O110 1.236 . S
C99 O111 1.266 . S
O100 Tb80 2.484 . S
O100 C82 1.248 . S
O101 Tb80 2.440 . S
O101 C82 1.266 . S
O102 Tb80 2.658 . S
O102 Tb81 2.325 . S
O102 C89 1.281 . S
O103 Tb80 2.409 . S
O103 C89 1.254 . S
O104 Tb80 2.378 . S
O104 C90 1.236 . S
O105 Tb81 2.341 . S
O105 C90 1.266 . S
O106 Tb81 2.484 . S
O106 C91 1.248 . S
O107 Tb81 2.440 . S
O107 C91 1.266 . S
O108 Tb80 2.325 . S
O108 Tb81 2.658 . S
O108 C98 1.281 . S
O109 Tb81 2.409 . S
O109 C98 1.254 . S
O110 Tb81 2.378 . S
O110 C99 1.236 . S
O111 Tb80 2.341 . S
O111 C99 1.266 . S
H112 C84 0.929 . S
H113 C85 0.931 . S
H114 C87 0.930 . S
H115 C88 0.930 . S
H116 C93 0.929 . S
H117 C94 0.931 . S
H118 C96 0.930 . S
H119 C97 0.930 . S
P120 O131 1.490 . S
P120 C134 1.812 . S
P120 C140 1.803 . S
P120 C146 1.819 . S
H121 C135 0.941 . S
H122 C136 0.939 . S
H123 C138 0.940 . S
H124 C139 0.940 . S
H125 C141 0.939 . S
H126 C142 0.942 . S
H127 C144 0.940 . S
H128 C145 0.939 . S
H129 C147 0.941 1_565 S
H130 C151 0.939 . S
O131 P120 1.490 . S
H132 C148 0.939 1_565 S
H133 C150 0.940 . S
C134 P120 1.812 . S
C134 C135 1.389 1_545 S
C134 C139 1.391 . S
C135 H121 0.941 . S
C135 C134 1.389 1_565 S
C135 C136 1.397 . S
C136 H122 0.939 . S
C136 C135 1.397 . S
C136 C137 1.378 . S
C137 C136 1.378 . S
C137 C138 1.378 . S
C138 H123 0.940 . S
C138 C137 1.378 . S
C138 C139 1.396 1_565 S
C139 H124 0.940 . S
C139 C134 1.391 . S
C139 C138 1.396 1_545 S
C140 P120 1.803 . S
C140 C141 1.378 . S
C140 C145 1.400 . S
C141 H125 0.939 . S
C141 C140 1.378 . S
C141 C142 1.361 . S
C142 H126 0.942 . S
C142 C141 1.361 . S
C142 C143 1.369 . S
C143 C142 1.369 . S
C143 C144 1.404 . S
C144 H127 0.940 . S
C144 C143 1.404 . S
C144 C145 1.389 . S
C145 H128 0.939 . S
C145 C140 1.400 . S
C145 C144 1.389 . S
C146 P120 1.819 . S
C146 C147 1.391 . S
C146 C151 1.391 . S
C147 H129 0.941 1_545 S
C147 C146 1.391 . S
C147 C148 1.396 . S
C148 H132 0.939 1_545 S
C148 C147 1.396 . S
C148 C149 1.397 . S
C149 C148 1.397 . S
C149 C150 1.385 . S
C150 H133 0.940 . S
C150 C149 1.385 . S
C150 C151 1.388 . S
C151 H130 0.939 . S
C151 C146 1.391 . S
C151 C150 1.388 . S
P152 O163 1.490 . S
P152 C166 1.812 . S
P152 C172 1.803 . S
P152 C178 1.819 . S
H153 C167 0.941 . S
H154 C168 0.939 . S
H155 C170 0.940 . S
H156 C171 0.940 . S
H157 C173 0.939 . S
H158 C174 0.942 . S
H159 C176 0.940 . S
H160 C177 0.939 . S
H161 C179 0.941 . S
H162 C183 0.939 . S
O163 P152 1.490 . S
H164 C180 0.939 . S
H165 C182 0.940 . S
C166 P152 1.812 . S
C166 C167 1.389 . S
C166 C171 1.391 . S
C167 H153 0.941 . S
C167 C166 1.389 . S
C167 C168 1.397 . S
C168 H154 0.939 . S
C168 C167 1.397 . S
C168 C169 1.378 . S
C169 C168 1.378 . S
C169 C170 1.378 . S
C170 H155 0.940 . S
C170 C169 1.378 . S
C170 C171 1.396 . S
C171 H156 0.940 . S
C171 C166 1.391 . S
C171 C170 1.396 . S
C172 P152 1.803 . S
C172 C173 1.378 . S
C172 C177 1.400 . S
C173 H157 0.939 . S
C173 C172 1.378 . S
C173 C174 1.361 . S
C174 H158 0.942 . S
C174 C173 1.361 . S
C174 C175 1.369 . S
C175 C174 1.369 . S
C175 C176 1.404 . S
C176 H159 0.940 . S
C176 C175 1.404 . S
C176 C177 1.389 . S
C177 H160 0.939 . S
C177 C172 1.400 . S
C177 C176 1.389 . S
C178 P152 1.819 . S
C178 C179 1.391 . S
C178 C183 1.391 . S
C179 H161 0.941 . S
C179 C178 1.391 . S
C179 C180 1.396 . S
C180 H164 0.939 . S
C180 C179 1.396 . S
C180 C181 1.397 . S
C181 C180 1.397 . S
C181 C182 1.385 . S
C182 H165 0.940 . S
C182 C181 1.385 . S
C182 C183 1.388 . S
C183 H162 0.939 . S
C183 C178 1.391 . S
C183 C182 1.388 . S
P184 O195 1.490 . S
P184 C198 1.812 . S
P184 C204 1.803 1_455 S
P184 C210 1.819 . S
H185 C199 0.941 . S
H186 C200 0.939 . S
H187 C202 0.940 . S
H188 C203 0.940 . S
H189 C205 0.939 . S
H190 C206 0.942 . S
H191 C208 0.940 . S
H192 C209 0.939 . S
H193 C211 0.941 . S
H194 C215 0.939 . S
O195 P184 1.490 . S
H196 C212 0.939 . S
H197 C214 0.940 . S
C198 P184 1.812 . S
C198 C199 1.389 . S
C198 C203 1.391 . S
C199 H185 0.941 . S
C199 C198 1.389 . S
C199 C200 1.397 . S
C200 H186 0.939 . S
C200 C199 1.397 . S
C200 C201 1.378 . S
C201 C200 1.378 . S
C201 C202 1.378 . S
C202 H187 0.940 . S
C202 C201 1.378 . S
C202 C203 1.396 . S
C203 H188 0.940 . S
C203 C198 1.391 . S
C203 C202 1.396 . S
C204 P184 1.803 1_655 S
C204 C205 1.378 . S
C204 C209 1.400 . S
C205 H189 0.939 . S
C205 C204 1.378 . S
C205 C206 1.361 . S
C206 H190 0.942 . S
C206 C205 1.361 . S
C206 C207 1.369 . S
C207 C206 1.369 . S
C207 C208 1.404 . S
C208 H191 0.940 . S
C208 C207 1.404 . S
C208 C209 1.389 . S
C209 H192 0.939 . S
C209 C204 1.400 . S
C209 C208 1.389 . S
C210 P184 1.819 . S
C210 C211 1.391 . S
C210 C215 1.391 1_455 S
C211 H193 0.941 . S
C211 C210 1.391 . S
C211 C212 1.396 . S
C212 H196 0.939 . S
C212 C211 1.396 . S
C212 C213 1.397 . S
C213 C212 1.397 . S
C213 C214 1.385 1_455 S
C214 H197 0.940 . S
C214 C213 1.385 1_655 S
C214 C215 1.388 . S
C215 H194 0.939 . S
C215 C210 1.391 1_655 S
C215 C214 1.388 . S
P216 O227 1.490 . S
P216 C230 1.812 . S
P216 C236 1.803 . S
P216 C242 1.819 . S
H217 C231 0.941 . S
H218 C232 0.939 . S
H219 C234 0.940 . S
H220 C235 0.940 . S
H221 C237 0.939 . S
H222 C238 0.942 . S
H223 C240 0.940 . S
H224 C241 0.939 . S
H225 C243 0.941 . S
H226 C247 0.939 . S
O227 P216 1.490 . S
H228 C244 0.939 . S
H229 C246 0.940 1_655 S
C230 P216 1.812 . S
C230 C231 1.389 . S
C230 C235 1.391 . S
C231 H217 0.941 . S
C231 C230 1.389 . S
C231 C232 1.397 . S
C232 H218 0.939 . S
C232 C231 1.397 . S
C232 C233 1.378 . S
C233 C232 1.378 . S
C233 C234 1.378 . S
C234 H219 0.940 . S
C234 C233 1.378 . S
C234 C235 1.396 . S
C235 H220 0.940 . S
C235 C230 1.391 . S
C235 C234 1.396 . S
C236 P216 1.803 . S
C236 C237 1.378 . S
C236 C241 1.400 . S
C237 H221 0.939 . S
C237 C236 1.378 . S
C237 C238 1.361 1_455 S
C238 H222 0.942 . S
C238 C237 1.361 1_655 S
C238 C239 1.369 . S
C239 C238 1.369 . S
C239 C240 1.404 . S
C240 H223 0.940 . S
C240 C239 1.404 . S
C240 C241 1.389 1_655 S
C241 H224 0.939 . S
C241 C236 1.400 . S
C241 C240 1.389 1_455 S
C242 P216 1.819 . S
C242 C243 1.391 . S
C242 C247 1.391 . S
C243 H225 0.941 . S
C243 C242 1.391 . S
C243 C244 1.396 . S
C244 H228 0.939 . S
C244 C243 1.396 . S
C244 C245 1.397 . S
C245 C244 1.397 . S
C245 C246 1.385 . S
C246 H229 0.940 1_455 S
C246 C245 1.385 . S
C246 C247 1.388 . S
C247 H226 0.939 . S
C247 C242 1.391 . S
C247 C246 1.388 . S
P248 O259 1.490 . S
P248 C262 1.812 . S
P248 C268 1.803 1_545 S
P248 C274 1.819 . S
H249 C263 0.941 . S
H250 C264 0.939 . S
H251 C266 0.940 . S
H252 C267 0.940 . S
H253 C269 0.939 . S
H254 C270 0.942 . S
H255 C272 0.940 . S
H256 C273 0.939 . S
H257 C275 0.941 . S
H258 C279 0.939 . S
O259 P248 1.490 . S
H260 C276 0.939 . S
H261 C278 0.940 . S
C262 P248 1.812 . S
C262 C263 1.389 . S
C262 C267 1.391 . S
C263 H249 0.941 . S
C263 C262 1.389 . S
C263 C264 1.397 . S
C264 H250 0.939 . S
C264 C263 1.397 . S
C264 C265 1.378 . S
C265 C264 1.378 . S
C265 C266 1.378 . S
C266 H251 0.940 . S
C266 C265 1.378 . S
C266 C267 1.396 . S
C267 H252 0.940 . S
C267 C262 1.391 . S
C267 C266 1.396 . S
C268 P248 1.803 1_565 S
C268 C269 1.378 . S
C268 C273 1.400 . S
C269 H253 0.939 . S
C269 C268 1.378 . S
C269 C270 1.361 . S
C270 H254 0.942 . S
C270 C269 1.361 . S
C270 C271 1.369 . S
C271 C270 1.369 . S
C271 C272 1.404 . S
C272 H255 0.940 . S
C272 C271 1.404 . S
C272 C273 1.389 . S
C273 H256 0.939 . S
C273 C268 1.400 . S
C273 C272 1.389 . S
C274 P248 1.819 . S
C274 C275 1.391 . S
C274 C279 1.391 1_545 S
C275 H257 0.941 . S
C275 C274 1.391 . S
C275 C276 1.396 . S
C276 H260 0.939 . S
C276 C275 1.396 . S
C276 C277 1.397 . S
C277 C276 1.397 . S
C277 C278 1.385 1_545 S
C278 H261 0.940 . S
C278 C277 1.385 1_565 S
C278 C279 1.388 . S
C279 H258 0.939 . S
C279 C274 1.391 1_565 S
C279 C278 1.388 . S
P280 O291 1.490 . S
P280 C294 1.812 . S
P280 C300 1.803 . S
P280 C306 1.819 . S
H281 C295 0.941 . S
H282 C296 0.939 . S
H283 C298 0.940 . S
H284 C299 0.940 . S
H285 C301 0.939 . S
H286 C302 0.942 . S
H287 C304 0.940 . S
H288 C305 0.939 . S
H289 C307 0.941 . S
H290 C311 0.939 . S
O291 P280 1.490 . S
H292 C308 0.939 . S
H293 C310 0.940 . S
C294 P280 1.812 . S
C294 C295 1.389 . S
C294 C299 1.391 . S
C295 H281 0.941 . S
C295 C294 1.389 . S
C295 C296 1.397 . S
C296 H282 0.939 . S
C296 C295 1.397 . S
C296 C297 1.378 . S
C297 C296 1.378 . S
C297 C298 1.378 . S
C298 H283 0.940 . S
C298 C297 1.378 . S
C298 C299 1.396 . S
C299 H284 0.940 . S
C299 C294 1.391 . S
C299 C298 1.396 . S
C300 P280 1.803 . S
C300 C301 1.378 . S
C300 C305 1.400 . S
C301 H285 0.939 . S
C301 C300 1.378 . S
C301 C302 1.361 . S
C302 H286 0.942 . S
C302 C301 1.361 . S
C302 C303 1.369 . S
C303 C302 1.369 . S
C303 C304 1.404 . S
C304 H287 0.940 . S
C304 C303 1.404 . S
C304 C305 1.389 . S
C305 H288 0.939 . S
C305 C300 1.400 . S
C305 C304 1.389 . S
C306 P280 1.819 . S
C306 C307 1.391 . S
C306 C311 1.391 . S
C307 H289 0.941 . S
C307 C306 1.391 . S
C307 C308 1.396 . S
C308 H292 0.939 . S
C308 C307 1.396 . S
C308 C309 1.397 . S
C309 C308 1.397 . S
C309 C310 1.385 . S
C310 H293 0.940 . S
C310 C309 1.385 . S
C310 C311 1.388 . S
C311 H290 0.939 . S
C311 C306 1.391 . S
C311 C310 1.388 . S
H312 C320 0.929 . S
H313 C322 0.930 . S
H314 C324 0.930 . S
H315 C327 0.929 . S
H316 C330 0.930 . S
H317 C332 0.960 . S
H318 C332 0.960 . S
H319 C332 0.960 . S
C320 H312 0.929 . S
C320 C321 1.377 . S
C320 C322 1.384 . S
C321 C320 1.377 . S
C321 C327 1.390 . S
C322 H313 0.930 . S
C322 C320 1.384 . S
C322 C323 1.372 . S
C323 C322 1.372 . S
C323 C324 1.400 . S
C323 C328 1.490 . S
C324 H314 0.930 . S
C324 C323 1.400 . S
C324 C327 1.386 . S
H325 C341 0.930 . S
H326 C342 0.931 . S
C327 H315 0.929 . S
C327 C321 1.390 . S
C327 C324 1.386 . S
C328 C323 1.490 . S
C328 C330 1.395 . S
C328 C331 1.403 . S
H329 C335 0.930 . S
C330 H316 0.930 . S
C330 C328 1.395 . S
C330 C333 1.403 . S
C331 C328 1.403 . S
C331 C332 1.524 . S
C331 C335 1.400 . S
C332 H317 0.960 . S
C332 H318 0.960 . S
C332 H319 0.960 . S
C332 C331 1.524 . S
C333 C330 1.403 . S
C333 C334 1.392 . S
C333 C337 1.495 . S
C334 C333 1.392 . S
C334 C335 1.385 . S
C334 C336 1.478 . S
C335 H329 0.930 . S
C335 C331 1.400 . S
C335 C334 1.385 . S
C336 C334 1.478 . S
C336 C338 1.381 . S
C336 C342 1.383 . S
C337 C333 1.495 . S
C337 H343 0.959 . S
C337 H344 0.961 . S
C337 H345 0.960 . S
C338 C336 1.381 . S
C338 C339 1.394 . S
C338 H346 0.930 . S
C339 C338 1.394 . S
C339 C340 1.383 . S
C339 H347 0.929 . S
C340 C339 1.383 . S
C340 C341 1.377 . S
C341 H325 0.930 . S
C341 C340 1.377 . S
C341 C342 1.379 . S
C342 H326 0.931 . S
C342 C336 1.383 . S
C342 C341 1.379 . S
H343 C337 0.959 . S
H344 C337 0.961 . S
H345 C337 0.960 . S
H346 C338 0.930 . S
H347 C339 0.929 . S
H348 C356 0.929 . S
H349 C358 0.930 . S
H350 C360 0.930 . S
H351 C363 0.929 . S
H352 C366 0.930 . S
H353 C368 0.960 . S
H354 C368 0.960 . S
H355 C368 0.960 . S
C356 H348 0.929 . S
C356 C357 1.377 . S
C356 C358 1.384 . S
C357 C356 1.377 . S
C357 C363 1.390 . S
C358 H349 0.930 . S
C358 C356 1.384 . S
C358 C359 1.372 . S
C359 C358 1.372 . S
C359 C360 1.400 . S
C359 C364 1.490 . S
C360 H350 0.930 . S
C360 C359 1.400 . S
C360 C363 1.386 . S
H361 C377 0.930 . S
H362 C378 0.931 . S
C363 H351 0.929 . S
C363 C357 1.390 . S
C363 C360 1.386 . S
C364 C359 1.490 . S
C364 C366 1.395 . S
C364 C367 1.403 . S
H365 C371 0.930 . S
C366 H352 0.930 . S
C366 C364 1.395 . S
C366 C369 1.403 . S
C367 C364 1.403 . S
C367 C368 1.524 . S
C367 C371 1.400 . S
C368 H353 0.960 . S
C368 H354 0.960 . S
C368 H355 0.960 . S
C368 C367 1.524 . S
C369 C366 1.403 . S
C369 C370 1.392 . S
C369 C373 1.495 . S
C370 C369 1.392 . S
C370 C371 1.385 . S
C370 C372 1.478 . S
C371 H365 0.930 . S
C371 C367 1.400 . S
C371 C370 1.385 . S
C372 C370 1.478 . S
C372 C374 1.381 . S
C372 C378 1.383 . S
C373 C369 1.495 . S
C373 H379 0.959 . S
C373 H380 0.961 . S
C373 H381 0.960 . S
C374 C372 1.381 . S
C374 C375 1.394 . S
C374 H382 0.930 . S
C375 C374 1.394 . S
C375 C376 1.383 . S
C375 H383 0.929 . S
C376 C375 1.383 . S
C376 C377 1.377 . S
C377 H361 0.930 . S
C377 C376 1.377 . S
C377 C378 1.379 . S
C378 H362 0.931 . S
C378 C372 1.383 . S
C378 C377 1.379 . S
H379 C373 0.959 . S
H380 C373 0.961 . S
H381 C373 0.960 . S
H382 C374 0.930 . S
H383 C375 0.929 . S
H384 C392 0.929 . S
H385 C394 0.930 . S
H386 C396 0.930 . S
H387 C399 0.929 . S
H388 C402 0.930 . S
H389 C404 0.960 . S
H390 C404 0.960 . S
H391 C404 0.960 . S
C392 H384 0.929 . S
C392 C393 1.377 . S
C392 C394 1.384 . S
C393 C392 1.377 . S
C393 C399 1.390 . S
C394 H385 0.930 . S
C394 C392 1.384 . S
C394 C395 1.372 . S
C395 C394 1.372 . S
C395 C396 1.400 . S
C395 C400 1.490 . S
C396 H386 0.930 . S
C396 C395 1.400 . S
C396 C399 1.386 . S
H397 C413 0.930 . S
H398 C414 0.931 . S
C399 H387 0.929 . S
C399 C393 1.390 . S
C399 C396 1.386 . S
C400 C395 1.490 . S
C400 C402 1.395 . S
C400 C403 1.403 . S
H401 C407 0.930 . S
C402 H388 0.930 . S
C402 C400 1.395 . S
C402 C405 1.403 . S
C403 C400 1.403 . S
C403 C404 1.524 . S
C403 C407 1.400 . S
C404 H389 0.960 . S
C404 H390 0.960 . S
C404 H391 0.960 . S
C404 C403 1.524 . S
C405 C402 1.403 . S
C405 C406 1.392 . S
C405 C409 1.495 . S
C406 C405 1.392 . S
C406 C407 1.385 . S
C406 C408 1.478 . S
C407 H401 0.930 . S
C407 C403 1.400 . S
C407 C406 1.385 . S
C408 C406 1.478 . S
C408 C410 1.381 . S
C408 C414 1.383 . S
C409 C405 1.495 . S
C409 H415 0.959 . S
C409 H416 0.961 . S
C409 H417 0.960 . S
C410 C408 1.381 . S
C410 C411 1.394 . S
C410 H418 0.930 . S
C411 C410 1.394 . S
C411 C412 1.383 . S
C411 H419 0.929 . S
C412 C411 1.383 . S
C412 C413 1.377 . S
C413 H397 0.930 . S
C413 C412 1.377 . S
C413 C414 1.379 . S
C414 H398 0.931 . S
C414 C408 1.383 . S
C414 C413 1.379 . S
H415 C409 0.959 . S
H416 C409 0.961 . S
H417 C409 0.960 . S
H418 C410 0.930 . S
H419 C411 0.929 . S
H420 C428 0.929 . S
H421 C430 0.930 . S
H422 C432 0.930 . S
H423 C435 0.929 . S
H424 C438 0.930 . S
H425 C440 0.960 . S
H426 C440 0.960 . S
H427 C440 0.960 . S
C428 H420 0.929 . S
C428 C429 1.377 . S
C428 C430 1.384 . S
C429 C428 1.377 . S
C429 C435 1.390 . S
C430 H421 0.930 . S
C430 C428 1.384 . S
C430 C431 1.372 . S
C431 C430 1.372 . S
C431 C432 1.400 . S
C431 C436 1.490 . S
C432 H422 0.930 . S
C432 C431 1.400 . S
C432 C435 1.386 . S
H433 C449 0.930 . S
H434 C450 0.931 . S
C435 H423 0.929 . S
C435 C429 1.390 . S
C435 C432 1.386 . S
C436 C431 1.490 . S
C436 C438 1.395 . S
C436 C439 1.403 . S
H437 C443 0.930 . S
C438 H424 0.930 . S
C438 C436 1.395 . S
C438 C441 1.403 . S
C439 C436 1.403 . S
C439 C440 1.524 . S
C439 C443 1.400 . S
C440 H425 0.960 . S
C440 H426 0.960 . S
C440 H427 0.960 . S
C440 C439 1.524 . S
C441 C438 1.403 . S
C441 C442 1.392 . S
C441 C445 1.495 . S
C442 C441 1.392 . S
C442 C443 1.385 . S
C442 C444 1.478 . S
C443 H437 0.930 . S
C443 C439 1.400 . S
C443 C442 1.385 . S
C444 C442 1.478 . S
C444 C446 1.381 . S
C444 C450 1.383 . S
C445 C441 1.495 . S
C445 H451 0.959 . S
C445 H452 0.961 . S
C445 H453 0.960 . S
C446 C444 1.381 . S
C446 C447 1.394 . S
C446 H454 0.930 . S
C447 C446 1.394 . S
C447 C448 1.383 . S
C447 H455 0.929 . S
C448 C447 1.383 . S
C448 C449 1.377 . S
C449 H433 0.930 . S
C449 C448 1.377 . S
C449 C450 1.379 . S
C450 H434 0.931 . S
C450 C444 1.383 . S
C450 C449 1.379 . S
H451 C445 0.959 . S
H452 C445 0.961 . S
H453 C445 0.960 . S
H454 C446 0.930 . S
H455 C447 0.929 . S
H456 C464 0.929 . S
H457 C466 0.930 . S
H458 C468 0.930 . S
H459 C471 0.929 . S
H460 C474 0.930 . S
H461 C476 0.960 . S
H462 C476 0.960 . S
H463 C476 0.960 . S
C464 H456 0.929 . S
C464 C465 1.377 . S
C464 C466 1.384 . S
C465 C464 1.377 . S
C465 C471 1.390 . S
C466 H457 0.930 . S
C466 C464 1.384 . S
C466 C467 1.372 . S
C467 C466 1.372 . S
C467 C468 1.400 . S
C467 C472 1.490 . S
C468 H458 0.930 . S
C468 C467 1.400 . S
C468 C471 1.386 . S
H469 C485 0.930 . S
H470 C486 0.931 . S
C471 H459 0.929 . S
C471 C465 1.390 . S
C471 C468 1.386 . S
C472 C467 1.490 . S
C472 C474 1.395 . S
C472 C475 1.403 . S
H473 C479 0.930 . S
C474 H460 0.930 . S
C474 C472 1.395 . S
C474 C477 1.403 . S
C475 C472 1.403 . S
C475 C476 1.524 . S
C475 C479 1.400 . S
C476 H461 0.960 . S
C476 H462 0.960 . S
C476 H463 0.960 . S
C476 C475 1.524 . S
C477 C474 1.403 . S
C477 C478 1.392 . S
C477 C481 1.495 . S
C478 C477 1.392 . S
C478 C479 1.385 . S
C478 C480 1.478 . S
C479 H473 0.930 . S
C479 C475 1.400 . S
C479 C478 1.385 . S
C480 C478 1.478 . S
C480 C482 1.381 . S
C480 C486 1.383 . S
C481 C477 1.495 . S
C481 H487 0.959 . S
C481 H488 0.961 . S
C481 H489 0.960 . S
C482 C480 1.381 . S
C482 C483 1.394 . S
C482 H490 0.930 . S
C483 C482 1.394 . S
C483 C484 1.383 . S
C483 H491 0.929 . S
C484 C483 1.383 . S
C484 C485 1.377 . S
C485 H469 0.930 . S
C485 C484 1.377 . S
C485 C486 1.379 . S
C486 H470 0.931 . S
C486 C480 1.383 . S
C486 C485 1.379 . S
H487 C481 0.959 . S
H488 C481 0.961 . S
H489 C481 0.960 . S
H490 C482 0.930 . S
H491 C483 0.929 . S
H492 C500 0.929 . S
H493 C502 0.930 . S
H494 C504 0.930 . S
H495 C507 0.929 . S
H496 C510 0.930 . S
H497 C512 0.960 . S
H498 C512 0.960 . S
H499 C512 0.960 . S
C500 H492 0.929 . S
C500 C501 1.377 . S
C500 C502 1.384 . S
C501 C500 1.377 . S
C501 C507 1.390 . S
C502 H493 0.930 . S
C502 C500 1.384 . S
C502 C503 1.372 . S
C503 C502 1.372 . S
C503 C504 1.400 . S
C503 C508 1.490 . S
C504 H494 0.930 . S
C504 C503 1.400 . S
C504 C507 1.386 . S
H505 C521 0.930 . S
H506 C522 0.931 . S
C507 H495 0.929 . S
C507 C501 1.390 . S
C507 C504 1.386 . S
C508 C503 1.490 . S
C508 C510 1.395 . S
C508 C511 1.403 . S
H509 C515 0.930 . S
C510 H496 0.930 . S
C510 C508 1.395 . S
C510 C513 1.403 . S
C511 C508 1.403 . S
C511 C512 1.524 . S
C511 C515 1.400 . S
C512 H497 0.960 . S
C512 H498 0.960 . S
C512 H499 0.960 . S
C512 C511 1.524 . S
C513 C510 1.403 . S
C513 C514 1.392 . S
C513 C517 1.495 . S
C514 C513 1.392 . S
C514 C515 1.385 . S
C514 C516 1.478 . S
C515 H509 0.930 . S
C515 C511 1.400 . S
C515 C514 1.385 . S
C516 C514 1.478 . S
C516 C518 1.381 . S
C516 C522 1.383 . S
C517 C513 1.495 . S
C517 H523 0.959 . S
C517 H524 0.961 . S
C517 H525 0.960 . S
C518 C516 1.381 . S
C518 C519 1.394 . S
C518 H526 0.930 . S
C519 C518 1.394 . S
C519 C520 1.383 . S
C519 H527 0.929 . S
C520 C519 1.383 . S
C520 C521 1.377 . S
C521 H505 0.930 . S
C521 C520 1.377 . S
C521 C522 1.379 . S
C522 H506 0.931 . S
C522 C516 1.383 . S
C522 C521 1.379 . S
H523 C517 0.959 . S
H524 C517 0.961 . S
H525 C517 0.960 . S
H526 C518 0.930 . S
H527 C519 0.929 . S
H528 C536 0.929 . S
H529 C538 0.930 . S
H530 C540 0.930 . S
H531 C543 0.929 . S
H532 C546 0.930 . S
H533 C548 0.960 . S
H534 C548 0.960 . S
H535 C548 0.960 . S
C536 H528 0.929 . S
C536 C537 1.377 . S
C536 C538 1.384 . S
C537 C536 1.377 . S
C537 C543 1.390 . S
C538 H529 0.930 . S
C538 C536 1.384 . S
C538 C539 1.372 . S
C539 C538 1.372 . S
C539 C540 1.400 . S
C539 C544 1.490 . S
C540 H530 0.930 . S
C540 C539 1.400 . S
C540 C543 1.386 . S
H541 C557 0.930 . S
H542 C558 0.931 . S
C543 H531 0.929 . S
C543 C537 1.390 . S
C543 C540 1.386 . S
C544 C539 1.490 . S
C544 C546 1.395 . S
C544 C547 1.403 . S
H545 C551 0.930 . S
C546 H532 0.930 . S
C546 C544 1.395 . S
C546 C549 1.403 . S
C547 C544 1.403 . S
C547 C548 1.524 . S
C547 C551 1.400 . S
C548 H533 0.960 . S
C548 H534 0.960 . S
C548 H535 0.960 . S
C548 C547 1.524 . S
C549 C546 1.403 . S
C549 C550 1.392 . S
C549 C553 1.495 . S
C550 C549 1.392 . S
C550 C551 1.385 . S
C550 C552 1.478 . S
C551 H545 0.930 . S
C551 C547 1.400 . S
C551 C550 1.385 . S
C552 C550 1.478 . S
C552 C554 1.381 . S
C552 C558 1.383 . S
C553 C549 1.495 . S
C553 H559 0.959 . S
C553 H560 0.961 . S
C553 H561 0.960 . S
C554 C552 1.381 . S
C554 C555 1.394 . S
C554 H562 0.930 . S
C555 C554 1.394 . S
C555 C556 1.383 . S
C555 H563 0.929 . S
C556 C555 1.383 . S
C556 C557 1.377 . S
C557 H541 0.930 . S
C557 C556 1.377 . S
C557 C558 1.379 . S
C558 H542 0.931 . S
C558 C552 1.383 . S
C558 C557 1.379 . S
H559 C553 0.959 . S
H560 C553 0.961 . S
H561 C553 0.960 . S
H562 C554 0.930 . S
H563 C555 0.929 . S
H564 C572 0.929 . S
H565 C574 0.930 . S
H566 C576 0.930 . S
H567 C579 0.929 . S
H568 C582 0.930 . S
H569 C584 0.960 . S
H570 C584 0.960 . S
H571 C584 0.960 . S
C572 H564 0.929 . S
C572 C573 1.377 . S
C572 C574 1.384 . S
C573 C572 1.377 . S
C573 C579 1.390 . S
C574 H565 0.930 . S
C574 C572 1.384 . S
C574 C575 1.372 . S
C575 C574 1.372 . S
C575 C576 1.400 . S
C575 C580 1.490 . S
C576 H566 0.930 . S
C576 C575 1.400 . S
C576 C579 1.386 . S
H577 C593 0.930 . S
H578 C594 0.931 . S
C579 H567 0.929 . S
C579 C573 1.390 . S
C579 C576 1.386 . S
C580 C575 1.490 . S
C580 C582 1.395 . S
C580 C583 1.403 . S
H581 C587 0.930 . S
C582 H568 0.930 . S
C582 C580 1.395 . S
C582 C585 1.403 . S
C583 C580 1.403 . S
C583 C584 1.524 . S
C583 C587 1.400 . S
C584 H569 0.960 . S
C584 H570 0.960 . S
C584 H571 0.960 . S
C584 C583 1.524 . S
C585 C582 1.403 . S
C585 C586 1.392 . S
C585 C589 1.495 . S
C586 C585 1.392 . S
C586 C587 1.385 . S
C586 C588 1.478 . S
C587 H581 0.930 . S
C587 C583 1.400 . S
C587 C586 1.385 . S
C588 C586 1.478 . S
C588 C590 1.381 . S
C588 C594 1.383 . S
C589 C585 1.495 . S
C589 H595 0.959 . S
C589 H596 0.961 . S
C589 H597 0.960 . S
C590 C588 1.381 . S
C590 C591 1.394 . S
C590 H598 0.930 . S
C591 C590 1.394 . S
C591 C592 1.383 . S
C591 H599 0.929 . S
C592 C591 1.383 . S
C592 C593 1.377 . S
C593 H577 0.930 . S
C593 C592 1.377 . S
C593 C594 1.379 . S
C594 H578 0.931 . S
C594 C588 1.383 . S
C594 C593 1.379 . S
H595 C589 0.959 . S
H596 C589 0.961 . S
H597 C589 0.960 . S
H598 C590 0.930 . S
H599 C591 0.929 . S
H600 C608 0.929 . S
H601 C610 0.930 . S
H602 C612 0.930 . S
H603 C615 0.929 . S
H604 C618 0.930 . S
H605 C620 0.960 . S
H606 C620 0.960 . S
H607 C620 0.960 . S
C608 H600 0.929 . S
C608 C609 1.377 . S
C608 C610 1.384 . S
C609 C608 1.377 . S
C609 C615 1.390 . S
C610 H601 0.930 . S
C610 C608 1.384 . S
C610 C611 1.372 . S
C611 C610 1.372 . S
C611 C612 1.400 . S
C611 C616 1.490 . S
C612 H602 0.930 . S
C612 C611 1.400 . S
C612 C615 1.386 . S
H613 C629 0.930 . S
H614 C630 0.931 . S
C615 H603 0.929 . S
C615 C609 1.390 . S
C615 C612 1.386 . S
C616 C611 1.490 . S
C616 C618 1.395 . S
C616 C619 1.403 . S
H617 C623 0.930 . S
C618 H604 0.930 . S
C618 C616 1.395 . S
C618 C621 1.403 . S
C619 C616 1.403 . S
C619 C620 1.524 . S
C619 C623 1.400 . S
C620 H605 0.960 . S
C620 H606 0.960 . S
C620 H607 0.960 . S
C620 C619 1.524 . S
C621 C618 1.403 . S
C621 C622 1.392 . S
C621 C625 1.495 . S
C622 C621 1.392 . S
C622 C623 1.385 . S
C622 C624 1.478 . S
C623 H617 0.930 . S
C623 C619 1.400 . S
C623 C622 1.385 . S
C624 C622 1.478 . S
C624 C626 1.381 . S
C624 C630 1.383 . S
C625 C621 1.495 . S
C625 H631 0.959 . S
C625 H632 0.961 . S
C625 H633 0.960 . S
C626 C624 1.381 . S
C626 C627 1.394 . S
C626 H634 0.930 . S
C627 C626 1.394 . S
C627 C628 1.383 . S
C627 H635 0.929 . S
C628 C627 1.383 . S
C628 C629 1.377 . S
C629 H613 0.930 . S
C629 C628 1.377 . S
C629 C630 1.379 . S
C630 H614 0.931 . S
C630 C624 1.383 . S
C630 C629 1.379 . S
H631 C625 0.959 . S
H632 C625 0.961 . S
H633 C625 0.960 . S
H634 C626 0.930 . S
H635 C627 0.929 . S
H636 C644 0.929 . S
H637 C646 0.930 . S
H638 C648 0.930 . S
H639 C651 0.929 . S
H640 C654 0.930 . S
H641 C656 0.960 . S
H642 C656 0.960 . S
H643 C656 0.960 . S
C644 H636 0.929 . S
C644 C645 1.377 . S
C644 C646 1.384 . S
C645 C644 1.377 . S
C645 C651 1.390 . S
C646 H637 0.930 . S
C646 C644 1.384 . S
C646 C647 1.372 . S
C647 C646 1.372 . S
C647 C648 1.400 . S
C647 C652 1.490 . S
C648 H638 0.930 . S
C648 C647 1.400 . S
C648 C651 1.386 . S
H649 C665 0.930 . S
H650 C666 0.931 . S
C651 H639 0.929 . S
C651 C645 1.390 . S
C651 C648 1.386 . S
C652 C647 1.490 . S
C652 C654 1.395 . S
C652 C655 1.403 . S
H653 C659 0.930 . S
C654 H640 0.930 . S
C654 C652 1.395 . S
C654 C657 1.403 . S
C655 C652 1.403 . S
C655 C656 1.524 . S
C655 C659 1.400 . S
C656 H641 0.960 . S
C656 H642 0.960 . S
C656 H643 0.960 . S
C656 C655 1.524 . S
C657 C654 1.403 . S
C657 C658 1.392 . S
C657 C661 1.495 . S
C658 C657 1.392 . S
C658 C659 1.385 . S
C658 C660 1.478 . S
C659 H653 0.930 . S
C659 C655 1.400 . S
C659 C658 1.385 . S
C660 C658 1.478 . S
C660 C662 1.381 . S
C660 C666 1.383 . S
C661 C657 1.495 . S
C661 H667 0.959 . S
C661 H668 0.961 . S
C661 H669 0.960 . S
C662 C660 1.381 . S
C662 C663 1.394 . S
C662 H670 0.930 . S
C663 C662 1.394 . S
C663 C664 1.383 . S
C663 H671 0.929 . S
C664 C663 1.383 . S
C664 C665 1.377 . S
C665 H649 0.930 . S
C665 C664 1.377 . S
C665 C666 1.379 . S
C666 H650 0.931 . S
C666 C660 1.383 . S
C666 C665 1.379 . S
H667 C661 0.959 . S
H668 C661 0.961 . S
H669 C661 0.960 . S
H670 C662 0.930 . S
H671 C663 0.929 . S
H672 C680 0.929 . S
H673 C682 0.930 . S
H674 C684 0.930 . S
H675 C687 0.929 . S
H676 C690 0.930 . S
H677 C692 0.960 . S
H678 C692 0.960 . S
H679 C692 0.960 . S
C680 H672 0.929 . S
C680 C681 1.377 . S
C680 C682 1.384 . S
C681 C680 1.377 . S
C681 C687 1.390 . S
C682 H673 0.930 . S
C682 C680 1.384 . S
C682 C683 1.372 . S
C683 C682 1.372 . S
C683 C684 1.400 . S
C683 C688 1.490 . S
C684 H674 0.930 . S
C684 C683 1.400 . S
C684 C687 1.386 . S
H685 C701 0.930 . S
H686 C702 0.931 . S
C687 H675 0.929 . S
C687 C681 1.390 . S
C687 C684 1.386 . S
C688 C683 1.490 . S
C688 C690 1.395 . S
C688 C691 1.403 . S
H689 C695 0.930 . S
C690 H676 0.930 . S
C690 C688 1.395 . S
C690 C693 1.403 . S
C691 C688 1.403 . S
C691 C692 1.524 . S
C691 C695 1.400 . S
C692 H677 0.960 . S
C692 H678 0.960 . S
C692 H679 0.960 . S
C692 C691 1.524 . S
C693 C690 1.403 . S
C693 C694 1.392 . S
C693 C697 1.495 . S
C694 C693 1.392 . S
C694 C695 1.385 . S
C694 C696 1.478 . S
C695 H689 0.930 . S
C695 C691 1.400 . S
C695 C694 1.385 . S
C696 C694 1.478 . S
C696 C698 1.381 . S
C696 C702 1.383 . S
C697 C693 1.495 . S
C697 H703 0.959 . S
C697 H704 0.961 . S
C697 H705 0.960 . S
C698 C696 1.381 . S
C698 C699 1.394 . S
C698 H706 0.930 . S
C699 C698 1.394 . S
C699 C700 1.383 . S
C699 H707 0.929 . S
C700 C699 1.383 . S
C700 C701 1.377 . S
C701 H685 0.930 . S
C701 C700 1.377 . S
C701 C702 1.379 . S
C702 H686 0.931 . S
C702 C696 1.383 . S
C702 C701 1.379 . S
H703 C697 0.959 . S
H704 C697 0.961 . S
H705 C697 0.960 . S
H706 C698 0.930 . S
H707 C699 0.929 . S
H708 C716 0.929 . S
H709 C718 0.930 . S
H710 C720 0.930 . S
H711 C723 0.929 . S
H712 C726 0.930 . S
H713 C728 0.960 . S
H714 C728 0.960 . S
H715 C728 0.960 . S
C716 H708 0.929 . S
C716 C717 1.377 . S
C716 C718 1.384 . S
C717 C716 1.377 . S
C717 C723 1.390 . S
C718 H709 0.930 . S
C718 C716 1.384 . S
C718 C719 1.372 . S
C719 C718 1.372 . S
C719 C720 1.400 . S
C719 C724 1.490 . S
C720 H710 0.930 . S
C720 C719 1.400 . S
C720 C723 1.386 . S
H721 C737 0.930 . S
H722 C738 0.931 . S
C723 H711 0.929 . S
C723 C717 1.390 . S
C723 C720 1.386 . S
C724 C719 1.490 . S
C724 C726 1.395 . S
C724 C727 1.403 . S
H725 C731 0.930 . S
C726 H712 0.930 . S
C726 C724 1.395 . S
C726 C729 1.403 . S
C727 C724 1.403 . S
C727 C728 1.524 . S
C727 C731 1.400 . S
C728 H713 0.960 . S
C728 H714 0.960 . S
C728 H715 0.960 . S
C728 C727 1.524 . S
C729 C726 1.403 . S
C729 C730 1.392 . S
C729 C733 1.495 . S
C730 C729 1.392 . S
C730 C731 1.385 . S
C730 C732 1.478 . S
C731 H725 0.930 . S
C731 C727 1.400 . S
C731 C730 1.385 . S
C732 C730 1.478 . S
C732 C734 1.381 . S
C732 C738 1.383 . S
C733 C729 1.495 . S
C733 H739 0.959 . S
C733 H740 0.961 . S
C733 H741 0.960 . S
C734 C732 1.381 . S
C734 C735 1.394 . S
C734 H742 0.930 . S
C735 C734 1.394 . S
C735 C736 1.383 . S
C735 H743 0.929 . S
C736 C735 1.383 . S
C736 C737 1.377 . S
C737 H721 0.930 . S
C737 C736 1.377 . S
C737 C738 1.379 . S
C738 H722 0.931 . S
C738 C732 1.383 . S
C738 C737 1.379 . S
H739 C733 0.959 . S
H740 C733 0.961 . S
H741 C733 0.960 . S
H742 C734 0.930 . S
H743 C735 0.929 . S
H744 C752 0.929 . S
H745 C754 0.930 . S
H746 C756 0.930 . S
H747 C759 0.929 . S
H748 C762 0.930 . S
H749 C764 0.960 . S
H750 C764 0.960 . S
H751 C764 0.960 . S
C752 H744 0.929 . S
C752 C753 1.377 1_655 S
C752 C754 1.384 . S
C753 C752 1.377 1_455 S
C753 C759 1.390 . S
C754 H745 0.930 . S
C754 C752 1.384 . S
C754 C755 1.372 1_655 S
C755 C754 1.372 1_455 S
C755 C756 1.400 . S
C755 C760 1.490 . S
C756 H746 0.930 . S
C756 C755 1.400 . S
C756 C759 1.386 . S
H757 C773 0.930 . S
H758 C774 0.953 . S
C759 H747 0.929 . S
C759 C753 1.390 . S
C759 C756 1.386 . S
C760 C755 1.490 . S
C760 C762 1.395 1_455 S
C760 C763 1.403 . S
H761 C767 0.930 . S
C762 H748 0.930 . S
C762 C760 1.395 1_655 S
C762 C765 1.403 . S
C763 C760 1.403 . S
C763 C764 1.524 . S
C763 C767 1.400 . S
C764 H749 0.960 . S
C764 H750 0.960 . S
C764 H751 0.960 . S
C764 C763 1.524 . S
C765 C762 1.403 . S
C765 C766 1.392 1_655 S
C765 C769 1.495 . S
C766 C765 1.392 1_455 S
C766 C767 1.385 . S
C766 C768 1.478 . S
C767 H761 0.930 . S
C767 C763 1.400 . S
C767 C766 1.385 . S
C768 C766 1.478 . S
C768 C770 1.381 1_454 S
C768 C774 1.383 1_554 S
C769 C765 1.495 . S
C769 H775 0.959 . S
C769 H776 0.961 . S
C769 H777 0.960 . S
C770 C768 1.381 1_656 S
C770 C771 1.394 . S
C770 H778 0.930 1_556 S
C771 C770 1.394 . S
C771 C772 1.383 1_655 S
C771 H779 0.929 . S
C772 C771 1.383 1_455 S
C772 C773 1.377 . S
C773 H757 0.930 . S
C773 C772 1.377 . S
C773 C774 1.379 . S
C774 H758 0.953 . S
C774 C768 1.383 1_556 S
C774 C773 1.379 . S
H775 C769 0.959 . S
H776 C769 0.961 . S
H777 C769 0.960 . S
H778 C770 0.930 1_554 S
H779 C771 0.929 . S
H780 C788 0.929 . S
H781 C790 0.930 . S
H782 C792 0.930 . S
H783 C795 0.929 . S
H784 C798 0.930 . S
H785 C800 0.960 . S
H786 C800 0.960 . S
H787 C800 0.960 1_545 S
C788 H780 0.929 . S
C788 C789 1.377 . S
C788 C790 1.384 . S
C789 C788 1.377 . S
C789 C795 1.390 . S
C790 H781 0.930 . S
C790 C788 1.384 . S
C790 C791 1.372 . S
C791 C790 1.372 . S
C791 C792 1.400 . S
C791 C796 1.490 . S
C792 H782 0.930 . S
C792 C791 1.400 . S
C792 C795 1.386 . S
H793 C809 0.930 . S
H794 C810 0.931 . S
C795 H783 0.929 . S
C795 C789 1.390 . S
C795 C792 1.386 . S
C796 C791 1.490 . S
C796 C798 1.395 . S
C796 C799 1.403 . S
H797 C803 0.930 . S
C798 H784 0.930 . S
C798 C796 1.395 . S
C798 C801 1.403 . S
C799 C796 1.403 . S
C799 C800 1.524 1_545 S
C799 C803 1.400 . S
C800 H785 0.960 . S
C800 H786 0.960 . S
C800 H787 0.960 1_565 S
C800 C799 1.524 1_565 S
C801 C798 1.403 . S
C801 C802 1.392 . S
C801 C805 1.495 . S
C802 C801 1.392 . S
C802 C803 1.385 . S
C802 C804 1.478 . S
C803 H797 0.930 . S
C803 C799 1.400 . S
C803 C802 1.385 . S
C804 C802 1.478 . S
C804 C806 1.381 . S
C804 C810 1.383 . S
C805 C801 1.495 . S
C805 H811 0.959 . S
C805 H812 0.961 . S
C805 H813 0.960 . S
C806 C804 1.381 . S
C806 C807 1.394 . S
C806 H814 0.930 . S
C807 C806 1.394 . S
C807 C808 1.383 . S
C807 H815 0.929 . S
C808 C807 1.383 . S
C808 C809 1.377 . S
C809 H793 0.930 . S
C809 C808 1.377 . S
C809 C810 1.379 . S
C810 H794 0.931 . S
C810 C804 1.383 . S
C810 C809 1.379 . S
H811 C805 0.959 . S
H812 C805 0.961 . S
H813 C805 0.960 . S
H814 C806 0.930 . S
H815 C807 0.929 . S
H816 C824 0.929 . S
H817 C826 0.930 . S
H818 C828 0.930 . S
H819 C831 0.929 . S
H820 C834 0.930 . S
H821 C836 0.960 . S
H822 C836 0.960 . S
H823 C836 0.960 . S
C824 H816 0.929 . S
C824 C825 1.377 . S
C824 C826 1.384 . S
C825 C824 1.377 . S
C825 C831 1.390 . S
C826 H817 0.930 . S
C826 C824 1.384 . S
C826 C827 1.372 . S
C827 C826 1.372 . S
C827 C828 1.400 . S
C827 C832 1.490 . S
C828 H818 0.930 . S
C828 C827 1.400 . S
C828 C831 1.386 . S
H829 C845 0.930 . S
H830 C846 0.931 . S
C831 H819 0.929 . S
C831 C825 1.390 . S
C831 C828 1.386 . S
C832 C827 1.490 . S
C832 C834 1.395 . S
C832 C835 1.403 . S
H833 C839 0.930 . S
C834 H820 0.930 . S
C834 C832 1.395 . S
C834 C837 1.403 . S
C835 C832 1.403 . S
C835 C836 1.524 . S
C835 C839 1.400 . S
C836 H821 0.960 . S
C836 H822 0.960 . S
C836 H823 0.960 . S
C836 C835 1.524 . S
C837 C834 1.403 . S
C837 C838 1.392 . S
C837 C841 1.495 . S
C838 C837 1.392 . S
C838 C839 1.385 . S
C838 C840 1.478 . S
C839 H833 0.930 . S
C839 C835 1.400 . S
C839 C838 1.385 . S
C840 C838 1.478 . S
C840 C842 1.381 . S
C840 C846 1.383 . S
C841 C837 1.495 . S
C841 H847 0.959 . S
C841 H848 0.961 . S
C841 H849 0.960 . S
C842 C840 1.381 . S
C842 C843 1.394 . S
C842 H850 0.930 . S
C843 C842 1.394 . S
C843 C844 1.383 . S
C843 H851 0.929 . S
C844 C843 1.383 . S
C844 C845 1.377 . S
C845 H829 0.930 . S
C845 C844 1.377 . S
C845 C846 1.379 . S
C846 H830 0.931 . S
C846 C840 1.383 . S
C846 C845 1.379 . S
H847 C841 0.959 . S
H848 C841 0.961 . S
H849 C841 0.960 . S
H850 C842 0.930 . S
H851 C843 0.929 . S
H852 C860 0.929 . S
H853 C862 0.930 . S
H854 C864 0.930 . S
H855 C867 0.929 . S
H856 C870 0.930 . S
H857 C872 0.960 . S
H858 C872 0.960 . S
H859 C872 0.960 . S
C860 H852 0.929 . S
C860 C861 1.377 . S
C860 C862 1.384 . S
C861 C860 1.377 . S
C861 C867 1.390 . S
C862 H853 0.930 . S
C862 C860 1.384 . S
C862 C863 1.372 . S
C863 C862 1.372 . S
C863 C864 1.400 . S
C863 C868 1.490 . S
C864 H854 0.930 . S
C864 C863 1.400 . S
C864 C867 1.386 . S
H865 C881 0.930 . S
H866 C882 0.938 . S
C867 H855 0.929 . S
C867 C861 1.390 . S
C867 C864 1.386 . S
C868 C863 1.490 . S
C868 C870 1.395 1_545 S
C868 C871 1.403 . S
H869 C875 0.930 . S
C870 H856 0.930 . S
C870 C868 1.395 1_565 S
C870 C873 1.403 . S
C871 C868 1.403 . S
C871 C872 1.524 . S
C871 C875 1.400 . S
C872 H857 0.960 . S
C872 H858 0.960 . S
C872 H859 0.960 . S
C872 C871 1.524 . S
C873 C870 1.403 . S
C873 C874 1.392 1_565 S
C873 C877 1.495 . S
C874 C873 1.392 1_545 S
C874 C875 1.385 . S
C874 C876 1.478 . S
C875 H869 0.930 . S
C875 C871 1.400 . S
C875 C874 1.385 . S
C876 C874 1.478 . S
C876 C878 1.381 . S
C876 C882 1.376 1_545 S
C877 C873 1.495 . S
C877 H883 0.959 . S
C877 H884 0.961 . S
C877 H885 0.960 . S
C878 C876 1.381 . S
C878 C879 1.394 . S
C878 H886 0.930 . S
C879 C878 1.394 . S
C879 C880 1.383 . S
C879 H887 0.929 . S
C880 C879 1.383 . S
C880 C881 1.377 1_545 S
C881 H865 0.930 . S
C881 C880 1.377 1_565 S
C881 C882 1.380 . S
C882 H866 0.938 . S
C882 C876 1.376 1_565 S
C882 C881 1.380 . S
H883 C877 0.959 . S
H884 C877 0.961 . S
H885 C877 0.960 . S
H886 C878 0.930 . S
H887 C879 0.929 . S
H888 C896 0.929 . S
H889 C898 0.930 . S
H890 C900 0.930 . S
H891 C903 0.929 . S
H892 C906 0.930 . S
H893 C908 0.960 . S
H894 C908 0.960 . S
H895 C908 0.960 . S
C896 H888 0.929 . S
C896 C897 1.377 . S
C896 C898 1.384 . S
C897 C896 1.377 . S
C897 C903 1.390 . S
C898 H889 0.930 . S
C898 C896 1.384 . S
C898 C899 1.372 . S
C899 C898 1.372 . S
C899 C900 1.400 . S
C899 C904 1.490 . S
C900 H890 0.930 . S
C900 C899 1.400 . S
C900 C903 1.386 . S
H901 C917 0.930 . S
H902 C918 0.931 1_556 S
C903 H891 0.929 . S
C903 C897 1.390 . S
C903 C900 1.386 . S
C904 C899 1.490 . S
C904 C906 1.395 . S
C904 C907 1.403 . S
H905 C911 0.930 . S
C906 H892 0.930 . S
C906 C904 1.395 . S
C906 C909 1.403 . S
C907 C904 1.403 . S
C907 C908 1.524 . S
C907 C911 1.400 . S
C908 H893 0.960 . S
C908 H894 0.960 . S
C908 H895 0.960 . S
C908 C907 1.524 . S
C909 C906 1.403 . S
C909 C910 1.392 . S
C909 C913 1.495 . S
C910 C909 1.392 . S
C910 C911 1.385 . S
C910 C912 1.478 . S
C911 H905 0.930 . S
C911 C907 1.400 . S
C911 C910 1.385 . S
C912 C910 1.478 . S
C912 C914 1.381 1_556 S
C912 C918 1.383 1_556 S
C913 C909 1.495 . S
C913 H919 0.959 . S
C913 H920 0.961 . S
C913 H921 0.960 . S
C914 C912 1.381 1_554 S
C914 C915 1.394 . S
C914 H922 0.930 . S
C915 C914 1.394 . S
C915 C916 1.383 . S
C915 H923 0.929 . S
C916 C915 1.383 . S
C916 C917 1.377 . S
C917 H901 0.930 . S
C917 C916 1.377 . S
C917 C918 1.379 . S
C918 H902 0.931 1_554 S
C918 C912 1.383 1_554 S
C918 C917 1.379 . S
H919 C913 0.959 . S
H920 C913 0.961 . S
H921 C913 0.960 . S
H922 C914 0.930 . S
H923 C915 0.929 . S
H924 C932 0.929 1_655 S
H925 C934 0.930 1_655 S
H926 C936 0.930 . S
H927 C939 0.929 . S
H928 C942 0.930 1_655 S
H929 C944 0.960 . S
H930 C944 0.960 . S
H931 C944 0.960 . S
C932 H924 0.929 1_455 S
C932 C933 1.377 . S
C932 C934 1.384 . S
C933 C932 1.377 . S
C933 C939 1.390 . S
C934 H925 0.930 1_455 S
C934 C932 1.384 . S
C934 C935 1.372 . S
C935 C934 1.372 . S
C935 C936 1.400 . S
C935 C940 1.490 . S
C936 H926 0.930 . S
C936 C935 1.400 . S
C936 C939 1.386 . S
H937 C953 0.930 . S
H938 C954 0.931 . S
C939 H927 0.929 . S
C939 C933 1.390 . S
C939 C936 1.386 . S
C940 C935 1.490 . S
C940 C942 1.395 . S
C940 C943 1.403 . S
H941 C947 0.930 . S
C942 H928 0.930 1_455 S
C942 C940 1.395 . S
C942 C945 1.403 . S
C943 C940 1.403 . S
C943 C944 1.524 . S
C943 C947 1.400 . S
C944 H929 0.960 . S
C944 H930 0.960 . S
C944 H931 0.960 . S
C944 C943 1.524 . S
C945 C942 1.403 . S
C945 C946 1.392 . S
C945 C949 1.495 1_455 S
C946 C945 1.392 . S
C946 C947 1.385 . S
C946 C948 1.478 . S
C947 H941 0.930 . S
C947 C943 1.400 . S
C947 C946 1.385 . S
C948 C946 1.478 . S
C948 C950 1.381 . S
C948 C954 1.383 . S
C949 C945 1.495 1_655 S
C949 H955 0.959 . S
C949 H956 0.961 . S
C949 H957 0.960 . S
C950 C948 1.381 . S
C950 C951 1.394 . S
C950 H958 0.930 1_455 S
C951 C950 1.394 . S
C951 C952 1.383 . S
C951 H959 0.929 1_455 S
C952 C951 1.383 . S
C952 C953 1.377 . S
C953 H937 0.930 . S
C953 C952 1.377 . S
C953 C954 1.379 . S
C954 H938 0.931 . S
C954 C948 1.383 . S
C954 C953 1.379 . S
H955 C949 0.959 . S
H956 C949 0.961 . S
H957 C949 0.960 . S
H958 C950 0.930 1_655 S
H959 C951 0.929 1_655 S
C321 C10 2.889 . S
C340 C303 2.843 . S
C357 C59 3.019 . S
C376 C239 2.962 . S
C393 C90 2.919 . S
C412 C271 2.891 . S
C429 C19 3.028 . S
C448 C297 2.966 . S
C484 C233 2.853 . S
C465 C50 2.898 . S
C520 C265 2.942 . S
C501 C99 2.996 . S
C537 C46 0.371 . S
C556 C175 0.293 . S
C573 C95 0.309 . S
C592 C207 0.343 . S
C609 C6 0.338 . S
C628 C137 0.444 . S
C664 C169 0.247 . S
C645 C55 0.312 . S
C700 C201 0.405 . S
C681 C86 0.355 . S
C717 C15 0.315 . S
C736 C143 0.400 . S
C772 C213 1.068 . S
C753 C9 1.098 . S
C789 C49 1.084 . S
C808 C149 1.108 . S
C825 C89 1.097 . S
C844 C181 1.121 . S
C880 C277 1.748 . S
C861 C58 1.693 . S
C916 C309 1.726 . S
C897 C98 1.701 . S
C933 C18 1.703 . S
C952 C245 1.734 . S
