# Generated by pormake.
# Topology bwt, (3,3)-cn, num edge types: 1
# Building blocks:
#     Node 0, Type 0, BuildingBlock: WUSLED_clean_sbu_0, # of connection points: 3
#     Node 1, Type 0, BuildingBlock: WUSLED_clean_sbu_0, # of connection points: 3
#     Node 2, Type 0, BuildingBlock: WUSLED_clean_sbu_0, # of connection points: 3
#     Node 3, Type 0, BuildingBlock: WUSLED_clean_sbu_0, # of connection points: 3
#     Node 4, Type 0, BuildingBlock: WUSLED_clean_sbu_0, # of connection points: 3
#     Node 5, Type 0, BuildingBlock: WUSLED_clean_sbu_0, # of connection points: 3
#     Node 6, Type 0, BuildingBlock: WUSLED_clean_sbu_0, # of connection points: 3
#     Node 7, Type 0, BuildingBlock: WUSLED_clean_sbu_0, # of connection points: 3
#     Node 8, Type 0, BuildingBlock: WUSLED_clean_sbu_0, # of connection points: 3
#     Node 9, Type 0, BuildingBlock: WUSLED_clean_sbu_0, # of connection points: 3
#     Node 10, Type 0, BuildingBlock: WUSLED_clean_sbu_0, # of connection points: 3
#     Node 11, Type 0, BuildingBlock: WUSLED_clean_sbu_0, # of connection points: 3
#     Node 12, Type 0, BuildingBlock: WUSLED_clean_sbu_0, # of connection points: 3
#     Node 13, Type 0, BuildingBlock: WUSLED_clean_sbu_0, # of connection points: 3
#     Node 14, Type 0, BuildingBlock: WUSLED_clean_sbu_0, # of connection points: 3
#     Node 15, Type 0, BuildingBlock: WUSLED_clean_sbu_0, # of connection points: 3
#     Node 16, Type 0, BuildingBlock: WUSLED_clean_sbu_0, # of connection points: 3
#     Node 17, Type 0, BuildingBlock: WUSLED_clean_sbu_0, # of connection points: 3
#     Node 18, Type 0, BuildingBlock: WUSLED_clean_sbu_0, # of connection points: 3
#     Node 19, Type 0, BuildingBlock: WUSLED_clean_sbu_0, # of connection points: 3
#     Node 20, Type 0, BuildingBlock: WUSLED_clean_sbu_0, # of connection points: 3
#     Node 21, Type 0, BuildingBlock: WUSLED_clean_sbu_0, # of connection points: 3
#     Node 22, Type 0, BuildingBlock: WUSLED_clean_sbu_0, # of connection points: 3
#     Node 23, Type 0, BuildingBlock: WUSLED_clean_sbu_0, # of connection points: 3
#     Node 24, Type 1, BuildingBlock: QEWDON_clean_linker_0, # of connection points: 3
#     Node 25, Type 1, BuildingBlock: QEWDON_clean_linker_0, # of connection points: 3
#     Node 26, Type 1, BuildingBlock: QEWDON_clean_linker_0, # of connection points: 3
#     Node 27, Type 1, BuildingBlock: QEWDON_clean_linker_0, # of connection points: 3
#     Node 28, Type 1, BuildingBlock: QEWDON_clean_linker_0, # of connection points: 3
#     Node 29, Type 1, BuildingBlock: QEWDON_clean_linker_0, # of connection points: 3
#     Node 30, Type 1, BuildingBlock: QEWDON_clean_linker_0, # of connection points: 3
#     Node 31, Type 1, BuildingBlock: QEWDON_clean_linker_0, # of connection points: 3
#     Node 32, Type 1, BuildingBlock: QEWDON_clean_linker_0, # of connection points: 3
#     Node 33, Type 1, BuildingBlock: QEWDON_clean_linker_0, # of connection points: 3
#     Node 34, Type 1, BuildingBlock: QEWDON_clean_linker_0, # of connection points: 3
#     Node 35, Type 1, BuildingBlock: QEWDON_clean_linker_0, # of connection points: 3
#     Node 36, Type 1, BuildingBlock: QEWDON_clean_linker_0, # of connection points: 3
#     Node 37, Type 1, BuildingBlock: QEWDON_clean_linker_0, # of connection points: 3
#     Node 38, Type 1, BuildingBlock: QEWDON_clean_linker_0, # of connection points: 3
#     Node 39, Type 1, BuildingBlock: QEWDON_clean_linker_0, # of connection points: 3
#     Node 40, Type 1, BuildingBlock: QEWDON_clean_linker_0, # of connection points: 3
#     Node 41, Type 1, BuildingBlock: QEWDON_clean_linker_0, # of connection points: 3
#     Node 42, Type 1, BuildingBlock: QEWDON_clean_linker_0, # of connection points: 3
#     Node 43, Type 1, BuildingBlock: QEWDON_clean_linker_0, # of connection points: 3
#     Node 44, Type 1, BuildingBlock: QEWDON_clean_linker_0, # of connection points: 3
#     Node 45, Type 1, BuildingBlock: QEWDON_clean_linker_0, # of connection points: 3
#     Node 46, Type 1, BuildingBlock: QEWDON_clean_linker_0, # of connection points: 3
#     Node 47, Type 1, BuildingBlock: QEWDON_clean_linker_0, # of connection points: 3
#     Edge 48, Type (0, 1), BuildingBlock: KIFKEQ_clean_linker_1, # of connection points: 2
#     Edge 49, Type (0, 1), BuildingBlock: KIFKEQ_clean_linker_1, # of connection points: 2
#     Edge 50, Type (0, 1), BuildingBlock: KIFKEQ_clean_linker_1, # of connection points: 2
#     Edge 51, Type (0, 1), BuildingBlock: KIFKEQ_clean_linker_1, # of connection points: 2
#     Edge 52, Type (0, 1), BuildingBlock: KIFKEQ_clean_linker_1, # of connection points: 2
#     Edge 53, Type (0, 1), BuildingBlock: KIFKEQ_clean_linker_1, # of connection points: 2
#     Edge 54, Type (0, 1), BuildingBlock: KIFKEQ_clean_linker_1, # of connection points: 2
#     Edge 55, Type (0, 1), BuildingBlock: KIFKEQ_clean_linker_1, # of connection points: 2
#     Edge 56, Type (0, 1), BuildingBlock: KIFKEQ_clean_linker_1, # of connection points: 2
#     Edge 57, Type (0, 1), BuildingBlock: KIFKEQ_clean_linker_1, # of connection points: 2
#     Edge 58, Type (0, 1), BuildingBlock: KIFKEQ_clean_linker_1, # of connection points: 2
#     Edge 59, Type (0, 1), BuildingBlock: KIFKEQ_clean_linker_1, # of connection points: 2
#     Edge 60, Type (0, 1), BuildingBlock: KIFKEQ_clean_linker_1, # of connection points: 2
#     Edge 61, Type (0, 1), BuildingBlock: KIFKEQ_clean_linker_1, # of connection points: 2
#     Edge 62, Type (0, 1), BuildingBlock: KIFKEQ_clean_linker_1, # of connection points: 2
#     Edge 63, Type (0, 1), BuildingBlock: KIFKEQ_clean_linker_1, # of connection points: 2
#     Edge 64, Type (0, 1), BuildingBlock: KIFKEQ_clean_linker_1, # of connection points: 2
#     Edge 65, Type (0, 1), BuildingBlock: KIFKEQ_clean_linker_1, # of connection points: 2
#     Edge 66, Type (0, 1), BuildingBlock: KIFKEQ_clean_linker_1, # of connection points: 2
#     Edge 67, Type (0, 1), BuildingBlock: KIFKEQ_clean_linker_1, # of connection points: 2
#     Edge 68, Type (0, 1), BuildingBlock: KIFKEQ_clean_linker_1, # of connection points: 2
#     Edge 69, Type (0, 1), BuildingBlock: KIFKEQ_clean_linker_1, # of connection points: 2
#     Edge 70, Type (0, 1), BuildingBlock: KIFKEQ_clean_linker_1, # of connection points: 2
#     Edge 71, Type (0, 1), BuildingBlock: KIFKEQ_clean_linker_1, # of connection points: 2
#     Edge 72, Type (0, 1), BuildingBlock: KIFKEQ_clean_linker_1, # of connection points: 2
#     Edge 73, Type (0, 1), BuildingBlock: KIFKEQ_clean_linker_1, # of connection points: 2
#     Edge 74, Type (0, 1), BuildingBlock: KIFKEQ_clean_linker_1, # of connection points: 2
#     Edge 75, Type (0, 1), BuildingBlock: KIFKEQ_clean_linker_1, # of connection points: 2
#     Edge 76, Type (0, 1), BuildingBlock: KIFKEQ_clean_linker_1, # of connection points: 2
#     Edge 77, Type (0, 1), BuildingBlock: KIFKEQ_clean_linker_1, # of connection points: 2
#     Edge 78, Type (0, 1), BuildingBlock: KIFKEQ_clean_linker_1, # of connection points: 2
#     Edge 79, Type (0, 1), BuildingBlock: KIFKEQ_clean_linker_1, # of connection points: 2
#     Edge 80, Type (0, 1), BuildingBlock: KIFKEQ_clean_linker_1, # of connection points: 2
#     Edge 81, Type (0, 1), BuildingBlock: KIFKEQ_clean_linker_1, # of connection points: 2
#     Edge 82, Type (0, 1), BuildingBlock: KIFKEQ_clean_linker_1, # of connection points: 2
#     Edge 83, Type (0, 1), BuildingBlock: KIFKEQ_clean_linker_1, # of connection points: 2
#     Edge 84, Type (0, 1), BuildingBlock: KIFKEQ_clean_linker_1, # of connection points: 2
#     Edge 85, Type (0, 1), BuildingBlock: KIFKEQ_clean_linker_1, # of connection points: 2
#     Edge 86, Type (0, 1), BuildingBlock: KIFKEQ_clean_linker_1, # of connection points: 2
#     Edge 87, Type (0, 1), BuildingBlock: KIFKEQ_clean_linker_1, # of connection points: 2
#     Edge 88, Type (0, 1), BuildingBlock: KIFKEQ_clean_linker_1, # of connection points: 2
#     Edge 89, Type (0, 1), BuildingBlock: KIFKEQ_clean_linker_1, # of connection points: 2
#     Edge 90, Type (0, 1), BuildingBlock: KIFKEQ_clean_linker_1, # of connection points: 2
#     Edge 91, Type (0, 1), BuildingBlock: KIFKEQ_clean_linker_1, # of connection points: 2
#     Edge 92, Type (0, 1), BuildingBlock: KIFKEQ_clean_linker_1, # of connection points: 2
#     Edge 93, Type (0, 1), BuildingBlock: KIFKEQ_clean_linker_1, # of connection points: 2
#     Edge 94, Type (0, 1), BuildingBlock: KIFKEQ_clean_linker_1, # of connection points: 2
#     Edge 95, Type (0, 1), BuildingBlock: KIFKEQ_clean_linker_1, # of connection points: 2
#     Edge 96, Type (0, 1), BuildingBlock: KIFKEQ_clean_linker_1, # of connection points: 2
#     Edge 97, Type (0, 1), BuildingBlock: KIFKEQ_clean_linker_1, # of connection points: 2
#     Edge 98, Type (0, 1), BuildingBlock: KIFKEQ_clean_linker_1, # of connection points: 2
#     Edge 99, Type (0, 1), BuildingBlock: KIFKEQ_clean_linker_1, # of connection points: 2
#     Edge 100, Type (0, 1), BuildingBlock: KIFKEQ_clean_linker_1, # of connection points: 2
#     Edge 101, Type (0, 1), BuildingBlock: KIFKEQ_clean_linker_1, # of connection points: 2
#     Edge 102, Type (0, 1), BuildingBlock: KIFKEQ_clean_linker_1, # of connection points: 2
#     Edge 103, Type (0, 1), BuildingBlock: KIFKEQ_clean_linker_1, # of connection points: 2
#     Edge 104, Type (0, 1), BuildingBlock: KIFKEQ_clean_linker_1, # of connection points: 2
#     Edge 105, Type (0, 1), BuildingBlock: KIFKEQ_clean_linker_1, # of connection points: 2
#     Edge 106, Type (0, 1), BuildingBlock: KIFKEQ_clean_linker_1, # of connection points: 2
#     Edge 107, Type (0, 1), BuildingBlock: KIFKEQ_clean_linker_1, # of connection points: 2
#     Edge 108, Type (0, 1), BuildingBlock: KIFKEQ_clean_linker_1, # of connection points: 2
#     Edge 109, Type (0, 1), BuildingBlock: KIFKEQ_clean_linker_1, # of connection points: 2
#     Edge 110, Type (0, 1), BuildingBlock: KIFKEQ_clean_linker_1, # of connection points: 2
#     Edge 111, Type (0, 1), BuildingBlock: KIFKEQ_clean_linker_1, # of connection points: 2
#     Edge 112, Type (0, 1), BuildingBlock: KIFKEQ_clean_linker_1, # of connection points: 2
#     Edge 113, Type (0, 1), BuildingBlock: KIFKEQ_clean_linker_1, # of connection points: 2
#     Edge 114, Type (0, 1), BuildingBlock: KIFKEQ_clean_linker_1, # of connection points: 2
#     Edge 115, Type (0, 1), BuildingBlock: KIFKEQ_clean_linker_1, # of connection points: 2
#     Edge 116, Type (0, 1), BuildingBlock: KIFKEQ_clean_linker_1, # of connection points: 2
#     Edge 117, Type (0, 1), BuildingBlock: KIFKEQ_clean_linker_1, # of connection points: 2
#     Edge 118, Type (0, 1), BuildingBlock: KIFKEQ_clean_linker_1, # of connection points: 2
#     Edge 119, Type (0, 1), BuildingBlock: KIFKEQ_clean_linker_1, # of connection points: 2
# Relax obj value: 0.072
# Max RMSD: 0.184
# Mean RMSD: 0.075
data_MOF--net-bwt--node1-WUSLED_clean_sbu_0--node2-QEWDON_clean_linker_0--edge1-KIFKEQ_clean_linker_1
_symmetry_space_group_name_H-M    P1
_symmetry_Int_Tables_number       1
_symmetry_cell_setting            triclinic
loop_
_symmetry_equiv_pos_as_xyz
'x, y, z'
_cell_length_a     70.764972
_cell_length_b     70.609384
_cell_length_c     70.638978
_cell_angle_alpha  95.464828
_cell_angle_beta   95.423127
_cell_angle_gamma 95.608731
loop_
_atom_site_label
_atom_site_type_symbol
_atom_site_fract_x
_atom_site_fract_y
_atom_site_fract_z
_atom_type_partial_charge
C0 C 0.26811 0.61931 0.36737 0.0
C1 C 0.2823 0.60893 0.37531 0.0
C2 C 0.30292 0.61756 0.35077 0.0
C3 C 0.29966 0.60818 0.36714 0.0
C4 C 0.28881 0.62836 0.34339 0.0
C5 C 0.27168 0.62921 0.35159 0.0
U6 U 0.22372 0.60918 0.39721 0.0
O7 O 0.20127 0.62888 0.39993 0.0
O8 O 0.19468 0.60036 0.3831 0.0
C9 C 0.18855 0.61658 0.38922 0.0
C10 C 0.24882 0.61914 0.37375 0.0
C11 C 0.16848 0.62021 0.38474 0.0
C12 C 0.14508 0.64106 0.37396 0.0
C13 C 0.16391 0.63832 0.38033 0.0
C14 C 0.13504 0.60787 0.37727 0.0
C15 C 0.13048 0.62573 0.37198 0.0
C16 C 0.15384 0.60512 0.38346 0.0
C17 C 0.23672 0.57958 0.44286 0.0
C18 C 0.23172 0.57205 0.47509 0.0
C19 C 0.25127 0.55322 0.45604 0.0
C20 C 0.24804 0.56442 0.44099 0.0
C21 C 0.24297 0.55673 0.4732 0.0
C22 C 0.22875 0.58346 0.46009 0.0
C23 C 0.23204 0.59026 0.42636 0.0
O24 O 0.23796 0.60274 0.37137 0.0
O25 O 0.24636 0.63 0.38932 0.0
O26 O 0.23302 0.60906 0.42799 0.0
O27 O 0.22716 0.58166 0.409 0.0
H28 H 0.27978 0.60111 0.38746 0.0
H29 H 0.31022 0.59972 0.37317 0.0
H30 H 0.2909 0.63603 0.33106 0.0
H31 H 0.26092 0.63727 0.34522 0.0
H32 H 0.14209 0.65496 0.36991 0.0
H33 H 0.17502 0.65015 0.38109 0.0
H34 H 0.12409 0.59588 0.37638 0.0
H35 H 0.15697 0.59108 0.38698 0.0
H36 H 0.22522 0.57522 0.48814 0.0
H37 H 0.25983 0.54144 0.45401 0.0
H38 H 0.25424 0.56111 0.42778 0.0
H39 H 0.21977 0.59497 0.46176 0.0
C40 C 0.27979 0.37839 0.82143 0.0
C41 C 0.26595 0.38698 0.83128 0.0
C42 C 0.24104 0.37379 0.80576 0.0
C43 C 0.24673 0.38469 0.82352 0.0
C44 C 0.25504 0.36515 0.79612 0.0
C45 C 0.27415 0.36742 0.80387 0.0
U46 U 0.32173 0.40439 0.85538 0.0
O47 O 0.34796 0.3942 0.86836 0.0
O48 O 0.34983 0.41665 0.84893 0.0
C49 C 0.35915 0.40546 0.85938 0.0
C50 C 0.30027 0.38148 0.82855 0.0
C51 C 0.37509 0.3971 0.85092 0.0
C52 C 0.38854 0.37972 0.82488 0.0
C53 C 0.37263 0.38591 0.83316 0.0
C54 C 0.40929 0.39546 0.85226 0.0
C55 C 0.40711 0.38461 0.83427 0.0
C56 C 0.39346 0.4016 0.86046 0.0
C57 C 0.31063 0.44445 0.8925 0.0
C58 C 0.3342 0.46754 0.91193 0.0
C59 C 0.30063 0.47208 0.9103 0.0
C60 C 0.29619 0.4551 0.89829 0.0
C61 C 0.3197 0.47878 0.91716 0.0
C62 C 0.3297 0.45054 0.89957 0.0
C63 C 0.30532 0.42833 0.87759 0.0
O64 O 0.30906 0.39801 0.82554 0.0
O65 O 0.30501 0.37656 0.84572 0.0
O66 O 0.30866 0.41121 0.88202 0.0
O67 O 0.30969 0.43165 0.86048 0.0
H68 H 0.27004 0.3956 0.84484 0.0
H69 H 0.23635 0.39141 0.83143 0.0
H70 H 0.25135 0.35697 0.78228 0.0
H71 H 0.28463 0.36085 0.79595 0.0
H72 H 0.38633 0.37129 0.81108 0.0
H73 H 0.35851 0.38232 0.82556 0.0
H74 H 0.42334 0.39987 0.85974 0.0
H75 H 0.39565 0.41037 0.8741 0.0
H76 H 0.34901 0.47196 0.91708 0.0
H77 H 0.28899 0.48033 0.91342 0.0
H78 H 0.28142 0.4507 0.89284 0.0
H79 H 0.34108 0.44247 0.89515 0.0
C80 C 0.65837 0.99876 0.64278 0.0
C81 C 0.67461 1.00261 0.63317 0.0
C82 C 0.69538 0.99849 0.66179 0.0
C83 C 0.69298 1.00253 0.64261 0.0
C84 C 0.67899 0.99488 0.67131 0.0
C85 C 0.66072 0.99499 0.6619 0.0
U86 U 0.62489 1.00266 0.5982 0.0
O87 O 0.59744 0.98651 0.58654 0.0
O88 O 0.59911 0.0176 0.59411 0.0
C89 C 0.58818 1.00177 0.5875 0.0
C90 C 0.63891 0.9986 0.63315 0.0
C91 C 0.56889 0.99946 0.59371 0.0
C92 C 0.54654 0.99146 0.61662 0.0
C93 C 0.56537 0.99415 0.61182 0.0
C94 C 0.53483 0.99952 0.58537 0.0
C95 C 0.53105 0.99412 0.6034 0.0
C96 C 0.55352 1.00215 0.58062 0.0
C97 C 0.647 0.0119 0.55221 0.0
C98 C 0.63166 0.02607 0.52556 0.0
C99 C 0.66231 0.01392 0.52313 0.0
C100 C 0.66211 1.00824 0.54148 0.0
C101 C 0.64737 0.02342 0.51516 0.0
C102 C 0.63146 0.02031 0.54397 0.0
C103 C 0.64852 1.00824 0.57238 0.0
O104 O 0.63455 0.01507 0.62769 0.0
O105 O 0.63318 0.98405 0.62017 0.0
O106 O 0.64171 0.9911 0.57593 0.0
O107 O 0.64402 0.02207 0.58438 0.0
H108 H 0.67307 1.00556 0.61836 0.0
H109 H 0.70525 1.00525 0.63481 0.0
H110 H 0.68027 0.99206 0.68615 0.0
H111 H 0.64838 0.99211 0.66958 0.0
H112 H 0.54409 0.98746 0.63068 0.0
H113 H 0.57711 0.99202 0.62212 0.0
H114 H 0.52328 1.00142 0.57475 0.0
H115 H 0.55596 1.00611 0.56653 0.0
H116 H 0.61982 0.03308 0.5197 0.0
H117 H 0.67474 0.01182 0.51565 0.0
H118 H 0.67417 1.00171 0.54761 0.0
H119 H 0.61954 0.02305 0.55202 0.0
C120 C 0.84783 0.02644 0.26376 0.0
C121 C 0.83085 0.02962 0.25305 0.0
C122 C 0.81283 0.02464 0.28034 0.0
C123 C 0.81354 0.02886 0.2613 0.0
C124 C 0.82989 0.02103 0.29074 0.0
C125 C 0.84714 0.02208 0.28261 0.0
U126 U 0.8747 0.01407 0.22136 0.0
O127 O 0.89919 0.02857 0.20945 0.0
O128 O 0.90085 0.99996 0.21896 0.0
C129 C 0.90968 0.01442 0.21174 0.0
C130 C 0.86613 0.02641 0.25528 0.0
C131 C 0.92998 0.01964 0.21852 0.0
C132 C 0.9563 0.02871 0.2435 0.0
C133 C 0.93663 0.02443 0.23792 0.0
C134 C 0.96256 0.0236 0.21037 0.0
C135 C 0.96944 0.02842 0.22971 0.0
C136 C 0.94307 0.01924 0.20487 0.0
C137 C 0.84392 0.9902 0.17619 0.0
C138 C 0.85481 0.97001 0.1505 0.0
C139 C 0.82227 0.97825 0.14809 0.0
C140 C 0.82598 0.98916 0.16579 0.0
C141 C 0.83648 0.96816 0.14041 0.0
C142 C 0.85852 0.981 0.16828 0.0
C143 C 0.84644 0.99955 0.19584 0.0
O144 O 0.87158 0.00935 0.25129 0.0
O145 O 0.8686 0.03772 0.24174 0.0
O146 O 0.8528 0.01782 0.19806 0.0
O147 O 0.85441 0.98971 0.2087 0.0
H148 H 0.83093 0.03267 0.23832 0.0
H149 H 0.80083 0.03181 0.2528 0.0
H150 H 0.82997 0.01713 0.3052 0.0
H151 H 0.85998 0.01922 0.291 0.0
H152 H 0.96122 0.03237 0.25852 0.0
H153 H 0.92668 0.02475 0.24867 0.0
H154 H 0.97233 0.02283 0.19946 0.0
H155 H 0.93821 0.01538 0.18985 0.0
H156 H 0.86612 0.96264 0.14485 0.0
H157 H 0.80792 0.97697 0.14089 0.0
H158 H 0.81457 0.99617 0.17171 0.0
H159 H 0.87254 0.98179 0.17613 0.0
C160 C 0.36337 0.2611 0.61779 0.0
C161 C 0.3713 0.27515 0.60714 0.0
C162 C 0.34889 0.29737 0.61777 0.0
C163 C 0.36413 0.29308 0.60712 0.0
C164 C 0.34118 0.28318 0.62848 0.0
C165 C 0.34834 0.26536 0.62849 0.0
U166 U 0.39745 0.22346 0.60416 0.0
O167 O 0.40824 0.20062 0.62029 0.0
O168 O 0.39056 0.19316 0.59286 0.0
C169 C 0.39981 0.18682 0.60759 0.0
C170 C 0.3699 0.24172 0.61751 0.0
C171 C 0.39109 0.16916 0.61464 0.0
C172 C 0.36357 0.14744 0.62024 0.0
C173 C 0.37138 0.16548 0.61592 0.0
C174 C 0.3951 0.13682 0.62261 0.0
C175 C 0.3753 0.13269 0.62314 0.0
C176 C 0.40284 0.15478 0.61844 0.0
C177 C 0.43919 0.242 0.57507 0.0
C178 C 0.46613 0.22678 0.56374 0.0
C179 C 0.45877 0.25704 0.55301 0.0
C180 C 0.44354 0.25712 0.5642 0.0
C181 C 0.47016 0.24183 0.55246 0.0
C182 C 0.45064 0.22679 0.5749 0.0
C183 C 0.42247 0.24288 0.58605 0.0
O184 O 0.36816 0.23159 0.60072 0.0
O185 O 0.38611 0.24025 0.62773 0.0
O186 O 0.42493 0.24129 0.60449 0.0
O187 O 0.40617 0.23413 0.57767 0.0
H188 H 0.38293 0.27221 0.59875 0.0
H189 H 0.37064 0.30361 0.59885 0.0
H190 H 0.32925 0.28564 0.63659 0.0
H191 H 0.3419 0.25474 0.63673 0.0
H192 H 0.34827 0.14479 0.62048 0.0
H193 H 0.36197 0.1763 0.61302 0.0
H194 H 0.40464 0.12602 0.62509 0.0
H195 H 0.41808 0.15723 0.61754 0.0
H196 H 0.47472 0.21489 0.56364 0.0
H197 H 0.46173 0.26901 0.54484 0.0
H198 H 0.43502 0.26907 0.56426 0.0
H199 H 0.44754 0.21496 0.58323 0.0
C200 C 0.263 0.85091 0.02781 0.0
C201 C 0.25198 0.83386 0.03042 0.0
C202 C 0.27952 0.81594 0.0273 0.0
C203 C 0.26019 0.81657 0.03029 0.0
C204 C 0.29036 0.83309 0.02444 0.0
C205 C 0.28221 0.85035 0.0248 0.0
U206 U 0.22067 0.87662 0.013 0.0
O207 O 0.20774 0.90096 0.02636 0.0
O208 O 0.21839 0.90249 0.99824 0.0
C209 C 0.21059 0.91138 0.01223 0.0
C210 C 0.25441 0.86908 0.02687 0.0
C211 C 0.21744 0.93168 0.01758 0.0
C212 C 0.24229 0.95767 0.02889 0.0
C213 C 0.23661 0.93805 0.02402 0.0
C214 C 0.20973 0.96446 0.02099 0.0
C215 C 0.22881 0.97102 0.02759 0.0
C216 C 0.20414 0.94502 0.01602 0.0
C217 C 0.17682 0.84407 0.98841 0.0
C218 C 0.14905 0.85521 0.97174 0.0
C219 C 0.15141 0.82122 0.97209 0.0
C220 C 0.16893 0.82516 0.98321 0.0
C221 C 0.14132 0.83615 0.96599 0.0
C222 C 0.16672 0.85914 0.9829 0.0
C223 C 0.19616 0.84747 0.99835 0.0
O224 O 0.25091 0.87401 0.00951 0.0
O225 O 0.24043 0.8716 0.03756 0.0
O226 O 0.19764 0.85429 0.01646 0.0
O227 O 0.20908 0.8557 0.98873 0.0
H228 H 0.237 0.83386 0.03246 0.0
H229 H 0.25139 0.80377 0.03269 0.0
H230 H 0.30512 0.8332 0.02158 0.0
H231 H 0.29087 0.86326 0.02241 0.0
H232 H 0.2571 0.96239 0.03391 0.0
H233 H 0.24708 0.9279 0.02527 0.0
H234 H 0.19912 0.97444 0.01946 0.0
H235 H 0.18933 0.94037 0.0109 0.0
H236 H 0.14156 0.86703 0.96746 0.0
H237 H 0.14614 0.80639 0.96767 0.0
H238 H 0.17661 0.81338 0.98728 0.0
H239 H 0.17269 0.87387 0.98685 0.0
C240 C 0.82313 0.27663 0.37735 0.0
C241 C 0.83034 0.26342 0.38912 0.0
C242 C 0.80579 0.23835 0.37399 0.0
C243 C 0.82181 0.24437 0.38736 0.0
C244 C 0.79921 0.25149 0.36179 0.0
C245 C 0.80779 0.27037 0.36345 0.0
U246 U 0.85608 0.31976 0.40338 0.0
O247 O 0.86862 0.34626 0.39301 0.0
O248 O 0.84866 0.34774 0.41496 0.0
C249 C 0.8592 0.35727 0.40395 0.0
C250 C 0.83014 0.29725 0.38029 0.0
C251 C 0.85077 0.37321 0.39544 0.0
C252 C 0.82427 0.38698 0.37925 0.0
C253 C 0.83252 0.37096 0.38528 0.0
C254 C 0.85262 0.40745 0.39307 0.0
C255 C 0.83414 0.40549 0.38331 0.0
C256 C 0.86081 0.39151 0.39902 0.0
C257 C 0.89257 0.30959 0.44467 0.0
C258 C 0.91305 0.33305 0.46701 0.0
C259 C 0.90837 0.29998 0.47358 0.0
C260 C 0.89665 0.29543 0.45647 0.0
C261 C 0.91668 0.31886 0.47929 0.0
C262 C 0.90097 0.32846 0.44986 0.0
C263 C 0.87813 0.30421 0.42816 0.0
O264 O 0.8266 0.30628 0.39649 0.0
O265 O 0.84741 0.30222 0.37575 0.0
O266 O 0.88298 0.30764 0.4112 0.0
O267 O 0.86082 0.30819 0.43096 0.0
H268 H 0.84217 0.26798 0.40001 0.0
H269 H 0.82721 0.23462 0.39697 0.0
H270 H 0.7871 0.24725 0.35116 0.0
H271 H 0.80202 0.28027 0.35421 0.0
H272 H 0.81009 0.3849 0.37163 0.0
H273 H 0.82451 0.35694 0.3824 0.0
H274 H 0.86054 0.42143 0.39682 0.0
H275 H 0.87483 0.39358 0.40701 0.0
H276 H 0.91932 0.3477 0.47071 0.0
H277 H 0.91018 0.28864 0.48266 0.0
H278 H 0.89015 0.28083 0.45279 0.0
H279 H 0.89787 0.33964 0.4409 0.0
C280 C 0.64353 0.65848 0.99601 0.0
C281 C 0.63374 0.67478 0.99854 0.0
C282 C 0.66302 0.69545 0.99641 0.0
C283 C 0.64342 0.69313 0.99877 0.0
C284 C 0.67271 0.67901 0.99416 0.0
C285 C 0.66306 0.66074 0.99395 0.0
U286 U 0.59851 0.62559 0.99949 0.0
O287 O 0.58662 0.5979 0.98394 0.0
O288 O 0.59398 0.60021 0.01505 0.0
C289 C 0.58759 0.58892 0.9994 0.0
C290 C 0.63368 0.63907 0.99578 0.0
C291 C 0.59451 0.56994 0.99742 0.0
C292 C 0.61907 0.54894 0.99158 0.0
C293 C 0.61346 0.56744 0.9944 0.0
C294 C 0.58693 0.53547 0.99513 0.0
C295 C 0.60576 0.53272 0.99163 0.0
C296 C 0.58139 0.55387 0.99795 0.0
C297 C 0.55308 0.64833 0.00832 0.0
C298 C 0.52641 0.63144 0.02122 0.0
C299 C 0.52607 0.66493 0.01625 0.0
C300 C 0.54364 0.66485 0.00884 0.0
C301 C 0.5177 0.64844 0.02313 0.0
C302 C 0.54411 0.6314 0.01391 0.0
C303 C 0.57307 0.64973 1.00431 0.0
O304 O 0.62791 0.63489 0.01217 0.0
O305 O 0.62086 0.6334 0.9811 0.0
O306 O 0.57642 0.64227 0.98735 0.0
O307 O 0.58505 0.64554 0.01827 0.0
H308 H 0.61863 0.67328 1.00024 0.0
H309 H 0.63551 0.70546 1.00042 0.0
H310 H 0.68786 0.68026 0.99265 0.0
H311 H 0.67088 0.64835 0.99217 0.0
H312 H 0.63368 0.54733 0.9889 0.0
H313 H 0.62379 0.57974 0.99397 0.0
H314 H 0.57642 0.52338 0.99572 0.0
H315 H 0.56672 0.55555 1.00036 0.0
H316 H 0.52013 0.61859 0.02647 0.0
H317 H 0.51942 0.67812 0.01744 0.0
H318 H 0.55033 0.67798 1.00449 0.0
H319 H 0.55126 0.6185 0.01355 0.0
C320 C 0.61717 0.36302 0.26054 0.0
C321 C 0.61495 0.37506 0.27706 0.0
C322 C 0.61727 0.34839 0.2968 0.0
C323 C 0.61499 0.36782 0.29501 0.0
C324 C 0.61921 0.33649 0.28004 0.0
C325 C 0.61923 0.34371 0.26227 0.0
U326 U 0.60656 0.39863 0.2232 0.0
O327 O 0.62309 0.40711 0.19972 0.0
O328 O 0.5939 0.39285 0.19321 0.0
C329 C 0.60928 0.40019 0.18634 0.0
C330 C 0.61729 0.36985 0.24128 0.0
C331 C 0.61427 0.39039 0.16818 0.0
C332 C 0.63423 0.37147 0.14906 0.0
C333 C 0.63014 0.37992 0.16694 0.0
C334 C 0.60676 0.38389 0.13363 0.0
C335 C 0.62241 0.37321 0.13222 0.0
C336 C 0.60281 0.39238 0.15131 0.0
C337 C 0.5815 0.44324 0.24104 0.0
C338 C 0.56049 0.46258 0.22369 0.0
C339 C 0.5688 0.47009 0.2578 0.0
C340 C 0.58023 0.45504 0.25787 0.0
C341 C 0.55834 0.47373 0.24085 0.0
C342 C 0.5719 0.44735 0.2238 0.0
C343 C 0.59099 0.42564 0.24263 0.0
O344 O 0.60055 0.36945 0.23138 0.0
O345 O 0.62877 0.38531 0.23973 0.0
O346 O 0.60938 0.42658 0.24087 0.0
O347 O 0.58141 0.40965 0.23439 0.0
H348 H 0.61324 0.39003 0.27609 0.0
H349 H 0.61352 0.37751 0.30749 0.0
H350 H 0.62048 0.32139 0.28054 0.0
H351 H 0.6208 0.3341 0.24975 0.0
H352 H 0.64637 0.36329 0.14843 0.0
H353 H 0.63931 0.37825 0.17971 0.0
H354 H 0.59756 0.38577 0.12095 0.0
H355 H 0.59069 0.40061 0.1518 0.0
H356 H 0.55267 0.46505 0.21038 0.0
H357 H 0.56781 0.47863 0.27117 0.0
H358 H 0.58751 0.45214 0.27131 0.0
H359 H 0.57267 0.4384 0.21062 0.0
C360 C 0.03136 0.26381 0.84253 0.0
C361 C 0.03026 0.25109 0.82575 0.0
C362 C 0.02762 0.27749 0.80623 0.0
C363 C 0.02856 0.25792 0.80772 0.0
C364 C 0.02921 0.2902 0.82301 0.0
C365 C 0.03116 0.28343 0.841 0.0
U366 U 0.01619 0.22385 0.87126 0.0
O367 O 0.0292 0.21222 0.89663 0.0
O368 O 1.00127 0.22338 0.8972 0.0
C369 C 0.01484 0.21548 0.90658 0.0
C370 C 0.03069 0.25662 0.86145 0.0
C371 C 0.01942 0.22194 0.92705 0.0
C372 C 0.03224 0.24546 0.95376 0.0
C373 C 0.02811 0.24036 0.93395 0.0
C374 C 0.01906 0.21383 0.95963 0.0
C375 C 0.02795 0.23209 0.96672 0.0
C376 C 0.0148 0.20885 0.94002 0.0
C377 C 0.99082 0.17852 0.84161 0.0
C378 C 0.96906 0.15418 0.85276 0.0
C379 C 0.97906 0.14964 0.8209 0.0
C380 C 0.99037 0.16716 0.82422 0.0
C381 C 0.96795 0.14309 0.83496 0.0
C382 C 0.98047 0.17178 0.85608 0.0
C383 C 1.00103 0.19784 0.84363 0.0
O384 O 0.01345 0.25392 0.86684 0.0
O385 O 0.04103 0.24254 0.86476 0.0
O386 O 0.01914 0.1994 0.8503 0.0
O387 O 0.99177 0.21156 0.8509 0.0
H388 H 0.03007 0.23583 0.82658 0.0
H389 H 0.02712 0.24785 0.79497 0.0
H390 H 0.02845 0.30536 0.82217 0.0
H391 H 0.03182 0.29344 0.85371 0.0
H392 H 0.03906 0.25966 0.95893 0.0
H393 H 0.03172 0.25067 0.9241 0.0
H394 H 0.01527 0.20338 0.9693 0.0
H395 H 1.00793 0.19464 0.93496 0.0
H396 H 0.96087 0.14942 0.86395 0.0
H397 H 0.97838 0.14166 0.80693 0.0
H398 H 0.99827 0.17216 0.81291 0.0
H399 H 0.98078 0.18035 0.86969 0.0
C400 C 0.37946 0.82153 0.27314 0.0
C401 C 0.39065 0.82889 0.25956 0.0
C402 C 0.37441 0.8047 0.23463 0.0
C403 C 0.38816 0.82054 0.24047 0.0
C404 C 0.36321 0.79758 0.24838 0.0
C405 C 0.36571 0.80591 0.26735 0.0
U406 U 0.40439 0.856 0.31605 0.0
O407 O 0.39265 0.86853 0.34175 0.0
O408 O 0.41518 0.84936 0.34456 0.0
C409 C 0.40366 0.85983 0.35338 0.0
C410 C 0.38238 0.82911 0.29358 0.0
C411 C 0.39537 0.852 0.36975 0.0
C412 C 0.38119 0.82554 0.38528 0.0
C413 C 0.38603 0.83337 0.36858 0.0
C414 C 0.39425 0.85516 0.40416 0.0
C415 C 0.38586 0.83617 0.40332 0.0
C416 C 0.39893 0.86296 0.38757 0.0
C417 C 0.44519 0.89401 0.30931 0.0
C418 C 0.47288 0.90543 0.33213 0.0
C419 C 0.46742 0.92062 0.30307 0.0
C420 C 0.45069 0.90823 0.29778 0.0
C421 C 0.47908 0.91892 0.31998 0.0
C422 C 0.45604 0.89314 0.32689 0.0
C423 C 0.42951 0.87903 0.30181 0.0
O424 O 0.39868 0.82627 0.30281 0.0
O425 O 0.37734 0.8463 0.298 0.0
O426 O 0.412 0.88307 0.3038 0.0
O427 O 0.43234 0.86159 0.30552 0.0
H428 H 0.4014 0.84094 0.26376 0.0
H429 H 0.39693 0.82654 0.23029 0.0
H430 H 0.35275 0.78523 0.24463 0.0
H431 H 0.35704 0.7999 0.27762 0.0
H432 H 0.37477 0.81086 0.38418 0.0
H433 H 0.38319 0.82467 0.35494 0.0
H434 H 0.39777 0.86382 0.41778 0.0
H435 H 0.40613 0.87736 0.38878 0.0
H436 H 0.48135 0.90401 0.34542 0.0
H437 H 0.47177 0.93079 0.29336 0.0
H438 H 0.44251 0.90919 0.2842 0.0
H439 H 0.45193 0.88242 0.33616 0.0
C440 C 0.99907 0.64266 0.6573 0.0
C441 C 1.00317 0.63356 0.67383 0.0
C442 C 0.99818 0.66235 0.69399 0.0
C443 C 1.00278 0.64335 0.69204 0.0
C444 C 0.99425 0.67135 0.67731 0.0
C445 C 0.99468 0.6616 0.6592 0.0
U446 U 1.0041 0.59783 0.62418 0.0
O447 O 0.98826 0.58588 0.59668 0.0
O448 O 0.01916 0.59416 0.59835 0.0
C449 C 1.00346 0.5874 0.58735 0.0
C450 C 0.99931 0.63272 0.63798 0.0
C451 C 1.00094 0.59411 0.56824 0.0
C452 C 0.99029 0.61648 0.54635 0.0
C453 C 0.99362 0.61145 0.56507 0.0
C454 C 1.00194 0.5871 0.53402 0.0
C455 C 0.99413 0.60417 0.53055 0.0
C456 C 1.00526 0.58215 0.55262 0.0
C457 C 0.01376 0.55222 0.64762 0.0
C458 C 0.02235 0.52302 0.63096 0.0
C459 C 0.01972 0.52509 0.66504 0.0
C460 C 0.01474 0.54368 0.66469 0.0
C461 C 0.02381 0.51456 0.64825 0.0
C462 C 0.01733 0.54174 0.63065 0.0
C463 C 0.00999 0.57235 0.64823 0.0
O464 O 0.01592 0.62754 0.63386 0.0
O465 O 0.98505 0.61941 0.63231 0.0
O466 O 0.99287 0.57554 0.64121 0.0
O467 O 0.02371 0.5842 0.64327 0.0
H468 H 1.00658 0.61889 0.67264 0.0
H469 H 1.00574 0.63594 0.70455 0.0
H470 H 0.99097 0.68605 0.67824 0.0
H471 H 0.99158 0.6689 0.64663 0.0
H472 H 0.98427 0.62973 0.54422 0.0
H473 H 0.99022 0.62089 0.57698 0.0
H474 H 1.00552 0.5775 0.52233 0.0
H475 H 0.01099 0.56874 0.55478 0.0
H476 H 0.02523 0.51525 0.61776 0.0
H477 H 0.02102 0.51923 0.67866 0.0
H478 H 0.0121 0.5516 0.67792 0.0
H479 H 0.01658 0.54815 0.61729 0.0
C480 C 0.75429 0.40592 0.65655 0.0
C481 C 0.74233 0.42035 0.65344 0.0
C482 C 0.71853 0.40501 0.67163 0.0
C483 C 0.72464 0.41994 0.66099 0.0
C484 C 0.73056 0.39057 0.67451 0.0
C485 C 0.7482 0.39104 0.66708 0.0
U486 U 0.78998 0.418 0.62031 0.0
O487 O 0.82057 0.42845 0.62535 0.0
O488 O 0.81133 0.40073 0.60863 0.0
C489 C 0.82581 0.41296 0.61638 0.0
C490 C 0.77327 0.4061 0.64937 0.0
C491 C 0.8422 0.40477 0.62576 0.0
C492 C 0.85823 0.39093 0.6524 0.0
C493 C 0.84205 0.39823 0.64394 0.0
C494 C 0.87458 0.39647 0.6245 0.0
C495 C 0.87468 0.38992 0.64271 0.0
C496 C 0.85855 0.40379 0.61616 0.0
C497 C 0.77237 0.44405 0.57695 0.0
C498 C 0.79055 0.4637 0.55699 0.0
C499 C 0.75682 0.45426 0.54806 0.0
C500 C 0.75605 0.44421 0.56411 0.0
C501 C 0.77398 0.46444 0.54444 0.0
C502 C 0.78976 0.45357 0.57311 0.0
C503 C 0.7703 0.43504 0.59476 0.0
O504 O 0.77412 0.3951 0.63345 0.0
O505 O 0.78326 0.42291 0.65004 0.0
O506 O 0.77968 0.44413 0.61048 0.0
O507 O 0.77062 0.4164 0.59368 0.0
H508 H 0.74668 0.43193 0.64525 0.0
H509 H 0.71566 0.43117 0.65832 0.0
H510 H 0.72648 0.37899 0.68282 0.0
H511 H 0.7572 0.3798 0.66968 0.0
H512 H 0.85785 0.38597 0.66641 0.0
H513 H 0.82951 0.39886 0.65157 0.0
H514 H 0.8871 0.39632 0.61679 0.0
H515 H 0.85899 0.40887 0.60219 0.0
H516 H 0.80406 0.47113 0.55448 0.0
H517 H 0.74373 0.45467 0.53891 0.0
H518 H 0.74249 0.437 0.56683 0.0
H519 H 0.80258 0.45354 0.58278 0.0
C520 C 0.74327 0.62815 0.20034 0.0
C521 C 0.75759 0.62148 0.18976 0.0
C522 C 0.782 0.63242 0.21665 0.0
C523 C 0.77676 0.62363 0.19781 0.0
C524 C 0.76742 0.63886 0.2271 0.0
C525 C 0.7484 0.63682 0.21903 0.0
U526 U 0.6997 0.60455 0.16585 0.0
O527 O 0.67093 0.59463 0.1726 0.0
O528 O 0.67455 0.61702 0.15332 0.0
C529 C 0.66255 0.60639 0.16206 0.0
C530 C 0.72285 0.62592 0.19268 0.0
C531 C 0.64664 0.61545 0.16993 0.0
C532 C 0.63282 0.63351 0.19528 0.0
C533 C 0.64884 0.62683 0.18756 0.0
C534 C 0.61247 0.61794 0.16757 0.0
C535 C 0.61437 0.62891 0.18548 0.0
C536 C 0.6284 0.61132 0.15992 0.0
C537 C 0.70515 0.56336 0.12791 0.0
C538 C 0.68053 0.53734 0.11602 0.0
C539 C 0.71093 0.53926 0.10281 0.0
C540 C 0.71701 0.55611 0.11481 0.0
C541 C 0.6929 0.52927 0.1038 0.0
C542 C 0.68659 0.55427 0.12795 0.0
C543 C 0.71314 0.5789 0.14281 0.0
O544 O 0.71865 0.63111 0.1755 0.0
O545 O 0.71298 0.60991 0.19559 0.0
O546 O 0.70927 0.57615 0.16023 0.0
O547 O 0.71168 0.59653 0.13877 0.0
H548 H 0.75396 0.61462 0.17532 0.0
H549 H 0.78747 0.61863 0.18916 0.0
H550 H 0.77058 0.64528 0.24174 0.0
H551 H 0.73759 0.64193 0.22753 0.0
H552 H 0.63485 0.64207 0.20901 0.0
H553 H 0.66281 0.63016 0.19552 0.0
H554 H 0.59854 0.61378 0.15976 0.0
H555 H 0.62638 0.60242 0.14636 0.0
H556 H 0.66642 0.53019 0.11684 0.0
H557 H 0.72084 0.53346 0.09362 0.0
H558 H 0.73136 0.56295 0.11453 0.0
H559 H 0.67711 0.55976 0.13781 0.0
C560 C 0.35637 0.0093 0.36549 0.0
C561 C 0.34003 1.0073 0.37523 0.0
C562 C 0.31981 0.01033 0.34598 0.0
C563 C 0.32193 1.00782 0.36558 0.0
C564 C 0.33623 0.01187 0.33619 0.0
C565 C 0.35436 0.01139 0.34589 0.0
U566 U 0.3872 1.00519 0.41134 0.0
O567 O 0.41295 0.99055 0.41689 0.0
O568 O 0.4138 0.02148 0.42498 0.0
C569 C 0.42336 1.00643 0.42431 0.0
C570 C 0.37547 0.00943 0.37579 0.0
C571 C 0.44278 0.00952 0.41882 0.0
C572 C 0.46527 0.01711 0.39601 0.0
C573 C 0.44642 0.01304 0.4002 0.0
C574 C 0.47678 0.01391 0.42889 0.0
C575 C 0.48049 0.01774 0.41043 0.0
C576 C 0.45805 0.00982 0.43304 0.0
C577 C 0.36489 0.99574 0.45618 0.0
C578 C 0.38364 0.98441 0.48262 0.0
C579 C 0.35115 0.99145 0.48582 0.0
C580 C 0.34963 0.997 0.46733 0.0
C581 C 0.368 0.9847 0.49337 0.0
C582 C 0.3821 0.98991 0.46409 0.0
C583 C 0.36247 0.99937 0.43603 0.0
O584 O 0.38054 0.02392 0.389 0.0
O585 O 0.3794 0.99293 0.38148 0.0
O586 O 0.36713 0.98566 0.424 0.0
O587 O 0.36904 0.01657 0.43245 0.0
H588 H 0.3413 1.00553 0.39036 0.0
H589 H 0.30958 1.0063 0.37349 0.0
H590 H 0.33513 0.01398 0.32116 0.0
H591 H 0.36683 0.0129 0.33815 0.0
H592 H 0.46798 0.01997 0.38166 0.0
H593 H 0.43474 0.01288 0.38909 0.0
H594 H 0.4884 0.01428 0.44012 0.0
H595 H 0.45544 1.00717 0.44748 0.0
H596 H 0.3967 0.97918 0.48824 0.0
H597 H 0.33899 0.99183 0.49404 0.0
H598 H 0.33635 1.00166 0.4615 0.0
H599 H 0.39408 0.98898 0.45569 0.0
C600 C 0.16956 0.99704 0.74746 0.0
C601 C 0.18548 0.99959 0.76127 0.0
C602 C 0.20699 0.9991 0.73634 0.0
C603 C 0.20398 1.00046 0.75578 0.0
C604 C 0.19104 0.99671 0.72249 0.0
C605 C 0.17245 0.99561 0.72802 0.0
U606 U 0.13987 0.01056 0.78635 0.0
O607 O 0.11287 0.02352 0.78737 0.0
O608 O 0.1158 0.99586 0.79869 0.0
C609 C 0.10472 0.00939 0.79561 0.0
C610 C 0.15015 0.99695 0.75354 0.0
C611 C 0.08437 1.00332 0.78973 0.0
C612 C 0.05769 0.99001 0.76645 0.0
C613 C 0.07737 0.99534 0.77112 0.0
C614 C 0.05212 1.00046 0.79893 0.0
C615 C 0.04489 0.99242 0.7804 0.0
C616 C 0.07161 1.00585 0.80351 0.0
C617 C 0.16969 0.03634 0.83154 0.0
C618 C 0.15974 0.0582 0.85652 0.0
C619 C 0.18982 0.04471 0.86143 0.0
C620 C 0.18637 0.03465 0.84328 0.0
C621 C 0.17669 0.05678 0.86812 0.0
C622 C 0.15617 0.0479 0.83836 0.0
C623 C 0.16739 0.02671 0.81196 0.0
O624 O 0.14669 0.9862 0.76731 0.0
O625 O 0.14417 0.01396 0.75631 0.0
O626 O 0.15909 0.03589 0.79872 0.0
O627 O 0.16176 1.00828 0.81012 0.0
H628 H 0.18362 1.00105 0.77637 0.0
H629 H 0.21598 1.00255 0.76676 0.0
H630 H 0.19295 0.99551 0.7074 0.0
H631 H 0.16036 0.99379 0.71715 0.0
H632 H 0.0525 0.98385 0.75205 0.0
H633 H 0.08706 0.99329 0.76029 0.0
H634 H 0.04263 1.00289 0.80988 0.0
H635 H 0.07674 0.01212 0.81791 0.0
H636 H 0.14938 0.06734 0.86144 0.0
H637 H 0.2031 0.04355 0.87001 0.0
H638 H 0.19697 0.02585 0.83823 0.0
H639 H 0.1431 0.04927 0.82952 0.0
C640 C 0.65671 0.75368 0.4046 0.0
C641 C 0.65376 0.74172 0.41911 0.0
C642 C 0.67207 0.71805 0.40383 0.0
C643 C 0.66145 0.72409 0.41877 0.0
C644 C 0.67479 0.73009 0.38932 0.0
C645 C 0.66721 0.74766 0.38972 0.0
U646 U 0.62073 0.78986 0.41645 0.0
O647 O 0.6262 0.82053 0.42653 0.0
O648 O 0.60967 0.81127 0.39874 0.0
C649 C 0.61765 0.82578 0.41083 0.0
C650 C 0.6495 0.77265 0.40472 0.0
C651 C 0.62762 0.84191 0.40262 0.0
C652 C 0.65601 0.85849 0.39203 0.0
C653 C 0.64663 0.84205 0.39823 0.0
C654 C 0.62735 0.87439 0.39413 0.0
C655 C 0.64654 0.87497 0.39039 0.0
C656 C 0.61801 0.85804 0.40013 0.0
C657 C 0.57738 0.77271 0.44322 0.0
C658 C 0.55778 0.79063 0.46346 0.0
C659 C 0.54893 0.75682 0.45405 0.0
C660 C 0.56471 0.75626 0.4436 0.0
C661 C 0.5454 0.77391 0.46441 0.0
C662 C 0.57364 0.79004 0.45293 0.0
C663 C 0.59505 0.77071 0.43395 0.0
O664 O 0.63357 0.77345 0.39377 0.0
O665 O 0.65026 0.78278 0.42144 0.0
O666 O 0.61087 0.78009 0.44282 0.0
O667 O 0.59382 0.77089 0.41528 0.0
H668 H 0.64561 0.74603 0.43071 0.0
H669 H 0.65891 0.7151 0.43006 0.0
H670 H 0.68309 0.72608 0.37774 0.0
H671 H 0.66972 0.75668 0.37843 0.0
H672 H 0.67081 0.8586 0.38925 0.0
H673 H 0.65429 0.82969 0.40004 0.0
H674 H 0.61965 0.88681 0.39277 0.0
H675 H 0.60334 0.8582 0.40333 0.0
H676 H 0.55534 0.8041 0.47102 0.0
H677 H 0.53993 0.74361 0.45461 0.0
H678 H 0.56737 0.74272 0.4363 0.0
H679 H 0.5832 0.80297 0.45276 0.0
C680 C 0.74964 0.17018 0.99623 0.0
C681 C 0.76319 0.18614 1.00165 0.0
C682 C 0.73843 0.2076 0.9986 0.0
C683 C 0.75767 0.20465 1.00271 0.0
C684 C 0.72482 0.19159 0.99333 0.0
C685 C 0.73041 0.17301 0.99208 0.0
U686 U 0.78895 0.1408 0.00842 0.0
O687 O 0.79048 0.11408 0.02196 0.0
O688 O 0.80078 0.11641 0.99376 0.0
C689 C 0.79811 0.10558 0.00762 0.0
C690 C 0.75576 0.15076 0.99576 0.0
C691 C 0.79175 0.0852 1.00199 0.0
C692 C 0.76796 0.05877 0.98902 0.0
C693 C 0.77304 0.07847 0.99419 0.0
C694 C 0.80023 0.05264 0.99935 0.0
C695 C 0.78161 0.0457 0.99139 0.0
C696 C 0.8052 0.07215 1.00461 0.0
C697 C 0.8339 0.17205 0.03338 0.0
C698 C 0.86089 0.16084 0.05133 0.0
C699 C 0.85949 0.19482 0.04958 0.0
C700 C 0.84226 0.19092 0.03793 0.0
C701 C 0.86869 0.17988 0.05678 0.0
C702 C 0.84345 0.15694 0.03976 0.0
C703 C 0.81449 0.16891 0.0236 0.0
O704 O 0.76921 0.14752 0.98457 0.0
O705 O 0.7591 0.14473 0.01267 0.0
O706 O 0.80157 0.1606 0.03317 0.0
O707 O 0.8127 0.16256 1.00535 0.0
H708 H 0.77809 0.18426 1.00515 0.0
H709 H 0.76843 0.21667 1.00701 0.0
H710 H 0.70991 0.19348 0.98996 0.0
H711 H 0.71974 0.16088 0.98796 0.0
H712 H 0.7535 0.05378 0.98294 0.0
H713 H 0.76246 0.08838 0.99209 0.0
H714 H 0.81094 0.04292 1.00173 0.0
H715 H 0.81967 0.07707 0.01075 0.0
H716 H 0.86782 0.14912 0.0567 0.0
H717 H 0.86542 0.20958 0.05337 0.0
H718 H 0.8351 0.20272 0.03305 0.0
H719 H 0.83713 0.14226 0.03634 0.0
C720 C 0.20031 0.74457 0.62869 0.0
C721 C 0.19518 0.75642 0.61458 0.0
C722 C 0.21617 0.78347 0.6319 0.0
C723 C 0.203 0.77568 0.61618 0.0
C724 C 0.2207 0.77159 0.64625 0.0
C725 C 0.2129 0.75241 0.64463 0.0
U726 U 0.16778 0.69989 0.6049 0.0
O727 O 0.17521 0.67124 0.59559 0.0
O728 O 0.15525 0.67457 0.61739 0.0
C729 C 0.16457 0.66274 0.60724 0.0
C730 C 0.19365 0.72383 0.62666 0.0
C731 C 0.1724 0.6469 0.61658 0.0
C732 C 0.19919 0.63117 0.62963 0.0
C733 C 0.19164 0.64776 0.62411 0.0
C734 C 0.16824 0.61304 0.62089 0.0
C735 C 0.18764 0.61356 0.62748 0.0
C736 C 0.16069 0.62956 0.61561 0.0
C737 C 0.13021 0.70741 0.56308 0.0
C738 C 0.11144 0.6831 0.54019 0.0
C739 C 0.10996 0.7167 0.53664 0.0
C740 C 0.12261 0.72157 0.55313 0.0
C741 C 0.10428 0.6974 0.52971 0.0
C742 C 0.12439 0.68807 0.55671 0.0
C743 C 0.14526 0.71356 0.57895 0.0
O744 O 0.17652 0.71896 0.63159 0.0
O745 O 0.19712 0.71405 0.61082 0.0
O746 O 0.16238 0.70892 0.57616 0.0
O747 O 0.14086 0.71172 0.5964 0.0
H748 H 0.18545 0.75068 0.60213 0.0
H749 H 0.19918 0.78428 0.6048 0.0
H750 H 0.2304 0.77708 0.65878 0.0
H751 H 0.21699 0.74358 0.65574 0.0
H752 H 0.21424 0.63186 0.63452 0.0
H753 H 0.20096 0.66099 0.62489 0.0
H754 H 0.15909 0.59962 0.61904 0.0
H755 H 0.14586 0.62853 0.60977 0.0
H756 H 0.10726 0.66809 0.53556 0.0
H757 H 0.10533 0.72824 0.52895 0.0
H758 H 0.12702 0.73657 0.55774 0.0
H759 H 0.13014 0.67688 0.56424 0.0
C760 C 0.36706 0.35869 0.00915 0.0
C761 C 0.37434 0.34275 1.00022 0.0
C762 C 0.34794 0.32152 0.00895 0.0
C763 C 0.36484 0.32439 1.00003 0.0
C764 C 0.34077 0.33759 0.01794 0.0
C765 C 0.35023 0.35598 0.018 0.0
U766 U 0.41202 0.39119 1.00461 0.0
O767 O 0.41637 0.41709 0.9897 0.0
O768 O 0.42483 0.41828 0.02057 0.0
C769 C 0.42344 0.42782 1.00549 0.0
C770 C 0.37696 0.3781 0.00936 0.0
C771 C 0.41705 0.44696 0.00851 0.0
C772 C 0.39703 0.46911 0.02301 0.0
C773 C 0.40114 0.45032 0.01828 0.0
C774 C 0.42423 0.48116 0.00758 0.0
C775 C 0.40884 0.48476 0.01812 0.0
C776 C 0.42828 0.46244 1.00285 0.0
C777 C 0.45735 0.36895 0.99485 0.0
C778 C 0.48429 0.38663 0.98306 0.0
C779 C 0.48645 0.35418 0.99097 0.0
C780 C 0.468 0.35338 0.99653 0.0
C781 C 0.49453 0.37064 0.98381 0.0
C782 C 0.46575 0.38578 0.98854 0.0
C783 C 0.43723 0.36703 0.99863 0.0
O784 O 0.39024 0.38342 0.0237 0.0
O785 O 0.38222 0.38253 0.99283 0.0
O786 O 0.42516 0.37169 0.98497 0.0
O787 O 0.43383 0.37373 0.01583 0.0
H788 H 0.38735 0.34451 0.99333 0.0
H789 H 0.37068 0.31247 0.99271 0.0
H790 H 0.328 0.33597 0.02521 0.0
H791 H 0.34445 0.36811 0.02505 0.0
H792 H 0.38505 0.47139 0.03112 0.0
H793 H 0.39229 0.4385 0.02275 0.0
H794 H 0.43332 0.49283 1.00317 0.0
H795 H 0.44058 0.46009 0.99522 0.0
H796 H 0.49032 0.39941 0.97752 0.0
H797 H 0.49424 0.34175 0.99173 0.0
H798 H 0.4618 0.34037 1.00155 0.0
H799 H 0.45774 0.398 0.98727 0.0
C800 C 0.40598 0.65772 0.75421 0.0
C801 C 0.40767 0.64571 0.73755 0.0
C802 C 0.40605 0.6727 0.71835 0.0
C803 C 0.40762 0.65312 0.71978 0.0
C804 C 0.40455 0.68463 0.73515 0.0
C805 C 0.40448 0.67721 0.75284 0.0
U806 U 0.41705 0.62101 0.78967 0.0
O807 O 0.42756 0.62573 0.82028 0.0
O808 O 0.39972 0.60933 0.81105 0.0
C809 C 0.41208 0.61675 0.82556 0.0
C810 C 0.40558 0.65035 0.77311 0.0
C811 C 0.4042 0.62591 0.8423 0.0
C812 C 0.38855 0.65127 0.85818 0.0
C813 C 0.39572 0.64304 0.84179 0.0
C814 C 0.39839 0.62539 0.87563 0.0
C815 C 0.38978 0.64253 0.87536 0.0
C816 C 0.40544 0.61719 0.8593 0.0
C817 C 0.44325 0.57776 0.77231 0.0
C818 C 0.46498 0.5592 0.78972 0.0
C819 C 0.45156 0.54764 0.75741 0.0
C820 C 0.44145 0.56364 0.75672 0.0
C821 C 0.46378 0.54538 0.77376 0.0
C822 C 0.45478 0.57524 0.78902 0.0
C823 C 0.43422 0.59553 0.77001 0.0
O824 O 0.39456 0.63435 0.77371 0.0
O825 O 0.4222 0.65094 0.78329 0.0
O826 O 0.44319 0.61138 0.7793 0.0
O827 O 0.41559 0.59441 0.77019 0.0
H828 H 0.40897 0.63063 0.73828 0.0
H829 H 0.409 0.64354 0.70719 0.0
H830 H 0.40306 0.6997 0.73459 0.0
H831 H 0.40313 0.68672 0.7655 0.0
H832 H 0.38189 0.66437 0.85732 0.0
H833 H 0.39464 0.65 0.82877 0.0
H834 H 0.40003 0.61839 0.88859 0.0
H835 H 0.41203 0.60401 0.86001 0.0
H836 H 0.474 0.55775 0.80265 0.0
H837 H 0.45041 0.53746 0.74477 0.0
H838 H 0.43268 0.56531 0.74368 0.0
H839 H 0.4563 0.58588 0.80132 0.0
C840 C 0.99731 0.7502 0.16913 0.0
C841 C 0.00943 0.76093 0.18405 0.0
C842 C 0.99926 0.7389 0.20661 0.0
C843 C 0.01048 0.75531 0.20253 0.0
C844 C 0.98714 0.72815 0.19154 0.0
C845 C 0.98619 0.73376 0.17298 0.0
U846 U 1.00762 0.7901 0.13942 0.0
O847 O 0.02033 0.79212 0.11242 0.0
O848 O 0.99176 0.80119 0.11516 0.0
C849 C 1.00526 0.79854 0.1039 0.0
C850 C 0.99603 0.75664 0.14982 0.0
C851 C 0.99914 0.79056 0.08396 0.0
C852 C 0.99873 0.76591 0.05735 0.0
C853 C 1.00236 0.77198 0.07695 0.0
C854 C 0.9878 0.79655 0.05172 0.0
C855 C 0.99169 0.77826 0.0445 0.0
C856 C 0.99156 0.80264 0.07124 0.0
C857 C 0.03265 0.83564 0.16981 0.0
C858 C 0.05237 0.86175 0.15892 0.0
C859 C 0.04684 0.86239 0.19233 0.0
C860 C 0.03524 0.84508 0.18834 0.0
C861 C 0.05592 0.87057 0.17777 0.0
C862 C 0.04084 0.84426 0.15495 0.0
C863 C 0.02316 0.81603 0.16699 0.0
O864 O 0.98454 0.76995 0.14723 0.0
O865 O 0.01254 0.76033 0.14307 0.0
O866 O 0.03267 0.80324 0.15844 0.0
O867 O 1.0048 0.8139 0.16122 0.0
H868 H 0.0181 0.77373 0.18141 0.0
H869 H 0.0202 0.7638 0.21359 0.0
H870 H 0.97807 0.71561 0.19415 0.0
H871 H 0.97664 0.72537 0.16168 0.0
H872 H 1.00172 0.75169 0.05218 0.0
H873 H 0.00819 0.76239 0.0865 0.0
H874 H 0.98263 0.80647 0.04216 0.0
H875 H 0.98915 0.81709 0.07632 0.0
H876 H 0.05925 0.86788 0.14751 0.0
H877 H 0.04923 0.86911 0.20692 0.0
H878 H 0.02896 0.83865 0.19994 0.0
H879 H 0.03895 0.8371 0.14053 0.0
C880 C 0.62857 0.20286 0.74284 0.0
C881 C 0.62228 0.19206 0.75721 0.0
C882 C 0.6325 0.21917 0.78166 0.0
C883 C 0.62426 0.20012 0.77642 0.0
C884 C 0.63856 0.22984 0.76703 0.0
C885 C 0.63668 0.22177 0.74797 0.0
U886 U 0.60564 0.1682 0.69896 0.0
O887 O 0.59623 0.17483 0.67002 0.0
O888 O 0.61853 0.15558 0.67399 0.0
C889 C 0.60811 0.1643 0.66183 0.0
C890 C 0.62661 0.19516 0.72237 0.0
C891 C 0.61719 0.17181 0.64564 0.0
C892 C 0.62866 0.19822 0.62839 0.0
C893 C 0.62303 0.19136 0.64527 0.0
C894 C 0.62336 0.16601 0.61236 0.0
C895 C 0.62837 0.18567 0.61156 0.0
C896 C 0.61786 0.1592 0.62919 0.0
C897 C 0.56444 0.12987 0.70476 0.0
C898 C 0.53627 0.11849 0.68258 0.0
C899 C 0.54284 0.10284 0.71115 0.0
C900 C 0.55957 0.11529 0.71612 0.0
C901 C 0.53053 0.10482 0.69476 0.0
C902 C 0.55308 0.1309 0.68753 0.0
C903 C 0.57989 0.14509 0.71229 0.0
O904 O 0.63188 0.17801 0.71823 0.0
O905 O 0.61076 0.19799 0.71229 0.0
O906 O 0.5771 0.16241 0.70812 0.0
O907 O 0.59754 0.14115 0.71106 0.0
H908 H 0.61588 0.17744 0.75361 0.0
H909 H 0.61956 0.19131 0.78717 0.0
H910 H 0.64456 0.24463 0.77019 0.0
H911 H 0.6415 0.23044 0.73713 0.0
H912 H 0.63233 0.21346 0.62827 0.0
H913 H 0.62255 0.20139 0.65776 0.0
H914 H 0.62326 0.1559 0.59981 0.0
H915 H 0.61336 0.14407 0.62911 0.0
H916 H 0.52721 0.12043 0.66982 0.0
H917 H 0.53916 0.09212 0.72057 0.0
H918 H 0.56824 0.11409 0.72936 0.0
H919 H 0.55665 0.14192 0.6784 0.0
C920 C 0.00874 0.36815 0.35464 0.0
C921 C 0.99967 0.37474 0.3384 0.0
C922 C 0.0094 0.34827 0.31807 0.0
C923 C 0.9999 0.36486 0.32032 0.0
C924 C 0.0185 0.34178 0.33447 0.0
C925 C 0.01814 0.35162 0.35258 0.0
U926 U 1.00281 0.41364 0.38557 0.0
O927 O 0.98867 0.41823 0.41184 0.0
O928 O 0.01914 0.42796 0.41183 0.0
C929 C 1.0045 0.42624 0.42189 0.0
C930 C 0.00872 0.37858 0.3737 0.0
C931 C 0.00866 0.42016 0.44092 0.0
C932 C 0.01788 0.39666 0.46195 0.0
C933 C 0.01239 0.4014 0.44357 0.0
C934 C 0.01543 0.42926 0.47498 0.0
C935 C 0.01979 0.41067 0.47781 0.0
C936 C 0.00997 0.43395 0.45671 0.0
C937 C 0.99201 0.45846 0.36421 0.0
C938 C 0.98145 0.4848 0.38381 0.0
C939 C 0.99165 0.48965 0.35265 0.0
C940 C 0.99543 0.47058 0.35008 0.0
C941 C 0.98432 0.49686 0.3694 0.0
C942 C 0.9854 0.46577 0.38129 0.0
C943 C 0.9956 0.43831 0.36122 0.0
O944 O 0.02261 0.39248 0.37841 0.0
O945 O 0.992 0.38335 0.378 0.0
O946 O 0.98232 0.42594 0.3662 0.0
O947 O 0.01302 0.43492 0.36701 0.0
H948 H 0.99239 0.38754 0.33969 0.0
H949 H 0.99248 0.37016 0.30813 0.0
H950 H 0.02621 0.32928 0.33331 0.0
H951 H 0.02533 0.34641 0.36496 0.0
H952 H 0.02113 0.3822 0.46366 0.0
H953 H 0.01143 0.39061 0.43144 0.0
H954 H 0.01626 0.44024 0.48692 0.0
H955 H 1.00706 0.44848 0.45485 0.0
H956 H 0.97601 0.49005 0.39692 0.0
H957 H 0.99384 0.49856 0.34122 0.0
H958 H 1.00074 0.46522 0.33693 0.0
H959 H 0.98303 0.45667 0.39255 0.0
H960 H 0.26382 0.45213 0.58202 0.0
C961 C 0.25879 0.46307 0.59152 0.0
C962 C 0.25524 0.48071 0.58483 0.0
C963 C 0.25496 0.45938 0.61024 0.0
H964 H 0.24471 0.50786 0.59126 0.0
C965 C 0.24795 0.49453 0.5967 0.0
C966 C 0.24376 0.4912 0.61503 0.0
C967 C 0.24754 0.47381 0.62196 0.0
C968 C 0.25676 0.44005 0.61708 0.0
H969 H 0.2442 0.47139 0.63624 0.0
C970 C 0.2722 0.4292 0.61339 0.0
C971 C 0.27339 0.41132 0.6208 0.0
C972 C 0.2425 0.43227 0.62762 0.0
H973 H 0.23017 0.43971 0.63022 0.0
C974 C 0.2437 0.41469 0.63479 0.0
H975 H 0.28335 0.43476 0.60528 0.0
C976 C 0.25904 0.40436 0.63154 0.0
H977 H 0.25966 0.39073 0.63733 0.0
H978 H 0.23263 0.40902 0.64293 0.0
H979 H 0.34225 0.63318 0.98223 0.0
C980 C 0.34995 0.62696 0.9936 0.0
C981 C 0.34954 0.60695 0.99265 0.0
C982 C 0.36117 0.63861 0.00881 0.0
H983 H 0.3599 0.5833 1.0058 0.0
C984 C 0.35994 0.59877 1.00686 0.0
C985 C 0.3713 0.60998 0.02176 0.0
C986 C 0.37214 0.62995 0.02268 0.0
C987 C 0.36467 0.65955 0.00863 0.0
H988 H 0.3816 0.63868 0.03381 0.0
C989 C 0.34673 0.67576 0.0126 0.0
C990 C 0.3533 0.70141 0.01422 0.0
C991 C 0.38841 0.66886 1.00591 0.0
H992 H 0.39905 0.65918 1.00329 0.0
C993 C 0.3952 0.69431 0.00889 0.0
H994 H 0.33228 0.67017 0.01437 0.0
C995 C 0.37757 0.71045 0.0133 0.0
H996 H 0.38169 0.72573 0.01511 0.0
H997 H 0.40984 0.69989 0.00796 0.0
H998 H 0.69686 0.09115 0.38976 0.0
C999 C 0.69304 0.07606 0.38524 0.0
C1000 C 0.68464 0.06477 0.39748 0.0
C1001 C 0.69581 0.06804 0.36718 0.0
H1002 H 0.67423 0.03928 0.40462 0.0
C1003 C 0.67968 0.04515 0.39234 0.0
C1004 C 0.68222 0.03325 0.37418 0.0
C1005 C 0.68951 0.04816 0.36175 0.0
C1006 C 0.70501 0.08075 0.35373 0.0
H1007 H 0.69124 0.04461 0.34696 0.0
C1008 C 0.71872 0.09673 0.36059 0.0
C1009 C 0.72598 0.10937 0.34796 0.0
C1010 C 0.69945 0.07761 0.33388 0.0
H1011 H 0.68847 0.06636 0.32783 0.0
C1012 C 0.70745 0.0894 0.32135 0.0
H1013 H 0.72337 0.09975 0.37571 0.0
C1014 C 0.7205 0.10512 0.32826 0.0
H1015 H 0.72604 0.11429 0.31815 0.0
H1016 H 0.70306 0.08664 0.30615 0.0
H1017 H 0.77096 0.859 0.02163 0.0
C1018 C 0.76996 0.87202 0.01479 0.0
C1019 C 0.77807 0.88956 0.02461 0.0
C1020 C 0.76124 0.87136 0.99588 0.0
H1021 H 0.78381 0.91983 0.02344 0.0
C1022 C 0.77748 0.90633 0.01569 0.0
C1023 C 0.7688 0.90606 0.99708 0.0
C1024 C 0.76039 0.88862 0.98727 0.0
C1025 C 0.75463 0.85266 0.98447 0.0
H1026 H 0.75368 0.88844 0.9728 0.0
C1027 C 0.74446 0.83754 0.99231 0.0
C1028 C 0.73939 0.81969 0.98136 0.0
C1029 C 0.75935 0.84964 0.96558 0.0
H1030 H 0.76744 0.86078 0.95926 0.0
C1031 C 0.75416 0.83206 0.95474 0.0
H1032 H 0.74071 0.83954 1.00683 0.0
C1033 C 0.74433 0.81717 0.96256 0.0
H1034 H 0.7405 0.80359 0.95388 0.0
H1035 H 0.75795 0.82992 0.94026 0.0
H1036 H 0.58193 0.26335 0.45335 0.0
C1037 C 0.59208 0.25908 0.46416 0.0
C1038 C 0.58647 0.25629 0.48249 0.0
C1039 C 0.6107 0.25565 0.45976 0.0
H1040 H 0.59479 0.24683 0.50985 0.0
C1041 C 0.59933 0.24986 0.49608 0.0
C1042 C 0.61754 0.24613 0.49207 0.0
C1043 C 0.62336 0.24929 0.47411 0.0
C1044 C 0.61667 0.25651 0.4399 0.0
H1045 H 0.63764 0.24642 0.47129 0.0
C1046 C 0.61203 0.27095 0.42794 0.0
C1047 C 0.6185 0.27088 0.40944 0.0
C1048 C 0.6275 0.2422 0.4328 0.0
H1049 H 0.63078 0.23053 0.44101 0.0
C1050 C 0.63425 0.24249 0.415 0.0
H1051 H 0.60349 0.28197 0.43287 0.0
C1052 C 0.62995 0.25669 0.40351 0.0
H1053 H 0.63554 0.25647 0.38974 0.0
H1054 H 0.6428 0.23151 0.40999 0.0
H1055 H 0.02123 0.77522 0.85681 0.0
C1056 C 0.01515 0.77242 0.86991 0.0
C1057 C 0.02476 0.78045 0.8876 0.0
C1058 C 0.99726 0.76146 0.86927 0.0
H1059 H 0.02442 0.78319 0.91817 0.0
C1060 C 0.01683 0.77713 0.90451 0.0
C1061 C 0.99944 0.76595 0.90417 0.0
C1062 C 0.98959 0.75815 0.88659 0.0
C1063 C 0.9857 0.75489 0.8507 0.0
H1064 H 0.97593 0.74968 0.88639 0.0
C1065 C 0.99349 0.74538 0.83519 0.0
C1066 C 0.98207 0.73982 0.81767 0.0
C1067 C 0.9665 0.75861 0.84843 0.0
H1068 H 0.96022 0.76609 0.85998 0.0
C1069 C 0.95526 0.7531 0.83117 0.0
H1070 H 0.00825 0.74238 0.83671 0.0
C1071 C 0.96295 0.74382 0.81589 0.0
H1072 H 0.95387 0.73958 0.80264 0.0
H1073 H 0.94051 0.75608 0.82961 0.0
H1074 H 0.98661 0.3455 0.63316 0.0
C1075 C 0.99627 0.35359 0.62513 0.0
C1076 C 0.99255 0.35272 0.60512 0.0
C1077 C 0.01193 0.36599 0.63472 0.0
H1078 H 1.0022 0.36228 0.57937 0.0
C1079 C 1.00492 0.36321 0.59485 0.0
C1080 C 0.02056 0.37508 0.604 0.0
C1081 C 0.02353 0.37731 0.62392 0.0
C1082 C 0.01438 0.36932 0.65595 0.0
H1083 H 0.03477 0.38792 0.63061 0.0
C1084 C 0.01053 0.35016 0.67054 0.0
C1085 C 0.0101 0.35512 0.69585 0.0
C1086 C 0.01805 0.39411 0.66716 0.0
H1087 H 0.02013 0.40587 0.65853 0.0
C1088 C 0.01755 0.39895 0.6922 0.0
H1089 H 0.00815 0.33554 0.66395 0.0
C1090 C 0.01377 0.37998 0.70665 0.0
H1091 H 0.01422 0.38339 0.72195 0.0
H1092 H 0.01978 0.41359 0.69874 0.0
H1093 H 0.39008 0.68887 0.08958 0.0
C1094 C 0.38597 0.68781 0.0743 0.0
C1095 C 0.39809 0.68131 0.06173 0.0
C1096 C 0.3683 0.69222 0.06715 0.0
H1097 H 0.40601 0.67741 0.03515 0.0
C1098 C 0.39355 0.68103 0.04195 0.0
C1099 C 0.37525 0.68501 0.03122 0.0
C1100 C 0.36279 0.68924 0.04709 0.0
C1101 C 0.35508 0.69942 0.08089 0.0
H1102 H 0.34792 0.69134 0.04448 0.0
C1103 C 0.36154 0.7141 0.09591 0.0
C1104 C 0.34887 0.72094 0.10866 0.0
C1105 C 0.33593 0.69148 0.07913 0.0
H1106 H 0.33063 0.67991 0.06816 0.0
C1107 C 0.32343 0.69809 0.09172 0.0
H1108 H 0.37625 0.72045 0.09741 0.0
C1109 C 0.32978 0.71267 0.1063 0.0
H1110 H 0.31974 0.71725 0.11601 0.0
H1111 H 0.30873 0.69177 0.09025 0.0
H1112 H 0.45384 0.58202 0.25874 0.0
C1113 C 0.46505 0.59202 0.25482 0.0
C1114 C 0.48236 0.5854 0.25013 0.0
C1115 C 0.46188 0.61132 0.25313 0.0
H1116 H 0.50967 0.59277 0.24028 0.0
C1117 C 0.4965 0.59803 0.24423 0.0
C1118 C 0.49371 0.61704 0.24239 0.0
C1119 C 0.47657 0.6238 0.24707 0.0
C1120 C 0.44268 0.61806 0.2553 0.0
H1121 H 0.47449 0.63857 0.24538 0.0
C1122 C 0.43156 0.6131 0.27017 0.0
C1123 C 0.41344 0.61981 0.27136 0.0
C1124 C 0.43515 0.62951 0.24176 0.0
H1125 H 0.44291 0.63318 0.22989 0.0
C1126 C 0.41735 0.63609 0.24302 0.0
H1127 H 0.43693 0.60423 0.28072 0.0
C1128 C 0.40658 0.63131 0.25769 0.0
H1129 H 0.39273 0.63653 0.25833 0.0
H1130 H 0.41181 0.64485 0.23247 0.0
H1131 H 0.85886 0.02421 0.7694 0.0
C1132 C 0.87179 0.01727 0.76852 0.0
C1133 C 0.88935 0.02712 0.77649 0.0
C1134 C 0.87101 0.99821 0.76008 0.0
H1135 H 0.91949 0.02582 0.78238 0.0
C1136 C 0.90599 0.01806 0.77612 0.0
C1137 C 0.90562 0.9993 0.76777 0.0
C1138 C 0.88818 0.98948 0.75942 0.0
C1139 C 0.85228 0.98675 0.75363 0.0
H1140 H 0.88793 0.97491 0.75292 0.0
C1141 C 0.83712 0.99444 0.74341 0.0
C1142 C 0.81932 0.98335 0.73843 0.0
C1143 C 0.84931 0.9679 0.75853 0.0
H1144 H 0.86042 0.9617 0.76669 0.0
C1145 C 0.83182 0.95693 0.75342 0.0
H1146 H 0.83907 0.00893 0.73955 0.0
C1147 C 0.81693 0.96457 0.74351 0.0
H1148 H 0.80345 0.95572 0.73972 0.0
H1149 H 0.82974 0.94247 0.75732 0.0
H1150 H 0.63 0.99138 0.33538 0.0
C1151 C 0.62308 1.0023 0.34309 0.0
C1152 C 0.60299 1.00118 0.34137 0.0
C1153 C 0.63401 0.01618 0.3566 0.0
H1154 H 0.57864 0.01326 0.35134 0.0
C1155 C 0.59414 0.01468 0.35211 0.0
C1156 C 0.60462 0.02765 0.36629 0.0
C1157 C 0.62456 0.02844 0.36854 0.0
C1158 C 0.65447 0.01465 0.36209 0.0
H1159 H 0.63259 0.03777 0.38027 0.0
C1160 C 0.67194 0.01451 0.34539 0.0
C1161 C 0.69676 0.01314 0.35359 0.0
C1162 C 0.6613 0.01152 0.38672 0.0
H1163 H 0.65065 0.01083 0.39675 0.0
C1164 C 0.6859 0.00952 0.39476 0.0
H1165 H 0.6678 0.01608 0.33053 0.0
C1166 C 0.70358 0.01122 0.37854 0.0
H1167 H 0.71843 0.01086 0.38364 0.0
H1168 H 0.69 1.00784 0.40959 0.0
H1169 H 0.09 0.39254 0.70081 0.0
C1170 C 0.0758 0.38574 0.69585 0.0
C1171 C 0.0662 0.39093 0.67952 0.0
C1172 C 0.06696 0.37098 0.7047 0.0
H1173 H 0.04693 0.38041 0.65697 0.0
C1174 C 0.04949 0.37952 0.67196 0.0
C1175 C 0.0345 0.37343 0.68423 0.0
C1176 C 0.04674 0.36683 0.70056 0.0
C1177 C 0.07846 0.35897 0.71684 0.0
H1178 H 0.0412 0.35921 0.71169 0.0
C1179 C 0.09646 0.36601 0.72695 0.0
C1180 C 0.1082 0.35338 0.7354 0.0
C1181 C 0.07238 0.33926 0.71611 0.0
H1182 H 0.05908 0.33307 0.70807 0.0
C1183 C 0.08383 0.32692 0.72482 0.0
H1184 H 0.10165 0.38103 0.72784 0.0
C1185 C 0.10169 0.33386 0.73421 0.0
H1186 H 0.11053 0.32392 0.74051 0.0
H1187 H 0.07903 0.31179 0.72385 0.0
H1188 H 0.74582 0.5571 0.42969 0.0
C1189 C 0.75491 0.54914 0.42113 0.0
C1190 C 0.76738 0.53744 0.42996 0.0
C1191 C 0.7535 0.54967 0.4011 0.0
H1192 H 0.78735 0.5168 0.42547 0.0
C1193 C 0.77849 0.52653 0.41877 0.0
C1194 C 0.77682 0.52626 0.39891 0.0
C1195 C 0.76448 0.53796 0.39011 0.0
C1196 C 0.73928 0.56077 0.39124 0.0
H1197 H 0.76321 0.53763 0.37467 0.0
C1198 C 0.73673 0.57985 0.39795 0.0
C1199 C 0.72392 0.59012 0.38742 0.0
C1200 C 0.72824 0.55207 0.37448 0.0
H1201 H 0.7294 0.53736 0.36921 0.0
C1202 C 0.71546 0.56211 0.3643 0.0
H1203 H 0.74508 0.58685 0.4108 0.0
C1204 C 0.71341 0.58099 0.3706 0.0
H1205 H 0.7034 0.5885 0.36237 0.0
H1206 H 0.70714 0.55522 0.3514 0.0
H1207 H 0.68595 0.38369 0.02652 0.0
C1208 C 0.67366 0.38831 0.01862 0.0
C1209 C 0.66408 0.40293 0.02725 0.0
C1210 C 0.66832 0.38095 0.99929 0.0
H1211 H 0.64245 0.42184 0.02288 0.0
C1212 C 0.64892 0.40969 0.01669 0.0
C1213 C 0.64469 0.40403 0.99721 0.0
C1214 C 0.65382 0.38922 0.98868 0.0
C1215 C 0.67945 0.3667 0.98935 0.0
H1216 H 0.65018 0.38493 0.97355 0.0
C1217 C 0.68688 0.35163 0.99861 0.0
C1218 C 0.69733 0.33851 0.98872 0.0
C1219 C 0.68298 0.36837 0.97023 0.0
H1220 H 0.67828 0.38002 0.96274 0.0
C1221 C 0.69302 0.35528 0.96045 0.0
H1222 H 0.68469 0.35017 0.01336 0.0
C1223 C 0.70011 0.34046 0.96956 0.0
H1224 H 0.70769 0.33035 0.96154 0.0
H1225 H 0.69541 0.3567 0.94571 0.0
H1226 H 0.32282 0.93777 0.62415 0.0
C1227 C 0.32429 0.95321 0.62668 0.0
C1228 C 0.33874 0.96345 0.61833 0.0
C1229 C 0.31171 0.96281 0.63758 0.0
H1230 H 0.35272 0.99116 0.61524 0.0
C1231 C 0.34151 0.98338 0.62178 0.0
C1232 C 0.32872 0.99362 0.63134 0.0
C1233 C 0.31381 0.98329 0.63932 0.0
C1234 C 0.29658 0.95148 0.64701 0.0
H1235 H 0.30348 0.99123 0.64601 0.0
C1236 C 0.28943 0.9321 0.64046 0.0
C1237 C 0.27671 0.9215 0.65087 0.0
C1238 C 0.28988 0.95982 0.66365 0.0
H1239 H 0.295 0.97419 0.66947 0.0
C1240 C 0.27691 0.9496 0.67353 0.0
H1241 H 0.29384 0.92503 0.62761 0.0
C1242 C 0.2705 0.93057 0.66733 0.0
H1243 H 0.26068 0.92284 0.67549 0.0
H1244 H 0.27208 0.95639 0.68634 0.0
H1245 H 0.25521 0.15012 0.98795 0.0
C1246 C 0.25146 0.13977 0.99771 0.0
C1247 C 0.23745 0.12443 0.99131 0.0
C1248 C 0.26167 0.14069 0.01602 0.0
H1249 H 0.22374 0.09758 0.99743 0.0
C1250 C 0.2336 0.11002 1.0031 0.0
C1251 C 0.244 0.11019 0.02094 0.0
C1252 C 0.25744 0.12589 0.02765 0.0
C1253 C 0.27837 0.15545 0.02208 0.0
H1254 H 0.26514 0.12602 0.04166 0.0
C1255 C 0.27893 0.17423 0.01648 0.0
C1256 C 0.29536 0.18734 0.02169 0.0
C1257 C 0.29451 0.15036 0.03299 0.0
H1258 H 0.29516 0.13599 0.03694 0.0
C1259 C 0.31046 0.16355 0.03853 0.0
H1260 H 0.26689 0.17858 0.00794 0.0
C1261 C 0.31093 0.18189 0.0329 0.0
H1262 H 0.32364 0.19183 0.03706 0.0
H1263 H 0.32268 0.1594 0.04693 0.0
H1264 H 0.42996 0.74746 0.55899 0.0
C1265 C 0.42187 0.75577 0.54968 0.0
C1266 C 0.43145 0.76636 0.53683 0.0
C1267 C 0.40177 0.75527 0.54972 0.0
H1268 H 0.4282 0.78305 0.51304 0.0
C1269 C 0.42097 0.77587 0.52369 0.0
C1270 C 0.40118 0.77497 0.52288 0.0
C1271 C 0.39168 0.76548 0.53637 0.0
C1272 C 0.39094 0.74263 0.56199 0.0
H1273 H 0.37635 0.76549 0.53577 0.0
C1274 C 0.39885 0.73827 0.58014 0.0
C1275 C 0.38833 0.72562 0.59068 0.0
C1276 C 0.37239 0.7341 0.555 0.0
H1277 H 0.36593 0.73614 0.54096 0.0
C1278 C 0.36188 0.72221 0.56571 0.0
H1279 H 0.41309 0.74436 0.58595 0.0
C1280 C 0.36976 0.71796 0.58336 0.0
H1281 H 0.36139 0.7084 0.59127 0.0
H1282 H 0.34764 0.71595 0.56011 0.0
H1283 H 0.99016 0.25296 0.14989 0.0
C1284 C 0.99901 0.25012 0.13847 0.0
C1285 C 0.99225 0.23565 0.12363 0.0
C1286 C 0.0166 0.26136 0.13798 0.0
H1287 H 0.99657 0.22278 0.09584 0.0
C1288 C 1.00268 0.23286 0.10793 0.0
C1289 C 0.01972 0.24424 0.10667 0.0
C1290 C 0.02701 0.25783 0.12207 0.0
C1291 C 0.02335 0.27782 0.15294 0.0
H1292 H 0.04064 0.26592 0.12123 0.0
C1293 C 0.01831 0.27809 0.17193 0.0
C1294 C 0.02421 0.29418 0.18529 0.0
C1295 C 0.03445 0.294 0.14799 0.0
H1296 H 0.03796 0.29508 0.13354 0.0
C1297 C 0.0408 0.30955 0.16147 0.0
H1298 H 0.00969 0.26609 0.17634 0.0
C1299 C 0.0357 0.30968 0.17999 0.0
H1300 H 0.04035 0.32215 0.19013 0.0
H1301 H 0.04936 0.32177 0.15741 0.0
H1302 H 0.02306 0.68946 0.38393 0.0
C1303 C 0.01699 0.6758 0.38765 0.0
C1304 C 0.02672 0.66697 0.40222 0.0
C1305 C 0.99861 0.66781 0.3793 0.0
H1306 H 0.02551 0.64387 0.41982 0.0
C1307 C 0.01847 0.64986 0.40777 0.0
C1308 C 0.99952 0.64319 0.40159 0.0
C1309 C 0.98992 0.65163 0.38687 0.0
C1310 C 0.98728 0.67749 0.36466 0.0
H1311 H 0.97531 0.64612 0.38215 0.0
C1312 C 0.99577 0.68678 0.3501 0.0
C1313 C 0.98434 0.69462 0.33588 0.0
C1314 C 0.96736 0.67718 0.36511 0.0
H1315 H 0.96024 0.67124 0.37645 0.0
C1316 C 0.95613 0.68469 0.35106 0.0
H1317 H 0.01109 0.68797 0.34983 0.0
C1318 C 0.96446 0.69311 0.33647 0.0
H1319 H 0.95525 0.69846 0.32553 0.0
H1320 H 0.94083 0.68396 0.35147 0.0
H1321 H 0.62476 0.32281 0.9372 0.0
C1322 C 0.62797 0.3248 0.95254 0.0
C1323 C 0.62034 0.33997 0.96248 0.0
C1324 C 0.63857 0.31209 0.96238 0.0
H1325 H 0.61902 0.35562 0.98975 0.0
C1326 C 0.62468 0.34365 0.98225 0.0
C1327 C 0.63336 0.33057 0.99286 0.0
C1328 C 0.64025 0.31477 0.98289 0.0
C1329 C 0.64724 0.29594 0.95144 0.0
H1330 H 0.64584 0.30423 0.9913 0.0
C1331 C 0.6426 0.29032 0.93135 0.0
C1332 C 0.65204 0.27609 0.92156 0.0
C1333 C 0.66116 0.28629 0.96107 0.0
H1334 H 0.66555 0.28961 0.97604 0.0
C1335 C 0.6701 0.27206 0.95161 0.0
H1336 H 0.63195 0.29689 0.92306 0.0
C1337 C 0.66565 0.26701 0.93212 0.0
H1338 H 0.67285 0.25578 0.9253 0.0
H1339 H 0.68071 0.26495 0.95949 0.0
H1340 H 0.55666 0.43099 0.74345 0.0
C1341 C 0.54898 0.4226 0.75291 0.0
C1342 C 0.53729 0.43153 0.76533 0.0
C1343 C 0.54983 0.40262 0.75203 0.0
H1344 H 0.51702 0.42735 0.78575 0.0
C1345 C 0.52672 0.42055 0.77691 0.0
C1346 C 0.52676 0.40071 0.77575 0.0
C1347 C 0.53845 0.39179 0.76346 0.0
C1348 C 0.56088 0.39257 0.73791 0.0
H1349 H 0.53836 0.37638 0.76257 0.0
C1350 C 0.57991 0.39924 0.73525 0.0
C1351 C 0.59019 0.38849 0.72261 0.0
C1352 C 0.55222 0.37562 0.72714 0.0
H1353 H 0.53755 0.37036 0.72844 0.0
C1354 C 0.56226 0.36523 0.71451 0.0
H1355 H 0.58688 0.41223 0.74341 0.0
C1356 C 0.5811 0.3715 0.71235 0.0
H1357 H 0.58861 0.3631 0.70246 0.0
H1358 H 0.5554 0.35219 0.70639 0.0
H1359 H 0.15169 0.98957 0.2519 0.0
C1360 C 0.14048 0.99869 0.24921 0.0
C1361 C 0.12604 0.99301 0.23409 0.0
C1362 C 0.13953 0.01525 0.26174 0.0
H1363 H 0.09897 0.99875 0.2207 0.0
C1364 C 0.11076 1.00402 0.23145 0.0
C1365 C 0.10919 0.02017 0.2441 0.0
C1366 C 0.12394 0.02606 0.25879 0.0
C1367 C 0.15316 0.01992 0.27937 0.0
H1368 H 0.1228 0.03865 0.26848 0.0
C1369 C 0.17296 0.01844 0.27929 0.0
C1370 C 0.18538 0.02345 0.29624 0.0
C1371 C 0.14608 0.02569 0.29675 0.0
H1372 H 0.13094 0.02632 0.29752 0.0
C1373 C 0.15834 0.03046 0.31347 0.0
H1374 H 0.17872 0.01393 0.26612 0.0
C1375 C 0.17784 0.02947 0.31323 0.0
H1376 H 0.18708 0.03317 0.32646 0.0
H1377 H 0.15268 0.03488 0.3267 0.0
H1378 H 0.38499 0.02697 0.68672 0.0
C1379 C 0.38905 0.01957 0.67383 0.0
C1380 C 0.40384 0.02824 0.66447 0.0
C1381 C 0.38069 1.00074 0.66737 0.0
H1382 H 0.42204 0.02442 0.64206 0.0
C1383 C 0.40981 0.01826 0.64846 0.0
C1384 C 0.40303 0.99916 0.64293 0.0
C1385 C 0.38809 0.9906 0.65192 0.0
C1386 C 0.36611 0.99064 0.67807 0.0
H1387 H 0.38296 0.97577 0.64737 0.0
C1388 C 0.35154 1.0001 0.68621 0.0
C1389 C 0.33775 0.9899 0.69572 0.0
C1390 C 0.36683 0.97108 0.68026 0.0
H1391 H 0.37811 0.9634 0.67501 0.0
C1392 C 0.35322 0.96106 0.68956 0.0
H1393 H 0.35096 0.01523 0.68526 0.0
C1394 C 0.33875 0.97032 0.69713 0.0
H1395 H 0.32815 0.96209 0.70402 0.0
H1396 H 0.35391 0.94599 0.69092 0.0
H1397 H 0.93575 0.62583 0.32113 0.0
C1398 C 0.95112 0.62862 0.32305 0.0
C1399 C 0.96094 0.62026 0.33777 0.0
C1400 C 0.96115 0.6399 0.3109 0.0
H1401 H 0.98826 0.61707 0.35235 0.0
C1402 C 0.98078 0.6237 0.34103 0.0
C1403 C 0.99135 0.63339 0.32861 0.0
C1404 C 0.98158 0.64159 0.31364 0.0
C1405 C 0.95056 0.64943 0.29528 0.0
H1406 H 0.9901 0.64837 0.30377 0.0
C1407 C 0.93087 0.64414 0.28853 0.0
C1408 C 0.92137 0.65404 0.27452 0.0
C1409 C 0.96019 0.66466 0.28723 0.0
H1410 H 0.9748 0.66985 0.29191 0.0
C1411 C 0.95113 0.6739 0.273 0.0
H1412 H 0.92271 0.6326 0.29411 0.0
C1413 C 0.93201 0.66864 0.26664 0.0
H1414 H 0.92552 0.67614 0.25547 0.0
H1415 H 0.95899 0.6854 0.26698 0.0
H1416 H 0.10897 0.65567 0.37898 0.0
H1417 H 0.10739 0.60087 0.34574 0.0
H1418 H 0.07609 0.65812 0.36621 0.0
H1419 H 0.07494 0.60348 0.33257 0.0
H1420 H 0.0105 0.60212 0.33177 0.0
H1421 H 0.04415 0.60109 0.34136 0.0
H1422 H 0.05415 0.66228 0.33981 0.0
H1423 H 0.02006 0.66314 0.33143 0.0
C1424 C 0.10168 0.64425 0.36878 0.0
C1425 C 0.11073 0.62793 0.36363 0.0
C1426 C 0.08283 0.64569 0.36134 0.0
C1427 C 0.07264 0.63092 0.34842 0.0
C1428 C 0.08202 0.61494 0.34283 0.0
C1429 C 0.10072 0.61343 0.35039 0.0
C1430 C 0.01991 0.61536 0.33331 0.0
C1431 C 0.0125 0.63283 0.33083 0.0
C1432 C 0.03933 0.61476 0.33868 0.0
C1433 C 0.05209 0.63162 0.34146 0.0
C1434 C 0.04481 0.64901 0.33813 0.0
C1435 C 0.02525 0.64956 0.33293 0.0
H1436 H 0.43995 0.37277 0.85095 0.0
H1437 H 0.41356 0.38565 0.79667 0.0
H1438 H 0.47001 0.37017 0.83712 0.0
H1439 H 0.44355 0.38297 0.78285 0.0
H1440 H 0.49814 0.37391 0.75932 0.0
H1441 H 0.46886 0.36392 0.77331 0.0
H1442 H 0.49279 0.39441 0.82755 0.0
H1443 H 0.52193 0.40407 0.81358 0.0
C1444 C 0.44048 0.37484 0.836 0.0
C1445 C 0.42437 0.37973 0.82502 0.0
C1446 C 0.45772 0.37329 0.82807 0.0
C1447 C 0.45929 0.37654 0.80893 0.0
C1448 C 0.44284 0.38016 0.79759 0.0
C1449 C 0.42559 0.38173 0.80554 0.0
C1450 C 0.49739 0.37773 0.77443 0.0
C1451 C 0.51225 0.38974 0.78541 0.0
C1452 C 0.48053 0.37227 0.78238 0.0
C1453 C 0.47833 0.3786 0.80148 0.0
C1454 C 0.49397 0.38914 0.81285 0.0
C1455 C 0.51071 0.39469 0.80488 0.0
H1456 H 0.50274 0.01681 0.59611 0.0
H1457 H 0.51384 0.96507 0.62116 0.0
H1458 H 0.46958 0.01187 0.60224 0.0
H1459 H 0.4803 0.95974 0.62698 0.0
H1460 H 0.42697 0.97571 0.65744 0.0
H1461 H 0.45785 0.97135 0.64632 0.0
H1462 H 0.43986 0.99384 0.59348 0.0
H1463 H 0.4093 0.99922 0.60536 0.0
C1464 C 0.49801 1.00421 0.60273 0.0
C1465 C 0.51094 0.99129 0.60805 0.0
C1466 C 0.47887 1.00123 0.60609 0.0
C1467 C 0.47199 0.98515 0.61476 0.0
C1468 C 0.485 0.97229 0.62028 0.0
C1469 C 0.50426 0.97537 0.61703 0.0
C1470 C 0.42928 0.97876 0.64303 0.0
C1471 C 0.41581 0.98783 0.63226 0.0
C1472 C 0.44713 0.97645 0.63668 0.0
C1473 C 0.4517 0.98287 0.61924 0.0
C1474 C 0.43713 0.9894 0.60731 0.0
C1475 C 0.41941 0.99206 0.61386 0.0
H1476 H 0.99482 0.05157 0.21328 0.0
H1477 H 0.99129 0.01427 0.25808 0.0
H1478 H 0.02955 0.0547 0.21872 0.0
H1479 H 0.0261 0.01697 0.2633 0.0
H1480 H 0.08932 0.02937 0.27444 0.0
H1481 H 0.05605 0.03589 0.27332 0.0
H1482 H 0.05317 0.03418 0.21178 0.0
H1483 H 0.0866 0.02856 0.21304 0.0
C1484 C 1.00151 0.04416 0.22442 0.0
C1485 C 0.99035 0.03251 0.23512 0.0
C1486 C 0.02142 0.0459 0.2275 0.0
C1487 C 0.0307 0.03589 0.24127 0.0
C1488 C 0.01949 0.02506 0.2527 0.0
C1489 C 0.99952 0.02345 0.2497 0.0
C1490 C 0.08178 0.0311 0.26074 0.0
C1491 C 0.09059 0.02837 0.2438 0.0
C1492 C 0.06259 0.03452 0.26008 0.0
C1493 C 0.05178 0.03529 0.24245 0.0
C1494 C 0.06101 0.03384 0.22565 0.0
C1495 C 0.08018 0.03049 0.22633 0.0
H1496 H 0.34639 0.12093 0.64466 0.0
H1497 H 0.38538 0.09901 0.6067 0.0
H1498 H 0.33273 0.08805 0.64735 0.0
H1499 H 0.37207 0.06649 0.60964 0.0
H1500 H 0.33156 0.01285 0.60001 0.0
H1501 H 0.34172 0.04659 0.59884 0.0
H1502 H 0.34095 0.0568 0.65996 0.0
H1503 H 0.33077 0.02276 0.66098 0.0
C1504 C 0.35205 0.10916 0.63689 0.0
C1505 C 0.36702 0.11273 0.62544 0.0
C1506 C 0.34432 0.0903 0.63856 0.0
C1507 C 0.35114 0.07458 0.62856 0.0
C1508 C 0.36622 0.07821 0.61732 0.0
C1509 C 0.37402 0.09693 0.6158 0.0
C1510 C 0.33329 0.0223 0.61322 0.0
C1511 C 0.33062 0.01491 0.63072 0.0
C1512 C 0.33927 0.04167 0.61256 0.0
C1513 C 0.34259 0.05442 0.62935 0.0
C1514 C 0.3386 0.04739 0.64673 0.0
C1515 C 0.33269 0.02784 0.64737 0.0
H1516 H 0.21134 0.99549 0.05052 0.0
H1517 H 0.25833 0.99352 0.01591 0.0
H1518 H 0.21693 0.03032 0.05507 0.0
H1519 H 0.2637 0.02846 0.01999 0.0
H1520 H 0.27397 0.09155 0.03346 0.0
H1521 H 0.27266 0.05819 0.0402 0.0
H1522 H 0.21101 0.05432 0.03437 0.0
H1523 H 0.21244 0.08772 0.02825 0.0
C1524 C 0.22301 1.00256 0.04405 0.0
C1525 C 0.23427 0.99185 0.03269 0.0
C1526 C 0.22618 0.02251 0.0466 0.0
C1527 C 0.2406 0.03226 0.0377 0.0
C1528 C 0.2526 0.02146 0.02724 0.0
C1529 C 0.24951 1.00143 0.02483 0.0
C1530 C 0.26018 0.08377 0.03441 0.0
C1531 C 0.24329 0.09221 0.03028 0.0
C1532 C 0.25942 0.06455 0.03797 0.0
C1533 C 0.24174 0.05343 0.03753 0.0
C1534 C 0.2249 0.0624 0.03496 0.0
C1535 C 0.22567 0.08157 0.03139 0.0
H1536 H 0.85047 0.43815 0.3704 0.0
H1537 H 0.79697 0.41254 0.38608 0.0
H1538 H 0.8368 0.46831 0.36781 0.0
H1539 H 0.78332 0.4426 0.38335 0.0
H1540 H 0.75956 0.49693 0.37336 0.0
H1541 H 0.77312 0.4673 0.36378 0.0
H1542 H 0.82814 0.49199 0.39177 0.0
H1543 H 0.81457 0.52146 0.40105 0.0
C1544 C 0.83573 0.43886 0.37312 0.0
C1545 C 0.82493 0.42291 0.37872 0.0
C1546 C 0.82788 0.45617 0.37157 0.0
C1547 C 0.809 0.45798 0.37551 0.0
C1548 C 0.79783 0.44171 0.37997 0.0
C1549 C 0.8057 0.4244 0.38156 0.0
C1550 C 0.77472 0.49625 0.3767 0.0
C1551 C 0.78605 0.51145 0.38791 0.0
C1552 C 0.78244 0.47919 0.37148 0.0
C1553 C 0.80166 0.47712 0.37726 0.0
C1554 C 0.81333 0.49305 0.38694 0.0
C1555 C 0.80559 0.50999 0.39226 0.0
H1556 H 0.63878 0.51853 1.00473 0.0
H1557 H 0.58497 0.50203 0.97009 0.0
H1558 H 0.64675 0.48563 0.9998 0.0
H1559 H 0.5928 0.46907 0.96562 0.0
H1560 H 0.6075 0.41181 0.99448 0.0
H1561 H 0.59749 0.44332 0.98918 0.0
H1562 H 0.65307 0.46076 0.97229 0.0
H1563 H 0.6628 0.42918 0.9771 0.0
C1564 C 0.62878 0.50799 0.99584 0.0
C1565 C 0.6112 0.51294 0.98789 0.0
C1566 C 0.63334 0.48914 0.99301 0.0
C1567 C 0.6204 0.47482 0.98224 0.0
C1568 C 0.60298 0.47979 0.97406 0.0
C1569 C 0.59848 0.49865 0.97674 0.0
C1570 C 0.61711 0.42202 0.98854 0.0
C1571 C 0.63581 0.41803 0.98596 0.0
C1572 C 0.61151 0.44013 0.98574 0.0
C1573 C 0.62467 0.45458 0.98071 0.0
C1574 C 0.64273 0.44995 0.97637 0.0
C1575 C 0.64816 0.43175 0.97875 0.0
H1576 H 0.65544 0.37457 0.11412 0.0
H1577 H 0.59659 0.35029 0.10709 0.0
H1578 H 0.65891 0.36199 0.08115 0.0
H1579 H 0.60013 0.33696 0.07484 0.0
H1580 H 0.60276 0.33824 0.01168 0.0
H1581 H 0.60157 0.3473 0.04526 0.0
H1582 H 0.66032 0.33623 0.05686 0.0
H1583 H 0.66168 0.32816 0.02256 0.0
C1584 C 0.64337 0.36622 0.10566 0.0
C1585 C 0.62566 0.36365 0.11314 0.0
C1586 C 0.64534 0.35892 0.08674 0.0
C1587 C 0.62971 0.34867 0.07497 0.0
C1588 C 0.61237 0.34527 0.08303 0.0
C1589 C 0.61034 0.35279 0.10167 0.0
C1590 C 0.61552 0.33773 0.02131 0.0
C1591 C 0.6325 0.33282 0.01414 0.0
C1592 C 0.61476 0.34273 0.04079 0.0
C1593 C 0.63083 0.34255 0.05412 0.0
C1594 C 0.64768 0.33686 0.04713 0.0
C1595 C 0.64846 0.33198 0.0274 0.0
H1596 H 0.04766 0.21193 0.99121 0.0
H1597 H 0.01809 0.26242 0.98944 0.0
H1598 H 0.05117 0.21646 0.02603 0.0
H1599 H 0.02083 0.26665 0.02438 0.0
H1600 H 0.03247 0.27443 0.08797 0.0
H1601 H 0.03925 0.27348 0.05468 0.0
H1602 H 0.03055 0.21166 0.04952 0.0
H1603 H 0.02486 0.21268 0.08291 0.0
C1604 C 0.04207 0.22413 0.99835 0.0
C1605 C 0.03248 0.23675 0.98768 0.0
C1606 C 0.04396 0.22667 0.01831 0.0
C1607 C 0.03602 0.24174 0.02813 0.0
C1608 C 0.0273 0.25498 0.01739 0.0
C1609 C 0.02565 0.25256 0.99735 0.0
C1610 C 0.03272 0.26064 0.07989 0.0
C1611 C 0.02801 0.24362 0.08806 0.0
C1612 C 0.03628 0.2601 0.06069 0.0
C1613 C 0.03519 0.24252 0.04923 0.0
C1614 C 0.03172 0.22549 0.05783 0.0
C1615 C 0.02829 0.22605 0.077 0.0
H1616 H 0.41221 0.83853 0.43427 0.0
H1617 H 0.35525 0.81304 0.41301 0.0
H1618 H 0.40998 0.82319 0.46361 0.0
H1619 H 0.35328 0.79731 0.44259 0.0
H1620 H 0.38295 0.80739 0.52094 0.0
H1621 H 0.37468 0.82241 0.49157 0.0
H1622 H 0.38968 0.7732 0.45757 0.0
H1623 H 0.39801 0.75834 0.48671 0.0
C1624 C 0.39906 0.82995 0.436 0.0
C1625 C 0.38383 0.82715 0.42136 0.0
C1626 C 0.39783 0.82118 0.4528 0.0
C1627 C 0.38137 0.8094 0.45537 0.0
C1628 C 0.36603 0.80654 0.4409 0.0
C1629 C 0.36723 0.8154 0.424 0.0
C1630 C 0.38368 0.79953 0.50714 0.0
C1631 C 0.39093 0.7817 0.50598 0.0
C1632 C 0.37904 0.80809 0.49042 0.0
C1633 C 0.38143 0.79881 0.47243 0.0
C1634 C 0.38738 0.78042 0.47127 0.0
C1635 C 0.39211 0.77196 0.4879 0.0
H1636 H 0.99962 0.63907 0.51645 0.0
H1637 H 0.9792 0.57971 0.49906 0.0
H1638 H 0.99481 0.64594 0.48319 0.0
H1639 H 0.9748 0.58656 0.4658 0.0
H1640 H 1.00322 0.60689 0.41089 0.0
H1641 H 0.99773 0.59621 0.44207 0.0
H1642 H 0.96919 0.64633 0.45561 0.0
H1643 H 0.97442 0.65674 0.42435 0.0
C1644 C 0.99382 0.62755 0.50562 0.0
C1645 C 0.98997 0.6088 0.51048 0.0
C1646 C 0.99104 0.63148 0.48654 0.0
C1647 C 0.98438 0.61676 0.47185 0.0
C1648 C 0.98008 0.59815 0.47675 0.0
C1649 C 0.98273 0.59424 0.49582 0.0
C1650 C 0.99484 0.61501 0.42012 0.0
C1651 C 0.9891 0.63253 0.41516 0.0
C1652 C 0.99187 0.60904 0.43807 0.0
C1653 C 0.98341 0.62067 0.45146 0.0
C1654 C 0.976 0.63722 0.44571 0.0
C1655 C 0.97865 0.64298 0.42765 0.0
H1656 H 0.89199 0.3978 0.67962 0.0
H1657 H 0.89733 0.36586 0.6255 0.0
H1658 H 0.92416 0.39118 0.69151 0.0
H1659 H 0.92929 0.35942 0.6373 0.0
H1660 H 0.98802 0.3883 0.64962 0.0
H1661 H 0.95672 0.3864 0.64437 0.0
H1662 H 0.94916 0.36597 0.69802 0.0
H1663 H 0.98108 0.36664 0.70554 0.0
C1664 C 0.89978 0.38893 0.67046 0.0
C1665 C 0.89229 0.38275 0.65144 0.0
C1666 C 0.91817 0.3851 0.6773 0.0
C1667 C 0.92932 0.37504 0.66523 0.0
C1668 C 0.92111 0.36744 0.64684 0.0
C1669 C 0.90285 0.37124 0.64004 0.0
C1670 C 0.98214 0.38224 0.66159 0.0
C1671 C 0.99354 0.37561 0.67846 0.0
C1672 C 0.96246 0.38145 0.65762 0.0
C1673 C 0.95024 0.37514 0.6702 0.0
C1674 C 0.95834 0.3703 0.6874 0.0
C1675 C 0.97831 0.37069 0.69133 0.0
H1676 H 0.60715 0.62831 0.22286 0.0
H1677 H 0.58192 0.64111 0.1681 0.0
H1678 H 0.57726 0.63212 0.2363 0.0
H1679 H 0.55195 0.64522 0.18162 0.0
H1680 H 0.49764 0.61646 0.20482 0.0
H1681 H 0.52715 0.62467 0.19099 0.0
H1682 H 0.55331 0.65059 0.24641 0.0
H1683 H 0.52372 0.64147 0.26025 0.0
C1684 C 0.59539 0.63246 0.21379 0.0
C1685 C 0.59697 0.63417 0.19432 0.0
C1686 C 0.57815 0.63473 0.22154 0.0
C1687 C 0.56199 0.63887 0.21007 0.0
C1688 C 0.56391 0.64167 0.19084 0.0
C1689 C 0.58114 0.63932 0.18307 0.0
C1690 C 0.50946 0.62467 0.21382 0.0
C1691 C 0.50841 0.62851 0.23353 0.0
C1692 C 0.52648 0.62935 0.20593 0.0
C1693 C 0.54287 0.63802 0.21761 0.0
C1694 C 0.54115 0.64352 0.23704 0.0
C1695 C 0.52412 0.63865 0.24496 0.0
H1696 H 0.50497 0.99324 0.39823 0.0
H1697 H 0.50053 0.0529 0.4146 0.0
H1698 H 0.53866 1.00088 0.39367 0.0
H1699 H 0.53432 0.06071 0.40991 0.0
H1700 H 0.5826 0.05698 0.36425 0.0
H1701 H 0.55283 0.05752 0.37916 0.0
H1702 H 0.57035 0.01478 0.41493 0.0
H1703 H 0.60026 0.01464 0.40031 0.0
C1704 C 0.51129 1.00798 0.40079 0.0
C1705 C 0.50035 0.02254 0.40655 0.0
C1706 C 0.53055 0.01234 0.39845 0.0
C1707 C 0.53913 0.03136 0.40177 0.0
C1708 C 0.52805 0.04596 0.40739 0.0
C1709 C 0.5088 0.04154 0.40992 0.0
C1710 C 0.58063 0.04874 0.37623 0.0
C1711 C 0.59366 0.03582 0.3812 0.0
C1712 C 0.56349 0.04883 0.38459 0.0
C1713 C 0.55916 0.03581 0.3978 0.0
C1714 C 0.5733 0.02477 0.40458 0.0
C1715 C 0.59057 0.02495 0.39648 0.0
H1716 H 0.02178 1.00059 0.74953 0.0
H1717 H 0.02068 0.97271 0.80124 0.0
H1718 H 0.98692 0.99667 0.74509 0.0
H1719 H 0.98593 0.96832 0.79664 0.0
H1720 H 0.92934 0.99579 0.79925 0.0
H1721 H 0.96251 0.98953 0.80052 0.0
H1722 H 0.95666 0.97714 0.73898 0.0
H1723 H 0.92328 0.9841 0.73783 0.0
C1724 C 0.01409 0.99316 0.75966 0.0
C1725 C 0.02395 0.98722 0.77587 0.0
C1726 C 0.99408 0.99083 0.7571 0.0
C1727 C 0.98352 0.98238 0.77063 0.0
C1728 C 0.99352 0.97528 0.78614 0.0
C1729 C 0.01346 0.97775 0.78877 0.0
C1730 C 0.93503 0.99123 0.78604 0.0
C1731 C 0.92383 0.99052 0.76843 0.0
C1732 C 0.95407 0.98756 0.78674 0.0
C1733 C 0.96243 0.98299 0.76982 0.0
C1734 C 0.95078 0.98092 0.75225 0.0
C1735 C 0.93161 0.98463 0.75158 0.0
H1736 H 0.6494 0.90901 0.41185 0.0
H1737 H 0.666 0.88238 0.35931 0.0
H1738 H 0.66031 0.94041 0.40296 0.0
H1739 H 0.67691 0.91427 0.35022 0.0
H1740 H 0.7043 0.98154 0.35817 0.0
H1741 H 0.70036 0.9499 0.36319 0.0
H1742 H 0.64189 0.9524 0.37094 0.0
H1743 H 0.64367 0.98338 0.36784 0.0
C1744 C 0.65573 0.90989 0.39853 0.0
C1745 C 0.65656 0.89332 0.38612 0.0
C1746 C 0.66204 0.92784 0.39348 0.0
C1747 C 0.66925 0.92974 0.37582 0.0
C1748 C 0.67148 0.91314 0.36394 0.0
C1749 C 0.66519 0.89497 0.3691 0.0
C1750 C 0.69002 0.97762 0.36181 0.0
C1751 C 0.6758 0.99167 0.36609 0.0
C1752 C 0.68816 0.95796 0.36433 0.0
C1753 C 0.67128 0.94909 0.36917 0.0
C1754 C 0.65577 0.95934 0.36869 0.0
C1755 C 0.65763 0.97877 0.36662 0.0
H1756 H 0.80154 0.0216 0.97067 0.0
H1757 H 0.75097 0.02261 1.00026 0.0
H1758 H 0.79661 0.98678 0.96592 0.0
H1759 H 0.74625 0.98766 0.99606 0.0
H1760 H 0.73856 0.92386 0.98304 0.0
H1761 H 0.7395 0.95744 0.97641 0.0
H1762 H 0.80111 0.9632 0.98686 0.0
H1763 H 0.80001 0.92986 0.9928 0.0
C1764 C 0.78924 0.01433 0.976 0.0
C1765 C 0.77677 0.0248 0.98604 0.0
C1766 C 0.78643 0.99437 0.97334 0.0
C1767 C 0.7712 0.98431 0.98086 0.0
C1768 C 0.75804 0.99486 0.98991 0.0
C1769 C 0.76077 0.01491 0.99239 0.0
C1770 C 0.75225 0.93223 0.98321 0.0
C1771 C 0.7692 0.92438 0.98845 0.0
C1772 C 0.75282 0.9515 0.97968 0.0
C1773 C 0.77037 0.96316 0.9813 0.0
C1774 C 0.78733 0.95474 0.98523 0.0
C1775 C 0.78674 0.9356 0.98872 0.0
H1776 H 0.20399 0.59999 0.65986 0.0
H1777 H 0.19005 0.586 0.59908 0.0
H1778 H 0.21615 0.56855 0.66203 0.0
H1779 H 0.2022 0.55504 0.6011 0.0
H1780 H 0.20626 0.49511 0.60951 0.0
H1781 H 0.19176 0.52471 0.61598 0.0
H1782 H 0.24417 0.55056 0.64846 0.0
H1783 H 0.25874 0.52075 0.64176 0.0
C1784 C 0.20368 0.59024 0.64701 0.0
C1785 C 0.19601 0.59528 0.62931 0.0
C1786 C 0.21056 0.5723 0.64824 0.0
C1787 C 0.20981 0.5592 0.63179 0.0
C1788 C 0.2025 0.56457 0.61411 0.0
C1789 C 0.19566 0.58233 0.61291 0.0
C1790 C 0.21436 0.5068 0.61882 0.0
C1791 C 0.23353 0.50562 0.62532 0.0
C1792 C 0.20616 0.52384 0.62231 0.0
C1793 C 0.21695 0.54008 0.63242 0.0
C1794 C 0.23552 0.53829 0.64063 0.0
C1795 C 0.24382 0.52121 0.63695 0.0
H1796 H 0.37481 0.50025 0.01817 0.0
H1797 H 0.43557 0.51466 0.03228 0.0
H1798 H 0.36974 0.53338 0.02727 0.0
H1799 H 0.43049 0.54789 0.0413 0.0
H1800 H 0.40848 0.60516 0.0196 0.0
H1801 H 0.42013 0.57429 0.02366 0.0
H1802 H 0.37199 0.55867 0.05438 0.0
H1803 H 0.36035 0.58952 0.05005 0.0
C1804 C 0.38705 0.51041 0.02353 0.0
C1805 C 0.40559 0.5048 0.0244 0.0
C1806 C 0.38416 0.52941 0.02886 0.0
C1807 C 0.39972 0.54326 0.03524 0.0
C1808 C 0.41823 0.53759 0.03642 0.0
C1809 C 0.42112 0.51857 0.03112 0.0
C1810 C 0.40115 0.59567 0.02838 0.0
C1811 C 0.38344 0.59958 0.03434 0.0
C1812 C 0.40764 0.5778 0.03046 0.0
C1813 C 0.39655 0.56377 0.03871 0.0
C1814 C 0.38055 0.56901 0.04749 0.0
C1815 C 0.37412 0.58687 0.04545 0.0
H1816 H 0.37216 0.62415 0.9026 0.0
H1817 H 0.3908 0.6807 0.88845 0.0
H1818 H 0.36347 0.63786 0.93292 0.0
H1819 H 0.38075 0.69459 0.9182 0.0
H1820 H 0.38544 0.71037 0.98119 0.0
H1821 H 0.38839 0.70008 0.95033 0.0
H1822 H 0.34277 0.65594 0.9496 0.0
H1823 H 0.33932 0.66444 0.98071 0.0
C1824 C 0.37429 0.63955 0.90585 0.0
C1825 C 0.38252 0.65124 0.89307 0.0
C1826 C 0.36896 0.64749 0.92321 0.0
C1827 C 0.37144 0.66742 0.92828 0.0
C1828 C 0.37892 0.67918 0.91512 0.0
C1829 C 0.38446 0.6712 0.89782 0.0
C1830 C 0.37645 0.69709 0.97671 0.0
C1831 C 0.36652 0.68509 0.99006 0.0
C1832 C 0.37809 0.69167 0.95739 0.0
C1833 C 0.36749 0.67552 0.94774 0.0
C1834 C 0.35312 0.66708 0.95718 0.0
C1835 C 0.35177 0.67249 0.97659 0.0
H1836 H 0.01745 0.76235 0.02329 0.0
H1837 H 0.96163 0.78224 0.01831 0.0
H1838 H 0.01586 0.75646 0.98866 0.0
H1839 H 0.95964 0.77577 0.98354 0.0
H1840 H 0.97749 0.78846 0.92376 0.0
H1841 H 0.97321 0.78896 0.95769 0.0
H1842 H 1.00196 0.73781 0.96037 0.0
H1843 H 1.0067 0.73792 0.92654 0.0
C1844 C 1.00461 0.765 0.01477 0.0
C1845 C 0.98966 0.77274 0.02351 0.0
C1846 C 1.00364 0.76156 0.99487 0.0
C1847 C 0.98758 0.76558 0.98317 0.0
C1848 C 0.97234 0.77275 0.99201 0.0
C1849 C 0.97343 0.77639 0.01194 0.0
C1850 C 0.98225 0.77699 0.93154 0.0
C1851 C 0.99211 0.76297 0.92262 0.0
C1852 C 0.97988 0.77726 0.951 0.0
C1853 C 0.98741 0.76352 0.96192 0.0
C1854 C 0.99626 0.7488 0.95255 0.0
C1855 C 0.9987 0.74862 0.93311 0.0
H1856 H 0.60832 0.17469 0.57662 0.0
H1857 H 0.65588 0.21369 0.60422 0.0
H1858 H 0.61196 0.18809 0.54662 0.0
H1859 H 0.65972 0.22708 0.57393 0.0
H1860 H 0.63561 0.26317 0.52584 0.0
H1861 H 0.6426 0.24709 0.55433 0.0
H1862 H 0.63042 0.1923 0.52028 0.0
H1863 H 0.62313 0.20863 0.49187 0.0
C1864 C 0.61987 0.18585 0.5762 0.0
C1865 C 0.63179 0.19311 0.59291 0.0
C1866 C 0.62203 0.19352 0.55889 0.0
C1867 C 0.63621 0.20867 0.55771 0.0
C1868 C 0.64851 0.21557 0.5743 0.0
C1869 C 0.6463 0.20792 0.59169 0.0
C1870 C 0.63536 0.24773 0.52435 0.0
C1871 C 0.62904 0.23714 0.50666 0.0
C1872 C 0.63924 0.23844 0.54071 0.0
C1873 C 0.6367 0.21833 0.53976 0.0
C1874 C 0.63216 0.20779 0.52165 0.0
C1875 C 0.62833 0.21712 0.50527 0.0
H1876 H 0.04452 0.43289 0.50508 0.0
H1877 H 0.00976 0.37833 0.49467 0.0
H1878 H 0.0527 0.42694 0.53826 0.0
H1879 H 0.0186 0.3722 0.52759 0.0
H1880 H 0.045 0.35916 0.58214 0.0
H1881 H 0.05061 0.36898 0.55077 0.0
H1882 H 0.02804 0.42242 0.56555 0.0
H1883 H 0.02195 0.41228 0.59681 0.0
C1884 C 0.03875 0.41958 0.50981 0.0
C1885 C 0.02631 0.40615 0.49729 0.0
C1886 C 0.0436 0.41616 0.52872 0.0
C1887 C 0.03643 0.3991 0.53531 0.0
C1888 C 0.02462 0.38533 0.52266 0.0
C1889 C 0.01955 0.38884 0.50384 0.0
C1890 C 0.04239 0.37349 0.57911 0.0
C1891 C 0.033 0.38498 0.59171 0.0
C1892 C 0.04535 0.37898 0.5611 0.0
C1893 C 0.03939 0.39623 0.55574 0.0
C1894 C 0.03273 0.40902 0.56944 0.0
C1895 C 0.02945 0.40335 0.58739 0.0
H1896 H 0.27598 0.54288 0.48643 0.0
H1897 H 0.21637 0.54193 0.49526 0.0
H1898 H 0.28044 0.52101 0.51078 0.0
H1899 H 0.22094 0.52055 0.52012 0.0
H1900 H 0.22958 0.47084 0.55365 0.0
H1901 H 0.22703 0.48814 0.52524 0.0
H1902 H 0.2815 0.5206 0.54473 0.0
H1903 H 0.28401 0.503 0.57279 0.0
C1904 C 0.26381 0.53797 0.49355 0.0
C1905 C 0.2458 0.54411 0.4888 0.0
C1906 C 0.26639 0.52552 0.50763 0.0
C1907 C 0.25103 0.51882 0.51734 0.0
C1908 C 0.23303 0.52509 0.5127 0.0
C1909 C 0.23046 0.5376 0.49864 0.0
C1910 C 0.24141 0.48098 0.55126 0.0
C1911 C 0.25725 0.48522 0.56508 0.0
C1912 C 0.23977 0.49123 0.53526 0.0
C1913 C 0.25393 0.506 0.53279 0.0
C1914 C 0.2704 0.50924 0.54599 0.0
C1915 C 0.27199 0.49901 0.56199 0.0
H1916 H 0.29793 0.49606 0.94246 0.0
H1917 H 0.35154 0.50526 0.91834 0.0
H1918 H 0.30127 0.52864 0.95581 0.0
H1919 H 0.35666 0.53738 0.93456 0.0
H1920 H 0.36053 0.59877 0.95707 0.0
H1921 H 0.35263 0.56806 0.93777 0.0
H1922 H 0.31134 0.55209 0.97671 0.0
H1923 H 0.31796 0.58319 0.99406 0.0
C1924 C 0.31063 0.50501 0.94012 0.0
C1925 C 0.32408 0.49795 0.92863 0.0
C1926 C 0.31287 0.52395 0.94832 0.0
C1927 C 0.32924 0.53641 0.9464 0.0
C1928 C 0.34342 0.52887 0.93599 0.0
C1929 C 0.34074 0.51005 0.927 0.0
C1930 C 0.3489 0.58899 0.96056 0.0
C1931 C 0.33955 0.59345 0.97681 0.0
C1932 C 0.34478 0.57097 0.94993 0.0
C1933 C 0.33164 0.55678 0.95569 0.0
C1934 C 0.32134 0.56213 0.97118 0.0
C1935 C 0.32499 0.58027 0.98127 0.0
H1936 H 0.66132 1.00818 0.4829 0.0
H1937 H 0.63832 0.05873 0.50655 0.0
H1938 H 0.67115 0.02522 0.45639 0.0
H1939 H 0.64764 0.0755 0.47952 0.0
H1940 H 0.65286 0.07848 0.40956 0.0
H1941 H 0.64143 0.07049 0.43979 0.0
H1942 H 0.69756 0.05646 0.45901 0.0
H1943 H 0.70899 0.06486 0.42907 0.0
C1944 C 0.65818 0.02284 0.48236 0.0
C1945 C 0.64945 0.03223 0.49708 0.0
C1946 C 0.66384 0.03258 0.46723 0.0
C1947 C 0.66065 0.05182 0.46638 0.0
C1948 C 0.65048 0.06076 0.48012 0.0
C1949 C 0.645 0.05107 0.49544 0.0
C1950 C 0.66304 0.0751 0.42085 0.0
C1951 C 0.68177 0.07229 0.4171 0.0
C1952 C 0.65642 0.07016 0.43796 0.0
C1953 C 0.66853 0.06237 0.45134 0.0
C1954 C 0.68794 0.06223 0.44872 0.0
C1955 C 0.6946 0.06747 0.43181 0.0
H1956 H 0.84758 0.93223 0.13279 0.0
H1957 H 0.81383 0.97338 0.10821 0.0
H1958 H 0.83473 0.90817 0.10616 0.0
H1959 H 0.80058 0.94916 0.08224 0.0
H1960 H 0.76162 0.89818 0.05663 0.0
H1961 H 0.77843 0.91567 0.08587 0.0
H1962 H 0.83245 0.90525 0.06553 0.0
H1963 H 0.81551 0.88789 0.03604 0.0
C1964 C 0.83772 0.93626 0.12159 0.0
C1965 C 0.83144 0.95464 0.12281 0.0
C1966 C 0.83028 0.92244 0.10649 0.0
C1967 C 0.81632 0.92675 0.09259 0.0
C1968 C 0.81097 0.9454 0.09314 0.0
C1969 C 0.81856 0.95924 0.108 0.0
C1970 C 0.77703 0.89869 0.05891 0.0
C1971 C 0.78732 0.89152 0.04432 0.0
C1972 C 0.78665 0.90893 0.07546 0.0
C1973 C 0.80667 0.91199 0.07768 0.0
C1974 C 0.817 0.903 0.06407 0.0
C1975 C 0.80734 0.8929 0.04737 0.0
H1976 H 0.50751 0.236 0.56206 0.0
H1977 H 0.46894 0.24869 0.51502 0.0
H1978 H 0.53433 0.24072 0.54274 0.0
H1979 H 0.49569 0.25317 0.4957 0.0
H1980 H 0.55228 0.23755 0.4657 0.0
H1981 H 0.52287 0.23285 0.48152 0.0
H1982 H 0.54835 0.27281 0.5292 0.0
H1983 H 0.57722 0.27799 0.51321 0.0
C1984 C 0.50472 0.23946 0.54751 0.0
C1985 C 0.48614 0.24213 0.54012 0.0
C1986 C 0.52006 0.24231 0.53651 0.0
C1987 C 0.51707 0.24751 0.51778 0.0
C1988 C 0.49839 0.24919 0.51006 0.0
C1989 C 0.48312 0.24669 0.52116 0.0
C1990 C 0.5512 0.24597 0.47912 0.0
C1991 C 0.56698 0.25825 0.48815 0.0
C1992 C 0.53453 0.24305 0.48832 0.0
C1993 C 0.53356 0.25212 0.50679 0.0
C1994 C 0.54883 0.26537 0.51514 0.0
C1995 C 0.56522 0.26856 0.50584 0.0
H1996 H 0.11285 0.80742 0.96722 0.0
H1997 H 0.12921 0.8543 0.9349 0.0
H1998 H 0.08649 0.79623 0.94282 0.0
H1999 H 0.10202 0.84339 0.91081 0.0
H2000 H 0.03212 0.81905 0.89439 0.0
H2001 H 0.06175 0.83572 0.91157 0.0
H2002 H 0.08855 0.78352 0.90494 0.0
H2003 H 0.05907 0.76701 0.88759 0.0
C2004 C 0.1108 0.81539 0.95496 0.0
C2005 C 0.12345 0.83149 0.95281 0.0
C2006 C 0.09571 0.80898 0.94102 0.0
C2007 C 0.09265 0.81868 0.92476 0.0
C2008 C 0.10434 0.83555 0.92314 0.0
C2009 C 0.11974 0.84186 0.93702 0.0
C2010 C 0.04474 0.81152 0.89562 0.0
C2011 C 0.04351 0.79185 0.88953 0.0
C2012 C 0.06158 0.82099 0.90558 0.0
C2013 C 0.07721 0.81076 0.90975 0.0
C2014 C 0.07659 0.79163 0.90191 0.0
C2015 C 0.05986 0.78226 0.89179 0.0
H2016 H 0.92011 0.35218 0.50413 0.0
H2017 H 0.93956 0.29598 0.4982 0.0
H2018 H 0.93601 0.35775 0.53644 0.0
H2019 H 0.95264 0.3002 0.53096 0.0
H2020 H 0.99292 0.31922 0.58413 0.0
H2021 H 0.97511 0.31135 0.55329 0.0
H2022 H 0.93697 0.35376 0.56767 0.0
H2023 H 0.95659 0.36282 0.59806 0.0
C2024 C 0.92766 0.34093 0.50967 0.0
C2025 C 0.92807 0.32341 0.49846 0.0
C2026 C 0.93643 0.34393 0.52855 0.0
C2027 C 0.94542 0.32931 0.53697 0.0
C2028 C 0.9462 0.31206 0.52543 0.0
C2029 C 0.93817 0.3094 0.50645 0.0
C2030 C 0.98012 0.32613 0.58106 0.0
C2031 C 0.97608 0.34147 0.59355 0.0
C2032 C 0.96984 0.3218 0.56307 0.0
C2033 C 0.95458 0.33216 0.55732 0.0
C2034 C 0.94901 0.34588 0.571 0.0
C2035 C 0.9598 0.35064 0.58883 0.0
H2036 H 0.51681 0.67098 0.05588 0.0
H2037 H 0.48189 0.62916 0.01553 0.0
H2038 H 0.48934 0.67627 0.07331 0.0
H2039 H 0.45398 0.63499 0.03237 0.0
H2040 H 0.40591 0.64497 0.06468 0.0
H2041 H 0.43693 0.63379 0.06016 0.0
H2042 H 0.4624 0.69258 0.06617 0.0
H2043 H 0.43155 0.70341 0.07114 0.0
C2044 C 0.50317 0.66286 0.05086 0.0
C2045 C 0.50126 0.64989 0.03431 0.0
C2046 C 0.48746 0.66588 0.06079 0.0
C2047 C 0.4694 0.65623 0.05417 0.0
C2048 C 0.46772 0.6425 0.03806 0.0
C2049 C 0.4836 0.63925 0.02828 0.0
C2050 C 0.41844 0.65534 0.0662 0.0
C2051 C 0.41655 0.675 0.06846 0.0
C2052 C 0.43611 0.64899 0.06321 0.0
C2053 C 0.45209 0.66228 0.06237 0.0
C2054 C 0.4505 0.68189 0.06687 0.0
C2055 C 0.43285 0.68819 0.06992 0.0
H2056 H 0.53286 0.47936 0.26694 0.0
H2057 H 0.55232 0.50108 0.21626 0.0
H2058 H 0.51081 0.5037 0.26911 0.0
H2059 H 0.53036 0.5257 0.21853 0.0
H2060 H 0.48043 0.56007 0.21871 0.0
H2061 H 0.49701 0.53132 0.21577 0.0
H2062 H 0.5119 0.5378 0.27697 0.0
H2063 H 0.49504 0.56641 0.27973 0.0
C2064 C 0.53252 0.48944 0.25631 0.0
C2065 C 0.5445 0.48837 0.24152 0.0
C2066 C 0.51984 0.50339 0.25755 0.0
C2067 C 0.51877 0.51673 0.24405 0.0
C2068 C 0.53054 0.51548 0.22903 0.0
C2069 C 0.5432 0.50142 0.22774 0.0
C2070 C 0.48652 0.55477 0.23158 0.0
C2071 C 0.4861 0.56513 0.2495 0.0
C2072 C 0.49637 0.53855 0.22988 0.0
C2073 C 0.50607 0.53235 0.24608 0.0
C2074 C 0.50449 0.54203 0.26418 0.0
C2075 C 0.49466 0.55831 0.26585 0.0
H2076 H 0.97371 0.10955 0.81477 0.0
H2077 H 0.93114 0.1369 0.84423 0.0
H2078 H 0.94959 0.08347 0.80149 0.0
H2079 H 0.90713 0.11019 0.83138 0.0
H2080 H 0.88616 0.03933 0.81358 0.0
H2081 H 0.90348 0.06881 0.83073 0.0
H2082 H 0.9173 0.08784 0.77697 0.0
H2083 H 0.89984 0.05866 0.75994 0.0
C2084 C 0.95927 0.10991 0.81858 0.0
C2085 C 0.95427 0.12554 0.8302 0.0
C2086 C 0.9455 0.09498 0.811 0.0
C2087 C 0.9265 0.09517 0.81511 0.0
C2088 C 0.9217 0.10991 0.82791 0.0
C2089 C 0.93548 0.12507 0.83535 0.0
C2090 C 0.89192 0.05039 0.80545 0.0
C2091 C 0.89147 0.04699 0.78547 0.0
C2092 C 0.902 0.06709 0.81524 0.0
C2093 C 0.91188 0.08032 0.8051 0.0
C2094 C 0.90982 0.07774 0.78503 0.0
C2095 C 0.89962 0.06123 0.77529 0.0
H2096 H 0.51287 0.9059 0.33211 0.0
H2097 H 0.489 0.95683 0.31635 0.0
H2098 H 0.54493 0.92271 0.33456 0.0
H2099 H 0.52095 0.97384 0.31922 0.0
H2100 H 0.5785 0.99734 0.30884 0.0
H2101 H 0.54888 0.97586 0.30333 0.0
H2102 H 0.5673 0.94677 0.35184 0.0
H2103 H 0.59723 0.96773 0.35658 0.0
C2104 C 0.51445 0.92081 0.32949 0.0
C2105 C 0.49836 0.92996 0.32385 0.0
C2106 C 0.53288 0.93045 0.33082 0.0
C2107 C 0.53571 0.94956 0.32664 0.0
C2108 C 0.51949 0.95894 0.32185 0.0
C2109 C 0.5011 0.94925 0.32038 0.0
C2110 C 0.57663 0.98563 0.31758 0.0
C2111 C 0.59033 0.98394 0.33285 0.0
C2112 C 0.55942 0.97363 0.31482 0.0
C2113 C 0.55535 0.95988 0.32749 0.0
C2114 C 0.56984 0.9571 0.34173 0.0
C2115 C 0.58717 0.96895 0.34431 0.0
H2116 H 0.05248 0.49933 0.63006 0.0
H2117 H 0.01059 0.48621 0.66894 0.0
H2118 H 0.06683 0.46999 0.63619 0.0
H2119 H 0.02522 0.45736 0.67536 0.0
H2120 H 0.06782 0.42384 0.70256 0.0
H2121 H 0.05829 0.4539 0.69272 0.0
H2122 H 0.05873 0.4324 0.63351 0.0
H2123 H 0.06866 0.40222 0.64342 0.0
C2124 C 0.04614 0.49008 0.63965 0.0
C2125 C 0.03063 0.49536 0.64935 0.0
C2126 C 0.05445 0.47336 0.64323 0.0
C2127 C 0.0475 0.46178 0.65669 0.0
C2128 C 0.03125 0.46639 0.66538 0.0
C2129 C 0.02286 0.4829 0.66168 0.0
C2130 C 0.0669 0.42583 0.68749 0.0
C2131 C 0.06892 0.41061 0.67378 0.0
C2132 C 0.06102 0.44291 0.68183 0.0
C2133 C 0.05727 0.44523 0.66235 0.0
C2134 C 0.06139 0.43091 0.64863 0.0
C2135 C 0.0672 0.41371 0.65431 0.0
H2136 H 0.75536 0.45615 0.50829 0.0
H2137 H 0.79275 0.50029 0.54386 0.0
H2138 H 0.75293 0.47713 0.48294 0.0
H2139 H 0.79041 0.52126 0.51837 0.0
H2140 H 0.79743 0.54136 0.45755 0.0
H2141 H 0.79938 0.52466 0.48626 0.0
H2142 H 0.73891 0.50635 0.47592 0.0
H2143 H 0.73715 0.52286 0.44699 0.0
C2144 C 0.76301 0.47036 0.51075 0.0
C2145 C 0.7741 0.47656 0.52824 0.0
C2146 C 0.76153 0.48245 0.49623 0.0
C2147 C 0.77115 0.50105 0.49875 0.0
C2148 C 0.78278 0.50704 0.51596 0.0
C2149 C 0.78422 0.49495 0.53054 0.0
C2150 C 0.78444 0.53439 0.46188 0.0
C2151 C 0.76711 0.53351 0.45017 0.0
C2152 C 0.78556 0.5247 0.47826 0.0
C2153 C 0.76938 0.51384 0.4832 0.0
C2154 C 0.75172 0.51427 0.47229 0.0
C2155 C 0.7506 0.52404 0.45595 0.0
H2156 H 0.69867 0.5164 0.06708 0.0
H2157 H 0.67635 0.49765 0.11778 0.0
H2158 H 0.6938 0.48352 0.05198 0.0
H2159 H 0.6718 0.46476 0.10289 0.0
H2160 H 0.6467 0.41253 0.05909 0.0
H2161 H 0.65362 0.44316 0.0787 0.0
H2162 H 0.70648 0.45347 0.05343 0.0
H2163 H 0.69905 0.4231 0.03335 0.0
C2164 C 0.69275 0.50524 0.07501 0.0
C2165 C 0.68799 0.50966 0.09368 0.0
C2166 C 0.69012 0.48634 0.06644 0.0
C2167 C 0.6828 0.47132 0.07636 0.0
C2168 C 0.67745 0.47587 0.09479 0.0
C2169 C 0.67997 0.49479 0.10331 0.0
C2170 C 0.66024 0.42094 0.05846 0.0
C2171 C 0.67234 0.41541 0.04471 0.0
C2172 C 0.66413 0.43866 0.06953 0.0
C2173 C 0.68035 0.45112 0.06726 0.0
C2174 C 0.69355 0.44452 0.05513 0.0
C2175 C 0.68959 0.42684 0.04399 0.0
H2176 H 0.35062 0.95049 0.49931 0.0
H2177 H 0.38621 0.99982 0.52803 0.0
H2178 H 0.34838 0.93707 0.52969 0.0
H2179 H 0.38321 0.98714 0.55875 0.0
H2180 H 0.3767 0.96517 0.6127 0.0
H2181 H 0.38821 0.96491 0.58119 0.0
H2182 H 0.3312 0.94412 0.55522 0.0
H2183 H 0.32021 0.94367 0.58648 0.0
C2184 C 0.35807 0.95834 0.51224 0.0
C2185 C 0.36839 0.97617 0.51157 0.0
C2186 C 0.35677 0.95074 0.52964 0.0
C2187 C 0.36542 0.96106 0.54679 0.0
C2188 C 0.37657 0.97858 0.54587 0.0
C2189 C 0.37814 0.98602 0.52836 0.0
C2190 C 0.36699 0.95952 0.60024 0.0
C2191 C 0.34753 0.95468 0.60197 0.0
C2192 C 0.37346 0.95971 0.58216 0.0
C2193 C 0.36052 0.95517 0.56558 0.0
C2194 C 0.34168 0.94773 0.56754 0.0
C2195 C 0.33532 0.94731 0.58559 0.0
H2196 H 0.18809 0.04446 0.90217 0.0
H2197 H 0.17661 0.09546 0.87589 0.0
H2198 H 0.20219 0.0641 0.93132 0.0
H2199 H 0.19085 0.11524 0.90524 0.0
H2200 H 0.20529 0.13648 0.97361 0.0
H2201 H 0.18783 0.12148 0.94316 0.0
H2202 H 0.23382 0.08669 0.9346 0.0
H2203 H 0.25115 0.1018 0.96456 0.0
C2204 C 0.18834 0.05988 0.90278 0.0
C2205 C 0.18153 0.06849 0.88676 0.0
C2206 C 0.19645 0.0711 0.91938 0.0
C2207 C 0.19797 0.09116 0.92029 0.0
C2208 C 0.18988 0.0998 0.90482 0.0
C2209 C 0.18171 0.08851 0.88812 0.0
C2210 C 0.21188 0.1262 0.96472 0.0
C2211 C 0.22961 0.12043 0.97111 0.0
C2212 C 0.20188 0.11752 0.94749 0.0
C2213 C 0.20937 0.1027 0.93681 0.0
C2214 C 0.22763 0.09789 0.94271 0.0
C2215 C 0.23767 0.10671 0.95966 0.0
H2216 H 0.50936 0.75498 0.4567 0.0
H2217 H 0.54529 0.79245 0.50045 0.0
H2218 H 0.48448 0.7521 0.47809 0.0
H2219 H 0.52026 0.78961 0.5219 0.0
H2220 H 0.45948 0.79602 0.5426 0.0
H2221 H 0.48843 0.79814 0.52631 0.0
H2222 H 0.47759 0.73779 0.50695 0.0
H2223 H 0.44846 0.73591 0.52305 0.0
C2224 C 0.51201 0.76254 0.47093 0.0
C2225 C 0.52947 0.77379 0.47687 0.0
C2226 C 0.49775 0.7608 0.48327 0.0
C2227 C 0.5005 0.77026 0.50193 0.0
C2228 C 0.51767 0.78206 0.50767 0.0
C2229 C 0.53199 0.78379 0.49531 0.0
C2230 C 0.46384 0.78305 0.53561 0.0
C2231 C 0.4519 0.76575 0.53426 0.0
C2232 C 0.48032 0.78428 0.5261 0.0
C2233 C 0.48514 0.76823 0.51494 0.0
C2234 C 0.47408 0.75053 0.51508 0.0
C2235 C 0.45763 0.74931 0.52465 0.0
H2236 H 0.90408 0.16779 0.0549 0.0
H2237 H 0.87151 0.2026 0.09018 0.0
H2238 H 0.93303 0.17918 0.07623 0.0
H2239 H 0.9001 0.21341 0.11202 0.0
H2240 H 0.95859 0.25095 0.1238 0.0
H2241 H 0.92747 0.23483 0.11085 0.0
H2242 H 0.95128 0.18064 0.10649 0.0
H2243 H 0.98261 0.19711 0.11886 0.0
C2244 C 0.9031 0.17753 0.0675 0.0
C2245 C 0.88573 0.18456 0.07083 0.0
C2246 C 0.91962 0.18398 0.07982 0.0
C2247 C 0.91896 0.19738 0.09583 0.0
C2248 C 0.90125 0.20345 0.09965 0.0
C2249 C 0.88486 0.19722 0.08721 0.0
C2250 C 0.95696 0.23551 0.1208 0.0
C2251 C 0.97292 0.22526 0.12228 0.0
C2252 C 0.93912 0.2262 0.11328 0.0
C2253 C 0.93689 0.20642 0.10727 0.0
C2254 C 0.95257 0.19593 0.11052 0.0
C2255 C 0.97044 0.20528 0.11787 0.0
H2256 H 0.07586 0.71723 0.51471 0.0
H2257 H 0.1042 0.66671 0.50213 0.0
H2258 H 0.06043 0.71361 0.48267 0.0
H2259 H 0.08655 0.66142 0.47061 0.0
H2260 H 0.06432 0.66105 0.40933 0.0
H2261 H 0.08327 0.66884 0.44029 0.0
H2262 H 0.03827 0.70051 0.46034 0.0
H2263 H 0.02086 0.69433 0.42905 0.0
C2264 C 0.07873 0.70518 0.50515 0.0
C2265 C 0.09192 0.69269 0.51106 0.0
C2266 C 0.06943 0.70281 0.48662 0.0
C2267 C 0.07225 0.68733 0.47344 0.0
C2268 C 0.08441 0.674 0.47982 0.0
C2269 C 0.09427 0.67676 0.49825 0.0
C2270 C 0.05923 0.6707 0.42011 0.0
C2271 C 0.04144 0.67763 0.4166 0.0
C2272 C 0.06973 0.67465 0.43817 0.0
C2273 C 0.06235 0.68506 0.45338 0.0
C2274 C 0.04497 0.69283 0.4493 0.0
C2275 C 0.03491 0.68948 0.43111 0.0
H2276 H 0.50068 0.35075 0.95092 0.0
H2277 H 0.52924 0.3895 0.99803 0.0
H2278 H 0.53104 0.3474 0.93795 0.0
H2279 H 0.55998 0.38539 0.98589 0.0
H2280 H 0.614 0.37784 0.96325 0.0
H2281 H 0.5824 0.38894 0.96354 0.0
H2282 H 0.55675 0.33106 0.9457 0.0
H2283 H 0.58801 0.32044 0.94467 0.0
C2284 C 0.51357 0.35862 0.9584 0.0
C2285 C 0.51281 0.37024 0.97546 0.0
C2286 C 0.53098 0.35667 0.95106 0.0
C2287 C 0.54812 0.36593 0.96092 0.0
C2288 C 0.54714 0.37824 0.97768 0.0
C2289 C 0.52959 0.38048 0.9848 0.0
C2290 C 0.60154 0.36779 0.95838 0.0
C2291 C 0.60345 0.34825 0.9541 0.0
C2292 C 0.58341 0.37404 0.95892 0.0
C2293 C 0.56692 0.36082 0.95526 0.0
C2294 C 0.56896 0.34177 0.94857 0.0
C2295 C 0.58703 0.33562 0.9478 0.0
H2296 H 0.50126 0.54621 0.78837 0.0
H2297 H 0.45411 0.50809 0.75848 0.0
H2298 H 0.52204 0.52068 0.7853 0.0
H2299 H 0.47493 0.4827 0.75526 0.0
H2300 H 0.51914 0.44639 0.7356 0.0
H2301 H 0.50226 0.47503 0.73777 0.0
H2302 H 0.52686 0.48924 0.79634 0.0
H2303 H 0.54374 0.46064 0.794 0.0
C2304 C 0.49524 0.53233 0.78136 0.0
C2305 C 0.47601 0.5293 0.77352 0.0
C2306 C 0.50721 0.51774 0.77949 0.0
C2307 C 0.50027 0.49977 0.76969 0.0
C2308 C 0.4809 0.49655 0.76239 0.0
C2309 C 0.46893 0.51109 0.76432 0.0
C2310 C 0.52158 0.45613 0.74862 0.0
C2311 C 0.53296 0.45153 0.76453 0.0
C2312 C 0.51163 0.47231 0.75002 0.0
C2313 C 0.51295 0.48424 0.76734 0.0
C2314 C 0.52556 0.48041 0.78278 0.0
C2315 C 0.53537 0.46415 0.78142 0.0
H2316 H 0.05611 0.90578 0.16465 0.0
H2317 H 0.08786 0.87291 0.20232 0.0
H2318 H 0.07799 0.93437 0.17628 0.0
H2319 H 0.11043 0.90096 0.21321 0.0
H2320 H 0.12439 0.95938 0.24939 0.0
H2321 H 0.11036 0.92863 0.23347 0.0
H2322 H 0.10814 0.95216 0.17903 0.0
H2323 H 0.12139 0.98335 0.19543 0.0
C2324 C 0.06807 0.90466 0.17511 0.0
C2325 C 0.07024 0.88736 0.18284 0.0
C2326 C 0.08073 0.92095 0.18169 0.0
C2327 C 0.09598 0.92009 0.19587 0.0
C2328 C 0.09865 0.90235 0.20266 0.0
C2329 C 0.0858 0.88624 0.19637 0.0
C2330 C 0.12162 0.95776 0.23394 0.0
C2331 C 0.124 0.97366 0.22362 0.0
C2332 C 0.11347 0.94009 0.22473 0.0
C2333 C 0.10779 0.93787 0.2049 0.0
C2334 C 0.11187 0.95343 0.19435 0.0
C2335 C 0.11976 0.97121 0.20365 0.0
H2336 H 0.51049 0.08877 0.66069 0.0
H2337 H 0.50614 0.09701 0.72145 0.0
H2338 H 0.47769 0.07342 0.6556 0.0
H2339 H 0.47351 0.08173 0.71637 0.0
H2340 H 0.42472 0.03164 0.69896 0.0
H2341 H 0.45537 0.05102 0.70708 0.0
H2342 H 0.44482 0.0808 0.65711 0.0
H2343 H 0.41423 0.06111 0.64893 0.0
C2344 C 0.50255 0.08737 0.67295 0.0
C2345 C 0.51104 0.09413 0.69149 0.0
C2346 C 0.48369 0.07867 0.67003 0.0
C2347 C 0.47283 0.07655 0.68557 0.0
C2348 C 0.48144 0.083 0.70409 0.0
C2349 C 0.50025 0.09168 0.707 0.0
C2350 C 0.4285 0.04302 0.69029 0.0
C2351 C 0.41702 0.04498 0.67341 0.0
C2352 C 0.44623 0.05396 0.69477 0.0
C2353 C 0.45279 0.06717 0.68249 0.0
C2354 C 0.44042 0.07043 0.66662 0.0
C2355 C 0.4227 0.05949 0.66216 0.0
H2356 H 1.00402 0.52971 0.36106 0.0
H2357 H 0.95097 0.50808 0.38093 0.0
H2358 H 0.99152 0.56046 0.35763 0.0
H2359 H 0.93859 0.539 0.37749 0.0
H2360 H 0.95962 0.61632 0.37589 0.0
H2361 H 0.96312 0.58577 0.38875 0.0
H2362 H 0.9476 0.55626 0.33233 0.0
H2363 H 0.94458 0.58675 0.31939 0.0
C2364 C 0.98985 0.53165 0.36502 0.0
C2365 C 0.97834 0.51644 0.37097 0.0
C2366 C 0.98278 0.5492 0.36317 0.0
C2367 C 0.96412 0.55182 0.36721 0.0
C2368 C 0.95304 0.53717 0.37437 0.0
C2369 C 0.96016 0.51958 0.37636 0.0
C2370 C 0.95587 0.60327 0.36645 0.0
C2371 C 0.95211 0.60391 0.3466 0.0
C2372 C 0.95801 0.58582 0.3738 0.0
C2373 C 0.9558 0.56889 0.3614 0.0
C2374 C 0.94924 0.56926 0.34209 0.0
C2375 C 0.94724 0.58669 0.33474 0.0
H2376 H 0.30498 0.61126 0.31236 0.0
H2377 H 0.34049 0.61945 0.36624 0.0
H2378 H 0.33312 0.60969 0.29535 0.0
H2379 H 0.36894 0.61735 0.34909 0.0
H2380 H 0.414 0.63768 0.30747 0.0
H2381 H 0.38807 0.6355 0.32815 0.0
H2382 H 0.3577 0.58979 0.28851 0.0
H2383 H 0.38344 0.59237 0.26785 0.0
C2384 C 0.31883 0.61267 0.32061 0.0
C2385 C 0.32042 0.61559 0.34071 0.0
C2386 C 0.33503 0.61152 0.31083 0.0
C2387 C 0.35341 0.61321 0.32078 0.0
C2388 C 0.35505 0.61603 0.34093 0.0
C2389 C 0.33874 0.61707 0.35078 0.0
C2390 C 0.40207 0.62673 0.30361 0.0
C2391 C 0.40086 0.61494 0.28626 0.0
C2392 C 0.38714 0.62552 0.31539 0.0
C2393 C 0.3706 0.61262 0.30993 0.0
C2394 C 0.37002 0.60012 0.29306 0.0
C2395 C 0.38489 0.60134 0.28134 0.0
H2396 H 0.21546 0.40088 0.80522 0.0
H2397 H 0.22053 0.34177 0.7863 0.0
H2398 H 0.1834 0.39786 0.78816 0.0
H2399 H 0.18871 0.33879 0.76934 0.0
H2400 H 0.14153 0.34335 0.72376 0.0
H2401 H 0.17329 0.34945 0.74125 0.0
H2402 H 0.15051 0.38299 0.78645 0.0
H2403 H 0.1187 0.37726 0.7684 0.0
C2404 C 0.20969 0.38718 0.79763 0.0
C2405 C 0.22078 0.37166 0.79691 0.0
C2406 C 0.19129 0.38546 0.78781 0.0
C2407 C 0.18355 0.36819 0.777 0.0
C2408 C 0.19437 0.35249 0.77698 0.0
C2409 C 0.21267 0.3542 0.78677 0.0
C2410 C 0.14343 0.35231 0.73728 0.0
C2411 C 0.12774 0.35987 0.74475 0.0
C2412 C 0.16157 0.35564 0.74744 0.0
C2413 C 0.16447 0.3664 0.7655 0.0
C2414 C 0.14886 0.37469 0.77258 0.0
C2415 C 0.13066 0.37147 0.76227 0.0
H2416 H 0.70623 0.97231 0.68547 0.0
H2417 H 0.72852 0.02248 0.66089 0.0
H2418 H 0.73684 0.9717 0.70392 0.0
H2419 H 0.7595 0.02183 0.67953 0.0
H2420 H 0.81695 0.99752 0.70344 0.0
H2421 H 0.78755 1.00281 0.68406 0.0
H2422 H 0.75508 0.99089 0.73116 0.0
H2423 H 0.78418 0.98531 0.75012 0.0
C2424 C 0.71764 0.98333 0.68411 0.0
C2425 C 0.71474 0.99764 0.67194 0.0
C2426 C 0.73524 0.98301 0.69473 0.0
C2427 C 0.75055 0.99698 0.69356 0.0
C2428 C 0.74799 0.0109 0.68082 0.0
C2429 C 0.73025 0.01124 0.67013 0.0
C2430 C 0.80355 0.99652 0.70971 0.0
C2431 C 0.80277 0.99082 0.72818 0.0
C2432 C 0.78672 0.99948 0.69863 0.0
C2433 C 0.76888 0.99679 0.70589 0.0
C2434 C 0.76846 0.99253 0.7249 0.0
C2435 C 0.78515 0.98951 0.73585 0.0
H2436 H 0.77572 0.01318 0.26408 0.0
H2437 H 0.80841 0.03536 0.31775 0.0
H2438 H 0.74653 0.01224 0.27987 0.0
H2439 H 0.78011 0.03222 0.33377 0.0
H2440 H 0.72785 0.03876 0.36034 0.0
H2441 H 0.75355 0.04406 0.34071 0.0
H2442 H 0.72707 0.99744 0.29945 0.0
H2443 H 0.69986 0.99405 0.31841 0.0
C2444 C 0.77676 0.01783 0.27923 0.0
C2445 C 0.79463 0.0242 0.28959 0.0
C2446 C 0.75997 0.01698 0.2884 0.0
C2447 C 0.76062 0.02218 0.30825 0.0
C2448 C 0.77856 0.02854 0.31845 0.0
C2449 C 0.79512 0.02988 0.30925 0.0
C2450 C 0.72744 0.0298 0.34694 0.0
C2451 C 0.71203 0.0159 0.34091 0.0
C2452 C 0.74239 0.03262 0.33571 0.0
C2453 C 0.74305 0.02074 0.31863 0.0
C2454 C 0.72725 1.00699 0.31239 0.0
C2455 C 0.7117 1.00485 0.3233 0.0
H2456 H 0.34375 0.31953 0.58778 0.0
H2457 H 0.33541 0.3184 0.64745 0.0
H2458 H 0.32903 0.34939 0.58741 0.0
H2459 H 0.31987 0.3475 0.64682 0.0
H2460 H 0.30269 0.40631 0.6469 0.0
H2461 H 0.32349 0.38068 0.6456 0.0
H2462 H 0.29884 0.36164 0.58779 0.0
H2463 H 0.27856 0.38783 0.58909 0.0
C2464 C 0.33892 0.32565 0.60088 0.0
C2465 C 0.34075 0.31629 0.61762 0.0
C2466 C 0.33022 0.34274 0.6006 0.0
C2467 C 0.32312 0.35106 0.61706 0.0
C2468 C 0.32533 0.34187 0.63387 0.0
C2469 C 0.33404 0.32487 0.63416 0.0
C2470 C 0.30228 0.39705 0.63369 0.0
C2471 C 0.28927 0.39929 0.61798 0.0
C2472 C 0.31395 0.38209 0.63302 0.0
C2473 C 0.31273 0.36869 0.6167 0.0
C2474 C 0.30041 0.37164 0.60057 0.0
C2475 C 0.28881 0.38674 0.60123 0.0
H2476 H 0.31607 0.81087 0.04059 0.0
H2477 H 0.26345 0.77927 0.01374 0.0
H2478 H 0.33177 0.78215 0.03801 0.0
H2479 H 0.2788 0.7498 0.01286 0.0
H2480 H 0.31964 0.70553 0.99333 0.0
H2481 H 0.30012 0.73216 0.99761 0.0
H2482 H 0.33629 0.75404 0.04951 0.0
H2483 H 0.35651 0.72875 0.04392 0.0
C2484 C 0.30775 0.79775 0.03422 0.0
C2485 C 0.28851 0.79762 0.02712 0.0
C2486 C 0.31671 0.78101 0.03311 0.0
C2487 C 0.30663 0.76336 0.02535 0.0
C2488 C 0.28718 0.76307 0.01872 0.0
C2489 C 0.27827 0.77999 0.0195 0.0
C2490 C 0.32317 0.71606 1.00566 0.0
C2491 C 0.33958 0.71531 0.01819 0.0
C2492 C 0.31197 0.73129 0.00823 0.0
C2493 C 0.31679 0.74572 0.0237 0.0
C2494 C 0.33248 0.74384 0.03697 0.0
C2495 C 0.34398 0.72915 0.03396 0.0
H2496 H 0.81946 0.20286 0.37278 0.0
H2497 H 0.76756 0.23006 0.37416 0.0
H2498 H 0.80063 0.17129 0.36886 0.0
H2499 H 0.74894 0.19896 0.37091 0.0
H2500 H 0.71987 0.14445 0.33784 0.0
H2501 H 0.73978 0.17455 0.34581 0.0
H2502 H 0.77915 0.14713 0.3819 0.0
H2503 H 0.75908 0.11638 0.37327 0.0
C2504 C 0.80407 0.20209 0.37251 0.0
C2505 C 0.79497 0.21898 0.37337 0.0
C2506 C 0.79327 0.184 0.37035 0.0
C2507 C 0.77314 0.18244 0.36918 0.0
C2508 C 0.7643 0.19944 0.37113 0.0
C2509 C 0.775 0.21736 0.37305 0.0
C2510 C 0.73275 0.14476 0.34751 0.0
C2511 C 0.73788 0.12793 0.35481 0.0
C2512 C 0.74415 0.16216 0.35227 0.0
C2513 C 0.76112 0.16349 0.36466 0.0
C2514 C 0.76625 0.14668 0.37224 0.0
C2515 C 0.75467 0.1291 0.36747 0.0
H2516 H 0.66054 0.72899 0.01914 0.0
H2517 H 0.68885 0.70574 0.97202 0.0
H2518 H 0.67927 0.76009 0.0188 0.0
H2519 H 0.70734 0.73647 0.97166 0.0
H2520 H 0.75184 0.78517 0.98539 0.0
H2521 H 0.73314 0.7559 0.99134 0.0
H2522 H 0.68465 0.78741 0.99937 0.0
H2523 H 0.70379 0.81697 0.99387 0.0
C2524 C 0.67064 0.73054 0.00864 0.0
C2525 C 0.67343 0.71476 0.99581 0.0
C2526 C 0.68138 0.74833 0.00847 0.0
C2527 C 0.69512 0.75068 0.99548 0.0
C2528 C 0.69736 0.73505 0.98228 0.0
C2529 C 0.6867 0.71739 0.98246 0.0
C2530 C 0.73732 0.78589 0.98887 0.0
C2531 C 0.72919 0.80324 0.98906 0.0
C2532 C 0.72653 0.76912 0.99209 0.0
C2533 C 0.70722 0.76919 0.99533 0.0
C2534 C 0.69945 0.78684 0.99688 0.0
C2535 C 0.71039 0.80376 0.99378 0.0
H2536 H 0.6389 0.32103 0.30959 0.0
H2537 H 0.59661 0.3572 0.32749 0.0
H2538 H 0.63675 0.30467 0.33821 0.0
H2539 H 0.59519 0.3411 0.3568 0.0
H2540 H 0.62268 0.3107 0.41444 0.0
H2541 H 0.62185 0.33223 0.3888 0.0
H2542 H 0.60396 0.28368 0.34705 0.0
H2543 H 0.60415 0.26252 0.37231 0.0
C2544 C 0.62914 0.32559 0.31959 0.0
C2545 C 0.61757 0.34022 0.31577 0.0
C2546 C 0.62807 0.31627 0.33614 0.0
C2547 C 0.61568 0.32146 0.34969 0.0
C2548 C 0.6049 0.33682 0.34663 0.0
C2549 C 0.60577 0.34605 0.32981 0.0
C2550 C 0.61793 0.30477 0.39987 0.0
C2551 C 0.61364 0.28483 0.39544 0.0
C2552 C 0.61759 0.31706 0.38518 0.0
C2553 C 0.61314 0.30957 0.36587 0.0
C2554 C 0.60766 0.28986 0.36173 0.0
C2555 C 0.60772 0.27774 0.37625 0.0
H2556 H 0.04947 0.27864 0.77608 0.0
H2557 H 0.99546 0.29224 0.79417 0.0
H2558 H 0.0429 0.29416 0.74675 0.0
H2559 H 0.98835 0.30673 0.76475 0.0
H2560 H 0.99726 0.35746 0.73116 0.0
H2561 H 1.00052 0.33607 0.75517 0.0
H2562 H 0.02373 0.29615 0.71579 0.0
H2563 H 0.02082 0.31841 0.69116 0.0
C2564 C 0.03604 0.28461 0.77354 0.0
C2565 C 0.02308 0.2846 0.78744 0.0
C2566 C 0.03219 0.29335 0.75671 0.0
C2567 C 0.01521 0.30199 0.75347 0.0
C2568 C 1.00179 0.3007 0.76694 0.0
C2569 C 1.00579 0.29235 0.78378 0.0
C2570 C 1.0027 0.34406 0.72715 0.0
C2571 C 0.00853 0.33972 0.70892 0.0
C2572 C 1.00449 0.33158 0.74113 0.0
C2573 C 0.01222 0.3142 0.7375 0.0
C2574 C 0.01768 0.30943 0.7191 0.0
C2575 C 0.01572 0.32204 0.70488 0.0
H2576 H 0.34095 0.79027 0.21309 0.0
H2577 H 0.4019 0.79752 0.21036 0.0
H2578 H 0.33659 0.77209 0.1818 0.0
H2579 H 0.39743 0.77991 0.17841 0.0
H2580 H 0.38153 0.72516 0.13397 0.0
H2581 H 0.38888 0.74751 0.16304 0.0
H2582 H 0.33771 0.77404 0.14858 0.0
H2583 H 0.33034 0.75166 0.11984 0.0
C2584 C 0.35346 0.7881 0.20577 0.0
C2585 C 0.37181 0.79523 0.21449 0.0
C2586 C 0.35093 0.77784 0.18761 0.0
C2587 C 0.36664 0.77443 0.17742 0.0
C2588 C 0.38499 0.78202 0.18587 0.0
C2589 C 0.38754 0.79233 0.20413 0.0
C2590 C 0.37206 0.736 0.13684 0.0
C2591 C 0.35516 0.73635 0.12472 0.0
C2592 C 0.37626 0.74885 0.15354 0.0
C2593 C 0.3637 0.76241 0.15847 0.0
C2594 C 0.34746 0.76348 0.14564 0.0
C2595 C 0.34325 0.75065 0.12907 0.0
H2596 H 0.02243 0.66292 0.72711 0.0
H2597 H 0.97139 0.68544 0.70449 0.0
H2598 H 0.02146 0.68203 0.75781 0.0
H2599 H 0.97038 0.7043 0.73488 0.0
H2600 H 0.98218 0.75102 0.78208 0.0
H2601 H 0.98795 0.73212 0.75293 0.0
H2602 H 1.00328 0.6864 0.78592 0.0
H2603 H 0.99789 0.70578 0.81533 0.0
C2604 C 0.01093 0.6718 0.72872 0.0
C2605 C 0.99716 0.67288 0.71319 0.0
C2606 C 0.01039 0.68277 0.7463 0.0
C2607 C 0.99608 0.69504 0.74873 0.0
C2608 C 0.98198 0.69551 0.73339 0.0
C2609 C 0.98252 0.68463 0.71592 0.0
C2610 C 0.98717 0.73709 0.78313 0.0
C2611 C 0.98947 0.7298 0.80091 0.0
C2612 C 0.99029 0.72615 0.76641 0.0
C2613 C 0.99559 0.7075 0.76697 0.0
C2614 C 0.99916 0.70068 0.78495 0.0
C2615 C 0.99614 0.71176 0.80179 0.0
H2616 H 0.69259 0.37379 0.67205 0.0
H2617 H 0.70179 0.43454 0.68947 0.0
H2618 H 0.6628 0.37185 0.68658 0.0
H2619 H 0.67182 0.4326 0.70429 0.0
H2620 H 0.6056 0.42146 0.70965 0.0
H2621 H 0.63712 0.42689 0.69804 0.0
H2622 H 0.65166 0.3734 0.71739 0.0
H2623 H 0.62018 0.3679 0.72837 0.0
C2624 C 0.68833 0.38674 0.67914 0.0
C2625 C 0.69974 0.40428 0.67974 0.0
C2626 C 0.67122 0.38563 0.68758 0.0
C2627 C 0.66497 0.40201 0.69697 0.0
C2628 C 0.67612 0.41969 0.69716 0.0
C2629 C 0.6933 0.42081 0.68864 0.0
C2630 C 0.61578 0.41117 0.71181 0.0
C2631 C 0.61044 0.39422 0.71979 0.0
C2632 C 0.63382 0.41421 0.70511 0.0
C2633 C 0.64683 0.40035 0.70633 0.0
C2634 C 0.64186 0.38411 0.71564 0.0
C2635 C 0.62389 0.38104 0.72217 0.0
H2636 H 0.81057 0.60873 0.21163 0.0
H2637 H 0.80013 0.66215 0.24193 0.0
H2638 H 0.84355 0.61329 0.22628 0.0
H2639 H 0.83227 0.66586 0.25765 0.0
H2640 H 0.89596 0.67988 0.26743 0.0
H2641 H 0.86329 0.67417 0.25324 0.0
H2642 H 0.86526 0.61323 0.25379 0.0
H2643 H 0.89891 0.61907 0.26688 0.0
C2644 C 0.81521 0.62143 0.22141 0.0
C2645 C 0.80242 0.63502 0.2255 0.0
C2646 C 0.83414 0.6239 0.23012 0.0
C2647 C 0.84088 0.63998 0.24328 0.0
C2648 C 0.82799 0.65343 0.24741 0.0
C2649 C 0.80924 0.65111 0.23856 0.0
C2650 C 0.88958 0.66519 0.2644 0.0
C2651 C 0.90037 0.64995 0.26806 0.0
C2652 C 0.87055 0.66189 0.25647 0.0
C2653 C 0.86129 0.64318 0.25223 0.0
C2654 C 0.87185 0.62785 0.2565 0.0
C2655 C 0.89112 0.63119 0.2643 0.0
H2656 H 0.292 0.03034 0.35953 0.0
H2657 H 0.30427 0.99471 0.30999 0.0
H2658 H 0.26068 0.03371 0.34376 0.0
H2659 H 0.27282 0.99853 0.29387 0.0
H2660 H 0.20425 0.99225 0.28725 0.0
H2661 H 0.238 0.98915 0.29683 0.0
H2662 H 0.24696 0.04936 0.31703 0.0
H2663 H 0.21338 0.05226 0.30778 0.0
C2664 C 0.28799 0.02317 0.34527 0.0
C2665 C 0.30065 0.01221 0.33607 0.0
C2666 C 0.27011 0.02533 0.33609 0.0
C2667 C 0.26432 0.01658 0.31744 0.0
C2668 C 0.27686 1.00545 0.30823 0.0
C2669 C 0.2949 1.00338 0.31741 0.0
C2670 C 0.21364 1.00488 0.29319 0.0
C2671 C 0.20625 0.02244 0.29699 0.0
C2672 C 0.23292 1.00312 0.29874 0.0
C2673 C 0.24503 0.01892 0.30814 0.0
C2674 C 0.2379 0.03681 0.3103 0.0
C2675 C 0.21873 0.03853 0.30485 0.0
H2676 H 0.23589 0.97927 0.74912 0.0
H2677 H 0.22272 0.02137 0.71092 0.0
H2678 H 0.2683 0.98095 0.74045 0.0
H2679 H 0.25562 0.02415 0.70296 0.0
H2680 H 0.30971 1.00721 0.67691 0.0
H2681 H 0.27841 0.01112 0.68688 0.0
H2682 H 0.29787 0.99707 0.74327 0.0
H2683 H 0.32864 0.99152 0.73237 0.0
C2684 C 0.24007 0.98912 0.73903 0.0
C2685 C 0.22677 1.00018 0.73071 0.0
C2686 C 0.25882 0.9903 0.73417 0.0
C2687 C 0.26501 1.00296 0.72115 0.0
C2688 C 0.25157 0.01407 0.71285 0.0
C2689 C 0.23265 0.01255 0.71744 0.0
C2690 C 0.30749 1.00555 0.69156 0.0
C2691 C 0.32154 0.99873 0.70367 0.0
C2692 C 0.28936 1.0077 0.69738 0.0
C2693 C 0.2851 1.0038 0.71581 0.0
C2694 C 0.30009 0.9993 0.72867 0.0
C2695 C 0.31795 0.99651 0.72258 0.0
H2696 H 0.69015 0.70151 0.43338 0.0
H2697 H 0.67265 0.69207 0.37271 0.0
H2698 H 0.70527 0.6717 0.43149 0.0
H2699 H 0.68748 0.66246 0.37082 0.0
H2700 H 0.72952 0.62026 0.36682 0.0
H2701 H 0.71838 0.65168 0.37232 0.0
H2702 H 0.69935 0.63687 0.42589 0.0
H2703 H 0.71112 0.60542 0.42046 0.0
C2704 C 0.68936 0.693 0.41968 0.0
C2705 C 0.68035 0.69934 0.40315 0.0
C2706 C 0.69806 0.67592 0.41859 0.0
C2707 C 0.69794 0.66476 0.40095 0.0
C2708 C 0.68843 0.6709 0.38458 0.0
C2709 C 0.67982 0.6879 0.38566 0.0
C2710 C 0.72338 0.62391 0.37999 0.0
C2711 C 0.72113 0.61039 0.39319 0.0
C2712 C 0.71675 0.64184 0.38306 0.0
C2713 C 0.70746 0.64671 0.39932 0.0
C2714 C 0.70639 0.63365 0.41319 0.0
C2715 C 0.71319 0.61565 0.41015 0.0
H2716 H 0.75431 0.23792 0.98238 0.0
H2717 H 0.7099 0.2219 0.01735 0.0
H2718 H 0.7453 0.27018 0.98369 0.0
H2719 H 0.70158 0.25463 0.02013 0.0
H2720 H 0.67752 0.30949 1.00371 0.0
H2721 H 0.68741 0.27812 0.00764 0.0
H2722 H 0.74505 0.29932 0.9986 0.0
H2723 H 0.73413 0.32998 0.99258 0.0
C2724 C 0.74275 0.24147 0.99063 0.0
C2725 C 0.73278 0.22738 0.9997 0.0
C2726 C 0.73766 0.26015 0.99166 0.0
C2727 C 0.72275 0.26553 1.00227 0.0
C2728 C 0.71292 0.25131 0.01154 0.0
C2729 C 0.71772 0.23245 0.01006 0.0
C2730 C 0.69231 0.30746 1.00291 0.0
C2731 C 0.70484 0.322 0.99739 0.0
C2732 C 0.69816 0.28935 1.00521 0.0
C2733 C 0.71705 0.28557 1.0028 0.0
C2734 C 0.73014 0.30104 0.99957 0.0
C2735 C 0.72403 0.31887 0.99653 0.0
H2736 H 0.25336 0.79671 0.64477 0.0
H2737 H 0.20077 0.81606 0.62169 0.0
H2738 H 0.2689 0.82926 0.64759 0.0
H2739 H 0.21645 0.8488 0.62445 0.0
H2740 H 0.25525 0.90394 0.61818 0.0
H2741 H 0.24092 0.87045 0.61234 0.0
H2742 H 0.26854 0.85922 0.6667 0.0
H2743 H 0.28276 0.89238 0.6723 0.0
C2744 C 0.24501 0.80791 0.64043 0.0
C2745 C 0.22567 0.80361 0.63316 0.0
C2746 C 0.25399 0.82667 0.642 0.0
C2747 C 0.24399 0.84182 0.63632 0.0
C2748 C 0.22473 0.83752 0.62873 0.0
C2749 C 0.2157 0.81869 0.62718 0.0
C2750 C 0.25852 0.89414 0.62863 0.0
C2751 C 0.27025 0.90073 0.64562 0.0
C2752 C 0.25013 0.87502 0.62543 0.0
C2753 C 0.25348 0.86202 0.63906 0.0
C2754 C 0.26574 0.86862 0.65574 0.0
C2755 C 0.27391 0.88767 0.65899 0.0
H2756 H 0.36417 0.28816 0.01249 0.0
H2757 H 0.30925 0.31011 1.00595 0.0
H2758 H 0.34832 0.25605 0.01238 0.0
H2759 H 0.29339 0.27779 1.00639 0.0
H2760 H 0.27938 0.21924 0.03453 0.0
H2761 H 0.29027 0.25238 0.02962 0.0
H2762 H 0.32797 0.23154 0.98965 0.0
H2763 H 0.31719 0.19866 0.99474 0.0
C2764 C 0.34871 0.28617 0.0108 0.0
C2765 C 0.33805 0.30183 0.00907 0.0
C2766 C 0.33961 0.2677 0.01077 0.0
C2767 C 0.31958 0.26433 0.00916 0.0
C2768 C 0.30884 0.27994 0.00769 0.0
C2769 C 0.31797 0.29847 0.00754 0.0
C2770 C 0.28946 0.22184 0.0242 0.0
C2771 C 0.29743 0.20653 0.01492 0.0
C2772 C 0.29577 0.24076 0.02145 0.0
C2773 C 0.31024 0.24456 0.00951 0.0
C2774 C 0.31708 0.22909 0.9992 0.0
C2775 C 0.31077 0.21029 1.00192 0.0
H2776 H 0.42418 0.70657 0.70979 0.0
H2777 H 0.38678 0.657 0.68409 0.0
H2778 H 0.42285 0.7199 0.67911 0.0
H2779 H 0.38506 0.67041 0.65357 0.0
H2780 H 0.39577 0.68983 0.59702 0.0
H2781 H 0.40202 0.67723 0.62766 0.0
H2782 H 0.40295 0.73412 0.65666 0.0
H2783 H 0.39732 0.7467 0.62566 0.0
C2784 C 0.41558 0.69855 0.6976 0.0
C2785 C 0.40563 0.68066 0.69945 0.0
C2786 C 0.41478 0.70623 0.67997 0.0
C2787 C 0.40393 0.69628 0.66367 0.0
C2788 C 0.39397 0.67837 0.66559 0.0
C2789 C 0.39489 0.67065 0.68316 0.0
C2790 C 0.39786 0.69969 0.60995 0.0
C2791 C 0.39626 0.71925 0.60897 0.0
C2792 C 0.40113 0.69245 0.62758 0.0
C2793 C 0.40264 0.70453 0.64482 0.0
C2794 C 0.40199 0.72433 0.64376 0.0
C2795 C 0.39885 0.73161 0.62601 0.0
H2796 H 0.99724 0.7027 0.21826 0.0
H2797 H 1.00289 0.76243 0.24035 0.0
H2798 H 0.99705 0.69373 0.2507 0.0
H2799 H 1.00387 0.75347 0.27277 0.0
H2800 H 0.97654 0.72866 0.32351 0.0
H2801 H 0.98233 0.74002 0.29295 0.0
H2802 H 0.01578 0.69314 0.28092 0.0
H2803 H 0.0092 0.68144 0.31114 0.0
C2804 C 0.99854 0.71394 0.23 0.0
C2805 C 0.99999 0.73331 0.22655 0.0
C2806 C 0.99877 0.70879 0.24868 0.0
C2807 C 1.00053 0.72286 0.26445 0.0
C2808 C 1.00232 0.74222 0.26102 0.0
C2809 C 1.00198 0.74737 0.24235 0.0
C2810 C 0.98545 0.72098 0.31451 0.0
C2811 C 0.99229 0.70399 0.31983 0.0
C2812 C 0.98885 0.72755 0.29696 0.0
C2813 C 0.9993 0.71736 0.28424 0.0
C2814 C 1.00739 0.70119 0.29019 0.0
C2815 C 1.00401 0.69468 0.30783 0.0
H2816 H 0.66164 0.24514 0.79983 0.0
H2817 H 0.60894 0.21349 0.8103 0.0
H2818 H 0.665 0.26084 0.83209 0.0
H2819 H 0.61308 0.22825 0.8433 0.0
H2820 H 0.61756 0.26892 0.89857 0.0
H2821 H 0.61227 0.25607 0.86476 0.0
H2822 H 0.67323 0.25638 0.86337 0.0
H2823 H 0.67837 0.2701 0.89638 0.0
C2824 C 0.65068 0.24148 0.80896 0.0
C2825 C 0.6349 0.22804 0.80212 0.0
C2826 C 0.65279 0.25035 0.82776 0.0
C2827 C 0.63938 0.24591 0.84065 0.0
C2828 C 0.62362 0.23235 0.83389 0.0
C2829 C 0.6214 0.22359 0.81494 0.0
C2830 C 0.6298 0.26661 0.89087 0.0
C2831 C 0.64838 0.27043 0.90036 0.0
C2832 C 0.62679 0.25894 0.87151 0.0
C2833 C 0.64228 0.25492 0.86109 0.0
C2834 C 0.66084 0.25938 0.87055 0.0
C2835 C 0.66382 0.2671 0.88972 0.0
H2836 H 0.01287 0.36391 0.28438 0.0
H2837 H 1.00764 0.30943 0.30772 0.0
H2838 H 0.01339 0.34746 0.25265 0.0
H2839 H 0.00879 0.293 0.2758 0.0
H2840 H 0.03838 0.27976 0.21764 0.0
H2841 H 0.03302 0.29085 0.25057 0.0
H2842 H 0.99057 0.32546 0.22874 0.0
H2843 H 0.99601 0.31439 0.19606 0.0
C2844 C 0.01161 0.34842 0.28277 0.0
C2845 C 0.01002 0.33805 0.29869 0.0
C2846 C 0.01195 0.33898 0.26454 0.0
C2847 C 0.0109 0.31892 0.2617 0.0
C2848 C 0.00964 0.30847 0.27757 0.0
C2849 C 0.00908 0.31793 0.29586 0.0
C2850 C 0.02743 0.28916 0.22 0.0
C2851 C 0.01748 0.29617 0.20446 0.0
C2852 C 0.02441 0.29558 0.23878 0.0
C2853 C 0.0116 0.30926 0.24219 0.0
C2854 C 1.00074 0.31514 0.22654 0.0
C2855 C 1.00367 0.30867 0.20787 0.0
loop_
_geom_bond_atom_site_label_1
_geom_bond_atom_site_label_2
_geom_bond_distance
_geom_bond_site_symmetry_2
_ccdc_geom_bond_type
C0 C1 1.264 . S
C0 C5 1.479 . S
C0 C10 1.465 . S
C1 C0 1.264 . S
C1 C3 1.339 . S
C1 H28 0.931 . S
C2 C3 1.395 . S
C2 C4 1.320 . S
C3 C1 1.339 . S
C3 C2 1.395 . S
C3 H29 0.929 . S
C4 C2 1.320 . S
C4 C5 1.405 . S
C4 H30 0.930 . S
C5 C0 1.479 . S
C5 C4 1.405 . S
C5 H31 0.931 . S
U6 O7 2.454 . S
U6 O8 2.458 . S
U6 C9 2.984 . S
U6 C10 2.847 . S
U6 C23 2.882 . S
U6 O24 2.441 . S
U6 O25 2.420 . S
U6 O26 2.455 . S
U6 O27 2.449 . S
O7 U6 2.454 . S
O7 C9 1.353 . S
O8 U6 2.458 . S
O8 C9 1.286 . S
C9 U6 2.984 . S
C9 O7 1.353 . S
C9 O8 1.286 . S
C9 C11 1.363 . S
C10 C0 1.465 . S
C10 U6 2.847 . S
C10 O24 1.249 . S
C10 O25 1.202 . S
C11 C9 1.363 . S
C11 C13 1.408 . S
C11 C16 1.342 . S
C12 C13 1.310 . S
C12 C15 1.461 . S
C12 H32 0.932 . S
C13 C11 1.408 . S
C13 C12 1.310 . S
C13 H33 0.930 . S
C14 C15 1.474 . S
C14 C16 1.285 . S
C14 H34 0.929 . S
C15 C12 1.461 . S
C15 C14 1.474 . S
C16 C11 1.342 . S
C16 C14 1.285 . S
C16 H35 0.930 . S
C17 C20 1.424 . S
C17 C22 1.245 . S
C17 C23 1.428 . S
C18 C21 1.260 . S
C18 C22 1.477 . S
C18 H36 0.932 . S
C19 C20 1.384 . S
C19 C21 1.479 . S
C19 H37 0.929 . S
C20 C17 1.424 . S
C20 C19 1.384 . S
C20 H38 0.928 . S
C21 C18 1.260 . S
C21 C19 1.479 . S
C22 C17 1.245 . S
C22 C18 1.477 . S
C22 H39 0.932 . S
C23 U6 2.882 . S
C23 C17 1.428 . S
C23 O26 1.301 . S
C23 O27 1.282 . S
O24 U6 2.441 . S
O24 C10 1.249 . S
O25 U6 2.420 . S
O25 C10 1.202 . S
O26 U6 2.455 . S
O26 C23 1.301 . S
O27 U6 2.449 . S
O27 C23 1.282 . S
H28 C1 0.931 . S
H29 C3 0.929 . S
H30 C4 0.930 . S
H31 C5 0.931 . S
H32 C12 0.932 . S
H33 C13 0.930 . S
H34 C14 0.929 . S
H35 C16 0.930 . S
H36 C18 0.932 . S
H37 C19 0.929 . S
H38 C20 0.928 . S
H39 C22 0.932 . S
C40 C41 1.264 . S
C40 C45 1.479 . S
C40 C50 1.465 . S
C41 C40 1.264 . S
C41 C43 1.339 . S
C41 H68 0.931 . S
C42 C43 1.395 . S
C42 C44 1.320 . S
C43 C41 1.339 . S
C43 C42 1.395 . S
C43 H69 0.929 . S
C44 C42 1.320 . S
C44 C45 1.405 . S
C44 H70 0.930 . S
C45 C40 1.479 . S
C45 C44 1.405 . S
C45 H71 0.931 . S
U46 O47 2.454 . S
U46 O48 2.458 . S
U46 C49 2.984 . S
U46 C50 2.847 . S
U46 C63 2.882 . S
U46 O64 2.441 . S
U46 O65 2.420 . S
U46 O66 2.455 . S
U46 O67 2.449 . S
O47 U46 2.454 . S
O47 C49 1.353 . S
O48 U46 2.458 . S
O48 C49 1.286 . S
C49 U46 2.984 . S
C49 O47 1.353 . S
C49 O48 1.286 . S
C49 C51 1.363 . S
C50 C40 1.465 . S
C50 U46 2.847 . S
C50 O64 1.249 . S
C50 O65 1.202 . S
C51 C49 1.363 . S
C51 C53 1.408 . S
C51 C56 1.342 . S
C52 C53 1.310 . S
C52 C55 1.461 . S
C52 H72 0.932 . S
C53 C51 1.408 . S
C53 C52 1.310 . S
C53 H73 0.930 . S
C54 C55 1.474 . S
C54 C56 1.285 . S
C54 H74 0.929 . S
C55 C52 1.461 . S
C55 C54 1.474 . S
C56 C51 1.342 . S
C56 C54 1.285 . S
C56 H75 0.930 . S
C57 C60 1.424 . S
C57 C62 1.245 . S
C57 C63 1.428 . S
C58 C61 1.260 . S
C58 C62 1.477 . S
C58 H76 0.932 . S
C59 C60 1.384 . S
C59 C61 1.479 . S
C59 H77 0.929 . S
C60 C57 1.424 . S
C60 C59 1.384 . S
C60 H78 0.928 . S
C61 C58 1.260 . S
C61 C59 1.479 . S
C62 C57 1.245 . S
C62 C58 1.477 . S
C62 H79 0.932 . S
C63 U46 2.882 . S
C63 C57 1.428 . S
C63 O66 1.301 . S
C63 O67 1.282 . S
O64 U46 2.441 . S
O64 C50 1.249 . S
O65 U46 2.420 . S
O65 C50 1.202 . S
O66 U46 2.455 . S
O66 C63 1.301 . S
O67 U46 2.449 . S
O67 C63 1.282 . S
H68 C41 0.931 . S
H69 C43 0.929 . S
H70 C44 0.930 . S
H71 C45 0.931 . S
H72 C52 0.932 . S
H73 C53 0.930 . S
H74 C54 0.929 . S
H75 C56 0.930 . S
H76 C58 0.932 . S
H77 C59 0.929 . S
H78 C60 0.928 . S
H79 C62 0.932 . S
C80 C81 1.264 . S
C80 C85 1.479 . S
C80 C90 1.465 . S
C81 C80 1.264 . S
C81 C83 1.339 . S
C81 H108 0.931 . S
C82 C83 1.395 . S
C82 C84 1.320 . S
C83 C81 1.339 . S
C83 C82 1.395 . S
C83 H109 0.929 . S
C84 C82 1.320 . S
C84 C85 1.405 . S
C84 H110 0.930 . S
C85 C80 1.479 . S
C85 C84 1.405 . S
C85 H111 0.931 . S
U86 O87 2.454 . S
U86 O88 2.458 . S
U86 C89 2.984 . S
U86 C90 2.847 . S
U86 C103 2.882 . S
U86 O104 2.441 . S
U86 O105 2.420 . S
U86 O106 2.455 . S
U86 O107 2.449 . S
O87 U86 2.454 . S
O87 C89 1.353 . S
O88 U86 2.458 . S
O88 C89 1.286 . S
C89 U86 2.984 . S
C89 O87 1.353 . S
C89 O88 1.286 . S
C89 C91 1.363 . S
C90 C80 1.465 . S
C90 U86 2.847 . S
C90 O104 1.249 . S
C90 O105 1.202 . S
C91 C89 1.363 . S
C91 C93 1.408 . S
C91 C96 1.342 . S
C92 C93 1.310 . S
C92 C95 1.461 . S
C92 H112 0.932 . S
C93 C91 1.408 . S
C93 C92 1.310 . S
C93 H113 0.930 . S
C94 C95 1.474 . S
C94 C96 1.285 . S
C94 H114 0.929 . S
C95 C92 1.461 . S
C95 C94 1.474 . S
C96 C91 1.342 . S
C96 C94 1.285 . S
C96 H115 0.930 . S
C97 C100 1.424 1_565 S
C97 C102 1.245 1_565 S
C97 C103 1.428 . S
C98 C101 1.260 . S
C98 C102 1.477 . S
C98 H116 0.932 . S
C99 C100 1.384 . S
C99 C101 1.479 . S
C99 H117 0.929 . S
C100 C97 1.424 1_545 S
C100 C99 1.384 . S
C100 H118 0.928 . S
C101 C98 1.260 . S
C101 C99 1.479 . S
C102 C97 1.245 1_545 S
C102 C98 1.477 . S
C102 H119 0.932 . S
C103 U86 2.882 . S
C103 C97 1.428 . S
C103 O106 1.301 . S
C103 O107 1.282 . S
O104 U86 2.441 . S
O104 C90 1.249 . S
O105 U86 2.420 . S
O105 C90 1.202 . S
O106 U86 2.455 . S
O106 C103 1.301 . S
O107 U86 2.449 . S
O107 C103 1.282 . S
H108 C81 0.931 . S
H109 C83 0.929 . S
H110 C84 0.930 . S
H111 C85 0.931 . S
H112 C92 0.932 . S
H113 C93 0.930 . S
H114 C94 0.929 . S
H115 C96 0.930 . S
H116 C98 0.932 . S
H117 C99 0.929 . S
H118 C100 0.928 . S
H119 C102 0.932 . S
C120 C121 1.264 . S
C120 C125 1.479 . S
C120 C130 1.465 . S
C121 C120 1.264 . S
C121 C123 1.339 . S
C121 H148 0.931 . S
C122 C123 1.395 . S
C122 C124 1.320 . S
C123 C121 1.339 . S
C123 C122 1.395 . S
C123 H149 0.929 . S
C124 C122 1.320 . S
C124 C125 1.405 . S
C124 H150 0.930 . S
C125 C120 1.479 . S
C125 C124 1.405 . S
C125 H151 0.931 . S
U126 O127 2.454 . S
U126 O128 2.458 . S
U126 C129 2.984 . S
U126 C130 2.847 . S
U126 C143 2.882 1_545 S
U126 O144 2.441 . S
U126 O145 2.420 . S
U126 O146 2.450 1_545 S
U126 O147 2.449 . S
O127 U126 2.454 . S
O127 C129 1.353 . S
O128 U126 2.458 . S
O128 C129 1.286 . S
C129 U126 2.984 . S
C129 O127 1.353 . S
C129 O128 1.286 . S
C129 C131 1.363 . S
C130 C120 1.465 . S
C130 U126 2.847 . S
C130 O144 1.249 . S
C130 O145 1.202 . S
C131 C129 1.363 . S
C131 C133 1.408 . S
C131 C136 1.342 . S
C132 C133 1.310 . S
C132 C135 1.461 . S
C132 H152 0.932 . S
C133 C131 1.408 . S
C133 C132 1.310 . S
C133 H153 0.930 . S
C134 C135 1.474 . S
C134 C136 1.285 . S
C134 H154 0.929 . S
C135 C132 1.461 . S
C135 C134 1.474 . S
C136 C131 1.342 . S
C136 C134 1.285 . S
C136 H155 0.930 . S
C137 C140 1.424 . S
C137 C142 1.245 . S
C137 C143 1.428 . S
C138 C141 1.260 . S
C138 C142 1.477 . S
C138 H156 0.932 . S
C139 C140 1.384 . S
C139 C141 1.479 . S
C139 H157 0.929 . S
C140 C137 1.424 . S
C140 C139 1.384 . S
C140 H158 0.928 . S
C141 C138 1.260 . S
C141 C139 1.479 . S
C142 C137 1.245 . S
C142 C138 1.477 . S
C142 H159 0.932 . S
C143 U126 2.882 1_565 S
C143 C137 1.428 . S
C143 O146 1.303 . S
C143 O147 1.282 1_565 S
O144 U126 2.441 . S
O144 C130 1.249 . S
O145 U126 2.420 . S
O145 C130 1.202 . S
O146 U126 2.450 1_565 S
O146 C143 1.303 . S
O147 U126 2.449 . S
O147 C143 1.282 1_545 S
H148 C121 0.931 . S
H149 C123 0.929 . S
H150 C124 0.930 . S
H151 C125 0.931 . S
H152 C132 0.932 . S
H153 C133 0.930 . S
H154 C134 0.929 . S
H155 C136 0.930 . S
H156 C138 0.932 . S
H157 C139 0.929 . S
H158 C140 0.928 . S
H159 C142 0.932 . S
C160 C161 1.264 . S
C160 C165 1.479 . S
C160 C170 1.465 . S
C161 C160 1.264 . S
C161 C163 1.339 . S
C161 H188 0.931 . S
C162 C163 1.395 . S
C162 C164 1.320 . S
C163 C161 1.339 . S
C163 C162 1.395 . S
C163 H189 0.929 . S
C164 C162 1.320 . S
C164 C165 1.405 . S
C164 H190 0.930 . S
C165 C160 1.479 . S
C165 C164 1.405 . S
C165 H191 0.931 . S
U166 O167 2.454 . S
U166 O168 2.458 . S
U166 C169 2.984 . S
U166 C170 2.847 . S
U166 C183 2.882 . S
U166 O184 2.441 . S
U166 O185 2.420 . S
U166 O186 2.455 . S
U166 O187 2.449 . S
O167 U166 2.454 . S
O167 C169 1.353 . S
O168 U166 2.458 . S
O168 C169 1.286 . S
C169 U166 2.984 . S
C169 O167 1.353 . S
C169 O168 1.286 . S
C169 C171 1.363 . S
C170 C160 1.465 . S
C170 U166 2.847 . S
C170 O184 1.249 . S
C170 O185 1.202 . S
C171 C169 1.363 . S
C171 C173 1.408 . S
C171 C176 1.342 . S
C172 C173 1.310 . S
C172 C175 1.461 . S
C172 H192 0.932 . S
C173 C171 1.408 . S
C173 C172 1.310 . S
C173 H193 0.930 . S
C174 C175 1.474 . S
C174 C176 1.285 . S
C174 H194 0.929 . S
C175 C172 1.461 . S
C175 C174 1.474 . S
C176 C171 1.342 . S
C176 C174 1.285 . S
C176 H195 0.930 . S
C177 C180 1.424 . S
C177 C182 1.245 . S
C177 C183 1.428 . S
C178 C181 1.260 . S
C178 C182 1.477 . S
C178 H196 0.932 . S
C179 C180 1.384 . S
C179 C181 1.479 . S
C179 H197 0.929 . S
C180 C177 1.424 . S
C180 C179 1.384 . S
C180 H198 0.928 . S
C181 C178 1.260 . S
C181 C179 1.479 . S
C182 C177 1.245 . S
C182 C178 1.477 . S
C182 H199 0.932 . S
C183 U166 2.882 . S
C183 C177 1.428 . S
C183 O186 1.301 . S
C183 O187 1.282 . S
O184 U166 2.441 . S
O184 C170 1.249 . S
O185 U166 2.420 . S
O185 C170 1.202 . S
O186 U166 2.455 . S
O186 C183 1.301 . S
O187 U166 2.449 . S
O187 C183 1.282 . S
H188 C161 0.931 . S
H189 C163 0.929 . S
H190 C164 0.930 . S
H191 C165 0.931 . S
H192 C172 0.932 . S
H193 C173 0.930 . S
H194 C174 0.929 . S
H195 C176 0.930 . S
H196 C178 0.932 . S
H197 C179 0.929 . S
H198 C180 0.928 . S
H199 C182 0.932 . S
C200 C201 1.264 . S
C200 C205 1.479 . S
C200 C210 1.465 . S
C201 C200 1.264 . S
C201 C203 1.339 . S
C201 H228 0.931 . S
C202 C203 1.395 . S
C202 C204 1.320 . S
C203 C201 1.339 . S
C203 C202 1.395 . S
C203 H229 0.929 . S
C204 C202 1.320 . S
C204 C205 1.405 . S
C204 H230 0.930 . S
C205 C200 1.479 . S
C205 C204 1.405 . S
C205 H231 0.931 . S
U206 O207 2.454 . S
U206 O208 2.458 . S
U206 C209 2.984 . S
U206 C210 2.847 . S
U206 C223 2.882 1_554 S
U206 O224 2.441 . S
U206 O225 2.420 . S
U206 O226 2.450 1_554 S
U206 O227 2.449 . S
O207 U206 2.454 . S
O207 C209 1.353 . S
O208 U206 2.458 . S
O208 C209 1.286 . S
C209 U206 2.984 . S
C209 O207 1.353 . S
C209 O208 1.286 . S
C209 C211 1.363 . S
C210 C200 1.465 . S
C210 U206 2.847 . S
C210 O224 1.249 . S
C210 O225 1.202 . S
C211 C209 1.363 . S
C211 C213 1.408 . S
C211 C216 1.342 . S
C212 C213 1.310 . S
C212 C215 1.461 . S
C212 H232 0.932 . S
C213 C211 1.408 . S
C213 C212 1.310 . S
C213 H233 0.930 . S
C214 C215 1.474 . S
C214 C216 1.285 . S
C214 H234 0.929 . S
C215 C212 1.461 . S
C215 C214 1.474 . S
C216 C211 1.342 . S
C216 C214 1.285 . S
C216 H235 0.930 . S
C217 C220 1.424 . S
C217 C222 1.245 . S
C217 C223 1.428 . S
C218 C221 1.260 . S
C218 C222 1.477 . S
C218 H236 0.932 . S
C219 C220 1.384 . S
C219 C221 1.479 . S
C219 H237 0.929 . S
C220 C217 1.424 . S
C220 C219 1.384 . S
C220 H238 0.928 . S
C221 C218 1.260 . S
C221 C219 1.479 . S
C222 C217 1.245 . S
C222 C218 1.477 . S
C222 H239 0.932 . S
C223 U206 2.882 1_556 S
C223 C217 1.428 . S
C223 O226 1.303 . S
C223 O227 1.282 1_556 S
O224 U206 2.441 . S
O224 C210 1.249 . S
O225 U206 2.420 . S
O225 C210 1.202 . S
O226 U206 2.450 1_556 S
O226 C223 1.303 . S
O227 U206 2.449 . S
O227 C223 1.282 1_554 S
H228 C201 0.931 . S
H229 C203 0.929 . S
H230 C204 0.930 . S
H231 C205 0.931 . S
H232 C212 0.932 . S
H233 C213 0.930 . S
H234 C214 0.929 . S
H235 C216 0.930 . S
H236 C218 0.932 . S
H237 C219 0.929 . S
H238 C220 0.928 . S
H239 C222 0.932 . S
C240 C241 1.264 . S
C240 C245 1.479 . S
C240 C250 1.465 . S
C241 C240 1.264 . S
C241 C243 1.339 . S
C241 H268 0.931 . S
C242 C243 1.395 . S
C242 C244 1.320 . S
C243 C241 1.339 . S
C243 C242 1.395 . S
C243 H269 0.929 . S
C244 C242 1.320 . S
C244 C245 1.405 . S
C244 H270 0.930 . S
C245 C240 1.479 . S
C245 C244 1.405 . S
C245 H271 0.931 . S
U246 O247 2.454 . S
U246 O248 2.458 . S
U246 C249 2.984 . S
U246 C250 2.847 . S
U246 C263 2.882 . S
U246 O264 2.441 . S
U246 O265 2.420 . S
U246 O266 2.455 . S
U246 O267 2.449 . S
O247 U246 2.454 . S
O247 C249 1.353 . S
O248 U246 2.458 . S
O248 C249 1.286 . S
C249 U246 2.984 . S
C249 O247 1.353 . S
C249 O248 1.286 . S
C249 C251 1.363 . S
C250 C240 1.465 . S
C250 U246 2.847 . S
C250 O264 1.249 . S
C250 O265 1.202 . S
C251 C249 1.363 . S
C251 C253 1.408 . S
C251 C256 1.342 . S
C252 C253 1.310 . S
C252 C255 1.461 . S
C252 H272 0.932 . S
C253 C251 1.408 . S
C253 C252 1.310 . S
C253 H273 0.930 . S
C254 C255 1.474 . S
C254 C256 1.285 . S
C254 H274 0.929 . S
C255 C252 1.461 . S
C255 C254 1.474 . S
C256 C251 1.342 . S
C256 C254 1.285 . S
C256 H275 0.930 . S
C257 C260 1.424 . S
C257 C262 1.245 . S
C257 C263 1.428 . S
C258 C261 1.260 . S
C258 C262 1.477 . S
C258 H276 0.932 . S
C259 C260 1.384 . S
C259 C261 1.479 . S
C259 H277 0.929 . S
C260 C257 1.424 . S
C260 C259 1.384 . S
C260 H278 0.928 . S
C261 C258 1.260 . S
C261 C259 1.479 . S
C262 C257 1.245 . S
C262 C258 1.477 . S
C262 H279 0.932 . S
C263 U246 2.882 . S
C263 C257 1.428 . S
C263 O266 1.301 . S
C263 O267 1.282 . S
O264 U246 2.441 . S
O264 C250 1.249 . S
O265 U246 2.420 . S
O265 C250 1.202 . S
O266 U246 2.455 . S
O266 C263 1.301 . S
O267 U246 2.449 . S
O267 C263 1.282 . S
H268 C241 0.931 . S
H269 C243 0.929 . S
H270 C244 0.930 . S
H271 C245 0.931 . S
H272 C252 0.932 . S
H273 C253 0.930 . S
H274 C254 0.929 . S
H275 C256 0.930 . S
H276 C258 0.932 . S
H277 C259 0.929 . S
H278 C260 0.928 . S
H279 C262 0.932 . S
C280 C281 1.264 . S
C280 C285 1.479 . S
C280 C290 1.465 . S
C281 C280 1.264 . S
C281 C283 1.339 . S
C281 H308 0.931 . S
C282 C283 1.395 . S
C282 C284 1.320 . S
C283 C281 1.339 . S
C283 C282 1.395 . S
C283 H309 0.929 . S
C284 C282 1.320 . S
C284 C285 1.405 . S
C284 H310 0.930 . S
C285 C280 1.479 . S
C285 C284 1.405 . S
C285 H311 0.931 . S
U286 O287 2.454 . S
U286 O288 2.458 . S
U286 C289 2.984 . S
U286 C290 2.847 . S
U286 C303 2.882 . S
U286 O304 2.441 . S
U286 O305 2.420 . S
U286 O306 2.455 . S
U286 O307 2.449 . S
O287 U286 2.454 . S
O287 C289 1.353 . S
O288 U286 2.458 . S
O288 C289 1.286 . S
C289 U286 2.984 . S
C289 O287 1.353 . S
C289 O288 1.286 . S
C289 C291 1.363 . S
C290 C280 1.465 . S
C290 U286 2.847 . S
C290 O304 1.249 . S
C290 O305 1.202 . S
C291 C289 1.363 . S
C291 C293 1.408 . S
C291 C296 1.342 . S
C292 C293 1.310 . S
C292 C295 1.461 . S
C292 H312 0.932 . S
C293 C291 1.408 . S
C293 C292 1.310 . S
C293 H313 0.930 . S
C294 C295 1.474 . S
C294 C296 1.285 . S
C294 H314 0.929 . S
C295 C292 1.461 . S
C295 C294 1.474 . S
C296 C291 1.342 . S
C296 C294 1.285 . S
C296 H315 0.930 . S
C297 C300 1.424 1_556 S
C297 C302 1.245 1_556 S
C297 C303 1.428 . S
C298 C301 1.260 . S
C298 C302 1.477 . S
C298 H316 0.932 . S
C299 C300 1.384 . S
C299 C301 1.479 . S
C299 H317 0.929 . S
C300 C297 1.424 1_554 S
C300 C299 1.384 . S
C300 H318 0.928 . S
C301 C298 1.260 . S
C301 C299 1.479 . S
C302 C297 1.245 1_554 S
C302 C298 1.477 . S
C302 H319 0.932 . S
C303 U286 2.882 . S
C303 C297 1.428 . S
C303 O306 1.301 . S
C303 O307 1.282 . S
O304 U286 2.441 . S
O304 C290 1.249 . S
O305 U286 2.420 . S
O305 C290 1.202 . S
O306 U286 2.455 . S
O306 C303 1.301 . S
O307 U286 2.449 . S
O307 C303 1.282 . S
H308 C281 0.931 . S
H309 C283 0.929 . S
H310 C284 0.930 . S
H311 C285 0.931 . S
H312 C292 0.932 . S
H313 C293 0.930 . S
H314 C294 0.929 . S
H315 C296 0.930 . S
H316 C298 0.932 . S
H317 C299 0.929 . S
H318 C300 0.928 . S
H319 C302 0.932 . S
C320 C321 1.264 . S
C320 C325 1.479 . S
C320 C330 1.465 . S
C321 C320 1.264 . S
C321 C323 1.339 . S
C321 H348 0.931 . S
C322 C323 1.395 . S
C322 C324 1.320 . S
C323 C321 1.339 . S
C323 C322 1.395 . S
C323 H349 0.929 . S
C324 C322 1.320 . S
C324 C325 1.405 . S
C324 H350 0.930 . S
C325 C320 1.479 . S
C325 C324 1.405 . S
C325 H351 0.931 . S
U326 O327 2.454 . S
U326 O328 2.458 . S
U326 C329 2.984 . S
U326 C330 2.847 . S
U326 C343 2.882 . S
U326 O344 2.441 . S
U326 O345 2.420 . S
U326 O346 2.455 . S
U326 O347 2.449 . S
O327 U326 2.454 . S
O327 C329 1.353 . S
O328 U326 2.458 . S
O328 C329 1.286 . S
C329 U326 2.984 . S
C329 O327 1.353 . S
C329 O328 1.286 . S
C329 C331 1.363 . S
C330 C320 1.465 . S
C330 U326 2.847 . S
C330 O344 1.249 . S
C330 O345 1.202 . S
C331 C329 1.363 . S
C331 C333 1.408 . S
C331 C336 1.342 . S
C332 C333 1.310 . S
C332 C335 1.461 . S
C332 H352 0.932 . S
C333 C331 1.408 . S
C333 C332 1.310 . S
C333 H353 0.930 . S
C334 C335 1.474 . S
C334 C336 1.285 . S
C334 H354 0.929 . S
C335 C332 1.461 . S
C335 C334 1.474 . S
C336 C331 1.342 . S
C336 C334 1.285 . S
C336 H355 0.930 . S
C337 C340 1.424 . S
C337 C342 1.245 . S
C337 C343 1.428 . S
C338 C341 1.260 . S
C338 C342 1.477 . S
C338 H356 0.932 . S
C339 C340 1.384 . S
C339 C341 1.479 . S
C339 H357 0.929 . S
C340 C337 1.424 . S
C340 C339 1.384 . S
C340 H358 0.928 . S
C341 C338 1.260 . S
C341 C339 1.479 . S
C342 C337 1.245 . S
C342 C338 1.477 . S
C342 H359 0.932 . S
C343 U326 2.882 . S
C343 C337 1.428 . S
C343 O346 1.301 . S
C343 O347 1.282 . S
O344 U326 2.441 . S
O344 C330 1.249 . S
O345 U326 2.420 . S
O345 C330 1.202 . S
O346 U326 2.455 . S
O346 C343 1.301 . S
O347 U326 2.449 . S
O347 C343 1.282 . S
H348 C321 0.931 . S
H349 C323 0.929 . S
H350 C324 0.930 . S
H351 C325 0.931 . S
H352 C332 0.932 . S
H353 C333 0.930 . S
H354 C334 0.929 . S
H355 C336 0.930 . S
H356 C338 0.932 . S
H357 C339 0.929 . S
H358 C340 0.928 . S
H359 C342 0.932 . S
C360 C361 1.264 . S
C360 C365 1.479 . S
C360 C370 1.465 . S
C361 C360 1.264 . S
C361 C363 1.339 . S
C361 H388 0.931 . S
C362 C363 1.395 . S
C362 C364 1.320 . S
C363 C361 1.339 . S
C363 C362 1.395 . S
C363 H389 0.929 . S
C364 C362 1.320 . S
C364 C365 1.405 . S
C364 H390 0.930 . S
C365 C360 1.479 . S
C365 C364 1.405 . S
C365 H391 0.931 . S
U366 O367 2.454 . S
U366 O368 2.458 . S
U366 C369 2.984 . S
U366 C370 2.847 . S
U366 C383 2.882 1_455 S
U366 O384 2.441 . S
U366 O385 2.420 . S
U366 O386 2.450 1_455 S
U366 O387 2.449 . S
O367 U366 2.454 . S
O367 C369 1.353 . S
O368 U366 2.458 . S
O368 C369 1.286 . S
C369 U366 2.984 . S
C369 O367 1.353 . S
C369 O368 1.286 . S
C369 C371 1.363 . S
C370 C360 1.465 . S
C370 U366 2.847 . S
C370 O384 1.249 . S
C370 O385 1.202 . S
C371 C369 1.363 . S
C371 C373 1.408 . S
C371 C376 1.342 . S
C372 C373 1.310 . S
C372 C375 1.461 . S
C372 H392 0.932 . S
C373 C371 1.408 . S
C373 C372 1.310 . S
C373 H393 0.930 . S
C374 C375 1.474 . S
C374 C376 1.285 . S
C374 H394 0.929 . S
C375 C372 1.461 . S
C375 C374 1.474 . S
C376 C371 1.342 . S
C376 C374 1.285 . S
C376 H395 0.930 . S
C377 C380 1.424 . S
C377 C382 1.245 . S
C377 C383 1.428 . S
C378 C381 1.260 . S
C378 C382 1.477 . S
C378 H396 0.932 . S
C379 C380 1.384 . S
C379 C381 1.479 . S
C379 H397 0.929 . S
C380 C377 1.424 . S
C380 C379 1.384 . S
C380 H398 0.928 . S
C381 C378 1.260 . S
C381 C379 1.479 . S
C382 C377 1.245 . S
C382 C378 1.477 . S
C382 H399 0.932 . S
C383 U366 2.882 1_655 S
C383 C377 1.428 . S
C383 O386 1.303 . S
C383 O387 1.282 1_655 S
O384 U366 2.441 . S
O384 C370 1.249 . S
O385 U366 2.420 . S
O385 C370 1.202 . S
O386 U366 2.450 1_655 S
O386 C383 1.303 . S
O387 U366 2.449 . S
O387 C383 1.282 1_455 S
H388 C361 0.931 . S
H389 C363 0.929 . S
H390 C364 0.930 . S
H391 C365 0.931 . S
H392 C372 0.932 . S
H393 C373 0.930 . S
H394 C374 0.929 . S
H395 C376 0.930 . S
H396 C378 0.932 . S
H397 C379 0.929 . S
H398 C380 0.928 . S
H399 C382 0.932 . S
C400 C401 1.264 . S
C400 C405 1.479 . S
C400 C410 1.465 . S
C401 C400 1.264 . S
C401 C403 1.339 . S
C401 H428 0.931 . S
C402 C403 1.395 . S
C402 C404 1.320 . S
C403 C401 1.339 . S
C403 C402 1.395 . S
C403 H429 0.929 . S
C404 C402 1.320 . S
C404 C405 1.405 . S
C404 H430 0.930 . S
C405 C400 1.479 . S
C405 C404 1.405 . S
C405 H431 0.931 . S
U406 O407 2.454 . S
U406 O408 2.458 . S
U406 C409 2.984 . S
U406 C410 2.847 . S
U406 C423 2.882 . S
U406 O424 2.441 . S
U406 O425 2.420 . S
U406 O426 2.455 . S
U406 O427 2.449 . S
O407 U406 2.454 . S
O407 C409 1.353 . S
O408 U406 2.458 . S
O408 C409 1.286 . S
C409 U406 2.984 . S
C409 O407 1.353 . S
C409 O408 1.286 . S
C409 C411 1.363 . S
C410 C400 1.465 . S
C410 U406 2.847 . S
C410 O424 1.249 . S
C410 O425 1.202 . S
C411 C409 1.363 . S
C411 C413 1.408 . S
C411 C416 1.342 . S
C412 C413 1.310 . S
C412 C415 1.461 . S
C412 H432 0.932 . S
C413 C411 1.408 . S
C413 C412 1.310 . S
C413 H433 0.930 . S
C414 C415 1.474 . S
C414 C416 1.285 . S
C414 H434 0.929 . S
C415 C412 1.461 . S
C415 C414 1.474 . S
C416 C411 1.342 . S
C416 C414 1.285 . S
C416 H435 0.930 . S
C417 C420 1.424 . S
C417 C422 1.245 . S
C417 C423 1.428 . S
C418 C421 1.260 . S
C418 C422 1.477 . S
C418 H436 0.932 . S
C419 C420 1.384 . S
C419 C421 1.479 . S
C419 H437 0.929 . S
C420 C417 1.424 . S
C420 C419 1.384 . S
C420 H438 0.928 . S
C421 C418 1.260 . S
C421 C419 1.479 . S
C422 C417 1.245 . S
C422 C418 1.477 . S
C422 H439 0.932 . S
C423 U406 2.882 . S
C423 C417 1.428 . S
C423 O426 1.301 . S
C423 O427 1.282 . S
O424 U406 2.441 . S
O424 C410 1.249 . S
O425 U406 2.420 . S
O425 C410 1.202 . S
O426 U406 2.455 . S
O426 C423 1.301 . S
O427 U406 2.449 . S
O427 C423 1.282 . S
H428 C401 0.931 . S
H429 C403 0.929 . S
H430 C404 0.930 . S
H431 C405 0.931 . S
H432 C412 0.932 . S
H433 C413 0.930 . S
H434 C414 0.929 . S
H435 C416 0.930 . S
H436 C418 0.932 . S
H437 C419 0.929 . S
H438 C420 0.928 . S
H439 C422 0.932 . S
C440 C441 1.264 . S
C440 C445 1.479 . S
C440 C450 1.465 . S
C441 C440 1.264 . S
C441 C443 1.339 . S
C441 H468 0.931 . S
C442 C443 1.395 . S
C442 C444 1.320 . S
C443 C441 1.339 . S
C443 C442 1.395 . S
C443 H469 0.929 . S
C444 C442 1.320 . S
C444 C445 1.405 . S
C444 H470 0.930 . S
C445 C440 1.479 . S
C445 C444 1.405 . S
C445 H471 0.931 . S
U446 O447 2.454 . S
U446 O448 2.458 . S
U446 C449 2.984 . S
U446 C450 2.847 . S
U446 C463 2.882 . S
U446 O464 2.441 . S
U446 O465 2.420 . S
U446 O466 2.455 . S
U446 O467 2.449 . S
O447 U446 2.454 . S
O447 C449 1.353 . S
O448 U446 2.458 . S
O448 C449 1.286 . S
C449 U446 2.984 . S
C449 O447 1.353 . S
C449 O448 1.286 . S
C449 C451 1.363 . S
C450 C440 1.465 . S
C450 U446 2.847 . S
C450 O464 1.249 . S
C450 O465 1.202 . S
C451 C449 1.363 . S
C451 C453 1.408 . S
C451 C456 1.342 . S
C452 C453 1.310 . S
C452 C455 1.461 . S
C452 H472 0.932 . S
C453 C451 1.408 . S
C453 C452 1.310 . S
C453 H473 0.930 . S
C454 C455 1.474 . S
C454 C456 1.285 . S
C454 H474 0.929 . S
C455 C452 1.461 . S
C455 C454 1.474 . S
C456 C451 1.342 . S
C456 C454 1.285 . S
C456 H475 0.930 . S
C457 C460 1.424 1_655 S
C457 C462 1.245 1_655 S
C457 C463 1.428 . S
C458 C461 1.260 . S
C458 C462 1.477 . S
C458 H476 0.932 . S
C459 C460 1.384 . S
C459 C461 1.479 . S
C459 H477 0.929 . S
C460 C457 1.424 1_455 S
C460 C459 1.384 . S
C460 H478 0.928 . S
C461 C458 1.260 . S
C461 C459 1.479 . S
C462 C457 1.245 1_455 S
C462 C458 1.477 . S
C462 H479 0.932 . S
C463 U446 2.882 . S
C463 C457 1.428 . S
C463 O466 1.301 . S
C463 O467 1.282 . S
O464 U446 2.441 . S
O464 C450 1.249 . S
O465 U446 2.420 . S
O465 C450 1.202 . S
O466 U446 2.455 . S
O466 C463 1.301 . S
O467 U446 2.449 . S
O467 C463 1.282 . S
H468 C441 0.931 . S
H469 C443 0.929 . S
H470 C444 0.930 . S
H471 C445 0.931 . S
H472 C452 0.932 . S
H473 C453 0.930 . S
H474 C454 0.929 . S
H475 C456 0.930 . S
H476 C458 0.932 . S
H477 C459 0.929 . S
H478 C460 0.928 . S
H479 C462 0.932 . S
C480 C481 1.264 . S
C480 C485 1.479 . S
C480 C490 1.465 . S
C481 C480 1.264 . S
C481 C483 1.339 . S
C481 H508 0.931 . S
C482 C483 1.395 . S
C482 C484 1.320 . S
C483 C481 1.339 . S
C483 C482 1.395 . S
C483 H509 0.929 . S
C484 C482 1.320 . S
C484 C485 1.405 . S
C484 H510 0.930 . S
C485 C480 1.479 . S
C485 C484 1.405 . S
C485 H511 0.931 . S
U486 O487 2.454 . S
U486 O488 2.458 . S
U486 C489 2.984 . S
U486 C490 2.847 . S
U486 C503 2.882 . S
U486 O504 2.441 . S
U486 O505 2.420 . S
U486 O506 2.455 . S
U486 O507 2.449 . S
O487 U486 2.454 . S
O487 C489 1.353 . S
O488 U486 2.458 . S
O488 C489 1.286 . S
C489 U486 2.984 . S
C489 O487 1.353 . S
C489 O488 1.286 . S
C489 C491 1.363 . S
C490 C480 1.465 . S
C490 U486 2.847 . S
C490 O504 1.249 . S
C490 O505 1.202 . S
C491 C489 1.363 . S
C491 C493 1.408 . S
C491 C496 1.342 . S
C492 C493 1.310 . S
C492 C495 1.461 . S
C492 H512 0.932 . S
C493 C491 1.408 . S
C493 C492 1.310 . S
C493 H513 0.930 . S
C494 C495 1.474 . S
C494 C496 1.285 . S
C494 H514 0.929 . S
C495 C492 1.461 . S
C495 C494 1.474 . S
C496 C491 1.342 . S
C496 C494 1.285 . S
C496 H515 0.930 . S
C497 C500 1.424 . S
C497 C502 1.245 . S
C497 C503 1.428 . S
C498 C501 1.260 . S
C498 C502 1.477 . S
C498 H516 0.932 . S
C499 C500 1.384 . S
C499 C501 1.479 . S
C499 H517 0.929 . S
C500 C497 1.424 . S
C500 C499 1.384 . S
C500 H518 0.928 . S
C501 C498 1.260 . S
C501 C499 1.479 . S
C502 C497 1.245 . S
C502 C498 1.477 . S
C502 H519 0.932 . S
C503 U486 2.882 . S
C503 C497 1.428 . S
C503 O506 1.301 . S
C503 O507 1.282 . S
O504 U486 2.441 . S
O504 C490 1.249 . S
O505 U486 2.420 . S
O505 C490 1.202 . S
O506 U486 2.455 . S
O506 C503 1.301 . S
O507 U486 2.449 . S
O507 C503 1.282 . S
H508 C481 0.931 . S
H509 C483 0.929 . S
H510 C484 0.930 . S
H511 C485 0.931 . S
H512 C492 0.932 . S
H513 C493 0.930 . S
H514 C494 0.929 . S
H515 C496 0.930 . S
H516 C498 0.932 . S
H517 C499 0.929 . S
H518 C500 0.928 . S
H519 C502 0.932 . S
C520 C521 1.264 . S
C520 C525 1.479 . S
C520 C530 1.465 . S
C521 C520 1.264 . S
C521 C523 1.339 . S
C521 H548 0.931 . S
C522 C523 1.395 . S
C522 C524 1.320 . S
C523 C521 1.339 . S
C523 C522 1.395 . S
C523 H549 0.929 . S
C524 C522 1.320 . S
C524 C525 1.405 . S
C524 H550 0.930 . S
C525 C520 1.479 . S
C525 C524 1.405 . S
C525 H551 0.931 . S
U526 O527 2.454 . S
U526 O528 2.458 . S
U526 C529 2.984 . S
U526 C530 2.847 . S
U526 C543 2.882 . S
U526 O544 2.441 . S
U526 O545 2.420 . S
U526 O546 2.455 . S
U526 O547 2.449 . S
O527 U526 2.454 . S
O527 C529 1.353 . S
O528 U526 2.458 . S
O528 C529 1.286 . S
C529 U526 2.984 . S
C529 O527 1.353 . S
C529 O528 1.286 . S
C529 C531 1.363 . S
C530 C520 1.465 . S
C530 U526 2.847 . S
C530 O544 1.249 . S
C530 O545 1.202 . S
C531 C529 1.363 . S
C531 C533 1.408 . S
C531 C536 1.342 . S
C532 C533 1.310 . S
C532 C535 1.461 . S
C532 H552 0.932 . S
C533 C531 1.408 . S
C533 C532 1.310 . S
C533 H553 0.930 . S
C534 C535 1.474 . S
C534 C536 1.285 . S
C534 H554 0.929 . S
C535 C532 1.461 . S
C535 C534 1.474 . S
C536 C531 1.342 . S
C536 C534 1.285 . S
C536 H555 0.930 . S
C537 C540 1.424 . S
C537 C542 1.245 . S
C537 C543 1.428 . S
C538 C541 1.260 . S
C538 C542 1.477 . S
C538 H556 0.932 . S
C539 C540 1.384 . S
C539 C541 1.479 . S
C539 H557 0.929 . S
C540 C537 1.424 . S
C540 C539 1.384 . S
C540 H558 0.928 . S
C541 C538 1.260 . S
C541 C539 1.479 . S
C542 C537 1.245 . S
C542 C538 1.477 . S
C542 H559 0.932 . S
C543 U526 2.882 . S
C543 C537 1.428 . S
C543 O546 1.301 . S
C543 O547 1.282 . S
O544 U526 2.441 . S
O544 C530 1.249 . S
O545 U526 2.420 . S
O545 C530 1.202 . S
O546 U526 2.455 . S
O546 C543 1.301 . S
O547 U526 2.449 . S
O547 C543 1.282 . S
H548 C521 0.931 . S
H549 C523 0.929 . S
H550 C524 0.930 . S
H551 C525 0.931 . S
H552 C532 0.932 . S
H553 C533 0.930 . S
H554 C534 0.929 . S
H555 C536 0.930 . S
H556 C538 0.932 . S
H557 C539 0.929 . S
H558 C540 0.928 . S
H559 C542 0.932 . S
C560 C561 1.264 . S
C560 C565 1.479 1_565 S
C560 C570 1.465 . S
C561 C560 1.264 . S
C561 C563 1.339 . S
C561 H588 0.931 . S
C562 C563 1.395 1_545 S
C562 C564 1.320 . S
C563 C561 1.339 . S
C563 C562 1.395 1_565 S
C563 H589 0.929 . S
C564 C562 1.320 . S
C564 C565 1.405 . S
C564 H590 0.930 . S
C565 C560 1.479 1_545 S
C565 C564 1.405 . S
C565 H591 0.931 . S
U566 O567 2.454 . S
U566 O568 2.458 . S
U566 C569 2.984 . S
U566 C570 2.847 . S
U566 C583 2.882 . S
U566 O584 2.441 . S
U566 O585 2.420 . S
U566 O586 2.455 . S
U566 O587 2.449 . S
O567 U566 2.454 . S
O567 C569 1.353 . S
O568 U566 2.458 . S
O568 C569 1.286 . S
C569 U566 2.984 . S
C569 O567 1.353 . S
C569 O568 1.286 . S
C569 C571 1.359 1_565 S
C570 C560 1.465 . S
C570 U566 2.847 . S
C570 O584 1.249 . S
C570 O585 1.202 . S
C571 C569 1.359 1_545 S
C571 C573 1.422 . S
C571 C576 1.337 . S
C572 C573 1.310 . S
C572 C575 1.461 . S
C572 H592 0.932 . S
C573 C571 1.422 . S
C573 C572 1.310 . S
C573 H593 0.930 . S
C574 C575 1.474 . S
C574 C576 1.285 . S
C574 H594 0.929 . S
C575 C572 1.461 . S
C575 C574 1.474 . S
C576 C571 1.337 . S
C576 C574 1.285 . S
C576 H595 0.931 . S
C577 C580 1.424 . S
C577 C582 1.245 . S
C577 C583 1.428 . S
C578 C581 1.260 . S
C578 C582 1.477 . S
C578 H596 0.932 . S
C579 C580 1.384 . S
C579 C581 1.479 . S
C579 H597 0.929 . S
C580 C577 1.424 . S
C580 C579 1.384 . S
C580 H598 0.928 . S
C581 C578 1.260 . S
C581 C579 1.479 . S
C582 C577 1.245 . S
C582 C578 1.477 . S
C582 H599 0.932 . S
C583 U566 2.882 . S
C583 C577 1.428 . S
C583 O586 1.301 . S
C583 O587 1.282 . S
O584 U566 2.441 . S
O584 C570 1.249 . S
O585 U566 2.420 . S
O585 C570 1.202 . S
O586 U566 2.455 . S
O586 C583 1.301 . S
O587 U566 2.449 . S
O587 C583 1.282 . S
H588 C561 0.931 . S
H589 C563 0.929 . S
H590 C564 0.930 . S
H591 C565 0.931 . S
H592 C572 0.932 . S
H593 C573 0.930 . S
H594 C574 0.929 . S
H595 C576 0.931 . S
H596 C578 0.932 . S
H597 C579 0.929 . S
H598 C580 0.928 . S
H599 C582 0.932 . S
C600 C601 1.264 . S
C600 C605 1.479 . S
C600 C610 1.453 1_565 S
C601 C600 1.264 . S
C601 C603 1.339 . S
C601 H628 0.931 1_565 S
C602 C603 1.395 . S
C602 C604 1.320 . S
C603 C601 1.339 . S
C603 C602 1.395 . S
C603 H629 0.929 . S
C604 C602 1.320 . S
C604 C605 1.405 . S
C604 H630 0.930 . S
C605 C600 1.479 . S
C605 C604 1.405 . S
C605 H631 0.931 . S
U606 O607 2.454 1_545 S
U606 O608 2.458 . S
U606 C609 2.984 1_545 S
U606 C610 2.855 . S
U606 C623 2.882 . S
U606 O624 2.441 1_545 S
U606 O625 2.420 . S
U606 O626 2.455 . S
U606 O627 2.449 . S
O607 U606 2.454 1_565 S
O607 C609 1.353 . S
O608 U606 2.458 . S
O608 C609 1.286 1_545 S
C609 U606 2.984 1_565 S
C609 O607 1.353 . S
C609 O608 1.286 1_565 S
C609 C611 1.363 . S
C610 C600 1.453 1_545 S
C610 U606 2.855 . S
C610 O624 1.243 1_545 S
C610 O625 1.221 . S
C611 C609 1.363 . S
C611 C613 1.408 . S
C611 C616 1.342 . S
C612 C613 1.310 . S
C612 C615 1.461 . S
C612 H632 0.932 . S
C613 C611 1.408 . S
C613 C612 1.310 . S
C613 H633 0.930 . S
C614 C615 1.474 . S
C614 C616 1.285 . S
C614 H634 0.929 . S
C615 C612 1.461 . S
C615 C614 1.474 . S
C616 C611 1.342 . S
C616 C614 1.285 . S
C616 H635 0.930 . S
C617 C620 1.424 . S
C617 C622 1.245 . S
C617 C623 1.428 . S
C618 C621 1.260 . S
C618 C622 1.477 . S
C618 H636 0.932 . S
C619 C620 1.384 . S
C619 C621 1.479 . S
C619 H637 0.929 . S
C620 C617 1.424 . S
C620 C619 1.384 . S
C620 H638 0.928 . S
C621 C618 1.260 . S
C621 C619 1.479 . S
C622 C617 1.245 . S
C622 C618 1.477 . S
C622 H639 0.932 . S
C623 U606 2.882 . S
C623 C617 1.428 . S
C623 O626 1.301 . S
C623 O627 1.282 . S
O624 U606 2.441 1_565 S
O624 C610 1.243 1_565 S
O625 U606 2.420 . S
O625 C610 1.221 . S
O626 U606 2.455 . S
O626 C623 1.301 . S
O627 U606 2.449 . S
O627 C623 1.282 . S
H628 C601 0.931 1_545 S
H629 C603 0.929 . S
H630 C604 0.930 . S
H631 C605 0.931 . S
H632 C612 0.932 . S
H633 C613 0.930 . S
H634 C614 0.929 . S
H635 C616 0.930 . S
H636 C618 0.932 . S
H637 C619 0.929 . S
H638 C620 0.928 . S
H639 C622 0.932 . S
C640 C641 1.264 . S
C640 C645 1.479 . S
C640 C650 1.465 . S
C641 C640 1.264 . S
C641 C643 1.339 . S
C641 H668 0.931 . S
C642 C643 1.395 . S
C642 C644 1.320 . S
C643 C641 1.339 . S
C643 C642 1.395 . S
C643 H669 0.929 . S
C644 C642 1.320 . S
C644 C645 1.405 . S
C644 H670 0.930 . S
C645 C640 1.479 . S
C645 C644 1.405 . S
C645 H671 0.931 . S
U646 O647 2.454 . S
U646 O648 2.458 . S
U646 C649 2.984 . S
U646 C650 2.847 . S
U646 C663 2.882 . S
U646 O664 2.441 . S
U646 O665 2.420 . S
U646 O666 2.455 . S
U646 O667 2.449 . S
O647 U646 2.454 . S
O647 C649 1.353 . S
O648 U646 2.458 . S
O648 C649 1.286 . S
C649 U646 2.984 . S
C649 O647 1.353 . S
C649 O648 1.286 . S
C649 C651 1.363 . S
C650 C640 1.465 . S
C650 U646 2.847 . S
C650 O664 1.249 . S
C650 O665 1.202 . S
C651 C649 1.363 . S
C651 C653 1.408 . S
C651 C656 1.342 . S
C652 C653 1.310 . S
C652 C655 1.461 . S
C652 H672 0.932 . S
C653 C651 1.408 . S
C653 C652 1.310 . S
C653 H673 0.930 . S
C654 C655 1.474 . S
C654 C656 1.285 . S
C654 H674 0.929 . S
C655 C652 1.461 . S
C655 C654 1.474 . S
C656 C651 1.342 . S
C656 C654 1.285 . S
C656 H675 0.930 . S
C657 C660 1.424 . S
C657 C662 1.245 . S
C657 C663 1.428 . S
C658 C661 1.260 . S
C658 C662 1.477 . S
C658 H676 0.932 . S
C659 C660 1.384 . S
C659 C661 1.479 . S
C659 H677 0.929 . S
C660 C657 1.424 . S
C660 C659 1.384 . S
C660 H678 0.928 . S
C661 C658 1.260 . S
C661 C659 1.479 . S
C662 C657 1.245 . S
C662 C658 1.477 . S
C662 H679 0.932 . S
C663 U646 2.882 . S
C663 C657 1.428 . S
C663 O666 1.301 . S
C663 O667 1.282 . S
O664 U646 2.441 . S
O664 C650 1.249 . S
O665 U646 2.420 . S
O665 C650 1.202 . S
O666 U646 2.455 . S
O666 C663 1.301 . S
O667 U646 2.449 . S
O667 C663 1.282 . S
H668 C641 0.931 . S
H669 C643 0.929 . S
H670 C644 0.930 . S
H671 C645 0.931 . S
H672 C652 0.932 . S
H673 C653 0.930 . S
H674 C654 0.929 . S
H675 C656 0.930 . S
H676 C658 0.932 . S
H677 C659 0.929 . S
H678 C660 0.928 . S
H679 C662 0.932 . S
C680 C681 1.264 . S
C680 C685 1.479 . S
C680 C690 1.453 1_556 S
C681 C680 1.264 . S
C681 C683 1.339 . S
C681 H708 0.931 1_556 S
C682 C683 1.395 . S
C682 C684 1.320 . S
C683 C681 1.339 . S
C683 C682 1.395 . S
C683 H709 0.929 . S
C684 C682 1.320 . S
C684 C685 1.405 . S
C684 H710 0.930 . S
C685 C680 1.479 . S
C685 C684 1.405 . S
C685 H711 0.931 . S
U686 O687 2.454 1_554 S
U686 O688 2.458 . S
U686 C689 2.984 1_554 S
U686 C690 2.855 . S
U686 C703 2.882 . S
U686 O704 2.441 1_554 S
U686 O705 2.420 . S
U686 O706 2.455 . S
U686 O707 2.449 . S
O687 U686 2.454 1_556 S
O687 C689 1.353 . S
O688 U686 2.458 . S
O688 C689 1.286 1_554 S
C689 U686 2.984 1_556 S
C689 O687 1.353 . S
C689 O688 1.286 1_556 S
C689 C691 1.363 . S
C690 C680 1.453 1_554 S
C690 U686 2.855 . S
C690 O704 1.243 1_554 S
C690 O705 1.221 . S
C691 C689 1.363 . S
C691 C693 1.408 . S
C691 C696 1.342 . S
C692 C693 1.310 . S
C692 C695 1.461 . S
C692 H712 0.932 . S
C693 C691 1.408 . S
C693 C692 1.310 . S
C693 H713 0.930 . S
C694 C695 1.474 . S
C694 C696 1.285 . S
C694 H714 0.929 . S
C695 C692 1.461 . S
C695 C694 1.474 . S
C696 C691 1.342 . S
C696 C694 1.285 . S
C696 H715 0.930 . S
C697 C700 1.424 . S
C697 C702 1.245 . S
C697 C703 1.428 . S
C698 C701 1.260 . S
C698 C702 1.477 . S
C698 H716 0.932 . S
C699 C700 1.384 . S
C699 C701 1.479 . S
C699 H717 0.929 . S
C700 C697 1.424 . S
C700 C699 1.384 . S
C700 H718 0.928 . S
C701 C698 1.260 . S
C701 C699 1.479 . S
C702 C697 1.245 . S
C702 C698 1.477 . S
C702 H719 0.932 . S
C703 U686 2.882 . S
C703 C697 1.428 . S
C703 O706 1.301 . S
C703 O707 1.282 . S
O704 U686 2.441 1_556 S
O704 C690 1.243 1_556 S
O705 U686 2.420 . S
O705 C690 1.221 . S
O706 U686 2.455 . S
O706 C703 1.301 . S
O707 U686 2.449 . S
O707 C703 1.282 . S
H708 C681 0.931 1_554 S
H709 C683 0.929 . S
H710 C684 0.930 . S
H711 C685 0.931 . S
H712 C692 0.932 . S
H713 C693 0.930 . S
H714 C694 0.929 . S
H715 C696 0.930 . S
H716 C698 0.932 . S
H717 C699 0.929 . S
H718 C700 0.928 . S
H719 C702 0.932 . S
C720 C721 1.264 . S
C720 C725 1.479 . S
C720 C730 1.465 . S
C721 C720 1.264 . S
C721 C723 1.339 . S
C721 H748 0.931 . S
C722 C723 1.395 . S
C722 C724 1.320 . S
C723 C721 1.339 . S
C723 C722 1.395 . S
C723 H749 0.929 . S
C724 C722 1.320 . S
C724 C725 1.405 . S
C724 H750 0.930 . S
C725 C720 1.479 . S
C725 C724 1.405 . S
C725 H751 0.931 . S
U726 O727 2.454 . S
U726 O728 2.458 . S
U726 C729 2.984 . S
U726 C730 2.847 . S
U726 C743 2.882 . S
U726 O744 2.441 . S
U726 O745 2.420 . S
U726 O746 2.455 . S
U726 O747 2.449 . S
O727 U726 2.454 . S
O727 C729 1.353 . S
O728 U726 2.458 . S
O728 C729 1.286 . S
C729 U726 2.984 . S
C729 O727 1.353 . S
C729 O728 1.286 . S
C729 C731 1.363 . S
C730 C720 1.465 . S
C730 U726 2.847 . S
C730 O744 1.249 . S
C730 O745 1.202 . S
C731 C729 1.363 . S
C731 C733 1.408 . S
C731 C736 1.342 . S
C732 C733 1.310 . S
C732 C735 1.461 . S
C732 H752 0.932 . S
C733 C731 1.408 . S
C733 C732 1.310 . S
C733 H753 0.930 . S
C734 C735 1.474 . S
C734 C736 1.285 . S
C734 H754 0.929 . S
C735 C732 1.461 . S
C735 C734 1.474 . S
C736 C731 1.342 . S
C736 C734 1.285 . S
C736 H755 0.930 . S
C737 C740 1.424 . S
C737 C742 1.245 . S
C737 C743 1.428 . S
C738 C741 1.260 . S
C738 C742 1.477 . S
C738 H756 0.932 . S
C739 C740 1.384 . S
C739 C741 1.479 . S
C739 H757 0.929 . S
C740 C737 1.424 . S
C740 C739 1.384 . S
C740 H758 0.928 . S
C741 C738 1.260 . S
C741 C739 1.479 . S
C742 C737 1.245 . S
C742 C738 1.477 . S
C742 H759 0.932 . S
C743 U726 2.882 . S
C743 C737 1.428 . S
C743 O746 1.301 . S
C743 O747 1.282 . S
O744 U726 2.441 . S
O744 C730 1.249 . S
O745 U726 2.420 . S
O745 C730 1.202 . S
O746 U726 2.455 . S
O746 C743 1.301 . S
O747 U726 2.449 . S
O747 C743 1.282 . S
H748 C721 0.931 . S
H749 C723 0.929 . S
H750 C724 0.930 . S
H751 C725 0.931 . S
H752 C732 0.932 . S
H753 C733 0.930 . S
H754 C734 0.929 . S
H755 C736 0.930 . S
H756 C738 0.932 . S
H757 C739 0.929 . S
H758 C740 0.928 . S
H759 C742 0.932 . S
C760 C761 1.264 . S
C760 C765 1.479 1_556 S
C760 C770 1.465 . S
C761 C760 1.264 . S
C761 C763 1.339 . S
C761 H788 0.931 . S
C762 C763 1.395 1_554 S
C762 C764 1.320 . S
C763 C761 1.339 . S
C763 C762 1.395 1_556 S
C763 H789 0.929 . S
C764 C762 1.320 . S
C764 C765 1.405 . S
C764 H790 0.930 . S
C765 C760 1.479 1_554 S
C765 C764 1.405 . S
C765 H791 0.931 . S
U766 O767 2.454 . S
U766 O768 2.458 . S
U766 C769 2.984 . S
U766 C770 2.847 . S
U766 C783 2.882 . S
U766 O784 2.441 . S
U766 O785 2.420 . S
U766 O786 2.455 . S
U766 O787 2.449 . S
O767 U766 2.454 . S
O767 C769 1.353 . S
O768 U766 2.458 . S
O768 C769 1.286 . S
C769 U766 2.984 . S
C769 O767 1.353 . S
C769 O768 1.286 . S
C769 C771 1.359 1_556 S
C770 C760 1.465 . S
C770 U766 2.847 . S
C770 O784 1.249 . S
C770 O785 1.202 . S
C771 C769 1.359 1_554 S
C771 C773 1.422 . S
C771 C776 1.337 . S
C772 C773 1.310 . S
C772 C775 1.461 . S
C772 H792 0.932 . S
C773 C771 1.422 . S
C773 C772 1.310 . S
C773 H793 0.930 . S
C774 C775 1.474 . S
C774 C776 1.285 . S
C774 H794 0.929 . S
C775 C772 1.461 . S
C775 C774 1.474 . S
C776 C771 1.337 . S
C776 C774 1.285 . S
C776 H795 0.931 . S
C777 C780 1.424 . S
C777 C782 1.245 . S
C777 C783 1.428 . S
C778 C781 1.260 . S
C778 C782 1.477 . S
C778 H796 0.932 . S
C779 C780 1.384 . S
C779 C781 1.479 . S
C779 H797 0.929 . S
C780 C777 1.424 . S
C780 C779 1.384 . S
C780 H798 0.928 . S
C781 C778 1.260 . S
C781 C779 1.479 . S
C782 C777 1.245 . S
C782 C778 1.477 . S
C782 H799 0.932 . S
C783 U766 2.882 . S
C783 C777 1.428 . S
C783 O786 1.301 . S
C783 O787 1.282 . S
O784 U766 2.441 . S
O784 C770 1.249 . S
O785 U766 2.420 . S
O785 C770 1.202 . S
O786 U766 2.455 . S
O786 C783 1.301 . S
O787 U766 2.449 . S
O787 C783 1.282 . S
H788 C761 0.931 . S
H789 C763 0.929 . S
H790 C764 0.930 . S
H791 C765 0.931 . S
H792 C772 0.932 . S
H793 C773 0.930 . S
H794 C774 0.929 . S
H795 C776 0.931 . S
H796 C778 0.932 . S
H797 C779 0.929 . S
H798 C780 0.928 . S
H799 C782 0.932 . S
C800 C801 1.264 . S
C800 C805 1.479 . S
C800 C810 1.465 . S
C801 C800 1.264 . S
C801 C803 1.339 . S
C801 H828 0.931 . S
C802 C803 1.395 . S
C802 C804 1.320 . S
C803 C801 1.339 . S
C803 C802 1.395 . S
C803 H829 0.929 . S
C804 C802 1.320 . S
C804 C805 1.405 . S
C804 H830 0.930 . S
C805 C800 1.479 . S
C805 C804 1.405 . S
C805 H831 0.931 . S
U806 O807 2.454 . S
U806 O808 2.458 . S
U806 C809 2.984 . S
U806 C810 2.847 . S
U806 C823 2.882 . S
U806 O824 2.441 . S
U806 O825 2.420 . S
U806 O826 2.455 . S
U806 O827 2.449 . S
O807 U806 2.454 . S
O807 C809 1.353 . S
O808 U806 2.458 . S
O808 C809 1.286 . S
C809 U806 2.984 . S
C809 O807 1.353 . S
C809 O808 1.286 . S
C809 C811 1.363 . S
C810 C800 1.465 . S
C810 U806 2.847 . S
C810 O824 1.249 . S
C810 O825 1.202 . S
C811 C809 1.363 . S
C811 C813 1.408 . S
C811 C816 1.342 . S
C812 C813 1.310 . S
C812 C815 1.461 . S
C812 H832 0.932 . S
C813 C811 1.408 . S
C813 C812 1.310 . S
C813 H833 0.930 . S
C814 C815 1.474 . S
C814 C816 1.285 . S
C814 H834 0.929 . S
C815 C812 1.461 . S
C815 C814 1.474 . S
C816 C811 1.342 . S
C816 C814 1.285 . S
C816 H835 0.930 . S
C817 C820 1.424 . S
C817 C822 1.245 . S
C817 C823 1.428 . S
C818 C821 1.260 . S
C818 C822 1.477 . S
C818 H836 0.932 . S
C819 C820 1.384 . S
C819 C821 1.479 . S
C819 H837 0.929 . S
C820 C817 1.424 . S
C820 C819 1.384 . S
C820 H838 0.928 . S
C821 C818 1.260 . S
C821 C819 1.479 . S
C822 C817 1.245 . S
C822 C818 1.477 . S
C822 H839 0.932 . S
C823 U806 2.882 . S
C823 C817 1.428 . S
C823 O826 1.301 . S
C823 O827 1.282 . S
O824 U806 2.441 . S
O824 C810 1.249 . S
O825 U806 2.420 . S
O825 C810 1.202 . S
O826 U806 2.455 . S
O826 C823 1.301 . S
O827 U806 2.449 . S
O827 C823 1.282 . S
H828 C801 0.931 . S
H829 C803 0.929 . S
H830 C804 0.930 . S
H831 C805 0.931 . S
H832 C812 0.932 . S
H833 C813 0.930 . S
H834 C814 0.929 . S
H835 C816 0.930 . S
H836 C818 0.932 . S
H837 C819 0.929 . S
H838 C820 0.928 . S
H839 C822 0.932 . S
C840 C841 1.264 . S
C840 C845 1.479 . S
C840 C850 1.453 1_655 S
C841 C840 1.264 . S
C841 C843 1.339 . S
C841 H868 0.931 1_655 S
C842 C843 1.395 . S
C842 C844 1.320 . S
C843 C841 1.339 . S
C843 C842 1.395 . S
C843 H869 0.929 . S
C844 C842 1.320 . S
C844 C845 1.405 . S
C844 H870 0.930 . S
C845 C840 1.479 . S
C845 C844 1.405 . S
C845 H871 0.931 . S
U846 O847 2.454 1_455 S
U846 O848 2.458 . S
U846 C849 2.984 1_455 S
U846 C850 2.855 . S
U846 C863 2.882 . S
U846 O864 2.441 1_455 S
U846 O865 2.420 . S
U846 O866 2.455 . S
U846 O867 2.449 . S
O847 U846 2.454 1_655 S
O847 C849 1.353 . S
O848 U846 2.458 . S
O848 C849 1.286 1_455 S
C849 U846 2.984 1_655 S
C849 O847 1.353 . S
C849 O848 1.286 1_655 S
C849 C851 1.363 . S
C850 C840 1.453 1_455 S
C850 U846 2.855 . S
C850 O864 1.243 1_455 S
C850 O865 1.221 . S
C851 C849 1.363 . S
C851 C853 1.408 . S
C851 C856 1.342 . S
C852 C853 1.310 . S
C852 C855 1.461 . S
C852 H872 0.932 . S
C853 C851 1.408 . S
C853 C852 1.310 . S
C853 H873 0.930 . S
C854 C855 1.474 . S
C854 C856 1.285 . S
C854 H874 0.929 . S
C855 C852 1.461 . S
C855 C854 1.474 . S
C856 C851 1.342 . S
C856 C854 1.285 . S
C856 H875 0.930 . S
C857 C860 1.424 . S
C857 C862 1.245 . S
C857 C863 1.428 . S
C858 C861 1.260 . S
C858 C862 1.477 . S
C858 H876 0.932 . S
C859 C860 1.384 . S
C859 C861 1.479 . S
C859 H877 0.929 . S
C860 C857 1.424 . S
C860 C859 1.384 . S
C860 H878 0.928 . S
C861 C858 1.260 . S
C861 C859 1.479 . S
C862 C857 1.245 . S
C862 C858 1.477 . S
C862 H879 0.932 . S
C863 U846 2.882 . S
C863 C857 1.428 . S
C863 O866 1.301 . S
C863 O867 1.282 . S
O864 U846 2.441 1_655 S
O864 C850 1.243 1_655 S
O865 U846 2.420 . S
O865 C850 1.221 . S
O866 U846 2.455 . S
O866 C863 1.301 . S
O867 U846 2.449 . S
O867 C863 1.282 . S
H868 C841 0.931 1_455 S
H869 C843 0.929 . S
H870 C844 0.930 . S
H871 C845 0.931 . S
H872 C852 0.932 . S
H873 C853 0.930 . S
H874 C854 0.929 . S
H875 C856 0.930 . S
H876 C858 0.932 . S
H877 C859 0.929 . S
H878 C860 0.928 . S
H879 C862 0.932 . S
C880 C881 1.264 . S
C880 C885 1.479 . S
C880 C890 1.465 . S
C881 C880 1.264 . S
C881 C883 1.339 . S
C881 H908 0.931 . S
C882 C883 1.395 . S
C882 C884 1.320 . S
C883 C881 1.339 . S
C883 C882 1.395 . S
C883 H909 0.929 . S
C884 C882 1.320 . S
C884 C885 1.405 . S
C884 H910 0.930 . S
C885 C880 1.479 . S
C885 C884 1.405 . S
C885 H911 0.931 . S
U886 O887 2.454 . S
U886 O888 2.458 . S
U886 C889 2.984 . S
U886 C890 2.847 . S
U886 C903 2.882 . S
U886 O904 2.441 . S
U886 O905 2.420 . S
U886 O906 2.455 . S
U886 O907 2.449 . S
O887 U886 2.454 . S
O887 C889 1.353 . S
O888 U886 2.458 . S
O888 C889 1.286 . S
C889 U886 2.984 . S
C889 O887 1.353 . S
C889 O888 1.286 . S
C889 C891 1.363 . S
C890 C880 1.465 . S
C890 U886 2.847 . S
C890 O904 1.249 . S
C890 O905 1.202 . S
C891 C889 1.363 . S
C891 C893 1.408 . S
C891 C896 1.342 . S
C892 C893 1.310 . S
C892 C895 1.461 . S
C892 H912 0.932 . S
C893 C891 1.408 . S
C893 C892 1.310 . S
C893 H913 0.930 . S
C894 C895 1.474 . S
C894 C896 1.285 . S
C894 H914 0.929 . S
C895 C892 1.461 . S
C895 C894 1.474 . S
C896 C891 1.342 . S
C896 C894 1.285 . S
C896 H915 0.930 . S
C897 C900 1.424 . S
C897 C902 1.245 . S
C897 C903 1.428 . S
C898 C901 1.260 . S
C898 C902 1.477 . S
C898 H916 0.932 . S
C899 C900 1.384 . S
C899 C901 1.479 . S
C899 H917 0.929 . S
C900 C897 1.424 . S
C900 C899 1.384 . S
C900 H918 0.928 . S
C901 C898 1.260 . S
C901 C899 1.479 . S
C902 C897 1.245 . S
C902 C898 1.477 . S
C902 H919 0.932 . S
C903 U886 2.882 . S
C903 C897 1.428 . S
C903 O906 1.301 . S
C903 O907 1.282 . S
O904 U886 2.441 . S
O904 C890 1.249 . S
O905 U886 2.420 . S
O905 C890 1.202 . S
O906 U886 2.455 . S
O906 C903 1.301 . S
O907 U886 2.449 . S
O907 C903 1.282 . S
H908 C881 0.931 . S
H909 C883 0.929 . S
H910 C884 0.930 . S
H911 C885 0.931 . S
H912 C892 0.932 . S
H913 C893 0.930 . S
H914 C894 0.929 . S
H915 C896 0.930 . S
H916 C898 0.932 . S
H917 C899 0.929 . S
H918 C900 0.928 . S
H919 C902 0.932 . S
C920 C921 1.264 . S
C920 C925 1.479 1_655 S
C920 C930 1.465 . S
C921 C920 1.264 . S
C921 C923 1.339 . S
C921 H948 0.931 . S
C922 C923 1.395 1_455 S
C922 C924 1.320 . S
C923 C921 1.339 . S
C923 C922 1.395 1_655 S
C923 H949 0.929 . S
C924 C922 1.320 . S
C924 C925 1.405 . S
C924 H950 0.930 . S
C925 C920 1.479 1_455 S
C925 C924 1.405 . S
C925 H951 0.931 . S
U926 O927 2.454 . S
U926 O928 2.458 . S
U926 C929 2.984 . S
U926 C930 2.847 . S
U926 C943 2.882 . S
U926 O944 2.441 . S
U926 O945 2.420 . S
U926 O946 2.455 . S
U926 O947 2.449 . S
O927 U926 2.454 . S
O927 C929 1.353 . S
O928 U926 2.458 . S
O928 C929 1.286 . S
C929 U926 2.984 . S
C929 O927 1.353 . S
C929 O928 1.286 . S
C929 C931 1.359 1_655 S
C930 C920 1.465 . S
C930 U926 2.847 . S
C930 O944 1.249 . S
C930 O945 1.202 . S
C931 C929 1.359 1_455 S
C931 C933 1.422 . S
C931 C936 1.337 . S
C932 C933 1.310 . S
C932 C935 1.461 . S
C932 H952 0.932 . S
C933 C931 1.422 . S
C933 C932 1.310 . S
C933 H953 0.930 . S
C934 C935 1.474 . S
C934 C936 1.285 . S
C934 H954 0.929 . S
C935 C932 1.461 . S
C935 C934 1.474 . S
C936 C931 1.337 . S
C936 C934 1.285 . S
C936 H955 0.931 . S
C937 C940 1.424 . S
C937 C942 1.245 . S
C937 C943 1.428 . S
C938 C941 1.260 . S
C938 C942 1.477 . S
C938 H956 0.932 . S
C939 C940 1.384 . S
C939 C941 1.479 . S
C939 H957 0.929 . S
C940 C937 1.424 . S
C940 C939 1.384 . S
C940 H958 0.928 . S
C941 C938 1.260 . S
C941 C939 1.479 . S
C942 C937 1.245 . S
C942 C938 1.477 . S
C942 H959 0.932 . S
C943 U926 2.882 . S
C943 C937 1.428 . S
C943 O946 1.301 . S
C943 O947 1.282 . S
O944 U926 2.441 . S
O944 C930 1.249 . S
O945 U926 2.420 . S
O945 C930 1.202 . S
O946 U926 2.455 . S
O946 C943 1.301 . S
O947 U926 2.449 . S
O947 C943 1.282 . S
H948 C921 0.931 . S
H949 C923 0.929 . S
H950 C924 0.930 . S
H951 C925 0.931 . S
H952 C932 0.932 . S
H953 C933 0.930 . S
H954 C934 0.929 . S
H955 C936 0.931 . S
H956 C938 0.932 . S
H957 C939 0.929 . S
H958 C940 0.928 . S
H959 C942 0.932 . S
H960 C961 0.949 . S
C961 H960 0.949 . S
C961 C962 1.395 . S
C961 C963 1.391 . S
C962 C961 1.395 . S
C962 C965 1.390 . S
C963 C961 1.391 . S
C963 C967 1.387 . S
C963 C968 1.491 . S
H964 C965 0.950 . S
C965 C962 1.390 . S
C965 H964 0.950 . S
C965 C966 1.378 . S
C966 C965 1.378 . S
C966 C967 1.409 . S
C967 C963 1.387 . S
C967 C966 1.409 . S
C967 H969 0.951 . S
C968 C963 1.491 . S
C968 C970 1.382 . S
C968 C972 1.404 . S
H969 C967 0.951 . S
C970 C968 1.382 . S
C970 C971 1.390 . S
C970 H975 0.949 . S
C971 C970 1.390 . S
C971 C976 1.399 . S
C972 C968 1.404 . S
C972 H973 0.950 . S
C972 C974 1.375 . S
H973 C972 0.950 . S
C974 C972 1.375 . S
C974 C976 1.382 . S
C974 H978 0.950 . S
H975 C970 0.949 . S
C976 C971 1.399 . S
C976 C974 1.382 . S
C976 H977 0.952 . S
H977 C976 0.952 . S
H978 C974 0.950 . S
H979 C980 0.949 . S
C980 H979 0.949 . S
C980 C981 1.395 . S
C980 C982 1.391 1_556 S
C981 C980 1.395 . S
C981 C984 1.390 . S
C982 C980 1.391 1_554 S
C982 C986 1.387 . S
C982 C987 1.491 . S
H983 C984 0.950 . S
C984 C981 1.390 . S
C984 H983 0.950 . S
C984 C985 1.378 1_556 S
C985 C984 1.378 1_554 S
C985 C986 1.409 . S
C986 C982 1.387 . S
C986 C985 1.409 . S
C986 H988 0.951 . S
C987 C982 1.491 . S
C987 C989 1.382 . S
C987 C991 1.404 . S
H988 C986 0.951 . S
C989 C987 1.382 . S
C989 C990 1.390 . S
C989 H994 0.944 1_554 S
C990 C989 1.390 . S
C990 C995 1.399 . S
C991 C987 1.404 . S
C991 H992 0.950 . S
C991 C993 1.375 . S
H992 C991 0.950 . S
C993 C991 1.375 . S
C993 C995 1.382 . S
C993 H997 0.950 . S
H994 C989 0.944 1_556 S
C995 C990 1.399 . S
C995 C993 1.382 . S
C995 H996 0.952 . S
H996 C995 0.952 . S
H997 C993 0.950 . S
H998 C999 0.949 . S
C999 H998 0.949 . S
C999 C1000 1.395 . S
C999 C1001 1.391 . S
C1000 C999 1.395 . S
C1000 C1003 1.390 . S
C1001 C999 1.391 . S
C1001 C1005 1.387 . S
C1001 C1006 1.491 . S
H1002 C1003 0.950 . S
C1003 C1000 1.390 . S
C1003 H1002 0.950 . S
C1003 C1004 1.378 . S
C1004 C1003 1.378 . S
C1004 C1005 1.409 . S
C1005 C1001 1.387 . S
C1005 C1004 1.409 . S
C1005 H1007 0.951 . S
C1006 C1001 1.491 . S
C1006 C1008 1.382 . S
C1006 C1010 1.404 . S
H1007 C1005 0.951 . S
C1008 C1006 1.382 . S
C1008 C1009 1.390 . S
C1008 H1013 0.949 . S
C1009 C1008 1.390 . S
C1009 C1014 1.399 . S
C1010 C1006 1.404 . S
C1010 H1011 0.950 . S
C1010 C1012 1.375 . S
H1011 C1010 0.950 . S
C1012 C1010 1.375 . S
C1012 C1014 1.382 . S
C1012 H1016 0.950 . S
H1013 C1008 0.949 . S
C1014 C1009 1.399 . S
C1014 C1012 1.382 . S
C1014 H1015 0.952 . S
H1015 C1014 0.952 . S
H1016 C1012 0.950 . S
H1017 C1018 0.949 . S
C1018 H1017 0.949 . S
C1018 C1019 1.395 . S
C1018 C1020 1.391 1_554 S
C1019 C1018 1.395 . S
C1019 C1022 1.390 . S
C1020 C1018 1.391 1_556 S
C1020 C1024 1.387 . S
C1020 C1025 1.491 . S
H1021 C1022 0.950 . S
C1022 C1019 1.390 . S
C1022 H1021 0.950 . S
C1022 C1023 1.378 1_554 S
C1023 C1022 1.378 1_556 S
C1023 C1024 1.409 . S
C1024 C1020 1.387 . S
C1024 C1023 1.409 . S
C1024 H1026 0.951 . S
C1025 C1020 1.491 . S
C1025 C1027 1.382 . S
C1025 C1029 1.404 . S
H1026 C1024 0.951 . S
C1027 C1025 1.382 . S
C1027 C1028 1.390 . S
C1027 H1032 0.949 1_556 S
C1028 C1027 1.390 . S
C1028 C1033 1.399 . S
C1029 C1025 1.404 . S
C1029 H1030 0.950 . S
C1029 C1031 1.375 . S
H1030 C1029 0.950 . S
C1031 C1029 1.375 . S
C1031 C1033 1.382 . S
C1031 H1035 0.950 . S
H1032 C1027 0.949 1_554 S
C1033 C1028 1.399 . S
C1033 C1031 1.382 . S
C1033 H1034 0.952 . S
H1034 C1033 0.952 . S
H1035 C1031 0.950 . S
H1036 C1037 0.949 . S
C1037 H1036 0.949 . S
C1037 C1038 1.395 . S
C1037 C1039 1.391 . S
C1038 C1037 1.395 . S
C1038 C1041 1.390 . S
C1039 C1037 1.391 . S
C1039 C1043 1.387 . S
C1039 C1044 1.491 . S
H1040 C1041 0.950 . S
C1041 C1038 1.390 . S
C1041 H1040 0.950 . S
C1041 C1042 1.378 . S
C1042 C1041 1.378 . S
C1042 C1043 1.409 . S
C1043 C1039 1.387 . S
C1043 C1042 1.409 . S
C1043 H1045 0.951 . S
C1044 C1039 1.491 . S
C1044 C1046 1.382 . S
C1044 C1048 1.404 . S
H1045 C1043 0.951 . S
C1046 C1044 1.382 . S
C1046 C1047 1.390 . S
C1046 H1051 0.949 . S
C1047 C1046 1.390 . S
C1047 C1052 1.399 . S
C1048 C1044 1.404 . S
C1048 H1049 0.950 . S
C1048 C1050 1.375 . S
H1049 C1048 0.950 . S
C1050 C1048 1.375 . S
C1050 C1052 1.382 . S
C1050 H1054 0.950 . S
H1051 C1046 0.949 . S
C1052 C1047 1.399 . S
C1052 C1050 1.382 . S
C1052 H1053 0.952 . S
H1053 C1052 0.952 . S
H1054 C1050 0.950 . S
H1055 C1056 0.949 . S
C1056 H1055 0.949 . S
C1056 C1057 1.395 . S
C1056 C1058 1.391 1_455 S
C1057 C1056 1.395 . S
C1057 C1060 1.390 . S
C1058 C1056 1.391 1_655 S
C1058 C1062 1.387 . S
C1058 C1063 1.491 . S
H1059 C1060 0.950 . S
C1060 C1057 1.390 . S
C1060 H1059 0.950 . S
C1060 C1061 1.378 1_455 S
C1061 C1060 1.378 1_655 S
C1061 C1062 1.409 . S
C1062 C1058 1.387 . S
C1062 C1061 1.409 . S
C1062 H1064 0.951 . S
C1063 C1058 1.491 . S
C1063 C1065 1.382 . S
C1063 C1067 1.404 . S
H1064 C1062 0.951 . S
C1065 C1063 1.382 . S
C1065 C1066 1.390 . S
C1065 H1070 0.949 1_655 S
C1066 C1065 1.390 . S
C1066 C1071 1.399 . S
C1067 C1063 1.404 . S
C1067 H1068 0.950 . S
C1067 C1069 1.375 . S
H1068 C1067 0.950 . S
C1069 C1067 1.375 . S
C1069 C1071 1.382 . S
C1069 H1073 0.950 . S
H1070 C1065 0.949 1_455 S
C1071 C1066 1.399 . S
C1071 C1069 1.382 . S
C1071 H1072 0.952 . S
H1072 C1071 0.952 . S
H1073 C1069 0.950 . S
H1074 C1075 0.949 . S
C1075 H1074 0.949 . S
C1075 C1076 1.395 . S
C1075 C1077 1.391 1_655 S
C1076 C1075 1.395 . S
C1076 C1079 1.390 . S
C1077 C1075 1.391 1_455 S
C1077 C1081 1.387 . S
C1077 C1082 1.491 . S
H1078 C1079 0.950 . S
C1079 C1076 1.390 . S
C1079 H1078 0.950 . S
C1079 C1080 1.378 1_655 S
C1080 C1079 1.378 1_455 S
C1080 C1081 1.409 . S
C1081 C1077 1.387 . S
C1081 C1080 1.409 . S
C1081 H1083 0.951 . S
C1082 C1077 1.491 . S
C1082 C1084 1.382 . S
C1082 C1086 1.404 . S
H1083 C1081 0.951 . S
C1084 C1082 1.382 . S
C1084 C1085 1.390 . S
C1084 H1089 0.944 1_455 S
C1085 C1084 1.390 . S
C1085 C1090 1.399 . S
C1086 C1082 1.404 . S
C1086 H1087 0.950 . S
C1086 C1088 1.375 . S
H1087 C1086 0.950 . S
C1088 C1086 1.375 . S
C1088 C1090 1.382 . S
C1088 H1092 0.950 . S
H1089 C1084 0.944 1_655 S
C1090 C1085 1.399 . S
C1090 C1088 1.382 . S
C1090 H1091 0.952 . S
H1091 C1090 0.952 . S
H1092 C1088 0.950 . S
H1093 C1094 0.949 . S
C1094 H1093 0.949 . S
C1094 C1095 1.395 . S
C1094 C1096 1.391 . S
C1095 C1094 1.395 . S
C1095 C1098 1.390 . S
C1096 C1094 1.391 . S
C1096 C1100 1.387 . S
C1096 C1101 1.491 . S
H1097 C1098 0.950 . S
C1098 C1095 1.390 . S
C1098 H1097 0.950 . S
C1098 C1099 1.378 . S
C1099 C1098 1.378 . S
C1099 C1100 1.409 . S
C1100 C1096 1.387 . S
C1100 C1099 1.409 . S
C1100 H1102 0.951 . S
C1101 C1096 1.491 . S
C1101 C1103 1.382 . S
C1101 C1105 1.404 . S
H1102 C1100 0.951 . S
C1103 C1101 1.382 . S
C1103 C1104 1.390 . S
C1103 H1108 0.949 . S
C1104 C1103 1.390 . S
C1104 C1109 1.399 . S
C1105 C1101 1.404 . S
C1105 H1106 0.950 . S
C1105 C1107 1.375 . S
H1106 C1105 0.950 . S
C1107 C1105 1.375 . S
C1107 C1109 1.382 . S
C1107 H1111 0.950 . S
H1108 C1103 0.949 . S
C1109 C1104 1.399 . S
C1109 C1107 1.382 . S
C1109 H1110 0.952 . S
H1110 C1109 0.952 . S
H1111 C1107 0.950 . S
H1112 C1113 0.949 . S
C1113 H1112 0.949 . S
C1113 C1114 1.395 . S
C1113 C1115 1.391 . S
C1114 C1113 1.395 . S
C1114 C1117 1.390 . S
C1115 C1113 1.391 . S
C1115 C1119 1.387 . S
C1115 C1120 1.491 . S
H1116 C1117 0.950 . S
C1117 C1114 1.390 . S
C1117 H1116 0.950 . S
C1117 C1118 1.378 . S
C1118 C1117 1.378 . S
C1118 C1119 1.409 . S
C1119 C1115 1.387 . S
C1119 C1118 1.409 . S
C1119 H1121 0.951 . S
C1120 C1115 1.491 . S
C1120 C1122 1.382 . S
C1120 C1124 1.404 . S
H1121 C1119 0.951 . S
C1122 C1120 1.382 . S
C1122 C1123 1.390 . S
C1122 H1127 0.949 . S
C1123 C1122 1.390 . S
C1123 C1128 1.399 . S
C1124 C1120 1.404 . S
C1124 H1125 0.950 . S
C1124 C1126 1.375 . S
H1125 C1124 0.950 . S
C1126 C1124 1.375 . S
C1126 C1128 1.382 . S
C1126 H1130 0.950 . S
H1127 C1122 0.949 . S
C1128 C1123 1.399 . S
C1128 C1126 1.382 . S
C1128 H1129 0.952 . S
H1129 C1128 0.952 . S
H1130 C1126 0.950 . S
H1131 C1132 0.949 . S
C1132 H1131 0.949 . S
C1132 C1133 1.395 . S
C1132 C1134 1.391 1_545 S
C1133 C1132 1.395 . S
C1133 C1136 1.390 . S
C1134 C1132 1.391 1_565 S
C1134 C1138 1.387 . S
C1134 C1139 1.491 . S
H1135 C1136 0.950 . S
C1136 C1133 1.390 . S
C1136 H1135 0.950 . S
C1136 C1137 1.378 1_545 S
C1137 C1136 1.378 1_565 S
C1137 C1138 1.409 . S
C1138 C1134 1.387 . S
C1138 C1137 1.409 . S
C1138 H1140 0.951 . S
C1139 C1134 1.491 . S
C1139 C1141 1.382 . S
C1139 C1143 1.404 . S
H1140 C1138 0.951 . S
C1141 C1139 1.382 . S
C1141 C1142 1.390 . S
C1141 H1146 0.949 1_565 S
C1142 C1141 1.390 . S
C1142 C1147 1.399 . S
C1143 C1139 1.404 . S
C1143 H1144 0.950 . S
C1143 C1145 1.375 . S
H1144 C1143 0.950 . S
C1145 C1143 1.375 . S
C1145 C1147 1.382 . S
C1145 H1149 0.950 . S
H1146 C1141 0.949 1_545 S
C1147 C1142 1.399 . S
C1147 C1145 1.382 . S
C1147 H1148 0.952 . S
H1148 C1147 0.952 . S
H1149 C1145 0.950 . S
H1150 C1151 0.949 . S
C1151 H1150 0.949 . S
C1151 C1152 1.395 . S
C1151 C1153 1.391 1_565 S
C1152 C1151 1.395 . S
C1152 C1155 1.390 . S
C1153 C1151 1.391 1_545 S
C1153 C1157 1.387 . S
C1153 C1158 1.491 . S
H1154 C1155 0.950 . S
C1155 C1152 1.390 . S
C1155 H1154 0.950 . S
C1155 C1156 1.378 1_565 S
C1156 C1155 1.378 1_545 S
C1156 C1157 1.409 . S
C1157 C1153 1.387 . S
C1157 C1156 1.409 . S
C1157 H1159 0.951 . S
C1158 C1153 1.491 . S
C1158 C1160 1.382 . S
C1158 C1162 1.404 . S
H1159 C1157 0.951 . S
C1160 C1158 1.382 . S
C1160 C1161 1.390 . S
C1160 H1165 0.944 1_545 S
C1161 C1160 1.390 . S
C1161 C1166 1.399 . S
C1162 C1158 1.404 . S
C1162 H1163 0.950 . S
C1162 C1164 1.375 . S
H1163 C1162 0.950 . S
C1164 C1162 1.375 . S
C1164 C1166 1.382 . S
C1164 H1168 0.950 . S
H1165 C1160 0.944 1_565 S
C1166 C1161 1.399 . S
C1166 C1164 1.382 . S
C1166 H1167 0.952 . S
H1167 C1166 0.952 . S
H1168 C1164 0.950 . S
H1169 C1170 0.949 . S
C1170 H1169 0.949 . S
C1170 C1171 1.395 . S
C1170 C1172 1.391 . S
C1171 C1170 1.395 . S
C1171 C1174 1.390 . S
C1172 C1170 1.391 . S
C1172 C1176 1.387 . S
C1172 C1177 1.491 . S
H1173 C1174 0.950 . S
C1174 C1171 1.390 . S
C1174 H1173 0.950 . S
C1174 C1175 1.378 . S
C1175 C1174 1.378 . S
C1175 C1176 1.409 . S
C1176 C1172 1.387 . S
C1176 C1175 1.409 . S
C1176 H1178 0.951 . S
C1177 C1172 1.491 . S
C1177 C1179 1.382 . S
C1177 C1181 1.404 . S
H1178 C1176 0.951 . S
C1179 C1177 1.382 . S
C1179 C1180 1.390 . S
C1179 H1184 0.949 . S
C1180 C1179 1.390 . S
C1180 C1185 1.399 . S
C1181 C1177 1.404 . S
C1181 H1182 0.950 . S
C1181 C1183 1.375 . S
H1182 C1181 0.950 . S
C1183 C1181 1.375 . S
C1183 C1185 1.382 . S
C1183 H1187 0.950 . S
H1184 C1179 0.949 . S
C1185 C1180 1.399 . S
C1185 C1183 1.382 . S
C1185 H1186 0.952 . S
H1186 C1185 0.952 . S
H1187 C1183 0.950 . S
H1188 C1189 0.949 . S
C1189 H1188 0.949 . S
C1189 C1190 1.395 . S
C1189 C1191 1.391 . S
C1190 C1189 1.395 . S
C1190 C1193 1.390 . S
C1191 C1189 1.391 . S
C1191 C1195 1.387 . S
C1191 C1196 1.491 . S
H1192 C1193 0.950 . S
C1193 C1190 1.390 . S
C1193 H1192 0.950 . S
C1193 C1194 1.378 . S
C1194 C1193 1.378 . S
C1194 C1195 1.409 . S
C1195 C1191 1.387 . S
C1195 C1194 1.409 . S
C1195 H1197 0.951 . S
C1196 C1191 1.491 . S
C1196 C1198 1.382 . S
C1196 C1200 1.404 . S
H1197 C1195 0.951 . S
C1198 C1196 1.382 . S
C1198 C1199 1.390 . S
C1198 H1203 0.949 . S
C1199 C1198 1.390 . S
C1199 C1204 1.399 . S
C1200 C1196 1.404 . S
C1200 H1201 0.950 . S
C1200 C1202 1.375 . S
H1201 C1200 0.950 . S
C1202 C1200 1.375 . S
C1202 C1204 1.382 . S
C1202 H1206 0.950 . S
H1203 C1198 0.949 . S
C1204 C1199 1.399 . S
C1204 C1202 1.382 . S
C1204 H1205 0.952 . S
H1205 C1204 0.952 . S
H1206 C1202 0.950 . S
H1207 C1208 0.949 . S
C1208 H1207 0.949 . S
C1208 C1209 1.395 . S
C1208 C1210 1.391 1_554 S
C1209 C1208 1.395 . S
C1209 C1212 1.390 . S
C1210 C1208 1.391 1_556 S
C1210 C1214 1.387 . S
C1210 C1215 1.491 . S
H1211 C1212 0.950 . S
C1212 C1209 1.390 . S
C1212 H1211 0.950 . S
C1212 C1213 1.378 1_554 S
C1213 C1212 1.378 1_556 S
C1213 C1214 1.409 . S
C1214 C1210 1.387 . S
C1214 C1213 1.409 . S
C1214 H1216 0.951 . S
C1215 C1210 1.491 . S
C1215 C1217 1.382 . S
C1215 C1219 1.404 . S
H1216 C1214 0.951 . S
C1217 C1215 1.382 . S
C1217 C1218 1.390 . S
C1217 H1222 0.949 1_556 S
C1218 C1217 1.390 . S
C1218 C1223 1.399 . S
C1219 C1215 1.404 . S
C1219 H1220 0.950 . S
C1219 C1221 1.375 . S
H1220 C1219 0.950 . S
C1221 C1219 1.375 . S
C1221 C1223 1.382 . S
C1221 H1225 0.950 . S
H1222 C1217 0.949 1_554 S
C1223 C1218 1.399 . S
C1223 C1221 1.382 . S
C1223 H1224 0.952 . S
H1224 C1223 0.952 . S
H1225 C1221 0.950 . S
H1226 C1227 0.949 . S
C1227 H1226 0.949 . S
C1227 C1228 1.395 . S
C1227 C1229 1.391 . S
C1228 C1227 1.395 . S
C1228 C1231 1.390 . S
C1229 C1227 1.391 . S
C1229 C1233 1.387 . S
C1229 C1234 1.491 . S
H1230 C1231 0.950 . S
C1231 C1228 1.390 . S
C1231 H1230 0.950 . S
C1231 C1232 1.378 . S
C1232 C1231 1.378 . S
C1232 C1233 1.409 . S
C1233 C1229 1.387 . S
C1233 C1232 1.409 . S
C1233 H1235 0.951 . S
C1234 C1229 1.491 . S
C1234 C1236 1.382 . S
C1234 C1238 1.404 . S
H1235 C1233 0.951 . S
C1236 C1234 1.382 . S
C1236 C1237 1.390 . S
C1236 H1241 0.949 . S
C1237 C1236 1.390 . S
C1237 C1242 1.399 . S
C1238 C1234 1.404 . S
C1238 H1239 0.950 . S
C1238 C1240 1.375 . S
H1239 C1238 0.950 . S
C1240 C1238 1.375 . S
C1240 C1242 1.382 . S
C1240 H1244 0.950 . S
H1241 C1236 0.949 . S
C1242 C1237 1.399 . S
C1242 C1240 1.382 . S
C1242 H1243 0.952 . S
H1243 C1242 0.952 . S
H1244 C1240 0.950 . S
H1245 C1246 0.949 . S
C1246 H1245 0.949 . S
C1246 C1247 1.395 . S
C1246 C1248 1.391 1_556 S
C1247 C1246 1.395 . S
C1247 C1250 1.390 . S
C1248 C1246 1.391 1_554 S
C1248 C1252 1.387 . S
C1248 C1253 1.491 . S
H1249 C1250 0.950 . S
C1250 C1247 1.390 . S
C1250 H1249 0.950 . S
C1250 C1251 1.378 1_556 S
C1251 C1250 1.378 1_554 S
C1251 C1252 1.409 . S
C1252 C1248 1.387 . S
C1252 C1251 1.409 . S
C1252 H1254 0.951 . S
C1253 C1248 1.491 . S
C1253 C1255 1.382 . S
C1253 C1257 1.404 . S
H1254 C1252 0.951 . S
C1255 C1253 1.382 . S
C1255 C1256 1.390 . S
C1255 H1260 0.949 . S
C1256 C1255 1.390 . S
C1256 C1261 1.399 . S
C1257 C1253 1.404 . S
C1257 H1258 0.950 . S
C1257 C1259 1.375 . S
H1258 C1257 0.950 . S
C1259 C1257 1.375 . S
C1259 C1261 1.382 . S
C1259 H1263 0.950 . S
H1260 C1255 0.949 . S
C1261 C1256 1.399 . S
C1261 C1259 1.382 . S
C1261 H1262 0.952 . S
H1262 C1261 0.952 . S
H1263 C1259 0.950 . S
H1264 C1265 0.949 . S
C1265 H1264 0.949 . S
C1265 C1266 1.395 . S
C1265 C1267 1.391 . S
C1266 C1265 1.395 . S
C1266 C1269 1.390 . S
C1267 C1265 1.391 . S
C1267 C1271 1.387 . S
C1267 C1272 1.491 . S
H1268 C1269 0.950 . S
C1269 C1266 1.390 . S
C1269 H1268 0.950 . S
C1269 C1270 1.378 . S
C1270 C1269 1.378 . S
C1270 C1271 1.409 . S
C1271 C1267 1.387 . S
C1271 C1270 1.409 . S
C1271 H1273 0.951 . S
C1272 C1267 1.491 . S
C1272 C1274 1.382 . S
C1272 C1276 1.404 . S
H1273 C1271 0.951 . S
C1274 C1272 1.382 . S
C1274 C1275 1.390 . S
C1274 H1279 0.949 . S
C1275 C1274 1.390 . S
C1275 C1280 1.399 . S
C1276 C1272 1.404 . S
C1276 H1277 0.950 . S
C1276 C1278 1.375 . S
H1277 C1276 0.950 . S
C1278 C1276 1.375 . S
C1278 C1280 1.382 . S
C1278 H1282 0.950 . S
H1279 C1274 0.949 . S
C1280 C1275 1.399 . S
C1280 C1278 1.382 . S
C1280 H1281 0.952 . S
H1281 C1280 0.952 . S
H1282 C1278 0.950 . S
H1283 C1284 0.949 . S
C1284 H1283 0.949 . S
C1284 C1285 1.395 . S
C1284 C1286 1.391 1_655 S
C1285 C1284 1.395 . S
C1285 C1288 1.390 . S
C1286 C1284 1.391 1_455 S
C1286 C1290 1.387 . S
C1286 C1291 1.491 . S
H1287 C1288 0.950 . S
C1288 C1285 1.390 . S
C1288 H1287 0.950 . S
C1288 C1289 1.378 1_655 S
C1289 C1288 1.378 1_455 S
C1289 C1290 1.409 . S
C1290 C1286 1.387 . S
C1290 C1289 1.409 . S
C1290 H1292 0.951 . S
C1291 C1286 1.491 . S
C1291 C1293 1.382 . S
C1291 C1295 1.404 . S
H1292 C1290 0.951 . S
C1293 C1291 1.382 . S
C1293 C1294 1.390 . S
C1293 H1298 0.949 . S
C1294 C1293 1.390 . S
C1294 C1299 1.399 . S
C1295 C1291 1.404 . S
C1295 H1296 0.950 . S
C1295 C1297 1.375 . S
H1296 C1295 0.950 . S
C1297 C1295 1.375 . S
C1297 C1299 1.382 . S
C1297 H1301 0.950 . S
H1298 C1293 0.949 . S
C1299 C1294 1.399 . S
C1299 C1297 1.382 . S
C1299 H1300 0.952 . S
H1300 C1299 0.952 . S
H1301 C1297 0.950 . S
H1302 C1303 0.949 . S
C1303 H1302 0.949 . S
C1303 C1304 1.395 . S
C1303 C1305 1.391 1_455 S
C1304 C1303 1.395 . S
C1304 C1307 1.390 . S
C1305 C1303 1.391 1_655 S
C1305 C1309 1.387 . S
C1305 C1310 1.491 . S
H1306 C1307 0.950 . S
C1307 C1304 1.390 . S
C1307 H1306 0.950 . S
C1307 C1308 1.378 1_455 S
C1308 C1307 1.378 1_655 S
C1308 C1309 1.409 . S
C1309 C1305 1.387 . S
C1309 C1308 1.409 . S
C1309 H1311 0.951 . S
C1310 C1305 1.491 . S
C1310 C1312 1.382 . S
C1310 C1314 1.404 . S
H1311 C1309 0.951 . S
C1312 C1310 1.382 . S
C1312 C1313 1.390 . S
C1312 H1317 0.949 1_655 S
C1313 C1312 1.390 . S
C1313 C1318 1.399 . S
C1314 C1310 1.404 . S
C1314 H1315 0.950 . S
C1314 C1316 1.375 . S
H1315 C1314 0.950 . S
C1316 C1314 1.375 . S
C1316 C1318 1.382 . S
C1316 H1320 0.950 . S
H1317 C1312 0.949 1_455 S
C1318 C1313 1.399 . S
C1318 C1316 1.382 . S
C1318 H1319 0.952 . S
H1319 C1318 0.952 . S
H1320 C1316 0.950 . S
H1321 C1322 0.949 . S
C1322 H1321 0.949 . S
C1322 C1323 1.395 . S
C1322 C1324 1.391 . S
C1323 C1322 1.395 . S
C1323 C1326 1.390 . S
C1324 C1322 1.391 . S
C1324 C1328 1.387 . S
C1324 C1329 1.491 . S
H1325 C1326 0.950 . S
C1326 C1323 1.390 . S
C1326 H1325 0.950 . S
C1326 C1327 1.378 . S
C1327 C1326 1.378 . S
C1327 C1328 1.409 . S
C1328 C1324 1.387 . S
C1328 C1327 1.409 . S
C1328 H1330 0.951 . S
C1329 C1324 1.491 . S
C1329 C1331 1.382 . S
C1329 C1333 1.404 . S
H1330 C1328 0.951 . S
C1331 C1329 1.382 . S
C1331 C1332 1.390 . S
C1331 H1336 0.949 . S
C1332 C1331 1.390 . S
C1332 C1337 1.399 . S
C1333 C1329 1.404 . S
C1333 H1334 0.950 . S
C1333 C1335 1.375 . S
H1334 C1333 0.950 . S
C1335 C1333 1.375 . S
C1335 C1337 1.382 . S
C1335 H1339 0.950 . S
H1336 C1331 0.949 . S
C1337 C1332 1.399 . S
C1337 C1335 1.382 . S
C1337 H1338 0.952 . S
H1338 C1337 0.952 . S
H1339 C1335 0.950 . S
H1340 C1341 0.949 . S
C1341 H1340 0.949 . S
C1341 C1342 1.395 . S
C1341 C1343 1.391 . S
C1342 C1341 1.395 . S
C1342 C1345 1.390 . S
C1343 C1341 1.391 . S
C1343 C1347 1.387 . S
C1343 C1348 1.491 . S
H1344 C1345 0.950 . S
C1345 C1342 1.390 . S
C1345 H1344 0.950 . S
C1345 C1346 1.378 . S
C1346 C1345 1.378 . S
C1346 C1347 1.409 . S
C1347 C1343 1.387 . S
C1347 C1346 1.409 . S
C1347 H1349 0.951 . S
C1348 C1343 1.491 . S
C1348 C1350 1.382 . S
C1348 C1352 1.404 . S
H1349 C1347 0.951 . S
C1350 C1348 1.382 . S
C1350 C1351 1.390 . S
C1350 H1355 0.949 . S
C1351 C1350 1.390 . S
C1351 C1356 1.399 . S
C1352 C1348 1.404 . S
C1352 H1353 0.950 . S
C1352 C1354 1.375 . S
H1353 C1352 0.950 . S
C1354 C1352 1.375 . S
C1354 C1356 1.382 . S
C1354 H1358 0.950 . S
H1355 C1350 0.949 . S
C1356 C1351 1.399 . S
C1356 C1354 1.382 . S
C1356 H1357 0.952 . S
H1357 C1356 0.952 . S
H1358 C1354 0.950 . S
H1359 C1360 0.949 . S
C1360 H1359 0.949 . S
C1360 C1361 1.395 . S
C1360 C1362 1.391 1_565 S
C1361 C1360 1.395 . S
C1361 C1364 1.390 . S
C1362 C1360 1.391 1_545 S
C1362 C1366 1.387 . S
C1362 C1367 1.491 . S
H1363 C1364 0.950 . S
C1364 C1361 1.390 . S
C1364 H1363 0.950 . S
C1364 C1365 1.378 1_565 S
C1365 C1364 1.378 1_545 S
C1365 C1366 1.409 . S
C1366 C1362 1.387 . S
C1366 C1365 1.409 . S
C1366 H1368 0.951 . S
C1367 C1362 1.491 . S
C1367 C1369 1.382 . S
C1367 C1371 1.404 . S
H1368 C1366 0.951 . S
C1369 C1367 1.382 . S
C1369 C1370 1.390 . S
C1369 H1374 0.949 . S
C1370 C1369 1.390 . S
C1370 C1375 1.399 . S
C1371 C1367 1.404 . S
C1371 H1372 0.950 . S
C1371 C1373 1.375 . S
H1372 C1371 0.950 . S
C1373 C1371 1.375 . S
C1373 C1375 1.382 . S
C1373 H1377 0.950 . S
H1374 C1369 0.949 . S
C1375 C1370 1.399 . S
C1375 C1373 1.382 . S
C1375 H1376 0.952 . S
H1376 C1375 0.952 . S
H1377 C1373 0.950 . S
H1378 C1379 0.949 . S
C1379 H1378 0.949 . S
C1379 C1380 1.395 . S
C1379 C1381 1.391 1_545 S
C1380 C1379 1.395 . S
C1380 C1383 1.390 . S
C1381 C1379 1.391 1_565 S
C1381 C1385 1.387 . S
C1381 C1386 1.491 . S
H1382 C1383 0.950 . S
C1383 C1380 1.390 . S
C1383 H1382 0.950 . S
C1383 C1384 1.378 1_545 S
C1384 C1383 1.378 1_565 S
C1384 C1385 1.409 . S
C1385 C1381 1.387 . S
C1385 C1384 1.409 . S
C1385 H1387 0.951 . S
C1386 C1381 1.491 . S
C1386 C1388 1.382 . S
C1386 C1390 1.404 . S
H1387 C1385 0.951 . S
C1388 C1386 1.382 . S
C1388 C1389 1.390 . S
C1388 H1393 0.949 1_565 S
C1389 C1388 1.390 . S
C1389 C1394 1.399 . S
C1390 C1386 1.404 . S
C1390 H1391 0.950 . S
C1390 C1392 1.375 . S
H1391 C1390 0.950 . S
C1392 C1390 1.375 . S
C1392 C1394 1.382 . S
C1392 H1396 0.950 . S
H1393 C1388 0.949 1_545 S
C1394 C1389 1.399 . S
C1394 C1392 1.382 . S
C1394 H1395 0.952 . S
H1395 C1394 0.952 . S
H1396 C1392 0.950 . S
H1397 C1398 0.949 . S
C1398 H1397 0.949 . S
C1398 C1399 1.395 . S
C1398 C1400 1.391 . S
C1399 C1398 1.395 . S
C1399 C1402 1.390 . S
C1400 C1398 1.391 . S
C1400 C1404 1.387 . S
C1400 C1405 1.491 . S
H1401 C1402 0.950 . S
C1402 C1399 1.390 . S
C1402 H1401 0.950 . S
C1402 C1403 1.378 . S
C1403 C1402 1.378 . S
C1403 C1404 1.409 . S
C1404 C1400 1.387 . S
C1404 C1403 1.409 . S
C1404 H1406 0.951 . S
C1405 C1400 1.491 . S
C1405 C1407 1.382 . S
C1405 C1409 1.404 . S
H1406 C1404 0.951 . S
C1407 C1405 1.382 . S
C1407 C1408 1.390 . S
C1407 H1412 0.949 . S
C1408 C1407 1.390 . S
C1408 C1413 1.399 . S
C1409 C1405 1.404 . S
C1409 H1410 0.950 . S
C1409 C1411 1.375 . S
H1410 C1409 0.950 . S
C1411 C1409 1.375 . S
C1411 C1413 1.382 . S
C1411 H1415 0.950 . S
H1412 C1407 0.949 . S
C1413 C1408 1.399 . S
C1413 C1411 1.382 . S
C1413 H1414 0.952 . S
H1414 C1413 0.952 . S
H1415 C1411 0.950 . S
H1416 C1424 0.950 . S
H1417 C1429 0.950 . S
H1418 C1426 0.950 . S
H1419 C1428 0.950 . S
H1420 C1430 0.955 . S
H1421 C1432 0.950 . S
H1422 C1434 0.950 . S
H1423 C1435 0.950 . S
C1424 H1416 0.950 . S
C1424 C1425 1.386 . S
C1424 C1426 1.391 . S
C1425 C1424 1.386 . S
C1425 C1429 1.393 . S
C1426 H1418 0.950 . S
C1426 C1424 1.391 . S
C1426 C1427 1.400 . S
C1427 C1426 1.400 . S
C1427 C1428 1.398 . S
C1427 C1433 1.491 . S
C1428 H1419 0.950 . S
C1428 C1427 1.398 . S
C1428 C1429 1.391 . S
C1429 H1417 0.950 . S
C1429 C1425 1.393 . S
C1429 C1428 1.391 . S
C1430 H1420 0.955 . S
C1430 C1431 1.386 . S
C1430 C1432 1.391 . S
C1431 C1430 1.386 . S
C1431 C1435 1.393 . S
C1432 H1421 0.950 . S
C1432 C1430 1.391 . S
C1432 C1433 1.400 . S
C1433 C1427 1.491 . S
C1433 C1432 1.400 . S
C1433 C1434 1.398 . S
C1434 H1422 0.950 . S
C1434 C1433 1.398 . S
C1434 C1435 1.391 . S
C1435 H1423 0.950 . S
C1435 C1431 1.393 . S
C1435 C1434 1.391 . S
H1436 C1444 0.950 . S
H1437 C1449 0.950 . S
H1438 C1446 0.950 . S
H1439 C1448 0.950 . S
H1440 C1450 0.950 . S
H1441 C1452 0.950 . S
H1442 C1454 0.950 . S
H1443 C1455 0.950 . S
C1444 H1436 0.950 . S
C1444 C1445 1.386 . S
C1444 C1446 1.391 . S
C1445 C1444 1.386 . S
C1445 C1449 1.393 . S
C1446 H1438 0.950 . S
C1446 C1444 1.391 . S
C1446 C1447 1.400 . S
C1447 C1446 1.400 . S
C1447 C1448 1.398 . S
C1447 C1453 1.491 . S
C1448 H1439 0.950 . S
C1448 C1447 1.398 . S
C1448 C1449 1.391 . S
C1449 H1437 0.950 . S
C1449 C1445 1.393 . S
C1449 C1448 1.391 . S
C1450 H1440 0.950 . S
C1450 C1451 1.386 . S
C1450 C1452 1.391 . S
C1451 C1450 1.386 . S
C1451 C1455 1.393 . S
C1452 H1441 0.950 . S
C1452 C1450 1.391 . S
C1452 C1453 1.400 . S
C1453 C1447 1.491 . S
C1453 C1452 1.400 . S
C1453 C1454 1.398 . S
C1454 H1442 0.950 . S
C1454 C1453 1.398 . S
C1454 C1455 1.391 . S
C1455 H1443 0.950 . S
C1455 C1451 1.393 . S
C1455 C1454 1.391 . S
H1456 C1464 0.960 . S
H1457 C1469 0.950 . S
H1458 C1466 0.950 . S
H1459 C1468 0.950 . S
H1460 C1470 0.950 . S
H1461 C1472 0.950 . S
H1462 C1474 0.950 . S
H1463 C1475 0.950 . S
C1464 H1456 0.960 . S
C1464 C1465 1.386 . S
C1464 C1466 1.391 . S
C1465 C1464 1.386 . S
C1465 C1469 1.393 . S
C1466 H1458 0.950 . S
C1466 C1464 1.391 . S
C1466 C1467 1.400 . S
C1467 C1466 1.400 . S
C1467 C1468 1.398 . S
C1467 C1473 1.491 . S
C1468 H1459 0.950 . S
C1468 C1467 1.398 . S
C1468 C1469 1.391 . S
C1469 H1457 0.950 . S
C1469 C1465 1.393 . S
C1469 C1468 1.391 . S
C1470 H1460 0.950 . S
C1470 C1471 1.386 . S
C1470 C1472 1.391 . S
C1471 C1470 1.386 . S
C1471 C1475 1.393 . S
C1472 H1461 0.950 . S
C1472 C1470 1.391 . S
C1472 C1473 1.400 . S
C1473 C1467 1.491 . S
C1473 C1472 1.400 . S
C1473 C1474 1.398 . S
C1474 H1462 0.950 . S
C1474 C1473 1.398 . S
C1474 C1475 1.391 . S
C1475 H1463 0.950 . S
C1475 C1471 1.393 . S
C1475 C1474 1.391 . S
H1476 C1484 0.950 . S
H1477 C1489 0.950 . S
H1478 C1486 0.950 . S
H1479 C1488 0.950 . S
H1480 C1490 0.950 . S
H1481 C1492 0.950 . S
H1482 C1494 0.950 . S
H1483 C1495 0.950 . S
C1484 H1476 0.950 . S
C1484 C1485 1.386 . S
C1484 C1486 1.391 1_655 S
C1485 C1484 1.386 . S
C1485 C1489 1.393 . S
C1486 H1478 0.950 . S
C1486 C1484 1.391 1_455 S
C1486 C1487 1.400 . S
C1487 C1486 1.400 . S
C1487 C1488 1.398 . S
C1487 C1493 1.491 . S
C1488 H1479 0.950 . S
C1488 C1487 1.398 . S
C1488 C1489 1.391 1_455 S
C1489 H1477 0.950 . S
C1489 C1485 1.393 . S
C1489 C1488 1.391 1_655 S
C1490 H1480 0.950 . S
C1490 C1491 1.386 . S
C1490 C1492 1.391 . S
C1491 C1490 1.386 . S
C1491 C1495 1.393 . S
C1492 H1481 0.950 . S
C1492 C1490 1.391 . S
C1492 C1493 1.400 . S
C1493 C1487 1.491 . S
C1493 C1492 1.400 . S
C1493 C1494 1.398 . S
C1494 H1482 0.950 . S
C1494 C1493 1.398 . S
C1494 C1495 1.391 . S
C1495 H1483 0.950 . S
C1495 C1491 1.393 . S
C1495 C1494 1.391 . S
H1496 C1504 0.950 . S
H1497 C1509 0.950 . S
H1498 C1506 0.950 . S
H1499 C1508 0.950 . S
H1500 C1510 0.950 1_565 S
H1501 C1512 0.950 . S
H1502 C1514 0.950 . S
H1503 C1515 0.950 . S
C1504 H1496 0.950 . S
C1504 C1505 1.386 . S
C1504 C1506 1.391 . S
C1505 C1504 1.386 . S
C1505 C1509 1.393 . S
C1506 H1498 0.950 . S
C1506 C1504 1.391 . S
C1506 C1507 1.400 . S
C1507 C1506 1.400 . S
C1507 C1508 1.398 . S
C1507 C1513 1.491 . S
C1508 H1499 0.950 . S
C1508 C1507 1.398 . S
C1508 C1509 1.391 . S
C1509 H1497 0.950 . S
C1509 C1505 1.393 . S
C1509 C1508 1.391 . S
C1510 H1500 0.950 1_545 S
C1510 C1511 1.386 . S
C1510 C1512 1.391 . S
C1511 C1510 1.386 . S
C1511 C1515 1.393 . S
C1512 H1501 0.950 . S
C1512 C1510 1.391 . S
C1512 C1513 1.400 . S
C1513 C1507 1.491 . S
C1513 C1512 1.400 . S
C1513 C1514 1.398 . S
C1514 H1502 0.950 . S
C1514 C1513 1.398 . S
C1514 C1515 1.391 . S
C1515 H1503 0.950 . S
C1515 C1511 1.393 . S
C1515 C1514 1.391 . S
H1516 C1524 0.950 . S
H1517 C1529 0.950 . S
H1518 C1526 0.950 . S
H1519 C1528 0.950 . S
H1520 C1530 0.950 . S
H1521 C1532 0.950 . S
H1522 C1534 0.950 . S
H1523 C1535 0.950 . S
C1524 H1516 0.950 . S
C1524 C1525 1.386 . S
C1524 C1526 1.391 1_565 S
C1525 C1524 1.386 . S
C1525 C1529 1.393 . S
C1526 H1518 0.950 . S
C1526 C1524 1.391 1_545 S
C1526 C1527 1.400 . S
C1527 C1526 1.400 . S
C1527 C1528 1.398 . S
C1527 C1533 1.491 . S
C1528 H1519 0.950 . S
C1528 C1527 1.398 . S
C1528 C1529 1.391 1_545 S
C1529 H1517 0.950 . S
C1529 C1525 1.393 . S
C1529 C1528 1.391 1_565 S
C1530 H1520 0.950 . S
C1530 C1531 1.386 . S
C1530 C1532 1.391 . S
C1531 C1530 1.386 . S
C1531 C1535 1.393 . S
C1532 H1521 0.950 . S
C1532 C1530 1.391 . S
C1532 C1533 1.400 . S
C1533 C1527 1.491 . S
C1533 C1532 1.400 . S
C1533 C1534 1.398 . S
C1534 H1522 0.950 . S
C1534 C1533 1.398 . S
C1534 C1535 1.391 . S
C1535 H1523 0.950 . S
C1535 C1531 1.393 . S
C1535 C1534 1.391 . S
H1536 C1544 0.950 . S
H1537 C1549 0.950 . S
H1538 C1546 0.950 . S
H1539 C1548 0.950 . S
H1540 C1550 0.950 . S
H1541 C1552 0.950 . S
H1542 C1554 0.950 . S
H1543 C1555 0.950 . S
C1544 H1536 0.950 . S
C1544 C1545 1.386 . S
C1544 C1546 1.391 . S
C1545 C1544 1.386 . S
C1545 C1549 1.393 . S
C1546 H1538 0.950 . S
C1546 C1544 1.391 . S
C1546 C1547 1.400 . S
C1547 C1546 1.400 . S
C1547 C1548 1.398 . S
C1547 C1553 1.491 . S
C1548 H1539 0.950 . S
C1548 C1547 1.398 . S
C1548 C1549 1.391 . S
C1549 H1537 0.950 . S
C1549 C1545 1.393 . S
C1549 C1548 1.391 . S
C1550 H1540 0.950 . S
C1550 C1551 1.386 . S
C1550 C1552 1.391 . S
C1551 C1550 1.386 . S
C1551 C1555 1.393 . S
C1552 H1541 0.950 . S
C1552 C1550 1.391 . S
C1552 C1553 1.400 . S
C1553 C1547 1.491 . S
C1553 C1552 1.400 . S
C1553 C1554 1.398 . S
C1554 H1542 0.950 . S
C1554 C1553 1.398 . S
C1554 C1555 1.391 . S
C1555 H1543 0.950 . S
C1555 C1551 1.393 . S
C1555 C1554 1.391 . S
H1556 C1564 0.950 . S
H1557 C1569 0.950 . S
H1558 C1566 0.950 . S
H1559 C1568 0.950 . S
H1560 C1570 0.950 . S
H1561 C1572 0.950 . S
H1562 C1574 0.956 . S
H1563 C1575 0.950 1_554 S
C1564 H1556 0.950 . S
C1564 C1565 1.386 1_554 S
C1564 C1566 1.391 . S
C1565 C1564 1.386 1_556 S
C1565 C1569 1.393 . S
C1566 H1558 0.950 . S
C1566 C1564 1.391 . S
C1566 C1567 1.400 1_554 S
C1567 C1566 1.400 1_556 S
C1567 C1568 1.398 . S
C1567 C1573 1.491 . S
C1568 H1559 0.950 . S
C1568 C1567 1.398 . S
C1568 C1569 1.391 . S
C1569 H1557 0.950 . S
C1569 C1565 1.393 . S
C1569 C1568 1.391 . S
C1570 H1560 0.950 . S
C1570 C1571 1.386 . S
C1570 C1572 1.391 . S
C1571 C1570 1.386 . S
C1571 C1575 1.393 . S
C1572 H1561 0.950 . S
C1572 C1570 1.391 . S
C1572 C1573 1.400 . S
C1573 C1567 1.491 . S
C1573 C1572 1.400 . S
C1573 C1574 1.393 1_556 S
C1574 H1562 0.956 . S
C1574 C1573 1.393 1_554 S
C1574 C1575 1.391 1_554 S
C1575 H1563 0.950 1_556 S
C1575 C1571 1.393 . S
C1575 C1574 1.391 1_556 S
H1576 C1584 0.950 . S
H1577 C1589 0.950 . S
H1578 C1586 0.950 . S
H1579 C1588 0.950 . S
H1580 C1590 0.937 1_556 S
H1581 C1592 0.950 . S
H1582 C1594 0.950 . S
H1583 C1595 0.950 . S
C1584 H1576 0.950 . S
C1584 C1585 1.386 . S
C1584 C1586 1.391 . S
C1585 C1584 1.386 . S
C1585 C1589 1.393 . S
C1586 H1578 0.950 . S
C1586 C1584 1.391 . S
C1586 C1587 1.400 . S
C1587 C1586 1.400 . S
C1587 C1588 1.398 . S
C1587 C1593 1.491 . S
C1588 H1579 0.950 . S
C1588 C1587 1.398 . S
C1588 C1589 1.391 . S
C1589 H1577 0.950 . S
C1589 C1585 1.393 . S
C1589 C1588 1.391 . S
C1590 H1580 0.937 1_554 S
C1590 C1591 1.386 . S
C1590 C1592 1.391 . S
C1591 C1590 1.386 . S
C1591 C1595 1.393 . S
C1592 H1581 0.950 . S
C1592 C1590 1.391 . S
C1592 C1593 1.400 . S
C1593 C1587 1.491 . S
C1593 C1592 1.400 . S
C1593 C1594 1.398 . S
C1594 H1582 0.950 . S
C1594 C1593 1.398 . S
C1594 C1595 1.391 . S
C1595 H1583 0.950 . S
C1595 C1591 1.393 . S
C1595 C1594 1.391 . S
H1596 C1604 0.950 . S
H1597 C1609 0.971 . S
H1598 C1606 0.950 . S
H1599 C1608 0.950 . S
H1600 C1610 0.950 . S
H1601 C1612 0.950 . S
H1602 C1614 0.950 . S
H1603 C1615 0.950 . S
C1604 H1596 0.950 . S
C1604 C1605 1.386 . S
C1604 C1606 1.391 1_556 S
C1605 C1604 1.386 . S
C1605 C1609 1.418 . S
C1606 H1598 0.950 . S
C1606 C1604 1.391 1_554 S
C1606 C1607 1.400 . S
C1607 C1606 1.400 . S
C1607 C1608 1.398 . S
C1607 C1613 1.491 . S
C1608 H1599 0.950 . S
C1608 C1607 1.398 . S
C1608 C1609 1.346 1_554 S
C1609 H1597 0.971 . S
C1609 C1605 1.418 . S
C1609 C1608 1.346 1_556 S
C1610 H1600 0.950 . S
C1610 C1611 1.386 . S
C1610 C1612 1.391 . S
C1611 C1610 1.386 . S
C1611 C1615 1.393 . S
C1612 H1601 0.950 . S
C1612 C1610 1.391 . S
C1612 C1613 1.400 . S
C1613 C1607 1.491 . S
C1613 C1612 1.400 . S
C1613 C1614 1.398 . S
C1614 H1602 0.950 . S
C1614 C1613 1.398 . S
C1614 C1615 1.391 . S
C1615 H1603 0.950 . S
C1615 C1611 1.393 . S
C1615 C1614 1.391 . S
H1616 C1624 0.950 . S
H1617 C1629 0.950 . S
H1618 C1626 0.950 . S
H1619 C1628 0.950 . S
H1620 C1630 0.950 . S
H1621 C1632 0.950 . S
H1622 C1634 0.950 . S
H1623 C1635 0.950 . S
C1624 H1616 0.950 . S
C1624 C1625 1.386 . S
C1624 C1626 1.391 . S
C1625 C1624 1.386 . S
C1625 C1629 1.393 . S
C1626 H1618 0.950 . S
C1626 C1624 1.391 . S
C1626 C1627 1.400 . S
C1627 C1626 1.400 . S
C1627 C1628 1.398 . S
C1627 C1633 1.491 . S
C1628 H1619 0.950 . S
C1628 C1627 1.398 . S
C1628 C1629 1.391 . S
C1629 H1617 0.950 . S
C1629 C1625 1.393 . S
C1629 C1628 1.391 . S
C1630 H1620 0.950 . S
C1630 C1631 1.386 . S
C1630 C1632 1.391 . S
C1631 C1630 1.386 . S
C1631 C1635 1.393 . S
C1632 H1621 0.950 . S
C1632 C1630 1.391 . S
C1632 C1633 1.400 . S
C1633 C1627 1.491 . S
C1633 C1632 1.400 . S
C1633 C1634 1.398 . S
C1634 H1622 0.950 . S
C1634 C1633 1.398 . S
C1634 C1635 1.391 . S
C1635 H1623 0.950 . S
C1635 C1631 1.393 . S
C1635 C1634 1.391 . S
H1636 C1644 0.939 1_455 S
H1637 C1649 0.950 . S
H1638 C1646 0.950 1_455 S
H1639 C1648 0.950 . S
H1640 C1650 0.950 . S
H1641 C1652 0.950 . S
H1642 C1654 0.950 . S
H1643 C1655 0.950 . S
C1644 H1636 0.939 1_655 S
C1644 C1645 1.396 . S
C1644 C1646 1.392 . S
C1645 C1644 1.396 . S
C1645 C1649 1.393 . S
C1646 H1638 0.950 1_655 S
C1646 C1644 1.392 . S
C1646 C1647 1.400 . S
C1647 C1646 1.400 . S
C1647 C1648 1.398 . S
C1647 C1653 1.491 . S
C1648 H1639 0.950 . S
C1648 C1647 1.398 . S
C1648 C1649 1.391 . S
C1649 H1637 0.950 . S
C1649 C1645 1.393 . S
C1649 C1648 1.391 . S
C1650 H1640 0.950 . S
C1650 C1651 1.386 . S
C1650 C1652 1.391 . S
C1651 C1650 1.386 . S
C1651 C1655 1.393 . S
C1652 H1641 0.950 . S
C1652 C1650 1.391 . S
C1652 C1653 1.400 . S
C1653 C1647 1.491 . S
C1653 C1652 1.400 . S
C1653 C1654 1.398 . S
C1654 H1642 0.950 . S
C1654 C1653 1.398 . S
C1654 C1655 1.391 . S
C1655 H1643 0.950 . S
C1655 C1651 1.393 . S
C1655 C1654 1.391 . S
H1656 C1664 0.950 . S
H1657 C1669 0.950 . S
H1658 C1666 0.950 . S
H1659 C1668 0.950 . S
H1660 C1670 0.974 . S
H1661 C1672 0.950 . S
H1662 C1674 0.950 . S
H1663 C1675 0.950 . S
C1664 H1656 0.950 . S
C1664 C1665 1.386 . S
C1664 C1666 1.391 . S
C1665 C1664 1.386 . S
C1665 C1669 1.393 . S
C1666 H1658 0.950 . S
C1666 C1664 1.391 . S
C1666 C1667 1.400 . S
C1667 C1666 1.400 . S
C1667 C1668 1.398 . S
C1667 C1673 1.491 . S
C1668 H1659 0.950 . S
C1668 C1667 1.398 . S
C1668 C1669 1.391 . S
C1669 H1657 0.950 . S
C1669 C1665 1.393 . S
C1669 C1668 1.391 . S
C1670 H1660 0.974 . S
C1670 C1671 1.386 . S
C1670 C1672 1.391 . S
C1671 C1670 1.386 . S
C1671 C1675 1.393 . S
C1672 H1661 0.950 . S
C1672 C1670 1.391 . S
C1672 C1673 1.400 . S
C1673 C1667 1.491 . S
C1673 C1672 1.400 . S
C1673 C1674 1.398 . S
C1674 H1662 0.950 . S
C1674 C1673 1.398 . S
C1674 C1675 1.391 . S
C1675 H1663 0.950 . S
C1675 C1671 1.393 . S
C1675 C1674 1.391 . S
H1676 C1684 0.950 . S
H1677 C1689 0.950 . S
H1678 C1686 0.950 . S
H1679 C1688 0.950 . S
H1680 C1690 0.950 . S
H1681 C1692 0.950 . S
H1682 C1694 0.950 . S
H1683 C1695 0.950 . S
C1684 H1676 0.950 . S
C1684 C1685 1.386 . S
C1684 C1686 1.391 . S
C1685 C1684 1.386 . S
C1685 C1689 1.393 . S
C1686 H1678 0.950 . S
C1686 C1684 1.391 . S
C1686 C1687 1.400 . S
C1687 C1686 1.400 . S
C1687 C1688 1.398 . S
C1687 C1693 1.491 . S
C1688 H1679 0.950 . S
C1688 C1687 1.398 . S
C1688 C1689 1.391 . S
C1689 H1677 0.950 . S
C1689 C1685 1.393 . S
C1689 C1688 1.391 . S
C1690 H1680 0.950 . S
C1690 C1691 1.386 . S
C1690 C1692 1.391 . S
C1691 C1690 1.386 . S
C1691 C1695 1.393 . S
C1692 H1681 0.950 . S
C1692 C1690 1.391 . S
C1692 C1693 1.400 . S
C1693 C1687 1.491 . S
C1693 C1692 1.400 . S
C1693 C1694 1.398 . S
C1694 H1682 0.950 . S
C1694 C1693 1.398 . S
C1694 C1695 1.391 . S
C1695 H1683 0.950 . S
C1695 C1691 1.393 . S
C1695 C1694 1.391 . S
H1696 C1704 0.950 . S
H1697 C1709 0.950 . S
H1698 C1706 0.950 . S
H1699 C1708 0.950 . S
H1700 C1710 0.950 . S
H1701 C1712 0.950 . S
H1702 C1714 0.950 . S
H1703 C1715 0.937 1_565 S
C1704 H1696 0.950 . S
C1704 C1705 1.386 1_565 S
C1704 C1706 1.391 . S
C1705 C1704 1.386 1_545 S
C1705 C1709 1.393 . S
C1706 H1698 0.950 . S
C1706 C1704 1.391 . S
C1706 C1707 1.400 1_565 S
C1707 C1706 1.400 1_545 S
C1707 C1708 1.398 . S
C1707 C1713 1.491 . S
C1708 H1699 0.950 . S
C1708 C1707 1.398 . S
C1708 C1709 1.391 . S
C1709 H1697 0.950 . S
C1709 C1705 1.393 . S
C1709 C1708 1.391 . S
C1710 H1700 0.950 . S
C1710 C1711 1.386 . S
C1710 C1712 1.391 . S
C1711 C1710 1.386 . S
C1711 C1715 1.406 . S
C1712 H1701 0.950 . S
C1712 C1710 1.391 . S
C1712 C1713 1.400 . S
C1713 C1707 1.491 . S
C1713 C1712 1.400 . S
C1713 C1714 1.398 1_545 S
C1714 H1702 0.950 . S
C1714 C1713 1.398 1_565 S
C1714 C1715 1.391 1_565 S
C1715 H1703 0.937 1_545 S
C1715 C1711 1.406 . S
C1715 C1714 1.391 1_545 S
H1716 C1724 0.958 . S
H1717 C1729 0.950 . S
H1718 C1726 0.950 . S
H1719 C1728 0.950 . S
H1720 C1730 0.950 . S
H1721 C1732 0.950 . S
H1722 C1734 0.950 . S
H1723 C1735 0.950 . S
C1724 H1716 0.958 . S
C1724 C1725 1.396 . S
C1724 C1726 1.373 1_455 S
C1725 C1724 1.396 . S
C1725 C1729 1.393 . S
C1726 H1718 0.950 . S
C1726 C1724 1.373 1_655 S
C1726 C1727 1.400 . S
C1727 C1726 1.400 . S
C1727 C1728 1.398 . S
C1727 C1733 1.491 . S
C1728 H1719 0.950 . S
C1728 C1727 1.398 . S
C1728 C1729 1.391 1_655 S
C1729 H1717 0.950 . S
C1729 C1725 1.393 . S
C1729 C1728 1.391 1_455 S
C1730 H1720 0.950 . S
C1730 C1731 1.386 . S
C1730 C1732 1.391 . S
C1731 C1730 1.386 . S
C1731 C1735 1.393 . S
C1732 H1721 0.950 . S
C1732 C1730 1.391 . S
C1732 C1733 1.400 . S
C1733 C1727 1.491 . S
C1733 C1732 1.400 . S
C1733 C1734 1.398 . S
C1734 H1722 0.950 . S
C1734 C1733 1.398 . S
C1734 C1735 1.391 . S
C1735 H1723 0.950 . S
C1735 C1731 1.393 . S
C1735 C1734 1.391 . S
H1736 C1744 0.950 . S
H1737 C1749 0.950 . S
H1738 C1746 0.950 . S
H1739 C1748 0.950 . S
H1740 C1750 0.950 . S
H1741 C1752 0.950 . S
H1742 C1754 0.950 . S
H1743 C1755 0.908 1_545 S
C1744 H1736 0.950 . S
C1744 C1745 1.386 . S
C1744 C1746 1.391 . S
C1745 C1744 1.386 . S
C1745 C1749 1.393 . S
C1746 H1738 0.950 . S
C1746 C1744 1.391 . S
C1746 C1747 1.400 . S
C1747 C1746 1.400 . S
C1747 C1748 1.398 . S
C1747 C1753 1.491 . S
C1748 H1739 0.950 . S
C1748 C1747 1.398 . S
C1748 C1749 1.391 . S
C1749 H1737 0.950 . S
C1749 C1745 1.393 . S
C1749 C1748 1.391 . S
C1750 H1740 0.950 . S
C1750 C1751 1.386 . S
C1750 C1752 1.391 . S
C1751 C1750 1.386 . S
C1751 C1755 1.393 . S
C1752 H1741 0.950 . S
C1752 C1750 1.391 . S
C1752 C1753 1.400 . S
C1753 C1747 1.491 . S
C1753 C1752 1.400 . S
C1753 C1754 1.398 . S
C1754 H1742 0.950 . S
C1754 C1753 1.398 . S
C1754 C1755 1.391 . S
C1755 H1743 0.908 1_565 S
C1755 C1751 1.393 . S
C1755 C1754 1.391 . S
H1756 C1764 0.950 . S
H1757 C1769 0.971 . S
H1758 C1766 0.950 . S
H1759 C1768 0.950 . S
H1760 C1770 0.950 . S
H1761 C1772 0.950 . S
H1762 C1774 0.950 . S
H1763 C1775 0.950 . S
C1764 H1756 0.950 . S
C1764 C1765 1.386 . S
C1764 C1766 1.391 1_545 S
C1765 C1764 1.386 . S
C1765 C1769 1.419 . S
C1766 H1758 0.950 . S
C1766 C1764 1.391 1_565 S
C1766 C1767 1.400 . S
C1767 C1766 1.400 . S
C1767 C1768 1.398 . S
C1767 C1773 1.491 . S
C1768 H1759 0.950 . S
C1768 C1767 1.398 . S
C1768 C1769 1.345 1_565 S
C1769 H1757 0.971 . S
C1769 C1765 1.419 . S
C1769 C1768 1.345 1_545 S
C1770 H1760 0.950 . S
C1770 C1771 1.386 . S
C1770 C1772 1.391 . S
C1771 C1770 1.386 . S
C1771 C1775 1.393 . S
C1772 H1761 0.950 . S
C1772 C1770 1.391 . S
C1772 C1773 1.400 . S
C1773 C1767 1.491 . S
C1773 C1772 1.400 . S
C1773 C1774 1.398 . S
C1774 H1762 0.950 . S
C1774 C1773 1.398 . S
C1774 C1775 1.391 . S
C1775 H1763 0.950 . S
C1775 C1771 1.393 . S
C1775 C1774 1.391 . S
H1776 C1784 0.950 . S
H1777 C1789 0.950 . S
H1778 C1786 0.950 . S
H1779 C1788 0.950 . S
H1780 C1790 0.950 . S
H1781 C1792 0.950 . S
H1782 C1794 0.950 . S
H1783 C1795 0.950 . S
C1784 H1776 0.950 . S
C1784 C1785 1.386 . S
C1784 C1786 1.391 . S
C1785 C1784 1.386 . S
C1785 C1789 1.393 . S
C1786 H1778 0.950 . S
C1786 C1784 1.391 . S
C1786 C1787 1.400 . S
C1787 C1786 1.400 . S
C1787 C1788 1.398 . S
C1787 C1793 1.491 . S
C1788 H1779 0.950 . S
C1788 C1787 1.398 . S
C1788 C1789 1.391 . S
C1789 H1777 0.950 . S
C1789 C1785 1.393 . S
C1789 C1788 1.391 . S
C1790 H1780 0.950 . S
C1790 C1791 1.386 . S
C1790 C1792 1.391 . S
C1791 C1790 1.386 . S
C1791 C1795 1.393 . S
C1792 H1781 0.950 . S
C1792 C1790 1.391 . S
C1792 C1793 1.400 . S
C1793 C1787 1.491 . S
C1793 C1792 1.400 . S
C1793 C1794 1.398 . S
C1794 H1782 0.950 . S
C1794 C1793 1.398 . S
C1794 C1795 1.391 . S
C1795 H1783 0.950 . S
C1795 C1791 1.393 . S
C1795 C1794 1.391 . S
H1796 C1804 0.950 . S
H1797 C1809 0.950 . S
H1798 C1806 0.950 . S
H1799 C1808 0.950 . S
H1800 C1810 0.950 . S
H1801 C1812 0.950 . S
H1802 C1814 0.950 . S
H1803 C1815 0.950 . S
C1804 H1796 0.950 . S
C1804 C1805 1.386 . S
C1804 C1806 1.391 . S
C1805 C1804 1.386 . S
C1805 C1809 1.393 . S
C1806 H1798 0.950 . S
C1806 C1804 1.391 . S
C1806 C1807 1.400 . S
C1807 C1806 1.400 . S
C1807 C1808 1.398 . S
C1807 C1813 1.491 . S
C1808 H1799 0.950 . S
C1808 C1807 1.398 . S
C1808 C1809 1.391 . S
C1809 H1797 0.950 . S
C1809 C1805 1.393 . S
C1809 C1808 1.391 . S
C1810 H1800 0.950 . S
C1810 C1811 1.386 . S
C1810 C1812 1.391 . S
C1811 C1810 1.386 . S
C1811 C1815 1.393 . S
C1812 H1801 0.950 . S
C1812 C1810 1.391 . S
C1812 C1813 1.400 . S
C1813 C1807 1.491 . S
C1813 C1812 1.400 . S
C1813 C1814 1.398 . S
C1814 H1802 0.950 . S
C1814 C1813 1.398 . S
C1814 C1815 1.391 . S
C1815 H1803 0.950 . S
C1815 C1811 1.393 . S
C1815 C1814 1.391 . S
H1816 C1824 0.950 . S
H1817 C1829 0.950 . S
H1818 C1826 0.950 . S
H1819 C1828 0.950 . S
H1820 C1830 0.950 . S
H1821 C1832 0.950 . S
H1822 C1834 0.950 . S
H1823 C1835 0.950 . S
C1824 H1816 0.950 . S
C1824 C1825 1.386 . S
C1824 C1826 1.391 . S
C1825 C1824 1.386 . S
C1825 C1829 1.393 . S
C1826 H1818 0.950 . S
C1826 C1824 1.391 . S
C1826 C1827 1.400 . S
C1827 C1826 1.400 . S
C1827 C1828 1.398 . S
C1827 C1833 1.491 . S
C1828 H1819 0.950 . S
C1828 C1827 1.398 . S
C1828 C1829 1.391 . S
C1829 H1817 0.950 . S
C1829 C1825 1.393 . S
C1829 C1828 1.391 . S
C1830 H1820 0.950 . S
C1830 C1831 1.386 . S
C1830 C1832 1.391 . S
C1831 C1830 1.386 . S
C1831 C1835 1.393 . S
C1832 H1821 0.950 . S
C1832 C1830 1.391 . S
C1832 C1833 1.400 . S
C1833 C1827 1.491 . S
C1833 C1832 1.400 . S
C1833 C1834 1.398 . S
C1834 H1822 0.950 . S
C1834 C1833 1.398 . S
C1834 C1835 1.391 . S
C1835 H1823 0.950 . S
C1835 C1831 1.393 . S
C1835 C1834 1.391 . S
H1836 C1844 0.950 1_455 S
H1837 C1849 0.950 . S
H1838 C1846 0.950 1_455 S
H1839 C1848 0.950 . S
H1840 C1850 0.950 . S
H1841 C1852 0.950 . S
H1842 C1854 0.945 . S
H1843 C1855 0.950 . S
C1844 H1836 0.950 1_655 S
C1844 C1845 1.386 . S
C1844 C1846 1.391 1_554 S
C1845 C1844 1.386 . S
C1845 C1849 1.393 . S
C1846 H1838 0.950 1_655 S
C1846 C1844 1.391 1_556 S
C1846 C1847 1.400 . S
C1847 C1846 1.400 . S
C1847 C1848 1.398 . S
C1847 C1853 1.491 . S
C1848 H1839 0.950 . S
C1848 C1847 1.398 . S
C1848 C1849 1.391 1_556 S
C1849 H1837 0.950 . S
C1849 C1845 1.393 . S
C1849 C1848 1.391 1_554 S
C1850 H1840 0.950 . S
C1850 C1851 1.386 . S
C1850 C1852 1.391 . S
C1851 C1850 1.386 . S
C1851 C1855 1.393 1_655 S
C1852 H1841 0.950 . S
C1852 C1850 1.391 . S
C1852 C1853 1.400 . S
C1853 C1847 1.491 . S
C1853 C1852 1.400 . S
C1853 C1854 1.404 1_655 S
C1854 H1842 0.945 . S
C1854 C1853 1.404 1_455 S
C1854 C1855 1.390 . S
C1855 H1843 0.950 . S
C1855 C1851 1.393 1_455 S
C1855 C1854 1.390 . S
H1856 C1864 0.950 . S
H1857 C1869 0.950 . S
H1858 C1866 0.950 . S
H1859 C1868 0.950 . S
H1860 C1870 0.950 . S
H1861 C1872 0.950 . S
H1862 C1874 0.950 . S
H1863 C1875 0.950 . S
C1864 H1856 0.950 . S
C1864 C1865 1.386 . S
C1864 C1866 1.391 . S
C1865 C1864 1.386 . S
C1865 C1869 1.393 . S
C1866 H1858 0.950 . S
C1866 C1864 1.391 . S
C1866 C1867 1.400 . S
C1867 C1866 1.400 . S
C1867 C1868 1.398 . S
C1867 C1873 1.491 . S
C1868 H1859 0.950 . S
C1868 C1867 1.398 . S
C1868 C1869 1.391 . S
C1869 H1857 0.950 . S
C1869 C1865 1.393 . S
C1869 C1868 1.391 . S
C1870 H1860 0.950 . S
C1870 C1871 1.386 . S
C1870 C1872 1.391 . S
C1871 C1870 1.386 . S
C1871 C1875 1.393 . S
C1872 H1861 0.950 . S
C1872 C1870 1.391 . S
C1872 C1873 1.400 . S
C1873 C1867 1.491 . S
C1873 C1872 1.400 . S
C1873 C1874 1.398 . S
C1874 H1862 0.950 . S
C1874 C1873 1.398 . S
C1874 C1875 1.391 . S
C1875 H1863 0.950 . S
C1875 C1871 1.393 . S
C1875 C1874 1.391 . S
H1876 C1884 0.950 . S
H1877 C1889 0.950 . S
H1878 C1886 0.950 . S
H1879 C1888 0.950 . S
H1880 C1890 0.950 1_655 S
H1881 C1892 0.950 1_655 S
H1882 C1894 0.950 . S
H1883 C1895 0.950 . S
C1884 H1876 0.950 . S
C1884 C1885 1.386 . S
C1884 C1886 1.391 . S
C1885 C1884 1.386 . S
C1885 C1889 1.393 1_455 S
C1886 H1878 0.950 . S
C1886 C1884 1.391 . S
C1886 C1887 1.400 . S
C1887 C1886 1.400 . S
C1887 C1888 1.398 1_455 S
C1887 C1893 1.491 . S
C1888 H1879 0.950 . S
C1888 C1887 1.398 1_655 S
C1888 C1889 1.391 . S
C1889 H1877 0.950 . S
C1889 C1885 1.393 1_655 S
C1889 C1888 1.391 . S
C1890 H1880 0.950 1_455 S
C1890 C1891 1.386 . S
C1890 C1892 1.391 . S
C1891 C1890 1.386 . S
C1891 C1895 1.393 . S
C1892 H1881 0.950 1_455 S
C1892 C1890 1.391 . S
C1892 C1893 1.400 . S
C1893 C1887 1.491 . S
C1893 C1892 1.400 . S
C1893 C1894 1.398 . S
C1894 H1882 0.950 . S
C1894 C1893 1.398 . S
C1894 C1895 1.391 . S
C1895 H1883 0.950 . S
C1895 C1891 1.393 . S
C1895 C1894 1.391 . S
H1896 C1904 0.950 . S
H1897 C1909 0.950 . S
H1898 C1906 0.950 . S
H1899 C1908 0.950 . S
H1900 C1910 0.950 . S
H1901 C1912 0.950 . S
H1902 C1914 0.950 . S
H1903 C1915 0.950 . S
C1904 H1896 0.950 . S
C1904 C1905 1.386 . S
C1904 C1906 1.391 . S
C1905 C1904 1.386 . S
C1905 C1909 1.393 . S
C1906 H1898 0.950 . S
C1906 C1904 1.391 . S
C1906 C1907 1.400 . S
C1907 C1906 1.400 . S
C1907 C1908 1.398 . S
C1907 C1913 1.491 . S
C1908 H1899 0.950 . S
C1908 C1907 1.398 . S
C1908 C1909 1.391 . S
C1909 H1897 0.950 . S
C1909 C1905 1.393 . S
C1909 C1908 1.391 . S
C1910 H1900 0.950 . S
C1910 C1911 1.386 . S
C1910 C1912 1.391 . S
C1911 C1910 1.386 . S
C1911 C1915 1.393 . S
C1912 H1901 0.950 . S
C1912 C1910 1.391 . S
C1912 C1913 1.400 . S
C1913 C1907 1.491 . S
C1913 C1912 1.400 . S
C1913 C1914 1.398 . S
C1914 H1902 0.950 . S
C1914 C1913 1.398 . S
C1914 C1915 1.391 . S
C1915 H1903 0.950 . S
C1915 C1911 1.393 . S
C1915 C1914 1.391 . S
H1916 C1924 0.950 . S
H1917 C1929 0.950 . S
H1918 C1926 0.950 . S
H1919 C1928 0.950 . S
H1920 C1930 0.950 . S
H1921 C1932 0.950 . S
H1922 C1934 0.950 . S
H1923 C1935 0.950 . S
C1924 H1916 0.950 . S
C1924 C1925 1.386 . S
C1924 C1926 1.391 . S
C1925 C1924 1.386 . S
C1925 C1929 1.393 . S
C1926 H1918 0.950 . S
C1926 C1924 1.391 . S
C1926 C1927 1.400 . S
C1927 C1926 1.400 . S
C1927 C1928 1.398 . S
C1927 C1933 1.491 . S
C1928 H1919 0.950 . S
C1928 C1927 1.398 . S
C1928 C1929 1.391 . S
C1929 H1917 0.950 . S
C1929 C1925 1.393 . S
C1929 C1928 1.391 . S
C1930 H1920 0.950 . S
C1930 C1931 1.386 . S
C1930 C1932 1.391 . S
C1931 C1930 1.386 . S
C1931 C1935 1.393 . S
C1932 H1921 0.950 . S
C1932 C1930 1.391 . S
C1932 C1933 1.400 . S
C1933 C1927 1.491 . S
C1933 C1932 1.400 . S
C1933 C1934 1.398 . S
C1934 H1922 0.950 . S
C1934 C1933 1.398 . S
C1934 C1935 1.391 . S
C1935 H1923 0.950 . S
C1935 C1931 1.393 . S
C1935 C1934 1.391 . S
H1936 C1944 0.950 1_565 S
H1937 C1949 0.950 . S
H1938 C1946 0.950 . S
H1939 C1948 0.950 . S
H1940 C1950 0.950 . S
H1941 C1952 0.950 . S
H1942 C1954 0.950 . S
H1943 C1955 0.950 . S
C1944 H1936 0.950 1_545 S
C1944 C1945 1.386 . S
C1944 C1946 1.391 . S
C1945 C1944 1.386 . S
C1945 C1949 1.393 . S
C1946 H1938 0.950 . S
C1946 C1944 1.391 . S
C1946 C1947 1.400 . S
C1947 C1946 1.400 . S
C1947 C1948 1.398 . S
C1947 C1953 1.491 . S
C1948 H1939 0.950 . S
C1948 C1947 1.398 . S
C1948 C1949 1.391 . S
C1949 H1937 0.950 . S
C1949 C1945 1.393 . S
C1949 C1948 1.391 . S
C1950 H1940 0.950 . S
C1950 C1951 1.386 . S
C1950 C1952 1.391 . S
C1951 C1950 1.386 . S
C1951 C1955 1.393 . S
C1952 H1941 0.950 . S
C1952 C1950 1.391 . S
C1952 C1953 1.400 . S
C1953 C1947 1.491 . S
C1953 C1952 1.400 . S
C1953 C1954 1.398 . S
C1954 H1942 0.950 . S
C1954 C1953 1.398 . S
C1954 C1955 1.391 . S
C1955 H1943 0.950 . S
C1955 C1951 1.393 . S
C1955 C1954 1.391 . S
H1956 C1964 0.950 . S
H1957 C1969 0.950 . S
H1958 C1966 0.950 . S
H1959 C1968 0.950 . S
H1960 C1970 0.950 . S
H1961 C1972 0.950 . S
H1962 C1974 0.950 . S
H1963 C1975 0.950 . S
C1964 H1956 0.950 . S
C1964 C1965 1.386 . S
C1964 C1966 1.391 . S
C1965 C1964 1.386 . S
C1965 C1969 1.393 . S
C1966 H1958 0.950 . S
C1966 C1964 1.391 . S
C1966 C1967 1.400 . S
C1967 C1966 1.400 . S
C1967 C1968 1.398 . S
C1967 C1973 1.491 . S
C1968 H1959 0.950 . S
C1968 C1967 1.398 . S
C1968 C1969 1.391 . S
C1969 H1957 0.950 . S
C1969 C1965 1.393 . S
C1969 C1968 1.391 . S
C1970 H1960 0.950 . S
C1970 C1971 1.386 . S
C1970 C1972 1.391 . S
C1971 C1970 1.386 . S
C1971 C1975 1.393 . S
C1972 H1961 0.950 . S
C1972 C1970 1.391 . S
C1972 C1973 1.400 . S
C1973 C1967 1.491 . S
C1973 C1972 1.400 . S
C1973 C1974 1.398 . S
C1974 H1962 0.950 . S
C1974 C1973 1.398 . S
C1974 C1975 1.391 . S
C1975 H1963 0.950 . S
C1975 C1971 1.393 . S
C1975 C1974 1.391 . S
H1976 C1984 0.950 . S
H1977 C1989 0.950 . S
H1978 C1986 0.950 . S
H1979 C1988 0.950 . S
H1980 C1990 0.950 . S
H1981 C1992 0.950 . S
H1982 C1994 0.950 . S
H1983 C1995 0.950 . S
C1984 H1976 0.950 . S
C1984 C1985 1.386 . S
C1984 C1986 1.391 . S
C1985 C1984 1.386 . S
C1985 C1989 1.393 . S
C1986 H1978 0.950 . S
C1986 C1984 1.391 . S
C1986 C1987 1.400 . S
C1987 C1986 1.400 . S
C1987 C1988 1.398 . S
C1987 C1993 1.491 . S
C1988 H1979 0.950 . S
C1988 C1987 1.398 . S
C1988 C1989 1.391 . S
C1989 H1977 0.950 . S
C1989 C1985 1.393 . S
C1989 C1988 1.391 . S
C1990 H1980 0.950 . S
C1990 C1991 1.386 . S
C1990 C1992 1.391 . S
C1991 C1990 1.386 . S
C1991 C1995 1.393 . S
C1992 H1981 0.950 . S
C1992 C1990 1.391 . S
C1992 C1993 1.400 . S
C1993 C1987 1.491 . S
C1993 C1992 1.400 . S
C1993 C1994 1.398 . S
C1994 H1982 0.950 . S
C1994 C1993 1.398 . S
C1994 C1995 1.391 . S
C1995 H1983 0.950 . S
C1995 C1991 1.393 . S
C1995 C1994 1.391 . S
H1996 C2004 0.950 . S
H1997 C2009 0.950 . S
H1998 C2006 0.950 . S
H1999 C2008 0.950 . S
H2000 C2010 0.950 . S
H2001 C2012 0.950 . S
H2002 C2014 0.950 . S
H2003 C2015 0.950 . S
C2004 H1996 0.950 . S
C2004 C2005 1.386 . S
C2004 C2006 1.391 . S
C2005 C2004 1.386 . S
C2005 C2009 1.393 . S
C2006 H1998 0.950 . S
C2006 C2004 1.391 . S
C2006 C2007 1.400 . S
C2007 C2006 1.400 . S
C2007 C2008 1.398 . S
C2007 C2013 1.491 . S
C2008 H1999 0.950 . S
C2008 C2007 1.398 . S
C2008 C2009 1.391 . S
C2009 H1997 0.950 . S
C2009 C2005 1.393 . S
C2009 C2008 1.391 . S
C2010 H2000 0.950 . S
C2010 C2011 1.386 . S
C2010 C2012 1.391 . S
C2011 C2010 1.386 . S
C2011 C2015 1.393 . S
C2012 H2001 0.950 . S
C2012 C2010 1.391 . S
C2012 C2013 1.400 . S
C2013 C2007 1.491 . S
C2013 C2012 1.400 . S
C2013 C2014 1.398 . S
C2014 H2002 0.950 . S
C2014 C2013 1.398 . S
C2014 C2015 1.391 . S
C2015 H2003 0.950 . S
C2015 C2011 1.393 . S
C2015 C2014 1.391 . S
H2016 C2024 0.950 . S
H2017 C2029 0.950 . S
H2018 C2026 0.950 . S
H2019 C2028 0.950 . S
H2020 C2030 0.950 . S
H2021 C2032 0.950 . S
H2022 C2034 0.950 . S
H2023 C2035 0.950 . S
C2024 H2016 0.950 . S
C2024 C2025 1.386 . S
C2024 C2026 1.391 . S
C2025 C2024 1.386 . S
C2025 C2029 1.393 . S
C2026 H2018 0.950 . S
C2026 C2024 1.391 . S
C2026 C2027 1.400 . S
C2027 C2026 1.400 . S
C2027 C2028 1.398 . S
C2027 C2033 1.491 . S
C2028 H2019 0.950 . S
C2028 C2027 1.398 . S
C2028 C2029 1.391 . S
C2029 H2017 0.950 . S
C2029 C2025 1.393 . S
C2029 C2028 1.391 . S
C2030 H2020 0.950 . S
C2030 C2031 1.386 . S
C2030 C2032 1.391 . S
C2031 C2030 1.386 . S
C2031 C2035 1.393 . S
C2032 H2021 0.950 . S
C2032 C2030 1.391 . S
C2032 C2033 1.400 . S
C2033 C2027 1.491 . S
C2033 C2032 1.400 . S
C2033 C2034 1.398 . S
C2034 H2022 0.950 . S
C2034 C2033 1.398 . S
C2034 C2035 1.391 . S
C2035 H2023 0.950 . S
C2035 C2031 1.393 . S
C2035 C2034 1.391 . S
H2036 C2044 0.950 . S
H2037 C2049 0.950 . S
H2038 C2046 0.950 . S
H2039 C2048 0.950 . S
H2040 C2050 0.950 . S
H2041 C2052 0.950 . S
H2042 C2054 0.950 . S
H2043 C2055 0.950 . S
C2044 H2036 0.950 . S
C2044 C2045 1.386 . S
C2044 C2046 1.391 . S
C2045 C2044 1.386 . S
C2045 C2049 1.393 . S
C2046 H2038 0.950 . S
C2046 C2044 1.391 . S
C2046 C2047 1.400 . S
C2047 C2046 1.400 . S
C2047 C2048 1.398 . S
C2047 C2053 1.491 . S
C2048 H2039 0.950 . S
C2048 C2047 1.398 . S
C2048 C2049 1.391 . S
C2049 H2037 0.950 . S
C2049 C2045 1.393 . S
C2049 C2048 1.391 . S
C2050 H2040 0.950 . S
C2050 C2051 1.386 . S
C2050 C2052 1.391 . S
C2051 C2050 1.386 . S
C2051 C2055 1.393 . S
C2052 H2041 0.950 . S
C2052 C2050 1.391 . S
C2052 C2053 1.400 . S
C2053 C2047 1.491 . S
C2053 C2052 1.400 . S
C2053 C2054 1.398 . S
C2054 H2042 0.950 . S
C2054 C2053 1.398 . S
C2054 C2055 1.391 . S
C2055 H2043 0.950 . S
C2055 C2051 1.393 . S
C2055 C2054 1.391 . S
H2056 C2064 0.950 . S
H2057 C2069 0.950 . S
H2058 C2066 0.950 . S
H2059 C2068 0.950 . S
H2060 C2070 0.950 . S
H2061 C2072 0.950 . S
H2062 C2074 0.950 . S
H2063 C2075 0.950 . S
C2064 H2056 0.950 . S
C2064 C2065 1.386 . S
C2064 C2066 1.391 . S
C2065 C2064 1.386 . S
C2065 C2069 1.393 . S
C2066 H2058 0.950 . S
C2066 C2064 1.391 . S
C2066 C2067 1.400 . S
C2067 C2066 1.400 . S
C2067 C2068 1.398 . S
C2067 C2073 1.491 . S
C2068 H2059 0.950 . S
C2068 C2067 1.398 . S
C2068 C2069 1.391 . S
C2069 H2057 0.950 . S
C2069 C2065 1.393 . S
C2069 C2068 1.391 . S
C2070 H2060 0.950 . S
C2070 C2071 1.386 . S
C2070 C2072 1.391 . S
C2071 C2070 1.386 . S
C2071 C2075 1.393 . S
C2072 H2061 0.950 . S
C2072 C2070 1.391 . S
C2072 C2073 1.400 . S
C2073 C2067 1.491 . S
C2073 C2072 1.400 . S
C2073 C2074 1.398 . S
C2074 H2062 0.950 . S
C2074 C2073 1.398 . S
C2074 C2075 1.391 . S
C2075 H2063 0.950 . S
C2075 C2071 1.393 . S
C2075 C2074 1.391 . S
H2076 C2084 0.950 . S
H2077 C2089 0.950 . S
H2078 C2086 0.950 . S
H2079 C2088 0.950 . S
H2080 C2090 0.950 . S
H2081 C2092 0.950 . S
H2082 C2094 0.950 . S
H2083 C2095 0.950 . S
C2084 H2076 0.950 . S
C2084 C2085 1.386 . S
C2084 C2086 1.391 . S
C2085 C2084 1.386 . S
C2085 C2089 1.393 . S
C2086 H2078 0.950 . S
C2086 C2084 1.391 . S
C2086 C2087 1.400 . S
C2087 C2086 1.400 . S
C2087 C2088 1.398 . S
C2087 C2093 1.491 . S
C2088 H2079 0.950 . S
C2088 C2087 1.398 . S
C2088 C2089 1.391 . S
C2089 H2077 0.950 . S
C2089 C2085 1.393 . S
C2089 C2088 1.391 . S
C2090 H2080 0.950 . S
C2090 C2091 1.386 . S
C2090 C2092 1.391 . S
C2091 C2090 1.386 . S
C2091 C2095 1.393 . S
C2092 H2081 0.950 . S
C2092 C2090 1.391 . S
C2092 C2093 1.400 . S
C2093 C2087 1.491 . S
C2093 C2092 1.400 . S
C2093 C2094 1.398 . S
C2094 H2082 0.950 . S
C2094 C2093 1.398 . S
C2094 C2095 1.391 . S
C2095 H2083 0.950 . S
C2095 C2091 1.393 . S
C2095 C2094 1.391 . S
H2096 C2104 0.950 . S
H2097 C2109 0.950 . S
H2098 C2106 0.950 . S
H2099 C2108 0.950 . S
H2100 C2110 0.950 . S
H2101 C2112 0.950 . S
H2102 C2114 0.950 . S
H2103 C2115 0.950 . S
C2104 H2096 0.950 . S
C2104 C2105 1.386 . S
C2104 C2106 1.391 . S
C2105 C2104 1.386 . S
C2105 C2109 1.393 . S
C2106 H2098 0.950 . S
C2106 C2104 1.391 . S
C2106 C2107 1.400 . S
C2107 C2106 1.400 . S
C2107 C2108 1.398 . S
C2107 C2113 1.491 . S
C2108 H2099 0.950 . S
C2108 C2107 1.398 . S
C2108 C2109 1.391 . S
C2109 H2097 0.950 . S
C2109 C2105 1.393 . S
C2109 C2108 1.391 . S
C2110 H2100 0.950 . S
C2110 C2111 1.386 . S
C2110 C2112 1.391 . S
C2111 C2110 1.386 . S
C2111 C2115 1.393 . S
C2112 H2101 0.950 . S
C2112 C2110 1.391 . S
C2112 C2113 1.400 . S
C2113 C2107 1.491 . S
C2113 C2112 1.400 . S
C2113 C2114 1.398 . S
C2114 H2102 0.950 . S
C2114 C2113 1.398 . S
C2114 C2115 1.391 . S
C2115 H2103 0.950 . S
C2115 C2111 1.393 . S
C2115 C2114 1.391 . S
H2116 C2124 0.950 . S
H2117 C2129 0.950 . S
H2118 C2126 0.950 . S
H2119 C2128 0.950 . S
H2120 C2130 0.950 . S
H2121 C2132 0.950 . S
H2122 C2134 0.950 . S
H2123 C2135 0.950 . S
C2124 H2116 0.950 . S
C2124 C2125 1.386 . S
C2124 C2126 1.391 . S
C2125 C2124 1.386 . S
C2125 C2129 1.393 . S
C2126 H2118 0.950 . S
C2126 C2124 1.391 . S
C2126 C2127 1.400 . S
C2127 C2126 1.400 . S
C2127 C2128 1.398 . S
C2127 C2133 1.491 . S
C2128 H2119 0.950 . S
C2128 C2127 1.398 . S
C2128 C2129 1.391 . S
C2129 H2117 0.950 . S
C2129 C2125 1.393 . S
C2129 C2128 1.391 . S
C2130 H2120 0.950 . S
C2130 C2131 1.386 . S
C2130 C2132 1.391 . S
C2131 C2130 1.386 . S
C2131 C2135 1.393 . S
C2132 H2121 0.950 . S
C2132 C2130 1.391 . S
C2132 C2133 1.400 . S
C2133 C2127 1.491 . S
C2133 C2132 1.400 . S
C2133 C2134 1.398 . S
C2134 H2122 0.950 . S
C2134 C2133 1.398 . S
C2134 C2135 1.391 . S
C2135 H2123 0.950 . S
C2135 C2131 1.393 . S
C2135 C2134 1.391 . S
H2136 C2144 0.950 . S
H2137 C2149 0.950 . S
H2138 C2146 0.950 . S
H2139 C2148 0.950 . S
H2140 C2150 0.950 . S
H2141 C2152 0.950 . S
H2142 C2154 0.950 . S
H2143 C2155 0.950 . S
C2144 H2136 0.950 . S
C2144 C2145 1.386 . S
C2144 C2146 1.391 . S
C2145 C2144 1.386 . S
C2145 C2149 1.393 . S
C2146 H2138 0.950 . S
C2146 C2144 1.391 . S
C2146 C2147 1.400 . S
C2147 C2146 1.400 . S
C2147 C2148 1.398 . S
C2147 C2153 1.491 . S
C2148 H2139 0.950 . S
C2148 C2147 1.398 . S
C2148 C2149 1.391 . S
C2149 H2137 0.950 . S
C2149 C2145 1.393 . S
C2149 C2148 1.391 . S
C2150 H2140 0.950 . S
C2150 C2151 1.386 . S
C2150 C2152 1.391 . S
C2151 C2150 1.386 . S
C2151 C2155 1.393 . S
C2152 H2141 0.950 . S
C2152 C2150 1.391 . S
C2152 C2153 1.400 . S
C2153 C2147 1.491 . S
C2153 C2152 1.400 . S
C2153 C2154 1.398 . S
C2154 H2142 0.950 . S
C2154 C2153 1.398 . S
C2154 C2155 1.391 . S
C2155 H2143 0.950 . S
C2155 C2151 1.393 . S
C2155 C2154 1.391 . S
H2156 C2164 0.950 . S
H2157 C2169 0.950 . S
H2158 C2166 0.950 . S
H2159 C2168 0.950 . S
H2160 C2170 0.950 . S
H2161 C2172 0.950 . S
H2162 C2174 0.950 . S
H2163 C2175 0.950 . S
C2164 H2156 0.950 . S
C2164 C2165 1.386 . S
C2164 C2166 1.391 . S
C2165 C2164 1.386 . S
C2165 C2169 1.393 . S
C2166 H2158 0.950 . S
C2166 C2164 1.391 . S
C2166 C2167 1.400 . S
C2167 C2166 1.400 . S
C2167 C2168 1.398 . S
C2167 C2173 1.491 . S
C2168 H2159 0.950 . S
C2168 C2167 1.398 . S
C2168 C2169 1.391 . S
C2169 H2157 0.950 . S
C2169 C2165 1.393 . S
C2169 C2168 1.391 . S
C2170 H2160 0.950 . S
C2170 C2171 1.386 . S
C2170 C2172 1.391 . S
C2171 C2170 1.386 . S
C2171 C2175 1.393 . S
C2172 H2161 0.950 . S
C2172 C2170 1.391 . S
C2172 C2173 1.400 . S
C2173 C2167 1.491 . S
C2173 C2172 1.400 . S
C2173 C2174 1.398 . S
C2174 H2162 0.950 . S
C2174 C2173 1.398 . S
C2174 C2175 1.391 . S
C2175 H2163 0.950 . S
C2175 C2171 1.393 . S
C2175 C2174 1.391 . S
H2176 C2184 0.950 . S
H2177 C2189 0.950 . S
H2178 C2186 0.950 . S
H2179 C2188 0.950 . S
H2180 C2190 0.950 . S
H2181 C2192 0.950 . S
H2182 C2194 0.950 . S
H2183 C2195 0.950 . S
C2184 H2176 0.950 . S
C2184 C2185 1.386 . S
C2184 C2186 1.391 . S
C2185 C2184 1.386 . S
C2185 C2189 1.393 . S
C2186 H2178 0.950 . S
C2186 C2184 1.391 . S
C2186 C2187 1.400 . S
C2187 C2186 1.400 . S
C2187 C2188 1.398 . S
C2187 C2193 1.491 . S
C2188 H2179 0.950 . S
C2188 C2187 1.398 . S
C2188 C2189 1.391 . S
C2189 H2177 0.950 . S
C2189 C2185 1.393 . S
C2189 C2188 1.391 . S
C2190 H2180 0.950 . S
C2190 C2191 1.386 . S
C2190 C2192 1.391 . S
C2191 C2190 1.386 . S
C2191 C2195 1.393 . S
C2192 H2181 0.950 . S
C2192 C2190 1.391 . S
C2192 C2193 1.400 . S
C2193 C2187 1.491 . S
C2193 C2192 1.400 . S
C2193 C2194 1.398 . S
C2194 H2182 0.950 . S
C2194 C2193 1.398 . S
C2194 C2195 1.391 . S
C2195 H2183 0.950 . S
C2195 C2191 1.393 . S
C2195 C2194 1.391 . S
H2196 C2204 0.950 . S
H2197 C2209 0.950 . S
H2198 C2206 0.950 . S
H2199 C2208 0.950 . S
H2200 C2210 0.950 . S
H2201 C2212 0.950 . S
H2202 C2214 0.950 . S
H2203 C2215 0.950 . S
C2204 H2196 0.950 . S
C2204 C2205 1.386 . S
C2204 C2206 1.391 . S
C2205 C2204 1.386 . S
C2205 C2209 1.393 . S
C2206 H2198 0.950 . S
C2206 C2204 1.391 . S
C2206 C2207 1.400 . S
C2207 C2206 1.400 . S
C2207 C2208 1.398 . S
C2207 C2213 1.491 . S
C2208 H2199 0.950 . S
C2208 C2207 1.398 . S
C2208 C2209 1.391 . S
C2209 H2197 0.950 . S
C2209 C2205 1.393 . S
C2209 C2208 1.391 . S
C2210 H2200 0.950 . S
C2210 C2211 1.386 . S
C2210 C2212 1.391 . S
C2211 C2210 1.386 . S
C2211 C2215 1.393 . S
C2212 H2201 0.950 . S
C2212 C2210 1.391 . S
C2212 C2213 1.400 . S
C2213 C2207 1.491 . S
C2213 C2212 1.400 . S
C2213 C2214 1.398 . S
C2214 H2202 0.950 . S
C2214 C2213 1.398 . S
C2214 C2215 1.391 . S
C2215 H2203 0.950 . S
C2215 C2211 1.393 . S
C2215 C2214 1.391 . S
H2216 C2224 0.950 . S
H2217 C2229 0.950 . S
H2218 C2226 0.950 . S
H2219 C2228 0.950 . S
H2220 C2230 0.950 . S
H2221 C2232 0.950 . S
H2222 C2234 0.950 . S
H2223 C2235 0.950 . S
C2224 H2216 0.950 . S
C2224 C2225 1.386 . S
C2224 C2226 1.391 . S
C2225 C2224 1.386 . S
C2225 C2229 1.393 . S
C2226 H2218 0.950 . S
C2226 C2224 1.391 . S
C2226 C2227 1.400 . S
C2227 C2226 1.400 . S
C2227 C2228 1.398 . S
C2227 C2233 1.491 . S
C2228 H2219 0.950 . S
C2228 C2227 1.398 . S
C2228 C2229 1.391 . S
C2229 H2217 0.950 . S
C2229 C2225 1.393 . S
C2229 C2228 1.391 . S
C2230 H2220 0.950 . S
C2230 C2231 1.386 . S
C2230 C2232 1.391 . S
C2231 C2230 1.386 . S
C2231 C2235 1.393 . S
C2232 H2221 0.950 . S
C2232 C2230 1.391 . S
C2232 C2233 1.400 . S
C2233 C2227 1.491 . S
C2233 C2232 1.400 . S
C2233 C2234 1.398 . S
C2234 H2222 0.950 . S
C2234 C2233 1.398 . S
C2234 C2235 1.391 . S
C2235 H2223 0.950 . S
C2235 C2231 1.393 . S
C2235 C2234 1.391 . S
H2236 C2244 0.950 . S
H2237 C2249 0.950 . S
H2238 C2246 0.950 . S
H2239 C2248 0.950 . S
H2240 C2250 0.950 . S
H2241 C2252 0.950 . S
H2242 C2254 0.950 . S
H2243 C2255 0.950 . S
C2244 H2236 0.950 . S
C2244 C2245 1.386 . S
C2244 C2246 1.391 . S
C2245 C2244 1.386 . S
C2245 C2249 1.393 . S
C2246 H2238 0.950 . S
C2246 C2244 1.391 . S
C2246 C2247 1.400 . S
C2247 C2246 1.400 . S
C2247 C2248 1.398 . S
C2247 C2253 1.491 . S
C2248 H2239 0.950 . S
C2248 C2247 1.398 . S
C2248 C2249 1.391 . S
C2249 H2237 0.950 . S
C2249 C2245 1.393 . S
C2249 C2248 1.391 . S
C2250 H2240 0.950 . S
C2250 C2251 1.386 . S
C2250 C2252 1.391 . S
C2251 C2250 1.386 . S
C2251 C2255 1.393 . S
C2252 H2241 0.950 . S
C2252 C2250 1.391 . S
C2252 C2253 1.400 . S
C2253 C2247 1.491 . S
C2253 C2252 1.400 . S
C2253 C2254 1.398 . S
C2254 H2242 0.950 . S
C2254 C2253 1.398 . S
C2254 C2255 1.391 . S
C2255 H2243 0.950 . S
C2255 C2251 1.393 . S
C2255 C2254 1.391 . S
H2256 C2264 0.950 . S
H2257 C2269 0.950 . S
H2258 C2266 0.950 . S
H2259 C2268 0.950 . S
H2260 C2270 0.950 . S
H2261 C2272 0.950 . S
H2262 C2274 0.950 . S
H2263 C2275 0.950 . S
C2264 H2256 0.950 . S
C2264 C2265 1.386 . S
C2264 C2266 1.391 . S
C2265 C2264 1.386 . S
C2265 C2269 1.393 . S
C2266 H2258 0.950 . S
C2266 C2264 1.391 . S
C2266 C2267 1.400 . S
C2267 C2266 1.400 . S
C2267 C2268 1.398 . S
C2267 C2273 1.491 . S
C2268 H2259 0.950 . S
C2268 C2267 1.398 . S
C2268 C2269 1.391 . S
C2269 H2257 0.950 . S
C2269 C2265 1.393 . S
C2269 C2268 1.391 . S
C2270 H2260 0.950 . S
C2270 C2271 1.386 . S
C2270 C2272 1.391 . S
C2271 C2270 1.386 . S
C2271 C2275 1.393 . S
C2272 H2261 0.950 . S
C2272 C2270 1.391 . S
C2272 C2273 1.400 . S
C2273 C2267 1.491 . S
C2273 C2272 1.400 . S
C2273 C2274 1.398 . S
C2274 H2262 0.950 . S
C2274 C2273 1.398 . S
C2274 C2275 1.391 . S
C2275 H2263 0.950 . S
C2275 C2271 1.393 . S
C2275 C2274 1.391 . S
H2276 C2284 0.950 . S
H2277 C2289 0.950 . S
H2278 C2286 0.950 . S
H2279 C2288 0.950 . S
H2280 C2290 0.950 . S
H2281 C2292 0.950 . S
H2282 C2294 0.950 . S
H2283 C2295 0.950 . S
C2284 H2276 0.950 . S
C2284 C2285 1.386 . S
C2284 C2286 1.391 . S
C2285 C2284 1.386 . S
C2285 C2289 1.393 . S
C2286 H2278 0.950 . S
C2286 C2284 1.391 . S
C2286 C2287 1.400 . S
C2287 C2286 1.400 . S
C2287 C2288 1.398 . S
C2287 C2293 1.491 . S
C2288 H2279 0.950 . S
C2288 C2287 1.398 . S
C2288 C2289 1.391 . S
C2289 H2277 0.950 . S
C2289 C2285 1.393 . S
C2289 C2288 1.391 . S
C2290 H2280 0.950 . S
C2290 C2291 1.386 . S
C2290 C2292 1.391 . S
C2291 C2290 1.386 . S
C2291 C2295 1.393 . S
C2292 H2281 0.950 . S
C2292 C2290 1.391 . S
C2292 C2293 1.400 . S
C2293 C2287 1.491 . S
C2293 C2292 1.400 . S
C2293 C2294 1.398 . S
C2294 H2282 0.950 . S
C2294 C2293 1.398 . S
C2294 C2295 1.391 . S
C2295 H2283 0.950 . S
C2295 C2291 1.393 . S
C2295 C2294 1.391 . S
H2296 C2304 0.950 . S
H2297 C2309 0.950 . S
H2298 C2306 0.950 . S
H2299 C2308 0.950 . S
H2300 C2310 0.950 . S
H2301 C2312 0.950 . S
H2302 C2314 0.950 . S
H2303 C2315 0.950 . S
C2304 H2296 0.950 . S
C2304 C2305 1.386 . S
C2304 C2306 1.391 . S
C2305 C2304 1.386 . S
C2305 C2309 1.393 . S
C2306 H2298 0.950 . S
C2306 C2304 1.391 . S
C2306 C2307 1.400 . S
C2307 C2306 1.400 . S
C2307 C2308 1.398 . S
C2307 C2313 1.491 . S
C2308 H2299 0.950 . S
C2308 C2307 1.398 . S
C2308 C2309 1.391 . S
C2309 H2297 0.950 . S
C2309 C2305 1.393 . S
C2309 C2308 1.391 . S
C2310 H2300 0.950 . S
C2310 C2311 1.386 . S
C2310 C2312 1.391 . S
C2311 C2310 1.386 . S
C2311 C2315 1.393 . S
C2312 H2301 0.950 . S
C2312 C2310 1.391 . S
C2312 C2313 1.400 . S
C2313 C2307 1.491 . S
C2313 C2312 1.400 . S
C2313 C2314 1.398 . S
C2314 H2302 0.950 . S
C2314 C2313 1.398 . S
C2314 C2315 1.391 . S
C2315 H2303 0.950 . S
C2315 C2311 1.393 . S
C2315 C2314 1.391 . S
H2316 C2324 0.950 . S
H2317 C2329 0.950 . S
H2318 C2326 0.950 . S
H2319 C2328 0.950 . S
H2320 C2330 0.950 . S
H2321 C2332 0.950 . S
H2322 C2334 0.950 . S
H2323 C2335 0.950 . S
C2324 H2316 0.950 . S
C2324 C2325 1.386 . S
C2324 C2326 1.391 . S
C2325 C2324 1.386 . S
C2325 C2329 1.393 . S
C2326 H2318 0.950 . S
C2326 C2324 1.391 . S
C2326 C2327 1.400 . S
C2327 C2326 1.400 . S
C2327 C2328 1.398 . S
C2327 C2333 1.491 . S
C2328 H2319 0.950 . S
C2328 C2327 1.398 . S
C2328 C2329 1.391 . S
C2329 H2317 0.950 . S
C2329 C2325 1.393 . S
C2329 C2328 1.391 . S
C2330 H2320 0.950 . S
C2330 C2331 1.386 . S
C2330 C2332 1.391 . S
C2331 C2330 1.386 . S
C2331 C2335 1.393 . S
C2332 H2321 0.950 . S
C2332 C2330 1.391 . S
C2332 C2333 1.400 . S
C2333 C2327 1.491 . S
C2333 C2332 1.400 . S
C2333 C2334 1.398 . S
C2334 H2322 0.950 . S
C2334 C2333 1.398 . S
C2334 C2335 1.391 . S
C2335 H2323 0.950 . S
C2335 C2331 1.393 . S
C2335 C2334 1.391 . S
H2336 C2344 0.950 . S
H2337 C2349 0.950 . S
H2338 C2346 0.950 . S
H2339 C2348 0.950 . S
H2340 C2350 0.950 . S
H2341 C2352 0.950 . S
H2342 C2354 0.950 . S
H2343 C2355 0.950 . S
C2344 H2336 0.950 . S
C2344 C2345 1.386 . S
C2344 C2346 1.391 . S
C2345 C2344 1.386 . S
C2345 C2349 1.393 . S
C2346 H2338 0.950 . S
C2346 C2344 1.391 . S
C2346 C2347 1.400 . S
C2347 C2346 1.400 . S
C2347 C2348 1.398 . S
C2347 C2353 1.491 . S
C2348 H2339 0.950 . S
C2348 C2347 1.398 . S
C2348 C2349 1.391 . S
C2349 H2337 0.950 . S
C2349 C2345 1.393 . S
C2349 C2348 1.391 . S
C2350 H2340 0.950 . S
C2350 C2351 1.386 . S
C2350 C2352 1.391 . S
C2351 C2350 1.386 . S
C2351 C2355 1.393 . S
C2352 H2341 0.950 . S
C2352 C2350 1.391 . S
C2352 C2353 1.400 . S
C2353 C2347 1.491 . S
C2353 C2352 1.400 . S
C2353 C2354 1.398 . S
C2354 H2342 0.950 . S
C2354 C2353 1.398 . S
C2354 C2355 1.391 . S
C2355 H2343 0.950 . S
C2355 C2351 1.393 . S
C2355 C2354 1.391 . S
H2356 C2364 0.950 1_455 S
H2357 C2369 0.950 . S
H2358 C2366 0.982 . S
H2359 C2368 0.950 . S
H2360 C2370 0.950 . S
H2361 C2372 0.950 . S
H2362 C2374 0.950 . S
H2363 C2375 0.950 . S
C2364 H2356 0.950 1_655 S
C2364 C2365 1.386 . S
C2364 C2366 1.391 . S
C2365 C2364 1.386 . S
C2365 C2369 1.393 . S
C2366 H2358 0.982 . S
C2366 C2364 1.391 . S
C2366 C2367 1.400 . S
C2367 C2366 1.400 . S
C2367 C2368 1.398 . S
C2367 C2373 1.491 . S
C2368 H2359 0.950 . S
C2368 C2367 1.398 . S
C2368 C2369 1.391 . S
C2369 H2357 0.950 . S
C2369 C2365 1.393 . S
C2369 C2368 1.391 . S
C2370 H2360 0.950 . S
C2370 C2371 1.386 . S
C2370 C2372 1.391 . S
C2371 C2370 1.386 . S
C2371 C2375 1.393 . S
C2372 H2361 0.950 . S
C2372 C2370 1.391 . S
C2372 C2373 1.400 . S
C2373 C2367 1.491 . S
C2373 C2372 1.400 . S
C2373 C2374 1.398 . S
C2374 H2362 0.950 . S
C2374 C2373 1.398 . S
C2374 C2375 1.391 . S
C2375 H2363 0.950 . S
C2375 C2371 1.393 . S
C2375 C2374 1.391 . S
H2376 C2384 0.950 . S
H2377 C2389 0.950 . S
H2378 C2386 0.950 . S
H2379 C2388 0.950 . S
H2380 C2390 0.950 . S
H2381 C2392 0.950 . S
H2382 C2394 0.950 . S
H2383 C2395 0.950 . S
C2384 H2376 0.950 . S
C2384 C2385 1.386 . S
C2384 C2386 1.391 . S
C2385 C2384 1.386 . S
C2385 C2389 1.393 . S
C2386 H2378 0.950 . S
C2386 C2384 1.391 . S
C2386 C2387 1.400 . S
C2387 C2386 1.400 . S
C2387 C2388 1.398 . S
C2387 C2393 1.491 . S
C2388 H2379 0.950 . S
C2388 C2387 1.398 . S
C2388 C2389 1.391 . S
C2389 H2377 0.950 . S
C2389 C2385 1.393 . S
C2389 C2388 1.391 . S
C2390 H2380 0.950 . S
C2390 C2391 1.386 . S
C2390 C2392 1.391 . S
C2391 C2390 1.386 . S
C2391 C2395 1.393 . S
C2392 H2381 0.950 . S
C2392 C2390 1.391 . S
C2392 C2393 1.400 . S
C2393 C2387 1.491 . S
C2393 C2392 1.400 . S
C2393 C2394 1.398 . S
C2394 H2382 0.950 . S
C2394 C2393 1.398 . S
C2394 C2395 1.391 . S
C2395 H2383 0.950 . S
C2395 C2391 1.393 . S
C2395 C2394 1.391 . S
H2396 C2404 0.950 . S
H2397 C2409 0.950 . S
H2398 C2406 0.950 . S
H2399 C2408 0.950 . S
H2400 C2410 0.950 . S
H2401 C2412 0.950 . S
H2402 C2414 0.950 . S
H2403 C2415 0.950 . S
C2404 H2396 0.950 . S
C2404 C2405 1.386 . S
C2404 C2406 1.391 . S
C2405 C2404 1.386 . S
C2405 C2409 1.393 . S
C2406 H2398 0.950 . S
C2406 C2404 1.391 . S
C2406 C2407 1.400 . S
C2407 C2406 1.400 . S
C2407 C2408 1.398 . S
C2407 C2413 1.491 . S
C2408 H2399 0.950 . S
C2408 C2407 1.398 . S
C2408 C2409 1.391 . S
C2409 H2397 0.950 . S
C2409 C2405 1.393 . S
C2409 C2408 1.391 . S
C2410 H2400 0.950 . S
C2410 C2411 1.386 . S
C2410 C2412 1.391 . S
C2411 C2410 1.386 . S
C2411 C2415 1.393 . S
C2412 H2401 0.950 . S
C2412 C2410 1.391 . S
C2412 C2413 1.400 . S
C2413 C2407 1.491 . S
C2413 C2412 1.400 . S
C2413 C2414 1.398 . S
C2414 H2402 0.950 . S
C2414 C2413 1.398 . S
C2414 C2415 1.391 . S
C2415 H2403 0.950 . S
C2415 C2411 1.393 . S
C2415 C2414 1.391 . S
H2416 C2424 0.950 . S
H2417 C2429 0.950 . S
H2418 C2426 0.950 . S
H2419 C2428 0.950 . S
H2420 C2430 0.951 . S
H2421 C2432 0.995 . S
H2422 C2434 0.950 . S
H2423 C2435 0.950 . S
C2424 H2416 0.950 . S
C2424 C2425 1.386 . S
C2424 C2426 1.391 . S
C2425 C2424 1.386 . S
C2425 C2429 1.393 1_565 S
C2426 H2418 0.950 . S
C2426 C2424 1.391 . S
C2426 C2427 1.400 . S
C2427 C2426 1.400 . S
C2427 C2428 1.398 1_565 S
C2427 C2433 1.491 . S
C2428 H2419 0.950 . S
C2428 C2427 1.398 1_545 S
C2428 C2429 1.391 . S
C2429 H2417 0.950 . S
C2429 C2425 1.393 1_545 S
C2429 C2428 1.391 . S
C2430 H2420 0.951 . S
C2430 C2431 1.384 1_545 S
C2430 C2432 1.382 . S
C2431 C2430 1.384 1_565 S
C2431 C2435 1.393 . S
C2432 H2421 0.995 . S
C2432 C2430 1.382 . S
C2432 C2433 1.369 1_545 S
C2433 C2427 1.491 . S
C2433 C2432 1.369 1_565 S
C2433 C2434 1.398 . S
C2434 H2422 0.950 . S
C2434 C2433 1.398 . S
C2434 C2435 1.391 . S
C2435 H2423 0.950 . S
C2435 C2431 1.393 . S
C2435 C2434 1.391 . S
H2436 C2444 0.950 . S
H2437 C2449 0.950 . S
H2438 C2446 0.950 . S
H2439 C2448 0.950 . S
H2440 C2450 0.950 . S
H2441 C2452 0.950 . S
H2442 C2454 0.951 1_565 S
H2443 C2455 0.950 1_565 S
C2444 H2436 0.950 . S
C2444 C2445 1.386 . S
C2444 C2446 1.391 . S
C2445 C2444 1.386 . S
C2445 C2449 1.393 . S
C2446 H2438 0.950 . S
C2446 C2444 1.391 . S
C2446 C2447 1.400 . S
C2447 C2446 1.400 . S
C2447 C2448 1.398 . S
C2447 C2453 1.491 . S
C2448 H2439 0.950 . S
C2448 C2447 1.398 . S
C2448 C2449 1.391 . S
C2449 H2437 0.950 . S
C2449 C2445 1.393 . S
C2449 C2448 1.391 . S
C2450 H2440 0.950 . S
C2450 C2451 1.386 . S
C2450 C2452 1.391 . S
C2451 C2450 1.386 . S
C2451 C2455 1.393 . S
C2452 H2441 0.950 . S
C2452 C2450 1.391 . S
C2452 C2453 1.400 . S
C2453 C2447 1.491 . S
C2453 C2452 1.400 . S
C2453 C2454 1.398 . S
C2454 H2442 0.951 1_545 S
C2454 C2453 1.398 . S
C2454 C2455 1.391 . S
C2455 H2443 0.950 1_545 S
C2455 C2451 1.393 . S
C2455 C2454 1.391 . S
H2456 C2464 0.950 . S
H2457 C2469 0.950 . S
H2458 C2466 0.950 . S
H2459 C2468 0.950 . S
H2460 C2470 0.950 . S
H2461 C2472 0.950 . S
H2462 C2474 0.950 . S
H2463 C2475 0.950 . S
C2464 H2456 0.950 . S
C2464 C2465 1.386 . S
C2464 C2466 1.391 . S
C2465 C2464 1.386 . S
C2465 C2469 1.393 . S
C2466 H2458 0.950 . S
C2466 C2464 1.391 . S
C2466 C2467 1.400 . S
C2467 C2466 1.400 . S
C2467 C2468 1.398 . S
C2467 C2473 1.491 . S
C2468 H2459 0.950 . S
C2468 C2467 1.398 . S
C2468 C2469 1.391 . S
C2469 H2457 0.950 . S
C2469 C2465 1.393 . S
C2469 C2468 1.391 . S
C2470 H2460 0.950 . S
C2470 C2471 1.386 . S
C2470 C2472 1.391 . S
C2471 C2470 1.386 . S
C2471 C2475 1.393 . S
C2472 H2461 0.950 . S
C2472 C2470 1.391 . S
C2472 C2473 1.400 . S
C2473 C2467 1.491 . S
C2473 C2472 1.400 . S
C2473 C2474 1.398 . S
C2474 H2462 0.950 . S
C2474 C2473 1.398 . S
C2474 C2475 1.391 . S
C2475 H2463 0.950 . S
C2475 C2471 1.393 . S
C2475 C2474 1.391 . S
H2476 C2484 0.950 . S
H2477 C2489 0.950 . S
H2478 C2486 0.950 . S
H2479 C2488 0.950 . S
H2480 C2490 0.950 1_556 S
H2481 C2492 0.958 . S
H2482 C2494 0.950 . S
H2483 C2495 0.950 . S
C2484 H2476 0.950 . S
C2484 C2485 1.386 . S
C2484 C2486 1.391 . S
C2485 C2484 1.386 . S
C2485 C2489 1.393 . S
C2486 H2478 0.950 . S
C2486 C2484 1.391 . S
C2486 C2487 1.400 . S
C2487 C2486 1.400 . S
C2487 C2488 1.398 . S
C2487 C2493 1.491 . S
C2488 H2479 0.950 . S
C2488 C2487 1.398 . S
C2488 C2489 1.391 . S
C2489 H2477 0.950 . S
C2489 C2485 1.393 . S
C2489 C2488 1.391 . S
C2490 H2480 0.950 1_554 S
C2490 C2491 1.386 . S
C2490 C2492 1.391 . S
C2491 C2490 1.386 . S
C2491 C2495 1.393 . S
C2492 H2481 0.958 . S
C2492 C2490 1.391 . S
C2492 C2493 1.400 . S
C2493 C2487 1.491 . S
C2493 C2492 1.400 . S
C2493 C2494 1.398 . S
C2494 H2482 0.950 . S
C2494 C2493 1.398 . S
C2494 C2495 1.391 . S
C2495 H2483 0.950 . S
C2495 C2491 1.393 . S
C2495 C2494 1.391 . S
H2496 C2504 0.950 . S
H2497 C2509 0.950 . S
H2498 C2506 0.950 . S
H2499 C2508 0.950 . S
H2500 C2510 0.950 . S
H2501 C2512 0.950 . S
H2502 C2514 0.950 . S
H2503 C2515 0.950 . S
C2504 H2496 0.950 . S
C2504 C2505 1.386 . S
C2504 C2506 1.391 . S
C2505 C2504 1.386 . S
C2505 C2509 1.393 . S
C2506 H2498 0.950 . S
C2506 C2504 1.391 . S
C2506 C2507 1.400 . S
C2507 C2506 1.400 . S
C2507 C2508 1.398 . S
C2507 C2513 1.491 . S
C2508 H2499 0.950 . S
C2508 C2507 1.398 . S
C2508 C2509 1.391 . S
C2509 H2497 0.950 . S
C2509 C2505 1.393 . S
C2509 C2508 1.391 . S
C2510 H2500 0.950 . S
C2510 C2511 1.386 . S
C2510 C2512 1.391 . S
C2511 C2510 1.386 . S
C2511 C2515 1.393 . S
C2512 H2501 0.950 . S
C2512 C2510 1.391 . S
C2512 C2513 1.400 . S
C2513 C2507 1.491 . S
C2513 C2512 1.400 . S
C2513 C2514 1.398 . S
C2514 H2502 0.950 . S
C2514 C2513 1.398 . S
C2514 C2515 1.391 . S
C2515 H2503 0.950 . S
C2515 C2511 1.393 . S
C2515 C2514 1.391 . S
H2516 C2524 0.950 . S
H2517 C2529 0.950 . S
H2518 C2526 0.978 . S
H2519 C2528 0.950 . S
H2520 C2530 0.950 . S
H2521 C2532 0.950 . S
H2522 C2534 0.950 1_554 S
H2523 C2535 0.950 1_554 S
C2524 H2516 0.950 . S
C2524 C2525 1.386 1_554 S
C2524 C2526 1.404 . S
C2525 C2524 1.386 1_556 S
C2525 C2529 1.393 . S
C2526 H2518 0.978 . S
C2526 C2524 1.404 . S
C2526 C2527 1.364 1_554 S
C2527 C2526 1.364 1_556 S
C2527 C2528 1.398 . S
C2527 C2533 1.491 . S
C2528 H2519 0.950 . S
C2528 C2527 1.398 . S
C2528 C2529 1.391 . S
C2529 H2517 0.950 . S
C2529 C2525 1.393 . S
C2529 C2528 1.391 . S
C2530 H2520 0.950 . S
C2530 C2531 1.386 . S
C2530 C2532 1.391 . S
C2531 C2530 1.386 . S
C2531 C2535 1.393 . S
C2532 H2521 0.950 . S
C2532 C2530 1.391 . S
C2532 C2533 1.400 . S
C2533 C2527 1.491 . S
C2533 C2532 1.400 . S
C2533 C2534 1.398 . S
C2534 H2522 0.950 1_556 S
C2534 C2533 1.398 . S
C2534 C2535 1.391 . S
C2535 H2523 0.950 1_556 S
C2535 C2531 1.393 . S
C2535 C2534 1.391 . S
H2536 C2544 0.950 . S
H2537 C2549 0.950 . S
H2538 C2546 0.950 . S
H2539 C2548 0.950 . S
H2540 C2550 0.950 . S
H2541 C2552 0.950 . S
H2542 C2554 0.950 . S
H2543 C2555 0.950 . S
C2544 H2536 0.950 . S
C2544 C2545 1.386 . S
C2544 C2546 1.391 . S
C2545 C2544 1.386 . S
C2545 C2549 1.393 . S
C2546 H2538 0.950 . S
C2546 C2544 1.391 . S
C2546 C2547 1.400 . S
C2547 C2546 1.400 . S
C2547 C2548 1.398 . S
C2547 C2553 1.491 . S
C2548 H2539 0.950 . S
C2548 C2547 1.398 . S
C2548 C2549 1.391 . S
C2549 H2537 0.950 . S
C2549 C2545 1.393 . S
C2549 C2548 1.391 . S
C2550 H2540 0.950 . S
C2550 C2551 1.386 . S
C2550 C2552 1.391 . S
C2551 C2550 1.386 . S
C2551 C2555 1.393 . S
C2552 H2541 0.950 . S
C2552 C2550 1.391 . S
C2552 C2553 1.400 . S
C2553 C2547 1.491 . S
C2553 C2552 1.400 . S
C2553 C2554 1.398 . S
C2554 H2542 0.950 . S
C2554 C2553 1.398 . S
C2554 C2555 1.391 . S
C2555 H2543 0.950 . S
C2555 C2551 1.393 . S
C2555 C2554 1.391 . S
H2556 C2564 0.950 . S
H2557 C2569 0.950 1_655 S
H2558 C2566 0.950 . S
H2559 C2568 0.950 1_655 S
H2560 C2570 0.950 . S
H2561 C2572 0.977 . S
H2562 C2574 0.950 . S
H2563 C2575 0.950 . S
C2564 H2556 0.950 . S
C2564 C2565 1.386 . S
C2564 C2566 1.391 . S
C2565 C2564 1.386 . S
C2565 C2569 1.393 . S
C2566 H2558 0.950 . S
C2566 C2564 1.391 . S
C2566 C2567 1.400 . S
C2567 C2566 1.400 . S
C2567 C2568 1.398 . S
C2567 C2573 1.491 . S
C2568 H2559 0.950 1_455 S
C2568 C2567 1.398 . S
C2568 C2569 1.391 . S
C2569 H2557 0.950 1_455 S
C2569 C2565 1.393 . S
C2569 C2568 1.391 . S
C2570 H2560 0.950 . S
C2570 C2571 1.386 1_655 S
C2570 C2572 1.395 . S
C2571 C2570 1.386 1_455 S
C2571 C2575 1.393 . S
C2572 H2561 0.977 . S
C2572 C2570 1.395 . S
C2572 C2573 1.371 1_655 S
C2573 C2567 1.491 . S
C2573 C2572 1.371 1_455 S
C2573 C2574 1.398 . S
C2574 H2562 0.950 . S
C2574 C2573 1.398 . S
C2574 C2575 1.391 . S
C2575 H2563 0.950 . S
C2575 C2571 1.393 . S
C2575 C2574 1.391 . S
H2576 C2584 0.950 . S
H2577 C2589 0.950 . S
H2578 C2586 0.950 . S
H2579 C2588 0.950 . S
H2580 C2590 0.950 . S
H2581 C2592 0.950 . S
H2582 C2594 0.950 . S
H2583 C2595 0.950 . S
C2584 H2576 0.950 . S
C2584 C2585 1.386 . S
C2584 C2586 1.391 . S
C2585 C2584 1.386 . S
C2585 C2589 1.393 . S
C2586 H2578 0.950 . S
C2586 C2584 1.391 . S
C2586 C2587 1.400 . S
C2587 C2586 1.400 . S
C2587 C2588 1.398 . S
C2587 C2593 1.491 . S
C2588 H2579 0.950 . S
C2588 C2587 1.398 . S
C2588 C2589 1.391 . S
C2589 H2577 0.950 . S
C2589 C2585 1.393 . S
C2589 C2588 1.391 . S
C2590 H2580 0.950 . S
C2590 C2591 1.386 . S
C2590 C2592 1.391 . S
C2591 C2590 1.386 . S
C2591 C2595 1.393 . S
C2592 H2581 0.950 . S
C2592 C2590 1.391 . S
C2592 C2593 1.400 . S
C2593 C2587 1.491 . S
C2593 C2592 1.400 . S
C2593 C2594 1.398 . S
C2594 H2582 0.950 . S
C2594 C2593 1.398 . S
C2594 C2595 1.391 . S
C2595 H2583 0.950 . S
C2595 C2591 1.393 . S
C2595 C2594 1.391 . S
H2596 C2604 0.950 . S
H2597 C2609 0.950 . S
H2598 C2606 0.950 . S
H2599 C2608 0.950 . S
H2600 C2610 0.950 . S
H2601 C2612 0.950 . S
H2602 C2614 0.960 . S
H2603 C2615 0.935 1_455 S
C2604 H2596 0.950 . S
C2604 C2605 1.386 1_455 S
C2604 C2606 1.391 . S
C2605 C2604 1.386 1_655 S
C2605 C2609 1.393 . S
C2606 H2598 0.950 . S
C2606 C2604 1.391 . S
C2606 C2607 1.400 1_455 S
C2607 C2606 1.400 1_655 S
C2607 C2608 1.398 . S
C2607 C2613 1.491 . S
C2608 H2599 0.950 . S
C2608 C2607 1.398 . S
C2608 C2609 1.391 . S
C2609 H2597 0.950 . S
C2609 C2605 1.393 . S
C2609 C2608 1.391 . S
C2610 H2600 0.950 . S
C2610 C2611 1.386 . S
C2610 C2612 1.391 . S
C2611 C2610 1.386 . S
C2611 C2615 1.412 . S
C2612 H2601 0.950 . S
C2612 C2610 1.391 . S
C2612 C2613 1.400 . S
C2613 C2607 1.491 . S
C2613 C2612 1.400 . S
C2613 C2614 1.391 1_655 S
C2614 H2602 0.960 . S
C2614 C2613 1.391 1_455 S
C2614 C2615 1.384 1_455 S
C2615 H2603 0.935 1_655 S
C2615 C2611 1.412 . S
C2615 C2614 1.384 1_655 S
H2616 C2624 0.950 . S
H2617 C2629 0.950 . S
H2618 C2626 0.950 . S
H2619 C2628 0.950 . S
H2620 C2630 0.950 . S
H2621 C2632 0.950 . S
H2622 C2634 0.950 . S
H2623 C2635 0.950 . S
C2624 H2616 0.950 . S
C2624 C2625 1.386 . S
C2624 C2626 1.391 . S
C2625 C2624 1.386 . S
C2625 C2629 1.393 . S
C2626 H2618 0.950 . S
C2626 C2624 1.391 . S
C2626 C2627 1.400 . S
C2627 C2626 1.400 . S
C2627 C2628 1.398 . S
C2627 C2633 1.491 . S
C2628 H2619 0.950 . S
C2628 C2627 1.398 . S
C2628 C2629 1.391 . S
C2629 H2617 0.950 . S
C2629 C2625 1.393 . S
C2629 C2628 1.391 . S
C2630 H2620 0.950 . S
C2630 C2631 1.386 . S
C2630 C2632 1.391 . S
C2631 C2630 1.386 . S
C2631 C2635 1.393 . S
C2632 H2621 0.950 . S
C2632 C2630 1.391 . S
C2632 C2633 1.400 . S
C2633 C2627 1.491 . S
C2633 C2632 1.400 . S
C2633 C2634 1.398 . S
C2634 H2622 0.950 . S
C2634 C2633 1.398 . S
C2634 C2635 1.391 . S
C2635 H2623 0.950 . S
C2635 C2631 1.393 . S
C2635 C2634 1.391 . S
H2636 C2644 0.950 . S
H2637 C2649 0.950 . S
H2638 C2646 0.950 . S
H2639 C2648 0.950 . S
H2640 C2650 0.950 . S
H2641 C2652 0.950 . S
H2642 C2654 0.950 . S
H2643 C2655 0.950 . S
C2644 H2636 0.950 . S
C2644 C2645 1.386 . S
C2644 C2646 1.391 . S
C2645 C2644 1.386 . S
C2645 C2649 1.393 . S
C2646 H2638 0.950 . S
C2646 C2644 1.391 . S
C2646 C2647 1.400 . S
C2647 C2646 1.400 . S
C2647 C2648 1.398 . S
C2647 C2653 1.491 . S
C2648 H2639 0.950 . S
C2648 C2647 1.398 . S
C2648 C2649 1.391 . S
C2649 H2637 0.950 . S
C2649 C2645 1.393 . S
C2649 C2648 1.391 . S
C2650 H2640 0.950 . S
C2650 C2651 1.386 . S
C2650 C2652 1.391 . S
C2651 C2650 1.386 . S
C2651 C2655 1.393 . S
C2652 H2641 0.950 . S
C2652 C2650 1.391 . S
C2652 C2653 1.400 . S
C2653 C2647 1.491 . S
C2653 C2652 1.400 . S
C2653 C2654 1.398 . S
C2654 H2642 0.950 . S
C2654 C2653 1.398 . S
C2654 C2655 1.391 . S
C2655 H2643 0.950 . S
C2655 C2651 1.393 . S
C2655 C2654 1.391 . S
H2656 C2664 0.950 . S
H2657 C2669 0.950 . S
H2658 C2666 0.950 . S
H2659 C2668 0.971 . S
H2660 C2670 0.923 1_565 S
H2661 C2672 0.948 1_565 S
H2662 C2674 0.950 . S
H2663 C2675 0.950 . S
C2664 H2656 0.950 . S
C2664 C2665 1.386 . S
C2664 C2666 1.391 . S
C2665 C2664 1.386 . S
C2665 C2669 1.393 1_545 S
C2666 H2658 0.950 . S
C2666 C2664 1.391 . S
C2666 C2667 1.400 . S
C2667 C2666 1.400 . S
C2667 C2668 1.369 1_545 S
C2667 C2673 1.491 . S
C2668 H2659 0.971 . S
C2668 C2667 1.369 1_565 S
C2668 C2669 1.401 . S
C2669 H2657 0.950 . S
C2669 C2665 1.393 1_565 S
C2669 C2668 1.401 . S
C2670 H2660 0.923 1_545 S
C2670 C2671 1.425 . S
C2670 C2672 1.382 . S
C2671 C2670 1.425 . S
C2671 C2675 1.393 . S
C2672 H2661 0.948 1_545 S
C2672 C2670 1.382 . S
C2672 C2673 1.401 . S
C2673 C2667 1.491 . S
C2673 C2672 1.401 . S
C2673 C2674 1.398 . S
C2674 H2662 0.950 . S
C2674 C2673 1.398 . S
C2674 C2675 1.391 . S
C2675 H2663 0.950 . S
C2675 C2671 1.393 . S
C2675 C2674 1.391 . S
H2676 C2684 0.950 . S
H2677 C2689 0.950 . S
H2678 C2686 0.950 . S
H2679 C2688 0.950 . S
H2680 C2690 0.971 . S
H2681 C2692 0.950 . S
H2682 C2694 0.950 . S
H2683 C2695 0.950 . S
C2684 H2676 0.950 . S
C2684 C2685 1.386 . S
C2684 C2686 1.391 . S
C2685 C2684 1.386 . S
C2685 C2689 1.393 . S
C2686 H2678 0.950 . S
C2686 C2684 1.391 . S
C2686 C2687 1.400 . S
C2687 C2686 1.400 . S
C2687 C2688 1.398 . S
C2687 C2693 1.491 . S
C2688 H2679 0.950 . S
C2688 C2687 1.398 . S
C2688 C2689 1.391 . S
C2689 H2677 0.950 . S
C2689 C2685 1.393 . S
C2689 C2688 1.391 . S
C2690 H2680 0.971 . S
C2690 C2691 1.386 . S
C2690 C2692 1.391 . S
C2691 C2690 1.386 . S
C2691 C2695 1.393 . S
C2692 H2681 0.950 . S
C2692 C2690 1.391 . S
C2692 C2693 1.400 . S
C2693 C2687 1.491 . S
C2693 C2692 1.400 . S
C2693 C2694 1.398 . S
C2694 H2682 0.950 . S
C2694 C2693 1.398 . S
C2694 C2695 1.391 . S
C2695 H2683 0.950 . S
C2695 C2691 1.393 . S
C2695 C2694 1.391 . S
H2696 C2704 0.950 . S
H2697 C2709 0.950 . S
H2698 C2706 0.950 . S
H2699 C2708 0.950 . S
H2700 C2710 0.950 . S
H2701 C2712 0.950 . S
H2702 C2714 0.950 . S
H2703 C2715 0.950 . S
C2704 H2696 0.950 . S
C2704 C2705 1.386 . S
C2704 C2706 1.391 . S
C2705 C2704 1.386 . S
C2705 C2709 1.393 . S
C2706 H2698 0.950 . S
C2706 C2704 1.391 . S
C2706 C2707 1.400 . S
C2707 C2706 1.400 . S
C2707 C2708 1.398 . S
C2707 C2713 1.491 . S
C2708 H2699 0.950 . S
C2708 C2707 1.398 . S
C2708 C2709 1.391 . S
C2709 H2697 0.950 . S
C2709 C2705 1.393 . S
C2709 C2708 1.391 . S
C2710 H2700 0.950 . S
C2710 C2711 1.386 . S
C2710 C2712 1.391 . S
C2711 C2710 1.386 . S
C2711 C2715 1.393 . S
C2712 H2701 0.950 . S
C2712 C2710 1.391 . S
C2712 C2713 1.400 . S
C2713 C2707 1.491 . S
C2713 C2712 1.400 . S
C2713 C2714 1.398 . S
C2714 H2702 0.950 . S
C2714 C2713 1.398 . S
C2714 C2715 1.391 . S
C2715 H2703 0.950 . S
C2715 C2711 1.393 . S
C2715 C2714 1.391 . S
H2716 C2724 0.950 . S
H2717 C2729 0.950 . S
H2718 C2726 0.950 . S
H2719 C2728 0.950 . S
H2720 C2730 0.950 . S
H2721 C2732 0.950 . S
H2722 C2734 0.950 . S
H2723 C2735 0.950 . S
C2724 H2716 0.950 . S
C2724 C2725 1.386 . S
C2724 C2726 1.391 . S
C2725 C2724 1.386 . S
C2725 C2729 1.393 . S
C2726 H2718 0.950 . S
C2726 C2724 1.391 . S
C2726 C2727 1.400 . S
C2727 C2726 1.400 . S
C2727 C2728 1.398 . S
C2727 C2733 1.491 . S
C2728 H2719 0.950 . S
C2728 C2727 1.398 . S
C2728 C2729 1.391 . S
C2729 H2717 0.950 . S
C2729 C2725 1.393 . S
C2729 C2728 1.391 . S
C2730 H2720 0.950 . S
C2730 C2731 1.386 . S
C2730 C2732 1.391 . S
C2731 C2730 1.386 . S
C2731 C2735 1.393 . S
C2732 H2721 0.950 . S
C2732 C2730 1.391 . S
C2732 C2733 1.400 . S
C2733 C2727 1.491 . S
C2733 C2732 1.400 . S
C2733 C2734 1.398 . S
C2734 H2722 0.950 . S
C2734 C2733 1.398 . S
C2734 C2735 1.391 . S
C2735 H2723 0.950 . S
C2735 C2731 1.393 . S
C2735 C2734 1.391 . S
H2736 C2744 0.950 . S
H2737 C2749 0.950 . S
H2738 C2746 0.950 . S
H2739 C2748 0.950 . S
H2740 C2750 0.950 . S
H2741 C2752 0.950 . S
H2742 C2754 0.950 . S
H2743 C2755 0.950 . S
C2744 H2736 0.950 . S
C2744 C2745 1.386 . S
C2744 C2746 1.391 . S
C2745 C2744 1.386 . S
C2745 C2749 1.393 . S
C2746 H2738 0.950 . S
C2746 C2744 1.391 . S
C2746 C2747 1.400 . S
C2747 C2746 1.400 . S
C2747 C2748 1.398 . S
C2747 C2753 1.491 . S
C2748 H2739 0.950 . S
C2748 C2747 1.398 . S
C2748 C2749 1.391 . S
C2749 H2737 0.950 . S
C2749 C2745 1.393 . S
C2749 C2748 1.391 . S
C2750 H2740 0.950 . S
C2750 C2751 1.386 . S
C2750 C2752 1.391 . S
C2751 C2750 1.386 . S
C2751 C2755 1.393 . S
C2752 H2741 0.950 . S
C2752 C2750 1.391 . S
C2752 C2753 1.400 . S
C2753 C2747 1.491 . S
C2753 C2752 1.400 . S
C2753 C2754 1.398 . S
C2754 H2742 0.950 . S
C2754 C2753 1.398 . S
C2754 C2755 1.391 . S
C2755 H2743 0.950 . S
C2755 C2751 1.393 . S
C2755 C2754 1.391 . S
H2756 C2764 0.950 . S
H2757 C2769 0.950 . S
H2758 C2766 0.950 . S
H2759 C2768 0.950 . S
H2760 C2770 0.950 . S
H2761 C2772 0.950 . S
H2762 C2774 0.950 . S
H2763 C2775 0.950 . S
C2764 H2756 0.950 . S
C2764 C2765 1.386 . S
C2764 C2766 1.391 . S
C2765 C2764 1.386 . S
C2765 C2769 1.393 . S
C2766 H2758 0.950 . S
C2766 C2764 1.391 . S
C2766 C2767 1.400 . S
C2767 C2766 1.400 . S
C2767 C2768 1.398 . S
C2767 C2773 1.491 . S
C2768 H2759 0.950 . S
C2768 C2767 1.398 . S
C2768 C2769 1.391 . S
C2769 H2757 0.950 . S
C2769 C2765 1.393 . S
C2769 C2768 1.391 . S
C2770 H2760 0.950 . S
C2770 C2771 1.386 . S
C2770 C2772 1.391 . S
C2771 C2770 1.386 . S
C2771 C2775 1.393 . S
C2772 H2761 0.950 . S
C2772 C2770 1.391 . S
C2772 C2773 1.400 . S
C2773 C2767 1.491 . S
C2773 C2772 1.400 . S
C2773 C2774 1.398 . S
C2774 H2762 0.950 . S
C2774 C2773 1.398 . S
C2774 C2775 1.391 . S
C2775 H2763 0.950 . S
C2775 C2771 1.393 . S
C2775 C2774 1.391 . S
H2776 C2784 0.950 . S
H2777 C2789 0.950 . S
H2778 C2786 0.950 . S
H2779 C2788 0.950 . S
H2780 C2790 0.950 . S
H2781 C2792 0.950 . S
H2782 C2794 0.950 . S
H2783 C2795 0.950 . S
C2784 H2776 0.950 . S
C2784 C2785 1.386 . S
C2784 C2786 1.391 . S
C2785 C2784 1.386 . S
C2785 C2789 1.393 . S
C2786 H2778 0.950 . S
C2786 C2784 1.391 . S
C2786 C2787 1.400 . S
C2787 C2786 1.400 . S
C2787 C2788 1.398 . S
C2787 C2793 1.491 . S
C2788 H2779 0.950 . S
C2788 C2787 1.398 . S
C2788 C2789 1.391 . S
C2789 H2777 0.950 . S
C2789 C2785 1.393 . S
C2789 C2788 1.391 . S
C2790 H2780 0.950 . S
C2790 C2791 1.386 . S
C2790 C2792 1.391 . S
C2791 C2790 1.386 . S
C2791 C2795 1.393 . S
C2792 H2781 0.950 . S
C2792 C2790 1.391 . S
C2792 C2793 1.400 . S
C2793 C2787 1.491 . S
C2793 C2792 1.400 . S
C2793 C2794 1.398 . S
C2794 H2782 0.950 . S
C2794 C2793 1.398 . S
C2794 C2795 1.391 . S
C2795 H2783 0.950 . S
C2795 C2791 1.393 . S
C2795 C2794 1.391 . S
H2796 C2804 0.950 . S
H2797 C2809 0.950 . S
H2798 C2806 0.950 . S
H2799 C2808 0.950 . S
H2800 C2810 0.950 . S
H2801 C2812 0.950 . S
H2802 C2814 0.950 . S
H2803 C2815 0.950 . S
C2804 H2796 0.950 . S
C2804 C2805 1.386 . S
C2804 C2806 1.391 . S
C2805 C2804 1.386 . S
C2805 C2809 1.393 . S
C2806 H2798 0.950 . S
C2806 C2804 1.391 . S
C2806 C2807 1.400 . S
C2807 C2806 1.400 . S
C2807 C2808 1.398 . S
C2807 C2813 1.491 . S
C2808 H2799 0.950 . S
C2808 C2807 1.398 . S
C2808 C2809 1.391 . S
C2809 H2797 0.950 . S
C2809 C2805 1.393 . S
C2809 C2808 1.391 . S
C2810 H2800 0.950 . S
C2810 C2811 1.386 . S
C2810 C2812 1.391 . S
C2811 C2810 1.386 . S
C2811 C2815 1.393 . S
C2812 H2801 0.950 . S
C2812 C2810 1.391 . S
C2812 C2813 1.400 . S
C2813 C2807 1.491 . S
C2813 C2812 1.400 . S
C2813 C2814 1.398 . S
C2814 H2802 0.950 . S
C2814 C2813 1.398 . S
C2814 C2815 1.391 . S
C2815 H2803 0.950 . S
C2815 C2811 1.393 . S
C2815 C2814 1.391 . S
H2816 C2824 0.950 . S
H2817 C2829 0.950 . S
H2818 C2826 0.950 . S
H2819 C2828 0.950 . S
H2820 C2830 0.950 . S
H2821 C2832 0.950 . S
H2822 C2834 0.950 . S
H2823 C2835 0.950 . S
C2824 H2816 0.950 . S
C2824 C2825 1.386 . S
C2824 C2826 1.391 . S
C2825 C2824 1.386 . S
C2825 C2829 1.393 . S
C2826 H2818 0.950 . S
C2826 C2824 1.391 . S
C2826 C2827 1.400 . S
C2827 C2826 1.400 . S
C2827 C2828 1.398 . S
C2827 C2833 1.491 . S
C2828 H2819 0.950 . S
C2828 C2827 1.398 . S
C2828 C2829 1.391 . S
C2829 H2817 0.950 . S
C2829 C2825 1.393 . S
C2829 C2828 1.391 . S
C2830 H2820 0.950 . S
C2830 C2831 1.386 . S
C2830 C2832 1.391 . S
C2831 C2830 1.386 . S
C2831 C2835 1.393 . S
C2832 H2821 0.950 . S
C2832 C2830 1.391 . S
C2832 C2833 1.400 . S
C2833 C2827 1.491 . S
C2833 C2832 1.400 . S
C2833 C2834 1.398 . S
C2834 H2822 0.950 . S
C2834 C2833 1.398 . S
C2834 C2835 1.391 . S
C2835 H2823 0.950 . S
C2835 C2831 1.393 . S
C2835 C2834 1.391 . S
H2836 C2844 0.950 . S
H2837 C2849 0.950 . S
H2838 C2846 0.950 . S
H2839 C2848 0.950 . S
H2840 C2850 0.950 . S
H2841 C2852 0.950 . S
H2842 C2854 0.950 . S
H2843 C2855 0.950 . S
C2844 H2836 0.950 . S
C2844 C2845 1.386 . S
C2844 C2846 1.391 . S
C2845 C2844 1.386 . S
C2845 C2849 1.393 . S
C2846 H2838 0.950 . S
C2846 C2844 1.391 . S
C2846 C2847 1.400 . S
C2847 C2846 1.400 . S
C2847 C2848 1.398 . S
C2847 C2853 1.491 . S
C2848 H2839 0.950 . S
C2848 C2847 1.398 . S
C2848 C2849 1.391 . S
C2849 H2837 0.950 . S
C2849 C2845 1.393 . S
C2849 C2848 1.391 . S
C2850 H2840 0.950 . S
C2850 C2851 1.386 . S
C2850 C2852 1.391 . S
C2851 C2850 1.386 . S
C2851 C2855 1.393 . S
C2852 H2841 0.950 . S
C2852 C2850 1.391 . S
C2852 C2853 1.400 . S
C2853 C2847 1.491 . S
C2853 C2852 1.400 . S
C2853 C2854 1.398 . S
C2854 H2842 0.950 . S
C2854 C2853 1.398 . S
C2854 C2855 1.391 . S
C2855 H2843 0.950 . S
C2855 C2851 1.393 . S
C2855 C2854 1.391 . S
C1431 C1403 1.655 1_455 S
C1425 C15 1.753 . S
C1451 C1346 1.376 . S
C1445 C55 1.414 . S
C1471 C1384 0.973 . S
C1465 C95 1.100 . S
C1491 C1365 1.539 . S
C1485 C135 1.573 . S
C1511 C1232 1.668 1_545 S
C1505 C175 1.751 . S
C1525 C215 1.573 . S
C1531 C1251 1.540 . S
C1551 C1194 1.376 . S
C1545 C255 1.414 . S
C1565 C295 1.098 . S
C1571 C1213 0.988 . S
C1591 C1327 1.657 1_554 S
C1585 C335 1.753 . S
C1605 C375 1.572 . S
C1611 C1289 1.538 . S
C1625 C415 1.406 . S
C1631 C1270 1.383 . S
C1651 C1308 1.009 . S
C1645 C455 1.101 . S
C1671 C1175 1.652 1_655 S
C1665 C495 1.752 . S
C1685 C535 1.407 . S
C1691 C1118 1.379 . S
C1711 C1156 1.012 . S
C1705 C575 1.108 . S
C1725 C615 1.567 . S
C1731 C1137 1.545 . S
C1751 C1004 1.672 1_565 S
C1745 C655 1.749 . S
C1771 C1023 1.565 . S
C1765 C695 1.559 . S
C1785 C735 1.396 . S
C1791 C966 1.391 . S
C1805 C775 1.102 . S
C1811 C985 0.977 . S
C1825 C815 1.748 . S
C1831 C1099 1.676 1_556 S
C1845 C855 1.571 . S
C1851 C1061 1.552 . S
C1871 C1042 1.399 . S
C1865 C895 1.388 . S
C1885 C935 1.099 . S
C1891 C1080 1.006 . S
C1911 C962 1.558 . S
C1905 C21 1.622 . S
C1931 C981 1.627 . S
C1925 C61 1.756 . S
C1945 C101 0.985 . S
C1951 C1000 0.965 . S
C1965 C141 1.112 . S
C1971 C1019 1.041 . S
C1991 C1038 1.542 . S
C1985 C181 1.623 . S
C2005 C221 1.120 . S
C2011 C1057 1.061 . S
C2031 C1076 1.593 . S
C2025 C261 1.747 . S
C2051 C1095 0.979 . S
C2045 C301 0.971 . S
C2071 C1114 1.556 . S
C2065 C341 1.621 . S
C2085 C381 1.120 . S
C2091 C1133 1.042 . S
C2105 C421 1.754 . S
C2111 C1152 1.596 . S
C2125 C461 0.981 . S
C2131 C1171 0.947 . S
C2145 C501 1.569 . S
C2151 C1190 1.531 . S
C2165 C541 1.615 . S
C2171 C1209 1.589 . S
C2185 C581 0.958 . S
C2191 C1228 0.942 . S
C2205 C621 1.074 . S
C2211 C1247 1.049 . S
C2225 C661 1.569 . S
C2231 C1266 1.531 . S
C2251 C1285 1.069 . S
C2245 C701 1.079 . S
C2271 C1304 1.591 . S
C2265 C741 1.609 . S
C2291 C1323 0.942 . S
C2285 C781 0.957 . S
C2311 C1342 1.554 . S
C2305 C821 1.582 . S
C2325 C861 1.093 . S
C2331 C1361 1.067 . S
C2345 C901 1.642 . S
C2351 C1380 1.620 . S
C2365 C941 0.957 . S
C2371 C1399 0.955 . S
C2385 C2 1.666 . S
C2391 C1123 1.618 . S
C2411 C1180 1.906 . S
C2405 C42 1.936 . S
C2425 C82 1.618 . S
C2431 C1142 1.591 . S
C2451 C1161 1.535 . S
C2445 C122 1.609 . S
C2465 C162 1.668 . S
C2471 C971 1.621 . S
C2485 C202 1.606 . S
C2491 C990 1.532 . S
C2505 C242 1.937 . S
C2511 C1009 1.904 . S
C2525 C282 1.625 . S
C2531 C1028 1.579 . S
C2551 C1047 1.607 . S
C2545 C322 1.667 . S
C2571 C1085 1.518 . S
C2565 C362 1.603 . S
C2585 C402 1.943 . S
C2591 C1104 1.910 . S
C2605 C442 1.625 . S
C2611 C1066 1.581 . S
C2631 C1351 1.570 . S
C2625 C482 1.644 . S
C2651 C1408 1.805 . S
C2645 C522 1.877 . S
C2665 C562 1.623 . S
C2671 C1370 1.481 . S
C2691 C1389 1.494 . S
C2685 C602 1.577 . S
C2705 C642 1.650 . S
C2711 C1199 1.586 . S
C2725 C682 1.578 . S
C2731 C1218 1.499 . S
C2745 C722 1.857 . S
C2751 C1237 1.788 . S
C2771 C1256 1.494 . S
C2765 C762 1.625 . S
C2791 C1275 1.580 . S
C2785 C802 1.646 . S
C2811 C1313 1.465 . S
C2805 C842 1.556 . S
C2825 C882 1.855 . S
C2831 C1332 1.781 . S
C2851 C1294 1.495 . S
C2845 C922 1.625 . S
