# Generated by pormake.
# Topology rtl, (3,6)-cn, num edge types: 1
# Building blocks:
#     Node 0, Type 0, BuildingBlock: INOVEN_clean_linker_0, # of connection points: 3
#     Node 1, Type 0, BuildingBlock: INOVEN_clean_linker_0, # of connection points: 3
#     Node 2, Type 0, BuildingBlock: INOVEN_clean_linker_0, # of connection points: 3
#     Node 3, Type 0, BuildingBlock: INOVEN_clean_linker_0, # of connection points: 3
#     Node 4, Type 1, BuildingBlock: VOLQOD_clean_sbu_1, # of connection points: 6
#     Node 5, Type 1, BuildingBlock: VOLQOD_clean_sbu_1, # of connection points: 6
#     Edge 6, Type (0, 1), BuildingBlock: EZIPEK_clean_linker_0, # of connection points: 2
#     Edge 7, Type (0, 1), BuildingBlock: EZIPEK_clean_linker_0, # of connection points: 2
#     Edge 8, Type (0, 1), BuildingBlock: EZIPEK_clean_linker_0, # of connection points: 2
#     Edge 9, Type (0, 1), BuildingBlock: EZIPEK_clean_linker_0, # of connection points: 2
#     Edge 10, Type (0, 1), BuildingBlock: EZIPEK_clean_linker_0, # of connection points: 2
#     Edge 11, Type (0, 1), BuildingBlock: EZIPEK_clean_linker_0, # of connection points: 2
#     Edge 12, Type (0, 1), BuildingBlock: EZIPEK_clean_linker_0, # of connection points: 2
#     Edge 13, Type (0, 1), BuildingBlock: EZIPEK_clean_linker_0, # of connection points: 2
#     Edge 14, Type (0, 1), BuildingBlock: EZIPEK_clean_linker_0, # of connection points: 2
#     Edge 15, Type (0, 1), BuildingBlock: EZIPEK_clean_linker_0, # of connection points: 2
#     Edge 16, Type (0, 1), BuildingBlock: EZIPEK_clean_linker_0, # of connection points: 2
#     Edge 17, Type (0, 1), BuildingBlock: EZIPEK_clean_linker_0, # of connection points: 2
# Relax obj value: 0.043
# Max RMSD: 0.144
# Mean RMSD: 0.090
data_MOF--net-rtl--node1-VOLQOD_clean_sbu_1--node2-INOVEN_clean_linker_0--edge1-EZIPEK_clean_linker_0
_symmetry_space_group_name_H-M    P1
_symmetry_Int_Tables_number       1
_symmetry_cell_setting            triclinic
loop_
_symmetry_equiv_pos_as_xyz
'x, y, z'
_cell_length_a     28.214698
_cell_length_b     27.791823
_cell_length_c     16.466964
_cell_angle_alpha  91.645109
_cell_angle_beta   91.891497
_cell_angle_gamma 89.95115
loop_
_atom_site_label
_atom_site_type_symbol
_atom_site_fract_x
_atom_site_fract_y
_atom_site_fract_z
_atom_type_partial_charge
H0 H 0.19526 0.77078 0.87213 0.0
H1 H 0.10601 0.87117 -0.0013 0.0
H2 H 0.19606 0.7756 0.13427 0.0
N3 N 0.23532 0.73246 0.00172 0.0
N4 N 0.25324 0.71603 0.06536 0.0
C5 C 0.18225 0.7858 0.92865 0.0
C6 C 0.14855 0.82284 0.92714 0.0
C7 C 0.19983 0.76862 0.00291 0.0
C8 C 0.18289 0.78842 0.07626 0.0
C9 C 0.14903 0.82544 0.07455 0.0
C10 C 0.13205 0.84243 0.0 0.0
H11 H 0.68442 0.73656 0.65155 0.0
H12 H 0.6166 0.62192 0.50921 0.0
H13 H 0.7003 0.72601 0.39209 0.0
N14 N 0.73088 0.77339 0.53015 0.0
N15 N 0.74792 0.79071 0.46841 0.0
C16 C 0.67703 0.71818 0.59359 0.0
C17 C 0.64794 0.67694 0.58934 0.0
C18 C 0.69754 0.73513 0.52329 0.0
C19 C 0.68616 0.7126 0.44749 0.0
C20 C 0.65642 0.67241 0.4428 0.0
C21 C 0.63899 0.65367 0.51362 0.0
H22 H 0.82661 0.22593 0.8724 0.0
H23 H 0.91526 0.13221 0.01421 0.0
H24 H 0.82245 0.23193 0.13415 0.0
N25 N 0.78467 0.26907 -0.00535 0.0
N26 N 0.7667 0.28907 0.05495 0.0
C27 C 0.83947 0.21388 0.93116 0.0
C28 C 0.87356 0.17738 0.93558 0.0
C29 C 0.82087 0.23395 0.00225 0.0
C30 C 0.83702 0.21745 0.07852 0.0
C31 C 0.87122 0.18082 0.08255 0.0
C32 C 0.88945 0.16112 0.01111 0.0
H33 H 0.31592 0.27533 0.35409 0.0
H34 H 0.40675 0.37766 0.48297 0.0
H35 H 0.31873 0.28407 0.61626 0.0
N36 N 0.27835 0.23823 0.4827 0.0
N37 N 0.26338 0.22089 0.54598 0.0
C38 C 0.32949 0.29134 0.41098 0.0
C39 C 0.36333 0.32816 0.41046 0.0
C40 C 0.31313 0.27511 0.48478 0.0
C41 C 0.33096 0.29614 0.55858 0.0
C42 C 0.36461 0.33329 0.55776 0.0
C43 C 0.38063 0.34904 0.48366 0.0
O44 O 0.89837 0.96647 0.49623 0.0
Zn45 Zn 0.94345 0.02229 0.50367 0.0
O46 O 0.00957 0.00107 0.50426 0.0
Zn47 Zn 0.04165 0.02355 0.6051 0.0
Zn48 Zn 0.01133 0.93063 0.49757 0.0
Zn49 Zn 0.04137 0.02783 0.41168 0.0
O50 O 0.09593 0.06728 0.58348 0.0
O51 O 0.09538 0.07174 0.44878 0.0
O52 O 0.92911 0.06057 0.60427 0.0
O53 O -0.00265 0.06098 0.67593 0.0
O54 O 0.06714 0.96824 0.66879 0.0
O55 O 0.0455 0.90328 0.59463 0.0
O56 O 0.04574 0.90745 0.39936 0.0
O57 O 0.92819 0.0638 0.40929 0.0
O58 O 0.06757 0.97462 0.34023 0.0
O59 O 0.99565 0.06678 0.34331 0.0
C60 C 0.90439 0.92114 0.49167 0.0
C61 C 0.11272 0.08348 0.51894 0.0
C62 C 0.06572 0.92278 0.6574 0.0
C63 C 0.95397 0.07282 0.6672 0.0
C64 C 0.06623 0.92887 0.34298 0.0
C65 C 0.95219 0.07801 0.35057 0.0
O66 O 0.94556 0.90239 0.49101 0.0
O67 O 0.61763 0.46176 0.00749 0.0
Zn68 Zn 0.5752 0.51927 0.00087 0.0
O69 O 0.50866 0.50135 0.00652 0.0
Zn70 Zn 0.47334 0.53231 0.91867 0.0
Zn71 Zn 0.50362 0.43137 -0.00349 0.0
Zn72 Zn 0.48361 0.523 0.1098 0.0
O73 O 0.4191 0.57229 0.96012 0.0
O74 O 0.42895 0.56833 0.09424 0.0
O75 O 0.58792 0.55349 0.89781 0.0
O76 O 0.51582 0.57679 0.85878 0.0
O77 O 0.44727 0.48152 0.83848 0.0
O78 O 0.47071 0.41206 0.89122 0.0
O79 O 0.46562 0.40479 0.08583 0.0
O80 O 0.59491 0.56226 0.09637 0.0
O81 O 0.45828 0.4678 0.17091 0.0
O82 O 0.53346 0.55798 0.17748 0.0
C83 C 0.60984 0.41677 0.0088 0.0
C84 C 0.40687 0.58388 0.03177 0.0
C85 C 0.44951 0.43564 0.83571 0.0
C86 C 0.56062 0.57793 0.8517 0.0
C87 C 0.45188 0.42347 0.15239 0.0
C88 C 0.57516 0.57216 0.1632 0.0
O89 O 0.56797 0.39962 0.00423 0.0
C90 C 0.23419 0.14095 0.49762 0.0
C91 C 0.22778 0.18469 0.54249 0.0
C92 C 0.14611 0.16259 0.56965 0.0
C93 C 0.15248 0.1182 0.52639 0.0
N94 N 0.20406 0.06112 0.46035 0.0
N95 N 0.18303 0.23309 0.63512 0.0
C96 C 0.19691 0.10631 0.49287 0.0
C97 C 0.18542 0.19393 0.58332 0.0
N98 N 0.27635 0.13227 0.46145 0.0
N99 N 0.10194 0.17593 0.59379 0.0
H100 H 0.21122 0.25715 0.6445 0.0
H101 H 0.15496 0.23958 0.67344 0.0
H102 H 0.07187 0.15468 0.58263 0.0
H103 H 0.09413 0.20982 0.61839 0.0
H104 H 0.28179 0.1043 0.41944 0.0
H105 H 0.3061 0.15403 0.47237 0.0
H106 H 0.23669 0.04838 0.44145 0.0
H107 H 0.17786 0.03462 0.45726 0.0
C108 C 0.33391 0.69181 0.10038 0.0
C109 C 0.28963 0.68074 0.06218 0.0
C110 C 0.32026 0.60291 0.01335 0.0
C111 C 0.36624 0.61683 0.04308 0.0
N112 N 0.41848 0.67672 0.10658 0.0
N113 N 0.23828 0.62593 -0.01429 0.0
C114 C 0.3735 0.66171 0.08518 0.0
C115 C 0.28213 0.63631 0.01926 0.0
N116 N 0.33786 0.73157 0.1509 0.0
N117 N 0.31274 0.55704 -0.01673 0.0
H118 H 0.20856 0.64708 -0.00277 0.0
H119 H 0.23137 0.59723 0.94507 0.0
H120 H 0.3396 0.53133 0.97978 0.0
H121 H 0.27946 0.54298 0.96729 0.0
H122 H 0.36787 0.73948 0.18731 0.0
H123 H 0.30934 0.75466 0.1613 0.0
H124 H 0.42647 0.71105 0.13004 0.0
H125 H 0.44862 0.65637 0.09449 0.0
C126 C 0.78645 0.86252 0.53513 0.0
C127 C 0.78371 0.82683 0.47189 0.0
C128 C 0.85533 0.85943 0.41371 0.0
C129 C 0.86231 0.88947 0.48423 0.0
N130 N 0.83755 0.91557 0.61753 0.0
N131 N 0.81524 0.78978 0.35178 0.0
C132 C 0.82863 0.89006 0.54648 0.0
C133 C 0.81793 0.82524 0.411 0.0
N134 N 0.74785 0.87231 0.58067 0.0
N135 N 0.88328 0.86482 0.34827 0.0
H136 H 0.7873 0.76516 0.3468 0.0
H137 H 0.84201 0.78284 0.31097 0.0
H138 H 0.91045 0.89022 0.34734 0.0
H139 H 0.87692 0.84729 0.29226 0.0
H140 H 0.74675 0.90073 0.62322 0.0
H141 H 0.71494 0.85626 0.56829 0.0
H142 H 0.81642 0.91318 0.66796 0.0
H143 H 0.86837 0.9357 0.62882 0.0
C144 C 0.72986 0.35744 -0.01662 0.0
C145 C 0.72976 0.32361 0.0462 0.0
C146 C 0.65403 0.35586 0.09158 0.0
C147 C 0.65066 0.38405 0.02098 0.0
N148 N 0.68254 0.40681 0.89327 0.0
N149 N 0.69173 0.28841 0.1583 0.0
C150 C 0.68783 0.38354 0.965 0.0
C151 C 0.69188 0.32245 0.10011 0.0
N152 N 0.77085 0.36688 0.94498 0.0
N153 N 0.62248 0.36262 0.15213 0.0
H154 H 0.71985 0.26449 0.1673 0.0
H155 H 0.66268 0.28183 0.19378 0.0
H156 H 0.59526 0.38796 0.14942 0.0
H157 H 0.62587 0.34643 0.20828 0.0
H158 H 0.77384 0.39418 0.9034 0.0
H159 H 0.80329 0.35171 0.96245 0.0
H160 H 0.70668 0.40349 0.8469 0.0
H161 H 0.65191 0.42574 0.87691 0.0
C162 C 0.15769 0.88188 0.19606 0.0
C163 C 0.13043 0.84716 0.1503 0.0
C164 C 0.06076 0.86679 0.22952 0.0
C165 C 0.08866 0.89966 0.27831 0.0
N166 N 0.16582 0.93068 0.32007 0.0
N167 N 0.05974 0.79884 0.13386 0.0
C168 C 0.13783 0.90492 0.26517 0.0
C169 C 0.08312 0.83709 0.17061 0.0
N170 N 0.20177 0.8943 0.17162 0.0
N171 N 0.01257 0.86584 0.23616 0.0
H172 H 0.07521 0.77634 0.09034 0.0
H173 H 0.0269 0.78671 0.15187 0.0
H174 H 0.99449 0.88794 0.27694 0.0
H175 H 0.98999 0.84638 0.19617 0.0
H176 H 0.22095 0.92338 0.19681 0.0
H177 H 0.21789 0.87773 0.12206 0.0
H178 H 0.20266 0.93169 0.31812 0.0
H179 H 0.15268 0.94746 0.37217 0.0
C180 C 0.6516 0.64592 0.73335 0.0
C181 C 0.62487 0.65805 0.6623 0.0
C182 C 0.55691 0.61487 0.71236 0.0
C183 C 0.5816 0.60772 0.78784 0.0
N184 N 0.64729 0.63383 0.87731 0.0
N185 N 0.54666 0.6688 0.60096 0.0
C186 C 0.6274 0.62862 0.80084 0.0
C187 C 0.57562 0.64763 0.6576 0.0
N188 N 0.69995 0.64828 0.73583 0.0
N189 N 0.51787 0.5882 0.68915 0.0
H190 H 0.5588 0.69484 0.56221 0.0
H191 H 0.50992 0.66445 0.59945 0.0
H192 H 0.50595 0.55914 0.72137 0.0
H193 H 0.50144 0.59067 0.63174 0.0
H194 H 0.72049 0.63573 0.78462 0.0
H195 H 0.71961 0.65757 0.68617 0.0
H196 H 0.67928 0.65189 0.88905 0.0
H197 H 0.62907 0.6262 0.92947 0.0
C198 C 0.92598 0.1792 0.20547 0.0
C199 C 0.88643 0.15971 0.1606 0.0
C200 C 0.88954 0.08704 0.24088 0.0
C201 C 0.92832 0.10701 0.28754 0.0
N202 N 0.97685 0.17577 0.32684 0.0
N203 N 0.82372 0.10107 0.14613 0.0
C204 C 0.9446 0.15429 0.27363 0.0
C205 C 0.86586 0.11561 0.18218 0.0
N206 N 0.94671 0.22058 0.18109 0.0
N207 N 0.87719 0.03986 0.24901 0.0
H208 H 0.80575 0.12106 0.10213 0.0
H209 H 0.80445 0.07172 0.165 0.0
H210 H 0.8943 0.01713 0.28985 0.0
H211 H 0.85277 0.02187 0.21031 0.0
H212 H 0.97902 0.2335 0.20499 0.0
H213 H 0.93281 0.2407 0.13336 0.0
H214 H 0.98659 0.21181 0.32457 0.0
H215 H 0.99087 0.15869 0.37788 0.0
C216 C 0.35716 0.39013 0.67822 0.0
C217 C 0.38437 0.35604 0.63403 0.0
C218 C 0.45494 0.37715 0.71787 0.0
C219 C 0.427 0.40858 0.76606 0.0
N220 N 0.34965 0.43752 0.80291 0.0
N221 N 0.45613 0.30969 0.62147 0.0
C222 C 0.37751 0.41301 0.74935 0.0
C223 C 0.43236 0.34721 0.65706 0.0
N224 N 0.31256 0.40201 0.65062 0.0
N225 N 0.50328 0.37763 0.72735 0.0
H226 H 0.44052 0.28684 0.57686 0.0
H227 H 0.48964 0.29845 0.64147 0.0
H228 H 0.52142 0.4001 0.7696 0.0
H229 H 0.52567 0.35924 0.68814 0.0
H230 H 0.29324 0.43061 0.67496 0.0
H231 H 0.29616 0.38568 0.59926 0.0
H232 H 0.31275 0.43761 0.79818 0.0
H233 H 0.36304 0.45416 0.85641 0.0
C234 C 0.66333 0.60903 0.33304 0.0
C235 C 0.64065 0.65101 0.36327 0.0
C236 C 0.58253 0.64687 0.24971 0.0
C237 C 0.60092 0.60124 0.22656 0.0
N238 N 0.65653 0.53641 0.24837 0.0
N239 N 0.57708 0.70902 0.35511 0.0
C240 C 0.64118 0.58184 0.26802 0.0
C241 C 0.60003 0.67003 0.32247 0.0
N242 N 0.70604 0.59536 0.36659 0.0
N243 N 0.54902 0.66839 0.20103 0.0
H244 H 0.58955 0.72791 0.40714 0.0
H245 H 0.54407 0.72088 0.33378 0.0
H246 H 0.53597 0.65253 0.14661 0.0
H247 H 0.5374 0.70363 0.21035 0.0
H248 H 0.72675 0.56783 0.34231 0.0
H249 H 0.72278 0.61437 0.415 0.0
H250 H 0.68213 0.51814 0.28245 0.0
H251 H 0.64134 0.51533 0.201 0.0
C252 C 0.87112 0.10851 0.8353 0.0
C253 C 0.89102 0.1534 0.86123 0.0
C254 C 0.94781 0.14836 0.75227 0.0
C255 C 0.93154 0.10102 0.73256 0.0
N256 N 0.88229 0.03299 0.76145 0.0
N257 N 0.95078 0.21469 0.85122 0.0
C258 C 0.89414 0.08032 0.77527 0.0
C259 C 0.92998 0.17312 0.82141 0.0
N260 N 0.82996 0.09313 0.86772 0.0
N261 N 0.97908 0.17014 0.70332 0.0
H262 H 0.93774 0.23456 0.90037 0.0
H263 H 0.98268 0.22785 0.83084 0.0
H264 H 0.99243 0.15323 0.65154 0.0
H265 H 0.98864 0.20626 0.70973 0.0
H266 H 0.81099 0.06321 0.84532 0.0
H267 H 0.81243 0.11264 0.91273 0.0
H268 H 0.85898 0.01443 0.79694 0.0
H269 H 0.8988 0.01081 0.71875 0.0
C270 C 0.42595 0.32898 0.30728 0.0
C271 C 0.38143 0.34579 0.33358 0.0
C272 C 0.37881 0.40518 0.22679 0.0
C273 C 0.42639 0.39348 0.20915 0.0
N274 N 0.49696 0.34634 0.23467 0.0
N275 N 0.31552 0.4007 0.3223 0.0
C276 C 0.45027 0.35539 0.24899 0.0
C277 C 0.35754 0.38379 0.29381 0.0
N278 N 0.44482 0.28782 0.3384 0.0
N279 N 0.35376 0.43596 0.17824 0.0
H280 H 0.29805 0.38476 0.36949 0.0
H281 H 0.2993 0.43212 0.30251 0.0
H282 H 0.36818 0.45182 0.12795 0.0
H283 H 0.31758 0.44237 0.18306 0.0
H284 H 0.47492 0.27097 0.31624 0.0
H285 H 0.42792 0.26804 0.38193 0.0
H286 H 0.51789 0.32292 0.26863 0.0
H287 H 0.516 0.36482 0.1923 0.0
C288 C 0.15756 0.8758 0.80787 0.0
C289 C 0.13017 0.84224 0.84954 0.0
C290 C 0.06067 0.85948 0.76238 0.0
C291 C 0.08844 0.89205 0.71911 0.0
N292 N 0.16547 0.92224 0.68676 0.0
N293 N 0.05987 0.79358 0.85574 0.0
C294 C 0.13764 0.89741 0.73756 0.0
C295 C 0.08304 0.83122 0.823 0.0
N296 N 0.20171 0.88869 0.83755 0.0
N297 N 0.01259 0.85761 0.74911 0.0
H298 H 0.07539 0.77228 0.90052 0.0
H299 H 0.02718 0.78071 0.83342 0.0
H300 H 0.99456 0.87819 0.70609 0.0
H301 H 0.98997 0.83863 0.7853 0.0
H302 H 0.22096 0.91717 0.81543 0.0
H303 H 0.2179 0.87317 0.88828 0.0
H304 H 0.20232 0.92333 0.69259 0.0
H305 H 0.15211 0.93795 0.63394 0.0
loop_
_geom_bond_atom_site_label_1
_geom_bond_atom_site_label_2
_geom_bond_distance
_geom_bond_site_symmetry_2
_ccdc_geom_bond_type
H0 C5 0.929 . S
H1 C10 0.931 . S
H2 C8 0.930 . S
N3 N4 1.234 1_556 S
N3 C7 1.451 1_556 S
N4 N3 1.234 1_554 S
C5 H0 0.929 . S
C5 C6 1.373 . S
C5 C7 1.357 1_556 S
C6 C5 1.373 . S
C6 C10 1.397 1_556 S
C7 N3 1.451 1_554 S
C7 C5 1.357 1_554 S
C7 C8 1.385 . S
C8 H2 0.930 . S
C8 C7 1.385 . S
C8 C9 1.371 . S
C9 C8 1.371 . S
C9 C10 1.383 . S
C10 H1 0.931 . S
C10 C6 1.397 1_554 S
C10 C9 1.383 . S
H11 C16 0.929 . S
H12 C21 0.931 . S
H13 C19 0.930 . S
N14 N15 1.234 . S
N14 C18 1.453 . S
N15 N14 1.234 . S
C16 H11 0.929 . S
C16 C17 1.373 . S
C16 C18 1.368 . S
C17 C16 1.373 . S
C17 C21 1.397 . S
C18 N14 1.453 . S
C18 C16 1.368 . S
C18 C19 1.373 . S
C19 H13 0.930 . S
C19 C18 1.373 . S
C19 C20 1.371 . S
C20 C19 1.371 . S
C20 C21 1.383 . S
C21 H12 0.931 . S
C21 C17 1.397 . S
C21 C20 1.383 . S
H22 C27 0.929 . S
H23 C32 0.931 . S
H24 C30 0.930 . S
N25 N26 1.234 1_556 S
N25 C29 1.453 1_556 S
N26 N25 1.234 1_554 S
C27 H22 0.929 . S
C27 C28 1.373 . S
C27 C29 1.368 1_556 S
C28 C27 1.373 . S
C28 C32 1.397 1_556 S
C29 N25 1.453 1_554 S
C29 C27 1.368 1_554 S
C29 C30 1.373 . S
C30 H24 0.930 . S
C30 C29 1.373 . S
C30 C31 1.371 . S
C31 C30 1.371 . S
C31 C32 1.383 . S
C32 H23 0.931 . S
C32 C28 1.397 1_554 S
C32 C31 1.383 . S
H33 C38 0.929 . S
H34 C43 0.931 . S
H35 C41 0.930 . S
N36 N37 1.234 . S
N36 C40 1.453 . S
N37 N36 1.234 . S
C38 H33 0.929 . S
C38 C39 1.373 . S
C38 C40 1.368 . S
C39 C38 1.373 . S
C39 C43 1.397 . S
C40 N36 1.453 . S
C40 C38 1.368 . S
C40 C41 1.373 . S
C41 H35 0.930 . S
C41 C40 1.373 . S
C41 C42 1.371 . S
C42 C41 1.371 . S
C42 C43 1.383 . S
C43 H34 0.931 . S
C43 C39 1.397 . S
C43 C42 1.383 . S
O44 Zn45 1.953 1_565 S
O44 C60 1.225 . S
Zn45 O44 1.953 1_545 S
Zn45 O46 1.949 1_655 S
Zn45 O52 1.919 . S
Zn45 O57 1.924 . S
O46 Zn45 1.949 1_455 S
O46 Zn47 1.923 . S
O46 Zn48 1.950 1_545 S
O46 Zn49 1.945 . S
Zn47 O46 1.923 . S
Zn47 O50 1.933 . S
Zn47 O53 1.941 . S
Zn47 O54 1.965 1_545 S
Zn48 O46 1.950 1_565 S
Zn48 O55 1.938 . S
Zn48 O56 1.906 . S
Zn48 O66 1.953 1_455 S
Zn49 O46 1.945 . S
Zn49 O51 1.932 . S
Zn49 O58 1.977 1_545 S
Zn49 O59 1.910 1_455 S
O50 Zn47 1.933 . S
O50 C61 1.226 . S
O51 Zn49 1.932 . S
O51 C61 1.307 . S
O52 Zn45 1.919 . S
O52 C63 1.253 . S
O53 Zn47 1.941 . S
O53 C63 1.283 1_455 S
O54 Zn47 1.965 1_565 S
O54 C62 1.303 . S
O55 Zn48 1.938 . S
O55 C62 1.247 . S
O56 Zn48 1.906 . S
O56 C64 1.304 . S
O57 Zn45 1.924 . S
O57 C65 1.311 . S
O58 Zn49 1.977 1_565 S
O58 C64 1.272 . S
O59 Zn49 1.910 1_655 S
O59 C65 1.231 . S
C60 O44 1.225 . S
C60 O66 1.298 . S
C61 O50 1.226 . S
C61 O51 1.307 . S
C62 O54 1.303 . S
C62 O55 1.247 . S
C63 O52 1.253 . S
C63 O53 1.283 1_655 S
C64 O56 1.304 . S
C64 O58 1.272 . S
C65 O57 1.311 . S
C65 O59 1.231 . S
O66 Zn48 1.953 1_655 S
O66 C60 1.298 . S
O67 Zn68 1.953 . S
O67 C83 1.225 . S
Zn68 O67 1.953 . S
Zn68 O69 1.949 . S
Zn68 O75 1.919 1_554 S
Zn68 O80 1.924 . S
O69 Zn68 1.949 . S
O69 Zn70 1.923 1_554 S
O69 Zn71 1.950 . S
O69 Zn72 1.945 . S
Zn70 O69 1.923 1_556 S
Zn70 O73 1.933 . S
Zn70 O76 1.941 . S
Zn70 O77 1.965 . S
Zn71 O69 1.950 . S
Zn71 O78 1.938 1_554 S
Zn71 O79 1.906 . S
Zn71 O89 1.953 . S
Zn72 O69 1.945 . S
Zn72 O74 1.932 . S
Zn72 O81 1.977 . S
Zn72 O82 1.910 . S
O73 Zn70 1.933 . S
O73 C84 1.226 1_556 S
O74 Zn72 1.932 . S
O74 C84 1.307 . S
O75 Zn68 1.919 1_556 S
O75 C86 1.253 . S
O76 Zn70 1.941 . S
O76 C86 1.283 . S
O77 Zn70 1.965 . S
O77 C85 1.303 . S
O78 Zn71 1.938 1_556 S
O78 C85 1.247 . S
O79 Zn71 1.906 . S
O79 C87 1.304 . S
O80 Zn68 1.924 . S
O80 C88 1.311 . S
O81 Zn72 1.977 . S
O81 C87 1.272 . S
O82 Zn72 1.910 . S
O82 C88 1.231 . S
C83 O67 1.225 . S
C83 O89 1.298 . S
C84 O73 1.226 1_554 S
C84 O74 1.307 . S
C85 O77 1.303 . S
C85 O78 1.247 . S
C86 O75 1.253 . S
C86 O76 1.283 . S
C87 O79 1.304 . S
C87 O81 1.272 . S
C88 O80 1.311 . S
C88 O82 1.231 . S
O89 Zn71 1.953 . S
O89 C83 1.298 . S
C90 C91 1.363 . S
C90 C96 1.379 . S
C90 N98 1.356 . S
C91 C90 1.363 . S
C91 C97 1.363 . S
C92 C93 1.363 . S
C92 C97 1.379 . S
C92 N99 1.356 . S
C93 C92 1.363 . S
C93 C96 1.363 . S
N94 C96 1.356 . S
N94 H106 0.984 . S
N94 H107 0.985 . S
N95 C97 1.356 . S
N95 H100 0.984 . S
N95 H101 0.985 . S
C96 C90 1.379 . S
C96 C93 1.363 . S
C96 N94 1.356 . S
C97 C91 1.363 . S
C97 C92 1.379 . S
C97 N95 1.356 . S
N98 C90 1.356 . S
N98 H104 0.984 . S
N98 H105 0.984 . S
N99 C92 1.356 . S
N99 H102 0.984 . S
N99 H103 0.985 . S
H100 N95 0.984 . S
H101 N95 0.985 . S
H102 N99 0.984 . S
H103 N99 0.985 . S
H104 N98 0.984 . S
H105 N98 0.984 . S
H106 N94 0.984 . S
H107 N94 0.985 . S
C108 C109 1.363 . S
C108 C114 1.379 . S
C108 N116 1.356 . S
C109 C108 1.363 . S
C109 C115 1.363 1_554 S
C110 C111 1.363 1_556 S
C110 C115 1.379 . S
C110 N117 1.356 . S
C111 C110 1.363 1_554 S
C111 C114 1.363 . S
N112 C114 1.356 . S
N112 H124 0.984 . S
N112 H125 0.985 . S
N113 C115 1.356 . S
N113 H118 0.984 . S
N113 H119 0.985 . S
C114 C108 1.379 . S
C114 C111 1.363 . S
C114 N112 1.356 . S
C115 C109 1.363 1_556 S
C115 C110 1.379 . S
C115 N113 1.356 . S
N116 C108 1.356 . S
N116 H122 0.984 . S
N116 H123 0.984 . S
N117 C110 1.356 . S
N117 H120 0.984 . S
N117 H121 0.985 . S
H118 N113 0.984 . S
H119 N113 0.985 . S
H120 N117 0.984 . S
H121 N117 0.985 . S
H122 N116 0.984 . S
H123 N116 0.984 . S
H124 N112 0.984 . S
H125 N112 0.985 . S
C126 C127 1.363 . S
C126 C132 1.379 . S
C126 N134 1.356 . S
C127 C126 1.363 . S
C127 C133 1.363 . S
C128 C129 1.363 . S
C128 C133 1.379 . S
C128 N135 1.356 . S
C129 C128 1.363 . S
C129 C132 1.363 . S
N130 C132 1.356 . S
N130 H142 0.984 . S
N130 H143 0.985 . S
N131 C133 1.356 . S
N131 H136 0.984 . S
N131 H137 0.985 . S
C132 C126 1.379 . S
C132 C129 1.363 . S
C132 N130 1.356 . S
C133 C127 1.363 . S
C133 C128 1.379 . S
C133 N131 1.356 . S
N134 C126 1.356 . S
N134 H140 0.984 . S
N134 H141 0.984 . S
N135 C128 1.356 . S
N135 H138 0.984 . S
N135 H139 0.985 . S
H136 N131 0.984 . S
H137 N131 0.985 . S
H138 N135 0.984 . S
H139 N135 0.985 . S
H140 N134 0.984 . S
H141 N134 0.984 . S
H142 N130 0.984 . S
H143 N130 0.985 . S
C144 C145 1.363 1_556 S
C144 C150 1.379 . S
C144 N152 1.356 . S
C145 C144 1.363 1_554 S
C145 C151 1.363 . S
C146 C147 1.363 . S
C146 C151 1.379 . S
C146 N153 1.356 . S
C147 C146 1.363 . S
C147 C150 1.363 1_554 S
N148 C150 1.356 . S
N148 H160 0.984 . S
N148 H161 0.985 . S
N149 C151 1.356 . S
N149 H154 0.984 . S
N149 H155 0.985 . S
C150 C144 1.379 . S
C150 C147 1.363 1_556 S
C150 N148 1.356 . S
C151 C145 1.363 . S
C151 C146 1.379 . S
C151 N149 1.356 . S
N152 C144 1.356 . S
N152 H158 0.984 . S
N152 H159 0.984 . S
N153 C146 1.356 . S
N153 H156 0.984 . S
N153 H157 0.985 . S
H154 N149 0.984 . S
H155 N149 0.985 . S
H156 N153 0.984 . S
H157 N153 0.985 . S
H158 N152 0.984 . S
H159 N152 0.984 . S
H160 N148 0.984 . S
H161 N148 0.985 . S
C162 C163 1.363 . S
C162 C168 1.379 . S
C162 N170 1.356 . S
C163 C162 1.363 . S
C163 C169 1.363 . S
C164 C165 1.363 . S
C164 C169 1.379 . S
C164 N171 1.356 . S
C165 C164 1.363 . S
C165 C168 1.363 . S
N166 C168 1.356 . S
N166 H178 0.984 . S
N166 H179 0.985 . S
N167 C169 1.356 . S
N167 H172 0.984 . S
N167 H173 0.985 . S
C168 C162 1.379 . S
C168 C165 1.363 . S
C168 N166 1.356 . S
C169 C163 1.363 . S
C169 C164 1.379 . S
C169 N167 1.356 . S
N170 C162 1.356 . S
N170 H176 0.984 . S
N170 H177 0.984 . S
N171 C164 1.356 . S
N171 H174 0.984 . S
N171 H175 0.985 . S
H172 N167 0.984 . S
H173 N167 0.985 . S
H174 N171 0.984 . S
H175 N171 0.985 . S
H176 N170 0.984 . S
H177 N170 0.984 . S
H178 N166 0.984 . S
H179 N166 0.985 . S
C180 C181 1.363 . S
C180 C186 1.379 . S
C180 N188 1.356 . S
C181 C180 1.363 . S
C181 C187 1.363 . S
C182 C183 1.363 . S
C182 C187 1.379 . S
C182 N189 1.356 . S
C183 C182 1.363 . S
C183 C186 1.363 . S
N184 C186 1.356 . S
N184 H196 0.984 . S
N184 H197 0.985 . S
N185 C187 1.356 . S
N185 H190 0.984 . S
N185 H191 0.985 . S
C186 C180 1.379 . S
C186 C183 1.363 . S
C186 N184 1.356 . S
C187 C181 1.363 . S
C187 C182 1.379 . S
C187 N185 1.356 . S
N188 C180 1.356 . S
N188 H194 0.984 . S
N188 H195 0.984 . S
N189 C182 1.356 . S
N189 H192 0.984 . S
N189 H193 0.985 . S
H190 N185 0.984 . S
H191 N185 0.985 . S
H192 N189 0.984 . S
H193 N189 0.985 . S
H194 N188 0.984 . S
H195 N188 0.984 . S
H196 N184 0.984 . S
H197 N184 0.985 . S
C198 C199 1.363 . S
C198 C204 1.379 . S
C198 N206 1.356 . S
C199 C198 1.363 . S
C199 C205 1.363 . S
C200 C201 1.363 . S
C200 C205 1.379 . S
C200 N207 1.356 . S
C201 C200 1.363 . S
C201 C204 1.363 . S
N202 C204 1.356 . S
N202 H214 0.984 . S
N202 H215 0.985 . S
N203 C205 1.356 . S
N203 H208 0.984 . S
N203 H209 0.985 . S
C204 C198 1.379 . S
C204 C201 1.363 . S
C204 N202 1.356 . S
C205 C199 1.363 . S
C205 C200 1.379 . S
C205 N203 1.356 . S
N206 C198 1.356 . S
N206 H212 0.984 . S
N206 H213 0.984 . S
N207 C200 1.356 . S
N207 H210 0.984 . S
N207 H211 0.985 . S
H208 N203 0.984 . S
H209 N203 0.985 . S
H210 N207 0.984 . S
H211 N207 0.985 . S
H212 N206 0.984 . S
H213 N206 0.984 . S
H214 N202 0.984 . S
H215 N202 0.985 . S
C216 C217 1.363 . S
C216 C222 1.379 . S
C216 N224 1.356 . S
C217 C216 1.363 . S
C217 C223 1.363 . S
C218 C219 1.363 . S
C218 C223 1.379 . S
C218 N225 1.356 . S
C219 C218 1.363 . S
C219 C222 1.363 . S
N220 C222 1.356 . S
N220 H232 0.984 . S
N220 H233 0.985 . S
N221 C223 1.356 . S
N221 H226 0.984 . S
N221 H227 0.985 . S
C222 C216 1.379 . S
C222 C219 1.363 . S
C222 N220 1.356 . S
C223 C217 1.363 . S
C223 C218 1.379 . S
C223 N221 1.356 . S
N224 C216 1.356 . S
N224 H230 0.984 . S
N224 H231 0.984 . S
N225 C218 1.356 . S
N225 H228 0.984 . S
N225 H229 0.985 . S
H226 N221 0.984 . S
H227 N221 0.985 . S
H228 N225 0.984 . S
H229 N225 0.985 . S
H230 N224 0.984 . S
H231 N224 0.984 . S
H232 N220 0.984 . S
H233 N220 0.985 . S
C234 C235 1.363 . S
C234 C240 1.379 . S
C234 N242 1.356 . S
C235 C234 1.363 . S
C235 C241 1.363 . S
C236 C237 1.363 . S
C236 C241 1.379 . S
C236 N243 1.356 . S
C237 C236 1.363 . S
C237 C240 1.363 . S
N238 C240 1.356 . S
N238 H250 0.984 . S
N238 H251 0.985 . S
N239 C241 1.356 . S
N239 H244 0.984 . S
N239 H245 0.985 . S
C240 C234 1.379 . S
C240 C237 1.363 . S
C240 N238 1.356 . S
C241 C235 1.363 . S
C241 C236 1.379 . S
C241 N239 1.356 . S
N242 C234 1.356 . S
N242 H248 0.984 . S
N242 H249 0.984 . S
N243 C236 1.356 . S
N243 H246 0.984 . S
N243 H247 0.985 . S
H244 N239 0.984 . S
H245 N239 0.985 . S
H246 N243 0.984 . S
H247 N243 0.985 . S
H248 N242 0.984 . S
H249 N242 0.984 . S
H250 N238 0.984 . S
H251 N238 0.985 . S
C252 C253 1.363 . S
C252 C258 1.379 . S
C252 N260 1.356 . S
C253 C252 1.363 . S
C253 C259 1.363 . S
C254 C255 1.363 . S
C254 C259 1.379 . S
C254 N261 1.356 . S
C255 C254 1.363 . S
C255 C258 1.363 . S
N256 C258 1.356 . S
N256 H268 0.984 . S
N256 H269 0.985 . S
N257 C259 1.356 . S
N257 H262 0.984 . S
N257 H263 0.985 . S
C258 C252 1.379 . S
C258 C255 1.363 . S
C258 N256 1.356 . S
C259 C253 1.363 . S
C259 C254 1.379 . S
C259 N257 1.356 . S
N260 C252 1.356 . S
N260 H266 0.984 . S
N260 H267 0.984 . S
N261 C254 1.356 . S
N261 H264 0.984 . S
N261 H265 0.985 . S
H262 N257 0.984 . S
H263 N257 0.985 . S
H264 N261 0.984 . S
H265 N261 0.985 . S
H266 N260 0.984 . S
H267 N260 0.984 . S
H268 N256 0.984 . S
H269 N256 0.985 . S
C270 C271 1.363 . S
C270 C276 1.379 . S
C270 N278 1.356 . S
C271 C270 1.363 . S
C271 C277 1.363 . S
C272 C273 1.363 . S
C272 C277 1.379 . S
C272 N279 1.356 . S
C273 C272 1.363 . S
C273 C276 1.363 . S
N274 C276 1.356 . S
N274 H286 0.984 . S
N274 H287 0.985 . S
N275 C277 1.356 . S
N275 H280 0.984 . S
N275 H281 0.985 . S
C276 C270 1.379 . S
C276 C273 1.363 . S
C276 N274 1.356 . S
C277 C271 1.363 . S
C277 C272 1.379 . S
C277 N275 1.356 . S
N278 C270 1.356 . S
N278 H284 0.984 . S
N278 H285 0.984 . S
N279 C272 1.356 . S
N279 H282 0.984 . S
N279 H283 0.985 . S
H280 N275 0.984 . S
H281 N275 0.985 . S
H282 N279 0.984 . S
H283 N279 0.985 . S
H284 N278 0.984 . S
H285 N278 0.984 . S
H286 N274 0.984 . S
H287 N274 0.985 . S
C288 C289 1.363 . S
C288 C294 1.379 . S
C288 N296 1.356 . S
C289 C288 1.363 . S
C289 C295 1.363 . S
C290 C291 1.363 . S
C290 C295 1.379 . S
C290 N297 1.356 . S
C291 C290 1.363 . S
C291 C294 1.363 . S
N292 C294 1.356 . S
N292 H304 0.984 . S
N292 H305 0.985 . S
N293 C295 1.356 . S
N293 H298 0.984 . S
N293 H299 0.985 . S
C294 C288 1.379 . S
C294 C291 1.363 . S
C294 N292 1.356 . S
C295 C289 1.363 . S
C295 C290 1.379 . S
C295 N293 1.356 . S
N296 C288 1.356 . S
N296 H302 0.984 . S
N296 H303 0.984 . S
N297 C290 1.356 . S
N297 H300 0.984 1_455 S
N297 H301 0.985 1_455 S
H298 N293 0.984 . S
H299 N293 0.985 . S
H300 N297 0.984 1_655 S
H301 N297 0.985 1_655 S
H302 N296 0.984 . S
H303 N296 0.984 . S
H304 N292 0.984 . S
H305 N292 0.985 . S
C93 C61 1.493 . S
C91 N37 1.493 . S
C109 N4 1.492 . S
C111 C84 1.495 . S
C127 N15 1.508 . S
C129 C60 1.516 . S
C145 N26 1.510 . S
C147 C83 1.515 . S
C165 C64 1.499 . S
C163 C9 1.528 . S
C183 C86 1.496 . S
C181 C17 1.556 . S
C199 C31 1.558 . S
C201 C65 1.504 . S
C217 C42 1.538 . S
C219 C85 1.492 . S
C237 C88 1.428 . S
C235 C20 1.477 . S
C255 C63 1.423 . S
C253 C28 1.489 . S
C273 C87 1.423 . S
C271 C39 1.471 . S
C289 C6 1.470 . S
C291 C62 1.418 . S
