# Generated by pormake.
# Topology pyr, (3,6)-cn, num edge types: 1
# Building blocks:
#     Node 0, Type 0, BuildingBlock: VETTIZ_charged_linker_0, # of connection points: 3
#     Node 1, Type 0, BuildingBlock: VETTIZ_charged_linker_0, # of connection points: 3
#     Node 2, Type 0, BuildingBlock: VETTIZ_charged_linker_0, # of connection points: 3
#     Node 3, Type 0, BuildingBlock: VETTIZ_charged_linker_0, # of connection points: 3
#     Node 4, Type 0, BuildingBlock: VETTIZ_charged_linker_0, # of connection points: 3
#     Node 5, Type 0, BuildingBlock: VETTIZ_charged_linker_0, # of connection points: 3
#     Node 6, Type 0, BuildingBlock: VETTIZ_charged_linker_0, # of connection points: 3
#     Node 7, Type 0, BuildingBlock: VETTIZ_charged_linker_0, # of connection points: 3
#     Node 8, Type 1, BuildingBlock: FUNLAD_clean_sbu_0, # of connection points: 6
#     Node 9, Type 1, BuildingBlock: FUNLAD_clean_sbu_0, # of connection points: 6
#     Node 10, Type 1, BuildingBlock: FUNLAD_clean_sbu_0, # of connection points: 6
#     Node 11, Type 1, BuildingBlock: FUNLAD_clean_sbu_0, # of connection points: 6
#     Edge 12, Type (0, 1), BuildingBlock: CIFDUS_clean_linker_0, # of connection points: 2
#     Edge 13, Type (0, 1), BuildingBlock: CIFDUS_clean_linker_0, # of connection points: 2
#     Edge 14, Type (0, 1), BuildingBlock: CIFDUS_clean_linker_0, # of connection points: 2
#     Edge 15, Type (0, 1), BuildingBlock: CIFDUS_clean_linker_0, # of connection points: 2
#     Edge 16, Type (0, 1), BuildingBlock: CIFDUS_clean_linker_0, # of connection points: 2
#     Edge 17, Type (0, 1), BuildingBlock: CIFDUS_clean_linker_0, # of connection points: 2
#     Edge 18, Type (0, 1), BuildingBlock: CIFDUS_clean_linker_0, # of connection points: 2
#     Edge 19, Type (0, 1), BuildingBlock: CIFDUS_clean_linker_0, # of connection points: 2
#     Edge 20, Type (0, 1), BuildingBlock: CIFDUS_clean_linker_0, # of connection points: 2
#     Edge 21, Type (0, 1), BuildingBlock: CIFDUS_clean_linker_0, # of connection points: 2
#     Edge 22, Type (0, 1), BuildingBlock: CIFDUS_clean_linker_0, # of connection points: 2
#     Edge 23, Type (0, 1), BuildingBlock: CIFDUS_clean_linker_0, # of connection points: 2
#     Edge 24, Type (0, 1), BuildingBlock: CIFDUS_clean_linker_0, # of connection points: 2
#     Edge 25, Type (0, 1), BuildingBlock: CIFDUS_clean_linker_0, # of connection points: 2
#     Edge 26, Type (0, 1), BuildingBlock: CIFDUS_clean_linker_0, # of connection points: 2
#     Edge 27, Type (0, 1), BuildingBlock: CIFDUS_clean_linker_0, # of connection points: 2
#     Edge 28, Type (0, 1), BuildingBlock: CIFDUS_clean_linker_0, # of connection points: 2
#     Edge 29, Type (0, 1), BuildingBlock: CIFDUS_clean_linker_0, # of connection points: 2
#     Edge 30, Type (0, 1), BuildingBlock: CIFDUS_clean_linker_0, # of connection points: 2
#     Edge 31, Type (0, 1), BuildingBlock: CIFDUS_clean_linker_0, # of connection points: 2
#     Edge 32, Type (0, 1), BuildingBlock: CIFDUS_clean_linker_0, # of connection points: 2
#     Edge 33, Type (0, 1), BuildingBlock: CIFDUS_clean_linker_0, # of connection points: 2
#     Edge 34, Type (0, 1), BuildingBlock: CIFDUS_clean_linker_0, # of connection points: 2
#     Edge 35, Type (0, 1), BuildingBlock: CIFDUS_clean_linker_0, # of connection points: 2
# Relax obj value: 0.067
# Max RMSD: 0.067
# Mean RMSD: 0.030
data_MOF--net-pry--node1-FUNLAD_clean_sbu_0--node2-VETTIZ_charged_linker_0--edge1-CIFDUS_clean_linker_0
_symmetry_space_group_name_H-M    P1
_symmetry_Int_Tables_number       1
_symmetry_cell_setting            triclinic
loop_
_symmetry_equiv_pos_as_xyz
'x, y, z'
_cell_length_a     39.289662
_cell_length_b     41.660946
_cell_length_c     41.733768
_cell_angle_alpha  90.257051
_cell_angle_beta   90.07045
_cell_angle_gamma 85.252152
loop_
_atom_site_label
_atom_site_type_symbol
_atom_site_fract_x
_atom_site_fract_y
_atom_site_fract_z
_atom_type_partial_charge
C0 C 0.12427 0.10428 0.2743 0.0
C1 C 0.09682 0.11653 0.29385 0.0
C2 C 0.07991 0.14665 0.2854 0.0
C3 C 0.11736 0.15132 0.23916 0.0
C4 C 0.13422 0.12201 0.24757 0.0
C5 C 0.16358 0.11256 0.22528 0.0
H6 H 0.26399 0.14994 0.10056 0.0
C7 C 0.13442 0.16372 0.2101 0.0
C8 C 0.16192 0.14091 0.20229 0.0
H9 H 0.27169 0.06169 0.15543 0.0
H10 H 0.22333 0.08189 0.18745 0.0
H11 H 0.24551 0.19924 0.15728 0.0
H12 H 0.18765 0.14902 0.08941 0.0
H13 H 0.16241 0.18498 0.09636 0.0
H14 H 0.20465 0.18633 0.07961 0.0
H15 H 0.24234 0.20922 0.11554 0.0
H16 H 0.21229 0.22705 0.14448 0.0
C17 C 0.19696 0.11014 0.24515 0.0
C18 C 0.15625 0.08089 0.20804 0.0
C19 C 0.0891 0.26837 0.15161 0.0
C20 C 0.10067 0.28345 0.12363 0.0
C21 C 0.13124 0.27049 0.10935 0.0
C22 C 0.1494 0.24296 0.12148 0.0
C23 C 0.13714 0.22735 0.14835 0.0
C24 C 0.10773 0.2401 0.16343 0.0
C25 C 0.0996 0.21967 0.1922 0.0
C26 C 0.12807 0.1921 0.19071 0.0
C27 C 0.14992 0.19723 0.16487 0.0
C28 C 0.10231 0.2404 0.22272 0.0
C29 C 0.06397 0.20741 0.18723 0.0
C30 C 0.25538 0.13445 0.11909 0.0
C31 C 0.27246 0.10393 0.12502 0.0
C32 C 0.25994 0.0855 0.15025 0.0
C33 C 0.23144 0.09719 0.16878 0.0
C34 C 0.21462 0.12762 0.16208 0.0
C35 C 0.22664 0.14536 0.13726 0.0
C36 C 0.20477 0.17609 0.13168 0.0
C37 C 0.17797 0.17453 0.15772 0.0
C38 C 0.18385 0.14631 0.17589 0.0
C39 C 0.22721 0.20455 0.13725 0.0
C40 C 0.18914 0.17436 0.09752 0.0
H41 H 0.07565 0.1864 0.25318 0.0
H42 H 0.13826 0.08154 0.28003 0.0
H43 H 0.12855 0.08057 0.20259 0.0
H44 H 0.16914 0.07794 0.1846 0.0
H45 H 0.16384 0.05962 0.22318 0.0
H46 H 0.19702 0.13052 0.26246 0.0
H47 H 0.19968 0.08737 0.25903 0.0
H48 H 0.22 0.1116 0.23036 0.0
H49 H 0.06582 0.27781 0.16337 0.0
H50 H 0.14121 0.28177 0.08838 0.0
H51 H 0.17233 0.23479 0.10905 0.0
H52 H 0.125 0.25464 0.22144 0.0
H53 H 0.07932 0.25759 0.22557 0.0
H54 H 0.10581 0.22581 0.24463 0.0
H55 H 0.06174 0.19739 0.16264 0.0
H56 H 0.05888 0.18786 0.20382 0.0
H57 H 0.04359 0.22732 0.19027 0.0
H58 H 0.05855 0.15676 0.29958 0.0
C59 C 0.08983 0.16388 0.25829 0.0
C60 C 0.25546 0.88512 0.62185 0.0
C61 C 0.23551 0.91319 0.63134 0.0
C62 C 0.24619 0.93027 0.65842 0.0
C63 C 0.29527 0.89129 0.66586 0.0
C64 C 0.28485 0.8747 0.63933 0.0
C65 C 0.30822 0.84513 0.63231 0.0
H66 H 0.44702 0.7444 0.66699 0.0
C67 C 0.32686 0.87355 0.67869 0.0
C68 C 0.33438 0.84646 0.65904 0.0
H69 H 0.37376 0.73868 0.58999 0.0
H70 H 0.34345 0.78733 0.60815 0.0
H71 H 0.45129 0.82473 0.66347 0.0
H72 H 0.38913 0.7676 0.72266 0.0
H73 H 0.40733 0.79718 0.74597 0.0
H74 H 0.43475 0.76587 0.72704 0.0
H75 H 0.46973 0.79686 0.69269 0.0
H76 H 0.453 0.83679 0.70402 0.0
C77 C 0.32436 0.84936 0.59882 0.0
C78 C 0.28714 0.81538 0.63539 0.0
C79 C 0.38607 0.917 0.77672 0.0
C80 C 0.41489 0.90608 0.79503 0.0
C81 C 0.43292 0.87663 0.78601 0.0
C82 C 0.42284 0.85885 0.75921 0.0
C83 C 0.39413 0.87029 0.74106 0.0
C84 C 0.37612 0.89884 0.75025 0.0
C85 C 0.34562 0.90706 0.72905 0.0
C86 C 0.34845 0.87923 0.70527 0.0
C87 C 0.37707 0.85756 0.71214 0.0
C88 C 0.35028 0.93964 0.71259 0.0
C89 C 0.313 0.907 0.74987 0.0
C90 C 0.42441 0.75366 0.6541 0.0
C91 C 0.41334 0.73747 0.62645 0.0
C92 C 0.3837 0.75067 0.61064 0.0
C93 C 0.36574 0.77902 0.6215 0.0
C94 C 0.37703 0.7949 0.64881 0.0
C95 C 0.40592 0.78236 0.66476 0.0
C96 C 0.41356 0.80304 0.69354 0.0
C97 C 0.38458 0.82991 0.69194 0.0
C98 C 0.36333 0.82467 0.66558 0.0
C99 C 0.44885 0.81602 0.68846 0.0
C100 C 0.41135 0.78246 0.72406 0.0
H101 H 0.28236 0.93361 0.69599 0.0
H102 H 0.2486 0.87152 0.60098 0.0
H103 H 0.26713 0.81936 0.65417 0.0
H104 H 0.30265 0.79345 0.64313 0.0
H105 H 0.27409 0.81032 0.61252 0.0
H106 H 0.32779 0.87515 0.59398 0.0
H107 H 0.30797 0.84064 0.57948 0.0
H108 H 0.35032 0.83714 0.59665 0.0
H109 H 0.37116 0.93913 0.7831 0.0
H110 H 0.45529 0.86757 0.79939 0.0
H111 H 0.43783 0.83686 0.75357 0.0
H112 H 0.37734 0.94105 0.70529 0.0
H113 H 0.3433 0.96015 0.72906 0.0
H114 H 0.33532 0.94309 0.6903 0.0
H115 H 0.31608 0.88811 0.76865 0.0
H116 H 0.29035 0.90114 0.73603 0.0
H117 H 0.30733 0.93055 0.76214 0.0
H118 H 0.2313 0.95173 0.66672 0.0
C119 C 0.27582 0.91954 0.67562 0.0
C120 C 0.60047 0.33547 0.98345 0.0
C121 C 0.56956 0.32403 0.97297 0.0
C122 C 0.54436 0.34586 0.95938 0.0
C123 C 0.58356 0.38762 0.96046 0.0
C124 C 0.60689 0.36742 0.97703 0.0
C125 C 0.63931 0.38316 0.98409 0.0
H126 H 0.74444 0.49634 0.94349 0.0
C127 C 0.60008 0.41692 0.95206 0.0
C128 C 0.63246 0.41499 0.96648 0.0
H129 H 0.76117 0.42259 1.01557 0.0
H130 H 0.70321 0.40783 1.00843 0.0
H131 H 0.66923 0.52201 0.96768 0.0
H132 H 0.70453 0.45456 0.89416 0.0
H133 H 0.67021 0.47895 0.8782 0.0
H134 H 0.70795 0.49712 0.89094 0.0
H135 H 0.6856 0.53486 0.93015 0.0
H136 H 0.64107 0.52815 0.93512 0.0
C137 C 0.64208 0.3881 0.02081 0.0
C138 C 0.66965 0.36201 0.96937 0.0
C139 C 0.55156 0.48265 0.85885 0.0
C140 C 0.56573 0.50521 0.83913 0.0
C141 C 0.59452 0.52017 0.84988 0.0
C142 C 0.611 0.51023 0.87843 0.0
C143 C 0.59881 0.48476 0.89592 0.0
C144 C 0.56869 0.47242 0.88678 0.0
C145 C 0.56043 0.4443 0.90684 0.0
C146 C 0.59099 0.44128 0.92924 0.0
C147 C 0.61363 0.46471 0.92243 0.0
C148 C 0.52663 0.45356 0.92506 0.0
C149 C 0.55935 0.41473 0.88411 0.0
C150 C 0.73557 0.47698 0.95768 0.0
C151 C 0.75737 0.46021 0.9797 0.0
C152 C 0.74477 0.4357 0.99835 0.0
C153 C 0.71128 0.42709 0.99409 0.0
C154 C 0.69028 0.44313 0.97092 0.0
C155 C 0.70215 0.46832 0.95396 0.0
C156 C 0.67586 0.48341 0.93124 0.0
C157 C 0.64611 0.46326 0.93753 0.0
C158 C 0.65509 0.43907 0.96009 0.0
C159 C 0.6675 0.51906 0.94122 0.0
C160 C 0.69017 0.4786 0.89677 0.0
H161 H 0.5315 0.39283 0.94176 0.0
H162 H 0.6198 0.31947 0.99501 0.0
H163 H 0.66394 0.35564 0.94412 0.0
H164 H 0.69354 0.37406 0.96877 0.0
H165 H 0.6747 0.33926 0.98298 0.0
H166 H 0.61669 0.38859 0.03266 0.0
H167 H 0.65879 0.36844 0.032 0.0
H168 H 0.65177 0.41157 0.02702 0.0
H169 H 0.52914 0.47116 0.8512 0.0
H170 H 0.60577 0.53777 0.83506 0.0
H171 H 0.63379 0.52135 0.88468 0.0
H172 H 0.52186 0.48012 0.92796 0.0
H173 H 0.50437 0.44494 0.91215 0.0
H174 H 0.52719 0.44409 0.94983 0.0
H175 H 0.58063 0.41404 0.86648 0.0
H176 H 0.56249 0.39135 0.89629 0.0
H177 H 0.535 0.41581 0.87045 0.0
H178 H 0.52024 0.33783 0.95133 0.0
C179 C 0.55108 0.37772 0.95346 0.0
C180 C 0.94797 0.69134 0.48636 0.0
C181 C 0.92817 0.71537 0.50303 0.0
C182 C 0.89549 0.70912 0.51403 0.0
C183 C 0.90167 0.65625 0.48903 0.0
C184 C 0.93407 0.66238 0.47909 0.0
C185 C 0.94956 0.63713 0.45659 0.0
H186 H 0.92421 0.51586 0.35654 0.0
C187 C 0.89365 0.62526 0.47454 0.0
C188 C 0.92179 0.61395 0.45568 0.0
H189 H 1.00397 0.58145 0.35636 0.0
H190 H 0.98811 0.59891 0.40954 0.0
H191 H 0.92368 0.50024 0.4362 0.0
H192 H 0.87069 0.56624 0.37092 0.0
H193 H 0.83989 0.55343 0.39701 0.0
H194 H 0.86386 0.5242 0.37261 0.0
H195 H 0.88884 0.48887 0.41203 0.0
H196 H 0.88194 0.50681 0.45129 0.0
C197 C 0.98269 0.62147 0.47198 0.0
C198 C 0.95484 0.65322 0.42351 0.0
C199 C 0.77466 0.58581 0.4846 0.0
C200 C 0.76004 0.55923 0.47091 0.0
C201 C 0.78103 0.53555 0.4546 0.0
C202 C 0.8158 0.53896 0.45052 0.0
C203 C 0.82958 0.56685 0.46197 0.0
C204 C 0.80956 0.58916 0.47976 0.0
C205 C 0.82919 0.61701 0.49027 0.0
C206 C 0.86394 0.60791 0.47519 0.0
C207 C 0.86356 0.57884 0.45806 0.0
C208 C 0.83105 0.61705 0.52728 0.0
C209 C 0.81152 0.64826 0.47573 0.0
C210 C 0.93846 0.53386 0.36806 0.0
C211 C 0.9643 0.54828 0.35145 0.0
C212 C 0.98341 0.57027 0.36802 0.0
C213 C 0.97357 0.58112 0.3987 0.0
C214 C 0.94353 0.57101 0.41219 0.0
C215 C 0.92743 0.54655 0.39768 0.0
C216 C 0.89386 0.54131 0.41328 0.0
C217 C 0.89158 0.568 0.43829 0.0
C218 C 0.92077 0.58519 0.43756 0.0
C219 C 0.89691 0.50751 0.42888 0.0
C220 C 0.86543 0.54628 0.38736 0.0
H221 H 0.85709 0.67616 0.51607 0.0
H222 H 0.97272 0.696 0.47681 0.0
H223 H 0.94088 0.67749 0.42162 0.0
H224 H 0.94465 0.63951 0.40337 0.0
H225 H 0.98222 0.65634 0.41902 0.0
H226 H 0.97863 0.61662 0.49783 0.0
H227 H 1.00373 0.63763 0.47013 0.0
H228 H 0.99116 0.59792 0.4611 0.0
H229 H 0.75901 0.60418 0.49751 0.0
H230 H 0.77031 0.51457 0.44454 0.0
H231 H 0.83032 0.52043 0.43734 0.0
H232 H 0.83522 0.59203 0.53654 0.0
H233 H 0.80692 0.62814 0.53787 0.0
H234 H 0.85266 0.62964 0.5366 0.0
H235 H 0.80182 0.64369 0.45121 0.0
H236 H 0.82893 0.66744 0.47266 0.0
H237 H 0.78944 0.65769 0.49059 0.0
H238 H 0.87983 0.72759 0.52682 0.0
C239 C 0.88233 0.67942 0.50757 0.0
C240 C 0.9095 0.75598 0.90625 0.0
C241 C 0.93816 0.73738 0.89389 0.0
C242 C 0.95353 0.74866 0.86583 0.0
C243 C 0.91169 0.79534 0.86306 0.0
C244 C 0.89684 0.78445 0.89061 0.0
C245 C 0.86617 0.80609 0.90069 0.0
H246 H 0.74963 0.9319 0.87346 0.0
C247 C 0.89155 0.82565 0.85259 0.0
C248 C 0.86483 0.83178 0.87481 0.0
H249 H 0.75581 0.86476 0.9525 0.0
H250 H 0.80791 0.83931 0.93171 0.0
H251 H 0.7762 0.8809 0.81673 0.0
H252 H 0.83093 0.94378 0.87664 0.0
H253 H 0.84945 0.94337 0.83836 0.0
H254 H 0.80545 0.95884 0.84341 0.0
H255 H 0.77031 0.92406 0.81449 0.0
H256 H 0.80409 0.9017 0.79284 0.0
C257 C 0.83462 0.78606 0.89938 0.0
C258 C 0.87363 0.82021 0.93421 0.0
C259 C 0.92381 0.88673 0.75153 0.0
C260 C 0.90995 0.91543 0.73662 0.0
C261 C 0.88095 0.93202 0.75088 0.0
C262 C 0.86603 0.92047 0.77879 0.0
C263 C 0.88007 0.8919 0.79323 0.0
C264 C 0.9087 0.8756 0.77975 0.0
C265 C 0.92046 0.84592 0.79895 0.0
C266 C 0.89437 0.84715 0.82611 0.0
C267 C 0.87045 0.87415 0.82243 0.0
C268 C 0.91794 0.816 0.77731 0.0
C269 C 0.9569 0.84988 0.81151 0.0
C270 C 0.76235 0.91184 0.88634 0.0
C271 C 0.74754 0.89987 0.91433 0.0
C272 C 0.76555 0.87394 0.93039 0.0
C273 C 0.7962 0.85917 0.91833 0.0
C274 C 0.80984 0.87029 0.88978 0.0
C275 C 0.79351 0.8967 0.87459 0.0
C276 C 0.81318 0.90577 0.84524 0.0
C277 C 0.84308 0.87979 0.84489 0.0
C278 C 0.84067 0.85895 0.87102 0.0
C279 C 0.78984 0.90323 0.81562 0.0
C280 C 0.82529 0.93978 0.85086 0.0
H281 H 0.95352 0.78433 0.82933 0.0
H282 H 0.89648 0.74822 0.92734 0.0
H283 H 0.90144 0.82241 0.93766 0.0
H284 H 0.86174 0.84499 0.93759 0.0
H285 H 0.8651 0.80464 0.95367 0.0
H286 H 0.83633 0.7692 0.87857 0.0
H287 H 0.83275 0.77145 0.9214 0.0
H288 H 0.81032 0.80088 0.89588 0.0
H289 H 0.9462 0.87336 0.74166 0.0
H290 H 0.86922 0.95377 0.74003 0.0
H291 H 0.84386 0.93423 0.78798 0.0
H292 H 0.89382 0.81822 0.7632 0.0
H293 H 0.93957 0.81328 0.76013 0.0
H294 H 0.91728 0.79352 0.79105 0.0
H295 H 0.95899 0.8749 0.82029 0.0
H296 H 0.9639 0.83417 0.83208 0.0
H297 H 0.97613 0.84495 0.79224 0.0
H298 H 0.97588 0.7354 0.85573 0.0
C299 C 0.94058 0.77731 0.8505 0.0
C300 C 0.74959 0.13075 0.41462 0.0
C301 C 0.76901 0.10251 0.40446 0.0
C302 C 0.75938 0.08761 0.37572 0.0
C303 C 0.71178 0.12797 0.36854 0.0
C304 C 0.72137 0.14303 0.39629 0.0
C305 C 0.69842 0.17303 0.40335 0.0
H306 H 0.56346 0.27775 0.36416 0.0
C307 C 0.6813 0.1468 0.35515 0.0
C308 C 0.67348 0.17339 0.37533 0.0
H309 H 0.63262 0.28104 0.44474 0.0
H310 H 0.66285 0.23189 0.42721 0.0
H311 H 0.55715 0.19766 0.36629 0.0
H312 H 0.62376 0.25381 0.31067 0.0
H313 H 0.60512 0.22531 0.28624 0.0
H314 H 0.57826 0.25722 0.30483 0.0
H315 H 0.54073 0.22633 0.33688 0.0
H316 H 0.55707 0.18632 0.32545 0.0
C317 C 0.68042 0.16822 0.4358 0.0
C318 C 0.72054 0.20217 0.4025 0.0
C319 C 0.62529 0.10528 0.25496 0.0
C320 C 0.5974 0.11657 0.23575 0.0
C321 C 0.57961 0.14635 0.24407 0.0
C322 C 0.58897 0.164 0.27128 0.0
C323 C 0.61669 0.15203 0.29047 0.0
C324 C 0.63449 0.12324 0.28175 0.0
C325 C 0.66401 0.11436 0.30379 0.0
C326 C 0.66075 0.142 0.32771 0.0
C327 C 0.63287 0.16421 0.32017 0.0
C328 C 0.65794 0.08179 0.31971 0.0
C329 C 0.69748 0.11404 0.28402 0.0
C330 C 0.58519 0.26793 0.37797 0.0
C331 C 0.59514 0.28359 0.40634 0.0
C332 C 0.62358 0.26954 0.4234 0.0
C333 C 0.6415 0.24093 0.41294 0.0
C334 C 0.63135 0.22568 0.38481 0.0
C335 C 0.60358 0.23904 0.36773 0.0
C336 C 0.59682 0.21898 0.33831 0.0
C337 C 0.6251 0.19158 0.34067 0.0
C338 C 0.64526 0.19591 0.36808 0.0
C339 C 0.56098 0.20669 0.34161 0.0
C340 C 0.60095 0.23982 0.30827 0.0
H341 H 0.72522 0.0873 0.33646 0.0
H342 H 0.75587 0.14293 0.43655 0.0
H343 H 0.74126 0.19839 0.38438 0.0
H344 H 0.70599 0.22477 0.39517 0.0
H345 H 0.73276 0.20588 0.42609 0.0
H346 H 0.67463 0.14271 0.43878 0.0
H347 H 0.6968 0.17445 0.45625 0.0
H348 H 0.6554 0.18225 0.43778 0.0
H349 H 0.64007 0.08293 0.24906 0.0
H350 H 0.558 0.15574 0.22984 0.0
H351 H 0.57424 0.18628 0.27642 0.0
H352 H 0.63056 0.08093 0.32618 0.0
H353 H 0.66493 0.06131 0.30321 0.0
H354 H 0.67204 0.07772 0.3424 0.0
H355 H 0.69463 0.13103 0.26351 0.0
H356 H 0.71903 0.12229 0.29806 0.0
H357 H 0.70491 0.08969 0.27408 0.0
H358 H 0.77407 0.06639 0.36661 0.0
C359 C 0.73101 0.10002 0.35792 0.0
C360 C 0.47053 0.54328 0.16907 0.0
C361 C 0.4542 0.52198 0.18862 0.0
C362 C 0.42613 0.50688 0.17629 0.0
C363 C 0.42746 0.53876 0.12797 0.0
C364 C 0.45656 0.55163 0.13912 0.0
C365 C 0.46744 0.57803 0.11804 0.0
H366 H 0.4179 0.69682 0.01941 0.0
C367 C 0.41616 0.55647 0.09869 0.0
C368 C 0.43984 0.57912 0.09243 0.0
H369 H 0.51254 0.68129 0.07213 0.0
H370 H 0.5012 0.62619 0.08178 0.0
H371 H 0.36893 0.66238 0.06604 0.0
H372 H 0.426 0.62667 0.9837 0.0
H373 H 0.39223 0.60169 0.98758 0.0
H374 H 0.38301 0.64419 0.97987 0.0
H375 H 0.36292 0.67686 0.02571 0.0
H376 H 0.3425 0.64271 0.03911 0.0
C377 C 0.46588 0.60931 0.13858 0.0
C378 C 0.50326 0.56749 0.10418 0.0
C379 C 0.29839 0.54262 0.05292 0.0
C380 C 0.27947 0.55799 0.02795 0.0
C381 C 0.29494 0.58025 1.00856 0.0
C382 C 0.32821 0.58833 1.01508 0.0
C383 C 0.34602 0.57415 0.04133 0.0
C384 C 0.33163 0.55079 0.05894 0.0
C385 C 0.35489 0.53745 0.08516 0.0
C386 C 0.38568 0.55667 0.08032 0.0
C387 C 0.37982 0.57882 0.05523 0.0
C388 C 0.33675 0.54532 0.11759 0.0
C389 C 0.36361 0.50106 0.07872 0.0
C390 C 0.43621 0.68133 0.03283 0.0
C391 C 0.46544 0.69362 0.0461 0.0
C392 C 0.4896 0.67255 0.06207 0.0
C393 C 0.48277 0.64072 0.06805 0.0
C394 C 0.45118 0.63027 0.05869 0.0
C395 C 0.42962 0.64947 0.03932 0.0
C396 C 0.39826 0.63312 0.02992 0.0
C397 C 0.4032 0.60238 0.04959 0.0
C398 C 0.43378 0.60151 0.06712 0.0
C399 C 0.36632 0.6548 0.04062 0.0
C400 C 0.39968 0.62614 0.99339 0.0
H401 H 0.3908 0.50345 0.13824 0.0
H402 H 0.49197 0.55542 0.17803 0.0
H403 H 0.50862 0.54084 0.10436 0.0
H404 H 0.50556 0.57432 0.07868 0.0
H405 H 0.52376 0.57787 0.11824 0.0
H406 H 0.44196 0.61188 0.15296 0.0
H407 H 0.48777 0.6089 0.15548 0.0
H408 H 0.46572 0.63157 0.1246 0.0
H409 H 0.2873 0.52496 0.0678 0.0
H410 H 0.28082 0.59226 0.98911 0.0
H411 H 0.33846 0.60601 1.00011 0.0
H412 H 0.32262 0.5696 0.11699 0.0
H413 H 0.31802 0.52755 0.12305 0.0
H414 H 0.35447 0.54639 0.13797 0.0
H415 H 0.36505 0.49591 0.05255 0.0
H416 H 0.38897 0.49223 0.08815 0.0
H417 H 0.34389 0.48648 0.08899 0.0
H418 H 0.41347 0.48997 0.19081 0.0
C419 C 0.41292 0.51489 0.14588 0.0
C420 C 0.04447 0.36398 0.55023 0.0
C421 C 0.06357 0.34146 0.53108 0.0
C422 C 0.09514 0.34917 0.51859 0.0
C423 C 0.09092 0.39889 0.54915 0.0
C424 C 0.05893 0.3921 0.55964 0.0
C425 C 0.04545 0.41465 0.5857 0.0
H426 H 0.08417 0.51019 0.70669 0.0
C427 C 0.1014 0.42652 0.56802 0.0
C428 C 0.07491 0.43573 0.58957 0.0
H429 H 0.99227 0.4619 0.6915 0.0
H430 H 0.00946 0.44956 0.63706 0.0
H431 H 0.08635 0.54236 0.63428 0.0
H432 H 0.1342 0.45707 0.67832 0.0
H433 H 0.1655 0.47624 0.65722 0.0
H434 H 0.14295 0.49736 0.68917 0.0
H435 H 0.12459 0.5435 0.65759 0.0
H436 H 0.12603 0.53477 0.61511 0.0
C437 C 0.01318 0.43423 0.5728 0.0
C438 C 0.03925 0.39459 0.6163 0.0
C439 C 0.22279 0.45942 0.55868 0.0
C440 C 0.24105 0.48133 0.57612 0.0
C441 C 0.22371 0.50146 0.59908 0.0
C442 C 0.18908 0.49894 0.60552 0.0
C443 C 0.17171 0.47562 0.58931 0.0
C444 C 0.18822 0.457 0.56565 0.0
C445 C 0.16556 0.43343 0.55106 0.0
C446 C 0.1327 0.44124 0.56974 0.0
C447 C 0.13677 0.46552 0.59253 0.0
C448 C 0.16085 0.44153 0.51511 0.0
C449 C 0.18177 0.3988 0.55773 0.0
C450 C 0.06761 0.49729 0.69141 0.0
C451 C 0.03739 0.48615 0.70359 0.0
C452 C 0.01584 0.47045 0.68279 0.0
C453 C 0.02609 0.46291 0.65134 0.0
C454 C 0.05843 0.47056 0.64092 0.0
C455 C 0.07784 0.48897 0.66017 0.0
C456 C 0.11181 0.49424 0.64533 0.0
C457 C 0.11045 0.47403 0.61502 0.0
C458 C 0.0793 0.45993 0.61287 0.0
C459 C 0.11255 0.53057 0.6378 0.0
C460 C 0.14029 0.48075 0.66859 0.0
H461 H 0.1334 0.38216 0.51786 0.0
H462 H 0.02054 0.35812 0.56073 0.0
H463 H 0.05202 0.36977 0.61497 0.0
H464 H 0.05017 0.40478 0.63817 0.0
H465 H 0.01162 0.39223 0.62022 0.0
H466 H 0.0171 0.44184 0.54764 0.0
H467 H 0.9908 0.41958 0.57308 0.0
H468 H 1.00688 0.45676 0.58639 0.0
H469 H 0.23546 0.44356 0.54096 0.0
H470 H 0.23708 0.51898 0.61233 0.0
H471 H 0.17744 0.51455 0.6236 0.0
H472 H 0.15654 0.46802 0.51166 0.0
H473 H 0.1839 0.43288 0.50117 0.0
H474 H 0.13833 0.43132 0.50449 0.0
H475 H 0.19874 0.3981 0.57913 0.0
H476 H 0.16258 0.38176 0.5635 0.0
H477 H 0.19741 0.38923 0.53712 0.0
H478 H 0.1102 0.3319 0.50382 0.0
C479 C 0.10868 0.3781 0.52712 0.0
C480 C 0.03408 0.04607 0.46368 0.0
N481 N 0.02084 0.09364 0.55123 0.0
C482 C 0.05332 0.10111 0.5454 0.0
C483 C 0.06223 0.13245 0.54938 0.0
C484 C 0.03743 0.15662 0.55906 0.0
C485 C 1.00443 0.14817 0.56634 0.0
C486 C 0.99665 0.11621 0.56237 0.0
Zn487 Zn 0.00905 0.04986 0.53446 0.0
C488 C 0.94299 0.05341 0.50068 0.0
N489 N 0.99095 0.95922 0.49371 0.0
C490 C 0.01426 0.93577 0.48266 0.0
C491 C 0.95792 0.95308 0.49895 0.0
C492 C 0.94724 0.92258 0.49363 0.0
C493 C 0.97082 0.89763 0.48342 0.0
C494 C 1.00469 0.90446 0.47749 0.0
Zn495 Zn 1.00346 1.00301 0.51048 0.0
O496 O 0.03024 0.06266 0.48928 0.0
C497 C 0.06976 1.00033 0.54458 0.0
O498 O 0.02564 0.01707 0.46415 0.0
H499 H 0.93996 0.97137 0.50907 0.0
H500 H 0.07197 0.08327 0.53556 0.0
H501 H 0.04053 0.94095 0.47919 0.0
O502 O 0.05744 0.02889 0.55056 0.0
O503 O 0.05263 0.98236 0.52712 0.0
H504 H 0.9709 0.10985 0.56654 0.0
O505 O 0.98185 0.98995 0.55682 0.0
O506 O 0.98716 0.03677 0.5795 0.0
O507 O 0.95446 0.02469 0.49412 0.0
O508 O 0.96077 0.07046 0.51833 0.0
C509 C 0.97825 1.00809 0.5815 0.0
H510 H 0.08778 0.13802 0.54293 0.0
H511 H 0.98466 0.16622 0.57402 0.0
H512 H 0.92112 0.91817 0.49923 0.0
H513 H 0.02363 0.88571 0.46965 0.0
C514 C 0.57533 0.99058 0.98788 0.0
N515 N 0.51208 0.07758 0.98173 0.0
C516 C 0.54257 0.09011 0.98644 0.0
C517 C 0.54587 0.1226 0.98141 0.0
C518 C 0.51764 0.14276 0.97108 0.0
C519 C 0.48681 0.12892 0.96471 0.0
C520 C 0.48453 0.09603 0.97037 0.0
Zn521 Zn 0.50923 0.03278 1.00048 0.0
C522 C 0.48163 0.98466 0.95915 0.0
N523 N 0.51062 0.94301 0.04723 0.0
C524 C 0.53861 0.92538 0.05882 0.0
C525 C 0.48071 0.92957 0.04223 0.0
C526 C 0.47871 0.89677 0.04657 0.0
C527 C 0.50764 0.87738 0.05671 0.0
C528 C 0.5376 0.8923 0.06396 0.0
Zn529 Zn 0.51306 0.98753 0.02818 0.0
O530 O 0.55962 0.01763 0.98089 0.0
C531 C 0.54011 0.03586 0.0695 0.0
O532 O 0.56172 0.97259 1.00784 0.0
H533 H 0.45891 0.94386 0.03255 0.0
H534 H 0.56397 0.07537 0.99623 0.0
H535 H 0.56221 0.93657 0.06238 0.0
O536 O 0.53141 0.05079 0.04384 0.0
O537 O 0.53664 1.00575 0.07078 0.0
H538 H 0.46041 0.08564 0.96718 0.0
O539 O 0.46454 1.00281 0.04884 0.0
O540 O 0.45898 0.04698 0.02038 0.0
O541 O 0.48952 0.96981 0.98509 0.0
O542 O 0.48654 0.01446 0.95747 0.0
C543 C 0.44733 0.02899 0.04168 0.0
H544 H 0.56992 0.13205 0.98749 0.0
H545 H 0.46445 0.14348 0.95642 0.0
H546 H 0.45522 0.88659 0.03994 0.0
H547 H 0.56038 0.87843 0.07233 0.0
C548 C 0.52178 0.44692 0.49639 0.0
N549 N 0.51714 0.49371 0.58723 0.0
C550 C 0.50397 0.4691 0.60305 0.0
C551 C 0.50872 0.46579 0.6361 0.0
C552 C 0.52741 0.48789 0.65284 0.0
C553 C 0.5416 0.51232 0.63557 0.0
C554 C 0.53586 0.51498 0.60279 0.0
Zn555 Zn 0.50599 0.50303 0.54045 0.0
C556 C 0.56697 0.52692 0.50718 0.0
N557 N 0.48408 0.52658 0.44315 0.0
C558 C 0.46384 0.50537 0.42938 0.0
C559 C 0.49701 0.55026 0.42565 0.0
C560 C 0.48979 0.55295 0.39282 0.0
C561 C 0.46864 0.53143 0.37844 0.0
C562 C 0.45544 0.50764 0.39711 0.0
Zn563 Zn 0.49599 0.51783 0.49014 0.0
O564 O 0.52193 0.45399 0.52617 0.0
C565 C 0.43466 0.49506 0.52442 0.0
O566 O 0.51189 0.46885 0.47657 0.0
H567 H 0.51336 0.56662 0.43697 0.0
H568 H 0.48897 0.4526 0.59022 0.0
H569 H 0.4547 0.486 0.44321 0.0
O570 O 0.4555 0.49079 0.54755 0.0
O571 O 0.44504 0.50576 0.49808 0.0
H572 H 0.54573 0.53467 0.58994 0.0
O573 O 0.48049 0.567 0.50444 0.0
O574 O 0.4901 0.55174 0.55403 0.0
O575 O 0.54692 0.53024 0.48325 0.0
O576 O 0.55618 0.51585 0.5332 0.0
C577 C 0.48068 0.57388 0.53428 0.0
H578 H 0.49709 0.4467 0.64848 0.0
H579 H 0.55685 0.52945 0.64724 0.0
H580 H 0.50047 0.57154 0.37888 0.0
H581 H 0.43953 0.49032 0.38661 0.0
C582 C 0.9951 0.58027 1.00162 0.0
N583 N 0.9984 0.54472 0.09706 0.0
C584 C 0.01453 0.56908 0.11066 0.0
C585 C 0.01333 0.57379 0.14386 0.0
C586 C 0.9951 0.5534 0.16285 0.0
C587 C 0.97752 0.5295 0.14791 0.0
C588 C 0.9796 0.5255 0.11494 0.0
Zn589 Zn 0.00793 0.52969 0.05135 0.0
C590 C 0.94636 0.50413 0.02133 0.0
N591 N 0.02925 0.49222 0.95818 0.0
C592 C 0.05064 0.50966 0.94105 0.0
C593 C 0.01311 0.468 0.94429 0.0
C594 C 0.01755 0.46126 0.91161 0.0
C595 C 0.03936 0.47918 0.89366 0.0
C596 C 0.05644 0.50321 0.90876 0.0
Zn597 Zn 0.01883 0.50764 1.00377 0.0
O598 O 0.99365 0.57682 0.03193 0.0
C599 C 0.08049 0.53282 0.0343 0.0
O600 O 1.00511 0.55581 0.98458 0.0
H601 H 0.99599 0.45461 0.95826 0.0
H602 H 0.02963 0.58385 0.09601 0.0
H603 H 0.06238 0.5295 0.95209 0.0
O604 O 0.05908 0.54104 0.05615 0.0
O605 O 0.07056 0.51835 1.00961 0.0
H606 H 0.96777 0.5057 0.10395 0.0
O607 O 0.03211 0.45949 0.02378 0.0
O608 O 0.02238 0.4827 0.07034 0.0
O609 O 0.96725 0.49704 0.99869 0.0
O610 O 0.95668 0.51793 0.04627 0.0
C611 C 0.03127 0.45739 0.05428 0.0
H612 H 0.02704 0.59262 0.15461 0.0
H613 H 0.96366 0.5129 0.16173 0.0
H614 H 1.00394 0.4426 0.90043 0.0
H615 H 0.07302 0.51776 0.89535 0.0
H616 H 0.07896 0.13975 0.35385 0.0
H617 H 0.09021 0.05135 0.29951 0.0
H618 H 0.07221 0.02143 0.34611 0.0
H619 H 0.05231 0.02022 0.40316 0.0
H620 H 0.04355 0.10948 0.45674 0.0
H621 H 0.0611 0.13847 0.41019 0.0
C622 C 0.0773 0.11396 0.35202 0.0
C623 C 0.08591 0.0981 0.3228 0.0
C624 C 0.06725 0.09671 0.37917 0.0
C625 C 0.08406 0.06443 0.32151 0.0
C626 C 0.07358 0.04721 0.34826 0.0
C627 C 0.05432 0.04597 0.40469 0.0
C628 C 0.04635 0.06228 0.43396 0.0
C629 C 0.06502 0.06303 0.37739 0.0
C630 C 0.04939 0.09582 0.435 0.0
C631 C 0.05946 0.1127 0.40817 0.0
H632 H 0.4365 0.88482 0.85454 0.0
H633 H 0.41871 0.9715 0.79887 0.0
H634 H 0.43699 1.00355 0.84403 0.0
H635 H 0.45897 1.00719 0.89973 0.0
H636 H 0.4752 0.9201 0.95531 0.0
H637 H 0.45687 0.88852 0.91023 0.0
C638 C 0.43679 0.9107 0.85217 0.0
C639 C 0.42621 0.92553 0.82306 0.0
C640 C 0.44711 0.92916 0.87848 0.0
C641 C 0.42636 0.95927 0.82089 0.0
C642 C 0.43699 0.97769 0.84677 0.0
C643 C 0.45838 0.98133 0.90204 0.0
C644 C 0.46865 0.9663 0.9312 0.0
C645 C 0.44748 0.96297 0.87578 0.0
C646 C 0.46753 0.93263 0.93345 0.0
C647 C 0.45706 0.91437 0.90752 0.0
H648 H 0.55739 0.4567 0.79815 0.0
H649 H 0.55048 0.56038 0.8045 0.0
H650 H 0.53593 0.56408 0.74733 0.0
H651 H 0.527 0.53752 0.69568 0.0
H652 H 0.53826 0.43362 0.68935 0.0
H653 H 0.54821 0.4303 0.74694 0.0
C654 C 0.55208 0.48014 0.78714 0.0
C655 C 0.55449 0.50828 0.80543 0.0
C656 C 0.5445 0.48196 0.75444 0.0
C657 C 0.54857 0.53846 0.79078 0.0
C658 C 0.5403 0.54052 0.75821 0.0
C659 C 0.53195 0.51412 0.70679 0.0
C660 C 0.53205 0.48585 0.68809 0.0
C661 C 0.53861 0.51239 0.73977 0.0
C662 C 0.53763 0.45575 0.70312 0.0
C663 C 0.54359 0.45382 0.73602 0.0
H664 H 0.02041 0.54976 0.31214 0.0
H665 H 0.91099 0.54372 0.31028 0.0
H666 H 0.91115 0.54571 0.25248 0.0
H667 H 0.94121 0.55127 0.20232 0.0
H668 H 0.04989 0.55932 0.20246 0.0
H669 H 0.05073 0.55638 0.26111 0.0
C670 C 0.9966 0.54887 0.29914 0.0
C671 C 0.96592 0.54593 0.3159 0.0
C672 C 0.99648 0.55129 0.26556 0.0
C673 C 0.93534 0.54473 0.29838 0.0
C674 C 0.93518 0.54649 0.26516 0.0
C675 C 0.9651 0.55234 0.2152 0.0
C676 C 0.9954 0.55541 0.19821 0.0
C677 C 0.96546 0.55007 0.24858 0.0
C678 C 0.02612 0.55733 0.21514 0.0
C679 C 0.02667 0.55526 0.24859 0.0
H680 H 0.32803 0.06199 0.14161 0.0
H681 H 0.28553 0.11727 0.0615 0.0
H682 H 0.33556 0.10064 0.0296 0.0
H683 H 0.39226 0.07037 0.02378 0.0
H684 H 0.43143 1.01063 0.10183 0.0
H685 H 0.38182 0.02834 0.13436 0.0
C686 C 0.32916 0.07012 0.11705 0.0
C687 C 0.30269 0.09164 0.10471 0.0
C688 C 0.35771 0.05947 0.09806 0.0
C689 C 0.30557 0.10176 0.07261 0.0
C690 C 0.33422 0.09192 0.05395 0.0
C691 C 0.38985 0.06116 0.04786 0.0
C692 C 0.41575 0.03922 0.06024 0.0
C693 C 0.36064 0.07094 0.06643 0.0
C694 C 0.41194 0.02738 0.09148 0.0
C695 C 0.38354 0.0376 0.11024 0.0
H696 H 0.21078 0.97508 0.61748 0.0
H697 H 0.18812 0.87627 0.60432 0.0
H698 H 0.13649 0.89399 0.57459 0.0
H699 H 0.09628 0.93783 0.55354 0.0
H700 H 0.11814 0.03651 0.56913 0.0
H701 H 0.171 0.01857 0.59665 0.0
C702 C 0.19446 0.95735 0.60841 0.0
C703 C 0.20368 0.9243 0.61327 0.0
C704 C 0.16441 0.96772 0.5916 0.0
C705 C 0.18222 0.90184 0.60068 0.0
C706 C 0.15244 0.91197 0.58376 0.0
C707 C 0.11279 0.95537 0.56269 0.0
C708 C 0.1031 0.98851 0.55915 0.0
C709 C 0.14316 0.94488 0.57911 0.0
C710 C 0.12475 1.01087 0.5715 0.0
C711 C 0.15508 1.00063 0.58733 0.0
H712 H 0.79226 0.47309 0.03381 0.0
H713 H 0.80297 0.464 0.93131 0.0
H714 H 0.86269 0.47616 0.93508 0.0
H715 H 0.91176 0.48956 0.96752 0.0
H716 H 0.90039 0.50114 0.06987 0.0
H717 H 0.84113 0.48778 0.06621 0.0
C718 C 0.80782 0.47366 1.0124 0.0
C719 C 0.79343 0.46764 0.98237 0.0
C720 C 0.84194 0.48114 1.01471 0.0
C721 C 0.81357 0.46879 0.95467 0.0
C722 C 0.84768 0.47564 0.95682 0.0
C723 C 0.89632 0.48909 0.98902 0.0
C724 C 0.91046 0.49623 0.0189 0.0
C725 C 0.86212 0.48189 0.9867 0.0
C726 C 0.89006 0.49582 0.04654 0.0
C727 C 0.85619 0.48813 0.0445 0.0
H728 H 0.7202 0.55901 0.52385 0.0
H729 H 0.71721 0.55243 0.42085 0.0
H730 H 0.65642 0.54368 0.42259 0.0
H731 H 0.6048 0.5352 0.45366 0.0
H732 H 0.60891 0.5386 0.55696 0.0
H733 H 0.66832 0.55133 0.55491 0.0
C734 C 0.70601 0.55601 0.50187 0.0
C735 C 0.72288 0.55632 0.47231 0.0
C736 C 0.67134 0.55019 0.50312 0.0
C737 C 0.70456 0.55208 0.44389 0.0
C738 C 0.66988 0.54709 0.44487 0.0
C739 C 0.61867 0.53895 0.47567 0.0
C740 C 0.60252 0.53585 0.50537 0.0
C741 C 0.6531 0.54565 0.47438 0.0
C742 C 0.62085 0.5406 0.53375 0.0
C743 C 0.65482 0.54796 0.53264 0.0
H744 H 0.07839 0.34268 0.14954 0.0
H745 H 0.08168 0.28873 0.06113 0.0
H746 H 0.06048 0.33683 0.03171 0.0
H747 H 0.04434 0.39555 0.0301 0.0
H748 H 0.04052 0.4495 0.11869 0.0
H749 H 0.05832 0.4008 0.14843 0.0
C750 C 0.07374 0.34134 0.12397 0.0
C751 C 0.08174 0.31194 0.1077 0.0
C752 C 0.06184 0.36948 0.10689 0.0
C753 C 0.0759 0.31094 0.07437 0.0
C754 C 0.06389 0.33856 0.05741 0.0
C755 C 0.04728 0.39667 0.05591 0.0
C756 C 0.04123 0.42655 0.07183 0.0
C757 C 0.05743 0.36822 0.07323 0.0
C758 C 0.04501 0.42712 0.10547 0.0
C759 C 0.05523 0.39912 0.12269 0.0
H760 H 0.51253 0.29391 0.98812 0.0
H761 H 0.61646 0.27575 0.9551 0.0
H762 H 0.60851 0.21868 0.94898 0.0
H763 H 0.57211 0.17423 0.95208 0.0
H764 H 0.46907 0.19113 0.98787 0.0
H765 H 0.47601 0.2487 0.99196 0.0
C766 C 0.53342 0.27741 0.97964 0.0
C767 C 0.56513 0.28904 0.97238 0.0
C768 C 0.52861 0.24457 0.9759 0.0
C769 C 0.59203 0.26736 0.96155 0.0
C770 C 0.58738 0.23477 0.95763 0.0
C771 C 0.55118 0.19038 0.96104 0.0
C772 C 0.52019 0.17817 0.96982 0.0
C773 C 0.55578 0.22317 0.96463 0.0
C774 C 0.49308 0.19976 0.98049 0.0
C775 C 0.49718 0.23268 0.98328 0.0
H776 H 0.8967 0.76929 0.47813 0.0
H777 H 0.98711 0.73357 0.52941 0.0
H778 H 0.00962 0.78668 0.5262 0.0
H779 H 1.00323 0.84332 0.50858 0.0
H780 H 0.91347 0.87797 0.45543 0.0
H781 H 0.89117 0.82511 0.4591 0.0
C782 C 0.92105 0.77342 0.48905 0.0
C783 C 0.93999 0.74803 0.50456 0.0
C784 C 0.93413 0.80358 0.48624 0.0
C785 C 0.97198 0.75311 0.5178 0.0
C786 C 0.9849 0.78331 0.51573 0.0
C787 C 0.97912 0.83906 0.49732 0.0
C788 C 0.96002 0.86443 0.48174 0.0
C789 C 0.96631 0.80866 0.49976 0.0
C790 C 0.92853 0.85879 0.46766 0.0
C791 C 0.91571 0.82865 0.46986 0.0
H792 H 0.42381 0.71806 0.56397 0.0
H793 H 0.44302 0.68642 0.66114 0.0
H794 H 0.46662 0.63391 0.64127 0.0
H795 H 0.47865 0.59566 0.59644 0.0
H796 H 0.4575 0.62701 0.49945 0.0
H797 H 0.43729 0.68054 0.51922 0.0
C798 C 0.43298 0.69971 0.58095 0.0
C799 C 0.43118 0.70644 0.61421 0.0
C800 C 0.44591 0.66923 0.56935 0.0
C801 C 0.44418 0.68235 0.63551 0.0
C802 C 0.45744 0.65208 0.62412 0.0
C803 C 0.46973 0.61419 0.57953 0.0
C804 C 0.46952 0.607 0.54635 0.0
C805 C 0.45794 0.64506 0.59112 0.0
C806 C 0.45794 0.63158 0.52501 0.0
C807 C 0.44636 0.66229 0.53634 0.0
H808 H 0.91887 0.97817 0.7195 0.0
H809 H 0.93435 0.88062 0.68411 0.0
H810 H 0.95603 0.90024 0.63356 0.0
H811 H 0.97002 0.94529 0.59852 0.0
H812 H 0.9559 0.04267 0.6346 0.0
H813 H 0.93408 0.02301 0.68507 0.0
C814 C 0.92683 0.96111 0.70073 0.0
C815 C 0.92474 0.92776 0.70601 0.0
C816 C 0.93947 0.97262 0.67149 0.0
C817 C 0.93586 0.90629 0.68126 0.0
C818 C 0.9481 0.91756 0.65209 0.0
C819 C 0.96208 0.96229 0.61736 0.0
C820 C 0.96455 0.99562 0.61235 0.0
C821 C 0.94993 0.9507 0.6468 0.0
C822 C 0.95438 0.017 0.63744 0.0
C823 C 0.94185 1.00572 0.66646 0.0
H824 H 0.58004 0.1371 0.17493 0.0
H825 H 0.5916 0.05154 0.23293 0.0
H826 H 0.57602 0.01885 0.18723 0.0
H827 H 0.5584 0.0143 0.13034 0.0
H828 H 0.54818 0.10019 0.07245 0.0
H829 H 0.56381 0.13245 0.11806 0.0
C830 C 0.57892 0.11134 0.17765 0.0
C831 C 0.587 0.09698 0.20755 0.0
C832 C 0.57024 0.09248 0.15103 0.0
C833 C 0.58583 0.06337 0.21028 0.0
C834 C 0.57681 0.04458 0.18409 0.0
C835 C 0.5598 0.04003 0.12763 0.0
C836 C 0.55198 0.05453 0.09768 0.0
C837 C 0.56898 0.0588 0.15423 0.0
C838 C 0.55396 0.08806 0.09495 0.0
C839 C 0.56287 0.10673 0.12117 0.0
H840 H 0.41044 0.52713 0.2384 0.0
H841 H 0.5178 0.51391 0.2159 0.0
H842 H 0.53199 0.51789 0.27288 0.0
H843 H 0.51355 0.52581 0.32917 0.0
H844 H 0.40606 0.538 0.35101 0.0
H845 H 0.39209 0.53405 0.29408 0.0
C846 C 0.43693 0.52441 0.24602 0.0
C847 C 0.46303 0.51987 0.22308 0.0
C848 C 0.44482 0.52714 0.27859 0.0
C849 C 0.49728 0.5173 0.23321 0.0
C850 C 0.50539 0.51973 0.26571 0.0
C851 C 0.48715 0.52803 0.32125 0.0
C852 C 0.46081 0.53253 0.34392 0.0
C853 C 0.47935 0.52502 0.28858 0.0
C854 C 0.42664 0.53475 0.33374 0.0
C855 C 0.41868 0.5323 0.30132 0.0
H856 H 0.08371 0.47044 0.74965 0.0
H857 H 0.97709 0.50086 0.73579 0.0
H858 H 0.96752 0.4982 0.79374 0.0
H859 H 0.99033 0.48901 0.84853 0.0
H860 H 0.09748 0.46095 0.86155 0.0
H861 H 0.10614 0.46068 0.80349 0.0
C862 C 0.05846 0.47702 0.75931 0.0
C863 C 0.03126 0.4864 0.73858 0.0
C864 C 0.05326 0.47544 0.79238 0.0
C865 C 0.99845 0.49376 0.75135 0.0
C866 C 0.99299 0.49218 0.78441 0.0
C867 C 0.01536 0.48229 0.83843 0.0
C868 C 0.04323 0.47464 0.85888 0.0
C869 C 0.02025 0.48311 0.80514 0.0
C870 C 0.07575 0.46661 0.84596 0.0
C871 C 0.0807 0.46667 0.81291 0.0
H872 H 0.71893 0.96314 0.9175 0.0
H873 H 0.69767 0.86549 0.93901 0.0
H874 H 0.64423 0.88482 0.9643 0.0
H875 H 0.60351 0.92905 0.9817 0.0
H876 H 0.62128 0.0268 0.95782 0.0
H877 H 0.67548 1.00792 0.93214 0.0
C878 C 0.70246 0.94607 0.9274 0.0
C879 C 0.71314 0.9128 0.92686 0.0
C880 C 0.67097 0.95739 0.94176 0.0
C881 C 0.69103 0.89123 0.93981 0.0
C882 C 0.66016 0.90224 0.9542 0.0
C883 C 0.61925 0.94631 0.97099 0.0
C884 C 0.60837 0.97938 0.97209 0.0
C885 C 0.65004 0.93524 0.95572 0.0
C886 C 0.62897 1.00123 0.9575 0.0
C887 C 0.66003 0.99041 0.94276 0.0
H888 H 0.81608 0.13421 0.43872 0.0
H889 H 0.78999 0.03866 0.4133 0.0
H890 H 0.84086 0.01529 0.44058 0.0
H891 H 0.89384 0.02164 0.47057 0.0
H892 H 0.91859 0.11679 0.49856 0.0
H893 H 0.86698 0.14034 0.47209 0.0
C894 C 0.82112 0.10825 0.4395 0.0
C895 C 0.79916 0.08843 0.42332 0.0
C896 C 0.85034 0.09474 0.45582 0.0
C897 C 0.80666 0.05478 0.4246 0.0
C898 C 0.83572 0.04126 0.44049 0.0
C899 C 0.88788 0.04753 0.47104 0.0
C900 C 0.91028 0.06736 0.48645 0.0
C901 C 0.85797 0.06098 0.45589 0.0
C902 C 0.90189 0.10086 0.48696 0.0
C903 C 0.87237 0.11441 0.4717 0.0
H904 H 0.23036 0.56086 0.0732 0.0
H905 H 0.2473 0.54288 0.97246 0.0
H906 H 0.18696 0.53346 0.96539 0.0
H907 H 0.12959 0.52997 0.9882 0.0
H908 H 0.1127 0.55015 0.08877 0.0
H909 H 0.17288 0.55909 0.0956 0.0
C910 C 0.22081 0.55465 0.04976 0.0
C911 C 0.24313 0.55221 0.02344 0.0
C912 C 0.18617 0.54976 0.04587 0.0
C913 C 0.23047 0.54484 0.99304 0.0
C914 C 0.19606 0.53942 0.98904 0.0
C915 C 0.1391 0.53633 1.0116 0.0
C916 C 0.11673 0.53924 0.03796 0.0
C917 C 0.17369 0.54177 1.01531 0.0
C918 C 0.12935 0.5478 0.06807 0.0
C919 C 0.16378 0.55283 0.07203 0.0
H920 H 0.27573 0.48258 0.5198 0.0
H921 H 0.28989 0.48208 0.62231 0.0
H922 H 0.35134 0.48441 0.61535 0.0
H923 H 0.40079 0.48812 0.58025 0.0
H924 H 0.38665 0.49047 0.47769 0.0
H925 H 0.32558 0.4854 0.48453 0.0
C926 C 0.29236 0.48275 0.54055 0.0
C927 C 0.27833 0.48236 0.5715 0.0
C928 C 0.32765 0.48433 0.53638 0.0
C929 C 0.30007 0.48286 0.59824 0.0
C930 C 0.33521 0.48399 0.59429 0.0
C931 C 0.38441 0.4872 0.55938 0.0
C932 C 0.39824 0.48962 0.52853 0.0
C933 C 0.34925 0.48495 0.56349 0.0
C934 C 0.37661 0.4887 0.50173 0.0
C935 C 0.34168 0.48585 0.5056 0.0
H936 H 0.94176 0.72226 0.95838 0.0
H937 H 0.96395 0.68109 0.86487 0.0
H938 H 0.98406 0.62998 0.88946 0.0
H939 H 0.99438 0.59594 0.93751 0.0
H940 H 0.97142 0.63683 0.03095 0.0
H941 H 0.95246 0.68839 1.00642 0.0
C942 C 0.95076 0.70212 0.94324 0.0
C943 C 0.95123 0.70605 0.90955 0.0
C944 C 0.96219 0.67238 0.95761 0.0
C945 C 0.96363 0.67942 0.89074 0.0
C946 C 0.97498 0.64989 0.90484 0.0
C947 C 0.98532 0.61611 0.9526 0.0
C948 C 0.98443 0.61214 0.98624 0.0
C949 C 0.97431 0.64598 0.93825 0.0
C950 C 0.97252 0.63884 1.00512 0.0
C951 C 0.96159 0.66849 0.99105 0.0
H952 H 0.52156 0.72652 0.03506 0.0
H953 H 0.41548 0.73927 0.06276 0.0
H954 H 0.4202 0.79656 0.07153 0.0
H955 H 0.45433 0.84264 0.07225 0.0
H956 H 0.55924 0.83159 0.04042 0.0
H957 H 0.55562 0.77373 0.03424 0.0
C958 C 0.4995 0.74196 0.04283 0.0
C959 C 0.46815 0.72878 0.04789 0.0
C960 C 0.50237 0.77497 0.0479 0.0
C961 C 0.43971 0.74897 0.05799 0.0
C962 C 0.44248 0.78165 0.06342 0.0
C963 C 0.47639 0.82776 0.06361 0.0
C964 C 0.50692 0.84172 0.05666 0.0
C965 C 0.47368 0.79485 0.05854 0.0
C966 C 0.5355 0.82164 0.04648 0.0
C967 C 0.53333 0.78854 0.04245 0.0
H968 H 0.10059 0.29045 0.55489 0.0
H969 H 1.00474 0.31853 0.50865 0.0
H970 H 0.98719 0.26362 0.51467 0.0
H971 H 0.9995 0.20779 0.53357 0.0
H972 H 0.0945 0.18134 0.58245 0.0
H973 H 0.11199 0.2357 0.57529 0.0
C974 C 0.07614 0.28427 0.5456 0.0
C975 C 0.05425 0.30795 0.53063 0.0
C976 C 0.06594 0.25324 0.55015 0.0
C977 C 0.02214 0.30028 0.51967 0.0
C978 C 0.01207 0.26908 0.52338 0.0
C979 C 0.02374 0.21414 0.54315 0.0
C980 C 0.04571 0.19063 0.5585 0.0
C981 C 0.03368 0.24544 0.53886 0.0
C982 C 0.07728 0.19901 0.57037 0.0
C983 C 0.08733 0.23001 0.56621 0.0
H984 H 0.58186 0.30318 0.46848 0.0
H985 H 0.56791 0.33505 0.37072 0.0
H986 H 0.54293 0.38737 0.38974 0.0
H987 H 0.52765 0.42535 0.43417 0.0
H988 H 0.54353 0.39381 0.53183 0.0
H989 H 0.56554 0.34055 0.51274 0.0
C990 C 0.57358 0.32154 0.4512 0.0
C991 C 0.57717 0.31485 0.41802 0.0
C992 C 0.55973 0.35193 0.46234 0.0
C993 C 0.56532 0.33903 0.39629 0.0
C994 C 0.55124 0.3692 0.4072 0.0
C995 C 0.53577 0.40683 0.45136 0.0
C996 C 0.53393 0.4139 0.48455 0.0
C997 C 0.54868 0.3761 0.44017 0.0
C998 C 0.54463 0.38935 0.50625 0.0
C999 C 0.55727 0.35877 0.49531 0.0
loop_
_geom_bond_atom_site_label_1
_geom_bond_atom_site_label_2
_geom_bond_distance
_geom_bond_site_symmetry_2
_ccdc_geom_bond_type
C0 C1 1.391 . S
C0 C4 1.391 . S
C0 H42 0.948 . S
C1 C0 1.391 . S
C1 C2 1.391 . S
C2 C1 1.391 . S
C2 H58 0.947 . S
C2 C59 1.392 . S
C3 C4 1.391 . S
C3 C7 1.397 . S
C3 C59 1.419 . S
C4 C0 1.391 . S
C4 C3 1.391 . S
C4 C5 1.399 . S
C5 C4 1.399 . S
C5 C8 1.396 . S
C5 C17 1.453 . S
C5 C18 1.684 . S
H6 C30 0.948 . S
C7 C3 1.397 . S
C7 C8 1.394 . S
C7 C26 1.723 . S
C8 C5 1.396 . S
C8 C7 1.394 . S
C8 C38 1.723 . S
H9 C32 0.947 . S
H10 C33 0.948 . S
H11 C39 0.982 . S
H12 C40 0.979 . S
H13 C40 0.980 . S
H14 C40 0.983 . S
H15 C39 0.979 . S
H16 C39 0.977 . S
C17 C5 1.453 . S
C17 H46 0.982 . S
C17 H47 0.979 . S
C17 H48 0.977 . S
C18 C5 1.684 . S
C18 H43 0.979 . S
C18 H44 0.980 . S
C18 H45 0.983 . S
C19 C20 1.391 . S
C19 C24 1.391 . S
C19 H49 0.948 . S
C20 C19 1.391 . S
C20 C21 1.391 . S
C21 C20 1.391 . S
C21 C22 1.392 . S
C21 H50 0.947 . S
C22 C21 1.392 . S
C22 C23 1.419 . S
C22 H51 0.948 . S
C23 C22 1.419 . S
C23 C24 1.391 . S
C23 C27 1.397 . S
C24 C19 1.391 . S
C24 C23 1.391 . S
C24 C25 1.399 . S
C25 C24 1.399 . S
C25 C26 1.396 . S
C25 C28 1.453 . S
C25 C29 1.684 . S
C26 C7 1.723 . S
C26 C25 1.396 . S
C26 C27 1.394 . S
C27 C23 1.397 . S
C27 C26 1.394 . S
C27 C37 1.723 . S
C28 C25 1.453 . S
C28 H52 0.982 . S
C28 H53 0.979 . S
C28 H54 0.977 . S
C29 C25 1.684 . S
C29 H55 0.979 . S
C29 H56 0.980 . S
C29 H57 0.983 . S
C30 H6 0.948 . S
C30 C31 1.391 . S
C30 C35 1.391 . S
C31 C30 1.391 . S
C31 C32 1.391 . S
C32 H9 0.947 . S
C32 C31 1.391 . S
C32 C33 1.392 . S
C33 H10 0.948 . S
C33 C32 1.392 . S
C33 C34 1.419 . S
C34 C33 1.419 . S
C34 C35 1.391 . S
C34 C38 1.397 . S
C35 C30 1.391 . S
C35 C34 1.391 . S
C35 C36 1.399 . S
C36 C35 1.399 . S
C36 C37 1.396 . S
C36 C39 1.453 . S
C36 C40 1.684 . S
C37 C27 1.723 . S
C37 C36 1.396 . S
C37 C38 1.394 . S
C38 C8 1.723 . S
C38 C34 1.397 . S
C38 C37 1.394 . S
C39 H11 0.982 . S
C39 H15 0.979 . S
C39 H16 0.977 . S
C39 C36 1.453 . S
C40 H12 0.979 . S
C40 H13 0.980 . S
C40 H14 0.983 . S
C40 C36 1.684 . S
H41 C59 0.948 . S
H42 C0 0.948 . S
H43 C18 0.979 . S
H44 C18 0.980 . S
H45 C18 0.983 . S
H46 C17 0.982 . S
H47 C17 0.979 . S
H48 C17 0.977 . S
H49 C19 0.948 . S
H50 C21 0.947 . S
H51 C22 0.948 . S
H52 C28 0.982 . S
H53 C28 0.979 . S
H54 C28 0.977 . S
H55 C29 0.979 . S
H56 C29 0.980 . S
H57 C29 0.983 . S
H58 C2 0.947 . S
C59 C2 1.392 . S
C59 C3 1.419 . S
C59 H41 0.948 . S
C60 C61 1.391 . S
C60 C64 1.391 . S
C60 H102 0.948 . S
C61 C60 1.391 . S
C61 C62 1.391 . S
C62 C61 1.391 . S
C62 H118 0.947 . S
C62 C119 1.392 . S
C63 C64 1.391 . S
C63 C67 1.397 . S
C63 C119 1.419 . S
C64 C60 1.391 . S
C64 C63 1.391 . S
C64 C65 1.399 . S
C65 C64 1.399 . S
C65 C68 1.396 . S
C65 C77 1.453 . S
C65 C78 1.684 . S
H66 C90 0.948 . S
C67 C63 1.397 . S
C67 C68 1.394 . S
C67 C86 1.723 . S
C68 C65 1.396 . S
C68 C67 1.394 . S
C68 C98 1.723 . S
H69 C92 0.947 . S
H70 C93 0.948 . S
H71 C99 0.982 . S
H72 C100 0.979 . S
H73 C100 0.980 . S
H74 C100 0.983 . S
H75 C99 0.979 . S
H76 C99 0.977 . S
C77 C65 1.453 . S
C77 H106 0.982 . S
C77 H107 0.979 . S
C77 H108 0.977 . S
C78 C65 1.684 . S
C78 H103 0.979 . S
C78 H104 0.980 . S
C78 H105 0.983 . S
C79 C80 1.391 . S
C79 C84 1.391 . S
C79 H109 0.948 . S
C80 C79 1.391 . S
C80 C81 1.391 . S
C81 C80 1.391 . S
C81 C82 1.392 . S
C81 H110 0.947 . S
C82 C81 1.392 . S
C82 C83 1.419 . S
C82 H111 0.948 . S
C83 C82 1.419 . S
C83 C84 1.391 . S
C83 C87 1.397 . S
C84 C79 1.391 . S
C84 C83 1.391 . S
C84 C85 1.399 . S
C85 C84 1.399 . S
C85 C86 1.396 . S
C85 C88 1.453 . S
C85 C89 1.684 . S
C86 C67 1.723 . S
C86 C85 1.396 . S
C86 C87 1.394 . S
C87 C83 1.397 . S
C87 C86 1.394 . S
C87 C97 1.723 . S
C88 C85 1.453 . S
C88 H112 0.982 . S
C88 H113 0.979 . S
C88 H114 0.977 . S
C89 C85 1.684 . S
C89 H115 0.979 . S
C89 H116 0.980 . S
C89 H117 0.983 . S
C90 H66 0.948 . S
C90 C91 1.391 . S
C90 C95 1.391 . S
C91 C90 1.391 . S
C91 C92 1.391 . S
C92 H69 0.947 . S
C92 C91 1.391 . S
C92 C93 1.392 . S
C93 H70 0.948 . S
C93 C92 1.392 . S
C93 C94 1.419 . S
C94 C93 1.419 . S
C94 C95 1.391 . S
C94 C98 1.397 . S
C95 C90 1.391 . S
C95 C94 1.391 . S
C95 C96 1.399 . S
C96 C95 1.399 . S
C96 C97 1.396 . S
C96 C99 1.453 . S
C96 C100 1.684 . S
C97 C87 1.723 . S
C97 C96 1.396 . S
C97 C98 1.394 . S
C98 C68 1.723 . S
C98 C94 1.397 . S
C98 C97 1.394 . S
C99 H71 0.982 . S
C99 H75 0.979 . S
C99 H76 0.977 . S
C99 C96 1.453 . S
C100 H72 0.979 . S
C100 H73 0.980 . S
C100 H74 0.983 . S
C100 C96 1.684 . S
H101 C119 0.948 . S
H102 C60 0.948 . S
H103 C78 0.979 . S
H104 C78 0.980 . S
H105 C78 0.983 . S
H106 C77 0.982 . S
H107 C77 0.979 . S
H108 C77 0.977 . S
H109 C79 0.948 . S
H110 C81 0.947 . S
H111 C82 0.948 . S
H112 C88 0.982 . S
H113 C88 0.979 . S
H114 C88 0.977 . S
H115 C89 0.979 . S
H116 C89 0.980 . S
H117 C89 0.983 . S
H118 C62 0.947 . S
C119 C62 1.392 . S
C119 C63 1.419 . S
C119 H101 0.948 . S
C120 C121 1.391 . S
C120 C124 1.391 . S
C120 H162 0.948 . S
C121 C120 1.391 . S
C121 C122 1.391 . S
C122 C121 1.391 . S
C122 H178 0.947 . S
C122 C179 1.392 . S
C123 C124 1.391 . S
C123 C127 1.397 . S
C123 C179 1.419 . S
C124 C120 1.391 . S
C124 C123 1.391 . S
C124 C125 1.399 . S
C125 C124 1.399 . S
C125 C128 1.396 . S
C125 C137 1.453 . S
C125 C138 1.684 . S
H126 C150 0.948 . S
C127 C123 1.397 . S
C127 C128 1.394 . S
C127 C146 1.723 . S
C128 C125 1.396 . S
C128 C127 1.394 . S
C128 C158 1.723 . S
H129 C152 0.947 . S
H130 C153 0.948 . S
H131 C159 0.982 . S
H132 C160 0.979 . S
H133 C160 0.980 . S
H134 C160 0.983 . S
H135 C159 0.979 . S
H136 C159 0.977 . S
C137 C125 1.453 . S
C137 H166 0.982 . S
C137 H167 0.979 . S
C137 H168 0.977 . S
C138 C125 1.684 . S
C138 H163 0.979 . S
C138 H164 0.980 . S
C138 H165 0.983 . S
C139 C140 1.391 . S
C139 C144 1.391 . S
C139 H169 0.948 . S
C140 C139 1.391 . S
C140 C141 1.391 . S
C141 C140 1.391 . S
C141 C142 1.392 . S
C141 H170 0.947 . S
C142 C141 1.392 . S
C142 C143 1.419 . S
C142 H171 0.948 . S
C143 C142 1.419 . S
C143 C144 1.391 . S
C143 C147 1.397 . S
C144 C139 1.391 . S
C144 C143 1.391 . S
C144 C145 1.399 . S
C145 C144 1.399 . S
C145 C146 1.396 . S
C145 C148 1.453 . S
C145 C149 1.684 . S
C146 C127 1.723 . S
C146 C145 1.396 . S
C146 C147 1.394 . S
C147 C143 1.397 . S
C147 C146 1.394 . S
C147 C157 1.723 . S
C148 C145 1.453 . S
C148 H172 0.982 . S
C148 H173 0.979 . S
C148 H174 0.977 . S
C149 C145 1.684 . S
C149 H175 0.979 . S
C149 H176 0.980 . S
C149 H177 0.983 . S
C150 H126 0.948 . S
C150 C151 1.391 . S
C150 C155 1.391 . S
C151 C150 1.391 . S
C151 C152 1.391 . S
C152 H129 0.947 . S
C152 C151 1.391 . S
C152 C153 1.392 . S
C153 H130 0.948 . S
C153 C152 1.392 . S
C153 C154 1.419 . S
C154 C153 1.419 . S
C154 C155 1.391 . S
C154 C158 1.397 . S
C155 C150 1.391 . S
C155 C154 1.391 . S
C155 C156 1.399 . S
C156 C155 1.399 . S
C156 C157 1.396 . S
C156 C159 1.453 . S
C156 C160 1.684 . S
C157 C147 1.723 . S
C157 C156 1.396 . S
C157 C158 1.394 . S
C158 C128 1.723 . S
C158 C154 1.397 . S
C158 C157 1.394 . S
C159 H131 0.982 . S
C159 H135 0.979 . S
C159 H136 0.977 . S
C159 C156 1.453 . S
C160 H132 0.979 . S
C160 H133 0.980 . S
C160 H134 0.983 . S
C160 C156 1.684 . S
H161 C179 0.948 . S
H162 C120 0.948 . S
H163 C138 0.979 . S
H164 C138 0.980 . S
H165 C138 0.983 . S
H166 C137 0.982 . S
H167 C137 0.979 . S
H168 C137 0.977 . S
H169 C139 0.948 . S
H170 C141 0.947 . S
H171 C142 0.948 . S
H172 C148 0.982 . S
H173 C148 0.979 . S
H174 C148 0.977 . S
H175 C149 0.979 . S
H176 C149 0.980 . S
H177 C149 0.983 . S
H178 C122 0.947 . S
C179 C122 1.392 . S
C179 C123 1.419 . S
C179 H161 0.948 . S
C180 C181 1.391 . S
C180 C184 1.391 . S
C180 H222 0.948 . S
C181 C180 1.391 . S
C181 C182 1.391 . S
C182 C181 1.391 . S
C182 H238 0.947 . S
C182 C239 1.392 . S
C183 C184 1.391 . S
C183 C187 1.397 . S
C183 C239 1.419 . S
C184 C180 1.391 . S
C184 C183 1.391 . S
C184 C185 1.399 . S
C185 C184 1.399 . S
C185 C188 1.396 . S
C185 C197 1.453 . S
C185 C198 1.684 . S
H186 C210 0.948 . S
C187 C183 1.397 . S
C187 C188 1.394 . S
C187 C206 1.723 . S
C188 C185 1.396 . S
C188 C187 1.394 . S
C188 C218 1.723 . S
H189 C212 0.947 . S
H190 C213 0.948 . S
H191 C219 0.982 . S
H192 C220 0.979 . S
H193 C220 0.980 . S
H194 C220 0.983 . S
H195 C219 0.979 . S
H196 C219 0.977 . S
C197 C185 1.453 . S
C197 H226 0.982 . S
C197 H227 0.979 . S
C197 H228 0.977 . S
C198 C185 1.684 . S
C198 H223 0.979 . S
C198 H224 0.980 . S
C198 H225 0.983 . S
C199 C200 1.391 . S
C199 C204 1.391 . S
C199 H229 0.948 . S
C200 C199 1.391 . S
C200 C201 1.391 . S
C201 C200 1.391 . S
C201 C202 1.392 . S
C201 H230 0.947 . S
C202 C201 1.392 . S
C202 C203 1.419 . S
C202 H231 0.948 . S
C203 C202 1.419 . S
C203 C204 1.391 . S
C203 C207 1.397 . S
C204 C199 1.391 . S
C204 C203 1.391 . S
C204 C205 1.399 . S
C205 C204 1.399 . S
C205 C206 1.396 . S
C205 C208 1.453 . S
C205 C209 1.684 . S
C206 C187 1.723 . S
C206 C205 1.396 . S
C206 C207 1.394 . S
C207 C203 1.397 . S
C207 C206 1.394 . S
C207 C217 1.723 . S
C208 C205 1.453 . S
C208 H232 0.982 . S
C208 H233 0.979 . S
C208 H234 0.977 . S
C209 C205 1.684 . S
C209 H235 0.979 . S
C209 H236 0.980 . S
C209 H237 0.983 . S
C210 H186 0.948 . S
C210 C211 1.391 . S
C210 C215 1.391 . S
C211 C210 1.391 . S
C211 C212 1.391 . S
C212 H189 0.947 . S
C212 C211 1.391 . S
C212 C213 1.392 . S
C213 H190 0.948 . S
C213 C212 1.392 . S
C213 C214 1.419 . S
C214 C213 1.419 . S
C214 C215 1.391 . S
C214 C218 1.397 . S
C215 C210 1.391 . S
C215 C214 1.391 . S
C215 C216 1.399 . S
C216 C215 1.399 . S
C216 C217 1.396 . S
C216 C219 1.453 . S
C216 C220 1.684 . S
C217 C207 1.723 . S
C217 C216 1.396 . S
C217 C218 1.394 . S
C218 C188 1.723 . S
C218 C214 1.397 . S
C218 C217 1.394 . S
C219 H191 0.982 . S
C219 H195 0.979 . S
C219 H196 0.977 . S
C219 C216 1.453 . S
C220 H192 0.979 . S
C220 H193 0.980 . S
C220 H194 0.983 . S
C220 C216 1.684 . S
H221 C239 0.948 . S
H222 C180 0.948 . S
H223 C198 0.979 . S
H224 C198 0.980 . S
H225 C198 0.983 . S
H226 C197 0.982 . S
H227 C197 0.979 . S
H228 C197 0.977 . S
H229 C199 0.948 . S
H230 C201 0.947 . S
H231 C202 0.948 . S
H232 C208 0.982 . S
H233 C208 0.979 . S
H234 C208 0.977 . S
H235 C209 0.979 . S
H236 C209 0.980 . S
H237 C209 0.983 . S
H238 C182 0.947 . S
C239 C182 1.392 . S
C239 C183 1.419 . S
C239 H221 0.948 . S
C240 C241 1.391 . S
C240 C244 1.391 . S
C240 H282 0.948 . S
C241 C240 1.391 . S
C241 C242 1.391 . S
C242 C241 1.391 . S
C242 H298 0.947 . S
C242 C299 1.392 . S
C243 C244 1.391 . S
C243 C247 1.397 . S
C243 C299 1.419 . S
C244 C240 1.391 . S
C244 C243 1.391 . S
C244 C245 1.399 . S
C245 C244 1.399 . S
C245 C248 1.396 . S
C245 C257 1.453 . S
C245 C258 1.684 . S
H246 C270 0.948 . S
C247 C243 1.397 . S
C247 C248 1.394 . S
C247 C266 1.723 . S
C248 C245 1.396 . S
C248 C247 1.394 . S
C248 C278 1.723 . S
H249 C272 0.947 . S
H250 C273 0.948 . S
H251 C279 0.982 . S
H252 C280 0.979 . S
H253 C280 0.980 . S
H254 C280 0.983 . S
H255 C279 0.979 . S
H256 C279 0.977 . S
C257 C245 1.453 . S
C257 H286 0.982 . S
C257 H287 0.979 . S
C257 H288 0.977 . S
C258 C245 1.684 . S
C258 H283 0.979 . S
C258 H284 0.980 . S
C258 H285 0.983 . S
C259 C260 1.391 . S
C259 C264 1.391 . S
C259 H289 0.948 . S
C260 C259 1.391 . S
C260 C261 1.391 . S
C261 C260 1.391 . S
C261 C262 1.392 . S
C261 H290 0.947 . S
C262 C261 1.392 . S
C262 C263 1.419 . S
C262 H291 0.948 . S
C263 C262 1.419 . S
C263 C264 1.391 . S
C263 C267 1.397 . S
C264 C259 1.391 . S
C264 C263 1.391 . S
C264 C265 1.399 . S
C265 C264 1.399 . S
C265 C266 1.396 . S
C265 C268 1.453 . S
C265 C269 1.684 . S
C266 C247 1.723 . S
C266 C265 1.396 . S
C266 C267 1.394 . S
C267 C263 1.397 . S
C267 C266 1.394 . S
C267 C277 1.723 . S
C268 C265 1.453 . S
C268 H292 0.982 . S
C268 H293 0.979 . S
C268 H294 0.977 . S
C269 C265 1.684 . S
C269 H295 0.979 . S
C269 H296 0.980 . S
C269 H297 0.983 . S
C270 H246 0.948 . S
C270 C271 1.391 . S
C270 C275 1.391 . S
C271 C270 1.391 . S
C271 C272 1.391 . S
C272 H249 0.947 . S
C272 C271 1.391 . S
C272 C273 1.392 . S
C273 H250 0.948 . S
C273 C272 1.392 . S
C273 C274 1.419 . S
C274 C273 1.419 . S
C274 C275 1.391 . S
C274 C278 1.397 . S
C275 C270 1.391 . S
C275 C274 1.391 . S
C275 C276 1.399 . S
C276 C275 1.399 . S
C276 C277 1.396 . S
C276 C279 1.453 . S
C276 C280 1.684 . S
C277 C267 1.723 . S
C277 C276 1.396 . S
C277 C278 1.394 . S
C278 C248 1.723 . S
C278 C274 1.397 . S
C278 C277 1.394 . S
C279 H251 0.982 . S
C279 H255 0.979 . S
C279 H256 0.977 . S
C279 C276 1.453 . S
C280 H252 0.979 . S
C280 H253 0.980 . S
C280 H254 0.983 . S
C280 C276 1.684 . S
H281 C299 0.948 . S
H282 C240 0.948 . S
H283 C258 0.979 . S
H284 C258 0.980 . S
H285 C258 0.983 . S
H286 C257 0.982 . S
H287 C257 0.979 . S
H288 C257 0.977 . S
H289 C259 0.948 . S
H290 C261 0.947 . S
H291 C262 0.948 . S
H292 C268 0.982 . S
H293 C268 0.979 . S
H294 C268 0.977 . S
H295 C269 0.979 . S
H296 C269 0.980 . S
H297 C269 0.983 . S
H298 C242 0.947 . S
C299 C242 1.392 . S
C299 C243 1.419 . S
C299 H281 0.948 . S
C300 C301 1.391 . S
C300 C304 1.391 . S
C300 H342 0.948 . S
C301 C300 1.391 . S
C301 C302 1.391 . S
C302 C301 1.391 . S
C302 H358 0.947 . S
C302 C359 1.392 . S
C303 C304 1.391 . S
C303 C307 1.397 . S
C303 C359 1.419 . S
C304 C300 1.391 . S
C304 C303 1.391 . S
C304 C305 1.399 . S
C305 C304 1.399 . S
C305 C308 1.396 . S
C305 C317 1.453 . S
C305 C318 1.684 . S
H306 C330 0.948 . S
C307 C303 1.397 . S
C307 C308 1.394 . S
C307 C326 1.723 . S
C308 C305 1.396 . S
C308 C307 1.394 . S
C308 C338 1.723 . S
H309 C332 0.947 . S
H310 C333 0.948 . S
H311 C339 0.982 . S
H312 C340 0.979 . S
H313 C340 0.980 . S
H314 C340 0.983 . S
H315 C339 0.979 . S
H316 C339 0.977 . S
C317 C305 1.453 . S
C317 H346 0.982 . S
C317 H347 0.979 . S
C317 H348 0.977 . S
C318 C305 1.684 . S
C318 H343 0.979 . S
C318 H344 0.980 . S
C318 H345 0.983 . S
C319 C320 1.391 . S
C319 C324 1.391 . S
C319 H349 0.948 . S
C320 C319 1.391 . S
C320 C321 1.391 . S
C321 C320 1.391 . S
C321 C322 1.392 . S
C321 H350 0.947 . S
C322 C321 1.392 . S
C322 C323 1.419 . S
C322 H351 0.948 . S
C323 C322 1.419 . S
C323 C324 1.391 . S
C323 C327 1.397 . S
C324 C319 1.391 . S
C324 C323 1.391 . S
C324 C325 1.399 . S
C325 C324 1.399 . S
C325 C326 1.396 . S
C325 C328 1.453 . S
C325 C329 1.684 . S
C326 C307 1.723 . S
C326 C325 1.396 . S
C326 C327 1.394 . S
C327 C323 1.397 . S
C327 C326 1.394 . S
C327 C337 1.723 . S
C328 C325 1.453 . S
C328 H352 0.982 . S
C328 H353 0.979 . S
C328 H354 0.977 . S
C329 C325 1.684 . S
C329 H355 0.979 . S
C329 H356 0.980 . S
C329 H357 0.983 . S
C330 H306 0.948 . S
C330 C331 1.391 . S
C330 C335 1.391 . S
C331 C330 1.391 . S
C331 C332 1.391 . S
C332 H309 0.947 . S
C332 C331 1.391 . S
C332 C333 1.392 . S
C333 H310 0.948 . S
C333 C332 1.392 . S
C333 C334 1.419 . S
C334 C333 1.419 . S
C334 C335 1.391 . S
C334 C338 1.397 . S
C335 C330 1.391 . S
C335 C334 1.391 . S
C335 C336 1.399 . S
C336 C335 1.399 . S
C336 C337 1.396 . S
C336 C339 1.453 . S
C336 C340 1.684 . S
C337 C327 1.723 . S
C337 C336 1.396 . S
C337 C338 1.394 . S
C338 C308 1.723 . S
C338 C334 1.397 . S
C338 C337 1.394 . S
C339 H311 0.982 . S
C339 H315 0.979 . S
C339 H316 0.977 . S
C339 C336 1.453 . S
C340 H312 0.979 . S
C340 H313 0.980 . S
C340 H314 0.983 . S
C340 C336 1.684 . S
H341 C359 0.948 . S
H342 C300 0.948 . S
H343 C318 0.979 . S
H344 C318 0.980 . S
H345 C318 0.983 . S
H346 C317 0.982 . S
H347 C317 0.979 . S
H348 C317 0.977 . S
H349 C319 0.948 . S
H350 C321 0.947 . S
H351 C322 0.948 . S
H352 C328 0.982 . S
H353 C328 0.979 . S
H354 C328 0.977 . S
H355 C329 0.979 . S
H356 C329 0.980 . S
H357 C329 0.983 . S
H358 C302 0.947 . S
C359 C302 1.392 . S
C359 C303 1.419 . S
C359 H341 0.948 . S
C360 C361 1.391 . S
C360 C364 1.391 . S
C360 H402 0.948 . S
C361 C360 1.391 . S
C361 C362 1.391 . S
C362 C361 1.391 . S
C362 H418 0.947 . S
C362 C419 1.392 . S
C363 C364 1.391 . S
C363 C367 1.397 . S
C363 C419 1.419 . S
C364 C360 1.391 . S
C364 C363 1.391 . S
C364 C365 1.399 . S
C365 C364 1.399 . S
C365 C368 1.396 . S
C365 C377 1.453 . S
C365 C378 1.684 . S
H366 C390 0.948 . S
C367 C363 1.397 . S
C367 C368 1.394 . S
C367 C386 1.723 . S
C368 C365 1.396 . S
C368 C367 1.394 . S
C368 C398 1.723 . S
H369 C392 0.947 . S
H370 C393 0.948 . S
H371 C399 0.982 . S
H372 C400 0.979 . S
H373 C400 0.980 . S
H374 C400 0.983 1_556 S
H375 C399 0.979 . S
H376 C399 0.977 . S
C377 C365 1.453 . S
C377 H406 0.982 . S
C377 H407 0.979 . S
C377 H408 0.977 . S
C378 C365 1.684 . S
C378 H403 0.979 . S
C378 H404 0.980 . S
C378 H405 0.983 . S
C379 C380 1.391 . S
C379 C384 1.391 . S
C379 H409 0.948 . S
C380 C379 1.391 . S
C380 C381 1.391 . S
C381 C380 1.391 . S
C381 C382 1.392 . S
C381 H410 0.947 . S
C382 C381 1.392 . S
C382 C383 1.419 . S
C382 H411 0.948 . S
C383 C382 1.419 . S
C383 C384 1.391 . S
C383 C387 1.397 . S
C384 C379 1.391 . S
C384 C383 1.391 . S
C384 C385 1.399 . S
C385 C384 1.399 . S
C385 C386 1.396 . S
C385 C388 1.453 . S
C385 C389 1.684 . S
C386 C367 1.723 . S
C386 C385 1.396 . S
C386 C387 1.394 . S
C387 C383 1.397 . S
C387 C386 1.394 . S
C387 C397 1.723 . S
C388 C385 1.453 . S
C388 H412 0.982 . S
C388 H413 0.979 . S
C388 H414 0.977 . S
C389 C385 1.684 . S
C389 H415 0.979 . S
C389 H416 0.980 . S
C389 H417 0.983 . S
C390 H366 0.948 . S
C390 C391 1.391 . S
C390 C395 1.391 . S
C391 C390 1.391 . S
C391 C392 1.391 . S
C392 H369 0.947 . S
C392 C391 1.391 . S
C392 C393 1.392 . S
C393 H370 0.948 . S
C393 C392 1.392 . S
C393 C394 1.419 . S
C394 C393 1.419 . S
C394 C395 1.391 . S
C394 C398 1.397 . S
C395 C390 1.391 . S
C395 C394 1.391 . S
C395 C396 1.399 . S
C396 C395 1.399 . S
C396 C397 1.396 . S
C396 C399 1.453 . S
C396 C400 1.684 . S
C397 C387 1.723 . S
C397 C396 1.396 . S
C397 C398 1.394 . S
C398 C368 1.723 . S
C398 C394 1.397 . S
C398 C397 1.394 . S
C399 H371 0.982 . S
C399 H375 0.979 . S
C399 H376 0.977 . S
C399 C396 1.453 . S
C400 H372 0.979 . S
C400 H373 0.980 . S
C400 H374 0.983 1_554 S
C400 C396 1.684 . S
H401 C419 0.948 . S
H402 C360 0.948 . S
H403 C378 0.979 . S
H404 C378 0.980 . S
H405 C378 0.983 . S
H406 C377 0.982 . S
H407 C377 0.979 . S
H408 C377 0.977 . S
H409 C379 0.948 . S
H410 C381 0.947 . S
H411 C382 0.948 . S
H412 C388 0.982 . S
H413 C388 0.979 . S
H414 C388 0.977 . S
H415 C389 0.979 . S
H416 C389 0.980 . S
H417 C389 0.983 . S
H418 C362 0.947 . S
C419 C362 1.392 . S
C419 C363 1.419 . S
C419 H401 0.948 . S
C420 C421 1.391 . S
C420 C424 1.391 . S
C420 H462 0.948 . S
C421 C420 1.391 . S
C421 C422 1.391 . S
C422 C421 1.391 . S
C422 H478 0.947 . S
C422 C479 1.392 . S
C423 C424 1.391 . S
C423 C427 1.397 . S
C423 C479 1.419 . S
C424 C420 1.391 . S
C424 C423 1.391 . S
C424 C425 1.399 . S
C425 C424 1.399 . S
C425 C428 1.396 . S
C425 C437 1.453 . S
C425 C438 1.684 . S
H426 C450 0.948 . S
C427 C423 1.397 . S
C427 C428 1.394 . S
C427 C446 1.723 . S
C428 C425 1.396 . S
C428 C427 1.394 . S
C428 C458 1.723 . S
H429 C452 0.947 . S
H430 C453 0.948 . S
H431 C459 0.982 . S
H432 C460 0.979 . S
H433 C460 0.980 . S
H434 C460 0.983 . S
H435 C459 0.979 . S
H436 C459 0.977 . S
C437 C425 1.453 . S
C437 H466 0.982 . S
C437 H467 0.979 . S
C437 H468 0.977 . S
C438 C425 1.684 . S
C438 H463 0.979 . S
C438 H464 0.980 . S
C438 H465 0.983 . S
C439 C440 1.391 . S
C439 C444 1.391 . S
C439 H469 0.948 . S
C440 C439 1.391 . S
C440 C441 1.391 . S
C441 C440 1.391 . S
C441 C442 1.392 . S
C441 H470 0.947 . S
C442 C441 1.392 . S
C442 C443 1.419 . S
C442 H471 0.948 . S
C443 C442 1.419 . S
C443 C444 1.391 . S
C443 C447 1.397 . S
C444 C439 1.391 . S
C444 C443 1.391 . S
C444 C445 1.399 . S
C445 C444 1.399 . S
C445 C446 1.396 . S
C445 C448 1.453 . S
C445 C449 1.684 . S
C446 C427 1.723 . S
C446 C445 1.396 . S
C446 C447 1.394 . S
C447 C443 1.397 . S
C447 C446 1.394 . S
C447 C457 1.723 . S
C448 C445 1.453 . S
C448 H472 0.982 . S
C448 H473 0.979 . S
C448 H474 0.977 . S
C449 C445 1.684 . S
C449 H475 0.979 . S
C449 H476 0.980 . S
C449 H477 0.983 . S
C450 H426 0.948 . S
C450 C451 1.391 . S
C450 C455 1.391 . S
C451 C450 1.391 . S
C451 C452 1.391 . S
C452 H429 0.947 . S
C452 C451 1.391 . S
C452 C453 1.392 . S
C453 H430 0.948 . S
C453 C452 1.392 . S
C453 C454 1.419 . S
C454 C453 1.419 . S
C454 C455 1.391 . S
C454 C458 1.397 . S
C455 C450 1.391 . S
C455 C454 1.391 . S
C455 C456 1.399 . S
C456 C455 1.399 . S
C456 C457 1.396 . S
C456 C459 1.453 . S
C456 C460 1.684 . S
C457 C447 1.723 . S
C457 C456 1.396 . S
C457 C458 1.394 . S
C458 C428 1.723 . S
C458 C454 1.397 . S
C458 C457 1.394 . S
C459 H431 0.982 . S
C459 H435 0.979 . S
C459 H436 0.977 . S
C459 C456 1.453 . S
C460 H432 0.979 . S
C460 H433 0.980 . S
C460 H434 0.983 . S
C460 C456 1.684 . S
H461 C479 0.948 . S
H462 C420 0.948 . S
H463 C438 0.979 . S
H464 C438 0.980 . S
H465 C438 0.983 . S
H466 C437 0.982 . S
H467 C437 0.979 . S
H468 C437 0.977 . S
H469 C439 0.948 . S
H470 C441 0.947 . S
H471 C442 0.948 . S
H472 C448 0.982 . S
H473 C448 0.979 . S
H474 C448 0.977 . S
H475 C449 0.979 . S
H476 C449 0.980 . S
H477 C449 0.983 . S
H478 C422 0.947 . S
C479 C422 1.392 . S
C479 C423 1.419 . S
C479 H461 0.948 . S
C480 O496 1.251 . S
C480 O498 1.254 1_545 S
N481 C482 1.333 . S
N481 C486 1.307 . S
N481 Zn487 2.020 . S
C482 N481 1.333 . S
C482 C483 1.379 . S
C482 H500 0.952 . S
C483 C482 1.379 . S
C483 C484 1.390 . S
C483 H510 0.949 . S
C484 C483 1.390 . S
C484 C485 1.357 . S
C485 C484 1.357 . S
C485 C486 1.370 . S
C485 H511 0.950 . S
C486 N481 1.307 . S
C486 C485 1.370 . S
C486 H504 0.948 1_455 S
Zn487 N481 2.020 . S
Zn487 O496 2.039 . S
Zn487 O502 2.034 . S
Zn487 O506 2.025 1_455 S
Zn487 O508 2.024 1_455 S
C488 O507 1.246 1_545 S
C488 O508 1.249 . S
N489 C490 1.307 . S
N489 C491 1.333 . S
N489 Zn495 2.020 . S
C490 N489 1.307 . S
C490 C494 1.370 . S
C490 H501 0.948 1_655 S
C491 N489 1.333 . S
C491 C492 1.379 . S
C491 H499 0.952 . S
C492 C491 1.379 . S
C492 C493 1.390 . S
C492 H512 0.949 . S
C493 C492 1.390 . S
C493 C494 1.357 . S
C494 C490 1.370 . S
C494 C493 1.357 . S
C494 H513 0.950 . S
Zn495 N489 2.020 . S
Zn495 O498 2.025 1_655 S
Zn495 O503 2.024 1_655 S
Zn495 O505 2.039 . S
Zn495 O507 2.034 . S
O496 C480 1.251 . S
O496 Zn487 2.039 . S
C497 O502 1.246 1_565 S
C497 O503 1.249 . S
O498 C480 1.254 1_565 S
O498 Zn495 2.025 1_455 S
H499 C491 0.952 . S
H500 C482 0.952 . S
H501 C490 0.948 1_455 S
O502 Zn487 2.034 . S
O502 C497 1.246 1_545 S
O503 Zn495 2.024 1_455 S
O503 C497 1.249 . S
H504 C486 0.948 1_655 S
O505 Zn495 2.039 . S
O505 C509 1.251 . S
O506 Zn487 2.025 1_655 S
O506 C509 1.254 1_545 S
O507 C488 1.246 1_565 S
O507 Zn495 2.034 . S
O508 Zn487 2.024 1_655 S
O508 C488 1.249 . S
C509 O505 1.251 . S
C509 O506 1.254 1_565 S
H510 C483 0.949 . S
H511 C485 0.950 . S
H512 C492 0.949 . S
H513 C494 0.950 . S
C514 O530 1.251 1_565 S
C514 O532 1.254 . S
N515 C516 1.333 . S
N515 C520 1.307 . S
N515 Zn521 2.020 . S
C516 N515 1.333 . S
C516 C517 1.379 . S
C516 H534 0.952 . S
C517 C516 1.379 . S
C517 C518 1.390 . S
C517 H544 0.949 . S
C518 C517 1.390 . S
C518 C519 1.357 . S
C519 C518 1.357 . S
C519 C520 1.370 . S
C519 H545 0.950 . S
C520 N515 1.307 . S
C520 C519 1.370 . S
C520 H538 0.948 . S
Zn521 N515 2.020 . S
Zn521 O530 2.039 . S
Zn521 O536 2.034 1_556 S
Zn521 O540 2.025 1_556 S
Zn521 O542 2.024 . S
C522 O541 1.246 . S
C522 O542 1.249 1_565 S
N523 C524 1.307 . S
N523 C525 1.333 . S
N523 Zn529 2.020 . S
C524 N523 1.307 . S
C524 C528 1.370 . S
C524 H535 0.948 . S
C525 N523 1.333 . S
C525 C526 1.379 . S
C525 H533 0.952 . S
C526 C525 1.379 . S
C526 C527 1.390 . S
C526 H546 0.949 . S
C527 C526 1.390 . S
C527 C528 1.357 . S
C528 C524 1.370 . S
C528 C527 1.357 . S
C528 H547 0.950 . S
Zn529 N523 2.020 . S
Zn529 O532 2.025 1_554 S
Zn529 O537 2.024 . S
Zn529 O539 2.039 . S
Zn529 O541 2.034 1_554 S
O530 C514 1.251 1_545 S
O530 Zn521 2.039 . S
C531 O536 1.246 . S
C531 O537 1.249 1_545 S
O532 C514 1.254 . S
O532 Zn529 2.025 1_556 S
H533 C525 0.952 . S
H534 C516 0.952 . S
H535 C524 0.948 . S
O536 Zn521 2.034 1_554 S
O536 C531 1.246 . S
O537 Zn529 2.024 . S
O537 C531 1.249 1_565 S
H538 C520 0.948 . S
O539 Zn529 2.039 . S
O539 C543 1.251 1_565 S
O540 Zn521 2.025 1_554 S
O540 C543 1.254 . S
O541 C522 1.246 . S
O541 Zn529 2.034 1_556 S
O542 Zn521 2.024 . S
O542 C522 1.249 1_545 S
C543 O539 1.251 1_545 S
C543 O540 1.254 . S
H544 C517 0.949 . S
H545 C519 0.950 . S
H546 C526 0.949 . S
H547 C528 0.950 . S
C548 O564 1.251 . S
C548 O566 1.254 . S
N549 C550 1.333 . S
N549 C554 1.307 . S
N549 Zn555 2.020 . S
C550 N549 1.333 . S
C550 C551 1.379 . S
C550 H568 0.952 . S
C551 C550 1.379 . S
C551 C552 1.390 . S
C551 H578 0.949 . S
C552 C551 1.390 . S
C552 C553 1.357 . S
C553 C552 1.357 . S
C553 C554 1.370 . S
C553 H579 0.950 . S
C554 N549 1.307 . S
C554 C553 1.370 . S
C554 H572 0.948 . S
Zn555 N549 2.020 . S
Zn555 O564 2.039 . S
Zn555 O570 2.034 . S
Zn555 O574 2.025 . S
Zn555 O576 2.024 . S
C556 O575 1.246 . S
C556 O576 1.249 . S
N557 C558 1.307 . S
N557 C559 1.333 . S
N557 Zn563 2.020 . S
C558 N557 1.307 . S
C558 C562 1.370 . S
C558 H569 0.948 . S
C559 N557 1.333 . S
C559 C560 1.379 . S
C559 H567 0.952 . S
C560 C559 1.379 . S
C560 C561 1.390 . S
C560 H580 0.949 . S
C561 C560 1.390 . S
C561 C562 1.357 . S
C562 C558 1.370 . S
C562 C561 1.357 . S
C562 H581 0.950 . S
Zn563 N557 2.020 . S
Zn563 O566 2.025 . S
Zn563 O571 2.024 . S
Zn563 O573 2.039 . S
Zn563 O575 2.034 . S
O564 C548 1.251 . S
O564 Zn555 2.039 . S
C565 O570 1.246 . S
C565 O571 1.249 . S
O566 C548 1.254 . S
O566 Zn563 2.025 . S
H567 C559 0.952 . S
H568 C550 0.952 . S
H569 C558 0.948 . S
O570 Zn555 2.034 . S
O570 C565 1.246 . S
O571 Zn563 2.024 . S
O571 C565 1.249 . S
H572 C554 0.948 . S
O573 Zn563 2.039 . S
O573 C577 1.251 . S
O574 Zn555 2.025 . S
O574 C577 1.254 . S
O575 C556 1.246 . S
O575 Zn563 2.034 . S
O576 Zn555 2.024 . S
O576 C556 1.249 . S
C577 O573 1.251 . S
C577 O574 1.254 . S
H578 C551 0.949 . S
H579 C553 0.950 . S
H580 C560 0.949 . S
H581 C562 0.950 . S
C582 O598 1.251 1_556 S
C582 O600 1.254 . S
N583 C584 1.333 . S
N583 C588 1.307 . S
N583 Zn589 2.020 . S
C584 N583 1.333 . S
C584 C585 1.379 . S
C584 H602 0.952 . S
C585 C584 1.379 . S
C585 C586 1.390 . S
C585 H612 0.949 . S
C586 C585 1.390 . S
C586 C587 1.357 . S
C587 C586 1.357 . S
C587 C588 1.370 . S
C587 H613 0.950 . S
C588 N583 1.307 . S
C588 C587 1.370 . S
C588 H606 0.948 . S
Zn589 N583 2.020 . S
Zn589 O598 2.039 . S
Zn589 O604 2.034 1_655 S
Zn589 O608 2.025 1_655 S
Zn589 O610 2.024 . S
C590 O609 1.246 . S
C590 O610 1.249 1_556 S
N591 C592 1.307 . S
N591 C593 1.333 . S
N591 Zn597 2.020 . S
C592 N591 1.307 . S
C592 C596 1.370 . S
C592 H603 0.948 . S
C593 N591 1.333 . S
C593 C594 1.379 . S
C593 H601 0.952 . S
C594 C593 1.379 . S
C594 C595 1.390 . S
C594 H614 0.949 . S
C595 C594 1.390 . S
C595 C596 1.357 . S
C596 C592 1.370 . S
C596 C595 1.357 . S
C596 H615 0.950 . S
Zn597 N591 2.020 . S
Zn597 O600 2.025 1_455 S
Zn597 O605 2.024 . S
Zn597 O607 2.039 . S
Zn597 O609 2.034 1_455 S
O598 C582 1.251 1_554 S
O598 Zn589 2.039 . S
C599 O604 1.246 . S
C599 O605 1.249 1_554 S
O600 C582 1.254 . S
O600 Zn597 2.025 1_655 S
H601 C593 0.952 . S
H602 C584 0.952 . S
H603 C592 0.948 . S
O604 Zn589 2.034 1_455 S
O604 C599 1.246 . S
O605 Zn597 2.024 . S
O605 C599 1.249 1_556 S
H606 C588 0.948 . S
O607 Zn597 2.039 . S
O607 C611 1.251 1_556 S
O608 Zn589 2.025 1_455 S
O608 C611 1.254 . S
O609 C590 1.246 . S
O609 Zn597 2.034 1_655 S
O610 Zn589 2.024 . S
O610 C590 1.249 1_554 S
C611 O607 1.251 1_554 S
C611 O608 1.254 . S
H612 C585 0.949 . S
H613 C587 0.950 . S
H614 C594 0.949 . S
H615 C596 0.950 . S
H616 C622 0.930 . S
H617 C625 0.930 . S
H618 C626 0.930 . S
H619 C627 0.930 . S
H620 C630 0.930 . S
H621 C631 0.930 . S
C622 H616 0.930 . S
C622 C623 1.355 . S
C622 C624 1.415 . S
C623 C622 1.355 . S
C623 C625 1.419 . S
C624 C622 1.415 . S
C624 C629 1.425 . S
C624 C631 1.409 1_455 S
C625 H617 0.930 . S
C625 C623 1.419 . S
C625 C626 1.362 . S
C626 H618 0.930 . S
C626 C625 1.362 . S
C626 C629 1.409 . S
C627 H619 0.930 . S
C627 C628 1.355 . S
C627 C629 1.415 . S
C628 C627 1.355 . S
C628 C630 1.419 1_455 S
C629 C624 1.425 . S
C629 C626 1.409 . S
C629 C627 1.415 . S
C630 H620 0.930 . S
C630 C628 1.419 1_655 S
C630 C631 1.362 . S
C631 H621 0.930 . S
C631 C624 1.409 1_655 S
C631 C630 1.362 . S
H632 C638 0.930 . S
H633 C641 0.930 . S
H634 C642 0.930 1_545 S
H635 C643 0.930 1_545 S
H636 C646 0.930 . S
H637 C647 0.930 . S
C638 H632 0.930 . S
C638 C639 1.355 . S
C638 C640 1.415 . S
C639 C638 1.355 . S
C639 C641 1.419 . S
C640 C638 1.415 . S
C640 C645 1.425 . S
C640 C647 1.409 . S
C641 H633 0.930 . S
C641 C639 1.419 . S
C641 C642 1.362 . S
C642 H634 0.930 1_565 S
C642 C641 1.362 . S
C642 C645 1.409 . S
C643 H635 0.930 1_565 S
C643 C644 1.355 . S
C643 C645 1.415 . S
C644 C643 1.355 . S
C644 C646 1.419 . S
C645 C640 1.425 . S
C645 C642 1.409 . S
C645 C643 1.415 . S
C646 H636 0.930 . S
C646 C644 1.419 . S
C646 C647 1.362 . S
C647 H637 0.930 . S
C647 C640 1.409 . S
C647 C646 1.362 . S
H648 C654 0.930 . S
H649 C657 0.930 . S
H650 C658 0.930 . S
H651 C659 0.930 . S
H652 C662 0.930 . S
H653 C663 0.930 . S
C654 H648 0.930 . S
C654 C655 1.355 . S
C654 C656 1.415 . S
C655 C654 1.355 . S
C655 C657 1.419 . S
C656 C654 1.415 . S
C656 C661 1.425 . S
C656 C663 1.409 . S
C657 H649 0.930 . S
C657 C655 1.419 . S
C657 C658 1.362 . S
C658 H650 0.930 . S
C658 C657 1.362 . S
C658 C661 1.409 . S
C659 H651 0.930 . S
C659 C660 1.355 . S
C659 C661 1.415 . S
C660 C659 1.355 . S
C660 C662 1.419 . S
C661 C656 1.425 . S
C661 C658 1.409 . S
C661 C659 1.415 . S
C662 H652 0.930 . S
C662 C660 1.419 . S
C662 C663 1.362 . S
C663 H653 0.930 . S
C663 C656 1.409 . S
C663 C662 1.362 . S
H664 C670 0.930 . S
H665 C673 0.930 . S
H666 C674 0.930 . S
H667 C675 0.930 . S
H668 C678 0.930 . S
H669 C679 0.930 . S
C670 H664 0.930 . S
C670 C671 1.355 . S
C670 C672 1.415 . S
C671 C670 1.355 . S
C671 C673 1.419 . S
C672 C670 1.415 . S
C672 C677 1.425 . S
C672 C679 1.409 . S
C673 H665 0.930 . S
C673 C671 1.419 . S
C673 C674 1.362 . S
C674 H666 0.930 . S
C674 C673 1.362 . S
C674 C677 1.409 . S
C675 H667 0.930 . S
C675 C676 1.355 . S
C675 C677 1.415 . S
C676 C675 1.355 . S
C676 C678 1.419 . S
C677 C672 1.425 . S
C677 C674 1.409 . S
C677 C675 1.415 . S
C678 H668 0.930 . S
C678 C676 1.419 . S
C678 C679 1.362 . S
C679 H669 0.930 . S
C679 C672 1.409 . S
C679 C678 1.362 . S
H680 C686 0.930 . S
H681 C689 0.930 . S
H682 C690 0.930 1_556 S
H683 C691 0.930 1_556 S
H684 C694 0.930 . S
H685 C695 0.930 . S
C686 H680 0.930 . S
C686 C687 1.355 . S
C686 C688 1.415 . S
C687 C686 1.355 . S
C687 C689 1.419 . S
C688 C686 1.415 . S
C688 C693 1.425 . S
C688 C695 1.409 . S
C689 H681 0.930 . S
C689 C687 1.419 . S
C689 C690 1.362 . S
C690 H682 0.930 1_554 S
C690 C689 1.362 . S
C690 C693 1.409 . S
C691 H683 0.930 1_554 S
C691 C692 1.355 . S
C691 C693 1.415 . S
C692 C691 1.355 . S
C692 C694 1.419 . S
C693 C688 1.425 . S
C693 C690 1.409 . S
C693 C691 1.415 . S
C694 H684 0.930 . S
C694 C692 1.419 . S
C694 C695 1.362 . S
C695 H685 0.930 . S
C695 C688 1.409 . S
C695 C694 1.362 . S
H696 C702 0.930 . S
H697 C705 0.930 . S
H698 C706 0.930 . S
H699 C707 0.930 . S
H700 C710 0.930 1_545 S
H701 C711 0.930 1_545 S
C702 H696 0.930 . S
C702 C703 1.355 . S
C702 C704 1.415 . S
C703 C702 1.355 . S
C703 C705 1.419 . S
C704 C702 1.415 . S
C704 C709 1.425 . S
C704 C711 1.409 . S
C705 H697 0.930 . S
C705 C703 1.419 . S
C705 C706 1.362 . S
C706 H698 0.930 . S
C706 C705 1.362 . S
C706 C709 1.409 . S
C707 H699 0.930 . S
C707 C708 1.355 . S
C707 C709 1.415 . S
C708 C707 1.355 . S
C708 C710 1.419 . S
C709 C704 1.425 . S
C709 C706 1.409 . S
C709 C707 1.415 . S
C710 H700 0.930 1_565 S
C710 C708 1.419 . S
C710 C711 1.362 . S
C711 H701 0.930 1_565 S
C711 C704 1.409 . S
C711 C710 1.362 . S
H712 C718 0.954 . S
H713 C721 0.930 . S
H714 C722 0.930 . S
H715 C723 0.930 . S
H716 C726 0.930 . S
H717 C727 0.930 . S
C718 H712 0.954 . S
C718 C719 1.355 . S
C718 C720 1.415 . S
C719 C718 1.355 . S
C719 C721 1.419 . S
C720 C718 1.415 . S
C720 C725 1.425 . S
C720 C727 1.409 1_556 S
C721 H713 0.930 . S
C721 C719 1.419 . S
C721 C722 1.362 . S
C722 H714 0.930 . S
C722 C721 1.362 . S
C722 C725 1.409 . S
C723 H715 0.930 . S
C723 C724 1.355 . S
C723 C725 1.415 . S
C724 C723 1.355 . S
C724 C726 1.419 1_556 S
C725 C720 1.425 . S
C725 C722 1.409 . S
C725 C723 1.415 . S
C726 H716 0.930 . S
C726 C724 1.419 1_554 S
C726 C727 1.362 . S
C727 H717 0.930 . S
C727 C720 1.409 1_554 S
C727 C726 1.362 . S
H728 C734 0.930 . S
H729 C737 0.930 . S
H730 C738 0.930 . S
H731 C739 0.930 . S
H732 C742 0.930 . S
H733 C743 0.930 . S
C734 H728 0.930 . S
C734 C735 1.355 . S
C734 C736 1.415 . S
C735 C734 1.355 . S
C735 C737 1.419 . S
C736 C734 1.415 . S
C736 C741 1.425 . S
C736 C743 1.409 . S
C737 H729 0.930 . S
C737 C735 1.419 . S
C737 C738 1.362 . S
C738 H730 0.930 . S
C738 C737 1.362 . S
C738 C741 1.409 . S
C739 H731 0.930 . S
C739 C740 1.355 . S
C739 C741 1.415 . S
C740 C739 1.355 . S
C740 C742 1.419 . S
C741 C736 1.425 . S
C741 C738 1.409 . S
C741 C739 1.415 . S
C742 H732 0.930 . S
C742 C740 1.419 . S
C742 C743 1.362 . S
C743 H733 0.930 . S
C743 C736 1.409 . S
C743 C742 1.362 . S
H744 C750 0.930 . S
H745 C753 0.930 . S
H746 C754 0.930 . S
H747 C755 0.936 . S
H748 C758 0.930 . S
H749 C759 0.930 . S
C750 H744 0.930 . S
C750 C751 1.355 . S
C750 C752 1.415 . S
C751 C750 1.355 . S
C751 C753 1.419 . S
C752 C750 1.415 . S
C752 C757 1.425 . S
C752 C759 1.409 . S
C753 H745 0.930 . S
C753 C751 1.419 . S
C753 C754 1.362 . S
C754 H746 0.930 . S
C754 C753 1.362 . S
C754 C757 1.409 . S
C755 H747 0.936 . S
C755 C756 1.355 . S
C755 C757 1.415 . S
C756 C755 1.355 . S
C756 C758 1.419 . S
C757 C752 1.425 . S
C757 C754 1.409 . S
C757 C755 1.415 . S
C758 H748 0.930 . S
C758 C756 1.419 . S
C758 C759 1.362 . S
C759 H749 0.930 . S
C759 C752 1.409 . S
C759 C758 1.362 . S
H760 C766 0.930 . S
H761 C769 0.930 . S
H762 C770 0.930 . S
H763 C771 0.930 . S
H764 C774 0.930 . S
H765 C775 0.930 . S
C766 H760 0.930 . S
C766 C767 1.355 . S
C766 C768 1.415 . S
C767 C766 1.355 . S
C767 C769 1.419 . S
C768 C766 1.415 . S
C768 C773 1.425 . S
C768 C775 1.409 . S
C769 H761 0.930 . S
C769 C767 1.419 . S
C769 C770 1.362 . S
C770 H762 0.930 . S
C770 C769 1.362 . S
C770 C773 1.409 . S
C771 H763 0.930 . S
C771 C772 1.355 . S
C771 C773 1.415 . S
C772 C771 1.355 . S
C772 C774 1.419 . S
C773 C768 1.425 . S
C773 C770 1.409 . S
C773 C771 1.415 . S
C774 H764 0.930 . S
C774 C772 1.419 . S
C774 C775 1.362 . S
C775 H765 0.930 . S
C775 C768 1.409 . S
C775 C774 1.362 . S
H776 C782 0.930 . S
H777 C785 0.930 . S
H778 C786 0.930 . S
H779 C787 0.930 . S
H780 C790 0.930 . S
H781 C791 0.930 . S
C782 H776 0.930 . S
C782 C783 1.355 . S
C782 C784 1.415 . S
C783 C782 1.355 . S
C783 C785 1.419 . S
C784 C782 1.415 . S
C784 C789 1.425 . S
C784 C791 1.409 . S
C785 H777 0.930 . S
C785 C783 1.419 . S
C785 C786 1.362 . S
C786 H778 0.930 . S
C786 C785 1.362 . S
C786 C789 1.409 . S
C787 H779 0.930 . S
C787 C788 1.355 . S
C787 C789 1.415 . S
C788 C787 1.355 . S
C788 C790 1.419 . S
C789 C784 1.425 . S
C789 C786 1.409 . S
C789 C787 1.415 . S
C790 H780 0.930 . S
C790 C788 1.419 . S
C790 C791 1.362 . S
C791 H781 0.930 . S
C791 C784 1.409 . S
C791 C790 1.362 . S
H792 C798 0.930 . S
H793 C801 0.930 . S
H794 C802 0.930 . S
H795 C803 0.930 . S
H796 C806 0.930 . S
H797 C807 0.930 . S
C798 H792 0.930 . S
C798 C799 1.355 . S
C798 C800 1.415 . S
C799 C798 1.355 . S
C799 C801 1.419 . S
C800 C798 1.415 . S
C800 C805 1.425 . S
C800 C807 1.409 . S
C801 H793 0.930 . S
C801 C799 1.419 . S
C801 C802 1.362 . S
C802 H794 0.930 . S
C802 C801 1.362 . S
C802 C805 1.409 . S
C803 H795 0.930 . S
C803 C804 1.355 . S
C803 C805 1.415 . S
C804 C803 1.355 . S
C804 C806 1.419 . S
C805 C800 1.425 . S
C805 C802 1.409 . S
C805 C803 1.415 . S
C806 H796 0.930 . S
C806 C804 1.419 . S
C806 C807 1.362 . S
C807 H797 0.930 . S
C807 C800 1.409 . S
C807 C806 1.362 . S
H808 C814 0.930 . S
H809 C817 0.930 . S
H810 C818 0.930 . S
H811 C819 0.930 . S
H812 C822 0.930 . S
H813 C823 0.925 1_545 S
C814 H808 0.930 . S
C814 C815 1.355 . S
C814 C816 1.415 . S
C815 C814 1.355 . S
C815 C817 1.419 . S
C816 C814 1.415 . S
C816 C821 1.425 . S
C816 C823 1.415 . S
C817 H809 0.930 . S
C817 C815 1.419 . S
C817 C818 1.362 . S
C818 H810 0.930 . S
C818 C817 1.362 . S
C818 C821 1.409 . S
C819 H811 0.930 . S
C819 C820 1.355 . S
C819 C821 1.415 . S
C820 C819 1.355 . S
C820 C822 1.419 1_565 S
C821 C816 1.425 . S
C821 C818 1.409 . S
C821 C819 1.415 . S
C822 H812 0.930 . S
C822 C820 1.419 1_545 S
C822 C823 1.362 1_545 S
C823 H813 0.925 1_565 S
C823 C816 1.415 . S
C823 C822 1.362 1_565 S
H824 C830 0.930 . S
H825 C833 0.930 . S
H826 C834 0.930 1_565 S
H827 C835 0.930 1_565 S
H828 C838 0.930 . S
H829 C839 0.930 . S
C830 H824 0.930 . S
C830 C831 1.355 . S
C830 C832 1.415 . S
C831 C830 1.355 . S
C831 C833 1.419 . S
C832 C830 1.415 . S
C832 C837 1.425 . S
C832 C839 1.409 . S
C833 H825 0.930 . S
C833 C831 1.419 . S
C833 C834 1.362 . S
C834 H826 0.930 1_545 S
C834 C833 1.362 . S
C834 C837 1.409 . S
C835 H827 0.930 1_545 S
C835 C836 1.355 . S
C835 C837 1.415 . S
C836 C835 1.355 . S
C836 C838 1.419 . S
C837 C832 1.425 . S
C837 C834 1.409 . S
C837 C835 1.415 . S
C838 H828 0.930 . S
C838 C836 1.419 . S
C838 C839 1.362 . S
C839 H829 0.930 . S
C839 C832 1.409 . S
C839 C838 1.362 . S
H840 C846 0.930 . S
H841 C849 0.930 . S
H842 C850 0.930 . S
H843 C851 0.930 . S
H844 C854 0.930 . S
H845 C855 0.930 . S
C846 H840 0.930 . S
C846 C847 1.355 . S
C846 C848 1.415 . S
C847 C846 1.355 . S
C847 C849 1.419 . S
C848 C846 1.415 . S
C848 C853 1.425 . S
C848 C855 1.409 . S
C849 H841 0.930 . S
C849 C847 1.419 . S
C849 C850 1.362 . S
C850 H842 0.930 . S
C850 C849 1.362 . S
C850 C853 1.409 . S
C851 H843 0.930 . S
C851 C852 1.355 . S
C851 C853 1.415 . S
C852 C851 1.355 . S
C852 C854 1.419 . S
C853 C848 1.425 . S
C853 C850 1.409 . S
C853 C851 1.415 . S
C854 H844 0.930 . S
C854 C852 1.419 . S
C854 C855 1.362 . S
C855 H845 0.930 . S
C855 C848 1.409 . S
C855 C854 1.362 . S
H856 C862 0.930 . S
H857 C865 0.930 . S
H858 C866 0.930 . S
H859 C867 0.930 . S
H860 C870 0.930 . S
H861 C871 0.930 . S
C862 H856 0.930 . S
C862 C863 1.355 . S
C862 C864 1.415 . S
C863 C862 1.355 . S
C863 C865 1.419 . S
C864 C862 1.415 . S
C864 C869 1.425 . S
C864 C871 1.409 . S
C865 H857 0.930 . S
C865 C863 1.419 . S
C865 C866 1.362 . S
C866 H858 0.930 . S
C866 C865 1.362 . S
C866 C869 1.409 . S
C867 H859 0.930 . S
C867 C868 1.355 . S
C867 C869 1.415 . S
C868 C867 1.355 . S
C868 C870 1.419 . S
C869 C864 1.425 . S
C869 C866 1.409 . S
C869 C867 1.415 . S
C870 H860 0.930 . S
C870 C868 1.419 . S
C870 C871 1.362 . S
C871 H861 0.930 . S
C871 C864 1.409 . S
C871 C870 1.362 . S
H872 C878 0.930 . S
H873 C881 0.930 . S
H874 C882 0.930 . S
H875 C883 0.930 . S
H876 C886 0.930 1_545 S
H877 C887 0.930 1_545 S
C878 H872 0.930 . S
C878 C879 1.355 . S
C878 C880 1.415 . S
C879 C878 1.355 . S
C879 C881 1.419 . S
C880 C878 1.415 . S
C880 C885 1.425 . S
C880 C887 1.409 . S
C881 H873 0.930 . S
C881 C879 1.419 . S
C881 C882 1.362 . S
C882 H874 0.930 . S
C882 C881 1.362 . S
C882 C885 1.409 . S
C883 H875 0.930 . S
C883 C884 1.355 . S
C883 C885 1.415 . S
C884 C883 1.355 . S
C884 C886 1.419 . S
C885 C880 1.425 . S
C885 C882 1.409 . S
C885 C883 1.415 . S
C886 H876 0.930 1_565 S
C886 C884 1.419 . S
C886 C887 1.362 . S
C887 H877 0.930 1_565 S
C887 C880 1.409 . S
C887 C886 1.362 . S
H888 C894 0.930 . S
H889 C897 0.930 . S
H890 C898 0.930 1_565 S
H891 C899 0.930 . S
H892 C902 0.930 . S
H893 C903 0.930 . S
C894 H888 0.930 . S
C894 C895 1.355 . S
C894 C896 1.415 . S
C895 C894 1.355 . S
C895 C897 1.419 . S
C896 C894 1.415 . S
C896 C901 1.425 . S
C896 C903 1.409 . S
C897 H889 0.930 . S
C897 C895 1.419 . S
C897 C898 1.362 . S
C898 H890 0.930 1_545 S
C898 C897 1.362 . S
C898 C901 1.409 . S
C899 H891 0.930 . S
C899 C900 1.355 . S
C899 C901 1.415 . S
C900 C899 1.355 . S
C900 C902 1.419 . S
C901 C896 1.425 . S
C901 C898 1.409 . S
C901 C899 1.415 . S
C902 H892 0.930 . S
C902 C900 1.419 . S
C902 C903 1.362 . S
C903 H893 0.930 . S
C903 C896 1.409 . S
C903 C902 1.362 . S
H904 C910 0.930 . S
H905 C913 0.930 1_556 S
H906 C914 0.930 . S
H907 C915 0.930 1_556 S
H908 C918 0.930 . S
H909 C919 0.930 . S
C910 H904 0.930 . S
C910 C911 1.355 . S
C910 C912 1.415 . S
C911 C910 1.355 . S
C911 C913 1.419 . S
C912 C910 1.415 . S
C912 C917 1.425 . S
C912 C919 1.409 . S
C913 H905 0.930 1_554 S
C913 C911 1.419 . S
C913 C914 1.362 1_554 S
C914 H906 0.930 . S
C914 C913 1.362 1_556 S
C914 C917 1.409 1_556 S
C915 H907 0.930 1_554 S
C915 C916 1.355 . S
C915 C917 1.415 . S
C916 C915 1.355 . S
C916 C918 1.419 . S
C917 C912 1.425 . S
C917 C914 1.409 1_554 S
C917 C915 1.415 . S
C918 H908 0.930 . S
C918 C916 1.419 . S
C918 C919 1.362 . S
C919 H909 0.930 . S
C919 C912 1.409 . S
C919 C918 1.362 . S
H920 C926 0.930 . S
H921 C929 0.930 . S
H922 C930 0.930 . S
H923 C931 0.930 . S
H924 C934 0.930 . S
H925 C935 0.930 . S
C926 H920 0.930 . S
C926 C927 1.355 . S
C926 C928 1.415 . S
C927 C926 1.355 . S
C927 C929 1.419 . S
C928 C926 1.415 . S
C928 C933 1.425 . S
C928 C935 1.409 . S
C929 H921 0.930 . S
C929 C927 1.419 . S
C929 C930 1.362 . S
C930 H922 0.930 . S
C930 C929 1.362 . S
C930 C933 1.409 . S
C931 H923 0.930 . S
C931 C932 1.355 . S
C931 C933 1.415 . S
C932 C931 1.355 . S
C932 C934 1.419 . S
C933 C928 1.425 . S
C933 C930 1.409 . S
C933 C931 1.415 . S
C934 H924 0.930 . S
C934 C932 1.419 . S
C934 C935 1.362 . S
C935 H925 0.930 . S
C935 C928 1.409 . S
C935 C934 1.362 . S
H936 C942 0.930 . S
H937 C945 0.907 1_455 S
H938 C946 0.930 1_455 S
H939 C947 0.930 1_455 S
H940 C950 0.930 . S
H941 C951 0.930 . S
C942 H936 0.930 . S
C942 C943 1.355 . S
C942 C944 1.415 . S
C943 C942 1.355 . S
C943 C945 1.419 . S
C944 C942 1.415 . S
C944 C949 1.425 . S
C944 C951 1.409 . S
C945 H937 0.907 1_655 S
C945 C943 1.419 . S
C945 C946 1.362 . S
C946 H938 0.930 1_655 S
C946 C945 1.362 . S
C946 C949 1.409 . S
C947 H939 0.930 1_655 S
C947 C948 1.355 . S
C947 C949 1.415 . S
C948 C947 1.355 . S
C948 C950 1.419 . S
C949 C944 1.425 . S
C949 C946 1.409 . S
C949 C947 1.415 . S
C950 H940 0.930 . S
C950 C948 1.419 . S
C950 C951 1.362 . S
C951 H941 0.930 . S
C951 C944 1.409 . S
C951 C950 1.362 . S
H952 C958 0.930 . S
H953 C961 0.930 . S
H954 C962 0.930 . S
H955 C963 0.930 . S
H956 C966 0.930 . S
H957 C967 0.930 . S
C958 H952 0.930 . S
C958 C959 1.355 . S
C958 C960 1.415 . S
C959 C958 1.355 . S
C959 C961 1.419 . S
C960 C958 1.415 . S
C960 C965 1.425 . S
C960 C967 1.409 . S
C961 H953 0.930 . S
C961 C959 1.419 . S
C961 C962 1.362 . S
C962 H954 0.930 . S
C962 C961 1.362 . S
C962 C965 1.409 . S
C963 H955 0.930 . S
C963 C964 1.355 . S
C963 C965 1.415 . S
C964 C963 1.355 . S
C964 C966 1.419 . S
C965 C960 1.425 . S
C965 C962 1.409 . S
C965 C963 1.415 . S
C966 H956 0.930 . S
C966 C964 1.419 . S
C966 C967 1.362 . S
C967 H957 0.930 . S
C967 C960 1.409 . S
C967 C966 1.362 . S
H968 C974 0.930 . S
H969 C977 0.930 . S
H970 C978 0.930 . S
H971 C979 0.930 . S
H972 C982 0.930 . S
H973 C983 0.930 . S
C974 H968 0.930 . S
C974 C975 1.355 . S
C974 C976 1.415 . S
C975 C974 1.355 . S
C975 C977 1.419 . S
C976 C974 1.415 . S
C976 C981 1.425 . S
C976 C983 1.409 . S
C977 H969 0.930 . S
C977 C975 1.419 . S
C977 C978 1.362 . S
C978 H970 0.930 . S
C978 C977 1.362 . S
C978 C981 1.409 . S
C979 H971 0.930 . S
C979 C980 1.355 . S
C979 C981 1.415 . S
C980 C979 1.355 . S
C980 C982 1.419 . S
C981 C976 1.425 . S
C981 C978 1.409 . S
C981 C979 1.415 . S
C982 H972 0.930 . S
C982 C980 1.419 . S
C982 C983 1.362 . S
C983 H973 0.930 . S
C983 C976 1.409 . S
C983 C982 1.362 . S
H984 C990 0.930 . S
H985 C993 0.930 . S
H986 C994 0.930 . S
H987 C995 0.930 . S
H988 C998 0.930 . S
H989 C999 0.930 . S
C990 H984 0.930 . S
C990 C991 1.355 . S
C990 C992 1.415 . S
C991 C990 1.355 . S
C991 C993 1.419 . S
C992 C990 1.415 . S
C992 C997 1.425 . S
C992 C999 1.409 . S
C993 H985 0.930 . S
C993 C991 1.419 . S
C993 C994 1.362 . S
C994 H986 0.930 . S
C994 C993 1.362 . S
C994 C997 1.409 . S
C995 H987 0.930 . S
C995 C996 1.355 . S
C995 C997 1.415 . S
C996 C995 1.355 . S
C996 C998 1.419 . S
C997 C992 1.425 . S
C997 C994 1.409 . S
C997 C995 1.415 . S
C998 H988 0.930 . S
C998 C996 1.419 . S
C998 C999 1.362 . S
C999 H989 0.930 . S
C999 C992 1.409 . S
C999 C998 1.362 . S
C623 C1 2.316 . S
C628 C480 2.324 . S
C639 C80 2.254 . S
C644 C522 2.303 . S
C660 C552 1.086 . S
C655 C140 1.075 . S
C671 C211 1.048 . S
C676 C586 1.094 . S
C692 C543 1.869 . S
C687 C31 1.872 . S
C708 C497 1.859 . S
C703 C61 1.796 . S
C724 C590 1.378 . S
C719 C151 1.301 . S
C740 C556 1.437 . S
C735 C200 1.315 . S
C751 C20 2.194 . S
C756 C611 2.228 . S
C772 C518 1.186 . S
C767 C121 1.129 . S
C783 C181 1.179 . S
C788 C493 1.193 . S
C799 C91 2.094 . S
C804 C577 2.195 . S
C820 C509 2.327 . S
C815 C260 2.302 . S
C831 C320 2.254 . S
C836 C531 2.303 . S
C847 C361 1.085 . S
C852 C561 1.065 . S
C863 C451 1.020 . S
C868 C595 1.102 . S
C879 C271 1.821 . S
C884 C514 1.860 . S
C900 C488 1.877 . S
C895 C301 1.824 . S
C916 C599 1.412 . S
C911 C380 1.376 . S
C932 C565 1.463 . S
C927 C440 1.386 . S
C943 C241 2.218 . S
C948 C582 2.230 . S
C964 C527 1.160 . S
C959 C391 1.147 . S
C980 C484 1.215 . S
C975 C421 1.201 . S
C991 C331 2.085 . S
C996 C548 2.192 . S
