# Generated by pormake.
# Topology zzz, (3,6)-cn, num edge types: 1
# Building blocks:
#     Node 0, Type 0, BuildingBlock: BETDIP_clean_linker_0, # of connection points: 3
#     Node 1, Type 0, BuildingBlock: BETDIP_clean_linker_0, # of connection points: 3
#     Node 2, Type 0, BuildingBlock: BETDIP_clean_linker_0, # of connection points: 3
#     Node 3, Type 0, BuildingBlock: BETDIP_clean_linker_0, # of connection points: 3
#     Node 4, Type 0, BuildingBlock: BETDIP_clean_linker_0, # of connection points: 3
#     Node 5, Type 0, BuildingBlock: BETDIP_clean_linker_0, # of connection points: 3
#     Node 6, Type 0, BuildingBlock: BETDIP_clean_linker_0, # of connection points: 3
#     Node 7, Type 0, BuildingBlock: BETDIP_clean_linker_0, # of connection points: 3
#     Node 8, Type 1, BuildingBlock: JUFBIX_clean_sbu_0, # of connection points: 6
#     Node 9, Type 1, BuildingBlock: JUFBIX_clean_sbu_0, # of connection points: 6
#     Node 10, Type 1, BuildingBlock: JUFBIX_clean_sbu_0, # of connection points: 6
#     Node 11, Type 1, BuildingBlock: JUFBIX_clean_sbu_0, # of connection points: 6
#     Edge 12, Type (0, 1), BuildingBlock: XUDNAN_clean_linker_2, # of connection points: 2
#     Edge 13, Type (0, 1), BuildingBlock: XUDNAN_clean_linker_2, # of connection points: 2
#     Edge 14, Type (0, 1), BuildingBlock: XUDNAN_clean_linker_2, # of connection points: 2
#     Edge 15, Type (0, 1), BuildingBlock: XUDNAN_clean_linker_2, # of connection points: 2
#     Edge 16, Type (0, 1), BuildingBlock: XUDNAN_clean_linker_2, # of connection points: 2
#     Edge 17, Type (0, 1), BuildingBlock: XUDNAN_clean_linker_2, # of connection points: 2
#     Edge 18, Type (0, 1), BuildingBlock: XUDNAN_clean_linker_2, # of connection points: 2
#     Edge 19, Type (0, 1), BuildingBlock: XUDNAN_clean_linker_2, # of connection points: 2
#     Edge 20, Type (0, 1), BuildingBlock: XUDNAN_clean_linker_2, # of connection points: 2
#     Edge 21, Type (0, 1), BuildingBlock: XUDNAN_clean_linker_2, # of connection points: 2
#     Edge 22, Type (0, 1), BuildingBlock: XUDNAN_clean_linker_2, # of connection points: 2
#     Edge 23, Type (0, 1), BuildingBlock: XUDNAN_clean_linker_2, # of connection points: 2
#     Edge 24, Type (0, 1), BuildingBlock: XUDNAN_clean_linker_2, # of connection points: 2
#     Edge 25, Type (0, 1), BuildingBlock: XUDNAN_clean_linker_2, # of connection points: 2
#     Edge 26, Type (0, 1), BuildingBlock: XUDNAN_clean_linker_2, # of connection points: 2
#     Edge 27, Type (0, 1), BuildingBlock: XUDNAN_clean_linker_2, # of connection points: 2
#     Edge 28, Type (0, 1), BuildingBlock: XUDNAN_clean_linker_2, # of connection points: 2
#     Edge 29, Type (0, 1), BuildingBlock: XUDNAN_clean_linker_2, # of connection points: 2
#     Edge 30, Type (0, 1), BuildingBlock: XUDNAN_clean_linker_2, # of connection points: 2
#     Edge 31, Type (0, 1), BuildingBlock: XUDNAN_clean_linker_2, # of connection points: 2
#     Edge 32, Type (0, 1), BuildingBlock: XUDNAN_clean_linker_2, # of connection points: 2
#     Edge 33, Type (0, 1), BuildingBlock: XUDNAN_clean_linker_2, # of connection points: 2
#     Edge 34, Type (0, 1), BuildingBlock: XUDNAN_clean_linker_2, # of connection points: 2
#     Edge 35, Type (0, 1), BuildingBlock: XUDNAN_clean_linker_2, # of connection points: 2
# Relax obj value: 0.120
# Max RMSD: 0.176
# Mean RMSD: 0.085
data_MOF--net-zzz--node1-JUFBIX_clean_sbu_0--node2-BETDIP_clean_linker_0--edge1-XUDNAN_clean_linker_2
_symmetry_space_group_name_H-M    P1
_symmetry_Int_Tables_number       1
_symmetry_cell_setting            triclinic
loop_
_symmetry_equiv_pos_as_xyz
'x, y, z'
_cell_length_a     52.183165
_cell_length_b     51.907038
_cell_length_c     17.519305
_cell_angle_alpha  81.195294
_cell_angle_beta   89.682813
_cell_angle_gamma 91.433717
loop_
_atom_site_label
_atom_site_type_symbol
_atom_site_fract_x
_atom_site_fract_y
_atom_site_fract_z
_atom_type_partial_charge
H0 H 0.79771 0.52432 0.38006 0.0
H1 H 0.81264 0.51057 0.14689 0.0
H2 H 0.8746 0.51232 0.30509 0.0
H3 H 0.77963 0.54098 0.12649 0.0
C4 C 0.76628 0.53051 0.1688 0.0
C5 C 0.81097 0.5207 0.33533 0.0
C6 C 0.83727 0.51819 0.35152 0.0
C7 C 0.80188 0.51856 0.2608 0.0
C8 C 0.81932 0.51328 0.20362 0.0
C9 C 0.84551 0.51138 0.21954 0.0
C10 C 0.85427 0.51398 0.29298 0.0
N11 N 0.77525 0.52113 0.24437 0.0
H12 H 0.00961 0.75257 0.38679 0.0
H13 H 0.99344 0.76439 0.1427 0.0
H14 H 0.98007 0.82538 0.27659 0.0
H15 H 0.97387 0.71358 0.22111 0.0
C16 C 0.99464 0.71235 0.22052 0.0
C17 C 1.0025 0.76469 0.33584 0.0
C18 C 0.99389 0.78987 0.34065 0.0
C19 C 1.0013 0.75501 0.26493 0.0
C20 C 0.99312 0.77124 0.1981 0.0
C21 C 0.98539 0.79658 0.20255 0.0
C22 C 0.98537 0.80543 0.27386 0.0
N23 N 0.00949 0.72947 0.25974 0.0
H24 H 0.75317 0.99126 0.2951 0.0
H25 H 0.74215 0.02767 0.05943 0.0
H26 H 0.68135 0.02603 0.22579 0.0
H27 H 0.78938 0.04145 0.1018 0.0
C28 C 0.79313 0.02071 0.1093 0.0
C29 C 0.74123 1.00189 0.25132 0.0
C30 C 0.71629 0.00868 0.2705 0.0
C31 C 0.75103 0.00955 0.17576 0.0
C32 C 0.73518 0.02274 0.11837 0.0
C33 C 0.71009 0.02885 0.13677 0.0
C34 C 0.70106 0.02202 0.21259 0.0
N35 N 0.7764 1.00299 0.15719 0.0
H36 H 0.52335 0.7262 0.29446 0.0
H37 H 0.50875 0.72717 0.05161 0.0
H38 H 0.50905 0.6546 0.20545 0.0
H39 H 0.53208 0.76466 0.04029 0.0
C40 C 0.52553 0.77372 0.08854 0.0
C41 C 0.51889 0.71601 0.24645 0.0
C42 C 0.51566 0.68867 0.25905 0.0
C43 C 0.5166 0.73022 0.17163 0.0
C44 C 0.51098 0.7167 0.1094 0.0
C45 C 0.50795 0.68942 0.12156 0.0
C46 C 0.51019 0.67575 0.19637 0.0
N47 N 0.51965 0.75795 0.16085 0.0
H48 H 0.24875 0.5098 0.14313 0.0
H49 H 0.22161 0.51188 0.3759 0.0
H50 H 0.16818 0.51227 0.19136 0.0
H51 H 0.2595 0.53407 0.38317 0.0
C52 C 0.27262 0.52269 0.35436 0.0
C53 C 0.23322 0.51102 0.18362 0.0
C54 C 0.2077 0.51125 0.15821 0.0
C55 C 0.23862 0.51269 0.26169 0.0
C56 C 0.21806 0.51268 0.3148 0.0
C57 C 0.19265 0.51199 0.28955 0.0
C58 C 0.18787 0.51243 0.21112 0.0
N59 N 0.26463 0.51295 0.28628 0.0
H60 H 0.03451 0.25317 0.16736 0.0
H61 H 0.99556 0.23977 0.3872 0.0
H62 H 0.01102 0.17543 0.26714 0.0
H63 H 0.04153 0.2651 0.39622 0.0
C64 C 0.03156 0.28069 0.36065 0.0
C65 C 0.02485 0.23995 0.21296 0.0
C66 C 0.02309 0.21309 0.20905 0.0
C67 C 0.0157 0.2493 0.27903 0.0
C68 C 1.00322 0.23203 0.33808 0.0
C69 C 1.0013 0.20518 0.33498 0.0
C70 C 0.01139 0.19611 0.27 0.0
N71 N 0.02079 0.27553 0.28985 0.0
H72 H 0.25912 0.02733 0.31824 0.0
H73 H 0.27427 0.00795 0.56269 0.0
H74 H 0.33596 0.01457 0.39792 0.0
H75 H 0.23641 0.02826 0.57254 0.0
C76 C 0.22479 0.0213 0.5283 0.0
C77 C 0.27245 0.02278 0.36529 0.0
C78 C 0.29891 0.02264 0.34962 0.0
C79 C 0.26324 0.01775 0.44233 0.0
C80 C 0.28088 0.0121 0.50336 0.0
C81 C 0.30728 0.01167 0.48754 0.0
C82 C 0.31574 0.01617 0.41075 0.0
N83 N 0.23628 0.01795 0.45646 0.0
H84 H 0.49904 0.27681 0.26625 0.0
H85 H 0.51542 0.27752 0.50734 0.0
H86 H 0.51495 0.3493 0.34931 0.0
H87 H 0.53919 0.23669 0.46446 0.0
C88 C 0.51993 0.22978 0.45336 0.0
C89 C 0.50395 0.28741 0.31304 0.0
C90 C 0.50755 0.31471 0.29841 0.0
C91 C 0.50756 0.27374 0.3881 0.0
C92 C 0.51352 0.28772 0.44896 0.0
C93 C 0.51553 0.315 0.43495 0.0
C94 C 0.51306 0.32816 0.35982 0.0
N95 N 0.50386 0.24617 0.40274 0.0
Co96 Co 0.0089 0.01258 0.82767 0.0
C97 C 0.95596 1.00196 0.83932 0.0
Co98 Co 0.99307 0.99296 0.73397 0.0
C99 C 0.02927 0.05711 0.89111 0.0
C100 C 0.02017 0.02501 0.97973 0.0
N101 N 0.02089 0.03192 0.9023 0.0
N102 N 0.03336 0.06631 0.95813 0.0
C103 C 0.02787 0.04604 0.0141 0.0
H104 H 0.03157 0.06886 0.83483 0.0
H105 H 0.0132 0.00635 0.00955 0.0
C106 C 0.04603 1.00336 0.72153 0.0
N107 N 0.98189 0.97317 0.66033 0.0
C108 C 0.99367 0.95157 0.64558 0.0
C109 C 0.96038 0.97422 0.61796 0.0
N110 N 0.98035 0.9387 0.59678 0.0
C111 C 0.95936 0.95302 0.57884 0.0
C112 C 0.99166 0.0456 0.6965 0.0
O113 O 0.04308 0.01244 0.78453 0.0
O114 O 0.02655 0.99413 0.69075 0.0
O115 O 0.98566 0.02501 0.66873 0.0
O116 O 1.0023 0.0436 0.76192 0.0
O117 O 0.95959 0.99182 0.77855 0.0
H118 H 0.94599 0.98887 0.61766 0.0
H119 H 0.01118 0.94472 0.6736 0.0
O120 O 0.97481 0.01268 0.86942 0.0
O121 O 0.01452 0.98081 0.89387 0.0
O122 O 0.99992 0.9615 0.79976 0.0
C123 C 0.00839 0.96004 0.86777 0.0
H124 H 0.02779 0.04682 0.0755 0.0
H125 H 0.94411 0.94837 0.54123 0.0
Co126 Co 0.4986 0.01279 0.86766 0.0
C127 C 0.51527 0.96158 0.89534 0.0
Co128 Co 0.5206 1.00131 0.77037 0.0
C129 C 0.45319 0.02466 0.95034 0.0
C130 C 0.48659 0.0248 0.02049 0.0
N131 N 0.4789 0.02168 0.94898 0.0
N132 N 0.44455 0.02921 0.01963 0.0
C133 C 0.46556 0.02952 0.06386 0.0
H134 H 0.44084 0.02319 0.90173 0.0
H135 H 0.50609 0.02294 0.04076 0.0
C136 C 0.5036 0.0524 0.74276 0.0
N137 N 0.53986 0.99277 0.68815 0.0
C138 C 0.5647 0.98583 0.68674 0.0
C139 C 0.53282 0.99667 0.61334 0.0
N140 N 0.57329 0.98547 0.61413 0.0
C141 C 0.55336 0.99239 0.56781 0.0
C142 C 0.46871 0.99118 0.76227 0.0
O143 O 0.49238 0.04598 0.8078 0.0
O144 O 0.51774 0.03607 0.71668 0.0
O145 O 0.48947 0.99138 0.72394 0.0
O146 O 0.46892 0.99878 0.82744 0.0
O147 O 0.52326 0.96667 0.82559 0.0
H148 H 0.51443 1.00384 0.59274 0.0
H149 H 0.57678 0.98286 0.7372 0.0
O150 O 0.5048 0.97946 0.926 0.0
O151 O 0.52914 0.02681 0.90702 0.0
O152 O 0.55102 0.01155 0.81716 0.0
C153 C 0.55056 0.02325 0.87565 0.0
H154 H 0.46558 0.03181 0.12425 0.0
H155 H 0.5541 0.99555 0.50528 0.0
Co156 Co 0.53831 0.50226 0.79525 0.0
C157 C 0.50881 0.46699 0.89635 0.0
Co158 Co 0.49702 0.50259 0.76649 0.0
C159 C 0.58508 0.50385 0.88484 0.0
C160 C 0.59224 0.50154 0.76565 0.0
N161 N 0.57313 0.50218 0.81733 0.0
N162 N 0.61091 0.50452 0.87696 0.0
C163 C 0.6154 0.503 0.80195 0.0
H164 H 0.575 0.50525 0.93816 0.0
H165 H 0.5895 0.5004 0.70509 0.0
C166 C 0.52611 0.53777 0.66502 0.0
N167 N 0.46223 0.50285 0.74394 0.0
C168 C 0.45059 0.50323 0.67496 0.0
C169 C 0.44294 0.50346 0.79503 0.0
N170 N 0.42478 0.50426 0.68103 0.0
C171 C 0.41998 0.50435 0.7567 0.0
C172 C 0.51206 0.53944 0.85791 0.0
O173 O 0.54452 0.52847 0.70703 0.0
O174 O 0.5036 0.5283 0.67928 0.0
O175 O 0.4927 0.53008 0.8268 0.0
O176 O 0.53375 0.52919 0.85386 0.0
O177 O 0.49072 0.47674 0.85392 0.0
H178 H 0.44544 0.50344 0.8563 0.0
H179 H 0.46092 0.50333 0.62117 0.0
O180 O 0.53156 0.47614 0.88314 0.0
O181 O 0.54272 0.47534 0.73562 0.0
O182 O 0.50187 0.47537 0.70653 0.0
C183 C 0.52394 0.46569 0.70281 0.0
H184 H 0.63411 0.50286 0.77507 0.0
H185 H 0.40119 0.50481 0.78281 0.0
Co186 Co 0.02366 0.52769 0.77204 0.0
C187 C 0.06333 0.49842 0.84262 0.0
Co188 Co 0.02007 0.48568 0.76325 0.0
C189 C 0.02525 0.57245 0.85201 0.0
C190 C 0.03201 0.58345 0.73064 0.0
N191 N 0.02654 0.5626 0.78497 0.0
N192 N 0.02992 0.5984 0.84157 0.0
C193 C 0.03433 0.60546 0.76546 0.0
H194 H 0.02176 0.56077 0.90795 0.0
H195 H 0.03453 0.58272 0.66971 0.0
C196 C 0.9807 0.51565 0.69185 0.0
N197 N 0.01745 0.45091 0.74986 0.0
C198 C 0.01412 0.44156 0.6826 0.0
C199 C 0.02028 0.42961 0.80336 0.0
N200 N 0.01509 0.41528 0.69162 0.0
C201 C 0.01887 0.40771 0.7678 0.0
C202 C 0.99401 0.49734 0.88814 0.0
O203 O 0.99361 0.53451 0.71243 0.0
O204 O 0.98902 0.49261 0.7077 0.0
O205 O 1.00079 0.47853 0.85484 0.0
O206 O 1.00238 0.5203 0.86257 0.0
O207 O 0.05155 0.47938 0.81896 0.0
H208 H 0.02375 0.43002 0.86398 0.0
H209 H 0.01205 0.45393 0.62749 0.0
O210 O 0.05351 0.52082 0.83109 0.0
O211 O 0.04487 0.53421 0.6804 0.0
O212 O 0.03886 0.49283 0.6719 0.0
C213 C 0.04855 0.51496 0.64509 0.0
H214 H 0.03883 0.62511 0.73724 0.0
H215 H 0.02075 0.38779 0.79591 0.0
H216 H 0.19745 0.03143 0.65329 0.0
H217 H 0.18898 1.00119 0.437 0.0
H218 H 0.1427 0.99324 0.4642 0.0
H219 H 0.15284 0.98659 0.76496 0.0
H220 H 0.14029 0.01045 0.81892 0.0
H221 H 0.17275 0.01391 0.78261 0.0
H222 H 0.16332 0.06013 0.7113 0.0
H223 H 0.13085 0.05684 0.74756 0.0
H224 H 0.1369 0.06445 0.64509 0.0
H225 H 0.09766 0.98787 0.51555 0.0
H226 H 0.05642 0.98664 0.58474 0.0
H227 H 0.09326 0.02113 0.76808 0.0
C228 C 0.18579 0.02318 0.61165 0.0
C229 C 0.19682 0.01694 0.54298 0.0
C230 C 0.181 1.0062 0.48982 0.0
C231 C 0.15468 1.00157 0.50488 0.0
C232 C 0.14442 0.00788 0.5732 0.0
C233 C 0.15943 0.01857 0.62562 0.0
C234 C 0.14352 0.02374 0.69437 0.0
C235 C 0.15291 0.00771 0.76967 0.0
C236 C 0.14366 0.05303 0.69987 0.0
C237 C 0.11722 0.01417 0.67261 0.0
C238 C 0.11827 1.00505 0.60253 0.0
C239 C 0.0966 0.99503 0.57032 0.0
C240 C 0.07321 0.9944 0.61034 0.0
C241 C 0.07144 1.00382 0.68208 0.0
C242 C 0.09388 0.01379 0.7135 0.0
H243 H 0.55034 0.18887 0.50256 0.0
H244 H 0.4708 0.21098 0.48677 0.0
H245 H 0.45766 0.16761 0.55789 0.0
H246 H 0.5382 0.12107 0.47374 0.0
H247 H 0.56317 0.10873 0.53897 0.0
H248 H 0.566 0.14129 0.48602 0.0
H249 H 0.57189 0.15961 0.61453 0.0
H250 H 0.5689 0.12714 0.66785 0.0
H251 H 0.54794 0.15216 0.68978 0.0
H252 H 0.45392 0.1231 0.6423 0.0
H253 H 0.45932 0.0792 0.71842 0.0
H254 H 0.5408 0.08469 0.66745 0.0
C255 C 0.53014 0.18441 0.51342 0.0
C256 C 0.51155 0.20318 0.48934 0.0
C257 C 0.4853 0.19676 0.50429 0.0
C258 C 0.4777 0.17224 0.54494 0.0
C259 C 0.49656 0.15421 0.56873 0.0
C260 C 0.52221 0.15983 0.55209 0.0
C261 C 0.53867 0.13694 0.5828 0.0
C262 C 0.55231 0.12638 0.51642 0.0
C263 C 0.55798 0.14442 0.64227 0.0
C264 C 0.51838 0.11773 0.62078 0.0
C265 C 0.49422 0.12814 0.61289 0.0
C266 C 0.47268 0.11462 0.64767 0.0
C267 C 0.47592 0.08981 0.69105 0.0
C268 C 0.50039 0.0786 0.6979 0.0
C269 C 0.52181 0.09271 0.66189 0.0
H270 H 0.28993 0.537 0.48722 0.0
H271 H 0.3133 0.49757 0.29825 0.0
H272 H 0.35572 0.48959 0.3593 0.0
H273 H 0.35118 0.56819 0.5155 0.0
H274 H 0.34753 0.56384 0.61909 0.0
H275 H 0.31964 0.56708 0.55862 0.0
H276 H 0.30106 0.52321 0.63085 0.0
H277 H 0.3289 0.51982 0.69142 0.0
H278 H 0.31987 0.49432 0.63686 0.0
H279 H 0.39577 0.48555 0.44422 0.0
H280 H 0.42871 0.48467 0.54581 0.0
H281 H 0.37821 0.52662 0.67792 0.0
C282 C 0.30405 0.52682 0.45844 0.0
C283 C 0.29841 0.51799 0.38799 0.0
C284 C 0.31725 0.50456 0.35223 0.0
C285 C 0.3414 0.49997 0.38648 0.0
C286 C 0.34631 0.5089 0.45639 0.0
C287 C 0.32807 0.52201 0.49188 0.0
C288 C 0.33764 0.52905 0.56762 0.0
C289 C 0.33909 0.5588 0.565 0.0
C290 C 0.32087 0.5158 0.63569 0.0
C291 C 0.36409 0.5177 0.56981 0.0
C292 C 0.3689 0.5063 0.50506 0.0
C293 C 0.39216 0.49449 0.495 0.0
C294 C 0.41083 0.49419 0.55283 0.0
C295 C 0.40607 0.50546 0.62016 0.0
C296 C 0.38238 0.51749 0.6279 0.0
H297 H 0.04743 0.29098 0.49913 0.0
H298 H 1.00496 0.3244 0.2976 0.0
H299 H 0.99616 0.36311 0.3602 0.0
H300 H 1.00622 0.3112 0.63949 0.0
H301 H 0.03182 0.31766 0.70311 0.0
H302 H 0.03549 0.29342 0.64083 0.0
H303 H 0.07704 0.31712 0.58232 0.0
H304 H 0.07361 0.34134 0.64484 0.0
H305 H 0.07623 0.35118 0.54182 0.0
H306 H 0.99151 0.3979 0.44838 0.0
H307 H 0.99162 0.42536 0.55202 0.0
H308 H 0.03721 0.36825 0.69434 0.0
C309 C 0.03645 0.30657 0.46785 0.0
C310 C 0.02696 0.30482 0.39353 0.0
C311 C 0.0125 0.32544 0.35452 0.0
C312 C 0.0074 0.34745 0.38972 0.0
C313 C 0.01688 0.34841 0.46373 0.0
C314 C 0.03116 0.32847 0.50209 0.0
C315 C 0.03883 0.33375 0.58151 0.0
C316 C 0.0274 0.31276 0.64496 0.0
C317 C 0.06817 0.33598 0.58796 0.0
C318 C 0.02657 0.35978 0.58241 0.0
C319 C 0.01404 0.36803 0.51403 0.0
C320 C 1.00135 0.39161 0.50196 0.0
C321 C 1.0016 0.40714 0.5611 0.0
C322 C 0.01438 0.39902 0.63164 0.0
C323 C 0.02694 0.37494 0.64188 0.0
H324 H 0.83677 0.04931 0.0669 0.0
H325 H 0.80186 0.97257 0.06891 0.0
H326 H 0.83966 0.95949 -0.00091 0.0
H327 H 0.86633 0.05638 0.88137 0.0
H328 H 0.89527 0.07203 0.90936 0.0
H329 H 0.86558 0.07531 0.95945 0.0
H330 H 0.88661 0.05738 0.08979 0.0
H331 H 0.91643 0.05424 0.04012 0.0
H332 H 0.90203 0.02635 0.10053 0.0
H333 H 0.87993 0.95622 0.91952 0.0
H334 H 0.92192 0.9609 0.8516 0.0
H335 H 0.9325 0.03828 0.91259 0.0
C336 C 0.83724 0.02969 0.05308 0.0
C337 C 0.81645 0.01193 0.07305 0.0
C338 C 0.81767 0.9864 0.05449 0.0
C339 C 0.839 0.97887 0.01452 0.0
C340 C 0.85913 0.99695 0.99495 0.0
C341 C 0.85865 0.02167 0.015 0.0
C342 C 0.88306 0.03716 0.98923 0.0
C343 C 0.8772 0.06167 0.93142 0.0
C344 C 0.89791 0.04419 0.05909 0.0
C345 C 0.8972 0.01746 0.95042 0.0
C346 C 0.88292 0.99451 0.95339 0.0
C347 C 0.89139 0.97397 0.9178 0.0
C348 C 0.91516 0.97685 0.87897 0.0
C349 C 0.93043 0.99987 0.87731 0.0
C350 C 0.92132 0.02036 0.91377 0.0
H351 H 0.53598 0.80745 0.95677 0.0
H352 H 0.51079 0.80505 0.19416 0.0
H353 H 0.50697 0.85303 0.17161 0.0
H354 H 0.57336 0.8681 0.94156 0.0
H355 H 0.56424 0.87896 0.84301 0.0
H356 H 0.56577 0.84459 0.87871 0.0
H357 H 0.51867 0.83804 0.83818 0.0
H358 H 0.517 0.87236 0.80235 0.0
H359 H 0.49403 0.85707 0.87337 0.0
H360 H 0.50457 0.90125 0.12143 0.0
H361 H 0.50363 0.94579 0.04824 0.0
H362 H 0.53069 0.91683 0.84326 0.0
C363 C 0.52982 0.81708 0.00413 0.0
C364 C 0.52375 0.80255 0.07726 0.0
C365 C 0.51561 0.81577 0.13773 0.0
C366 C 0.5134 0.84303 0.12542 0.0
C367 C 0.51945 0.85678 0.05243 0.0
C368 C 0.52753 0.84424 0.99281 0.0
C369 C 0.5323 0.86344 0.91937 0.0
C370 C 0.5606 0.86379 0.89421 0.0
C371 C 0.51443 0.85736 0.85451 0.0
C372 C 0.52545 0.88875 0.94669 0.0
C373 C 0.51814 0.88449 0.02366 0.0
C374 C 0.51038 0.90481 0.06126 0.0
C375 C 0.5099 0.93007 0.01908 0.0
C376 C 0.51716 0.93492 0.93993 0.0
C377 C 0.52521 0.91388 0.90373 0.0
H378 H 0.74794 0.54289 0.02463 0.0
H379 H 0.72524 0.50617 0.25485 0.0
H380 H 0.68189 0.49677 0.20646 0.0
H381 H 0.68724 0.57239 0.96928 0.0
H382 H 0.68999 0.56647 0.87088 0.0
H383 H 0.71843 0.57125 0.92534 0.0
H384 H 0.73528 0.52696 0.89797 0.0
H385 H 0.70688 0.52202 0.84365 0.0
H386 H 0.71565 0.49781 0.92364 0.0
H387 H 0.64087 0.49071 0.12942 0.0
H388 H 0.6072 0.48742 0.03176 0.0
H389 H 0.658 0.52781 0.85358 0.0
C390 C 0.73376 0.53308 0.06506 0.0
C391 C 0.73984 0.52537 0.14343 0.0
C392 C 0.72092 0.51233 0.19454 0.0
C393 C 0.69627 0.50694 0.16752 0.0
C394 C 0.69096 0.51469 0.08939 0.0
C395 C 0.70928 0.52747 0.03905 0.0
C396 C 0.69934 0.53301 0.95741 0.0
C397 C 0.69871 0.56254 0.92909 0.0
C398 C 0.71523 0.51911 0.90246 0.0
C399 C 0.67258 0.52118 0.96911 0.0
C400 C 0.66791 0.51086 0.04557 0.0
C401 C 0.64438 0.4988 0.06949 0.0
C402 C 0.62532 0.49712 0.01373 0.0
C403 C 0.62997 0.50721 0.93489 0.0
C404 C 0.65391 0.51954 0.91303 0.0
H405 H 0.97201 0.67083 0.16785 0.0
H406 H 0.04377 0.71506 0.1621 0.0
H407 H 0.06149 0.68887 0.06852 0.0
H408 H 1.00118 0.60725 0.15225 0.0
H409 H 0.97549 0.59772 0.09323 0.0
H410 H 0.96927 0.61874 0.16373 0.0
H411 H 0.95045 0.6528 0.05636 0.0
H412 H 0.95686 0.63194 0.98577 0.0
H413 H 0.96967 0.66492 0.97205 0.0
H414 H 0.06926 0.66168 0.96351 0.0
H415 H 0.06822 0.63192 0.86535 0.0
H416 H 0.99297 0.60285 0.94701 0.0
C417 C 0.99163 0.6746 0.14793 0.0
C418 C 0.00659 0.69484 0.17223 0.0
C419 C 0.0321 0.69945 0.14475 0.0
C420 C 0.04227 0.68474 0.0914 0.0
C421 C 0.02685 0.66519 0.06743 0.0
C422 C 1.00224 0.65973 0.09598 0.0
C423 C 0.98949 0.63801 0.05979 0.0
C424 C 0.98352 0.61401 0.12091 0.0
C425 C 0.96519 0.6475 0.01588 0.0
C426 C 0.01051 0.63261 0.00486 0.0
C427 C 0.03185 0.64861 0.00978 0.0
C428 C 0.05289 0.64868 0.96031 0.0
C429 C 0.05213 0.6319 0.90466 0.0
C430 C 0.03069 0.61505 0.89985 0.0
C431 C 0.00976 0.61525 0.95101 0.0
H432 H 0.97831 0.15636 0.33446 0.0
H433 H 1.0033 0.20976 0.48981 0.0
H434 H 0.99464 0.17571 0.60004 0.0
H435 H 0.93234 0.11432 0.46712 0.0
H436 H 0.94345 0.08509 0.43527 0.0
H437 H 0.94378 0.11541 0.36935 0.0
H438 H 0.99223 0.11061 0.34343 0.0
H439 H 0.99214 0.08049 0.4095 0.0
H440 H 0.01403 0.10673 0.42359 0.0
H441 H 0.99083 0.13518 0.69135 0.0
H442 H 0.99418 0.0904 0.75793 0.0
H443 H 0.97784 0.0608 0.54394 0.0
C444 C 0.98178 0.1612 0.39144 0.0
C445 C 0.99157 0.18613 0.40225 0.0
C446 C 0.99519 0.19134 0.4787 0.0
C447 C 0.99047 0.17193 0.54227 0.0
C448 C 0.98245 0.14726 0.52888 0.0
C449 C 0.97821 0.14174 0.45538 0.0
C450 C 0.97412 0.11266 0.45575 0.0
C451 C 0.94679 0.10651 0.43038 0.0
C452 C 0.99433 0.10201 0.4051 0.0
C453 C 0.97787 0.10261 0.54067 0.0
C454 C 0.98185 0.12307 0.58181 0.0
C455 C 0.98745 0.11901 0.66002 0.0
C456 C 0.98955 0.09341 0.69711 0.0
C457 C 0.98655 0.07204 0.6559 0.0
C458 C 0.98005 0.07671 0.57695 0.0
H459 H 0.35322 0.03714 0.49305 0.0
H460 H 0.30618 0.97436 0.61851 0.0
H461 H 0.34287 0.96147 0.70439 0.0
H462 H 0.40758 1.0 0.4853 0.0
H463 H 0.43015 0.02628 0.49346 0.0
H464 H 0.39927 0.03325 0.4511 0.0
H465 H 0.38979 0.06423 0.55001 0.0
H466 H 0.42091 0.05792 0.59157 0.0
H467 H 0.3926 0.05249 0.65184 0.0
H468 H 0.38603 0.95514 0.77354 0.0
H469 H 0.43097 0.95616 0.81931 0.0
H470 H 0.44993 0.01878 0.63322 0.0
C471 C 0.35045 0.0208 0.53908 0.0
C472 C 0.32688 0.00662 0.54882 0.0
C473 C 0.32398 0.98565 0.61049 0.0
C474 C 0.34479 0.97807 0.65893 0.0
C475 C 0.36824 0.99156 0.64422 0.0
C476 C 0.37104 0.01256 0.58578 0.0
C477 C 0.39844 0.02275 0.57724 0.0
C478 C 0.4095 0.02041 0.49702 0.0
C479 C 0.40055 0.05102 0.59368 0.0
C480 C 0.41088 1.0041 0.6398 0.0
C481 C 0.39317 0.9865 0.67888 0.0
C482 C 0.40008 0.96853 0.74248 0.0
C483 C 0.42559 0.96905 0.76761 0.0
C484 C 0.44384 0.98683 0.72761 0.0
C485 C 0.43647 1.00425 0.66243 0.0
H486 H 0.48261 0.34969 0.4769 0.0
H487 H 0.55737 0.31723 0.52704 0.0
H488 H 0.56729 0.35181 0.60666 0.0
H489 H 0.50196 0.41387 0.44888 0.0
H490 H 0.47439 0.42621 0.49257 0.0
H491 H 0.47142 0.39674 0.4507 0.0
H492 H 0.45387 0.3714 0.58015 0.0
H493 H 0.4561 0.40099 0.62202 0.0
H494 H 0.47181 0.37217 0.66747 0.0
H495 H 0.57096 0.39343 0.664 0.0
H496 H 0.56651 0.43579 0.70937 0.0
H497 H 0.48886 0.44076 0.6213 0.0
C498 C 0.50066 0.34936 0.50723 0.0
C499 C 0.51917 0.33078 0.49728 0.0
C500 C 0.54287 0.33109 0.53569 0.0
C501 C 0.54867 0.35075 0.58027 0.0
C502 C 0.5304 0.3696 0.58597 0.0
C503 C 0.50666 0.36871 0.55181 0.0
C504 C 0.49101 0.39211 0.5623 0.0
C505 C 0.48432 0.40817 0.48395 0.0
C506 C 0.46676 0.38366 0.61091 0.0
C507 C 0.5099 0.40674 0.60596 0.0
C508 C 0.53249 0.39346 0.61911 0.0
C509 C 0.55321 0.40378 0.65513 0.0
C510 C 0.55055 0.42799 0.68004 0.0
C511 C 0.5273 0.4416 0.66895 0.0
C512 C 0.50683 0.43082 0.63086 0.0
H513 H 0.18062 0.53976 0.40801 0.0
H514 H 0.15451 0.47584 0.29196 0.0
H515 H 0.11336 0.47384 0.36125 0.0
H516 H 0.15015 0.51266 0.59495 0.0
H517 H 0.14222 0.54423 0.61777 0.0
H518 H 0.16995 0.54089 0.55869 0.0
H519 H 0.15229 0.57606 0.45235 0.0
H520 H 0.12418 0.57898 0.51036 0.0
H521 H 0.12083 0.57139 0.41384 0.0
H522 H 0.07475 0.48006 0.43261 0.0
H523 H 0.04247 0.48716 0.52904 0.0
H524 H 0.09279 0.54502 0.60981 0.0
C525 C 0.16635 0.52511 0.3985 0.0
C526 C 0.17043 0.50837 0.34328 0.0
C527 C 0.15146 0.48926 0.33264 0.0
C528 C 0.12801 0.48802 0.37142 0.0
C529 C 0.12397 0.50563 0.42213 0.0
C530 C 0.14272 0.52325 0.43811 0.0
C531 C 0.13333 0.53881 0.49908 0.0
C532 C 0.14989 0.53384 0.57195 0.0
C533 C 0.13262 0.56805 0.46695 0.0
C534 C 0.10643 0.52715 0.51401 0.0
C535 C 0.1015 0.50841 0.46747 0.0
C536 C 0.07835 0.49452 0.46996 0.0
C537 C 0.0601 0.49881 0.52459 0.0
C538 C 0.06521 0.51661 0.5766 0.0
C539 C 0.0883 0.53164 0.56972 0.0
H540 H 0.01783 0.81392 0.08239 0.0
H541 H 0.94203 0.82379 0.17394 0.0
H542 H 0.93933 0.86638 0.09051 0.0
H543 H 0.0404 0.87418 0.08231 0.0
H544 H 0.05809 0.87902 0.99236 0.0
H545 H 0.05242 0.84657 0.04335 0.0
H546 H 0.03063 0.8322 0.92381 0.0
H547 H 0.0372 0.86432 0.87092 0.0
H548 H 1.00489 0.851 0.87751 0.0
H549 H 0.94906 0.91091 0.02604 0.0
H550 H 0.96624 0.9525 0.95505 0.0
H551 H 0.03473 0.91413 0.8954 0.0
C552 C 1.0001 0.82438 0.081 0.0
C553 C 0.97999 0.81564 0.1336 0.0
C554 C 0.95739 0.83015 0.13299 0.0
C555 C 0.95581 0.85441 0.08636 0.0
C556 C 0.97679 0.86351 0.03962 0.0
C557 C 0.99813 0.84863 0.03395 0.0
C558 C 0.01875 0.86406 0.98359 0.0
C559 C 0.04389 0.86606 0.02812 0.0
C560 C 0.02312 0.85219 0.90954 0.0
C561 C 1.00624 0.89031 0.96601 0.0
C562 C 0.98207 0.88945 -0.00072 0.0
C563 C 0.96763 0.91168 0.99783 0.0
C564 C 0.97768 0.93523 0.95862 0.0
C565 C 1.00179 0.9363 0.92099 0.0
C566 C 0.01633 0.91365 0.92455 0.0
H567 H 0.69426 0.0081 0.01093 0.0
H568 H 0.68264 0.07265 0.13608 0.0
H569 H 0.64203 0.08227 0.06737 0.0
H570 H 0.66063 0.03847 0.82333 0.0
H571 H 0.64747 0.00695 0.81105 0.0
H572 H 0.67853 0.00953 0.85431 0.0
H573 H 0.66287 0.97693 0.97316 0.0
H574 H 0.63165 0.97474 0.93166 0.0
H575 H 0.63488 0.98419 0.02602 0.0
H576 H 0.59863 0.07766 0.01254 0.0
H577 H 0.55787 0.06337 0.95863 0.0
H578 H 0.59785 1.00298 0.86398 0.0
C579 C 0.68389 0.02521 0.02008 0.0
C580 C 0.69164 0.03992 0.07768 0.0
C581 C 0.67711 0.06148 0.09111 0.0
C582 C 0.65399 0.06699 0.05262 0.0
C583 C 0.64588 0.05099 -2e-05 0.0
C584 C 0.66073 0.03099 0.98181 0.0
C585 C 0.64626 0.01482 0.93024 0.0
C586 C 0.65898 0.01762 0.84995 0.0
C587 C 0.64377 0.98598 0.96756 0.0
C588 C 0.62054 0.02783 0.92637 0.0
C589 C 0.62076 0.04879 0.96643 0.0
C590 C 0.59842 0.06185 0.9788 0.0
C591 C 0.57533 0.05346 0.94876 0.0
C592 C 0.57484 0.03232 0.90652 0.0
C593 C 0.59781 0.0196 0.8946 0.0
H594 H 0.47565 0.64755 0.11241 0.0
H595 H 0.53557 0.69623 0.98705 0.0
H596 H 0.5391 0.66475 0.89564 0.0
H597 H 0.50396 0.59001 0.10964 0.0
H598 H 0.47558 0.57066 0.09688 0.0
H599 H 0.47319 0.59937 0.14207 0.0
H600 H 0.4399 0.61834 0.04106 0.0
H601 H 0.44171 0.58938 0.99627 0.0
H602 H 0.44743 0.62104 0.93954 0.0
H603 H 0.54288 0.62462 0.83724 0.0
H604 H 0.54281 0.58026 0.80319 0.0
H605 H 0.47962 0.5571 0.96264 0.0
C606 C 0.48885 0.652 0.06398 0.0
C607 C 0.50528 0.67437 0.05649 0.0
C608 C 0.52251 0.67948 0.99306 0.0
C609 C 0.52475 0.6616 0.94117 0.0
C610 C 0.50935 0.63898 0.95296 0.0
C611 C 0.49129 0.63436 0.01169 0.0
C612 C 0.47895 0.60736 0.01633 0.0
C613 C 0.48319 0.5909 0.09593 0.0
C614 C 0.45029 0.60915 0.99712 0.0
C615 C 0.49383 0.59702 0.95352 0.0
C616 C 0.51116 0.6157 0.91756 0.0
C617 C 0.52896 0.61008 0.86345 0.0
C618 C 0.52896 0.5848 0.8452 0.0
C619 C 0.51119 0.5655 0.88042 0.0
C620 C 0.49313 0.57173 0.9344 0.0
H621 H 0.8865 0.5417 0.16179 0.0
H622 H 0.84712 0.46788 0.15082 0.0
H623 H 0.88267 0.45511 0.07109 0.0
H624 H 0.91179 0.55115 0.96364 0.0
H625 H 0.94139 0.56598 0.99015 0.0
H626 H 0.91243 0.56913 0.04392 0.0
H627 H 0.93553 0.55001 0.16958 0.0
H628 H 0.96429 0.54598 0.11583 0.0
H629 H 0.94961 0.51837 0.17682 0.0
H630 H 0.92366 0.44931 0.00169 0.0
H631 H 0.9639 0.45349 0.92636 0.0
H632 H 0.97582 0.53221 0.97742 0.0
C633 C 0.88525 0.52307 0.14116 0.0
C634 C 0.86421 0.50572 0.16152 0.0
C635 C 0.86304 0.48144 0.13456 0.0
C636 C 0.88321 0.47398 0.09015 0.0
C637 C 0.9041 0.49122 0.07292 0.0
C638 C 0.905 0.51551 0.09598 0.0
C639 C 0.9294 0.53058 0.06831 0.0
C640 C 0.92338 0.55568 0.0132 0.0
C641 C 0.94566 0.53658 0.13674 0.0
C642 C 0.94214 0.5109 0.02617 0.0
C643 C 0.92741 0.48819 0.03071 0.0
C644 C 0.93527 0.46706 0.99713 0.0
C645 C 0.95829 0.46958 0.95499 0.0
C646 C 0.973 0.49322 0.94584 0.0
C647 C 0.96504 0.51389 0.98352 0.0
H648 H 0.05631 0.17365 0.21921 0.0
H649 H 0.01161 0.22442 0.05514 0.0
H650 H 0.0175 0.1947 0.9588 0.0
H651 H 0.09892 0.14487 0.07635 0.0
H652 H 0.09621 0.11328 0.13554 0.0
H653 H 0.09614 0.14244 0.17983 0.0
H654 H 0.05312 0.12683 0.24806 0.0
H655 H 0.05259 0.09806 0.2029 0.0
H656 H 0.02599 0.11976 0.19074 0.0
H657 H 0.01964 0.15485 0.89321 0.0
H658 H 0.01769 0.10973 0.86489 0.0
H659 H 0.05816 0.08353 0.07673 0.0
C660 C 0.04893 0.17914 0.16148 0.0
C661 C 0.03376 0.20139 0.144 0.0
C662 C 0.02374 0.20775 0.06891 0.0
C663 C 0.02689 0.19084 0.01414 0.0
C664 C 0.04017 0.16782 0.03559 0.0
C665 C 0.05132 0.16216 0.10746 0.0
C666 C 0.0603 0.13433 0.12268 0.0
C667 C 0.08964 0.1337 0.12894 0.0
C668 C 0.04721 0.11886 0.19531 0.0
C669 C 0.05128 0.12467 0.05002 0.0
C670 C 0.04039 0.1444 -0.00059 0.0
C671 C 0.02869 0.13945 0.93158 0.0
C672 C 0.0277 0.11371 0.91588 0.0
C673 C 0.0379 0.09309 0.96851 0.0
C674 C 0.05033 0.0989 0.03537 0.0
H675 H 0.33645 0.05857 0.30589 0.0
H676 H 0.28958 0.99926 0.22131 0.0
H677 H 0.31964 0.99998 0.11074 0.0
H678 H 0.36392 0.0928 0.11441 0.0
H679 H 0.39472 0.09637 0.15827 0.0
H680 H 0.36576 0.09707 0.21446 0.0
H681 H 0.38282 0.05993 0.31542 0.0
H682 H 0.41143 0.05845 0.25908 0.0
H683 H 0.39144 0.02959 0.28524 0.0
H684 H 0.35925 1.00121 0.0248 0.0
H685 H 0.40354 1.00253 0.97309 0.0
H686 H 0.426 0.05796 0.12331 0.0
C687 C 0.33183 0.04675 0.26171 0.0
C688 C 0.31051 0.02917 0.2712 0.0
C689 C 0.30543 0.01331 0.21396 0.0
C690 C 0.32258 0.01347 0.15143 0.0
C691 C 0.34461 0.0296 0.14731 0.0
C692 C 0.34907 0.04616 0.20083 0.0
C693 C 0.3759 0.05817 0.19265 0.0
C694 C 0.37501 0.08787 0.16848 0.0
C695 C 0.39128 0.05109 0.26749 0.0
C696 C 0.38634 0.04508 0.1281 0.0
C697 C 0.36787 0.02919 0.10118 0.0
C698 C 0.37364 0.01397 0.0446 0.0
C699 C 0.39886 0.01486 0.01547 0.0
C700 C 0.4182 0.03043 0.04407 0.0
C701 C 0.41162 0.04593 0.10038 0.0
H702 H 0.54318 0.34786 0.22094 0.0
H703 H 0.46516 0.3187 0.20656 0.0
H704 H 0.4572 0.35413 0.09788 0.0
H705 H 0.52961 0.41265 0.19585 0.0
H706 H 0.55752 0.42431 0.13855 0.0
H707 H 0.55864 0.39437 0.20534 0.0
H708 H 0.57228 0.36926 0.09544 0.0
H709 H 0.57196 0.39929 0.0285 0.0
H710 H 0.55327 0.37137 0.00919 0.0
H711 H 0.45623 0.3965 0.00474 0.0
H712 H 0.46365 0.4389 0.92172 0.0
H713 H 0.54268 0.44034 0.99769 0.0
C714 C 0.52475 0.34836 0.19264 0.0
C715 C 0.50484 0.3304 0.221 0.0
C716 C 0.48076 0.33194 0.18432 0.0
C717 C 0.47604 0.35216 0.12324 0.0
C718 C 0.49572 0.37042 0.09943 0.0
C719 C 0.5198 0.36833 0.13188 0.0
C720 C 0.53719 0.39129 0.09959 0.0
C721 C 0.54626 0.40655 0.16366 0.0
C722 C 0.56002 0.38226 0.05554 0.0
C723 C 0.51899 0.40707 0.04524 0.0
C724 C 0.49517 0.39471 0.04594 0.0
C725 C 0.47491 0.40611 0.00291 0.0
C726 C 0.47929 0.43036 0.95642 0.0
C727 C 0.50378 0.44304 0.95304 0.0
C728 C 0.52376 0.43122 -0.00117 0.0
H729 H 0.18466 0.54665 0.05428 0.0
H730 H 0.20921 0.46688 0.09385 0.0
H731 H 0.17712 0.45531 0.00061 0.0
H732 H 0.12355 0.53251 0.06762 0.0
H733 H 0.11183 0.55795 0.99559 0.0
H734 H 0.14177 0.56261 0.04213 0.0
H735 H 0.1657 0.57162 0.91058 0.0
H736 H 0.13559 0.5682 0.86271 0.0
H737 H 0.1623 0.54875 0.84328 0.0
H738 H 0.13544 0.45041 0.92957 0.0
H739 H 0.09174 0.45393 0.87474 0.0
H740 H 0.09362 0.5367 0.88866 0.0
C741 C 0.18454 0.52726 0.03857 0.0
C742 C 0.19982 0.50781 0.0794 0.0
C743 C 0.19828 0.48221 0.06113 0.0
C744 C 0.17978 0.47542 0.00906 0.0
C745 C 0.16322 0.49455 0.97539 0.0
C746 C 0.16591 0.52018 0.98795 0.0
C747 C 0.14348 0.53618 0.95555 0.0
C748 C 0.12934 0.54798 0.01902 0.0
C749 C 0.1523 0.55744 0.88905 0.0
C750 C 0.12713 0.51538 0.92626 0.0
C751 C 0.13889 0.49156 0.93693 0.0
C752 C 0.12636 0.46912 0.91937 0.0
C753 C 0.10144 0.47124 0.88897 0.0
C754 C 0.08918 0.49556 0.87745 0.0
C755 C 0.10239 0.5178 0.89642 0.0
H756 H 0.95495 0.81134 0.40956 0.0
H757 H 0.03651 0.79855 0.42374 0.0
H758 H 0.04118 0.83293 0.50665 0.0
H759 H 0.95938 0.87586 0.37729 0.0
H760 H 0.9316 0.88281 0.43153 0.0
H761 H 0.9329 0.85263 0.3935 0.0
H762 H 0.92553 0.82614 0.52984 0.0
H763 H 0.92326 0.85627 0.56845 0.0
H764 H 0.94593 0.8323 0.60813 0.0
H765 H 0.03823 0.87479 0.56151 0.0
H766 H 0.02756 0.91738 0.59666 0.0
H767 H 0.9476 0.90343 0.5449 0.0
C768 C 0.97352 0.81479 0.434 0.0
C769 C 0.99532 0.80205 0.41167 0.0
C770 C 0.01953 0.80762 0.44198 0.0
C771 C 0.02234 0.82733 0.48837 0.0
C772 C 1.0007 0.84099 0.50432 0.0
C773 C 0.97661 0.83453 0.47947 0.0
C774 C 0.95702 0.85421 0.49515 0.0
C775 C 0.94451 0.86713 0.41989 0.0
C776 C 0.93674 0.84147 0.55391 0.0
C777 C 0.97401 0.87345 0.52938 0.0
C778 C 0.99905 0.86533 0.53516 0.0
C779 C 0.01854 0.88093 0.55933 0.0
C780 C 0.01224 0.9052 0.57919 0.0
C781 C 0.98661 0.91385 0.57462 0.0
C782 C 0.96734 0.89757 0.54927 0.0
H783 H 0.69027 0.03997 0.35264 0.0
H784 H 0.71394 0.96028 0.36055 0.0
H785 H 0.6837 0.94629 0.46957 0.0
H786 H 0.67359 0.03734 0.56472 0.0
H787 H 0.6462 0.05734 0.54016 0.0
H788 H 0.67451 0.06175 0.47958 0.0
H789 H 0.64679 0.05506 0.36157 0.0
H790 H 0.61857 0.05017 0.4216 0.0
H791 H 0.62756 0.02555 0.36503 0.0
H792 H 0.64484 0.94012 0.56055 0.0
H793 H 0.60208 0.94261 0.62232 0.0
H794 H 0.60243 0.02576 0.54588 0.0
C795 C 0.68985 0.01973 0.37953 0.0
C796 C 0.70457 1.00122 0.34866 0.0
C797 C 0.70321 0.97484 0.38427 0.0
C798 C 0.68594 0.96675 0.44593 0.0
C799 C 0.67036 0.98532 0.47143 0.0
C800 C 0.67246 0.01138 0.43963 0.0
C801 C 0.65118 0.02697 0.46777 0.0
C802 C 0.66202 0.04703 0.51594 0.0
C803 C 0.63509 0.04019 0.39997 0.0
C804 C 0.63601 1.00552 0.51772 0.0
C805 C 0.64761 0.98169 0.52099 0.0
C806 C 0.63594 0.95877 0.55952 0.0
C807 C 0.61173 0.96028 0.59435 0.0
C808 C 0.5994 0.98439 0.58903 0.0
C809 C 0.61187 0.00724 0.55139 0.0
H810 H 0.48364 0.65065 0.33322 0.0
H811 H 0.55752 0.68892 0.35278 0.0
H812 H 0.56842 0.65458 0.46155 0.0
H813 H 0.47346 0.62634 0.54238 0.0
H814 H 0.45856 0.59641 0.52244 0.0
H815 H 0.45572 0.62597 0.45452 0.0
H816 H 0.4742 0.60245 0.34689 0.0
H817 H 0.47774 0.57306 0.4148 0.0
H818 H 0.5051 0.58769 0.35983 0.0
H819 H 0.57296 0.61274 0.55745 0.0
H820 H 0.56875 0.57026 0.64308 0.0
H821 H 0.49184 0.55969 0.55792 0.0
C822 C 0.50178 0.65223 0.36214 0.0
C823 C 0.51969 0.67251 0.3353 0.0
C824 C 0.54339 0.6738 0.37354 0.0
C825 C 0.54981 0.65423 0.43472 0.0
C826 C 0.53218 0.63372 0.45711 0.0
C827 C 0.50843 0.63294 0.42289 0.0
C828 C 0.49338 0.60825 0.45436 0.0
C829 C 0.46883 0.61463 0.49592 0.0
C830 C 0.48726 0.59191 0.39014 0.0
C831 C 0.51251 0.59494 0.51074 0.0
C832 C 0.5348 0.60986 0.51161 0.0
C833 C 0.55547 0.60107 0.55774 0.0
C834 C 0.55299 0.57678 0.60563 0.0
C835 C 0.53 0.56157 0.60712 0.0
C836 C 0.50968 0.57079 0.55821 0.0
H837 H 0.86193 0.48051 0.44379 0.0
H838 H 0.84036 0.56117 0.42368 0.0
H839 H 0.87234 0.56836 0.52286 0.0
H840 H 0.88017 0.47091 0.65711 0.0
H841 H 0.90651 0.45093 0.638 0.0
H842 H 0.87761 0.45079 0.58211 0.0
H843 H 0.90476 0.46265 0.45692 0.0
H844 H 0.9336 0.46371 0.51199 0.0
H845 H 0.92486 0.49179 0.44429 0.0
H846 H 0.91259 0.56875 0.60215 0.0
H847 H 0.95453 0.56135 0.66555 0.0
H848 H 0.95018 0.48035 0.6308 0.0
C849 C 0.86297 0.49925 0.46381 0.0
C850 C 0.84838 0.52017 0.42783 0.0
C851 C 0.85087 0.54478 0.45244 0.0
C852 C 0.86918 0.54904 0.5081 0.0
C853 C 0.88456 0.52839 0.5387 0.0
C854 C 0.88121 0.50378 0.51862 0.0
C855 C 0.90212 0.48574 0.55169 0.0
C856 C 0.89093 0.46327 0.61076 0.0
C857 C 0.91721 0.47539 0.48738 0.0
C858 C 0.91845 0.50429 0.59064 0.0
C859 C 0.90791 0.52871 0.58337 0.0
C860 C 0.92069 0.54954 0.60964 0.0
C861 C 0.94462 0.5452 0.64496 0.0
C862 C 0.95565 0.52025 0.65334 0.0
C863 C 0.94221 0.49959 0.62597 0.0
loop_
_geom_bond_atom_site_label_1
_geom_bond_atom_site_label_2
_geom_bond_distance
_geom_bond_site_symmetry_2
_ccdc_geom_bond_type
H0 C5 0.930 . S
H1 C8 0.930 . S
H2 C10 0.930 . S
H3 C4 1.016 . S
C4 H3 1.016 . S
C4 N11 1.286 . S
C5 H0 0.930 . S
C5 C6 1.397 . S
C5 C7 1.361 . S
C6 C5 1.397 . S
C6 C10 1.390 . S
C7 C5 1.361 . S
C7 C8 1.393 . S
C7 N11 1.413 . S
C8 H1 0.930 . S
C8 C7 1.393 . S
C8 C9 1.399 . S
C9 C8 1.399 . S
C9 C10 1.381 . S
C10 H2 0.930 . S
C10 C6 1.390 . S
C10 C9 1.381 . S
N11 C4 1.286 . S
N11 C7 1.413 . S
H12 C17 0.930 . S
H13 C20 0.930 . S
H14 C22 0.930 . S
H15 C16 1.016 . S
C16 H15 1.016 . S
C16 N23 1.286 . S
C17 H12 0.930 . S
C17 C18 1.397 . S
C17 C19 1.361 . S
C18 C17 1.397 . S
C18 C22 1.390 . S
C19 C17 1.361 . S
C19 C20 1.393 . S
C19 N23 1.413 . S
C20 H13 0.930 . S
C20 C19 1.393 . S
C20 C21 1.399 . S
C21 C20 1.399 . S
C21 C22 1.381 . S
C22 H14 0.930 . S
C22 C18 1.390 . S
C22 C21 1.381 . S
N23 C16 1.286 . S
N23 C19 1.413 . S
H24 C29 0.930 . S
H25 C32 0.930 1_556 S
H26 C34 0.930 . S
H27 C28 1.034 1_556 S
C28 H27 1.034 1_554 S
C28 N35 1.263 1_565 S
C29 H24 0.930 . S
C29 C30 1.397 . S
C29 C31 1.361 . S
C30 C29 1.397 . S
C30 C34 1.390 1_545 S
C31 C29 1.361 . S
C31 C32 1.393 . S
C31 N35 1.413 . S
C32 H25 0.930 1_554 S
C32 C31 1.393 . S
C32 C33 1.401 . S
C33 C32 1.401 . S
C33 C34 1.382 1_545 S
C34 H26 0.930 . S
C34 C30 1.390 1_565 S
C34 C33 1.382 1_565 S
N35 C28 1.263 1_545 S
N35 C31 1.413 . S
H36 C41 0.930 . S
H37 C44 0.930 . S
H38 C46 0.930 . S
H39 C40 1.016 . S
C40 H39 1.016 . S
C40 N47 1.286 . S
C41 H36 0.930 . S
C41 C42 1.397 . S
C41 C43 1.361 . S
C42 C41 1.397 . S
C42 C46 1.390 . S
C43 C41 1.361 . S
C43 C44 1.393 . S
C43 N47 1.413 . S
C44 H37 0.930 . S
C44 C43 1.393 . S
C44 C45 1.399 . S
C45 C44 1.399 . S
C45 C46 1.381 . S
C46 H38 0.930 . S
C46 C42 1.390 . S
C46 C45 1.381 . S
N47 C40 1.286 . S
N47 C43 1.413 . S
H48 C53 0.930 . S
H49 C56 0.930 . S
H50 C58 0.930 . S
H51 C52 1.016 . S
C52 H51 1.016 . S
C52 N59 1.286 . S
C53 H48 0.930 . S
C53 C54 1.397 . S
C53 C55 1.361 . S
C54 C53 1.397 . S
C54 C58 1.390 . S
C55 C53 1.361 . S
C55 C56 1.393 . S
C55 N59 1.413 . S
C56 H49 0.930 . S
C56 C55 1.393 . S
C56 C57 1.399 . S
C57 C56 1.399 . S
C57 C58 1.381 . S
C58 H50 0.930 . S
C58 C54 1.390 . S
C58 C57 1.381 . S
N59 C52 1.286 . S
N59 C55 1.413 . S
H60 C65 0.930 . S
H61 C68 0.930 . S
H62 C70 0.930 . S
H63 C64 1.016 . S
C64 H63 1.016 . S
C64 N71 1.286 . S
C65 H60 0.930 . S
C65 C66 1.397 . S
C65 C67 1.361 . S
C66 C65 1.397 . S
C66 C70 1.390 . S
C67 C65 1.361 . S
C67 C68 1.393 . S
C67 N71 1.413 . S
C68 H61 0.930 . S
C68 C67 1.393 . S
C68 C69 1.399 . S
C69 C68 1.399 . S
C69 C70 1.381 . S
C70 H62 0.930 . S
C70 C66 1.390 . S
C70 C69 1.381 . S
N71 C64 1.286 . S
N71 C67 1.413 . S
H72 C77 0.930 . S
H73 C80 0.930 . S
H74 C82 0.930 . S
H75 C76 1.022 . S
C76 H75 1.022 . S
C76 N83 1.276 1_565 S
C77 H72 0.930 . S
C77 C78 1.397 . S
C77 C79 1.361 . S
C78 C77 1.397 . S
C78 C82 1.390 1_545 S
C79 C77 1.361 . S
C79 C80 1.393 . S
C79 N83 1.413 . S
C80 H73 0.930 . S
C80 C79 1.393 . S
C80 C81 1.406 . S
C81 C80 1.406 . S
C81 C82 1.373 1_545 S
C82 H74 0.930 . S
C82 C78 1.390 1_565 S
C82 C81 1.373 1_565 S
N83 C76 1.276 1_545 S
N83 C79 1.413 . S
H84 C89 0.930 . S
H85 C92 0.930 . S
H86 C94 0.930 . S
H87 C88 1.016 . S
C88 H87 1.016 . S
C88 N95 1.286 . S
C89 H84 0.930 . S
C89 C90 1.397 . S
C89 C91 1.361 . S
C90 C89 1.397 . S
C90 C94 1.390 . S
C91 C89 1.361 . S
C91 C92 1.393 . S
C91 N95 1.413 . S
C92 H85 0.930 . S
C92 C91 1.393 . S
C92 C93 1.399 . S
C93 C92 1.399 . S
C93 C94 1.381 . S
C94 H86 0.930 . S
C94 C90 1.390 . S
C94 C93 1.381 . S
N95 C88 1.286 . S
N95 C91 1.413 . S
Co96 N101 2.057 . S
Co96 O113 2.021 . S
Co96 O116 2.062 . S
Co96 O120 2.117 1_455 S
Co96 O121 2.020 1_545 S
C97 O117 1.259 1_545 S
C97 O120 1.258 . S
Co98 N107 2.057 . S
Co98 O114 2.117 1_655 S
Co98 O115 2.020 1_665 S
Co98 O117 2.021 . S
Co98 O122 2.062 . S
C99 N101 1.316 . S
C99 N102 1.347 1_556 S
C99 H104 0.931 . S
C100 N101 1.375 1_655 S
C100 C103 1.350 1_656 S
C100 H105 0.930 . S
N101 Co96 2.057 . S
N101 C99 1.316 . S
N101 C100 1.375 1_455 S
N102 C99 1.347 1_554 S
N102 C103 1.373 . S
C103 C100 1.350 1_454 S
C103 N102 1.373 . S
C103 H124 0.931 1_455 S
H104 C99 0.931 . S
H105 C100 0.930 . S
C106 O113 1.259 1_565 S
C106 O114 1.258 . S
N107 Co98 2.057 . S
N107 C108 1.316 . S
N107 C109 1.375 1_655 S
C108 N107 1.316 . S
C108 N110 1.347 . S
C108 H119 0.931 . S
C109 N107 1.375 1_455 S
C109 C111 1.350 . S
C109 H118 0.930 . S
N110 C108 1.347 . S
N110 C111 1.373 1_655 S
C111 C109 1.350 . S
C111 N110 1.373 1_455 S
C111 H125 0.931 . S
C112 O115 1.256 . S
C112 O116 1.255 . S
O113 Co96 2.021 . S
O113 C106 1.259 1_545 S
O114 Co98 2.117 1_455 S
O114 C106 1.258 . S
O115 Co98 2.020 1_445 S
O115 C112 1.256 . S
O116 Co96 2.062 . S
O116 C112 1.255 . S
O117 C97 1.259 1_565 S
O117 Co98 2.021 . S
H118 C109 0.930 . S
H119 C108 0.931 . S
O120 Co96 2.117 1_655 S
O120 C97 1.258 . S
O121 Co96 2.020 1_565 S
O121 C123 1.256 . S
O122 Co98 2.062 . S
O122 C123 1.255 1_655 S
C123 O121 1.256 . S
C123 O122 1.255 1_455 S
H124 C103 0.931 1_655 S
H125 C111 0.931 . S
Co126 N131 2.057 1_545 S
Co126 O143 2.021 . S
Co126 O146 2.067 . S
Co126 O150 2.117 1_545 S
Co126 O151 2.020 . S
C127 O147 1.259 . S
C127 O150 1.258 . S
Co128 N137 2.057 1_565 S
Co128 O144 2.117 1_565 S
Co128 O145 2.020 . S
Co128 O147 2.021 . S
Co128 O152 2.065 . S
C129 N131 1.316 1_545 S
C129 N132 1.347 1_556 S
C129 H134 0.931 . S
C130 N131 1.375 1_554 S
C130 C133 1.350 . S
C130 H135 0.930 . S
N131 Co126 2.057 1_565 S
N131 C129 1.316 1_565 S
N131 C130 1.375 1_556 S
N132 C129 1.347 1_554 S
N132 C133 1.373 1_545 S
C133 C130 1.350 . S
C133 N132 1.373 1_565 S
C133 H154 0.931 . S
H134 C129 0.931 . S
H135 C130 0.930 . S
C136 O143 1.259 . S
C136 O144 1.258 . S
N137 Co128 2.057 1_545 S
N137 C138 1.316 1_545 S
N137 C139 1.375 . S
C138 N137 1.316 1_565 S
C138 N140 1.347 . S
C138 H149 0.931 . S
C139 N137 1.375 . S
C139 C141 1.350 . S
C139 H148 0.930 . S
N140 C138 1.347 . S
N140 C141 1.373 1_565 S
C141 C139 1.350 . S
C141 N140 1.373 1_545 S
C141 H155 0.931 . S
C142 O145 1.256 . S
C142 O146 1.244 1_565 S
O143 Co126 2.021 . S
O143 C136 1.259 . S
O144 Co128 2.117 1_545 S
O144 C136 1.258 . S
O145 Co128 2.020 . S
O145 C142 1.256 . S
O146 Co126 2.067 . S
O146 C142 1.244 1_545 S
O147 C127 1.259 . S
O147 Co128 2.021 . S
H148 C139 0.930 . S
H149 C138 0.931 . S
O150 Co126 2.117 1_565 S
O150 C127 1.258 . S
O151 Co126 2.020 . S
O151 C153 1.256 . S
O152 Co128 2.065 . S
O152 C153 1.248 1_565 S
C153 O151 1.256 . S
C153 O152 1.248 1_545 S
H154 C133 0.931 . S
H155 C141 0.931 . S
Co156 N161 2.057 . S
Co156 O173 2.021 . S
Co156 O176 2.062 . S
Co156 O180 2.117 . S
Co156 O181 2.020 . S
C157 O177 1.259 . S
C157 O180 1.258 . S
Co158 N167 2.057 . S
Co158 O174 2.117 . S
Co158 O175 2.020 . S
Co158 O177 2.021 . S
Co158 O182 2.062 . S
C159 N161 1.316 . S
C159 N162 1.347 . S
C159 H164 0.931 . S
C160 N161 1.375 . S
C160 C163 1.350 . S
C160 H165 0.930 . S
N161 Co156 2.057 . S
N161 C159 1.316 . S
N161 C160 1.375 . S
N162 C159 1.347 . S
N162 C163 1.373 . S
C163 C160 1.350 . S
C163 N162 1.373 . S
C163 H184 0.931 . S
H164 C159 0.931 . S
H165 C160 0.930 . S
C166 O173 1.259 . S
C166 O174 1.258 . S
N167 Co158 2.057 . S
N167 C168 1.316 . S
N167 C169 1.375 . S
C168 N167 1.316 . S
C168 N170 1.347 . S
C168 H179 0.931 . S
C169 N167 1.375 . S
C169 C171 1.350 . S
C169 H178 0.930 . S
N170 C168 1.347 . S
N170 C171 1.373 . S
C171 C169 1.350 . S
C171 N170 1.373 . S
C171 H185 0.931 . S
C172 O175 1.256 . S
C172 O176 1.255 . S
O173 Co156 2.021 . S
O173 C166 1.259 . S
O174 Co158 2.117 . S
O174 C166 1.258 . S
O175 Co158 2.020 . S
O175 C172 1.256 . S
O176 Co156 2.062 . S
O176 C172 1.255 . S
O177 C157 1.259 . S
O177 Co158 2.021 . S
H178 C169 0.930 . S
H179 C168 0.931 . S
O180 Co156 2.117 . S
O180 C157 1.258 . S
O181 Co156 2.020 . S
O181 C183 1.256 . S
O182 Co158 2.062 . S
O182 C183 1.255 . S
C183 O181 1.256 . S
C183 O182 1.255 . S
H184 C163 0.931 . S
H185 C171 0.931 . S
Co186 N191 2.057 . S
Co186 O203 2.021 1_455 S
Co186 O206 2.062 1_455 S
Co186 O210 2.117 . S
Co186 O211 2.020 . S
C187 O207 1.259 . S
C187 O210 1.258 . S
Co188 N197 2.057 . S
Co188 O204 2.117 1_455 S
Co188 O205 2.020 1_455 S
Co188 O207 2.021 . S
Co188 O212 2.062 . S
C189 N191 1.316 1_655 S
C189 N192 1.347 1_655 S
C189 H194 0.931 . S
C190 N191 1.375 . S
C190 C193 1.350 . S
C190 H195 0.930 . S
N191 Co186 2.057 . S
N191 C189 1.316 1_455 S
N191 C190 1.375 . S
N192 C189 1.347 1_455 S
N192 C193 1.373 . S
C193 C190 1.350 . S
C193 N192 1.373 . S
C193 H214 0.931 . S
H194 C189 0.931 . S
H195 C190 0.930 . S
C196 O203 1.259 . S
C196 O204 1.258 . S
N197 Co188 2.057 . S
N197 C198 1.316 . S
N197 C199 1.375 1_455 S
C198 N197 1.316 . S
C198 N200 1.347 . S
C198 H209 0.931 . S
C199 N197 1.375 1_655 S
C199 C201 1.350 . S
C199 H208 0.930 . S
N200 C198 1.347 . S
N200 C201 1.373 1_455 S
C201 C199 1.350 . S
C201 N200 1.373 1_655 S
C201 H215 0.931 . S
C202 O205 1.256 . S
C202 O206 1.255 . S
O203 Co186 2.021 1_655 S
O203 C196 1.259 . S
O204 Co188 2.117 1_655 S
O204 C196 1.258 . S
O205 Co188 2.020 1_655 S
O205 C202 1.256 . S
O206 Co186 2.062 1_655 S
O206 C202 1.255 . S
O207 C187 1.259 . S
O207 Co188 2.021 . S
H208 C199 0.930 . S
H209 C198 0.931 . S
O210 Co186 2.117 . S
O210 C187 1.258 . S
O211 Co186 2.020 . S
O211 C213 1.256 . S
O212 Co188 2.062 . S
O212 C213 1.255 . S
C213 O211 1.256 . S
C213 O212 1.255 . S
H214 C193 0.931 . S
H215 C201 0.931 . S
H216 C228 0.930 . S
H217 C230 0.930 . S
H218 C231 0.930 . S
H219 C235 0.959 . S
H220 C235 0.959 . S
H221 C235 0.961 . S
H222 C236 0.960 . S
H223 C236 0.961 . S
H224 C236 0.959 . S
H225 C239 0.929 . S
H226 C240 0.931 . S
H227 C242 0.930 . S
C228 H216 0.930 . S
C228 C229 1.399 1_545 S
C228 C233 1.399 . S
C229 C228 1.399 1_565 S
C229 C230 1.376 . S
C230 H217 0.930 . S
C230 C229 1.376 . S
C230 C231 1.388 . S
C231 H218 0.930 . S
C231 C230 1.388 . S
C231 C232 1.390 . S
C232 C231 1.390 . S
C232 C233 1.394 1_565 S
C232 C238 1.465 . S
C233 C228 1.399 . S
C233 C232 1.394 1_545 S
C233 C234 1.516 . S
C234 C233 1.516 . S
C234 C235 1.502 . S
C234 C236 1.561 . S
C234 C237 1.526 . S
C235 H219 0.959 . S
C235 H220 0.959 . S
C235 H221 0.961 . S
C235 C234 1.502 . S
C236 H222 0.960 . S
C236 H223 0.961 . S
C236 H224 0.959 . S
C236 C234 1.561 . S
C237 C234 1.526 . S
C237 C238 1.396 1_545 S
C237 C242 1.390 . S
C238 C232 1.465 . S
C238 C237 1.396 1_565 S
C238 C239 1.399 . S
C239 H225 0.929 . S
C239 C238 1.399 . S
C239 C240 1.385 . S
C240 H226 0.931 . S
C240 C239 1.385 . S
C240 C241 1.389 . S
C241 C240 1.389 . S
C241 C242 1.387 1_565 S
C242 H227 0.930 . S
C242 C237 1.390 . S
C242 C241 1.387 1_545 S
H243 C255 0.930 . S
H244 C257 0.930 . S
H245 C258 0.930 . S
H246 C262 0.959 . S
H247 C262 0.959 . S
H248 C262 0.961 . S
H249 C263 0.960 . S
H250 C263 0.961 . S
H251 C263 0.959 . S
H252 C266 0.929 . S
H253 C267 0.931 . S
H254 C269 0.930 . S
C255 H243 0.930 . S
C255 C256 1.399 . S
C255 C260 1.399 . S
C256 C255 1.399 . S
C256 C257 1.376 . S
C257 H244 0.930 . S
C257 C256 1.376 . S
C257 C258 1.388 . S
C258 H245 0.930 . S
C258 C257 1.388 . S
C258 C259 1.390 . S
C259 C258 1.390 . S
C259 C260 1.394 . S
C259 C265 1.465 . S
C260 C255 1.399 . S
C260 C259 1.394 . S
C260 C261 1.516 . S
C261 C260 1.516 . S
C261 C262 1.502 . S
C261 C263 1.561 . S
C261 C264 1.526 . S
C262 H246 0.959 . S
C262 H247 0.959 . S
C262 H248 0.961 . S
C262 C261 1.502 . S
C263 H249 0.960 . S
C263 H250 0.961 . S
C263 H251 0.959 . S
C263 C261 1.561 . S
C264 C261 1.526 . S
C264 C265 1.396 . S
C264 C269 1.390 . S
C265 C259 1.465 . S
C265 C264 1.396 . S
C265 C266 1.399 . S
C266 H252 0.929 . S
C266 C265 1.399 . S
C266 C267 1.385 . S
C267 H253 0.931 . S
C267 C266 1.385 . S
C267 C268 1.389 . S
C268 C267 1.389 . S
C268 C269 1.387 . S
C269 H254 0.930 . S
C269 C264 1.390 . S
C269 C268 1.387 . S
H270 C282 0.930 . S
H271 C284 0.930 . S
H272 C285 0.930 . S
H273 C289 0.959 . S
H274 C289 0.959 . S
H275 C289 0.961 . S
H276 C290 0.960 . S
H277 C290 0.961 . S
H278 C290 0.959 . S
H279 C293 0.929 . S
H280 C294 0.931 . S
H281 C296 0.930 . S
C282 H270 0.930 . S
C282 C283 1.399 . S
C282 C287 1.399 . S
C283 C282 1.399 . S
C283 C284 1.376 . S
C284 H271 0.930 . S
C284 C283 1.376 . S
C284 C285 1.388 . S
C285 H272 0.930 . S
C285 C284 1.388 . S
C285 C286 1.390 . S
C286 C285 1.390 . S
C286 C287 1.394 . S
C286 C292 1.465 . S
C287 C282 1.399 . S
C287 C286 1.394 . S
C287 C288 1.516 . S
C288 C287 1.516 . S
C288 C289 1.502 . S
C288 C290 1.561 . S
C288 C291 1.526 . S
C289 H273 0.959 . S
C289 H274 0.959 . S
C289 H275 0.961 . S
C289 C288 1.502 . S
C290 H276 0.960 . S
C290 H277 0.961 . S
C290 H278 0.959 . S
C290 C288 1.561 . S
C291 C288 1.526 . S
C291 C292 1.396 . S
C291 C296 1.390 . S
C292 C286 1.465 . S
C292 C291 1.396 . S
C292 C293 1.399 . S
C293 H279 0.929 . S
C293 C292 1.399 . S
C293 C294 1.385 . S
C294 H280 0.931 . S
C294 C293 1.385 . S
C294 C295 1.389 . S
C295 C294 1.389 . S
C295 C296 1.387 . S
C296 H281 0.930 . S
C296 C291 1.390 . S
C296 C295 1.387 . S
H297 C309 0.930 . S
H298 C311 0.930 . S
H299 C312 0.930 . S
H300 C316 0.959 . S
H301 C316 0.959 . S
H302 C316 0.961 . S
H303 C317 0.960 . S
H304 C317 0.961 . S
H305 C317 0.959 . S
H306 C320 0.929 . S
H307 C321 0.927 1_655 S
H308 C323 0.930 . S
C309 H297 0.930 . S
C309 C310 1.399 . S
C309 C314 1.399 . S
C310 C309 1.399 . S
C310 C311 1.376 . S
C311 H298 0.930 . S
C311 C310 1.376 . S
C311 C312 1.388 . S
C312 H299 0.930 . S
C312 C311 1.388 . S
C312 C313 1.390 . S
C313 C312 1.390 . S
C313 C314 1.394 . S
C313 C319 1.465 . S
C314 C309 1.399 . S
C314 C313 1.394 . S
C314 C315 1.516 . S
C315 C314 1.516 . S
C315 C316 1.502 . S
C315 C317 1.561 . S
C315 C318 1.526 . S
C316 H300 0.959 . S
C316 H301 0.959 . S
C316 H302 0.961 . S
C316 C315 1.502 . S
C317 H303 0.960 . S
C317 H304 0.961 . S
C317 H305 0.959 . S
C317 C315 1.561 . S
C318 C315 1.526 . S
C318 C319 1.396 . S
C318 C323 1.390 . S
C319 C313 1.465 . S
C319 C318 1.396 . S
C319 C320 1.399 . S
C320 H306 0.929 . S
C320 C319 1.399 . S
C320 C321 1.385 . S
C321 H307 0.927 1_455 S
C321 C320 1.385 . S
C321 C322 1.389 . S
C322 C321 1.389 . S
C322 C323 1.387 . S
C323 H308 0.930 . S
C323 C318 1.390 . S
C323 C322 1.387 . S
H324 C336 0.930 . S
H325 C338 0.930 . S
H326 C339 0.930 . S
H327 C343 0.959 . S
H328 C343 0.959 . S
H329 C343 0.961 . S
H330 C344 0.960 1_554 S
H331 C344 0.961 . S
H332 C344 0.959 1_554 S
H333 C347 0.929 . S
H334 C348 0.931 . S
H335 C350 0.930 . S
C336 H324 0.930 . S
C336 C337 1.399 1_545 S
C336 C341 1.399 . S
C337 C336 1.399 1_565 S
C337 C338 1.376 . S
C338 H325 0.930 . S
C338 C337 1.376 . S
C338 C339 1.388 . S
C339 H326 0.930 . S
C339 C338 1.388 . S
C339 C340 1.390 . S
C340 C339 1.390 . S
C340 C341 1.394 1_565 S
C340 C346 1.465 . S
C341 C336 1.399 . S
C341 C340 1.394 1_545 S
C341 C342 1.516 . S
C342 C341 1.516 . S
C342 C343 1.502 . S
C342 C344 1.561 . S
C342 C345 1.526 . S
C343 H327 0.959 . S
C343 H328 0.959 . S
C343 H329 0.961 . S
C343 C342 1.502 . S
C344 H330 0.960 1_556 S
C344 H331 0.961 . S
C344 H332 0.959 1_556 S
C344 C342 1.561 . S
C345 C342 1.526 . S
C345 C346 1.396 1_545 S
C345 C350 1.390 . S
C346 C340 1.465 . S
C346 C345 1.396 1_565 S
C346 C347 1.399 . S
C347 H333 0.929 . S
C347 C346 1.399 . S
C347 C348 1.385 . S
C348 H334 0.931 . S
C348 C347 1.385 . S
C348 C349 1.389 1_565 S
C349 C348 1.389 1_545 S
C349 C350 1.387 . S
C350 H335 0.930 . S
C350 C345 1.390 . S
C350 C349 1.387 . S
H351 C363 0.930 1_554 S
H352 C365 0.930 . S
H353 C366 0.930 . S
H354 C370 0.959 1_554 S
H355 C370 0.959 . S
H356 C370 0.961 . S
H357 C371 0.960 . S
H358 C371 0.961 . S
H359 C371 0.959 . S
H360 C374 0.929 . S
H361 C375 0.931 . S
H362 C377 0.930 . S
C363 H351 0.930 1_556 S
C363 C364 1.399 1_556 S
C363 C368 1.399 . S
C364 C363 1.399 1_554 S
C364 C365 1.376 . S
C365 H352 0.930 . S
C365 C364 1.376 . S
C365 C366 1.388 1_554 S
C366 H353 0.930 . S
C366 C365 1.388 1_556 S
C366 C367 1.390 . S
C367 C366 1.390 . S
C367 C368 1.394 . S
C367 C373 1.465 . S
C368 C363 1.399 . S
C368 C367 1.394 . S
C368 C369 1.516 . S
C369 C368 1.516 . S
C369 C370 1.502 . S
C369 C371 1.561 . S
C369 C372 1.526 . S
C370 H354 0.959 1_556 S
C370 H355 0.959 . S
C370 H356 0.961 . S
C370 C369 1.502 . S
C371 H357 0.960 . S
C371 H358 0.961 . S
C371 H359 0.959 . S
C371 C369 1.561 . S
C372 C369 1.526 . S
C372 C373 1.396 . S
C372 C377 1.390 . S
C373 C367 1.465 . S
C373 C372 1.396 . S
C373 C374 1.399 . S
C374 H360 0.929 . S
C374 C373 1.399 . S
C374 C375 1.385 . S
C375 H361 0.931 . S
C375 C374 1.385 . S
C375 C376 1.389 . S
C376 C375 1.389 . S
C376 C377 1.387 . S
C377 H362 0.930 . S
C377 C372 1.390 . S
C377 C376 1.387 . S
H378 C390 0.930 . S
H379 C392 0.930 . S
H380 C393 0.930 . S
H381 C397 0.959 . S
H382 C397 0.959 1_556 S
H383 C397 0.961 . S
H384 C398 0.960 . S
H385 C398 0.961 . S
H386 C398 0.959 . S
H387 C401 0.929 . S
H388 C402 0.931 . S
H389 C404 0.930 . S
C390 H378 0.930 . S
C390 C391 1.399 . S
C390 C395 1.399 . S
C391 C390 1.399 . S
C391 C392 1.376 . S
C392 H379 0.930 . S
C392 C391 1.376 . S
C392 C393 1.388 . S
C393 H380 0.930 . S
C393 C392 1.388 . S
C393 C394 1.390 . S
C394 C393 1.390 . S
C394 C395 1.394 . S
C394 C400 1.465 1_554 S
C395 C390 1.399 . S
C395 C394 1.394 . S
C395 C396 1.516 1_554 S
C396 C395 1.516 1_556 S
C396 C397 1.502 1_556 S
C396 C398 1.561 . S
C396 C399 1.526 . S
C397 H381 0.959 . S
C397 H382 0.959 1_554 S
C397 H383 0.961 . S
C397 C396 1.502 1_554 S
C398 H384 0.960 . S
C398 H385 0.961 . S
C398 H386 0.959 . S
C398 C396 1.561 . S
C399 C396 1.526 . S
C399 C400 1.396 . S
C399 C404 1.390 . S
C400 C394 1.465 1_556 S
C400 C399 1.396 . S
C400 C401 1.399 . S
C401 H387 0.929 . S
C401 C400 1.399 . S
C401 C402 1.385 . S
C402 H388 0.931 . S
C402 C401 1.385 . S
C402 C403 1.389 . S
C403 C402 1.389 . S
C403 C404 1.387 . S
C404 H389 0.930 . S
C404 C399 1.390 . S
C404 C403 1.387 . S
H405 C417 0.930 . S
H406 C419 0.930 . S
H407 C420 0.930 1_455 S
H408 C424 0.959 . S
H409 C424 0.959 . S
H410 C424 0.961 . S
H411 C425 0.960 . S
H412 C425 0.961 . S
H413 C425 0.959 . S
H414 C428 0.929 . S
H415 C429 0.931 . S
H416 C431 0.930 . S
C417 H405 0.930 . S
C417 C418 1.399 . S
C417 C422 1.399 1_554 S
C418 C417 1.399 . S
C418 C419 1.376 . S
C419 H406 0.930 . S
C419 C418 1.376 . S
C419 C420 1.388 1_554 S
C420 H407 0.930 1_655 S
C420 C419 1.388 1_556 S
C420 C421 1.390 . S
C421 C420 1.390 . S
C421 C422 1.394 . S
C421 C427 1.465 . S
C422 C417 1.399 1_556 S
C422 C421 1.394 . S
C422 C423 1.516 . S
C423 C422 1.516 . S
C423 C424 1.502 1_556 S
C423 C425 1.561 . S
C423 C426 1.526 . S
C424 H408 0.959 . S
C424 H409 0.959 . S
C424 H410 0.961 . S
C424 C423 1.502 1_554 S
C425 H411 0.960 . S
C425 H412 0.961 . S
C425 H413 0.959 . S
C425 C423 1.561 . S
C426 C423 1.526 . S
C426 C427 1.396 . S
C426 C431 1.390 . S
C427 C421 1.465 . S
C427 C426 1.396 . S
C427 C428 1.399 1_655 S
C428 H414 0.929 . S
C428 C427 1.399 1_455 S
C428 C429 1.385 . S
C429 H415 0.931 . S
C429 C428 1.385 . S
C429 C430 1.389 1_455 S
C430 C429 1.389 1_655 S
C430 C431 1.387 . S
C431 H416 0.930 . S
C431 C426 1.390 . S
C431 C430 1.387 . S
H432 C444 0.930 . S
H433 C446 0.930 . S
H434 C447 0.930 . S
H435 C451 0.959 1_655 S
H436 C451 0.959 1_655 S
H437 C451 0.961 . S
H438 C452 0.960 . S
H439 C452 0.961 . S
H440 C452 0.959 . S
H441 C455 0.929 . S
H442 C456 0.931 . S
H443 C458 0.914 1_655 S
C444 H432 0.930 . S
C444 C445 1.399 . S
C444 C449 1.399 . S
C445 C444 1.399 . S
C445 C446 1.376 . S
C446 H433 0.930 . S
C446 C445 1.376 . S
C446 C447 1.388 . S
C447 H434 0.930 . S
C447 C446 1.388 . S
C447 C448 1.390 . S
C448 C447 1.390 . S
C448 C449 1.394 . S
C448 C454 1.465 . S
C449 C444 1.399 . S
C449 C448 1.394 . S
C449 C450 1.516 . S
C450 C449 1.516 . S
C450 C451 1.502 . S
C450 C452 1.561 . S
C450 C453 1.526 . S
C451 H435 0.959 1_455 S
C451 H436 0.959 1_455 S
C451 H437 0.961 . S
C451 C450 1.502 . S
C452 H438 0.960 . S
C452 H439 0.961 . S
C452 H440 0.959 . S
C452 C450 1.561 . S
C453 C450 1.526 . S
C453 C454 1.396 . S
C453 C458 1.390 . S
C454 C448 1.465 . S
C454 C453 1.396 . S
C454 C455 1.399 . S
C455 H441 0.929 . S
C455 C454 1.399 . S
C455 C456 1.385 . S
C456 H442 0.931 . S
C456 C455 1.385 . S
C456 C457 1.389 . S
C457 C456 1.389 . S
C457 C458 1.387 . S
C458 H443 0.914 1_455 S
C458 C453 1.390 . S
C458 C457 1.387 . S
H459 C471 0.930 . S
H460 C473 0.930 . S
H461 C474 0.930 . S
H462 C478 0.959 . S
H463 C478 0.959 . S
H464 C478 0.961 . S
H465 C479 0.960 . S
H466 C479 0.961 . S
H467 C479 0.959 . S
H468 C482 0.929 . S
H469 C483 0.931 . S
H470 C485 0.930 . S
C471 H459 0.930 . S
C471 C472 1.399 1_545 S
C471 C476 1.399 . S
C472 C471 1.399 1_565 S
C472 C473 1.376 . S
C473 H460 0.930 . S
C473 C472 1.376 . S
C473 C474 1.388 . S
C474 H461 0.930 . S
C474 C473 1.388 . S
C474 C475 1.390 . S
C475 C474 1.390 . S
C475 C476 1.394 1_565 S
C475 C481 1.465 . S
C476 C471 1.399 . S
C476 C475 1.394 1_545 S
C476 C477 1.516 . S
C477 C476 1.516 . S
C477 C478 1.502 . S
C477 C479 1.561 . S
C477 C480 1.526 . S
C478 H462 0.959 . S
C478 H463 0.959 . S
C478 H464 0.961 . S
C478 C477 1.502 . S
C479 H465 0.960 . S
C479 H466 0.961 . S
C479 H467 0.959 . S
C479 C477 1.561 . S
C480 C477 1.526 . S
C480 C481 1.396 1_545 S
C480 C485 1.390 . S
C481 C475 1.465 . S
C481 C480 1.396 1_565 S
C481 C482 1.399 . S
C482 H468 0.929 . S
C482 C481 1.399 . S
C482 C483 1.385 . S
C483 H469 0.931 . S
C483 C482 1.385 . S
C483 C484 1.389 . S
C484 C483 1.389 . S
C484 C485 1.387 1_565 S
C485 H470 0.930 . S
C485 C480 1.390 . S
C485 C484 1.387 1_545 S
H486 C498 0.930 . S
H487 C500 0.930 . S
H488 C501 0.930 . S
H489 C505 0.959 . S
H490 C505 0.959 . S
H491 C505 0.961 . S
H492 C506 0.960 . S
H493 C506 0.961 . S
H494 C506 0.959 . S
H495 C509 0.929 . S
H496 C510 0.931 . S
H497 C512 0.930 . S
C498 H486 0.930 . S
C498 C499 1.399 . S
C498 C503 1.399 . S
C499 C498 1.399 . S
C499 C500 1.376 . S
C500 H487 0.930 . S
C500 C499 1.376 . S
C500 C501 1.388 . S
C501 H488 0.930 . S
C501 C500 1.388 . S
C501 C502 1.390 . S
C502 C501 1.390 . S
C502 C503 1.394 . S
C502 C508 1.465 . S
C503 C498 1.399 . S
C503 C502 1.394 . S
C503 C504 1.516 . S
C504 C503 1.516 . S
C504 C505 1.502 . S
C504 C506 1.561 . S
C504 C507 1.526 . S
C505 H489 0.959 . S
C505 H490 0.959 . S
C505 H491 0.961 . S
C505 C504 1.502 . S
C506 H492 0.960 . S
C506 H493 0.961 . S
C506 H494 0.959 . S
C506 C504 1.561 . S
C507 C504 1.526 . S
C507 C508 1.396 . S
C507 C512 1.390 . S
C508 C502 1.465 . S
C508 C507 1.396 . S
C508 C509 1.399 . S
C509 H495 0.929 . S
C509 C508 1.399 . S
C509 C510 1.385 . S
C510 H496 0.931 . S
C510 C509 1.385 . S
C510 C511 1.389 . S
C511 C510 1.389 . S
C511 C512 1.387 . S
C512 H497 0.930 . S
C512 C507 1.390 . S
C512 C511 1.387 . S
H513 C525 0.930 . S
H514 C527 0.930 . S
H515 C528 0.930 . S
H516 C532 0.959 . S
H517 C532 0.959 . S
H518 C532 0.961 . S
H519 C533 0.960 . S
H520 C533 0.961 . S
H521 C533 0.959 . S
H522 C536 0.929 . S
H523 C537 0.931 . S
H524 C539 0.930 . S
C525 H513 0.930 . S
C525 C526 1.399 . S
C525 C530 1.399 . S
C526 C525 1.399 . S
C526 C527 1.376 . S
C527 H514 0.930 . S
C527 C526 1.376 . S
C527 C528 1.388 . S
C528 H515 0.930 . S
C528 C527 1.388 . S
C528 C529 1.390 . S
C529 C528 1.390 . S
C529 C530 1.394 . S
C529 C535 1.465 . S
C530 C525 1.399 . S
C530 C529 1.394 . S
C530 C531 1.516 . S
C531 C530 1.516 . S
C531 C532 1.502 . S
C531 C533 1.561 . S
C531 C534 1.526 . S
C532 H516 0.959 . S
C532 H517 0.959 . S
C532 H518 0.961 . S
C532 C531 1.502 . S
C533 H519 0.960 . S
C533 H520 0.961 . S
C533 H521 0.959 . S
C533 C531 1.561 . S
C534 C531 1.526 . S
C534 C535 1.396 . S
C534 C539 1.390 . S
C535 C529 1.465 . S
C535 C534 1.396 . S
C535 C536 1.399 . S
C536 H522 0.929 . S
C536 C535 1.399 . S
C536 C537 1.385 . S
C537 H523 0.931 . S
C537 C536 1.385 . S
C537 C538 1.389 . S
C538 C537 1.389 . S
C538 C539 1.387 . S
C539 H524 0.930 . S
C539 C534 1.390 . S
C539 C538 1.387 . S
H540 C552 0.930 . S
H541 C554 0.930 . S
H542 C555 0.930 . S
H543 C559 0.959 . S
H544 C559 0.959 . S
H545 C559 0.963 . S
H546 C560 0.960 . S
H547 C560 0.961 . S
H548 C560 0.959 . S
H549 C563 0.929 . S
H550 C564 0.931 . S
H551 C566 0.932 . S
C552 H540 0.930 . S
C552 C553 1.399 1_556 S
C552 C557 1.399 . S
C553 C552 1.399 1_554 S
C553 C554 1.376 . S
C554 H541 0.930 . S
C554 C553 1.376 . S
C554 C555 1.388 . S
C555 H542 0.930 . S
C555 C554 1.388 . S
C555 C556 1.390 . S
C556 C555 1.390 . S
C556 C557 1.394 1_554 S
C556 C562 1.465 1_554 S
C557 C552 1.399 . S
C557 C556 1.394 1_556 S
C557 C558 1.516 . S
C558 C557 1.516 . S
C558 C559 1.502 1_655 S
C558 C560 1.561 . S
C558 C561 1.526 . S
C559 H543 0.959 . S
C559 H544 0.959 . S
C559 H545 0.963 . S
C559 C558 1.502 1_455 S
C560 H546 0.960 . S
C560 H547 0.961 . S
C560 H548 0.959 . S
C560 C558 1.561 . S
C561 C558 1.526 . S
C561 C562 1.396 . S
C561 C566 1.387 1_655 S
C562 C556 1.465 1_556 S
C562 C561 1.396 . S
C562 C563 1.399 1_556 S
C563 H549 0.929 . S
C563 C562 1.399 1_554 S
C563 C564 1.385 1_554 S
C564 H550 0.931 . S
C564 C563 1.385 1_556 S
C564 C565 1.389 1_655 S
C565 C564 1.389 1_455 S
C565 C566 1.387 . S
C566 H551 0.932 . S
C566 C561 1.387 1_455 S
C566 C565 1.387 . S
H567 C579 0.930 . S
H568 C581 0.930 . S
H569 C582 0.930 1_554 S
H570 C586 0.959 . S
H571 C586 0.959 . S
H572 C586 0.961 . S
H573 C587 0.960 . S
H574 C587 0.961 . S
H575 C587 0.959 1_554 S
H576 C590 0.929 . S
H577 C591 0.931 . S
H578 C593 0.930 . S
C579 H567 0.930 . S
C579 C580 1.399 1_565 S
C579 C584 1.399 . S
C580 C579 1.399 1_545 S
C580 C581 1.376 1_556 S
C581 H568 0.930 . S
C581 C580 1.376 1_554 S
C581 C582 1.388 1_554 S
C582 H569 0.930 1_556 S
C582 C581 1.388 1_556 S
C582 C583 1.390 . S
C583 C582 1.390 . S
C583 C584 1.394 1_545 S
C583 C589 1.465 . S
C584 C579 1.399 . S
C584 C583 1.394 1_565 S
C584 C585 1.516 . S
C585 C584 1.516 . S
C585 C586 1.502 . S
C585 C587 1.561 . S
C585 C588 1.526 . S
C586 H570 0.959 . S
C586 H571 0.959 . S
C586 H572 0.961 . S
C586 C585 1.502 . S
C587 H573 0.960 . S
C587 H574 0.961 . S
C587 H575 0.959 1_556 S
C587 C585 1.561 . S
C588 C585 1.526 . S
C588 C589 1.396 1_565 S
C588 C593 1.390 . S
C589 C583 1.465 . S
C589 C588 1.396 1_545 S
C589 C590 1.399 . S
C590 H576 0.929 . S
C590 C589 1.399 . S
C590 C591 1.385 . S
C591 H577 0.931 . S
C591 C590 1.385 . S
C591 C592 1.389 . S
C592 C591 1.389 . S
C592 C593 1.387 1_545 S
C593 H578 0.930 . S
C593 C588 1.390 . S
C593 C592 1.387 1_565 S
H594 C606 0.930 . S
H595 C608 0.930 . S
H596 C609 0.930 . S
H597 C613 0.959 . S
H598 C613 0.959 . S
H599 C613 0.961 . S
H600 C614 0.960 . S
H601 C614 0.961 . S
H602 C614 0.959 . S
H603 C617 0.929 . S
H604 C618 0.931 . S
H605 C620 0.930 . S
C606 H594 0.930 . S
C606 C607 1.399 . S
C606 C611 1.399 . S
C607 C606 1.399 . S
C607 C608 1.376 1_554 S
C608 H595 0.930 . S
C608 C607 1.376 1_556 S
C608 C609 1.388 . S
C609 H596 0.930 . S
C609 C608 1.388 . S
C609 C610 1.390 . S
C610 C609 1.390 . S
C610 C611 1.394 1_556 S
C610 C616 1.465 . S
C611 C606 1.399 . S
C611 C610 1.394 1_554 S
C611 C612 1.516 . S
C612 C611 1.516 . S
C612 C613 1.502 . S
C612 C614 1.561 . S
C612 C615 1.526 1_554 S
C613 H597 0.959 . S
C613 H598 0.959 . S
C613 H599 0.961 . S
C613 C612 1.502 . S
C614 H600 0.960 . S
C614 H601 0.961 . S
C614 H602 0.959 . S
C614 C612 1.561 . S
C615 C612 1.526 1_556 S
C615 C616 1.396 . S
C615 C620 1.390 . S
C616 C610 1.465 . S
C616 C615 1.396 . S
C616 C617 1.399 . S
C617 H603 0.929 . S
C617 C616 1.399 . S
C617 C618 1.385 . S
C618 H604 0.931 . S
C618 C617 1.385 . S
C618 C619 1.389 . S
C619 C618 1.389 . S
C619 C620 1.387 . S
C620 H605 0.930 . S
C620 C615 1.390 . S
C620 C619 1.387 . S
H621 C633 0.930 1_556 S
H622 C635 0.930 . S
H623 C636 0.930 . S
H624 C640 0.959 . S
H625 C640 0.959 . S
H626 C640 0.961 . S
H627 C641 0.960 . S
H628 C641 0.961 . S
H629 C641 0.959 . S
H630 C644 0.929 . S
H631 C645 0.931 . S
H632 C647 0.930 . S
C633 H621 0.930 1_554 S
C633 C634 1.399 . S
C633 C638 1.399 . S
C634 C633 1.399 . S
C634 C635 1.376 . S
C635 H622 0.930 . S
C635 C634 1.376 . S
C635 C636 1.388 . S
C636 H623 0.930 . S
C636 C635 1.388 . S
C636 C637 1.390 . S
C637 C636 1.390 . S
C637 C638 1.394 . S
C637 C643 1.465 . S
C638 C633 1.399 . S
C638 C637 1.394 . S
C638 C639 1.516 1_554 S
C639 C638 1.516 1_556 S
C639 C640 1.502 . S
C639 C641 1.561 . S
C639 C642 1.526 . S
C640 H624 0.959 . S
C640 H625 0.959 . S
C640 H626 0.961 . S
C640 C639 1.502 . S
C641 H627 0.960 . S
C641 H628 0.961 . S
C641 H629 0.959 . S
C641 C639 1.561 . S
C642 C639 1.526 . S
C642 C643 1.396 1_556 S
C642 C647 1.390 . S
C643 C637 1.465 . S
C643 C642 1.396 1_554 S
C643 C644 1.399 . S
C644 H630 0.929 . S
C644 C643 1.399 . S
C644 C645 1.385 1_554 S
C645 H631 0.931 . S
C645 C644 1.385 1_556 S
C645 C646 1.389 . S
C646 C645 1.389 . S
C646 C647 1.387 . S
C647 H632 0.930 . S
C647 C642 1.390 . S
C647 C646 1.387 . S
H648 C660 0.930 . S
H649 C662 0.930 . S
H650 C663 0.930 . S
H651 C667 0.959 . S
H652 C667 0.959 . S
H653 C667 0.961 . S
H654 C668 0.960 . S
H655 C668 0.961 . S
H656 C668 0.959 . S
H657 C671 0.929 . S
H658 C672 0.931 . S
H659 C674 0.930 . S
C660 H648 0.930 . S
C660 C661 1.399 . S
C660 C665 1.399 . S
C661 C660 1.399 . S
C661 C662 1.376 . S
C662 H649 0.930 . S
C662 C661 1.376 . S
C662 C663 1.388 . S
C663 H650 0.930 . S
C663 C662 1.388 . S
C663 C664 1.390 . S
C664 C663 1.390 . S
C664 C665 1.394 . S
C664 C670 1.465 . S
C665 C660 1.399 . S
C665 C664 1.394 . S
C665 C666 1.516 . S
C666 C665 1.516 . S
C666 C667 1.502 . S
C666 C668 1.561 . S
C666 C669 1.526 . S
C667 H651 0.959 . S
C667 H652 0.959 . S
C667 H653 0.961 . S
C667 C666 1.502 . S
C668 H654 0.960 . S
C668 H655 0.961 . S
C668 H656 0.959 . S
C668 C666 1.561 . S
C669 C666 1.526 . S
C669 C670 1.396 . S
C669 C674 1.390 . S
C670 C664 1.465 . S
C670 C669 1.396 . S
C670 C671 1.399 . S
C671 H657 0.929 . S
C671 C670 1.399 . S
C671 C672 1.385 . S
C672 H658 0.931 . S
C672 C671 1.385 . S
C672 C673 1.389 . S
C673 C672 1.389 . S
C673 C674 1.387 . S
C674 H659 0.930 . S
C674 C669 1.390 . S
C674 C673 1.387 . S
H675 C687 0.930 . S
H676 C689 0.930 . S
H677 C690 0.930 . S
H678 C694 0.959 . S
H679 C694 0.959 . S
H680 C694 0.961 . S
H681 C695 0.960 . S
H682 C695 0.961 . S
H683 C695 0.959 . S
H684 C698 0.929 . S
H685 C699 0.931 . S
H686 C701 0.930 . S
C687 H675 0.930 . S
C687 C688 1.380 1_545 S
C687 C692 1.399 . S
C688 C687 1.380 1_565 S
C688 C689 1.402 . S
C689 H676 0.930 . S
C689 C688 1.402 . S
C689 C690 1.388 . S
C690 H677 0.930 . S
C690 C689 1.388 . S
C690 C691 1.390 . S
C691 C690 1.390 . S
C691 C692 1.394 1_565 S
C691 C697 1.465 . S
C692 C687 1.399 . S
C692 C691 1.394 1_545 S
C692 C693 1.516 . S
C693 C692 1.516 . S
C693 C694 1.502 . S
C693 C695 1.561 . S
C693 C696 1.526 . S
C694 H678 0.959 . S
C694 H679 0.959 . S
C694 H680 0.961 . S
C694 C693 1.502 . S
C695 H681 0.960 . S
C695 H682 0.961 . S
C695 H683 0.959 . S
C695 C693 1.561 . S
C696 C693 1.526 . S
C696 C697 1.396 1_545 S
C696 C701 1.390 . S
C697 C691 1.465 . S
C697 C696 1.396 1_565 S
C697 C698 1.399 . S
C698 H684 0.929 . S
C698 C697 1.399 . S
C698 C699 1.385 . S
C699 H685 0.931 . S
C699 C698 1.385 . S
C699 C700 1.389 1_565 S
C700 C699 1.389 1_545 S
C700 C701 1.387 . S
C701 H686 0.930 . S
C701 C696 1.390 . S
C701 C700 1.387 . S
H702 C714 0.930 . S
H703 C716 0.930 . S
H704 C717 0.930 . S
H705 C721 0.959 . S
H706 C721 0.959 . S
H707 C721 0.961 . S
H708 C722 0.960 . S
H709 C722 0.961 . S
H710 C722 0.959 . S
H711 C725 0.929 1_556 S
H712 C726 0.931 . S
H713 C728 0.930 . S
C714 H702 0.930 . S
C714 C715 1.399 . S
C714 C719 1.399 . S
C715 C714 1.399 . S
C715 C716 1.376 . S
C716 H703 0.930 . S
C716 C715 1.376 . S
C716 C717 1.388 . S
C717 H704 0.930 . S
C717 C716 1.388 . S
C717 C718 1.390 . S
C718 C717 1.390 . S
C718 C719 1.394 . S
C718 C724 1.465 . S
C719 C714 1.399 . S
C719 C718 1.394 . S
C719 C720 1.516 . S
C720 C719 1.516 . S
C720 C721 1.502 . S
C720 C722 1.561 . S
C720 C723 1.526 . S
C721 H705 0.959 . S
C721 H706 0.959 . S
C721 H707 0.961 . S
C721 C720 1.502 . S
C722 H708 0.960 . S
C722 H709 0.961 . S
C722 H710 0.959 . S
C722 C720 1.561 . S
C723 C720 1.526 . S
C723 C724 1.396 . S
C723 C728 1.390 . S
C724 C718 1.465 . S
C724 C723 1.396 . S
C724 C725 1.399 . S
C725 H711 0.929 1_554 S
C725 C724 1.399 . S
C725 C726 1.385 1_554 S
C726 H712 0.931 . S
C726 C725 1.385 1_556 S
C726 C727 1.389 . S
C727 C726 1.389 . S
C727 C728 1.387 1_556 S
C728 H713 0.930 . S
C728 C723 1.390 . S
C728 C727 1.387 1_554 S
H729 C741 0.930 . S
H730 C743 0.930 . S
H731 C744 0.930 . S
H732 C748 0.959 . S
H733 C748 0.959 . S
H734 C748 0.961 . S
H735 C749 0.960 . S
H736 C749 0.961 . S
H737 C749 0.959 . S
H738 C752 0.929 . S
H739 C753 0.931 . S
H740 C755 0.930 1_556 S
C741 H729 0.930 . S
C741 C742 1.399 . S
C741 C746 1.399 . S
C742 C741 1.399 . S
C742 C743 1.376 . S
C743 H730 0.930 . S
C743 C742 1.376 . S
C743 C744 1.388 . S
C744 H731 0.930 . S
C744 C743 1.388 . S
C744 C745 1.390 . S
C745 C744 1.390 . S
C745 C746 1.394 . S
C745 C751 1.465 . S
C746 C741 1.399 . S
C746 C745 1.394 . S
C746 C747 1.516 . S
C747 C746 1.516 . S
C747 C748 1.502 . S
C747 C749 1.561 . S
C747 C750 1.526 . S
C748 H732 0.959 . S
C748 H733 0.959 . S
C748 H734 0.961 . S
C748 C747 1.502 . S
C749 H735 0.960 . S
C749 H736 0.961 . S
C749 H737 0.959 . S
C749 C747 1.561 . S
C750 C747 1.526 . S
C750 C751 1.396 . S
C750 C755 1.390 . S
C751 C745 1.465 . S
C751 C750 1.396 . S
C751 C752 1.399 . S
C752 H738 0.929 . S
C752 C751 1.399 . S
C752 C753 1.385 1_554 S
C753 H739 0.931 . S
C753 C752 1.385 1_556 S
C753 C754 1.389 . S
C754 C753 1.389 . S
C754 C755 1.387 1_556 S
C755 H740 0.930 1_554 S
C755 C750 1.390 . S
C755 C754 1.387 1_554 S
H756 C768 0.930 . S
H757 C770 0.930 . S
H758 C771 0.930 . S
H759 C775 0.959 . S
H760 C775 0.959 . S
H761 C775 0.961 . S
H762 C776 0.960 . S
H763 C776 0.961 . S
H764 C776 0.959 . S
H765 C779 0.929 . S
H766 C780 0.931 . S
H767 C782 0.930 . S
C768 H756 0.930 . S
C768 C769 1.399 . S
C768 C773 1.399 . S
C769 C768 1.399 . S
C769 C770 1.376 . S
C770 H757 0.930 . S
C770 C769 1.376 . S
C770 C771 1.388 . S
C771 H758 0.930 . S
C771 C770 1.388 . S
C771 C772 1.390 . S
C772 C771 1.390 . S
C772 C773 1.394 . S
C772 C778 1.465 . S
C773 C768 1.399 . S
C773 C772 1.394 . S
C773 C774 1.516 . S
C774 C773 1.516 . S
C774 C775 1.502 . S
C774 C776 1.561 . S
C774 C777 1.526 . S
C775 H759 0.959 . S
C775 H760 0.959 . S
C775 H761 0.961 . S
C775 C774 1.502 . S
C776 H762 0.960 . S
C776 H763 0.961 . S
C776 H764 0.959 . S
C776 C774 1.561 . S
C777 C774 1.526 . S
C777 C778 1.396 . S
C777 C782 1.390 . S
C778 C772 1.465 . S
C778 C777 1.396 . S
C778 C779 1.399 . S
C779 H765 0.929 . S
C779 C778 1.399 . S
C779 C780 1.385 . S
C780 H766 0.931 . S
C780 C779 1.385 . S
C780 C781 1.389 . S
C781 C780 1.389 . S
C781 C782 1.387 . S
C782 H767 0.930 . S
C782 C777 1.390 . S
C782 C781 1.387 . S
H783 C795 0.930 . S
H784 C797 0.930 . S
H785 C798 0.930 . S
H786 C802 0.959 . S
H787 C802 0.959 . S
H788 C802 0.961 . S
H789 C803 0.960 . S
H790 C803 0.961 . S
H791 C803 0.959 . S
H792 C806 0.929 . S
H793 C807 0.931 . S
H794 C809 0.930 . S
C795 H783 0.930 . S
C795 C796 1.399 1_545 S
C795 C800 1.399 . S
C796 C795 1.399 1_565 S
C796 C797 1.376 . S
C797 H784 0.930 . S
C797 C796 1.376 . S
C797 C798 1.388 . S
C798 H785 0.930 . S
C798 C797 1.388 . S
C798 C799 1.390 . S
C799 C798 1.390 . S
C799 C800 1.394 1_565 S
C799 C805 1.465 . S
C800 C795 1.399 . S
C800 C799 1.394 1_545 S
C800 C801 1.516 . S
C801 C800 1.516 . S
C801 C802 1.502 . S
C801 C803 1.561 . S
C801 C804 1.526 . S
C802 H786 0.959 . S
C802 H787 0.959 . S
C802 H788 0.961 . S
C802 C801 1.502 . S
C803 H789 0.960 . S
C803 H790 0.961 . S
C803 H791 0.959 . S
C803 C801 1.561 . S
C804 C801 1.526 . S
C804 C805 1.396 1_545 S
C804 C809 1.390 . S
C805 C799 1.465 . S
C805 C804 1.396 1_565 S
C805 C806 1.399 . S
C806 H792 0.929 . S
C806 C805 1.399 . S
C806 C807 1.385 . S
C807 H793 0.931 . S
C807 C806 1.385 . S
C807 C808 1.389 . S
C808 C807 1.389 . S
C808 C809 1.387 1_565 S
C809 H794 0.930 . S
C809 C804 1.390 . S
C809 C808 1.387 1_545 S
H810 C822 0.930 . S
H811 C824 0.930 . S
H812 C825 0.930 . S
H813 C829 0.959 . S
H814 C829 0.959 . S
H815 C829 0.961 . S
H816 C830 0.960 . S
H817 C830 0.961 . S
H818 C830 0.959 . S
H819 C833 0.929 . S
H820 C834 0.931 . S
H821 C836 0.930 . S
C822 H810 0.930 . S
C822 C823 1.399 . S
C822 C827 1.399 . S
C823 C822 1.399 . S
C823 C824 1.376 . S
C824 H811 0.930 . S
C824 C823 1.376 . S
C824 C825 1.388 . S
C825 H812 0.930 . S
C825 C824 1.388 . S
C825 C826 1.390 . S
C826 C825 1.390 . S
C826 C827 1.394 . S
C826 C832 1.465 . S
C827 C822 1.399 . S
C827 C826 1.394 . S
C827 C828 1.516 . S
C828 C827 1.516 . S
C828 C829 1.502 . S
C828 C830 1.561 . S
C828 C831 1.526 . S
C829 H813 0.959 . S
C829 H814 0.959 . S
C829 H815 0.961 . S
C829 C828 1.502 . S
C830 H816 0.960 . S
C830 H817 0.961 . S
C830 H818 0.959 . S
C830 C828 1.561 . S
C831 C828 1.526 . S
C831 C832 1.396 . S
C831 C836 1.390 . S
C832 C826 1.465 . S
C832 C831 1.396 . S
C832 C833 1.399 . S
C833 H819 0.929 . S
C833 C832 1.399 . S
C833 C834 1.385 . S
C834 H820 0.931 . S
C834 C833 1.385 . S
C834 C835 1.389 . S
C835 C834 1.389 . S
C835 C836 1.387 . S
C836 H821 0.930 . S
C836 C831 1.390 . S
C836 C835 1.387 . S
H837 C849 0.930 . S
H838 C851 0.930 . S
H839 C852 0.930 . S
H840 C856 0.959 . S
H841 C856 0.959 . S
H842 C856 0.961 . S
H843 C857 0.960 . S
H844 C857 0.961 . S
H845 C857 0.959 . S
H846 C860 0.929 . S
H847 C861 0.931 . S
H848 C863 0.930 . S
C849 H837 0.930 . S
C849 C850 1.399 . S
C849 C854 1.399 . S
C850 C849 1.399 . S
C850 C851 1.376 . S
C851 H838 0.930 . S
C851 C850 1.376 . S
C851 C852 1.388 . S
C852 H839 0.930 . S
C852 C851 1.388 . S
C852 C853 1.390 . S
C853 C852 1.390 . S
C853 C854 1.394 . S
C853 C859 1.465 . S
C854 C849 1.399 . S
C854 C853 1.394 . S
C854 C855 1.516 . S
C855 C854 1.516 . S
C855 C856 1.502 . S
C855 C857 1.561 . S
C855 C858 1.526 . S
C856 H840 0.959 . S
C856 H841 0.959 . S
C856 H842 0.961 . S
C856 C855 1.502 . S
C857 H843 0.960 . S
C857 H844 0.961 . S
C857 H845 0.959 . S
C857 C855 1.561 . S
C858 C855 1.526 . S
C858 C859 1.396 . S
C858 C863 1.390 . S
C859 C853 1.465 . S
C859 C858 1.396 . S
C859 C860 1.399 . S
C860 H846 0.929 . S
C860 C859 1.399 . S
C860 C861 1.385 . S
C861 H847 0.931 . S
C861 C860 1.385 . S
C861 C862 1.389 . S
C862 C861 1.389 . S
C862 C863 1.387 . S
C863 H848 0.930 . S
C863 C858 1.390 . S
C863 C862 1.387 . S
C229 C76 1.664 . S
C241 C106 1.679 . S
C268 C136 1.803 . S
C256 C88 1.739 . S
C295 N170 1.407 . S
C283 C52 1.351 . S
C322 N200 1.415 . S
C310 C64 1.350 . S
C349 C97 1.664 . S
C337 C28 1.663 1_556 S
C364 C40 1.763 . S
C376 C127 1.811 . S
C391 C4 1.363 . S
C403 N162 1.339 . S
C418 C16 1.362 . S
C430 N192 1.404 1_655 S
C457 C112 0.350 . S
C445 C69 0.626 . S
C484 C142 0.783 . S
C472 C81 0.807 1_565 S
C511 C183 1.073 . S
C499 C93 0.987 . S
C526 C57 0.558 . S
C538 C213 0.548 . S
C553 C21 0.520 . S
C565 C123 0.433 . S
C592 C153 0.802 . S
C580 C33 0.686 1_556 S
C619 C172 1.024 . S
C607 C45 1.069 . S
C634 C9 0.526 . S
C646 C202 0.621 . S
C661 C66 1.429 . S
C673 N102 1.442 . S
C688 C78 1.397 1_565 S
C700 N132 1.392 . S
C727 C157 1.645 . S
C715 C90 1.647 . S
C754 C187 1.589 . S
C742 C54 1.571 . S
C769 C18 1.417 . S
C781 N110 1.454 . S
C808 N140 1.451 . S
C796 C30 1.404 1_565 S
C835 C166 1.658 . S
C823 C42 1.588 . S
C850 C6 1.571 . S
C862 C196 1.588 . S
