# Generated by pormake.
# Topology tsx, (6,3)-cn, num edge types: 1
# Building blocks:
#     Node 0, Type 0, BuildingBlock: LEVNOQ01_clean_sbu_1, # of connection points: 6
#     Node 1, Type 0, BuildingBlock: LEVNOQ01_clean_sbu_1, # of connection points: 6
#     Node 2, Type 1, BuildingBlock: BETDIP_clean_linker_0, # of connection points: 3
#     Node 3, Type 1, BuildingBlock: BETDIP_clean_linker_0, # of connection points: 3
#     Node 4, Type 1, BuildingBlock: BETDIP_clean_linker_0, # of connection points: 3
#     Node 5, Type 1, BuildingBlock: BETDIP_clean_linker_0, # of connection points: 3
#     Edge 6, Type (0, 1), BuildingBlock: FUNLAD_clean_linker_1, # of connection points: 2
#     Edge 7, Type (0, 1), BuildingBlock: FUNLAD_clean_linker_1, # of connection points: 2
#     Edge 8, Type (0, 1), BuildingBlock: FUNLAD_clean_linker_1, # of connection points: 2
#     Edge 9, Type (0, 1), BuildingBlock: FUNLAD_clean_linker_1, # of connection points: 2
#     Edge 10, Type (0, 1), BuildingBlock: FUNLAD_clean_linker_1, # of connection points: 2
#     Edge 11, Type (0, 1), BuildingBlock: FUNLAD_clean_linker_1, # of connection points: 2
#     Edge 12, Type (0, 1), BuildingBlock: FUNLAD_clean_linker_1, # of connection points: 2
#     Edge 13, Type (0, 1), BuildingBlock: FUNLAD_clean_linker_1, # of connection points: 2
#     Edge 14, Type (0, 1), BuildingBlock: FUNLAD_clean_linker_1, # of connection points: 2
#     Edge 15, Type (0, 1), BuildingBlock: FUNLAD_clean_linker_1, # of connection points: 2
#     Edge 16, Type (0, 1), BuildingBlock: FUNLAD_clean_linker_1, # of connection points: 2
#     Edge 17, Type (0, 1), BuildingBlock: FUNLAD_clean_linker_1, # of connection points: 2
# Relax obj value: 0.099
# Max RMSD: 0.152
# Mean RMSD: 0.113
data_MOF--net-tsx--node1-LEVNOQ01_clean_sbu_1--node2-BETDIP_clean_linker_0--edge1-FUNLAD_clean_linker_1
_symmetry_space_group_name_H-M    P1
_symmetry_Int_Tables_number       1
_symmetry_cell_setting            triclinic
loop_
_symmetry_equiv_pos_as_xyz
'x, y, z'
_cell_length_a     19.720797
_cell_length_b     23.814347
_cell_length_c     35.722327
_cell_angle_alpha  96.851499
_cell_angle_beta   101.07276
_cell_angle_gamma 90.774261
loop_
_atom_site_label
_atom_site_type_symbol
_atom_site_fract_x
_atom_site_fract_y
_atom_site_fract_z
_atom_type_partial_charge
O0 O 0.15981 0.0184 0.09532 0.0
Mg1 Mg 0.21289 0.02036 0.04936 0.0
O2 O 0.05358 0.00328 0.06006 0.0
Mg3 Mg 0.05775 0.00883 -0.00435 0.0
O4 O 0.15475 0.06582 0.0113 0.0
O5 O 0.26129 0.09394 0.0399 0.0
O6 O 0.06382 0.01549 0.93151 0.0
O7 O 0.99367 0.09148 -0.00058 0.0
Mg8 Mg 0.90669 0.99175 0.93754 0.0
O9 O 0.96137 0.95142 0.97967 0.0
O10 O 0.96239 0.99121 0.89313 0.0
O11 O 0.88855 0.07311 0.9634 0.0
O12 O 0.85782 0.91918 0.94797 0.0
C13 C 0.18148 0.9083 0.00035 0.0
C14 C 0.09531 0.00904 0.09255 0.0
C15 C 0.20469 0.10335 0.017 0.0
C16 C 0.02575 0.00627 0.898 0.0
C17 C 0.93246 0.10669 0.98641 0.0
C18 C 0.91087 0.91458 0.9747 0.0
O19 O 0.22925 0.94101 0.02083 0.0
O20 O 0.11985 0.92504 -0.00904 0.0
O21 O 0.6612 0.51696 0.59239 0.0
Mg22 Mg 0.6926 0.52704 0.5416 0.0
O23 O 0.55645 0.49481 0.55864 0.0
Mg24 Mg 0.55904 0.50696 0.49419 0.0
O25 O 0.646 0.5816 0.50559 0.0
O26 O 0.75086 0.59652 0.54483 0.0
O27 O 0.56188 0.51738 0.43002 0.0
O28 O 0.48056 0.58049 0.49795 0.0
Mg29 Mg 0.41694 0.47341 0.43664 0.0
O30 O 0.47105 0.4375 0.48128 0.0
O31 O 0.46717 0.47978 0.39096 0.0
O32 O 0.37987 0.54889 0.46094 0.0
O33 O 0.37429 0.39781 0.44374 0.0
C34 C 0.69833 0.42132 0.49678 0.0
C35 C 0.59959 0.50062 0.59054 0.0
C36 C 0.70285 0.61252 0.51882 0.0
C37 C 0.52608 0.50439 0.39626 0.0
C38 C 0.41648 0.5869 0.48431 0.0
C39 C 0.42187 0.39856 0.47416 0.0
O40 O 0.73885 0.45915 0.51712 0.0
O41 O 0.63359 0.42957 0.48769 0.0
H42 H 0.1014 0.96851 0.48742 0.0
H43 H 0.01889 0.03533 0.38246 0.0
H44 H 0.17802 0.91375 0.38448 0.0
H45 H 0.01658 0.11462 0.42836 0.0
C46 C 0.98883 0.09268 0.44618 0.0
C47 C 0.10041 0.96985 0.4571 0.0
C48 C 0.14464 0.93621 0.43833 0.0
C49 C 0.0552 0.00566 0.43687 0.0
C50 C 0.05376 0.00735 0.39763 0.0
C51 C 0.0972 0.97358 0.37835 0.0
C52 C 0.14288 0.93857 0.39901 0.0
N53 N 0.01013 0.03886 0.45604 0.0
H54 H 0.96186 0.99033 0.50728 0.0
H55 H 0.06515 0.09365 0.60985 0.0
H56 H 0.87855 -0.00157 0.61032 0.0
H57 H 0.05133 0.15501 0.55358 0.0
C58 C 0.08207 0.12526 0.53907 0.0
C59 C 0.96476 0.00673 0.53713 0.0
C60 C 0.91309 0.99119 0.55637 0.0
C61 C 0.01789 0.04573 0.55606 0.0
C62 C 0.02276 0.0649 0.59517 0.0
C63 C 0.97398 0.04636 0.61525 0.0
C64 C 0.91734 0.01194 0.59515 0.0
N65 N 0.06578 0.06647 0.53566 0.0
H66 H 0.60389 0.47511 0.98053 0.0
H67 H 0.5239 0.55634 0.88085 0.0
H68 H 0.63952 0.406 0.86919 0.0
H69 H 0.56673 0.63653 0.93514 0.0
C70 C 0.5276 0.61928 0.94868 0.0
C71 C 0.5985 0.47717 0.94996 0.0
C72 C 0.62763 0.4359 0.92678 0.0
C73 C 0.56164 0.521 0.93336 0.0
C74 C 0.55351 0.52313 0.89379 0.0
C75 C 0.58235 0.4827 0.8706 0.0
C76 C 0.61858 0.4386 0.8871 0.0
N77 N 0.53044 0.56197 0.95601 0.0
H78 H 0.4838 0.49776 0.00303 0.0
H79 H 0.55261 0.60245 0.11065 0.0
H80 H 0.38962 0.47662 0.09954 0.0
H81 H 0.57307 0.66597 0.07162 0.0
C82 C 0.59499 0.63969 0.05026 0.0
C83 C 0.47911 0.51085 0.03247 0.0
C84 C 0.42944 0.48407 0.04811 0.0
C85 C 0.52158 0.55526 0.05442 0.0
C86 C 0.51794 0.56978 0.09322 0.0
C87 C 0.47148 0.54071 0.1099 0.0
C88 C 0.42529 0.49962 0.08675 0.0
N89 N 0.56923 0.58343 0.03734 0.0
H90 H 0.14478 0.17267 -0.0081 0.0
C91 C 0.19645 0.15807 0.00149 0.0
H92 H 0.30366 0.17788 0.01442 0.0
H93 H 0.31774 0.40769 0.95037 0.0
H94 H 0.32589 0.34825 0.89113 0.0
H95 H 0.29802 0.24563 0.88346 0.0
H96 H 0.26103 0.20189 0.93486 0.0
C97 C 0.25208 0.19309 0.0054 0.0
C98 C 0.24785 0.2551 0.00482 0.0
C99 C 0.26858 0.27997 0.97459 0.0
C100 C 0.28593 0.33883 0.97932 0.0
C101 C 0.30595 0.36281 0.94853 0.0
C102 C 0.31032 0.32927 0.91438 0.0
C103 C 0.29458 0.27147 0.91005 0.0
C104 C 0.27381 0.24686 0.93973 0.0
H105 H 0.41583 0.40022 0.01374 0.0
C106 C 0.38814 0.43481 0.02587 0.0
H107 H 0.29297 0.46442 0.03636 0.0
H108 H 0.20059 0.22197 0.06666 0.0
H109 H 0.18936 0.28138 0.12469 0.0
H110 H 0.22022 0.3834 0.13322 0.0
H111 H 0.26243 0.42633 0.08381 0.0
C112 C 0.31981 0.42913 0.02448 0.0
C113 C 0.28415 0.37224 0.01473 0.0
C114 C 0.25624 0.34851 0.04339 0.0
C115 C 0.2383 0.28971 0.03847 0.0
C116 C 0.21451 0.26635 0.06852 0.0
C117 C 0.20783 0.30002 0.10214 0.0
C118 C 0.22518 0.35742 0.10693 0.0
C119 C 0.2494 0.38155 0.07815 0.0
H120 H 0.15712 0.81984 0.97235 0.0
C121 C 0.19811 0.8493 0.98822 0.0
H122 H 0.30357 0.86117 0.01439 0.0
H123 H 0.41293 0.62994 0.04162 0.0
H124 H 0.39931 0.66566 0.10624 0.0
H125 H 0.33122 0.7501 0.11759 0.0
H126 H 0.27686 0.7993 0.06439 0.0
C127 C 0.26331 0.83199 -0.00262 0.0
C128 C 0.28466 0.773 0.98872 0.0
C129 C 0.31383 0.74351 0.01989 0.0
C130 C 0.35254 0.69466 0.0134 0.0
C131 C 0.3833 0.6673 0.04515 0.0
C132 C 0.37559 0.68728 0.0823 0.0
C133 C 0.33729 0.73481 0.08868 0.0
C134 C 0.30665 0.76278 0.05796 0.0
H135 H 0.47674 0.69725 0.95 0.0
C136 C 0.47443 0.65391 0.95651 0.0
H137 H 0.41351 0.59265 0.97773 0.0
H138 H 0.22975 0.81568 0.92154 0.0
H139 H 0.23558 0.77441 0.85698 0.0
H140 H 0.29637 0.6859 0.84586 0.0
H141 H 0.35299 0.63883 0.89963 0.0
C142 C 0.4171 0.63524 0.9701 0.0
C143 C 0.36194 0.67554 0.9758 0.0
C144 C 0.32541 0.70055 0.94416 0.0
C145 C 0.28789 0.7502 0.95058 0.0
C146 C 0.25696 0.7769 0.9185 0.0
C147 C 0.26014 0.75372 0.88118 0.0
C148 C 0.29453 0.70398 0.87491 0.0
C149 C 0.32707 0.6776 0.90595 0.0
H150 H 0.90378 0.88459 0.02909 0.0
C151 C 0.90921 0.87046 -0.00021 0.0
H152 H 0.89481 0.80508 0.95419 0.0
H153 H 0.77344 0.71601 0.10321 0.0
H154 H 0.89158 0.72506 0.13916 0.0
H155 H 0.98592 0.75932 0.11017 0.0
H156 H 0.96217 0.7875 0.04599 0.0
C157 C 0.88846 0.81776 0.98352 0.0
C158 C 0.8358 0.78609 -0.00165 0.0
C159 C 0.8507 0.76938 0.03573 0.0
C160 C 0.79675 0.74758 0.05175 0.0
C161 C 0.81265 0.73234 0.08951 0.0
C162 C 0.88021 0.73725 0.11043 0.0
C163 C 0.93325 0.75692 0.09426 0.0
C164 C 0.91895 0.77308 0.05743 0.0
H165 H 0.66687 0.63619 0.01212 0.0
C166 C 0.64668 0.66212 0.03436 0.0
H167 H 0.65547 0.74291 0.06998 0.0
H168 H 0.78898 0.80984 0.924 0.0
H169 H 0.67266 0.79596 0.8875 0.0
H170 H 0.57946 0.75821 0.91569 0.0
H171 H 0.60292 0.73424 0.98083 0.0
C172 C 0.67286 0.71736 0.04656 0.0
C173 C 0.72865 0.74069 0.02983 0.0
C174 C 0.71405 0.75516 -0.00814 0.0
C175 C 0.76776 0.77748 0.9759 0.0
C176 C 0.75113 0.79225 0.93793 0.0
C177 C 0.68409 0.7847 0.91648 0.0
C178 C 0.63167 0.76342 0.93231 0.0
C179 C 0.64603 0.74929 0.96964 0.0
H180 H 0.94805 0.19412 0.01744 0.0
C181 C 0.91219 0.1653 -0.0032 0.0
H182 H 0.81466 0.15429 0.95951 0.0
H183 H 0.6408 0.34456 0.01623 0.0
H184 H 0.59542 0.26612 0.04302 0.0
H185 H 0.6563 0.17635 0.04547 0.0
H186 H 0.76276 0.16436 0.02111 0.0
C187 C 0.85095 0.18352 0.97959 0.0
C188 C 0.82644 0.24176 0.98736 0.0
C189 C 0.76566 0.2488 0.00291 0.0
C190 C 0.73068 0.30053 0.00168 0.0
C191 C 0.66902 0.30588 0.01636 0.0
C192 C 0.64263 0.26133 0.0319 0.0
C193 C 0.6769 0.21078 0.03326 0.0
C194 C 0.73775 0.20437 0.01904 0.0
H195 H 0.66178 0.34813 0.92371 0.0
C196 C 0.66616 0.38822 0.94232 0.0
H197 H 0.72229 0.43397 -0.00629 0.0
H198 H 0.94338 0.24388 0.95618 0.0
H199 H 0.98906 0.32309 0.93086 0.0
H200 H 0.93017 0.41384 0.93099 0.0
H201 H 0.82454 0.42558 0.95627 0.0
C202 C 0.7124 0.39362 0.97556 0.0
C203 C 0.75664 0.34519 0.98505 0.0
C204 C 0.82026 0.33993 0.97228 0.0
C205 C 0.85492 0.28788 0.97295 0.0
C206 C 0.91568 0.28265 0.95733 0.0
C207 C 0.94239 0.32782 0.94252 0.0
C208 C 0.90918 0.3789 0.94254 0.0
C209 C 0.84866 0.38507 0.95708 0.0
H210 H 0.77368 0.6729 0.50442 0.0
C211 C 0.71885 0.66404 0.50302 0.0
H212 H 0.62106 0.70022 0.49831 0.0
H213 H 0.82782 0.89981 0.59163 0.0
H214 H 0.7576 0.88135 0.63742 0.0
H215 H 0.6604 0.8109 0.61973 0.0
H216 H 0.63463 0.75752 0.55612 0.0
C217 C 0.67499 0.70574 0.49635 0.0
C218 C 0.70682 0.76353 0.4986 0.0
C219 C 0.71628 0.79873 0.53419 0.0
C220 C 0.76934 0.84201 0.54344 0.0
C221 C 0.78462 0.87006 0.58158 0.0
C222 C 0.74537 0.85904 0.60858 0.0
C223 C 0.69094 0.81919 0.5987 0.0
C224 C 0.67678 0.78884 0.56212 0.0
H225 H 0.80297 0.96441 0.53964 0.0
C226 C 0.85494 0.95192 0.53724 0.0
H227 H 0.91777 0.88465 0.52368 0.0
H228 H 0.69475 0.70861 0.42631 0.0
H229 H 0.76252 0.72828 0.37872 0.0
H230 H 0.85041 0.80665 0.39295 0.0
H231 H 0.87145 0.86564 0.45466 0.0
C232 C 0.86563 0.89786 0.52502 0.0
C233 C 0.80828 0.85381 0.51538 0.0
C234 C 0.79503 0.82116 0.47866 0.0
C235 C 0.74436 0.77598 0.47034 0.0
C236 C 0.73335 0.74295 0.43394 0.0
C237 C 0.77152 0.75401 0.40643 0.0
C238 C 0.82096 0.79819 0.41444 0.0
C239 C 0.83262 0.83166 0.45001 0.0
H240 H 0.78487 0.37041 0.48587 0.0
C241 C 0.72934 0.3682 0.48486 0.0
H242 H 0.64164 0.31247 0.47751 0.0
H243 H 0.83657 0.1551 0.3829 0.0
H244 H 0.74577 0.17472 0.33025 0.0
H245 H 0.65046 0.23622 0.34222 0.0
H246 H 0.64528 0.27825 0.40714 0.0
C247 C 0.69664 0.31729 0.47793 0.0
C248 C 0.73893 0.26685 0.47232 0.0
C249 C 0.74015 0.24151 0.43466 0.0
C250 C 0.79542 0.2066 0.42781 0.0
C251 C 0.79625 0.18266 0.38967 0.0
C252 C 0.74433 0.1934 0.35923 0.0
C253 C 0.69065 0.22801 0.36597 0.0
C254 C 0.68836 0.25199 0.40323 0.0
H255 H 0.9045 0.09538 0.47653 0.0
C256 C 0.93315 0.11785 0.45943 0.0
H257 H 0.94096 0.19237 0.43172 0.0
H258 H 0.74196 0.2985 0.54854 0.0
H259 H 0.83138 0.278 0.60189 0.0
H260 H 0.93053 0.22098 0.59009 0.0
H261 H 0.94052 0.18391 0.52524 0.0
C262 C 0.91331 0.17124 0.44999 0.0
C263 C 0.84922 0.19721 0.45874 0.0
C264 C 0.84443 0.21821 0.49697 0.0
C265 C 0.7884 0.25235 0.50374 0.0
C266 C 0.78446 0.27328 0.54202 0.0
C267 C 0.83515 0.26166 0.57278 0.0
C268 C 0.89089 0.22947 0.56614 0.0
C269 C 0.89589 0.20816 0.52874 0.0
H270 H 0.38109 0.38747 0.52435 0.0
C271 C 0.4078 0.36477 0.50365 0.0
H272 H 0.42486 0.28738 0.47389 0.0
H273 H 0.19998 0.24893 0.59308 0.0
H274 H 0.27866 0.30496 0.64455 0.0
H275 H 0.38648 0.34601 0.63323 0.0
H276 H 0.42002 0.32766 0.57114 0.0
C277 C 0.39813 0.30839 0.4952 0.0
C278 C 0.33683 0.27815 0.50397 0.0
C279 C 0.32299 0.28283 0.54188 0.0
C280 C 0.26047 0.25885 0.5485 0.0
C281 C 0.24624 0.26655 0.58619 0.0
C282 C 0.29121 0.29825 0.61618 0.0
C283 C 0.35249 0.32088 0.60987 0.0
C284 C 0.36984 0.31153 0.57369 0.0
H285 H 0.16983 0.11584 0.51159 0.0
C286 C 0.13619 0.14546 0.52388 0.0
H287 H 0.11393 0.23288 0.53771 0.0
H288 H 0.34107 0.26486 0.42628 0.0
H289 H 0.2576 0.21435 0.37493 0.0
H290 H 0.15281 0.16895 0.38777 0.0
H291 H 0.13097 0.17473 0.45246 0.0
C292 C 0.14836 0.20376 0.52559 0.0
C293 C 0.21349 0.22775 0.51785 0.0
C294 C 0.22702 0.2224 0.48011 0.0
C295 C 0.28824 0.24806 0.47298 0.0
C296 C 0.29752 0.24484 0.43431 0.0
C297 C 0.24936 0.21624 0.40415 0.0
C298 C 0.19034 0.19074 0.41135 0.0
C299 C 0.17878 0.19401 0.44875 0.0
H300 H 0.32633 0.638 0.48755 0.0
C301 C 0.38259 0.64023 0.49276 0.0
H302 H 0.47057 0.69444 0.49923 0.0
H303 H 0.27766 0.84802 0.3923 0.0
H304 H 0.35971 0.81539 0.35284 0.0
H305 H 0.4488 0.74859 0.37494 0.0
H306 H 0.45685 0.71472 0.43686 0.0
C307 C 0.41495 0.69117 0.4973 0.0
C308 C 0.3722 0.74087 0.48855 0.0
C309 C 0.36934 0.76142 0.45266 0.0
C310 C 0.31698 0.79892 0.43958 0.0
C311 C 0.31518 0.81845 0.40341 0.0
C312 C 0.36227 0.80028 0.38047 0.0
C313 C 0.41247 0.76276 0.39293 0.0
C314 C 0.41637 0.74355 0.42858 0.0
H315 H 0.2239 0.91859 0.48822 0.0
C316 C 0.19523 0.90076 0.46012 0.0
H317 H 0.17771 0.83068 0.4173 0.0
H318 H 0.37174 0.7173 0.56122 0.0
H319 H 0.28697 0.74659 0.60029 0.0
H320 H 0.19031 0.80546 0.57579 0.0
H321 H 0.17837 0.83623 0.51272 0.0
C322 C 0.20745 0.8482 0.44522 0.0
C323 C 0.26696 0.81535 0.46218 0.0
C324 C 0.27173 0.79672 0.4989 0.0
C325 C 0.32556 0.76057 0.5124 0.0
C326 C 0.33052 0.74346 0.54939 0.0
C327 C 0.28247 0.76011 0.57206 0.0
C328 C 0.2282 0.79343 0.55831 0.0
C329 C 0.22235 0.81132 0.52211 0.0
H330 H 0.01301 -0.00134 0.12593 0.0
C331 C 0.06838 0.00462 0.12792 0.0
H332 H 0.1667 0.01494 0.16459 0.0
H333 H 0.0805 0.10064 0.31923 0.0
H334 H 0.1252 0.18824 0.30306 0.0
H335 H 0.15126 0.19363 0.23868 0.0
H336 H 0.13322 0.11142 0.19021 0.0
C337 C 0.11145 0.00756 0.16226 0.0
C338 C 0.08668 0.00559 0.19875 0.0
C339 C 0.09599 0.05448 0.22636 0.0
C340 C 0.08048 0.05159 0.26329 0.0
C341 C 0.09147 0.10064 0.29068 0.0
C342 C 0.11696 0.15119 0.28176 0.0
C343 C 0.13169 0.1542 0.24553 0.0
C344 C 0.1213 0.10662 0.21801 0.0
H345 H 0.1444 0.96066 0.3268 0.0
C346 C 0.09879 0.97589 0.33722 0.0
H347 H 0.99959 0.00957 0.32038 0.0
H348 H 0.06584 0.90293 0.15322 0.0
H349 H 0.02121 0.81593 0.17001 0.0
H350 H 0.98877 0.81262 0.23296 0.0
H351 H 0.00288 0.89626 0.28026 0.0
C352 C 0.04731 -0.00458 0.31224 0.0
C353 C 0.05577 -0.00012 0.27243 0.0
C354 C 0.04395 0.95159 0.24451 0.0
C355 C 0.0604 0.9541 0.2077 0.0
C356 C 0.05226 0.90412 0.18121 0.0
C357 C 0.0268 0.85376 0.19047 0.0
C358 C 0.00883 0.85182 0.22603 0.0
C359 C 0.01731 0.90003 0.2529 0.0
H360 H 0.10924 0.02602 0.86728 0.0
C361 C 0.05415 0.01689 0.86412 0.0
H362 H 0.95604 0.01223 0.82719 0.0
H363 H 0.01905 0.16418 0.70801 0.0
H364 H 0.97673 0.23618 0.75125 0.0
H365 H 0.96167 0.21652 0.81553 0.0
H366 H 0.98905 0.12492 0.83703 0.0
C367 C 0.01157 0.01867 0.8301 0.0
C368 C 0.03556 0.03422 0.79584 0.0
C369 C 0.02043 0.08817 0.78411 0.0
C370 C 0.02862 0.0994 0.74708 0.0
C371 C 0.01266 0.1534 0.73575 0.0
C372 C 0.98869 0.19507 0.76032 0.0
C373 C 0.98023 0.184 0.79652 0.0
C374 C 0.99588 0.13125 0.80845 0.0
H375 H 0.93743 0.05521 0.67021 0.0
C376 C 0.98306 0.05853 0.65751 0.0
H377 H 0.09261 0.06138 0.66902 0.0
H378 H 0.07421 0.92794 0.81104 0.0
H379 H 0.11797 0.8567 0.76822 0.0
H380 H 0.1331 0.87641 0.704 0.0
H381 H 0.10435 0.96732 0.68218 0.0
C382 C 0.0457 0.06296 0.68074 0.0
C383 C 0.05138 0.05645 0.72195 0.0
C384 C 0.07161 0.004 0.7348 0.0
C385 C 0.06324 -0.0073 0.77183 0.0
C386 C 0.08014 0.93889 0.78329 0.0
C387 C 0.10525 0.8976 0.75898 0.0
C388 C 0.11376 0.90869 0.72283 0.0
C389 C 0.09707 0.96111 0.71068 0.0
H390 H 0.62043 0.4472 0.63605 0.0
C391 C 0.58449 0.47788 0.62433 0.0
H392 H 0.51306 0.53847 0.63696 0.0
H393 H 0.57594 0.36847 0.77831 0.0
H394 H 0.52492 0.29111 0.73028 0.0
H395 H 0.48842 0.30598 0.66248 0.0
H396 H 0.49831 0.3995 0.64243 0.0
C397 C 0.54395 0.50354 0.64653 0.0
C398 C 0.55775 0.49528 0.68793 0.0
C399 C 0.54775 0.44101 0.69927 0.0
C400 C 0.56964 0.43199 0.73827 0.0
C401 C 0.56008 0.37748 0.74898 0.0
C402 C 0.53102 0.33271 0.72173 0.0
C403 C 0.51017 0.34124 0.68354 0.0
C404 C 0.51702 0.39489 0.67237 0.0
H405 H 0.52645 0.50959 0.81651 0.0
C406 C 0.57147 0.48739 0.8291 0.0
H407 H 0.66302 0.44836 0.81811 0.0
H408 H 0.59167 0.60315 0.67557 0.0
H409 H 0.65335 0.67678 0.72292 0.0
H410 H 0.69138 0.66023 0.79051 0.0
H411 H 0.66798 0.56954 0.81102 0.0
C412 C 0.61613 0.46914 0.80688 0.0
C413 C 0.60088 0.47706 0.76574 0.0
C414 C 0.61346 0.53055 0.75441 0.0
C415 C 0.59146 0.53991 0.71548 0.0
C416 C 0.60643 0.59351 0.70478 0.0
C417 C 0.64201 0.63627 0.7317 0.0
C418 C 0.6634 0.62698 0.76975 0.0
C419 C 0.64932 0.57486 0.78116 0.0
H420 H 0.60597 0.53054 0.36488 0.0
C421 C 0.5513 0.52057 0.36266 0.0
H422 H 0.45136 0.51516 0.32767 0.0
H423 H 0.54196 0.66587 0.20919 0.0
H424 H 0.53676 0.7451 0.25822 0.0
H425 H 0.52776 0.72882 0.32408 0.0
H426 H 0.52384 0.63318 0.34139 0.0
C427 C 0.50626 0.52392 0.3297 0.0
C428 C 0.5278 0.53491 0.29378 0.0
C429 C 0.53113 0.59096 0.28453 0.0
C430 C 0.53626 0.60038 0.24663 0.0
C431 C 0.53804 0.65659 0.23766 0.0
C432 C 0.53513 0.70232 0.26549 0.0
C433 C 0.53 0.69314 0.30259 0.0
C434 C 0.52775 0.63815 0.31214 0.0
H435 H 0.42933 0.53376 0.16222 0.0
C436 C 0.47425 0.54813 0.15192 0.0
H437 H 0.5805 0.57426 0.16891 0.0
H438 H 0.52975 0.42265 0.30369 0.0
H439 H 0.53978 0.34386 0.25549 0.0
H440 H 0.5515 0.36033 0.19008 0.0
H441 H 0.55263 0.45557 0.17243 0.0
C442 C 0.5331 0.56241 0.17764 0.0
C443 C 0.5376 0.55367 0.21835 0.0
C444 C 0.53987 0.49786 0.22846 0.0
C445 C 0.53424 0.48844 0.2662 0.0
C446 C 0.53397 0.43217 0.27534 0.0
C447 C 0.53991 0.38658 0.24799 0.0
C448 C 0.54646 0.39585 0.21117 0.0
C449 C 0.54665 0.45073 0.20137 0.0
loop_
_geom_bond_atom_site_label_1
_geom_bond_atom_site_label_2
_geom_bond_distance
_geom_bond_site_symmetry_2
_ccdc_geom_bond_type
O0 Mg1 1.990 . S
O0 C14 1.253 . S
Mg1 O0 1.990 . S
Mg1 O4 2.180 . S
Mg1 O5 2.117 . S
Mg1 O19 2.030 1_545 S
O2 Mg3 2.072 1_554 S
O2 C14 1.260 . S
Mg3 O2 2.072 1_556 S
Mg3 O4 2.099 1_556 S
Mg3 O6 2.079 . S
Mg3 O7 2.072 1_556 S
Mg3 O9 2.099 1_445 S
Mg3 O20 2.079 1_545 S
O4 Mg1 2.180 . S
O4 Mg3 2.099 1_554 S
O4 C15 1.279 . S
O5 Mg1 2.117 . S
O5 C15 1.250 . S
O6 Mg3 2.079 . S
O6 C16 1.264 . S
O7 Mg3 2.072 1_554 S
O7 C17 1.256 1_454 S
Mg8 O9 2.180 . S
Mg8 O10 2.030 1_565 S
Mg8 O11 1.990 1_565 S
Mg8 O12 2.117 . S
O9 Mg3 2.099 1_665 S
O9 Mg8 2.180 . S
O9 C18 1.279 . S
O10 Mg8 2.030 1_545 S
O10 C16 1.248 1_655 S
O11 Mg8 1.990 1_545 S
O11 C17 1.253 . S
O12 Mg8 2.117 . S
O12 C18 1.250 . S
C13 O19 1.248 . S
C13 O20 1.264 1_554 S
C14 O0 1.253 . S
C14 O2 1.260 . S
C15 O4 1.279 . S
C15 O5 1.250 . S
C16 O6 1.264 . S
C16 O10 1.248 1_455 S
C17 O7 1.256 1_656 S
C17 O11 1.253 . S
C18 O9 1.279 . S
C18 O12 1.250 . S
O19 Mg1 2.030 1_565 S
O19 C13 1.248 . S
O20 Mg3 2.079 1_565 S
O20 C13 1.264 1_556 S
O21 Mg22 1.990 . S
O21 C35 1.253 . S
Mg22 O21 1.990 . S
Mg22 O25 2.180 . S
Mg22 O26 2.117 . S
Mg22 O40 2.030 . S
O23 Mg24 2.072 . S
O23 C35 1.260 . S
Mg24 O23 2.072 . S
Mg24 O25 2.099 . S
Mg24 O27 2.079 . S
Mg24 O28 2.072 . S
Mg24 O30 2.099 . S
Mg24 O41 2.079 . S
O25 Mg22 2.180 . S
O25 Mg24 2.099 . S
O25 C36 1.279 . S
O26 Mg22 2.117 . S
O26 C36 1.250 . S
O27 Mg24 2.079 . S
O27 C37 1.264 . S
O28 Mg24 2.072 . S
O28 C38 1.260 . S
Mg29 O30 2.180 . S
Mg29 O31 2.030 . S
Mg29 O32 1.990 . S
Mg29 O33 2.117 . S
O30 Mg24 2.099 . S
O30 Mg29 2.180 . S
O30 C39 1.279 . S
O31 Mg29 2.030 . S
O31 C37 1.248 . S
O32 Mg29 1.990 . S
O32 C38 1.253 . S
O33 Mg29 2.117 . S
O33 C39 1.250 . S
C34 O40 1.248 . S
C34 O41 1.264 . S
C35 O21 1.253 . S
C35 O23 1.260 . S
C36 O25 1.279 . S
C36 O26 1.250 . S
C37 O27 1.264 . S
C37 O31 1.248 . S
C38 O28 1.260 . S
C38 O32 1.253 . S
C39 O30 1.279 . S
C39 O33 1.250 . S
O40 Mg22 2.030 . S
O40 C34 1.248 . S
O41 Mg24 2.079 . S
O41 C34 1.264 . S
H42 C47 0.930 . S
H43 C50 0.930 . S
H44 C52 0.930 . S
H45 C46 1.016 . S
C46 H45 1.016 . S
C46 N53 1.287 . S
C47 H42 0.930 . S
C47 C48 1.397 . S
C47 C49 1.361 1_565 S
C48 C47 1.397 . S
C48 C52 1.390 . S
C49 C47 1.361 1_545 S
C49 C50 1.393 . S
C49 N53 1.410 1_455 S
C50 H43 0.930 . S
C50 C49 1.393 . S
C50 C51 1.399 1_545 S
C51 C50 1.399 1_565 S
C51 C52 1.381 . S
C52 H44 0.930 . S
C52 C48 1.390 . S
C52 C51 1.381 . S
N53 C46 1.287 . S
N53 C49 1.410 1_655 S
H54 C59 0.930 . S
H55 C62 0.930 . S
H56 C64 0.930 1_565 S
H57 C58 1.016 . S
C58 H57 1.016 . S
C58 N65 1.286 . S
C59 H54 0.930 . S
C59 C60 1.397 1_545 S
C59 C61 1.361 1_655 S
C60 C59 1.397 1_565 S
C60 C64 1.390 1_565 S
C61 C59 1.361 1_455 S
C61 C62 1.393 . S
C61 N65 1.413 . S
C62 H55 0.930 . S
C62 C61 1.393 . S
C62 C63 1.399 1_455 S
C63 C62 1.399 1_655 S
C63 C64 1.381 . S
C64 H56 0.930 1_545 S
C64 C60 1.390 1_545 S
C64 C63 1.381 . S
N65 C58 1.286 . S
N65 C61 1.413 . S
H66 C71 0.930 . S
H67 C74 0.930 . S
H68 C76 0.930 . S
H69 C70 1.016 . S
C70 H69 1.016 . S
C70 N77 1.286 . S
C71 H66 0.930 . S
C71 C72 1.397 . S
C71 C73 1.361 . S
C72 C71 1.397 . S
C72 C76 1.390 . S
C73 C71 1.361 . S
C73 C74 1.393 . S
C73 N77 1.413 . S
C74 H67 0.930 . S
C74 C73 1.393 . S
C74 C75 1.399 . S
C75 C74 1.399 . S
C75 C76 1.381 . S
C76 H68 0.930 . S
C76 C72 1.390 . S
C76 C75 1.381 . S
N77 C70 1.286 . S
N77 C73 1.413 . S
H78 C83 0.930 . S
H79 C86 0.930 . S
H80 C88 0.930 . S
H81 C82 1.016 . S
C82 H81 1.016 . S
C82 N89 1.286 . S
C83 H78 0.930 . S
C83 C84 1.397 . S
C83 C85 1.361 . S
C84 C83 1.397 . S
C84 C88 1.390 . S
C85 C83 1.361 . S
C85 C86 1.393 . S
C85 N89 1.413 . S
C86 H79 0.930 . S
C86 C85 1.393 . S
C86 C87 1.399 . S
C87 C86 1.399 . S
C87 C88 1.381 . S
C88 H80 0.930 . S
C88 C84 1.390 . S
C88 C87 1.381 . S
N89 C82 1.286 . S
N89 C85 1.413 . S
H90 C91 0.951 . S
C91 H90 0.951 . S
C91 C97 1.265 . S
H92 C97 0.950 . S
H93 C101 0.949 . S
H94 C102 0.950 . S
H95 C103 0.951 . S
H96 C104 0.951 . S
C97 C91 1.265 . S
C97 H92 0.950 . S
C97 C98 1.478 . S
C98 C97 1.478 . S
C98 C99 1.397 1_554 S
C98 C115 1.394 . S
C99 C98 1.397 1_556 S
C99 C100 1.437 . S
C99 C104 1.429 . S
C100 C99 1.437 . S
C100 C101 1.441 . S
C100 C113 1.381 1_556 S
C101 H93 0.949 . S
C101 C100 1.441 . S
C101 C102 1.345 . S
C102 H94 0.950 . S
C102 C101 1.345 . S
C102 C103 1.424 . S
C103 H95 0.951 . S
C103 C102 1.424 . S
C103 C104 1.347 . S
C104 H96 0.951 . S
C104 C99 1.429 . S
C104 C103 1.347 . S
H105 C106 0.951 . S
C106 H105 0.951 . S
C106 C112 1.265 . S
H107 C112 0.950 . S
H108 C116 0.949 . S
H109 C117 0.950 . S
H110 C118 0.951 . S
H111 C119 0.951 . S
C112 C106 1.265 . S
C112 H107 0.950 . S
C112 C113 1.478 . S
C113 C100 1.381 1_554 S
C113 C112 1.478 . S
C113 C114 1.397 . S
C114 C113 1.397 . S
C114 C115 1.438 . S
C114 C119 1.429 . S
C115 C98 1.394 . S
C115 C114 1.438 . S
C115 C116 1.428 . S
C116 H108 0.949 . S
C116 C115 1.428 . S
C116 C117 1.345 . S
C117 H109 0.950 . S
C117 C116 1.345 . S
C117 C118 1.424 . S
C118 H110 0.951 . S
C118 C117 1.424 . S
C118 C119 1.347 . S
C119 H111 0.951 . S
C119 C114 1.429 . S
C119 C118 1.347 . S
H120 C121 0.951 1_556 S
C121 H120 0.951 1_554 S
C121 C127 1.265 . S
H122 C127 0.950 . S
H123 C131 0.949 . S
H124 C132 0.950 . S
H125 C133 0.951 . S
H126 C134 0.951 . S
C127 C121 1.265 . S
C127 H122 0.950 . S
C127 C128 1.478 . S
C128 C127 1.478 . S
C128 C129 1.397 . S
C128 C145 1.394 1_554 S
C129 C128 1.397 . S
C129 C130 1.438 . S
C129 C134 1.429 . S
C130 C129 1.438 . S
C130 C131 1.428 . S
C130 C143 1.394 1_554 S
C131 H123 0.949 . S
C131 C130 1.428 . S
C131 C132 1.345 . S
C132 H124 0.950 . S
C132 C131 1.345 . S
C132 C133 1.424 . S
C133 H125 0.951 . S
C133 C132 1.424 . S
C133 C134 1.347 . S
C134 H126 0.951 . S
C134 C129 1.429 . S
C134 C133 1.347 . S
H135 C136 0.951 1_554 S
C136 H135 0.951 1_556 S
C136 C142 1.265 . S
H137 C142 0.950 . S
H138 C146 0.949 . S
H139 C147 0.950 . S
H140 C148 0.951 . S
H141 C149 0.951 . S
C142 C136 1.265 . S
C142 H137 0.950 . S
C142 C143 1.478 . S
C143 C130 1.394 1_556 S
C143 C142 1.478 . S
C143 C144 1.397 . S
C144 C143 1.397 . S
C144 C145 1.438 . S
C144 C149 1.429 . S
C145 C128 1.394 1_556 S
C145 C144 1.438 . S
C145 C146 1.428 . S
C146 H138 0.949 . S
C146 C145 1.428 . S
C146 C147 1.345 . S
C147 H139 0.950 . S
C147 C146 1.345 . S
C147 C148 1.424 . S
C148 H140 0.951 . S
C148 C147 1.424 . S
C148 C149 1.347 . S
C149 H141 0.951 . S
C149 C144 1.429 . S
C149 C148 1.347 . S
H150 C151 0.951 . S
C151 H150 0.951 . S
C151 C157 1.265 . S
H152 C157 0.950 . S
H153 C161 0.949 . S
H154 C162 0.950 . S
H155 C163 0.951 . S
H156 C164 0.951 . S
C157 C151 1.265 . S
C157 H152 0.950 . S
C157 C158 1.478 . S
C158 C157 1.478 . S
C158 C159 1.397 . S
C158 C175 1.394 1_554 S
C159 C158 1.397 . S
C159 C160 1.438 . S
C159 C164 1.429 . S
C160 C159 1.438 . S
C160 C161 1.428 . S
C160 C173 1.394 . S
C161 H153 0.949 . S
C161 C160 1.428 . S
C161 C162 1.345 . S
C162 H154 0.950 . S
C162 C161 1.345 . S
C162 C163 1.424 . S
C163 H155 0.951 . S
C163 C162 1.424 . S
C163 C164 1.347 . S
C164 H156 0.951 . S
C164 C159 1.429 . S
C164 C163 1.347 . S
H165 C166 0.951 . S
C166 H165 0.951 . S
C166 C172 1.265 . S
H167 C172 0.950 . S
H168 C176 0.949 . S
H169 C177 0.950 . S
H170 C178 0.951 . S
H171 C179 0.951 . S
C172 C166 1.265 . S
C172 H167 0.950 . S
C172 C173 1.478 . S
C173 C160 1.394 . S
C173 C172 1.478 . S
C173 C174 1.397 1_554 S
C174 C173 1.397 1_556 S
C174 C175 1.438 . S
C174 C179 1.429 . S
C175 C158 1.394 1_556 S
C175 C174 1.438 . S
C175 C176 1.428 . S
C176 H168 0.949 . S
C176 C175 1.428 . S
C176 C177 1.345 . S
C177 H169 0.950 . S
C177 C176 1.345 . S
C177 C178 1.424 . S
C178 H170 0.951 . S
C178 C177 1.424 . S
C178 C179 1.347 . S
C179 H171 0.951 . S
C179 C174 1.429 . S
C179 C178 1.347 . S
H180 C181 0.951 1_554 S
C181 H180 0.951 1_556 S
C181 C187 1.265 . S
H182 C187 0.950 . S
H183 C191 0.949 . S
H184 C192 0.950 . S
H185 C193 0.951 . S
H186 C194 0.951 . S
C187 C181 1.265 . S
C187 H182 0.950 . S
C187 C188 1.478 . S
C188 C187 1.478 . S
C188 C189 1.397 . S
C188 C205 1.394 . S
C189 C188 1.397 . S
C189 C190 1.438 . S
C189 C194 1.429 1_556 S
C190 C189 1.438 . S
C190 C191 1.428 1_556 S
C190 C203 1.394 . S
C191 H183 0.949 . S
C191 C190 1.428 1_554 S
C191 C192 1.345 . S
C192 H184 0.950 . S
C192 C191 1.345 . S
C192 C193 1.424 . S
C193 H185 0.951 . S
C193 C192 1.424 . S
C193 C194 1.347 . S
C194 H186 0.951 . S
C194 C189 1.429 1_554 S
C194 C193 1.347 . S
H195 C196 0.951 . S
C196 H195 0.951 . S
C196 C202 1.265 . S
H197 C202 0.950 . S
H198 C206 0.949 . S
H199 C207 0.950 . S
H200 C208 0.951 . S
H201 C209 0.951 . S
C202 C196 1.265 . S
C202 H197 0.950 . S
C202 C203 1.478 . S
C203 C190 1.394 . S
C203 C202 1.478 . S
C203 C204 1.397 . S
C204 C203 1.397 . S
C204 C205 1.438 . S
C204 C209 1.429 . S
C205 C188 1.394 . S
C205 C204 1.438 . S
C205 C206 1.428 . S
C206 H198 0.949 . S
C206 C205 1.428 . S
C206 C207 1.345 . S
C207 H199 0.950 . S
C207 C206 1.345 . S
C207 C208 1.424 . S
C208 H200 0.951 . S
C208 C207 1.424 . S
C208 C209 1.347 . S
C209 H201 0.951 . S
C209 C204 1.429 . S
C209 C208 1.347 . S
H210 C211 0.951 . S
C211 H210 0.951 . S
C211 C217 1.265 . S
H212 C217 0.950 . S
H213 C221 0.949 . S
H214 C222 0.950 . S
H215 C223 0.951 . S
H216 C224 0.951 . S
C217 C211 1.265 . S
C217 H212 0.950 . S
C217 C218 1.478 . S
C218 C217 1.478 . S
C218 C219 1.397 . S
C218 C235 1.394 . S
C219 C218 1.397 . S
C219 C220 1.438 . S
C219 C224 1.429 . S
C220 C219 1.438 . S
C220 C221 1.428 . S
C220 C233 1.394 . S
C221 H213 0.949 . S
C221 C220 1.428 . S
C221 C222 1.345 . S
C222 H214 0.950 . S
C222 C221 1.345 . S
C222 C223 1.424 . S
C223 H215 0.951 . S
C223 C222 1.424 . S
C223 C224 1.347 . S
C224 H216 0.951 . S
C224 C219 1.429 . S
C224 C223 1.347 . S
H225 C226 0.951 . S
C226 H225 0.951 . S
C226 C232 1.265 . S
H227 C232 0.950 . S
H228 C236 0.949 . S
H229 C237 0.950 . S
H230 C238 0.951 . S
H231 C239 0.951 . S
C232 C226 1.265 . S
C232 H227 0.950 . S
C232 C233 1.478 . S
C233 C220 1.394 . S
C233 C232 1.478 . S
C233 C234 1.397 . S
C234 C233 1.397 . S
C234 C235 1.438 . S
C234 C239 1.429 . S
C235 C218 1.394 . S
C235 C234 1.438 . S
C235 C236 1.428 . S
C236 H228 0.949 . S
C236 C235 1.428 . S
C236 C237 1.345 . S
C237 H229 0.950 . S
C237 C236 1.345 . S
C237 C238 1.424 . S
C238 H230 0.951 . S
C238 C237 1.424 . S
C238 C239 1.347 . S
C239 H231 0.951 . S
C239 C234 1.429 . S
C239 C238 1.347 . S
H240 C241 0.951 . S
C241 H240 0.951 . S
C241 C247 1.265 . S
H242 C247 0.950 . S
H243 C251 0.949 . S
H244 C252 0.950 . S
H245 C253 0.951 . S
H246 C254 0.951 . S
C247 C241 1.265 . S
C247 H242 0.950 . S
C247 C248 1.478 . S
C248 C247 1.478 . S
C248 C249 1.397 . S
C248 C265 1.394 . S
C249 C248 1.397 . S
C249 C250 1.438 . S
C249 C254 1.429 . S
C250 C249 1.438 . S
C250 C251 1.428 . S
C250 C263 1.394 . S
C251 H243 0.949 . S
C251 C250 1.428 . S
C251 C252 1.345 . S
C252 H244 0.950 . S
C252 C251 1.345 . S
C252 C253 1.424 . S
C253 H245 0.951 . S
C253 C252 1.424 . S
C253 C254 1.347 . S
C254 H246 0.951 . S
C254 C249 1.429 . S
C254 C253 1.347 . S
H255 C256 0.951 . S
C256 H255 0.951 . S
C256 C262 1.265 . S
H257 C262 0.950 . S
H258 C266 0.949 . S
H259 C267 0.950 . S
H260 C268 0.951 . S
H261 C269 0.951 . S
C262 C256 1.265 . S
C262 H257 0.950 . S
C262 C263 1.478 . S
C263 C250 1.394 . S
C263 C262 1.478 . S
C263 C264 1.397 . S
C264 C263 1.397 . S
C264 C265 1.438 . S
C264 C269 1.429 . S
C265 C248 1.394 . S
C265 C264 1.438 . S
C265 C266 1.428 . S
C266 H258 0.949 . S
C266 C265 1.428 . S
C266 C267 1.345 . S
C267 H259 0.950 . S
C267 C266 1.345 . S
C267 C268 1.424 . S
C268 H260 0.951 . S
C268 C267 1.424 . S
C268 C269 1.347 . S
C269 H261 0.951 . S
C269 C264 1.429 . S
C269 C268 1.347 . S
H270 C271 0.951 . S
C271 H270 0.951 . S
C271 C277 1.265 . S
H272 C277 0.950 . S
H273 C281 0.949 . S
H274 C282 0.950 . S
H275 C283 0.951 . S
H276 C284 0.951 . S
C277 C271 1.265 . S
C277 H272 0.950 . S
C277 C278 1.478 . S
C278 C277 1.478 . S
C278 C279 1.397 . S
C278 C295 1.394 . S
C279 C278 1.397 . S
C279 C280 1.438 . S
C279 C284 1.429 . S
C280 C279 1.438 . S
C280 C281 1.428 . S
C280 C293 1.394 . S
C281 H273 0.949 . S
C281 C280 1.428 . S
C281 C282 1.345 . S
C282 H274 0.950 . S
C282 C281 1.345 . S
C282 C283 1.424 . S
C283 H275 0.951 . S
C283 C282 1.424 . S
C283 C284 1.347 . S
C284 H276 0.951 . S
C284 C279 1.429 . S
C284 C283 1.347 . S
H285 C286 0.951 . S
C286 H285 0.951 . S
C286 C292 1.265 . S
H287 C292 0.950 . S
H288 C296 0.949 . S
H289 C297 0.950 . S
H290 C298 0.951 . S
H291 C299 0.951 . S
C292 C286 1.265 . S
C292 H287 0.950 . S
C292 C293 1.478 . S
C293 C280 1.394 . S
C293 C292 1.478 . S
C293 C294 1.397 . S
C294 C293 1.397 . S
C294 C295 1.438 . S
C294 C299 1.429 . S
C295 C278 1.394 . S
C295 C294 1.438 . S
C295 C296 1.428 . S
C296 H288 0.949 . S
C296 C295 1.428 . S
C296 C297 1.345 . S
C297 H289 0.950 . S
C297 C296 1.345 . S
C297 C298 1.424 . S
C298 H290 0.951 . S
C298 C297 1.424 . S
C298 C299 1.347 . S
C299 H291 0.951 . S
C299 C294 1.429 . S
C299 C298 1.347 . S
H300 C301 0.951 . S
C301 H300 0.951 . S
C301 C307 1.265 . S
H302 C307 0.950 . S
H303 C311 0.949 . S
H304 C312 0.950 . S
H305 C313 0.951 . S
H306 C314 0.951 . S
C307 C301 1.265 . S
C307 H302 0.950 . S
C307 C308 1.478 . S
C308 C307 1.478 . S
C308 C309 1.397 . S
C308 C325 1.394 . S
C309 C308 1.397 . S
C309 C310 1.438 . S
C309 C314 1.429 . S
C310 C309 1.438 . S
C310 C311 1.428 . S
C310 C323 1.394 . S
C311 H303 0.949 . S
C311 C310 1.428 . S
C311 C312 1.345 . S
C312 H304 0.950 . S
C312 C311 1.345 . S
C312 C313 1.424 . S
C313 H305 0.951 . S
C313 C312 1.424 . S
C313 C314 1.347 . S
C314 H306 0.951 . S
C314 C309 1.429 . S
C314 C313 1.347 . S
H315 C316 0.951 . S
C316 H315 0.951 . S
C316 C322 1.265 . S
H317 C322 0.950 . S
H318 C326 0.949 . S
H319 C327 0.950 . S
H320 C328 0.951 . S
H321 C329 0.951 . S
C322 C316 1.265 . S
C322 H317 0.950 . S
C322 C323 1.478 . S
C323 C310 1.394 . S
C323 C322 1.478 . S
C323 C324 1.397 . S
C324 C323 1.397 . S
C324 C325 1.438 . S
C324 C329 1.429 . S
C325 C308 1.394 . S
C325 C324 1.438 . S
C325 C326 1.428 . S
C326 H318 0.949 . S
C326 C325 1.428 . S
C326 C327 1.345 . S
C327 H319 0.950 . S
C327 C326 1.345 . S
C327 C328 1.424 . S
C328 H320 0.951 . S
C328 C327 1.424 . S
C328 C329 1.347 . S
C329 H321 0.951 . S
C329 C324 1.429 . S
C329 C328 1.347 . S
H330 C331 0.949 1_565 S
C331 H330 0.949 1_545 S
C331 C337 1.264 . S
H332 C337 0.950 . S
H333 C341 0.949 . S
H334 C342 0.950 . S
H335 C343 0.951 . S
H336 C344 0.951 . S
C337 C331 1.264 . S
C337 H332 0.950 . S
C337 C338 1.479 . S
C338 C337 1.479 . S
C338 C339 1.399 . S
C338 C355 1.391 1_545 S
C339 C338 1.399 . S
C339 C340 1.438 . S
C339 C344 1.429 . S
C340 C339 1.438 . S
C340 C341 1.428 . S
C340 C353 1.394 1_545 S
C341 H333 0.949 . S
C341 C340 1.428 . S
C341 C342 1.345 . S
C342 H334 0.950 . S
C342 C341 1.345 . S
C342 C343 1.424 . S
C343 H335 0.951 . S
C343 C342 1.424 . S
C343 C344 1.347 . S
C344 H336 0.951 . S
C344 C339 1.429 . S
C344 C343 1.347 . S
H345 C346 0.951 . S
C346 H345 0.951 . S
C346 C352 1.265 . S
H347 C352 0.950 . S
H348 C356 0.949 . S
H349 C357 0.950 . S
H350 C358 0.951 1_655 S
H351 C359 0.951 . S
C352 C346 1.265 . S
C352 H347 0.950 . S
C352 C353 1.478 . S
C353 C340 1.394 1_565 S
C353 C352 1.478 . S
C353 C354 1.397 . S
C354 C353 1.397 . S
C354 C355 1.438 . S
C354 C359 1.429 . S
C355 C338 1.391 1_565 S
C355 C354 1.438 . S
C355 C356 1.428 . S
C356 H348 0.949 . S
C356 C355 1.428 . S
C356 C357 1.345 . S
C357 H349 0.950 . S
C357 C356 1.345 . S
C357 C358 1.424 . S
C358 H350 0.951 1_455 S
C358 C357 1.424 . S
C358 C359 1.347 . S
C359 H351 0.951 . S
C359 C354 1.429 . S
C359 C358 1.347 . S
H360 C361 0.951 . S
C361 H360 0.951 . S
C361 C367 1.265 1_455 S
H362 C367 0.950 . S
H363 C371 0.949 . S
H364 C372 0.950 . S
H365 C373 0.951 . S
H366 C374 0.951 . S
C367 C361 1.265 1_655 S
C367 H362 0.950 . S
C367 C368 1.478 1_655 S
C368 C367 1.478 1_455 S
C368 C369 1.397 1_455 S
C368 C385 1.394 1_545 S
C369 C368 1.397 1_655 S
C369 C370 1.438 . S
C369 C374 1.429 . S
C370 C369 1.438 . S
C370 C371 1.428 . S
C370 C383 1.394 1_655 S
C371 H363 0.949 . S
C371 C370 1.428 . S
C371 C372 1.345 . S
C372 H364 0.950 . S
C372 C371 1.345 . S
C372 C373 1.424 . S
C373 H365 0.951 . S
C373 C372 1.424 . S
C373 C374 1.347 . S
C374 H366 0.951 . S
C374 C369 1.429 . S
C374 C373 1.347 . S
H375 C376 0.951 . S
C376 H375 0.951 . S
C376 C382 1.265 1_655 S
H377 C382 0.950 . S
H378 C386 0.949 . S
H379 C387 0.950 . S
H380 C388 0.951 . S
H381 C389 0.951 . S
C382 C376 1.265 1_455 S
C382 H377 0.950 . S
C382 C383 1.478 . S
C383 C370 1.394 1_455 S
C383 C382 1.478 . S
C383 C384 1.397 1_545 S
C384 C383 1.397 1_565 S
C384 C385 1.438 . S
C384 C389 1.429 . S
C385 C368 1.394 1_565 S
C385 C384 1.438 . S
C385 C386 1.428 . S
C386 H378 0.949 . S
C386 C385 1.428 . S
C386 C387 1.345 . S
C387 H379 0.950 . S
C387 C386 1.345 . S
C387 C388 1.424 . S
C388 H380 0.951 . S
C388 C387 1.424 . S
C388 C389 1.347 . S
C389 H381 0.951 . S
C389 C384 1.429 . S
C389 C388 1.347 . S
H390 C391 0.951 . S
C391 H390 0.951 . S
C391 C397 1.265 . S
H392 C397 0.950 . S
H393 C401 0.949 . S
H394 C402 0.950 . S
H395 C403 0.951 . S
H396 C404 0.951 . S
C397 C391 1.265 . S
C397 H392 0.950 . S
C397 C398 1.478 . S
C398 C397 1.478 . S
C398 C399 1.397 . S
C398 C415 1.394 . S
C399 C398 1.397 . S
C399 C400 1.438 . S
C399 C404 1.429 . S
C400 C399 1.438 . S
C400 C401 1.428 . S
C400 C413 1.394 . S
C401 H393 0.949 . S
C401 C400 1.428 . S
C401 C402 1.345 . S
C402 H394 0.950 . S
C402 C401 1.345 . S
C402 C403 1.424 . S
C403 H395 0.951 . S
C403 C402 1.424 . S
C403 C404 1.347 . S
C404 H396 0.951 . S
C404 C399 1.429 . S
C404 C403 1.347 . S
H405 C406 0.951 . S
C406 H405 0.951 . S
C406 C412 1.265 . S
H407 C412 0.950 . S
H408 C416 0.949 . S
H409 C417 0.950 . S
H410 C418 0.951 . S
H411 C419 0.951 . S
C412 C406 1.265 . S
C412 H407 0.950 . S
C412 C413 1.478 . S
C413 C400 1.394 . S
C413 C412 1.478 . S
C413 C414 1.397 . S
C414 C413 1.397 . S
C414 C415 1.438 . S
C414 C419 1.429 . S
C415 C398 1.394 . S
C415 C414 1.438 . S
C415 C416 1.428 . S
C416 H408 0.949 . S
C416 C415 1.428 . S
C416 C417 1.345 . S
C417 H409 0.950 . S
C417 C416 1.345 . S
C417 C418 1.424 . S
C418 H410 0.951 . S
C418 C417 1.424 . S
C418 C419 1.347 . S
C419 H411 0.951 . S
C419 C414 1.429 . S
C419 C418 1.347 . S
H420 C421 0.951 . S
C421 H420 0.951 . S
C421 C427 1.265 . S
H422 C427 0.950 . S
H423 C431 0.949 . S
H424 C432 0.950 . S
H425 C433 0.951 . S
H426 C434 0.951 . S
C427 C421 1.265 . S
C427 H422 0.950 . S
C427 C428 1.478 . S
C428 C427 1.478 . S
C428 C429 1.397 . S
C428 C445 1.394 . S
C429 C428 1.397 . S
C429 C430 1.438 . S
C429 C434 1.429 . S
C430 C429 1.438 . S
C430 C431 1.428 . S
C430 C443 1.394 . S
C431 H423 0.949 . S
C431 C430 1.428 . S
C431 C432 1.345 . S
C432 H424 0.950 . S
C432 C431 1.345 . S
C432 C433 1.424 . S
C433 H425 0.951 . S
C433 C432 1.424 . S
C433 C434 1.347 . S
C434 H426 0.951 . S
C434 C429 1.429 . S
C434 C433 1.347 . S
H435 C436 0.951 . S
C436 H435 0.951 . S
C436 C442 1.265 . S
H437 C442 0.950 . S
H438 C446 0.949 . S
H439 C447 0.950 . S
H440 C448 0.951 . S
H441 C449 0.951 . S
C442 C436 1.265 . S
C442 H437 0.950 . S
C442 C443 1.478 . S
C443 C430 1.394 . S
C443 C442 1.478 . S
C443 C444 1.397 . S
C444 C443 1.397 . S
C444 C445 1.438 . S
C444 C449 1.429 . S
C445 C428 1.394 . S
C445 C444 1.438 . S
C445 C446 1.428 . S
C446 H438 0.949 . S
C446 C445 1.428 . S
C446 C447 1.345 . S
C447 H439 0.950 . S
C447 C446 1.345 . S
C447 C448 1.424 . S
C448 H440 0.951 . S
C448 C447 1.424 . S
C448 C449 1.347 . S
C449 H441 0.951 . S
C449 C444 1.429 . S
C449 C448 1.347 . S
C106 C84 1.425 . S
C91 C15 1.357 . S
C121 C13 1.443 . S
C136 C70 1.385 . S
C151 C18 1.190 1_554 S
C166 C82 1.406 . S
C181 C17 1.462 . S
C196 C72 1.432 . S
C211 C36 1.250 . S
C226 C60 1.464 . S
C241 C34 1.367 . S
C256 C46 1.382 . S
C286 C58 1.392 . S
C271 C39 1.174 . S
C316 C48 1.455 . S
C301 C38 1.371 . S
C331 C14 1.604 . S
C346 C51 1.612 . S
C361 C16 1.425 . S
C376 C63 1.410 . S
C406 C75 1.614 . S
C391 C35 1.543 . S
C421 C37 1.420 . S
C436 C87 1.418 . S
