# Generated by pormake.
# Topology pyr, (3,6)-cn, num edge types: 1
# Building blocks:
#     Node 0, Type 0, BuildingBlock: MIDCAF_clean_linker_0, # of connection points: 3
#     Node 1, Type 0, BuildingBlock: MIDCAF_clean_linker_0, # of connection points: 3
#     Node 2, Type 0, BuildingBlock: MIDCAF_clean_linker_0, # of connection points: 3
#     Node 3, Type 0, BuildingBlock: MIDCAF_clean_linker_0, # of connection points: 3
#     Node 4, Type 0, BuildingBlock: MIDCAF_clean_linker_0, # of connection points: 3
#     Node 5, Type 0, BuildingBlock: MIDCAF_clean_linker_0, # of connection points: 3
#     Node 6, Type 0, BuildingBlock: MIDCAF_clean_linker_0, # of connection points: 3
#     Node 7, Type 0, BuildingBlock: MIDCAF_clean_linker_0, # of connection points: 3
#     Node 8, Type 1, BuildingBlock: LEVNOQ01_clean_sbu_1, # of connection points: 6
#     Node 9, Type 1, BuildingBlock: LEVNOQ01_clean_sbu_1, # of connection points: 6
#     Node 10, Type 1, BuildingBlock: LEVNOQ01_clean_sbu_1, # of connection points: 6
#     Node 11, Type 1, BuildingBlock: LEVNOQ01_clean_sbu_1, # of connection points: 6
#     Edge 12, Type (0, 1), BuildingBlock: TEMPAE_clean_linker_10, # of connection points: 2
#     Edge 13, Type (0, 1), BuildingBlock: TEMPAE_clean_linker_10, # of connection points: 2
#     Edge 14, Type (0, 1), BuildingBlock: TEMPAE_clean_linker_10, # of connection points: 2
#     Edge 15, Type (0, 1), BuildingBlock: TEMPAE_clean_linker_10, # of connection points: 2
#     Edge 16, Type (0, 1), BuildingBlock: TEMPAE_clean_linker_10, # of connection points: 2
#     Edge 17, Type (0, 1), BuildingBlock: TEMPAE_clean_linker_10, # of connection points: 2
#     Edge 18, Type (0, 1), BuildingBlock: TEMPAE_clean_linker_10, # of connection points: 2
#     Edge 19, Type (0, 1), BuildingBlock: TEMPAE_clean_linker_10, # of connection points: 2
#     Edge 20, Type (0, 1), BuildingBlock: TEMPAE_clean_linker_10, # of connection points: 2
#     Edge 21, Type (0, 1), BuildingBlock: TEMPAE_clean_linker_10, # of connection points: 2
#     Edge 22, Type (0, 1), BuildingBlock: TEMPAE_clean_linker_10, # of connection points: 2
#     Edge 23, Type (0, 1), BuildingBlock: TEMPAE_clean_linker_10, # of connection points: 2
#     Edge 24, Type (0, 1), BuildingBlock: TEMPAE_clean_linker_10, # of connection points: 2
#     Edge 25, Type (0, 1), BuildingBlock: TEMPAE_clean_linker_10, # of connection points: 2
#     Edge 26, Type (0, 1), BuildingBlock: TEMPAE_clean_linker_10, # of connection points: 2
#     Edge 27, Type (0, 1), BuildingBlock: TEMPAE_clean_linker_10, # of connection points: 2
#     Edge 28, Type (0, 1), BuildingBlock: TEMPAE_clean_linker_10, # of connection points: 2
#     Edge 29, Type (0, 1), BuildingBlock: TEMPAE_clean_linker_10, # of connection points: 2
#     Edge 30, Type (0, 1), BuildingBlock: TEMPAE_clean_linker_10, # of connection points: 2
#     Edge 31, Type (0, 1), BuildingBlock: TEMPAE_clean_linker_10, # of connection points: 2
#     Edge 32, Type (0, 1), BuildingBlock: TEMPAE_clean_linker_10, # of connection points: 2
#     Edge 33, Type (0, 1), BuildingBlock: TEMPAE_clean_linker_10, # of connection points: 2
#     Edge 34, Type (0, 1), BuildingBlock: TEMPAE_clean_linker_10, # of connection points: 2
#     Edge 35, Type (0, 1), BuildingBlock: TEMPAE_clean_linker_10, # of connection points: 2
# Relax obj value: 0.035
# Max RMSD: 0.111
# Mean RMSD: 0.047
data_MOF--net-pry--node1-LEVNOQ01_clean_sbu_1--node2-MIDCAF_clean_linker_0--edge1-TEMPAE_clean_linker_10
_symmetry_space_group_name_H-M    P1
_symmetry_Int_Tables_number       1
_symmetry_cell_setting            triclinic
loop_
_symmetry_equiv_pos_as_xyz
'x, y, z'
_cell_length_a     45.913389
_cell_length_b     44.280572
_cell_length_c     44.183222
_cell_angle_alpha  92.329235
_cell_angle_beta   91.486648
_cell_angle_gamma 94.285266
loop_
_atom_site_label
_atom_site_type_symbol
_atom_site_fract_x
_atom_site_fract_y
_atom_site_fract_z
_atom_type_partial_charge
C0 C 0.0898 0.12335 0.2239 0.0
C1 C 0.10934 0.11153 0.24471 0.0
C2 C 0.13843 0.10916 0.23615 0.0
C3 C 0.14749 0.11751 0.2075 0.0
H4 H 0.20371 0.0899 0.14269 0.0
H5 H 0.24783 0.06934 0.1241 0.0
H6 H 0.24302 0.12298 0.04489 0.0
H7 H 0.1991 0.14413 0.06371 0.0
H8 H 0.15718 0.19911 0.0665 0.0
H9 H 0.13612 0.24051 0.04085 0.0
H10 H 0.05862 0.2283 0.0935 0.0
H11 H 0.07971 0.18699 0.11955 0.0
H12 H 0.08338 0.14093 0.17983 0.0
H13 H 0.06711 0.1251 0.22929 0.0
H14 H 0.15439 0.10091 0.25161 0.0
H15 H 0.17003 0.11513 0.20177 0.0
N16 N 0.16156 0.12491 0.14453 0.0
N17 N 0.15788 0.1533 0.1012 0.0
N18 N 0.12403 0.15778 0.13984 0.0
C19 C 0.17163 0.13255 0.11702 0.0
C20 C 0.13406 0.16601 0.11235 0.0
C21 C 0.13784 0.13732 0.15614 0.0
C22 C 0.19783 0.11893 0.10487 0.0
C23 C 0.21191 0.09731 0.12124 0.0
C24 C 0.23716 0.08528 0.11045 0.0
C25 C 0.24905 0.09451 0.083 0.0
C26 C 0.23467 0.11565 0.06631 0.0
C27 C 0.20938 0.1277 0.07708 0.0
C28 C 0.12023 0.18976 0.0953 0.0
C29 C 0.13551 0.20496 0.07247 0.0
C30 C 0.12351 0.22876 0.05777 0.0
C31 C 0.09573 0.23761 0.06512 0.0
C32 C 0.07997 0.22177 0.08714 0.0
C33 C 0.09217 0.19826 0.10223 0.0
C34 C 0.12792 0.12906 0.18669 0.0
C35 C 0.09905 0.13225 0.19536 0.0
C36 C 0.27748 0.9334 0.58717 0.0
C37 C 0.26567 0.91839 0.56047 0.0
C38 C 0.28191 0.89697 0.54551 0.0
C39 C 0.30934 0.89066 0.55705 0.0
H40 H 0.37028 0.83009 0.54845 0.0
H41 H 0.39163 0.78507 0.52893 0.0
H42 H 0.46542 0.80349 0.59133 0.0
H43 H 0.44363 0.84835 0.61165 0.0
H44 H 0.44174 0.90511 0.66179 0.0
H45 H 0.45927 0.9303 0.70986 0.0
H46 H 0.37702 0.97058 0.71867 0.0
H47 H 0.35939 0.94564 0.67095 0.0
H48 H 0.31308 0.93901 0.61944 0.0
H49 H 0.26529 0.94965 0.59954 0.0
H50 H 0.2735 0.88523 0.52476 0.0
H51 H 0.32124 0.87399 0.54494 0.0
N52 N 0.36446 0.87599 0.58365 0.0
N53 N 0.40191 0.88425 0.6209 0.0
N54 N 0.36152 0.91371 0.62181 0.0
C55 C 0.39046 0.86869 0.59557 0.0
C56 C 0.38751 0.90688 0.63412 0.0
C57 C 0.34988 0.89848 0.59654 0.0
C58 C 0.40505 0.84281 0.58192 0.0
C59 C 0.3912 0.82483 0.55793 0.0
C60 C 0.40357 0.79904 0.54649 0.0
C61 C 0.43021 0.79058 0.55858 0.0
C62 C 0.44465 0.80914 0.58179 0.0
C63 C 0.43219 0.83493 0.59337 0.0
C64 C 0.39909 0.92318 0.66247 0.0
C65 C 0.42746 0.9195 0.67384 0.0
C66 C 0.4376 0.93411 0.70125 0.0
C67 C 0.41949 0.95241 0.71795 0.0
C68 C 0.39139 0.95649 0.70634 0.0
C69 C 0.38136 0.9422 0.6789 0.0
C70 C 0.32112 0.90563 0.58383 0.0
C71 C 0.30486 0.92715 0.59868 0.0
C72 C 0.60387 0.28448 0.90428 0.0
C73 C 0.58317 0.26997 0.88349 0.0
C74 C 0.57122 0.28675 0.86063 0.0
C75 C 0.58055 0.31727 0.85801 0.0
H76 H 0.57001 0.39638 0.80718 0.0
H77 H 0.56278 0.41128 0.75505 0.0
H78 H 0.65065 0.45343 0.75622 0.0
H79 H 0.65789 0.43906 0.80874 0.0
H80 H 0.67318 0.4622 0.88787 0.0
H81 H 0.71808 0.48204 0.91452 0.0
H82 H 0.72415 0.39634 0.95674 0.0
H83 H 0.67885 0.37672 0.93081 0.0
H84 H 0.62946 0.32521 0.91791 0.0
H85 H 0.61286 0.27226 0.92265 0.0
H86 H 0.55507 0.27615 0.84446 0.0
H87 H 0.57135 0.32942 0.83972 0.0
N88 N 0.60674 0.37685 0.84814 0.0
N89 N 0.64083 0.41761 0.8612 0.0
N90 N 0.63482 0.37668 0.8931 0.0
C91 C 0.62002 0.40411 0.84173 0.0
C92 C 0.64809 0.4042 0.88718 0.0
C93 C 0.61399 0.36294 0.87371 0.0
C94 C 0.61449 0.41659 0.81194 0.0
C95 C 0.58765 0.40916 0.79647 0.0
C96 C 0.58353 0.41758 0.76672 0.0
C97 C 0.60634 0.43307 0.75179 0.0
C98 C 0.63295 0.44115 0.76735 0.0
C99 C 0.63691 0.43325 0.79739 0.0
C100 C 0.67268 0.41769 0.90679 0.0
C101 C 0.68384 0.44771 0.90318 0.0
C102 C 0.70962 0.45907 0.91837 0.0
C103 C 0.72494 0.44058 0.93731 0.0
C104 C 0.71281 0.41122 0.94243 0.0
C105 C 0.68687 0.39992 0.92742 0.0
C106 C 0.60191 0.3316 0.87833 0.0
C107 C 0.61311 0.31495 0.90177 0.0
C108 C 0.78978 0.58323 0.47121 0.0
C109 C 0.77255 0.55913 0.45667 0.0
C110 C 0.78361 0.54373 0.43156 0.0
C111 C 0.81077 0.55328 0.42023 0.0
H112 H 0.84754 0.56265 0.33624 0.0
H113 H 0.85568 0.5515 0.28271 0.0
H114 H 0.94094 0.59965 0.29167 0.0
H115 H 0.93301 0.61082 0.34519 0.0
H116 H 0.93808 0.66511 0.39819 0.0
H117 H 0.95927 0.71299 0.42082 0.0
H118 H 0.91262 0.69605 0.50281 0.0
H119 H 0.89087 0.64839 0.48003 0.0
H120 H 0.82938 0.61179 0.47146 0.0
H121 H 0.78182 0.59531 0.49076 0.0
H122 H 0.77065 0.52517 0.41983 0.0
H123 H 0.81822 0.5416 0.4002 0.0
N124 N 0.86081 0.58229 0.39118 0.0
N125 N 0.9014 0.61786 0.3926 0.0
N126 N 0.872 0.61306 0.43495 0.0
C127 C 0.88423 0.59562 0.37731 0.0
C128 C 0.8955 0.62664 0.42151 0.0
C129 C 0.85463 0.59078 0.42006 0.0
C130 C 0.88963 0.58766 0.3451 0.0
C131 C 0.8681 0.57077 0.3269 0.0
C132 C 0.87261 0.56459 0.29615 0.0
C133 C 0.89886 0.57483 0.28302 0.0
C134 C 0.92053 0.59135 0.30124 0.0
C135 C 0.91593 0.5978 0.33189 0.0
C136 C 0.91228 0.65307 0.43701 0.0
C137 C 0.93269 0.67125 0.42124 0.0
C138 C 0.94504 0.69869 0.43433 0.0
C139 C 0.9374 0.70853 0.46355 0.0
C140 C 0.91856 0.68937 0.48007 0.0
C141 C 0.90615 0.66198 0.46698 0.0
C142 C 0.82754 0.57825 0.43401 0.0
C143 C 0.81707 0.59256 0.46015 0.0
C144 C 0.77964 0.93418 0.90115 0.0
C145 C 0.77012 0.92801 0.93043 0.0
C146 C 0.78596 0.90864 0.94797 0.0
C147 C 0.81014 0.89516 0.93622 0.0
H148 H 0.86984 0.83054 0.95349 0.0
H149 H 0.88831 0.78711 0.97816 0.0
H150 H 0.92899 0.76043 0.89529 0.0
H151 H 0.91064 0.80372 0.87053 0.0
H152 H 0.90739 0.84615 0.81243 0.0
H153 H 0.9224 0.86036 0.76201 0.0
H154 H 0.88278 0.94531 0.77452 0.0
H155 H 0.86699 0.93074 0.82423 0.0
H156 H 0.81012 0.92583 0.86665 0.0
H157 H 0.76778 0.94853 0.88674 0.0
H158 H 0.77958 0.90372 0.97078 0.0
H159 H 0.82152 0.88006 0.95025 0.0
N160 N 0.85535 0.862 0.90754 0.0
N161 N 0.88652 0.8548 0.86694 0.0
N162 N 0.85402 0.89318 0.86599 0.0
C163 C 0.87673 0.84664 0.89453 0.0
C164 C 0.87539 0.87823 0.85262 0.0
C165 C 0.84378 0.88524 0.89335 0.0
C166 C 0.88863 0.82068 0.90992 0.0
C167 C 0.88275 0.81546 0.94048 0.0
C168 C 0.89345 0.79065 0.95472 0.0
C169 C 0.90998 0.77023 0.93865 0.0
C170 C 0.91602 0.77554 0.90819 0.0
C171 C 0.90562 0.80051 0.89406 0.0
C172 C 0.88578 0.88717 0.8224 0.0
C173 C 0.90191 0.86787 0.80442 0.0
C174 C 0.9106 0.87608 0.77549 0.0
C175 C 0.90359 0.90389 0.76391 0.0
C176 C 0.88795 0.92338 0.78222 0.0
C177 C 0.87905 0.91508 0.81094 0.0
C178 C 0.81924 0.90086 0.9067 0.0
C179 C 0.80391 0.92091 0.88952 0.0
C180 C 0.61297 0.07362 0.3018 0.0
C181 C 0.58544 0.08018 0.29024 0.0
C182 C 0.5697 0.10121 0.3066 0.0
C183 C 0.58149 0.1157 0.33346 0.0
H184 H 0.56664 0.17881 0.41077 0.0
H185 H 0.54695 0.22283 0.43635 0.0
H186 H 0.63404 0.25636 0.46607 0.0
H187 H 0.65375 0.2123 0.44129 0.0
H188 H 0.69204 0.15479 0.45984 0.0
H189 H 0.73763 0.13881 0.481 0.0
H190 H 0.73867 0.06947 0.40948 0.0
H191 H 0.69286 0.08494 0.38856 0.0
H192 H 0.6461 0.08244 0.33642 0.0
H193 H 0.62607 0.05809 0.28961 0.0
H194 H 0.54828 0.10659 0.29861 0.0
H195 H 0.5689 0.13197 0.34528 0.0
N196 N 0.61055 0.14979 0.38546 0.0
N197 N 0.6491 0.15561 0.42169 0.0
N198 N 0.64788 0.11631 0.3846 0.0
C199 C 0.62388 0.16506 0.41005 0.0
C200 C 0.66117 0.13118 0.40928 0.0
C201 C 0.62261 0.1254 0.37248 0.0
C202 C 0.61169 0.19205 0.42413 0.0
C203 C 0.58154 0.19559 0.42275 0.0
C204 C 0.57028 0.22055 0.43753 0.0
C205 C 0.58906 0.24265 0.45331 0.0
C206 C 0.61919 0.23947 0.45416 0.0
C207 C 0.63038 0.21426 0.43999 0.0
C208 C 0.68871 0.12118 0.42241 0.0
C209 C 0.70188 0.13605 0.44863 0.0
C210 C 0.72808 0.12698 0.46076 0.0
C211 C 0.7417 0.10284 0.44699 0.0
C212 C 0.72845 0.08783 0.42093 0.0
C213 C 0.70226 0.09687 0.4088 0.0
C214 C 0.60922 0.10936 0.34471 0.0
C215 C 0.62462 0.08786 0.32867 0.0
C216 C 0.28611 0.57659 0.09707 0.0
C217 C 0.27649 0.59045 0.07094 0.0
C218 C 0.29535 0.61219 0.05764 0.0
C219 C 0.32247 0.62138 0.07133 0.0
H220 H 0.37862 0.69625 0.07454 0.0
H221 H 0.39276 0.74935 0.06615 0.0
H222 H 0.44691 0.75494 0.14784 0.0
H223 H 0.43293 0.70204 0.15648 0.0
H224 H 0.42081 0.65959 0.20452 0.0
H225 H 0.4291 0.64735 0.25674 0.0
H226 H 0.37425 0.56416 0.24201 0.0
H227 H 0.36501 0.57684 0.18952 0.0
H228 H 0.3193 0.57572 0.13177 0.0
H229 H 0.27198 0.55986 0.10794 0.0
H230 H 0.28869 0.62286 0.03721 0.0
H231 H 0.33592 0.63909 0.06108 0.0
N232 N 0.371 0.64911 0.10679 0.0
N233 N 0.3996 0.65371 0.15145 0.0
N234 N 0.36456 0.61276 0.14374 0.0
C235 C 0.39237 0.66446 0.12427 0.0
C236 C 0.38598 0.62797 0.1614 0.0
C237 C 0.35713 0.62311 0.1162 0.0
C238 C 0.40433 0.69493 0.11637 0.0
C239 C 0.39384 0.70862 0.09052 0.0
C240 C 0.40188 0.73903 0.08572 0.0
C241 C 0.42046 0.75626 0.1067 0.0
C242 C 0.43201 0.74227 0.13174 0.0
C243 C 0.42415 0.71188 0.13647 0.0
C244 C 0.39223 0.61913 0.19269 0.0
C245 C 0.41046 0.63859 0.21221 0.0
C246 C 0.41528 0.63163 0.24226 0.0
C247 C 0.40224 0.6049 0.25353 0.0
C248 C 0.38415 0.58525 0.23408 0.0
C249 C 0.37912 0.59234 0.20393 0.0
C250 C 0.33123 0.60914 0.09873 0.0
C251 C 0.31323 0.58581 0.11082 0.0
C252 C 0.07286 0.31693 0.53918 0.0
C253 C 0.0561 0.2966 0.55647 0.0
C254 C 0.04849 0.30582 0.58582 0.0
C255 C 0.05891 0.33411 0.59838 0.0
H256 H 0.0643 0.38098 0.67746 0.0
H257 H 0.05441 0.39146 0.7303 0.0
H258 H 0.11415 0.47167 0.73125 0.0
H259 H 0.12487 0.46066 0.67826 0.0
H260 H 0.17288 0.46185 0.62394 0.0
H261 H 0.22088 0.47652 0.60443 0.0
H262 H 0.20025 0.42038 0.52345 0.0
H263 H 0.15238 0.40557 0.54271 0.0
H264 H 0.09751 0.35984 0.53839 0.0
H265 H 0.07905 0.31032 0.51651 0.0
H266 H 0.03528 0.29066 0.59948 0.0
H267 H 0.05355 0.33991 0.62152 0.0
N268 N 0.08606 0.38962 0.62587 0.0
N269 N 0.12494 0.42722 0.62775 0.0
N270 N 0.11554 0.39594 0.5839 0.0
C271 C 0.10191 0.41268 0.64132 0.0
C272 C 0.13181 0.419 0.59891 0.0
C273 C 0.09259 0.38119 0.59712 0.0
C274 C 0.09537 0.42001 0.67343 0.0
C275 C 0.07537 0.40093 0.68877 0.0
C276 C 0.06958 0.40698 0.71917 0.0
C277 C 0.08342 0.43243 0.7351 0.0
C278 C 0.10342 0.4516 0.71981 0.0
C279 C 0.1094 0.44542 0.68934 0.0
C280 C 0.15886 0.43207 0.5852 0.0
C281 C 0.1783 0.45303 0.60174 0.0
C282 C 0.20579 0.46156 0.59051 0.0
C283 C 0.21441 0.44925 0.56259 0.0
C284 C 0.19434 0.42982 0.54525 0.0
C285 C 0.16685 0.42142 0.55635 0.0
C286 C 0.07745 0.3537 0.58193 0.0
C287 C 0.08353 0.34521 0.55183 0.0
O288 O 0.0017 0.02004 0.58435 0.0
Mg289 Mg 0.03353 0.03354 0.55444 0.0
O290 O 0.98361 0.98694 0.54888 0.0
Mg291 Mg 0.00116 0.00362 0.5009 0.0
O292 O 0.01839 0.05306 0.51675 0.0
O293 O 0.04451 0.07847 0.55477 0.0
O294 O 0.02021 0.02254 0.45379 0.0
O295 O 0.95599 0.02522 0.49609 0.0
Mg296 Mg 0.97575 0.98169 0.451 0.0
O297 O 0.98346 0.95243 0.48503 0.0
O298 O 0.00624 0.98849 0.41823 0.0
O299 O 0.94161 0.01016 0.44998 0.0
O300 O 0.95716 0.94022 0.44211 0.0
C301 C 0.06738 0.98568 0.52699 0.0
C302 C 0.98484 0.99705 0.57657 0.0
C303 C 0.03003 0.07839 0.52934 0.0
C304 C 0.0211 0.0126 0.42621 0.0
C305 C 0.93784 0.02567 0.47387 0.0
C306 C 0.9689 0.93219 0.46699 0.0
O307 O 0.0673 0.00515 0.5487 0.0
O308 O 0.0464 0.9824 0.50729 0.0
O309 O 0.47124 0.05398 0.05161 0.0
Mg310 Mg 0.51398 0.05884 0.03351 0.0
O311 O 0.45976 0.02174 0.01364 0.0
Mg312 Mg 0.50778 0.01142 0.00415 0.0
O313 O 0.52056 0.06204 0.98817 0.0
O314 O 0.51877 0.10162 0.02138 0.0
O315 O 0.55621 0.00039 0.99333 0.0
O316 O 0.49365 0.00498 0.95151 0.0
Mg317 Mg 0.50731 0.94506 0.97799 0.0
O318 O 0.49481 0.96315 0.01763 0.0
O319 O 0.55237 0.95362 0.97254 0.0
O320 O 0.48052 0.95626 0.94267 0.0
O321 O 0.49163 0.9133 0.00661 0.0
C322 C 0.54118 0.02904 0.07244 0.0
C323 C 0.45191 0.0382 0.03578 0.0
C324 C 0.52283 0.09119 0.99433 0.0
C325 C 0.56765 0.97775 0.98066 0.0
C326 C 0.48279 0.98309 0.93383 0.0
C327 C 0.4875 0.93575 0.02516 0.0
O328 O 0.55094 0.05299 0.06082 0.0
O329 O 0.52114 0.01258 0.05779 0.0
O330 O 0.47797 0.57372 0.56036 0.0
Mg331 Mg 0.47804 0.53132 0.58064 0.0
O332 O 0.48489 0.55807 0.51256 0.0
Mg333 Mg 0.49407 0.5066 0.51099 0.0
O334 O 0.50881 0.50901 0.55928 0.0
O335 O 0.51247 0.51858 0.60847 0.0
O336 O 0.50501 0.4543 0.51407 0.0
O337 O 0.54228 0.52009 0.5005 0.0
Mg338 Mg 0.50182 0.4749 0.46227 0.0
O339 O 0.47669 0.51024 0.4599 0.0
O340 O 0.48048 0.43444 0.47475 0.0
O341 O 0.54797 0.48406 0.46586 0.0
O342 O 0.4887 0.48114 0.41987 0.0
C343 C 0.42971 0.49184 0.54639 0.0
C344 C 0.48006 0.57883 0.53238 0.0
C345 C 0.52271 0.50638 0.58444 0.0
C346 C 0.49413 0.43068 0.4991 0.0
C347 C 0.55868 0.50597 0.48296 0.0
C348 C 0.47484 0.50309 0.43098 0.0
O349 O 0.43905 0.5033 0.57202 0.0
O350 O 0.44561 0.49265 0.523 0.0
O351 O 0.02189 0.45007 0.06756 0.0
Mg352 Mg 0.01899 0.49586 0.07651 0.0
O353 O 0.01337 0.45598 0.01892 0.0
Mg354 Mg -0.00071 0.5071 0.01525 0.0
O355 O 0.98079 0.51315 0.06441 0.0
O356 O 0.9946 0.50396 0.11232 0.0
O357 O 0.98307 0.5592 0.0172 0.0
O358 O 0.95314 0.48555 0.00345 0.0
Mg359 Mg 0.99082 0.53121 0.97368 0.0
O360 O 0.0167 0.49748 0.96339 0.0
O361 O 0.01262 0.57436 0.98288 0.0
O362 O 0.94411 0.52519 0.97814 0.0
O363 O 0.99553 0.5257 0.92924 0.0
C364 C 0.06376 0.53482 0.04953 0.0
C365 C 0.01966 0.43912 0.04072 0.0
C366 C 0.97595 0.51364 0.09338 0.0
C367 C 0.99547 0.58113 0.00329 0.0
C368 C 0.93494 0.50108 0.99029 0.0
C369 C 0.01299 0.50528 0.93543 0.0
O370 O 0.05635 0.525 0.07484 0.0
O371 O 0.04698 0.52933 0.02613 0.0
C372 C 0.11069 0.07529 0.28724 0.0
C373 C 0.0993 0.10078 0.27473 0.0
C374 C 0.1005 0.06389 0.31456 0.0
C375 C 0.07782 0.07779 0.32961 0.0
C376 C 0.06677 0.10401 0.3177 0.0
C377 C 0.07778 0.11531 0.2906 0.0
C378 C 0.11304 0.03598 0.3265 0.0
C379 C 0.04228 0.11927 0.33275 0.0
C380 C 0.0273 0.02378 0.37194 0.0
C381 C 0.03607 0.03017 0.40238 0.0
C382 C 0.04021 0.03967 0.3484 0.0
C383 C 0.06303 0.06236 0.35514 0.0
C384 C 0.072 0.06923 0.38581 0.0
C385 C 0.05819 0.05322 0.40918 0.0
C386 C 0.02944 0.03193 0.31618 0.0
C387 C 0.09654 0.093 0.39385 0.0
H388 H 0.12694 0.06342 0.27518 0.0
H389 H 0.06918 0.13537 0.28167 0.0
H390 H 0.11844 0.03925 0.35109 0.0
H391 H 0.09656 0.01637 0.32356 0.0
H392 H 0.13304 0.03027 0.31456 0.0
H393 H 0.03806 0.14105 0.32244 0.0
H394 H 0.02194 0.10404 0.33068 0.0
H395 H 0.04738 0.12365 0.35728 0.0
H396 H 0.00989 0.00638 0.36637 0.0
H397 H 0.065 0.05837 0.43261 0.0
H398 H 0.04725 0.02292 0.30283 0.0
H399 H 0.02297 0.05261 0.30523 0.0
H400 H 0.01046 0.01479 0.31494 0.0
H401 H 0.11716 0.08576 0.38433 0.0
H402 H 0.09978 0.09697 0.41874 0.0
H403 H 0.09213 0.11473 0.38364 0.0
C404 C 0.41053 0.96158 0.77291 0.0
C405 C 0.42901 0.9655 0.74838 0.0
C406 C 0.42001 0.97093 0.80245 0.0
C407 C 0.4486 0.98485 0.80761 0.0
C408 C 0.46669 0.99063 0.78268 0.0
C409 C 0.45679 0.98056 0.75334 0.0
C410 C 0.40023 0.96367 0.82839 0.0
C411 C 0.49713 0.00577 0.78719 0.0
C412 C 0.46586 0.01263 0.88955 0.0
C413 C 0.47698 0.98671 0.90115 0.0
C414 C 0.4578 0.01326 0.85852 0.0
C415 C 0.46115 0.98748 0.83907 0.0
C416 C 0.47415 0.96221 0.85054 0.0
C417 C 0.48191 0.96222 0.88123 0.0
C418 C 0.44455 0.04084 0.84684 0.0
C419 C 0.47842 0.93424 0.8308 0.0
H420 H 0.38913 0.94973 0.7692 0.0
H421 H 0.47097 0.98396 0.73434 0.0
H422 H 0.40918 0.94551 0.84163 0.0
H423 H 0.39924 0.98383 0.84395 0.0
H424 H 0.37767 0.95585 0.82042 0.0
H425 H 0.50639 0.01325 0.76551 0.0
H426 H 0.49712 0.02568 0.80328 0.0
H427 H 0.5117 0.98966 0.79712 0.0
H428 H 0.46239 0.03174 0.9048 0.0
H429 H 0.49135 0.94244 0.88987 0.0
H430 H 0.42076 0.03562 0.84256 0.0
H431 H 0.4542 0.04716 0.825 0.0
H432 H 0.44775 0.06056 0.86325 0.0
H433 H 0.45683 0.92333 0.82299 0.0
H434 H 0.49046 0.91731 0.84293 0.0
H435 H 0.49065 0.94045 0.81037 0.0
C436 C 0.57879 0.45795 0.71232 0.0
C437 C 0.60196 0.44084 0.72002 0.0
C438 C 0.57308 0.46452 0.6822 0.0
C439 C 0.59079 0.45315 0.65908 0.0
C440 C 0.61429 0.43572 0.66678 0.0
C441 C 0.61989 0.43013 0.69739 0.0
C442 C 0.54785 0.48349 0.67527 0.0
C443 C 0.63363 0.42308 0.64305 0.0
C444 C 0.54206 0.4574 0.59214 0.0
C445 C 0.54779 0.48824 0.58734 0.0
C446 C 0.56004 0.44281 0.61208 0.0
C447 C 0.58374 0.4599 0.62723 0.0
C448 C 0.59303 0.4888 0.61697 0.0
C449 C 0.57451 0.50299 0.59726 0.0
C450 C 0.55037 0.41126 0.62122 0.0
C451 C 0.61938 0.50692 0.63108 0.0
H452 H 0.56512 0.46624 0.73002 0.0
H453 H 0.63778 0.41673 0.70358 0.0
H454 H 0.55576 0.50407 0.66352 0.0
H455 H 0.53149 0.47039 0.66005 0.0
H456 H 0.53668 0.49081 0.69603 0.0
H457 H 0.64384 0.40272 0.65095 0.0
H458 H 0.6214 0.41699 0.62141 0.0
H459 H 0.65144 0.44048 0.63846 0.0
H460 H 0.52135 0.44604 0.5842 0.0
H461 H 0.57901 0.52683 0.59307 0.0
H462 H 0.53759 0.41275 0.64214 0.0
H463 H 0.56951 0.39817 0.62612 0.0
H464 H 0.53628 0.39883 0.60327 0.0
H465 H 0.61326 0.51778 0.65286 0.0
H466 H 0.6276 0.52503 0.61611 0.0
H467 H 0.63719 0.49207 0.63591 0.0
C468 C 0.88253 0.57225 0.22817 0.0
C469 C 0.90394 0.56789 0.25052 0.0
C470 C 0.88742 0.56588 0.19734 0.0
C471 C 0.91421 0.55463 0.18884 0.0
C472 C 0.9358 0.55009 0.2114 0.0
C473 C 0.93042 0.55688 0.24189 0.0
C474 C 0.86406 0.57122 0.17393 0.0
C475 C 0.9646 0.53779 0.20342 0.0
C476 C 0.93036 0.50628 0.12059 0.0
C477 C 0.95015 0.52614 0.10625 0.0
C478 C 0.91503 0.5163 0.14565 0.0
C479 C 0.92007 0.54679 0.15661 0.0
C480 C 0.93681 0.56776 0.13944 0.0
C481 C 0.95174 0.5571 0.11429 0.0
C482 C 0.89698 0.49323 0.16285 0.0
C483 C 0.94243 0.60055 0.15 0.0
H484 H 0.86211 0.58102 0.23479 0.0
H485 H 0.94684 0.55311 0.25914 0.0
H486 H 0.87286 0.58757 0.15747 0.0
H487 H 0.85729 0.54977 0.16095 0.0
H488 H 0.84447 0.58016 0.18426 0.0
H489 H 0.97904 0.53571 0.22368 0.0
H490 H 0.96067 0.5151 0.19182 0.0
H491 H 0.97631 0.55287 0.18754 0.0
H492 H 0.92945 0.48224 0.11447 0.0
H493 H 0.96739 0.57235 0.10338 0.0
H494 H 0.8774 0.50301 0.1722 0.0
H495 H 0.91031 0.48593 0.18216 0.0
H496 H 0.88986 0.47285 0.14825 0.0
H497 H 0.9226 0.60943 0.15976 0.0
H498 H 0.94975 0.61494 0.1312 0.0
H499 H 0.95988 0.60247 0.168 0.0
C500 C 0.28282 0.0527 0.07574 0.0
C501 C 0.27705 0.08314 0.07265 0.0
C502 C 0.31005 0.04235 0.06823 0.0
C503 C 0.33206 0.06292 0.05736 0.0
C504 C 0.32602 0.09341 0.05321 0.0
C505 C 0.29866 0.10314 0.06095 0.0
C506 C 0.31557 0.00965 0.07286 0.0
C507 C 0.34885 0.11608 0.04163 0.0
C508 C 0.41243 0.05142 0.07064 0.0
C509 C 0.42063 0.04099 0.04194 0.0
C510 C 0.38342 0.05736 0.07623 0.0
C511 C 0.36209 0.05332 0.05239 0.0
C512 C 0.37002 0.04189 0.02358 0.0
C513 C 0.39918 0.03559 0.01876 0.0
C514 C 0.37582 0.06896 0.10745 0.0
C515 C 0.348 0.03758 0.99751 0.0
H516 H 0.2661 0.03697 0.08432 0.0
H517 H 0.29458 0.12676 0.0588 0.0
H518 H 0.32402 0.99922 0.05192 0.0
H519 H 0.33252 0.00846 0.09105 0.0
H520 H 0.29553 0.99602 0.07924 0.0
H521 H 0.34002 0.13829 0.03751 0.0
H522 H 0.36733 0.11979 0.05838 0.0
H523 H 0.35775 0.10721 0.02021 0.0
H524 H 0.42887 0.05539 0.08872 0.0
H525 H 0.40542 0.0277 0.99648 0.0
H526 H 0.35697 0.05493 0.11594 0.0
H527 H 0.36925 0.09251 0.10633 0.0
H528 H 0.39441 0.06881 0.12402 0.0
H529 H 0.32828 0.02376 0.00428 0.0
H530 H 0.35705 0.02642 0.97722 0.0
H531 H 0.34089 0.05995 0.99119 0.0
C532 C 0.22804 0.95469 0.54918 0.0
C533 C 0.23626 0.92483 0.54877 0.0
C534 C 0.19952 0.96103 0.54105 0.0
C535 C 0.17868 0.93691 0.5321 0.0
C536 C 0.18718 0.90685 0.53013 0.0
C537 C 0.2159 0.90113 0.53856 0.0
C538 C 0.19133 0.99344 0.54357 0.0
C539 C 0.16558 0.88058 0.52067 0.0
C540 C 0.10296 0.95593 0.55292 0.0
C541 C 0.09235 0.9668 0.52577 0.0
C542 C 0.1302 0.94389 0.55464 0.0
C543 C 0.14744 0.9431 0.52858 0.0
C544 C 0.13588 0.95195 0.50049 0.0
C545 C 0.10821 0.96363 0.49936 0.0
C546 C 0.14145 0.93438 0.58498 0.0
C547 C 0.15361 0.95128 0.47224 0.0
H548 H 0.24384 0.97315 0.55646 0.0
H549 H 0.22205 0.87797 0.53836 0.0
H550 H 0.18027 -0.00044 0.5223 0.0
H551 H 0.17573 0.99595 0.56211 0.0
H552 H 0.21063 0.00976 0.54837 0.0
H553 H 0.17646 0.85932 0.51628 0.0
H554 H 0.14968 0.87672 0.53887 0.0
H555 H 0.15301 0.88572 0.49997 0.0
H556 H 0.09046 0.95824 0.57328 0.0
H557 H 0.09999 0.97225 0.47842 0.0
H558 H 0.15925 0.95105 0.59372 0.0
H559 H 0.1507 0.91201 0.58268 0.0
H560 H 0.12407 0.93301 0.60202 0.0
H561 H 0.1712 0.96991 0.47401 0.0
H562 H 0.14001 0.95416 0.45154 0.0
H563 H 0.16422 0.92965 0.46975 0.0
C564 C 0.77467 0.46553 0.93013 0.0
C565 C 0.75475 0.45077 0.94918 0.0
C566 C 0.80359 0.47343 0.93981 0.0
C567 C 0.81293 0.46643 0.96931 0.0
C568 C 0.79288 0.45203 0.98892 0.0
C569 C 0.76398 0.44428 0.97858 0.0
C570 C 0.82437 0.48864 0.91813 0.0
C571 C 0.80203 0.44454 0.02064 0.0
C572 C 0.89467 0.46135 0.97862 0.0
C573 C 0.90374 0.49108 0.9884 0.0
C574 C 0.86492 0.45257 0.97333 0.0
C575 C 0.84392 0.47383 0.97904 0.0
C576 C 0.85302 0.5033 0.99092 0.0
C577 C 0.88295 0.51179 0.99485 0.0
C578 C 0.85613 0.42121 0.95989 0.0
C579 C 0.83125 0.52624 0.99827 0.0
H580 H 0.76789 0.47007 0.90719 0.0
H581 H 0.74862 0.43308 0.99347 0.0
H582 H 0.83365 0.51075 0.92817 0.0
H583 H 0.84288 0.4744 0.91401 0.0
H584 H 0.81357 0.4926 0.896 0.0
H585 H 0.78348 0.4345 0.03349 0.0
H586 H 0.81924 0.42826 0.01972 0.0
H587 H 0.81155 0.4653 0.03323 0.0
H588 H 0.91094 0.44547 0.97357 0.0
H589 H 0.89016 0.5347 0.00277 0.0
H590 H 0.84721 0.42296 0.93649 0.0
H591 H 0.83863 0.40991 0.97319 0.0
H592 H 0.87482 0.40668 0.95903 0.0
H593 H 0.82142 0.53385 0.97695 0.0
H594 H 0.84154 0.54645 0.01127 0.0
H595 H 0.81323 0.51591 0.01159 0.0
C596 C 0.73171 0.52174 0.47005 0.0
C597 C 0.74216 0.5518 0.46597 0.0
C598 C 0.70222 0.51449 0.47628 0.0
C599 C 0.6827 0.53779 0.47773 0.0
C600 C 0.69339 0.56828 0.4745 0.0
C601 C 0.72305 0.57493 0.46889 0.0
C602 C 0.69176 0.48179 0.48023 0.0
C603 C 0.67323 0.59371 0.47528 0.0
C604 C 0.60397 0.5147 0.45414 0.0
C605 C 0.59013 0.51507 0.48198 0.0
C606 C 0.63399 0.5226 0.45249 0.0
C607 C 0.65073 0.53002 0.4795 0.0
C608 C 0.63687 0.53011 0.5078 0.0
C609 C 0.60653 0.52311 0.50865 0.0
C610 C 0.64774 0.52309 0.4218 0.0
C611 C 0.65413 0.53701 0.53712 0.0
H612 H 0.74655 0.50389 0.46803 0.0
H613 H 0.73106 0.59815 0.4654 0.0
H614 H 0.67866 0.47972 0.5009 0.0
H615 H 0.67737 0.47341 0.46065 0.0
H616 H 0.71016 0.46696 0.48192 0.0
H617 H 0.68532 0.61635 0.47459 0.0
H618 H 0.65766 0.59083 0.45555 0.0
H619 H 0.66015 0.59307 0.49602 0.0
H620 H 0.59117 0.50861 0.43353 0.0
H621 H 0.59577 0.52302 0.53021 0.0
H622 H 0.66434 0.50617 0.42037 0.0
H623 H 0.65914 0.54567 0.41858 0.0
H624 H 0.6314 0.51802 0.40295 0.0
H625 H 0.67093 0.52044 0.5396 0.0
H626 H 0.64005 0.5361 0.55719 0.0
H627 H 0.66582 0.55983 0.53687 0.0
C628 C 0.10152 0.29225 0.05249 0.0
C629 C 0.08417 0.26478 0.05173 0.0
C630 C 0.08986 0.31922 0.04406 0.0
C631 C 0.0602 0.31869 0.03413 0.0
C632 C 0.04331 0.29056 0.03093 0.0
C633 C 0.05535 0.26399 0.04021 0.0
C634 C 0.10862 0.34866 0.04831 0.0
C635 C 0.01194 0.28878 0.01956 0.0
C636 C 0.02356 0.38816 0.06109 0.0
C637 C 0.02553 0.40671 0.03607 0.0
C638 C 0.03366 0.35914 0.06015 0.0
C639 C 0.0457 0.34777 0.03323 0.0
C640 C 0.04586 0.36539 0.00706 0.0
C641 C 0.03586 0.39484 0.0088 0.0
C642 C 0.03298 0.34139 0.0887 0.0
C643 C 0.05778 0.35377 0.97769 0.0
H644 H 0.12378 0.293 0.06146 0.0
H645 H 0.042 0.2427 0.03914 0.0
H646 H 0.1069 0.3624 0.02801 0.0
H647 H 0.10078 0.36207 0.06782 0.0
H648 H 0.13198 0.34492 0.05272 0.0
H649 H 0.00384 0.26521 0.0125 0.0
H650 H 0.99795 0.29689 0.03782 0.0
H651 H 0.00945 0.30355 1.0001 0.0
H652 H 0.01508 0.39684 0.08213 0.0
H653 H 0.03737 0.40895 0.98934 0.0
H654 H 0.05562 0.33772 0.09634 0.0
H655 H 0.02127 0.31878 0.08422 0.0
H656 H 0.02213 0.35316 0.10749 0.0
H657 H 0.08199 0.35524 0.97945 0.0
H658 H 0.0512 0.36719 0.95827 0.0
H659 H 0.05021 0.32961 0.97295 0.0
C660 C 0.54367 0.2283 0.88665 0.0
C661 C 0.5735 0.23767 0.88678 0.0
C662 C 0.53421 0.19957 0.89647 0.0
C663 C 0.55514 0.18012 0.90677 0.0
C664 C 0.58526 0.18811 0.90334 0.0
C665 C 0.59409 0.21688 0.89339 0.0
C666 C 0.50188 0.19172 0.89937 0.0
C667 C 0.60832 0.16796 0.91375 0.0
C668 C 0.53766 0.14355 0.98025 0.0
C669 C 0.53081 0.11311 0.97105 0.0
C670 C 0.54543 0.1653 0.95941 0.0
C671 C 0.5463 0.15656 0.92831 0.0
C672 C 0.53936 0.12591 0.91862 0.0
C673 C 0.53172 0.10439 0.94022 0.0
C674 C 0.55291 0.19771 0.97088 0.0
C675 C 0.53988 0.11598 0.88559 0.0
H676 H 0.52767 0.24422 0.88127 0.0
H677 H 0.6172 0.22383 0.89263 0.0
H678 H 0.49617 0.1673 0.89387 0.0
H679 H 0.49573 0.1965 0.92312 0.0
H680 H 0.48873 0.20532 0.88434 0.0
H681 H 0.62972 0.17396 0.9035 0.0
H682 H 0.61125 0.17066 0.93876 0.0
H683 H 0.6017 0.14376 0.90805 0.0
H684 H 0.53722 0.15054 0.00402 0.0
H685 H 0.52634 0.08091 0.933 0.0
H686 H 0.53807 0.21298 0.96001 0.0
H687 H 0.57556 0.20519 0.9649 0.0
H688 H 0.55112 0.2006 0.99584 0.0
H689 H 0.52345 0.12765 0.87251 0.0
H690 H 0.53514 0.09111 0.88193 0.0
H691 H 0.56154 0.12252 0.87626 0.0
C692 C 0.97421 0.7535 0.46984 0.0
C693 C 0.94624 0.74004 0.47503 0.0
C694 C 0.98077 0.78479 0.47518 0.0
C695 C 0.9588 0.80303 0.48582 0.0
C696 C 0.93143 0.78913 0.49369 0.0
C697 C 0.92546 0.75783 0.48815 0.0
C698 C 0.0103 0.79865 0.46668 0.0
C699 C 0.90731 0.80765 0.50499 0.0
C700 C 0.97547 0.88835 0.50099 0.0
C701 C 0.96655 0.89941 0.47319 0.0
C702 C 0.97311 0.85693 0.50575 0.0
C703 C 0.96191 0.83637 0.48206 0.0
C704 C 0.95303 0.84756 0.45404 0.0
C705 C 0.95536 0.87874 0.45005 0.0
C706 C 0.98252 0.84572 0.53599 0.0
C707 C 0.941 0.82659 0.42804 0.0
H708 H 0.99056 0.7398 0.46025 0.0
H709 H 0.90371 0.74776 0.49207 0.0
H710 H 0.00818 0.80973 0.44473 0.0
H711 H 0.01877 0.81631 0.48387 0.0
H712 H 0.0265 0.78135 0.46426 0.0
H713 H 0.88972 0.79335 0.51547 0.0
H714 H 0.91597 0.82558 0.5218 0.0
H715 H 0.89752 0.819 0.48567 0.0
H716 H 0.9841 0.90415 0.51897 0.0
H717 H 0.94855 0.88686 0.42837 0.0
H718 H 0.00037 0.83042 0.5329 0.0
H719 H 0.96406 0.83231 0.54598 0.0
H720 H 0.99023 0.86459 0.55226 0.0
H721 H 0.95729 0.81036 0.42164 0.0
H722 H 0.93527 0.83903 0.40765 0.0
H723 H 0.92111 0.81317 0.43503 0.0
C724 C 0.43951 0.75113 0.51801 0.0
C725 C 0.44158 0.76129 0.54859 0.0
C726 C 0.4473 0.72207 0.50901 0.0
C727 C 0.45737 0.70277 0.53111 0.0
C728 C 0.4606 0.71337 0.56179 0.0
C729 C 0.45264 0.74242 0.57013 0.0
C730 C 0.44365 0.7116 0.4761 0.0
C731 C 0.47115 0.69346 0.58615 0.0
C732 C 0.44496 0.61758 0.52663 0.0
C733 C 0.47343 0.60905 0.52316 0.0
C734 C 0.43892 0.64809 0.52651 0.0
C735 C 0.46208 0.67056 0.52317 0.0
C736 C 0.49049 0.66177 0.51704 0.0
C737 C 0.49589 0.63091 0.51723 0.0
C738 C 0.40828 0.65635 0.5329 0.0
C739 C 0.51564 0.68502 0.51299 0.0
H740 H 0.43134 0.76573 0.50115 0.0
H741 H 0.4539 0.74983 0.59384 0.0
H742 H 0.46371 0.70161 0.46821 0.0
H743 H 0.4255 0.69361 0.47342 0.0
H744 H 0.43873 0.73037 0.46129 0.0
H745 H 0.47422 0.70577 0.60856 0.0
H746 H 0.45508 0.67374 0.58842 0.0
H747 H 0.4922 0.6845 0.57986 0.0
H748 H 0.42772 0.60047 0.53145 0.0
H749 H 0.51797 0.62417 0.51492 0.0
H750 H 0.40147 0.67367 0.51729 0.0
H751 H 0.40768 0.66623 0.55635 0.0
H752 H 0.39216 0.63633 0.53067 0.0
H753 H 0.50897 0.7031 0.4982 0.0
H754 H 0.53474 0.67466 0.5031 0.0
H755 H 0.52253 0.69592 0.53536 0.0
C756 C 0.89429 0.92888 0.71473 0.0
C757 C 0.91272 0.91291 0.7331 0.0
C758 C 0.90348 0.9398 0.68683 0.0
C759 C 0.93173 0.93444 0.67676 0.0
C760 C 0.9499 0.91706 0.69442 0.0
C761 C 0.94025 0.90662 0.72238 0.0
C762 C 0.88347 0.95839 0.66887 0.0
C763 C 0.98022 0.91087 0.68461 0.0
C764 C 0.95385 0.95259 0.5961 0.0
C765 C 0.96872 0.98131 0.60096 0.0
C766 C 0.94125 0.93705 0.62043 0.0
C767 C 0.94374 0.95052 0.65019 0.0
C768 C 0.95821 0.97971 0.65498 0.0
C769 C 0.97026 0.9947 0.63043 0.0
C770 C 0.92579 0.90604 0.61444 0.0
C771 C 0.96157 0.99497 0.68625 0.0
H772 H 0.87272 0.9333 0.72237 0.0
H773 H 0.95482 0.89456 0.73638 0.0
H774 H 0.89269 0.98229 0.6692 0.0
H775 H 0.88178 0.94999 0.64485 0.0
H776 H 0.86118 0.95791 0.67812 0.0
H777 H 0.99018 0.89401 0.69881 0.0
H778 H 0.97968 0.90243 0.6606 0.0
H779 H 0.9945 0.93226 0.68627 0.0
H780 H 0.9526 0.942 0.57351 0.0
H781 H 0.98152 0.01693 0.63462 0.0
H782 H 0.90307 0.90583 0.62245 0.0
H783 H 0.93698 0.88908 0.62735 0.0
H784 H 0.92514 0.89894 0.59001 0.0
H785 H 0.9398 0.99716 0.69607 0.0
H786 H 0.97319 0.01789 0.68606 0.0
H787 H 0.97396 0.98093 0.7015 0.0
C788 C 0.5795 0.03643 0.25171 0.0
C789 C 0.57425 0.0664 0.26037 0.0
C790 C 0.57253 0.02454 0.22221 0.0
C791 C 0.55974 0.04292 0.20088 0.0
C792 C 0.55268 0.07248 0.21002 0.0
C793 C 0.56016 0.0839 0.23953 0.0
C794 C 0.58031 0.9929 0.21344 0.0
C795 C 0.53869 0.09274 0.18808 0.0
C796 C 0.575 0.03755 0.1172 0.0
C797 C 0.54814 0.0251 0.10483 0.0
C798 C 0.57972 0.04142 0.14863 0.0
C799 C 0.55686 0.03299 0.16821 0.0
C800 C 0.53044 0.01825 0.15593 0.0
C801 C 0.52644 0.01429 0.12427 0.0
C802 C 0.60846 0.05665 0.16071 0.0
C803 C 0.50553 0.00888 0.17598 0.0
H804 H 0.58975 0.02242 0.26781 0.0
H805 H 0.55618 0.10712 0.24575 0.0
H806 H 0.56174 0.98 0.20106 0.0
H807 H 0.59898 0.9942 0.19797 0.0
H808 H 0.58653 0.98016 0.23347 0.0
H809 H 0.53177 0.11375 0.19949 0.0
H810 H 0.55445 0.09927 0.17043 0.0
H811 H 0.51932 0.0805 0.17643 0.0
H812 H 0.59187 0.04578 0.10219 0.0
H813 H 0.50554 0.00486 0.11478 0.0
H814 H 0.6173 0.04383 0.17949 0.0
H815 H 0.60499 0.07974 0.16994 0.0
H816 H 0.62505 0.05865 0.14288 0.0
H817 H 0.51359 0.99792 0.19639 0.0
H818 H 0.48885 0.99307 0.1638 0.0
H819 H 0.49483 0.02933 0.18383 0.0
C820 C 0.38674 0.58372 0.30284 0.0
C821 C 0.40876 0.59681 0.28505 0.0
C822 C 0.39352 0.57264 0.33125 0.0
C823 C 0.42297 0.57457 0.34182 0.0
C824 C 0.44487 0.58997 0.32506 0.0
C825 C 0.43751 0.6008 0.29679 0.0
C826 C 0.36955 0.5568 0.34879 0.0
C827 C 0.47656 0.59254 0.3356 0.0
C828 C 0.44903 0.54916 0.41827 0.0
C829 C 0.45776 0.52037 0.40999 0.0
C830 C 0.43603 0.5668 0.39669 0.0
C831 C 0.43193 0.55521 0.3664 0.0
C832 C 0.4392 0.52548 0.35851 0.0
C833 C 0.45189 0.50844 0.38042 0.0
C834 C 0.42816 0.59828 0.40593 0.0
C835 C 0.43517 0.51219 0.32646 0.0
H836 H 0.36436 0.58129 0.29415 0.0
H837 H 0.45466 0.6108 0.28313 0.0
H838 H 0.37079 0.53191 0.34602 0.0
H839 H 0.37219 0.56301 0.37334 0.0
H840 H 0.34754 0.56235 0.34072 0.0
H841 H 0.49003 0.60891 0.32239 0.0
H842 H 0.47871 0.59976 0.35993 0.0
H843 H 0.48554 0.57002 0.33297 0.0
H844 H 0.45339 0.55838 0.44119 0.0
H845 H 0.4581 0.48597 0.37401 0.0
H846 H 0.40681 0.60302 0.39556 0.0
H847 H 0.44489 0.61517 0.39774 0.0
H848 H 0.42719 0.60153 0.43094 0.0
H849 H 0.41233 0.51363 0.31817 0.0
H850 H 0.44039 0.4881 0.32459 0.0
H851 H 0.44961 0.52536 0.31119 0.0
C852 C 0.09823 0.45028 0.78853 0.0
C853 C 0.07635 0.43922 0.76727 0.0
C854 C 0.09138 0.45812 0.81853 0.0
C855 C 0.06197 0.4548 0.82749 0.0
C856 C 0.03998 0.44257 0.80646 0.0
C857 C 0.0474 0.43508 0.77664 0.0
C858 C 0.11541 0.47123 0.84024 0.0
C859 C 0.00829 0.43895 0.81494 0.0
C860 C 0.03841 0.46311 0.90948 0.0
C861 C 0.02923 0.49259 0.90999 0.0
C862 C 0.0504 0.45065 0.8831 0.0
C863 C 0.05334 0.46825 0.85704 0.0
C864 C 0.0456 0.49856 0.85827 0.0
C865 C 0.03371 0.51027 0.88463 0.0
C866 C 0.05861 0.41829 0.88261 0.0
C867 C 0.04847 0.5183 0.8312 0.0
H868 H 0.12072 0.45309 0.78164 0.0
H869 H 0.03025 0.42697 0.76036 0.0
H870 H 0.11262 0.49559 0.84517 0.0
H871 H 0.1142 0.45974 0.86206 0.0
H872 H 0.13745 0.46915 0.83093 0.0
H873 H 0.99439 0.4261 0.79711 0.0
H874 H 0.00602 0.42709 0.83648 0.0
H875 H -0.00011 0.46164 0.81855 0.0
H876 H 0.03507 0.44943 0.92907 0.0
H877 H 0.0272 0.53332 0.88507 0.0
H878 H 0.08073 0.41672 0.87341 0.0
H879 H 0.04307 0.40404 0.86743 0.0
H880 H 0.05822 0.40883 0.90552 0.0
H881 H 0.07095 0.51862 0.82256 0.0
H882 H 0.04339 0.54202 0.83662 0.0
H883 H 0.03332 0.50886 0.81262 0.0
C884 C 0.73576 0.96974 0.93484 0.0
C885 C 0.74289 0.94044 0.94181 0.0
C886 C 0.7088 0.98044 0.94279 0.0
C887 C 0.68853 0.96153 0.95835 0.0
C888 C 0.69613 0.93253 0.96671 0.0
C889 C 0.72308 0.9223 0.95823 0.0
C890 C 0.70144 0.01139 0.93324 0.0
C891 C 0.67513 0.91159 0.98326 0.0
C892 C 0.62072 0.98996 0.99495 0.0
C893 C 0.59898 0.9789 0.97369 0.0
C894 C 0.65034 0.9856 0.98986 0.0
C895 C 0.65814 0.97031 0.96274 0.0
C896 C 0.63629 0.96098 0.94045 0.0
C897 C 0.60704 0.96521 0.94631 0.0
C898 C 0.67303 0.99575 0.01417 0.0
C899 C 0.64353 0.94503 0.91101 0.0
H900 H 0.75108 0.98418 0.92264 0.0
H901 H 0.72806 0.8995 0.9634 0.0
H902 H 0.68376 0.00888 0.91551 0.0
H903 H 0.69321 0.02457 0.95268 0.0
H904 H 0.72056 0.02449 0.92406 0.0
H905 H 0.68546 0.89122 0.99095 0.0
H906 H 0.66664 0.92369 0.00326 0.0
H907 H 0.65615 0.90399 0.96806 0.0
H908 H 0.61445 0.00038 0.0162 0.0
H909 H 0.59021 0.9569 0.9297 0.0
H910 H 0.69187 0.00862 0.00428 0.0
H911 H 0.68143 0.97558 0.02452 0.0
H912 H 0.66404 0.01012 0.03234 0.0
H913 H 0.66147 0.95811 0.89983 0.0
H914 H 0.6244 0.94177 0.89498 0.0
H915 H 0.6512 0.92245 0.91565 0.0
C916 C 0.79271 0.11602 0.46752 0.0
C917 C 0.77019 0.0939 0.45893 0.0
C918 C 0.8208 0.10782 0.47532 0.0
C919 C 0.82646 0.07683 0.47432 0.0
C920 C 0.80336 0.05437 0.46754 0.0
C921 C 0.7755 0.06319 0.45996 0.0
C922 C 0.84482 0.13241 0.48257 0.0
C923 C 0.80845 0.02105 0.46633 0.0
C924 C 0.89917 0.05246 0.44858 0.0
C925 C 0.9117 0.04303 0.47552 0.0
C926 C 0.87212 0.06498 0.44829 0.0
C927 C 0.85701 0.06791 0.47563 0.0
C928 C 0.87022 0.05996 0.50325 0.0
C929 C 0.89764 0.04771 0.5029 0.0
C930 C 0.85904 0.07358 0.41838 0.0
C931 C 0.85474 0.06285 0.53281 0.0
H932 H 0.7888 0.13981 0.46668 0.0
H933 H 0.75801 0.046 0.454 0.0
H934 H 0.85836 0.12665 0.50238 0.0
H935 H 0.85939 0.13449 0.46301 0.0
H936 H 0.83603 0.15476 0.48739 0.0
H937 H 0.78768 0.00646 0.46421 0.0
H938 H 0.82192 0.01583 0.44656 0.0
H939 H 0.82068 0.01511 0.48696 0.0
H940 H 0.91021 0.04924 0.42742 0.0
H941 H 0.9073 0.04037 0.52375 0.0
H942 H 0.85219 0.09706 0.42013 0.0
H943 H 0.83926 0.05833 0.41243 0.0
H944 H 0.87458 0.07199 0.39962 0.0
H945 H 0.846 0.08547 0.5355 0.0
H946 H 0.86936 0.05944 0.55261 0.0
H947 H 0.83588 0.04566 0.53283 0.0
C948 C 0.23256 0.55493 0.05795 0.0
C949 C 0.24586 0.58448 0.05957 0.0
C950 C 0.20252 0.54954 0.05155 0.0
C951 C 0.18541 0.57435 0.04674 0.0
C952 C 0.199 0.60407 0.0466 0.0
C953 C 0.2291 0.60879 0.05305 0.0
C954 C 0.1888 0.51748 0.05187 0.0
C955 C 0.18149 0.63108 0.04171 0.0
C956 C 0.10726 0.55216 0.01968 0.0
C957 C 0.09326 0.55025 0.04744 0.0
C958 C 0.13712 0.56172 0.01877 0.0
C959 C 0.15308 0.5694 0.04622 0.0
C960 C 0.13847 0.5696 0.07401 0.0
C961 C 0.10877 0.56015 0.07424 0.0
C962 C 0.15194 0.56187 0.98869 0.0
C963 C 0.15458 0.57786 0.10383 0.0
H964 H 0.24553 0.53608 0.06262 0.0
H965 H 0.2392 0.63175 0.05462 0.0
H966 H 0.17477 0.51511 0.07185 0.0
H967 H 0.17463 0.51218 0.03134 0.0
H968 H 0.20542 0.50054 0.05296 0.0
H969 H 0.19571 0.65188 0.03776 0.0
H970 H 0.16595 0.62656 0.02213 0.0
H971 H 0.16845 0.63545 0.062 0.0
H972 H 0.09534 0.54471 0.99888 0.0
H973 H 0.09796 0.55925 0.09575 0.0
H974 H 0.1661 0.54267 0.98702 0.0
H975 H 0.16617 0.58305 0.9868 0.0
H976 H 0.13592 0.55967 0.9693 0.0
H977 H 0.17006 0.56047 0.10871 0.0
H978 H 0.13954 0.57936 0.12303 0.0
H979 H 0.16757 0.59989 0.10263 0.0
C980 C 0.26051 0.42962 0.54367 0.0
C981 C 0.24506 0.45436 0.55305 0.0
C982 C 0.2905 0.43327 0.53818 0.0
C983 C 0.30533 0.4624 0.54203 0.0
C984 C 0.2895 0.48773 0.54981 0.0
C985 C 0.25956 0.48337 0.55543 0.0
C986 C 0.3066 0.40567 0.53014 0.0
C987 C 0.30448 0.51923 0.55374 0.0
C988 C 0.38419 0.47124 0.56995 0.0
C989 C 0.39881 0.47967 0.54376 0.0
C990 C 0.35394 0.46427 0.56928 0.0
C991 C 0.33779 0.46595 0.54176 0.0
C992 C 0.35257 0.47284 0.51485 0.0
C993 C 0.38303 0.47952 0.51614 0.0
C994 C 0.33911 0.45651 0.5984 0.0
C995 C 0.33608 0.47472 0.48508 0.0
H996 H 0.24946 0.40708 0.54209 0.0
H997 H 0.24759 0.50258 0.56232 0.0
H998 H 0.32126 0.41011 0.511 0.0
H999 H 0.32047 0.40025 0.54983 0.0
H1000 H 0.29141 0.38553 0.52394 0.0
H1001 H 0.28864 0.53684 0.55656 0.0
H1002 H 0.31933 0.52051 0.57405 0.0
H1003 H 0.31803 0.52447 0.53392 0.0
H1004 H 0.39632 0.47097 0.5913 0.0
H1005 H 0.39422 0.4861 0.49585 0.0
H1006 H 0.32497 0.43513 0.59512 0.0
H1007 H 0.32487 0.47467 0.6051 0.0
H1008 H 0.35503 0.45393 0.61731 0.0
H1009 H 0.32063 0.45441 0.48083 0.0
H1010 H 0.35096 0.47677 0.46572 0.0
H1011 H 0.32296 0.49477 0.48604 0.0
C1012 C 0.91788 0.71478 0.93813 0.0
C1013 C 0.92075 0.7433 0.95336 0.0
C1014 C 0.92914 0.68937 0.95087 0.0
C1015 C 0.94392 0.69249 0.97952 0.0
C1016 C 0.94619 0.72104 0.99542 0.0
C1017 C 0.93448 0.74608 0.98222 0.0
C1018 C 0.92598 0.65935 0.93317 0.0
C1019 C 0.96189 0.72539 0.0259 0.0
C1020 C 0.95716 0.61736 0.015 0.0
C1021 C 0.98486 0.61205 0.00418 0.0
C1022 C 0.94411 0.64436 0.00877 0.0
C1023 C 0.95909 0.66643 0.99128 0.0
C1024 C 0.9879 0.66206 0.98232 0.0
C1025 C 0.00044 0.63509 0.98901 0.0
C1026 C 0.91352 0.64831 0.01913 0.0
C1027 C 0.00477 0.68487 0.96368 0.0
H1028 H 0.90687 0.71236 0.91606 0.0
H1029 H 0.9369 0.76809 0.99406 0.0
H1030 H 0.94787 0.65264 0.92672 0.0
H1031 H 0.91615 0.64141 0.94737 0.0
H1032 H 0.91221 0.66022 0.91221 0.0
H1033 H 0.9595 0.74819 0.03657 0.0
H1034 H 0.95345 0.70793 0.04143 0.0
H1035 H 0.9855 0.72253 0.02322 0.0
H1036 H 0.94491 0.59969 0.02663 0.0
H1037 H 0.02194 0.63129 0.98071 0.0
H1038 H 0.89806 0.64543 0.99933 0.0
H1039 H 0.91193 0.67147 0.02919 0.0
H1040 H 0.90655 0.63152 0.03603 0.0
H1041 H 0.99424 0.68519 0.94081 0.0
H1042 H 0.02785 0.67954 0.96099 0.0
H1043 H 0.00452 0.70799 0.97426 0.0
C1044 C 0.43644 0.79862 0.07431 0.0
C1045 C 0.42772 0.78884 0.10257 0.0
C1046 C 0.44412 0.82925 0.07004 0.0
C1047 C 0.44279 0.85067 0.09468 0.0
C1048 C 0.43336 0.84102 0.12315 0.0
C1049 C 0.42607 0.81006 0.12682 0.0
C1050 C 0.4542 0.83851 0.03921 0.0
C1051 C 0.43116 0.86326 0.14964 0.0
C1052 C 0.49451 0.91442 0.07438 0.0
C1053 C 0.47613 0.92873 0.05475 0.0
C1054 C 0.48314 0.89118 0.09219 0.0
C1055 C 0.45278 0.88272 0.09018 0.0
C1056 C 0.43381 0.90136 0.07512 0.0
C1057 C 0.44585 0.92426 0.05719 0.0
C1058 C 0.50421 0.87226 0.10828 0.0
C1059 C 0.40121 0.89386 0.07344 0.0
H1060 H 0.4379 0.78215 0.05567 0.0
H1061 H 0.4189 0.80244 0.14861 0.0
H1062 H 0.43996 0.85535 0.03008 0.0
H1063 H 0.4768 0.84932 0.04113 0.0
H1064 H 0.45388 0.81895 0.02259 0.0
H1065 H 0.42182 0.85224 0.16974 0.0
H1066 H 0.45311 0.8741 0.15611 0.0
H1067 H 0.41733 0.8816 0.14322 0.0
H1068 H 0.518 0.91809 0.07235 0.0
H1069 H 0.43171 0.93551 0.04193 0.0
H1070 H 0.50872 0.85259 0.09319 0.0
H1071 H 0.49496 0.86335 0.12935 0.0
H1072 H 0.5253 0.88548 0.11398 0.0
H1073 H 0.39576 0.87686 0.0546 0.0
H1074 H 0.38942 0.9143 0.06892 0.0
H1075 H 0.39328 0.88406 0.09469 0.0
C1076 C 0.03674 0.25775 0.51638 0.0
C1077 C 0.04917 0.26479 0.54538 0.0
C1078 C 0.03057 0.22739 0.50606 0.0
C1079 C 0.0374 0.20377 0.52508 0.0
C1080 C 0.05042 0.21093 0.55417 0.0
C1081 C 0.05599 0.2413 0.56396 0.0
C1082 C 0.01665 0.22058 0.47499 0.0
C1083 C 0.05856 0.1865 0.57507 0.0
C1084 C 0.00299 0.12392 0.52496 0.0
C1085 C 0.0266 0.10776 0.51615 0.0
C1086 C 0.00482 0.15569 0.52472 0.0
C1087 C 0.03088 0.17135 0.51537 0.0
C1088 C 0.05325 0.15476 0.50288 0.0
C1089 C 0.05095 0.12302 0.50374 0.0
C1090 C 0.98046 0.17243 0.5382 0.0
C1091 C 0.0812 0.17045 0.49223 0.0
H1092 H 0.03154 0.27597 0.50199 0.0
H1093 H 0.06619 0.24673 0.58612 0.0
H1094 H 0.03038 0.20597 0.46131 0.0
H1095 H 0.9951 0.20784 0.47703 0.0
H1096 H 0.01348 0.24151 0.46265 0.0
H1097 H 0.06872 0.19598 0.59685 0.0
H1098 H 0.03884 0.17173 0.5801 0.0
H1099 H 0.07417 0.172 0.5639 0.0
H1100 H 0.98442 0.11201 0.53508 0.0
H1101 H 0.06937 0.11041 0.49736 0.0
H1102 H 0.97636 0.19266 0.52519 0.0
H1103 H 0.98688 0.18039 0.56175 0.0
H1104 H 0.95984 0.15769 0.53887 0.0
H1105 H 0.07684 0.19109 0.47998 0.0
H1106 H 0.09309 0.1552 0.47715 0.0
H1107 H 0.09566 0.17757 0.51217 0.0
C1108 C 0.55631 0.26616 0.49034 0.0
C1109 C 0.57732 0.26952 0.46806 0.0
C1110 C 0.54364 0.29149 0.50297 0.0
C1111 C 0.55143 0.32059 0.49218 0.0
C1112 C 0.57358 0.32413 0.47055 0.0
C1113 C 0.58653 0.29853 0.45904 0.0
C1114 C 0.52091 0.28692 0.52676 0.0
C1115 C 0.58213 0.3546 0.45785 0.0
C1116 C 0.49352 0.37606 0.4841 0.0
C1117 C 0.50429 0.40018 0.50387 0.0
C1118 C 0.50808 0.34955 0.48103 0.0
C1119 C 0.53329 0.34628 0.49931 0.0
C1120 C 0.54246 0.36906 0.52175 0.0
C1121 C 0.52807 0.39606 0.52349 0.0
C1122 C 0.49792 0.32631 0.45622 0.0
C1123 C 0.56843 0.36564 0.54261 0.0
H1124 H 0.54958 0.24366 0.49759 0.0
H1125 H 0.60285 0.301 0.44182 0.0
H1126 H 0.52424 0.30478 0.54514 0.0
H1127 H 0.49885 0.28865 0.51645 0.0
H1128 H 0.52142 0.26436 0.53678 0.0
H1129 H 0.60125 0.35387 0.44302 0.0
H1130 H 0.56345 0.36214 0.4444 0.0
H1131 H 0.58741 0.37189 0.47641 0.0
H1132 H 0.47491 0.37882 0.46912 0.0
H1133 H 0.53651 0.41448 0.53887 0.0
H1134 H 0.49427 0.30353 0.46557 0.0
H1135 H 0.51507 0.32496 0.43906 0.0
H1136 H 0.47738 0.33189 0.44459 0.0
H1137 H 0.56633 0.34325 0.55308 0.0
H1138 H 0.57083 0.38374 0.56084 0.0
H1139 H 0.58872 0.36656 0.5295 0.0
loop_
_geom_bond_atom_site_label_1
_geom_bond_atom_site_label_2
_geom_bond_distance
_geom_bond_site_symmetry_2
_ccdc_geom_bond_type
C0 C1 1.384 . S
C0 H13 0.947 . S
C0 C35 1.382 . S
C1 C0 1.384 . S
C1 C2 1.378 . S
C2 C1 1.378 . S
C2 C3 1.378 . S
C2 H14 0.952 . S
C3 C2 1.378 . S
C3 H15 0.950 . S
C3 C34 1.383 . S
H4 C23 0.947 . S
H5 C24 0.946 . S
H6 C26 0.953 . S
H7 C27 0.945 . S
H8 C29 0.952 . S
H9 C30 0.949 . S
H10 C32 0.950 . S
H11 C33 0.948 . S
H12 C35 0.951 . S
H13 C0 0.947 . S
H14 C2 0.952 . S
H15 C3 0.950 . S
N16 C19 1.382 . S
N16 C21 1.363 . S
N17 C19 1.371 . S
N17 C20 1.372 . S
N18 C20 1.361 . S
N18 C21 1.377 . S
C19 N16 1.382 . S
C19 N17 1.371 . S
C19 C22 1.480 . S
C20 N17 1.372 . S
C20 N18 1.361 . S
C20 C28 1.457 . S
C21 N16 1.363 . S
C21 N18 1.377 . S
C21 C34 1.479 . S
C22 C19 1.480 . S
C22 C23 1.383 . S
C22 C27 1.385 . S
C23 H4 0.947 . S
C23 C22 1.383 . S
C23 C24 1.388 . S
C24 H5 0.946 . S
C24 C23 1.388 . S
C24 C25 1.384 . S
C25 C24 1.384 . S
C25 C26 1.377 . S
C26 H6 0.953 . S
C26 C25 1.377 . S
C26 C27 1.369 . S
C27 H7 0.945 . S
C27 C22 1.385 . S
C27 C26 1.369 . S
C28 C20 1.457 . S
C28 C29 1.372 . S
C28 C33 1.364 . S
C29 H8 0.952 . S
C29 C28 1.372 . S
C29 C30 1.389 . S
C30 H9 0.949 . S
C30 C29 1.389 . S
C30 C31 1.387 . S
C31 C30 1.387 . S
C31 C32 1.372 . S
C32 H10 0.950 . S
C32 C31 1.372 . S
C32 C33 1.379 . S
C33 H11 0.948 . S
C33 C28 1.364 . S
C33 C32 1.379 . S
C34 C3 1.383 . S
C34 C21 1.479 . S
C34 C35 1.398 . S
C35 C0 1.382 . S
C35 H12 0.951 . S
C35 C34 1.398 . S
C36 C37 1.384 . S
C36 H49 0.947 . S
C36 C71 1.382 . S
C37 C36 1.384 . S
C37 C38 1.378 . S
C38 C37 1.378 . S
C38 C39 1.378 . S
C38 H50 0.952 . S
C39 C38 1.378 . S
C39 H51 0.950 . S
C39 C70 1.383 . S
H40 C59 0.947 . S
H41 C60 0.946 . S
H42 C62 0.953 . S
H43 C63 0.945 . S
H44 C65 0.952 . S
H45 C66 0.949 . S
H46 C68 0.950 . S
H47 C69 0.948 . S
H48 C71 0.951 . S
H49 C36 0.947 . S
H50 C38 0.952 . S
H51 C39 0.950 . S
N52 C55 1.382 . S
N52 C57 1.363 . S
N53 C55 1.371 . S
N53 C56 1.372 . S
N54 C56 1.361 . S
N54 C57 1.377 . S
C55 N52 1.382 . S
C55 N53 1.371 . S
C55 C58 1.480 . S
C56 N53 1.372 . S
C56 N54 1.361 . S
C56 C64 1.457 . S
C57 N52 1.363 . S
C57 N54 1.377 . S
C57 C70 1.479 . S
C58 C55 1.480 . S
C58 C59 1.383 . S
C58 C63 1.385 . S
C59 H40 0.947 . S
C59 C58 1.383 . S
C59 C60 1.388 . S
C60 H41 0.946 . S
C60 C59 1.388 . S
C60 C61 1.384 . S
C61 C60 1.384 . S
C61 C62 1.377 . S
C62 H42 0.953 . S
C62 C61 1.377 . S
C62 C63 1.369 . S
C63 H43 0.945 . S
C63 C58 1.385 . S
C63 C62 1.369 . S
C64 C56 1.457 . S
C64 C65 1.372 . S
C64 C69 1.364 . S
C65 H44 0.952 . S
C65 C64 1.372 . S
C65 C66 1.389 . S
C66 H45 0.949 . S
C66 C65 1.389 . S
C66 C67 1.387 . S
C67 C66 1.387 . S
C67 C68 1.372 . S
C68 H46 0.950 . S
C68 C67 1.372 . S
C68 C69 1.379 . S
C69 H47 0.948 . S
C69 C64 1.364 . S
C69 C68 1.379 . S
C70 C39 1.383 . S
C70 C57 1.479 . S
C70 C71 1.398 . S
C71 C36 1.382 . S
C71 H48 0.951 . S
C71 C70 1.398 . S
C72 C73 1.384 . S
C72 H85 0.947 . S
C72 C107 1.382 . S
C73 C72 1.384 . S
C73 C74 1.378 . S
C74 C73 1.378 . S
C74 C75 1.378 . S
C74 H86 0.952 . S
C75 C74 1.378 . S
C75 H87 0.950 . S
C75 C106 1.383 . S
H76 C95 0.947 . S
H77 C96 0.946 . S
H78 C98 0.953 . S
H79 C99 0.945 . S
H80 C101 0.952 . S
H81 C102 0.949 . S
H82 C104 0.950 . S
H83 C105 0.948 . S
H84 C107 0.951 . S
H85 C72 0.947 . S
H86 C74 0.952 . S
H87 C75 0.950 . S
N88 C91 1.382 . S
N88 C93 1.363 . S
N89 C91 1.371 . S
N89 C92 1.372 . S
N90 C92 1.361 . S
N90 C93 1.377 . S
C91 N88 1.382 . S
C91 N89 1.371 . S
C91 C94 1.480 . S
C92 N89 1.372 . S
C92 N90 1.361 . S
C92 C100 1.457 . S
C93 N88 1.363 . S
C93 N90 1.377 . S
C93 C106 1.479 . S
C94 C91 1.480 . S
C94 C95 1.383 . S
C94 C99 1.385 . S
C95 H76 0.947 . S
C95 C94 1.383 . S
C95 C96 1.388 . S
C96 H77 0.946 . S
C96 C95 1.388 . S
C96 C97 1.384 . S
C97 C96 1.384 . S
C97 C98 1.377 . S
C98 H78 0.953 . S
C98 C97 1.377 . S
C98 C99 1.369 . S
C99 H79 0.945 . S
C99 C94 1.385 . S
C99 C98 1.369 . S
C100 C92 1.457 . S
C100 C101 1.372 . S
C100 C105 1.364 . S
C101 H80 0.952 . S
C101 C100 1.372 . S
C101 C102 1.389 . S
C102 H81 0.949 . S
C102 C101 1.389 . S
C102 C103 1.387 . S
C103 C102 1.387 . S
C103 C104 1.372 . S
C104 H82 0.950 . S
C104 C103 1.372 . S
C104 C105 1.379 . S
C105 H83 0.948 . S
C105 C100 1.364 . S
C105 C104 1.379 . S
C106 C75 1.383 . S
C106 C93 1.479 . S
C106 C107 1.398 . S
C107 C72 1.382 . S
C107 H84 0.951 . S
C107 C106 1.398 . S
C108 C109 1.384 . S
C108 H121 0.947 . S
C108 C143 1.382 . S
C109 C108 1.384 . S
C109 C110 1.378 . S
C110 C109 1.378 . S
C110 C111 1.378 . S
C110 H122 0.952 . S
C111 C110 1.378 . S
C111 H123 0.950 . S
C111 C142 1.383 . S
H112 C131 0.947 . S
H113 C132 0.946 . S
H114 C134 0.953 . S
H115 C135 0.945 . S
H116 C137 0.952 . S
H117 C138 0.949 . S
H118 C140 0.950 . S
H119 C141 0.948 . S
H120 C143 0.951 . S
H121 C108 0.947 . S
H122 C110 0.952 . S
H123 C111 0.950 . S
N124 C127 1.382 . S
N124 C129 1.363 . S
N125 C127 1.371 . S
N125 C128 1.372 . S
N126 C128 1.361 . S
N126 C129 1.377 . S
C127 N124 1.382 . S
C127 N125 1.371 . S
C127 C130 1.480 . S
C128 N125 1.372 . S
C128 N126 1.361 . S
C128 C136 1.457 . S
C129 N124 1.363 . S
C129 N126 1.377 . S
C129 C142 1.479 . S
C130 C127 1.480 . S
C130 C131 1.383 . S
C130 C135 1.385 . S
C131 H112 0.947 . S
C131 C130 1.383 . S
C131 C132 1.388 . S
C132 H113 0.946 . S
C132 C131 1.388 . S
C132 C133 1.384 . S
C133 C132 1.384 . S
C133 C134 1.377 . S
C134 H114 0.953 . S
C134 C133 1.377 . S
C134 C135 1.369 . S
C135 H115 0.945 . S
C135 C130 1.385 . S
C135 C134 1.369 . S
C136 C128 1.457 . S
C136 C137 1.372 . S
C136 C141 1.364 . S
C137 H116 0.952 . S
C137 C136 1.372 . S
C137 C138 1.389 . S
C138 H117 0.949 . S
C138 C137 1.389 . S
C138 C139 1.387 . S
C139 C138 1.387 . S
C139 C140 1.372 . S
C140 H118 0.950 . S
C140 C139 1.372 . S
C140 C141 1.379 . S
C141 H119 0.948 . S
C141 C136 1.364 . S
C141 C140 1.379 . S
C142 C111 1.383 . S
C142 C129 1.479 . S
C142 C143 1.398 . S
C143 C108 1.382 . S
C143 H120 0.951 . S
C143 C142 1.398 . S
C144 C145 1.384 . S
C144 H157 0.947 . S
C144 C179 1.382 . S
C145 C144 1.384 . S
C145 C146 1.378 . S
C146 C145 1.378 . S
C146 C147 1.378 . S
C146 H158 0.952 . S
C147 C146 1.378 . S
C147 H159 0.950 . S
C147 C178 1.383 . S
H148 C167 0.947 . S
H149 C168 0.946 . S
H150 C170 0.953 . S
H151 C171 0.945 . S
H152 C173 0.952 . S
H153 C174 0.949 . S
H154 C176 0.950 . S
H155 C177 0.948 . S
H156 C179 0.951 . S
H157 C144 0.947 . S
H158 C146 0.952 . S
H159 C147 0.950 . S
N160 C163 1.382 . S
N160 C165 1.363 . S
N161 C163 1.371 . S
N161 C164 1.372 . S
N162 C164 1.361 . S
N162 C165 1.377 . S
C163 N160 1.382 . S
C163 N161 1.371 . S
C163 C166 1.480 . S
C164 N161 1.372 . S
C164 N162 1.361 . S
C164 C172 1.457 . S
C165 N160 1.363 . S
C165 N162 1.377 . S
C165 C178 1.479 . S
C166 C163 1.480 . S
C166 C167 1.383 . S
C166 C171 1.385 . S
C167 H148 0.947 . S
C167 C166 1.383 . S
C167 C168 1.388 . S
C168 H149 0.946 . S
C168 C167 1.388 . S
C168 C169 1.384 . S
C169 C168 1.384 . S
C169 C170 1.377 . S
C170 H150 0.953 . S
C170 C169 1.377 . S
C170 C171 1.369 . S
C171 H151 0.945 . S
C171 C166 1.385 . S
C171 C170 1.369 . S
C172 C164 1.457 . S
C172 C173 1.372 . S
C172 C177 1.364 . S
C173 H152 0.952 . S
C173 C172 1.372 . S
C173 C174 1.389 . S
C174 H153 0.949 . S
C174 C173 1.389 . S
C174 C175 1.387 . S
C175 C174 1.387 . S
C175 C176 1.372 . S
C176 H154 0.950 . S
C176 C175 1.372 . S
C176 C177 1.379 . S
C177 H155 0.948 . S
C177 C172 1.364 . S
C177 C176 1.379 . S
C178 C147 1.383 . S
C178 C165 1.479 . S
C178 C179 1.398 . S
C179 C144 1.382 . S
C179 H156 0.951 . S
C179 C178 1.398 . S
C180 C181 1.384 . S
C180 H193 0.947 . S
C180 C215 1.382 . S
C181 C180 1.384 . S
C181 C182 1.378 . S
C182 C181 1.378 . S
C182 C183 1.378 . S
C182 H194 0.952 . S
C183 C182 1.378 . S
C183 H195 0.950 . S
C183 C214 1.383 . S
H184 C203 0.947 . S
H185 C204 0.946 . S
H186 C206 0.953 . S
H187 C207 0.945 . S
H188 C209 0.952 . S
H189 C210 0.949 . S
H190 C212 0.950 . S
H191 C213 0.948 . S
H192 C215 0.951 . S
H193 C180 0.947 . S
H194 C182 0.952 . S
H195 C183 0.950 . S
N196 C199 1.382 . S
N196 C201 1.363 . S
N197 C199 1.371 . S
N197 C200 1.372 . S
N198 C200 1.361 . S
N198 C201 1.377 . S
C199 N196 1.382 . S
C199 N197 1.371 . S
C199 C202 1.480 . S
C200 N197 1.372 . S
C200 N198 1.361 . S
C200 C208 1.457 . S
C201 N196 1.363 . S
C201 N198 1.377 . S
C201 C214 1.479 . S
C202 C199 1.480 . S
C202 C203 1.383 . S
C202 C207 1.385 . S
C203 H184 0.947 . S
C203 C202 1.383 . S
C203 C204 1.388 . S
C204 H185 0.946 . S
C204 C203 1.388 . S
C204 C205 1.384 . S
C205 C204 1.384 . S
C205 C206 1.377 . S
C206 H186 0.953 . S
C206 C205 1.377 . S
C206 C207 1.369 . S
C207 H187 0.945 . S
C207 C202 1.385 . S
C207 C206 1.369 . S
C208 C200 1.457 . S
C208 C209 1.372 . S
C208 C213 1.364 . S
C209 H188 0.952 . S
C209 C208 1.372 . S
C209 C210 1.389 . S
C210 H189 0.949 . S
C210 C209 1.389 . S
C210 C211 1.387 . S
C211 C210 1.387 . S
C211 C212 1.372 . S
C212 H190 0.950 . S
C212 C211 1.372 . S
C212 C213 1.379 . S
C213 H191 0.948 . S
C213 C208 1.364 . S
C213 C212 1.379 . S
C214 C183 1.383 . S
C214 C201 1.479 . S
C214 C215 1.398 . S
C215 C180 1.382 . S
C215 H192 0.951 . S
C215 C214 1.398 . S
C216 C217 1.384 . S
C216 H229 0.947 . S
C216 C251 1.382 . S
C217 C216 1.384 . S
C217 C218 1.378 . S
C218 C217 1.378 . S
C218 C219 1.378 . S
C218 H230 0.952 . S
C219 C218 1.378 . S
C219 H231 0.950 . S
C219 C250 1.383 . S
H220 C239 0.947 . S
H221 C240 0.946 . S
H222 C242 0.953 . S
H223 C243 0.945 . S
H224 C245 0.952 . S
H225 C246 0.949 . S
H226 C248 0.950 . S
H227 C249 0.948 . S
H228 C251 0.951 . S
H229 C216 0.947 . S
H230 C218 0.952 . S
H231 C219 0.950 . S
N232 C235 1.382 . S
N232 C237 1.363 . S
N233 C235 1.371 . S
N233 C236 1.372 . S
N234 C236 1.361 . S
N234 C237 1.377 . S
C235 N232 1.382 . S
C235 N233 1.371 . S
C235 C238 1.480 . S
C236 N233 1.372 . S
C236 N234 1.361 . S
C236 C244 1.457 . S
C237 N232 1.363 . S
C237 N234 1.377 . S
C237 C250 1.479 . S
C238 C235 1.480 . S
C238 C239 1.383 . S
C238 C243 1.385 . S
C239 H220 0.947 . S
C239 C238 1.383 . S
C239 C240 1.388 . S
C240 H221 0.946 . S
C240 C239 1.388 . S
C240 C241 1.384 . S
C241 C240 1.384 . S
C241 C242 1.377 . S
C242 H222 0.953 . S
C242 C241 1.377 . S
C242 C243 1.369 . S
C243 H223 0.945 . S
C243 C238 1.385 . S
C243 C242 1.369 . S
C244 C236 1.457 . S
C244 C245 1.372 . S
C244 C249 1.364 . S
C245 H224 0.952 . S
C245 C244 1.372 . S
C245 C246 1.389 . S
C246 H225 0.949 . S
C246 C245 1.389 . S
C246 C247 1.387 . S
C247 C246 1.387 . S
C247 C248 1.372 . S
C248 H226 0.950 . S
C248 C247 1.372 . S
C248 C249 1.379 . S
C249 H227 0.948 . S
C249 C244 1.364 . S
C249 C248 1.379 . S
C250 C219 1.383 . S
C250 C237 1.479 . S
C250 C251 1.398 . S
C251 C216 1.382 . S
C251 H228 0.951 . S
C251 C250 1.398 . S
C252 C253 1.384 . S
C252 H265 0.947 . S
C252 C287 1.382 . S
C253 C252 1.384 . S
C253 C254 1.378 . S
C254 C253 1.378 . S
C254 C255 1.378 . S
C254 H266 0.952 . S
C255 C254 1.378 . S
C255 H267 0.950 . S
C255 C286 1.383 . S
H256 C275 0.947 . S
H257 C276 0.946 . S
H258 C278 0.953 . S
H259 C279 0.945 . S
H260 C281 0.952 . S
H261 C282 0.949 . S
H262 C284 0.950 . S
H263 C285 0.948 . S
H264 C287 0.951 . S
H265 C252 0.947 . S
H266 C254 0.952 . S
H267 C255 0.950 . S
N268 C271 1.382 . S
N268 C273 1.363 . S
N269 C271 1.371 . S
N269 C272 1.372 . S
N270 C272 1.361 . S
N270 C273 1.377 . S
C271 N268 1.382 . S
C271 N269 1.371 . S
C271 C274 1.480 . S
C272 N269 1.372 . S
C272 N270 1.361 . S
C272 C280 1.457 . S
C273 N268 1.363 . S
C273 N270 1.377 . S
C273 C286 1.479 . S
C274 C271 1.480 . S
C274 C275 1.383 . S
C274 C279 1.385 . S
C275 H256 0.947 . S
C275 C274 1.383 . S
C275 C276 1.388 . S
C276 H257 0.946 . S
C276 C275 1.388 . S
C276 C277 1.384 . S
C277 C276 1.384 . S
C277 C278 1.377 . S
C278 H258 0.953 . S
C278 C277 1.377 . S
C278 C279 1.369 . S
C279 H259 0.945 . S
C279 C274 1.385 . S
C279 C278 1.369 . S
C280 C272 1.457 . S
C280 C281 1.372 . S
C280 C285 1.364 . S
C281 H260 0.952 . S
C281 C280 1.372 . S
C281 C282 1.389 . S
C282 H261 0.949 . S
C282 C281 1.389 . S
C282 C283 1.387 . S
C283 C282 1.387 . S
C283 C284 1.372 . S
C284 H262 0.950 . S
C284 C283 1.372 . S
C284 C285 1.379 . S
C285 H263 0.948 . S
C285 C280 1.364 . S
C285 C284 1.379 . S
C286 C255 1.383 . S
C286 C273 1.479 . S
C286 C287 1.398 . S
C287 C252 1.382 . S
C287 H264 0.951 . S
C287 C286 1.398 . S
O288 Mg289 1.990 . S
O288 C302 1.253 1_445 S
Mg289 O288 1.990 . S
Mg289 O292 2.180 . S
Mg289 O293 2.117 . S
Mg289 O307 2.030 1_545 S
O290 Mg291 2.072 1_665 S
O290 C302 1.260 . S
Mg291 O290 2.072 1_445 S
Mg291 O292 2.099 . S
Mg291 O294 2.079 . S
Mg291 O295 2.072 1_455 S
Mg291 O297 2.099 1_445 S
Mg291 O308 2.079 1_545 S
O292 Mg289 2.180 . S
O292 Mg291 2.099 . S
O292 C303 1.279 . S
O293 Mg289 2.117 . S
O293 C303 1.250 . S
O294 Mg291 2.079 . S
O294 C304 1.264 . S
O295 Mg291 2.072 1_655 S
O295 C305 1.260 . S
Mg296 O297 2.180 . S
Mg296 O298 2.030 1_565 S
Mg296 O299 1.990 1_565 S
Mg296 O300 2.117 . S
O297 Mg291 2.099 1_665 S
O297 Mg296 2.180 . S
O297 C306 1.279 . S
O298 Mg296 2.030 1_545 S
O298 C304 1.248 1_655 S
O299 Mg296 1.990 1_545 S
O299 C305 1.253 . S
O300 Mg296 2.117 . S
O300 C306 1.250 . S
C301 O307 1.248 . S
C301 O308 1.264 . S
C302 O288 1.253 1_665 S
C302 O290 1.260 . S
C303 O292 1.279 . S
C303 O293 1.250 . S
C304 O294 1.264 . S
C304 O298 1.248 1_455 S
C305 O295 1.260 . S
C305 O299 1.253 . S
C306 O297 1.279 . S
C306 O300 1.250 . S
O307 Mg289 2.030 1_565 S
O307 C301 1.248 . S
O308 Mg291 2.079 1_565 S
O308 C301 1.264 . S
O309 Mg310 1.990 . S
O309 C323 1.253 . S
Mg310 O309 1.990 . S
Mg310 O313 2.163 1_554 S
Mg310 O314 2.117 1_554 S
Mg310 O328 2.030 . S
O311 Mg312 2.072 . S
O311 C323 1.260 . S
Mg312 O311 2.072 . S
Mg312 O313 2.094 1_554 S
Mg312 O315 2.079 1_554 S
Mg312 O316 2.072 1_554 S
Mg312 O318 2.099 1_545 S
Mg312 O329 2.079 . S
O313 Mg310 2.163 1_556 S
O313 Mg312 2.094 1_556 S
O313 C324 1.296 . S
O314 Mg310 2.117 1_556 S
O314 C324 1.250 . S
O315 Mg312 2.079 1_556 S
O315 C325 1.264 1_545 S
O316 Mg312 2.072 1_556 S
O316 C326 1.260 1_545 S
Mg317 O318 2.180 1_556 S
Mg317 O319 2.030 . S
Mg317 O320 1.990 . S
Mg317 O321 2.117 1_556 S
O318 Mg312 2.099 1_565 S
O318 Mg317 2.180 1_554 S
O318 C327 1.279 . S
O319 Mg317 2.030 . S
O319 C325 1.248 . S
O320 Mg317 1.990 . S
O320 C326 1.253 . S
O321 Mg317 2.117 1_554 S
O321 C327 1.250 . S
C322 O328 1.248 . S
C322 O329 1.264 . S
C323 O309 1.253 . S
C323 O311 1.260 . S
C324 O313 1.296 . S
C324 O314 1.250 . S
C325 O315 1.264 1_565 S
C325 O319 1.248 . S
C326 O316 1.260 1_565 S
C326 O320 1.253 . S
C327 O318 1.279 . S
C327 O321 1.250 . S
O328 Mg310 2.030 . S
O328 C322 1.248 . S
O329 Mg312 2.079 . S
O329 C322 1.264 . S
O330 Mg331 1.990 . S
O330 C344 1.253 . S
Mg331 O330 1.990 . S
Mg331 O334 2.180 . S
Mg331 O335 2.117 . S
Mg331 O349 2.030 . S
O332 Mg333 2.072 . S
O332 C344 1.260 . S
Mg333 O332 2.072 . S
Mg333 O334 2.099 . S
Mg333 O336 2.079 . S
Mg333 O337 2.072 . S
Mg333 O339 2.099 . S
Mg333 O350 2.079 . S
O334 Mg331 2.180 . S
O334 Mg333 2.099 . S
O334 C345 1.279 . S
O335 Mg331 2.117 . S
O335 C345 1.250 . S
O336 Mg333 2.079 . S
O336 C346 1.264 . S
O337 Mg333 2.072 . S
O337 C347 1.260 . S
Mg338 O339 2.180 . S
Mg338 O340 2.030 . S
Mg338 O341 1.990 . S
Mg338 O342 2.117 . S
O339 Mg333 2.099 . S
O339 Mg338 2.180 . S
O339 C348 1.279 . S
O340 Mg338 2.030 . S
O340 C346 1.248 . S
O341 Mg338 1.990 . S
O341 C347 1.253 . S
O342 Mg338 2.117 . S
O342 C348 1.250 . S
C343 O349 1.248 . S
C343 O350 1.264 . S
C344 O330 1.253 . S
C344 O332 1.260 . S
C345 O334 1.279 . S
C345 O335 1.250 . S
C346 O336 1.264 . S
C346 O340 1.248 . S
C347 O337 1.260 . S
C347 O341 1.253 . S
C348 O339 1.279 . S
C348 O342 1.250 . S
O349 Mg331 2.030 . S
O349 C343 1.248 . S
O350 Mg333 2.079 . S
O350 C343 1.264 . S
O351 Mg352 1.990 . S
O351 C365 1.253 . S
Mg352 O351 1.990 . S
Mg352 O355 2.180 1_455 S
Mg352 O356 2.117 1_455 S
Mg352 O370 2.030 . S
O353 Mg354 2.072 . S
O353 C365 1.260 . S
Mg354 O353 2.072 . S
Mg354 O355 2.099 1_455 S
Mg354 O357 2.079 1_454 S
Mg354 O358 2.072 1_455 S
Mg354 O360 2.099 1_554 S
Mg354 O371 2.079 . S
O355 Mg352 2.180 1_655 S
O355 Mg354 2.099 1_655 S
O355 C366 1.279 . S
O356 Mg352 2.117 1_655 S
O356 C366 1.250 . S
O357 Mg354 2.079 1_656 S
O357 C367 1.264 . S
O358 Mg354 2.072 1_655 S
O358 C368 1.260 1_554 S
Mg359 O360 2.180 1_655 S
Mg359 O361 2.030 . S
Mg359 O362 1.990 . S
Mg359 O363 2.117 . S
O360 Mg354 2.099 1_556 S
O360 Mg359 2.180 1_455 S
O360 C369 1.279 . S
O361 Mg359 2.030 . S
O361 C367 1.248 . S
O362 Mg359 1.990 . S
O362 C368 1.253 . S
O363 Mg359 2.117 . S
O363 C369 1.250 1_655 S
C364 O370 1.248 . S
C364 O371 1.264 . S
C365 O351 1.253 . S
C365 O353 1.260 . S
C366 O355 1.279 . S
C366 O356 1.250 . S
C367 O357 1.264 . S
C367 O361 1.248 . S
C368 O358 1.260 1_556 S
C368 O362 1.253 . S
C369 O360 1.279 . S
C369 O363 1.250 1_455 S
O370 Mg352 2.030 . S
O370 C364 1.248 . S
O371 Mg354 2.079 . S
O371 C364 1.264 . S
C372 C373 1.391 . S
C372 C374 1.394 . S
C372 H388 0.931 . S
C373 C372 1.391 . S
C373 C377 1.376 . S
C374 C372 1.394 . S
C374 C375 1.369 . S
C374 C378 1.531 . S
C375 C374 1.369 . S
C375 C376 1.410 . S
C375 C383 1.503 . S
C376 C375 1.410 . S
C376 C377 1.392 . S
C376 C379 1.511 . S
C377 C373 1.376 . S
C377 C376 1.392 . S
C377 H389 0.929 . S
C378 C374 1.531 . S
C378 H390 0.960 . S
C378 H391 0.962 . S
C378 H392 0.960 . S
C379 C376 1.511 . S
C379 H393 0.961 . S
C379 H394 0.961 . S
C379 H395 0.961 . S
C380 C381 1.370 . S
C380 C382 1.363 . S
C380 H396 0.931 . S
C381 C380 1.370 . S
C381 C385 1.408 . S
C382 C380 1.363 . S
C382 C383 1.370 . S
C382 C386 1.524 . S
C383 C375 1.503 . S
C383 C382 1.370 . S
C383 C384 1.403 . S
C384 C383 1.403 . S
C384 C385 1.404 . S
C384 C387 1.539 . S
C385 C381 1.408 . S
C385 C384 1.404 . S
C385 H397 0.930 . S
C386 C382 1.524 . S
C386 H398 0.956 . S
C386 H399 0.961 . S
C386 H400 0.975 . S
C387 C384 1.539 . S
C387 H401 0.958 . S
C387 H402 0.961 . S
C387 H403 0.960 . S
H388 C372 0.931 . S
H389 C377 0.929 . S
H390 C378 0.960 . S
H391 C378 0.962 . S
H392 C378 0.960 . S
H393 C379 0.961 . S
H394 C379 0.961 . S
H395 C379 0.961 . S
H396 C380 0.931 . S
H397 C385 0.930 . S
H398 C386 0.956 . S
H399 C386 0.961 . S
H400 C386 0.975 . S
H401 C387 0.958 . S
H402 C387 0.961 . S
H403 C387 0.960 . S
C404 C405 1.391 . S
C404 C406 1.394 . S
C404 H420 0.931 . S
C405 C404 1.391 . S
C405 C409 1.376 . S
C406 C404 1.394 . S
C406 C407 1.369 . S
C406 C410 1.531 . S
C407 C406 1.369 . S
C407 C408 1.410 . S
C407 C415 1.503 . S
C408 C407 1.410 . S
C408 C409 1.392 . S
C408 C411 1.511 . S
C409 C405 1.376 . S
C409 C408 1.392 . S
C409 H421 0.929 . S
C410 C406 1.531 . S
C410 H422 0.960 . S
C410 H423 0.962 . S
C410 H424 0.960 . S
C411 C408 1.511 . S
C411 H425 0.961 . S
C411 H426 0.961 . S
C411 H427 0.961 . S
C412 C413 1.370 1_545 S
C412 C414 1.363 1_545 S
C412 H428 0.931 . S
C413 C412 1.370 1_565 S
C413 C417 1.408 . S
C414 C412 1.363 1_565 S
C414 C415 1.370 . S
C414 C418 1.524 1_565 S
C415 C407 1.503 . S
C415 C414 1.370 . S
C415 C416 1.403 . S
C416 C415 1.403 . S
C416 C417 1.404 . S
C416 C419 1.539 . S
C417 C413 1.408 . S
C417 C416 1.404 . S
C417 H429 0.930 . S
C418 C414 1.524 1_545 S
C418 H430 0.956 . S
C418 H431 0.961 . S
C418 H432 0.961 . S
C419 C416 1.539 . S
C419 H433 0.958 . S
C419 H434 0.961 . S
C419 H435 0.960 . S
H420 C404 0.931 . S
H421 C409 0.929 . S
H422 C410 0.960 . S
H423 C410 0.962 . S
H424 C410 0.960 . S
H425 C411 0.961 . S
H426 C411 0.961 . S
H427 C411 0.961 . S
H428 C412 0.931 . S
H429 C417 0.930 . S
H430 C418 0.956 . S
H431 C418 0.961 . S
H432 C418 0.961 . S
H433 C419 0.958 . S
H434 C419 0.961 . S
H435 C419 0.960 . S
C436 C437 1.391 . S
C436 C438 1.394 . S
C436 H452 0.931 . S
C437 C436 1.391 . S
C437 C441 1.376 . S
C438 C436 1.394 . S
C438 C439 1.369 . S
C438 C442 1.531 . S
C439 C438 1.369 . S
C439 C440 1.410 . S
C439 C447 1.503 . S
C440 C439 1.410 . S
C440 C441 1.392 . S
C440 C443 1.511 . S
C441 C437 1.376 . S
C441 C440 1.392 . S
C441 H453 0.929 . S
C442 C438 1.531 . S
C442 H454 0.960 . S
C442 H455 0.962 . S
C442 H456 0.960 . S
C443 C440 1.511 . S
C443 H457 0.961 . S
C443 H458 0.961 . S
C443 H459 0.961 . S
C444 C445 1.370 . S
C444 C446 1.363 . S
C444 H460 0.931 . S
C445 C444 1.370 . S
C445 C449 1.408 . S
C446 C444 1.363 . S
C446 C447 1.370 . S
C446 C450 1.524 . S
C447 C439 1.503 . S
C447 C446 1.370 . S
C447 C448 1.403 . S
C448 C447 1.403 . S
C448 C449 1.404 . S
C448 C451 1.539 . S
C449 C445 1.408 . S
C449 C448 1.404 . S
C449 H461 0.930 . S
C450 C446 1.524 . S
C450 H462 0.956 . S
C450 H463 0.961 . S
C450 H464 0.961 . S
C451 C448 1.539 . S
C451 H465 0.958 . S
C451 H466 0.961 . S
C451 H467 0.960 . S
H452 C436 0.931 . S
H453 C441 0.929 . S
H454 C442 0.960 . S
H455 C442 0.962 . S
H456 C442 0.960 . S
H457 C443 0.961 . S
H458 C443 0.961 . S
H459 C443 0.961 . S
H460 C444 0.931 . S
H461 C449 0.930 . S
H462 C450 0.956 . S
H463 C450 0.961 . S
H464 C450 0.961 . S
H465 C451 0.958 . S
H466 C451 0.961 . S
H467 C451 0.960 . S
C468 C469 1.391 . S
C468 C470 1.394 . S
C468 H484 0.931 . S
C469 C468 1.391 . S
C469 C473 1.376 . S
C470 C468 1.394 . S
C470 C471 1.369 . S
C470 C474 1.531 . S
C471 C470 1.369 . S
C471 C472 1.410 . S
C471 C479 1.503 . S
C472 C471 1.410 . S
C472 C473 1.392 . S
C472 C475 1.511 . S
C473 C469 1.376 . S
C473 C472 1.392 . S
C473 H485 0.929 . S
C474 C470 1.531 . S
C474 H486 0.960 . S
C474 H487 0.962 . S
C474 H488 0.960 . S
C475 C472 1.511 . S
C475 H489 0.961 1_655 S
C475 H490 0.961 . S
C475 H491 0.961 1_655 S
C476 C477 1.370 . S
C476 C478 1.363 . S
C476 H492 0.931 . S
C477 C476 1.370 . S
C477 C481 1.408 . S
C478 C476 1.363 . S
C478 C479 1.370 . S
C478 C482 1.524 . S
C479 C471 1.503 . S
C479 C478 1.370 . S
C479 C480 1.403 . S
C480 C479 1.403 . S
C480 C481 1.404 . S
C480 C483 1.539 . S
C481 C477 1.408 . S
C481 C480 1.404 . S
C481 H493 0.930 . S
C482 C478 1.524 . S
C482 H494 0.956 . S
C482 H495 0.961 . S
C482 H496 0.961 . S
C483 C480 1.539 . S
C483 H497 0.958 . S
C483 H498 0.961 . S
C483 H499 0.960 . S
H484 C468 0.931 . S
H485 C473 0.929 . S
H486 C474 0.960 . S
H487 C474 0.962 . S
H488 C474 0.960 . S
H489 C475 0.961 1_455 S
H490 C475 0.961 . S
H491 C475 0.961 1_455 S
H492 C476 0.931 . S
H493 C481 0.930 . S
H494 C482 0.956 . S
H495 C482 0.961 . S
H496 C482 0.961 . S
H497 C483 0.958 . S
H498 C483 0.961 . S
H499 C483 0.960 . S
C500 C501 1.391 . S
C500 C502 1.394 . S
C500 H516 0.931 . S
C501 C500 1.391 . S
C501 C505 1.376 . S
C502 C500 1.394 . S
C502 C503 1.369 . S
C502 C506 1.531 . S
C503 C502 1.369 . S
C503 C504 1.410 . S
C503 C511 1.503 . S
C504 C503 1.410 . S
C504 C505 1.392 . S
C504 C507 1.511 . S
C505 C501 1.376 . S
C505 C504 1.392 . S
C505 H517 0.929 . S
C506 C502 1.531 . S
C506 H518 0.960 . S
C506 H519 0.962 . S
C506 H520 0.968 . S
C507 C504 1.511 . S
C507 H521 0.961 . S
C507 H522 0.961 . S
C507 H523 0.961 . S
C508 C509 1.370 . S
C508 C510 1.363 . S
C508 H524 0.931 . S
C509 C508 1.370 . S
C509 C513 1.408 . S
C510 C508 1.363 . S
C510 C511 1.370 . S
C510 C514 1.524 . S
C511 C503 1.503 . S
C511 C510 1.370 . S
C511 C512 1.403 . S
C512 C511 1.403 . S
C512 C513 1.404 . S
C512 C515 1.539 1_554 S
C513 C509 1.408 . S
C513 C512 1.404 . S
C513 H525 0.930 1_554 S
C514 C510 1.524 . S
C514 H526 0.956 . S
C514 H527 0.961 . S
C514 H528 0.961 . S
C515 C512 1.539 1_556 S
C515 H529 0.958 . S
C515 H530 0.961 . S
C515 H531 0.960 . S
H516 C500 0.931 . S
H517 C505 0.929 . S
H518 C506 0.960 . S
H519 C506 0.962 . S
H520 C506 0.968 . S
H521 C507 0.961 . S
H522 C507 0.961 . S
H523 C507 0.961 . S
H524 C508 0.931 . S
H525 C513 0.930 1_556 S
H526 C514 0.956 . S
H527 C514 0.961 . S
H528 C514 0.961 . S
H529 C515 0.958 . S
H530 C515 0.961 . S
H531 C515 0.960 . S
C532 C533 1.391 . S
C532 C534 1.394 . S
C532 H548 0.931 . S
C533 C532 1.391 . S
C533 C537 1.376 . S
C534 C532 1.394 . S
C534 C535 1.369 . S
C534 C538 1.531 1_565 S
C535 C534 1.369 . S
C535 C536 1.410 . S
C535 C543 1.503 . S
C536 C535 1.410 . S
C536 C537 1.392 . S
C536 C539 1.511 . S
C537 C533 1.376 . S
C537 C536 1.392 . S
C537 H549 0.929 . S
C538 C534 1.531 1_545 S
C538 H550 0.960 . S
C538 H551 0.962 . S
C538 H552 0.960 . S
C539 C536 1.511 . S
C539 H553 0.961 . S
C539 H554 0.961 . S
C539 H555 0.961 . S
C540 C541 1.370 . S
C540 C542 1.363 . S
C540 H556 0.931 . S
C541 C540 1.370 . S
C541 C545 1.408 . S
C542 C540 1.363 . S
C542 C543 1.370 . S
C542 C546 1.524 . S
C543 C535 1.503 . S
C543 C542 1.370 . S
C543 C544 1.403 . S
C544 C543 1.403 . S
C544 C545 1.404 . S
C544 C547 1.539 . S
C545 C541 1.408 . S
C545 C544 1.404 . S
C545 H557 0.930 . S
C546 C542 1.524 . S
C546 H558 0.956 . S
C546 H559 0.961 . S
C546 H560 0.961 . S
C547 C544 1.539 . S
C547 H561 0.958 . S
C547 H562 0.961 . S
C547 H563 0.960 . S
H548 C532 0.931 . S
H549 C537 0.929 . S
H550 C538 0.960 . S
H551 C538 0.962 . S
H552 C538 0.960 . S
H553 C539 0.961 . S
H554 C539 0.961 . S
H555 C539 0.961 . S
H556 C540 0.931 . S
H557 C545 0.930 . S
H558 C546 0.956 . S
H559 C546 0.961 . S
H560 C546 0.961 . S
H561 C547 0.958 . S
H562 C547 0.961 . S
H563 C547 0.960 . S
C564 C565 1.391 . S
C564 C566 1.394 . S
C564 H580 0.931 . S
C565 C564 1.391 . S
C565 C569 1.376 . S
C566 C564 1.394 . S
C566 C567 1.369 . S
C566 C570 1.531 . S
C567 C566 1.369 . S
C567 C568 1.410 . S
C567 C575 1.503 . S
C568 C567 1.410 . S
C568 C569 1.392 . S
C568 C571 1.511 . S
C569 C565 1.376 . S
C569 C568 1.392 . S
C569 H581 0.929 . S
C570 C566 1.531 . S
C570 H582 0.960 . S
C570 H583 0.962 . S
C570 H584 0.960 . S
C571 C568 1.511 . S
C571 H585 0.961 . S
C571 H586 0.961 . S
C571 H587 0.961 1_556 S
C572 C573 1.370 . S
C572 C574 1.363 . S
C572 H588 0.931 . S
C573 C572 1.370 . S
C573 C577 1.408 . S
C574 C572 1.363 . S
C574 C575 1.370 . S
C574 C578 1.524 . S
C575 C567 1.503 . S
C575 C574 1.370 . S
C575 C576 1.403 . S
C576 C575 1.403 . S
C576 C577 1.404 . S
C576 C579 1.539 1_556 S
C577 C573 1.408 . S
C577 C576 1.404 . S
C577 H589 0.930 1_556 S
C578 C574 1.524 . S
C578 H590 0.956 . S
C578 H591 0.961 . S
C578 H592 0.961 . S
C579 C576 1.539 1_554 S
C579 H593 0.958 1_554 S
C579 H594 0.961 . S
C579 H595 0.960 . S
H580 C564 0.931 . S
H581 C569 0.929 . S
H582 C570 0.960 . S
H583 C570 0.962 . S
H584 C570 0.960 . S
H585 C571 0.961 . S
H586 C571 0.961 . S
H587 C571 0.961 1_554 S
H588 C572 0.931 . S
H589 C577 0.930 1_554 S
H590 C578 0.956 . S
H591 C578 0.961 . S
H592 C578 0.961 . S
H593 C579 0.958 1_556 S
H594 C579 0.961 . S
H595 C579 0.960 . S
C596 C597 1.391 . S
C596 C598 1.394 . S
C596 H612 0.931 . S
C597 C596 1.391 . S
C597 C601 1.376 . S
C598 C596 1.394 . S
C598 C599 1.369 . S
C598 C602 1.531 . S
C599 C598 1.369 . S
C599 C600 1.410 . S
C599 C607 1.503 . S
C600 C599 1.410 . S
C600 C601 1.392 . S
C600 C603 1.511 . S
C601 C597 1.376 . S
C601 C600 1.392 . S
C601 H613 0.929 . S
C602 C598 1.531 . S
C602 H614 0.960 . S
C602 H615 0.962 . S
C602 H616 0.960 . S
C603 C600 1.511 . S
C603 H617 0.961 . S
C603 H618 0.961 . S
C603 H619 0.961 . S
C604 C605 1.370 . S
C604 C606 1.363 . S
C604 H620 0.931 . S
C605 C604 1.370 . S
C605 C609 1.408 . S
C606 C604 1.363 . S
C606 C607 1.370 . S
C606 C610 1.524 . S
C607 C599 1.503 . S
C607 C606 1.370 . S
C607 C608 1.403 . S
C608 C607 1.403 . S
C608 C609 1.404 . S
C608 C611 1.539 . S
C609 C605 1.408 . S
C609 C608 1.404 . S
C609 H621 0.930 . S
C610 C606 1.524 . S
C610 H622 0.956 . S
C610 H623 0.961 . S
C610 H624 0.961 . S
C611 C608 1.539 . S
C611 H625 0.958 . S
C611 H626 0.961 . S
C611 H627 0.960 . S
H612 C596 0.931 . S
H613 C601 0.929 . S
H614 C602 0.960 . S
H615 C602 0.962 . S
H616 C602 0.960 . S
H617 C603 0.961 . S
H618 C603 0.961 . S
H619 C603 0.961 . S
H620 C604 0.931 . S
H621 C609 0.930 . S
H622 C610 0.956 . S
H623 C610 0.961 . S
H624 C610 0.961 . S
H625 C611 0.958 . S
H626 C611 0.961 . S
H627 C611 0.960 . S
C628 C629 1.391 . S
C628 C630 1.394 . S
C628 H644 0.931 . S
C629 C628 1.391 . S
C629 C633 1.376 . S
C630 C628 1.394 . S
C630 C631 1.369 . S
C630 C634 1.531 . S
C631 C630 1.369 . S
C631 C632 1.410 . S
C631 C639 1.503 . S
C632 C631 1.410 . S
C632 C633 1.392 . S
C632 C635 1.511 . S
C633 C629 1.376 . S
C633 C632 1.392 . S
C633 H645 0.929 . S
C634 C630 1.531 . S
C634 H646 0.960 . S
C634 H647 0.962 . S
C634 H648 0.960 . S
C635 C632 1.511 . S
C635 H649 0.961 . S
C635 H650 0.961 . S
C635 H651 0.961 . S
C636 C637 1.370 . S
C636 C638 1.363 . S
C636 H652 0.931 . S
C637 C636 1.370 . S
C637 C641 1.408 . S
C638 C636 1.363 . S
C638 C639 1.370 . S
C638 C642 1.524 . S
C639 C631 1.503 . S
C639 C638 1.370 . S
C639 C640 1.403 . S
C640 C639 1.403 . S
C640 C641 1.404 . S
C640 C643 1.539 1_554 S
C641 C637 1.408 . S
C641 C640 1.404 . S
C641 H653 0.930 1_554 S
C642 C638 1.524 . S
C642 H654 0.956 . S
C642 H655 0.961 . S
C642 H656 0.961 . S
C643 C640 1.539 1_556 S
C643 H657 0.958 . S
C643 H658 0.961 . S
C643 H659 0.960 . S
H644 C628 0.931 . S
H645 C633 0.929 . S
H646 C634 0.960 . S
H647 C634 0.962 . S
H648 C634 0.960 . S
H649 C635 0.961 . S
H650 C635 0.961 . S
H651 C635 0.961 . S
H652 C636 0.931 . S
H653 C641 0.930 1_556 S
H654 C642 0.956 . S
H655 C642 0.961 . S
H656 C642 0.961 . S
H657 C643 0.958 . S
H658 C643 0.961 . S
H659 C643 0.960 . S
C660 C661 1.391 . S
C660 C662 1.394 . S
C660 H676 0.931 . S
C661 C660 1.391 . S
C661 C665 1.376 . S
C662 C660 1.394 . S
C662 C663 1.369 . S
C662 C666 1.531 . S
C663 C662 1.369 . S
C663 C664 1.410 . S
C663 C671 1.503 . S
C664 C663 1.410 . S
C664 C665 1.392 . S
C664 C667 1.511 . S
C665 C661 1.376 . S
C665 C664 1.392 . S
C665 H677 0.929 . S
C666 C662 1.531 . S
C666 H678 0.960 . S
C666 H679 0.962 . S
C666 H680 0.960 . S
C667 C664 1.511 . S
C667 H681 0.961 . S
C667 H682 0.961 . S
C667 H683 0.961 . S
C668 C669 1.370 . S
C668 C670 1.363 . S
C668 H684 0.931 . S
C669 C668 1.370 . S
C669 C673 1.408 . S
C670 C668 1.363 . S
C670 C671 1.370 . S
C670 C674 1.524 . S
C671 C663 1.503 . S
C671 C670 1.370 . S
C671 C672 1.403 . S
C672 C671 1.403 . S
C672 C673 1.404 . S
C672 C675 1.539 . S
C673 C669 1.408 . S
C673 C672 1.404 . S
C673 H685 0.930 . S
C674 C670 1.524 . S
C674 H686 0.956 . S
C674 H687 0.961 . S
C674 H688 0.961 1_556 S
C675 C672 1.539 . S
C675 H689 0.958 . S
C675 H690 0.961 . S
C675 H691 0.960 . S
H676 C660 0.931 . S
H677 C665 0.929 . S
H678 C666 0.960 . S
H679 C666 0.962 . S
H680 C666 0.960 . S
H681 C667 0.961 . S
H682 C667 0.961 . S
H683 C667 0.961 . S
H684 C668 0.931 . S
H685 C673 0.930 . S
H686 C674 0.956 . S
H687 C674 0.961 . S
H688 C674 0.961 1_554 S
H689 C675 0.958 . S
H690 C675 0.961 . S
H691 C675 0.960 . S
C692 C693 1.391 . S
C692 C694 1.394 . S
C692 H708 0.931 . S
C693 C692 1.391 . S
C693 C697 1.376 . S
C694 C692 1.394 . S
C694 C695 1.369 . S
C694 C698 1.501 1_655 S
C695 C694 1.369 . S
C695 C696 1.410 . S
C695 C703 1.503 . S
C696 C695 1.410 . S
C696 C697 1.392 . S
C696 C699 1.511 . S
C697 C693 1.376 . S
C697 C696 1.392 . S
C697 H709 0.929 . S
C698 C694 1.501 1_455 S
C698 H710 0.957 1_455 S
C698 H711 0.980 . S
C698 H712 0.976 . S
C699 C696 1.511 . S
C699 H713 0.961 . S
C699 H714 0.961 . S
C699 H715 0.961 . S
C700 C701 1.370 . S
C700 C702 1.363 . S
C700 H716 0.931 . S
C701 C700 1.370 . S
C701 C705 1.408 . S
C702 C700 1.363 . S
C702 C703 1.370 . S
C702 C706 1.524 . S
C703 C695 1.503 . S
C703 C702 1.370 . S
C703 C704 1.403 . S
C704 C703 1.403 . S
C704 C705 1.404 . S
C704 C707 1.539 . S
C705 C701 1.408 . S
C705 C704 1.404 . S
C705 H717 0.930 . S
C706 C702 1.524 . S
C706 H718 0.956 . S
C706 H719 0.961 . S
C706 H720 0.961 . S
C707 C704 1.539 . S
C707 H721 0.958 . S
C707 H722 0.961 . S
C707 H723 0.960 . S
H708 C692 0.931 . S
H709 C697 0.929 . S
H710 C698 0.957 1_655 S
H711 C698 0.980 . S
H712 C698 0.976 . S
H713 C699 0.961 . S
H714 C699 0.961 . S
H715 C699 0.961 . S
H716 C700 0.931 . S
H717 C705 0.930 . S
H718 C706 0.956 . S
H719 C706 0.961 . S
H720 C706 0.961 . S
H721 C707 0.958 . S
H722 C707 0.961 . S
H723 C707 0.960 . S
C724 C725 1.391 . S
C724 C726 1.394 . S
C724 H740 0.931 . S
C725 C724 1.391 . S
C725 C729 1.376 . S
C726 C724 1.394 . S
C726 C727 1.369 . S
C726 C730 1.531 . S
C727 C726 1.369 . S
C727 C728 1.410 . S
C727 C735 1.503 . S
C728 C727 1.410 . S
C728 C729 1.392 . S
C728 C731 1.511 . S
C729 C725 1.376 . S
C729 C728 1.392 . S
C729 H741 0.929 . S
C730 C726 1.531 . S
C730 H742 0.960 . S
C730 H743 0.962 . S
C730 H744 0.960 . S
C731 C728 1.511 . S
C731 H745 0.961 . S
C731 H746 0.961 . S
C731 H747 0.961 . S
C732 C733 1.370 . S
C732 C734 1.363 . S
C732 H748 0.931 . S
C733 C732 1.370 . S
C733 C737 1.408 . S
C734 C732 1.363 . S
C734 C735 1.370 . S
C734 C738 1.524 . S
C735 C727 1.503 . S
C735 C734 1.370 . S
C735 C736 1.403 . S
C736 C735 1.403 . S
C736 C737 1.404 . S
C736 C739 1.539 . S
C737 C733 1.408 . S
C737 C736 1.404 . S
C737 H749 0.930 . S
C738 C734 1.524 . S
C738 H750 0.956 . S
C738 H751 0.961 . S
C738 H752 0.961 . S
C739 C736 1.539 . S
C739 H753 0.958 . S
C739 H754 0.961 . S
C739 H755 0.960 . S
H740 C724 0.931 . S
H741 C729 0.929 . S
H742 C730 0.960 . S
H743 C730 0.962 . S
H744 C730 0.960 . S
H745 C731 0.961 . S
H746 C731 0.961 . S
H747 C731 0.961 . S
H748 C732 0.931 . S
H749 C737 0.930 . S
H750 C738 0.956 . S
H751 C738 0.961 . S
H752 C738 0.961 . S
H753 C739 0.958 . S
H754 C739 0.961 . S
H755 C739 0.960 . S
C756 C757 1.391 . S
C756 C758 1.394 . S
C756 H772 0.931 . S
C757 C756 1.391 . S
C757 C761 1.376 . S
C758 C756 1.394 . S
C758 C759 1.369 . S
C758 C762 1.531 . S
C759 C758 1.369 . S
C759 C760 1.410 . S
C759 C767 1.503 . S
C760 C759 1.410 . S
C760 C761 1.392 . S
C760 C763 1.511 . S
C761 C757 1.376 . S
C761 C760 1.392 . S
C761 H773 0.929 . S
C762 C758 1.531 . S
C762 H774 0.960 1_565 S
C762 H775 0.962 . S
C762 H776 0.960 1_565 S
C763 C760 1.511 . S
C763 H777 0.961 . S
C763 H778 0.961 . S
C763 H779 0.961 1_655 S
C764 C765 1.370 . S
C764 C766 1.363 . S
C764 H780 0.931 . S
C765 C764 1.370 . S
C765 C769 1.408 . S
C766 C764 1.363 . S
C766 C767 1.370 . S
C766 C770 1.524 . S
C767 C759 1.503 . S
C767 C766 1.370 . S
C767 C768 1.403 . S
C768 C767 1.403 . S
C768 C769 1.404 . S
C768 C771 1.539 1_565 S
C769 C765 1.408 . S
C769 C768 1.404 . S
C769 H781 0.930 1_665 S
C770 C766 1.524 . S
C770 H782 0.956 . S
C770 H783 0.961 . S
C770 H784 0.961 . S
C771 C768 1.539 1_545 S
C771 H785 0.958 . S
C771 H786 0.961 1_655 S
C771 H787 0.960 1_545 S
H772 C756 0.931 . S
H773 C761 0.929 . S
H774 C762 0.960 1_545 S
H775 C762 0.962 . S
H776 C762 0.960 1_545 S
H777 C763 0.961 . S
H778 C763 0.961 . S
H779 C763 0.961 1_455 S
H780 C764 0.931 . S
H781 C769 0.930 1_445 S
H782 C770 0.956 . S
H783 C770 0.961 . S
H784 C770 0.961 . S
H785 C771 0.958 . S
H786 C771 0.961 1_455 S
H787 C771 0.960 1_565 S
C788 C789 1.391 . S
C788 C790 1.394 . S
C788 H804 0.931 . S
C789 C788 1.391 . S
C789 C793 1.376 . S
C790 C788 1.394 . S
C790 C791 1.369 . S
C790 C794 1.531 . S
C791 C790 1.369 . S
C791 C792 1.410 . S
C791 C799 1.503 . S
C792 C791 1.410 . S
C792 C793 1.392 . S
C792 C795 1.511 . S
C793 C789 1.376 . S
C793 C792 1.392 . S
C793 H805 0.929 . S
C794 C790 1.531 . S
C794 H806 0.960 . S
C794 H807 0.962 . S
C794 H808 0.944 1_545 S
C795 C792 1.511 . S
C795 H809 0.961 . S
C795 H810 0.961 . S
C795 H811 0.961 . S
C796 C797 1.370 . S
C796 C798 1.363 . S
C796 H812 0.931 . S
C797 C796 1.370 . S
C797 C801 1.408 . S
C798 C796 1.363 . S
C798 C799 1.370 . S
C798 C802 1.524 . S
C799 C791 1.503 . S
C799 C798 1.370 . S
C799 C800 1.403 . S
C800 C799 1.403 . S
C800 C801 1.404 . S
C800 C803 1.539 . S
C801 C797 1.408 . S
C801 C800 1.404 . S
C801 H813 0.930 . S
C802 C798 1.524 . S
C802 H814 0.956 . S
C802 H815 0.961 . S
C802 H816 0.961 . S
C803 C800 1.539 . S
C803 H817 0.958 . S
C803 H818 0.961 . S
C803 H819 0.960 . S
H804 C788 0.931 . S
H805 C793 0.929 . S
H806 C794 0.960 . S
H807 C794 0.962 . S
H808 C794 0.944 1_565 S
H809 C795 0.961 . S
H810 C795 0.961 . S
H811 C795 0.961 . S
H812 C796 0.931 . S
H813 C801 0.930 . S
H814 C802 0.956 . S
H815 C802 0.961 . S
H816 C802 0.961 . S
H817 C803 0.958 . S
H818 C803 0.961 . S
H819 C803 0.960 . S
C820 C821 1.391 . S
C820 C822 1.394 . S
C820 H836 0.931 . S
C821 C820 1.391 . S
C821 C825 1.376 . S
C822 C820 1.394 . S
C822 C823 1.369 . S
C822 C826 1.531 . S
C823 C822 1.369 . S
C823 C824 1.410 . S
C823 C831 1.503 . S
C824 C823 1.410 . S
C824 C825 1.392 . S
C824 C827 1.511 . S
C825 C821 1.376 . S
C825 C824 1.392 . S
C825 H837 0.929 . S
C826 C822 1.531 . S
C826 H838 0.960 . S
C826 H839 0.962 . S
C826 H840 0.960 . S
C827 C824 1.511 . S
C827 H841 0.961 . S
C827 H842 0.961 . S
C827 H843 0.961 . S
C828 C829 1.370 . S
C828 C830 1.363 . S
C828 H844 0.931 . S
C829 C828 1.370 . S
C829 C833 1.408 . S
C830 C828 1.363 . S
C830 C831 1.370 . S
C830 C834 1.524 . S
C831 C823 1.503 . S
C831 C830 1.370 . S
C831 C832 1.403 . S
C832 C831 1.403 . S
C832 C833 1.404 . S
C832 C835 1.539 . S
C833 C829 1.408 . S
C833 C832 1.404 . S
C833 H845 0.930 . S
C834 C830 1.524 . S
C834 H846 0.956 . S
C834 H847 0.961 . S
C834 H848 0.961 . S
C835 C832 1.539 . S
C835 H849 0.958 . S
C835 H850 0.961 . S
C835 H851 0.960 . S
H836 C820 0.931 . S
H837 C825 0.929 . S
H838 C826 0.960 . S
H839 C826 0.962 . S
H840 C826 0.960 . S
H841 C827 0.961 . S
H842 C827 0.961 . S
H843 C827 0.961 . S
H844 C828 0.931 . S
H845 C833 0.930 . S
H846 C834 0.956 . S
H847 C834 0.961 . S
H848 C834 0.961 . S
H849 C835 0.958 . S
H850 C835 0.961 . S
H851 C835 0.960 . S
C852 C853 1.391 . S
C852 C854 1.394 . S
C852 H868 0.931 . S
C853 C852 1.391 . S
C853 C857 1.376 . S
C854 C852 1.394 . S
C854 C855 1.369 . S
C854 C858 1.531 . S
C855 C854 1.369 . S
C855 C856 1.410 . S
C855 C863 1.503 . S
C856 C855 1.410 . S
C856 C857 1.392 . S
C856 C859 1.511 1_455 S
C857 C853 1.376 . S
C857 C856 1.392 . S
C857 H869 0.929 . S
C858 C854 1.531 . S
C858 H870 0.960 . S
C858 H871 0.962 . S
C858 H872 0.960 . S
C859 C856 1.511 1_655 S
C859 H873 0.961 . S
C859 H874 0.961 . S
C859 H875 0.961 . S
C860 C861 1.370 . S
C860 C862 1.363 . S
C860 H876 0.931 . S
C861 C860 1.370 . S
C861 C865 1.408 . S
C862 C860 1.363 . S
C862 C863 1.370 . S
C862 C866 1.524 . S
C863 C855 1.503 . S
C863 C862 1.370 . S
C863 C864 1.403 . S
C864 C863 1.403 . S
C864 C865 1.404 . S
C864 C867 1.539 . S
C865 C861 1.408 . S
C865 C864 1.404 . S
C865 H877 0.930 . S
C866 C862 1.524 . S
C866 H878 0.956 . S
C866 H879 0.961 . S
C866 H880 0.961 . S
C867 C864 1.539 . S
C867 H881 0.958 . S
C867 H882 0.961 . S
C867 H883 0.960 . S
H868 C852 0.931 . S
H869 C857 0.929 . S
H870 C858 0.960 . S
H871 C858 0.962 . S
H872 C858 0.960 . S
H873 C859 0.961 . S
H874 C859 0.961 . S
H875 C859 0.961 . S
H876 C860 0.931 . S
H877 C865 0.930 . S
H878 C866 0.956 . S
H879 C866 0.961 . S
H880 C866 0.961 . S
H881 C867 0.958 . S
H882 C867 0.961 . S
H883 C867 0.960 . S
C884 C885 1.391 . S
C884 C886 1.394 . S
C884 H900 0.931 . S
C885 C884 1.391 . S
C885 C889 1.376 . S
C886 C884 1.394 . S
C886 C887 1.369 . S
C886 C890 1.541 . S
C887 C886 1.369 . S
C887 C888 1.410 . S
C887 C895 1.503 . S
C888 C887 1.410 . S
C888 C889 1.392 . S
C888 C891 1.511 . S
C889 C885 1.376 . S
C889 C888 1.392 . S
C889 H901 0.929 . S
C890 C886 1.541 . S
C890 H902 0.960 . S
C890 H903 0.954 1_565 S
C890 H904 0.958 1_565 S
C891 C888 1.511 . S
C891 H905 0.961 . S
C891 H906 0.961 . S
C891 H907 0.961 . S
C892 C893 1.370 . S
C892 C894 1.363 . S
C892 H908 0.931 1_556 S
C893 C892 1.370 . S
C893 C897 1.408 . S
C894 C892 1.363 . S
C894 C895 1.370 . S
C894 C898 1.524 . S
C895 C887 1.503 . S
C895 C894 1.370 . S
C895 C896 1.403 . S
C896 C895 1.403 . S
C896 C897 1.404 . S
C896 C899 1.539 . S
C897 C893 1.408 . S
C897 C896 1.404 . S
C897 H909 0.930 . S
C898 C894 1.524 . S
C898 H910 0.956 . S
C898 H911 0.961 1_556 S
C898 H912 0.961 1_556 S
C899 C896 1.539 . S
C899 H913 0.958 . S
C899 H914 0.961 . S
C899 H915 0.960 . S
H900 C884 0.931 . S
H901 C889 0.929 . S
H902 C890 0.960 . S
H903 C890 0.954 1_545 S
H904 C890 0.958 1_545 S
H905 C891 0.961 . S
H906 C891 0.961 . S
H907 C891 0.961 . S
H908 C892 0.931 1_554 S
H909 C897 0.930 . S
H910 C898 0.956 . S
H911 C898 0.961 1_554 S
H912 C898 0.961 1_554 S
H913 C899 0.958 . S
H914 C899 0.961 . S
H915 C899 0.960 . S
C916 C917 1.391 . S
C916 C918 1.394 . S
C916 H932 0.931 . S
C917 C916 1.391 . S
C917 C921 1.376 . S
C918 C916 1.394 . S
C918 C919 1.369 . S
C918 C922 1.531 . S
C919 C918 1.369 . S
C919 C920 1.410 . S
C919 C927 1.503 . S
C920 C919 1.410 . S
C920 C921 1.392 . S
C920 C923 1.511 . S
C921 C917 1.376 . S
C921 C920 1.392 . S
C921 H933 0.929 . S
C922 C918 1.531 . S
C922 H934 0.960 . S
C922 H935 0.962 . S
C922 H936 0.960 . S
C923 C920 1.511 . S
C923 H937 0.961 . S
C923 H938 0.961 . S
C923 H939 0.961 . S
C924 C925 1.370 . S
C924 C926 1.363 . S
C924 H940 0.931 . S
C925 C924 1.370 . S
C925 C929 1.408 . S
C926 C924 1.363 . S
C926 C927 1.370 . S
C926 C930 1.524 . S
C927 C919 1.503 . S
C927 C926 1.370 . S
C927 C928 1.403 . S
C928 C927 1.403 . S
C928 C929 1.404 . S
C928 C931 1.539 . S
C929 C925 1.408 . S
C929 C928 1.404 . S
C929 H941 0.930 . S
C930 C926 1.524 . S
C930 H942 0.956 . S
C930 H943 0.961 . S
C930 H944 0.961 . S
C931 C928 1.539 . S
C931 H945 0.958 . S
C931 H946 0.961 . S
C931 H947 0.960 . S
H932 C916 0.931 . S
H933 C921 0.929 . S
H934 C922 0.960 . S
H935 C922 0.962 . S
H936 C922 0.960 . S
H937 C923 0.961 . S
H938 C923 0.961 . S
H939 C923 0.961 . S
H940 C924 0.931 . S
H941 C929 0.930 . S
H942 C930 0.956 . S
H943 C930 0.961 . S
H944 C930 0.961 . S
H945 C931 0.958 . S
H946 C931 0.961 . S
H947 C931 0.960 . S
C948 C949 1.391 . S
C948 C950 1.394 . S
C948 H964 0.931 . S
C949 C948 1.391 . S
C949 C953 1.376 . S
C950 C948 1.394 . S
C950 C951 1.369 . S
C950 C954 1.531 . S
C951 C950 1.369 . S
C951 C952 1.410 . S
C951 C959 1.503 . S
C952 C951 1.410 . S
C952 C953 1.392 . S
C952 C955 1.511 . S
C953 C949 1.376 . S
C953 C952 1.392 . S
C953 H965 0.929 . S
C954 C950 1.531 . S
C954 H966 0.960 . S
C954 H967 0.962 . S
C954 H968 0.960 . S
C955 C952 1.511 . S
C955 H969 0.961 . S
C955 H970 0.961 . S
C955 H971 0.961 . S
C956 C957 1.370 . S
C956 C958 1.363 . S
C956 H972 0.931 1_554 S
C957 C956 1.370 . S
C957 C961 1.408 . S
C958 C956 1.363 . S
C958 C959 1.370 . S
C958 C962 1.524 . S
C959 C951 1.503 . S
C959 C958 1.370 . S
C959 C960 1.403 . S
C960 C959 1.403 . S
C960 C961 1.404 . S
C960 C963 1.539 . S
C961 C957 1.408 . S
C961 C960 1.404 . S
C961 H973 0.930 . S
C962 C958 1.524 . S
C962 H974 0.956 . S
C962 H975 0.961 . S
C962 H976 0.961 1_554 S
C963 C960 1.539 . S
C963 H977 0.958 . S
C963 H978 0.961 . S
C963 H979 0.960 . S
H964 C948 0.931 . S
H965 C953 0.929 . S
H966 C954 0.960 . S
H967 C954 0.962 . S
H968 C954 0.960 . S
H969 C955 0.961 . S
H970 C955 0.961 . S
H971 C955 0.961 . S
H972 C956 0.931 1_556 S
H973 C961 0.930 . S
H974 C962 0.956 . S
H975 C962 0.961 . S
H976 C962 0.961 1_556 S
H977 C963 0.958 . S
H978 C963 0.961 . S
H979 C963 0.960 . S
C980 C981 1.391 . S
C980 C982 1.394 . S
C980 H996 0.931 . S
C981 C980 1.391 . S
C981 C985 1.376 . S
C982 C980 1.394 . S
C982 C983 1.369 . S
C982 C986 1.531 . S
C983 C982 1.369 . S
C983 C984 1.410 . S
C983 C991 1.503 . S
C984 C983 1.410 . S
C984 C985 1.392 . S
C984 C987 1.511 . S
C985 C981 1.376 . S
C985 C984 1.392 . S
C985 H997 0.929 . S
C986 C982 1.531 . S
C986 H998 0.960 . S
C986 H999 0.962 . S
C986 H1000 0.960 . S
C987 C984 1.511 . S
C987 H1001 0.961 . S
C987 H1002 0.961 . S
C987 H1003 0.961 . S
C988 C989 1.370 . S
C988 C990 1.363 . S
C988 H1004 0.931 . S
C989 C988 1.370 . S
C989 C993 1.408 . S
C990 C988 1.363 . S
C990 C991 1.370 . S
C990 C994 1.524 . S
C991 C983 1.503 . S
C991 C990 1.370 . S
C991 C992 1.403 . S
C992 C991 1.403 . S
C992 C993 1.404 . S
C992 C995 1.539 . S
C993 C989 1.408 . S
C993 C992 1.404 . S
C993 H1005 0.930 . S
C994 C990 1.524 . S
C994 H1006 0.956 . S
C994 H1007 0.961 . S
C994 H1008 0.961 . S
C995 C992 1.539 . S
C995 H1009 0.958 . S
C995 H1010 0.961 . S
C995 H1011 0.960 . S
H996 C980 0.931 . S
H997 C985 0.929 . S
H998 C986 0.960 . S
H999 C986 0.962 . S
H1000 C986 0.960 . S
H1001 C987 0.961 . S
H1002 C987 0.961 . S
H1003 C987 0.961 . S
H1004 C988 0.931 . S
H1005 C993 0.930 . S
H1006 C994 0.956 . S
H1007 C994 0.961 . S
H1008 C994 0.961 . S
H1009 C995 0.958 . S
H1010 C995 0.961 . S
H1011 C995 0.960 . S
C1012 C1013 1.391 . S
C1012 C1014 1.394 . S
C1012 H1028 0.931 . S
C1013 C1012 1.391 . S
C1013 C1017 1.376 . S
C1014 C1012 1.394 . S
C1014 C1015 1.369 . S
C1014 C1018 1.531 . S
C1015 C1014 1.369 . S
C1015 C1016 1.410 . S
C1015 C1023 1.503 . S
C1016 C1015 1.410 . S
C1016 C1017 1.392 . S
C1016 C1019 1.511 . S
C1017 C1013 1.376 . S
C1017 C1016 1.392 . S
C1017 H1029 0.929 . S
C1018 C1014 1.531 . S
C1018 H1030 0.960 . S
C1018 H1031 0.962 . S
C1018 H1032 0.960 . S
C1019 C1016 1.511 . S
C1019 H1033 0.961 1_556 S
C1019 H1034 0.961 1_556 S
C1019 H1035 0.923 1_655 S
C1020 C1021 1.370 . S
C1020 C1022 1.363 . S
C1020 H1036 0.939 . S
C1021 C1020 1.370 . S
C1021 C1025 1.408 . S
C1022 C1020 1.363 . S
C1022 C1023 1.370 . S
C1022 C1026 1.524 . S
C1023 C1015 1.503 . S
C1023 C1022 1.370 . S
C1023 C1024 1.403 . S
C1024 C1023 1.403 . S
C1024 C1025 1.404 . S
C1024 C1027 1.539 1_655 S
C1025 C1021 1.408 . S
C1025 C1024 1.404 . S
C1025 H1037 0.930 1_655 S
C1026 C1022 1.524 . S
C1026 H1038 0.956 . S
C1026 H1039 0.968 . S
C1026 H1040 0.961 1_556 S
C1027 C1024 1.539 1_455 S
C1027 H1041 0.958 1_455 S
C1027 H1042 0.961 . S
C1027 H1043 0.960 . S
H1028 C1012 0.931 . S
H1029 C1017 0.929 . S
H1030 C1018 0.960 . S
H1031 C1018 0.962 . S
H1032 C1018 0.960 . S
H1033 C1019 0.961 1_554 S
H1034 C1019 0.961 1_554 S
H1035 C1019 0.923 1_455 S
H1036 C1020 0.939 . S
H1037 C1025 0.930 1_455 S
H1038 C1026 0.956 . S
H1039 C1026 0.968 . S
H1040 C1026 0.961 1_554 S
H1041 C1027 0.958 1_655 S
H1042 C1027 0.961 . S
H1043 C1027 0.960 . S
C1044 C1045 1.391 . S
C1044 C1046 1.394 . S
C1044 H1060 0.931 . S
C1045 C1044 1.391 . S
C1045 C1049 1.376 . S
C1046 C1044 1.394 . S
C1046 C1047 1.369 . S
C1046 C1050 1.531 . S
C1047 C1046 1.369 . S
C1047 C1048 1.410 . S
C1047 C1055 1.503 . S
C1048 C1047 1.410 . S
C1048 C1049 1.392 . S
C1048 C1051 1.511 . S
C1049 C1045 1.376 . S
C1049 C1048 1.392 . S
C1049 H1061 0.929 . S
C1050 C1046 1.531 . S
C1050 H1062 0.960 . S
C1050 H1063 0.962 . S
C1050 H1064 0.960 . S
C1051 C1048 1.511 . S
C1051 H1065 0.961 . S
C1051 H1066 0.961 . S
C1051 H1067 0.961 . S
C1052 C1053 1.370 . S
C1052 C1054 1.363 . S
C1052 H1068 0.931 . S
C1053 C1052 1.370 . S
C1053 C1057 1.408 . S
C1054 C1052 1.363 . S
C1054 C1055 1.370 . S
C1054 C1058 1.524 . S
C1055 C1047 1.503 . S
C1055 C1054 1.370 . S
C1055 C1056 1.403 . S
C1056 C1055 1.403 . S
C1056 C1057 1.404 . S
C1056 C1059 1.539 . S
C1057 C1053 1.408 . S
C1057 C1056 1.404 . S
C1057 H1069 0.930 . S
C1058 C1054 1.524 . S
C1058 H1070 0.956 . S
C1058 H1071 0.961 . S
C1058 H1072 0.961 . S
C1059 C1056 1.539 . S
C1059 H1073 0.958 . S
C1059 H1074 0.961 . S
C1059 H1075 0.960 . S
H1060 C1044 0.931 . S
H1061 C1049 0.929 . S
H1062 C1050 0.960 . S
H1063 C1050 0.962 . S
H1064 C1050 0.960 . S
H1065 C1051 0.961 . S
H1066 C1051 0.961 . S
H1067 C1051 0.961 . S
H1068 C1052 0.931 . S
H1069 C1057 0.930 . S
H1070 C1058 0.956 . S
H1071 C1058 0.961 . S
H1072 C1058 0.961 . S
H1073 C1059 0.958 . S
H1074 C1059 0.961 . S
H1075 C1059 0.960 . S
C1076 C1077 1.391 . S
C1076 C1078 1.394 . S
C1076 H1092 0.931 . S
C1077 C1076 1.391 . S
C1077 C1081 1.376 . S
C1078 C1076 1.394 . S
C1078 C1079 1.369 . S
C1078 C1082 1.531 . S
C1079 C1078 1.369 . S
C1079 C1080 1.410 . S
C1079 C1087 1.503 . S
C1080 C1079 1.410 . S
C1080 C1081 1.392 . S
C1080 C1083 1.511 . S
C1081 C1077 1.376 . S
C1081 C1080 1.392 . S
C1081 H1093 0.929 . S
C1082 C1078 1.531 . S
C1082 H1094 0.960 . S
C1082 H1095 0.962 1_455 S
C1082 H1096 0.960 . S
C1083 C1080 1.511 . S
C1083 H1097 0.961 . S
C1083 H1098 0.961 . S
C1083 H1099 0.961 . S
C1084 C1085 1.370 . S
C1084 C1086 1.363 . S
C1084 H1100 0.931 1_455 S
C1085 C1084 1.370 . S
C1085 C1089 1.408 . S
C1086 C1084 1.363 . S
C1086 C1087 1.370 . S
C1086 C1090 1.524 1_455 S
C1087 C1079 1.503 . S
C1087 C1086 1.370 . S
C1087 C1088 1.403 . S
C1088 C1087 1.403 . S
C1088 C1089 1.404 . S
C1088 C1091 1.539 . S
C1089 C1085 1.408 . S
C1089 C1088 1.404 . S
C1089 H1101 0.930 . S
C1090 C1086 1.524 1_655 S
C1090 H1102 0.956 . S
C1090 H1103 0.961 1_655 S
C1090 H1104 0.961 . S
C1091 C1088 1.539 . S
C1091 H1105 0.958 . S
C1091 H1106 0.961 . S
C1091 H1107 0.960 . S
H1092 C1076 0.931 . S
H1093 C1081 0.929 . S
H1094 C1082 0.960 . S
H1095 C1082 0.962 1_655 S
H1096 C1082 0.960 . S
H1097 C1083 0.961 . S
H1098 C1083 0.961 . S
H1099 C1083 0.961 . S
H1100 C1084 0.931 1_655 S
H1101 C1089 0.930 . S
H1102 C1090 0.956 . S
H1103 C1090 0.961 1_455 S
H1104 C1090 0.961 . S
H1105 C1091 0.958 . S
H1106 C1091 0.961 . S
H1107 C1091 0.960 . S
C1108 C1109 1.391 . S
C1108 C1110 1.394 . S
C1108 H1124 0.931 . S
C1109 C1108 1.391 . S
C1109 C1113 1.376 . S
C1110 C1108 1.394 . S
C1110 C1111 1.369 . S
C1110 C1114 1.531 . S
C1111 C1110 1.369 . S
C1111 C1112 1.410 . S
C1111 C1119 1.503 . S
C1112 C1111 1.410 . S
C1112 C1113 1.392 . S
C1112 C1115 1.511 . S
C1113 C1109 1.376 . S
C1113 C1112 1.392 . S
C1113 H1125 0.929 . S
C1114 C1110 1.531 . S
C1114 H1126 0.960 . S
C1114 H1127 0.962 . S
C1114 H1128 0.960 . S
C1115 C1112 1.511 . S
C1115 H1129 0.961 . S
C1115 H1130 0.961 . S
C1115 H1131 0.961 . S
C1116 C1117 1.370 . S
C1116 C1118 1.363 . S
C1116 H1132 0.931 . S
C1117 C1116 1.370 . S
C1117 C1121 1.408 . S
C1118 C1116 1.363 . S
C1118 C1119 1.370 . S
C1118 C1122 1.524 . S
C1119 C1111 1.503 . S
C1119 C1118 1.370 . S
C1119 C1120 1.403 . S
C1120 C1119 1.403 . S
C1120 C1121 1.404 . S
C1120 C1123 1.539 . S
C1121 C1117 1.408 . S
C1121 C1120 1.404 . S
C1121 H1133 0.930 . S
C1122 C1118 1.524 . S
C1122 H1134 0.956 . S
C1122 H1135 0.961 . S
C1122 H1136 0.961 . S
C1123 C1120 1.539 . S
C1123 H1137 0.958 . S
C1123 H1138 0.961 . S
C1123 H1139 0.960 . S
H1124 C1108 0.931 . S
H1125 C1113 0.929 . S
H1126 C1114 0.960 . S
H1127 C1114 0.962 . S
H1128 C1114 0.960 . S
H1129 C1115 0.961 . S
H1130 C1115 0.961 . S
H1131 C1115 0.961 . S
H1132 C1116 0.931 . S
H1133 C1121 0.930 . S
H1134 C1122 0.956 . S
H1135 C1122 0.961 . S
H1136 C1122 0.961 . S
H1137 C1123 0.958 . S
H1138 C1123 0.961 . S
H1139 C1123 0.960 . S
C373 C1 1.579 . S
C381 C304 1.575 . S
C405 C67 1.476 . S
C413 C326 1.441 . S
C445 C345 1.214 . S
C437 C97 1.410 . S
C469 C133 1.841 . S
C477 C366 1.500 . S
C509 C323 1.766 . S
C501 C25 1.812 . S
C541 C301 1.675 . S
C533 C37 1.713 . S
C573 C368 1.318 . S
C565 C103 1.370 . S
C605 C347 1.468 . S
C597 C109 1.510 . S
C629 C31 1.745 . S
C637 C365 1.718 . S
C669 C324 1.334 . S
C661 C73 1.568 . S
C693 C139 1.693 . S
C701 C306 1.516 . S
C725 C61 1.509 . S
C733 C344 1.504 . S
C765 C302 1.559 . S
C757 C175 1.651 . S
C789 C181 1.321 . S
C797 C322 1.284 . S
C821 C247 1.526 . S
C829 C348 1.248 . S
C853 C277 1.775 . S
C861 C369 1.386 . S
C885 C145 1.744 . S
C893 C325 1.709 . S
C925 C305 1.731 . S
C917 C211 1.789 . S
C957 C364 1.175 . S
C949 C217 1.246 . S
C989 C343 1.556 . S
C981 C283 1.600 . S
C1013 C169 1.560 . S
C1021 C367 1.525 . S
C1053 C327 1.266 . S
C1045 C241 1.513 . S
C1085 C303 1.352 . S
C1077 C253 1.509 . S
C1109 C205 1.450 . S
C1117 C346 1.445 . S
