# Generated by pormake.
# Topology pyr, (3,6)-cn, num edge types: 1
# Building blocks:
#     Node 0, Type 0, BuildingBlock: ESEHIV_clean_linker_0, # of connection points: 3
#     Node 1, Type 0, BuildingBlock: ESEHIV_clean_linker_0, # of connection points: 3
#     Node 2, Type 0, BuildingBlock: ESEHIV_clean_linker_0, # of connection points: 3
#     Node 3, Type 0, BuildingBlock: ESEHIV_clean_linker_0, # of connection points: 3
#     Node 4, Type 0, BuildingBlock: ESEHIV_clean_linker_0, # of connection points: 3
#     Node 5, Type 0, BuildingBlock: ESEHIV_clean_linker_0, # of connection points: 3
#     Node 6, Type 0, BuildingBlock: ESEHIV_clean_linker_0, # of connection points: 3
#     Node 7, Type 0, BuildingBlock: ESEHIV_clean_linker_0, # of connection points: 3
#     Node 8, Type 1, BuildingBlock: BETDIP_clean_sbu_0, # of connection points: 6
#     Node 9, Type 1, BuildingBlock: BETDIP_clean_sbu_0, # of connection points: 6
#     Node 10, Type 1, BuildingBlock: BETDIP_clean_sbu_0, # of connection points: 6
#     Node 11, Type 1, BuildingBlock: BETDIP_clean_sbu_0, # of connection points: 6
#     Edge 12, Type (0, 1), BuildingBlock: AJUNOK_clean_linker_0, # of connection points: 2
#     Edge 13, Type (0, 1), BuildingBlock: AJUNOK_clean_linker_0, # of connection points: 2
#     Edge 14, Type (0, 1), BuildingBlock: AJUNOK_clean_linker_0, # of connection points: 2
#     Edge 15, Type (0, 1), BuildingBlock: AJUNOK_clean_linker_0, # of connection points: 2
#     Edge 16, Type (0, 1), BuildingBlock: AJUNOK_clean_linker_0, # of connection points: 2
#     Edge 17, Type (0, 1), BuildingBlock: AJUNOK_clean_linker_0, # of connection points: 2
#     Edge 18, Type (0, 1), BuildingBlock: AJUNOK_clean_linker_0, # of connection points: 2
#     Edge 19, Type (0, 1), BuildingBlock: AJUNOK_clean_linker_0, # of connection points: 2
#     Edge 20, Type (0, 1), BuildingBlock: AJUNOK_clean_linker_0, # of connection points: 2
#     Edge 21, Type (0, 1), BuildingBlock: AJUNOK_clean_linker_0, # of connection points: 2
#     Edge 22, Type (0, 1), BuildingBlock: AJUNOK_clean_linker_0, # of connection points: 2
#     Edge 23, Type (0, 1), BuildingBlock: AJUNOK_clean_linker_0, # of connection points: 2
#     Edge 24, Type (0, 1), BuildingBlock: AJUNOK_clean_linker_0, # of connection points: 2
#     Edge 25, Type (0, 1), BuildingBlock: AJUNOK_clean_linker_0, # of connection points: 2
#     Edge 26, Type (0, 1), BuildingBlock: AJUNOK_clean_linker_0, # of connection points: 2
#     Edge 27, Type (0, 1), BuildingBlock: AJUNOK_clean_linker_0, # of connection points: 2
#     Edge 28, Type (0, 1), BuildingBlock: AJUNOK_clean_linker_0, # of connection points: 2
#     Edge 29, Type (0, 1), BuildingBlock: AJUNOK_clean_linker_0, # of connection points: 2
#     Edge 30, Type (0, 1), BuildingBlock: AJUNOK_clean_linker_0, # of connection points: 2
#     Edge 31, Type (0, 1), BuildingBlock: AJUNOK_clean_linker_0, # of connection points: 2
#     Edge 32, Type (0, 1), BuildingBlock: AJUNOK_clean_linker_0, # of connection points: 2
#     Edge 33, Type (0, 1), BuildingBlock: AJUNOK_clean_linker_0, # of connection points: 2
#     Edge 34, Type (0, 1), BuildingBlock: AJUNOK_clean_linker_0, # of connection points: 2
#     Edge 35, Type (0, 1), BuildingBlock: AJUNOK_clean_linker_0, # of connection points: 2
# Relax obj value: 0.234
# Max RMSD: 0.221
# Mean RMSD: 0.103
data_MOF--net-pyr--node1-BETDIP_clean_sbu_0--node2-ESEHIV_clean_linker_0--edge1-AJUNOK_clean_linker_0
_symmetry_space_group_name_H-M    P1
_symmetry_Int_Tables_number       1
_symmetry_cell_setting            triclinic
loop_
_symmetry_equiv_pos_as_xyz
'x, y, z'
_cell_length_a     24.154336
_cell_length_b     27.239785
_cell_length_c     26.509644
_cell_angle_alpha  88.577831
_cell_angle_beta   93.160094
_cell_angle_gamma 106.29397
loop_
_atom_site_label
_atom_site_type_symbol
_atom_site_fract_x
_atom_site_fract_y
_atom_site_fract_z
_atom_type_partial_charge
H0 H 0.35894 0.33493 0.33964 0.0
H1 H 0.51142 0.28566 0.32289 0.0
H2 H 0.39015 0.28404 0.1969 0.0
C3 C 0.38808 0.3229 0.3165 0.0
C4 C 0.37294 0.31564 0.26497 0.0
C5 C 0.43632 0.30958 0.33862 0.0
C6 C 0.47306 0.29431 0.30665 0.0
C7 C 0.4568 0.28379 0.25534 0.0
C8 C 0.40638 0.29484 0.23506 0.0
H9 H 0.09518 0.8382 0.81757 0.0
H10 H 0.18957 0.72656 0.81043 0.0
H11 H 0.13176 0.78962 0.67395 0.0
C12 C 0.11 0.81142 0.79602 0.0
C13 C 0.10489 0.81354 0.74318 0.0
C14 C 0.14218 0.78131 0.82053 0.0
C15 C 0.16412 0.74929 0.79158 0.0
C16 C 0.1635 0.75415 0.73877 0.0
C17 C 0.13152 0.78465 0.71466 0.0
H18 H 0.71015 0.35023 0.95219 0.0
H19 H 0.71658 0.47763 0.85379 0.0
H20 H 0.57397 0.33929 0.83649 0.0
C21 C 0.68901 0.36733 0.92243 0.0
C22 C 0.63609 0.33801 0.89966 0.0
C23 C 0.71659 0.41817 0.9086 0.0
C24 C 0.69375 0.43931 0.86545 0.0
C25 C 0.64231 0.41208 0.83736 0.0
C26 C 0.61387 0.36074 0.85558 0.0
H27 H 0.85141 0.76415 0.454 0.0
H28 H 0.97794 0.77974 0.34218 0.0
H29 H 0.84242 0.63706 0.3582 0.0
C30 C 0.87017 0.74721 0.42525 0.0
C31 C 0.84307 0.69595 0.4118 0.0
C32 C 0.92033 0.77791 0.40342 0.0
C33 C 0.94007 0.75675 0.36023 0.0
C34 C 0.91213 0.70518 0.3417 0.0
C35 C 0.86407 0.67588 0.36958 0.0
H36 H 0.58698 0.85155 0.82306 0.0
H37 H 0.68028 0.73943 0.84922 0.0
H38 H 0.62615 0.80839 0.97439 0.0
C39 C 0.60213 0.82563 0.84832 0.0
C40 C 0.59815 0.8299 0.90053 0.0
C41 C 0.63222 0.79333 0.82937 0.0
C42 C 0.65488 0.76276 0.86337 0.0
C43 C 0.65411 0.76891 0.91567 0.0
C44 C 0.62437 0.80155 0.93412 0.0
H45 H 0.87195 0.3971 0.34425 0.0
H46 H 0.95971 0.28087 0.33336 0.0
H47 H 0.91416 0.31961 0.47751 0.0
C48 C 0.89492 0.3719 0.3623 0.0
C49 C 0.89088 0.36246 0.41434 0.0
C50 C 0.91589 0.34011 0.33223 0.0
C51 C 0.94518 0.30716 0.35585 0.0
C52 C 0.9468 0.30124 0.40847 0.0
C53 C 0.91911 0.32867 0.43764 0.0
H54 H 0.35249 0.76237 0.18203 0.0
H55 H 0.33283 0.6391 0.28866 0.0
H56 H 0.47925 0.77507 0.3055 0.0
C57 C 0.36847 0.74645 0.2158 0.0
C58 C 0.41856 0.77629 0.24189 0.0
C59 C 0.33856 0.69661 0.23123 0.0
C60 C 0.35823 0.67636 0.2765 0.0
C61 C 0.40953 0.70274 0.30539 0.0
C62 C 0.43964 0.75339 0.28633 0.0
H63 H 0.07883 0.33461 0.81271 0.0
H64 H 0.18617 0.35908 0.68412 0.0
H65 H 0.21662 0.47513 0.79605 0.0
C66 C 0.11393 0.35811 0.79171 0.0
C67 C 0.14213 0.4099 0.8095 0.0
C68 C 0.13099 0.33719 0.7468 0.0
C69 C 0.17603 0.37065 0.72041 0.0
C70 C 0.20961 0.41857 0.73857 0.0
C71 C 0.19131 0.4381 0.78234 0.0
Tb72 Tb 0.96966 1.04714 0.59269 0.0
Tb73 Tb 0.0758 0.06547 0.55979 0.0
C74 C 0.86165 1.02361 0.59976 0.0
C75 C 0.81701 0.9766 0.61141 0.0
C76 C 0.82923 0.92918 0.61254 0.0
C77 C 0.79046 0.88632 0.63322 0.0
C78 C 0.73932 0.89056 0.65338 0.0
C79 C 0.72545 0.93733 0.64844 0.0
C80 C 0.76408 0.98003 0.62757 0.0
C81 C 0.03982 0.12801 0.64568 0.0
C82 C 0.04175 0.98571 0.64806 0.0
C83 C 0.18331 0.085 0.55024 0.0
C84 C 0.23267 0.12586 0.53237 0.0
C85 C 0.26135 0.16844 0.56225 0.0
C86 C 0.30997 0.20506 0.54472 0.0
C87 C 0.33057 0.19929 0.49731 0.0
C88 C 0.30155 0.15666 0.46784 0.0
C89 C 0.25368 0.12031 0.4853 0.0
C90 C 1.00405 0.98495 0.5075 0.0
C91 C 1.00394 0.12679 0.50426 0.0
O92 O 0.88666 1.02451 0.55726 0.0
O93 O 0.89889 1.04145 0.63698 0.0
O94 O 0.04043 0.11906 0.59853 0.0
O95 O 0.99941 0.09071 0.66315 0.0
O96 O 0.98847 0.98279 0.63266 0.0
O97 O 0.08351 1.02238 0.62946 0.0
O98 O 0.16038 0.09234 0.5918 0.0
O99 O 0.14418 0.06291 0.51588 0.0
O100 O 1.00591 0.99363 0.55486 0.0
O101 O 0.04111 1.02399 0.48859 0.0
O102 O 0.05743 0.12973 0.51914 0.0
O103 O 0.9623 0.0904 0.52335 0.0
H104 H 0.87012 0.92598 0.60023 0.0
H105 H 0.80232 0.85082 0.63675 0.0
H106 H 0.6872 0.94225 0.6647 0.0
H107 H 0.75428 1.01651 0.62712 0.0
H108 H 0.24654 0.17333 0.59911 0.0
H109 H 0.33157 0.23743 0.56826 0.0
H110 H 0.31545 0.15162 0.43062 0.0
H111 H 0.23305 0.08764 0.46173 0.0
Tb112 Tb 0.58272 0.06366 0.08802 0.0
Tb113 Tb 0.47177 0.05232 1.05366 0.0
C114 C 0.68995 0.09101 0.10839 0.0
C115 C 0.73411 0.13874 0.12058 0.0
C116 C 0.72536 0.18613 0.10685 0.0
C117 C 0.76339 0.23126 0.12555 0.0
C118 C 0.81025 0.2292 0.15853 0.0
C119 C 0.82161 0.18196 0.16848 0.0
C120 C 0.78359 0.13694 0.1497 0.0
C121 C 0.51688 0.97162 0.12252 0.0
C122 C 0.51733 0.13271 0.13843 0.0
C123 C 0.3631 1.03083 1.04437 0.0
C124 C 0.31783 0.98272 1.03623 0.0
C125 C 0.32933 0.93577 1.04729 0.0
C126 C 0.29161 0.8904 1.02877 0.0
C127 C 0.24299 0.8918 0.99774 0.0
C128 C 0.22864 0.9382 0.99126 0.0
C129 C 0.26598 0.98347 1.01038 0.0
C130 C 0.54428 0.12856 0.99967 0.0
C131 C 0.5367 0.99246 0.99908 0.0
O132 O 0.6666 0.08785 1.06252 0.0
O133 O 0.65152 0.07435 0.14227 0.0
O134 O 0.50309 1.01381 0.11869 0.0
O135 O 0.56813 0.98157 0.10616 0.0
O136 O 0.56455 0.11731 0.14104 0.0
O137 O 0.47576 0.11426 0.10429 0.0
O138 O 0.39207 1.03538 0.08775 0.0
O139 O 0.39703 1.04528 1.00699 0.0
O140 O 0.54715 0.11905 1.04696 0.0
O141 O 0.50045 0.09304 0.98154 0.0
O142 O 0.48707 0.98627 1.01935 0.0
O143 O 0.57988 1.03152 1.01335 0.0
H144 H 0.6876 0.18794 0.08387 0.0
H145 H 0.75388 0.2673 0.11743 0.0
H146 H 0.85707 0.17936 0.19432 0.0
H147 H 0.79105 0.10056 0.16032 0.0
H148 H 0.36947 0.93452 1.06689 0.0
H149 H 0.30333 0.85501 1.03449 0.0
H150 H 0.19165 0.94037 0.96716 0.0
H151 H 0.2566 1.01945 1.00153 0.0
Tb152 Tb 0.53686 0.5988 0.60057 0.0
Tb153 Tb 0.51184 0.51419 0.54297 0.0
C154 C 0.52706 0.67854 0.64047 0.0
C155 C 0.47406 0.69232 0.65197 0.0
C156 C 0.44131 0.70922 0.61324 0.0
C157 C 0.38825 0.71707 0.62284 0.0
C158 C 0.36693 0.70856 0.67138 0.0
C159 C 0.39991 0.69259 0.71037 0.0
C160 C 0.45313 0.68478 0.70082 0.0
C161 C 0.57894 0.52729 0.65091 0.0
C162 C 0.41414 0.51573 0.61467 0.0
C163 C 0.52296 0.4341 0.50471 0.0
C164 C 0.57703 0.42245 0.49424 0.0
C165 C 0.62762 0.4447 0.52391 0.0
C166 C 0.67986 0.43603 0.5132 0.0
C167 C 0.68226 0.40413 0.47332 0.0
C168 C 0.63171 0.3815 0.44374 0.0
C169 C 0.5794 0.3909 0.45399 0.0
C170 C 0.47001 0.58535 0.4925 0.0
C171 C 0.63549 0.59709 0.53014 0.0
O172 O 0.5355 0.67515 0.5927 0.0
O173 O 0.53769 0.64066 0.6665 0.0
O174 O 0.5311 0.52031 0.62468 0.0
O175 O 0.60456 0.57595 0.64683 0.0
O176 O 0.4449 0.56406 0.62008 0.0
O177 O 0.43293 0.48653 0.58479 0.0
O178 O 0.51518 0.43848 0.5524 0.0
O179 O 0.5113 0.471 0.47788 0.0
O180 O 0.51784 0.59271 0.51888 0.0
O181 O 0.44402 0.53665 0.49653 0.0
O182 O 0.60204 0.55042 0.52096 0.0
O183 O 0.6186 0.62575 0.56207 0.0
H184 H 0.456 0.7155 0.57512 0.0
H185 H 0.3635 0.7292 0.59212 0.0
H186 H 0.38464 0.6865 0.74832 0.0
H187 H 0.47746 0.67201 0.73145 0.0
H188 H 0.62687 0.46889 0.55553 0.0
H189 H 0.71825 0.45355 0.53658 0.0
H190 H 0.6329 0.35697 0.41251 0.0
H191 H 0.54106 0.37381 0.43047 0.0
Tb192 Tb 0.03459 0.60138 1.04702 0.0
Tb193 Tb 1.01483 0.51123 0.10261 0.0
C194 C 1.01459 0.67653 1.0001 0.0
C195 C 0.96321 0.69497 1.00166 0.0
C196 C 0.91523 0.66571 1.02707 0.0
C197 C 0.86356 0.67906 1.02423 0.0
C198 C 0.85841 0.72117 0.99479 0.0
C199 C 0.90725 0.75177 0.97107 0.0
C200 C 0.95942 0.73872 0.97454 0.0
C201 C 0.13189 0.59802 0.09876 0.0
C202 C 0.98226 0.60077 0.15941 0.0
C203 C 0.02682 0.43326 0.15047 0.0
C204 C 0.07628 0.41234 0.16026 0.0
C205 C 0.13269 0.44515 0.16425 0.0
C206 C 0.17919 0.42564 0.17722 0.0
C207 C 0.17028 0.37297 0.186 0.0
C208 C 0.11402 0.33994 0.1796 0.0
C209 C 0.06735 0.35958 0.167 0.0
C210 C 0.91866 0.51503 1.04769 0.0
C211 C 0.07111 0.51347 0.99175 0.0
O212 O 1.0043 0.63112 0.98094 0.0
O213 O 0.04691 0.68101 1.04172 0.0
O214 O 0.08078 0.58286 0.11379 0.0
O215 O 0.12861 0.61598 1.05319 0.0
O216 O 0.99159 0.62314 0.11404 0.0
O217 O 0.99018 0.5545 0.16469 0.0
O218 O 0.03168 0.47719 0.17121 0.0
O219 O 1.00649 0.43204 0.10388 0.0
O220 O 0.97045 0.52944 1.03506 0.0
O221 O 0.92019 0.49714 0.09332 0.0
O222 O 0.06264 0.49122 1.03747 0.0
O223 O 0.06129 0.55899 0.98596 0.0
H224 H 0.91677 0.63114 1.04734 0.0
H225 H 0.827 0.65533 1.04357 0.0
H226 H 0.90432 0.78433 0.94788 0.0
H227 H 0.9959 0.76153 0.95449 0.0
H228 H 0.14068 0.48602 0.15851 0.0
H229 H 0.22199 0.45206 0.18187 0.0
H230 H 0.10605 0.29903 0.18474 0.0
H231 H 0.02425 0.33367 0.16311 0.0
C232 C 0.44685 0.24905 0.40805 0.0
C233 C 0.43689 0.2962 0.39371 0.0
C234 C 0.419 0.22064 0.44849 0.0
C235 C 0.37967 0.23794 0.47534 0.0
H236 H 0.46923 0.23009 0.38419 0.0
H237 H 0.42222 0.18197 0.45425 0.0
S238 S 0.36252 0.36901 0.46925 0.0
N239 N 0.40499 0.36745 0.42291 0.0
N240 N 0.34808 0.31188 0.49644 0.0
C241 C 0.3794 0.28919 0.46864 0.0
C242 C 0.40949 0.31895 0.42834 0.0
C243 C 0.13184 0.8052 0.9097 0.0
C244 C 0.16671 0.7952 0.87264 0.0
C245 C 0.15649 0.83252 0.95343 0.0
C246 C 0.21681 0.85003 0.96176 0.0
H247 H 0.08535 0.79512 0.90308 0.0
H248 H 0.12845 0.84298 0.97911 0.0
S249 S 0.32741 0.83077 0.87863 0.0
N250 N 0.26507 0.80287 0.84905 0.0
N251 N 0.31069 0.85235 0.93157 0.0
C252 C 0.25194 0.83643 0.92727 0.0
C253 C 0.22711 0.80942 0.88257 0.0
C254 C 0.59841 0.41518 0.74362 0.0
C255 C 0.61982 0.43952 0.79065 0.0
C256 C 0.58372 0.44227 0.69949 0.0
C257 C 0.58978 0.49586 0.69891 0.0
H258 H 0.59444 0.3748 0.74022 0.0
H259 H 0.56901 0.42106 0.66498 0.0
S260 S 0.63489 0.57774 0.81258 0.0
N261 N 0.6385 0.52104 0.83332 0.0
N262 N 0.61412 0.57045 0.75229 0.0
C263 C 0.60895 0.51999 0.746 0.0
C264 C 0.62292 0.49258 0.7908 0.0
C265 C 0.93037 0.62729 0.29396 0.0
C266 C 0.93218 0.68021 0.2948 0.0
C267 C 0.9462 0.60277 0.25148 0.0
C268 C 0.96433 0.62845 0.20519 0.0
H269 H 0.917 0.60399 0.32717 0.0
H270 H 0.94376 0.56256 0.25516 0.0
S271 S 0.97629 0.767 0.18403 0.0
N272 N 0.95424 0.75685 0.24227 0.0
N273 N 0.98228 0.71178 0.16422 0.0
C274 C 0.96608 0.68129 0.20519 0.0
C275 C 0.95078 0.70653 0.24885 0.0
C276 C 0.50289 0.21184 0.24936 0.0
C277 C 0.48535 0.25258 0.22567 0.0
C278 C 0.5176 0.17486 0.22105 0.0
C279 C 0.51312 0.17624 0.16819 0.0
H280 H 0.50179 0.20627 0.28988 0.0
H281 H 0.52841 0.14309 0.24056 0.0
S282 S 0.47782 0.27761 0.08747 0.0
N283 N 0.47506 0.29621 0.14581 0.0
N284 N 0.49384 0.22262 0.09294 0.0
C285 C 0.49842 0.21765 0.14402 0.0
C286 C 0.48693 0.25687 0.17269 0.0
C287 C 0.12798 0.89676 0.69767 0.0
C288 C 0.08624 0.85601 0.71887 0.0
C289 C 0.11336 0.93935 0.67687 0.0
C290 C 0.05614 0.94267 0.67589 0.0
H291 H 0.17259 0.8959 0.69763 0.0
H292 H 0.14721 0.96935 0.66045 0.0
S293 S 0.93093 0.84576 0.72762 0.0
N294 N 0.98593 0.82153 0.73919 0.0
N295 N 0.95748 0.9012 0.69876 0.0
C296 C 1.01393 0.90213 0.69743 0.0
C297 C 0.0292 0.85891 0.71931 0.0
C298 C 0.76524 0.44456 0.99551 0.0
C299 C 0.76789 0.44836 0.94224 0.0
C300 C 0.81302 0.46749 1.02868 0.0
C301 C 0.8668 0.49574 1.01083 0.0
H302 H 0.72563 0.42284 1.01208 0.0
H303 H 0.80795 0.46196 1.06893 0.0
S304 S 0.89774 0.52013 0.87516 0.0
N305 N 0.82973 0.48489 0.87364 0.0
N306 N 0.91882 0.5279 0.9355 0.0
C307 C 0.86982 0.50148 0.95774 0.0
C308 C 0.82086 0.47807 0.92376 0.0
C309 C 0.74121 0.63259 0.42064 0.0
C310 C 0.79242 0.66532 0.44312 0.0
C311 C 0.69183 0.60944 0.44904 0.0
C312 C 0.69028 0.61844 0.50135 0.0
H313 H 0.73837 0.62604 0.38034 0.0
H314 H 0.65361 0.58572 0.42929 0.0
S315 S 0.81473 0.69346 0.58113 0.0
N316 N 0.83967 0.69833 0.52394 0.0
N317 N 0.74679 0.6586 0.57503 0.0
C318 C 0.74157 0.64923 0.52463 0.0
C319 C 0.7923 0.67145 0.49632 0.0
C320 C 0.32162 0.35692 0.19962 0.0
C321 C 0.31937 0.32597 0.24309 0.0
C322 C 0.27272 0.37059 0.18042 0.0
C323 C 0.21964 0.35351 0.20383 0.0
H324 H 0.36198 0.37195 0.18117 0.0
H325 H 0.2767 0.39536 0.14746 0.0
S326 S 0.18997 0.26794 0.31625 0.0
N327 N 0.25878 0.27519 0.30667 0.0
N328 N 0.1673 0.30215 0.27166 0.0
C329 C 0.21631 0.32091 0.24622 0.0
C330 C 0.26606 0.30688 0.26567 0.0
C331 C 0.57966 0.23979 0.89731 0.0
C332 C 0.60717 0.2849 0.92492 0.0
C333 C 0.55972 0.19027 0.92115 0.0
C334 C 0.56684 0.18201 0.97414 0.0
H335 H 0.57453 0.24238 0.8566 0.0
H336 H 0.53915 0.1578 0.89741 0.0
S337 S 0.63137 0.28626 1.0657 0.0
N338 N 0.63362 0.31645 1.01084 0.0
N339 N 0.60278 0.22514 1.05297 0.0
C340 C 0.59355 0.22665 1.00205 0.0
C341 C 0.61167 0.27705 0.97839 0.0
C342 C 0.96357 0.87824 0.40247 0.0
C343 C 0.94896 0.83088 0.42915 0.0
C344 C 0.9811 0.92688 0.42762 0.0
C345 C 0.98444 0.93189 0.48125 0.0
H346 H 0.95984 0.87795 0.36158 0.0
H347 H 0.9912 0.96124 0.40447 0.0
S348 S 0.95708 0.82104 0.57023 0.0
N349 N 0.94513 0.7941 0.51405 0.0
N350 N 0.97458 0.88332 0.55956 0.0
C351 C 0.97135 0.88501 0.50825 0.0
C352 C 0.95475 0.8357 0.48292 0.0
C353 C 0.2182 0.69104 0.72132 0.0
C354 C 0.20875 0.73925 0.71205 0.0
C355 C 0.26867 0.68068 0.70661 0.0
C356 C 0.31128 0.71809 0.68192 0.0
H357 H 0.18755 0.66194 0.74212 0.0
H358 H 0.27512 0.64362 0.71575 0.0
S359 S 0.30776 0.85012 0.64852 0.0
N360 N 0.24658 0.82458 0.67619 0.0
N361 N 0.34059 0.80458 0.64797 0.0
C362 C 0.30141 0.7656 0.67057 0.0
C363 C 0.25031 0.7763 0.68571 0.0
C364 C 0.71451 0.81276 0.77274 0.0
C365 C 0.65463 0.80314 0.77788 0.0
C366 C 0.74068 0.83628 0.72945 0.0
C367 C 0.70825 0.85158 0.68962 0.0
H368 H 0.74251 0.80655 0.80409 0.0
H369 H 0.78743 0.84689 0.72951 0.0
S370 S 0.54882 0.82455 0.67916 0.0
N371 N 0.56241 0.80232 0.73566 0.0
N372 N 0.61215 0.84761 0.65402 0.0
C373 C 0.64775 0.83741 0.69181 0.0
C374 C 0.62086 0.81298 0.73601 0.0
C375 C 0.92467 0.31619 0.24287 0.0
C376 C 0.89103 0.32817 0.27989 0.0
C377 C 0.8986 0.2882 0.19994 0.0
C378 C 0.83819 0.27238 0.19221 0.0
H379 H 0.97108 0.32461 0.24931 0.0
H380 H 0.92539 0.27544 0.17473 0.0
S381 S 0.73056 0.29832 0.27436 0.0
N382 N 0.79363 0.3249 0.30339 0.0
N383 N 0.74568 0.27462 0.22192 0.0
C384 C 0.80445 0.28865 0.22601 0.0
C385 C 0.8306 0.31611 0.27009 0.0
C386 C 0.41208 0.62069 0.3587 0.0
C387 C 0.42941 0.67517 0.35371 0.0
C388 C 0.42499 0.59346 0.40264 0.0
C389 C 0.45816 0.61768 0.44553 0.0
H390 H 0.38819 0.59756 0.32789 0.0
H391 H 0.40897 0.55213 0.40246 0.0
S392 S 0.51792 0.75902 0.4554 0.0
N393 N 0.48348 0.75178 0.39925 0.0
N394 N 0.50978 0.70088 0.47905 0.0
C395 C 0.47772 0.67187 0.44122 0.0
C396 C 0.46328 0.70011 0.39659 0.0
C397 C 0.10524 0.40982 0.90259 0.0
C398 C 0.12241 0.4356 0.85599 0.0
C399 C 0.09019 0.43449 0.94562 0.0
C400 C 0.09009 0.48696 0.94568 0.0
H401 H 0.10426 0.36993 0.90643 0.0
H402 H 0.07792 0.41166 0.97933 0.0
S403 S 0.12773 0.57277 0.83324 0.0
N404 N 0.13539 0.51802 0.8139 0.0
N405 N 0.10772 0.56269 0.89202 0.0
C406 C 0.10621 0.51277 0.89905 0.0
C407 C 0.12201 0.48794 0.85562 0.0
C408 C 0.53074 0.86121 0.95119 0.0
C409 C 0.57804 0.87179 0.92021 0.0
C410 C 0.51514 0.90092 0.97418 0.0
C411 C 0.54734 0.95232 0.96773 0.0
H412 H 0.50649 0.82194 0.95856 0.0
H413 H 0.47956 0.89111 0.99911 0.0
S414 S 0.67365 0.99971 0.88841 0.0
N415 N 0.65545 0.93692 0.88252 0.0
N416 N 0.62688 1.01155 0.92615 0.0
C417 C 0.59363 0.96327 0.93554 0.0
C418 C 0.60892 0.923 0.91168 0.0
C419 C 1.0195 0.25592 0.43962 0.0
C420 C 0.96181 0.25617 0.43067 0.0
C421 C 0.03314 0.21296 0.46152 0.0
C422 C 0.98932 0.16879 0.47462 0.0
H423 H 0.0542 0.28946 0.43055 0.0
H424 H 0.07812 0.21491 0.46938 0.0
S425 S 0.83121 0.14959 0.45302 0.0
N426 N 0.86091 0.20824 0.43243 0.0
N427 N 0.88556 0.12745 0.4731 0.0
C428 C 0.93141 0.16823 0.46346 0.0
C429 C 0.91781 0.21193 0.44163 0.0
C430 C 0.2326 0.64253 0.21817 0.0
C431 C 0.28702 0.66615 0.19833 0.0
C432 C 0.18317 0.61894 0.18646 0.0
C433 C 0.18567 0.61758 0.13327 0.0
H434 H 0.22758 0.64388 0.25842 0.0
H435 H 0.14227 0.60303 0.20371 0.0
S436 S 0.31893 0.66769 1.06253 0.0
N437 N 0.34064 0.68176 0.1219 0.0
N438 N 0.24915 0.63844 1.06326 0.0
C439 C 0.24039 0.63888 0.11343 0.0
C440 C 0.29041 0.66279 0.1455 0.0
C441 C 0.2801 0.49831 0.69742 0.0
C442 C 0.26456 0.44558 0.71063 0.0
C443 C 0.32795 0.52105 0.66682 0.0
C444 C 0.36224 0.49218 0.6469 0.0
H445 H 0.25438 0.52207 0.70982 0.0
H446 H 0.33746 0.56152 0.65798 0.0
S447 S 0.34634 0.35478 0.67611 0.0
N448 N 0.29381 0.36737 0.70592 0.0
N449 N 0.37955 0.40863 0.64756 0.0
C450 C 0.34824 0.44005 0.66136 0.0
C451 C 0.30089 0.41736 0.69322 0.0
C452 C 0.74468 0.7914 0.96955 0.0
C453 C 0.69793 0.75313 0.94818 0.0
C454 C 0.79557 0.78028 0.98726 0.0
C455 C 0.80122 0.73047 0.98458 0.0
H456 H 0.74363 0.83091 0.96904 0.0
H457 H 0.83168 0.81131 1.00102 0.0
S458 S 0.68827 0.61569 0.93799 0.0
N459 N 0.65809 0.66293 0.92985 0.0
N460 N 0.75371 0.64166 0.96315 0.0
C461 C 0.75311 0.69118 0.96681 0.0
C462 C 0.70146 0.70263 0.94855 0.0
C463 C 0.50244 0.84345 0.19931 0.0
C464 C 0.44678 0.83018 0.21897 0.0
C465 C 0.52402 0.88868 0.1693 0.0
C466 C 0.49193 0.92441 0.157 0.0
H467 H 0.52892 0.81747 0.2053 0.0
H468 H 0.56656 0.89523 0.15484 0.0
S469 S 0.3442 0.90983 0.19981 0.0
N470 N 0.36037 0.85863 0.22363 0.0
N471 N 0.40109 0.94257 0.16946 0.0
C472 C 0.43688 0.91235 0.17754 0.0
C473 C 0.41454 0.86597 0.20755 0.0
C474 C 0.14032 0.25926 0.6952 0.0
C475 C 0.10565 0.28169 0.72448 0.0
C476 C 0.1189 0.21174 0.66919 0.0
C477 C 0.0614 0.18099 0.67184 0.0
H478 H 0.18576 0.2784 0.69214 0.0
H479 H 0.14851 0.19836 0.64763 0.0
S480 S 0.95079 0.21646 0.74473 0.0
N481 N 1.00869 0.2655 0.754 0.0
N482 N 0.97013 0.17601 0.70879 0.0
C483 C 0.02642 0.20117 0.70244 0.0
C484 C 0.04784 0.25071 0.72778 0.0
C485 C 0.83759 0.42428 0.43905 0.0
C486 C 0.84232 0.37401 0.43868 0.0
C487 C 0.78607 0.43408 0.45183 0.0
C488 C 0.73739 0.39374 0.46335 0.0
H489 H 0.87321 0.45593 0.42765 0.0
H490 H 0.78351 0.47316 0.45078 0.0
S491 S 0.72774 0.2557 0.46881 0.0
N492 N 0.79413 0.28375 0.45214 0.0
N493 N 0.69762 0.30235 0.47582 0.0
C494 C 0.74204 0.34364 0.46441 0.0
C495 C 0.79447 0.33371 0.45219 0.0
loop_
_geom_bond_atom_site_label_1
_geom_bond_atom_site_label_2
_geom_bond_distance
_geom_bond_site_symmetry_2
_ccdc_geom_bond_type
H0 C3 0.931 . S
H1 C6 0.928 . S
H2 C8 0.930 . S
C3 H0 0.931 . S
C3 C4 1.413 . S
C3 C5 1.360 . S
C4 C3 1.413 . S
C4 C8 1.429 . S
C5 C3 1.360 . S
C5 C6 1.372 . S
C6 H1 0.928 . S
C6 C5 1.372 . S
C6 C7 1.404 . S
C7 C6 1.404 . S
C7 C8 1.391 . S
C8 H2 0.930 . S
C8 C4 1.429 . S
C8 C7 1.391 . S
H9 C12 0.931 . S
H10 C15 0.928 . S
H11 C17 0.930 . S
C12 H9 0.931 . S
C12 C13 1.413 . S
C12 C14 1.360 . S
C13 C12 1.413 . S
C13 C17 1.429 . S
C14 C12 1.360 . S
C14 C15 1.372 . S
C15 H10 0.928 . S
C15 C14 1.372 . S
C15 C16 1.404 . S
C16 C15 1.404 . S
C16 C17 1.391 . S
C17 H11 0.930 . S
C17 C13 1.429 . S
C17 C16 1.391 . S
H18 C21 0.931 . S
H19 C24 0.928 . S
H20 C26 0.930 . S
C21 H18 0.931 . S
C21 C22 1.413 . S
C21 C23 1.360 . S
C22 C21 1.413 . S
C22 C26 1.429 . S
C23 C21 1.360 . S
C23 C24 1.372 . S
C24 H19 0.928 . S
C24 C23 1.372 . S
C24 C25 1.404 . S
C25 C24 1.404 . S
C25 C26 1.391 . S
C26 H20 0.930 . S
C26 C22 1.429 . S
C26 C25 1.391 . S
H27 C30 0.931 . S
H28 C33 0.928 . S
H29 C35 0.930 . S
C30 H27 0.931 . S
C30 C31 1.413 . S
C30 C32 1.360 . S
C31 C30 1.413 . S
C31 C35 1.429 . S
C32 C30 1.360 . S
C32 C33 1.372 . S
C33 H28 0.928 . S
C33 C32 1.372 . S
C33 C34 1.404 . S
C34 C33 1.404 . S
C34 C35 1.391 . S
C35 H29 0.930 . S
C35 C31 1.429 . S
C35 C34 1.391 . S
H36 C39 0.931 . S
H37 C42 0.928 . S
H38 C44 0.930 . S
C39 H36 0.931 . S
C39 C40 1.413 . S
C39 C41 1.360 . S
C40 C39 1.413 . S
C40 C44 1.429 . S
C41 C39 1.360 . S
C41 C42 1.372 . S
C42 H37 0.928 . S
C42 C41 1.372 . S
C42 C43 1.404 . S
C43 C42 1.404 . S
C43 C44 1.391 . S
C44 H38 0.930 . S
C44 C40 1.429 . S
C44 C43 1.391 . S
H45 C48 0.931 . S
H46 C51 0.928 . S
H47 C53 0.930 . S
C48 H45 0.931 . S
C48 C49 1.413 . S
C48 C50 1.360 . S
C49 C48 1.413 . S
C49 C53 1.429 . S
C50 C48 1.360 . S
C50 C51 1.372 . S
C51 H46 0.928 . S
C51 C50 1.372 . S
C51 C52 1.404 . S
C52 C51 1.404 . S
C52 C53 1.391 . S
C53 H47 0.930 . S
C53 C49 1.429 . S
C53 C52 1.391 . S
H54 C57 0.931 . S
H55 C60 0.928 . S
H56 C62 0.930 . S
C57 H54 0.931 . S
C57 C58 1.413 . S
C57 C59 1.360 . S
C58 C57 1.413 . S
C58 C62 1.429 . S
C59 C57 1.360 . S
C59 C60 1.372 . S
C60 H55 0.928 . S
C60 C59 1.372 . S
C60 C61 1.404 . S
C61 C60 1.404 . S
C61 C62 1.391 . S
C62 H56 0.930 . S
C62 C58 1.429 . S
C62 C61 1.391 . S
H63 C66 0.931 . S
H64 C69 0.928 . S
H65 C71 0.930 . S
C66 H63 0.931 . S
C66 C67 1.413 . S
C66 C68 1.360 . S
C67 C66 1.413 . S
C67 C71 1.429 . S
C68 C66 1.360 . S
C68 C69 1.372 . S
C69 H64 0.928 . S
C69 C68 1.372 . S
C69 C70 1.404 . S
C70 C69 1.404 . S
C70 C71 1.391 . S
C71 H65 0.930 . S
C71 C67 1.429 . S
C71 C70 1.391 . S
Tb72 C74 2.809 1_545 S
Tb72 O92 2.484 1_545 S
Tb72 O93 2.440 1_545 S
Tb72 O94 2.658 1_655 S
Tb72 O95 2.409 . S
Tb72 O96 2.378 1_545 S
Tb72 O100 2.325 1_545 S
Tb72 O103 2.341 . S
Tb73 C83 2.809 . S
Tb73 O94 2.325 . S
Tb73 O97 2.341 1_545 S
Tb73 O98 2.484 . S
Tb73 O99 2.440 . S
Tb73 O100 2.658 1_445 S
Tb73 O101 2.409 1_545 S
Tb73 O102 2.378 . S
C74 Tb72 2.809 1_565 S
C74 C75 1.514 . S
C74 O92 1.248 . S
C74 O93 1.266 . S
C75 C74 1.514 . S
C75 C76 1.359 . S
C75 C80 1.348 . S
C76 C75 1.359 . S
C76 C77 1.380 . S
C76 H104 0.929 . S
C77 C76 1.380 . S
C77 C78 1.347 . S
C77 H105 0.931 . S
C78 C77 1.347 . S
C78 C79 1.369 . S
C79 C78 1.369 . S
C79 C80 1.408 . S
C79 H106 0.930 . S
C80 C75 1.348 . S
C80 C79 1.408 . S
C80 H107 0.930 . S
C81 O94 1.281 . S
C81 O95 1.254 1_455 S
C82 O96 1.236 1_455 S
C82 O97 1.266 . S
C83 Tb73 2.809 . S
C83 C84 1.514 . S
C83 O98 1.248 . S
C83 O99 1.266 . S
C84 C83 1.514 . S
C84 C85 1.359 . S
C84 C89 1.348 . S
C85 C84 1.359 . S
C85 C86 1.380 . S
C85 H108 0.929 . S
C86 C85 1.380 . S
C86 C87 1.347 . S
C86 H109 0.931 . S
C87 C86 1.347 . S
C87 C88 1.369 . S
C88 C87 1.369 . S
C88 C89 1.408 . S
C88 H110 0.930 . S
C89 C84 1.348 . S
C89 C88 1.408 . S
C89 H111 0.930 . S
C90 O100 1.281 . S
C90 O101 1.254 1_655 S
C91 O102 1.236 1_655 S
C91 O103 1.266 . S
O92 Tb72 2.484 1_565 S
O92 C74 1.248 . S
O93 Tb72 2.440 1_565 S
O93 C74 1.266 . S
O94 Tb72 2.658 1_455 S
O94 Tb73 2.325 . S
O94 C81 1.281 . S
O95 Tb72 2.409 . S
O95 C81 1.254 1_655 S
O96 Tb72 2.378 1_565 S
O96 C82 1.236 1_655 S
O97 Tb73 2.341 1_565 S
O97 C82 1.266 . S
O98 Tb73 2.484 . S
O98 C83 1.248 . S
O99 Tb73 2.440 . S
O99 C83 1.266 . S
O100 Tb72 2.325 1_565 S
O100 Tb73 2.658 1_665 S
O100 C90 1.281 . S
O101 Tb73 2.409 1_565 S
O101 C90 1.254 1_455 S
O102 Tb73 2.378 . S
O102 C91 1.236 1_455 S
O103 Tb72 2.341 . S
O103 C91 1.266 . S
H104 C76 0.929 . S
H105 C77 0.931 . S
H106 C79 0.930 . S
H107 C80 0.930 . S
H108 C85 0.929 . S
H109 C86 0.931 . S
H110 C88 0.930 . S
H111 C89 0.930 . S
Tb112 C114 2.809 . S
Tb112 O132 2.484 . S
Tb112 O133 2.440 . S
Tb112 O134 2.658 1_545 S
Tb112 O135 2.409 1_545 S
Tb112 O136 2.378 . S
Tb112 O140 2.325 1_554 S
Tb112 O143 2.341 1_544 S
Tb113 C123 2.816 . S
Tb113 O134 2.332 1_556 S
Tb113 O137 2.334 1_566 S
Tb113 O138 2.495 . S
Tb113 O139 2.442 . S
Tb113 O140 2.654 1_565 S
Tb113 O141 2.401 1_565 S
Tb113 O142 2.385 . S
C114 Tb112 2.809 . S
C114 C115 1.514 . S
C114 O132 1.248 . S
C114 O133 1.266 . S
C115 C114 1.514 . S
C115 C116 1.359 . S
C115 C120 1.348 . S
C116 C115 1.359 . S
C116 C117 1.380 . S
C116 H144 0.929 . S
C117 C116 1.380 . S
C117 C118 1.347 . S
C117 H145 0.931 . S
C118 C117 1.347 . S
C118 C119 1.369 . S
C119 C118 1.369 . S
C119 C120 1.408 . S
C119 H146 0.930 . S
C120 C115 1.348 . S
C120 C119 1.408 . S
C120 H147 0.930 . S
C121 O134 1.281 . S
C121 O135 1.254 . S
C122 O136 1.236 . S
C122 O137 1.266 . S
C123 Tb113 2.816 . S
C123 C124 1.514 . S
C123 O138 1.248 . S
C123 O139 1.266 . S
C124 C123 1.514 . S
C124 C125 1.359 . S
C124 C129 1.348 . S
C125 C124 1.359 . S
C125 C126 1.380 . S
C125 H148 0.929 . S
C126 C125 1.380 . S
C126 C127 1.347 . S
C126 H149 0.931 . S
C127 C126 1.347 . S
C127 C128 1.369 . S
C128 C127 1.369 . S
C128 C129 1.408 . S
C128 H150 0.930 . S
C129 C124 1.348 . S
C129 C128 1.408 . S
C129 H151 0.930 . S
C130 O140 1.281 . S
C130 O141 1.254 . S
C131 O142 1.236 . S
C131 O143 1.266 . S
O132 Tb112 2.484 . S
O132 C114 1.248 . S
O133 Tb112 2.440 . S
O133 C114 1.266 . S
O134 Tb112 2.658 1_565 S
O134 Tb113 2.332 1_554 S
O134 C121 1.281 . S
O135 Tb112 2.409 1_565 S
O135 C121 1.254 . S
O136 Tb112 2.378 . S
O136 C122 1.236 . S
O137 Tb113 2.334 1_544 S
O137 C122 1.266 . S
O138 Tb113 2.495 . S
O138 C123 1.248 . S
O139 Tb113 2.442 . S
O139 C123 1.266 . S
O140 Tb112 2.325 1_556 S
O140 Tb113 2.654 1_545 S
O140 C130 1.281 . S
O141 Tb113 2.401 1_545 S
O141 C130 1.254 . S
O142 Tb113 2.385 . S
O142 C131 1.236 . S
O143 Tb112 2.341 1_566 S
O143 C131 1.266 . S
H144 C116 0.929 . S
H145 C117 0.931 . S
H146 C119 0.930 . S
H147 C120 0.930 . S
H148 C125 0.929 . S
H149 C126 0.931 . S
H150 C128 0.930 . S
H151 C129 0.930 . S
Tb152 C154 2.809 . S
Tb152 O172 2.484 . S
Tb152 O173 2.440 . S
Tb152 O174 2.658 . S
Tb152 O175 2.409 . S
Tb152 O176 2.378 . S
Tb152 O180 2.325 . S
Tb152 O183 2.341 . S
Tb153 C163 2.809 . S
Tb153 O174 2.325 . S
Tb153 O177 2.341 . S
Tb153 O178 2.484 . S
Tb153 O179 2.440 . S
Tb153 O180 2.658 . S
Tb153 O181 2.409 . S
Tb153 O182 2.378 . S
C154 Tb152 2.809 . S
C154 C155 1.514 . S
C154 O172 1.248 . S
C154 O173 1.266 . S
C155 C154 1.514 . S
C155 C156 1.359 . S
C155 C160 1.348 . S
C156 C155 1.359 . S
C156 C157 1.380 . S
C156 H184 0.929 . S
C157 C156 1.380 . S
C157 C158 1.347 . S
C157 H185 0.931 . S
C158 C157 1.347 . S
C158 C159 1.369 . S
C159 C158 1.369 . S
C159 C160 1.408 . S
C159 H186 0.930 . S
C160 C155 1.348 . S
C160 C159 1.408 . S
C160 H187 0.930 . S
C161 O174 1.281 . S
C161 O175 1.254 . S
C162 O176 1.236 . S
C162 O177 1.266 . S
C163 Tb153 2.809 . S
C163 C164 1.514 . S
C163 O178 1.248 . S
C163 O179 1.266 . S
C164 C163 1.514 . S
C164 C165 1.359 . S
C164 C169 1.348 . S
C165 C164 1.359 . S
C165 C166 1.380 . S
C165 H188 0.929 . S
C166 C165 1.380 . S
C166 C167 1.347 . S
C166 H189 0.931 . S
C167 C166 1.347 . S
C167 C168 1.369 . S
C168 C167 1.369 . S
C168 C169 1.408 . S
C168 H190 0.930 . S
C169 C164 1.348 . S
C169 C168 1.408 . S
C169 H191 0.930 . S
C170 O180 1.281 . S
C170 O181 1.254 . S
C171 O182 1.236 . S
C171 O183 1.266 . S
O172 Tb152 2.484 . S
O172 C154 1.248 . S
O173 Tb152 2.440 . S
O173 C154 1.266 . S
O174 Tb152 2.658 . S
O174 Tb153 2.325 . S
O174 C161 1.281 . S
O175 Tb152 2.409 . S
O175 C161 1.254 . S
O176 Tb152 2.378 . S
O176 C162 1.236 . S
O177 Tb153 2.341 . S
O177 C162 1.266 . S
O178 Tb153 2.484 . S
O178 C163 1.248 . S
O179 Tb153 2.440 . S
O179 C163 1.266 . S
O180 Tb152 2.325 . S
O180 Tb153 2.658 . S
O180 C170 1.281 . S
O181 Tb153 2.409 . S
O181 C170 1.254 . S
O182 Tb153 2.378 . S
O182 C171 1.236 . S
O183 Tb152 2.341 . S
O183 C171 1.266 . S
H184 C156 0.929 . S
H185 C157 0.931 . S
H186 C159 0.930 . S
H187 C160 0.930 . S
H188 C165 0.929 . S
H189 C166 0.931 . S
H190 C168 0.930 . S
H191 C169 0.930 . S
Tb192 C194 2.809 . S
Tb192 O212 2.484 . S
Tb192 O213 2.440 . S
Tb192 O214 2.658 1_656 S
Tb192 O215 2.409 1_656 S
Tb192 O216 2.378 1_556 S
Tb192 O220 2.325 . S
Tb192 O223 2.341 1_655 S
Tb193 C203 2.809 . S
Tb193 O214 2.325 . S
Tb193 O217 2.341 1_455 S
Tb193 O218 2.484 . S
Tb193 O219 2.440 . S
Tb193 O220 2.658 1_454 S
Tb193 O221 2.411 1_455 S
Tb193 O222 2.378 1_554 S
C194 Tb192 2.809 . S
C194 C195 1.514 . S
C194 O212 1.248 . S
C194 O213 1.266 . S
C195 C194 1.514 . S
C195 C196 1.359 . S
C195 C200 1.348 . S
C196 C195 1.359 . S
C196 C197 1.380 . S
C196 H224 0.929 . S
C197 C196 1.380 . S
C197 C198 1.347 . S
C197 H225 0.931 . S
C198 C197 1.347 . S
C198 C199 1.369 . S
C199 C198 1.369 . S
C199 C200 1.408 . S
C199 H226 0.930 . S
C200 C195 1.348 . S
C200 C199 1.408 . S
C200 H227 0.930 . S
C201 O214 1.281 . S
C201 O215 1.254 . S
C202 O216 1.236 . S
C202 O217 1.266 . S
C203 Tb193 2.809 . S
C203 C204 1.514 . S
C203 O218 1.248 . S
C203 O219 1.266 . S
C204 C203 1.514 . S
C204 C205 1.359 . S
C204 C209 1.348 . S
C205 C204 1.359 . S
C205 C206 1.380 . S
C205 H228 0.929 . S
C206 C205 1.380 . S
C206 C207 1.347 . S
C206 H229 0.931 . S
C207 C206 1.347 . S
C207 C208 1.369 . S
C208 C207 1.369 . S
C208 C209 1.408 . S
C208 H230 0.930 . S
C209 C204 1.348 . S
C209 C208 1.408 . S
C209 H231 0.930 . S
C210 O220 1.281 . S
C210 O221 1.251 1_556 S
C211 O222 1.236 . S
C211 O223 1.266 . S
O212 Tb192 2.484 . S
O212 C194 1.248 . S
O213 Tb192 2.440 . S
O213 C194 1.266 . S
O214 Tb192 2.658 1_454 S
O214 Tb193 2.325 . S
O214 C201 1.281 . S
O215 Tb192 2.409 1_454 S
O215 C201 1.254 . S
O216 Tb192 2.378 1_554 S
O216 C202 1.236 . S
O217 Tb193 2.341 1_655 S
O217 C202 1.266 . S
O218 Tb193 2.484 . S
O218 C203 1.248 . S
O219 Tb193 2.440 . S
O219 C203 1.266 . S
O220 Tb192 2.325 . S
O220 Tb193 2.658 1_656 S
O220 C210 1.281 . S
O221 Tb193 2.411 1_655 S
O221 C210 1.251 1_554 S
O222 Tb193 2.378 1_556 S
O222 C211 1.236 . S
O223 Tb192 2.341 1_455 S
O223 C211 1.266 . S
H224 C196 0.929 . S
H225 C197 0.931 . S
H226 C199 0.930 . S
H227 C200 0.930 . S
H228 C205 0.929 . S
H229 C206 0.931 . S
H230 C208 0.930 . S
H231 C209 0.930 . S
C232 C233 1.369 . S
C232 C234 1.419 . S
C232 H236 0.930 . S
C233 C232 1.369 . S
C233 C242 1.429 . S
C234 C232 1.419 . S
C234 C235 1.363 . S
C234 H237 0.929 . S
C235 C234 1.363 . S
C235 C241 1.428 . S
H236 C232 0.930 . S
H237 C234 0.929 . S
S238 N239 1.613 . S
S238 N240 1.610 . S
N239 S238 1.613 . S
N239 C242 1.350 . S
N240 S238 1.610 . S
N240 C241 1.351 . S
C241 C235 1.428 . S
C241 N240 1.351 . S
C241 C242 1.434 . S
C242 C233 1.429 . S
C242 N239 1.350 . S
C242 C241 1.434 . S
C243 C244 1.369 . S
C243 C245 1.419 . S
C243 H247 0.930 . S
C244 C243 1.369 . S
C244 C253 1.429 . S
C245 C243 1.419 . S
C245 C246 1.363 . S
C245 H248 0.929 . S
C246 C245 1.363 . S
C246 C252 1.428 . S
H247 C243 0.930 . S
H248 C245 0.929 . S
S249 N250 1.613 . S
S249 N251 1.610 . S
N250 S249 1.613 . S
N250 C253 1.350 . S
N251 S249 1.610 . S
N251 C252 1.351 . S
C252 C246 1.428 . S
C252 N251 1.351 . S
C252 C253 1.434 . S
C253 C244 1.429 . S
C253 N250 1.350 . S
C253 C252 1.434 . S
C254 C255 1.369 . S
C254 C256 1.419 . S
C254 H258 0.930 . S
C255 C254 1.369 . S
C255 C264 1.429 . S
C256 C254 1.419 . S
C256 C257 1.363 . S
C256 H259 0.929 . S
C257 C256 1.363 . S
C257 C263 1.428 . S
H258 C254 0.930 . S
H259 C256 0.929 . S
S260 N261 1.613 . S
S260 N262 1.610 . S
N261 S260 1.613 . S
N261 C264 1.350 . S
N262 S260 1.610 . S
N262 C263 1.351 . S
C263 C257 1.428 . S
C263 N262 1.351 . S
C263 C264 1.434 . S
C264 C255 1.429 . S
C264 N261 1.350 . S
C264 C263 1.434 . S
C265 C266 1.369 . S
C265 C267 1.419 . S
C265 H269 0.930 . S
C266 C265 1.369 . S
C266 C275 1.429 . S
C267 C265 1.419 . S
C267 C268 1.363 . S
C267 H270 0.929 . S
C268 C267 1.363 . S
C268 C274 1.428 . S
H269 C265 0.930 . S
H270 C267 0.929 . S
S271 N272 1.613 . S
S271 N273 1.610 . S
N272 S271 1.613 . S
N272 C275 1.350 . S
N273 S271 1.610 . S
N273 C274 1.351 . S
C274 C268 1.428 . S
C274 N273 1.351 . S
C274 C275 1.434 . S
C275 C266 1.429 . S
C275 N272 1.350 . S
C275 C274 1.434 . S
C276 C277 1.369 . S
C276 C278 1.419 . S
C276 H280 0.930 . S
C277 C276 1.369 . S
C277 C286 1.429 . S
C278 C276 1.419 . S
C278 C279 1.363 . S
C278 H281 0.929 . S
C279 C278 1.363 . S
C279 C285 1.428 . S
H280 C276 0.930 . S
H281 C278 0.929 . S
S282 N283 1.613 . S
S282 N284 1.610 . S
N283 S282 1.613 . S
N283 C286 1.350 . S
N284 S282 1.610 . S
N284 C285 1.351 . S
C285 C279 1.428 . S
C285 N284 1.351 . S
C285 C286 1.434 . S
C286 C277 1.429 . S
C286 N283 1.350 . S
C286 C285 1.434 . S
C287 C288 1.369 . S
C287 C289 1.419 . S
C287 H291 0.930 . S
C288 C287 1.369 . S
C288 C297 1.429 1_455 S
C289 C287 1.419 . S
C289 C290 1.363 . S
C289 H292 0.929 . S
C290 C289 1.363 . S
C290 C296 1.428 1_455 S
H291 C287 0.930 . S
H292 C289 0.929 . S
S293 N294 1.613 . S
S293 N295 1.610 . S
N294 S293 1.613 . S
N294 C297 1.350 . S
N295 S293 1.610 . S
N295 C296 1.351 . S
C296 C290 1.428 1_655 S
C296 N295 1.351 . S
C296 C297 1.434 . S
C297 C288 1.429 1_655 S
C297 N294 1.350 . S
C297 C296 1.434 . S
C298 C299 1.369 . S
C298 C300 1.419 . S
C298 H302 0.930 . S
C299 C298 1.369 . S
C299 C308 1.429 . S
C300 C298 1.419 . S
C300 C301 1.363 . S
C300 H303 0.929 . S
C301 C300 1.363 . S
C301 C307 1.428 . S
H302 C298 0.930 . S
H303 C300 0.929 . S
S304 N305 1.613 . S
S304 N306 1.610 . S
N305 S304 1.613 . S
N305 C308 1.350 . S
N306 S304 1.610 . S
N306 C307 1.351 . S
C307 C301 1.428 . S
C307 N306 1.351 . S
C307 C308 1.434 . S
C308 C299 1.429 . S
C308 N305 1.350 . S
C308 C307 1.434 . S
C309 C310 1.369 . S
C309 C311 1.419 . S
C309 H313 0.930 . S
C310 C309 1.369 . S
C310 C319 1.429 . S
C311 C309 1.419 . S
C311 C312 1.363 . S
C311 H314 0.929 . S
C312 C311 1.363 . S
C312 C318 1.428 . S
H313 C309 0.930 . S
H314 C311 0.929 . S
S315 N316 1.613 . S
S315 N317 1.610 . S
N316 S315 1.613 . S
N316 C319 1.350 . S
N317 S315 1.610 . S
N317 C318 1.351 . S
C318 C312 1.428 . S
C318 N317 1.351 . S
C318 C319 1.434 . S
C319 C310 1.429 . S
C319 N316 1.350 . S
C319 C318 1.434 . S
C320 C321 1.369 . S
C320 C322 1.419 . S
C320 H324 0.930 . S
C321 C320 1.369 . S
C321 C330 1.429 . S
C322 C320 1.419 . S
C322 C323 1.363 . S
C322 H325 0.929 . S
C323 C322 1.363 . S
C323 C329 1.428 . S
H324 C320 0.930 . S
H325 C322 0.929 . S
S326 N327 1.613 . S
S326 N328 1.610 . S
N327 S326 1.613 . S
N327 C330 1.350 . S
N328 S326 1.610 . S
N328 C329 1.351 . S
C329 C323 1.428 . S
C329 N328 1.351 . S
C329 C330 1.434 . S
C330 C321 1.429 . S
C330 N327 1.350 . S
C330 C329 1.434 . S
C331 C332 1.369 . S
C331 C333 1.419 . S
C331 H335 0.930 . S
C332 C331 1.369 . S
C332 C341 1.429 . S
C333 C331 1.419 . S
C333 C334 1.363 . S
C333 H336 0.929 . S
C334 C333 1.363 . S
C334 C340 1.428 . S
H335 C331 0.930 . S
H336 C333 0.929 . S
S337 N338 1.613 . S
S337 N339 1.610 . S
N338 S337 1.613 . S
N338 C341 1.350 . S
N339 S337 1.610 . S
N339 C340 1.351 . S
C340 C334 1.428 . S
C340 N339 1.351 . S
C340 C341 1.434 . S
C341 C332 1.429 . S
C341 N338 1.350 . S
C341 C340 1.434 . S
C342 C343 1.369 . S
C342 C344 1.419 . S
C342 H346 0.930 . S
C343 C342 1.369 . S
C343 C352 1.429 . S
C344 C342 1.419 . S
C344 C345 1.363 . S
C344 H347 0.929 . S
C345 C344 1.363 . S
C345 C351 1.428 . S
H346 C342 0.930 . S
H347 C344 0.929 . S
S348 N349 1.613 . S
S348 N350 1.610 . S
N349 S348 1.613 . S
N349 C352 1.350 . S
N350 S348 1.610 . S
N350 C351 1.351 . S
C351 C345 1.428 . S
C351 N350 1.351 . S
C351 C352 1.434 . S
C352 C343 1.429 . S
C352 N349 1.350 . S
C352 C351 1.434 . S
C353 C354 1.369 . S
C353 C355 1.419 . S
C353 H357 0.930 . S
C354 C353 1.369 . S
C354 C363 1.429 . S
C355 C353 1.419 . S
C355 C356 1.363 . S
C355 H358 0.929 . S
C356 C355 1.363 . S
C356 C362 1.428 . S
H357 C353 0.930 . S
H358 C355 0.929 . S
S359 N360 1.613 . S
S359 N361 1.610 . S
N360 S359 1.613 . S
N360 C363 1.350 . S
N361 S359 1.610 . S
N361 C362 1.351 . S
C362 C356 1.428 . S
C362 N361 1.351 . S
C362 C363 1.434 . S
C363 C354 1.429 . S
C363 N360 1.350 . S
C363 C362 1.434 . S
C364 C365 1.369 . S
C364 C366 1.419 . S
C364 H368 0.930 . S
C365 C364 1.369 . S
C365 C374 1.429 . S
C366 C364 1.419 . S
C366 C367 1.363 . S
C366 H369 0.929 . S
C367 C366 1.363 . S
C367 C373 1.428 . S
H368 C364 0.930 . S
H369 C366 0.929 . S
S370 N371 1.613 . S
S370 N372 1.610 . S
N371 S370 1.613 . S
N371 C374 1.350 . S
N372 S370 1.610 . S
N372 C373 1.351 . S
C373 C367 1.428 . S
C373 N372 1.351 . S
C373 C374 1.434 . S
C374 C365 1.429 . S
C374 N371 1.350 . S
C374 C373 1.434 . S
C375 C376 1.369 . S
C375 C377 1.419 . S
C375 H379 0.930 . S
C376 C375 1.369 . S
C376 C385 1.429 . S
C377 C375 1.419 . S
C377 C378 1.363 . S
C377 H380 0.929 . S
C378 C377 1.363 . S
C378 C384 1.428 . S
H379 C375 0.930 . S
H380 C377 0.929 . S
S381 N382 1.613 . S
S381 N383 1.610 . S
N382 S381 1.613 . S
N382 C385 1.350 . S
N383 S381 1.610 . S
N383 C384 1.351 . S
C384 C378 1.428 . S
C384 N383 1.351 . S
C384 C385 1.434 . S
C385 C376 1.429 . S
C385 N382 1.350 . S
C385 C384 1.434 . S
C386 C387 1.369 . S
C386 C388 1.419 . S
C386 H390 0.930 . S
C387 C386 1.369 . S
C387 C396 1.429 . S
C388 C386 1.419 . S
C388 C389 1.363 . S
C388 H391 0.929 . S
C389 C388 1.363 . S
C389 C395 1.428 . S
H390 C386 0.930 . S
H391 C388 0.929 . S
S392 N393 1.613 . S
S392 N394 1.610 . S
N393 S392 1.613 . S
N393 C396 1.350 . S
N394 S392 1.610 . S
N394 C395 1.351 . S
C395 C389 1.428 . S
C395 N394 1.351 . S
C395 C396 1.434 . S
C396 C387 1.429 . S
C396 N393 1.350 . S
C396 C395 1.434 . S
C397 C398 1.369 . S
C397 C399 1.419 . S
C397 H401 0.930 . S
C398 C397 1.369 . S
C398 C407 1.429 . S
C399 C397 1.419 . S
C399 C400 1.363 . S
C399 H402 0.929 . S
C400 C399 1.363 . S
C400 C406 1.428 . S
H401 C397 0.930 . S
H402 C399 0.929 . S
S403 N404 1.613 . S
S403 N405 1.610 . S
N404 S403 1.613 . S
N404 C407 1.350 . S
N405 S403 1.610 . S
N405 C406 1.351 . S
C406 C400 1.428 . S
C406 N405 1.351 . S
C406 C407 1.434 . S
C407 C398 1.429 . S
C407 N404 1.350 . S
C407 C406 1.434 . S
C408 C409 1.369 . S
C408 C410 1.419 . S
C408 H412 0.930 . S
C409 C408 1.369 . S
C409 C418 1.429 . S
C410 C408 1.419 . S
C410 C411 1.363 . S
C410 H413 0.929 . S
C411 C410 1.363 . S
C411 C417 1.428 . S
H412 C408 0.930 . S
H413 C410 0.929 . S
S414 N415 1.613 . S
S414 N416 1.610 . S
N415 S414 1.613 . S
N415 C418 1.350 . S
N416 S414 1.610 . S
N416 C417 1.351 . S
C417 C411 1.428 . S
C417 N416 1.351 . S
C417 C418 1.434 . S
C418 C409 1.429 . S
C418 N415 1.350 . S
C418 C417 1.434 . S
C419 C420 1.369 1_455 S
C419 C421 1.419 . S
C419 H423 0.930 . S
C420 C419 1.369 1_655 S
C420 C429 1.429 . S
C421 C419 1.419 . S
C421 C422 1.363 1_455 S
C421 H424 0.929 . S
C422 C421 1.363 1_655 S
C422 C428 1.428 . S
H423 C419 0.930 . S
H424 C421 0.929 . S
S425 N426 1.613 . S
S425 N427 1.610 . S
N426 S425 1.613 . S
N426 C429 1.350 . S
N427 S425 1.610 . S
N427 C428 1.351 . S
C428 C422 1.428 . S
C428 N427 1.351 . S
C428 C429 1.434 . S
C429 C420 1.429 . S
C429 N426 1.350 . S
C429 C428 1.434 . S
C430 C431 1.369 . S
C430 C432 1.419 . S
C430 H434 0.930 . S
C431 C430 1.369 . S
C431 C440 1.429 . S
C432 C430 1.419 . S
C432 C433 1.363 . S
C432 H435 0.929 . S
C433 C432 1.363 . S
C433 C439 1.428 . S
H434 C430 0.930 . S
H435 C432 0.929 . S
S436 N437 1.613 . S
S436 N438 1.610 . S
N437 S436 1.613 . S
N437 C440 1.350 . S
N438 S436 1.610 . S
N438 C439 1.351 . S
C439 C433 1.428 . S
C439 N438 1.351 . S
C439 C440 1.434 . S
C440 C431 1.429 . S
C440 N437 1.350 . S
C440 C439 1.434 . S
C441 C442 1.369 . S
C441 C443 1.419 . S
C441 H445 0.930 . S
C442 C441 1.369 . S
C442 C451 1.429 . S
C443 C441 1.419 . S
C443 C444 1.363 . S
C443 H446 0.929 . S
C444 C443 1.363 . S
C444 C450 1.428 . S
H445 C441 0.930 . S
H446 C443 0.929 . S
S447 N448 1.613 . S
S447 N449 1.610 . S
N448 S447 1.613 . S
N448 C451 1.350 . S
N449 S447 1.610 . S
N449 C450 1.351 . S
C450 C444 1.428 . S
C450 N449 1.351 . S
C450 C451 1.434 . S
C451 C442 1.429 . S
C451 N448 1.350 . S
C451 C450 1.434 . S
C452 C453 1.369 . S
C452 C454 1.419 . S
C452 H456 0.930 . S
C453 C452 1.369 . S
C453 C462 1.429 . S
C454 C452 1.419 . S
C454 C455 1.363 . S
C454 H457 0.929 . S
C455 C454 1.363 . S
C455 C461 1.428 . S
H456 C452 0.930 . S
H457 C454 0.929 . S
S458 N459 1.613 . S
S458 N460 1.610 . S
N459 S458 1.613 . S
N459 C462 1.350 . S
N460 S458 1.610 . S
N460 C461 1.351 . S
C461 C455 1.428 . S
C461 N460 1.351 . S
C461 C462 1.434 . S
C462 C453 1.429 . S
C462 N459 1.350 . S
C462 C461 1.434 . S
C463 C464 1.369 . S
C463 C465 1.419 . S
C463 H467 0.930 . S
C464 C463 1.369 . S
C464 C473 1.429 . S
C465 C463 1.419 . S
C465 C466 1.363 . S
C465 H468 0.929 . S
C466 C465 1.363 . S
C466 C472 1.428 . S
H467 C463 0.930 . S
H468 C465 0.929 . S
S469 N470 1.613 . S
S469 N471 1.610 . S
N470 S469 1.613 . S
N470 C473 1.350 . S
N471 S469 1.610 . S
N471 C472 1.351 . S
C472 C466 1.428 . S
C472 N471 1.351 . S
C472 C473 1.434 . S
C473 C464 1.429 . S
C473 N470 1.350 . S
C473 C472 1.434 . S
C474 C475 1.369 . S
C474 C476 1.419 . S
C474 H478 0.930 . S
C475 C474 1.369 . S
C475 C484 1.429 . S
C476 C474 1.419 . S
C476 C477 1.363 . S
C476 H479 0.929 . S
C477 C476 1.363 . S
C477 C483 1.428 . S
H478 C474 0.930 . S
H479 C476 0.929 . S
S480 N481 1.613 1_655 S
S480 N482 1.610 . S
N481 S480 1.613 1_455 S
N481 C484 1.350 . S
N482 S480 1.610 . S
N482 C483 1.351 1_655 S
C483 C477 1.428 . S
C483 N482 1.351 1_455 S
C483 C484 1.434 . S
C484 C475 1.429 . S
C484 N481 1.350 . S
C484 C483 1.434 . S
C485 C486 1.369 . S
C485 C487 1.419 . S
C485 H489 0.930 . S
C486 C485 1.369 . S
C486 C495 1.429 . S
C487 C485 1.419 . S
C487 C488 1.363 . S
C487 H490 0.929 . S
C488 C487 1.363 . S
C488 C494 1.428 . S
H489 C485 0.930 . S
H490 C487 0.929 . S
S491 N492 1.613 . S
S491 N493 1.610 . S
N492 S491 1.613 . S
N492 C495 1.350 . S
N493 S491 1.610 . S
N493 C494 1.351 . S
C494 C488 1.428 . S
C494 N493 1.351 . S
C494 C495 1.434 . S
C495 C486 1.429 . S
C495 N492 1.350 . S
C495 C494 1.434 . S
C233 C5 1.138 . S
C235 C87 1.160 . S
C244 C14 0.986 . S
C246 C127 1.038 . S
C257 C161 2.422 . S
C255 C25 2.440 . S
C266 C34 2.667 . S
C268 C202 2.580 . S
C279 C122 1.319 . S
C277 C7 1.241 . S
C290 C82 1.808 . S
C288 C13 1.658 . S
C301 C210 1.773 . S
C299 C23 1.767 . S
C312 C171 1.843 . S
C310 C31 1.918 . S
C321 C4 1.443 . S
C323 C207 1.486 . S
C334 C130 2.106 . S
C332 C22 2.171 . S
C343 C32 2.422 . S
C345 C90 2.324 . S
C354 C16 1.413 . S
C356 C158 1.472 . S
C367 C78 1.151 . S
C365 C41 1.128 . S
C376 C50 0.990 . S
C378 C118 1.045 . S
C387 C61 2.439 . S
C389 C170 2.421 . S
C398 C67 2.673 . S
C400 C211 2.592 . S
C409 C40 1.252 . S
C411 C131 1.336 . S
C422 C91 1.794 . S
C420 C52 1.630 . S
C433 C201 1.770 . S
C431 C59 1.768 . S
C444 C162 1.838 . S
C442 C70 1.917 . S
C453 C43 1.444 . S
C455 C198 1.467 . S
C466 C121 2.118 . S
C464 C58 2.184 . S
C477 C81 2.309 . S
C475 C68 2.407 . S
C486 C49 1.420 . S
C488 C167 1.480 . S
