# Generated by pormake.
# Topology pyr, (3,6)-cn, num edge types: 1
# Building blocks:
#     Node 0, Type 0, BuildingBlock: VETTIZ_charged_linker_0, # of connection points: 3
#     Node 1, Type 0, BuildingBlock: VETTIZ_charged_linker_0, # of connection points: 3
#     Node 2, Type 0, BuildingBlock: VETTIZ_charged_linker_0, # of connection points: 3
#     Node 3, Type 0, BuildingBlock: VETTIZ_charged_linker_0, # of connection points: 3
#     Node 4, Type 0, BuildingBlock: VETTIZ_charged_linker_0, # of connection points: 3
#     Node 5, Type 0, BuildingBlock: VETTIZ_charged_linker_0, # of connection points: 3
#     Node 6, Type 0, BuildingBlock: VETTIZ_charged_linker_0, # of connection points: 3
#     Node 7, Type 0, BuildingBlock: VETTIZ_charged_linker_0, # of connection points: 3
#     Node 8, Type 1, BuildingBlock: PAMTUU_clean_sbu_0, # of connection points: 6
#     Node 9, Type 1, BuildingBlock: PAMTUU_clean_sbu_0, # of connection points: 6
#     Node 10, Type 1, BuildingBlock: PAMTUU_clean_sbu_0, # of connection points: 6
#     Node 11, Type 1, BuildingBlock: PAMTUU_clean_sbu_0, # of connection points: 6
#     Edge 12, Type (0, 1), BuildingBlock: UVAHIK_clean_linker_0, # of connection points: 2
#     Edge 13, Type (0, 1), BuildingBlock: UVAHIK_clean_linker_0, # of connection points: 2
#     Edge 14, Type (0, 1), BuildingBlock: UVAHIK_clean_linker_0, # of connection points: 2
#     Edge 15, Type (0, 1), BuildingBlock: UVAHIK_clean_linker_0, # of connection points: 2
#     Edge 16, Type (0, 1), BuildingBlock: UVAHIK_clean_linker_0, # of connection points: 2
#     Edge 17, Type (0, 1), BuildingBlock: UVAHIK_clean_linker_0, # of connection points: 2
#     Edge 18, Type (0, 1), BuildingBlock: UVAHIK_clean_linker_0, # of connection points: 2
#     Edge 19, Type (0, 1), BuildingBlock: UVAHIK_clean_linker_0, # of connection points: 2
#     Edge 20, Type (0, 1), BuildingBlock: UVAHIK_clean_linker_0, # of connection points: 2
#     Edge 21, Type (0, 1), BuildingBlock: UVAHIK_clean_linker_0, # of connection points: 2
#     Edge 22, Type (0, 1), BuildingBlock: UVAHIK_clean_linker_0, # of connection points: 2
#     Edge 23, Type (0, 1), BuildingBlock: UVAHIK_clean_linker_0, # of connection points: 2
#     Edge 24, Type (0, 1), BuildingBlock: UVAHIK_clean_linker_0, # of connection points: 2
#     Edge 25, Type (0, 1), BuildingBlock: UVAHIK_clean_linker_0, # of connection points: 2
#     Edge 26, Type (0, 1), BuildingBlock: UVAHIK_clean_linker_0, # of connection points: 2
#     Edge 27, Type (0, 1), BuildingBlock: UVAHIK_clean_linker_0, # of connection points: 2
#     Edge 28, Type (0, 1), BuildingBlock: UVAHIK_clean_linker_0, # of connection points: 2
#     Edge 29, Type (0, 1), BuildingBlock: UVAHIK_clean_linker_0, # of connection points: 2
#     Edge 30, Type (0, 1), BuildingBlock: UVAHIK_clean_linker_0, # of connection points: 2
#     Edge 31, Type (0, 1), BuildingBlock: UVAHIK_clean_linker_0, # of connection points: 2
#     Edge 32, Type (0, 1), BuildingBlock: UVAHIK_clean_linker_0, # of connection points: 2
#     Edge 33, Type (0, 1), BuildingBlock: UVAHIK_clean_linker_0, # of connection points: 2
#     Edge 34, Type (0, 1), BuildingBlock: UVAHIK_clean_linker_0, # of connection points: 2
#     Edge 35, Type (0, 1), BuildingBlock: UVAHIK_clean_linker_0, # of connection points: 2
# Relax obj value: 0.065
# Max RMSD: 0.112
# Mean RMSD: 0.048
data_MOF--net-pyr--node1-PAMTUU_clean_sbu_0--node2-VETTIZ_charged_linker_0--edge1-UVAHIK_clean_linker_0
_symmetry_space_group_name_H-M    P1
_symmetry_Int_Tables_number       1
_symmetry_cell_setting            triclinic
loop_
_symmetry_equiv_pos_as_xyz
'x, y, z'
_cell_length_a     57.699703
_cell_length_b     58.335832
_cell_length_c     55.996679
_cell_angle_alpha  90.18746
_cell_angle_beta   89.638949
_cell_angle_gamma 99.068543
loop_
_atom_site_label
_atom_site_type_symbol
_atom_site_fract_x
_atom_site_fract_y
_atom_site_fract_z
_atom_type_partial_charge
C0 C 0.27056 0.23222 0.28195 0.0
C1 C 0.24943 0.23886 0.28989 0.0
C2 C 0.24159 0.25803 0.27913 0.0
C3 C 0.27371 0.26106 0.25058 0.0
C4 C 0.2822 0.24327 0.26218 0.0
C5 C 0.30314 0.23623 0.24968 0.0
H6 H 0.36241 0.23123 0.14718 0.0
C7 C 0.28786 0.26647 0.22866 0.0
C8 C 0.30517 0.25208 0.22805 0.0
H9 H 0.37367 0.19884 0.21476 0.0
H10 H 0.34667 0.22056 0.23396 0.0
H11 H 0.36584 0.28254 0.17153 0.0
H12 H 0.30736 0.23115 0.15084 0.0
H13 H 0.30262 0.25856 0.14055 0.0
H14 H 0.32768 0.2467 0.1299 0.0
H15 H 0.35655 0.27911 0.14105 0.0
H16 H 0.34376 0.29767 0.16154 0.0
C17 C 0.32472 0.24167 0.26631 0.0
C18 C 0.29683 0.21027 0.24266 0.0
C19 C 0.26234 0.32172 0.16822 0.0
C20 C 0.26927 0.32758 0.14464 0.0
C21 C 0.28806 0.31813 0.13443 0.0
C22 C 0.29959 0.30283 0.14749 0.0
C23 C 0.292 0.2967 0.17087 0.0
C24 C 0.27381 0.30632 0.18089 0.0
C25 C 0.26722 0.29706 0.20541 0.0
C26 C 0.28501 0.28085 0.20886 0.0
C27 C 0.29935 0.28054 0.18853 0.0
C28 C 0.27109 0.31758 0.2233 0.0
C29 C 0.24162 0.28391 0.20457 0.0
C30 C 0.35937 0.22892 0.16617 0.0
C31 C 0.36962 0.21247 0.17917 0.0
C32 C 0.36529 0.21052 0.20398 0.0
C33 C 0.34969 0.22322 0.2152 0.0
C34 C 0.33822 0.23809 0.20157 0.0
C35 C 0.34404 0.24172 0.1778 0.0
C36 C 0.33162 0.25993 0.16683 0.0
C37 C 0.31654 0.26562 0.1877 0.0
C38 C 0.32002 0.25221 0.20774 0.0
C39 C 0.35028 0.28092 0.15965 0.0
C40 C 0.31657 0.24869 0.1458 0.0
H41 H 0.24649 0.28323 0.25162 0.0
H42 H 0.27727 0.21787 0.29025 0.0
H43 H 0.27931 0.20692 0.23401 0.0
H44 H 0.30917 0.20442 0.22982 0.0
H45 H 0.29619 0.19896 0.25866 0.0
H46 H 0.3222 0.25482 0.28014 0.0
H47 H 0.32815 0.22586 0.2758 0.0
H48 H 0.34077 0.24937 0.25645 0.0
H49 H 0.24754 0.32816 0.17636 0.0
H50 H 0.29369 0.32242 0.11627 0.0
H51 H 0.31359 0.29596 0.13871 0.0
H52 H 0.28766 0.32945 0.21911 0.0
H53 H 0.25648 0.32788 0.22248 0.0
H54 H 0.27297 0.31195 0.2419 0.0
H55 H 0.23662 0.27773 0.18621 0.0
H56 H 0.23905 0.26793 0.21546 0.0
H57 H 0.22886 0.29521 0.21045 0.0
H58 H 0.22538 0.26351 0.28495 0.0
C59 C 0.25372 0.26925 0.2596 0.0
C60 C 0.15798 0.80773 0.67087 0.0
C61 C 0.14773 0.82528 0.68212 0.0
C62 C 0.15188 0.82977 0.70659 0.0
C63 C 0.1774 0.80056 0.7078 0.0
C64 C 0.17255 0.7955 0.68405 0.0
C65 C 0.18499 0.77641 0.67486 0.0
H66 H 0.26548 0.70584 0.69308 0.0
C67 C 0.194 0.78549 0.71606 0.0
C68 C 0.1982 0.77097 0.69698 0.0
H69 H 0.22621 0.71298 0.62874 0.0
H70 H 0.20453 0.73954 0.64909 0.0
H71 H 0.27414 0.75946 0.70647 0.0
H72 H 0.2225 0.70221 0.72908 0.0
H73 H 0.22769 0.7206 0.75401 0.0
H74 H 0.25137 0.70727 0.74165 0.0
H75 H 0.28077 0.73582 0.72428 0.0
H76 H 0.27159 0.76093 0.73769 0.0
C77 C 0.20181 0.78651 0.65448 0.0
C78 C 0.16627 0.75567 0.66731 0.0
C79 C 0.23361 0.80063 0.79662 0.0
C80 C 0.25085 0.79034 0.8084 0.0
C81 C 0.2574 0.7699 0.79875 0.0
C82 C 0.24821 0.76084 0.77701 0.0
C83 C 0.23232 0.7723 0.76465 0.0
C84 C 0.22455 0.79128 0.77491 0.0
C85 C 0.20681 0.80056 0.75957 0.0
C86 C 0.20613 0.78465 0.73794 0.0
C87 C 0.22142 0.76843 0.7409 0.0
C88 C 0.21664 0.82608 0.75321 0.0
C89 C 0.18301 0.79736 0.77316 0.0
C90 C 0.25188 0.71269 0.68344 0.0
C91 C 0.24762 0.70729 0.65922 0.0
C92 C 0.23005 0.71706 0.64731 0.0
C93 C 0.21747 0.73246 0.65918 0.0
C94 C 0.22262 0.73833 0.68316 0.0
C95 C 0.23929 0.72814 0.69496 0.0
C96 C 0.24286 0.73659 0.72023 0.0
C97 C 0.22563 0.75367 0.7217 0.0
C98 C 0.21397 0.7548 0.69989 0.0
C99 C 0.26867 0.74875 0.72254 0.0
C100 C 0.23595 0.71567 0.73726 0.0
H101 H 0.16949 0.822 0.73792 0.0
H102 H 0.1548 0.80368 0.65216 0.0
H103 H 0.1505 0.75424 0.67908 0.0
H104 H 0.17248 0.73877 0.66904 0.0
H105 H 0.16044 0.7577 0.64867 0.0
H106 H 0.21038 0.80445 0.65891 0.0
H107 H 0.19215 0.7873 0.63748 0.0
H108 H 0.21639 0.77669 0.65142 0.0
H109 H 0.22806 0.81627 0.8035 0.0
H110 H 0.27007 0.76117 0.80776 0.0
H111 H 0.25436 0.74562 0.77034 0.0
H112 H 0.23544 0.82776 0.74785 0.0
H113 H 0.21544 0.83771 0.76877 0.0
H114 H 0.20766 0.83274 0.73802 0.0
H115 H 0.18174 0.78308 0.78647 0.0
H116 H 0.16789 0.79221 0.76115 0.0
H117 H 0.18056 0.8134 0.78294 0.0
H118 H 0.14426 0.84329 0.7156 0.0
C119 C 0.16664 0.8175 0.71948 0.0
C120 C 0.63516 0.28735 0.88895 0.0
C121 C 0.61568 0.27263 0.87937 0.0
C122 C 0.60564 0.2798 0.85819 0.0
C123 C 0.63429 0.31523 0.8568 0.0
C124 C 0.64425 0.30814 0.87733 0.0
C125 C 0.66568 0.3247 0.8847 0.0
H126 H 0.74459 0.42154 0.8645 0.0
C127 C 0.64831 0.33769 0.84915 0.0
C128 C 0.66687 0.34308 0.8654 0.0
H129 H 0.74384 0.37099 0.92098 0.0
H130 H 0.70783 0.34974 0.906 0.0
H131 H 0.68855 0.4241 0.86816 0.0
H132 H 0.72813 0.38503 0.82221 0.0
H133 H 0.70741 0.39627 0.80464 0.0
H134 H 0.72973 0.41593 0.81992 0.0
H135 H 0.70649 0.43742 0.84414 0.0
H136 H 0.67645 0.42407 0.83947 0.0
C137 C 0.66086 0.33458 0.90965 0.0
C138 C 0.68704 0.31153 0.88362 0.0
C139 C 0.62361 0.38174 0.77708 0.0
C140 C 0.63301 0.40309 0.76629 0.0
C141 C 0.65385 0.41568 0.7758 0.0
C142 C 0.66487 0.40752 0.79562 0.0
C143 C 0.65516 0.38639 0.8063 0.0
C144 C 0.63489 0.3738 0.79699 0.0
C145 C 0.62725 0.35159 0.81068 0.0
C146 C 0.64596 0.35321 0.82996 0.0
C147 C 0.66237 0.37365 0.82722 0.0
C148 C 0.60261 0.35237 0.82137 0.0
C149 C 0.62833 0.33088 0.79358 0.0
C150 C 0.73656 0.40598 0.87371 0.0
C151 C 0.74744 0.39783 0.89383 0.0
C152 C 0.73629 0.37744 0.90517 0.0
C153 C 0.71522 0.36511 0.89649 0.0
C154 C 0.70489 0.37308 0.8761 0.0
C155 C 0.71539 0.39332 0.86517 0.0
C156 C 0.70158 0.39912 0.8438 0.0
C157 C 0.68143 0.37877 0.84348 0.0
C158 C 0.68354 0.36361 0.86248 0.0
C159 C 0.69287 0.42246 0.84889 0.0
C160 C 0.71744 0.3993 0.82137 0.0
H161 H 0.60625 0.30529 0.83099 0.0
H162 H 0.64334 0.28296 0.9053 0.0
H163 H 0.68469 0.2978 0.8696 0.0
H164 H 0.70355 0.32282 0.87859 0.0
H165 H 0.68951 0.30296 0.90089 0.0
H166 H 0.64229 0.33744 0.91124 0.0
H167 H 0.66406 0.32243 0.92405 0.0
H168 H 0.6714 0.35175 0.91314 0.0
H169 H 0.60762 0.37157 0.77044 0.0
H170 H 0.66189 0.43186 0.76773 0.0
H171 H 0.68064 0.41801 0.80183 0.0
H172 H 0.60171 0.36978 0.82916 0.0
H173 H 0.58889 0.34891 0.80742 0.0
H174 H 0.59805 0.33994 0.83609 0.0
H175 H 0.64328 0.33483 0.78082 0.0
H176 H 0.63146 0.31507 0.803 0.0
H177 H 0.61199 0.32686 0.78295 0.0
H178 H 0.59096 0.2689 0.84989 0.0
C179 C 0.61471 0.30095 0.847 0.0
C180 C 0.89707 0.74443 0.37455 0.0
C181 C 0.88762 0.75598 0.39368 0.0
C182 C 0.86521 0.7465 0.40258 0.0
C183 C 0.86278 0.71422 0.37492 0.0
C184 C 0.88428 0.72371 0.3654 0.0
C185 C 0.89122 0.70933 0.34481 0.0
H186 H 0.86505 0.61407 0.27333 0.0
C187 C 0.85414 0.69245 0.36195 0.0
C188 C 0.87057 0.68948 0.34406 0.0
H189 H 0.92575 0.66791 0.2692 0.0
H190 H 0.91154 0.68737 0.30311 0.0
H191 H 0.86575 0.60947 0.33098 0.0
H192 H 0.82708 0.64767 0.28387 0.0
H193 H 0.80765 0.6346 0.30601 0.0
H194 H 0.82146 0.61657 0.28595 0.0
H195 H 0.84208 0.59541 0.3129 0.0
H196 H 0.83691 0.60696 0.34204 0.0
C197 C 0.91439 0.70071 0.35133 0.0
C198 C 0.89276 0.72437 0.32195 0.0
C199 C 0.77823 0.64305 0.3894 0.0
C200 C 0.76555 0.62175 0.38167 0.0
C201 C 0.77431 0.61042 0.36203 0.0
C202 C 0.7952 0.62012 0.35038 0.0
C203 C 0.80763 0.64143 0.35839 0.0
C204 C 0.79901 0.65249 0.37759 0.0
C205 C 0.81436 0.67497 0.38376 0.0
C206 C 0.83378 0.67555 0.36525 0.0
C207 C 0.82981 0.65591 0.35039 0.0
C208 C 0.82355 0.67284 0.40949 0.0
C209 C 0.79989 0.69499 0.38019 0.0
C210 C 0.87544 0.62994 0.2798 0.0
C211 C 0.89657 0.63942 0.2683 0.0
C212 C 0.90924 0.66033 0.27732 0.0
C213 C 0.90102 0.6716 0.29714 0.0
C214 C 0.87979 0.66199 0.30824 0.0
C215 C 0.86744 0.64143 0.29957 0.0
C216 C 0.8453 0.63363 0.31363 0.0
C217 C 0.84617 0.65303 0.33192 0.0
C218 C 0.86646 0.66966 0.32876 0.0
C219 C 0.84736 0.61006 0.32546 0.0
C220 C 0.82415 0.63287 0.2966 0.0
H221 H 0.83612 0.7196 0.40132 0.0
H222 H 0.91412 0.75113 0.36706 0.0
H223 H 0.87894 0.73569 0.32203 0.0
H224 H 0.88968 0.71394 0.30547 0.0
H225 H 0.91005 0.73579 0.32059 0.0
H226 H 0.91408 0.69519 0.37034 0.0
H227 H 0.92967 0.71468 0.34883 0.0
H228 H 0.91737 0.68535 0.34092 0.0
H229 H 0.7723 0.65215 0.40459 0.0
H230 H 0.76483 0.59414 0.35545 0.0
H231 H 0.80084 0.61068 0.33552 0.0
H232 H 0.82808 0.65524 0.41252 0.0
H233 H 0.81005 0.67567 0.42294 0.0
H234 H 0.83984 0.68492 0.41321 0.0
H235 H 0.78587 0.69037 0.36666 0.0
H236 H 0.81062 0.71095 0.37313 0.0
H237 H 0.79126 0.69916 0.39709 0.0
H238 H 0.85691 0.7552 0.41658 0.0
C239 C 0.85292 0.72579 0.39347 0.0
C240 C 0.73426 0.71053 0.8935 0.0
C241 C 0.74947 0.69704 0.88244 0.0
C242 C 0.75403 0.69971 0.85775 0.0
C243 C 0.7306 0.73054 0.85611 0.0
C244 C 0.72492 0.72704 0.87996 0.0
C245 C 0.7091 0.74346 0.8889 0.0
H246 H 0.65609 0.83697 0.86808 0.0
C247 C 0.71981 0.75024 0.8476 0.0
C248 C 0.70672 0.75762 0.86656 0.0
H249 H 0.65626 0.79818 0.93378 0.0
H250 H 0.67782 0.7711 0.91419 0.0
H251 H 0.64794 0.79265 0.83151 0.0
H252 H 0.70776 0.83865 0.85781 0.0
H253 H 0.7152 0.8321 0.82854 0.0
H254 H 0.69033 0.84672 0.83379 0.0
H255 H 0.65517 0.82249 0.82271 0.0
H256 H 0.66703 0.79979 0.80708 0.0
C257 C 0.6854 0.72898 0.89652 0.0
C258 C 0.72202 0.75841 0.90914 0.0
C259 C 0.74646 0.78837 0.76869 0.0
C260 C 0.74206 0.809 0.75799 0.0
C261 C 0.72376 0.81998 0.767 0.0
C262 C 0.71124 0.81158 0.78746 0.0
C263 C 0.71729 0.79216 0.79924 0.0
C264 C 0.73398 0.78035 0.78935 0.0
C265 C 0.73826 0.76023 0.80458 0.0
C266 C 0.7222 0.7627 0.82576 0.0
C267 C 0.71021 0.78157 0.8226 0.0
C268 C 0.73036 0.73744 0.79046 0.0
C269 C 0.7645 0.76424 0.81176 0.0
C270 C 0.6608 0.82271 0.87835 0.0
C271 C 0.65461 0.8199 0.9026 0.0
C272 C 0.66069 0.80073 0.91505 0.0
C273 C 0.67337 0.78511 0.90368 0.0
C274 C 0.68024 0.78879 0.87968 0.0
C275 C 0.67368 0.80721 0.86741 0.0
C276 C 0.6833 0.80923 0.84241 0.0
C277 C 0.69651 0.78876 0.84151 0.0
C278 C 0.69473 0.77685 0.86337 0.0
C279 C 0.66239 0.80606 0.82486 0.0
C280 C 0.6999 0.83288 0.84027 0.0
H281 H 0.74918 0.71784 0.82599 0.0
H282 H 0.73014 0.70865 0.91236 0.0
H283 H 0.74104 0.76308 0.9049 0.0
H284 H 0.71574 0.77515 0.91171 0.0
H285 H 0.72042 0.74885 0.92635 0.0
H286 H 0.68069 0.71371 0.88457 0.0
H287 H 0.68623 0.7224 0.91504 0.0
H288 H 0.67055 0.73876 0.89516 0.0
H289 H 0.76047 0.77961 0.76216 0.0
H290 H 0.7198 0.83568 0.75876 0.0
H291 H 0.69808 0.82117 0.79393 0.0
H292 H 0.71725 0.73972 0.77652 0.0
H293 H 0.74545 0.7314 0.78133 0.0
H294 H 0.72137 0.72336 0.802 0.0
H295 H 0.77014 0.78259 0.81735 0.0
H296 H 0.76835 0.75364 0.82703 0.0
H297 H 0.77581 0.76059 0.79653 0.0
H298 H 0.76583 0.68974 0.84878 0.0
C299 C 0.74457 0.71625 0.84454 0.0
C300 C 0.86249 0.22227 0.38131 0.0
C301 C 0.87444 0.20543 0.3709 0.0
C302 C 0.87064 0.19975 0.34659 0.0
C303 C 0.84229 0.22609 0.34399 0.0
C304 C 0.84655 0.23235 0.36755 0.0
C305 C 0.83166 0.24984 0.37597 0.0
H306 H 0.74198 0.30895 0.3544 0.0
C307 C 0.8237 0.23851 0.33512 0.0
C308 C 0.81749 0.25265 0.35366 0.0
H309 H 0.78333 0.30995 0.41868 0.0
H310 H 0.80748 0.28465 0.39996 0.0
H311 H 0.73837 0.25537 0.34414 0.0
H312 H 0.78606 0.31416 0.31772 0.0
H313 H 0.77943 0.29495 0.29361 0.0
H314 H 0.75623 0.30759 0.30779 0.0
H315 H 0.72964 0.27568 0.32332 0.0
H316 H 0.74227 0.25092 0.31347 0.0
C317 C 0.81597 0.2389 0.39681 0.0
C318 C 0.84812 0.27255 0.38256 0.0
C319 C 0.7888 0.21823 0.25342 0.0
C320 C 0.76978 0.22491 0.24113 0.0
C321 C 0.75856 0.24266 0.25082 0.0
C322 C 0.76548 0.25279 0.27292 0.0
C323 C 0.78372 0.24501 0.28557 0.0
C324 C 0.79536 0.22838 0.27551 0.0
C325 C 0.81407 0.22193 0.29155 0.0
C326 C 0.81153 0.23721 0.31309 0.0
C327 C 0.79364 0.25055 0.30958 0.0
C328 C 0.80763 0.19574 0.29754 0.0
C329 C 0.83815 0.22875 0.2789 0.0
C330 C 0.75647 0.30408 0.36437 0.0
C331 C 0.76067 0.31148 0.38811 0.0
C332 C 0.77948 0.30427 0.40049 0.0
C333 C 0.79355 0.28964 0.38956 0.0
C334 C 0.78871 0.28198 0.36602 0.0
C335 C 0.77063 0.28951 0.35374 0.0
C336 C 0.76792 0.27966 0.3289 0.0
C337 C 0.78736 0.26494 0.32825 0.0
C338 C 0.79936 0.26617 0.3501 0.0
C339 C 0.74326 0.26471 0.32711 0.0
C340 C 0.77245 0.30003 0.31092 0.0
H341 H 0.85243 0.20463 0.31484 0.0
H342 H 0.86523 0.22729 0.39984 0.0
H343 H 0.86387 0.27529 0.37072 0.0
H344 H 0.8398 0.28818 0.38009 0.0
H345 H 0.85433 0.27206 0.40126 0.0
H346 H 0.80924 0.2203 0.39308 0.0
H347 H 0.82599 0.23979 0.41375 0.0
H348 H 0.80017 0.24704 0.39965 0.0
H349 H 0.79801 0.20488 0.2463 0.0
H350 H 0.74377 0.24805 0.2418 0.0
H351 H 0.75588 0.2658 0.27962 0.0
H352 H 0.78831 0.19075 0.29975 0.0
H353 H 0.81335 0.18481 0.28305 0.0
H354 H 0.81502 0.19092 0.31458 0.0
H355 H 0.83819 0.24417 0.26724 0.0
H356 H 0.85264 0.23401 0.29159 0.0
H357 H 0.84245 0.21437 0.26749 0.0
H358 H 0.87933 0.18666 0.33813 0.0
C359 C 0.85478 0.21005 0.3331 0.0
C360 C 0.39078 0.65303 0.27176 0.0
C361 C 0.3809 0.63218 0.28325 0.0
C362 C 0.36014 0.61947 0.27367 0.0
C363 C 0.3593 0.64816 0.24244 0.0
C364 C 0.37975 0.66063 0.25151 0.0
C365 C 0.38792 0.6823 0.23713 0.0
H366 H 0.36801 0.75374 0.14615 0.0
C367 C 0.35219 0.66072 0.22134 0.0
C368 C 0.36898 0.68082 0.21811 0.0
H369 H 0.42739 0.76227 0.194 0.0
H370 H 0.41146 0.72652 0.21392 0.0
H371 H 0.32821 0.73488 0.18478 0.0
H372 H 0.36972 0.70221 0.13517 0.0
H373 H 0.34284 0.68351 0.13697 0.0
H374 H 0.34361 0.71274 0.12603 0.0
H375 H 0.32468 0.73545 0.15297 0.0
H376 H 0.30934 0.71222 0.17086 0.0
C377 C 0.38784 0.70357 0.25368 0.0
C378 C 0.41223 0.68039 0.22619 0.0
C379 C 0.27693 0.62931 0.17584 0.0
C380 C 0.26628 0.63729 0.15544 0.0
C381 C 0.27768 0.65761 0.14408 0.0
C382 C 0.29856 0.67001 0.15302 0.0
C383 C 0.30871 0.66211 0.17351 0.0
C384 C 0.29813 0.64192 0.18445 0.0
C385 C 0.31215 0.63592 0.20562 0.0
C386 C 0.33265 0.65596 0.20559 0.0
C387 C 0.33032 0.67129 0.18681 0.0
C388 C 0.29666 0.6361 0.22826 0.0
C389 C 0.32033 0.61234 0.20046 0.0
C390 C 0.37791 0.74796 0.16069 0.0
C391 C 0.39911 0.76127 0.16833 0.0
C392 C 0.41085 0.75285 0.18779 0.0
C393 C 0.40165 0.73188 0.19929 0.0
C394 C 0.38048 0.71888 0.19129 0.0
C395 C 0.36918 0.72699 0.17212 0.0
C396 C 0.34737 0.71076 0.16526 0.0
C397 C 0.34712 0.69168 0.18367 0.0
C398 C 0.36644 0.69646 0.19908 0.0
C399 C 0.32619 0.72389 0.16842 0.0
C400 C 0.35082 0.70188 0.1395 0.0
H401 H 0.33363 0.61675 0.24729 0.0
H402 H 0.40658 0.66343 0.27854 0.0
H403 H 0.41307 0.66223 0.22054 0.0
H404 H 0.41607 0.69088 0.20986 0.0
H405 H 0.42645 0.68556 0.23934 0.0
H406 H 0.37183 0.70124 0.26516 0.0
H407 H 0.40336 0.70596 0.2656 0.0
H408 H 0.38748 0.71982 0.24379 0.0
H409 H 0.26887 0.6138 0.1851 0.0
H410 H 0.27059 0.66393 0.12797 0.0
H411 H 0.306 0.68535 0.1435 0.0
H412 H 0.28653 0.65081 0.22771 0.0
H413 H 0.28389 0.61979 0.22972 0.0
H414 H 0.30695 0.63864 0.24487 0.0
H415 H 0.3243 0.61052 0.18114 0.0
H416 H 0.33681 0.61048 0.20964 0.0
H417 H 0.30654 0.5976 0.20548 0.0
H418 H 0.35228 0.60315 0.28158 0.0
C419 C 0.34935 0.62731 0.25352 0.0
C420 C 0.11944 0.28058 0.6779 0.0
C421 C 0.12749 0.26967 0.65759 0.0
C422 C 0.14869 0.27991 0.64667 0.0
C423 C 0.15283 0.31167 0.67507 0.0
C424 C 0.13236 0.30156 0.68626 0.0
C425 C 0.12646 0.31579 0.70741 0.0
H426 H 0.15238 0.41351 0.77526 0.0
C427 C 0.16181 0.33362 0.68756 0.0
C428 C 0.14648 0.33625 0.7066 0.0
H429 H 0.09569 0.35637 0.78536 0.0
H430 H 0.10879 0.33682 0.75088 0.0
H431 H 0.14878 0.41582 0.71746 0.0
H432 H 0.19196 0.38127 0.76349 0.0
H433 H 0.20962 0.39453 0.74011 0.0
H434 H 0.19594 0.41229 0.76056 0.0
H435 H 0.17249 0.43149 0.73441 0.0
H436 H 0.17731 0.41957 0.70536 0.0
C437 C 0.10241 0.32345 0.70278 0.0
C438 C 0.12723 0.30104 0.73025 0.0
C439 C 0.23594 0.38343 0.65644 0.0
C440 C 0.24839 0.40525 0.66299 0.0
C441 C 0.23986 0.41711 0.68241 0.0
C442 C 0.21951 0.40741 0.695 0.0
C443 C 0.20735 0.38558 0.68816 0.0
C444 C 0.2156 0.3741 0.66906 0.0
C445 C 0.20029 0.35139 0.66378 0.0
C446 C 0.18155 0.35093 0.683 0.0
C447 C 0.18575 0.37091 0.69736 0.0
C448 C 0.19011 0.35285 0.63833 0.0
C449 C 0.21515 0.3317 0.66721 0.0
C450 C 0.14269 0.39687 0.76993 0.0
C451 C 0.12292 0.38653 0.78311 0.0
C452 C 0.11107 0.36465 0.77572 0.0
C453 C 0.11866 0.35334 0.75561 0.0
C454 C 0.13846 0.36387 0.74268 0.0
C455 C 0.15021 0.38523 0.75001 0.0
C456 C 0.17131 0.39349 0.73454 0.0
C457 C 0.17031 0.37364 0.71674 0.0
C458 C 0.15089 0.35635 0.72146 0.0
C459 C 0.16753 0.41638 0.72234 0.0
C460 C 0.19347 0.39572 0.75037 0.0
H461 H 0.17719 0.30746 0.64592 0.0
H462 H 0.10327 0.27321 0.6868 0.0
H463 H 0.14094 0.28966 0.72873 0.0
H464 H 0.13204 0.31171 0.74633 0.0
H465 H 0.11015 0.28968 0.73344 0.0
H466 H 0.10122 0.32908 0.68392 0.0
H467 H 0.08782 0.30894 0.70607 0.0
H468 H 0.09945 0.33848 0.71373 0.0
H469 H 0.24198 0.37356 0.6419 0.0
H470 H 0.24876 0.43408 0.68774 0.0
H471 H 0.21397 0.41734 0.70953 0.0
H472 H 0.18768 0.37092 0.63399 0.0
H473 H 0.202 0.34726 0.62456 0.0
H474 H 0.17244 0.34256 0.63634 0.0
H475 H 0.22781 0.33585 0.68211 0.0
H476 H 0.20451 0.31498 0.67229 0.0
H477 H 0.22542 0.32916 0.65084 0.0
H478 H 0.15572 0.2717 0.63146 0.0
C479 C 0.1613 0.30071 0.65522 0.0
Tb480 Tb 0.0299 0.01561 0.50713 0.0
Tb481 Tb 0.98568 1.01018 0.54516 0.0
C482 C 0.98853 0.97351 0.50377 0.0
C483 C 0.07636 0.03922 0.46364 0.0
C484 C 0.10045 0.07512 0.43534 0.0
C485 C 0.10977 0.05452 0.43897 0.0
C486 C 0.09778 0.03672 0.45298 0.0
C487 C 0.06691 0.0597 0.46022 0.0
C488 C 0.07888 0.07754 0.44613 0.0
C489 C 0.06438 0.02052 0.47868 0.0
O490 O 1.00257 0.03096 0.48964 0.0
O491 O 0.98204 0.03966 0.5228 0.0
O492 O 0.01364 0.03579 0.55992 0.0
O493 O 0.03226 0.04892 0.52524 0.0
O494 O 0.94952 1.00852 0.55138 0.0
O495 O 0.97381 1.00867 0.58063 0.0
O496 O 1.0047 0.98219 0.55388 0.0
O497 O 0.04054 0.99852 0.53877 0.0
O498 O 0.01111 0.98085 0.50112 0.0
O499 O 0.97505 0.98452 0.51723 0.0
C500 C 0.9874 0.04234 0.50007 0.0
O501 O 0.06623 0.02408 0.50162 0.0
O502 O 0.04301 1.01197 0.47254 0.0
C503 C 0.02753 0.05179 0.54791 0.0
C504 C 0.93607 0.98749 0.58577 0.0
C505 C 0.9066 0.952 0.61002 0.0
C506 C 0.90192 0.97495 0.61052 0.0
C507 C 0.91658 0.99254 0.59852 0.0
C508 C 0.94054 0.96455 0.58459 0.0
C509 C 0.92588 0.94689 0.59665 0.0
C510 C 0.95185 1.00646 0.57437 0.0
C511 C 0.02752 0.98324 0.55236 0.0
H512 H 0.12655 0.05227 0.43131 0.0
H513 H 0.10535 0.02106 0.45564 0.0
H514 H 0.05035 0.06186 0.46847 0.0
H515 H 0.07118 0.09312 0.44354 0.0
H516 H 0.88696 0.97935 0.62028 0.0
H517 H 0.91285 1.01016 0.59944 0.0
H518 H 0.95556 0.96042 0.5747 0.0
H519 H 0.93 0.92942 0.59606 0.0
Tb520 Tb 0.5243 0.02406 0.04603 0.0
Tb521 Tb 0.48276 1.01417 1.00549 0.0
C522 C 0.52864 0.99251 1.00197 0.0
C523 C 0.57855 0.04937 0.07923 0.0
C524 C 0.62112 0.079 0.08875 0.0
C525 C 0.62028 0.05477 0.08792 0.0
C526 C 0.59917 0.04011 0.08335 0.0
C527 C 0.57957 0.0736 0.07892 0.0
C528 C 0.60059 0.08823 0.08371 0.0
C529 C 0.55599 0.03362 0.07696 0.0
O530 O 0.52963 0.05501 1.02359 0.0
O531 O 0.50859 0.04154 0.99008 0.0
O532 O 0.47827 0.04451 0.02632 0.0
O533 O 0.49144 0.03143 0.06089 0.0
O534 O 0.47153 1.00705 0.9703 0.0
O535 O 0.447 1.01297 0.99821 0.0
O536 O 0.47209 0.98832 0.03338 0.0
O537 O 0.50655 0.98935 0.05445 0.0
O538 O 0.53927 1.00995 1.01468 0.0
O539 O 0.50574 0.98865 0.99973 0.0
C540 C 0.52369 0.05727 1.00114 0.0
O541 O 0.53711 0.04325 0.07607 0.0
O542 O 0.55522 0.01644 0.06188 0.0
C543 C 0.47905 0.04484 0.04962 0.0
C544 C 0.43288 0.98678 0.9679 0.0
C545 C 0.39988 0.94886 0.9528 0.0
C546 C 0.39591 0.97173 0.94901 0.0
C547 C 0.4123 0.99053 0.95648 0.0
C548 C 0.43693 0.96402 0.97193 0.0
C549 C 0.42058 0.94517 0.96431 0.0
C550 C 0.44953 1.00683 0.97605 0.0
C551 C 0.48503 0.97957 0.04927 0.0
H552 H 0.63583 0.04706 0.09131 0.0
H553 H 0.59885 0.02149 0.08361 0.0
H554 H 0.56399 0.08133 0.07575 0.0
H555 H 0.60042 0.10675 0.08451 0.0
H556 H 0.38028 0.97511 0.93992 0.0
H557 H 0.40891 1.00802 0.95334 0.0
H558 H 0.45266 0.96086 0.98098 0.0
H559 H 0.42399 0.92773 0.96762 0.0
Tb560 Tb 0.50703 0.49039 0.50795 0.0
Tb561 Tb 0.50735 0.53882 0.53769 0.0
C562 C 0.48441 0.53201 0.48715 0.0
C563 C 0.52907 0.44036 0.48124 0.0
C564 C 0.56871 0.4192 0.47124 0.0
C565 C 0.54983 0.41708 0.45518 0.0
C566 C 0.53017 0.42756 0.46017 0.0
C567 C 0.54766 0.44216 0.49756 0.0
C568 C 0.56725 0.43153 0.49267 0.0
C569 C 0.50974 0.45365 0.48487 0.0
O570 O 0.54326 0.50774 0.50746 0.0
O571 O 0.53665 0.54513 0.51264 0.0
O572 O 0.53222 0.52082 0.55644 0.0
O573 O 0.5176 0.48376 0.54437 0.0
O574 O 0.51081 0.57518 0.53785 0.0
O575 O 0.50372 0.55571 0.57043 0.0
O576 O 0.47876 0.51377 0.55197 0.0
O577 O 0.47085 0.48938 0.51988 0.0
O578 O 0.49702 0.51556 0.48276 0.0
O579 O 0.48205 0.53962 0.509 0.0
C580 C 0.55007 0.5302 0.50546 0.0
O581 O 0.50119 0.4539 0.50645 0.0
O582 O 0.5132 0.47429 0.47548 0.0
C583 C 0.53008 0.49818 0.55925 0.0
C584 C 0.48417 0.58764 0.56525 0.0
C585 C 0.44373 0.60706 0.57658 0.0
C586 C 0.46195 0.60763 0.59325 0.0
C587 C 0.48205 0.59804 0.58759 0.0
C588 C 0.46606 0.58719 0.54852 0.0
C589 C 0.4461 0.59695 0.55408 0.0
C590 C 0.50437 0.5758 0.56017 0.0
C591 C 0.46474 0.49755 0.54049 0.0
H592 H 0.55039 0.40751 0.43863 0.0
H593 H 0.51608 0.42619 0.44729 0.0
H594 H 0.5473 0.45231 0.51377 0.0
H595 H 0.58163 0.43367 0.50524 0.0
H596 H 0.46063 0.61546 0.61067 0.0
H597 H 0.49574 0.59837 0.60079 0.0
H598 H 0.46711 0.57891 0.53131 0.0
H599 H 0.43222 0.59597 0.54101 0.0
Tb600 Tb 0.00867 0.53856 1.00906 0.0
Tb601 Tb 0.00753 0.48991 0.03856 0.0
C602 C 0.03142 0.49668 0.98811 0.0
C603 C 0.98632 0.58772 0.982 0.0
C604 C 0.94473 0.60479 0.97102 0.0
C605 C 0.96236 0.60462 0.95362 0.0
C606 C 0.98303 0.59622 0.95911 0.0
C607 C 0.96906 0.58858 0.99968 0.0
C608 C 0.94849 0.59726 0.99426 0.0
C609 C 1.00611 0.57523 0.98619 0.0
O610 O 0.97231 0.52135 1.0083 0.0
O611 O 0.97894 0.48399 1.01293 0.0
O612 O 0.98336 0.50871 0.05777 0.0
O613 O 0.9989 0.54545 0.04567 0.0
O614 O 1.00133 0.45349 0.03881 0.0
O615 O 0.01163 0.4728 0.07092 0.0
O616 O 0.038 0.51341 0.05165 0.0
O617 O 0.04464 0.54006 1.02116 0.0
O618 O 0.01971 0.51378 0.98387 0.0
O619 O 0.03264 0.48817 1.00967 0.0
C620 C 0.96555 0.4989 1.00591 0.0
O621 O 0.0138 0.57505 1.00801 0.0
O622 O 1.00381 0.55472 0.97646 0.0
C623 C 0.98613 0.53136 0.06062 0.0
C624 C 0.02878 0.43958 0.06369 0.0
C625 C 0.06942 0.4195 0.07117 0.0
C626 C 0.05318 0.42054 0.08985 0.0
C627 C 0.03297 0.43048 0.0861 0.0
C628 C 0.04475 0.4381 0.04493 0.0
C629 C 0.06479 0.42806 0.04859 0.0
C630 C 0.00913 0.45256 0.06052 0.0
C631 C 0.05138 0.53059 0.0407 0.0
H632 H 0.9599 0.61051 0.93562 0.0
H633 H 0.99604 0.59547 0.94521 0.0
H634 H 0.97105 0.58173 1.01738 0.0
H635 H 0.93507 0.59705 1.00791 0.0
H636 H 0.05626 0.41391 0.1074 0.0
H637 H 0.02096 0.43163 0.10085 0.0
H638 H 0.04211 0.44532 0.02758 0.0
H639 H 0.07713 0.42782 0.03396 0.0
C640 C 0.22237 0.2338 0.32565 0.0
C641 C 0.23441 0.22411 0.30724 0.0
C642 C 0.2077 0.2194 0.34132 0.0
C643 C 0.19629 0.15872 0.36279 0.0
H644 H 0.13451 0.17212 0.3797 0.0
C645 C 0.12524 0.08863 0.39975 0.0
C646 C 0.11357 0.094 0.42064 0.0
C647 C 0.13934 0.10602 0.38698 0.0
C648 C 0.15182 0.16833 0.37529 0.0
H649 H 0.23977 0.19188 0.2902 0.0
H650 H 0.21438 0.16699 0.31727 0.0
H651 H 0.16123 0.20016 0.35599 0.0
H652 H 0.1068 0.12203 0.44396 0.0
H653 H 0.13129 0.15259 0.42124 0.0
H654 H 0.18676 0.12671 0.38147 0.0
C655 C 0.2167 0.18558 0.32015 0.0
C656 C 0.16712 0.18437 0.36182 0.0
C657 C 0.2313 0.19987 0.30463 0.0
C658 C 0.11546 0.11735 0.42785 0.0
C659 C 0.1295 0.13483 0.41492 0.0
C660 C 0.181 0.1427 0.37603 0.0
C661 C 0.20482 0.19512 0.33876 0.0
C662 C 0.18935 0.17948 0.35504 0.0
C663 C 0.14196 0.12921 0.39468 0.0
C664 C 0.15848 0.14713 0.38202 0.0
H665 H 0.22444 0.25244 0.32804 0.0
H666 H 0.19884 0.22724 0.35557 0.0
H667 H 0.2135 0.15469 0.35835 0.0
H668 H 0.12369 0.0709 0.39339 0.0
H669 H 0.14839 0.1013 0.37113 0.0
C670 C 0.2878 0.8026 0.83151 0.0
C671 C 0.26342 0.80192 0.82937 0.0
C672 C 0.30025 0.81539 0.84969 0.0
C673 C 0.29822 0.86663 0.88625 0.0
H674 H 0.35074 0.84665 0.91871 0.0
C675 C 0.35848 0.92891 0.94737 0.0
C676 C 0.38267 0.92905 0.94415 0.0
C677 C 0.34219 0.91117 0.93757 0.0
C678 C 0.33619 0.85252 0.90972 0.0
H679 H 0.2329 0.81337 0.84548 0.0
H680 H 0.25483 0.83614 0.87705 0.0
H681 H 0.32492 0.81908 0.8941 0.0
H682 H 0.4088 0.91048 0.92861 0.0
H683 H 0.38044 0.87971 0.91119 0.0
H684 H 0.30993 0.90026 0.90095 0.0
C685 C 0.26423 0.82678 0.86449 0.0
C686 C 0.32137 0.83671 0.89571 0.0
C687 C 0.2517 0.8138 0.84637 0.0
C688 C 0.39027 0.9107 0.93159 0.0
C689 C 0.37399 0.89303 0.92166 0.0
C690 C 0.31309 0.88246 0.90015 0.0
C691 C 0.28869 0.82799 0.86608 0.0
C692 C 0.30252 0.84374 0.88344 0.0
C693 C 0.34975 0.89325 0.92422 0.0
C694 C 0.33254 0.87573 0.91166 0.0
H695 H 0.29754 0.79409 0.8185 0.0
H696 H 0.31914 0.81629 0.8502 0.0
H697 H 0.28403 0.87264 0.87675 0.0
H698 H 0.35213 0.94264 0.95732 0.0
H699 H 0.32367 0.91165 0.94024 0.0
C700 C 0.62112 0.43641 0.74299 0.0
C701 C 0.62139 0.41241 0.74527 0.0
C702 C 0.6112 0.4454 0.72296 0.0
C703 C 0.57025 0.42914 0.67234 0.0
H704 H 0.60185 0.48675 0.64498 0.0
C705 C 0.54069 0.46435 0.58244 0.0
C706 C 0.54145 0.48848 0.58004 0.0
C707 C 0.55059 0.45504 0.60232 0.0
C708 C 0.59257 0.47081 0.65251 0.0
H709 H 0.61103 0.3791 0.72796 0.0
H710 H 0.59363 0.39474 0.69313 0.0
H711 H 0.61827 0.47058 0.67993 0.0
H712 H 0.55347 0.5217 0.59691 0.0
H713 H 0.57044 0.50551 0.63162 0.0
H714 H 0.54448 0.42942 0.645 0.0
C715 C 0.60098 0.40664 0.707 0.0
C716 C 0.60204 0.46148 0.67263 0.0
C717 C 0.61097 0.39763 0.72705 0.0
C718 C 0.55261 0.50304 0.59802 0.0
C719 C 0.56247 0.49372 0.61795 0.0
C720 C 0.56074 0.4385 0.65224 0.0
C721 C 0.60113 0.4307 0.70455 0.0
C722 C 0.59102 0.44052 0.6829 0.0
C723 C 0.56152 0.46955 0.62049 0.0
C724 C 0.57174 0.4595 0.64198 0.0
H725 H 0.62844 0.44837 0.75681 0.0
H726 H 0.61124 0.46395 0.72206 0.0
H727 H 0.56104 0.41317 0.67987 0.0
H728 H 0.5324 0.45253 0.56895 0.0
H729 H 0.54982 0.4364 0.60329 0.0
C730 C 0.90295 0.60333 0.24563 0.0
C731 C 0.90528 0.6277 0.24697 0.0
C732 C 0.91115 0.59241 0.22562 0.0
C733 C 0.95226 0.6036 0.17409 0.0
H734 H 0.91642 0.54727 0.14825 0.0
C735 C 0.97681 0.56581 0.08371 0.0
C736 C 0.97527 0.54157 0.08155 0.0
C737 C 0.96773 0.57573 0.10379 0.0
C738 C 0.92681 0.56284 0.15538 0.0
H739 H 0.91769 0.65956 0.22778 0.0
H740 H 0.93199 0.64061 0.19308 0.0
H741 H 0.90183 0.5656 0.18335 0.0
H742 H 0.9625 0.50878 0.09888 0.0
H743 H 0.94682 0.52613 0.13407 0.0
H744 H 0.97726 0.60088 0.14624 0.0
C745 C 0.92417 0.6299 0.20769 0.0
C746 C 0.91842 0.57338 0.17555 0.0
C747 C 0.91596 0.64081 0.22766 0.0
C748 C 0.96398 0.5275 0.09988 0.0
C749 C 0.95489 0.53747 0.12005 0.0
C750 C 0.96064 0.59308 0.15398 0.0
C751 C 0.92195 0.60555 0.20639 0.0
C752 C 0.93098 0.59399 0.18511 0.0
C753 C 0.95686 0.56176 0.1224 0.0
C754 C 0.94799 0.57261 0.14421 0.0
H755 H 0.89514 0.59264 0.26025 0.0
H756 H 0.9094 0.57366 0.22544 0.0
H757 H 0.96268 0.61918 0.18118 0.0
H758 H 0.98517 0.57725 0.06991 0.0
H759 H 0.96917 0.59445 0.10466 0.0
C760 C 0.38217 0.17336 0.17465 0.0
C761 C 0.38352 0.19647 0.16683 0.0
C762 C 0.39405 0.15782 0.16245 0.0
C763 C 0.41304 0.144 0.10396 0.0
H764 H 0.45532 0.10867 0.13576 0.0
C765 C 0.46329 0.08217 0.05166 0.0
C766 C 0.46781 0.06193 0.063 0.0
C767 C 0.45372 0.09901 0.06446 0.0
C768 C 0.44326 0.11807 0.12665 0.0
H769 H 0.39911 0.22131 0.14017 0.0
H770 H 0.41896 0.19367 0.11824 0.0
H771 H 0.43776 0.13759 0.15815 0.0
H772 H 0.4654 0.04307 0.09641 0.0
H773 H 0.44753 0.07188 0.11857 0.0
H774 H 0.41742 0.12395 0.0728 0.0
C775 C 0.40877 0.18788 0.13403 0.0
C776 C 0.43342 0.13477 0.13946 0.0
C777 C 0.39727 0.20361 0.14652 0.0
C778 C 0.4622 0.05861 0.08728 0.0
C779 C 0.45216 0.07525 0.1 0.0
C780 C 0.42248 0.127 0.09126 0.0
C781 C 0.40715 0.16487 0.14188 0.0
C782 C 0.41829 0.14787 0.12818 0.0
C783 C 0.44797 0.09578 0.08881 0.0
C784 C 0.43777 0.11381 0.10241 0.0
H785 H 0.37134 0.16695 0.1898 0.0
H786 H 0.39235 0.14005 0.16864 0.0
H787 H 0.40111 0.15372 0.09502 0.0
H788 H 0.46774 0.08531 0.03301 0.0
H789 H 0.45126 0.11475 0.05529 0.0
C790 C 0.11227 0.84474 0.67714 0.0
C791 C 0.13373 0.8397 0.66822 0.0
C792 C 0.09981 0.85946 0.66455 0.0
C793 C 0.10884 0.90765 0.62259 0.0
H794 H 0.04223 0.89206 0.60987 0.0
C795 C 0.0621 0.96356 0.56047 0.0
C796 C 0.03902 0.96661 0.56608 0.0
C797 C 0.07304 0.94775 0.57315 0.0
C798 C 0.06075 0.89686 0.61359 0.0
H799 H 0.15893 0.84594 0.63919 0.0
H800 H 0.13724 0.8718 0.6173 0.0
H801 H 0.06225 0.86476 0.63165 0.0
H802 H 0.00933 0.95553 0.58952 0.0
H803 H 0.02869 0.92842 0.61219 0.0
H804 H 0.10747 0.9399 0.60517 0.0
C805 C 0.13005 0.86432 0.63396 0.0
C806 C 0.0722 0.88116 0.62596 0.0
C807 C 0.14234 0.84939 0.64636 0.0
C808 C 0.02711 0.95351 0.5847 0.0
C809 C 0.03817 0.93786 0.5976 0.0
C810 C 0.09738 0.92345 0.61051 0.0
C811 C 0.10877 0.86964 0.64303 0.0
C812 C 0.0964 0.88634 0.63037 0.0
C813 C 0.06129 0.93478 0.59198 0.0
C814 C 0.07323 0.91819 0.60562 0.0
H815 H 0.10519 0.83739 0.69389 0.0
H816 H 0.08348 0.86337 0.67197 0.0
H817 H 0.12744 0.91223 0.62612 0.0
H818 H 0.07169 0.97319 0.54604 0.0
H819 H 0.09064 0.94551 0.56793 0.0
C820 C 0.77535 0.43438 0.90463 0.0
C821 C 0.77045 0.41001 0.903 0.0
C822 C 0.79657 0.44544 0.91446 0.0
C823 C 0.85703 0.43523 0.92954 0.0
H824 H 0.8568 0.48675 0.97339 0.0
C825 C 0.93563 0.46603 0.99098 0.0
C826 C 0.94267 0.49003 0.99433 0.0
C827 C 0.91472 0.45753 0.97916 0.0
C828 C 0.85725 0.47256 0.96097 0.0
H829 H 0.78458 0.37832 0.90969 0.0
H830 H 0.82105 0.39741 0.92707 0.0
H831 H 0.82052 0.46991 0.95339 0.0
H832 H 0.93281 0.52387 0.98802 0.0
H833 H 0.89628 0.50899 0.96736 0.0
H834 H 0.89362 0.43764 0.93726 0.0
C835 C 0.80867 0.40809 0.92068 0.0
C836 C 0.83641 0.46291 0.94945 0.0
C837 C 0.78753 0.39709 0.91095 0.0
C838 C 0.92797 0.50529 0.98583 0.0
C839 C 0.90695 0.49674 0.97404 0.0
C840 C 0.87778 0.44482 0.94106 0.0
C841 C 0.81349 0.43242 0.92273 0.0
C842 C 0.83594 0.44388 0.93381 0.0
C843 C 0.90016 0.47274 0.97034 0.0
C844 C 0.87815 0.46341 0.9572 0.0
H845 H 0.76257 0.44489 0.8988 0.0
H846 H 0.79974 0.46421 0.9155 0.0
H847 H 0.85755 0.42095 0.91723 0.0
H848 H 0.94638 0.45369 0.99732 0.0
H849 H 0.9099 0.43893 0.97706 0.0
C850 C 0.73807 0.58747 0.39831 0.0
C851 C 0.74339 0.61151 0.39413 0.0
C852 C 0.71761 0.57807 0.41071 0.0
C853 C 0.67329 0.5943 0.45302 0.0
H854 H 0.63548 0.53706 0.43183 0.0
C855 C 0.58035 0.56291 0.49078 0.0
C856 C 0.57319 0.53898 0.49425 0.0
C857 C 0.60161 0.5712 0.47929 0.0
C858 C 0.64599 0.55289 0.43822 0.0
H859 H 0.73078 0.64434 0.39911 0.0
H860 H 0.6953 0.628 0.42074 0.0
H861 H 0.67138 0.55242 0.41019 0.0
H862 H 0.5831 0.505 0.48857 0.0
H863 H 0.62033 0.51947 0.46886 0.0
H864 H 0.648 0.59482 0.48105 0.0
C865 C 0.70716 0.61645 0.41483 0.0
C866 C 0.66659 0.56172 0.42576 0.0
C867 C 0.72754 0.62583 0.4024 0.0
C868 C 0.588 0.52354 0.48618 0.0
C869 C 0.60931 0.53185 0.47471 0.0
C870 C 0.65277 0.58545 0.46551 0.0
C871 C 0.70198 0.59247 0.41927 0.0
C872 C 0.6804 0.58264 0.43289 0.0
C873 C 0.61634 0.55579 0.47098 0.0
C874 C 0.63872 0.56472 0.45818 0.0
H875 H 0.74999 0.57594 0.3925 0.0
H876 H 0.7143 0.55956 0.41403 0.0
H877 H 0.68373 0.61023 0.45929 0.0
H878 H 0.56938 0.57535 0.49664 0.0
H879 H 0.60623 0.58971 0.47646 0.0
C880 C 0.24775 0.36136 0.14103 0.0
C881 C 0.25545 0.34199 0.13051 0.0
C882 C 0.23104 0.37231 0.12972 0.0
C883 C 0.18196 0.35755 0.08871 0.0
H884 H 0.17676 0.42264 0.09638 0.0
C885 C 0.10042 0.39616 0.05863 0.0
C886 C 0.09178 0.41075 0.0754 0.0
C887 C 0.12213 0.38898 0.06204 0.0
C888 C 0.17798 0.40441 0.09416 0.0
H889 H 0.25303 0.31993 0.09911 0.0
H890 H 0.22411 0.33941 0.07903 0.0
H891 H 0.21342 0.40916 0.10658 0.0
H892 H 0.09914 0.42937 0.10875 0.0
H893 H 0.13691 0.41656 0.11489 0.0
H894 H 0.14636 0.35274 0.07677 0.0
C895 C 0.2307 0.34584 0.09626 0.0
C896 C 0.19896 0.3967 0.09994 0.0
C897 C 0.24745 0.33486 0.10762 0.0
C898 C 0.10522 0.41791 0.09569 0.0
C899 C 0.12698 0.41085 0.09901 0.0
C900 C 0.16103 0.36529 0.08281 0.0
C901 C 0.22171 0.36416 0.10758 0.0
C902 C 0.20098 0.37308 0.09786 0.0
C903 C 0.1357 0.39639 0.08218 0.0
C904 C 0.15864 0.38868 0.08605 0.0
H905 H 0.25386 0.36739 0.15856 0.0
H906 H 0.22443 0.38625 0.13904 0.0
H907 H 0.18277 0.33918 0.08723 0.0
H908 H 0.09036 0.3903 0.04288 0.0
H909 H 0.12845 0.37787 0.04876 0.0
C910 C 0.58217 0.24048 0.89011 0.0
C911 C 0.60617 0.24995 0.89129 0.0
C912 C 0.57339 0.21942 0.90141 0.0
C913 C 0.59293 0.16751 0.93071 0.0
H914 H 0.52881 0.15709 0.95423 0.0
C915 C 0.55482 0.09235 0.99532 0.0
C916 C 0.53365 0.07882 0.98806 0.0
C917 C 0.5639 0.11286 0.98318 0.0
C918 C 0.54673 0.15973 0.94766 0.0
H919 H 0.63968 0.24371 0.90527 0.0
H920 H 0.62427 0.20836 0.92612 0.0
H921 H 0.54405 0.19349 0.93434 0.0
H922 H 0.50529 0.07653 0.96249 0.0
H923 H 0.52082 0.11264 0.94182 0.0
H924 H 0.59565 0.13396 0.94512 0.0
C925 C 0.61217 0.21675 0.91588 0.0
C926 C 0.55551 0.18059 0.93603 0.0
C927 C 0.62102 0.23754 0.9042 0.0
C928 C 0.52171 0.08642 0.96848 0.0
C929 C 0.53052 0.10718 0.95671 0.0
C930 C 0.58428 0.14688 0.9428 0.0
C931 C 0.5882 0.20723 0.91467 0.0
C932 C 0.57876 0.18485 0.92722 0.0
C933 C 0.55174 0.12061 0.96387 0.0
C934 C 0.56105 0.1427 0.95131 0.0
H935 H 0.56994 0.24943 0.8807 0.0
H936 H 0.55492 0.21269 0.89951 0.0
H937 H 0.6107 0.16961 0.92383 0.0
H938 H 0.56447 0.08703 1.01031 0.0
H939 H 0.58024 0.12291 0.98918 0.0
C940 C 0.91477 0.79461 0.39067 0.0
C941 C 0.9006 0.77777 0.40456 0.0
C942 C 0.92563 0.81554 0.40094 0.0
C943 C 0.93951 0.84453 0.46057 0.0
H944 H 0.94669 0.90081 0.42281 0.0
C945 C 0.95843 0.9374 0.50117 0.0
C946 C 0.97823 0.95163 0.49164 0.0
C947 C 0.94953 0.9162 0.49023 0.0
C948 C 0.94483 0.88518 0.43352 0.0
H949 H 0.88792 0.76963 0.44064 0.0
H950 H 0.90528 0.80618 0.45794 0.0
H951 H 0.93066 0.86375 0.4044 0.0
H952 H 1.00382 0.9551 0.46282 0.0
H953 H 0.98774 0.91846 0.44332 0.0
H954 H 0.95278 0.86637 0.48993 0.0
C955 C 0.9086 0.80327 0.43922 0.0
C956 C 0.93583 0.86384 0.42294 0.0
C957 C 0.89814 0.78228 0.42909 0.0
C958 C 0.98859 0.94448 0.47065 0.0
C959 C 0.97936 0.92357 0.45942 0.0
C960 C 0.94801 0.86592 0.47123 0.0
C961 C 0.92244 0.82035 0.42535 0.0
C962 C 0.93294 0.84313 0.43632 0.0
C963 C 0.9599 0.9091 0.46923 0.0
C964 C 0.95074 0.88646 0.45784 0.0
H965 H 0.91708 0.79192 0.37172 0.0
H966 H 0.93649 0.82794 0.38965 0.0
H967 H 0.93825 0.82908 0.47145 0.0
H968 H 0.95013 0.94237 0.51738 0.0
H969 H 0.93444 0.90539 0.49811 0.0
C970 C 0.27153 0.69934 0.62339 0.0
C971 C 0.26275 0.69292 0.64629 0.0
C972 C 0.28849 0.68794 0.61271 0.0
C973 C 0.31884 0.63623 0.61806 0.0
H974 H 0.37074 0.67704 0.58876 0.0
C975 C 0.41072 0.61086 0.60484 0.0
C976 C 0.42197 0.61632 0.5828 0.0
C977 C 0.38982 0.61898 0.61044 0.0
C978 C 0.35626 0.66537 0.59661 0.0
H979 H 0.26367 0.66837 0.67515 0.0
H980 H 0.29371 0.64904 0.65695 0.0
H981 H 0.33597 0.69265 0.60159 0.0
H982 H 0.42034 0.63474 0.54945 0.0
H983 H 0.38384 0.64909 0.55932 0.0
H984 H 0.33967 0.60914 0.6138 0.0
C985 C 0.28741 0.66272 0.64707 0.0
C986 C 0.33625 0.67427 0.60388 0.0
C987 C 0.27036 0.67401 0.65766 0.0
C988 C 0.41197 0.63018 0.56652 0.0
C989 C 0.39119 0.63848 0.57222 0.0
C990 C 0.33896 0.62737 0.61097 0.0
C991 C 0.29714 0.66993 0.62473 0.0
C992 C 0.3174 0.65988 0.61497 0.0
C993 C 0.37986 0.63289 0.5942 0.0
C994 C 0.35797 0.64192 0.60044 0.0
H995 H 0.26615 0.7139 0.61417 0.0
H996 H 0.29528 0.69365 0.59528 0.0
H997 H 0.30451 0.62456 0.62617 0.0
H998 H 0.41789 0.60002 0.61763 0.0
H999 H 0.3816 0.61461 0.62762 0.0
C1000 C 0.76773 0.84435 0.74297 0.0
C1001 C 0.75854 0.82077 0.73989 0.0
C1002 C 0.78509 0.85528 0.72766 0.0
C1003 C 0.81036 0.85502 0.66857 0.0
H1004 H 0.86471 0.89083 0.69886 0.0
C1005 C 0.88463 0.9114 0.61473 0.0
C1006 C 0.8918 0.93375 0.62416 0.0
C1007 C 0.87017 0.89458 0.62811 0.0
C1008 C 0.84962 0.88099 0.69011 0.0
H1009 H 0.75986 0.79027 0.71803 0.0
H1010 H 0.79018 0.80976 0.69068 0.0
H1011 H 0.83513 0.86706 0.72323 0.0
H1012 H 0.89009 0.95572 0.65524 0.0
H1013 H 0.86452 0.92679 0.67818 0.0
H1014 H 0.82432 0.86981 0.63552 0.0
C1015 C 0.78391 0.81957 0.70515 0.0
C1016 C 0.83276 0.86734 0.70406 0.0
C1017 C 0.76666 0.80847 0.72075 0.0
C1018 C 0.88458 0.93879 0.64732 0.0
C1019 C 0.87019 0.92206 0.66062 0.0
C1020 C 0.82717 0.8689 0.65457 0.0
C1021 C 0.79354 0.84296 0.70881 0.0
C1022 C 0.81269 0.85475 0.6935 0.0
C1023 C 0.86275 0.89978 0.65119 0.0
C1024 C 0.84664 0.88255 0.66531 0.0
H1025 H 0.7621 0.85418 0.75777 0.0
H1026 H 0.79208 0.87341 0.73068 0.0
H1027 H 0.79497 0.84545 0.66007 0.0
H1028 H 0.88984 0.90706 0.59687 0.0
H1029 H 0.86483 0.87753 0.62041 0.0
C1030 C 0.75807 0.18767 0.21898 0.0
C1031 C 0.76041 0.21201 0.21949 0.0
C1032 C 0.74763 0.17511 0.1996 0.0
C1033 C 0.70535 0.17934 0.15183 0.0
H1034 H 0.72344 0.12073 0.13241 0.0
C1035 C 0.64875 0.11702 0.08748 0.0
C1036 C 0.64261 0.09451 0.09687 0.0
C1037 C 0.66704 0.1326 0.09747 0.0
C1038 C 0.71827 0.13712 0.13756 0.0
H1039 H 0.75436 0.24232 0.19963 0.0
H1040 H 0.73613 0.22031 0.16553 0.0
H1041 H 0.74882 0.14657 0.15904 0.0
H1042 H 0.65165 0.07056 0.12361 0.0
H1043 H 0.68373 0.0975 0.14056 0.0
H1044 H 0.67451 0.16957 0.13081 0.0
C1045 C 0.74215 0.21096 0.18034 0.0
C1046 C 0.73274 0.15188 0.15286 0.0
C1047 C 0.75258 0.22356 0.19984 0.0
C1048 C 0.65605 0.08758 0.11561 0.0
C1049 C 0.67446 0.10306 0.12541 0.0
C1050 C 0.69098 0.16464 0.13638 0.0
C1051 C 0.73927 0.18655 0.18015 0.0
C1052 C 0.72605 0.1728 0.16082 0.0
C1053 C 0.67976 0.1259 0.11685 0.0
C1054 C 0.69694 0.14306 0.1297 0.0
H1055 H 0.76349 0.1782 0.23403 0.0
H1056 H 0.74524 0.15634 0.20035 0.0
H1057 H 0.69952 0.19518 0.15777 0.0
H1058 H 0.63907 0.1228 0.07275 0.0
H1059 H 0.67094 0.15004 0.09037 0.0
C1060 C 0.37797 0.61199 0.32339 0.0
C1061 C 0.39197 0.62352 0.30501 0.0
C1062 C 0.38813 0.60303 0.34328 0.0
C1063 C 0.44414 0.58539 0.36425 0.0
H1064 H 0.41364 0.58442 0.42618 0.0
C1065 C 0.47397 0.53343 0.44354 0.0
C1066 C 0.47318 0.54256 0.46678 0.0
C1067 C 0.46417 0.5437 0.4242 0.0
C1068 C 0.4226 0.5847 0.40912 0.0
H1069 H 0.42799 0.63473 0.29371 0.0
H1070 H 0.44567 0.61977 0.32865 0.0
H1071 H 0.39723 0.60245 0.39246 0.0
H1072 H 0.46128 0.56986 0.48767 0.0
H1073 H 0.44461 0.58798 0.45404 0.0
H1074 H 0.46989 0.56824 0.38105 0.0
C1075 C 0.42672 0.61725 0.32745 0.0
C1076 C 0.41295 0.59482 0.38957 0.0
C1077 C 0.41654 0.62615 0.30747 0.0
C1078 C 0.46215 0.56221 0.47012 0.0
C1079 C 0.45244 0.57258 0.45074 0.0
C1080 C 0.45385 0.57536 0.38381 0.0
C1081 C 0.41268 0.60538 0.34564 0.0
C1082 C 0.42346 0.59522 0.36675 0.0
C1083 C 0.45336 0.56355 0.42742 0.0
C1084 C 0.44318 0.57471 0.40657 0.0
H1085 H 0.35902 0.60989 0.3225 0.0
H1086 H 0.37661 0.59383 0.35662 0.0
H1087 H 0.45271 0.58505 0.34702 0.0
H1088 H 0.48219 0.51826 0.44019 0.0
H1089 H 0.4649 0.53586 0.40672 0.0
C1090 C 0.1081 0.38593 0.82559 0.0
C1091 C 0.11467 0.39839 0.8045 0.0
C1092 C 0.10021 0.39701 0.84563 0.0
C1093 C 0.07287 0.44747 0.86342 0.0
H1094 H 0.09553 0.43611 0.92664 0.0
C1095 C 0.04639 0.49798 0.94575 0.0
C1096 C 0.04286 0.48627 0.96771 0.0
C1097 C 0.05614 0.48782 0.92617 0.0
C1098 C 0.0887 0.43928 0.9092 0.0
H1099 H 0.11789 0.43229 0.78796 0.0
H1100 H 0.10391 0.45157 0.82286 0.0
H1101 H 0.1102 0.41717 0.89206 0.0
H1102 H 0.0469 0.45455 0.98611 0.0
H1103 H 0.06322 0.43655 0.95197 0.0
H1104 H 0.05089 0.46901 0.8804 0.0
C1105 C 0.10493 0.43322 0.82389 0.0
C1106 C 0.09723 0.42844 0.88932 0.0
C1107 C 0.11312 0.42221 0.80396 0.0
C1108 C 0.04956 0.4642 0.9696 0.0
C1109 C 0.05905 0.45389 0.94993 0.0
C1110 C 0.06413 0.45809 0.8833 0.0
C1111 C 0.09838 0.42076 0.845 0.0
C1112 C 0.08945 0.43242 0.86618 0.0
C1113 C 0.06238 0.46548 0.92782 0.0
C1114 C 0.07192 0.45421 0.90654 0.0
H1115 H 0.10927 0.36762 0.82669 0.0
H1116 H 0.09516 0.38686 0.86152 0.0
H1117 H 0.06625 0.45066 0.84589 0.0
H1118 H 0.04163 0.51509 0.94365 0.0
H1119 H 0.05886 0.49761 0.90972 0.0
C1120 C 0.62478 0.8309 0.93176 0.0
C1121 C 0.64267 0.83748 0.91484 0.0
C1122 C 0.61318 0.8476 0.94252 0.0
C1123 C 0.58185 0.88407 0.95081 0.0
H1124 H 0.61535 0.94563 0.9645 0.0
C1125 C 0.53279 0.95992 0.97394 0.0
C1126 C 0.54262 0.97592 0.99129 0.0
C1127 C 0.54546 0.94321 0.96502 0.0
C1128 C 0.60572 0.92847 0.96107 0.0
H1129 H 0.66302 0.86692 0.89674 0.0
H1130 H 0.64221 0.8957 0.91456 0.0
H1131 H 0.63687 0.91568 0.95021 0.0
H1132 H 0.57344 0.98702 1.01291 0.0
H1133 H 0.59527 0.95754 0.99788 0.0
H1134 H 0.55083 0.89662 0.96253 0.0
C1135 C 0.63729 0.87776 0.91988 0.0
C1136 C 0.61804 0.91134 0.95254 0.0
C1137 C 0.64899 0.86115 0.90932 0.0
C1138 C 0.56547 0.97507 0.99935 0.0
C1139 C 0.57802 0.95818 0.99067 0.0
C1140 C 0.56956 0.90113 0.95961 0.0
C1141 C 0.61916 0.87122 0.93653 0.0
C1142 C 0.60623 0.889 0.94703 0.0
C1143 C 0.56813 0.94194 0.97349 0.0
C1144 C 0.5813 0.92362 0.96462 0.0
H1145 H 0.61942 0.81282 0.93635 0.0
H1146 H 0.59952 0.84198 0.95554 0.0
H1147 H 0.57211 0.86715 0.94654 0.0
H1148 H 0.51526 0.96022 0.96728 0.0
H1149 H 0.53747 0.93133 0.95143 0.0
C1150 C 0.91028 0.18639 0.37572 0.0
C1151 C 0.88961 0.19263 0.38545 0.0
C1152 C 0.92307 0.17206 0.38838 0.0
C1153 C 0.93211 0.14898 0.44834 0.0
H1154 H 0.94916 0.09654 0.41337 0.0
C1155 C 0.95887 0.07024 0.49625 0.0
C1156 C 0.97711 0.05985 0.48632 0.0
C1157 C 0.94965 0.08739 0.4838 0.0
C1158 C 0.94487 0.11126 0.42334 0.0
H1159 H 0.86661 0.1892 0.41648 0.0
H1160 H 0.88912 0.16447 0.43866 0.0
H1161 H 0.93131 0.12577 0.39233 0.0
H1162 H 0.99999 0.05937 0.45548 0.0
H1163 H 0.98405 0.08955 0.43385 0.0
H1164 H 0.94557 0.13447 0.47938 0.0
C1165 C 0.89548 0.17077 0.42127 0.0
C1166 C 0.93463 0.12802 0.41127 0.0
C1167 C 0.88261 0.18501 0.40857 0.0
C1168 C 0.98582 0.0669 0.46357 0.0
C1169 C 0.97665 0.08417 0.45114 0.0
C1170 C 0.94245 0.1323 0.46039 0.0
C1171 C 0.91557 0.16377 0.41111 0.0
C1172 C 0.92791 0.14691 0.42369 0.0
C1173 C 0.95852 0.09469 0.46117 0.0
C1174 C 0.94868 0.11307 0.4481 0.0
H1175 H 0.9164 0.19232 0.35814 0.0
H1176 H 0.93872 0.16726 0.38027 0.0
H1177 H 0.92739 0.16352 0.45832 0.0
H1178 H 0.95164 0.06513 0.51368 0.0
H1179 H 0.93538 0.09478 0.49186 0.0
C1180 C 0.22755 0.63745 0.13478 0.0
C1181 C 0.24357 0.62484 0.14562 0.0
C1182 C 0.20729 0.62608 0.12368 0.0
C1183 C 0.16481 0.5727 0.12186 0.0
H1184 H 0.15364 0.59134 0.05708 0.0
C1185 C 0.0853 0.52674 0.0676 0.0
C1186 C 0.07445 0.54005 0.05144 0.0
C1187 C 0.10649 0.53597 0.07862 0.0
C1188 C 0.15615 0.5861 0.07528 0.0
H1189 H 0.24987 0.59004 0.15397 0.0
H1190 H 0.21385 0.57024 0.1353 0.0
H1191 H 0.18866 0.60948 0.07801 0.0
H1192 H 0.07742 0.57363 0.03433 0.0
H1193 H 0.11369 0.59008 0.0541 0.0
H1194 H 0.13192 0.55003 0.11968 0.0
C1195 C 0.21741 0.58903 0.13518 0.0
C1196 C 0.17639 0.59644 0.08722 0.0
C1197 C 0.23801 0.60042 0.14599 0.0
C1198 C 0.08541 0.5628 0.04648 0.0
C1199 C 0.10638 0.57219 0.0578 0.0
C1200 C 0.14429 0.56261 0.11007 0.0
C1201 C 0.20209 0.60176 0.12349 0.0
C1202 C 0.18092 0.58996 0.11067 0.0
C1203 C 0.11729 0.55897 0.07413 0.0
C1204 C 0.13955 0.56923 0.08659 0.0
H1205 H 0.23065 0.65624 0.13472 0.0
H1206 H 0.19558 0.63639 0.11526 0.0
H1207 H 0.16773 0.56748 0.14 0.0
H1208 H 0.07744 0.50907 0.07171 0.0
H1209 H 0.11442 0.52495 0.09059 0.0
C1210 C 0.2721 0.41198 0.62487 0.0
C1211 C 0.27015 0.41539 0.64967 0.0
C1212 C 0.29278 0.42066 0.61252 0.0
C1213 C 0.35629 0.44239 0.62246 0.0
H1214 H 0.35407 0.4653 0.5577 0.0
C1215 C 0.43727 0.49387 0.57559 0.0
C1216 C 0.44192 0.48792 0.55185 0.0
C1217 C 0.41619 0.48461 0.58682 0.0
C1218 C 0.35497 0.45874 0.57569 0.0
H1219 H 0.2887 0.43099 0.68074 0.0
H1220 H 0.32427 0.4469 0.65913 0.0
H1221 H 0.31757 0.45072 0.57879 0.0
H1222 H 0.4277 0.46772 0.52123 0.0
H1223 H 0.3906 0.45169 0.54089 0.0
H1224 H 0.39368 0.45092 0.61948 0.0
C1225 C 0.30999 0.437 0.64926 0.0
C1226 C 0.33404 0.45033 0.58782 0.0
C1227 C 0.28937 0.42815 0.66165 0.0
C1228 C 0.42473 0.47265 0.53952 0.0
C1229 C 0.40345 0.46355 0.55074 0.0
C1230 C 0.37716 0.45101 0.61043 0.0
C1231 C 0.31209 0.43321 0.62453 0.0
C1232 C 0.33438 0.4421 0.61143 0.0
C1233 C 0.39904 0.46929 0.5746 0.0
C1234 C 0.37676 0.45938 0.58695 0.0
H1235 H 0.2576 0.4026 0.61488 0.0
H1236 H 0.2937 0.41715 0.59357 0.0
H1237 H 0.3574 0.43573 0.64037 0.0
H1238 H 0.45002 0.50559 0.58571 0.0
H1239 H 0.41324 0.48964 0.60509 0.0
C1240 C 0.76671 0.66053 0.88733 0.0
C1241 C 0.7625 0.6819 0.89663 0.0
C1242 C 0.78289 0.64854 0.89818 0.0
C1243 C 0.81916 0.64454 0.95173 0.0
H1244 H 0.86544 0.63116 0.90536 0.0
C1245 C 0.91165 0.62717 0.97835 0.0
C1246 C 0.92188 0.61133 0.96445 0.0
C1247 C 0.89021 0.63349 0.97167 0.0
C1248 C 0.85252 0.63431 0.91857 0.0
H1249 H 0.77061 0.70656 0.92563 0.0
H1250 H 0.79873 0.68546 0.94469 0.0
H1251 H 0.83015 0.6447 0.89181 0.0
H1252 H 0.91735 0.58874 0.9335 0.0
H1253 H 0.87976 0.59923 0.92214 0.0
H1254 H 0.84171 0.6342 0.97855 0.0
C1255 C 0.78949 0.678 0.92903 0.0
C1256 C 0.83226 0.6421 0.91077 0.0
C1257 C 0.77335 0.69006 0.91811 0.0
C1258 C 0.91005 0.60139 0.94421 0.0
C1259 C 0.88853 0.60744 0.93772 0.0
C1260 C 0.83941 0.63649 0.95957 0.0
C1261 C 0.79509 0.65762 0.9186 0.0
C1262 C 0.81545 0.64746 0.92723 0.0
C1263 C 0.87849 0.62383 0.95113 0.0
C1264 C 0.85642 0.63146 0.94307 0.0
H1265 H 0.75825 0.65358 0.87106 0.0
H1266 H 0.78658 0.63262 0.89004 0.0
H1267 H 0.80644 0.64851 0.96479 0.0
H1268 H 0.92049 0.63506 0.99404 0.0
H1269 H 0.88315 0.64637 0.98225 0.0
C1270 C 0.40481 0.7867 0.13145 0.0
C1271 C 0.40871 0.78368 0.15601 0.0
C1272 C 0.4128 0.80788 0.1201 0.0
C1273 C 0.45702 0.86026 0.12325 0.0
H1274 H 0.41389 0.88868 0.08457 0.0
C1275 C 0.48447 0.95218 0.08387 0.0
C1276 C 0.47526 0.95764 0.06179 0.0
C1277 C 0.47597 0.93127 0.09546 0.0
C1278 C 0.42638 0.88091 0.09492 0.0
H1279 H 0.42457 0.80115 0.1876 0.0
H1280 H 0.43931 0.83766 0.1675 0.0
H1281 H 0.40045 0.85162 0.10407 0.0
H1282 H 0.44988 0.94518 0.03452 0.0
H1283 H 0.43568 0.90833 0.05413 0.0
H1284 H 0.48324 0.88884 0.11356 0.0
C1285 C 0.42981 0.82352 0.15717 0.0
C1286 C 0.41857 0.85965 0.10625 0.0
C1287 C 0.42144 0.80246 0.16866 0.0
C1288 C 0.45723 0.94163 0.05162 0.0
C1289 C 0.449 0.92047 0.06301 0.0
C1290 C 0.46498 0.88129 0.11159 0.0
C1291 C 0.42537 0.82656 0.13281 0.0
C1292 C 0.43375 0.84913 0.12065 0.0
C1293 C 0.45828 0.91487 0.08514 0.0
C1294 C 0.44977 0.89211 0.09732 0.0
H1295 H 0.39571 0.77265 0.12076 0.0
H1296 H 0.40942 0.80954 0.10123 0.0
H1297 H 0.46924 0.85245 0.13397 0.0
H1298 H 0.49822 0.9642 0.09236 0.0
H1299 H 0.48325 0.92814 0.11269 0.0
C1300 C 0.11293 0.2446 0.62254 0.0
C1301 C 0.11425 0.24777 0.64745 0.0
C1302 C 0.10265 0.22342 0.6127 0.0
C1303 C 0.06252 0.16887 0.62473 0.0
H1304 H 0.09712 0.1451 0.5731 0.0
C1305 C 0.03476 0.07662 0.58481 0.0
C1306 C 0.03749 0.07385 0.56004 0.0
C1307 C 0.04385 0.09755 0.59613 0.0
C1308 C 0.08701 0.15156 0.58725 0.0
H1309 H 0.10475 0.23124 0.68151 0.0
H1310 H 0.08641 0.19418 0.66422 0.0
H1311 H 0.11254 0.18211 0.59158 0.0
H1312 H 0.05178 0.09118 0.52773 0.0
H1313 H 0.06715 0.12767 0.54726 0.0
H1314 H 0.03678 0.13845 0.62015 0.0
C1315 C 0.0935 0.2082 0.65236 0.0
C1316 C 0.09591 0.17281 0.59791 0.0
C1317 C 0.10396 0.22946 0.66226 0.0
C1318 C 0.0495 0.09257 0.54686 0.0
C1319 C 0.05844 0.11353 0.55814 0.0
C1320 C 0.05349 0.14763 0.61392 0.0
C1321 C 0.09318 0.2048 0.62744 0.0
C1322 C 0.08373 0.18183 0.61668 0.0
C1323 C 0.05581 0.11633 0.58295 0.0
C1324 C 0.06555 0.13873 0.59492 0.0
H1325 H 0.12009 0.25849 0.61054 0.0
H1326 H 0.10219 0.2216 0.59344 0.0
H1327 H 0.05261 0.17541 0.63901 0.0
H1328 H 0.02567 0.06256 0.59557 0.0
H1329 H 0.04173 0.09887 0.61528 0.0
C1330 C 0.7373 0.32129 0.42372 0.0
C1331 C 0.7448 0.32581 0.40002 0.0
C1332 C 0.72062 0.33328 0.43411 0.0
C1333 C 0.69034 0.38463 0.42613 0.0
H1334 H 0.64047 0.34766 0.46235 0.0
C1335 C 0.60026 0.41276 0.44224 0.0
C1336 C 0.59024 0.40945 0.46515 0.0
C1337 C 0.62069 0.40389 0.43645 0.0
C1338 C 0.65443 0.35829 0.45256 0.0
H1339 H 0.74155 0.34737 0.36912 0.0
H1340 H 0.71203 0.3677 0.38688 0.0
H1341 H 0.67387 0.33018 0.44863 0.0
H1342 H 0.59373 0.39424 0.49995 0.0
H1343 H 0.62947 0.37854 0.48973 0.0
H1344 H 0.67039 0.4125 0.42943 0.0
C1345 C 0.71916 0.35509 0.39761 0.0
C1346 C 0.67364 0.34831 0.44475 0.0
C1347 C 0.73589 0.3432 0.38728 0.0
C1348 C 0.60112 0.39711 0.48218 0.0
C1349 C 0.62146 0.38803 0.4763 0.0
C1350 C 0.67105 0.39454 0.43379 0.0
C1351 C 0.71101 0.35002 0.42102 0.0
C1352 C 0.69168 0.36126 0.43113 0.0
C1353 C 0.63147 0.39137 0.45337 0.0
C1354 C 0.65274 0.38138 0.4468 0.0
H1355 H 0.74367 0.3079 0.434 0.0
H1356 H 0.71501 0.32917 0.4523 0.0
H1357 H 0.70412 0.39525 0.4161 0.0
H1358 H 0.59242 0.42244 0.42885 0.0
H1359 H 0.62785 0.40653 0.41856 0.0
loop_
_geom_bond_atom_site_label_1
_geom_bond_atom_site_label_2
_geom_bond_distance
_geom_bond_site_symmetry_2
_ccdc_geom_bond_type
C0 C1 1.391 . S
C0 C4 1.391 . S
C0 H42 0.948 . S
C1 C0 1.391 . S
C1 C2 1.391 . S
C2 C1 1.391 . S
C2 H58 0.947 . S
C2 C59 1.392 . S
C3 C4 1.391 . S
C3 C7 1.397 . S
C3 C59 1.419 . S
C4 C0 1.391 . S
C4 C3 1.391 . S
C4 C5 1.399 . S
C5 C4 1.399 . S
C5 C8 1.396 . S
C5 C17 1.453 . S
C5 C18 1.684 . S
H6 C30 0.948 . S
C7 C3 1.397 . S
C7 C8 1.394 . S
C7 C26 1.723 . S
C8 C5 1.396 . S
C8 C7 1.394 . S
C8 C38 1.723 . S
H9 C32 0.947 . S
H10 C33 0.948 . S
H11 C39 0.982 . S
H12 C40 0.979 . S
H13 C40 0.980 . S
H14 C40 0.983 . S
H15 C39 0.979 . S
H16 C39 0.977 . S
C17 C5 1.453 . S
C17 H46 0.982 . S
C17 H47 0.979 . S
C17 H48 0.977 . S
C18 C5 1.684 . S
C18 H43 0.979 . S
C18 H44 0.980 . S
C18 H45 0.983 . S
C19 C20 1.391 . S
C19 C24 1.391 . S
C19 H49 0.948 . S
C20 C19 1.391 . S
C20 C21 1.391 . S
C21 C20 1.391 . S
C21 C22 1.392 . S
C21 H50 0.947 . S
C22 C21 1.392 . S
C22 C23 1.419 . S
C22 H51 0.948 . S
C23 C22 1.419 . S
C23 C24 1.391 . S
C23 C27 1.397 . S
C24 C19 1.391 . S
C24 C23 1.391 . S
C24 C25 1.399 . S
C25 C24 1.399 . S
C25 C26 1.396 . S
C25 C28 1.453 . S
C25 C29 1.684 . S
C26 C7 1.723 . S
C26 C25 1.396 . S
C26 C27 1.394 . S
C27 C23 1.397 . S
C27 C26 1.394 . S
C27 C37 1.723 . S
C28 C25 1.453 . S
C28 H52 0.982 . S
C28 H53 0.979 . S
C28 H54 0.977 . S
C29 C25 1.684 . S
C29 H55 0.979 . S
C29 H56 0.980 . S
C29 H57 0.983 . S
C30 H6 0.948 . S
C30 C31 1.391 . S
C30 C35 1.391 . S
C31 C30 1.391 . S
C31 C32 1.391 . S
C32 H9 0.947 . S
C32 C31 1.391 . S
C32 C33 1.392 . S
C33 H10 0.948 . S
C33 C32 1.392 . S
C33 C34 1.419 . S
C34 C33 1.419 . S
C34 C35 1.391 . S
C34 C38 1.397 . S
C35 C30 1.391 . S
C35 C34 1.391 . S
C35 C36 1.399 . S
C36 C35 1.399 . S
C36 C37 1.396 . S
C36 C39 1.453 . S
C36 C40 1.684 . S
C37 C27 1.723 . S
C37 C36 1.396 . S
C37 C38 1.394 . S
C38 C8 1.723 . S
C38 C34 1.397 . S
C38 C37 1.394 . S
C39 H11 0.982 . S
C39 H15 0.979 . S
C39 H16 0.977 . S
C39 C36 1.453 . S
C40 H12 0.979 . S
C40 H13 0.980 . S
C40 H14 0.983 . S
C40 C36 1.684 . S
H41 C59 0.948 . S
H42 C0 0.948 . S
H43 C18 0.979 . S
H44 C18 0.980 . S
H45 C18 0.983 . S
H46 C17 0.982 . S
H47 C17 0.979 . S
H48 C17 0.977 . S
H49 C19 0.948 . S
H50 C21 0.947 . S
H51 C22 0.948 . S
H52 C28 0.982 . S
H53 C28 0.979 . S
H54 C28 0.977 . S
H55 C29 0.979 . S
H56 C29 0.980 . S
H57 C29 0.983 . S
H58 C2 0.947 . S
C59 C2 1.392 . S
C59 C3 1.419 . S
C59 H41 0.948 . S
C60 C61 1.391 . S
C60 C64 1.391 . S
C60 H102 0.948 . S
C61 C60 1.391 . S
C61 C62 1.391 . S
C62 C61 1.391 . S
C62 H118 0.947 . S
C62 C119 1.392 . S
C63 C64 1.391 . S
C63 C67 1.397 . S
C63 C119 1.419 . S
C64 C60 1.391 . S
C64 C63 1.391 . S
C64 C65 1.399 . S
C65 C64 1.399 . S
C65 C68 1.396 . S
C65 C77 1.453 . S
C65 C78 1.684 . S
H66 C90 0.948 . S
C67 C63 1.397 . S
C67 C68 1.394 . S
C67 C86 1.723 . S
C68 C65 1.396 . S
C68 C67 1.394 . S
C68 C98 1.723 . S
H69 C92 0.947 . S
H70 C93 0.948 . S
H71 C99 0.982 . S
H72 C100 0.979 . S
H73 C100 0.980 . S
H74 C100 0.983 . S
H75 C99 0.979 . S
H76 C99 0.977 . S
C77 C65 1.453 . S
C77 H106 0.982 . S
C77 H107 0.979 . S
C77 H108 0.977 . S
C78 C65 1.684 . S
C78 H103 0.979 . S
C78 H104 0.980 . S
C78 H105 0.983 . S
C79 C80 1.391 . S
C79 C84 1.391 . S
C79 H109 0.948 . S
C80 C79 1.391 . S
C80 C81 1.391 . S
C81 C80 1.391 . S
C81 C82 1.392 . S
C81 H110 0.947 . S
C82 C81 1.392 . S
C82 C83 1.419 . S
C82 H111 0.948 . S
C83 C82 1.419 . S
C83 C84 1.391 . S
C83 C87 1.397 . S
C84 C79 1.391 . S
C84 C83 1.391 . S
C84 C85 1.399 . S
C85 C84 1.399 . S
C85 C86 1.396 . S
C85 C88 1.453 . S
C85 C89 1.684 . S
C86 C67 1.723 . S
C86 C85 1.396 . S
C86 C87 1.394 . S
C87 C83 1.397 . S
C87 C86 1.394 . S
C87 C97 1.723 . S
C88 C85 1.453 . S
C88 H112 0.982 . S
C88 H113 0.979 . S
C88 H114 0.977 . S
C89 C85 1.684 . S
C89 H115 0.979 . S
C89 H116 0.980 . S
C89 H117 0.983 . S
C90 H66 0.948 . S
C90 C91 1.391 . S
C90 C95 1.391 . S
C91 C90 1.391 . S
C91 C92 1.391 . S
C92 H69 0.947 . S
C92 C91 1.391 . S
C92 C93 1.392 . S
C93 H70 0.948 . S
C93 C92 1.392 . S
C93 C94 1.419 . S
C94 C93 1.419 . S
C94 C95 1.391 . S
C94 C98 1.397 . S
C95 C90 1.391 . S
C95 C94 1.391 . S
C95 C96 1.399 . S
C96 C95 1.399 . S
C96 C97 1.396 . S
C96 C99 1.453 . S
C96 C100 1.684 . S
C97 C87 1.723 . S
C97 C96 1.396 . S
C97 C98 1.394 . S
C98 C68 1.723 . S
C98 C94 1.397 . S
C98 C97 1.394 . S
C99 H71 0.982 . S
C99 H75 0.979 . S
C99 H76 0.977 . S
C99 C96 1.453 . S
C100 H72 0.979 . S
C100 H73 0.980 . S
C100 H74 0.983 . S
C100 C96 1.684 . S
H101 C119 0.948 . S
H102 C60 0.948 . S
H103 C78 0.979 . S
H104 C78 0.980 . S
H105 C78 0.983 . S
H106 C77 0.982 . S
H107 C77 0.979 . S
H108 C77 0.977 . S
H109 C79 0.948 . S
H110 C81 0.947 . S
H111 C82 0.948 . S
H112 C88 0.982 . S
H113 C88 0.979 . S
H114 C88 0.977 . S
H115 C89 0.979 . S
H116 C89 0.980 . S
H117 C89 0.983 . S
H118 C62 0.947 . S
C119 C62 1.392 . S
C119 C63 1.419 . S
C119 H101 0.948 . S
C120 C121 1.391 . S
C120 C124 1.391 . S
C120 H162 0.948 . S
C121 C120 1.391 . S
C121 C122 1.391 . S
C122 C121 1.391 . S
C122 H178 0.947 . S
C122 C179 1.392 . S
C123 C124 1.391 . S
C123 C127 1.397 . S
C123 C179 1.419 . S
C124 C120 1.391 . S
C124 C123 1.391 . S
C124 C125 1.399 . S
C125 C124 1.399 . S
C125 C128 1.396 . S
C125 C137 1.453 . S
C125 C138 1.684 . S
H126 C150 0.948 . S
C127 C123 1.397 . S
C127 C128 1.394 . S
C127 C146 1.723 . S
C128 C125 1.396 . S
C128 C127 1.394 . S
C128 C158 1.723 . S
H129 C152 0.947 . S
H130 C153 0.948 . S
H131 C159 0.982 . S
H132 C160 0.979 . S
H133 C160 0.980 . S
H134 C160 0.983 . S
H135 C159 0.979 . S
H136 C159 0.977 . S
C137 C125 1.453 . S
C137 H166 0.982 . S
C137 H167 0.979 . S
C137 H168 0.977 . S
C138 C125 1.684 . S
C138 H163 0.979 . S
C138 H164 0.980 . S
C138 H165 0.983 . S
C139 C140 1.391 . S
C139 C144 1.391 . S
C139 H169 0.948 . S
C140 C139 1.391 . S
C140 C141 1.391 . S
C141 C140 1.391 . S
C141 C142 1.392 . S
C141 H170 0.947 . S
C142 C141 1.392 . S
C142 C143 1.419 . S
C142 H171 0.948 . S
C143 C142 1.419 . S
C143 C144 1.391 . S
C143 C147 1.397 . S
C144 C139 1.391 . S
C144 C143 1.391 . S
C144 C145 1.399 . S
C145 C144 1.399 . S
C145 C146 1.396 . S
C145 C148 1.453 . S
C145 C149 1.684 . S
C146 C127 1.723 . S
C146 C145 1.396 . S
C146 C147 1.394 . S
C147 C143 1.397 . S
C147 C146 1.394 . S
C147 C157 1.723 . S
C148 C145 1.453 . S
C148 H172 0.982 . S
C148 H173 0.979 . S
C148 H174 0.977 . S
C149 C145 1.684 . S
C149 H175 0.979 . S
C149 H176 0.980 . S
C149 H177 0.983 . S
C150 H126 0.948 . S
C150 C151 1.391 . S
C150 C155 1.391 . S
C151 C150 1.391 . S
C151 C152 1.391 . S
C152 H129 0.947 . S
C152 C151 1.391 . S
C152 C153 1.392 . S
C153 H130 0.948 . S
C153 C152 1.392 . S
C153 C154 1.419 . S
C154 C153 1.419 . S
C154 C155 1.391 . S
C154 C158 1.397 . S
C155 C150 1.391 . S
C155 C154 1.391 . S
C155 C156 1.399 . S
C156 C155 1.399 . S
C156 C157 1.396 . S
C156 C159 1.453 . S
C156 C160 1.684 . S
C157 C147 1.723 . S
C157 C156 1.396 . S
C157 C158 1.394 . S
C158 C128 1.723 . S
C158 C154 1.397 . S
C158 C157 1.394 . S
C159 H131 0.982 . S
C159 H135 0.979 . S
C159 H136 0.977 . S
C159 C156 1.453 . S
C160 H132 0.979 . S
C160 H133 0.980 . S
C160 H134 0.983 . S
C160 C156 1.684 . S
H161 C179 0.948 . S
H162 C120 0.948 . S
H163 C138 0.979 . S
H164 C138 0.980 . S
H165 C138 0.983 . S
H166 C137 0.982 . S
H167 C137 0.979 . S
H168 C137 0.977 . S
H169 C139 0.948 . S
H170 C141 0.947 . S
H171 C142 0.948 . S
H172 C148 0.982 . S
H173 C148 0.979 . S
H174 C148 0.977 . S
H175 C149 0.979 . S
H176 C149 0.980 . S
H177 C149 0.983 . S
H178 C122 0.947 . S
C179 C122 1.392 . S
C179 C123 1.419 . S
C179 H161 0.948 . S
C180 C181 1.391 . S
C180 C184 1.391 . S
C180 H222 0.948 . S
C181 C180 1.391 . S
C181 C182 1.391 . S
C182 C181 1.391 . S
C182 H238 0.947 . S
C182 C239 1.392 . S
C183 C184 1.391 . S
C183 C187 1.397 . S
C183 C239 1.419 . S
C184 C180 1.391 . S
C184 C183 1.391 . S
C184 C185 1.399 . S
C185 C184 1.399 . S
C185 C188 1.396 . S
C185 C197 1.453 . S
C185 C198 1.684 . S
H186 C210 0.948 . S
C187 C183 1.397 . S
C187 C188 1.394 . S
C187 C206 1.723 . S
C188 C185 1.396 . S
C188 C187 1.394 . S
C188 C218 1.723 . S
H189 C212 0.947 . S
H190 C213 0.948 . S
H191 C219 0.982 . S
H192 C220 0.979 . S
H193 C220 0.980 . S
H194 C220 0.983 . S
H195 C219 0.979 . S
H196 C219 0.977 . S
C197 C185 1.453 . S
C197 H226 0.982 . S
C197 H227 0.979 . S
C197 H228 0.977 . S
C198 C185 1.684 . S
C198 H223 0.979 . S
C198 H224 0.980 . S
C198 H225 0.983 . S
C199 C200 1.391 . S
C199 C204 1.391 . S
C199 H229 0.948 . S
C200 C199 1.391 . S
C200 C201 1.391 . S
C201 C200 1.391 . S
C201 C202 1.392 . S
C201 H230 0.947 . S
C202 C201 1.392 . S
C202 C203 1.419 . S
C202 H231 0.948 . S
C203 C202 1.419 . S
C203 C204 1.391 . S
C203 C207 1.397 . S
C204 C199 1.391 . S
C204 C203 1.391 . S
C204 C205 1.399 . S
C205 C204 1.399 . S
C205 C206 1.396 . S
C205 C208 1.453 . S
C205 C209 1.684 . S
C206 C187 1.723 . S
C206 C205 1.396 . S
C206 C207 1.394 . S
C207 C203 1.397 . S
C207 C206 1.394 . S
C207 C217 1.723 . S
C208 C205 1.453 . S
C208 H232 0.982 . S
C208 H233 0.979 . S
C208 H234 0.977 . S
C209 C205 1.684 . S
C209 H235 0.979 . S
C209 H236 0.980 . S
C209 H237 0.983 . S
C210 H186 0.948 . S
C210 C211 1.391 . S
C210 C215 1.391 . S
C211 C210 1.391 . S
C211 C212 1.391 . S
C212 H189 0.947 . S
C212 C211 1.391 . S
C212 C213 1.392 . S
C213 H190 0.948 . S
C213 C212 1.392 . S
C213 C214 1.419 . S
C214 C213 1.419 . S
C214 C215 1.391 . S
C214 C218 1.397 . S
C215 C210 1.391 . S
C215 C214 1.391 . S
C215 C216 1.399 . S
C216 C215 1.399 . S
C216 C217 1.396 . S
C216 C219 1.453 . S
C216 C220 1.684 . S
C217 C207 1.723 . S
C217 C216 1.396 . S
C217 C218 1.394 . S
C218 C188 1.723 . S
C218 C214 1.397 . S
C218 C217 1.394 . S
C219 H191 0.982 . S
C219 H195 0.979 . S
C219 H196 0.977 . S
C219 C216 1.453 . S
C220 H192 0.979 . S
C220 H193 0.980 . S
C220 H194 0.983 . S
C220 C216 1.684 . S
H221 C239 0.948 . S
H222 C180 0.948 . S
H223 C198 0.979 . S
H224 C198 0.980 . S
H225 C198 0.983 . S
H226 C197 0.982 . S
H227 C197 0.979 . S
H228 C197 0.977 . S
H229 C199 0.948 . S
H230 C201 0.947 . S
H231 C202 0.948 . S
H232 C208 0.982 . S
H233 C208 0.979 . S
H234 C208 0.977 . S
H235 C209 0.979 . S
H236 C209 0.980 . S
H237 C209 0.983 . S
H238 C182 0.947 . S
C239 C182 1.392 . S
C239 C183 1.419 . S
C239 H221 0.948 . S
C240 C241 1.391 . S
C240 C244 1.391 . S
C240 H282 0.948 . S
C241 C240 1.391 . S
C241 C242 1.391 . S
C242 C241 1.391 . S
C242 H298 0.947 . S
C242 C299 1.392 . S
C243 C244 1.391 . S
C243 C247 1.397 . S
C243 C299 1.419 . S
C244 C240 1.391 . S
C244 C243 1.391 . S
C244 C245 1.399 . S
C245 C244 1.399 . S
C245 C248 1.396 . S
C245 C257 1.453 . S
C245 C258 1.684 . S
H246 C270 0.948 . S
C247 C243 1.397 . S
C247 C248 1.394 . S
C247 C266 1.723 . S
C248 C245 1.396 . S
C248 C247 1.394 . S
C248 C278 1.723 . S
H249 C272 0.947 . S
H250 C273 0.948 . S
H251 C279 0.982 . S
H252 C280 0.979 . S
H253 C280 0.980 . S
H254 C280 0.983 . S
H255 C279 0.979 . S
H256 C279 0.977 . S
C257 C245 1.453 . S
C257 H286 0.982 . S
C257 H287 0.979 . S
C257 H288 0.977 . S
C258 C245 1.684 . S
C258 H283 0.979 . S
C258 H284 0.980 . S
C258 H285 0.983 . S
C259 C260 1.391 . S
C259 C264 1.391 . S
C259 H289 0.948 . S
C260 C259 1.391 . S
C260 C261 1.391 . S
C261 C260 1.391 . S
C261 C262 1.392 . S
C261 H290 0.947 . S
C262 C261 1.392 . S
C262 C263 1.419 . S
C262 H291 0.948 . S
C263 C262 1.419 . S
C263 C264 1.391 . S
C263 C267 1.397 . S
C264 C259 1.391 . S
C264 C263 1.391 . S
C264 C265 1.399 . S
C265 C264 1.399 . S
C265 C266 1.396 . S
C265 C268 1.453 . S
C265 C269 1.684 . S
C266 C247 1.723 . S
C266 C265 1.396 . S
C266 C267 1.394 . S
C267 C263 1.397 . S
C267 C266 1.394 . S
C267 C277 1.723 . S
C268 C265 1.453 . S
C268 H292 0.982 . S
C268 H293 0.979 . S
C268 H294 0.977 . S
C269 C265 1.684 . S
C269 H295 0.979 . S
C269 H296 0.980 . S
C269 H297 0.983 . S
C270 H246 0.948 . S
C270 C271 1.391 . S
C270 C275 1.391 . S
C271 C270 1.391 . S
C271 C272 1.391 . S
C272 H249 0.947 . S
C272 C271 1.391 . S
C272 C273 1.392 . S
C273 H250 0.948 . S
C273 C272 1.392 . S
C273 C274 1.419 . S
C274 C273 1.419 . S
C274 C275 1.391 . S
C274 C278 1.397 . S
C275 C270 1.391 . S
C275 C274 1.391 . S
C275 C276 1.399 . S
C276 C275 1.399 . S
C276 C277 1.396 . S
C276 C279 1.453 . S
C276 C280 1.684 . S
C277 C267 1.723 . S
C277 C276 1.396 . S
C277 C278 1.394 . S
C278 C248 1.723 . S
C278 C274 1.397 . S
C278 C277 1.394 . S
C279 H251 0.982 . S
C279 H255 0.979 . S
C279 H256 0.977 . S
C279 C276 1.453 . S
C280 H252 0.979 . S
C280 H253 0.980 . S
C280 H254 0.983 . S
C280 C276 1.684 . S
H281 C299 0.948 . S
H282 C240 0.948 . S
H283 C258 0.979 . S
H284 C258 0.980 . S
H285 C258 0.983 . S
H286 C257 0.982 . S
H287 C257 0.979 . S
H288 C257 0.977 . S
H289 C259 0.948 . S
H290 C261 0.947 . S
H291 C262 0.948 . S
H292 C268 0.982 . S
H293 C268 0.979 . S
H294 C268 0.977 . S
H295 C269 0.979 . S
H296 C269 0.980 . S
H297 C269 0.983 . S
H298 C242 0.947 . S
C299 C242 1.392 . S
C299 C243 1.419 . S
C299 H281 0.948 . S
C300 C301 1.391 . S
C300 C304 1.391 . S
C300 H342 0.948 . S
C301 C300 1.391 . S
C301 C302 1.391 . S
C302 C301 1.391 . S
C302 H358 0.947 . S
C302 C359 1.392 . S
C303 C304 1.391 . S
C303 C307 1.397 . S
C303 C359 1.419 . S
C304 C300 1.391 . S
C304 C303 1.391 . S
C304 C305 1.399 . S
C305 C304 1.399 . S
C305 C308 1.396 . S
C305 C317 1.453 . S
C305 C318 1.684 . S
H306 C330 0.948 . S
C307 C303 1.397 . S
C307 C308 1.394 . S
C307 C326 1.723 . S
C308 C305 1.396 . S
C308 C307 1.394 . S
C308 C338 1.723 . S
H309 C332 0.947 . S
H310 C333 0.948 . S
H311 C339 0.982 . S
H312 C340 0.979 . S
H313 C340 0.980 . S
H314 C340 0.983 . S
H315 C339 0.979 . S
H316 C339 0.977 . S
C317 C305 1.453 . S
C317 H346 0.982 . S
C317 H347 0.979 . S
C317 H348 0.977 . S
C318 C305 1.684 . S
C318 H343 0.979 . S
C318 H344 0.980 . S
C318 H345 0.983 . S
C319 C320 1.391 . S
C319 C324 1.391 . S
C319 H349 0.948 . S
C320 C319 1.391 . S
C320 C321 1.391 . S
C321 C320 1.391 . S
C321 C322 1.392 . S
C321 H350 0.947 . S
C322 C321 1.392 . S
C322 C323 1.419 . S
C322 H351 0.948 . S
C323 C322 1.419 . S
C323 C324 1.391 . S
C323 C327 1.397 . S
C324 C319 1.391 . S
C324 C323 1.391 . S
C324 C325 1.399 . S
C325 C324 1.399 . S
C325 C326 1.396 . S
C325 C328 1.453 . S
C325 C329 1.684 . S
C326 C307 1.723 . S
C326 C325 1.396 . S
C326 C327 1.394 . S
C327 C323 1.397 . S
C327 C326 1.394 . S
C327 C337 1.723 . S
C328 C325 1.453 . S
C328 H352 0.982 . S
C328 H353 0.979 . S
C328 H354 0.977 . S
C329 C325 1.684 . S
C329 H355 0.979 . S
C329 H356 0.980 . S
C329 H357 0.983 . S
C330 H306 0.948 . S
C330 C331 1.391 . S
C330 C335 1.391 . S
C331 C330 1.391 . S
C331 C332 1.391 . S
C332 H309 0.947 . S
C332 C331 1.391 . S
C332 C333 1.392 . S
C333 H310 0.948 . S
C333 C332 1.392 . S
C333 C334 1.419 . S
C334 C333 1.419 . S
C334 C335 1.391 . S
C334 C338 1.397 . S
C335 C330 1.391 . S
C335 C334 1.391 . S
C335 C336 1.399 . S
C336 C335 1.399 . S
C336 C337 1.396 . S
C336 C339 1.453 . S
C336 C340 1.684 . S
C337 C327 1.723 . S
C337 C336 1.396 . S
C337 C338 1.394 . S
C338 C308 1.723 . S
C338 C334 1.397 . S
C338 C337 1.394 . S
C339 H311 0.982 . S
C339 H315 0.979 . S
C339 H316 0.977 . S
C339 C336 1.453 . S
C340 H312 0.979 . S
C340 H313 0.980 . S
C340 H314 0.983 . S
C340 C336 1.684 . S
H341 C359 0.948 . S
H342 C300 0.948 . S
H343 C318 0.979 . S
H344 C318 0.980 . S
H345 C318 0.983 . S
H346 C317 0.982 . S
H347 C317 0.979 . S
H348 C317 0.977 . S
H349 C319 0.948 . S
H350 C321 0.947 . S
H351 C322 0.948 . S
H352 C328 0.982 . S
H353 C328 0.979 . S
H354 C328 0.977 . S
H355 C329 0.979 . S
H356 C329 0.980 . S
H357 C329 0.983 . S
H358 C302 0.947 . S
C359 C302 1.392 . S
C359 C303 1.419 . S
C359 H341 0.948 . S
C360 C361 1.391 . S
C360 C364 1.391 . S
C360 H402 0.948 . S
C361 C360 1.391 . S
C361 C362 1.391 . S
C362 C361 1.391 . S
C362 H418 0.947 . S
C362 C419 1.392 . S
C363 C364 1.391 . S
C363 C367 1.397 . S
C363 C419 1.419 . S
C364 C360 1.391 . S
C364 C363 1.391 . S
C364 C365 1.399 . S
C365 C364 1.399 . S
C365 C368 1.396 . S
C365 C377 1.453 . S
C365 C378 1.684 . S
H366 C390 0.948 . S
C367 C363 1.397 . S
C367 C368 1.394 . S
C367 C386 1.723 . S
C368 C365 1.396 . S
C368 C367 1.394 . S
C368 C398 1.723 . S
H369 C392 0.947 . S
H370 C393 0.948 . S
H371 C399 0.982 . S
H372 C400 0.979 . S
H373 C400 0.980 . S
H374 C400 0.983 . S
H375 C399 0.979 . S
H376 C399 0.977 . S
C377 C365 1.453 . S
C377 H406 0.982 . S
C377 H407 0.979 . S
C377 H408 0.977 . S
C378 C365 1.684 . S
C378 H403 0.979 . S
C378 H404 0.980 . S
C378 H405 0.983 . S
C379 C380 1.391 . S
C379 C384 1.391 . S
C379 H409 0.948 . S
C380 C379 1.391 . S
C380 C381 1.391 . S
C381 C380 1.391 . S
C381 C382 1.392 . S
C381 H410 0.947 . S
C382 C381 1.392 . S
C382 C383 1.419 . S
C382 H411 0.948 . S
C383 C382 1.419 . S
C383 C384 1.391 . S
C383 C387 1.397 . S
C384 C379 1.391 . S
C384 C383 1.391 . S
C384 C385 1.399 . S
C385 C384 1.399 . S
C385 C386 1.396 . S
C385 C388 1.453 . S
C385 C389 1.684 . S
C386 C367 1.723 . S
C386 C385 1.396 . S
C386 C387 1.394 . S
C387 C383 1.397 . S
C387 C386 1.394 . S
C387 C397 1.723 . S
C388 C385 1.453 . S
C388 H412 0.982 . S
C388 H413 0.979 . S
C388 H414 0.977 . S
C389 C385 1.684 . S
C389 H415 0.979 . S
C389 H416 0.980 . S
C389 H417 0.983 . S
C390 H366 0.948 . S
C390 C391 1.391 . S
C390 C395 1.391 . S
C391 C390 1.391 . S
C391 C392 1.391 . S
C392 H369 0.947 . S
C392 C391 1.391 . S
C392 C393 1.392 . S
C393 H370 0.948 . S
C393 C392 1.392 . S
C393 C394 1.419 . S
C394 C393 1.419 . S
C394 C395 1.391 . S
C394 C398 1.397 . S
C395 C390 1.391 . S
C395 C394 1.391 . S
C395 C396 1.399 . S
C396 C395 1.399 . S
C396 C397 1.396 . S
C396 C399 1.453 . S
C396 C400 1.684 . S
C397 C387 1.723 . S
C397 C396 1.396 . S
C397 C398 1.394 . S
C398 C368 1.723 . S
C398 C394 1.397 . S
C398 C397 1.394 . S
C399 H371 0.982 . S
C399 H375 0.979 . S
C399 H376 0.977 . S
C399 C396 1.453 . S
C400 H372 0.979 . S
C400 H373 0.980 . S
C400 H374 0.983 . S
C400 C396 1.684 . S
H401 C419 0.948 . S
H402 C360 0.948 . S
H403 C378 0.979 . S
H404 C378 0.980 . S
H405 C378 0.983 . S
H406 C377 0.982 . S
H407 C377 0.979 . S
H408 C377 0.977 . S
H409 C379 0.948 . S
H410 C381 0.947 . S
H411 C382 0.948 . S
H412 C388 0.982 . S
H413 C388 0.979 . S
H414 C388 0.977 . S
H415 C389 0.979 . S
H416 C389 0.980 . S
H417 C389 0.983 . S
H418 C362 0.947 . S
C419 C362 1.392 . S
C419 C363 1.419 . S
C419 H401 0.948 . S
C420 C421 1.391 . S
C420 C424 1.391 . S
C420 H462 0.948 . S
C421 C420 1.391 . S
C421 C422 1.391 . S
C422 C421 1.391 . S
C422 H478 0.947 . S
C422 C479 1.392 . S
C423 C424 1.391 . S
C423 C427 1.397 . S
C423 C479 1.419 . S
C424 C420 1.391 . S
C424 C423 1.391 . S
C424 C425 1.399 . S
C425 C424 1.399 . S
C425 C428 1.396 . S
C425 C437 1.453 . S
C425 C438 1.684 . S
H426 C450 0.948 . S
C427 C423 1.397 . S
C427 C428 1.394 . S
C427 C446 1.723 . S
C428 C425 1.396 . S
C428 C427 1.394 . S
C428 C458 1.723 . S
H429 C452 0.947 . S
H430 C453 0.948 . S
H431 C459 0.982 . S
H432 C460 0.979 . S
H433 C460 0.980 . S
H434 C460 0.983 . S
H435 C459 0.979 . S
H436 C459 0.977 . S
C437 C425 1.453 . S
C437 H466 0.982 . S
C437 H467 0.979 . S
C437 H468 0.977 . S
C438 C425 1.684 . S
C438 H463 0.979 . S
C438 H464 0.980 . S
C438 H465 0.983 . S
C439 C440 1.391 . S
C439 C444 1.391 . S
C439 H469 0.948 . S
C440 C439 1.391 . S
C440 C441 1.391 . S
C441 C440 1.391 . S
C441 C442 1.392 . S
C441 H470 0.947 . S
C442 C441 1.392 . S
C442 C443 1.419 . S
C442 H471 0.948 . S
C443 C442 1.419 . S
C443 C444 1.391 . S
C443 C447 1.397 . S
C444 C439 1.391 . S
C444 C443 1.391 . S
C444 C445 1.399 . S
C445 C444 1.399 . S
C445 C446 1.396 . S
C445 C448 1.453 . S
C445 C449 1.684 . S
C446 C427 1.723 . S
C446 C445 1.396 . S
C446 C447 1.394 . S
C447 C443 1.397 . S
C447 C446 1.394 . S
C447 C457 1.723 . S
C448 C445 1.453 . S
C448 H472 0.982 . S
C448 H473 0.979 . S
C448 H474 0.977 . S
C449 C445 1.684 . S
C449 H475 0.979 . S
C449 H476 0.980 . S
C449 H477 0.983 . S
C450 H426 0.948 . S
C450 C451 1.391 . S
C450 C455 1.391 . S
C451 C450 1.391 . S
C451 C452 1.391 . S
C452 H429 0.947 . S
C452 C451 1.391 . S
C452 C453 1.392 . S
C453 H430 0.948 . S
C453 C452 1.392 . S
C453 C454 1.419 . S
C454 C453 1.419 . S
C454 C455 1.391 . S
C454 C458 1.397 . S
C455 C450 1.391 . S
C455 C454 1.391 . S
C455 C456 1.399 . S
C456 C455 1.399 . S
C456 C457 1.396 . S
C456 C459 1.453 . S
C456 C460 1.684 . S
C457 C447 1.723 . S
C457 C456 1.396 . S
C457 C458 1.394 . S
C458 C428 1.723 . S
C458 C454 1.397 . S
C458 C457 1.394 . S
C459 H431 0.982 . S
C459 H435 0.979 . S
C459 H436 0.977 . S
C459 C456 1.453 . S
C460 H432 0.979 . S
C460 H433 0.980 . S
C460 H434 0.983 . S
C460 C456 1.684 . S
H461 C479 0.948 . S
H462 C420 0.948 . S
H463 C438 0.979 . S
H464 C438 0.980 . S
H465 C438 0.983 . S
H466 C437 0.982 . S
H467 C437 0.979 . S
H468 C437 0.977 . S
H469 C439 0.948 . S
H470 C441 0.947 . S
H471 C442 0.948 . S
H472 C448 0.982 . S
H473 C448 0.979 . S
H474 C448 0.977 . S
H475 C449 0.979 . S
H476 C449 0.980 . S
H477 C449 0.983 . S
H478 C422 0.947 . S
C479 C422 1.392 . S
C479 C423 1.419 . S
C479 H461 0.948 . S
Tb480 C489 2.764 . S
Tb480 O490 2.325 1_455 S
Tb480 O493 2.303 . S
Tb480 O497 2.322 1_545 S
Tb480 O498 2.349 1_545 S
Tb480 O501 2.415 . S
Tb480 O502 2.399 . S
Tb481 O491 2.322 1_565 S
Tb481 O492 2.349 1_565 S
Tb481 O494 2.415 . S
Tb481 O495 2.399 . S
Tb481 O496 2.325 1_655 S
Tb481 O499 2.303 . S
Tb481 C510 2.764 . S
C482 O498 1.261 1_655 S
C482 O499 1.257 . S
C483 C486 1.358 . S
C483 C487 1.332 . S
C483 C489 1.504 . S
C484 C485 1.373 . S
C484 C488 1.308 . S
C485 C484 1.373 . S
C485 C486 1.429 . S
C485 H512 0.932 . S
C486 C483 1.358 . S
C486 C485 1.429 . S
C486 H513 0.930 . S
C487 C483 1.332 . S
C487 C488 1.394 . S
C487 H514 0.932 . S
C488 C484 1.308 . S
C488 C487 1.394 . S
C488 H515 0.929 . S
C489 Tb480 2.764 . S
C489 C483 1.504 . S
C489 O501 1.239 . S
C489 O502 1.263 . S
O490 Tb480 2.325 1_655 S
O490 C500 1.236 . S
O491 Tb481 2.322 1_545 S
O491 C500 1.257 . S
O492 Tb481 2.349 1_545 S
O492 C503 1.261 1_655 S
O493 Tb480 2.303 . S
O493 C503 1.257 . S
O494 Tb481 2.415 . S
O494 C510 1.239 . S
O495 Tb481 2.399 . S
O495 C510 1.263 . S
O496 Tb481 2.325 1_455 S
O496 C511 1.236 . S
O497 Tb480 2.322 1_565 S
O497 C511 1.257 . S
O498 Tb480 2.349 1_565 S
O498 C482 1.261 1_455 S
O499 Tb481 2.303 . S
O499 C482 1.257 . S
C500 O490 1.236 . S
C500 O491 1.257 . S
O501 Tb480 2.415 . S
O501 C489 1.239 . S
O502 Tb480 2.399 . S
O502 C489 1.263 . S
C503 O492 1.261 1_455 S
C503 O493 1.257 . S
C504 C507 1.358 . S
C504 C508 1.332 . S
C504 C510 1.504 . S
C505 C506 1.373 . S
C505 C509 1.308 . S
C506 C505 1.373 . S
C506 C507 1.429 . S
C506 H516 0.932 . S
C507 C504 1.358 . S
C507 C506 1.429 . S
C507 H517 0.930 . S
C508 C504 1.332 . S
C508 C509 1.394 . S
C508 H518 0.932 . S
C509 C505 1.308 . S
C509 C508 1.394 . S
C509 H519 0.929 . S
C510 Tb481 2.764 . S
C510 O494 1.239 . S
C510 O495 1.263 . S
C510 C504 1.504 . S
C511 O496 1.236 . S
C511 O497 1.257 . S
H512 C485 0.932 . S
H513 C486 0.930 . S
H514 C487 0.932 . S
H515 C488 0.929 . S
H516 C506 0.932 . S
H517 C507 0.930 . S
H518 C508 0.932 . S
H519 C509 0.929 . S
Tb520 C529 2.764 . S
Tb520 O530 2.325 1_554 S
Tb520 O533 2.303 . S
Tb520 O537 2.322 1_545 S
Tb520 O538 2.354 1_545 S
Tb520 O541 2.415 . S
Tb520 O542 2.399 . S
Tb521 O531 2.322 1_565 S
Tb521 O532 2.346 1_565 S
Tb521 O534 2.415 . S
Tb521 O535 2.399 . S
Tb521 O536 2.325 1_556 S
Tb521 O539 2.303 . S
Tb521 C550 2.764 . S
C522 O538 1.256 1_556 S
C522 O539 1.257 . S
C523 C526 1.358 . S
C523 C527 1.332 . S
C523 C529 1.504 . S
C524 C525 1.373 . S
C524 C528 1.308 . S
C525 C524 1.373 . S
C525 C526 1.429 . S
C525 H552 0.932 . S
C526 C523 1.358 . S
C526 C525 1.429 . S
C526 H553 0.930 . S
C527 C523 1.332 . S
C527 C528 1.394 . S
C527 H554 0.932 . S
C528 C524 1.308 . S
C528 C527 1.394 . S
C528 H555 0.929 . S
C529 Tb520 2.764 . S
C529 C523 1.504 . S
C529 O541 1.239 . S
C529 O542 1.263 . S
O530 Tb520 2.325 1_556 S
O530 C540 1.236 . S
O531 Tb521 2.322 1_545 S
O531 C540 1.257 . S
O532 Tb521 2.346 1_545 S
O532 C543 1.265 1_556 S
O533 Tb520 2.303 . S
O533 C543 1.257 . S
O534 Tb521 2.415 . S
O534 C550 1.239 . S
O535 Tb521 2.399 . S
O535 C550 1.263 . S
O536 Tb521 2.325 1_554 S
O536 C551 1.236 . S
O537 Tb520 2.322 1_565 S
O537 C551 1.257 . S
O538 Tb520 2.354 1_565 S
O538 C522 1.256 1_554 S
O539 Tb521 2.303 . S
O539 C522 1.257 . S
C540 O530 1.236 . S
C540 O531 1.257 . S
O541 Tb520 2.415 . S
O541 C529 1.239 . S
O542 Tb520 2.399 . S
O542 C529 1.263 . S
C543 O532 1.265 1_554 S
C543 O533 1.257 . S
C544 C547 1.358 . S
C544 C548 1.332 . S
C544 C550 1.504 . S
C545 C546 1.373 . S
C545 C549 1.308 . S
C546 C545 1.373 . S
C546 C547 1.429 . S
C546 H556 0.932 . S
C547 C544 1.358 . S
C547 C546 1.429 . S
C547 H557 0.930 . S
C548 C544 1.332 . S
C548 C549 1.394 . S
C548 H558 0.932 . S
C549 C545 1.308 . S
C549 C548 1.394 . S
C549 H559 0.929 . S
C550 Tb521 2.764 . S
C550 O534 1.239 . S
C550 O535 1.263 . S
C550 C544 1.504 . S
C551 O536 1.236 . S
C551 O537 1.257 . S
H552 C525 0.932 . S
H553 C526 0.930 . S
H554 C527 0.932 . S
H555 C528 0.929 . S
H556 C546 0.932 . S
H557 C547 0.930 . S
H558 C548 0.932 . S
H559 C549 0.929 . S
Tb560 C569 2.764 . S
Tb560 O570 2.325 . S
Tb560 O573 2.303 . S
Tb560 O577 2.322 . S
Tb560 O578 2.349 . S
Tb560 O581 2.415 . S
Tb560 O582 2.399 . S
Tb561 O571 2.322 . S
Tb561 O572 2.349 . S
Tb561 O574 2.415 . S
Tb561 O575 2.399 . S
Tb561 O576 2.325 . S
Tb561 O579 2.303 . S
Tb561 C590 2.764 . S
C562 O578 1.261 . S
C562 O579 1.257 . S
C563 C566 1.358 . S
C563 C567 1.332 . S
C563 C569 1.504 . S
C564 C565 1.373 . S
C564 C568 1.308 . S
C565 C564 1.373 . S
C565 C566 1.429 . S
C565 H592 0.932 . S
C566 C563 1.358 . S
C566 C565 1.429 . S
C566 H593 0.930 . S
C567 C563 1.332 . S
C567 C568 1.394 . S
C567 H594 0.932 . S
C568 C564 1.308 . S
C568 C567 1.394 . S
C568 H595 0.929 . S
C569 Tb560 2.764 . S
C569 C563 1.504 . S
C569 O581 1.239 . S
C569 O582 1.263 . S
O570 Tb560 2.325 . S
O570 C580 1.236 . S
O571 Tb561 2.322 . S
O571 C580 1.257 . S
O572 Tb561 2.349 . S
O572 C583 1.261 . S
O573 Tb560 2.303 . S
O573 C583 1.257 . S
O574 Tb561 2.415 . S
O574 C590 1.239 . S
O575 Tb561 2.399 . S
O575 C590 1.263 . S
O576 Tb561 2.325 . S
O576 C591 1.236 . S
O577 Tb560 2.322 . S
O577 C591 1.257 . S
O578 Tb560 2.349 . S
O578 C562 1.261 . S
O579 Tb561 2.303 . S
O579 C562 1.257 . S
C580 O570 1.236 . S
C580 O571 1.257 . S
O581 Tb560 2.415 . S
O581 C569 1.239 . S
O582 Tb560 2.399 . S
O582 C569 1.263 . S
C583 O572 1.261 . S
C583 O573 1.257 . S
C584 C587 1.358 . S
C584 C588 1.332 . S
C584 C590 1.504 . S
C585 C586 1.373 . S
C585 C589 1.308 . S
C586 C585 1.373 . S
C586 C587 1.429 . S
C586 H596 0.932 . S
C587 C584 1.358 . S
C587 C586 1.429 . S
C587 H597 0.930 . S
C588 C584 1.332 . S
C588 C589 1.394 . S
C588 H598 0.932 . S
C589 C585 1.308 . S
C589 C588 1.394 . S
C589 H599 0.929 . S
C590 Tb561 2.764 . S
C590 O574 1.239 . S
C590 O575 1.263 . S
C590 C584 1.504 . S
C591 O576 1.236 . S
C591 O577 1.257 . S
H592 C565 0.932 . S
H593 C566 0.930 . S
H594 C567 0.932 . S
H595 C568 0.929 . S
H596 C586 0.932 . S
H597 C587 0.930 . S
H598 C588 0.932 . S
H599 C589 0.929 . S
Tb600 C609 2.764 . S
Tb600 O610 2.325 . S
Tb600 O613 2.303 1_556 S
Tb600 O617 2.332 1_655 S
Tb600 O618 2.349 1_655 S
Tb600 O621 2.415 . S
Tb600 O622 2.399 . S
Tb601 O611 2.337 1_455 S
Tb601 O612 2.349 1_455 S
Tb601 O614 2.415 . S
Tb601 O615 2.399 . S
Tb601 O616 2.325 . S
Tb601 O619 2.303 1_554 S
Tb601 C630 2.764 . S
C602 O618 1.261 . S
C602 O619 1.257 . S
C603 C606 1.358 . S
C603 C607 1.332 . S
C603 C609 1.504 . S
C604 C605 1.373 . S
C604 C608 1.308 . S
C605 C604 1.373 . S
C605 C606 1.429 . S
C605 H632 0.932 . S
C606 C603 1.358 . S
C606 C605 1.429 . S
C606 H633 0.930 . S
C607 C603 1.332 . S
C607 C608 1.394 . S
C607 H634 0.932 . S
C608 C604 1.308 . S
C608 C607 1.394 . S
C608 H635 0.929 . S
C609 Tb600 2.764 . S
C609 C603 1.504 . S
C609 O621 1.239 . S
C609 O622 1.263 . S
O610 Tb600 2.325 . S
O610 C620 1.236 . S
O611 Tb601 2.337 1_655 S
O611 C620 1.235 1_554 S
O612 Tb601 2.349 1_655 S
O612 C623 1.261 . S
O613 Tb600 2.303 1_554 S
O613 C623 1.257 . S
O614 Tb601 2.415 . S
O614 C630 1.239 . S
O615 Tb601 2.399 . S
O615 C630 1.263 . S
O616 Tb601 2.325 . S
O616 C631 1.236 . S
O617 Tb600 2.332 1_455 S
O617 C631 1.243 1_556 S
O618 Tb600 2.349 1_455 S
O618 C602 1.261 . S
O619 Tb601 2.303 1_556 S
O619 C602 1.257 . S
C620 O610 1.236 . S
C620 O611 1.235 1_556 S
O621 Tb600 2.415 . S
O621 C609 1.239 . S
O622 Tb600 2.399 . S
O622 C609 1.263 . S
C623 O612 1.261 . S
C623 O613 1.257 . S
C624 C627 1.358 . S
C624 C628 1.332 . S
C624 C630 1.504 . S
C625 C626 1.373 . S
C625 C629 1.308 . S
C626 C625 1.373 . S
C626 C627 1.429 . S
C626 H636 0.932 . S
C627 C624 1.358 . S
C627 C626 1.429 . S
C627 H637 0.930 . S
C628 C624 1.332 . S
C628 C629 1.394 . S
C628 H638 0.932 . S
C629 C625 1.308 . S
C629 C628 1.394 . S
C629 H639 0.929 . S
C630 Tb601 2.764 . S
C630 O614 1.239 . S
C630 O615 1.263 . S
C630 C624 1.504 . S
C631 O616 1.236 . S
C631 O617 1.243 1_554 S
H632 C605 0.932 . S
H633 C606 0.930 . S
H634 C607 0.932 . S
H635 C608 0.929 . S
H636 C626 0.932 . S
H637 C627 0.930 . S
H638 C628 0.932 . S
H639 C629 0.929 . S
C640 C641 1.349 . S
C640 C642 1.327 . S
C640 H665 0.950 . S
C641 C640 1.349 . S
C641 C657 1.349 . S
C642 C640 1.327 . S
C642 C661 1.429 . S
C642 H666 0.950 . S
C643 C660 1.574 . S
C643 C662 1.368 . S
C643 H667 0.949 . S
H644 C648 0.949 . S
C645 C646 1.349 . S
C645 C647 1.327 . S
C645 H668 0.950 . S
C646 C645 1.349 . S
C646 C658 1.349 . S
C647 C645 1.327 . S
C647 C663 1.429 . S
C647 H669 0.950 . S
C648 H644 0.949 . S
C648 C656 1.574 . S
C648 C664 1.368 . S
H649 C657 0.950 . S
H650 C655 0.950 . S
H651 C656 0.949 . S
H652 C658 0.950 . S
H653 C659 0.950 . S
H654 C660 0.949 . S
C655 H650 0.950 . S
C655 C657 1.327 . S
C655 C661 1.429 . S
C656 C648 1.574 . S
C656 H651 0.949 . S
C656 C662 1.368 . S
C657 C641 1.349 . S
C657 H649 0.950 . S
C657 C655 1.327 . S
C658 C646 1.349 . S
C658 H652 0.950 . S
C658 C659 1.327 . S
C659 H653 0.950 . S
C659 C658 1.327 . S
C659 C663 1.429 . S
C660 C643 1.574 . S
C660 H654 0.949 . S
C660 C664 1.368 . S
C661 C642 1.429 . S
C661 C655 1.429 . S
C661 C662 1.523 . S
C662 C643 1.368 . S
C662 C656 1.368 . S
C662 C661 1.523 . S
C663 C647 1.429 . S
C663 C659 1.429 . S
C663 C664 1.523 . S
C664 C648 1.368 . S
C664 C660 1.368 . S
C664 C663 1.523 . S
H665 C640 0.950 . S
H666 C642 0.950 . S
H667 C643 0.949 . S
H668 C645 0.950 . S
H669 C647 0.950 . S
C670 C671 1.349 . S
C670 C672 1.327 . S
C670 H695 0.950 . S
C671 C670 1.349 . S
C671 C687 1.349 . S
C672 C670 1.327 . S
C672 C691 1.429 . S
C672 H696 0.950 . S
C673 C690 1.574 . S
C673 C692 1.368 . S
C673 H697 0.949 . S
H674 C678 0.949 . S
C675 C676 1.349 . S
C675 C677 1.327 . S
C675 H698 0.950 . S
C676 C675 1.349 . S
C676 C688 1.349 . S
C677 C675 1.327 . S
C677 C693 1.429 . S
C677 H699 0.950 . S
C678 H674 0.949 . S
C678 C686 1.574 . S
C678 C694 1.368 . S
H679 C687 0.950 . S
H680 C685 0.950 . S
H681 C686 0.949 . S
H682 C688 0.950 . S
H683 C689 0.950 . S
H684 C690 0.949 . S
C685 H680 0.950 . S
C685 C687 1.327 . S
C685 C691 1.429 . S
C686 C678 1.574 . S
C686 H681 0.949 . S
C686 C692 1.368 . S
C687 C671 1.349 . S
C687 H679 0.950 . S
C687 C685 1.327 . S
C688 C676 1.349 . S
C688 H682 0.950 . S
C688 C689 1.327 . S
C689 H683 0.950 . S
C689 C688 1.327 . S
C689 C693 1.429 . S
C690 C673 1.574 . S
C690 H684 0.949 . S
C690 C694 1.368 . S
C691 C672 1.429 . S
C691 C685 1.429 . S
C691 C692 1.523 . S
C692 C673 1.368 . S
C692 C686 1.368 . S
C692 C691 1.523 . S
C693 C677 1.429 . S
C693 C689 1.429 . S
C693 C694 1.523 . S
C694 C678 1.368 . S
C694 C690 1.368 . S
C694 C693 1.523 . S
H695 C670 0.950 . S
H696 C672 0.950 . S
H697 C673 0.949 . S
H698 C675 0.950 . S
H699 C677 0.950 . S
C700 C701 1.349 . S
C700 C702 1.327 . S
C700 H725 0.950 . S
C701 C700 1.349 . S
C701 C717 1.349 . S
C702 C700 1.327 . S
C702 C721 1.429 . S
C702 H726 0.950 . S
C703 C720 1.574 . S
C703 C722 1.368 . S
C703 H727 0.949 . S
H704 C708 0.949 . S
C705 C706 1.349 . S
C705 C707 1.327 . S
C705 H728 0.950 . S
C706 C705 1.349 . S
C706 C718 1.349 . S
C707 C705 1.327 . S
C707 C723 1.429 . S
C707 H729 0.950 . S
C708 H704 0.949 . S
C708 C716 1.574 . S
C708 C724 1.368 . S
H709 C717 0.950 . S
H710 C715 0.950 . S
H711 C716 0.949 . S
H712 C718 0.950 . S
H713 C719 0.950 . S
H714 C720 0.949 . S
C715 H710 0.950 . S
C715 C717 1.327 . S
C715 C721 1.429 . S
C716 C708 1.574 . S
C716 H711 0.949 . S
C716 C722 1.368 . S
C717 C701 1.349 . S
C717 H709 0.950 . S
C717 C715 1.327 . S
C718 C706 1.349 . S
C718 H712 0.950 . S
C718 C719 1.327 . S
C719 H713 0.950 . S
C719 C718 1.327 . S
C719 C723 1.429 . S
C720 C703 1.574 . S
C720 H714 0.949 . S
C720 C724 1.368 . S
C721 C702 1.429 . S
C721 C715 1.429 . S
C721 C722 1.523 . S
C722 C703 1.368 . S
C722 C716 1.368 . S
C722 C721 1.523 . S
C723 C707 1.429 . S
C723 C719 1.429 . S
C723 C724 1.523 . S
C724 C708 1.368 . S
C724 C720 1.368 . S
C724 C723 1.523 . S
H725 C700 0.950 . S
H726 C702 0.950 . S
H727 C703 0.949 . S
H728 C705 0.950 . S
H729 C707 0.950 . S
C730 C731 1.349 . S
C730 C732 1.327 . S
C730 H755 0.950 . S
C731 C730 1.349 . S
C731 C747 1.349 . S
C732 C730 1.327 . S
C732 C751 1.429 . S
C732 H756 0.950 . S
C733 C750 1.574 . S
C733 C752 1.368 . S
C733 H757 0.949 . S
H734 C738 0.949 . S
C735 C736 1.349 . S
C735 C737 1.327 . S
C735 H758 0.950 . S
C736 C735 1.349 . S
C736 C748 1.349 . S
C737 C735 1.327 . S
C737 C753 1.429 . S
C737 H759 0.950 . S
C738 H734 0.949 . S
C738 C746 1.574 . S
C738 C754 1.368 . S
H739 C747 0.950 . S
H740 C745 0.950 . S
H741 C746 0.949 . S
H742 C748 0.950 . S
H743 C749 0.950 . S
H744 C750 0.949 . S
C745 H740 0.950 . S
C745 C747 1.327 . S
C745 C751 1.429 . S
C746 C738 1.574 . S
C746 H741 0.949 . S
C746 C752 1.368 . S
C747 C731 1.349 . S
C747 H739 0.950 . S
C747 C745 1.327 . S
C748 C736 1.349 . S
C748 H742 0.950 . S
C748 C749 1.327 . S
C749 H743 0.950 . S
C749 C748 1.327 . S
C749 C753 1.429 . S
C750 C733 1.574 . S
C750 H744 0.949 . S
C750 C754 1.368 . S
C751 C732 1.429 . S
C751 C745 1.429 . S
C751 C752 1.523 . S
C752 C733 1.368 . S
C752 C746 1.368 . S
C752 C751 1.523 . S
C753 C737 1.429 . S
C753 C749 1.429 . S
C753 C754 1.523 . S
C754 C738 1.368 . S
C754 C750 1.368 . S
C754 C753 1.523 . S
H755 C730 0.950 . S
H756 C732 0.950 . S
H757 C733 0.949 . S
H758 C735 0.950 . S
H759 C737 0.950 . S
C760 C761 1.349 . S
C760 C762 1.327 . S
C760 H785 0.950 . S
C761 C760 1.349 . S
C761 C777 1.349 . S
C762 C760 1.327 . S
C762 C781 1.429 . S
C762 H786 0.950 . S
C763 C780 1.574 . S
C763 C782 1.368 . S
C763 H787 0.949 . S
H764 C768 0.949 . S
C765 C766 1.349 . S
C765 C767 1.327 . S
C765 H788 0.950 . S
C766 C765 1.349 . S
C766 C778 1.349 . S
C767 C765 1.327 . S
C767 C783 1.429 . S
C767 H789 0.950 . S
C768 H764 0.949 . S
C768 C776 1.574 . S
C768 C784 1.368 . S
H769 C777 0.950 . S
H770 C775 0.950 . S
H771 C776 0.949 . S
H772 C778 0.950 . S
H773 C779 0.950 . S
H774 C780 0.949 . S
C775 H770 0.950 . S
C775 C777 1.327 . S
C775 C781 1.429 . S
C776 C768 1.574 . S
C776 H771 0.949 . S
C776 C782 1.368 . S
C777 C761 1.349 . S
C777 H769 0.950 . S
C777 C775 1.327 . S
C778 C766 1.349 . S
C778 H772 0.950 . S
C778 C779 1.327 . S
C779 H773 0.950 . S
C779 C778 1.327 . S
C779 C783 1.429 . S
C780 C763 1.574 . S
C780 H774 0.949 . S
C780 C784 1.368 . S
C781 C762 1.429 . S
C781 C775 1.429 . S
C781 C782 1.523 . S
C782 C763 1.368 . S
C782 C776 1.368 . S
C782 C781 1.523 . S
C783 C767 1.429 . S
C783 C779 1.429 . S
C783 C784 1.523 . S
C784 C768 1.368 . S
C784 C780 1.368 . S
C784 C783 1.523 . S
H785 C760 0.950 . S
H786 C762 0.950 . S
H787 C763 0.949 . S
H788 C765 0.950 . S
H789 C767 0.950 . S
C790 C791 1.349 . S
C790 C792 1.327 . S
C790 H815 0.950 . S
C791 C790 1.349 . S
C791 C807 1.349 . S
C792 C790 1.327 . S
C792 C811 1.429 . S
C792 H816 0.950 . S
C793 C810 1.574 . S
C793 C812 1.368 . S
C793 H817 0.949 . S
H794 C798 0.949 . S
C795 C796 1.349 . S
C795 C797 1.327 . S
C795 H818 0.950 . S
C796 C795 1.349 . S
C796 C808 1.349 . S
C797 C795 1.327 . S
C797 C813 1.429 . S
C797 H819 0.950 . S
C798 H794 0.949 . S
C798 C806 1.574 . S
C798 C814 1.368 . S
H799 C807 0.950 . S
H800 C805 0.950 . S
H801 C806 0.949 . S
H802 C808 0.950 . S
H803 C809 0.950 . S
H804 C810 0.949 . S
C805 H800 0.950 . S
C805 C807 1.327 . S
C805 C811 1.429 . S
C806 C798 1.574 . S
C806 H801 0.949 . S
C806 C812 1.368 . S
C807 C791 1.349 . S
C807 H799 0.950 . S
C807 C805 1.327 . S
C808 C796 1.349 . S
C808 H802 0.950 . S
C808 C809 1.327 . S
C809 H803 0.950 . S
C809 C808 1.327 . S
C809 C813 1.429 . S
C810 C793 1.574 . S
C810 H804 0.949 . S
C810 C814 1.368 . S
C811 C792 1.429 . S
C811 C805 1.429 . S
C811 C812 1.523 . S
C812 C793 1.368 . S
C812 C806 1.368 . S
C812 C811 1.523 . S
C813 C797 1.429 . S
C813 C809 1.429 . S
C813 C814 1.523 . S
C814 C798 1.368 . S
C814 C810 1.368 . S
C814 C813 1.523 . S
H815 C790 0.950 . S
H816 C792 0.950 . S
H817 C793 0.949 . S
H818 C795 0.950 . S
H819 C797 0.950 . S
C820 C821 1.349 . S
C820 C822 1.327 . S
C820 H845 0.950 . S
C821 C820 1.349 . S
C821 C837 1.349 . S
C822 C820 1.327 . S
C822 C841 1.429 . S
C822 H846 0.950 . S
C823 C840 1.574 . S
C823 C842 1.368 . S
C823 H847 0.949 . S
H824 C828 0.949 . S
C825 C826 1.349 . S
C825 C827 1.327 . S
C825 H848 0.950 . S
C826 C825 1.349 . S
C826 C838 1.349 . S
C827 C825 1.327 . S
C827 C843 1.429 . S
C827 H849 0.950 . S
C828 H824 0.949 . S
C828 C836 1.574 . S
C828 C844 1.368 . S
H829 C837 0.950 . S
H830 C835 0.950 . S
H831 C836 0.949 . S
H832 C838 0.950 . S
H833 C839 0.950 . S
H834 C840 0.949 . S
C835 H830 0.950 . S
C835 C837 1.327 . S
C835 C841 1.429 . S
C836 C828 1.574 . S
C836 H831 0.949 . S
C836 C842 1.368 . S
C837 C821 1.349 . S
C837 H829 0.950 . S
C837 C835 1.327 . S
C838 C826 1.349 . S
C838 H832 0.950 . S
C838 C839 1.327 . S
C839 H833 0.950 . S
C839 C838 1.327 . S
C839 C843 1.429 . S
C840 C823 1.574 . S
C840 H834 0.949 . S
C840 C844 1.368 . S
C841 C822 1.429 . S
C841 C835 1.429 . S
C841 C842 1.523 . S
C842 C823 1.368 . S
C842 C836 1.368 . S
C842 C841 1.523 . S
C843 C827 1.429 . S
C843 C839 1.429 . S
C843 C844 1.523 . S
C844 C828 1.368 . S
C844 C840 1.368 . S
C844 C843 1.523 . S
H845 C820 0.950 . S
H846 C822 0.950 . S
H847 C823 0.949 . S
H848 C825 0.950 . S
H849 C827 0.950 . S
C850 C851 1.349 . S
C850 C852 1.327 . S
C850 H875 0.950 . S
C851 C850 1.349 . S
C851 C867 1.349 . S
C852 C850 1.327 . S
C852 C871 1.429 . S
C852 H876 0.950 . S
C853 C870 1.574 . S
C853 C872 1.368 . S
C853 H877 0.949 . S
H854 C858 0.949 . S
C855 C856 1.349 . S
C855 C857 1.327 . S
C855 H878 0.950 . S
C856 C855 1.349 . S
C856 C868 1.349 . S
C857 C855 1.327 . S
C857 C873 1.429 . S
C857 H879 0.950 . S
C858 H854 0.949 . S
C858 C866 1.574 . S
C858 C874 1.368 . S
H859 C867 0.950 . S
H860 C865 0.950 . S
H861 C866 0.949 . S
H862 C868 0.950 . S
H863 C869 0.950 . S
H864 C870 0.949 . S
C865 H860 0.950 . S
C865 C867 1.327 . S
C865 C871 1.429 . S
C866 C858 1.574 . S
C866 H861 0.949 . S
C866 C872 1.368 . S
C867 C851 1.349 . S
C867 H859 0.950 . S
C867 C865 1.327 . S
C868 C856 1.349 . S
C868 H862 0.950 . S
C868 C869 1.327 . S
C869 H863 0.950 . S
C869 C868 1.327 . S
C869 C873 1.429 . S
C870 C853 1.574 . S
C870 H864 0.949 . S
C870 C874 1.368 . S
C871 C852 1.429 . S
C871 C865 1.429 . S
C871 C872 1.523 . S
C872 C853 1.368 . S
C872 C866 1.368 . S
C872 C871 1.523 . S
C873 C857 1.429 . S
C873 C869 1.429 . S
C873 C874 1.523 . S
C874 C858 1.368 . S
C874 C870 1.368 . S
C874 C873 1.523 . S
H875 C850 0.950 . S
H876 C852 0.950 . S
H877 C853 0.949 . S
H878 C855 0.950 . S
H879 C857 0.950 . S
C880 C881 1.349 . S
C880 C882 1.327 . S
C880 H905 0.950 . S
C881 C880 1.349 . S
C881 C897 1.349 . S
C882 C880 1.327 . S
C882 C901 1.429 . S
C882 H906 0.950 . S
C883 C900 1.574 . S
C883 C902 1.368 . S
C883 H907 0.949 . S
H884 C888 0.949 . S
C885 C886 1.349 . S
C885 C887 1.327 . S
C885 H908 0.950 . S
C886 C885 1.349 . S
C886 C898 1.349 . S
C887 C885 1.327 . S
C887 C903 1.429 . S
C887 H909 0.950 . S
C888 H884 0.949 . S
C888 C896 1.574 . S
C888 C904 1.368 . S
H889 C897 0.950 . S
H890 C895 0.950 . S
H891 C896 0.949 . S
H892 C898 0.950 . S
H893 C899 0.950 . S
H894 C900 0.949 . S
C895 H890 0.950 . S
C895 C897 1.327 . S
C895 C901 1.429 . S
C896 C888 1.574 . S
C896 H891 0.949 . S
C896 C902 1.368 . S
C897 C881 1.349 . S
C897 H889 0.950 . S
C897 C895 1.327 . S
C898 C886 1.349 . S
C898 H892 0.950 . S
C898 C899 1.327 . S
C899 H893 0.950 . S
C899 C898 1.327 . S
C899 C903 1.429 . S
C900 C883 1.574 . S
C900 H894 0.949 . S
C900 C904 1.368 . S
C901 C882 1.429 . S
C901 C895 1.429 . S
C901 C902 1.523 . S
C902 C883 1.368 . S
C902 C896 1.368 . S
C902 C901 1.523 . S
C903 C887 1.429 . S
C903 C899 1.429 . S
C903 C904 1.523 . S
C904 C888 1.368 . S
C904 C900 1.368 . S
C904 C903 1.523 . S
H905 C880 0.950 . S
H906 C882 0.950 . S
H907 C883 0.949 . S
H908 C885 0.950 . S
H909 C887 0.950 . S
C910 C911 1.349 . S
C910 C912 1.327 . S
C910 H935 0.950 . S
C911 C910 1.349 . S
C911 C927 1.349 . S
C912 C910 1.327 . S
C912 C931 1.429 . S
C912 H936 0.950 . S
C913 C930 1.574 . S
C913 C932 1.368 . S
C913 H937 0.949 . S
H914 C918 0.949 . S
C915 C916 1.349 . S
C915 C917 1.327 . S
C915 H938 0.950 . S
C916 C915 1.349 . S
C916 C928 1.349 . S
C917 C915 1.327 . S
C917 C933 1.429 . S
C917 H939 0.950 . S
C918 H914 0.949 . S
C918 C926 1.574 . S
C918 C934 1.368 . S
H919 C927 0.950 . S
H920 C925 0.950 . S
H921 C926 0.949 . S
H922 C928 0.950 . S
H923 C929 0.950 . S
H924 C930 0.949 . S
C925 H920 0.950 . S
C925 C927 1.327 . S
C925 C931 1.429 . S
C926 C918 1.574 . S
C926 H921 0.949 . S
C926 C932 1.368 . S
C927 C911 1.349 . S
C927 H919 0.950 . S
C927 C925 1.327 . S
C928 C916 1.349 . S
C928 H922 0.950 . S
C928 C929 1.327 . S
C929 H923 0.950 . S
C929 C928 1.327 . S
C929 C933 1.429 . S
C930 C913 1.574 . S
C930 H924 0.949 . S
C930 C934 1.368 . S
C931 C912 1.429 . S
C931 C925 1.429 . S
C931 C932 1.523 . S
C932 C913 1.368 . S
C932 C926 1.368 . S
C932 C931 1.523 . S
C933 C917 1.429 . S
C933 C929 1.429 . S
C933 C934 1.523 . S
C934 C918 1.368 . S
C934 C930 1.368 . S
C934 C933 1.523 . S
H935 C910 0.950 . S
H936 C912 0.950 . S
H937 C913 0.949 . S
H938 C915 0.950 . S
H939 C917 0.950 . S
C940 C941 1.349 . S
C940 C942 1.327 . S
C940 H965 0.950 . S
C941 C940 1.349 . S
C941 C957 1.349 . S
C942 C940 1.327 . S
C942 C961 1.429 . S
C942 H966 0.950 . S
C943 C960 1.574 . S
C943 C962 1.368 . S
C943 H967 0.949 . S
H944 C948 0.949 . S
C945 C946 1.349 . S
C945 C947 1.327 . S
C945 H968 0.950 . S
C946 C945 1.349 . S
C946 C958 1.349 . S
C947 C945 1.327 . S
C947 C963 1.429 . S
C947 H969 0.950 . S
C948 H944 0.949 . S
C948 C956 1.574 . S
C948 C964 1.368 . S
H949 C957 0.950 . S
H950 C955 0.950 . S
H951 C956 0.949 . S
H952 C958 0.950 . S
H953 C959 0.950 . S
H954 C960 0.949 . S
C955 H950 0.950 . S
C955 C957 1.327 . S
C955 C961 1.429 . S
C956 C948 1.574 . S
C956 H951 0.949 . S
C956 C962 1.368 . S
C957 C941 1.349 . S
C957 H949 0.950 . S
C957 C955 1.327 . S
C958 C946 1.349 . S
C958 H952 0.950 . S
C958 C959 1.327 . S
C959 H953 0.950 . S
C959 C958 1.327 . S
C959 C963 1.429 . S
C960 C943 1.574 . S
C960 H954 0.949 . S
C960 C964 1.368 . S
C961 C942 1.429 . S
C961 C955 1.429 . S
C961 C962 1.523 . S
C962 C943 1.368 . S
C962 C956 1.368 . S
C962 C961 1.523 . S
C963 C947 1.429 . S
C963 C959 1.429 . S
C963 C964 1.523 . S
C964 C948 1.368 . S
C964 C960 1.368 . S
C964 C963 1.523 . S
H965 C940 0.950 . S
H966 C942 0.950 . S
H967 C943 0.949 . S
H968 C945 0.950 . S
H969 C947 0.950 . S
C970 C971 1.349 . S
C970 C972 1.327 . S
C970 H995 0.950 . S
C971 C970 1.349 . S
C971 C987 1.349 . S
C972 C970 1.327 . S
C972 C991 1.429 . S
C972 H996 0.950 . S
C973 C990 1.574 . S
C973 C992 1.368 . S
C973 H997 0.949 . S
H974 C978 0.949 . S
C975 C976 1.349 . S
C975 C977 1.327 . S
C975 H998 0.950 . S
C976 C975 1.349 . S
C976 C988 1.349 . S
C977 C975 1.327 . S
C977 C993 1.429 . S
C977 H999 0.950 . S
C978 H974 0.949 . S
C978 C986 1.574 . S
C978 C994 1.368 . S
H979 C987 0.950 . S
H980 C985 0.950 . S
H981 C986 0.949 . S
H982 C988 0.950 . S
H983 C989 0.950 . S
H984 C990 0.949 . S
C985 H980 0.950 . S
C985 C987 1.327 . S
C985 C991 1.429 . S
C986 C978 1.574 . S
C986 H981 0.949 . S
C986 C992 1.368 . S
C987 C971 1.349 . S
C987 H979 0.950 . S
C987 C985 1.327 . S
C988 C976 1.349 . S
C988 H982 0.950 . S
C988 C989 1.327 . S
C989 H983 0.950 . S
C989 C988 1.327 . S
C989 C993 1.429 . S
C990 C973 1.574 . S
C990 H984 0.949 . S
C990 C994 1.368 . S
C991 C972 1.429 . S
C991 C985 1.429 . S
C991 C992 1.523 . S
C992 C973 1.368 . S
C992 C986 1.368 . S
C992 C991 1.523 . S
C993 C977 1.429 . S
C993 C989 1.429 . S
C993 C994 1.523 . S
C994 C978 1.368 . S
C994 C990 1.368 . S
C994 C993 1.523 . S
H995 C970 0.950 . S
H996 C972 0.950 . S
H997 C973 0.949 . S
H998 C975 0.950 . S
H999 C977 0.950 . S
C1000 C1001 1.349 . S
C1000 C1002 1.327 . S
C1000 H1025 0.950 . S
C1001 C1000 1.349 . S
C1001 C1017 1.349 . S
C1002 C1000 1.327 . S
C1002 C1021 1.429 . S
C1002 H1026 0.950 . S
C1003 C1020 1.574 . S
C1003 C1022 1.368 . S
C1003 H1027 0.949 . S
H1004 C1008 0.949 . S
C1005 C1006 1.349 . S
C1005 C1007 1.327 . S
C1005 H1028 0.950 . S
C1006 C1005 1.349 . S
C1006 C1018 1.349 . S
C1007 C1005 1.327 . S
C1007 C1023 1.429 . S
C1007 H1029 0.950 . S
C1008 H1004 0.949 . S
C1008 C1016 1.574 . S
C1008 C1024 1.368 . S
H1009 C1017 0.950 . S
H1010 C1015 0.950 . S
H1011 C1016 0.949 . S
H1012 C1018 0.950 . S
H1013 C1019 0.950 . S
H1014 C1020 0.949 . S
C1015 H1010 0.950 . S
C1015 C1017 1.327 . S
C1015 C1021 1.429 . S
C1016 C1008 1.574 . S
C1016 H1011 0.949 . S
C1016 C1022 1.368 . S
C1017 C1001 1.349 . S
C1017 H1009 0.950 . S
C1017 C1015 1.327 . S
C1018 C1006 1.349 . S
C1018 H1012 0.950 . S
C1018 C1019 1.327 . S
C1019 H1013 0.950 . S
C1019 C1018 1.327 . S
C1019 C1023 1.429 . S
C1020 C1003 1.574 . S
C1020 H1014 0.949 . S
C1020 C1024 1.368 . S
C1021 C1002 1.429 . S
C1021 C1015 1.429 . S
C1021 C1022 1.523 . S
C1022 C1003 1.368 . S
C1022 C1016 1.368 . S
C1022 C1021 1.523 . S
C1023 C1007 1.429 . S
C1023 C1019 1.429 . S
C1023 C1024 1.523 . S
C1024 C1008 1.368 . S
C1024 C1020 1.368 . S
C1024 C1023 1.523 . S
H1025 C1000 0.950 . S
H1026 C1002 0.950 . S
H1027 C1003 0.949 . S
H1028 C1005 0.950 . S
H1029 C1007 0.950 . S
C1030 C1031 1.349 . S
C1030 C1032 1.327 . S
C1030 H1055 0.950 . S
C1031 C1030 1.349 . S
C1031 C1047 1.349 . S
C1032 C1030 1.327 . S
C1032 C1051 1.429 . S
C1032 H1056 0.950 . S
C1033 C1050 1.574 . S
C1033 C1052 1.368 . S
C1033 H1057 0.949 . S
H1034 C1038 0.949 . S
C1035 C1036 1.349 . S
C1035 C1037 1.327 . S
C1035 H1058 0.950 . S
C1036 C1035 1.349 . S
C1036 C1048 1.349 . S
C1037 C1035 1.327 . S
C1037 C1053 1.429 . S
C1037 H1059 0.950 . S
C1038 H1034 0.949 . S
C1038 C1046 1.574 . S
C1038 C1054 1.368 . S
H1039 C1047 0.950 . S
H1040 C1045 0.950 . S
H1041 C1046 0.949 . S
H1042 C1048 0.950 . S
H1043 C1049 0.950 . S
H1044 C1050 0.949 . S
C1045 H1040 0.950 . S
C1045 C1047 1.327 . S
C1045 C1051 1.429 . S
C1046 C1038 1.574 . S
C1046 H1041 0.949 . S
C1046 C1052 1.368 . S
C1047 C1031 1.349 . S
C1047 H1039 0.950 . S
C1047 C1045 1.327 . S
C1048 C1036 1.349 . S
C1048 H1042 0.950 . S
C1048 C1049 1.327 . S
C1049 H1043 0.950 . S
C1049 C1048 1.327 . S
C1049 C1053 1.429 . S
C1050 C1033 1.574 . S
C1050 H1044 0.949 . S
C1050 C1054 1.368 . S
C1051 C1032 1.429 . S
C1051 C1045 1.429 . S
C1051 C1052 1.523 . S
C1052 C1033 1.368 . S
C1052 C1046 1.368 . S
C1052 C1051 1.523 . S
C1053 C1037 1.429 . S
C1053 C1049 1.429 . S
C1053 C1054 1.523 . S
C1054 C1038 1.368 . S
C1054 C1050 1.368 . S
C1054 C1053 1.523 . S
H1055 C1030 0.950 . S
H1056 C1032 0.950 . S
H1057 C1033 0.949 . S
H1058 C1035 0.950 . S
H1059 C1037 0.950 . S
C1060 C1061 1.349 . S
C1060 C1062 1.327 . S
C1060 H1085 0.950 . S
C1061 C1060 1.349 . S
C1061 C1077 1.349 . S
C1062 C1060 1.327 . S
C1062 C1081 1.429 . S
C1062 H1086 0.950 . S
C1063 C1080 1.574 . S
C1063 C1082 1.368 . S
C1063 H1087 0.949 . S
H1064 C1068 0.949 . S
C1065 C1066 1.349 . S
C1065 C1067 1.327 . S
C1065 H1088 0.950 . S
C1066 C1065 1.349 . S
C1066 C1078 1.349 . S
C1067 C1065 1.327 . S
C1067 C1083 1.429 . S
C1067 H1089 0.950 . S
C1068 H1064 0.949 . S
C1068 C1076 1.574 . S
C1068 C1084 1.368 . S
H1069 C1077 0.950 . S
H1070 C1075 0.950 . S
H1071 C1076 0.949 . S
H1072 C1078 0.950 . S
H1073 C1079 0.950 . S
H1074 C1080 0.949 . S
C1075 H1070 0.950 . S
C1075 C1077 1.327 . S
C1075 C1081 1.429 . S
C1076 C1068 1.574 . S
C1076 H1071 0.949 . S
C1076 C1082 1.368 . S
C1077 C1061 1.349 . S
C1077 H1069 0.950 . S
C1077 C1075 1.327 . S
C1078 C1066 1.349 . S
C1078 H1072 0.950 . S
C1078 C1079 1.327 . S
C1079 H1073 0.950 . S
C1079 C1078 1.327 . S
C1079 C1083 1.429 . S
C1080 C1063 1.574 . S
C1080 H1074 0.949 . S
C1080 C1084 1.368 . S
C1081 C1062 1.429 . S
C1081 C1075 1.429 . S
C1081 C1082 1.523 . S
C1082 C1063 1.368 . S
C1082 C1076 1.368 . S
C1082 C1081 1.523 . S
C1083 C1067 1.429 . S
C1083 C1079 1.429 . S
C1083 C1084 1.523 . S
C1084 C1068 1.368 . S
C1084 C1080 1.368 . S
C1084 C1083 1.523 . S
H1085 C1060 0.950 . S
H1086 C1062 0.950 . S
H1087 C1063 0.949 . S
H1088 C1065 0.950 . S
H1089 C1067 0.950 . S
C1090 C1091 1.349 . S
C1090 C1092 1.327 . S
C1090 H1115 0.950 . S
C1091 C1090 1.349 . S
C1091 C1107 1.349 . S
C1092 C1090 1.327 . S
C1092 C1111 1.429 . S
C1092 H1116 0.950 . S
C1093 C1110 1.574 . S
C1093 C1112 1.368 . S
C1093 H1117 0.949 . S
H1094 C1098 0.949 . S
C1095 C1096 1.349 . S
C1095 C1097 1.327 . S
C1095 H1118 0.950 . S
C1096 C1095 1.349 . S
C1096 C1108 1.349 . S
C1097 C1095 1.327 . S
C1097 C1113 1.429 . S
C1097 H1119 0.950 . S
C1098 H1094 0.949 . S
C1098 C1106 1.574 . S
C1098 C1114 1.368 . S
H1099 C1107 0.950 . S
H1100 C1105 0.950 . S
H1101 C1106 0.949 . S
H1102 C1108 0.950 . S
H1103 C1109 0.950 . S
H1104 C1110 0.949 . S
C1105 H1100 0.950 . S
C1105 C1107 1.327 . S
C1105 C1111 1.429 . S
C1106 C1098 1.574 . S
C1106 H1101 0.949 . S
C1106 C1112 1.368 . S
C1107 C1091 1.349 . S
C1107 H1099 0.950 . S
C1107 C1105 1.327 . S
C1108 C1096 1.349 . S
C1108 H1102 0.950 . S
C1108 C1109 1.327 . S
C1109 H1103 0.950 . S
C1109 C1108 1.327 . S
C1109 C1113 1.429 . S
C1110 C1093 1.574 . S
C1110 H1104 0.949 . S
C1110 C1114 1.368 . S
C1111 C1092 1.429 . S
C1111 C1105 1.429 . S
C1111 C1112 1.523 . S
C1112 C1093 1.368 . S
C1112 C1106 1.368 . S
C1112 C1111 1.523 . S
C1113 C1097 1.429 . S
C1113 C1109 1.429 . S
C1113 C1114 1.523 . S
C1114 C1098 1.368 . S
C1114 C1110 1.368 . S
C1114 C1113 1.523 . S
H1115 C1090 0.950 . S
H1116 C1092 0.950 . S
H1117 C1093 0.949 . S
H1118 C1095 0.950 . S
H1119 C1097 0.950 . S
C1120 C1121 1.349 . S
C1120 C1122 1.327 . S
C1120 H1145 0.950 . S
C1121 C1120 1.349 . S
C1121 C1137 1.349 . S
C1122 C1120 1.327 . S
C1122 C1141 1.429 . S
C1122 H1146 0.950 . S
C1123 C1140 1.574 . S
C1123 C1142 1.368 . S
C1123 H1147 0.949 . S
H1124 C1128 0.949 . S
C1125 C1126 1.349 . S
C1125 C1127 1.327 . S
C1125 H1148 0.950 . S
C1126 C1125 1.349 . S
C1126 C1138 1.349 . S
C1127 C1125 1.327 . S
C1127 C1143 1.429 . S
C1127 H1149 0.950 . S
C1128 H1124 0.949 . S
C1128 C1136 1.574 . S
C1128 C1144 1.368 . S
H1129 C1137 0.950 . S
H1130 C1135 0.950 . S
H1131 C1136 0.949 . S
H1132 C1138 0.950 . S
H1133 C1139 0.950 . S
H1134 C1140 0.949 . S
C1135 H1130 0.950 . S
C1135 C1137 1.327 . S
C1135 C1141 1.429 . S
C1136 C1128 1.574 . S
C1136 H1131 0.949 . S
C1136 C1142 1.368 . S
C1137 C1121 1.349 . S
C1137 H1129 0.950 . S
C1137 C1135 1.327 . S
C1138 C1126 1.349 . S
C1138 H1132 0.950 . S
C1138 C1139 1.327 . S
C1139 H1133 0.950 . S
C1139 C1138 1.327 . S
C1139 C1143 1.429 . S
C1140 C1123 1.574 . S
C1140 H1134 0.949 . S
C1140 C1144 1.368 . S
C1141 C1122 1.429 . S
C1141 C1135 1.429 . S
C1141 C1142 1.523 . S
C1142 C1123 1.368 . S
C1142 C1136 1.368 . S
C1142 C1141 1.523 . S
C1143 C1127 1.429 . S
C1143 C1139 1.429 . S
C1143 C1144 1.523 . S
C1144 C1128 1.368 . S
C1144 C1140 1.368 . S
C1144 C1143 1.523 . S
H1145 C1120 0.950 . S
H1146 C1122 0.950 . S
H1147 C1123 0.949 . S
H1148 C1125 0.950 . S
H1149 C1127 0.950 . S
C1150 C1151 1.349 . S
C1150 C1152 1.327 . S
C1150 H1175 0.950 . S
C1151 C1150 1.349 . S
C1151 C1167 1.349 . S
C1152 C1150 1.327 . S
C1152 C1171 1.429 . S
C1152 H1176 0.950 . S
C1153 C1170 1.574 . S
C1153 C1172 1.368 . S
C1153 H1177 0.949 . S
H1154 C1158 0.949 . S
C1155 C1156 1.349 . S
C1155 C1157 1.327 . S
C1155 H1178 0.950 . S
C1156 C1155 1.349 . S
C1156 C1168 1.349 . S
C1157 C1155 1.327 . S
C1157 C1173 1.429 . S
C1157 H1179 0.950 . S
C1158 H1154 0.949 . S
C1158 C1166 1.574 . S
C1158 C1174 1.368 . S
H1159 C1167 0.950 . S
H1160 C1165 0.950 . S
H1161 C1166 0.949 . S
H1162 C1168 0.950 . S
H1163 C1169 0.950 . S
H1164 C1170 0.949 . S
C1165 H1160 0.950 . S
C1165 C1167 1.327 . S
C1165 C1171 1.429 . S
C1166 C1158 1.574 . S
C1166 H1161 0.949 . S
C1166 C1172 1.368 . S
C1167 C1151 1.349 . S
C1167 H1159 0.950 . S
C1167 C1165 1.327 . S
C1168 C1156 1.349 . S
C1168 H1162 0.950 . S
C1168 C1169 1.327 . S
C1169 H1163 0.950 . S
C1169 C1168 1.327 . S
C1169 C1173 1.429 . S
C1170 C1153 1.574 . S
C1170 H1164 0.949 . S
C1170 C1174 1.368 . S
C1171 C1152 1.429 . S
C1171 C1165 1.429 . S
C1171 C1172 1.523 . S
C1172 C1153 1.368 . S
C1172 C1166 1.368 . S
C1172 C1171 1.523 . S
C1173 C1157 1.429 . S
C1173 C1169 1.429 . S
C1173 C1174 1.523 . S
C1174 C1158 1.368 . S
C1174 C1170 1.368 . S
C1174 C1173 1.523 . S
H1175 C1150 0.950 . S
H1176 C1152 0.950 . S
H1177 C1153 0.949 . S
H1178 C1155 0.950 . S
H1179 C1157 0.950 . S
C1180 C1181 1.349 . S
C1180 C1182 1.327 . S
C1180 H1205 0.950 . S
C1181 C1180 1.349 . S
C1181 C1197 1.349 . S
C1182 C1180 1.327 . S
C1182 C1201 1.429 . S
C1182 H1206 0.950 . S
C1183 C1200 1.574 . S
C1183 C1202 1.368 . S
C1183 H1207 0.949 . S
H1184 C1188 0.949 . S
C1185 C1186 1.349 . S
C1185 C1187 1.327 . S
C1185 H1208 0.950 . S
C1186 C1185 1.349 . S
C1186 C1198 1.349 . S
C1187 C1185 1.327 . S
C1187 C1203 1.429 . S
C1187 H1209 0.950 . S
C1188 H1184 0.949 . S
C1188 C1196 1.574 . S
C1188 C1204 1.368 . S
H1189 C1197 0.950 . S
H1190 C1195 0.950 . S
H1191 C1196 0.949 . S
H1192 C1198 0.950 . S
H1193 C1199 0.950 . S
H1194 C1200 0.949 . S
C1195 H1190 0.950 . S
C1195 C1197 1.327 . S
C1195 C1201 1.429 . S
C1196 C1188 1.574 . S
C1196 H1191 0.949 . S
C1196 C1202 1.368 . S
C1197 C1181 1.349 . S
C1197 H1189 0.950 . S
C1197 C1195 1.327 . S
C1198 C1186 1.349 . S
C1198 H1192 0.950 . S
C1198 C1199 1.327 . S
C1199 H1193 0.950 . S
C1199 C1198 1.327 . S
C1199 C1203 1.429 . S
C1200 C1183 1.574 . S
C1200 H1194 0.949 . S
C1200 C1204 1.368 . S
C1201 C1182 1.429 . S
C1201 C1195 1.429 . S
C1201 C1202 1.523 . S
C1202 C1183 1.368 . S
C1202 C1196 1.368 . S
C1202 C1201 1.523 . S
C1203 C1187 1.429 . S
C1203 C1199 1.429 . S
C1203 C1204 1.523 . S
C1204 C1188 1.368 . S
C1204 C1200 1.368 . S
C1204 C1203 1.523 . S
H1205 C1180 0.950 . S
H1206 C1182 0.950 . S
H1207 C1183 0.949 . S
H1208 C1185 0.950 . S
H1209 C1187 0.950 . S
C1210 C1211 1.349 . S
C1210 C1212 1.327 . S
C1210 H1235 0.950 . S
C1211 C1210 1.349 . S
C1211 C1227 1.349 . S
C1212 C1210 1.327 . S
C1212 C1231 1.429 . S
C1212 H1236 0.950 . S
C1213 C1230 1.574 . S
C1213 C1232 1.368 . S
C1213 H1237 0.949 . S
H1214 C1218 0.949 . S
C1215 C1216 1.349 . S
C1215 C1217 1.327 . S
C1215 H1238 0.950 . S
C1216 C1215 1.349 . S
C1216 C1228 1.349 . S
C1217 C1215 1.327 . S
C1217 C1233 1.429 . S
C1217 H1239 0.950 . S
C1218 H1214 0.949 . S
C1218 C1226 1.574 . S
C1218 C1234 1.368 . S
H1219 C1227 0.950 . S
H1220 C1225 0.950 . S
H1221 C1226 0.949 . S
H1222 C1228 0.950 . S
H1223 C1229 0.950 . S
H1224 C1230 0.949 . S
C1225 H1220 0.950 . S
C1225 C1227 1.327 . S
C1225 C1231 1.429 . S
C1226 C1218 1.574 . S
C1226 H1221 0.949 . S
C1226 C1232 1.368 . S
C1227 C1211 1.349 . S
C1227 H1219 0.950 . S
C1227 C1225 1.327 . S
C1228 C1216 1.349 . S
C1228 H1222 0.950 . S
C1228 C1229 1.327 . S
C1229 H1223 0.950 . S
C1229 C1228 1.327 . S
C1229 C1233 1.429 . S
C1230 C1213 1.574 . S
C1230 H1224 0.949 . S
C1230 C1234 1.368 . S
C1231 C1212 1.429 . S
C1231 C1225 1.429 . S
C1231 C1232 1.523 . S
C1232 C1213 1.368 . S
C1232 C1226 1.368 . S
C1232 C1231 1.523 . S
C1233 C1217 1.429 . S
C1233 C1229 1.429 . S
C1233 C1234 1.523 . S
C1234 C1218 1.368 . S
C1234 C1230 1.368 . S
C1234 C1233 1.523 . S
H1235 C1210 0.950 . S
H1236 C1212 0.950 . S
H1237 C1213 0.949 . S
H1238 C1215 0.950 . S
H1239 C1217 0.950 . S
C1240 C1241 1.349 . S
C1240 C1242 1.327 . S
C1240 H1265 0.950 . S
C1241 C1240 1.349 . S
C1241 C1257 1.349 . S
C1242 C1240 1.327 . S
C1242 C1261 1.429 . S
C1242 H1266 0.950 . S
C1243 C1260 1.574 . S
C1243 C1262 1.368 . S
C1243 H1267 0.949 . S
H1244 C1248 0.949 . S
C1245 C1246 1.349 . S
C1245 C1247 1.327 . S
C1245 H1268 0.950 . S
C1246 C1245 1.349 . S
C1246 C1258 1.349 . S
C1247 C1245 1.327 . S
C1247 C1263 1.429 . S
C1247 H1269 0.950 . S
C1248 H1244 0.949 . S
C1248 C1256 1.574 . S
C1248 C1264 1.368 . S
H1249 C1257 0.950 . S
H1250 C1255 0.950 . S
H1251 C1256 0.949 . S
H1252 C1258 0.950 . S
H1253 C1259 0.950 . S
H1254 C1260 0.949 . S
C1255 H1250 0.950 . S
C1255 C1257 1.327 . S
C1255 C1261 1.429 . S
C1256 C1248 1.574 . S
C1256 H1251 0.949 . S
C1256 C1262 1.368 . S
C1257 C1241 1.349 . S
C1257 H1249 0.950 . S
C1257 C1255 1.327 . S
C1258 C1246 1.349 . S
C1258 H1252 0.950 . S
C1258 C1259 1.327 . S
C1259 H1253 0.950 . S
C1259 C1258 1.327 . S
C1259 C1263 1.429 . S
C1260 C1243 1.574 . S
C1260 H1254 0.949 . S
C1260 C1264 1.368 . S
C1261 C1242 1.429 . S
C1261 C1255 1.429 . S
C1261 C1262 1.523 . S
C1262 C1243 1.368 . S
C1262 C1256 1.368 . S
C1262 C1261 1.523 . S
C1263 C1247 1.429 . S
C1263 C1259 1.429 . S
C1263 C1264 1.523 . S
C1264 C1248 1.368 . S
C1264 C1260 1.368 . S
C1264 C1263 1.523 . S
H1265 C1240 0.950 . S
H1266 C1242 0.950 . S
H1267 C1243 0.949 . S
H1268 C1245 0.950 . S
H1269 C1247 0.950 . S
C1270 C1271 1.349 . S
C1270 C1272 1.327 . S
C1270 H1295 0.950 . S
C1271 C1270 1.349 . S
C1271 C1287 1.349 . S
C1272 C1270 1.327 . S
C1272 C1291 1.429 . S
C1272 H1296 0.950 . S
C1273 C1290 1.574 . S
C1273 C1292 1.368 . S
C1273 H1297 0.949 . S
H1274 C1278 0.949 . S
C1275 C1276 1.349 . S
C1275 C1277 1.327 . S
C1275 H1298 0.950 . S
C1276 C1275 1.349 . S
C1276 C1288 1.349 . S
C1277 C1275 1.327 . S
C1277 C1293 1.429 . S
C1277 H1299 0.950 . S
C1278 H1274 0.949 . S
C1278 C1286 1.574 . S
C1278 C1294 1.368 . S
H1279 C1287 0.950 . S
H1280 C1285 0.950 . S
H1281 C1286 0.949 . S
H1282 C1288 0.950 . S
H1283 C1289 0.950 . S
H1284 C1290 0.949 . S
C1285 H1280 0.950 . S
C1285 C1287 1.327 . S
C1285 C1291 1.429 . S
C1286 C1278 1.574 . S
C1286 H1281 0.949 . S
C1286 C1292 1.368 . S
C1287 C1271 1.349 . S
C1287 H1279 0.950 . S
C1287 C1285 1.327 . S
C1288 C1276 1.349 . S
C1288 H1282 0.950 . S
C1288 C1289 1.327 . S
C1289 H1283 0.950 . S
C1289 C1288 1.327 . S
C1289 C1293 1.429 . S
C1290 C1273 1.574 . S
C1290 H1284 0.949 . S
C1290 C1294 1.368 . S
C1291 C1272 1.429 . S
C1291 C1285 1.429 . S
C1291 C1292 1.523 . S
C1292 C1273 1.368 . S
C1292 C1286 1.368 . S
C1292 C1291 1.523 . S
C1293 C1277 1.429 . S
C1293 C1289 1.429 . S
C1293 C1294 1.523 . S
C1294 C1278 1.368 . S
C1294 C1290 1.368 . S
C1294 C1293 1.523 . S
H1295 C1270 0.950 . S
H1296 C1272 0.950 . S
H1297 C1273 0.949 . S
H1298 C1275 0.950 . S
H1299 C1277 0.950 . S
C1300 C1301 1.349 . S
C1300 C1302 1.327 . S
C1300 H1325 0.950 . S
C1301 C1300 1.349 . S
C1301 C1317 1.349 . S
C1302 C1300 1.327 . S
C1302 C1321 1.429 . S
C1302 H1326 0.950 . S
C1303 C1320 1.574 . S
C1303 C1322 1.368 . S
C1303 H1327 0.949 . S
H1304 C1308 0.949 . S
C1305 C1306 1.349 . S
C1305 C1307 1.327 . S
C1305 H1328 0.950 . S
C1306 C1305 1.349 . S
C1306 C1318 1.349 . S
C1307 C1305 1.327 . S
C1307 C1323 1.429 . S
C1307 H1329 0.950 . S
C1308 H1304 0.949 . S
C1308 C1316 1.574 . S
C1308 C1324 1.368 . S
H1309 C1317 0.950 . S
H1310 C1315 0.950 . S
H1311 C1316 0.949 . S
H1312 C1318 0.950 . S
H1313 C1319 0.950 . S
H1314 C1320 0.949 . S
C1315 H1310 0.950 . S
C1315 C1317 1.327 . S
C1315 C1321 1.429 . S
C1316 C1308 1.574 . S
C1316 H1311 0.949 . S
C1316 C1322 1.368 . S
C1317 C1301 1.349 . S
C1317 H1309 0.950 . S
C1317 C1315 1.327 . S
C1318 C1306 1.349 . S
C1318 H1312 0.950 . S
C1318 C1319 1.327 . S
C1319 H1313 0.950 . S
C1319 C1318 1.327 . S
C1319 C1323 1.429 . S
C1320 C1303 1.574 . S
C1320 H1314 0.949 . S
C1320 C1324 1.368 . S
C1321 C1302 1.429 . S
C1321 C1315 1.429 . S
C1321 C1322 1.523 . S
C1322 C1303 1.368 . S
C1322 C1316 1.368 . S
C1322 C1321 1.523 . S
C1323 C1307 1.429 . S
C1323 C1319 1.429 . S
C1323 C1324 1.523 . S
C1324 C1308 1.368 . S
C1324 C1320 1.368 . S
C1324 C1323 1.523 . S
H1325 C1300 0.950 . S
H1326 C1302 0.950 . S
H1327 C1303 0.949 . S
H1328 C1305 0.950 . S
H1329 C1307 0.950 . S
C1330 C1331 1.349 . S
C1330 C1332 1.327 . S
C1330 H1355 0.950 . S
C1331 C1330 1.349 . S
C1331 C1347 1.349 . S
C1332 C1330 1.327 . S
C1332 C1351 1.429 . S
C1332 H1356 0.950 . S
C1333 C1350 1.574 . S
C1333 C1352 1.368 . S
C1333 H1357 0.949 . S
H1334 C1338 0.949 . S
C1335 C1336 1.349 . S
C1335 C1337 1.327 . S
C1335 H1358 0.950 . S
C1336 C1335 1.349 . S
C1336 C1348 1.349 . S
C1337 C1335 1.327 . S
C1337 C1353 1.429 . S
C1337 H1359 0.950 . S
C1338 H1334 0.949 . S
C1338 C1346 1.574 . S
C1338 C1354 1.368 . S
H1339 C1347 0.950 . S
H1340 C1345 0.950 . S
H1341 C1346 0.949 . S
H1342 C1348 0.950 . S
H1343 C1349 0.950 . S
H1344 C1350 0.949 . S
C1345 H1340 0.950 . S
C1345 C1347 1.327 . S
C1345 C1351 1.429 . S
C1346 C1338 1.574 . S
C1346 H1341 0.949 . S
C1346 C1352 1.368 . S
C1347 C1331 1.349 . S
C1347 H1339 0.950 . S
C1347 C1345 1.327 . S
C1348 C1336 1.349 . S
C1348 H1342 0.950 . S
C1348 C1349 1.327 . S
C1349 H1343 0.950 . S
C1349 C1348 1.327 . S
C1349 C1353 1.429 . S
C1350 C1333 1.574 . S
C1350 H1344 0.949 . S
C1350 C1354 1.368 . S
C1351 C1332 1.429 . S
C1351 C1345 1.429 . S
C1351 C1352 1.523 . S
C1352 C1333 1.368 . S
C1352 C1346 1.368 . S
C1352 C1351 1.523 . S
C1353 C1337 1.429 . S
C1353 C1349 1.429 . S
C1353 C1354 1.523 . S
C1354 C1338 1.368 . S
C1354 C1350 1.368 . S
C1354 C1353 1.523 . S
H1355 C1330 0.950 . S
H1356 C1332 0.950 . S
H1357 C1333 0.949 . S
H1358 C1335 0.950 . S
H1359 C1337 0.950 . S
C641 C1 0.828 . S
C646 C484 0.847 . S
C671 C80 1.195 . S
C676 C545 1.238 . S
C706 C583 2.494 . S
C701 C140 2.516 . S
C731 C211 2.256 . S
C736 C623 2.238 . S
C766 C543 1.228 . S
C761 C31 1.170 . S
C796 C511 2.131 . S
C791 C61 2.066 . S
C826 C620 1.677 . S
C821 C151 1.637 . S
C856 C580 1.799 . S
C851 C200 1.790 . S
C881 C20 0.973 . S
C886 C625 0.983 . S
C916 C540 2.399 . S
C911 C121 2.367 . S
C941 C181 2.089 . S
C946 C482 2.105 . S
C971 C91 1.522 . S
C976 C585 1.523 . S
C1006 C505 0.847 . S
C1001 C260 0.838 . S
C1031 C320 1.195 . S
C1036 C524 1.234 . S
C1061 C361 2.541 . S
C1066 C562 2.495 . S
C1091 C451 2.255 . S
C1096 C602 2.242 . S
C1121 C271 1.202 . S
C1126 C522 1.229 . S
C1156 C500 2.131 . S
C1151 C301 2.067 . S
C1186 C631 1.676 . S
C1181 C380 1.649 . S
C1216 C591 1.799 . S
C1211 C440 1.790 . S
C1241 C241 0.940 . S
C1246 C604 0.987 . S
C1276 C551 2.398 . S
C1271 C391 2.386 . S
C1306 C503 2.105 . S
C1301 C421 2.090 . S
C1331 C331 1.522 . S
C1336 C564 1.522 . S
