# Generated by pormake.
# Topology pth, (4,4)-cn, num edge types: 1
# Building blocks:
#     Node 0, Type 0, BuildingBlock: NAHDIM_clean_sbu_0, # of connection points: 4
#     Node 1, Type 0, BuildingBlock: NAHDIM_clean_sbu_0, # of connection points: 4
#     Node 2, Type 0, BuildingBlock: NAHDIM_clean_sbu_0, # of connection points: 4
#     Node 3, Type 1, BuildingBlock: NAHDIM_clean_linker_0, # of connection points: 4
#     Node 4, Type 1, BuildingBlock: NAHDIM_clean_linker_0, # of connection points: 4
#     Node 5, Type 1, BuildingBlock: NAHDIM_clean_linker_0, # of connection points: 4
#     Edge 6, Type (0, 1), BuildingBlock: XUDNAN_clean_linker_2, # of connection points: 2
#     Edge 7, Type (0, 1), BuildingBlock: XUDNAN_clean_linker_2, # of connection points: 2
#     Edge 8, Type (0, 1), BuildingBlock: XUDNAN_clean_linker_2, # of connection points: 2
#     Edge 9, Type (0, 1), BuildingBlock: XUDNAN_clean_linker_2, # of connection points: 2
#     Edge 10, Type (0, 1), BuildingBlock: XUDNAN_clean_linker_2, # of connection points: 2
#     Edge 11, Type (0, 1), BuildingBlock: XUDNAN_clean_linker_2, # of connection points: 2
#     Edge 12, Type (0, 1), BuildingBlock: XUDNAN_clean_linker_2, # of connection points: 2
#     Edge 13, Type (0, 1), BuildingBlock: XUDNAN_clean_linker_2, # of connection points: 2
#     Edge 14, Type (0, 1), BuildingBlock: XUDNAN_clean_linker_2, # of connection points: 2
#     Edge 15, Type (0, 1), BuildingBlock: XUDNAN_clean_linker_2, # of connection points: 2
#     Edge 16, Type (0, 1), BuildingBlock: XUDNAN_clean_linker_2, # of connection points: 2
#     Edge 17, Type (0, 1), BuildingBlock: XUDNAN_clean_linker_2, # of connection points: 2
# Relax obj value: 0.059
# Max RMSD: 0.179
# Mean RMSD: 0.115
data_MOF--net-pth--node1-NAHDIM_clean_sbu_0--node2-NAHDIM_clean_linker_0--edge1-XUDNAN_clean_linker_2
_symmetry_space_group_name_H-M    P1
_symmetry_Int_Tables_number       1
_symmetry_cell_setting            triclinic
loop_
_symmetry_equiv_pos_as_xyz
'x, y, z'
_cell_length_a     31.693461
_cell_length_b     31.827875
_cell_length_c     79.38534
_cell_angle_alpha  91.739073
_cell_angle_beta   90.451605
_cell_angle_gamma 120.62463
loop_
_atom_site_label
_atom_site_type_symbol
_atom_site_fract_x
_atom_site_fract_y
_atom_site_fract_z
_atom_type_partial_charge
C0 C 0.0965 0.98264 0.05861 0.0
O1 O 0.0646 0.95907 0.04618 0.0
O2 O 0.07837 0.10595 0.065 0.0
Zn3 Zn 0.08647 0.06289 0.04788 0.0
O4 O 0.02117 0.01199 0.03751 0.0
C5 C 0.16644 0.14887 0.03521 0.0
O6 O 0.17519 0.15892 0.05148 0.0
O7 O 0.11445 0.02847 0.0607 0.0
C8 C 0.00264 0.01601 0.02385 0.0
O9 O 0.02565 0.05703 0.01586 0.0
C10 C 0.047 0.11944 0.06423 0.0
O11 O 0.01437 0.10269 0.05174 0.0
O12 O 0.13119 0.10712 0.03025 0.0
C13 C 0.07466 0.17256 0.36526 0.0
O14 O 0.03502 0.14067 0.37287 0.0
O15 O 0.07914 0.05105 0.36761 0.0
Zn16 Zn 0.10808 0.11562 0.38076 0.0
O17 O 0.06771 0.11143 0.40084 0.0
C18 C 0.19811 0.11361 0.38395 0.0
O19 O 0.1838 0.0898 0.36926 0.0
O20 O 0.11305 0.16945 0.36641 0.0
C21 C 0.02309 0.07962 0.40312 0.0
O22 O 0.99929 0.04353 0.3919 0.0
C23 C 0.04461 0.03399 0.35653 0.0
O24 O 0.0233 0.0589 0.35292 0.0
O25 O 0.17342 0.13104 0.39041 0.0
C26 C 0.11519 0.0443 0.69806 0.0
O27 O 0.12596 0.08949 0.70129 0.0
O28 O 0.99602 0.04228 0.70692 0.0
Zn29 Zn 0.03921 0.02629 0.72072 0.0
O30 O 0.08767 0.08361 0.73551 0.0
C31 C 0.9554 0.95787 0.73951 0.0
O32 O 0.94028 0.98869 0.73685 0.0
O33 O 0.07812 0.00965 0.70486 0.0
C34 C 0.07823 0.1078 0.74629 0.0
O35 O 0.03238 0.09481 0.74897 0.0
C36 C 0.00295 0.08471 0.70468 0.0
O37 O 0.04136 0.12309 0.71179 0.0
O38 O 0.99697 0.96735 0.7342 0.0
C39 C 0.96302 0.68079 0.32509 0.0
C40 C 0.9935 0.71864 0.31218 0.0
C41 C 0.98907 0.6777 0.28511 0.0
C42 C 0.03898 0.69572 0.28227 0.0
C43 C 0.05364 0.67134 0.27084 0.0
C44 C 0.01763 0.62829 0.26206 0.0
C45 C 0.96728 0.61075 0.26464 0.0
C46 C 0.95371 0.63617 0.27599 0.0
C47 C 0.10756 0.69158 0.26807 0.0
C48 C 0.92785 0.56489 0.25553 0.0
C49 C 0.09176 0.35732 0.30182 0.0
C50 C 0.1099 0.39653 0.28946 0.0
C51 C 0.07036 0.42762 0.27089 0.0
C52 C 0.02553 0.41623 0.26348 0.0
C53 C 0.0197 0.45186 0.25564 0.0
C54 C 0.06019 0.50003 0.255 0.0
C55 C 0.10606 0.51172 0.26222 0.0
C56 C 0.11075 0.47532 0.27012 0.0
C57 C 0.97012 0.43812 0.2482 0.0
C58 C 0.14995 0.56268 0.26163 0.0
C59 C 0.07678 0.46079 0.1419 0.0
C60 C 0.02939 0.44672 0.14719 0.0
C61 C 0.02157 0.47696 0.15837 0.0
C62 C 0.06199 0.52204 0.16437 0.0
C63 C 0.10987 0.53586 0.15928 0.0
C64 C 0.11667 0.50466 0.14825 0.0
C65 C 0.97018 0.46057 0.1639 0.0
C66 C 0.15376 0.58353 0.16553 0.0
C67 C 0.95873 0.80886 0.16119 0.0
C68 C 0.99759 0.7948 0.15805 0.0
C69 C 0.99042 0.71477 0.15944 0.0
C70 C 0.95595 0.66516 0.16056 0.0
C71 C 0.96946 0.63267 0.16667 0.0
C72 C 0.01898 0.65035 0.17145 0.0
C73 C 0.05463 0.70003 0.16941 0.0
C74 C 0.03998 0.73185 0.16346 0.0
C75 C 0.93063 0.57975 0.16844 0.0
C76 C 0.10795 0.71967 0.17393 0.0
C77 C 0.03247 0.60104 0.25039 0.0
C78 C 0.04268 0.56716 0.25725 0.0
C79 C 0.05407 0.5381 0.24695 0.0
C80 C 0.05586 0.5431 0.2293 0.0
C81 C 0.06707 0.51432 0.21858 0.0
C82 C 0.06681 0.51813 0.20117 0.0
C83 C 0.0557 0.55113 0.19382 0.0
C84 C 0.05409 0.55439 0.17612 0.0
C85 C 0.04293 0.58759 0.16922 0.0
C86 C 0.03282 0.61753 0.17955 0.0
C87 C 0.03401 0.61468 0.19728 0.0
C88 C 0.02353 0.64398 0.20803 0.0
C89 C 0.02371 0.64012 0.22544 0.0
C90 C 0.03399 0.60654 0.23276 0.0
C91 C 0.04544 0.57723 0.22218 0.0
C92 C 0.04539 0.58126 0.20442 0.0
C93 C 0.07883 0.44124 0.1019 0.0
C94 C 0.05848 0.40746 0.11674 0.0
O95 O 0.97371 0.70021 0.29615 0.0
O96 O 0.97436 0.74491 0.1546 0.0
O97 O 0.0856 0.43216 0.13125 0.0
O98 O 0.07255 0.39163 0.27885 0.0
H99 H 0.03165 0.72591 0.31337 0.0
H100 H 0.96384 0.64674 0.32246 0.0
H101 H 0.92426 0.67187 0.32445 0.0
H102 H 0.97831 0.69485 0.33804 0.0
H103 H 0.06652 0.72921 0.28871 0.0
H104 H 0.91529 0.62309 0.27808 0.0
H105 H 0.11794 0.66492 0.27215 0.0
H106 H 0.13096 0.72688 0.27515 0.0
H107 H 0.11516 0.69702 0.25443 0.0
H108 H 0.89047 0.55473 0.2596 0.0
H109 H 0.93382 0.53403 0.25782 0.0
H110 H 0.92986 0.57026 0.24175 0.0
H111 H 0.14374 0.40432 0.28276 0.0
H112 H 0.10211 0.39486 0.3257 0.0
H113 H 0.11075 0.33645 0.29854 0.0
H114 H 0.05466 0.3271 0.29699 0.0
H115 H 0.99469 0.37926 0.26413 0.0
H116 H 0.14584 0.48427 0.27564 0.0
H117 H 0.97277 0.44263 0.23437 0.0
H118 H 0.95808 0.46284 0.25356 0.0
H119 H 0.9417 0.39978 0.25061 0.0
H120 H 0.1837 0.56538 0.26706 0.0
H121 H 0.14242 0.58861 0.26876 0.0
H122 H 0.15661 0.57422 0.24838 0.0
H123 H 0.01933 0.39648 0.118 0.0
H124 H 0.99859 0.41172 0.14297 0.0
H125 H 0.15319 0.51473 0.14429 0.0
H126 H 0.96881 0.45948 0.17786 0.0
H127 H 0.94282 0.42389 0.15845 0.0
H128 H 0.95966 0.48727 0.16001 0.0
H129 H 0.18847 0.58952 0.16006 0.0
H130 H 0.15708 0.58398 0.17948 0.0
H131 H 0.14863 0.61437 0.16229 0.0
H132 H 0.02016 0.80465 0.16993 0.0
H133 H 0.97646 0.84877 0.16409 0.0
H134 H 0.93649 0.78917 0.17211 0.0
H135 H 0.93377 0.79904 0.14998 0.0
H136 H 0.91798 0.65225 0.15716 0.0
H137 H 0.06726 0.76994 0.16205 0.0
H138 H 0.92968 0.56954 0.18175 0.0
H139 H 0.93987 0.55623 0.16059 0.0
H140 H 0.89355 0.57203 0.16452 0.0
H141 H 0.13176 0.75799 0.17017 0.0
H142 H 0.12069 0.6965 0.16772 0.0
H143 H 0.11227 0.71827 0.18776 0.0
H144 H 0.04052 0.56245 0.27076 0.0
H145 H 0.07577 0.48822 0.22352 0.0
H146 H 0.07523 0.4947 0.19354 0.0
H147 H 0.04136 0.5896 0.15563 0.0
H148 H 0.0148 0.6701 0.20313 0.0
H149 H 0.01526 0.66351 0.23308 0.0
H150 H 0.05732 0.4225 0.09013 0.0
H151 H 0.1179 0.45264 0.10003 0.0
H152 H 0.07634 0.47443 0.1044 0.0
C153 C 0.41487 0.02667 0.65555 0.0
C154 C 0.39173 0.04505 0.64292 0.0
C155 C 0.42241 0.03559 0.61582 0.0
C156 C 0.45549 0.08472 0.61248 0.0
C157 C 0.49322 0.09721 0.60102 0.0
C158 C 0.49777 0.05983 0.59272 0.0
C159 C 0.46349 0.01026 0.59565 0.0
C160 C 0.42581 0.99882 0.60703 0.0
C161 C 0.52839 0.15035 0.59782 0.0
C162 C 0.46715 0.96942 0.58698 0.0
C163 C 0.82945 0.09236 0.63629 0.0
C164 C 0.79071 0.07572 0.6229 0.0
C165 C 0.74941 0.10714 0.60583 0.0
C166 C 0.71103 0.06076 0.60022 0.0
C167 C 0.67054 0.05562 0.5911 0.0
C168 C 0.66808 0.09761 0.58758 0.0
C169 C 0.70695 0.14442 0.59292 0.0
C170 C 0.74738 0.14858 0.6019 0.0
C171 C 0.6299 0.00514 0.58545 0.0
C172 C 0.70531 0.18986 0.58937 0.0
C173 C 0.72265 0.11025 0.47585 0.0
C174 C 0.68583 0.06297 0.47944 0.0
C175 C 0.6469 0.05483 0.48978 0.0
C176 C 0.64445 0.09519 0.4965 0.0
C177 C 0.68102 0.1432 0.49267 0.0
C178 C 0.71999 0.15032 0.4825 0.0
C179 C 0.60854 0.00312 0.49361 0.0
C180 C 0.67901 0.18699 0.49941 0.0
C181 C 0.24997 0.98725 0.48584 0.0
C182 C 0.30381 0.02236 0.48202 0.0
C183 C 0.37591 0.01562 0.48861 0.0
C184 C 0.3902 0.98237 0.49286 0.0
C185 C 0.4373 0.99834 0.49948 0.0
C186 C 0.47101 0.04903 0.50181 0.0
C187 C 0.45759 0.08304 0.49685 0.0
C188 C 0.41013 0.06601 0.49022 0.0
C189 C 0.45063 0.96102 0.50441 0.0
C190 C 0.49307 0.1373 0.49892 0.0
C191 C 0.53932 0.07256 0.58142 0.0
C192 C 0.58381 0.0825 0.58877 0.0
C193 C 0.62379 0.09198 0.57889 0.0
C194 C 0.61971 0.09214 0.56116 0.0
C195 C 0.65903 0.10095 0.55084 0.0
C196 C 0.65419 0.09973 0.53337 0.0
C197 C 0.6098 0.08957 0.52554 0.0
C198 C 0.60412 0.08718 0.50778 0.0
C199 C 0.55901 0.07541 0.50041 0.0
C200 C 0.51915 0.06603 0.51033 0.0
C201 C 0.52445 0.0695 0.52811 0.0
C202 C 0.48526 0.06116 0.53845 0.0
C203 C 0.49025 0.0629 0.55592 0.0
C204 C 0.53449 0.07269 0.56371 0.0
C205 C 0.57481 0.0823 0.55355 0.0
C206 C 0.56981 0.08085 0.53572 0.0
C207 C 0.79344 0.18268 0.44757 0.0
C208 C 0.80232 0.15797 0.46236 0.0
O209 O 0.38648 0.02233 0.62722 0.0
O210 O 0.32888 0.99739 0.4831 0.0
O211 O 0.75953 0.11521 0.4659 0.0
O212 O 0.7882 0.1131 0.61531 0.0
H213 H 0.41637 0.0852 0.64237 0.0
H214 H 0.45227 0.03669 0.65156 0.0
H215 H 0.39257 0.98628 0.65628 0.0
H216 H 0.418 0.04369 0.66828 0.0
H217 H 0.45171 0.11346 0.61855 0.0
H218 H 0.39959 0.96102 0.6095 0.0
H219 H 0.56586 0.16051 0.60223 0.0
H220 H 0.51795 0.17493 0.60438 0.0
H221 H 0.5298 0.15635 0.58408 0.0
H222 H 0.43874 0.93286 0.59114 0.0
H223 H 0.50391 0.97435 0.58957 0.0
H224 H 0.46297 0.97053 0.57313 0.0
H225 H 0.78869 0.04746 0.61373 0.0
H226 H 0.78942 0.06569 0.65885 0.0
H227 H 0.85577 0.13242 0.63444 0.0
H228 H 0.85531 0.08055 0.63146 0.0
H229 H 0.71219 0.02829 0.603 0.0
H230 H 0.77713 0.1842 0.60622 0.0
H231 H 0.62236 0.00385 0.5717 0.0
H232 H 0.59577 0.99652 0.59202 0.0
H233 H 0.63889 0.97648 0.58814 0.0
H234 H 0.73858 0.22364 0.5943 0.0
H235 H 0.67253 0.18765 0.5952 0.0
H236 H 0.70177 0.1924 0.57556 0.0
H237 H 0.81519 0.18351 0.47362 0.0
H238 H 0.68802 0.0323 0.47421 0.0
H239 H 0.74785 0.18723 0.47978 0.0
H240 H 0.60437 0.99931 0.50745 0.0
H241 H 0.61773 0.97598 0.48847 0.0
H242 H 0.57263 0.99451 0.48806 0.0
H243 H 0.70797 0.22166 0.49418 0.0
H244 H 0.68365 0.18984 0.51335 0.0
H245 H 0.64261 0.18243 0.49635 0.0
H246 H 0.31801 0.05259 0.49182 0.0
H247 H 0.22888 0.00641 0.48553 0.0
H248 H 0.24716 0.9729 0.49862 0.0
H249 H 0.23329 0.95592 0.4765 0.0
H250 H 0.36374 0.94361 0.49133 0.0
H251 H 0.40002 0.09213 0.4864 0.0
H252 H 0.45722 0.96368 0.51826 0.0
H253 H 0.4851 0.96863 0.49832 0.0
H254 H 0.42136 0.92309 0.50079 0.0
H255 H 0.47751 0.15909 0.49407 0.0
H256 H 0.52722 0.14708 0.49215 0.0
H257 H 0.50327 0.14743 0.51248 0.0
H258 H 0.58698 0.08157 0.60236 0.0
H259 H 0.69395 0.10869 0.55616 0.0
H260 H 0.68561 0.10648 0.52607 0.0
H261 H 0.55457 0.07249 0.48678 0.0
H262 H 0.45018 0.053 0.53316 0.0
H263 H 0.45882 0.05599 0.56324 0.0
H264 H 0.77995 0.15779 0.43617 0.0
H265 H 0.828 0.21658 0.44459 0.0
H266 H 0.76566 0.19279 0.45076 0.0
C267 C 0.78073 0.73737 0.79279 0.0
C268 C 0.73934 0.69965 0.8023 0.0
C269 C 0.6727 0.68993 0.82012 0.0
C270 C 0.64887 0.71296 0.827 0.0
C271 C 0.60457 0.68639 0.83542 0.0
C272 C 0.58432 0.63566 0.83732 0.0
C273 C 0.60856 0.61219 0.83058 0.0
C274 C 0.65215 0.63939 0.8219 0.0
C275 C 0.57931 0.71244 0.84223 0.0
C276 C 0.5883 0.55823 0.8325 0.0
C277 C 0.28161 0.47152 0.76562 0.0
C278 C 0.30161 0.45099 0.77858 0.0
C279 C 0.32927 0.48163 0.80732 0.0
C280 C 0.35976 0.46227 0.8099 0.0
C281 C 0.39744 0.48292 0.82228 0.0
C282 C 0.40538 0.52445 0.83203 0.0
C283 C 0.37357 0.54302 0.82981 0.0
C284 C 0.3352 0.52061 0.81768 0.0
C285 C 0.42964 0.46119 0.82453 0.0
C286 C 0.38118 0.5876 0.83979 0.0
C287 C 0.30136 0.44449 0.93745 0.0
C288 C 0.3313 0.42551 0.93284 0.0
C289 C 0.37713 0.45542 0.9257 0.0
C290 C 0.39316 0.50511 0.92312 0.0
C291 C 0.36372 0.52457 0.92824 0.0
C292 C 0.31831 0.49398 0.93545 0.0
C293 C 0.40825 0.4339 0.92072 0.0
C294 C 0.37986 0.57747 0.92581 0.0
C295 C 0.766 0.75707 0.93667 0.0
C296 C 0.7368 0.76559 0.95026 0.0
C297 C 0.65698 0.69113 0.94718 0.0
C298 C 0.64152 0.64161 0.94495 0.0
C299 C 0.59879 0.60979 0.93543 0.0
C300 C 0.57035 0.62798 0.9284 0.0
C301 C 0.58443 0.67756 0.93146 0.0
C302 C 0.62782 0.70871 0.94075 0.0
C303 C 0.58474 0.55714 0.93248 0.0
C304 C 0.55401 0.69779 0.92469 0.0
C305 C 0.5374 0.60672 0.8461 0.0
C306 C 0.49439 0.58077 0.83623 0.0
C307 C 0.44917 0.55063 0.84352 0.0
C308 C 0.44656 0.54605 0.8612 0.0
C309 C 0.40202 0.51498 0.86894 0.0
C310 C 0.39974 0.51152 0.88638 0.0
C311 C 0.44196 0.53891 0.89676 0.0
C312 C 0.4399 0.53638 0.91453 0.0
C313 C 0.48233 0.56511 0.92449 0.0
C314 C 0.52727 0.59601 0.91716 0.0
C315 C 0.53037 0.59783 0.8994 0.0
C316 C 0.57535 0.6271 0.89161 0.0
C317 C 0.57787 0.62964 0.87416 0.0
C318 C 0.5354 0.60352 0.86383 0.0
C319 C 0.48978 0.57315 0.8714 0.0
C320 C 0.48739 0.56984 0.8892 0.0
C321 C 0.17349 0.35319 0.94128 0.0
C322 C 0.22699 0.36624 0.94294 0.0
O323 O 0.71511 0.71754 0.8119 0.0
O324 O 0.6999 0.72094 0.95571 0.0
O325 O 0.25626 0.41673 0.94397 0.0
O326 O 0.29482 0.46434 0.79466 0.0
H327 H 0.74782 0.67463 0.80913 0.0
H328 H 0.81436 0.73849 0.79813 0.0
H329 H 0.7902 0.77384 0.79878 0.0
H330 H 0.75729 0.71731 0.76699 0.0
H331 H 0.66486 0.75188 0.82555 0.0
H332 H 0.66993 0.62084 0.81662 0.0
H333 H 0.54077 0.69374 0.83735 0.0
H334 H 0.59812 0.75132 0.83876 0.0
H335 H 0.5783 0.71101 0.85618 0.0
H336 H 0.61415 0.54654 0.82819 0.0
H337 H 0.55359 0.53723 0.82497 0.0
H338 H 0.57979 0.54877 0.84588 0.0
H339 H 0.3416 0.46819 0.7762 0.0
H340 H 0.28618 0.46067 0.75263 0.0
H341 H 0.30214 0.51206 0.76687 0.0
H342 H 0.24215 0.4582 0.76755 0.0
H343 H 0.35437 0.43123 0.80217 0.0
H344 H 0.31109 0.53493 0.81566 0.0
H345 H 0.46499 0.48436 0.81832 0.0
H346 H 0.41253 0.42361 0.81879 0.0
H347 H 0.43767 0.46013 0.8381 0.0
H348 H 0.35567 0.5997 0.83558 0.0
H349 H 0.41946 0.6182 0.83856 0.0
H350 H 0.37539 0.57944 0.85334 0.0
H351 H 0.23498 0.35121 0.93134 0.0
H352 H 0.31922 0.38758 0.93486 0.0
H353 H 0.2952 0.50839 0.93926 0.0
H354 H 0.41282 0.43537 0.90686 0.0
H355 H 0.39188 0.39536 0.92438 0.0
H356 H 0.44536 0.45589 0.92674 0.0
H357 H 0.35256 0.58691 0.93039 0.0
H358 H 0.38583 0.58546 0.91223 0.0
H359 H 0.41533 0.60137 0.93267 0.0
H360 H 0.72088 0.78634 0.94475 0.0
H361 H 0.79567 0.79249 0.93214 0.0
H362 H 0.74145 0.73587 0.92573 0.0
H363 H 0.7825 0.73632 0.94173 0.0
H364 H 0.66401 0.62832 0.95022 0.0
H365 H 0.63858 0.7466 0.94309 0.0
H366 H 0.58221 0.54837 0.91872 0.0
H367 H 0.54802 0.53287 0.93768 0.0
H368 H 0.61151 0.54902 0.93842 0.0
H369 H 0.56659 0.73527 0.92988 0.0
H370 H 0.51486 0.67362 0.92775 0.0
H371 H 0.55631 0.699 0.91075 0.0
H372 H 0.49622 0.58375 0.82264 0.0
H373 H 0.36837 0.49312 0.86158 0.0
H374 H 0.36435 0.48726 0.89163 0.0
H375 H 0.48022 0.5639 0.93812 0.0
H376 H 0.60921 0.64838 0.89891 0.0
H377 H 0.6135 0.65276 0.86888 0.0
H378 H 0.14863 0.31303 0.93959 0.0
H379 H 0.16858 0.37057 0.93009 0.0
H380 H 0.16282 0.36643 0.95267 0.0
H381 H 0.98711 0.15845 0.06637 0.0
H382 H 0.11739 0.16857 0.08898 0.0
H383 H 0.13048 0.23908 0.10681 0.0
H384 H 0.03333 0.28269 0.06353 0.0
H385 H 0.97753 0.28153 0.06879 0.0
H386 H 0.97468 0.22819 0.05919 0.0
H387 H 0.92409 0.17653 0.08401 0.0
H388 H 0.92648 0.22973 0.09365 0.0
H389 H 0.94775 0.19603 0.10531 0.0
H390 H 0.13601 0.31468 0.11924 0.0
H391 H 0.13016 0.38709 0.12697 0.0
H392 H 0.99442 0.32648 0.09746 0.0
C393 C 0.01782 0.17486 0.07531 0.0
C394 C 0.05123 0.15796 0.07624 0.0
C395 C 0.09119 0.18073 0.08803 0.0
C396 C 0.09896 0.22083 0.09825 0.0
C397 C 0.06611 0.23738 0.0967 0.0
C398 C 0.02593 0.21475 0.08571 0.0
C399 C 0.99769 0.24141 0.08589 0.0
C400 C 0.99573 0.25953 0.0683 0.0
C401 C 0.94594 0.20899 0.09262 0.0
C402 C 0.02935 0.28355 0.0982 0.0
C403 C 0.06845 0.28035 0.10437 0.0
C404 C 0.10484 0.31699 0.11487 0.0
C405 C 0.10116 0.358 0.11921 0.0
C406 C 0.06095 0.36174 0.11322 0.0
C407 C 0.02471 0.32385 0.1026 0.0
H408 H 0.92367 0.03816 0.40609 0.0
H409 H 0.06306 0.14299 0.43042 0.0
H410 H 0.02012 0.16787 0.45051 0.0
H411 H 0.87443 0.11204 0.40689 0.0
H412 H 0.81235 0.06531 0.41103 0.0
H413 H 0.85244 0.04927 0.40045 0.0
H414 H 0.83773 0.98666 0.42313 0.0
H415 H 0.79704 0.00212 0.43373 0.0
H416 H 0.84859 0.00628 0.44508 0.0
H417 H 0.96417 0.18981 0.46512 0.0
H418 H 0.89827 0.20491 0.47395 0.0
H419 H 0.79517 0.08593 0.44027 0.0
C420 C 0.945 0.06521 0.41598 0.0
C421 C 0.99668 0.08849 0.41673 0.0
C422 C 0.02341 0.12458 0.42962 0.0
C423 C 0.99934 0.13888 0.44113 0.0
C424 C 0.94852 0.11653 0.43965 0.0
C425 C 0.92154 0.08007 0.42752 0.0
C426 C 0.8679 0.06519 0.42763 0.0
C427 C 0.85082 0.07348 0.41049 0.0
C428 C 0.83593 0.0119 0.4327 0.0
C429 C 0.86934 0.10033 0.44123 0.0
C430 C 0.91605 0.12916 0.44816 0.0
C431 C 0.9272 0.16673 0.46006 0.0
C432 C 0.88964 0.17513 0.46497 0.0
C433 C 0.84154 0.14607 0.45799 0.0
C434 C 0.8314 0.10802 0.44605 0.0
H435 H 0.86428 0.92576 0.75219 0.0
H436 H 0.9733 0.88373 0.74444 0.0
H437 H 0.91791 0.80353 0.75608 0.0
H438 H 0.81856 0.86776 0.79147 0.0
H439 H 0.75692 0.85329 0.78641 0.0
H440 H 0.80842 0.90632 0.7779 0.0
H441 H 0.77297 0.87511 0.74779 0.0
H442 H 0.72133 0.8216 0.75594 0.0
H443 H 0.75921 0.81518 0.74046 0.0
H444 H 0.84902 0.71228 0.76662 0.0
H445 H 0.76173 0.6333 0.78102 0.0
H446 H 0.68965 0.74714 0.7822 0.0
C447 C 0.87631 0.89957 0.75309 0.0
C448 C 0.92298 0.91085 0.74744 0.0
C449 C 0.93778 0.87597 0.74874 0.0
C450 C 0.90656 0.83027 0.75531 0.0
C451 C 0.86064 0.81978 0.76063 0.0
C452 C 0.84481 0.85377 0.7597 0.0
C453 C 0.79256 0.83674 0.76588 0.0
C454 C 0.79422 0.86787 0.78132 0.0
C455 C 0.7596 0.83719 0.75167 0.0
C456 C 0.77518 0.78551 0.77072 0.0
C457 C 0.82316 0.7748 0.76723 0.0
C458 C 0.81863 0.71709 0.76986 0.0
C459 C 0.7636 0.667 0.77781 0.0
C460 C 0.71931 0.68458 0.78597 0.0
C461 C 0.71791 0.73933 0.77863 0.0
H462 H 0.03521 0.88669 0.06504 0.0
H463 H 0.16659 0.01762 0.08398 0.0
H464 H 0.16315 0.97667 0.11029 0.0
H465 H 0.97344 0.86541 0.10069 0.0
H466 H 0.94229 0.79962 0.09941 0.0
H467 H 0.96177 0.83334 0.08051 0.0
H468 H 0.01153 0.79192 0.0725 0.0
H469 H 0.99158 0.75734 0.09133 0.0
H470 H 0.05611 0.79429 0.08734 0.0
H471 H 0.13653 0.92853 0.13625 0.0
H472 H 0.0897 0.87632 0.15958 0.0
H473 H 0.97448 0.77763 0.12405 0.0
C474 C 0.06453 0.90601 0.07439 0.0
C475 C 0.10145 0.95518 0.07241 0.0
C476 C 0.1382 0.97979 0.0852 0.0
C477 C 0.13659 0.95676 0.10017 0.0
C478 C 0.09812 0.90909 0.10211 0.0
C479 C 0.063 0.88376 0.08948 0.0
C480 C 0.02157 0.83589 0.09555 0.0
C481 C 0.97188 0.83349 0.09395 0.0
C482 C 0.02014 0.79228 0.08612 0.0
C483 C 0.0375 0.83945 0.11381 0.0
C484 C 0.08228 0.88138 0.11726 0.0
C485 C 0.10212 0.89494 0.13361 0.0
C486 C 0.07527 0.86522 0.14678 0.0
C487 C 0.02904 0.82258 0.14353 0.0
C488 C 0.01037 0.80934 0.12679 0.0
H489 H 0.23207 0.15464 0.41551 0.0
H490 H 0.24399 0.06198 0.37693 0.0
H491 H 0.28773 0.03976 0.39732 0.0
H492 H 0.35228 0.19114 0.43932 0.0
H493 H 0.32426 0.1891 0.45918 0.0
H494 H 0.30554 0.20737 0.44061 0.0
H495 H 0.21538 0.14015 0.4452 0.0
H496 H 0.2337 0.12122 0.46356 0.0
H497 H 0.20017 0.07751 0.44653 0.0
H498 H 0.31101 0.01246 0.42298 0.0
H499 H 0.31788 0.98716 0.45142 0.0
H500 H 0.29333 0.09894 0.47344 0.0
C501 C 0.24563 0.13124 0.41115 0.0
C502 C 0.23454 0.11002 0.39463 0.0
C503 C 0.25225 0.07894 0.38949 0.0
C504 C 0.27722 0.06612 0.401 0.0
C505 C 0.28497 0.08541 0.41749 0.0
C506 C 0.2706 0.11817 0.42247 0.0
C507 C 0.27751 0.12882 0.44134 0.0
C508 C 0.31728 0.18229 0.44534 0.0
C509 C 0.2288 0.11613 0.44963 0.0
C510 C 0.29469 0.09436 0.44634 0.0
C511 C 0.29971 0.07034 0.43238 0.0
C512 C 0.30905 0.0323 0.43397 0.0
C513 C 0.31283 0.01811 0.4502 0.0
C514 C 0.30762 0.04218 0.46465 0.0
C515 C 0.2992 0.08121 0.46261 0.0
H516 H 0.07295 0.18074 0.76383 0.0
H517 H 0.17604 0.13942 0.74552 0.0
H518 H 0.24489 0.22013 0.75492 0.0
H519 H 0.13456 0.29837 0.75006 0.0
H520 H 0.1218 0.32636 0.76784 0.0
H521 H 0.08048 0.26297 0.76215 0.0
H522 H 0.08969 0.23897 0.79227 0.0
H523 H 0.13085 0.30248 0.79813 0.0
H524 H 0.15 0.25859 0.8009 0.0
H525 H 0.30176 0.30798 0.76257 0.0
H526 H 0.34302 0.39689 0.76878 0.0
H527 H 0.20408 0.38161 0.78287 0.0
C528 C 0.11001 0.18818 0.76223 0.0
C529 C 0.11907 0.15368 0.75399 0.0
C530 C 0.16814 0.16521 0.75182 0.0
C531 C 0.20756 0.21093 0.75717 0.0
C532 C 0.19738 0.24465 0.76479 0.0
C533 C 0.14987 0.23376 0.76749 0.0
C534 C 0.149 0.27797 0.77468 0.0
C535 C 0.11974 0.29224 0.76298 0.0
C536 C 0.12868 0.26895 0.79256 0.0
C537 C 0.20325 0.31578 0.77499 0.0
C538 C 0.23053 0.29563 0.7694 0.0
C539 C 0.28095 0.32403 0.76728 0.0
C540 C 0.30404 0.37446 0.77079 0.0
C541 C 0.27676 0.39599 0.77638 0.0
C542 C 0.22585 0.36598 0.77878 0.0
H543 H 0.9327 0.01663 0.68314 0.0
H544 H 0.99327 0.16529 0.7028 0.0
H545 H 0.93165 0.17294 0.68604 0.0
H546 H 0.90635 0.0342 0.64094 0.0
H547 H 0.85271 0.97389 0.63904 0.0
H548 H 0.90346 0.98527 0.65268 0.0
H549 H 0.84542 0.95205 0.67772 0.0
H550 H 0.79418 0.94071 0.66439 0.0
H551 H 0.80877 0.97856 0.6834 0.0
H552 H 0.85247 0.17129 0.66921 0.0
H553 H 0.76758 0.14107 0.64695 0.0
H554 H 0.76184 0.97699 0.63664 0.0
C555 C 0.93282 0.05072 0.68383 0.0
C556 C 0.9674 0.0903 0.69426 0.0
C557 C 0.96707 0.13456 0.69484 0.0
C558 C 0.9322 0.13919 0.68539 0.0
C559 C 0.89823 0.09953 0.67526 0.0
C560 C 0.89819 0.05522 0.67425 0.0
C561 C 0.85848 0.014 0.66267 0.0
C562 C 0.88163 0.00109 0.64797 0.0
C563 C 0.82475 0.96868 0.67264 0.0
C564 C 0.83082 0.0369 0.65631 0.0
C565 C 0.85899 0.09632 0.66497 0.0
C566 C 0.83486 0.13593 0.66266 0.0
C567 C 0.78065 0.11649 0.6497 0.0
C568 C 0.76088 0.05859 0.63689 0.0
C569 C 0.77688 0.01226 0.64314 0.0
H570 H 0.95104 0.01154 0.99518 0.0
H571 H 0.95328 0.92334 0.03548 0.0
H572 H 0.88262 0.85038 0.02195 0.0
H573 H 0.81696 0.94723 0.9894 0.0
H574 H 0.81993 0.9526 0.96685 0.0
H575 H 0.86878 0.99861 0.98028 0.0
H576 H 0.93175 0.98529 0.96393 0.0
H577 H 0.88314 0.93915 0.95051 0.0
H578 H 0.92318 0.92481 0.96201 0.0
H579 H 0.81705 0.78574 0.00273 0.0
H580 H 0.75765 0.73481 0.97998 0.0
H581 H 0.79541 0.86514 0.95279 0.0
C582 C 0.93629 0.97703 0.00128 0.0
C583 C 0.95777 0.97323 0.01639 0.0
C584 C 0.93744 0.92728 0.02392 0.0
C585 C 0.89727 0.88555 0.01634 0.0
C586 C 0.8775 0.89041 0.00131 0.0
C587 C 0.89596 0.93503 0.99394 0.0
C588 C 0.86885 0.92997 0.97751 0.0
C589 C 0.84203 0.95882 0.97858 0.0
C590 C 0.90382 0.94573 0.96261 0.0
C591 C 0.83295 0.87541 0.97664 0.0
C592 C 0.83852 0.85326 0.99049 0.0
C593 C 0.81154 0.80276 0.992 0.0
C594 C 0.77778 0.77413 0.97903 0.0
C595 C 0.77077 0.79619 0.96486 0.0
C596 C 0.79901 0.8475 0.96371 0.0
H597 H 0.09119 0.98147 0.35698 0.0
H598 H 0.96267 0.97894 0.33628 0.0
H599 H 0.9363 0.89888 0.32201 0.0
H600 H 0.11381 0.92694 0.32017 0.0
H601 H 0.13363 0.89283 0.3323 0.0
H602 H 0.14243 0.95003 0.34073 0.0
H603 H 0.09498 0.90719 0.36733 0.0
H604 H 0.0861 0.8499 0.35901 0.0
H605 H 0.03391 0.85474 0.36496 0.0
H606 H 0.92248 0.81742 0.31094 0.0
H607 H 0.9236 0.74207 0.30327 0.0
H608 H 0.06236 0.79958 0.3306 0.0
C609 C 0.05747 0.96414 0.34945 0.0
C610 C 0.02887 0.98638 0.34779 0.0
C611 C 0.98519 0.96261 0.33772 0.0
C612 C 0.96991 0.91714 0.32957 0.0
C613 C 0.99895 0.89622 0.33152 0.0
C614 C 0.04194 0.91908 0.34114 0.0
C615 C 0.06658 0.88898 0.34123 0.0
C616 C 0.1171 0.91634 0.33312 0.0
C617 C 0.0706 0.87433 0.3592 0.0
C618 C 0.03041 0.84523 0.33032 0.0
C619 C 0.99166 0.85006 0.32482 0.0
C620 C 0.95297 0.81354 0.31498 0.0
C621 C 0.95399 0.771 0.31064 0.0
C622 C 0.99373 0.76563 0.31598 0.0
C623 C 0.03214 0.80322 0.32603 0.0
H624 H 0.20592 0.11058 0.68695 0.0
H625 H 0.09848 0.95534 0.68588 0.0
H626 H 0.1554 0.9387 0.66991 0.0
H627 H 0.25519 0.11355 0.64514 0.0
H628 H 0.31709 0.15757 0.65206 0.0
H629 H 0.26612 0.15737 0.66204 0.0
H630 H 0.29823 0.149 0.69115 0.0
H631 H 0.34914 0.14903 0.68127 0.0
H632 H 0.30888 0.0992 0.69417 0.0
H633 H 0.22619 0.93889 0.65542 0.0
H634 H 0.30577 0.95596 0.64406 0.0
H635 H 0.3667 0.11067 0.65543 0.0
C636 C 0.19397 0.07312 0.68314 0.0
C637 C 0.14768 0.03427 0.68759 0.0
C638 C 0.13378 0.9857 0.68258 0.0
C639 C 0.16579 0.9759 0.67347 0.0
C640 C 0.2115 0.01506 0.6695 0.0
C641 C 0.22553 0.06269 0.67418 0.0
C642 C 0.27764 0.09799 0.66927 0.0
C643 C 0.27907 0.13372 0.65636 0.0
C644 C 0.31038 0.1254 0.6849 0.0
C645 C 0.2911 0.06273 0.66136 0.0
C646 C 0.25235 0.0151 0.66143 0.0
C647 C 0.25665 0.97608 0.65518 0.0
C648 C 0.30187 0.98606 0.64878 0.0
C649 C 0.34216 0.03463 0.64878 0.0
C650 C 0.3364 0.07327 0.65511 0.0
H651 H 0.15753 0.14125 0.00062 0.0
H652 H 0.23071 0.24579 0.0425 0.0
H653 H 0.26245 0.31319 0.02288 0.0
H654 H 0.25398 0.21033 0.96897 0.0
H655 H 0.20864 0.19288 0.95224 0.0
H656 H 0.19736 0.15244 0.96925 0.0
H657 H 0.11615 0.1505 0.97525 0.0
H658 H 0.1273 0.19113 0.9584 0.0
H659 H 0.1174 0.20716 0.97937 0.0
H660 H 0.27452 0.36935 -0.00032 0.0
H661 H 0.27156 0.41002 0.97417 0.0
H662 H 0.19528 0.26969 0.94682 0.0
C663 C 0.18133 0.17821 0.0056 0.0
C664 C 0.19163 0.18817 0.0231 0.0
C665 C 0.22247 0.23713 0.02914 0.0
C666 C 0.24072 0.27575 0.01809 0.0
C667 C 0.22856 0.26481 0.00099 0.0
C668 C 0.2003 0.21719 0.99471 0.0
C669 C 0.18994 0.21555 0.97597 0.0
C670 C 0.21392 0.19137 0.96602 0.0
C671 C 0.13441 0.18956 0.97203 0.0
C672 C 0.21493 0.26966 0.97285 0.0
C673 C 0.23725 0.29747 0.98742 0.0
C674 C 0.25844 0.3481 0.98806 0.0
C675 C 0.25654 0.3709 0.97347 0.0
C676 C 0.23406 0.3431 0.95834 0.0
C677 C 0.21369 0.29191 0.95808 0.0
H678 H 0.15253 0.25326 0.35193 0.0
H679 H 0.99495 0.17978 0.35757 0.0
H680 H 0.9923 0.24484 0.3426 0.0
H681 H 0.17884 0.37566 0.35849 0.0
H682 H 0.22793 0.3997 0.34372 0.0
H683 H 0.21327 0.34556 0.35483 0.0
H684 H 0.20188 0.29839 0.32661 0.0
H685 H 0.21603 0.35185 0.31516 0.0
H686 H 0.15915 0.29536 0.31082 0.0
H687 H 0.99463 0.32116 0.32667 0.0
H688 H 0.02702 0.40622 0.30654 0.0
H689 H 0.20221 0.43335 0.31141 0.0
C690 C 0.11767 0.25116 0.34989 0.0
C691 C 0.07399 0.2116 0.35586 0.0
C692 C 0.02891 0.20978 0.35315 0.0
C693 C 0.02697 0.24657 0.34467 0.0
C694 C 0.07032 0.28523 0.339 0.0
C695 C 0.11596 0.28842 0.34143 0.0
C696 C 0.16097 0.33382 0.33443 0.0
C697 C 0.19739 0.36555 0.34871 0.0
C698 C 0.18597 0.31896 0.32096 0.0
C699 C 0.13836 0.36031 0.32667 0.0
C700 C 0.07564 0.32589 0.33 0.0
C701 C 0.03284 0.34337 0.3236 0.0
C702 C 0.05292 0.3973 0.31184 0.0
C703 C 0.11714 0.4245 0.30432 0.0
C704 C 0.16433 0.41508 0.31511 0.0
loop_
_geom_bond_atom_site_label_1
_geom_bond_atom_site_label_2
_geom_bond_distance
_geom_bond_site_symmetry_2
_ccdc_geom_bond_type
C0 O1 1.148 1_565 S
C0 O7 1.179 1_565 S
O1 C0 1.148 1_545 S
O2 Zn3 1.899 . S
O2 C10 1.284 . S
Zn3 O2 1.899 . S
Zn3 O4 2.032 1_455 S
Zn3 O7 2.086 . S
Zn3 O12 1.977 . S
O4 Zn3 2.032 1_655 S
O4 C8 1.278 . S
C5 O6 1.203 . S
C5 O12 1.267 . S
O6 C5 1.203 . S
O7 C0 1.179 1_545 S
O7 Zn3 2.086 . S
C8 O4 1.278 . S
C8 O9 1.211 . S
O9 C8 1.211 . S
C10 O2 1.284 . S
C10 O11 1.273 1_455 S
O11 C10 1.273 1_655 S
O12 Zn3 1.977 . S
O12 C5 1.267 . S
C13 O14 1.160 . S
C13 O20 1.185 . S
O14 C13 1.160 . S
O15 Zn16 1.899 . S
O15 C23 1.284 . S
Zn16 O15 1.899 . S
Zn16 O17 2.032 . S
Zn16 O20 2.086 . S
Zn16 O25 1.977 . S
O17 Zn16 2.032 . S
O17 C21 1.278 . S
C18 O19 1.203 . S
C18 O25 1.267 . S
O19 C18 1.203 . S
O20 C13 1.185 . S
O20 Zn16 2.086 . S
C21 O17 1.278 . S
C21 O22 1.211 . S
O22 C21 1.211 . S
C23 O15 1.284 . S
C23 O24 1.273 . S
O24 C23 1.273 . S
O25 Zn16 1.977 . S
O25 C18 1.267 . S
C26 O27 1.160 . S
C26 O33 1.185 . S
O27 C26 1.160 . S
O28 Zn29 1.899 1_655 S
O28 C36 1.284 . S
Zn29 O28 1.899 1_455 S
Zn29 O30 2.032 . S
Zn29 O33 2.086 . S
Zn29 O38 1.977 1_545 S
O30 Zn29 2.032 . S
O30 C34 1.278 . S
C31 O32 1.203 . S
C31 O38 1.267 1_655 S
O32 C31 1.203 . S
O33 C26 1.185 . S
O33 Zn29 2.086 . S
C34 O30 1.278 . S
C34 O35 1.211 . S
O35 C34 1.211 . S
C36 O28 1.284 . S
C36 O37 1.273 1_655 S
O37 C36 1.273 1_455 S
O38 Zn29 1.977 1_565 S
O38 C31 1.267 1_455 S
C39 C40 1.560 1_655 S
C39 H100 0.959 . S
C39 H101 0.959 . S
C39 H102 0.960 . S
C40 C39 1.560 1_455 S
C40 O95 1.426 1_455 S
C40 H99 0.980 . S
C41 C42 1.407 . S
C41 C46 1.418 1_455 S
C41 O95 1.334 1_455 S
C42 C41 1.407 . S
C42 C43 1.360 . S
C42 H103 0.929 . S
C43 C42 1.360 . S
C43 C44 1.401 . S
C43 C47 1.527 . S
C44 C43 1.401 . S
C44 C45 1.405 1_455 S
C44 C77 1.587 . S
C45 C44 1.405 1_655 S
C45 C46 1.332 . S
C45 C48 1.496 . S
C46 C41 1.418 1_655 S
C46 C45 1.332 . S
C46 H104 0.929 . S
C47 C43 1.527 . S
C47 H105 0.959 . S
C47 H106 0.961 . S
C47 H107 0.961 . S
C48 C45 1.496 . S
C48 H108 0.960 . S
C48 H109 0.960 . S
C48 H110 0.961 . S
C49 C50 1.517 . S
C49 H112 0.961 . S
C49 H113 0.960 . S
C49 H114 0.959 . S
C50 C49 1.517 . S
C50 O98 1.468 . S
C50 H111 0.980 . S
C51 C52 1.349 . S
C51 C56 1.367 . S
C51 O98 1.408 . S
C52 C51 1.349 . S
C52 C53 1.407 . S
C52 H115 0.930 . S
C53 C52 1.407 . S
C53 C54 1.449 . S
C53 C57 1.535 1_455 S
C54 C53 1.449 . S
C54 C55 1.384 . S
C54 C79 1.553 . S
C55 C54 1.384 . S
C55 C56 1.364 . S
C55 C58 1.450 . S
C56 C51 1.367 . S
C56 C55 1.364 . S
C56 H116 0.931 . S
C57 C53 1.535 1_655 S
C57 H117 0.959 . S
C57 H118 0.961 . S
C57 H119 0.959 . S
C58 C55 1.450 . S
C58 H120 0.960 . S
C58 H121 0.960 . S
C58 H122 0.960 . S
C59 C60 1.309 . S
C59 C64 1.304 . S
C59 O97 1.435 . S
C60 C59 1.309 . S
C60 C61 1.476 . S
C60 H124 0.923 1_455 S
C61 C60 1.476 . S
C61 C62 1.400 . S
C61 C65 1.567 1_455 S
C62 C61 1.400 . S
C62 C63 1.373 . S
C62 C84 1.432 . S
C63 C62 1.373 . S
C63 C64 1.339 . S
C63 C66 1.530 . S
C64 C59 1.304 . S
C64 C63 1.339 . S
C64 H125 0.930 . S
C65 C61 1.567 1_655 S
C65 H126 0.961 . S
C65 H127 0.960 . S
C65 H128 0.958 . S
C66 C63 1.530 . S
C66 H129 0.961 . S
C66 H130 0.960 . S
C66 H131 0.960 . S
C67 C68 1.530 1_655 S
C67 H133 0.963 . S
C67 H134 0.961 . S
C67 H135 0.959 . S
C68 C67 1.530 1_455 S
C68 O96 1.412 1_455 S
C68 H132 0.980 . S
C69 C70 1.288 . S
C69 C74 1.377 1_655 S
C69 O96 1.393 . S
C70 C69 1.288 . S
C70 C71 1.369 . S
C70 H136 0.932 . S
C71 C70 1.369 . S
C71 C72 1.398 1_655 S
C71 C75 1.527 . S
C72 C71 1.398 1_455 S
C72 C73 1.380 . S
C72 C86 1.497 . S
C73 C72 1.380 . S
C73 C74 1.383 . S
C73 C76 1.603 . S
C74 C69 1.377 1_455 S
C74 C73 1.383 . S
C74 H137 0.929 . S
C75 C71 1.527 . S
C75 H138 0.961 . S
C75 H139 0.959 . S
C75 H140 0.959 . S
C76 C73 1.603 . S
C76 H141 0.960 . S
C76 H142 0.962 . S
C76 H143 0.961 . S
C77 C44 1.587 . S
C77 C78 1.360 . S
C77 C90 1.412 . S
C78 C77 1.360 . S
C78 C79 1.365 . S
C78 H144 0.929 . S
C79 C54 1.553 . S
C79 C78 1.365 . S
C79 C80 1.404 . S
C80 C79 1.404 . S
C80 C81 1.395 . S
C80 C91 1.451 . S
C81 C80 1.395 . S
C81 C82 1.322 . S
C81 H145 0.930 . S
C82 C81 1.322 . S
C82 C83 1.459 . S
C82 H146 0.929 . S
C83 C82 1.459 . S
C83 C84 1.445 . S
C83 C92 1.395 . S
C84 C62 1.432 . S
C84 C83 1.445 . S
C84 C85 1.370 . S
C85 C84 1.370 . S
C85 C86 1.438 . S
C85 H147 0.930 . S
C86 C72 1.497 . S
C86 C85 1.438 . S
C86 C87 1.360 . S
C87 C86 1.360 . S
C87 C88 1.401 . S
C87 C92 1.446 . S
C88 C87 1.401 . S
C88 C89 1.347 . S
C88 H148 0.929 . S
C89 C88 1.347 . S
C89 C90 1.455 . S
C89 H149 0.930 . S
C90 C77 1.412 . S
C90 C89 1.455 . S
C90 C91 1.331 . S
C91 C80 1.451 . S
C91 C90 1.331 . S
C91 C92 1.497 . S
C92 C83 1.395 . S
C92 C87 1.446 . S
C92 C91 1.497 . S
C93 C94 1.582 . S
C93 H150 0.962 . S
C93 H151 0.959 . S
C93 H152 0.958 . S
C94 C93 1.582 . S
C94 O97 1.458 . S
C94 H123 0.980 . S
O95 C40 1.426 1_655 S
O95 C41 1.334 1_655 S
O96 C68 1.412 1_655 S
O96 C69 1.393 . S
O97 C59 1.435 . S
O97 C94 1.458 . S
O98 C50 1.468 . S
O98 C51 1.408 . S
H99 C40 0.980 . S
H100 C39 0.959 . S
H101 C39 0.959 . S
H102 C39 0.960 . S
H103 C42 0.929 . S
H104 C46 0.929 . S
H105 C47 0.959 . S
H106 C47 0.961 . S
H107 C47 0.961 . S
H108 C48 0.960 . S
H109 C48 0.960 . S
H110 C48 0.961 . S
H111 C50 0.980 . S
H112 C49 0.961 . S
H113 C49 0.960 . S
H114 C49 0.959 . S
H115 C52 0.930 . S
H116 C56 0.931 . S
H117 C57 0.959 . S
H118 C57 0.961 . S
H119 C57 0.959 . S
H120 C58 0.960 . S
H121 C58 0.960 . S
H122 C58 0.960 . S
H123 C94 0.980 . S
H124 C60 0.923 1_655 S
H125 C64 0.930 . S
H126 C65 0.961 . S
H127 C65 0.960 . S
H128 C65 0.958 . S
H129 C66 0.961 . S
H130 C66 0.960 . S
H131 C66 0.960 . S
H132 C68 0.980 . S
H133 C67 0.963 . S
H134 C67 0.961 . S
H135 C67 0.959 . S
H136 C70 0.932 . S
H137 C74 0.929 . S
H138 C75 0.961 . S
H139 C75 0.959 . S
H140 C75 0.959 . S
H141 C76 0.960 . S
H142 C76 0.962 . S
H143 C76 0.961 . S
H144 C78 0.929 . S
H145 C81 0.930 . S
H146 C82 0.929 . S
H147 C85 0.930 . S
H148 C88 0.929 . S
H149 C89 0.930 . S
H150 C93 0.962 . S
H151 C93 0.959 . S
H152 C93 0.958 . S
C153 C154 1.560 1_565 S
C153 H214 0.959 . S
C153 H215 0.959 . S
C153 H216 0.960 1_565 S
C154 C153 1.560 1_545 S
C154 O209 1.426 . S
C154 H213 0.980 . S
C155 C156 1.407 . S
C155 C160 1.418 1_545 S
C155 O209 1.334 . S
C156 C155 1.407 . S
C156 C157 1.360 . S
C156 H217 0.929 . S
C157 C156 1.360 . S
C157 C158 1.401 . S
C157 C161 1.527 . S
C158 C157 1.401 . S
C158 C159 1.405 . S
C158 C191 1.587 . S
C159 C158 1.405 . S
C159 C160 1.332 1_545 S
C159 C162 1.496 1_545 S
C160 C155 1.418 1_565 S
C160 C159 1.332 1_565 S
C160 H218 0.929 . S
C161 C157 1.527 . S
C161 H219 0.959 . S
C161 H220 0.961 . S
C161 H221 0.961 . S
C162 C159 1.496 1_565 S
C162 H222 0.960 . S
C162 H223 0.960 . S
C162 H224 0.961 . S
C163 C164 1.517 . S
C163 H226 0.961 . S
C163 H227 0.960 . S
C163 H228 0.959 . S
C164 C163 1.517 . S
C164 O212 1.468 . S
C164 H225 0.980 . S
C165 C166 1.349 . S
C165 C170 1.367 . S
C165 O212 1.408 . S
C166 C165 1.349 . S
C166 C167 1.407 . S
C166 H229 0.930 . S
C167 C166 1.407 . S
C167 C168 1.449 . S
C167 C171 1.535 . S
C168 C167 1.449 . S
C168 C169 1.384 . S
C168 C193 1.553 . S
C169 C168 1.384 . S
C169 C170 1.364 . S
C169 C172 1.450 . S
C170 C165 1.367 . S
C170 C169 1.364 . S
C170 H230 0.931 . S
C171 C167 1.535 . S
C171 H231 0.959 . S
C171 H232 0.961 1_545 S
C171 H233 0.959 1_545 S
C172 C169 1.450 . S
C172 H234 0.960 . S
C172 H235 0.960 . S
C172 H236 0.960 . S
C173 C174 1.309 . S
C173 C178 1.304 . S
C173 O211 1.435 . S
C174 C173 1.309 . S
C174 C175 1.476 . S
C174 H238 0.930 . S
C175 C174 1.476 . S
C175 C176 1.400 . S
C175 C179 1.567 . S
C176 C175 1.400 . S
C176 C177 1.373 . S
C176 C198 1.432 . S
C177 C176 1.373 . S
C177 C178 1.339 . S
C177 C180 1.530 . S
C178 C173 1.304 . S
C178 C177 1.339 . S
C178 H239 0.930 . S
C179 C175 1.567 . S
C179 H240 0.961 . S
C179 H241 0.960 1_545 S
C179 H242 0.958 1_545 S
C180 C177 1.530 . S
C180 H243 0.961 . S
C180 H244 0.960 . S
C180 H245 0.960 . S
C181 C182 1.530 . S
C181 H247 0.961 . S
C181 H248 0.961 . S
C181 H249 0.959 . S
C182 C181 1.530 . S
C182 O210 1.412 . S
C182 H246 0.980 . S
C183 C184 1.288 . S
C183 C188 1.377 . S
C183 O210 1.393 . S
C184 C183 1.288 . S
C184 C185 1.369 . S
C184 H250 0.932 1_545 S
C185 C184 1.369 . S
C185 C186 1.398 . S
C185 C189 1.527 1_545 S
C186 C185 1.398 . S
C186 C187 1.380 . S
C186 C200 1.497 . S
C187 C186 1.380 . S
C187 C188 1.383 . S
C187 C190 1.603 . S
C188 C183 1.377 . S
C188 C187 1.383 . S
C188 H251 0.929 . S
C189 C185 1.527 1_565 S
C189 H252 0.961 . S
C189 H253 0.959 . S
C189 H254 0.959 . S
C190 C187 1.603 . S
C190 H255 0.960 . S
C190 H256 0.962 . S
C190 H257 0.961 . S
C191 C158 1.587 . S
C191 C192 1.360 . S
C191 C204 1.412 . S
C192 C191 1.360 . S
C192 C193 1.365 . S
C192 H258 0.929 . S
C193 C168 1.553 . S
C193 C192 1.365 . S
C193 C194 1.404 . S
C194 C193 1.404 . S
C194 C195 1.395 . S
C194 C205 1.451 . S
C195 C194 1.395 . S
C195 C196 1.322 . S
C195 H259 0.930 . S
C196 C195 1.322 . S
C196 C197 1.459 . S
C196 H260 0.929 . S
C197 C196 1.459 . S
C197 C198 1.445 . S
C197 C206 1.395 . S
C198 C176 1.432 . S
C198 C197 1.445 . S
C198 C199 1.370 . S
C199 C198 1.370 . S
C199 C200 1.438 . S
C199 H261 0.930 . S
C200 C186 1.497 . S
C200 C199 1.438 . S
C200 C201 1.360 . S
C201 C200 1.360 . S
C201 C202 1.401 . S
C201 C206 1.446 . S
C202 C201 1.401 . S
C202 C203 1.347 . S
C202 H262 0.929 . S
C203 C202 1.347 . S
C203 C204 1.455 . S
C203 H263 0.930 . S
C204 C191 1.412 . S
C204 C203 1.455 . S
C204 C205 1.331 . S
C205 C194 1.451 . S
C205 C204 1.331 . S
C205 C206 1.497 . S
C206 C197 1.395 . S
C206 C201 1.446 . S
C206 C205 1.497 . S
C207 C208 1.582 . S
C207 H264 0.962 . S
C207 H265 0.959 . S
C207 H266 0.958 . S
C208 C207 1.582 . S
C208 O211 1.458 . S
C208 H237 0.980 . S
O209 C154 1.426 . S
O209 C155 1.334 . S
O210 C182 1.412 . S
O210 C183 1.393 . S
O211 C173 1.435 . S
O211 C208 1.458 . S
O212 C164 1.468 . S
O212 C165 1.408 . S
H213 C154 0.980 . S
H214 C153 0.959 . S
H215 C153 0.959 . S
H216 C153 0.960 1_545 S
H217 C156 0.929 . S
H218 C160 0.929 . S
H219 C161 0.959 . S
H220 C161 0.961 . S
H221 C161 0.961 . S
H222 C162 0.960 . S
H223 C162 0.960 . S
H224 C162 0.961 . S
H225 C164 0.980 . S
H226 C163 0.961 . S
H227 C163 0.960 . S
H228 C163 0.959 . S
H229 C166 0.930 . S
H230 C170 0.931 . S
H231 C171 0.959 . S
H232 C171 0.961 1_565 S
H233 C171 0.959 1_565 S
H234 C172 0.960 . S
H235 C172 0.960 . S
H236 C172 0.960 . S
H237 C208 0.980 . S
H238 C174 0.930 . S
H239 C178 0.930 . S
H240 C179 0.961 . S
H241 C179 0.960 1_565 S
H242 C179 0.958 1_565 S
H243 C180 0.961 . S
H244 C180 0.960 . S
H245 C180 0.960 . S
H246 C182 0.980 . S
H247 C181 0.961 . S
H248 C181 0.961 . S
H249 C181 0.959 . S
H250 C184 0.932 1_565 S
H251 C188 0.929 . S
H252 C189 0.961 . S
H253 C189 0.959 . S
H254 C189 0.959 . S
H255 C190 0.960 . S
H256 C190 0.962 . S
H257 C190 0.961 . S
H258 C192 0.929 . S
H259 C195 0.930 . S
H260 C196 0.929 . S
H261 C199 0.930 . S
H262 C202 0.929 . S
H263 C203 0.930 . S
H264 C207 0.962 . S
H265 C207 0.959 . S
H266 C207 0.958 . S
C267 C268 1.560 . S
C267 H328 0.959 . S
C267 H329 0.959 . S
C267 H330 0.960 . S
C268 C267 1.560 . S
C268 O323 1.426 . S
C268 H327 0.980 . S
C269 C270 1.407 . S
C269 C274 1.418 . S
C269 O323 1.334 . S
C270 C269 1.407 . S
C270 C271 1.360 . S
C270 H331 0.929 . S
C271 C270 1.360 . S
C271 C272 1.401 . S
C271 C275 1.527 . S
C272 C271 1.401 . S
C272 C273 1.405 . S
C272 C305 1.587 . S
C273 C272 1.405 . S
C273 C274 1.332 . S
C273 C276 1.496 . S
C274 C269 1.418 . S
C274 C273 1.332 . S
C274 H332 0.929 . S
C275 C271 1.527 . S
C275 H333 0.959 . S
C275 H334 0.961 . S
C275 H335 0.961 . S
C276 C273 1.496 . S
C276 H336 0.960 . S
C276 H337 0.960 . S
C276 H338 0.961 . S
C277 C278 1.517 . S
C277 H340 0.961 . S
C277 H341 0.960 . S
C277 H342 0.959 . S
C278 C277 1.517 . S
C278 O326 1.468 . S
C278 H339 0.980 . S
C279 C280 1.349 . S
C279 C284 1.367 . S
C279 O326 1.408 . S
C280 C279 1.349 . S
C280 C281 1.407 . S
C280 H343 0.930 . S
C281 C280 1.407 . S
C281 C282 1.449 . S
C281 C285 1.535 . S
C282 C281 1.449 . S
C282 C283 1.384 . S
C282 C307 1.553 . S
C283 C282 1.384 . S
C283 C284 1.364 . S
C283 C286 1.450 . S
C284 C279 1.367 . S
C284 C283 1.364 . S
C284 H344 0.931 . S
C285 C281 1.535 . S
C285 H345 0.959 . S
C285 H346 0.961 . S
C285 H347 0.959 . S
C286 C283 1.450 . S
C286 H348 0.960 . S
C286 H349 0.960 . S
C286 H350 0.960 . S
C287 C288 1.309 . S
C287 C292 1.304 . S
C287 O325 1.435 . S
C288 C287 1.309 . S
C288 C289 1.476 . S
C288 H352 0.930 . S
C289 C288 1.476 . S
C289 C290 1.400 . S
C289 C293 1.567 . S
C290 C289 1.400 . S
C290 C291 1.373 . S
C290 C312 1.432 . S
C291 C290 1.373 . S
C291 C292 1.339 . S
C291 C294 1.530 . S
C292 C287 1.304 . S
C292 C291 1.339 . S
C292 H353 0.930 . S
C293 C289 1.567 . S
C293 H354 0.961 . S
C293 H355 0.960 . S
C293 H356 0.958 . S
C294 C291 1.530 . S
C294 H357 0.961 . S
C294 H358 0.960 . S
C294 H359 0.960 . S
C295 C296 1.530 . S
C295 H361 0.961 . S
C295 H362 0.961 . S
C295 H363 0.959 . S
C296 C295 1.530 . S
C296 O324 1.412 . S
C296 H360 0.980 . S
C297 C298 1.288 . S
C297 C302 1.377 . S
C297 O324 1.393 . S
C298 C297 1.288 . S
C298 C299 1.369 . S
C298 H364 0.932 . S
C299 C298 1.369 . S
C299 C300 1.398 . S
C299 C303 1.527 . S
C300 C299 1.398 . S
C300 C301 1.380 . S
C300 C314 1.497 . S
C301 C300 1.380 . S
C301 C302 1.383 . S
C301 C304 1.603 . S
C302 C297 1.377 . S
C302 C301 1.383 . S
C302 H365 0.929 . S
C303 C299 1.527 . S
C303 H366 0.961 . S
C303 H367 0.959 . S
C303 H368 0.959 . S
C304 C301 1.603 . S
C304 H369 0.960 . S
C304 H370 0.962 . S
C304 H371 0.961 . S
C305 C272 1.587 . S
C305 C306 1.360 . S
C305 C318 1.412 . S
C306 C305 1.360 . S
C306 C307 1.365 . S
C306 H372 0.929 . S
C307 C282 1.553 . S
C307 C306 1.365 . S
C307 C308 1.404 . S
C308 C307 1.404 . S
C308 C309 1.395 . S
C308 C319 1.451 . S
C309 C308 1.395 . S
C309 C310 1.322 . S
C309 H373 0.930 . S
C310 C309 1.322 . S
C310 C311 1.459 . S
C310 H374 0.929 . S
C311 C310 1.459 . S
C311 C312 1.445 . S
C311 C320 1.395 . S
C312 C290 1.432 . S
C312 C311 1.445 . S
C312 C313 1.370 . S
C313 C312 1.370 . S
C313 C314 1.438 . S
C313 H375 0.930 . S
C314 C300 1.497 . S
C314 C313 1.438 . S
C314 C315 1.360 . S
C315 C314 1.360 . S
C315 C316 1.401 . S
C315 C320 1.446 . S
C316 C315 1.401 . S
C316 C317 1.347 . S
C316 H376 0.929 . S
C317 C316 1.347 . S
C317 C318 1.455 . S
C317 H377 0.930 . S
C318 C305 1.412 . S
C318 C317 1.455 . S
C318 C319 1.331 . S
C319 C308 1.451 . S
C319 C318 1.331 . S
C319 C320 1.497 . S
C320 C311 1.395 . S
C320 C315 1.446 . S
C320 C319 1.497 . S
C321 C322 1.582 . S
C321 H378 0.962 . S
C321 H379 0.959 . S
C321 H380 0.958 . S
C322 C321 1.582 . S
C322 O325 1.458 . S
C322 H351 0.980 . S
O323 C268 1.426 . S
O323 C269 1.334 . S
O324 C296 1.412 . S
O324 C297 1.393 . S
O325 C287 1.435 . S
O325 C322 1.458 . S
O326 C278 1.468 . S
O326 C279 1.408 . S
H327 C268 0.980 . S
H328 C267 0.959 . S
H329 C267 0.959 . S
H330 C267 0.960 . S
H331 C270 0.929 . S
H332 C274 0.929 . S
H333 C275 0.959 . S
H334 C275 0.961 . S
H335 C275 0.961 . S
H336 C276 0.960 . S
H337 C276 0.960 . S
H338 C276 0.961 . S
H339 C278 0.980 . S
H340 C277 0.961 . S
H341 C277 0.960 . S
H342 C277 0.959 . S
H343 C280 0.930 . S
H344 C284 0.931 . S
H345 C285 0.959 . S
H346 C285 0.961 . S
H347 C285 0.959 . S
H348 C286 0.960 . S
H349 C286 0.960 . S
H350 C286 0.960 . S
H351 C322 0.980 . S
H352 C288 0.930 . S
H353 C292 0.930 . S
H354 C293 0.961 . S
H355 C293 0.960 . S
H356 C293 0.958 . S
H357 C294 0.961 . S
H358 C294 0.960 . S
H359 C294 0.960 . S
H360 C296 0.980 . S
H361 C295 0.961 . S
H362 C295 0.961 . S
H363 C295 0.959 . S
H364 C298 0.932 . S
H365 C302 0.929 . S
H366 C303 0.961 . S
H367 C303 0.959 . S
H368 C303 0.959 . S
H369 C304 0.960 . S
H370 C304 0.962 . S
H371 C304 0.961 . S
H372 C306 0.929 . S
H373 C309 0.930 . S
H374 C310 0.929 . S
H375 C313 0.930 . S
H376 C316 0.929 . S
H377 C317 0.930 . S
H378 C321 0.962 . S
H379 C321 0.959 . S
H380 C321 0.958 . S
H381 C393 0.930 . S
H382 C395 0.930 . S
H383 C396 0.930 . S
H384 C400 0.959 . S
H385 C400 0.959 . S
H386 C400 0.961 . S
H387 C401 0.960 . S
H388 C401 0.961 . S
H389 C401 0.959 . S
H390 C404 0.929 . S
H391 C405 0.931 . S
H392 C407 0.930 . S
C393 H381 0.930 . S
C393 C394 1.399 1_655 S
C393 C398 1.399 . S
C394 C393 1.399 1_455 S
C394 C395 1.376 . S
C395 H382 0.930 . S
C395 C394 1.376 . S
C395 C396 1.388 . S
C396 H383 0.930 . S
C396 C395 1.388 . S
C396 C397 1.390 . S
C397 C396 1.390 . S
C397 C398 1.394 1_455 S
C397 C403 1.465 . S
C398 C393 1.399 . S
C398 C397 1.394 1_655 S
C398 C399 1.516 . S
C399 C398 1.516 . S
C399 C400 1.502 . S
C399 C401 1.561 . S
C399 C402 1.526 . S
C400 H384 0.959 . S
C400 H385 0.959 . S
C400 H386 0.961 . S
C400 C399 1.502 . S
C401 H387 0.960 . S
C401 H388 0.961 . S
C401 H389 0.959 . S
C401 C399 1.561 . S
C402 C399 1.526 . S
C402 C403 1.396 1_655 S
C402 C407 1.390 . S
C403 C397 1.465 . S
C403 C402 1.396 1_455 S
C403 C404 1.399 . S
C404 H390 0.929 . S
C404 C403 1.399 . S
C404 C405 1.385 . S
C405 H391 0.931 . S
C405 C404 1.385 . S
C405 C406 1.389 . S
C406 C405 1.389 . S
C406 C407 1.387 1_455 S
C407 H392 0.930 . S
C407 C402 1.390 . S
C407 C406 1.387 1_655 S
H408 C420 0.930 . S
H409 C422 0.930 1_455 S
H410 C423 0.930 . S
H411 C427 0.959 . S
H412 C427 0.959 1_565 S
H413 C427 0.961 1_565 S
H414 C428 0.960 . S
H415 C428 0.961 . S
H416 C428 0.959 . S
H417 C431 0.929 . S
H418 C432 0.931 . S
H419 C434 0.930 . S
C420 H408 0.930 . S
C420 C421 1.399 . S
C420 C425 1.399 . S
C421 C420 1.399 . S
C421 C422 1.376 . S
C422 H409 0.930 1_655 S
C422 C421 1.376 . S
C422 C423 1.388 . S
C423 H410 0.930 . S
C423 C422 1.388 . S
C423 C424 1.390 . S
C424 C423 1.390 . S
C424 C425 1.394 . S
C424 C430 1.465 . S
C425 C420 1.399 . S
C425 C424 1.394 . S
C425 C426 1.516 . S
C426 C425 1.516 . S
C426 C427 1.502 . S
C426 C428 1.561 1_545 S
C426 C429 1.526 . S
C427 H411 0.959 . S
C427 H412 0.959 1_545 S
C427 H413 0.961 1_545 S
C427 C426 1.502 . S
C428 H414 0.960 . S
C428 H415 0.961 . S
C428 H416 0.959 . S
C428 C426 1.561 1_565 S
C429 C426 1.526 . S
C429 C430 1.396 . S
C429 C434 1.390 . S
C430 C424 1.465 . S
C430 C429 1.396 . S
C430 C431 1.399 . S
C431 H417 0.929 . S
C431 C430 1.399 . S
C431 C432 1.385 . S
C432 H418 0.931 . S
C432 C431 1.385 . S
C432 C433 1.389 . S
C433 C432 1.389 . S
C433 C434 1.387 . S
C434 H419 0.930 . S
C434 C429 1.390 . S
C434 C433 1.387 . S
H435 C447 0.930 . S
H436 C449 0.930 . S
H437 C450 0.930 . S
H438 C454 0.959 . S
H439 C454 0.959 . S
H440 C454 0.961 . S
H441 C455 0.960 . S
H442 C455 0.961 . S
H443 C455 0.959 . S
H444 C458 0.929 . S
H445 C459 0.931 . S
H446 C461 0.930 . S
C447 H435 0.930 . S
C447 C448 1.399 . S
C447 C452 1.399 . S
C448 C447 1.399 . S
C448 C449 1.376 . S
C449 H436 0.930 . S
C449 C448 1.376 . S
C449 C450 1.388 . S
C450 H437 0.930 . S
C450 C449 1.388 . S
C450 C451 1.390 . S
C451 C450 1.390 . S
C451 C452 1.394 . S
C451 C457 1.465 . S
C452 C447 1.399 . S
C452 C451 1.394 . S
C452 C453 1.516 . S
C453 C452 1.516 . S
C453 C454 1.502 . S
C453 C455 1.561 . S
C453 C456 1.526 . S
C454 H438 0.959 . S
C454 H439 0.959 . S
C454 H440 0.961 . S
C454 C453 1.502 . S
C455 H441 0.960 . S
C455 H442 0.961 . S
C455 H443 0.959 . S
C455 C453 1.561 . S
C456 C453 1.526 . S
C456 C457 1.396 . S
C456 C461 1.390 . S
C457 C451 1.465 . S
C457 C456 1.396 . S
C457 C458 1.399 . S
C458 H444 0.929 . S
C458 C457 1.399 . S
C458 C459 1.385 . S
C459 H445 0.931 . S
C459 C458 1.385 . S
C459 C460 1.389 . S
C460 C459 1.389 . S
C460 C461 1.387 . S
C461 H446 0.930 . S
C461 C456 1.390 . S
C461 C460 1.387 . S
H462 C474 0.930 . S
H463 C476 0.930 1_545 S
H464 C477 0.930 . S
H465 C481 0.959 . S
H466 C481 0.959 . S
H467 C481 0.961 . S
H468 C482 0.962 . S
H469 C482 0.961 1_655 S
H470 C482 0.959 . S
H471 C485 0.929 . S
H472 C486 0.931 . S
H473 C488 0.930 1_655 S
C474 H462 0.930 . S
C474 C475 1.399 . S
C474 C479 1.399 . S
C475 C474 1.399 . S
C475 C476 1.376 . S
C476 H463 0.930 1_565 S
C476 C475 1.376 . S
C476 C477 1.388 . S
C477 H464 0.930 . S
C477 C476 1.388 . S
C477 C478 1.390 . S
C478 C477 1.390 . S
C478 C479 1.394 . S
C478 C484 1.465 . S
C479 C474 1.399 . S
C479 C478 1.394 . S
C479 C480 1.516 . S
C480 C479 1.516 . S
C480 C481 1.502 1_455 S
C480 C482 1.561 . S
C480 C483 1.526 . S
C481 H465 0.959 . S
C481 H466 0.959 . S
C481 H467 0.961 . S
C481 C480 1.502 1_655 S
C482 H468 0.962 . S
C482 H469 0.961 1_455 S
C482 H470 0.959 . S
C482 C480 1.561 . S
C483 C480 1.526 . S
C483 C484 1.396 . S
C483 C488 1.390 . S
C484 C478 1.465 . S
C484 C483 1.396 . S
C484 C485 1.399 . S
C485 H471 0.929 . S
C485 C484 1.399 . S
C485 C486 1.385 . S
C486 H472 0.931 . S
C486 C485 1.385 . S
C486 C487 1.389 . S
C487 C486 1.389 . S
C487 C488 1.387 . S
C488 H473 0.930 1_455 S
C488 C483 1.390 . S
C488 C487 1.387 . S
H489 C501 0.930 . S
H490 C503 0.930 . S
H491 C504 0.930 . S
H492 C508 0.959 . S
H493 C508 0.959 . S
H494 C508 0.961 . S
H495 C509 0.960 . S
H496 C509 0.961 . S
H497 C509 0.959 . S
H498 C512 0.929 . S
H499 C513 0.931 . S
H500 C515 0.930 . S
C501 H489 0.930 . S
C501 C502 1.399 . S
C501 C506 1.399 . S
C502 C501 1.399 . S
C502 C503 1.376 . S
C503 H490 0.930 . S
C503 C502 1.376 . S
C503 C504 1.388 . S
C504 H491 0.930 . S
C504 C503 1.388 . S
C504 C505 1.390 . S
C505 C504 1.390 . S
C505 C506 1.394 . S
C505 C511 1.465 . S
C506 C501 1.399 . S
C506 C505 1.394 . S
C506 C507 1.516 . S
C507 C506 1.516 . S
C507 C508 1.502 . S
C507 C509 1.561 . S
C507 C510 1.526 . S
C508 H492 0.959 . S
C508 H493 0.959 . S
C508 H494 0.961 . S
C508 C507 1.502 . S
C509 H495 0.960 . S
C509 H496 0.961 . S
C509 H497 0.959 . S
C509 C507 1.561 . S
C510 C507 1.526 . S
C510 C511 1.396 . S
C510 C515 1.390 . S
C511 C505 1.465 . S
C511 C510 1.396 . S
C511 C512 1.399 . S
C512 H498 0.929 . S
C512 C511 1.399 . S
C512 C513 1.385 . S
C513 H499 0.931 . S
C513 C512 1.385 . S
C513 C514 1.389 . S
C514 C513 1.389 . S
C514 C515 1.387 . S
C515 H500 0.930 . S
C515 C510 1.390 . S
C515 C514 1.387 . S
H516 C528 0.930 . S
H517 C530 0.930 . S
H518 C531 0.930 . S
H519 C535 0.959 . S
H520 C535 0.959 . S
H521 C535 0.961 . S
H522 C536 0.960 . S
H523 C536 0.961 . S
H524 C536 0.959 . S
H525 C539 0.929 . S
H526 C540 0.931 . S
H527 C542 0.930 . S
C528 H516 0.930 . S
C528 C529 1.399 . S
C528 C533 1.399 . S
C529 C528 1.399 . S
C529 C530 1.376 . S
C530 H517 0.930 . S
C530 C529 1.376 . S
C530 C531 1.388 . S
C531 H518 0.930 . S
C531 C530 1.388 . S
C531 C532 1.390 . S
C532 C531 1.390 . S
C532 C533 1.394 . S
C532 C538 1.465 . S
C533 C528 1.399 . S
C533 C532 1.394 . S
C533 C534 1.516 . S
C534 C533 1.516 . S
C534 C535 1.502 . S
C534 C536 1.561 . S
C534 C537 1.526 . S
C535 H519 0.959 . S
C535 H520 0.959 . S
C535 H521 0.961 . S
C535 C534 1.502 . S
C536 H522 0.960 . S
C536 H523 0.961 . S
C536 H524 0.959 . S
C536 C534 1.561 . S
C537 C534 1.526 . S
C537 C538 1.396 . S
C537 C542 1.390 . S
C538 C532 1.465 . S
C538 C537 1.396 . S
C538 C539 1.399 . S
C539 H525 0.929 . S
C539 C538 1.399 . S
C539 C540 1.385 . S
C540 H526 0.931 . S
C540 C539 1.385 . S
C540 C541 1.389 . S
C541 C540 1.389 . S
C541 C542 1.387 . S
C542 H527 0.930 . S
C542 C537 1.390 . S
C542 C541 1.387 . S
H543 C555 0.930 . S
H544 C557 0.930 . S
H545 C558 0.930 . S
H546 C562 0.959 1_545 S
H547 C562 0.959 . S
H548 C562 0.961 . S
H549 C563 0.960 . S
H550 C563 0.961 . S
H551 C563 0.959 . S
H552 C566 0.929 . S
H553 C567 0.931 . S
H554 C569 0.930 . S
C555 H543 0.930 . S
C555 C556 1.399 . S
C555 C560 1.399 . S
C556 C555 1.399 . S
C556 C557 1.376 . S
C557 H544 0.930 . S
C557 C556 1.376 . S
C557 C558 1.388 . S
C558 H545 0.930 . S
C558 C557 1.388 . S
C558 C559 1.390 . S
C559 C558 1.390 . S
C559 C560 1.394 . S
C559 C565 1.465 . S
C560 C555 1.399 . S
C560 C559 1.394 . S
C560 C561 1.516 . S
C561 C560 1.516 . S
C561 C562 1.502 1_545 S
C561 C563 1.561 1_545 S
C561 C564 1.526 . S
C562 H546 0.959 1_565 S
C562 H547 0.959 . S
C562 H548 0.961 . S
C562 C561 1.502 1_565 S
C563 H549 0.960 . S
C563 H550 0.961 . S
C563 H551 0.959 . S
C563 C561 1.561 1_565 S
C564 C561 1.526 . S
C564 C565 1.396 . S
C564 C569 1.390 . S
C565 C559 1.465 . S
C565 C564 1.396 . S
C565 C566 1.399 . S
C566 H552 0.929 . S
C566 C565 1.399 . S
C566 C567 1.385 . S
C567 H553 0.931 . S
C567 C566 1.385 . S
C567 C568 1.389 . S
C568 C567 1.389 . S
C568 C569 1.387 . S
C569 H554 0.930 . S
C569 C564 1.390 . S
C569 C568 1.387 . S
H570 C582 0.930 1_545 S
H571 C584 0.930 . S
H572 C585 0.930 . S
H573 C589 0.959 . S
H574 C589 0.959 . S
H575 C589 0.961 . S
H576 C590 0.960 . S
H577 C590 0.961 . S
H578 C590 0.959 . S
H579 C593 0.929 . S
H580 C594 0.931 . S
H581 C596 0.930 . S
C582 H570 0.930 1_565 S
C582 C583 1.399 . S
C582 C587 1.399 1_554 S
C583 C582 1.399 . S
C583 C584 1.376 . S
C584 H571 0.930 . S
C584 C583 1.376 . S
C584 C585 1.388 . S
C585 H572 0.930 . S
C585 C584 1.388 . S
C585 C586 1.390 . S
C586 C585 1.390 . S
C586 C587 1.394 1_554 S
C586 C592 1.465 1_554 S
C587 C582 1.399 1_556 S
C587 C586 1.394 1_556 S
C587 C588 1.516 . S
C588 C587 1.516 . S
C588 C589 1.502 . S
C588 C590 1.561 . S
C588 C591 1.526 . S
C589 H573 0.959 . S
C589 H574 0.959 . S
C589 H575 0.961 . S
C589 C588 1.502 . S
C590 H576 0.960 . S
C590 H577 0.961 . S
C590 H578 0.959 . S
C590 C588 1.561 . S
C591 C588 1.526 . S
C591 C592 1.396 . S
C591 C596 1.390 . S
C592 C586 1.465 1_556 S
C592 C591 1.396 . S
C592 C593 1.399 . S
C593 H579 0.929 . S
C593 C592 1.399 . S
C593 C594 1.385 . S
C594 H580 0.931 . S
C594 C593 1.385 . S
C594 C595 1.389 . S
C595 C594 1.389 . S
C595 C596 1.387 . S
C596 H581 0.930 . S
C596 C591 1.390 . S
C596 C595 1.387 . S
H597 C609 0.930 . S
H598 C611 0.930 . S
H599 C612 0.930 . S
H600 C616 0.959 . S
H601 C616 0.959 . S
H602 C616 0.961 . S
H603 C617 0.960 . S
H604 C617 0.961 . S
H605 C617 0.959 . S
H606 C620 0.929 . S
H607 C621 0.931 . S
H608 C623 0.930 . S
C609 H597 0.930 . S
C609 C610 1.399 . S
C609 C614 1.399 . S
C610 C609 1.399 . S
C610 C611 1.376 1_455 S
C611 H598 0.930 . S
C611 C610 1.376 1_655 S
C611 C612 1.388 . S
C612 H599 0.930 . S
C612 C611 1.388 . S
C612 C613 1.390 1_655 S
C613 C612 1.390 1_455 S
C613 C614 1.394 . S
C613 C619 1.465 . S
C614 C609 1.399 . S
C614 C613 1.394 . S
C614 C615 1.516 . S
C615 C614 1.516 . S
C615 C616 1.502 . S
C615 C617 1.561 . S
C615 C618 1.526 . S
C616 H600 0.959 . S
C616 H601 0.959 . S
C616 H602 0.961 . S
C616 C615 1.502 . S
C617 H603 0.960 . S
C617 H604 0.961 . S
C617 H605 0.959 . S
C617 C615 1.561 . S
C618 C615 1.526 . S
C618 C619 1.396 . S
C618 C623 1.390 . S
C619 C613 1.465 . S
C619 C618 1.396 . S
C619 C620 1.399 1_455 S
C620 H606 0.929 . S
C620 C619 1.399 1_655 S
C620 C621 1.385 . S
C621 H607 0.931 . S
C621 C620 1.385 . S
C621 C622 1.389 1_655 S
C622 C621 1.389 1_455 S
C622 C623 1.387 . S
C623 H608 0.930 . S
C623 C618 1.390 . S
C623 C622 1.387 . S
H624 C636 0.930 . S
H625 C638 0.930 . S
H626 C639 0.930 . S
H627 C643 0.959 . S
H628 C643 0.959 . S
H629 C643 0.961 . S
H630 C644 0.960 . S
H631 C644 0.961 . S
H632 C644 0.959 . S
H633 C647 0.929 . S
H634 C648 0.931 . S
H635 C650 0.930 . S
C636 H624 0.930 . S
C636 C637 1.399 . S
C636 C641 1.399 . S
C637 C636 1.399 . S
C637 C638 1.376 1_545 S
C638 H625 0.930 . S
C638 C637 1.376 1_565 S
C638 C639 1.388 . S
C639 H626 0.930 . S
C639 C638 1.388 . S
C639 C640 1.390 1_565 S
C640 C639 1.390 1_545 S
C640 C641 1.394 . S
C640 C646 1.465 . S
C641 C636 1.399 . S
C641 C640 1.394 . S
C641 C642 1.516 . S
C642 C641 1.516 . S
C642 C643 1.502 . S
C642 C644 1.561 . S
C642 C645 1.526 . S
C643 H627 0.959 . S
C643 H628 0.959 . S
C643 H629 0.961 . S
C643 C642 1.502 . S
C644 H630 0.960 . S
C644 H631 0.961 . S
C644 H632 0.959 . S
C644 C642 1.561 . S
C645 C642 1.526 . S
C645 C646 1.396 . S
C645 C650 1.390 . S
C646 C640 1.465 . S
C646 C645 1.396 . S
C646 C647 1.399 1_545 S
C647 H633 0.929 . S
C647 C646 1.399 1_565 S
C647 C648 1.385 . S
C648 H634 0.931 . S
C648 C647 1.385 . S
C648 C649 1.389 1_565 S
C649 C648 1.389 1_545 S
C649 C650 1.387 . S
C650 H635 0.930 . S
C650 C645 1.390 . S
C650 C649 1.387 . S
H651 C663 0.959 . S
H652 C665 0.930 . S
H653 C666 0.930 . S
H654 C670 0.959 . S
H655 C670 0.959 . S
H656 C670 0.961 . S
H657 C671 0.960 . S
H658 C671 0.961 . S
H659 C671 0.959 . S
H660 C674 0.902 1_554 S
H661 C675 0.931 . S
H662 C677 0.930 . S
C663 H651 0.959 . S
C663 C664 1.339 1_556 S
C663 C668 1.432 . S
C664 C663 1.339 1_554 S
C664 C665 1.376 . S
C665 H652 0.930 . S
C665 C664 1.376 . S
C665 C666 1.388 . S
C666 H653 0.930 . S
C666 C665 1.388 . S
C666 C667 1.337 1_554 S
C667 C666 1.337 1_556 S
C667 C668 1.420 . S
C667 C673 1.502 . S
C668 C663 1.432 . S
C668 C667 1.420 . S
C668 C669 1.516 . S
C669 C668 1.516 . S
C669 C670 1.502 . S
C669 C671 1.561 . S
C669 C672 1.526 . S
C670 H654 0.959 . S
C670 H655 0.959 . S
C670 H656 0.961 . S
C670 C669 1.502 . S
C671 H657 0.960 . S
C671 H658 0.961 . S
C671 H659 0.959 . S
C671 C669 1.561 . S
C672 C669 1.526 . S
C672 C673 1.396 . S
C672 C677 1.390 . S
C673 C667 1.502 . S
C673 C672 1.396 . S
C673 C674 1.399 . S
C674 H660 0.902 1_556 S
C674 C673 1.399 . S
C674 C675 1.385 . S
C675 H661 0.931 . S
C675 C674 1.385 . S
C675 C676 1.389 . S
C676 C675 1.389 . S
C676 C677 1.387 . S
C677 H662 0.930 . S
C677 C672 1.390 . S
C677 C676 1.387 . S
H678 C690 0.930 . S
H679 C692 0.930 . S
H680 C693 0.930 . S
H681 C697 0.959 . S
H682 C697 0.959 . S
H683 C697 0.961 . S
H684 C698 0.960 . S
H685 C698 0.961 . S
H686 C698 0.959 . S
H687 C701 0.929 1_655 S
H688 C702 0.931 1_655 S
H689 C704 0.930 . S
C690 H678 0.930 . S
C690 C691 1.399 . S
C690 C695 1.399 . S
C691 C690 1.399 . S
C691 C692 1.376 . S
C692 H679 0.930 . S
C692 C691 1.376 . S
C692 C693 1.388 . S
C693 H680 0.930 . S
C693 C692 1.388 . S
C693 C694 1.390 . S
C694 C693 1.390 . S
C694 C695 1.394 . S
C694 C700 1.465 . S
C695 C690 1.399 . S
C695 C694 1.394 . S
C695 C696 1.516 . S
C696 C695 1.516 . S
C696 C697 1.502 . S
C696 C698 1.561 . S
C696 C699 1.526 . S
C697 H681 0.959 . S
C697 H682 0.959 . S
C697 H683 0.961 . S
C697 C696 1.502 . S
C698 H684 0.960 . S
C698 H685 0.961 . S
C698 H686 0.959 . S
C698 C696 1.561 . S
C699 C696 1.526 . S
C699 C700 1.396 . S
C699 C704 1.390 . S
C700 C694 1.465 . S
C700 C699 1.396 . S
C700 C701 1.399 . S
C701 H687 0.929 1_455 S
C701 C700 1.399 . S
C701 C702 1.385 . S
C702 H688 0.931 1_455 S
C702 C701 1.385 . S
C702 C703 1.389 . S
C703 C702 1.389 . S
C703 C704 1.387 . S
C704 H689 0.930 . S
C704 C699 1.390 . S
C704 C703 1.387 . S
C406 C94 0.967 . S
C394 C10 1.480 . S
C421 C21 1.468 1_655 S
C433 C208 1.038 . S
C448 C31 1.233 . S
C460 C268 0.875 . S
C475 C0 1.331 . S
C487 C68 1.122 . S
C514 C182 1.039 . S
C502 C18 1.245 . S
C529 C34 1.361 . S
C541 C278 0.971 . S
C568 C164 0.706 . S
C556 C36 1.379 . S
C583 C8 1.332 1_565 S
C595 C296 1.038 . S
C622 C40 0.968 . S
C610 C23 1.239 1_565 S
C649 C154 0.858 . S
C637 C26 1.195 . S
C676 C322 1.182 . S
C664 C5 1.395 . S
C691 C13 1.290 . S
C703 C50 0.930 . S
