# Generated by pormake.
# Topology rtl, (3,6)-cn, num edge types: 1
# Building blocks:
#     Node 0, Type 0, BuildingBlock: INOVEN_clean_linker_0, # of connection points: 3
#     Node 1, Type 0, BuildingBlock: INOVEN_clean_linker_0, # of connection points: 3
#     Node 2, Type 0, BuildingBlock: INOVEN_clean_linker_0, # of connection points: 3
#     Node 3, Type 0, BuildingBlock: INOVEN_clean_linker_0, # of connection points: 3
#     Node 4, Type 1, BuildingBlock: VOLQOD_clean_sbu_1, # of connection points: 6
#     Node 5, Type 1, BuildingBlock: VOLQOD_clean_sbu_1, # of connection points: 6
#     Edge 6, Type (0, 1), BuildingBlock: ZUJKAS_clean_linker_0, # of connection points: 2
#     Edge 7, Type (0, 1), BuildingBlock: ZUJKAS_clean_linker_0, # of connection points: 2
#     Edge 8, Type (0, 1), BuildingBlock: ZUJKAS_clean_linker_0, # of connection points: 2
#     Edge 9, Type (0, 1), BuildingBlock: ZUJKAS_clean_linker_0, # of connection points: 2
#     Edge 10, Type (0, 1), BuildingBlock: ZUJKAS_clean_linker_0, # of connection points: 2
#     Edge 11, Type (0, 1), BuildingBlock: ZUJKAS_clean_linker_0, # of connection points: 2
#     Edge 12, Type (0, 1), BuildingBlock: ZUJKAS_clean_linker_0, # of connection points: 2
#     Edge 13, Type (0, 1), BuildingBlock: ZUJKAS_clean_linker_0, # of connection points: 2
#     Edge 14, Type (0, 1), BuildingBlock: ZUJKAS_clean_linker_0, # of connection points: 2
#     Edge 15, Type (0, 1), BuildingBlock: ZUJKAS_clean_linker_0, # of connection points: 2
#     Edge 16, Type (0, 1), BuildingBlock: ZUJKAS_clean_linker_0, # of connection points: 2
#     Edge 17, Type (0, 1), BuildingBlock: ZUJKAS_clean_linker_0, # of connection points: 2
# Relax obj value: 0.042
# Max RMSD: 0.144
# Mean RMSD: 0.095
data_MOF--net-rtl--node1-VOLQOD_clean_sbu_1--node2-INOVEN_clean_linker_0--edge1-ZUJKAS_clean_linker_0
_symmetry_space_group_name_H-M    P1
_symmetry_Int_Tables_number       1
_symmetry_cell_setting            triclinic
loop_
_symmetry_equiv_pos_as_xyz
'x, y, z'
_cell_length_a     48.858457
_cell_length_b     48.220328
_cell_length_c     28.427733
_cell_angle_alpha  91.18741
_cell_angle_beta   91.629262
_cell_angle_gamma 89.962147
loop_
_atom_site_label
_atom_site_type_symbol
_atom_site_fract_x
_atom_site_fract_y
_atom_site_fract_z
_atom_type_partial_charge
H0 H 0.18434 0.77176 0.921 0.0
H1 H 0.13047 0.82667 -0.0048 0.0
H2 H 0.17718 0.76561 0.07094 0.0
N3 N 0.20323 0.74506 -0.00525 0.0
N4 N 0.21156 0.73333 0.03113 0.0
C5 C 0.17523 0.77877 0.95348 0.0
C6 C 0.15632 0.80065 0.95309 0.0
C7 C 0.18309 0.76628 -0.00419 0.0
C8 C 0.17144 0.77542 0.03818 0.0
C9 C 0.15219 0.7971 0.03821 0.0
C10 C 0.14499 0.80967 -0.00449 0.0
H11 H 0.67388 0.74056 0.60829 0.0
H12 H 0.62149 0.68309 0.53139 0.0
H13 H 0.66601 0.74448 0.45719 0.0
N14 N 0.69225 0.76647 0.53453 0.0
N15 N 0.69878 0.77888 0.49844 0.0
C16 C 0.66472 0.73311 0.57522 0.0
C17 C 0.64653 0.71063 0.57461 0.0
C18 C 0.67203 0.74531 0.53302 0.0
C19 C 0.66044 0.73524 0.48999 0.0
C20 C 0.64193 0.71296 0.48916 0.0
C21 C 0.63521 0.70077 0.53166 0.0
H22 H 0.82834 0.24365 0.92034 0.0
H23 H 0.88669 0.19362 -0.00358 0.0
H24 H 0.83151 0.24648 0.07181 0.0
N25 N 0.80515 0.26616 0.99398 0.0
N26 N 0.79601 0.27754 0.03008 0.0
C27 C 0.83759 0.23695 0.9533 0.0
C28 C 0.85926 0.21785 0.95319 0.0
C29 C 0.82759 0.24749 -0.00423 0.0
C30 C 0.83932 0.23869 0.03879 0.0
C31 C 0.86096 0.2195 0.03919 0.0
C32 C 0.87081 0.20933 -0.00373 0.0
H33 H 0.31077 0.27003 0.42214 0.0
H34 H 0.35736 0.3324 0.49928 0.0
H35 H 0.30972 0.27359 0.57353 0.0
N36 N 0.28978 0.24637 0.49523 0.0
N37 N 0.28021 0.2362 0.53124 0.0
C38 C 0.31765 0.27954 0.45528 0.0
C39 C 0.335 0.30271 0.4556 0.0
C40 C 0.3084 0.26895 0.49751 0.0
C41 C 0.31695 0.28147 0.5407 0.0
C42 C 0.33433 0.30466 0.54145 0.0
C43 C 0.34331 0.31499 0.4988 0.0
O44 O 0.93071 0.98291 0.48878 0.0
Zn45 Zn 0.95826 0.01406 0.49147 0.0
O46 O 0.99582 -8e-05 0.49483 0.0
Zn47 Zn 0.01399 0.01319 0.55318 0.0
Zn48 Zn 0.99501 0.95941 0.49429 0.0
Zn49 Zn 0.01601 0.01285 0.44081 0.0
O50 O 0.04682 0.03636 0.53975 0.0
O51 O 0.04901 0.03559 0.4619 0.0
O52 O 0.95027 0.03812 0.54818 0.0
O53 O 0.98879 0.03702 0.5914 0.0
O54 O 0.02757 0.98157 0.59268 0.0
O55 O 0.01447 0.94417 0.55128 0.0
O56 O 0.01455 0.94372 0.43861 0.0
O57 O 0.95211 0.03765 0.43457 0.0
O58 O 0.02928 0.98058 0.40115 0.0
O59 O 0.99228 0.03731 0.39995 0.0
C60 C 0.93294 0.95661 0.49001 0.0
C61 C 0.05846 0.04333 0.50229 0.0
C62 C 0.02648 0.95532 0.5872 0.0
C63 C 0.96426 0.04534 0.58487 0.0
C64 C 0.02726 0.95437 0.40495 0.0
C65 C 0.96746 0.0453 0.40178 0.0
O66 O 0.95632 0.94492 0.49245 0.0
O67 O 0.5634 0.48087 0.01987 0.0
Zn68 Zn 0.53668 0.51268 0.0194 0.0
O69 O 0.49878 0.49975 0.01672 0.0
Zn70 Zn 0.47957 0.51496 0.9615 0.0
Zn71 Zn 0.49864 0.45924 0.01239 0.0
Zn72 Zn 0.48045 0.51201 0.07385 0.0
O73 O 0.44724 0.53827 0.98038 0.0
O74 O 0.44767 0.53566 0.05821 0.0
O75 O 0.54454 0.53627 0.964 0.0
O76 O 0.50468 0.53919 0.92491 0.0
O77 O 0.46501 0.48426 0.91833 0.0
O78 O 0.47876 0.44581 0.95354 0.0
O79 O 0.47899 0.44292 0.06644 0.0
O80 O 0.54429 0.53621 0.07737 0.0
O81 O 0.46675 0.47948 0.10966 0.0
O82 O 0.50555 0.5352 0.1162 0.0
C83 C 0.56053 0.45465 0.01655 0.0
C84 C 0.43701 0.54444 0.01996 0.0
C85 C 0.46626 0.45789 0.91983 0.0
C86 C 0.52994 0.54546 0.92996 0.0
C87 C 0.46739 0.45335 0.10222 0.0
C88 C 0.5302 0.54332 0.11261 0.0
O89 O 0.53689 0.44359 0.01281 0.0
H90 H 0.25716 0.21297 0.60383 0.0
H91 H 0.22164 0.1768 0.6011 0.0
H92 H 0.22375 0.17445 0.44945 0.0
H93 H 0.25928 0.21017 0.45215 0.0
H94 H 0.17026 0.18135 0.5565 0.0
H95 H 0.22799 0.09225 0.4825 0.0
H96 H 0.24469 0.12267 0.50787 0.0
H97 H 0.23024 0.12331 0.44903 0.0
C98 C 0.25018 0.20436 0.5701 0.0
C99 C 0.2609 0.21421 0.52846 0.0
C100 C 0.22998 0.18382 0.5685 0.0
C101 C 0.22036 0.17271 0.52509 0.0
C102 C 0.23131 0.18232 0.48334 0.0
H103 H 0.08808 0.06431 0.43062 0.0
H104 H 0.12777 0.09522 0.43742 0.0
C105 C 0.25148 0.20286 0.48493 0.0
C106 C 0.1976 0.15244 0.52325 0.0
H107 H 0.17948 0.0874 0.48416 0.0
C108 C 0.17232 0.16071 0.54108 0.0
C109 C 0.20036 0.12562 0.50287 0.0
C110 C 0.22735 0.11528 0.48484 0.0
C111 C 0.14949 0.14309 0.5381 0.0
C112 C 0.15219 0.11633 0.51744 0.0
C113 C 0.17751 0.10797 0.49988 0.0
C114 C 0.12884 0.09682 0.51355 0.0
C115 C 0.12248 0.15355 0.55592 0.0
C116 C 0.11668 0.08712 0.55414 0.0
C117 C 0.09399 0.06955 0.55044 0.0
C118 C 0.08313 0.06118 0.506 0.0
C119 C 0.09583 0.07042 0.46537 0.0
C120 C 0.11853 0.08804 0.46916 0.0
H121 H 0.12222 0.17651 0.56002 0.0
H122 H 0.1053 0.1471 0.53172 0.0
H123 H 0.1189 0.14461 0.59088 0.0
H124 H 0.12468 0.09326 0.58873 0.0
H125 H 0.08489 0.06267 0.58249 0.0
H126 H 0.23182 0.70679 0.10494 0.0
H127 H 0.26887 0.67223 0.10561 0.0
H128 H 0.27505 0.67905 0.95522 0.0
H129 H 0.23798 0.71322 0.95443 0.0
H130 H 0.27563 0.62367 0.98783 0.0
H131 H 0.35009 0.69129 0.08737 0.0
H132 H 0.31775 0.68668 0.11472 0.0
H133 H 0.31911 0.70461 0.06008 0.0
C134 C 0.24112 0.70072 0.07217 0.0
C135 C 0.23224 0.71266 0.02992 0.0
C136 C 0.26228 0.68119 0.07254 0.0
C137 C 0.27492 0.67345 0.03053 0.0
C138 C 0.26561 0.68487 0.98801 0.0
H139 H 0.40906 0.56819 0.94618 0.0
H140 H 0.36887 0.59829 0.94955 0.0
C141 C 0.24447 0.7044 0.98763 0.0
C142 C 0.29806 0.65364 0.0308 0.0
H143 H 0.3641 0.64538 0.07041 0.0
C144 C 0.29499 0.62837 0.00586 0.0
C145 C 0.32324 0.65989 0.05444 0.0
C146 C 0.32796 0.68717 0.08038 0.0
C147 C 0.31643 0.60901 0.0042 0.0
C148 C 0.34171 0.6154 0.02738 0.0
C149 C 0.34467 0.64056 0.05271 0.0
C150 C 0.36557 0.59653 0.02518 0.0
C151 C 0.31171 0.58175 0.97825 0.0
C152 C 0.37738 0.58605 0.0667 0.0
C153 C 0.40048 0.56901 0.06498 0.0
C154 C 0.41231 0.56225 0.02166 0.0
C155 C 0.40042 0.57285 0.98011 0.0
C156 C 0.37733 0.58992 0.98191 0.0
H157 H 0.28954 0.57696 0.97369 0.0
H158 H 0.32045 0.58287 0.94274 0.0
H159 H 0.32189 0.56445 -0.0029 0.0
H160 H 0.3687 0.59108 0.10048 0.0
H161 H 0.40909 0.56125 0.09768 0.0
H162 H 0.71239 0.80949 0.42659 0.0
H163 H 0.75084 0.84219 0.42381 0.0
H164 H 0.77209 0.82529 0.56877 0.0
H165 H 0.73338 0.79322 0.57185 0.0
H166 H 0.77517 0.88075 0.54952 0.0
H167 H 0.83032 0.81801 0.41648 0.0
H168 H 0.79627 0.82767 0.39796 0.0
H169 H 0.80124 0.80488 0.44676 0.0
C170 C 0.72523 0.81305 0.45781 0.0
C171 C 0.72005 0.79891 0.49915 0.0
C172 C 0.74723 0.83149 0.45617 0.0
C173 C 0.76462 0.83573 0.49582 0.0
C174 C 0.75898 0.82219 0.53772 0.0
H175 H 0.92936 0.90072 0.50345 0.0
H176 H 0.88799 0.87243 0.50509 0.0
C177 C 0.73688 0.80389 0.53943 0.0
C178 C 0.78898 0.85391 0.49355 0.0
H179 H 0.84906 0.86207 0.43697 0.0
C180 C 0.79135 0.8767 0.52492 0.0
C181 C 0.81022 0.84832 0.46188 0.0
C182 C 0.80961 0.82325 0.42915 0.0
C183 C 0.81434 0.89417 0.52533 0.0
C184 C 0.83522 0.88899 0.49279 0.0
C185 C 0.83289 0.86614 0.46157 0.0
C186 C 0.86015 0.90645 0.49154 0.0
C187 C 0.81636 0.91752 0.56144 0.0
C188 C 0.85826 0.93492 0.48271 0.0
C189 C 0.88189 0.95123 0.48206 0.0
C190 C 0.90789 0.93929 0.48963 0.0
C191 C 0.9097 0.91063 0.4975 0.0
C192 C 0.88606 0.8944 0.49845 0.0
H193 H 0.8026 0.91416 0.59124 0.0
H194 H 0.83766 0.91987 0.57564 0.0
H195 H 0.81024 0.93722 0.54463 0.0
H196 H 0.83852 0.94452 0.47614 0.0
H197 H 0.87975 0.97318 0.47549 0.0
H198 H 0.77648 0.30665 0.10175 0.0
H199 H 0.73659 0.33774 0.10031 0.0
H200 H 0.7237 0.31961 0.95205 0.0
H201 H 0.76379 0.28923 0.95324 0.0
H202 H 0.71925 0.37467 0.97227 0.0
H203 H 0.65692 0.31418 0.09396 0.0
H204 H 0.6898 0.32417 0.11845 0.0
H205 H 0.68773 0.30061 0.06859 0.0
C206 C 0.76504 0.30945 0.06901 0.0
C207 C 0.7731 0.29563 0.02787 0.0
C208 C 0.74222 0.32697 0.06821 0.0
C209 C 0.7269 0.3306 0.02623 0.0
C210 C 0.73517 0.31702 0.98485 0.0
H211 H 0.56312 0.39864 -0.00058 0.0
H212 H 0.6038 0.36914 0.00069 0.0
C213 C 0.75806 0.29966 0.98559 0.0
C214 C 0.70243 0.34878 0.02509 0.0
H215 H 0.63967 0.35837 0.07266 0.0
C216 C 0.70181 0.37109 0.99414 0.0
C217 C 0.67956 0.34382 0.05317 0.0
C218 C 0.67832 0.31925 0.08508 0.0
C219 C 0.67903 0.38876 0.99079 0.0
C220 C 0.65654 0.38434 0.02 0.0
C221 C 0.65705 0.36187 0.05063 0.0
C222 C 0.63204 0.40249 0.01881 0.0
C223 C 0.67905 0.41157 0.95523 0.0
C224 C 0.63438 0.43099 0.02902 0.0
C225 C 0.6112 0.44798 0.02796 0.0
C226 C 0.58515 0.43669 0.0173 0.0
C227 C 0.58285 0.40804 0.00772 0.0
C228 C 0.60608 0.39112 0.00847 0.0
H229 H 0.69391 0.40733 0.9271 0.0
H230 H 0.65841 0.41428 0.93859 0.0
H231 H 0.68504 0.43138 0.97322 0.0
H232 H 0.65413 0.44009 0.03822 0.0
H233 H 0.61369 0.46991 0.03596 0.0
H234 H 0.17735 0.8055 0.12493 0.0
H235 H 0.1575 0.82639 0.19541 0.0
H236 H 0.07987 0.83441 0.12071 0.0
H237 H 0.099 0.81213 0.05148 0.0
H238 H 0.13854 0.8772 0.2049 0.0
H239 H 0.05462 0.8051 0.24197 0.0
H240 H 0.08123 0.79619 0.20159 0.0
H241 H 0.05194 0.81615 0.18225 0.0
C242 C 0.15585 0.81098 0.124 0.0
C243 C 0.1398 0.80726 0.08249 0.0
C244 C 0.14459 0.82311 0.16418 0.0
C245 C 0.11709 0.83167 0.16359 0.0
C246 C 0.10093 0.8274 0.12251 0.0
H247 H 0.046 0.96734 0.31829 0.0
H248 H 0.06895 0.9366 0.26249 0.0
C249 C 0.11205 0.81504 0.08262 0.0
C250 C 0.1058 0.84724 0.20419 0.0
H251 H 0.04993 0.85184 0.27324 0.0
C252 C 0.11938 0.87141 0.22037 0.0
C253 C 0.08104 0.83949 0.22498 0.0
C254 C 0.06657 0.81264 0.21211 0.0
C255 C 0.10827 0.88867 0.25527 0.0
C256 C 0.08244 0.88205 0.27335 0.0
C257 C 0.06948 0.85723 0.25873 0.0
C258 C 0.06832 0.90069 0.30701 0.0
C259 C 0.12446 0.91372 0.27247 0.0
C260 C 0.05929 0.89047 0.34974 0.0
C261 C 0.04561 0.90783 0.3812 0.0
C262 C 0.04083 0.93583 0.37068 0.0
C263 C 0.04962 0.94596 0.32764 0.0
C264 C 0.06297 0.92846 0.29589 0.0
H265 H 0.14674 0.91072 0.26741 0.0
H266 H 0.11792 0.93201 0.25193 0.0
H267 H 0.12113 0.91829 0.31032 0.0
H268 H 0.06302 0.86908 0.35894 0.0
H269 H 0.03917 0.89938 0.41412 0.0
H270 H 0.62167 0.73232 0.65187 0.0
H271 H 0.60367 0.70637 0.71774 0.0
H272 H 0.63812 0.63092 0.66032 0.0
H273 H 0.65521 0.65664 0.59398 0.0
H274 H 0.58529 0.62487 0.67723 0.0
H275 H 0.6375 0.67271 0.83458 0.0
H276 H 0.61991 0.69725 0.79797 0.0
H277 H 0.64867 0.67836 0.77556 0.0
C278 C 0.62586 0.71032 0.65414 0.0
C279 C 0.63973 0.69636 0.61815 0.0
C280 C 0.61569 0.69553 0.69174 0.0
C281 C 0.61972 0.66671 0.69414 0.0
C282 C 0.63473 0.65311 0.65918 0.0
H283 H 0.5844 0.55619 0.92018 0.0
H284 H 0.60536 0.58636 0.86339 0.0
C285 C 0.64454 0.66777 0.62143 0.0
C286 C 0.60626 0.65013 0.73024 0.0
H287 H 0.60073 0.64183 0.84856 0.0
C288 C 0.58876 0.62853 0.71471 0.0
C289 C 0.61091 0.65484 0.77908 0.0
C290 C 0.63047 0.67687 0.79789 0.0
C291 C 0.57588 0.61139 0.74655 0.0
C292 C 0.57994 0.61653 0.79541 0.0
C293 C 0.59744 0.63813 0.81106 0.0
C294 C 0.56694 0.59904 0.83075 0.0
C295 C 0.55867 0.58749 0.72744 0.0
C296 C 0.53834 0.59644 0.83163 0.0
C297 C 0.52629 0.57891 0.86365 0.0
C298 C 0.54261 0.56403 0.89593 0.0
C299 C 0.57122 0.56727 0.89573 0.0
C300 C 0.58325 0.58458 0.8634 0.0
H301 H 0.56377 0.5819 0.69059 0.0
H302 H 0.56148 0.56884 0.74932 0.0
H303 H 0.53675 0.59348 0.72765 0.0
H304 H 0.52533 0.60792 0.80747 0.0
H305 H 0.50418 0.57718 0.86329 0.0
H306 H 0.8328 0.20139 0.1145 0.0
H307 H 0.85126 0.1756 0.18163 0.0
H308 H 0.93295 0.18543 0.13086 0.0
H309 H 0.9147 0.21138 0.06393 0.0
H310 H 0.91646 0.12978 0.14456 0.0
H311 H 0.89746 0.19694 0.30155 0.0
H312 H 0.86867 0.19186 0.26149 0.0
H313 H 0.89819 0.21031 0.24269 0.0
C314 C 0.85476 0.19878 0.11844 0.0
C315 C 0.87231 0.20824 0.08384 0.0
C316 C 0.86527 0.18403 0.15677 0.0
C317 C 0.89346 0.17872 0.1612 0.0
C318 C 0.91113 0.18934 0.128 0.0
H319 H 0.99523 0.07025 0.33187 0.0
H320 H 0.97726 0.10284 0.27408 0.0
C321 C 0.90067 0.20407 0.08977 0.0
C322 C 0.90424 0.15962 0.19732 0.0
H323 H 0.91236 0.15093 0.31572 0.0
C324 C 0.91573 0.13445 0.182 0.0
C325 C 0.90295 0.16571 0.24602 0.0
C326 C 0.89135 0.19275 0.26413 0.0
C327 C 0.92574 0.11499 0.21414 0.0
C328 C 0.92475 0.12117 0.26291 0.0
C329 C 0.91314 0.1463 0.27828 0.0
C330 C 0.93572 0.10176 0.29847 0.0
C331 C 0.93667 0.08772 0.19555 0.0
C332 C 0.91846 0.09087 0.33207 0.0
C333 C 0.9287 0.07237 0.36544 0.0
C334 C 0.95645 0.06448 0.36586 0.0
C335 C 0.97372 0.07564 0.3323 0.0
C336 C 0.96347 0.09422 0.29911 0.0
H337 H 0.92911 0.08317 0.15897 0.0
H338 H 0.95935 0.08869 0.19527 0.0
H339 H 0.93077 0.07032 0.21816 0.0
H340 H 0.897 0.09652 0.33224 0.0
H341 H 0.91485 0.06427 0.39085 0.0
H342 H 0.33544 0.36003 0.56222 0.0
H343 H 0.35575 0.38314 0.63212 0.0
H344 H 0.37388 0.3036 0.69229 0.0
H345 H 0.35404 0.28024 0.62172 0.0
H346 H 0.34419 0.37947 0.72951 0.0
H347 H 0.4491 0.34294 0.68828 0.0
H348 H 0.42096 0.34108 0.64579 0.0
H349 H 0.42342 0.31648 0.69228 0.0
C350 C 0.34368 0.34746 0.59042 0.0
C351 C 0.34351 0.31835 0.58632 0.0
C352 C 0.35513 0.36067 0.63038 0.0
C353 C 0.36669 0.34506 0.66691 0.0
C354 C 0.36541 0.31598 0.66404 0.0
H355 H 0.46361 0.40126 0.91262 0.0
H356 H 0.43848 0.37318 0.85339 0.0
C357 C 0.35388 0.30269 0.624 0.0
C358 C 0.38108 0.35946 0.70682 0.0
H359 H 0.44461 0.37099 0.75636 0.0
C360 C 0.36611 0.37753 0.73563 0.0
C361 C 0.40969 0.35688 0.71448 0.0
C362 C 0.42687 0.33849 0.68345 0.0
C363 C 0.37905 0.3932 0.77196 0.0
C364 C 0.40775 0.39108 0.77895 0.0
C365 C 0.42262 0.37258 0.75077 0.0
C366 C 0.42286 0.40826 0.81475 0.0
C367 C 0.36188 0.41175 0.80271 0.0
C368 C 0.42281 0.43728 0.81207 0.0
C369 C 0.43716 0.45345 0.84584 0.0
C370 C 0.45198 0.44084 0.88277 0.0
C371 C 0.45239 0.41169 0.88475 0.0
C372 C 0.43802 0.39558 0.85098 0.0
H373 H 0.34001 0.40538 0.80133 0.0
H374 H 0.36947 0.41159 0.83989 0.0
H375 H 0.36303 0.43335 0.79017 0.0
H376 H 0.41174 0.44744 0.78371 0.0
H377 H 0.43651 0.47581 0.84309 0.0
H378 H 0.58914 0.69747 0.46889 0.0
H379 H 0.57176 0.6718 0.39925 0.0
H380 H 0.65128 0.6764 0.33781 0.0
H381 H 0.66908 0.70141 0.40812 0.0
H382 H 0.56994 0.68362 0.30245 0.0
H383 H 0.636 0.59262 0.34267 0.0
H384 H 0.63076 0.62054 0.3847 0.0
H385 H 0.65371 0.62499 0.33716 0.0
C386 C 0.6029 0.69311 0.44045 0.0
C387 C 0.63056 0.70111 0.44419 0.0
C388 C 0.59291 0.67859 0.40063 0.0
C389 C 0.61038 0.67178 0.36388 0.0
C390 C 0.63762 0.68106 0.36626 0.0
H391 H 0.58234 0.56409 0.11751 0.0
H392 H 0.60203 0.5965 0.17639 0.0
C393 C 0.64767 0.69559 0.40618 0.0
C394 C 0.60026 0.65379 0.32437 0.0
H395 H 0.60775 0.58938 0.27424 0.0
C396 C 0.57825 0.66306 0.29609 0.0
C397 C 0.61114 0.62695 0.3164 0.0
C398 C 0.63405 0.61549 0.34699 0.0
C399 C 0.56679 0.64616 0.2599 0.0
C400 C 0.57739 0.61918 0.25245 0.0
C401 C 0.59971 0.6101 0.28016 0.0
C402 C 0.56525 0.59977 0.21672 0.0
C403 C 0.54356 0.65736 0.22977 0.0
C404 C 0.5382 0.59052 0.22047 0.0
C405 C 0.52686 0.57194 0.18697 0.0
C406 C 0.54245 0.56219 0.14919 0.0
C407 C 0.56972 0.57122 0.14604 0.0
C408 C 0.58102 0.58976 0.1796 0.0
H409 H 0.54265 0.68038 0.23177 0.0
H410 H 0.54557 0.65071 0.19239 0.0
H411 H 0.52389 0.6492 0.2423 0.0
H412 H 0.52589 0.59757 0.24948 0.0
H413 H 0.50585 0.56536 0.19059 0.0
H414 H 0.82847 0.19808 0.87775 0.0
H415 H 0.84469 0.17133 0.80968 0.0
H416 H 0.92803 0.18166 0.86085 0.0
H417 H 0.91212 0.20875 0.92845 0.0
H418 H 0.88922 0.1844 0.7388 0.0
H419 H 0.9098 0.09501 0.85533 0.0
H420 H 0.88687 0.12291 0.87095 0.0
H421 H 0.92324 0.12801 0.8756 0.0
C422 C 0.85028 0.19524 0.87387 0.0
C423 C 0.86903 0.20524 0.90868 0.0
C424 C 0.85947 0.17988 0.83514 0.0
C425 C 0.88746 0.1743 0.83082 0.0
C426 C 0.90631 0.18554 0.86403 0.0
H427 H 0.98897 0.06795 0.6642 0.0
H428 H 0.96911 0.0999 0.72154 0.0
C429 C 0.89718 0.2009 0.90262 0.0
C430 C 0.89699 0.15511 0.79364 0.0
H431 H 0.92481 0.09088 0.77725 0.0
C432 C 0.89686 0.16388 0.74694 0.0
C433 C 0.90684 0.12841 0.80471 0.0
C434 C 0.90659 0.1178 0.85428 0.0
C435 C 0.90724 0.14681 0.71097 0.0
C436 C 0.91742 0.12018 0.72217 0.0
C437 C 0.91706 0.11133 0.76884 0.0
C438 C 0.92929 0.10134 0.6864 0.0
C439 C 0.90803 0.15773 0.66168 0.0
C440 C 0.91334 0.09132 0.64791 0.0
C441 C 0.92465 0.07306 0.61492 0.0
C442 C 0.95204 0.06432 0.62012 0.0
C443 C 0.96782 0.07422 0.65907 0.0
C444 C 0.95653 0.09251 0.69188 0.0
H445 H 0.90574 0.18065 0.66123 0.0
H446 H 0.92752 0.15199 0.64482 0.0
H447 H 0.89092 0.14849 0.64017 0.0
H448 H 0.89209 0.0974 0.64363 0.0
H449 H 0.91187 0.06574 0.58548 0.0
H450 H 0.35518 0.27482 0.37904 0.0
H451 H 0.37513 0.2951 0.30926 0.0
H452 H 0.35704 0.37713 0.36327 0.0
H453 H 0.33656 0.35709 0.43216 0.0
H454 H 0.34527 0.36946 0.26572 0.0
H455 H 0.45034 0.33429 0.31741 0.0
H456 H 0.42433 0.30798 0.31161 0.0
H457 H 0.42241 0.33393 0.35759 0.0
C458 C 0.35509 0.29715 0.37556 0.0
C459 C 0.34465 0.31442 0.41125 0.0
C460 C 0.36668 0.30868 0.33598 0.0
C461 C 0.36795 0.33759 0.33165 0.0
C462 C 0.35641 0.35476 0.36617 0.0
H463 H 0.43707 0.46812 0.17817 0.0
H464 H 0.41226 0.43757 0.22948 0.0
C465 C 0.34489 0.34331 0.40561 0.0
C466 C 0.38225 0.35039 0.29245 0.0
H467 H 0.44597 0.36211 0.25077 0.0
C468 C 0.36724 0.36763 0.26206 0.0
C469 C 0.41091 0.34789 0.28785 0.0
C470 C 0.42809 0.3302 0.32044 0.0
C471 C 0.38025 0.38303 0.22788 0.0
C472 C 0.40902 0.38143 0.22464 0.0
C473 C 0.42391 0.36331 0.25361 0.0
C474 C 0.42421 0.3997 0.19344 0.0
C475 C 0.36315 0.40113 0.19588 0.0
C476 C 0.4398 0.3884 0.15711 0.0
C477 C 0.45414 0.4058 0.12777 0.0
C478 C 0.45331 0.4348 0.1346 0.0
C479 C 0.4381 0.44593 0.17178 0.0
C480 C 0.42373 0.42853 0.20094 0.0
H481 H 0.34145 0.39422 0.19372 0.0
H482 H 0.36359 0.42276 0.20998 0.0
H483 H 0.37133 0.40112 0.15983 0.0
H484 H 0.44061 0.36616 0.15114 0.0
H485 H 0.46571 0.39652 0.09957 0.0
H486 H 0.1528 0.85605 0.93724 0.0
H487 H 0.13348 0.87858 0.86758 0.0
H488 H 0.12188 0.79872 0.79881 0.0
H489 H 0.14079 0.77591 0.86902 0.0
H490 H 0.14833 0.87596 0.77042 0.0
H491 H 0.04423 0.83396 0.80055 0.0
H492 H 0.07124 0.8335 0.8452 0.0
H493 H 0.0716 0.80913 0.79664 0.0
C494 C 0.14624 0.8433 0.90719 0.0
C495 C 0.14793 0.81423 0.9087 0.0
C496 C 0.13537 0.85619 0.86739 0.0
C497 C 0.1259 0.84026 0.82848 0.0
C498 C 0.12875 0.8113 0.82886 0.0
H499 H 0.03025 0.89863 0.58549 0.0
H500 H 0.05556 0.86939 0.6409 0.0
C501 C 0.13973 0.79835 0.86874 0.0
C502 C 0.11183 0.85418 0.78877 0.0
H503 H 0.04875 0.86388 0.73705 0.0
C504 C 0.12661 0.87318 0.76278 0.0
C505 C 0.08351 0.85043 0.77905 0.0
C506 C 0.06655 0.83082 0.80692 0.0
C507 C 0.1137 0.88888 0.72757 0.0
C508 C 0.08519 0.88583 0.71895 0.0
C509 C 0.07059 0.8662 0.74394 0.0
C510 C 0.06992 0.90357 0.68545 0.0
C511 C 0.13068 0.90859 0.69995 0.0
C512 C 0.06914 0.93241 0.69281 0.0
C513 C 0.05469 0.94921 0.66132 0.0
C514 C 0.04058 0.93743 0.62199 0.0
C515 C 0.04093 0.90842 0.61534 0.0
C516 C 0.05541 0.89165 0.64688 0.0
H517 H 0.15268 0.90271 0.70106 0.0
H518 H 0.12341 0.90919 0.66262 0.0
H519 H 0.12893 0.92979 0.71551 0.0
H520 H 0.07967 0.94194 0.72305 0.0
H521 H 0.05476 0.97143 0.66767 0.0
loop_
_geom_bond_atom_site_label_1
_geom_bond_atom_site_label_2
_geom_bond_distance
_geom_bond_site_symmetry_2
_ccdc_geom_bond_type
H0 C5 0.929 . S
H1 C10 0.931 . S
H2 C8 0.930 . S
N3 N4 1.234 1_556 S
N3 C7 1.453 . S
N4 N3 1.234 1_554 S
C5 H0 0.929 . S
C5 C6 1.373 . S
C5 C7 1.368 . S
C6 C5 1.373 . S
C6 C10 1.397 1_556 S
C7 N3 1.453 . S
C7 C5 1.368 . S
C7 C8 1.373 1_556 S
C8 H2 0.930 . S
C8 C7 1.373 1_554 S
C8 C9 1.371 . S
C9 C8 1.371 . S
C9 C10 1.383 . S
C10 H1 0.931 . S
C10 C6 1.397 1_554 S
C10 C9 1.383 . S
H11 C16 0.929 . S
H12 C21 0.931 . S
H13 C19 0.930 . S
N14 N15 1.234 . S
N14 C18 1.453 . S
N15 N14 1.234 . S
C16 H11 0.929 . S
C16 C17 1.373 . S
C16 C18 1.368 . S
C17 C16 1.373 . S
C17 C21 1.397 . S
C18 N14 1.453 . S
C18 C16 1.368 . S
C18 C19 1.373 . S
C19 H13 0.930 . S
C19 C18 1.373 . S
C19 C20 1.371 . S
C20 C19 1.371 . S
C20 C21 1.383 . S
C21 H12 0.931 . S
C21 C17 1.397 . S
C21 C20 1.383 . S
H22 C27 0.929 . S
H23 C32 0.931 . S
H24 C30 0.930 . S
N25 N26 1.234 1_556 S
N25 C29 1.453 . S
N26 N25 1.234 1_554 S
C27 H22 0.929 . S
C27 C28 1.373 . S
C27 C29 1.368 . S
C28 C27 1.373 . S
C28 C32 1.397 1_556 S
C29 N25 1.453 . S
C29 C27 1.368 . S
C29 C30 1.373 1_556 S
C30 H24 0.930 . S
C30 C29 1.373 1_554 S
C30 C31 1.371 . S
C31 C30 1.371 . S
C31 C32 1.383 . S
C32 H23 0.931 . S
C32 C28 1.397 1_554 S
C32 C31 1.383 . S
H33 C38 0.929 . S
H34 C43 0.931 . S
H35 C41 0.930 . S
N36 N37 1.234 . S
N36 C40 1.453 . S
N37 N36 1.234 . S
C38 H33 0.929 . S
C38 C39 1.373 . S
C38 C40 1.368 . S
C39 C38 1.373 . S
C39 C43 1.397 . S
C40 N36 1.453 . S
C40 C38 1.368 . S
C40 C41 1.373 . S
C41 H35 0.930 . S
C41 C40 1.373 . S
C41 C42 1.371 . S
C42 C41 1.371 . S
C42 C43 1.383 . S
C43 H34 0.931 . S
C43 C39 1.397 . S
C43 C42 1.383 . S
O44 Zn45 1.953 1_565 S
O44 C60 1.225 . S
Zn45 O44 1.953 1_545 S
Zn45 O46 1.949 1_655 S
Zn45 O52 1.919 . S
Zn45 O57 1.924 . S
O46 Zn45 1.949 1_455 S
O46 Zn47 1.923 . S
O46 Zn48 1.950 1_545 S
O46 Zn49 1.945 . S
Zn47 O46 1.923 . S
Zn47 O50 1.933 . S
Zn47 O53 1.964 . S
Zn47 O54 1.965 1_545 S
Zn48 O46 1.950 1_565 S
Zn48 O55 1.938 . S
Zn48 O56 1.906 . S
Zn48 O66 1.953 1_455 S
Zn49 O46 1.945 . S
Zn49 O51 1.932 . S
Zn49 O58 1.977 1_545 S
Zn49 O59 1.910 1_455 S
O50 Zn47 1.933 . S
O50 C61 1.226 . S
O51 Zn49 1.932 . S
O51 C61 1.307 . S
O52 Zn45 1.919 . S
O52 C63 1.253 . S
O53 Zn47 1.964 . S
O53 C63 1.251 1_455 S
O54 Zn47 1.965 1_565 S
O54 C62 1.303 . S
O55 Zn48 1.938 . S
O55 C62 1.247 . S
O56 Zn48 1.906 . S
O56 C64 1.304 . S
O57 Zn45 1.924 . S
O57 C65 1.311 . S
O58 Zn49 1.977 1_565 S
O58 C64 1.272 . S
O59 Zn49 1.910 1_655 S
O59 C65 1.231 . S
C60 O44 1.225 . S
C60 O66 1.298 . S
C61 O50 1.226 . S
C61 O51 1.307 . S
C62 O54 1.303 . S
C62 O55 1.247 . S
C63 O52 1.253 . S
C63 O53 1.251 1_655 S
C64 O56 1.304 . S
C64 O58 1.272 . S
C65 O57 1.311 . S
C65 O59 1.231 . S
O66 Zn48 1.953 1_655 S
O66 C60 1.298 . S
O67 Zn68 1.953 . S
O67 C83 1.225 . S
Zn68 O67 1.953 . S
Zn68 O69 1.949 . S
Zn68 O75 1.919 1_554 S
Zn68 O80 1.924 . S
O69 Zn68 1.949 . S
O69 Zn70 1.923 1_554 S
O69 Zn71 1.950 . S
O69 Zn72 1.945 . S
Zn70 O69 1.923 1_556 S
Zn70 O73 1.933 . S
Zn70 O76 1.941 . S
Zn70 O77 1.965 . S
Zn71 O69 1.950 . S
Zn71 O78 1.938 1_554 S
Zn71 O79 1.906 . S
Zn71 O89 1.953 . S
Zn72 O69 1.945 . S
Zn72 O74 1.932 . S
Zn72 O81 1.977 . S
Zn72 O82 1.910 . S
O73 Zn70 1.933 . S
O73 C84 1.226 1_556 S
O74 Zn72 1.932 . S
O74 C84 1.307 . S
O75 Zn68 1.919 1_556 S
O75 C86 1.253 . S
O76 Zn70 1.941 . S
O76 C86 1.283 . S
O77 Zn70 1.965 . S
O77 C85 1.303 . S
O78 Zn71 1.938 1_556 S
O78 C85 1.247 . S
O79 Zn71 1.906 . S
O79 C87 1.304 . S
O80 Zn68 1.924 . S
O80 C88 1.311 . S
O81 Zn72 1.977 . S
O81 C87 1.272 . S
O82 Zn72 1.910 . S
O82 C88 1.231 . S
C83 O67 1.225 . S
C83 O89 1.298 . S
C84 O73 1.226 1_554 S
C84 O74 1.307 . S
C85 O77 1.303 . S
C85 O78 1.247 . S
C86 O75 1.253 . S
C86 O76 1.283 . S
C87 O79 1.304 . S
C87 O81 1.272 . S
C88 O80 1.311 . S
C88 O82 1.231 . S
O89 Zn71 1.953 . S
O89 C83 1.298 . S
H90 C98 0.929 . S
H91 C100 0.930 . S
H92 C102 0.930 . S
H93 C105 0.929 . S
H94 C108 0.930 . S
H95 C110 0.960 . S
H96 C110 0.960 . S
H97 C110 0.960 . S
C98 H90 0.929 . S
C98 C99 1.377 . S
C98 C100 1.384 . S
C99 C98 1.377 . S
C99 C105 1.390 . S
C100 H91 0.930 . S
C100 C98 1.384 . S
C100 C101 1.372 . S
C101 C100 1.372 . S
C101 C102 1.400 . S
C101 C106 1.490 . S
C102 H92 0.930 . S
C102 C101 1.400 . S
C102 C105 1.386 . S
H103 C119 0.930 . S
H104 C120 0.931 . S
C105 H93 0.929 . S
C105 C99 1.390 . S
C105 C102 1.386 . S
C106 C101 1.490 . S
C106 C108 1.395 . S
C106 C109 1.403 . S
H107 C113 0.930 . S
C108 H94 0.930 . S
C108 C106 1.395 . S
C108 C111 1.403 . S
C109 C106 1.403 . S
C109 C110 1.524 . S
C109 C113 1.400 . S
C110 H95 0.960 . S
C110 H96 0.960 . S
C110 H97 0.960 . S
C110 C109 1.524 . S
C111 C108 1.403 . S
C111 C112 1.392 . S
C111 C115 1.495 . S
C112 C111 1.392 . S
C112 C113 1.385 . S
C112 C114 1.478 . S
C113 H107 0.930 . S
C113 C109 1.400 . S
C113 C112 1.385 . S
C114 C112 1.478 . S
C114 C116 1.381 . S
C114 C120 1.383 . S
C115 C111 1.495 . S
C115 H121 0.959 . S
C115 H122 0.961 . S
C115 H123 0.960 . S
C116 C114 1.381 . S
C116 C117 1.394 . S
C116 H124 0.930 . S
C117 C116 1.394 . S
C117 C118 1.383 . S
C117 H125 0.929 . S
C118 C117 1.383 . S
C118 C119 1.377 . S
C119 H103 0.930 . S
C119 C118 1.377 . S
C119 C120 1.379 . S
C120 H104 0.931 . S
C120 C114 1.383 . S
C120 C119 1.379 . S
H121 C115 0.959 . S
H122 C115 0.961 . S
H123 C115 0.960 . S
H124 C116 0.930 . S
H125 C117 0.929 . S
H126 C134 0.929 . S
H127 C136 0.930 . S
H128 C138 0.930 . S
H129 C141 0.929 . S
H130 C144 0.930 1_556 S
H131 C146 0.960 . S
H132 C146 0.960 . S
H133 C146 0.960 . S
C134 H126 0.929 . S
C134 C135 1.377 . S
C134 C136 1.384 . S
C135 C134 1.377 . S
C135 C141 1.390 1_554 S
C136 H127 0.930 . S
C136 C134 1.384 . S
C136 C137 1.372 . S
C137 C136 1.372 . S
C137 C138 1.400 1_554 S
C137 C142 1.490 . S
C138 H128 0.930 . S
C138 C137 1.400 1_556 S
C138 C141 1.386 . S
H139 C155 0.930 . S
H140 C156 0.931 . S
C141 H129 0.929 . S
C141 C135 1.390 1_556 S
C141 C138 1.386 . S
C142 C137 1.490 . S
C142 C144 1.395 . S
C142 C145 1.403 . S
H143 C149 0.930 . S
C144 H130 0.930 1_554 S
C144 C142 1.395 . S
C144 C147 1.403 . S
C145 C142 1.403 . S
C145 C146 1.524 . S
C145 C149 1.400 . S
C146 H131 0.960 . S
C146 H132 0.960 . S
C146 H133 0.960 . S
C146 C145 1.524 . S
C147 C144 1.403 . S
C147 C148 1.392 . S
C147 C151 1.495 1_554 S
C148 C147 1.392 . S
C148 C149 1.385 . S
C148 C150 1.478 . S
C149 H143 0.930 . S
C149 C145 1.400 . S
C149 C148 1.385 . S
C150 C148 1.478 . S
C150 C152 1.381 . S
C150 C156 1.383 1_554 S
C151 C147 1.495 1_556 S
C151 H157 0.959 . S
C151 H158 0.961 . S
C151 H159 0.960 1_556 S
C152 C150 1.381 . S
C152 C153 1.394 . S
C152 H160 0.930 . S
C153 C152 1.394 . S
C153 C154 1.383 . S
C153 H161 0.929 . S
C154 C153 1.383 . S
C154 C155 1.377 1_554 S
C155 H139 0.930 . S
C155 C154 1.377 1_556 S
C155 C156 1.379 . S
C156 H140 0.931 . S
C156 C150 1.383 1_556 S
C156 C155 1.379 . S
H157 C151 0.959 . S
H158 C151 0.961 . S
H159 C151 0.960 1_554 S
H160 C152 0.930 . S
H161 C153 0.929 . S
H162 C170 0.929 . S
H163 C172 0.930 . S
H164 C174 0.930 . S
H165 C177 0.929 . S
H166 C180 0.930 . S
H167 C182 0.960 . S
H168 C182 0.960 . S
H169 C182 0.960 . S
C170 H162 0.929 . S
C170 C171 1.377 . S
C170 C172 1.384 . S
C171 C170 1.377 . S
C171 C177 1.390 . S
C172 H163 0.930 . S
C172 C170 1.384 . S
C172 C173 1.372 . S
C173 C172 1.372 . S
C173 C174 1.400 . S
C173 C178 1.490 . S
C174 H164 0.930 . S
C174 C173 1.400 . S
C174 C177 1.386 . S
H175 C191 0.930 . S
H176 C192 0.931 . S
C177 H165 0.929 . S
C177 C171 1.390 . S
C177 C174 1.386 . S
C178 C173 1.490 . S
C178 C180 1.395 . S
C178 C181 1.403 . S
H179 C185 0.930 . S
C180 H166 0.930 . S
C180 C178 1.395 . S
C180 C183 1.403 . S
C181 C178 1.403 . S
C181 C182 1.524 . S
C181 C185 1.400 . S
C182 H167 0.960 . S
C182 H168 0.960 . S
C182 H169 0.960 . S
C182 C181 1.524 . S
C183 C180 1.403 . S
C183 C184 1.392 . S
C183 C187 1.495 . S
C184 C183 1.392 . S
C184 C185 1.385 . S
C184 C186 1.478 . S
C185 H179 0.930 . S
C185 C181 1.400 . S
C185 C184 1.385 . S
C186 C184 1.478 . S
C186 C188 1.381 . S
C186 C192 1.383 . S
C187 C183 1.495 . S
C187 H193 0.959 . S
C187 H194 0.961 . S
C187 H195 0.960 . S
C188 C186 1.381 . S
C188 C189 1.394 . S
C188 H196 0.930 . S
C189 C188 1.394 . S
C189 C190 1.383 . S
C189 H197 0.929 . S
C190 C189 1.383 . S
C190 C191 1.377 . S
C191 H175 0.930 . S
C191 C190 1.377 . S
C191 C192 1.379 . S
C192 H176 0.931 . S
C192 C186 1.383 . S
C192 C191 1.379 . S
H193 C187 0.959 . S
H194 C187 0.961 . S
H195 C187 0.960 . S
H196 C188 0.930 . S
H197 C189 0.929 . S
H198 C206 0.929 . S
H199 C208 0.930 . S
H200 C210 0.930 . S
H201 C213 0.929 . S
H202 C216 0.930 . S
H203 C218 0.960 . S
H204 C218 0.960 . S
H205 C218 0.960 . S
C206 H198 0.929 . S
C206 C207 1.377 . S
C206 C208 1.384 . S
C207 C206 1.377 . S
C207 C213 1.390 1_554 S
C208 H199 0.930 . S
C208 C206 1.384 . S
C208 C209 1.372 . S
C209 C208 1.372 . S
C209 C210 1.400 1_554 S
C209 C214 1.490 . S
C210 H200 0.930 . S
C210 C209 1.400 1_556 S
C210 C213 1.386 . S
H211 C227 0.930 . S
H212 C228 0.931 . S
C213 H201 0.929 . S
C213 C207 1.390 1_556 S
C213 C210 1.386 . S
C214 C209 1.490 . S
C214 C216 1.395 . S
C214 C217 1.403 . S
H215 C221 0.930 . S
C216 H202 0.930 . S
C216 C214 1.395 . S
C216 C219 1.403 . S
C217 C214 1.403 . S
C217 C218 1.524 . S
C217 C221 1.400 . S
C218 H203 0.960 . S
C218 H204 0.960 . S
C218 H205 0.960 . S
C218 C217 1.524 . S
C219 C216 1.403 . S
C219 C220 1.392 . S
C219 C223 1.494 1_554 S
C220 C219 1.392 . S
C220 C221 1.385 . S
C220 C222 1.478 . S
C221 H215 0.930 . S
C221 C217 1.400 . S
C221 C220 1.385 . S
C222 C220 1.478 . S
C222 C224 1.381 . S
C222 C228 1.383 1_554 S
C223 C219 1.494 1_556 S
C223 H229 0.960 . S
C223 H230 0.966 . S
C223 H231 0.955 1_556 S
C224 C222 1.381 . S
C224 C225 1.394 . S
C224 H232 0.930 . S
C225 C224 1.394 . S
C225 C226 1.383 . S
C225 H233 0.929 . S
C226 C225 1.383 . S
C226 C227 1.377 1_554 S
C227 H211 0.930 . S
C227 C226 1.377 1_556 S
C227 C228 1.379 . S
C228 H212 0.931 . S
C228 C222 1.383 1_556 S
C228 C227 1.379 . S
H229 C223 0.960 . S
H230 C223 0.966 . S
H231 C223 0.955 1_554 S
H232 C224 0.930 . S
H233 C225 0.929 . S
H234 C242 0.929 . S
H235 C244 0.930 . S
H236 C246 0.930 . S
H237 C249 0.929 . S
H238 C252 0.930 . S
H239 C254 0.960 . S
H240 C254 0.960 . S
H241 C254 0.960 . S
C242 H234 0.929 . S
C242 C243 1.377 . S
C242 C244 1.384 . S
C243 C242 1.377 . S
C243 C249 1.390 . S
C244 H235 0.930 . S
C244 C242 1.384 . S
C244 C245 1.372 . S
C245 C244 1.372 . S
C245 C246 1.400 . S
C245 C250 1.490 . S
C246 H236 0.930 . S
C246 C245 1.400 . S
C246 C249 1.386 . S
H247 C263 0.930 . S
H248 C264 0.931 . S
C249 H237 0.929 . S
C249 C243 1.390 . S
C249 C246 1.386 . S
C250 C245 1.490 . S
C250 C252 1.395 . S
C250 C253 1.403 . S
H251 C257 0.930 . S
C252 H238 0.930 . S
C252 C250 1.395 . S
C252 C255 1.403 . S
C253 C250 1.403 . S
C253 C254 1.524 . S
C253 C257 1.400 . S
C254 H239 0.960 . S
C254 H240 0.960 . S
C254 H241 0.960 . S
C254 C253 1.524 . S
C255 C252 1.403 . S
C255 C256 1.392 . S
C255 C259 1.495 . S
C256 C255 1.392 . S
C256 C257 1.385 . S
C256 C258 1.478 . S
C257 H251 0.930 . S
C257 C253 1.400 . S
C257 C256 1.385 . S
C258 C256 1.478 . S
C258 C260 1.381 . S
C258 C264 1.383 . S
C259 C255 1.495 . S
C259 H265 0.959 . S
C259 H266 0.961 . S
C259 H267 0.960 . S
C260 C258 1.381 . S
C260 C261 1.394 . S
C260 H268 0.930 . S
C261 C260 1.394 . S
C261 C262 1.383 . S
C261 H269 0.929 . S
C262 C261 1.383 . S
C262 C263 1.377 . S
C263 H247 0.930 . S
C263 C262 1.377 . S
C263 C264 1.379 . S
C264 H248 0.931 . S
C264 C258 1.383 . S
C264 C263 1.379 . S
H265 C259 0.959 . S
H266 C259 0.961 . S
H267 C259 0.960 . S
H268 C260 0.930 . S
H269 C261 0.929 . S
H270 C278 0.929 . S
H271 C280 0.930 . S
H272 C282 0.930 . S
H273 C285 0.929 . S
H274 C288 0.930 . S
H275 C290 0.960 . S
H276 C290 0.960 . S
H277 C290 0.960 . S
C278 H270 0.929 . S
C278 C279 1.377 . S
C278 C280 1.384 . S
C279 C278 1.377 . S
C279 C285 1.390 . S
C280 H271 0.930 . S
C280 C278 1.384 . S
C280 C281 1.372 . S
C281 C280 1.372 . S
C281 C282 1.400 . S
C281 C286 1.490 . S
C282 H272 0.930 . S
C282 C281 1.400 . S
C282 C285 1.386 . S
H283 C299 0.930 . S
H284 C300 0.931 . S
C285 H273 0.929 . S
C285 C279 1.390 . S
C285 C282 1.386 . S
C286 C281 1.490 . S
C286 C288 1.395 . S
C286 C289 1.403 . S
H287 C293 0.930 . S
C288 H274 0.930 . S
C288 C286 1.395 . S
C288 C291 1.403 . S
C289 C286 1.403 . S
C289 C290 1.524 . S
C289 C293 1.400 . S
C290 H275 0.960 . S
C290 H276 0.960 . S
C290 H277 0.960 . S
C290 C289 1.524 . S
C291 C288 1.403 . S
C291 C292 1.392 . S
C291 C295 1.495 . S
C292 C291 1.392 . S
C292 C293 1.385 . S
C292 C294 1.478 . S
C293 H287 0.930 . S
C293 C289 1.400 . S
C293 C292 1.385 . S
C294 C292 1.478 . S
C294 C296 1.381 . S
C294 C300 1.383 . S
C295 C291 1.495 . S
C295 H301 0.959 . S
C295 H302 0.961 . S
C295 H303 0.960 . S
C296 C294 1.381 . S
C296 C297 1.394 . S
C296 H304 0.930 . S
C297 C296 1.394 . S
C297 C298 1.383 . S
C297 H305 0.929 . S
C298 C297 1.383 . S
C298 C299 1.377 . S
C299 H283 0.930 . S
C299 C298 1.377 . S
C299 C300 1.379 . S
C300 H284 0.931 . S
C300 C294 1.383 . S
C300 C299 1.379 . S
H301 C295 0.959 . S
H302 C295 0.961 . S
H303 C295 0.960 . S
H304 C296 0.930 . S
H305 C297 0.929 . S
H306 C314 0.929 . S
H307 C316 0.930 . S
H308 C318 0.930 . S
H309 C321 0.929 . S
H310 C324 0.930 . S
H311 C326 0.960 . S
H312 C326 0.960 . S
H313 C326 0.960 . S
C314 H306 0.929 . S
C314 C315 1.377 . S
C314 C316 1.384 . S
C315 C314 1.377 . S
C315 C321 1.390 . S
C316 H307 0.930 . S
C316 C314 1.384 . S
C316 C317 1.372 . S
C317 C316 1.372 . S
C317 C318 1.400 . S
C317 C322 1.490 . S
C318 H308 0.930 . S
C318 C317 1.400 . S
C318 C321 1.386 . S
H319 C335 0.930 . S
H320 C336 0.931 . S
C321 H309 0.929 . S
C321 C315 1.390 . S
C321 C318 1.386 . S
C322 C317 1.490 . S
C322 C324 1.395 . S
C322 C325 1.403 . S
H323 C329 0.930 . S
C324 H310 0.930 . S
C324 C322 1.395 . S
C324 C327 1.403 . S
C325 C322 1.403 . S
C325 C326 1.524 . S
C325 C329 1.400 . S
C326 H311 0.960 . S
C326 H312 0.960 . S
C326 H313 0.960 . S
C326 C325 1.524 . S
C327 C324 1.403 . S
C327 C328 1.392 . S
C327 C331 1.495 . S
C328 C327 1.392 . S
C328 C329 1.385 . S
C328 C330 1.478 . S
C329 H323 0.930 . S
C329 C325 1.400 . S
C329 C328 1.385 . S
C330 C328 1.478 . S
C330 C332 1.381 . S
C330 C336 1.383 . S
C331 C327 1.495 . S
C331 H337 0.959 . S
C331 H338 0.961 . S
C331 H339 0.960 . S
C332 C330 1.381 . S
C332 C333 1.394 . S
C332 H340 0.930 . S
C333 C332 1.394 . S
C333 C334 1.383 . S
C333 H341 0.929 . S
C334 C333 1.383 . S
C334 C335 1.377 . S
C335 H319 0.930 . S
C335 C334 1.377 . S
C335 C336 1.379 . S
C336 H320 0.931 . S
C336 C330 1.383 . S
C336 C335 1.379 . S
H337 C331 0.959 . S
H338 C331 0.961 . S
H339 C331 0.960 . S
H340 C332 0.930 . S
H341 C333 0.929 . S
H342 C350 0.929 . S
H343 C352 0.930 . S
H344 C354 0.930 . S
H345 C357 0.929 . S
H346 C360 0.930 . S
H347 C362 0.960 . S
H348 C362 0.960 . S
H349 C362 0.960 . S
C350 H342 0.929 . S
C350 C351 1.377 . S
C350 C352 1.384 . S
C351 C350 1.377 . S
C351 C357 1.390 . S
C352 H343 0.930 . S
C352 C350 1.384 . S
C352 C353 1.372 . S
C353 C352 1.372 . S
C353 C354 1.400 . S
C353 C358 1.490 . S
C354 H344 0.930 . S
C354 C353 1.400 . S
C354 C357 1.386 . S
H355 C371 0.930 . S
H356 C372 0.931 . S
C357 H345 0.929 . S
C357 C351 1.390 . S
C357 C354 1.386 . S
C358 C353 1.490 . S
C358 C360 1.395 . S
C358 C361 1.403 . S
H359 C365 0.930 . S
C360 H346 0.930 . S
C360 C358 1.395 . S
C360 C363 1.403 . S
C361 C358 1.403 . S
C361 C362 1.524 . S
C361 C365 1.400 . S
C362 H347 0.960 . S
C362 H348 0.960 . S
C362 H349 0.960 . S
C362 C361 1.524 . S
C363 C360 1.403 . S
C363 C364 1.392 . S
C363 C367 1.495 . S
C364 C363 1.392 . S
C364 C365 1.385 . S
C364 C366 1.478 . S
C365 H359 0.930 . S
C365 C361 1.400 . S
C365 C364 1.385 . S
C366 C364 1.478 . S
C366 C368 1.381 . S
C366 C372 1.383 . S
C367 C363 1.495 . S
C367 H373 0.959 . S
C367 H374 0.961 . S
C367 H375 0.960 . S
C368 C366 1.381 . S
C368 C369 1.394 . S
C368 H376 0.930 . S
C369 C368 1.394 . S
C369 C370 1.383 . S
C369 H377 0.929 . S
C370 C369 1.383 . S
C370 C371 1.377 . S
C371 H355 0.930 . S
C371 C370 1.377 . S
C371 C372 1.379 . S
C372 H356 0.931 . S
C372 C366 1.383 . S
C372 C371 1.379 . S
H373 C367 0.959 . S
H374 C367 0.961 . S
H375 C367 0.960 . S
H376 C368 0.930 . S
H377 C369 0.929 . S
H378 C386 0.929 . S
H379 C388 0.930 . S
H380 C390 0.930 . S
H381 C393 0.929 . S
H382 C396 0.930 . S
H383 C398 0.960 . S
H384 C398 0.960 . S
H385 C398 0.960 . S
C386 H378 0.929 . S
C386 C387 1.377 . S
C386 C388 1.384 . S
C387 C386 1.377 . S
C387 C393 1.390 . S
C388 H379 0.930 . S
C388 C386 1.384 . S
C388 C389 1.372 . S
C389 C388 1.372 . S
C389 C390 1.400 . S
C389 C394 1.490 . S
C390 H380 0.930 . S
C390 C389 1.400 . S
C390 C393 1.386 . S
H391 C407 0.930 . S
H392 C408 0.931 . S
C393 H381 0.929 . S
C393 C387 1.390 . S
C393 C390 1.386 . S
C394 C389 1.490 . S
C394 C396 1.395 . S
C394 C397 1.403 . S
H395 C401 0.930 . S
C396 H382 0.930 . S
C396 C394 1.395 . S
C396 C399 1.403 . S
C397 C394 1.403 . S
C397 C398 1.524 . S
C397 C401 1.400 . S
C398 H383 0.960 . S
C398 H384 0.960 . S
C398 H385 0.960 . S
C398 C397 1.524 . S
C399 C396 1.403 . S
C399 C400 1.392 . S
C399 C403 1.495 . S
C400 C399 1.392 . S
C400 C401 1.385 . S
C400 C402 1.478 . S
C401 H395 0.930 . S
C401 C397 1.400 . S
C401 C400 1.385 . S
C402 C400 1.478 . S
C402 C404 1.381 . S
C402 C408 1.383 . S
C403 C399 1.495 . S
C403 H409 0.959 . S
C403 H410 0.961 . S
C403 H411 0.960 . S
C404 C402 1.381 . S
C404 C405 1.394 . S
C404 H412 0.930 . S
C405 C404 1.394 . S
C405 C406 1.383 . S
C405 H413 0.929 . S
C406 C405 1.383 . S
C406 C407 1.377 . S
C407 H391 0.930 . S
C407 C406 1.377 . S
C407 C408 1.379 . S
C408 H392 0.931 . S
C408 C402 1.383 . S
C408 C407 1.379 . S
H409 C403 0.959 . S
H410 C403 0.961 . S
H411 C403 0.960 . S
H412 C404 0.930 . S
H413 C405 0.929 . S
H414 C422 0.929 . S
H415 C424 0.930 . S
H416 C426 0.930 . S
H417 C429 0.929 . S
H418 C432 0.930 . S
H419 C434 0.960 . S
H420 C434 0.960 . S
H421 C434 0.960 . S
C422 H414 0.929 . S
C422 C423 1.377 . S
C422 C424 1.384 . S
C423 C422 1.377 . S
C423 C429 1.390 . S
C424 H415 0.930 . S
C424 C422 1.384 . S
C424 C425 1.372 . S
C425 C424 1.372 . S
C425 C426 1.400 . S
C425 C430 1.490 . S
C426 H416 0.930 . S
C426 C425 1.400 . S
C426 C429 1.386 . S
H427 C443 0.930 . S
H428 C444 0.931 . S
C429 H417 0.929 . S
C429 C423 1.390 . S
C429 C426 1.386 . S
C430 C425 1.490 . S
C430 C432 1.395 . S
C430 C433 1.403 . S
H431 C437 0.930 . S
C432 H418 0.930 . S
C432 C430 1.395 . S
C432 C435 1.403 . S
C433 C430 1.403 . S
C433 C434 1.524 . S
C433 C437 1.400 . S
C434 H419 0.960 . S
C434 H420 0.960 . S
C434 H421 0.960 . S
C434 C433 1.524 . S
C435 C432 1.403 . S
C435 C436 1.392 . S
C435 C439 1.495 . S
C436 C435 1.392 . S
C436 C437 1.385 . S
C436 C438 1.478 . S
C437 H431 0.930 . S
C437 C433 1.400 . S
C437 C436 1.385 . S
C438 C436 1.478 . S
C438 C440 1.381 . S
C438 C444 1.383 . S
C439 C435 1.495 . S
C439 H445 0.959 . S
C439 H446 0.961 . S
C439 H447 0.960 . S
C440 C438 1.381 . S
C440 C441 1.394 . S
C440 H448 0.930 . S
C441 C440 1.394 . S
C441 C442 1.383 . S
C441 H449 0.929 . S
C442 C441 1.383 . S
C442 C443 1.377 . S
C443 H427 0.930 . S
C443 C442 1.377 . S
C443 C444 1.379 . S
C444 H428 0.931 . S
C444 C438 1.383 . S
C444 C443 1.379 . S
H445 C439 0.959 . S
H446 C439 0.961 . S
H447 C439 0.960 . S
H448 C440 0.930 . S
H449 C441 0.929 . S
H450 C458 0.929 . S
H451 C460 0.930 . S
H452 C462 0.930 . S
H453 C465 0.929 . S
H454 C468 0.930 . S
H455 C470 0.960 . S
H456 C470 0.960 . S
H457 C470 0.960 . S
C458 H450 0.929 . S
C458 C459 1.377 . S
C458 C460 1.384 . S
C459 C458 1.377 . S
C459 C465 1.390 . S
C460 H451 0.930 . S
C460 C458 1.384 . S
C460 C461 1.372 . S
C461 C460 1.372 . S
C461 C462 1.400 . S
C461 C466 1.490 . S
C462 H452 0.930 . S
C462 C461 1.400 . S
C462 C465 1.386 . S
H463 C479 0.930 . S
H464 C480 0.931 . S
C465 H453 0.929 . S
C465 C459 1.390 . S
C465 C462 1.386 . S
C466 C461 1.490 . S
C466 C468 1.395 . S
C466 C469 1.403 . S
H467 C473 0.930 . S
C468 H454 0.930 . S
C468 C466 1.395 . S
C468 C471 1.403 . S
C469 C466 1.403 . S
C469 C470 1.524 . S
C469 C473 1.400 . S
C470 H455 0.960 . S
C470 H456 0.960 . S
C470 H457 0.960 . S
C470 C469 1.524 . S
C471 C468 1.403 . S
C471 C472 1.392 . S
C471 C475 1.495 . S
C472 C471 1.392 . S
C472 C473 1.385 . S
C472 C474 1.478 . S
C473 H467 0.930 . S
C473 C469 1.400 . S
C473 C472 1.385 . S
C474 C472 1.478 . S
C474 C476 1.381 . S
C474 C480 1.383 . S
C475 C471 1.495 . S
C475 H481 0.959 . S
C475 H482 0.961 . S
C475 H483 0.960 . S
C476 C474 1.381 . S
C476 C477 1.394 . S
C476 H484 0.930 . S
C477 C476 1.394 . S
C477 C478 1.383 . S
C477 H485 0.929 . S
C478 C477 1.383 . S
C478 C479 1.377 . S
C479 H463 0.930 . S
C479 C478 1.377 . S
C479 C480 1.379 . S
C480 H464 0.931 . S
C480 C474 1.383 . S
C480 C479 1.379 . S
H481 C475 0.959 . S
H482 C475 0.961 . S
H483 C475 0.960 . S
H484 C476 0.930 . S
H485 C477 0.929 . S
H486 C494 0.929 . S
H487 C496 0.930 . S
H488 C498 0.930 . S
H489 C501 0.929 . S
H490 C504 0.930 . S
H491 C506 0.960 . S
H492 C506 0.960 . S
H493 C506 0.960 . S
C494 H486 0.929 . S
C494 C495 1.377 . S
C494 C496 1.384 . S
C495 C494 1.377 . S
C495 C501 1.390 . S
C496 H487 0.930 . S
C496 C494 1.384 . S
C496 C497 1.372 . S
C497 C496 1.372 . S
C497 C498 1.400 . S
C497 C502 1.490 . S
C498 H488 0.930 . S
C498 C497 1.400 . S
C498 C501 1.386 . S
H499 C515 0.930 . S
H500 C516 0.931 . S
C501 H489 0.929 . S
C501 C495 1.390 . S
C501 C498 1.386 . S
C502 C497 1.490 . S
C502 C504 1.395 . S
C502 C505 1.403 . S
H503 C509 0.930 . S
C504 H490 0.930 . S
C504 C502 1.395 . S
C504 C507 1.403 . S
C505 C502 1.403 . S
C505 C506 1.524 . S
C505 C509 1.400 . S
C506 H491 0.960 . S
C506 H492 0.960 . S
C506 H493 0.960 . S
C506 C505 1.524 . S
C507 C504 1.403 . S
C507 C508 1.392 . S
C507 C511 1.495 . S
C508 C507 1.392 . S
C508 C509 1.385 . S
C508 C510 1.478 . S
C509 H503 0.930 . S
C509 C505 1.400 . S
C509 C508 1.385 . S
C510 C508 1.478 . S
C510 C512 1.381 . S
C510 C516 1.383 . S
C511 C507 1.495 . S
C511 H517 0.959 . S
C511 H518 0.961 . S
C511 H519 0.960 . S
C512 C510 1.381 . S
C512 C513 1.394 . S
C512 H520 0.930 . S
C513 C512 1.394 . S
C513 C514 1.383 . S
C513 H521 0.929 . S
C514 C513 1.383 . S
C514 C515 1.377 . S
C515 H499 0.930 . S
C515 C514 1.377 . S
C515 C516 1.379 . S
C516 H500 0.931 . S
C516 C510 1.383 . S
C516 C515 1.379 . S
H517 C511 0.959 . S
H518 C511 0.961 . S
H519 C511 0.960 . S
H520 C512 0.930 . S
H521 C513 0.929 . S
C118 C61 1.482 . S
C99 N37 1.479 . S
C135 N4 1.480 . S
C154 C84 1.479 . S
C171 N15 1.514 . S
C190 C60 1.518 . S
C207 N26 1.514 . S
C226 C83 1.516 . S
C262 C64 1.492 . S
C243 C9 1.491 . S
C298 C86 1.509 . S
C279 C17 1.546 . S
C315 C31 1.512 . S
C334 C65 1.489 . S
C351 C42 1.513 . S
C370 C85 1.468 . S
C406 C88 1.354 . S
C387 C20 1.405 . S
C442 C63 1.411 . S
C423 C28 1.453 . S
C478 C87 1.400 . S
C459 C39 1.412 . S
C495 C6 1.430 . S
C514 C62 1.367 . S
