# Generated by pormake.
# Topology tsx, (6,3)-cn, num edge types: 1
# Building blocks:
#     Node 0, Type 0, BuildingBlock: FUNLAD_clean_sbu_0, # of connection points: 6
#     Node 1, Type 0, BuildingBlock: FUNLAD_clean_sbu_0, # of connection points: 6
#     Node 2, Type 1, BuildingBlock: BELTOD_clean_linker_0, # of connection points: 3
#     Node 3, Type 1, BuildingBlock: BELTOD_clean_linker_0, # of connection points: 3
#     Node 4, Type 1, BuildingBlock: BELTOD_clean_linker_0, # of connection points: 3
#     Node 5, Type 1, BuildingBlock: BELTOD_clean_linker_0, # of connection points: 3
#     Edge 6, Type (0, 1), BuildingBlock: MIFKUJ_clean_linker_0, # of connection points: 2
#     Edge 7, Type (0, 1), BuildingBlock: MIFKUJ_clean_linker_0, # of connection points: 2
#     Edge 8, Type (0, 1), BuildingBlock: MIFKUJ_clean_linker_0, # of connection points: 2
#     Edge 9, Type (0, 1), BuildingBlock: MIFKUJ_clean_linker_0, # of connection points: 2
#     Edge 10, Type (0, 1), BuildingBlock: MIFKUJ_clean_linker_0, # of connection points: 2
#     Edge 11, Type (0, 1), BuildingBlock: MIFKUJ_clean_linker_0, # of connection points: 2
#     Edge 12, Type (0, 1), BuildingBlock: MIFKUJ_clean_linker_0, # of connection points: 2
#     Edge 13, Type (0, 1), BuildingBlock: MIFKUJ_clean_linker_0, # of connection points: 2
#     Edge 14, Type (0, 1), BuildingBlock: MIFKUJ_clean_linker_0, # of connection points: 2
#     Edge 15, Type (0, 1), BuildingBlock: MIFKUJ_clean_linker_0, # of connection points: 2
#     Edge 16, Type (0, 1), BuildingBlock: MIFKUJ_clean_linker_0, # of connection points: 2
#     Edge 17, Type (0, 1), BuildingBlock: MIFKUJ_clean_linker_0, # of connection points: 2
# Relax obj value: 0.152
# Max RMSD: 0.149
# Mean RMSD: 0.084
data_MOF--net-tsx--node1-FUNLAD_clean_sbu_0--node2-BELTOD_clean_linker_0--edge1-MIFKUJ_clean_linker_0
_symmetry_space_group_name_H-M    P1
_symmetry_Int_Tables_number       1
_symmetry_cell_setting            triclinic
loop_
_symmetry_equiv_pos_as_xyz
'x, y, z'
_cell_length_a     27.228184
_cell_length_b     30.205505
_cell_length_c     56.613998
_cell_angle_alpha  91.710655
_cell_angle_beta   92.049989
_cell_angle_gamma 90.108398
loop_
_atom_site_label
_atom_site_type_symbol
_atom_site_fract_x
_atom_site_fract_y
_atom_site_fract_z
_atom_type_partial_charge
C0 C 0.89827 0.94186 0.00448 0.0
N1 N 0.97511 0.00191 0.06312 0.0
C2 C 0.93289 0.00549 0.0752 0.0
C3 C 0.93451 0.00635 0.09993 0.0
C4 C 0.97997 0.00317 0.11232 0.0
C5 C 0.02279 -0.00104 0.09936 0.0
C6 C 0.01954 0.99853 0.07471 0.0
Zn7 Zn 0.9736 0.00312 0.02692 0.0
C8 C 0.04033 0.93689 0.00618 0.0
N9 N 0.97292 0.00655 0.95126 0.0
C10 C 0.93133 0.00725 0.93718 0.0
C11 C 0.01809 0.00426 0.94176 0.0
C12 C 0.02278 0.00138 0.91735 0.0
C13 C 0.98063 0.00096 0.90235 0.0
C14 C 0.93438 0.00468 0.9125 0.0
Zn15 Zn 0.97127 0.0058 0.98751 0.0
O16 O 0.91595 0.95575 0.02447 0.0
C17 C 0.90396 0.07174 0.00856 0.0
O18 O 0.91454 0.95759 0.98567 0.0
H19 H 0.05078 0.0039 0.95317 0.0
H20 H 0.89795 0.00805 0.06564 0.0
H21 H 0.89577 0.00898 0.94509 0.0
O22 O 0.92167 0.05505 0.02737 0.0
O23 O 0.91822 0.05733 0.98858 0.0
H24 H 0.05273 0.99606 0.06483 0.0
O25 O 0.02874 0.05375 0.98999 0.0
O26 O 0.03169 0.05005 0.02862 0.0
O27 O 0.02375 0.95399 0.9873 0.0
O28 O 0.0254 0.95124 0.02595 0.0
C29 C 0.04807 0.0659 0.0099 0.0
H30 H 0.90057 0.00931 0.10926 0.0
H31 H 0.05866 0.9971 0.10818 0.0
H32 H 0.05917 -0.00065 0.91028 0.0
H33 H 0.90096 0.00431 0.90154 0.0
C34 C 0.39806 0.44055 0.49798 0.0
N35 N 0.47215 0.50504 0.55599 0.0
C36 C 0.43009 0.50789 0.56824 0.0
C37 C 0.43217 0.50983 0.59297 0.0
C38 C 0.47794 0.50845 0.60521 0.0
C39 C 0.52062 0.50474 0.5921 0.0
C40 C 0.51689 0.50326 0.56743 0.0
Zn41 Zn 0.46951 0.50594 0.51974 0.0
C42 C 0.54081 0.44499 0.49825 0.0
N43 N 0.46572 0.51007 0.44411 0.0
C44 C 0.42367 0.50686 0.43041 0.0
C45 C 0.5104 0.51245 0.43418 0.0
C46 C 0.51418 0.51104 0.40969 0.0
C47 C 0.4716 0.50733 0.39502 0.0
C48 C 0.42578 0.50543 0.4057 0.0
Zn49 Zn 0.46539 0.50898 0.48038 0.0
O50 O 0.41439 0.45645 0.51781 0.0
C51 C 0.39476 0.57071 0.50175 0.0
O52 O 0.41361 0.45606 0.47896 0.0
H53 H 0.54349 0.5147 0.44528 0.0
H54 H 0.39489 0.50919 0.55881 0.0
H55 H 0.38852 0.50495 0.43865 0.0
O56 O 0.4154 0.55628 0.52048 0.0
O57 O 0.40743 0.55556 0.48166 0.0
H58 H 0.54993 0.5014 0.55741 0.0
O59 O 0.51767 0.5615 0.48257 0.0
O60 O 0.5246 0.55536 0.52104 0.0
O61 O 0.52314 0.46278 0.4798 0.0
O62 O 0.52406 0.45572 0.51827 0.0
C63 C 0.53756 0.57373 0.50235 0.0
H64 H 0.39834 0.51229 0.60241 0.0
H65 H 0.55668 0.50418 0.60081 0.0
H66 H 0.55037 0.51172 0.40237 0.0
H67 H 0.39193 0.50294 0.39511 0.0
P68 P 0.10436 0.10262 0.44153 0.0
H69 H 0.08673 0.18932 0.46427 0.0
H70 H 0.01142 0.22759 0.47518 0.0
H71 H 0.92583 0.11343 0.45117 0.0
H72 H 0.00124 0.07551 0.43974 0.0
H73 H 0.19712 0.0572 0.44811 0.0
H74 H 0.22097 0.98942 0.46788 0.0
H75 H 0.07285 0.97495 0.49158 0.0
H76 H 0.04926 0.04248 0.47166 0.0
H77 H 0.09529 0.15606 0.4 0.0
H78 H 0.08656 0.01743 0.41557 0.0
O79 O 0.15085 0.13878 0.44355 0.0
H80 H 0.07536 0.13854 0.35832 0.0
H81 H 0.06631 -0.00036 0.37386 0.0
C82 C 0.04964 0.1292 0.45165 0.0
C83 C 0.05195 0.17217 0.46168 0.0
C84 C 0.00894 0.19413 0.46779 0.0
C85 C 0.96306 0.17325 0.46412 0.0
C86 C 0.96088 0.12992 0.45446 0.0
C87 C 0.00386 0.10829 0.44798 0.0
C88 C 0.12155 0.05508 0.45839 0.0
C89 C 0.17 0.03981 0.45787 0.0
C90 C 0.18361 0.00117 0.46931 0.0
C91 C 0.14873 0.97678 0.4813 0.0
C92 C 0.10037 0.99274 0.48224 0.0
C93 C 0.08686 0.03148 0.47081 0.0
C94 C 0.09321 0.08805 0.41077 0.0
C95 C 0.0895 0.12179 0.39438 0.0
C96 C 0.07767 0.11176 0.37062 0.0
C97 C 0.06915 0.0677 0.36281 0.0
C98 C 0.0732 0.03383 0.3793 0.0
C99 C 0.08478 0.04398 0.40315 0.0
P100 P 0.10184 0.91116 0.57553 0.0
H101 H 0.07897 0.84695 0.53702 0.0
H102 H 0.00142 0.8146 0.52151 0.0
H103 H 0.92171 0.90123 0.56862 0.0
H104 H 0.99929 0.9327 0.58428 0.0
H105 H 0.19894 0.9385 0.56141 0.0
H106 H 0.22895 0.00465 0.54319 0.0
H107 H 0.08104 0.05698 0.54013 0.0
H108 H 0.05122 0.98938 0.55732 0.0
H109 H 0.08779 0.85408 0.61511 0.0
H110 H 0.09468 0.99455 0.604 0.0
O111 O 0.14363 0.87103 0.57327 0.0
H112 H 0.07058 0.8687 0.65671 0.0
H113 H 0.07821 0.00942 0.64556 0.0
C114 C 0.04479 0.89125 0.56223 0.0
C115 C 0.04473 0.85905 0.5439 0.0
C116 C 0.00037 0.84087 0.53493 0.0
C117 C 0.95542 0.85492 0.54409 0.0
C118 C 0.95574 0.889 0.56157 0.0
C119 C 6e-05 0.90709 0.57051 0.0
C120 C 0.12284 0.95889 0.56052 0.0
C121 C 0.17289 0.96399 0.55654 0.0
C122 C 0.19008 0.00226 0.54633 0.0
C123 C 0.15764 0.03671 0.54027 0.0
C124 C 0.1072 0.03108 0.54411 0.0
C125 C 0.09 0.99245 0.55408 0.0
C126 C 0.09322 0.92311 0.6065 0.0
C127 C 0.08628 0.88806 0.62171 0.0
C128 C 0.0765 0.89649 0.64549 0.0
C129 C 0.07313 0.94026 0.65451 0.0
C130 C 0.08008 0.97534 0.63915 0.0
C131 C 0.08994 0.96683 0.61536 0.0
P132 P 0.58745 0.5917 0.93729 0.0
H133 H 0.57078 0.66305 0.97222 0.0
H134 H 0.49579 0.69588 0.98741 0.0
H135 H 0.40886 0.59966 0.94614 0.0
H136 H 0.48404 0.56736 0.93082 0.0
H137 H 0.66412 0.52911 0.92629 0.0
H138 H 0.69398 0.46248 0.94496 0.0
H139 H 0.58693 0.47991 0.99915 0.0
H140 H 0.55536 0.54519 0.97937 0.0
H141 H 0.58442 0.65067 0.89751 0.0
H142 H 0.56126 0.51165 0.90855 0.0
O143 O 0.63254 0.62905 0.94088 0.0
H144 H 0.56657 0.63864 0.85509 0.0
H145 H 0.54376 0.49934 0.86618 0.0
C146 C 0.53273 0.61356 0.94995 0.0
C147 C 0.53559 0.64896 0.96651 0.0
C148 C 0.49272 0.66746 0.97533 0.0
C149 C 0.44639 0.65067 0.96776 0.0
C150 C 0.44397 0.61386 0.95194 0.0
C151 C 0.48685 0.59535 0.9432 0.0
C152 C 0.60747 0.54192 0.95132 0.0
C153 C 0.64685 0.51833 0.94209 0.0
C154 C 0.66428 0.48046 0.95304 0.0
C155 C 0.64351 0.46595 0.9739 0.0
C156 C 0.60364 0.4897 0.98304 0.0
C157 C 0.58564 0.52727 0.97177 0.0
C158 C 0.57549 0.5819 0.90606 0.0
C159 C 0.5759 0.6175 0.89077 0.0
C160 C 0.56533 0.61064 0.86658 0.0
C161 C 0.5541 0.56797 0.85729 0.0
C162 C 0.55311 0.53244 0.87276 0.0
C163 C 0.56321 0.53944 0.89698 0.0
P164 P 0.6223 0.40108 0.07283 0.0
H165 H 0.60365 0.30619 0.06791 0.0
H166 H 0.53264 0.26327 0.05264 0.0
H167 H 0.46374 0.38329 0.02872 0.0
H168 H 0.53467 0.42608 0.04397 0.0
H169 H 0.70936 0.42194 0.04647 0.0
H170 H 0.73646 0.48885 0.02757 0.0
H171 H 0.60083 0.55365 0.04532 0.0
H172 H 0.57395 0.48655 0.06438 0.0
H173 H 0.56812 0.35157 0.10701 0.0
H174 H 0.63485 0.48081 0.10412 0.0
O175 O 0.6716 0.36878 0.07613 0.0
H176 H 0.54409 0.36804 0.14725 0.0
H177 H 0.60837 0.49866 0.1439 0.0
C178 C 0.57464 0.36944 0.05712 0.0
C179 C 0.57377 0.32325 0.05895 0.0
C180 C 0.53309 0.29874 0.05033 0.0
C181 C 0.49253 0.32004 0.03971 0.0
C182 C 0.49463 0.366 0.0367 0.0
C183 C 0.53521 0.39055 0.04553 0.0
C184 C 0.6397 0.44926 0.05695 0.0
C185 C 0.68524 0.45038 0.04621 0.0
C186 C 0.70078 0.4887 0.03544 0.0
C187 C 0.67091 0.52659 0.0351 0.0
C188 C 0.62444 0.52483 0.04509 0.0
C189 C 0.60905 0.48649 0.05598 0.0
C190 C 0.60193 0.41539 0.10211 0.0
C191 C 0.57662 0.38395 0.11479 0.0
C192 C 0.56264 0.39356 0.13789 0.0
C193 C 0.57365 0.43497 0.14892 0.0
C194 C 0.59945 0.4663 0.13616 0.0
C195 C 0.61401 0.45637 0.11314 0.0
H196 H 0.10581 0.08872 0.04878 0.0
H197 H 0.17838 0.13623 0.05075 0.0
H198 H 0.15955 0.1604 0.97624 0.0
H199 H 0.08741 0.1117 0.97398 0.0
H200 H 0.2528 0.14579 0.9866 0.0
H201 H 0.13147 0.24036 0.01821 0.0
H202 H 0.06313 0.2624 0.04339 0.0
H203 H 0.15579 0.24671 0.10553 0.0
H204 H 0.22455 0.2239 0.08074 0.0
H205 H 0.43466 0.32113 0.99904 0.0
H206 H 0.3559 0.28249 0.99115 0.0
H207 H 0.36738 0.22568 0.06012 0.0
H208 H 0.44573 0.26391 0.06803 0.0
H209 H 0.27411 0.26417 0.04882 0.0
H210 H 0.39387 0.16426 0.0145 0.0
H211 H 0.46101 0.14704 0.98764 0.0
H212 H 0.36762 0.1794 0.92793 0.0
H213 H 0.30018 0.19767 0.95452 0.0
C214 C 0.11682 0.10436 0.03282 0.0
C215 C 0.09062 0.09661 0.01124 0.0
C216 C 0.1583 0.13168 0.03399 0.0
C217 C 0.17409 0.15249 0.01372 0.0
C218 C 0.14803 0.14481 0.99213 0.0
C219 C 0.10668 0.11712 0.99089 0.0
C220 C 0.21843 0.1814 0.01515 0.0
C221 C 0.25703 0.1722 0.99993 0.0
C222 C 0.22416 0.21588 0.03255 0.0
C223 C 0.1831 0.23009 0.0476 0.0
C224 C 0.13721 0.24133 0.03725 0.0
C225 C 0.09839 0.25399 0.05146 0.0
C226 C 0.10507 0.25587 0.07605 0.0
C227 C 0.15066 0.24521 0.08648 0.0
C228 C 0.1896 0.23247 0.07235 0.0
C229 C 0.42032 0.30026 0.01243 0.0
C230 C 0.44639 0.29521 0.03407 0.0
C231 C 0.37549 0.27825 0.00792 0.0
C232 C 0.35591 0.25131 0.02509 0.0
C233 C 0.38185 0.2464 0.04668 0.0
C234 C 0.4268 0.26787 0.05107 0.0
C235 C 0.30854 0.22774 0.02069 0.0
C236 C 0.26943 0.23807 0.03534 0.0
C237 C 0.30205 0.19492 0.00251 0.0
C238 C 0.34216 0.18278 0.98651 0.0
C239 C 0.38776 0.168 0.99566 0.0
C240 C 0.42586 0.15803 0.98049 0.0
C241 C 0.41863 0.16223 0.9561 0.0
C242 C 0.3732 0.17623 0.94683 0.0
C243 C 0.33502 0.1864 0.96194 0.0
H244 H 0.44819 0.15455 0.94438 0.0
H245 H 0.07496 0.26565 0.08702 0.0
H246 H 0.09577 0.90378 0.04277 0.0
H247 H 0.16083 0.84814 0.04042 0.0
H248 H 0.13379 0.83423 0.96503 0.0
H249 H 0.06887 0.88984 0.96716 0.0
H250 H 0.14809 0.75298 0.98732 0.0
H251 H 0.22432 0.89779 0.98476 0.0
H252 H 0.24264 0.97358 1.00001 0.0
H253 H 0.30677 0.92148 0.06373 0.0
H254 H 0.28812 0.84534 0.04898 0.0
H255 H 0.36571 0.66981 0.94014 0.0
H256 H 0.29283 0.71091 0.95136 0.0
H257 H 0.35106 0.72439 0.02312 0.0
H258 H 0.4246 0.68326 0.01191 0.0
H259 H 0.31887 0.80137 0.00816 0.0
H260 H 0.25233 0.65587 0.00879 0.0
H261 H 0.23366 0.57997 0.99387 0.0
H262 H 0.15098 0.63165 0.93491 0.0
H263 H 0.16975 0.70791 0.94927 0.0
C264 C 0.1034 0.8886 0.02572 0.0
C265 C 0.0775 0.90142 0.00511 0.0
C266 C 0.14057 0.8569 0.02443 0.0
C267 C 0.15222 0.8374 0.00254 0.0
C268 C 0.12525 0.84894 0.98208 0.0
C269 C 0.08839 0.88088 0.98332 0.0
C270 C 0.19421 0.80669 1.00064 0.0
C271 C 0.18551 0.76347 0.99175 0.0
C272 C 0.24272 0.82021 0.00711 0.0
C273 C 0.2543 0.86593 0.0159 0.0
C274 C 0.24195 0.90252 0.00211 0.0
C275 C 0.25245 0.94553 0.01064 0.0
C276 C 0.27571 0.95235 0.03286 0.0
C277 C 0.28866 0.91615 0.04655 0.0
C278 C 0.27815 0.87307 0.03811 0.0
C279 C 0.36262 0.68072 0.95842 0.0
C280 C 0.40079 0.67309 0.97517 0.0
C281 C 0.32089 0.70423 0.96482 0.0
C282 C 0.31613 0.72019 0.98817 0.0
C283 C 0.35393 0.71225 0.00502 0.0
C284 C 0.39591 0.68887 0.99859 0.0
C285 C 0.27307 0.74757 0.99441 0.0
C286 C 0.28149 0.79035 0.0041 0.0
C287 C 0.22428 0.73351 0.98875 0.0
C288 C 0.21277 0.68766 0.98004 0.0
C289 C 0.23048 0.65107 0.99255 0.0
C290 C 0.21982 0.60797 0.9842 0.0
C291 C 0.19123 0.60099 0.96344 0.0
C292 C 0.17314 0.63711 0.95099 0.0
C293 C 0.18373 0.68029 0.95925 0.0
H294 H 0.18301 0.5676 0.95701 0.0
H295 H 0.28382 0.98568 0.03943 0.0
H296 H 0.84927 0.90633 0.04073 0.0
H297 H 0.79995 0.83856 0.03939 0.0
H298 H 0.81735 0.82546 0.9641 0.0
H299 H 0.86672 0.89333 0.96523 0.0
H300 H 0.7146 0.80691 0.01483 0.0
H301 H 0.84558 0.71475 0.95363 0.0
H302 H 0.93089 0.72009 0.94056 0.0
H303 H 0.97488 0.78378 0.00681 0.0
H304 H 0.89007 0.77813 0.02038 0.0
H305 H 0.62274 0.58594 0.00665 0.0
H306 H 0.65367 0.65689 0.99351 0.0
H307 H 0.79089 0.63496 0.03189 0.0
H308 H 0.76132 0.5631 0.04371 0.0
H309 H 0.81006 0.67267 0.99343 0.0
H310 H 0.6887 0.69983 0.0543 0.0
H311 H 0.60527 0.69384 0.06963 0.0
H312 H 0.54571 0.76002 0.00896 0.0
H313 H 0.62873 0.76586 0.99316 0.0
C314 C 0.8419 0.8895 0.02381 0.0
C315 C 0.8624 0.90492 0.00313 0.0
C316 C 0.81345 0.85092 0.02306 0.0
C317 C 0.80542 0.82684 1.00169 0.0
C318 C 0.82341 0.84349 0.98079 0.0
C319 C 0.85159 0.88227 0.98148 0.0
C320 C 0.78301 0.78213 1.0019 0.0
C321 C 0.7352 0.77752 0.00993 0.0
C322 C 0.81002 0.74386 0.9956 0.0
C323 C 0.86138 0.74653 0.98786 0.0
C324 C 0.87353 0.72974 0.96541 0.0
C325 C 0.92178 0.73282 0.95793 0.0
C326 C 0.95824 0.75242 0.97281 0.0
C327 C 0.94658 0.76875 0.99526 0.0
C328 C 0.89842 0.76564 0.00285 0.0
C329 C 0.65982 0.59591 0.01184 0.0
C330 C 0.68976 0.5687 0.026 0.0
C331 C 0.67733 0.63667 0.00451 0.0
C332 C 0.72438 0.65176 0.01202 0.0
C333 C 0.75458 0.62411 0.02573 0.0
C334 C 0.7376 0.58298 0.03252 0.0
C335 C 0.74182 0.69707 0.00692 0.0
C336 C 0.78886 0.70193 0.99789 0.0
C337 C 0.71435 0.73551 0.01266 0.0
C338 C 0.66476 0.733 0.0225 0.0
C339 C 0.65776 0.71301 0.04423 0.0
C340 C 0.61056 0.70958 0.05298 0.0
C341 C 0.57019 0.7264 0.04023 0.0
C342 C 0.57698 0.7469 0.01878 0.0
C343 C 0.62408 0.75031 0.00994 0.0
H344 H 0.53367 0.72364 0.047 0.0
H345 H 0.99554 0.75486 0.96696 0.0
H346 H 0.85588 0.11337 0.97222 0.0
H347 H 0.80037 0.17673 0.97503 0.0
H348 H 0.81444 0.17583 0.05113 0.0
H349 H 0.87014 0.11262 0.04854 0.0
H350 H 0.711 0.19256 0.99687 0.0
H351 H 0.82117 0.28623 0.06994 0.0
H352 H 0.90472 0.28866 0.08839 0.0
H353 H 0.96515 0.24533 0.02262 0.0
H354 H 0.88205 0.24321 0.00373 0.0
H355 H 0.59429 0.40289 0.99859 0.0
H356 H 0.62825 0.33575 0.01554 0.0
H357 H 0.77175 0.37065 0.99179 0.0
H358 H 0.73947 0.43957 0.97723 0.0
H359 H 0.7853 0.33235 0.02975 0.0
H360 H 0.6748 0.29273 0.95846 0.0
H361 H 0.59172 0.2922 0.93939 0.0
H362 H 0.53397 0.22953 0.99965 0.0
H363 H 0.61677 0.22967 0.01899 0.0
C364 C 0.84688 0.12639 0.98956 0.0
C365 C 0.86787 0.10824 0.01013 0.0
C366 C 0.81487 0.16239 0.99114 0.0
C367 C 0.80351 0.18107 0.01328 0.0
C368 C 0.82297 0.16206 0.03387 0.0
C369 C 0.85488 0.12598 0.03232 0.0
C370 C 0.77465 0.22256 0.01454 0.0
C371 C 0.72706 0.22311 0.0042 0.0
C372 C 0.79514 0.26221 0.02455 0.0
C373 C 0.84537 0.26399 0.03555 0.0
C374 C 0.85233 0.27732 0.05943 0.0
C375 C 0.89959 0.27865 0.06995 0.0
C376 C 0.94019 0.26697 0.05671 0.0
C377 C 0.93365 0.25417 0.03288 0.0
C378 C 0.88648 0.25286 0.02227 0.0
C379 C 0.6333 0.3968 0.99743 0.0
C380 C 0.66381 0.42629 0.98583 0.0
C381 C 0.65259 0.35795 0.00692 0.0
C382 C 0.70234 0.34713 0.00434 0.0
C383 C 0.73313 0.37772 0.9939 0.0
C384 C 0.7143 0.41694 0.98506 0.0
C385 C 0.7227 0.30314 0.01069 0.0
C386 C 0.76863 0.30178 0.0228 0.0
C387 C 0.70083 0.26284 0.00216 0.0
C388 C 0.65175 0.26123 0.9901 0.0
C389 C 0.64437 0.27864 0.96752 0.0
C390 C 0.59736 0.27847 0.95671 0.0
C391 C 0.55761 0.26081 0.9683 0.0
C392 C 0.56481 0.24308 0.99067 0.0
C393 C 0.61176 0.24306 1.00153 0.0
H394 H 0.52122 0.26087 0.95994 0.0
H395 H 0.97672 0.26796 0.06491 0.0
H396 H 0.57634 0.61654 0.54184 0.0
H397 H 0.64299 0.67085 0.54425 0.0
H398 H 0.65408 0.66258 0.46845 0.0
H399 H 0.58706 0.60814 0.46582 0.0
H400 H 0.74443 0.65531 0.49291 0.0
H401 H 0.60652 0.75257 0.49177 0.0
H402 H 0.52619 0.78104 0.50393 0.0
H403 H 0.58514 0.8067 0.57437 0.0
H404 H 0.66568 0.77774 0.56274 0.0
H405 H 0.92392 0.82807 0.49927 0.0
H406 H 0.84901 0.78646 0.48783 0.0
H407 H 0.80721 0.78842 0.56065 0.0
H408 H 0.88164 0.8298 0.57216 0.0
H409 H 0.7293 0.80353 0.53214 0.0
H410 H 0.86218 0.69798 0.53528 0.0
H411 H 0.94249 0.6672 0.52457 0.0
H412 H 0.89288 0.65518 0.4518 0.0
H413 H 0.81244 0.68649 0.46205 0.0
C414 C 0.59268 0.62645 0.52564 0.0
C415 C 0.57639 0.60808 0.50363 0.0
C416 C 0.63063 0.65763 0.52705 0.0
C417 C 0.65316 0.67096 0.50651 0.0
C418 C 0.637 0.6528 0.48448 0.0
C419 C 0.59864 0.62185 0.48302 0.0
C420 C 0.69487 0.70255 0.50834 0.0
C421 C 0.74099 0.68812 0.50101 0.0
C422 C 0.6904 0.74493 0.51935 0.0
C423 C 0.64208 0.76267 0.5264 0.0
C424 C 0.60228 0.76396 0.5099 0.0
C425 C 0.55671 0.78024 0.51669 0.0
C426 C 0.55054 0.79559 0.53992 0.0
C427 C 0.58997 0.79478 0.55639 0.0
C428 C 0.63561 0.77849 0.54969 0.0
C429 C 0.89869 0.81965 0.51281 0.0
C430 C 0.90875 0.8322 0.53662 0.0
C431 C 0.8559 0.79596 0.50625 0.0
C432 C 0.82273 0.784 0.52343 0.0
C433 C 0.83213 0.79747 0.54708 0.0
C434 C 0.87468 0.82124 0.55362 0.0
C435 C 0.77912 0.75598 0.51713 0.0
C436 C 0.73263 0.77105 0.52365 0.0
C437 C 0.7833 0.71402 0.50556 0.0
C438 C 0.83155 0.69507 0.49938 0.0
C439 C 0.86855 0.68911 0.51697 0.0
C440 C 0.91406 0.67152 0.51099 0.0
C441 C 0.92284 0.65938 0.48751 0.0
C442 C 0.88606 0.66469 0.46997 0.0
C443 C 0.84051 0.68234 0.47586 0.0
H444 H 0.95809 0.64575 0.48292 0.0
H445 H 0.51523 0.80818 0.54514 0.0
H446 H 0.60837 0.44144 0.46433 0.0
H447 H 0.67598 0.38949 0.46035 0.0
H448 H 0.63154 0.32329 0.52273 0.0
H449 H 0.56518 0.37735 0.52757 0.0
H450 H 0.72479 0.32769 0.52406 0.0
H451 H 0.60935 0.27895 0.46404 0.0
H452 H 0.55062 0.28523 0.43014 0.0
H453 H 0.66652 0.32958 0.38705 0.0
H454 H 0.72588 0.32415 0.42078 0.0
H455 H 0.88714 0.1469 0.4907 0.0
H456 H 0.81075 0.18749 0.49824 0.0
H457 H 0.85958 0.29382 0.45555 0.0
H458 H 0.93615 0.25392 0.44838 0.0
H459 H 0.75802 0.25857 0.44564 0.0
H460 H 0.87008 0.31278 0.5094 0.0
H461 H 0.92635 0.30217 0.54386 0.0
H462 H 0.81079 0.23928 0.5803 0.0
H463 H 0.75401 0.24895 0.54587 0.0
C464 C 0.61294 0.41574 0.47718 0.0
C465 C 0.58138 0.41311 0.49616 0.0
C466 C 0.65139 0.3858 0.47478 0.0
C467 C 0.6581 0.35156 0.49082 0.0
C468 C 0.62691 0.34919 0.51002 0.0
C469 C 0.58903 0.37998 0.51277 0.0
C470 C 0.69865 0.31927 0.48775 0.0
C471 C 0.73133 0.3119 0.507 0.0
C472 C 0.70752 0.29857 0.4655 0.0
C473 C 0.67204 0.30138 0.44502 0.0
C474 C 0.62229 0.29026 0.44737 0.0
C475 C 0.58888 0.29365 0.42818 0.0
C476 C 0.60481 0.30786 0.40647 0.0
C477 C 0.65423 0.31858 0.40389 0.0
C478 C 0.6878 0.31527 0.42303 0.0
C479 C 0.88142 0.17898 0.48302 0.0
C480 C 0.91739 0.19754 0.46909 0.0
C481 C 0.83801 0.20204 0.48733 0.0
C482 C 0.82979 0.2435 0.47741 0.0
C483 C 0.86542 0.2618 0.4633 0.0
C484 C 0.90912 0.2392 0.45936 0.0
C485 C 0.78414 0.26824 0.48172 0.0
C486 C 0.75065 0.27395 0.46271 0.0
C487 C 0.77397 0.28658 0.50425 0.0
C488 C 0.80801 0.28109 0.52497 0.0
C489 C 0.85682 0.2963 0.52467 0.0
C490 C 0.88877 0.29055 0.54421 0.0
C491 C 0.87221 0.26993 0.56422 0.0
C492 C 0.8236 0.25516 0.56476 0.0
C493 C 0.79152 0.26079 0.54525 0.0
H494 H 0.897 0.26551 0.57934 0.0
H495 H 0.57888 0.31051 0.39163 0.0
H496 H 0.36822 0.38867 0.45955 0.0
H497 H 0.3165 0.32215 0.4593 0.0
H498 H 0.29871 0.33999 0.53438 0.0
H499 H 0.35006 0.40629 0.53481 0.0
H500 H 0.33529 0.24662 0.48262 0.0
H501 H 0.18703 0.30314 0.54875 0.0
H502 H 0.14094 0.3708 0.55901 0.0
H503 H 0.16076 0.41931 0.48946 0.0
H504 H 0.20634 0.35167 0.47865 0.0
H505 H 0.24591 0.07774 0.55129 0.0
H506 H 0.27751 0.14603 0.53602 0.0
H507 H 0.1442 0.16189 0.4939 0.0
H508 H 0.11237 0.09259 0.50847 0.0
H509 H 0.17212 0.23832 0.51864 0.0
H510 H 0.24376 0.13324 0.46647 0.0
H511 H 0.28837 0.06531 0.45517 0.0
H512 H 0.41775 0.11375 0.49313 0.0
H513 H 0.37378 0.18168 0.50499 0.0
C514 C 0.35272 0.37876 0.47595 0.0
C515 C 0.36335 0.40271 0.49722 0.0
C516 C 0.3233 0.34069 0.47577 0.0
C517 C 0.30347 0.32631 0.49677 0.0
C518 C 0.31303 0.35082 0.51789 0.0
C519 C 0.34263 0.38862 0.51813 0.0
C520 C 0.27569 0.28407 0.49719 0.0
C521 C 0.29939 0.24481 0.49026 0.0
C522 C 0.22839 0.28182 0.50669 0.0
C523 C 0.2004 0.32239 0.51295 0.0
C524 C 0.18131 0.32811 0.53559 0.0
C525 C 0.15532 0.3665 0.54151 0.0
C526 C 0.14802 0.39937 0.52491 0.0
C527 C 0.16658 0.39388 0.50233 0.0
C528 C 0.19256 0.35554 0.4963 0.0
C529 C 0.22351 0.09488 0.53832 0.0
C530 C 0.17677 0.07874 0.53082 0.0
C531 C 0.24165 0.13422 0.52972 0.0
C532 C 0.21348 0.15863 0.51353 0.0
C533 C 0.1666 0.14329 0.50623 0.0
C534 C 0.14847 0.10365 0.51469 0.0
C535 C 0.23281 0.20099 0.50511 0.0
C536 C 0.20757 0.24021 0.51056 0.0
C537 C 0.27847 0.20321 0.49403 0.0
C538 C 0.30533 0.16257 0.4867 0.0
C539 C 0.28162 0.12933 0.47253 0.0
C540 C 0.3068 0.09081 0.46602 0.0
C541 C 0.3558 0.08521 0.47345 0.0
C542 C 0.37978 0.11815 0.48738 0.0
C543 C 0.35477 0.15671 0.49397 0.0
H544 H 0.37521 0.05536 0.46839 0.0
H545 H 0.12792 0.42908 0.52954 0.0
H546 H 0.3917 0.63656 0.53533 0.0
H547 H 0.33689 0.70021 0.53617 0.0
H548 H 0.25924 0.64843 0.47338 0.0
H549 H 0.31672 0.5863 0.47158 0.0
H550 H 0.27202 0.72753 0.46724 0.0
H551 H 0.20952 0.6544 0.53261 0.0
H552 H 0.21051 0.61555 0.5703 0.0
H553 H 0.27222 0.73074 0.6065 0.0
H554 H 0.2723 0.77011 0.56897 0.0
H555 H 0.09529 0.90005 0.47768 0.0
H556 H 0.12349 0.82561 0.4872 0.0
H557 H 0.26009 0.87989 0.516 0.0
H558 H 0.23292 0.95433 0.50593 0.0
H559 H 0.2037 0.79565 0.53985 0.0
H560 H 0.28051 0.85705 0.46855 0.0
H561 H 0.27013 0.89438 0.43051 0.0
H562 H 0.16683 0.79436 0.40567 0.0
H563 H 0.17609 0.75692 0.44377 0.0
C564 C 0.36256 0.63858 0.52186 0.0
C565 C 0.3584 0.60666 0.50336 0.0
C566 C 0.33082 0.67481 0.52248 0.0
C567 C 0.29305 0.67901 0.5051 0.0
C568 C 0.288 0.64617 0.48701 0.0
C569 C 0.32076 0.61062 0.48598 0.0
C570 C 0.26196 0.71955 0.5046 0.0
C571 C 0.25637 0.74156 0.48314 0.0
C572 C 0.24129 0.7386 0.52523 0.0
C573 C 0.24124 0.71511 0.5479 0.0
C574 C 0.22363 0.67136 0.54857 0.0
C575 C 0.22396 0.64926 0.56992 0.0
C576 C 0.24151 0.67063 0.59077 0.0
C577 C 0.25866 0.71421 0.59033 0.0
C578 C 0.25846 0.73647 0.56902 0.0
C579 C 0.13075 0.89636 0.48667 0.0
C580 C 0.16203 0.93309 0.49095 0.0
C581 C 0.1467 0.85381 0.49212 0.0
C582 C 0.19372 0.84752 0.50231 0.0
C583 C 0.2235 0.88432 0.5083 0.0
C584 C 0.20808 0.92672 0.50236 0.0
C585 C 0.21522 0.80278 0.50282 0.0
C586 C 0.21892 0.78048 0.52412 0.0
C587 C 0.23311 0.7827 0.48204 0.0
C588 C 0.22862 0.80451 0.459 0.0
C589 C 0.25536 0.84324 0.45502 0.0
C590 C 0.2497 0.86439 0.43346 0.0
C591 C 0.21775 0.84681 0.4157 0.0
C592 C 0.19151 0.80797 0.41945 0.0
C593 C 0.19695 0.78679 0.44101 0.0
H594 H 0.2134 0.86322 0.39902 0.0
H595 H 0.24173 0.65345 0.60728 0.0
H596 H 0.03638 0.95259 0.14199 0.0
H597 H 0.04631 0.96044 0.18502 0.0
H598 H 0.94088 0.06685 0.18513 0.0
H599 H 0.93146 0.05974 0.14201 0.0
H600 H 0.02421 0.08835 0.21088 0.0
H601 H 0.91039 0.96683 0.20521 0.0
H602 H 0.87952 0.89337 0.19146 0.0
H603 H 0.00646 0.83178 0.2233 0.0
H604 H 0.03846 0.90497 0.23697 0.0
H605 H 0.00347 0.11127 0.33434 0.0
H606 H 0.98406 0.09692 0.29235 0.0
H607 H 0.08465 0.98674 0.29212 0.0
H608 H 0.10398 0.00078 0.33429 0.0
H609 H 0.00231 0.96649 0.26647 0.0
H610 H 0.11786 0.08659 0.27088 0.0
H611 H 0.15075 0.15952 0.28435 0.0
H612 H 0.02323 0.22313 0.2543 0.0
H613 H 0.98923 0.15047 0.24094 0.0
C614 C 0.01522 0.9776 0.15119 0.0
C615 C 0.9832 0.00562 0.13859 0.0
C616 C 0.02063 0.9818 0.17579 0.0
C617 C 0.99409 0.01404 0.1883 0.0
C618 C 0.9616 0.04166 0.17582 0.0
C619 C 0.95599 0.03734 0.15121 0.0
C620 C 0.00209 0.02042 0.21425 0.0
C621 C 0.01863 0.06191 0.22308 0.0
C622 C 0.99627 0.98551 0.23007 0.0
C623 C 0.97705 0.94144 0.22192 0.0
C624 C 0.93193 0.93766 0.20911 0.0
C625 C 0.91419 0.89606 0.20136 0.0
C626 C 0.94107 0.85794 0.20645 0.0
C627 C 0.9857 0.86134 0.21935 0.0
C628 C 0.00364 0.90287 0.22713 0.0
C629 C 0.02159 0.08406 0.32534 0.0
C630 C 0.05568 0.05745 0.33757 0.0
C631 C 0.0104 0.07585 0.30134 0.0
C632 C 0.03351 0.04121 0.28897 0.0
C633 C 0.06644 0.0137 0.30129 0.0
C634 C 0.07743 0.02174 0.32538 0.0
C635 C 0.02422 0.03451 0.26309 0.0
C636 C 0.00766 0.99296 0.25427 0.0
C637 C 0.03032 0.06929 0.24721 0.0
C638 C 0.05078 0.11305 0.25512 0.0
C639 C 0.09666 0.1161 0.2673 0.0
C640 C 0.11552 0.15739 0.27489 0.0
C641 C 0.08903 0.19593 0.27024 0.0
C642 C 0.04367 0.19325 0.25792 0.0
C643 C 0.0246 0.15202 0.25032 0.0
H644 H 0.10371 0.22787 0.27613 0.0
H645 H 0.92727 0.82577 0.20044 0.0
H646 H 0.93312 0.04657 0.86706 0.0
H647 H 0.94559 0.0397 0.8244 0.0
H648 H 0.0514 0.9359 0.83648 0.0
H649 H 0.03947 0.94294 0.87893 0.0
H650 H 0.08644 0.99345 0.80738 0.0
H651 H 0.93294 0.9151 0.81344 0.0
H652 H 0.84657 0.90655 0.82426 0.0
H653 H 0.80463 0.01384 0.7798 0.0
H654 H 0.89091 0.02341 0.76895 0.0
H655 H 0.10979 0.89761 0.69329 0.0
H656 H 0.09081 0.91148 0.7347 0.0
H657 H 0.99341 0.01739 0.71454 0.0
H658 H 0.01117 0.00285 0.67291 0.0
H659 H 0.95263 0.96551 0.74697 0.0
H660 H 0.10544 0.04095 0.73918 0.0
H661 H 0.19172 0.04918 0.72819 0.0
H662 H 0.23499 0.94741 0.77597 0.0
H663 H 0.14882 0.93812 0.787 0.0
C664 C 0.95862 0.022 0.86054 0.0
C665 C 0.98554 0.9955 0.87636 0.0
C666 C 0.96574 0.01809 0.83617 0.0
C667 C 0.99936 0.98715 0.82718 0.0
C668 C 0.02555 0.96022 0.84297 0.0
C669 C 0.01873 0.96431 0.86724 0.0
C670 C 0.00857 0.98329 0.80145 0.0
C671 C 0.05719 0.98685 0.79422 0.0
C672 C 0.97031 0.97609 0.78414 0.0
C673 C 0.91844 0.97028 0.7906 0.0
C674 C 0.90535 0.93709 0.80612 0.0
C675 C 0.85641 0.93202 0.81223 0.0
C676 C 0.82016 0.95972 0.80278 0.0
C677 C 0.83276 0.99246 0.78714 0.0
C678 C 0.88166 0.99771 0.78099 0.0
C679 C 0.08404 0.92365 0.69762 0.0
C680 C 0.06209 0.94918 0.67977 0.0
C681 C 0.07355 0.9318 0.72133 0.0
C682 C 0.04111 0.96582 0.72776 0.0
C683 C 0.0187 0.99109 0.71 0.0
C684 C 0.02924 0.98299 0.68624 0.0
C685 C 0.03057 0.97472 0.75304 0.0
C686 C 0.98178 0.97231 0.76015 0.0
C687 C 0.06867 0.98295 0.77028 0.0
C688 C 0.12059 0.98859 0.76376 0.0
C689 C 0.13329 0.02009 0.74721 0.0
C690 C 0.18219 0.02499 0.741 0.0
C691 C 0.2188 0.99877 0.75134 0.0
C692 C 0.20659 0.96767 0.76796 0.0
C693 C 0.15773 0.96261 0.77422 0.0
H694 H 0.25664 0.00261 0.74651 0.0
H695 H 0.78228 0.95574 0.80753 0.0
H696 H 0.5359 0.46026 0.63537 0.0
H697 H 0.54497 0.46916 0.67842 0.0
H698 H 0.43734 0.57373 0.67745 0.0
H699 H 0.42857 0.56541 0.63433 0.0
H700 H 0.52058 0.59615 0.70429 0.0
H701 H 0.40679 0.47435 0.69683 0.0
H702 H 0.37714 0.4009 0.6824 0.0
H703 H 0.50281 0.3396 0.71558 0.0
H704 H 0.53359 0.41279 0.72993 0.0
H705 H 0.49495 0.61696 0.82812 0.0
H706 H 0.47871 0.60548 0.78561 0.0
H707 H 0.57365 0.49124 0.78573 0.0
H708 H 0.58921 0.50214 0.82836 0.0
H709 H 0.49488 0.47379 0.75913 0.0
H710 H 0.61097 0.59334 0.76542 0.0
H711 H 0.64383 0.66601 0.77937 0.0
H712 H 0.51846 0.73061 0.74788 0.0
H713 H 0.4845 0.65824 0.734 0.0
C714 C 0.51415 0.48514 0.64433 0.0
C715 C 0.4815 0.51213 0.63146 0.0
C716 C 0.51911 0.48997 0.66894 0.0
C717 C 0.49159 0.52192 0.68115 0.0
C718 C 0.45882 0.5488 0.66837 0.0
C719 C 0.45358 0.54378 0.64377 0.0
C720 C 0.49816 0.5282 0.70718 0.0
C721 C 0.51422 0.56962 0.71634 0.0
C722 C 0.49127 0.49318 0.7228 0.0
C723 C 0.47272 0.44911 0.71427 0.0
C724 C 0.42831 0.44525 0.70089 0.0
C725 C 0.41126 0.40365 0.69275 0.0
C726 C 0.43813 0.36562 0.69802 0.0
C727 C 0.48206 0.3691 0.71149 0.0
C728 C 0.4993 0.41063 0.71965 0.0
C729 C 0.5125 0.58952 0.81905 0.0
C730 C 0.54357 0.56059 0.83154 0.0
C731 C 0.50324 0.58299 0.79475 0.0
C732 C 0.52556 0.54788 0.78235 0.0
C733 C 0.55599 0.51855 0.79488 0.0
C734 C 0.56485 0.52479 0.81924 0.0
C735 C 0.51737 0.54182 0.75632 0.0
C736 C 0.50109 0.50042 0.74714 0.0
C737 C 0.52456 0.57675 0.74063 0.0
C738 C 0.54496 0.62033 0.74888 0.0
C739 C 0.59023 0.62302 0.76162 0.0
C740 C 0.60908 0.66416 0.76949 0.0
C741 C 0.58319 0.70289 0.76457 0.0
C742 C 0.53844 0.70057 0.75171 0.0
C743 C 0.51939 0.65951 0.74382 0.0
H744 H 0.59785 0.73471 0.77068 0.0
H745 H 0.42487 0.33344 0.69171 0.0
H746 H 0.41809 0.45474 0.36306 0.0
H747 H 0.42955 0.44545 0.32058 0.0
H748 H 0.54734 0.54139 0.32537 0.0
H749 H 0.5345 0.55246 0.36756 0.0
H750 H 0.49519 0.55268 0.28636 0.0
H751 H 0.56969 0.4287 0.32393 0.0
H752 H 0.57358 0.36404 0.34952 0.0
H753 H 0.46073 0.29916 0.30623 0.0
H754 H 0.4557 0.36373 0.28056 0.0
H755 H 0.62429 0.48379 0.18372 0.0
H756 H 0.60084 0.499 0.22439 0.0
H757 H 0.46838 0.42233 0.21176 0.0
H758 H 0.49016 0.40852 0.17071 0.0
H759 H 0.52463 0.401 0.2539 0.0
H760 H 0.45629 0.52776 0.21492 0.0
H761 H 0.4589 0.59289 0.18975 0.0
H762 H 0.56927 0.65278 0.23652 0.0
H763 H 0.56784 0.58768 0.2618 0.0
C764 C 0.44579 0.47452 0.35502 0.0
C765 C 0.4757 0.50404 0.36884 0.0
C766 C 0.45271 0.46878 0.33074 0.0
C767 C 0.49 0.49206 0.31982 0.0
C768 C 0.51856 0.5228 0.33338 0.0
C769 C 0.51147 0.52877 0.35759 0.0
C770 C 0.50035 0.48353 0.29445 0.0
C771 C 0.50205 0.51953 0.27935 0.0
C772 C 0.50886 0.44024 0.28515 0.0
C773 C 0.51193 0.40125 0.30047 0.0
C774 C 0.54544 0.40078 0.31997 0.0
C775 C 0.54789 0.36413 0.33448 0.0
C776 C 0.51732 0.32758 0.32955 0.0
C777 C 0.48433 0.32754 0.31005 0.0
C778 C 0.48168 0.36414 0.29551 0.0
C779 C 0.58968 0.47077 0.18935 0.0
C780 C 0.55918 0.44489 0.17374 0.0
C781 C 0.57653 0.47929 0.2127 0.0
C782 C 0.53286 0.46184 0.22105 0.0
C783 C 0.50237 0.43593 0.20567 0.0
C784 C 0.51512 0.42787 0.18222 0.0
C785 C 0.51944 0.47011 0.24596 0.0
C786 C 0.51737 0.43405 0.26095 0.0
C787 C 0.51153 0.51339 0.25525 0.0
C788 C 0.51229 0.55264 0.24013 0.0
C789 C 0.48143 0.55464 0.21973 0.0
C790 C 0.48263 0.59159 0.20546 0.0
C791 C 0.51432 0.6269 0.2115 0.0
C792 C 0.54478 0.62538 0.23185 0.0
C793 C 0.54376 0.58848 0.24616 0.0
H794 H 0.51519 0.65548 0.20043 0.0
H795 H 0.51927 0.29924 0.3408 0.0
loop_
_geom_bond_atom_site_label_1
_geom_bond_atom_site_label_2
_geom_bond_distance
_geom_bond_site_symmetry_2
_ccdc_geom_bond_type
C0 O16 1.251 . S
C0 O18 1.254 1_554 S
N1 C2 1.333 1_445 S
N1 C6 1.307 . S
N1 Zn7 2.020 . S
C2 N1 1.333 1_665 S
C2 C3 1.379 . S
C2 H20 0.952 . S
C3 C2 1.379 . S
C3 C4 1.390 1_665 S
C3 H30 0.949 . S
C4 C3 1.390 1_445 S
C4 C5 1.357 . S
C5 C4 1.357 . S
C5 C6 1.370 . S
C5 H31 0.950 . S
C6 N1 1.307 . S
C6 C5 1.370 . S
C6 H24 0.948 . S
Zn7 N1 2.020 . S
Zn7 O16 2.039 1_445 S
Zn7 O22 2.034 1_455 S
Zn7 O26 2.025 . S
Zn7 O28 2.024 1_545 S
C8 O27 1.246 1_554 S
C8 O28 1.249 . S
N9 C10 1.307 1_445 S
N9 C11 1.333 . S
N9 Zn15 2.020 . S
C10 N9 1.307 1_665 S
C10 C14 1.370 . S
C10 H21 0.948 . S
C11 N9 1.333 . S
C11 C12 1.379 . S
C11 H19 0.952 . S
C12 C11 1.379 . S
C12 C13 1.390 . S
C12 H32 0.949 . S
C13 C12 1.390 . S
C13 C14 1.357 1_445 S
C14 C10 1.370 . S
C14 C13 1.357 1_665 S
C14 H33 0.950 . S
Zn15 N9 2.020 . S
Zn15 O18 2.025 1_445 S
Zn15 O23 2.024 1_455 S
Zn15 O25 2.039 . S
Zn15 O27 2.034 1_545 S
O16 C0 1.251 . S
O16 Zn7 2.039 1_665 S
C17 O22 1.246 . S
C17 O23 1.249 1_554 S
O18 C0 1.254 1_556 S
O18 Zn15 2.025 1_665 S
H19 C11 0.952 . S
H20 C2 0.952 . S
H21 C10 0.948 . S
O22 Zn7 2.034 1_655 S
O22 C17 1.246 . S
O23 Zn15 2.024 1_655 S
O23 C17 1.249 1_556 S
H24 C6 0.948 . S
O25 Zn15 2.039 . S
O25 C29 1.251 1_556 S
O26 Zn7 2.025 . S
O26 C29 1.254 . S
O27 C8 1.246 1_556 S
O27 Zn15 2.034 1_565 S
O28 Zn7 2.024 1_565 S
O28 C8 1.249 . S
C29 O25 1.251 1_554 S
C29 O26 1.254 . S
H30 C3 0.949 . S
H31 C5 0.950 . S
H32 C12 0.949 . S
H33 C14 0.950 . S
C34 O50 1.251 . S
C34 O52 1.254 . S
N35 C36 1.333 . S
N35 C40 1.307 . S
N35 Zn41 2.020 . S
C36 N35 1.333 . S
C36 C37 1.379 . S
C36 H54 0.952 . S
C37 C36 1.379 . S
C37 C38 1.390 . S
C37 H64 0.949 . S
C38 C37 1.390 . S
C38 C39 1.357 . S
C39 C38 1.357 . S
C39 C40 1.370 . S
C39 H65 0.950 . S
C40 N35 1.307 . S
C40 C39 1.370 . S
C40 H58 0.948 . S
Zn41 N35 2.020 . S
Zn41 O50 2.039 . S
Zn41 O56 2.034 . S
Zn41 O60 2.025 . S
Zn41 O62 2.024 . S
C42 O61 1.246 . S
C42 O62 1.249 . S
N43 C44 1.307 . S
N43 C45 1.333 . S
N43 Zn49 2.020 . S
C44 N43 1.307 . S
C44 C48 1.370 . S
C44 H55 0.948 . S
C45 N43 1.333 . S
C45 C46 1.379 . S
C45 H53 0.952 . S
C46 C45 1.379 . S
C46 C47 1.390 . S
C46 H66 0.949 . S
C47 C46 1.390 . S
C47 C48 1.357 . S
C48 C44 1.370 . S
C48 C47 1.357 . S
C48 H67 0.950 . S
Zn49 N43 2.020 . S
Zn49 O52 2.025 . S
Zn49 O57 2.024 . S
Zn49 O59 2.039 . S
Zn49 O61 2.034 . S
O50 C34 1.251 . S
O50 Zn41 2.039 . S
C51 O56 1.246 . S
C51 O57 1.249 . S
O52 C34 1.254 . S
O52 Zn49 2.025 . S
H53 C45 0.952 . S
H54 C36 0.952 . S
H55 C44 0.948 . S
O56 Zn41 2.034 . S
O56 C51 1.246 . S
O57 Zn49 2.024 . S
O57 C51 1.249 . S
H58 C40 0.948 . S
O59 Zn49 2.039 . S
O59 C63 1.251 . S
O60 Zn41 2.025 . S
O60 C63 1.254 . S
O61 C42 1.246 . S
O61 Zn49 2.034 . S
O62 Zn41 2.024 . S
O62 C42 1.249 . S
C63 O59 1.251 . S
C63 O60 1.254 . S
H64 C37 0.949 . S
H65 C39 0.950 . S
H66 C46 0.949 . S
H67 C48 0.950 . S
P68 O79 1.490 . S
P68 C82 1.812 1_455 S
P68 C88 1.803 1_545 S
P68 C94 1.819 . S
H69 C83 0.941 . S
H70 C84 0.939 . S
H71 C86 0.940 . S
H72 C87 0.940 . S
H73 C89 0.939 . S
H74 C90 0.942 . S
H75 C92 0.940 . S
H76 C93 0.939 . S
H77 C95 0.941 . S
H78 C99 0.939 . S
O79 P68 1.490 . S
H80 C96 0.939 . S
H81 C98 0.940 . S
C82 P68 1.812 1_655 S
C82 C83 1.389 1_655 S
C82 C87 1.391 . S
C83 H69 0.941 . S
C83 C82 1.389 1_455 S
C83 C84 1.397 1_455 S
C84 H70 0.939 . S
C84 C83 1.397 1_655 S
C84 C85 1.378 . S
C85 C84 1.378 . S
C85 C86 1.378 . S
C86 H71 0.940 . S
C86 C85 1.378 . S
C86 C87 1.396 . S
C87 H72 0.940 . S
C87 C82 1.391 . S
C87 C86 1.396 . S
C88 P68 1.803 1_565 S
C88 C89 1.378 . S
C88 C93 1.400 . S
C89 H73 0.939 . S
C89 C88 1.378 . S
C89 C90 1.361 . S
C90 H74 0.942 . S
C90 C89 1.361 . S
C90 C91 1.369 . S
C91 C90 1.369 . S
C91 C92 1.404 . S
C92 H75 0.940 . S
C92 C91 1.404 . S
C92 C93 1.389 . S
C93 H76 0.939 . S
C93 C88 1.400 . S
C93 C92 1.389 . S
C94 P68 1.819 . S
C94 C95 1.391 . S
C94 C99 1.391 1_545 S
C95 H77 0.941 . S
C95 C94 1.391 . S
C95 C96 1.396 . S
C96 H80 0.939 . S
C96 C95 1.396 . S
C96 C97 1.397 . S
C97 C96 1.397 . S
C97 C98 1.385 1_545 S
C98 H81 0.940 . S
C98 C97 1.385 1_565 S
C98 C99 1.388 . S
C99 H78 0.939 . S
C99 C94 1.391 1_565 S
C99 C98 1.388 . S
P100 O111 1.490 . S
P100 C114 1.812 . S
P100 C120 1.803 1_565 S
P100 C126 1.819 . S
H101 C115 0.941 . S
H102 C116 0.939 . S
H103 C118 0.940 . S
H104 C119 0.940 . S
H105 C121 0.939 . S
H106 C122 0.942 . S
H107 C124 0.940 . S
H108 C125 0.939 . S
H109 C127 0.941 . S
H110 C131 0.939 . S
O111 P100 1.490 . S
H112 C128 0.939 . S
H113 C130 0.940 . S
C114 P100 1.812 . S
C114 C115 1.389 . S
C114 C119 1.391 1_455 S
C115 H101 0.941 . S
C115 C114 1.389 . S
C115 C116 1.397 1_455 S
C116 H102 0.939 . S
C116 C115 1.397 1_655 S
C116 C117 1.378 . S
C117 C116 1.378 . S
C117 C118 1.378 . S
C118 H103 0.940 . S
C118 C117 1.378 . S
C118 C119 1.396 . S
C119 H104 0.940 . S
C119 C114 1.391 1_655 S
C119 C118 1.396 . S
C120 P100 1.803 1_545 S
C120 C121 1.378 . S
C120 C125 1.400 . S
C121 H105 0.939 . S
C121 C120 1.378 . S
C121 C122 1.361 . S
C122 H106 0.942 . S
C122 C121 1.361 . S
C122 C123 1.369 . S
C123 C122 1.369 . S
C123 C124 1.404 . S
C124 H107 0.940 . S
C124 C123 1.404 . S
C124 C125 1.389 . S
C125 H108 0.939 . S
C125 C120 1.400 . S
C125 C124 1.389 . S
C126 P100 1.819 . S
C126 C127 1.391 . S
C126 C131 1.391 1_565 S
C127 H109 0.941 . S
C127 C126 1.391 . S
C127 C128 1.396 . S
C128 H112 0.939 . S
C128 C127 1.396 . S
C128 C129 1.405 . S
C129 C128 1.405 . S
C129 C130 1.378 1_565 S
C130 H113 0.940 . S
C130 C129 1.378 1_545 S
C130 C131 1.388 . S
C131 H110 0.939 . S
C131 C126 1.391 1_545 S
C131 C130 1.388 . S
P132 O143 1.490 . S
P132 C146 1.812 . S
P132 C152 1.803 . S
P132 C158 1.819 . S
H133 C147 0.941 . S
H134 C148 0.939 . S
H135 C150 0.940 . S
H136 C151 0.940 . S
H137 C153 0.939 . S
H138 C154 0.942 . S
H139 C156 0.940 . S
H140 C157 0.939 . S
H141 C159 0.941 . S
H142 C163 0.939 . S
O143 P132 1.490 . S
H144 C160 0.939 . S
H145 C162 0.940 . S
C146 P132 1.812 . S
C146 C147 1.389 . S
C146 C151 1.391 . S
C147 H133 0.941 . S
C147 C146 1.389 . S
C147 C148 1.397 . S
C148 H134 0.939 . S
C148 C147 1.397 . S
C148 C149 1.378 . S
C149 C148 1.378 . S
C149 C150 1.378 . S
C150 H135 0.940 . S
C150 C149 1.378 . S
C150 C151 1.396 . S
C151 H136 0.940 . S
C151 C146 1.391 . S
C151 C150 1.396 . S
C152 P132 1.803 . S
C152 C153 1.378 . S
C152 C157 1.400 . S
C153 H137 0.939 . S
C153 C152 1.378 . S
C153 C154 1.361 . S
C154 H138 0.942 . S
C154 C153 1.361 . S
C154 C155 1.369 . S
C155 C154 1.369 . S
C155 C156 1.404 . S
C156 H139 0.940 . S
C156 C155 1.404 . S
C156 C157 1.389 . S
C157 H140 0.939 . S
C157 C152 1.400 . S
C157 C156 1.389 . S
C158 P132 1.819 . S
C158 C159 1.391 . S
C158 C163 1.391 . S
C159 H141 0.941 . S
C159 C158 1.391 . S
C159 C160 1.396 . S
C160 H144 0.939 . S
C160 C159 1.396 . S
C160 C161 1.397 . S
C161 C160 1.397 . S
C161 C162 1.385 . S
C162 H145 0.940 . S
C162 C161 1.385 . S
C162 C163 1.388 . S
C163 H142 0.939 . S
C163 C158 1.391 . S
C163 C162 1.388 . S
P164 O175 1.490 . S
P164 C178 1.812 . S
P164 C184 1.803 . S
P164 C190 1.819 . S
H165 C179 0.941 . S
H166 C180 0.939 . S
H167 C182 0.940 . S
H168 C183 0.940 . S
H169 C185 0.939 . S
H170 C186 0.942 . S
H171 C188 0.940 . S
H172 C189 0.939 . S
H173 C191 0.941 . S
H174 C195 0.939 . S
O175 P164 1.490 . S
H176 C192 0.939 . S
H177 C194 0.940 . S
C178 P164 1.812 . S
C178 C179 1.389 . S
C178 C183 1.391 . S
C179 H165 0.941 . S
C179 C178 1.389 . S
C179 C180 1.397 . S
C180 H166 0.939 . S
C180 C179 1.397 . S
C180 C181 1.378 . S
C181 C180 1.378 . S
C181 C182 1.378 . S
C182 H167 0.940 . S
C182 C181 1.378 . S
C182 C183 1.396 . S
C183 H168 0.940 . S
C183 C178 1.391 . S
C183 C182 1.396 . S
C184 P164 1.803 . S
C184 C185 1.378 . S
C184 C189 1.400 . S
C185 H169 0.939 . S
C185 C184 1.378 . S
C185 C186 1.361 . S
C186 H170 0.942 . S
C186 C185 1.361 . S
C186 C187 1.369 . S
C187 C186 1.369 . S
C187 C188 1.404 . S
C188 H171 0.940 . S
C188 C187 1.404 . S
C188 C189 1.389 . S
C189 H172 0.939 . S
C189 C184 1.400 . S
C189 C188 1.389 . S
C190 P164 1.819 . S
C190 C191 1.391 . S
C190 C195 1.391 . S
C191 H173 0.941 . S
C191 C190 1.391 . S
C191 C192 1.396 . S
C192 H176 0.939 . S
C192 C191 1.396 . S
C192 C193 1.397 . S
C193 C192 1.397 . S
C193 C194 1.385 . S
C194 H177 0.940 . S
C194 C193 1.385 . S
C194 C195 1.388 . S
C195 H174 0.939 . S
C195 C190 1.391 . S
C195 C194 1.388 . S
H196 C214 0.951 . S
H197 C216 0.951 . S
H198 C218 0.950 . S
H199 C219 0.950 . S
H200 C221 0.950 . S
H201 C224 0.950 . S
H202 C225 0.950 . S
H203 C227 0.950 . S
H204 C228 0.950 . S
H205 C229 0.951 1_556 S
H206 C231 0.951 1_556 S
H207 C233 0.950 . S
H208 C234 0.950 . S
H209 C236 0.950 . S
H210 C239 0.950 . S
H211 C240 0.950 . S
H212 C242 0.950 . S
H213 C243 0.950 . S
C214 H196 0.951 . S
C214 C215 1.366 . S
C214 C216 1.388 . S
C215 C214 1.366 . S
C215 C219 1.385 1_554 S
C216 H197 0.951 . S
C216 C214 1.388 . S
C216 C217 1.366 . S
C217 C216 1.366 . S
C217 C218 1.414 1_554 S
C217 C220 1.499 . S
C218 H198 0.950 . S
C218 C217 1.414 1_556 S
C218 C219 1.374 . S
C219 H199 0.950 . S
C219 C215 1.385 1_556 S
C219 C218 1.374 . S
C220 C217 1.499 . S
C220 C221 1.373 1_554 S
C220 C222 1.389 . S
C221 H200 0.950 . S
C221 C220 1.373 1_556 S
C221 C237 1.377 . S
C222 C220 1.389 . S
C222 C223 1.524 . S
C222 C236 1.377 . S
C223 C222 1.524 . S
C223 C224 1.397 . S
C223 C228 1.363 . S
C224 H201 0.950 . S
C224 C223 1.397 . S
C224 C225 1.334 . S
C225 H202 0.950 . S
C225 C224 1.334 . S
C225 C226 1.287 . S
C226 C225 1.287 . S
C226 C227 1.524 . S
C226 H245 0.913 . S
C227 H203 0.950 . S
C227 C226 1.524 . S
C227 C228 1.415 . S
C228 H204 0.950 . S
C228 C223 1.363 . S
C228 C227 1.415 . S
C229 H205 0.951 1_554 S
C229 C230 1.366 . S
C229 C231 1.388 . S
C230 C229 1.366 . S
C230 C234 1.385 . S
C231 H206 0.951 1_554 S
C231 C229 1.388 . S
C231 C232 1.366 . S
C232 C231 1.366 . S
C232 C233 1.414 . S
C232 C235 1.499 . S
C233 H207 0.950 . S
C233 C232 1.414 . S
C233 C234 1.374 . S
C234 H208 0.950 . S
C234 C230 1.385 . S
C234 C233 1.374 . S
C235 C232 1.499 . S
C235 C236 1.373 . S
C235 C237 1.389 1_554 S
C236 H209 0.950 . S
C236 C222 1.377 . S
C236 C235 1.373 . S
C237 C221 1.377 . S
C237 C235 1.389 1_556 S
C237 C238 1.524 . S
C238 C237 1.524 . S
C238 C239 1.397 . S
C238 C243 1.363 . S
C239 H210 0.950 . S
C239 C238 1.397 . S
C239 C240 1.334 . S
C240 H211 0.950 . S
C240 C239 1.334 . S
C240 C241 1.287 . S
C241 C240 1.287 . S
C241 C242 1.524 . S
C241 H244 0.999 . S
C242 H212 0.950 . S
C242 C241 1.524 . S
C242 C243 1.415 . S
C243 H213 0.950 . S
C243 C238 1.363 . S
C243 C242 1.415 . S
H244 C241 0.999 . S
H245 C226 0.913 . S
H246 C264 0.951 . S
H247 C266 0.951 . S
H248 C268 0.950 . S
H249 C269 0.950 . S
H250 C271 0.950 . S
H251 C274 0.950 . S
H252 C275 0.950 . S
H253 C277 0.950 . S
H254 C278 0.950 . S
H255 C279 0.951 . S
H256 C281 0.951 . S
H257 C283 0.936 1_554 S
H258 C284 0.950 1_554 S
H259 C286 0.950 . S
H260 C289 0.950 . S
H261 C290 0.950 . S
H262 C292 0.950 . S
H263 C293 0.950 . S
C264 H246 0.951 . S
C264 C265 1.366 . S
C264 C266 1.388 . S
C265 C264 1.366 . S
C265 C269 1.385 1_554 S
C266 H247 0.951 . S
C266 C264 1.388 . S
C266 C267 1.366 1_554 S
C267 C266 1.366 1_556 S
C267 C268 1.414 . S
C267 C270 1.499 . S
C268 H248 0.950 . S
C268 C267 1.414 . S
C268 C269 1.374 . S
C269 H249 0.950 . S
C269 C265 1.385 1_556 S
C269 C268 1.374 . S
C270 C267 1.499 . S
C270 C271 1.373 . S
C270 C272 1.389 . S
C271 H250 0.950 . S
C271 C270 1.373 . S
C271 C287 1.377 . S
C272 C270 1.389 . S
C272 C273 1.524 . S
C272 C286 1.377 . S
C273 C272 1.524 . S
C273 C274 1.397 . S
C273 C278 1.363 1_556 S
C274 H251 0.950 . S
C274 C273 1.397 . S
C274 C275 1.334 . S
C275 H252 0.950 . S
C275 C274 1.334 . S
C275 C276 1.287 . S
C276 C275 1.287 . S
C276 C277 1.524 1_556 S
C276 H295 0.913 . S
C277 H253 0.950 . S
C277 C276 1.524 1_554 S
C277 C278 1.415 . S
C278 H254 0.950 . S
C278 C273 1.363 1_554 S
C278 C277 1.415 . S
C279 H255 0.951 . S
C279 C280 1.366 . S
C279 C281 1.388 . S
C280 C279 1.366 . S
C280 C284 1.385 . S
C281 H256 0.951 . S
C281 C279 1.388 . S
C281 C282 1.366 . S
C282 C281 1.366 . S
C282 C283 1.426 . S
C282 C285 1.499 . S
C283 H257 0.936 1_556 S
C283 C282 1.426 . S
C283 C284 1.377 . S
C284 H258 0.950 1_556 S
C284 C280 1.385 . S
C284 C283 1.377 . S
C285 C282 1.499 . S
C285 C286 1.373 . S
C285 C287 1.389 . S
C286 H259 0.950 . S
C286 C272 1.377 . S
C286 C285 1.373 . S
C287 C271 1.377 . S
C287 C285 1.389 . S
C287 C288 1.524 . S
C288 C287 1.524 . S
C288 C289 1.397 1_556 S
C288 C293 1.363 . S
C289 H260 0.950 . S
C289 C288 1.397 1_554 S
C289 C290 1.334 . S
C290 H261 0.950 . S
C290 C289 1.334 . S
C290 C291 1.287 1_554 S
C291 C290 1.287 1_556 S
C291 C292 1.524 . S
C291 H294 1.000 . S
C292 H262 0.950 . S
C292 C291 1.524 . S
C292 C293 1.415 . S
C293 H263 0.950 . S
C293 C288 1.363 . S
C293 C292 1.415 . S
H294 C291 1.000 . S
H295 C276 0.913 . S
H296 C314 0.951 . S
H297 C316 0.951 . S
H298 C318 0.950 . S
H299 C319 0.950 . S
H300 C321 0.950 . S
H301 C324 0.950 . S
H302 C325 0.950 . S
H303 C327 0.950 . S
H304 C328 0.950 . S
H305 C329 0.951 . S
H306 C331 0.951 . S
H307 C333 0.950 . S
H308 C334 0.950 . S
H309 C336 0.950 . S
H310 C339 0.950 . S
H311 C340 0.950 . S
H312 C342 0.950 . S
H313 C343 0.950 . S
C314 H296 0.951 . S
C314 C315 1.366 . S
C314 C316 1.388 . S
C315 C314 1.366 . S
C315 C319 1.385 1_554 S
C316 H297 0.951 . S
C316 C314 1.388 . S
C316 C317 1.366 . S
C317 C316 1.366 . S
C317 C318 1.414 1_554 S
C317 C320 1.499 . S
C318 H298 0.950 . S
C318 C317 1.414 1_556 S
C318 C319 1.374 . S
C319 H299 0.950 . S
C319 C315 1.385 1_556 S
C319 C318 1.374 . S
C320 C317 1.499 . S
C320 C321 1.373 . S
C320 C322 1.389 . S
C321 H300 0.950 . S
C321 C320 1.373 . S
C321 C337 1.377 . S
C322 C320 1.389 . S
C322 C323 1.524 1_554 S
C322 C336 1.377 . S
C323 C322 1.524 1_556 S
C323 C324 1.397 . S
C323 C328 1.363 1_556 S
C324 H301 0.950 . S
C324 C323 1.397 . S
C324 C325 1.334 . S
C325 H302 0.950 . S
C325 C324 1.334 . S
C325 C326 1.287 . S
C326 C325 1.287 . S
C326 C327 1.524 . S
C326 H345 0.913 . S
C327 H303 0.950 . S
C327 C326 1.524 . S
C327 C328 1.415 1_556 S
C328 H304 0.950 . S
C328 C323 1.363 1_554 S
C328 C327 1.415 1_554 S
C329 H305 0.951 . S
C329 C330 1.366 . S
C329 C331 1.388 . S
C330 C329 1.366 . S
C330 C334 1.385 . S
C331 H306 0.951 . S
C331 C329 1.388 . S
C331 C332 1.366 . S
C332 C331 1.366 . S
C332 C333 1.414 . S
C332 C335 1.499 . S
C333 H307 0.950 . S
C333 C332 1.414 . S
C333 C334 1.374 . S
C334 H308 0.950 . S
C334 C330 1.385 . S
C334 C333 1.374 . S
C335 C332 1.499 . S
C335 C336 1.373 . S
C335 C337 1.389 . S
C336 H309 0.950 . S
C336 C322 1.377 . S
C336 C335 1.373 . S
C337 C321 1.377 . S
C337 C335 1.389 . S
C337 C338 1.524 . S
C338 C337 1.524 . S
C338 C339 1.397 . S
C338 C343 1.363 . S
C339 H310 0.950 . S
C339 C338 1.397 . S
C339 C340 1.334 . S
C340 H311 0.950 . S
C340 C339 1.334 . S
C340 C341 1.287 . S
C341 C340 1.287 . S
C341 C342 1.524 . S
C341 H344 0.999 . S
C342 H312 0.950 . S
C342 C341 1.524 . S
C342 C343 1.415 . S
C343 H313 0.950 . S
C343 C338 1.363 . S
C343 C342 1.415 . S
H344 C341 0.999 . S
H345 C326 0.913 . S
H346 C364 0.952 . S
H347 C366 0.951 . S
H348 C368 0.950 . S
H349 C369 0.955 . S
H350 C371 0.950 . S
H351 C374 0.950 . S
H352 C375 0.950 . S
H353 C377 0.950 . S
H354 C378 0.950 . S
H355 C379 0.951 . S
H356 C381 0.951 . S
H357 C383 0.950 . S
H358 C384 0.950 . S
H359 C386 0.950 . S
H360 C389 0.950 . S
H361 C390 0.950 . S
H362 C392 0.950 . S
H363 C393 0.950 . S
C364 H346 0.952 . S
C364 C365 1.370 . S
C364 C366 1.385 1_554 S
C365 C364 1.370 . S
C365 C369 1.385 . S
C366 H347 0.951 . S
C366 C364 1.385 1_556 S
C366 C367 1.366 . S
C367 C366 1.366 . S
C367 C368 1.414 . S
C367 C370 1.499 . S
C368 H348 0.950 . S
C368 C367 1.414 . S
C368 C369 1.371 1_556 S
C369 H349 0.955 . S
C369 C365 1.385 . S
C369 C368 1.371 1_554 S
C370 C367 1.499 . S
C370 C371 1.373 . S
C370 C372 1.389 1_556 S
C371 H350 0.950 . S
C371 C370 1.373 . S
C371 C387 1.377 . S
C372 C370 1.389 1_554 S
C372 C373 1.524 . S
C372 C386 1.377 . S
C373 C372 1.524 . S
C373 C374 1.397 . S
C373 C378 1.363 . S
C374 H351 0.950 . S
C374 C373 1.397 . S
C374 C375 1.334 . S
C375 H352 0.950 . S
C375 C374 1.334 . S
C375 C376 1.287 . S
C376 C375 1.287 . S
C376 C377 1.524 . S
C376 H395 0.913 . S
C377 H353 0.950 . S
C377 C376 1.524 . S
C377 C378 1.415 . S
C378 H354 0.950 . S
C378 C373 1.363 . S
C378 C377 1.415 . S
C379 H355 0.951 . S
C379 C380 1.366 . S
C379 C381 1.388 . S
C380 C379 1.366 . S
C380 C384 1.385 . S
C381 H356 0.951 . S
C381 C379 1.388 . S
C381 C382 1.366 . S
C382 C381 1.366 . S
C382 C383 1.414 . S
C382 C385 1.499 . S
C383 H357 0.950 . S
C383 C382 1.414 . S
C383 C384 1.374 . S
C384 H358 0.950 . S
C384 C380 1.385 . S
C384 C383 1.374 . S
C385 C382 1.499 . S
C385 C386 1.373 1_556 S
C385 C387 1.389 . S
C386 H359 0.950 . S
C386 C372 1.377 . S
C386 C385 1.373 1_554 S
C387 C371 1.377 . S
C387 C385 1.389 . S
C387 C388 1.524 . S
C388 C387 1.524 . S
C388 C389 1.397 . S
C388 C393 1.363 . S
C389 H360 0.950 . S
C389 C388 1.397 . S
C389 C390 1.334 . S
C390 H361 0.950 . S
C390 C389 1.334 . S
C390 C391 1.287 . S
C391 C390 1.287 . S
C391 C392 1.524 . S
C391 H394 0.999 . S
C392 H362 0.950 . S
C392 C391 1.524 . S
C392 C393 1.415 . S
C393 H363 0.950 . S
C393 C388 1.363 . S
C393 C392 1.415 . S
H394 C391 0.999 . S
H395 C376 0.913 . S
H396 C414 0.951 . S
H397 C416 0.951 . S
H398 C418 0.950 . S
H399 C419 0.950 . S
H400 C421 0.950 . S
H401 C424 0.950 . S
H402 C425 0.950 . S
H403 C427 0.950 . S
H404 C428 0.950 . S
H405 C429 0.951 . S
H406 C431 0.951 . S
H407 C433 0.950 . S
H408 C434 0.950 . S
H409 C436 0.950 . S
H410 C439 0.950 . S
H411 C440 0.950 . S
H412 C442 0.950 . S
H413 C443 0.950 . S
C414 H396 0.951 . S
C414 C415 1.366 . S
C414 C416 1.388 . S
C415 C414 1.366 . S
C415 C419 1.385 . S
C416 H397 0.951 . S
C416 C414 1.388 . S
C416 C417 1.366 . S
C417 C416 1.366 . S
C417 C418 1.414 . S
C417 C420 1.499 . S
C418 H398 0.950 . S
C418 C417 1.414 . S
C418 C419 1.374 . S
C419 H399 0.950 . S
C419 C415 1.385 . S
C419 C418 1.374 . S
C420 C417 1.499 . S
C420 C421 1.373 . S
C420 C422 1.389 . S
C421 H400 0.950 . S
C421 C420 1.373 . S
C421 C437 1.377 . S
C422 C420 1.389 . S
C422 C423 1.524 . S
C422 C436 1.377 . S
C423 C422 1.524 . S
C423 C424 1.397 . S
C423 C428 1.363 . S
C424 H401 0.950 . S
C424 C423 1.397 . S
C424 C425 1.334 . S
C425 H402 0.950 . S
C425 C424 1.334 . S
C425 C426 1.287 . S
C426 C425 1.287 . S
C426 C427 1.524 . S
C426 H445 0.913 . S
C427 H403 0.950 . S
C427 C426 1.524 . S
C427 C428 1.415 . S
C428 H404 0.950 . S
C428 C423 1.363 . S
C428 C427 1.415 . S
C429 H405 0.951 . S
C429 C430 1.366 . S
C429 C431 1.388 . S
C430 C429 1.366 . S
C430 C434 1.385 . S
C431 H406 0.951 . S
C431 C429 1.388 . S
C431 C432 1.366 . S
C432 C431 1.366 . S
C432 C433 1.414 . S
C432 C435 1.499 . S
C433 H407 0.950 . S
C433 C432 1.414 . S
C433 C434 1.374 . S
C434 H408 0.950 . S
C434 C430 1.385 . S
C434 C433 1.374 . S
C435 C432 1.499 . S
C435 C436 1.373 . S
C435 C437 1.389 . S
C436 H409 0.950 . S
C436 C422 1.377 . S
C436 C435 1.373 . S
C437 C421 1.377 . S
C437 C435 1.389 . S
C437 C438 1.524 . S
C438 C437 1.524 . S
C438 C439 1.397 . S
C438 C443 1.363 . S
C439 H410 0.950 . S
C439 C438 1.397 . S
C439 C440 1.334 . S
C440 H411 0.950 . S
C440 C439 1.334 . S
C440 C441 1.287 . S
C441 C440 1.287 . S
C441 C442 1.524 . S
C441 H444 0.999 . S
C442 H412 0.950 . S
C442 C441 1.524 . S
C442 C443 1.415 . S
C443 H413 0.950 . S
C443 C438 1.363 . S
C443 C442 1.415 . S
H444 C441 0.999 . S
H445 C426 0.913 . S
H446 C464 0.951 . S
H447 C466 0.951 . S
H448 C468 0.950 . S
H449 C469 0.950 . S
H450 C471 0.950 . S
H451 C474 0.950 . S
H452 C475 0.950 . S
H453 C477 0.950 . S
H454 C478 0.950 . S
H455 C479 0.951 . S
H456 C481 0.951 . S
H457 C483 0.950 . S
H458 C484 0.950 . S
H459 C486 0.950 . S
H460 C489 0.950 . S
H461 C490 0.950 . S
H462 C492 0.950 . S
H463 C493 0.950 . S
C464 H446 0.951 . S
C464 C465 1.366 . S
C464 C466 1.388 . S
C465 C464 1.366 . S
C465 C469 1.385 . S
C466 H447 0.951 . S
C466 C464 1.388 . S
C466 C467 1.366 . S
C467 C466 1.366 . S
C467 C468 1.414 . S
C467 C470 1.499 . S
C468 H448 0.950 . S
C468 C467 1.414 . S
C468 C469 1.374 . S
C469 H449 0.950 . S
C469 C465 1.385 . S
C469 C468 1.374 . S
C470 C467 1.499 . S
C470 C471 1.373 . S
C470 C472 1.389 . S
C471 H450 0.950 . S
C471 C470 1.373 . S
C471 C487 1.377 . S
C472 C470 1.389 . S
C472 C473 1.524 . S
C472 C486 1.377 . S
C473 C472 1.524 . S
C473 C474 1.397 . S
C473 C478 1.363 . S
C474 H451 0.950 . S
C474 C473 1.397 . S
C474 C475 1.334 . S
C475 H452 0.950 . S
C475 C474 1.334 . S
C475 C476 1.287 . S
C476 C475 1.287 . S
C476 C477 1.524 . S
C476 H495 0.913 . S
C477 H453 0.950 . S
C477 C476 1.524 . S
C477 C478 1.415 . S
C478 H454 0.950 . S
C478 C473 1.363 . S
C478 C477 1.415 . S
C479 H455 0.951 . S
C479 C480 1.366 . S
C479 C481 1.388 . S
C480 C479 1.366 . S
C480 C484 1.385 . S
C481 H456 0.951 . S
C481 C479 1.388 . S
C481 C482 1.366 . S
C482 C481 1.366 . S
C482 C483 1.414 . S
C482 C485 1.499 . S
C483 H457 0.950 . S
C483 C482 1.414 . S
C483 C484 1.374 . S
C484 H458 0.950 . S
C484 C480 1.385 . S
C484 C483 1.374 . S
C485 C482 1.499 . S
C485 C486 1.373 . S
C485 C487 1.389 . S
C486 H459 0.950 . S
C486 C472 1.377 . S
C486 C485 1.373 . S
C487 C471 1.377 . S
C487 C485 1.389 . S
C487 C488 1.524 . S
C488 C487 1.524 . S
C488 C489 1.397 . S
C488 C493 1.363 . S
C489 H460 0.950 . S
C489 C488 1.397 . S
C489 C490 1.334 . S
C490 H461 0.950 . S
C490 C489 1.334 . S
C490 C491 1.287 . S
C491 C490 1.287 . S
C491 C492 1.524 . S
C491 H494 0.999 . S
C492 H462 0.950 . S
C492 C491 1.524 . S
C492 C493 1.415 . S
C493 H463 0.950 . S
C493 C488 1.363 . S
C493 C492 1.415 . S
H494 C491 0.999 . S
H495 C476 0.913 . S
H496 C514 0.951 . S
H497 C516 0.951 . S
H498 C518 0.950 . S
H499 C519 0.950 . S
H500 C521 0.950 . S
H501 C524 0.950 . S
H502 C525 0.950 . S
H503 C527 0.950 . S
H504 C528 0.950 . S
H505 C529 0.951 . S
H506 C531 0.951 . S
H507 C533 0.950 . S
H508 C534 0.950 . S
H509 C536 0.950 . S
H510 C539 0.950 . S
H511 C540 0.950 . S
H512 C542 0.950 . S
H513 C543 0.950 . S
C514 H496 0.951 . S
C514 C515 1.366 . S
C514 C516 1.388 . S
C515 C514 1.366 . S
C515 C519 1.385 . S
C516 H497 0.951 . S
C516 C514 1.388 . S
C516 C517 1.366 . S
C517 C516 1.366 . S
C517 C518 1.414 . S
C517 C520 1.499 . S
C518 H498 0.950 . S
C518 C517 1.414 . S
C518 C519 1.374 . S
C519 H499 0.950 . S
C519 C515 1.385 . S
C519 C518 1.374 . S
C520 C517 1.499 . S
C520 C521 1.373 . S
C520 C522 1.389 . S
C521 H500 0.950 . S
C521 C520 1.373 . S
C521 C537 1.377 . S
C522 C520 1.389 . S
C522 C523 1.524 . S
C522 C536 1.377 . S
C523 C522 1.524 . S
C523 C524 1.397 . S
C523 C528 1.363 . S
C524 H501 0.950 . S
C524 C523 1.397 . S
C524 C525 1.334 . S
C525 H502 0.950 . S
C525 C524 1.334 . S
C525 C526 1.287 . S
C526 C525 1.287 . S
C526 C527 1.524 . S
C526 H545 0.913 . S
C527 H503 0.950 . S
C527 C526 1.524 . S
C527 C528 1.415 . S
C528 H504 0.950 . S
C528 C523 1.363 . S
C528 C527 1.415 . S
C529 H505 0.951 . S
C529 C530 1.366 . S
C529 C531 1.388 . S
C530 C529 1.366 . S
C530 C534 1.385 . S
C531 H506 0.951 . S
C531 C529 1.388 . S
C531 C532 1.366 . S
C532 C531 1.366 . S
C532 C533 1.414 . S
C532 C535 1.499 . S
C533 H507 0.950 . S
C533 C532 1.414 . S
C533 C534 1.374 . S
C534 H508 0.950 . S
C534 C530 1.385 . S
C534 C533 1.374 . S
C535 C532 1.499 . S
C535 C536 1.373 . S
C535 C537 1.389 . S
C536 H509 0.950 . S
C536 C522 1.377 . S
C536 C535 1.373 . S
C537 C521 1.377 . S
C537 C535 1.389 . S
C537 C538 1.524 . S
C538 C537 1.524 . S
C538 C539 1.397 . S
C538 C543 1.363 . S
C539 H510 0.950 . S
C539 C538 1.397 . S
C539 C540 1.334 . S
C540 H511 0.950 . S
C540 C539 1.334 . S
C540 C541 1.287 . S
C541 C540 1.287 . S
C541 C542 1.524 . S
C541 H544 0.999 . S
C542 H512 0.950 . S
C542 C541 1.524 . S
C542 C543 1.415 . S
C543 H513 0.950 . S
C543 C538 1.363 . S
C543 C542 1.415 . S
H544 C541 0.999 . S
H545 C526 0.913 . S
H546 C564 0.951 . S
H547 C566 0.951 . S
H548 C568 0.950 . S
H549 C569 0.950 . S
H550 C571 0.950 . S
H551 C574 0.950 . S
H552 C575 0.950 . S
H553 C577 0.950 . S
H554 C578 0.950 . S
H555 C579 0.951 . S
H556 C581 0.951 . S
H557 C583 0.950 . S
H558 C584 0.950 . S
H559 C586 0.950 . S
H560 C589 0.950 . S
H561 C590 0.950 . S
H562 C592 0.950 . S
H563 C593 0.950 . S
C564 H546 0.951 . S
C564 C565 1.366 . S
C564 C566 1.388 . S
C565 C564 1.366 . S
C565 C569 1.385 . S
C566 H547 0.951 . S
C566 C564 1.388 . S
C566 C567 1.366 . S
C567 C566 1.366 . S
C567 C568 1.414 . S
C567 C570 1.499 . S
C568 H548 0.950 . S
C568 C567 1.414 . S
C568 C569 1.374 . S
C569 H549 0.950 . S
C569 C565 1.385 . S
C569 C568 1.374 . S
C570 C567 1.499 . S
C570 C571 1.373 . S
C570 C572 1.389 . S
C571 H550 0.950 . S
C571 C570 1.373 . S
C571 C587 1.377 . S
C572 C570 1.389 . S
C572 C573 1.524 . S
C572 C586 1.377 . S
C573 C572 1.524 . S
C573 C574 1.397 . S
C573 C578 1.363 . S
C574 H551 0.950 . S
C574 C573 1.397 . S
C574 C575 1.334 . S
C575 H552 0.950 . S
C575 C574 1.334 . S
C575 C576 1.287 . S
C576 C575 1.287 . S
C576 C577 1.524 . S
C576 H595 0.913 . S
C577 H553 0.950 . S
C577 C576 1.524 . S
C577 C578 1.415 . S
C578 H554 0.950 . S
C578 C573 1.363 . S
C578 C577 1.415 . S
C579 H555 0.951 . S
C579 C580 1.366 . S
C579 C581 1.388 . S
C580 C579 1.366 . S
C580 C584 1.385 . S
C581 H556 0.951 . S
C581 C579 1.388 . S
C581 C582 1.366 . S
C582 C581 1.366 . S
C582 C583 1.414 . S
C582 C585 1.499 . S
C583 H557 0.950 . S
C583 C582 1.414 . S
C583 C584 1.374 . S
C584 H558 0.950 . S
C584 C580 1.385 . S
C584 C583 1.374 . S
C585 C582 1.499 . S
C585 C586 1.373 . S
C585 C587 1.389 . S
C586 H559 0.950 . S
C586 C572 1.377 . S
C586 C585 1.373 . S
C587 C571 1.377 . S
C587 C585 1.389 . S
C587 C588 1.524 . S
C588 C587 1.524 . S
C588 C589 1.397 . S
C588 C593 1.363 . S
C589 H560 0.950 . S
C589 C588 1.397 . S
C589 C590 1.334 . S
C590 H561 0.950 . S
C590 C589 1.334 . S
C590 C591 1.287 . S
C591 C590 1.287 . S
C591 C592 1.524 . S
C591 H594 0.999 . S
C592 H562 0.950 . S
C592 C591 1.524 . S
C592 C593 1.415 . S
C593 H563 0.950 . S
C593 C588 1.363 . S
C593 C592 1.415 . S
H594 C591 0.999 . S
H595 C576 0.913 . S
H596 C614 0.951 . S
H597 C616 0.951 . S
H598 C618 0.950 . S
H599 C619 0.950 . S
H600 C621 0.950 . S
H601 C624 0.950 . S
H602 C625 0.950 . S
H603 C627 0.950 . S
H604 C628 0.950 . S
H605 C629 0.951 . S
H606 C631 0.951 . S
H607 C633 0.950 . S
H608 C634 0.950 . S
H609 C636 0.950 . S
H610 C639 0.950 . S
H611 C640 0.950 . S
H612 C642 0.950 . S
H613 C643 0.950 . S
C614 H596 0.951 . S
C614 C615 1.366 1_565 S
C614 C616 1.388 . S
C615 C614 1.366 1_545 S
C615 C619 1.385 1_455 S
C616 H597 0.951 . S
C616 C614 1.388 . S
C616 C617 1.366 1_565 S
C617 C616 1.366 1_545 S
C617 C618 1.414 1_455 S
C617 C620 1.498 1_455 S
C618 H598 0.950 . S
C618 C617 1.414 1_655 S
C618 C619 1.374 . S
C619 H599 0.950 . S
C619 C615 1.385 1_655 S
C619 C618 1.374 . S
C620 C617 1.498 1_655 S
C620 C621 1.369 1_655 S
C620 C622 1.394 1_545 S
C621 H600 0.950 . S
C621 C620 1.369 1_455 S
C621 C637 1.377 . S
C622 C620 1.394 1_565 S
C622 C623 1.524 . S
C622 C636 1.377 . S
C623 C622 1.524 . S
C623 C624 1.397 . S
C623 C628 1.363 . S
C624 H601 0.950 . S
C624 C623 1.397 . S
C624 C625 1.334 . S
C625 H602 0.950 . S
C625 C624 1.334 . S
C625 C626 1.287 . S
C626 C625 1.287 . S
C626 C627 1.524 . S
C626 H645 0.913 . S
C627 H603 0.950 . S
C627 C626 1.524 . S
C627 C628 1.415 . S
C628 H604 0.950 . S
C628 C623 1.363 . S
C628 C627 1.415 . S
C629 H605 0.951 . S
C629 C630 1.366 . S
C629 C631 1.388 . S
C630 C629 1.366 . S
C630 C634 1.385 1_645 S
C631 H606 0.951 . S
C631 C629 1.388 . S
C631 C632 1.366 1_655 S
C632 C631 1.366 1_455 S
C632 C633 1.414 1_545 S
C632 C635 1.499 . S
C633 H607 0.950 . S
C633 C632 1.414 1_565 S
C633 C634 1.374 . S
C634 H608 0.950 . S
C634 C630 1.385 1_465 S
C634 C633 1.374 . S
C635 C632 1.499 . S
C635 C636 1.373 1_445 S
C635 C637 1.389 . S
C636 H609 0.950 . S
C636 C622 1.377 . S
C636 C635 1.373 1_665 S
C637 C621 1.377 . S
C637 C635 1.389 . S
C637 C638 1.524 . S
C638 C637 1.524 . S
C638 C639 1.397 . S
C638 C643 1.363 . S
C639 H610 0.950 . S
C639 C638 1.397 . S
C639 C640 1.334 . S
C640 H611 0.950 . S
C640 C639 1.334 . S
C640 C641 1.287 . S
C641 C640 1.287 . S
C641 C642 1.524 . S
C641 H644 0.999 . S
C642 H612 0.950 . S
C642 C641 1.524 . S
C642 C643 1.415 . S
C643 H613 0.950 . S
C643 C638 1.363 . S
C643 C642 1.415 . S
H644 C641 0.999 . S
H645 C626 0.913 . S
H646 C664 0.951 . S
H647 C666 0.951 . S
H648 C668 0.950 . S
H649 C669 0.950 . S
H650 C671 0.952 . S
H651 C674 0.950 . S
H652 C675 0.950 . S
H653 C677 0.950 . S
H654 C678 0.950 . S
H655 C679 0.951 . S
H656 C681 0.951 . S
H657 C683 0.950 . S
H658 C684 0.950 . S
H659 C686 0.950 . S
H660 C689 0.950 . S
H661 C690 0.950 . S
H662 C692 0.950 . S
H663 C693 0.950 . S
C664 H646 0.951 . S
C664 C665 1.366 1_655 S
C664 C666 1.388 . S
C665 C664 1.366 1_455 S
C665 C669 1.385 1_545 S
C666 H647 0.951 . S
C666 C664 1.388 . S
C666 C667 1.366 1_655 S
C667 C666 1.366 1_455 S
C667 C668 1.414 1_545 S
C667 C670 1.499 . S
C668 H648 0.950 . S
C668 C667 1.414 1_565 S
C668 C669 1.374 . S
C669 H649 0.950 . S
C669 C665 1.385 1_565 S
C669 C668 1.374 . S
C670 C667 1.499 . S
C670 C671 1.373 1_545 S
C670 C672 1.389 1_455 S
C671 H650 0.952 . S
C671 C670 1.373 1_565 S
C671 C687 1.376 1_565 S
C672 C670 1.389 1_655 S
C672 C673 1.524 . S
C672 C686 1.377 . S
C673 C672 1.524 . S
C673 C674 1.397 1_545 S
C673 C678 1.363 . S
C674 H651 0.950 . S
C674 C673 1.397 1_565 S
C674 C675 1.334 . S
C675 H652 0.950 . S
C675 C674 1.334 . S
C675 C676 1.292 . S
C676 C675 1.292 . S
C676 C677 1.517 1_565 S
C676 H695 0.914 . S
C677 H653 0.950 . S
C677 C676 1.517 1_545 S
C677 C678 1.415 . S
C678 H654 0.950 . S
C678 C673 1.363 . S
C678 C677 1.415 . S
C679 H655 0.951 . S
C679 C680 1.366 1_565 S
C679 C681 1.388 . S
C680 C679 1.366 1_545 S
C680 C684 1.385 1_455 S
C681 H656 0.951 . S
C681 C679 1.388 . S
C681 C682 1.366 1_565 S
C682 C681 1.366 1_545 S
C682 C683 1.414 1_455 S
C682 C685 1.499 . S
C683 H657 0.950 . S
C683 C682 1.414 1_655 S
C683 C684 1.374 . S
C684 H658 0.950 . S
C684 C680 1.385 1_655 S
C684 C683 1.374 . S
C685 C682 1.499 . S
C685 C686 1.373 1_455 S
C685 C687 1.389 . S
C686 H659 0.950 . S
C686 C672 1.377 . S
C686 C685 1.373 1_655 S
C687 C671 1.376 1_545 S
C687 C685 1.389 . S
C687 C688 1.524 . S
C688 C687 1.524 . S
C688 C689 1.397 . S
C688 C693 1.363 1_545 S
C689 H660 0.950 . S
C689 C688 1.397 . S
C689 C690 1.334 . S
C690 H661 0.950 . S
C690 C689 1.334 . S
C690 C691 1.287 . S
C691 C690 1.287 . S
C691 C692 1.524 1_545 S
C691 H694 0.999 . S
C692 H662 0.950 . S
C692 C691 1.524 1_565 S
C692 C693 1.415 . S
C693 H663 0.950 . S
C693 C688 1.363 1_565 S
C693 C692 1.415 . S
H694 C691 0.999 . S
H695 C676 0.914 . S
H696 C714 0.951 . S
H697 C716 0.951 . S
H698 C718 0.950 . S
H699 C719 0.950 . S
H700 C721 0.950 . S
H701 C724 0.950 . S
H702 C725 0.950 . S
H703 C727 0.950 . S
H704 C728 0.950 . S
H705 C729 0.951 . S
H706 C731 0.951 . S
H707 C733 0.950 . S
H708 C734 0.950 . S
H709 C736 0.950 . S
H710 C739 0.950 . S
H711 C740 0.950 . S
H712 C742 0.950 . S
H713 C743 0.950 . S
C714 H696 0.951 . S
C714 C715 1.366 . S
C714 C716 1.388 . S
C715 C714 1.366 . S
C715 C719 1.385 . S
C716 H697 0.951 . S
C716 C714 1.388 . S
C716 C717 1.366 . S
C717 C716 1.366 . S
C717 C718 1.414 . S
C717 C720 1.499 . S
C718 H698 0.950 . S
C718 C717 1.414 . S
C718 C719 1.374 . S
C719 H699 0.950 . S
C719 C715 1.385 . S
C719 C718 1.374 . S
C720 C717 1.499 . S
C720 C721 1.373 . S
C720 C722 1.389 . S
C721 H700 0.950 . S
C721 C720 1.373 . S
C721 C737 1.377 . S
C722 C720 1.389 . S
C722 C723 1.524 . S
C722 C736 1.377 . S
C723 C722 1.524 . S
C723 C724 1.397 . S
C723 C728 1.363 . S
C724 H701 0.950 . S
C724 C723 1.397 . S
C724 C725 1.334 . S
C725 H702 0.950 . S
C725 C724 1.334 . S
C725 C726 1.287 . S
C726 C725 1.287 . S
C726 C727 1.524 . S
C726 H745 0.913 . S
C727 H703 0.950 . S
C727 C726 1.524 . S
C727 C728 1.415 . S
C728 H704 0.950 . S
C728 C723 1.363 . S
C728 C727 1.415 . S
C729 H705 0.951 . S
C729 C730 1.366 . S
C729 C731 1.388 . S
C730 C729 1.366 . S
C730 C734 1.385 . S
C731 H706 0.951 . S
C731 C729 1.388 . S
C731 C732 1.366 . S
C732 C731 1.366 . S
C732 C733 1.414 . S
C732 C735 1.499 . S
C733 H707 0.950 . S
C733 C732 1.414 . S
C733 C734 1.374 . S
C734 H708 0.950 . S
C734 C730 1.385 . S
C734 C733 1.374 . S
C735 C732 1.499 . S
C735 C736 1.373 . S
C735 C737 1.389 . S
C736 H709 0.950 . S
C736 C722 1.377 . S
C736 C735 1.373 . S
C737 C721 1.377 . S
C737 C735 1.389 . S
C737 C738 1.524 . S
C738 C737 1.524 . S
C738 C739 1.397 . S
C738 C743 1.363 . S
C739 H710 0.950 . S
C739 C738 1.397 . S
C739 C740 1.334 . S
C740 H711 0.950 . S
C740 C739 1.334 . S
C740 C741 1.287 . S
C741 C740 1.287 . S
C741 C742 1.524 . S
C741 H744 0.999 . S
C742 H712 0.950 . S
C742 C741 1.524 . S
C742 C743 1.415 . S
C743 H713 0.950 . S
C743 C738 1.363 . S
C743 C742 1.415 . S
H744 C741 0.999 . S
H745 C726 0.913 . S
H746 C764 0.951 . S
H747 C766 0.951 . S
H748 C768 0.950 . S
H749 C769 0.950 . S
H750 C771 0.950 . S
H751 C774 0.950 . S
H752 C775 0.950 . S
H753 C777 0.950 . S
H754 C778 0.950 . S
H755 C779 0.951 . S
H756 C781 0.951 . S
H757 C783 0.950 . S
H758 C784 0.950 . S
H759 C786 0.950 . S
H760 C789 0.950 . S
H761 C790 0.950 . S
H762 C792 0.950 . S
H763 C793 0.950 . S
C764 H746 0.951 . S
C764 C765 1.366 . S
C764 C766 1.388 . S
C765 C764 1.366 . S
C765 C769 1.385 . S
C766 H747 0.951 . S
C766 C764 1.388 . S
C766 C767 1.366 . S
C767 C766 1.366 . S
C767 C768 1.414 . S
C767 C770 1.499 . S
C768 H748 0.950 . S
C768 C767 1.414 . S
C768 C769 1.374 . S
C769 H749 0.950 . S
C769 C765 1.385 . S
C769 C768 1.374 . S
C770 C767 1.499 . S
C770 C771 1.373 . S
C770 C772 1.389 . S
C771 H750 0.950 . S
C771 C770 1.373 . S
C771 C787 1.377 . S
C772 C770 1.389 . S
C772 C773 1.524 . S
C772 C786 1.377 . S
C773 C772 1.524 . S
C773 C774 1.397 . S
C773 C778 1.363 . S
C774 H751 0.950 . S
C774 C773 1.397 . S
C774 C775 1.334 . S
C775 H752 0.950 . S
C775 C774 1.334 . S
C775 C776 1.287 . S
C776 C775 1.287 . S
C776 C777 1.524 . S
C776 H795 0.913 . S
C777 H753 0.950 . S
C777 C776 1.524 . S
C777 C778 1.415 . S
C778 H754 0.950 . S
C778 C773 1.363 . S
C778 C777 1.415 . S
C779 H755 0.951 . S
C779 C780 1.366 . S
C779 C781 1.388 . S
C780 C779 1.366 . S
C780 C784 1.385 . S
C781 H756 0.951 . S
C781 C779 1.388 . S
C781 C782 1.366 . S
C782 C781 1.366 . S
C782 C783 1.414 . S
C782 C785 1.499 . S
C783 H757 0.950 . S
C783 C782 1.414 . S
C783 C784 1.374 . S
C784 H758 0.950 . S
C784 C780 1.385 . S
C784 C783 1.374 . S
C785 C782 1.499 . S
C785 C786 1.373 . S
C785 C787 1.389 . S
C786 H759 0.950 . S
C786 C772 1.377 . S
C786 C785 1.373 . S
C787 C771 1.377 . S
C787 C785 1.389 . S
C787 C788 1.524 . S
C788 C787 1.524 . S
C788 C789 1.397 . S
C788 C793 1.363 . S
C789 H760 0.950 . S
C789 C788 1.397 . S
C789 C790 1.334 . S
C790 H761 0.950 . S
C790 C789 1.334 . S
C790 C791 1.287 . S
C791 C790 1.287 . S
C791 C792 1.524 . S
C791 H794 0.999 . S
C792 H762 0.950 . S
C792 C791 1.524 . S
C792 C793 1.415 . S
C793 H763 0.950 . S
C793 C788 1.363 . S
C793 C792 1.415 . S
H794 C791 0.999 . S
H795 C776 0.913 . S
C230 C181 1.342 . S
C215 C29 1.375 . S
C265 C8 1.372 . S
C280 C149 1.336 . S
C315 C0 1.368 . S
C330 C187 1.332 . S
C365 C17 1.369 . S
C380 C155 1.331 . S
C415 C63 1.375 . S
C430 C117 1.343 . S
C465 C42 1.372 . S
C480 C85 1.336 . S
C530 C123 1.332 . S
C515 C34 1.368 . S
C580 C91 1.331 . S
C565 C51 1.370 . S
C615 C4 1.484 . S
C630 C97 1.451 1_655 S
C665 C13 1.481 . S
C680 C129 1.453 1_545 S
C730 C161 1.450 . S
C715 C38 1.484 . S
C765 C47 1.481 . S
C780 C193 1.453 . S
