# Generated by pormake.
# Topology sqc, (4,8)-cn, num edge types: 1
# Building blocks:
#     Node 0, Type 0, BuildingBlock: GIZVER_clean_linker_0, # of connection points: 4
#     Node 1, Type 0, BuildingBlock: GIZVER_clean_linker_0, # of connection points: 4
#     Node 2, Type 0, BuildingBlock: GIZVER_clean_linker_0, # of connection points: 4
#     Node 3, Type 0, BuildingBlock: GIZVER_clean_linker_0, # of connection points: 4
#     Node 4, Type 0, BuildingBlock: GIZVER_clean_linker_0, # of connection points: 4
#     Node 5, Type 0, BuildingBlock: GIZVER_clean_linker_0, # of connection points: 4
#     Node 6, Type 0, BuildingBlock: GIZVER_clean_linker_0, # of connection points: 4
#     Node 7, Type 0, BuildingBlock: GIZVER_clean_linker_0, # of connection points: 4
#     Node 8, Type 1, BuildingBlock: VETTIZ_charged_sbu_0, # of connection points: 8
#     Node 9, Type 1, BuildingBlock: VETTIZ_charged_sbu_0, # of connection points: 8
#     Node 10, Type 1, BuildingBlock: VETTIZ_charged_sbu_0, # of connection points: 8
#     Node 11, Type 1, BuildingBlock: VETTIZ_charged_sbu_0, # of connection points: 8
#     Edge 12, Type (0, 1), None
#     Edge 13, Type (0, 1), None
#     Edge 14, Type (0, 1), None
#     Edge 15, Type (0, 1), None
#     Edge 16, Type (0, 1), None
#     Edge 17, Type (0, 1), None
#     Edge 18, Type (0, 1), None
#     Edge 19, Type (0, 1), None
#     Edge 20, Type (0, 1), None
#     Edge 21, Type (0, 1), None
#     Edge 22, Type (0, 1), None
#     Edge 23, Type (0, 1), None
#     Edge 24, Type (0, 1), None
#     Edge 25, Type (0, 1), None
#     Edge 26, Type (0, 1), None
#     Edge 27, Type (0, 1), None
#     Edge 28, Type (0, 1), None
#     Edge 29, Type (0, 1), None
#     Edge 30, Type (0, 1), None
#     Edge 31, Type (0, 1), None
#     Edge 32, Type (0, 1), None
#     Edge 33, Type (0, 1), None
#     Edge 34, Type (0, 1), None
#     Edge 35, Type (0, 1), None
#     Edge 36, Type (0, 1), None
#     Edge 37, Type (0, 1), None
#     Edge 38, Type (0, 1), None
#     Edge 39, Type (0, 1), None
#     Edge 40, Type (0, 1), None
#     Edge 41, Type (0, 1), None
#     Edge 42, Type (0, 1), None
#     Edge 43, Type (0, 1), None
# Relax obj value: 0.167
# Max RMSD: 0.280
# Mean RMSD: 0.219
data_MOF--net-sqc--node1-VETTIZ_charged_sbu_0--node2-GIZVER_clean_linker_0--edge1-none
_symmetry_space_group_name_H-M    P1
_symmetry_Int_Tables_number       1
_symmetry_cell_setting            triclinic
loop_
_symmetry_equiv_pos_as_xyz
'x, y, z'
_cell_length_a     12.097426
_cell_length_b     12.205204
_cell_length_c     36.162579
_cell_angle_alpha  90.05098
_cell_angle_beta   90.266936
_cell_angle_gamma 90.570981
loop_
_atom_site_label
_atom_site_type_symbol
_atom_site_fract_x
_atom_site_fract_y
_atom_site_fract_z
_atom_type_partial_charge
H0 H 0.92713 0.98619 0.42717 0.0
H1 H 0.93262 0.2185 0.51647 0.0
H2 H 0.64983 1.00953 0.50041 0.0
H3 H 0.0463 0.14777 0.42505 0.0
H4 H 0.05555 0.24052 0.46297 0.0
H5 H 0.20274 0.03886 0.41557 0.0
H6 H 0.45706 0.03227 0.49938 0.0
H7 H 0.13149 0.15273 0.52469 0.0
C8 C 0.89165 0.01795 0.45246 0.0
C9 C 0.78327 0.98757 0.46227 0.0
C10 C 0.94718 0.1013 0.47189 0.0
C11 C 0.89351 0.15061 0.50193 0.0
C12 C 0.78594 0.11672 0.51163 0.0
C13 C 0.73393 0.03206 0.49315 0.0
C14 C 0.05079 0.1519 0.45578 0.0
C15 C 0.15572 0.09857 0.46933 0.0
C16 C 0.22841 0.05028 0.4441 0.0
C17 C 0.33682 0.02467 0.45445 0.0
C18 C 0.3722 0.04711 0.49155 0.0
C19 C 0.29785 0.09138 0.5181 0.0
C20 C 0.18922 0.11407 0.5061 0.0
H21 H 0.40115 0.9022 0.68252 0.0
H22 H 0.23276 0.87464 0.78645 0.0
H23 H 0.21266 0.17287 0.7238 0.0
H24 H 0.43907 0.75613 0.72166 0.0
H25 H 0.4228 0.78083 0.76986 0.0
H26 H 0.35468 0.61512 0.69046 0.0
H27 H 0.23456 0.35481 0.75867 0.0
H28 H 0.2575 0.68344 0.8026 0.0
C29 C 0.34552 0.93555 0.70297 0.0
C30 C 0.30677 0.04288 0.69867 0.0
C31 C 0.3161 0.87306 0.73442 0.0
C32 C 0.25026 0.92098 0.7616 0.0
C33 C 0.21409 0.03003 0.75831 0.0
C34 C 0.23962 0.08873 0.72627 0.0
C35 C 0.37721 0.76885 0.74337 0.0
C36 C 0.311 0.66321 0.74594 0.0
C37 C 0.31895 0.58877 0.71649 0.0
C38 C 0.29467 0.47787 0.72161 0.0
C39 C 0.25469 0.44103 0.75554 0.0
C40 C 0.23542 0.51539 0.78452 0.0
C41 C 0.26536 0.62678 0.77973 0.0
H42 H 0.65312 0.02767 0.04934 0.0
H43 H 0.68323 0.12852 0.93631 0.0
H44 H 0.9581 0.97593 -0.00884 0.0
H45 H 0.5497 0.18458 0.02372 0.0
H46 H 0.55695 0.20363 -0.02532 0.0
H47 H 0.45551 0.98461 0.04217 0.0
H48 H 0.14105 0.96887 -0.01392 0.0
H49 H 0.39803 0.17183 0.94304 0.0
C50 C 0.70182 0.03162 0.02425 0.0
C51 C 0.81076 0.99447 0.02452 0.0
C52 C 0.65537 0.07796 -0.00726 0.0
C53 C 0.71853 0.08835 0.96031 0.0
C54 C 0.82863 0.05487 0.95914 0.0
C55 C 0.87449 1.00549 -0.00845 0.0
C56 C 0.55115 0.14182 -0.00344 0.0
C57 C 0.44347 0.07954 -0.00813 0.0
C58 C 0.40319 1.00625 0.01899 0.0
C59 C 0.2928 0.96583 0.01686 0.0
C60 C 0.22518 0.999 -0.01172 0.0
C61 C 0.26275 0.0747 0.96309 0.0
C62 C 0.37145 0.11276 0.96365 0.0
H63 H 0.15853 0.119 0.19664 0.0
H64 H 0.28749 0.1839 0.30613 0.0
H65 H 0.33407 0.86899 0.25443 0.0
H66 H 0.07549 0.25939 0.23255 0.0
H67 H 0.11413 0.2812 0.27939 0.0
H68 H 0.11968 0.40522 0.18944 0.0
H69 H 0.33176 0.66953 0.22674 0.0
H70 H 0.30091 0.37644 0.29144 0.0
C71 C 0.20626 0.09437 0.22065 0.0
C72 C 0.24767 0.98776 0.22234 0.0
C73 C 0.21802 0.1663 0.25081 0.0
C74 C 0.27793 0.13025 0.28245 0.0
C75 C 0.32067 0.02238 0.28408 0.0
C76 C 0.30298 0.95204 0.25388 0.0
C77 C 0.14838 0.2702 0.25115 0.0
C78 C 0.20902 0.37564 0.24074 0.0
C79 C 0.17967 0.43766 0.20902 0.0
C80 C 0.2262 0.54308 0.20325 0.0
C81 C 0.29946 0.58691 0.22995 0.0
C82 C 0.32468 0.52905 0.26213 0.0
C83 C 0.28217 0.42212 0.26657 0.0
H84 H 0.64164 0.37145 0.28421 0.0
H85 H 0.78554 0.45023 0.17941 0.0
H86 H 0.78578 0.69185 0.26544 0.0
H87 H 0.57634 0.28859 0.22185 0.0
H88 H 0.65777 0.30784 0.18184 0.0
H89 H 0.6452 0.17544 0.27341 0.0
H90 H 0.7966 0.88266 0.23397 0.0
H91 H 0.79722 0.17257 0.16613 0.0
C92 C 0.69014 0.42712 0.26739 0.0
C93 C 0.71664 0.53378 0.28087 0.0
C94 C 0.71576 0.39607 0.23072 0.0
C95 C 0.76949 0.47162 0.20802 0.0
C96 C 0.79227 0.57812 0.22021 0.0
C97 C 0.77042 0.60792 0.25687 0.0
C98 C 0.66347 0.29621 0.21232 0.0
C99 C 0.72149 0.18943 0.22014 0.0
C100 C 0.69535 0.13466 0.25287 0.0
C101 C 0.72094 0.02402 0.25754 0.0
C102 C 0.78025 0.9692 0.23048 0.0
C103 C 0.81215 0.0233 0.1979 0.0
C104 C 0.78188 0.13362 0.19256 0.0
H105 H 0.638 0.65269 0.68384 0.0
H106 H 0.81542 0.68535 0.78648 0.0
H107 H 0.83382 0.38572 0.72438 0.0
H108 H 0.60186 0.79959 0.72279 0.0
H109 H 0.62382 0.77756 0.77089 0.0
H110 H 0.68434 0.93811 0.68953 0.0
H111 H 0.8127 0.2022 0.75515 0.0
H112 H 0.78949 0.87728 0.80161 0.0
C113 C 0.69588 0.62057 0.70397 0.0
C114 C 0.73551 0.51366 0.69967 0.0
C115 C 0.72739 0.68428 0.73499 0.0
C116 C 0.79637 0.63815 0.76185 0.0
C117 C 0.83378 0.52958 0.75859 0.0
C118 C 0.80609 0.46957 0.72685 0.0
C119 C 0.66624 0.78826 0.74389 0.0
C120 C 0.73239 0.89393 0.74511 0.0
C121 C 0.72276 0.96609 0.71507 0.0
C122 C 0.74882 0.07708 0.71913 0.0
C123 C 0.79167 0.11599 0.75265 0.0
C124 C 0.81177 0.04362 0.78216 0.0
C125 C 0.78063 0.93237 0.77834 0.0
H126 H 0.39694 0.5328 0.05193 0.0
H127 H 0.3614 0.4253 0.93962 0.0
H128 H 0.08855 0.58018 -0.00566 0.0
H129 H 0.49989 0.37605 0.02758 0.0
H130 H 0.48769 0.34988 -0.02076 0.0
H131 H 0.59603 0.57382 0.04291 0.0
H132 H 0.90551 0.58591 -0.01521 0.0
H133 H 0.64386 0.38035 0.94476 0.0
C134 C 0.34693 0.52739 0.02701 0.0
C135 C 0.23782 0.56395 0.02745 0.0
C136 C 0.39175 0.47898 -0.00432 0.0
C137 C 0.32706 0.46687 0.96341 0.0
C138 C 0.21685 0.5006 0.96219 0.0
C139 C 0.17244 0.55122 -0.00541 0.0
C140 C 0.49599 0.4149 -0.00021 0.0
C141 C 0.6034 0.4759 -0.00669 0.0
C142 C 0.64638 0.55071 0.01954 0.0
C143 C 0.75675 0.59017 0.01655 0.0
C144 C 0.82149 0.55596 -0.01238 0.0
C145 C 0.78133 0.47912 0.96303 0.0
C146 C 0.67259 0.44072 0.96472 0.0
H147 H 0.09359 0.50773 0.54507 0.0
H148 H 0.1535 0.70701 0.44875 0.0
H149 H 0.40114 0.48524 0.48626 0.0
H150 H 1.00566 0.70587 0.53284 0.0
H151 H 0.9998 0.74987 0.48626 0.0
H152 H 0.89461 0.54937 0.55434 0.0
H153 H 0.59875 0.48073 0.49132 0.0
H154 H 0.86682 0.66668 0.44276 0.0
C155 C 0.14506 0.53075 0.52187 0.0
C156 C 0.25215 0.48507 0.518 0.0
C157 C 0.10687 0.61067 0.49667 0.0
C158 C 0.17836 0.64407 0.46813 0.0
C159 C 0.28421 0.59902 0.4656 0.0
C160 C 0.319 0.51887 0.48948 0.0
C161 C 1.00185 0.67517 0.50388 0.0
C162 C 0.8937 0.61187 0.49875 0.0
C163 C 0.84755 0.55517 0.52884 0.0
C164 C 0.7406 0.50905 0.52711 0.0
C165 C 0.68013 0.51785 0.49334 0.0
C166 C 0.72526 0.57395 0.46214 0.0
C167 C 0.83215 0.62067 0.46564 0.0
Fe168 Fe 0.02273 0.78276 0.1606 0.0
O169 O 0.12229 0.83182 0.1196 0.0
Fe170 Fe 0.7665 0.76388 0.11751 0.0
Fe171 Fe 0.28116 0.79904 0.12007 0.0
O172 O 0.92511 0.73174 0.1191 0.0
O173 O 0.92575 0.73054 0.11504 0.0
O174 O 0.12186 0.83335 0.11549 0.0
Fe175 Fe 0.02482 0.77976 0.07374 0.0
C176 C 0.22096 0.90939 0.19298 0.0
O177 O 0.0947 0.62911 0.16336 0.0
O178 O 0.27017 0.681 0.16038 0.0
O179 O 0.90199 0.7102 0.0382 0.0
O180 O 0.76109 0.6509 0.07714 0.0
O181 O 0.76615 0.65756 0.16178 0.0
O182 O 0.90849 0.72196 0.19863 0.0
O183 O 0.27658 0.68335 0.07779 0.0
O184 O 0.10168 0.63081 0.07084 0.0
C185 C 0.82304 0.65973 0.1923 0.0
O186 O 0.94765 0.92838 0.06819 0.0
O187 O 0.77277 0.87473 0.07425 0.0
O188 O 0.13619 0.84581 0.1986 0.0
O189 O 0.28042 0.91136 0.16321 0.0
C190 C 0.19583 0.61506 0.17167 0.0
C191 C 0.20265 0.62532 0.0614 0.0
C192 C 0.24188 0.90011 0.04612 0.0
O193 O 0.2902 0.90726 0.07797 0.0
O194 O 0.14975 0.84534 0.03876 0.0
C195 C 0.8097 0.656 0.04551 0.0
O196 O 0.77429 0.88594 0.15588 0.0
O197 O 0.95003 0.93609 0.16211 0.0
C198 C 0.84666 0.93289 0.05827 0.0
C199 C 0.84753 0.95287 0.16719 0.0
Fe200 Fe 0.53373 0.78483 0.4082 0.0
O201 O 0.46395 0.69414 0.36833 0.0
Fe202 Fe 0.59288 0.03107 0.36639 0.0
Fe203 Fe 0.47383 0.53251 0.37102 0.0
O204 O 0.59846 0.87012 0.36654 0.0
O205 O 0.59819 0.86982 0.36302 0.0
O206 O 0.46488 0.69308 0.36462 0.0
Fe207 Fe 0.53112 0.77813 0.32278 0.0
C208 C 0.65909 0.59293 0.42708 0.0
O209 O 0.44505 0.68791 0.44523 0.0
O210 O 0.35371 0.56109 0.40859 0.0
O211 O 0.3942 0.87825 0.32048 0.0
O212 O 0.46277 0.04746 0.32909 0.0
O213 O 0.48879 0.04534 0.41254 0.0
O214 O 0.39949 0.8873 0.4118 0.0
O215 O 0.37481 0.53505 0.32484 0.0
O216 O 0.4498 0.66741 0.28633 0.0
C217 C 0.41314 0.98281 0.42519 0.0
O218 O 0.61118 0.88219 0.28466 0.0
O219 O 0.69073 0.01928 0.3206 0.0
O220 O 0.66901 0.68363 0.41026 0.0
O221 O 0.58093 0.52794 0.41753 0.0
C222 C 0.35996 0.62626 0.43673 0.0
C223 C 0.38746 0.5813 0.29284 0.0
C224 C 0.66549 0.57558 0.31574 0.0
O225 O 0.59893 0.51197 0.33281 0.0
O226 O 0.66798 0.67848 0.32214 0.0
C227 C 0.3915 0.98181 0.31496 0.0
O228 O 0.71412 1.00612 0.40396 0.0
O229 O 0.62603 0.88534 0.44345 0.0
C230 C 0.67602 0.96719 0.28979 0.0
C231 C 0.70832 0.94918 0.43405 0.0
Fe232 Fe 0.51913 0.27925 0.65822 0.0
O233 O 0.61473 0.23063 0.61639 0.0
Fe234 Fe 0.25977 0.30059 0.61733 0.0
Fe235 Fe 0.77486 0.26057 0.616 0.0
O236 O 0.41976 0.33243 0.61771 0.0
O237 O 0.42032 0.33422 0.6137 0.0
O238 O 0.614 0.22945 0.61222 0.0
Fe239 Fe 0.5157 0.28522 0.57136 0.0
C240 C 0.70003 0.44216 0.66872 0.0
O241 O 0.63391 0.21484 0.69547 0.0
O242 O 0.77296 0.14745 0.65872 0.0
O243 O 0.43308 0.13657 0.56618 0.0
O244 O 0.26069 0.19021 0.57344 0.0
O245 O 0.2671 0.1793 0.65586 0.0
O246 O 0.44157 0.12693 0.65967 0.0
O247 O 0.7762 0.15524 0.5733 0.0
O248 O 0.63584 0.22054 0.53493 0.0
C249 C 0.33974 0.11353 0.66734 0.0
O250 O 0.39176 0.35786 0.53738 0.0
O251 O 0.25334 0.41442 0.57736 0.0
O252 O 0.59773 0.431 0.66091 0.0
O253 O 0.77122 0.37548 0.65694 0.0
C254 C 0.71885 0.15314 0.68955 0.0
C255 C 0.72805 0.16761 0.5417 0.0
C256 C 0.7018 0.44039 0.55925 0.0
O257 O 0.77361 0.37957 0.5748 0.0
O258 O 0.59962 0.4338 0.56798 0.0
C259 C 0.3319 0.13315 0.55614 0.0
O260 O 0.26293 0.40665 0.66191 0.0
O261 O 0.4073 0.33999 0.69692 0.0
C262 C 0.30138 0.41258 0.54564 0.0
C263 C 0.32076 0.40061 0.69208 0.0
Fe264 Fe 0.02239 0.27739 0.90799 0.0
O265 O 0.08818 0.18919 0.86724 0.0
Fe266 Fe 0.97489 0.53008 0.86869 0.0
Fe267 Fe 0.07183 0.0272 0.86727 0.0
O268 O 0.95943 0.36835 0.86731 0.0
O269 O 0.96112 0.36927 0.86371 0.0
O270 O 0.08575 0.18806 0.86362 0.0
Fe271 Fe 0.02467 0.27993 0.82259 0.0
C272 C 0.18768 0.10681 0.93481 0.0
O273 O 0.88529 0.1751 0.90973 0.0
O274 O 0.9689 1.01698 0.91377 0.0
O275 O 0.95166 0.39053 0.78477 0.0
O276 O 0.87945 0.52641 0.82168 0.0
O277 O 0.85157 0.50679 0.90546 0.0
O278 O 0.93327 0.37766 0.94359 0.0
O279 O 0.94248 1.01575 0.82983 0.0
O280 O 0.88286 0.18615 0.82015 0.0
C281 C 0.85479 0.44558 0.93461 0.0
O282 O 0.16641 0.37401 0.82297 0.0
O283 O 0.10584 0.54406 0.8322 0.0
O284 O 0.10878 0.17419 0.94366 0.0
O285 O 0.19298 0.04784 0.90518 0.0
C286 C 0.89488 0.08172 0.92505 0.0
C287 C 0.87669 0.0831 0.81451 0.0
C288 C 0.15743 0.08264 0.78988 0.0
O289 O 0.16945 0.0332 0.82125 0.0
O290 O 0.09963 0.17133 0.78466 0.0
C291 C 0.89245 0.47812 0.79013 0.0
O292 O 0.07599 0.53799 0.91623 0.0
O293 O 0.15954 0.3796 0.91256 0.0
C294 C 0.17227 0.47697 0.8172 0.0
C295 C 0.14922 0.47274 0.92809 0.0
loop_
_geom_bond_atom_site_label_1
_geom_bond_atom_site_label_2
_geom_bond_distance
_geom_bond_site_symmetry_2
_ccdc_geom_bond_type
H0 C8 0.930 . S
H1 C11 0.930 . S
H2 C13 0.930 1_565 S
H3 C14 0.970 . S
H4 C14 0.970 . S
H5 C16 0.930 . S
H6 C18 0.930 1_565 S
H7 C20 0.930 . S
C8 H0 0.930 . S
C8 C9 1.382 1_545 S
C8 C10 1.426 . S
C9 C8 1.382 1_565 S
C9 C13 1.389 1_565 S
C10 C8 1.426 . S
C10 C11 1.375 . S
C10 C14 1.532 1_655 S
C11 H1 0.930 . S
C11 C10 1.375 . S
C11 C12 1.416 . S
C12 C11 1.416 . S
C12 C13 1.371 . S
C13 H2 0.930 1_545 S
C13 C9 1.389 1_545 S
C13 C12 1.371 . S
C14 H3 0.970 . S
C14 H4 0.970 . S
C14 C10 1.532 1_455 S
C14 C15 1.499 . S
C15 C14 1.499 . S
C15 C16 1.370 . S
C15 C20 1.415 . S
C16 H5 0.930 . S
C16 C15 1.370 . S
C16 C17 1.407 1_545 S
C17 C16 1.407 1_565 S
C17 C18 1.365 1_565 S
C18 H6 0.930 1_545 S
C18 C17 1.365 1_545 S
C18 C19 1.393 . S
C19 C18 1.393 . S
C19 C20 1.387 . S
C20 H7 0.930 . S
C20 C15 1.415 . S
C20 C19 1.387 . S
H21 C29 0.930 . S
H22 C32 0.930 . S
H23 C34 0.930 . S
H24 C35 0.970 . S
H25 C35 0.970 . S
H26 C37 0.930 . S
H27 C39 0.930 . S
H28 C41 0.930 . S
C29 H21 0.930 . S
C29 C30 1.382 1_565 S
C29 C31 1.426 . S
C30 C29 1.382 1_545 S
C30 C34 1.389 . S
C31 C29 1.426 . S
C31 C32 1.375 . S
C31 C35 1.532 . S
C32 H22 0.930 . S
C32 C31 1.375 . S
C32 C33 1.416 . S
C33 C32 1.416 . S
C33 C34 1.371 1_565 S
C34 H23 0.930 . S
C34 C30 1.389 . S
C34 C33 1.371 1_545 S
C35 H24 0.970 . S
C35 H25 0.970 . S
C35 C31 1.532 . S
C35 C36 1.499 . S
C36 C35 1.499 . S
C36 C37 1.370 . S
C36 C41 1.415 . S
C37 H26 0.930 . S
C37 C36 1.370 . S
C37 C38 1.407 . S
C38 C37 1.407 . S
C38 C39 1.365 . S
C39 H27 0.930 . S
C39 C38 1.365 . S
C39 C40 1.393 . S
C40 C39 1.393 . S
C40 C41 1.387 . S
C41 H28 0.930 . S
C41 C36 1.415 . S
C41 C40 1.387 . S
H42 C50 0.930 1_565 S
H43 C53 0.930 1_556 S
H44 C55 0.930 . S
H45 C56 0.970 . S
H46 C56 0.970 . S
H47 C58 0.930 1_565 S
H48 C60 0.930 . S
H49 C62 0.930 1_556 S
C50 H42 0.930 1_545 S
C50 C51 1.382 1_545 S
C50 C52 1.426 . S
C51 C50 1.382 1_565 S
C51 C55 1.389 . S
C52 C50 1.426 . S
C52 C53 1.375 . S
C52 C56 1.532 . S
C53 H43 0.930 1_554 S
C53 C52 1.375 . S
C53 C54 1.416 1_554 S
C54 C53 1.416 1_556 S
C54 C55 1.371 1_546 S
C55 H44 0.930 . S
C55 C51 1.389 . S
C55 C54 1.371 1_564 S
C56 H45 0.970 . S
C56 H46 0.970 . S
C56 C52 1.532 . S
C56 C57 1.499 . S
C57 C56 1.499 . S
C57 C58 1.370 . S
C57 C62 1.415 . S
C58 H47 0.930 1_545 S
C58 C57 1.370 . S
C58 C59 1.407 1_545 S
C59 C58 1.407 1_565 S
C59 C60 1.365 . S
C60 H48 0.930 . S
C60 C59 1.365 . S
C60 C61 1.393 1_564 S
C61 C60 1.393 1_546 S
C61 C62 1.387 1_556 S
C62 H49 0.930 1_554 S
C62 C57 1.415 . S
C62 C61 1.387 1_554 S
H63 C71 0.930 . S
H64 C74 0.930 . S
H65 C76 0.930 . S
H66 C77 0.970 . S
H67 C77 0.970 . S
H68 C79 0.930 . S
H69 C81 0.930 . S
H70 C83 0.930 . S
C71 H63 0.930 . S
C71 C72 1.382 . S
C71 C73 1.426 . S
C72 C71 1.382 . S
C72 C76 1.389 1_545 S
C73 C71 1.426 . S
C73 C74 1.375 . S
C73 C77 1.532 . S
C74 H64 0.930 . S
C74 C73 1.375 . S
C74 C75 1.416 . S
C75 C74 1.416 . S
C75 C76 1.371 1_545 S
C76 H65 0.930 . S
C76 C72 1.389 1_565 S
C76 C75 1.371 1_565 S
C77 H66 0.970 . S
C77 H67 0.970 . S
C77 C73 1.532 . S
C77 C78 1.499 . S
C78 C77 1.499 . S
C78 C79 1.370 . S
C78 C83 1.415 . S
C79 H68 0.930 . S
C79 C78 1.370 . S
C79 C80 1.407 . S
C80 C79 1.407 . S
C80 C81 1.365 . S
C81 H69 0.930 . S
C81 C80 1.365 . S
C81 C82 1.393 . S
C82 C81 1.393 . S
C82 C83 1.387 . S
C83 H70 0.930 . S
C83 C78 1.415 . S
C83 C82 1.387 . S
H84 C92 0.930 . S
H85 C95 0.930 . S
H86 C97 0.930 . S
H87 C98 0.970 . S
H88 C98 0.970 . S
H89 C100 0.930 . S
H90 C102 0.930 . S
H91 C104 0.930 . S
C92 H84 0.930 . S
C92 C93 1.382 . S
C92 C94 1.426 . S
C93 C92 1.382 . S
C93 C97 1.389 . S
C94 C92 1.426 . S
C94 C95 1.375 . S
C94 C98 1.532 . S
C95 H85 0.930 . S
C95 C94 1.375 . S
C95 C96 1.416 . S
C96 C95 1.416 . S
C96 C97 1.371 . S
C97 H86 0.930 . S
C97 C93 1.389 . S
C97 C96 1.371 . S
C98 H87 0.970 . S
C98 H88 0.970 . S
C98 C94 1.532 . S
C98 C99 1.499 . S
C99 C98 1.499 . S
C99 C100 1.370 . S
C99 C104 1.415 . S
C100 H89 0.930 . S
C100 C99 1.370 . S
C100 C101 1.407 . S
C101 C100 1.407 . S
C101 C102 1.365 1_545 S
C102 H90 0.930 . S
C102 C101 1.365 1_565 S
C102 C103 1.393 1_565 S
C103 C102 1.393 1_545 S
C103 C104 1.387 . S
C104 H91 0.930 . S
C104 C99 1.415 . S
C104 C103 1.387 . S
H105 C113 0.930 . S
H106 C116 0.930 . S
H107 C118 0.930 . S
H108 C119 0.970 . S
H109 C119 0.970 . S
H110 C121 0.930 . S
H111 C123 0.930 . S
H112 C125 0.930 . S
C113 H105 0.930 . S
C113 C114 1.382 . S
C113 C115 1.426 . S
C114 C113 1.382 . S
C114 C118 1.389 . S
C115 C113 1.426 . S
C115 C116 1.375 . S
C115 C119 1.532 . S
C116 H106 0.930 . S
C116 C115 1.375 . S
C116 C117 1.416 . S
C117 C116 1.416 . S
C117 C118 1.371 . S
C118 H107 0.930 . S
C118 C114 1.389 . S
C118 C117 1.371 . S
C119 H108 0.970 . S
C119 H109 0.970 . S
C119 C115 1.532 . S
C119 C120 1.499 . S
C120 C119 1.499 . S
C120 C121 1.370 . S
C120 C125 1.415 . S
C121 H110 0.930 . S
C121 C120 1.370 . S
C121 C122 1.407 . S
C122 C121 1.407 . S
C122 C123 1.365 1_565 S
C123 H111 0.930 . S
C123 C122 1.365 1_545 S
C123 C124 1.393 . S
C124 C123 1.393 . S
C124 C125 1.387 1_545 S
C125 H112 0.930 . S
C125 C120 1.415 . S
C125 C124 1.387 1_565 S
H126 C134 0.930 . S
H127 C137 0.930 1_556 S
H128 C139 0.930 . S
H129 C140 0.970 . S
H130 C140 0.970 . S
H131 C142 0.930 . S
H132 C144 0.930 . S
H133 C146 0.930 1_556 S
C134 H126 0.930 . S
C134 C135 1.382 . S
C134 C136 1.426 . S
C135 C134 1.382 . S
C135 C139 1.389 . S
C136 C134 1.426 . S
C136 C137 1.375 . S
C136 C140 1.532 . S
C137 H127 0.930 1_554 S
C137 C136 1.375 . S
C137 C138 1.416 1_554 S
C138 C137 1.416 1_556 S
C138 C139 1.371 1_556 S
C139 H128 0.930 . S
C139 C135 1.389 . S
C139 C138 1.371 1_554 S
C140 H129 0.970 . S
C140 H130 0.970 . S
C140 C136 1.532 . S
C140 C141 1.499 . S
C141 C140 1.499 . S
C141 C142 1.370 . S
C141 C146 1.415 . S
C142 H131 0.930 . S
C142 C141 1.370 . S
C142 C143 1.407 . S
C143 C142 1.407 . S
C143 C144 1.365 . S
C144 H132 0.930 . S
C144 C143 1.365 . S
C144 C145 1.393 1_554 S
C145 C144 1.393 1_556 S
C145 C146 1.387 1_556 S
C146 H133 0.930 1_554 S
C146 C141 1.415 . S
C146 C145 1.387 1_554 S
H147 C155 0.930 . S
H148 C158 0.930 . S
H149 C160 0.930 . S
H150 C161 0.970 . S
H151 C161 0.970 . S
H152 C163 0.930 . S
H153 C165 0.930 . S
H154 C167 0.930 . S
C155 H147 0.930 . S
C155 C156 1.382 . S
C155 C157 1.426 . S
C156 C155 1.382 . S
C156 C160 1.389 . S
C157 C155 1.426 . S
C157 C158 1.375 . S
C157 C161 1.532 . S
C158 H148 0.930 . S
C158 C157 1.375 . S
C158 C159 1.416 . S
C159 C158 1.416 . S
C159 C160 1.371 . S
C160 H149 0.930 . S
C160 C156 1.389 . S
C160 C159 1.371 . S
C161 H150 0.970 . S
C161 H151 0.970 . S
C161 C157 1.532 . S
C161 C162 1.499 1_455 S
C162 C161 1.499 1_655 S
C162 C163 1.370 . S
C162 C167 1.415 . S
C163 H152 0.930 . S
C163 C162 1.370 . S
C163 C164 1.407 . S
C164 C163 1.407 . S
C164 C165 1.365 . S
C165 H153 0.930 . S
C165 C164 1.365 . S
C165 C166 1.393 . S
C166 C165 1.393 . S
C166 C167 1.387 . S
C167 H154 0.930 . S
C167 C162 1.415 . S
C167 C166 1.387 . S
Fe168 O169 1.886 . S
Fe168 O172 1.715 1_455 S
Fe168 O177 2.077 . S
Fe168 O182 1.935 1_455 S
Fe168 O188 2.077 . S
Fe168 O197 1.935 1_455 S
O169 Fe168 1.886 . S
O169 Fe171 1.715 . S
Fe170 O172 1.886 . S
Fe170 O173 1.715 . S
Fe170 O180 1.935 . S
Fe170 O181 2.077 . S
Fe170 O187 1.935 . S
Fe170 O196 2.077 . S
Fe171 O169 1.715 . S
Fe171 O174 1.886 . S
Fe171 O178 1.935 . S
Fe171 O183 2.077 . S
Fe171 O189 1.935 . S
Fe171 O193 2.077 . S
O172 Fe168 1.715 1_655 S
O172 Fe170 1.886 . S
O173 Fe170 1.715 . S
O173 Fe175 1.886 1_655 S
O174 Fe171 1.886 . S
O174 Fe175 1.715 . S
Fe175 O173 1.886 1_455 S
Fe175 O174 1.715 . S
Fe175 O179 2.077 1_455 S
Fe175 O184 1.935 . S
Fe175 O186 2.077 1_455 S
Fe175 O194 1.935 . S
C176 O188 1.381 . S
C176 O189 1.421 . S
O177 Fe168 2.077 . S
O177 C190 1.381 . S
O178 Fe171 1.935 . S
O178 C190 1.421 . S
O179 Fe175 2.077 1_655 S
O179 C195 1.381 . S
O180 Fe170 1.935 . S
O180 C195 1.421 . S
O181 Fe170 2.077 . S
O181 C185 1.381 . S
O182 Fe168 1.935 1_655 S
O182 C185 1.421 . S
O183 Fe171 2.077 . S
O183 C191 1.381 . S
O184 Fe175 1.935 . S
O184 C191 1.421 . S
C185 O181 1.381 . S
C185 O182 1.421 . S
O186 Fe175 2.077 1_655 S
O186 C198 1.381 . S
O187 Fe170 1.935 . S
O187 C198 1.421 . S
O188 Fe168 2.077 . S
O188 C176 1.381 . S
O189 Fe171 1.935 . S
O189 C176 1.421 . S
C190 O177 1.381 . S
C190 O178 1.421 . S
C191 O183 1.381 . S
C191 O184 1.421 . S
C192 O193 1.381 . S
C192 O194 1.421 . S
O193 Fe171 2.077 . S
O193 C192 1.381 . S
O194 Fe175 1.935 . S
O194 C192 1.421 . S
C195 O179 1.381 . S
C195 O180 1.421 . S
O196 Fe170 2.077 . S
O196 C199 1.381 . S
O197 Fe168 1.935 1_655 S
O197 C199 1.421 . S
C198 O186 1.381 . S
C198 O187 1.421 . S
C199 O196 1.381 . S
C199 O197 1.421 . S
Fe200 O201 1.886 . S
Fe200 O204 1.715 . S
Fe200 O209 2.077 . S
Fe200 O214 1.935 . S
Fe200 O220 2.077 . S
Fe200 O229 1.935 . S
O201 Fe200 1.886 . S
O201 Fe203 1.715 . S
Fe202 O204 1.886 . S
Fe202 O205 1.715 . S
Fe202 O212 1.935 . S
Fe202 O213 2.077 1_565 S
Fe202 O219 1.935 . S
Fe202 O228 2.077 1_565 S
Fe203 O201 1.715 . S
Fe203 O206 1.886 . S
Fe203 O210 1.935 . S
Fe203 O215 2.077 . S
Fe203 O221 1.935 . S
Fe203 O225 2.077 . S
O204 Fe200 1.715 . S
O204 Fe202 1.886 . S
O205 Fe202 1.715 . S
O205 Fe207 1.886 . S
O206 Fe203 1.886 . S
O206 Fe207 1.715 . S
Fe207 O205 1.886 . S
Fe207 O206 1.715 . S
Fe207 O211 2.077 . S
Fe207 O216 1.935 . S
Fe207 O218 2.077 . S
Fe207 O226 1.935 . S
C208 O220 1.381 . S
C208 O221 1.421 . S
O209 Fe200 2.077 . S
O209 C222 1.381 . S
O210 Fe203 1.935 . S
O210 C222 1.421 . S
O211 Fe207 2.077 . S
O211 C227 1.381 . S
O212 Fe202 1.935 . S
O212 C227 1.421 . S
O213 Fe202 2.077 1_545 S
O213 C217 1.381 1_545 S
O214 Fe200 1.935 . S
O214 C217 1.421 . S
O215 Fe203 2.077 . S
O215 C223 1.381 . S
O216 Fe207 1.935 . S
O216 C223 1.421 . S
C217 O213 1.381 1_565 S
C217 O214 1.421 . S
O218 Fe207 2.077 . S
O218 C230 1.381 . S
O219 Fe202 1.935 . S
O219 C230 1.421 . S
O220 Fe200 2.077 . S
O220 C208 1.381 . S
O221 Fe203 1.935 . S
O221 C208 1.421 . S
C222 O209 1.381 . S
C222 O210 1.421 . S
C223 O215 1.381 . S
C223 O216 1.421 . S
C224 O225 1.381 . S
C224 O226 1.421 . S
O225 Fe203 2.077 . S
O225 C224 1.381 . S
O226 Fe207 1.935 . S
O226 C224 1.421 . S
C227 O211 1.381 . S
C227 O212 1.421 . S
O228 Fe202 2.077 1_545 S
O228 C231 1.381 1_545 S
O229 Fe200 1.935 . S
O229 C231 1.421 . S
C230 O218 1.381 . S
C230 O219 1.421 . S
C231 O228 1.381 1_565 S
C231 O229 1.421 . S
Fe232 O233 1.886 . S
Fe232 O236 1.715 . S
Fe232 O241 2.077 . S
Fe232 O246 1.935 . S
Fe232 O252 2.077 . S
Fe232 O261 1.935 . S
O233 Fe232 1.886 . S
O233 Fe235 1.715 . S
Fe234 O236 1.886 . S
Fe234 O237 1.715 . S
Fe234 O244 1.935 . S
Fe234 O245 2.077 . S
Fe234 O251 1.935 . S
Fe234 O260 2.077 . S
Fe235 O233 1.715 . S
Fe235 O238 1.886 . S
Fe235 O242 1.935 . S
Fe235 O247 2.077 . S
Fe235 O253 1.935 . S
Fe235 O257 2.077 . S
O236 Fe232 1.715 . S
O236 Fe234 1.886 . S
O237 Fe234 1.715 . S
O237 Fe239 1.886 . S
O238 Fe235 1.886 . S
O238 Fe239 1.715 . S
Fe239 O237 1.886 . S
Fe239 O238 1.715 . S
Fe239 O243 2.077 . S
Fe239 O248 1.935 . S
Fe239 O250 2.077 . S
Fe239 O258 1.935 . S
C240 O252 1.381 . S
C240 O253 1.421 . S
O241 Fe232 2.077 . S
O241 C254 1.381 . S
O242 Fe235 1.935 . S
O242 C254 1.421 . S
O243 Fe239 2.077 . S
O243 C259 1.381 . S
O244 Fe234 1.935 . S
O244 C259 1.421 . S
O245 Fe234 2.077 . S
O245 C249 1.381 . S
O246 Fe232 1.935 . S
O246 C249 1.421 . S
O247 Fe235 2.077 . S
O247 C255 1.381 . S
O248 Fe239 1.935 . S
O248 C255 1.421 . S
C249 O245 1.381 . S
C249 O246 1.421 . S
O250 Fe239 2.077 . S
O250 C262 1.381 . S
O251 Fe234 1.935 . S
O251 C262 1.421 . S
O252 Fe232 2.077 . S
O252 C240 1.381 . S
O253 Fe235 1.935 . S
O253 C240 1.421 . S
C254 O241 1.381 . S
C254 O242 1.421 . S
C255 O247 1.381 . S
C255 O248 1.421 . S
C256 O257 1.381 . S
C256 O258 1.421 . S
O257 Fe235 2.077 . S
O257 C256 1.381 . S
O258 Fe239 1.935 . S
O258 C256 1.421 . S
C259 O243 1.381 . S
C259 O244 1.421 . S
O260 Fe234 2.077 . S
O260 C263 1.381 . S
O261 Fe232 1.935 . S
O261 C263 1.421 . S
C262 O250 1.381 . S
C262 O251 1.421 . S
C263 O260 1.381 . S
C263 O261 1.421 . S
Fe264 O265 1.886 . S
Fe264 O268 1.715 . S
Fe264 O273 2.077 1_455 S
Fe264 O278 1.935 1_455 S
Fe264 O284 2.077 . S
Fe264 O293 1.935 . S
O265 Fe264 1.886 . S
O265 Fe267 1.715 . S
Fe266 O268 1.886 . S
Fe266 O269 1.715 . S
Fe266 O276 1.935 1_455 S
Fe266 O277 2.077 1_455 S
Fe266 O283 1.935 . S
Fe266 O292 2.077 . S
Fe267 O265 1.715 . S
Fe267 O270 1.886 . S
Fe267 O274 1.935 1_455 S
Fe267 O279 2.077 1_455 S
Fe267 O285 1.935 . S
Fe267 O289 2.077 . S
O268 Fe264 1.715 . S
O268 Fe266 1.886 . S
O269 Fe266 1.715 . S
O269 Fe271 1.886 . S
O270 Fe267 1.886 . S
O270 Fe271 1.715 . S
Fe271 O269 1.886 . S
Fe271 O270 1.715 . S
Fe271 O275 2.077 1_455 S
Fe271 O280 1.935 1_455 S
Fe271 O282 2.077 . S
Fe271 O290 1.935 . S
C272 O284 1.381 . S
C272 O285 1.421 . S
O273 Fe264 2.077 1_655 S
O273 C286 1.381 . S
O274 Fe267 1.935 1_655 S
O274 C286 1.421 . S
O275 Fe271 2.077 1_655 S
O275 C291 1.381 . S
O276 Fe266 1.935 1_655 S
O276 C291 1.421 . S
O277 Fe266 2.077 1_655 S
O277 C281 1.381 . S
O278 Fe264 1.935 1_655 S
O278 C281 1.421 . S
O279 Fe267 2.077 1_655 S
O279 C287 1.381 . S
O280 Fe271 1.935 1_655 S
O280 C287 1.421 . S
C281 O277 1.381 . S
C281 O278 1.421 . S
O282 Fe271 2.077 . S
O282 C294 1.381 . S
O283 Fe266 1.935 . S
O283 C294 1.421 . S
O284 Fe264 2.077 . S
O284 C272 1.381 . S
O285 Fe267 1.935 . S
O285 C272 1.421 . S
C286 O273 1.381 . S
C286 O274 1.421 . S
C287 O279 1.381 . S
C287 O280 1.421 . S
C288 O289 1.381 . S
C288 O290 1.421 . S
O289 Fe267 2.077 . S
O289 C288 1.381 . S
O290 Fe271 1.935 . S
O290 C288 1.421 . S
C291 O275 1.381 . S
C291 O276 1.421 . S
O292 Fe266 2.077 . S
O292 C295 1.381 . S
O293 Fe264 1.935 . S
O293 C295 1.421 . S
C294 O282 1.381 . S
C294 O283 1.421 . S
C295 O292 1.381 . S
C295 O293 1.421 . S
C217 C17 1.596 . S
C30 C249 1.677 . S
C61 C272 1.713 . S
C176 C72 1.806 1_565 S
C259 C19 1.465 . S
C288 C33 1.385 1_545 S
C192 C59 1.403 . S
C227 C75 1.325 1_565 S
C12 C255 1.375 . S
C101 C230 1.379 1_545 S
C51 C198 1.287 . S
C287 C124 1.312 . S
C231 C9 1.595 . S
C103 C199 1.598 1_545 S
C54 C286 1.747 . S
C254 C122 1.760 1_545 S
C145 C281 1.669 . S
C96 C185 1.555 . S
C166 C208 1.792 . S
C114 C240 1.739 . S
C195 C143 1.398 . S
C93 C224 1.442 . S
C164 C256 1.342 . S
C291 C117 1.390 . S
C135 C191 1.316 . S
C40 C294 1.297 . S
C156 C262 1.346 . S
C223 C82 1.378 . S
C295 C138 1.708 . S
C263 C38 1.709 . S
C222 C159 1.696 . S
C190 C80 1.712 . S
