# Generated by pormake.
# Topology ssb, (4,4)-cn, num edge types: 1
# Building blocks:
#     Node 0, Type 0, BuildingBlock: MIFKUJ_clean_linker_1, # of connection points: 4
#     Node 1, Type 0, BuildingBlock: MIFKUJ_clean_linker_1, # of connection points: 4
#     Node 2, Type 0, BuildingBlock: MIFKUJ_clean_linker_1, # of connection points: 4
#     Node 3, Type 0, BuildingBlock: MIFKUJ_clean_linker_1, # of connection points: 4
#     Node 4, Type 0, BuildingBlock: MIFKUJ_clean_linker_1, # of connection points: 4
#     Node 5, Type 0, BuildingBlock: MIFKUJ_clean_linker_1, # of connection points: 4
#     Node 6, Type 0, BuildingBlock: MIFKUJ_clean_linker_1, # of connection points: 4
#     Node 7, Type 0, BuildingBlock: MIFKUJ_clean_linker_1, # of connection points: 4
#     Node 8, Type 1, BuildingBlock: KOZSID_clean_sbu_0, # of connection points: 4
#     Node 9, Type 1, BuildingBlock: KOZSID_clean_sbu_0, # of connection points: 4
#     Node 10, Type 1, BuildingBlock: KOZSID_clean_sbu_0, # of connection points: 4
#     Node 11, Type 1, BuildingBlock: KOZSID_clean_sbu_0, # of connection points: 4
#     Node 12, Type 1, BuildingBlock: KOZSID_clean_sbu_0, # of connection points: 4
#     Node 13, Type 1, BuildingBlock: KOZSID_clean_sbu_0, # of connection points: 4
#     Node 14, Type 1, BuildingBlock: KOZSID_clean_sbu_0, # of connection points: 4
#     Node 15, Type 1, BuildingBlock: KOZSID_clean_sbu_0, # of connection points: 4
#     Edge 16, Type (0, 1), BuildingBlock: XUDNAN_clean_linker_2, # of connection points: 2
#     Edge 17, Type (0, 1), BuildingBlock: XUDNAN_clean_linker_2, # of connection points: 2
#     Edge 18, Type (0, 1), BuildingBlock: XUDNAN_clean_linker_2, # of connection points: 2
#     Edge 19, Type (0, 1), BuildingBlock: XUDNAN_clean_linker_2, # of connection points: 2
#     Edge 20, Type (0, 1), BuildingBlock: XUDNAN_clean_linker_2, # of connection points: 2
#     Edge 21, Type (0, 1), BuildingBlock: XUDNAN_clean_linker_2, # of connection points: 2
#     Edge 22, Type (0, 1), BuildingBlock: XUDNAN_clean_linker_2, # of connection points: 2
#     Edge 23, Type (0, 1), BuildingBlock: XUDNAN_clean_linker_2, # of connection points: 2
#     Edge 24, Type (0, 1), BuildingBlock: XUDNAN_clean_linker_2, # of connection points: 2
#     Edge 25, Type (0, 1), BuildingBlock: XUDNAN_clean_linker_2, # of connection points: 2
#     Edge 26, Type (0, 1), BuildingBlock: XUDNAN_clean_linker_2, # of connection points: 2
#     Edge 27, Type (0, 1), BuildingBlock: XUDNAN_clean_linker_2, # of connection points: 2
#     Edge 28, Type (0, 1), BuildingBlock: XUDNAN_clean_linker_2, # of connection points: 2
#     Edge 29, Type (0, 1), BuildingBlock: XUDNAN_clean_linker_2, # of connection points: 2
#     Edge 30, Type (0, 1), BuildingBlock: XUDNAN_clean_linker_2, # of connection points: 2
#     Edge 31, Type (0, 1), BuildingBlock: XUDNAN_clean_linker_2, # of connection points: 2
#     Edge 32, Type (0, 1), BuildingBlock: XUDNAN_clean_linker_2, # of connection points: 2
#     Edge 33, Type (0, 1), BuildingBlock: XUDNAN_clean_linker_2, # of connection points: 2
#     Edge 34, Type (0, 1), BuildingBlock: XUDNAN_clean_linker_2, # of connection points: 2
#     Edge 35, Type (0, 1), BuildingBlock: XUDNAN_clean_linker_2, # of connection points: 2
#     Edge 36, Type (0, 1), BuildingBlock: XUDNAN_clean_linker_2, # of connection points: 2
#     Edge 37, Type (0, 1), BuildingBlock: XUDNAN_clean_linker_2, # of connection points: 2
#     Edge 38, Type (0, 1), BuildingBlock: XUDNAN_clean_linker_2, # of connection points: 2
#     Edge 39, Type (0, 1), BuildingBlock: XUDNAN_clean_linker_2, # of connection points: 2
#     Edge 40, Type (0, 1), BuildingBlock: XUDNAN_clean_linker_2, # of connection points: 2
#     Edge 41, Type (0, 1), BuildingBlock: XUDNAN_clean_linker_2, # of connection points: 2
#     Edge 42, Type (0, 1), BuildingBlock: XUDNAN_clean_linker_2, # of connection points: 2
#     Edge 43, Type (0, 1), BuildingBlock: XUDNAN_clean_linker_2, # of connection points: 2
#     Edge 44, Type (0, 1), BuildingBlock: XUDNAN_clean_linker_2, # of connection points: 2
#     Edge 45, Type (0, 1), BuildingBlock: XUDNAN_clean_linker_2, # of connection points: 2
#     Edge 46, Type (0, 1), BuildingBlock: XUDNAN_clean_linker_2, # of connection points: 2
#     Edge 47, Type (0, 1), BuildingBlock: XUDNAN_clean_linker_2, # of connection points: 2
# Relax obj value: 0.002
# Max RMSD: 0.021
# Mean RMSD: 0.013
data_MOF--net-ssb--node1-KOZSID_clean_sbu_0--node2-MIFKUJ_clean_linker_1--edge1-XUDNAN_clean_linker_2
_symmetry_space_group_name_H-M    P1
_symmetry_Int_Tables_number       1
_symmetry_cell_setting            triclinic
loop_
_symmetry_equiv_pos_as_xyz
'x, y, z'
_cell_length_a     63.305321
_cell_length_b     63.200872
_cell_length_c     46.65767
_cell_angle_alpha  92.145814
_cell_angle_beta   94.300859
_cell_angle_gamma 89.993237
loop_
_atom_site_label
_atom_site_type_symbol
_atom_site_fract_x
_atom_site_fract_y
_atom_site_fract_z
_atom_type_partial_charge
H0 H 0.29132 0.22174 0.22205 0.0
H1 H 0.32032 0.2259 0.19045 0.0
H2 H 0.33237 0.28882 0.22699 0.0
H3 H 0.30417 0.28437 0.2593 0.0
H4 H 0.28689 0.22162 0.27797 0.0
H5 H 0.26437 0.2696 0.20143 0.0
H6 H 0.2625 0.30114 0.17202 0.0
H7 H 0.25483 0.34036 0.24816 0.0
H8 H 0.25717 0.30916 0.27741 0.0
H9 H 0.23931 0.27621 0.34277 0.0
H10 H 0.20985 0.27978 0.37321 0.0
H11 H 0.17808 0.22718 0.3261 0.0
H12 H 0.20854 0.22296 0.29682 0.0
H13 H 0.2326 0.27805 0.27969 0.0
H14 H 0.25708 0.23465 0.35619 0.0
H15 H 0.25642 0.20623 0.38948 0.0
H16 H 0.26289 0.1604 0.31963 0.0
H17 H 0.26177 0.18922 0.28576 0.0
C18 C 0.2951 0.25295 0.24259 0.0
C19 C 0.30043 0.2363 0.22362 0.0
C20 C 0.31699 0.23866 0.20558 0.0
C21 C 0.32838 0.25778 0.20605 0.0
C22 C 0.32364 0.27403 0.2259 0.0
C23 C 0.30743 0.27153 0.24425 0.0
C24 C 0.27638 0.25129 0.26007 0.0
C25 C 0.27478 0.23375 0.27799 0.0
C26 C 0.26081 0.26755 0.26041 0.0
C27 C 0.26089 0.28672 0.24193 0.0
C28 C 0.26265 0.28501 0.21194 0.0
C29 C 0.26159 0.30311 0.19504 0.0
C30 C 0.25833 0.32339 0.20758 0.0
C31 C 0.25703 0.32505 0.23759 0.0
C32 C 0.25833 0.30709 0.25443 0.0
C33 C 0.22611 0.24934 0.31756 0.0
C34 C 0.22611 0.26527 0.33927 0.0
C35 C 0.20906 0.26742 0.35647 0.0
C36 C 0.19119 0.25408 0.35186 0.0
C37 C 0.19153 0.23768 0.33052 0.0
C38 C 0.20889 0.23528 0.31363 0.0
C39 C 0.24343 0.2488 0.29776 0.0
C40 C 0.24462 0.26583 0.27929 0.0
C41 C 0.25867 0.23232 0.29733 0.0
C42 C 0.25889 0.21439 0.31798 0.0
C43 C 0.25776 0.21853 0.34767 0.0
C44 C 0.25788 0.20203 0.36702 0.0
C45 C 0.2598 0.18064 0.3577 0.0
C46 C 0.26112 0.17647 0.32792 0.0
C47 C 0.2607 0.19308 0.30842 0.0
H48 H 0.70414 0.2936 0.2658 0.0
H49 H 0.66879 0.29635 0.24114 0.0
H50 H 0.67858 0.23706 0.19496 0.0
H51 H 0.71408 0.23461 0.21931 0.0
H52 H 0.72634 0.23158 0.27502 0.0
H53 H 0.74973 0.32018 0.27492 0.0
H54 H 0.74125 0.35011 0.24409 0.0
H55 H 0.73193 0.30671 0.17041 0.0
H56 H 0.74031 0.27704 0.20121 0.0
H57 H 0.81202 0.26534 0.27164 0.0
H58 H 0.8467 0.26249 0.29736 0.0
H59 H 0.81704 0.2436 0.37296 0.0
H60 H 0.78227 0.2481 0.34768 0.0
H61 H 0.78005 0.28869 0.27481 0.0
H62 H 0.79074 0.2141 0.28472 0.0
H63 H 0.7958 0.17974 0.30654 0.0
H64 H 0.73745 0.18862 0.34818 0.0
H65 H 0.73343 0.22342 0.32811 0.0
C66 C 0.71185 0.26395 0.24433 0.0
C67 C 0.69875 0.28127 0.2502 0.0
C68 C 0.67846 0.28274 0.23625 0.0
C69 C 0.67082 0.26691 0.21609 0.0
C70 C 0.68404 0.24964 0.21013 0.0
C71 C 0.70428 0.24812 0.22421 0.0
C72 C 0.7333 0.26215 0.25957 0.0
C73 C 0.7381 0.24408 0.27517 0.0
C74 C 0.74882 0.27818 0.25905 0.0
C75 C 0.74533 0.29643 0.24037 0.0
C76 C 0.74604 0.31721 0.25208 0.0
C77 C 0.7412 0.33425 0.23448 0.0
C78 C 0.73564 0.3307 0.20493 0.0
C79 C 0.73567 0.3099 0.1932 0.0
C80 C 0.74054 0.29295 0.21073 0.0
C81 C 0.79436 0.25665 0.30744 0.0
C82 C 0.81291 0.26084 0.29388 0.0
C83 C 0.83286 0.25889 0.30859 0.0
C84 C 0.83491 0.25246 0.33727 0.0
C85 C 0.81626 0.2487 0.35102 0.0
C86 C 0.79627 0.25099 0.33639 0.0
C87 C 0.77319 0.25809 0.29109 0.0
C88 C 0.76837 0.27617 0.27513 0.0
C89 C 0.75783 0.24169 0.29064 0.0
C90 C 0.76184 0.22144 0.30508 0.0
C91 C 0.77935 0.20882 0.29914 0.0
C92 C 0.78204 0.18903 0.31129 0.0
C93 C 0.76703 0.18133 0.32912 0.0
C94 C 0.74958 0.19413 0.33507 0.0
C95 C 0.74712 0.21399 0.32334 0.0
H96 H 0.72548 0.78527 0.20247 0.0
H97 H 0.69629 0.78525 0.16512 0.0
H98 H 0.67422 0.72556 0.19405 0.0
H99 H 0.70307 0.72604 0.23201 0.0
H100 H 0.72634 0.78703 0.25889 0.0
H101 H 0.75371 0.73888 0.1885 0.0
H102 H 0.75237 0.70938 0.15337 0.0
H103 H 0.73973 0.66648 0.22011 0.0
H104 H 0.74221 0.69623 0.25548 0.0
H105 H 0.76839 0.74837 0.34412 0.0
H106 H 0.79892 0.74929 0.3791 0.0
H107 H 0.83905 0.76525 0.31177 0.0
H108 H 0.80787 0.7665 0.27792 0.0
H109 H 0.77556 0.72642 0.27098 0.0
H110 H 0.75173 0.78169 0.34279 0.0
H111 H 0.75729 0.81464 0.37129 0.0
H112 H 0.76327 0.84807 0.29311 0.0
H113 H 0.75972 0.81476 0.26532 0.0
C114 C 0.71663 0.75557 0.21995 0.0
C115 C 0.71431 0.77221 0.20086 0.0
C116 C 0.6977 0.77208 0.17933 0.0
C117 C 0.68294 0.75533 0.17643 0.0
C118 C 0.68518 0.73878 0.19577 0.0
C119 C 0.70182 0.73892 0.21731 0.0
C120 C 0.73439 0.7558 0.24277 0.0
C121 C 0.73711 0.77379 0.26161 0.0
C122 C 0.74849 0.73844 0.24601 0.0
C123 C 0.74784 0.71996 0.22472 0.0
C124 C 0.75066 0.72313 0.19562 0.0
C125 C 0.7497 0.70609 0.17539 0.0
C126 C 0.74556 0.68524 0.18343 0.0
C127 C 0.74312 0.68208 0.21282 0.0
C128 C 0.7444 0.69918 0.23318 0.0
C129 C 0.78577 0.75808 0.30872 0.0
C130 C 0.78371 0.75267 0.33721 0.0
C131 C 0.8014 0.75278 0.35708 0.0
C132 C 0.8218 0.75734 0.3486 0.0
C133 C 0.82374 0.76223 0.31965 0.0
C134 C 0.80591 0.76277 0.30004 0.0
C135 C 0.76721 0.75748 0.28742 0.0
C136 C 0.76451 0.73946 0.26863 0.0
C137 C 0.7534 0.77504 0.28392 0.0
C138 C 0.75623 0.79532 0.30182 0.0
C139 C 0.75506 0.79595 0.33186 0.0
C140 C 0.75772 0.8151 0.34819 0.0
C141 C 0.7611 0.8344 0.33491 0.0
C142 C 0.76146 0.83372 0.30463 0.0
C143 C 0.75918 0.81455 0.28846 0.0
H144 H 0.22664 0.75282 0.30624 0.0
H145 H 0.19601 0.75915 0.33432 0.0
H146 H 0.16379 0.78921 0.26157 0.0
H147 H 0.19507 0.78391 0.23458 0.0
H148 H 0.22056 0.73431 0.23479 0.0
H149 H 0.2491 0.78812 0.30859 0.0
H150 H 0.24961 0.8228 0.33365 0.0
H151 H 0.24582 0.85311 0.2519 0.0
H152 H 0.24523 0.81831 0.22698 0.0
H153 H 0.28699 0.78341 0.18388 0.0
H154 H 0.32015 0.778 0.16123 0.0
H155 H 0.3251 0.71539 0.1954 0.0
H156 H 0.29281 0.72154 0.21965 0.0
H157 H 0.2781 0.78755 0.2351 0.0
H158 H 0.25682 0.73885 0.16084 0.0
H159 H 0.25611 0.70718 0.12963 0.0
H160 H 0.23912 0.66989 0.20044 0.0
H161 H 0.24202 0.70132 0.23217 0.0
C162 C 0.2132 0.76811 0.26847 0.0
C163 C 0.21297 0.7609 0.29652 0.0
C164 C 0.19529 0.76438 0.31245 0.0
C165 C 0.17718 0.77479 0.30047 0.0
C166 C 0.17746 0.78161 0.27201 0.0
C167 C 0.1953 0.77843 0.25632 0.0
C168 C 0.23201 0.76453 0.25166 0.0
C169 C 0.2334 0.7457 0.23514 0.0
C170 C 0.24802 0.77996 0.25076 0.0
C171 C 0.24682 0.80072 0.26599 0.0
C172 C 0.24788 0.80222 0.2961 0.0
C173 C 0.24822 0.82203 0.31035 0.0
C174 C 0.24773 0.84063 0.29467 0.0
C175 C 0.24641 0.83904 0.26449 0.0
C176 C 0.24598 0.81922 0.25027 0.0
C177 C 0.28714 0.75288 0.20348 0.0
C178 C 0.29527 0.76855 0.18666 0.0
C179 C 0.3142 0.76531 0.17335 0.0
C180 C 0.32554 0.74623 0.17634 0.0
C181 C 0.31717 0.73045 0.19288 0.0
C182 C 0.29841 0.73382 0.2065 0.0
C183 C 0.26737 0.75677 0.21865 0.0
C184 C 0.26555 0.77584 0.23468 0.0
C185 C 0.25062 0.74175 0.21819 0.0
C186 C 0.24993 0.72245 0.19906 0.0
C187 C 0.25345 0.72377 0.16983 0.0
C188 C 0.25262 0.70563 0.15181 0.0
C189 C 0.24753 0.68585 0.16238 0.0
C190 C 0.24355 0.68469 0.19157 0.0
C191 C 0.24493 0.70275 0.20973 0.0
H192 H 0.19408 0.7651 0.76331 0.0
H193 H 0.15962 0.76603 0.73696 0.0
H194 H 0.18979 0.77698 0.65862 0.0
H195 H 0.22441 0.77406 0.68486 0.0
H196 H 0.22326 0.7385 0.76139 0.0
H197 H 0.2193 0.81305 0.74107 0.0
H198 H 0.21639 0.84503 0.71338 0.0
H199 H 0.27416 0.82861 0.67422 0.0
H200 H 0.27648 0.79607 0.70121 0.0
H201 H 0.31251 0.75503 0.76122 0.0
H202 H 0.34416 0.75013 0.79393 0.0
H203 H 0.3063 0.76021 0.86662 0.0
H204 H 0.27487 0.76425 0.83386 0.0
H205 H 0.28211 0.78975 0.7568 0.0
H206 H 0.28365 0.71445 0.7719 0.0
H207 H 0.28873 0.68322 0.80054 0.0
H208 H 0.23771 0.7035 0.85168 0.0
H209 H 0.23213 0.73437 0.82167 0.0
C210 C 0.21201 0.76968 0.72627 0.0
C211 C 0.19334 0.76759 0.74041 0.0
C212 C 0.1735 0.76843 0.72526 0.0
C213 C 0.17166 0.77178 0.69551 0.0
C214 C 0.19041 0.77411 0.68139 0.0
C215 C 0.21033 0.77281 0.69652 0.0
C216 C 0.23302 0.76748 0.74268 0.0
C217 C 0.23596 0.74994 0.7606 0.0
C218 C 0.25001 0.78208 0.74076 0.0
C219 C 0.24799 0.80172 0.72323 0.0
C220 C 0.23121 0.81606 0.72623 0.0
C221 C 0.22972 0.83464 0.7105 0.0
C222 C 0.24511 0.83976 0.69143 0.0
C223 C 0.26183 0.8253 0.68831 0.0
C224 C 0.26329 0.80666 0.70404 0.0
C225 C 0.29133 0.75979 0.79513 0.0
C226 C 0.31115 0.75627 0.78423 0.0
C227 C 0.32923 0.75354 0.803 0.0
C228 C 0.32784 0.75452 0.83304 0.0
C229 C 0.30799 0.75877 0.84371 0.0
C230 C 0.28997 0.76127 0.825 0.0
C231 C 0.27178 0.76125 0.77563 0.0
C232 C 0.26924 0.77847 0.75724 0.0
C233 C 0.25508 0.7465 0.77702 0.0
C234 C 0.25764 0.72704 0.79463 0.0
C235 C 0.27351 0.71221 0.78925 0.0
C236 C 0.2765 0.6943 0.806 0.0
C237 C 0.26393 0.69067 0.82915 0.0
C238 C 0.2477 0.7054 0.83411 0.0
C239 C 0.24452 0.72324 0.81698 0.0
H240 H 0.30527 0.24879 0.80166 0.0
H241 H 0.33705 0.24863 0.83484 0.0
H242 H 0.29865 0.26299 0.90586 0.0
H243 H 0.26697 0.26174 0.8729 0.0
H244 H 0.27138 0.22389 0.79723 0.0
H245 H 0.28105 0.30026 0.81216 0.0
H246 H 0.28812 0.33135 0.84454 0.0
H247 H 0.23225 0.31732 0.88819 0.0
H248 H 0.22519 0.28635 0.8557 0.0
H249 H 0.18791 0.24042 0.79454 0.0
H250 H 0.15406 0.23903 0.7656 0.0
H251 H 0.18562 0.25796 0.69157 0.0
H252 H 0.21951 0.25871 0.72068 0.0
H253 H 0.2189 0.28226 0.79517 0.0
H254 H 0.22803 0.19798 0.79808 0.0
H255 H 0.22654 0.16339 0.77251 0.0
H256 H 0.24617 0.19258 0.69644 0.0
H257 H 0.24731 0.22711 0.72212 0.0
C258 C 0.28366 0.25557 0.83461 0.0
C259 C 0.30371 0.25184 0.82441 0.0
C260 C 0.32194 0.25197 0.84343 0.0
C261 C 0.32056 0.25585 0.87317 0.0
C262 C 0.30043 0.25966 0.88324 0.0
C263 C 0.28223 0.25929 0.86428 0.0
C264 C 0.26421 0.25495 0.81441 0.0
C265 C 0.26015 0.23687 0.79654 0.0
C266 C 0.24916 0.27155 0.81365 0.0
C267 C 0.25264 0.29108 0.83168 0.0
C268 C 0.27027 0.30401 0.82859 0.0
C269 C 0.27428 0.3217 0.84701 0.0
C270 C 0.26081 0.32652 0.86891 0.0
C271 C 0.24299 0.31373 0.87166 0.0
C272 C 0.23884 0.29622 0.85301 0.0
C273 C 0.20617 0.24964 0.75973 0.0
C274 C 0.18751 0.24411 0.77202 0.0
C275 C 0.16814 0.24348 0.75543 0.0
C276 C 0.16696 0.24855 0.72619 0.0
C277 C 0.18586 0.25372 0.71386 0.0
C278 C 0.20526 0.25427 0.73049 0.0
C279 C 0.22642 0.25137 0.77783 0.0
C280 C 0.23042 0.26955 0.79554 0.0
C281 C 0.24144 0.23491 0.77849 0.0
C282 C 0.23766 0.21493 0.76181 0.0
C283 C 0.23159 0.19689 0.77571 0.0
C284 C 0.2309 0.17719 0.76118 0.0
C285 C 0.23639 0.17528 0.73257 0.0
C286 C 0.24163 0.1936 0.71837 0.0
C287 C 0.24232 0.21331 0.73295 0.0
H288 H 0.71664 0.23008 0.81593 0.0
H289 H 0.6866 0.23482 0.84585 0.0
H290 H 0.67657 0.29754 0.81394 0.0
H291 H 0.70615 0.29258 0.78362 0.0
H292 H 0.72258 0.22963 0.7601 0.0
H293 H 0.74769 0.27359 0.84281 0.0
H294 H 0.74512 0.30314 0.87746 0.0
H295 H 0.74776 0.34709 0.80905 0.0
H296 H 0.75097 0.31723 0.77455 0.0
H297 H 0.78179 0.27564 0.70309 0.0
H298 H 0.8133 0.26894 0.67689 0.0
H299 H 0.83297 0.22104 0.73726 0.0
H300 H 0.80063 0.22679 0.76154 0.0
H301 H 0.7798 0.28371 0.77001 0.0
H302 H 0.75761 0.23953 0.68785 0.0
H303 H 0.75899 0.21003 0.65311 0.0
H304 H 0.74873 0.1663 0.7197 0.0
H305 H 0.74854 0.19613 0.75495 0.0
C306 C 0.71401 0.26113 0.79792 0.0
C307 C 0.70778 0.24473 0.81505 0.0
C308 C 0.6906 0.24744 0.83212 0.0
C309 C 0.67938 0.26665 0.83251 0.0
C310 C 0.68512 0.2827 0.81449 0.0
C311 C 0.70209 0.27989 0.79719 0.0
C312 C 0.73335 0.25899 0.78162 0.0
C313 C 0.73522 0.24129 0.76251 0.0
C314 C 0.74964 0.27462 0.78443 0.0
C315 C 0.74926 0.29301 0.80584 0.0
C316 C 0.74776 0.28958 0.8352 0.0
C317 C 0.74614 0.30663 0.85507 0.0
C318 C 0.74585 0.32778 0.84628 0.0
C319 C 0.74804 0.33119 0.81691 0.0
C320 C 0.74981 0.31405 0.79703 0.0
C321 C 0.7888 0.25154 0.734 0.0
C322 C 0.79297 0.2637 0.71053 0.0
C323 C 0.81114 0.2599 0.6957 0.0
C324 C 0.82585 0.24423 0.70455 0.0
C325 C 0.82187 0.23274 0.72896 0.0
C326 C 0.80346 0.23617 0.74322 0.0
C327 C 0.76894 0.25438 0.74866 0.0
C328 C 0.76709 0.27212 0.76758 0.0
C329 C 0.75273 0.23877 0.74571 0.0
C330 C 0.75336 0.22029 0.7244 0.0
C331 C 0.75611 0.22362 0.69528 0.0
C332 C 0.75653 0.20658 0.67517 0.0
C333 C 0.75383 0.18552 0.68327 0.0
C334 C 0.75111 0.18215 0.7125 0.0
C335 C 0.75079 0.1993 0.73273 0.0
H336 H 0.7894 0.72443 0.69498 0.0
H337 H 0.82069 0.72285 0.66726 0.0
H338 H 0.84443 0.78043 0.71053 0.0
H339 H 0.81367 0.78147 0.73956 0.0
H340 H 0.78613 0.72013 0.74784 0.0
H341 H 0.76946 0.77959 0.6869 0.0
H342 H 0.77358 0.81436 0.66668 0.0
H343 H 0.77612 0.84334 0.75236 0.0
H344 H 0.77334 0.80857 0.77237 0.0
H345 H 0.74064 0.7793 0.81886 0.0
H346 H 0.71238 0.78062 0.85122 0.0
H347 H 0.68666 0.72212 0.81221 0.0
H348 H 0.71439 0.72169 0.77832 0.0
H349 H 0.7415 0.78284 0.76586 0.0
H350 H 0.76199 0.72692 0.82823 0.0
H351 H 0.76174 0.69345 0.85286 0.0
H352 H 0.75446 0.65929 0.77076 0.0
H353 H 0.75444 0.69282 0.74619 0.0
C354 C 0.79885 0.75317 0.71938 0.0
C355 C 0.80124 0.7368 0.69859 0.0
C356 C 0.8191 0.73593 0.68262 0.0
C357 C 0.83491 0.75158 0.68664 0.0
C358 C 0.83233 0.76833 0.70674 0.0
C359 C 0.81465 0.76895 0.72324 0.0
C360 C 0.78054 0.75275 0.73802 0.0
C361 C 0.77615 0.7338 0.7513 0.0
C362 C 0.7679 0.77071 0.74376 0.0
C363 C 0.77125 0.79148 0.73115 0.0
C364 C 0.77132 0.79342 0.7013 0.0
C365 C 0.77341 0.81334 0.68978 0.0
C366 C 0.77513 0.83168 0.7079 0.0
C367 C 0.7752 0.82958 0.73778 0.0
C368 C 0.77337 0.8097 0.74926 0.0
C369 C 0.72997 0.75029 0.79614 0.0
C370 C 0.72888 0.76678 0.81702 0.0
C371 C 0.71274 0.76736 0.8359 0.0
C372 C 0.69723 0.75131 0.83482 0.0
C373 C 0.69818 0.73484 0.81372 0.0
C374 C 0.71427 0.73441 0.79451 0.0
C375 C 0.74726 0.75032 0.77587 0.0
C376 C 0.7514 0.76913 0.7622 0.0
C377 C 0.75998 0.7324 0.77032 0.0
C378 C 0.75801 0.71237 0.78538 0.0
C379 C 0.75988 0.71226 0.81554 0.0
C380 C 0.75979 0.69314 0.82958 0.0
C381 C 0.75815 0.6738 0.81368 0.0
C382 C 0.75597 0.67397 0.78351 0.0
C383 C 0.75588 0.69308 0.76949 0.0
C384 C 0.03518 0.26694 0.57157 0.0
C385 C 0.04202 0.2868 0.58214 0.0
C386 C 0.03073 0.30129 0.5664 0.0
C387 C 0.01783 0.28952 0.54701 0.0
N388 N 0.02006 0.2684 0.54949 0.0
Co389 Co 0.00584 0.24587 0.52344 0.0
N390 N 0.98756 0.26713 0.5024 0.0
C391 C 0.98743 0.28828 0.50792 0.0
C392 C 0.97278 0.29889 0.49083 0.0
C393 C 0.96266 0.28356 0.47358 0.0
C394 C 0.97177 0.26437 0.48121 0.0
N395 N 0.99263 0.22351 0.49615 0.0
C396 C 0.97703 0.22485 0.47465 0.0
C397 C 0.9727 0.2052 0.46114 0.0
C398 C 0.98615 0.19108 0.47432 0.0
C399 C 0.99782 0.20277 0.49516 0.0
N400 N 0.02284 0.22445 0.546 0.0
C401 C 0.02221 0.20322 0.54132 0.0
C402 C 0.0348 0.19235 0.56088 0.0
C403 C 0.04402 0.20755 0.57926 0.0
C404 C 0.03666 0.22692 0.5696 0.0
N405 N 0.98296 0.24274 0.54987 0.0
C406 C 0.94987 0.23814 0.58681 0.0
C407 C 0.95679 0.22101 0.57003 0.0
C408 C 0.97333 0.22356 0.55225 0.0
C409 C 0.95991 0.25771 0.5845 0.0
C410 C 0.97614 0.25969 0.5659 0.0
N411 N 0.02895 0.24903 0.49687 0.0
C412 C 0.0613 0.23625 0.47734 0.0
C413 C 0.06357 0.25488 0.46259 0.0
C414 C 0.04762 0.27013 0.46446 0.0
C415 C 0.03079 0.26702 0.48164 0.0
C416 C 0.04397 0.23357 0.49384 0.0
H417 H 0.01961 0.27959 0.48227 0.0
H418 H 0.04335 0.21885 0.50417 0.0
H419 H 0.978 0.20974 0.5405 0.0
H420 H 0.98298 0.27508 0.5648 0.0
C421 C 1.00227 0.29777 0.52793 0.0
C422 C 0.04362 0.24721 0.58315 0.0
C423 C 0.96533 0.2441 0.46706 0.0
C424 C 0.01113 0.19424 0.51692 0.0
H425 H 0.05394 0.29049 0.59946 0.0
H426 H 0.0316 0.31836 0.56904 0.0
H427 H 0.96999 0.31578 0.49064 0.0
H428 H 0.95019 0.28631 0.457 0.0
H429 H 0.96066 0.20127 0.4441 0.0
H430 H 0.9866 0.17413 0.47015 0.0
H431 H 0.03732 0.17542 0.56137 0.0
H432 H 0.05513 0.20469 0.59746 0.0
H433 H 0.9494 0.20559 0.57021 0.0
H434 H 0.95552 0.27149 0.59717 0.0
H435 H 0.07309 0.22386 0.47686 0.0
H436 H 0.04803 0.28458 0.45279 0.0
C437 C 0.74104 0.04148 0.55107 0.0
C438 C 0.72106 0.04764 0.55853 0.0
C439 C 0.70696 0.03356 0.54497 0.0
C440 C 0.71905 0.01951 0.53027 0.0
N441 N 0.74005 0.0237 0.53361 0.0
Co442 Co 0.76308 0.00623 0.51712 0.0
N443 N 0.74217 0.98661 0.49502 0.0
C444 C 0.72085 0.9885 0.4937 0.0
C445 C 0.7104 0.97397 0.47528 0.0
C446 C 0.72595 0.96212 0.4639 0.0
C447 C 0.74514 0.96992 0.47638 0.0
N448 N 0.78612 0.98804 0.50197 0.0
C449 C 0.78509 0.9703 0.48441 0.0
C450 C 0.8051 0.96191 0.4813 0.0
C451 C 0.81923 0.97503 0.49671 0.0
C452 C 0.80715 0.99049 0.50871 0.0
N453 N 0.78397 0.0266 0.53786 0.0
C454 C 0.80527 0.02584 0.53715 0.0
C455 C 0.8156 0.04247 0.55179 0.0
C456 C 0.79998 0.05476 0.56226 0.0
C457 C 0.7809 0.04481 0.55361 0.0
N458 N 0.76354 0.98828 0.55111 0.0
C459 C 0.76548 0.96051 0.59699 0.0
C460 C 0.78321 0.97213 0.59087 0.0
C461 C 0.78187 0.98585 0.56819 0.0
C462 C 0.74651 0.96355 0.58034 0.0
C463 C 0.74588 0.97746 0.55771 0.0
N464 N 0.76279 0.02413 0.4832 0.0
C465 C 0.78163 0.04124 0.44731 0.0
C466 C 0.76334 0.05189 0.43776 0.0
C467 C 0.74457 0.04797 0.45053 0.0
C468 C 0.74457 0.03385 0.47283 0.0
C469 C 0.78105 0.02765 0.47005 0.0
H470 H 0.72974 0.03129 0.48161 0.0
H471 H 0.79572 0.02055 0.47693 0.0
H472 H 0.79607 0.99398 0.56468 0.0
H473 H 0.73102 0.97898 0.54569 0.0
C474 C 0.71111 1.00355 0.51095 0.0
C475 C 0.76031 0.05346 0.56054 0.0
C476 C 0.76573 0.96109 0.4696 0.0
C477 C 0.81509 0.00856 0.52409 0.0
H478 H 0.71706 0.06112 0.57204 0.0
H479 H 0.68988 0.03385 0.54521 0.0
H480 H 0.69347 0.97221 0.47064 0.0
H481 H 0.72333 0.94927 0.44809 0.0
H482 H 0.80914 0.9479 0.46883 0.0
H483 H 0.83633 0.97371 0.49842 0.0
H484 H 0.83251 0.04526 0.55467 0.0
H485 H 0.80239 0.06941 0.57484 0.0
H486 H 0.79836 0.97018 0.60289 0.0
H487 H 0.73224 0.95514 0.58458 0.0
H488 H 0.79653 0.04402 0.43805 0.0
H489 H 0.73002 0.05588 0.44346 0.0
C490 C 0.03749 0.78656 0.54833 0.0
C491 C 0.04567 0.80603 0.55868 0.0
C492 C 0.03719 0.82098 0.54069 0.0
C493 C 0.02442 0.8099 0.52034 0.0
N494 N 0.02418 0.78894 0.52457 0.0
Co495 Co 0.00906 0.76734 0.49886 0.0
N496 N 0.99022 0.78894 0.48075 0.0
C497 C 0.99367 0.80995 0.48162 0.0
C498 C 0.97705 0.82094 0.46877 0.0
C499 C 0.9623 0.80586 0.45919 0.0
C500 C 0.97091 0.78639 0.46644 0.0
N501 N 0.99418 0.74594 0.47271 0.0
C502 C 0.97496 0.74705 0.45817 0.0
C503 C 0.9705 0.72861 0.44176 0.0
C504 C 0.98758 0.71547 0.44659 0.0
C505 C 1.0015 0.72664 0.46547 0.0
N506 N 0.02772 0.74558 0.51699 0.0
C507 C 0.03097 0.72593 0.506 0.0
C508 C 0.04444 0.71424 0.52352 0.0
C509 C 0.05027 0.72745 0.54676 0.0
C510 C 0.04018 0.74666 0.54194 0.0
N511 N 0.9884 0.76315 0.52754 0.0
C512 C 0.95737 0.7568 0.56675 0.0
C513 C 0.96635 0.73968 0.55191 0.0
C514 C 0.98187 0.74316 0.53279 0.0
C515 C 0.96444 0.77725 0.56135 0.0
C516 C 0.97984 0.78007 0.54167 0.0
N517 N 0.02974 0.77144 0.47004 0.0
C518 C 0.06601 0.77363 0.45767 0.0
C519 C 0.05936 0.77638 0.42877 0.0
C520 C 0.03755 0.77666 0.42095 0.0
C521 C 0.02304 0.77395 0.44179 0.0
C522 C 0.05102 0.77146 0.47795 0.0
H523 H 0.00637 0.77381 0.43499 0.0
H524 H 0.05674 0.76978 0.50007 0.0
H525 H 0.9884 0.72959 0.52194 0.0
H526 H 0.98474 0.79598 0.53779 0.0
C527 C 0.01029 0.8188 0.49962 0.0
C528 C 0.04435 0.76612 0.55984 0.0
C529 C 0.96112 0.76565 0.45865 0.0
C530 C 0.01897 0.71821 0.48132 0.0
H531 H 0.05694 0.80913 0.57696 0.0
H532 H 0.03969 0.83793 0.54263 0.0
H533 H 0.97527 0.83795 0.46798 0.0
H534 H 0.94694 0.80906 0.44857 0.0
H535 H 0.95636 0.72499 0.42796 0.0
H536 H 0.98913 0.69932 0.43847 0.0
H537 H 0.04905 0.69789 0.52022 0.0
H538 H 0.06097 0.72344 0.5649 0.0
H539 H 0.96127 0.72357 0.55461 0.0
H540 H 0.95833 0.79104 0.5724 0.0
H541 H 0.08272 0.77358 0.46469 0.0
H542 H 0.03173 0.77868 0.39879 0.0
C543 C 0.2681 0.97021 0.55574 0.0
C544 C 0.28701 0.96144 0.56661 0.0
C545 C 0.30294 0.97287 0.55645 0.0
C546 C 0.29298 0.98798 0.54006 0.0
N547 N 0.2716 0.98694 0.53903 0.0
Co548 Co 0.25124 0.00628 0.51746 0.0
N549 N 0.27479 0.02411 0.5044 0.0
C550 C 0.29577 0.02121 0.51075 0.0
C551 C 0.30831 0.03567 0.49889 0.0
C552 C 0.29456 0.04878 0.48429 0.0
C553 C 0.27426 0.04166 0.48823 0.0
N554 N 0.2309 0.02525 0.4952 0.0
C555 C 0.23437 0.04264 0.47968 0.0
C556 C 0.21546 0.05101 0.46813 0.0
C557 C 0.19958 0.03848 0.4763 0.0
C558 C 0.20955 0.02324 0.49246 0.0
N559 N 0.22768 0.98884 0.53132 0.0
C560 C 0.20668 0.99186 0.52527 0.0
C561 C 0.19415 0.97787 0.53806 0.0
C562 C 0.20792 0.96524 0.55348 0.0
C563 C 0.22819 0.97229 0.54931 0.0
N564 N 0.25021 0.02516 0.55209 0.0
C565 C 0.2487 0.05283 0.60034 0.0
C566 C 0.23044 0.04812 0.5827 0.0
C567 C 0.23151 0.03423 0.55899 0.0
C568 C 0.26769 0.04326 0.59382 0.0
C569 C 0.26812 0.02965 0.56961 0.0
N570 N 0.25224 0.98737 0.48268 0.0
C571 C 0.23425 0.96644 0.44387 0.0
C572 C 0.25352 0.96067 0.43326 0.0
C573 C 0.27215 0.96854 0.44762 0.0
C574 C 0.27116 0.98169 0.47216 0.0
C575 C 0.23398 0.97972 0.46833 0.0
H576 H 0.28593 0.98691 0.48225 0.0
H577 H 0.21877 0.98352 0.47515 0.0
H578 H 0.21701 0.03116 0.54653 0.0
H579 H 0.28312 0.02312 0.56538 0.0
C580 C 0.30322 0.00424 0.527 0.0
C581 C 0.24731 0.96258 0.56288 0.0
C582 C 0.25511 0.05221 0.47605 0.0
C583 C 0.19927 0.00778 0.50705 0.0
H584 H 0.28912 0.94836 0.58084 0.0
H585 H 0.31981 0.97073 0.56104 0.0
H586 H 0.32544 0.03647 0.50045 0.0
H587 H 0.29902 0.06204 0.47202 0.0
H588 H 0.21324 0.06494 0.45548 0.0
H589 H 0.18272 0.04054 0.47159 0.0
H590 H 0.17703 0.97694 0.53634 0.0
H591 H 0.20354 0.95227 0.56634 0.0
H592 H 0.21534 0.05506 0.58725 0.0
H593 H 0.28225 0.04665 0.60691 0.0
H594 H 0.21939 0.96083 0.43323 0.0
H595 H 0.28748 0.96422 0.44035 0.0
C596 C 0.53798 0.76851 0.04659 0.0
C597 C 0.54315 0.78788 0.06025 0.0
C598 C 0.5301 0.80252 0.04739 0.0
C599 C 0.51772 0.79125 0.0268 0.0
N600 N 0.52182 0.77025 0.02608 0.0
Co601 Co 0.50794 0.74811 0.99908 0.0
N602 N 0.49127 0.76998 0.977 0.0
C603 C 0.49273 0.79124 0.98121 0.0
C604 C 0.47869 0.80219 0.96359 0.0
C605 C 0.46733 0.78704 0.94751 0.0
C606 C 0.47517 0.7676 0.95621 0.0
N607 N 0.49339 0.72591 0.97285 0.0
C608 C 0.47684 0.72771 0.9529 0.0
C609 C 0.47064 0.70817 0.94052 0.0
C610 C 0.4833 0.6934 0.95375 0.0
C611 C 0.49647 0.70474 0.97331 0.0
N612 N 0.52528 0.72632 0.02042 0.0
C613 C 0.52511 0.70516 0.01484 0.0
C614 C 0.53997 0.69442 0.03148 0.0
C615 C 0.55068 0.70967 0.04821 0.0
C616 C 0.54161 0.72889 0.04082 0.0
N617 N 0.48473 0.74556 0.02547 0.0
C618 C 0.45166 0.7418 0.06268 0.0
C619 C 0.46347 0.72418 0.05449 0.0
C620 C 0.47965 0.72636 0.03591 0.0
C621 C 0.45657 0.76131 0.05166 0.0
C622 C 0.4731 0.76285 0.03345 0.0
N623 N 0.53133 0.75064 0.97289 0.0
C624 C 0.55759 0.73417 0.94398 0.0
C625 C 0.56873 0.75321 0.9436 0.0
C626 C 0.56012 0.77119 0.95655 0.0
C627 C 0.5414 0.76964 0.97051 0.0
C628 C 0.53912 0.73321 0.95873 0.0
H629 H 0.53573 0.78397 0.97993 0.0
H630 H 0.53182 0.71805 0.9591 0.0
H631 H 0.48781 0.71224 0.03025 0.0
H632 H 0.47618 0.77825 0.02616 0.0
C633 C 0.50467 0.80018 0.00502 0.0
C634 C 0.54998 0.74925 0.0522 0.0
C635 C 0.46566 0.74732 0.94623 0.0
C636 C 0.51141 0.69601 0.99298 0.0
H637 H 0.55566 0.79118 0.07694 0.0
H638 H 0.53046 0.81949 0.05144 0.0
H639 H 0.47606 0.81912 0.96374 0.0
H640 H 0.45414 0.79009 0.93215 0.0
H641 H 0.45788 0.70492 0.92417 0.0
H642 H 0.48259 0.6764 0.9501 0.0
H643 H 0.54312 0.67758 0.03083 0.0
H644 H 0.56406 0.70702 0.06346 0.0
H645 H 0.46011 0.70866 0.06216 0.0
H646 H 0.44802 0.77547 0.05756 0.0
H647 H 0.56362 0.71983 0.9341 0.0
H648 H 0.568 0.78639 0.95629 0.0
C649 C 0.23522 0.53398 0.05219 0.0
C650 C 0.21438 0.53966 0.0557 0.0
C651 C 0.20212 0.52794 0.03566 0.0
C652 C 0.21617 0.51583 0.02125 0.0
N653 N 0.23659 0.51865 0.03142 0.0
Co654 Co 0.26232 0.50534 0.0161 0.0
N655 N 0.24465 0.48975 0.98474 0.0
C656 C 0.22337 0.49047 0.97945 0.0
C657 C 0.21577 0.47702 0.95732 0.0
C658 C 0.2332 0.4667 0.94842 0.0
C659 C 0.25042 0.47457 0.96571 0.0
N660 N 0.28809 0.49236 1.00039 0.0
C661 C 0.28951 0.47697 0.97971 0.0
C662 C 0.31035 0.47159 0.97583 0.0
C663 C 0.32261 0.48377 0.99534 0.0
C664 C 0.30854 0.49581 0.00986 0.0
N665 N 0.27995 0.52058 0.04788 0.0
C666 C 0.30114 0.51913 0.05372 0.0
C667 C 0.30884 0.53233 0.07602 0.0
C668 C 0.29162 0.54317 0.08456 0.0
C669 C 0.2743 0.53584 0.06695 0.0
N670 N 0.25976 0.48049 0.0414 0.0
C671 C 0.25576 0.44583 0.0782 0.0
C672 C 0.27561 0.45418 0.07336 0.0
C673 C 0.27724 0.47136 0.0552 0.0
C674 C 0.23805 0.45484 0.06348 0.0
C675 C 0.24037 0.47181 0.04535 0.0
N676 N 0.26489 0.53022 0.99084 0.0
C677 C 0.28568 0.55911 0.97439 0.0
C678 C 0.26892 0.56583 0.95544 0.0
C679 C 0.24988 0.55442 0.95522 0.0
C680 C 0.24819 0.537 0.97297 0.0
C681 C 0.28344 0.54147 0.99134 0.0
H682 H 0.23317 0.52923 0.9718 0.0
H683 H 0.29701 0.53729 0.00484 0.0
H684 H 0.29284 0.47708 0.05281 0.0
H685 H 0.22619 0.47769 0.03477 0.0
C686 C 0.21086 0.50273 0.99702 0.0
C687 C 0.25323 0.54516 0.06687 0.0
C688 C 0.27155 0.46565 0.96541 0.0
C689 C 0.31372 0.5079 0.03506 0.0
H690 H 0.20877 0.5517 0.07038 0.0
H691 H 0.18511 0.5288 0.03134 0.0
H692 H 0.19943 0.47437 0.94943 0.0
H693 H 0.23317 0.45422 0.93189 0.0
H694 H 0.31595 0.45943 0.9613 0.0
H695 H 0.33963 0.483 0.9996 0.0
H696 H 0.32521 0.53479 0.08391 0.0
H697 H 0.29212 0.5557 0.10099 0.0
H698 H 0.28987 0.44793 0.08419 0.0
H699 H 0.22229 0.4488 0.06586 0.0
H700 H 0.30066 0.56747 0.97649 0.0
H701 H 0.23632 0.5586 0.94107 0.0
C702 C 0.47295 0.28148 0.98371 0.0
C703 C 0.46681 0.30034 0.97129 0.0
C704 C 0.48225 0.31496 0.98002 0.0
C705 C 0.49682 0.30431 0.99737 0.0
N706 N 0.49147 0.28393 1.0 0.0
Co707 Co 0.50704 0.26313 0.02434 0.0
N708 N 0.52224 0.2859 0.04807 0.0
C709 C 0.52433 0.30611 0.04046 0.0
C710 C 0.53642 0.31819 0.06049 0.0
C711 C 0.54262 0.30467 0.0818 0.0
C712 C 0.5339 0.28499 0.07358 0.0
N713 N 0.52254 0.24212 0.04844 0.0
C714 C 0.53414 0.24483 0.07394 0.0
C715 C 0.54264 0.22571 0.08296 0.0
C716 C 0.5366 0.21071 0.06199 0.0
C717 C 0.52466 0.22138 0.04147 0.0
N718 N 0.49192 0.24058 1.00038 0.0
C719 C 0.49768 0.22017 0.99784 0.0
C720 C 0.48358 0.20834 0.98 0.0
C721 C 0.468 0.22224 0.97092 0.0
C722 C 0.47351 0.24176 0.98388 0.0
N723 N 0.53003 0.26258 0.99822 0.0
C724 C 0.56297 0.2659 0.96163 0.0
C725 C 0.56722 0.2659 0.99146 0.0
C726 C 0.55065 0.26397 0.00928 0.0
C727 C 0.54196 0.26333 0.95031 0.0
C728 C 0.52569 0.26185 0.96899 0.0
N729 N 0.48406 0.26385 0.05032 0.0
C730 C 0.45691 0.24609 0.07411 0.0
C731 C 0.44825 0.2656 0.08259 0.0
C732 C 0.45862 0.28412 0.07555 0.0
C733 C 0.47627 0.28291 0.05935 0.0
C734 C 0.47487 0.24557 0.05819 0.0
H735 H 0.48331 0.29751 0.05357 0.0
H736 H 0.48094 0.23037 0.05155 0.0
H737 H 0.5546 0.2642 0.0321 0.0
H738 H 0.50955 0.26066 0.95983 0.0
C739 C 0.51268 0.31368 0.01622 0.0
C740 C 0.46148 0.2613 0.97942 0.0
C741 C 0.53944 0.26542 0.08847 0.0
C742 C 0.51338 0.21213 0.01716 0.0
H743 H 0.4526 0.3034 0.95779 0.0
H744 H 0.48213 0.33167 0.97567 0.0
H745 H 0.54009 0.33489 0.05988 0.0
H746 H 0.5529 0.30871 0.10079 0.0
H747 H 0.55262 0.22298 0.10233 0.0
H748 H 0.54022 0.19397 0.06195 0.0
H749 H 0.48389 0.19143 0.97545 0.0
H750 H 0.4541 0.21846 0.95672 0.0
H751 H 0.58329 0.26769 1.001 0.0
H752 H 0.53807 0.26333 0.9273 0.0
H753 H 0.44954 0.23131 0.07889 0.0
H754 H 0.45306 0.29961 0.08223 0.0
C755 C 0.72055 0.54337 0.04771 0.0
C756 C 0.70101 0.55247 0.05196 0.0
C757 C 0.68626 0.54111 0.035 0.0
C758 C 0.6975 0.52562 0.02159 0.0
N759 N 0.71855 0.52619 0.02921 0.0
Co760 Co 0.74049 0.50614 0.01496 0.0
N761 N 0.71891 0.49018 0.98865 0.0
C762 C 0.69802 0.49467 0.98469 0.0
C763 C 0.68709 0.4812 0.96522 0.0
C764 C 0.70178 0.46708 0.95639 0.0
C765 C 0.72093 0.47263 0.97123 0.0
N766 N 0.76239 0.48591 1.00083 0.0
C767 C 0.76032 0.46845 0.98275 0.0
C768 C 0.77964 0.4584 0.98025 0.0
C769 C 0.79437 0.46981 0.99718 0.0
C770 C 0.78332 0.48607 0.00922 0.0
N771 N 0.76208 0.52228 0.04113 0.0
C772 C 0.78307 0.51814 0.04444 0.0
C773 C 0.79425 0.5324 0.06248 0.0
C774 C 0.77962 0.54669 0.07106 0.0
C775 C 0.76018 0.54025 0.05787 0.0
N776 N 0.73536 0.48668 0.04609 0.0
C777 C 0.72798 0.45456 0.08441 0.0
C778 C 0.74857 0.46126 0.08046 0.0
C779 C 0.75185 0.47738 0.0616 0.0
C780 C 0.71116 0.46522 0.07029 0.0
C781 C 0.71517 0.48102 0.05136 0.0
N782 N 0.74557 0.52549 0.98369 0.0
C783 C 0.76958 0.54373 0.95503 0.0
C784 C 0.75268 0.55389 0.94041 0.0
C785 C 0.73218 0.54943 0.94749 0.0
C786 C 0.72901 0.53522 0.96888 0.0
C787 C 0.76571 0.52977 0.97654 0.0
H788 H 0.71301 0.53246 0.97311 0.0
H789 H 0.77926 0.52281 0.98722 0.0
H790 H 0.76788 0.48161 0.05932 0.0
H791 H 0.70164 0.48802 0.04073 0.0
C792 C 0.68893 0.51097 1.00067 0.0
C793 C 0.74054 0.5522 0.06101 0.0
C794 C 0.74037 0.46029 0.96847 0.0
C795 C 0.79195 0.50128 0.02927 0.0
H796 H 0.69778 0.56616 0.06557 0.0
H797 H 0.66939 0.54404 0.03234 0.0
H798 H 0.67033 0.48138 0.95861 0.0
H799 H 0.69869 0.45397 0.94106 0.0
H800 H 0.78278 0.44406 0.96794 0.0
H801 H 0.8111 0.46639 1.00079 0.0
H802 H 0.81115 0.53269 0.06816 0.0
H803 H 0.78306 0.56052 0.08498 0.0
H804 H 0.76221 0.45359 0.09092 0.0
H805 H 0.69488 0.46113 0.07332 0.0
H806 H 0.78577 0.54688 0.95035 0.0
H807 H 0.71858 0.55677 0.93641 0.0
H808 H 0.16269 0.22497 0.37056 0.0
H809 H 0.17574 0.29249 0.37009 0.0
H810 H 0.14527 0.2996 0.3985 0.0
H811 H 0.10531 0.23057 0.36183 0.0
H812 H 0.10038 0.20894 0.38456 0.0
H813 H 0.12373 0.20885 0.36471 0.0
H814 H 0.1472 0.20472 0.41207 0.0
H815 H 0.12394 0.2049 0.43207 0.0
H816 H 0.14496 0.2237 0.4415 0.0
H817 H 0.11431 0.29967 0.42842 0.0
H818 H 0.08338 0.29287 0.45547 0.0
H819 H 0.08762 0.22568 0.43291 0.0
C820 C 0.15909 0.24127 0.37616 0.0
C821 C 0.1721 0.25809 0.36839 0.0
C822 C 0.16664 0.27918 0.37642 0.0
C823 C 0.14916 0.28345 0.3924 0.0
C824 C 0.13692 0.26656 0.39993 0.0
C825 C 0.14144 0.24591 0.39184 0.0
C826 C 0.12529 0.23077 0.40232 0.0
C827 C 0.11294 0.2191 0.37683 0.0
C828 C 0.13599 0.2151 0.42323 0.0
C829 C 0.11117 0.24618 0.41773 0.0
C830 C 0.11829 0.26671 0.41616 0.0
C831 C 0.10836 0.28368 0.42941 0.0
C832 C 0.09059 0.27963 0.44457 0.0
C833 C 0.08257 0.25875 0.44615 0.0
C834 C 0.09319 0.24184 0.43243 0.0
H835 H 0.75659 0.16878 0.38198 0.0
H836 H 0.78169 0.14505 0.30282 0.0
H837 H 0.78346 0.10914 0.32183 0.0
H838 H 0.78613 0.13542 0.43046 0.0
H839 H 0.7644 0.13174 0.45264 0.0
H840 H 0.76628 0.1557 0.43328 0.0
H841 H 0.7285 0.1491 0.40913 0.0
H842 H 0.72656 0.12504 0.42828 0.0
H843 H 0.7226 0.1244 0.38959 0.0
H844 H 0.78257 0.07574 0.34984 0.0
H845 H 0.77854 0.0475 0.38456 0.0
H846 H 0.7513 0.09296 0.44302 0.0
C847 C 0.76232 0.15607 0.36844 0.0
C848 C 0.76904 0.15984 0.34088 0.0
C849 C 0.77681 0.14271 0.32421 0.0
C850 C 0.77769 0.1222 0.33471 0.0
C851 C 0.77056 0.11905 0.36175 0.0
C852 C 0.76297 0.13552 0.37833 0.0
C853 C 0.75578 0.12795 0.40637 0.0
C854 C 0.76894 0.13832 0.43221 0.0
C855 C 0.73194 0.13185 0.40844 0.0
C856 C 0.76054 0.10461 0.40303 0.0
C857 C 0.7692 0.09977 0.37726 0.0
C858 C 0.77564 0.0793 0.36997 0.0
C859 C 0.77329 0.06342 0.3897 0.0
C860 C 0.76435 0.06814 0.41609 0.0
C861 C 0.75776 0.08893 0.42266 0.0
H862 H 0.85939 0.78012 0.34905 0.0
H863 H 0.82828 0.73227 0.39586 0.0
H864 H 0.85937 0.73124 0.43053 0.0
H865 H 0.91036 0.755 0.35548 0.0
H866 H 0.9248 0.77966 0.35832 0.0
H867 H 0.89926 0.7781 0.33858 0.0
H868 H 0.88604 0.80917 0.37032 0.0
H869 H 0.91148 0.81066 0.39039 0.0
H870 H 0.8878 0.80717 0.40887 0.0
H871 H 0.89414 0.73517 0.4604 0.0
H872 H 0.93102 0.74176 0.48048 0.0
H873 H 0.94093 0.78315 0.41071 0.0
C874 C 0.85899 0.76922 0.36633 0.0
C875 C 0.8409 0.75654 0.36962 0.0
C876 C 0.8414 0.74275 0.39304 0.0
C877 C 0.85916 0.74187 0.41285 0.0
C878 C 0.87658 0.75455 0.40884 0.0
C879 C 0.87677 0.76772 0.38591 0.0
C880 C 0.89803 0.7787 0.38542 0.0
C881 C 0.90874 0.77249 0.35781 0.0
C882 C 0.89568 0.80286 0.38897 0.0
C883 C 0.90974 0.76965 0.41168 0.0
C884 C 0.89698 0.756 0.42516 0.0
C885 C 0.90426 0.74585 0.45003 0.0
C886 C 0.92515 0.74968 0.46129 0.0
C887 C 0.93855 0.76338 0.44758 0.0
C888 C 0.93077 0.77325 0.42226 0.0
H889 H 0.22729 0.85425 0.34153 0.0
H890 H 0.27262 0.87399 0.28245 0.0
H891 H 0.2775 0.90806 0.30988 0.0
H892 H 0.20372 0.90637 0.35401 0.0
H893 H 0.20088 0.90196 0.39147 0.0
H894 H 0.19971 0.87991 0.36577 0.0
H895 H 0.22994 0.8614 0.39587 0.0
H896 H 0.23123 0.88337 0.4216 0.0
H897 H 0.25467 0.87517 0.40454 0.0
H898 H 0.27957 0.93861 0.34597 0.0
H899 H 0.27765 0.96406 0.3873 0.0
H900 H 0.23117 0.92398 0.4226 0.0
C901 C 0.23813 0.86581 0.33426 0.0
C902 C 0.24953 0.86156 0.30987 0.0
C903 C 0.2635 0.87709 0.30088 0.0
C904 C 0.26644 0.89642 0.31637 0.0
C905 C 0.25518 0.89997 0.3406 0.0
C906 C 0.24119 0.88516 0.34938 0.0
C907 C 0.23166 0.89248 0.37678 0.0
C908 C 0.20757 0.89535 0.37169 0.0
C909 C 0.23722 0.8772 0.40113 0.0
C910 C 0.24282 0.91352 0.38239 0.0
C911 C 0.25626 0.91762 0.36124 0.0
C912 C 0.26894 0.93569 0.36252 0.0
C913 C 0.26786 0.94995 0.3861 0.0
C914 C 0.25418 0.946 0.40796 0.0
C915 C 0.24146 0.9276 0.4059 0.0
H916 H 0.16025 0.75846 0.63914 0.0
H917 H 0.13427 0.78704 0.71505 0.0
H918 H 0.09878 0.78645 0.68969 0.0
H919 H 0.12822 0.7892 0.5886 0.0
H920 H 0.12547 0.76787 0.56183 0.0
H921 H 0.14871 0.76951 0.58656 0.0
H922 H 0.14156 0.73138 0.60214 0.0
H923 H 0.11812 0.72976 0.57774 0.0
H924 H 0.11634 0.72514 0.61537 0.0
H925 H 0.06571 0.78238 0.65619 0.0
H926 H 0.03841 0.77823 0.61533 0.0
H927 H 0.08643 0.75563 0.56031 0.0
C928 C 0.14725 0.76486 0.65047 0.0
C929 C 0.15028 0.77248 0.67945 0.0
C930 C 0.13251 0.78049 0.69324 0.0
C931 C 0.11221 0.78037 0.67892 0.0
C932 C 0.10982 0.77251 0.6506 0.0
C933 C 0.12691 0.76522 0.63636 0.0
C934 C 0.12021 0.75851 0.60548 0.0
C935 C 0.13131 0.77209 0.58438 0.0
C936 C 0.12431 0.73479 0.59987 0.0
C937 C 0.09669 0.76315 0.60462 0.0
C938 C 0.09095 0.77097 0.63097 0.0
C939 C 0.07003 0.77628 0.63546 0.0
C940 C 0.05464 0.77379 0.61227 0.0
C941 C 0.0603 0.76624 0.58499 0.0
C942 C 0.08161 0.76093 0.58118 0.0
H943 H 0.22305 0.16331 0.67707 0.0
H944 H 0.25424 0.13976 0.75555 0.0
H945 H 0.25959 0.1052 0.73079 0.0
H946 H 0.19659 0.11408 0.6523 0.0
H947 H 0.20058 0.11815 0.61506 0.0
H948 H 0.19804 0.14057 0.63953 0.0
H949 H 0.23408 0.15515 0.62587 0.0
H950 H 0.23677 0.13275 0.60145 0.0
H951 H 0.25729 0.13865 0.6295 0.0
H952 H 0.26393 0.07419 0.69657 0.0
H953 H 0.2651 0.04818 0.65566 0.0
H954 H 0.23094 0.09205 0.59996 0.0
C955 C 0.23088 0.15083 0.68908 0.0
C956 C 0.23813 0.15415 0.71824 0.0
C957 C 0.24824 0.13742 0.7333 0.0
C958 C 0.25147 0.1178 0.71939 0.0
C959 C 0.24441 0.11516 0.69051 0.0
C960 C 0.23418 0.13115 0.67558 0.0
C961 C 0.22866 0.12444 0.64448 0.0
C962 C 0.20453 0.1243 0.63744 0.0
C963 C 0.23987 0.13859 0.62414 0.0
C964 C 0.23757 0.10226 0.6442 0.0
C965 C 0.24665 0.0972 0.67092 0.0
C966 C 0.2567 0.07787 0.6756 0.0
C967 C 0.25739 0.06329 0.6523 0.0
C968 C 0.24796 0.06814 0.62488 0.0
C969 C 0.23793 0.08785 0.62087 0.0
H970 H 0.84914 0.27151 0.67336 0.0
H971 H 0.84595 0.20584 0.69762 0.0
H972 H 0.87784 0.19798 0.67245 0.0
H973 H 0.86408 0.25871 0.60127 0.0
H974 H 0.88101 0.28156 0.60027 0.0
H975 H 0.85854 0.28254 0.62179 0.0
H976 H 0.88326 0.29343 0.66669 0.0
H977 H 0.90583 0.29232 0.64535 0.0
H978 H 0.90556 0.27692 0.67706 0.0
H979 H 0.91077 0.19721 0.64602 0.0
H980 H 0.94039 0.20264 0.61603 0.0
H981 H 0.91982 0.2675 0.60319 0.0
C982 C 0.85491 0.25539 0.67327 0.0
C983 C 0.84498 0.23947 0.68828 0.0
C984 C 0.85344 0.21865 0.68741 0.0
C985 C 0.87154 0.2139 0.67285 0.0
C986 C 0.88093 0.22998 0.65864 0.0
C987 C 0.87274 0.25022 0.65828 0.0
C988 C 0.88537 0.26429 0.64011 0.0
C989 C 0.87142 0.27224 0.61433 0.0
C990 C 0.89561 0.28283 0.6584 0.0
C991 C 0.90197 0.24878 0.63047 0.0
C992 C 0.89922 0.22916 0.64172 0.0
C993 C 0.91286 0.21241 0.63664 0.0
C994 C 0.9296 0.21565 0.61925 0.0
C995 C 0.93246 0.2354 0.60648 0.0
C996 C 0.91839 0.2522 0.61253 0.0
H997 H 0.75381 0.8458 0.6588 0.0
H998 H 0.79875 0.86591 0.72953 0.0
H999 H 0.79894 0.90186 0.71078 0.0
H1000 H 0.77789 0.87496 0.60526 0.0
H1001 H 0.75299 0.88106 0.58607 0.0
H1002 H 0.75562 0.85726 0.60603 0.0
H1003 H 0.72362 0.86873 0.63451 0.0
H1004 H 0.72109 0.89272 0.61489 0.0
H1005 H 0.7242 0.89407 0.65363 0.0
H1006 H 0.79436 0.93549 0.68436 0.0
H1007 H 0.78776 0.96375 0.64975 0.0
H1008 H 0.74768 0.92089 0.59477 0.0
C1009 C 0.76389 0.85765 0.67024 0.0
C1010 C 0.77613 0.85302 0.69581 0.0
C1011 C 0.78889 0.86915 0.71023 0.0
C1012 C 0.78916 0.88961 0.69971 0.0
C1013 C 0.77672 0.89364 0.67465 0.0
C1014 C 0.76452 0.87807 0.65992 0.0
C1015 C 0.75331 0.8863 0.6328 0.0
C1016 C 0.76038 0.87418 0.60596 0.0
C1017 C 0.72912 0.8854 0.63405 0.0
C1018 C 0.76126 0.90891 0.6345 0.0
C1019 C 0.77455 0.91289 0.65897 0.0
C1020 C 0.78406 0.93256 0.66505 0.0
C1021 C 0.78028 0.94846 0.64521 0.0
C1022 C 0.7673 0.94451 0.61947 0.0
C1023 C 0.75742 0.92454 0.61441 0.0
H1024 H 0.85228 0.77973 0.65088 0.0
H1025 H 0.86198 0.71829 0.68795 0.0
H1026 H 0.89482 0.71368 0.6629 0.0
H1027 H 0.86965 0.76406 0.58129 0.0
H1028 H 0.8822 0.78902 0.57572 0.0
H1029 H 0.86006 0.78811 0.59776 0.0
H1030 H 0.88267 0.80672 0.63993 0.0
H1031 H 0.9049 0.80763 0.61802 0.0
H1032 H 0.90768 0.79538 0.65237 0.0
H1033 H 0.92675 0.71585 0.63464 0.0
H1034 H 0.95446 0.72323 0.60222 0.0
H1035 H 0.92302 0.78212 0.57965 0.0
C1036 C 0.86147 0.76541 0.65381 0.0
C1037 C 0.8547 0.74938 0.67147 0.0
C1038 C 0.8669 0.73071 0.6745 0.0
C1039 C 0.8856 0.728 0.66044 0.0
C1040 C 0.89182 0.744 0.64308 0.0
C1041 C 0.88005 0.76226 0.63943 0.0
C1042 C 0.88985 0.77647 0.61837 0.0
C1043 C 0.87453 0.77959 0.59171 0.0
C1044 C 0.89668 0.79782 0.63306 0.0
C1045 C 0.90895 0.76335 0.61087 0.0
C1046 C 0.90984 0.7448 0.62564 0.0
C1047 C 0.92608 0.73021 0.62269 0.0
C1048 C 0.9417 0.73451 0.6039 0.0
C1049 C 0.94097 0.75313 0.58773 0.0
C1050 C 0.92432 0.76779 0.59164 0.0
H1051 H 0.25633 0.8483 0.63599 0.0
H1052 H 0.23179 0.87864 0.71164 0.0
H1053 H 0.22944 0.91243 0.68707 0.0
H1054 H 0.28853 0.89284 0.61801 0.0
H1055 H 0.28326 0.8887 0.57971 0.0
H1056 H 0.28285 0.86659 0.60295 0.0
H1057 H 0.24476 0.85728 0.58228 0.0
H1058 H 0.24506 0.87937 0.559 0.0
H1059 H 0.22436 0.87715 0.58323 0.0
H1060 H 0.22972 0.94351 0.65441 0.0
H1061 H 0.23293 0.96919 0.61611 0.0
H1062 H 0.25766 0.91971 0.56135 0.0
C1063 C 0.25058 0.86204 0.64754 0.0
C1064 C 0.24403 0.86042 0.67593 0.0
C1065 C 0.23647 0.87901 0.68982 0.0
C1066 C 0.23522 0.89847 0.67606 0.0
C1067 C 0.24164 0.89943 0.64819 0.0
C1068 C 0.24921 0.88173 0.63404 0.0
C1069 C 0.25509 0.88722 0.60408 0.0
C1070 C 0.27885 0.88362 0.60101 0.0
C1071 C 0.24151 0.87449 0.58077 0.0
C1072 C 0.24966 0.91072 0.60364 0.0
C1073 C 0.24191 0.91741 0.62937 0.0
C1074 C 0.23578 0.9384 0.63421 0.0
C1075 C 0.23763 0.9529 0.61234 0.0
C1076 C 0.24555 0.94653 0.58579 0.0
C1077 C 0.25161 0.92507 0.58146 0.0
H1078 H 0.15744 0.2363 0.66899 0.0
H1079 H 0.12897 0.26264 0.74428 0.0
H1080 H 0.0944 0.26395 0.71643 0.0
H1081 H 0.12825 0.26831 0.61773 0.0
H1082 H 0.12557 0.24756 0.59011 0.0
H1083 H 0.14801 0.24783 0.61625 0.0
H1084 H 0.13875 0.20979 0.63005 0.0
H1085 H 0.11623 0.20943 0.60401 0.0
H1086 H 0.11268 0.20427 0.64108 0.0
H1087 H 0.06282 0.26296 0.68034 0.0
H1088 H 0.03677 0.26034 0.63794 0.0
H1089 H 0.08564 0.23593 0.58562 0.0
C1090 C 0.14398 0.24244 0.67964 0.0
C1091 C 0.14604 0.24917 0.70905 0.0
C1092 C 0.12786 0.25693 0.72204 0.0
C1093 C 0.10812 0.25789 0.70633 0.0
C1094 C 0.10668 0.2511 0.6775 0.0
C1095 C 0.12412 0.24358 0.66422 0.0
C1096 C 0.1183 0.23766 0.63278 0.0
C1097 C 0.13078 0.25115 0.61306 0.0
C1098 C 0.12169 0.21387 0.62663 0.0
C1099 C 0.09493 0.24319 0.63044 0.0
C1100 C 0.08852 0.25081 0.65655 0.0
C1101 C 0.06766 0.25701 0.6598 0.0
C1102 C 0.05299 0.25548 0.6357 0.0
C1103 C 0.05926 0.24793 0.60873 0.0
C1104 C 0.08049 0.24166 0.60612 0.0
H1105 H 0.76908 0.14409 0.68814 0.0
H1106 H 0.73638 0.18567 0.62752 0.0
H1107 H 0.73563 0.15716 0.59015 0.0
H1108 H 0.8011 0.11692 0.6374 0.0
H1109 H 0.79884 0.09135 0.65276 0.0
H1110 H 0.79727 0.11508 0.67513 0.0
H1111 H 0.76089 0.10304 0.69068 0.0
H1112 H 0.76241 0.07922 0.66848 0.0
H1113 H 0.73987 0.09649 0.66357 0.0
H1114 H 0.73823 0.12418 0.55869 0.0
H1115 H 0.74314 0.08859 0.53618 0.0
H1116 H 0.77313 0.06728 0.61648 0.0
C1117 C 0.76163 0.14721 0.66709 0.0
C1118 C 0.75306 0.16751 0.66098 0.0
C1119 C 0.74358 0.17066 0.63289 0.0
C1120 C 0.74291 0.15442 0.61141 0.0
C1121 C 0.75167 0.13482 0.61805 0.0
C1122 C 0.76077 0.13105 0.64523 0.0
C1123 C 0.7688 0.10834 0.64659 0.0
C1124 C 0.79294 0.1079 0.65338 0.0
C1125 C 0.7573 0.09605 0.66864 0.0
C1126 C 0.76276 0.09999 0.61601 0.0
C1127 C 0.75295 0.11562 0.59992 0.0
C1128 C 0.74588 0.11184 0.57112 0.0
C1129 C 0.74874 0.09159 0.55847 0.0
C1130 C 0.75855 0.07521 0.57448 0.0
C1131 C 0.76571 0.07955 0.60366 0.0
H1132 H 0.84765 0.25985 0.39507 0.0
H1133 H 0.87108 0.23768 0.31406 0.0
H1134 H 0.90664 0.23354 0.33822 0.0
H1135 H 0.89392 0.28844 0.42273 0.0
H1136 H 0.89226 0.28066 0.45927 0.0
H1137 H 0.86854 0.28239 0.43562 0.0
H1138 H 0.85927 0.24348 0.44521 0.0
H1139 H 0.88293 0.24167 0.46898 0.0
H1140 H 0.87836 0.22295 0.43905 0.0
H1141 H 0.94018 0.23288 0.37075 0.0
H1142 H 0.96866 0.23383 0.4102 0.0
H1143 H 0.92319 0.25348 0.47076 0.0
C1144 C 0.86013 0.25389 0.38236 0.0
C1145 C 0.85637 0.24939 0.35239 0.0
C1146 C 0.87344 0.24184 0.33679 0.0
C1147 C 0.89375 0.23923 0.35039 0.0
C1148 C 0.89687 0.24396 0.37979 0.0
C1149 C 0.8805 0.25093 0.39568 0.0
C1150 C 0.88807 0.25455 0.42713 0.0
C1151 C 0.88554 0.2779 0.43674 0.0
C1152 C 0.87647 0.23978 0.44622 0.0
C1153 C 0.91125 0.24861 0.42638 0.0
C1154 C 0.91602 0.24269 0.3988 0.0
C1155 C 0.93656 0.23724 0.39249 0.0
C1156 C 0.95261 0.23777 0.41497 0.0
C1157 C 0.948 0.2434 0.44346 0.0
C1158 C 0.92704 0.24889 0.44917 0.0
H1159 H 0.74509 0.84725 0.38733 0.0
H1160 H 0.78525 0.86888 0.32262 0.0
H1161 H 0.78981 0.90306 0.34908 0.0
H1162 H 0.71983 0.89679 0.40252 0.0
H1163 H 0.7202 0.89345 0.44075 0.0
H1164 H 0.71932 0.87058 0.41645 0.0
H1165 H 0.75308 0.85581 0.44338 0.0
H1166 H 0.75398 0.87857 0.46787 0.0
H1167 H 0.77663 0.87198 0.44811 0.0
H1168 H 0.78935 0.93581 0.38172 0.0
H1169 H 0.78582 0.96346 0.42004 0.0
H1170 H 0.74901 0.9202 0.46638 0.0
C1171 C 0.75505 0.85898 0.37871 0.0
C1172 C 0.76442 0.85506 0.3522 0.0
C1173 C 0.77719 0.87131 0.34212 0.0
C1174 C 0.78011 0.89088 0.35723 0.0
C1175 C 0.77048 0.89421 0.3829 0.0
C1176 C 0.75842 0.87863 0.39381 0.0
C1177 C 0.75032 0.88621 0.42238 0.0
C1178 C 0.72597 0.88679 0.42039 0.0
C1179 C 0.75902 0.87231 0.44689 0.0
C1180 C 0.75962 0.90847 0.42567 0.0
C1181 C 0.77104 0.9128 0.40248 0.0
C1182 C 0.7806 0.93249 0.40011 0.0
C1183 C 0.77854 0.94812 0.42199 0.0
C1184 C 0.76724 0.94405 0.44629 0.0
C1185 C 0.75772 0.92384 0.44807 0.0
H1186 H 0.16157 0.75004 0.34229 0.0
H1187 H 0.1496 0.80864 0.29797 0.0
H1188 H 0.11795 0.81465 0.32465 0.0
H1189 H 0.1076 0.73435 0.34645 0.0
H1190 H 0.11175 0.72451 0.38219 0.0
H1191 H 0.13316 0.72422 0.35884 0.0
H1192 H 0.15657 0.7458 0.39738 0.0
H1193 H 0.13527 0.74608 0.42091 0.0
H1194 H 0.14696 0.77064 0.41151 0.0
H1195 H 0.08681 0.81402 0.3554 0.0
H1196 H 0.06027 0.80805 0.39064 0.0
H1197 H 0.09393 0.75167 0.41797 0.0
C1198 C 0.15253 0.7643 0.3383 0.0
C1199 C 0.1582 0.77867 0.31747 0.0
C1200 C 0.1455 0.79697 0.31302 0.0
C1201 C 0.1275 0.80067 0.32832 0.0
C1202 C 0.12237 0.78613 0.34843 0.0
C1203 C 0.13465 0.76844 0.35371 0.0
C1204 C 0.12597 0.75561 0.37712 0.0
C1205 C 0.11922 0.73335 0.36544 0.0
C1206 C 0.14216 0.75448 0.40328 0.0
C1207 C 0.1069 0.76886 0.38414 0.0
C1208 C 0.10498 0.78628 0.36709 0.0
C1209 C 0.08825 0.80052 0.36899 0.0
C1210 C 0.07321 0.79696 0.38896 0.0
C1211 C 0.07509 0.77948 0.40709 0.0
C1212 C 0.09222 0.76529 0.40458 0.0
H1213 H 0.24575 0.13835 0.35106 0.0
H1214 H 0.27743 0.18264 0.41365 0.0
H1215 H 0.27841 0.15544 0.44985 0.0
H1216 H 0.21428 0.11161 0.39993 0.0
H1217 H 0.21754 0.0856 0.3837 0.0
H1218 H 0.21862 0.10864 0.36224 0.0
H1219 H 0.2556 0.09735 0.34708 0.0
H1220 H 0.25456 0.0742 0.36834 0.0
H1221 H 0.27651 0.09239 0.37438 0.0
H1222 H 0.27541 0.12374 0.48046 0.0
H1223 H 0.27076 0.08896 0.50183 0.0
H1224 H 0.24353 0.06358 0.41971 0.0
C1225 C 0.25306 0.14238 0.37226 0.0
C1226 C 0.26108 0.16317 0.37922 0.0
C1227 C 0.27045 0.16735 0.40754 0.0
C1228 C 0.27129 0.15184 0.42841 0.0
C1229 C 0.263 0.1318 0.42096 0.0
C1230 C 0.25427 0.12689 0.39349 0.0
C1231 C 0.24697 0.10382 0.39114 0.0
C1232 C 0.22292 0.10234 0.38381 0.0
C1233 C 0.25914 0.09119 0.36891 0.0
C1234 C 0.25291 0.09665 0.42155 0.0
C1235 C 0.262 0.11316 0.43841 0.0
C1236 C 0.26845 0.11068 0.46736 0.0
C1237 C 0.26575 0.09085 0.47936 0.0
C1238 C 0.25685 0.07348 0.46256 0.0
C1239 C 0.25033 0.07654 0.43318 0.0
H1240 H 0.65499 0.73864 0.8263 0.0
H1241 H 0.70117 0.76504 0.89157 0.0
H1242 H 0.67346 0.76844 0.92558 0.0
H1243 H 0.61103 0.77024 0.84452 0.0
H1244 H 0.59174 0.74924 0.83882 0.0
H1245 H 0.61516 0.74869 0.81914 0.0
H1246 H 0.62454 0.71154 0.83788 0.0
H1247 H 0.60107 0.71192 0.8575 0.0
H1248 H 0.62663 0.70761 0.87606 0.0
H1249 H 0.64061 0.7708 0.95209 0.0
H1250 H 0.60509 0.7693 0.97054 0.0
H1251 H 0.58017 0.73913 0.89003 0.0
C1252 C 0.6594 0.74487 0.84784 0.0
C1253 C 0.68039 0.7519 0.85586 0.0
C1254 C 0.68523 0.76009 0.88436 0.0
C1255 C 0.66958 0.76194 0.90404 0.0
C1256 C 0.64909 0.75525 0.89526 0.0
C1257 C 0.64397 0.74661 0.868 0.0
C1258 C 0.62067 0.74047 0.8643 0.0
C1259 C 0.60897 0.7529 0.84027 0.0
C1260 C 0.61808 0.71646 0.8586 0.0
C1261 C 0.61351 0.74722 0.89364 0.0
C1262 C 0.63018 0.75584 0.91106 0.0
C1263 C 0.62747 0.76393 0.93873 0.0
C1264 C 0.60722 0.76312 0.94898 0.0
C1265 C 0.5899 0.75411 0.93175 0.0
C1266 C 0.59317 0.74595 0.90374 0.0
H1267 H 0.23573 0.66676 0.85894 0.0
H1268 H 0.30244 0.67209 0.84385 0.0
H1269 H 0.31016 0.641 0.87268 0.0
H1270 H 0.2452 0.6518 0.9338 0.0
H1271 H 0.22302 0.63381 0.93222 0.0
H1272 H 0.22225 0.6563 0.90955 0.0
H1273 H 0.21481 0.63135 0.86468 0.0
H1274 H 0.21568 0.60877 0.8872 0.0
H1275 H 0.23276 0.60988 0.85808 0.0
H1276 H 0.31099 0.60843 0.90168 0.0
H1277 H 0.30539 0.57831 0.93181 0.0
H1278 H 0.23881 0.59494 0.93321 0.0
C1279 C 0.25202 0.66158 0.8618 0.0
C1280 C 0.26833 0.67199 0.84816 0.0
C1281 C 0.28937 0.6643 0.85284 0.0
C1282 C 0.29403 0.64663 0.86957 0.0
C1283 C 0.27763 0.63666 0.88217 0.0
C1284 C 0.25707 0.64396 0.87888 0.0
C1285 C 0.24259 0.63046 0.89557 0.0
C1286 C 0.23268 0.6439 0.91919 0.0
C1287 C 0.22544 0.61947 0.87516 0.0
C1288 C 0.25824 0.61441 0.90852 0.0
C1289 C 0.27832 0.61831 0.90027 0.0
C1290 C 0.29538 0.60547 0.90867 0.0
C1291 C 0.29201 0.58837 0.9262 0.0
C1292 C 0.27171 0.58411 0.93587 0.0
C1293 C 0.25457 0.59744 0.92649 0.0
H1294 H 0.36116 0.2697 0.86512 0.0
H1295 H 0.32402 0.24069 0.92782 0.0
H1296 H 0.35555 0.24027 0.96205 0.0
H1297 H 0.40834 0.23905 0.88101 0.0
H1298 H 0.42612 0.26058 0.87568 0.0
H1299 H 0.40038 0.25942 0.85643 0.0
H1300 H 0.39211 0.29704 0.87658 0.0
H1301 H 0.41778 0.29824 0.89607 0.0
H1302 H 0.3942 0.30232 0.91493 0.0
H1303 H 0.39126 0.24257 0.98959 0.0
H1304 H 0.42894 0.24664 0.00764 0.0
H1305 H 0.44332 0.27222 0.92645 0.0
C1306 C 0.35961 0.2631 0.88594 0.0
C1307 C 0.33987 0.25543 0.89371 0.0
C1308 C 0.33871 0.24715 0.92141 0.0
C1309 C 0.35662 0.24668 0.94102 0.0
C1310 C 0.37572 0.25443 0.93267 0.0
C1311 C 0.37739 0.26236 0.90574 0.0
C1312 C 0.39995 0.26923 0.90193 0.0
C1313 C 0.40924 0.25629 0.87731 0.0
C1314 C 0.40106 0.29313 0.89709 0.0
C1315 C 0.41069 0.26386 0.93089 0.0
C1316 C 0.39639 0.25545 0.94838 0.0
C1317 C 0.40257 0.24921 0.97612 0.0
C1318 C 0.42393 0.25158 0.9862 0.0
C1319 C 0.4388 0.26013 0.96864 0.0
C1320 C 0.4321 0.26618 0.94056 0.0
H1321 H 0.76258 0.36891 0.84842 0.0
H1322 H 0.72123 0.32829 0.89251 0.0
H1323 H 0.71626 0.35706 0.92828 0.0
H1324 H 0.78734 0.39609 0.91151 0.0
H1325 H 0.7879 0.42154 0.8954 0.0
H1326 H 0.78877 0.39765 0.8732 0.0
H1327 H 0.75592 0.40998 0.84182 0.0
H1328 H 0.75502 0.43395 0.86384 0.0
H1329 H 0.73206 0.41699 0.85868 0.0
H1330 H 0.71585 0.39016 0.96017 0.0
H1331 H 0.71906 0.42568 0.98436 0.0
H1332 H 0.75894 0.44609 0.91905 0.0
C1333 C 0.75235 0.36603 0.86544 0.0
C1334 C 0.74262 0.3459 0.86757 0.0
C1335 C 0.72944 0.34312 0.89051 0.0
C1336 C 0.72633 0.35952 0.91095 0.0
C1337 C 0.73629 0.37894 0.90836 0.0
C1338 C 0.74893 0.38237 0.88607 0.0
C1339 C 0.7575 0.40496 0.88813 0.0
C1340 C 0.78182 0.40506 0.89231 0.0
C1341 C 0.74965 0.41719 0.86154 0.0
C1342 C 0.74773 0.41363 0.91502 0.0
C1343 C 0.73564 0.39827 0.92639 0.0
C1344 C 0.72522 0.40231 0.95135 0.0
C1345 C 0.72712 0.42253 0.96497 0.0
C1346 C 0.73924 0.43865 0.95368 0.0
C1347 C 0.74965 0.43405 0.92828 0.0
H1348 H 0.65802 0.25823 0.15913 0.0
H1349 H 0.63425 0.27841 0.24058 0.0
H1350 H 0.59803 0.2802 0.21707 0.0
H1351 H 0.62384 0.29125 0.11472 0.0
H1352 H 0.62034 0.27174 0.08558 0.0
H1353 H 0.64437 0.27215 0.10885 0.0
H1354 H 0.63836 0.23287 0.12027 0.0
H1355 H 0.61429 0.23237 0.09707 0.0
H1356 H 0.61375 0.22515 0.13402 0.0
H1357 H 0.56406 0.2794 0.18447 0.0
H1358 H 0.53545 0.27665 0.14499 0.0
H1359 H 0.58147 0.25711 0.08524 0.0
C1360 C 0.64519 0.2629 0.17208 0.0
C1361 C 0.64902 0.26819 0.20175 0.0
C1362 C 0.63178 0.27453 0.21778 0.0
C1363 C 0.61111 0.27547 0.20464 0.0
C1364 C 0.60789 0.2701 0.17539 0.0
C1365 C 0.62448 0.26402 0.15928 0.0
C1366 C 0.61683 0.25926 0.12815 0.0
C1367 C 0.62695 0.27451 0.10815 0.0
C1368 C 0.62106 0.23603 0.11937 0.0
C1369 C 0.59335 0.26344 0.12929 0.0
C1370 C 0.58846 0.26969 0.15671 0.0
C1371 C 0.56771 0.27448 0.16294 0.0
C1372 C 0.55159 0.27285 0.14053 0.0
C1373 C 0.55635 0.26643 0.11241 0.0
C1374 C 0.57749 0.26179 0.10675 0.0
H1375 H 0.75553 0.64222 0.18891 0.0
H1376 H 0.72992 0.68684 0.12675 0.0
H1377 H 0.72733 0.65836 0.08943 0.0
H1378 H 0.7856 0.61053 0.14083 0.0
H1379 H 0.77931 0.58565 0.15587 0.0
H1380 H 0.77998 0.60963 0.17808 0.0
H1381 H 0.74156 0.6027 0.19091 0.0
H1382 H 0.74083 0.57863 0.1689 0.0
H1383 H 0.72094 0.59864 0.16243 0.0
H1384 H 0.72796 0.62519 0.05789 0.0
H1385 H 0.72952 0.58912 0.03563 0.0
H1386 H 0.75196 0.56479 0.118 0.0
C1387 C 0.74921 0.64608 0.16756 0.0
C1388 C 0.74337 0.66724 0.16106 0.0
C1389 C 0.73525 0.67119 0.13253 0.0
C1390 C 0.7335 0.65498 0.11103 0.0
C1391 C 0.73962 0.63454 0.1181 0.0
C1392 C 0.74709 0.62994 0.14574 0.0
C1393 C 0.75198 0.60639 0.14764 0.0
C1394 C 0.77562 0.60285 0.15611 0.0
C1395 C 0.73799 0.59598 0.16872 0.0
C1396 C 0.74614 0.59855 0.11678 0.0
C1397 C 0.73921 0.61515 0.10009 0.0
C1398 C 0.73325 0.61207 0.07083 0.0
C1399 C 0.7342 0.59153 0.05833 0.0
C1400 C 0.74087 0.57413 0.07497 0.0
C1401 C 0.74692 0.57778 0.10466 0.0
H1402 H 0.33786 0.7608 0.12459 0.0
H1403 H 0.36064 0.72468 0.19806 0.0
H1404 H 0.39457 0.71903 0.17649 0.0
H1405 H 0.36339 0.73033 0.07053 0.0
H1406 H 0.36999 0.75301 0.05063 0.0
H1407 H 0.34703 0.75367 0.07124 0.0
H1408 H 0.36133 0.78762 0.09893 0.0
H1409 H 0.38432 0.78708 0.07837 0.0
H1410 H 0.38749 0.78752 0.1171 0.0
H1411 H 0.42621 0.71706 0.14699 0.0
H1412 H 0.45372 0.72021 0.11253 0.0
H1413 H 0.41147 0.75911 0.05928 0.0
C1414 C 0.34998 0.75184 0.13635 0.0
C1415 C 0.34623 0.743 0.16305 0.0
C1416 C 0.36267 0.7312 0.17733 0.0
C1417 C 0.38216 0.72803 0.16534 0.0
C1418 C 0.38524 0.7369 0.13909 0.0
C1419 C 0.36967 0.74869 0.12483 0.0
C1420 C 0.37727 0.75687 0.09716 0.0
C1421 C 0.36361 0.74793 0.07083 0.0
C1422 C 0.37762 0.78122 0.09795 0.0
C1423 C 0.39954 0.74787 0.09814 0.0
C1424 C 0.40374 0.73627 0.12243 0.0
C1425 C 0.4231 0.72613 0.12792 0.0
C1426 C 0.4386 0.72792 0.10813 0.0
C1427 C 0.43481 0.73989 0.08318 0.0
C1428 C 0.41496 0.75001 0.07827 0.0
H1429 H 0.28088 0.33723 0.16228 0.0
H1430 H 0.22761 0.35331 0.21221 0.0
H1431 H 0.22145 0.38554 0.18473 0.0
H1432 H 0.29992 0.39095 0.15772 0.0
H1433 H 0.30752 0.38755 0.12137 0.0
H1434 H 0.30768 0.36521 0.14428 0.0
H1435 H 0.28275 0.34471 0.10646 0.0
H1436 H 0.28256 0.36698 0.0834 0.0
H1437 H 0.25796 0.35644 0.09391 0.0
H1438 H 0.22067 0.41613 0.15217 0.0
H1439 H 0.2258 0.4436 0.11728 0.0
H1440 H 0.27996 0.40926 0.08774 0.0
C1441 C 0.26784 0.34748 0.16726 0.0
C1442 C 0.2548 0.34263 0.1897 0.0
C1443 C 0.23803 0.35666 0.19555 0.0
C1444 C 0.23432 0.37503 0.1799 0.0
C1445 C 0.24752 0.37947 0.15829 0.0
C1446 C 0.264 0.36618 0.15192 0.0
C1447 C 0.27602 0.37514 0.12789 0.0
C1448 C 0.29916 0.38 0.13845 0.0
C1449 C 0.27474 0.35991 0.10134 0.0
C1450 C 0.2637 0.39546 0.12183 0.0
C1451 C 0.24725 0.39747 0.13959 0.0
C1452 C 0.23348 0.41467 0.13811 0.0
C1453 C 0.23646 0.4302 0.118 0.0
C1454 C 0.25319 0.42873 0.09941 0.0
C1455 C 0.26707 0.41104 0.10163 0.0
H1456 H 0.36341 0.23374 0.19431 0.0
H1457 H 0.32896 0.29039 0.16991 0.0
H1458 H 0.35504 0.29761 0.13467 0.0
H1459 H 0.41529 0.25618 0.19067 0.0
H1460 H 0.42688 0.23224 0.17671 0.0
H1461 H 0.40489 0.23075 0.19893 0.0
H1462 H 0.38385 0.20829 0.15887 0.0
H1463 H 0.40578 0.20975 0.13651 0.0
H1464 H 0.37984 0.21838 0.12324 0.0
H1465 H 0.38441 0.29869 0.10205 0.0
H1466 H 0.41657 0.29503 0.07592 0.0
H1467 H 0.43402 0.23894 0.1233 0.0
C1468 C 0.36134 0.24753 0.18132 0.0
C1469 C 0.34415 0.26151 0.18472 0.0
C1470 C 0.34206 0.27957 0.16769 0.0
C1471 C 0.35674 0.28374 0.14755 0.0
C1472 C 0.37358 0.26979 0.14482 0.0
C1473 C 0.3761 0.25214 0.16135 0.0
C1474 C 0.39624 0.24033 0.15495 0.0
C1475 C 0.41174 0.23986 0.18192 0.0
C1476 C 0.39112 0.21786 0.14266 0.0
C1477 C 0.4046 0.25414 0.13232 0.0
C1478 C 0.39112 0.27091 0.12667 0.0
C1479 C 0.39522 0.28575 0.10651 0.0
C1480 C 0.41372 0.28362 0.09194 0.0
C1481 C 0.42823 0.26691 0.09777 0.0
C1482 C 0.42335 0.25186 0.11813 0.0
H1483 H 0.75497 0.36954 0.2039 0.0
H1484 H 0.70274 0.33191 0.16367 0.0
H1485 H 0.69383 0.36054 0.13038 0.0
H1486 H 0.72828 0.42118 0.19814 0.0
H1487 H 0.75221 0.43472 0.1907 0.0
H1488 H 0.75363 0.41183 0.21268 0.0
H1489 H 0.77928 0.39385 0.17854 0.0
H1490 H 0.77787 0.41659 0.15641 0.0
H1491 H 0.77136 0.39071 0.14069 0.0
H1492 H 0.69222 0.39176 0.0994 0.0
H1493 H 0.69765 0.42392 0.07276 0.0
H1494 H 0.74991 0.44228 0.13441 0.0
C1495 C 0.74142 0.36751 0.18845 0.0
C1496 C 0.72959 0.34849 0.18627 0.0
C1497 C 0.71219 0.34625 0.16543 0.0
C1498 C 0.70691 0.36247 0.14659 0.0
C1499 C 0.71908 0.38087 0.14901 0.0
C1500 C 0.7359 0.38356 0.16948 0.0
C1501 C 0.74696 0.40454 0.16663 0.0
C1502 C 0.74515 0.41892 0.19364 0.0
C1503 C 0.77024 0.40121 0.16018 0.0
C1504 C 0.734 0.41299 0.14097 0.0
C1505 C 0.71793 0.39914 0.13129 0.0
C1506 C 0.7045 0.40294 0.10706 0.0
C1507 C 0.70765 0.42136 0.09218 0.0
C1508 C 0.72407 0.43584 0.10162 0.0
C1509 C 0.73726 0.43157 0.12654 0.0
H1510 H 0.64123 0.7437 0.17991 0.0
H1511 H 0.68481 0.76661 0.12047 0.0
H1512 H 0.65566 0.76725 0.08232 0.0
H1513 H 0.61073 0.70942 0.12811 0.0
H1514 H 0.5859 0.71511 0.14329 0.0
H1515 H 0.61025 0.71628 0.16591 0.0
H1516 H 0.60182 0.75487 0.18199 0.0
H1517 H 0.57747 0.75382 0.15938 0.0
H1518 H 0.5966 0.77439 0.15516 0.0
H1519 H 0.62165 0.76592 0.05069 0.0
H1520 H 0.58506 0.76243 0.02795 0.0
H1521 H 0.56371 0.73993 0.10745 0.0
C1522 C 0.64472 0.74862 0.1588 0.0
C1523 C 0.66537 0.75518 0.15328 0.0
C1524 C 0.66911 0.76181 0.1254 0.0
C1525 C 0.65267 0.7621 0.10351 0.0
C1526 C 0.63252 0.75567 0.10974 0.0
C1527 C 0.62848 0.74901 0.13667 0.0
C1528 C 0.60534 0.74313 0.13781 0.0
C1529 C 0.60292 0.71958 0.14415 0.0
C1530 C 0.59468 0.75741 0.15989 0.0
C1531 C 0.59699 0.74759 0.10734 0.0
C1532 C 0.61295 0.75479 0.09148 0.0
C1533 C 0.60906 0.76021 0.06286 0.0
C1534 C 0.58832 0.75821 0.05014 0.0
C1535 C 0.57184 0.75082 0.06602 0.0
C1536 C 0.5762 0.74547 0.09494 0.0
H1537 H 0.25822 0.645 0.1761 0.0
H1538 H 0.23397 0.6827 0.10486 0.0
H1539 H 0.23319 0.65088 0.07274 0.0
H1540 H 0.29037 0.61007 0.13754 0.0
H1541 H 0.28382 0.587 0.15668 0.0
H1542 H 0.2831 0.61287 0.17412 0.0
H1543 H 0.24406 0.60673 0.18508 0.0
H1544 H 0.24471 0.58077 0.16787 0.0
H1545 H 0.22472 0.59949 0.15604 0.0
H1546 H 0.23644 0.61526 0.04793 0.0
H1547 H 0.2412 0.57763 0.03303 0.0
H1548 H 0.259 0.56275 0.1215 0.0
C1549 C 0.25241 0.64664 0.15389 0.0
C1550 C 0.24637 0.66655 0.14309 0.0
C1551 C 0.23922 0.66783 0.11364 0.0
C1552 C 0.23853 0.64979 0.09522 0.0
C1553 C 0.24465 0.63051 0.10664 0.0
C1554 C 0.25117 0.62877 0.13536 0.0
C1555 C 0.2564 0.6061 0.14241 0.0
C1556 C 0.27981 0.60389 0.15333 0.0
C1557 C 0.24158 0.59779 0.16413 0.0
C1558 C 0.25202 0.59541 0.11306 0.0
C1559 C 0.24546 0.6098 0.09266 0.0
C1560 C 0.24136 0.60381 0.06374 0.0
C1561 C 0.24408 0.58251 0.0555 0.0
C1562 C 0.25061 0.56757 0.07617 0.0
C1563 C 0.2543 0.57403 0.10532 0.0
H1564 H 0.36952 0.7665 0.82828 0.0
H1565 H 0.32927 0.73367 0.88372 0.0
H1566 H 0.35993 0.72861 0.91839 0.0
H1567 H 0.41527 0.73227 0.84106 0.0
H1568 H 0.43411 0.75356 0.84009 0.0
H1569 H 0.4089 0.75486 0.81959 0.0
H1570 H 0.40147 0.79103 0.84483 0.0
H1571 H 0.42659 0.78977 0.86555 0.0
H1572 H 0.40253 0.7931 0.88356 0.0
H1573 H 0.39462 0.72805 0.94801 0.0
H1574 H 0.4316 0.73059 0.9693 0.0
H1575 H 0.45002 0.76137 0.89353 0.0
C1576 C 0.36714 0.75802 0.84752 0.0
C1577 C 0.34677 0.75076 0.8533 0.0
C1578 C 0.3445 0.7399 0.87899 0.0
C1579 C 0.36189 0.73678 0.89878 0.0
C1580 C 0.38161 0.74436 0.89256 0.0
C1581 C 0.38441 0.75457 0.86744 0.0
C1582 C 0.4074 0.76096 0.86592 0.0
C1583 C 0.41698 0.74974 0.84013 0.0
C1584 C 0.40961 0.78515 0.86491 0.0
C1585 C 0.417 0.75288 0.89418 0.0
C1586 C 0.4018 0.74345 0.90928 0.0
C1587 C 0.40668 0.73528 0.93631 0.0
C1588 C 0.42766 0.73678 0.94823 0.0
C1589 C 0.44348 0.74627 0.93309 0.0
C1590 C 0.43811 0.75423 0.90561 0.0
H1591 H 0.26912 0.36706 0.85499 0.0
H1592 H 0.26188 0.3274 0.92749 0.0
H1593 H 0.26743 0.35863 0.96078 0.0
H1594 H 0.30929 0.40342 0.89056 0.0
H1595 H 0.29792 0.42618 0.8731 0.0
H1596 H 0.29564 0.40038 0.85531 0.0
H1597 H 0.25479 0.40441 0.8496 0.0
H1598 H 0.25695 0.43017 0.86732 0.0
H1599 H 0.24054 0.41016 0.88102 0.0
H1600 H 0.27118 0.39428 0.98563 0.0
H1601 H 0.27143 0.43242 1.00019 0.0
H1602 H 0.27573 0.44882 0.91154 0.0
C1603 C 0.26916 0.36494 0.87793 0.0
C1604 C 0.26523 0.34492 0.88883 0.0
C1605 C 0.26483 0.3427 0.91885 0.0
C1606 C 0.2681 0.36027 0.93786 0.0
C1607 C 0.27171 0.37988 0.92641 0.0
C1608 C 0.2722 0.38233 0.89714 0.0
C1609 C 0.27468 0.40535 0.89021 0.0
C1610 C 0.29564 0.40904 0.87649 0.0
C1611 C 0.2556 0.41296 0.87091 0.0
C1612 C 0.27507 0.41551 0.92009 0.0
C1613 C 0.27362 0.40052 0.94072 0.0
C1614 C 0.27259 0.40615 0.96975 0.0
C1615 C 0.27276 0.42771 0.97782 0.0
C1616 C 0.2738 0.44316 0.95688 0.0
C1617 C 0.27525 0.43707 0.9278 0.0
H1618 H 0.6462 0.2404 0.84341 0.0
H1619 H 0.67472 0.30153 0.86758 0.0
H1620 H 0.64745 0.30823 0.90192 0.0
H1621 H 0.59152 0.25733 0.8474 0.0
H1622 H 0.58309 0.23293 0.86183 0.0
H1623 H 0.60472 0.23287 0.83884 0.0
H1624 H 0.62886 0.21512 0.87826 0.0
H1625 H 0.6073 0.21509 0.90135 0.0
H1626 H 0.63214 0.22743 0.91381 0.0
H1627 H 0.61841 0.3077 0.93526 0.0
H1628 H 0.58827 0.30058 0.96428 0.0
H1629 H 0.5771 0.24055 0.91759 0.0
C1630 C 0.64666 0.25518 0.85595 0.0
C1631 C 0.66255 0.2705 0.85272 0.0
C1632 C 0.66256 0.2897 0.86941 0.0
C1633 C 0.64719 0.29361 0.88907 0.0
C1634 C 0.63175 0.27824 0.8917 0.0
C1635 C 0.63123 0.25946 0.87551 0.0
C1636 C 0.6128 0.24567 0.88257 0.0
C1637 C 0.5971 0.24199 0.85608 0.0
C1638 C 0.62076 0.22458 0.89472 0.0
C1639 C 0.6032 0.25955 0.90546 0.0
C1640 C 0.6145 0.27822 0.91044 0.0
C1641 C 0.60933 0.29324 0.93137 0.0
C1642 C 0.59224 0.28906 0.94776 0.0
C1643 C 0.58034 0.27013 0.94297 0.0
C1644 C 0.58579 0.25527 0.92135 0.0
H1645 H 0.73781 0.66279 0.86071 0.0
H1646 H 0.78184 0.63919 0.8002 0.0
H1647 H 0.78512 0.60568 0.82581 0.0
H1648 H 0.76365 0.64057 0.9234 0.0
H1649 H 0.73934 0.6342 0.93899 0.0
H1650 H 0.7402 0.65613 0.91555 0.0
H1651 H 0.709 0.63982 0.88286 0.0
H1652 H 0.70803 0.61784 0.90622 0.0
H1653 H 0.71111 0.6131 0.86843 0.0
H1654 H 0.78456 0.57532 0.85908 0.0
H1655 H 0.77878 0.54953 0.89638 0.0
H1656 H 0.73489 0.593 0.93461 0.0
C1657 C 0.74816 0.65057 0.8529 0.0
C1658 C 0.75956 0.65351 0.8285 0.0
C1659 C 0.77279 0.63711 0.8187 0.0
C1660 C 0.77484 0.6181 0.83317 0.0
C1661 C 0.76346 0.61575 0.85727 0.0
C1662 C 0.75028 0.63147 0.86696 0.0
C1663 C 0.73975 0.62494 0.89331 0.0
C1664 C 0.74613 0.63985 0.91935 0.0
C1665 C 0.71554 0.62386 0.88733 0.0
C1666 C 0.74916 0.60314 0.89702 0.0
C1667 C 0.76287 0.59815 0.87611 0.0
C1668 C 0.77379 0.57901 0.8755 0.0
C1669 C 0.7705 0.56453 0.8968 0.0
C1670 C 0.75633 0.56928 0.9182 0.0
C1671 C 0.74559 0.58886 0.91824 0.0
loop_
_geom_bond_atom_site_label_1
_geom_bond_atom_site_label_2
_geom_bond_distance
_geom_bond_site_symmetry_2
_ccdc_geom_bond_type
H0 C19 0.949 . S
H1 C20 0.950 . S
H2 C22 0.950 . S
H3 C23 0.950 . S
H4 C25 0.950 . S
H5 C28 0.950 . S
H6 C29 0.950 . S
H7 C31 0.951 . S
H8 C32 0.949 . S
H9 C34 0.949 . S
H10 C35 0.950 . S
H11 C37 0.950 . S
H12 C38 0.950 . S
H13 C40 0.950 . S
H14 C43 0.950 . S
H15 C44 0.950 . S
H16 C46 0.951 . S
H17 C47 0.949 . S
C18 C19 1.376 . S
C18 C23 1.386 . S
C18 C24 1.483 . S
C19 H0 0.949 . S
C19 C18 1.376 . S
C19 C20 1.397 . S
C20 H1 0.950 . S
C20 C19 1.397 . S
C20 C21 1.391 . S
C21 C20 1.391 . S
C21 C22 1.405 . S
C22 H2 0.950 . S
C22 C21 1.405 . S
C22 C23 1.367 . S
C23 H3 0.950 . S
C23 C18 1.386 . S
C23 C22 1.367 . S
C24 C18 1.483 . S
C24 C25 1.382 . S
C24 C26 1.403 . S
C25 H4 0.950 . S
C25 C24 1.382 . S
C25 C41 1.411 . S
C26 C24 1.403 . S
C26 C27 1.489 . S
C26 C40 1.411 . S
C27 C26 1.489 . S
C27 C28 1.383 . S
C27 C32 1.382 . S
C28 H5 0.950 . S
C28 C27 1.383 . S
C28 C29 1.395 . S
C29 H6 0.950 . S
C29 C28 1.395 . S
C29 C30 1.288 . S
C30 C29 1.288 . S
C30 C31 1.392 . S
C31 H7 0.951 . S
C31 C30 1.392 . S
C31 C32 1.392 . S
C32 H8 0.949 . S
C32 C27 1.382 . S
C32 C31 1.392 . S
C33 C34 1.376 . S
C33 C38 1.386 . S
C33 C39 1.483 . S
C34 H9 0.949 . S
C34 C33 1.376 . S
C34 C35 1.397 . S
C35 H10 0.950 . S
C35 C34 1.397 . S
C35 C36 1.391 . S
C36 C35 1.391 . S
C36 C37 1.405 . S
C37 H11 0.950 . S
C37 C36 1.405 . S
C37 C38 1.367 . S
C38 H12 0.950 . S
C38 C33 1.386 . S
C38 C37 1.367 . S
C39 C33 1.483 . S
C39 C40 1.382 . S
C39 C41 1.403 . S
C40 H13 0.950 . S
C40 C26 1.411 . S
C40 C39 1.382 . S
C41 C25 1.411 . S
C41 C39 1.403 . S
C41 C42 1.489 . S
C42 C41 1.489 . S
C42 C43 1.383 . S
C42 C47 1.382 . S
C43 H14 0.950 . S
C43 C42 1.383 . S
C43 C44 1.395 . S
C44 H15 0.950 . S
C44 C43 1.395 . S
C44 C45 1.288 . S
C45 C44 1.288 . S
C45 C46 1.392 . S
C46 H16 0.951 . S
C46 C45 1.392 . S
C46 C47 1.392 . S
C47 H17 0.949 . S
C47 C42 1.382 . S
C47 C46 1.392 . S
H48 C67 0.949 . S
H49 C68 0.950 . S
H50 C70 0.950 . S
H51 C71 0.950 . S
H52 C73 0.950 . S
H53 C76 0.950 . S
H54 C77 0.950 . S
H55 C79 0.951 . S
H56 C80 0.949 . S
H57 C82 0.949 . S
H58 C83 0.950 . S
H59 C85 0.950 . S
H60 C86 0.950 . S
H61 C88 0.950 . S
H62 C91 0.950 . S
H63 C92 0.950 . S
H64 C94 0.951 . S
H65 C95 0.949 . S
C66 C67 1.376 . S
C66 C71 1.386 . S
C66 C72 1.483 . S
C67 H48 0.949 . S
C67 C66 1.376 . S
C67 C68 1.397 . S
C68 H49 0.950 . S
C68 C67 1.397 . S
C68 C69 1.391 . S
C69 C68 1.391 . S
C69 C70 1.405 . S
C70 H50 0.950 . S
C70 C69 1.405 . S
C70 C71 1.367 . S
C71 H51 0.950 . S
C71 C66 1.386 . S
C71 C70 1.367 . S
C72 C66 1.483 . S
C72 C73 1.382 . S
C72 C74 1.403 . S
C73 H52 0.950 . S
C73 C72 1.382 . S
C73 C89 1.411 . S
C74 C72 1.403 . S
C74 C75 1.489 . S
C74 C88 1.411 . S
C75 C74 1.489 . S
C75 C76 1.383 . S
C75 C80 1.382 . S
C76 H53 0.950 . S
C76 C75 1.383 . S
C76 C77 1.395 . S
C77 H54 0.950 . S
C77 C76 1.395 . S
C77 C78 1.288 . S
C78 C77 1.288 . S
C78 C79 1.392 . S
C79 H55 0.951 . S
C79 C78 1.392 . S
C79 C80 1.392 . S
C80 H56 0.949 . S
C80 C75 1.382 . S
C80 C79 1.392 . S
C81 C82 1.376 . S
C81 C86 1.386 . S
C81 C87 1.483 . S
C82 H57 0.949 . S
C82 C81 1.376 . S
C82 C83 1.397 . S
C83 H58 0.950 . S
C83 C82 1.397 . S
C83 C84 1.391 . S
C84 C83 1.391 . S
C84 C85 1.405 . S
C85 H59 0.950 . S
C85 C84 1.405 . S
C85 C86 1.367 . S
C86 H60 0.950 . S
C86 C81 1.386 . S
C86 C85 1.367 . S
C87 C81 1.483 . S
C87 C88 1.382 . S
C87 C89 1.403 . S
C88 H61 0.950 . S
C88 C74 1.411 . S
C88 C87 1.382 . S
C89 C73 1.411 . S
C89 C87 1.403 . S
C89 C90 1.489 . S
C90 C89 1.489 . S
C90 C91 1.383 . S
C90 C95 1.382 . S
C91 H62 0.950 . S
C91 C90 1.383 . S
C91 C92 1.395 . S
C92 H63 0.950 . S
C92 C91 1.395 . S
C92 C93 1.288 . S
C93 C92 1.288 . S
C93 C94 1.392 . S
C94 H64 0.951 . S
C94 C93 1.392 . S
C94 C95 1.392 . S
C95 H65 0.949 . S
C95 C90 1.382 . S
C95 C94 1.392 . S
H96 C115 0.949 . S
H97 C116 0.950 . S
H98 C118 0.950 . S
H99 C119 0.950 . S
H100 C121 0.950 . S
H101 C124 0.950 . S
H102 C125 0.950 . S
H103 C127 0.951 . S
H104 C128 0.949 . S
H105 C130 0.949 . S
H106 C131 0.950 . S
H107 C133 0.950 . S
H108 C134 0.950 . S
H109 C136 0.950 . S
H110 C139 0.950 . S
H111 C140 0.950 . S
H112 C142 0.951 . S
H113 C143 0.949 . S
C114 C115 1.376 . S
C114 C119 1.386 . S
C114 C120 1.483 . S
C115 H96 0.949 . S
C115 C114 1.376 . S
C115 C116 1.397 . S
C116 H97 0.950 . S
C116 C115 1.397 . S
C116 C117 1.391 . S
C117 C116 1.391 . S
C117 C118 1.405 . S
C118 H98 0.950 . S
C118 C117 1.405 . S
C118 C119 1.367 . S
C119 H99 0.950 . S
C119 C114 1.386 . S
C119 C118 1.367 . S
C120 C114 1.483 . S
C120 C121 1.382 . S
C120 C122 1.403 . S
C121 H100 0.950 . S
C121 C120 1.382 . S
C121 C137 1.411 . S
C122 C120 1.403 . S
C122 C123 1.489 . S
C122 C136 1.411 . S
C123 C122 1.489 . S
C123 C124 1.383 . S
C123 C128 1.382 . S
C124 H101 0.950 . S
C124 C123 1.383 . S
C124 C125 1.395 . S
C125 H102 0.950 . S
C125 C124 1.395 . S
C125 C126 1.288 . S
C126 C125 1.288 . S
C126 C127 1.392 . S
C127 H103 0.951 . S
C127 C126 1.392 . S
C127 C128 1.392 . S
C128 H104 0.949 . S
C128 C123 1.382 . S
C128 C127 1.392 . S
C129 C130 1.376 . S
C129 C134 1.386 . S
C129 C135 1.483 . S
C130 H105 0.949 . S
C130 C129 1.376 . S
C130 C131 1.397 . S
C131 H106 0.950 . S
C131 C130 1.397 . S
C131 C132 1.391 . S
C132 C131 1.391 . S
C132 C133 1.405 . S
C133 H107 0.950 . S
C133 C132 1.405 . S
C133 C134 1.367 . S
C134 H108 0.950 . S
C134 C129 1.386 . S
C134 C133 1.367 . S
C135 C129 1.483 . S
C135 C136 1.382 . S
C135 C137 1.403 . S
C136 H109 0.950 . S
C136 C122 1.411 . S
C136 C135 1.382 . S
C137 C121 1.411 . S
C137 C135 1.403 . S
C137 C138 1.489 . S
C138 C137 1.489 . S
C138 C139 1.383 . S
C138 C143 1.382 . S
C139 H110 0.950 . S
C139 C138 1.383 . S
C139 C140 1.395 . S
C140 H111 0.950 . S
C140 C139 1.395 . S
C140 C141 1.288 . S
C141 C140 1.288 . S
C141 C142 1.392 . S
C142 H112 0.951 . S
C142 C141 1.392 . S
C142 C143 1.392 . S
C143 H113 0.949 . S
C143 C138 1.382 . S
C143 C142 1.392 . S
H144 C163 0.949 . S
H145 C164 0.950 . S
H146 C166 0.950 . S
H147 C167 0.950 . S
H148 C169 0.950 . S
H149 C172 0.950 . S
H150 C173 0.950 . S
H151 C175 0.951 . S
H152 C176 0.949 . S
H153 C178 0.949 . S
H154 C179 0.950 . S
H155 C181 0.950 . S
H156 C182 0.950 . S
H157 C184 0.950 . S
H158 C187 0.950 . S
H159 C188 0.950 . S
H160 C190 0.951 . S
H161 C191 0.949 . S
C162 C163 1.376 . S
C162 C167 1.386 . S
C162 C168 1.483 . S
C163 H144 0.949 . S
C163 C162 1.376 . S
C163 C164 1.397 . S
C164 H145 0.950 . S
C164 C163 1.397 . S
C164 C165 1.391 . S
C165 C164 1.391 . S
C165 C166 1.405 . S
C166 H146 0.950 . S
C166 C165 1.405 . S
C166 C167 1.367 . S
C167 H147 0.950 . S
C167 C162 1.386 . S
C167 C166 1.367 . S
C168 C162 1.483 . S
C168 C169 1.382 . S
C168 C170 1.403 . S
C169 H148 0.950 . S
C169 C168 1.382 . S
C169 C185 1.411 . S
C170 C168 1.403 . S
C170 C171 1.489 . S
C170 C184 1.411 . S
C171 C170 1.489 . S
C171 C172 1.383 . S
C171 C176 1.382 . S
C172 H149 0.950 . S
C172 C171 1.383 . S
C172 C173 1.395 . S
C173 H150 0.950 . S
C173 C172 1.395 . S
C173 C174 1.288 . S
C174 C173 1.288 . S
C174 C175 1.392 . S
C175 H151 0.951 . S
C175 C174 1.392 . S
C175 C176 1.392 . S
C176 H152 0.949 . S
C176 C171 1.382 . S
C176 C175 1.392 . S
C177 C178 1.376 . S
C177 C182 1.386 . S
C177 C183 1.483 . S
C178 H153 0.949 . S
C178 C177 1.376 . S
C178 C179 1.397 . S
C179 H154 0.950 . S
C179 C178 1.397 . S
C179 C180 1.391 . S
C180 C179 1.391 . S
C180 C181 1.405 . S
C181 H155 0.950 . S
C181 C180 1.405 . S
C181 C182 1.367 . S
C182 H156 0.950 . S
C182 C177 1.386 . S
C182 C181 1.367 . S
C183 C177 1.483 . S
C183 C184 1.382 . S
C183 C185 1.403 . S
C184 H157 0.950 . S
C184 C170 1.411 . S
C184 C183 1.382 . S
C185 C169 1.411 . S
C185 C183 1.403 . S
C185 C186 1.489 . S
C186 C185 1.489 . S
C186 C187 1.383 . S
C186 C191 1.382 . S
C187 H158 0.950 . S
C187 C186 1.383 . S
C187 C188 1.395 . S
C188 H159 0.950 . S
C188 C187 1.395 . S
C188 C189 1.288 . S
C189 C188 1.288 . S
C189 C190 1.392 . S
C190 H160 0.951 . S
C190 C189 1.392 . S
C190 C191 1.392 . S
C191 H161 0.949 . S
C191 C186 1.382 . S
C191 C190 1.392 . S
H192 C211 0.949 . S
H193 C212 0.950 . S
H194 C214 0.950 . S
H195 C215 0.950 . S
H196 C217 0.950 . S
H197 C220 0.950 . S
H198 C221 0.950 . S
H199 C223 0.951 . S
H200 C224 0.949 . S
H201 C226 0.949 . S
H202 C227 0.950 . S
H203 C229 0.950 . S
H204 C230 0.950 . S
H205 C232 0.950 . S
H206 C235 0.950 . S
H207 C236 0.950 . S
H208 C238 0.951 . S
H209 C239 0.949 . S
C210 C211 1.376 . S
C210 C215 1.386 . S
C210 C216 1.483 . S
C211 H192 0.949 . S
C211 C210 1.376 . S
C211 C212 1.397 . S
C212 H193 0.950 . S
C212 C211 1.397 . S
C212 C213 1.391 . S
C213 C212 1.391 . S
C213 C214 1.405 . S
C214 H194 0.950 . S
C214 C213 1.405 . S
C214 C215 1.367 . S
C215 H195 0.950 . S
C215 C210 1.386 . S
C215 C214 1.367 . S
C216 C210 1.483 . S
C216 C217 1.382 . S
C216 C218 1.403 . S
C217 H196 0.950 . S
C217 C216 1.382 . S
C217 C233 1.411 . S
C218 C216 1.403 . S
C218 C219 1.489 . S
C218 C232 1.411 . S
C219 C218 1.489 . S
C219 C220 1.383 . S
C219 C224 1.382 . S
C220 H197 0.950 . S
C220 C219 1.383 . S
C220 C221 1.395 . S
C221 H198 0.950 . S
C221 C220 1.395 . S
C221 C222 1.288 . S
C222 C221 1.288 . S
C222 C223 1.392 . S
C223 H199 0.951 . S
C223 C222 1.392 . S
C223 C224 1.392 . S
C224 H200 0.949 . S
C224 C219 1.382 . S
C224 C223 1.392 . S
C225 C226 1.376 . S
C225 C230 1.386 . S
C225 C231 1.483 . S
C226 H201 0.949 . S
C226 C225 1.376 . S
C226 C227 1.397 . S
C227 H202 0.950 . S
C227 C226 1.397 . S
C227 C228 1.391 . S
C228 C227 1.391 . S
C228 C229 1.405 . S
C229 H203 0.950 . S
C229 C228 1.405 . S
C229 C230 1.367 . S
C230 H204 0.950 . S
C230 C225 1.386 . S
C230 C229 1.367 . S
C231 C225 1.483 . S
C231 C232 1.382 . S
C231 C233 1.403 . S
C232 H205 0.950 . S
C232 C218 1.411 . S
C232 C231 1.382 . S
C233 C217 1.411 . S
C233 C231 1.403 . S
C233 C234 1.489 . S
C234 C233 1.489 . S
C234 C235 1.383 . S
C234 C239 1.382 . S
C235 H206 0.950 . S
C235 C234 1.383 . S
C235 C236 1.395 . S
C236 H207 0.950 . S
C236 C235 1.395 . S
C236 C237 1.288 . S
C237 C236 1.288 . S
C237 C238 1.392 . S
C238 H208 0.951 . S
C238 C237 1.392 . S
C238 C239 1.392 . S
C239 H209 0.949 . S
C239 C234 1.382 . S
C239 C238 1.392 . S
H240 C259 0.949 . S
H241 C260 0.950 . S
H242 C262 0.950 . S
H243 C263 0.950 . S
H244 C265 0.950 . S
H245 C268 0.950 . S
H246 C269 0.950 . S
H247 C271 0.951 . S
H248 C272 0.949 . S
H249 C274 0.949 . S
H250 C275 0.950 . S
H251 C277 0.950 . S
H252 C278 0.950 . S
H253 C280 0.950 . S
H254 C283 0.950 . S
H255 C284 0.950 . S
H256 C286 0.951 . S
H257 C287 0.949 . S
C258 C259 1.376 . S
C258 C263 1.386 . S
C258 C264 1.483 . S
C259 H240 0.949 . S
C259 C258 1.376 . S
C259 C260 1.397 . S
C260 H241 0.950 . S
C260 C259 1.397 . S
C260 C261 1.391 . S
C261 C260 1.391 . S
C261 C262 1.405 . S
C262 H242 0.950 . S
C262 C261 1.405 . S
C262 C263 1.367 . S
C263 H243 0.950 . S
C263 C258 1.386 . S
C263 C262 1.367 . S
C264 C258 1.483 . S
C264 C265 1.382 . S
C264 C266 1.403 . S
C265 H244 0.950 . S
C265 C264 1.382 . S
C265 C281 1.411 . S
C266 C264 1.403 . S
C266 C267 1.489 . S
C266 C280 1.411 . S
C267 C266 1.489 . S
C267 C268 1.383 . S
C267 C272 1.382 . S
C268 H245 0.950 . S
C268 C267 1.383 . S
C268 C269 1.395 . S
C269 H246 0.950 . S
C269 C268 1.395 . S
C269 C270 1.288 . S
C270 C269 1.288 . S
C270 C271 1.392 . S
C271 H247 0.951 . S
C271 C270 1.392 . S
C271 C272 1.392 . S
C272 H248 0.949 . S
C272 C267 1.382 . S
C272 C271 1.392 . S
C273 C274 1.376 . S
C273 C278 1.386 . S
C273 C279 1.483 . S
C274 H249 0.949 . S
C274 C273 1.376 . S
C274 C275 1.397 . S
C275 H250 0.950 . S
C275 C274 1.397 . S
C275 C276 1.391 . S
C276 C275 1.391 . S
C276 C277 1.405 . S
C277 H251 0.950 . S
C277 C276 1.405 . S
C277 C278 1.367 . S
C278 H252 0.950 . S
C278 C273 1.386 . S
C278 C277 1.367 . S
C279 C273 1.483 . S
C279 C280 1.382 . S
C279 C281 1.403 . S
C280 H253 0.950 . S
C280 C266 1.411 . S
C280 C279 1.382 . S
C281 C265 1.411 . S
C281 C279 1.403 . S
C281 C282 1.489 . S
C282 C281 1.489 . S
C282 C283 1.383 . S
C282 C287 1.382 . S
C283 H254 0.950 . S
C283 C282 1.383 . S
C283 C284 1.395 . S
C284 H255 0.950 . S
C284 C283 1.395 . S
C284 C285 1.288 . S
C285 C284 1.288 . S
C285 C286 1.392 . S
C286 H256 0.951 . S
C286 C285 1.392 . S
C286 C287 1.392 . S
C287 H257 0.949 . S
C287 C282 1.382 . S
C287 C286 1.392 . S
H288 C307 0.949 . S
H289 C308 0.950 . S
H290 C310 0.950 . S
H291 C311 0.950 . S
H292 C313 0.950 . S
H293 C316 0.950 . S
H294 C317 0.950 . S
H295 C319 0.951 . S
H296 C320 0.949 . S
H297 C322 0.949 . S
H298 C323 0.950 . S
H299 C325 0.950 . S
H300 C326 0.950 . S
H301 C328 0.950 . S
H302 C331 0.950 . S
H303 C332 0.950 . S
H304 C334 0.951 . S
H305 C335 0.949 . S
C306 C307 1.376 . S
C306 C311 1.386 . S
C306 C312 1.483 . S
C307 H288 0.949 . S
C307 C306 1.376 . S
C307 C308 1.397 . S
C308 H289 0.950 . S
C308 C307 1.397 . S
C308 C309 1.391 . S
C309 C308 1.391 . S
C309 C310 1.405 . S
C310 H290 0.950 . S
C310 C309 1.405 . S
C310 C311 1.367 . S
C311 H291 0.950 . S
C311 C306 1.386 . S
C311 C310 1.367 . S
C312 C306 1.483 . S
C312 C313 1.382 . S
C312 C314 1.403 . S
C313 H292 0.950 . S
C313 C312 1.382 . S
C313 C329 1.411 . S
C314 C312 1.403 . S
C314 C315 1.489 . S
C314 C328 1.411 . S
C315 C314 1.489 . S
C315 C316 1.383 . S
C315 C320 1.382 . S
C316 H293 0.950 . S
C316 C315 1.383 . S
C316 C317 1.395 . S
C317 H294 0.950 . S
C317 C316 1.395 . S
C317 C318 1.288 . S
C318 C317 1.288 . S
C318 C319 1.392 . S
C319 H295 0.951 . S
C319 C318 1.392 . S
C319 C320 1.392 . S
C320 H296 0.949 . S
C320 C315 1.382 . S
C320 C319 1.392 . S
C321 C322 1.376 . S
C321 C326 1.386 . S
C321 C327 1.483 . S
C322 H297 0.949 . S
C322 C321 1.376 . S
C322 C323 1.397 . S
C323 H298 0.950 . S
C323 C322 1.397 . S
C323 C324 1.391 . S
C324 C323 1.391 . S
C324 C325 1.405 . S
C325 H299 0.950 . S
C325 C324 1.405 . S
C325 C326 1.367 . S
C326 H300 0.950 . S
C326 C321 1.386 . S
C326 C325 1.367 . S
C327 C321 1.483 . S
C327 C328 1.382 . S
C327 C329 1.403 . S
C328 H301 0.950 . S
C328 C314 1.411 . S
C328 C327 1.382 . S
C329 C313 1.411 . S
C329 C327 1.403 . S
C329 C330 1.489 . S
C330 C329 1.489 . S
C330 C331 1.383 . S
C330 C335 1.382 . S
C331 H302 0.950 . S
C331 C330 1.383 . S
C331 C332 1.395 . S
C332 H303 0.950 . S
C332 C331 1.395 . S
C332 C333 1.288 . S
C333 C332 1.288 . S
C333 C334 1.392 . S
C334 H304 0.951 . S
C334 C333 1.392 . S
C334 C335 1.392 . S
C335 H305 0.949 . S
C335 C330 1.382 . S
C335 C334 1.392 . S
H336 C355 0.949 . S
H337 C356 0.950 . S
H338 C358 0.950 . S
H339 C359 0.950 . S
H340 C361 0.950 . S
H341 C364 0.950 . S
H342 C365 0.950 . S
H343 C367 0.951 . S
H344 C368 0.949 . S
H345 C370 0.949 . S
H346 C371 0.950 . S
H347 C373 0.950 . S
H348 C374 0.950 . S
H349 C376 0.950 . S
H350 C379 0.950 . S
H351 C380 0.950 . S
H352 C382 0.951 . S
H353 C383 0.949 . S
C354 C355 1.376 . S
C354 C359 1.386 . S
C354 C360 1.483 . S
C355 H336 0.949 . S
C355 C354 1.376 . S
C355 C356 1.397 . S
C356 H337 0.950 . S
C356 C355 1.397 . S
C356 C357 1.391 . S
C357 C356 1.391 . S
C357 C358 1.405 . S
C358 H338 0.950 . S
C358 C357 1.405 . S
C358 C359 1.367 . S
C359 H339 0.950 . S
C359 C354 1.386 . S
C359 C358 1.367 . S
C360 C354 1.483 . S
C360 C361 1.382 . S
C360 C362 1.403 . S
C361 H340 0.950 . S
C361 C360 1.382 . S
C361 C377 1.411 . S
C362 C360 1.403 . S
C362 C363 1.489 . S
C362 C376 1.411 . S
C363 C362 1.489 . S
C363 C364 1.383 . S
C363 C368 1.382 . S
C364 H341 0.950 . S
C364 C363 1.383 . S
C364 C365 1.395 . S
C365 H342 0.950 . S
C365 C364 1.395 . S
C365 C366 1.288 . S
C366 C365 1.288 . S
C366 C367 1.392 . S
C367 H343 0.951 . S
C367 C366 1.392 . S
C367 C368 1.392 . S
C368 H344 0.949 . S
C368 C363 1.382 . S
C368 C367 1.392 . S
C369 C370 1.376 . S
C369 C374 1.386 . S
C369 C375 1.483 . S
C370 H345 0.949 . S
C370 C369 1.376 . S
C370 C371 1.397 . S
C371 H346 0.950 . S
C371 C370 1.397 . S
C371 C372 1.391 . S
C372 C371 1.391 . S
C372 C373 1.405 . S
C373 H347 0.950 . S
C373 C372 1.405 . S
C373 C374 1.367 . S
C374 H348 0.950 . S
C374 C369 1.386 . S
C374 C373 1.367 . S
C375 C369 1.483 . S
C375 C376 1.382 . S
C375 C377 1.403 . S
C376 H349 0.950 . S
C376 C362 1.411 . S
C376 C375 1.382 . S
C377 C361 1.411 . S
C377 C375 1.403 . S
C377 C378 1.489 . S
C378 C377 1.489 . S
C378 C379 1.383 . S
C378 C383 1.382 . S
C379 H350 0.950 . S
C379 C378 1.383 . S
C379 C380 1.395 . S
C380 H351 0.950 . S
C380 C379 1.395 . S
C380 C381 1.288 . S
C381 C380 1.288 . S
C381 C382 1.392 . S
C382 H352 0.951 . S
C382 C381 1.392 . S
C382 C383 1.392 . S
C383 H353 0.949 . S
C383 C378 1.382 . S
C383 C382 1.392 . S
C384 C385 1.443 . S
C384 N388 1.376 . S
C384 C422 1.389 . S
C385 C384 1.443 . S
C385 C386 1.340 . S
C385 H425 0.951 . S
C386 C385 1.340 . S
C386 C387 1.439 . S
C386 H426 0.950 . S
C387 C386 1.439 . S
C387 N388 1.374 . S
C387 C421 1.395 . S
N388 C384 1.376 . S
N388 C387 1.374 . S
N388 Co389 2.008 . S
Co389 N388 2.008 . S
Co389 N390 1.995 1_455 S
Co389 N395 2.008 1_455 S
Co389 N400 1.995 . S
Co389 N405 2.282 1_455 S
Co389 N411 2.282 . S
N390 Co389 1.995 1_655 S
N390 C391 1.376 . S
N390 C394 1.383 . S
C391 N390 1.376 . S
C391 C392 1.446 . S
C391 C421 1.391 1_655 S
C392 C391 1.446 . S
C392 C393 1.339 . S
C392 H427 0.949 . S
C393 C392 1.339 . S
C393 C394 1.439 . S
C393 H428 0.950 . S
C394 N390 1.383 . S
C394 C393 1.439 . S
C394 C423 1.392 . S
N395 Co389 2.008 1_655 S
N395 C396 1.376 . S
N395 C399 1.374 . S
C396 N395 1.376 . S
C396 C397 1.443 . S
C396 C423 1.389 . S
C397 C396 1.443 . S
C397 C398 1.340 . S
C397 H429 0.951 . S
C398 C397 1.340 . S
C398 C399 1.439 . S
C398 H430 0.950 . S
C399 N395 1.374 . S
C399 C398 1.439 . S
C399 C424 1.404 . S
N400 Co389 1.995 . S
N400 C401 1.376 . S
N400 C404 1.383 . S
C401 N400 1.376 . S
C401 C402 1.446 . S
C401 C424 1.382 1_455 S
C402 C401 1.446 . S
C402 C403 1.339 . S
C402 H431 0.949 . S
C403 C402 1.339 . S
C403 C404 1.439 . S
C403 H432 0.950 . S
C404 N400 1.383 . S
C404 C403 1.439 . S
C404 C422 1.392 . S
N405 Co389 2.282 1_655 S
N405 C408 1.332 . S
N405 C410 1.332 . S
C406 C407 1.386 . S
C406 C409 1.388 . S
C407 C406 1.386 . S
C407 C408 1.382 . S
C407 H433 0.950 . S
C408 N405 1.332 . S
C408 C407 1.382 . S
C408 H419 0.952 . S
C409 C406 1.388 . S
C409 C410 1.382 . S
C409 H434 0.950 . S
C410 N405 1.332 . S
C410 C409 1.382 . S
C410 H420 0.948 . S
N411 Co389 2.282 . S
N411 C415 1.332 . S
N411 C416 1.332 . S
C412 C413 1.388 . S
C412 C416 1.382 . S
C412 H435 0.950 . S
C413 C412 1.388 . S
C413 C414 1.386 . S
C414 C413 1.386 . S
C414 C415 1.382 . S
C414 H436 0.950 . S
C415 N411 1.332 . S
C415 C414 1.382 . S
C415 H417 0.952 . S
C416 N411 1.332 . S
C416 C412 1.382 . S
C416 H418 0.948 . S
H417 C415 0.952 . S
H418 C416 0.948 . S
H419 C408 0.952 . S
H420 C410 0.948 . S
C421 C387 1.395 . S
C421 C391 1.391 1_455 S
C422 C384 1.389 . S
C422 C404 1.392 . S
C423 C394 1.392 . S
C423 C396 1.389 . S
C424 C399 1.404 . S
C424 C401 1.382 1_655 S
H425 C385 0.951 . S
H426 C386 0.950 . S
H427 C392 0.949 . S
H428 C393 0.950 . S
H429 C397 0.951 . S
H430 C398 0.950 . S
H431 C402 0.949 . S
H432 C403 0.950 . S
H433 C407 0.950 . S
H434 C409 0.950 . S
H435 C412 0.950 . S
H436 C414 0.950 . S
C437 C438 1.443 . S
C437 N441 1.376 . S
C437 C475 1.389 . S
C438 C437 1.443 . S
C438 C439 1.340 . S
C438 H478 0.951 . S
C439 C438 1.340 . S
C439 C440 1.439 . S
C439 H479 0.950 . S
C440 C439 1.439 . S
C440 N441 1.374 . S
C440 C474 1.395 . S
N441 C437 1.376 . S
N441 C440 1.374 . S
N441 Co442 2.008 . S
Co442 N441 2.008 . S
Co442 N443 1.995 1_545 S
Co442 N448 2.008 1_545 S
Co442 N453 1.995 . S
Co442 N458 2.282 1_545 S
Co442 N464 2.282 . S
N443 Co442 1.995 1_565 S
N443 C444 1.376 . S
N443 C447 1.383 . S
C444 N443 1.376 . S
C444 C445 1.446 . S
C444 C474 1.391 1_565 S
C445 C444 1.446 . S
C445 C446 1.339 . S
C445 H480 0.949 . S
C446 C445 1.339 . S
C446 C447 1.439 . S
C446 H481 0.950 . S
C447 N443 1.383 . S
C447 C446 1.439 . S
C447 C476 1.392 . S
N448 Co442 2.008 1_565 S
N448 C449 1.376 . S
N448 C452 1.374 . S
C449 N448 1.376 . S
C449 C450 1.443 . S
C449 C476 1.389 . S
C450 C449 1.443 . S
C450 C451 1.340 . S
C450 H482 0.951 . S
C451 C450 1.340 . S
C451 C452 1.439 . S
C451 H483 0.950 . S
C452 N448 1.374 . S
C452 C451 1.439 . S
C452 C477 1.398 1_565 S
N453 Co442 1.995 . S
N453 C454 1.376 . S
N453 C457 1.383 . S
C454 N453 1.376 . S
C454 C455 1.446 . S
C454 C477 1.388 . S
C455 C454 1.446 . S
C455 C456 1.339 . S
C455 H484 0.949 . S
C456 C455 1.339 . S
C456 C457 1.439 . S
C456 H485 0.950 . S
C457 N453 1.383 . S
C457 C456 1.439 . S
C457 C475 1.392 . S
N458 Co442 2.282 1_565 S
N458 C461 1.332 . S
N458 C463 1.332 . S
C459 C460 1.386 . S
C459 C462 1.388 . S
C460 C459 1.386 . S
C460 C461 1.382 . S
C460 H486 0.950 . S
C461 N458 1.332 . S
C461 C460 1.382 . S
C461 H472 0.952 . S
C462 C459 1.388 . S
C462 C463 1.382 . S
C462 H487 0.950 . S
C463 N458 1.332 . S
C463 C462 1.382 . S
C463 H473 0.948 . S
N464 Co442 2.282 . S
N464 C468 1.332 . S
N464 C469 1.332 . S
C465 C466 1.388 . S
C465 C469 1.382 . S
C465 H488 0.950 . S
C466 C465 1.388 . S
C466 C467 1.386 . S
C467 C466 1.386 . S
C467 C468 1.382 . S
C467 H489 0.950 . S
C468 N464 1.332 . S
C468 C467 1.382 . S
C468 H470 0.952 . S
C469 N464 1.332 . S
C469 C465 1.382 . S
C469 H471 0.948 . S
H470 C468 0.952 . S
H471 C469 0.948 . S
H472 C461 0.952 . S
H473 C463 0.948 . S
C474 C440 1.395 . S
C474 C444 1.391 1_545 S
C475 C437 1.389 . S
C475 C457 1.392 . S
C476 C447 1.392 . S
C476 C449 1.389 . S
C477 C452 1.398 1_545 S
C477 C454 1.388 . S
H478 C438 0.951 . S
H479 C439 0.950 . S
H480 C445 0.949 . S
H481 C446 0.950 . S
H482 C450 0.951 . S
H483 C451 0.950 . S
H484 C455 0.949 . S
H485 C456 0.950 . S
H486 C460 0.950 . S
H487 C462 0.950 . S
H488 C465 0.950 . S
H489 C467 0.950 . S
C490 C491 1.443 . S
C490 N494 1.376 . S
C490 C528 1.389 . S
C491 C490 1.443 . S
C491 C492 1.340 . S
C491 H531 0.951 . S
C492 C491 1.340 . S
C492 C493 1.439 . S
C492 H532 0.950 . S
C493 C492 1.439 . S
C493 N494 1.374 . S
C493 C527 1.395 . S
N494 C490 1.376 . S
N494 C493 1.374 . S
N494 Co495 2.008 . S
Co495 N494 2.008 . S
Co495 N496 1.995 1_455 S
Co495 N501 2.008 1_455 S
Co495 N506 1.995 . S
Co495 N511 2.282 1_455 S
Co495 N517 2.282 . S
N496 Co495 1.995 1_655 S
N496 C497 1.376 . S
N496 C500 1.383 . S
C497 N496 1.376 . S
C497 C498 1.446 . S
C497 C527 1.391 1_655 S
C498 C497 1.446 . S
C498 C499 1.339 . S
C498 H533 0.949 . S
C499 C498 1.339 . S
C499 C500 1.439 . S
C499 H534 0.950 . S
C500 N496 1.383 . S
C500 C499 1.439 . S
C500 C529 1.392 . S
N501 Co495 2.008 1_655 S
N501 C502 1.376 . S
N501 C505 1.374 . S
C502 N501 1.376 . S
C502 C503 1.443 . S
C502 C529 1.389 . S
C503 C502 1.443 . S
C503 C504 1.340 . S
C503 H535 0.951 . S
C504 C503 1.340 . S
C504 C505 1.439 . S
C504 H536 0.950 . S
C505 N501 1.374 . S
C505 C504 1.439 . S
C505 C530 1.395 . S
N506 Co495 1.995 . S
N506 C507 1.376 . S
N506 C510 1.383 . S
C507 N506 1.376 . S
C507 C508 1.446 . S
C507 C530 1.391 1_455 S
C508 C507 1.446 . S
C508 C509 1.339 . S
C508 H537 0.949 . S
C509 C508 1.339 . S
C509 C510 1.439 . S
C509 H538 0.950 . S
C510 N506 1.383 . S
C510 C509 1.439 . S
C510 C528 1.392 . S
N511 Co495 2.282 1_655 S
N511 C514 1.332 . S
N511 C516 1.332 . S
C512 C513 1.386 . S
C512 C515 1.388 . S
C513 C512 1.386 . S
C513 C514 1.382 . S
C513 H539 0.950 . S
C514 N511 1.332 . S
C514 C513 1.382 . S
C514 H525 0.952 . S
C515 C512 1.388 . S
C515 C516 1.382 . S
C515 H540 0.950 . S
C516 N511 1.332 . S
C516 C515 1.382 . S
C516 H526 0.948 . S
N517 Co495 2.282 . S
N517 C521 1.332 . S
N517 C522 1.332 . S
C518 C519 1.388 . S
C518 C522 1.382 . S
C518 H541 0.950 . S
C519 C518 1.388 . S
C519 C520 1.386 . S
C520 C519 1.386 . S
C520 C521 1.382 . S
C520 H542 0.950 . S
C521 N517 1.332 . S
C521 C520 1.382 . S
C521 H523 0.952 . S
C522 N517 1.332 . S
C522 C518 1.382 . S
C522 H524 0.948 . S
H523 C521 0.952 . S
H524 C522 0.948 . S
H525 C514 0.952 . S
H526 C516 0.948 . S
C527 C493 1.395 . S
C527 C497 1.391 1_455 S
C528 C490 1.389 . S
C528 C510 1.392 . S
C529 C500 1.392 . S
C529 C502 1.389 . S
C530 C505 1.395 . S
C530 C507 1.391 1_655 S
H531 C491 0.951 . S
H532 C492 0.950 . S
H533 C498 0.949 . S
H534 C499 0.950 . S
H535 C503 0.951 . S
H536 C504 0.950 . S
H537 C508 0.949 . S
H538 C509 0.950 . S
H539 C513 0.950 . S
H540 C515 0.950 . S
H541 C518 0.950 . S
H542 C520 0.950 . S
C543 C544 1.443 . S
C543 N547 1.376 . S
C543 C581 1.389 . S
C544 C543 1.443 . S
C544 C545 1.340 . S
C544 H584 0.951 . S
C545 C544 1.340 . S
C545 C546 1.439 . S
C545 H585 0.950 . S
C546 C545 1.439 . S
C546 N547 1.374 . S
C546 C580 1.410 . S
N547 C543 1.376 . S
N547 C546 1.374 . S
N547 Co548 2.008 1_565 S
Co548 N547 2.008 1_545 S
Co548 N549 1.995 . S
Co548 N554 2.008 . S
Co548 N559 1.995 1_545 S
Co548 N564 2.282 . S
Co548 N570 2.282 1_545 S
N549 Co548 1.995 . S
N549 C550 1.376 . S
N549 C553 1.383 . S
C550 N549 1.376 . S
C550 C551 1.446 . S
C550 C580 1.375 1_545 S
C551 C550 1.446 . S
C551 C552 1.339 . S
C551 H586 0.949 . S
C552 C551 1.339 . S
C552 C553 1.439 . S
C552 H587 0.950 . S
C553 N549 1.383 . S
C553 C552 1.439 . S
C553 C582 1.392 . S
N554 Co548 2.008 . S
N554 C555 1.376 . S
N554 C558 1.374 . S
C555 N554 1.376 . S
C555 C556 1.443 . S
C555 C582 1.389 . S
C556 C555 1.443 . S
C556 C557 1.340 . S
C556 H588 0.951 . S
C557 C556 1.340 . S
C557 C558 1.439 . S
C557 H589 0.950 . S
C558 N554 1.374 . S
C558 C557 1.439 . S
C558 C583 1.395 . S
N559 Co548 1.995 1_565 S
N559 C560 1.376 . S
N559 C563 1.383 . S
C560 N559 1.376 . S
C560 C561 1.446 . S
C560 C583 1.391 1_565 S
C561 C560 1.446 . S
C561 C562 1.339 . S
C561 H590 0.949 . S
C562 C561 1.339 . S
C562 C563 1.439 . S
C562 H591 0.950 . S
C563 N559 1.383 . S
C563 C562 1.439 . S
C563 C581 1.392 . S
N564 Co548 2.282 . S
N564 C567 1.332 . S
N564 C569 1.332 . S
C565 C566 1.386 . S
C565 C568 1.388 . S
C566 C565 1.386 . S
C566 C567 1.382 . S
C566 H592 0.950 . S
C567 N564 1.332 . S
C567 C566 1.382 . S
C567 H578 0.952 . S
C568 C565 1.388 . S
C568 C569 1.382 . S
C568 H593 0.950 . S
C569 N564 1.332 . S
C569 C568 1.382 . S
C569 H579 0.948 . S
N570 Co548 2.282 1_565 S
N570 C574 1.332 . S
N570 C575 1.332 . S
C571 C572 1.388 . S
C571 C575 1.382 . S
C571 H594 0.950 . S
C572 C571 1.388 . S
C572 C573 1.386 . S
C573 C572 1.386 . S
C573 C574 1.382 . S
C573 H595 0.950 . S
C574 N570 1.332 . S
C574 C573 1.382 . S
C574 H576 0.952 . S
C575 N570 1.332 . S
C575 C571 1.382 . S
C575 H577 0.948 . S
H576 C574 0.952 . S
H577 C575 0.948 . S
H578 C567 0.952 . S
H579 C569 0.948 . S
C580 C546 1.410 . S
C580 C550 1.375 1_565 S
C581 C543 1.389 . S
C581 C563 1.392 . S
C582 C553 1.392 . S
C582 C555 1.389 . S
C583 C558 1.395 . S
C583 C560 1.391 1_545 S
H584 C544 0.951 . S
H585 C545 0.950 . S
H586 C551 0.949 . S
H587 C552 0.950 . S
H588 C556 0.951 . S
H589 C557 0.950 . S
H590 C561 0.949 . S
H591 C562 0.950 . S
H592 C566 0.950 . S
H593 C568 0.950 . S
H594 C571 0.950 . S
H595 C573 0.950 . S
C596 C597 1.443 . S
C596 N600 1.376 . S
C596 C634 1.389 . S
C597 C596 1.443 . S
C597 C598 1.340 . S
C597 H637 0.951 . S
C598 C597 1.340 . S
C598 C599 1.439 . S
C598 H638 0.950 . S
C599 C598 1.439 . S
C599 N600 1.374 . S
C599 C633 1.395 1_554 S
N600 C596 1.376 . S
N600 C599 1.374 . S
N600 Co601 2.013 . S
Co601 N600 2.013 . S
Co601 N602 1.988 1_554 S
Co601 N607 2.003 1_554 S
Co601 N612 2.001 . S
Co601 N617 2.291 . S
Co601 N623 2.274 1_554 S
N602 Co601 1.988 1_556 S
N602 C603 1.376 . S
N602 C606 1.383 . S
C603 N602 1.376 . S
C603 C604 1.446 . S
C603 C633 1.391 . S
C604 C603 1.446 . S
C604 C605 1.339 . S
C604 H639 0.949 . S
C605 C604 1.339 . S
C605 C606 1.439 . S
C605 H640 0.950 . S
C606 N602 1.383 . S
C606 C605 1.439 . S
C606 C635 1.392 . S
N607 Co601 2.003 1_556 S
N607 C608 1.376 . S
N607 C611 1.374 . S
C608 N607 1.376 . S
C608 C609 1.443 . S
C608 C635 1.389 . S
C609 C608 1.443 . S
C609 C610 1.340 . S
C609 H641 0.951 . S
C610 C609 1.340 . S
C610 C611 1.439 . S
C610 H642 0.950 . S
C611 N607 1.374 . S
C611 C610 1.439 . S
C611 C636 1.395 1_556 S
N612 Co601 2.001 . S
N612 C613 1.376 . S
N612 C616 1.383 . S
C613 N612 1.376 . S
C613 C614 1.446 . S
C613 C636 1.391 . S
C614 C613 1.446 . S
C614 C615 1.339 . S
C614 H643 0.949 . S
C615 C614 1.339 . S
C615 C616 1.439 . S
C615 H644 0.950 . S
C616 N612 1.383 . S
C616 C615 1.439 . S
C616 C634 1.392 . S
N617 Co601 2.291 . S
N617 C620 1.332 . S
N617 C622 1.332 . S
C618 C619 1.386 . S
C618 C621 1.388 . S
C619 C618 1.386 . S
C619 C620 1.382 . S
C619 H645 0.950 . S
C620 N617 1.332 . S
C620 C619 1.382 . S
C620 H631 0.952 . S
C621 C618 1.388 . S
C621 C622 1.382 . S
C621 H646 0.950 . S
C622 N617 1.332 . S
C622 C621 1.382 . S
C622 H632 0.948 . S
N623 Co601 2.274 1_556 S
N623 C627 1.332 . S
N623 C628 1.332 . S
C624 C625 1.388 . S
C624 C628 1.382 . S
C624 H647 0.950 . S
C625 C624 1.388 . S
C625 C626 1.386 . S
C626 C625 1.386 . S
C626 C627 1.382 . S
C626 H648 0.950 . S
C627 N623 1.332 . S
C627 C626 1.382 . S
C627 H629 0.952 . S
C628 N623 1.332 . S
C628 C624 1.382 . S
C628 H630 0.948 . S
H629 C627 0.952 . S
H630 C628 0.948 . S
H631 C620 0.952 . S
H632 C622 0.948 . S
C633 C599 1.395 1_556 S
C633 C603 1.391 . S
C634 C596 1.389 . S
C634 C616 1.392 . S
C635 C606 1.392 . S
C635 C608 1.389 . S
C636 C611 1.395 1_554 S
C636 C613 1.391 . S
H637 C597 0.951 . S
H638 C598 0.950 . S
H639 C604 0.949 . S
H640 C605 0.950 . S
H641 C609 0.951 . S
H642 C610 0.950 . S
H643 C614 0.949 . S
H644 C615 0.950 . S
H645 C619 0.950 . S
H646 C621 0.950 . S
H647 C624 0.950 . S
H648 C626 0.950 . S
C649 C650 1.443 . S
C649 N653 1.376 . S
C649 C687 1.389 . S
C650 C649 1.443 . S
C650 C651 1.340 . S
C650 H690 0.951 . S
C651 C650 1.340 . S
C651 C652 1.439 . S
C651 H691 0.950 . S
C652 C651 1.439 . S
C652 N653 1.374 . S
C652 C686 1.395 . S
N653 C649 1.376 . S
N653 C652 1.374 . S
N653 Co654 2.008 . S
Co654 N653 2.008 . S
Co654 N655 1.995 1_554 S
Co654 N660 2.020 . S
Co654 N665 1.995 . S
Co654 N670 2.282 . S
Co654 N676 2.282 1_554 S
N655 Co654 1.995 1_556 S
N655 C656 1.376 . S
N655 C659 1.383 . S
C656 N655 1.376 . S
C656 C657 1.446 . S
C656 C686 1.391 1_556 S
C657 C656 1.446 . S
C657 C658 1.339 . S
C657 H692 0.949 . S
C658 C657 1.339 . S
C658 C659 1.439 . S
C658 H693 0.950 . S
C659 N655 1.383 . S
C659 C658 1.439 . S
C659 C688 1.392 . S
N660 Co654 2.020 . S
N660 C661 1.361 1_554 S
N660 C664 1.380 . S
C661 N660 1.361 1_556 S
C661 C662 1.443 . S
C661 C688 1.389 . S
C662 C661 1.443 . S
C662 C663 1.340 . S
C662 H694 0.951 . S
C663 C662 1.340 . S
C663 C664 1.439 1_556 S
C663 H695 0.950 . S
C664 N660 1.380 . S
C664 C663 1.439 1_554 S
C664 C689 1.395 . S
N665 Co654 1.995 . S
N665 C666 1.376 . S
N665 C669 1.383 . S
C666 N665 1.376 . S
C666 C667 1.446 . S
C666 C689 1.391 . S
C667 C666 1.446 . S
C667 C668 1.339 . S
C667 H696 0.949 . S
C668 C667 1.339 . S
C668 C669 1.439 . S
C668 H697 0.950 . S
C669 N665 1.383 . S
C669 C668 1.439 . S
C669 C687 1.392 . S
N670 Co654 2.282 . S
N670 C673 1.332 . S
N670 C675 1.332 . S
C671 C672 1.386 . S
C671 C674 1.388 . S
C672 C671 1.386 . S
C672 C673 1.382 . S
C672 H698 0.950 . S
C673 N670 1.332 . S
C673 C672 1.382 . S
C673 H684 0.952 . S
C674 C671 1.388 . S
C674 C675 1.382 . S
C674 H699 0.950 . S
C675 N670 1.332 . S
C675 C674 1.382 . S
C675 H685 0.948 . S
N676 Co654 2.282 1_556 S
N676 C680 1.332 . S
N676 C681 1.332 . S
C677 C678 1.388 . S
C677 C681 1.382 . S
C677 H700 0.950 . S
C678 C677 1.388 . S
C678 C679 1.386 . S
C679 C678 1.386 . S
C679 C680 1.382 . S
C679 H701 0.950 . S
C680 N676 1.332 . S
C680 C679 1.382 . S
C680 H682 0.952 . S
C681 N676 1.332 . S
C681 C677 1.382 . S
C681 H683 0.948 . S
H682 C680 0.952 . S
H683 C681 0.948 . S
H684 C673 0.952 . S
H685 C675 0.948 . S
C686 C652 1.395 . S
C686 C656 1.391 1_554 S
C687 C649 1.389 . S
C687 C669 1.392 . S
C688 C659 1.392 . S
C688 C661 1.389 . S
C689 C664 1.395 . S
C689 C666 1.391 . S
H690 C650 0.951 . S
H691 C651 0.950 . S
H692 C657 0.949 . S
H693 C658 0.950 . S
H694 C662 0.951 . S
H695 C663 0.950 . S
H696 C667 0.949 . S
H697 C668 0.950 . S
H698 C672 0.950 . S
H699 C674 0.950 . S
H700 C677 0.950 . S
H701 C679 0.950 . S
C702 C703 1.443 . S
C702 N706 1.376 1_556 S
C702 C740 1.389 . S
C703 C702 1.443 . S
C703 C704 1.340 1_556 S
C703 H743 0.951 . S
C704 C703 1.340 1_554 S
C704 C705 1.439 . S
C704 H744 0.950 . S
C705 C704 1.439 . S
C705 N706 1.374 . S
C705 C739 1.395 . S
N706 C702 1.376 1_554 S
N706 C705 1.374 . S
N706 Co707 2.008 . S
Co707 N706 2.008 . S
Co707 N708 1.995 . S
Co707 N713 2.008 . S
Co707 N718 2.009 . S
Co707 N723 2.282 1_554 S
Co707 N729 2.282 . S
N708 Co707 1.995 . S
N708 C709 1.376 . S
N708 C712 1.383 . S
C709 N708 1.376 . S
C709 C710 1.446 . S
C709 C739 1.391 . S
C710 C709 1.446 . S
C710 C711 1.339 . S
C710 H745 0.949 . S
C711 C710 1.339 . S
C711 C712 1.439 . S
C711 H746 0.950 . S
C712 N708 1.383 . S
C712 C711 1.439 . S
C712 C741 1.392 . S
N713 Co707 2.008 . S
N713 C714 1.376 . S
N713 C717 1.374 . S
C714 N713 1.376 . S
C714 C715 1.443 . S
C714 C741 1.389 . S
C715 C714 1.443 . S
C715 C716 1.340 . S
C715 H747 0.951 . S
C716 C715 1.340 . S
C716 C717 1.439 . S
C716 H748 0.950 . S
C717 N713 1.374 . S
C717 C716 1.439 . S
C717 C742 1.395 . S
N718 Co707 2.009 . S
N718 C719 1.376 1_554 S
N718 C722 1.369 1_554 S
C719 N718 1.376 1_556 S
C719 C720 1.454 . S
C719 C742 1.384 1_556 S
C720 C719 1.454 . S
C720 C721 1.339 . S
C720 H749 0.949 . S
C721 C720 1.339 . S
C721 C722 1.439 . S
C721 H750 0.950 . S
C722 N718 1.369 1_556 S
C722 C721 1.439 . S
C722 C740 1.392 . S
N723 Co707 2.282 1_556 S
N723 C726 1.332 . S
N723 C728 1.332 . S
C724 C725 1.386 . S
C724 C727 1.388 . S
C725 C724 1.386 . S
C725 C726 1.382 . S
C725 H751 0.950 . S
C726 N723 1.332 . S
C726 C725 1.382 . S
C726 H737 0.952 . S
C727 C724 1.388 . S
C727 C728 1.382 . S
C727 H752 0.950 . S
C728 N723 1.332 . S
C728 C727 1.382 . S
C728 H738 0.952 . S
N729 Co707 2.282 . S
N729 C733 1.332 . S
N729 C734 1.332 . S
C730 C731 1.388 . S
C730 C734 1.382 . S
C730 H753 0.950 . S
C731 C730 1.388 . S
C731 C732 1.386 . S
C732 C731 1.386 . S
C732 C733 1.382 . S
C732 H754 0.950 . S
C733 N729 1.332 . S
C733 C732 1.382 . S
C733 H735 0.952 . S
C734 N729 1.332 . S
C734 C730 1.382 . S
C734 H736 0.948 . S
H735 C733 0.952 . S
H736 C734 0.948 . S
H737 C726 0.952 . S
H738 C728 0.952 . S
C739 C705 1.395 . S
C739 C709 1.391 . S
C740 C702 1.389 . S
C740 C722 1.392 . S
C741 C712 1.392 . S
C741 C714 1.389 . S
C742 C717 1.395 . S
C742 C719 1.384 1_554 S
H743 C703 0.951 . S
H744 C704 0.950 . S
H745 C710 0.949 . S
H746 C711 0.950 . S
H747 C715 0.951 . S
H748 C716 0.950 . S
H749 C720 0.949 . S
H750 C721 0.950 . S
H751 C725 0.950 . S
H752 C727 0.950 . S
H753 C730 0.950 . S
H754 C732 0.950 . S
C755 C756 1.443 . S
C755 N759 1.376 . S
C755 C793 1.389 . S
C756 C755 1.443 . S
C756 C757 1.340 . S
C756 H796 0.951 . S
C757 C756 1.340 . S
C757 C758 1.439 . S
C757 H797 0.950 . S
C758 C757 1.439 . S
C758 N759 1.374 . S
C758 C792 1.395 1_554 S
N759 C755 1.376 . S
N759 C758 1.374 . S
N759 Co760 2.008 . S
Co760 N759 2.008 . S
Co760 N761 1.995 1_554 S
Co760 N766 2.008 1_554 S
Co760 N771 1.995 . S
Co760 N776 2.282 . S
Co760 N782 2.282 1_554 S
N761 Co760 1.995 1_556 S
N761 C762 1.376 . S
N761 C765 1.383 . S
C762 N761 1.376 . S
C762 C763 1.446 . S
C762 C792 1.391 . S
C763 C762 1.446 . S
C763 C764 1.339 . S
C763 H798 0.949 . S
C764 C763 1.339 . S
C764 C765 1.439 . S
C764 H799 0.950 . S
C765 N761 1.383 . S
C765 C764 1.439 . S
C765 C794 1.392 . S
N766 Co760 2.008 1_556 S
N766 C767 1.376 . S
N766 C770 1.374 1_556 S
C767 N766 1.376 . S
C767 C768 1.443 . S
C767 C794 1.389 . S
C768 C767 1.443 . S
C768 C769 1.340 . S
C768 H800 0.951 . S
C769 C768 1.340 . S
C769 C770 1.439 1_556 S
C769 H801 0.950 . S
C770 N766 1.374 1_554 S
C770 C769 1.439 1_554 S
C770 C795 1.395 . S
N771 Co760 1.995 . S
N771 C772 1.376 . S
N771 C775 1.383 . S
C772 N771 1.376 . S
C772 C773 1.446 . S
C772 C795 1.391 . S
C773 C772 1.446 . S
C773 C774 1.339 . S
C773 H802 0.949 . S
C774 C773 1.339 . S
C774 C775 1.439 . S
C774 H803 0.950 . S
C775 N771 1.383 . S
C775 C774 1.439 . S
C775 C793 1.392 . S
N776 Co760 2.282 . S
N776 C779 1.332 . S
N776 C781 1.332 . S
C777 C778 1.386 . S
C777 C780 1.388 . S
C778 C777 1.386 . S
C778 C779 1.382 . S
C778 H804 0.950 . S
C779 N776 1.332 . S
C779 C778 1.382 . S
C779 H790 0.952 . S
C780 C777 1.388 . S
C780 C781 1.382 . S
C780 H805 0.950 . S
C781 N776 1.332 . S
C781 C780 1.382 . S
C781 H791 0.948 . S
N782 Co760 2.282 1_556 S
N782 C786 1.332 . S
N782 C787 1.332 . S
C783 C784 1.388 . S
C783 C787 1.382 . S
C783 H806 0.950 . S
C784 C783 1.388 . S
C784 C785 1.386 . S
C785 C784 1.386 . S
C785 C786 1.382 . S
C785 H807 0.950 . S
C786 N782 1.332 . S
C786 C785 1.382 . S
C786 H788 0.952 . S
C787 N782 1.332 . S
C787 C783 1.382 . S
C787 H789 0.948 . S
H788 C786 0.952 . S
H789 C787 0.948 . S
H790 C779 0.952 . S
H791 C781 0.948 . S
C792 C758 1.395 1_556 S
C792 C762 1.391 . S
C793 C755 1.389 . S
C793 C775 1.392 . S
C794 C765 1.392 . S
C794 C767 1.389 . S
C795 C770 1.395 . S
C795 C772 1.391 . S
H796 C756 0.951 . S
H797 C757 0.950 . S
H798 C763 0.949 . S
H799 C764 0.950 . S
H800 C768 0.951 . S
H801 C769 0.950 . S
H802 C773 0.949 . S
H803 C774 0.950 . S
H804 C778 0.950 . S
H805 C780 0.950 . S
H806 C783 0.950 . S
H807 C785 0.950 . S
H808 C820 0.930 . S
H809 C822 0.930 . S
H810 C823 0.930 . S
H811 C827 0.959 . S
H812 C827 0.959 . S
H813 C827 0.961 . S
H814 C828 0.960 . S
H815 C828 0.961 . S
H816 C828 0.959 . S
H817 C831 0.929 . S
H818 C832 0.931 . S
H819 C834 0.930 . S
C820 H808 0.930 . S
C820 C821 1.399 . S
C820 C825 1.399 . S
C821 C820 1.399 . S
C821 C822 1.376 . S
C822 H809 0.930 . S
C822 C821 1.376 . S
C822 C823 1.388 . S
C823 H810 0.930 . S
C823 C822 1.388 . S
C823 C824 1.390 . S
C824 C823 1.390 . S
C824 C825 1.394 . S
C824 C830 1.465 . S
C825 C820 1.399 . S
C825 C824 1.394 . S
C825 C826 1.516 . S
C826 C825 1.516 . S
C826 C827 1.502 . S
C826 C828 1.561 . S
C826 C829 1.526 . S
C827 H811 0.959 . S
C827 H812 0.959 . S
C827 H813 0.961 . S
C827 C826 1.502 . S
C828 H814 0.960 . S
C828 H815 0.961 . S
C828 H816 0.959 . S
C828 C826 1.561 . S
C829 C826 1.526 . S
C829 C830 1.396 . S
C829 C834 1.390 . S
C830 C824 1.465 . S
C830 C829 1.396 . S
C830 C831 1.399 . S
C831 H817 0.929 . S
C831 C830 1.399 . S
C831 C832 1.385 . S
C832 H818 0.931 . S
C832 C831 1.385 . S
C832 C833 1.389 . S
C833 C832 1.389 . S
C833 C834 1.387 . S
C834 H819 0.930 . S
C834 C829 1.390 . S
C834 C833 1.387 . S
H835 C847 0.930 . S
H836 C849 0.930 . S
H837 C850 0.930 . S
H838 C854 0.959 . S
H839 C854 0.959 . S
H840 C854 0.961 . S
H841 C855 0.960 . S
H842 C855 0.961 . S
H843 C855 0.959 . S
H844 C858 0.929 . S
H845 C859 0.931 . S
H846 C861 0.930 . S
C847 H835 0.930 . S
C847 C848 1.399 . S
C847 C852 1.399 . S
C848 C847 1.399 . S
C848 C849 1.376 . S
C849 H836 0.930 . S
C849 C848 1.376 . S
C849 C850 1.388 . S
C850 H837 0.930 . S
C850 C849 1.388 . S
C850 C851 1.390 . S
C851 C850 1.390 . S
C851 C852 1.394 . S
C851 C857 1.465 . S
C852 C847 1.399 . S
C852 C851 1.394 . S
C852 C853 1.516 . S
C853 C852 1.516 . S
C853 C854 1.502 . S
C853 C855 1.561 . S
C853 C856 1.526 . S
C854 H838 0.959 . S
C854 H839 0.959 . S
C854 H840 0.961 . S
C854 C853 1.502 . S
C855 H841 0.960 . S
C855 H842 0.961 . S
C855 H843 0.959 . S
C855 C853 1.561 . S
C856 C853 1.526 . S
C856 C857 1.396 . S
C856 C861 1.390 . S
C857 C851 1.465 . S
C857 C856 1.396 . S
C857 C858 1.399 . S
C858 H844 0.929 . S
C858 C857 1.399 . S
C858 C859 1.385 . S
C859 H845 0.931 . S
C859 C858 1.385 . S
C859 C860 1.389 . S
C860 C859 1.389 . S
C860 C861 1.387 . S
C861 H846 0.930 . S
C861 C856 1.390 . S
C861 C860 1.387 . S
H862 C874 0.930 . S
H863 C876 0.930 . S
H864 C877 0.930 . S
H865 C881 0.959 . S
H866 C881 0.959 . S
H867 C881 0.961 . S
H868 C882 0.960 . S
H869 C882 0.961 . S
H870 C882 0.959 . S
H871 C885 0.929 . S
H872 C886 0.931 . S
H873 C888 0.930 . S
C874 H862 0.930 . S
C874 C875 1.399 . S
C874 C879 1.399 . S
C875 C874 1.399 . S
C875 C876 1.376 . S
C876 H863 0.930 . S
C876 C875 1.376 . S
C876 C877 1.388 . S
C877 H864 0.930 . S
C877 C876 1.388 . S
C877 C878 1.390 . S
C878 C877 1.390 . S
C878 C879 1.394 . S
C878 C884 1.465 . S
C879 C874 1.399 . S
C879 C878 1.394 . S
C879 C880 1.516 . S
C880 C879 1.516 . S
C880 C881 1.502 . S
C880 C882 1.561 . S
C880 C883 1.526 . S
C881 H865 0.959 . S
C881 H866 0.959 . S
C881 H867 0.961 . S
C881 C880 1.502 . S
C882 H868 0.960 . S
C882 H869 0.961 . S
C882 H870 0.959 . S
C882 C880 1.561 . S
C883 C880 1.526 . S
C883 C884 1.396 . S
C883 C888 1.390 . S
C884 C878 1.465 . S
C884 C883 1.396 . S
C884 C885 1.399 . S
C885 H871 0.929 . S
C885 C884 1.399 . S
C885 C886 1.385 . S
C886 H872 0.931 . S
C886 C885 1.385 . S
C886 C887 1.389 . S
C887 C886 1.389 . S
C887 C888 1.387 . S
C888 H873 0.930 . S
C888 C883 1.390 . S
C888 C887 1.387 . S
H889 C901 0.930 . S
H890 C903 0.930 . S
H891 C904 0.930 . S
H892 C908 0.959 . S
H893 C908 0.959 . S
H894 C908 0.961 . S
H895 C909 0.960 . S
H896 C909 0.961 . S
H897 C909 0.959 . S
H898 C912 0.929 . S
H899 C913 0.931 . S
H900 C915 0.930 . S
C901 H889 0.930 . S
C901 C902 1.399 . S
C901 C906 1.399 . S
C902 C901 1.399 . S
C902 C903 1.376 . S
C903 H890 0.930 . S
C903 C902 1.376 . S
C903 C904 1.388 . S
C904 H891 0.930 . S
C904 C903 1.388 . S
C904 C905 1.390 . S
C905 C904 1.390 . S
C905 C906 1.394 . S
C905 C911 1.465 . S
C906 C901 1.399 . S
C906 C905 1.394 . S
C906 C907 1.516 . S
C907 C906 1.516 . S
C907 C908 1.502 . S
C907 C909 1.561 . S
C907 C910 1.526 . S
C908 H892 0.959 . S
C908 H893 0.959 . S
C908 H894 0.961 . S
C908 C907 1.502 . S
C909 H895 0.960 . S
C909 H896 0.961 . S
C909 H897 0.959 . S
C909 C907 1.561 . S
C910 C907 1.526 . S
C910 C911 1.396 . S
C910 C915 1.390 . S
C911 C905 1.465 . S
C911 C910 1.396 . S
C911 C912 1.399 . S
C912 H898 0.929 . S
C912 C911 1.399 . S
C912 C913 1.385 . S
C913 H899 0.931 . S
C913 C912 1.385 . S
C913 C914 1.389 . S
C914 C913 1.389 . S
C914 C915 1.387 . S
C915 H900 0.930 . S
C915 C910 1.390 . S
C915 C914 1.387 . S
H916 C928 0.930 . S
H917 C930 0.930 . S
H918 C931 0.930 . S
H919 C935 0.959 . S
H920 C935 0.959 . S
H921 C935 0.961 . S
H922 C936 0.960 . S
H923 C936 0.961 . S
H924 C936 0.959 . S
H925 C939 0.929 . S
H926 C940 0.931 . S
H927 C942 0.930 . S
C928 H916 0.930 . S
C928 C929 1.399 . S
C928 C933 1.399 . S
C929 C928 1.399 . S
C929 C930 1.376 . S
C930 H917 0.930 . S
C930 C929 1.376 . S
C930 C931 1.388 . S
C931 H918 0.930 . S
C931 C930 1.388 . S
C931 C932 1.390 . S
C932 C931 1.390 . S
C932 C933 1.394 . S
C932 C938 1.465 . S
C933 C928 1.399 . S
C933 C932 1.394 . S
C933 C934 1.516 . S
C934 C933 1.516 . S
C934 C935 1.502 . S
C934 C936 1.561 . S
C934 C937 1.526 . S
C935 H919 0.959 . S
C935 H920 0.959 . S
C935 H921 0.961 . S
C935 C934 1.502 . S
C936 H922 0.960 . S
C936 H923 0.961 . S
C936 H924 0.959 . S
C936 C934 1.561 . S
C937 C934 1.526 . S
C937 C938 1.396 . S
C937 C942 1.390 . S
C938 C932 1.465 . S
C938 C937 1.396 . S
C938 C939 1.399 . S
C939 H925 0.929 . S
C939 C938 1.399 . S
C939 C940 1.385 . S
C940 H926 0.931 . S
C940 C939 1.385 . S
C940 C941 1.389 . S
C941 C940 1.389 . S
C941 C942 1.387 . S
C942 H927 0.930 . S
C942 C937 1.390 . S
C942 C941 1.387 . S
H943 C955 0.930 . S
H944 C957 0.930 . S
H945 C958 0.930 . S
H946 C962 0.959 . S
H947 C962 0.959 . S
H948 C962 0.961 . S
H949 C963 0.960 . S
H950 C963 0.961 . S
H951 C963 0.959 . S
H952 C966 0.929 . S
H953 C967 0.931 . S
H954 C969 0.930 . S
C955 H943 0.930 . S
C955 C956 1.399 . S
C955 C960 1.399 . S
C956 C955 1.399 . S
C956 C957 1.376 . S
C957 H944 0.930 . S
C957 C956 1.376 . S
C957 C958 1.388 . S
C958 H945 0.930 . S
C958 C957 1.388 . S
C958 C959 1.390 . S
C959 C958 1.390 . S
C959 C960 1.394 . S
C959 C965 1.465 . S
C960 C955 1.399 . S
C960 C959 1.394 . S
C960 C961 1.516 . S
C961 C960 1.516 . S
C961 C962 1.502 . S
C961 C963 1.561 . S
C961 C964 1.526 . S
C962 H946 0.959 . S
C962 H947 0.959 . S
C962 H948 0.961 . S
C962 C961 1.502 . S
C963 H949 0.960 . S
C963 H950 0.961 . S
C963 H951 0.959 . S
C963 C961 1.561 . S
C964 C961 1.526 . S
C964 C965 1.396 . S
C964 C969 1.390 . S
C965 C959 1.465 . S
C965 C964 1.396 . S
C965 C966 1.399 . S
C966 H952 0.929 . S
C966 C965 1.399 . S
C966 C967 1.385 . S
C967 H953 0.931 . S
C967 C966 1.385 . S
C967 C968 1.389 . S
C968 C967 1.389 . S
C968 C969 1.387 . S
C969 H954 0.930 . S
C969 C964 1.390 . S
C969 C968 1.387 . S
H970 C982 0.930 . S
H971 C984 0.930 . S
H972 C985 0.930 . S
H973 C989 0.959 . S
H974 C989 0.959 . S
H975 C989 0.961 . S
H976 C990 0.960 . S
H977 C990 0.961 . S
H978 C990 0.959 . S
H979 C993 0.929 . S
H980 C994 0.931 . S
H981 C996 0.930 . S
C982 H970 0.930 . S
C982 C983 1.399 . S
C982 C987 1.399 . S
C983 C982 1.399 . S
C983 C984 1.376 . S
C984 H971 0.930 . S
C984 C983 1.376 . S
C984 C985 1.388 . S
C985 H972 0.930 . S
C985 C984 1.388 . S
C985 C986 1.390 . S
C986 C985 1.390 . S
C986 C987 1.394 . S
C986 C992 1.465 . S
C987 C982 1.399 . S
C987 C986 1.394 . S
C987 C988 1.516 . S
C988 C987 1.516 . S
C988 C989 1.502 . S
C988 C990 1.561 . S
C988 C991 1.526 . S
C989 H973 0.959 . S
C989 H974 0.959 . S
C989 H975 0.961 . S
C989 C988 1.502 . S
C990 H976 0.960 . S
C990 H977 0.961 . S
C990 H978 0.959 . S
C990 C988 1.561 . S
C991 C988 1.526 . S
C991 C992 1.396 . S
C991 C996 1.390 . S
C992 C986 1.465 . S
C992 C991 1.396 . S
C992 C993 1.399 . S
C993 H979 0.929 . S
C993 C992 1.399 . S
C993 C994 1.385 . S
C994 H980 0.931 . S
C994 C993 1.385 . S
C994 C995 1.389 . S
C995 C994 1.389 . S
C995 C996 1.387 . S
C996 H981 0.930 . S
C996 C991 1.390 . S
C996 C995 1.387 . S
H997 C1009 0.930 . S
H998 C1011 0.930 . S
H999 C1012 0.930 . S
H1000 C1016 0.959 . S
H1001 C1016 0.959 . S
H1002 C1016 0.961 . S
H1003 C1017 0.960 . S
H1004 C1017 0.961 . S
H1005 C1017 0.959 . S
H1006 C1020 0.929 . S
H1007 C1021 0.931 . S
H1008 C1023 0.930 . S
C1009 H997 0.930 . S
C1009 C1010 1.399 . S
C1009 C1014 1.399 . S
C1010 C1009 1.399 . S
C1010 C1011 1.376 . S
C1011 H998 0.930 . S
C1011 C1010 1.376 . S
C1011 C1012 1.388 . S
C1012 H999 0.930 . S
C1012 C1011 1.388 . S
C1012 C1013 1.390 . S
C1013 C1012 1.390 . S
C1013 C1014 1.394 . S
C1013 C1019 1.465 . S
C1014 C1009 1.399 . S
C1014 C1013 1.394 . S
C1014 C1015 1.516 . S
C1015 C1014 1.516 . S
C1015 C1016 1.502 . S
C1015 C1017 1.561 . S
C1015 C1018 1.526 . S
C1016 H1000 0.959 . S
C1016 H1001 0.959 . S
C1016 H1002 0.961 . S
C1016 C1015 1.502 . S
C1017 H1003 0.960 . S
C1017 H1004 0.961 . S
C1017 H1005 0.959 . S
C1017 C1015 1.561 . S
C1018 C1015 1.526 . S
C1018 C1019 1.396 . S
C1018 C1023 1.390 . S
C1019 C1013 1.465 . S
C1019 C1018 1.396 . S
C1019 C1020 1.399 . S
C1020 H1006 0.929 . S
C1020 C1019 1.399 . S
C1020 C1021 1.385 . S
C1021 H1007 0.931 . S
C1021 C1020 1.385 . S
C1021 C1022 1.389 . S
C1022 C1021 1.389 . S
C1022 C1023 1.387 . S
C1023 H1008 0.930 . S
C1023 C1018 1.390 . S
C1023 C1022 1.387 . S
H1024 C1036 0.930 . S
H1025 C1038 0.930 . S
H1026 C1039 0.930 . S
H1027 C1043 0.959 . S
H1028 C1043 0.959 . S
H1029 C1043 0.961 . S
H1030 C1044 0.960 . S
H1031 C1044 0.961 . S
H1032 C1044 0.959 . S
H1033 C1047 0.929 . S
H1034 C1048 0.931 . S
H1035 C1050 0.930 . S
C1036 H1024 0.930 . S
C1036 C1037 1.399 . S
C1036 C1041 1.399 . S
C1037 C1036 1.399 . S
C1037 C1038 1.376 . S
C1038 H1025 0.930 . S
C1038 C1037 1.376 . S
C1038 C1039 1.388 . S
C1039 H1026 0.930 . S
C1039 C1038 1.388 . S
C1039 C1040 1.390 . S
C1040 C1039 1.390 . S
C1040 C1041 1.394 . S
C1040 C1046 1.465 . S
C1041 C1036 1.399 . S
C1041 C1040 1.394 . S
C1041 C1042 1.516 . S
C1042 C1041 1.516 . S
C1042 C1043 1.502 . S
C1042 C1044 1.561 . S
C1042 C1045 1.526 . S
C1043 H1027 0.959 . S
C1043 H1028 0.959 . S
C1043 H1029 0.961 . S
C1043 C1042 1.502 . S
C1044 H1030 0.960 . S
C1044 H1031 0.961 . S
C1044 H1032 0.959 . S
C1044 C1042 1.561 . S
C1045 C1042 1.526 . S
C1045 C1046 1.396 . S
C1045 C1050 1.390 . S
C1046 C1040 1.465 . S
C1046 C1045 1.396 . S
C1046 C1047 1.399 . S
C1047 H1033 0.929 . S
C1047 C1046 1.399 . S
C1047 C1048 1.385 . S
C1048 H1034 0.931 . S
C1048 C1047 1.385 . S
C1048 C1049 1.389 . S
C1049 C1048 1.389 . S
C1049 C1050 1.387 . S
C1050 H1035 0.930 . S
C1050 C1045 1.390 . S
C1050 C1049 1.387 . S
H1051 C1063 0.930 . S
H1052 C1065 0.930 . S
H1053 C1066 0.930 . S
H1054 C1070 0.959 . S
H1055 C1070 0.959 . S
H1056 C1070 0.961 . S
H1057 C1071 0.960 . S
H1058 C1071 0.961 . S
H1059 C1071 0.959 . S
H1060 C1074 0.929 . S
H1061 C1075 0.931 . S
H1062 C1077 0.930 . S
C1063 H1051 0.930 . S
C1063 C1064 1.399 . S
C1063 C1068 1.399 . S
C1064 C1063 1.399 . S
C1064 C1065 1.376 . S
C1065 H1052 0.930 . S
C1065 C1064 1.376 . S
C1065 C1066 1.388 . S
C1066 H1053 0.930 . S
C1066 C1065 1.388 . S
C1066 C1067 1.390 . S
C1067 C1066 1.390 . S
C1067 C1068 1.394 . S
C1067 C1073 1.465 . S
C1068 C1063 1.399 . S
C1068 C1067 1.394 . S
C1068 C1069 1.516 . S
C1069 C1068 1.516 . S
C1069 C1070 1.502 . S
C1069 C1071 1.561 . S
C1069 C1072 1.526 . S
C1070 H1054 0.959 . S
C1070 H1055 0.959 . S
C1070 H1056 0.961 . S
C1070 C1069 1.502 . S
C1071 H1057 0.960 . S
C1071 H1058 0.961 . S
C1071 H1059 0.959 . S
C1071 C1069 1.561 . S
C1072 C1069 1.526 . S
C1072 C1073 1.396 . S
C1072 C1077 1.390 . S
C1073 C1067 1.465 . S
C1073 C1072 1.396 . S
C1073 C1074 1.399 . S
C1074 H1060 0.929 . S
C1074 C1073 1.399 . S
C1074 C1075 1.385 . S
C1075 H1061 0.931 . S
C1075 C1074 1.385 . S
C1075 C1076 1.389 . S
C1076 C1075 1.389 . S
C1076 C1077 1.387 . S
C1077 H1062 0.930 . S
C1077 C1072 1.390 . S
C1077 C1076 1.387 . S
H1078 C1090 0.930 . S
H1079 C1092 0.930 . S
H1080 C1093 0.930 . S
H1081 C1097 0.959 . S
H1082 C1097 0.959 . S
H1083 C1097 0.961 . S
H1084 C1098 0.960 . S
H1085 C1098 0.961 . S
H1086 C1098 0.959 . S
H1087 C1101 0.929 . S
H1088 C1102 0.931 . S
H1089 C1104 0.930 . S
C1090 H1078 0.930 . S
C1090 C1091 1.399 . S
C1090 C1095 1.399 . S
C1091 C1090 1.399 . S
C1091 C1092 1.376 . S
C1092 H1079 0.930 . S
C1092 C1091 1.376 . S
C1092 C1093 1.388 . S
C1093 H1080 0.930 . S
C1093 C1092 1.388 . S
C1093 C1094 1.390 . S
C1094 C1093 1.390 . S
C1094 C1095 1.394 . S
C1094 C1100 1.465 . S
C1095 C1090 1.399 . S
C1095 C1094 1.394 . S
C1095 C1096 1.516 . S
C1096 C1095 1.516 . S
C1096 C1097 1.502 . S
C1096 C1098 1.561 . S
C1096 C1099 1.526 . S
C1097 H1081 0.959 . S
C1097 H1082 0.959 . S
C1097 H1083 0.961 . S
C1097 C1096 1.502 . S
C1098 H1084 0.960 . S
C1098 H1085 0.961 . S
C1098 H1086 0.959 . S
C1098 C1096 1.561 . S
C1099 C1096 1.526 . S
C1099 C1100 1.396 . S
C1099 C1104 1.390 . S
C1100 C1094 1.465 . S
C1100 C1099 1.396 . S
C1100 C1101 1.399 . S
C1101 H1087 0.929 . S
C1101 C1100 1.399 . S
C1101 C1102 1.385 . S
C1102 H1088 0.931 . S
C1102 C1101 1.385 . S
C1102 C1103 1.389 . S
C1103 C1102 1.389 . S
C1103 C1104 1.387 . S
C1104 H1089 0.930 . S
C1104 C1099 1.390 . S
C1104 C1103 1.387 . S
H1105 C1117 0.930 . S
H1106 C1119 0.930 . S
H1107 C1120 0.930 . S
H1108 C1124 0.959 . S
H1109 C1124 0.959 . S
H1110 C1124 0.961 . S
H1111 C1125 0.960 . S
H1112 C1125 0.961 . S
H1113 C1125 0.959 . S
H1114 C1128 0.929 . S
H1115 C1129 0.931 . S
H1116 C1131 0.930 . S
C1117 H1105 0.930 . S
C1117 C1118 1.399 . S
C1117 C1122 1.399 . S
C1118 C1117 1.399 . S
C1118 C1119 1.376 . S
C1119 H1106 0.930 . S
C1119 C1118 1.376 . S
C1119 C1120 1.388 . S
C1120 H1107 0.930 . S
C1120 C1119 1.388 . S
C1120 C1121 1.390 . S
C1121 C1120 1.390 . S
C1121 C1122 1.394 . S
C1121 C1127 1.465 . S
C1122 C1117 1.399 . S
C1122 C1121 1.394 . S
C1122 C1123 1.516 . S
C1123 C1122 1.516 . S
C1123 C1124 1.502 . S
C1123 C1125 1.561 . S
C1123 C1126 1.526 . S
C1124 H1108 0.959 . S
C1124 H1109 0.959 . S
C1124 H1110 0.961 . S
C1124 C1123 1.502 . S
C1125 H1111 0.960 . S
C1125 H1112 0.961 . S
C1125 H1113 0.959 . S
C1125 C1123 1.561 . S
C1126 C1123 1.526 . S
C1126 C1127 1.396 . S
C1126 C1131 1.390 . S
C1127 C1121 1.465 . S
C1127 C1126 1.396 . S
C1127 C1128 1.399 . S
C1128 H1114 0.929 . S
C1128 C1127 1.399 . S
C1128 C1129 1.385 . S
C1129 H1115 0.931 . S
C1129 C1128 1.385 . S
C1129 C1130 1.389 . S
C1130 C1129 1.389 . S
C1130 C1131 1.387 . S
C1131 H1116 0.930 . S
C1131 C1126 1.390 . S
C1131 C1130 1.387 . S
H1132 C1144 0.930 . S
H1133 C1146 0.930 . S
H1134 C1147 0.930 . S
H1135 C1151 0.959 . S
H1136 C1151 0.959 . S
H1137 C1151 0.961 . S
H1138 C1152 0.960 . S
H1139 C1152 0.961 . S
H1140 C1152 0.959 . S
H1141 C1155 0.929 . S
H1142 C1156 0.931 . S
H1143 C1158 0.930 . S
C1144 H1132 0.930 . S
C1144 C1145 1.399 . S
C1144 C1149 1.399 . S
C1145 C1144 1.399 . S
C1145 C1146 1.376 . S
C1146 H1133 0.930 . S
C1146 C1145 1.376 . S
C1146 C1147 1.388 . S
C1147 H1134 0.930 . S
C1147 C1146 1.388 . S
C1147 C1148 1.390 . S
C1148 C1147 1.390 . S
C1148 C1149 1.394 . S
C1148 C1154 1.465 . S
C1149 C1144 1.399 . S
C1149 C1148 1.394 . S
C1149 C1150 1.516 . S
C1150 C1149 1.516 . S
C1150 C1151 1.502 . S
C1150 C1152 1.561 . S
C1150 C1153 1.526 . S
C1151 H1135 0.959 . S
C1151 H1136 0.959 . S
C1151 H1137 0.961 . S
C1151 C1150 1.502 . S
C1152 H1138 0.960 . S
C1152 H1139 0.961 . S
C1152 H1140 0.959 . S
C1152 C1150 1.561 . S
C1153 C1150 1.526 . S
C1153 C1154 1.396 . S
C1153 C1158 1.390 . S
C1154 C1148 1.465 . S
C1154 C1153 1.396 . S
C1154 C1155 1.399 . S
C1155 H1141 0.929 . S
C1155 C1154 1.399 . S
C1155 C1156 1.385 . S
C1156 H1142 0.931 . S
C1156 C1155 1.385 . S
C1156 C1157 1.389 . S
C1157 C1156 1.389 . S
C1157 C1158 1.387 . S
C1158 H1143 0.930 . S
C1158 C1153 1.390 . S
C1158 C1157 1.387 . S
H1159 C1171 0.930 . S
H1160 C1173 0.930 . S
H1161 C1174 0.930 . S
H1162 C1178 0.959 . S
H1163 C1178 0.959 . S
H1164 C1178 0.961 . S
H1165 C1179 0.960 . S
H1166 C1179 0.961 . S
H1167 C1179 0.959 . S
H1168 C1182 0.929 . S
H1169 C1183 0.931 . S
H1170 C1185 0.930 . S
C1171 H1159 0.930 . S
C1171 C1172 1.399 . S
C1171 C1176 1.399 . S
C1172 C1171 1.399 . S
C1172 C1173 1.376 . S
C1173 H1160 0.930 . S
C1173 C1172 1.376 . S
C1173 C1174 1.388 . S
C1174 H1161 0.930 . S
C1174 C1173 1.388 . S
C1174 C1175 1.390 . S
C1175 C1174 1.390 . S
C1175 C1176 1.394 . S
C1175 C1181 1.465 . S
C1176 C1171 1.399 . S
C1176 C1175 1.394 . S
C1176 C1177 1.516 . S
C1177 C1176 1.516 . S
C1177 C1178 1.502 . S
C1177 C1179 1.561 . S
C1177 C1180 1.526 . S
C1178 H1162 0.959 . S
C1178 H1163 0.959 . S
C1178 H1164 0.961 . S
C1178 C1177 1.502 . S
C1179 H1165 0.960 . S
C1179 H1166 0.961 . S
C1179 H1167 0.959 . S
C1179 C1177 1.561 . S
C1180 C1177 1.526 . S
C1180 C1181 1.396 . S
C1180 C1185 1.390 . S
C1181 C1175 1.465 . S
C1181 C1180 1.396 . S
C1181 C1182 1.399 . S
C1182 H1168 0.929 . S
C1182 C1181 1.399 . S
C1182 C1183 1.385 . S
C1183 H1169 0.931 . S
C1183 C1182 1.385 . S
C1183 C1184 1.389 . S
C1184 C1183 1.389 . S
C1184 C1185 1.387 . S
C1185 H1170 0.930 . S
C1185 C1180 1.390 . S
C1185 C1184 1.387 . S
H1186 C1198 0.930 . S
H1187 C1200 0.930 . S
H1188 C1201 0.930 . S
H1189 C1205 0.959 . S
H1190 C1205 0.959 . S
H1191 C1205 0.961 . S
H1192 C1206 0.960 . S
H1193 C1206 0.961 . S
H1194 C1206 0.959 . S
H1195 C1209 0.929 . S
H1196 C1210 0.931 . S
H1197 C1212 0.930 . S
C1198 H1186 0.930 . S
C1198 C1199 1.399 . S
C1198 C1203 1.399 . S
C1199 C1198 1.399 . S
C1199 C1200 1.376 . S
C1200 H1187 0.930 . S
C1200 C1199 1.376 . S
C1200 C1201 1.388 . S
C1201 H1188 0.930 . S
C1201 C1200 1.388 . S
C1201 C1202 1.390 . S
C1202 C1201 1.390 . S
C1202 C1203 1.394 . S
C1202 C1208 1.465 . S
C1203 C1198 1.399 . S
C1203 C1202 1.394 . S
C1203 C1204 1.516 . S
C1204 C1203 1.516 . S
C1204 C1205 1.502 . S
C1204 C1206 1.561 . S
C1204 C1207 1.526 . S
C1205 H1189 0.959 . S
C1205 H1190 0.959 . S
C1205 H1191 0.961 . S
C1205 C1204 1.502 . S
C1206 H1192 0.960 . S
C1206 H1193 0.961 . S
C1206 H1194 0.959 . S
C1206 C1204 1.561 . S
C1207 C1204 1.526 . S
C1207 C1208 1.396 . S
C1207 C1212 1.390 . S
C1208 C1202 1.465 . S
C1208 C1207 1.396 . S
C1208 C1209 1.399 . S
C1209 H1195 0.929 . S
C1209 C1208 1.399 . S
C1209 C1210 1.385 . S
C1210 H1196 0.931 . S
C1210 C1209 1.385 . S
C1210 C1211 1.389 . S
C1211 C1210 1.389 . S
C1211 C1212 1.387 . S
C1212 H1197 0.930 . S
C1212 C1207 1.390 . S
C1212 C1211 1.387 . S
H1213 C1225 0.930 . S
H1214 C1227 0.930 . S
H1215 C1228 0.930 . S
H1216 C1232 0.959 . S
H1217 C1232 0.959 . S
H1218 C1232 0.961 . S
H1219 C1233 0.960 . S
H1220 C1233 0.961 . S
H1221 C1233 0.959 . S
H1222 C1236 0.929 . S
H1223 C1237 0.931 . S
H1224 C1239 0.930 . S
C1225 H1213 0.930 . S
C1225 C1226 1.399 . S
C1225 C1230 1.399 . S
C1226 C1225 1.399 . S
C1226 C1227 1.376 . S
C1227 H1214 0.930 . S
C1227 C1226 1.376 . S
C1227 C1228 1.388 . S
C1228 H1215 0.930 . S
C1228 C1227 1.388 . S
C1228 C1229 1.390 . S
C1229 C1228 1.390 . S
C1229 C1230 1.394 . S
C1229 C1235 1.465 . S
C1230 C1225 1.399 . S
C1230 C1229 1.394 . S
C1230 C1231 1.516 . S
C1231 C1230 1.516 . S
C1231 C1232 1.502 . S
C1231 C1233 1.561 . S
C1231 C1234 1.526 . S
C1232 H1216 0.959 . S
C1232 H1217 0.959 . S
C1232 H1218 0.961 . S
C1232 C1231 1.502 . S
C1233 H1219 0.960 . S
C1233 H1220 0.961 . S
C1233 H1221 0.959 . S
C1233 C1231 1.561 . S
C1234 C1231 1.526 . S
C1234 C1235 1.396 . S
C1234 C1239 1.390 . S
C1235 C1229 1.465 . S
C1235 C1234 1.396 . S
C1235 C1236 1.399 . S
C1236 H1222 0.929 . S
C1236 C1235 1.399 . S
C1236 C1237 1.385 . S
C1237 H1223 0.931 . S
C1237 C1236 1.385 . S
C1237 C1238 1.389 . S
C1238 C1237 1.389 . S
C1238 C1239 1.387 . S
C1239 H1224 0.930 . S
C1239 C1234 1.390 . S
C1239 C1238 1.387 . S
H1240 C1252 0.930 . S
H1241 C1254 0.930 . S
H1242 C1255 0.930 . S
H1243 C1259 0.959 . S
H1244 C1259 0.959 . S
H1245 C1259 0.961 . S
H1246 C1260 0.960 . S
H1247 C1260 0.961 . S
H1248 C1260 0.959 . S
H1249 C1263 0.929 . S
H1250 C1264 0.931 . S
H1251 C1266 0.930 . S
C1252 H1240 0.930 . S
C1252 C1253 1.399 . S
C1252 C1257 1.399 . S
C1253 C1252 1.399 . S
C1253 C1254 1.376 . S
C1254 H1241 0.930 . S
C1254 C1253 1.376 . S
C1254 C1255 1.388 . S
C1255 H1242 0.930 . S
C1255 C1254 1.388 . S
C1255 C1256 1.390 . S
C1256 C1255 1.390 . S
C1256 C1257 1.394 . S
C1256 C1262 1.465 . S
C1257 C1252 1.399 . S
C1257 C1256 1.394 . S
C1257 C1258 1.516 . S
C1258 C1257 1.516 . S
C1258 C1259 1.502 . S
C1258 C1260 1.561 . S
C1258 C1261 1.526 . S
C1259 H1243 0.959 . S
C1259 H1244 0.959 . S
C1259 H1245 0.961 . S
C1259 C1258 1.502 . S
C1260 H1246 0.960 . S
C1260 H1247 0.961 . S
C1260 H1248 0.959 . S
C1260 C1258 1.561 . S
C1261 C1258 1.526 . S
C1261 C1262 1.396 . S
C1261 C1266 1.390 . S
C1262 C1256 1.465 . S
C1262 C1261 1.396 . S
C1262 C1263 1.399 . S
C1263 H1249 0.929 . S
C1263 C1262 1.399 . S
C1263 C1264 1.385 . S
C1264 H1250 0.931 . S
C1264 C1263 1.385 . S
C1264 C1265 1.389 . S
C1265 C1264 1.389 . S
C1265 C1266 1.387 . S
C1266 H1251 0.930 . S
C1266 C1261 1.390 . S
C1266 C1265 1.387 . S
H1267 C1279 0.930 . S
H1268 C1281 0.930 . S
H1269 C1282 0.930 . S
H1270 C1286 0.959 . S
H1271 C1286 0.959 . S
H1272 C1286 0.961 . S
H1273 C1287 0.960 . S
H1274 C1287 0.961 . S
H1275 C1287 0.959 . S
H1276 C1290 0.929 . S
H1277 C1291 0.931 . S
H1278 C1293 0.930 . S
C1279 H1267 0.930 . S
C1279 C1280 1.399 . S
C1279 C1284 1.399 . S
C1280 C1279 1.399 . S
C1280 C1281 1.376 . S
C1281 H1268 0.930 . S
C1281 C1280 1.376 . S
C1281 C1282 1.388 . S
C1282 H1269 0.930 . S
C1282 C1281 1.388 . S
C1282 C1283 1.390 . S
C1283 C1282 1.390 . S
C1283 C1284 1.394 . S
C1283 C1289 1.465 . S
C1284 C1279 1.399 . S
C1284 C1283 1.394 . S
C1284 C1285 1.516 . S
C1285 C1284 1.516 . S
C1285 C1286 1.502 . S
C1285 C1287 1.561 . S
C1285 C1288 1.526 . S
C1286 H1270 0.959 . S
C1286 H1271 0.959 . S
C1286 H1272 0.961 . S
C1286 C1285 1.502 . S
C1287 H1273 0.960 . S
C1287 H1274 0.961 . S
C1287 H1275 0.959 . S
C1287 C1285 1.561 . S
C1288 C1285 1.526 . S
C1288 C1289 1.396 . S
C1288 C1293 1.390 . S
C1289 C1283 1.465 . S
C1289 C1288 1.396 . S
C1289 C1290 1.399 . S
C1290 H1276 0.929 . S
C1290 C1289 1.399 . S
C1290 C1291 1.385 . S
C1291 H1277 0.931 . S
C1291 C1290 1.385 . S
C1291 C1292 1.389 . S
C1292 C1291 1.389 . S
C1292 C1293 1.387 . S
C1293 H1278 0.930 . S
C1293 C1288 1.390 . S
C1293 C1292 1.387 . S
H1294 C1306 0.930 . S
H1295 C1308 0.930 . S
H1296 C1309 0.930 . S
H1297 C1313 0.959 . S
H1298 C1313 0.959 . S
H1299 C1313 0.961 . S
H1300 C1314 0.960 . S
H1301 C1314 0.961 . S
H1302 C1314 0.959 . S
H1303 C1317 0.929 . S
H1304 C1318 0.931 . S
H1305 C1320 0.930 . S
C1306 H1294 0.930 . S
C1306 C1307 1.399 . S
C1306 C1311 1.399 . S
C1307 C1306 1.399 . S
C1307 C1308 1.376 . S
C1308 H1295 0.930 . S
C1308 C1307 1.376 . S
C1308 C1309 1.388 . S
C1309 H1296 0.930 . S
C1309 C1308 1.388 . S
C1309 C1310 1.390 . S
C1310 C1309 1.390 . S
C1310 C1311 1.394 . S
C1310 C1316 1.465 . S
C1311 C1306 1.399 . S
C1311 C1310 1.394 . S
C1311 C1312 1.516 . S
C1312 C1311 1.516 . S
C1312 C1313 1.502 . S
C1312 C1314 1.561 . S
C1312 C1315 1.526 . S
C1313 H1297 0.959 . S
C1313 H1298 0.959 . S
C1313 H1299 0.961 . S
C1313 C1312 1.502 . S
C1314 H1300 0.960 . S
C1314 H1301 0.961 . S
C1314 H1302 0.959 . S
C1314 C1312 1.561 . S
C1315 C1312 1.526 . S
C1315 C1316 1.396 . S
C1315 C1320 1.390 . S
C1316 C1310 1.465 . S
C1316 C1315 1.396 . S
C1316 C1317 1.399 . S
C1317 H1303 0.929 . S
C1317 C1316 1.399 . S
C1317 C1318 1.385 . S
C1318 H1304 0.931 . S
C1318 C1317 1.385 . S
C1318 C1319 1.389 . S
C1319 C1318 1.389 . S
C1319 C1320 1.387 . S
C1320 H1305 0.930 . S
C1320 C1315 1.390 . S
C1320 C1319 1.387 . S
H1321 C1333 0.930 . S
H1322 C1335 0.930 . S
H1323 C1336 0.930 . S
H1324 C1340 0.959 . S
H1325 C1340 0.959 . S
H1326 C1340 0.961 . S
H1327 C1341 0.960 . S
H1328 C1341 0.961 . S
H1329 C1341 0.959 . S
H1330 C1344 0.929 . S
H1331 C1345 0.931 . S
H1332 C1347 0.930 . S
C1333 H1321 0.930 . S
C1333 C1334 1.399 . S
C1333 C1338 1.399 . S
C1334 C1333 1.399 . S
C1334 C1335 1.376 . S
C1335 H1322 0.930 . S
C1335 C1334 1.376 . S
C1335 C1336 1.388 . S
C1336 H1323 0.930 . S
C1336 C1335 1.388 . S
C1336 C1337 1.390 . S
C1337 C1336 1.390 . S
C1337 C1338 1.394 . S
C1337 C1343 1.465 . S
C1338 C1333 1.399 . S
C1338 C1337 1.394 . S
C1338 C1339 1.516 . S
C1339 C1338 1.516 . S
C1339 C1340 1.502 . S
C1339 C1341 1.561 . S
C1339 C1342 1.526 . S
C1340 H1324 0.959 . S
C1340 H1325 0.959 . S
C1340 H1326 0.961 . S
C1340 C1339 1.502 . S
C1341 H1327 0.960 . S
C1341 H1328 0.961 . S
C1341 H1329 0.959 . S
C1341 C1339 1.561 . S
C1342 C1339 1.526 . S
C1342 C1343 1.396 . S
C1342 C1347 1.390 . S
C1343 C1337 1.465 . S
C1343 C1342 1.396 . S
C1343 C1344 1.399 . S
C1344 H1330 0.929 . S
C1344 C1343 1.399 . S
C1344 C1345 1.385 . S
C1345 H1331 0.931 . S
C1345 C1344 1.385 . S
C1345 C1346 1.389 . S
C1346 C1345 1.389 . S
C1346 C1347 1.387 . S
C1347 H1332 0.930 . S
C1347 C1342 1.390 . S
C1347 C1346 1.387 . S
H1348 C1360 0.930 . S
H1349 C1362 0.930 . S
H1350 C1363 0.930 . S
H1351 C1367 0.959 . S
H1352 C1367 0.959 . S
H1353 C1367 0.961 . S
H1354 C1368 0.960 . S
H1355 C1368 0.961 . S
H1356 C1368 0.959 . S
H1357 C1371 0.929 . S
H1358 C1372 0.931 . S
H1359 C1374 0.930 . S
C1360 H1348 0.930 . S
C1360 C1361 1.399 . S
C1360 C1365 1.399 . S
C1361 C1360 1.399 . S
C1361 C1362 1.376 . S
C1362 H1349 0.930 . S
C1362 C1361 1.376 . S
C1362 C1363 1.388 . S
C1363 H1350 0.930 . S
C1363 C1362 1.388 . S
C1363 C1364 1.390 . S
C1364 C1363 1.390 . S
C1364 C1365 1.394 . S
C1364 C1370 1.465 . S
C1365 C1360 1.399 . S
C1365 C1364 1.394 . S
C1365 C1366 1.516 . S
C1366 C1365 1.516 . S
C1366 C1367 1.502 . S
C1366 C1368 1.561 . S
C1366 C1369 1.526 . S
C1367 H1351 0.959 . S
C1367 H1352 0.959 . S
C1367 H1353 0.961 . S
C1367 C1366 1.502 . S
C1368 H1354 0.960 . S
C1368 H1355 0.961 . S
C1368 H1356 0.959 . S
C1368 C1366 1.561 . S
C1369 C1366 1.526 . S
C1369 C1370 1.396 . S
C1369 C1374 1.390 . S
C1370 C1364 1.465 . S
C1370 C1369 1.396 . S
C1370 C1371 1.399 . S
C1371 H1357 0.929 . S
C1371 C1370 1.399 . S
C1371 C1372 1.385 . S
C1372 H1358 0.931 . S
C1372 C1371 1.385 . S
C1372 C1373 1.389 . S
C1373 C1372 1.389 . S
C1373 C1374 1.387 . S
C1374 H1359 0.930 . S
C1374 C1369 1.390 . S
C1374 C1373 1.387 . S
H1375 C1387 0.930 . S
H1376 C1389 0.930 . S
H1377 C1390 0.930 . S
H1378 C1394 0.959 . S
H1379 C1394 0.959 . S
H1380 C1394 0.961 . S
H1381 C1395 0.960 . S
H1382 C1395 0.961 . S
H1383 C1395 0.959 . S
H1384 C1398 0.929 . S
H1385 C1399 0.931 . S
H1386 C1401 0.930 . S
C1387 H1375 0.930 . S
C1387 C1388 1.399 . S
C1387 C1392 1.399 . S
C1388 C1387 1.399 . S
C1388 C1389 1.376 . S
C1389 H1376 0.930 . S
C1389 C1388 1.376 . S
C1389 C1390 1.388 . S
C1390 H1377 0.930 . S
C1390 C1389 1.388 . S
C1390 C1391 1.390 . S
C1391 C1390 1.390 . S
C1391 C1392 1.394 . S
C1391 C1397 1.465 . S
C1392 C1387 1.399 . S
C1392 C1391 1.394 . S
C1392 C1393 1.516 . S
C1393 C1392 1.516 . S
C1393 C1394 1.502 . S
C1393 C1395 1.561 . S
C1393 C1396 1.526 . S
C1394 H1378 0.959 . S
C1394 H1379 0.959 . S
C1394 H1380 0.961 . S
C1394 C1393 1.502 . S
C1395 H1381 0.960 . S
C1395 H1382 0.961 . S
C1395 H1383 0.959 . S
C1395 C1393 1.561 . S
C1396 C1393 1.526 . S
C1396 C1397 1.396 . S
C1396 C1401 1.390 . S
C1397 C1391 1.465 . S
C1397 C1396 1.396 . S
C1397 C1398 1.399 . S
C1398 H1384 0.929 . S
C1398 C1397 1.399 . S
C1398 C1399 1.385 . S
C1399 H1385 0.931 . S
C1399 C1398 1.385 . S
C1399 C1400 1.389 . S
C1400 C1399 1.389 . S
C1400 C1401 1.387 . S
C1401 H1386 0.930 . S
C1401 C1396 1.390 . S
C1401 C1400 1.387 . S
H1402 C1414 0.930 . S
H1403 C1416 0.930 . S
H1404 C1417 0.930 . S
H1405 C1421 0.959 . S
H1406 C1421 0.959 . S
H1407 C1421 0.961 . S
H1408 C1422 0.960 . S
H1409 C1422 0.961 . S
H1410 C1422 0.959 . S
H1411 C1425 0.929 . S
H1412 C1426 0.931 . S
H1413 C1428 0.930 . S
C1414 H1402 0.930 . S
C1414 C1415 1.399 . S
C1414 C1419 1.399 . S
C1415 C1414 1.399 . S
C1415 C1416 1.376 . S
C1416 H1403 0.930 . S
C1416 C1415 1.376 . S
C1416 C1417 1.388 . S
C1417 H1404 0.930 . S
C1417 C1416 1.388 . S
C1417 C1418 1.390 . S
C1418 C1417 1.390 . S
C1418 C1419 1.394 . S
C1418 C1424 1.465 . S
C1419 C1414 1.399 . S
C1419 C1418 1.394 . S
C1419 C1420 1.516 . S
C1420 C1419 1.516 . S
C1420 C1421 1.502 . S
C1420 C1422 1.561 . S
C1420 C1423 1.526 . S
C1421 H1405 0.959 . S
C1421 H1406 0.959 . S
C1421 H1407 0.961 . S
C1421 C1420 1.502 . S
C1422 H1408 0.960 . S
C1422 H1409 0.961 . S
C1422 H1410 0.959 . S
C1422 C1420 1.561 . S
C1423 C1420 1.526 . S
C1423 C1424 1.396 . S
C1423 C1428 1.390 . S
C1424 C1418 1.465 . S
C1424 C1423 1.396 . S
C1424 C1425 1.399 . S
C1425 H1411 0.929 . S
C1425 C1424 1.399 . S
C1425 C1426 1.385 . S
C1426 H1412 0.931 . S
C1426 C1425 1.385 . S
C1426 C1427 1.389 . S
C1427 C1426 1.389 . S
C1427 C1428 1.387 . S
C1428 H1413 0.930 . S
C1428 C1423 1.390 . S
C1428 C1427 1.387 . S
H1429 C1441 0.930 . S
H1430 C1443 0.930 . S
H1431 C1444 0.930 . S
H1432 C1448 0.959 . S
H1433 C1448 0.959 . S
H1434 C1448 0.961 . S
H1435 C1449 0.960 . S
H1436 C1449 0.961 . S
H1437 C1449 0.959 . S
H1438 C1452 0.929 . S
H1439 C1453 0.931 . S
H1440 C1455 0.930 . S
C1441 H1429 0.930 . S
C1441 C1442 1.399 . S
C1441 C1446 1.399 . S
C1442 C1441 1.399 . S
C1442 C1443 1.376 . S
C1443 H1430 0.930 . S
C1443 C1442 1.376 . S
C1443 C1444 1.388 . S
C1444 H1431 0.930 . S
C1444 C1443 1.388 . S
C1444 C1445 1.390 . S
C1445 C1444 1.390 . S
C1445 C1446 1.394 . S
C1445 C1451 1.465 . S
C1446 C1441 1.399 . S
C1446 C1445 1.394 . S
C1446 C1447 1.516 . S
C1447 C1446 1.516 . S
C1447 C1448 1.502 . S
C1447 C1449 1.561 . S
C1447 C1450 1.526 . S
C1448 H1432 0.959 . S
C1448 H1433 0.959 . S
C1448 H1434 0.961 . S
C1448 C1447 1.502 . S
C1449 H1435 0.960 . S
C1449 H1436 0.961 . S
C1449 H1437 0.959 . S
C1449 C1447 1.561 . S
C1450 C1447 1.526 . S
C1450 C1451 1.396 . S
C1450 C1455 1.390 . S
C1451 C1445 1.465 . S
C1451 C1450 1.396 . S
C1451 C1452 1.399 . S
C1452 H1438 0.929 . S
C1452 C1451 1.399 . S
C1452 C1453 1.385 . S
C1453 H1439 0.931 . S
C1453 C1452 1.385 . S
C1453 C1454 1.389 . S
C1454 C1453 1.389 . S
C1454 C1455 1.387 . S
C1455 H1440 0.930 . S
C1455 C1450 1.390 . S
C1455 C1454 1.387 . S
H1456 C1468 0.930 . S
H1457 C1470 0.930 . S
H1458 C1471 0.930 . S
H1459 C1475 0.959 . S
H1460 C1475 0.959 . S
H1461 C1475 0.961 . S
H1462 C1476 0.960 . S
H1463 C1476 0.961 . S
H1464 C1476 0.959 . S
H1465 C1479 0.929 . S
H1466 C1480 0.931 . S
H1467 C1482 0.930 . S
C1468 H1456 0.930 . S
C1468 C1469 1.399 . S
C1468 C1473 1.399 . S
C1469 C1468 1.399 . S
C1469 C1470 1.376 . S
C1470 H1457 0.930 . S
C1470 C1469 1.376 . S
C1470 C1471 1.388 . S
C1471 H1458 0.930 . S
C1471 C1470 1.388 . S
C1471 C1472 1.390 . S
C1472 C1471 1.390 . S
C1472 C1473 1.394 . S
C1472 C1478 1.465 . S
C1473 C1468 1.399 . S
C1473 C1472 1.394 . S
C1473 C1474 1.516 . S
C1474 C1473 1.516 . S
C1474 C1475 1.502 . S
C1474 C1476 1.561 . S
C1474 C1477 1.526 . S
C1475 H1459 0.959 . S
C1475 H1460 0.959 . S
C1475 H1461 0.961 . S
C1475 C1474 1.502 . S
C1476 H1462 0.960 . S
C1476 H1463 0.961 . S
C1476 H1464 0.959 . S
C1476 C1474 1.561 . S
C1477 C1474 1.526 . S
C1477 C1478 1.396 . S
C1477 C1482 1.390 . S
C1478 C1472 1.465 . S
C1478 C1477 1.396 . S
C1478 C1479 1.399 . S
C1479 H1465 0.929 . S
C1479 C1478 1.399 . S
C1479 C1480 1.385 . S
C1480 H1466 0.931 . S
C1480 C1479 1.385 . S
C1480 C1481 1.389 . S
C1481 C1480 1.389 . S
C1481 C1482 1.387 . S
C1482 H1467 0.930 . S
C1482 C1477 1.390 . S
C1482 C1481 1.387 . S
H1483 C1495 0.930 . S
H1484 C1497 0.930 . S
H1485 C1498 0.930 . S
H1486 C1502 0.959 . S
H1487 C1502 0.959 . S
H1488 C1502 0.961 . S
H1489 C1503 0.960 . S
H1490 C1503 0.961 . S
H1491 C1503 0.959 . S
H1492 C1506 0.929 . S
H1493 C1507 0.931 . S
H1494 C1509 0.930 . S
C1495 H1483 0.930 . S
C1495 C1496 1.399 . S
C1495 C1500 1.399 . S
C1496 C1495 1.399 . S
C1496 C1497 1.376 . S
C1497 H1484 0.930 . S
C1497 C1496 1.376 . S
C1497 C1498 1.388 . S
C1498 H1485 0.930 . S
C1498 C1497 1.388 . S
C1498 C1499 1.390 . S
C1499 C1498 1.390 . S
C1499 C1500 1.394 . S
C1499 C1505 1.465 . S
C1500 C1495 1.399 . S
C1500 C1499 1.394 . S
C1500 C1501 1.516 . S
C1501 C1500 1.516 . S
C1501 C1502 1.502 . S
C1501 C1503 1.561 . S
C1501 C1504 1.526 . S
C1502 H1486 0.959 . S
C1502 H1487 0.959 . S
C1502 H1488 0.961 . S
C1502 C1501 1.502 . S
C1503 H1489 0.960 . S
C1503 H1490 0.961 . S
C1503 H1491 0.959 . S
C1503 C1501 1.561 . S
C1504 C1501 1.526 . S
C1504 C1505 1.396 . S
C1504 C1509 1.390 . S
C1505 C1499 1.465 . S
C1505 C1504 1.396 . S
C1505 C1506 1.399 . S
C1506 H1492 0.929 . S
C1506 C1505 1.399 . S
C1506 C1507 1.385 . S
C1507 H1493 0.931 . S
C1507 C1506 1.385 . S
C1507 C1508 1.389 . S
C1508 C1507 1.389 . S
C1508 C1509 1.387 . S
C1509 H1494 0.930 . S
C1509 C1504 1.390 . S
C1509 C1508 1.387 . S
H1510 C1522 0.930 . S
H1511 C1524 0.930 . S
H1512 C1525 0.930 . S
H1513 C1529 0.959 . S
H1514 C1529 0.959 . S
H1515 C1529 0.961 . S
H1516 C1530 0.960 . S
H1517 C1530 0.961 . S
H1518 C1530 0.959 . S
H1519 C1533 0.929 . S
H1520 C1534 0.931 . S
H1521 C1536 0.930 . S
C1522 H1510 0.930 . S
C1522 C1523 1.399 . S
C1522 C1527 1.399 . S
C1523 C1522 1.399 . S
C1523 C1524 1.376 . S
C1524 H1511 0.930 . S
C1524 C1523 1.376 . S
C1524 C1525 1.388 . S
C1525 H1512 0.930 . S
C1525 C1524 1.388 . S
C1525 C1526 1.390 . S
C1526 C1525 1.390 . S
C1526 C1527 1.394 . S
C1526 C1532 1.465 . S
C1527 C1522 1.399 . S
C1527 C1526 1.394 . S
C1527 C1528 1.516 . S
C1528 C1527 1.516 . S
C1528 C1529 1.502 . S
C1528 C1530 1.561 . S
C1528 C1531 1.526 . S
C1529 H1513 0.959 . S
C1529 H1514 0.959 . S
C1529 H1515 0.961 . S
C1529 C1528 1.502 . S
C1530 H1516 0.960 . S
C1530 H1517 0.961 . S
C1530 H1518 0.959 . S
C1530 C1528 1.561 . S
C1531 C1528 1.526 . S
C1531 C1532 1.396 . S
C1531 C1536 1.390 . S
C1532 C1526 1.465 . S
C1532 C1531 1.396 . S
C1532 C1533 1.399 . S
C1533 H1519 0.929 . S
C1533 C1532 1.399 . S
C1533 C1534 1.385 . S
C1534 H1520 0.931 . S
C1534 C1533 1.385 . S
C1534 C1535 1.389 . S
C1535 C1534 1.389 . S
C1535 C1536 1.387 . S
C1536 H1521 0.930 . S
C1536 C1531 1.390 . S
C1536 C1535 1.387 . S
H1537 C1549 0.930 . S
H1538 C1551 0.930 . S
H1539 C1552 0.930 . S
H1540 C1556 0.959 . S
H1541 C1556 0.959 . S
H1542 C1556 0.961 . S
H1543 C1557 0.960 . S
H1544 C1557 0.961 . S
H1545 C1557 0.959 . S
H1546 C1560 0.929 . S
H1547 C1561 0.931 . S
H1548 C1563 0.930 . S
C1549 H1537 0.930 . S
C1549 C1550 1.399 . S
C1549 C1554 1.399 . S
C1550 C1549 1.399 . S
C1550 C1551 1.376 . S
C1551 H1538 0.930 . S
C1551 C1550 1.376 . S
C1551 C1552 1.388 . S
C1552 H1539 0.930 . S
C1552 C1551 1.388 . S
C1552 C1553 1.390 . S
C1553 C1552 1.390 . S
C1553 C1554 1.394 . S
C1553 C1559 1.465 . S
C1554 C1549 1.399 . S
C1554 C1553 1.394 . S
C1554 C1555 1.516 . S
C1555 C1554 1.516 . S
C1555 C1556 1.502 . S
C1555 C1557 1.561 . S
C1555 C1558 1.526 . S
C1556 H1540 0.959 . S
C1556 H1541 0.959 . S
C1556 H1542 0.961 . S
C1556 C1555 1.502 . S
C1557 H1543 0.960 . S
C1557 H1544 0.961 . S
C1557 H1545 0.959 . S
C1557 C1555 1.561 . S
C1558 C1555 1.526 . S
C1558 C1559 1.396 . S
C1558 C1563 1.390 . S
C1559 C1553 1.465 . S
C1559 C1558 1.396 . S
C1559 C1560 1.399 . S
C1560 H1546 0.929 . S
C1560 C1559 1.399 . S
C1560 C1561 1.385 . S
C1561 H1547 0.931 . S
C1561 C1560 1.385 . S
C1561 C1562 1.389 . S
C1562 C1561 1.389 . S
C1562 C1563 1.387 . S
C1563 H1548 0.930 . S
C1563 C1558 1.390 . S
C1563 C1562 1.387 . S
H1564 C1576 0.930 . S
H1565 C1578 0.930 . S
H1566 C1579 0.930 . S
H1567 C1583 0.959 . S
H1568 C1583 0.959 . S
H1569 C1583 0.961 . S
H1570 C1584 0.960 . S
H1571 C1584 0.961 . S
H1572 C1584 0.959 . S
H1573 C1587 0.929 . S
H1574 C1588 0.931 . S
H1575 C1590 0.930 . S
C1576 H1564 0.930 . S
C1576 C1577 1.399 . S
C1576 C1581 1.399 . S
C1577 C1576 1.399 . S
C1577 C1578 1.376 . S
C1578 H1565 0.930 . S
C1578 C1577 1.376 . S
C1578 C1579 1.388 . S
C1579 H1566 0.930 . S
C1579 C1578 1.388 . S
C1579 C1580 1.390 . S
C1580 C1579 1.390 . S
C1580 C1581 1.394 . S
C1580 C1586 1.465 . S
C1581 C1576 1.399 . S
C1581 C1580 1.394 . S
C1581 C1582 1.516 . S
C1582 C1581 1.516 . S
C1582 C1583 1.502 . S
C1582 C1584 1.561 . S
C1582 C1585 1.526 . S
C1583 H1567 0.959 . S
C1583 H1568 0.959 . S
C1583 H1569 0.961 . S
C1583 C1582 1.502 . S
C1584 H1570 0.960 . S
C1584 H1571 0.961 . S
C1584 H1572 0.959 . S
C1584 C1582 1.561 . S
C1585 C1582 1.526 . S
C1585 C1586 1.396 . S
C1585 C1590 1.390 . S
C1586 C1580 1.465 . S
C1586 C1585 1.396 . S
C1586 C1587 1.399 . S
C1587 H1573 0.929 . S
C1587 C1586 1.399 . S
C1587 C1588 1.385 . S
C1588 H1574 0.931 . S
C1588 C1587 1.385 . S
C1588 C1589 1.389 . S
C1589 C1588 1.389 . S
C1589 C1590 1.387 . S
C1590 H1575 0.930 . S
C1590 C1585 1.390 . S
C1590 C1589 1.387 . S
H1591 C1603 0.930 . S
H1592 C1605 0.930 . S
H1593 C1606 0.930 . S
H1594 C1610 0.959 . S
H1595 C1610 0.959 . S
H1596 C1610 0.961 . S
H1597 C1611 0.960 . S
H1598 C1611 0.961 . S
H1599 C1611 0.959 . S
H1600 C1614 0.929 . S
H1601 C1615 0.931 . S
H1602 C1617 0.930 . S
C1603 H1591 0.930 . S
C1603 C1604 1.399 . S
C1603 C1608 1.399 . S
C1604 C1603 1.399 . S
C1604 C1605 1.376 . S
C1605 H1592 0.930 . S
C1605 C1604 1.376 . S
C1605 C1606 1.388 . S
C1606 H1593 0.930 . S
C1606 C1605 1.388 . S
C1606 C1607 1.390 . S
C1607 C1606 1.390 . S
C1607 C1608 1.394 . S
C1607 C1613 1.465 . S
C1608 C1603 1.399 . S
C1608 C1607 1.394 . S
C1608 C1609 1.516 . S
C1609 C1608 1.516 . S
C1609 C1610 1.502 . S
C1609 C1611 1.561 . S
C1609 C1612 1.526 . S
C1610 H1594 0.959 . S
C1610 H1595 0.959 . S
C1610 H1596 0.961 . S
C1610 C1609 1.502 . S
C1611 H1597 0.960 . S
C1611 H1598 0.961 . S
C1611 H1599 0.959 . S
C1611 C1609 1.561 . S
C1612 C1609 1.526 . S
C1612 C1613 1.396 . S
C1612 C1617 1.390 . S
C1613 C1607 1.465 . S
C1613 C1612 1.396 . S
C1613 C1614 1.399 . S
C1614 H1600 0.929 . S
C1614 C1613 1.399 . S
C1614 C1615 1.385 . S
C1615 H1601 0.931 . S
C1615 C1614 1.385 . S
C1615 C1616 1.389 . S
C1616 C1615 1.389 . S
C1616 C1617 1.387 . S
C1617 H1602 0.930 . S
C1617 C1612 1.390 . S
C1617 C1616 1.387 . S
H1618 C1630 0.930 . S
H1619 C1632 0.930 . S
H1620 C1633 0.930 . S
H1621 C1637 0.959 . S
H1622 C1637 0.959 . S
H1623 C1637 0.961 . S
H1624 C1638 0.960 . S
H1625 C1638 0.961 . S
H1626 C1638 0.959 . S
H1627 C1641 0.929 . S
H1628 C1642 0.931 . S
H1629 C1644 0.930 . S
C1630 H1618 0.930 . S
C1630 C1631 1.399 . S
C1630 C1635 1.399 . S
C1631 C1630 1.399 . S
C1631 C1632 1.376 . S
C1632 H1619 0.930 . S
C1632 C1631 1.376 . S
C1632 C1633 1.388 . S
C1633 H1620 0.930 . S
C1633 C1632 1.388 . S
C1633 C1634 1.390 . S
C1634 C1633 1.390 . S
C1634 C1635 1.394 . S
C1634 C1640 1.465 . S
C1635 C1630 1.399 . S
C1635 C1634 1.394 . S
C1635 C1636 1.516 . S
C1636 C1635 1.516 . S
C1636 C1637 1.502 . S
C1636 C1638 1.561 . S
C1636 C1639 1.526 . S
C1637 H1621 0.959 . S
C1637 H1622 0.959 . S
C1637 H1623 0.961 . S
C1637 C1636 1.502 . S
C1638 H1624 0.960 . S
C1638 H1625 0.961 . S
C1638 H1626 0.959 . S
C1638 C1636 1.561 . S
C1639 C1636 1.526 . S
C1639 C1640 1.396 . S
C1639 C1644 1.390 . S
C1640 C1634 1.465 . S
C1640 C1639 1.396 . S
C1640 C1641 1.399 . S
C1641 H1627 0.929 . S
C1641 C1640 1.399 . S
C1641 C1642 1.385 . S
C1642 H1628 0.931 . S
C1642 C1641 1.385 . S
C1642 C1643 1.389 . S
C1643 C1642 1.389 . S
C1643 C1644 1.387 . S
C1644 H1629 0.930 . S
C1644 C1639 1.390 . S
C1644 C1643 1.387 . S
H1645 C1657 0.930 . S
H1646 C1659 0.930 . S
H1647 C1660 0.930 . S
H1648 C1664 0.959 . S
H1649 C1664 0.959 . S
H1650 C1664 0.961 . S
H1651 C1665 0.960 . S
H1652 C1665 0.961 . S
H1653 C1665 0.959 . S
H1654 C1668 0.929 . S
H1655 C1669 0.931 . S
H1656 C1671 0.930 . S
C1657 H1645 0.930 . S
C1657 C1658 1.399 . S
C1657 C1662 1.399 . S
C1658 C1657 1.399 . S
C1658 C1659 1.376 . S
C1659 H1646 0.930 . S
C1659 C1658 1.376 . S
C1659 C1660 1.388 . S
C1660 H1647 0.930 . S
C1660 C1659 1.388 . S
C1660 C1661 1.390 . S
C1661 C1660 1.390 . S
C1661 C1662 1.394 . S
C1661 C1667 1.465 . S
C1662 C1657 1.399 . S
C1662 C1661 1.394 . S
C1662 C1663 1.516 . S
C1663 C1662 1.516 . S
C1663 C1664 1.502 . S
C1663 C1665 1.561 . S
C1663 C1666 1.526 . S
C1664 H1648 0.959 . S
C1664 H1649 0.959 . S
C1664 H1650 0.961 . S
C1664 C1663 1.502 . S
C1665 H1651 0.960 . S
C1665 H1652 0.961 . S
C1665 H1653 0.959 . S
C1665 C1663 1.561 . S
C1666 C1663 1.526 . S
C1666 C1667 1.396 . S
C1666 C1671 1.390 . S
C1667 C1661 1.465 . S
C1667 C1666 1.396 . S
C1667 C1668 1.399 . S
C1668 H1654 0.929 . S
C1668 C1667 1.399 . S
C1668 C1669 1.385 . S
C1669 H1655 0.931 . S
C1669 C1668 1.385 . S
C1669 C1670 1.389 . S
C1670 C1669 1.389 . S
C1670 C1671 1.387 . S
C1671 H1656 0.930 . S
C1671 C1666 1.390 . S
C1671 C1670 1.387 . S
C833 C413 1.453 . S
C821 C36 1.450 . S
C860 C466 1.278 . S
C848 C93 1.279 . S
C887 C529 1.522 . S
C875 C132 1.522 . S
C914 C572 1.243 . S
C902 C174 1.242 . S
C929 C213 1.513 . S
C941 C528 1.516 . S
C968 C565 1.303 . S
C956 C285 1.298 . S
C995 C406 1.457 . S
C983 C324 1.455 . S
C1022 C459 1.215 . S
C1010 C366 1.204 . S
C1049 C512 1.476 . S
C1037 C357 1.486 . S
C1076 C581 1.783 . S
C1064 C222 1.790 . S
C1103 C422 1.543 . S
C1091 C276 1.553 . S
C1130 C475 1.713 . S
C1118 C333 1.719 . S
C1157 C423 1.540 . S
C1145 C84 1.531 . S
C1184 C476 1.778 . S
C1172 C141 1.766 . S
C1211 C519 1.494 . S
C1199 C165 1.472 . S
C1238 C582 1.719 . S
C1226 C45 1.714 . S
C1265 C625 1.427 . S
C1253 C372 1.420 . S
C1280 C237 1.668 . S
C1292 C678 1.662 . S
C1307 C261 1.552 . S
C1319 C740 1.551 . S
C1334 C318 1.659 . S
C1346 C794 1.664 . S
C1361 C69 1.492 . S
C1373 C741 1.484 . S
C1388 C126 1.730 . S
C1400 C793 1.730 . S
C1415 C180 1.481 . S
C1427 C618 1.479 . S
C1454 C671 1.602 . S
C1442 C30 1.605 . S
C1481 C731 1.458 . S
C1469 C21 1.436 . S
C1496 C78 1.318 . S
C1508 C777 1.336 . S
C1523 C117 1.563 . S
C1535 C634 1.576 . S
C1550 C189 1.324 . S
C1562 C687 1.310 . S
C1589 C635 1.513 . S
C1577 C228 1.500 . S
C1616 C688 1.389 . S
C1604 C270 1.383 . S
C1631 C309 1.493 . S
C1643 C724 1.511 . S
C1670 C784 1.268 . S
C1658 C381 1.255 . S
