# Generated by pormake.
# Topology ctn, (3,4)-cn, num edge types: 1
# Building blocks:
#     Node 0, Type 0, BuildingBlock: ESEHIV_clean_linker_0, # of connection points: 3
#     Node 1, Type 0, BuildingBlock: ESEHIV_clean_linker_0, # of connection points: 3
#     Node 2, Type 0, BuildingBlock: ESEHIV_clean_linker_0, # of connection points: 3
#     Node 3, Type 0, BuildingBlock: ESEHIV_clean_linker_0, # of connection points: 3
#     Node 4, Type 0, BuildingBlock: ESEHIV_clean_linker_0, # of connection points: 3
#     Node 5, Type 0, BuildingBlock: ESEHIV_clean_linker_0, # of connection points: 3
#     Node 6, Type 0, BuildingBlock: ESEHIV_clean_linker_0, # of connection points: 3
#     Node 7, Type 0, BuildingBlock: ESEHIV_clean_linker_0, # of connection points: 3
#     Node 8, Type 0, BuildingBlock: ESEHIV_clean_linker_0, # of connection points: 3
#     Node 9, Type 0, BuildingBlock: ESEHIV_clean_linker_0, # of connection points: 3
#     Node 10, Type 0, BuildingBlock: ESEHIV_clean_linker_0, # of connection points: 3
#     Node 11, Type 0, BuildingBlock: ESEHIV_clean_linker_0, # of connection points: 3
#     Node 12, Type 0, BuildingBlock: ESEHIV_clean_linker_0, # of connection points: 3
#     Node 13, Type 0, BuildingBlock: ESEHIV_clean_linker_0, # of connection points: 3
#     Node 14, Type 0, BuildingBlock: ESEHIV_clean_linker_0, # of connection points: 3
#     Node 15, Type 0, BuildingBlock: ESEHIV_clean_linker_0, # of connection points: 3
#     Node 16, Type 1, BuildingBlock: NAHDIM_clean_sbu_0, # of connection points: 4
#     Node 17, Type 1, BuildingBlock: NAHDIM_clean_sbu_0, # of connection points: 4
#     Node 18, Type 1, BuildingBlock: NAHDIM_clean_sbu_0, # of connection points: 4
#     Node 19, Type 1, BuildingBlock: NAHDIM_clean_sbu_0, # of connection points: 4
#     Node 20, Type 1, BuildingBlock: NAHDIM_clean_sbu_0, # of connection points: 4
#     Node 21, Type 1, BuildingBlock: NAHDIM_clean_sbu_0, # of connection points: 4
#     Node 22, Type 1, BuildingBlock: NAHDIM_clean_sbu_0, # of connection points: 4
#     Node 23, Type 1, BuildingBlock: NAHDIM_clean_sbu_0, # of connection points: 4
#     Node 24, Type 1, BuildingBlock: NAHDIM_clean_sbu_0, # of connection points: 4
#     Node 25, Type 1, BuildingBlock: NAHDIM_clean_sbu_0, # of connection points: 4
#     Node 26, Type 1, BuildingBlock: NAHDIM_clean_sbu_0, # of connection points: 4
#     Node 27, Type 1, BuildingBlock: NAHDIM_clean_sbu_0, # of connection points: 4
#     Edge 28, Type (0, 1), BuildingBlock: KIFKEQ_clean_linker_1, # of connection points: 2
#     Edge 29, Type (0, 1), BuildingBlock: KIFKEQ_clean_linker_1, # of connection points: 2
#     Edge 30, Type (0, 1), BuildingBlock: KIFKEQ_clean_linker_1, # of connection points: 2
#     Edge 31, Type (0, 1), BuildingBlock: KIFKEQ_clean_linker_1, # of connection points: 2
#     Edge 32, Type (0, 1), BuildingBlock: KIFKEQ_clean_linker_1, # of connection points: 2
#     Edge 33, Type (0, 1), BuildingBlock: KIFKEQ_clean_linker_1, # of connection points: 2
#     Edge 34, Type (0, 1), BuildingBlock: KIFKEQ_clean_linker_1, # of connection points: 2
#     Edge 35, Type (0, 1), BuildingBlock: KIFKEQ_clean_linker_1, # of connection points: 2
#     Edge 36, Type (0, 1), BuildingBlock: KIFKEQ_clean_linker_1, # of connection points: 2
#     Edge 37, Type (0, 1), BuildingBlock: KIFKEQ_clean_linker_1, # of connection points: 2
#     Edge 38, Type (0, 1), BuildingBlock: KIFKEQ_clean_linker_1, # of connection points: 2
#     Edge 39, Type (0, 1), BuildingBlock: KIFKEQ_clean_linker_1, # of connection points: 2
#     Edge 40, Type (0, 1), BuildingBlock: KIFKEQ_clean_linker_1, # of connection points: 2
#     Edge 41, Type (0, 1), BuildingBlock: KIFKEQ_clean_linker_1, # of connection points: 2
#     Edge 42, Type (0, 1), BuildingBlock: KIFKEQ_clean_linker_1, # of connection points: 2
#     Edge 43, Type (0, 1), BuildingBlock: KIFKEQ_clean_linker_1, # of connection points: 2
#     Edge 44, Type (0, 1), BuildingBlock: KIFKEQ_clean_linker_1, # of connection points: 2
#     Edge 45, Type (0, 1), BuildingBlock: KIFKEQ_clean_linker_1, # of connection points: 2
#     Edge 46, Type (0, 1), BuildingBlock: KIFKEQ_clean_linker_1, # of connection points: 2
#     Edge 47, Type (0, 1), BuildingBlock: KIFKEQ_clean_linker_1, # of connection points: 2
#     Edge 48, Type (0, 1), BuildingBlock: KIFKEQ_clean_linker_1, # of connection points: 2
#     Edge 49, Type (0, 1), BuildingBlock: KIFKEQ_clean_linker_1, # of connection points: 2
#     Edge 50, Type (0, 1), BuildingBlock: KIFKEQ_clean_linker_1, # of connection points: 2
#     Edge 51, Type (0, 1), BuildingBlock: KIFKEQ_clean_linker_1, # of connection points: 2
#     Edge 52, Type (0, 1), BuildingBlock: KIFKEQ_clean_linker_1, # of connection points: 2
#     Edge 53, Type (0, 1), BuildingBlock: KIFKEQ_clean_linker_1, # of connection points: 2
#     Edge 54, Type (0, 1), BuildingBlock: KIFKEQ_clean_linker_1, # of connection points: 2
#     Edge 55, Type (0, 1), BuildingBlock: KIFKEQ_clean_linker_1, # of connection points: 2
#     Edge 56, Type (0, 1), BuildingBlock: KIFKEQ_clean_linker_1, # of connection points: 2
#     Edge 57, Type (0, 1), BuildingBlock: KIFKEQ_clean_linker_1, # of connection points: 2
#     Edge 58, Type (0, 1), BuildingBlock: KIFKEQ_clean_linker_1, # of connection points: 2
#     Edge 59, Type (0, 1), BuildingBlock: KIFKEQ_clean_linker_1, # of connection points: 2
#     Edge 60, Type (0, 1), BuildingBlock: KIFKEQ_clean_linker_1, # of connection points: 2
#     Edge 61, Type (0, 1), BuildingBlock: KIFKEQ_clean_linker_1, # of connection points: 2
#     Edge 62, Type (0, 1), BuildingBlock: KIFKEQ_clean_linker_1, # of connection points: 2
#     Edge 63, Type (0, 1), BuildingBlock: KIFKEQ_clean_linker_1, # of connection points: 2
#     Edge 64, Type (0, 1), BuildingBlock: KIFKEQ_clean_linker_1, # of connection points: 2
#     Edge 65, Type (0, 1), BuildingBlock: KIFKEQ_clean_linker_1, # of connection points: 2
#     Edge 66, Type (0, 1), BuildingBlock: KIFKEQ_clean_linker_1, # of connection points: 2
#     Edge 67, Type (0, 1), BuildingBlock: KIFKEQ_clean_linker_1, # of connection points: 2
#     Edge 68, Type (0, 1), BuildingBlock: KIFKEQ_clean_linker_1, # of connection points: 2
#     Edge 69, Type (0, 1), BuildingBlock: KIFKEQ_clean_linker_1, # of connection points: 2
#     Edge 70, Type (0, 1), BuildingBlock: KIFKEQ_clean_linker_1, # of connection points: 2
#     Edge 71, Type (0, 1), BuildingBlock: KIFKEQ_clean_linker_1, # of connection points: 2
#     Edge 72, Type (0, 1), BuildingBlock: KIFKEQ_clean_linker_1, # of connection points: 2
#     Edge 73, Type (0, 1), BuildingBlock: KIFKEQ_clean_linker_1, # of connection points: 2
#     Edge 74, Type (0, 1), BuildingBlock: KIFKEQ_clean_linker_1, # of connection points: 2
#     Edge 75, Type (0, 1), BuildingBlock: KIFKEQ_clean_linker_1, # of connection points: 2
# Relax obj value: 0.002
# Max RMSD: 0.033
# Mean RMSD: 0.017
data_MOF--net-ctn--node1-NAHDIM_clean_sbu_0--node2-ESEHIV_clean_linker_0--edge1-KIFKEQ_clean_linker_1
_symmetry_space_group_name_H-M    P1
_symmetry_Int_Tables_number       1
_symmetry_cell_setting            triclinic
loop_
_symmetry_equiv_pos_as_xyz
'x, y, z'
_cell_length_a     52.640947
_cell_length_b     52.918983
_cell_length_c     52.300284
_cell_angle_alpha  91.153678
_cell_angle_beta   90.123899
_cell_angle_gamma 92.357173
loop_
_atom_site_label
_atom_site_type_symbol
_atom_site_fract_x
_atom_site_fract_y
_atom_site_fract_z
_atom_type_partial_charge
H0 H 0.0029 0.08026 0.05728 0.0
H1 H 0.04458 0.01631 0.08021 0.0
H2 H 0.06314 0.05359 0.00984 0.0
C3 C 0.01774 0.06705 0.05371 0.0
C4 C 0.03271 0.06938 0.03163 0.0
C5 C 0.02176 0.04786 0.07125 0.0
C6 C 0.04101 0.03078 0.06644 0.0
C7 C 0.05621 0.03278 0.04442 0.0
C8 C 0.05193 0.0522 0.02715 0.0
H9 H 0.29589 0.69135 0.24532 0.0
H10 H 0.31668 0.7597 0.20582 0.0
H11 H 0.25169 0.71394 0.18107 0.0
C12 C 0.29225 0.70487 0.23061 0.0
C13 C 0.27144 0.70037 0.21399 0.0
C14 C 0.30884 0.72617 0.22786 0.0
C15 C 0.30448 0.74288 0.20788 0.0
C16 C 0.28413 0.73844 0.19075 0.0
C17 C 0.26754 0.7173 0.19411 0.0
H18 H 0.96354 0.49891 0.07078 0.0
H19 H 0.00491 0.43415 0.04712 0.0
H20 H 0.94521 0.46038 0.99944 0.0
C21 C 0.9669 0.48393 0.05691 0.0
C22 C 0.95208 0.4818 0.03452 0.0
C23 C 0.98604 0.46685 0.06158 0.0
C24 C 0.9902 0.4474 0.0436 0.0
C25 C 0.97552 0.44486 0.02116 0.0
C26 C 0.95656 0.4622 0.01674 0.0
H27 H 0.67985 0.75693 0.19938 0.0
H28 H 0.74713 0.80067 0.17924 0.0
H29 H 0.7012 0.8247 0.24239 0.0
C30 C 0.69281 0.77308 0.20283 0.0
C31 C 0.68821 0.79008 0.22315 0.0
C32 C 0.71383 0.77699 0.18668 0.0
C33 C 0.73053 0.79797 0.19125 0.0
C34 C 0.72626 0.81522 0.21139 0.0
C35 C 0.70507 0.81108 0.2273 0.0
H36 H 0.00044 0.9398 0.45041 0.0
H37 H 0.04399 0.00677 0.42962 0.0
H38 H 0.0676 0.96305 0.49317 0.0
C39 C 0.01671 0.95275 0.45341 0.0
C40 C 0.03367 0.94873 0.47358 0.0
C41 C 0.02018 0.97367 0.43748 0.0
C42 C 0.04078 0.99088 0.44213 0.0
C43 C 0.05794 0.98718 0.46218 0.0
C44 C 0.0543 0.96604 0.47778 0.0
H45 H 0.17785 0.75454 0.80642 0.0
H46 H 0.24382 0.71446 0.82842 0.0
H47 H 0.19619 0.68591 0.76669 0.0
C48 C 0.1904 0.73899 0.8038 0.0
C49 C 0.18497 0.72083 0.78439 0.0
C50 C 0.21136 0.73668 0.82023 0.0
C51 C 0.22701 0.71598 0.81666 0.0
C52 C 0.22165 0.6975 0.79754 0.0
C53 C 0.20052 0.70006 0.78152 0.0
H54 H 0.94745 0.55152 0.50502 0.0
H55 H 0.00454 0.57731 0.45166 0.0
H56 H 0.96095 0.50822 0.43641 0.0
C57 C 0.95775 0.54912 0.48729 0.0
C58 C 0.95174 0.52796 0.47143 0.0
C59 C 0.9767 0.56722 0.48037 0.0
C60 C 0.98995 0.56355 0.45733 0.0
C61 C 0.98464 0.5422 0.4415 0.0
C62 C 0.96537 0.52459 0.44863 0.0
H63 H 0.75727 0.78916 0.82425 0.0
H64 H 0.80457 0.81813 0.76364 0.0
H65 H 0.82241 0.74879 0.79968 0.0
C66 C 0.7738 0.78765 0.8121 0.0
C67 C 0.78936 0.76684 0.81443 0.0
C68 C 0.77901 0.80618 0.79369 0.0
C69 C 0.80003 0.80362 0.77744 0.0
C70 C 0.81578 0.78296 0.77944 0.0
C71 C 0.81028 0.76472 0.79799 0.0
H72 H 0.25287 0.29056 0.32144 0.0
H73 H 0.29494 0.31914 0.25697 0.0
H74 H 0.31869 0.25261 0.2948 0.0
C75 C 0.26838 0.28906 0.30796 0.0
C76 C 0.28548 0.26957 0.31045 0.0
C77 C 0.27174 0.30717 0.28882 0.0
C78 C 0.2923 0.30532 0.27184 0.0
C79 C 0.30943 0.28577 0.27388 0.0
C80 C 0.3059 0.26807 0.29335 0.0
H81 H 0.46353 0.0053 0.56895 0.0
H82 H 0.5067 0.94163 0.54543 0.0
H83 H 0.44625 0.96634 0.49775 0.0
C84 C 0.46738 0.9904 0.55517 0.0
C85 C 0.45264 0.9879 0.53276 0.0
C86 C 0.48701 0.97386 0.55992 0.0
C87 C 0.49166 0.95451 0.54193 0.0
C88 C 0.477 0.95157 0.51949 0.0
C89 C 0.4576 0.96843 0.51503 0.0
H90 H 0.1834 0.2647 0.69748 0.0
H91 H 0.24971 0.30881 0.67499 0.0
H92 H 0.20603 0.33238 0.73997 0.0
C93 C 0.19662 0.2807 0.70066 0.0
C94 C 0.19251 0.29781 0.72099 0.0
C95 C 0.21701 0.28473 0.68374 0.0
C96 C 0.23355 0.30597 0.68756 0.0
C97 C 0.22977 0.32329 0.70776 0.0
C98 C 0.20918 0.31905 0.72441 0.0
H99 H 0.8014 0.17999 0.74779 0.0
H100 H 0.81987 0.24932 0.70904 0.0
H101 H 0.75536 0.20254 0.68487 0.0
C102 C 0.79721 0.19359 0.73333 0.0
C103 C 0.77637 0.18873 0.71682 0.0
C104 C 0.81312 0.21541 0.7307 0.0
C105 C 0.80784 0.23241 0.71124 0.0
C106 C 0.78735 0.22773 0.69434 0.0
C107 C 0.77164 0.20591 0.69737 0.0
H108 H 0.50523 0.57525 0.54927 0.0
H109 H 0.55322 0.51653 0.57386 0.0
H110 H 0.56936 0.5548 0.50362 0.0
C111 C 0.52132 0.56347 0.54598 0.0
C112 C 0.53662 0.56729 0.5243 0.0
C113 C 0.52721 0.54524 0.56399 0.0
C114 C 0.54857 0.5306 0.56002 0.0
C115 C 0.56401 0.53401 0.53838 0.0
C116 C 0.55787 0.55242 0.52064 0.0
H117 H 0.49642 0.43844 0.95706 0.0
H118 H 0.54257 0.50238 0.93309 0.0
H119 H 0.56426 0.4612 0.99922 0.0
C120 C 0.51281 0.45125 0.96008 0.0
C121 C 0.52979 0.44729 0.98027 0.0
C122 C 0.51744 0.47096 0.94297 0.0
C123 C 0.53897 0.48717 0.94636 0.0
C124 C 0.55593 0.4838 0.96664 0.0
C125 C 0.55134 0.4637 0.98339 0.0
H126 H 0.68514 0.26521 0.30752 0.0
H127 H 0.75158 0.22534 0.32749 0.0
H128 H 0.70496 0.19914 0.26386 0.0
C129 C 0.69767 0.24976 0.30407 0.0
C130 C 0.69242 0.23247 0.28383 0.0
C131 C 0.71894 0.24734 0.31992 0.0
C132 C 0.73513 0.22733 0.31531 0.0
C133 C 0.73029 0.20987 0.29511 0.0
C134 C 0.70885 0.21255 0.27946 0.0
H135 H 0.44358 0.05275 0.00351 0.0
H136 H 0.50929 0.07209 0.95807 0.0
H137 H 0.46322 0.00546 0.93913 0.0
C138 C 0.456 0.04862 0.9876 0.0
C139 C 0.45082 0.027 0.97207 0.0
C140 C 0.47707 0.06499 0.98278 0.0
C141 C 0.49318 0.05942 0.96224 0.0
C142 C 0.48808 0.03817 0.94632 0.0
C143 C 0.46683 0.02211 0.9512 0.0
C144 C 0.19482 0.9094 0.01139 0.0
O145 O 0.18922 0.88648 0.0024 0.0
O146 O 0.23756 0.87064 0.9774 0.0
Zn147 Zn 0.24629 0.89231 0.00874 0.0
O148 O 0.27838 0.91349 0.00192 0.0
C149 C 0.26216 0.84958 0.03805 0.0
O150 O 0.27238 0.84295 0.01618 0.0
O151 O 0.21796 0.91601 0.01564 0.0
C152 C 0.29908 0.91201 0.01428 0.0
O153 O 0.30031 0.89593 0.033 0.0
C154 C 0.25486 0.86227 0.96298 0.0
O155 O 0.27879 0.86813 0.96837 0.0
O156 O 0.25024 0.86999 0.0395 0.0
C157 C 0.15182 0.45075 0.27353 0.0
O158 O 0.13094 0.45125 0.28721 0.0
O159 O 0.11243 0.5029 0.28553 0.0
Zn160 Zn 0.13494 0.49876 0.25465 0.0
O161 O 0.15757 0.53028 0.25108 0.0
C162 C 0.09274 0.48027 0.22255 0.0
O163 O 0.08517 0.46894 0.24349 0.0
O164 O 0.15714 0.46884 0.25855 0.0
C165 C 0.15244 0.5474 0.23538 0.0
O166 O 0.13179 0.54465 0.22129 0.0
C167 C 0.09405 0.51774 0.28493 0.0
O168 O 0.09003 0.53033 0.26401 0.0
O169 O 0.1134 0.49358 0.2229 0.0
C170 C 0.81264 0.60395 0.00479 0.0
O171 O 0.81768 0.62645 0.99541 0.0
O172 O 0.76684 0.64283 0.97488 0.0
Zn173 Zn 0.76026 0.61983 0.00473 0.0
O174 O 0.72871 0.59743 0.99909 0.0
C175 C 0.74219 0.66111 0.03448 0.0
O176 O 0.73264 0.66661 0.01214 0.0
O177 O 0.78977 0.59742 0.01009 0.0
C178 C 0.70926 0.60398 0.98682 0.0
O179 O 0.70925 0.62653 0.97676 0.0
C180 C 0.76393 0.63606 0.95157 0.0
O181 O 0.75671 0.61254 0.94592 0.0
O182 O 0.75519 0.6415 0.03628 0.0
C183 C 0.84831 0.06496 0.2746 0.0
O184 O 0.86905 0.06459 0.28858 0.0
O185 O 0.88667 0.01259 0.28693 0.0
Zn186 Zn 0.86481 0.01629 0.25565 0.0
O187 O 0.84192 0.985 0.2513 0.0
C188 C 0.90702 0.03516 0.22551 0.0
O189 O 0.91229 0.04829 0.24659 0.0
O190 O 0.8429 0.04651 0.25934 0.0
C191 C 0.84697 0.96725 0.23562 0.0
O192 O 0.86774 0.96925 0.2218 0.0
C193 C 0.90451 0.99713 0.28601 0.0
O194 O 0.908 0.98404 0.26478 0.0
O195 O 0.88735 0.02041 0.22479 0.0
C196 C 0.31211 0.10792 0.50015 0.0
O197 O 0.31645 0.12852 0.48696 0.0
O198 O 0.26695 0.1478 0.47257 0.0
Zn199 Zn 0.26031 0.12532 0.50282 0.0
O200 O 0.22878 0.10283 0.49743 0.0
C201 C 0.24287 0.1674 0.53207 0.0
O202 O 0.23372 0.1731 0.50962 0.0
O203 O 0.28988 0.10305 0.50867 0.0
C204 C 0.20891 0.10973 0.48609 0.0
O205 O 0.20845 0.13266 0.47699 0.0
C206 C 0.26275 0.14102 0.44944 0.0
O207 O 0.25397 0.11789 0.44424 0.0
O208 O 0.2553 0.14744 0.53408 0.0
C209 C 0.3355 0.54946 0.77567 0.0
O210 O 0.33158 0.52894 0.78908 0.0
O211 O 0.39521 0.51456 0.78602 0.0
Zn212 Zn 0.37464 0.51979 0.75405 0.0
O213 O 0.35083 0.48939 0.74782 0.0
C214 C 0.4191 0.51604 0.72103 0.0
O215 O 0.427 0.50107 0.73884 0.0
O216 O 0.35337 0.55014 0.75937 0.0
C217 C 0.35339 0.47339 0.72965 0.0
O218 O 0.37246 0.47641 0.7137 0.0
C219 C 0.40263 0.49274 0.7915 0.0
O220 O 0.3968 0.47345 0.77609 0.0
O221 O 0.39763 0.52599 0.72354 0.0
C222 C 0.71698 0.42763 0.50976 0.0
O223 O 0.73126 0.43091 0.48942 0.0
O224 O 0.74541 0.36666 0.48849 0.0
Zn225 Zn 0.75278 0.38943 0.51921 0.0
O226 O 0.78365 0.41232 0.5124 0.0
C227 C 0.76787 0.34614 0.54694 0.0
O228 O 0.7753 0.33899 0.52404 0.0
O229 O 0.72257 0.41079 0.52558 0.0
C230 C 0.80599 0.4083 0.52019 0.0
O231 O 0.80981 0.38837 0.53404 0.0
C232 C 0.75359 0.37163 0.46623 0.0
O233 O 0.76716 0.39266 0.46269 0.0
O234 O 0.75803 0.36756 0.54982 0.0
C235 C 0.67127 0.95912 0.77804 0.0
O236 O 0.67518 0.97887 0.79339 0.0
O237 O 0.61214 0.99514 0.78871 0.0
Zn238 Zn 0.63343 0.99061 0.7569 0.0
O239 O 0.65744 0.02121 0.75266 0.0
C240 C 0.58984 0.99578 0.72286 0.0
O241 O 0.58217 0.01121 0.74096 0.0
O242 O 0.65423 0.95979 0.76085 0.0
C243 C 0.65504 0.03698 0.73486 0.0
O244 O 0.63627 0.03354 0.71842 0.0
C245 C 0.60412 0.01662 0.79541 0.0
O246 O 0.61001 0.03643 0.78156 0.0
O247 O 0.61079 0.98497 0.72562 0.0
C248 C 0.00071 0.21565 0.91622 0.0
O249 O 0.98126 0.22985 0.92078 0.0
O250 O 0.97698 0.24212 0.85456 0.0
Zn251 Zn 0.00837 0.25078 0.87576 0.0
O252 O 0.00202 0.28087 0.89903 0.0
C253 C 0.0376 0.26868 0.83182 0.0
O254 O 0.0156 0.27661 0.82414 0.0
O255 O 0.01533 0.22096 0.89761 0.0
C256 C 0.01155 0.30303 0.89572 0.0
O257 O 0.02662 0.30721 0.87615 0.0
C258 C 0.96272 0.25913 0.84662 0.0
O259 O 0.96853 0.28298 0.85225 0.0
O260 O 0.03893 0.25743 0.85301 0.0
C261 C 0.49713 0.70307 0.39869 0.0
O262 O 0.48159 0.69828 0.37936 0.0
O263 O 0.46988 0.74602 0.35632 0.0
Zn264 Zn 0.50141 0.7538 0.37772 0.0
O265 O 0.49625 0.78512 0.39954 0.0
C266 C 0.53138 0.7684 0.33311 0.0
O267 O 0.5096 0.77623 0.32474 0.0
O268 O 0.50746 0.72509 0.40149 0.0
C269 C 0.50965 0.80557 0.39796 0.0
O270 O 0.52812 0.80705 0.38115 0.0
C271 C 0.45685 0.76371 0.34774 0.0
O272 O 0.46393 0.78732 0.35311 0.0
O273 O 0.53234 0.75839 0.35498 0.0
C274 C 0.99917 0.79854 0.58662 0.0
O275 O 0.97931 0.78329 0.5819 0.0
O276 O 0.97341 0.7705 0.64762 0.0
Zn277 Zn 0.00495 0.76393 0.62716 0.0
O278 O 0.99836 0.73343 0.60386 0.0
C279 C 0.04034 0.73711 0.65916 0.0
O280 O 0.02806 0.71668 0.65026 0.0
O281 O 0.01344 0.79413 0.60552 0.0
C282 C 0.01628 0.72212 0.59284 0.0
O283 O 0.03992 0.73022 0.59679 0.0
C284 C 0.965 0.75384 0.66295 0.0
O285 O 0.97683 0.73255 0.66461 0.0
O286 O 0.03389 0.75872 0.65184 0.0
C287 C 0.49707 0.29547 0.09162 0.0
O288 O 0.47691 0.28053 0.08732 0.0
O289 O 0.47556 0.26645 0.15483 0.0
Zn290 Zn 0.50492 0.25978 0.13124 0.0
O291 O 0.49667 0.22922 0.10873 0.0
C292 C 0.54165 0.26672 0.17172 0.0
O293 O 0.52749 0.28588 0.17754 0.0
O294 O 0.51217 0.29034 0.10962 0.0
C295 C 0.51168 0.22328 0.0908 0.0
O296 O 0.53232 0.23752 0.08706 0.0
C297 C 0.45276 0.2598 0.14902 0.0
O298 O 0.44805 0.24822 0.12695 0.0
O299 O 0.53578 0.25282 0.15234 0.0
H300 H 0.20503 0.78813 0.82002 0.0
H301 H 0.23021 0.72846 0.8682 0.0
H302 H 0.21458 0.81899 0.85444 0.0
H303 H 0.24099 0.75962 0.90179 0.0
H304 H 0.28559 0.82913 0.93903 0.0
H305 H 0.27437 0.79907 0.90433 0.0
H306 H 0.1982 0.82617 0.90296 0.0
H307 H 0.20918 0.85599 0.93813 0.0
C308 C 0.21242 0.7815 0.83789 0.0
C309 C 0.21694 0.7557 0.84116 0.0
C310 C 0.21801 0.79923 0.85752 0.0
C311 C 0.22865 0.79162 0.8806 0.0
C312 C 0.23309 0.76596 0.884 0.0
C313 C 0.22707 0.74817 0.86463 0.0
C314 C 0.26648 0.82877 0.93128 0.0
C315 C 0.24824 0.84488 0.94131 0.0
C316 C 0.26006 0.81151 0.91153 0.0
C317 C 0.23545 0.81036 0.90109 0.0
C318 C 0.21733 0.82682 0.91068 0.0
C319 C 0.2236 0.84375 0.93082 0.0
H320 H 0.00368 0.49801 0.42321 0.0
H321 H 0.99938 0.57723 0.40602 0.0
H322 H 0.02898 0.49154 0.38481 0.0
H323 H 0.02562 0.57101 0.36827 0.0
H324 H 0.05209 0.54627 0.28911 0.0
H325 H 0.02471 0.55146 0.32619 0.0
H326 H 0.0712 0.50175 0.36903 0.0
H327 H 0.09823 0.49607 0.33175 0.0
C328 C 0.00803 0.51403 0.41117 0.0
C329 C 0.99953 0.53815 0.41771 0.0
C330 C 0.02281 0.51038 0.38933 0.0
C331 C 0.02945 0.53077 0.3735 0.0
C332 C 0.02067 0.55483 0.37988 0.0
C333 C 0.00588 0.55847 0.4017 0.0
C334 C 0.05646 0.53641 0.30642 0.0
C335 C 0.07738 0.52079 0.30747 0.0
C336 C 0.04082 0.53949 0.32774 0.0
C337 C 0.04576 0.52707 0.35063 0.0
C338 C 0.06663 0.51133 0.35161 0.0
C339 C 0.08224 0.50821 0.33028 0.0
H340 H 0.79301 0.71542 0.80964 0.0
H341 H 0.77375 0.77418 0.86391 0.0
H342 H 0.78719 0.68396 0.84259 0.0
H343 H 0.76641 0.7425 0.8965 0.0
H344 H 0.78423 0.68427 0.9562 0.0
H345 H 0.78964 0.7155 0.92293 0.0
H346 H 0.75616 0.66206 0.86769 0.0
H347 H 0.75157 0.63052 0.90087 0.0
C348 C 0.78744 0.72164 0.82859 0.0
C349 C 0.78407 0.7474 0.83414 0.0
C350 C 0.78376 0.70351 0.84743 0.0
C351 C 0.7764 0.71064 0.87229 0.0
C352 C 0.77248 0.73634 0.8777 0.0
C353 C 0.77633 0.7545 0.85888 0.0
C354 C 0.77808 0.67916 0.93694 0.0
C355 C 0.76752 0.65488 0.93118 0.0
C356 C 0.781 0.69715 0.91787 0.0
C357 C 0.77323 0.6914 0.89259 0.0
C358 C 0.76268 0.66707 0.88685 0.0
C359 C 0.75994 0.64899 0.90591 0.0
H360 H 1.00028 0.93762 0.40411 0.0
H361 H 0.00041 0.0178 0.42145 0.0
H362 H 0.9717 0.94336 0.36821 0.0
H363 H 0.97264 0.0237 0.38482 0.0
H364 H 0.9019 0.02029 0.33319 0.0
H365 H 0.92932 0.01456 0.37012 0.0
H366 H 0.9727 0.96152 0.32617 0.0
H367 H 0.94502 0.96679 0.28949 0.0
C368 C 0.99413 0.95647 0.40032 0.0
C369 C 0.0026 0.97725 0.41568 0.0
C370 C 0.97799 0.9598 0.37953 0.0
C371 C 0.96996 0.98401 0.37356 0.0
C372 C 0.97828 0.00478 0.38903 0.0
C373 C 0.99443 0.00144 0.40984 0.0
C374 C 0.91727 0.00738 0.33143 0.0
C375 C 0.92122 0.99394 0.30842 0.0
C376 C 0.93308 0.00421 0.35255 0.0
C377 C 0.95318 0.98754 0.35112 0.0
C378 C 0.95716 0.9742 0.32805 0.0
C379 C 0.94136 0.97735 0.30697 0.0
H380 H 0.22905 0.29682 0.6346 0.0
H381 H 0.21334 0.2329 0.68303 0.0
H382 H 0.23562 0.26817 0.59841 0.0
H383 H 0.21907 0.20418 0.64652 0.0
H384 H 0.25905 0.16136 0.58132 0.0
H385 H 0.25278 0.18947 0.61815 0.0
H386 H 0.21083 0.23908 0.57062 0.0
H387 H 0.21744 0.21131 0.53378 0.0
C388 C 0.22706 0.27663 0.63753 0.0
C389 C 0.22075 0.26713 0.66171 0.0
C390 C 0.23054 0.26021 0.61672 0.0
C391 C 0.22779 0.23389 0.61957 0.0
C392 C 0.22154 0.22435 0.64376 0.0
C393 C 0.218 0.2408 0.6646 0.0
C394 C 0.24849 0.17827 0.57874 0.0
C395 C 0.23882 0.18413 0.55459 0.0
C396 C 0.24477 0.19429 0.59988 0.0
C397 C 0.23136 0.21654 0.5973 0.0
C398 C 0.22157 0.22228 0.57318 0.0
C399 C 0.22525 0.20627 0.55208 0.0
H400 H 0.4753 0.5424 0.56688 0.0
H401 H 0.54305 0.54008 0.61332 0.0
H402 H 0.44909 0.53569 0.60477 0.0
H403 H 0.51693 0.53371 0.65125 0.0
H404 H 0.46379 0.49472 0.7082 0.0
H405 H 0.48952 0.502 0.67026 0.0
H406 H 0.4362 0.55588 0.64415 0.0
H407 H 0.41004 0.54808 0.68184 0.0
C408 C 0.48457 0.5407 0.58524 0.0
C409 C 0.51123 0.54165 0.58711 0.0
C410 C 0.46956 0.53691 0.60696 0.0
C411 C 0.48089 0.53409 0.63107 0.0
C412 C 0.50757 0.53533 0.63293 0.0
C413 C 0.52255 0.53901 0.6112 0.0
C414 C 0.45753 0.50814 0.69439 0.0
C415 C 0.43485 0.52082 0.69806 0.0
C416 C 0.47239 0.51243 0.67268 0.0
C417 C 0.46499 0.52959 0.65416 0.0
C418 C 0.4423 0.5423 0.65786 0.0
C419 C 0.42737 0.53794 0.67955 0.0
H420 H 0.77446 0.21576 0.64474 0.0
H421 H 0.79011 0.2796 0.69597 0.0
H422 H 0.76865 0.2445 0.6096 0.0
H423 H 0.7855 0.30831 0.66056 0.0
H424 H 0.75126 0.35332 0.59605 0.0
H425 H 0.75459 0.32472 0.63178 0.0
H426 H 0.79422 0.27234 0.58333 0.0
H427 H 0.79034 0.30058 0.54751 0.0
C428 C 0.77652 0.23593 0.64854 0.0
C429 C 0.78281 0.24536 0.67317 0.0
C430 C 0.77352 0.25241 0.62831 0.0
C431 C 0.7768 0.27872 0.63219 0.0
C432 C 0.78265 0.28817 0.65692 0.0
C433 C 0.78559 0.27169 0.67717 0.0
C434 C 0.7607 0.33571 0.59304 0.0
C435 C 0.7705 0.32922 0.56891 0.0
C436 C 0.76271 0.31936 0.61356 0.0
C437 C 0.7746 0.29618 0.61043 0.0
C438 C 0.78455 0.28982 0.58632 0.0
C439 C 0.78248 0.30612 0.5658 0.0
H440 H 0.50389 0.93654 0.59061 0.0
H441 H 0.50537 0.01779 0.58312 0.0
H442 H 0.52909 0.94147 0.62975 0.0
H443 H 0.53007 0.02263 0.62252 0.0
H444 H 0.54806 0.0209 0.70843 0.0
H445 H 0.5235 0.01525 0.66903 0.0
H446 H 0.57282 0.9565 0.64392 0.0
H447 H 0.59744 0.96203 0.68346 0.0
C448 C 0.50975 0.95543 0.59716 0.0
C449 C 0.50254 0.97677 0.5837 0.0
C450 C 0.52414 0.95824 0.61962 0.0
C451 C 0.53147 0.98243 0.62924 0.0
C452 C 0.52437 0.00375 0.61577 0.0
C453 C 0.51016 0.00096 0.59323 0.0
C454 C 0.55367 0.00672 0.69457 0.0
C455 C 0.57473 0.99193 0.69909 0.0
C456 C 0.53968 0.00361 0.67192 0.0
C457 C 0.54629 0.9855 0.65336 0.0
C458 C 0.56717 0.97048 0.65798 0.0
C459 C 0.58132 0.97374 0.68056 0.0
H460 H 0.81682 0.20606 0.78213 0.0
H461 H 0.86013 0.23613 0.71859 0.0
H462 H 0.85307 0.21561 0.8105 0.0
H463 H 0.89563 0.24672 0.7473 0.0
H464 H 0.93753 0.28968 0.81474 0.0
H465 H 0.90138 0.27813 0.7869 0.0
H466 H 0.90102 0.20167 0.81411 0.0
H467 H 0.93755 0.21304 0.84173 0.0
C468 C 0.83403 0.21451 0.77413 0.0
C469 C 0.83537 0.22048 0.74803 0.0
C470 C 0.85471 0.22008 0.79043 0.0
C471 C 0.87698 0.23208 0.78106 0.0
C472 C 0.8785 0.2378 0.75503 0.0
C473 C 0.85805 0.23186 0.73866 0.0
C474 C 0.92972 0.27042 0.81485 0.0
C475 C 0.9404 0.25224 0.83036 0.0
C476 C 0.90913 0.26381 0.79884 0.0
C477 C 0.89852 0.23902 0.79838 0.0
C478 C 0.90884 0.22093 0.81423 0.0
C479 C 0.92977 0.22742 0.8299 0.0
H480 H 0.52284 0.93534 0.50247 0.0
H481 H 0.44186 0.92053 0.49447 0.0
H482 H 0.53057 0.9002 0.473 0.0
H483 H 0.44956 0.88606 0.46422 0.0
H484 H 0.47359 0.80836 0.43534 0.0
H485 H 0.46583 0.84387 0.4642 0.0
H486 H 0.52621 0.88783 0.42813 0.0
H487 H 0.53435 0.8521 0.39956 0.0
C488 C 0.50669 0.9246 0.49439 0.0
C489 C 0.48174 0.93069 0.50088 0.0
C490 C 0.51111 0.90465 0.47727 0.0
C491 C 0.49068 0.89031 0.46624 0.0
C492 C 0.46573 0.89654 0.47259 0.0
C493 C 0.46131 0.91649 0.48969 0.0
C494 C 0.48521 0.8256 0.43353 0.0
C495 C 0.50463 0.82737 0.41516 0.0
C496 C 0.48065 0.84603 0.44999 0.0
C497 C 0.49538 0.86872 0.44848 0.0
C498 C 0.51473 0.87052 0.43002 0.0
C499 C 0.5193 0.85008 0.41355 0.0
H500 H 0.17588 0.2538 0.74311 0.0
H501 H 0.15911 0.33272 0.7376 0.0
H502 H 0.13862 0.2469 0.77027 0.0
H503 H 0.12217 0.32594 0.76517 0.0
H504 H 0.04218 0.29621 0.78833 0.0
H505 H 0.08 0.30338 0.76222 0.0
H506 H 0.12308 0.25863 0.81362 0.0
H507 H 0.08519 0.25125 0.83972 0.0
C508 C 0.16424 0.26966 0.74775 0.0
C509 C 0.17039 0.29379 0.73821 0.0
C510 C 0.14305 0.26577 0.76347 0.0
C511 C 0.12746 0.28588 0.76982 0.0
C512 C 0.1337 0.31003 0.76041 0.0
C513 C 0.15498 0.31396 0.74484 0.0
C514 C 0.0597 0.28789 0.79409 0.0
C515 C 0.06065 0.27313 0.8161 0.0
C516 C 0.08141 0.29214 0.77921 0.0
C517 C 0.10452 0.2816 0.78589 0.0
C518 C 0.10548 0.2668 0.80786 0.0
C519 C 0.08381 0.26269 0.82287 0.0
H520 H 0.49004 0.57823 0.50495 0.0
H521 H 0.5697 0.60099 0.50153 0.0
H522 H 0.48027 0.61113 0.47479 0.0
H523 H 0.56004 0.63331 0.47081 0.0
H524 H 0.52965 0.70635 0.43956 0.0
H525 H 0.5388 0.67352 0.46982 0.0
H526 H 0.48666 0.62151 0.42957 0.0
H527 H 0.47717 0.65449 0.39945 0.0
C528 C 0.50545 0.59027 0.49777 0.0
C529 C 0.53064 0.58702 0.50565 0.0
C530 C 0.49989 0.60893 0.48029 0.0
C531 C 0.51938 0.62483 0.47041 0.0
C532 C 0.54456 0.62154 0.47827 0.0
C533 C 0.55013 0.60284 0.49566 0.0
C534 C 0.5201 0.68793 0.43714 0.0
C535 C 0.50268 0.68305 0.41706 0.0
C536 C 0.52547 0.66906 0.45442 0.0
C537 C 0.51351 0.64489 0.45207 0.0
C538 C 0.49599 0.64003 0.43206 0.0
C539 C 0.49067 0.65889 0.41471 0.0
H540 H 0.81851 0.79168 0.728 0.0
H541 H 0.8634 0.76828 0.79194 0.0
H542 H 0.85453 0.78543 0.6995 0.0
H543 H 0.89918 0.76175 0.76343 0.0
H544 H 0.94535 0.72392 0.70054 0.0
H545 H 0.9094 0.73193 0.72834 0.0
H546 H 0.89841 0.80257 0.69069 0.0
H547 H 0.93435 0.79448 0.6626 0.0
C548 C 0.83613 0.78547 0.73602 0.0
C549 C 0.838 0.78029 0.76222 0.0
C550 C 0.85673 0.78186 0.71969 0.0
C551 C 0.87961 0.7729 0.7292 0.0
C552 C 0.88164 0.76821 0.75545 0.0
C553 C 0.86112 0.77192 0.77178 0.0
C554 C 0.93527 0.74114 0.6981 0.0
C555 C 0.94276 0.75858 0.67937 0.0
C556 C 0.91476 0.7458 0.71416 0.0
C557 C 0.90117 0.76795 0.7118 0.0
C558 C 0.90842 0.78526 0.69285 0.0
C559 C 0.92906 0.78066 0.67685 0.0
H560 H 0.03815 0.94704 0.52571 0.0
H561 H 0.02027 0.90007 0.45905 0.0
H562 H 0.03045 0.91068 0.55302 0.0
H563 H 0.01257 0.86376 0.48632 0.0
H564 H 0.97262 0.81279 0.54475 0.0
H565 H 0.98158 0.84897 0.51769 0.0
H566 H 0.04764 0.86997 0.56373 0.0
H567 H 0.03843 0.83398 0.59114 0.0
C568 C 0.03285 0.9289 0.51687 0.0
C569 C 0.02972 0.92647 0.49021 0.0
C570 C 0.02843 0.90806 0.53252 0.0
C571 C 0.02079 0.88434 0.52186 0.0
C572 C 0.01799 0.88186 0.49518 0.0
C573 C 0.02241 0.90267 0.47955 0.0
C574 C 0.98907 0.8251 0.54913 0.0
C575 C 0.0048 0.82049 0.57013 0.0
C576 C 0.99429 0.84577 0.53351 0.0
C577 C 0.01537 0.86233 0.5385 0.0
C578 C 0.0311 0.85773 0.55953 0.0
C579 C 0.02589 0.83702 0.57515 0.0
H580 H 0.14734 0.68568 0.77226 0.0
H581 H 0.17361 0.76218 0.75709 0.0
H582 H 0.11187 0.68989 0.74281 0.0
H583 H 0.13889 0.76623 0.72669 0.0
H584 H 0.06105 0.77401 0.69101 0.0
H585 H 0.09503 0.77021 0.72219 0.0
H586 H 0.10192 0.69178 0.69935 0.0
H587 H 0.06709 0.69537 0.66915 0.0
C588 C 0.14556 0.70334 0.76242 0.0
C589 C 0.16314 0.72361 0.76691 0.0
C590 C 0.12534 0.70575 0.7454 0.0
C591 C 0.12247 0.72837 0.73215 0.0
C592 C 0.14013 0.74867 0.73681 0.0
C593 C 0.16012 0.74636 0.75414 0.0
C594 C 0.06984 0.75597 0.6927 0.0
C595 C 0.06137 0.73498 0.67767 0.0
C596 C 0.08946 0.7538 0.71049 0.0
C597 C 0.10135 0.73067 0.71339 0.0
C598 C 0.09294 0.70976 0.69811 0.0
C599 C 0.07307 0.71184 0.68062 0.0
H600 H 0.94369 0.59461 0.50951 0.0
H601 H 0.02314 0.59164 0.48932 0.0
H602 H 0.95339 0.63082 0.53739 0.0
H603 H 0.0324 0.62945 0.51505 0.0
H604 H 0.04711 0.6832 0.58218 0.0
H605 H 0.03743 0.64551 0.55598 0.0
H606 H 0.96335 0.67354 0.53872 0.0
H607 H 0.97262 0.71032 0.56636 0.0
C608 C 0.96325 0.60164 0.51093 0.0
C609 C 0.98259 0.58994 0.49708 0.0
C610 C 0.96878 0.62285 0.52662 0.0
C611 C 0.99372 0.63338 0.52854 0.0
C612 C 0.01302 0.6218 0.51452 0.0
C613 C 0.00759 0.60026 0.49926 0.0
C614 C 0.02877 0.68122 0.57277 0.0
C615 C 0.0106 0.69963 0.57633 0.0
C616 C 0.02322 0.65966 0.55755 0.0
C617 C 0.99957 0.65628 0.54502 0.0
C618 C 0.98155 0.67503 0.54842 0.0
C619 C 0.9869 0.69628 0.56412 0.0
H620 H 0.74426 0.8358 0.2568 0.0
H621 H 0.74768 0.84576 0.17505 0.0
H622 H 0.77342 0.87252 0.26311 0.0
H623 H 0.77698 0.88218 0.18138 0.0
H624 H 0.85023 0.92787 0.20137 0.0
H625 H 0.8211 0.89113 0.19608 0.0
H626 H 0.77481 0.91905 0.25773 0.0
H627 H 0.80408 0.95574 0.26324 0.0
C628 C 0.75107 0.84592 0.2402 0.0
C629 C 0.74373 0.83776 0.21541 0.0
C630 C 0.76779 0.86692 0.24382 0.0
C631 C 0.7776 0.88014 0.22273 0.0
C632 C 0.77011 0.8721 0.19799 0.0
C633 C 0.75334 0.85121 0.19437 0.0
C634 C 0.83388 0.92618 0.21384 0.0
C635 C 0.82946 0.94477 0.23269 0.0
C636 C 0.81711 0.90518 0.21071 0.0
C637 C 0.79562 0.90224 0.22643 0.0
C638 C 0.79133 0.92068 0.24547 0.0
C639 C 0.80803 0.94176 0.24853 0.0
H640 H 0.78223 0.21217 0.29503 0.0
H641 H 0.71755 0.16 0.28506 0.0
H642 H 0.81081 0.17744 0.28926 0.0
H643 H 0.74612 0.12514 0.27953 0.0
H644 H 0.80527 0.07265 0.24687 0.0
H645 H 0.77704 0.10788 0.25065 0.0
H646 H 0.82403 0.14074 0.31154 0.0
H647 H 0.85259 0.10585 0.30735 0.0
C648 C 0.77413 0.19323 0.29174 0.0
C649 C 0.74763 0.1888 0.29059 0.0
C650 C 0.7905 0.17331 0.28848 0.0
C651 C 0.78078 0.14846 0.28406 0.0
C652 C 0.75427 0.14409 0.28257 0.0
C653 C 0.73788 0.16405 0.28575 0.0
C654 C 0.80962 0.08742 0.26104 0.0
C655 C 0.83121 0.08643 0.2768 0.0
C656 C 0.79334 0.10755 0.2633 0.0
C657 C 0.79824 0.12715 0.28141 0.0
C658 C 0.81988 0.12617 0.29713 0.0
C659 C 0.83619 0.10607 0.29483 0.0
H660 H 0.41697 0.00365 0.93838 0.0
H661 H 0.43496 0.01068 0.01891 0.0
H662 H 0.38094 0.97498 0.94811 0.0
H663 H 0.39837 0.98297 0.02871 0.0
H664 H 0.34662 0.91242 0.03552 0.0
H665 H 0.38355 0.93933 0.0247 0.0
H666 H 0.33925 0.97577 0.96753 0.0
H667 H 0.30247 0.94846 0.97792 0.0
C668 C 0.41327 0.99904 0.95815 0.0
C669 C 0.42883 0.0095 0.97787 0.0
C670 C 0.39245 0.98284 0.96375 0.0
C671 C 0.38671 0.9767 0.9892 0.0
C672 C 0.40238 0.98706 0.00888 0.0
C673 C 0.42318 0.00322 0.00329 0.0
C674 C 0.34475 0.92614 0.02061 0.0
C675 C 0.32156 0.92831 0.00763 0.0
C676 C 0.3659 0.94167 0.0145 0.0
C677 C 0.36437 0.95977 0.99528 0.0
C678 C 0.3412 0.96181 0.98219 0.0
C679 C 0.32006 0.94625 0.98828 0.0
H680 H 0.28356 0.35723 0.28119 0.0
H681 H 0.21979 0.30454 0.29175 0.0
H682 H 0.25453 0.39169 0.27764 0.0
H683 H 0.19065 0.33897 0.28792 0.0
H684 H 0.14811 0.41095 0.30611 0.0
H685 H 0.17701 0.37641 0.31008 0.0
H686 H 0.22325 0.40756 0.24926 0.0
H687 H 0.19474 0.44241 0.24575 0.0
C688 C 0.2633 0.35298 0.28251 0.0
C689 C 0.25397 0.32815 0.28669 0.0
C690 C 0.24664 0.37273 0.28044 0.0
C691 C 0.22022 0.36813 0.28242 0.0
C692 C 0.2109 0.34327 0.28667 0.0
C693 C 0.22758 0.32352 0.28883 0.0
C694 C 0.16444 0.41043 0.29358 0.0
C695 C 0.16913 0.42949 0.27566 0.0
C696 C 0.18095 0.39053 0.29576 0.0
C697 C 0.2025 0.38918 0.28001 0.0
C698 C 0.20707 0.40819 0.26198 0.0
C699 C 0.19062 0.42812 0.25986 0.0
H700 H 0.10762 0.97625 0.46953 0.0
H701 H 0.05781 0.03873 0.46431 0.0
H702 H 0.14398 0.00587 0.47527 0.0
H703 H 0.09399 0.06848 0.47081 0.0
H704 H 0.16716 0.11475 0.45575 0.0
H705 H 0.13086 0.08511 0.4501 0.0
H706 H 0.16356 0.0353 0.50462 0.0
H707 H 0.20027 0.0645 0.50948 0.0
C708 C 0.10445 0.99635 0.46995 0.0
C709 C 0.07993 0.00521 0.46646 0.0
C710 C 0.12526 0.01336 0.47331 0.0
C711 C 0.12199 0.03963 0.47351 0.0
C712 C 0.09734 0.04842 0.47028 0.0
C713 C 0.07657 0.0314 0.46667 0.0
C714 C 0.16658 0.09747 0.46653 0.0
C715 C 0.18662 0.09195 0.48301 0.0
C716 C 0.14568 0.08052 0.46341 0.0
C717 C 0.1442 0.05776 0.47691 0.0
C718 C 0.16421 0.0524 0.49356 0.0
C719 C 0.18522 0.06923 0.49648 0.0
H720 H 0.75764 0.16858 0.76113 0.0
H721 H 0.75701 0.15685 0.67915 0.0
H722 H 0.72878 0.13165 0.76576 0.0
H723 H 0.72828 0.11995 0.68376 0.0
H724 H 0.6548 0.07412 0.69938 0.0
H725 H 0.68447 0.11031 0.69545 0.0
H726 H 0.72642 0.08568 0.76088 0.0
H727 H 0.69638 0.04964 0.76514 0.0
C728 C 0.75156 0.15795 0.74412 0.0
C729 C 0.75952 0.16573 0.71976 0.0
C730 C 0.73503 0.13679 0.74677 0.0
C731 C 0.7261 0.12291 0.72512 0.0
C732 C 0.73439 0.13049 0.7008 0.0
C733 C 0.75088 0.15163 0.69816 0.0
C734 C 0.67033 0.07639 0.71295 0.0
C735 C 0.6732 0.05896 0.73257 0.0
C736 C 0.68746 0.09708 0.7106 0.0
C737 C 0.7079 0.10086 0.72778 0.0
C738 C 0.71073 0.08348 0.74748 0.0
C739 C 0.69358 0.06274 0.74984 0.0
H740 H 0.44148 0.01107 0.48804 0.0
H741 H 0.4172 0.00468 0.56657 0.0
H742 H 0.40741 0.03986 0.48005 0.0
H743 H 0.38367 0.03409 0.55881 0.0
H744 H 0.30972 0.06452 0.5277 0.0
H745 H 0.3436 0.03557 0.53533 0.0
H746 H 0.39534 0.08289 0.49142 0.0
H747 H 0.36133 0.11171 0.48343 0.0
C748 C 0.42884 0.01579 0.50358 0.0
C749 C 0.43202 0.00558 0.52793 0.0
C750 C 0.4095 0.03249 0.49908 0.0
C751 C 0.39285 0.03929 0.5188 0.0
C752 C 0.39602 0.02904 0.54314 0.0
C753 C 0.4154 0.01241 0.54766 0.0
C754 C 0.32831 0.06878 0.51966 0.0
C755 C 0.3328 0.09045 0.50495 0.0
C756 C 0.34778 0.05224 0.52416 0.0
C757 C 0.37218 0.05693 0.51401 0.0
C758 C 0.37667 0.07858 0.49926 0.0
C759 C 0.35721 0.09518 0.49481 0.0
H760 H 0.56758 0.48315 0.54547 0.0
H761 H 0.61137 0.54951 0.52204 0.0
H762 H 0.60453 0.45753 0.5387 0.0
H763 H 0.6483 0.52388 0.51525 0.0
H764 H 0.69999 0.46514 0.47974 0.0
H765 H 0.66301 0.49063 0.48663 0.0
H766 H 0.64662 0.45131 0.55666 0.0
H767 H 0.68335 0.42549 0.54957 0.0
C768 C 0.58516 0.49231 0.53909 0.0
C769 C 0.58653 0.51838 0.53429 0.0
C770 C 0.60634 0.47762 0.53521 0.0
C771 C 0.62937 0.48866 0.52643 0.0
C772 C 0.63074 0.51473 0.52165 0.0
C773 C 0.60957 0.52941 0.52554 0.0
C774 C 0.68851 0.46192 0.49662 0.0
C775 C 0.69463 0.44326 0.5141 0.0
C776 C 0.66738 0.47664 0.50063 0.0
C777 C 0.65187 0.47303 0.52221 0.0
C778 C 0.65799 0.45436 0.53969 0.0
C779 C 0.67914 0.43966 0.53569 0.0
H780 H 0.73339 0.23731 0.36882 0.0
H781 H 0.71634 0.29884 0.31938 0.0
H782 H 0.74209 0.26748 0.40395 0.0
H783 H 0.7242 0.32893 0.35474 0.0
H784 H 0.76759 0.37662 0.41619 0.0
H785 H 0.75948 0.34658 0.38086 0.0
H786 H 0.71915 0.29607 0.43205 0.0
H787 H 0.72761 0.32586 0.46746 0.0
C788 C 0.73156 0.25729 0.36545 0.0
C789 C 0.7242 0.2657 0.34132 0.0
C790 C 0.73627 0.27454 0.38565 0.0
C791 C 0.73378 0.3006 0.38215 0.0
C792 C 0.72651 0.30901 0.35799 0.0
C793 C 0.72175 0.29175 0.33781 0.0
C794 C 0.75698 0.35912 0.41992 0.0
C795 C 0.74827 0.35364 0.44466 0.0
C796 C 0.75222 0.34196 0.39963 0.0
C797 C 0.73869 0.31893 0.40365 0.0
C798 C 0.72992 0.3135 0.42839 0.0
C799 C 0.73463 0.33066 0.44865 0.0
H800 H 0.47459 0.03249 0.8962 0.0
H801 H 0.53928 0.03279 0.94704 0.0
H802 H 0.50281 0.02663 0.85943 0.0
H803 H 0.56742 0.02631 0.91034 0.0
H804 H 0.59989 0.98559 0.83646 0.0
H805 H 0.57158 0.98973 0.87335 0.0
H806 H 0.54138 0.05672 0.84122 0.0
H807 H 0.57004 0.05305 0.80469 0.0
C808 C 0.4948 0.03099 0.89946 0.0
C809 C 0.50486 0.03309 0.92433 0.0
C810 C 0.51089 0.02777 0.87851 0.0
C811 C 0.5372 0.02604 0.88217 0.0
C812 C 0.54717 0.02748 0.9071 0.0
C813 C 0.53115 0.03126 0.928 0.0
C814 C 0.58724 0.00121 0.83733 0.0
C815 C 0.5872 0.01904 0.81776 0.0
C816 C 0.57114 0.00359 0.85841 0.0
C817 C 0.55432 0.02347 0.85997 0.0
C818 C 0.55409 0.04114 0.84032 0.0
C819 C 0.57058 0.03911 0.81954 0.0
H820 H 0.32156 0.25338 0.34312 0.0
H821 H 0.24193 0.24328 0.3239 0.0
H822 H 0.31635 0.22189 0.37648 0.0
H823 H 0.23668 0.21185 0.35741 0.0
H824 H 0.24634 0.1367 0.39982 0.0
H825 H 0.25181 0.16782 0.36615 0.0
H826 H 0.29338 0.21816 0.41871 0.0
H827 H 0.2879 0.18717 0.4524 0.0
C828 C 0.30296 0.24436 0.34602 0.0
C829 C 0.28214 0.25074 0.33093 0.0
C830 C 0.29995 0.22649 0.3652 0.0
C831 C 0.27612 0.21441 0.3695 0.0
C832 C 0.25531 0.22072 0.35436 0.0
C833 C 0.25825 0.23883 0.33537 0.0
C834 C 0.25673 0.15436 0.40416 0.0
C835 C 0.26669 0.15946 0.42877 0.0
C836 C 0.2597 0.17223 0.38493 0.0
C837 C 0.27298 0.19541 0.38984 0.0
C838 C 0.28322 0.20037 0.41434 0.0
C839 C 0.27998 0.18266 0.43364 0.0
H840 H 0.52997 0.47279 0.89264 0.0
H841 H 0.46617 0.47639 0.94408 0.0
H842 H 0.50146 0.47776 0.85615 0.0
H843 H 0.43766 0.4819 0.90755 0.0
H844 H 0.40699 0.52315 0.83429 0.0
H845 H 0.4343 0.51759 0.8716 0.0
H846 H 0.46227 0.44948 0.83701 0.0
H847 H 0.43465 0.45462 0.79998 0.0
C848 C 0.50986 0.47479 0.89608 0.0
C849 C 0.50017 0.47423 0.92106 0.0
C850 C 0.49359 0.4775 0.87527 0.0
C851 C 0.46745 0.4802 0.87914 0.0
C852 C 0.45779 0.47995 0.90415 0.0
C853 C 0.474 0.4767 0.92495 0.0
C854 C 0.4189 0.50695 0.83472 0.0
C855 C 0.41871 0.48931 0.81425 0.0
C856 C 0.4344 0.50374 0.85607 0.0
C857 C 0.45034 0.48315 0.85705 0.0
C858 C 0.4502 0.46557 0.83659 0.0
C859 C 0.43433 0.46847 0.8155 0.0
H860 H 0.72705 0.78953 0.13801 0.0
H861 H 0.71011 0.72516 0.18546 0.0
H862 H 0.73428 0.76122 0.10168 0.0
H863 H 0.7166 0.69676 0.14881 0.0
H864 H 0.75796 0.65473 0.08382 0.0
H865 H 0.75115 0.68248 0.12083 0.0
H866 H 0.70952 0.73233 0.0733 0.0
H867 H 0.7166 0.7049 0.0363 0.0
C868 C 0.72495 0.76931 0.14069 0.0
C869 C 0.71808 0.75957 0.16462 0.0
C870 C 0.72881 0.7531 0.1198 0.0
C871 C 0.72593 0.72675 0.12234 0.0
C872 C 0.71917 0.71697 0.1463 0.0
C873 C 0.71521 0.73322 0.16721 0.0
C874 C 0.74736 0.67161 0.08128 0.0
C875 C 0.73789 0.67764 0.05709 0.0
C876 C 0.74333 0.68742 0.10251 0.0
C877 C 0.72984 0.70963 0.09998 0.0
C878 C 0.72028 0.71555 0.07581 0.0
C879 C 0.72424 0.69973 0.05463 0.0
H880 H 0.00712 0.08602 0.1033 0.0
H881 H 1.00027 0.00496 0.09187 0.0
H882 H 0.97945 0.08284 0.1405 0.0
H883 H 0.97327 0.00166 0.12966 0.0
H884 H 0.90231 0.0096 0.17966 0.0
H885 H 0.93053 0.01254 0.14286 0.0
H886 H 0.97894 0.06734 0.18407 0.0
H887 H 0.95049 0.06476 0.22073 0.0
C888 C 0.99972 0.06751 0.10876 0.0
C889 C 0.00579 0.04575 0.09456 0.0
C890 C 0.98409 0.06566 0.13025 0.0
C891 C 0.97412 0.042 0.13803 0.0
C892 C 0.9804 0.0202 0.12399 0.0
C893 C 0.99609 0.02205 0.10252 0.0
C894 C 0.91895 0.02231 0.18088 0.0
C895 C 0.92411 0.037 0.20312 0.0
C896 C 0.93522 0.02385 0.15983 0.0
C897 C 0.95701 0.04014 0.16054 0.0
C898 C 0.96216 0.05482 0.1828 0.0
C899 C 0.9459 0.05326 0.20386 0.0
H900 H 0.32051 0.75746 0.15857 0.0
H901 H 0.23989 0.75798 0.17364 0.0
H902 H 0.31499 0.78496 0.12228 0.0
H903 H 0.23428 0.78512 0.1369 0.0
H904 H 0.24036 0.85529 0.08529 0.0
H905 H 0.24549 0.82893 0.12267 0.0
H906 H 0.29527 0.78141 0.0794 0.0
H907 H 0.29036 0.80774 0.0422 0.0
C908 C 0.30162 0.76358 0.1542 0.0
C909 C 0.28063 0.75557 0.16897 0.0
C910 C 0.29843 0.77912 0.13326 0.0
C911 C 0.27419 0.78713 0.12667 0.0
C912 C 0.25322 0.7794 0.14162 0.0
C913 C 0.25639 0.76369 0.16249 0.0
C914 C 0.25241 0.83922 0.08377 0.0
C915 C 0.26499 0.83365 0.06077 0.0
C916 C 0.25523 0.82406 0.10513 0.0
C917 C 0.27084 0.80314 0.10399 0.0
C918 C 0.28337 0.79759 0.08099 0.0
C919 C 0.28043 0.81261 0.05962 0.0
H920 H 0.03748 0.46319 0.0661 0.0
H921 H 0.96994 0.47575 0.11055 0.0
H922 H 0.06312 0.46598 0.10503 0.0
H923 H 0.99571 0.4793 0.14945 0.0
H924 H 0.0465 0.45545 0.21577 0.0
H925 H 0.02072 0.45233 0.17691 0.0
H926 H 0.07766 0.49759 0.13726 0.0
H927 H 0.10359 0.50046 0.17594 0.0
C928 C 0.02812 0.46654 0.0842 0.0
C929 C 0.00168 0.4692 0.08526 0.0
C930 C 0.04284 0.46839 0.10647 0.0
C931 C 0.03145 0.47287 0.13034 0.0
C932 C 0.00501 0.47558 0.1314 0.0
C933 C 0.9903 0.47383 0.10909 0.0
C934 C 0.05355 0.4647 0.19876 0.0
C935 C 0.07713 0.47815 0.19895 0.0
C936 C 0.03869 0.46304 0.17654 0.0
C937 C 0.04714 0.47472 0.15401 0.0
C938 C 0.07075 0.48812 0.15421 0.0
C939 C 0.08556 0.48986 0.17643 0.0
H940 H 0.35658 0.74592 0.21686 0.0
H941 H 0.31099 0.71717 0.27944 0.0
H942 H 0.39183 0.75509 0.24633 0.0
H943 H 0.34687 0.72527 0.30852 0.0
H944 H 0.42964 0.71878 0.34199 0.0
H945 H 0.39356 0.70922 0.31323 0.0
H946 H 0.39864 0.78573 0.28609 0.0
H947 H 0.43435 0.79549 0.31504 0.0
C948 C 0.35395 0.74165 0.23686 0.0
C949 C 0.33075 0.73093 0.24571 0.0
C950 C 0.37424 0.74678 0.25368 0.0
C951 C 0.372 0.74091 0.27964 0.0
C952 C 0.34911 0.72977 0.28851 0.0
C953 C 0.32863 0.72503 0.27178 0.0
C954 C 0.42299 0.73356 0.32994 0.0
C955 C 0.43479 0.75789 0.33078 0.0
C956 C 0.40232 0.72811 0.31359 0.0
C957 C 0.39344 0.74673 0.29745 0.0
C958 C 0.40527 0.77101 0.29824 0.0
C959 C 0.42559 0.7766 0.3149 0.0
H960 H 0.98376 0.39533 0.03111 0.0
H961 H 0.97744 0.44722 0.96892 0.0
H962 H 0.99237 0.36134 0.00063 0.0
H963 H 0.98512 0.41296 0.93832 0.0
H964 H 0.02886 0.35244 0.89445 0.0
H965 H 0.01967 0.38662 0.92453 0.0
H966 H 0.9713 0.33519 0.9676 0.0
H967 H 0.98086 0.30089 0.93783 0.0
C968 C 0.98421 0.39947 0.01092 0.0
C969 C 0.98002 0.42401 0.00245 0.0
C970 C 0.98885 0.37992 0.99342 0.0
C971 C 0.98942 0.38442 0.96702 0.0
C972 C 0.98508 0.40892 0.95853 0.0
C973 C 0.98039 0.42849 0.97605 0.0
C974 C 0.01626 0.34841 0.91033 0.0
C975 C 0.00567 0.3239 0.91377 0.0
C976 C 0.01086 0.36806 0.92748 0.0
C977 C 0.99476 0.36365 0.94848 0.0
C978 C 0.98405 0.33916 0.95182 0.0
C979 C 0.98944 0.31952 0.93467 0.0
H980 H 0.68496 0.79599 0.27518 0.0
H981 H 0.63979 0.77585 0.20821 0.0
H982 H 0.64719 0.79097 0.30189 0.0
H983 H 0.60231 0.76985 0.23498 0.0
H984 H 0.53578 0.78989 0.28622 0.0
H985 H 0.57378 0.79504 0.2601 0.0
H986 H 0.61742 0.75848 0.3177 0.0
H987 H 0.57946 0.75378 0.34415 0.0
C988 C 0.66698 0.79046 0.26617 0.0
C989 C 0.66539 0.78633 0.23956 0.0
C990 C 0.6454 0.78731 0.28151 0.0
C991 C 0.62172 0.78002 0.27058 0.0
C992 C 0.62018 0.77577 0.24399 0.0
C993 C 0.64174 0.7789 0.22867 0.0
C994 C 0.55346 0.78295 0.29335 0.0
C995 C 0.55456 0.7714 0.31728 0.0
C996 C 0.57523 0.78577 0.27829 0.0
C997 C 0.59863 0.7771 0.28676 0.0
C998 C 0.59976 0.76562 0.31073 0.0
C999 C 0.57796 0.7628 0.32583 0.0
H1000 H 0.06806 0.10055 0.0085 0.0
H1001 H 0.98715 0.08449 0.01355 0.0
H1002 H 0.06046 0.13552 0.98011 0.0
H1003 H 0.97952 0.11926 0.98503 0.0
H1004 H 0.97441 0.20058 0.9586 0.0
H1005 H 0.98244 0.16491 0.98572 0.0
H1006 H 0.04557 0.14519 0.93765 0.0
H1007 H 0.03791 0.18128 0.91081 0.0
C1008 C 0.04867 0.10431 0.00328 0.0
C1009 C 0.0282 0.08987 0.01337 0.0
C1010 C 0.04431 0.12433 0.98701 0.0
C1011 C 0.01937 0.1303 0.98041 0.0
C1012 C 0.99894 0.11551 0.99013 0.0
C1013 C 0.0033 0.09556 0.00644 0.0
C1014 C 0.99 0.18865 0.95379 0.0
C1015 C 0.00552 0.1938 0.93254 0.0
C1016 C 0.99451 0.16808 0.96926 0.0
C1017 C 0.0146 0.15212 0.96382 0.0
C1018 C 0.03012 0.15727 0.94255 0.0
C1019 C 0.02564 0.17789 0.92709 0.0
H1020 H 0.35861 0.27434 0.28414 0.0
H1021 H 0.30851 0.292 0.22204 0.0
H1022 H 0.39307 0.26861 0.25381 0.0
H1023 H 0.34328 0.28729 0.1918 0.0
H1024 H 0.40228 0.24664 0.14323 0.0
H1025 H 0.36794 0.25388 0.17331 0.0
H1026 H 0.42132 0.29191 0.22547 0.0
H1027 H 0.45578 0.28419 0.19563 0.0
C1028 C 0.35497 0.27707 0.26401 0.0
C1029 C 0.33077 0.28352 0.25551 0.0
C1030 C 0.37481 0.27407 0.24665 0.0
C1031 C 0.37095 0.27747 0.22035 0.0
C1032 C 0.34683 0.28425 0.21188 0.0
C1033 C 0.32698 0.28724 0.22926 0.0
C1034 C 0.4067 0.25658 0.16109 0.0
C1035 C 0.4318 0.26476 0.16705 0.0
C1036 C 0.38697 0.26088 0.17828 0.0
C1037 C 0.39186 0.27348 0.20182 0.0
C1038 C 0.41694 0.28185 0.20766 0.0
C1039 C 0.43668 0.27753 0.19049 0.0
H1040 H 0.56452 0.41501 0.99858 0.0
H1041 H 0.4847 0.43078 0.00135 0.0
H1042 H 0.55676 0.37874 0.02596 0.0
H1043 H 0.47693 0.39453 0.02873 0.0
H1044 H 0.46853 0.31163 0.05193 0.0
H1045 H 0.47667 0.34859 0.0257 0.0
H1046 H 0.54473 0.36764 0.06946 0.0
H1047 H 0.53685 0.33037 0.09544 0.0
C1048 C 0.54537 0.41092 0.00529 0.0
C1049 C 0.52522 0.42575 0.99773 0.0
C1050 C 0.54091 0.39012 0.02098 0.0
C1051 C 0.51621 0.38367 0.02946 0.0
C1052 C 0.49612 0.39871 0.02217 0.0
C1053 C 0.50057 0.4195 0.00649 0.0
C1054 C 0.48524 0.32368 0.05598 0.0
C1055 C 0.50204 0.31802 0.07578 0.0
C1056 C 0.48982 0.34497 0.04103 0.0
C1057 C 0.51132 0.36112 0.04552 0.0
C1058 C 0.52815 0.35545 0.06532 0.0
C1059 C 0.52356 0.33415 0.08029 0.0
H1060 H 0.68957 0.22837 0.2316 0.0
H1061 H 0.6443 0.24357 0.29851 0.0
H1062 H 0.65309 0.23595 0.20429 0.0
H1063 H 0.60787 0.2511 0.27128 0.0
H1064 H 0.55876 0.29222 0.21472 0.0
H1065 H 0.59499 0.28289 0.24145 0.0
H1066 H 0.61074 0.21891 0.19223 0.0
H1067 H 0.57471 0.22851 0.16517 0.0
C1068 C 0.67174 0.23301 0.24047 0.0
C1069 C 0.66987 0.23554 0.2672 0.0
C1070 C 0.65084 0.23736 0.22484 0.0
C1071 C 0.62763 0.24433 0.2356 0.0
C1072 C 0.62562 0.24627 0.26236 0.0
C1073 C 0.64649 0.24193 0.27796 0.0
C1074 C 0.56995 0.27618 0.20956 0.0
C1075 C 0.56382 0.26112 0.18781 0.0
C1076 C 0.59063 0.27072 0.22499 0.0
C1077 C 0.60569 0.25008 0.21905 0.0
C1078 C 0.59966 0.23509 0.1972 0.0
C1079 C 0.57894 0.24053 0.18177 0.0
H1080 H 0.44267 0.09871 0.99997 0.0
H1081 H 0.52265 0.08361 0.00191 0.0
H1082 H 0.45082 0.13704 0.02585 0.0
H1083 H 0.53083 0.12189 0.0279 0.0
H1084 H 0.53953 0.2056 0.0507 0.0
H1085 H 0.53094 0.16755 0.02457 0.0
H1086 H 0.46333 0.15064 0.06877 0.0
H1087 H 0.4716 0.18898 0.09455 0.0
C1088 C 0.46196 0.10344 0.00616 0.0
C1089 C 0.48201 0.08812 0.9989 0.0
C1090 C 0.46664 0.12541 0.02099 0.0
C1091 C 0.49148 0.13256 0.02893 0.0
C1092 C 0.51152 0.11716 0.02176 0.0
C1093 C 0.50685 0.09521 0.0069 0.0
C1094 C 0.5228 0.1938 0.05482 0.0
C1095 C 0.50627 0.20033 0.07473 0.0
C1096 C 0.51796 0.17189 0.03993 0.0
C1097 C 0.49649 0.15599 0.04462 0.0
C1098 C 0.47988 0.16261 0.06445 0.0
C1099 C 0.4847 0.18454 0.07932 0.0
H1100 H 0.2501 0.34304 0.75247 0.0
H1101 H 0.24907 0.35449 0.67093 0.0
H1102 H 0.27977 0.37944 0.75793 0.0
H1103 H 0.2787 0.39081 0.67637 0.0
H1104 H 0.35313 0.43591 0.6929 0.0
H1105 H 0.3231 0.39985 0.68799 0.0
H1106 H 0.28197 0.42551 0.75436 0.0
H1107 H 0.31225 0.46136 0.75956 0.0
C1108 C 0.25601 0.35348 0.73575 0.0
C1109 C 0.24732 0.34582 0.71126 0.0
C1110 C 0.27302 0.37432 0.73887 0.0
C1111 C 0.28169 0.38796 0.71757 0.0
C1112 C 0.27276 0.38044 0.69312 0.0
C1113 C 0.25577 0.35964 0.69001 0.0
C1114 C 0.3377 0.43388 0.70646 0.0
C1115 C 0.33509 0.45153 0.72661 0.0
C1116 C 0.32039 0.41327 0.70356 0.0
C1117 C 0.30011 0.40984 0.72075 0.0
C1118 C 0.29755 0.42746 0.74096 0.0
C1119 C 0.31483 0.44809 0.74384 0.0
H1120 H 0.23927 0.67683 0.75291 0.0
H1121 H 0.24152 0.66871 0.83489 0.0
H1122 H 0.26646 0.64084 0.7477 0.0
H1123 H 0.26941 0.6333 0.82974 0.0
H1124 H 0.29575 0.55403 0.80875 0.0
H1125 H 0.26805 0.58957 0.81384 0.0
H1126 H 0.3104 0.62991 0.75572 0.0
H1127 H 0.33785 0.59421 0.7503 0.0
C1128 C 0.24552 0.66732 0.76981 0.0
C1129 C 0.23823 0.67561 0.79431 0.0
C1130 C 0.26133 0.64689 0.76684 0.0
C1131 C 0.27015 0.63424 0.78831 0.0
C1132 C 0.26276 0.64248 0.8128 0.0
C1133 C 0.247 0.66294 0.81577 0.0
C1134 C 0.29918 0.57048 0.79707 0.0
C1135 C 0.31901 0.57126 0.77911 0.0
C1136 C 0.28337 0.59091 0.80008 0.0
C1137 C 0.28701 0.61256 0.78518 0.0
C1138 C 0.30689 0.61337 0.76726 0.0
C1139 C 0.32272 0.59296 0.76428 0.0
H1140 H 0.94207 0.50763 0.51833 0.0
H1141 H 0.91429 0.50691 0.44054 0.0
H1142 H 0.90688 0.47878 0.53024 0.0
H1143 H 0.87955 0.47749 0.45226 0.0
H1144 H 0.80507 0.44945 0.48946 0.0
H1145 H 0.84056 0.4779 0.47779 0.0
H1146 H 0.89129 0.43478 0.52315 0.0
H1147 H 0.85573 0.40648 0.53515 0.0
C1148 C 0.92846 0.50128 0.50377 0.0
C1149 C 0.93093 0.5096 0.47851 0.0
C1150 C 0.90845 0.48456 0.51053 0.0
C1151 C 0.89039 0.47587 0.4922 0.0
C1152 C 0.89298 0.48405 0.46689 0.0
C1153 C 0.91305 0.50068 0.46012 0.0
C1154 C 0.82378 0.44604 0.497 0.0
C1155 C 0.82755 0.42569 0.51327 0.0
C1156 C 0.84415 0.46226 0.49016 0.0
C1157 C 0.86876 0.45857 0.49949 0.0
C1158 C 0.87252 0.43829 0.51585 0.0
C1159 C 0.85215 0.422 0.52262 0.0
H1160 H 0.76195 0.82775 0.75006 0.0
H1161 H 0.75905 0.83469 0.83243 0.0
H1162 H 0.7361 0.86469 0.74648 0.0
H1163 H 0.73235 0.87106 0.82886 0.0
H1164 H 0.7097 0.9519 0.81208 0.0
H1165 H 0.73543 0.91489 0.81585 0.0
H1166 H 0.69308 0.87785 0.75389 0.0
H1167 H 0.66769 0.91504 0.74976 0.0
C1168 C 0.75578 0.83716 0.76741 0.0
C1169 C 0.76262 0.82829 0.79153 0.0
C1170 C 0.74072 0.85817 0.76536 0.0
C1171 C 0.73212 0.87084 0.78739 0.0
C1172 C 0.73887 0.86191 0.81151 0.0
C1173 C 0.75393 0.84088 0.81356 0.0
C1174 C 0.70586 0.93587 0.79926 0.0
C1175 C 0.68666 0.93647 0.78059 0.0
C1176 C 0.72052 0.91457 0.80153 0.0
C1177 C 0.71633 0.89338 0.78517 0.0
C1178 C 0.69705 0.89397 0.76657 0.0
C1179 C 0.68239 0.91525 0.7643 0.0
H1180 H 0.55732 0.53534 0.96612 0.0
H1181 H 0.60517 0.47181 0.97517 0.0
H1182 H 0.59421 0.56434 0.97146 0.0
H1183 H 0.64231 0.50069 0.97975 0.0
H1184 H 0.69957 0.55987 0.01195 0.0
H1185 H 0.66245 0.5311 0.00776 0.0
H1186 H 0.63159 0.5789 0.95029 0.0
H1187 H 0.66829 0.60815 0.95524 0.0
C1188 C 0.57582 0.5276 0.96904 0.0
C1189 C 0.57841 0.50134 0.97021 0.0
C1190 C 0.597 0.54419 0.97199 0.0
C1191 C 0.62133 0.5349 0.97593 0.0
C1192 C 0.62385 0.50857 0.97716 0.0
C1193 C 0.6026 0.49199 0.97446 0.0
C1194 C 0.68485 0.56424 0.99842 0.0
C1195 C 0.68685 0.58633 0.98396 0.0
C1196 C 0.6636 0.54765 0.9959 0.0
C1197 C 0.64396 0.55261 0.97867 0.0
C1198 C 0.6461 0.57466 0.96409 0.0
C1199 C 0.66723 0.59138 0.9668 0.0
H1200 H 0.25284 0.68091 0.25867 0.0
H1201 H 0.2505 0.66877 0.17673 0.0
H1202 H 0.22422 0.64397 0.26405 0.0
H1203 H 0.22165 0.63205 0.18214 0.0
H1204 H 0.14897 0.58532 0.20101 0.0
H1205 H 0.17761 0.62226 0.19609 0.0
H1206 H 0.22389 0.59743 0.25832 0.0
H1207 H 0.19511 0.56055 0.26345 0.0
C1208 C 0.24638 0.67026 0.24182 0.0
C1209 C 0.25396 0.67785 0.21726 0.0
C1210 C 0.22996 0.64912 0.24491 0.0
C1211 C 0.22064 0.63512 0.22352 0.0
C1212 C 0.2282 0.64267 0.19898 0.0
C1213 C 0.24471 0.66375 0.19588 0.0
C1214 C 0.16522 0.58773 0.21369 0.0
C1215 C 0.16974 0.56996 0.23262 0.0
C1216 C 0.18172 0.60884 0.21076 0.0
C1217 C 0.20305 0.61274 0.22677 0.0
C1218 C 0.20748 0.59508 0.24584 0.0
C1219 C 0.19105 0.57388 0.24869 0.0
H1220 H 0.95419 0.53318 0.04244 0.0
H1221 H 0.90406 0.47142 0.01591 0.0
H1222 H 0.92059 0.56273 0.03554 0.0
H1223 H 0.87084 0.50107 0.00804 0.0
H1224 H 0.80857 0.5566 0.0247 0.0
H1225 H 0.84235 0.52747 0.03184 0.0
H1226 H 0.89716 0.58179 0.00127 0.0
H1227 H 0.86339 0.61122 0.99459 0.0
C1228 C 0.936 0.52591 0.03514 0.0
C1229 C 0.93179 0.49992 0.02979 0.0
C1230 C 0.91684 0.54289 0.0309 0.0
C1231 C 0.89301 0.53428 0.02124 0.0
C1232 C 0.88886 0.5083 0.01578 0.0
C1233 C 0.90802 0.49134 0.02 0.0
C1234 C 0.82782 0.56238 0.0195 0.0
C1235 C 0.83326 0.58627 0.00907 0.0
C1236 C 0.84718 0.54559 0.02346 0.0
C1237 C 0.87247 0.55225 0.01706 0.0
C1238 C 0.87793 0.57618 0.00669 0.0
C1239 C 0.85855 0.59299 0.00273 0.0
H1240 H 0.10424 0.04279 0.02615 0.0
H1241 H 0.05424 0.98159 0.05156 0.0
H1242 H 0.13738 0.01294 0.01767 0.0
H1243 H 0.08777 0.95192 0.04417 0.0
H1244 H 0.14387 0.90224 0.00202 0.0
H1245 H 0.11049 0.93203 0.00965 0.0
H1246 H 0.16626 0.98686 0.04014 0.0
H1247 H 0.19972 0.9573 0.03195 0.0
C1248 C 0.1003 0.02296 0.0299 0.0
C1249 C 0.07655 0.01459 0.0395 0.0
C1250 C 0.11942 0.00588 0.02533 0.0
C1251 C 0.11528 0.98002 0.03029 0.0
C1252 C 0.09152 0.97165 0.03988 0.0
C1253 C 0.07239 0.98873 0.04442 0.0
C1254 C 0.14902 0.92065 0.01035 0.0
C1255 C 0.17448 0.92739 0.01634 0.0
C1256 C 0.12985 0.93769 0.01486 0.0
C1257 C 0.13567 0.96186 0.02552 0.0
C1258 C 0.16114 0.96855 0.03157 0.0
C1259 C 0.18032 0.95153 0.02701 0.0
loop_
_geom_bond_atom_site_label_1
_geom_bond_atom_site_label_2
_geom_bond_distance
_geom_bond_site_symmetry_2
_ccdc_geom_bond_type
H0 C3 0.931 . S
H1 C6 0.928 . S
H2 C8 0.930 . S
C3 H0 0.931 . S
C3 C4 1.413 . S
C3 C5 1.360 . S
C4 C3 1.413 . S
C4 C8 1.429 . S
C5 C3 1.360 . S
C5 C6 1.372 . S
C6 H1 0.928 . S
C6 C5 1.372 . S
C6 C7 1.404 . S
C7 C6 1.404 . S
C7 C8 1.391 . S
C8 H2 0.930 . S
C8 C4 1.429 . S
C8 C7 1.391 . S
H9 C12 0.931 . S
H10 C15 0.928 . S
H11 C17 0.930 . S
C12 H9 0.931 . S
C12 C13 1.413 . S
C12 C14 1.360 . S
C13 C12 1.413 . S
C13 C17 1.429 . S
C14 C12 1.360 . S
C14 C15 1.372 . S
C15 H10 0.928 . S
C15 C14 1.372 . S
C15 C16 1.404 . S
C16 C15 1.404 . S
C16 C17 1.391 . S
C17 H11 0.930 . S
C17 C13 1.429 . S
C17 C16 1.391 . S
H18 C21 0.931 . S
H19 C24 0.928 1_455 S
H20 C26 0.939 . S
C21 H18 0.931 . S
C21 C22 1.413 . S
C21 C23 1.360 . S
C22 C21 1.413 . S
C22 C26 1.429 . S
C23 C21 1.360 . S
C23 C24 1.372 . S
C24 H19 0.928 1_655 S
C24 C23 1.372 . S
C24 C25 1.404 . S
C25 C24 1.404 . S
C25 C26 1.391 . S
C26 H20 0.939 . S
C26 C22 1.429 . S
C26 C25 1.391 . S
H27 C30 0.931 . S
H28 C33 0.928 . S
H29 C35 0.930 . S
C30 H27 0.931 . S
C30 C31 1.413 . S
C30 C32 1.360 . S
C31 C30 1.413 . S
C31 C35 1.429 . S
C32 C30 1.360 . S
C32 C33 1.372 . S
C33 H28 0.928 . S
C33 C32 1.372 . S
C33 C34 1.404 . S
C34 C33 1.404 . S
C34 C35 1.391 . S
C35 H29 0.930 . S
C35 C31 1.429 . S
C35 C34 1.391 . S
H36 C39 0.931 . S
H37 C42 0.928 1_545 S
H38 C44 0.930 . S
C39 H36 0.931 . S
C39 C40 1.413 . S
C39 C41 1.360 . S
C40 C39 1.413 . S
C40 C44 1.429 . S
C41 C39 1.360 . S
C41 C42 1.372 . S
C42 H37 0.928 1_565 S
C42 C41 1.372 . S
C42 C43 1.404 . S
C43 C42 1.404 . S
C43 C44 1.391 . S
C44 H38 0.930 . S
C44 C40 1.429 . S
C44 C43 1.391 . S
H45 C48 0.931 . S
H46 C51 0.928 . S
H47 C53 0.930 . S
C48 H45 0.931 . S
C48 C49 1.413 . S
C48 C50 1.360 . S
C49 C48 1.413 . S
C49 C53 1.429 . S
C50 C48 1.360 . S
C50 C51 1.372 . S
C51 H46 0.928 . S
C51 C50 1.372 . S
C51 C52 1.404 . S
C52 C51 1.404 . S
C52 C53 1.391 . S
C53 H47 0.930 . S
C53 C49 1.429 . S
C53 C52 1.391 . S
H54 C57 0.931 . S
H55 C60 0.928 . S
H56 C62 0.930 . S
C57 H54 0.931 . S
C57 C58 1.413 . S
C57 C59 1.360 . S
C58 C57 1.413 . S
C58 C62 1.429 . S
C59 C57 1.360 . S
C59 C60 1.372 . S
C60 H55 0.928 . S
C60 C59 1.372 . S
C60 C61 1.404 . S
C61 C60 1.404 . S
C61 C62 1.391 . S
C62 H56 0.930 . S
C62 C58 1.429 . S
C62 C61 1.391 . S
H63 C66 0.931 . S
H64 C69 0.928 . S
H65 C71 0.930 . S
C66 H63 0.931 . S
C66 C67 1.413 . S
C66 C68 1.360 . S
C67 C66 1.413 . S
C67 C71 1.429 . S
C68 C66 1.360 . S
C68 C69 1.372 . S
C69 H64 0.928 . S
C69 C68 1.372 . S
C69 C70 1.404 . S
C70 C69 1.404 . S
C70 C71 1.391 . S
C71 H65 0.930 . S
C71 C67 1.429 . S
C71 C70 1.391 . S
H72 C75 0.931 . S
H73 C78 0.928 . S
H74 C80 0.930 . S
C75 H72 0.931 . S
C75 C76 1.413 . S
C75 C77 1.360 . S
C76 C75 1.413 . S
C76 C80 1.429 . S
C77 C75 1.360 . S
C77 C78 1.372 . S
C78 H73 0.928 . S
C78 C77 1.372 . S
C78 C79 1.404 . S
C79 C78 1.404 . S
C79 C80 1.391 . S
C80 H74 0.930 . S
C80 C76 1.429 . S
C80 C79 1.391 . S
H81 C84 0.917 1_545 S
H82 C87 0.928 . S
H83 C89 0.930 . S
C84 H81 0.917 1_565 S
C84 C85 1.413 . S
C84 C86 1.360 . S
C85 C84 1.413 . S
C85 C89 1.429 . S
C86 C84 1.360 . S
C86 C87 1.372 . S
C87 H82 0.928 . S
C87 C86 1.372 . S
C87 C88 1.404 . S
C88 C87 1.404 . S
C88 C89 1.391 . S
C89 H83 0.930 . S
C89 C85 1.429 . S
C89 C88 1.391 . S
H90 C93 0.931 . S
H91 C96 0.928 . S
H92 C98 0.930 . S
C93 H90 0.931 . S
C93 C94 1.413 . S
C93 C95 1.360 . S
C94 C93 1.413 . S
C94 C98 1.429 . S
C95 C93 1.360 . S
C95 C96 1.372 . S
C96 H91 0.928 . S
C96 C95 1.372 . S
C96 C97 1.404 . S
C97 C96 1.404 . S
C97 C98 1.391 . S
C98 H92 0.930 . S
C98 C94 1.429 . S
C98 C97 1.391 . S
H99 C102 0.931 . S
H100 C105 0.928 . S
H101 C107 0.930 . S
C102 H99 0.931 . S
C102 C103 1.413 . S
C102 C104 1.360 . S
C103 C102 1.413 . S
C103 C107 1.429 . S
C104 C102 1.360 . S
C104 C105 1.372 . S
C105 H100 0.928 . S
C105 C104 1.372 . S
C105 C106 1.404 . S
C106 C105 1.404 . S
C106 C107 1.391 . S
C107 H101 0.930 . S
C107 C103 1.429 . S
C107 C106 1.391 . S
H108 C111 0.931 . S
H109 C114 0.928 . S
H110 C116 0.930 . S
C111 H108 0.931 . S
C111 C112 1.413 . S
C111 C113 1.360 . S
C112 C111 1.413 . S
C112 C116 1.429 . S
C113 C111 1.360 . S
C113 C114 1.372 . S
C114 H109 0.928 . S
C114 C113 1.372 . S
C114 C115 1.404 . S
C115 C114 1.404 . S
C115 C116 1.391 . S
C116 H110 0.930 . S
C116 C112 1.429 . S
C116 C115 1.391 . S
H117 C120 0.931 . S
H118 C123 0.928 . S
H119 C125 0.930 . S
C120 H117 0.931 . S
C120 C121 1.413 . S
C120 C122 1.360 . S
C121 C120 1.413 . S
C121 C125 1.429 . S
C122 C120 1.360 . S
C122 C123 1.372 . S
C123 H118 0.928 . S
C123 C122 1.372 . S
C123 C124 1.404 . S
C124 C123 1.404 . S
C124 C125 1.391 . S
C125 H119 0.930 . S
C125 C121 1.429 . S
C125 C124 1.391 . S
H126 C129 0.931 . S
H127 C132 0.928 . S
H128 C134 0.930 . S
C129 H126 0.931 . S
C129 C130 1.413 . S
C129 C131 1.360 . S
C130 C129 1.413 . S
C130 C134 1.429 . S
C131 C129 1.360 . S
C131 C132 1.372 . S
C132 H127 0.928 . S
C132 C131 1.372 . S
C132 C133 1.404 . S
C133 C132 1.404 . S
C133 C134 1.391 . S
C134 H128 0.930 . S
C134 C130 1.429 . S
C134 C133 1.391 . S
H135 C138 0.930 . S
H136 C141 0.928 . S
H137 C143 0.930 . S
C138 H135 0.930 . S
C138 C139 1.413 . S
C138 C140 1.360 . S
C139 C138 1.413 . S
C139 C143 1.429 . S
C140 C138 1.360 . S
C140 C141 1.372 . S
C141 H136 0.928 . S
C141 C140 1.372 . S
C141 C142 1.404 . S
C142 C141 1.404 . S
C142 C143 1.391 . S
C143 H137 0.930 . S
C143 C139 1.429 . S
C143 C142 1.391 . S
C144 O145 1.160 1_554 S
C144 O151 1.185 . S
O145 C144 1.160 1_556 S
O146 Zn147 1.899 1_556 S
O146 C154 1.284 . S
Zn147 O146 1.899 1_554 S
Zn147 O148 2.032 . S
Zn147 O151 2.086 . S
Zn147 O156 1.977 . S
O148 Zn147 2.032 . S
O148 C152 1.278 . S
C149 O150 1.203 . S
C149 O156 1.267 . S
O150 C149 1.203 . S
O151 C144 1.185 . S
O151 Zn147 2.086 . S
C152 O148 1.278 . S
C152 O153 1.211 . S
O153 C152 1.211 . S
C154 O146 1.284 . S
C154 O155 1.273 . S
O155 C154 1.273 . S
O156 Zn147 1.977 . S
O156 C149 1.267 . S
C157 O158 1.160 . S
C157 O164 1.185 . S
O158 C157 1.160 . S
O159 Zn160 1.899 . S
O159 C167 1.284 . S
Zn160 O159 1.899 . S
Zn160 O161 2.032 . S
Zn160 O164 2.086 . S
Zn160 O169 1.977 . S
O161 Zn160 2.032 . S
O161 C165 1.278 . S
C162 O163 1.203 . S
C162 O169 1.267 . S
O163 C162 1.203 . S
O164 C157 1.185 . S
O164 Zn160 2.086 . S
C165 O161 1.278 . S
C165 O166 1.211 . S
O166 C165 1.211 . S
C167 O159 1.284 . S
C167 O168 1.273 . S
O168 C167 1.273 . S
O169 Zn160 1.977 . S
O169 C162 1.267 . S
C170 O171 1.160 1_554 S
C170 O177 1.185 . S
O171 C170 1.160 1_556 S
O172 Zn173 1.899 1_556 S
O172 C180 1.284 . S
Zn173 O172 1.899 1_554 S
Zn173 O174 2.032 1_554 S
Zn173 O177 2.086 . S
Zn173 O182 1.977 . S
O174 Zn173 2.032 1_556 S
O174 C178 1.278 . S
C175 O176 1.203 . S
C175 O182 1.267 . S
O176 C175 1.203 . S
O177 C170 1.185 . S
O177 Zn173 2.086 . S
C178 O174 1.278 . S
C178 O179 1.211 1_556 S
O179 C178 1.211 1_554 S
C180 O172 1.284 . S
C180 O181 1.273 . S
O181 C180 1.273 . S
O182 Zn173 1.977 . S
O182 C175 1.267 . S
C183 O184 1.160 . S
C183 O190 1.185 . S
O184 C183 1.160 . S
O185 Zn186 1.899 . S
O185 C193 1.284 . S
Zn186 O185 1.899 . S
Zn186 O187 2.032 1_545 S
Zn186 O190 2.086 . S
Zn186 O195 1.977 . S
O187 Zn186 2.032 1_565 S
O187 C191 1.278 . S
C188 O189 1.203 . S
C188 O195 1.267 . S
O189 C188 1.203 . S
O190 C183 1.185 . S
O190 Zn186 2.086 . S
C191 O187 1.278 . S
C191 O192 1.211 . S
O192 C191 1.211 . S
C193 O185 1.284 . S
C193 O194 1.273 1_545 S
O194 C193 1.273 1_565 S
O195 Zn186 1.977 . S
O195 C188 1.267 . S
C196 O197 1.160 . S
C196 O203 1.185 . S
O197 C196 1.160 . S
O198 Zn199 1.899 . S
O198 C206 1.284 . S
Zn199 O198 1.899 . S
Zn199 O200 2.032 . S
Zn199 O203 2.086 . S
Zn199 O208 1.977 . S
O200 Zn199 2.032 . S
O200 C204 1.278 . S
C201 O202 1.203 . S
C201 O208 1.267 . S
O202 C201 1.203 . S
O203 C196 1.185 . S
O203 Zn199 2.086 . S
C204 O200 1.278 . S
C204 O205 1.211 . S
O205 C204 1.211 . S
C206 O198 1.284 . S
C206 O207 1.273 . S
O207 C206 1.273 . S
O208 Zn199 1.977 . S
O208 C201 1.267 . S
C209 O210 1.160 . S
C209 O216 1.185 . S
O210 C209 1.160 . S
O211 Zn212 1.899 . S
O211 C219 1.284 . S
Zn212 O211 1.899 . S
Zn212 O213 2.032 . S
Zn212 O216 2.086 . S
Zn212 O221 1.977 . S
O213 Zn212 2.032 . S
O213 C217 1.278 . S
C214 O215 1.203 . S
C214 O221 1.267 . S
O215 C214 1.203 . S
O216 C209 1.185 . S
O216 Zn212 2.086 . S
C217 O213 1.278 . S
C217 O218 1.211 . S
O218 C217 1.211 . S
C219 O211 1.284 . S
C219 O220 1.273 . S
O220 C219 1.273 . S
O221 Zn212 1.977 . S
O221 C214 1.267 . S
C222 O223 1.160 . S
C222 O229 1.185 . S
O223 C222 1.160 . S
O224 Zn225 1.899 . S
O224 C232 1.284 . S
Zn225 O224 1.899 . S
Zn225 O226 2.032 . S
Zn225 O229 2.086 . S
Zn225 O234 1.977 . S
O226 Zn225 2.032 . S
O226 C230 1.278 . S
C227 O228 1.203 . S
C227 O234 1.267 . S
O228 C227 1.203 . S
O229 C222 1.185 . S
O229 Zn225 2.086 . S
C230 O226 1.278 . S
C230 O231 1.211 . S
O231 C230 1.211 . S
C232 O224 1.284 . S
C232 O233 1.273 . S
O233 C232 1.273 . S
O234 Zn225 1.977 . S
O234 C227 1.267 . S
C235 O236 1.160 . S
C235 O242 1.185 . S
O236 C235 1.160 . S
O237 Zn238 1.899 . S
O237 C245 1.284 1_565 S
Zn238 O237 1.899 . S
Zn238 O239 2.032 1_565 S
Zn238 O242 2.086 . S
Zn238 O247 1.977 . S
O239 Zn238 2.032 1_545 S
O239 C243 1.278 . S
C240 O241 1.203 1_565 S
C240 O247 1.267 . S
O241 C240 1.203 1_545 S
O242 C235 1.185 . S
O242 Zn238 2.086 . S
C243 O239 1.278 . S
C243 O244 1.211 . S
O244 C243 1.211 . S
C245 O237 1.284 1_545 S
C245 O246 1.273 . S
O246 C245 1.273 . S
O247 Zn238 1.977 . S
O247 C240 1.267 . S
C248 O249 1.160 1_455 S
C248 O255 1.185 . S
O249 C248 1.160 1_655 S
O250 Zn251 1.899 1_655 S
O250 C258 1.284 . S
Zn251 O250 1.899 1_455 S
Zn251 O252 2.032 1_455 S
Zn251 O255 2.086 . S
Zn251 O260 1.977 . S
O252 Zn251 2.032 1_655 S
O252 C256 1.276 1_655 S
C253 O254 1.203 . S
C253 O260 1.267 . S
O254 C253 1.203 . S
O255 C248 1.185 . S
O255 Zn251 2.086 . S
C256 O252 1.276 1_455 S
C256 O257 1.220 . S
O257 C256 1.220 . S
C258 O250 1.284 . S
C258 O259 1.273 . S
O259 C258 1.273 . S
O260 Zn251 1.977 . S
O260 C253 1.267 . S
C261 O262 1.160 . S
C261 O268 1.185 . S
O262 C261 1.160 . S
O263 Zn264 1.899 . S
O263 C271 1.284 . S
Zn264 O263 1.899 . S
Zn264 O265 2.032 . S
Zn264 O268 2.086 . S
Zn264 O273 1.977 . S
O265 Zn264 2.032 . S
O265 C269 1.278 . S
C266 O267 1.203 . S
C266 O273 1.267 . S
O267 C266 1.203 . S
O268 C261 1.185 . S
O268 Zn264 2.086 . S
C269 O265 1.278 . S
C269 O270 1.211 . S
O270 C269 1.211 . S
C271 O263 1.284 . S
C271 O272 1.273 . S
O272 C271 1.273 . S
O273 Zn264 1.977 . S
O273 C266 1.267 . S
C274 O275 1.160 1_455 S
C274 O281 1.185 . S
O275 C274 1.160 1_655 S
O276 Zn277 1.899 1_655 S
O276 C284 1.284 . S
Zn277 O276 1.899 1_455 S
Zn277 O278 2.032 1_455 S
Zn277 O281 2.086 . S
Zn277 O286 1.977 . S
O278 Zn277 2.032 1_655 S
O278 C282 1.279 . S
C279 O280 1.203 . S
C279 O286 1.267 . S
O280 C279 1.203 . S
O281 C274 1.185 . S
O281 Zn277 2.086 . S
C282 O278 1.279 . S
C282 O283 1.207 1_655 S
O283 C282 1.207 1_455 S
C284 O276 1.284 . S
C284 O285 1.273 . S
O285 C284 1.273 . S
O286 Zn277 1.977 . S
O286 C279 1.267 . S
C287 O288 1.160 . S
C287 O294 1.185 . S
O288 C287 1.160 . S
O289 Zn290 1.899 . S
O289 C297 1.284 . S
Zn290 O289 1.899 . S
Zn290 O291 2.032 . S
Zn290 O294 2.086 . S
Zn290 O299 1.977 . S
O291 Zn290 2.032 . S
O291 C295 1.278 . S
C292 O293 1.203 . S
C292 O299 1.267 . S
O293 C292 1.203 . S
O294 C287 1.185 . S
O294 Zn290 2.086 . S
C295 O291 1.278 . S
C295 O296 1.211 . S
O296 C295 1.211 . S
C297 O289 1.284 . S
C297 O298 1.273 . S
O298 C297 1.273 . S
O299 Zn290 1.977 . S
O299 C292 1.267 . S
H300 C308 0.950 . S
H301 C313 0.950 . S
H302 C310 0.950 . S
H303 C312 0.950 . S
H304 C314 0.950 . S
H305 C316 0.950 . S
H306 C318 0.950 . S
H307 C319 0.950 . S
C308 H300 0.950 . S
C308 C309 1.386 . S
C308 C310 1.391 . S
C309 C308 1.386 . S
C309 C313 1.393 . S
C310 H302 0.950 . S
C310 C308 1.391 . S
C310 C311 1.400 . S
C311 C310 1.400 . S
C311 C312 1.398 . S
C311 C317 1.491 . S
C312 H303 0.950 . S
C312 C311 1.398 . S
C312 C313 1.391 . S
C313 H301 0.950 . S
C313 C309 1.393 . S
C313 C312 1.391 . S
C314 H304 0.950 . S
C314 C315 1.386 . S
C314 C316 1.391 . S
C315 C314 1.386 . S
C315 C319 1.393 . S
C316 H305 0.950 . S
C316 C314 1.391 . S
C316 C317 1.400 . S
C317 C311 1.491 . S
C317 C316 1.400 . S
C317 C318 1.398 . S
C318 H306 0.950 . S
C318 C317 1.398 . S
C318 C319 1.391 . S
C319 H307 0.950 . S
C319 C315 1.393 . S
C319 C318 1.391 . S
H320 C328 0.950 . S
H321 C333 0.950 1_655 S
H322 C330 0.950 . S
H323 C332 0.950 . S
H324 C334 0.950 . S
H325 C336 0.950 . S
H326 C338 0.950 . S
H327 C339 0.950 . S
C328 H320 0.950 . S
C328 C329 1.385 . S
C328 C330 1.391 . S
C329 C328 1.385 . S
C329 C333 1.393 . S
C330 H322 0.950 . S
C330 C328 1.391 . S
C330 C331 1.400 . S
C331 C330 1.400 . S
C331 C332 1.398 . S
C331 C337 1.491 . S
C332 H323 0.950 . S
C332 C331 1.398 . S
C332 C333 1.391 . S
C333 H321 0.950 1_455 S
C333 C329 1.393 . S
C333 C332 1.391 . S
C334 H324 0.950 . S
C334 C335 1.386 . S
C334 C336 1.391 . S
C335 C334 1.386 . S
C335 C339 1.393 . S
C336 H325 0.950 . S
C336 C334 1.391 . S
C336 C337 1.400 . S
C337 C331 1.491 . S
C337 C336 1.400 . S
C337 C338 1.398 . S
C338 H326 0.950 . S
C338 C337 1.398 . S
C338 C339 1.391 . S
C339 H327 0.950 . S
C339 C335 1.393 . S
C339 C338 1.391 . S
H340 C348 0.950 . S
H341 C353 0.950 . S
H342 C350 0.950 . S
H343 C352 0.950 . S
H344 C354 0.950 . S
H345 C356 0.950 . S
H346 C358 0.950 . S
H347 C359 0.950 . S
C348 H340 0.950 . S
C348 C349 1.386 . S
C348 C350 1.391 . S
C349 C348 1.386 . S
C349 C353 1.393 . S
C350 H342 0.950 . S
C350 C348 1.391 . S
C350 C351 1.400 . S
C351 C350 1.400 . S
C351 C352 1.398 . S
C351 C357 1.491 . S
C352 H343 0.950 . S
C352 C351 1.398 . S
C352 C353 1.391 . S
C353 H341 0.950 . S
C353 C349 1.393 . S
C353 C352 1.391 . S
C354 H344 0.950 . S
C354 C355 1.386 . S
C354 C356 1.391 . S
C355 C354 1.386 . S
C355 C359 1.393 . S
C356 H345 0.950 . S
C356 C354 1.391 . S
C356 C357 1.400 . S
C357 C351 1.491 . S
C357 C356 1.400 . S
C357 C358 1.398 . S
C358 H346 0.950 . S
C358 C357 1.398 . S
C358 C359 1.391 . S
C359 H347 0.950 . S
C359 C355 1.393 . S
C359 C358 1.391 . S
H360 C368 0.950 . S
H361 C373 0.950 . S
H362 C370 0.950 . S
H363 C372 0.950 . S
H364 C374 0.950 . S
H365 C376 0.950 . S
H366 C378 0.950 . S
H367 C379 0.950 . S
C368 H360 0.950 . S
C368 C369 1.386 . S
C368 C370 1.391 1_455 S
C369 C368 1.386 . S
C369 C373 1.393 1_465 S
C370 H362 0.950 . S
C370 C368 1.391 1_655 S
C370 C371 1.400 . S
C371 C370 1.400 . S
C371 C372 1.398 1_565 S
C371 C377 1.491 . S
C372 H363 0.950 . S
C372 C371 1.398 1_545 S
C372 C373 1.391 . S
C373 H361 0.950 . S
C373 C369 1.393 1_645 S
C373 C372 1.391 . S
C374 H364 0.950 . S
C374 C375 1.386 . S
C374 C376 1.391 . S
C375 C374 1.386 . S
C375 C379 1.393 1_545 S
C376 H365 0.950 . S
C376 C374 1.391 . S
C376 C377 1.400 1_545 S
C377 C371 1.491 . S
C377 C376 1.400 1_565 S
C377 C378 1.398 . S
C378 H366 0.950 . S
C378 C377 1.398 . S
C378 C379 1.391 . S
C379 H367 0.950 . S
C379 C375 1.393 1_565 S
C379 C378 1.391 . S
H380 C388 0.950 . S
H381 C393 0.950 . S
H382 C390 0.950 . S
H383 C392 0.950 . S
H384 C394 0.950 . S
H385 C396 0.950 . S
H386 C398 0.950 . S
H387 C399 0.950 . S
C388 H380 0.950 . S
C388 C389 1.386 . S
C388 C390 1.391 . S
C389 C388 1.386 . S
C389 C393 1.393 . S
C390 H382 0.950 . S
C390 C388 1.391 . S
C390 C391 1.400 . S
C391 C390 1.400 . S
C391 C392 1.398 . S
C391 C397 1.491 . S
C392 H383 0.950 . S
C392 C391 1.398 . S
C392 C393 1.391 . S
C393 H381 0.950 . S
C393 C389 1.393 . S
C393 C392 1.391 . S
C394 H384 0.950 . S
C394 C395 1.386 . S
C394 C396 1.391 . S
C395 C394 1.386 . S
C395 C399 1.393 . S
C396 H385 0.950 . S
C396 C394 1.391 . S
C396 C397 1.400 . S
C397 C391 1.491 . S
C397 C396 1.400 . S
C397 C398 1.398 . S
C398 H386 0.950 . S
C398 C397 1.398 . S
C398 C399 1.391 . S
C399 H387 0.950 . S
C399 C395 1.393 . S
C399 C398 1.391 . S
H400 C408 0.950 . S
H401 C413 0.950 . S
H402 C410 0.950 . S
H403 C412 0.950 . S
H404 C414 0.950 . S
H405 C416 0.950 . S
H406 C418 0.950 . S
H407 C419 0.950 . S
C408 H400 0.950 . S
C408 C409 1.386 . S
C408 C410 1.391 . S
C409 C408 1.386 . S
C409 C413 1.393 . S
C410 H402 0.950 . S
C410 C408 1.391 . S
C410 C411 1.400 . S
C411 C410 1.400 . S
C411 C412 1.398 . S
C411 C417 1.491 . S
C412 H403 0.950 . S
C412 C411 1.398 . S
C412 C413 1.391 . S
C413 H401 0.950 . S
C413 C409 1.393 . S
C413 C412 1.391 . S
C414 H404 0.950 . S
C414 C415 1.386 . S
C414 C416 1.391 . S
C415 C414 1.386 . S
C415 C419 1.393 . S
C416 H405 0.950 . S
C416 C414 1.391 . S
C416 C417 1.400 . S
C417 C411 1.491 . S
C417 C416 1.400 . S
C417 C418 1.398 . S
C418 H406 0.950 . S
C418 C417 1.398 . S
C418 C419 1.391 . S
C419 H407 0.950 . S
C419 C415 1.393 . S
C419 C418 1.391 . S
H420 C428 0.950 . S
H421 C433 0.950 . S
H422 C430 0.950 . S
H423 C432 0.950 . S
H424 C434 0.950 . S
H425 C436 0.950 . S
H426 C438 0.950 . S
H427 C439 0.950 . S
C428 H420 0.950 . S
C428 C429 1.386 . S
C428 C430 1.391 . S
C429 C428 1.386 . S
C429 C433 1.393 . S
C430 H422 0.950 . S
C430 C428 1.391 . S
C430 C431 1.400 . S
C431 C430 1.400 . S
C431 C432 1.398 . S
C431 C437 1.491 . S
C432 H423 0.950 . S
C432 C431 1.398 . S
C432 C433 1.391 . S
C433 H421 0.950 . S
C433 C429 1.393 . S
C433 C432 1.391 . S
C434 H424 0.950 . S
C434 C435 1.386 . S
C434 C436 1.391 . S
C435 C434 1.386 . S
C435 C439 1.393 . S
C436 H425 0.950 . S
C436 C434 1.391 . S
C436 C437 1.400 . S
C437 C431 1.491 . S
C437 C436 1.400 . S
C437 C438 1.398 . S
C438 H426 0.950 . S
C438 C437 1.398 . S
C438 C439 1.391 . S
C439 H427 0.950 . S
C439 C435 1.393 . S
C439 C438 1.391 . S
H440 C448 0.950 . S
H441 C453 0.950 1_545 S
H442 C450 0.950 . S
H443 C452 0.950 . S
H444 C454 0.950 . S
H445 C456 0.950 . S
H446 C458 0.950 . S
H447 C459 0.950 . S
C448 H440 0.950 . S
C448 C449 1.386 . S
C448 C450 1.391 . S
C449 C448 1.386 . S
C449 C453 1.393 . S
C450 H442 0.950 . S
C450 C448 1.391 . S
C450 C451 1.400 . S
C451 C450 1.400 . S
C451 C452 1.398 1_565 S
C451 C457 1.491 . S
C452 H443 0.950 . S
C452 C451 1.398 1_545 S
C452 C453 1.391 1_545 S
C453 H441 0.950 1_565 S
C453 C449 1.393 . S
C453 C452 1.391 1_565 S
C454 H444 0.950 . S
C454 C455 1.386 1_545 S
C454 C456 1.391 . S
C455 C454 1.386 1_565 S
C455 C459 1.393 . S
C456 H445 0.950 . S
C456 C454 1.391 . S
C456 C457 1.400 1_545 S
C457 C451 1.491 . S
C457 C456 1.400 1_565 S
C457 C458 1.398 . S
C458 H446 0.950 . S
C458 C457 1.398 . S
C458 C459 1.391 . S
C459 H447 0.950 . S
C459 C455 1.393 . S
C459 C458 1.391 . S
H460 C468 0.950 . S
H461 C473 0.950 . S
H462 C470 0.950 . S
H463 C472 0.950 . S
H464 C474 0.950 . S
H465 C476 0.950 . S
H466 C478 0.950 . S
H467 C479 0.950 . S
C468 H460 0.950 . S
C468 C469 1.386 . S
C468 C470 1.391 . S
C469 C468 1.386 . S
C469 C473 1.393 . S
C470 H462 0.950 . S
C470 C468 1.391 . S
C470 C471 1.400 . S
C471 C470 1.400 . S
C471 C472 1.398 . S
C471 C477 1.491 . S
C472 H463 0.950 . S
C472 C471 1.398 . S
C472 C473 1.391 . S
C473 H461 0.950 . S
C473 C469 1.393 . S
C473 C472 1.391 . S
C474 H464 0.950 . S
C474 C475 1.386 . S
C474 C476 1.391 . S
C475 C474 1.386 . S
C475 C479 1.393 . S
C476 H465 0.950 . S
C476 C474 1.391 . S
C476 C477 1.400 . S
C477 C471 1.491 . S
C477 C476 1.400 . S
C477 C478 1.398 . S
C478 H466 0.950 . S
C478 C477 1.398 . S
C478 C479 1.391 . S
C479 H467 0.950 . S
C479 C475 1.393 . S
C479 C478 1.391 . S
H480 C488 0.950 . S
H481 C493 0.950 . S
H482 C490 0.950 . S
H483 C492 0.950 . S
H484 C494 0.950 . S
H485 C496 0.950 . S
H486 C498 0.950 . S
H487 C499 0.950 . S
C488 H480 0.950 . S
C488 C489 1.386 . S
C488 C490 1.391 . S
C489 C488 1.386 . S
C489 C493 1.393 . S
C490 H482 0.950 . S
C490 C488 1.391 . S
C490 C491 1.400 . S
C491 C490 1.400 . S
C491 C492 1.398 . S
C491 C497 1.491 . S
C492 H483 0.950 . S
C492 C491 1.398 . S
C492 C493 1.391 . S
C493 H481 0.950 . S
C493 C489 1.393 . S
C493 C492 1.391 . S
C494 H484 0.950 . S
C494 C495 1.386 . S
C494 C496 1.391 . S
C495 C494 1.386 . S
C495 C499 1.393 . S
C496 H485 0.950 . S
C496 C494 1.391 . S
C496 C497 1.400 . S
C497 C491 1.491 . S
C497 C496 1.400 . S
C497 C498 1.398 . S
C498 H486 0.950 . S
C498 C497 1.398 . S
C498 C499 1.391 . S
C499 H487 0.950 . S
C499 C495 1.393 . S
C499 C498 1.391 . S
H500 C508 0.950 . S
H501 C513 0.950 . S
H502 C510 0.950 . S
H503 C512 0.950 . S
H504 C514 0.950 . S
H505 C516 0.950 . S
H506 C518 0.950 . S
H507 C519 0.950 . S
C508 H500 0.950 . S
C508 C509 1.386 . S
C508 C510 1.391 . S
C509 C508 1.386 . S
C509 C513 1.393 . S
C510 H502 0.950 . S
C510 C508 1.391 . S
C510 C511 1.400 . S
C511 C510 1.400 . S
C511 C512 1.398 . S
C511 C517 1.491 . S
C512 H503 0.950 . S
C512 C511 1.398 . S
C512 C513 1.391 . S
C513 H501 0.950 . S
C513 C509 1.393 . S
C513 C512 1.391 . S
C514 H504 0.950 . S
C514 C515 1.386 . S
C514 C516 1.391 . S
C515 C514 1.386 . S
C515 C519 1.393 . S
C516 H505 0.950 . S
C516 C514 1.391 . S
C516 C517 1.400 . S
C517 C511 1.491 . S
C517 C516 1.400 . S
C517 C518 1.398 . S
C518 H506 0.950 . S
C518 C517 1.398 . S
C518 C519 1.391 . S
C519 H507 0.950 . S
C519 C515 1.393 . S
C519 C518 1.391 . S
H520 C528 0.950 . S
H521 C533 0.950 . S
H522 C530 0.950 . S
H523 C532 0.950 . S
H524 C534 0.950 . S
H525 C536 0.950 . S
H526 C538 0.950 . S
H527 C539 0.950 . S
C528 H520 0.950 . S
C528 C529 1.386 . S
C528 C530 1.391 . S
C529 C528 1.386 . S
C529 C533 1.393 . S
C530 H522 0.950 . S
C530 C528 1.391 . S
C530 C531 1.400 . S
C531 C530 1.400 . S
C531 C532 1.398 . S
C531 C537 1.491 . S
C532 H523 0.950 . S
C532 C531 1.398 . S
C532 C533 1.391 . S
C533 H521 0.950 . S
C533 C529 1.393 . S
C533 C532 1.391 . S
C534 H524 0.950 . S
C534 C535 1.386 . S
C534 C536 1.391 . S
C535 C534 1.386 . S
C535 C539 1.393 . S
C536 H525 0.950 . S
C536 C534 1.391 . S
C536 C537 1.400 . S
C537 C531 1.491 . S
C537 C536 1.400 . S
C537 C538 1.398 . S
C538 H526 0.950 . S
C538 C537 1.398 . S
C538 C539 1.391 . S
C539 H527 0.950 . S
C539 C535 1.393 . S
C539 C538 1.391 . S
H540 C548 0.950 . S
H541 C553 0.950 . S
H542 C550 0.950 . S
H543 C552 0.950 . S
H544 C554 0.950 . S
H545 C556 0.950 . S
H546 C558 0.950 . S
H547 C559 0.950 . S
C548 H540 0.950 . S
C548 C549 1.386 . S
C548 C550 1.391 . S
C549 C548 1.386 . S
C549 C553 1.393 . S
C550 H542 0.950 . S
C550 C548 1.391 . S
C550 C551 1.400 . S
C551 C550 1.400 . S
C551 C552 1.398 . S
C551 C557 1.491 . S
C552 H543 0.950 . S
C552 C551 1.398 . S
C552 C553 1.391 . S
C553 H541 0.950 . S
C553 C549 1.393 . S
C553 C552 1.391 . S
C554 H544 0.950 . S
C554 C555 1.386 . S
C554 C556 1.391 . S
C555 C554 1.386 . S
C555 C559 1.393 . S
C556 H545 0.950 . S
C556 C554 1.391 . S
C556 C557 1.400 . S
C557 C551 1.491 . S
C557 C556 1.400 . S
C557 C558 1.398 . S
C558 H546 0.950 . S
C558 C557 1.398 . S
C558 C559 1.391 . S
C559 H547 0.950 . S
C559 C555 1.393 . S
C559 C558 1.391 . S
H560 C568 0.950 . S
H561 C573 0.950 . S
H562 C570 0.950 . S
H563 C572 0.950 . S
H564 C574 0.950 . S
H565 C576 0.950 . S
H566 C578 0.950 . S
H567 C579 0.950 . S
C568 H560 0.950 . S
C568 C569 1.386 . S
C568 C570 1.391 . S
C569 C568 1.386 . S
C569 C573 1.393 . S
C570 H562 0.950 . S
C570 C568 1.391 . S
C570 C571 1.400 . S
C571 C570 1.400 . S
C571 C572 1.398 . S
C571 C577 1.491 . S
C572 H563 0.950 . S
C572 C571 1.398 . S
C572 C573 1.391 . S
C573 H561 0.950 . S
C573 C569 1.393 . S
C573 C572 1.391 . S
C574 H564 0.950 . S
C574 C575 1.386 . S
C574 C576 1.391 . S
C575 C574 1.386 . S
C575 C579 1.393 . S
C576 H565 0.950 . S
C576 C574 1.391 . S
C576 C577 1.400 . S
C577 C571 1.491 . S
C577 C576 1.400 . S
C577 C578 1.398 . S
C578 H566 0.950 . S
C578 C577 1.398 . S
C578 C579 1.391 . S
C579 H567 0.950 . S
C579 C575 1.393 . S
C579 C578 1.391 . S
H580 C588 0.950 . S
H581 C593 0.950 . S
H582 C590 0.950 . S
H583 C592 0.950 . S
H584 C594 0.950 . S
H585 C596 0.950 . S
H586 C598 0.950 . S
H587 C599 0.950 . S
C588 H580 0.950 . S
C588 C589 1.386 . S
C588 C590 1.391 . S
C589 C588 1.386 . S
C589 C593 1.393 . S
C590 H582 0.950 . S
C590 C588 1.391 . S
C590 C591 1.400 . S
C591 C590 1.400 . S
C591 C592 1.398 . S
C591 C597 1.491 . S
C592 H583 0.950 . S
C592 C591 1.398 . S
C592 C593 1.391 . S
C593 H581 0.950 . S
C593 C589 1.393 . S
C593 C592 1.391 . S
C594 H584 0.950 . S
C594 C595 1.386 . S
C594 C596 1.391 . S
C595 C594 1.386 . S
C595 C599 1.393 . S
C596 H585 0.950 . S
C596 C594 1.391 . S
C596 C597 1.400 . S
C597 C591 1.491 . S
C597 C596 1.400 . S
C597 C598 1.398 . S
C598 H586 0.950 . S
C598 C597 1.398 . S
C598 C599 1.391 . S
C599 H587 0.950 . S
C599 C595 1.393 . S
C599 C598 1.391 . S
H600 C608 0.950 . S
H601 C613 0.950 1_455 S
H602 C610 0.950 . S
H603 C612 0.950 . S
H604 C614 0.950 . S
H605 C616 0.950 . S
H606 C618 0.950 . S
H607 C619 0.950 . S
C608 H600 0.950 . S
C608 C609 1.386 . S
C608 C610 1.391 . S
C609 C608 1.386 . S
C609 C613 1.393 . S
C610 H602 0.950 . S
C610 C608 1.391 . S
C610 C611 1.400 . S
C611 C610 1.400 . S
C611 C612 1.398 1_655 S
C611 C617 1.491 . S
C612 H603 0.950 . S
C612 C611 1.398 1_455 S
C612 C613 1.391 1_455 S
C613 H601 0.950 1_655 S
C613 C609 1.393 . S
C613 C612 1.391 1_655 S
C614 H604 0.950 . S
C614 C615 1.386 1_455 S
C614 C616 1.391 . S
C615 C614 1.386 1_655 S
C615 C619 1.393 . S
C616 H605 0.950 . S
C616 C614 1.391 . S
C616 C617 1.400 1_455 S
C617 C611 1.491 . S
C617 C616 1.400 1_655 S
C617 C618 1.398 . S
C618 H606 0.950 . S
C618 C617 1.398 . S
C618 C619 1.391 . S
C619 H607 0.950 . S
C619 C615 1.393 . S
C619 C618 1.391 . S
H620 C628 0.950 . S
H621 C633 0.950 . S
H622 C630 0.950 . S
H623 C632 0.950 . S
H624 C634 0.950 . S
H625 C636 0.950 . S
H626 C638 0.950 . S
H627 C639 0.950 . S
C628 H620 0.950 . S
C628 C629 1.386 . S
C628 C630 1.391 . S
C629 C628 1.386 . S
C629 C633 1.393 . S
C630 H622 0.950 . S
C630 C628 1.391 . S
C630 C631 1.400 . S
C631 C630 1.400 . S
C631 C632 1.398 . S
C631 C637 1.491 . S
C632 H623 0.950 . S
C632 C631 1.398 . S
C632 C633 1.391 . S
C633 H621 0.950 . S
C633 C629 1.393 . S
C633 C632 1.391 . S
C634 H624 0.950 . S
C634 C635 1.386 . S
C634 C636 1.391 . S
C635 C634 1.386 . S
C635 C639 1.393 . S
C636 H625 0.950 . S
C636 C634 1.391 . S
C636 C637 1.400 . S
C637 C631 1.491 . S
C637 C636 1.400 . S
C637 C638 1.398 . S
C638 H626 0.950 . S
C638 C637 1.398 . S
C638 C639 1.391 . S
C639 H627 0.950 . S
C639 C635 1.393 . S
C639 C638 1.391 . S
H640 C648 0.950 . S
H641 C653 0.950 . S
H642 C650 0.950 . S
H643 C652 0.950 . S
H644 C654 0.950 . S
H645 C656 0.950 . S
H646 C658 0.950 . S
H647 C659 0.950 . S
C648 H640 0.950 . S
C648 C649 1.386 . S
C648 C650 1.391 . S
C649 C648 1.386 . S
C649 C653 1.393 . S
C650 H642 0.950 . S
C650 C648 1.391 . S
C650 C651 1.400 . S
C651 C650 1.400 . S
C651 C652 1.398 . S
C651 C657 1.491 . S
C652 H643 0.950 . S
C652 C651 1.398 . S
C652 C653 1.391 . S
C653 H641 0.950 . S
C653 C649 1.393 . S
C653 C652 1.391 . S
C654 H644 0.950 . S
C654 C655 1.386 . S
C654 C656 1.391 . S
C655 C654 1.386 . S
C655 C659 1.393 . S
C656 H645 0.950 . S
C656 C654 1.391 . S
C656 C657 1.400 . S
C657 C651 1.491 . S
C657 C656 1.400 . S
C657 C658 1.398 . S
C658 H646 0.950 . S
C658 C657 1.398 . S
C658 C659 1.391 . S
C659 H647 0.950 . S
C659 C655 1.393 . S
C659 C658 1.391 . S
H660 C668 0.950 . S
H661 C673 0.956 . S
H662 C670 0.950 . S
H663 C672 0.950 1_554 S
H664 C674 0.950 . S
H665 C676 0.950 . S
H666 C678 0.950 . S
H667 C679 0.950 . S
C668 H660 0.950 . S
C668 C669 1.386 . S
C668 C670 1.391 1_545 S
C669 C668 1.386 . S
C669 C673 1.393 1_545 S
C670 H662 0.950 . S
C670 C668 1.391 1_565 S
C670 C671 1.400 . S
C671 C670 1.400 . S
C671 C672 1.398 . S
C671 C677 1.491 . S
C672 H663 0.950 1_556 S
C672 C671 1.398 . S
C672 C673 1.391 . S
C673 H661 0.956 . S
C673 C669 1.393 1_565 S
C673 C672 1.391 . S
C674 H664 0.950 . S
C674 C675 1.386 1_554 S
C674 C676 1.391 . S
C675 C674 1.386 1_556 S
C675 C679 1.393 . S
C676 H665 0.950 . S
C676 C674 1.391 . S
C676 C677 1.400 1_554 S
C677 C671 1.491 . S
C677 C676 1.400 1_556 S
C677 C678 1.398 . S
C678 H666 0.950 . S
C678 C677 1.398 . S
C678 C679 1.391 . S
C679 H667 0.950 . S
C679 C675 1.393 . S
C679 C678 1.391 . S
H680 C688 0.950 . S
H681 C693 0.950 . S
H682 C690 0.950 . S
H683 C692 0.950 . S
H684 C694 0.950 . S
H685 C696 0.950 . S
H686 C698 0.950 . S
H687 C699 0.950 . S
C688 H680 0.950 . S
C688 C689 1.386 . S
C688 C690 1.391 . S
C689 C688 1.386 . S
C689 C693 1.393 . S
C690 H682 0.950 . S
C690 C688 1.391 . S
C690 C691 1.400 . S
C691 C690 1.400 . S
C691 C692 1.398 . S
C691 C697 1.491 . S
C692 H683 0.950 . S
C692 C691 1.398 . S
C692 C693 1.391 . S
C693 H681 0.950 . S
C693 C689 1.393 . S
C693 C692 1.391 . S
C694 H684 0.950 . S
C694 C695 1.386 . S
C694 C696 1.391 . S
C695 C694 1.386 . S
C695 C699 1.393 . S
C696 H685 0.950 . S
C696 C694 1.391 . S
C696 C697 1.400 . S
C697 C691 1.491 . S
C697 C696 1.400 . S
C697 C698 1.398 . S
C698 H686 0.950 . S
C698 C697 1.398 . S
C698 C699 1.391 . S
C699 H687 0.950 . S
C699 C695 1.393 . S
C699 C698 1.391 . S
H700 C708 0.950 . S
H701 C713 0.950 . S
H702 C710 0.950 . S
H703 C712 0.950 . S
H704 C714 0.950 . S
H705 C716 0.950 . S
H706 C718 0.950 . S
H707 C719 0.950 . S
C708 H700 0.950 . S
C708 C709 1.386 1_565 S
C708 C710 1.391 1_565 S
C709 C708 1.386 1_545 S
C709 C713 1.393 . S
C710 H702 0.950 . S
C710 C708 1.391 1_545 S
C710 C711 1.400 . S
C711 C710 1.400 . S
C711 C712 1.398 . S
C711 C717 1.491 . S
C712 H703 0.950 . S
C712 C711 1.398 . S
C712 C713 1.391 . S
C713 H701 0.950 . S
C713 C709 1.393 . S
C713 C712 1.391 . S
C714 H704 0.950 . S
C714 C715 1.386 . S
C714 C716 1.391 . S
C715 C714 1.386 . S
C715 C719 1.393 . S
C716 H705 0.950 . S
C716 C714 1.391 . S
C716 C717 1.400 . S
C717 C711 1.491 . S
C717 C716 1.400 . S
C717 C718 1.398 . S
C718 H706 0.950 . S
C718 C717 1.398 . S
C718 C719 1.391 . S
C719 H707 0.950 . S
C719 C715 1.393 . S
C719 C718 1.391 . S
H720 C728 0.950 . S
H721 C733 0.950 . S
H722 C730 0.950 . S
H723 C732 0.950 . S
H724 C734 0.950 . S
H725 C736 0.950 . S
H726 C738 0.950 . S
H727 C739 0.950 . S
C728 H720 0.950 . S
C728 C729 1.386 . S
C728 C730 1.391 . S
C729 C728 1.386 . S
C729 C733 1.393 . S
C730 H722 0.950 . S
C730 C728 1.391 . S
C730 C731 1.400 . S
C731 C730 1.400 . S
C731 C732 1.398 . S
C731 C737 1.491 . S
C732 H723 0.950 . S
C732 C731 1.398 . S
C732 C733 1.391 . S
C733 H721 0.950 . S
C733 C729 1.393 . S
C733 C732 1.391 . S
C734 H724 0.950 . S
C734 C735 1.386 . S
C734 C736 1.391 . S
C735 C734 1.386 . S
C735 C739 1.393 . S
C736 H725 0.950 . S
C736 C734 1.391 . S
C736 C737 1.400 . S
C737 C731 1.491 . S
C737 C736 1.400 . S
C737 C738 1.398 . S
C738 H726 0.950 . S
C738 C737 1.398 . S
C738 C739 1.391 . S
C739 H727 0.950 . S
C739 C735 1.393 . S
C739 C738 1.391 . S
H740 C748 0.950 . S
H741 C753 0.950 1_565 S
H742 C750 0.950 . S
H743 C752 0.950 . S
H744 C754 0.950 . S
H745 C756 0.950 . S
H746 C758 0.950 . S
H747 C759 0.950 . S
C748 H740 0.950 . S
C748 C749 1.373 1_545 S
C748 C750 1.391 . S
C749 C748 1.373 1_565 S
C749 C753 1.391 1_565 S
C750 H742 0.950 . S
C750 C748 1.391 . S
C750 C751 1.400 . S
C751 C750 1.400 . S
C751 C752 1.398 . S
C751 C757 1.491 . S
C752 H743 0.950 . S
C752 C751 1.398 . S
C752 C753 1.391 . S
C753 H741 0.950 1_545 S
C753 C749 1.391 1_545 S
C753 C752 1.391 . S
C754 H744 0.950 . S
C754 C755 1.386 . S
C754 C756 1.391 . S
C755 C754 1.386 . S
C755 C759 1.393 . S
C756 H745 0.950 . S
C756 C754 1.391 . S
C756 C757 1.400 . S
C757 C751 1.491 . S
C757 C756 1.400 . S
C757 C758 1.398 . S
C758 H746 0.950 . S
C758 C757 1.398 . S
C758 C759 1.391 . S
C759 H747 0.950 . S
C759 C755 1.393 . S
C759 C758 1.391 . S
H760 C768 0.950 . S
H761 C773 0.950 . S
H762 C770 0.950 . S
H763 C772 0.950 . S
H764 C774 0.950 . S
H765 C776 0.950 . S
H766 C778 0.950 . S
H767 C779 0.950 . S
C768 H760 0.950 . S
C768 C769 1.386 . S
C768 C770 1.391 . S
C769 C768 1.386 . S
C769 C773 1.393 . S
C770 H762 0.950 . S
C770 C768 1.391 . S
C770 C771 1.400 . S
C771 C770 1.400 . S
C771 C772 1.398 . S
C771 C777 1.491 . S
C772 H763 0.950 . S
C772 C771 1.398 . S
C772 C773 1.391 . S
C773 H761 0.950 . S
C773 C769 1.393 . S
C773 C772 1.391 . S
C774 H764 0.950 . S
C774 C775 1.386 . S
C774 C776 1.391 . S
C775 C774 1.386 . S
C775 C779 1.393 . S
C776 H765 0.950 . S
C776 C774 1.391 . S
C776 C777 1.400 . S
C777 C771 1.491 . S
C777 C776 1.400 . S
C777 C778 1.398 . S
C778 H766 0.950 . S
C778 C777 1.398 . S
C778 C779 1.391 . S
C779 H767 0.950 . S
C779 C775 1.393 . S
C779 C778 1.391 . S
H780 C788 0.950 . S
H781 C793 0.950 . S
H782 C790 0.950 . S
H783 C792 0.950 . S
H784 C794 0.950 . S
H785 C796 0.950 . S
H786 C798 0.950 . S
H787 C799 0.950 . S
C788 H780 0.950 . S
C788 C789 1.386 . S
C788 C790 1.391 . S
C789 C788 1.386 . S
C789 C793 1.393 . S
C790 H782 0.950 . S
C790 C788 1.391 . S
C790 C791 1.400 . S
C791 C790 1.400 . S
C791 C792 1.398 . S
C791 C797 1.491 . S
C792 H783 0.950 . S
C792 C791 1.398 . S
C792 C793 1.391 . S
C793 H781 0.950 . S
C793 C789 1.393 . S
C793 C792 1.391 . S
C794 H784 0.950 . S
C794 C795 1.386 . S
C794 C796 1.391 . S
C795 C794 1.386 . S
C795 C799 1.393 . S
C796 H785 0.950 . S
C796 C794 1.391 . S
C796 C797 1.400 . S
C797 C791 1.491 . S
C797 C796 1.400 . S
C797 C798 1.398 . S
C798 H786 0.950 . S
C798 C797 1.398 . S
C798 C799 1.391 . S
C799 H787 0.950 . S
C799 C795 1.393 . S
C799 C798 1.391 . S
H800 C808 0.950 . S
H801 C813 0.950 . S
H802 C810 0.950 . S
H803 C812 0.950 . S
H804 C814 0.950 . S
H805 C816 0.950 . S
H806 C818 0.950 . S
H807 C819 0.950 . S
C808 H800 0.950 . S
C808 C809 1.386 . S
C808 C810 1.391 . S
C809 C808 1.386 . S
C809 C813 1.393 . S
C810 H802 0.950 . S
C810 C808 1.391 . S
C810 C811 1.400 . S
C811 C810 1.400 . S
C811 C812 1.398 . S
C811 C817 1.491 . S
C812 H803 0.950 . S
C812 C811 1.398 . S
C812 C813 1.391 . S
C813 H801 0.950 . S
C813 C809 1.393 . S
C813 C812 1.391 . S
C814 H804 0.950 . S
C814 C815 1.386 . S
C814 C816 1.391 . S
C815 C814 1.386 . S
C815 C819 1.393 . S
C816 H805 0.950 . S
C816 C814 1.391 . S
C816 C817 1.400 . S
C817 C811 1.491 . S
C817 C816 1.400 . S
C817 C818 1.398 . S
C818 H806 0.950 . S
C818 C817 1.398 . S
C818 C819 1.391 . S
C819 H807 0.950 . S
C819 C815 1.393 . S
C819 C818 1.391 . S
H820 C828 0.950 . S
H821 C833 0.950 . S
H822 C830 0.950 . S
H823 C832 0.950 . S
H824 C834 0.950 . S
H825 C836 0.950 . S
H826 C838 0.950 . S
H827 C839 0.950 . S
C828 H820 0.950 . S
C828 C829 1.386 . S
C828 C830 1.391 . S
C829 C828 1.386 . S
C829 C833 1.393 . S
C830 H822 0.950 . S
C830 C828 1.391 . S
C830 C831 1.400 . S
C831 C830 1.400 . S
C831 C832 1.398 . S
C831 C837 1.491 . S
C832 H823 0.950 . S
C832 C831 1.398 . S
C832 C833 1.391 . S
C833 H821 0.950 . S
C833 C829 1.393 . S
C833 C832 1.391 . S
C834 H824 0.950 . S
C834 C835 1.386 . S
C834 C836 1.391 . S
C835 C834 1.386 . S
C835 C839 1.393 . S
C836 H825 0.950 . S
C836 C834 1.391 . S
C836 C837 1.400 . S
C837 C831 1.491 . S
C837 C836 1.400 . S
C837 C838 1.398 . S
C838 H826 0.950 . S
C838 C837 1.398 . S
C838 C839 1.391 . S
C839 H827 0.950 . S
C839 C835 1.393 . S
C839 C838 1.391 . S
H840 C848 0.950 . S
H841 C853 0.950 . S
H842 C850 0.950 . S
H843 C852 0.950 . S
H844 C854 0.950 . S
H845 C856 0.950 . S
H846 C858 0.950 . S
H847 C859 0.950 . S
C848 H840 0.950 . S
C848 C849 1.386 . S
C848 C850 1.391 . S
C849 C848 1.386 . S
C849 C853 1.393 . S
C850 H842 0.950 . S
C850 C848 1.391 . S
C850 C851 1.400 . S
C851 C850 1.400 . S
C851 C852 1.398 . S
C851 C857 1.491 . S
C852 H843 0.950 . S
C852 C851 1.398 . S
C852 C853 1.391 . S
C853 H841 0.950 . S
C853 C849 1.393 . S
C853 C852 1.391 . S
C854 H844 0.950 . S
C854 C855 1.386 . S
C854 C856 1.391 . S
C855 C854 1.386 . S
C855 C859 1.393 . S
C856 H845 0.950 . S
C856 C854 1.391 . S
C856 C857 1.400 . S
C857 C851 1.491 . S
C857 C856 1.400 . S
C857 C858 1.398 . S
C858 H846 0.950 . S
C858 C857 1.398 . S
C858 C859 1.391 . S
C859 H847 0.950 . S
C859 C855 1.393 . S
C859 C858 1.391 . S
H860 C868 0.950 . S
H861 C873 0.950 . S
H862 C870 0.950 . S
H863 C872 0.950 . S
H864 C874 0.950 . S
H865 C876 0.950 . S
H866 C878 0.950 . S
H867 C879 0.950 . S
C868 H860 0.950 . S
C868 C869 1.386 . S
C868 C870 1.391 . S
C869 C868 1.386 . S
C869 C873 1.393 . S
C870 H862 0.950 . S
C870 C868 1.391 . S
C870 C871 1.400 . S
C871 C870 1.400 . S
C871 C872 1.398 . S
C871 C877 1.491 . S
C872 H863 0.950 . S
C872 C871 1.398 . S
C872 C873 1.391 . S
C873 H861 0.950 . S
C873 C869 1.393 . S
C873 C872 1.391 . S
C874 H864 0.950 . S
C874 C875 1.386 . S
C874 C876 1.391 . S
C875 C874 1.386 . S
C875 C879 1.393 . S
C876 H865 0.950 . S
C876 C874 1.391 . S
C876 C877 1.400 . S
C877 C871 1.491 . S
C877 C876 1.400 . S
C877 C878 1.398 . S
C878 H866 0.950 . S
C878 C877 1.398 . S
C878 C879 1.391 . S
C879 H867 0.950 . S
C879 C875 1.393 . S
C879 C878 1.391 . S
H880 C888 0.950 . S
H881 C893 0.950 . S
H882 C890 0.950 . S
H883 C892 0.950 . S
H884 C894 0.950 1_565 S
H885 C896 0.950 . S
H886 C898 0.950 . S
H887 C899 0.950 . S
C888 H880 0.950 . S
C888 C889 1.386 . S
C888 C890 1.391 1_455 S
C889 C888 1.386 . S
C889 C893 1.393 1_455 S
C890 H882 0.950 . S
C890 C888 1.391 1_655 S
C890 C891 1.400 . S
C891 C890 1.400 . S
C891 C892 1.398 . S
C891 C897 1.491 . S
C892 H883 0.950 . S
C892 C891 1.398 . S
C892 C893 1.391 . S
C893 H881 0.950 . S
C893 C889 1.393 1_655 S
C893 C892 1.391 . S
C894 H884 0.950 1_545 S
C894 C895 1.386 . S
C894 C896 1.391 . S
C895 C894 1.386 . S
C895 C899 1.393 . S
C896 H885 0.950 . S
C896 C894 1.391 . S
C896 C897 1.400 . S
C897 C891 1.491 . S
C897 C896 1.400 . S
C897 C898 1.398 . S
C898 H886 0.950 . S
C898 C897 1.398 . S
C898 C899 1.391 . S
C899 H887 0.950 . S
C899 C895 1.393 . S
C899 C898 1.391 . S
H900 C908 0.950 . S
H901 C913 0.950 . S
H902 C910 0.950 . S
H903 C912 0.950 . S
H904 C914 0.950 . S
H905 C916 0.950 . S
H906 C918 0.950 . S
H907 C919 0.950 . S
C908 H900 0.950 . S
C908 C909 1.386 . S
C908 C910 1.391 . S
C909 C908 1.386 . S
C909 C913 1.393 . S
C910 H902 0.950 . S
C910 C908 1.391 . S
C910 C911 1.400 . S
C911 C910 1.400 . S
C911 C912 1.398 . S
C911 C917 1.491 . S
C912 H903 0.950 . S
C912 C911 1.398 . S
C912 C913 1.391 . S
C913 H901 0.950 . S
C913 C909 1.393 . S
C913 C912 1.391 . S
C914 H904 0.950 . S
C914 C915 1.386 . S
C914 C916 1.391 . S
C915 C914 1.386 . S
C915 C919 1.393 . S
C916 H905 0.950 . S
C916 C914 1.391 . S
C916 C917 1.400 . S
C917 C911 1.491 . S
C917 C916 1.400 . S
C917 C918 1.398 . S
C918 H906 0.950 . S
C918 C917 1.398 . S
C918 C919 1.391 . S
C919 H907 0.950 . S
C919 C915 1.393 . S
C919 C918 1.391 . S
H920 C928 0.950 . S
H921 C933 0.950 . S
H922 C930 0.950 . S
H923 C932 0.950 1_655 S
H924 C934 0.950 . S
H925 C936 0.950 . S
H926 C938 0.950 . S
H927 C939 0.950 . S
C928 H920 0.950 . S
C928 C929 1.382 . S
C928 C930 1.391 . S
C929 C928 1.382 . S
C929 C933 1.394 1_455 S
C930 H922 0.950 . S
C930 C928 1.391 . S
C930 C931 1.400 . S
C931 C930 1.400 . S
C931 C932 1.398 . S
C931 C937 1.491 . S
C932 H923 0.950 1_455 S
C932 C931 1.398 . S
C932 C933 1.391 1_455 S
C933 H921 0.950 . S
C933 C929 1.394 1_655 S
C933 C932 1.391 1_655 S
C934 H924 0.950 . S
C934 C935 1.386 . S
C934 C936 1.391 . S
C935 C934 1.386 . S
C935 C939 1.393 . S
C936 H925 0.950 . S
C936 C934 1.391 . S
C936 C937 1.400 . S
C937 C931 1.491 . S
C937 C936 1.400 . S
C937 C938 1.398 . S
C938 H926 0.950 . S
C938 C937 1.398 . S
C938 C939 1.391 . S
C939 H927 0.950 . S
C939 C935 1.393 . S
C939 C938 1.391 . S
H940 C948 0.950 . S
H941 C953 0.950 . S
H942 C950 0.950 . S
H943 C952 0.950 . S
H944 C954 0.950 . S
H945 C956 0.950 . S
H946 C958 0.950 . S
H947 C959 0.950 . S
C948 H940 0.950 . S
C948 C949 1.386 . S
C948 C950 1.391 . S
C949 C948 1.386 . S
C949 C953 1.393 . S
C950 H942 0.950 . S
C950 C948 1.391 . S
C950 C951 1.400 . S
C951 C950 1.400 . S
C951 C952 1.398 . S
C951 C957 1.491 . S
C952 H943 0.950 . S
C952 C951 1.398 . S
C952 C953 1.391 . S
C953 H941 0.950 . S
C953 C949 1.393 . S
C953 C952 1.391 . S
C954 H944 0.950 . S
C954 C955 1.386 . S
C954 C956 1.391 . S
C955 C954 1.386 . S
C955 C959 1.393 . S
C956 H945 0.950 . S
C956 C954 1.391 . S
C956 C957 1.400 . S
C957 C951 1.491 . S
C957 C956 1.400 . S
C957 C958 1.398 . S
C958 H946 0.950 . S
C958 C957 1.398 . S
C958 C959 1.391 . S
C959 H947 0.950 . S
C959 C955 1.393 . S
C959 C958 1.391 . S
H960 C968 0.950 . S
H961 C973 0.950 . S
H962 C970 0.950 1_554 S
H963 C972 0.950 . S
H964 C974 0.950 . S
H965 C976 0.950 . S
H966 C978 0.950 . S
H967 C979 0.950 . S
C968 H960 0.950 . S
C968 C969 1.388 . S
C968 C970 1.391 1_554 S
C969 C968 1.388 . S
C969 C973 1.387 1_554 S
C970 H962 0.950 1_556 S
C970 C968 1.391 1_556 S
C970 C971 1.400 . S
C971 C970 1.400 . S
C971 C972 1.398 . S
C971 C977 1.491 . S
C972 H963 0.950 . S
C972 C971 1.398 . S
C972 C973 1.391 . S
C973 H961 0.950 . S
C973 C969 1.387 1_556 S
C973 C972 1.391 . S
C974 H964 0.950 . S
C974 C975 1.386 . S
C974 C976 1.391 . S
C975 C974 1.386 . S
C975 C979 1.393 . S
C976 H965 0.950 . S
C976 C974 1.391 . S
C976 C977 1.400 . S
C977 C971 1.491 . S
C977 C976 1.400 . S
C977 C978 1.398 . S
C978 H966 0.950 . S
C978 C977 1.398 . S
C978 C979 1.391 . S
C979 H967 0.950 . S
C979 C975 1.393 . S
C979 C978 1.391 . S
H980 C988 0.950 . S
H981 C993 0.950 . S
H982 C990 0.950 . S
H983 C992 0.950 . S
H984 C994 0.950 . S
H985 C996 0.950 . S
H986 C998 0.950 . S
H987 C999 0.950 . S
C988 H980 0.950 . S
C988 C989 1.386 . S
C988 C990 1.391 . S
C989 C988 1.386 . S
C989 C993 1.393 . S
C990 H982 0.950 . S
C990 C988 1.391 . S
C990 C991 1.400 . S
C991 C990 1.400 . S
C991 C992 1.398 . S
C991 C997 1.491 . S
C992 H983 0.950 . S
C992 C991 1.398 . S
C992 C993 1.391 . S
C993 H981 0.950 . S
C993 C989 1.393 . S
C993 C992 1.391 . S
C994 H984 0.950 . S
C994 C995 1.386 . S
C994 C996 1.391 . S
C995 C994 1.386 . S
C995 C999 1.393 . S
C996 H985 0.950 . S
C996 C994 1.391 . S
C996 C997 1.400 . S
C997 C991 1.491 . S
C997 C996 1.400 . S
C997 C998 1.398 . S
C998 H986 0.950 . S
C998 C997 1.398 . S
C998 C999 1.391 . S
C999 H987 0.950 . S
C999 C995 1.393 . S
C999 C998 1.391 . S
H1000 C1008 0.950 . S
H1001 C1013 0.950 1_655 S
H1002 C1010 0.950 . S
H1003 C1012 0.950 1_655 S
H1004 C1014 0.950 . S
H1005 C1016 0.950 . S
H1006 C1018 0.950 . S
H1007 C1019 0.950 . S
C1008 H1000 0.950 . S
C1008 C1009 1.386 1_556 S
C1008 C1010 1.391 . S
C1009 C1008 1.386 1_554 S
C1009 C1013 1.393 . S
C1010 H1002 0.950 . S
C1010 C1008 1.391 . S
C1010 C1011 1.400 . S
C1011 C1010 1.400 . S
C1011 C1012 1.398 . S
C1011 C1017 1.491 . S
C1012 H1003 0.950 1_455 S
C1012 C1011 1.398 . S
C1012 C1013 1.391 1_556 S
C1013 H1001 0.950 1_455 S
C1013 C1009 1.393 . S
C1013 C1012 1.391 1_554 S
C1014 H1004 0.950 . S
C1014 C1015 1.386 1_655 S
C1014 C1016 1.391 . S
C1015 C1014 1.386 1_455 S
C1015 C1019 1.393 . S
C1016 H1005 0.950 . S
C1016 C1014 1.391 . S
C1016 C1017 1.400 1_655 S
C1017 C1011 1.491 . S
C1017 C1016 1.400 1_455 S
C1017 C1018 1.398 . S
C1018 H1006 0.950 . S
C1018 C1017 1.398 . S
C1018 C1019 1.391 . S
C1019 H1007 0.950 . S
C1019 C1015 1.393 . S
C1019 C1018 1.391 . S
H1020 C1028 0.950 . S
H1021 C1033 0.950 . S
H1022 C1030 0.950 . S
H1023 C1032 0.950 . S
H1024 C1034 0.950 . S
H1025 C1036 0.950 . S
H1026 C1038 0.950 . S
H1027 C1039 0.950 . S
C1028 H1020 0.950 . S
C1028 C1029 1.386 . S
C1028 C1030 1.391 . S
C1029 C1028 1.386 . S
C1029 C1033 1.393 . S
C1030 H1022 0.950 . S
C1030 C1028 1.391 . S
C1030 C1031 1.400 . S
C1031 C1030 1.400 . S
C1031 C1032 1.398 . S
C1031 C1037 1.491 . S
C1032 H1023 0.950 . S
C1032 C1031 1.398 . S
C1032 C1033 1.391 . S
C1033 H1021 0.950 . S
C1033 C1029 1.393 . S
C1033 C1032 1.391 . S
C1034 H1024 0.950 . S
C1034 C1035 1.386 . S
C1034 C1036 1.391 . S
C1035 C1034 1.386 . S
C1035 C1039 1.393 . S
C1036 H1025 0.950 . S
C1036 C1034 1.391 . S
C1036 C1037 1.400 . S
C1037 C1031 1.491 . S
C1037 C1036 1.400 . S
C1037 C1038 1.398 . S
C1038 H1026 0.950 . S
C1038 C1037 1.398 . S
C1038 C1039 1.391 . S
C1039 H1027 0.950 . S
C1039 C1035 1.393 . S
C1039 C1038 1.391 . S
H1040 C1048 0.950 . S
H1041 C1053 0.950 . S
H1042 C1050 0.950 . S
H1043 C1052 0.950 . S
H1044 C1054 0.950 . S
H1045 C1056 0.950 . S
H1046 C1058 0.950 . S
H1047 C1059 0.950 . S
C1048 H1040 0.950 . S
C1048 C1049 1.386 1_554 S
C1048 C1050 1.391 . S
C1049 C1048 1.386 1_556 S
C1049 C1053 1.393 . S
C1050 H1042 0.950 . S
C1050 C1048 1.391 . S
C1050 C1051 1.400 . S
C1051 C1050 1.400 . S
C1051 C1052 1.398 . S
C1051 C1057 1.491 . S
C1052 H1043 0.950 . S
C1052 C1051 1.398 . S
C1052 C1053 1.391 1_554 S
C1053 H1041 0.950 . S
C1053 C1049 1.393 . S
C1053 C1052 1.391 1_556 S
C1054 H1044 0.950 . S
C1054 C1055 1.386 . S
C1054 C1056 1.391 . S
C1055 C1054 1.386 . S
C1055 C1059 1.393 . S
C1056 H1045 0.950 . S
C1056 C1054 1.391 . S
C1056 C1057 1.400 . S
C1057 C1051 1.491 . S
C1057 C1056 1.400 . S
C1057 C1058 1.398 . S
C1058 H1046 0.950 . S
C1058 C1057 1.398 . S
C1058 C1059 1.391 . S
C1059 H1047 0.950 . S
C1059 C1055 1.393 . S
C1059 C1058 1.391 . S
H1060 C1068 0.950 . S
H1061 C1073 0.950 . S
H1062 C1070 0.950 . S
H1063 C1072 0.950 . S
H1064 C1074 0.950 . S
H1065 C1076 0.950 . S
H1066 C1078 0.950 . S
H1067 C1079 0.950 . S
C1068 H1060 0.950 . S
C1068 C1069 1.386 . S
C1068 C1070 1.391 . S
C1069 C1068 1.386 . S
C1069 C1073 1.393 . S
C1070 H1062 0.950 . S
C1070 C1068 1.391 . S
C1070 C1071 1.400 . S
C1071 C1070 1.400 . S
C1071 C1072 1.398 . S
C1071 C1077 1.491 . S
C1072 H1063 0.950 . S
C1072 C1071 1.398 . S
C1072 C1073 1.391 . S
C1073 H1061 0.950 . S
C1073 C1069 1.393 . S
C1073 C1072 1.391 . S
C1074 H1064 0.950 . S
C1074 C1075 1.386 . S
C1074 C1076 1.391 . S
C1075 C1074 1.386 . S
C1075 C1079 1.393 . S
C1076 H1065 0.950 . S
C1076 C1074 1.391 . S
C1076 C1077 1.400 . S
C1077 C1071 1.491 . S
C1077 C1076 1.400 . S
C1077 C1078 1.398 . S
C1078 H1066 0.950 . S
C1078 C1077 1.398 . S
C1078 C1079 1.391 . S
C1079 H1067 0.950 . S
C1079 C1075 1.393 . S
C1079 C1078 1.391 . S
H1080 C1088 0.950 . S
H1081 C1093 0.950 1_556 S
H1082 C1090 0.950 . S
H1083 C1092 0.950 . S
H1084 C1094 0.950 . S
H1085 C1096 0.950 . S
H1086 C1098 0.950 . S
H1087 C1099 0.950 . S
C1088 H1080 0.950 . S
C1088 C1089 1.393 . S
C1088 C1090 1.391 . S
C1089 C1088 1.393 . S
C1089 C1093 1.396 . S
C1090 H1082 0.950 . S
C1090 C1088 1.391 . S
C1090 C1091 1.400 . S
C1091 C1090 1.400 . S
C1091 C1092 1.398 . S
C1091 C1097 1.491 . S
C1092 H1083 0.950 . S
C1092 C1091 1.398 . S
C1092 C1093 1.391 . S
C1093 H1081 0.950 1_554 S
C1093 C1089 1.396 . S
C1093 C1092 1.391 . S
C1094 H1084 0.950 . S
C1094 C1095 1.386 . S
C1094 C1096 1.391 . S
C1095 C1094 1.386 . S
C1095 C1099 1.393 . S
C1096 H1085 0.950 . S
C1096 C1094 1.391 . S
C1096 C1097 1.400 . S
C1097 C1091 1.491 . S
C1097 C1096 1.400 . S
C1097 C1098 1.398 . S
C1098 H1086 0.950 . S
C1098 C1097 1.398 . S
C1098 C1099 1.391 . S
C1099 H1087 0.950 . S
C1099 C1095 1.393 . S
C1099 C1098 1.391 . S
H1100 C1108 0.950 . S
H1101 C1113 0.950 . S
H1102 C1110 0.950 . S
H1103 C1112 0.950 . S
H1104 C1114 0.950 . S
H1105 C1116 0.950 . S
H1106 C1118 0.950 . S
H1107 C1119 0.950 . S
C1108 H1100 0.950 . S
C1108 C1109 1.386 . S
C1108 C1110 1.391 . S
C1109 C1108 1.386 . S
C1109 C1113 1.393 . S
C1110 H1102 0.950 . S
C1110 C1108 1.391 . S
C1110 C1111 1.400 . S
C1111 C1110 1.400 . S
C1111 C1112 1.398 . S
C1111 C1117 1.491 . S
C1112 H1103 0.950 . S
C1112 C1111 1.398 . S
C1112 C1113 1.391 . S
C1113 H1101 0.950 . S
C1113 C1109 1.393 . S
C1113 C1112 1.391 . S
C1114 H1104 0.950 . S
C1114 C1115 1.386 . S
C1114 C1116 1.391 . S
C1115 C1114 1.386 . S
C1115 C1119 1.393 . S
C1116 H1105 0.950 . S
C1116 C1114 1.391 . S
C1116 C1117 1.400 . S
C1117 C1111 1.491 . S
C1117 C1116 1.400 . S
C1117 C1118 1.398 . S
C1118 H1106 0.950 . S
C1118 C1117 1.398 . S
C1118 C1119 1.391 . S
C1119 H1107 0.950 . S
C1119 C1115 1.393 . S
C1119 C1118 1.391 . S
H1120 C1128 0.950 . S
H1121 C1133 0.950 . S
H1122 C1130 0.950 . S
H1123 C1132 0.950 . S
H1124 C1134 0.950 . S
H1125 C1136 0.950 . S
H1126 C1138 0.950 . S
H1127 C1139 0.950 . S
C1128 H1120 0.950 . S
C1128 C1129 1.386 . S
C1128 C1130 1.391 . S
C1129 C1128 1.386 . S
C1129 C1133 1.393 . S
C1130 H1122 0.950 . S
C1130 C1128 1.391 . S
C1130 C1131 1.400 . S
C1131 C1130 1.400 . S
C1131 C1132 1.398 . S
C1131 C1137 1.491 . S
C1132 H1123 0.950 . S
C1132 C1131 1.398 . S
C1132 C1133 1.391 . S
C1133 H1121 0.950 . S
C1133 C1129 1.393 . S
C1133 C1132 1.391 . S
C1134 H1124 0.950 . S
C1134 C1135 1.386 . S
C1134 C1136 1.391 . S
C1135 C1134 1.386 . S
C1135 C1139 1.393 . S
C1136 H1125 0.950 . S
C1136 C1134 1.391 . S
C1136 C1137 1.400 . S
C1137 C1131 1.491 . S
C1137 C1136 1.400 . S
C1137 C1138 1.398 . S
C1138 H1126 0.950 . S
C1138 C1137 1.398 . S
C1138 C1139 1.391 . S
C1139 H1127 0.950 . S
C1139 C1135 1.393 . S
C1139 C1138 1.391 . S
H1140 C1148 0.950 . S
H1141 C1153 0.950 . S
H1142 C1150 0.950 . S
H1143 C1152 0.950 . S
H1144 C1154 0.950 . S
H1145 C1156 0.950 . S
H1146 C1158 0.950 . S
H1147 C1159 0.950 . S
C1148 H1140 0.950 . S
C1148 C1149 1.386 . S
C1148 C1150 1.391 . S
C1149 C1148 1.386 . S
C1149 C1153 1.393 . S
C1150 H1142 0.950 . S
C1150 C1148 1.391 . S
C1150 C1151 1.400 . S
C1151 C1150 1.400 . S
C1151 C1152 1.398 . S
C1151 C1157 1.491 . S
C1152 H1143 0.950 . S
C1152 C1151 1.398 . S
C1152 C1153 1.391 . S
C1153 H1141 0.950 . S
C1153 C1149 1.393 . S
C1153 C1152 1.391 . S
C1154 H1144 0.950 . S
C1154 C1155 1.386 . S
C1154 C1156 1.391 . S
C1155 C1154 1.386 . S
C1155 C1159 1.393 . S
C1156 H1145 0.950 . S
C1156 C1154 1.391 . S
C1156 C1157 1.400 . S
C1157 C1151 1.491 . S
C1157 C1156 1.400 . S
C1157 C1158 1.398 . S
C1158 H1146 0.950 . S
C1158 C1157 1.398 . S
C1158 C1159 1.391 . S
C1159 H1147 0.950 . S
C1159 C1155 1.393 . S
C1159 C1158 1.391 . S
H1160 C1168 0.950 . S
H1161 C1173 0.950 . S
H1162 C1170 0.950 . S
H1163 C1172 0.950 . S
H1164 C1174 0.950 . S
H1165 C1176 0.950 . S
H1166 C1178 0.950 . S
H1167 C1179 0.950 . S
C1168 H1160 0.950 . S
C1168 C1169 1.386 . S
C1168 C1170 1.391 . S
C1169 C1168 1.386 . S
C1169 C1173 1.393 . S
C1170 H1162 0.950 . S
C1170 C1168 1.391 . S
C1170 C1171 1.400 . S
C1171 C1170 1.400 . S
C1171 C1172 1.398 . S
C1171 C1177 1.491 . S
C1172 H1163 0.950 . S
C1172 C1171 1.398 . S
C1172 C1173 1.391 . S
C1173 H1161 0.950 . S
C1173 C1169 1.393 . S
C1173 C1172 1.391 . S
C1174 H1164 0.950 . S
C1174 C1175 1.386 . S
C1174 C1176 1.391 . S
C1175 C1174 1.386 . S
C1175 C1179 1.393 . S
C1176 H1165 0.950 . S
C1176 C1174 1.391 . S
C1176 C1177 1.400 . S
C1177 C1171 1.491 . S
C1177 C1176 1.400 . S
C1177 C1178 1.398 . S
C1178 H1166 0.950 . S
C1178 C1177 1.398 . S
C1178 C1179 1.391 . S
C1179 H1167 0.950 . S
C1179 C1175 1.393 . S
C1179 C1178 1.391 . S
H1180 C1188 0.950 . S
H1181 C1193 0.950 . S
H1182 C1190 0.950 . S
H1183 C1192 0.950 . S
H1184 C1194 0.950 . S
H1185 C1196 0.950 . S
H1186 C1198 0.950 . S
H1187 C1199 0.950 . S
C1188 H1180 0.950 . S
C1188 C1189 1.386 . S
C1188 C1190 1.391 . S
C1189 C1188 1.386 . S
C1189 C1193 1.393 . S
C1190 H1182 0.950 . S
C1190 C1188 1.391 . S
C1190 C1191 1.400 . S
C1191 C1190 1.400 . S
C1191 C1192 1.398 . S
C1191 C1197 1.491 . S
C1192 H1183 0.950 . S
C1192 C1191 1.398 . S
C1192 C1193 1.391 . S
C1193 H1181 0.950 . S
C1193 C1189 1.393 . S
C1193 C1192 1.391 . S
C1194 H1184 0.950 . S
C1194 C1195 1.386 . S
C1194 C1196 1.391 . S
C1195 C1194 1.386 . S
C1195 C1199 1.393 . S
C1196 H1185 0.950 . S
C1196 C1194 1.391 . S
C1196 C1197 1.400 . S
C1197 C1191 1.491 . S
C1197 C1196 1.400 . S
C1197 C1198 1.398 . S
C1198 H1186 0.950 . S
C1198 C1197 1.398 . S
C1198 C1199 1.391 . S
C1199 H1187 0.950 . S
C1199 C1195 1.393 . S
C1199 C1198 1.391 . S
H1200 C1208 0.950 . S
H1201 C1213 0.950 . S
H1202 C1210 0.950 . S
H1203 C1212 0.950 . S
H1204 C1214 0.950 . S
H1205 C1216 0.950 . S
H1206 C1218 0.950 . S
H1207 C1219 0.950 . S
C1208 H1200 0.950 . S
C1208 C1209 1.386 . S
C1208 C1210 1.391 . S
C1209 C1208 1.386 . S
C1209 C1213 1.393 . S
C1210 H1202 0.950 . S
C1210 C1208 1.391 . S
C1210 C1211 1.400 . S
C1211 C1210 1.400 . S
C1211 C1212 1.398 . S
C1211 C1217 1.491 . S
C1212 H1203 0.950 . S
C1212 C1211 1.398 . S
C1212 C1213 1.391 . S
C1213 H1201 0.950 . S
C1213 C1209 1.393 . S
C1213 C1212 1.391 . S
C1214 H1204 0.950 . S
C1214 C1215 1.386 . S
C1214 C1216 1.391 . S
C1215 C1214 1.386 . S
C1215 C1219 1.393 . S
C1216 H1205 0.950 . S
C1216 C1214 1.391 . S
C1216 C1217 1.400 . S
C1217 C1211 1.491 . S
C1217 C1216 1.400 . S
C1217 C1218 1.398 . S
C1218 H1206 0.950 . S
C1218 C1217 1.398 . S
C1218 C1219 1.391 . S
C1219 H1207 0.950 . S
C1219 C1215 1.393 . S
C1219 C1218 1.391 . S
H1220 C1228 0.950 . S
H1221 C1233 0.950 . S
H1222 C1230 0.950 1_556 S
H1223 C1232 0.950 . S
H1224 C1234 0.950 . S
H1225 C1236 0.950 . S
H1226 C1238 0.950 1_556 S
H1227 C1239 0.950 . S
C1228 H1220 0.950 . S
C1228 C1229 1.386 . S
C1228 C1230 1.391 . S
C1229 C1228 1.386 . S
C1229 C1233 1.393 . S
C1230 H1222 0.950 1_554 S
C1230 C1228 1.391 . S
C1230 C1231 1.400 . S
C1231 C1230 1.400 . S
C1231 C1232 1.398 . S
C1231 C1237 1.491 . S
C1232 H1223 0.950 . S
C1232 C1231 1.398 . S
C1232 C1233 1.391 . S
C1233 H1221 0.950 . S
C1233 C1229 1.393 . S
C1233 C1232 1.391 . S
C1234 H1224 0.950 . S
C1234 C1235 1.386 . S
C1234 C1236 1.391 . S
C1235 C1234 1.386 . S
C1235 C1239 1.393 1_554 S
C1236 H1225 0.950 . S
C1236 C1234 1.391 . S
C1236 C1237 1.400 . S
C1237 C1231 1.491 . S
C1237 C1236 1.400 . S
C1237 C1238 1.398 . S
C1238 H1226 0.950 1_554 S
C1238 C1237 1.398 . S
C1238 C1239 1.391 1_554 S
C1239 H1227 0.950 . S
C1239 C1235 1.393 1_556 S
C1239 C1238 1.391 1_556 S
H1240 C1248 0.950 . S
H1241 C1253 0.950 . S
H1242 C1250 0.950 . S
H1243 C1252 0.950 . S
H1244 C1254 0.950 1_556 S
H1245 C1256 0.950 1_556 S
H1246 C1258 0.950 . S
H1247 C1259 0.950 . S
C1248 H1240 0.950 . S
C1248 C1249 1.386 . S
C1248 C1250 1.391 . S
C1249 C1248 1.386 . S
C1249 C1253 1.393 1_545 S
C1250 H1242 0.950 . S
C1250 C1248 1.391 . S
C1250 C1251 1.400 1_545 S
C1251 C1250 1.400 1_565 S
C1251 C1252 1.398 . S
C1251 C1257 1.491 . S
C1252 H1243 0.950 . S
C1252 C1251 1.398 . S
C1252 C1253 1.391 . S
C1253 H1241 0.950 . S
C1253 C1249 1.393 1_565 S
C1253 C1252 1.391 . S
C1254 H1244 0.950 1_554 S
C1254 C1255 1.386 . S
C1254 C1256 1.391 . S
C1255 C1254 1.386 . S
C1255 C1259 1.393 . S
C1256 H1245 0.950 1_554 S
C1256 C1254 1.391 . S
C1256 C1257 1.400 . S
C1257 C1251 1.491 . S
C1257 C1256 1.400 . S
C1257 C1258 1.398 . S
C1258 H1246 0.950 . S
C1258 C1257 1.398 . S
C1258 C1259 1.391 . S
C1259 H1247 0.950 . S
C1259 C1255 1.393 . S
C1259 C1258 1.391 . S
C315 C154 1.423 . S
C309 C50 1.439 . S
C335 C167 1.571 . S
C329 C61 1.588 1_455 S
C349 C67 1.471 . S
C355 C180 1.456 . S
C375 C193 1.514 . S
C369 C41 1.523 . S
C395 C201 1.456 . S
C389 C95 1.486 . S
C415 C214 1.429 . S
C409 C113 1.444 . S
C429 C106 1.512 . S
C435 C227 1.484 . S
C455 C240 1.496 . S
C449 C86 1.518 . S
C469 C104 1.448 . S
C475 C258 1.428 . S
C495 C269 1.501 . S
C489 C88 1.534 . S
C509 C94 1.473 . S
C515 C253 1.449 . S
C535 C261 1.447 . S
C529 C112 1.478 . S
C549 C70 1.497 . S
C555 C284 1.481 . S
C569 C40 1.517 . S
C575 C274 1.494 . S
C589 C49 1.513 . S
C595 C279 1.494 . S
C609 C59 1.566 . S
C615 C282 1.544 . S
C629 C34 1.443 . S
C635 C191 1.426 . S
C649 C133 1.433 . S
C655 C183 1.417 . S
C675 C152 1.540 1_556 S
C669 C139 1.565 . S
C695 C157 1.501 . S
C689 C77 1.522 . S
C709 C43 1.523 1_545 S
C715 C204 1.488 . S
C735 C243 1.507 . S
C729 C103 1.531 . S
C755 C196 1.489 . S
C749 C85 1.534 . S
C775 C222 1.446 . S
C769 C115 1.468 . S
C795 C232 1.435 . S
C789 C131 1.436 . S
C809 C142 1.587 . S
C815 C245 1.581 . S
C829 C76 1.472 . S
C835 C206 1.460 . S
C855 C219 1.516 . S
C849 C122 1.522 . S
C869 C32 1.486 . S
C875 C175 1.459 . S
C895 C188 1.416 . S
C889 C5 1.445 . S
C915 C149 1.493 . S
C909 C16 1.512 . S
C935 C162 1.506 . S
C929 C23 1.521 1_455 S
C949 C14 1.446 . S
C955 C271 1.440 . S
C969 C25 1.540 . S
C975 C256 1.498 1_655 S
C989 C31 1.473 . S
C995 C266 1.452 . S
C1009 C4 1.479 . S
C1015 C248 1.461 . S
C1035 C297 1.492 . S
C1029 C79 1.497 . S
C1055 C287 1.495 . S
C1049 C121 1.516 . S
C1075 C292 1.492 . S
C1069 C130 1.513 . S
C1089 C140 1.556 1_554 S
C1095 C295 1.542 . S
C1109 C97 1.443 . S
C1115 C217 1.424 . S
C1135 C209 1.420 . S
C1129 C52 1.430 . S
C1155 C230 1.533 . S
C1149 C58 1.564 . S
C1175 C235 1.506 . S
C1169 C68 1.523 . S
C1189 C124 1.525 . S
C1195 C178 1.502 . S
C1215 C165 1.507 . S
C1209 C13 1.532 . S
C1229 C22 1.519 . S
C1235 C170 1.492 . S
C1255 C144 1.438 . S
C1249 C7 1.467 . S
