# Generated by pormake.
# Topology ctn, (3,4)-cn, num edge types: 1
# Building blocks:
#     Node 0, Type 0, BuildingBlock: BETDAH_clean_linker_0, # of connection points: 3
#     Node 1, Type 0, BuildingBlock: BETDAH_clean_linker_0, # of connection points: 3
#     Node 2, Type 0, BuildingBlock: BETDAH_clean_linker_0, # of connection points: 3
#     Node 3, Type 0, BuildingBlock: BETDAH_clean_linker_0, # of connection points: 3
#     Node 4, Type 0, BuildingBlock: BETDAH_clean_linker_0, # of connection points: 3
#     Node 5, Type 0, BuildingBlock: BETDAH_clean_linker_0, # of connection points: 3
#     Node 6, Type 0, BuildingBlock: BETDAH_clean_linker_0, # of connection points: 3
#     Node 7, Type 0, BuildingBlock: BETDAH_clean_linker_0, # of connection points: 3
#     Node 8, Type 0, BuildingBlock: BETDAH_clean_linker_0, # of connection points: 3
#     Node 9, Type 0, BuildingBlock: BETDAH_clean_linker_0, # of connection points: 3
#     Node 10, Type 0, BuildingBlock: BETDAH_clean_linker_0, # of connection points: 3
#     Node 11, Type 0, BuildingBlock: BETDAH_clean_linker_0, # of connection points: 3
#     Node 12, Type 0, BuildingBlock: BETDAH_clean_linker_0, # of connection points: 3
#     Node 13, Type 0, BuildingBlock: BETDAH_clean_linker_0, # of connection points: 3
#     Node 14, Type 0, BuildingBlock: BETDAH_clean_linker_0, # of connection points: 3
#     Node 15, Type 0, BuildingBlock: BETDAH_clean_linker_0, # of connection points: 3
#     Node 16, Type 1, BuildingBlock: KUFVIS_clean_sbu_0, # of connection points: 4
#     Node 17, Type 1, BuildingBlock: KUFVIS_clean_sbu_0, # of connection points: 4
#     Node 18, Type 1, BuildingBlock: KUFVIS_clean_sbu_0, # of connection points: 4
#     Node 19, Type 1, BuildingBlock: KUFVIS_clean_sbu_0, # of connection points: 4
#     Node 20, Type 1, BuildingBlock: KUFVIS_clean_sbu_0, # of connection points: 4
#     Node 21, Type 1, BuildingBlock: KUFVIS_clean_sbu_0, # of connection points: 4
#     Node 22, Type 1, BuildingBlock: KUFVIS_clean_sbu_0, # of connection points: 4
#     Node 23, Type 1, BuildingBlock: KUFVIS_clean_sbu_0, # of connection points: 4
#     Node 24, Type 1, BuildingBlock: KUFVIS_clean_sbu_0, # of connection points: 4
#     Node 25, Type 1, BuildingBlock: KUFVIS_clean_sbu_0, # of connection points: 4
#     Node 26, Type 1, BuildingBlock: KUFVIS_clean_sbu_0, # of connection points: 4
#     Node 27, Type 1, BuildingBlock: KUFVIS_clean_sbu_0, # of connection points: 4
#     Edge 28, Type (0, 1), BuildingBlock: XUDNAN_clean_linker_2, # of connection points: 2
#     Edge 29, Type (0, 1), BuildingBlock: XUDNAN_clean_linker_2, # of connection points: 2
#     Edge 30, Type (0, 1), BuildingBlock: XUDNAN_clean_linker_2, # of connection points: 2
#     Edge 31, Type (0, 1), BuildingBlock: XUDNAN_clean_linker_2, # of connection points: 2
#     Edge 32, Type (0, 1), BuildingBlock: XUDNAN_clean_linker_2, # of connection points: 2
#     Edge 33, Type (0, 1), BuildingBlock: XUDNAN_clean_linker_2, # of connection points: 2
#     Edge 34, Type (0, 1), BuildingBlock: XUDNAN_clean_linker_2, # of connection points: 2
#     Edge 35, Type (0, 1), BuildingBlock: XUDNAN_clean_linker_2, # of connection points: 2
#     Edge 36, Type (0, 1), BuildingBlock: XUDNAN_clean_linker_2, # of connection points: 2
#     Edge 37, Type (0, 1), BuildingBlock: XUDNAN_clean_linker_2, # of connection points: 2
#     Edge 38, Type (0, 1), BuildingBlock: XUDNAN_clean_linker_2, # of connection points: 2
#     Edge 39, Type (0, 1), BuildingBlock: XUDNAN_clean_linker_2, # of connection points: 2
#     Edge 40, Type (0, 1), BuildingBlock: XUDNAN_clean_linker_2, # of connection points: 2
#     Edge 41, Type (0, 1), BuildingBlock: XUDNAN_clean_linker_2, # of connection points: 2
#     Edge 42, Type (0, 1), BuildingBlock: XUDNAN_clean_linker_2, # of connection points: 2
#     Edge 43, Type (0, 1), BuildingBlock: XUDNAN_clean_linker_2, # of connection points: 2
#     Edge 44, Type (0, 1), BuildingBlock: XUDNAN_clean_linker_2, # of connection points: 2
#     Edge 45, Type (0, 1), BuildingBlock: XUDNAN_clean_linker_2, # of connection points: 2
#     Edge 46, Type (0, 1), BuildingBlock: XUDNAN_clean_linker_2, # of connection points: 2
#     Edge 47, Type (0, 1), BuildingBlock: XUDNAN_clean_linker_2, # of connection points: 2
#     Edge 48, Type (0, 1), BuildingBlock: XUDNAN_clean_linker_2, # of connection points: 2
#     Edge 49, Type (0, 1), BuildingBlock: XUDNAN_clean_linker_2, # of connection points: 2
#     Edge 50, Type (0, 1), BuildingBlock: XUDNAN_clean_linker_2, # of connection points: 2
#     Edge 51, Type (0, 1), BuildingBlock: XUDNAN_clean_linker_2, # of connection points: 2
#     Edge 52, Type (0, 1), BuildingBlock: XUDNAN_clean_linker_2, # of connection points: 2
#     Edge 53, Type (0, 1), BuildingBlock: XUDNAN_clean_linker_2, # of connection points: 2
#     Edge 54, Type (0, 1), BuildingBlock: XUDNAN_clean_linker_2, # of connection points: 2
#     Edge 55, Type (0, 1), BuildingBlock: XUDNAN_clean_linker_2, # of connection points: 2
#     Edge 56, Type (0, 1), BuildingBlock: XUDNAN_clean_linker_2, # of connection points: 2
#     Edge 57, Type (0, 1), BuildingBlock: XUDNAN_clean_linker_2, # of connection points: 2
#     Edge 58, Type (0, 1), BuildingBlock: XUDNAN_clean_linker_2, # of connection points: 2
#     Edge 59, Type (0, 1), BuildingBlock: XUDNAN_clean_linker_2, # of connection points: 2
#     Edge 60, Type (0, 1), BuildingBlock: XUDNAN_clean_linker_2, # of connection points: 2
#     Edge 61, Type (0, 1), BuildingBlock: XUDNAN_clean_linker_2, # of connection points: 2
#     Edge 62, Type (0, 1), BuildingBlock: XUDNAN_clean_linker_2, # of connection points: 2
#     Edge 63, Type (0, 1), BuildingBlock: XUDNAN_clean_linker_2, # of connection points: 2
#     Edge 64, Type (0, 1), BuildingBlock: XUDNAN_clean_linker_2, # of connection points: 2
#     Edge 65, Type (0, 1), BuildingBlock: XUDNAN_clean_linker_2, # of connection points: 2
#     Edge 66, Type (0, 1), BuildingBlock: XUDNAN_clean_linker_2, # of connection points: 2
#     Edge 67, Type (0, 1), BuildingBlock: XUDNAN_clean_linker_2, # of connection points: 2
#     Edge 68, Type (0, 1), BuildingBlock: XUDNAN_clean_linker_2, # of connection points: 2
#     Edge 69, Type (0, 1), BuildingBlock: XUDNAN_clean_linker_2, # of connection points: 2
#     Edge 70, Type (0, 1), BuildingBlock: XUDNAN_clean_linker_2, # of connection points: 2
#     Edge 71, Type (0, 1), BuildingBlock: XUDNAN_clean_linker_2, # of connection points: 2
#     Edge 72, Type (0, 1), BuildingBlock: XUDNAN_clean_linker_2, # of connection points: 2
#     Edge 73, Type (0, 1), BuildingBlock: XUDNAN_clean_linker_2, # of connection points: 2
#     Edge 74, Type (0, 1), BuildingBlock: XUDNAN_clean_linker_2, # of connection points: 2
#     Edge 75, Type (0, 1), BuildingBlock: XUDNAN_clean_linker_2, # of connection points: 2
# Relax obj value: 0.060
# Max RMSD: 0.158
# Mean RMSD: 0.106
data_MOF--net-ctn--node1-KUFVIS_clean_sbu_0--node2-BETDAH_clean_linker_0--edge1-XUDNAN_clean_linker_2
_symmetry_space_group_name_H-M    P1
_symmetry_Int_Tables_number       1
_symmetry_cell_setting            triclinic
loop_
_symmetry_equiv_pos_as_xyz
'x, y, z'
_cell_length_a     53.048089
_cell_length_b     52.620842
_cell_length_c     53.755608
_cell_angle_alpha  99.474796
_cell_angle_beta   90.88174
_cell_angle_gamma 96.362454
loop_
_atom_site_label
_atom_site_type_symbol
_atom_site_fract_x
_atom_site_fract_y
_atom_site_fract_z
_atom_type_partial_charge
H0 H 0.09483 0.02588 0.10278 0.0
H1 H 0.11202 0.04398 0.02919 0.0
H2 H 0.04793 0.07246 0.06734 0.0
C3 C 0.09079 0.03544 0.08705 0.0
C4 C 0.06966 0.04957 0.0879 0.0
C5 C 0.10653 0.0333 0.06614 0.0
C6 C 0.10042 0.04529 0.04565 0.0
C7 C 0.07963 0.05959 0.04611 0.0
C8 C 0.06443 0.06204 0.06738 0.0
N9 N 0.07318 0.06895 0.0238 0.0
C10 C 0.06606 0.09346 0.02287 0.0
H11 H 0.34844 0.65486 0.23219 0.0
H12 H 0.35926 0.72346 0.19758 0.0
H13 H 0.29576 0.66623 0.17454 0.0
C14 C 0.34261 0.66621 0.2185 0.0
C15 C 0.32072 0.65707 0.20319 0.0
C16 C 0.35656 0.69026 0.21693 0.0
C17 C 0.34866 0.70501 0.19915 0.0
C18 C 0.32681 0.69602 0.18368 0.0
C19 C 0.31304 0.67233 0.18596 0.0
N20 N 0.3173 0.71031 0.16608 0.0
C21 C 0.32868 0.7334 0.15975 0.0
H22 H 0.02533 0.44734 0.07548 0.0
H23 H 1.00617 0.52326 0.10678 0.0
H24 H 0.97256 0.48406 0.0357 0.0
C25 C 0.01518 0.46389 0.07426 0.0
C26 C 0.9987 0.46316 0.05335 0.0
C27 C 0.01798 0.48536 0.09392 0.0
C28 C 1.00466 0.50661 0.09177 0.0
C29 C 0.98849 0.50646 0.07088 0.0
C30 C 0.98531 0.48455 0.05174 0.0
N31 N 0.97566 0.52868 0.07025 0.0
C32 C 0.95739 0.53153 0.05234 0.0
H33 H 0.78864 0.8425 0.18499 0.0
H34 H 0.70945 0.8138 0.18858 0.0
H35 H 0.74013 0.88566 0.23452 0.0
C36 C 0.76998 0.84453 0.1925 0.0
C37 C 0.76673 0.86605 0.21074 0.0
C38 C 0.74947 0.8254 0.18436 0.0
C39 C 0.72543 0.82832 0.19463 0.0
C40 C 0.72213 0.85024 0.21268 0.0
C41 C 0.74273 0.86897 0.22042 0.0
N42 N 0.69825 0.85479 0.22283 0.0
C43 C 0.68047 0.83595 0.22961 0.0
H44 H 0.1095 0.0267 0.46032 0.0
H45 H 0.10263 0.98092 0.51967 0.0
H46 H 0.03852 0.98204 0.46969 0.0
C47 C 0.09797 0.01358 0.47029 0.0
C48 C 0.07282 1.00515 0.46195 0.0
C49 C 0.10914 1.00451 0.4905 0.0
C50 C 0.09414 0.98812 0.50415 0.0
C51 C 0.06829 0.98047 0.49686 0.0
C52 C 0.05798 0.98898 0.47579 0.0
N53 N 0.05197 0.96361 0.50935 0.0
C54 C 0.05855 0.95066 0.52871 0.0
H55 H 0.27178 0.70336 0.87377 0.0
H56 H 0.21892 0.7371 0.83093 0.0
H57 H 0.2576 0.67426 0.79467 0.0
C58 C 0.26198 0.70404 0.85609 0.0
C59 C 0.26675 0.68657 0.83444 0.0
C60 C 0.24494 0.72257 0.85503 0.0
C61 C 0.23189 0.72279 0.83206 0.0
C62 C 0.23645 0.70534 0.81025 0.0
C63 C 0.25418 0.68769 0.81152 0.0
N64 N 0.22392 0.70527 0.78666 0.0
C65 C 0.20153 0.71619 0.7838 0.0
H66 H 0.95642 0.58623 0.54735 0.0
H67 H 0.01951 0.57488 0.49872 0.0
H68 H 0.95471 0.5171 0.49176 0.0
C69 C 0.96522 0.57465 0.53203 0.0
C70 C 0.95252 0.55075 0.52032 0.0
C71 C 0.98938 0.58352 0.52424 0.0
C72 C 1.00081 0.56823 0.50454 0.0
C73 C 0.98815 0.54426 0.4927 0.0
C74 C 0.96421 0.53573 0.50076 0.0
N75 N 0.99897 0.52782 0.47307 0.0
C76 C 0.01905 0.53568 0.45873 0.0
H77 H 0.86815 0.79707 0.83662 0.0
H78 H 0.83758 0.86173 0.81186 0.0
H79 H 0.80202 0.82619 0.87075 0.0
C80 C 0.85415 0.8107 0.83806 0.0
C81 C 0.8349 0.80904 0.85563 0.0
C82 C 0.85538 0.82961 0.82211 0.0
C83 C 0.83706 0.84733 0.82415 0.0
C84 C 0.81764 0.84579 0.84162 0.0
C85 C 0.81685 0.8268 0.85714 0.0
N86 N 0.79813 0.86247 0.84421 0.0
C87 C 0.79562 0.88324 0.83166 0.0
H88 H 0.39208 0.29422 0.34791 0.0
H89 H 0.3585 0.33729 0.29746 0.0
H90 H 0.31537 0.31361 0.3581 0.0
C91 C 0.37629 0.30387 0.34263 0.0
C92 C 0.35364 0.30246 0.35608 0.0
C93 C 0.37846 0.3169 0.32178 0.0
C94 C 0.35761 0.3283 0.31423 0.0
C95 C 0.33509 0.32745 0.32733 0.0
C96 C 0.33311 0.31475 0.34841 0.0
N97 N 0.31387 0.33632 0.31649 0.0
C98 C 0.2972 0.352 0.32934 0.0
H99 H 0.54786 0.94141 0.56029 0.0
H100 H 0.5136 0.01183 0.5595 0.0
H101 H 0.5072 0.95214 0.49385 0.0
C102 C 0.53661 0.95303 0.55064 0.0
C103 C 0.5277 0.9434 0.52582 0.0
C104 C 0.5315 0.97749 0.56317 0.0
C105 C 0.51761 0.99291 0.55017 0.0
C106 C 0.50906 0.98368 0.52495 0.0
C107 C 0.51437 0.95918 0.51301 0.0
N108 N 0.49562 0.99843 0.51048 0.0
C109 C 0.48028 0.01739 0.51981 0.0
H110 H 0.26328 0.34528 0.68093 0.0
H111 H 0.19786 0.28913 0.68077 0.0
H112 H 0.20949 0.35556 0.73979 0.0
C113 C 0.24568 0.33883 0.68914 0.0
C114 C 0.23809 0.35334 0.71154 0.0
C115 C 0.23159 0.31543 0.67795 0.0
C116 C 0.20886 0.30729 0.68886 0.0
C117 C 0.20069 0.32161 0.711 0.0
C118 C 0.21545 0.3446 0.72247 0.0
N119 N 0.17792 0.31168 0.72137 0.0
C120 C 0.16801 0.32191 0.7442 0.0
H121 H 0.85631 0.18803 0.74204 0.0
H122 H 0.90308 0.24203 0.70572 0.0
H123 H 0.82322 0.22509 0.68594 0.0
C124 C 0.85853 0.20084 0.72815 0.0
C125 C 0.8372 0.20461 0.71403 0.0
C126 C 0.88234 0.21431 0.72546 0.0
C127 C 0.88477 0.23142 0.70794 0.0
C128 C 0.86367 0.23548 0.69361 0.0
C129 C 0.83972 0.22196 0.69666 0.0
N130 N 0.86753 0.25331 0.67645 0.0
C131 C 0.84883 0.2658 0.6666 0.0
H132 H 0.57129 0.51188 0.5963 0.0
H133 H 0.57873 0.55519 0.53445 0.0
H134 H 0.53117 0.57843 0.59565 0.0
C135 C 0.56657 0.52767 0.58713 0.0
C136 C 0.5502 0.54487 0.59898 0.0
C137 C 0.57712 0.53112 0.56373 0.0
C138 C 0.57047 0.55181 0.55208 0.0
C139 C 0.55381 0.56877 0.56366 0.0
C140 C 0.544 0.56518 0.58693 0.0
N141 N 0.54687 0.59025 0.55325 0.0
C142 C 0.55119 0.59542 0.52899 0.0
H143 H 0.5867 0.52571 0.96127 0.0
H144 H 0.58809 0.47822 0.01934 0.0
H145 H 0.52478 0.46695 0.96617 0.0
C146 C 0.57796 0.51012 0.97028 0.0
C147 C 0.55429 0.49716 0.96109 0.0
C148 C 0.59039 0.50337 0.99117 0.0
C149 C 0.57874 0.48336 1.00312 0.0
C150 C 0.55508 0.46999 0.99381 0.0
C151 C 0.54317 0.47703 0.97292 0.0
N152 N 0.54221 0.44958 1.00477 0.0
C153 C 0.55076 0.43896 0.02499 0.0
H154 H 0.7934 0.20708 0.37864 0.0
H155 H 0.72223 0.22061 0.34668 0.0
H156 H 0.75844 0.15387 0.31514 0.0
C157 C 0.77795 0.20132 0.36472 0.0
C158 C 0.77876 0.17898 0.34663 0.0
C159 C 0.7579 0.2167 0.36477 0.0
C160 C 0.73765 0.20878 0.347 0.0
C161 C 0.73771 0.1858 0.3293 0.0
C162 C 0.75813 0.17097 0.32941 0.0
N163 N 0.71796 0.17728 0.31068 0.0
C164 C 0.70139 0.19318 0.30253 0.0
H165 H 0.48017 0.07633 0.03396 0.0
H166 H 0.54409 0.0709 0.98549 0.0
H167 H 0.48449 1.00775 0.97895 0.0
C168 C 0.48983 0.06581 0.01861 0.0
C169 C 0.4791 0.04102 1.00694 0.0
C170 C 0.51333 0.07677 0.01104 0.0
C171 C 0.52585 0.06282 0.99124 0.0
C172 C 0.51526 0.03796 0.97958 0.0
C173 C 0.49218 0.02718 0.98767 0.0
N174 N 0.52808 0.02258 0.96078 0.0
C175 C 0.54079 0.03227 0.94131 0.0
Mn176 Mn 0.28493 0.88835 0.03545 0.0
Mn177 Mn 0.27646 0.91056 0.98078 0.0
C178 C 0.26194 0.86231 1.00167 0.0
C179 C 0.30792 0.86695 0.06144 0.0
C180 C 0.24787 0.92739 0.02806 0.0
O181 O 0.31239 0.91928 0.03822 0.0
O182 O 0.30676 0.93044 0.99989 0.0
C183 C 0.32262 0.89536 0.95471 0.0
N184 N 0.29686 0.89414 0.95533 0.0
C185 C 0.29207 0.86922 0.91346 0.0
C186 C 0.31855 0.87039 0.91228 0.0
C187 C 0.33388 0.88333 0.93308 0.0
C188 C 0.28193 0.88123 0.93564 0.0
H189 H 0.33448 0.90553 0.97054 0.0
C190 C 0.31873 0.93299 0.02125 0.0
O191 O 0.29216 0.88296 0.07064 0.0
O192 O 0.31104 0.86414 0.03728 0.0
N193 N 0.24801 0.89264 0.96033 0.0
C194 C 0.22278 0.89312 0.96452 0.0
C195 C 0.20485 0.88034 0.94584 0.0
C196 C 0.21304 0.86746 0.92292 0.0
C197 C 0.23909 0.86751 0.9189 0.0
C198 C 0.25607 0.88045 0.93827 0.0
H199 H 0.21635 0.90294 0.98208 0.0
O200 O 0.2587 0.85781 0.02449 0.0
O201 O 0.27841 0.88183 0.99936 0.0
O202 O 0.25746 0.91298 0.04168 0.0
O203 O 0.25402 0.92827 1.00532 0.0
C204 C 0.24887 0.85544 0.89633 0.0
C205 C 0.27533 0.85655 0.89351 0.0
H206 H 0.32731 0.86127 0.89557 0.0
H207 H 0.35433 0.88422 0.93236 0.0
H208 H 0.18478 0.88043 0.94909 0.0
H209 H 0.19916 0.85765 0.90853 0.0
H210 H 0.23621 0.84535 0.88099 0.0
H211 H 0.28262 0.84723 0.87604 0.0
Mn212 Mn 0.16847 0.50886 0.28501 0.0
Mn213 Mn 0.15698 0.56922 0.2774 0.0
C214 C 0.1948 0.53229 0.26072 0.0
C215 C 0.18645 0.47972 0.30657 0.0
C216 C 0.12803 0.52038 0.24808 0.0
O217 O 0.14439 0.51849 0.31346 0.0
O218 O 0.13885 0.5586 0.30674 0.0
C219 C 0.18224 0.59877 0.32451 0.0
N220 N 0.17951 0.59464 0.29888 0.0
C221 C 0.20586 0.63431 0.29639 0.0
C222 C 0.20895 0.63904 0.32276 0.0
C223 C 0.19734 0.62102 0.33686 0.0
C224 C 0.19142 0.61132 0.28509 0.0
H225 H 0.17273 0.58536 0.33545 0.0
C226 C 0.13491 0.53987 0.31919 0.0
O227 O 0.16646 0.47265 0.29184 0.0
O228 O 0.19571 0.50397 0.30945 0.0
N229 N 0.17318 0.58288 0.25007 0.0
C230 C 0.16801 0.5757 0.22481 0.0
C231 C 0.17915 0.59104 0.20796 0.0
C232 C 0.19464 0.61416 0.21731 0.0
C233 C 0.19891 0.62166 0.24342 0.0
C234 C 0.18806 0.6051 0.25923 0.0
H235 H 0.15565 0.55827 0.21753 0.0
O236 O 0.19363 0.50721 0.25773 0.0
O237 O 0.18093 0.54326 0.27819 0.0
O238 O 0.13924 0.50447 0.25855 0.0
O239 O 0.1331 0.54493 0.25393 0.0
C240 C 0.21285 0.6453 0.25441 0.0
C241 C 0.21619 0.6517 0.2809 0.0
H242 H 0.22014 0.65646 0.33238 0.0
H243 H 0.1996 0.62453 0.35722 0.0
H244 H 0.17549 0.58525 0.18786 0.0
H245 H 0.20282 0.62619 0.20429 0.0
H246 H 0.2212 0.65865 0.24268 0.0
H247 H 0.22714 0.66983 0.28912 0.0
Mn248 Mn 0.78622 0.6452 1.00498 0.0
Mn249 Mn 0.73259 0.66812 0.98773 0.0
C250 C 0.74676 0.62352 0.01097 0.0
C251 C 0.82071 0.62088 0.99896 0.0
C252 C 0.76269 0.69073 0.0359 0.0
O253 O 0.79951 0.67003 0.98129 0.0
O254 O 0.76257 0.68391 0.9715 0.0
C255 C 0.73073 0.64538 0.93346 0.0
N256 N 0.71958 0.64832 0.95626 0.0
C257 C 0.68012 0.62566 0.93781 0.0
C258 C 0.69115 0.62236 0.91413 0.0
C259 C 0.71665 0.63207 0.91199 0.0
C260 C 0.69531 0.63839 0.95864 0.0
H261 H 0.75014 0.65332 0.93164 0.0
C262 C 0.78662 0.68387 0.96966 0.0
O263 O 0.82116 0.64136 0.01606 0.0
O264 O 0.80045 0.61494 0.98428 0.0
N265 N 0.70181 0.65476 1.00146 0.0
C266 C 0.69383 0.65999 0.02556 0.0
C267 C 0.669 0.65085 0.03105 0.0
C268 C 0.65234 0.63728 0.01157 0.0
C269 C 0.66069 0.63297 0.98678 0.0
C270 C 0.68587 0.64186 0.98256 0.0
H271 H 0.70635 0.67093 0.04052 0.0
O272 O 0.76661 0.62074 0.02422 0.0
O273 O 0.75043 0.63866 0.99414 0.0
O274 O 0.77995 0.67573 0.03193 0.0
O275 O 0.74383 0.68969 0.02062 0.0
C276 C 0.64484 0.62077 0.96599 0.0
C277 C 0.65454 0.61713 0.94151 0.0
H278 H 0.68022 0.61248 0.89746 0.0
H279 H 0.7253 0.62964 0.89378 0.0
H280 H 0.66261 0.65454 0.05019 0.0
H281 H 0.63309 0.63059 0.01582 0.0
H282 H 0.6252 0.61391 0.96863 0.0
H283 H 0.64223 0.60746 0.92571 0.0
Mn284 Mn 0.93506 0.03689 0.2808 0.0
Mn285 Mn 0.95887 0.97949 0.26744 0.0
C286 C 0.91047 1.00054 0.25923 0.0
C287 C 0.91341 0.06773 0.30517 0.0
C288 C 0.97258 0.0236 0.23874 0.0
O289 O 0.96459 0.04129 0.30669 0.0
O290 O 0.97955 1.00258 0.29515 0.0
C291 C 0.94776 0.96073 0.3156 0.0
N292 N 0.94514 0.95735 0.28998 0.0
C293 C 0.91935 0.9165 0.28871 0.0
C294 C 0.92189 0.9195 0.31507 0.0
C295 C 0.93612 0.94173 0.32856 0.0
C296 C 0.93146 0.93604 0.27681 0.0
H297 H 0.95859 0.97781 0.32611 0.0
C298 C 0.98016 0.02488 0.30913 0.0
O299 O 0.92992 0.074 0.28907 0.0
O300 O 0.91006 0.04355 0.308 0.0
N301 N 0.94014 0.95525 0.24139 0.0
C302 C 0.93844 0.95594 0.21619 0.0
C303 C 0.9247 0.93518 0.20002 0.0
C304 C 0.9129 0.91397 0.20992 0.0
C305 C 0.91465 0.91383 0.23593 0.0
C306 C 0.92893 0.93487 0.25107 0.0
H307 H 0.94755 0.97216 0.20847 0.0
O308 O 0.90571 0.02357 0.25628 0.0
O309 O 0.92997 0.99965 0.27377 0.0
O310 O 0.95944 0.03927 0.25195 0.0
O311 O 0.97372 1.00048 0.24269 0.0
C312 C 0.90262 0.89376 0.24745 0.0
C313 C 0.9049 0.89513 0.27383 0.0
H314 H 0.91283 0.90496 0.32515 0.0
H315 H 0.93808 0.94425 0.34892 0.0
H316 H 0.92326 0.9355 0.17998 0.0
H317 H 0.9025 0.89789 0.19738 0.0
H318 H 0.89133 0.87731 0.23622 0.0
H319 H 0.89529 0.87975 0.28251 0.0
Mn320 Mn 0.30428 0.14451 0.51142 0.0
Mn321 Mn 0.25095 0.15697 0.4826 0.0
C322 C 0.26634 0.11743 0.51177 0.0
C323 C 0.34259 0.12638 0.51339 0.0
C324 C 0.271 0.18662 0.53316 0.0
O325 O 0.31836 0.16968 0.48814 0.0
O326 O 0.28133 0.17637 0.47066 0.0
C327 C 0.26182 0.13116 0.43127 0.0
N328 N 0.24615 0.13369 0.45116 0.0
C329 C 0.21519 0.10022 0.42938 0.0
C330 C 0.23094 0.09734 0.40863 0.0
C331 C 0.25439 0.11283 0.40962 0.0
C332 C 0.2237 0.11868 0.4505 0.0
H333 H 0.27986 0.143 0.43193 0.0
C334 C 0.30556 0.18039 0.4732 0.0
O335 O 0.33786 0.14672 0.5289 0.0
O336 O 0.32529 0.11681 0.49592 0.0
N337 N 0.21983 0.13942 0.49177 0.0
C338 C 0.2067 0.14494 0.51318 0.0
C339 C 0.18232 0.13201 0.51476 0.0
C340 C 0.17176 0.11348 0.49437 0.0
C341 C 0.18567 0.10801 0.4726 0.0
C342 C 0.20958 0.12202 0.47184 0.0
H343 H 0.2146 0.15939 0.52879 0.0
O344 O 0.28406 0.11834 0.52892 0.0
O345 O 0.27138 0.1323 0.49499 0.0
O346 O 0.2902 0.17423 0.53374 0.0
O347 O 0.25418 0.18161 0.51519 0.0
C348 C 0.17661 0.08945 0.45151 0.0
C349 C 0.19146 0.08541 0.42998 0.0
H350 H 0.22526 0.08325 0.39188 0.0
H351 H 0.26669 0.11068 0.39372 0.0
H352 H 0.17164 0.1364 0.53161 0.0
H353 H 0.15289 0.10361 0.49555 0.0
H354 H 0.15828 0.07812 0.45169 0.0
H355 H 0.18438 0.07096 0.41394 0.0
Mn356 Mn 0.4073 0.52417 0.78099 0.0
Mn357 Mn 0.42693 0.46467 0.76928 0.0
C358 C 0.38066 0.48889 0.75971 0.0
C359 C 0.38654 0.55641 0.80468 0.0
C360 C 0.44655 0.50839 0.74182 0.0
O361 O 0.43664 0.52703 0.80702 0.0
O362 O 0.44643 0.48575 0.79893 0.0
C363 C 0.40968 0.44485 0.81538 0.0
N364 N 0.40915 0.44263 0.78977 0.0
C365 C 0.37982 0.40369 0.78523 0.0
C366 C 0.38015 0.40551 0.81156 0.0
C367 C 0.39513 0.42619 0.82669 0.0
C368 C 0.39482 0.42279 0.77503 0.0
H369 H 0.42102 0.46079 0.8271 0.0
C370 C 0.44923 0.50881 0.81177 0.0
O371 O 0.40346 0.56182 0.78861 0.0
O372 O 0.38271 0.53246 0.80814 0.0
N373 N 0.4087 0.4427 0.74134 0.0
C374 C 0.40936 0.44459 0.71638 0.0
C375 C 0.39534 0.42545 0.69868 0.0
C376 C 0.38073 0.40465 0.70683 0.0
C377 C 0.37992 0.40339 0.73266 0.0
C378 C 0.39466 0.42278 0.74938 0.0
H379 H 0.42056 0.46053 0.71 0.0
O380 O 0.37766 0.51224 0.75633 0.0
O381 O 0.3998 0.48709 0.77431 0.0
O382 O 0.43245 0.5246 0.7527 0.0
O383 O 0.44626 0.48539 0.74661 0.0
C384 C 0.36492 0.3838 0.74248 0.0
C385 C 0.36481 0.384 0.76875 0.0
H386 H 0.36882 0.39126 0.82036 0.0
H387 H 0.39539 0.42779 0.84702 0.0
H388 H 0.39584 0.42668 0.67879 0.0
H389 H 0.37013 0.38981 0.69309 0.0
H390 H 0.35318 0.36866 0.73001 0.0
H391 H 0.35294 0.36902 0.7761 0.0
Mn392 Mn 0.75786 0.39844 0.53396 0.0
Mn393 Mn 0.76108 0.41723 0.47683 0.0
C394 C 0.74816 0.3686 0.49692 0.0
C395 C 0.77542 0.38104 0.56687 0.0
C396 C 0.71904 0.42943 0.51307 0.0
O397 O 0.78148 0.43273 0.54142 0.0
O398 O 0.78293 0.4422 0.50193 0.0
C399 C 0.81497 0.41157 0.46601 0.0
N400 N 0.78986 0.40529 0.45949 0.0
C401 C 0.79951 0.37814 0.42105 0.0
C402 C 0.82546 0.38435 0.42736 0.0
C403 C 0.83321 0.40112 0.44995 0.0
C404 C 0.7822 0.38926 0.43774 0.0
H405 H 0.82106 0.4244 0.48336 0.0
C406 C 0.78994 0.44683 0.52535 0.0
O407 O 0.75636 0.39457 0.57033 0.0
O408 O 0.78509 0.37881 0.54471 0.0
N409 N 0.74115 0.39382 0.45101 0.0
C410 C 0.71544 0.3882 0.44866 0.0
C411 C 0.70458 0.37132 0.4273 0.0
C412 C 0.72025 0.36032 0.40865 0.0
C413 C 0.74667 0.36591 0.41175 0.0
C414 C 0.7564 0.38317 0.43326 0.0
H415 H 0.70333 0.39651 0.46298 0.0
O416 O 0.73851 0.36412 0.51804 0.0
O417 O 0.76186 0.39072 0.49813 0.0
O418 O 0.7268 0.41815 0.53054 0.0
O419 O 0.73055 0.43017 0.49249 0.0
C420 C 0.76373 0.35479 0.39451 0.0
C421 C 0.79013 0.36086 0.39918 0.0
H422 H 0.83959 0.37619 0.41511 0.0
H423 H 0.8532 0.40596 0.45498 0.0
H424 H 0.68417 0.36681 0.42519 0.0
H425 H 0.71178 0.34747 0.3921 0.0
H426 H 0.75674 0.34125 0.37778 0.0
H427 H 0.80306 0.35188 0.38598 0.0
Mn428 Mn 0.67618 0.04068 0.7572 0.0
Mn429 Mn 0.64932 0.09554 0.75394 0.0
C430 C 0.69827 0.07508 0.74154 0.0
C431 C 0.70106 0.01512 0.7771 0.0
C432 C 0.63503 0.04563 0.71767 0.0
O433 O 0.64786 0.03891 0.78253 0.0
O434 O 0.6312 0.07567 0.77801 0.0
C435 C 0.66217 0.12298 0.806 0.0
N436 N 0.66318 0.12234 0.7806 0.0
C437 C 0.68585 0.16523 0.78635 0.0
C438 C 0.68494 0.1664 0.81257 0.0
C439 C 0.6731 0.14516 0.82242 0.0
C440 C 0.67449 0.14268 0.77091 0.0
H441 H 0.65314 0.10672 0.81368 0.0
C442 C 0.63175 0.05522 0.78804 0.0
O443 O 0.68423 1.0049 0.7595 0.0
O444 O 0.70276 0.04012 0.78386 0.0
N445 N 0.66551 0.11669 0.7317 0.0
C446 C 0.66656 0.11163 0.70607 0.0
C447 C 0.67855 0.13058 0.69327 0.0
C448 C 0.68926 0.15453 0.70692 0.0
C449 C 0.68809 0.15922 0.73329 0.0
C450 C 0.67569 0.13971 0.745 0.0
H451 H 0.65841 0.09322 0.69551 0.0
O452 O 0.70387 0.05161 0.73459 0.0
O453 O 0.67941 0.07745 0.75648 0.0
O454 O 0.6497 0.03235 0.72785 0.0
O455 O 0.63382 0.0697 0.72538 0.0
C456 C 0.6992 0.1823 0.74843 0.0
C457 C 0.69809 0.18529 0.77494 0.0
H458 H 0.6935 0.1834 0.8253 0.0
H459 H 0.67243 0.14587 0.84264 0.0
H460 H 0.67959 0.12673 0.67293 0.0
H461 H 0.69852 0.16909 0.697 0.0
H462 H 0.709 0.19768 0.7399 0.0
H463 H 0.70707 0.20294 0.7864 0.0
Mn464 Mn 0.0286 0.26815 0.89718 0.0
Mn465 Mn 0.97014 0.2448 0.91244 0.0
C466 C 1.00306 0.23762 0.86853 0.0
C467 C 0.05611 0.29692 0.87864 0.0
C468 C 0.01846 0.22908 0.93345 0.0
O469 O 0.02064 0.29575 0.92675 0.0
O470 O 0.98073 0.27908 0.93368 0.0
C471 C 0.94009 0.28376 0.89624 0.0
N472 N 0.94505 0.25868 0.89438 0.0
C473 C 0.91018 0.24397 0.86448 0.0
C474 C 0.90434 0.26957 0.86654 0.0
C475 C 0.91952 0.28957 0.8823 0.0
C476 C 0.93083 0.23934 0.87893 0.0
H477 H 0.95166 0.29921 0.90833 0.0
C478 C 0.9996 0.29691 0.93809 0.0
O479 O 0.06431 0.28409 0.89517 0.0
O480 O 0.0318 0.29423 0.87405 0.0
N481 N 0.95782 0.21204 0.89249 0.0
C482 C 0.96584 0.18836 0.89278 0.0
C483 C 0.95312 0.16637 0.87743 0.0
C484 C 0.93223 0.16891 0.86201 0.0
C485 C 0.92421 0.19345 0.86216 0.0
C486 C 0.93759 0.21466 0.87791 0.0
H487 H 0.9819 0.18627 0.90455 0.0
O488 O 0.02754 0.23986 0.86686 0.0
O489 O 0.99457 0.25266 0.88728 0.0
O490 O 0.0337 0.24264 0.92136 0.0
O491 O 0.99438 0.22866 0.93168 0.0
C492 C 0.90349 0.19769 0.84726 0.0
C493 C 0.89641 0.22291 0.84851 0.0
H494 H 0.88849 0.27414 0.85581 0.0
H495 H 0.91534 0.30942 0.88373 0.0
H496 H 0.95942 0.1475 0.87742 0.0
H497 H 0.92253 0.15192 0.85012 0.0
H498 H 0.89287 0.18168 0.83481 0.0
H499 H 0.88044 0.22593 0.83698 0.0
Mn500 Mn 0.5323 0.74269 0.3673 0.0
Mn501 Mn 0.47798 0.7359 0.39845 0.0
C502 C 0.49488 0.72294 0.34619 0.0
C503 C 0.55918 0.76516 0.34219 0.0
C504 C 0.52115 0.70355 0.40346 0.0
O505 O 0.53941 0.77028 0.3989 0.0
O506 O 0.50187 0.76427 0.41791 0.0
C507 C 0.45928 0.78604 0.39424 0.0
N508 N 0.4559 0.75963 0.38968 0.0
C509 C 0.41553 0.75923 0.36847 0.0
C510 C 0.41854 0.78642 0.37305 0.0
C511 C 0.44052 0.79988 0.38599 0.0
C512 C 0.43476 0.74648 0.37736 0.0
H513 H 0.47623 0.79648 0.40401 0.0
C514 C 0.52432 0.77588 0.41684 0.0
O515 O 0.56765 0.74882 0.35502 0.0
O516 O 0.53578 0.76949 0.34524 0.0
N517 N 0.45356 0.70926 0.38084 0.0
C518 C 0.45434 0.68311 0.37656 0.0
C519 C 0.43403 0.66683 0.36335 0.0
C520 C 0.41318 0.6776 0.35466 0.0
C521 C 0.41291 0.70458 0.35909 0.0
C522 C 0.43352 0.71981 0.37268 0.0
H523 H 0.47037 0.67475 0.38311 0.0
O524 O 0.51661 0.71726 0.33749 0.0
O525 O 0.49601 0.73857 0.36757 0.0
O526 O 0.53585 0.71365 0.38821 0.0
O527 O 0.49915 0.71039 0.40833 0.0
C528 C 0.39319 0.71697 0.35023 0.0
C529 C 0.3945 0.74428 0.3549 0.0
H530 H 0.40422 0.79717 0.3665 0.0
H531 H 0.44303 0.82087 0.38947 0.0
H532 H 0.43445 0.64604 0.35983 0.0
H533 H 0.39755 0.66497 0.34449 0.0
H534 H 0.37707 0.7057 0.33953 0.0
H535 H 0.37939 0.7536 0.3477 0.0
Mn536 Mn 0.0307 0.78718 0.66403 0.0
Mn537 Mn 0.99841 0.73262 0.67892 0.0
C538 C 0.03193 0.74723 0.63802 0.0
C539 C 0.03508 0.82462 0.645 0.0
C540 C 0.04852 0.75734 0.70438 0.0
O541 O 1.0055 0.80184 0.69008 0.0
O542 O 0.98489 0.76391 0.69654 0.0
C543 C 0.94796 0.73599 0.6563 0.0
N544 N 0.96824 0.72259 0.65823 0.0
C545 C 0.94569 0.68357 0.63493 0.0
C546 C 0.92457 0.69695 0.63259 0.0
C547 C 0.92583 0.72337 0.64306 0.0
C548 C 0.96759 0.69746 0.64738 0.0
H549 H 0.94854 0.75604 0.66513 0.0
C550 C 0.98805 0.7887 0.70041 0.0
O551 O 0.04925 0.82221 0.66411 0.0
O552 O 0.01736 0.80565 0.63744 0.0
N553 N 1.00899 0.70031 0.66342 0.0
C554 C 0.03058 0.68988 0.66827 0.0
C555 C 0.03282 0.6639 0.65813 0.0
C556 C 0.01241 0.64858 0.64411 0.0
C557 C 0.98994 0.65939 0.64036 0.0
C558 C 0.98918 0.68567 0.65007 0.0
H559 H 0.04603 0.70132 0.67972 0.0
O560 O 0.04956 0.76629 0.63749 0.0
O561 O 0.01369 0.75199 0.65338 0.0
O562 O 0.05189 0.77583 0.69174 0.0
O563 O 0.029 0.74056 0.70139 0.0
C564 C 0.96795 0.64488 0.62824 0.0
C565 C 0.94572 0.65688 0.62584 0.0
H566 H 0.90726 0.6871 0.62291 0.0
H567 H 0.90957 0.73381 0.64144 0.0
H568 H 0.05007 0.65559 0.66148 0.0
H569 H 0.01401 0.62841 0.63675 0.0
H570 H 0.96786 0.62445 0.6208 0.0
H571 H 0.92894 0.64553 0.61645 0.0
Mn572 Mn 0.54837 0.27578 0.15981 0.0
Mn573 Mn 0.52014 0.22003 0.17584 0.0
C574 C 0.54994 0.23638 0.13323 0.0
C575 C 0.54887 0.3132 0.14115 0.0
C576 C 0.57092 0.24626 0.19819 0.0
O577 O 0.52456 0.28913 0.1874 0.0
O578 O 0.50739 0.25066 0.19605 0.0
C579 C 0.46774 0.22327 0.15797 0.0
N580 N 0.48844 0.21006 0.15767 0.0
C581 C 0.4652 0.17162 0.13404 0.0
C582 C 0.44363 0.1848 0.13401 0.0
C583 C 0.44499 0.21084 0.1458 0.0
C584 C 0.48759 0.18533 0.14561 0.0
H585 H 0.46851 0.24303 0.16769 0.0
C586 C 0.50959 0.27547 0.19974 0.0
O587 O 0.56483 0.31156 0.15915 0.0
O588 O 0.53189 0.29335 0.13444 0.0
N589 N 0.53013 0.18831 0.15822 0.0
C590 C 0.55239 0.17809 0.16063 0.0
C591 C 0.55447 0.15248 0.14911 0.0
C592 C 0.53334 0.13727 0.13622 0.0
C593 C 0.51033 0.14784 0.13493 0.0
C594 C 0.50966 0.17378 0.14595 0.0
H595 H 0.56846 0.18943 0.17118 0.0
O596 O 0.56659 0.2561 0.13202 0.0
O597 O 0.53243 0.24015 0.1497 0.0
O598 O 0.57179 0.26548 0.18641 0.0
O599 O 0.55257 0.2281 0.19539 0.0
C600 C 0.48782 0.13342 0.12387 0.0
C601 C 0.46525 0.14528 0.12347 0.0
H602 H 0.4259 0.17509 0.12512 0.0
H603 H 0.42841 0.22112 0.14594 0.0
H604 H 0.5722 0.14435 0.15055 0.0
H605 H 0.53488 0.11737 0.12777 0.0
H606 H 0.48768 0.11322 0.11546 0.0
H607 H 0.44813 0.13406 0.11469 0.0
H608 H 0.28185 0.74934 0.88858 0.0
H609 H 0.20066 0.74081 0.87239 0.0
H610 H 0.19583 0.77519 0.9088 0.0
H611 H 0.27634 0.76266 0.95882 0.0
H612 H 0.30527 0.78459 0.96243 0.0
H613 H 0.30134 0.75743 0.9369 0.0
H614 H 0.31261 0.78907 0.90714 0.0
H615 H 0.31315 0.81795 0.93042 0.0
H616 H 0.2921 0.8129 0.90289 0.0
H617 H 0.19989 0.80915 0.94871 0.0
H618 H 0.21331 0.8439 0.98512 0.0
H619 H 0.29198 0.83334 0.97148 0.0
C620 C 0.26295 0.75427 0.89295 0.0
C621 C 0.24161 0.74228 0.87765 0.0
C622 C 0.21731 0.74984 0.88372 0.0
C623 C 0.21435 0.76919 0.90448 0.0
C624 C 0.23585 0.78073 0.91903 0.0
C625 C 0.25967 0.77347 0.91356 0.0
C626 C 0.27988 0.78951 0.9315 0.0
C627 C 0.29137 0.77254 0.94841 0.0
C628 C 0.30065 0.80325 0.91719 0.0
C629 C 0.26396 0.80824 0.94673 0.0
C630 C 0.23845 0.80201 0.94015 0.0
C631 C 0.21983 0.81462 0.95363 0.0
C632 C 0.22755 0.8343 0.97416 0.0
C633 C 0.2536 0.84194 0.98009 0.0
C634 C 0.27197 0.82855 0.96642 0.0
H635 H 0.04419 0.5015 0.42846 0.0
H636 H 0.03648 0.58326 0.4495 0.0
H637 H 0.06692 0.59336 0.41694 0.0
H638 H 0.11216 0.50917 0.41473 0.0
H639 H 0.10876 0.48285 0.38836 0.0
H640 H 0.08777 0.48236 0.41437 0.0
H641 H 0.04898 0.47716 0.38334 0.0
H642 H 0.06982 0.47779 0.35728 0.0
H643 H 0.04671 0.50059 0.36265 0.0
H644 H 0.09561 0.59407 0.38056 0.0
H645 H 0.12205 0.58612 0.34357 0.0
H646 H 0.11193 0.5035 0.34604 0.0
C647 C 0.04935 0.52153 0.4264 0.0
C648 C 0.03841 0.54175 0.44142 0.0
C649 C 0.04502 0.56768 0.43818 0.0
C650 C 0.0622 0.57352 0.41977 0.0
C651 C 0.07253 0.55312 0.40494 0.0
C652 C 0.06652 0.52766 0.40814 0.0
C653 C 0.07962 0.50934 0.38911 0.0
C654 C 0.09818 0.49509 0.40245 0.0
C655 C 0.06012 0.49009 0.37209 0.0
C656 C 0.09364 0.52843 0.37444 0.0
C657 C 0.08927 0.55356 0.38395 0.0
C658 C 0.09934 0.57451 0.37308 0.0
C659 C 0.11427 0.56972 0.35194 0.0
C660 C 0.11915 0.54414 0.34179 0.0
C661 C 0.10875 0.52327 0.3534 0.0
H662 H 0.79213 0.78103 0.8699 0.0
H663 H 0.8742 0.79129 0.87963 0.0
H664 H 0.87133 0.75906 0.90848 0.0
H665 H 0.77895 0.77669 0.93381 0.0
H666 H 0.75171 0.75279 0.92607 0.0
H667 H 0.76053 0.77536 0.90506 0.0
H668 H 0.76282 0.73707 0.86835 0.0
H669 H 0.75402 0.71437 0.88928 0.0
H670 H 0.78278 0.71225 0.87201 0.0
H671 H 0.8589 0.72623 0.9379 0.0
H672 H 0.83815 0.69675 0.96493 0.0
H673 H 0.76445 0.70962 0.93632 0.0
C674 C 0.80956 0.77665 0.87812 0.0
C675 C 0.83342 0.78885 0.87239 0.0
C676 C 0.8557 0.78206 0.88336 0.0
C677 C 0.85425 0.76384 0.89992 0.0
C678 C 0.83038 0.75247 0.90535 0.0
C679 C 0.80846 0.75864 0.8947 0.0
C680 C 0.78507 0.74432 0.904 0.0
C681 C 0.76807 0.76343 0.91807 0.0
C682 C 0.77031 0.72591 0.8821 0.0
C683 C 0.79717 0.72936 0.92184 0.0
C684 C 0.82332 0.73408 0.92229 0.0
C685 C 0.83842 0.72241 0.93761 0.0
C686 C 0.82646 0.70565 0.95291 0.0
C687 C 0.79962 0.70084 0.95295 0.0
C688 C 0.78499 0.71287 0.93698 0.0
H689 H 0.02436 0.01557 0.44889 0.0
H690 H 0.09935 1.00802 0.41903 0.0
H691 H 0.08483 0.01859 0.37888 0.0
H692 H 0.99089 0.98444 0.39203 0.0
H693 H 0.9655 1.00471 0.39546 0.0
H694 H 0.98236 0.99912 0.423 0.0
H695 H 0.99284 0.04876 0.43707 0.0
H696 H 0.97626 0.05444 0.40933 0.0
H697 H 1.00889 0.06791 0.41591 0.0
H698 H 0.06205 0.02609 0.34073 0.0
H699 H 0.03122 0.02776 0.30623 0.0
H700 H 0.97065 0.03061 0.35936 0.0
C701 C 0.03777 0.01628 0.43398 0.0
C702 C 0.06327 0.01157 0.43762 0.0
C703 C 0.08001 0.01245 0.41732 0.0
C704 C 0.07191 0.01831 0.39424 0.0
C705 C 0.04688 0.02312 0.3914 0.0
C706 C 0.02993 0.02198 0.41057 0.0
C707 C 1.00357 0.02609 0.40172 0.0
C708 C 0.98446 1.00217 0.40314 0.0
C709 C 0.99488 0.05078 0.41692 0.0
C710 C 1.00836 0.02928 0.37454 0.0
C711 C 0.03357 0.02769 0.36912 0.0
C712 C 0.04236 0.02791 0.34483 0.0
C713 C 0.02481 0.02902 0.32539 0.0
C714 C 0.99887 0.03023 0.33039 0.0
C715 C 0.99061 0.03086 0.35535 0.0
H716 H 0.20558 0.28516 0.63615 0.0
H717 H 0.28097 0.30644 0.67132 0.0
H718 H 0.29866 0.27818 0.63668 0.0
H719 H 0.21312 0.21815 0.6162 0.0
H720 H 0.19535 0.21497 0.58679 0.0
H721 H 0.18833 0.23844 0.61338 0.0
H722 H 0.19531 0.2749 0.58635 0.0
H723 H 0.20238 0.25153 0.55966 0.0
H724 H 0.22486 0.27956 0.57068 0.0
H725 H 0.3084 0.24683 0.60021 0.0
H726 H 0.30992 0.2127 0.56348 0.0
H727 H 0.2284 0.20952 0.55095 0.0
C728 C 0.22581 0.28393 0.63651 0.0
C729 C 0.2419 0.29854 0.65636 0.0
C730 C 0.26827 0.29621 0.65608 0.0
C731 C 0.27854 0.28001 0.63653 0.0
C732 C 0.26224 0.26602 0.61736 0.0
C733 C 0.23646 0.26765 0.6171 0.0
C734 C 0.22325 0.24948 0.59459 0.0
C735 C 0.20386 0.22905 0.60327 0.0
C736 C 0.21071 0.26479 0.57676 0.0
C737 C 0.24568 0.23724 0.5825 0.0
C738 C 0.26793 0.24729 0.59604 0.0
C739 C 0.29115 0.23882 0.58938 0.0
C740 C 0.29175 0.21929 0.56848 0.0
C741 C 0.26926 0.20827 0.55431 0.0
C742 C 0.24592 0.21766 0.56127 0.0
H743 H 0.52679 0.50126 0.61567 0.0
H744 H 0.54953 0.58365 0.63911 0.0
H745 H 0.52736 0.58235 0.67885 0.0
H746 H 0.46549 0.50018 0.63918 0.0
H747 H 0.46489 0.46959 0.65023 0.0
H748 H 0.48453 0.47596 0.62443 0.0
H749 H 0.52408 0.46646 0.64862 0.0
H750 H 0.50449 0.45977 0.67442 0.0
H751 H 0.53183 0.4838 0.68009 0.0
H752 H 0.49908 0.57379 0.71333 0.0
H753 H 0.469 0.55751 0.74306 0.0
H754 H 0.46546 0.47991 0.69955 0.0
C755 C 0.5276 0.51884 0.62948 0.0
C756 C 0.53976 0.54262 0.6242 0.0
C757 C 0.54009 0.5653 0.6426 0.0
C758 C 0.52763 0.56475 0.66528 0.0
C759 C 0.51509 0.54128 0.66957 0.0
C760 C 0.51525 0.51861 0.65245 0.0
C761 C 0.49934 0.49628 0.66156 0.0
C762 C 0.47726 0.48484 0.64272 0.0
C763 C 0.51593 0.47534 0.66647 0.0
C764 C 0.48977 0.51017 0.68606 0.0
C765 C 0.49916 0.53612 0.69019 0.0
C766 C 0.49191 0.55342 0.71055 0.0
C767 C 0.47467 0.544 0.72725 0.0
C768 C 0.46493 0.51743 0.72373 0.0
C769 C 0.47282 0.50025 0.70292 0.0
H770 H 0.85278 0.27816 0.62002 0.0
H771 H 0.81086 0.29097 0.68857 0.0
H772 H 0.78753 0.32272 0.67083 0.0
H773 H 0.86053 0.34352 0.60989 0.0
H774 H 0.85679 0.33563 0.57601 0.0
H775 H 0.86906 0.31308 0.59356 0.0
H776 H 0.83363 0.27717 0.57389 0.0
H777 H 0.82145 0.29951 0.55602 0.0
H778 H 0.8009 0.28325 0.57632 0.0
H779 H 0.77 0.35428 0.6457 0.0
H780 H 0.75806 0.3812 0.61474 0.0
H781 H 0.81205 0.34776 0.56283 0.0
C782 C 0.83835 0.28738 0.63105 0.0
C783 C 0.83321 0.28207 0.65544 0.0
C784 C 0.81468 0.29469 0.66967 0.0
C785 C 0.80149 0.31278 0.65979 0.0
C786 C 0.80723 0.31797 0.63571 0.0
C787 C 0.8251 0.30546 0.62147 0.0
C788 C 0.82807 0.31472 0.59632 0.0
C789 C 0.85523 0.3275 0.59381 0.0
C790 C 0.82055 0.29233 0.57434 0.0
C791 C 0.8092 0.33451 0.59861 0.0
C792 C 0.79737 0.33615 0.62146 0.0
C793 C 0.77914 0.35309 0.62775 0.0
C794 C 0.77255 0.3684 0.61007 0.0
C795 C 0.78417 0.36672 0.58638 0.0
C796 C 0.80291 0.34968 0.58082 0.0
H797 H 0.55699 0.02488 0.58536 0.0
H798 H 0.52798 0.94895 0.60109 0.0
H799 H 0.55033 0.95885 0.6426 0.0
H800 H 0.6174 0.02817 0.61272 0.0
H801 H 0.62027 0.06198 0.6267 0.0
H802 H 0.60013 0.05038 0.59898 0.0
H803 H 0.56181 0.06852 0.6221 0.0
H804 H 0.58195 0.08059 0.6498 0.0
H805 H 0.5533 0.05931 0.65199 0.0
H806 H 0.58036 0.97396 0.67928 0.0
H807 H 0.61135 0.99646 0.71262 0.0
H808 H 0.61878 0.06425 0.67582 0.0
C809 C 0.55475 1.01069 0.59788 0.0
C810 C 0.54097 0.986 0.58982 0.0
C811 C 0.53875 0.96783 0.60667 0.0
C812 C 0.55134 0.97327 0.63033 0.0
C813 C 0.56573 0.99723 0.63724 0.0
C814 C 0.56703 0.01596 0.62188 0.0
C815 C 0.5844 0.03991 0.63389 0.0
C816 C 0.60688 0.04542 0.61706 0.0
C817 C 0.56947 0.06348 0.6398 0.0
C818 C 0.59314 0.03132 0.65793 0.0
C819 C 0.58222 1.00654 0.65932 0.0
C820 C 0.58866 0.99358 0.6787 0.0
C821 C 0.60644 1.00641 0.69743 0.0
C822 C 0.61734 0.0321 0.69689 0.0
C823 C 0.6105 0.04472 0.67688 0.0
H824 H 0.91303 0.25363 0.75418 0.0
H825 H 0.89906 0.16982 0.73653 0.0
H826 H 0.93096 0.16628 0.76955 0.0
H827 H 0.98288 0.25718 0.77184 0.0
H828 H 0.98045 0.28448 0.79644 0.0
H829 H 0.96051 0.27981 0.76822 0.0
H830 H 0.92266 0.28276 0.79626 0.0
H831 H 0.94021 0.28361 0.82535 0.0
H832 H 0.91438 0.25837 0.81531 0.0
H833 H 0.96454 0.17235 0.8053 0.0
H834 H 0.99254 0.18748 0.84363 0.0
H835 H 0.97915 0.26667 0.84102 0.0
C836 C 0.91736 0.23455 0.75666 0.0
C837 C 0.90389 0.212 0.74259 0.0
C838 C 0.90934 0.18733 0.74704 0.0
C839 C 0.92749 0.18515 0.76565 0.0
C840 C 0.93998 0.20781 0.77968 0.0
C841 C 0.93519 0.23205 0.77531 0.0
C842 C 0.9491 0.25338 0.7946 0.0
C843 C 0.96944 0.26967 0.78202 0.0
C844 C 0.93052 0.27055 0.8088 0.0
C845 C 0.96122 0.23735 0.8114 0.0
C846 C 0.9568 0.21116 0.80185 0.0
C847 C 0.96781 0.19278 0.81314 0.0
C848 C 0.98355 0.20143 0.83489 0.0
C849 C 0.98698 0.22798 0.84563 0.0
C850 C 0.97595 0.24611 0.83356 0.0
H851 H 0.53821 0.92504 0.47617 0.0
H852 H 0.52424 0.90023 0.5484 0.0
H853 H 0.52818 0.85521 0.52904 0.0
H854 H 0.50101 0.87202 0.43982 0.0
H855 H 0.52149 0.86947 0.41329 0.0
H856 H 0.52069 0.90025 0.43342 0.0
H857 H 0.56937 0.90372 0.44132 0.0
H858 H 0.57025 0.87277 0.42135 0.0
H859 H 0.58293 0.87803 0.45332 0.0
H860 H 0.52846 0.81256 0.50148 0.0
H861 H 0.5244 0.77485 0.46695 0.0
H862 H 0.53882 0.8263 0.41234 0.0
C863 C 0.53619 0.91018 0.48798 0.0
C864 C 0.53124 0.91638 0.51396 0.0
C865 C 0.52867 0.89623 0.52864 0.0
C866 C 0.53079 0.87051 0.51779 0.0
C867 C 0.53554 0.86508 0.49219 0.0
C868 C 0.53822 0.8843 0.47742 0.0
C869 C 0.54136 0.87288 0.44997 0.0
C870 C 0.51986 0.87902 0.43314 0.0
C871 C 0.56754 0.88242 0.44096 0.0
C872 C 0.53929 0.8442 0.45155 0.0
C873 C 0.53617 0.84021 0.47617 0.0
C874 C 0.53147 0.81541 0.48222 0.0
C875 C 0.52927 0.79413 0.46256 0.0
C876 C 0.53203 0.79778 0.43723 0.0
C877 C 0.53765 0.82306 0.4317 0.0
H878 H 0.17085 0.30198 0.78721 0.0
H879 H 0.13241 0.355 0.75074 0.0
H880 H 0.10263 0.35988 0.78583 0.0
H881 H 0.11787 0.26838 0.80577 0.0
H882 H 0.13053 0.2636 0.83575 0.0
H883 H 0.15155 0.26816 0.81057 0.0
H884 H 0.17735 0.30694 0.83939 0.0
H885 H 0.15641 0.3024 0.86479 0.0
H886 H 0.16132 0.33348 0.85459 0.0
H887 H 0.0728 0.35266 0.82038 0.0
H888 H 0.04622 0.33528 0.85249 0.0
H889 H 0.10485 0.28821 0.86781 0.0
C890 C 0.15676 0.31539 0.78725 0.0
C891 C 0.15405 0.32858 0.76675 0.0
C892 C 0.13495 0.34522 0.76668 0.0
C893 C 0.11799 0.34805 0.78649 0.0
C894 C 0.12062 0.33424 0.80626 0.0
C895 C 0.13977 0.31849 0.80697 0.0
C896 C 0.13694 0.30375 0.82893 0.0
C897 C 0.13404 0.27424 0.81969 0.0
C898 C 0.15934 0.31216 0.84806 0.0
C899 C 0.11257 0.31269 0.83976 0.0
C900 C 0.1036 0.33049 0.82658 0.0
C901 C 0.07999 0.3393 0.83128 0.0
C902 C 0.06499 0.3293 0.84952 0.0
C903 C 0.07369 0.31081 0.86296 0.0
C904 C 0.09807 0.30296 0.85841 0.0
H905 H 0.51157 0.61202 0.50777 0.0
H906 H 0.59141 0.604 0.4992 0.0
H907 H 0.59194 0.6279 0.46289 0.0
H908 H 0.49402 0.60701 0.44002 0.0
H909 H 0.47218 0.631 0.4465 0.0
H910 H 0.47776 0.61059 0.46938 0.0
H911 H 0.49001 0.65142 0.50325 0.0
H912 H 0.48463 0.67192 0.48049 0.0
H913 H 0.51491 0.67561 0.49715 0.0
H914 H 0.58395 0.65646 0.42983 0.0
H915 H 0.56868 0.68666 0.40377 0.0
H916 H 0.49404 0.67572 0.43505 0.0
C917 C 0.52896 0.61469 0.49773 0.0
C918 C 0.55134 0.60587 0.50574 0.0
C919 C 0.574 0.61029 0.49286 0.0
C920 C 0.57444 0.62386 0.47232 0.0
C921 C 0.55203 0.6328 0.46506 0.0
C922 C 0.52968 0.62821 0.47736 0.0
C923 C 0.50864 0.64139 0.46736 0.0
C924 C 0.48687 0.6213 0.45508 0.0
C925 C 0.499 0.66126 0.48831 0.0
C926 C 0.52266 0.65461 0.44785 0.0
C927 C 0.54759 0.64931 0.44654 0.0
C928 C 0.56438 0.66047 0.43055 0.0
C929 C 0.55552 0.67763 0.41579 0.0
C930 C 0.53011 0.68366 0.41723 0.0
C931 C 0.51354 0.67158 0.4333 0.0
H932 H 0.87119 0.7882 0.79113 0.0
H933 H 0.88521 0.87198 0.80982 0.0
H934 H 0.92024 0.87178 0.77971 0.0
H935 H 0.93539 0.77619 0.78709 0.0
H936 H 0.92937 0.74954 0.76121 0.0
H937 H 0.90486 0.75692 0.78312 0.0
H938 H 0.87446 0.76103 0.7461 0.0
H939 H 0.8989 0.75363 0.72406 0.0
H940 H 0.88425 0.78303 0.72474 0.0
H941 H 0.95598 0.86115 0.74802 0.0
H942 H 0.98674 0.84144 0.71836 0.0
H943 H 0.94767 0.76519 0.72199 0.0
C944 C 0.8816 0.80656 0.78897 0.0
C945 C 0.87552 0.83009 0.803 0.0
C946 C 0.88941 0.85369 0.79918 0.0
C947 C 0.90941 0.85375 0.78219 0.0
C948 C 0.91518 0.83005 0.76897 0.0
C949 C 0.90144 0.80695 0.77215 0.0
C950 C 0.91131 0.78397 0.75626 0.0
C951 C 0.9208 0.76559 0.77292 0.0
C952 C 0.89102 0.76958 0.73663 0.0
C953 C 0.93302 0.79758 0.74384 0.0
C954 C 0.93512 0.82414 0.75117 0.0
C955 C 0.95434 0.84034 0.74213 0.0
C956 C 0.97177 0.829 0.72529 0.0
C957 C 0.96987 0.80172 0.71774 0.0
C958 C 0.95 0.78611 0.72722 0.0
H959 H 0.03068 0.90488 0.5304 0.0
H960 H 0.08854 0.96144 0.57147 0.0
H961 H 0.08806 0.93568 0.60632 0.0
H962 H 0.99485 0.89199 0.58382 0.0
H963 H 0.98726 0.85782 0.57218 0.0
H964 H 0.99267 0.88023 0.55032 0.0
H965 H 0.02765 0.85417 0.52942 0.0
H966 H 0.02218 0.83153 0.55105 0.0
H967 H 0.05358 0.84778 0.54868 0.0
H968 H 0.08058 0.90394 0.63681 0.0
H969 H 0.06831 0.86808 0.66008 0.0
H970 H 0.0148 0.83195 0.59924 0.0
C971 C 0.04341 0.91163 0.54668 0.0
C972 C 0.05984 0.93493 0.54836 0.0
C973 C 0.07603 0.94347 0.56989 0.0
C974 C 0.07577 0.92902 0.58974 0.0
C975 C 0.05915 0.90616 0.58768 0.0
C976 C 0.04335 0.89743 0.56662 0.0
C977 C 0.02721 0.87231 0.56911 0.0
C978 C 0.99881 0.87581 0.56885 0.0
C979 C 0.03301 0.85014 0.54833 0.0
C980 C 0.03634 0.86821 0.5949 0.0
C981 C 0.05473 0.888 0.60528 0.0
C982 C 0.06621 0.88838 0.62883 0.0
C983 C 0.05904 0.86789 0.64195 0.0
C984 C 0.04049 0.84716 0.6316 0.0
C985 C 0.02885 0.84757 0.60781 0.0
H986 H 0.19025 0.74378 0.74756 0.0
H987 H 0.15841 0.70712 0.80828 0.0
H988 H 0.11567 0.71742 0.79688 0.0
H989 H 0.14791 0.79619 0.75258 0.0
H990 H 0.1458 0.79477 0.71887 0.0
H991 H 0.1741 0.78692 0.73349 0.0
H992 H 0.16975 0.74227 0.70413 0.0
H993 H 0.14144 0.74994 0.68952 0.0
H994 H 0.14062 0.72089 0.70332 0.0
H995 H 0.07614 0.72699 0.77574 0.0
H996 H 0.04258 0.73685 0.74763 0.0
H997 H 0.10004 0.76901 0.70138 0.0
C998 C 0.17429 0.73855 0.75876 0.0
C999 C 0.17737 0.72497 0.77894 0.0
C1000 C 0.15624 0.71781 0.79295 0.0
C1001 C 0.13198 0.72357 0.78658 0.0
C1002 C 0.12935 0.73665 0.76628 0.0
C1003 C 0.14997 0.7443 0.75271 0.0
C1004 C 0.14175 0.75679 0.73087 0.0
C1005 C 0.15306 0.78537 0.73416 0.0
C1006 C 0.14881 0.74155 0.70546 0.0
C1007 C 0.11325 0.75436 0.73385 0.0
C1008 C 0.10652 0.74274 0.75443 0.0
C1009 C 0.0812 0.73655 0.75988 0.0
C1010 C 0.06227 0.74216 0.74377 0.0
C1011 C 0.0687 0.75405 0.72256 0.0
C1012 C 0.09456 0.76055 0.71782 0.0
H1013 H 0.97348 0.63188 0.53105 0.0
H1014 H 0.03559 0.59012 0.54857 0.0
H1015 H 0.05579 0.62958 0.57634 0.0
H1016 H 0.01734 0.69823 0.53597 0.0
H1017 H 0.99109 0.71532 0.54743 0.0
H1018 H 0.98551 0.68596 0.52451 0.0
H1019 H 0.95332 0.67065 0.55357 0.0
H1020 H 0.96073 0.69501 0.58114 0.0
H1021 H 0.96322 0.6612 0.58216 0.0
H1022 H 0.06777 0.67276 0.60418 0.0
H1023 H 0.0684 0.71462 0.63326 0.0
H1024 H 0.99616 0.72636 0.60102 0.0
C1025 C 0.99174 0.63139 0.54014 0.0
C1026 C 1.00311 0.60811 0.53771 0.0
C1027 C 0.0268 0.60791 0.55005 0.0
C1028 C 0.03844 0.63024 0.56574 0.0
C1029 C 0.02644 0.65276 0.56831 0.0
C1030 C 1.00392 0.65372 0.55535 0.0
C1031 C 0.99402 0.67978 0.56294 0.0
C1032 C 0.99719 0.69576 0.54144 0.0
C1033 C 0.9662 0.67661 0.57052 0.0
C1034 C 0.01231 0.69162 0.58485 0.0
C1035 C 0.03195 0.67662 0.58626 0.0
C1036 C 0.05239 0.68454 0.60343 0.0
C1037 C 0.05258 0.70822 0.61989 0.0
C1038 C 0.0318 0.72286 0.62001 0.0
C1039 C 0.01168 0.71477 0.60193 0.0
H1040 H 0.79571 0.90164 0.18783 0.0
H1041 H 0.7868 0.87152 0.25793 0.0
H1042 H 0.82333 0.90208 0.27718 0.0
H1043 H 0.8624 0.9117 0.1892 0.0
H1044 H 0.86639 0.94264 0.17855 0.0
H1045 H 0.83871 0.91988 0.16862 0.0
H1046 H 0.80776 0.95172 0.18584 0.0
H1047 H 0.83433 0.97629 0.19423 0.0
H1048 H 0.81203 0.96899 0.21774 0.0
H1049 H 0.85896 0.93621 0.28932 0.0
H1050 H 0.8933 0.9723 0.29399 0.0
H1051 H 0.88039 0.98132 0.21623 0.0
C1052 C 0.80166 0.90155 0.20718 0.0
C1053 C 0.78874 0.88432 0.22153 0.0
C1054 C 0.79663 0.88468 0.24681 0.0
C1055 C 0.81728 0.9019 0.25783 0.0
C1056 C 0.82959 0.91879 0.24334 0.0
C1057 C 0.82206 0.91899 0.21865 0.0
C1058 C 0.83828 0.93982 0.2077 0.0
C1059 C 0.85232 0.92783 0.18466 0.0
C1060 C 0.82213 0.96043 0.20099 0.0
C1061 C 0.85639 0.9509 0.22997 0.0
C1062 C 0.85075 0.93851 0.25032 0.0
C1063 C 0.86381 0.94584 0.27345 0.0
C1064 C 0.88335 0.96624 0.27587 0.0
C1065 C 0.89 0.97883 0.2552 0.0
C1066 C 0.87603 0.97146 0.23207 0.0
H1067 H 0.7832 0.12623 0.33715 0.0
H1068 H 0.82763 0.20193 0.35032 0.0
H1069 H 0.86693 0.18112 0.3458 0.0
H1070 H 0.82775 0.09251 0.36946 0.0
H1071 H 0.82238 0.0631 0.34662 0.0
H1072 H 0.79742 0.08367 0.35289 0.0
H1073 H 0.79366 0.08672 0.30539 0.0
H1074 H 0.81845 0.06605 0.29898 0.0
H1075 H 0.8215 0.09749 0.28943 0.0
H1076 H 0.90112 0.15305 0.336 0.0
H1077 H 0.92832 0.11882 0.32124 0.0
H1078 H 0.86289 0.0607 0.31549 0.0
C1079 C 0.80121 0.13838 0.33927 0.0
C1080 C 0.80225 0.16575 0.34449 0.0
C1081 C 0.82626 0.18095 0.34696 0.0
C1082 C 0.84875 0.16931 0.34433 0.0
C1083 C 0.84708 0.14239 0.33928 0.0
C1084 C 0.82399 0.12704 0.33679 0.0
C1085 C 0.82768 0.09855 0.33006 0.0
C1086 C 0.81825 0.08358 0.35101 0.0
C1087 C 0.81455 0.0865 0.30444 0.0
C1088 C 0.85638 0.10042 0.3286 0.0
C1089 C 0.86713 0.12594 0.33411 0.0
C1090 C 0.89303 0.13294 0.33209 0.0
C1091 C 0.90832 0.11341 0.32373 0.0
C1092 C 0.89775 0.08718 0.31776 0.0
C1093 C 0.87154 0.08055 0.32072 0.0
H1094 H 0.43831 0.01731 0.97709 0.0
H1095 H 0.46507 0.03705 0.05522 0.0
H1096 H 0.42579 0.0133 0.06825 0.0
H1097 H 0.37112 0.02259 0.98902 0.0
H1098 H 0.36063 0.9958 0.96431 0.0
H1099 H 0.39007 0.01567 0.9617 0.0
H1100 H 0.41379 0.97469 0.9558 0.0
H1101 H 0.38448 0.95473 0.95853 0.0
H1102 H 0.41126 0.95376 0.97926 0.0
H1103 H 0.38493 0.98352 0.0719 0.0
H1104 H 0.3452 0.95327 0.06609 0.0
H1105 H 0.34528 0.95516 0.98565 0.0
C1106 C 0.43578 0.01683 0.99697 0.0
C1107 C 0.45469 0.02894 0.01517 0.0
C1108 C 0.45067 0.02805 0.04102 0.0
C1109 C 0.42849 0.01453 0.04856 0.0
C1110 C 0.41041 1.00235 0.03003 0.0
C1111 C 0.41372 1.00372 1.0048 0.0
C1112 C 0.3918 0.98865 0.98847 0.0
C1113 C 0.37756 1.00676 0.97509 0.0
C1114 C 0.40089 0.96666 0.9694 0.0
C1115 C 0.37584 0.97808 0.00834 0.0
C1116 C 0.3868 0.98608 0.03222 0.0
C1117 C 0.37602 0.97745 0.05331 0.0
C1118 C 0.35349 0.96022 0.04983 0.0
C1119 C 0.34192 0.95197 0.02547 0.0
C1120 C 0.35331 0.96131 1.00461 0.0
H1121 H 0.30311 0.40352 0.32939 0.0
H1122 H 0.24866 0.33948 0.34136 0.0
H1123 H 0.21417 0.3678 0.34266 0.0
H1124 H 0.27131 0.45698 0.36828 0.0
H1125 H 0.2793 0.47867 0.34618 0.0
H1126 H 0.30002 0.45482 0.35092 0.0
H1127 H 0.29717 0.43714 0.30294 0.0
H1128 H 0.27629 0.46066 0.29808 0.0
H1129 H 0.26647 0.42663 0.28756 0.0
H1130 H 0.18516 0.40038 0.33471 0.0
H1131 H 0.164 0.43558 0.32101 0.0
H1132 H 0.23729 0.47946 0.31587 0.0
C1133 C 0.28406 0.3959 0.33343 0.0
C1134 C 0.27843 0.36965 0.33596 0.0
C1135 C 0.25327 0.35979 0.34006 0.0
C1136 C 0.23362 0.37572 0.34072 0.0
C1137 C 0.23958 0.40144 0.33737 0.0
C1138 C 0.26429 0.41161 0.3342 0.0
C1139 C 0.26533 0.43901 0.32853 0.0
C1140 C 0.27985 0.45853 0.34975 0.0
C1141 C 0.27699 0.44095 0.30275 0.0
C1142 C 0.23731 0.44235 0.32803 0.0
C1143 C 0.22278 0.4205 0.33331 0.0
C1144 C 0.19635 0.41786 0.33125 0.0
C1145 C 0.18449 0.43789 0.32337 0.0
C1146 C 0.19901 0.46039 0.31788 0.0
C1147 C 0.22572 0.46281 0.32073 0.0
H1148 H 0.13692 0.03162 0.53285 0.0
H1149 H 0.14399 0.9928 0.45606 0.0
H1150 H 0.18746 0.01421 0.45559 0.0
H1151 H 0.16151 0.08608 0.53216 0.0
H1152 H 0.18473 0.09663 0.55774 0.0
H1153 H 0.15874 0.07227 0.56027 0.0
H1154 H 0.18392 0.03644 0.567 0.0
H1155 H 0.21157 0.06017 0.57038 0.0
H1156 H 0.21133 0.03017 0.54861 0.0
H1157 H 0.22493 0.04585 0.45925 0.0
H1158 H 0.25817 0.0829 0.46902 0.0
H1159 H 0.22996 0.1014 0.54435 0.0
C1160 C 0.14823 0.02655 0.51657 0.0
C1161 C 0.1371 1.01062 0.49443 0.0
C1162 C 0.15219 1.00491 0.47317 0.0
C1163 C 0.17693 0.01698 0.47272 0.0
C1164 C 0.18684 0.03394 0.49408 0.0
C1165 C 0.17359 0.03788 0.51611 0.0
C1166 C 0.1887 0.05835 0.53576 0.0
C1167 C 0.17257 0.07967 0.5471 0.0
C1168 C 0.19952 0.04552 0.55667 0.0
C1169 C 0.2101 0.06807 0.51983 0.0
C1170 C 0.20918 0.05269 0.49628 0.0
C1171 C 0.22624 0.0577 0.47778 0.0
C1172 C 0.24488 0.07894 0.48339 0.0
C1173 C 0.24621 0.09523 0.50715 0.0
C1174 C 0.22904 0.08935 0.52591 0.0
H1175 H 0.80723 0.16481 0.68398 0.0
H1176 H 0.81252 0.214 0.75736 0.0
H1177 H 0.77606 0.18704 0.77119 0.0
H1178 H 0.737 0.15094 0.6804 0.0
H1179 H 0.73668 0.11742 0.66611 0.0
H1180 H 0.76195 0.14121 0.65994 0.0
H1181 H 0.79581 0.11551 0.67514 0.0
H1182 H 0.77134 0.09075 0.68078 0.0
H1183 H 0.79367 0.10604 0.70585 0.0
H1184 H 0.74546 0.15129 0.77967 0.0
H1185 H 0.71523 0.11244 0.78025 0.0
H1186 H 0.72602 0.08677 0.7007 0.0
C1187 C 0.79999 0.17033 0.70259 0.0
C1188 C 0.81229 0.19162 0.71959 0.0
C1189 C 0.80302 0.19793 0.74408 0.0
C1190 C 0.78246 0.18268 0.7521 0.0
C1191 C 0.77132 0.16122 0.73533 0.0
C1192 C 0.77929 0.15523 0.71092 0.0
C1193 C 0.76458 0.1302 0.69734 0.0
C1194 C 0.74911 0.13523 0.6746 0.0
C1195 C 0.78242 0.1094 0.68931 0.0
C1196 C 0.74747 0.12296 0.71811 0.0
C1197 C 0.75208 0.14106 0.73991 0.0
C1198 C 0.74089 0.13752 0.76248 0.0
C1199 C 0.72369 0.11545 0.7626 0.0
C1200 C 0.71721 0.09753 0.7402 0.0
C1201 C 0.72985 0.10085 0.7178 0.0
H1202 H 0.43521 0.01458 0.49526 0.0
H1203 H 0.48522 0.06271 0.55299 0.0
H1204 H 0.45542 0.09631 0.55725 0.0
H1205 H 0.41703 0.06565 0.46516 0.0
H1206 H 0.38462 0.05148 0.45854 0.0
H1207 H 0.40925 0.03094 0.46081 0.0
H1208 H 0.38488 1.0103 0.49528 0.0
H1209 H 0.36004 0.03059 0.49294 0.0
H1210 H 0.37564 0.03092 0.52303 0.0
H1211 H 0.4206 0.12483 0.55422 0.0
H1212 H 0.38281 0.14579 0.54572 0.0
H1213 H 0.35532 0.0791 0.48938 0.0
C1214 C 0.43963 0.03211 0.509 0.0
C1215 C 0.46223 0.03619 0.52403 0.0
C1216 C 0.4678 0.05932 0.54156 0.0
C1217 C 0.45104 0.07845 0.54399 0.0
C1218 C 0.42894 0.07403 0.52866 0.0
C1219 C 0.42314 0.05135 0.5116 0.0
C1220 C 0.39834 0.05149 0.49717 0.0
C1221 C 0.40258 0.04979 0.46873 0.0
C1222 C 0.37856 0.02952 0.50243 0.0
C1223 C 0.39108 0.07786 0.50867 0.0
C1224 C 0.40901 0.09051 0.52678 0.0
C1225 C 0.40645 0.11506 0.54011 0.0
C1226 C 0.38489 0.12684 0.53508 0.0
C1227 C 0.36607 0.11416 0.51682 0.0
C1228 C 0.36941 0.0894 0.50331 0.0
H1229 H 0.61489 0.50975 0.58673 0.0
H1230 H 0.58107 0.51266 0.51326 0.0
H1231 H 0.61284 0.48615 0.49288 0.0
H1232 H 0.67898 0.51369 0.56901 0.0
H1233 H 0.68831 0.49111 0.58828 0.0
H1234 H 0.66247 0.50974 0.59744 0.0
H1235 H 0.63287 0.46743 0.59873 0.0
H1236 H 0.65867 0.44865 0.58968 0.0
H1237 H 0.62927 0.44235 0.57128 0.0
H1238 H 0.64963 0.46189 0.48016 0.0
H1239 H 0.68795 0.43936 0.47583 0.0
H1240 H 0.69692 0.44922 0.55741 0.0
C1241 C 0.61381 0.50445 0.56638 0.0
C1242 C 0.59544 0.51359 0.55165 0.0
C1243 C 0.59515 0.50644 0.52502 0.0
C1244 C 0.61303 0.49118 0.51323 0.0
C1245 C 0.631 0.48285 0.52827 0.0
C1246 C 0.63142 0.48897 0.55426 0.0
C1247 C 0.65306 0.47773 0.56592 0.0
C1248 C 0.67181 0.49936 0.58105 0.0
C1249 C 0.64285 0.45786 0.58237 0.0
C1250 C 0.66493 0.46465 0.54237 0.0
C1251 C 0.65187 0.46796 0.52089 0.0
C1252 C 0.65982 0.45888 0.49684 0.0
C1253 C 0.68169 0.44612 0.49459 0.0
C1254 C 0.69539 0.44222 0.51626 0.0
C1255 C 0.68667 0.45149 0.54049 0.0
H1256 H 0.72011 0.23822 0.39371 0.0
H1257 H 0.79946 0.25216 0.3756 0.0
H1258 H 0.80467 0.29143 0.4078 0.0
H1259 H 0.70926 0.305 0.40273 0.0
H1260 H 0.68906 0.30497 0.42943 0.0
H1261 H 0.68942 0.27598 0.40632 0.0
H1262 H 0.70144 0.24885 0.43891 0.0
H1263 H 0.69942 0.27634 0.46339 0.0
H1264 H 0.72798 0.26059 0.46065 0.0
H1265 H 0.80332 0.32516 0.44451 0.0
H1266 H 0.79346 0.35885 0.47906 0.0
H1267 H 0.71388 0.32811 0.47175 0.0
C1268 C 0.73846 0.24974 0.39637 0.0
C1269 C 0.75955 0.24174 0.38251 0.0
C1270 C 0.78324 0.25743 0.38646 0.0
C1271 C 0.7864 0.27982 0.40466 0.0
C1272 C 0.76561 0.28663 0.41859 0.0
C1273 C 0.74196 0.27251 0.41447 0.0
C1274 C 0.72284 0.28495 0.43198 0.0
C1275 C 0.70136 0.29326 0.41674 0.0
C1276 C 0.7123 0.26658 0.44979 0.0
C1277 C 0.73958 0.30822 0.44643 0.0
C1278 C 0.76428 0.30819 0.43862 0.0
C1279 C 0.78393 0.32598 0.45027 0.0
C1280 C 0.7781 0.34511 0.46979 0.0
C1281 C 0.75276 0.34689 0.47704 0.0
C1282 C 0.73327 0.3277 0.46582 0.0
H1283 H 0.58306 0.01627 0.91877 0.0
H1284 H 0.52221 0.06369 0.91276 0.0
H1285 H 0.53798 0.07304 0.87168 0.0
H1286 H 0.63143 0.05663 0.89095 0.0
H1287 H 0.64588 0.02942 0.87475 0.0
H1288 H 0.63 0.02695 0.90378 0.0
H1289 H 0.60154 0.98622 0.88123 0.0
H1290 H 0.6171 0.98881 0.85205 0.0
H1291 H 0.58311 0.9882 0.8533 0.0
H1292 H 0.55961 0.07648 0.8314 0.0
H1293 H 0.58751 0.07674 0.79532 0.0
H1294 H 0.63495 0.02695 0.82689 0.0
C1295 C 0.57335 0.02888 0.90884 0.0
C1296 C 0.55165 0.03958 0.91875 0.0
C1297 C 0.53905 0.05565 0.90538 0.0
C1298 C 0.54778 0.0609 0.88205 0.0
C1299 C 0.56908 0.04982 0.87249 0.0
C1300 C 0.58188 0.03434 0.88551 0.0
C1301 C 0.60438 0.02503 0.87099 0.0
C1302 C 0.6294 0.03512 0.88601 0.0
C1303 C 0.60133 0.9953 0.86398 0.0
C1304 C 0.60221 0.0377 0.84777 0.0
C1305 C 0.58162 0.05178 0.84906 0.0
C1306 C 0.57581 0.06556 0.83018 0.0
C1307 C 0.5918 0.06554 0.80972 0.0
C1308 C 0.61346 0.05184 0.80818 0.0
C1309 C 0.61841 0.03735 0.82732 0.0
H1310 H 0.31234 0.26957 0.36625 0.0
H1311 H 0.38936 0.29911 0.39283 0.0
H1312 H 0.38629 0.27049 0.42505 0.0
H1313 H 0.28707 0.26493 0.42783 0.0
H1314 H 0.2664 0.23564 0.41633 0.0
H1315 H 0.27488 0.25865 0.39564 0.0
H1316 H 0.29151 0.22233 0.3637 0.0
H1317 H 0.28333 0.19929 0.38442 0.0
H1318 H 0.31536 0.20407 0.37395 0.0
H1319 H 0.37477 0.23722 0.45419 0.0
H1320 H 0.35493 0.2046 0.47859 0.0
H1321 H 0.28553 0.19812 0.43297 0.0
C1322 C 0.32845 0.27041 0.37908 0.0
C1323 C 0.35112 0.28668 0.37687 0.0
C1324 C 0.37187 0.28665 0.39386 0.0
C1325 C 0.37029 0.27049 0.41232 0.0
C1326 C 0.34779 0.25443 0.41371 0.0
C1327 C 0.32719 0.25446 0.39762 0.0
C1328 C 0.30518 0.23542 0.40291 0.0
C1329 C 0.28202 0.24951 0.41117 0.0
C1330 C 0.29846 0.21401 0.37987 0.0
C1331 C 0.31654 0.22472 0.42449 0.0
C1332 C 0.34118 0.23574 0.43045 0.0
C1333 C 0.35543 0.22855 0.44971 0.0
C1334 C 0.34406 0.20992 0.46341 0.0
C1335 C 0.31861 0.19878 0.45789 0.0
C1336 C 0.30495 0.20628 0.43794 0.0
H1337 H 0.53072 0.46532 0.91984 0.0
H1338 H 0.54748 0.54634 0.95345 0.0
H1339 H 0.52373 0.55887 0.9182 0.0
H1340 H 0.53621 0.47476 0.85473 0.0
H1341 H 0.51066 0.44977 0.84349 0.0
H1342 H 0.52955 0.44754 0.871 0.0
H1343 H 0.48882 0.44382 0.89684 0.0
H1344 H 0.46982 0.44606 0.86942 0.0
H1345 H 0.46768 0.46856 0.89826 0.0
H1346 H 0.49556 0.56205 0.87991 0.0
H1347 H 0.46744 0.55552 0.84156 0.0
H1348 H 0.47089 0.47249 0.83322 0.0
C1349 C 0.5294 0.48571 0.91979 0.0
C1350 C 0.54091 0.50485 0.93942 0.0
C1351 C 0.53899 0.53135 0.93849 0.0
C1352 C 0.52546 0.53864 0.9186 0.0
C1353 C 0.51415 0.51922 0.89964 0.0
C1354 C 0.5162 0.49331 0.90002 0.0
C1355 C 0.50229 0.47612 0.87754 0.0
C1356 C 0.52078 0.46117 0.8607 0.0
C1357 C 0.48088 0.45756 0.88603 0.0
C1358 C 0.49178 0.49633 0.8646 0.0
C1359 C 0.4987 0.5211 0.87755 0.0
C1360 C 0.49025 0.54272 0.8695 0.0
C1361 C 0.47425 0.53884 0.84771 0.0
C1362 C 0.46703 0.51354 0.83414 0.0
C1363 C 0.47619 0.49217 0.84281 0.0
H1364 H 0.72063 0.80348 0.14142 0.0
H1365 H 0.78829 0.79563 0.18461 0.0
H1366 H 0.79839 0.76018 0.15163 0.0
H1367 H 0.70474 0.73372 0.1169 0.0
H1368 H 0.69393 0.73923 0.0865 0.0
H1369 H 0.69108 0.76307 0.1142 0.0
H1370 H 0.71622 0.79811 0.09275 0.0
H1371 H 0.71935 0.77435 0.06509 0.0
H1372 H 0.74725 0.79289 0.08112 0.0
H1373 H 0.80269 0.72765 0.11345 0.0
H1374 H 0.8 0.698 0.07289 0.0
H1375 H 0.72923 0.72587 0.05374 0.0
C1376 C 0.73729 0.79394 0.14409 0.0
C1377 C 0.75376 0.80239 0.16553 0.0
C1378 C 0.77559 0.78967 0.16822 0.0
C1379 C 0.78144 0.76946 0.14963 0.0
C1380 C 0.76522 0.76204 0.12847 0.0
C1381 C 0.74347 0.77365 0.12562 0.0
C1382 C 0.72974 0.76226 0.1006 0.0
C1383 C 0.7033 0.74877 0.10481 0.0
C1384 C 0.72805 0.78315 0.08391 0.0
C1385 C 0.74739 0.74274 0.08976 0.0
C1386 C 0.76767 0.74297 0.10625 0.0
C1387 C 0.7868 0.72713 0.10043 0.0
C1388 C 0.7851 0.71037 0.07723 0.0
C1389 C 0.76439 0.70948 0.05996 0.0
C1390 C 0.74532 0.72602 0.06642 0.0
H1391 H 0.05355 1.01001 0.11372 0.0
H1392 H 0.04822 0.09154 0.11258 0.0
H1393 H 0.02262 0.09371 0.1508 0.0
H1394 H 0.99054 0.99426 0.13545 0.0
H1395 H 1.00053 0.97228 0.15504 0.0
H1396 H 0.01753 0.977 0.12711 0.0
H1397 H 0.05937 0.98958 0.15399 0.0
H1398 H 0.0425 0.98499 0.18202 0.0
H1399 H 0.06104 0.01555 0.18063 0.0
H1400 H 0.99874 0.08719 0.19004 0.0
H1401 H 0.9773 0.07242 0.22631 0.0
H1402 H 0.99903 0.99518 0.20222 0.0
C1403 C 0.04712 0.0284 0.12152 0.0
C1404 C 0.05305 0.05067 0.11013 0.0
C1405 C 0.04377 0.07417 0.12076 0.0
C1406 C 0.02935 0.07562 0.14257 0.0
C1407 C 0.02428 0.05339 0.15352 0.0
C1408 C 0.03279 0.03019 0.14327 0.0
C1409 C 0.02497 1.00918 0.15877 0.0
C1410 C 1.00734 0.98687 0.14316 0.0
C1411 C 0.04837 0.99925 0.16948 0.0
C1412 C 0.01084 0.02421 0.17949 0.0
C1413 C 0.01063 0.04966 0.1761 0.0
C1414 C 0.99876 0.06729 0.19283 0.0
C1415 C 0.98663 0.05867 0.21344 0.0
C1416 C 0.98643 0.03259 0.2173 0.0
C1417 C 0.99886 0.01525 0.20001 0.0
H1418 H 0.30561 0.77702 0.16602 0.0
H1419 H 0.36581 0.73976 0.1268 0.0
H1420 H 0.37138 0.77446 0.1006 0.0
H1421 H 0.27687 0.79241 0.11458 0.0
H1422 H 0.26815 0.82342 0.12919 0.0
H1423 H 0.27234 0.79897 0.14811 0.0
H1424 H 0.30561 0.83074 0.17686 0.0
H1425 H 0.30133 0.85549 0.15814 0.0
H1426 H 0.33256 0.84638 0.16302 0.0
H1427 H 0.36498 0.80837 0.07396 0.0
H1428 H 0.34866 0.83996 0.0503 0.0
H1429 H 0.29323 0.85611 0.10752 0.0
C1430 C 0.32068 0.77691 0.15265 0.0
C1431 C 0.33575 0.75626 0.14867 0.0
C1432 C 0.35458 0.75589 0.1304 0.0
C1433 C 0.35779 0.77546 0.11543 0.0
C1434 C 0.34208 0.79527 0.11919 0.0
C1435 C 0.32413 0.79636 0.13764 0.0
C1436 C 0.30793 0.8181 0.13616 0.0
C1437 C 0.27966 0.80758 0.13174 0.0
C1438 C 0.31212 0.83891 0.15996 0.0
C1439 C 0.31871 0.82828 0.11329 0.0
C1440 C 0.33859 0.81506 0.10393 0.0
C1441 C 0.34988 0.81929 0.08148 0.0
C1442 C 0.34043 0.8372 0.06811 0.0
C1443 C 0.31992 0.85074 0.07724 0.0
C1444 C 0.30934 0.84654 0.10039 0.0
H1445 H 0.04799 0.5263 0.12268 0.0
H1446 H 0.02348 0.44408 0.11833 0.0
H1447 H 0.04865 0.44396 0.15722 0.0
H1448 H 0.11124 0.52608 0.14715 0.0
H1449 H 0.11149 0.55677 0.16783 0.0
H1450 H 0.09232 0.55015 0.13906 0.0
H1451 H 0.05245 0.55999 0.16456 0.0
H1452 H 0.07149 0.5666 0.19342 0.0
H1453 H 0.04409 0.54261 0.19004 0.0
H1454 H 0.07691 0.45284 0.19685 0.0
H1455 H 0.10558 0.47021 0.23391 0.0
H1456 H 0.10884 0.54707 0.21369 0.0
C1457 C 0.0477 0.50826 0.12992 0.0
C1458 C 0.03377 0.48516 0.11715 0.0
C1459 C 0.03435 0.46196 0.12729 0.0
C1460 C 0.04843 0.46172 0.14957 0.0
C1461 C 0.06171 0.48487 0.16171 0.0
C1462 C 0.0614 0.50772 0.15227 0.0
C1463 C 0.07695 0.53006 0.16912 0.0
C1464 C 0.09932 0.54142 0.15494 0.0
C1465 C 0.06024 0.55105 0.17992 0.0
C1466 C 0.08607 0.5162 0.18951 0.0
C1467 C 0.07723 0.49012 0.18486 0.0
C1468 C 0.08384 0.47328 0.20074 0.0
C1469 C 0.10012 0.48333 0.22177 0.0
C1470 C 0.10945 0.51004 0.22688 0.0
C1471 C 0.10198 0.5266 0.21056 0.0
H1472 H 0.39308 0.66337 0.23449 0.0
H1473 H 0.36842 0.74019 0.24154 0.0
H1474 H 0.40148 0.75648 0.27481 0.0
H1475 H 0.40289 0.66483 0.29925 0.0
H1476 H 0.43089 0.64813 0.2975 0.0
H1477 H 0.40771 0.6416 0.27172 0.0
H1478 H 0.44067 0.65345 0.23979 0.0
H1479 H 0.46493 0.65852 0.2645 0.0
H1480 H 0.46075 0.68388 0.24649 0.0
H1481 H 0.43617 0.76433 0.30774 0.0
H1482 H 0.47087 0.76351 0.33843 0.0
H1483 H 0.47189 0.68118 0.31235 0.0
C1484 C 0.39467 0.68367 0.24292 0.0
C1485 C 0.37814 0.70052 0.23521 0.0
C1486 C 0.38109 0.72698 0.24667 0.0
C1487 C 0.39969 0.73638 0.26577 0.0
C1488 C 0.41521 0.71911 0.27323 0.0
C1489 C 0.41305 0.69336 0.26211 0.0
C1490 C 0.43161 0.67874 0.2743 0.0
C1491 C 0.41745 0.65703 0.28643 0.0
C1492 C 0.45062 0.66802 0.25512 0.0
C1493 C 0.4445 0.70031 0.29411 0.0
C1494 C 0.43474 0.72344 0.29301 0.0
C1495 C 0.44379 0.74631 0.30892 0.0
C1496 C 0.46334 0.74559 0.32644 0.0
C1497 C 0.47334 0.7221 0.32831 0.0
C1498 C 0.46409 0.69922 0.31166 0.0
H1499 H 0.03407 0.43515 0.02786 0.0
H1500 H 0.95305 0.43666 0.03656 0.0
H1501 H 0.94495 0.3944 0.00825 0.0
H1502 H 0.02962 0.40536 0.96089 0.0
H1503 H 0.05541 0.38631 0.96375 0.0
H1504 H 0.05488 0.41704 0.98416 0.0
H1505 H 0.05843 0.39447 0.0232 0.0
H1506 H 0.05871 0.36363 1.00293 0.0
H1507 H 0.03536 0.36761 0.02684 0.0
H1508 H 0.94566 0.35099 0.98232 0.0
H1509 H 0.95426 0.31072 0.9556 0.0
H1510 H 0.03502 0.33746 0.9608 0.0
C1511 C 0.01464 0.42663 0.02356 0.0
C1512 C 0.99413 0.43913 0.03433 0.0
C1513 C 0.96897 0.42752 0.02828 0.0
C1514 C 0.96422 0.40347 0.01237 0.0
C1515 C 0.98483 0.39145 1.0024 0.0
C1516 C 0.00953 0.40276 1.00734 0.0
C1517 C 0.02812 0.38568 0.99386 0.0
C1518 C 0.04287 0.39942 0.97451 0.0
C1519 C 0.04622 0.37736 0.01285 0.0
C1520 C 0.00999 0.36281 0.98092 0.0
C1521 C 0.98516 0.36658 0.98638 0.0
C1522 C 0.96498 0.34795 0.97761 0.0
C1523 C 0.97017 0.32501 0.96246 0.0
C1524 C 0.99537 0.32082 0.95579 0.0
C1525 C 0.01556 0.34006 0.96533 0.0
H1526 H 0.68274 0.80881 0.26833 0.0
H1527 H 0.63148 0.83263 0.21536 0.0
H1528 H 0.59473 0.81571 0.23801 0.0
H1529 H 0.64173 0.74854 0.27735 0.0
H1530 H 0.65067 0.7527 0.31038 0.0
H1531 H 0.67276 0.76418 0.28845 0.0
H1532 H 0.67707 0.81001 0.3156 0.0
H1533 H 0.65466 0.79882 0.33735 0.0
H1534 H 0.64905 0.82605 0.32245 0.0
H1535 H 0.56429 0.80165 0.269 0.0
H1536 H 0.54084 0.78592 0.30363 0.0
H1537 H 0.61119 0.76894 0.33629 0.0
C1538 C 0.66371 0.8096 0.26113 0.0
C1539 C 0.65966 0.8215 0.23994 0.0
C1540 C 0.63473 0.82307 0.23131 0.0
C1541 C 0.61382 0.81367 0.24413 0.0
C1542 C 0.61831 0.80266 0.26543 0.0
C1543 C 0.64258 0.80007 0.27364 0.0
C1544 C 0.642 0.7883 0.29764 0.0
C1545 C 0.6524 0.76186 0.29318 0.0
C1546 C 0.65656 0.80691 0.31955 0.0
C1547 C 0.61369 0.78531 0.30194 0.0
C1548 C 0.60049 0.79386 0.28315 0.0
C1549 C 0.57435 0.7945 0.2836 0.0
C1550 C 0.56124 0.78572 0.30351 0.0
C1551 C 0.57416 0.77614 0.32265 0.0
C1552 C 0.60079 0.77599 0.32183 0.0
H1553 H 0.02246 0.10641 1.00355 0.0
H1554 H 0.10056 0.13533 0.02568 0.0
H1555 H 0.09615 0.17489 1.00735 0.0
H1556 H 0.02235 0.12659 0.9451 0.0
H1557 H 0.99064 0.1359 0.94602 0.0
H1558 H 0.99878 0.11136 0.96343 0.0
H1559 H 0.98422 0.13759 1.00471 0.0
H1560 H 0.97569 0.16209 0.98736 0.0
H1561 H 0.99736 0.17093 0.01434 0.0
H1562 H 0.08487 0.20838 0.982 0.0
H1563 H 0.06652 0.23547 0.95464 0.0
H1564 H 0.99496 0.18588 0.95018 0.0
C1565 C 0.03829 0.12154 1.00523 0.0
C1566 C 0.06171 0.11828 0.0164 0.0
C1567 C 0.08235 0.13789 0.01761 0.0
C1568 C 0.08004 0.16031 1.00714 0.0
C1569 C 0.05687 0.16281 0.99567 0.0
C1570 C 0.03621 0.14416 0.99499 0.0
C1571 C 0.01387 0.15101 0.98044 0.0
C1572 C 1.00596 0.12996 0.95738 0.0
C1573 C 0.99146 0.15569 0.99775 0.0
C1574 C 0.0254 0.17602 0.97249 0.0
C1575 C 0.05022 0.18246 0.98146 0.0
C1576 C 0.06531 0.20377 0.97523 0.0
C1577 C 0.05475 0.21897 0.95954 0.0
C1578 C 0.02924 0.21297 0.95033 0.0
C1579 C 0.0144 0.19125 0.95714 0.0
H1580 H 0.40484 0.276 0.30426 0.0
H1581 H 0.40363 0.35818 0.30385 0.0
H1582 H 0.43903 0.35759 0.27439 0.0
H1583 H 0.47411 0.27546 0.29983 0.0
H1584 H 0.47075 0.24438 0.27943 0.0
H1585 H 0.44712 0.2521 0.30232 0.0
H1586 H 0.41219 0.24197 0.26668 0.0
H1587 H 0.4357 0.23444 0.24369 0.0
H1588 H 0.41515 0.25874 0.24001 0.0
H1589 H 0.47295 0.34701 0.24234 0.0
H1590 H 0.50194 0.32729 0.21094 0.0
H1591 H 0.48009 0.25226 0.23278 0.0
C1592 C 0.41248 0.29402 0.29852 0.0
C1593 C 0.40161 0.31718 0.3065 0.0
C1594 C 0.41168 0.3402 0.29795 0.0
C1595 C 0.43183 0.34007 0.28128 0.0
C1596 C 0.44175 0.31676 0.27333 0.0
C1597 C 0.43246 0.29419 0.28179 0.0
C1598 C 0.44529 0.27136 0.26929 0.0
C1599 C 0.46021 0.26017 0.28889 0.0
C1600 C 0.42593 0.25041 0.25401 0.0
C1601 C 0.46293 0.28448 0.25218 0.0
C1602 C 0.46086 0.3107 0.25484 0.0
C1603 C 0.47486 0.32651 0.24027 0.0
C1604 C 0.49128 0.31516 0.22247 0.0
C1605 C 0.49339 0.28821 0.21927 0.0
C1606 C 0.47907 0.27292 0.23461 0.0
H1607 H 0.52623 0.39244 0.02919 0.0
H1608 H 0.58352 0.45259 0.06573 0.0
H1609 H 0.58843 0.42741 0.10048 0.0
H1610 H 0.49668 0.37744 0.08571 0.0
H1611 H 0.49076 0.3431 0.0741 0.0
H1612 H 0.49199 0.36578 0.05232 0.0
H1613 H 0.52691 0.34251 0.02782 0.0
H1614 H 0.52567 0.31966 0.04942 0.0
H1615 H 0.5554 0.33804 0.04451 0.0
H1616 H 0.58692 0.39519 0.13095 0.0
H1617 H 0.58027 0.35845 0.15427 0.0
H1618 H 0.5234 0.31939 0.0978 0.0
C1619 C 0.53987 0.40018 0.04452 0.0
C1620 C 0.55464 0.42426 0.04496 0.0
C1621 C 0.57219 0.43405 0.06519 0.0
C1622 C 0.575 0.41992 0.08495 0.0
C1623 C 0.56002 0.39616 0.08408 0.0
C1624 C 0.54284 0.38636 0.06433 0.0
C1625 C 0.52912 0.36035 0.06774 0.0
C1626 C 0.50044 0.36177 0.07011 0.0
C1627 C 0.53462 0.33887 0.04609 0.0
C1628 C 0.5413 0.3569 0.09247 0.0
C1629 C 0.55903 0.3778 0.10161 0.0
C1630 C 0.57304 0.3788 0.12396 0.0
C1631 C 0.56909 0.35781 0.13711 0.0
C1632 C 0.55123 0.33603 0.12796 0.0
C1633 C 0.53702 0.33581 0.10543 0.0
H1634 H 0.65443 0.17471 0.28369 0.0
H1635 H 0.70985 0.24278 0.29429 0.0
H1636 H 0.6815 0.26521 0.27015 0.0
H1637 H 0.63636 0.17712 0.22101 0.0
H1638 H 0.60327 0.16632 0.22407 0.0
H1639 H 0.6269 0.1567 0.24387 0.0
H1640 H 0.60402 0.17578 0.28377 0.0
H1641 H 0.58019 0.18528 0.26405 0.0
H1642 H 0.59752 0.2091 0.28799 0.0
H1643 H 0.64801 0.27867 0.24206 0.0
H1644 H 0.612 0.28266 0.21373 0.0
H1645 H 0.57872 0.20544 0.2221 0.0
C1646 C 0.66027 0.19454 0.2813 0.0
C1647 C 0.68399 0.20731 0.29093 0.0
C1648 C 0.69149 0.23296 0.28718 0.0
C1649 C 0.67556 0.24575 0.27349 0.0
C1650 C 0.65228 0.2325 0.26382 0.0
C1651 C 0.64461 0.20751 0.26774 0.0
C1652 C 0.61926 0.1971 0.25455 0.0
C1653 C 0.62161 0.17288 0.2347 0.0
C1654 C 0.59905 0.19149 0.27374 0.0
C1655 C 0.61399 0.21994 0.24225 0.0
C1656 C 0.63317 0.24022 0.24783 0.0
C1657 C 0.63278 0.26298 0.23777 0.0
C1658 C 0.61226 0.26504 0.22163 0.0
C1659 C 0.59238 0.24443 0.21568 0.0
C1660 C 0.5934 0.22169 0.22634 0.0
H1661 H 0.49294 0.12282 0.02321 0.0
H1662 H 0.56099 0.08624 0.03247 0.0
H1663 H 0.57923 0.12499 0.06233 0.0
H1664 H 0.52943 0.19262 0.03163 0.0
H1665 H 0.50237 0.2057 0.04655 0.0
H1666 H 0.49784 0.1778 0.02178 0.0
H1667 H 0.47038 0.15637 0.05143 0.0
H1668 H 0.47769 0.17952 0.0799 0.0
H1669 H 0.48429 0.14625 0.07804 0.0
H1670 H 0.58892 0.16646 0.09313 0.0
H1671 H 0.5883 0.20643 0.12463 0.0
H1672 H 0.51225 0.21398 0.09862 0.0
C1673 C 0.512 0.12338 0.03096 0.0
C1674 C 0.52565 0.10164 0.02549 0.0
C1675 C 0.5504 0.10285 0.03616 0.0
C1676 C 0.5609 0.12478 0.05311 0.0
C1677 C 0.54665 0.14558 0.05874 0.0
C1678 C 0.52299 0.14538 0.04751 0.0
C1679 C 0.51093 0.16954 0.05817 0.0
C1680 C 0.51011 0.18748 0.03836 0.0
C1681 C 0.48426 0.16262 0.06756 0.0
C1682 C 0.53002 0.18154 0.07936 0.0
C1683 C 0.5512 0.16831 0.07822 0.0
C1684 C 0.57236 0.17684 0.09436 0.0
C1685 C 0.57184 0.19944 0.1122 0.0
C1686 C 0.54986 0.21243 0.11463 0.0
C1687 C 0.52882 0.2036 0.09777 0.0
H1688 H 0.26403 0.39226 0.6903 0.0
H1689 H 0.25226 0.36495 0.7616 0.0
H1690 H 0.28616 0.39823 0.78176 0.0
H1691 H 0.32768 0.40054 0.69445 0.0
H1692 H 0.33447 0.43032 0.68199 0.0
H1693 H 0.30584 0.40903 0.67218 0.0
H1694 H 0.27638 0.44333 0.68652 0.0
H1695 H 0.30403 0.46672 0.69416 0.0
H1696 H 0.2807 0.4625 0.71763 0.0
H1697 H 0.32327 0.43168 0.79335 0.0
H1698 H 0.36064 0.46445 0.79625 0.0
H1699 H 0.35002 0.46949 0.71717 0.0
C1700 C 0.26822 0.39366 0.71029 0.0
C1701 C 0.25537 0.37607 0.72442 0.0
C1702 C 0.26149 0.37846 0.7505 0.0
C1703 C 0.28084 0.39721 0.76207 0.0
C1704 C 0.29369 0.41362 0.74739 0.0
C1705 C 0.2874 0.41236 0.72217 0.0
C1706 C 0.30518 0.43131 0.71035 0.0
C1707 C 0.31917 0.41699 0.68845 0.0
C1708 C 0.29071 0.45221 0.70165 0.0
C1709 C 0.32305 0.44277 0.73267 0.0
C1710 C 0.31577 0.43247 0.75389 0.0
C1711 C 0.32912 0.43988 0.77688 0.0
C1712 C 0.35045 0.4583 0.77827 0.0
C1713 C 0.35857 0.46884 0.75675 0.0
C1714 C 0.34443 0.46133 0.73375 0.0
H1715 H 0.30564 0.67484 0.80301 0.0
H1716 H 0.26797 0.65387 0.86896 0.0
H1717 H 0.29656 0.62001 0.87053 0.0
H1718 H 0.31462 0.61134 0.77368 0.0
H1719 H 0.34547 0.62045 0.76212 0.0
H1720 H 0.3228 0.64367 0.76704 0.0
H1721 H 0.35549 0.67556 0.79643 0.0
H1722 H 0.37825 0.65236 0.79167 0.0
H1723 H 0.36958 0.66509 0.82319 0.0
H1724 H 0.32693 0.58589 0.86252 0.0
H1725 H 0.35783 0.55558 0.8466 0.0
H1726 H 0.37722 0.60059 0.78747 0.0
C1727 C 0.30351 0.66317 0.81783 0.0
C1728 C 0.28459 0.66692 0.83586 0.0
C1729 C 0.28247 0.65142 0.85509 0.0
C1730 C 0.29859 0.63213 0.85609 0.0
C1731 C 0.31697 0.62883 0.83795 0.0
C1732 C 0.31967 0.64409 0.81932 0.0
C1733 C 0.34067 0.63638 0.80185 0.0
C1734 C 0.33026 0.62742 0.77456 0.0
C1735 C 0.36228 0.65868 0.80339 0.0
C1736 C 0.349 0.61401 0.81319 0.0
C1737 C 0.3351 0.60991 0.83399 0.0
C1738 C 0.33823 0.5892 0.84652 0.0
C1739 C 0.35581 0.57209 0.83737 0.0
C1740 C 0.37021 0.57597 0.81608 0.0
C1741 C 0.36695 0.59747 0.80416 0.0
H1742 H 0.91 0.53476 0.4905 0.0
H1743 H 0.93818 0.54388 0.56786 0.0
H1744 H 0.89714 0.52218 0.57963 0.0
H1745 H 0.84343 0.54464 0.50513 0.0
H1746 H 0.83126 0.52088 0.47838 0.0
H1747 H 0.86175 0.53944 0.47714 0.0
H1748 H 0.88256 0.4968 0.46613 0.0
H1749 H 0.85221 0.47818 0.46734 0.0
H1750 H 0.87853 0.47296 0.48673 0.0
H1751 H 0.85453 0.49359 0.58097 0.0
H1752 H 0.81473 0.46358 0.5721 0.0
H1753 H 0.81465 0.47675 0.49445 0.0
C1754 C 0.90732 0.53262 0.51002 0.0
C1755 C 0.92712 0.54095 0.52831 0.0
C1756 C 0.92306 0.5378 0.55365 0.0
C1757 C 0.89986 0.52546 0.56045 0.0
C1758 C 0.88083 0.51688 0.54176 0.0
C1759 C 0.88428 0.52075 0.51713 0.0
C1760 C 0.86163 0.50877 0.5002 0.0
C1761 C 0.84876 0.52968 0.48959 0.0
C1762 C 0.86919 0.48795 0.47886 0.0
C1763 C 0.84512 0.49683 0.51888 0.0
C1764 C 0.85632 0.5016 0.5428 0.0
C1765 C 0.84536 0.49023 0.56241 0.0
C1766 C 0.82271 0.47323 0.55722 0.0
C1767 C 0.81125 0.46784 0.53264 0.0
C1768 C 0.82246 0.48054 0.5136 0.0
H1769 H 0.75671 0.88459 0.79888 0.0
H1770 H 0.81662 0.93276 0.84578 0.0
H1771 H 0.79936 0.97219 0.83633 0.0
H1772 H 0.7533 0.92713 0.75067 0.0
H1773 H 0.71929 0.92024 0.74685 0.0
H1774 H 0.7378 0.89618 0.75561 0.0
H1775 H 0.71051 0.89366 0.79486 0.0
H1776 H 0.69219 0.91799 0.78647 0.0
H1777 H 0.70789 0.92279 0.81713 0.0
H1778 H 0.77322 1.00617 0.82466 0.0
H1779 H 0.74246 0.0323 0.80893 0.0
H1780 H 0.69968 0.96192 0.76907 0.0
C1781 C 0.76655 0.90349 0.80651 0.0
C1782 C 0.78823 0.90586 0.82262 0.0
C1783 C 0.80027 0.93073 0.83297 0.0
C1784 C 0.79049 0.95316 0.82783 0.0
C1785 C 0.76868 0.95027 0.81229 0.0
C1786 C 0.75704 0.92605 0.80149 0.0
C1787 C 0.73334 0.92827 0.7862 0.0
C1788 C 0.73611 0.91731 0.75817 0.0
C1789 C 0.70959 0.91489 0.79681 0.0
C1790 C 0.73322 0.95748 0.79036 0.0
C1791 C 0.75374 0.96981 0.8055 0.0
C1792 C 0.75724 0.99671 0.81259 0.0
C1793 C 0.73957 0.0114 0.80366 0.0
C1794 C 0.71865 0.99922 0.78773 0.0
C1795 C 0.71549 0.97186 0.78115 0.0
H1796 H 0.63259 0.51314 0.96414 0.0
H1797 H 0.60315 0.52829 0.03922 0.0
H1798 H 0.64113 0.55959 0.05308 0.0
H1799 H 0.70262 0.522 0.98704 0.0
H1800 H 0.71184 0.53552 0.95938 0.0
H1801 H 0.68505 0.51093 0.95759 0.0
H1802 H 0.65997 0.54115 0.93853 0.0
H1803 H 0.68323 0.56927 0.94389 0.0
H1804 H 0.65223 0.57033 0.95739 0.0
H1805 H 0.68144 0.59087 0.05794 0.0
H1806 H 0.72018 0.62044 0.05328 0.0
H1807 H 0.72085 0.58792 0.97391 0.0
C1808 C 0.63454 0.52252 0.98369 0.0
C1809 C 0.61503 0.5183 1.00068 0.0
C1810 C 0.61805 0.53104 0.02604 0.0
C1811 C 0.63952 0.54887 0.03402 0.0
C1812 C 0.65797 0.55333 0.01652 0.0
C1813 C 0.65599 0.54004 0.99203 0.0
C1814 C 0.67768 0.54943 0.97653 0.0
C1815 C 0.69534 0.52821 0.96974 0.0
C1816 C 0.66778 0.55816 0.95267 0.0
C1817 C 0.6908 0.5718 0.9954 0.0
C1818 C 0.67988 0.57285 0.01871 0.0
C1819 C 0.68996 0.5904 0.03974 0.0
C1820 C 0.71184 0.60716 0.03692 0.0
C1821 C 0.72271 0.60711 0.01307 0.0
C1822 C 0.71214 0.58908 0.99209 0.0
H1823 H 0.31069 0.63747 0.24704 0.0
H1824 H 0.29413 0.62126 0.16622 0.0
H1825 H 0.26242 0.58506 0.17207 0.0
H1826 H 0.2989 0.56405 0.25393 0.0
H1827 H 0.28738 0.57339 0.2851 0.0
H1828 H 0.31254 0.59372 0.27339 0.0
H1829 H 0.28639 0.63021 0.28552 0.0
H1830 H 0.25724 0.61199 0.29214 0.0
H1831 H 0.25822 0.63179 0.26758 0.0
H1832 H 0.23054 0.55248 0.18688 0.0
H1833 H 0.19892 0.52795 0.21004 0.0
H1834 H 0.2341 0.56782 0.28111 0.0
C1835 C 0.30129 0.62569 0.23037 0.0
C1836 C 0.30484 0.63256 0.20617 0.0
C1837 C 0.29144 0.61688 0.18504 0.0
C1838 C 0.27362 0.59598 0.1881 0.0
C1839 C 0.2699 0.59043 0.21231 0.0
C1840 C 0.28386 0.60437 0.23302 0.0
C1841 C 0.27477 0.59569 0.25723 0.0
C1842 C 0.29457 0.58083 0.26804 0.0
C1843 C 0.26868 0.61871 0.27683 0.0
C1844 C 0.25141 0.57735 0.24718 0.0
C1845 C 0.25003 0.57325 0.22109 0.0
C1846 C 0.23131 0.55563 0.2073 0.0
C1847 C 0.21342 0.5419 0.22053 0.0
C1848 C 0.21361 0.54696 0.24716 0.0
C1849 C 0.23305 0.56457 0.26067 0.0
H1850 H 0.94579 0.58005 0.05595 0.0
H1851 H 0.92476 0.50188 0.01633 0.0
H1852 H 0.88922 0.5171 0.9941 0.0
H1853 H 0.8843 0.59526 0.06737 0.0
H1854 H 0.89084 0.62872 0.06354 0.0
H1855 H 0.91588 0.61197 0.07364 0.0
H1856 H 0.94276 0.62336 0.03627 0.0
H1857 H 0.91772 0.64015 0.02601 0.0
H1858 H 0.92957 0.61451 1.00451 0.0
H1859 H 0.8537 0.54121 0.97892 0.0
H1860 H 0.82137 0.57079 0.97381 0.0
H1861 H 0.86655 0.63262 0.02405 0.0
C1862 C 0.93397 0.56629 0.04217 0.0
C1863 C 0.93796 0.53996 0.03747 0.0
C1864 C 0.92198 0.52224 0.01984 0.0
C1865 C 0.90185 0.53074 1.00717 0.0
C1866 C 0.89815 0.55698 0.01242 0.0
C1867 C 0.9139 0.57444 0.02952 0.0
C1868 C 0.90509 0.60113 0.03339 0.0
C1869 C 0.89864 0.60976 0.06112 0.0
C1870 C 0.92497 0.62095 0.02451 0.0
C1871 C 0.88154 0.59599 0.01629 0.0
C1872 C 0.87791 0.57055 1.00405 0.0
C1873 C 0.85658 0.56122 0.98823 0.0
C1874 C 0.83835 0.57818 0.98535 0.0
C1875 C 0.84145 0.60405 0.99843 0.0
C1876 C 0.86365 0.61303 0.01363 0.0
H1877 H 0.12689 1.00456 0.02493 0.0
H1878 H 0.13798 0.0283 0.10611 0.0
H1879 H 0.17428 1.0029 0.10541 0.0
H1880 H 0.14464 0.94068 0.02031 0.0
H1881 H 0.16138 0.94179 0.99151 0.0
H1882 H 0.13533 0.96077 0.99843 0.0
H1883 H 0.16443 1.00249 0.99364 0.0
H1884 H 0.19052 0.98362 0.98654 0.0
H1885 H 0.19375 0.0108 0.01206 0.0
H1886 H 0.20896 0.97359 0.096 0.0
H1887 H 0.24125 0.94595 0.078 0.0
H1888 H 0.21033 0.94583 1.00274 0.0
C1889 C 0.13702 1.00485 0.04261 0.0
C1890 C 0.12906 0.01838 0.06563 0.0
C1891 C 0.14297 0.01762 0.08825 0.0
C1892 C 0.16387 1.00339 0.08806 0.0
C1893 C 0.17105 0.99032 0.06507 0.0
C1894 C 0.15825 0.99123 0.04272 0.0
C1895 C 0.17041 0.97632 0.02041 0.0
C1896 C 0.15183 0.95354 1.00687 0.0
C1897 C 0.18037 0.99439 1.00209 0.0
C1898 C 0.19199 0.9668 0.03372 0.0
C1899 C 0.19185 0.97476 0.05951 0.0
C1900 C 0.20939 0.96745 0.0758 0.0
C1901 C 0.2276 0.95169 0.06541 0.0
C1902 C 0.22842 0.94377 0.03896 0.0
C1903 C 0.21037 0.95162 0.02301 0.0
loop_
_geom_bond_atom_site_label_1
_geom_bond_atom_site_label_2
_geom_bond_distance
_geom_bond_site_symmetry_2
_ccdc_geom_bond_type
H0 C3 0.929 . S
H1 C6 0.929 . S
H2 C8 0.930 . S
C3 H0 0.929 . S
C3 C4 1.398 . S
C3 C5 1.396 . S
C4 C3 1.398 . S
C4 C8 1.407 . S
C5 C3 1.396 . S
C5 C6 1.394 . S
C6 H1 0.929 . S
C6 C5 1.394 . S
C6 C7 1.382 . S
C7 C6 1.382 . S
C7 C8 1.392 . S
C7 N9 1.420 . S
C8 H2 0.930 . S
C8 C4 1.407 . S
C8 C7 1.392 . S
N9 C7 1.420 . S
N9 C10 1.244 . S
C10 N9 1.244 . S
H11 C14 0.929 . S
H12 C17 0.929 . S
H13 C19 0.930 . S
C14 H11 0.929 . S
C14 C15 1.398 . S
C14 C16 1.396 . S
C15 C14 1.398 . S
C15 C19 1.407 . S
C16 C14 1.396 . S
C16 C17 1.394 . S
C17 H12 0.929 . S
C17 C16 1.394 . S
C17 C18 1.382 . S
C18 C17 1.382 . S
C18 C19 1.392 . S
C18 N20 1.420 . S
C19 H13 0.930 . S
C19 C15 1.407 . S
C19 C18 1.392 . S
N20 C18 1.420 . S
N20 C21 1.244 . S
C21 N20 1.244 . S
H22 C25 0.929 . S
H23 C28 0.929 . S
H24 C30 0.930 1_556 S
C25 H22 0.929 . S
C25 C26 1.391 1_455 S
C25 C27 1.396 . S
C26 C25 1.391 1_655 S
C26 C30 1.418 . S
C27 C25 1.396 . S
C27 C28 1.394 1_455 S
C28 H23 0.929 . S
C28 C27 1.394 1_655 S
C28 C29 1.382 . S
C29 C28 1.382 . S
C29 C30 1.392 . S
C29 N31 1.420 . S
C30 H24 0.930 1_554 S
C30 C26 1.418 . S
C30 C29 1.392 . S
N31 C29 1.420 . S
N31 C32 1.244 . S
C32 N31 1.244 . S
H33 C36 0.929 . S
H34 C39 0.929 . S
H35 C41 0.930 . S
C36 H33 0.929 . S
C36 C37 1.398 . S
C36 C38 1.396 . S
C37 C36 1.398 . S
C37 C41 1.407 . S
C38 C36 1.396 . S
C38 C39 1.394 . S
C39 H34 0.929 . S
C39 C38 1.394 . S
C39 C40 1.382 . S
C40 C39 1.382 . S
C40 C41 1.392 . S
C40 N42 1.420 . S
C41 H35 0.930 . S
C41 C37 1.407 . S
C41 C40 1.392 . S
N42 C40 1.420 . S
N42 C43 1.244 . S
C43 N42 1.244 . S
H44 C47 0.905 1_545 S
H45 C50 0.929 . S
H46 C52 0.930 . S
C47 H44 0.905 1_565 S
C47 C48 1.412 . S
C47 C49 1.407 . S
C48 C47 1.412 . S
C48 C52 1.407 . S
C49 C47 1.407 . S
C49 C50 1.394 . S
C50 H45 0.929 . S
C50 C49 1.394 . S
C50 C51 1.382 . S
C51 C50 1.382 . S
C51 C52 1.392 . S
C51 N53 1.420 . S
C52 H46 0.930 . S
C52 C48 1.407 . S
C52 C51 1.392 . S
N53 C51 1.420 . S
N53 C54 1.244 . S
C54 N53 1.244 . S
H55 C58 0.929 . S
H56 C61 0.929 . S
H57 C63 0.930 . S
C58 H55 0.929 . S
C58 C59 1.398 . S
C58 C60 1.396 . S
C59 C58 1.398 . S
C59 C63 1.407 . S
C60 C58 1.396 . S
C60 C61 1.394 . S
C61 H56 0.929 . S
C61 C60 1.394 . S
C61 C62 1.382 . S
C62 C61 1.382 . S
C62 C63 1.392 . S
C62 N64 1.420 . S
C63 H57 0.930 . S
C63 C59 1.407 . S
C63 C62 1.392 . S
N64 C62 1.420 . S
N64 C65 1.244 . S
C65 N64 1.244 . S
H66 C69 0.929 . S
H67 C72 0.929 . S
H68 C74 0.930 . S
C69 H66 0.929 . S
C69 C70 1.398 . S
C69 C71 1.396 . S
C70 C69 1.398 . S
C70 C74 1.407 . S
C71 C69 1.396 . S
C71 C72 1.394 1_655 S
C72 H67 0.929 . S
C72 C71 1.394 1_455 S
C72 C73 1.382 . S
C73 C72 1.382 . S
C73 C74 1.392 1_455 S
C73 N75 1.420 . S
C74 H68 0.930 . S
C74 C70 1.407 . S
C74 C73 1.392 1_655 S
N75 C73 1.420 . S
N75 C76 1.244 . S
C76 N75 1.244 . S
H77 C80 0.929 . S
H78 C83 0.929 . S
H79 C85 0.930 . S
C80 H77 0.929 . S
C80 C81 1.398 . S
C80 C82 1.396 . S
C81 C80 1.398 . S
C81 C85 1.407 . S
C82 C80 1.396 . S
C82 C83 1.394 . S
C83 H78 0.929 . S
C83 C82 1.394 . S
C83 C84 1.382 . S
C84 C83 1.382 . S
C84 C85 1.392 . S
C84 N86 1.420 . S
C85 H79 0.930 . S
C85 C81 1.407 . S
C85 C84 1.392 . S
N86 C84 1.420 . S
N86 C87 1.244 . S
C87 N86 1.244 . S
H88 C91 0.929 . S
H89 C94 0.929 . S
H90 C96 0.930 . S
C91 H88 0.929 . S
C91 C92 1.398 . S
C91 C93 1.396 . S
C92 C91 1.398 . S
C92 C96 1.407 . S
C93 C91 1.396 . S
C93 C94 1.394 . S
C94 H89 0.929 . S
C94 C93 1.394 . S
C94 C95 1.382 . S
C95 C94 1.382 . S
C95 C96 1.392 . S
C95 N97 1.420 . S
C96 H90 0.930 . S
C96 C92 1.407 . S
C96 C95 1.392 . S
N97 C95 1.420 . S
N97 C98 1.244 . S
C98 N97 1.244 . S
H99 C102 0.929 . S
H100 C105 0.923 1_545 S
H101 C107 0.930 . S
C102 H99 0.929 . S
C102 C103 1.398 . S
C102 C104 1.396 . S
C103 C102 1.398 . S
C103 C107 1.407 . S
C104 C102 1.396 . S
C104 C105 1.400 . S
C105 H100 0.923 1_565 S
C105 C104 1.400 . S
C105 C106 1.382 . S
C106 C105 1.382 . S
C106 C107 1.392 . S
C106 N108 1.420 1_565 S
C107 H101 0.930 . S
C107 C103 1.407 . S
C107 C106 1.392 . S
N108 C106 1.420 1_545 S
N108 C109 1.244 . S
C109 N108 1.244 . S
H110 C113 0.929 . S
H111 C116 0.929 . S
H112 C118 0.930 . S
C113 H110 0.929 . S
C113 C114 1.398 . S
C113 C115 1.396 . S
C114 C113 1.398 . S
C114 C118 1.407 . S
C115 C113 1.396 . S
C115 C116 1.394 . S
C116 H111 0.929 . S
C116 C115 1.394 . S
C116 C117 1.382 . S
C117 C116 1.382 . S
C117 C118 1.392 . S
C117 N119 1.420 . S
C118 H112 0.930 . S
C118 C114 1.407 . S
C118 C117 1.392 . S
N119 C117 1.420 . S
N119 C120 1.244 . S
C120 N119 1.244 . S
H121 C124 0.929 . S
H122 C127 0.929 . S
H123 C129 0.930 . S
C124 H121 0.929 . S
C124 C125 1.398 . S
C124 C126 1.396 . S
C125 C124 1.398 . S
C125 C129 1.407 . S
C126 C124 1.396 . S
C126 C127 1.394 . S
C127 H122 0.929 . S
C127 C126 1.394 . S
C127 C128 1.382 . S
C128 C127 1.382 . S
C128 C129 1.392 . S
C128 N130 1.420 . S
C129 H123 0.930 . S
C129 C125 1.407 . S
C129 C128 1.392 . S
N130 C128 1.420 . S
N130 C131 1.244 . S
C131 N130 1.244 . S
H132 C135 0.929 . S
H133 C138 0.929 . S
H134 C140 0.930 . S
C135 H132 0.929 . S
C135 C136 1.398 . S
C135 C137 1.396 . S
C136 C135 1.398 . S
C136 C140 1.407 . S
C137 C135 1.396 . S
C137 C138 1.394 . S
C138 H133 0.929 . S
C138 C137 1.394 . S
C138 C139 1.382 . S
C139 C138 1.382 . S
C139 C140 1.392 . S
C139 N141 1.420 . S
C140 H134 0.930 . S
C140 C136 1.407 . S
C140 C139 1.392 . S
N141 C139 1.420 . S
N141 C142 1.244 . S
C142 N141 1.244 . S
H143 C146 0.929 . S
H144 C149 0.929 . S
H145 C151 0.930 . S
C146 H143 0.929 . S
C146 C147 1.398 . S
C146 C148 1.396 . S
C147 C146 1.398 . S
C147 C151 1.407 . S
C148 C146 1.396 . S
C148 C149 1.394 1_556 S
C149 H144 0.929 . S
C149 C148 1.394 1_554 S
C149 C150 1.378 1_554 S
C150 C149 1.378 1_556 S
C150 C151 1.430 . S
C150 N152 1.387 1_556 S
C151 H145 0.930 . S
C151 C147 1.407 . S
C151 C150 1.430 . S
N152 C150 1.387 1_554 S
N152 C153 1.244 . S
C153 N152 1.244 . S
H154 C157 0.929 . S
H155 C160 0.929 . S
H156 C162 0.930 . S
C157 H154 0.929 . S
C157 C158 1.398 . S
C157 C159 1.396 . S
C158 C157 1.398 . S
C158 C162 1.407 . S
C159 C157 1.396 . S
C159 C160 1.394 . S
C160 H155 0.929 . S
C160 C159 1.394 . S
C160 C161 1.382 . S
C161 C160 1.382 . S
C161 C162 1.392 . S
C161 N163 1.420 . S
C162 H156 0.930 . S
C162 C158 1.407 . S
C162 C161 1.392 . S
N163 C161 1.420 . S
N163 C164 1.244 . S
C164 N163 1.244 . S
H165 C168 0.923 1_554 S
H166 C171 0.929 . S
H167 C173 0.930 1_565 S
C168 H165 0.923 1_556 S
C168 C169 1.402 . S
C168 C170 1.398 . S
C169 C168 1.402 . S
C169 C173 1.407 . S
C170 C168 1.398 . S
C170 C171 1.394 . S
C171 H166 0.929 . S
C171 C170 1.394 . S
C171 C172 1.382 . S
C172 C171 1.382 . S
C172 C173 1.392 . S
C172 N174 1.420 . S
C173 H167 0.930 1_545 S
C173 C169 1.407 . S
C173 C172 1.392 . S
N174 C172 1.420 . S
N174 C175 1.244 . S
C175 N174 1.244 . S
Mn176 O181 2.095 . S
Mn176 O191 2.162 . S
Mn176 O192 2.297 . S
Mn176 O200 2.385 . S
Mn176 O201 2.209 . S
Mn176 O202 2.094 . S
Mn177 O182 2.121 1_556 S
Mn177 N184 2.257 . S
Mn177 N193 2.282 . S
Mn177 O201 2.215 1_556 S
Mn177 O203 2.117 1_556 S
C178 O200 1.234 . S
C178 O201 1.283 . S
C179 O191 1.281 . S
C179 O192 1.236 . S
C180 O202 1.240 . S
C180 O203 1.264 . S
O181 Mn176 2.095 . S
O181 C190 1.250 . S
O182 Mn177 2.121 1_554 S
O182 C190 1.258 . S
C183 N184 1.326 . S
C183 C187 1.460 . S
C183 H189 0.929 . S
N184 Mn177 2.257 . S
N184 C183 1.326 . S
N184 C188 1.362 . S
C185 C186 1.258 . S
C185 C188 1.431 . S
C185 C205 1.449 . S
C186 C185 1.258 . S
C186 C187 1.477 . S
C186 H206 0.931 . S
C187 C183 1.460 . S
C187 C186 1.477 . S
C187 H207 0.930 . S
C188 N184 1.362 . S
C188 C185 1.431 . S
C188 C198 1.476 . S
H189 C183 0.929 . S
C190 O181 1.250 . S
C190 O182 1.258 . S
O191 Mn176 2.162 . S
O191 C179 1.281 . S
O192 Mn176 2.297 . S
O192 C179 1.236 . S
N193 Mn177 2.282 . S
N193 C194 1.328 . S
N193 C198 1.318 . S
C194 N193 1.328 . S
C194 C195 1.457 . S
C194 H199 0.929 . S
C195 C194 1.457 . S
C195 C196 1.291 . S
C195 H208 0.931 . S
C196 C195 1.291 . S
C196 C197 1.373 . S
C196 H209 0.929 . S
C197 C196 1.373 . S
C197 C198 1.396 . S
C197 C204 1.403 . S
C198 C188 1.476 . S
C198 N193 1.318 . S
C198 C197 1.396 . S
H199 C194 0.929 . S
O200 Mn176 2.385 . S
O200 C178 1.234 . S
O201 Mn176 2.209 . S
O201 Mn177 2.215 1_554 S
O201 C178 1.283 . S
O202 Mn176 2.094 . S
O202 C180 1.240 . S
O203 Mn177 2.117 1_554 S
O203 C180 1.264 . S
C204 C197 1.403 . S
C204 C205 1.399 . S
C204 H210 0.929 . S
C205 C185 1.449 . S
C205 C204 1.399 . S
C205 H211 0.930 . S
H206 C186 0.931 . S
H207 C187 0.930 . S
H208 C195 0.931 . S
H209 C196 0.929 . S
H210 C204 0.929 . S
H211 C205 0.930 . S
Mn212 O217 2.095 . S
Mn212 O227 2.162 . S
Mn212 O228 2.297 . S
Mn212 O236 2.385 . S
Mn212 O237 2.209 . S
Mn212 O238 2.094 . S
Mn213 O218 2.121 . S
Mn213 N220 2.257 . S
Mn213 N229 2.282 . S
Mn213 O237 2.215 . S
Mn213 O239 2.117 . S
C214 O236 1.234 . S
C214 O237 1.283 . S
C215 O227 1.281 . S
C215 O228 1.236 . S
C216 O238 1.240 . S
C216 O239 1.264 . S
O217 Mn212 2.095 . S
O217 C226 1.250 . S
O218 Mn213 2.121 . S
O218 C226 1.258 . S
C219 N220 1.326 . S
C219 C223 1.460 . S
C219 H225 0.929 . S
N220 Mn213 2.257 . S
N220 C219 1.326 . S
N220 C224 1.362 . S
C221 C222 1.258 . S
C221 C224 1.431 . S
C221 C241 1.449 . S
C222 C221 1.258 . S
C222 C223 1.477 . S
C222 H242 0.931 . S
C223 C219 1.460 . S
C223 C222 1.477 . S
C223 H243 0.930 . S
C224 N220 1.362 . S
C224 C221 1.431 . S
C224 C234 1.476 . S
H225 C219 0.929 . S
C226 O217 1.250 . S
C226 O218 1.258 . S
O227 Mn212 2.162 . S
O227 C215 1.281 . S
O228 Mn212 2.297 . S
O228 C215 1.236 . S
N229 Mn213 2.282 . S
N229 C230 1.328 . S
N229 C234 1.318 . S
C230 N229 1.328 . S
C230 C231 1.457 . S
C230 H235 0.929 . S
C231 C230 1.457 . S
C231 C232 1.291 . S
C231 H244 0.931 . S
C232 C231 1.291 . S
C232 C233 1.373 . S
C232 H245 0.929 . S
C233 C232 1.373 . S
C233 C234 1.396 . S
C233 C240 1.403 . S
C234 C224 1.476 . S
C234 N229 1.318 . S
C234 C233 1.396 . S
H235 C230 0.929 . S
O236 Mn212 2.385 . S
O236 C214 1.234 . S
O237 Mn212 2.209 . S
O237 Mn213 2.215 . S
O237 C214 1.283 . S
O238 Mn212 2.094 . S
O238 C216 1.240 . S
O239 Mn213 2.117 . S
O239 C216 1.264 . S
C240 C233 1.403 . S
C240 C241 1.399 . S
C240 H246 0.929 . S
C241 C221 1.449 . S
C241 C240 1.399 . S
C241 H247 0.930 . S
H242 C222 0.931 . S
H243 C223 0.930 . S
H244 C231 0.931 . S
H245 C232 0.929 . S
H246 C240 0.929 . S
H247 C241 0.930 . S
Mn248 O253 2.095 1_554 S
Mn248 O263 2.162 . S
Mn248 O264 2.297 1_554 S
Mn248 O272 2.385 . S
Mn248 O273 2.209 1_554 S
Mn248 O274 2.094 . S
Mn249 O254 2.121 . S
Mn249 N256 2.257 . S
Mn249 N265 2.282 1_556 S
Mn249 O273 2.215 . S
Mn249 O275 2.117 1_556 S
C250 O272 1.235 1_556 S
C250 O273 1.282 . S
C251 O263 1.296 . S
C251 O264 1.220 1_554 S
C252 O274 1.240 . S
C252 O275 1.264 . S
O253 Mn248 2.095 1_556 S
O253 C262 1.250 . S
O254 Mn249 2.121 . S
O254 C262 1.258 . S
C255 N256 1.326 . S
C255 C259 1.460 . S
C255 H261 0.929 . S
N256 Mn249 2.257 . S
N256 C255 1.326 . S
N256 C260 1.362 . S
C257 C258 1.258 . S
C257 C260 1.431 . S
C257 C277 1.449 . S
C258 C257 1.258 . S
C258 C259 1.477 . S
C258 H278 0.931 . S
C259 C255 1.460 . S
C259 C258 1.477 . S
C259 H279 0.930 . S
C260 N256 1.362 . S
C260 C257 1.431 . S
C260 C270 1.476 . S
H261 C255 0.929 . S
C262 O253 1.250 . S
C262 O254 1.258 . S
O263 Mn248 2.162 . S
O263 C251 1.296 . S
O264 Mn248 2.297 1_556 S
O264 C251 1.220 1_556 S
N265 Mn249 2.282 1_554 S
N265 C266 1.328 . S
N265 C270 1.318 1_554 S
C266 N265 1.328 . S
C266 C267 1.457 . S
C266 H271 0.929 . S
C267 C266 1.457 . S
C267 C268 1.291 . S
C267 H280 0.931 . S
C268 C267 1.291 . S
C268 C269 1.373 1_554 S
C268 H281 0.929 . S
C269 C268 1.373 1_556 S
C269 C270 1.396 . S
C269 C276 1.403 . S
C270 C260 1.476 . S
C270 N265 1.318 1_556 S
C270 C269 1.396 . S
H271 C266 0.929 . S
O272 Mn248 2.385 . S
O272 C250 1.235 1_554 S
O273 Mn248 2.209 1_556 S
O273 Mn249 2.215 . S
O273 C250 1.282 . S
O274 Mn248 2.094 . S
O274 C252 1.240 . S
O275 Mn249 2.117 1_554 S
O275 C252 1.264 . S
C276 C269 1.403 . S
C276 C277 1.399 . S
C276 H282 0.929 . S
C277 C257 1.449 . S
C277 C276 1.399 . S
C277 H283 0.930 . S
H278 C258 0.931 . S
H279 C259 0.930 . S
H280 C267 0.931 . S
H281 C268 0.929 . S
H282 C276 0.929 . S
H283 C277 0.930 . S
Mn284 O289 2.095 . S
Mn284 O299 2.162 . S
Mn284 O300 2.297 . S
Mn284 O308 2.385 . S
Mn284 O309 2.209 1_545 S
Mn284 O310 2.094 . S
Mn285 O290 2.121 . S
Mn285 N292 2.257 . S
Mn285 N301 2.282 . S
Mn285 O309 2.215 . S
Mn285 O311 2.117 1_565 S
C286 O308 1.234 1_565 S
C286 O309 1.283 . S
C287 O299 1.281 . S
C287 O300 1.236 . S
C288 O310 1.240 . S
C288 O311 1.264 . S
O289 Mn284 2.095 . S
O289 C298 1.250 . S
O290 Mn285 2.121 . S
O290 C298 1.258 1_565 S
C291 N292 1.326 . S
C291 C295 1.460 . S
C291 H297 0.929 . S
N292 Mn285 2.257 . S
N292 C291 1.326 . S
N292 C296 1.362 . S
C293 C294 1.258 . S
C293 C296 1.431 . S
C293 C313 1.449 . S
C294 C293 1.258 . S
C294 C295 1.477 . S
C294 H314 0.931 . S
C295 C291 1.460 . S
C295 C294 1.477 . S
C295 H315 0.930 . S
C296 N292 1.362 . S
C296 C293 1.431 . S
C296 C306 1.476 . S
H297 C291 0.929 . S
C298 O289 1.250 . S
C298 O290 1.258 1_545 S
O299 Mn284 2.162 . S
O299 C287 1.281 . S
O300 Mn284 2.297 . S
O300 C287 1.236 . S
N301 Mn285 2.282 . S
N301 C302 1.328 . S
N301 C306 1.318 . S
C302 N301 1.328 . S
C302 C303 1.457 . S
C302 H307 0.929 . S
C303 C302 1.457 . S
C303 C304 1.291 . S
C303 H316 0.931 . S
C304 C303 1.291 . S
C304 C305 1.373 . S
C304 H317 0.929 . S
C305 C304 1.373 . S
C305 C306 1.396 . S
C305 C312 1.403 . S
C306 C296 1.476 . S
C306 N301 1.318 . S
C306 C305 1.396 . S
H307 C302 0.929 . S
O308 Mn284 2.385 . S
O308 C286 1.234 1_545 S
O309 Mn284 2.209 1_565 S
O309 Mn285 2.215 . S
O309 C286 1.283 . S
O310 Mn284 2.094 . S
O310 C288 1.240 . S
O311 Mn285 2.117 1_545 S
O311 C288 1.264 . S
C312 C305 1.403 . S
C312 C313 1.399 . S
C312 H318 0.929 . S
C313 C293 1.449 . S
C313 C312 1.399 . S
C313 H319 0.930 . S
H314 C294 0.931 . S
H315 C295 0.930 . S
H316 C303 0.931 . S
H317 C304 0.929 . S
H318 C312 0.929 . S
H319 C313 0.930 . S
Mn320 O325 2.095 . S
Mn320 O335 2.162 . S
Mn320 O336 2.297 . S
Mn320 O344 2.385 . S
Mn320 O345 2.209 . S
Mn320 O346 2.094 . S
Mn321 O326 2.121 . S
Mn321 N328 2.257 . S
Mn321 N337 2.282 . S
Mn321 O345 2.215 . S
Mn321 O347 2.117 . S
C322 O344 1.234 . S
C322 O345 1.283 . S
C323 O335 1.281 . S
C323 O336 1.236 . S
C324 O346 1.240 . S
C324 O347 1.264 . S
O325 Mn320 2.095 . S
O325 C334 1.250 . S
O326 Mn321 2.121 . S
O326 C334 1.258 . S
C327 N328 1.326 . S
C327 C331 1.460 . S
C327 H333 0.929 . S
N328 Mn321 2.257 . S
N328 C327 1.326 . S
N328 C332 1.362 . S
C329 C330 1.258 . S
C329 C332 1.431 . S
C329 C349 1.449 . S
C330 C329 1.258 . S
C330 C331 1.477 . S
C330 H350 0.931 . S
C331 C327 1.460 . S
C331 C330 1.477 . S
C331 H351 0.930 . S
C332 N328 1.362 . S
C332 C329 1.431 . S
C332 C342 1.476 . S
H333 C327 0.929 . S
C334 O325 1.250 . S
C334 O326 1.258 . S
O335 Mn320 2.162 . S
O335 C323 1.281 . S
O336 Mn320 2.297 . S
O336 C323 1.236 . S
N337 Mn321 2.282 . S
N337 C338 1.328 . S
N337 C342 1.318 . S
C338 N337 1.328 . S
C338 C339 1.457 . S
C338 H343 0.929 . S
C339 C338 1.457 . S
C339 C340 1.291 . S
C339 H352 0.931 . S
C340 C339 1.291 . S
C340 C341 1.373 . S
C340 H353 0.929 . S
C341 C340 1.373 . S
C341 C342 1.396 . S
C341 C348 1.403 . S
C342 C332 1.476 . S
C342 N337 1.318 . S
C342 C341 1.396 . S
H343 C338 0.929 . S
O344 Mn320 2.385 . S
O344 C322 1.234 . S
O345 Mn320 2.209 . S
O345 Mn321 2.215 . S
O345 C322 1.283 . S
O346 Mn320 2.094 . S
O346 C324 1.240 . S
O347 Mn321 2.117 . S
O347 C324 1.264 . S
C348 C341 1.403 . S
C348 C349 1.399 . S
C348 H354 0.929 . S
C349 C329 1.449 . S
C349 C348 1.399 . S
C349 H355 0.930 . S
H350 C330 0.931 . S
H351 C331 0.930 . S
H352 C339 0.931 . S
H353 C340 0.929 . S
H354 C348 0.929 . S
H355 C349 0.930 . S
Mn356 O361 2.095 . S
Mn356 O371 2.162 . S
Mn356 O372 2.297 . S
Mn356 O380 2.385 . S
Mn356 O381 2.209 . S
Mn356 O382 2.094 . S
Mn357 O362 2.121 . S
Mn357 N364 2.257 . S
Mn357 N373 2.282 . S
Mn357 O381 2.215 . S
Mn357 O383 2.117 . S
C358 O380 1.234 . S
C358 O381 1.283 . S
C359 O371 1.281 . S
C359 O372 1.236 . S
C360 O382 1.240 . S
C360 O383 1.264 . S
O361 Mn356 2.095 . S
O361 C370 1.250 . S
O362 Mn357 2.121 . S
O362 C370 1.258 . S
C363 N364 1.326 . S
C363 C367 1.460 . S
C363 H369 0.929 . S
N364 Mn357 2.257 . S
N364 C363 1.326 . S
N364 C368 1.362 . S
C365 C366 1.258 . S
C365 C368 1.431 . S
C365 C385 1.449 . S
C366 C365 1.258 . S
C366 C367 1.477 . S
C366 H386 0.931 . S
C367 C363 1.460 . S
C367 C366 1.477 . S
C367 H387 0.930 . S
C368 N364 1.362 . S
C368 C365 1.431 . S
C368 C378 1.476 . S
H369 C363 0.929 . S
C370 O361 1.250 . S
C370 O362 1.258 . S
O371 Mn356 2.162 . S
O371 C359 1.281 . S
O372 Mn356 2.297 . S
O372 C359 1.236 . S
N373 Mn357 2.282 . S
N373 C374 1.328 . S
N373 C378 1.318 . S
C374 N373 1.328 . S
C374 C375 1.457 . S
C374 H379 0.929 . S
C375 C374 1.457 . S
C375 C376 1.291 . S
C375 H388 0.931 . S
C376 C375 1.291 . S
C376 C377 1.373 . S
C376 H389 0.929 . S
C377 C376 1.373 . S
C377 C378 1.396 . S
C377 C384 1.403 . S
C378 C368 1.476 . S
C378 N373 1.318 . S
C378 C377 1.396 . S
H379 C374 0.929 . S
O380 Mn356 2.385 . S
O380 C358 1.234 . S
O381 Mn356 2.209 . S
O381 Mn357 2.215 . S
O381 C358 1.283 . S
O382 Mn356 2.094 . S
O382 C360 1.240 . S
O383 Mn357 2.117 . S
O383 C360 1.264 . S
C384 C377 1.403 . S
C384 C385 1.399 . S
C384 H390 0.929 . S
C385 C365 1.449 . S
C385 C384 1.399 . S
C385 H391 0.930 . S
H386 C366 0.931 . S
H387 C367 0.930 . S
H388 C375 0.931 . S
H389 C376 0.929 . S
H390 C384 0.929 . S
H391 C385 0.930 . S
Mn392 O397 2.095 . S
Mn392 O407 2.162 . S
Mn392 O408 2.297 . S
Mn392 O416 2.385 . S
Mn392 O417 2.209 . S
Mn392 O418 2.094 . S
Mn393 O398 2.121 . S
Mn393 N400 2.257 . S
Mn393 N409 2.282 . S
Mn393 O417 2.215 . S
Mn393 O419 2.117 . S
C394 O416 1.234 . S
C394 O417 1.283 . S
C395 O407 1.281 . S
C395 O408 1.236 . S
C396 O418 1.240 . S
C396 O419 1.264 . S
O397 Mn392 2.095 . S
O397 C406 1.250 . S
O398 Mn393 2.121 . S
O398 C406 1.258 . S
C399 N400 1.326 . S
C399 C403 1.460 . S
C399 H405 0.929 . S
N400 Mn393 2.257 . S
N400 C399 1.326 . S
N400 C404 1.362 . S
C401 C402 1.258 . S
C401 C404 1.431 . S
C401 C421 1.449 . S
C402 C401 1.258 . S
C402 C403 1.477 . S
C402 H422 0.931 . S
C403 C399 1.460 . S
C403 C402 1.477 . S
C403 H423 0.930 . S
C404 N400 1.362 . S
C404 C401 1.431 . S
C404 C414 1.476 . S
H405 C399 0.929 . S
C406 O397 1.250 . S
C406 O398 1.258 . S
O407 Mn392 2.162 . S
O407 C395 1.281 . S
O408 Mn392 2.297 . S
O408 C395 1.236 . S
N409 Mn393 2.282 . S
N409 C410 1.328 . S
N409 C414 1.318 . S
C410 N409 1.328 . S
C410 C411 1.457 . S
C410 H415 0.929 . S
C411 C410 1.457 . S
C411 C412 1.291 . S
C411 H424 0.931 . S
C412 C411 1.291 . S
C412 C413 1.373 . S
C412 H425 0.929 . S
C413 C412 1.373 . S
C413 C414 1.396 . S
C413 C420 1.403 . S
C414 C404 1.476 . S
C414 N409 1.318 . S
C414 C413 1.396 . S
H415 C410 0.929 . S
O416 Mn392 2.385 . S
O416 C394 1.234 . S
O417 Mn392 2.209 . S
O417 Mn393 2.215 . S
O417 C394 1.283 . S
O418 Mn392 2.094 . S
O418 C396 1.240 . S
O419 Mn393 2.117 . S
O419 C396 1.264 . S
C420 C413 1.403 . S
C420 C421 1.399 . S
C420 H426 0.929 . S
C421 C401 1.449 . S
C421 C420 1.399 . S
C421 H427 0.930 . S
H422 C402 0.931 . S
H423 C403 0.930 . S
H424 C411 0.931 . S
H425 C412 0.929 . S
H426 C420 0.929 . S
H427 C421 0.930 . S
Mn428 O433 2.095 . S
Mn428 O443 2.162 . S
Mn428 O444 2.297 . S
Mn428 O452 2.385 1_565 S
Mn428 O453 2.209 1_565 S
Mn428 O454 2.094 . S
Mn429 O434 2.121 . S
Mn429 N436 2.257 . S
Mn429 N445 2.282 . S
Mn429 O453 2.215 . S
Mn429 O455 2.117 . S
C430 O452 1.234 . S
C430 O453 1.283 . S
C431 O443 1.281 . S
C431 O444 1.236 . S
C432 O454 1.278 . S
C432 O455 1.223 1_565 S
O433 Mn428 2.095 . S
O433 C442 1.250 1_565 S
O434 Mn429 2.121 . S
O434 C442 1.258 . S
C435 N436 1.326 . S
C435 C439 1.460 . S
C435 H441 0.929 . S
N436 Mn429 2.257 . S
N436 C435 1.326 . S
N436 C440 1.362 . S
C437 C438 1.258 . S
C437 C440 1.431 . S
C437 C457 1.449 . S
C438 C437 1.258 . S
C438 C439 1.477 . S
C438 H458 0.931 . S
C439 C435 1.460 . S
C439 C438 1.477 . S
C439 H459 0.930 . S
C440 N436 1.362 . S
C440 C437 1.431 . S
C440 C450 1.476 . S
H441 C435 0.929 . S
C442 O433 1.250 1_545 S
C442 O434 1.258 . S
O443 Mn428 2.162 . S
O443 C431 1.281 . S
O444 Mn428 2.297 . S
O444 C431 1.236 . S
N445 Mn429 2.282 . S
N445 C446 1.328 . S
N445 C450 1.318 . S
C446 N445 1.328 . S
C446 C447 1.457 . S
C446 H451 0.929 . S
C447 C446 1.457 . S
C447 C448 1.291 . S
C447 H460 0.931 . S
C448 C447 1.291 . S
C448 C449 1.373 . S
C448 H461 0.929 . S
C449 C448 1.373 . S
C449 C450 1.396 . S
C449 C456 1.403 . S
C450 C440 1.476 . S
C450 N445 1.318 . S
C450 C449 1.396 . S
H451 C446 0.929 . S
O452 Mn428 2.385 1_545 S
O452 C430 1.234 . S
O453 Mn428 2.209 1_545 S
O453 Mn429 2.215 . S
O453 C430 1.283 . S
O454 Mn428 2.094 . S
O454 C432 1.278 . S
O455 Mn429 2.117 . S
O455 C432 1.223 1_545 S
C456 C449 1.403 . S
C456 C457 1.399 . S
C456 H462 0.929 . S
C457 C437 1.449 . S
C457 C456 1.399 . S
C457 H463 0.930 . S
H458 C438 0.931 . S
H459 C439 0.930 . S
H460 C447 0.931 . S
H461 C448 0.929 . S
H462 C456 0.929 . S
H463 C457 0.930 . S
Mn464 O469 2.095 . S
Mn464 O479 2.162 . S
Mn464 O480 2.297 . S
Mn464 O488 2.385 . S
Mn464 O489 2.209 1_455 S
Mn464 O490 2.094 . S
Mn465 O470 2.121 . S
Mn465 N472 2.257 . S
Mn465 N481 2.282 . S
Mn465 O489 2.215 . S
Mn465 O491 2.117 . S
C466 O488 1.234 1_655 S
C466 O489 1.283 . S
C467 O479 1.281 . S
C467 O480 1.236 . S
C468 O490 1.240 . S
C468 O491 1.264 1_455 S
O469 Mn464 2.095 . S
O469 C478 1.250 . S
O470 Mn465 2.121 . S
O470 C478 1.258 1_655 S
C471 N472 1.326 . S
C471 C475 1.460 . S
C471 H477 0.929 . S
N472 Mn465 2.257 . S
N472 C471 1.326 . S
N472 C476 1.362 . S
C473 C474 1.258 . S
C473 C476 1.431 . S
C473 C493 1.449 . S
C474 C473 1.258 . S
C474 C475 1.477 . S
C474 H494 0.931 . S
C475 C471 1.460 . S
C475 C474 1.477 . S
C475 H495 0.930 . S
C476 N472 1.362 . S
C476 C473 1.431 . S
C476 C486 1.476 . S
H477 C471 0.929 . S
C478 O469 1.250 . S
C478 O470 1.258 1_455 S
O479 Mn464 2.162 . S
O479 C467 1.281 . S
O480 Mn464 2.297 . S
O480 C467 1.236 . S
N481 Mn465 2.282 . S
N481 C482 1.328 . S
N481 C486 1.318 . S
C482 N481 1.328 . S
C482 C483 1.457 . S
C482 H487 0.929 . S
C483 C482 1.457 . S
C483 C484 1.291 . S
C483 H496 0.931 . S
C484 C483 1.291 . S
C484 C485 1.373 . S
C484 H497 0.929 . S
C485 C484 1.373 . S
C485 C486 1.396 . S
C485 C492 1.403 . S
C486 C476 1.476 . S
C486 N481 1.318 . S
C486 C485 1.396 . S
H487 C482 0.929 . S
O488 Mn464 2.385 . S
O488 C466 1.234 1_455 S
O489 Mn464 2.209 1_655 S
O489 Mn465 2.215 . S
O489 C466 1.283 . S
O490 Mn464 2.094 . S
O490 C468 1.240 . S
O491 Mn465 2.117 . S
O491 C468 1.264 1_655 S
C492 C485 1.403 . S
C492 C493 1.399 . S
C492 H498 0.929 . S
C493 C473 1.449 . S
C493 C492 1.399 . S
C493 H499 0.930 . S
H494 C474 0.931 . S
H495 C475 0.930 . S
H496 C483 0.931 . S
H497 C484 0.929 . S
H498 C492 0.929 . S
H499 C493 0.930 . S
Mn500 O505 2.095 . S
Mn500 O515 2.162 . S
Mn500 O516 2.297 . S
Mn500 O524 2.385 . S
Mn500 O525 2.209 . S
Mn500 O526 2.094 . S
Mn501 O506 2.121 . S
Mn501 N508 2.257 . S
Mn501 N517 2.282 . S
Mn501 O525 2.215 . S
Mn501 O527 2.117 . S
C502 O524 1.234 . S
C502 O525 1.283 . S
C503 O515 1.281 . S
C503 O516 1.236 . S
C504 O526 1.240 . S
C504 O527 1.264 . S
O505 Mn500 2.095 . S
O505 C514 1.250 . S
O506 Mn501 2.121 . S
O506 C514 1.258 . S
C507 N508 1.326 . S
C507 C511 1.460 . S
C507 H513 0.929 . S
N508 Mn501 2.257 . S
N508 C507 1.326 . S
N508 C512 1.362 . S
C509 C510 1.258 . S
C509 C512 1.431 . S
C509 C529 1.449 . S
C510 C509 1.258 . S
C510 C511 1.477 . S
C510 H530 0.931 . S
C511 C507 1.460 . S
C511 C510 1.477 . S
C511 H531 0.930 . S
C512 N508 1.362 . S
C512 C509 1.431 . S
C512 C522 1.476 . S
H513 C507 0.929 . S
C514 O505 1.250 . S
C514 O506 1.258 . S
O515 Mn500 2.162 . S
O515 C503 1.281 . S
O516 Mn500 2.297 . S
O516 C503 1.236 . S
N517 Mn501 2.282 . S
N517 C518 1.328 . S
N517 C522 1.318 . S
C518 N517 1.328 . S
C518 C519 1.457 . S
C518 H523 0.929 . S
C519 C518 1.457 . S
C519 C520 1.291 . S
C519 H532 0.931 . S
C520 C519 1.291 . S
C520 C521 1.373 . S
C520 H533 0.929 . S
C521 C520 1.373 . S
C521 C522 1.396 . S
C521 C528 1.403 . S
C522 C512 1.476 . S
C522 N517 1.318 . S
C522 C521 1.396 . S
H523 C518 0.929 . S
O524 Mn500 2.385 . S
O524 C502 1.234 . S
O525 Mn500 2.209 . S
O525 Mn501 2.215 . S
O525 C502 1.283 . S
O526 Mn500 2.094 . S
O526 C504 1.240 . S
O527 Mn501 2.117 . S
O527 C504 1.264 . S
C528 C521 1.403 . S
C528 C529 1.399 . S
C528 H534 0.929 . S
C529 C509 1.449 . S
C529 C528 1.399 . S
C529 H535 0.930 . S
H530 C510 0.931 . S
H531 C511 0.930 . S
H532 C519 0.931 . S
H533 C520 0.929 . S
H534 C528 0.929 . S
H535 C529 0.930 . S
Mn536 O541 2.095 1_455 S
Mn536 O551 2.162 . S
Mn536 O552 2.297 . S
Mn536 O560 2.385 . S
Mn536 O561 2.209 1_455 S
Mn536 O562 2.094 . S
Mn537 O542 2.121 . S
Mn537 N544 2.257 . S
Mn537 N553 2.282 1_655 S
Mn537 O561 2.215 . S
Mn537 O563 2.117 1_655 S
C538 O560 1.234 . S
C538 O561 1.283 1_455 S
C539 O551 1.281 . S
C539 O552 1.236 . S
C540 O562 1.240 . S
C540 O563 1.264 . S
O541 Mn536 2.095 1_655 S
O541 C550 1.250 . S
O542 Mn537 2.121 . S
O542 C550 1.258 . S
C543 N544 1.326 . S
C543 C547 1.460 . S
C543 H549 0.929 . S
N544 Mn537 2.257 . S
N544 C543 1.326 . S
N544 C548 1.362 . S
C545 C546 1.258 . S
C545 C548 1.431 . S
C545 C565 1.449 . S
C546 C545 1.258 . S
C546 C547 1.477 . S
C546 H566 0.931 . S
C547 C543 1.460 . S
C547 C546 1.477 . S
C547 H567 0.930 . S
C548 N544 1.362 . S
C548 C545 1.431 . S
C548 C558 1.476 . S
H549 C543 0.929 . S
C550 O541 1.250 . S
C550 O542 1.258 . S
O551 Mn536 2.162 . S
O551 C539 1.281 . S
O552 Mn536 2.297 . S
O552 C539 1.236 . S
N553 Mn537 2.282 1_455 S
N553 C554 1.328 . S
N553 C558 1.318 1_455 S
C554 N553 1.328 . S
C554 C555 1.457 . S
C554 H559 0.929 . S
C555 C554 1.457 . S
C555 C556 1.291 . S
C555 H568 0.931 . S
C556 C555 1.291 . S
C556 C557 1.373 1_455 S
C556 H569 0.929 . S
C557 C556 1.373 1_655 S
C557 C558 1.396 . S
C557 C564 1.403 . S
C558 C548 1.476 . S
C558 N553 1.318 1_655 S
C558 C557 1.396 . S
H559 C554 0.929 . S
O560 Mn536 2.385 . S
O560 C538 1.234 . S
O561 Mn536 2.209 1_655 S
O561 Mn537 2.215 . S
O561 C538 1.283 1_655 S
O562 Mn536 2.094 . S
O562 C540 1.240 . S
O563 Mn537 2.117 1_455 S
O563 C540 1.264 . S
C564 C557 1.403 . S
C564 C565 1.399 . S
C564 H570 0.929 . S
C565 C545 1.449 . S
C565 C564 1.399 . S
C565 H571 0.930 . S
H566 C546 0.931 . S
H567 C547 0.930 . S
H568 C555 0.931 . S
H569 C556 0.929 . S
H570 C564 0.929 . S
H571 C565 0.930 . S
Mn572 O577 2.095 . S
Mn572 O587 2.162 . S
Mn572 O588 2.297 . S
Mn572 O596 2.385 . S
Mn572 O597 2.209 . S
Mn572 O598 2.094 . S
Mn573 O578 2.121 . S
Mn573 N580 2.257 . S
Mn573 N589 2.282 . S
Mn573 O597 2.215 . S
Mn573 O599 2.117 . S
C574 O596 1.234 . S
C574 O597 1.283 . S
C575 O587 1.281 . S
C575 O588 1.236 . S
C576 O598 1.240 . S
C576 O599 1.264 . S
O577 Mn572 2.095 . S
O577 C586 1.250 . S
O578 Mn573 2.121 . S
O578 C586 1.258 . S
C579 N580 1.326 . S
C579 C583 1.460 . S
C579 H585 0.929 . S
N580 Mn573 2.257 . S
N580 C579 1.326 . S
N580 C584 1.362 . S
C581 C582 1.258 . S
C581 C584 1.431 . S
C581 C601 1.449 . S
C582 C581 1.258 . S
C582 C583 1.477 . S
C582 H602 0.931 . S
C583 C579 1.460 . S
C583 C582 1.477 . S
C583 H603 0.930 . S
C584 N580 1.362 . S
C584 C581 1.431 . S
C584 C594 1.476 . S
H585 C579 0.929 . S
C586 O577 1.250 . S
C586 O578 1.258 . S
O587 Mn572 2.162 . S
O587 C575 1.281 . S
O588 Mn572 2.297 . S
O588 C575 1.236 . S
N589 Mn573 2.282 . S
N589 C590 1.328 . S
N589 C594 1.318 . S
C590 N589 1.328 . S
C590 C591 1.457 . S
C590 H595 0.929 . S
C591 C590 1.457 . S
C591 C592 1.291 . S
C591 H604 0.931 . S
C592 C591 1.291 . S
C592 C593 1.373 . S
C592 H605 0.929 . S
C593 C592 1.373 . S
C593 C594 1.396 . S
C593 C600 1.403 . S
C594 C584 1.476 . S
C594 N589 1.318 . S
C594 C593 1.396 . S
H595 C590 0.929 . S
O596 Mn572 2.385 . S
O596 C574 1.234 . S
O597 Mn572 2.209 . S
O597 Mn573 2.215 . S
O597 C574 1.283 . S
O598 Mn572 2.094 . S
O598 C576 1.240 . S
O599 Mn573 2.117 . S
O599 C576 1.264 . S
C600 C593 1.403 . S
C600 C601 1.399 . S
C600 H606 0.929 . S
C601 C581 1.449 . S
C601 C600 1.399 . S
C601 H607 0.930 . S
H602 C582 0.931 . S
H603 C583 0.930 . S
H604 C591 0.931 . S
H605 C592 0.929 . S
H606 C600 0.929 . S
H607 C601 0.930 . S
H608 C620 0.930 . S
H609 C622 0.930 . S
H610 C623 0.930 . S
H611 C627 0.959 . S
H612 C627 0.959 . S
H613 C627 0.961 . S
H614 C628 0.960 . S
H615 C628 0.961 . S
H616 C628 0.959 . S
H617 C631 0.929 . S
H618 C632 0.931 1_554 S
H619 C634 0.930 . S
C620 H608 0.930 . S
C620 C621 1.399 . S
C620 C625 1.399 . S
C621 C620 1.399 . S
C621 C622 1.376 . S
C622 H609 0.930 . S
C622 C621 1.376 . S
C622 C623 1.388 . S
C623 H610 0.930 . S
C623 C622 1.388 . S
C623 C624 1.390 . S
C624 C623 1.390 . S
C624 C625 1.394 . S
C624 C630 1.465 . S
C625 C620 1.399 . S
C625 C624 1.394 . S
C625 C626 1.516 . S
C626 C625 1.516 . S
C626 C627 1.502 . S
C626 C628 1.561 . S
C626 C629 1.526 . S
C627 H611 0.959 . S
C627 H612 0.959 . S
C627 H613 0.961 . S
C627 C626 1.502 . S
C628 H614 0.960 . S
C628 H615 0.961 . S
C628 H616 0.959 . S
C628 C626 1.561 . S
C629 C626 1.526 . S
C629 C630 1.396 . S
C629 C634 1.390 . S
C630 C624 1.465 . S
C630 C629 1.396 . S
C630 C631 1.399 . S
C631 H617 0.929 . S
C631 C630 1.399 . S
C631 C632 1.385 . S
C632 H618 0.931 1_556 S
C632 C631 1.385 . S
C632 C633 1.389 . S
C633 C632 1.389 . S
C633 C634 1.387 . S
C634 H619 0.930 . S
C634 C629 1.390 . S
C634 C633 1.387 . S
H635 C647 0.930 . S
H636 C649 0.930 . S
H637 C650 0.930 . S
H638 C654 0.959 . S
H639 C654 0.959 . S
H640 C654 0.961 . S
H641 C655 0.960 . S
H642 C655 0.961 . S
H643 C655 0.959 . S
H644 C658 0.929 . S
H645 C659 0.931 . S
H646 C661 0.930 . S
C647 H635 0.930 . S
C647 C648 1.399 . S
C647 C652 1.399 . S
C648 C647 1.399 . S
C648 C649 1.376 . S
C649 H636 0.930 . S
C649 C648 1.376 . S
C649 C650 1.388 . S
C650 H637 0.930 . S
C650 C649 1.388 . S
C650 C651 1.390 . S
C651 C650 1.390 . S
C651 C652 1.394 . S
C651 C657 1.465 . S
C652 C647 1.399 . S
C652 C651 1.394 . S
C652 C653 1.516 . S
C653 C652 1.516 . S
C653 C654 1.502 . S
C653 C655 1.561 . S
C653 C656 1.526 . S
C654 H638 0.959 . S
C654 H639 0.959 . S
C654 H640 0.961 . S
C654 C653 1.502 . S
C655 H641 0.960 . S
C655 H642 0.961 . S
C655 H643 0.959 . S
C655 C653 1.561 . S
C656 C653 1.526 . S
C656 C657 1.396 . S
C656 C661 1.390 . S
C657 C651 1.465 . S
C657 C656 1.396 . S
C657 C658 1.399 . S
C658 H644 0.929 . S
C658 C657 1.399 . S
C658 C659 1.385 . S
C659 H645 0.931 . S
C659 C658 1.385 . S
C659 C660 1.389 . S
C660 C659 1.389 . S
C660 C661 1.387 . S
C661 H646 0.930 . S
C661 C656 1.390 . S
C661 C660 1.387 . S
H662 C674 0.930 . S
H663 C676 0.930 . S
H664 C677 0.930 . S
H665 C681 0.959 . S
H666 C681 0.959 . S
H667 C681 0.961 . S
H668 C682 0.960 . S
H669 C682 0.961 . S
H670 C682 0.959 . S
H671 C685 0.929 . S
H672 C686 0.931 . S
H673 C688 0.930 . S
C674 H662 0.930 . S
C674 C675 1.399 . S
C674 C679 1.399 . S
C675 C674 1.399 . S
C675 C676 1.376 . S
C676 H663 0.930 . S
C676 C675 1.376 . S
C676 C677 1.388 . S
C677 H664 0.930 . S
C677 C676 1.388 . S
C677 C678 1.390 . S
C678 C677 1.390 . S
C678 C679 1.394 . S
C678 C684 1.465 . S
C679 C674 1.399 . S
C679 C678 1.394 . S
C679 C680 1.516 . S
C680 C679 1.516 . S
C680 C681 1.502 . S
C680 C682 1.561 . S
C680 C683 1.526 . S
C681 H665 0.959 . S
C681 H666 0.959 . S
C681 H667 0.961 . S
C681 C680 1.502 . S
C682 H668 0.960 . S
C682 H669 0.961 . S
C682 H670 0.959 . S
C682 C680 1.561 . S
C683 C680 1.526 . S
C683 C684 1.396 . S
C683 C688 1.390 . S
C684 C678 1.465 . S
C684 C683 1.396 . S
C684 C685 1.399 . S
C685 H671 0.929 . S
C685 C684 1.399 . S
C685 C686 1.385 . S
C686 H672 0.931 . S
C686 C685 1.385 . S
C686 C687 1.389 . S
C687 C686 1.389 . S
C687 C688 1.387 . S
C688 H673 0.930 . S
C688 C683 1.390 . S
C688 C687 1.387 . S
H689 C701 0.930 . S
H690 C703 0.930 . S
H691 C704 0.930 . S
H692 C708 0.959 . S
H693 C708 0.959 . S
H694 C708 0.961 . S
H695 C709 0.960 . S
H696 C709 0.961 . S
H697 C709 0.959 . S
H698 C712 0.929 1_455 S
H699 C713 0.931 . S
H700 C715 0.930 . S
C701 H689 0.930 . S
C701 C702 1.399 1_545 S
C701 C706 1.399 . S
C702 C701 1.399 1_565 S
C702 C703 1.376 . S
C703 H690 0.930 . S
C703 C702 1.376 . S
C703 C704 1.388 . S
C704 H691 0.930 . S
C704 C703 1.388 . S
C704 C705 1.390 . S
C705 C704 1.390 . S
C705 C706 1.394 1_565 S
C705 C711 1.465 1_455 S
C706 C701 1.399 . S
C706 C705 1.394 1_545 S
C706 C707 1.516 1_455 S
C707 C706 1.516 1_655 S
C707 C708 1.502 . S
C707 C709 1.561 1_655 S
C707 C710 1.526 . S
C708 H692 0.959 . S
C708 H693 0.959 . S
C708 H694 0.961 . S
C708 C707 1.502 . S
C709 H695 0.960 . S
C709 H696 0.961 . S
C709 H697 0.959 . S
C709 C707 1.561 1_455 S
C710 C707 1.526 . S
C710 C711 1.397 1_545 S
C710 C715 1.390 . S
C711 C705 1.465 1_655 S
C711 C710 1.397 1_565 S
C711 C712 1.398 . S
C712 H698 0.929 1_655 S
C712 C711 1.398 . S
C712 C713 1.385 . S
C713 H699 0.931 . S
C713 C712 1.385 . S
C713 C714 1.389 1_565 S
C714 C713 1.389 1_545 S
C714 C715 1.387 . S
C715 H700 0.930 . S
C715 C710 1.390 . S
C715 C714 1.387 . S
H716 C728 0.930 . S
H717 C730 0.930 . S
H718 C731 0.930 . S
H719 C735 0.959 . S
H720 C735 0.959 . S
H721 C735 0.961 . S
H722 C736 0.960 . S
H723 C736 0.961 . S
H724 C736 0.959 . S
H725 C739 0.929 . S
H726 C740 0.931 . S
H727 C742 0.930 . S
C728 H716 0.930 . S
C728 C729 1.399 . S
C728 C733 1.399 . S
C729 C728 1.399 . S
C729 C730 1.376 . S
C730 H717 0.930 . S
C730 C729 1.376 . S
C730 C731 1.388 . S
C731 H718 0.930 . S
C731 C730 1.388 . S
C731 C732 1.390 . S
C732 C731 1.390 . S
C732 C733 1.394 . S
C732 C738 1.465 . S
C733 C728 1.399 . S
C733 C732 1.394 . S
C733 C734 1.516 . S
C734 C733 1.516 . S
C734 C735 1.502 . S
C734 C736 1.561 . S
C734 C737 1.526 . S
C735 H719 0.959 . S
C735 H720 0.959 . S
C735 H721 0.961 . S
C735 C734 1.502 . S
C736 H722 0.960 . S
C736 H723 0.961 . S
C736 H724 0.959 . S
C736 C734 1.561 . S
C737 C734 1.526 . S
C737 C738 1.396 . S
C737 C742 1.390 . S
C738 C732 1.465 . S
C738 C737 1.396 . S
C738 C739 1.399 . S
C739 H725 0.929 . S
C739 C738 1.399 . S
C739 C740 1.385 . S
C740 H726 0.931 . S
C740 C739 1.385 . S
C740 C741 1.389 . S
C741 C740 1.389 . S
C741 C742 1.387 . S
C742 H727 0.930 . S
C742 C737 1.390 . S
C742 C741 1.387 . S
H743 C755 0.930 . S
H744 C757 0.930 . S
H745 C758 0.930 . S
H746 C762 0.959 . S
H747 C762 0.959 . S
H748 C762 0.961 . S
H749 C763 0.960 . S
H750 C763 0.961 . S
H751 C763 0.959 . S
H752 C766 0.929 . S
H753 C767 0.931 . S
H754 C769 0.930 . S
C755 H743 0.930 . S
C755 C756 1.399 . S
C755 C760 1.399 . S
C756 C755 1.399 . S
C756 C757 1.376 . S
C757 H744 0.930 . S
C757 C756 1.376 . S
C757 C758 1.388 . S
C758 H745 0.930 . S
C758 C757 1.388 . S
C758 C759 1.390 . S
C759 C758 1.390 . S
C759 C760 1.394 . S
C759 C765 1.465 . S
C760 C755 1.399 . S
C760 C759 1.394 . S
C760 C761 1.516 . S
C761 C760 1.516 . S
C761 C762 1.502 . S
C761 C763 1.561 . S
C761 C764 1.526 . S
C762 H746 0.959 . S
C762 H747 0.959 . S
C762 H748 0.961 . S
C762 C761 1.502 . S
C763 H749 0.960 . S
C763 H750 0.961 . S
C763 H751 0.959 . S
C763 C761 1.561 . S
C764 C761 1.526 . S
C764 C765 1.396 . S
C764 C769 1.390 . S
C765 C759 1.465 . S
C765 C764 1.396 . S
C765 C766 1.399 . S
C766 H752 0.929 . S
C766 C765 1.399 . S
C766 C767 1.385 . S
C767 H753 0.931 . S
C767 C766 1.385 . S
C767 C768 1.389 . S
C768 C767 1.389 . S
C768 C769 1.387 . S
C769 H754 0.930 . S
C769 C764 1.390 . S
C769 C768 1.387 . S
H770 C782 0.930 . S
H771 C784 0.930 . S
H772 C785 0.930 . S
H773 C789 0.959 . S
H774 C789 0.959 . S
H775 C789 0.961 . S
H776 C790 0.960 . S
H777 C790 0.961 . S
H778 C790 0.959 . S
H779 C793 0.929 . S
H780 C794 0.931 . S
H781 C796 0.930 . S
C782 H770 0.930 . S
C782 C783 1.399 . S
C782 C787 1.399 . S
C783 C782 1.399 . S
C783 C784 1.376 . S
C784 H771 0.930 . S
C784 C783 1.376 . S
C784 C785 1.388 . S
C785 H772 0.930 . S
C785 C784 1.388 . S
C785 C786 1.390 . S
C786 C785 1.390 . S
C786 C787 1.394 . S
C786 C792 1.465 . S
C787 C782 1.399 . S
C787 C786 1.394 . S
C787 C788 1.516 . S
C788 C787 1.516 . S
C788 C789 1.502 . S
C788 C790 1.561 . S
C788 C791 1.526 . S
C789 H773 0.959 . S
C789 H774 0.959 . S
C789 H775 0.961 . S
C789 C788 1.502 . S
C790 H776 0.960 . S
C790 H777 0.961 . S
C790 H778 0.959 . S
C790 C788 1.561 . S
C791 C788 1.526 . S
C791 C792 1.396 . S
C791 C796 1.390 . S
C792 C786 1.465 . S
C792 C791 1.396 . S
C792 C793 1.399 . S
C793 H779 0.929 . S
C793 C792 1.399 . S
C793 C794 1.385 . S
C794 H780 0.931 . S
C794 C793 1.385 . S
C794 C795 1.389 . S
C795 C794 1.389 . S
C795 C796 1.387 . S
C796 H781 0.930 . S
C796 C791 1.390 . S
C796 C795 1.387 . S
H797 C809 0.930 . S
H798 C811 0.930 . S
H799 C812 0.930 . S
H800 C816 0.959 . S
H801 C816 0.959 . S
H802 C816 0.961 . S
H803 C817 0.960 . S
H804 C817 0.961 . S
H805 C817 0.959 . S
H806 C820 0.929 . S
H807 C821 0.931 . S
H808 C823 0.930 . S
C809 H797 0.930 . S
C809 C810 1.399 1_545 S
C809 C814 1.399 . S
C810 C809 1.399 1_565 S
C810 C811 1.376 . S
C811 H798 0.930 . S
C811 C810 1.376 . S
C811 C812 1.388 . S
C812 H799 0.930 . S
C812 C811 1.388 . S
C812 C813 1.390 . S
C813 C812 1.390 . S
C813 C814 1.394 1_565 S
C813 C819 1.465 . S
C814 C809 1.399 . S
C814 C813 1.394 1_545 S
C814 C815 1.516 . S
C815 C814 1.516 . S
C815 C816 1.502 . S
C815 C817 1.561 . S
C815 C818 1.526 . S
C816 H800 0.959 . S
C816 H801 0.959 . S
C816 H802 0.961 . S
C816 C815 1.502 . S
C817 H803 0.960 . S
C817 H804 0.961 . S
C817 H805 0.959 . S
C817 C815 1.561 . S
C818 C815 1.526 . S
C818 C819 1.396 1_545 S
C818 C823 1.390 . S
C819 C813 1.465 . S
C819 C818 1.396 1_565 S
C819 C820 1.399 . S
C820 H806 0.929 . S
C820 C819 1.399 . S
C820 C821 1.385 . S
C821 H807 0.931 . S
C821 C820 1.385 . S
C821 C822 1.389 . S
C822 C821 1.389 . S
C822 C823 1.387 1_565 S
C823 H808 0.930 . S
C823 C818 1.390 . S
C823 C822 1.387 1_545 S
H824 C836 0.930 . S
H825 C838 0.930 . S
H826 C839 0.930 . S
H827 C843 0.959 . S
H828 C843 0.959 . S
H829 C843 0.961 . S
H830 C844 0.960 . S
H831 C844 0.961 . S
H832 C844 0.959 . S
H833 C847 0.929 . S
H834 C848 0.931 . S
H835 C850 0.930 . S
C836 H824 0.930 . S
C836 C837 1.399 . S
C836 C841 1.399 . S
C837 C836 1.399 . S
C837 C838 1.376 . S
C838 H825 0.930 . S
C838 C837 1.376 . S
C838 C839 1.388 . S
C839 H826 0.930 . S
C839 C838 1.388 . S
C839 C840 1.390 . S
C840 C839 1.390 . S
C840 C841 1.394 . S
C840 C846 1.465 . S
C841 C836 1.399 . S
C841 C840 1.394 . S
C841 C842 1.516 . S
C842 C841 1.516 . S
C842 C843 1.502 . S
C842 C844 1.561 . S
C842 C845 1.526 . S
C843 H827 0.959 . S
C843 H828 0.959 . S
C843 H829 0.961 . S
C843 C842 1.502 . S
C844 H830 0.960 . S
C844 H831 0.961 . S
C844 H832 0.959 . S
C844 C842 1.561 . S
C845 C842 1.526 . S
C845 C846 1.396 . S
C845 C850 1.390 . S
C846 C840 1.465 . S
C846 C845 1.396 . S
C846 C847 1.399 . S
C847 H833 0.929 . S
C847 C846 1.399 . S
C847 C848 1.385 . S
C848 H834 0.931 . S
C848 C847 1.385 . S
C848 C849 1.389 . S
C849 C848 1.389 . S
C849 C850 1.387 . S
C850 H835 0.930 . S
C850 C845 1.390 . S
C850 C849 1.387 . S
H851 C863 0.930 . S
H852 C865 0.930 . S
H853 C866 0.930 . S
H854 C870 0.959 . S
H855 C870 0.959 . S
H856 C870 0.961 . S
H857 C871 0.960 . S
H858 C871 0.961 . S
H859 C871 0.959 . S
H860 C874 0.929 . S
H861 C875 0.931 . S
H862 C877 0.930 . S
C863 H851 0.930 . S
C863 C864 1.399 . S
C863 C868 1.399 . S
C864 C863 1.399 . S
C864 C865 1.376 . S
C865 H852 0.930 . S
C865 C864 1.376 . S
C865 C866 1.388 . S
C866 H853 0.930 . S
C866 C865 1.388 . S
C866 C867 1.390 . S
C867 C866 1.390 . S
C867 C868 1.394 . S
C867 C873 1.465 . S
C868 C863 1.399 . S
C868 C867 1.394 . S
C868 C869 1.516 . S
C869 C868 1.516 . S
C869 C870 1.502 . S
C869 C871 1.561 . S
C869 C872 1.526 . S
C870 H854 0.959 . S
C870 H855 0.959 . S
C870 H856 0.961 . S
C870 C869 1.502 . S
C871 H857 0.960 . S
C871 H858 0.961 . S
C871 H859 0.959 . S
C871 C869 1.561 . S
C872 C869 1.526 . S
C872 C873 1.396 . S
C872 C877 1.390 . S
C873 C867 1.465 . S
C873 C872 1.396 . S
C873 C874 1.399 . S
C874 H860 0.929 . S
C874 C873 1.399 . S
C874 C875 1.385 . S
C875 H861 0.931 . S
C875 C874 1.385 . S
C875 C876 1.389 . S
C876 C875 1.389 . S
C876 C877 1.387 . S
C877 H862 0.930 . S
C877 C872 1.390 . S
C877 C876 1.387 . S
H878 C890 0.930 . S
H879 C892 0.930 . S
H880 C893 0.930 . S
H881 C897 0.959 . S
H882 C897 0.959 . S
H883 C897 0.961 . S
H884 C898 0.960 . S
H885 C898 0.961 . S
H886 C898 0.959 . S
H887 C901 0.929 . S
H888 C902 0.931 . S
H889 C904 0.930 . S
C890 H878 0.930 . S
C890 C891 1.399 . S
C890 C895 1.399 . S
C891 C890 1.399 . S
C891 C892 1.376 . S
C892 H879 0.930 . S
C892 C891 1.376 . S
C892 C893 1.388 . S
C893 H880 0.930 . S
C893 C892 1.388 . S
C893 C894 1.390 . S
C894 C893 1.390 . S
C894 C895 1.394 . S
C894 C900 1.465 . S
C895 C890 1.399 . S
C895 C894 1.394 . S
C895 C896 1.516 . S
C896 C895 1.516 . S
C896 C897 1.502 . S
C896 C898 1.561 . S
C896 C899 1.526 . S
C897 H881 0.959 . S
C897 H882 0.959 . S
C897 H883 0.961 . S
C897 C896 1.502 . S
C898 H884 0.960 . S
C898 H885 0.961 . S
C898 H886 0.959 . S
C898 C896 1.561 . S
C899 C896 1.526 . S
C899 C900 1.396 . S
C899 C904 1.390 . S
C900 C894 1.465 . S
C900 C899 1.396 . S
C900 C901 1.399 . S
C901 H887 0.929 . S
C901 C900 1.399 . S
C901 C902 1.385 . S
C902 H888 0.931 . S
C902 C901 1.385 . S
C902 C903 1.389 . S
C903 C902 1.389 . S
C903 C904 1.387 . S
C904 H889 0.930 . S
C904 C899 1.390 . S
C904 C903 1.387 . S
H905 C917 0.930 . S
H906 C919 0.930 . S
H907 C920 0.930 . S
H908 C924 0.959 . S
H909 C924 0.959 . S
H910 C924 0.961 . S
H911 C925 0.960 . S
H912 C925 0.961 . S
H913 C925 0.959 . S
H914 C928 0.929 . S
H915 C929 0.931 . S
H916 C931 0.930 . S
C917 H905 0.930 . S
C917 C918 1.399 . S
C917 C922 1.399 . S
C918 C917 1.399 . S
C918 C919 1.376 . S
C919 H906 0.930 . S
C919 C918 1.376 . S
C919 C920 1.388 . S
C920 H907 0.930 . S
C920 C919 1.388 . S
C920 C921 1.390 . S
C921 C920 1.390 . S
C921 C922 1.394 . S
C921 C927 1.465 . S
C922 C917 1.399 . S
C922 C921 1.394 . S
C922 C923 1.516 . S
C923 C922 1.516 . S
C923 C924 1.502 . S
C923 C925 1.561 . S
C923 C926 1.526 . S
C924 H908 0.959 . S
C924 H909 0.959 . S
C924 H910 0.961 . S
C924 C923 1.502 . S
C925 H911 0.960 . S
C925 H912 0.961 . S
C925 H913 0.959 . S
C925 C923 1.561 . S
C926 C923 1.526 . S
C926 C927 1.396 . S
C926 C931 1.390 . S
C927 C921 1.465 . S
C927 C926 1.396 . S
C927 C928 1.399 . S
C928 H914 0.929 . S
C928 C927 1.399 . S
C928 C929 1.385 . S
C929 H915 0.931 . S
C929 C928 1.385 . S
C929 C930 1.389 . S
C930 C929 1.389 . S
C930 C931 1.387 . S
C931 H916 0.930 . S
C931 C926 1.390 . S
C931 C930 1.387 . S
H932 C944 0.930 . S
H933 C946 0.930 . S
H934 C947 0.930 . S
H935 C951 0.959 . S
H936 C951 0.959 . S
H937 C951 0.961 . S
H938 C952 0.960 . S
H939 C952 0.961 . S
H940 C952 0.959 . S
H941 C955 0.929 . S
H942 C956 0.931 . S
H943 C958 0.930 . S
C944 H932 0.930 . S
C944 C945 1.399 . S
C944 C949 1.399 . S
C945 C944 1.399 . S
C945 C946 1.376 . S
C946 H933 0.930 . S
C946 C945 1.376 . S
C946 C947 1.388 . S
C947 H934 0.930 . S
C947 C946 1.388 . S
C947 C948 1.390 . S
C948 C947 1.390 . S
C948 C949 1.394 . S
C948 C954 1.465 . S
C949 C944 1.399 . S
C949 C948 1.394 . S
C949 C950 1.516 . S
C950 C949 1.516 . S
C950 C951 1.502 . S
C950 C952 1.561 . S
C950 C953 1.526 . S
C951 H935 0.959 . S
C951 H936 0.959 . S
C951 H937 0.961 . S
C951 C950 1.502 . S
C952 H938 0.960 . S
C952 H939 0.961 . S
C952 H940 0.959 . S
C952 C950 1.561 . S
C953 C950 1.526 . S
C953 C954 1.396 . S
C953 C958 1.390 . S
C954 C948 1.465 . S
C954 C953 1.396 . S
C954 C955 1.399 . S
C955 H941 0.929 . S
C955 C954 1.399 . S
C955 C956 1.385 . S
C956 H942 0.931 . S
C956 C955 1.385 . S
C956 C957 1.389 . S
C957 C956 1.389 . S
C957 C958 1.387 . S
C958 H943 0.930 . S
C958 C953 1.390 . S
C958 C957 1.387 . S
H959 C971 0.930 . S
H960 C973 0.930 . S
H961 C974 0.930 . S
H962 C978 0.959 1_655 S
H963 C978 0.960 . S
H964 C978 0.961 . S
H965 C979 0.960 . S
H966 C979 0.961 . S
H967 C979 0.959 . S
H968 C982 0.929 . S
H969 C983 0.931 . S
H970 C985 0.930 . S
C971 H959 0.930 . S
C971 C972 1.399 . S
C971 C976 1.399 . S
C972 C971 1.399 . S
C972 C973 1.376 . S
C973 H960 0.930 . S
C973 C972 1.376 . S
C973 C974 1.388 . S
C974 H961 0.930 . S
C974 C973 1.388 . S
C974 C975 1.390 . S
C975 C974 1.390 . S
C975 C976 1.394 . S
C975 C981 1.465 . S
C976 C971 1.399 . S
C976 C975 1.394 . S
C976 C977 1.516 . S
C977 C976 1.516 . S
C977 C978 1.502 . S
C977 C979 1.561 . S
C977 C980 1.526 . S
C978 H962 0.959 1_455 S
C978 H963 0.960 . S
C978 H964 0.961 . S
C978 C977 1.502 . S
C979 H965 0.960 . S
C979 H966 0.961 . S
C979 H967 0.959 . S
C979 C977 1.561 . S
C980 C977 1.526 . S
C980 C981 1.396 . S
C980 C985 1.390 . S
C981 C975 1.465 . S
C981 C980 1.396 . S
C981 C982 1.399 . S
C982 H968 0.929 . S
C982 C981 1.399 . S
C982 C983 1.385 . S
C983 H969 0.931 . S
C983 C982 1.385 . S
C983 C984 1.389 . S
C984 C983 1.389 . S
C984 C985 1.387 . S
C985 H970 0.930 . S
C985 C980 1.390 . S
C985 C984 1.387 . S
H986 C998 0.930 . S
H987 C1000 0.930 . S
H988 C1001 0.930 . S
H989 C1005 0.959 . S
H990 C1005 0.959 . S
H991 C1005 0.961 . S
H992 C1006 0.960 . S
H993 C1006 0.961 . S
H994 C1006 0.959 . S
H995 C1009 0.929 . S
H996 C1010 0.931 . S
H997 C1012 0.930 . S
C998 H986 0.930 . S
C998 C999 1.399 . S
C998 C1003 1.399 . S
C999 C998 1.399 . S
C999 C1000 1.376 . S
C1000 H987 0.930 . S
C1000 C999 1.376 . S
C1000 C1001 1.388 . S
C1001 H988 0.930 . S
C1001 C1000 1.388 . S
C1001 C1002 1.390 . S
C1002 C1001 1.390 . S
C1002 C1003 1.394 . S
C1002 C1008 1.465 . S
C1003 C998 1.399 . S
C1003 C1002 1.394 . S
C1003 C1004 1.516 . S
C1004 C1003 1.516 . S
C1004 C1005 1.502 . S
C1004 C1006 1.561 . S
C1004 C1007 1.526 . S
C1005 H989 0.959 . S
C1005 H990 0.959 . S
C1005 H991 0.961 . S
C1005 C1004 1.502 . S
C1006 H992 0.960 . S
C1006 H993 0.961 . S
C1006 H994 0.959 . S
C1006 C1004 1.561 . S
C1007 C1004 1.526 . S
C1007 C1008 1.396 . S
C1007 C1012 1.390 . S
C1008 C1002 1.465 . S
C1008 C1007 1.396 . S
C1008 C1009 1.399 . S
C1009 H995 0.929 . S
C1009 C1008 1.399 . S
C1009 C1010 1.385 . S
C1010 H996 0.931 . S
C1010 C1009 1.385 . S
C1010 C1011 1.389 . S
C1011 C1010 1.389 . S
C1011 C1012 1.387 . S
C1012 H997 0.930 . S
C1012 C1007 1.390 . S
C1012 C1011 1.387 . S
H1013 C1025 0.930 . S
H1014 C1027 0.930 . S
H1015 C1028 0.930 . S
H1016 C1032 0.959 . S
H1017 C1032 0.959 . S
H1018 C1032 0.961 . S
H1019 C1033 0.960 . S
H1020 C1033 0.961 . S
H1021 C1033 0.951 1_455 S
H1022 C1036 0.929 . S
H1023 C1037 0.931 . S
H1024 C1039 0.930 . S
C1025 H1013 0.930 . S
C1025 C1026 1.375 1_655 S
C1025 C1030 1.399 . S
C1026 C1025 1.375 1_455 S
C1026 C1027 1.406 . S
C1027 H1014 0.930 . S
C1027 C1026 1.406 . S
C1027 C1028 1.388 . S
C1028 H1015 0.930 . S
C1028 C1027 1.388 . S
C1028 C1029 1.390 . S
C1029 C1028 1.390 . S
C1029 C1030 1.394 1_455 S
C1029 C1035 1.465 . S
C1030 C1025 1.399 . S
C1030 C1029 1.394 1_655 S
C1030 C1031 1.516 . S
C1031 C1030 1.516 . S
C1031 C1032 1.502 . S
C1031 C1033 1.561 . S
C1031 C1034 1.526 . S
C1032 H1016 0.959 . S
C1032 H1017 0.959 . S
C1032 H1018 0.961 . S
C1032 C1031 1.502 . S
C1033 H1019 0.960 . S
C1033 H1020 0.961 . S
C1033 H1021 0.951 1_655 S
C1033 C1031 1.561 . S
C1034 C1031 1.526 . S
C1034 C1035 1.396 1_655 S
C1034 C1039 1.390 . S
C1035 C1029 1.465 . S
C1035 C1034 1.396 1_455 S
C1035 C1036 1.399 . S
C1036 H1022 0.929 . S
C1036 C1035 1.399 . S
C1036 C1037 1.385 . S
C1037 H1023 0.931 . S
C1037 C1036 1.385 . S
C1037 C1038 1.389 . S
C1038 C1037 1.389 . S
C1038 C1039 1.387 1_455 S
C1039 H1024 0.930 . S
C1039 C1034 1.390 . S
C1039 C1038 1.387 1_655 S
H1040 C1052 0.930 . S
H1041 C1054 0.930 . S
H1042 C1055 0.930 . S
H1043 C1059 0.959 . S
H1044 C1059 0.959 . S
H1045 C1059 0.961 . S
H1046 C1060 0.960 . S
H1047 C1060 0.961 . S
H1048 C1060 0.959 . S
H1049 C1063 0.929 . S
H1050 C1064 0.931 . S
H1051 C1066 0.930 . S
C1052 H1040 0.930 . S
C1052 C1053 1.399 . S
C1052 C1057 1.399 . S
C1053 C1052 1.399 . S
C1053 C1054 1.376 . S
C1054 H1041 0.930 . S
C1054 C1053 1.376 . S
C1054 C1055 1.388 . S
C1055 H1042 0.930 . S
C1055 C1054 1.388 . S
C1055 C1056 1.390 . S
C1056 C1055 1.390 . S
C1056 C1057 1.394 . S
C1056 C1062 1.465 . S
C1057 C1052 1.399 . S
C1057 C1056 1.394 . S
C1057 C1058 1.516 . S
C1058 C1057 1.516 . S
C1058 C1059 1.502 . S
C1058 C1060 1.561 . S
C1058 C1061 1.526 . S
C1059 H1043 0.959 . S
C1059 H1044 0.959 . S
C1059 H1045 0.961 . S
C1059 C1058 1.502 . S
C1060 H1046 0.960 . S
C1060 H1047 0.961 . S
C1060 H1048 0.959 . S
C1060 C1058 1.561 . S
C1061 C1058 1.526 . S
C1061 C1062 1.396 . S
C1061 C1066 1.390 . S
C1062 C1056 1.465 . S
C1062 C1061 1.396 . S
C1062 C1063 1.399 . S
C1063 H1049 0.929 . S
C1063 C1062 1.399 . S
C1063 C1064 1.385 . S
C1064 H1050 0.931 . S
C1064 C1063 1.385 . S
C1064 C1065 1.389 . S
C1065 C1064 1.389 . S
C1065 C1066 1.387 . S
C1066 H1051 0.930 . S
C1066 C1061 1.390 . S
C1066 C1065 1.387 . S
H1067 C1079 0.930 . S
H1068 C1081 0.930 . S
H1069 C1082 0.930 . S
H1070 C1086 0.959 . S
H1071 C1086 0.959 . S
H1072 C1086 0.961 . S
H1073 C1087 0.960 . S
H1074 C1087 0.961 . S
H1075 C1087 0.959 . S
H1076 C1090 0.929 . S
H1077 C1091 0.931 . S
H1078 C1093 0.930 . S
C1079 H1067 0.930 . S
C1079 C1080 1.399 . S
C1079 C1084 1.399 . S
C1080 C1079 1.399 . S
C1080 C1081 1.376 . S
C1081 H1068 0.930 . S
C1081 C1080 1.376 . S
C1081 C1082 1.388 . S
C1082 H1069 0.930 . S
C1082 C1081 1.388 . S
C1082 C1083 1.390 . S
C1083 C1082 1.390 . S
C1083 C1084 1.394 . S
C1083 C1089 1.465 . S
C1084 C1079 1.399 . S
C1084 C1083 1.394 . S
C1084 C1085 1.516 . S
C1085 C1084 1.516 . S
C1085 C1086 1.502 . S
C1085 C1087 1.561 . S
C1085 C1088 1.526 . S
C1086 H1070 0.959 . S
C1086 H1071 0.959 . S
C1086 H1072 0.961 . S
C1086 C1085 1.502 . S
C1087 H1073 0.960 . S
C1087 H1074 0.961 . S
C1087 H1075 0.959 . S
C1087 C1085 1.561 . S
C1088 C1085 1.526 . S
C1088 C1089 1.396 . S
C1088 C1093 1.390 . S
C1089 C1083 1.465 . S
C1089 C1088 1.396 . S
C1089 C1090 1.399 . S
C1090 H1076 0.929 . S
C1090 C1089 1.399 . S
C1090 C1091 1.385 . S
C1091 H1077 0.931 . S
C1091 C1090 1.385 . S
C1091 C1092 1.389 . S
C1092 C1091 1.389 . S
C1092 C1093 1.387 . S
C1093 H1078 0.930 . S
C1093 C1088 1.390 . S
C1093 C1092 1.387 . S
H1094 C1106 0.930 . S
H1095 C1108 0.930 . S
H1096 C1109 0.930 . S
H1097 C1113 0.959 . S
H1098 C1113 0.959 . S
H1099 C1113 0.961 1_545 S
H1100 C1114 0.960 . S
H1101 C1114 0.961 . S
H1102 C1114 0.959 . S
H1103 C1117 0.929 . S
H1104 C1118 0.931 1_556 S
H1105 C1120 0.930 . S
C1106 H1094 0.930 . S
C1106 C1107 1.399 1_554 S
C1106 C1111 1.399 1_545 S
C1107 C1106 1.399 1_556 S
C1107 C1108 1.376 1_545 S
C1108 H1095 0.930 . S
C1108 C1107 1.376 1_565 S
C1108 C1109 1.388 . S
C1109 H1096 0.930 . S
C1109 C1108 1.388 . S
C1109 C1110 1.390 . S
C1110 C1109 1.390 . S
C1110 C1111 1.394 1_556 S
C1110 C1116 1.465 1_556 S
C1111 C1106 1.399 1_565 S
C1111 C1110 1.394 1_554 S
C1111 C1112 1.516 . S
C1112 C1111 1.516 . S
C1112 C1113 1.502 . S
C1112 C1114 1.561 1_565 S
C1112 C1115 1.526 . S
C1113 H1097 0.959 . S
C1113 H1098 0.959 . S
C1113 H1099 0.961 1_565 S
C1113 C1112 1.502 . S
C1114 H1100 0.960 . S
C1114 H1101 0.961 . S
C1114 H1102 0.959 . S
C1114 C1112 1.561 1_545 S
C1115 C1112 1.526 . S
C1115 C1116 1.396 . S
C1115 C1120 1.390 . S
C1116 C1110 1.465 1_554 S
C1116 C1115 1.396 . S
C1116 C1117 1.399 1_554 S
C1117 H1103 0.929 . S
C1117 C1116 1.399 1_556 S
C1117 C1118 1.385 1_556 S
C1118 H1104 0.931 1_554 S
C1118 C1117 1.385 1_554 S
C1118 C1119 1.389 . S
C1119 C1118 1.389 . S
C1119 C1120 1.387 . S
C1120 H1105 0.930 . S
C1120 C1115 1.390 . S
C1120 C1119 1.387 . S
H1121 C1133 0.930 . S
H1122 C1135 0.930 . S
H1123 C1136 0.930 . S
H1124 C1140 0.959 . S
H1125 C1140 0.959 . S
H1126 C1140 0.961 . S
H1127 C1141 0.960 . S
H1128 C1141 0.961 . S
H1129 C1141 0.959 . S
H1130 C1144 0.929 . S
H1131 C1145 0.931 . S
H1132 C1147 0.930 . S
C1133 H1121 0.930 . S
C1133 C1134 1.399 . S
C1133 C1138 1.399 . S
C1134 C1133 1.399 . S
C1134 C1135 1.376 . S
C1135 H1122 0.930 . S
C1135 C1134 1.376 . S
C1135 C1136 1.388 . S
C1136 H1123 0.930 . S
C1136 C1135 1.388 . S
C1136 C1137 1.390 . S
C1137 C1136 1.390 . S
C1137 C1138 1.394 . S
C1137 C1143 1.465 . S
C1138 C1133 1.399 . S
C1138 C1137 1.394 . S
C1138 C1139 1.516 . S
C1139 C1138 1.516 . S
C1139 C1140 1.502 . S
C1139 C1141 1.561 . S
C1139 C1142 1.526 . S
C1140 H1124 0.959 . S
C1140 H1125 0.959 . S
C1140 H1126 0.961 . S
C1140 C1139 1.502 . S
C1141 H1127 0.960 . S
C1141 H1128 0.961 . S
C1141 H1129 0.959 . S
C1141 C1139 1.561 . S
C1142 C1139 1.526 . S
C1142 C1143 1.396 . S
C1142 C1147 1.390 . S
C1143 C1137 1.465 . S
C1143 C1142 1.396 . S
C1143 C1144 1.399 . S
C1144 H1130 0.929 . S
C1144 C1143 1.399 . S
C1144 C1145 1.385 . S
C1145 H1131 0.931 . S
C1145 C1144 1.385 . S
C1145 C1146 1.389 . S
C1146 C1145 1.389 . S
C1146 C1147 1.387 . S
C1147 H1132 0.930 . S
C1147 C1142 1.390 . S
C1147 C1146 1.387 . S
H1148 C1160 0.930 . S
H1149 C1162 0.930 . S
H1150 C1163 0.930 . S
H1151 C1167 0.959 . S
H1152 C1167 0.959 . S
H1153 C1167 0.961 . S
H1154 C1168 0.960 . S
H1155 C1168 0.961 . S
H1156 C1168 0.959 . S
H1157 C1171 0.929 . S
H1158 C1172 0.931 . S
H1159 C1174 0.930 . S
C1160 H1148 0.930 . S
C1160 C1161 1.399 . S
C1160 C1165 1.399 . S
C1161 C1160 1.399 . S
C1161 C1162 1.376 . S
C1162 H1149 0.930 . S
C1162 C1161 1.376 . S
C1162 C1163 1.388 . S
C1163 H1150 0.930 . S
C1163 C1162 1.388 . S
C1163 C1164 1.390 . S
C1164 C1163 1.390 . S
C1164 C1165 1.394 . S
C1164 C1170 1.465 . S
C1165 C1160 1.399 . S
C1165 C1164 1.394 . S
C1165 C1166 1.516 . S
C1166 C1165 1.516 . S
C1166 C1167 1.502 . S
C1166 C1168 1.561 . S
C1166 C1169 1.526 . S
C1167 H1151 0.959 . S
C1167 H1152 0.959 . S
C1167 H1153 0.961 . S
C1167 C1166 1.502 . S
C1168 H1154 0.960 . S
C1168 H1155 0.961 . S
C1168 H1156 0.959 . S
C1168 C1166 1.561 . S
C1169 C1166 1.526 . S
C1169 C1170 1.396 . S
C1169 C1174 1.390 . S
C1170 C1164 1.465 . S
C1170 C1169 1.396 . S
C1170 C1171 1.399 . S
C1171 H1157 0.929 . S
C1171 C1170 1.399 . S
C1171 C1172 1.385 . S
C1172 H1158 0.931 . S
C1172 C1171 1.385 . S
C1172 C1173 1.389 . S
C1173 C1172 1.389 . S
C1173 C1174 1.387 . S
C1174 H1159 0.930 . S
C1174 C1169 1.390 . S
C1174 C1173 1.387 . S
H1175 C1187 0.930 . S
H1176 C1189 0.930 . S
H1177 C1190 0.930 . S
H1178 C1194 0.959 . S
H1179 C1194 0.959 . S
H1180 C1194 0.961 . S
H1181 C1195 0.960 . S
H1182 C1195 0.961 . S
H1183 C1195 0.959 . S
H1184 C1198 0.929 . S
H1185 C1199 0.931 . S
H1186 C1201 0.930 . S
C1187 H1175 0.930 . S
C1187 C1188 1.399 . S
C1187 C1192 1.399 . S
C1188 C1187 1.399 . S
C1188 C1189 1.376 . S
C1189 H1176 0.930 . S
C1189 C1188 1.376 . S
C1189 C1190 1.388 . S
C1190 H1177 0.930 . S
C1190 C1189 1.388 . S
C1190 C1191 1.390 . S
C1191 C1190 1.390 . S
C1191 C1192 1.394 . S
C1191 C1197 1.465 . S
C1192 C1187 1.399 . S
C1192 C1191 1.394 . S
C1192 C1193 1.516 . S
C1193 C1192 1.516 . S
C1193 C1194 1.502 . S
C1193 C1195 1.561 . S
C1193 C1196 1.526 . S
C1194 H1178 0.959 . S
C1194 H1179 0.959 . S
C1194 H1180 0.961 . S
C1194 C1193 1.502 . S
C1195 H1181 0.960 . S
C1195 H1182 0.961 . S
C1195 H1183 0.959 . S
C1195 C1193 1.561 . S
C1196 C1193 1.526 . S
C1196 C1197 1.396 . S
C1196 C1201 1.390 . S
C1197 C1191 1.465 . S
C1197 C1196 1.396 . S
C1197 C1198 1.399 . S
C1198 H1184 0.929 . S
C1198 C1197 1.399 . S
C1198 C1199 1.385 . S
C1199 H1185 0.931 . S
C1199 C1198 1.385 . S
C1199 C1200 1.389 . S
C1200 C1199 1.389 . S
C1200 C1201 1.387 . S
C1201 H1186 0.930 . S
C1201 C1196 1.390 . S
C1201 C1200 1.387 . S
H1202 C1214 0.930 . S
H1203 C1216 0.930 . S
H1204 C1217 0.930 . S
H1205 C1221 0.959 . S
H1206 C1221 0.959 . S
H1207 C1221 0.961 . S
H1208 C1222 0.960 . S
H1209 C1222 0.961 . S
H1210 C1222 0.959 . S
H1211 C1225 0.929 . S
H1212 C1226 0.931 . S
H1213 C1228 0.930 . S
C1214 H1202 0.930 . S
C1214 C1215 1.399 . S
C1214 C1219 1.399 . S
C1215 C1214 1.399 . S
C1215 C1216 1.376 . S
C1216 H1203 0.930 . S
C1216 C1215 1.376 . S
C1216 C1217 1.388 . S
C1217 H1204 0.930 . S
C1217 C1216 1.388 . S
C1217 C1218 1.390 . S
C1218 C1217 1.390 . S
C1218 C1219 1.394 . S
C1218 C1224 1.465 . S
C1219 C1214 1.399 . S
C1219 C1218 1.394 . S
C1219 C1220 1.516 . S
C1220 C1219 1.516 . S
C1220 C1221 1.502 . S
C1220 C1222 1.561 . S
C1220 C1223 1.526 . S
C1221 H1205 0.959 . S
C1221 H1206 0.959 . S
C1221 H1207 0.961 . S
C1221 C1220 1.502 . S
C1222 H1208 0.960 . S
C1222 H1209 0.961 . S
C1222 H1210 0.959 . S
C1222 C1220 1.561 . S
C1223 C1220 1.526 . S
C1223 C1224 1.396 . S
C1223 C1228 1.390 . S
C1224 C1218 1.465 . S
C1224 C1223 1.396 . S
C1224 C1225 1.399 . S
C1225 H1211 0.929 . S
C1225 C1224 1.399 . S
C1225 C1226 1.385 . S
C1226 H1212 0.931 . S
C1226 C1225 1.385 . S
C1226 C1227 1.389 . S
C1227 C1226 1.389 . S
C1227 C1228 1.387 . S
C1228 H1213 0.930 . S
C1228 C1223 1.390 . S
C1228 C1227 1.387 . S
H1229 C1241 0.930 . S
H1230 C1243 0.930 . S
H1231 C1244 0.930 . S
H1232 C1248 0.959 . S
H1233 C1248 0.959 . S
H1234 C1248 0.961 . S
H1235 C1249 0.960 . S
H1236 C1249 0.961 . S
H1237 C1249 0.959 . S
H1238 C1252 0.929 . S
H1239 C1253 0.931 . S
H1240 C1255 0.930 . S
C1241 H1229 0.930 . S
C1241 C1242 1.399 . S
C1241 C1246 1.399 . S
C1242 C1241 1.399 . S
C1242 C1243 1.376 . S
C1243 H1230 0.930 . S
C1243 C1242 1.376 . S
C1243 C1244 1.388 . S
C1244 H1231 0.930 . S
C1244 C1243 1.388 . S
C1244 C1245 1.390 . S
C1245 C1244 1.390 . S
C1245 C1246 1.394 . S
C1245 C1251 1.465 . S
C1246 C1241 1.399 . S
C1246 C1245 1.394 . S
C1246 C1247 1.516 . S
C1247 C1246 1.516 . S
C1247 C1248 1.502 . S
C1247 C1249 1.561 . S
C1247 C1250 1.526 . S
C1248 H1232 0.959 . S
C1248 H1233 0.959 . S
C1248 H1234 0.961 . S
C1248 C1247 1.502 . S
C1249 H1235 0.960 . S
C1249 H1236 0.961 . S
C1249 H1237 0.959 . S
C1249 C1247 1.561 . S
C1250 C1247 1.526 . S
C1250 C1251 1.396 . S
C1250 C1255 1.390 . S
C1251 C1245 1.465 . S
C1251 C1250 1.396 . S
C1251 C1252 1.399 . S
C1252 H1238 0.929 . S
C1252 C1251 1.399 . S
C1252 C1253 1.385 . S
C1253 H1239 0.931 . S
C1253 C1252 1.385 . S
C1253 C1254 1.389 . S
C1254 C1253 1.389 . S
C1254 C1255 1.387 . S
C1255 H1240 0.930 . S
C1255 C1250 1.390 . S
C1255 C1254 1.387 . S
H1256 C1268 0.930 . S
H1257 C1270 0.930 . S
H1258 C1271 0.930 . S
H1259 C1275 0.959 . S
H1260 C1275 0.959 . S
H1261 C1275 0.961 . S
H1262 C1276 0.960 . S
H1263 C1276 0.961 . S
H1264 C1276 0.959 . S
H1265 C1279 0.929 . S
H1266 C1280 0.931 . S
H1267 C1282 0.930 . S
C1268 H1256 0.930 . S
C1268 C1269 1.399 . S
C1268 C1273 1.399 . S
C1269 C1268 1.399 . S
C1269 C1270 1.376 . S
C1270 H1257 0.930 . S
C1270 C1269 1.376 . S
C1270 C1271 1.388 . S
C1271 H1258 0.930 . S
C1271 C1270 1.388 . S
C1271 C1272 1.390 . S
C1272 C1271 1.390 . S
C1272 C1273 1.394 . S
C1272 C1278 1.465 . S
C1273 C1268 1.399 . S
C1273 C1272 1.394 . S
C1273 C1274 1.516 . S
C1274 C1273 1.516 . S
C1274 C1275 1.502 . S
C1274 C1276 1.561 . S
C1274 C1277 1.526 . S
C1275 H1259 0.959 . S
C1275 H1260 0.959 . S
C1275 H1261 0.961 . S
C1275 C1274 1.502 . S
C1276 H1262 0.960 . S
C1276 H1263 0.961 . S
C1276 H1264 0.959 . S
C1276 C1274 1.561 . S
C1277 C1274 1.526 . S
C1277 C1278 1.396 . S
C1277 C1282 1.390 . S
C1278 C1272 1.465 . S
C1278 C1277 1.396 . S
C1278 C1279 1.399 . S
C1279 H1265 0.929 . S
C1279 C1278 1.399 . S
C1279 C1280 1.385 . S
C1280 H1266 0.931 . S
C1280 C1279 1.385 . S
C1280 C1281 1.389 . S
C1281 C1280 1.389 . S
C1281 C1282 1.387 . S
C1282 H1267 0.930 . S
C1282 C1277 1.390 . S
C1282 C1281 1.387 . S
H1283 C1295 0.930 1_565 S
H1284 C1297 0.930 . S
H1285 C1298 0.930 . S
H1286 C1302 0.959 . S
H1287 C1302 0.959 . S
H1288 C1302 0.961 . S
H1289 C1303 0.960 . S
H1290 C1303 0.961 . S
H1291 C1303 0.959 . S
H1292 C1306 0.929 . S
H1293 C1307 0.931 . S
H1294 C1309 0.930 . S
C1295 H1283 0.930 1_545 S
C1295 C1296 1.399 . S
C1295 C1300 1.399 . S
C1296 C1295 1.399 . S
C1296 C1297 1.376 . S
C1297 H1284 0.930 . S
C1297 C1296 1.376 . S
C1297 C1298 1.388 . S
C1298 H1285 0.930 . S
C1298 C1297 1.388 . S
C1298 C1299 1.390 . S
C1299 C1298 1.390 . S
C1299 C1300 1.394 . S
C1299 C1305 1.465 . S
C1300 C1295 1.399 . S
C1300 C1299 1.394 . S
C1300 C1301 1.516 1_545 S
C1301 C1300 1.516 1_565 S
C1301 C1302 1.502 . S
C1301 C1303 1.561 . S
C1301 C1304 1.526 1_565 S
C1302 H1286 0.959 . S
C1302 H1287 0.959 . S
C1302 H1288 0.961 . S
C1302 C1301 1.502 . S
C1303 H1289 0.960 . S
C1303 H1290 0.961 . S
C1303 H1291 0.959 . S
C1303 C1301 1.561 . S
C1304 C1301 1.526 1_545 S
C1304 C1305 1.396 . S
C1304 C1309 1.390 1_545 S
C1305 C1299 1.465 . S
C1305 C1304 1.396 . S
C1305 C1306 1.399 . S
C1306 H1292 0.929 . S
C1306 C1305 1.399 . S
C1306 C1307 1.385 . S
C1307 H1293 0.931 . S
C1307 C1306 1.385 . S
C1307 C1308 1.389 . S
C1308 C1307 1.389 . S
C1308 C1309 1.387 1_545 S
C1309 H1294 0.930 . S
C1309 C1304 1.390 1_565 S
C1309 C1308 1.387 1_565 S
H1310 C1322 0.930 . S
H1311 C1324 0.930 . S
H1312 C1325 0.930 . S
H1313 C1329 0.959 . S
H1314 C1329 0.959 . S
H1315 C1329 0.961 . S
H1316 C1330 0.960 . S
H1317 C1330 0.961 . S
H1318 C1330 0.959 . S
H1319 C1333 0.929 . S
H1320 C1334 0.931 . S
H1321 C1336 0.930 . S
C1322 H1310 0.930 . S
C1322 C1323 1.399 . S
C1322 C1327 1.399 . S
C1323 C1322 1.399 . S
C1323 C1324 1.376 . S
C1324 H1311 0.930 . S
C1324 C1323 1.376 . S
C1324 C1325 1.388 . S
C1325 H1312 0.930 . S
C1325 C1324 1.388 . S
C1325 C1326 1.390 . S
C1326 C1325 1.390 . S
C1326 C1327 1.394 . S
C1326 C1332 1.465 . S
C1327 C1322 1.399 . S
C1327 C1326 1.394 . S
C1327 C1328 1.516 . S
C1328 C1327 1.516 . S
C1328 C1329 1.502 . S
C1328 C1330 1.561 . S
C1328 C1331 1.526 . S
C1329 H1313 0.959 . S
C1329 H1314 0.959 . S
C1329 H1315 0.961 . S
C1329 C1328 1.502 . S
C1330 H1316 0.960 . S
C1330 H1317 0.961 . S
C1330 H1318 0.959 . S
C1330 C1328 1.561 . S
C1331 C1328 1.526 . S
C1331 C1332 1.396 . S
C1331 C1336 1.390 . S
C1332 C1326 1.465 . S
C1332 C1331 1.396 . S
C1332 C1333 1.399 . S
C1333 H1319 0.929 . S
C1333 C1332 1.399 . S
C1333 C1334 1.385 . S
C1334 H1320 0.931 . S
C1334 C1333 1.385 . S
C1334 C1335 1.389 . S
C1335 C1334 1.389 . S
C1335 C1336 1.387 . S
C1336 H1321 0.930 . S
C1336 C1331 1.390 . S
C1336 C1335 1.387 . S
H1337 C1349 0.930 . S
H1338 C1351 0.930 . S
H1339 C1352 0.930 . S
H1340 C1356 0.959 . S
H1341 C1356 0.959 . S
H1342 C1356 0.961 . S
H1343 C1357 0.960 . S
H1344 C1357 0.961 . S
H1345 C1357 0.959 . S
H1346 C1360 0.929 . S
H1347 C1361 0.931 . S
H1348 C1363 0.930 . S
C1349 H1337 0.930 . S
C1349 C1350 1.399 . S
C1349 C1354 1.399 . S
C1350 C1349 1.399 . S
C1350 C1351 1.376 . S
C1351 H1338 0.930 . S
C1351 C1350 1.376 . S
C1351 C1352 1.388 . S
C1352 H1339 0.930 . S
C1352 C1351 1.388 . S
C1352 C1353 1.390 . S
C1353 C1352 1.390 . S
C1353 C1354 1.394 . S
C1353 C1359 1.465 . S
C1354 C1349 1.399 . S
C1354 C1353 1.394 . S
C1354 C1355 1.516 . S
C1355 C1354 1.516 . S
C1355 C1356 1.502 . S
C1355 C1357 1.561 . S
C1355 C1358 1.526 . S
C1356 H1340 0.959 . S
C1356 H1341 0.959 . S
C1356 H1342 0.961 . S
C1356 C1355 1.502 . S
C1357 H1343 0.960 . S
C1357 H1344 0.961 . S
C1357 H1345 0.959 . S
C1357 C1355 1.561 . S
C1358 C1355 1.526 . S
C1358 C1359 1.396 . S
C1358 C1363 1.390 . S
C1359 C1353 1.465 . S
C1359 C1358 1.396 . S
C1359 C1360 1.399 . S
C1360 H1346 0.929 . S
C1360 C1359 1.399 . S
C1360 C1361 1.385 . S
C1361 H1347 0.931 . S
C1361 C1360 1.385 . S
C1361 C1362 1.389 . S
C1362 C1361 1.389 . S
C1362 C1363 1.387 . S
C1363 H1348 0.930 . S
C1363 C1358 1.390 . S
C1363 C1362 1.387 . S
H1364 C1376 0.930 . S
H1365 C1378 0.930 . S
H1366 C1379 0.930 . S
H1367 C1383 0.959 . S
H1368 C1383 0.959 . S
H1369 C1383 0.961 . S
H1370 C1384 0.960 . S
H1371 C1384 0.961 . S
H1372 C1384 0.959 . S
H1373 C1387 0.929 . S
H1374 C1388 0.931 . S
H1375 C1390 0.930 . S
C1376 H1364 0.930 . S
C1376 C1377 1.399 . S
C1376 C1381 1.399 . S
C1377 C1376 1.399 . S
C1377 C1378 1.376 . S
C1378 H1365 0.930 . S
C1378 C1377 1.376 . S
C1378 C1379 1.388 . S
C1379 H1366 0.930 . S
C1379 C1378 1.388 . S
C1379 C1380 1.390 . S
C1380 C1379 1.390 . S
C1380 C1381 1.394 . S
C1380 C1386 1.465 . S
C1381 C1376 1.399 . S
C1381 C1380 1.394 . S
C1381 C1382 1.516 . S
C1382 C1381 1.516 . S
C1382 C1383 1.502 . S
C1382 C1384 1.561 . S
C1382 C1385 1.526 . S
C1383 H1367 0.959 . S
C1383 H1368 0.959 . S
C1383 H1369 0.961 . S
C1383 C1382 1.502 . S
C1384 H1370 0.960 . S
C1384 H1371 0.961 . S
C1384 H1372 0.959 . S
C1384 C1382 1.561 . S
C1385 C1382 1.526 . S
C1385 C1386 1.396 . S
C1385 C1390 1.390 . S
C1386 C1380 1.465 . S
C1386 C1385 1.396 . S
C1386 C1387 1.399 . S
C1387 H1373 0.929 . S
C1387 C1386 1.399 . S
C1387 C1388 1.385 . S
C1388 H1374 0.931 . S
C1388 C1387 1.385 . S
C1388 C1389 1.389 . S
C1389 C1388 1.389 . S
C1389 C1390 1.387 . S
C1390 H1375 0.930 . S
C1390 C1385 1.390 . S
C1390 C1389 1.387 . S
H1391 C1403 0.929 . S
H1392 C1405 0.930 . S
H1393 C1406 0.930 . S
H1394 C1410 0.959 . S
H1395 C1410 0.959 . S
H1396 C1410 0.961 . S
H1397 C1411 0.960 . S
H1398 C1411 0.961 . S
H1399 C1411 0.959 1_545 S
H1400 C1414 0.929 . S
H1401 C1415 0.931 . S
H1402 C1417 0.930 1_565 S
C1403 H1391 0.929 . S
C1403 C1404 1.399 . S
C1403 C1408 1.399 . S
C1404 C1403 1.399 . S
C1404 C1405 1.376 . S
C1405 H1392 0.930 . S
C1405 C1404 1.376 . S
C1405 C1406 1.388 . S
C1406 H1393 0.930 . S
C1406 C1405 1.388 . S
C1406 C1407 1.390 . S
C1407 C1406 1.390 . S
C1407 C1408 1.394 . S
C1407 C1413 1.465 1_455 S
C1408 C1403 1.399 . S
C1408 C1407 1.394 . S
C1408 C1409 1.516 . S
C1409 C1408 1.516 . S
C1409 C1410 1.502 1_445 S
C1409 C1411 1.561 1_545 S
C1409 C1412 1.526 1_455 S
C1410 H1394 0.959 . S
C1410 H1395 0.959 . S
C1410 H1396 0.961 . S
C1410 C1409 1.502 1_665 S
C1411 H1397 0.960 . S
C1411 H1398 0.961 . S
C1411 H1399 0.959 1_565 S
C1411 C1409 1.561 1_565 S
C1412 C1409 1.526 1_655 S
C1412 C1413 1.396 . S
C1412 C1417 1.390 . S
C1413 C1407 1.465 1_655 S
C1413 C1412 1.396 . S
C1413 C1414 1.399 . S
C1414 H1400 0.929 . S
C1414 C1413 1.399 . S
C1414 C1415 1.385 . S
C1415 H1401 0.931 . S
C1415 C1414 1.385 . S
C1415 C1416 1.389 . S
C1416 C1415 1.389 . S
C1416 C1417 1.387 . S
C1417 H1402 0.930 1_545 S
C1417 C1412 1.390 . S
C1417 C1416 1.387 . S
H1418 C1430 0.930 . S
H1419 C1432 0.930 . S
H1420 C1433 0.930 . S
H1421 C1437 0.959 . S
H1422 C1437 0.959 . S
H1423 C1437 0.961 . S
H1424 C1438 0.960 . S
H1425 C1438 0.961 . S
H1426 C1438 0.959 . S
H1427 C1441 0.929 . S
H1428 C1442 0.931 . S
H1429 C1444 0.930 . S
C1430 H1418 0.930 . S
C1430 C1431 1.399 . S
C1430 C1435 1.399 . S
C1431 C1430 1.399 . S
C1431 C1432 1.376 . S
C1432 H1419 0.930 . S
C1432 C1431 1.376 . S
C1432 C1433 1.388 . S
C1433 H1420 0.930 . S
C1433 C1432 1.388 . S
C1433 C1434 1.390 . S
C1434 C1433 1.390 . S
C1434 C1435 1.394 . S
C1434 C1440 1.465 . S
C1435 C1430 1.399 . S
C1435 C1434 1.394 . S
C1435 C1436 1.516 . S
C1436 C1435 1.516 . S
C1436 C1437 1.502 . S
C1436 C1438 1.561 . S
C1436 C1439 1.526 . S
C1437 H1421 0.959 . S
C1437 H1422 0.959 . S
C1437 H1423 0.961 . S
C1437 C1436 1.502 . S
C1438 H1424 0.960 . S
C1438 H1425 0.961 . S
C1438 H1426 0.959 . S
C1438 C1436 1.561 . S
C1439 C1436 1.526 . S
C1439 C1440 1.396 . S
C1439 C1444 1.390 . S
C1440 C1434 1.465 . S
C1440 C1439 1.396 . S
C1440 C1441 1.399 . S
C1441 H1427 0.929 . S
C1441 C1440 1.399 . S
C1441 C1442 1.385 . S
C1442 H1428 0.931 . S
C1442 C1441 1.385 . S
C1442 C1443 1.389 . S
C1443 C1442 1.389 . S
C1443 C1444 1.387 . S
C1444 H1429 0.930 . S
C1444 C1439 1.390 . S
C1444 C1443 1.387 . S
H1445 C1457 0.930 . S
H1446 C1459 0.930 . S
H1447 C1460 0.930 . S
H1448 C1464 0.959 . S
H1449 C1464 0.959 . S
H1450 C1464 0.961 . S
H1451 C1465 0.960 . S
H1452 C1465 0.961 . S
H1453 C1465 0.959 . S
H1454 C1468 0.929 . S
H1455 C1469 0.931 . S
H1456 C1471 0.930 . S
C1457 H1445 0.930 . S
C1457 C1458 1.399 . S
C1457 C1462 1.399 . S
C1458 C1457 1.399 . S
C1458 C1459 1.376 . S
C1459 H1446 0.930 . S
C1459 C1458 1.376 . S
C1459 C1460 1.388 . S
C1460 H1447 0.930 . S
C1460 C1459 1.388 . S
C1460 C1461 1.390 . S
C1461 C1460 1.390 . S
C1461 C1462 1.394 . S
C1461 C1467 1.465 . S
C1462 C1457 1.399 . S
C1462 C1461 1.394 . S
C1462 C1463 1.516 . S
C1463 C1462 1.516 . S
C1463 C1464 1.502 . S
C1463 C1465 1.561 . S
C1463 C1466 1.526 . S
C1464 H1448 0.959 . S
C1464 H1449 0.959 . S
C1464 H1450 0.961 . S
C1464 C1463 1.502 . S
C1465 H1451 0.960 . S
C1465 H1452 0.961 . S
C1465 H1453 0.959 . S
C1465 C1463 1.561 . S
C1466 C1463 1.526 . S
C1466 C1467 1.396 . S
C1466 C1471 1.390 . S
C1467 C1461 1.465 . S
C1467 C1466 1.396 . S
C1467 C1468 1.399 . S
C1468 H1454 0.929 . S
C1468 C1467 1.399 . S
C1468 C1469 1.385 . S
C1469 H1455 0.931 . S
C1469 C1468 1.385 . S
C1469 C1470 1.389 . S
C1470 C1469 1.389 . S
C1470 C1471 1.387 . S
C1471 H1456 0.930 . S
C1471 C1466 1.390 . S
C1471 C1470 1.387 . S
H1472 C1484 0.930 . S
H1473 C1486 0.930 . S
H1474 C1487 0.930 . S
H1475 C1491 0.959 . S
H1476 C1491 0.959 . S
H1477 C1491 0.961 . S
H1478 C1492 0.960 . S
H1479 C1492 0.961 . S
H1480 C1492 0.959 . S
H1481 C1495 0.929 . S
H1482 C1496 0.931 . S
H1483 C1498 0.930 . S
C1484 H1472 0.930 . S
C1484 C1485 1.399 . S
C1484 C1489 1.399 . S
C1485 C1484 1.399 . S
C1485 C1486 1.376 . S
C1486 H1473 0.930 . S
C1486 C1485 1.376 . S
C1486 C1487 1.388 . S
C1487 H1474 0.930 . S
C1487 C1486 1.388 . S
C1487 C1488 1.390 . S
C1488 C1487 1.390 . S
C1488 C1489 1.394 . S
C1488 C1494 1.465 . S
C1489 C1484 1.399 . S
C1489 C1488 1.394 . S
C1489 C1490 1.516 . S
C1490 C1489 1.516 . S
C1490 C1491 1.502 . S
C1490 C1492 1.561 . S
C1490 C1493 1.526 . S
C1491 H1475 0.959 . S
C1491 H1476 0.959 . S
C1491 H1477 0.961 . S
C1491 C1490 1.502 . S
C1492 H1478 0.960 . S
C1492 H1479 0.961 . S
C1492 H1480 0.959 . S
C1492 C1490 1.561 . S
C1493 C1490 1.526 . S
C1493 C1494 1.396 . S
C1493 C1498 1.390 . S
C1494 C1488 1.465 . S
C1494 C1493 1.396 . S
C1494 C1495 1.399 . S
C1495 H1481 0.929 . S
C1495 C1494 1.399 . S
C1495 C1496 1.385 . S
C1496 H1482 0.931 . S
C1496 C1495 1.385 . S
C1496 C1497 1.389 . S
C1497 C1496 1.389 . S
C1497 C1498 1.387 . S
C1498 H1483 0.930 . S
C1498 C1493 1.390 . S
C1498 C1497 1.387 . S
H1499 C1511 0.932 1_655 S
H1500 C1513 0.930 . S
H1501 C1514 0.930 . S
H1502 C1518 0.959 . S
H1503 C1518 0.959 . S
H1504 C1518 0.961 . S
H1505 C1519 0.960 . S
H1506 C1519 0.961 . S
H1507 C1519 0.959 . S
H1508 C1522 0.929 . S
H1509 C1523 0.931 . S
H1510 C1525 0.930 . S
C1511 H1499 0.932 1_455 S
C1511 C1512 1.399 1_556 S
C1511 C1516 1.397 . S
C1512 C1511 1.399 1_554 S
C1512 C1513 1.376 . S
C1513 H1500 0.930 . S
C1513 C1512 1.376 . S
C1513 C1514 1.388 . S
C1514 H1501 0.930 . S
C1514 C1513 1.388 . S
C1514 C1515 1.390 1_554 S
C1515 C1514 1.390 1_556 S
C1515 C1516 1.394 . S
C1515 C1521 1.465 . S
C1516 C1511 1.397 . S
C1516 C1515 1.394 . S
C1516 C1517 1.516 . S
C1517 C1516 1.516 . S
C1517 C1518 1.502 1_455 S
C1517 C1519 1.561 . S
C1517 C1520 1.526 . S
C1518 H1502 0.959 . S
C1518 H1503 0.959 . S
C1518 H1504 0.961 . S
C1518 C1517 1.502 1_655 S
C1519 H1505 0.960 . S
C1519 H1506 0.961 . S
C1519 H1507 0.959 . S
C1519 C1517 1.561 . S
C1520 C1517 1.526 . S
C1520 C1521 1.396 . S
C1520 C1525 1.390 . S
C1521 C1515 1.465 . S
C1521 C1520 1.396 . S
C1521 C1522 1.399 . S
C1522 H1508 0.929 . S
C1522 C1521 1.399 . S
C1522 C1523 1.385 . S
C1523 H1509 0.931 . S
C1523 C1522 1.385 . S
C1523 C1524 1.389 . S
C1524 C1523 1.389 . S
C1524 C1525 1.387 . S
C1525 H1510 0.930 . S
C1525 C1520 1.390 . S
C1525 C1524 1.387 . S
H1526 C1538 0.930 . S
H1527 C1540 0.930 . S
H1528 C1541 0.930 . S
H1529 C1545 0.959 . S
H1530 C1545 0.959 . S
H1531 C1545 0.961 . S
H1532 C1546 0.960 . S
H1533 C1546 0.961 . S
H1534 C1546 0.959 . S
H1535 C1549 0.929 . S
H1536 C1550 0.931 . S
H1537 C1552 0.930 . S
C1538 H1526 0.930 . S
C1538 C1539 1.399 . S
C1538 C1543 1.399 . S
C1539 C1538 1.399 . S
C1539 C1540 1.376 . S
C1540 H1527 0.930 . S
C1540 C1539 1.376 . S
C1540 C1541 1.388 . S
C1541 H1528 0.930 . S
C1541 C1540 1.388 . S
C1541 C1542 1.390 . S
C1542 C1541 1.390 . S
C1542 C1543 1.394 . S
C1542 C1548 1.465 . S
C1543 C1538 1.399 . S
C1543 C1542 1.394 . S
C1543 C1544 1.516 . S
C1544 C1543 1.516 . S
C1544 C1545 1.502 . S
C1544 C1546 1.561 . S
C1544 C1547 1.526 . S
C1545 H1529 0.959 . S
C1545 H1530 0.959 . S
C1545 H1531 0.961 . S
C1545 C1544 1.502 . S
C1546 H1532 0.960 . S
C1546 H1533 0.961 . S
C1546 H1534 0.959 . S
C1546 C1544 1.561 . S
C1547 C1544 1.526 . S
C1547 C1548 1.396 . S
C1547 C1552 1.390 . S
C1548 C1542 1.465 . S
C1548 C1547 1.396 . S
C1548 C1549 1.399 . S
C1549 H1535 0.929 . S
C1549 C1548 1.399 . S
C1549 C1550 1.385 . S
C1550 H1536 0.931 . S
C1550 C1549 1.385 . S
C1550 C1551 1.389 . S
C1551 C1550 1.389 . S
C1551 C1552 1.387 . S
C1552 H1537 0.930 . S
C1552 C1547 1.390 . S
C1552 C1551 1.387 . S
H1553 C1565 0.930 . S
H1554 C1567 0.930 . S
H1555 C1568 0.930 . S
H1556 C1572 0.985 . S
H1557 C1572 0.959 . S
H1558 C1572 0.961 . S
H1559 C1573 0.970 . S
H1560 C1573 0.961 . S
H1561 C1573 0.959 1_455 S
H1562 C1576 0.929 . S
H1563 C1577 0.931 . S
H1564 C1579 0.930 1_655 S
C1565 H1553 0.930 . S
C1565 C1566 1.399 . S
C1565 C1570 1.399 . S
C1566 C1565 1.399 . S
C1566 C1567 1.376 . S
C1567 H1554 0.930 . S
C1567 C1566 1.376 . S
C1567 C1568 1.388 . S
C1568 H1555 0.930 . S
C1568 C1567 1.388 . S
C1568 C1569 1.390 . S
C1569 C1568 1.390 . S
C1569 C1570 1.394 . S
C1569 C1575 1.465 . S
C1570 C1565 1.399 . S
C1570 C1569 1.394 . S
C1570 C1571 1.516 . S
C1571 C1570 1.516 . S
C1571 C1572 1.502 1_455 S
C1571 C1573 1.561 1_455 S
C1571 C1574 1.526 . S
C1572 H1556 0.985 . S
C1572 H1557 0.959 . S
C1572 H1558 0.961 . S
C1572 C1571 1.502 1_655 S
C1573 H1559 0.970 . S
C1573 H1560 0.961 . S
C1573 H1561 0.959 1_655 S
C1573 C1571 1.561 1_655 S
C1574 C1571 1.526 . S
C1574 C1575 1.396 . S
C1574 C1579 1.390 . S
C1575 C1569 1.465 . S
C1575 C1574 1.396 . S
C1575 C1576 1.399 . S
C1576 H1562 0.929 . S
C1576 C1575 1.399 . S
C1576 C1577 1.385 . S
C1577 H1563 0.931 . S
C1577 C1576 1.385 . S
C1577 C1578 1.389 . S
C1578 C1577 1.389 . S
C1578 C1579 1.387 . S
C1579 H1564 0.930 1_455 S
C1579 C1574 1.390 . S
C1579 C1578 1.387 . S
H1580 C1592 0.930 . S
H1581 C1594 0.930 . S
H1582 C1595 0.930 . S
H1583 C1599 0.959 . S
H1584 C1599 0.959 . S
H1585 C1599 0.961 . S
H1586 C1600 0.960 . S
H1587 C1600 0.961 . S
H1588 C1600 0.959 . S
H1589 C1603 0.929 . S
H1590 C1604 0.931 . S
H1591 C1606 0.930 . S
C1592 H1580 0.930 . S
C1592 C1593 1.399 . S
C1592 C1597 1.399 . S
C1593 C1592 1.399 . S
C1593 C1594 1.376 . S
C1594 H1581 0.930 . S
C1594 C1593 1.376 . S
C1594 C1595 1.388 . S
C1595 H1582 0.930 . S
C1595 C1594 1.388 . S
C1595 C1596 1.390 . S
C1596 C1595 1.390 . S
C1596 C1597 1.394 . S
C1596 C1602 1.465 . S
C1597 C1592 1.399 . S
C1597 C1596 1.394 . S
C1597 C1598 1.516 . S
C1598 C1597 1.516 . S
C1598 C1599 1.502 . S
C1598 C1600 1.561 . S
C1598 C1601 1.526 . S
C1599 H1583 0.959 . S
C1599 H1584 0.959 . S
C1599 H1585 0.961 . S
C1599 C1598 1.502 . S
C1600 H1586 0.960 . S
C1600 H1587 0.961 . S
C1600 H1588 0.959 . S
C1600 C1598 1.561 . S
C1601 C1598 1.526 . S
C1601 C1602 1.396 . S
C1601 C1606 1.390 . S
C1602 C1596 1.465 . S
C1602 C1601 1.396 . S
C1602 C1603 1.399 . S
C1603 H1589 0.929 . S
C1603 C1602 1.399 . S
C1603 C1604 1.385 . S
C1604 H1590 0.931 . S
C1604 C1603 1.385 . S
C1604 C1605 1.389 . S
C1605 C1604 1.389 . S
C1605 C1606 1.387 . S
C1606 H1591 0.930 . S
C1606 C1601 1.390 . S
C1606 C1605 1.387 . S
H1607 C1619 0.930 . S
H1608 C1621 0.930 . S
H1609 C1622 0.930 . S
H1610 C1626 0.959 . S
H1611 C1626 0.959 . S
H1612 C1626 0.961 . S
H1613 C1627 0.960 . S
H1614 C1627 0.961 . S
H1615 C1627 0.959 . S
H1616 C1630 0.929 . S
H1617 C1631 0.931 . S
H1618 C1633 0.930 . S
C1619 H1607 0.930 . S
C1619 C1620 1.399 . S
C1619 C1624 1.399 . S
C1620 C1619 1.399 . S
C1620 C1621 1.376 . S
C1621 H1608 0.930 . S
C1621 C1620 1.376 . S
C1621 C1622 1.388 . S
C1622 H1609 0.930 . S
C1622 C1621 1.388 . S
C1622 C1623 1.390 . S
C1623 C1622 1.390 . S
C1623 C1624 1.394 . S
C1623 C1629 1.465 . S
C1624 C1619 1.399 . S
C1624 C1623 1.394 . S
C1624 C1625 1.516 . S
C1625 C1624 1.516 . S
C1625 C1626 1.502 . S
C1625 C1627 1.561 . S
C1625 C1628 1.526 . S
C1626 H1610 0.959 . S
C1626 H1611 0.959 . S
C1626 H1612 0.961 . S
C1626 C1625 1.502 . S
C1627 H1613 0.960 . S
C1627 H1614 0.961 . S
C1627 H1615 0.959 . S
C1627 C1625 1.561 . S
C1628 C1625 1.526 . S
C1628 C1629 1.396 . S
C1628 C1633 1.390 . S
C1629 C1623 1.465 . S
C1629 C1628 1.396 . S
C1629 C1630 1.399 . S
C1630 H1616 0.929 . S
C1630 C1629 1.399 . S
C1630 C1631 1.385 . S
C1631 H1617 0.931 . S
C1631 C1630 1.385 . S
C1631 C1632 1.389 . S
C1632 C1631 1.389 . S
C1632 C1633 1.387 . S
C1633 H1618 0.930 . S
C1633 C1628 1.390 . S
C1633 C1632 1.387 . S
H1634 C1646 0.930 . S
H1635 C1648 0.930 . S
H1636 C1649 0.930 . S
H1637 C1653 0.959 . S
H1638 C1653 0.959 . S
H1639 C1653 0.961 . S
H1640 C1654 0.960 . S
H1641 C1654 0.961 . S
H1642 C1654 0.959 . S
H1643 C1657 0.929 . S
H1644 C1658 0.931 . S
H1645 C1660 0.930 . S
C1646 H1634 0.930 . S
C1646 C1647 1.399 . S
C1646 C1651 1.399 . S
C1647 C1646 1.399 . S
C1647 C1648 1.376 . S
C1648 H1635 0.930 . S
C1648 C1647 1.376 . S
C1648 C1649 1.388 . S
C1649 H1636 0.930 . S
C1649 C1648 1.388 . S
C1649 C1650 1.390 . S
C1650 C1649 1.390 . S
C1650 C1651 1.394 . S
C1650 C1656 1.465 . S
C1651 C1646 1.399 . S
C1651 C1650 1.394 . S
C1651 C1652 1.516 . S
C1652 C1651 1.516 . S
C1652 C1653 1.502 . S
C1652 C1654 1.561 . S
C1652 C1655 1.526 . S
C1653 H1637 0.959 . S
C1653 H1638 0.959 . S
C1653 H1639 0.961 . S
C1653 C1652 1.502 . S
C1654 H1640 0.960 . S
C1654 H1641 0.961 . S
C1654 H1642 0.959 . S
C1654 C1652 1.561 . S
C1655 C1652 1.526 . S
C1655 C1656 1.396 . S
C1655 C1660 1.390 . S
C1656 C1650 1.465 . S
C1656 C1655 1.396 . S
C1656 C1657 1.399 . S
C1657 H1643 0.929 . S
C1657 C1656 1.399 . S
C1657 C1658 1.385 . S
C1658 H1644 0.931 . S
C1658 C1657 1.385 . S
C1658 C1659 1.389 . S
C1659 C1658 1.389 . S
C1659 C1660 1.387 . S
C1660 H1645 0.930 . S
C1660 C1655 1.390 . S
C1660 C1659 1.387 . S
H1661 C1673 0.930 . S
H1662 C1675 0.930 1_556 S
H1663 C1676 0.930 . S
H1664 C1680 0.959 . S
H1665 C1680 0.959 . S
H1666 C1680 0.961 . S
H1667 C1681 0.960 . S
H1668 C1681 0.961 . S
H1669 C1681 0.959 . S
H1670 C1684 0.929 . S
H1671 C1685 0.931 . S
H1672 C1687 0.930 . S
C1673 H1661 0.930 . S
C1673 C1674 1.399 . S
C1673 C1678 1.399 . S
C1674 C1673 1.399 . S
C1674 C1675 1.376 . S
C1675 H1662 0.930 1_554 S
C1675 C1674 1.376 . S
C1675 C1676 1.388 . S
C1676 H1663 0.930 . S
C1676 C1675 1.388 . S
C1676 C1677 1.390 . S
C1677 C1676 1.390 . S
C1677 C1678 1.394 . S
C1677 C1683 1.465 . S
C1678 C1673 1.399 . S
C1678 C1677 1.394 . S
C1678 C1679 1.516 . S
C1679 C1678 1.516 . S
C1679 C1680 1.502 . S
C1679 C1681 1.561 . S
C1679 C1682 1.526 . S
C1680 H1664 0.959 . S
C1680 H1665 0.959 . S
C1680 H1666 0.961 . S
C1680 C1679 1.502 . S
C1681 H1667 0.960 . S
C1681 H1668 0.961 . S
C1681 H1669 0.959 . S
C1681 C1679 1.561 . S
C1682 C1679 1.526 . S
C1682 C1683 1.396 . S
C1682 C1687 1.390 . S
C1683 C1677 1.465 . S
C1683 C1682 1.396 . S
C1683 C1684 1.399 . S
C1684 H1670 0.929 . S
C1684 C1683 1.399 . S
C1684 C1685 1.385 . S
C1685 H1671 0.931 . S
C1685 C1684 1.385 . S
C1685 C1686 1.389 . S
C1686 C1685 1.389 . S
C1686 C1687 1.387 . S
C1687 H1672 0.930 . S
C1687 C1682 1.390 . S
C1687 C1686 1.387 . S
H1688 C1700 0.930 . S
H1689 C1702 0.930 . S
H1690 C1703 0.930 . S
H1691 C1707 0.959 . S
H1692 C1707 0.959 . S
H1693 C1707 0.961 . S
H1694 C1708 0.960 . S
H1695 C1708 0.961 . S
H1696 C1708 0.959 . S
H1697 C1711 0.929 . S
H1698 C1712 0.931 . S
H1699 C1714 0.930 . S
C1700 H1688 0.930 . S
C1700 C1701 1.399 . S
C1700 C1705 1.399 . S
C1701 C1700 1.399 . S
C1701 C1702 1.376 . S
C1702 H1689 0.930 . S
C1702 C1701 1.376 . S
C1702 C1703 1.388 . S
C1703 H1690 0.930 . S
C1703 C1702 1.388 . S
C1703 C1704 1.390 . S
C1704 C1703 1.390 . S
C1704 C1705 1.394 . S
C1704 C1710 1.465 . S
C1705 C1700 1.399 . S
C1705 C1704 1.394 . S
C1705 C1706 1.516 . S
C1706 C1705 1.516 . S
C1706 C1707 1.502 . S
C1706 C1708 1.561 . S
C1706 C1709 1.526 . S
C1707 H1691 0.959 . S
C1707 H1692 0.959 . S
C1707 H1693 0.961 . S
C1707 C1706 1.502 . S
C1708 H1694 0.960 . S
C1708 H1695 0.961 . S
C1708 H1696 0.959 . S
C1708 C1706 1.561 . S
C1709 C1706 1.526 . S
C1709 C1710 1.396 . S
C1709 C1714 1.390 . S
C1710 C1704 1.465 . S
C1710 C1709 1.396 . S
C1710 C1711 1.399 . S
C1711 H1697 0.929 . S
C1711 C1710 1.399 . S
C1711 C1712 1.385 . S
C1712 H1698 0.931 . S
C1712 C1711 1.385 . S
C1712 C1713 1.389 . S
C1713 C1712 1.389 . S
C1713 C1714 1.387 . S
C1714 H1699 0.930 . S
C1714 C1709 1.390 . S
C1714 C1713 1.387 . S
H1715 C1727 0.930 . S
H1716 C1729 0.930 . S
H1717 C1730 0.930 . S
H1718 C1734 0.959 . S
H1719 C1734 0.959 . S
H1720 C1734 0.961 . S
H1721 C1735 0.960 . S
H1722 C1735 0.961 . S
H1723 C1735 0.959 . S
H1724 C1738 0.929 . S
H1725 C1739 0.931 . S
H1726 C1741 0.930 . S
C1727 H1715 0.930 . S
C1727 C1728 1.399 . S
C1727 C1732 1.399 . S
C1728 C1727 1.399 . S
C1728 C1729 1.376 . S
C1729 H1716 0.930 . S
C1729 C1728 1.376 . S
C1729 C1730 1.388 . S
C1730 H1717 0.930 . S
C1730 C1729 1.388 . S
C1730 C1731 1.390 . S
C1731 C1730 1.390 . S
C1731 C1732 1.394 . S
C1731 C1737 1.465 . S
C1732 C1727 1.399 . S
C1732 C1731 1.394 . S
C1732 C1733 1.516 . S
C1733 C1732 1.516 . S
C1733 C1734 1.502 . S
C1733 C1735 1.561 . S
C1733 C1736 1.526 . S
C1734 H1718 0.959 . S
C1734 H1719 0.959 . S
C1734 H1720 0.961 . S
C1734 C1733 1.502 . S
C1735 H1721 0.960 . S
C1735 H1722 0.961 . S
C1735 H1723 0.959 . S
C1735 C1733 1.561 . S
C1736 C1733 1.526 . S
C1736 C1737 1.396 . S
C1736 C1741 1.390 . S
C1737 C1731 1.465 . S
C1737 C1736 1.396 . S
C1737 C1738 1.399 . S
C1738 H1724 0.929 . S
C1738 C1737 1.399 . S
C1738 C1739 1.385 . S
C1739 H1725 0.931 . S
C1739 C1738 1.385 . S
C1739 C1740 1.389 . S
C1740 C1739 1.389 . S
C1740 C1741 1.387 . S
C1741 H1726 0.930 . S
C1741 C1736 1.390 . S
C1741 C1740 1.387 . S
H1742 C1754 0.930 . S
H1743 C1756 0.930 . S
H1744 C1757 0.930 . S
H1745 C1761 0.959 . S
H1746 C1761 0.959 . S
H1747 C1761 0.961 . S
H1748 C1762 0.960 . S
H1749 C1762 0.961 . S
H1750 C1762 0.959 . S
H1751 C1765 0.929 . S
H1752 C1766 0.931 . S
H1753 C1768 0.930 . S
C1754 H1742 0.930 . S
C1754 C1755 1.399 . S
C1754 C1759 1.399 . S
C1755 C1754 1.399 . S
C1755 C1756 1.376 . S
C1756 H1743 0.930 . S
C1756 C1755 1.376 . S
C1756 C1757 1.388 . S
C1757 H1744 0.930 . S
C1757 C1756 1.388 . S
C1757 C1758 1.390 . S
C1758 C1757 1.390 . S
C1758 C1759 1.394 . S
C1758 C1764 1.465 . S
C1759 C1754 1.399 . S
C1759 C1758 1.394 . S
C1759 C1760 1.516 . S
C1760 C1759 1.516 . S
C1760 C1761 1.502 . S
C1760 C1762 1.561 . S
C1760 C1763 1.526 . S
C1761 H1745 0.959 . S
C1761 H1746 0.959 . S
C1761 H1747 0.961 . S
C1761 C1760 1.502 . S
C1762 H1748 0.960 . S
C1762 H1749 0.961 . S
C1762 H1750 0.959 . S
C1762 C1760 1.561 . S
C1763 C1760 1.526 . S
C1763 C1764 1.396 . S
C1763 C1768 1.390 . S
C1764 C1758 1.465 . S
C1764 C1763 1.396 . S
C1764 C1765 1.399 . S
C1765 H1751 0.929 . S
C1765 C1764 1.399 . S
C1765 C1766 1.385 . S
C1766 H1752 0.931 . S
C1766 C1765 1.385 . S
C1766 C1767 1.389 . S
C1767 C1766 1.389 . S
C1767 C1768 1.387 . S
C1768 H1753 0.930 . S
C1768 C1763 1.390 . S
C1768 C1767 1.387 . S
H1769 C1781 0.930 . S
H1770 C1783 0.930 . S
H1771 C1784 0.930 . S
H1772 C1788 0.959 . S
H1773 C1788 0.959 . S
H1774 C1788 0.961 . S
H1775 C1789 0.960 . S
H1776 C1789 0.961 . S
H1777 C1789 0.959 . S
H1778 C1792 0.929 . S
H1779 C1793 0.931 . S
H1780 C1795 0.930 . S
C1781 H1769 0.930 . S
C1781 C1782 1.399 . S
C1781 C1786 1.399 . S
C1782 C1781 1.399 . S
C1782 C1783 1.376 . S
C1783 H1770 0.930 . S
C1783 C1782 1.376 . S
C1783 C1784 1.388 . S
C1784 H1771 0.930 . S
C1784 C1783 1.388 . S
C1784 C1785 1.390 . S
C1785 C1784 1.390 . S
C1785 C1786 1.394 . S
C1785 C1791 1.465 . S
C1786 C1781 1.399 . S
C1786 C1785 1.394 . S
C1786 C1787 1.516 . S
C1787 C1786 1.516 . S
C1787 C1788 1.502 . S
C1787 C1789 1.561 . S
C1787 C1790 1.526 . S
C1788 H1772 0.959 . S
C1788 H1773 0.959 . S
C1788 H1774 0.961 . S
C1788 C1787 1.502 . S
C1789 H1775 0.960 . S
C1789 H1776 0.961 . S
C1789 H1777 0.959 . S
C1789 C1787 1.561 . S
C1790 C1787 1.526 . S
C1790 C1791 1.396 . S
C1790 C1795 1.390 . S
C1791 C1785 1.465 . S
C1791 C1790 1.396 . S
C1791 C1792 1.399 . S
C1792 H1778 0.929 . S
C1792 C1791 1.399 . S
C1792 C1793 1.385 . S
C1793 H1779 0.931 . S
C1793 C1792 1.385 . S
C1793 C1794 1.389 . S
C1794 C1793 1.389 . S
C1794 C1795 1.387 . S
C1795 H1780 0.930 . S
C1795 C1790 1.390 . S
C1795 C1794 1.387 . S
H1796 C1808 0.930 . S
H1797 C1810 0.930 . S
H1798 C1811 0.930 . S
H1799 C1815 0.959 . S
H1800 C1815 0.959 . S
H1801 C1815 0.961 . S
H1802 C1816 0.960 . S
H1803 C1816 0.961 . S
H1804 C1816 0.959 . S
H1805 C1819 0.929 . S
H1806 C1820 0.931 . S
H1807 C1822 0.930 . S
C1808 H1796 0.930 . S
C1808 C1809 1.399 . S
C1808 C1813 1.399 . S
C1809 C1808 1.399 . S
C1809 C1810 1.376 1_556 S
C1810 H1797 0.930 . S
C1810 C1809 1.376 1_554 S
C1810 C1811 1.388 . S
C1811 H1798 0.930 . S
C1811 C1810 1.388 . S
C1811 C1812 1.390 . S
C1812 C1811 1.390 . S
C1812 C1813 1.394 1_554 S
C1812 C1818 1.465 . S
C1813 C1808 1.399 . S
C1813 C1812 1.394 1_556 S
C1813 C1814 1.516 . S
C1814 C1813 1.516 . S
C1814 C1815 1.502 . S
C1814 C1816 1.561 . S
C1814 C1817 1.526 . S
C1815 H1799 0.959 . S
C1815 H1800 0.959 . S
C1815 H1801 0.961 . S
C1815 C1814 1.502 . S
C1816 H1802 0.960 . S
C1816 H1803 0.961 . S
C1816 H1804 0.959 . S
C1816 C1814 1.561 . S
C1817 C1814 1.526 . S
C1817 C1818 1.396 1_556 S
C1817 C1822 1.390 . S
C1818 C1812 1.465 . S
C1818 C1817 1.396 1_554 S
C1818 C1819 1.399 . S
C1819 H1805 0.929 . S
C1819 C1818 1.399 . S
C1819 C1820 1.385 . S
C1820 H1806 0.931 . S
C1820 C1819 1.385 . S
C1820 C1821 1.389 1_554 S
C1821 C1820 1.389 1_556 S
C1821 C1822 1.387 . S
C1822 H1807 0.930 . S
C1822 C1817 1.390 . S
C1822 C1821 1.387 . S
H1823 C1835 0.930 . S
H1824 C1837 0.930 . S
H1825 C1838 0.930 . S
H1826 C1842 0.959 . S
H1827 C1842 0.959 . S
H1828 C1842 0.961 . S
H1829 C1843 0.960 . S
H1830 C1843 0.961 . S
H1831 C1843 0.959 . S
H1832 C1846 0.929 . S
H1833 C1847 0.931 . S
H1834 C1849 0.930 . S
C1835 H1823 0.930 . S
C1835 C1836 1.399 . S
C1835 C1840 1.399 . S
C1836 C1835 1.399 . S
C1836 C1837 1.376 . S
C1837 H1824 0.930 . S
C1837 C1836 1.376 . S
C1837 C1838 1.388 . S
C1838 H1825 0.930 . S
C1838 C1837 1.388 . S
C1838 C1839 1.390 . S
C1839 C1838 1.390 . S
C1839 C1840 1.394 . S
C1839 C1845 1.465 . S
C1840 C1835 1.399 . S
C1840 C1839 1.394 . S
C1840 C1841 1.516 . S
C1841 C1840 1.516 . S
C1841 C1842 1.502 . S
C1841 C1843 1.561 . S
C1841 C1844 1.526 . S
C1842 H1826 0.959 . S
C1842 H1827 0.959 . S
C1842 H1828 0.961 . S
C1842 C1841 1.502 . S
C1843 H1829 0.960 . S
C1843 H1830 0.961 . S
C1843 H1831 0.959 . S
C1843 C1841 1.561 . S
C1844 C1841 1.526 . S
C1844 C1845 1.396 . S
C1844 C1849 1.390 . S
C1845 C1839 1.465 . S
C1845 C1844 1.396 . S
C1845 C1846 1.399 . S
C1846 H1832 0.929 . S
C1846 C1845 1.399 . S
C1846 C1847 1.385 . S
C1847 H1833 0.931 . S
C1847 C1846 1.385 . S
C1847 C1848 1.389 . S
C1848 C1847 1.389 . S
C1848 C1849 1.387 . S
C1849 H1834 0.930 . S
C1849 C1844 1.390 . S
C1849 C1848 1.387 . S
H1850 C1862 0.930 . S
H1851 C1864 0.930 1_556 S
H1852 C1865 0.930 . S
H1853 C1869 0.959 . S
H1854 C1869 0.959 . S
H1855 C1869 0.961 . S
H1856 C1870 0.960 . S
H1857 C1870 0.961 . S
H1858 C1870 0.959 . S
H1859 C1873 0.929 . S
H1860 C1874 0.931 . S
H1861 C1876 0.930 . S
C1862 H1850 0.930 . S
C1862 C1863 1.399 . S
C1862 C1867 1.399 . S
C1863 C1862 1.399 . S
C1863 C1864 1.376 . S
C1864 H1851 0.930 1_554 S
C1864 C1863 1.376 . S
C1864 C1865 1.388 1_554 S
C1865 H1852 0.930 . S
C1865 C1864 1.388 1_556 S
C1865 C1866 1.390 1_556 S
C1866 C1865 1.390 1_554 S
C1866 C1867 1.394 . S
C1866 C1872 1.465 . S
C1867 C1862 1.399 . S
C1867 C1866 1.394 . S
C1867 C1868 1.516 . S
C1868 C1867 1.516 . S
C1868 C1869 1.502 . S
C1868 C1870 1.561 . S
C1868 C1871 1.526 . S
C1869 H1853 0.959 . S
C1869 H1854 0.959 . S
C1869 H1855 0.961 . S
C1869 C1868 1.502 . S
C1870 H1856 0.960 . S
C1870 H1857 0.961 . S
C1870 H1858 0.959 . S
C1870 C1868 1.561 . S
C1871 C1868 1.526 . S
C1871 C1872 1.396 . S
C1871 C1876 1.390 . S
C1872 C1866 1.465 . S
C1872 C1871 1.396 . S
C1872 C1873 1.399 1_554 S
C1873 H1859 0.929 . S
C1873 C1872 1.399 1_556 S
C1873 C1874 1.385 . S
C1874 H1860 0.931 . S
C1874 C1873 1.385 . S
C1874 C1875 1.376 1_556 S
C1875 C1874 1.376 1_554 S
C1875 C1876 1.403 . S
C1876 H1861 0.930 . S
C1876 C1871 1.390 . S
C1876 C1875 1.403 . S
H1877 C1889 0.930 . S
H1878 C1891 0.930 . S
H1879 C1892 0.930 . S
H1880 C1896 0.959 . S
H1881 C1896 0.959 1_556 S
H1882 C1896 0.961 1_556 S
H1883 C1897 0.960 . S
H1884 C1897 0.961 . S
H1885 C1897 0.959 1_554 S
H1886 C1900 0.929 . S
H1887 C1901 0.931 . S
H1888 C1903 0.930 . S
C1889 H1877 0.930 . S
C1889 C1890 1.399 1_565 S
C1889 C1894 1.399 . S
C1890 C1889 1.399 1_545 S
C1890 C1891 1.376 . S
C1891 H1878 0.930 . S
C1891 C1890 1.376 . S
C1891 C1892 1.388 . S
C1892 H1879 0.930 . S
C1892 C1891 1.388 . S
C1892 C1893 1.390 1_545 S
C1893 C1892 1.390 1_565 S
C1893 C1894 1.394 . S
C1893 C1899 1.465 . S
C1894 C1889 1.399 . S
C1894 C1893 1.394 . S
C1894 C1895 1.516 . S
C1895 C1894 1.516 . S
C1895 C1896 1.502 . S
C1895 C1897 1.561 1_554 S
C1895 C1898 1.526 . S
C1896 H1880 0.959 . S
C1896 H1881 0.959 1_554 S
C1896 H1882 0.961 1_554 S
C1896 C1895 1.502 . S
C1897 H1883 0.960 . S
C1897 H1884 0.961 . S
C1897 H1885 0.959 1_556 S
C1897 C1895 1.561 1_556 S
C1898 C1895 1.526 . S
C1898 C1899 1.396 . S
C1898 C1903 1.390 . S
C1899 C1893 1.465 . S
C1899 C1898 1.396 . S
C1899 C1900 1.399 . S
C1900 H1886 0.929 . S
C1900 C1899 1.399 . S
C1900 C1901 1.385 . S
C1901 H1887 0.931 . S
C1901 C1900 1.385 . S
C1901 C1902 1.389 . S
C1902 C1901 1.389 . S
C1902 C1903 1.387 . S
C1903 H1888 0.930 . S
C1903 C1898 1.390 . S
C1903 C1902 1.387 . S
C633 C178 1.505 1_556 S
C621 C60 1.529 . S
C660 C226 1.378 . S
C648 C76 1.433 . S
C675 C81 1.549 . S
C687 C262 1.443 . S
C714 C298 1.584 . S
C702 C48 1.694 . S
C741 C324 1.445 . S
C729 C115 1.405 . S
C768 C360 1.707 . S
C756 C136 1.701 . S
C783 C131 1.401 . S
C795 C395 1.394 . S
C822 C432 1.561 . S
C810 C104 1.534 . S
C837 C126 1.433 . S
C849 C466 1.468 . S
C876 C514 1.482 . S
C864 C103 1.507 . S
C891 C120 1.365 . S
C903 C467 1.358 . S
C930 C504 1.551 . S
C918 C142 1.555 . S
C945 C82 1.380 . S
C957 C550 1.293 . S
C972 C54 1.839 . S
C984 C539 1.835 . S
C999 C65 1.456 . S
C1011 C540 1.441 . S
C1026 C71 1.378 1_455 S
C1038 C538 1.348 . S
C1053 C37 1.485 . S
C1065 C286 1.481 . S
C1080 C158 1.871 . S
C1092 C287 1.888 . S
C1119 C190 1.438 . S
C1107 C169 1.558 . S
C1146 C215 1.188 . S
C1134 C98 1.193 . S
C1161 C49 1.774 1_545 S
C1173 C322 1.800 . S
C1200 C430 1.418 . S
C1188 C125 1.423 . S
C1227 C323 1.414 . S
C1215 C109 1.431 . S
C1254 C396 1.825 . S
C1242 C137 1.855 . S
C1281 C394 1.514 . S
C1269 C159 1.507 . S
C1296 C175 1.436 . S
C1308 C442 1.374 . S
C1323 C92 1.555 . S
C1335 C334 1.515 . S
C1362 C370 1.656 . S
C1350 C147 1.693 . S
C1377 C38 1.411 . S
C1389 C252 1.437 . S
C1416 C288 1.704 . S
C1404 C4 1.702 . S
C1443 C179 1.390 . S
C1431 C21 1.407 . S
C1470 C216 1.559 . S
C1458 C27 1.536 . S
C1485 C16 1.471 . S
C1497 C502 1.438 . S
C1512 C26 1.502 1_455 S
C1524 C478 1.477 . S
C1539 C43 1.361 . S
C1551 C503 1.359 . S
C1566 C10 1.544 1_556 S
C1578 C468 1.553 . S
C1605 C586 1.298 . S
C1593 C93 1.377 . S
C1632 C575 1.835 . S
C1620 C153 1.838 . S
C1659 C576 1.451 . S
C1647 C164 1.444 . S
C1674 C170 1.386 1_554 S
C1686 C574 1.355 . S
C1701 C114 1.479 . S
C1713 C358 1.487 . S
C1740 C359 1.897 . S
C1728 C59 1.887 . S
C1767 C406 1.432 . S
C1755 C70 1.557 . S
C1794 C431 1.187 . S
C1782 C87 1.202 . S
C1809 C148 1.792 . S
C1821 C250 1.774 . S
C1848 C214 1.416 . S
C1836 C15 1.406 . S
C1863 C32 1.440 . S
C1875 C251 1.441 . S
C1902 C180 1.857 . S
C1890 C5 1.841 . S
