# Generated by pormake.
# Topology wbl, (4,4)-cn, num edge types: 1
# Building blocks:
#     Node 0, Type 0, BuildingBlock: NAWXER_clean_linker_0, # of connection points: 4
#     Node 1, Type 0, BuildingBlock: NAWXER_clean_linker_0, # of connection points: 4
#     Node 2, Type 0, BuildingBlock: NAWXER_clean_linker_0, # of connection points: 4
#     Node 3, Type 0, BuildingBlock: NAWXER_clean_linker_0, # of connection points: 4
#     Node 4, Type 0, BuildingBlock: NAWXER_clean_linker_0, # of connection points: 4
#     Node 5, Type 0, BuildingBlock: NAWXER_clean_linker_0, # of connection points: 4
#     Node 6, Type 0, BuildingBlock: NAWXER_clean_linker_0, # of connection points: 4
#     Node 7, Type 0, BuildingBlock: NAWXER_clean_linker_0, # of connection points: 4
#     Node 8, Type 1, BuildingBlock: NAHDIM_clean_sbu_0, # of connection points: 4
#     Node 9, Type 1, BuildingBlock: NAHDIM_clean_sbu_0, # of connection points: 4
#     Node 10, Type 1, BuildingBlock: NAHDIM_clean_sbu_0, # of connection points: 4
#     Node 11, Type 1, BuildingBlock: NAHDIM_clean_sbu_0, # of connection points: 4
#     Node 12, Type 1, BuildingBlock: NAHDIM_clean_sbu_0, # of connection points: 4
#     Node 13, Type 1, BuildingBlock: NAHDIM_clean_sbu_0, # of connection points: 4
#     Node 14, Type 1, BuildingBlock: NAHDIM_clean_sbu_0, # of connection points: 4
#     Node 15, Type 1, BuildingBlock: NAHDIM_clean_sbu_0, # of connection points: 4
#     Edge 16, Type (0, 1), BuildingBlock: UVAHIK_clean_linker_0, # of connection points: 2
#     Edge 17, Type (0, 1), BuildingBlock: UVAHIK_clean_linker_0, # of connection points: 2
#     Edge 18, Type (0, 1), BuildingBlock: UVAHIK_clean_linker_0, # of connection points: 2
#     Edge 19, Type (0, 1), BuildingBlock: UVAHIK_clean_linker_0, # of connection points: 2
#     Edge 20, Type (0, 1), BuildingBlock: UVAHIK_clean_linker_0, # of connection points: 2
#     Edge 21, Type (0, 1), BuildingBlock: UVAHIK_clean_linker_0, # of connection points: 2
#     Edge 22, Type (0, 1), BuildingBlock: UVAHIK_clean_linker_0, # of connection points: 2
#     Edge 23, Type (0, 1), BuildingBlock: UVAHIK_clean_linker_0, # of connection points: 2
#     Edge 24, Type (0, 1), BuildingBlock: UVAHIK_clean_linker_0, # of connection points: 2
#     Edge 25, Type (0, 1), BuildingBlock: UVAHIK_clean_linker_0, # of connection points: 2
#     Edge 26, Type (0, 1), BuildingBlock: UVAHIK_clean_linker_0, # of connection points: 2
#     Edge 27, Type (0, 1), BuildingBlock: UVAHIK_clean_linker_0, # of connection points: 2
#     Edge 28, Type (0, 1), BuildingBlock: UVAHIK_clean_linker_0, # of connection points: 2
#     Edge 29, Type (0, 1), BuildingBlock: UVAHIK_clean_linker_0, # of connection points: 2
#     Edge 30, Type (0, 1), BuildingBlock: UVAHIK_clean_linker_0, # of connection points: 2
#     Edge 31, Type (0, 1), BuildingBlock: UVAHIK_clean_linker_0, # of connection points: 2
#     Edge 32, Type (0, 1), BuildingBlock: UVAHIK_clean_linker_0, # of connection points: 2
#     Edge 33, Type (0, 1), BuildingBlock: UVAHIK_clean_linker_0, # of connection points: 2
#     Edge 34, Type (0, 1), BuildingBlock: UVAHIK_clean_linker_0, # of connection points: 2
#     Edge 35, Type (0, 1), BuildingBlock: UVAHIK_clean_linker_0, # of connection points: 2
#     Edge 36, Type (0, 1), BuildingBlock: UVAHIK_clean_linker_0, # of connection points: 2
#     Edge 37, Type (0, 1), BuildingBlock: UVAHIK_clean_linker_0, # of connection points: 2
#     Edge 38, Type (0, 1), BuildingBlock: UVAHIK_clean_linker_0, # of connection points: 2
#     Edge 39, Type (0, 1), BuildingBlock: UVAHIK_clean_linker_0, # of connection points: 2
#     Edge 40, Type (0, 1), BuildingBlock: UVAHIK_clean_linker_0, # of connection points: 2
#     Edge 41, Type (0, 1), BuildingBlock: UVAHIK_clean_linker_0, # of connection points: 2
#     Edge 42, Type (0, 1), BuildingBlock: UVAHIK_clean_linker_0, # of connection points: 2
#     Edge 43, Type (0, 1), BuildingBlock: UVAHIK_clean_linker_0, # of connection points: 2
#     Edge 44, Type (0, 1), BuildingBlock: UVAHIK_clean_linker_0, # of connection points: 2
#     Edge 45, Type (0, 1), BuildingBlock: UVAHIK_clean_linker_0, # of connection points: 2
#     Edge 46, Type (0, 1), BuildingBlock: UVAHIK_clean_linker_0, # of connection points: 2
#     Edge 47, Type (0, 1), BuildingBlock: UVAHIK_clean_linker_0, # of connection points: 2
# Relax obj value: 0.156
# Max RMSD: 0.153
# Mean RMSD: 0.137
data_MOF--net-wbl--node1-NAHDIM_clean_sbu_0--node2-NAWXER_clean_linker_0--edge1-UVAHIK_clean_linker_0
_symmetry_space_group_name_H-M    P1
_symmetry_Int_Tables_number       1
_symmetry_cell_setting            triclinic
loop_
_symmetry_equiv_pos_as_xyz
'x, y, z'
_cell_length_a     57.095143
_cell_length_b     55.271818
_cell_length_c     94.741779
_cell_angle_alpha  90.000544
_cell_angle_beta   90.035966
_cell_angle_gamma 90.032011
loop_
_atom_site_label
_atom_site_type_symbol
_atom_site_fract_x
_atom_site_fract_y
_atom_site_fract_z
_atom_type_partial_charge
C0 C 0.05526 0.93528 0.36231 0.0
C1 C 0.07018 0.94675 0.37204 0.0
C2 C 0.04028 0.94889 0.35378 0.0
C3 C 0.04018 0.97427 0.35464 0.0
C4 C 0.07029 0.97216 0.37274 0.0
C5 C 0.05537 0.98577 0.36416 0.0
C6 C 0.02274 0.98877 0.34674 0.0
C7 C 0.06847 0.95739 0.31279 0.0
C8 C 0.05759 0.93798 0.30583 0.0
C9 C 0.05547 0.97255 0.32156 0.0
C10 C 0.03136 0.96871 0.32332 0.0
C11 C 0.0335 0.93406 0.30762 0.0
C12 C 0.02037 0.9496 0.31615 0.0
C13 C 0.01756 0.98502 0.33234 0.0
C14 C 0.95044 0.06667 0.31983 0.0
C15 C 0.93444 0.05444 0.31107 0.0
C16 C 0.96788 0.05393 0.327 0.0
C17 C 0.96937 0.02865 0.32581 0.0
C18 C 0.93657 0.02923 0.30948 0.0
C19 C 0.95388 0.01649 0.31677 0.0
C20 C 0.98745 0.01478 0.33355 0.0
C21 C 0.94212 0.04768 0.36747 0.0
C22 C 0.9538 0.06505 0.37576 0.0
C23 C 0.95464 0.03278 0.35826 0.0
C24 C 0.97906 0.03499 0.35713 0.0
C25 C 0.97827 0.06727 0.3745 0.0
C26 C 0.99078 0.05222 0.36537 0.0
C27 C 0.99263 0.01855 0.34797 0.0
H28 H 0.05443 0.91573 0.36172 0.0
H29 H 0.02813 0.93947 0.34693 0.0
H30 H 0.08173 0.98153 0.38005 0.0
H31 H 0.05548 0.0053 0.3651 0.0
H32 H 0.08707 0.96061 0.31155 0.0
H33 H 0.06416 0.9874 0.32689 0.0
H34 H 0.02485 0.91918 0.3023 0.0
H35 H 0.00174 0.94649 0.31735 0.0
H36 H 0.94927 0.08604 0.32135 0.0
H37 H 0.98016 0.06389 0.3335 0.0
H38 H 0.92488 0.0193 0.30258 0.0
H39 H 0.95496 0.99704 0.31548 0.0
H40 H 0.92338 0.04514 0.36835 0.0
H41 H 0.94531 0.0192 0.35222 0.0
H42 H 0.98781 0.08066 0.38055 0.0
H43 H 0.00963 0.05413 0.36469 0.0
N44 N 0.01013 0.0055 0.35398 0.0
N45 N 7e-05 0.99806 0.3263 0.0
C46 C 0.9318 0.46254 0.61959 0.0
C47 C 0.93918 0.44832 0.63106 0.0
C48 C 0.94817 0.47218 0.61017 0.0
C49 C 0.97218 0.46764 0.61204 0.0
C50 C 0.96326 0.44418 0.63301 0.0
C51 C 0.9796 0.45389 0.62364 0.0
C52 C 0.98979 0.47763 0.60221 0.0
C53 C 0.94695 0.42323 0.57935 0.0
C54 C 0.93414 0.43269 0.56797 0.0
C55 C 0.96517 0.43651 0.58537 0.0
C56 C 0.97045 0.45983 0.5804 0.0
C57 C 0.94024 0.45544 0.56248 0.0
C58 C 0.95826 0.46893 0.56867 0.0
C59 C 0.98862 0.47473 0.5874 0.0
C60 C 0.08156 0.51642 0.56911 0.0
C61 C 0.07451 0.53247 0.55839 0.0
C62 C 0.06491 0.50462 0.57743 0.0
C63 C 0.04093 0.50875 0.57523 0.0
C64 C 0.05043 0.53544 0.55572 0.0
C65 C 0.0338 0.52355 0.56401 0.0
C66 C 0.02323 0.4985 0.58489 0.0
C67 C 0.06296 0.55463 0.60996 0.0
C68 C 0.07295 0.54631 0.62266 0.0
C69 C 0.04743 0.54008 0.60234 0.0
C70 C 0.04207 0.51658 0.60701 0.0
C71 C 0.06745 0.5228 0.6273 0.0
C72 C 0.05222 0.50814 0.61956 0.0
C73 C 0.02435 0.50146 0.5997 0.0
H74 H 0.91336 0.466 0.61782 0.0
H75 H 0.9421 0.48319 0.60145 0.0
H76 H 0.96951 0.43367 0.64189 0.0
H77 H -0.00194 0.45043 0.62536 0.0
H78 H 0.94293 0.40547 0.58354 0.0
H79 H 0.97495 0.42862 0.59401 0.0
H80 H 0.93067 0.46303 0.55365 0.0
H81 H 0.96228 0.48673 0.56454 0.0
H82 H 0.09995 0.51333 0.57125 0.0
H83 H 0.07076 0.49275 0.58582 0.0
H84 H 0.04436 0.54782 0.54766 0.0
H85 H 0.01537 0.52681 0.56208 0.0
H86 H 0.06689 0.57253 0.60597 0.0
H87 H 0.03922 0.54748 0.593 0.0
H88 H 0.0743 0.5159 0.63717 0.0
H89 H 0.04808 0.49025 0.62352 0.0
N90 N 0.00766 0.49073 0.60776 0.0
N91 N 0.0053 0.48544 0.57928 0.0
C92 C 0.52756 0.42322 0.86162 0.0
C93 C 0.54306 0.43179 0.87203 0.0
C94 C 0.51575 0.43942 0.85281 0.0
C95 C 0.51934 0.46445 0.8542 0.0
C96 C 0.54634 0.45688 0.8735 0.0
C97 C 0.53447 0.47304 0.86472 0.0
C98 C 0.50684 0.4819 0.84509 0.0
C99 C 0.55586 0.44014 0.81753 0.0
C100 C 0.54475 0.42683 0.8068 0.0
C101 C 0.54359 0.45775 0.82504 0.0
C102 C 0.51982 0.46203 0.82217 0.0
C103 C 0.52118 0.43166 0.80363 0.0
C104 C 0.50883 0.44914 0.81125 0.0
C105 C 0.50652 0.4804 0.83019 0.0
C106 C 0.46083 0.57509 0.81452 0.0
C107 C 0.44644 0.56749 0.80333 0.0
C108 C 0.47261 0.55816 0.82283 0.0
C109 C 0.46996 0.53328 0.82024 0.0
C110 C 0.44451 0.54261 0.80042 0.0
C111 C 0.45625 0.52568 0.80877 0.0
C112 C 0.48187 0.51516 0.82921 0.0
C113 C 0.42865 0.54919 0.85815 0.0
C114 C 0.43856 0.56327 0.86895 0.0
C115 C 0.44278 0.5344 0.84978 0.0
C116 C 0.46705 0.53337 0.85213 0.0
C117 C 0.4629 0.56253 0.87113 0.0
C118 C 0.47699 0.54748 0.86288 0.0
C119 C 0.48179 0.5163 0.84409 0.0
H120 H 0.52472 0.40399 0.86023 0.0
H121 H 0.50373 0.4324 0.84495 0.0
H122 H 0.55785 0.46405 0.88158 0.0
H123 H 0.53726 0.49229 0.86608 0.0
H124 H 0.57418 0.43722 0.81996 0.0
H125 H 0.55273 0.46809 0.83304 0.0
H126 H 0.51221 0.42168 0.7954 0.0
H127 H 0.49058 0.45238 0.80875 0.0
H128 H 0.463 0.59415 0.81684 0.0
H129 H 0.4838 0.56454 0.83128 0.0
H130 H 0.43341 0.53619 0.79194 0.0
H131 H 0.45417 0.50659 0.80649 0.0
H132 H 0.40993 0.54948 0.85626 0.0
H133 H 0.43469 0.52331 0.8417 0.0
H134 H 0.47092 0.573 0.8795 0.0
H135 H 0.49565 0.54673 0.86493 0.0
N136 N 0.49448 0.49981 0.85146 0.0
N137 N 0.49402 0.49709 0.82282 0.0
C138 C 0.46051 0.92579 0.07964 0.0
C139 C 0.44631 0.93334 0.06835 0.0
C140 C 0.47248 0.94272 0.08783 0.0
C141 C 0.47041 0.96751 0.08492 0.0
C142 C 0.44412 0.95818 0.06549 0.0
C143 C 0.45631 0.97513 0.07363 0.0
C144 C 0.4842 0.98529 0.09302 0.0
C145 C 0.42984 0.95588 0.12281 0.0
C146 C 0.43893 0.94445 0.1349 0.0
C147 C 0.44444 0.96939 0.11396 0.0
C148 C 0.46849 0.97142 0.1169 0.0
C149 C 0.46296 0.94679 0.13788 0.0
C150 C 0.47754 0.96015 0.129 0.0
C151 C 0.48424 0.98619 0.10794 0.0
C152 C 0.54555 0.07198 0.12047 0.0
C153 C 0.56012 0.06227 0.13099 0.0
C154 C 0.53076 0.05689 0.11266 0.0
C155 C 0.53022 0.03191 0.11535 0.0
C156 C 0.55949 0.03728 0.13367 0.0
C157 C 0.54448 0.02226 0.126 0.0
C158 C 0.5146 0.01576 0.10725 0.0
C159 C 0.57238 0.03807 0.07844 0.0
C160 C 0.56506 0.05332 0.06741 0.0
C161 C 0.556 0.0254 0.08647 0.0
C162 C 0.53196 0.02785 0.08371 0.0
C163 C 0.54099 0.05513 0.06438 0.0
C164 C 0.52459 0.04237 0.07242 0.0
C165 C 0.5146 0.01479 0.09237 0.0
H166 H 0.46237 0.90676 0.08213 0.0
H167 H 0.48368 0.93641 0.0963 0.0
H168 H 0.43344 0.96443 0.05677 0.0
H169 H 0.45474 0.99419 0.07113 0.0
H170 H 0.41144 0.95439 0.12017 0.0
H171 H 0.43683 0.9785 0.10494 0.0
H172 H 0.47048 0.93869 0.14725 0.0
H173 H 0.49596 0.96169 0.1316 0.0
H174 H 0.54574 0.09119 0.11821 0.0
H175 H 0.51963 0.06473 0.10461 0.0
H176 H 0.57034 0.02941 0.14185 0.0
H177 H 0.54419 0.00305 0.12828 0.0
H178 H 0.59081 0.03586 0.08084 0.0
H179 H 0.56212 0.01364 0.09484 0.0
H180 H 0.53477 0.06687 0.05604 0.0
H181 H 0.50612 0.04427 0.07004 0.0
N182 N 0.4993 -0.00029 0.0858 0.0
N183 N 0.49953 0.00136 0.11447 0.0
C184 C 0.0413 0.56872 0.89938 0.0
C185 C 0.05334 0.55756 0.88822 0.0
C186 C 0.0277 0.5549 0.90864 0.0
C187 C 0.02661 0.52959 0.90719 0.0
C188 C 0.0518 0.53238 0.88657 0.0
C189 C 0.03862 0.51854 0.89598 0.0
C190 C 0.01197 0.51447 0.91663 0.0
C191 C 0.06348 0.55304 0.9445 0.0
C192 C 0.05301 0.56799 0.9547 0.0
C193 C 0.05009 0.53618 0.93706 0.0
C194 C 0.02588 0.5344 0.93945 0.0
C195 C 0.02896 0.56558 0.95744 0.0
C196 C 0.01553 0.54891 0.94988 0.0
C197 C 0.01126 0.51702 0.9315 0.0
C198 C 0.95452 0.42976 0.9487 0.0
C199 C 0.94061 0.43995 0.9594 0.0
C200 C 0.96849 0.44444 0.94018 0.0
C201 C 0.96858 0.46965 0.94204 0.0
C202 C 0.94143 0.46511 0.96158 0.0
C203 C 0.95536 0.4798 0.95301 0.0
C204 C 0.98285 0.48545 0.93284 0.0
C205 C 0.92777 0.4545 0.90397 0.0
C206 C 0.93672 0.43844 0.89383 0.0
C207 C 0.9429 0.4687 0.91208 0.0
C208 C 0.96723 0.46713 0.91013 0.0
C209 C 0.96109 0.43669 0.89202 0.0
C210 C 0.97621 0.45112 0.90001 0.0
C211 C 0.98325 0.4832 0.91801 0.0
H212 H 0.04195 0.58818 0.9007 0.0
H213 H 0.01784 0.56406 0.9168 0.0
H214 H 0.06096 0.52338 0.87805 0.0
H215 H 0.03784 0.49911 0.89451 0.0
H216 H 0.0821 0.55421 0.9424 0.0
H217 H 0.05865 0.52458 0.92943 0.0
H218 H 0.02047 0.5769 0.96524 0.0
H219 H 0.99693 0.54761 0.95202 0.0
H220 H 0.95421 0.41047 0.94667 0.0
H221 H 0.97915 0.43607 0.93209 0.0
H222 H 0.93124 0.47347 0.9699 0.0
H223 H 0.95547 0.49916 0.9548 0.0
H224 H 0.90905 0.45616 0.90557 0.0
H225 H 0.93559 0.48128 0.91965 0.0
H226 H 0.96842 0.42467 0.88415 0.0
H227 H 0.99492 0.44984 0.89827 0.0
N228 N 0.99794 0.49759 0.91051 0.0
N229 N 0.99668 0.50244 0.93899 0.0
C230 C 0.43509 0.53359 0.13957 0.0
C231 C 0.44212 0.54909 0.1286 0.0
C232 C 0.45177 0.52301 0.14844 0.0
C233 C 0.47572 0.5277 0.14643 0.0
C234 C 0.46612 0.55353 0.12655 0.0
C235 C 0.48277 0.54276 0.13531 0.0
C236 C 0.49364 0.51656 0.15561 0.0
C237 C 0.455 0.57096 0.18111 0.0
C238 C 0.44239 0.56129 0.19255 0.0
C239 C 0.47177 0.55713 0.17413 0.0
C240 C 0.47594 0.5331 0.17818 0.0
C241 C 0.44711 0.53743 0.19688 0.0
C242 C 0.46383 0.52349 0.18978 0.0
C243 C 0.49322 0.51818 0.17049 0.0
C244 C 0.58701 0.47561 0.18601 0.0
C245 C 0.58069 0.46079 0.19745 0.0
C246 C 0.56982 0.48672 0.17777 0.0
C247 C 0.54598 0.48302 0.18073 0.0
C248 C 0.55682 0.45792 0.20072 0.0
C249 C 0.53963 0.46904 0.19247 0.0
C250 C 0.52763 0.49384 0.17172 0.0
C251 C 0.56219 0.43825 0.14348 0.0
C252 C 0.57358 0.44821 0.13168 0.0
C253 C 0.54798 0.4527 0.15203 0.0
C254 C 0.54494 0.47734 0.14891 0.0
C255 C 0.57097 0.47301 0.12882 0.0
C256 C 0.55662 0.48738 0.13729 0.0
C257 C 0.52795 0.4922 0.15684 0.0
H258 H 0.4167 0.52988 0.14137 0.0
H259 H 0.446 0.51108 0.15682 0.0
H260 H 0.47203 0.56512 0.11804 0.0
H261 H 0.50117 0.54642 0.13351 0.0
H262 H 0.45169 0.58916 0.17738 0.0
H263 H 0.48142 0.56525 0.1655 0.0
H264 H 0.43801 0.52956 0.20579 0.0
H265 H 0.46705 0.5051 0.19321 0.0
H266 H 0.60525 0.47855 0.18339 0.0
H267 H 0.57517 0.49812 0.16905 0.0
H268 H 0.55135 0.44644 0.20937 0.0
H269 H 0.52134 0.46615 0.19501 0.0
H270 H 0.56394 0.41919 0.14594 0.0
H271 H 0.53876 0.44445 0.16079 0.0
H272 H 0.57925 0.4811 0.11968 0.0
H273 H 0.55431 0.50629 0.13462 0.0
N274 N 0.51104 0.50375 0.14937 0.0
N275 N 0.51016 0.50663 0.178 0.0
C276 C 0.45819 0.92419 0.39703 0.0
C277 C 0.44327 0.93232 0.38621 0.0
C278 C 0.46946 0.94075 0.40588 0.0
C279 C 0.46592 0.96572 0.40411 0.0
C280 C 0.44005 0.95734 0.38435 0.0
C281 C 0.45141 0.97387 0.39315 0.0
C282 C 0.47778 0.98349 0.41334 0.0
C283 C 0.42582 0.94352 0.43932 0.0
C284 C 0.4353 0.93053 0.45069 0.0
C285 C 0.43926 0.9607 0.43224 0.0
C286 C 0.46272 0.96468 0.43609 0.0
C287 C 0.45836 0.93529 0.45503 0.0
C288 C 0.472 0.95222 0.44775 0.0
C289 C 0.47734 0.98225 0.42825 0.0
C290 C 0.52696 0.07475 0.44467 0.0
C291 C 0.54226 0.06595 0.4551 0.0
C292 C 0.51363 0.05877 0.43654 0.0
C293 C 0.51563 0.03368 0.43855 0.0
C294 C 0.54338 0.04088 0.45753 0.0
C295 C 0.53011 0.02491 0.44936 0.0
C296 C 0.50281 0.01643 0.42945 0.0
C297 C 0.55427 0.05404 0.40052 0.0
C298 C 0.54368 0.06695 0.38943 0.0
C299 C 0.54101 0.03843 0.40894 0.0
C300 C 0.51689 0.03565 0.40651 0.0
C301 C 0.51949 0.06426 0.38713 0.0
C302 C 0.50627 0.04867 0.39554 0.0
C303 C 0.50291 0.01786 0.41456 0.0
H304 H 0.46097 0.90503 0.39873 0.0
H305 H 0.48097 0.93407 0.41409 0.0
H306 H 0.42897 0.96415 0.37596 0.0
H307 H 0.44867 0.99306 0.3915 0.0
H308 H 0.40787 0.94057 0.43601 0.0
H309 H 0.43128 0.97086 0.42373 0.0
H310 H 0.46593 0.92558 0.46386 0.0
H311 H 0.48992 0.9553 0.45107 0.0
H312 H 0.52539 0.094 0.44274 0.0
H313 H 0.50197 0.06601 0.42857 0.0
H314 H 0.55513 0.03351 0.46541 0.0
H315 H 0.53173 0.00563 0.45119 0.0
H316 H 0.57285 0.05579 0.40258 0.0
H317 H 0.54972 0.02813 0.41713 0.0
H318 H 0.51087 0.07359 0.37852 0.0
H319 H 0.48774 0.04656 0.39337 0.0
N320 N 0.49033 0.00138 0.4071 0.0
N321 N 0.49009 -0.00138 0.43573 0.0
C322 C 0.05967 0.94654 0.64625 0.0
C323 C 0.0485 0.932 0.63609 0.0
C324 C 0.04671 0.96255 0.65456 0.0
C325 C 0.02228 0.96413 0.65301 0.0
C326 C 0.02406 0.93375 0.63451 0.0
C327 C 0.01112 0.94973 0.64284 0.0
C328 C 0.00842 0.98166 0.66136 0.0
C329 C 0.03579 0.92807 0.69264 0.0
C330 C 0.05206 0.93762 0.70229 0.0
C331 C 0.02259 0.94339 0.68406 0.0
C332 C 0.02553 0.96856 0.68489 0.0
C333 C 0.05485 0.96285 0.70319 0.0
C334 C 0.04152 0.9782 0.69464 0.0
C335 C 0.01116 0.98482 0.67607 0.0
C336 C 0.93307 0.05211 0.69152 0.0
C337 C 0.9451 0.06989 0.69925 0.0
C338 C 0.94546 0.03477 0.68382 0.0
C339 C 0.97005 0.0349 0.68383 0.0
C340 C 0.9697 0.06969 0.69943 0.0
C341 C 0.98207 0.05217 0.6919 0.0
C342 C 0.98338 0.01695 0.6756 0.0
C343 C 0.95026 0.06786 0.6444 0.0
C344 C 0.93557 0.05674 0.63439 0.0
C345 C 0.96474 0.05396 0.65309 0.0
C346 C 0.96446 0.02859 0.65218 0.0
C347 C 0.93554 0.03134 0.63341 0.0
C348 C 0.94986 0.01745 0.6422 0.0
C349 C 0.98027 0.01354 0.66094 0.0
H350 H 0.07844 0.94557 0.64778 0.0
H351 H 0.05586 0.97395 0.66205 0.0
H352 H 0.01496 0.92316 0.6266 0.0
H353 H 0.99234 0.95086 0.64133 0.0
H354 H 0.0334 0.90871 0.69162 0.0
H355 H 0.00995 0.93556 0.67686 0.0
H356 H 0.06708 0.9707 0.71064 0.0
H357 H 0.04382 0.99759 0.69555 0.0
H358 H 0.9141 0.05194 0.69119 0.0
H359 H 0.93588 0.02131 0.67783 0.0
H360 H 0.97936 0.08307 0.70544 0.0
H361 H 0.00105 0.05239 0.69213 0.0
H362 H 0.95066 0.08735 0.64552 0.0
H363 H 0.97641 0.06311 0.66035 0.0
H364 H 0.92484 0.02215 0.62563 0.0
H365 H 0.94959 0.99792 0.64115 0.0
N366 N 0.99291 0.99599 0.6544 0.0
N367 N -0.00127 0.00252 0.6826 0.0
C368 C 0.24165 0.69568 0.01097 0.0
O369 O 0.24994 0.69333 0.02383 0.0
O370 O 0.30125 0.68164 0.01995 0.0
Zn371 Zn 0.29067 0.6996 0.00267 0.0
O372 O 0.30439 0.68321 0.98558 0.0
C373 C 0.32577 0.7341 0.00534 0.0
O374 O 0.3377 0.71385 0.00425 0.0
O375 O 0.25573 0.69923 0.0008 0.0
C376 C 0.31157 0.69485 0.97485 0.0
O377 O 0.30994 0.71855 0.97467 0.0
C378 C 0.29825 0.65921 0.02225 0.0
O379 O 0.28654 0.64614 0.01305 0.0
O380 O 0.30357 0.73324 0.00456 0.0
C381 C 0.24458 0.80155 0.25092 0.0
O382 O 0.2561 0.80609 0.23922 0.0
O383 O 0.30434 0.80161 0.24391 0.0
Zn384 Zn 0.28961 0.78394 0.26026 0.0
O385 O 0.30494 0.79539 0.27817 0.0
C386 C 0.28787 0.73848 0.24632 0.0
O387 O 0.27508 0.75123 0.23751 0.0
O388 O 0.25515 0.79144 0.26115 0.0
C389 C 0.32625 0.79051 0.28079 0.0
O390 O 0.33804 0.77695 0.27189 0.0
C391 C 0.31169 0.82322 0.24513 0.0
O392 O 0.30963 0.8343 0.25733 0.0
O393 O 0.29543 0.74852 0.25749 0.0
C394 C 0.24458 0.80406 0.51127 0.0
O395 O 0.23614 0.8116 0.5234 0.0
O396 O 0.18558 0.80212 0.52392 0.0
Zn397 Zn 0.19675 0.78786 0.50554 0.0
O398 O 0.17984 0.80487 0.48984 0.0
C399 C 0.19819 0.73882 0.51463 0.0
O400 O 0.21204 0.74844 0.52419 0.0
O401 O 0.23115 0.79329 0.50262 0.0
C402 C 0.18316 0.79928 0.47699 0.0
O403 O 0.19735 0.78132 0.47393 0.0
C404 C 0.16656 0.79441 0.52925 0.0
O405 O 0.15514 0.77696 0.52281 0.0
O406 O 0.18962 0.75232 0.50509 0.0
C407 C 0.25425 0.69112 0.74803 0.0
O408 O 0.24539 0.6886 0.73532 0.0
O409 O 0.19533 0.67849 0.73894 0.0
Zn410 Zn 0.20564 0.69648 0.75646 0.0
O411 O 0.19154 0.67971 0.77336 0.0
C412 C 0.17201 0.734 0.75558 0.0
O413 O 0.15821 0.71504 0.7566 0.0
O414 O 0.24065 0.69528 0.75836 0.0
C415 C 0.18484 0.69096 0.78435 0.0
O416 O 0.18733 0.71455 0.78502 0.0
C417 C 0.18985 0.68944 0.72761 0.0
O418 O 0.19145 0.71313 0.72706 0.0
O419 O 0.19404 0.73081 0.75546 0.0
C420 C 0.7412 0.18734 0.50946 0.0
O421 O 0.75019 0.1836 0.52204 0.0
O422 O 0.80063 0.18479 0.51967 0.0
Zn423 Zn 0.78846 0.20257 0.50245 0.0
O424 O 0.80585 0.19074 0.48526 0.0
C425 C 0.78479 0.24931 0.51525 0.0
O426 O 0.7703 0.23754 0.52355 0.0
O427 O 0.75415 0.19573 0.49971 0.0
C428 C 0.82804 0.18898 0.48536 0.0
O429 O 0.83964 0.19542 0.49672 0.0
C430 C 0.81688 0.19375 0.52724 0.0
O431 O 0.82574 0.21489 0.52383 0.0
O432 O 0.79409 0.23819 0.50494 0.0
C433 C 0.73734 0.30866 0.75167 0.0
O434 O 0.7462 0.31207 0.73903 0.0
O435 O 0.79566 0.32761 0.74414 0.0
Zn436 Zn 0.78604 0.30665 0.76059 0.0
O437 O 0.79838 0.32131 0.77861 0.0
C438 C 0.82126 0.27007 0.75979 0.0
O439 O 0.83397 0.28787 0.76489 0.0
O440 O 0.75105 0.30532 0.76206 0.0
C441 C 0.80341 0.30947 0.7897 0.0
O442 O 0.80035 0.28591 0.78992 0.0
C443 C 0.81291 0.34205 0.7452 0.0
O444 O 0.82404 0.34373 0.7573 0.0
O445 O 0.79965 0.2736 0.75731 0.0
C446 C 0.74832 0.30234 0.00693 0.0
O447 O 0.73844 0.30349 0.01943 0.0
O448 O 0.6887 0.30557 0.01513 0.0
Zn449 Zn 0.70177 0.28869 0.99799 0.0
O450 O 0.68547 0.30096 0.9806 0.0
C451 C 0.70198 0.24241 0.01129 0.0
O452 O 0.71344 0.25461 0.02099 0.0
O453 O 0.73615 0.29581 0.99635 0.0
C454 C 0.66447 0.29495 0.97785 0.0
O455 O 0.65352 0.28001 0.98639 0.0
C456 C 0.67811 0.32573 0.01431 0.0
O457 O 0.67553 0.33608 0.00192 0.0
O458 O 0.69579 0.25314 4e-05 0.0
C459 C 0.72966 0.18027 0.26496 0.0
O460 O 0.71028 0.16746 0.26465 0.0
O461 O 0.68196 0.20404 0.2426 0.0
Zn462 Zn 0.69586 0.21633 0.26085 0.0
O463 O 0.67631 0.20468 0.27727 0.0
C464 C 0.70464 0.26377 0.25003 0.0
O465 O 0.71546 0.25132 0.24018 0.0
O466 O 0.72837 0.20306 0.26337 0.0
C467 C 0.66049 0.1887 0.27567 0.0
O468 O 0.65626 0.1802 0.26297 0.0
C469 C 0.69398 0.19503 0.23261 0.0
O470 O 0.71688 0.194 0.23378 0.0
O471 O 0.6956 0.25258 0.26039 0.0
C472 C 0.08357 0.93096 0.28515 0.0
C473 C 0.07164 0.92175 0.29689 0.0
C474 C 0.09853 0.91612 0.27736 0.0
C475 C 0.1181 0.85181 0.2729 0.0
H476 H 0.1757 0.88281 0.26094 0.0
C477 C 0.20717 0.80393 0.2646 0.0
C478 C 0.22061 0.811 0.25288 0.0
C479 C 0.18582 0.81525 0.26747 0.0
C480 C 0.15955 0.87395 0.26401 0.0
H481 H 0.06531 0.89 0.30966 0.0
H482 H 0.09232 0.86421 0.29656 0.0
H483 H 0.14441 0.90718 0.27079 0.0
H484 H 0.22165 0.83455 0.23456 0.0
H485 H 0.18456 0.85462 0.23977 0.0
H486 H 0.13427 0.81831 0.26686 0.0
C487 C 0.08967 0.8826 0.29296 0.0
C488 C 0.1415 0.88793 0.26962 0.0
C489 C 0.07432 0.89735 0.30055 0.0
C490 C 0.21174 0.82874 0.24369 0.0
C491 C 0.19056 0.84028 0.24668 0.0
C492 C 0.13639 0.83776 0.26751 0.0
C493 C 0.10232 0.89191 0.28141 0.0
C494 C 0.12061 0.87705 0.2743 0.0
C495 C 0.17771 0.83403 0.25877 0.0
C496 C 0.15735 0.84873 0.26315 0.0
H497 H 0.08152 0.94974 0.2821 0.0
H498 H 0.10744 0.9238 0.26833 0.0
H499 H 0.10213 0.84281 0.27614 0.0
H500 H 0.2135 0.79021 0.27182 0.0
H501 H 0.17629 0.81021 0.27691 0.0
C502 C 0.08912 0.55318 0.53644 0.0
C503 C 0.092 0.54755 0.55081 0.0
C504 C 0.10397 0.5698 0.52984 0.0
C505 C 0.15995 0.60331 0.53373 0.0
H506 H 0.12671 0.65454 0.51425 0.0
C507 C 0.19674 0.69958 0.52775 0.0
C508 C 0.1907 0.71329 0.51581 0.0
C509 C 0.18762 0.67636 0.52963 0.0
C510 C 0.13642 0.64018 0.51936 0.0
H511 H 0.11331 0.55443 0.56937 0.0
H512 H 0.13925 0.58315 0.55785 0.0
H513 H 0.10563 0.61854 0.52167 0.0
H514 H 0.17146 0.71285 0.49606 0.0
H515 H 0.15587 0.67215 0.49922 0.0
H516 H 0.19065 0.62529 0.53173 0.0
C517 C 0.12567 0.57454 0.55163 0.0
C518 C 0.1243 0.61951 0.52363 0.0
C519 C 0.11078 0.55803 0.55824 0.0
C520 C 0.17626 0.70284 0.50545 0.0
C521 C 0.16724 0.67955 0.50729 0.0
C522 C 0.17213 0.62395 0.52939 0.0
C523 C 0.12208 0.58105 0.53746 0.0
C524 C 0.13579 0.60113 0.53117 0.0
C525 C 0.17236 0.66626 0.51956 0.0
C526 C 0.16037 0.64291 0.52247 0.0
H527 H 0.07508 0.54511 0.53036 0.0
H528 H 0.10099 0.57425 0.51885 0.0
H529 H 0.16932 0.58927 0.53936 0.0
H530 H 0.20784 0.7071 0.53593 0.0
H531 H 0.19172 0.66678 0.53929 0.0
C532 C 0.42064 0.60401 0.80211 0.0
C533 C 0.43261 0.58532 0.79513 0.0
C534 C 0.40602 0.61965 0.79463 0.0
C535 C 0.37034 0.62099 0.7625 0.0
H536 H 0.36023 0.68769 0.77364 0.0
C537 C 0.29332 0.67557 0.74013 0.0
C538 C 0.27928 0.68598 0.75069 0.0
C539 C 0.31591 0.66746 0.74328 0.0
C540 C 0.36294 0.66912 0.77037 0.0
H541 H 0.43961 0.56916 0.77472 0.0
H542 H 0.41411 0.59661 0.7616 0.0
H543 H 0.39341 0.66532 0.78335 0.0
H544 H 0.27851 0.69763 0.77255 0.0
H545 H 0.31778 0.68344 0.77805 0.0
H546 H 0.33948 0.6245 0.74989 0.0
C547 C 0.41573 0.59888 0.77291 0.0
C548 C 0.38188 0.65629 0.77595 0.0
C549 C 0.43031 0.58316 0.78041 0.0
C550 C 0.28882 0.68953 0.7642 0.0
C551 C 0.31142 0.68156 0.76733 0.0
C552 C 0.35148 0.63384 0.75688 0.0
C553 C 0.40308 0.61703 0.77998 0.0
C554 C 0.38537 0.63185 0.77241 0.0
C555 C 0.32495 0.6698 0.75702 0.0
C556 C 0.34717 0.65781 0.76108 0.0
H557 H 0.4218 0.60594 0.81347 0.0
H558 H 0.39623 0.63312 0.80046 0.0
H559 H 0.37232 0.60212 0.75967 0.0
H560 H 0.28652 0.6727 0.72958 0.0
H561 H 0.32605 0.6587 0.73509 0.0
C562 C 0.41035 0.91768 0.05616 0.0
C563 C 0.4342 0.91517 0.0595 0.0
C564 C 0.3987 0.89957 0.0486 0.0
C565 C 0.40355 0.83446 0.04085 0.0
H566 H 0.35543 0.84724 0.01291 0.0
C567 C 0.36263 0.75739 0.00921 0.0
C568 C 0.33805 0.75695 0.00863 0.0
C569 C 0.3744 0.77805 0.01378 0.0
C570 C 0.36876 0.84345 0.02075 0.0
H571 H 0.46491 0.89261 0.05687 0.0
H572 H 0.44477 0.86124 0.0435 0.0
H573 H 0.37618 0.88108 0.02398 0.0
H574 H 0.30656 0.77826 0.01168 0.0
H575 H 0.32723 0.81444 0.0198 0.0
H576 H 0.39617 0.79698 0.03772 0.0
C577 C 0.43484 0.87678 0.04705 0.0
C578 C 0.3806 0.86279 0.02709 0.0
C579 C 0.4464 0.89474 0.05468 0.0
C580 C 0.32552 0.77803 0.01206 0.0
C581 C 0.33734 0.79877 0.01665 0.0
C582 C 0.39184 0.81523 0.03448 0.0
C583 C 0.41075 0.87872 0.04417 0.0
C584 C 0.39818 0.85847 0.0372 0.0
C585 C 0.36187 0.79874 0.01789 0.0
C586 C 0.37437 0.81948 0.02435 0.0
H587 H 0.40054 0.93323 0.05982 0.0
H588 H 0.3801 0.90152 0.04666 0.0
H589 H 0.41656 0.83048 0.04884 0.0
H590 H 0.37283 0.74155 0.00648 0.0
H591 H 0.39335 0.77767 0.01437 0.0
C592 C 0.08283 0.60109 0.95508 0.0
C593 C 0.06721 0.58607 0.96243 0.0
C594 C 0.09686 0.61759 0.96235 0.0
C595 C 0.12514 0.62608 0.99627 0.0
H596 H 0.13883 0.68996 0.98148 0.0
C597 C 0.20166 0.68185 0.01843 0.0
C598 C 0.21669 0.6908 0.00791 0.0
C599 C 0.17915 0.6738 0.01494 0.0
C600 C 0.13518 0.67219 0.98576 0.0
H601 H 0.05368 0.57671 0.9831 0.0
H602 H 0.0785 0.6055 0.99588 0.0
H603 H 0.10704 0.6662 0.9712 0.0
H604 H 0.21933 0.69989 0.98568 0.0
H605 H 0.18049 0.68559 0.9796 0.0
H606 H 0.15401 0.63138 0.01029 0.0
C607 C 0.07977 0.60452 0.98448 0.0
C608 C 0.11698 0.65863 0.97989 0.0
C609 C 0.06554 0.58817 0.97718 0.0
C610 C 0.20826 0.69296 0.99403 0.0
C611 C 0.18584 0.68493 0.99056 0.0
C612 C 0.14345 0.63957 0.00208 0.0
C613 C 0.09568 0.61927 0.97713 0.0
C614 C 0.11227 0.63515 0.9848 0.0
C615 C 0.17126 0.67461 0.00088 0.0
C616 C 0.14917 0.66246 0.99658 0.0
H617 H 0.08428 0.6 0.9437 0.0
H618 H 0.10917 0.62851 0.95643 0.0
H619 H 0.122 0.60796 0.0002 0.0
H620 H 0.20759 0.68011 0.02924 0.0
H621 H 0.1682 0.66626 0.02318 0.0
C622 C 0.4029 0.56579 0.20411 0.0
C623 C 0.42425 0.57612 0.19974 0.0
C624 C 0.38523 0.58027 0.20988 0.0
C625 C 0.35758 0.61633 0.22889 0.0
H626 H 0.34332 0.67439 0.20754 0.0
C627 C 0.31167 0.70135 0.2512 0.0
C628 C 0.29667 0.71434 0.24219 0.0
C629 C 0.32318 0.68064 0.24637 0.0
C630 C 0.34682 0.65809 0.21353 0.0
H631 H 0.44421 0.60953 0.19881 0.0
H632 H 0.41319 0.63475 0.20848 0.0
H633 H 0.37237 0.64601 0.19862 0.0
H634 H 0.2805 0.71467 0.22145 0.0
H635 H 0.3007 0.67859 0.21304 0.0
H636 H 0.33243 0.62892 0.24405 0.0
C637 C 0.41008 0.61551 0.20729 0.0
C638 C 0.36363 0.642 0.20849 0.0
C639 C 0.42778 0.60107 0.2017 0.0
C640 C 0.29213 0.70523 0.22861 0.0
C641 C 0.30373 0.68461 0.22377 0.0
C642 C 0.3409 0.63265 0.23405 0.0
C643 C 0.38853 0.60533 0.21122 0.0
C644 C 0.36943 0.6212 0.21622 0.0
C645 C 0.31997 0.67261 0.23244 0.0
C646 C 0.33558 0.65382 0.22647 0.0
H647 H 0.39952 0.54668 0.20264 0.0
H648 H 0.36872 0.57205 0.21282 0.0
H649 H 0.3618 0.60038 0.23504 0.0
H650 H 0.31542 0.70781 0.26176 0.0
H651 H 0.33568 0.67182 0.25327 0.0
C652 C 0.41723 0.9134 0.4726 0.0
C653 C 0.42082 0.91223 0.45796 0.0
C654 C 0.40126 0.89779 0.47912 0.0
C655 C 0.34891 0.86194 0.46997 0.0
H656 H 0.35451 0.83789 0.50828 0.0
C657 C 0.27719 0.80285 0.49372 0.0
C658 C 0.26859 0.81065 0.50686 0.0
C659 C 0.29841 0.81164 0.48856 0.0
C660 C 0.35276 0.84453 0.49757 0.0
H661 H 0.41203 0.89295 0.43879 0.0
H662 H 0.38479 0.86517 0.45016 0.0
H663 H 0.3873 0.85975 0.49754 0.0
H664 H 0.27632 0.83255 0.52529 0.0
H665 H 0.31343 0.84807 0.51617 0.0
H666 H 0.31443 0.84701 0.46998 0.0
C667 C 0.39357 0.87861 0.45659 0.0
C668 C 0.37147 0.85709 0.49143 0.0
C669 C 0.40924 0.8944 0.45007 0.0
C670 C 0.2824 0.82628 0.5151 0.0
C671 C 0.30371 0.83508 0.50992 0.0
C672 C 0.33038 0.8493 0.47604 0.0
C673 C 0.38881 0.88059 0.47111 0.0
C674 C 0.36969 0.86606 0.47757 0.0
C675 C 0.31154 0.82841 0.49641 0.0
C676 C 0.33202 0.84056 0.48992 0.0
H677 H 0.42594 0.9271 0.47887 0.0
H678 H 0.3979 0.89997 0.49029 0.0
H679 H 0.34661 0.86911 0.45942 0.0
H680 H 0.26714 0.79058 0.48717 0.0
H681 H 0.30423 0.80585 0.47822 0.0
C682 C 0.0903 0.92469 0.71295 0.0
C683 C 0.06608 0.92115 0.71128 0.0
C684 C 0.10375 0.90798 0.72051 0.0
C685 C 0.09963 0.85663 0.74563 0.0
H686 H 0.15531 0.83359 0.72647 0.0
C687 C 0.13755 0.76171 0.75419 0.0
C688 C 0.16193 0.75842 0.75376 0.0
C689 C 0.12779 0.78437 0.75148 0.0
C690 C 0.1401 0.84011 0.73213 0.0
H691 H 0.03676 0.89811 0.71682 0.0
H692 H 0.06018 0.86881 0.7298 0.0
H693 H 0.13463 0.86878 0.71734 0.0
H694 H 0.19527 0.77652 0.75066 0.0
H695 H 0.17814 0.8162 0.74593 0.0
H696 H 0.10469 0.82742 0.76016 0.0
C697 C 0.06883 0.88451 0.72536 0.0
C698 C 0.12824 0.8603 0.72689 0.0
C699 C 0.05544 0.90113 0.71777 0.0
C700 C 0.1764 0.77846 0.751 0.0
C701 C 0.16661 0.80115 0.74824 0.0
C702 C 0.11149 0.83644 0.75087 0.0
C703 C 0.09318 0.88752 0.72662 0.0
C704 C 0.10753 0.86838 0.73337 0.0
C705 C 0.14217 0.80426 0.74826 0.0
C706 C 0.1315 0.82759 0.74395 0.0
H707 H 0.09899 0.93993 0.70802 0.0
H708 H 0.12245 0.91088 0.7214 0.0
H709 H 0.08395 0.8627 0.75099 0.0
H710 H 0.12592 0.74667 0.75632 0.0
H711 H 0.10889 0.78607 0.75139 0.0
C712 C 0.57265 0.39201 0.80603 0.0
C713 C 0.55801 0.40829 0.79884 0.0
C714 C 0.5867 0.37585 0.79855 0.0
C715 C 0.61705 0.37121 0.76499 0.0
H716 H 0.63232 0.30695 0.7786 0.0
C717 C 0.69715 0.32057 0.74353 0.0
C718 C 0.712 0.31197 0.75425 0.0
C719 C 0.67405 0.32714 0.74661 0.0
C720 C 0.6282 0.32483 0.77463 0.0
H721 H 0.54593 0.41986 0.77823 0.0
H722 H 0.57062 0.39153 0.7651 0.0
H723 H 0.59893 0.32858 0.7886 0.0
H724 H 0.71378 0.30186 0.77636 0.0
H725 H 0.67383 0.31356 0.78174 0.0
H726 H 0.64696 0.36811 0.75158 0.0
C727 C 0.57122 0.39136 0.77653 0.0
C728 C 0.60909 0.33718 0.78035 0.0
C729 C 0.55702 0.40745 0.78403 0.0
C730 C 0.70285 0.30859 0.76787 0.0
C731 C 0.67982 0.31511 0.77093 0.0
C732 C 0.6362 0.3589 0.75931 0.0
C733 C 0.5865 0.37568 0.78372 0.0
C734 C 0.60382 0.36083 0.77593 0.0
C735 C 0.66536 0.32513 0.76045 0.0
C736 C 0.64248 0.33592 0.76442 0.0
H737 H 0.57355 0.39208 0.81745 0.0
H738 H 0.59847 0.3642 0.8044 0.0
H739 H 0.61357 0.38949 0.76145 0.0
H740 H 0.70362 0.32322 0.7329 0.0
H741 H 0.66323 0.3345 0.73826 0.0
C742 C 0.60105 0.07922 0.06656 0.0
C743 C 0.58244 0.06789 0.05944 0.0
C744 C 0.61682 0.09389 0.05927 0.0
C745 C 0.62036 0.132 0.02787 0.0
H746 H 0.68638 0.1347 0.03744 0.0
C747 C 0.67987 0.20517 0.00426 0.0
C748 C 0.69359 0.21761 0.01422 0.0
C749 C 0.66928 0.18318 0.00775 0.0
C750 C 0.66798 0.13416 0.03466 0.0
H751 H 0.56629 0.0624 0.03896 0.0
H752 H 0.59378 0.08828 0.02621 0.0
H753 H 0.66182 0.10279 0.04739 0.0
H754 H 0.70812 0.21602 0.03537 0.0
H755 H 0.68941 0.17793 0.04153 0.0
H756 H 0.62622 0.16382 0.01557 0.0
C757 C 0.596 0.08593 0.03748 0.0
C758 C 0.65393 0.11591 0.04035 0.0
C759 C 0.58023 0.07118 0.04478 0.0
C760 C 0.69759 0.20695 0.02746 0.0
C761 C 0.68697 0.18499 0.03097 0.0
C762 C 0.63438 0.15026 0.0222 0.0
C763 C 0.61432 0.09763 0.04468 0.0
C764 C 0.62986 0.11499 0.03727 0.0
C765 C 0.67219 0.1732 0.02129 0.0
C766 C 0.65823 0.15188 0.02579 0.0
H767 H 0.60303 0.0774 0.07788 0.0
H768 H 0.63047 0.10301 0.06516 0.0
H769 H 0.60182 0.13197 0.02543 0.0
H770 H 0.67662 0.21279 0.99391 0.0
H771 H 0.65831 0.17432 -2e-05 0.0
C772 C 0.91902 0.09113 0.29836 0.0
C773 C 0.91525 0.06782 0.3039 0.0
C774 C 0.90062 0.10402 0.29218 0.0
C775 C 0.84228 0.09664 0.27618 0.0
H776 H 0.83144 0.16231 0.28902 0.0
C777 C 0.7532 0.14328 0.27011 0.0
C778 C 0.75243 0.16822 0.26732 0.0
C779 C 0.77448 0.13181 0.2728 0.0
C780 C 0.83443 0.14417 0.2851 0.0
H781 H 0.88909 0.03989 0.30726 0.0
H782 H 0.85722 0.0622 0.29627 0.0
H783 H 0.86639 0.14071 0.29678 0.0
H784 H 0.77346 0.20064 0.26486 0.0
H785 H 0.81079 0.18048 0.2694 0.0
H786 H 0.81028 0.09993 0.26461 0.0
C787 C 0.87446 0.07038 0.2966 0.0
C788 C 0.85444 0.13179 0.28957 0.0
C789 C 0.89276 0.05758 0.30287 0.0
C790 C 0.77348 0.18141 0.26705 0.0
C791 C 0.79484 0.16988 0.2697 0.0
C792 C 0.82237 0.10905 0.27164 0.0
C793 C 0.87815 0.0938 0.29129 0.0
C794 C 0.85829 0.10774 0.28539 0.0
C795 C 0.79555 0.14497 0.2727 0.0
C796 C 0.81794 0.13277 0.2763 0.0
H797 H 0.9362 0.09941 0.29876 0.0
H798 H 0.90399 0.12197 0.28805 0.0
H799 H 0.84502 0.07824 0.27262 0.0
H800 H 0.7373 0.13259 0.27044 0.0
H801 H 0.77431 0.1127 0.27532 0.0
C802 C 0.89721 0.40913 0.57099 0.0
C803 C 0.91437 0.41875 0.562 0.0
C804 C 0.87934 0.39458 0.5656 0.0
C805 C 0.85088 0.37407 0.5322 0.0
H806 H 0.83598 0.31764 0.55481 0.0
C807 C 0.80954 0.28588 0.51062 0.0
C808 C 0.79343 0.27359 0.51926 0.0
C809 C 0.82049 0.30697 0.51539 0.0
C810 C 0.83962 0.33352 0.54846 0.0
H811 H 0.92611 0.42134 0.54034 0.0
H812 H 0.89533 0.39521 0.53089 0.0
H813 H 0.86272 0.34788 0.56404 0.0
H814 H 0.77502 0.27468 0.53929 0.0
H815 H 0.79424 0.31143 0.54761 0.0
H816 H 0.82841 0.35882 0.51635 0.0
C817 C 0.89528 0.39932 0.54207 0.0
C818 C 0.85495 0.35093 0.55376 0.0
C819 C 0.91299 0.41418 0.54746 0.0
C820 C 0.78746 0.28361 0.53241 0.0
C821 C 0.79853 0.3046 0.53721 0.0
C822 C 0.83567 0.35646 0.52683 0.0
C823 C 0.87845 0.38901 0.55112 0.0
C824 C 0.86095 0.37135 0.54567 0.0
C825 C 0.81564 0.31608 0.52892 0.0
C826 C 0.83004 0.33592 0.53488 0.0
H827 H 0.89771 0.41275 0.58222 0.0
H828 H 0.86638 0.38748 0.57284 0.0
H829 H 0.85483 0.38973 0.52576 0.0
H830 H 0.81444 0.27869 0.50041 0.0
H831 H 0.8337 0.31536 0.50881 0.0
C832 C 0.56991 0.10112 0.45568 0.0
C833 C 0.55796 0.08267 0.46291 0.0
C834 C 0.5863 0.11554 0.46268 0.0
C835 C 0.62598 0.11363 0.49314 0.0
H836 H 0.63635 0.18101 0.48357 0.0
C837 C 0.70351 0.16726 0.51633 0.0
C838 C 0.71687 0.17989 0.50628 0.0
C839 C 0.68138 0.15821 0.51282 0.0
C840 C 0.63366 0.1622 0.48634 0.0
H841 H 0.55296 0.06566 0.4833 0.0
H842 H 0.58155 0.09095 0.49557 0.0
H843 H 0.60205 0.15997 0.47424 0.0
H844 H 0.71702 0.19389 0.48488 0.0
H845 H 0.67857 0.17802 0.47876 0.0
H846 H 0.65785 0.11566 0.50494 0.0
C847 C 0.57853 0.09398 0.48443 0.0
C848 C 0.61405 0.15014 0.48099 0.0
C849 C 0.56217 0.0795 0.47741 0.0
C850 C 0.70723 0.18416 0.49285 0.0
C851 C 0.68509 0.17522 0.48938 0.0
C852 C 0.64554 0.1257 0.49851 0.0
C853 C 0.59109 0.11188 0.47708 0.0
C854 C 0.61027 0.12556 0.48408 0.0
C855 C 0.67212 0.16174 0.49923 0.0
C856 C 0.64987 0.14996 0.49492 0.0
H857 H 0.56732 0.10379 0.44446 0.0
H858 H 0.59592 0.12888 0.45664 0.0
H859 H 0.6238 0.09462 0.49558 0.0
H860 H 0.71038 0.16376 0.52679 0.0
H861 H 0.67167 0.14813 0.52068 0.0
C862 C 0.93826 0.11334 0.70508 0.0
C863 C 0.93209 0.08897 0.70687 0.0
C864 C 0.92594 0.1315 0.7121 0.0
C865 C 0.86989 0.14348 0.73066 0.0
H866 H 0.90311 0.20115 0.74256 0.0
C867 C 0.82196 0.23137 0.74614 0.0
C868 C 0.83242 0.24688 0.75604 0.0
C869 C 0.83361 0.21056 0.7416 0.0
C870 C 0.89353 0.18504 0.73955 0.0
H871 H 0.90847 0.06431 0.71748 0.0
H872 H 0.88729 0.09597 0.73015 0.0
H873 H 0.92474 0.16781 0.73232 0.0
H874 H 0.8626 0.25213 0.76958 0.0
H875 H 0.88252 0.21534 0.76214 0.0
H876 H 0.83878 0.16044 0.73838 0.0
C877 C 0.90126 0.10118 0.72305 0.0
C878 C 0.90594 0.16603 0.73342 0.0
C879 C 0.91342 0.08303 0.71586 0.0
C880 C 0.85426 0.24065 0.7618 0.0
C881 C 0.86573 0.21963 0.75744 0.0
C882 C 0.8575 0.1624 0.73699 0.0
C883 C 0.90734 0.12567 0.72124 0.0
C884 C 0.89424 0.14517 0.72865 0.0
C885 C 0.85582 0.20459 0.74704 0.0
C886 C 0.86912 0.1836 0.74132 0.0
H887 H 0.95239 0.1184 0.69804 0.0
H888 H 0.93078 0.15014 0.71015 0.0
H889 H 0.86023 0.12781 0.72703 0.0
H890 H 0.80518 0.23579 0.74147 0.0
H891 H 0.82553 0.19968 0.73343 0.0
C892 C 0.93151 0.40129 0.97227 0.0
C893 C 0.92459 0.42448 0.96782 0.0
C894 C 0.91571 0.3861 0.97924 0.0
C895 C 0.85885 0.38552 0.99806 0.0
H896 H 0.85361 0.32026 0.98335 0.0
C897 C 0.78491 0.32192 0.01604 0.0
C898 C 0.77254 0.31113 0.00486 0.0
C899 C 0.80666 0.3328 0.01366 0.0
C900 C 0.85494 0.33839 0.98761 0.0
H901 H 0.89574 0.45001 0.96738 0.0
H902 H 0.86831 0.42363 0.97955 0.0
H903 H 0.88561 0.34623 0.97548 0.0
H904 H 0.77385 0.3021 0.98258 0.0
H905 H 0.81159 0.3212 0.97841 0.0
H906 H 0.82753 0.37814 0.00964 0.0
C907 C 0.88603 0.41728 0.97785 0.0
C908 C 0.87339 0.35319 0.98322 0.0
C909 C 0.90177 0.43242 0.97086 0.0
C910 C 0.78288 0.31035 0.99142 0.0
C911 C 0.80462 0.32115 0.98905 0.0
C912 C 0.84043 0.37072 0.00247 0.0
C913 C 0.89271 0.39384 0.98194 0.0
C914 C 0.87516 0.37713 0.98811 0.0
C915 C 0.81649 0.33299 6e-05 0.0
C916 C 0.83793 0.34722 0.99701 0.0
H917 H 0.94909 0.39479 0.97029 0.0
H918 H 0.92143 0.36822 0.98241 0.0
H919 H 0.85994 0.40379 0.00215 0.0
H920 H 0.77748 0.3227 0.02655 0.0
H921 H 0.81554 0.34153 0.02238 0.0
C922 C 0.61722 0.43575 0.1983 0.0
C923 C 0.5988 0.44728 0.20546 0.0
C924 C 0.63296 0.421 0.20558 0.0
C925 C 0.63485 0.38263 0.23688 0.0
H926 H 0.70013 0.37495 0.22651 0.0
C927 C 0.68775 0.303 0.2584 0.0
C928 C 0.69972 0.28979 0.24798 0.0
C929 C 0.6797 0.32637 0.2556 0.0
C930 C 0.68194 0.3769 0.22953 0.0
H931 H 0.5833 0.45355 0.22603 0.0
H932 H 0.61078 0.42766 0.23877 0.0
H933 H 0.67772 0.40899 0.2171 0.0
H934 H 0.7141 0.2914 0.22681 0.0
H935 H 0.69969 0.3319 0.22182 0.0
H936 H 0.63862 0.3501 0.24879 0.0
C937 C 0.61282 0.42979 0.22747 0.0
C938 C 0.66912 0.39638 0.22415 0.0
C939 C 0.59706 0.44456 0.22018 0.0
C940 C 0.70485 0.30104 0.23505 0.0
C941 C 0.6967 0.32437 0.23222 0.0
C942 C 0.64762 0.36318 0.24223 0.0
C943 C 0.63063 0.41743 0.2202 0.0
C944 C 0.64527 0.39909 0.22748 0.0
C945 C 0.68336 0.33698 0.24229 0.0
C946 C 0.67115 0.35972 0.23834 0.0
H947 H 0.61887 0.43721 0.18694 0.0
H948 H 0.64624 0.41145 0.19962 0.0
H949 H 0.61644 0.38397 0.2395 0.0
H950 H 0.68377 0.29495 0.26855 0.0
H951 H 0.66989 0.3358 0.26368 0.0
C952 C 0.08543 0.93861 0.39637 0.0
C953 C 0.08443 0.93221 0.38203 0.0
C954 C 0.09769 0.92428 0.40599 0.0
C955 C 0.11995 0.8622 0.41103 0.0
H956 H 0.15405 0.8917 0.44199 0.0
C957 C 0.17481 0.80715 0.45139 0.0
C958 C 0.17213 0.81372 0.46563 0.0
C959 C 0.16502 0.82135 0.44068 0.0
C960 C 0.14446 0.88321 0.43345 0.0
H961 H 0.09602 0.90608 0.36647 0.0
H962 H 0.11769 0.88112 0.38328 0.0
H963 H 0.13615 0.91729 0.42403 0.0
H964 H 0.15685 0.84022 0.4798 0.0
H965 H 0.1398 0.86489 0.46115 0.0
H966 H 0.12833 0.82809 0.42052 0.0
C967 C 0.10863 0.89702 0.38712 0.0
C968 C 0.13419 0.89786 0.42317 0.0
C969 C 0.09628 0.91133 0.37749 0.0
C970 C 0.15929 0.83465 0.46894 0.0
C971 C 0.14965 0.8489 0.45825 0.0
C972 C 0.13035 0.84753 0.4213 0.0
C973 C 0.10933 0.90323 0.40151 0.0
C974 C 0.12154 0.88755 0.41193 0.0
C975 C 0.15251 0.84248 0.44401 0.0
C976 C 0.14245 0.8579 0.43271 0.0
H977 H 0.07613 0.95433 0.40026 0.0
H978 H 0.09748 0.92938 0.41703 0.0
H979 H 0.11009 0.85367 0.40263 0.0
H980 H 0.18461 0.79113 0.44849 0.0
H981 H 0.16761 0.81604 0.42979 0.0
C982 C 0.08303 0.5873 0.63252 0.0
C983 C 0.08798 0.56244 0.63144 0.0
C984 C 0.09603 0.60212 0.64154 0.0
C985 C 0.1505 0.60411 0.66342 0.0
H986 H 0.11585 0.65308 0.68398 0.0
C987 C 0.1833 0.65051 0.71464 0.0
C988 C 0.18068 0.67577 0.71538 0.0
C989 C 0.17372 0.63753 0.70336 0.0
C990 C 0.1258 0.63964 0.6782 0.0
H991 H 0.11131 0.534 0.63864 0.0
H992 H 0.1331 0.55948 0.65488 0.0
H993 H 0.09594 0.62887 0.6662 0.0
H994 H 0.16624 0.70724 0.70482 0.0
H995 H 0.14915 0.68444 0.68527 0.0
H996 H 0.18012 0.61443 0.676 0.0
C997 C 0.11946 0.5677 0.64855 0.0
C998 C 0.11444 0.62582 0.66794 0.0
C999 C 0.10668 0.55295 0.63937 0.0
C1000 C 0.16857 0.6878 0.70454 0.0
C1001 C 0.1587 0.67477 0.69339 0.0
C1002 C 0.16177 0.61774 0.67385 0.0
C1003 C 0.11411 0.59244 0.6499 0.0
C1004 C 0.1266 0.6078 0.66042 0.0
C1005 C 0.16106 0.64951 0.69274 0.0
C1006 C 0.14949 0.63558 0.68135 0.0
H1007 H 0.06864 0.59529 0.62672 0.0
H1008 H 0.09167 0.62116 0.64207 0.0
H1009 H 0.16056 0.59073 0.6577 0.0
H1010 H 0.19261 0.64075 0.72281 0.0
H1011 H 0.17564 0.61803 0.70315 0.0
C1012 C 0.42905 0.60185 0.88161 0.0
C1013 C 0.42347 0.5777 0.87845 0.0
C1014 C 0.41537 0.615 0.89114 0.0
C1015 C 0.37833 0.60676 0.92185 0.0
H1016 H 0.35524 0.67127 0.91382 0.0
C1017 C 0.31926 0.6568 0.96136 0.0
C1018 C 0.32252 0.68183 0.96295 0.0
C1019 C 0.33021 0.64431 0.95039 0.0
C1020 C 0.36181 0.65341 0.91632 0.0
H1021 H 0.3993 0.54834 0.88268 0.0
H1022 H 0.37559 0.57124 0.89952 0.0
H1023 H 0.37726 0.64932 0.89582 0.0
H1024 H 0.33972 0.71346 0.95427 0.0
H1025 H 0.35956 0.6916 0.93544 0.0
H1026 H 0.36383 0.61094 0.94245 0.0
C1027 C 0.39042 0.58001 0.89454 0.0
C1028 C 0.37432 0.64083 0.90598 0.0
C1029 C 0.40385 0.567 0.88486 0.0
C1030 C 0.33677 0.69418 0.95326 0.0
C1031 C 0.34803 0.68163 0.9424 0.0
C1032 C 0.36616 0.61943 0.93226 0.0
C1033 C 0.39615 0.60407 0.89784 0.0
C1034 C 0.38263 0.61739 0.90865 0.0
C1035 C 0.34501 0.65649 0.94087 0.0
C1036 C 0.35769 0.64293 0.92964 0.0
H1037 H 0.44403 0.61051 0.87674 0.0
H1038 H 0.42021 0.63349 0.89357 0.0
H1039 H 0.38486 0.58882 0.92423 0.0
H1040 H 0.30817 0.64682 0.96859 0.0
H1041 H 0.32701 0.62508 0.94938 0.0
C1042 C 0.40091 0.93925 0.14796 0.0
C1043 C 0.42343 0.93068 0.14463 0.0
C1044 C 0.38694 0.92704 0.15776 0.0
C1045 C 0.38087 0.86852 0.17683 0.0
H1046 H 0.34632 0.90743 0.20375 0.0
C1047 C 0.32204 0.82516 0.21945 0.0
C1048 C 0.32263 0.83563 0.23297 0.0
C1049 C 0.33268 0.83674 0.20802 0.0
C1050 C 0.35599 0.89628 0.19638 0.0
H1051 H 0.4485 0.90199 0.14861 0.0
H1052 H 0.42453 0.88122 0.16601 0.0
H1053 H 0.36816 0.92717 0.18496 0.0
H1054 H 0.33483 0.86646 0.24508 0.0
H1055 H 0.35385 0.88636 0.22524 0.0
H1056 H 0.36956 0.83768 0.18862 0.0
C1057 C 0.41749 0.89719 0.16093 0.0
C1058 C 0.36824 0.9076 0.18546 0.0
C1059 C 0.43139 0.90931 0.15109 0.0
C1060 C 0.33397 0.85797 0.23479 0.0
C1061 C 0.34474 0.86947 0.22338 0.0
C1062 C 0.36873 0.85721 0.1878 0.0
C1063 C 0.39518 0.90603 0.16451 0.0
C1064 C 0.38102 0.89388 0.17562 0.0
C1065 C 0.34429 0.85898 0.20985 0.0
C1066 C 0.35631 0.87096 0.19779 0.0
H1067 H 0.39428 0.95576 0.14328 0.0
H1068 H 0.36971 0.93417 0.1601 0.0
H1069 H 0.39025 0.85736 0.16933 0.0
H1070 H 0.3133 0.80803 0.21768 0.0
H1071 H 0.33166 0.82832 0.19771 0.0
C1072 C 0.08448 0.5881 0.88286 0.0
C1073 C 0.06711 0.57209 0.8781 0.0
C1074 C 0.09808 0.60108 0.87319 0.0
C1075 C 0.11477 0.60166 0.83512 0.0
H1076 H 0.13646 0.66633 0.84401 0.0
C1077 C 0.15841 0.68984 0.80537 0.0
C1078 C 0.17326 0.67769 0.79594 0.0
C1079 C 0.14642 0.67706 0.81585 0.0
C1080 C 0.13035 0.64839 0.84126 0.0
H1081 H 0.04966 0.55762 0.85966 0.0
H1082 H 0.07253 0.58096 0.84278 0.0
H1083 H 0.11259 0.64451 0.86098 0.0
H1084 H 0.18799 0.64285 0.79039 0.0
H1085 H 0.16799 0.62069 0.80903 0.0
H1086 H 0.13132 0.60599 0.81511 0.0
C1087 C 0.07644 0.58292 0.85391 0.0
C1088 C 0.11693 0.63568 0.85113 0.0
C1089 C 0.06318 0.56965 0.86356 0.0
C1090 C 0.17643 0.65264 0.79743 0.0
C1091 C 0.16481 0.63993 0.80807 0.0
C1092 C 0.12784 0.6145 0.82518 0.0
C1093 C 0.09429 0.59861 0.85856 0.0
C1094 C 0.10889 0.61215 0.84818 0.0
C1095 C 0.14934 0.65188 0.8173 0.0
C1096 C 0.13582 0.63806 0.82809 0.0
H1097 H 0.08791 0.59012 0.89405 0.0
H1098 H 0.11185 0.61266 0.87721 0.0
H1099 H 0.10934 0.58342 0.83253 0.0
H1100 H 0.1555 0.70913 0.80441 0.0
H1101 H 0.1344 0.68689 0.82257 0.0
C1102 C 0.42637 0.58522 0.11589 0.0
C1103 C 0.42463 0.56052 0.11917 0.0
C1104 C 0.41084 0.59582 0.10635 0.0
C1105 C 0.35422 0.58673 0.08768 0.0
H1106 H 0.38116 0.63295 0.06151 0.0
C1107 C 0.30721 0.62292 0.0373 0.0
C1108 C 0.30964 0.64781 0.03461 0.0
C1109 C 0.31957 0.61205 0.04838 0.0
C1110 C 0.37332 0.62026 0.06883 0.0
H1111 H 0.40506 0.5276 0.11527 0.0
H1112 H 0.37815 0.54598 0.09832 0.0
H1113 H 0.40586 0.6144 0.07937 0.0
H1114 H 0.32626 0.68097 0.04179 0.0
H1115 H 0.34773 0.66201 0.061 0.0
H1116 H 0.32171 0.5924 0.07678 0.0
C1117 C 0.39124 0.55729 0.10332 0.0
C1118 C 0.38745 0.60966 0.07911 0.0
C1119 C 0.40668 0.54673 0.11299 0.0
C1120 C 0.32408 0.66171 0.04349 0.0
C1121 C 0.33649 0.65086 0.05447 0.0
C1122 C 0.34007 0.59724 0.07728 0.0
C1123 C 0.39336 0.5819 0.09972 0.0
C1124 C 0.37808 0.59291 0.08875 0.0
C1125 C 0.33469 0.62586 0.05689 0.0
C1126 C 0.34947 0.61426 0.06783 0.0
H1127 H 0.4398 0.59635 0.1207 0.0
H1128 H 0.41264 0.61494 0.10411 0.0
H1129 H 0.34638 0.57406 0.095 0.0
H1130 H 0.29617 0.61173 0.03068 0.0
H1131 H 0.31793 0.59272 0.04999 0.0
C1132 C 0.40757 0.91812 0.37321 0.0
C1133 C 0.43125 0.91485 0.37677 0.0
C1134 C 0.39641 0.90219 0.36395 0.0
C1135 C 0.40868 0.86003 0.33505 0.0
H1136 H 0.34503 0.83834 0.3417 0.0
C1137 C 0.36148 0.79586 0.29629 0.0
C1138 C 0.33806 0.8015 0.29314 0.0
C1139 C 0.37303 0.80739 0.30744 0.0
C1140 C 0.36274 0.84439 0.33963 0.0
H1141 H 0.46178 0.89223 0.3735 0.0
H1142 H 0.44223 0.8643 0.35731 0.0
H1143 H 0.3649 0.86289 0.35945 0.0
H1144 H 0.30826 0.82336 0.29939 0.0
H1145 H 0.32847 0.84372 0.31862 0.0
H1146 H 0.4064 0.84211 0.3151 0.0
C1147 C 0.43234 0.87926 0.36167 0.0
C1148 C 0.37412 0.85841 0.34981 0.0
C1149 C 0.44347 0.89511 0.37102 0.0
C1150 C 0.32629 0.81853 0.30156 0.0
C1151 C 0.33785 0.83012 0.31266 0.0
C1152 C 0.39727 0.84611 0.32484 0.0
C1153 C 0.40873 0.88271 0.35798 0.0
C1154 C 0.39713 0.86659 0.34757 0.0
C1155 C 0.36144 0.82487 0.31565 0.0
C1156 C 0.37407 0.83833 0.32693 0.0
H1157 H 0.39765 0.93304 0.37759 0.0
H1158 H 0.37827 0.90546 0.36121 0.0
H1159 H 0.42631 0.86632 0.33294 0.0
H1160 H 0.37102 0.78272 0.29006 0.0
H1161 H 0.39109 0.80265 0.30959 0.0
C1162 C 0.05375 0.89257 0.62329 0.0
C1163 C 0.0623 0.91564 0.62684 0.0
C1164 C 0.0661 0.87772 0.61398 0.0
C1165 C 0.12418 0.86822 0.59762 0.0
H1166 H 0.08818 0.8372 0.56799 0.0
C1167 C 0.16659 0.82701 0.54767 0.0
C1168 C 0.15653 0.80594 0.54197 0.0
C1169 C 0.15603 0.83884 0.55905 0.0
C1170 C 0.0985 0.84538 0.57632 0.0
H1171 H 0.09073 0.94106 0.62346 0.0
H1172 H 0.11231 0.91509 0.60726 0.0
H1173 H 0.06808 0.86049 0.58608 0.0
H1174 H 0.12805 0.78021 0.54414 0.0
H1175 H 0.10991 0.80057 0.56412 0.0
H1176 H 0.15464 0.85323 0.58777 0.0
C1177 C 0.09617 0.90839 0.61182 0.0
C1178 C 0.08695 0.85876 0.58669 0.0
C1179 C 0.08379 0.92327 0.62111 0.0
C1180 C 0.13614 0.79653 0.54819 0.0
C1181 C 0.12565 0.80828 0.5596 0.0
C1182 C 0.13575 0.85475 0.58726 0.0
C1183 C 0.08731 0.88557 0.60801 0.0
C1184 C 0.09966 0.87047 0.5974 0.0
C1185 C 0.13524 0.8298 0.56502 0.0
C1186 C 0.12304 0.84329 0.57643 0.0
H1187 H 0.03746 0.88597 0.62772 0.0
H1188 H 0.05901 0.86007 0.61142 0.0
H1189 H 0.13443 0.87681 0.60584 0.0
H1190 H 0.18229 0.83474 0.54311 0.0
H1191 H 0.16377 0.8555 0.56287 0.0
C1192 C 0.57933 0.41841 0.88473 0.0
C1193 C 0.55558 0.41475 0.88149 0.0
C1194 C 0.59092 0.403 0.89409 0.0
C1195 C 0.57975 0.36172 0.92365 0.0
H1196 H 0.6438 0.34139 0.917 0.0
C1197 C 0.62887 0.29936 0.96256 0.0
C1198 C 0.65213 0.3058 0.96566 0.0
C1199 C 0.6169 0.3105 0.95145 0.0
C1200 C 0.62597 0.34706 0.91905 0.0
H1201 H 0.52538 0.39191 0.88542 0.0
H1202 H 0.5457 0.36484 0.90172 0.0
H1203 H 0.6232 0.36478 0.89903 0.0
H1204 H 0.68118 0.32874 0.95938 0.0
H1205 H 0.66024 0.34834 0.94016 0.0
H1206 H 0.58264 0.34447 0.94378 0.0
C1207 C 0.5553 0.37974 0.89707 0.0
C1208 C 0.61418 0.36043 0.90876 0.0
C1209 C 0.54374 0.39509 0.88763 0.0
C1210 C 0.66329 0.3233 0.95726 0.0
C1211 C 0.65132 0.33445 0.94617 0.0
C1212 C 0.59157 0.34841 0.93396 0.0
C1213 C 0.57897 0.38364 0.90047 0.0
C1214 C 0.59102 0.36813 0.911 0.0
C1215 C 0.62793 0.32833 0.9432 0.0
C1216 C 0.61491 0.34115 0.93186 0.0
H1217 H 0.58898 0.43324 0.88004 0.0
H1218 H 0.60909 0.40663 0.8966 0.0
H1219 H 0.56203 0.36767 0.92577 0.0
H1220 H 0.61981 0.28587 0.9688 0.0
H1221 H 0.599 0.30514 0.94932 0.0
C1222 C 0.5992 0.07195 0.14153 0.0
C1223 C 0.57563 0.07816 0.13941 0.0
C1224 C 0.61357 0.08629 0.15005 0.0
C1225 C 0.61701 0.14652 0.16774 0.0
H1226 H 0.66046 0.11299 0.19239 0.0
C1227 C 0.65813 0.18858 0.21787 0.0
C1228 C 0.68209 0.18434 0.22023 0.0
C1229 C 0.64652 0.17727 0.20668 0.0
C1230 C 0.64862 0.12263 0.18544 0.0
H1231 H 0.54858 0.10423 0.14438 0.0
H1232 H 0.57337 0.12891 0.15961 0.0
H1233 H 0.63749 0.09002 0.1754 0.0
H1234 H 0.71277 0.16534 0.21254 0.0
H1235 H 0.69234 0.14531 0.1931 0.0
H1236 H 0.62762 0.17903 0.17831 0.0
C1237 C 0.58104 0.11336 0.15443 0.0
C1238 C 0.63548 0.10949 0.17565 0.0
C1239 C 0.56677 0.09918 0.14575 0.0
C1240 C 0.69431 0.16897 0.211 0.0
C1241 C 0.68262 0.15742 0.19992 0.0
C1242 C 0.62996 0.15962 0.17767 0.0
C1243 C 0.60458 0.10697 0.1568 0.0
C1244 C 0.61938 0.12123 0.16673 0.0
C1245 C 0.65857 0.16129 0.19774 0.0
C1246 C 0.64578 0.14776 0.18666 0.0
H1247 H 0.60653 0.05598 0.13659 0.0
H1248 H 0.63172 0.08108 0.15137 0.0
H1249 H 0.60511 0.15624 0.16088 0.0
H1250 H 0.64824 0.20038 0.22477 0.0
H1251 H 0.62793 0.18042 0.2053 0.0
C1252 C 0.91816 0.08906 0.38274 0.0
C1253 C 0.94064 0.08025 0.386 0.0
C1254 C 0.90559 0.10271 0.39258 0.0
C1255 C 0.91272 0.1404 0.42429 0.0
H1256 H 0.84834 0.12269 0.43221 0.0
C1257 C 0.86468 0.17375 0.47396 0.0
C1258 C 0.84064 0.17892 0.47305 0.0
C1259 C 0.8765 0.16342 0.46257 0.0
C1260 C 0.86616 0.12819 0.42997 0.0
H1261 H 0.96738 0.07883 0.40229 0.0
H1262 H 0.94566 0.10301 0.41928 0.0
H1263 H 0.86966 0.10181 0.41354 0.0
H1264 H 0.81024 0.17778 0.45931 0.0
H1265 H 0.83099 0.1602 0.4393 0.0
H1266 H 0.90932 0.16679 0.44066 0.0
C1267 C 0.93787 0.09951 0.40905 0.0
C1268 C 0.87838 0.11616 0.41929 0.0
C1269 C 0.95034 0.08569 0.39928 0.0
C1270 C 0.82875 0.17389 0.46039 0.0
C1271 C 0.84062 0.16369 0.44894 0.0
C1272 C 0.90047 0.15256 0.43488 0.0
C1273 C 0.91533 0.10804 0.40584 0.0
C1274 C 0.90188 0.12192 0.41648 0.0
C1275 C 0.86461 0.15816 0.44993 0.0
C1276 C 0.87714 0.14636 0.43801 0.0
H1277 H 0.9103 0.08554 0.37253 0.0
H1278 H 0.88833 0.10927 0.38978 0.0
H1279 H 0.93073 0.14545 0.4222 0.0
H1280 H 0.87434 0.17729 0.48359 0.0
H1281 H 0.89487 0.15904 0.46381 0.0
C1282 C 0.90348 0.45218 0.64635 0.0
C1283 C 0.92197 0.43801 0.64112 0.0
C1284 C 0.88816 0.44284 0.65649 0.0
C1285 C 0.86756 0.38565 0.67262 0.0
H1286 H 0.85518 0.42574 0.70537 0.0
C1287 C 0.81154 0.35168 0.71933 0.0
C1288 C 0.82138 0.35562 0.73275 0.0
C1289 C 0.82074 0.36329 0.70745 0.0
C1290 C 0.85845 0.41434 0.69628 0.0
H1291 H 0.93833 0.40265 0.64197 0.0
H1292 H 0.91182 0.38645 0.65976 0.0
H1293 H 0.87705 0.44244 0.68551 0.0
H1294 H 0.84809 0.37541 0.74426 0.0
H1295 H 0.86414 0.39552 0.72357 0.0
H1296 H 0.84972 0.35728 0.6836 0.0
C1297 C 0.90906 0.40473 0.656 0.0
C1298 C 0.87076 0.42398 0.68485 0.0
C1299 C 0.92441 0.4141 0.64593 0.0
C1300 C 0.84012 0.37194 0.73408 0.0
C1301 C 0.84923 0.38361 0.72223 0.0
C1302 C 0.85517 0.37604 0.68403 0.0
C1303 C 0.89094 0.41909 0.66152 0.0
C1304 C 0.87584 0.4096 0.673 0.0
C1305 C 0.83985 0.37918 0.70876 0.0
C1306 C 0.85087 0.39015 0.69609 0.0
H1307 H 0.90124 0.47072 0.6429 0.0
H1308 H 0.87424 0.45426 0.66047 0.0
H1309 H 0.87098 0.37421 0.66357 0.0
H1310 H 0.79704 0.33926 0.71795 0.0
H1311 H 0.813 0.35971 0.69722 0.0
C1312 C 0.54941 0.10428 0.3747 0.0
C1313 C 0.55792 0.082 0.37969 0.0
C1314 C 0.56181 0.1173 0.3645 0.0
C1315 C 0.60377 0.10746 0.3358 0.0
H1316 H 0.6085 0.17746 0.33559 0.0
C1317 C 0.63182 0.15971 0.28625 0.0
C1318 C 0.64817 0.17847 0.28804 0.0
C1319 C 0.62116 0.14897 0.29792 0.0
C1320 C 0.60745 0.1579 0.33556 0.0
H1321 H 0.58647 0.05625 0.37816 0.0
H1322 H 0.60829 0.07916 0.36055 0.0
H1323 H 0.59048 0.15697 0.35573 0.0
H1324 H 0.66573 0.20107 0.3035 0.0
H1325 H 0.64709 0.18221 0.32393 0.0
H1326 H 0.6208 0.10829 0.31572 0.0
C1327 C 0.59188 0.08643 0.36441 0.0
C1328 C 0.59697 0.14619 0.34702 0.0
C1329 C 0.57952 0.07344 0.37462 0.0
C1330 C 0.65321 0.18665 0.30176 0.0
C1331 C 0.64247 0.17593 0.31346 0.0
C1332 C 0.61414 0.11915 0.32435 0.0
C1333 C 0.58295 0.10827 0.35904 0.0
C1334 C 0.59495 0.12083 0.34724 0.0
C1335 C 0.62655 0.15676 0.31167 0.0
C1336 C 0.61595 0.14449 0.32405 0.0
H1337 H 0.53296 0.11148 0.37853 0.0
H1338 H 0.55439 0.13399 0.36052 0.0
H1339 H 0.60223 0.08793 0.33556 0.0
H1340 H 0.62745 0.15305 0.27582 0.0
H1341 H 0.60866 0.13452 0.29618 0.0
C1342 C 0.8984 0.0638 0.62067 0.0
C1343 C 0.92094 0.07155 0.62467 0.0
C1344 C 0.88511 0.07724 0.61108 0.0
C1345 C 0.87876 0.13805 0.59575 0.0
H1346 H 0.85062 0.1045 0.56404 0.0
C1347 C 0.84654 0.18866 0.54642 0.0
C1348 C 0.82649 0.18017 0.53938 0.0
C1349 C 0.85621 0.17558 0.55759 0.0
C1350 C 0.85799 0.11414 0.57295 0.0
H1351 H 0.94708 0.09961 0.62163 0.0
H1352 H 0.92369 0.12323 0.60515 0.0
H1353 H 0.87066 0.08141 0.58235 0.0
H1354 H 0.80053 0.15153 0.53877 0.0
H1355 H 0.81715 0.12889 0.5585 0.0
H1356 H 0.86613 0.17077 0.58643 0.0
C1357 C 0.91628 0.10683 0.60954 0.0
C1358 C 0.86952 0.10089 0.58342 0.0
C1359 C 0.92965 0.09329 0.61902 0.0
C1360 C 0.81608 0.15848 0.54392 0.0
C1361 C 0.82568 0.14544 0.55518 0.0
C1362 C 0.86708 0.15128 0.58535 0.0
C1363 C 0.89395 0.09885 0.60538 0.0
C1364 C 0.88031 0.11275 0.59482 0.0
C1365 C 0.84596 0.15377 0.5621 0.0
C1366 C 0.85687 0.13953 0.5737 0.0
H1367 H 0.89097 0.04736 0.62499 0.0
H1368 H 0.86784 0.07081 0.60818 0.0
H1369 H 0.88662 0.14763 0.60454 0.0
H1370 H 0.85507 0.20525 0.54315 0.0
H1371 H 0.87206 0.18234 0.56249 0.0
C1372 C 0.90206 0.43602 0.87775 0.0
C1373 C 0.92069 0.4244 0.88466 0.0
C1374 C 0.88779 0.42323 0.86839 0.0
C1375 C 0.8675 0.36278 0.85851 0.0
H1376 H 0.85946 0.39073 0.82129 0.0
C1377 C 0.82717 0.30923 0.81194 0.0
C1378 C 0.81415 0.32207 0.80183 0.0
C1379 C 0.83883 0.32152 0.82277 0.0
C1380 C 0.86109 0.38281 0.8317 0.0
H1381 H 0.9386 0.39022 0.88758 0.0
H1382 H 0.91337 0.3677 0.87128 0.0
H1383 H 0.88179 0.41254 0.83907 0.0
H1384 H 0.80219 0.35768 0.79551 0.0
H1385 H 0.82167 0.37899 0.81466 0.0
H1386 H 0.84647 0.33323 0.85126 0.0
C1387 C 0.90992 0.38672 0.87309 0.0
C1388 C 0.87401 0.3953 0.84186 0.0
C1389 C 0.92442 0.3996 0.88232 0.0
C1390 C 0.81232 0.34731 0.80306 0.0
C1391 C 0.82366 0.35955 0.81399 0.0
C1392 C 0.85426 0.35039 0.84839 0.0
C1393 C 0.8917 0.39852 0.86589 0.0
C1394 C 0.87743 0.38538 0.85533 0.0
C1395 C 0.83745 0.34688 0.82384 0.0
C1396 C 0.85096 0.36021 0.83482 0.0
H1397 H 0.89892 0.45517 0.87929 0.0
H1398 H 0.87376 0.4327 0.86302 0.0
H1399 H 0.86976 0.35483 0.86887 0.0
H1400 H 0.82899 0.28976 0.81121 0.0
H1401 H 0.8495 0.31115 0.83003 0.0
C1402 C 0.57674 0.41081 0.11693 0.0
C1403 C 0.58667 0.43258 0.12172 0.0
C1404 C 0.5877 0.39739 0.10634 0.0
C1405 C 0.64345 0.38762 0.08771 0.0
H1406 H 0.60357 0.36959 0.05624 0.0
C1407 C 0.67457 0.32865 0.04062 0.0
C1408 C 0.66847 0.33723 0.02714 0.0
C1409 C 0.66525 0.33943 0.05272 0.0
C1410 C 0.61491 0.37454 0.06494 0.0
H1411 H 0.61639 0.45675 0.11973 0.0
H1412 H 0.63563 0.43318 0.10122 0.0
H1413 H 0.58648 0.38927 0.07686 0.0
H1414 H 0.64785 0.36384 0.01578 0.0
H1415 H 0.63141 0.38245 0.03691 0.0
H1416 H 0.67193 0.37305 0.07566 0.0
C1417 C 0.61935 0.42656 0.10564 0.0
C1418 C 0.60511 0.38557 0.0768 0.0
C1419 C 0.60828 0.44012 0.11615 0.0
C1420 C 0.6529 0.35681 0.02601 0.0
C1421 C 0.64338 0.36738 0.0381 0.0
C1422 C 0.65323 0.37631 0.07589 0.0
C1423 C 0.6089 0.40534 0.10042 0.0
C1424 C 0.6193 0.39241 0.08825 0.0
C1425 C 0.64944 0.35878 0.05157 0.0
C1426 C 0.63907 0.36991 0.06434 0.0
H1427 H 0.56001 0.40466 0.12095 0.0
H1428 H 0.57937 0.38098 0.1026 0.0
H1429 H 0.65476 0.39263 0.09642 0.0
H1430 H 0.68659 0.31363 0.04183 0.0
H1431 H 0.6701 0.33236 0.06298 0.0
loop_
_geom_bond_atom_site_label_1
_geom_bond_atom_site_label_2
_geom_bond_distance
_geom_bond_site_symmetry_2
_ccdc_geom_bond_type
C0 C1 1.384 . S
C0 C2 1.384 . S
C0 H28 0.931 . S
C1 C0 1.384 . S
C1 C4 1.382 . S
C2 C0 1.384 . S
C2 C3 1.381 . S
C2 H29 0.930 . S
C3 C2 1.381 . S
C3 C5 1.381 . S
C3 C6 1.487 . S
C4 C1 1.382 . S
C4 C5 1.387 . S
C4 H30 0.930 . S
C5 C3 1.381 . S
C5 C4 1.387 . S
C5 H31 0.931 1_565 S
C6 C3 1.487 . S
C6 C13 1.399 . S
C6 N44 1.343 1_565 S
C7 C8 1.384 . S
C7 C9 1.384 . S
C7 H32 0.931 . S
C8 C7 1.384 . S
C8 C11 1.382 . S
C9 C7 1.384 . S
C9 C10 1.381 . S
C9 H33 0.930 . S
C10 C9 1.381 . S
C10 C12 1.381 . S
C10 C13 1.487 . S
C11 C8 1.382 . S
C11 C12 1.387 . S
C11 H34 0.930 . S
C12 C10 1.381 . S
C12 C11 1.387 . S
C12 H35 0.931 . S
C13 C6 1.399 . S
C13 C10 1.487 . S
C13 N45 1.343 1_455 S
C14 C15 1.384 . S
C14 C16 1.384 . S
C14 H36 0.931 . S
C15 C14 1.384 . S
C15 C18 1.382 . S
C16 C14 1.384 . S
C16 C17 1.381 . S
C16 H37 0.930 . S
C17 C16 1.381 . S
C17 C19 1.381 . S
C17 C20 1.487 . S
C18 C15 1.382 . S
C18 C19 1.387 . S
C18 H38 0.930 . S
C19 C17 1.381 . S
C19 C18 1.387 . S
C19 H39 0.931 1_545 S
C20 C17 1.487 . S
C20 C27 1.399 . S
C20 N45 1.343 1_545 S
C21 C22 1.384 . S
C21 C23 1.384 . S
C21 H40 0.931 . S
C22 C21 1.384 . S
C22 C25 1.382 . S
C23 C21 1.384 . S
C23 C24 1.381 . S
C23 H41 0.930 . S
C24 C23 1.381 . S
C24 C26 1.381 . S
C24 C27 1.487 . S
C25 C22 1.382 . S
C25 C26 1.387 . S
C25 H42 0.930 . S
C26 C24 1.381 . S
C26 C25 1.387 . S
C26 H43 0.931 . S
C27 C20 1.399 . S
C27 C24 1.487 . S
C27 N44 1.343 1_655 S
H28 C0 0.931 . S
H29 C2 0.930 . S
H30 C4 0.930 . S
H31 C5 0.931 1_545 S
H32 C7 0.931 . S
H33 C9 0.930 . S
H34 C11 0.930 . S
H35 C12 0.931 . S
H36 C14 0.931 . S
H37 C16 0.930 . S
H38 C18 0.930 . S
H39 C19 0.931 1_565 S
H40 C21 0.931 . S
H41 C23 0.930 . S
H42 C25 0.930 . S
H43 C26 0.931 . S
N44 C6 1.343 1_545 S
N44 C27 1.343 1_455 S
N45 C13 1.343 1_655 S
N45 C20 1.343 1_565 S
C46 C47 1.384 . S
C46 C48 1.384 . S
C46 H74 0.931 . S
C47 C46 1.384 . S
C47 C50 1.382 . S
C48 C46 1.384 . S
C48 C49 1.381 . S
C48 H75 0.930 . S
C49 C48 1.381 . S
C49 C51 1.381 . S
C49 C52 1.487 . S
C50 C47 1.382 . S
C50 C51 1.387 . S
C50 H76 0.930 . S
C51 C49 1.381 . S
C51 C50 1.387 . S
C51 H77 0.931 1_655 S
C52 C49 1.487 . S
C52 C59 1.399 . S
C52 N90 1.343 1_655 S
C53 C54 1.384 . S
C53 C55 1.384 . S
C53 H78 0.931 . S
C54 C53 1.384 . S
C54 C57 1.382 . S
C55 C53 1.384 . S
C55 C56 1.381 . S
C55 H79 0.930 . S
C56 C55 1.381 . S
C56 C58 1.381 . S
C56 C59 1.487 . S
C57 C54 1.382 . S
C57 C58 1.387 . S
C57 H80 0.930 . S
C58 C56 1.381 . S
C58 C57 1.387 . S
C58 H81 0.931 . S
C59 C52 1.399 . S
C59 C56 1.487 . S
C59 N91 1.343 . S
C60 C61 1.384 . S
C60 C62 1.384 . S
C60 H82 0.931 . S
C61 C60 1.384 . S
C61 C64 1.382 . S
C62 C60 1.384 . S
C62 C63 1.381 . S
C62 H83 0.930 . S
C63 C62 1.381 . S
C63 C65 1.381 . S
C63 C66 1.487 . S
C64 C61 1.382 . S
C64 C65 1.387 . S
C64 H84 0.930 . S
C65 C63 1.381 . S
C65 C64 1.387 . S
C65 H85 0.931 1_455 S
C66 C63 1.487 . S
C66 C73 1.399 . S
C66 N91 1.343 1_455 S
C67 C68 1.384 . S
C67 C69 1.384 . S
C67 H86 0.931 . S
C68 C67 1.384 . S
C68 C71 1.382 . S
C69 C67 1.384 . S
C69 C70 1.381 . S
C69 H87 0.930 . S
C70 C69 1.381 . S
C70 C72 1.381 . S
C70 C73 1.487 . S
C71 C68 1.382 . S
C71 C72 1.387 . S
C71 H88 0.930 . S
C72 C70 1.381 . S
C72 C71 1.387 . S
C72 H89 0.931 . S
C73 C66 1.399 . S
C73 C70 1.487 . S
C73 N90 1.343 . S
H74 C46 0.931 . S
H75 C48 0.930 . S
H76 C50 0.930 . S
H77 C51 0.931 1_455 S
H78 C53 0.931 . S
H79 C55 0.930 . S
H80 C57 0.930 . S
H81 C58 0.931 . S
H82 C60 0.931 . S
H83 C62 0.930 . S
H84 C64 0.930 . S
H85 C65 0.931 1_655 S
H86 C67 0.931 . S
H87 C69 0.930 . S
H88 C71 0.930 . S
H89 C72 0.931 . S
N90 C52 1.343 1_455 S
N90 C73 1.343 . S
N91 C59 1.343 . S
N91 C66 1.343 1_655 S
C92 C93 1.384 . S
C92 C94 1.384 . S
C92 H120 0.931 . S
C93 C92 1.384 . S
C93 C96 1.382 . S
C94 C92 1.384 . S
C94 C95 1.381 . S
C94 H121 0.930 . S
C95 C94 1.381 . S
C95 C97 1.381 . S
C95 C98 1.487 . S
C96 C93 1.382 . S
C96 C97 1.387 . S
C96 H122 0.930 . S
C97 C95 1.381 . S
C97 C96 1.387 . S
C97 H123 0.931 . S
C98 C95 1.487 . S
C98 C105 1.399 . S
C98 N136 1.343 . S
C99 C100 1.384 . S
C99 C101 1.384 . S
C99 H124 0.931 . S
C100 C99 1.384 . S
C100 C103 1.382 . S
C101 C99 1.384 . S
C101 C102 1.381 . S
C101 H125 0.930 . S
C102 C101 1.381 . S
C102 C104 1.381 . S
C102 C105 1.487 . S
C103 C100 1.382 . S
C103 C104 1.387 . S
C103 H126 0.930 . S
C104 C102 1.381 . S
C104 C103 1.387 . S
C104 H127 0.931 . S
C105 C98 1.399 . S
C105 C102 1.487 . S
C105 N137 1.343 . S
C106 C107 1.384 . S
C106 C108 1.384 . S
C106 H128 0.931 . S
C107 C106 1.384 . S
C107 C110 1.382 . S
C108 C106 1.384 . S
C108 C109 1.381 . S
C108 H129 0.930 . S
C109 C108 1.381 . S
C109 C111 1.381 . S
C109 C112 1.487 . S
C110 C107 1.382 . S
C110 C111 1.387 . S
C110 H130 0.930 . S
C111 C109 1.381 . S
C111 C110 1.387 . S
C111 H131 0.931 . S
C112 C109 1.487 . S
C112 C119 1.399 . S
C112 N137 1.343 . S
C113 C114 1.384 . S
C113 C115 1.384 . S
C113 H132 0.931 . S
C114 C113 1.384 . S
C114 C117 1.382 . S
C115 C113 1.384 . S
C115 C116 1.381 . S
C115 H133 0.930 . S
C116 C115 1.381 . S
C116 C118 1.381 . S
C116 C119 1.487 . S
C117 C114 1.382 . S
C117 C118 1.387 . S
C117 H134 0.930 . S
C118 C116 1.381 . S
C118 C117 1.387 . S
C118 H135 0.931 . S
C119 C112 1.399 . S
C119 C116 1.487 . S
C119 N136 1.343 . S
H120 C92 0.931 . S
H121 C94 0.930 . S
H122 C96 0.930 . S
H123 C97 0.931 . S
H124 C99 0.931 . S
H125 C101 0.930 . S
H126 C103 0.930 . S
H127 C104 0.931 . S
H128 C106 0.931 . S
H129 C108 0.930 . S
H130 C110 0.930 . S
H131 C111 0.931 . S
H132 C113 0.931 . S
H133 C115 0.930 . S
H134 C117 0.930 . S
H135 C118 0.931 . S
N136 C98 1.343 . S
N136 C119 1.343 . S
N137 C105 1.343 . S
N137 C112 1.343 . S
C138 C139 1.384 . S
C138 C140 1.384 . S
C138 H166 0.931 . S
C139 C138 1.384 . S
C139 C142 1.382 . S
C140 C138 1.384 . S
C140 C141 1.381 . S
C140 H167 0.930 . S
C141 C140 1.381 . S
C141 C143 1.381 . S
C141 C144 1.487 . S
C142 C139 1.382 . S
C142 C143 1.387 . S
C142 H168 0.930 . S
C143 C141 1.381 . S
C143 C142 1.387 . S
C143 H169 0.931 . S
C144 C141 1.487 . S
C144 C151 1.399 . S
C144 N182 1.343 1_565 S
C145 C146 1.384 . S
C145 C147 1.384 . S
C145 H170 0.931 . S
C146 C145 1.384 . S
C146 C149 1.382 . S
C147 C145 1.384 . S
C147 C148 1.381 . S
C147 H171 0.930 . S
C148 C147 1.381 . S
C148 C150 1.381 . S
C148 C151 1.487 . S
C149 C146 1.382 . S
C149 C150 1.387 . S
C149 H172 0.930 . S
C150 C148 1.381 . S
C150 C149 1.387 . S
C150 H173 0.931 . S
C151 C144 1.399 . S
C151 C148 1.487 . S
C151 N183 1.343 . S
C152 C153 1.384 . S
C152 C154 1.384 . S
C152 H174 0.931 . S
C153 C152 1.384 . S
C153 C156 1.382 . S
C154 C152 1.384 . S
C154 C155 1.381 . S
C154 H175 0.930 . S
C155 C154 1.381 . S
C155 C157 1.381 . S
C155 C158 1.487 . S
C156 C153 1.382 . S
C156 C157 1.387 . S
C156 H176 0.930 . S
C157 C155 1.381 . S
C157 C156 1.387 . S
C157 H177 0.931 . S
C158 C155 1.487 . S
C158 C165 1.399 . S
C158 N183 1.343 1_545 S
C159 C160 1.384 . S
C159 C161 1.384 . S
C159 H178 0.931 . S
C160 C159 1.384 . S
C160 C163 1.382 . S
C161 C159 1.384 . S
C161 C162 1.381 . S
C161 H179 0.930 . S
C162 C161 1.381 . S
C162 C164 1.381 . S
C162 C165 1.487 . S
C163 C160 1.382 . S
C163 C164 1.387 . S
C163 H180 0.930 . S
C164 C162 1.381 . S
C164 C163 1.387 . S
C164 H181 0.931 . S
C165 C158 1.399 . S
C165 C162 1.487 . S
C165 N182 1.343 . S
H166 C138 0.931 . S
H167 C140 0.930 . S
H168 C142 0.930 . S
H169 C143 0.931 . S
H170 C145 0.931 . S
H171 C147 0.930 . S
H172 C149 0.930 . S
H173 C150 0.931 . S
H174 C152 0.931 . S
H175 C154 0.930 . S
H176 C156 0.930 . S
H177 C157 0.931 . S
H178 C159 0.931 . S
H179 C161 0.930 . S
H180 C163 0.930 . S
H181 C164 0.931 . S
N182 C144 1.343 1_545 S
N182 C165 1.343 . S
N183 C151 1.343 . S
N183 C158 1.343 1_565 S
C184 C185 1.384 . S
C184 C186 1.384 . S
C184 H212 0.931 . S
C185 C184 1.384 . S
C185 C188 1.382 . S
C186 C184 1.384 . S
C186 C187 1.381 . S
C186 H213 0.930 . S
C187 C186 1.381 . S
C187 C189 1.381 . S
C187 C190 1.487 . S
C188 C185 1.382 . S
C188 C189 1.387 . S
C188 H214 0.930 . S
C189 C187 1.381 . S
C189 C188 1.387 . S
C189 H215 0.931 . S
C190 C187 1.487 . S
C190 C197 1.399 . S
C190 N228 1.343 . S
C191 C192 1.384 . S
C191 C193 1.384 . S
C191 H216 0.931 . S
C192 C191 1.384 . S
C192 C195 1.382 . S
C193 C191 1.384 . S
C193 C194 1.381 . S
C193 H217 0.930 . S
C194 C193 1.381 . S
C194 C196 1.381 . S
C194 C197 1.487 . S
C195 C192 1.382 . S
C195 C196 1.387 . S
C195 H218 0.930 . S
C196 C194 1.381 . S
C196 C195 1.387 . S
C196 H219 0.931 . S
C197 C190 1.399 . S
C197 C194 1.487 . S
C197 N229 1.343 1_455 S
C198 C199 1.384 . S
C198 C200 1.384 . S
C198 H220 0.931 . S
C199 C198 1.384 . S
C199 C202 1.382 . S
C200 C198 1.384 . S
C200 C201 1.381 . S
C200 H221 0.930 . S
C201 C200 1.381 . S
C201 C203 1.381 . S
C201 C204 1.487 . S
C202 C199 1.382 . S
C202 C203 1.387 . S
C202 H222 0.930 . S
C203 C201 1.381 . S
C203 C202 1.387 . S
C203 H223 0.931 . S
C204 C201 1.487 . S
C204 C211 1.399 . S
C204 N229 1.343 . S
C205 C206 1.384 . S
C205 C207 1.384 . S
C205 H224 0.931 . S
C206 C205 1.384 . S
C206 C209 1.382 . S
C207 C205 1.384 . S
C207 C208 1.381 . S
C207 H225 0.930 . S
C208 C207 1.381 . S
C208 C210 1.381 . S
C208 C211 1.487 . S
C209 C206 1.382 . S
C209 C210 1.387 . S
C209 H226 0.930 . S
C210 C208 1.381 . S
C210 C209 1.387 . S
C210 H227 0.931 . S
C211 C204 1.399 . S
C211 C208 1.487 . S
C211 N228 1.343 1_655 S
H212 C184 0.931 . S
H213 C186 0.930 . S
H214 C188 0.930 . S
H215 C189 0.931 . S
H216 C191 0.931 . S
H217 C193 0.930 . S
H218 C195 0.930 . S
H219 C196 0.931 . S
H220 C198 0.931 . S
H221 C200 0.930 . S
H222 C202 0.930 . S
H223 C203 0.931 . S
H224 C205 0.931 . S
H225 C207 0.930 . S
H226 C209 0.930 . S
H227 C210 0.931 . S
N228 C190 1.343 . S
N228 C211 1.343 1_455 S
N229 C197 1.343 1_655 S
N229 C204 1.343 . S
C230 C231 1.384 . S
C230 C232 1.384 . S
C230 H258 0.931 . S
C231 C230 1.384 . S
C231 C234 1.382 . S
C232 C230 1.384 . S
C232 C233 1.381 . S
C232 H259 0.930 . S
C233 C232 1.381 . S
C233 C235 1.381 . S
C233 C236 1.487 . S
C234 C231 1.382 . S
C234 C235 1.387 . S
C234 H260 0.930 . S
C235 C233 1.381 . S
C235 C234 1.387 . S
C235 H261 0.931 . S
C236 C233 1.487 . S
C236 C243 1.399 . S
C236 N274 1.343 . S
C237 C238 1.384 . S
C237 C239 1.384 . S
C237 H262 0.931 . S
C238 C237 1.384 . S
C238 C241 1.382 . S
C239 C237 1.384 . S
C239 C240 1.381 . S
C239 H263 0.930 . S
C240 C239 1.381 . S
C240 C242 1.381 . S
C240 C243 1.487 . S
C241 C238 1.382 . S
C241 C242 1.387 . S
C241 H264 0.930 . S
C242 C240 1.381 . S
C242 C241 1.387 . S
C242 H265 0.931 . S
C243 C236 1.399 . S
C243 C240 1.487 . S
C243 N275 1.343 . S
C244 C245 1.384 . S
C244 C246 1.384 . S
C244 H266 0.931 . S
C245 C244 1.384 . S
C245 C248 1.382 . S
C246 C244 1.384 . S
C246 C247 1.381 . S
C246 H267 0.930 . S
C247 C246 1.381 . S
C247 C249 1.381 . S
C247 C250 1.487 . S
C248 C245 1.382 . S
C248 C249 1.387 . S
C248 H268 0.930 . S
C249 C247 1.381 . S
C249 C248 1.387 . S
C249 H269 0.931 . S
C250 C247 1.487 . S
C250 C257 1.399 . S
C250 N275 1.343 . S
C251 C252 1.384 . S
C251 C253 1.384 . S
C251 H270 0.931 . S
C252 C251 1.384 . S
C252 C255 1.382 . S
C253 C251 1.384 . S
C253 C254 1.381 . S
C253 H271 0.930 . S
C254 C253 1.381 . S
C254 C256 1.381 . S
C254 C257 1.487 . S
C255 C252 1.382 . S
C255 C256 1.387 . S
C255 H272 0.930 . S
C256 C254 1.381 . S
C256 C255 1.387 . S
C256 H273 0.931 . S
C257 C250 1.399 . S
C257 C254 1.487 . S
C257 N274 1.343 . S
H258 C230 0.931 . S
H259 C232 0.930 . S
H260 C234 0.930 . S
H261 C235 0.931 . S
H262 C237 0.931 . S
H263 C239 0.930 . S
H264 C241 0.930 . S
H265 C242 0.931 . S
H266 C244 0.931 . S
H267 C246 0.930 . S
H268 C248 0.930 . S
H269 C249 0.931 . S
H270 C251 0.931 . S
H271 C253 0.930 . S
H272 C255 0.930 . S
H273 C256 0.931 . S
N274 C236 1.343 . S
N274 C257 1.343 . S
N275 C243 1.343 . S
N275 C250 1.343 . S
C276 C277 1.384 . S
C276 C278 1.384 . S
C276 H304 0.931 . S
C277 C276 1.384 . S
C277 C280 1.382 . S
C278 C276 1.384 . S
C278 C279 1.381 . S
C278 H305 0.930 . S
C279 C278 1.381 . S
C279 C281 1.381 . S
C279 C282 1.487 . S
C280 C277 1.382 . S
C280 C281 1.387 . S
C280 H306 0.930 . S
C281 C279 1.381 . S
C281 C280 1.387 . S
C281 H307 0.931 1_565 S
C282 C279 1.487 . S
C282 C289 1.399 . S
C282 N320 1.343 1_565 S
C283 C284 1.384 . S
C283 C285 1.384 . S
C283 H308 0.931 . S
C284 C283 1.384 . S
C284 C287 1.382 . S
C285 C283 1.384 . S
C285 C286 1.381 . S
C285 H309 0.930 . S
C286 C285 1.381 . S
C286 C288 1.381 . S
C286 C289 1.487 . S
C287 C284 1.382 . S
C287 C288 1.387 . S
C287 H310 0.930 . S
C288 C286 1.381 . S
C288 C287 1.387 . S
C288 H311 0.931 . S
C289 C282 1.399 . S
C289 C286 1.487 . S
C289 N321 1.343 . S
C290 C291 1.384 . S
C290 C292 1.384 . S
C290 H312 0.931 . S
C291 C290 1.384 . S
C291 C294 1.382 . S
C292 C290 1.384 . S
C292 C293 1.381 . S
C292 H313 0.930 . S
C293 C292 1.381 . S
C293 C295 1.381 . S
C293 C296 1.487 . S
C294 C291 1.382 . S
C294 C295 1.387 . S
C294 H314 0.930 . S
C295 C293 1.381 . S
C295 C294 1.387 . S
C295 H315 0.931 1_545 S
C296 C293 1.487 . S
C296 C303 1.399 . S
C296 N321 1.343 1_545 S
C297 C298 1.384 . S
C297 C299 1.384 . S
C297 H316 0.931 . S
C298 C297 1.384 . S
C298 C301 1.382 . S
C299 C297 1.384 . S
C299 C300 1.381 . S
C299 H317 0.930 . S
C300 C299 1.381 . S
C300 C302 1.381 . S
C300 C303 1.487 . S
C301 C298 1.382 . S
C301 C302 1.387 . S
C301 H318 0.930 . S
C302 C300 1.381 . S
C302 C301 1.387 . S
C302 H319 0.931 . S
C303 C296 1.399 . S
C303 C300 1.487 . S
C303 N320 1.343 . S
H304 C276 0.931 . S
H305 C278 0.930 . S
H306 C280 0.930 . S
H307 C281 0.931 1_545 S
H308 C283 0.931 . S
H309 C285 0.930 . S
H310 C287 0.930 . S
H311 C288 0.931 . S
H312 C290 0.931 . S
H313 C292 0.930 . S
H314 C294 0.930 . S
H315 C295 0.931 1_565 S
H316 C297 0.931 . S
H317 C299 0.930 . S
H318 C301 0.930 . S
H319 C302 0.931 . S
N320 C282 1.343 1_545 S
N320 C303 1.343 . S
N321 C289 1.343 . S
N321 C296 1.343 1_565 S
C322 C323 1.384 . S
C322 C324 1.384 . S
C322 H350 0.931 . S
C323 C322 1.384 . S
C323 C326 1.382 . S
C324 C322 1.384 . S
C324 C325 1.381 . S
C324 H351 0.930 . S
C325 C324 1.381 . S
C325 C327 1.381 . S
C325 C328 1.487 . S
C326 C323 1.382 . S
C326 C327 1.387 . S
C326 H352 0.930 . S
C327 C325 1.381 . S
C327 C326 1.387 . S
C327 H353 0.931 1_455 S
C328 C325 1.487 . S
C328 C335 1.399 . S
C328 N366 1.343 1_455 S
C329 C330 1.384 . S
C329 C331 1.384 . S
C329 H354 0.931 . S
C330 C329 1.384 . S
C330 C333 1.382 . S
C331 C329 1.384 . S
C331 C332 1.381 . S
C331 H355 0.930 . S
C332 C331 1.381 . S
C332 C334 1.381 . S
C332 C335 1.487 . S
C333 C330 1.382 . S
C333 C334 1.387 . S
C333 H356 0.930 . S
C334 C332 1.381 . S
C334 C333 1.387 . S
C334 H357 0.931 . S
C335 C328 1.399 . S
C335 C332 1.487 . S
C335 N367 1.343 1_565 S
C336 C337 1.384 . S
C336 C338 1.384 . S
C336 H358 0.931 . S
C337 C336 1.384 . S
C337 C340 1.382 . S
C338 C336 1.384 . S
C338 C339 1.381 . S
C338 H359 0.930 . S
C339 C338 1.381 . S
C339 C341 1.381 . S
C339 C342 1.487 . S
C340 C337 1.382 . S
C340 C341 1.387 . S
C340 H360 0.930 . S
C341 C339 1.381 . S
C341 C340 1.387 . S
C341 H361 0.931 1_655 S
C342 C339 1.487 . S
C342 C349 1.399 . S
C342 N367 1.343 1_655 S
C343 C344 1.384 . S
C343 C345 1.384 . S
C343 H362 0.931 . S
C344 C343 1.384 . S
C344 C347 1.382 . S
C345 C343 1.384 . S
C345 C346 1.381 . S
C345 H363 0.930 . S
C346 C345 1.381 . S
C346 C348 1.381 . S
C346 C349 1.487 . S
C347 C344 1.382 . S
C347 C348 1.387 . S
C347 H364 0.930 . S
C348 C346 1.381 . S
C348 C347 1.387 . S
C348 H365 0.931 . S
C349 C342 1.399 . S
C349 C346 1.487 . S
C349 N366 1.343 1_545 S
H350 C322 0.931 . S
H351 C324 0.930 . S
H352 C326 0.930 . S
H353 C327 0.931 1_655 S
H354 C329 0.931 . S
H355 C331 0.930 . S
H356 C333 0.930 . S
H357 C334 0.931 . S
H358 C336 0.931 . S
H359 C338 0.930 . S
H360 C340 0.930 . S
H361 C341 0.931 1_455 S
H362 C343 0.931 . S
H363 C345 0.930 . S
H364 C347 0.930 . S
H365 C348 0.931 . S
N366 C328 1.343 1_655 S
N366 C349 1.343 1_565 S
N367 C335 1.343 1_545 S
N367 C342 1.343 1_455 S
C368 O369 1.160 . S
C368 O375 1.185 . S
O369 C368 1.160 . S
O370 Zn371 1.899 . S
O370 C378 1.284 . S
Zn371 O370 1.899 . S
Zn371 O372 2.032 1_554 S
Zn371 O375 2.086 . S
Zn371 O380 1.977 . S
O372 Zn371 2.032 1_556 S
O372 C376 1.278 . S
C373 O374 1.203 . S
C373 O380 1.267 . S
O374 C373 1.203 . S
O375 C368 1.185 . S
O375 Zn371 2.086 . S
C376 O372 1.278 . S
C376 O377 1.211 . S
O377 C376 1.211 . S
C378 O370 1.284 . S
C378 O379 1.273 . S
O379 C378 1.273 . S
O380 Zn371 1.977 . S
O380 C373 1.267 . S
C381 O382 1.160 . S
C381 O388 1.185 . S
O382 C381 1.160 . S
O383 Zn384 1.899 . S
O383 C391 1.284 . S
Zn384 O383 1.899 . S
Zn384 O385 2.032 . S
Zn384 O388 2.086 . S
Zn384 O393 1.977 . S
O385 Zn384 2.032 . S
O385 C389 1.278 . S
C386 O387 1.203 . S
C386 O393 1.267 . S
O387 C386 1.203 . S
O388 C381 1.185 . S
O388 Zn384 2.086 . S
C389 O385 1.278 . S
C389 O390 1.211 . S
O390 C389 1.211 . S
C391 O383 1.284 . S
C391 O392 1.273 . S
O392 C391 1.273 . S
O393 Zn384 1.977 . S
O393 C386 1.267 . S
C394 O395 1.160 . S
C394 O401 1.185 . S
O395 C394 1.160 . S
O396 Zn397 1.899 . S
O396 C404 1.284 . S
Zn397 O396 1.899 . S
Zn397 O398 2.032 . S
Zn397 O401 2.086 . S
Zn397 O406 1.977 . S
O398 Zn397 2.032 . S
O398 C402 1.278 . S
C399 O400 1.203 . S
C399 O406 1.267 . S
O400 C399 1.203 . S
O401 C394 1.185 . S
O401 Zn397 2.086 . S
C402 O398 1.278 . S
C402 O403 1.211 . S
O403 C402 1.211 . S
C404 O396 1.284 . S
C404 O405 1.273 . S
O405 C404 1.273 . S
O406 Zn397 1.977 . S
O406 C399 1.267 . S
C407 O408 1.160 . S
C407 O414 1.185 . S
O408 C407 1.160 . S
O409 Zn410 1.899 . S
O409 C417 1.284 . S
Zn410 O409 1.899 . S
Zn410 O411 2.032 . S
Zn410 O414 2.086 . S
Zn410 O419 1.977 . S
O411 Zn410 2.032 . S
O411 C415 1.278 . S
C412 O413 1.203 . S
C412 O419 1.267 . S
O413 C412 1.203 . S
O414 C407 1.185 . S
O414 Zn410 2.086 . S
C415 O411 1.278 . S
C415 O416 1.211 . S
O416 C415 1.211 . S
C417 O409 1.284 . S
C417 O418 1.273 . S
O418 C417 1.273 . S
O419 Zn410 1.977 . S
O419 C412 1.267 . S
C420 O421 1.160 . S
C420 O427 1.185 . S
O421 C420 1.160 . S
O422 Zn423 1.899 . S
O422 C430 1.284 . S
Zn423 O422 1.899 . S
Zn423 O424 2.032 . S
Zn423 O427 2.086 . S
Zn423 O432 1.977 . S
O424 Zn423 2.032 . S
O424 C428 1.278 . S
C425 O426 1.203 . S
C425 O432 1.267 . S
O426 C425 1.203 . S
O427 C420 1.185 . S
O427 Zn423 2.086 . S
C428 O424 1.278 . S
C428 O429 1.211 . S
O429 C428 1.211 . S
C430 O422 1.284 . S
C430 O431 1.273 . S
O431 C430 1.273 . S
O432 Zn423 1.977 . S
O432 C425 1.267 . S
C433 O434 1.160 . S
C433 O440 1.185 . S
O434 C433 1.160 . S
O435 Zn436 1.899 . S
O435 C443 1.284 . S
Zn436 O435 1.899 . S
Zn436 O437 2.032 . S
Zn436 O440 2.086 . S
Zn436 O445 1.977 . S
O437 Zn436 2.032 . S
O437 C441 1.278 . S
C438 O439 1.203 . S
C438 O445 1.267 . S
O439 C438 1.203 . S
O440 C433 1.185 . S
O440 Zn436 2.086 . S
C441 O437 1.278 . S
C441 O442 1.211 . S
O442 C441 1.211 . S
C443 O435 1.284 . S
C443 O444 1.273 . S
O444 C443 1.273 . S
O445 Zn436 1.977 . S
O445 C438 1.267 . S
C446 O447 1.160 . S
C446 O453 1.185 . S
O447 C446 1.160 . S
O448 Zn449 1.899 . S
O448 C456 1.284 . S
Zn449 O448 1.899 . S
Zn449 O450 2.032 1_554 S
Zn449 O453 2.086 . S
Zn449 O458 1.977 . S
O450 Zn449 2.032 1_556 S
O450 C454 1.278 . S
C451 O452 1.203 . S
C451 O458 1.267 . S
O452 C451 1.203 . S
O453 C446 1.185 . S
O453 Zn449 2.086 . S
C454 O450 1.278 . S
C454 O455 1.211 . S
O455 C454 1.211 . S
C456 O448 1.284 . S
C456 O457 1.273 . S
O457 C456 1.273 . S
O458 Zn449 1.977 . S
O458 C451 1.267 . S
C459 O460 1.160 . S
C459 O466 1.185 . S
O460 C459 1.160 . S
O461 Zn462 1.899 . S
O461 C469 1.284 . S
Zn462 O461 1.899 . S
Zn462 O463 2.032 . S
Zn462 O466 2.086 . S
Zn462 O471 1.977 . S
O463 Zn462 2.032 . S
O463 C467 1.278 . S
C464 O465 1.203 . S
C464 O471 1.267 . S
O465 C464 1.203 . S
O466 C459 1.185 . S
O466 Zn462 2.086 . S
C467 O463 1.278 . S
C467 O468 1.211 . S
O468 C467 1.211 . S
C469 O461 1.284 . S
C469 O470 1.273 . S
O470 C469 1.273 . S
O471 Zn462 1.977 . S
O471 C464 1.267 . S
C472 C473 1.349 . S
C472 C474 1.327 . S
C472 H497 0.950 . S
C473 C472 1.349 . S
C473 C489 1.349 . S
C474 C472 1.327 . S
C474 C493 1.429 . S
C474 H498 0.950 . S
C475 C492 1.574 . S
C475 C494 1.368 . S
C475 H499 0.949 . S
H476 C480 0.949 . S
C477 C478 1.349 . S
C477 C479 1.327 . S
C477 H500 0.950 . S
C478 C477 1.349 . S
C478 C490 1.349 . S
C479 C477 1.327 . S
C479 C495 1.429 . S
C479 H501 0.950 . S
C480 H476 0.949 . S
C480 C488 1.574 . S
C480 C496 1.368 . S
H481 C489 0.950 . S
H482 C487 0.950 . S
H483 C488 0.949 . S
H484 C490 0.950 . S
H485 C491 0.950 . S
H486 C492 0.949 . S
C487 H482 0.950 . S
C487 C489 1.327 . S
C487 C493 1.429 . S
C488 C480 1.574 . S
C488 H483 0.949 . S
C488 C494 1.368 . S
C489 C473 1.349 . S
C489 H481 0.950 . S
C489 C487 1.327 . S
C490 C478 1.349 . S
C490 H484 0.950 . S
C490 C491 1.327 . S
C491 H485 0.950 . S
C491 C490 1.327 . S
C491 C495 1.429 . S
C492 C475 1.574 . S
C492 H486 0.949 . S
C492 C496 1.368 . S
C493 C474 1.429 . S
C493 C487 1.429 . S
C493 C494 1.523 . S
C494 C475 1.368 . S
C494 C488 1.368 . S
C494 C493 1.523 . S
C495 C479 1.429 . S
C495 C491 1.429 . S
C495 C496 1.523 . S
C496 C480 1.368 . S
C496 C492 1.368 . S
C496 C495 1.523 . S
H497 C472 0.950 . S
H498 C474 0.950 . S
H499 C475 0.949 . S
H500 C477 0.950 . S
H501 C479 0.950 . S
C502 C503 1.349 . S
C502 C504 1.327 . S
C502 H527 0.950 . S
C503 C502 1.349 . S
C503 C519 1.349 . S
C504 C502 1.327 . S
C504 C523 1.429 . S
C504 H528 0.950 . S
C505 C522 1.574 . S
C505 C524 1.368 . S
C505 H529 0.949 . S
H506 C510 0.949 . S
C507 C508 1.349 . S
C507 C509 1.327 . S
C507 H530 0.950 . S
C508 C507 1.349 . S
C508 C520 1.349 . S
C509 C507 1.327 . S
C509 C525 1.429 . S
C509 H531 0.950 . S
C510 H506 0.949 . S
C510 C518 1.574 . S
C510 C526 1.368 . S
H511 C519 0.950 . S
H512 C517 0.950 . S
H513 C518 0.949 . S
H514 C520 0.950 . S
H515 C521 0.950 . S
H516 C522 0.949 . S
C517 H512 0.950 . S
C517 C519 1.327 . S
C517 C523 1.429 . S
C518 C510 1.574 . S
C518 H513 0.949 . S
C518 C524 1.368 . S
C519 C503 1.349 . S
C519 H511 0.950 . S
C519 C517 1.327 . S
C520 C508 1.349 . S
C520 H514 0.950 . S
C520 C521 1.327 . S
C521 H515 0.950 . S
C521 C520 1.327 . S
C521 C525 1.429 . S
C522 C505 1.574 . S
C522 H516 0.949 . S
C522 C526 1.368 . S
C523 C504 1.429 . S
C523 C517 1.429 . S
C523 C524 1.523 . S
C524 C505 1.368 . S
C524 C518 1.368 . S
C524 C523 1.523 . S
C525 C509 1.429 . S
C525 C521 1.429 . S
C525 C526 1.523 . S
C526 C510 1.368 . S
C526 C522 1.368 . S
C526 C525 1.523 . S
H527 C502 0.950 . S
H528 C504 0.950 . S
H529 C505 0.949 . S
H530 C507 0.950 . S
H531 C509 0.950 . S
C532 C533 1.349 . S
C532 C534 1.327 . S
C532 H557 0.950 . S
C533 C532 1.349 . S
C533 C549 1.349 . S
C534 C532 1.327 . S
C534 C553 1.429 . S
C534 H558 0.950 . S
C535 C552 1.574 . S
C535 C554 1.368 . S
C535 H559 0.949 . S
H536 C540 0.949 . S
C537 C538 1.349 . S
C537 C539 1.327 . S
C537 H560 0.950 . S
C538 C537 1.349 . S
C538 C550 1.349 . S
C539 C537 1.327 . S
C539 C555 1.429 . S
C539 H561 0.950 . S
C540 H536 0.949 . S
C540 C548 1.574 . S
C540 C556 1.368 . S
H541 C549 0.950 . S
H542 C547 0.950 . S
H543 C548 0.949 . S
H544 C550 0.950 . S
H545 C551 0.950 . S
H546 C552 0.949 . S
C547 H542 0.950 . S
C547 C549 1.327 . S
C547 C553 1.429 . S
C548 C540 1.574 . S
C548 H543 0.949 . S
C548 C554 1.368 . S
C549 C533 1.349 . S
C549 H541 0.950 . S
C549 C547 1.327 . S
C550 C538 1.349 . S
C550 H544 0.950 . S
C550 C551 1.327 . S
C551 H545 0.950 . S
C551 C550 1.327 . S
C551 C555 1.429 . S
C552 C535 1.574 . S
C552 H546 0.949 . S
C552 C556 1.368 . S
C553 C534 1.429 . S
C553 C547 1.429 . S
C553 C554 1.523 . S
C554 C535 1.368 . S
C554 C548 1.368 . S
C554 C553 1.523 . S
C555 C539 1.429 . S
C555 C551 1.429 . S
C555 C556 1.523 . S
C556 C540 1.368 . S
C556 C552 1.368 . S
C556 C555 1.523 . S
H557 C532 0.950 . S
H558 C534 0.950 . S
H559 C535 0.949 . S
H560 C537 0.950 . S
H561 C539 0.950 . S
C562 C563 1.349 . S
C562 C564 1.327 . S
C562 H587 0.950 . S
C563 C562 1.349 . S
C563 C579 1.349 . S
C564 C562 1.327 . S
C564 C583 1.429 . S
C564 H588 0.950 . S
C565 C582 1.574 . S
C565 C584 1.368 . S
C565 H589 0.949 . S
H566 C570 0.949 . S
C567 C568 1.349 . S
C567 C569 1.327 . S
C567 H590 0.950 . S
C568 C567 1.349 . S
C568 C580 1.349 . S
C569 C567 1.327 . S
C569 C585 1.429 . S
C569 H591 0.950 . S
C570 H566 0.949 . S
C570 C578 1.574 . S
C570 C586 1.368 . S
H571 C579 0.950 . S
H572 C577 0.950 . S
H573 C578 0.949 . S
H574 C580 0.950 . S
H575 C581 0.950 . S
H576 C582 0.949 . S
C577 H572 0.950 . S
C577 C579 1.327 . S
C577 C583 1.429 . S
C578 C570 1.574 . S
C578 H573 0.949 . S
C578 C584 1.368 . S
C579 C563 1.349 . S
C579 H571 0.950 . S
C579 C577 1.327 . S
C580 C568 1.349 . S
C580 H574 0.950 . S
C580 C581 1.327 . S
C581 H575 0.950 . S
C581 C580 1.327 . S
C581 C585 1.429 . S
C582 C565 1.574 . S
C582 H576 0.949 . S
C582 C586 1.368 . S
C583 C564 1.429 . S
C583 C577 1.429 . S
C583 C584 1.523 . S
C584 C565 1.368 . S
C584 C578 1.368 . S
C584 C583 1.523 . S
C585 C569 1.429 . S
C585 C581 1.429 . S
C585 C586 1.523 . S
C586 C570 1.368 . S
C586 C582 1.368 . S
C586 C585 1.523 . S
H587 C562 0.950 . S
H588 C564 0.950 . S
H589 C565 0.949 . S
H590 C567 0.950 . S
H591 C569 0.950 . S
C592 C593 1.349 . S
C592 C594 1.327 . S
C592 H617 0.950 . S
C593 C592 1.349 . S
C593 C609 1.349 . S
C594 C592 1.327 . S
C594 C613 1.429 . S
C594 H618 0.950 . S
C595 C612 1.574 . S
C595 C614 1.368 . S
C595 H619 0.949 . S
H596 C600 0.949 . S
C597 C598 1.349 1_554 S
C597 C599 1.327 1_554 S
C597 H620 0.950 . S
C598 C597 1.349 1_556 S
C598 C610 1.349 . S
C599 C597 1.327 1_556 S
C599 C615 1.429 . S
C599 H621 0.950 1_556 S
C600 H596 0.949 . S
C600 C608 1.574 . S
C600 C616 1.368 . S
H601 C609 0.950 . S
H602 C607 0.950 . S
H603 C608 0.949 . S
H604 C610 0.950 . S
H605 C611 0.950 . S
H606 C612 0.949 . S
C607 H602 0.950 . S
C607 C609 1.327 . S
C607 C613 1.429 . S
C608 C600 1.574 . S
C608 H603 0.949 . S
C608 C614 1.368 . S
C609 C593 1.349 . S
C609 H601 0.950 . S
C609 C607 1.327 . S
C610 C598 1.349 . S
C610 H604 0.950 . S
C610 C611 1.327 . S
C611 H605 0.950 . S
C611 C610 1.327 . S
C611 C615 1.429 . S
C612 C595 1.574 . S
C612 H606 0.949 . S
C612 C616 1.368 . S
C613 C594 1.429 . S
C613 C607 1.429 . S
C613 C614 1.523 . S
C614 C595 1.368 . S
C614 C608 1.368 . S
C614 C613 1.523 . S
C615 C599 1.429 . S
C615 C611 1.429 . S
C615 C616 1.523 . S
C616 C600 1.368 . S
C616 C612 1.368 . S
C616 C615 1.523 . S
H617 C592 0.950 . S
H618 C594 0.950 . S
H619 C595 0.949 . S
H620 C597 0.950 . S
H621 C599 0.950 1_554 S
C622 C623 1.349 . S
C622 C624 1.327 . S
C622 H647 0.950 . S
C623 C622 1.349 . S
C623 C639 1.349 . S
C624 C622 1.327 . S
C624 C643 1.429 . S
C624 H648 0.950 . S
C625 C642 1.574 . S
C625 C644 1.368 . S
C625 H649 0.949 . S
H626 C630 0.949 . S
C627 C628 1.349 . S
C627 C629 1.327 . S
C627 H650 0.950 . S
C628 C627 1.349 . S
C628 C640 1.349 . S
C629 C627 1.327 . S
C629 C645 1.429 . S
C629 H651 0.950 . S
C630 H626 0.949 . S
C630 C638 1.574 . S
C630 C646 1.368 . S
H631 C639 0.950 . S
H632 C637 0.950 . S
H633 C638 0.949 . S
H634 C640 0.950 . S
H635 C641 0.950 . S
H636 C642 0.949 . S
C637 H632 0.950 . S
C637 C639 1.327 . S
C637 C643 1.429 . S
C638 C630 1.574 . S
C638 H633 0.949 . S
C638 C644 1.368 . S
C639 C623 1.349 . S
C639 H631 0.950 . S
C639 C637 1.327 . S
C640 C628 1.349 . S
C640 H634 0.950 . S
C640 C641 1.327 . S
C641 H635 0.950 . S
C641 C640 1.327 . S
C641 C645 1.429 . S
C642 C625 1.574 . S
C642 H636 0.949 . S
C642 C646 1.368 . S
C643 C624 1.429 . S
C643 C637 1.429 . S
C643 C644 1.523 . S
C644 C625 1.368 . S
C644 C638 1.368 . S
C644 C643 1.523 . S
C645 C629 1.429 . S
C645 C641 1.429 . S
C645 C646 1.523 . S
C646 C630 1.368 . S
C646 C642 1.368 . S
C646 C645 1.523 . S
H647 C622 0.950 . S
H648 C624 0.950 . S
H649 C625 0.949 . S
H650 C627 0.950 . S
H651 C629 0.950 . S
C652 C653 1.349 . S
C652 C654 1.327 . S
C652 H677 0.950 . S
C653 C652 1.349 . S
C653 C669 1.349 . S
C654 C652 1.327 . S
C654 C673 1.429 . S
C654 H678 0.950 . S
C655 C672 1.574 . S
C655 C674 1.368 . S
C655 H679 0.949 . S
H656 C660 0.949 . S
C657 C658 1.349 . S
C657 C659 1.327 . S
C657 H680 0.950 . S
C658 C657 1.349 . S
C658 C670 1.349 . S
C659 C657 1.327 . S
C659 C675 1.429 . S
C659 H681 0.950 . S
C660 H656 0.949 . S
C660 C668 1.574 . S
C660 C676 1.368 . S
H661 C669 0.950 . S
H662 C667 0.950 . S
H663 C668 0.949 . S
H664 C670 0.950 . S
H665 C671 0.950 . S
H666 C672 0.949 . S
C667 H662 0.950 . S
C667 C669 1.327 . S
C667 C673 1.429 . S
C668 C660 1.574 . S
C668 H663 0.949 . S
C668 C674 1.368 . S
C669 C653 1.349 . S
C669 H661 0.950 . S
C669 C667 1.327 . S
C670 C658 1.349 . S
C670 H664 0.950 . S
C670 C671 1.327 . S
C671 H665 0.950 . S
C671 C670 1.327 . S
C671 C675 1.429 . S
C672 C655 1.574 . S
C672 H666 0.949 . S
C672 C676 1.368 . S
C673 C654 1.429 . S
C673 C667 1.429 . S
C673 C674 1.523 . S
C674 C655 1.368 . S
C674 C668 1.368 . S
C674 C673 1.523 . S
C675 C659 1.429 . S
C675 C671 1.429 . S
C675 C676 1.523 . S
C676 C660 1.368 . S
C676 C672 1.368 . S
C676 C675 1.523 . S
H677 C652 0.950 . S
H678 C654 0.950 . S
H679 C655 0.949 . S
H680 C657 0.950 . S
H681 C659 0.950 . S
C682 C683 1.349 . S
C682 C684 1.327 . S
C682 H707 0.950 . S
C683 C682 1.349 . S
C683 C699 1.349 . S
C684 C682 1.327 . S
C684 C703 1.429 . S
C684 H708 0.950 . S
C685 C702 1.574 . S
C685 C704 1.368 . S
C685 H709 0.949 . S
H686 C690 0.949 . S
C687 C688 1.349 . S
C687 C689 1.327 . S
C687 H710 0.950 . S
C688 C687 1.349 . S
C688 C700 1.349 . S
C689 C687 1.327 . S
C689 C705 1.429 . S
C689 H711 0.950 . S
C690 H686 0.949 . S
C690 C698 1.574 . S
C690 C706 1.368 . S
H691 C699 0.950 . S
H692 C697 0.950 . S
H693 C698 0.949 . S
H694 C700 0.950 . S
H695 C701 0.950 . S
H696 C702 0.949 . S
C697 H692 0.950 . S
C697 C699 1.327 . S
C697 C703 1.429 . S
C698 C690 1.574 . S
C698 H693 0.949 . S
C698 C704 1.368 . S
C699 C683 1.349 . S
C699 H691 0.950 . S
C699 C697 1.327 . S
C700 C688 1.349 . S
C700 H694 0.950 . S
C700 C701 1.327 . S
C701 H695 0.950 . S
C701 C700 1.327 . S
C701 C705 1.429 . S
C702 C685 1.574 . S
C702 H696 0.949 . S
C702 C706 1.368 . S
C703 C684 1.429 . S
C703 C697 1.429 . S
C703 C704 1.523 . S
C704 C685 1.368 . S
C704 C698 1.368 . S
C704 C703 1.523 . S
C705 C689 1.429 . S
C705 C701 1.429 . S
C705 C706 1.523 . S
C706 C690 1.368 . S
C706 C702 1.368 . S
C706 C705 1.523 . S
H707 C682 0.950 . S
H708 C684 0.950 . S
H709 C685 0.949 . S
H710 C687 0.950 . S
H711 C689 0.950 . S
C712 C713 1.349 . S
C712 C714 1.327 . S
C712 H737 0.950 . S
C713 C712 1.349 . S
C713 C729 1.349 . S
C714 C712 1.327 . S
C714 C733 1.429 . S
C714 H738 0.950 . S
C715 C732 1.574 . S
C715 C734 1.368 . S
C715 H739 0.949 . S
H716 C720 0.949 . S
C717 C718 1.349 . S
C717 C719 1.327 . S
C717 H740 0.950 . S
C718 C717 1.349 . S
C718 C730 1.349 . S
C719 C717 1.327 . S
C719 C735 1.429 . S
C719 H741 0.950 . S
C720 H716 0.949 . S
C720 C728 1.574 . S
C720 C736 1.368 . S
H721 C729 0.950 . S
H722 C727 0.950 . S
H723 C728 0.949 . S
H724 C730 0.950 . S
H725 C731 0.950 . S
H726 C732 0.949 . S
C727 H722 0.950 . S
C727 C729 1.327 . S
C727 C733 1.429 . S
C728 C720 1.574 . S
C728 H723 0.949 . S
C728 C734 1.368 . S
C729 C713 1.349 . S
C729 H721 0.950 . S
C729 C727 1.327 . S
C730 C718 1.349 . S
C730 H724 0.950 . S
C730 C731 1.327 . S
C731 H725 0.950 . S
C731 C730 1.327 . S
C731 C735 1.429 . S
C732 C715 1.574 . S
C732 H726 0.949 . S
C732 C736 1.368 . S
C733 C714 1.429 . S
C733 C727 1.429 . S
C733 C734 1.523 . S
C734 C715 1.368 . S
C734 C728 1.368 . S
C734 C733 1.523 . S
C735 C719 1.429 . S
C735 C731 1.429 . S
C735 C736 1.523 . S
C736 C720 1.368 . S
C736 C732 1.368 . S
C736 C735 1.523 . S
H737 C712 0.950 . S
H738 C714 0.950 . S
H739 C715 0.949 . S
H740 C717 0.950 . S
H741 C719 0.950 . S
C742 C743 1.349 . S
C742 C744 1.327 . S
C742 H767 0.950 . S
C743 C742 1.349 . S
C743 C759 1.349 . S
C744 C742 1.327 . S
C744 C763 1.429 . S
C744 H768 0.950 . S
C745 C762 1.574 . S
C745 C764 1.368 . S
C745 H769 0.949 . S
H746 C750 0.949 . S
C747 C748 1.349 . S
C747 C749 1.327 . S
C747 H770 0.985 . S
C748 C747 1.349 . S
C748 C760 1.349 . S
C749 C747 1.327 . S
C749 C765 1.429 . S
C749 H771 0.950 . S
C750 H746 0.949 . S
C750 C758 1.574 . S
C750 C766 1.368 . S
H751 C759 0.950 . S
H752 C757 0.950 . S
H753 C758 0.949 . S
H754 C760 0.950 . S
H755 C761 0.950 . S
H756 C762 0.949 . S
C757 H752 0.950 . S
C757 C759 1.327 . S
C757 C763 1.429 . S
C758 C750 1.574 . S
C758 H753 0.949 . S
C758 C764 1.368 . S
C759 C743 1.349 . S
C759 H751 0.950 . S
C759 C757 1.327 . S
C760 C748 1.349 . S
C760 H754 0.950 . S
C760 C761 1.327 . S
C761 H755 0.950 . S
C761 C760 1.327 . S
C761 C765 1.429 . S
C762 C745 1.574 . S
C762 H756 0.949 . S
C762 C766 1.368 . S
C763 C744 1.429 . S
C763 C757 1.429 . S
C763 C764 1.523 . S
C764 C745 1.368 . S
C764 C758 1.368 . S
C764 C763 1.523 . S
C765 C749 1.429 . S
C765 C761 1.429 . S
C765 C766 1.523 . S
C766 C750 1.368 . S
C766 C762 1.368 . S
C766 C765 1.523 . S
H767 C742 0.950 . S
H768 C744 0.950 . S
H769 C745 0.949 . S
H770 C747 0.985 . S
H771 C749 0.950 . S
C772 C773 1.349 . S
C772 C774 1.327 . S
C772 H797 0.950 . S
C773 C772 1.349 . S
C773 C789 1.349 . S
C774 C772 1.327 . S
C774 C793 1.429 . S
C774 H798 0.950 . S
C775 C792 1.574 . S
C775 C794 1.368 . S
C775 H799 0.949 . S
H776 C780 0.949 . S
C777 C778 1.349 . S
C777 C779 1.327 . S
C777 H800 0.950 . S
C778 C777 1.349 . S
C778 C790 1.349 . S
C779 C777 1.327 . S
C779 C795 1.429 . S
C779 H801 0.950 . S
C780 H776 0.949 . S
C780 C788 1.574 . S
C780 C796 1.368 . S
H781 C789 0.950 . S
H782 C787 0.950 . S
H783 C788 0.949 . S
H784 C790 0.950 . S
H785 C791 0.950 . S
H786 C792 0.949 . S
C787 H782 0.950 . S
C787 C789 1.327 . S
C787 C793 1.429 . S
C788 C780 1.574 . S
C788 H783 0.949 . S
C788 C794 1.368 . S
C789 C773 1.349 . S
C789 H781 0.950 . S
C789 C787 1.327 . S
C790 C778 1.349 . S
C790 H784 0.950 . S
C790 C791 1.327 . S
C791 H785 0.950 . S
C791 C790 1.327 . S
C791 C795 1.429 . S
C792 C775 1.574 . S
C792 H786 0.949 . S
C792 C796 1.368 . S
C793 C774 1.429 . S
C793 C787 1.429 . S
C793 C794 1.523 . S
C794 C775 1.368 . S
C794 C788 1.368 . S
C794 C793 1.523 . S
C795 C779 1.429 . S
C795 C791 1.429 . S
C795 C796 1.523 . S
C796 C780 1.368 . S
C796 C792 1.368 . S
C796 C795 1.523 . S
H797 C772 0.950 . S
H798 C774 0.950 . S
H799 C775 0.949 . S
H800 C777 0.950 . S
H801 C779 0.950 . S
C802 C803 1.349 . S
C802 C804 1.327 . S
C802 H827 0.950 . S
C803 C802 1.349 . S
C803 C819 1.349 . S
C804 C802 1.327 . S
C804 C823 1.429 . S
C804 H828 0.950 . S
C805 C822 1.574 . S
C805 C824 1.368 . S
C805 H829 0.949 . S
H806 C810 0.949 . S
C807 C808 1.349 . S
C807 C809 1.327 . S
C807 H830 0.950 . S
C808 C807 1.349 . S
C808 C820 1.349 . S
C809 C807 1.327 . S
C809 C825 1.429 . S
C809 H831 0.950 . S
C810 H806 0.949 . S
C810 C818 1.574 . S
C810 C826 1.368 . S
H811 C819 0.950 . S
H812 C817 0.950 . S
H813 C818 0.949 . S
H814 C820 0.950 . S
H815 C821 0.950 . S
H816 C822 0.949 . S
C817 H812 0.950 . S
C817 C819 1.327 . S
C817 C823 1.429 . S
C818 C810 1.574 . S
C818 H813 0.949 . S
C818 C824 1.368 . S
C819 C803 1.349 . S
C819 H811 0.950 . S
C819 C817 1.327 . S
C820 C808 1.349 . S
C820 H814 0.950 . S
C820 C821 1.327 . S
C821 H815 0.950 . S
C821 C820 1.327 . S
C821 C825 1.429 . S
C822 C805 1.574 . S
C822 H816 0.949 . S
C822 C826 1.368 . S
C823 C804 1.429 . S
C823 C817 1.429 . S
C823 C824 1.523 . S
C824 C805 1.368 . S
C824 C818 1.368 . S
C824 C823 1.523 . S
C825 C809 1.429 . S
C825 C821 1.429 . S
C825 C826 1.523 . S
C826 C810 1.368 . S
C826 C822 1.368 . S
C826 C825 1.523 . S
H827 C802 0.950 . S
H828 C804 0.950 . S
H829 C805 0.949 . S
H830 C807 0.950 . S
H831 C809 0.950 . S
C832 C833 1.349 . S
C832 C834 1.327 . S
C832 H857 0.950 . S
C833 C832 1.349 . S
C833 C849 1.349 . S
C834 C832 1.327 . S
C834 C853 1.429 . S
C834 H858 0.950 . S
C835 C852 1.574 . S
C835 C854 1.368 . S
C835 H859 0.949 . S
H836 C840 0.949 . S
C837 C838 1.349 . S
C837 C839 1.327 . S
C837 H860 0.950 . S
C838 C837 1.349 . S
C838 C850 1.349 . S
C839 C837 1.327 . S
C839 C855 1.429 . S
C839 H861 0.950 . S
C840 H836 0.949 . S
C840 C848 1.574 . S
C840 C856 1.368 . S
H841 C849 0.950 . S
H842 C847 0.950 . S
H843 C848 0.949 . S
H844 C850 0.950 . S
H845 C851 0.950 . S
H846 C852 0.949 . S
C847 H842 0.950 . S
C847 C849 1.327 . S
C847 C853 1.429 . S
C848 C840 1.574 . S
C848 H843 0.949 . S
C848 C854 1.368 . S
C849 C833 1.349 . S
C849 H841 0.950 . S
C849 C847 1.327 . S
C850 C838 1.349 . S
C850 H844 0.950 . S
C850 C851 1.327 . S
C851 H845 0.950 . S
C851 C850 1.327 . S
C851 C855 1.429 . S
C852 C835 1.574 . S
C852 H846 0.949 . S
C852 C856 1.368 . S
C853 C834 1.429 . S
C853 C847 1.429 . S
C853 C854 1.523 . S
C854 C835 1.368 . S
C854 C848 1.368 . S
C854 C853 1.523 . S
C855 C839 1.429 . S
C855 C851 1.429 . S
C855 C856 1.523 . S
C856 C840 1.368 . S
C856 C852 1.368 . S
C856 C855 1.523 . S
H857 C832 0.950 . S
H858 C834 0.950 . S
H859 C835 0.949 . S
H860 C837 0.950 . S
H861 C839 0.950 . S
C862 C863 1.349 . S
C862 C864 1.327 . S
C862 H887 0.950 . S
C863 C862 1.349 . S
C863 C879 1.349 . S
C864 C862 1.327 . S
C864 C883 1.429 . S
C864 H888 0.950 . S
C865 C882 1.574 . S
C865 C884 1.368 . S
C865 H889 0.949 . S
H866 C870 0.949 . S
C867 C868 1.349 . S
C867 C869 1.327 . S
C867 H890 0.950 . S
C868 C867 1.349 . S
C868 C880 1.349 . S
C869 C867 1.327 . S
C869 C885 1.429 . S
C869 H891 0.950 . S
C870 H866 0.949 . S
C870 C878 1.574 . S
C870 C886 1.368 . S
H871 C879 0.950 . S
H872 C877 0.950 . S
H873 C878 0.949 . S
H874 C880 0.950 . S
H875 C881 0.950 . S
H876 C882 0.949 . S
C877 H872 0.950 . S
C877 C879 1.327 . S
C877 C883 1.429 . S
C878 C870 1.574 . S
C878 H873 0.949 . S
C878 C884 1.368 . S
C879 C863 1.349 . S
C879 H871 0.950 . S
C879 C877 1.327 . S
C880 C868 1.349 . S
C880 H874 0.950 . S
C880 C881 1.327 . S
C881 H875 0.950 . S
C881 C880 1.327 . S
C881 C885 1.429 . S
C882 C865 1.574 . S
C882 H876 0.949 . S
C882 C886 1.368 . S
C883 C864 1.429 . S
C883 C877 1.429 . S
C883 C884 1.523 . S
C884 C865 1.368 . S
C884 C878 1.368 . S
C884 C883 1.523 . S
C885 C869 1.429 . S
C885 C881 1.429 . S
C885 C886 1.523 . S
C886 C870 1.368 . S
C886 C882 1.368 . S
C886 C885 1.523 . S
H887 C862 0.950 . S
H888 C864 0.950 . S
H889 C865 0.949 . S
H890 C867 0.950 . S
H891 C869 0.950 . S
C892 C893 1.349 . S
C892 C894 1.327 . S
C892 H917 0.950 . S
C893 C892 1.349 . S
C893 C909 1.349 . S
C894 C892 1.327 . S
C894 C913 1.429 . S
C894 H918 0.950 . S
C895 C912 1.574 . S
C895 C914 1.368 . S
C895 H919 0.949 . S
H896 C900 0.949 . S
C897 C898 1.349 1_554 S
C897 C899 1.327 1_554 S
C897 H920 0.950 . S
C898 C897 1.349 1_556 S
C898 C910 1.349 . S
C899 C897 1.327 1_556 S
C899 C915 1.429 . S
C899 H921 0.950 1_556 S
C900 H896 0.949 . S
C900 C908 1.574 . S
C900 C916 1.368 . S
H901 C909 0.950 . S
H902 C907 0.950 . S
H903 C908 0.949 . S
H904 C910 0.950 . S
H905 C911 0.950 . S
H906 C912 0.949 . S
C907 H902 0.950 . S
C907 C909 1.327 . S
C907 C913 1.429 . S
C908 C900 1.574 . S
C908 H903 0.949 . S
C908 C914 1.368 . S
C909 C893 1.349 . S
C909 H901 0.950 . S
C909 C907 1.327 . S
C910 C898 1.349 . S
C910 H904 0.950 . S
C910 C911 1.327 . S
C911 H905 0.950 . S
C911 C910 1.327 . S
C911 C915 1.429 . S
C912 C895 1.574 . S
C912 H906 0.949 . S
C912 C916 1.368 . S
C913 C894 1.429 . S
C913 C907 1.429 . S
C913 C914 1.523 . S
C914 C895 1.368 . S
C914 C908 1.368 . S
C914 C913 1.523 . S
C915 C899 1.429 . S
C915 C911 1.429 . S
C915 C916 1.523 . S
C916 C900 1.368 . S
C916 C912 1.368 . S
C916 C915 1.523 . S
H917 C892 0.950 . S
H918 C894 0.950 . S
H919 C895 0.949 . S
H920 C897 0.950 . S
H921 C899 0.950 1_554 S
C922 C923 1.349 . S
C922 C924 1.327 . S
C922 H947 0.950 . S
C923 C922 1.349 . S
C923 C939 1.349 . S
C924 C922 1.327 . S
C924 C943 1.429 . S
C924 H948 0.950 . S
C925 C942 1.574 . S
C925 C944 1.368 . S
C925 H949 0.949 . S
H926 C930 0.949 . S
C927 C928 1.349 . S
C927 C929 1.327 . S
C927 H950 0.950 . S
C928 C927 1.349 . S
C928 C940 1.349 . S
C929 C927 1.327 . S
C929 C945 1.429 . S
C929 H951 0.950 . S
C930 H926 0.949 . S
C930 C938 1.574 . S
C930 C946 1.368 . S
H931 C939 0.950 . S
H932 C937 0.950 . S
H933 C938 0.949 . S
H934 C940 0.950 . S
H935 C941 0.950 . S
H936 C942 0.949 . S
C937 H932 0.950 . S
C937 C939 1.327 . S
C937 C943 1.429 . S
C938 C930 1.574 . S
C938 H933 0.949 . S
C938 C944 1.368 . S
C939 C923 1.349 . S
C939 H931 0.950 . S
C939 C937 1.327 . S
C940 C928 1.349 . S
C940 H934 0.950 . S
C940 C941 1.327 . S
C941 H935 0.950 . S
C941 C940 1.327 . S
C941 C945 1.429 . S
C942 C925 1.574 . S
C942 H936 0.949 . S
C942 C946 1.368 . S
C943 C924 1.429 . S
C943 C937 1.429 . S
C943 C944 1.523 . S
C944 C925 1.368 . S
C944 C938 1.368 . S
C944 C943 1.523 . S
C945 C929 1.429 . S
C945 C941 1.429 . S
C945 C946 1.523 . S
C946 C930 1.368 . S
C946 C942 1.368 . S
C946 C945 1.523 . S
H947 C922 0.950 . S
H948 C924 0.950 . S
H949 C925 0.949 . S
H950 C927 0.950 . S
H951 C929 0.950 . S
C952 C953 1.349 . S
C952 C954 1.327 . S
C952 H977 0.950 . S
C953 C952 1.349 . S
C953 C969 1.349 . S
C954 C952 1.327 . S
C954 C973 1.429 . S
C954 H978 0.950 . S
C955 C972 1.574 . S
C955 C974 1.368 . S
C955 H979 0.949 . S
H956 C960 0.949 . S
C957 C958 1.349 . S
C957 C959 1.327 . S
C957 H980 0.950 . S
C958 C957 1.349 . S
C958 C970 1.349 . S
C959 C957 1.327 . S
C959 C975 1.429 . S
C959 H981 0.950 . S
C960 H956 0.949 . S
C960 C968 1.574 . S
C960 C976 1.368 . S
H961 C969 0.950 . S
H962 C967 0.950 . S
H963 C968 0.949 . S
H964 C970 0.950 . S
H965 C971 0.950 . S
H966 C972 0.949 . S
C967 H962 0.950 . S
C967 C969 1.327 . S
C967 C973 1.429 . S
C968 C960 1.574 . S
C968 H963 0.949 . S
C968 C974 1.368 . S
C969 C953 1.349 . S
C969 H961 0.950 . S
C969 C967 1.327 . S
C970 C958 1.349 . S
C970 H964 0.950 . S
C970 C971 1.327 . S
C971 H965 0.950 . S
C971 C970 1.327 . S
C971 C975 1.429 . S
C972 C955 1.574 . S
C972 H966 0.949 . S
C972 C976 1.368 . S
C973 C954 1.429 . S
C973 C967 1.429 . S
C973 C974 1.523 . S
C974 C955 1.368 . S
C974 C968 1.368 . S
C974 C973 1.523 . S
C975 C959 1.429 . S
C975 C971 1.429 . S
C975 C976 1.523 . S
C976 C960 1.368 . S
C976 C972 1.368 . S
C976 C975 1.523 . S
H977 C952 0.950 . S
H978 C954 0.950 . S
H979 C955 0.949 . S
H980 C957 0.950 . S
H981 C959 0.950 . S
C982 C983 1.349 . S
C982 C984 1.327 . S
C982 H1007 0.950 . S
C983 C982 1.349 . S
C983 C999 1.349 . S
C984 C982 1.327 . S
C984 C1003 1.429 . S
C984 H1008 0.950 . S
C985 C1002 1.574 . S
C985 C1004 1.368 . S
C985 H1009 0.949 . S
H986 C990 0.949 . S
C987 C988 1.349 . S
C987 C989 1.327 . S
C987 H1010 0.950 . S
C988 C987 1.349 . S
C988 C1000 1.349 . S
C989 C987 1.327 . S
C989 C1005 1.429 . S
C989 H1011 0.950 . S
C990 H986 0.949 . S
C990 C998 1.574 . S
C990 C1006 1.368 . S
H991 C999 0.950 . S
H992 C997 0.950 . S
H993 C998 0.949 . S
H994 C1000 0.950 . S
H995 C1001 0.950 . S
H996 C1002 0.949 . S
C997 H992 0.950 . S
C997 C999 1.327 . S
C997 C1003 1.429 . S
C998 C990 1.574 . S
C998 H993 0.949 . S
C998 C1004 1.368 . S
C999 C983 1.349 . S
C999 H991 0.950 . S
C999 C997 1.327 . S
C1000 C988 1.349 . S
C1000 H994 0.950 . S
C1000 C1001 1.327 . S
C1001 H995 0.950 . S
C1001 C1000 1.327 . S
C1001 C1005 1.429 . S
C1002 C985 1.574 . S
C1002 H996 0.949 . S
C1002 C1006 1.368 . S
C1003 C984 1.429 . S
C1003 C997 1.429 . S
C1003 C1004 1.523 . S
C1004 C985 1.368 . S
C1004 C998 1.368 . S
C1004 C1003 1.523 . S
C1005 C989 1.429 . S
C1005 C1001 1.429 . S
C1005 C1006 1.523 . S
C1006 C990 1.368 . S
C1006 C1002 1.368 . S
C1006 C1005 1.523 . S
H1007 C982 0.950 . S
H1008 C984 0.950 . S
H1009 C985 0.949 . S
H1010 C987 0.950 . S
H1011 C989 0.950 . S
C1012 C1013 1.349 . S
C1012 C1014 1.327 . S
C1012 H1037 0.950 . S
C1013 C1012 1.349 . S
C1013 C1029 1.349 . S
C1014 C1012 1.327 . S
C1014 C1033 1.429 . S
C1014 H1038 0.950 . S
C1015 C1032 1.574 . S
C1015 C1034 1.368 . S
C1015 H1039 0.949 . S
H1016 C1020 0.949 . S
C1017 C1018 1.349 . S
C1017 C1019 1.327 . S
C1017 H1040 0.950 . S
C1018 C1017 1.349 . S
C1018 C1030 1.349 . S
C1019 C1017 1.327 . S
C1019 C1035 1.429 . S
C1019 H1041 0.950 . S
C1020 H1016 0.949 . S
C1020 C1028 1.574 . S
C1020 C1036 1.368 . S
H1021 C1029 0.950 . S
H1022 C1027 0.950 . S
H1023 C1028 0.949 . S
H1024 C1030 0.950 . S
H1025 C1031 0.950 . S
H1026 C1032 0.949 . S
C1027 H1022 0.950 . S
C1027 C1029 1.327 . S
C1027 C1033 1.429 . S
C1028 C1020 1.574 . S
C1028 H1023 0.949 . S
C1028 C1034 1.368 . S
C1029 C1013 1.349 . S
C1029 H1021 0.950 . S
C1029 C1027 1.327 . S
C1030 C1018 1.349 . S
C1030 H1024 0.950 . S
C1030 C1031 1.327 . S
C1031 H1025 0.950 . S
C1031 C1030 1.327 . S
C1031 C1035 1.429 . S
C1032 C1015 1.574 . S
C1032 H1026 0.949 . S
C1032 C1036 1.368 . S
C1033 C1014 1.429 . S
C1033 C1027 1.429 . S
C1033 C1034 1.523 . S
C1034 C1015 1.368 . S
C1034 C1028 1.368 . S
C1034 C1033 1.523 . S
C1035 C1019 1.429 . S
C1035 C1031 1.429 . S
C1035 C1036 1.523 . S
C1036 C1020 1.368 . S
C1036 C1032 1.368 . S
C1036 C1035 1.523 . S
H1037 C1012 0.950 . S
H1038 C1014 0.950 . S
H1039 C1015 0.949 . S
H1040 C1017 0.950 . S
H1041 C1019 0.950 . S
C1042 C1043 1.349 . S
C1042 C1044 1.327 . S
C1042 H1067 0.950 . S
C1043 C1042 1.349 . S
C1043 C1059 1.349 . S
C1044 C1042 1.327 . S
C1044 C1063 1.429 . S
C1044 H1068 0.950 . S
C1045 C1062 1.574 . S
C1045 C1064 1.368 . S
C1045 H1069 0.949 . S
H1046 C1050 0.949 . S
C1047 C1048 1.349 . S
C1047 C1049 1.327 . S
C1047 H1070 0.950 . S
C1048 C1047 1.349 . S
C1048 C1060 1.349 . S
C1049 C1047 1.327 . S
C1049 C1065 1.429 . S
C1049 H1071 0.950 . S
C1050 H1046 0.949 . S
C1050 C1058 1.574 . S
C1050 C1066 1.368 . S
H1051 C1059 0.950 . S
H1052 C1057 0.950 . S
H1053 C1058 0.949 . S
H1054 C1060 0.950 . S
H1055 C1061 0.950 . S
H1056 C1062 0.949 . S
C1057 H1052 0.950 . S
C1057 C1059 1.327 . S
C1057 C1063 1.429 . S
C1058 C1050 1.574 . S
C1058 H1053 0.949 . S
C1058 C1064 1.368 . S
C1059 C1043 1.349 . S
C1059 H1051 0.950 . S
C1059 C1057 1.327 . S
C1060 C1048 1.349 . S
C1060 H1054 0.950 . S
C1060 C1061 1.327 . S
C1061 H1055 0.950 . S
C1061 C1060 1.327 . S
C1061 C1065 1.429 . S
C1062 C1045 1.574 . S
C1062 H1056 0.949 . S
C1062 C1066 1.368 . S
C1063 C1044 1.429 . S
C1063 C1057 1.429 . S
C1063 C1064 1.523 . S
C1064 C1045 1.368 . S
C1064 C1058 1.368 . S
C1064 C1063 1.523 . S
C1065 C1049 1.429 . S
C1065 C1061 1.429 . S
C1065 C1066 1.523 . S
C1066 C1050 1.368 . S
C1066 C1062 1.368 . S
C1066 C1065 1.523 . S
H1067 C1042 0.950 . S
H1068 C1044 0.950 . S
H1069 C1045 0.949 . S
H1070 C1047 0.950 . S
H1071 C1049 0.950 . S
C1072 C1073 1.349 . S
C1072 C1074 1.327 . S
C1072 H1097 0.950 . S
C1073 C1072 1.349 . S
C1073 C1089 1.349 . S
C1074 C1072 1.327 . S
C1074 C1093 1.429 . S
C1074 H1098 0.950 . S
C1075 C1092 1.574 . S
C1075 C1094 1.368 . S
C1075 H1099 0.949 . S
H1076 C1080 0.949 . S
C1077 C1078 1.349 . S
C1077 C1079 1.327 . S
C1077 H1100 0.950 . S
C1078 C1077 1.349 . S
C1078 C1090 1.349 . S
C1079 C1077 1.327 . S
C1079 C1095 1.429 . S
C1079 H1101 0.950 . S
C1080 H1076 0.949 . S
C1080 C1088 1.574 . S
C1080 C1096 1.368 . S
H1081 C1089 0.950 . S
H1082 C1087 0.950 . S
H1083 C1088 0.949 . S
H1084 C1090 0.950 . S
H1085 C1091 0.950 . S
H1086 C1092 0.949 . S
C1087 H1082 0.950 . S
C1087 C1089 1.327 . S
C1087 C1093 1.429 . S
C1088 C1080 1.574 . S
C1088 H1083 0.949 . S
C1088 C1094 1.368 . S
C1089 C1073 1.349 . S
C1089 H1081 0.950 . S
C1089 C1087 1.327 . S
C1090 C1078 1.349 . S
C1090 H1084 0.950 . S
C1090 C1091 1.327 . S
C1091 H1085 0.950 . S
C1091 C1090 1.327 . S
C1091 C1095 1.429 . S
C1092 C1075 1.574 . S
C1092 H1086 0.949 . S
C1092 C1096 1.368 . S
C1093 C1074 1.429 . S
C1093 C1087 1.429 . S
C1093 C1094 1.523 . S
C1094 C1075 1.368 . S
C1094 C1088 1.368 . S
C1094 C1093 1.523 . S
C1095 C1079 1.429 . S
C1095 C1091 1.429 . S
C1095 C1096 1.523 . S
C1096 C1080 1.368 . S
C1096 C1092 1.368 . S
C1096 C1095 1.523 . S
H1097 C1072 0.950 . S
H1098 C1074 0.950 . S
H1099 C1075 0.949 . S
H1100 C1077 0.950 . S
H1101 C1079 0.950 . S
C1102 C1103 1.349 . S
C1102 C1104 1.327 . S
C1102 H1127 0.950 . S
C1103 C1102 1.349 . S
C1103 C1119 1.349 . S
C1104 C1102 1.327 . S
C1104 C1123 1.429 . S
C1104 H1128 0.950 . S
C1105 C1122 1.574 . S
C1105 C1124 1.368 . S
C1105 H1129 0.949 . S
H1106 C1110 0.949 . S
C1107 C1108 1.349 . S
C1107 C1109 1.327 . S
C1107 H1130 0.950 . S
C1108 C1107 1.349 . S
C1108 C1120 1.349 . S
C1109 C1107 1.327 . S
C1109 C1125 1.429 . S
C1109 H1131 0.950 . S
C1110 H1106 0.949 . S
C1110 C1118 1.574 . S
C1110 C1126 1.368 . S
H1111 C1119 0.950 . S
H1112 C1117 0.950 . S
H1113 C1118 0.949 . S
H1114 C1120 0.950 . S
H1115 C1121 0.950 . S
H1116 C1122 0.949 . S
C1117 H1112 0.950 . S
C1117 C1119 1.327 . S
C1117 C1123 1.429 . S
C1118 C1110 1.574 . S
C1118 H1113 0.949 . S
C1118 C1124 1.368 . S
C1119 C1103 1.349 . S
C1119 H1111 0.950 . S
C1119 C1117 1.327 . S
C1120 C1108 1.349 . S
C1120 H1114 0.950 . S
C1120 C1121 1.327 . S
C1121 H1115 0.950 . S
C1121 C1120 1.327 . S
C1121 C1125 1.429 . S
C1122 C1105 1.574 . S
C1122 H1116 0.949 . S
C1122 C1126 1.368 . S
C1123 C1104 1.429 . S
C1123 C1117 1.429 . S
C1123 C1124 1.523 . S
C1124 C1105 1.368 . S
C1124 C1118 1.368 . S
C1124 C1123 1.523 . S
C1125 C1109 1.429 . S
C1125 C1121 1.429 . S
C1125 C1126 1.523 . S
C1126 C1110 1.368 . S
C1126 C1122 1.368 . S
C1126 C1125 1.523 . S
H1127 C1102 0.950 . S
H1128 C1104 0.950 . S
H1129 C1105 0.949 . S
H1130 C1107 0.950 . S
H1131 C1109 0.950 . S
C1132 C1133 1.349 . S
C1132 C1134 1.327 . S
C1132 H1157 0.950 . S
C1133 C1132 1.349 . S
C1133 C1149 1.349 . S
C1134 C1132 1.327 . S
C1134 C1153 1.429 . S
C1134 H1158 0.950 . S
C1135 C1152 1.574 . S
C1135 C1154 1.368 . S
C1135 H1159 0.949 . S
H1136 C1140 0.949 . S
C1137 C1138 1.349 . S
C1137 C1139 1.327 . S
C1137 H1160 0.950 . S
C1138 C1137 1.349 . S
C1138 C1150 1.349 . S
C1139 C1137 1.327 . S
C1139 C1155 1.429 . S
C1139 H1161 0.950 . S
C1140 H1136 0.949 . S
C1140 C1148 1.574 . S
C1140 C1156 1.368 . S
H1141 C1149 0.950 . S
H1142 C1147 0.950 . S
H1143 C1148 0.949 . S
H1144 C1150 0.950 . S
H1145 C1151 0.950 . S
H1146 C1152 0.949 . S
C1147 H1142 0.950 . S
C1147 C1149 1.327 . S
C1147 C1153 1.429 . S
C1148 C1140 1.574 . S
C1148 H1143 0.949 . S
C1148 C1154 1.368 . S
C1149 C1133 1.349 . S
C1149 H1141 0.950 . S
C1149 C1147 1.327 . S
C1150 C1138 1.349 . S
C1150 H1144 0.950 . S
C1150 C1151 1.327 . S
C1151 H1145 0.950 . S
C1151 C1150 1.327 . S
C1151 C1155 1.429 . S
C1152 C1135 1.574 . S
C1152 H1146 0.949 . S
C1152 C1156 1.368 . S
C1153 C1134 1.429 . S
C1153 C1147 1.429 . S
C1153 C1154 1.523 . S
C1154 C1135 1.368 . S
C1154 C1148 1.368 . S
C1154 C1153 1.523 . S
C1155 C1139 1.429 . S
C1155 C1151 1.429 . S
C1155 C1156 1.523 . S
C1156 C1140 1.368 . S
C1156 C1152 1.368 . S
C1156 C1155 1.523 . S
H1157 C1132 0.950 . S
H1158 C1134 0.950 . S
H1159 C1135 0.949 . S
H1160 C1137 0.950 . S
H1161 C1139 0.950 . S
C1162 C1163 1.349 . S
C1162 C1164 1.327 . S
C1162 H1187 0.950 . S
C1163 C1162 1.349 . S
C1163 C1179 1.349 . S
C1164 C1162 1.327 . S
C1164 C1183 1.429 . S
C1164 H1188 0.950 . S
C1165 C1182 1.574 . S
C1165 C1184 1.368 . S
C1165 H1189 0.949 . S
H1166 C1170 0.949 . S
C1167 C1168 1.349 . S
C1167 C1169 1.327 . S
C1167 H1190 0.950 . S
C1168 C1167 1.349 . S
C1168 C1180 1.349 . S
C1169 C1167 1.327 . S
C1169 C1185 1.429 . S
C1169 H1191 0.950 . S
C1170 H1166 0.949 . S
C1170 C1178 1.574 . S
C1170 C1186 1.368 . S
H1171 C1179 0.950 . S
H1172 C1177 0.950 . S
H1173 C1178 0.949 . S
H1174 C1180 0.950 . S
H1175 C1181 0.950 . S
H1176 C1182 0.949 . S
C1177 H1172 0.950 . S
C1177 C1179 1.327 . S
C1177 C1183 1.429 . S
C1178 C1170 1.574 . S
C1178 H1173 0.949 . S
C1178 C1184 1.368 . S
C1179 C1163 1.349 . S
C1179 H1171 0.950 . S
C1179 C1177 1.327 . S
C1180 C1168 1.349 . S
C1180 H1174 0.950 . S
C1180 C1181 1.327 . S
C1181 H1175 0.950 . S
C1181 C1180 1.327 . S
C1181 C1185 1.429 . S
C1182 C1165 1.574 . S
C1182 H1176 0.949 . S
C1182 C1186 1.368 . S
C1183 C1164 1.429 . S
C1183 C1177 1.429 . S
C1183 C1184 1.523 . S
C1184 C1165 1.368 . S
C1184 C1178 1.368 . S
C1184 C1183 1.523 . S
C1185 C1169 1.429 . S
C1185 C1181 1.429 . S
C1185 C1186 1.523 . S
C1186 C1170 1.368 . S
C1186 C1182 1.368 . S
C1186 C1185 1.523 . S
H1187 C1162 0.950 . S
H1188 C1164 0.950 . S
H1189 C1165 0.949 . S
H1190 C1167 0.950 . S
H1191 C1169 0.950 . S
C1192 C1193 1.349 . S
C1192 C1194 1.327 . S
C1192 H1217 0.950 . S
C1193 C1192 1.349 . S
C1193 C1209 1.349 . S
C1194 C1192 1.327 . S
C1194 C1213 1.429 . S
C1194 H1218 0.950 . S
C1195 C1212 1.574 . S
C1195 C1214 1.368 . S
C1195 H1219 0.949 . S
H1196 C1200 0.949 . S
C1197 C1198 1.349 . S
C1197 C1199 1.327 . S
C1197 H1220 0.950 . S
C1198 C1197 1.349 . S
C1198 C1210 1.349 . S
C1199 C1197 1.327 . S
C1199 C1215 1.429 . S
C1199 H1221 0.950 . S
C1200 H1196 0.949 . S
C1200 C1208 1.574 . S
C1200 C1216 1.368 . S
H1201 C1209 0.950 . S
H1202 C1207 0.950 . S
H1203 C1208 0.949 . S
H1204 C1210 0.950 . S
H1205 C1211 0.950 . S
H1206 C1212 0.949 . S
C1207 H1202 0.950 . S
C1207 C1209 1.327 . S
C1207 C1213 1.429 . S
C1208 C1200 1.574 . S
C1208 H1203 0.949 . S
C1208 C1214 1.368 . S
C1209 C1193 1.349 . S
C1209 H1201 0.950 . S
C1209 C1207 1.327 . S
C1210 C1198 1.349 . S
C1210 H1204 0.950 . S
C1210 C1211 1.327 . S
C1211 H1205 0.950 . S
C1211 C1210 1.327 . S
C1211 C1215 1.429 . S
C1212 C1195 1.574 . S
C1212 H1206 0.949 . S
C1212 C1216 1.368 . S
C1213 C1194 1.429 . S
C1213 C1207 1.429 . S
C1213 C1214 1.523 . S
C1214 C1195 1.368 . S
C1214 C1208 1.368 . S
C1214 C1213 1.523 . S
C1215 C1199 1.429 . S
C1215 C1211 1.429 . S
C1215 C1216 1.523 . S
C1216 C1200 1.368 . S
C1216 C1212 1.368 . S
C1216 C1215 1.523 . S
H1217 C1192 0.950 . S
H1218 C1194 0.950 . S
H1219 C1195 0.949 . S
H1220 C1197 0.950 . S
H1221 C1199 0.950 . S
C1222 C1223 1.349 . S
C1222 C1224 1.327 . S
C1222 H1247 0.950 . S
C1223 C1222 1.349 . S
C1223 C1239 1.349 . S
C1224 C1222 1.327 . S
C1224 C1243 1.429 . S
C1224 H1248 0.950 . S
C1225 C1242 1.574 . S
C1225 C1244 1.368 . S
C1225 H1249 0.949 . S
H1226 C1230 0.949 . S
C1227 C1228 1.349 . S
C1227 C1229 1.327 . S
C1227 H1250 0.950 . S
C1228 C1227 1.349 . S
C1228 C1240 1.349 . S
C1229 C1227 1.327 . S
C1229 C1245 1.429 . S
C1229 H1251 0.950 . S
C1230 H1226 0.949 . S
C1230 C1238 1.574 . S
C1230 C1246 1.368 . S
H1231 C1239 0.950 . S
H1232 C1237 0.950 . S
H1233 C1238 0.949 . S
H1234 C1240 0.950 . S
H1235 C1241 0.950 . S
H1236 C1242 0.949 . S
C1237 H1232 0.950 . S
C1237 C1239 1.327 . S
C1237 C1243 1.429 . S
C1238 C1230 1.574 . S
C1238 H1233 0.949 . S
C1238 C1244 1.368 . S
C1239 C1223 1.349 . S
C1239 H1231 0.950 . S
C1239 C1237 1.327 . S
C1240 C1228 1.349 . S
C1240 H1234 0.950 . S
C1240 C1241 1.327 . S
C1241 H1235 0.950 . S
C1241 C1240 1.327 . S
C1241 C1245 1.429 . S
C1242 C1225 1.574 . S
C1242 H1236 0.949 . S
C1242 C1246 1.368 . S
C1243 C1224 1.429 . S
C1243 C1237 1.429 . S
C1243 C1244 1.523 . S
C1244 C1225 1.368 . S
C1244 C1238 1.368 . S
C1244 C1243 1.523 . S
C1245 C1229 1.429 . S
C1245 C1241 1.429 . S
C1245 C1246 1.523 . S
C1246 C1230 1.368 . S
C1246 C1242 1.368 . S
C1246 C1245 1.523 . S
H1247 C1222 0.950 . S
H1248 C1224 0.950 . S
H1249 C1225 0.949 . S
H1250 C1227 0.950 . S
H1251 C1229 0.950 . S
C1252 C1253 1.349 . S
C1252 C1254 1.327 . S
C1252 H1277 0.950 . S
C1253 C1252 1.349 . S
C1253 C1269 1.349 . S
C1254 C1252 1.327 . S
C1254 C1273 1.429 . S
C1254 H1278 0.950 . S
C1255 C1272 1.574 . S
C1255 C1274 1.368 . S
C1255 H1279 0.949 . S
H1256 C1260 0.949 . S
C1257 C1258 1.349 . S
C1257 C1259 1.327 . S
C1257 H1280 0.950 . S
C1258 C1257 1.349 . S
C1258 C1270 1.349 . S
C1259 C1257 1.327 . S
C1259 C1275 1.429 . S
C1259 H1281 0.950 . S
C1260 H1256 0.949 . S
C1260 C1268 1.574 . S
C1260 C1276 1.368 . S
H1261 C1269 0.950 . S
H1262 C1267 0.950 . S
H1263 C1268 0.949 . S
H1264 C1270 0.950 . S
H1265 C1271 0.950 . S
H1266 C1272 0.949 . S
C1267 H1262 0.950 . S
C1267 C1269 1.327 . S
C1267 C1273 1.429 . S
C1268 C1260 1.574 . S
C1268 H1263 0.949 . S
C1268 C1274 1.368 . S
C1269 C1253 1.349 . S
C1269 H1261 0.950 . S
C1269 C1267 1.327 . S
C1270 C1258 1.349 . S
C1270 H1264 0.950 . S
C1270 C1271 1.327 . S
C1271 H1265 0.950 . S
C1271 C1270 1.327 . S
C1271 C1275 1.429 . S
C1272 C1255 1.574 . S
C1272 H1266 0.949 . S
C1272 C1276 1.368 . S
C1273 C1254 1.429 . S
C1273 C1267 1.429 . S
C1273 C1274 1.523 . S
C1274 C1255 1.368 . S
C1274 C1268 1.368 . S
C1274 C1273 1.523 . S
C1275 C1259 1.429 . S
C1275 C1271 1.429 . S
C1275 C1276 1.523 . S
C1276 C1260 1.368 . S
C1276 C1272 1.368 . S
C1276 C1275 1.523 . S
H1277 C1252 0.950 . S
H1278 C1254 0.950 . S
H1279 C1255 0.949 . S
H1280 C1257 0.950 . S
H1281 C1259 0.950 . S
C1282 C1283 1.349 . S
C1282 C1284 1.327 . S
C1282 H1307 0.950 . S
C1283 C1282 1.349 . S
C1283 C1299 1.349 . S
C1284 C1282 1.327 . S
C1284 C1303 1.429 . S
C1284 H1308 0.950 . S
C1285 C1302 1.574 . S
C1285 C1304 1.368 . S
C1285 H1309 0.949 . S
H1286 C1290 0.949 . S
C1287 C1288 1.349 . S
C1287 C1289 1.327 . S
C1287 H1310 0.950 . S
C1288 C1287 1.349 . S
C1288 C1300 1.349 . S
C1289 C1287 1.327 . S
C1289 C1305 1.429 . S
C1289 H1311 0.950 . S
C1290 H1286 0.949 . S
C1290 C1298 1.574 . S
C1290 C1306 1.368 . S
H1291 C1299 0.950 . S
H1292 C1297 0.950 . S
H1293 C1298 0.949 . S
H1294 C1300 0.950 . S
H1295 C1301 0.950 . S
H1296 C1302 0.949 . S
C1297 H1292 0.950 . S
C1297 C1299 1.327 . S
C1297 C1303 1.429 . S
C1298 C1290 1.574 . S
C1298 H1293 0.949 . S
C1298 C1304 1.368 . S
C1299 C1283 1.349 . S
C1299 H1291 0.950 . S
C1299 C1297 1.327 . S
C1300 C1288 1.349 . S
C1300 H1294 0.950 . S
C1300 C1301 1.327 . S
C1301 H1295 0.950 . S
C1301 C1300 1.327 . S
C1301 C1305 1.429 . S
C1302 C1285 1.574 . S
C1302 H1296 0.949 . S
C1302 C1306 1.368 . S
C1303 C1284 1.429 . S
C1303 C1297 1.429 . S
C1303 C1304 1.523 . S
C1304 C1285 1.368 . S
C1304 C1298 1.368 . S
C1304 C1303 1.523 . S
C1305 C1289 1.429 . S
C1305 C1301 1.429 . S
C1305 C1306 1.523 . S
C1306 C1290 1.368 . S
C1306 C1302 1.368 . S
C1306 C1305 1.523 . S
H1307 C1282 0.950 . S
H1308 C1284 0.950 . S
H1309 C1285 0.949 . S
H1310 C1287 0.950 . S
H1311 C1289 0.950 . S
C1312 C1313 1.349 . S
C1312 C1314 1.327 . S
C1312 H1337 0.950 . S
C1313 C1312 1.349 . S
C1313 C1329 1.349 . S
C1314 C1312 1.327 . S
C1314 C1333 1.429 . S
C1314 H1338 0.950 . S
C1315 C1332 1.574 . S
C1315 C1334 1.368 . S
C1315 H1339 0.949 . S
H1316 C1320 0.949 . S
C1317 C1318 1.349 . S
C1317 C1319 1.327 . S
C1317 H1340 0.950 . S
C1318 C1317 1.349 . S
C1318 C1330 1.349 . S
C1319 C1317 1.327 . S
C1319 C1335 1.429 . S
C1319 H1341 0.950 . S
C1320 H1316 0.949 . S
C1320 C1328 1.574 . S
C1320 C1336 1.368 . S
H1321 C1329 0.950 . S
H1322 C1327 0.950 . S
H1323 C1328 0.949 . S
H1324 C1330 0.950 . S
H1325 C1331 0.950 . S
H1326 C1332 0.949 . S
C1327 H1322 0.950 . S
C1327 C1329 1.327 . S
C1327 C1333 1.429 . S
C1328 C1320 1.574 . S
C1328 H1323 0.949 . S
C1328 C1334 1.368 . S
C1329 C1313 1.349 . S
C1329 H1321 0.950 . S
C1329 C1327 1.327 . S
C1330 C1318 1.349 . S
C1330 H1324 0.950 . S
C1330 C1331 1.327 . S
C1331 H1325 0.950 . S
C1331 C1330 1.327 . S
C1331 C1335 1.429 . S
C1332 C1315 1.574 . S
C1332 H1326 0.949 . S
C1332 C1336 1.368 . S
C1333 C1314 1.429 . S
C1333 C1327 1.429 . S
C1333 C1334 1.523 . S
C1334 C1315 1.368 . S
C1334 C1328 1.368 . S
C1334 C1333 1.523 . S
C1335 C1319 1.429 . S
C1335 C1331 1.429 . S
C1335 C1336 1.523 . S
C1336 C1320 1.368 . S
C1336 C1332 1.368 . S
C1336 C1335 1.523 . S
H1337 C1312 0.950 . S
H1338 C1314 0.950 . S
H1339 C1315 0.949 . S
H1340 C1317 0.950 . S
H1341 C1319 0.950 . S
C1342 C1343 1.349 . S
C1342 C1344 1.327 . S
C1342 H1367 0.950 . S
C1343 C1342 1.349 . S
C1343 C1359 1.349 . S
C1344 C1342 1.327 . S
C1344 C1363 1.429 . S
C1344 H1368 0.950 . S
C1345 C1362 1.574 . S
C1345 C1364 1.368 . S
C1345 H1369 0.949 . S
H1346 C1350 0.949 . S
C1347 C1348 1.349 . S
C1347 C1349 1.327 . S
C1347 H1370 0.950 . S
C1348 C1347 1.349 . S
C1348 C1360 1.349 . S
C1349 C1347 1.327 . S
C1349 C1365 1.429 . S
C1349 H1371 0.950 . S
C1350 H1346 0.949 . S
C1350 C1358 1.574 . S
C1350 C1366 1.368 . S
H1351 C1359 0.950 . S
H1352 C1357 0.950 . S
H1353 C1358 0.949 . S
H1354 C1360 0.950 . S
H1355 C1361 0.950 . S
H1356 C1362 0.949 . S
C1357 H1352 0.950 . S
C1357 C1359 1.327 . S
C1357 C1363 1.429 . S
C1358 C1350 1.574 . S
C1358 H1353 0.949 . S
C1358 C1364 1.368 . S
C1359 C1343 1.349 . S
C1359 H1351 0.950 . S
C1359 C1357 1.327 . S
C1360 C1348 1.349 . S
C1360 H1354 0.950 . S
C1360 C1361 1.327 . S
C1361 H1355 0.950 . S
C1361 C1360 1.327 . S
C1361 C1365 1.429 . S
C1362 C1345 1.574 . S
C1362 H1356 0.949 . S
C1362 C1366 1.368 . S
C1363 C1344 1.429 . S
C1363 C1357 1.429 . S
C1363 C1364 1.523 . S
C1364 C1345 1.368 . S
C1364 C1358 1.368 . S
C1364 C1363 1.523 . S
C1365 C1349 1.429 . S
C1365 C1361 1.429 . S
C1365 C1366 1.523 . S
C1366 C1350 1.368 . S
C1366 C1362 1.368 . S
C1366 C1365 1.523 . S
H1367 C1342 0.950 . S
H1368 C1344 0.950 . S
H1369 C1345 0.949 . S
H1370 C1347 0.950 . S
H1371 C1349 0.950 . S
C1372 C1373 1.349 . S
C1372 C1374 1.327 . S
C1372 H1397 0.950 . S
C1373 C1372 1.349 . S
C1373 C1389 1.349 . S
C1374 C1372 1.327 . S
C1374 C1393 1.429 . S
C1374 H1398 0.950 . S
C1375 C1392 1.574 . S
C1375 C1394 1.368 . S
C1375 H1399 0.949 . S
H1376 C1380 0.949 . S
C1377 C1378 1.349 . S
C1377 C1379 1.327 . S
C1377 H1400 0.950 . S
C1378 C1377 1.349 . S
C1378 C1390 1.349 . S
C1379 C1377 1.327 . S
C1379 C1395 1.429 . S
C1379 H1401 0.950 . S
C1380 H1376 0.949 . S
C1380 C1388 1.574 . S
C1380 C1396 1.368 . S
H1381 C1389 0.950 . S
H1382 C1387 0.950 . S
H1383 C1388 0.949 . S
H1384 C1390 0.950 . S
H1385 C1391 0.950 . S
H1386 C1392 0.949 . S
C1387 H1382 0.950 . S
C1387 C1389 1.327 . S
C1387 C1393 1.429 . S
C1388 C1380 1.574 . S
C1388 H1383 0.949 . S
C1388 C1394 1.368 . S
C1389 C1373 1.349 . S
C1389 H1381 0.950 . S
C1389 C1387 1.327 . S
C1390 C1378 1.349 . S
C1390 H1384 0.950 . S
C1390 C1391 1.327 . S
C1391 H1385 0.950 . S
C1391 C1390 1.327 . S
C1391 C1395 1.429 . S
C1392 C1375 1.574 . S
C1392 H1386 0.949 . S
C1392 C1396 1.368 . S
C1393 C1374 1.429 . S
C1393 C1387 1.429 . S
C1393 C1394 1.523 . S
C1394 C1375 1.368 . S
C1394 C1388 1.368 . S
C1394 C1393 1.523 . S
C1395 C1379 1.429 . S
C1395 C1391 1.429 . S
C1395 C1396 1.523 . S
C1396 C1380 1.368 . S
C1396 C1392 1.368 . S
C1396 C1395 1.523 . S
H1397 C1372 0.950 . S
H1398 C1374 0.950 . S
H1399 C1375 0.949 . S
H1400 C1377 0.950 . S
H1401 C1379 0.950 . S
C1402 C1403 1.349 . S
C1402 C1404 1.327 . S
C1402 H1427 0.950 . S
C1403 C1402 1.349 . S
C1403 C1419 1.349 . S
C1404 C1402 1.327 . S
C1404 C1423 1.429 . S
C1404 H1428 0.950 . S
C1405 C1422 1.574 . S
C1405 C1424 1.368 . S
C1405 H1429 0.949 . S
H1406 C1410 0.949 . S
C1407 C1408 1.349 . S
C1407 C1409 1.327 . S
C1407 H1430 0.950 . S
C1408 C1407 1.349 . S
C1408 C1420 1.349 . S
C1409 C1407 1.327 . S
C1409 C1425 1.429 . S
C1409 H1431 0.950 . S
C1410 H1406 0.949 . S
C1410 C1418 1.574 . S
C1410 C1426 1.368 . S
H1411 C1419 0.950 . S
H1412 C1417 0.950 . S
H1413 C1418 0.949 . S
H1414 C1420 0.950 . S
H1415 C1421 0.950 . S
H1416 C1422 0.949 . S
C1417 H1412 0.950 . S
C1417 C1419 1.327 . S
C1417 C1423 1.429 . S
C1418 C1410 1.574 . S
C1418 H1413 0.949 . S
C1418 C1424 1.368 . S
C1419 C1403 1.349 . S
C1419 H1411 0.950 . S
C1419 C1417 1.327 . S
C1420 C1408 1.349 . S
C1420 H1414 0.950 . S
C1420 C1421 1.327 . S
C1421 H1415 0.950 . S
C1421 C1420 1.327 . S
C1421 C1425 1.429 . S
C1422 C1405 1.574 . S
C1422 H1416 0.949 . S
C1422 C1426 1.368 . S
C1423 C1404 1.429 . S
C1423 C1417 1.429 . S
C1423 C1424 1.523 . S
C1424 C1405 1.368 . S
C1424 C1418 1.368 . S
C1424 C1423 1.523 . S
C1425 C1409 1.429 . S
C1425 C1421 1.429 . S
C1425 C1426 1.523 . S
C1426 C1410 1.368 . S
C1426 C1422 1.368 . S
C1426 C1425 1.523 . S
H1427 C1402 0.950 . S
H1428 C1404 0.950 . S
H1429 C1405 0.949 . S
H1430 C1407 0.950 . S
H1431 C1409 0.950 . S
C478 C381 1.220 . S
C473 C8 1.249 . S
C508 C399 1.194 . S
C503 C61 1.239 . S
C538 C407 1.220 . S
C533 C107 1.249 . S
C563 C139 1.244 . S
C568 C373 1.200 . S
C593 C192 1.251 . S
C598 C368 1.215 1_556 S
C623 C238 1.244 . S
C628 C386 1.194 . S
C658 C394 1.220 . S
C653 C284 1.253 . S
C688 C412 1.194 . S
C683 C330 1.245 . S
C713 C100 1.251 . S
C718 C433 1.220 . S
C748 C451 1.194 . S
C743 C160 1.238 . S
C773 C15 1.249 . S
C778 C459 1.224 . S
C808 C425 1.194 . S
C803 C54 1.247 . S
C833 C291 1.249 . S
C838 C420 1.219 . S
C863 C337 1.242 . S
C868 C438 1.190 . S
C898 C446 1.220 1_556 S
C893 C199 1.253 . S
C923 C245 1.242 . S
C928 C464 1.194 . S
C958 C402 1.445 . S
C953 C1 1.443 . S
C988 C417 1.418 . S
C983 C68 1.438 . S
C1013 C114 1.438 . S
C1018 C376 1.445 . S
C1043 C146 1.447 . S
C1048 C391 1.420 . S
C1073 C185 1.443 . S
C1078 C415 1.443 . S
C1108 C378 1.418 . S
C1103 C231 1.447 . S
C1138 C389 1.446 . S
C1133 C277 1.446 . S
C1168 C404 1.418 . S
C1163 C323 1.447 . S
C1198 C454 1.445 . S
C1193 C93 1.443 . S
C1228 C469 1.418 . S
C1223 C153 1.438 . S
C1253 C22 1.438 . S
C1258 C428 1.444 . S
C1288 C443 1.418 . S
C1283 C47 1.450 . S
C1318 C467 1.446 . S
C1313 C298 1.435 . S
C1343 C344 1.441 . S
C1348 C430 1.417 . S
C1378 C441 1.445 . S
C1373 C206 1.441 . S
C1408 C456 1.418 . S
C1403 C252 1.441 . S
