# Generated by pormake.
# Topology tsx, (6,3)-cn, num edge types: 1
# Building blocks:
#     Node 0, Type 0, BuildingBlock: MIDCAF_clean_sbu_0, # of connection points: 6
#     Node 1, Type 0, BuildingBlock: MIDCAF_clean_sbu_0, # of connection points: 6
#     Node 2, Type 1, BuildingBlock: PAMTOO_clean_linker_0, # of connection points: 3
#     Node 3, Type 1, BuildingBlock: PAMTOO_clean_linker_0, # of connection points: 3
#     Node 4, Type 1, BuildingBlock: PAMTOO_clean_linker_0, # of connection points: 3
#     Node 5, Type 1, BuildingBlock: PAMTOO_clean_linker_0, # of connection points: 3
#     Edge 6, Type (0, 1), BuildingBlock: FUNLAD_clean_linker_0, # of connection points: 2
#     Edge 7, Type (0, 1), BuildingBlock: FUNLAD_clean_linker_0, # of connection points: 2
#     Edge 8, Type (0, 1), BuildingBlock: FUNLAD_clean_linker_0, # of connection points: 2
#     Edge 9, Type (0, 1), BuildingBlock: FUNLAD_clean_linker_0, # of connection points: 2
#     Edge 10, Type (0, 1), BuildingBlock: FUNLAD_clean_linker_0, # of connection points: 2
#     Edge 11, Type (0, 1), BuildingBlock: FUNLAD_clean_linker_0, # of connection points: 2
#     Edge 12, Type (0, 1), BuildingBlock: FUNLAD_clean_linker_0, # of connection points: 2
#     Edge 13, Type (0, 1), BuildingBlock: FUNLAD_clean_linker_0, # of connection points: 2
#     Edge 14, Type (0, 1), BuildingBlock: FUNLAD_clean_linker_0, # of connection points: 2
#     Edge 15, Type (0, 1), BuildingBlock: FUNLAD_clean_linker_0, # of connection points: 2
#     Edge 16, Type (0, 1), BuildingBlock: FUNLAD_clean_linker_0, # of connection points: 2
#     Edge 17, Type (0, 1), BuildingBlock: FUNLAD_clean_linker_0, # of connection points: 2
# Relax obj value: 0.096
# Max RMSD: 0.163
# Mean RMSD: 0.129
data_MOF--net-tsx--node1-MIDCAF_clean_sbu_0--node2-PAMTOO_clean_linker_0--edge1-FUNLAD_clean_linker_0
_symmetry_space_group_name_H-M    P1
_symmetry_Int_Tables_number       1
_symmetry_cell_setting            triclinic
loop_
_symmetry_equiv_pos_as_xyz
'x, y, z'
_cell_length_a     22.817445
_cell_length_b     24.177321
_cell_length_c     41.070737
_cell_angle_alpha  83.07153
_cell_angle_beta   96.111364
_cell_angle_gamma 89.39483
loop_
_atom_site_label
_atom_site_type_symbol
_atom_site_fract_x
_atom_site_fract_y
_atom_site_fract_z
_atom_type_partial_charge
Zn0 Zn 0.94416 0.04508 0.97291 0.0
Zn1 Zn 0.16055 0.00556 0.02405 0.0
Zn2 Zn 0.05324 0.02826 0.99734 0.0
C3 C 0.15036 0.12156 0.00877 0.0
C4 C 0.1493 0.94975 0.96956 0.0
O5 O 0.9942 0.97848 0.02936 0.0
O6 O 0.90466 0.99232 0.00305 0.0
C7 C 0.98609 0.14841 0.9859 0.0
O8 O 0.0955 0.11006 0.00261 0.0
O9 O 0.18853 0.08271 0.0165 0.0
O10 O 0.18474 0.9529 0.99494 0.0
O11 O 0.09946 0.9769 0.96528 0.0
O12 O 0.93855 0.12462 0.97833 0.0
O13 O 0.03518 0.12022 0.99207 0.0
O14 O 0.04584 0.99789 0.94816 0.0
O15 O 0.95406 0.02311 0.92887 0.0
C16 C 1.00308 0.00181 0.9247 0.0
O17 O 0.04842 0.98508 0.04755 0.0
O18 O 0.14154 0.97675 0.06904 0.0
C19 C 0.93863 0.96795 0.02678 0.0
C20 C 0.08744 0.97135 0.07239 0.0
Zn21 Zn 0.66274 0.49247 0.5472 0.0
Zn22 Zn 0.46929 0.51462 0.46357 0.0
Zn23 Zn 0.56636 0.50399 0.50518 0.0
C24 C 0.55134 0.45485 0.43496 0.0
C25 C 0.50479 0.62203 0.47131 0.0
O26 O 0.54272 0.46321 0.55302 0.0
O27 O 0.62803 0.44899 0.58411 0.0
C28 C 0.68809 0.43938 0.49425 0.0
O29 O 0.58414 0.46393 0.46125 0.0
O30 O 0.4981 0.47135 0.43041 0.0
O31 O 0.46657 0.59686 0.45449 0.0
O32 O 0.54478 0.59435 0.49155 0.0
O33 O 0.71339 0.45343 0.52075 0.0
O34 O 0.63381 0.45413 0.48482 0.0
O35 O 0.5975 0.58883 0.51249 0.0
O36 O 0.67433 0.57291 0.55036 0.0
C37 C 0.6397 0.60679 0.53161 0.0
O38 O 0.49409 0.45968 0.52886 0.0
O39 O 0.41476 0.47711 0.49301 0.0
C40 C 0.57265 0.44502 0.58071 0.0
C41 C 0.43862 0.45382 0.52045 0.0
H42 H 0.19259 0.95664 0.37499 0.0
H43 H 0.02718 0.04737 0.36652 0.0
H44 H 0.13212 0.01619 0.46045 0.0
H45 H 1.00162 0.02281 0.46779 0.0
C46 C 0.98749 0.04288 0.44233 0.0
O47 O 0.03585 0.06502 0.42837 0.0
H48 H 0.96746 0.01066 0.42765 0.0
C49 C 0.15987 0.9789 0.38606 0.0
C50 C 0.16874 0.98389 0.4199 0.0
C51 C 0.10886 0.00111 0.3665 0.0
C52 C 0.0662 0.02875 0.38129 0.0
C53 C 0.07474 0.0343 0.41507 0.0
C54 C 0.12562 0.01135 0.43443 0.0
H55 H 0.12882 0.0733 0.64201 0.0
H56 H 0.9933 0.95961 0.61452 0.0
H57 H 0.0601 0.07419 0.54019 0.0
H58 H 0.93389 0.05083 0.51786 0.0
C59 C 0.92981 0.02222 0.54077 0.0
O60 O 0.98387 0.99637 0.55163 0.0
H61 H 0.91528 0.04804 0.5593 0.0
C62 C 0.10046 0.05571 0.62322 0.0
C63 C 0.10021 0.07841 0.59006 0.0
C64 C 0.06249 0.0126 0.63259 0.0
C65 C 0.02315 0.99272 0.60809 0.0
C66 C 0.02221 0.01532 0.57495 0.0
C67 C 0.06101 0.05756 0.56596 0.0
H68 H 0.65824 0.46258 0.87263 0.0
H69 H 0.49441 0.55639 0.85985 0.0
H70 H 0.59993 0.53764 0.9538 0.0
H71 H 0.46581 0.53688 0.95796 0.0
C72 C 0.45262 0.55876 0.93282 0.0
O73 O 0.5021 0.58127 0.92022 0.0
H74 H 0.43282 0.52782 0.91714 0.0
C75 C 0.62653 0.48807 0.88238 0.0
C76 C 0.63632 0.49852 0.9154 0.0
C77 C 0.57558 0.50841 0.86207 0.0
C78 C 0.53364 0.53962 0.87521 0.0
C79 C 0.54233 0.54994 0.90823 0.0
C80 C 0.59341 0.52913 0.92838 0.0
H81 H 0.68663 0.55481 0.16019 0.0
H82 H 0.54801 0.4402 0.13955 0.0
H83 H 0.59241 0.5641 0.06309 0.0
H84 H 0.46551 0.54775 0.05732 0.0
C85 C 0.46524 0.50815 0.07417 0.0
O86 O 0.52092 0.48352 0.07844 0.0
H87 H 0.45239 0.51855 0.09819 0.0
C88 C 0.6543 0.53818 0.14291 0.0
C89 C 0.64518 0.56416 0.11022 0.0
C90 C 0.61989 0.49324 0.15401 0.0
C91 C 0.57528 0.47468 0.13177 0.0
C92 C 0.56511 0.50071 0.09925 0.0
C93 C 0.60042 0.5448 0.08842 0.0
C94 C 0.22796 0.19102 -0.00041 0.0
C95 C 0.17098 0.17943 0.00812 0.0
C96 C 0.25383 0.24167 0.00466 0.0
C97 C 0.22327 0.28242 0.01842 0.0
C98 C 0.16507 0.27188 0.02551 0.0
C99 C 0.13892 0.22093 0.02021 0.0
C100 C 0.25353 0.33262 0.02923 0.0
C101 C 0.30271 0.35302 0.01703 0.0
C102 C 0.34034 0.39569 0.03168 0.0
C103 C 0.38071 0.4242 0.01254 0.0
C104 C 0.42063 0.46081 0.02624 0.0
C105 C 0.42118 0.46964 0.0594 0.0
H106 H 0.31219 0.3822 0.08095 0.0
C107 C 0.38109 0.44118 0.07867 0.0
C108 C 0.34101 0.40463 0.06499 0.0
H109 H 0.38121 0.44673 0.10446 0.0
H110 H 0.2538 0.15969 0.99031 0.0
H111 H 0.29909 0.24693 -0.00043 0.0
H112 H 0.1406 0.30223 0.03639 0.0
H113 H 0.09538 0.21272 0.02756 0.0
H114 H 0.23561 0.35194 0.04867 0.0
H115 H 0.31718 0.33722 0.99549 0.0
H116 H 0.38192 0.4176 0.98699 0.0
H117 H 0.45162 0.48185 0.01106 0.0
C118 C 0.14287 0.85728 0.94932 0.0
C119 C 0.16554 0.91114 0.9468 0.0
C120 C 0.17261 0.81391 0.93767 0.0
C121 C 0.22534 0.82403 0.92318 0.0
C122 C 0.24431 0.8791 0.91769 0.0
C123 C 0.21522 0.92214 0.92989 0.0
C124 C 0.26425 0.77795 0.91632 0.0
C125 C 0.27194 0.72961 0.93666 0.0
C126 C 0.31815 0.68643 0.93458 0.0
C127 C 0.33699 0.64966 0.96306 0.0
C128 C 0.3809 0.60902 0.96264 0.0
C129 C 0.40689 0.60402 0.93363 0.0
H130 H 0.32924 0.70711 0.88261 0.0
C131 C 0.38736 0.63985 0.90488 0.0
C132 C 0.34356 0.68077 0.90532 0.0
H133 H 0.40587 0.63592 0.88203 0.0
H134 H 0.10514 0.84774 0.96277 0.0
H135 H 0.15591 0.77214 0.94144 0.0
H136 H 0.2844 0.88815 0.90631 0.0
H137 H 0.23397 0.96325 0.92819 0.0
H138 H 0.29278 0.78715 0.89693 0.0
H139 H 0.24688 0.72349 0.95783 0.0
H140 H 0.31801 0.65264 0.98589 0.0
H141 H 0.39441 0.58139 0.98502 0.0
C142 C 0.85314 0.92398 0.05161 0.0
C143 C 0.91405 0.92362 0.04907 0.0
C144 C 0.82638 0.87703 0.06603 0.0
C145 C 0.85986 0.82823 0.07791 0.0
C146 C 0.92149 0.8295 0.07813 0.0
C147 C 0.94847 0.87682 0.06371 0.0
C148 C 0.83107 0.77525 0.08882 0.0
C149 C 0.77763 0.76209 0.07468 0.0
C150 C 0.74594 0.70984 0.0837 0.0
C151 C 0.68583 0.70769 0.07222 0.0
C152 C 0.65347 0.66015 0.08019 0.0
C153 C 0.68055 0.61327 0.09974 0.0
H154 H 0.81999 0.66133 0.11123 0.0
C155 C 0.74111 0.61473 0.11055 0.0
C156 C 0.77351 0.66239 0.10263 0.0
H157 H 0.76357 0.57889 0.12516 0.0
H158 H 0.82561 0.95988 0.04112 0.0
H159 H 0.77916 0.87862 0.06696 0.0
H160 H 0.94843 0.79279 0.08775 0.0
H161 H 0.99552 0.87533 0.06212 0.0
H162 H 0.85569 0.74615 0.10762 0.0
H163 H 0.7551 0.7915 0.05515 0.0
H164 H 0.66338 0.74337 0.05741 0.0
H165 H 0.60682 0.66078 0.07175 0.0
C166 C 0.95196 0.22575 0.01365 0.0
C167 C 0.98202 0.20836 0.98845 0.0
C168 C 0.92676 0.27936 0.01034 0.0
C169 C 0.9302 0.31614 0.98134 0.0
C170 C 0.96602 0.30065 0.95791 0.0
C171 C 0.99144 0.24694 0.96132 0.0
C172 C 0.89194 0.36741 0.97277 0.0
C173 C 0.83807 0.37173 0.98338 0.0
C174 C 0.79091 0.41353 0.96854 0.0
C175 C 0.73752 0.41382 0.98289 0.0
C176 C 0.68808 0.44446 0.96679 0.0
C177 C 0.69086 0.4753 0.9358 0.0
H178 H 0.83425 0.44944 0.92633 0.0
C179 C 0.74524 0.47831 0.92254 0.0
C180 C 0.79464 0.44785 0.9386 0.0
H181 H 0.74893 0.50246 0.89887 0.0
H182 H 0.94392 0.19639 0.03471 0.0
H183 H 0.90186 0.29048 0.02968 0.0
H184 H 0.97021 0.32836 0.93554 0.0
H185 H 1.01371 0.23407 0.94136 0.0
H186 H 0.90563 0.3986 0.95406 0.0
H187 H 0.82492 0.33959 0.00179 0.0
H188 H 0.73308 0.38803 0.00593 0.0
H189 H 0.6468 0.44121 0.97762 0.0
C190 C 0.65216 0.70259 0.50267 0.0
C191 C 0.64958 0.66681 0.53203 0.0
C192 C 0.67358 0.75661 0.50376 0.0
C193 C 0.69152 0.77561 0.5343 0.0
C194 C 0.68421 0.74115 0.5635 0.0
C195 C 0.66436 0.687 0.56239 0.0
C196 C 0.72143 0.82933 0.53703 0.0
C197 C 0.76135 0.84868 0.51677 0.0
C198 C 0.80157 0.89531 0.52322 0.0
C199 C 0.83076 0.92138 0.49726 0.0
C200 C 0.87184 0.96273 0.50278 0.0
C201 C 0.88446 0.97897 0.5344 0.0
H202 H 0.79585 0.8909 0.57613 0.0
C203 C 0.85614 0.95258 0.5605 0.0
C204 C 0.81512 0.91123 0.55505 0.0
H205 H 0.86631 0.96359 0.58525 0.0
H206 H 0.64097 0.68778 0.47897 0.0
H207 H 0.67737 0.78284 0.48081 0.0
H208 H 0.69715 0.75498 0.58731 0.0
H209 H 0.66243 0.66015 0.58536 0.0
H210 H 0.71513 0.84967 0.55858 0.0
H211 H 0.76722 0.82772 0.49533 0.0
H212 H 0.82217 0.90937 0.47265 0.0
H213 H 0.89406 0.98175 0.4824 0.0
C214 C 0.69427 0.35672 0.46315 0.0
C215 C 0.72107 0.40254 0.47612 0.0
C216 C 0.72869 0.31571 0.45219 0.0
C217 C 0.79053 0.32011 0.45406 0.0
C218 C 0.81633 0.36808 0.46482 0.0
C219 C 0.78215 0.40851 0.47602 0.0
C220 C 0.83055 0.27506 0.44693 0.0
C221 C 0.81651 0.22084 0.44836 0.0
C222 C 0.86088 0.17609 0.44648 0.0
C223 C 0.8429 0.1274 0.43317 0.0
C224 C 0.88369 0.08437 0.43163 0.0
C225 C 0.94314 0.08895 0.44382 0.0
H226 H 0.93522 0.21577 0.47118 0.0
C227 C 0.96075 0.13673 0.45822 0.0
C228 C 0.92019 0.17996 0.45944 0.0
H229 H 1.00603 0.14057 0.46855 0.0
H230 H 0.64724 0.35102 0.46315 0.0
H231 H 0.70681 0.2803 0.44308 0.0
H232 H 0.86364 0.37303 0.46617 0.0
H233 H 0.80389 0.44354 0.48582 0.0
H234 H 0.87531 0.28666 0.44286 0.0
H235 H 0.77187 0.20816 0.45174 0.0
H236 H 0.79729 0.12286 0.42365 0.0
H237 H 0.86876 0.04748 0.42094 0.0
C238 C 0.34133 0.42043 0.53601 0.0
C239 C 0.40313 0.41514 0.54057 0.0
C240 C 0.30658 0.37813 0.54926 0.0
C241 C 0.33294 0.32929 0.56713 0.0
C242 C 0.39461 0.32597 0.57398 0.0
C243 C 0.42951 0.36837 0.56061 0.0
C244 C 0.29738 0.28046 0.57756 0.0
C245 C 0.24767 0.26756 0.5594 0.0
C246 C 0.21165 0.21783 0.56755 0.0
C247 C 0.23344 0.17123 0.58959 0.0
C248 C 0.19763 0.12562 0.59633 0.0
C249 C 0.13938 0.12533 0.58118 0.0
H250 H 0.13611 0.25181 0.53447 0.0
C251 C 0.11816 0.17121 0.55855 0.0
C252 C 0.15396 0.21679 0.55179 0.0
H253 H 0.07337 0.17257 0.54666 0.0
H254 H 0.31972 0.45638 0.52105 0.0
H255 H 0.25911 0.38326 0.54474 0.0
H256 H 0.41596 0.28911 0.5881 0.0
H257 H 0.47697 0.36272 0.56424 0.0
H258 H 0.31457 0.25346 0.59959 0.0
H259 H 0.2322 0.29472 0.53704 0.0
H260 H 0.27816 0.16915 0.60143 0.0
H261 H 0.21569 0.09037 0.61337 0.0
C262 C 0.4931 0.70857 0.49776 0.0
C263 C 0.49858 0.68301 0.46926 0.0
C264 C 0.46955 0.76297 0.49506 0.0
C265 C 0.45218 0.79253 0.46376 0.0
C266 C 0.46374 0.76873 0.43551 0.0
C267 C 0.48581 0.71419 0.4382 0.0
C268 C 0.41661 0.84528 0.45902 0.0
C269 C 0.37445 0.85522 0.47845 0.0
C270 C 0.32504 0.89651 0.46757 0.0
C271 C 0.27069 0.88739 0.4804 0.0
C272 C 0.22016 0.91857 0.46644 0.0
C273 C 0.22321 0.95938 0.43938 0.0
H274 H 0.37022 0.95156 0.43295 0.0
C275 C 0.27833 0.97182 0.42839 0.0
C276 C 0.32887 0.9412 0.44256 0.0
H277 H 0.28188 0.00391 0.40792 0.0
H278 H 0.50253 0.68509 0.52198 0.0
H279 H 0.46262 0.7808 0.51733 0.0
H280 H 0.45139 0.79076 0.41112 0.0
H281 H 0.48967 0.6952 0.41591 0.0
H282 H 0.41794 0.87102 0.43559 0.0
H283 H 0.3704 0.82635 0.50047 0.0
H284 H 0.26644 0.85379 0.49993 0.0
H285 H 0.17814 0.90833 0.47539 0.0
C286 C 0.11097 0.92812 0.13056 0.0
C287 C 0.07002 0.9559 0.1059 0.0
C288 C 0.10135 0.92499 0.1637 0.0
C289 C 0.05093 0.9504 0.17293 0.0
C290 C 1.00724 0.97326 0.14815 0.0
C291 C 1.01675 0.97616 0.11483 0.0
C292 C 0.04558 0.9573 0.20803 0.0
C293 C 0.09342 0.96711 0.22863 0.0
C294 C 0.09323 0.97849 0.26345 0.0
C295 C 0.14555 0.99751 0.27916 0.0
C296 C 0.14976 0.00628 0.31222 0.0
C297 C 0.10175 0.99609 0.33062 0.0
H298 H 1.00345 0.95427 0.27066 0.0
C299 C 0.04863 0.97852 0.31488 0.0
C300 C 0.0444 0.96952 0.28159 0.0
H301 H 1.01105 0.96995 0.32858 0.0
H302 H 0.15194 0.91116 0.12438 0.0
H303 H 0.1347 0.90467 0.18211 0.0
H304 H 0.96752 0.99223 0.1546 0.0
H305 H 0.98433 0.99784 0.09638 0.0
H306 H 1.00173 0.95948 0.21578 0.0
H307 H 0.13599 0.96937 0.21898 0.0
H308 H 0.18383 0.00511 0.26589 0.0
H309 H 0.19101 0.02064 0.32351 0.0
C310 C 0.06486 0.9834 0.87961 0.0
C311 C 1.00995 0.98355 0.89217 0.0
C312 C 0.06843 0.97463 0.84669 0.0
C313 C 1.01696 0.96558 0.82591 0.0
C314 C 0.96283 0.96283 0.83922 0.0
C315 C 0.95933 0.97162 0.87185 0.0
C316 C 1.01587 0.96506 0.78964 0.0
C317 C 0.06327 0.95583 0.77389 0.0
C318 C 0.06185 0.96353 0.73717 0.0
C319 C 0.11518 0.972 0.72334 0.0
C320 C 0.1156 0.98548 0.6893 0.0
C321 C 0.06256 0.99097 0.66816 0.0
H322 H 0.96703 0.95645 0.72491 0.0
C323 C 1.00945 0.97908 0.68172 0.0
C324 C 1.00907 0.96509 0.71575 0.0
H325 H 0.96776 0.98261 0.66625 0.0
H326 H 0.10447 0.99332 0.89452 0.0
H327 H 0.11095 0.9781 0.83735 0.0
H328 H 0.92251 0.95584 0.82394 0.0
H329 H 0.91635 0.97095 0.88084 0.0
H330 H 0.97359 0.97532 0.77538 0.0
H331 H 0.10563 0.94577 0.78818 0.0
H332 H 0.15665 0.97007 0.73901 0.0
H333 H 0.15755 0.99279 0.67963 0.0
C334 C 0.57344 0.39274 0.63659 0.0
C335 C 0.54333 0.42848 0.61058 0.0
C336 C 0.55762 0.3915 0.66852 0.0
C337 C 0.51208 0.42684 0.67506 0.0
C338 C 0.47702 0.45684 0.64845 0.0
C339 C 0.49258 0.45771 0.61629 0.0
C340 C 0.50647 0.43894 0.70924 0.0
C341 C 0.55527 0.44508 0.72998 0.0
C342 C 0.55638 0.46454 0.76298 0.0
C343 C 0.60983 0.48436 0.7768 0.0
C344 C 0.61514 0.5004 0.8084 0.0
C345 C 0.56721 0.49655 0.82725 0.0
H346 H 0.46586 0.44646 0.77174 0.0
C347 C 0.51298 0.47822 0.81323 0.0
C348 C 0.50756 0.46219 0.78135 0.0
H349 H 0.47542 0.47436 0.82734 0.0
H350 H 0.61214 0.36907 0.63271 0.0
H351 H 0.58392 0.36606 0.68843 0.0
H352 H 0.44104 0.48362 0.65282 0.0
H353 H 0.4685 0.48553 0.59662 0.0
H354 H 0.46325 0.44982 0.71564 0.0
H355 H 0.59808 0.43905 0.72138 0.0
H356 H 0.64808 0.487 0.76319 0.0
H357 H 0.65722 0.51522 0.81826 0.0
C358 C 0.63071 0.44269 0.39857 0.0
C359 C 0.57514 0.42874 0.40837 0.0
C360 C 0.64659 0.42872 0.36849 0.0
C361 C 0.60678 0.40078 0.34776 0.0
C362 C 0.55385 0.38228 0.35938 0.0
C363 C 0.53797 0.39649 0.38919 0.0
C364 C 0.61424 0.39579 0.31264 0.0
C365 C 0.65047 0.42757 0.29486 0.0
C366 C 0.64312 0.43545 0.25822 0.0
C367 C 0.6921 0.44883 0.24116 0.0
C368 C 0.68498 0.46458 0.20705 0.0
C369 C 0.62841 0.46875 0.18934 0.0
H370 H 0.54775 0.42868 0.25279 0.0
C371 C 0.57958 0.45351 0.20635 0.0
C372 C 0.58682 0.43697 0.24035 0.0
H373 H 0.53526 0.45714 0.19379 0.0
H374 H 0.66015 0.46758 0.41297 0.0
H375 H 0.68878 0.44211 0.36113 0.0
H376 H 0.52261 0.36007 0.3443 0.0
H377 H 0.49503 0.38479 0.39638 0.0
H378 H 0.58303 0.37007 0.29977 0.0
H379 H 0.68348 0.45247 0.30687 0.0
H380 H 0.73586 0.44832 0.25437 0.0
H381 H 0.72378 0.47492 0.19472 0.0
loop_
_geom_bond_atom_site_label_1
_geom_bond_atom_site_label_2
_geom_bond_distance
_geom_bond_site_symmetry_2
_ccdc_geom_bond_type
Zn0 O6 1.920 1_545 S
Zn0 O12 1.898 . S
Zn0 O15 1.905 1_545 S
Zn1 O9 1.919 . S
Zn1 O10 1.889 1_545 S
Zn1 O18 1.915 1_545 S
Zn2 O5 2.080 1_445 S
Zn2 O8 2.114 . S
Zn2 O11 2.120 1_545 S
Zn2 O13 2.120 1_455 S
Zn2 O14 2.114 1_554 S
Zn2 O17 2.080 . S
C3 O8 1.166 . S
C3 O9 1.182 . S
C4 O10 1.167 . S
C4 O11 1.299 . S
O5 Zn2 2.080 1_665 S
O5 C19 1.305 . S
O6 Zn0 1.920 1_565 S
O6 C19 1.234 1_556 S
C7 O12 1.167 . S
C7 O13 1.299 1_556 S
O8 Zn2 2.114 . S
O8 C3 1.166 . S
O9 Zn1 1.919 . S
O9 C3 1.182 . S
O10 Zn1 1.889 1_565 S
O10 C4 1.167 . S
O11 Zn2 2.120 1_565 S
O11 C4 1.299 . S
O12 Zn0 1.898 . S
O12 C7 1.167 . S
O13 Zn2 2.120 1_655 S
O13 C7 1.299 1_554 S
O14 Zn2 2.114 1_556 S
O14 C16 1.166 1_545 S
O15 Zn0 1.905 1_565 S
O15 C16 1.182 1_655 S
C16 O14 1.166 1_565 S
C16 O15 1.182 1_455 S
O17 Zn2 2.080 . S
O17 C20 1.305 1_545 S
O18 Zn1 1.915 1_565 S
O18 C20 1.234 . S
C19 O5 1.305 . S
C19 O6 1.234 1_554 S
C20 O17 1.305 1_565 S
C20 O18 1.234 . S
Zn21 O27 1.920 . S
Zn21 O33 1.898 . S
Zn21 O36 1.905 . S
Zn22 O30 1.905 . S
Zn22 O31 1.898 . S
Zn22 O39 1.920 . S
Zn23 O26 2.080 . S
Zn23 O29 2.114 . S
Zn23 O32 2.120 . S
Zn23 O34 2.120 . S
Zn23 O35 2.114 . S
Zn23 O38 2.080 . S
C24 O29 1.166 . S
C24 O30 1.182 . S
C25 O31 1.167 . S
C25 O32 1.299 . S
O26 Zn23 2.080 . S
O26 C40 1.305 . S
O27 Zn21 1.920 . S
O27 C40 1.234 . S
C28 O33 1.167 . S
C28 O34 1.299 . S
O29 Zn23 2.114 . S
O29 C24 1.166 . S
O30 Zn22 1.905 . S
O30 C24 1.182 . S
O31 Zn22 1.898 . S
O31 C25 1.167 . S
O32 Zn23 2.120 . S
O32 C25 1.299 . S
O33 Zn21 1.898 . S
O33 C28 1.167 . S
O34 Zn23 2.120 . S
O34 C28 1.299 . S
O35 Zn23 2.114 . S
O35 C37 1.166 . S
O36 Zn21 1.905 . S
O36 C37 1.182 . S
C37 O35 1.166 . S
C37 O36 1.182 . S
O38 Zn23 2.080 . S
O38 C41 1.305 . S
O39 Zn22 1.920 . S
O39 C41 1.234 . S
C40 O26 1.305 . S
C40 O27 1.234 . S
C41 O38 1.305 . S
C41 O39 1.234 . S
H42 C49 0.929 . S
H43 C52 0.930 . S
H44 C54 0.929 . S
H45 C46 0.969 . S
C46 H45 0.969 . S
C46 O47 1.550 1_655 S
C46 H48 0.973 . S
O47 C46 1.550 1_455 S
O47 C53 1.412 . S
H48 C46 0.973 . S
C49 H42 0.929 . S
C49 C50 1.400 . S
C49 C51 1.364 1_565 S
C50 C49 1.400 . S
C50 C54 1.377 . S
C51 C49 1.364 1_545 S
C51 C52 1.374 . S
C52 H43 0.930 . S
C52 C51 1.374 . S
C52 C53 1.383 . S
C53 O47 1.412 . S
C53 C52 1.383 . S
C53 C54 1.394 1_545 S
C54 H44 0.929 . S
C54 C50 1.377 . S
C54 C53 1.394 1_565 S
H55 C62 0.929 . S
H56 C65 0.930 1_565 S
H57 C67 0.929 . S
H58 C59 0.969 . S
C59 H58 0.969 . S
C59 O60 1.550 . S
C59 H61 0.973 . S
O60 C59 1.550 . S
O60 C66 1.412 1_565 S
H61 C59 0.973 . S
C62 H55 0.929 . S
C62 C63 1.400 . S
C62 C64 1.364 . S
C63 C62 1.400 . S
C63 C67 1.377 . S
C64 C62 1.364 . S
C64 C65 1.374 1_455 S
C65 H56 0.930 1_545 S
C65 C64 1.374 1_655 S
C65 C66 1.383 . S
C66 O60 1.412 1_545 S
C66 C65 1.383 . S
C66 C67 1.394 1_655 S
C67 H57 0.929 . S
C67 C63 1.377 . S
C67 C66 1.394 1_455 S
H68 C75 0.929 . S
H69 C78 0.930 . S
H70 C80 0.929 . S
H71 C72 0.969 . S
C72 H71 0.969 . S
C72 O73 1.550 . S
C72 H74 0.973 . S
O73 C72 1.550 . S
O73 C79 1.412 . S
H74 C72 0.973 . S
C75 H68 0.929 . S
C75 C76 1.400 . S
C75 C77 1.364 . S
C76 C75 1.400 . S
C76 C80 1.377 . S
C77 C75 1.364 . S
C77 C78 1.374 . S
C78 H69 0.930 . S
C78 C77 1.374 . S
C78 C79 1.383 . S
C79 O73 1.412 . S
C79 C78 1.383 . S
C79 C80 1.394 . S
C80 H70 0.929 . S
C80 C76 1.377 . S
C80 C79 1.394 . S
H81 C88 0.929 . S
H82 C91 0.930 . S
H83 C93 0.929 . S
H84 C85 0.969 . S
C85 H84 0.969 . S
C85 O86 1.550 . S
C85 H87 0.973 . S
O86 C85 1.550 . S
O86 C92 1.412 . S
H87 C85 0.973 . S
C88 H81 0.929 . S
C88 C89 1.400 . S
C88 C90 1.364 . S
C89 C88 1.400 . S
C89 C93 1.377 . S
C90 C88 1.364 . S
C90 C91 1.374 . S
C91 H82 0.930 . S
C91 C90 1.374 . S
C91 C92 1.383 . S
C92 O86 1.412 . S
C92 C91 1.383 . S
C92 C93 1.394 . S
C93 H83 0.929 . S
C93 C89 1.377 . S
C93 C92 1.394 . S
C94 C95 1.386 . S
C94 C96 1.383 . S
C94 H110 0.951 . S
C95 C94 1.386 . S
C95 C99 1.383 . S
C96 C94 1.383 . S
C96 C97 1.402 . S
C96 H111 0.951 . S
C97 C96 1.402 . S
C97 C98 1.375 . S
C97 C100 1.481 . S
C98 C97 1.375 . S
C98 C99 1.367 . S
C98 H112 0.951 . S
C99 C95 1.383 . S
C99 C98 1.367 . S
C99 H113 0.950 . S
C100 C97 1.481 . S
C100 C101 1.297 . S
C100 H114 0.950 . S
C101 C100 1.297 . S
C101 C102 1.479 . S
C101 H115 0.950 . S
C102 C101 1.479 . S
C102 C103 1.375 . S
C102 C108 1.404 . S
C103 C102 1.375 . S
C103 C104 1.369 . S
C103 H116 0.950 . S
C104 C103 1.369 . S
C104 C105 1.392 . S
C104 H117 0.951 . S
C105 C104 1.392 . S
C105 C107 1.384 . S
H106 C108 0.949 . S
C107 C105 1.384 . S
C107 C108 1.385 . S
C107 H109 0.950 . S
C108 C102 1.404 . S
C108 H106 0.949 . S
C108 C107 1.385 . S
H109 C107 0.950 . S
H110 C94 0.951 . S
H111 C96 0.951 . S
H112 C98 0.951 . S
H113 C99 0.950 . S
H114 C100 0.950 . S
H115 C101 0.950 . S
H116 C103 0.950 . S
H117 C104 0.951 . S
C118 C119 1.386 1_554 S
C118 C120 1.383 . S
C118 H134 0.951 . S
C119 C118 1.386 1_556 S
C119 C123 1.383 . S
C120 C118 1.383 . S
C120 C121 1.402 1_554 S
C120 H135 0.951 . S
C121 C120 1.402 1_556 S
C121 C122 1.375 . S
C121 C124 1.481 . S
C122 C121 1.375 . S
C122 C123 1.367 . S
C122 H136 0.951 . S
C123 C119 1.383 . S
C123 C122 1.367 . S
C123 H137 0.950 . S
C124 C121 1.481 . S
C124 C125 1.297 . S
C124 H138 0.950 . S
C125 C124 1.297 . S
C125 C126 1.479 . S
C125 H139 0.941 1_556 S
C126 C125 1.479 . S
C126 C127 1.375 . S
C126 C132 1.404 . S
C127 C126 1.375 . S
C127 C128 1.369 . S
C127 H140 0.950 1_556 S
C128 C127 1.369 . S
C128 C129 1.392 . S
C128 H141 0.970 . S
C129 C128 1.392 . S
C129 C131 1.384 . S
H130 C132 0.949 . S
C131 C129 1.384 . S
C131 C132 1.385 . S
C131 H133 0.950 . S
C132 C126 1.404 . S
C132 H130 0.949 . S
C132 C131 1.385 . S
H133 C131 0.950 . S
H134 C118 0.951 . S
H135 C120 0.951 . S
H136 C122 0.951 . S
H137 C123 0.950 . S
H138 C124 0.950 . S
H139 C125 0.941 1_554 S
H140 C127 0.950 1_554 S
H141 C128 0.970 . S
C142 C143 1.386 . S
C142 C144 1.383 . S
C142 H158 0.951 . S
C143 C142 1.386 . S
C143 C147 1.383 . S
C144 C142 1.383 . S
C144 C145 1.402 . S
C144 H159 0.951 . S
C145 C144 1.402 . S
C145 C146 1.375 . S
C145 C148 1.481 . S
C146 C145 1.375 . S
C146 C147 1.367 . S
C146 H160 0.951 . S
C147 C143 1.383 . S
C147 C146 1.367 . S
C147 H161 0.950 . S
C148 C145 1.481 . S
C148 C149 1.297 . S
C148 H162 0.950 . S
C149 C148 1.297 . S
C149 C150 1.479 . S
C149 H163 0.950 . S
C150 C149 1.479 . S
C150 C151 1.375 . S
C150 C156 1.404 . S
C151 C150 1.375 . S
C151 C152 1.369 . S
C151 H164 0.950 . S
C152 C151 1.369 . S
C152 C153 1.392 . S
C152 H165 0.951 . S
C153 C152 1.392 . S
C153 C155 1.384 . S
H154 C156 0.949 . S
C155 C153 1.384 . S
C155 C156 1.385 . S
C155 H157 0.950 . S
C156 C150 1.404 . S
C156 H154 0.949 . S
C156 C155 1.385 . S
H157 C155 0.950 . S
H158 C142 0.951 . S
H159 C144 0.951 . S
H160 C146 0.951 . S
H161 C147 0.950 . S
H162 C148 0.950 . S
H163 C149 0.950 . S
H164 C151 0.950 . S
H165 C152 0.951 . S
C166 C167 1.395 . S
C166 C168 1.384 . S
C166 H182 0.940 1_556 S
C167 C166 1.395 . S
C167 C171 1.383 . S
C168 C166 1.384 . S
C168 C169 1.402 . S
C168 H183 0.942 1_556 S
C169 C168 1.402 . S
C169 C170 1.375 . S
C169 C172 1.481 . S
C170 C169 1.375 . S
C170 C171 1.367 . S
C170 H184 0.951 . S
C171 C167 1.383 . S
C171 C170 1.367 . S
C171 H185 0.950 1_655 S
C172 C169 1.481 . S
C172 C173 1.297 . S
C172 H186 0.950 . S
C173 C172 1.297 . S
C173 C174 1.479 . S
C173 H187 0.950 . S
C174 C173 1.479 . S
C174 C175 1.375 . S
C174 C180 1.404 . S
C175 C174 1.375 . S
C175 C176 1.369 . S
C175 H188 0.950 . S
C176 C175 1.369 . S
C176 C177 1.392 . S
C176 H189 0.951 . S
C177 C176 1.392 . S
C177 C179 1.384 . S
H178 C180 0.949 . S
C179 C177 1.384 . S
C179 C180 1.385 . S
C179 H181 0.950 . S
C180 C174 1.404 . S
C180 H178 0.949 . S
C180 C179 1.385 . S
H181 C179 0.950 . S
H182 C166 0.940 1_554 S
H183 C168 0.942 1_554 S
H184 C170 0.951 . S
H185 C171 0.950 1_455 S
H186 C172 0.950 . S
H187 C173 0.950 . S
H188 C175 0.950 . S
H189 C176 0.951 . S
C190 C191 1.386 . S
C190 C192 1.383 . S
C190 H206 0.951 . S
C191 C190 1.386 . S
C191 C195 1.383 . S
C192 C190 1.383 . S
C192 C193 1.402 . S
C192 H207 0.951 . S
C193 C192 1.402 . S
C193 C194 1.375 . S
C193 C196 1.481 . S
C194 C193 1.375 . S
C194 C195 1.367 . S
C194 H208 0.951 . S
C195 C191 1.383 . S
C195 C194 1.367 . S
C195 H209 0.950 . S
C196 C193 1.481 . S
C196 C197 1.297 . S
C196 H210 0.950 . S
C197 C196 1.297 . S
C197 C198 1.479 . S
C197 H211 0.950 . S
C198 C197 1.479 . S
C198 C199 1.375 . S
C198 C204 1.404 . S
C199 C198 1.375 . S
C199 C200 1.369 . S
C199 H212 0.950 . S
C200 C199 1.369 . S
C200 C201 1.392 . S
C200 H213 0.951 . S
C201 C200 1.392 . S
C201 C203 1.384 . S
H202 C204 0.949 . S
C203 C201 1.384 . S
C203 C204 1.385 . S
C203 H205 0.950 . S
C204 C198 1.404 . S
C204 H202 0.949 . S
C204 C203 1.385 . S
H205 C203 0.950 . S
H206 C190 0.951 . S
H207 C192 0.951 . S
H208 C194 0.951 . S
H209 C195 0.950 . S
H210 C196 0.950 . S
H211 C197 0.950 . S
H212 C199 0.950 . S
H213 C200 0.951 . S
C214 C215 1.386 . S
C214 C216 1.383 . S
C214 H230 0.951 . S
C215 C214 1.386 . S
C215 C219 1.383 . S
C216 C214 1.383 . S
C216 C217 1.402 . S
C216 H231 0.951 . S
C217 C216 1.402 . S
C217 C218 1.375 . S
C217 C220 1.481 . S
C218 C217 1.375 . S
C218 C219 1.367 . S
C218 H232 0.951 . S
C219 C215 1.383 . S
C219 C218 1.367 . S
C219 H233 0.950 . S
C220 C217 1.481 . S
C220 C221 1.297 . S
C220 H234 0.950 . S
C221 C220 1.297 . S
C221 C222 1.479 . S
C221 H235 0.950 . S
C222 C221 1.479 . S
C222 C223 1.375 . S
C222 C228 1.404 . S
C223 C222 1.375 . S
C223 C224 1.369 . S
C223 H236 0.950 . S
C224 C223 1.369 . S
C224 C225 1.392 . S
C224 H237 0.951 . S
C225 C224 1.392 . S
C225 C227 1.384 . S
H226 C228 0.949 . S
C227 C225 1.384 . S
C227 C228 1.385 . S
C227 H229 0.950 1_655 S
C228 C222 1.404 . S
C228 H226 0.949 . S
C228 C227 1.385 . S
H229 C227 0.950 1_455 S
H230 C214 0.951 . S
H231 C216 0.951 . S
H232 C218 0.951 . S
H233 C219 0.950 . S
H234 C220 0.950 . S
H235 C221 0.950 . S
H236 C223 0.950 . S
H237 C224 0.951 . S
C238 C239 1.386 . S
C238 C240 1.383 . S
C238 H254 0.951 . S
C239 C238 1.386 . S
C239 C243 1.383 . S
C240 C238 1.383 . S
C240 C241 1.402 . S
C240 H255 0.951 . S
C241 C240 1.402 . S
C241 C242 1.375 . S
C241 C244 1.481 . S
C242 C241 1.375 . S
C242 C243 1.367 . S
C242 H256 0.951 . S
C243 C239 1.383 . S
C243 C242 1.367 . S
C243 H257 0.950 . S
C244 C241 1.481 . S
C244 C245 1.297 . S
C244 H258 0.950 . S
C245 C244 1.297 . S
C245 C246 1.479 . S
C245 H259 0.950 . S
C246 C245 1.479 . S
C246 C247 1.375 . S
C246 C252 1.404 . S
C247 C246 1.375 . S
C247 C248 1.369 . S
C247 H260 0.950 . S
C248 C247 1.369 . S
C248 C249 1.392 . S
C248 H261 0.951 . S
C249 C248 1.392 . S
C249 C251 1.384 . S
H250 C252 0.949 . S
C251 C249 1.384 . S
C251 C252 1.385 . S
C251 H253 0.950 . S
C252 C246 1.404 . S
C252 H250 0.949 . S
C252 C251 1.385 . S
H253 C251 0.950 . S
H254 C238 0.951 . S
H255 C240 0.951 . S
H256 C242 0.951 . S
H257 C243 0.950 . S
H258 C244 0.950 . S
H259 C245 0.950 . S
H260 C247 0.950 . S
H261 C248 0.951 . S
C262 C263 1.386 . S
C262 C264 1.383 . S
C262 H278 0.951 . S
C263 C262 1.386 . S
C263 C267 1.383 . S
C264 C262 1.383 . S
C264 C265 1.402 . S
C264 H279 0.951 . S
C265 C264 1.402 . S
C265 C266 1.375 . S
C265 C268 1.481 . S
C266 C265 1.375 . S
C266 C267 1.367 . S
C266 H280 0.951 . S
C267 C263 1.383 . S
C267 C266 1.367 . S
C267 H281 0.950 . S
C268 C265 1.481 . S
C268 C269 1.297 . S
C268 H282 0.950 . S
C269 C268 1.297 . S
C269 C270 1.479 . S
C269 H283 0.950 . S
C270 C269 1.479 . S
C270 C271 1.375 . S
C270 C276 1.404 . S
C271 C270 1.375 . S
C271 C272 1.369 . S
C271 H284 0.950 . S
C272 C271 1.369 . S
C272 C273 1.392 . S
C272 H285 0.951 . S
C273 C272 1.392 . S
C273 C275 1.384 . S
H274 C276 0.949 . S
C275 C273 1.384 . S
C275 C276 1.385 . S
C275 H277 0.950 . S
C276 C270 1.404 . S
C276 H274 0.949 . S
C276 C275 1.385 . S
H277 C275 0.950 . S
H278 C262 0.951 . S
H279 C264 0.951 . S
H280 C266 0.951 . S
H281 C267 0.950 . S
H282 C268 0.950 . S
H283 C269 0.950 . S
H284 C271 0.950 . S
H285 C272 0.951 . S
C286 C287 1.386 . S
C286 C288 1.383 1_565 S
C286 H302 0.951 1_565 S
C287 C286 1.386 . S
C287 C291 1.383 . S
C288 C286 1.383 1_545 S
C288 C289 1.402 1_545 S
C288 H303 0.951 . S
C289 C288 1.402 1_565 S
C289 C290 1.375 . S
C289 C292 1.481 . S
C290 C289 1.375 . S
C290 C291 1.367 . S
C290 H304 0.951 1_455 S
C291 C287 1.383 . S
C291 C290 1.367 . S
C291 H305 0.950 1_455 S
C292 C289 1.481 . S
C292 C293 1.297 1_565 S
C292 H306 0.950 . S
C293 C292 1.297 1_545 S
C293 C294 1.479 . S
C293 H307 0.950 . S
C294 C293 1.479 . S
C294 C295 1.375 . S
C294 C300 1.404 . S
C295 C294 1.375 . S
C295 C296 1.369 . S
C295 H308 0.950 . S
C296 C295 1.369 . S
C296 C297 1.392 . S
C296 H309 0.951 . S
C297 C296 1.392 . S
C297 C299 1.384 . S
H298 C300 0.945 1_665 S
C299 C297 1.384 . S
C299 C300 1.385 . S
C299 H301 0.950 1_445 S
C300 C294 1.404 . S
C300 H298 0.945 1_445 S
C300 C299 1.385 . S
H301 C299 0.950 1_665 S
H302 C286 0.951 1_545 S
H303 C288 0.951 . S
H304 C290 0.951 1_655 S
H305 C291 0.950 1_655 S
H306 C292 0.950 . S
H307 C293 0.950 . S
H308 C295 0.950 . S
H309 C296 0.951 . S
C310 C311 1.386 . S
C310 C312 1.383 . S
C310 H326 0.951 . S
C311 C310 1.386 . S
C311 C315 1.383 1_465 S
C312 C310 1.383 . S
C312 C313 1.402 . S
C312 H327 0.951 . S
C313 C312 1.402 . S
C313 C314 1.374 1_465 S
C313 C316 1.481 1_465 S
C314 C313 1.374 1_645 S
C314 C315 1.367 . S
C314 H328 0.951 . S
C315 C311 1.383 1_645 S
C315 C314 1.367 . S
C315 H329 0.950 . S
C316 C313 1.481 1_645 S
C316 C317 1.298 1_645 S
C316 H330 0.949 . S
C317 C316 1.298 1_465 S
C317 C318 1.479 . S
C317 H331 0.950 . S
C318 C317 1.479 . S
C318 C319 1.375 . S
C318 C324 1.404 1_465 S
C319 C318 1.375 . S
C319 C320 1.369 1_565 S
C319 H332 0.950 . S
C320 C319 1.369 1_545 S
C320 C321 1.392 . S
C320 H333 0.951 1_545 S
C321 C320 1.392 . S
C321 C323 1.384 1_455 S
H322 C324 0.949 . S
C323 C321 1.384 1_655 S
C323 C324 1.385 . S
C323 H325 0.950 . S
C324 C318 1.404 1_645 S
C324 H322 0.949 . S
C324 C323 1.385 . S
H325 C323 0.950 . S
H326 C310 0.951 . S
H327 C312 0.951 . S
H328 C314 0.951 . S
H329 C315 0.950 . S
H330 C316 0.949 . S
H331 C317 0.950 . S
H332 C319 0.950 . S
H333 C320 0.951 1_565 S
C334 C335 1.386 . S
C334 C336 1.383 . S
C334 H350 0.951 . S
C335 C334 1.386 . S
C335 C339 1.383 . S
C336 C334 1.383 . S
C336 C337 1.402 . S
C336 H351 0.951 . S
C337 C336 1.402 . S
C337 C338 1.375 . S
C337 C340 1.481 . S
C338 C337 1.375 . S
C338 C339 1.367 . S
C338 H352 0.951 . S
C339 C335 1.383 . S
C339 C338 1.367 . S
C339 H353 0.950 . S
C340 C337 1.481 . S
C340 C341 1.297 . S
C340 H354 0.950 . S
C341 C340 1.297 . S
C341 C342 1.479 . S
C341 H355 0.950 . S
C342 C341 1.479 . S
C342 C343 1.375 . S
C342 C348 1.404 . S
C343 C342 1.375 . S
C343 C344 1.369 . S
C343 H356 0.950 . S
C344 C343 1.369 . S
C344 C345 1.392 . S
C344 H357 0.951 . S
C345 C344 1.392 . S
C345 C347 1.384 . S
H346 C348 0.949 . S
C347 C345 1.384 . S
C347 C348 1.385 . S
C347 H349 0.950 . S
C348 C342 1.404 . S
C348 H346 0.949 . S
C348 C347 1.385 . S
H349 C347 0.950 . S
H350 C334 0.951 . S
H351 C336 0.951 . S
H352 C338 0.951 . S
H353 C339 0.950 . S
H354 C340 0.950 . S
H355 C341 0.950 . S
H356 C343 0.950 . S
H357 C344 0.951 . S
C358 C359 1.386 . S
C358 C360 1.383 . S
C358 H374 0.951 . S
C359 C358 1.386 . S
C359 C363 1.383 . S
C360 C358 1.383 . S
C360 C361 1.402 . S
C360 H375 0.951 . S
C361 C360 1.402 . S
C361 C362 1.375 . S
C361 C364 1.481 . S
C362 C361 1.375 . S
C362 C363 1.367 . S
C362 H376 0.951 . S
C363 C359 1.383 . S
C363 C362 1.367 . S
C363 H377 0.950 . S
C364 C361 1.481 . S
C364 C365 1.297 . S
C364 H378 0.950 . S
C365 C364 1.297 . S
C365 C366 1.479 . S
C365 H379 0.950 . S
C366 C365 1.479 . S
C366 C367 1.375 . S
C366 C372 1.404 . S
C367 C366 1.375 . S
C367 C368 1.369 . S
C367 H380 0.950 . S
C368 C367 1.369 . S
C368 C369 1.392 . S
C368 H381 0.951 . S
C369 C368 1.392 . S
C369 C371 1.384 . S
H370 C372 0.949 . S
C371 C369 1.384 . S
C371 C372 1.385 . S
C371 H373 0.950 . S
C372 C366 1.404 . S
C372 H370 0.949 . S
C372 C371 1.385 . S
H373 C371 0.950 . S
H374 C358 0.951 . S
H375 C360 0.951 . S
H376 C362 0.951 . S
H377 C363 0.950 . S
H378 C364 0.950 . S
H379 C365 0.950 . S
H380 C367 0.950 . S
H381 C368 0.951 . S
C105 C85 1.199 . S
C95 C3 1.149 . S
C119 C4 1.485 1_556 S
C129 C72 1.413 . S
C143 C19 1.560 . S
C153 C89 1.701 . S
C167 C7 1.219 . S
C177 C76 1.327 . S
C191 C37 1.047 . S
C201 C59 1.051 . S
C215 C28 1.447 . S
C225 C46 1.375 . S
C249 C63 1.678 . S
C239 C41 1.528 . S
C273 C50 1.307 . S
C263 C25 1.173 . S
C287 C20 1.368 . S
C297 C51 1.505 . S
C311 C16 1.327 . S
C321 C64 1.509 . S
C345 C77 1.505 . S
C335 C40 1.371 . S
C359 C24 1.372 . S
C369 C90 1.497 . S
