# Generated by pormake.
# Topology zzz, (3,6)-cn, num edge types: 1
# Building blocks:
#     Node 0, Type 0, BuildingBlock: VETTIZ_charged_linker_0, # of connection points: 3
#     Node 1, Type 0, BuildingBlock: VETTIZ_charged_linker_0, # of connection points: 3
#     Node 2, Type 0, BuildingBlock: VETTIZ_charged_linker_0, # of connection points: 3
#     Node 3, Type 0, BuildingBlock: VETTIZ_charged_linker_0, # of connection points: 3
#     Node 4, Type 0, BuildingBlock: VETTIZ_charged_linker_0, # of connection points: 3
#     Node 5, Type 0, BuildingBlock: VETTIZ_charged_linker_0, # of connection points: 3
#     Node 6, Type 0, BuildingBlock: VETTIZ_charged_linker_0, # of connection points: 3
#     Node 7, Type 0, BuildingBlock: VETTIZ_charged_linker_0, # of connection points: 3
#     Node 8, Type 1, BuildingBlock: INOVEN_clean_sbu_0, # of connection points: 6
#     Node 9, Type 1, BuildingBlock: INOVEN_clean_sbu_0, # of connection points: 6
#     Node 10, Type 1, BuildingBlock: INOVEN_clean_sbu_0, # of connection points: 6
#     Node 11, Type 1, BuildingBlock: INOVEN_clean_sbu_0, # of connection points: 6
#     Edge 12, Type (0, 1), BuildingBlock: EZIPEK_clean_linker_0, # of connection points: 2
#     Edge 13, Type (0, 1), BuildingBlock: EZIPEK_clean_linker_0, # of connection points: 2
#     Edge 14, Type (0, 1), BuildingBlock: EZIPEK_clean_linker_0, # of connection points: 2
#     Edge 15, Type (0, 1), BuildingBlock: EZIPEK_clean_linker_0, # of connection points: 2
#     Edge 16, Type (0, 1), BuildingBlock: EZIPEK_clean_linker_0, # of connection points: 2
#     Edge 17, Type (0, 1), BuildingBlock: EZIPEK_clean_linker_0, # of connection points: 2
#     Edge 18, Type (0, 1), BuildingBlock: EZIPEK_clean_linker_0, # of connection points: 2
#     Edge 19, Type (0, 1), BuildingBlock: EZIPEK_clean_linker_0, # of connection points: 2
#     Edge 20, Type (0, 1), BuildingBlock: EZIPEK_clean_linker_0, # of connection points: 2
#     Edge 21, Type (0, 1), BuildingBlock: EZIPEK_clean_linker_0, # of connection points: 2
#     Edge 22, Type (0, 1), BuildingBlock: EZIPEK_clean_linker_0, # of connection points: 2
#     Edge 23, Type (0, 1), BuildingBlock: EZIPEK_clean_linker_0, # of connection points: 2
#     Edge 24, Type (0, 1), BuildingBlock: EZIPEK_clean_linker_0, # of connection points: 2
#     Edge 25, Type (0, 1), BuildingBlock: EZIPEK_clean_linker_0, # of connection points: 2
#     Edge 26, Type (0, 1), BuildingBlock: EZIPEK_clean_linker_0, # of connection points: 2
#     Edge 27, Type (0, 1), BuildingBlock: EZIPEK_clean_linker_0, # of connection points: 2
#     Edge 28, Type (0, 1), BuildingBlock: EZIPEK_clean_linker_0, # of connection points: 2
#     Edge 29, Type (0, 1), BuildingBlock: EZIPEK_clean_linker_0, # of connection points: 2
#     Edge 30, Type (0, 1), BuildingBlock: EZIPEK_clean_linker_0, # of connection points: 2
#     Edge 31, Type (0, 1), BuildingBlock: EZIPEK_clean_linker_0, # of connection points: 2
#     Edge 32, Type (0, 1), BuildingBlock: EZIPEK_clean_linker_0, # of connection points: 2
#     Edge 33, Type (0, 1), BuildingBlock: EZIPEK_clean_linker_0, # of connection points: 2
#     Edge 34, Type (0, 1), BuildingBlock: EZIPEK_clean_linker_0, # of connection points: 2
#     Edge 35, Type (0, 1), BuildingBlock: EZIPEK_clean_linker_0, # of connection points: 2
# Relax obj value: 0.493
# Max RMSD: 0.266
# Mean RMSD: 0.256
data_MOF--net-zzz--node1-INOVEN_clean_sbu_0--node2-VETTIZ_charged_linker_0--edge1-EZIPEK_clean_linker_0
_symmetry_space_group_name_H-M    P1
_symmetry_Int_Tables_number       1
_symmetry_cell_setting            triclinic
loop_
_symmetry_equiv_pos_as_xyz
'x, y, z'
_cell_length_a     45.3678
_cell_length_b     45.464928
_cell_length_c     14.379658
_cell_angle_alpha  89.651954
_cell_angle_beta   89.957261
_cell_angle_gamma 89.899151
loop_
_atom_site_label
_atom_site_type_symbol
_atom_site_fract_x
_atom_site_fract_y
_atom_site_fract_z
_atom_type_partial_charge
C0 C 0.80542 0.51908 0.41019 0.0
C1 C 0.83211 0.50709 0.44615 0.0
C2 C 0.8408 0.4789 0.41809 0.0
C3 C 0.79782 0.47474 0.31913 0.0
C4 C 0.78847 0.50231 0.34632 0.0
C5 C 0.75947 0.51037 0.29842 0.0
H6 H 0.65349 0.46791 0.97913 0.0
C7 C 0.77639 0.46261 0.25228 0.0
C8 C 0.75327 0.48296 0.23947 0.0
H9 H 0.65537 0.55032 0.1251 0.0
H10 H 0.69962 0.5345 0.20977 0.0
H11 H 0.71517 0.46612 0.92703 0.0
H12 H 0.69602 0.39991 0.11553 0.0
H13 H 0.66755 0.41457 0.04072 0.0
H14 H 0.67132 0.42637 0.15899 0.0
H15 H 0.69829 0.4307 0.91796 0.0
H16 H 0.73645 0.43488 0.95034 0.0
C17 C 0.76465 0.53787 0.23739 0.0
C18 C 0.73561 0.515 0.3732 0.0
C19 C 0.80617 0.37258 0.07219 0.0
C20 C 0.79408 0.35953 0.9921 0.0
C21 C 0.76376 0.36368 0.97457 0.0
C22 C 0.7475 0.38449 0.02502 0.0
C23 C 0.76168 0.40106 0.09413 0.0
C24 C 0.78985 0.39351 0.12084 0.0
C25 C 0.80171 0.41345 0.19469 0.0
C26 C 0.77704 0.43592 0.20179 0.0
C27 C 0.75376 0.42864 0.1427 0.0
C28 C 0.83088 0.4274 0.15829 0.0
C29 C 0.80479 0.395 0.28546 0.0
C30 C 0.66326 0.48249 0.02984 0.0
C31 C 0.65105 0.51027 0.04531 0.0
C32 C 0.66452 0.52874 0.1118 0.0
C33 C 0.6902 0.5196 0.16045 0.0
C34 C 0.70259 0.49174 0.14224 0.0
C35 C 0.68863 0.47378 0.0782 0.0
C36 C 0.70443 0.44536 0.06353 0.0
C37 C 0.7303 0.44877 0.12885 0.0
C38 C 0.72965 0.47595 0.17621 0.0
C39 C 0.71401 0.44389 0.95964 0.0
C40 C 0.68384 0.42006 0.09556 0.0
H41 H 0.83237 0.44162 0.33748 0.0
H42 H 0.79805 0.54068 0.43144 0.0
H43 H 0.73525 0.49607 0.42256 0.0
H44 H 0.71332 0.51669 0.34298 0.0
H45 H 0.74003 0.53529 0.41356 0.0
H46 H 0.78451 0.53485 0.19305 0.0
H47 H 0.76816 0.55759 0.28124 0.0
H48 H 0.7461 0.54234 0.18988 0.0
H49 H 0.82919 0.36974 0.08991 0.0
H50 H 0.75309 0.35266 0.91748 0.0
H51 H 0.72515 0.3883 1.00378 0.0
H52 H 0.83035 0.43037 0.08141 0.0
H53 H 0.85016 0.41331 0.17538 0.0
H54 H 0.83498 0.44972 0.18501 0.0
H55 H 0.78908 0.37623 0.28702 0.0
H56 H 0.79929 0.40781 0.34845 0.0
H57 H 0.82733 0.38571 0.29269 0.0
H58 H 0.86095 0.46923 0.44493 0.0
C59 C 0.82393 0.46277 0.35581 0.0
C60 C 0.07941 0.82012 0.8869 0.0
C61 C 0.09076 0.84873 0.88265 0.0
C62 C 0.07624 0.8716 0.92982 0.0
C63 C 0.04226 0.83682 0.99641 0.0
C64 C 0.05455 0.81482 0.94288 0.0
C65 C 0.03765 0.78656 0.95198 0.0
H66 H 0.97626 0.68802 0.20596 0.0
C67 C 0.01955 0.82387 0.05668 0.0
C68 C 1.01513 0.7951 0.02713 0.0
H69 H 0.97526 0.69339 0.90489 0.0
H70 H 0.9811 0.74662 0.91509 0.0
H71 H 0.02736 0.74214 0.26912 0.0
H72 H 0.93518 0.75972 0.20471 0.0
H73 H 0.9482 0.77236 0.31452 0.0
H74 H 0.94467 0.7336 0.29449 0.0
H75 H 0.99868 0.72323 0.33216 0.0
H76 H 1.00636 0.76124 0.35534 0.0
C77 C 0.05846 0.76181 0.9857 0.0
C78 C 0.02397 0.77939 0.85619 0.0
C79 C 0.99705 0.87924 0.35192 0.0
C80 C 0.9884 0.87136 0.4421 0.0
C81 C 0.98104 0.84148 0.45938 0.0
C82 C 0.98237 0.82013 0.38726 0.0
C83 C 0.99156 0.82861 0.29725 0.0
C84 C 0.99925 0.85782 0.28249 0.0
C85 C 1.01221 0.86316 0.18831 0.0
C86 C 1.00953 0.83284 0.14575 0.0
C87 C 0.99682 0.81222 0.20813 0.0
C88 C 0.04481 0.87333 0.20057 0.0
C89 C 0.99252 0.88571 0.13621 0.0
C90 C 0.97873 0.70045 0.14204 0.0
C91 C 0.97771 0.68607 0.05382 0.0
C92 C 0.9782 0.7034 0.97249 0.0
C93 C 0.98329 0.73351 0.977 0.0
C94 C 0.98958 0.74612 0.06261 0.0
C95 C 0.98374 0.73141 0.14413 0.0
C96 C 0.98266 0.75359 0.22453 0.0
C97 C 0.99162 0.78263 0.17569 0.0
C98 C 0.99772 0.77621 0.08224 0.0
C99 C 1.00499 0.74457 0.29985 0.0
C100 C 0.95093 0.75495 0.26209 0.0
H101 H 0.04151 0.88405 0.01984 0.0
H102 H 0.08952 0.80257 0.84748 0.0
H103 H 0.038 0.7872 0.79766 0.0
H104 H 1.00203 0.78999 0.848 0.0
H105 H 0.02219 0.75534 0.84536 0.0
H106 H 0.06879 0.76768 0.05319 0.0
H107 H 0.07626 0.75781 0.93417 0.0
H108 H 0.04635 0.74084 0.99524 0.0
H109 H 1.00355 0.90169 0.33672 0.0
H110 H 0.97471 0.83463 0.5288 0.0
H111 H 0.97715 0.79767 0.40404 0.0
H112 H 0.0517 0.87444 0.27469 0.0
H113 H 0.04845 0.8957 0.17142 0.0
H114 H 0.06067 0.85787 0.16825 0.0
H115 H 0.96877 0.88069 0.14727 0.0
H116 H 0.99593 0.88524 0.06008 0.0
H117 H 0.99661 0.90839 0.16138 0.0
H118 H 0.08387 0.89401 0.92333 0.0
C119 C 0.05193 0.86583 0.98627 0.0
C120 C 0.84121 1.00801 0.18436 0.0
C121 C 0.86099 0.99325 0.12237 0.0
C122 C 0.85477 0.96398 0.09759 0.0
C123 C 0.80695 0.96798 0.16756 0.0
C124 C 0.81407 0.99417 0.20818 0.0
C125 C 0.78928 1.00299 0.27555 0.0
H126 H 0.64065 0.98115 0.37734 0.0
C127 C 0.77626 0.96125 0.18478 0.0
C128 C 0.76517 0.98001 0.2538 0.0
H129 H 0.69957 0.03403 0.54073 0.0
H130 H 0.74069 0.02108 0.43619 0.0
H131 H 0.65069 0.99309 0.20453 0.0
H132 H 0.68337 0.92661 0.36714 0.0
H133 H 0.68023 0.91184 0.2545 0.0
H134 H 0.64909 0.93051 0.30565 0.0
H135 H 0.64615 0.9576 0.15867 0.0
H136 H 0.67569 0.98108 0.11811 0.0
C137 C 0.77883 0.03451 0.25465 0.0
C138 C 0.80108 0.99952 0.37535 0.0
C139 C 0.71778 0.93776 0.90062 0.0
C140 C 0.6869 0.9364 0.88933 0.0
C141 C 0.67022 0.92562 0.96606 0.0
C142 C 0.68276 0.92352 0.05449 0.0
C143 C 0.71176 0.93282 0.06655 0.0
C144 C 0.72971 0.93641 0.99036 0.0
C145 C 0.76087 0.94319 0.01812 0.0
C146 C 0.75707 0.94651 0.12387 0.0
C147 C 0.72758 0.94296 0.14929 0.0
C148 C 0.77082 0.97226 0.97097 0.0
C149 C 0.78057 0.917 0.98916 0.0
C150 C 0.66232 0.99019 0.39078 0.0
C151 C 0.66665 1.00875 0.46672 0.0
C152 C 0.69548 0.01976 0.48213 0.0
C153 C 0.71932 1.01202 0.42236 0.0
C154 C 0.71446 0.99259 0.34775 0.0
C155 C 0.6861 0.98217 0.33405 0.0
C156 C 0.68407 0.96054 0.25661 0.0
C157 C 0.71611 0.95872 0.2264 0.0
C158 C 0.73433 0.97789 0.27821 0.0
C159 C 0.66324 0.97354 0.18037 0.0
C160 C 0.67345 0.93076 0.29751 0.0
H161 H 0.82405 0.92831 0.10619 0.0
H162 H 0.8463 0.02976 0.20989 0.0
H163 H 0.81046 0.97713 0.38605 0.0
H164 H 0.7837 1.00248 0.428 0.0
H165 H 0.81878 1.01581 0.38882 0.0
H166 H 0.7715 0.03649 0.1811 0.0
H167 H 0.79694 0.05049 0.26622 0.0
H168 H 0.7601 0.04071 0.29993 0.0
H169 H 0.73221 0.9427 0.84337 0.0
H170 H 0.64675 0.92191 0.96179 0.0
H171 H 0.669 0.91678 0.11135 0.0
H172 H 0.75581 0.99063 0.99011 0.0
H173 H 0.77102 0.97025 0.89409 0.0
H174 H 0.7935 0.97842 0.99118 0.0
H175 H 0.77219 0.90624 0.9252 0.0
H176 H 0.78154 0.89999 0.04492 0.0
H177 H 0.80317 0.92423 0.9709 0.0
H178 H 0.87017 0.95151 0.05574 0.0
C179 C 0.82804 0.95105 0.12223 0.0
C180 C 0.51987 0.71094 0.39937 0.0
C181 C 0.53046 0.68117 0.39314 0.0
C182 C 0.55039 0.67409 0.32154 0.0
C183 C 0.54588 0.72277 0.25799 0.0
C184 C 0.52878 0.73198 0.33069 0.0
C185 C 0.52271 0.7654 0.31927 0.0
H186 H 0.55739 0.88651 0.03125 0.0
C187 C 0.55125 0.7469 0.19527 0.0
C188 C 0.54058 0.77327 0.23053 0.0
H189 H 0.49087 0.88689 0.24432 0.0
H190 H 0.50508 0.83618 0.29084 0.0
H191 H 0.61004 0.83637 0.12013 0.0
H192 H 0.54818 0.85072 0.92697 0.0
H193 H 0.5359 0.81376 0.94034 0.0
H194 H 0.57187 0.82276 0.89292 0.0
H195 H 0.60487 0.85713 0.01413 0.0
H196 H 0.61523 0.81899 1.00983 0.0
C197 C 0.53392 0.78225 0.4043 0.0
C198 C 0.48944 0.76992 0.30414 0.0
C199 C 0.54388 0.73035 0.85652 0.0
C200 C 0.56293 0.73749 0.78239 0.0
C201 C 0.58597 0.75775 0.7977 0.0
C202 C 0.58966 0.77039 0.88614 0.0
C203 C 0.57022 0.76235 0.9578 0.0
C204 C 0.55009 0.74046 0.9443 0.0
C205 C 0.5409 0.72622 0.0336 0.0
C206 C 0.55866 0.7446 0.10188 0.0
C207 C 0.57028 0.76918 0.05673 0.0
C208 C 0.54929 0.6933 0.03361 0.0
C209 C 0.50735 0.73009 0.04717 0.0
C210 C 0.54609 0.87586 0.08874 0.0
C211 C 0.52311 0.8904 0.1332 0.0
C212 C 0.50873 0.87597 0.20838 0.0
C213 C 0.5166 0.84667 0.2343 0.0
C214 C 0.53798 0.83148 0.1819 0.0
C215 C 0.55181 0.84635 0.10913 0.0
C216 C 0.56884 0.82656 0.04645 0.0
C217 C 0.56395 0.7972 0.09451 0.0
C218 C 0.54677 0.79974 0.17708 0.0
C219 C 0.60163 0.83526 0.04758 0.0
C220 C 0.55548 0.82827 0.94681 0.0
H221 H 0.57521 0.68949 0.20438 0.0
H222 H 0.50513 0.7173 0.45463 0.0
H223 H 0.48168 0.7568 0.24396 0.0
H224 H 0.48399 0.79318 0.28988 0.0
H225 H 0.47689 0.76278 0.36671 0.0
H226 H 0.5576 0.7773 0.41686 0.0
H227 H 0.52123 0.77591 0.46732 0.0
H228 H 0.53158 0.80631 0.39376 0.0
H229 H 0.52698 0.71382 0.85001 0.0
H230 H 0.60185 0.76243 0.74339 0.0
H231 H 0.60802 0.78491 0.89867 0.0
H232 H 0.57361 0.69038 0.03551 0.0
H233 H 0.54084 0.68215 0.97067 0.0
H234 H 0.53896 0.68148 0.0927 0.0
H235 H 0.50118 0.75378 0.04647 0.0
H236 H 0.50021 0.72041 0.1146 0.0
H237 H 0.49496 0.71886 0.99102 0.0
H238 H 0.55975 0.6522 0.31702 0.0
C239 C 0.55875 0.69499 0.25582 0.0
C240 C 0.33359 0.51421 0.32964 0.0
C241 C 0.35403 0.52889 0.38839 0.0
C242 C 0.34798 0.55797 0.41516 0.0
C243 C 0.29962 0.55507 0.34618 0.0
C244 C 0.30645 0.52824 0.30742 0.0
C245 C 0.28054 0.51698 0.24989 0.0
H246 H 0.13157 0.52487 0.17625 0.0
C247 C 0.26813 0.56102 0.33279 0.0
C248 C 0.25696 0.5406 0.26847 0.0
H249 H 0.19262 0.5218 0.94707 0.0
H250 H 0.23412 0.52763 0.05663 0.0
H251 H 0.16611 0.49714 0.35024 0.0
H252 H 0.16325 0.58409 0.23089 0.0
H253 H 0.15625 0.58596 0.35118 0.0
H254 H 0.13215 0.56511 0.28025 0.0
H255 H 0.13823 0.52303 0.38332 0.0
H256 H 0.17335 0.52134 0.44247 0.0
C257 C 0.27054 0.48667 0.28625 0.0
C258 C 0.28944 0.5154 0.14689 0.0
C259 C 0.21624 0.62363 0.57717 0.0
C260 C 0.18697 0.6233 0.60907 0.0
C261 C 0.16801 0.60057 0.58021 0.0
C262 C 0.17674 0.58071 0.51223 0.0
C263 C 0.20466 0.58367 0.4722 0.0
C264 C 0.22475 0.60307 0.50953 0.0
C265 C 0.25503 0.59887 0.46868 0.0
C266 C 0.24867 0.57552 0.39502 0.0
C267 C 0.21881 0.56789 0.39558 0.0
C268 C 0.276 0.58797 0.54731 0.0
C269 C 0.26495 0.62811 0.42332 0.0
C270 C 0.15388 0.52364 0.14963 0.0
C271 C 0.15865 0.52159 0.05336 0.0
C272 C 0.18822 0.52198 0.02108 0.0
C273 C 0.21222 0.52467 0.08409 0.0
C274 C 0.20669 0.52715 0.18009 0.0
C275 C 0.17765 0.52851 0.21 0.0
C276 C 0.17493 0.54289 0.30366 0.0
C277 C 0.20694 0.55026 0.32388 0.0
C278 C 0.22572 0.53864 0.25594 0.0
C279 C 0.16236 0.52011 0.3738 0.0
C280 C 0.15562 0.57094 0.29177 0.0
H281 H 0.31752 0.59351 0.41407 0.0
H282 H 0.33815 0.49218 0.30541 0.0
H283 H 0.29185 0.5378 0.11646 0.0
H284 H 0.27297 0.5029 0.10638 0.0
H285 H 0.31079 0.50362 0.13914 0.0
H286 H 0.26503 0.48775 0.36153 0.0
H287 H 0.2882 0.47 0.2766 0.0
H288 H 0.25066 0.47915 0.24816 0.0
H289 H 0.23173 0.63983 0.6023 0.0
H290 H 0.14587 0.59889 0.60776 0.0
H291 H 0.16108 0.56448 0.49085 0.0
H292 H 0.28145 0.56427 0.53977 0.0
H293 H 0.26616 0.59032 0.61773 0.0
H294 H 0.29671 0.60085 0.54975 0.0
H295 H 0.24689 0.63773 0.38051 0.0
H296 H 0.28392 0.62507 0.37599 0.0
H297 H 0.2711 0.6444 0.47722 0.0
H298 H 0.36375 0.57008 0.45655 0.0
C299 C 0.32108 0.57123 0.39314 0.0
C300 C 0.08207 0.2644 0.64598 0.0
C301 C 0.07995 0.23456 0.67154 0.0
C302 C 0.08893 0.21332 0.60531 0.0
C303 C 0.08741 0.25017 0.4853 0.0
C304 C 0.08528 0.2718 0.55152 0.0
C305 C 0.08113 0.30168 0.50794 0.0
H306 H 0.98884 0.37224 0.32881 0.0
C307 C 0.07928 0.26272 0.39466 0.0
C308 C 0.07779 0.29332 0.40472 0.0
H309 H 0.07049 0.40662 0.44095 0.0
H310 H 0.09646 0.36213 0.38747 0.0
H311 H 0.03345 0.32946 0.11802 0.0
H312 H 0.99446 0.29971 0.37879 0.0
H313 H 0.98417 0.28373 0.26921 0.0
H314 H 0.97157 0.32009 0.29851 0.0
H315 H 0.99923 0.3466 0.15144 0.0
H316 H 0.99933 0.30882 0.12091 0.0
C317 C 0.10882 0.3203 0.5279 0.0
C318 C 0.05292 0.31598 0.54858 0.0
C319 C 0.03232 0.19196 0.16867 0.0
C320 C 0.02202 0.1953 0.07736 0.0
C321 C 0.01805 0.22428 0.04217 0.0
C322 C 0.02386 0.2492 0.09849 0.0
C323 C 0.03371 0.24513 0.19048 0.0
C324 C 0.03942 0.21679 0.22141 0.0
C325 C 0.05913 0.21619 0.30514 0.0
C326 C 0.06393 0.24893 0.3207 0.0
C327 C 0.04745 0.26593 0.25714 0.0
C328 C 0.08845 0.20086 0.27774 0.0
C329 C 0.0424 0.20067 0.38632 0.0
C330 C 1.0123 0.37044 0.34105 0.0
C331 C 0.0274 0.39212 0.39454 0.0
C332 C 0.05825 0.38979 0.40459 0.0
C333 C 0.073 0.3643 0.37699 0.0
C334 C 0.05649 0.34119 0.34139 0.0
C335 C 0.02811 0.34514 0.31147 0.0
C336 C 0.01818 0.31774 0.25836 0.0
C337 C 0.04502 0.29704 0.27109 0.0
C338 C 0.06446 0.31046 0.33364 0.0
C339 C 1.0124 0.326 0.15614 0.0
C340 C 0.99044 0.30456 0.30397 0.0
H341 H 0.09816 0.20414 0.46399 0.0
H342 H 0.07851 0.28144 0.69648 0.0
H343 H 0.03308 0.30282 0.53095 0.0
H344 H 0.04971 0.3386 0.52287 0.0
H345 H 0.05418 0.31805 0.62527 0.0
H346 H 0.11739 0.31588 0.59907 0.0
H347 H 0.10397 0.34414 0.52626 0.0
H348 H 0.12673 0.31535 0.47755 0.0
H349 H 0.03737 0.17022 0.19565 0.0
H350 H 1.01153 0.22754 0.9704 0.0
H351 H 0.023 0.27079 0.06745 0.0
H352 H 0.09469 0.20629 0.20477 0.0
H353 H 0.08651 0.17655 0.28344 0.0
H354 H 0.10734 0.20829 0.32002 0.0
H355 H 0.0222 0.18912 0.36251 0.0
H356 H 0.03501 0.21661 0.43981 0.0
H357 H 0.05596 0.1834 0.42033 0.0
H358 H 0.08965 0.19008 0.6219 0.0
C359 C 0.09295 0.22118 0.51236 0.0
C360 C 0.31385 0.03321 0.10802 0.0
C361 C 0.34287 0.02286 0.08904 0.0
C362 C 0.35414 0.99954 0.14254 0.0
C363 C 0.30849 0.99596 0.22947 0.0
C364 C 0.29699 0.01936 0.17952 0.0
C365 C 0.26586 0.02663 0.21337 0.0
H366 H 0.15284 0.98839 0.51615 0.0
C367 C 0.28597 0.98518 0.29571 0.0
C368 C 0.26046 1.00272 0.28757 0.0
H369 H 0.15346 0.06394 0.33394 0.0
H370 H 0.20155 0.04892 0.27169 0.0
H371 H 0.18308 0.94193 0.3576 0.0
H372 H 0.21083 0.99369 0.59025 0.0
H373 H 0.23482 0.96358 0.59018 0.0
H374 H 0.19584 0.95757 0.60624 0.0
H375 H 0.17266 0.93481 0.4758 0.0
H376 H 0.20612 0.91982 0.42751 0.0
C377 C 0.24419 0.02402 0.13149 0.0
C378 C 0.26634 0.05762 0.25613 0.0
C379 C 0.31445 0.90262 0.51493 0.0
C380 C 0.29972 0.88793 0.58769 0.0
C381 C 0.26908 0.89186 0.59708 0.0
C382 C 0.25408 0.91236 0.54066 0.0
C383 C 0.26991 0.92885 0.47386 0.0
C384 C 0.2993 0.9228 0.45958 0.0
C385 C 0.3127 0.94152 0.38455 0.0
C386 C 0.28689 0.96119 0.3592 0.0
C387 C 0.26206 0.95393 0.41212 0.0
C388 C 0.3216 0.9209 0.30335 0.0
C389 C 0.33847 0.95928 0.42783 0.0
C390 C 0.16315 1.0016 0.4622 0.0
C391 C 0.14953 0.02734 0.43048 0.0
C392 C 0.16371 0.044 0.35996 0.0
C393 C 0.19163 0.0354 0.32453 0.0
C394 C 0.20552 1.00993 0.36006 0.0
C395 C 0.19073 0.99346 0.42692 0.0
C396 C 0.20813 0.96759 0.46023 0.0
C397 C 0.23639 0.97153 0.40599 0.0
C398 C 0.23517 0.99602 0.34494 0.0
C399 C 0.19171 0.93941 0.42965 0.0
C400 C 0.21261 0.97044 0.56711 0.0
H401 H 0.34765 0.96842 0.24855 0.0
H402 H 0.3046 0.05118 0.06783 0.0
H403 H 0.28501 0.05969 0.30576 0.0
H404 H 0.24614 0.06256 0.29572 0.0
H405 H 0.26908 0.07468 0.20111 0.0
H406 H 0.24691 1.00242 0.0966 0.0
H407 H 0.2482 0.04164 0.07915 0.0
H408 H 0.22101 0.02548 0.15439 0.0
H409 H 0.33792 0.89982 0.50434 0.0
H410 H 0.25686 0.87981 0.64945 0.0
H411 H 0.23097 0.9153 0.5535 0.0
H412 H 0.30791 0.9006 0.30233 0.0
H413 H 0.34498 0.91388 0.30921 0.0
H414 H 0.31793 0.93107 0.23417 0.0
H415 H 0.34214 0.98078 0.39357 0.0
H416 H 0.35936 0.94653 0.42642 0.0
H417 H 0.3337 0.96492 0.50152 0.0
H418 H 0.37618 0.99126 0.12951 0.0
C419 C 0.33729 0.98612 0.21165 0.0
C420 C 0.50011 0.33332 0.05671 0.0
C421 C 0.51198 0.36117 0.03008 0.0
C422 C 0.537 0.37149 0.07675 0.0
C423 C 0.53945 0.32714 0.17062 0.0
C424 C 0.51422 0.31669 0.1286 0.0
C425 C 0.50551 0.28694 0.17101 0.0
H426 H 0.54039 0.17949 0.49953 0.0
C427 C 0.54995 0.30526 0.23951 0.0
C428 C 0.53035 0.28128 0.24197 0.0
H429 H 0.46398 0.17933 0.32207 0.0
H430 H 0.48061 0.22515 0.24747 0.0
H431 H 0.58646 0.19848 0.34386 0.0
H432 H 0.53728 0.2461 0.54964 0.0
H433 H 0.57277 0.26121 0.5488 0.0
H434 H 0.56806 0.22296 0.57844 0.0
H435 H 0.59609 0.19775 0.46482 0.0
H436 H 0.61034 0.22555 0.38664 0.0
C437 C 0.50528 0.26358 0.09398 0.0
C438 C 0.47536 0.29044 0.219 0.0
C439 C 0.63958 0.33215 0.42914 0.0
C440 C 0.65363 0.31922 0.50659 0.0
C441 C 0.64662 0.28983 0.52945 0.0
C442 C 0.62395 0.27497 0.48242 0.0
C443 C 0.60807 0.28965 0.41176 0.0
C444 C 0.61685 0.31733 0.38431 0.0
C445 C 0.59769 0.33003 0.30928 0.0
C446 C 0.5752 0.30574 0.29755 0.0
C447 C 0.58118 0.28227 0.35783 0.0
C448 C 0.61718 0.33396 0.22126 0.0
C449 C 0.58326 0.35876 0.34649 0.0
C450 C 0.52723 0.18922 0.44444 0.0
C451 C 0.50094 0.17591 0.417 0.0
C452 C 0.48438 0.18931 0.34471 0.0
C453 C 0.49394 0.21591 0.30197 0.0
C454 C 0.52026 0.22932 0.33207 0.0
C455 C 0.53634 0.21549 0.40191 0.0
C456 C 0.56345 0.23206 0.42787 0.0
C457 C 0.56139 0.25828 0.36315 0.0
C458 C 0.53601 0.25725 0.30594 0.0
C459 C 0.59062 0.21255 0.40553 0.0
C460 C 0.56059 0.24099 0.53158 0.0
H461 H 0.56991 0.36435 0.17574 0.0
H462 H 0.48076 0.3248 0.02224 0.0
H463 H 0.47558 0.30967 0.26643 0.0
H464 H 0.4695 0.27109 0.26169 0.0
H465 H 0.45767 0.29403 0.16669 0.0
H466 H 0.52638 0.26404 0.05464 0.0
H467 H 0.48701 0.26778 0.04419 0.0
H468 H 0.50276 0.24113 0.12245 0.0
H469 H 0.64437 0.35448 0.40778 0.0
H470 H 0.65786 0.27851 0.58532 0.0
H471 H 0.61888 0.25308 0.50564 0.0
H472 H 0.60461 0.33226 0.1557 0.0
H473 H 0.63407 0.31624 0.21655 0.0
H474 H 0.62905 0.35531 0.22242 0.0
H475 H 0.55973 0.36082 0.32707 0.0
H476 H 0.59512 0.37855 0.32098 0.0
H477 H 0.58304 0.35941 0.42383 0.0
H478 H 0.54646 0.39264 0.05839 0.0
C479 C 0.55075 0.35478 0.14536 0.0
Gd480 Gd 0.02495 0.01837 0.83427 0.0
Gd481 Gd 0.98316 0.04327 0.71585 0.0
C482 C 0.99352 0.97553 0.68088 0.0
C483 C 0.06235 0.989 0.93308 0.0
C484 C 0.08823 0.9726 0.90081 0.0
C485 C 0.0962 0.97372 0.80664 0.0
C486 C 0.10441 0.95502 0.96201 0.0
C487 C 0.13227 0.93461 0.83104 0.0
C488 C 0.12647 0.9365 0.92794 0.0
C489 C 0.11815 0.95519 0.77224 0.0
C490 C 0.05033 0.04238 0.67674 0.0
C491 C 1.01092 0.08321 0.88028 0.0
C492 C 0.95991 0.08258 0.60922 0.0
C493 C 0.96486 0.11459 0.6208 0.0
C494 C 0.95565 0.1287 0.70295 0.0
C495 C 0.9856 0.12882 0.56345 0.0
C496 C 0.99355 0.16567 0.68224 0.0
C497 C 0.99998 0.1541 0.59428 0.0
C498 C 0.97003 0.15403 0.73356 0.0
C499 C 0.95557 0.01882 0.866 0.0
O500 O 1.00787 0.97705 0.7611 0.0
O501 O 0.98245 0.99958 0.64266 0.0
O502 O 0.06399 0.01734 0.92037 0.0
O503 O 0.03681 0.97827 0.90829 0.0
O504 O 0.05925 0.04622 0.76081 0.0
O505 O 0.02765 0.02654 0.68133 0.0
O506 O 1.00267 0.08281 0.79239 0.0
O507 O 1.01594 0.05805 0.92262 0.0
O508 O 0.94492 0.06923 0.67454 0.0
O509 O 0.98342 0.06772 0.58584 0.0
O510 O 0.94653 0.01705 0.78046 0.0
O511 O 0.97946 0.03337 0.86887 0.0
H512 H 0.08447 0.98799 0.75871 0.0
H513 H 0.09897 0.95442 0.03539 0.0
H514 H 0.13677 0.92181 0.97765 0.0
H515 H 0.12244 0.9559 0.69847 0.0
H516 H 0.93941 0.11866 0.74829 0.0
H517 H 0.99302 0.11866 0.49957 0.0
H518 H 0.01796 0.16304 0.55337 0.0
H519 H 0.96435 0.1632 0.80047 0.0
Gd520 Gd 0.51221 0.05234 0.82573 0.0
Gd521 Gd 0.48992 1.00998 0.70601 0.0
C522 C 0.55541 0.02372 0.66968 0.0
C523 C 0.54917 0.0787 0.93188 0.0
C524 C 0.58112 0.07158 0.92837 0.0
C525 C 0.59653 0.07562 0.84413 0.0
C526 C 0.59283 0.05188 0.9946 0.0
C527 C 0.62663 0.03282 0.87841 0.0
C528 C 0.61539 0.03245 0.96949 0.0
C529 C 0.61883 0.05602 0.81879 0.0
C530 C 0.48767 0.0784 0.67224 0.0
C531 C 0.44417 0.03961 0.85147 0.0
C532 C 0.4605 0.97463 0.60133 0.0
C533 C 0.44016 0.95015 0.62203 0.0
C534 C 0.44907 0.9254 0.67478 0.0
C535 C 0.41077 0.95243 0.59337 0.0
C536 C 0.39919 0.90642 0.67197 0.0
C537 C 0.3905 0.93087 0.61855 0.0
C538 C 0.42863 0.90371 0.70002 0.0
C539 C 0.51121 0.98495 0.86875 0.0
O540 O 0.55324 0.032 0.75728 0.0
O541 O 0.53116 0.01819 0.62378 0.0
O542 O 0.538 0.09137 0.85808 0.0
O543 O 0.53248 0.05726 0.96163 0.0
O544 O 0.48438 0.08718 0.75754 0.0
O545 O 0.50404 0.05566 0.67234 0.0
O546 O 0.44752 0.02895 0.76685 0.0
O547 O 0.46774 0.04891 0.89666 0.0
O548 O 0.48816 0.97057 0.62256 0.0
O549 O 0.4511 1.00091 0.62299 0.0
O550 O 0.51548 0.97504 0.78607 0.0
O551 O 0.49576 1.00788 0.86098 0.0
H552 H 0.58885 0.09126 0.79246 0.0
H553 H 0.58188 0.04866 0.06085 0.0
H554 H 0.62161 1.01502 0.0174 0.0
H555 H 0.62804 0.05731 0.7495 0.0
H556 H 0.47163 0.9231 0.69837 0.0
H557 H 0.4033 0.97127 0.55321 0.0
H558 H 0.36773 0.93352 0.59781 0.0
H559 H 0.43562 0.88514 0.74214 0.0
Gd560 Gd 0.48644 0.52965 0.76021 0.0
Gd561 Gd 0.52431 0.5045 0.6286 0.0
C562 C 0.51262 0.5705 0.59547 0.0
C563 C 0.46879 0.56828 0.87661 0.0
C564 C 0.48785 0.59418 0.88839 0.0
C565 C 0.47623 0.62273 0.88329 0.0
C566 C 0.51794 0.59002 0.8698 0.0
C567 C 0.52238 0.64021 0.81494 0.0
C568 C 0.5342 0.61203 0.82665 0.0
C569 C 0.49391 0.64592 0.85072 0.0
C570 C 0.45449 0.50588 0.61762 0.0
C571 C 0.4958 0.46132 0.78659 0.0
C572 C 0.55642 0.47393 0.51676 0.0
C573 C 0.58307 0.45648 0.53562 0.0
C574 C 0.59972 0.46115 0.61686 0.0
C575 C 0.59132 0.43414 0.47461 0.0
C576 C 0.63073 0.4193 0.57991 0.0
C577 C 0.61506 0.41584 0.49651 0.0
C578 C 0.62369 0.44289 0.6383 0.0
C579 C 0.55506 0.52584 0.78045 0.0
O580 O 0.50889 0.56847 0.68609 0.0
O581 O 0.51413 0.54601 0.54792 0.0
O582 O 0.45744 0.56634 0.79349 0.0
O583 O 0.48015 0.5433 0.90411 0.0
O584 O 0.44731 0.50507 0.70514 0.0
O585 O 0.47826 0.52038 0.60929 0.0
O586 O 0.5058 0.46343 0.70023 0.0
O587 O 0.48799 0.48536 0.83128 0.0
O588 O 0.55934 0.50225 0.52682 0.0
O589 O 0.53205 0.46389 0.55355 0.0
O590 O 0.56276 0.52859 0.69462 0.0
O591 O 0.53133 0.51153 0.78074 0.0
H592 H 0.45309 0.62664 0.89716 0.0
H593 H 0.52773 0.56845 0.8749 0.0
H594 H 0.55562 0.60656 0.7988 0.0
H595 H 0.4844 0.66773 0.84533 0.0
H596 H 0.59372 0.47839 0.66492 0.0
H597 H 0.57896 0.43035 0.41137 0.0
H598 H 0.62071 0.39826 0.44969 0.0
H599 H 0.63584 0.44633 0.70213 0.0
Gd600 Gd 0.97989 0.50888 0.82642 0.0
Gd601 Gd 0.99758 0.54905 0.70372 0.0
C602 C 0.93223 0.5316 0.67777 0.0
C603 C 0.95108 0.47442 0.93878 0.0
C604 C 0.92956 0.45085 0.92291 0.0
C605 C 0.91576 0.43698 0.99835 0.0
C606 C 0.92289 0.44183 0.83211 0.0
C607 C 0.88866 0.40541 0.89212 0.0
C608 C 0.90343 0.41857 0.81691 0.0
C609 C 0.89525 0.41461 0.98301 0.0
C610 C 1.00111 0.48122 0.66971 0.0
C611 C 0.04574 0.52532 0.85353 0.0
C612 C 0.02294 0.58505 0.58893 0.0
C613 C 0.043 0.61003 0.60293 0.0
C614 C 0.0386 0.6303 0.67537 0.0
C615 C 0.06887 0.61148 0.55035 0.0
C616 C 0.08835 0.64873 0.65447 0.0
C617 C 0.09119 0.63084 0.57531 0.0
C618 C 0.06117 0.64962 0.70097 0.0
C619 C 0.97654 0.57654 0.86068 0.0
O620 O 0.93639 0.52653 0.76694 0.0
O621 O 0.95614 0.53584 0.62788 0.0
O622 O 0.97772 0.46904 0.9097 0.0
O623 O 0.94242 0.50097 0.91739 0.0
O624 O 1.00875 0.47531 0.75408 0.0
O625 O 0.98401 0.50318 0.67085 0.0
O626 O 0.04203 0.53464 0.76693 0.0
O627 O 0.02227 0.51793 0.90188 0.0
O628 O 0.99593 0.58838 0.61803 0.0
O629 O 0.03383 0.55929 0.61056 0.0
O630 O 0.96915 0.58276 0.77635 0.0
O631 O 0.99362 0.55454 0.85904 0.0
H632 H 0.92059 0.44366 0.06891 0.0
H633 H 0.93234 0.45315 0.77286 0.0
H634 H 0.89893 0.41169 0.74634 0.0
H635 H 0.88433 0.40456 0.04212 0.0
H636 H 0.01836 0.63017 0.7153 0.0
H637 H 0.07254 0.59643 0.49333 0.0
H638 H 0.11153 0.63042 0.53593 0.0
H639 H 0.05785 0.66415 0.75941 0.0
C640 C 0.12181 0.0585 0.54694 0.0
C641 C 0.12123 0.03675 0.47637 0.0
C642 C 0.06925 0.02601 0.5161 0.0
C643 C 0.07145 0.04457 0.59515 0.0
N644 N 0.09426 0.08776 0.65778 0.0
N645 N 0.09449 0.9998 0.39213 0.0
C646 C 0.09613 0.06365 0.60192 0.0
C647 C 0.09479 0.02077 0.45985 0.0
N648 N 0.14752 0.0729 0.56589 0.0
N649 N 0.04242 1.01509 0.49083 0.0
H650 H 0.11196 0.99684 0.34585 0.0
H651 H 0.07771 0.98443 0.38449 0.0
H652 H 0.02288 0.02188 0.52193 0.0
H653 H 0.03882 1.00275 0.43124 0.0
H654 H 0.15054 0.08601 0.62421 0.0
H655 H 0.16666 0.07026 0.52664 0.0
H656 H 0.11015 0.10423 0.66012 0.0
H657 H 0.07493 0.09306 0.69307 0.0
C658 C 0.5048 0.12097 0.44731 0.0
C659 C 0.4912 0.14844 0.46752 0.0
C660 C 0.46651 0.12542 0.60245 0.0
C661 C 0.48383 0.09958 0.59095 0.0
N662 N 0.50678 0.06835 0.47733 0.0
N663 N 0.45911 0.17711 0.56519 0.0
C664 C 0.49936 0.09596 0.50586 0.0
C665 C 0.4716 0.15057 0.54439 0.0
N666 N 0.52378 0.11908 0.37375 0.0
N667 N 0.44386 0.12518 0.66516 0.0
H668 H 0.46151 0.1957 0.52304 0.0
H669 H 0.44784 0.18122 0.62686 0.0
H670 H 0.43787 0.10622 0.70175 0.0
H671 H 0.42874 0.14226 0.6722 0.0
H672 H 0.53749 0.10108 0.36221 0.0
H673 H 0.52694 0.13633 0.32661 0.0
H674 H 0.51661 0.06381 0.4136 0.0
H675 H 0.49894 0.04959 0.51104 0.0
C676 C 0.37825 0.4968 0.5108 0.0
C677 C 0.38101 0.51446 0.42925 0.0
C678 C 0.43497 0.51573 0.45264 0.0
C679 C 0.43133 0.50284 0.54219 0.0
N680 N 0.40284 0.46806 0.63093 0.0
N681 N 0.41206 0.53968 0.31911 0.0
C682 C 0.40391 0.48932 0.56349 0.0
C683 C 0.40952 0.5232 0.39846 0.0
N684 N 0.35089 0.48881 0.5416 0.0
N685 N 0.46266 0.51881 0.41674 0.0
H686 H 0.39416 0.54389 0.27539 0.0
H687 H 0.43141 0.55017 0.29878 0.0
H688 H 0.48107 0.50961 0.44911 0.0
H689 H 0.46703 0.5265 0.34985 0.0
H690 H 0.34702 0.47951 0.60681 0.0
H691 H 0.33167 0.49303 0.50409 0.0
H692 H 0.38418 0.45551 0.64516 0.0
H693 H 0.42177 0.46031 0.66426 0.0
C694 C 1.01451 0.44503 0.43005 0.0
C695 C 1.01215 0.41478 0.45362 0.0
C696 C 0.99565 0.42857 0.61099 0.0
C697 C 1.00245 0.45872 0.59237 0.0
N698 N 0.01814 0.4957 0.48221 0.0
N699 N 1.00045 0.37739 0.56688 0.0
C700 C 1.0113 0.46701 0.50066 0.0
C701 C 1.00222 0.40655 0.54369 0.0
N702 N 0.01983 0.45256 0.33947 0.0
N703 N 0.98185 0.42082 0.69194 0.0
H704 H 1.00227 0.36062 0.51822 0.0
H705 H 0.99846 0.3697 0.63494 0.0
H706 H 0.97699 0.43561 0.74428 0.0
H707 H 0.97273 0.40016 0.70419 0.0
H708 H 0.01944 0.47404 0.3142 0.0
H709 H 0.0221 0.43676 0.28752 0.0
H710 H 0.02793 0.50293 0.42078 0.0
H711 H 1.01549 0.51235 0.53084 0.0
C712 C 0.88287 0.02663 0.99857 0.0
C713 C 0.88723 1.00731 0.07547 0.0
C714 C 0.93859 0.99892 0.02349 0.0
C715 C 0.93385 0.01767 0.94549 0.0
N716 N 0.90513 0.05718 0.87916 0.0
N717 N 0.9211 0.98111 0.17402 0.0
C718 C 0.90712 0.034 0.93963 0.0
C719 C 0.91587 0.9956 0.09221 0.0
N720 N 0.85518 0.03654 0.97776 0.0
N721 N 0.96423 0.98324 0.02961 0.0
H722 H 0.90485 0.97871 0.22494 0.0
H723 H 0.94187 0.97391 0.19495 0.0
H724 H 0.98139 0.98576 0.98195 0.0
H725 H 0.96792 0.96668 0.07855 0.0
H726 H 0.85004 0.04735 0.91577 0.0
H727 H 0.83685 0.0323 0.01937 0.0
H728 H 0.88735 0.07171 0.87787 0.0
H729 H 0.92277 0.06392 0.83795 0.0
C730 C 0.49118 0.91754 0.01709 0.0
C731 C 0.51292 0.91864 0.08819 0.0
C732 C 0.53039 0.96615 0.025 0.0
C733 C 0.50958 0.96433 0.95131 0.0
N734 N 0.46484 0.94282 0.89324 0.0
N735 N 0.54844 0.94669 0.17303 0.0
C736 C 0.48822 0.94148 0.95286 0.0
C737 C 0.53081 0.94406 0.09656 0.0
N738 N 0.47463 0.89268 1.00694 0.0
N739 N 0.55053 0.98837 0.02437 0.0
H740 H 0.5488 0.93077 0.22568 0.0
H741 H 0.56067 0.96537 0.18843 0.0
H742 H 0.54991 1.0052 0.9751 0.0
H743 H 0.5685 0.98948 0.06907 0.0
H744 H 0.46141 0.88864 0.94925 0.0
H745 H 0.47526 0.87525 0.05434 0.0
H746 H 0.44672 0.92885 0.89741 0.0
H747 H 0.46239 0.95964 0.84436 0.0
C748 C 0.62857 0.53724 0.90797 0.0
C749 C 0.6247 0.51952 0.98863 0.0
C750 C 0.57222 0.51299 0.9473 0.0
C751 C 0.57703 0.52768 0.86055 0.0
N752 N 0.60592 0.56484 0.78252 0.0
N753 N 0.59321 0.4896 0.08486 0.0
C754 C 0.60414 0.54303 0.84791 0.0
C755 C 0.59652 0.50737 1.00851 0.0
N756 N 0.65609 0.54728 0.88558 0.0
N757 N 0.5442 0.5065 0.97512 0.0
H758 H 0.60975 0.48668 0.13446 0.0
H759 H 0.57481 0.47644 0.09657 0.0
H760 H 0.52574 0.51383 0.93933 0.0
H761 H 0.53886 0.4978 0.04004 0.0
H762 H 0.66128 0.55674 0.82151 0.0
H763 H 0.67438 0.54428 0.92848 0.0
H764 H 0.62391 0.57886 0.77547 0.0
H765 H 0.58778 0.57164 0.74394 0.0
C766 C 0.9514 0.63776 0.02509 0.0
C767 C 0.97811 0.65333 0.0392 0.0
C768 C 1.00462 0.61653 0.9462 0.0
C769 C 0.978 0.60063 0.93195 0.0
N770 N 0.92726 0.59281 0.97399 0.0
N771 N 0.03099 0.65276 0.03745 0.0
C772 C 0.95179 0.61015 0.97726 0.0
C773 C 1.005 0.64074 1.00876 0.0
N774 N 0.92552 0.65019 0.05338 0.0
N775 N 0.02903 0.61027 0.89427 0.0
H776 H 0.03168 0.67069 0.08246 0.0
H777 H 0.05146 0.64318 0.02469 0.0
H778 H 0.02982 0.59347 0.84544 0.0
H779 H 0.04795 0.62316 0.89461 0.0
H780 H 0.90484 0.64203 0.03592 0.0
H781 H 0.92493 0.6696 0.09178 0.0
H782 H 0.90815 0.59706 1.01174 0.0
H783 H 0.92695 0.57273 0.93914 0.0
C784 C 0.06488 0.19578 0.78083 0.0
C785 C 0.06115 0.22506 0.75216 0.0
C786 C 1.00862 0.21676 0.7303 0.0
C787 C 1.0147 0.1862 0.72614 0.0
N788 N 0.04832 0.14594 0.75659 0.0
N789 N 0.02713 0.26452 0.77793 0.0
C790 C 0.04248 0.17533 0.75766 0.0
C791 C 0.03205 0.23612 0.75292 0.0
N792 N 0.09135 0.18753 0.81714 0.0
N793 N 0.98136 0.22728 0.70773 0.0
H794 H 0.04424 0.27763 0.80264 0.0
H795 H 1.00613 0.27354 0.78502 0.0
H796 H 0.96372 0.21347 0.69217 0.0
H797 H 0.97677 0.24964 0.70035 0.0
H798 H 0.09589 0.16644 0.84191 0.0
H799 H 0.10796 0.20308 0.82758 0.0
H800 H 0.06925 0.13735 0.7681 0.0
H801 H 0.03241 0.13026 0.74065 0.0
C802 C 0.3402 0.85382 0.62218 0.0
C803 C 0.3181 0.87238 0.6584 0.0
C804 C 0.35413 0.89496 0.76074 0.0
C805 C 0.3762 0.88493 0.69917 0.0
N806 N 0.39269 0.84849 0.59074 0.0
N807 N 0.30155 0.89794 0.79424 0.0
C808 C 0.37016 0.8613 0.63856 0.0
C809 C 0.32426 0.88816 0.74056 0.0
N810 N 0.33208 0.83188 0.56354 0.0
N811 N 0.362 0.91279 0.8325 0.0
H812 H 0.27985 0.89186 0.78086 0.0
H813 H 0.30415 0.91018 0.85452 0.0
H814 H 0.38415 0.91706 0.84686 0.0
H815 H 0.34721 0.92265 0.878 0.0
H816 H 0.34674 0.81691 0.53439 0.0
H817 H 0.30982 0.82802 0.54943 0.0
H818 H 0.38975 0.83276 0.53935 0.0
H819 H 0.41464 0.85393 0.60365 0.0
C820 C 0.68626 0.36203 0.52976 0.0
C821 C 0.67008 0.33894 0.5714 0.0
C822 C 0.64394 0.37359 0.66889 0.0
C823 C 0.65253 0.39622 0.60605 0.0
N824 N 0.68913 0.41494 0.50075 0.0
N825 N 0.65299 0.32351 0.72159 0.0
C826 C 0.67696 0.39152 0.54623 0.0
C827 C 0.65566 0.34501 0.65588 0.0
N828 N 0.70735 0.35505 0.46613 0.0
N829 N 0.62324 0.37874 0.73563 0.0
H830 H 0.66336 0.3032 0.71379 0.0
H831 H 0.64388 0.32708 0.7871 0.0
H832 H 0.61549 0.39974 0.75039 0.0
H833 H 0.61349 0.36206 0.77495 0.0
H834 H 0.71968 0.3704 0.429 0.0
H835 H 0.71263 0.33306 0.45321 0.0
H836 H 0.70649 0.41335 0.45374 0.0
H837 H 0.68202 0.4364 0.51363 0.0
C838 C 0.16221 0.6715 0.61519 0.0
C839 C 0.17396 0.64728 0.66527 0.0
C840 C 0.13034 0.64698 0.76413 0.0
C841 C 0.1155 0.66252 0.6923 0.0
N842 N 0.11898 0.69961 0.57389 0.0
N843 N 0.17477 0.61967 0.80693 0.0
C844 C 0.1324 0.67913 0.62882 0.0
C845 C 0.1602 0.63859 0.74911 0.0
N846 N 0.17792 0.68531 0.54744 0.0
N847 N 0.11532 0.63897 0.84233 0.0
H848 H 0.1966 0.61365 0.79346 0.0
H849 H 0.16564 0.61014 0.86622 0.0
H850 H 0.09385 0.64615 0.8542 0.0
H851 H 0.12465 0.62756 0.8979 0.0
H852 H 0.19996 0.68043 0.53337 0.0
H853 H 0.19996 0.68043 0.53337 0.0
H854 H 0.13036 0.71149 0.52296 0.0
H855 H 0.09664 0.70464 0.58222 0.0
C856 C 0.11367 0.86933 0.74058 0.0
C857 C 0.11748 0.85623 0.8291 0.0
C858 C 0.15966 0.88797 0.85573 0.0
C859 C 0.1469 0.90761 0.79109 0.0
N860 N 0.1335 0.90498 0.63003 0.0
N861 N 0.15151 0.84618 0.95491 0.0
C862 C 0.13139 0.89403 0.7179 0.0
C863 C 0.14354 0.86246 0.87955 0.0
N864 N 0.09206 0.85959 0.68298 0.0
N865 N 0.18404 0.89609 0.90391 0.0
H866 H 0.13991 0.82748 0.9761 0.0
H867 H 0.13991 0.82748 0.9761 0.0
H868 H 0.19471 0.91592 0.88897 0.0
H869 H 0.19322 0.88279 0.95584 0.0
H870 H 0.08686 0.8699 0.62034 0.0
H871 H 0.07931 0.84121 0.69996 0.0
H872 H 0.12348 0.89521 0.57284 0.0
H873 H 0.14766 0.92248 0.61538 0.0
C874 C 0.64083 0.95295 0.81243 0.0
C875 C 0.67179 0.95357 0.8128 0.0
C876 C 0.67101 1.00705 0.80909 0.0
C877 C 0.64141 1.00616 0.84074 0.0
N878 N 0.59564 0.97885 0.84896 0.0
N879 N 0.70959 0.98089 0.73175 0.0
C880 C 0.62528 0.97927 0.83339 0.0
C881 C 0.68486 0.9804 0.7848 0.0
N882 N 0.62709 0.92683 0.79671 0.0
N883 N 0.68624 0.0328 0.80316 0.0
H884 H 0.71892 0.9618 0.70427 0.0
H885 H 0.71892 0.9618 0.70427 0.0
H886 H 0.67739 0.05296 0.82327 0.0
H887 H 0.70814 0.03347 0.78079 0.0
H888 H 0.60436 0.9244 0.79112 0.0
H889 H 0.63943 0.90786 0.78348 0.0
H890 H 0.58323 0.95968 0.85416 0.0
H891 H 0.58343 0.99802 0.857 0.0
C892 C 0.53596 0.70885 0.66976 0.0
C893 C 0.5639 0.71601 0.70541 0.0
C894 C 0.56953 0.66859 0.77628 0.0
C895 C 0.53887 0.66305 0.76065 0.0
N896 N 0.49733 0.67218 0.65791 0.0
N897 N 0.61219 0.69571 0.72066 0.0
C898 C 0.52355 0.68108 0.69435 0.0
C899 C 0.58252 0.69251 0.72844 0.0
N900 N 0.51967 0.73071 0.6301 0.0
N901 N 0.5851 0.65466 0.84482 0.0
H902 H 0.62123 0.71463 0.69059 0.0
H903 H 0.62685 0.67867 0.73615 0.0
H904 H 0.57552 0.64089 0.8943 0.0
H905 H 0.60687 0.66008 0.86023 0.0
H906 H 0.49727 0.72892 0.61557 0.0
H907 H 0.52905 0.75131 0.61705 0.0
H908 H 0.48582 0.68422 0.60789 0.0
H909 H 0.48873 0.65129 0.67091 0.0
C910 C 0.81499 0.36971 0.83945 0.0
C911 C 0.81481 0.35049 0.91634 0.0
C912 C 0.86835 0.35482 0.92298 0.0
C913 C 0.86549 0.3827 0.87798 0.0
N914 N 0.83469 0.41578 0.78588 0.0
N915 N 0.84225 0.31474 1.00163 0.0
C916 C 0.83868 0.38963 0.83115 0.0
C917 C 0.84221 0.33871 0.9444 0.0
N918 N 0.79219 0.36968 0.77805 0.0
N919 N 0.8956 0.34472 0.94747 0.0
H920 H 0.82254 0.30398 0.0179 0.0
H921 H 0.86102 0.30613 0.03328 0.0
H922 H 0.91475 0.35633 0.93087 0.0
H923 H 0.89936 0.3242 0.97769 0.0
H924 H 0.79201 0.38274 0.71817 0.0
H925 H 0.77563 0.35383 0.78201 0.0
H926 H 0.81431 0.42228 0.7592 0.0
H927 H 0.85082 0.43187 0.78101 0.0
C928 C 0.04488 0.15091 0.99884 0.0
C929 C 0.01922 0.16806 0.01808 0.0
C930 C 0.98821 0.12858 0.9528 0.0
C931 C 1.01382 0.1119 0.93111 0.0
N932 N 0.06656 0.10653 0.93263 0.0
N933 N 0.96671 0.17467 1.00555 0.0
C934 C 0.04216 0.12277 0.95513 0.0
C935 C 0.99098 0.15733 0.99225 0.0
N936 N 0.07194 0.16189 0.02202 0.0
N937 N 0.96109 0.11612 0.94036 0.0
H938 H 0.96756 0.19496 0.03869 0.0
H939 H 0.94594 0.16999 0.97888 0.0
H940 H 0.95835 0.0951 0.91316 0.0
H941 H 0.94139 0.1254 0.96278 0.0
H942 H 0.0915 0.14999 0.02065 0.0
H943 H 0.07506 0.18356 0.04321 0.0
H944 H 0.08819 0.11344 0.94108 0.0
H945 H 0.06535 0.08598 0.90117 0.0
C946 C 0.36661 1.01487 0.93438 0.0
C947 C 0.36221 0.03375 1.01095 0.0
C948 C 0.40595 0.06191 0.96113 0.0
C949 C 0.41417 0.03905 0.89859 0.0
N950 N 0.4021 0.99073 0.83637 0.0
N951 N 0.37829 0.07539 0.09948 0.0
C952 C 0.39418 1.01496 0.88647 0.0
C953 C 0.38189 0.05755 0.02435 0.0
N954 N 0.3446 0.99603 0.90953 0.0
N955 N 0.42044 0.08819 0.95819 0.0
H956 H 0.36029 0.07348 0.14435 0.0
H957 H 0.39388 0.09089 0.11964 0.0
H958 H 0.43672 0.09288 0.90903 0.0
H959 H 0.41394 0.1064 0.99681 0.0
H960 H 0.34516 0.98358 0.84893 0.0
H961 H 0.32442 0.99542 0.94449 0.0
H962 H 0.38948 0.97165 0.83425 0.0
H963 H 0.42244 0.98784 0.80496 0.0
C964 C 0.47695 0.39977 0.96255 0.0
C965 C 0.5011 0.38021 0.95082 0.0
C966 C 0.52086 0.41263 0.82833 0.0
C967 C 0.49623 0.43198 0.83704 0.0
N968 N 0.44671 0.43857 0.89494 0.0
N969 N 0.54008 0.36327 0.85164 0.0
C970 C 0.47293 0.42383 0.8987 0.0
C971 C 0.52067 0.38494 0.87538 0.0
N972 N 0.4586 0.3962 0.03696 0.0
N973 N 0.54587 0.42155 0.78329 0.0
H974 H 0.54044 0.34295 0.88592 0.0
H975 H 0.55332 0.36438 0.79244 0.0
H976 H 0.54898 0.4427 0.75708 0.0
H977 H 0.56515 0.40912 0.78272 0.0
H978 H 0.44278 0.41169 0.05586 0.0
H979 H 0.46037 0.37837 0.08262 0.0
H980 H 0.42816 0.43211 0.93259 0.0
H981 H 0.44257 0.45527 0.84663 0.0
C982 C 0.11249 0.54803 1.00055 0.0
C983 C 0.13213 0.52392 0.98932 0.0
C984 C 0.09729 0.50337 0.87427 0.0
C985 C 0.07582 0.52494 0.89847 0.0
N986 N 0.06167 0.56368 1.00378 0.0
N987 N 0.1414 0.4765 0.92104 0.0
C988 C 0.08305 0.54609 0.96707 0.0
C989 C 0.12419 0.50109 0.92679 0.0
N990 N 0.12213 0.57322 0.04183 0.0
N991 N 0.09185 0.48473 0.80223 0.0
H992 H 0.16088 0.47395 0.95863 0.0
H993 H 0.13522 0.45776 0.88469 0.0
H994 H 0.07209 0.48494 0.7652 0.0
H995 H 0.1077 0.47058 0.77502 0.0
H996 H 0.10947 0.59235 0.04474 0.0
H997 H 0.14394 0.57601 0.06299 0.0
H998 H 0.06541 0.57764 0.05978 0.0
H999 H 0.03956 0.56196 0.98543 0.0
C1000 C 1.0174 0.90702 0.54162 0.0
C1001 C 0.98958 0.8947 0.51707 0.0
C1002 C 0.96472 0.93308 0.61043 0.0
C1003 C 0.99228 0.94681 0.62846 0.0
N1004 N 0.04525 0.9465 0.61494 0.0
N1005 N 0.93662 0.8978 0.52005 0.0
C1006 C 0.01876 0.93354 0.59534 0.0
C1007 C 0.96322 0.90804 0.55032 0.0
N1008 N 0.04251 0.89375 0.50977 0.0
N1009 N 0.93997 0.94343 0.65364 0.0
H1010 H 0.93454 0.87931 0.47802 0.0
H1011 H 0.9167 0.9086 0.53132 0.0
H1012 H 0.94026 0.96151 0.69795 0.0
H1013 H 0.91971 0.93276 0.65231 0.0
H1014 H 0.0635 0.90274 0.51336 0.0
H1015 H 0.04241 0.87319 0.47796 0.0
H1016 H 0.06577 0.93748 0.60034 0.0
H1017 H 0.04704 0.96685 0.64728 0.0
C1018 C 0.62721 0.98976 0.57575 0.0
C1019 C 0.64067 1.01427 0.53069 0.0
C1020 C 0.59948 0.04565 0.58481 0.0
C1021 C 0.58499 0.02058 0.62293 0.0
N1022 N 0.5827 0.96795 0.64015 0.0
N1023 N 0.63761 0.06498 0.48217 0.0
C1024 C 0.59821 0.99239 0.61408 0.0
C1025 C 0.62639 0.04217 0.53332 0.0
N1026 N 0.64252 0.96389 0.58263 0.0
N1027 N 0.58746 0.07291 0.5979 0.0
H1028 H 0.65718 0.06338 0.44447 0.0
H1029 H 0.62665 0.08485 0.47171 0.0
H1030 H 0.56726 0.07615 0.63107 0.0
H1031 H 0.59833 0.09243 0.58188 0.0
H1032 H 0.6348 0.94527 0.61698 0.0
H1033 H 0.66429 0.96172 0.56019 0.0
H1034 H 0.5894 0.94656 0.62564 0.0
H1035 H 0.5619 0.96903 0.67074 0.0
C1036 C 0.54662 0.64362 0.51248 0.0
C1037 C 0.52318 0.65642 0.46024 0.0
C1038 C 0.49161 0.61429 0.50582 0.0
C1039 C 0.51613 0.60011 0.54869 0.0
N1040 N 0.56824 0.59932 0.57848 0.0
N1041 N 0.47399 0.65221 0.39906 0.0
C1042 C 0.54394 0.61438 0.54861 0.0
C1043 C 0.49573 0.64136 0.45531 0.0
N1044 N 0.5716 0.65965 0.52745 0.0
N1045 N 0.46424 0.60206 0.51433 0.0
H1046 H 0.47588 0.67217 0.36351 0.0
H1047 H 0.45485 0.64068 0.38326 0.0
H1048 H 0.46059 0.58206 0.54841 0.0
H1049 H 0.44494 0.61264 0.49368 0.0
H1050 H 0.58869 0.65275 0.57062 0.0
H1051 H 0.57388 0.6813 0.50397 0.0
H1052 H 0.58968 0.60721 0.57261 0.0
H1053 H 0.5672 0.57748 0.60028 0.0
C1054 C 0.85189 0.51106 0.60821 0.0
C1055 C 0.85163 0.52202 0.51592 0.0
C1056 C 0.89763 0.54852 0.54921 0.0
C1057 C 0.90191 0.5316 0.63211 0.0
N1058 N 0.88042 0.49667 0.74239 0.0
N1059 N 0.87455 0.55152 0.39711 0.0
C1060 C 0.87805 0.51331 0.66339 0.0
C1061 C 0.87441 0.54117 0.48639 0.0
N1062 N 0.82695 0.49814 0.64263 0.0
N1063 N 0.91498 0.57248 0.53227 0.0
H1064 H 0.85732 0.54756 0.35083 0.0
H1065 H 0.89243 0.56261 0.36796 0.0
H1066 H 0.93031 0.58011 0.58046 0.0
H1067 H 0.91149 0.58689 0.47675 0.0
H1068 H 0.82419 0.4923 0.71222 0.0
H1069 H 0.80777 0.49621 0.60309 0.0
H1070 H 0.86557 0.48017 0.75992 0.0
H1071 H 0.89745 0.49792 0.78985 0.0
loop_
_geom_bond_atom_site_label_1
_geom_bond_atom_site_label_2
_geom_bond_distance
_geom_bond_site_symmetry_2
_ccdc_geom_bond_type
C0 C1 1.391 . S
C0 C4 1.391 . S
C0 H42 0.948 . S
C1 C0 1.391 . S
C1 C2 1.391 . S
C2 C1 1.391 . S
C2 H58 0.947 . S
C2 C59 1.392 . S
C3 C4 1.391 . S
C3 C7 1.397 . S
C3 C59 1.419 . S
C4 C0 1.391 . S
C4 C3 1.391 . S
C4 C5 1.399 . S
C5 C4 1.399 . S
C5 C8 1.396 . S
C5 C17 1.453 . S
C5 C18 1.684 . S
H6 C30 0.948 . S
C7 C3 1.397 . S
C7 C8 1.394 . S
C7 C26 1.723 . S
C8 C5 1.396 . S
C8 C7 1.394 . S
C8 C38 1.723 . S
H9 C32 0.947 . S
H10 C33 0.948 . S
H11 C39 0.982 . S
H12 C40 0.979 . S
H13 C40 0.980 . S
H14 C40 0.983 . S
H15 C39 0.979 . S
H16 C39 0.977 . S
C17 C5 1.453 . S
C17 H46 0.982 . S
C17 H47 0.979 . S
C17 H48 0.977 . S
C18 C5 1.684 . S
C18 H43 0.979 . S
C18 H44 0.980 . S
C18 H45 0.983 . S
C19 C20 1.391 . S
C19 C24 1.391 . S
C19 H49 0.948 . S
C20 C19 1.391 . S
C20 C21 1.391 . S
C21 C20 1.391 . S
C21 C22 1.392 . S
C21 H50 0.947 . S
C22 C21 1.392 . S
C22 C23 1.419 . S
C22 H51 0.948 . S
C23 C22 1.419 . S
C23 C24 1.391 . S
C23 C27 1.397 . S
C24 C19 1.391 . S
C24 C23 1.391 . S
C24 C25 1.399 . S
C25 C24 1.399 . S
C25 C26 1.396 . S
C25 C28 1.453 . S
C25 C29 1.684 . S
C26 C7 1.723 . S
C26 C25 1.396 . S
C26 C27 1.394 . S
C27 C23 1.397 . S
C27 C26 1.394 . S
C27 C37 1.723 . S
C28 C25 1.453 . S
C28 H52 0.982 . S
C28 H53 0.979 . S
C28 H54 0.977 . S
C29 C25 1.684 . S
C29 H55 0.979 . S
C29 H56 0.980 . S
C29 H57 0.983 . S
C30 H6 0.948 . S
C30 C31 1.391 . S
C30 C35 1.391 . S
C31 C30 1.391 . S
C31 C32 1.391 . S
C32 H9 0.947 . S
C32 C31 1.391 . S
C32 C33 1.392 . S
C33 H10 0.948 . S
C33 C32 1.392 . S
C33 C34 1.419 . S
C34 C33 1.419 . S
C34 C35 1.391 . S
C34 C38 1.397 . S
C35 C30 1.391 . S
C35 C34 1.391 . S
C35 C36 1.399 . S
C36 C35 1.399 . S
C36 C37 1.396 . S
C36 C39 1.453 . S
C36 C40 1.684 . S
C37 C27 1.723 . S
C37 C36 1.396 . S
C37 C38 1.394 . S
C38 C8 1.723 . S
C38 C34 1.397 . S
C38 C37 1.394 . S
C39 H11 0.982 . S
C39 H15 0.979 . S
C39 H16 0.977 . S
C39 C36 1.453 . S
C40 H12 0.979 . S
C40 H13 0.980 . S
C40 H14 0.983 . S
C40 C36 1.684 . S
H41 C59 0.948 . S
H42 C0 0.948 . S
H43 C18 0.979 . S
H44 C18 0.980 . S
H45 C18 0.983 . S
H46 C17 0.982 . S
H47 C17 0.979 . S
H48 C17 0.977 . S
H49 C19 0.948 . S
H50 C21 0.947 . S
H51 C22 0.948 . S
H52 C28 0.982 . S
H53 C28 0.979 . S
H54 C28 0.977 . S
H55 C29 0.979 . S
H56 C29 0.980 . S
H57 C29 0.983 . S
H58 C2 0.947 . S
C59 C2 1.392 . S
C59 C3 1.419 . S
C59 H41 0.948 . S
C60 C61 1.391 . S
C60 C64 1.391 . S
C60 H102 0.948 . S
C61 C60 1.391 . S
C61 C62 1.391 . S
C62 C61 1.391 . S
C62 H118 0.947 . S
C62 C119 1.392 . S
C63 C64 1.391 . S
C63 C67 1.397 1_655 S
C63 C119 1.419 . S
C64 C60 1.391 . S
C64 C63 1.391 . S
C64 C65 1.399 . S
C65 C64 1.399 . S
C65 C68 1.396 1_655 S
C65 C77 1.453 1_655 S
C65 C78 1.684 . S
H66 C90 0.948 . S
C67 C63 1.397 1_455 S
C67 C68 1.394 . S
C67 C86 1.723 . S
C68 C65 1.396 1_455 S
C68 C67 1.394 . S
C68 C98 1.723 . S
H69 C92 0.947 . S
H70 C93 0.948 . S
H71 C99 0.982 . S
H72 C100 0.979 . S
H73 C100 0.980 . S
H74 C100 0.983 . S
H75 C99 0.979 . S
H76 C99 0.977 . S
C77 C65 1.453 1_455 S
C77 H106 0.982 . S
C77 H107 0.979 . S
C77 H108 0.977 . S
C78 C65 1.684 . S
C78 H103 0.979 . S
C78 H104 0.980 . S
C78 H105 0.983 . S
C79 C80 1.391 . S
C79 C84 1.391 . S
C79 H109 0.948 . S
C80 C79 1.391 . S
C80 C81 1.391 . S
C81 C80 1.391 . S
C81 C82 1.392 . S
C81 H110 0.947 . S
C82 C81 1.392 . S
C82 C83 1.419 . S
C82 H111 0.948 . S
C83 C82 1.419 . S
C83 C84 1.391 . S
C83 C87 1.397 1_655 S
C84 C79 1.391 . S
C84 C83 1.391 . S
C84 C85 1.399 . S
C85 C84 1.399 . S
C85 C86 1.396 1_655 S
C85 C88 1.453 1_655 S
C85 C89 1.684 . S
C86 C67 1.723 . S
C86 C85 1.396 1_455 S
C86 C87 1.394 . S
C87 C83 1.397 1_455 S
C87 C86 1.394 . S
C87 C97 1.723 . S
C88 C85 1.453 1_455 S
C88 H112 0.982 . S
C88 H113 0.979 . S
C88 H114 0.977 . S
C89 C85 1.684 . S
C89 H115 0.979 . S
C89 H116 0.980 . S
C89 H117 0.983 . S
C90 H66 0.948 . S
C90 C91 1.391 . S
C90 C95 1.391 . S
C91 C90 1.391 . S
C91 C92 1.391 . S
C92 H69 0.947 . S
C92 C91 1.391 . S
C92 C93 1.392 . S
C93 H70 0.948 . S
C93 C92 1.392 . S
C93 C94 1.419 . S
C94 C93 1.419 . S
C94 C95 1.391 . S
C94 C98 1.397 1_655 S
C95 C90 1.391 . S
C95 C94 1.391 . S
C95 C96 1.399 . S
C96 C95 1.399 . S
C96 C97 1.396 1_655 S
C96 C99 1.453 1_655 S
C96 C100 1.684 . S
C97 C87 1.723 . S
C97 C96 1.396 1_455 S
C97 C98 1.394 . S
C98 C68 1.723 . S
C98 C94 1.397 1_455 S
C98 C97 1.394 . S
C99 H71 0.982 . S
C99 H75 0.979 . S
C99 H76 0.977 . S
C99 C96 1.453 1_455 S
C100 H72 0.979 . S
C100 H73 0.980 . S
C100 H74 0.983 . S
C100 C96 1.684 . S
H101 C119 0.948 . S
H102 C60 0.948 . S
H103 C78 0.979 . S
H104 C78 0.980 . S
H105 C78 0.983 . S
H106 C77 0.982 . S
H107 C77 0.979 . S
H108 C77 0.977 . S
H109 C79 0.948 . S
H110 C81 0.947 . S
H111 C82 0.948 . S
H112 C88 0.982 . S
H113 C88 0.979 . S
H114 C88 0.977 . S
H115 C89 0.979 . S
H116 C89 0.980 . S
H117 C89 0.983 . S
H118 C62 0.947 . S
C119 C62 1.392 . S
C119 C63 1.419 . S
C119 H101 0.948 . S
C120 C121 1.391 . S
C120 C124 1.391 . S
C120 H162 0.948 . S
C121 C120 1.391 . S
C121 C122 1.391 . S
C122 C121 1.391 . S
C122 H178 0.947 . S
C122 C179 1.392 . S
C123 C124 1.391 . S
C123 C127 1.397 1_565 S
C123 C179 1.419 . S
C124 C120 1.391 . S
C124 C123 1.391 . S
C124 C125 1.399 . S
C125 C124 1.399 . S
C125 C128 1.396 1_565 S
C125 C137 1.453 1_565 S
C125 C138 1.684 . S
H126 C150 0.948 . S
C127 C123 1.397 1_545 S
C127 C128 1.394 . S
C127 C146 1.723 . S
C128 C125 1.396 1_545 S
C128 C127 1.394 . S
C128 C158 1.723 . S
H129 C152 0.947 . S
H130 C153 0.948 . S
H131 C159 0.982 . S
H132 C160 0.979 . S
H133 C160 0.980 . S
H134 C160 0.983 . S
H135 C159 0.979 . S
H136 C159 0.977 . S
C137 C125 1.453 1_545 S
C137 H166 0.982 . S
C137 H167 0.979 . S
C137 H168 0.977 . S
C138 C125 1.684 . S
C138 H163 0.979 . S
C138 H164 0.980 . S
C138 H165 0.983 . S
C139 C140 1.391 . S
C139 C144 1.391 . S
C139 H169 0.948 . S
C140 C139 1.391 . S
C140 C141 1.391 . S
C141 C140 1.391 . S
C141 C142 1.392 . S
C141 H170 0.947 . S
C142 C141 1.392 . S
C142 C143 1.419 . S
C142 H171 0.948 . S
C143 C142 1.419 . S
C143 C144 1.391 . S
C143 C147 1.397 1_565 S
C144 C139 1.391 . S
C144 C143 1.391 . S
C144 C145 1.399 . S
C145 C144 1.399 . S
C145 C146 1.396 1_565 S
C145 C148 1.453 1_565 S
C145 C149 1.684 . S
C146 C127 1.723 . S
C146 C145 1.396 1_545 S
C146 C147 1.394 . S
C147 C143 1.397 1_545 S
C147 C146 1.394 . S
C147 C157 1.723 . S
C148 C145 1.453 1_545 S
C148 H172 0.982 . S
C148 H173 0.979 . S
C148 H174 0.977 . S
C149 C145 1.684 . S
C149 H175 0.979 . S
C149 H176 0.980 . S
C149 H177 0.983 . S
C150 H126 0.948 . S
C150 C151 1.391 . S
C150 C155 1.391 . S
C151 C150 1.391 . S
C151 C152 1.391 . S
C152 H129 0.947 . S
C152 C151 1.391 . S
C152 C153 1.392 . S
C153 H130 0.948 . S
C153 C152 1.392 . S
C153 C154 1.419 . S
C154 C153 1.419 . S
C154 C155 1.391 . S
C154 C158 1.397 1_565 S
C155 C150 1.391 . S
C155 C154 1.391 . S
C155 C156 1.399 . S
C156 C155 1.399 . S
C156 C157 1.396 1_565 S
C156 C159 1.453 1_565 S
C156 C160 1.684 . S
C157 C147 1.723 . S
C157 C156 1.396 1_545 S
C157 C158 1.394 . S
C158 C128 1.723 . S
C158 C154 1.397 1_545 S
C158 C157 1.394 . S
C159 H131 0.982 . S
C159 H135 0.979 . S
C159 H136 0.977 . S
C159 C156 1.453 1_545 S
C160 H132 0.979 . S
C160 H133 0.980 . S
C160 H134 0.983 . S
C160 C156 1.684 . S
H161 C179 0.948 . S
H162 C120 0.948 . S
H163 C138 0.979 . S
H164 C138 0.980 . S
H165 C138 0.983 . S
H166 C137 0.982 . S
H167 C137 0.979 . S
H168 C137 0.977 . S
H169 C139 0.948 . S
H170 C141 0.947 . S
H171 C142 0.948 . S
H172 C148 0.982 . S
H173 C148 0.979 . S
H174 C148 0.977 . S
H175 C149 0.979 . S
H176 C149 0.980 . S
H177 C149 0.983 . S
H178 C122 0.947 . S
C179 C122 1.392 . S
C179 C123 1.419 . S
C179 H161 0.948 . S
C180 C181 1.391 . S
C180 C184 1.391 . S
C180 H222 0.948 . S
C181 C180 1.391 . S
C181 C182 1.391 . S
C182 C181 1.391 . S
C182 H238 0.947 . S
C182 C239 1.392 . S
C183 C184 1.391 . S
C183 C187 1.397 . S
C183 C239 1.419 . S
C184 C180 1.391 . S
C184 C183 1.391 . S
C184 C185 1.399 . S
C185 C184 1.399 . S
C185 C188 1.396 . S
C185 C197 1.453 . S
C185 C198 1.684 . S
H186 C210 0.948 . S
C187 C183 1.397 . S
C187 C188 1.394 . S
C187 C206 1.723 . S
C188 C185 1.396 . S
C188 C187 1.394 . S
C188 C218 1.723 . S
H189 C212 0.947 . S
H190 C213 0.948 . S
H191 C219 0.982 . S
H192 C220 0.979 . S
H193 C220 0.980 . S
H194 C220 0.983 . S
H195 C219 0.979 . S
H196 C219 0.977 . S
C197 C185 1.453 . S
C197 H226 0.982 . S
C197 H227 0.979 . S
C197 H228 0.977 . S
C198 C185 1.684 . S
C198 H223 0.979 . S
C198 H224 0.980 . S
C198 H225 0.983 . S
C199 C200 1.391 . S
C199 C204 1.391 . S
C199 H229 0.948 . S
C200 C199 1.391 . S
C200 C201 1.391 . S
C201 C200 1.391 . S
C201 C202 1.392 . S
C201 H230 0.947 . S
C202 C201 1.392 . S
C202 C203 1.419 . S
C202 H231 0.948 . S
C203 C202 1.419 . S
C203 C204 1.391 . S
C203 C207 1.397 . S
C204 C199 1.391 . S
C204 C203 1.391 . S
C204 C205 1.399 . S
C205 C204 1.399 . S
C205 C206 1.396 . S
C205 C208 1.453 . S
C205 C209 1.684 . S
C206 C187 1.723 . S
C206 C205 1.396 . S
C206 C207 1.394 . S
C207 C203 1.397 . S
C207 C206 1.394 . S
C207 C217 1.723 . S
C208 C205 1.453 . S
C208 H232 0.982 . S
C208 H233 0.979 . S
C208 H234 0.977 . S
C209 C205 1.684 . S
C209 H235 0.979 . S
C209 H236 0.980 . S
C209 H237 0.983 . S
C210 H186 0.948 . S
C210 C211 1.391 . S
C210 C215 1.391 . S
C211 C210 1.391 . S
C211 C212 1.391 . S
C212 H189 0.947 . S
C212 C211 1.391 . S
C212 C213 1.392 . S
C213 H190 0.948 . S
C213 C212 1.392 . S
C213 C214 1.419 . S
C214 C213 1.419 . S
C214 C215 1.391 . S
C214 C218 1.397 . S
C215 C210 1.391 . S
C215 C214 1.391 . S
C215 C216 1.399 . S
C216 C215 1.399 . S
C216 C217 1.396 . S
C216 C219 1.453 . S
C216 C220 1.684 . S
C217 C207 1.723 . S
C217 C216 1.396 . S
C217 C218 1.394 . S
C218 C188 1.723 . S
C218 C214 1.397 . S
C218 C217 1.394 . S
C219 H191 0.982 . S
C219 H195 0.979 . S
C219 H196 0.977 . S
C219 C216 1.453 . S
C220 H192 0.979 . S
C220 H193 0.980 . S
C220 H194 0.983 . S
C220 C216 1.684 . S
H221 C239 0.948 . S
H222 C180 0.948 . S
H223 C198 0.979 . S
H224 C198 0.980 . S
H225 C198 0.983 . S
H226 C197 0.982 . S
H227 C197 0.979 . S
H228 C197 0.977 . S
H229 C199 0.948 . S
H230 C201 0.947 . S
H231 C202 0.948 . S
H232 C208 0.982 . S
H233 C208 0.979 . S
H234 C208 0.977 . S
H235 C209 0.979 . S
H236 C209 0.980 . S
H237 C209 0.983 . S
H238 C182 0.947 . S
C239 C182 1.392 . S
C239 C183 1.419 . S
C239 H221 0.948 . S
C240 C241 1.391 . S
C240 C244 1.391 . S
C240 H282 0.948 1_554 S
C241 C240 1.391 . S
C241 C242 1.391 . S
C242 C241 1.391 . S
C242 H298 0.947 . S
C242 C299 1.392 . S
C243 C244 1.391 . S
C243 C247 1.397 . S
C243 C299 1.419 . S
C244 C240 1.391 . S
C244 C243 1.391 . S
C244 C245 1.399 1_554 S
C245 C244 1.399 1_556 S
C245 C248 1.396 . S
C245 C257 1.453 . S
C245 C258 1.684 . S
H246 C270 0.948 . S
C247 C243 1.397 . S
C247 C248 1.394 1_554 S
C247 C266 1.723 . S
C248 C245 1.396 . S
C248 C247 1.394 1_556 S
C248 C278 1.723 . S
H249 C272 0.947 . S
H250 C273 0.948 . S
H251 C279 0.982 . S
H252 C280 0.979 . S
H253 C280 0.980 . S
H254 C280 0.983 . S
H255 C279 0.979 . S
H256 C279 0.977 . S
C257 C245 1.453 . S
C257 H286 0.982 . S
C257 H287 0.979 . S
C257 H288 0.977 . S
C258 C245 1.684 . S
C258 H283 0.979 . S
C258 H284 0.980 . S
C258 H285 0.983 . S
C259 C260 1.391 . S
C259 C264 1.391 . S
C259 H289 0.948 . S
C260 C259 1.391 . S
C260 C261 1.391 . S
C261 C260 1.391 . S
C261 C262 1.392 . S
C261 H290 0.947 . S
C262 C261 1.392 . S
C262 C263 1.419 . S
C262 H291 0.948 . S
C263 C262 1.419 . S
C263 C264 1.391 . S
C263 C267 1.397 . S
C264 C259 1.391 . S
C264 C263 1.391 . S
C264 C265 1.399 . S
C265 C264 1.399 . S
C265 C266 1.396 . S
C265 C268 1.453 . S
C265 C269 1.684 . S
C266 C247 1.723 . S
C266 C265 1.396 . S
C266 C267 1.394 . S
C267 C263 1.397 . S
C267 C266 1.394 . S
C267 C277 1.723 1_554 S
C268 C265 1.453 . S
C268 H292 0.982 . S
C268 H293 0.979 . S
C268 H294 0.977 . S
C269 C265 1.684 . S
C269 H295 0.979 . S
C269 H296 0.980 . S
C269 H297 0.983 . S
C270 H246 0.948 . S
C270 C271 1.391 . S
C270 C275 1.391 . S
C271 C270 1.391 . S
C271 C272 1.391 . S
C272 H249 0.947 . S
C272 C271 1.391 . S
C272 C273 1.392 . S
C273 H250 0.948 . S
C273 C272 1.392 . S
C273 C274 1.419 . S
C274 C273 1.419 . S
C274 C275 1.391 . S
C274 C278 1.397 . S
C275 C270 1.391 . S
C275 C274 1.391 . S
C275 C276 1.399 . S
C276 C275 1.399 . S
C276 C277 1.396 . S
C276 C279 1.453 . S
C276 C280 1.684 . S
C277 C267 1.723 1_556 S
C277 C276 1.396 . S
C277 C278 1.394 . S
C278 C248 1.723 . S
C278 C274 1.397 . S
C278 C277 1.394 . S
C279 H251 0.982 . S
C279 H255 0.979 . S
C279 H256 0.977 . S
C279 C276 1.453 . S
C280 H252 0.979 . S
C280 H253 0.980 . S
C280 H254 0.983 . S
C280 C276 1.684 . S
H281 C299 0.948 . S
H282 C240 0.948 1_556 S
H283 C258 0.979 . S
H284 C258 0.980 . S
H285 C258 0.983 . S
H286 C257 0.982 . S
H287 C257 0.979 . S
H288 C257 0.977 . S
H289 C259 0.948 . S
H290 C261 0.947 . S
H291 C262 0.948 . S
H292 C268 0.982 . S
H293 C268 0.979 . S
H294 C268 0.977 . S
H295 C269 0.979 . S
H296 C269 0.980 . S
H297 C269 0.983 . S
H298 C242 0.947 . S
C299 C242 1.392 . S
C299 C243 1.419 . S
C299 H281 0.948 . S
C300 C301 1.391 . S
C300 C304 1.391 . S
C300 H342 0.948 . S
C301 C300 1.391 . S
C301 C302 1.391 . S
C302 C301 1.391 . S
C302 H358 0.947 . S
C302 C359 1.392 . S
C303 C304 1.391 . S
C303 C307 1.396 1_655 S
C303 C359 1.419 . S
C304 C300 1.391 . S
C304 C303 1.391 . S
C304 C305 1.399 . S
C305 C304 1.399 . S
C305 C308 1.396 1_655 S
C305 C317 1.453 1_655 S
C305 C318 1.684 . S
H306 C330 0.948 1_556 S
C307 C303 1.396 1_455 S
C307 C308 1.395 . S
C307 C326 1.723 1_554 S
C308 C305 1.396 1_455 S
C308 C307 1.395 . S
C308 C338 1.723 . S
H309 C332 0.947 . S
H310 C333 0.948 . S
H311 C339 0.982 . S
H312 C340 0.979 . S
H313 C340 0.980 . S
H314 C340 0.983 . S
H315 C339 0.979 . S
H316 C339 0.977 . S
C317 C305 1.453 1_455 S
C317 H346 0.982 . S
C317 H347 0.979 . S
C317 H348 0.977 . S
C318 C305 1.684 . S
C318 H343 0.979 . S
C318 H344 0.980 . S
C318 H345 0.983 . S
C319 C320 1.391 . S
C319 C324 1.391 . S
C319 H349 0.948 . S
C320 C319 1.391 . S
C320 C321 1.391 . S
C321 C320 1.391 . S
C321 C322 1.392 . S
C321 H350 0.947 . S
C322 C321 1.392 . S
C322 C323 1.419 . S
C322 H351 0.948 . S
C323 C322 1.419 . S
C323 C324 1.391 . S
C323 C327 1.396 1_655 S
C324 C319 1.391 . S
C324 C323 1.391 . S
C324 C325 1.399 . S
C325 C324 1.399 . S
C325 C326 1.396 1_655 S
C325 C328 1.453 1_655 S
C325 C329 1.684 . S
C326 C307 1.723 1_556 S
C326 C325 1.396 1_455 S
C326 C327 1.395 . S
C327 C323 1.396 1_455 S
C327 C326 1.395 . S
C327 C337 1.723 . S
C328 C325 1.453 1_455 S
C328 H352 0.982 . S
C328 H353 0.979 . S
C328 H354 0.977 . S
C329 C325 1.684 . S
C329 H355 0.979 . S
C329 H356 0.980 . S
C329 H357 0.983 . S
C330 H306 0.948 1_554 S
C330 C331 1.391 . S
C330 C335 1.391 . S
C331 C330 1.391 . S
C331 C332 1.391 . S
C332 H309 0.947 . S
C332 C331 1.391 . S
C332 C333 1.392 . S
C333 H310 0.948 . S
C333 C332 1.392 . S
C333 C334 1.419 . S
C334 C333 1.419 . S
C334 C335 1.391 . S
C334 C338 1.396 1_655 S
C335 C330 1.391 . S
C335 C334 1.391 . S
C335 C336 1.399 1_554 S
C336 C335 1.399 1_556 S
C336 C337 1.396 1_655 S
C336 C339 1.453 1_655 S
C336 C340 1.684 . S
C337 C327 1.723 . S
C337 C336 1.396 1_455 S
C337 C338 1.395 1_556 S
C338 C308 1.723 . S
C338 C334 1.396 1_455 S
C338 C337 1.395 1_554 S
C339 H311 0.982 . S
C339 H315 0.979 . S
C339 H316 0.977 . S
C339 C336 1.453 1_455 S
C340 H312 0.979 . S
C340 H313 0.980 . S
C340 H314 0.983 . S
C340 C336 1.684 . S
H341 C359 0.948 . S
H342 C300 0.948 . S
H343 C318 0.979 . S
H344 C318 0.980 . S
H345 C318 0.983 . S
H346 C317 0.982 . S
H347 C317 0.979 . S
H348 C317 0.977 . S
H349 C319 0.948 . S
H350 C321 0.947 . S
H351 C322 0.948 . S
H352 C328 0.982 . S
H353 C328 0.979 . S
H354 C328 0.977 . S
H355 C329 0.979 . S
H356 C329 0.980 . S
H357 C329 0.983 . S
H358 C302 0.947 . S
C359 C302 1.392 . S
C359 C303 1.419 . S
C359 H341 0.948 . S
C360 C361 1.391 . S
C360 C364 1.391 . S
C360 H402 0.948 . S
C361 C360 1.391 . S
C361 C362 1.391 . S
C362 C361 1.391 . S
C362 H418 0.947 . S
C362 C419 1.392 . S
C363 C364 1.391 . S
C363 C367 1.397 1_545 S
C363 C419 1.419 . S
C364 C360 1.391 . S
C364 C363 1.391 . S
C364 C365 1.399 . S
C365 C364 1.399 . S
C365 C368 1.396 1_545 S
C365 C377 1.453 1_545 S
C365 C378 1.684 . S
H366 C390 0.948 . S
C367 C363 1.397 1_565 S
C367 C368 1.394 . S
C367 C386 1.723 1_556 S
C368 C365 1.396 1_565 S
C368 C367 1.394 . S
C368 C398 1.723 1_556 S
H369 C392 0.947 1_556 S
H370 C393 0.948 . S
H371 C399 0.982 . S
H372 C400 0.979 . S
H373 C400 0.980 . S
H374 C400 0.983 . S
H375 C399 0.979 . S
H376 C399 0.977 . S
C377 C365 1.453 1_565 S
C377 H406 0.982 . S
C377 H407 0.979 . S
C377 H408 0.977 . S
C378 C365 1.684 . S
C378 H403 0.979 . S
C378 H404 0.980 . S
C378 H405 0.983 . S
C379 C380 1.391 . S
C379 C384 1.391 . S
C379 H409 0.948 . S
C380 C379 1.391 . S
C380 C381 1.391 . S
C381 C380 1.391 . S
C381 C382 1.392 . S
C381 H410 0.947 . S
C382 C381 1.392 . S
C382 C383 1.419 . S
C382 H411 0.948 . S
C383 C382 1.419 . S
C383 C384 1.391 . S
C383 C387 1.397 1_545 S
C384 C379 1.391 . S
C384 C383 1.391 . S
C384 C385 1.399 . S
C385 C384 1.399 . S
C385 C386 1.396 1_545 S
C385 C388 1.453 1_545 S
C385 C389 1.684 . S
C386 C367 1.723 1_554 S
C386 C385 1.396 1_565 S
C386 C387 1.394 . S
C387 C383 1.397 1_565 S
C387 C386 1.394 . S
C387 C397 1.723 . S
C388 C385 1.453 1_565 S
C388 H412 0.982 . S
C388 H413 0.979 . S
C388 H414 0.977 1_554 S
C389 C385 1.684 . S
C389 H415 0.979 . S
C389 H416 0.980 1_554 S
C389 H417 0.983 . S
C390 H366 0.948 . S
C390 C391 1.391 . S
C390 C395 1.391 . S
C391 C390 1.391 . S
C391 C392 1.391 . S
C392 H369 0.947 1_554 S
C392 C391 1.391 . S
C392 C393 1.392 1_554 S
C393 H370 0.948 . S
C393 C392 1.392 1_556 S
C393 C394 1.419 1_556 S
C394 C393 1.419 1_554 S
C394 C395 1.391 . S
C394 C398 1.397 1_545 S
C395 C390 1.391 . S
C395 C394 1.391 . S
C395 C396 1.399 . S
C396 C395 1.399 . S
C396 C397 1.396 1_545 S
C396 C399 1.453 1_545 S
C396 C400 1.684 . S
C397 C387 1.723 . S
C397 C396 1.396 1_565 S
C397 C398 1.394 . S
C398 C368 1.723 1_554 S
C398 C394 1.397 1_565 S
C398 C397 1.394 . S
C399 H371 0.982 . S
C399 H375 0.979 . S
C399 H376 0.977 . S
C399 C396 1.453 1_565 S
C400 H372 0.979 . S
C400 H373 0.980 . S
C400 H374 0.983 . S
C400 C396 1.684 . S
H401 C419 0.948 . S
H402 C360 0.948 . S
H403 C378 0.979 . S
H404 C378 0.980 . S
H405 C378 0.983 . S
H406 C377 0.982 . S
H407 C377 0.979 . S
H408 C377 0.977 . S
H409 C379 0.948 . S
H410 C381 0.947 . S
H411 C382 0.948 . S
H412 C388 0.982 . S
H413 C388 0.979 . S
H414 C388 0.977 1_556 S
H415 C389 0.979 . S
H416 C389 0.980 1_556 S
H417 C389 0.983 . S
H418 C362 0.947 . S
C419 C362 1.392 . S
C419 C363 1.419 . S
C419 H401 0.948 . S
C420 C421 1.391 . S
C420 C424 1.391 . S
C420 H462 0.948 . S
C421 C420 1.391 . S
C421 C422 1.391 . S
C422 C421 1.391 . S
C422 H478 0.947 . S
C422 C479 1.392 . S
C423 C424 1.391 . S
C423 C427 1.397 . S
C423 C479 1.419 . S
C424 C420 1.391 . S
C424 C423 1.391 . S
C424 C425 1.399 . S
C425 C424 1.399 . S
C425 C428 1.396 . S
C425 C437 1.453 . S
C425 C438 1.684 . S
H426 C450 0.948 . S
C427 C423 1.397 . S
C427 C428 1.394 . S
C427 C446 1.723 1_556 S
C428 C425 1.396 . S
C428 C427 1.394 . S
C428 C458 1.723 1_556 S
H429 C452 0.947 1_556 S
H430 C453 0.948 . S
H431 C459 0.982 . S
H432 C460 0.979 . S
H433 C460 0.980 . S
H434 C460 0.983 . S
H435 C459 0.979 . S
H436 C459 0.977 . S
C437 C425 1.453 . S
C437 H466 0.982 . S
C437 H467 0.979 . S
C437 H468 0.977 . S
C438 C425 1.684 . S
C438 H463 0.979 . S
C438 H464 0.980 . S
C438 H465 0.983 . S
C439 C440 1.391 . S
C439 C444 1.391 . S
C439 H469 0.948 . S
C440 C439 1.391 . S
C440 C441 1.391 . S
C441 C440 1.391 . S
C441 C442 1.392 . S
C441 H470 0.947 . S
C442 C441 1.392 . S
C442 C443 1.419 . S
C442 H471 0.948 . S
C443 C442 1.419 . S
C443 C444 1.391 . S
C443 C447 1.397 . S
C444 C439 1.391 . S
C444 C443 1.391 . S
C444 C445 1.399 . S
C445 C444 1.399 . S
C445 C446 1.396 . S
C445 C448 1.453 . S
C445 C449 1.684 . S
C446 C427 1.723 1_554 S
C446 C445 1.396 . S
C446 C447 1.394 . S
C447 C443 1.397 . S
C447 C446 1.394 . S
C447 C457 1.723 . S
C448 C445 1.453 . S
C448 H472 0.982 . S
C448 H473 0.979 . S
C448 H474 0.977 1_554 S
C449 C445 1.684 . S
C449 H475 0.979 . S
C449 H476 0.980 1_554 S
C449 H477 0.983 . S
C450 H426 0.948 . S
C450 C451 1.391 . S
C450 C455 1.391 . S
C451 C450 1.391 . S
C451 C452 1.391 . S
C452 H429 0.947 1_554 S
C452 C451 1.391 . S
C452 C453 1.392 1_554 S
C453 H430 0.948 . S
C453 C452 1.392 1_556 S
C453 C454 1.419 1_556 S
C454 C453 1.419 1_554 S
C454 C455 1.391 . S
C454 C458 1.397 . S
C455 C450 1.391 . S
C455 C454 1.391 . S
C455 C456 1.399 . S
C456 C455 1.399 . S
C456 C457 1.396 . S
C456 C459 1.453 . S
C456 C460 1.684 . S
C457 C447 1.723 . S
C457 C456 1.396 . S
C457 C458 1.394 . S
C458 C428 1.723 1_554 S
C458 C454 1.397 . S
C458 C457 1.394 . S
C459 H431 0.982 . S
C459 H435 0.979 . S
C459 H436 0.977 . S
C459 C456 1.453 . S
C460 H432 0.979 . S
C460 H433 0.980 . S
C460 H434 0.983 . S
C460 C456 1.684 . S
H461 C479 0.948 . S
H462 C420 0.948 . S
H463 C438 0.979 . S
H464 C438 0.980 . S
H465 C438 0.983 . S
H466 C437 0.982 . S
H467 C437 0.979 . S
H468 C437 0.977 . S
H469 C439 0.948 . S
H470 C441 0.947 . S
H471 C442 0.948 . S
H472 C448 0.982 . S
H473 C448 0.979 . S
H474 C448 0.977 1_556 S
H475 C449 0.979 . S
H476 C449 0.980 1_556 S
H477 C449 0.983 . S
H478 C422 0.947 . S
C479 C422 1.392 . S
C479 C423 1.419 . S
C479 H461 0.948 . S
Gd480 C483 2.818 . S
Gd480 O500 2.377 . S
Gd480 O502 2.448 . S
Gd480 O503 2.506 . S
Gd480 O504 2.435 . S
Gd480 O505 2.717 1_565 S
Gd480 O507 2.395 1_565 S
Gd480 O511 2.327 1_455 S
Gd481 C492 2.818 . S
Gd481 O501 2.395 1_545 S
Gd481 O505 2.327 1_655 S
Gd481 O506 2.377 . S
Gd481 O508 2.448 . S
Gd481 O509 2.506 . S
Gd481 O510 2.435 . S
Gd481 O511 2.717 1_545 S
C482 O500 1.240 1_655 S
C482 O501 1.240 . S
C483 Gd480 2.818 . S
C483 C484 1.510 . S
C483 O502 1.249 . S
C483 O503 1.252 . S
C484 C483 1.510 . S
C484 C485 1.404 . S
C484 C486 1.355 . S
C485 C484 1.404 . S
C485 C489 1.389 1_556 S
C485 H512 0.930 . S
C486 C484 1.355 . S
C486 C488 1.370 1_556 S
C486 H513 0.931 1_455 S
C487 C488 1.359 . S
C487 C489 1.364 . S
C488 C486 1.370 1_554 S
C488 C487 1.359 . S
C488 H514 0.931 . S
C489 C485 1.389 1_554 S
C489 C487 1.364 . S
C489 H515 0.931 . S
C490 O504 1.256 . S
C490 O505 1.257 1_565 S
C491 O506 1.240 1_455 S
C491 O507 1.240 . S
C492 Gd481 2.818 . S
C492 C493 1.510 . S
C492 O508 1.249 . S
C492 O509 1.252 . S
C493 C492 1.510 . S
C493 C494 1.404 . S
C493 C495 1.352 . S
C494 C493 1.404 . S
C494 C498 1.389 . S
C494 H516 0.930 . S
C495 C493 1.352 . S
C495 C497 1.374 . S
C495 H517 0.931 1_655 S
C496 C497 1.359 . S
C496 C498 1.364 . S
C497 C495 1.374 . S
C497 C496 1.359 . S
C497 H518 0.931 . S
C498 C494 1.389 . S
C498 C496 1.364 . S
C498 H519 0.931 . S
C499 O510 1.256 . S
C499 O511 1.257 1_545 S
O500 Gd480 2.377 . S
O500 C482 1.240 1_455 S
O501 Gd481 2.395 1_565 S
O501 C482 1.240 . S
O502 Gd480 2.448 . S
O502 C483 1.249 . S
O503 Gd480 2.506 . S
O503 C483 1.252 . S
O504 Gd480 2.435 . S
O504 C490 1.256 . S
O505 Gd480 2.717 1_545 S
O505 Gd481 2.327 1_455 S
O505 C490 1.257 1_545 S
O506 Gd481 2.377 . S
O506 C491 1.240 1_655 S
O507 Gd480 2.395 1_545 S
O507 C491 1.240 . S
O508 Gd481 2.448 . S
O508 C492 1.249 . S
O509 Gd481 2.506 . S
O509 C492 1.252 . S
O510 Gd481 2.435 . S
O510 C499 1.256 . S
O511 Gd480 2.327 1_655 S
O511 Gd481 2.717 1_565 S
O511 C499 1.257 1_565 S
H512 C485 0.930 . S
H513 C486 0.931 1_655 S
H514 C488 0.931 . S
H515 C489 0.931 . S
H516 C494 0.930 . S
H517 C495 0.931 1_455 S
H518 C497 0.931 . S
H519 C498 0.931 . S
Gd520 C523 2.818 . S
Gd520 O540 2.377 . S
Gd520 O542 2.448 . S
Gd520 O543 2.506 . S
Gd520 O544 2.435 . S
Gd520 O545 2.717 . S
Gd520 O547 2.395 . S
Gd520 O551 2.327 1_545 S
Gd521 C532 2.818 . S
Gd521 O541 2.395 . S
Gd521 O545 2.327 1_565 S
Gd521 O546 2.377 . S
Gd521 O548 2.448 . S
Gd521 O549 2.506 . S
Gd521 O550 2.435 . S
Gd521 O551 2.717 . S
C522 O540 1.240 1_565 S
C522 O541 1.240 . S
C523 Gd520 2.818 . S
C523 C524 1.510 . S
C523 O542 1.249 . S
C523 O543 1.252 . S
C524 C523 1.510 . S
C524 C525 1.404 . S
C524 C526 1.352 . S
C525 C524 1.404 . S
C525 C529 1.389 1_556 S
C525 H552 0.930 . S
C526 C524 1.352 . S
C526 C528 1.373 1_556 S
C526 H553 0.931 1_545 S
C527 C528 1.359 . S
C527 C529 1.364 . S
C528 C526 1.373 1_554 S
C528 C527 1.359 . S
C528 H554 0.931 . S
C529 C525 1.389 1_554 S
C529 C527 1.364 . S
C529 H555 0.931 . S
C530 O544 1.256 . S
C530 O545 1.257 . S
C531 O546 1.240 1_545 S
C531 O547 1.240 . S
C532 Gd521 2.818 . S
C532 C533 1.510 . S
C532 O548 1.249 . S
C532 O549 1.252 . S
C533 C532 1.510 . S
C533 C534 1.404 . S
C533 C535 1.352 . S
C534 C533 1.404 . S
C534 C538 1.389 . S
C534 H556 0.930 . S
C535 C533 1.352 . S
C535 C537 1.374 . S
C535 H557 0.931 1_565 S
C536 C537 1.359 . S
C536 C538 1.364 . S
C537 C535 1.374 . S
C537 C536 1.359 . S
C537 H558 0.960 . S
C538 C534 1.389 . S
C538 C536 1.364 . S
C538 H559 0.931 . S
C539 O550 1.256 . S
C539 O551 1.257 . S
O540 Gd520 2.377 . S
O540 C522 1.240 1_545 S
O541 Gd521 2.395 . S
O541 C522 1.240 . S
O542 Gd520 2.448 . S
O542 C523 1.249 . S
O543 Gd520 2.506 . S
O543 C523 1.252 . S
O544 Gd520 2.435 . S
O544 C530 1.256 . S
O545 Gd520 2.717 . S
O545 Gd521 2.327 1_545 S
O545 C530 1.257 . S
O546 Gd521 2.377 . S
O546 C531 1.240 1_565 S
O547 Gd520 2.395 . S
O547 C531 1.240 . S
O548 Gd521 2.448 . S
O548 C532 1.249 . S
O549 Gd521 2.506 . S
O549 C532 1.252 . S
O550 Gd521 2.435 . S
O550 C539 1.256 . S
O551 Gd520 2.327 1_565 S
O551 Gd521 2.717 . S
O551 C539 1.257 . S
H552 C525 0.930 . S
H553 C526 0.931 1_565 S
H554 C528 0.931 . S
H555 C529 0.931 . S
H556 C534 0.930 . S
H557 C535 0.931 1_545 S
H558 C537 0.960 . S
H559 C538 0.931 . S
Gd560 C563 2.818 . S
Gd560 O580 2.377 . S
Gd560 O582 2.448 . S
Gd560 O583 2.506 . S
Gd560 O584 2.435 . S
Gd560 O585 2.717 . S
Gd560 O587 2.395 . S
Gd560 O591 2.327 . S
Gd561 C572 2.818 . S
Gd561 O581 2.395 . S
Gd561 O585 2.327 . S
Gd561 O586 2.377 . S
Gd561 O588 2.448 . S
Gd561 O589 2.506 . S
Gd561 O590 2.435 . S
Gd561 O591 2.717 . S
C562 O580 1.240 . S
C562 O581 1.240 . S
C563 Gd560 2.818 . S
C563 C564 1.510 . S
C563 O582 1.249 . S
C563 O583 1.252 . S
C564 C563 1.510 . S
C564 C565 1.404 . S
C564 C566 1.349 1_556 S
C565 C564 1.404 . S
C565 C569 1.389 1_556 S
C565 H592 0.930 . S
C566 C564 1.349 1_554 S
C566 C568 1.377 . S
C566 H593 0.930 1_554 S
C567 C568 1.359 . S
C567 C569 1.364 . S
C568 C566 1.377 . S
C568 C567 1.359 . S
C568 H594 0.931 . S
C569 C565 1.389 1_554 S
C569 C567 1.364 . S
C569 H595 0.931 . S
C570 O584 1.256 . S
C570 O585 1.257 . S
C571 O586 1.240 . S
C571 O587 1.240 . S
C572 Gd561 2.818 . S
C572 C573 1.510 . S
C572 O588 1.249 . S
C572 O589 1.252 . S
C573 C572 1.510 . S
C573 C574 1.404 . S
C573 C575 1.352 . S
C574 C573 1.404 . S
C574 C578 1.389 . S
C574 H596 0.930 . S
C575 C573 1.352 . S
C575 C577 1.374 . S
C575 H597 0.931 . S
C576 C577 1.359 . S
C576 C578 1.364 . S
C577 C575 1.374 . S
C577 C576 1.359 . S
C577 H598 0.931 . S
C578 C574 1.389 . S
C578 C576 1.364 . S
C578 H599 0.931 . S
C579 O590 1.256 . S
C579 O591 1.257 . S
O580 Gd560 2.377 . S
O580 C562 1.240 . S
O581 Gd561 2.395 . S
O581 C562 1.240 . S
O582 Gd560 2.448 . S
O582 C563 1.249 . S
O583 Gd560 2.506 . S
O583 C563 1.252 . S
O584 Gd560 2.435 . S
O584 C570 1.256 . S
O585 Gd560 2.717 . S
O585 Gd561 2.327 . S
O585 C570 1.257 . S
O586 Gd561 2.377 . S
O586 C571 1.240 . S
O587 Gd560 2.395 . S
O587 C571 1.240 . S
O588 Gd561 2.448 . S
O588 C572 1.249 . S
O589 Gd561 2.506 . S
O589 C572 1.252 . S
O590 Gd561 2.435 . S
O590 C579 1.256 . S
O591 Gd560 2.327 . S
O591 Gd561 2.717 . S
O591 C579 1.257 . S
H592 C565 0.930 . S
H593 C566 0.930 1_556 S
H594 C568 0.931 . S
H595 C569 0.931 . S
H596 C574 0.930 . S
H597 C575 0.931 . S
H598 C577 0.931 . S
H599 C578 0.931 . S
Gd600 C603 2.818 . S
Gd600 O620 2.377 . S
Gd600 O622 2.448 . S
Gd600 O623 2.506 . S
Gd600 O624 2.435 . S
Gd600 O625 2.717 1_655 S
Gd600 O627 2.395 1_655 S
Gd600 O631 2.327 . S
Gd601 C612 2.818 . S
Gd601 O621 2.395 1_455 S
Gd601 O625 2.327 . S
Gd601 O626 2.377 . S
Gd601 O628 2.448 . S
Gd601 O629 2.506 . S
Gd601 O630 2.435 . S
Gd601 O631 2.717 1_455 S
C602 O620 1.240 . S
C602 O621 1.240 . S
C603 Gd600 2.818 . S
C603 C604 1.510 . S
C603 O622 1.249 . S
C603 O623 1.252 . S
C604 C603 1.510 . S
C604 C605 1.404 . S
C604 C606 1.352 1_556 S
C605 C604 1.404 . S
C605 C609 1.389 1_556 S
C605 H632 0.930 . S
C606 C604 1.352 1_554 S
C606 C608 1.374 . S
C606 H633 0.931 1_554 S
C607 C608 1.359 . S
C607 C609 1.364 . S
C608 C606 1.374 . S
C608 C607 1.359 . S
C608 H634 0.931 . S
C609 C605 1.389 1_554 S
C609 C607 1.364 . S
C609 H635 0.931 . S
C610 O624 1.272 . S
C610 O625 1.249 1_655 S
C611 O626 1.240 . S
C611 O627 1.240 . S
C612 Gd601 2.818 . S
C612 C613 1.510 . S
C612 O628 1.249 . S
C612 O629 1.252 . S
C613 C612 1.510 . S
C613 C614 1.404 . S
C613 C615 1.352 . S
C614 C613 1.404 . S
C614 C618 1.389 . S
C614 H636 0.930 . S
C615 C613 1.352 . S
C615 C617 1.374 . S
C615 H637 0.931 . S
C616 C617 1.359 . S
C616 C618 1.364 . S
C617 C615 1.374 . S
C617 C616 1.359 . S
C617 H638 0.931 . S
C618 C614 1.389 . S
C618 C616 1.364 . S
C618 H639 0.931 . S
C619 O630 1.256 . S
C619 O631 1.257 1_455 S
O620 Gd600 2.377 . S
O620 C602 1.240 . S
O621 Gd601 2.395 1_655 S
O621 C602 1.240 . S
O622 Gd600 2.448 . S
O622 C603 1.249 . S
O623 Gd600 2.506 . S
O623 C603 1.252 . S
O624 Gd600 2.435 . S
O624 C610 1.272 . S
O625 Gd600 2.717 1_455 S
O625 Gd601 2.327 . S
O625 C610 1.249 1_455 S
O626 Gd601 2.377 . S
O626 C611 1.240 . S
O627 Gd600 2.395 1_455 S
O627 C611 1.240 . S
O628 Gd601 2.448 . S
O628 C612 1.249 . S
O629 Gd601 2.506 . S
O629 C612 1.252 . S
O630 Gd601 2.435 . S
O630 C619 1.256 . S
O631 Gd600 2.327 . S
O631 Gd601 2.717 1_655 S
O631 C619 1.257 1_655 S
H632 C605 0.930 . S
H633 C606 0.931 1_556 S
H634 C608 0.931 . S
H635 C609 0.931 . S
H636 C614 0.930 . S
H637 C615 0.931 . S
H638 C617 0.931 . S
H639 C618 0.931 . S
C640 C641 1.386 . S
C640 C646 1.379 . S
C640 N648 1.356 . S
C641 C640 1.386 . S
C641 C647 1.341 1_545 S
C642 C643 1.363 1_565 S
C642 C647 1.379 . S
C642 N649 1.356 . S
C643 C642 1.363 1_545 S
C643 C646 1.363 . S
N644 C646 1.356 . S
N644 H656 0.984 . S
N644 H657 0.985 . S
N645 C647 1.356 . S
N645 H650 0.984 . S
N645 H651 0.985 . S
C646 C640 1.379 . S
C646 C643 1.363 . S
C646 N644 1.356 . S
C647 C641 1.341 1_565 S
C647 C642 1.379 . S
C647 N645 1.356 . S
N648 C640 1.356 . S
N648 H654 0.984 . S
N648 H655 0.984 . S
N649 C642 1.356 . S
N649 H652 0.984 . S
N649 H653 0.985 . S
H650 N645 0.984 . S
H651 N645 0.985 . S
H652 N649 0.984 . S
H653 N649 0.985 . S
H654 N648 0.984 . S
H655 N648 0.984 . S
H656 N644 0.984 . S
H657 N644 0.985 . S
C658 C659 1.363 . S
C658 C664 1.379 . S
C658 N666 1.356 . S
C659 C658 1.363 . S
C659 C665 1.363 . S
C660 C661 1.363 . S
C660 C665 1.379 . S
C660 N667 1.356 . S
C661 C660 1.363 . S
C661 C664 1.363 . S
N662 C664 1.356 . S
N662 H674 0.984 . S
N662 H675 0.985 . S
N663 C665 1.356 . S
N663 H668 0.984 . S
N663 H669 0.985 . S
C664 C658 1.379 . S
C664 C661 1.363 . S
C664 N662 1.356 . S
C665 C659 1.363 . S
C665 C660 1.379 . S
C665 N663 1.356 . S
N666 C658 1.356 . S
N666 H672 0.984 . S
N666 H673 0.984 . S
N667 C660 1.356 . S
N667 H670 0.984 . S
N667 H671 0.985 . S
H668 N663 0.984 . S
H669 N663 0.985 . S
H670 N667 0.984 . S
H671 N667 0.985 . S
H672 N666 0.984 . S
H673 N666 0.984 . S
H674 N662 0.984 . S
H675 N662 0.985 . S
C676 C677 1.363 . S
C676 C682 1.379 . S
C676 N684 1.356 . S
C677 C676 1.363 . S
C677 C683 1.363 . S
C678 C679 1.363 . S
C678 C683 1.379 . S
C678 N685 1.356 . S
C679 C678 1.363 . S
C679 C682 1.363 . S
N680 C682 1.356 . S
N680 H692 0.984 . S
N680 H693 0.985 . S
N681 C683 1.356 . S
N681 H686 0.984 . S
N681 H687 0.985 . S
C682 C676 1.379 . S
C682 C679 1.363 . S
C682 N680 1.356 . S
C683 C677 1.363 . S
C683 C678 1.379 . S
C683 N681 1.356 . S
N684 C676 1.356 . S
N684 H690 0.984 . S
N684 H691 0.984 . S
N685 C678 1.356 . S
N685 H688 0.984 . S
N685 H689 0.985 . S
H686 N681 0.984 . S
H687 N681 0.985 . S
H688 N685 0.984 . S
H689 N685 0.985 . S
H690 N684 0.984 . S
H691 N684 0.984 . S
H692 N680 0.984 . S
H693 N680 0.985 . S
C694 C695 1.382 . S
C694 C700 1.379 . S
C694 N702 1.356 . S
C695 C694 1.382 . S
C695 C701 1.346 1_455 S
C696 C697 1.363 1_655 S
C696 C701 1.379 . S
C696 N703 1.356 . S
C697 C696 1.363 1_455 S
C697 C700 1.363 . S
N698 C700 1.356 . S
N698 H710 0.984 . S
N698 H711 0.985 . S
N699 C701 1.356 . S
N699 H704 0.984 . S
N699 H705 0.985 . S
C700 C694 1.379 . S
C700 C697 1.363 . S
C700 N698 1.356 . S
C701 C695 1.346 1_655 S
C701 C696 1.379 . S
C701 N699 1.356 . S
N702 C694 1.356 . S
N702 H708 0.984 . S
N702 H709 0.984 . S
N703 C696 1.356 . S
N703 H706 0.984 . S
N703 H707 0.985 . S
H704 N699 0.984 . S
H705 N699 0.985 . S
H706 N703 0.984 . S
H707 N703 0.985 . S
H708 N702 0.984 . S
H709 N702 0.984 . S
H710 N698 0.984 . S
H711 N698 0.985 . S
C712 C713 1.348 1_545 S
C712 C718 1.379 . S
C712 N720 1.356 . S
C713 C712 1.348 1_565 S
C713 C719 1.379 . S
C714 C715 1.363 . S
C714 C719 1.379 . S
C714 N721 1.356 1_554 S
C715 C714 1.363 . S
C715 C718 1.363 1_565 S
N716 C718 1.356 1_556 S
N716 H728 0.984 . S
N716 H729 0.985 . S
N717 C719 1.356 . S
N717 H722 0.984 . S
N717 H723 0.985 . S
C718 C712 1.379 . S
C718 C715 1.363 1_545 S
C718 N716 1.356 1_554 S
C719 C713 1.379 . S
C719 C714 1.379 . S
C719 N717 1.356 . S
N720 C712 1.356 . S
N720 H726 0.984 . S
N720 H727 0.984 . S
N721 C714 1.356 1_556 S
N721 H724 0.984 . S
N721 H725 0.985 1_556 S
H722 N717 0.984 . S
H723 N717 0.985 . S
H724 N721 0.984 . S
H725 N721 0.985 1_554 S
H726 N720 0.984 . S
H727 N720 0.984 . S
H728 N716 0.984 . S
H729 N716 0.985 . S
C730 C731 1.363 . S
C730 C736 1.379 . S
C730 N738 1.356 . S
C731 C730 1.363 . S
C731 C737 1.363 . S
C732 C733 1.363 . S
C732 C737 1.379 . S
C732 N739 1.356 1_554 S
C733 C732 1.363 . S
C733 C736 1.363 . S
N734 C736 1.356 1_556 S
N734 H746 0.984 1_556 S
N734 H747 0.985 . S
N735 C737 1.356 . S
N735 H740 0.984 . S
N735 H741 0.985 . S
C736 C730 1.379 . S
C736 C733 1.363 . S
C736 N734 1.356 1_554 S
C737 C731 1.363 . S
C737 C732 1.379 . S
C737 N735 1.356 . S
N738 C730 1.356 . S
N738 H744 0.984 . S
N738 H745 0.984 . S
N739 C732 1.356 1_556 S
N739 H742 0.984 . S
N739 H743 0.985 . S
H740 N735 0.984 . S
H741 N735 0.985 . S
H742 N739 0.984 . S
H743 N739 0.985 . S
H744 N738 0.984 . S
H745 N738 0.984 . S
H746 N734 0.984 1_554 S
H747 N734 0.985 . S
C748 C749 1.363 . S
C748 C754 1.379 . S
C748 N756 1.356 . S
C749 C748 1.363 . S
C749 C755 1.363 . S
C750 C751 1.363 . S
C750 C755 1.379 . S
C750 N757 1.356 1_554 S
C751 C750 1.363 . S
C751 C754 1.363 . S
N752 C754 1.356 1_556 S
N752 H764 0.984 1_556 S
N752 H765 0.985 . S
N753 C755 1.356 . S
N753 H758 0.984 . S
N753 H759 0.985 . S
C754 C748 1.379 . S
C754 C751 1.363 . S
C754 N752 1.356 1_554 S
C755 C749 1.363 . S
C755 C750 1.379 . S
C755 N753 1.356 . S
N756 C748 1.356 . S
N756 H762 0.984 . S
N756 H763 0.984 . S
N757 C750 1.356 1_556 S
N757 H760 0.984 . S
N757 H761 0.985 . S
H758 N753 0.984 . S
H759 N753 0.985 . S
H760 N757 0.984 . S
H761 N757 0.985 . S
H762 N756 0.984 . S
H763 N756 0.984 . S
H764 N752 0.984 1_554 S
H765 N752 0.985 . S
C766 C767 1.378 . S
C766 C772 1.379 . S
C766 N774 1.356 . S
C767 C766 1.378 . S
C767 C773 1.350 1_655 S
C768 C769 1.363 1_455 S
C768 C773 1.379 . S
C768 N775 1.356 1_554 S
C769 C768 1.363 1_655 S
C769 C772 1.363 . S
N770 C772 1.356 1_556 S
N770 H782 0.984 1_556 S
N770 H783 0.986 . S
N771 C773 1.356 . S
N771 H776 0.984 . S
N771 H777 0.985 . S
C772 C766 1.379 . S
C772 C769 1.363 . S
C772 N770 1.356 1_554 S
C773 C767 1.350 1_455 S
C773 C768 1.379 . S
C773 N771 1.356 . S
N774 C766 1.356 . S
N774 H780 0.984 . S
N774 H781 0.984 . S
N775 C768 1.356 1_556 S
N775 H778 0.984 . S
N775 H779 0.985 . S
H776 N771 0.984 . S
H777 N771 0.985 . S
H778 N775 0.984 . S
H779 N775 0.985 . S
H780 N774 0.984 . S
H781 N774 0.984 . S
H782 N770 0.984 1_554 S
H783 N770 0.986 . S
C784 C785 1.363 . S
C784 C790 1.379 . S
C784 N792 1.356 1_655 S
C785 C784 1.363 . S
C785 C791 1.363 . S
C786 C787 1.363 . S
C786 C791 1.379 . S
C786 N793 1.356 . S
C787 C786 1.363 . S
C787 C790 1.363 . S
N788 C790 1.356 . S
N788 H800 0.984 . S
N788 H801 0.985 . S
N789 C791 1.356 . S
N789 H794 0.984 1_655 S
N789 H795 0.985 . S
C790 C784 1.379 . S
C790 C787 1.363 . S
C790 N788 1.356 . S
C791 C785 1.363 . S
C791 C786 1.379 . S
C791 N789 1.356 . S
N792 C784 1.356 1_455 S
N792 H798 0.984 . S
N792 H799 0.984 . S
N793 C786 1.356 . S
N793 H796 0.984 . S
N793 H797 0.985 . S
H794 N789 0.984 1_455 S
H795 N789 0.985 . S
H796 N793 0.984 . S
H797 N793 0.985 . S
H798 N792 0.984 . S
H799 N792 0.984 . S
H800 N788 0.984 . S
H801 N788 0.985 . S
C802 C803 1.363 . S
C802 C808 1.379 . S
C802 N810 1.356 . S
C803 C802 1.363 . S
C803 C809 1.364 . S
C804 C805 1.363 . S
C804 C809 1.407 . S
C804 N811 1.356 . S
C805 C804 1.363 . S
C805 C808 1.363 . S
N806 C808 1.356 . S
N806 H818 0.984 . S
N806 H819 0.985 . S
N807 C809 1.323 1_545 S
N807 H812 0.984 . S
N807 H813 0.985 . S
C808 C802 1.379 . S
C808 C805 1.363 . S
C808 N806 1.356 . S
C809 C803 1.364 . S
C809 C804 1.407 . S
C809 N807 1.323 1_565 S
N810 C802 1.356 . S
N810 H816 0.984 . S
N810 H817 0.995 . S
N811 C804 1.356 . S
N811 H814 0.984 . S
N811 H815 0.985 . S
H812 N807 0.984 . S
H813 N807 0.985 . S
H814 N811 0.984 . S
H815 N811 0.985 . S
H816 N810 0.984 . S
H817 N810 0.995 . S
H818 N806 0.984 . S
H819 N806 0.985 . S
C820 C821 1.363 . S
C820 C826 1.379 . S
C820 N828 1.356 . S
C821 C820 1.363 . S
C821 C827 1.363 . S
C822 C823 1.363 . S
C822 C827 1.379 . S
C822 N829 1.356 . S
C823 C822 1.363 . S
C823 C826 1.363 . S
N824 C826 1.356 . S
N824 H836 0.984 . S
N824 H837 0.985 . S
N825 C827 1.356 . S
N825 H830 0.984 . S
N825 H831 0.985 . S
C826 C820 1.379 . S
C826 C823 1.363 . S
C826 N824 1.356 . S
C827 C821 1.363 . S
C827 C822 1.379 . S
C827 N825 1.356 . S
N828 C820 1.356 . S
N828 H834 0.984 . S
N828 H835 0.984 . S
N829 C822 1.356 . S
N829 H832 0.984 . S
N829 H833 0.985 . S
H830 N825 0.984 . S
H831 N825 0.985 . S
H832 N829 0.984 . S
H833 N829 0.985 . S
H834 N828 0.984 . S
H835 N828 0.984 . S
H836 N824 0.984 . S
H837 N824 0.985 . S
C838 C839 1.363 . S
C838 C844 1.379 . S
C838 N846 1.356 . S
C839 C838 1.363 . S
C839 C845 1.363 . S
C840 C841 1.363 . S
C840 C845 1.379 . S
C840 N847 1.356 . S
C841 C840 1.363 . S
C841 C844 1.363 . S
N842 C844 1.356 . S
N842 H854 0.984 . S
N842 H855 0.985 . S
N843 C845 1.356 . S
N843 H848 0.984 . S
N843 H849 0.985 . S
C844 C838 1.379 . S
C844 C841 1.363 . S
C844 N842 1.356 . S
C845 C839 1.363 . S
C845 C840 1.379 . S
C845 N843 1.356 . S
N846 C838 1.356 . S
N846 H852 0.984 . S
N846 H853 0.984 . S
N847 C840 1.356 . S
N847 H850 0.984 . S
N847 H851 0.985 . S
H848 N843 0.984 . S
H849 N843 0.985 . S
H850 N847 0.984 . S
H851 N847 0.985 . S
H852 N846 0.984 . S
H853 N846 0.984 . S
H854 N842 0.984 . S
H855 N842 0.985 . S
C856 C857 1.363 . S
C856 C862 1.379 . S
C856 N864 1.356 1_454 S
C857 C856 1.363 . S
C857 C863 1.363 . S
C858 C859 1.363 . S
C858 C863 1.379 . S
C858 N865 1.356 . S
C859 C858 1.363 . S
C859 C862 1.363 . S
N860 C862 1.356 1_556 S
N860 H872 0.984 . S
N860 H873 0.985 . S
N861 C863 1.356 . S
N861 H866 0.984 1_455 S
N861 H867 0.985 . S
C862 C856 1.379 . S
C862 C859 1.363 . S
C862 N860 1.356 1_554 S
C863 C857 1.363 . S
C863 C858 1.379 . S
C863 N861 1.356 . S
N864 C856 1.356 1_656 S
N864 H870 0.984 . S
N864 H871 0.984 1_556 S
N865 C858 1.356 . S
N865 H868 0.984 . S
N865 H869 0.985 . S
H866 N861 0.984 1_655 S
H867 N861 0.985 . S
H868 N865 0.984 . S
H869 N865 0.985 . S
H870 N864 0.984 . S
H871 N864 0.984 1_554 S
H872 N860 0.984 . S
H873 N860 0.985 . S
C874 C875 1.363 1_565 S
C874 C880 1.379 1_565 S
C874 N882 1.356 . S
C875 C874 1.363 1_545 S
C875 C881 1.363 . S
C876 C877 1.363 . S
C876 C881 1.379 . S
C876 N883 1.356 . S
C877 C876 1.363 . S
C877 C880 1.363 . S
N878 C880 1.356 1_556 S
N878 H890 0.984 . S
N878 H891 0.985 . S
N879 C881 1.356 . S
N879 H884 0.984 . S
N879 H885 0.985 . S
C880 C874 1.379 1_545 S
C880 C877 1.363 . S
C880 N878 1.356 1_554 S
C881 C875 1.363 . S
C881 C876 1.379 . S
C881 N879 1.356 . S
N882 C874 1.356 . S
N882 H888 0.984 1_554 S
N882 H889 0.984 . S
N883 C876 1.356 . S
N883 H886 0.984 . S
N883 H887 0.985 . S
H884 N879 0.984 . S
H885 N879 0.985 . S
H886 N883 0.984 . S
H887 N883 0.985 . S
H888 N882 0.984 1_556 S
H889 N882 0.984 . S
H890 N878 0.984 . S
H891 N878 0.985 . S
C892 C893 1.363 . S
C892 C898 1.379 . S
C892 N900 1.356 . S
C893 C892 1.363 . S
C893 C899 1.363 . S
C894 C895 1.363 . S
C894 C899 1.379 . S
C894 N901 1.356 . S
C895 C894 1.363 . S
C895 C898 1.363 . S
N896 C898 1.356 1_556 S
N896 H908 0.984 . S
N896 H909 0.985 . S
N897 C899 1.356 . S
N897 H902 0.984 . S
N897 H903 0.985 . S
C898 C892 1.379 . S
C898 C895 1.363 . S
C898 N896 1.356 1_554 S
C899 C893 1.363 . S
C899 C894 1.379 . S
C899 N897 1.356 . S
N900 C892 1.356 . S
N900 H906 0.984 1_554 S
N900 H907 0.984 . S
N901 C894 1.356 . S
N901 H904 0.984 . S
N901 H905 0.985 . S
H902 N897 0.984 . S
H903 N897 0.985 . S
H904 N901 0.984 . S
H905 N901 0.985 . S
H906 N900 0.984 1_556 S
H907 N900 0.984 . S
H908 N896 0.984 . S
H909 N896 0.985 . S
C910 C911 1.363 . S
C910 C916 1.379 . S
C910 N918 1.356 . S
C911 C910 1.363 . S
C911 C917 1.363 . S
C912 C913 1.363 . S
C912 C917 1.379 . S
C912 N919 1.356 1_554 S
C913 C912 1.363 . S
C913 C916 1.363 . S
N914 C916 1.356 . S
N914 H926 0.984 . S
N914 H927 0.985 . S
N915 C917 1.356 1_556 S
N915 H920 0.984 1_556 S
N915 H921 0.985 . S
C916 C910 1.379 . S
C916 C913 1.363 . S
C916 N914 1.356 . S
C917 C911 1.363 . S
C917 C912 1.379 . S
C917 N915 1.356 1_554 S
N918 C910 1.356 . S
N918 H924 0.984 . S
N918 H925 0.984 . S
N919 C912 1.356 1_556 S
N919 H922 0.984 . S
N919 H923 0.985 . S
H920 N915 0.984 1_554 S
H921 N915 0.985 . S
H922 N919 0.984 . S
H923 N919 0.985 . S
H924 N918 0.984 . S
H925 N918 0.984 . S
H926 N914 0.984 . S
H927 N914 0.985 . S
C928 C929 1.363 . S
C928 C934 1.379 . S
C928 N936 1.356 . S
C929 C928 1.363 . S
C929 C935 1.363 1_455 S
C930 C931 1.363 1_655 S
C930 C935 1.379 . S
C930 N937 1.356 . S
C931 C930 1.363 1_455 S
C931 C934 1.363 . S
N932 C934 1.356 . S
N932 H944 0.984 . S
N932 H945 0.985 . S
N933 C935 1.356 . S
N933 H938 0.984 . S
N933 H939 0.985 . S
C934 C928 1.379 . S
C934 C931 1.363 . S
C934 N932 1.356 . S
C935 C929 1.363 1_655 S
C935 C930 1.379 . S
C935 N933 1.356 . S
N936 C928 1.356 . S
N936 H942 0.984 . S
N936 H943 0.984 . S
N937 C930 1.356 . S
N937 H940 0.984 . S
N937 H941 0.985 . S
H938 N933 0.984 . S
H939 N933 0.985 . S
H940 N937 0.984 . S
H941 N937 0.985 . S
H942 N936 0.984 . S
H943 N936 0.984 . S
H944 N932 0.984 . S
H945 N932 0.985 . S
C946 C947 1.363 1_565 S
C946 C952 1.379 . S
C946 N954 1.356 . S
C947 C946 1.363 1_545 S
C947 C953 1.363 . S
C948 C949 1.363 . S
C948 C953 1.379 . S
C948 N955 1.356 . S
C949 C948 1.363 . S
C949 C952 1.363 1_545 S
N950 C952 1.356 . S
N950 H962 0.984 . S
N950 H963 0.985 . S
N951 C953 1.356 . S
N951 H956 0.984 . S
N951 H957 0.985 . S
C952 C946 1.379 . S
C952 C949 1.363 1_565 S
C952 N950 1.356 . S
C953 C947 1.363 . S
C953 C948 1.379 . S
C953 N951 1.356 . S
N954 C946 1.356 . S
N954 H960 0.984 . S
N954 H961 0.984 . S
N955 C948 1.356 . S
N955 H958 0.984 . S
N955 H959 0.985 . S
H956 N951 0.984 . S
H957 N951 0.985 . S
H958 N955 0.984 . S
H959 N955 0.985 . S
H960 N954 0.984 . S
H961 N954 0.984 . S
H962 N950 0.984 . S
H963 N950 0.985 . S
C964 C965 1.363 . S
C964 C970 1.379 . S
C964 N972 1.356 . S
C965 C964 1.363 . S
C965 C971 1.363 . S
C966 C967 1.363 . S
C966 C971 1.379 . S
C966 N973 1.356 . S
C967 C966 1.363 . S
C967 C970 1.363 . S
N968 C970 1.356 . S
N968 H980 0.984 . S
N968 H981 0.985 . S
N969 C971 1.356 . S
N969 H974 0.984 . S
N969 H975 0.985 . S
C970 C964 1.379 . S
C970 C967 1.363 . S
C970 N968 1.356 . S
C971 C965 1.363 . S
C971 C966 1.379 . S
C971 N969 1.356 . S
N972 C964 1.356 . S
N972 H978 0.984 . S
N972 H979 0.984 . S
N973 C966 1.356 . S
N973 H976 0.984 . S
N973 H977 0.985 . S
H974 N969 0.984 . S
H975 N969 0.985 . S
H976 N973 0.984 . S
H977 N973 0.985 . S
H978 N972 0.984 . S
H979 N972 0.984 . S
H980 N968 0.984 . S
H981 N968 0.985 . S
C982 C983 1.363 . S
C982 C988 1.379 . S
C982 N990 1.356 . S
C983 C982 1.363 . S
C983 C989 1.363 . S
C984 C985 1.363 . S
C984 C989 1.379 . S
C984 N991 1.356 . S
C985 C984 1.363 . S
C985 C988 1.363 . S
N986 C988 1.356 . S
N986 H998 0.984 . S
N986 H999 0.985 . S
N987 C989 1.356 . S
N987 H992 0.984 . S
N987 H993 0.985 . S
C988 C982 1.379 . S
C988 C985 1.363 . S
C988 N986 1.356 . S
C989 C983 1.363 . S
C989 C984 1.379 . S
C989 N987 1.356 . S
N990 C982 1.356 . S
N990 H996 0.984 . S
N990 H997 0.984 . S
N991 C984 1.356 . S
N991 H994 0.984 . S
N991 H995 0.985 . S
H992 N987 0.984 . S
H993 N987 0.985 . S
H994 N991 0.984 . S
H995 N991 0.985 . S
H996 N990 0.984 . S
H997 N990 0.984 . S
H998 N986 0.984 . S
H999 N986 0.985 . S
C1000 C1001 1.363 1_455 S
C1000 C1006 1.379 . S
C1000 N1008 1.356 . S
C1001 C1000 1.363 1_655 S
C1001 C1007 1.363 . S
C1002 C1003 1.363 . S
C1002 C1007 1.379 . S
C1002 N1009 1.356 . S
C1003 C1002 1.363 . S
C1003 C1006 1.363 1_655 S
N1004 C1006 1.356 . S
N1004 H1016 0.984 . S
N1004 H1017 0.985 . S
N1005 C1007 1.356 . S
N1005 H1010 0.984 . S
N1005 H1011 0.985 . S
C1006 C1000 1.379 . S
C1006 C1003 1.363 1_455 S
C1006 N1004 1.356 . S
C1007 C1001 1.363 . S
C1007 C1002 1.379 . S
C1007 N1005 1.356 . S
N1008 C1000 1.356 . S
N1008 H1014 0.984 . S
N1008 H1015 0.984 . S
N1009 C1002 1.356 . S
N1009 H1012 0.984 . S
N1009 H1013 0.985 . S
H1010 N1005 0.984 . S
H1011 N1005 0.985 . S
H1012 N1009 0.984 . S
H1013 N1009 0.985 . S
H1014 N1008 0.984 . S
H1015 N1008 0.984 . S
H1016 N1004 0.984 . S
H1017 N1004 0.985 . S
C1018 C1019 1.363 . S
C1018 C1024 1.379 . S
C1018 N1026 1.356 . S
C1019 C1018 1.363 . S
C1019 C1025 1.363 1_565 S
C1020 C1021 1.363 1_545 S
C1020 C1025 1.379 . S
C1020 N1027 1.356 . S
C1021 C1020 1.363 1_565 S
C1021 C1024 1.363 . S
N1022 C1024 1.356 . S
N1022 H1034 0.984 . S
N1022 H1035 0.985 . S
N1023 C1025 1.356 . S
N1023 H1028 0.984 . S
N1023 H1029 0.985 . S
C1024 C1018 1.379 . S
C1024 C1021 1.363 . S
C1024 N1022 1.356 . S
C1025 C1019 1.363 1_545 S
C1025 C1020 1.379 . S
C1025 N1023 1.356 . S
N1026 C1018 1.356 . S
N1026 H1032 0.984 . S
N1026 H1033 0.984 . S
N1027 C1020 1.356 . S
N1027 H1030 0.984 . S
N1027 H1031 0.985 . S
H1028 N1023 0.984 . S
H1029 N1023 0.985 . S
H1030 N1027 0.984 . S
H1031 N1027 0.985 . S
H1032 N1026 0.984 . S
H1033 N1026 0.984 . S
H1034 N1022 0.984 . S
H1035 N1022 0.985 . S
C1036 C1037 1.363 . S
C1036 C1042 1.379 . S
C1036 N1044 1.356 . S
C1037 C1036 1.363 . S
C1037 C1043 1.363 . S
C1038 C1039 1.363 . S
C1038 C1043 1.379 . S
C1038 N1045 1.356 . S
C1039 C1038 1.363 . S
C1039 C1042 1.363 . S
N1040 C1042 1.356 . S
N1040 H1052 0.984 . S
N1040 H1053 0.985 . S
N1041 C1043 1.356 . S
N1041 H1046 0.984 . S
N1041 H1047 0.985 . S
C1042 C1036 1.379 . S
C1042 C1039 1.363 . S
C1042 N1040 1.356 . S
C1043 C1037 1.363 . S
C1043 C1038 1.379 . S
C1043 N1041 1.356 . S
N1044 C1036 1.356 . S
N1044 H1050 0.984 . S
N1044 H1051 0.984 . S
N1045 C1038 1.356 . S
N1045 H1048 0.984 . S
N1045 H1049 0.985 . S
H1046 N1041 0.984 . S
H1047 N1041 0.985 . S
H1048 N1045 0.984 . S
H1049 N1045 0.985 . S
H1050 N1044 0.984 . S
H1051 N1044 0.984 . S
H1052 N1040 0.984 . S
H1053 N1040 0.985 . S
C1054 C1055 1.363 . S
C1054 C1060 1.379 . S
C1054 N1062 1.356 . S
C1055 C1054 1.363 . S
C1055 C1061 1.363 . S
C1056 C1057 1.363 . S
C1056 C1061 1.379 . S
C1056 N1063 1.356 . S
C1057 C1056 1.363 . S
C1057 C1060 1.363 . S
N1058 C1060 1.356 . S
N1058 H1070 0.984 . S
N1058 H1071 0.985 . S
N1059 C1061 1.356 . S
N1059 H1064 0.984 . S
N1059 H1065 0.985 . S
C1060 C1054 1.379 . S
C1060 C1057 1.363 . S
C1060 N1058 1.356 . S
C1061 C1055 1.363 . S
C1061 C1056 1.379 . S
C1061 N1059 1.356 . S
N1062 C1054 1.356 . S
N1062 H1068 0.984 . S
N1062 H1069 0.984 . S
N1063 C1056 1.356 . S
N1063 H1066 0.984 . S
N1063 H1067 0.985 . S
H1064 N1059 0.984 . S
H1065 N1059 0.985 . S
H1066 N1063 0.984 . S
H1067 N1063 0.985 . S
H1068 N1062 0.984 . S
H1069 N1062 0.984 . S
H1070 N1058 0.984 . S
H1071 N1058 0.985 . S
C641 C391 2.682 . S
C643 C490 2.854 1_545 S
C661 C530 2.860 . S
C659 C451 2.682 . S
C679 C570 2.862 . S
C677 C241 2.328 . S
C697 C610 2.855 1_455 S
C695 C331 2.315 1_455 S
C715 C499 2.855 1_564 S
C713 C121 2.315 . S
C731 C211 2.693 . S
C733 C539 2.861 1_554 S
C749 C31 2.695 . S
C751 C579 2.861 1_554 S
C767 C91 2.316 . S
C769 C619 2.857 1_654 S
C787 C496 0.803 . S
C785 C301 0.785 . S
C805 C536 0.802 . S
C803 C380 0.830 1_565 S
C823 C576 0.792 . S
C821 C440 0.816 . S
C839 C260 0.780 . S
C841 C616 0.789 . S
C857 C61 0.813 1_455 S
C859 C487 0.805 . S
C877 C527 0.802 . S
C875 C140 0.814 1_545 S
C895 C567 0.792 . S
C893 C200 0.796 . S
C911 C20 0.797 . S
C913 C607 0.797 . S
C929 C320 3.405 1_455 S
C931 C491 3.726 . S
C947 C361 2.940 . S
C949 C531 3.720 . S
C967 C571 3.718 . S
C965 C421 2.935 . S
C985 C611 3.728 . S
C983 C271 3.399 . S
C1001 C80 3.383 . S
C1003 C482 3.734 . S
C1021 C522 3.720 . S
C1019 C151 3.372 . S
C1039 C562 3.717 . S
C1037 C181 2.964 . S
C1055 C1 2.975 . S
C1057 C602 3.732 . S
