# Generated by pormake.
# Topology pyr, (3,6)-cn, num edge types: 1
# Building blocks:
#     Node 0, Type 0, BuildingBlock: PAMTOO_clean_linker_0, # of connection points: 3
#     Node 1, Type 0, BuildingBlock: PAMTOO_clean_linker_0, # of connection points: 3
#     Node 2, Type 0, BuildingBlock: PAMTOO_clean_linker_0, # of connection points: 3
#     Node 3, Type 0, BuildingBlock: PAMTOO_clean_linker_0, # of connection points: 3
#     Node 4, Type 0, BuildingBlock: PAMTOO_clean_linker_0, # of connection points: 3
#     Node 5, Type 0, BuildingBlock: PAMTOO_clean_linker_0, # of connection points: 3
#     Node 6, Type 0, BuildingBlock: PAMTOO_clean_linker_0, # of connection points: 3
#     Node 7, Type 0, BuildingBlock: PAMTOO_clean_linker_0, # of connection points: 3
#     Node 8, Type 1, BuildingBlock: BETGAK_clean_sbu_0, # of connection points: 6
#     Node 9, Type 1, BuildingBlock: BETGAK_clean_sbu_0, # of connection points: 6
#     Node 10, Type 1, BuildingBlock: BETGAK_clean_sbu_0, # of connection points: 6
#     Node 11, Type 1, BuildingBlock: BETGAK_clean_sbu_0, # of connection points: 6
#     Edge 12, Type (0, 1), BuildingBlock: TEMPAE_clean_linker_10, # of connection points: 2
#     Edge 13, Type (0, 1), BuildingBlock: TEMPAE_clean_linker_10, # of connection points: 2
#     Edge 14, Type (0, 1), BuildingBlock: TEMPAE_clean_linker_10, # of connection points: 2
#     Edge 15, Type (0, 1), BuildingBlock: TEMPAE_clean_linker_10, # of connection points: 2
#     Edge 16, Type (0, 1), BuildingBlock: TEMPAE_clean_linker_10, # of connection points: 2
#     Edge 17, Type (0, 1), BuildingBlock: TEMPAE_clean_linker_10, # of connection points: 2
#     Edge 18, Type (0, 1), BuildingBlock: TEMPAE_clean_linker_10, # of connection points: 2
#     Edge 19, Type (0, 1), BuildingBlock: TEMPAE_clean_linker_10, # of connection points: 2
#     Edge 20, Type (0, 1), BuildingBlock: TEMPAE_clean_linker_10, # of connection points: 2
#     Edge 21, Type (0, 1), BuildingBlock: TEMPAE_clean_linker_10, # of connection points: 2
#     Edge 22, Type (0, 1), BuildingBlock: TEMPAE_clean_linker_10, # of connection points: 2
#     Edge 23, Type (0, 1), BuildingBlock: TEMPAE_clean_linker_10, # of connection points: 2
#     Edge 24, Type (0, 1), BuildingBlock: TEMPAE_clean_linker_10, # of connection points: 2
#     Edge 25, Type (0, 1), BuildingBlock: TEMPAE_clean_linker_10, # of connection points: 2
#     Edge 26, Type (0, 1), BuildingBlock: TEMPAE_clean_linker_10, # of connection points: 2
#     Edge 27, Type (0, 1), BuildingBlock: TEMPAE_clean_linker_10, # of connection points: 2
#     Edge 28, Type (0, 1), BuildingBlock: TEMPAE_clean_linker_10, # of connection points: 2
#     Edge 29, Type (0, 1), BuildingBlock: TEMPAE_clean_linker_10, # of connection points: 2
#     Edge 30, Type (0, 1), BuildingBlock: TEMPAE_clean_linker_10, # of connection points: 2
#     Edge 31, Type (0, 1), BuildingBlock: TEMPAE_clean_linker_10, # of connection points: 2
#     Edge 32, Type (0, 1), BuildingBlock: TEMPAE_clean_linker_10, # of connection points: 2
#     Edge 33, Type (0, 1), BuildingBlock: TEMPAE_clean_linker_10, # of connection points: 2
#     Edge 34, Type (0, 1), BuildingBlock: TEMPAE_clean_linker_10, # of connection points: 2
#     Edge 35, Type (0, 1), BuildingBlock: TEMPAE_clean_linker_10, # of connection points: 2
# Relax obj value: 0.178
# Max RMSD: 0.226
# Mean RMSD: 0.149
data_MOF--net-pyr--node1-BETGAK_clean_sbu_0--node2-PAMTOO_clean_linker_0--edge1-TEMPAE_clean_linker_10
_symmetry_space_group_name_H-M    P1
_symmetry_Int_Tables_number       1
_symmetry_cell_setting            triclinic
loop_
_symmetry_equiv_pos_as_xyz
'x, y, z'
_cell_length_a     37.473493
_cell_length_b     40.842004
_cell_length_c     36.570955
_cell_angle_alpha  91.783792
_cell_angle_beta   89.336047
_cell_angle_gamma 105.87195
loop_
_atom_site_label
_atom_site_type_symbol
_atom_site_fract_x
_atom_site_fract_y
_atom_site_fract_z
_atom_type_partial_charge
H0 H 0.33093 0.33847 0.27571 0.0
H1 H 0.39095 0.26273 0.27686 0.0
H2 H 0.41152 0.33547 0.1916 0.0
H3 H 0.46824 0.29228 0.25702 0.0
C4 C 0.46497 0.2886 0.22681 0.0
O5 O 0.42825 0.28231 0.21707 0.0
H6 H 0.48146 0.31233 0.21393 0.0
C7 C 0.35279 0.32829 0.26465 0.0
C8 C 0.37097 0.34124 0.2322 0.0
C9 C 0.35972 0.30006 0.281 0.0
C10 C 0.38586 0.28507 0.2651 0.0
C11 C 0.40497 0.29831 0.23337 0.0
C12 C 0.39756 0.32629 0.21691 0.0
H13 H 0.30509 0.93086 0.67867 0.0
H14 H 0.24705 0.86446 0.59227 0.0
H15 H 0.33056 0.83592 0.65274 0.0
H16 H 0.30403 0.83942 0.55278 0.0
C17 C 0.29766 0.8149 0.56734 0.0
O18 O 0.28087 0.81763 0.60065 0.0
H19 H 0.2779 0.79581 0.54977 0.0
C20 C 0.30114 0.90781 0.66189 0.0
C21 C 0.32181 0.88466 0.66901 0.0
C22 C 0.27422 0.90091 0.63428 0.0
C23 C 0.2676 0.87026 0.61385 0.0
C24 C 0.28794 0.84708 0.62051 0.0
C25 C 0.31502 0.85418 0.64795 0.0
H26 H 0.74826 0.35089 0.94975 0.0
H27 H 0.67006 0.33033 0.86015 0.0
H28 H 0.75675 0.42385 0.86585 0.0
H29 H 0.68336 0.43144 0.84935 0.0
C30 C 0.67275 0.40888 0.83071 0.0
O31 O 0.69792 0.3894 0.82938 0.0
H32 H 0.64624 0.39343 0.84258 0.0
C33 C 0.73797 0.35787 0.92449 0.0
C34 C 0.75676 0.38941 0.90966 0.0
C35 C 0.70682 0.33538 0.90704 0.0
C36 C 0.69357 0.34656 0.87473 0.0
C37 C 0.71107 0.37873 0.86029 0.0
C38 C 0.74299 0.39952 0.87745 0.0
H39 H 0.88167 0.76049 0.44825 0.0
H40 H 0.8869 0.6747 0.37887 0.0
H41 H 0.97802 0.76469 0.38125 0.0
H42 H 0.96417 0.73731 0.3058 0.0
C43 C 0.94673 0.71122 0.31146 0.0
O44 O 0.95009 0.70489 0.34826 0.0
H45 H 0.91736 0.71043 0.30577 0.0
C46 C 0.89692 0.7482 0.42968 0.0
C47 C 0.93286 0.76662 0.41848 0.0
C48 C 0.88005 0.71446 0.4171 0.0
C49 C 0.89861 0.70039 0.38943 0.0
C50 C 0.93315 0.71897 0.37549 0.0
C51 C 0.95057 0.75155 0.39083 0.0
H52 H 0.73429 0.85527 0.85971 0.0
H53 H 0.6915 0.81296 0.96355 0.0
H54 H 0.78265 0.78552 0.91283 0.0
H55 H 0.70495 0.73149 0.94223 0.0
C56 C 0.72364 0.74033 0.96616 0.0
O57 O 0.73668 0.7754 0.96809 0.0
H58 H 0.7068 0.73162 0.991 0.0
C59 C 0.73414 0.8386 0.88219 0.0
C60 C 0.7611 0.82055 0.88276 0.0
C61 C 0.70912 0.83716 0.91164 0.0
C62 C 0.70946 0.81448 0.93993 0.0
C63 C 0.73525 0.79537 0.93972 0.0
C64 C 0.76155 0.79907 0.91173 0.0
H65 H 0.83556 0.18242 0.45245 0.0
H66 H 0.814 0.28088 0.46116 0.0
H67 H 0.88568 0.25398 0.53833 0.0
H68 H 0.85548 0.32399 0.56967 0.0
C69 C 0.83682 0.30417 0.5519 0.0
O70 O 0.85531 0.3008 0.51977 0.0
H71 H 0.83022 0.28028 0.56762 0.0
C72 C 0.8396 0.20709 0.46615 0.0
C73 C 0.86243 0.21522 0.4971 0.0
C74 C 0.82242 0.23077 0.45248 0.0
C75 C 0.82719 0.26234 0.47105 0.0
C76 C 0.85023 0.27053 0.50182 0.0
C77 C 0.8682 0.2473 0.51431 0.0
H78 H 0.38711 0.76382 0.16698 0.0
H79 H 0.38097 0.68957 0.24949 0.0
H80 H 0.46996 0.78173 0.25193 0.0
H81 H 0.49105 0.71882 0.27035 0.0
C82 C 0.4652 0.7046 0.28439 0.0
O83 O 0.44032 0.72432 0.2853 0.0
H84 H 0.45331 0.68081 0.26793 0.0
C85 C 0.39882 0.75557 0.19079 0.0
C86 C 0.43113 0.77719 0.20711 0.0
C87 C 0.38041 0.72388 0.20562 0.0
C88 C 0.39467 0.71379 0.23763 0.0
C89 C 0.42702 0.7345 0.25425 0.0
C90 C 0.44499 0.76609 0.23898 0.0
H91 H 0.14035 0.35514 0.79793 0.0
H92 H 0.22433 0.45107 0.78753 0.0
H93 H 0.2234 0.36899 0.71237 0.0
H94 H 0.29607 0.40792 0.74907 0.0
C95 C 0.29359 0.43366 0.74251 0.0
O96 O 0.25772 0.43128 0.73137 0.0
H97 H 0.29959 0.44966 0.76804 0.0
C98 C 0.16421 0.37099 0.78399 0.0
C99 C 0.17983 0.3571 0.75351 0.0
C100 C 0.18032 0.40497 0.7973 0.0
C101 C 0.21181 0.42488 0.77885 0.0
C102 C 0.22742 0.41165 0.74877 0.0
C103 C 0.2113 0.37822 0.73623 0.0
La104 La 0.06574 0.07889 0.54929 0.0
La105 La 0.05912 1.04346 0.62106 0.0
C106 C 0.06245 0.11626 0.49673 0.0
C107 C 0.08988 0.14516 0.48097 0.0
C108 C 0.11972 0.16455 0.50207 0.0
C109 C 0.1496 0.18747 0.48532 0.0
C110 C 0.15032 0.19104 0.44715 0.0
C111 C 0.11942 0.17273 0.42648 0.0
C112 C 0.08946 0.15002 0.44329 0.0
C113 C 0.12512 0.06056 0.56813 0.0
C114 C 0.0875 0.12294 0.62445 0.0
C115 C 0.05998 1.00428 0.67265 0.0
C116 C 0.03053 0.97554 0.6859 0.0
C117 C 0.99455 0.96957 0.67187 0.0
C118 C 0.96506 0.94563 0.68768 0.0
C119 C 0.97122 0.92699 0.71739 0.0
C120 C 1.00758 0.93143 0.72996 0.0
C121 C 0.03714 0.95582 0.71438 0.0
C122 C 0.99936 0.06076 0.60038 0.0
C123 C 0.03787 0.99965 0.54615 0.0
O124 O 0.07107 0.08742 0.49313 0.0
O125 O 0.0503 0.12093 0.52969 0.0
O126 O 0.1158 0.06342 0.53475 0.0
O127 O 0.10402 0.07144 0.58909 0.0
O128 O 0.0756 0.12176 0.59017 0.0
O129 O 0.08985 0.09475 0.64022 0.0
O130 O 0.05302 1.03382 0.677 0.0
O131 O 0.07267 1.00019 0.63987 0.0
O132 O 1.00825 0.05914 0.63414 0.0
O133 O 1.0214 1.05006 0.58085 0.0
O134 O 0.05159 1.00106 0.57968 0.0
O135 O 0.03365 1.0276 0.53138 0.0
H136 H 0.12074 0.16085 0.53121 0.0
H137 H 0.17269 0.20154 0.50208 0.0
H138 H 0.11922 0.17446 0.397 0.0
H139 H 0.06689 0.13488 0.42656 0.0
H140 H 0.98905 0.98452 0.64971 0.0
H141 H 0.93721 0.94253 0.67761 0.0
H142 H 1.01278 0.91744 0.75307 0.0
H143 H 0.0648 0.96017 0.72544 0.0
La144 La 0.60823 0.0657 0.07752 0.0
La145 La 0.53681 1.04791 1.04259 0.0
C146 C 0.66765 0.09672 0.10964 0.0
C147 C 0.67733 0.11385 0.14582 0.0
C148 C 0.69727 0.1001 0.17054 0.0
C149 C 0.70622 0.11519 0.20519 0.0
C150 C 0.69571 0.1446 0.21582 0.0
C151 C 0.67609 0.15868 0.19099 0.0
C152 C 0.66682 0.14336 0.15631 0.0
C153 C 0.56554 1.00527 0.09649 0.0
C154 C 0.54249 0.09196 0.11278 0.0
C155 C 0.47666 1.01861 1.0107 0.0
C156 C 0.46497 1.00002 0.97579 0.0
C157 C 0.43842 1.00924 0.95485 0.0
C158 C 0.42667 0.99251 0.92153 0.0
C159 C 0.44091 0.96581 0.90851 0.0
C160 C 0.4679 0.95677 0.92939 0.0
C161 C 0.4799 0.97379 0.96276 0.0
C162 C 0.58031 0.10833 1.02444 0.0
C163 C 0.60235 1.0206 1.00848 0.0
O164 O 0.65345 0.06377 0.1099 0.0
O165 O 0.65059 0.11102 0.08654 0.0
O166 O 0.60102 1.01281 0.09159 0.0
O167 O 0.55491 1.03187 0.0926 0.0
O168 O 0.57856 0.09623 0.10951 0.0
O169 O 0.51892 0.06918 0.09219 0.0
O170 O 0.49343 1.05097 1.00822 0.0
O171 O 0.49235 1.00401 1.03474 0.0
O172 O 0.54514 0.10173 1.03085 0.0
O173 O 0.59013 0.08125 1.02718 0.0
O174 O 0.5662 1.01631 1.01135 0.0
O175 O 0.62587 1.04406 1.02836 0.0
H176 H 0.70593 0.07755 0.16305 0.0
H177 H 0.72196 0.10414 0.22349 0.0
H178 H 0.66765 0.18132 0.1985 0.0
H179 H 0.65139 0.1546 0.13787 0.0
H180 H 0.42683 1.02961 0.96423 0.0
H181 H 0.4066 1.00079 0.90579 0.0
H182 H 0.47936 0.93628 0.92025 0.0
H183 H 0.50069 0.96636 0.97832 0.0
La184 La 0.57039 0.53498 0.5342 0.0
La185 La 0.57995 0.59308 0.5848 0.0
C186 C 0.58002 0.48706 0.49355 0.0
C187 C 0.59768 0.45961 0.49848 0.0
C188 C 0.58625 0.42927 0.47749 0.0
C189 C 0.60319 0.40311 0.48217 0.0
C190 C 0.63129 0.40694 0.50835 0.0
C191 C 0.64238 0.43728 0.52946 0.0
C192 C 0.62592 0.46346 0.52437 0.0
C193 C 0.51006 0.53469 0.57282 0.0
C194 C 0.60423 0.53187 0.61448 0.0
C195 C 0.57029 0.64122 0.62498 0.0
C196 C 0.55261 0.66869 0.61988 0.0
C197 C 0.55528 0.68521 0.58645 0.0
C198 C 0.53451 0.70821 0.58061 0.0
C199 C 0.51041 0.71475 0.60791 0.0
C200 C 0.50897 0.6991 0.64183 0.0
C201 C 0.52995 0.67631 0.64774 0.0
C202 C 0.64032 0.5928 0.54612 0.0
C203 C 0.54514 0.59564 0.50486 0.0
O204 O 0.54996 0.48502 0.5128 0.0
O205 O 0.60234 0.51794 0.4944 0.0
O206 O 0.51007 0.52528 0.53864 0.0
O207 O 0.54309 0.54302 0.58418 0.0
O208 O 0.60062 0.52003 0.58007 0.0
O209 O 0.59425 0.55959 0.62391 0.0
O210 O 0.60076 0.64282 0.60647 0.0
O211 O 0.54763 0.61053 0.62402 0.0
O212 O 0.64021 0.602 0.58035 0.0
O213 O 0.60731 0.58522 0.53476 0.0
O214 O 0.54911 0.60785 0.53916 0.0
O215 O 0.55532 0.56807 0.49547 0.0
H216 H 0.56448 0.42594 0.45734 0.0
H217 H 0.59441 0.37998 0.46545 0.0
H218 H 0.66459 0.44117 0.54921 0.0
H219 H 0.63572 0.4869 0.54032 0.0
H220 H 0.57253 0.67962 0.56446 0.0
H221 H 0.53665 0.72024 0.55441 0.0
H222 H 0.49032 0.70319 0.66325 0.0
H223 H 0.52735 0.66359 0.6736 0.0
La224 La 0.06877 0.5228 0.08134 0.0
La225 La 0.06544 0.58776 1.04229 0.0
C226 C 0.08625 0.47284 0.10691 0.0
C227 C 0.12074 0.46435 0.11609 0.0
C228 C 0.12322 0.4503 0.15008 0.0
C229 C 0.1553 0.44166 0.15973 0.0
C230 C 0.18553 0.44657 0.13539 0.0
C231 C 0.18328 0.46132 0.10151 0.0
C232 C 0.15116 0.47022 0.09195 0.0
C233 C 0.03412 0.56275 0.1174 0.0
C234 C 0.13888 0.58928 0.08432 0.0
C235 C 0.04713 0.64149 1.03164 0.0
C236 C 1.01995 0.65161 1.00923 0.0
C237 C 1.01565 0.68441 1.01422 0.0
C238 C 0.98534 0.69267 0.99901 0.0
C239 C 0.95868 0.66814 0.9786 0.0
C240 C 0.9643 0.63576 0.97196 0.0
C241 C 0.99471 0.62754 0.98722 0.0
C242 C 0.08933 0.54599 0.99551 0.0
C243 C 0.99909 0.5194 1.03269 0.0
O244 O 0.07853 0.49694 0.12724 0.0
O245 O 0.0795 0.47542 0.07222 0.0
O246 O 0.02408 0.52972 0.11743 0.0
O247 O 0.06311 0.57205 0.09798 0.0
O248 O 0.12607 0.55576 0.08777 0.0
O249 O 0.1188 0.60749 0.06941 0.0
O250 O 0.075 0.63388 1.01468 0.0
O251 O 0.03238 0.6197 0.05682 0.0
O252 O 0.08505 0.57541 0.98733 0.0
O253 O 0.08038 0.54231 1.0288 0.0
O254 O 1.01012 0.55315 1.03172 0.0
O255 O 1.01947 0.50156 0.04787 0.0
H256 H 0.10023 0.44594 0.16924 0.0
H257 H 0.15638 0.4311 0.18636 0.0
H258 H 0.20598 0.46528 0.08208 0.0
H259 H 0.15003 0.48137 0.06565 0.0
H260 H 0.03465 0.70313 1.03153 0.0
H261 H 0.98167 0.71765 1.00515 0.0
H262 H 0.94452 0.61641 0.95605 0.0
H263 H 0.99756 0.60198 0.98327 0.0
C264 C 0.32922 0.30421 0.34146 0.0
C265 C 0.33598 0.28412 0.31181 0.0
C266 C 0.30203 0.29056 0.36767 0.0
C267 C 0.28082 0.2562 0.36369 0.0
C268 C 0.28887 0.23537 0.33483 0.0
C269 C 0.31655 0.24957 0.3093 0.0
C270 C 0.29476 0.31335 0.39851 0.0
C271 C 0.26672 0.19865 0.32954 0.0
C272 C 0.21945 0.20938 0.43942 0.0
C273 C 0.18428 0.21123 0.42843 0.0
C274 C 0.25144 0.22512 0.4195 0.0
C275 C 0.2481 0.24273 0.38759 0.0
C276 C 0.21291 0.24577 0.37711 0.0
C277 C 0.18147 0.23016 0.39779 0.0
C278 C 0.28857 0.2217 0.43175 0.0
C279 C 0.20824 0.26437 0.3432 0.0
H280 H 0.34445 0.33091 0.34347 0.0
H281 H 0.32146 0.23412 0.28615 0.0
H282 H 0.26762 0.31862 0.39423 0.0
H283 H 0.29319 0.30055 0.42503 0.0
H284 H 0.31656 0.33802 0.40034 0.0
H285 H 0.2783 0.18526 0.30745 0.0
H286 H 0.26588 0.18477 0.35526 0.0
H287 H 0.23767 0.1975 0.32245 0.0
H288 H 0.2219 0.19445 0.46277 0.0
H289 H 0.1545 0.2322 0.3895 0.0
H290 H 0.30944 0.24691 0.43245 0.0
H291 H 0.2986 0.2051 0.41191 0.0
H292 H 0.28705 0.21056 0.45924 0.0
H293 H 0.22673 0.29072 0.34442 0.0
H294 H 0.17922 0.26556 0.33964 0.0
H295 H 0.21635 0.25135 0.31868 0.0
C296 C 0.35007 0.86657 0.72425 0.0
C297 C 0.34869 0.89203 0.69982 0.0
C298 C 0.37022 0.87472 0.75701 0.0
C299 C 0.38881 0.90915 0.76571 0.0
C300 C 0.38998 0.93444 0.73979 0.0
C301 C 0.37025 0.9255 0.70702 0.0
C302 C 0.3693 0.84686 0.78343 0.0
C303 C 0.40947 0.97147 0.74791 0.0
C304 C 0.38976 0.9412 0.86395 0.0
C305 C 0.42733 0.94781 0.87322 0.0
C306 C 0.37681 0.92765 0.82944 0.0
C307 C 0.40185 0.91966 0.80365 0.0
C308 C 0.43938 0.92428 0.81348 0.0
C309 C 0.45179 0.9386 0.84809 0.0
C310 C 0.33655 0.92322 0.82009 0.0
C311 C 0.46671 0.91536 0.78702 0.0
H312 H 0.33364 0.8406 0.71892 0.0
H313 H 0.37026 0.94513 0.68773 0.0
H314 H 0.39703 0.85018 0.79577 0.0
H315 H 0.34963 0.84809 0.806 0.0
H316 H 0.36022 0.82119 0.76994 0.0
H317 H 0.41109 0.98735 0.7235 0.0
H318 H 0.39422 0.98146 0.76983 0.0
H319 H 0.43798 0.97433 0.75798 0.0
H320 H 0.37043 0.94727 0.88354 0.0
H321 H 0.48089 0.94364 0.85493 0.0
H322 H 0.32329 0.89651 0.8111 0.0
H323 H 0.33465 0.9397 0.79703 0.0
H324 H 0.32052 0.92982 0.84358 0.0
H325 H 0.45448 0.89015 0.77346 0.0
H326 H 0.49284 0.9149 0.80078 0.0
H327 H 0.47364 0.93447 0.76532 0.0
C328 C 0.69415 0.44526 0.77476 0.0
C329 C 0.66582 0.42177 0.79329 0.0
C330 C 0.68657 0.46177 0.74346 0.0
C331 C 0.64964 0.45501 0.73031 0.0
C332 C 0.62123 0.43031 0.74815 0.0
C333 C 0.62962 0.41412 0.77921 0.0
C334 C 0.71789 0.4876 0.7254 0.0
C335 C 0.58148 0.4221 0.73549 0.0
C336 C 0.61945 0.52428 0.68033 0.0
C337 C 0.61775 0.51283 0.64354 0.0
C338 C 0.63032 0.5061 0.70841 0.0
C339 C 0.64006 0.47549 0.69996 0.0
C340 C 0.6391 0.46407 0.66279 0.0
C341 C 0.62788 0.4827 0.63521 0.0
C342 C 0.63068 0.51943 0.74742 0.0
C343 C 0.64936 0.43181 0.65218 0.0
H344 H 0.72208 0.45167 0.78563 0.0
H345 H 0.6074 0.39632 0.79343 0.0
H346 H 0.71773 0.48244 0.69543 0.0
H347 H 0.71407 0.51343 0.72984 0.0
H348 H 0.74541 0.48759 0.73639 0.0
H349 H 0.56307 0.40063 0.75044 0.0
H350 H 0.57095 0.44483 0.73973 0.0
H351 H 0.5797 0.41551 0.70579 0.0
H352 H 0.61175 0.54739 0.68744 0.0
H353 H 0.62668 0.47336 0.6071 0.0
H354 H 0.65852 0.52301 0.75957 0.0
H355 H 0.6106 0.50059 0.76408 0.0
H356 H 0.62342 0.54403 0.74951 0.0
H357 H 0.67711 0.43276 0.66315 0.0
H358 H 0.64969 0.42751 0.62204 0.0
H359 H 0.62918 0.40966 0.66434 0.0
C360 C 0.94179 0.67906 0.25049 0.0
C361 C 0.95866 0.68621 0.28507 0.0
C362 C 0.95425 0.65935 0.22341 0.0
C363 C 0.98475 0.64626 0.23057 0.0
C364 C 1.00204 0.65338 0.26545 0.0
C365 C 0.98912 0.67351 0.29203 0.0
C366 C 0.93501 0.65297 0.18678 0.0
C367 C 0.03448 0.63997 0.27456 0.0
C368 C 0.99362 0.56967 0.17097 0.0
C369 C 1.02123 0.58462 0.14551 0.0
C370 C 0.98209 0.58921 0.19892 0.0
C371 C 0.99808 0.62495 0.20162 0.0
C372 C 0.02581 0.64027 0.17578 0.0
C373 C 0.03719 0.61999 0.14833 0.0
C374 C 0.95269 0.57149 0.22569 0.0
C375 C 0.04342 0.6782 0.17704 0.0
H376 H 0.91895 0.6895 0.24433 0.0
H377 H 1.00312 0.67961 0.31813 0.0
H378 H 0.95519 0.66314 0.16471 0.0
H379 H 0.92389 0.62519 0.18126 0.0
H380 H 0.9118 0.66495 0.18535 0.0
H381 H 0.04438 0.6469 0.30302 0.0
H382 H 0.02657 0.61182 0.27103 0.0
H383 H 0.05778 0.65024 0.25545 0.0
H384 H 0.98116 0.54239 0.1693 0.0
H385 H 0.05871 0.63185 0.12909 0.0
H386 H 0.92805 0.58142 0.22371 0.0
H387 H 0.96331 0.57689 0.25406 0.0
H388 H 0.94378 0.54347 0.22074 0.0
H389 H 1.02178 0.69182 0.17405 0.0
H390 H 0.06452 0.68632 0.15516 0.0
H391 H 0.05686 0.68619 0.20396 0.0
C392 C 0.49485 0.25834 0.1797 0.0
C393 C 0.47846 0.25867 0.21424 0.0
C394 C 0.50496 0.22953 0.1664 0.0
C395 C 0.49807 0.20027 0.18807 0.0
C396 C 0.48155 0.20052 0.22305 0.0
C397 C 0.47172 0.22972 0.23564 0.0
C398 C 0.52246 0.23023 0.12891 0.0
C399 C 0.47378 0.16983 0.24688 0.0
C400 C 0.49267 0.11835 0.1339 0.0
C401 C 0.52907 0.11581 0.137 0.0
C402 C 0.48163 0.14487 0.15185 0.0
C403 C 0.50758 0.16929 0.17352 0.0
C404 C 0.54362 0.16557 0.17864 0.0
C405 C 0.55394 0.1389 0.16027 0.0
C406 C 0.44286 0.14789 0.14587 0.0
C407 C 0.57199 0.19084 0.20181 0.0
H408 H 0.49935 0.28054 0.16292 0.0
H409 H 0.45833 0.22986 0.26207 0.0
H410 H 0.54976 0.22471 0.13086 0.0
H411 H 0.50469 0.21013 0.11085 0.0
H412 H 0.52658 0.25519 0.11586 0.0
H413 H 0.46197 0.17457 0.27389 0.0
H414 H 0.45398 0.14789 0.23292 0.0
H415 H 0.4997 0.16239 0.2514 0.0
H416 H 0.47326 0.10062 0.116 0.0
H417 H 0.58204 0.13696 0.16312 0.0
H418 H 0.44418 0.17056 0.12941 0.0
H419 H 0.42961 0.15156 0.17239 0.0
H420 H 0.42499 0.1251 0.13133 0.0
H421 H 0.5809 0.21545 0.18774 0.0
H422 H 0.59693 0.18192 0.20686 0.0
H423 H 0.5598 0.19571 0.22853 0.0
C424 C 0.2715 0.96053 0.62474 0.0
C425 C 0.25309 0.92577 0.6268 0.0
C426 C 0.25209 0.98427 0.6167 0.0
C427 C 0.21338 0.97291 0.61063 0.0
C428 C 0.19452 0.93794 0.61325 0.0
C429 C 0.21465 0.91476 0.62127 0.0
C430 C 0.27309 1.02136 0.61391 0.0
C431 C 0.15318 0.92497 0.60708 0.0
C432 C 0.15539 1.03584 0.61635 0.0
C433 C 0.15015 1.0406 0.57927 0.0
C434 C 0.17637 1.01416 0.62709 0.0
C435 C 0.19277 0.99735 0.6 0.0
C436 C 0.18856 1.00306 0.56252 0.0
C437 C 0.16719 1.02462 0.5526 0.0
C438 C 0.18012 1.0085 0.66731 0.0
C439 C 0.2058 0.98571 0.53288 0.0
H440 H 0.30129 0.96907 0.62863 0.0
H441 H 0.20027 0.88796 0.62335 0.0
H442 H 0.27104 1.02981 0.58565 0.0
H443 H 0.26063 1.03725 0.63246 0.0
H444 H 0.3029 1.02621 0.6209 0.0
H445 H 0.14251 0.8972 0.6115 0.0
H446 H 0.13826 0.93864 0.6258 0.0
H447 H 0.14645 0.93007 0.57872 0.0
H448 H 0.14235 1.04842 0.63696 0.0
H449 H 0.16317 1.02839 0.52389 0.0
H450 H 0.20984 1.01426 0.6748 0.0
H451 H 0.16712 0.98135 0.67327 0.0
H452 H 0.16679 1.02449 0.6849 0.0
H453 H 0.23607 0.99094 0.53752 0.0
H454 H 0.20134 0.99417 0.50513 0.0
H455 H 0.19372 0.95772 0.53373 0.0
C456 C 0.79314 0.41662 0.9657 0.0
C457 C 0.7914 0.41114 0.92755 0.0
C458 C 0.82618 0.43517 0.98312 0.0
C459 C 0.85867 0.44842 0.96208 0.0
C460 C 0.85695 0.44343 0.9235 0.0
C461 C 0.8234 0.42508 0.90675 0.0
C462 C 0.82643 0.44023 1.02419 0.0
C463 C 0.89084 0.45678 0.89994 0.0
C464 C 0.9384 0.51926 1.00333 0.0
C465 C 0.96282 0.50112 1.01534 0.0
C466 C 0.90451 0.50255 0.9862 0.0
C467 C 0.89461 0.46669 0.9805 0.0
C468 C 0.91912 0.44824 0.99252 0.0
C469 C 0.9527 0.46558 1.00986 0.0
C470 C 0.87927 0.52334 0.97423 0.0
C471 C 0.90999 0.41009 0.98679 0.0
H472 H 0.76852 0.40634 0.98202 0.0
H473 H 0.82252 0.42073 0.87734 0.0
H474 H 0.84612 0.42779 1.03643 0.0
H475 H 0.83613 0.46777 1.03164 0.0
H476 H 0.79858 0.42958 1.03651 0.0
H477 H 0.88481 0.45158 0.87033 0.0
H478 H 0.9021 0.48465 0.90465 0.0
H479 H 0.91285 0.44482 0.90759 0.0
H480 H 0.94568 0.54669 1.0074 0.0
H481 H 0.97127 0.45121 1.01874 0.0
H482 H 0.85188 0.51444 0.98791 0.0
H483 H 0.8744 0.51976 0.94432 0.0
H484 H 0.89088 0.55097 0.98063 0.0
H485 H 0.88351 0.39772 1.00075 0.0
H486 H 0.93202 0.39944 0.99734 0.0
H487 H 0.90612 0.40333 0.9572 0.0
C488 C 0.83397 0.70153 0.4699 0.0
C489 C 0.84374 0.6942 0.43379 0.0
C490 C 0.79998 0.68399 0.48579 0.0
C491 C 0.77533 0.6568 0.46621 0.0
C492 C 0.78526 0.64823 0.43035 0.0
C493 C 0.81875 0.66735 0.41437 0.0
C494 C 0.79041 0.69481 0.5237 0.0
C495 C 0.76059 0.61865 0.40889 0.0
C496 C 0.70574 0.59604 0.5276 0.0
C497 C 0.67334 0.60613 0.52254 0.0
C498 C 0.73844 0.61085 0.50782 0.0
C499 C 0.73934 0.63755 0.48356 0.0
C500 C 0.70637 0.64751 0.47816 0.0
C501 C 0.67366 0.63128 0.49721 0.0
C502 C 0.77229 0.59839 0.51354 0.0
C503 C 0.70611 0.67658 0.45377 0.0
H504 H 0.853 0.72098 0.48633 0.0
H505 H 0.82502 0.66118 0.38647 0.0
H506 H 0.76269 0.69969 0.5236 0.0
H507 H 0.78902 0.67411 0.54301 0.0
H508 H 0.81104 0.71817 0.53414 0.0
H509 H 0.77332 0.61363 0.38246 0.0
H510 H 0.75458 0.59529 0.4252 0.0
H511 H 0.73366 0.6238 0.40319 0.0
H512 H 0.70554 0.57663 0.54722 0.0
H513 H 0.64875 0.63945 0.49364 0.0
H514 H 0.79366 0.61818 0.52867 0.0
H515 H 0.78454 0.59362 0.48679 0.0
H516 H 0.76577 0.57463 0.52928 0.0
H517 H 0.72512 0.70047 0.46509 0.0
H518 H 0.67798 0.68032 0.45123 0.0
H519 H 0.71641 0.67207 0.42606 0.0
C520 C 0.34804 0.3609 0.17519 0.0
C521 C 0.35758 0.3667 0.21226 0.0
C522 C 0.32595 0.37892 0.15854 0.0
C523 C 0.31293 0.40299 0.17961 0.0
C524 C 0.32579 0.41147 0.21585 0.0
C525 C 0.34817 0.39333 0.23168 0.0
C526 C 0.31346 0.36961 0.11958 0.0
C527 C 0.31273 0.43705 0.23929 0.0
C528 C 0.25469 0.45518 0.13741 0.0
C529 C 0.21862 0.43531 0.14521 0.0
C530 C 0.28589 0.44483 0.14776 0.0
C531 C 0.28078 0.4141 0.16657 0.0
C532 C 0.24444 0.39379 0.17402 0.0
C533 C 0.21391 0.4045 0.163 0.0
C534 C 0.32423 0.46691 0.13906 0.0
C535 C 0.23768 0.36083 0.1941 0.0
H536 H 0.35515 0.34035 0.15997 0.0
H537 H 0.35611 0.39833 0.26016 0.0
H538 H 0.28469 0.35273 0.11958 0.0
H539 H 0.31336 0.39264 0.10432 0.0
H540 H 0.33149 0.35597 0.10488 0.0
H541 H 0.32995 0.44496 0.26424 0.0
H542 H 0.31325 0.46002 0.22368 0.0
H543 H 0.28362 0.42552 0.24793 0.0
H544 H 0.25857 0.47914 0.12387 0.0
H545 H 0.18617 0.38859 0.16835 0.0
H546 H 0.34039 0.45169 0.12407 0.0
H547 H 0.3393 0.47667 0.1648 0.0
H548 H 0.32344 0.48895 0.12233 0.0
H549 H 0.25045 0.34299 0.17883 0.0
H550 H 0.20767 0.34812 0.19783 0.0
H551 H 0.25089 0.36578 0.22146 0.0
C552 C 0.65121 0.28347 0.9167 0.0
C553 C 0.6889 0.30058 0.92271 0.0
C554 C 0.63444 0.25138 0.93182 0.0
C555 C 0.6551 0.23614 0.95498 0.0
C556 C 0.69294 0.25311 0.9613 0.0
C557 C 0.70946 0.28427 0.94444 0.0
C558 C 0.59436 0.23384 0.92313 0.0
C559 C 0.71601 0.23867 0.98659 0.0
C560 C 0.59968 0.17193 1.02323 0.0
C561 C 0.60217 0.14067 1.00802 0.0
C562 C 0.61752 0.20303 1.00688 0.0
C563 C 0.63703 0.20302 0.97337 0.0
C564 C 0.63934 0.17134 0.95775 0.0
C565 C 0.62256 0.14066 0.97563 0.0
C566 C 0.61548 0.23593 1.0256 0.0
C567 C 0.65845 0.16973 0.92146 0.0
H568 H 0.63433 0.29521 0.90056 0.0
H569 H 0.73881 0.29568 0.94854 0.0
H570 H 0.59137 0.20713 0.91371 0.0
H571 H 0.57718 0.23302 0.94815 0.0
H572 H 0.58321 0.247 0.9017 0.0
H573 H 0.74448 0.25576 0.99032 0.0
H574 H 0.70239 0.23433 1.0138 0.0
H575 H 0.71816 0.21366 0.97564 0.0
H576 H 0.58385 0.17203 0.04823 0.0
H577 H 0.62398 0.11652 0.96341 0.0
H578 H 0.60007 0.24916 1.00824 0.0
H579 H 0.64383 0.25316 1.02946 0.0
H580 H 0.6015 0.23177 0.05269 0.0
H581 H 0.64534 0.18143 0.90024 0.0
H582 H 0.6571 0.14319 0.91247 0.0
H583 H 0.68798 0.18456 0.92322 0.0
C584 C 0.94236 0.80858 0.47286 0.0
C585 C 0.9513 0.80108 0.43651 0.0
C586 C 0.95716 0.84092 0.48973 0.0
C587 C 0.98325 0.86664 0.47081 0.0
C588 C 0.99382 0.85905 0.43479 0.0
C589 C 0.97742 0.82678 0.41796 0.0
C590 C 0.94429 0.84767 0.52781 0.0
C591 C 1.02241 0.88515 0.41388 0.0
C592 C 0.99494 0.95981 0.50149 0.0
C593 C 0.02473 0.96603 0.52607 0.0
C594 C 0.98137 0.92783 0.48331 0.0
C595 C 0.99871 0.90148 0.48867 0.0
C596 C 0.02961 0.90806 0.51263 0.0
C597 C 0.04175 0.93989 0.53146 0.0
C598 C 0.94769 0.92193 0.45915 0.0
C599 C 0.04989 0.88142 0.51845 0.0
H600 H 0.9236 0.7891 0.48858 0.0
H601 H 0.98482 0.82203 0.38999 0.0
H602 H 0.96807 0.85373 0.54698 0.0
H603 H 0.93297 0.87011 0.52795 0.0
H604 H 0.92258 0.8256 0.53828 0.0
H605 H 0.03007 0.87457 0.38752 0.0
H606 H 1.01153 0.90713 0.4081 0.0
H607 H 0.04784 0.89499 0.4306 0.0
H608 H 0.98145 0.97971 0.49727 0.0
H609 H 0.06504 0.94452 0.55007 0.0
H610 H 0.92507 0.90067 0.46972 0.0
H611 H 0.9543 0.91439 0.43104 0.0
H612 H 0.93735 0.94489 0.45773 0.0
H613 H 0.03142 0.85941 0.53245 0.0
H614 H 0.07532 0.89142 0.53519 0.0
H615 H 0.05778 0.8718 0.4917 0.0
C616 C 0.36694 0.82374 0.56329 0.0
C617 C 0.33182 0.80321 0.57288 0.0
C618 C 0.39879 0.81265 0.56834 0.0
C619 C 0.39522 0.78049 0.58362 0.0
C620 C 0.35979 0.75996 0.59387 0.0
C621 C 0.32847 0.77155 0.58821 0.0
C622 C 0.43611 0.83507 0.5569 0.0
C623 C 0.35492 0.72564 0.61057 0.0
C624 C 0.46555 0.73063 0.56661 0.0
C625 C 0.4844 0.73528 0.6001 0.0
C626 C 0.43777 0.74671 0.56015 0.0
C627 C 0.42822 0.76757 0.58808 0.0
C628 C 0.44811 0.77354 0.62139 0.0
C629 C 0.47611 0.7574 0.62696 0.0
C630 C 0.41735 0.73993 0.52413 0.0
C631 C 0.43864 0.79563 0.65181 0.0
H632 H 0.36942 0.84835 0.55163 0.0
H633 H 0.3012 0.7559 0.59575 0.0
H634 H 0.45545 0.84033 0.58044 0.0
H635 H 0.44837 0.82171 0.53536 0.0
H636 H 0.43421 0.8597 0.54622 0.0
H637 H 0.32559 0.71335 0.61804 0.0
H638 H 0.36443 0.70847 0.591 0.0
H639 H 0.37222 0.72842 0.6355 0.0
H640 H 0.47126 0.71311 0.54598 0.0
H641 H 0.49094 0.76146 0.6527 0.0
H642 H 0.41578 0.76417 0.51229 0.0
H643 H 0.38849 0.72425 0.52868 0.0
H644 H 0.43083 0.72625 0.5039 0.0
H645 H 0.43782 0.82059 0.64127 0.0
H646 H 0.45883 0.80013 0.67467 0.0
H647 H 0.41062 0.7832 0.66274 0.0
C648 C 0.78454 0.8263 0.81824 0.0
C649 C 0.79176 0.82783 0.85583 0.0
C650 C 0.81353 0.8373 0.79298 0.0
C651 C 0.85025 0.85101 0.80588 0.0
C652 C 0.85778 0.85116 0.84374 0.0
C653 C 0.82842 0.83925 0.86823 0.0
C654 C 0.80462 0.83587 0.75273 0.0
C655 C 0.89638 0.86621 0.85871 0.0
C656 C 0.93493 0.87178 0.74358 0.0
C657 C 0.9393 0.90642 0.73802 0.0
C658 C 0.90502 0.85282 0.76438 0.0
C659 C 0.8799 0.86933 0.78074 0.0
C660 C 0.88428 0.90432 0.77491 0.0
C661 C 0.91371 0.92232 0.75326 0.0
C662 C 0.90056 0.81536 0.76926 0.0
C663 C 0.85865 0.9231 0.79253 0.0
H664 H 0.75614 0.81719 0.80873 0.0
H665 H 0.83391 0.84071 0.89737 0.0
H666 H 0.80686 0.86194 0.74338 0.0
H667 H 0.82476 0.82583 0.73655 0.0
H668 H 0.77613 0.8197 0.74677 0.0
H669 H 0.89808 0.86164 0.88835 0.0
H670 H 0.91665 0.8554 0.84379 0.0
H671 H 0.90484 0.89411 0.8547 0.0
H672 H 0.95478 0.85961 0.73157 0.0
H673 H 0.91747 0.94924 0.74913 0.0
H674 H 0.87187 0.80046 0.76222 0.0
H675 H 0.90514 0.81067 0.79831 0.0
H676 H 0.92036 0.80574 0.75204 0.0
H677 H 0.82956 0.91083 0.78428 0.0
H678 H 0.86584 0.95028 0.785 0.0
H679 H 0.85995 0.9219 0.82275 0.0
C680 C 0.81599 0.20924 0.38777 0.0
C681 C 0.80089 0.22264 0.41805 0.0
C682 C 0.7957 0.19945 0.35547 0.0
C683 C 0.75924 0.20298 0.35335 0.0
C684 C 0.74414 0.21742 0.38347 0.0
C685 C 0.76527 0.22725 0.41552 0.0
C686 C 0.81306 0.18455 0.32387 0.0
C687 C 0.70533 0.22146 0.38227 0.0
C688 C 0.72377 0.19589 0.25591 0.0
C689 C 0.70655 0.16086 0.25238 0.0
C690 C 0.73901 0.2106 0.28946 0.0
C691 C 0.73676 0.18974 0.3201 0.0
C692 C 0.71709 0.15483 0.31725 0.0
C693 C 0.70234 0.1408 0.28339 0.0
C694 C 0.75971 0.24792 0.29139 0.0
C695 C 0.71365 0.13178 0.34935 0.0
H696 H 0.84379 0.20624 0.38947 0.0
H697 H 0.75354 0.23756 0.43897 0.0
H698 H 0.797 0.15773 0.31834 0.0
H699 H 0.81226 0.19881 0.29871 0.0
H700 H 0.84233 0.1851 0.32932 0.0
H701 H 0.69905 0.2361 0.40646 0.0
H702 H 0.70136 0.23452 0.35712 0.0
H703 H 0.68499 0.19596 0.3814 0.0
H704 H 0.72714 0.21148 0.23198 0.0
H705 H 0.68843 0.11381 0.28088 0.0
H706 H 0.78994 0.25064 0.29292 0.0
H707 H 0.75182 0.2604 0.31639 0.0
H708 H 0.75439 0.26154 0.26709 0.0
H709 H 0.74116 0.12792 0.35534 0.0
H710 H 0.69371 0.10646 0.34398 0.0
H711 H 0.70454 0.14362 0.37418 0.0
C712 C 0.51093 0.70427 0.33526 0.0
C713 C 0.4742 0.69464 0.32247 0.0
C714 C 0.52111 0.69069 0.36731 0.0
C715 C 0.49403 0.66671 0.3874 0.0
C716 C 0.45653 0.65827 0.37566 0.0
C717 C 0.44712 0.67217 0.34336 0.0
C718 C 0.5613 0.7009 0.37877 0.0
C719 C 0.42655 0.63337 0.39639 0.0
C720 C 0.52799 0.60093 0.43926 0.0
C721 C 0.53061 0.61368 0.47561 0.0
C722 C 0.51575 0.61766 0.4108 0.0
C723 C 0.50565 0.6482 0.41835 0.0
C724 C 0.50792 0.6612 0.45501 0.0
C725 C 0.52016 0.64377 0.48313 0.0
C726 C 0.51419 0.60277 0.37233 0.0
C727 C 0.49717 0.69339 0.46474 0.0
H728 H 0.53213 0.72151 0.31935 0.0
H729 H 0.41875 0.66444 0.3336 0.0
H730 H 0.56376 0.70943 0.40796 0.0
H731 H 0.57271 0.67856 0.37601 0.0
H732 H 0.57852 0.72166 0.36202 0.0
H733 H 0.39842 0.63156 0.38571 0.0
H734 H 0.43132 0.60773 0.39439 0.0
H735 H 0.42752 0.64105 0.42581 0.0
H736 H 0.53587 0.57779 0.43277 0.0
H737 H 0.52174 0.65392 0.51097 0.0
H738 H 0.53304 0.62123 0.35429 0.0
H739 H 0.48572 0.59792 0.36125 0.0
H740 H 0.52228 0.57855 0.37095 0.0
H741 H 0.50774 0.71313 0.44414 0.0
H742 H 0.50783 0.70403 0.49202 0.0
H743 H 0.46647 0.68769 0.46518 0.0
C744 C 0.18946 0.4426 0.85496 0.0
C745 C 0.16514 0.42044 0.83018 0.0
C746 C 0.17643 0.46042 0.88355 0.0
C747 C 0.13782 0.45613 0.88831 0.0
C748 C 0.11295 0.43264 0.86452 0.0
C749 C 0.1268 0.41518 0.83591 0.0
C750 C 0.20427 0.48491 0.90794 0.0
C751 C 0.0716 0.42684 0.86846 0.0
C752 C 0.10486 0.49019 0.97878 0.0
C753 C 0.10114 0.52204 0.96889 0.0
C754 C 0.11609 0.46823 0.95298 0.0
C755 C 0.12396 0.4782 0.91616 0.0
C756 C 0.12003 0.51031 0.90615 0.0
C757 C 0.10873 0.53159 0.93239 0.0
C758 C 0.11974 0.43438 0.96522 0.0
C759 C 0.12823 0.52252 0.86761 0.0
H760 H 0.21909 0.44647 0.85172 0.0
H761 H 0.10753 0.39836 0.81717 0.0
H762 H 0.20273 0.51128 0.90379 0.0
H763 H 0.19771 0.47923 0.93711 0.0
H764 H 0.23316 0.48388 0.90236 0.0
H765 H 0.05578 0.40562 0.85034 0.0
H766 H 0.06293 0.42113 0.89721 0.0
H767 H 0.06407 0.45036 0.86156 0.0
H768 H 0.09917 0.48244 1.00668 0.0
H769 H 0.10599 0.55606 0.9242 0.0
H770 H 0.14874 0.43312 0.96131 0.0
H771 H 0.10182 0.41346 0.94819 0.0
H772 H 0.11199 0.42993 0.99443 0.0
H773 H 0.15764 0.52448 0.86068 0.0
H774 H 0.12313 0.54775 0.86383 0.0
H775 H 0.11079 0.50388 0.84791 0.0
C776 C 0.6996 0.8951 0.9015 0.0
C777 C 0.68639 0.86217 0.91539 0.0
C778 C 0.68198 0.92061 0.90989 0.0
C779 C 0.65144 0.91375 0.93422 0.0
C780 C 0.63643 0.88024 0.94654 0.0
C781 C 0.65351 0.85471 0.93623 0.0
C782 C 0.69795 0.95567 0.89492 0.0
C783 C 0.60435 0.87193 0.97319 0.0
C784 C 0.64752 0.98671 0.99922 0.0
C785 C 0.61637 0.99568 0.98677 0.0
C786 C 0.65889 0.95998 0.9824 0.0
C787 C 0.63943 0.9425 0.95145 0.0
C788 C 0.60876 0.95232 0.93779 0.0
C789 C 0.59709 0.97842 0.95613 0.0
C790 C 0.69108 0.94977 0.99856 0.0
C791 C 0.58829 0.93523 0.90401 0.0
H792 H 0.72503 0.90192 0.88573 0.0
H793 H 0.64194 0.82924 0.94606 0.0
H794 H 0.67551 0.96699 0.88698 0.0
H795 H 0.71482 0.97263 0.91632 0.0
H796 H 0.71604 0.95508 0.87076 0.0
H797 H 0.59322 0.84408 0.97683 0.0
H798 H 0.61378 0.88418 1.00022 0.0
H799 H 0.58155 0.88217 0.96403 0.0
H800 H 0.66208 0.99959 1.02332 0.0
H801 H 0.57292 0.98533 0.94654 0.0
H802 H 0.71392 0.95307 0.97828 0.0
H803 H 0.68228 0.92245 1.00548 0.0
H804 H 0.70213 0.96501 1.02367 0.0
H805 H 0.60802 0.93703 0.8808 0.0
H806 H 0.56599 0.94679 0.8961 0.0
H807 H 0.57571 0.90778 0.90864 0.0
C808 C 0.859 0.15695 0.51839 0.0
C809 C 0.88012 0.19027 0.51182 0.0
C810 C 0.87522 0.13351 0.53386 0.0
C811 C 0.91345 0.1437 0.5425 0.0
C812 C 0.93497 0.17723 0.53553 0.0
C813 C 0.91796 0.20018 0.52041 0.0
C814 C 0.85151 0.09798 0.54111 0.0
C815 C 0.97599 0.1888 0.54387 0.0
C816 C 0.95627 0.09717 0.61013 0.0
C817 C 0.97353 0.07865 0.58643 0.0
C818 C 0.93507 0.11743 0.59623 0.0
C819 C 0.9315 0.11916 0.55786 0.0
C820 C 0.94762 0.09929 0.53398 0.0
C821 C 0.96825 0.07906 0.54863 0.0
C822 C 0.9179 0.1381 0.62245 0.0
C823 C 0.94474 0.1007 0.49292 0.0
H824 H 0.82962 0.14946 0.51209 0.0
H825 H 0.93431 0.2259 0.51499 0.0
H826 H 0.86244 0.07902 0.52557 0.0
H827 H 0.85263 0.09259 0.57056 0.0
H828 H 0.82207 0.09429 0.53332 0.0
H829 H 0.98868 0.21578 0.53686 0.0
H830 H 0.98064 0.18593 0.57336 0.0
H831 H 0.99065 0.17259 0.52832 0.0
H832 H 0.96029 0.09669 0.6394 0.0
H833 H 0.98139 0.06446 0.5303 0.0
H834 H 0.88816 0.13416 0.61591 0.0
H835 H 0.93191 0.16559 0.61956 0.0
H836 H 0.92025 0.13142 0.65138 0.0
H837 H 0.91535 0.09612 0.48466 0.0
H838 H 0.95648 0.08171 0.47834 0.0
H839 H 0.95994 0.12645 0.48382 0.0
C840 C 0.31417 0.68706 0.20834 0.0
C841 C 0.34608 0.70164 0.18768 0.0
C842 C 0.28116 0.66755 0.19148 0.0
C843 C 0.27996 0.66184 0.15297 0.0
C844 C 0.31244 0.67573 0.13212 0.0
C845 C 0.34485 0.69562 0.14961 0.0
C846 C 0.2472 0.65381 0.21483 0.0
C847 C 0.31283 0.66992 0.09118 0.0
C848 C 0.20043 0.58977 0.11264 0.0
C849 C 0.17592 0.60761 0.10022 0.0
C850 C 0.23451 0.60698 0.12934 0.0
C851 C 0.2443 0.64295 0.13434 0.0
C852 C 0.21973 0.66104 0.12171 0.0
C853 C 0.18618 0.64328 0.10469 0.0
C854 C 0.25996 0.58662 0.14183 0.0
C855 C 0.2286 0.69926 0.12672 0.0
H856 H 0.31468 0.69176 0.23769 0.0
H857 H 0.36945 0.7064 0.13343 0.0
H858 H 0.2248 0.66507 0.20662 0.0
H859 H 0.23666 0.62583 0.21053 0.0
H860 H 0.25285 0.65952 0.24444 0.0
H861 H 0.34082 0.68056 0.07916 0.0
H862 H 0.30344 0.64226 0.08426 0.0
H863 H 0.29319 0.68197 0.07819 0.0
H864 H 0.19298 0.56227 0.10941 0.0
H865 H 0.16754 0.65748 0.09557 0.0
H866 H 0.26386 0.58988 0.17187 0.0
H867 H 0.2877 0.59614 0.12899 0.0
H868 H 0.24902 0.55901 0.13492 0.0
H869 H 0.23208 0.70646 0.15624 0.0
H870 H 0.20659 0.70961 0.11558 0.0
H871 H 0.25519 0.71156 0.11293 0.0
C872 C 0.34365 0.43036 0.69625 0.0
C873 C 0.32208 0.44951 0.7136 0.0
C874 C 0.37309 0.44555 0.67262 0.0
C875 C 0.38124 0.48084 0.66584 0.0
C876 C 0.35876 0.50008 0.68238 0.0
C877 C 0.32955 0.48422 0.70608 0.0
C878 C 0.39615 0.42394 0.6557 0.0
C879 C 0.36613 0.53763 0.67574 0.0
C880 C 0.48047 0.52433 0.63505 0.0
C881 C 0.47676 0.52408 0.5969 0.0
C882 C 0.44955 0.51111 0.65782 0.0
C883 C 0.41386 0.49754 0.6422 0.0
C884 C 0.40983 0.49841 0.60376 0.0
C885 C 0.44126 0.51151 0.58163 0.0
C886 C 0.45533 0.51066 0.69855 0.0
C887 C 0.37242 0.48463 0.58585 0.0
H888 H 0.33812 0.40355 0.70197 0.0
H889 H 0.31306 0.49914 0.71953 0.0
H890 H 0.39642 0.42567 0.62549 0.0
H891 H 0.42529 0.43359 0.66514 0.0
H892 H 0.38565 0.39674 0.66284 0.0
H893 H 0.34499 0.54862 0.68895 0.0
H894 H 0.39384 0.55149 0.6866 0.0
H895 H 0.36652 0.54207 0.64595 0.0
H896 H 0.50777 0.53396 0.6471 0.0
H897 H 0.43812 0.51133 0.55219 0.0
H898 H 0.44831 0.48394 0.70754 0.0
H899 H 0.43655 0.52334 0.71338 0.0
H900 H 0.48439 0.52355 0.70664 0.0
H901 H 0.36228 0.45679 0.58982 0.0
H902 H 0.37341 0.4893 0.55605 0.0
H903 H 0.35189 0.49645 0.59885 0.0
C904 C 0.77819 0.72754 0.9957 0.0
C905 C 0.75625 0.72551 0.96457 0.0
C906 C 0.81056 0.71663 0.99435 0.0
C907 C 0.82121 0.70337 0.96098 0.0
C908 C 0.79894 0.70099 0.92946 0.0
C909 C 0.76676 0.71232 0.93159 0.0
C910 C 0.83372 0.71989 1.02849 0.0
C911 C 0.80938 0.68698 0.89346 0.0
C912 C 0.92353 0.70776 0.95603 0.0
C913 C 0.92348 0.67541 0.96792 0.0
C914 C 0.89025 0.71669 0.95174 0.0
C915 C 0.85607 0.69261 0.95935 0.0
C916 C 0.85569 0.65923 0.96901 0.0
C917 C 0.88939 0.65106 0.97331 0.0
C918 C 0.89182 0.75251 0.94116 0.0
C919 C 0.81981 0.63273 0.977 0.0
H920 H 0.77025 0.73827 1.02099 0.0
H921 H 0.75006 0.71133 0.90736 0.0
H922 H 0.83688 0.69462 1.03559 0.0
H923 H 0.86194 0.7368 1.02354 0.0
H924 H 0.82135 0.73042 0.0523 0.0
H925 H 0.78828 0.68553 0.87194 0.0
H926 H 0.8364 0.70332 0.88386 0.0
H927 H 0.81282 0.66113 0.89702 0.0
H928 H 0.94973 0.72652 0.95118 0.0
H929 H 0.88899 0.6261 0.98285 0.0
H930 H 0.8834 0.76633 0.96488 0.0
H931 H 0.87212 0.75215 0.91865 0.0
H932 H 0.92008 0.76696 0.93239 0.0
H933 H 0.80774 0.63979 1.00293 0.0
H934 H 0.8239 0.60697 0.9797 0.0
H935 H 0.79931 0.63161 0.95503 0.0
C936 C 0.45098 0.81539 0.15276 0.0
C937 C 0.44984 0.81127 0.19089 0.0
C938 C 0.46768 0.84715 0.13713 0.0
C939 C 0.48431 0.87588 0.1599 0.0
C940 C 0.48336 0.872 0.19837 0.0
C941 C 0.46614 0.83999 0.21331 0.0
C942 C 0.46795 0.8498 0.09604 0.0
C943 C 0.50093 0.90169 0.22382 0.0
C944 C 0.56159 0.94702 0.11877 0.0
C945 C 0.54373 0.97238 0.11223 0.0
C946 C 0.54268 0.91586 0.13425 0.0
C947 C 0.50458 0.90935 0.1434 0.0
C948 C 0.48618 0.93472 0.13653 0.0
C949 C 0.50595 0.96592 0.12114 0.0
C950 C 0.56369 0.88991 0.14096 0.0
C951 C 0.44557 0.92887 0.14545 0.0
H952 H 0.43926 0.79357 0.13483 0.0
H953 H 0.46512 0.83764 0.24275 0.0
H954 H 0.45607 0.87067 0.08823 0.0
H955 H 0.49692 0.85616 0.08574 0.0
H956 H 0.45195 0.82578 0.08216 0.0
H957 H 0.49716 0.8949 0.25306 0.0
H958 H 0.53108 0.91092 0.21795 0.0
H959 H 0.48878 0.92312 0.21921 0.0
H960 H 0.59073 0.95159 0.11191 0.0
H961 H 0.49186 0.98525 0.11613 0.0
H962 H 0.55065 0.86583 0.1256 0.0
H963 H 0.56243 0.88396 0.17042 0.0
H964 H 0.59328 0.89889 0.13261 0.0
H965 H 0.42905 0.90575 0.13046 0.0
H966 H 0.43512 0.9508 0.13822 0.0
H967 H 0.44085 0.92433 0.17509 0.0
C968 C 0.12586 0.30548 0.73633 0.0
C969 C 0.16426 0.32087 0.73896 0.0
C970 C 0.11166 0.27283 0.71938 0.0
C971 C 0.13625 0.25488 0.70431 0.0
C972 C 0.17495 0.26989 0.70783 0.0
C973 C 0.18832 0.30218 0.72527 0.0
C974 C 0.07022 0.25781 0.7169 0.0
C975 C 0.20248 0.25213 0.69235 0.0
C976 C 0.10556 0.15832 0.683 0.0
C977 C 0.09938 0.15666 0.64503 0.0
C978 C 0.11642 0.18984 0.7027 0.0
C979 C 0.12193 0.22088 0.68415 0.0
C980 C 0.11559 0.21933 0.64584 0.0
C981 C 0.10421 0.18747 0.62692 0.0
C982 C 0.12226 0.1899 0.74346 0.0
C983 C 0.12152 0.25148 0.62458 0.0
H984 H 0.10679 0.31937 0.74652 0.0
H985 H 0.21802 0.31301 0.72783 0.0
H986 H 0.06157 0.25533 0.68781 0.0
H987 H 0.06223 0.23186 0.7281 0.0
H988 H 0.05475 0.27366 0.73195 0.0
H989 H 0.23168 0.26696 0.69747 0.0
H990 H 0.19784 0.22677 0.70453 0.0
H991 H 0.19841 0.24791 0.66239 0.0
H992 H 0.10166 0.13487 0.69753 0.0
H993 H 0.09958 0.18677 0.59767 0.0
H994 H 0.1053 0.20474 0.75785 0.0
H995 H 0.15173 0.20249 0.75006 0.0
H996 H 0.11485 0.16377 0.75427 0.0
H997 H 0.10412 0.26731 0.63619 0.0
H998 H 0.11472 0.24614 0.59512 0.0
H999 H 0.15089 0.26676 0.62696 0.0
C1000 C 0.76863 0.28905 0.53753 0.0
C1001 C 0.80215 0.31406 0.54369 0.0
C1002 C 0.73613 0.29818 0.52962 0.0
C1003 C 0.73758 0.33306 0.52773 0.0
C1004 C 0.77174 0.3583 0.53285 0.0
C1005 C 0.8037 0.34842 0.5406 0.0
C1006 C 0.70028 0.27065 0.52393 0.0
C1007 C 0.77448 0.3958 0.5307 0.0
C1008 C 0.66785 0.36934 0.48178 0.0
C1009 C 0.65131 0.38078 0.51234 0.0
C1010 C 0.69399 0.3509 0.48612 0.0
C1011 C 0.70348 0.34386 0.52183 0.0
C1012 C 0.68411 0.3525 0.55246 0.0
C1013 C 0.65826 0.37099 0.54732 0.0
C1014 C 0.71388 0.34188 0.45278 0.0
C1015 C 0.69305 0.34499 0.59093 0.0
H1016 H 0.76787 0.26241 0.53917 0.0
H1017 H 0.82994 0.36758 0.54462 0.0
H1018 H 0.68034 0.27263 0.54599 0.0
H1019 H 0.68741 0.27397 0.49763 0.0
H1020 H 0.70441 0.24473 0.5239 0.0
H1021 H 0.80336 0.41204 0.5343 0.0
H1022 H 0.76411 0.40115 0.50386 0.0
H1023 H 0.7568 0.40323 0.5522 0.0
H1024 H 0.66247 0.37697 0.45471 0.0
H1025 H 0.64493 0.37944 0.57087 0.0
H1026 H 0.71746 0.3159 0.45458 0.0
H1027 H 0.74195 0.35995 0.45115 0.0
H1028 H 0.69881 0.3433 0.42715 0.0
H1029 H 0.69493 0.31843 0.59247 0.0
H1030 H 0.67195 0.34883 0.61099 0.0
H1031 H 0.72042 0.36216 0.59901 0.0
loop_
_geom_bond_atom_site_label_1
_geom_bond_atom_site_label_2
_geom_bond_distance
_geom_bond_site_symmetry_2
_ccdc_geom_bond_type
H0 C7 0.929 . S
H1 C10 0.930 . S
H2 C12 0.929 . S
H3 C4 0.969 . S
C4 H3 0.969 . S
C4 O5 1.550 . S
C4 H6 0.973 . S
O5 C4 1.550 . S
O5 C11 1.412 . S
H6 C4 0.973 . S
C7 H0 0.929 . S
C7 C8 1.400 . S
C7 C9 1.364 . S
C8 C7 1.400 . S
C8 C12 1.377 . S
C9 C7 1.364 . S
C9 C10 1.374 . S
C10 H1 0.930 . S
C10 C9 1.374 . S
C10 C11 1.383 . S
C11 O5 1.412 . S
C11 C10 1.383 . S
C11 C12 1.394 . S
C12 H2 0.929 . S
C12 C8 1.377 . S
C12 C11 1.394 . S
H13 C20 0.929 . S
H14 C23 0.930 . S
H15 C25 0.929 . S
H16 C17 0.969 . S
C17 H16 0.969 . S
C17 O18 1.550 . S
C17 H19 0.973 . S
O18 C17 1.550 . S
O18 C24 1.412 . S
H19 C17 0.973 . S
C20 H13 0.929 . S
C20 C21 1.400 . S
C20 C22 1.364 . S
C21 C20 1.400 . S
C21 C25 1.377 . S
C22 C20 1.364 . S
C22 C23 1.374 . S
C23 H14 0.930 . S
C23 C22 1.374 . S
C23 C24 1.383 . S
C24 O18 1.412 . S
C24 C23 1.383 . S
C24 C25 1.394 . S
C25 H15 0.929 . S
C25 C21 1.377 . S
C25 C24 1.394 . S
H26 C33 0.929 . S
H27 C36 0.930 . S
H28 C38 0.929 . S
H29 C30 0.969 . S
C30 H29 0.969 . S
C30 O31 1.550 . S
C30 H32 0.973 . S
O31 C30 1.550 . S
O31 C37 1.412 . S
H32 C30 0.973 . S
C33 H26 0.929 . S
C33 C34 1.400 . S
C33 C35 1.364 . S
C34 C33 1.400 . S
C34 C38 1.377 . S
C35 C33 1.364 . S
C35 C36 1.374 . S
C36 H27 0.930 . S
C36 C35 1.374 . S
C36 C37 1.383 . S
C37 O31 1.412 . S
C37 C36 1.383 . S
C37 C38 1.394 . S
C38 H28 0.929 . S
C38 C34 1.377 . S
C38 C37 1.394 . S
H39 C46 0.929 . S
H40 C49 0.930 . S
H41 C51 0.929 . S
H42 C43 0.969 . S
C43 H42 0.969 . S
C43 O44 1.550 . S
C43 H45 0.973 . S
O44 C43 1.550 . S
O44 C50 1.412 . S
H45 C43 0.973 . S
C46 H39 0.929 . S
C46 C47 1.400 . S
C46 C48 1.364 . S
C47 C46 1.400 . S
C47 C51 1.377 . S
C48 C46 1.364 . S
C48 C49 1.374 . S
C49 H40 0.930 . S
C49 C48 1.374 . S
C49 C50 1.383 . S
C50 O44 1.412 . S
C50 C49 1.383 . S
C50 C51 1.394 . S
C51 H41 0.929 . S
C51 C47 1.377 . S
C51 C50 1.394 . S
H52 C59 0.929 . S
H53 C62 0.930 . S
H54 C64 0.929 . S
H55 C56 0.969 . S
C56 H55 0.969 . S
C56 O57 1.550 . S
C56 H58 0.973 . S
O57 C56 1.550 . S
O57 C63 1.412 . S
H58 C56 0.973 . S
C59 H52 0.929 . S
C59 C60 1.400 . S
C59 C61 1.364 . S
C60 C59 1.400 . S
C60 C64 1.377 . S
C61 C59 1.364 . S
C61 C62 1.374 . S
C62 H53 0.930 . S
C62 C61 1.374 . S
C62 C63 1.383 . S
C63 O57 1.412 . S
C63 C62 1.383 . S
C63 C64 1.394 . S
C64 H54 0.929 . S
C64 C60 1.377 . S
C64 C63 1.394 . S
H65 C72 0.929 . S
H66 C75 0.930 . S
H67 C77 0.929 . S
H68 C69 0.969 . S
C69 H68 0.969 . S
C69 O70 1.550 . S
C69 H71 0.973 . S
O70 C69 1.550 . S
O70 C76 1.412 . S
H71 C69 0.973 . S
C72 H65 0.929 . S
C72 C73 1.400 . S
C72 C74 1.364 . S
C73 C72 1.400 . S
C73 C77 1.377 . S
C74 C72 1.364 . S
C74 C75 1.374 . S
C75 H66 0.930 . S
C75 C74 1.374 . S
C75 C76 1.383 . S
C76 O70 1.412 . S
C76 C75 1.383 . S
C76 C77 1.394 . S
C77 H67 0.929 . S
C77 C73 1.377 . S
C77 C76 1.394 . S
H78 C85 0.929 . S
H79 C88 0.930 . S
H80 C90 0.929 . S
H81 C82 0.969 . S
C82 H81 0.969 . S
C82 O83 1.550 . S
C82 H84 0.973 . S
O83 C82 1.550 . S
O83 C89 1.412 . S
H84 C82 0.973 . S
C85 H78 0.929 . S
C85 C86 1.400 . S
C85 C87 1.364 . S
C86 C85 1.400 . S
C86 C90 1.377 . S
C87 C85 1.364 . S
C87 C88 1.374 . S
C88 H79 0.930 . S
C88 C87 1.374 . S
C88 C89 1.383 . S
C89 O83 1.412 . S
C89 C88 1.383 . S
C89 C90 1.394 . S
C90 H80 0.929 . S
C90 C86 1.377 . S
C90 C89 1.394 . S
H91 C98 0.929 . S
H92 C101 0.930 . S
H93 C103 0.929 . S
H94 C95 0.969 . S
C95 H94 0.969 . S
C95 O96 1.550 . S
C95 H97 0.973 . S
O96 C95 1.550 . S
O96 C102 1.412 . S
H97 C95 0.973 . S
C98 H91 0.929 . S
C98 C99 1.400 . S
C98 C100 1.364 . S
C99 C98 1.400 . S
C99 C103 1.377 . S
C100 C98 1.364 . S
C100 C101 1.374 . S
C101 H92 0.930 . S
C101 C100 1.374 . S
C101 C102 1.383 . S
C102 O96 1.412 . S
C102 C101 1.383 . S
C102 C103 1.394 . S
C103 H93 0.929 . S
C103 C99 1.377 . S
C103 C102 1.394 . S
La104 C106 2.928 . S
La104 O124 2.521 . S
La104 O125 2.628 . S
La104 O126 2.554 . S
La104 O127 2.757 1_545 S
La104 O128 2.470 . S
La104 O133 2.482 . S
La104 O135 2.503 1_545 S
La105 C115 2.928 1_545 S
La105 O127 2.482 1_645 S
La105 O129 2.503 1_655 S
La105 O130 2.521 1_545 S
La105 O131 2.628 1_545 S
La105 O132 2.554 . S
La105 O133 2.757 1_655 S
La105 O134 2.470 1_545 S
C106 La104 2.928 . S
C106 C107 1.503 . S
C106 O124 1.261 . S
C106 O125 1.243 . S
C107 C106 1.503 . S
C107 C108 1.394 . S
C107 C112 1.373 . S
C108 C107 1.394 . S
C108 C109 1.380 . S
C108 H136 0.930 . S
C109 C108 1.380 . S
C109 C110 1.376 . S
C109 H137 0.930 . S
C110 C109 1.376 . S
C110 C111 1.370 . S
C111 C110 1.370 . S
C111 C112 1.396 . S
C111 H138 0.929 . S
C112 C107 1.373 . S
C112 C111 1.396 . S
C112 H139 0.929 . S
C113 O126 1.240 1_565 S
C113 O127 1.289 . S
C114 O128 1.258 . S
C114 O129 1.256 . S
C115 La105 2.928 1_565 S
C115 C116 1.503 . S
C115 O130 1.261 . S
C115 O131 1.243 . S
C116 C115 1.503 . S
C116 C117 1.394 . S
C116 C121 1.373 . S
C117 C116 1.394 . S
C117 C118 1.380 . S
C117 H140 0.930 . S
C118 C117 1.380 . S
C118 C119 1.376 . S
C118 H141 0.930 . S
C119 C118 1.376 . S
C119 C120 1.370 . S
C120 C119 1.370 . S
C120 C121 1.396 . S
C120 H142 0.929 . S
C121 C116 1.373 . S
C121 C120 1.396 . S
C121 H143 0.929 . S
C122 O132 1.240 . S
C122 O133 1.289 1_655 S
C123 O134 1.258 . S
C123 O135 1.256 1_655 S
O124 La104 2.521 . S
O124 C106 1.261 . S
O125 La104 2.628 . S
O125 C106 1.243 . S
O126 La104 2.554 . S
O126 C113 1.240 1_545 S
O127 La104 2.757 1_565 S
O127 La105 2.482 1_465 S
O127 C113 1.289 . S
O128 La104 2.470 . S
O128 C114 1.258 . S
O129 La105 2.503 1_455 S
O129 C114 1.256 . S
O130 La105 2.521 1_565 S
O130 C115 1.261 . S
O131 La105 2.628 1_565 S
O131 C115 1.243 . S
O132 La105 2.554 . S
O132 C122 1.240 . S
O133 La104 2.482 . S
O133 La105 2.757 1_455 S
O133 C122 1.289 1_455 S
O134 La105 2.470 1_565 S
O134 C123 1.258 . S
O135 La104 2.503 1_565 S
O135 C123 1.256 1_455 S
H136 C108 0.930 . S
H137 C109 0.930 . S
H138 C111 0.929 . S
H139 C112 0.929 . S
H140 C117 0.930 . S
H141 C118 0.930 . S
H142 C120 0.929 . S
H143 C121 0.929 . S
La144 C146 2.928 . S
La144 O164 2.521 . S
La144 O165 2.628 . S
La144 O166 2.554 1_545 S
La144 O167 2.757 1_545 S
La144 O168 2.470 . S
La144 O173 2.486 . S
La144 O175 2.503 1_544 S
La145 C155 2.928 1_545 S
La145 O167 2.482 1_546 S
La145 O169 2.503 1_556 S
La145 O170 2.521 1_545 S
La145 O171 2.628 1_545 S
La145 O172 2.554 . S
La145 O173 2.755 1_556 S
La145 O174 2.470 1_545 S
C146 La144 2.928 . S
C146 C147 1.503 . S
C146 O164 1.261 . S
C146 O165 1.243 . S
C147 C146 1.503 . S
C147 C148 1.394 . S
C147 C152 1.373 . S
C148 C147 1.394 . S
C148 C149 1.380 . S
C148 H176 0.930 . S
C149 C148 1.380 . S
C149 C150 1.376 . S
C149 H177 0.930 . S
C150 C149 1.376 . S
C150 C151 1.370 . S
C151 C150 1.370 . S
C151 C152 1.396 . S
C151 H178 0.929 . S
C152 C147 1.373 . S
C152 C151 1.396 . S
C152 H179 0.929 . S
C153 O166 1.240 . S
C153 O167 1.289 . S
C154 O168 1.258 . S
C154 O169 1.256 . S
C155 La145 2.928 1_565 S
C155 C156 1.503 . S
C155 O170 1.261 . S
C155 O171 1.243 . S
C156 C155 1.503 . S
C156 C157 1.394 . S
C156 C161 1.373 . S
C157 C156 1.394 . S
C157 C158 1.380 . S
C157 H180 0.930 . S
C158 C157 1.380 . S
C158 C159 1.376 . S
C158 H181 0.930 . S
C159 C158 1.376 . S
C159 C160 1.370 . S
C160 C159 1.370 . S
C160 C161 1.396 . S
C160 H182 0.929 . S
C161 C156 1.373 . S
C161 C160 1.396 . S
C161 H183 0.929 . S
C162 O172 1.240 . S
C162 O173 1.285 1_556 S
C163 O174 1.258 . S
C163 O175 1.256 . S
O164 La144 2.521 . S
O164 C146 1.261 . S
O165 La144 2.628 . S
O165 C146 1.243 . S
O166 La144 2.554 1_565 S
O166 C153 1.240 . S
O167 La144 2.757 1_565 S
O167 La145 2.482 1_564 S
O167 C153 1.289 . S
O168 La144 2.470 . S
O168 C154 1.258 . S
O169 La145 2.503 1_554 S
O169 C154 1.256 . S
O170 La145 2.521 1_565 S
O170 C155 1.261 . S
O171 La145 2.628 1_565 S
O171 C155 1.243 . S
O172 La145 2.554 . S
O172 C162 1.240 . S
O173 La144 2.486 . S
O173 La145 2.755 1_554 S
O173 C162 1.285 1_554 S
O174 La145 2.470 1_565 S
O174 C163 1.258 . S
O175 La144 2.503 1_566 S
O175 C163 1.256 . S
H176 C148 0.930 . S
H177 C149 0.930 . S
H178 C151 0.929 . S
H179 C152 0.929 . S
H180 C157 0.930 . S
H181 C158 0.930 . S
H182 C160 0.929 . S
H183 C161 0.929 . S
La184 C186 2.928 . S
La184 O204 2.521 . S
La184 O205 2.628 . S
La184 O206 2.554 . S
La184 O207 2.757 . S
La184 O208 2.470 . S
La184 O213 2.482 . S
La184 O215 2.503 . S
La185 C195 2.928 . S
La185 O207 2.482 . S
La185 O209 2.503 . S
La185 O210 2.521 . S
La185 O211 2.628 . S
La185 O212 2.554 . S
La185 O213 2.757 . S
La185 O214 2.470 . S
C186 La184 2.928 . S
C186 C187 1.503 . S
C186 O204 1.261 . S
C186 O205 1.243 . S
C187 C186 1.503 . S
C187 C188 1.394 . S
C187 C192 1.373 . S
C188 C187 1.394 . S
C188 C189 1.380 . S
C188 H216 0.930 . S
C189 C188 1.380 . S
C189 C190 1.376 . S
C189 H217 0.930 . S
C190 C189 1.376 . S
C190 C191 1.370 . S
C191 C190 1.370 . S
C191 C192 1.396 . S
C191 H218 0.929 . S
C192 C187 1.373 . S
C192 C191 1.396 . S
C192 H219 0.929 . S
C193 O206 1.240 . S
C193 O207 1.289 . S
C194 O208 1.258 . S
C194 O209 1.256 . S
C195 La185 2.928 . S
C195 C196 1.503 . S
C195 O210 1.261 . S
C195 O211 1.243 . S
C196 C195 1.503 . S
C196 C197 1.394 . S
C196 C201 1.373 . S
C197 C196 1.394 . S
C197 C198 1.380 . S
C197 H220 0.930 . S
C198 C197 1.380 . S
C198 C199 1.376 . S
C198 H221 0.930 . S
C199 C198 1.376 . S
C199 C200 1.370 . S
C200 C199 1.370 . S
C200 C201 1.396 . S
C200 H222 0.929 . S
C201 C196 1.373 . S
C201 C200 1.396 . S
C201 H223 0.929 . S
C202 O212 1.240 . S
C202 O213 1.289 . S
C203 O214 1.258 . S
C203 O215 1.256 . S
O204 La184 2.521 . S
O204 C186 1.261 . S
O205 La184 2.628 . S
O205 C186 1.243 . S
O206 La184 2.554 . S
O206 C193 1.240 . S
O207 La184 2.757 . S
O207 La185 2.482 . S
O207 C193 1.289 . S
O208 La184 2.470 . S
O208 C194 1.258 . S
O209 La185 2.503 . S
O209 C194 1.256 . S
O210 La185 2.521 . S
O210 C195 1.261 . S
O211 La185 2.628 . S
O211 C195 1.243 . S
O212 La185 2.554 . S
O212 C202 1.240 . S
O213 La184 2.482 . S
O213 La185 2.757 . S
O213 C202 1.289 . S
O214 La185 2.470 . S
O214 C203 1.258 . S
O215 La184 2.503 . S
O215 C203 1.256 . S
H216 C188 0.930 . S
H217 C189 0.930 . S
H218 C191 0.929 . S
H219 C192 0.929 . S
H220 C197 0.930 . S
H221 C198 0.930 . S
H222 C200 0.929 . S
H223 C201 0.929 . S
La224 C226 2.928 . S
La224 O244 2.521 . S
La224 O245 2.628 . S
La224 O246 2.554 . S
La224 O247 2.757 . S
La224 O248 2.470 . S
La224 O253 2.482 . S
La224 O255 2.503 1_455 S
La225 C235 2.928 1_454 S
La225 O247 2.482 . S
La225 O249 2.503 . S
La225 O250 2.521 1_554 S
La225 O251 2.628 1_455 S
La225 O252 2.554 1_554 S
La225 O253 2.757 . S
La225 O254 2.470 1_454 S
C226 La224 2.928 . S
C226 C227 1.503 . S
C226 O244 1.261 . S
C226 O245 1.243 . S
C227 C226 1.503 . S
C227 C228 1.394 . S
C227 C232 1.373 . S
C228 C227 1.394 . S
C228 C229 1.380 . S
C228 H256 0.930 . S
C229 C228 1.380 . S
C229 C230 1.376 . S
C229 H257 0.930 . S
C230 C229 1.376 . S
C230 C231 1.370 . S
C231 C230 1.370 . S
C231 C232 1.396 . S
C231 H258 0.929 . S
C232 C227 1.373 . S
C232 C231 1.396 . S
C232 H259 0.929 . S
C233 O246 1.240 . S
C233 O247 1.289 . S
C234 O248 1.258 . S
C234 O249 1.256 . S
C235 La225 2.928 1_656 S
C235 C236 1.503 . S
C235 O250 1.261 1_655 S
C235 O251 1.243 1_556 S
C236 C235 1.503 . S
C236 C237 1.394 . S
C236 C241 1.373 . S
C237 C236 1.394 . S
C237 C238 1.380 . S
C237 H260 0.930 . S
C238 C237 1.380 . S
C238 C239 1.376 . S
C238 H261 0.930 . S
C239 C238 1.376 . S
C239 C240 1.370 . S
C240 C239 1.370 . S
C240 C241 1.396 . S
C240 H262 0.929 . S
C241 C236 1.373 . S
C241 C240 1.396 . S
C241 H263 0.914 1_556 S
C242 O252 1.240 . S
C242 O253 1.289 1_556 S
C243 O254 1.258 1_554 S
C243 O255 1.256 . S
O244 La224 2.521 . S
O244 C226 1.261 . S
O245 La224 2.628 . S
O245 C226 1.243 . S
O246 La224 2.554 . S
O246 C233 1.240 . S
O247 La224 2.757 . S
O247 La225 2.482 . S
O247 C233 1.289 . S
O248 La224 2.470 . S
O248 C234 1.258 . S
O249 La225 2.503 . S
O249 C234 1.256 . S
O250 La225 2.521 1_556 S
O250 C235 1.261 1_455 S
O251 La225 2.628 1_655 S
O251 C235 1.243 1_554 S
O252 La225 2.554 1_556 S
O252 C242 1.240 . S
O253 La224 2.482 . S
O253 La225 2.757 . S
O253 C242 1.289 1_554 S
O254 La225 2.470 1_656 S
O254 C243 1.258 1_556 S
O255 La224 2.503 1_655 S
O255 C243 1.256 . S
H256 C228 0.930 . S
H257 C229 0.930 . S
H258 C231 0.929 . S
H259 C232 0.929 . S
H260 C237 0.930 . S
H261 C238 0.930 . S
H262 C240 0.929 . S
H263 C241 0.914 1_554 S
C264 C265 1.391 . S
C264 C266 1.394 . S
C264 H280 0.931 . S
C265 C264 1.391 . S
C265 C269 1.376 . S
C266 C264 1.394 . S
C266 C267 1.369 . S
C266 C270 1.531 . S
C267 C266 1.369 . S
C267 C268 1.410 . S
C267 C275 1.503 . S
C268 C267 1.410 . S
C268 C269 1.392 . S
C268 C271 1.511 . S
C269 C265 1.376 . S
C269 C268 1.392 . S
C269 H281 0.929 . S
C270 C266 1.531 . S
C270 H282 0.960 . S
C270 H283 0.962 . S
C270 H284 0.960 . S
C271 C268 1.511 . S
C271 H285 0.961 . S
C271 H286 0.961 . S
C271 H287 0.961 . S
C272 C273 1.370 . S
C272 C274 1.363 . S
C272 H288 0.931 . S
C273 C272 1.370 . S
C273 C277 1.408 . S
C274 C272 1.363 . S
C274 C275 1.370 . S
C274 C278 1.524 . S
C275 C267 1.503 . S
C275 C274 1.370 . S
C275 C276 1.403 . S
C276 C275 1.403 . S
C276 C277 1.404 . S
C276 C279 1.539 . S
C277 C273 1.408 . S
C277 C276 1.404 . S
C277 H289 0.930 . S
C278 C274 1.524 . S
C278 H290 0.956 . S
C278 H291 0.961 . S
C278 H292 0.961 . S
C279 C276 1.539 . S
C279 H293 0.958 . S
C279 H294 0.961 . S
C279 H295 0.960 . S
H280 C264 0.931 . S
H281 C269 0.929 . S
H282 C270 0.960 . S
H283 C270 0.962 . S
H284 C270 0.960 . S
H285 C271 0.961 . S
H286 C271 0.961 . S
H287 C271 0.961 . S
H288 C272 0.931 . S
H289 C277 0.930 . S
H290 C278 0.956 . S
H291 C278 0.961 . S
H292 C278 0.961 . S
H293 C279 0.958 . S
H294 C279 0.961 . S
H295 C279 0.960 . S
C296 C297 1.391 . S
C296 C298 1.394 . S
C296 H312 0.931 . S
C297 C296 1.391 . S
C297 C301 1.376 . S
C298 C296 1.394 . S
C298 C299 1.369 . S
C298 C302 1.531 . S
C299 C298 1.369 . S
C299 C300 1.410 . S
C299 C307 1.503 . S
C300 C299 1.410 . S
C300 C301 1.392 . S
C300 C303 1.511 . S
C301 C297 1.376 . S
C301 C300 1.392 . S
C301 H313 0.929 . S
C302 C298 1.531 . S
C302 H314 0.960 . S
C302 H315 0.962 . S
C302 H316 0.960 . S
C303 C300 1.511 . S
C303 H317 0.961 . S
C303 H318 0.961 . S
C303 H319 0.961 . S
C304 C305 1.370 . S
C304 C306 1.363 . S
C304 H320 0.931 . S
C305 C304 1.370 . S
C305 C309 1.408 . S
C306 C304 1.363 . S
C306 C307 1.370 . S
C306 C310 1.524 . S
C307 C299 1.503 . S
C307 C306 1.370 . S
C307 C308 1.403 . S
C308 C307 1.403 . S
C308 C309 1.404 . S
C308 C311 1.539 . S
C309 C305 1.408 . S
C309 C308 1.404 . S
C309 H321 0.930 . S
C310 C306 1.524 . S
C310 H322 0.956 . S
C310 H323 0.961 . S
C310 H324 0.961 . S
C311 C308 1.539 . S
C311 H325 0.958 . S
C311 H326 0.961 . S
C311 H327 0.960 . S
H312 C296 0.931 . S
H313 C301 0.929 . S
H314 C302 0.960 . S
H315 C302 0.962 . S
H316 C302 0.960 . S
H317 C303 0.961 . S
H318 C303 0.961 . S
H319 C303 0.961 . S
H320 C304 0.931 . S
H321 C309 0.930 . S
H322 C310 0.956 . S
H323 C310 0.961 . S
H324 C310 0.961 . S
H325 C311 0.958 . S
H326 C311 0.961 . S
H327 C311 0.960 . S
C328 C329 1.391 . S
C328 C330 1.394 . S
C328 H344 0.931 . S
C329 C328 1.391 . S
C329 C333 1.376 . S
C330 C328 1.394 . S
C330 C331 1.369 . S
C330 C334 1.531 . S
C331 C330 1.369 . S
C331 C332 1.410 . S
C331 C339 1.503 . S
C332 C331 1.410 . S
C332 C333 1.392 . S
C332 C335 1.511 . S
C333 C329 1.376 . S
C333 C332 1.392 . S
C333 H345 0.929 . S
C334 C330 1.531 . S
C334 H346 0.960 . S
C334 H347 0.962 . S
C334 H348 0.960 . S
C335 C332 1.511 . S
C335 H349 0.961 . S
C335 H350 0.961 . S
C335 H351 0.961 . S
C336 C337 1.370 . S
C336 C338 1.363 . S
C336 H352 0.931 . S
C337 C336 1.370 . S
C337 C341 1.408 . S
C338 C336 1.363 . S
C338 C339 1.370 . S
C338 C342 1.524 . S
C339 C331 1.503 . S
C339 C338 1.370 . S
C339 C340 1.403 . S
C340 C339 1.403 . S
C340 C341 1.404 . S
C340 C343 1.539 . S
C341 C337 1.408 . S
C341 C340 1.404 . S
C341 H353 0.930 . S
C342 C338 1.524 . S
C342 H354 0.956 . S
C342 H355 0.961 . S
C342 H356 0.961 . S
C343 C340 1.539 . S
C343 H357 0.958 . S
C343 H358 0.961 . S
C343 H359 0.960 . S
H344 C328 0.931 . S
H345 C333 0.929 . S
H346 C334 0.960 . S
H347 C334 0.962 . S
H348 C334 0.960 . S
H349 C335 0.961 . S
H350 C335 0.961 . S
H351 C335 0.961 . S
H352 C336 0.931 . S
H353 C341 0.930 . S
H354 C342 0.956 . S
H355 C342 0.961 . S
H356 C342 0.961 . S
H357 C343 0.958 . S
H358 C343 0.961 . S
H359 C343 0.960 . S
C360 C361 1.391 . S
C360 C362 1.394 . S
C360 H376 0.931 . S
C361 C360 1.391 . S
C361 C365 1.376 . S
C362 C360 1.394 . S
C362 C363 1.369 . S
C362 C366 1.531 . S
C363 C362 1.369 . S
C363 C364 1.410 . S
C363 C371 1.503 . S
C364 C363 1.410 . S
C364 C365 1.392 . S
C364 C367 1.511 1_655 S
C365 C361 1.376 . S
C365 C364 1.392 . S
C365 H377 0.929 . S
C366 C362 1.531 . S
C366 H378 0.960 . S
C366 H379 0.962 . S
C366 H380 0.960 . S
C367 C364 1.511 1_455 S
C367 H381 0.961 . S
C367 H382 0.961 . S
C367 H383 0.961 . S
C368 C369 1.370 . S
C368 C370 1.363 . S
C368 H384 0.931 . S
C369 C368 1.370 . S
C369 C373 1.414 . S
C370 C368 1.363 . S
C370 C371 1.370 . S
C370 C374 1.524 . S
C371 C363 1.503 . S
C371 C370 1.370 . S
C371 C372 1.403 . S
C372 C371 1.403 . S
C372 C373 1.416 . S
C372 C375 1.539 1_655 S
C373 C369 1.414 . S
C373 C372 1.416 . S
C373 H385 0.913 1_655 S
C374 C370 1.524 . S
C374 H386 0.956 . S
C374 H387 0.961 . S
C374 H388 0.961 . S
C375 C372 1.539 1_455 S
C375 H389 0.958 1_455 S
C375 H390 0.961 . S
C375 H391 0.960 . S
H376 C360 0.931 . S
H377 C365 0.929 . S
H378 C366 0.960 . S
H379 C366 0.962 . S
H380 C366 0.960 . S
H381 C367 0.961 . S
H382 C367 0.961 . S
H383 C367 0.961 . S
H384 C368 0.931 . S
H385 C373 0.913 1_455 S
H386 C374 0.956 . S
H387 C374 0.961 . S
H388 C374 0.961 . S
H389 C375 0.958 1_655 S
H390 C375 0.961 . S
H391 C375 0.960 . S
C392 C393 1.391 . S
C392 C394 1.394 . S
C392 H408 0.931 . S
C393 C392 1.391 . S
C393 C397 1.376 . S
C394 C392 1.394 . S
C394 C395 1.369 . S
C394 C398 1.531 . S
C395 C394 1.369 . S
C395 C396 1.410 . S
C395 C403 1.503 . S
C396 C395 1.410 . S
C396 C397 1.392 . S
C396 C399 1.511 . S
C397 C393 1.376 . S
C397 C396 1.392 . S
C397 H409 0.929 . S
C398 C394 1.531 . S
C398 H410 0.960 . S
C398 H411 0.962 . S
C398 H412 0.960 . S
C399 C396 1.511 . S
C399 H413 0.961 . S
C399 H414 0.961 . S
C399 H415 0.961 . S
C400 C401 1.370 . S
C400 C402 1.363 . S
C400 H416 0.931 . S
C401 C400 1.370 . S
C401 C405 1.408 . S
C402 C400 1.363 . S
C402 C403 1.370 . S
C402 C406 1.524 . S
C403 C395 1.503 . S
C403 C402 1.370 . S
C403 C404 1.403 . S
C404 C403 1.403 . S
C404 C405 1.404 . S
C404 C407 1.539 . S
C405 C401 1.408 . S
C405 C404 1.404 . S
C405 H417 0.930 . S
C406 C402 1.524 . S
C406 H418 0.956 . S
C406 H419 0.961 . S
C406 H420 0.961 . S
C407 C404 1.539 . S
C407 H421 0.958 . S
C407 H422 0.961 . S
C407 H423 0.960 . S
H408 C392 0.931 . S
H409 C397 0.929 . S
H410 C398 0.960 . S
H411 C398 0.962 . S
H412 C398 0.960 . S
H413 C399 0.961 . S
H414 C399 0.961 . S
H415 C399 0.961 . S
H416 C400 0.931 . S
H417 C405 0.930 . S
H418 C406 0.956 . S
H419 C406 0.961 . S
H420 C406 0.961 . S
H421 C407 0.958 . S
H422 C407 0.961 . S
H423 C407 0.960 . S
C424 C425 1.391 . S
C424 C426 1.394 . S
C424 H440 0.931 . S
C425 C424 1.391 . S
C425 C429 1.376 . S
C426 C424 1.394 . S
C426 C427 1.369 . S
C426 C430 1.531 . S
C427 C426 1.369 . S
C427 C428 1.410 . S
C427 C435 1.503 . S
C428 C427 1.410 . S
C428 C429 1.392 . S
C428 C431 1.511 . S
C429 C425 1.376 . S
C429 C428 1.392 . S
C429 H441 0.929 . S
C430 C426 1.531 . S
C430 H442 0.960 . S
C430 H443 0.962 . S
C430 H444 0.960 . S
C431 C428 1.511 . S
C431 H445 0.961 . S
C431 H446 0.961 . S
C431 H447 0.961 . S
C432 C433 1.370 . S
C432 C434 1.363 . S
C432 H448 0.931 . S
C433 C432 1.370 . S
C433 C437 1.408 . S
C434 C432 1.363 . S
C434 C435 1.370 . S
C434 C438 1.524 . S
C435 C427 1.503 . S
C435 C434 1.370 . S
C435 C436 1.403 . S
C436 C435 1.403 . S
C436 C437 1.404 . S
C436 C439 1.539 . S
C437 C433 1.408 . S
C437 C436 1.404 . S
C437 H449 0.930 . S
C438 C434 1.524 . S
C438 H450 0.956 . S
C438 H451 0.961 . S
C438 H452 0.961 . S
C439 C436 1.539 . S
C439 H453 0.958 . S
C439 H454 0.961 . S
C439 H455 0.960 . S
H440 C424 0.931 . S
H441 C429 0.929 . S
H442 C430 0.960 . S
H443 C430 0.962 . S
H444 C430 0.960 . S
H445 C431 0.961 . S
H446 C431 0.961 . S
H447 C431 0.961 . S
H448 C432 0.931 . S
H449 C437 0.930 . S
H450 C438 0.956 . S
H451 C438 0.961 . S
H452 C438 0.961 . S
H453 C439 0.958 . S
H454 C439 0.961 . S
H455 C439 0.960 . S
C456 C457 1.391 . S
C456 C458 1.394 . S
C456 H472 0.931 . S
C457 C456 1.391 . S
C457 C461 1.376 . S
C458 C456 1.394 . S
C458 C459 1.369 . S
C458 C462 1.531 . S
C459 C458 1.369 . S
C459 C460 1.410 . S
C459 C467 1.503 . S
C460 C459 1.410 . S
C460 C461 1.392 . S
C460 C463 1.511 . S
C461 C457 1.376 . S
C461 C460 1.392 . S
C461 H473 0.929 . S
C462 C458 1.531 . S
C462 H474 0.960 . S
C462 H475 0.962 . S
C462 H476 0.960 . S
C463 C460 1.511 . S
C463 H477 0.961 . S
C463 H478 0.961 . S
C463 H479 0.961 . S
C464 C465 1.370 . S
C464 C466 1.363 . S
C464 H480 0.931 . S
C465 C464 1.370 . S
C465 C469 1.408 . S
C466 C464 1.363 . S
C466 C467 1.370 . S
C466 C470 1.524 . S
C467 C459 1.503 . S
C467 C466 1.370 . S
C467 C468 1.403 . S
C468 C467 1.403 . S
C468 C469 1.404 . S
C468 C471 1.539 . S
C469 C465 1.408 . S
C469 C468 1.404 . S
C469 H481 0.930 . S
C470 C466 1.524 . S
C470 H482 0.956 . S
C470 H483 0.961 . S
C470 H484 0.961 . S
C471 C468 1.539 . S
C471 H485 0.958 . S
C471 H486 0.961 . S
C471 H487 0.960 . S
H472 C456 0.931 . S
H473 C461 0.929 . S
H474 C462 0.960 . S
H475 C462 0.962 . S
H476 C462 0.960 . S
H477 C463 0.961 . S
H478 C463 0.961 . S
H479 C463 0.961 . S
H480 C464 0.931 . S
H481 C469 0.930 . S
H482 C470 0.956 . S
H483 C470 0.961 . S
H484 C470 0.961 . S
H485 C471 0.958 . S
H486 C471 0.961 . S
H487 C471 0.960 . S
C488 C489 1.391 . S
C488 C490 1.394 . S
C488 H504 0.931 . S
C489 C488 1.391 . S
C489 C493 1.376 . S
C490 C488 1.394 . S
C490 C491 1.369 . S
C490 C494 1.531 . S
C491 C490 1.369 . S
C491 C492 1.410 . S
C491 C499 1.503 . S
C492 C491 1.410 . S
C492 C493 1.392 . S
C492 C495 1.511 . S
C493 C489 1.376 . S
C493 C492 1.392 . S
C493 H505 0.929 . S
C494 C490 1.531 . S
C494 H506 0.960 . S
C494 H507 0.962 . S
C494 H508 0.960 . S
C495 C492 1.511 . S
C495 H509 0.961 . S
C495 H510 0.961 . S
C495 H511 0.961 . S
C496 C497 1.370 . S
C496 C498 1.363 . S
C496 H512 0.931 . S
C497 C496 1.370 . S
C497 C501 1.408 . S
C498 C496 1.363 . S
C498 C499 1.370 . S
C498 C502 1.524 . S
C499 C491 1.503 . S
C499 C498 1.370 . S
C499 C500 1.403 . S
C500 C499 1.403 . S
C500 C501 1.404 . S
C500 C503 1.539 . S
C501 C497 1.408 . S
C501 C500 1.404 . S
C501 H513 0.930 . S
C502 C498 1.524 . S
C502 H514 0.956 . S
C502 H515 0.961 . S
C502 H516 0.961 . S
C503 C500 1.539 . S
C503 H517 0.958 . S
C503 H518 0.961 . S
C503 H519 0.960 . S
H504 C488 0.931 . S
H505 C493 0.929 . S
H506 C494 0.960 . S
H507 C494 0.962 . S
H508 C494 0.960 . S
H509 C495 0.961 . S
H510 C495 0.961 . S
H511 C495 0.961 . S
H512 C496 0.931 . S
H513 C501 0.930 . S
H514 C502 0.956 . S
H515 C502 0.961 . S
H516 C502 0.961 . S
H517 C503 0.958 . S
H518 C503 0.961 . S
H519 C503 0.960 . S
C520 C521 1.391 . S
C520 C522 1.394 . S
C520 H536 0.931 . S
C521 C520 1.391 . S
C521 C525 1.376 . S
C522 C520 1.394 . S
C522 C523 1.369 . S
C522 C526 1.531 . S
C523 C522 1.369 . S
C523 C524 1.410 . S
C523 C531 1.503 . S
C524 C523 1.410 . S
C524 C525 1.392 . S
C524 C527 1.511 . S
C525 C521 1.376 . S
C525 C524 1.392 . S
C525 H537 0.929 . S
C526 C522 1.531 . S
C526 H538 0.960 . S
C526 H539 0.962 . S
C526 H540 0.960 . S
C527 C524 1.511 . S
C527 H541 0.961 . S
C527 H542 0.961 . S
C527 H543 0.961 . S
C528 C529 1.370 . S
C528 C530 1.363 . S
C528 H544 0.931 . S
C529 C528 1.370 . S
C529 C533 1.408 . S
C530 C528 1.363 . S
C530 C531 1.370 . S
C530 C534 1.524 . S
C531 C523 1.503 . S
C531 C530 1.370 . S
C531 C532 1.403 . S
C532 C531 1.403 . S
C532 C533 1.404 . S
C532 C535 1.539 . S
C533 C529 1.408 . S
C533 C532 1.404 . S
C533 H545 0.930 . S
C534 C530 1.524 . S
C534 H546 0.956 . S
C534 H547 0.961 . S
C534 H548 0.961 . S
C535 C532 1.539 . S
C535 H549 0.958 . S
C535 H550 0.961 . S
C535 H551 0.960 . S
H536 C520 0.931 . S
H537 C525 0.929 . S
H538 C526 0.960 . S
H539 C526 0.962 . S
H540 C526 0.960 . S
H541 C527 0.961 . S
H542 C527 0.961 . S
H543 C527 0.961 . S
H544 C528 0.931 . S
H545 C533 0.930 . S
H546 C534 0.956 . S
H547 C534 0.961 . S
H548 C534 0.961 . S
H549 C535 0.958 . S
H550 C535 0.961 . S
H551 C535 0.960 . S
C552 C553 1.391 . S
C552 C554 1.394 . S
C552 H568 0.931 . S
C553 C552 1.391 . S
C553 C557 1.376 . S
C554 C552 1.394 . S
C554 C555 1.369 . S
C554 C558 1.531 . S
C555 C554 1.369 . S
C555 C556 1.410 . S
C555 C563 1.503 . S
C556 C555 1.410 . S
C556 C557 1.392 . S
C556 C559 1.511 . S
C557 C553 1.376 . S
C557 C556 1.392 . S
C557 H569 0.929 . S
C558 C554 1.531 . S
C558 H570 0.960 . S
C558 H571 0.962 . S
C558 H572 0.960 . S
C559 C556 1.511 . S
C559 H573 0.961 . S
C559 H574 0.961 . S
C559 H575 0.961 . S
C560 C561 1.370 . S
C560 C562 1.363 . S
C560 H576 0.931 . S
C561 C560 1.370 . S
C561 C565 1.408 . S
C562 C560 1.363 . S
C562 C563 1.370 . S
C562 C566 1.524 . S
C563 C555 1.503 . S
C563 C562 1.370 . S
C563 C564 1.403 . S
C564 C563 1.403 . S
C564 C565 1.404 . S
C564 C567 1.539 . S
C565 C561 1.408 . S
C565 C564 1.404 . S
C565 H577 0.930 . S
C566 C562 1.524 . S
C566 H578 0.956 . S
C566 H579 0.961 . S
C566 H580 0.961 . S
C567 C564 1.539 . S
C567 H581 0.958 . S
C567 H582 0.961 . S
C567 H583 0.960 . S
H568 C552 0.931 . S
H569 C557 0.929 . S
H570 C558 0.960 . S
H571 C558 0.962 . S
H572 C558 0.960 . S
H573 C559 0.961 . S
H574 C559 0.961 . S
H575 C559 0.961 . S
H576 C560 0.931 . S
H577 C565 0.930 . S
H578 C566 0.956 . S
H579 C566 0.961 . S
H580 C566 0.961 . S
H581 C567 0.958 . S
H582 C567 0.961 . S
H583 C567 0.960 . S
C584 C585 1.391 . S
C584 C586 1.394 . S
C584 H600 0.931 . S
C585 C584 1.391 . S
C585 C589 1.376 . S
C586 C584 1.394 . S
C586 C587 1.369 . S
C586 C590 1.531 . S
C587 C586 1.369 . S
C587 C588 1.410 . S
C587 C595 1.503 . S
C588 C587 1.410 . S
C588 C589 1.392 . S
C588 C591 1.511 . S
C589 C585 1.376 . S
C589 C588 1.392 . S
C589 H601 0.929 . S
C590 C586 1.531 . S
C590 H602 0.960 . S
C590 H603 0.962 . S
C590 H604 0.960 . S
C591 C588 1.511 . S
C591 H605 0.961 . S
C591 H606 0.961 . S
C591 H607 0.961 1_655 S
C592 C593 1.370 . S
C592 C594 1.363 . S
C592 H608 0.931 . S
C593 C592 1.370 . S
C593 C597 1.408 . S
C594 C592 1.363 . S
C594 C595 1.370 . S
C594 C598 1.524 . S
C595 C587 1.503 . S
C595 C594 1.370 . S
C595 C596 1.403 . S
C596 C595 1.403 . S
C596 C597 1.404 . S
C596 C599 1.539 . S
C597 C593 1.408 . S
C597 C596 1.404 . S
C597 H609 0.930 1_655 S
C598 C594 1.524 . S
C598 H610 0.956 . S
C598 H611 0.961 . S
C598 H612 0.961 . S
C599 C596 1.539 . S
C599 H613 0.958 . S
C599 H614 0.961 1_655 S
C599 H615 0.960 . S
H600 C584 0.931 . S
H601 C589 0.929 . S
H602 C590 0.960 . S
H603 C590 0.962 . S
H604 C590 0.960 . S
H605 C591 0.961 . S
H606 C591 0.961 . S
H607 C591 0.961 1_455 S
H608 C592 0.931 . S
H609 C597 0.930 1_455 S
H610 C598 0.956 . S
H611 C598 0.961 . S
H612 C598 0.961 . S
H613 C599 0.958 . S
H614 C599 0.961 1_455 S
H615 C599 0.960 . S
C616 C617 1.391 . S
C616 C618 1.394 . S
C616 H632 0.931 . S
C617 C616 1.391 . S
C617 C621 1.376 . S
C618 C616 1.394 . S
C618 C619 1.369 . S
C618 C622 1.531 . S
C619 C618 1.369 . S
C619 C620 1.410 . S
C619 C627 1.503 . S
C620 C619 1.410 . S
C620 C621 1.392 . S
C620 C623 1.511 . S
C621 C617 1.376 . S
C621 C620 1.392 . S
C621 H633 0.929 . S
C622 C618 1.531 . S
C622 H634 0.960 . S
C622 H635 0.962 . S
C622 H636 0.960 . S
C623 C620 1.511 . S
C623 H637 0.961 . S
C623 H638 0.961 . S
C623 H639 0.961 . S
C624 C625 1.370 . S
C624 C626 1.363 . S
C624 H640 0.931 . S
C625 C624 1.370 . S
C625 C629 1.408 . S
C626 C624 1.363 . S
C626 C627 1.370 . S
C626 C630 1.524 . S
C627 C619 1.503 . S
C627 C626 1.370 . S
C627 C628 1.403 . S
C628 C627 1.403 . S
C628 C629 1.404 . S
C628 C631 1.539 . S
C629 C625 1.408 . S
C629 C628 1.404 . S
C629 H641 0.930 . S
C630 C626 1.524 . S
C630 H642 0.956 . S
C630 H643 0.961 . S
C630 H644 0.961 . S
C631 C628 1.539 . S
C631 H645 0.958 . S
C631 H646 0.961 . S
C631 H647 0.960 . S
H632 C616 0.931 . S
H633 C621 0.929 . S
H634 C622 0.960 . S
H635 C622 0.962 . S
H636 C622 0.960 . S
H637 C623 0.961 . S
H638 C623 0.961 . S
H639 C623 0.961 . S
H640 C624 0.931 . S
H641 C629 0.930 . S
H642 C630 0.956 . S
H643 C630 0.961 . S
H644 C630 0.961 . S
H645 C631 0.958 . S
H646 C631 0.961 . S
H647 C631 0.960 . S
C648 C649 1.391 . S
C648 C650 1.394 . S
C648 H664 0.931 . S
C649 C648 1.391 . S
C649 C653 1.376 . S
C650 C648 1.394 . S
C650 C651 1.369 . S
C650 C654 1.531 . S
C651 C650 1.369 . S
C651 C652 1.410 . S
C651 C659 1.503 . S
C652 C651 1.410 . S
C652 C653 1.392 . S
C652 C655 1.511 . S
C653 C649 1.376 . S
C653 C652 1.392 . S
C653 H665 0.929 . S
C654 C650 1.531 . S
C654 H666 0.960 . S
C654 H667 0.962 . S
C654 H668 0.960 . S
C655 C652 1.511 . S
C655 H669 0.961 . S
C655 H670 0.961 . S
C655 H671 0.961 . S
C656 C657 1.370 . S
C656 C658 1.363 . S
C656 H672 0.931 . S
C657 C656 1.370 . S
C657 C661 1.408 . S
C658 C656 1.363 . S
C658 C659 1.370 . S
C658 C662 1.524 . S
C659 C651 1.503 . S
C659 C658 1.370 . S
C659 C660 1.403 . S
C660 C659 1.403 . S
C660 C661 1.404 . S
C660 C663 1.539 . S
C661 C657 1.408 . S
C661 C660 1.404 . S
C661 H673 0.930 . S
C662 C658 1.524 . S
C662 H674 0.956 . S
C662 H675 0.961 . S
C662 H676 0.961 . S
C663 C660 1.539 . S
C663 H677 0.958 . S
C663 H678 0.961 . S
C663 H679 0.960 . S
H664 C648 0.931 . S
H665 C653 0.929 . S
H666 C654 0.960 . S
H667 C654 0.962 . S
H668 C654 0.960 . S
H669 C655 0.961 . S
H670 C655 0.961 . S
H671 C655 0.961 . S
H672 C656 0.931 . S
H673 C661 0.930 . S
H674 C662 0.956 . S
H675 C662 0.961 . S
H676 C662 0.961 . S
H677 C663 0.958 . S
H678 C663 0.961 . S
H679 C663 0.960 . S
C680 C681 1.391 . S
C680 C682 1.394 . S
C680 H696 0.931 . S
C681 C680 1.391 . S
C681 C685 1.376 . S
C682 C680 1.394 . S
C682 C683 1.369 . S
C682 C686 1.531 . S
C683 C682 1.369 . S
C683 C684 1.410 . S
C683 C691 1.503 . S
C684 C683 1.410 . S
C684 C685 1.392 . S
C684 C687 1.511 . S
C685 C681 1.376 . S
C685 C684 1.392 . S
C685 H697 0.929 . S
C686 C682 1.531 . S
C686 H698 0.960 . S
C686 H699 0.962 . S
C686 H700 0.960 . S
C687 C684 1.511 . S
C687 H701 0.961 . S
C687 H702 0.961 . S
C687 H703 0.961 . S
C688 C689 1.370 . S
C688 C690 1.363 . S
C688 H704 0.931 . S
C689 C688 1.370 . S
C689 C693 1.408 . S
C690 C688 1.363 . S
C690 C691 1.370 . S
C690 C694 1.524 . S
C691 C683 1.503 . S
C691 C690 1.370 . S
C691 C692 1.403 . S
C692 C691 1.403 . S
C692 C693 1.404 . S
C692 C695 1.539 . S
C693 C689 1.408 . S
C693 C692 1.404 . S
C693 H705 0.930 . S
C694 C690 1.524 . S
C694 H706 0.956 . S
C694 H707 0.961 . S
C694 H708 0.961 . S
C695 C692 1.539 . S
C695 H709 0.958 . S
C695 H710 0.961 . S
C695 H711 0.960 . S
H696 C680 0.931 . S
H697 C685 0.929 . S
H698 C686 0.960 . S
H699 C686 0.962 . S
H700 C686 0.960 . S
H701 C687 0.961 . S
H702 C687 0.961 . S
H703 C687 0.961 . S
H704 C688 0.931 . S
H705 C693 0.930 . S
H706 C694 0.956 . S
H707 C694 0.961 . S
H708 C694 0.961 . S
H709 C695 0.958 . S
H710 C695 0.961 . S
H711 C695 0.960 . S
C712 C713 1.391 . S
C712 C714 1.394 . S
C712 H728 0.931 . S
C713 C712 1.391 . S
C713 C717 1.376 . S
C714 C712 1.394 . S
C714 C715 1.369 . S
C714 C718 1.531 . S
C715 C714 1.369 . S
C715 C716 1.410 . S
C715 C723 1.503 . S
C716 C715 1.410 . S
C716 C717 1.392 . S
C716 C719 1.511 . S
C717 C713 1.376 . S
C717 C716 1.392 . S
C717 H729 0.929 . S
C718 C714 1.531 . S
C718 H730 0.960 . S
C718 H731 0.962 . S
C718 H732 0.960 . S
C719 C716 1.511 . S
C719 H733 0.961 . S
C719 H734 0.961 . S
C719 H735 0.961 . S
C720 C721 1.370 . S
C720 C722 1.363 . S
C720 H736 0.931 . S
C721 C720 1.370 . S
C721 C725 1.408 . S
C722 C720 1.363 . S
C722 C723 1.370 . S
C722 C726 1.524 . S
C723 C715 1.503 . S
C723 C722 1.370 . S
C723 C724 1.403 . S
C724 C723 1.403 . S
C724 C725 1.404 . S
C724 C727 1.539 . S
C725 C721 1.408 . S
C725 C724 1.404 . S
C725 H737 0.930 . S
C726 C722 1.524 . S
C726 H738 0.956 . S
C726 H739 0.961 . S
C726 H740 0.961 . S
C727 C724 1.539 . S
C727 H741 0.958 . S
C727 H742 0.961 . S
C727 H743 0.960 . S
H728 C712 0.931 . S
H729 C717 0.929 . S
H730 C718 0.960 . S
H731 C718 0.962 . S
H732 C718 0.960 . S
H733 C719 0.961 . S
H734 C719 0.961 . S
H735 C719 0.961 . S
H736 C720 0.931 . S
H737 C725 0.930 . S
H738 C726 0.956 . S
H739 C726 0.961 . S
H740 C726 0.961 . S
H741 C727 0.958 . S
H742 C727 0.961 . S
H743 C727 0.960 . S
C744 C745 1.391 . S
C744 C746 1.394 . S
C744 H760 0.931 . S
C745 C744 1.391 . S
C745 C749 1.376 . S
C746 C744 1.394 . S
C746 C747 1.369 . S
C746 C750 1.531 . S
C747 C746 1.369 . S
C747 C748 1.410 . S
C747 C755 1.503 . S
C748 C747 1.410 . S
C748 C749 1.392 . S
C748 C751 1.511 . S
C749 C745 1.376 . S
C749 C748 1.392 . S
C749 H761 0.929 . S
C750 C746 1.531 . S
C750 H762 0.960 . S
C750 H763 0.962 . S
C750 H764 0.960 . S
C751 C748 1.511 . S
C751 H765 0.961 . S
C751 H766 0.961 . S
C751 H767 0.961 . S
C752 C753 1.370 . S
C752 C754 1.363 . S
C752 H768 0.931 . S
C753 C752 1.370 . S
C753 C757 1.408 . S
C754 C752 1.363 . S
C754 C755 1.370 . S
C754 C758 1.524 . S
C755 C747 1.503 . S
C755 C754 1.370 . S
C755 C756 1.403 . S
C756 C755 1.403 . S
C756 C757 1.404 . S
C756 C759 1.539 . S
C757 C753 1.408 . S
C757 C756 1.404 . S
C757 H769 0.930 . S
C758 C754 1.524 . S
C758 H770 0.956 . S
C758 H771 0.961 . S
C758 H772 0.961 . S
C759 C756 1.539 . S
C759 H773 0.958 . S
C759 H774 0.961 . S
C759 H775 0.960 . S
H760 C744 0.931 . S
H761 C749 0.929 . S
H762 C750 0.960 . S
H763 C750 0.962 . S
H764 C750 0.960 . S
H765 C751 0.961 . S
H766 C751 0.961 . S
H767 C751 0.961 . S
H768 C752 0.931 . S
H769 C757 0.930 . S
H770 C758 0.956 . S
H771 C758 0.961 . S
H772 C758 0.961 . S
H773 C759 0.958 . S
H774 C759 0.961 . S
H775 C759 0.960 . S
C776 C777 1.391 . S
C776 C778 1.394 . S
C776 H792 0.931 . S
C777 C776 1.391 . S
C777 C781 1.376 . S
C778 C776 1.394 . S
C778 C779 1.369 . S
C778 C782 1.531 . S
C779 C778 1.369 . S
C779 C780 1.410 . S
C779 C787 1.503 . S
C780 C779 1.410 . S
C780 C781 1.392 . S
C780 C783 1.511 . S
C781 C777 1.376 . S
C781 C780 1.392 . S
C781 H793 0.929 . S
C782 C778 1.531 . S
C782 H794 0.960 . S
C782 H795 0.962 . S
C782 H796 0.960 . S
C783 C780 1.511 . S
C783 H797 0.961 . S
C783 H798 0.961 . S
C783 H799 0.961 . S
C784 C785 1.370 . S
C784 C786 1.363 . S
C784 H800 0.931 . S
C785 C784 1.370 . S
C785 C789 1.408 . S
C786 C784 1.363 . S
C786 C787 1.370 . S
C786 C790 1.524 . S
C787 C779 1.503 . S
C787 C786 1.370 . S
C787 C788 1.403 . S
C788 C787 1.403 . S
C788 C789 1.404 . S
C788 C791 1.539 . S
C789 C785 1.408 . S
C789 C788 1.404 . S
C789 H801 0.930 . S
C790 C786 1.524 . S
C790 H802 0.956 . S
C790 H803 0.961 . S
C790 H804 0.961 . S
C791 C788 1.539 . S
C791 H805 0.958 . S
C791 H806 0.961 . S
C791 H807 0.960 . S
H792 C776 0.931 . S
H793 C781 0.929 . S
H794 C782 0.960 . S
H795 C782 0.962 . S
H796 C782 0.960 . S
H797 C783 0.961 . S
H798 C783 0.961 . S
H799 C783 0.961 . S
H800 C784 0.931 . S
H801 C789 0.930 . S
H802 C790 0.956 . S
H803 C790 0.961 . S
H804 C790 0.961 . S
H805 C791 0.958 . S
H806 C791 0.961 . S
H807 C791 0.960 . S
C808 C809 1.391 . S
C808 C810 1.394 . S
C808 H824 0.931 . S
C809 C808 1.391 . S
C809 C813 1.376 . S
C810 C808 1.394 . S
C810 C811 1.369 . S
C810 C814 1.531 . S
C811 C810 1.369 . S
C811 C812 1.410 . S
C811 C819 1.503 . S
C812 C811 1.410 . S
C812 C813 1.392 . S
C812 C815 1.511 . S
C813 C809 1.376 . S
C813 C812 1.392 . S
C813 H825 0.929 . S
C814 C810 1.531 . S
C814 H826 0.960 . S
C814 H827 0.962 . S
C814 H828 0.960 . S
C815 C812 1.511 . S
C815 H829 0.961 . S
C815 H830 0.961 . S
C815 H831 0.961 . S
C816 C817 1.370 . S
C816 C818 1.363 . S
C816 H832 0.931 . S
C817 C816 1.370 . S
C817 C821 1.408 . S
C818 C816 1.363 . S
C818 C819 1.370 . S
C818 C822 1.524 . S
C819 C811 1.503 . S
C819 C818 1.370 . S
C819 C820 1.403 . S
C820 C819 1.403 . S
C820 C821 1.404 . S
C820 C823 1.539 . S
C821 C817 1.408 . S
C821 C820 1.404 . S
C821 H833 0.930 . S
C822 C818 1.524 . S
C822 H834 0.956 . S
C822 H835 0.961 . S
C822 H836 0.961 . S
C823 C820 1.539 . S
C823 H837 0.958 . S
C823 H838 0.961 . S
C823 H839 0.960 . S
H824 C808 0.931 . S
H825 C813 0.929 . S
H826 C814 0.960 . S
H827 C814 0.962 . S
H828 C814 0.960 . S
H829 C815 0.961 . S
H830 C815 0.961 . S
H831 C815 0.961 . S
H832 C816 0.931 . S
H833 C821 0.930 . S
H834 C822 0.956 . S
H835 C822 0.961 . S
H836 C822 0.961 . S
H837 C823 0.958 . S
H838 C823 0.961 . S
H839 C823 0.960 . S
C840 C841 1.391 . S
C840 C842 1.394 . S
C840 H856 0.931 . S
C841 C840 1.391 . S
C841 C845 1.376 . S
C842 C840 1.394 . S
C842 C843 1.369 . S
C842 C846 1.531 . S
C843 C842 1.369 . S
C843 C844 1.410 . S
C843 C851 1.503 . S
C844 C843 1.410 . S
C844 C845 1.392 . S
C844 C847 1.511 . S
C845 C841 1.376 . S
C845 C844 1.392 . S
C845 H857 0.929 . S
C846 C842 1.531 . S
C846 H858 0.960 . S
C846 H859 0.962 . S
C846 H860 0.960 . S
C847 C844 1.511 . S
C847 H861 0.961 . S
C847 H862 0.961 . S
C847 H863 0.961 . S
C848 C849 1.370 . S
C848 C850 1.363 . S
C848 H864 0.931 . S
C849 C848 1.370 . S
C849 C853 1.408 . S
C850 C848 1.363 . S
C850 C851 1.370 . S
C850 C854 1.524 . S
C851 C843 1.503 . S
C851 C850 1.370 . S
C851 C852 1.403 . S
C852 C851 1.403 . S
C852 C853 1.404 . S
C852 C855 1.539 . S
C853 C849 1.408 . S
C853 C852 1.404 . S
C853 H865 0.930 . S
C854 C850 1.524 . S
C854 H866 0.956 . S
C854 H867 0.961 . S
C854 H868 0.961 . S
C855 C852 1.539 . S
C855 H869 0.958 . S
C855 H870 0.961 . S
C855 H871 0.960 . S
H856 C840 0.931 . S
H857 C845 0.929 . S
H858 C846 0.960 . S
H859 C846 0.962 . S
H860 C846 0.960 . S
H861 C847 0.961 . S
H862 C847 0.961 . S
H863 C847 0.961 . S
H864 C848 0.931 . S
H865 C853 0.930 . S
H866 C854 0.956 . S
H867 C854 0.961 . S
H868 C854 0.961 . S
H869 C855 0.958 . S
H870 C855 0.961 . S
H871 C855 0.960 . S
C872 C873 1.391 . S
C872 C874 1.394 . S
C872 H888 0.931 . S
C873 C872 1.391 . S
C873 C877 1.376 . S
C874 C872 1.394 . S
C874 C875 1.369 . S
C874 C878 1.531 . S
C875 C874 1.369 . S
C875 C876 1.410 . S
C875 C883 1.503 . S
C876 C875 1.410 . S
C876 C877 1.392 . S
C876 C879 1.511 . S
C877 C873 1.376 . S
C877 C876 1.392 . S
C877 H889 0.929 . S
C878 C874 1.531 . S
C878 H890 0.960 . S
C878 H891 0.962 . S
C878 H892 0.960 . S
C879 C876 1.511 . S
C879 H893 0.961 . S
C879 H894 0.961 . S
C879 H895 0.961 . S
C880 C881 1.370 . S
C880 C882 1.363 . S
C880 H896 0.931 . S
C881 C880 1.370 . S
C881 C885 1.408 . S
C882 C880 1.363 . S
C882 C883 1.370 . S
C882 C886 1.524 . S
C883 C875 1.503 . S
C883 C882 1.370 . S
C883 C884 1.403 . S
C884 C883 1.403 . S
C884 C885 1.404 . S
C884 C887 1.539 . S
C885 C881 1.408 . S
C885 C884 1.404 . S
C885 H897 0.930 . S
C886 C882 1.524 . S
C886 H898 0.956 . S
C886 H899 0.961 . S
C886 H900 0.961 . S
C887 C884 1.539 . S
C887 H901 0.958 . S
C887 H902 0.961 . S
C887 H903 0.960 . S
H888 C872 0.931 . S
H889 C877 0.929 . S
H890 C878 0.960 . S
H891 C878 0.962 . S
H892 C878 0.960 . S
H893 C879 0.961 . S
H894 C879 0.961 . S
H895 C879 0.961 . S
H896 C880 0.931 . S
H897 C885 0.930 . S
H898 C886 0.956 . S
H899 C886 0.961 . S
H900 C886 0.961 . S
H901 C887 0.958 . S
H902 C887 0.961 . S
H903 C887 0.960 . S
C904 C905 1.391 . S
C904 C906 1.394 . S
C904 H920 0.931 . S
C905 C904 1.391 . S
C905 C909 1.376 . S
C906 C904 1.394 . S
C906 C907 1.369 . S
C906 C910 1.531 . S
C907 C906 1.369 . S
C907 C908 1.410 . S
C907 C915 1.503 . S
C908 C907 1.410 . S
C908 C909 1.392 . S
C908 C911 1.511 . S
C909 C905 1.376 . S
C909 C908 1.392 . S
C909 H921 0.929 . S
C910 C906 1.531 . S
C910 H922 0.960 . S
C910 H923 0.962 . S
C910 H924 0.960 . S
C911 C908 1.511 . S
C911 H925 0.961 . S
C911 H926 0.961 . S
C911 H927 0.961 . S
C912 C913 1.370 . S
C912 C914 1.363 . S
C912 H928 0.931 . S
C913 C912 1.370 . S
C913 C917 1.408 . S
C914 C912 1.363 . S
C914 C915 1.370 . S
C914 C918 1.524 . S
C915 C907 1.503 . S
C915 C914 1.370 . S
C915 C916 1.403 . S
C916 C915 1.403 . S
C916 C917 1.404 . S
C916 C919 1.539 . S
C917 C913 1.408 . S
C917 C916 1.404 . S
C917 H929 0.930 . S
C918 C914 1.524 . S
C918 H930 0.956 . S
C918 H931 0.961 . S
C918 H932 0.961 . S
C919 C916 1.539 . S
C919 H933 0.958 . S
C919 H934 0.961 . S
C919 H935 0.960 . S
H920 C904 0.931 . S
H921 C909 0.929 . S
H922 C910 0.960 . S
H923 C910 0.962 . S
H924 C910 0.960 . S
H925 C911 0.961 . S
H926 C911 0.961 . S
H927 C911 0.961 . S
H928 C912 0.931 . S
H929 C917 0.930 . S
H930 C918 0.956 . S
H931 C918 0.961 . S
H932 C918 0.961 . S
H933 C919 0.958 . S
H934 C919 0.961 . S
H935 C919 0.960 . S
C936 C937 1.391 . S
C936 C938 1.394 . S
C936 H952 0.931 . S
C937 C936 1.391 . S
C937 C941 1.376 . S
C938 C936 1.394 . S
C938 C939 1.369 . S
C938 C942 1.531 . S
C939 C938 1.369 . S
C939 C940 1.410 . S
C939 C947 1.503 . S
C940 C939 1.410 . S
C940 C941 1.392 . S
C940 C943 1.511 . S
C941 C937 1.376 . S
C941 C940 1.392 . S
C941 H953 0.929 . S
C942 C938 1.531 . S
C942 H954 0.960 . S
C942 H955 0.962 . S
C942 H956 0.960 . S
C943 C940 1.511 . S
C943 H957 0.961 . S
C943 H958 0.961 . S
C943 H959 0.961 . S
C944 C945 1.370 . S
C944 C946 1.363 . S
C944 H960 0.931 . S
C945 C944 1.370 . S
C945 C949 1.408 . S
C946 C944 1.363 . S
C946 C947 1.370 . S
C946 C950 1.524 . S
C947 C939 1.503 . S
C947 C946 1.370 . S
C947 C948 1.403 . S
C948 C947 1.403 . S
C948 C949 1.404 . S
C948 C951 1.539 . S
C949 C945 1.408 . S
C949 C948 1.404 . S
C949 H961 0.930 . S
C950 C946 1.524 . S
C950 H962 0.956 . S
C950 H963 0.961 . S
C950 H964 0.961 . S
C951 C948 1.539 . S
C951 H965 0.958 . S
C951 H966 0.961 . S
C951 H967 0.960 . S
H952 C936 0.931 . S
H953 C941 0.929 . S
H954 C942 0.960 . S
H955 C942 0.962 . S
H956 C942 0.960 . S
H957 C943 0.961 . S
H958 C943 0.961 . S
H959 C943 0.961 . S
H960 C944 0.931 . S
H961 C949 0.930 . S
H962 C950 0.956 . S
H963 C950 0.961 . S
H964 C950 0.961 . S
H965 C951 0.958 . S
H966 C951 0.961 . S
H967 C951 0.960 . S
C968 C969 1.391 . S
C968 C970 1.394 . S
C968 H984 0.931 . S
C969 C968 1.391 . S
C969 C973 1.376 . S
C970 C968 1.394 . S
C970 C971 1.369 . S
C970 C974 1.531 . S
C971 C970 1.369 . S
C971 C972 1.410 . S
C971 C979 1.503 . S
C972 C971 1.410 . S
C972 C973 1.392 . S
C972 C975 1.511 . S
C973 C969 1.376 . S
C973 C972 1.392 . S
C973 H985 0.929 . S
C974 C970 1.531 . S
C974 H986 0.960 . S
C974 H987 0.962 . S
C974 H988 0.960 . S
C975 C972 1.511 . S
C975 H989 0.961 . S
C975 H990 0.961 . S
C975 H991 0.961 . S
C976 C977 1.370 . S
C976 C978 1.363 . S
C976 H992 0.931 . S
C977 C976 1.370 . S
C977 C981 1.408 . S
C978 C976 1.363 . S
C978 C979 1.370 . S
C978 C982 1.524 . S
C979 C971 1.503 . S
C979 C978 1.370 . S
C979 C980 1.403 . S
C980 C979 1.403 . S
C980 C981 1.404 . S
C980 C983 1.539 . S
C981 C977 1.408 . S
C981 C980 1.404 . S
C981 H993 0.930 . S
C982 C978 1.524 . S
C982 H994 0.956 . S
C982 H995 0.961 . S
C982 H996 0.961 . S
C983 C980 1.539 . S
C983 H997 0.958 . S
C983 H998 0.961 . S
C983 H999 0.960 . S
H984 C968 0.931 . S
H985 C973 0.929 . S
H986 C974 0.960 . S
H987 C974 0.962 . S
H988 C974 0.960 . S
H989 C975 0.961 . S
H990 C975 0.961 . S
H991 C975 0.961 . S
H992 C976 0.931 . S
H993 C981 0.930 . S
H994 C982 0.956 . S
H995 C982 0.961 . S
H996 C982 0.961 . S
H997 C983 0.958 . S
H998 C983 0.961 . S
H999 C983 0.960 . S
C1000 C1001 1.391 . S
C1000 C1002 1.394 . S
C1000 H1016 0.931 . S
C1001 C1000 1.391 . S
C1001 C1005 1.376 . S
C1002 C1000 1.394 . S
C1002 C1003 1.369 . S
C1002 C1006 1.531 . S
C1003 C1002 1.369 . S
C1003 C1004 1.410 . S
C1003 C1011 1.503 . S
C1004 C1003 1.410 . S
C1004 C1005 1.392 . S
C1004 C1007 1.511 . S
C1005 C1001 1.376 . S
C1005 C1004 1.392 . S
C1005 H1017 0.929 . S
C1006 C1002 1.531 . S
C1006 H1018 0.960 . S
C1006 H1019 0.962 . S
C1006 H1020 0.960 . S
C1007 C1004 1.511 . S
C1007 H1021 0.961 . S
C1007 H1022 0.961 . S
C1007 H1023 0.961 . S
C1008 C1009 1.370 . S
C1008 C1010 1.363 . S
C1008 H1024 0.931 . S
C1009 C1008 1.370 . S
C1009 C1013 1.408 . S
C1010 C1008 1.363 . S
C1010 C1011 1.370 . S
C1010 C1014 1.524 . S
C1011 C1003 1.503 . S
C1011 C1010 1.370 . S
C1011 C1012 1.403 . S
C1012 C1011 1.403 . S
C1012 C1013 1.404 . S
C1012 C1015 1.539 . S
C1013 C1009 1.408 . S
C1013 C1012 1.404 . S
C1013 H1025 0.930 . S
C1014 C1010 1.524 . S
C1014 H1026 0.956 . S
C1014 H1027 0.961 . S
C1014 H1028 0.961 . S
C1015 C1012 1.539 . S
C1015 H1029 0.958 . S
C1015 H1030 0.961 . S
C1015 H1031 0.960 . S
H1016 C1000 0.931 . S
H1017 C1005 0.929 . S
H1018 C1006 0.960 . S
H1019 C1006 0.962 . S
H1020 C1006 0.960 . S
H1021 C1007 0.961 . S
H1022 C1007 0.961 . S
H1023 C1007 0.961 . S
H1024 C1008 0.931 . S
H1025 C1013 0.930 . S
H1026 C1014 0.956 . S
H1027 C1014 0.961 . S
H1028 C1014 0.961 . S
H1029 C1015 0.958 . S
H1030 C1015 0.961 . S
H1031 C1015 0.960 . S
C265 C9 1.395 . S
C273 C110 1.458 . S
C297 C21 1.030 . S
C305 C159 1.093 . S
C337 C194 2.203 . S
C329 C30 2.227 . S
C361 C43 2.212 . S
C369 C233 2.279 1_655 S
C401 C154 2.078 . S
C393 C4 1.842 . S
C433 C113 1.500 . S
C425 C22 1.587 . S
C465 C243 1.553 1_556 S
C457 C34 1.625 . S
C497 C202 1.548 . S
C489 C48 1.564 . S
C521 C8 1.513 . S
C529 C230 1.599 . S
C561 C162 2.272 . S
C553 C35 2.358 . S
C585 C47 2.583 . S
C593 C123 2.577 . S
C617 C17 0.879 . S
C625 C199 0.845 . S
C657 C119 1.001 . S
C649 C60 1.006 . S
C681 C74 1.105 . S
C689 C150 1.075 . S
C713 C82 1.983 . S
C721 C203 1.998 . S
C745 C100 2.780 . S
C753 C242 2.700 . S
C777 C61 2.416 . S
C785 C163 2.511 . S
C817 C122 0.745 . S
C809 C73 0.725 . S
C849 C234 2.129 . S
C841 C87 2.190 . S
C881 C193 1.318 . S
C873 C95 1.336 . S
C905 C56 1.467 . S
C913 C239 1.475 . S
C945 C153 2.483 . S
C937 C86 2.548 . S
C977 C114 2.369 . S
C969 C99 2.364 . S
C1001 C69 0.781 . S
C1009 C190 0.713 . S
