# Generated by pormake.
# Topology pyr, (3,6)-cn, num edge types: 1
# Building blocks:
#     Node 0, Type 0, BuildingBlock: BETDIP_clean_linker_0, # of connection points: 3
#     Node 1, Type 0, BuildingBlock: BETDIP_clean_linker_0, # of connection points: 3
#     Node 2, Type 0, BuildingBlock: BETDIP_clean_linker_0, # of connection points: 3
#     Node 3, Type 0, BuildingBlock: BETDIP_clean_linker_0, # of connection points: 3
#     Node 4, Type 0, BuildingBlock: BETDIP_clean_linker_0, # of connection points: 3
#     Node 5, Type 0, BuildingBlock: BETDIP_clean_linker_0, # of connection points: 3
#     Node 6, Type 0, BuildingBlock: BETDIP_clean_linker_0, # of connection points: 3
#     Node 7, Type 0, BuildingBlock: BETDIP_clean_linker_0, # of connection points: 3
#     Node 8, Type 1, BuildingBlock: VOLQOD_clean_sbu_1, # of connection points: 6
#     Node 9, Type 1, BuildingBlock: VOLQOD_clean_sbu_1, # of connection points: 6
#     Node 10, Type 1, BuildingBlock: VOLQOD_clean_sbu_1, # of connection points: 6
#     Node 11, Type 1, BuildingBlock: VOLQOD_clean_sbu_1, # of connection points: 6
#     Edge 12, Type (0, 1), BuildingBlock: UVAHIK_clean_linker_0, # of connection points: 2
#     Edge 13, Type (0, 1), BuildingBlock: UVAHIK_clean_linker_0, # of connection points: 2
#     Edge 14, Type (0, 1), BuildingBlock: UVAHIK_clean_linker_0, # of connection points: 2
#     Edge 15, Type (0, 1), BuildingBlock: UVAHIK_clean_linker_0, # of connection points: 2
#     Edge 16, Type (0, 1), BuildingBlock: UVAHIK_clean_linker_0, # of connection points: 2
#     Edge 17, Type (0, 1), BuildingBlock: UVAHIK_clean_linker_0, # of connection points: 2
#     Edge 18, Type (0, 1), BuildingBlock: UVAHIK_clean_linker_0, # of connection points: 2
#     Edge 19, Type (0, 1), BuildingBlock: UVAHIK_clean_linker_0, # of connection points: 2
#     Edge 20, Type (0, 1), BuildingBlock: UVAHIK_clean_linker_0, # of connection points: 2
#     Edge 21, Type (0, 1), BuildingBlock: UVAHIK_clean_linker_0, # of connection points: 2
#     Edge 22, Type (0, 1), BuildingBlock: UVAHIK_clean_linker_0, # of connection points: 2
#     Edge 23, Type (0, 1), BuildingBlock: UVAHIK_clean_linker_0, # of connection points: 2
#     Edge 24, Type (0, 1), BuildingBlock: UVAHIK_clean_linker_0, # of connection points: 2
#     Edge 25, Type (0, 1), BuildingBlock: UVAHIK_clean_linker_0, # of connection points: 2
#     Edge 26, Type (0, 1), BuildingBlock: UVAHIK_clean_linker_0, # of connection points: 2
#     Edge 27, Type (0, 1), BuildingBlock: UVAHIK_clean_linker_0, # of connection points: 2
#     Edge 28, Type (0, 1), BuildingBlock: UVAHIK_clean_linker_0, # of connection points: 2
#     Edge 29, Type (0, 1), BuildingBlock: UVAHIK_clean_linker_0, # of connection points: 2
#     Edge 30, Type (0, 1), BuildingBlock: UVAHIK_clean_linker_0, # of connection points: 2
#     Edge 31, Type (0, 1), BuildingBlock: UVAHIK_clean_linker_0, # of connection points: 2
#     Edge 32, Type (0, 1), BuildingBlock: UVAHIK_clean_linker_0, # of connection points: 2
#     Edge 33, Type (0, 1), BuildingBlock: UVAHIK_clean_linker_0, # of connection points: 2
#     Edge 34, Type (0, 1), BuildingBlock: UVAHIK_clean_linker_0, # of connection points: 2
#     Edge 35, Type (0, 1), BuildingBlock: UVAHIK_clean_linker_0, # of connection points: 2
# Relax obj value: 0.104
# Max RMSD: 0.185
# Mean RMSD: 0.151
data_MOF--net-pry--node1-VOLQOD_clean_sbu_1--node2-BETDIP_clean_linker_0--edge1-UVAHIK_clean_linker_0
_symmetry_space_group_name_H-M    P1
_symmetry_Int_Tables_number       1
_symmetry_cell_setting            triclinic
loop_
_symmetry_equiv_pos_as_xyz
'x, y, z'
_cell_length_a     46.973333
_cell_length_b     46.418735
_cell_length_c     48.96758
_cell_angle_alpha  93.148364
_cell_angle_beta   85.90187
_cell_angle_gamma 96.893096
loop_
_atom_site_label
_atom_site_type_symbol
_atom_site_fract_x
_atom_site_fract_y
_atom_site_fract_z
_atom_type_partial_charge
H0 H 0.09583 0.15317 0.17512 0.0
H1 H 0.16145 0.15104 0.10921 0.0
H2 H 0.15745 0.09154 0.17373 0.0
H3 H 0.13346 0.17408 0.08675 0.0
C4 C 0.12025 0.18606 0.10128 0.0
C5 C 0.11416 0.14374 0.16521 0.0
C6 C 0.12504 0.12091 0.17723 0.0
C7 C 0.12645 0.15426 0.14023 0.0
C8 C 0.15082 0.14254 0.12786 0.0
C9 C 0.16197 0.11975 0.13972 0.0
C10 C 0.14864 0.10873 0.16417 0.0
N11 N 0.11416 0.177 0.1286 0.0
H12 H 0.38304 0.91457 0.67148 0.0
H13 H 0.38393 0.85121 0.60423 0.0
H14 H 0.4257 0.83807 0.67684 0.0
H15 H 0.36771 0.88463 0.5809 0.0
C16 C 0.35637 0.89838 0.59546 0.0
C17 C 0.38947 0.89422 0.6627 0.0
C18 C 0.40539 0.87753 0.67769 0.0
C19 C 0.38171 0.88517 0.63625 0.0
C20 C 0.39032 0.85905 0.62433 0.0
C21 C 0.40642 0.84211 0.63884 0.0
C22 C 0.41367 0.85138 0.66553 0.0
N23 N 0.36398 0.90224 0.62312 0.0
H24 H 0.64652 0.44429 0.88283 0.0
H25 H 0.58 0.37227 0.87764 0.0
H26 H 0.64719 0.3709 0.93239 0.0
H27 H 0.55499 0.40482 0.86119 0.0
C28 C 0.57112 0.41848 0.84927 0.0
C29 C 0.63661 0.42345 0.88981 0.0
C30 C 0.65006 0.40881 0.90866 0.0
C31 C 0.61093 0.41084 0.87901 0.0
C32 C 0.59881 0.38306 0.88702 0.0
C33 C 0.61186 0.36832 0.90615 0.0
C34 C 0.6372 0.38169 0.91716 0.0
N35 N 0.59917 0.42566 0.85859 0.0
H36 H 0.88851 0.55193 0.40483 0.0
H37 H 0.9602 0.61828 0.41097 0.0
H38 H 0.88137 0.62738 0.45871 0.0
H39 H 0.91889 0.52637 0.37985 0.0
C40 C 0.93488 0.54256 0.37084 0.0
C41 C 0.89831 0.57185 0.41437 0.0
C42 C 0.88152 0.58785 0.43317 0.0
C43 C 0.92701 0.58251 0.40682 0.0
C44 C 0.93865 0.60941 0.41792 0.0
C45 C 0.92195 0.62595 0.43599 0.0
C46 C 0.89384 0.61468 0.44418 0.0
N47 N 0.94376 0.56879 0.38579 0.0
H48 H 0.87565 0.91485 0.94822 0.0
H49 H 0.94335 0.91245 0.88445 0.0
H50 H 0.86846 0.95356 0.87168 0.0
H51 H 0.96814 0.89641 0.91614 0.0
C52 C 0.95248 0.88533 0.93052 0.0
C53 C 0.88475 0.92078 0.92804 0.0
C54 C 0.86913 0.93565 0.91119 0.0
C55 C 0.91143 0.91217 0.91868 0.0
C56 C 0.9229 0.91911 0.89214 0.0
C57 C 0.9077 0.93442 0.8751 0.0
C58 C 0.88075 0.94243 0.88482 0.0
N59 N 0.92478 0.89466 0.93575 0.0
H60 H 0.64014 0.08135 0.36521 0.0
H61 H 0.62818 0.13594 0.43792 0.0
H62 H 0.57633 0.14093 0.37007 0.0
H63 H 0.65576 0.10894 0.45674 0.0
C64 C 0.66825 0.09789 0.44085 0.0
C65 C 0.62861 0.09751 0.37657 0.0
C66 C 0.60702 0.10981 0.36438 0.0
C67 C 0.63628 0.10642 0.40311 0.0
C68 C 0.62224 0.12829 0.41766 0.0
C69 C 0.60049 0.14081 0.40586 0.0
C70 C 0.59292 0.13123 0.37934 0.0
N71 N 0.65913 0.09381 0.41369 0.0
H72 H 0.38036 0.55485 0.12332 0.0
H73 H 0.45049 0.62274 0.13371 0.0
H74 H 0.37534 0.64059 0.09621 0.0
H75 H 0.47531 0.58612 0.14201 0.0
C76 C 0.45924 0.57138 0.15288 0.0
C77 C 0.39004 0.57693 0.12029 0.0
C78 C 0.37455 0.5966 0.10854 0.0
C79 C 0.41751 0.58593 0.12939 0.0
C80 C 0.42976 0.61492 0.12614 0.0
C81 C 0.41443 0.63461 0.11434 0.0
C82 C 0.38701 0.62532 0.10556 0.0
N83 N 0.43085 0.56617 0.14402 0.0
H84 H 0.03751 0.40565 0.59894 0.0
H85 H 0.11208 0.46899 0.60214 0.0
H86 H 0.11585 0.39143 0.55142 0.0
H87 H 0.0812 0.49793 0.62379 0.0
C88 C 0.06728 0.48214 0.63564 0.0
C89 C 0.05938 0.413 0.59174 0.0
C90 C 0.07479 0.39519 0.57347 0.0
C91 C 0.0724 0.43973 0.60206 0.0
C92 C 0.10114 0.44904 0.59361 0.0
C93 C 0.11648 0.43193 0.57476 0.0
C94 C 0.10319 0.40526 0.56463 0.0
N95 N 0.0571 0.45482 0.62324 0.0
O96 O 0.0074 0.07153 0.54714 0.0
Zn97 Zn 0.99092 0.0295 0.54421 0.0
O98 O 0.01612 0.00709 0.52001 0.0
Zn99 Zn 0.99582 0.99117 0.48784 0.0
Zn100 Zn 0.05118 0.03187 0.50816 0.0
Zn101 Zn 0.02668 0.97539 0.54016 0.0
O102 O 0.99225 0.94737 0.48561 0.0
O103 O 0.01379 0.93678 0.5221 0.0
O104 O 0.95187 0.02849 0.5291 0.0
O105 O 0.95579 0.00311 0.48952 0.0
O106 O 0.01645 0.00582 0.45271 0.0
O107 O 0.05436 0.03435 0.46711 0.0
O108 O 0.0874 0.01706 0.5198 0.0
O109 O 0.98546 0.01435 0.5824 0.0
O110 O 0.06932 0.97752 0.54141 0.0
O111 O 0.00966 0.97597 0.57904 0.0
C112 C 0.03059 0.08556 0.53754 0.0
C113 C 0.00054 0.92888 0.50068 0.0
C114 C 0.03923 0.02309 0.44784 0.0
C115 C 0.94122 0.01761 0.50708 0.0
C116 C 0.09078 0.99475 0.53277 0.0
C117 C 0.99405 0.99276 0.59304 0.0
O118 O 0.04931 0.07294 0.52282 0.0
O119 O 0.49888 0.06498 0.98885 0.0
Zn120 Zn 0.48093 0.02425 0.9964 0.0
O121 O 0.50551 0.00506 0.01868 0.0
Zn122 Zn 0.51761 0.97075 0.99815 0.0
Zn123 Zn 0.5398 0.03132 0.02748 0.0
Zn124 Zn 0.48379 0.99376 0.05278 0.0
O125 O 0.50518 0.93468 0.01901 0.0
O126 O 0.47993 0.9504 0.05577 0.0
O127 O 0.47461 0.00218 0.96013 0.0
O128 O 0.50055 0.96537 0.96139 0.0
O129 O 0.56059 0.97384 0.99107 0.0
O130 O 0.57619 0.01542 0.01261 0.0
O131 O 0.54259 0.03797 0.06833 0.0
O132 O 0.44205 0.02754 0.01586 0.0
O133 O 0.50371 0.01158 0.0858 0.0
O134 O 0.44421 0.00679 0.0553 0.0
C135 C 0.52187 0.08005 0.99599 0.0
C136 C 0.49003 0.92987 0.04128 0.0
C137 C 0.58105 0.99257 0.99831 0.0
C138 C 0.48395 0.97933 0.9491 0.0
C139 C 0.52674 0.02858 0.0889 0.0
C140 C 0.43063 0.01987 0.0391 0.0
O141 O 0.53915 0.06981 0.01078 0.0
O142 O 0.52495 0.50509 0.56479 0.0
Zn143 Zn 0.52454 0.52029 0.52694 0.0
O144 O 0.50005 0.49326 0.50393 0.0
Zn145 Zn 0.52321 0.47741 0.47338 0.0
Zn146 Zn 0.4811 0.46127 0.52561 0.0
Zn147 Zn 0.47131 0.51417 0.4893 0.0
O148 O 0.51196 0.48917 0.43701 0.0
O149 O 0.47718 0.51685 0.44831 0.0
O150 O 0.56553 0.52498 0.51091 0.0
O151 O 0.56494 0.49184 0.47633 0.0
O152 O 0.51953 0.43393 0.47284 0.0
O153 O 0.49155 0.42221 0.50997 0.0
O154 O 0.43798 0.46049 0.52677 0.0
O155 O 0.50994 0.5597 0.53183 0.0
O156 O 0.43163 0.49437 0.49813 0.0
O157 O 0.47218 0.55465 0.50649 0.0
C158 C 0.51102 0.48358 0.57681 0.0
C159 C 0.49374 0.50528 0.4303 0.0
C160 C 0.50679 0.41495 0.4887 0.0
C161 C 0.57845 0.51123 0.49149 0.0
C162 C 0.42158 0.47428 0.51403 0.0
C163 C 0.4886 0.56985 0.52275 0.0
O164 O 0.49315 0.46562 0.56434 0.0
O165 O 0.98214 0.50811 0.06476 0.0
Zn166 Zn 0.98541 0.49458 0.02516 0.0
O167 O 0.01202 0.52221 0.00411 0.0
Zn168 Zn 0.99146 0.53767 0.97629 0.0
Zn169 Zn 0.02752 0.55462 0.0283 0.0
Zn170 Zn 0.04327 0.50212 0.98613 0.0
O171 O 0.00886 0.52927 0.93873 0.0
O172 O 0.04468 0.50368 0.94477 0.0
O173 O 0.94551 0.48981 0.01104 0.0
O174 O 0.9504 0.52027 0.97719 0.0
O175 O 0.99193 0.58078 0.98121 0.0
O176 O 0.01785 0.59359 0.01695 0.0
O177 O 0.07054 0.55614 0.02824 0.0
O178 O 0.00013 0.45538 0.02452 0.0
O179 O 0.0814 0.52012 0.99906 0.0
O180 O 0.03941 0.46026 0.99636 0.0
C181 C 0.99398 0.52967 0.07867 0.0
C182 C 0.02953 0.51562 0.92907 0.0
C183 C 0.00321 0.60022 0.99776 0.0
C184 C 0.93504 0.50173 0.9918 0.0
C185 C 0.08894 0.54112 0.01585 0.0
C186 C 0.0217 0.44496 0.01218 0.0
O187 O 0.0118 0.54905 0.06735 0.0
C188 C 0.10402 0.08074 0.20724 0.0
C189 C 0.11265 0.11042 0.20402 0.0
C190 C 0.09391 0.07061 0.23293 0.0
C191 C 0.06911 0.09601 0.30369 0.0
H192 H 0.08764 0.02065 0.32256 0.0
C193 C 0.06442 0.05812 0.41457 0.0
C194 C 0.04751 0.03156 0.41941 0.0
C195 C 0.07105 0.06707 0.38786 0.0
C196 C 0.08217 0.04164 0.31744 0.0
H197 H 0.11769 0.15283 0.22491 0.0
H198 H 0.10131 0.13523 0.26998 0.0
H199 H 0.10162 0.03789 0.27684 0.0
H200 H 0.02483 0.99326 0.40001 0.0
H201 H 0.03735 0.00859 0.35308 0.0
H202 H 0.05093 0.10009 0.34496 0.0
C203 C 0.10125 0.1197 0.25266 0.0
C204 C 0.08998 0.05152 0.29117 0.0
C205 C 0.1108 0.12986 0.22686 0.0
C206 C 0.03786 0.01385 0.39691 0.0
C207 C 0.04505 0.02254 0.37012 0.0
C208 C 0.06186 0.08635 0.3301 0.0
C209 C 0.09279 0.08988 0.25614 0.0
C210 C 0.08363 0.07891 0.28391 0.0
C211 C 0.06142 0.04938 0.36542 0.0
C212 C 0.06839 0.05913 0.3372 0.0
H213 H 0.1051 0.06537 0.18983 0.0
H214 H 0.087 0.04763 0.23451 0.0
H215 H 0.0632 0.11688 0.29883 0.0
H216 H 0.07204 0.07234 0.43147 0.0
H217 H 0.08387 0.08777 0.3847 0.0
C218 C 0.43997 0.88302 0.71521 0.0
C219 C 0.4132 0.88739 0.70598 0.0
C220 C 0.44735 0.89251 0.74165 0.0
C221 C 0.41562 0.91714 0.80974 0.0
H222 H 0.49473 0.94693 0.82152 0.0
C223 C 0.45184 0.97841 0.91013 0.0
C224 C 0.47557 0.96882 0.92136 0.0
C225 C 0.44393 0.96826 0.88399 0.0
C226 C 0.47259 0.93851 0.81853 0.0
H227 H 0.37303 0.90487 0.7178 0.0
H228 H 0.38642 0.92267 0.76318 0.0
H229 H 0.4815 0.9299 0.77566 0.0
H230 H 0.50979 0.94127 0.9138 0.0
H231 H 0.49623 0.92401 0.86801 0.0
H232 H 0.40675 0.92663 0.85265 0.0
C233 C 0.40154 0.91132 0.75025 0.0
C234 C 0.46498 0.92858 0.79228 0.0
C235 C 0.39402 0.9015 0.72395 0.0
C236 C 0.49134 0.94903 0.90579 0.0
C237 C 0.4837 0.93925 0.87952 0.0
C238 C 0.42318 0.92747 0.83592 0.0
C239 C 0.42831 0.90697 0.7595 0.0
C240 C 0.4364 0.91764 0.78751 0.0
C241 C 0.45987 0.94869 0.8684 0.0
C242 C 0.45175 0.93814 0.84058 0.0
H243 H 0.45547 0.87257 0.70191 0.0
H244 H 0.46797 0.88832 0.74811 0.0
H245 H 0.39352 0.9084 0.80707 0.0
H246 H 0.43921 0.99359 0.92161 0.0
H247 H 0.42557 0.97601 0.87581 0.0
C248 C 0.58312 0.44735 0.80719 0.0
C249 C 0.5638 0.42812 0.82264 0.0
C250 C 0.57639 0.455 0.78139 0.0
C251 C 0.53313 0.42773 0.72417 0.0
H252 H 0.54647 0.50711 0.70119 0.0
C253 C 0.49751 0.45863 0.62074 0.0
C254 C 0.51597 0.479 0.60571 0.0
C255 C 0.50254 0.45363 0.64775 0.0
C256 C 0.54294 0.48478 0.70715 0.0
H257 H 0.52223 0.40227 0.82364 0.0
H258 H 0.5105 0.41549 0.77845 0.0
H259 H 0.55685 0.49636 0.74747 0.0
H260 H 0.55413 0.51023 0.6074 0.0
H261 H 0.56332 0.50099 0.65429 0.0
H262 H 0.51987 0.4159 0.68386 0.0
C263 C 0.53087 0.42452 0.7862 0.0
C264 C 0.54881 0.47866 0.73369 0.0
C265 C 0.53749 0.41709 0.81208 0.0
C266 C 0.53942 0.49448 0.61843 0.0
C267 C 0.5446 0.48928 0.6454 0.0
C268 C 0.52749 0.43378 0.6976 0.0
C269 C 0.55035 0.44336 0.77049 0.0
C270 C 0.5439 0.45008 0.74248 0.0
C271 C 0.52631 0.46866 0.66035 0.0
C272 C 0.53225 0.46239 0.68875 0.0
H273 H 0.60358 0.45625 0.81482 0.0
H274 H 0.59189 0.46941 0.76965 0.0
H275 H 0.52958 0.40542 0.73023 0.0
H276 H 0.47909 0.44651 0.61167 0.0
H277 H 0.48766 0.43803 0.65878 0.0
C278 C 0.96493 0.55968 0.3292 0.0
C279 C 0.94447 0.53897 0.34158 0.0
C280 C 0.97172 0.55775 0.301 0.0
C281 C 0.9668 0.50822 0.23937 0.0
H282 H 0.97107 0.57994 0.20138 0.0
C283 C 0.96859 0.50996 0.12164 0.0
C284 C 0.98782 0.53144 0.10876 0.0
C285 C 0.96378 0.51074 0.15012 0.0
C286 C 0.97029 0.55978 0.2117 0.0
H287 H 0.91585 0.49954 0.33451 0.0
H288 H 0.92756 0.49621 0.28503 0.0
H289 H 0.96279 0.58079 0.25107 0.0
H290 H 0.01684 0.57077 0.11582 0.0
H291 H 0.00852 0.572 0.16554 0.0
H292 H 0.97417 0.48721 0.19992 0.0
C293 C 0.9385 0.51381 0.29715 0.0
C294 C 0.96557 0.56026 0.24018 0.0
C295 C 0.93172 0.51573 0.32542 0.0
C296 C 0.00182 0.55394 0.12503 0.0
C297 C 0.99698 0.55471 0.15354 0.0
C298 C 0.97153 0.50774 0.21086 0.0
C299 C 0.95819 0.53512 0.28458 0.0
C300 C 0.96376 0.53449 0.25434 0.0
C301 C 0.97805 0.53301 0.16641 0.0
C302 C 0.97326 0.53352 0.19671 0.0
H303 H 0.97534 0.57774 0.34114 0.0
H304 H 0.98739 0.57419 0.29201 0.0
H305 H 0.96585 0.48806 0.24972 0.0
H306 H 0.95735 0.49235 0.10976 0.0
H307 H 0.94871 0.49397 0.15938 0.0
C308 C 0.18943 0.07804 0.124 0.0
C309 C 0.18821 0.10813 0.12718 0.0
C310 C 0.21448 0.06716 0.11291 0.0
C311 C 0.28366 0.08871 0.07319 0.0
H312 H 0.30665 0.02049 0.10387 0.0
C313 C 0.38414 0.03742 0.02906 0.0
C314 C 0.40141 0.02725 0.04788 0.0
C315 C 0.3571 0.04558 0.03762 0.0
C316 C 0.30069 0.0397 0.09519 0.0
H317 H 0.21229 0.15044 0.12157 0.0
H318 H 0.25617 0.13159 0.1028 0.0
H319 H 0.26204 0.03869 0.12114 0.0
H320 H 0.40365 0.0175 0.09045 0.0
H321 H 0.35694 0.03242 0.10548 0.0
H322 H 0.32293 0.09053 0.04813 0.0
C323 C 0.23761 0.11628 0.10814 0.0
C324 C 0.27484 0.04992 0.10484 0.0
C325 C 0.21249 0.12713 0.11897 0.0
C326 C 0.39085 0.02507 0.07537 0.0
C327 C 0.36393 0.0335 0.08397 0.0
C328 C 0.30962 0.07865 0.06371 0.0
C329 C 0.23899 0.08615 0.10501 0.0
C330 C 0.26605 0.07466 0.09407 0.0
C331 C 0.34676 0.04404 0.06525 0.0
C332 C 0.31857 0.05409 0.07468 0.0
H333 H 0.17092 0.06291 0.12992 0.0
H334 H 0.21454 0.04385 0.11038 0.0
H335 H 0.27743 0.10756 0.0641 0.0
H336 H 0.39152 0.03916 0.00769 0.0
H337 H 0.34428 0.05306 0.02251 0.0
C338 C 0.32333 0.9063 0.55961 0.0
C339 C 0.33228 0.91244 0.58626 0.0
C340 C 0.29946 0.91795 0.55116 0.0
C341 C 0.2513 0.97506 0.56805 0.0
H342 H 0.19532 0.92085 0.53154 0.0
C343 C 0.14468 0.00715 0.53066 0.0
C344 C 0.12006 0.98782 0.53736 0.0
C345 C 0.17214 -0.00018 0.5347 0.0
C346 C 0.21076 0.93627 0.54169 0.0
H347 H 0.32383 0.93635 0.62475 0.0
H348 H 0.28216 0.95653 0.61007 0.0
H349 H 0.24084 0.9052 0.54202 0.0
H350 H 0.10512 0.94567 0.55372 0.0
H351 H 0.15265 0.93309 0.56063 0.0
H352 H 0.22069 0.00589 0.56833 0.0
C353 C 0.29366 0.94289 0.59559 0.0
C354 C 0.23697 0.92739 0.54745 0.0
C355 C 0.31744 0.93114 0.60408 0.0
C356 C 0.12353 0.96113 0.54826 0.0
C357 C 0.15084 0.95377 0.55206 0.0
C358 C 0.22509 0.98402 0.56211 0.0
C359 C 0.28414 0.9361 0.56918 0.0
C360 C 0.25737 0.94652 0.56108 0.0
C361 C 0.17546 0.97291 0.54523 0.0
C362 C 0.20434 0.96453 0.54932 0.0
H363 H 0.33447 0.89204 0.54546 0.0
H364 H 0.29286 0.91256 0.53058 0.0
H365 H 0.26671 0.99039 0.57834 0.0
H366 H 0.14278 0.02788 0.52225 0.0
H367 H 0.19077 0.01497 0.52919 0.0
C368 C 0.6836 0.44958 0.92869 0.0
C369 C 0.6784 0.4207 0.91849 0.0
C370 C 0.71016 0.45997 0.93898 0.0
C371 C 0.77481 0.43385 0.96446 0.0
H372 H 0.81085 0.51139 0.9494 0.0
C373 C 0.88527 0.47785 0.00427 0.0
C374 C 0.90449 0.49402 0.986 0.0
C375 C 0.85646 0.47071 0.99849 0.0
C376 C 0.80115 0.4896 0.95367 0.0
H377 H 0.69712 0.38044 0.9099 0.0
H378 H 0.74344 0.39861 0.92713 0.0
H379 H 0.7632 0.49527 0.93384 0.0
H380 H 0.9085 0.51529 0.94728 0.0
H381 H 0.85877 0.50216 0.93689 0.0
H382 H 0.81325 0.4276 0.98305 0.0
C383 C 0.72688 0.41304 0.92816 0.0
C384 C 0.77364 0.4805 0.94505 0.0
C385 C 0.70038 0.40265 0.91813 0.0
C386 C 0.89426 0.50294 0.96191 0.0
C387 C 0.86561 0.49561 0.95604 0.0
C388 C 0.80238 0.44285 0.97286 0.0
C389 C 0.73204 0.44171 0.93901 0.0
C390 C 0.76033 0.45233 0.94994 0.0
C391 C 0.84632 0.47938 0.97421 0.0
C392 C 0.81609 0.47069 0.96722 0.0
H393 H 0.66694 0.46387 0.92929 0.0
H394 H 0.71335 0.48211 0.94735 0.0
H395 H 0.76498 0.4122 0.96907 0.0
H396 H 0.89241 0.47084 0.02311 0.0
H397 H 0.84212 0.45851 0.01314 0.0
C398 C 0.84091 0.54804 0.44226 0.0
C399 C 0.85063 0.57776 0.43992 0.0
C400 C 0.81181 0.53888 0.44852 0.0
C401 C 0.7477 0.5615 0.48383 0.0
H402 H 0.7038 0.51044 0.43282 0.0
C403 C 0.62416 0.54459 0.49478 0.0
C404 C 0.6099 0.51754 0.48656 0.0
C405 C 0.65387 0.55058 0.48974 0.0
C406 C 0.71575 0.52423 0.44763 0.0
H407 H 0.83682 0.62095 0.44144 0.0
H408 H 0.78659 0.60495 0.45372 0.0
H409 H 0.75547 0.52225 0.42345 0.0
H410 H 0.61555 0.47525 0.46729 0.0
H411 H 0.66744 0.48513 0.45962 0.0
H412 H 0.70853 0.56309 0.50849 0.0
C413 C 0.8016 0.58889 0.45072 0.0
C414 C 0.74532 0.53105 0.44212 0.0
C415 C 0.83047 0.59799 0.44391 0.0
C416 C 0.62595 0.49644 0.47358 0.0
C417 C 0.65572 0.5022 0.46904 0.0
C418 C 0.71828 0.55425 0.48966 0.0
C419 C 0.79206 0.55931 0.45306 0.0
C420 C 0.76138 0.55007 0.45998 0.0
C421 C 0.6701 0.52943 0.47689 0.0
C422 C 0.70177 0.53589 0.47141 0.0
H423 H 0.8558 0.53186 0.4396 0.0
H424 H 0.80479 0.51592 0.45028 0.0
H425 H 0.75983 0.57609 0.49797 0.0
H426 H 0.61228 0.56134 0.50464 0.0
H427 H 0.66398 0.57202 0.49556 0.0
C428 C 0.08798 0.22582 0.10796 0.0
C429 C 0.1082 0.21142 0.09161 0.0
C430 C 0.077 0.2498 0.09829 0.0
C431 C 0.09441 0.30771 0.04967 0.0
H432 H 0.01286 0.31517 0.05746 0.0
C433 C 0.04916 0.402 0.00246 0.0
C434 C 0.02784 0.41544 0.01823 0.0
C435 C 0.05721 0.37565 0.00995 0.0
C436 C 0.03573 0.31361 0.05537 0.0
H437 H 0.13269 0.21059 0.05246 0.0
H438 H 0.11376 0.25263 0.03567 0.0
H439 H 0.03064 0.27253 0.07424 0.0
H440 H 0.99766 0.41121 0.05385 0.0
H441 H 0.01214 0.36571 0.06728 0.0
H442 H 0.09982 0.34896 0.03151 0.0
C443 C 0.10644 0.24548 0.05593 0.0
C444 C 0.04589 0.28914 0.06497 0.0
C445 C 0.11717 0.22137 0.06548 0.0
C446 C 0.01407 0.4014 0.04114 0.0
C447 C 0.02233 0.37518 0.04881 0.0
C448 C 0.08433 0.33227 0.04032 0.0
C449 C 0.08626 0.25998 0.07223 0.0
C450 C 0.07533 0.28592 0.06217 0.0
C451 C 0.04438 0.36221 0.03359 0.0
C452 C 0.05485 0.33557 0.04299 0.0
H453 H 0.08062 0.21861 0.12819 0.0
H454 H 0.06164 0.2607 0.11138 0.0
H455 H 0.11727 0.30604 0.04759 0.0
H456 H 0.06004 0.41209 0.98455 0.0
H457 H 0.07378 0.36599 0.99735 0.0
C458 C 0.57007 0.33067 0.91798 0.0
C459 C 0.59991 0.33857 0.91408 0.0
C460 C 0.55923 0.303 0.92665 0.0
C461 C 0.57856 0.24499 0.96582 0.0
H462 H 0.52279 0.19321 0.92658 0.0
C463 C 0.55686 0.12428 0.98831 0.0
C464 C 0.52885 0.11007 0.98684 0.0
C465 C 0.56364 0.15258 0.97973 0.0
C466 C 0.53798 0.20756 0.93809 0.0
H467 H 0.6416 0.32286 0.91479 0.0
H468 H 0.62269 0.27524 0.93083 0.0
H469 H 0.53742 0.24227 0.91095 0.0
H470 H 0.48588 0.11451 0.97537 0.0
H471 H 0.49752 0.16434 0.96115 0.0
H472 H 0.57899 0.2109 0.99325 0.0
C473 C 0.60777 0.29056 0.9274 0.0
C474 C 0.54639 0.23558 0.92905 0.0
C475 C 0.61856 0.31792 0.91837 0.0
C476 C 0.50772 0.12483 0.97663 0.0
C477 C 0.51443 0.15335 0.96835 0.0
C478 C 0.56989 0.21723 0.97509 0.0
C479 C 0.57807 0.28296 0.93189 0.0
C480 C 0.56716 0.25427 0.94256 0.0
C481 C 0.5425 0.1676 0.96984 0.0
C482 C 0.54995 0.19791 0.96102 0.0
H483 H 0.55511 0.34608 0.91502 0.0
H484 H 0.53622 0.29756 0.93003 0.0
H485 H 0.59431 0.25922 0.97681 0.0
H486 H 0.57372 0.11342 0.9958 0.0
H487 H 0.58564 0.16254 0.98057 0.0
C488 C 0.91544 0.67843 0.4387 0.0
C489 C 0.93235 0.65647 0.44349 0.0
C490 C 0.92536 0.70749 0.4443 0.0
C491 C 0.97113 0.75581 0.48689 0.0
H492 H 0.9691 0.8108 0.43039 0.0
C493 C 0.01045 0.87757 0.50441 0.0
C494 C 0.99486 0.89756 0.4932 0.0
C495 C 0.00507 0.84792 0.49754 0.0
C496 C 0.96947 0.79584 0.44653 0.0
H497 H 0.97269 0.64744 0.45802 0.0
H498 H 0.98988 0.69874 0.46862 0.0
H499 H 0.95546 0.75918 0.42032 0.0
H500 H 0.96127 0.90217 0.46616 0.0
H501 H 0.9511 0.8504 0.45494 0.0
H502 H 0.98388 0.79236 0.51354 0.0
C503 C 0.96904 0.69324 0.46033 0.0
C504 C 0.96186 0.76629 0.44066 0.0
C505 C 0.9593 0.66405 0.45425 0.0
C506 C 0.97378 0.88731 0.47498 0.0
C507 C 0.9681 0.85761 0.46841 0.0
C508 C 0.97834 0.78545 0.49292 0.0
C509 C 0.95222 0.71516 0.45511 0.0
C510 C 0.96237 0.74609 0.46086 0.0
C511 C 0.9837 0.83753 0.47959 0.0
C512 C 0.97733 0.80587 0.47288 0.0
H513 H 0.89473 0.67313 0.43009 0.0
H514 H 0.91193 0.72401 0.44031 0.0
H515 H 0.97141 0.7406 0.50285 0.0
H516 H 0.02706 0.88483 0.51832 0.0
H517 H 0.01787 0.83321 0.50615 0.0
C518 C 0.41131 0.78904 0.64105 0.0
C519 C 0.41536 0.81448 0.62626 0.0
C520 C 0.41967 0.76302 0.62919 0.0
C521 C 0.4685 0.73351 0.57587 0.0
H522 H 0.41595 0.66267 0.58185 0.0
C523 C 0.50102 0.61811 0.54761 0.0
C524 C 0.48169 0.59922 0.53243 0.0
C525 C 0.49361 0.6451 0.55803 0.0
C526 C 0.43081 0.6823 0.57992 0.0
H527 H 0.43165 0.83272 0.58763 0.0
H528 H 0.44648 0.78721 0.56693 0.0
H529 H 0.40153 0.70836 0.60225 0.0
H530 H 0.43956 0.5942 0.51598 0.0
H531 H 0.42666 0.64109 0.53437 0.0
H532 H 0.49783 0.70734 0.55362 0.0
C533 C 0.4368 0.78744 0.58768 0.0
C534 C 0.42264 0.70839 0.59179 0.0
C535 C 0.42811 0.8134 0.59943 0.0
C536 C 0.455 0.60817 0.52756 0.0
C537 C 0.44749 0.63496 0.53824 0.0
C538 C 0.47681 0.70732 0.56428 0.0
C539 C 0.43257 0.76196 0.60241 0.0
C540 C 0.44136 0.73428 0.58983 0.0
C541 C 0.4666 0.65361 0.55377 0.0
C542 C 0.45799 0.68147 0.56609 0.0
H543 H 0.40135 0.7892 0.6617 0.0
H544 H 0.41632 0.74377 0.64109 0.0
H545 H 0.48344 0.75311 0.57421 0.0
H546 H 0.52176 0.61193 0.55171 0.0
H547 H 0.50871 0.65898 0.57006 0.0
C548 C 0.9326 0.92057 0.82991 0.0
C549 C 0.91929 0.94122 0.8468 0.0
C550 C 0.94209 0.92648 0.80285 0.0
C551 C 0.95963 0.98672 0.75525 0.0
H552 H 0.94665 0.92499 0.69933 0.0
C553 C 0.97163 0.00693 0.6392 0.0
C554 C 0.98593 0.98704 0.62224 0.0
C555 C 0.96426 0.00155 0.66679 0.0
C556 C 0.95068 0.94238 0.71475 0.0
H557 H 0.90634 0.98464 0.84867 0.0
H558 H 0.9221 0.9946 0.80135 0.0
H559 H 0.93298 0.91533 0.74719 0.0
H560 H 0.00361 0.94582 0.62107 0.0
H561 H 0.99068 0.9365 0.66911 0.0
H562 H 0.97693 0.01386 0.72262 0.0
C563 C 0.92555 0.97396 0.80906 0.0
C564 C 0.94293 0.93683 0.74221 0.0
C565 C 0.91618 0.9681 0.83613 0.0
C566 C 0.99259 0.96162 0.6335 0.0
C567 C 0.98505 0.95617 0.66102 0.0
C568 C 0.96723 0.99231 0.72776 0.0
C569 C 0.93841 0.95313 0.79199 0.0
C570 C 0.94728 0.95893 0.76282 0.0
C571 C 0.97084 0.97608 0.67798 0.0
C572 C 0.96283 0.97019 0.7072 0.0
H573 H 0.9351 0.89954 0.83736 0.0
H574 H 0.95227 0.91009 0.79042 0.0
H575 H 0.96372 0.00414 0.77061 0.0
H576 H 0.96618 0.02673 0.63122 0.0
H577 H 0.95306 0.01716 0.67929 0.0
C578 C 0.59855 0.0718 0.32616 0.0
C579 C 0.59974 0.10101 0.33576 0.0
C580 C 0.59155 0.06366 0.29931 0.0
C581 C 0.58706 0.09399 0.23119 0.0
H582 H 0.53885 0.02165 0.21711 0.0
C583 C 0.56319 0.05099 0.12124 0.0
C584 C 0.53547 0.03712 0.11698 0.0
C585 C 0.5716 0.05841 0.14778 0.0
C586 C 0.55211 0.04207 0.22069 0.0
H587 H 0.59507 0.14463 0.32429 0.0
H588 H 0.5818 0.13033 0.27804 0.0
H589 H 0.55201 0.03548 0.26358 0.0
H590 H 0.4947 0.02059 0.13734 0.0
H591 H 0.50907 0.03422 0.18348 0.0
H592 H 0.58624 0.10114 0.18852 0.0
C593 C 0.58671 0.11371 0.29106 0.0
C594 C 0.56003 0.0498 0.24733 0.0
C595 C 0.5939 0.12186 0.31779 0.0
C596 C 0.51628 0.03109 0.13987 0.0
C597 C 0.52461 0.03873 0.16638 0.0
C598 C 0.57897 0.08636 0.2046 0.0
C599 C 0.58545 0.08451 0.28143 0.0
C600 C 0.57754 0.07591 0.25295 0.0
C601 C 0.55242 0.05238 0.17071 0.0
C602 C 0.56133 0.06033 0.199 0.0
H603 H 0.6027 0.05513 0.33948 0.0
H604 H 0.59115 0.04103 0.29252 0.0
H605 H 0.6009 0.11406 0.23464 0.0
H606 H 0.57858 0.05578 0.10409 0.0
H607 H 0.59333 0.06849 0.1503 0.0
C608 C 0.44657 0.54025 0.19329 0.0
C609 C 0.46601 0.56056 0.1792 0.0
C610 C 0.45204 0.5323 0.21936 0.0
C611 C 0.489 0.56127 0.27963 0.0
H612 H 0.47548 0.48202 0.30305 0.0
C613 C 0.47654 0.53295 0.39338 0.0
C614 C 0.49186 0.51076 0.401 0.0
C615 C 0.475 0.53833 0.36576 0.0
C616 C 0.4795 0.50422 0.29673 0.0
H617 H 0.50672 0.58774 0.18073 0.0
H618 H 0.5162 0.57404 0.2265 0.0
H619 H 0.4708 0.49182 0.25505 0.0
H620 H 0.51734 0.47662 0.38551 0.0
H621 H 0.51431 0.48587 0.33723 0.0
H622 H 0.49729 0.57375 0.32133 0.0
C623 C 0.49673 0.56437 0.21742 0.0
C624 C 0.47665 0.50983 0.26935 0.0
C625 C 0.4914 0.57207 0.19123 0.0
C626 C 0.50542 0.49392 0.38035 0.0
C627 C 0.50358 0.49909 0.35271 0.0
C628 C 0.49152 0.5557 0.30703 0.0
C629 C 0.47689 0.54473 0.23191 0.0
C630 C 0.48127 0.53843 0.26057 0.0
C631 C 0.48847 0.52143 0.34516 0.0
C632 C 0.48665 0.52715 0.31589 0.0
H633 H 0.42684 0.53093 0.18448 0.0
H634 H 0.43629 0.51725 0.23013 0.0
H635 H 0.49242 0.58355 0.27349 0.0
H636 H 0.46587 0.54634 0.40875 0.0
H637 H 0.46297 0.5555 0.3605 0.0
C638 C 0.04561 0.46706 0.68167 0.0
C639 C 0.06249 0.48759 0.66552 0.0
C640 C 0.0432 0.47126 0.71014 0.0
C641 C 0.05741 0.47605 0.76964 0.0
H642 H 0.04671 0.55143 0.80433 0.0
C643 C 0.05748 0.49781 0.88707 0.0
C644 C 0.03567 0.51363 0.89898 0.0
C645 C 0.0626 0.49565 0.85857 0.0
C646 C 0.04962 0.53022 0.79494 0.0
H647 H 0.08951 0.52878 0.66624 0.0
H648 H 0.08537 0.53616 0.71617 0.0
H649 H 0.05077 0.54568 0.75444 0.0
H650 H 0.00235 0.53981 0.89019 0.0
H651 H 0.01111 0.53576 0.84077 0.0
H652 H 0.0555 0.46041 0.8101 0.0
C653 C 0.07387 0.51693 0.70681 0.0
C654 C 0.05222 0.527 0.76637 0.0
C655 C 0.07629 0.51271 0.67828 0.0
C656 C 0.01936 0.52746 0.88178 0.0
C657 C 0.0245 0.52534 0.85339 0.0
C658 C 0.05486 0.47928 0.7982 0.0
C659 C 0.05759 0.49604 0.72306 0.0
C660 C 0.05583 0.4998 0.7534 0.0
C661 C 0.04609 0.50933 0.84144 0.0
C662 C 0.05064 0.50633 0.81116 0.0
H663 H 0.03457 0.44752 0.67242 0.0
H664 H 0.03004 0.45505 0.72205 0.0
H665 H 0.06062 0.4549 0.76026 0.0
H666 H 0.0705 0.48697 0.89971 0.0
H667 H 0.07958 0.48337 0.84995 0.0
C668 C 0.83509 0.9572 0.94612 0.0
C669 C 0.84004 0.94284 0.92055 0.0
C670 C 0.80754 0.96394 0.9548 0.0
C671 C 0.73595 0.96999 0.92848 0.0
H672 H 0.70986 0.96579 0.00526 0.0
C673 C 0.61692 0.9681 0.96783 0.0
C674 C 0.61105 0.98775 0.98981 0.0
C675 C 0.64523 0.96376 0.95956 0.0
C676 C 0.71699 0.96724 0.98379 0.0
H677 H 0.82013 0.92357 0.8843 0.0
H678 H 0.77196 0.93432 0.89969 0.0
H679 H 0.75855 0.9557 0.99052 0.0
H680 H 0.63026 0.01795 0.02058 0.0
H681 H 0.67978 0.00981 0.0064 0.0
H682 H 0.69389 0.98052 0.92178 0.0
C683 C 0.78936 0.94139 0.91275 0.0
C684 C 0.74493 0.96161 0.97531 0.0
C685 C 0.81694 0.93506 0.90394 0.0
C686 C 0.63409 0.00274 0.00351 0.0
C687 C 0.6624 0.99801 0.99551 0.0
C688 C 0.70791 0.97516 0.93691 0.0
C689 C 0.78427 0.95605 0.93824 0.0
C690 C 0.75476 0.96279 0.9475 0.0
C691 C 0.66821 0.9786 0.97337 0.0
C692 C 0.69815 0.97375 0.96462 0.0
H693 H 0.85263 0.96359 0.95921 0.0
H694 H 0.80461 0.97565 0.97434 0.0
H695 H 0.74287 0.9718 0.90701 0.0
H696 H 0.59965 0.95628 0.95681 0.0
H697 H 0.64915 0.94851 0.94254 0.0
C698 C 0.70481 0.09312 0.47435 0.0
C699 C 0.69505 0.08711 0.44799 0.0
C700 C 0.73056 0.08388 0.48118 0.0
C701 C 0.79867 0.06109 0.44935 0.0
H702 H 0.80653 0.03344 0.52143 0.0
C703 C 0.90048 0.01332 0.47604 0.0
C704 C 0.91173 0.02284 0.50128 0.0
C705 C 0.87332 0.01958 0.46994 0.0
C706 C 0.80472 0.04132 0.50129 0.0
H707 H 0.70428 0.06612 0.40818 0.0
H708 H 0.74887 0.0496 0.42017 0.0
H709 H 0.7604 0.04716 0.50997 0.0
H710 H 0.9028 0.04587 0.54015 0.0
H711 H 0.85545 0.0568 0.52945 0.0
H712 H 0.84295 0.05527 0.44067 0.0
C713 C 0.73698 0.06194 0.43548 0.0
C714 C 0.7783 0.04923 0.49472 0.0
C715 C 0.7113 0.07128 0.42865 0.0
C716 C 0.89485 0.03821 0.52051 0.0
C717 C 0.86762 0.04435 0.51444 0.0
C718 C 0.82502 0.05309 0.45588 0.0
C719 C 0.74707 0.06832 0.46177 0.0
C720 C 0.77497 0.05931 0.46869 0.0
C721 C 0.85668 0.03539 0.48897 0.0
C722 C 0.82839 0.0432 0.48194 0.0
H723 H 0.6927 0.10535 0.48961 0.0
H724 H 0.73782 0.0895 0.50149 0.0
H725 H 0.79706 0.06926 0.42929 0.0
H726 H 0.9128 0.00135 0.46076 0.0
H727 H 0.86534 0.01202 0.45029 0.0
C728 C 0.3235 0.60602 0.10718 0.0
C729 C 0.34501 0.58792 0.09998 0.0
C730 C 0.29634 0.59972 0.09713 0.0
C731 C 0.24678 0.54179 0.06551 0.0
H732 H 0.2124 0.60723 0.0415 0.0
C733 C 0.13949 0.52822 0.01233 0.0
C734 C 0.11947 0.54714 0.02231 0.0
C735 C 0.16781 0.53278 0.02006 0.0
C736 C 0.22164 0.58877 0.04827 0.0
H737 H 0.35473 0.54845 0.07743 0.0
H738 H 0.307 0.53738 0.0596 0.0
H739 H 0.26007 0.61506 0.05903 0.0
H740 H 0.11378 0.58609 0.04775 0.0
H741 H 0.16312 0.59401 0.06114 0.0
H742 H 0.20814 0.51554 0.05475 0.0
C743 C 0.31119 0.5564 0.07317 0.0
C744 C 0.24891 0.59324 0.05838 0.0
C745 C 0.33847 0.56269 0.08337 0.0
C746 C 0.12861 0.5711 0.03966 0.0
C747 C 0.15694 0.57573 0.04724 0.0
C748 C 0.21945 0.5373 0.05531 0.0
C749 C 0.29003 0.5752 0.07954 0.0
C750 C 0.26163 0.56989 0.06751 0.0
C751 C 0.17676 0.55647 0.03776 0.0
C752 C 0.20646 0.56082 0.04692 0.0
H753 H 0.32781 0.62533 0.1204 0.0
H754 H 0.2803 0.61422 0.10303 0.0
H755 H 0.2559 0.5234 0.07256 0.0
H756 H 0.13319 0.50954 0.99894 0.0
H757 H 0.18271 0.51777 0.0122 0.0
C758 C 0.15809 0.44132 0.54045 0.0
C759 C 0.14739 0.44009 0.56788 0.0
C760 C 0.18765 0.44646 0.53395 0.0
C761 C 0.25758 0.47018 0.56511 0.0
H762 H 0.28859 0.4299 0.50023 0.0
C763 C 0.37807 0.45685 0.5437 0.0
C764 C 0.39012 0.46805 0.51883 0.0
C765 C 0.34829 0.45337 0.54918 0.0
C766 C 0.28012 0.4413 0.51834 0.0
H767 H 0.15877 0.4431 0.61006 0.0
H768 H 0.21037 0.45087 0.59892 0.0
H769 H 0.23679 0.42493 0.51097 0.0
H770 H 0.38055 0.48334 0.4798 0.0
H771 H 0.32836 0.47627 0.48912 0.0
H772 H 0.3013 0.48545 0.57289 0.0
C773 C 0.19616 0.44898 0.58229 0.0
C774 C 0.25045 0.43872 0.52443 0.0
C775 C 0.16659 0.44442 0.58875 0.0
C776 C 0.37183 0.47475 0.49918 0.0
C777 C 0.34205 0.47066 0.50443 0.0
C778 C 0.28727 0.47224 0.55929 0.0
C779 C 0.20714 0.44981 0.55478 0.0
C780 C 0.23874 0.45315 0.5479 0.0
C781 C 0.3301 0.4604 0.52965 0.0
C782 C 0.29873 0.45785 0.53587 0.0
H783 H 0.14356 0.43809 0.52404 0.0
H784 H 0.19517 0.44761 0.51258 0.0
H785 H 0.24947 0.48212 0.58302 0.0
H786 H 0.39165 0.45166 0.55927 0.0
H787 H 0.33944 0.44528 0.56872 0.0
C788 C 0.94012 0.84424 0.96216 0.0
C789 C 0.95957 0.85905 0.94313 0.0
C790 C 0.94596 0.81807 0.9721 0.0
C791 C 0.00346 0.7705 0.97732 0.0
H792 H 0.93952 0.70932 0.97831 0.0
C793 C 0.98163 0.63785 0.97395 0.0
C794 C 0.99895 0.63095 0.99437 0.0
C795 C 0.97729 0.66657 0.97047 0.0
C796 C 0.95763 0.72615 0.97811 0.0
H797 H 0.00076 0.85878 0.92036 0.0
H798 H 0.01086 0.81277 0.9374 0.0
H799 H 0.93177 0.75816 0.96752 0.0
H800 H 0.02546 0.64909 0.02706 0.0
H801 H 0.01775 0.69951 0.02095 0.0
H802 H 0.02948 0.73799 0.98701 0.0
C803 C 0.99125 0.82151 0.94491 0.0
C804 C 0.95311 0.75426 0.97224 0.0
C805 C 0.98543 0.84775 0.93502 0.0
C806 C 0.01197 0.65362 0.01116 0.0
C807 C 0.00768 0.68251 0.00759 0.0
C808 C 0.00798 0.74229 0.98326 0.0
C809 C 0.97132 0.80607 0.96317 0.0
C810 C 0.97602 0.77673 0.97143 0.0
C811 C 0.99014 0.68925 0.98728 0.0
C812 C 0.98517 0.71971 0.98326 0.0
H813 H 0.92009 0.85252 0.96903 0.0
H814 H 0.93038 0.80701 0.98652 0.0
H815 H 0.02151 0.78739 0.97714 0.0
H816 H 0.97133 0.62104 0.96053 0.0
H817 H 0.96407 0.67105 0.95431 0.0
C818 C 0.45206 0.67288 0.09623 0.0
C819 C 0.42625 0.66533 0.11177 0.0
C820 C 0.46099 0.70198 0.0908 0.0
C821 C 0.43021 0.77143 0.08785 0.0
H822 H 0.50999 0.80459 0.07999 0.0
C823 C 0.46335 0.89305 0.0721 0.0
C824 C 0.48418 0.89984 0.05065 0.0
C825 C 0.45757 0.86467 0.08077 0.0
C826 C 0.48764 0.79549 0.082 0.0
H827 H 0.39049 0.6819 0.13536 0.0
H828 H 0.40653 0.7327 0.1269 0.0
H829 H 0.49812 0.75466 0.09427 0.0
H830 H 0.51569 0.88222 0.02184 0.0
H831 H 0.50562 0.83262 0.0372 0.0
H832 H 0.41975 0.81231 0.07588 0.0
C833 C 0.41942 0.71631 0.11799 0.0
C834 C 0.48082 0.76692 0.09011 0.0
C835 C 0.41033 0.68729 0.12305 0.0
C836 C 0.49941 0.87769 0.03833 0.0
C837 C 0.49382 0.84935 0.04723 0.0
C838 C 0.43701 0.8 0.08006 0.0
C839 C 0.44439 0.72398 0.10111 0.0
C840 C 0.45199 0.75454 0.09313 0.0
C841 C 0.47269 0.84255 0.06838 0.0
C842 C 0.46576 0.8123 0.07701 0.0
H843 H 0.46455 0.65618 0.08724 0.0
H844 H 0.48021 0.70704 0.07757 0.0
H845 H 0.40782 0.76244 0.08924 0.0
H846 H 0.45126 0.90958 0.08205 0.0
H847 H 0.44132 0.86004 0.09728 0.0
C848 C 0.07001 0.35157 0.5406 0.0
C849 C 0.06298 0.36472 0.56639 0.0
C850 C 0.06352 0.32167 0.53575 0.0
C851 C 0.01994 0.2558 0.55905 0.0
H852 H 0.08762 0.21779 0.53691 0.0
C853 C 0.01871 0.13162 0.56248 0.0
C854 C 0.0348 0.11752 0.54169 0.0
C855 C 0.02132 0.16195 0.56507 0.0
C856 C 0.06835 0.22795 0.54261 0.0
H857 H 0.04197 0.35674 0.60672 0.0
H858 H 0.02979 0.30478 0.59775 0.0
H859 H 0.09119 0.27056 0.53995 0.0
H860 H 0.06617 0.12411 0.50722 0.0
H861 H 0.07 0.17676 0.51109 0.0
H862 H 0.99686 0.21331 0.56123 0.0
C863 C 0.04053 0.31771 0.58145 0.0
C864 C 0.07045 0.25821 0.54439 0.0
C865 C 0.04741 0.34754 0.58649 0.0
C866 C 0.05373 0.13432 0.52369 0.0
C867 C 0.05599 0.16459 0.52599 0.0
C868 C 0.01768 0.22547 0.55683 0.0
C869 C 0.04941 0.3044 0.55639 0.0
C870 C 0.04634 0.27239 0.55278 0.0
C871 C 0.03974 0.17884 0.54664 0.0
C872 C 0.04193 0.21113 0.54876 0.0
H873 H 0.08146 0.36423 0.52447 0.0
H874 H 0.07023 0.31188 0.5161 0.0
H875 H 0.00103 0.26631 0.56551 0.0
H876 H 0.00403 0.11923 0.57674 0.0
H877 H 0.00892 0.1721 0.58159 0.0
C878 C 0.60314 0.18775 0.43426 0.0
C879 C 0.5866 0.16503 0.42038 0.0
C880 C 0.59065 0.21204 0.44534 0.0
C881 C 0.53195 0.25386 0.43385 0.0
H882 H 0.55184 0.29451 0.50245 0.0
C883 C 0.52177 0.3751 0.45638 0.0
C884 C 0.51078 0.38403 0.48253 0.0
C885 C 0.52721 0.34641 0.45074 0.0
C886 C 0.54581 0.28321 0.4834 0.0
H887 H 0.54357 0.14925 0.4088 0.0
H888 H 0.52191 0.19185 0.4278 0.0
H889 H 0.56849 0.24715 0.49045 0.0
H890 H 0.49653 0.36965 0.52319 0.0
H891 H 0.50646 0.31937 0.51333 0.0
H892 H 0.50989 0.29016 0.42646 0.0
C893 C 0.54461 0.19098 0.42979 0.0
C894 C 0.55554 0.25626 0.47644 0.0
C895 C 0.55704 0.16663 0.41887 0.0
C896 C 0.50493 0.36343 0.50282 0.0
C897 C 0.51075 0.33472 0.49725 0.0
C898 C 0.52248 0.28088 0.44068 0.0
C899 C 0.56139 0.21421 0.44266 0.0
C900 C 0.54903 0.24149 0.45141 0.0
C901 C 0.52208 0.32599 0.47118 0.0
C902 C 0.52968 0.29605 0.46532 0.0
H903 H 0.62601 0.18741 0.43553 0.0
H904 H 0.60422 0.22973 0.45488 0.0
H905 H 0.52678 0.24315 0.41431 0.0
H906 H 0.52646 0.39037 0.44026 0.0
H907 H 0.53623 0.3404 0.43054 0.0
loop_
_geom_bond_atom_site_label_1
_geom_bond_atom_site_label_2
_geom_bond_distance
_geom_bond_site_symmetry_2
_ccdc_geom_bond_type
H0 C5 0.930 . S
H1 C8 0.930 . S
H2 C10 0.930 . S
H3 C4 1.016 . S
C4 H3 1.016 . S
C4 N11 1.286 . S
C5 H0 0.930 . S
C5 C6 1.397 . S
C5 C7 1.361 . S
C6 C5 1.397 . S
C6 C10 1.390 . S
C7 C5 1.361 . S
C7 C8 1.393 . S
C7 N11 1.413 . S
C8 H1 0.930 . S
C8 C7 1.393 . S
C8 C9 1.399 . S
C9 C8 1.399 . S
C9 C10 1.381 . S
C10 H2 0.930 . S
C10 C6 1.390 . S
C10 C9 1.381 . S
N11 C4 1.286 . S
N11 C7 1.413 . S
H12 C17 0.930 . S
H13 C20 0.930 . S
H14 C22 0.930 . S
H15 C16 1.016 . S
C16 H15 1.016 . S
C16 N23 1.286 . S
C17 H12 0.930 . S
C17 C18 1.397 . S
C17 C19 1.361 . S
C18 C17 1.397 . S
C18 C22 1.390 . S
C19 C17 1.361 . S
C19 C20 1.393 . S
C19 N23 1.413 . S
C20 H13 0.930 . S
C20 C19 1.393 . S
C20 C21 1.399 . S
C21 C20 1.399 . S
C21 C22 1.381 . S
C22 H14 0.930 . S
C22 C18 1.390 . S
C22 C21 1.381 . S
N23 C16 1.286 . S
N23 C19 1.413 . S
H24 C29 0.930 . S
H25 C32 0.930 . S
H26 C34 0.930 . S
H27 C28 1.016 . S
C28 H27 1.016 . S
C28 N35 1.286 . S
C29 H24 0.930 . S
C29 C30 1.397 . S
C29 C31 1.361 . S
C30 C29 1.397 . S
C30 C34 1.390 . S
C31 C29 1.361 . S
C31 C32 1.393 . S
C31 N35 1.413 . S
C32 H25 0.930 . S
C32 C31 1.393 . S
C32 C33 1.399 . S
C33 C32 1.399 . S
C33 C34 1.381 . S
C34 H26 0.930 . S
C34 C30 1.390 . S
C34 C33 1.381 . S
N35 C28 1.286 . S
N35 C31 1.413 . S
H36 C41 0.930 . S
H37 C44 0.930 . S
H38 C46 0.930 . S
H39 C40 1.016 . S
C40 H39 1.016 . S
C40 N47 1.286 . S
C41 H36 0.930 . S
C41 C42 1.397 . S
C41 C43 1.361 . S
C42 C41 1.397 . S
C42 C46 1.390 . S
C43 C41 1.361 . S
C43 C44 1.393 . S
C43 N47 1.413 . S
C44 H37 0.930 . S
C44 C43 1.393 . S
C44 C45 1.399 . S
C45 C44 1.399 . S
C45 C46 1.381 . S
C46 H38 0.930 . S
C46 C42 1.390 . S
C46 C45 1.381 . S
N47 C40 1.286 . S
N47 C43 1.413 . S
H48 C53 0.930 . S
H49 C56 0.930 . S
H50 C58 0.930 . S
H51 C52 1.016 . S
C52 H51 1.016 . S
C52 N59 1.286 . S
C53 H48 0.930 . S
C53 C54 1.397 . S
C53 C55 1.361 . S
C54 C53 1.397 . S
C54 C58 1.390 . S
C55 C53 1.361 . S
C55 C56 1.393 . S
C55 N59 1.413 . S
C56 H49 0.930 . S
C56 C55 1.393 . S
C56 C57 1.399 . S
C57 C56 1.399 . S
C57 C58 1.381 . S
C58 H50 0.930 . S
C58 C54 1.390 . S
C58 C57 1.381 . S
N59 C52 1.286 . S
N59 C55 1.413 . S
H60 C65 0.930 . S
H61 C68 0.930 . S
H62 C70 0.930 . S
H63 C64 1.016 . S
C64 H63 1.016 . S
C64 N71 1.286 . S
C65 H60 0.930 . S
C65 C66 1.397 . S
C65 C67 1.361 . S
C66 C65 1.397 . S
C66 C70 1.390 . S
C67 C65 1.361 . S
C67 C68 1.393 . S
C67 N71 1.413 . S
C68 H61 0.930 . S
C68 C67 1.393 . S
C68 C69 1.399 . S
C69 C68 1.399 . S
C69 C70 1.381 . S
C70 H62 0.930 . S
C70 C66 1.390 . S
C70 C69 1.381 . S
N71 C64 1.286 . S
N71 C67 1.413 . S
H72 C77 0.930 . S
H73 C80 0.930 . S
H74 C82 0.930 . S
H75 C76 1.016 . S
C76 H75 1.016 . S
C76 N83 1.286 . S
C77 H72 0.930 . S
C77 C78 1.397 . S
C77 C79 1.361 . S
C78 C77 1.397 . S
C78 C82 1.390 . S
C79 C77 1.361 . S
C79 C80 1.393 . S
C79 N83 1.413 . S
C80 H73 0.930 . S
C80 C79 1.393 . S
C80 C81 1.399 . S
C81 C80 1.399 . S
C81 C82 1.381 . S
C82 H74 0.930 . S
C82 C78 1.390 . S
C82 C81 1.381 . S
N83 C76 1.286 . S
N83 C79 1.413 . S
H84 C89 0.930 . S
H85 C92 0.930 . S
H86 C94 0.930 . S
H87 C88 1.016 . S
C88 H87 1.016 . S
C88 N95 1.286 . S
C89 H84 0.930 . S
C89 C90 1.397 . S
C89 C91 1.361 . S
C90 C89 1.397 . S
C90 C94 1.390 . S
C91 C89 1.361 . S
C91 C92 1.393 . S
C91 N95 1.413 . S
C92 H85 0.930 . S
C92 C91 1.393 . S
C92 C93 1.399 . S
C93 C92 1.399 . S
C93 C94 1.381 . S
C94 H86 0.930 . S
C94 C90 1.390 . S
C94 C93 1.381 . S
N95 C88 1.286 . S
N95 C91 1.413 . S
O96 Zn97 1.954 1_455 S
O96 C112 1.224 . S
Zn97 O96 1.954 1_655 S
Zn97 O98 1.949 1_655 S
Zn97 O104 1.919 . S
Zn97 O109 1.924 . S
O98 Zn97 1.949 1_455 S
O98 Zn99 1.923 1_445 S
O98 Zn100 1.950 . S
O98 Zn101 1.945 1_545 S
Zn99 O98 1.923 1_665 S
Zn99 O102 1.933 . S
Zn99 O105 1.941 1_565 S
Zn99 O106 1.965 1_665 S
Zn100 O98 1.950 . S
Zn100 O107 1.938 . S
Zn100 O108 1.890 1_545 S
Zn100 O118 1.953 . S
Zn101 O98 1.945 1_565 S
Zn101 O103 1.932 1_455 S
Zn101 O110 1.977 . S
Zn101 O111 1.910 1_455 S
O102 Zn99 1.933 . S
O102 C113 1.226 . S
O103 Zn101 1.932 1_655 S
O103 C113 1.307 . S
O104 Zn97 1.919 . S
O104 C115 1.253 . S
O105 Zn99 1.941 1_545 S
O105 C115 1.283 . S
O106 Zn99 1.965 1_445 S
O106 C114 1.303 . S
O107 Zn100 1.938 . S
O107 C114 1.247 . S
O108 Zn100 1.890 1_565 S
O108 C116 1.326 . S
O109 Zn97 1.924 . S
O109 C117 1.311 1_545 S
O110 Zn101 1.977 . S
O110 C116 1.272 . S
O111 Zn101 1.910 1_655 S
O111 C117 1.231 . S
C112 O96 1.224 . S
C112 O118 1.298 . S
C113 O102 1.226 . S
C113 O103 1.307 . S
C114 O106 1.303 . S
C114 O107 1.247 . S
C115 O104 1.253 . S
C115 O105 1.283 . S
C116 O108 1.326 . S
C116 O110 1.272 . S
C117 O109 1.311 1_565 S
C117 O111 1.231 . S
O118 Zn100 1.953 . S
O118 C112 1.298 . S
O119 Zn120 1.953 . S
O119 C135 1.225 . S
Zn120 O119 1.953 . S
Zn120 O121 1.949 1_556 S
Zn120 O127 1.919 . S
Zn120 O132 1.924 1_556 S
O121 Zn120 1.949 1_554 S
O121 Zn122 1.923 1_545 S
O121 Zn123 1.950 . S
O121 Zn124 1.951 . S
Zn122 O121 1.923 1_565 S
Zn122 O125 1.933 . S
Zn122 O128 1.941 1_554 S
Zn122 O129 1.965 1_554 S
Zn123 O121 1.950 . S
Zn123 O130 1.938 . S
Zn123 O131 1.906 . S
Zn123 O141 1.953 . S
Zn124 O121 1.951 . S
Zn124 O126 1.903 1_545 S
Zn124 O133 1.983 . S
Zn124 O134 1.928 . S
O125 Zn122 1.933 . S
O125 C136 1.226 . S
O126 Zn124 1.903 1_565 S
O126 C136 1.307 . S
O127 Zn120 1.919 . S
O127 C138 1.253 1_545 S
O128 Zn122 1.941 1_556 S
O128 C138 1.283 . S
O129 Zn122 1.965 1_556 S
O129 C137 1.304 1_565 S
O130 Zn123 1.938 . S
O130 C137 1.240 1_554 S
O131 Zn123 1.906 . S
O131 C139 1.304 . S
O132 Zn120 1.924 1_554 S
O132 C140 1.311 . S
O133 Zn124 1.983 . S
O133 C139 1.272 . S
O134 Zn124 1.928 . S
O134 C140 1.231 . S
C135 O119 1.225 . S
C135 O141 1.298 1_556 S
C136 O125 1.226 . S
C136 O126 1.307 . S
C137 O129 1.304 1_545 S
C137 O130 1.240 1_556 S
C138 O127 1.253 1_565 S
C138 O128 1.283 . S
C139 O131 1.304 . S
C139 O133 1.272 . S
C140 O132 1.311 . S
C140 O134 1.231 . S
O141 Zn123 1.953 . S
O141 C135 1.298 1_554 S
O142 Zn143 1.953 . S
O142 C158 1.225 . S
Zn143 O142 1.953 . S
Zn143 O144 1.949 . S
Zn143 O150 1.919 . S
Zn143 O155 1.924 . S
O144 Zn143 1.949 . S
O144 Zn145 1.923 . S
O144 Zn146 1.950 . S
O144 Zn147 1.945 . S
Zn145 O144 1.923 . S
Zn145 O148 1.933 . S
Zn145 O151 1.941 . S
Zn145 O152 1.965 . S
Zn146 O144 1.950 . S
Zn146 O153 1.938 . S
Zn146 O154 1.906 . S
Zn146 O164 1.953 . S
Zn147 O144 1.945 . S
Zn147 O149 1.932 . S
Zn147 O156 1.977 . S
Zn147 O157 1.910 . S
O148 Zn145 1.933 . S
O148 C159 1.226 . S
O149 Zn147 1.932 . S
O149 C159 1.307 . S
O150 Zn143 1.919 . S
O150 C161 1.253 . S
O151 Zn145 1.941 . S
O151 C161 1.283 . S
O152 Zn145 1.965 . S
O152 C160 1.303 . S
O153 Zn146 1.938 . S
O153 C160 1.247 . S
O154 Zn146 1.906 . S
O154 C162 1.304 . S
O155 Zn143 1.924 . S
O155 C163 1.311 . S
O156 Zn147 1.977 . S
O156 C162 1.272 . S
O157 Zn147 1.910 . S
O157 C163 1.231 . S
C158 O142 1.225 . S
C158 O164 1.298 . S
C159 O148 1.226 . S
C159 O149 1.307 . S
C160 O152 1.303 . S
C160 O153 1.247 . S
C161 O150 1.253 . S
C161 O151 1.283 . S
C162 O154 1.304 . S
C162 O156 1.272 . S
C163 O155 1.311 . S
C163 O157 1.231 . S
O164 Zn146 1.953 . S
O164 C158 1.298 . S
O165 Zn166 1.953 . S
O165 C181 1.225 . S
Zn166 O165 1.953 . S
Zn166 O167 1.949 1_655 S
Zn166 O173 1.919 . S
Zn166 O178 1.924 1_655 S
O167 Zn166 1.949 1_455 S
O167 Zn168 1.923 1_554 S
O167 Zn169 1.950 . S
O167 Zn170 1.945 1_554 S
Zn168 O167 1.923 1_556 S
Zn168 O171 1.933 . S
Zn168 O174 1.941 1_455 S
Zn168 O175 1.965 . S
Zn169 O167 1.950 . S
Zn169 O176 1.938 . S
Zn169 O177 1.906 . S
Zn169 O187 1.953 . S
Zn170 O167 1.945 1_556 S
Zn170 O172 1.932 . S
Zn170 O179 1.977 1_556 S
Zn170 O180 1.910 1_556 S
O171 Zn168 1.933 . S
O171 C182 1.226 . S
O172 Zn170 1.932 . S
O172 C182 1.307 . S
O173 Zn166 1.919 . S
O173 C184 1.253 1_554 S
O174 Zn168 1.941 1_655 S
O174 C184 1.283 . S
O175 Zn168 1.965 . S
O175 C183 1.303 . S
O176 Zn169 1.938 . S
O176 C183 1.247 1_554 S
O177 Zn169 1.906 . S
O177 C185 1.304 . S
O178 Zn166 1.924 1_455 S
O178 C186 1.311 . S
O179 Zn170 1.977 1_554 S
O179 C185 1.272 . S
O180 Zn170 1.910 1_554 S
O180 C186 1.231 . S
C181 O165 1.225 . S
C181 O187 1.298 1_655 S
C182 O171 1.226 . S
C182 O172 1.307 . S
C183 O175 1.303 . S
C183 O176 1.247 1_556 S
C184 O173 1.253 1_556 S
C184 O174 1.283 . S
C185 O177 1.304 . S
C185 O179 1.272 . S
C186 O178 1.311 . S
C186 O180 1.231 . S
O187 Zn169 1.953 . S
O187 C181 1.298 1_455 S
C188 C189 1.349 . S
C188 C190 1.327 . S
C188 H213 0.950 . S
C189 C188 1.349 . S
C189 C205 1.349 . S
C190 C188 1.327 . S
C190 C209 1.429 . S
C190 H214 0.950 . S
C191 C208 1.574 . S
C191 C210 1.368 . S
C191 H215 0.949 . S
H192 C196 0.949 . S
C193 C194 1.349 . S
C193 C195 1.327 . S
C193 H216 0.950 . S
C194 C193 1.349 . S
C194 C206 1.349 . S
C195 C193 1.327 . S
C195 C211 1.429 . S
C195 H217 0.950 . S
C196 H192 0.949 . S
C196 C204 1.574 . S
C196 C212 1.368 . S
H197 C205 0.950 . S
H198 C203 0.950 . S
H199 C204 0.949 . S
H200 C206 0.950 . S
H201 C207 0.950 . S
H202 C208 0.949 . S
C203 H198 0.950 . S
C203 C205 1.327 . S
C203 C209 1.429 . S
C204 C196 1.574 . S
C204 H199 0.949 . S
C204 C210 1.368 . S
C205 C189 1.349 . S
C205 H197 0.950 . S
C205 C203 1.327 . S
C206 C194 1.349 . S
C206 H200 0.950 . S
C206 C207 1.327 . S
C207 H201 0.950 . S
C207 C206 1.327 . S
C207 C211 1.429 . S
C208 C191 1.574 . S
C208 H202 0.949 . S
C208 C212 1.368 . S
C209 C190 1.429 . S
C209 C203 1.429 . S
C209 C210 1.523 . S
C210 C191 1.368 . S
C210 C204 1.368 . S
C210 C209 1.523 . S
C211 C195 1.429 . S
C211 C207 1.429 . S
C211 C212 1.523 . S
C212 C196 1.368 . S
C212 C208 1.368 . S
C212 C211 1.523 . S
H213 C188 0.950 . S
H214 C190 0.950 . S
H215 C191 0.949 . S
H216 C193 0.950 . S
H217 C195 0.950 . S
C218 C219 1.349 . S
C218 C220 1.327 . S
C218 H243 0.950 . S
C219 C218 1.349 . S
C219 C235 1.349 . S
C220 C218 1.327 . S
C220 C239 1.429 . S
C220 H244 0.950 . S
C221 C238 1.574 . S
C221 C240 1.368 . S
C221 H245 0.949 . S
H222 C226 0.949 . S
C223 C224 1.349 . S
C223 C225 1.327 . S
C223 H246 0.950 . S
C224 C223 1.349 . S
C224 C236 1.349 . S
C225 C223 1.327 . S
C225 C241 1.429 . S
C225 H247 0.950 . S
C226 H222 0.949 . S
C226 C234 1.574 . S
C226 C242 1.368 . S
H227 C235 0.950 . S
H228 C233 0.950 . S
H229 C234 0.949 . S
H230 C236 0.950 . S
H231 C237 0.950 . S
H232 C238 0.949 . S
C233 H228 0.950 . S
C233 C235 1.327 . S
C233 C239 1.429 . S
C234 C226 1.574 . S
C234 H229 0.949 . S
C234 C240 1.368 . S
C235 C219 1.349 . S
C235 H227 0.950 . S
C235 C233 1.327 . S
C236 C224 1.349 . S
C236 H230 0.950 . S
C236 C237 1.327 . S
C237 H231 0.950 . S
C237 C236 1.327 . S
C237 C241 1.429 . S
C238 C221 1.574 . S
C238 H232 0.949 . S
C238 C242 1.368 . S
C239 C220 1.429 . S
C239 C233 1.429 . S
C239 C240 1.523 . S
C240 C221 1.368 . S
C240 C234 1.368 . S
C240 C239 1.523 . S
C241 C225 1.429 . S
C241 C237 1.429 . S
C241 C242 1.523 . S
C242 C226 1.368 . S
C242 C238 1.368 . S
C242 C241 1.523 . S
H243 C218 0.950 . S
H244 C220 0.950 . S
H245 C221 0.949 . S
H246 C223 0.950 . S
H247 C225 0.950 . S
C248 C249 1.349 . S
C248 C250 1.327 . S
C248 H273 0.950 . S
C249 C248 1.349 . S
C249 C265 1.349 . S
C250 C248 1.327 . S
C250 C269 1.429 . S
C250 H274 0.950 . S
C251 C268 1.574 . S
C251 C270 1.368 . S
C251 H275 0.949 . S
H252 C256 0.949 . S
C253 C254 1.349 . S
C253 C255 1.327 . S
C253 H276 0.950 . S
C254 C253 1.349 . S
C254 C266 1.349 . S
C255 C253 1.327 . S
C255 C271 1.429 . S
C255 H277 0.950 . S
C256 H252 0.949 . S
C256 C264 1.574 . S
C256 C272 1.368 . S
H257 C265 0.950 . S
H258 C263 0.950 . S
H259 C264 0.949 . S
H260 C266 0.950 . S
H261 C267 0.950 . S
H262 C268 0.949 . S
C263 H258 0.950 . S
C263 C265 1.327 . S
C263 C269 1.429 . S
C264 C256 1.574 . S
C264 H259 0.949 . S
C264 C270 1.368 . S
C265 C249 1.349 . S
C265 H257 0.950 . S
C265 C263 1.327 . S
C266 C254 1.349 . S
C266 H260 0.950 . S
C266 C267 1.327 . S
C267 H261 0.950 . S
C267 C266 1.327 . S
C267 C271 1.429 . S
C268 C251 1.574 . S
C268 H262 0.949 . S
C268 C272 1.368 . S
C269 C250 1.429 . S
C269 C263 1.429 . S
C269 C270 1.523 . S
C270 C251 1.368 . S
C270 C264 1.368 . S
C270 C269 1.523 . S
C271 C255 1.429 . S
C271 C267 1.429 . S
C271 C272 1.523 . S
C272 C256 1.368 . S
C272 C268 1.368 . S
C272 C271 1.523 . S
H273 C248 0.950 . S
H274 C250 0.950 . S
H275 C251 0.949 . S
H276 C253 0.950 . S
H277 C255 0.950 . S
C278 C279 1.349 . S
C278 C280 1.327 . S
C278 H303 0.950 . S
C279 C278 1.349 . S
C279 C295 1.349 . S
C280 C278 1.327 . S
C280 C299 1.429 . S
C280 H304 0.950 . S
C281 C298 1.574 . S
C281 C300 1.368 . S
C281 H305 0.949 . S
H282 C286 0.949 1_455 S
C283 C284 1.349 . S
C283 C285 1.327 . S
C283 H306 0.950 . S
C284 C283 1.349 . S
C284 C296 1.349 1_655 S
C285 C283 1.327 . S
C285 C301 1.429 . S
C285 H307 0.950 . S
C286 H282 0.949 1_655 S
C286 C294 1.574 . S
C286 C302 1.368 . S
H287 C295 0.950 . S
H288 C293 0.950 . S
H289 C294 0.949 . S
H290 C296 0.950 . S
H291 C297 0.950 . S
H292 C298 0.949 . S
C293 H288 0.950 . S
C293 C295 1.327 . S
C293 C299 1.429 . S
C294 C286 1.574 . S
C294 H289 0.949 . S
C294 C300 1.368 . S
C295 C279 1.349 . S
C295 H287 0.950 . S
C295 C293 1.327 . S
C296 C284 1.349 1_455 S
C296 H290 0.950 . S
C296 C297 1.327 . S
C297 H291 0.950 . S
C297 C296 1.327 . S
C297 C301 1.429 1_455 S
C298 C281 1.574 . S
C298 H292 0.949 . S
C298 C302 1.368 . S
C299 C280 1.429 . S
C299 C293 1.429 . S
C299 C300 1.523 . S
C300 C281 1.368 . S
C300 C294 1.368 . S
C300 C299 1.523 . S
C301 C285 1.429 . S
C301 C297 1.429 1_655 S
C301 C302 1.523 . S
C302 C286 1.368 . S
C302 C298 1.368 . S
C302 C301 1.523 . S
H303 C278 0.950 . S
H304 C280 0.950 . S
H305 C281 0.949 . S
H306 C283 0.950 . S
H307 C285 0.950 . S
C308 C309 1.349 . S
C308 C310 1.327 . S
C308 H333 0.950 . S
C309 C308 1.349 . S
C309 C325 1.349 . S
C310 C308 1.327 . S
C310 C329 1.429 . S
C310 H334 0.950 . S
C311 C328 1.574 . S
C311 C330 1.368 . S
C311 H335 0.949 . S
H312 C316 0.949 . S
C313 C314 1.349 . S
C313 C315 1.327 . S
C313 H336 0.950 . S
C314 C313 1.349 . S
C314 C326 1.349 . S
C315 C313 1.327 . S
C315 C331 1.429 . S
C315 H337 0.950 . S
C316 H312 0.949 . S
C316 C324 1.574 . S
C316 C332 1.368 . S
H317 C325 0.950 . S
H318 C323 0.950 . S
H319 C324 0.949 . S
H320 C326 0.950 . S
H321 C327 0.950 . S
H322 C328 0.949 . S
C323 H318 0.950 . S
C323 C325 1.327 . S
C323 C329 1.429 . S
C324 C316 1.574 . S
C324 H319 0.949 . S
C324 C330 1.368 . S
C325 C309 1.349 . S
C325 H317 0.950 . S
C325 C323 1.327 . S
C326 C314 1.349 . S
C326 H320 0.950 . S
C326 C327 1.327 . S
C327 H321 0.950 . S
C327 C326 1.327 . S
C327 C331 1.429 . S
C328 C311 1.574 . S
C328 H322 0.949 . S
C328 C332 1.368 . S
C329 C310 1.429 . S
C329 C323 1.429 . S
C329 C330 1.523 . S
C330 C311 1.368 . S
C330 C324 1.368 . S
C330 C329 1.523 . S
C331 C315 1.429 . S
C331 C327 1.429 . S
C331 C332 1.523 . S
C332 C316 1.368 . S
C332 C328 1.368 . S
C332 C331 1.523 . S
H333 C308 0.950 . S
H334 C310 0.950 . S
H335 C311 0.949 . S
H336 C313 0.950 . S
H337 C315 0.950 . S
C338 C339 1.349 . S
C338 C340 1.327 . S
C338 H363 0.950 . S
C339 C338 1.349 . S
C339 C355 1.349 . S
C340 C338 1.327 . S
C340 C359 1.429 . S
C340 H364 0.950 . S
C341 C358 1.574 . S
C341 C360 1.368 . S
C341 H365 0.949 . S
H342 C346 0.949 . S
C343 C344 1.349 . S
C343 C345 1.327 . S
C343 H366 0.952 1_565 S
C344 C343 1.349 . S
C344 C356 1.349 . S
C345 C343 1.327 . S
C345 C361 1.429 . S
C345 H367 0.950 . S
C346 H342 0.949 . S
C346 C354 1.574 . S
C346 C362 1.368 . S
H347 C355 0.950 . S
H348 C353 0.950 . S
H349 C354 0.949 . S
H350 C356 0.950 . S
H351 C357 0.950 . S
H352 C358 0.949 . S
C353 H348 0.950 . S
C353 C355 1.327 . S
C353 C359 1.429 . S
C354 C346 1.574 . S
C354 H349 0.949 . S
C354 C360 1.368 . S
C355 C339 1.349 . S
C355 H347 0.950 . S
C355 C353 1.327 . S
C356 C344 1.349 . S
C356 H350 0.950 . S
C356 C357 1.327 . S
C357 H351 0.950 . S
C357 C356 1.327 . S
C357 C361 1.429 . S
C358 C341 1.574 . S
C358 H352 0.949 . S
C358 C362 1.368 . S
C359 C340 1.429 . S
C359 C353 1.429 . S
C359 C360 1.523 . S
C360 C341 1.368 . S
C360 C354 1.368 . S
C360 C359 1.523 . S
C361 C345 1.429 . S
C361 C357 1.429 . S
C361 C362 1.523 . S
C362 C346 1.368 . S
C362 C358 1.368 . S
C362 C361 1.523 . S
H363 C338 0.950 . S
H364 C340 0.950 . S
H365 C341 0.949 . S
H366 C343 0.952 1_545 S
H367 C345 0.950 . S
C368 C369 1.349 . S
C368 C370 1.327 . S
C368 H393 0.950 . S
C369 C368 1.349 . S
C369 C385 1.349 . S
C370 C368 1.327 . S
C370 C389 1.429 . S
C370 H394 0.950 . S
C371 C388 1.574 . S
C371 C390 1.368 . S
C371 H395 0.949 . S
H372 C376 0.949 . S
C373 C374 1.349 . S
C373 C375 1.327 . S
C373 H396 0.950 . S
C374 C373 1.349 . S
C374 C386 1.349 . S
C375 C373 1.327 . S
C375 C391 1.429 . S
C375 H397 0.950 . S
C376 H372 0.949 . S
C376 C384 1.574 . S
C376 C392 1.368 . S
H377 C385 0.950 . S
H378 C383 0.950 . S
H379 C384 0.949 . S
H380 C386 0.950 . S
H381 C387 0.950 . S
H382 C388 0.949 . S
C383 H378 0.950 . S
C383 C385 1.327 . S
C383 C389 1.429 . S
C384 C376 1.574 . S
C384 H379 0.949 . S
C384 C390 1.368 . S
C385 C369 1.349 . S
C385 H377 0.950 . S
C385 C383 1.327 . S
C386 C374 1.349 . S
C386 H380 0.950 . S
C386 C387 1.327 . S
C387 H381 0.950 . S
C387 C386 1.327 . S
C387 C391 1.429 . S
C388 C371 1.574 . S
C388 H382 0.949 . S
C388 C392 1.368 . S
C389 C370 1.429 . S
C389 C383 1.429 . S
C389 C390 1.523 . S
C390 C371 1.368 . S
C390 C384 1.368 . S
C390 C389 1.523 . S
C391 C375 1.429 . S
C391 C387 1.429 . S
C391 C392 1.523 . S
C392 C376 1.368 . S
C392 C388 1.368 . S
C392 C391 1.523 . S
H393 C368 0.950 . S
H394 C370 0.950 . S
H395 C371 0.949 . S
H396 C373 0.950 . S
H397 C375 0.950 . S
C398 C399 1.349 . S
C398 C400 1.327 . S
C398 H423 0.950 . S
C399 C398 1.349 . S
C399 C415 1.349 . S
C400 C398 1.327 . S
C400 C419 1.429 . S
C400 H424 0.950 . S
C401 C418 1.574 . S
C401 C420 1.368 . S
C401 H425 0.949 . S
H402 C406 0.949 . S
C403 C404 1.349 . S
C403 C405 1.327 . S
C403 H426 0.950 . S
C404 C403 1.349 . S
C404 C416 1.349 . S
C405 C403 1.327 . S
C405 C421 1.429 . S
C405 H427 0.950 . S
C406 H402 0.949 . S
C406 C414 1.574 . S
C406 C422 1.368 . S
H407 C415 0.950 . S
H408 C413 0.950 . S
H409 C414 0.949 . S
H410 C416 0.950 . S
H411 C417 0.950 . S
H412 C418 0.949 . S
C413 H408 0.950 . S
C413 C415 1.327 . S
C413 C419 1.429 . S
C414 C406 1.574 . S
C414 H409 0.949 . S
C414 C420 1.368 . S
C415 C399 1.349 . S
C415 H407 0.950 . S
C415 C413 1.327 . S
C416 C404 1.349 . S
C416 H410 0.950 . S
C416 C417 1.327 . S
C417 H411 0.950 . S
C417 C416 1.327 . S
C417 C421 1.429 . S
C418 C401 1.574 . S
C418 H412 0.949 . S
C418 C422 1.368 . S
C419 C400 1.429 . S
C419 C413 1.429 . S
C419 C420 1.523 . S
C420 C401 1.368 . S
C420 C414 1.368 . S
C420 C419 1.523 . S
C421 C405 1.429 . S
C421 C417 1.429 . S
C421 C422 1.523 . S
C422 C406 1.368 . S
C422 C418 1.368 . S
C422 C421 1.523 . S
H423 C398 0.950 . S
H424 C400 0.950 . S
H425 C401 0.949 . S
H426 C403 0.950 . S
H427 C405 0.950 . S
C428 C429 1.349 . S
C428 C430 1.327 . S
C428 H453 0.950 . S
C429 C428 1.349 . S
C429 C445 1.349 . S
C430 C428 1.327 . S
C430 C449 1.429 . S
C430 H454 0.950 . S
C431 C448 1.574 . S
C431 C450 1.368 . S
C431 H455 0.949 . S
H432 C436 0.949 . S
C433 C434 1.349 . S
C433 C435 1.327 . S
C433 H456 0.950 . S
C434 C433 1.349 . S
C434 C446 1.349 . S
C435 C433 1.327 . S
C435 C451 1.429 . S
C435 H457 0.950 . S
C436 H432 0.949 . S
C436 C444 1.574 . S
C436 C452 1.368 . S
H437 C445 0.950 . S
H438 C443 0.950 . S
H439 C444 0.949 . S
H440 C446 0.950 . S
H441 C447 0.950 . S
H442 C448 0.949 . S
C443 H438 0.950 . S
C443 C445 1.327 . S
C443 C449 1.429 . S
C444 C436 1.574 . S
C444 H439 0.949 . S
C444 C450 1.368 . S
C445 C429 1.349 . S
C445 H437 0.950 . S
C445 C443 1.327 . S
C446 C434 1.349 . S
C446 H440 0.950 . S
C446 C447 1.327 . S
C447 H441 0.950 . S
C447 C446 1.327 . S
C447 C451 1.429 . S
C448 C431 1.574 . S
C448 H442 0.949 . S
C448 C452 1.368 . S
C449 C430 1.429 . S
C449 C443 1.429 . S
C449 C450 1.523 . S
C450 C431 1.368 . S
C450 C444 1.368 . S
C450 C449 1.523 . S
C451 C435 1.429 . S
C451 C447 1.429 . S
C451 C452 1.523 . S
C452 C436 1.368 . S
C452 C448 1.368 . S
C452 C451 1.523 . S
H453 C428 0.950 . S
H454 C430 0.950 . S
H455 C431 0.949 . S
H456 C433 0.950 . S
H457 C435 0.950 . S
C458 C459 1.349 . S
C458 C460 1.327 . S
C458 H483 0.950 . S
C459 C458 1.349 . S
C459 C475 1.349 . S
C460 C458 1.327 . S
C460 C479 1.429 . S
C460 H484 0.950 . S
C461 C478 1.574 . S
C461 C480 1.368 . S
C461 H485 0.949 . S
H462 C466 0.949 . S
C463 C464 1.349 . S
C463 C465 1.327 . S
C463 H486 0.950 1_556 S
C464 C463 1.349 . S
C464 C476 1.349 . S
C465 C463 1.327 . S
C465 C481 1.429 . S
C465 H487 0.950 . S
C466 H462 0.949 . S
C466 C474 1.574 . S
C466 C482 1.368 . S
H467 C475 0.950 . S
H468 C473 0.950 . S
H469 C474 0.949 . S
H470 C476 0.950 . S
H471 C477 0.950 . S
H472 C478 0.949 . S
C473 H468 0.950 . S
C473 C475 1.327 . S
C473 C479 1.429 . S
C474 C466 1.574 . S
C474 H469 0.949 . S
C474 C480 1.368 . S
C475 C459 1.349 . S
C475 H467 0.950 . S
C475 C473 1.327 . S
C476 C464 1.349 . S
C476 H470 0.950 . S
C476 C477 1.327 . S
C477 H471 0.950 . S
C477 C476 1.327 . S
C477 C481 1.429 . S
C478 C461 1.574 . S
C478 H472 0.949 . S
C478 C482 1.368 . S
C479 C460 1.429 . S
C479 C473 1.429 . S
C479 C480 1.523 . S
C480 C461 1.368 . S
C480 C474 1.368 . S
C480 C479 1.523 . S
C481 C465 1.429 . S
C481 C477 1.429 . S
C481 C482 1.523 . S
C482 C466 1.368 . S
C482 C478 1.368 . S
C482 C481 1.523 . S
H483 C458 0.950 . S
H484 C460 0.950 . S
H485 C461 0.949 . S
H486 C463 0.950 1_554 S
H487 C465 0.950 . S
C488 C489 1.349 . S
C488 C490 1.327 . S
C488 H513 0.950 . S
C489 C488 1.349 . S
C489 C505 1.349 . S
C490 C488 1.327 . S
C490 C509 1.429 . S
C490 H514 0.950 . S
C491 C508 1.574 . S
C491 C510 1.368 . S
C491 H515 0.949 . S
H492 C496 0.949 . S
C493 C494 1.349 . S
C493 C495 1.327 . S
C493 H516 0.950 1_655 S
C494 C493 1.349 . S
C494 C506 1.349 . S
C495 C493 1.327 . S
C495 C511 1.429 . S
C495 H517 0.950 . S
C496 H492 0.949 . S
C496 C504 1.574 . S
C496 C512 1.368 . S
H497 C505 0.950 . S
H498 C503 0.950 . S
H499 C504 0.949 . S
H500 C506 0.950 . S
H501 C507 0.950 . S
H502 C508 0.949 . S
C503 H498 0.950 . S
C503 C505 1.327 . S
C503 C509 1.429 . S
C504 C496 1.574 . S
C504 H499 0.949 . S
C504 C510 1.368 . S
C505 C489 1.349 . S
C505 H497 0.950 . S
C505 C503 1.327 . S
C506 C494 1.349 . S
C506 H500 0.950 . S
C506 C507 1.327 . S
C507 H501 0.950 . S
C507 C506 1.327 . S
C507 C511 1.429 . S
C508 C491 1.574 . S
C508 H502 0.949 . S
C508 C512 1.368 . S
C509 C490 1.429 . S
C509 C503 1.429 . S
C509 C510 1.523 . S
C510 C491 1.368 . S
C510 C504 1.368 . S
C510 C509 1.523 . S
C511 C495 1.429 . S
C511 C507 1.429 . S
C511 C512 1.523 . S
C512 C496 1.368 . S
C512 C508 1.368 . S
C512 C511 1.523 . S
H513 C488 0.950 . S
H514 C490 0.950 . S
H515 C491 0.949 . S
H516 C493 0.950 1_455 S
H517 C495 0.950 . S
C518 C519 1.349 . S
C518 C520 1.327 . S
C518 H543 0.950 . S
C519 C518 1.349 . S
C519 C535 1.349 . S
C520 C518 1.327 . S
C520 C539 1.429 . S
C520 H544 0.950 . S
C521 C538 1.574 . S
C521 C540 1.368 . S
C521 H545 0.949 . S
H522 C526 0.949 . S
C523 C524 1.349 . S
C523 C525 1.327 . S
C523 H546 0.950 . S
C524 C523 1.349 . S
C524 C536 1.349 . S
C525 C523 1.327 . S
C525 C541 1.429 . S
C525 H547 0.950 . S
C526 H522 0.949 . S
C526 C534 1.574 . S
C526 C542 1.368 . S
H527 C535 0.950 . S
H528 C533 0.950 . S
H529 C534 0.949 . S
H530 C536 0.950 . S
H531 C537 0.950 . S
H532 C538 0.949 . S
C533 H528 0.950 . S
C533 C535 1.327 . S
C533 C539 1.429 . S
C534 C526 1.574 . S
C534 H529 0.949 . S
C534 C540 1.368 . S
C535 C519 1.349 . S
C535 H527 0.950 . S
C535 C533 1.327 . S
C536 C524 1.349 . S
C536 H530 0.950 . S
C536 C537 1.327 . S
C537 H531 0.950 . S
C537 C536 1.327 . S
C537 C541 1.429 . S
C538 C521 1.574 . S
C538 H532 0.949 . S
C538 C542 1.368 . S
C539 C520 1.429 . S
C539 C533 1.429 . S
C539 C540 1.523 . S
C540 C521 1.368 . S
C540 C534 1.368 . S
C540 C539 1.523 . S
C541 C525 1.429 . S
C541 C537 1.429 . S
C541 C542 1.523 . S
C542 C526 1.368 . S
C542 C538 1.368 . S
C542 C541 1.523 . S
H543 C518 0.950 . S
H544 C520 0.950 . S
H545 C521 0.949 . S
H546 C523 0.950 . S
H547 C525 0.950 . S
C548 C549 1.349 . S
C548 C550 1.327 . S
C548 H573 0.950 . S
C549 C548 1.349 . S
C549 C565 1.349 . S
C550 C548 1.327 . S
C550 C569 1.429 . S
C550 H574 0.950 . S
C551 C568 1.577 . S
C551 C570 1.353 1_545 S
C551 H575 0.961 . S
H552 C556 0.949 . S
C553 C554 1.349 1_545 S
C553 C555 1.327 . S
C553 H576 0.948 . S
C554 C553 1.349 1_565 S
C554 C566 1.349 . S
C555 C553 1.327 . S
C555 C571 1.429 1_545 S
C555 H577 0.950 . S
C556 H552 0.949 . S
C556 C564 1.574 . S
C556 C572 1.368 . S
H557 C565 0.950 1_545 S
H558 C563 0.950 1_545 S
H559 C564 0.949 . S
H560 C566 0.950 . S
H561 C567 0.950 . S
H562 C568 0.949 . S
C563 H558 0.950 1_565 S
C563 C565 1.327 . S
C563 C569 1.429 . S
C564 C556 1.574 . S
C564 H559 0.949 . S
C564 C570 1.368 . S
C565 C549 1.349 . S
C565 H557 0.950 1_565 S
C565 C563 1.327 . S
C566 C554 1.349 . S
C566 H560 0.950 . S
C566 C567 1.327 . S
C567 H561 0.950 . S
C567 C566 1.327 . S
C567 C571 1.429 . S
C568 C551 1.577 . S
C568 H562 0.949 . S
C568 C572 1.368 1_545 S
C569 C550 1.429 . S
C569 C563 1.429 . S
C569 C570 1.523 . S
C570 C551 1.353 1_565 S
C570 C564 1.368 . S
C570 C569 1.523 . S
C571 C555 1.429 1_565 S
C571 C567 1.429 . S
C571 C572 1.523 . S
C572 C556 1.368 . S
C572 C568 1.368 1_565 S
C572 C571 1.523 . S
H573 C548 0.950 . S
H574 C550 0.950 . S
H575 C551 0.961 . S
H576 C553 0.948 . S
H577 C555 0.950 . S
C578 C579 1.349 . S
C578 C580 1.327 . S
C578 H603 0.950 . S
C579 C578 1.349 . S
C579 C595 1.349 . S
C580 C578 1.327 . S
C580 C599 1.429 . S
C580 H604 0.950 . S
C581 C598 1.574 . S
C581 C600 1.368 . S
C581 H605 0.949 . S
H582 C586 0.949 . S
C583 C584 1.349 . S
C583 C585 1.327 . S
C583 H606 0.950 . S
C584 C583 1.349 . S
C584 C596 1.349 . S
C585 C583 1.327 . S
C585 C601 1.429 . S
C585 H607 0.950 . S
C586 H582 0.949 . S
C586 C594 1.574 . S
C586 C602 1.368 . S
H587 C595 0.950 . S
H588 C593 0.950 . S
H589 C594 0.949 . S
H590 C596 0.950 1_565 S
H591 C597 0.950 1_565 S
H592 C598 0.949 . S
C593 H588 0.950 . S
C593 C595 1.327 . S
C593 C599 1.429 . S
C594 C586 1.574 . S
C594 H589 0.949 . S
C594 C600 1.368 . S
C595 C579 1.349 . S
C595 H587 0.950 . S
C595 C593 1.327 . S
C596 C584 1.349 . S
C596 H590 0.950 1_545 S
C596 C597 1.327 . S
C597 H591 0.950 1_545 S
C597 C596 1.327 . S
C597 C601 1.429 . S
C598 C581 1.574 . S
C598 H592 0.949 . S
C598 C602 1.368 . S
C599 C580 1.429 . S
C599 C593 1.429 . S
C599 C600 1.523 . S
C600 C581 1.368 . S
C600 C594 1.368 . S
C600 C599 1.523 . S
C601 C585 1.429 . S
C601 C597 1.429 . S
C601 C602 1.523 . S
C602 C586 1.368 . S
C602 C598 1.368 . S
C602 C601 1.523 . S
H603 C578 0.950 . S
H604 C580 0.950 . S
H605 C581 0.949 . S
H606 C583 0.950 . S
H607 C585 0.950 . S
C608 C609 1.349 . S
C608 C610 1.327 . S
C608 H633 0.950 . S
C609 C608 1.349 . S
C609 C625 1.349 . S
C610 C608 1.327 . S
C610 C629 1.429 . S
C610 H634 0.950 . S
C611 C628 1.574 . S
C611 C630 1.368 . S
C611 H635 0.949 . S
H612 C616 0.949 . S
C613 C614 1.349 . S
C613 C615 1.327 . S
C613 H636 0.950 . S
C614 C613 1.349 . S
C614 C626 1.349 . S
C615 C613 1.327 . S
C615 C631 1.429 . S
C615 H637 0.950 . S
C616 H612 0.949 . S
C616 C624 1.574 . S
C616 C632 1.368 . S
H617 C625 0.950 . S
H618 C623 0.950 . S
H619 C624 0.949 . S
H620 C626 0.950 . S
H621 C627 0.950 . S
H622 C628 0.949 . S
C623 H618 0.950 . S
C623 C625 1.327 . S
C623 C629 1.429 . S
C624 C616 1.574 . S
C624 H619 0.949 . S
C624 C630 1.368 . S
C625 C609 1.349 . S
C625 H617 0.950 . S
C625 C623 1.327 . S
C626 C614 1.349 . S
C626 H620 0.950 . S
C626 C627 1.327 . S
C627 H621 0.950 . S
C627 C626 1.327 . S
C627 C631 1.429 . S
C628 C611 1.574 . S
C628 H622 0.949 . S
C628 C632 1.368 . S
C629 C610 1.429 . S
C629 C623 1.429 . S
C629 C630 1.523 . S
C630 C611 1.368 . S
C630 C624 1.368 . S
C630 C629 1.523 . S
C631 C615 1.429 . S
C631 C627 1.429 . S
C631 C632 1.523 . S
C632 C616 1.368 . S
C632 C628 1.368 . S
C632 C631 1.523 . S
H633 C608 0.950 . S
H634 C610 0.950 . S
H635 C611 0.949 . S
H636 C613 0.950 . S
H637 C615 0.950 . S
C638 C639 1.349 . S
C638 C640 1.327 . S
C638 H663 0.950 . S
C639 C638 1.349 . S
C639 C655 1.349 . S
C640 C638 1.327 . S
C640 C659 1.429 . S
C640 H664 0.950 . S
C641 C658 1.574 . S
C641 C660 1.368 . S
C641 H665 0.949 . S
H642 C646 0.949 . S
C643 C644 1.349 . S
C643 C645 1.327 . S
C643 H666 0.950 . S
C644 C643 1.349 . S
C644 C656 1.349 . S
C645 C643 1.327 . S
C645 C661 1.429 . S
C645 H667 0.950 . S
C646 H642 0.949 . S
C646 C654 1.574 . S
C646 C662 1.368 . S
H647 C655 0.950 . S
H648 C653 0.950 . S
H649 C654 0.949 . S
H650 C656 0.950 . S
H651 C657 0.950 . S
H652 C658 0.949 . S
C653 H648 0.950 . S
C653 C655 1.327 . S
C653 C659 1.429 . S
C654 C646 1.574 . S
C654 H649 0.949 . S
C654 C660 1.368 . S
C655 C639 1.349 . S
C655 H647 0.950 . S
C655 C653 1.327 . S
C656 C644 1.349 . S
C656 H650 0.950 . S
C656 C657 1.327 . S
C657 H651 0.950 . S
C657 C656 1.327 . S
C657 C661 1.429 . S
C658 C641 1.574 . S
C658 H652 0.949 . S
C658 C662 1.368 . S
C659 C640 1.429 . S
C659 C653 1.429 . S
C659 C660 1.523 . S
C660 C641 1.368 . S
C660 C654 1.368 . S
C660 C659 1.523 . S
C661 C645 1.429 . S
C661 C657 1.429 . S
C661 C662 1.523 . S
C662 C646 1.368 . S
C662 C658 1.368 . S
C662 C661 1.523 . S
H663 C638 0.950 . S
H664 C640 0.950 . S
H665 C641 0.949 . S
H666 C643 0.950 . S
H667 C645 0.950 . S
C668 C669 1.349 . S
C668 C670 1.327 . S
C668 H693 0.950 . S
C669 C668 1.349 . S
C669 C685 1.349 . S
C670 C668 1.327 . S
C670 C689 1.429 . S
C670 H694 0.950 . S
C671 C688 1.574 . S
C671 C690 1.368 . S
C671 H695 0.949 . S
H672 C676 0.949 1_554 S
C673 C674 1.349 . S
C673 C675 1.327 1_545 S
C673 H696 0.950 . S
C674 C673 1.349 . S
C674 C686 1.349 1_546 S
C675 C673 1.327 1_565 S
C675 C691 1.429 . S
C675 H697 0.950 . S
C676 H672 0.949 1_556 S
C676 C684 1.574 . S
C676 C692 1.368 . S
H677 C685 0.950 . S
H678 C683 0.950 . S
H679 C684 0.949 . S
H680 C686 0.950 . S
H681 C687 0.949 1_554 S
H682 C688 0.949 . S
C683 H678 0.950 . S
C683 C685 1.327 . S
C683 C689 1.429 . S
C684 C676 1.574 . S
C684 H679 0.949 . S
C684 C690 1.368 . S
C685 C669 1.349 . S
C685 H677 0.950 . S
C685 C683 1.327 . S
C686 C674 1.349 1_564 S
C686 H680 0.950 . S
C686 C687 1.327 1_554 S
C687 H681 0.949 1_556 S
C687 C686 1.327 1_556 S
C687 C691 1.429 . S
C688 C671 1.574 . S
C688 H682 0.949 . S
C688 C692 1.368 . S
C689 C670 1.429 . S
C689 C683 1.429 . S
C689 C690 1.523 . S
C690 C671 1.368 . S
C690 C684 1.368 . S
C690 C689 1.523 . S
C691 C675 1.429 . S
C691 C687 1.429 . S
C691 C692 1.523 . S
C692 C676 1.368 . S
C692 C688 1.368 . S
C692 C691 1.523 . S
H693 C668 0.950 . S
H694 C670 0.950 . S
H695 C671 0.949 . S
H696 C673 0.950 . S
H697 C675 0.950 . S
C698 C699 1.349 . S
C698 C700 1.327 . S
C698 H723 0.950 . S
C699 C698 1.349 . S
C699 C715 1.349 . S
C700 C698 1.327 . S
C700 C719 1.429 . S
C700 H724 0.950 . S
C701 C718 1.574 . S
C701 C720 1.368 . S
C701 H725 0.949 . S
H702 C706 0.949 1_565 S
C703 C704 1.349 . S
C703 C705 1.327 . S
C703 H726 0.950 . S
C704 C703 1.349 . S
C704 C716 1.349 1_545 S
C705 C703 1.327 . S
C705 C721 1.429 . S
C705 H727 0.950 . S
C706 H702 0.949 1_545 S
C706 C714 1.574 . S
C706 C722 1.368 . S
H707 C715 0.950 . S
H708 C713 0.950 . S
H709 C714 0.949 1_565 S
H710 C716 0.950 . S
H711 C717 0.950 . S
H712 C718 0.949 . S
C713 H708 0.950 . S
C713 C715 1.327 . S
C713 C719 1.429 . S
C714 C706 1.574 . S
C714 H709 0.949 1_545 S
C714 C720 1.368 . S
C715 C699 1.349 . S
C715 H707 0.950 . S
C715 C713 1.327 . S
C716 C704 1.349 1_565 S
C716 H710 0.950 . S
C716 C717 1.327 . S
C717 H711 0.950 . S
C717 C716 1.327 . S
C717 C721 1.429 1_565 S
C718 C701 1.574 . S
C718 H712 0.949 . S
C718 C722 1.368 . S
C719 C700 1.429 . S
C719 C713 1.429 . S
C719 C720 1.523 . S
C720 C701 1.368 . S
C720 C714 1.368 . S
C720 C719 1.523 . S
C721 C705 1.429 . S
C721 C717 1.429 1_545 S
C721 C722 1.523 . S
C722 C706 1.368 . S
C722 C718 1.368 . S
C722 C721 1.523 . S
H723 C698 0.950 . S
H724 C700 0.950 . S
H725 C701 0.949 . S
H726 C703 0.950 . S
H727 C705 0.950 . S
C728 C729 1.349 . S
C728 C730 1.327 . S
C728 H753 0.950 . S
C729 C728 1.349 . S
C729 C745 1.349 . S
C730 C728 1.327 . S
C730 C749 1.429 . S
C730 H754 0.950 . S
C731 C748 1.574 . S
C731 C750 1.368 . S
C731 H755 0.949 . S
H732 C736 0.949 . S
C733 C734 1.349 . S
C733 C735 1.327 . S
C733 H756 0.950 . S
C734 C733 1.349 . S
C734 C746 1.349 1_554 S
C735 C733 1.327 . S
C735 C751 1.429 . S
C735 H757 0.950 . S
C736 H732 0.949 . S
C736 C744 1.574 . S
C736 C752 1.368 . S
H737 C745 0.950 . S
H738 C743 0.950 . S
H739 C744 0.949 . S
H740 C746 0.950 . S
H741 C747 0.950 1_556 S
H742 C748 0.949 . S
C743 H738 0.950 . S
C743 C745 1.327 . S
C743 C749 1.429 . S
C744 C736 1.574 . S
C744 H739 0.949 . S
C744 C750 1.368 . S
C745 C729 1.349 . S
C745 H737 0.950 . S
C745 C743 1.327 . S
C746 C734 1.349 1_556 S
C746 H740 0.950 . S
C746 C747 1.327 1_556 S
C747 H741 0.950 1_554 S
C747 C746 1.327 1_554 S
C747 C751 1.429 . S
C748 C731 1.574 . S
C748 H742 0.949 . S
C748 C752 1.368 . S
C749 C730 1.429 . S
C749 C743 1.429 . S
C749 C750 1.523 . S
C750 C731 1.368 . S
C750 C744 1.368 . S
C750 C749 1.523 . S
C751 C735 1.429 . S
C751 C747 1.429 . S
C751 C752 1.523 . S
C752 C736 1.368 . S
C752 C748 1.368 . S
C752 C751 1.523 . S
H753 C728 0.950 . S
H754 C730 0.950 . S
H755 C731 0.949 . S
H756 C733 0.950 . S
H757 C735 0.950 . S
C758 C759 1.349 . S
C758 C760 1.327 . S
C758 H783 0.950 . S
C759 C758 1.349 . S
C759 C775 1.349 . S
C760 C758 1.327 . S
C760 C779 1.429 . S
C760 H784 0.950 . S
C761 C778 1.574 . S
C761 C780 1.368 . S
C761 H785 0.949 . S
H762 C766 0.949 . S
C763 C764 1.349 . S
C763 C765 1.327 . S
C763 H786 0.950 . S
C764 C763 1.349 . S
C764 C776 1.349 . S
C765 C763 1.327 . S
C765 C781 1.429 . S
C765 H787 0.950 . S
C766 H762 0.949 . S
C766 C774 1.574 . S
C766 C782 1.368 . S
H767 C775 0.950 . S
H768 C773 0.950 . S
H769 C774 0.949 . S
H770 C776 0.950 . S
H771 C777 0.950 . S
H772 C778 0.949 . S
C773 H768 0.950 . S
C773 C775 1.327 . S
C773 C779 1.429 . S
C774 C766 1.574 . S
C774 H769 0.949 . S
C774 C780 1.368 . S
C775 C759 1.349 . S
C775 H767 0.950 . S
C775 C773 1.327 . S
C776 C764 1.349 . S
C776 H770 0.950 . S
C776 C777 1.327 . S
C777 H771 0.950 . S
C777 C776 1.327 . S
C777 C781 1.429 . S
C778 C761 1.574 . S
C778 H772 0.949 . S
C778 C782 1.368 . S
C779 C760 1.429 . S
C779 C773 1.429 . S
C779 C780 1.523 . S
C780 C761 1.368 . S
C780 C774 1.368 . S
C780 C779 1.523 . S
C781 C765 1.429 . S
C781 C777 1.429 . S
C781 C782 1.523 . S
C782 C766 1.368 . S
C782 C778 1.368 . S
C782 C781 1.523 . S
H783 C758 0.950 . S
H784 C760 0.950 . S
H785 C761 0.949 . S
H786 C763 0.950 . S
H787 C765 0.950 . S
C788 C789 1.349 . S
C788 C790 1.327 . S
C788 H813 0.950 . S
C789 C788 1.349 . S
C789 C805 1.349 . S
C790 C788 1.327 . S
C790 C809 1.429 . S
C790 H814 0.950 . S
C791 C808 1.574 . S
C791 C810 1.368 . S
C791 H815 0.949 . S
H792 C796 0.949 1_554 S
C793 C794 1.349 1_455 S
C793 C795 1.327 1_455 S
C793 H816 0.950 . S
C794 C793 1.349 1_655 S
C794 C806 1.349 1_556 S
C795 C793 1.327 1_655 S
C795 C811 1.429 . S
C795 H817 0.950 1_655 S
C796 H792 0.949 1_556 S
C796 C804 1.574 . S
C796 C812 1.368 . S
H797 C805 0.950 . S
H798 C803 0.950 . S
H799 C804 0.949 1_554 S
H800 C806 0.950 . S
H801 C807 0.950 . S
H802 C808 0.949 . S
C803 H798 0.950 . S
C803 C805 1.327 . S
C803 C809 1.429 . S
C804 C796 1.574 . S
C804 H799 0.949 1_556 S
C804 C810 1.368 . S
C805 C789 1.349 . S
C805 H797 0.950 . S
C805 C803 1.327 . S
C806 C794 1.349 1_554 S
C806 H800 0.950 . S
C806 C807 1.327 . S
C807 H801 0.950 . S
C807 C806 1.327 . S
C807 C811 1.429 1_554 S
C808 C791 1.574 . S
C808 H802 0.949 . S
C808 C812 1.368 . S
C809 C790 1.429 . S
C809 C803 1.429 . S
C809 C810 1.523 . S
C810 C791 1.368 . S
C810 C804 1.368 . S
C810 C809 1.523 . S
C811 C795 1.429 . S
C811 C807 1.429 1_556 S
C811 C812 1.523 . S
C812 C796 1.368 . S
C812 C808 1.368 . S
C812 C811 1.523 . S
H813 C788 0.950 . S
H814 C790 0.950 . S
H815 C791 0.949 . S
H816 C793 0.950 . S
H817 C795 0.950 1_455 S
C818 C819 1.349 . S
C818 C820 1.327 . S
C818 H843 0.950 . S
C819 C818 1.349 . S
C819 C835 1.349 . S
C820 C818 1.327 . S
C820 C839 1.429 . S
C820 H844 0.950 . S
C821 C838 1.574 . S
C821 C840 1.368 . S
C821 H845 0.949 . S
H822 C826 0.949 . S
C823 C824 1.349 . S
C823 C825 1.327 . S
C823 H846 0.950 . S
C824 C823 1.349 . S
C824 C836 1.349 . S
C825 C823 1.327 . S
C825 C841 1.429 . S
C825 H847 0.950 . S
C826 H822 0.949 . S
C826 C834 1.574 . S
C826 C842 1.368 . S
H827 C835 0.950 . S
H828 C833 0.950 . S
H829 C834 0.949 . S
H830 C836 0.950 . S
H831 C837 0.950 . S
H832 C838 0.949 . S
C833 H828 0.950 . S
C833 C835 1.327 . S
C833 C839 1.429 . S
C834 C826 1.574 . S
C834 H829 0.949 . S
C834 C840 1.368 . S
C835 C819 1.349 . S
C835 H827 0.950 . S
C835 C833 1.327 . S
C836 C824 1.349 . S
C836 H830 0.950 . S
C836 C837 1.327 . S
C837 H831 0.950 . S
C837 C836 1.327 . S
C837 C841 1.429 . S
C838 C821 1.574 . S
C838 H832 0.949 . S
C838 C842 1.368 . S
C839 C820 1.429 . S
C839 C833 1.429 . S
C839 C840 1.523 . S
C840 C821 1.368 . S
C840 C834 1.368 . S
C840 C839 1.523 . S
C841 C825 1.429 . S
C841 C837 1.429 . S
C841 C842 1.523 . S
C842 C826 1.368 . S
C842 C838 1.368 . S
C842 C841 1.523 . S
H843 C818 0.950 . S
H844 C820 0.950 . S
H845 C821 0.949 . S
H846 C823 0.950 . S
H847 C825 0.950 . S
C848 C849 1.349 . S
C848 C850 1.327 . S
C848 H873 0.950 . S
C849 C848 1.349 . S
C849 C865 1.349 . S
C850 C848 1.327 . S
C850 C869 1.429 . S
C850 H874 0.950 . S
C851 C868 1.574 . S
C851 C870 1.368 . S
C851 H875 0.949 . S
H852 C856 0.949 . S
C853 C854 1.349 . S
C853 C855 1.327 . S
C853 H876 0.950 . S
C854 C853 1.349 . S
C854 C866 1.349 . S
C855 C853 1.327 . S
C855 C871 1.429 . S
C855 H877 0.950 . S
C856 H852 0.949 . S
C856 C864 1.574 . S
C856 C872 1.368 . S
H857 C865 0.950 . S
H858 C863 0.950 . S
H859 C864 0.949 . S
H860 C866 0.950 . S
H861 C867 0.950 . S
H862 C868 0.949 . S
C863 H858 0.950 . S
C863 C865 1.327 . S
C863 C869 1.429 . S
C864 C856 1.574 . S
C864 H859 0.949 . S
C864 C870 1.368 . S
C865 C849 1.349 . S
C865 H857 0.950 . S
C865 C863 1.327 . S
C866 C854 1.349 . S
C866 H860 0.950 . S
C866 C867 1.327 . S
C867 H861 0.950 . S
C867 C866 1.327 . S
C867 C871 1.429 . S
C868 C851 1.574 . S
C868 H862 0.949 . S
C868 C872 1.368 . S
C869 C850 1.429 . S
C869 C863 1.429 . S
C869 C870 1.523 . S
C870 C851 1.368 . S
C870 C864 1.368 . S
C870 C869 1.523 . S
C871 C855 1.429 . S
C871 C867 1.429 . S
C871 C872 1.523 . S
C872 C856 1.368 . S
C872 C868 1.368 . S
C872 C871 1.523 . S
H873 C848 0.950 . S
H874 C850 0.950 . S
H875 C851 0.949 . S
H876 C853 0.950 . S
H877 C855 0.950 . S
C878 C879 1.349 . S
C878 C880 1.327 . S
C878 H903 0.950 . S
C879 C878 1.349 . S
C879 C895 1.349 . S
C880 C878 1.327 . S
C880 C899 1.429 . S
C880 H904 0.950 . S
C881 C898 1.574 . S
C881 C900 1.368 . S
C881 H905 0.949 . S
H882 C886 0.949 . S
C883 C884 1.349 . S
C883 C885 1.327 . S
C883 H906 0.950 . S
C884 C883 1.349 . S
C884 C896 1.349 . S
C885 C883 1.327 . S
C885 C901 1.429 . S
C885 H907 0.950 . S
C886 H882 0.949 . S
C886 C894 1.574 . S
C886 C902 1.368 . S
H887 C895 0.950 . S
H888 C893 0.950 . S
H889 C894 0.949 . S
H890 C896 0.950 . S
H891 C897 0.950 . S
H892 C898 0.949 . S
C893 H888 0.950 . S
C893 C895 1.327 . S
C893 C899 1.429 . S
C894 C886 1.574 . S
C894 H889 0.949 . S
C894 C900 1.368 . S
C895 C879 1.349 . S
C895 H887 0.950 . S
C895 C893 1.327 . S
C896 C884 1.349 . S
C896 H890 0.950 . S
C896 C897 1.327 . S
C897 H891 0.950 . S
C897 C896 1.327 . S
C897 C901 1.429 . S
C898 C881 1.574 . S
C898 H892 0.949 . S
C898 C902 1.368 . S
C899 C880 1.429 . S
C899 C893 1.429 . S
C899 C900 1.523 . S
C900 C881 1.368 . S
C900 C894 1.368 . S
C900 C899 1.523 . S
C901 C885 1.429 . S
C901 C897 1.429 . S
C901 C902 1.523 . S
C902 C886 1.368 . S
C902 C898 1.368 . S
C902 C901 1.523 . S
H903 C878 0.950 . S
H904 C880 0.950 . S
H905 C881 0.949 . S
H906 C883 0.950 . S
H907 C885 0.950 . S
C189 C6 1.802 . S
C194 C114 1.772 . S
C219 C18 1.930 . S
C224 C138 1.904 . S
C254 C158 1.416 . S
C249 C28 1.397 . S
C279 C40 0.801 . S
C284 C181 0.804 . S
C314 C140 2.013 . S
C309 C9 2.044 . S
C344 C116 1.646 . S
C339 C16 1.688 . S
C374 C184 1.548 . S
C369 C30 1.591 . S
C404 C161 1.195 . S
C399 C42 1.227 . S
C429 C4 1.372 . S
C434 C186 1.351 . S
C464 C135 1.705 . S
C459 C33 1.698 . S
C489 C45 1.337 . S
C494 C113 1.342 . S
C519 C21 1.660 . S
C524 C163 1.627 . S
C554 C117 1.852 . S
C549 C57 1.847 . S
C579 C66 1.881 . S
C584 C139 1.867 . S
C609 C76 1.800 . S
C614 C159 1.817 . S
C639 C88 1.093 . S
C644 C182 1.116 . S
C669 C54 1.800 . S
C674 C137 1.767 . S
C704 C115 1.546 . S
C699 C64 1.542 . S
C734 C185 1.301 . S
C729 C78 1.331 . S
C764 C162 1.154 . S
C759 C93 1.175 . S
C789 C52 1.702 . S
C794 C183 1.705 1_655 S
C824 C136 1.578 . S
C819 C81 1.550 . S
C854 C112 1.265 . S
C849 C90 1.257 . S
C879 C69 2.090 . S
C884 C160 2.068 . S
