# Generated by pormake.
# Topology zzz, (3,6)-cn, num edge types: 1
# Building blocks:
#     Node 0, Type 0, BuildingBlock: MIDCAF_clean_linker_0, # of connection points: 3
#     Node 1, Type 0, BuildingBlock: MIDCAF_clean_linker_0, # of connection points: 3
#     Node 2, Type 0, BuildingBlock: MIDCAF_clean_linker_0, # of connection points: 3
#     Node 3, Type 0, BuildingBlock: MIDCAF_clean_linker_0, # of connection points: 3
#     Node 4, Type 0, BuildingBlock: MIDCAF_clean_linker_0, # of connection points: 3
#     Node 5, Type 0, BuildingBlock: MIDCAF_clean_linker_0, # of connection points: 3
#     Node 6, Type 0, BuildingBlock: MIDCAF_clean_linker_0, # of connection points: 3
#     Node 7, Type 0, BuildingBlock: MIDCAF_clean_linker_0, # of connection points: 3
#     Node 8, Type 1, BuildingBlock: HISSIN_clean_sbu_0, # of connection points: 6
#     Node 9, Type 1, BuildingBlock: HISSIN_clean_sbu_0, # of connection points: 6
#     Node 10, Type 1, BuildingBlock: HISSIN_clean_sbu_0, # of connection points: 6
#     Node 11, Type 1, BuildingBlock: HISSIN_clean_sbu_0, # of connection points: 6
#     Edge 12, Type (0, 1), BuildingBlock: EZIPEK_clean_linker_0, # of connection points: 2
#     Edge 13, Type (0, 1), BuildingBlock: EZIPEK_clean_linker_0, # of connection points: 2
#     Edge 14, Type (0, 1), BuildingBlock: EZIPEK_clean_linker_0, # of connection points: 2
#     Edge 15, Type (0, 1), BuildingBlock: EZIPEK_clean_linker_0, # of connection points: 2
#     Edge 16, Type (0, 1), BuildingBlock: EZIPEK_clean_linker_0, # of connection points: 2
#     Edge 17, Type (0, 1), BuildingBlock: EZIPEK_clean_linker_0, # of connection points: 2
#     Edge 18, Type (0, 1), BuildingBlock: EZIPEK_clean_linker_0, # of connection points: 2
#     Edge 19, Type (0, 1), BuildingBlock: EZIPEK_clean_linker_0, # of connection points: 2
#     Edge 20, Type (0, 1), BuildingBlock: EZIPEK_clean_linker_0, # of connection points: 2
#     Edge 21, Type (0, 1), BuildingBlock: EZIPEK_clean_linker_0, # of connection points: 2
#     Edge 22, Type (0, 1), BuildingBlock: EZIPEK_clean_linker_0, # of connection points: 2
#     Edge 23, Type (0, 1), BuildingBlock: EZIPEK_clean_linker_0, # of connection points: 2
#     Edge 24, Type (0, 1), BuildingBlock: EZIPEK_clean_linker_0, # of connection points: 2
#     Edge 25, Type (0, 1), BuildingBlock: EZIPEK_clean_linker_0, # of connection points: 2
#     Edge 26, Type (0, 1), BuildingBlock: EZIPEK_clean_linker_0, # of connection points: 2
#     Edge 27, Type (0, 1), BuildingBlock: EZIPEK_clean_linker_0, # of connection points: 2
#     Edge 28, Type (0, 1), BuildingBlock: EZIPEK_clean_linker_0, # of connection points: 2
#     Edge 29, Type (0, 1), BuildingBlock: EZIPEK_clean_linker_0, # of connection points: 2
#     Edge 30, Type (0, 1), BuildingBlock: EZIPEK_clean_linker_0, # of connection points: 2
#     Edge 31, Type (0, 1), BuildingBlock: EZIPEK_clean_linker_0, # of connection points: 2
#     Edge 32, Type (0, 1), BuildingBlock: EZIPEK_clean_linker_0, # of connection points: 2
#     Edge 33, Type (0, 1), BuildingBlock: EZIPEK_clean_linker_0, # of connection points: 2
#     Edge 34, Type (0, 1), BuildingBlock: EZIPEK_clean_linker_0, # of connection points: 2
#     Edge 35, Type (0, 1), BuildingBlock: EZIPEK_clean_linker_0, # of connection points: 2
# Relax obj value: 0.455
# Max RMSD: 0.241
# Mean RMSD: 0.196
data_MOF--net-zzz--node1-HISSIN_clean_sbu_0--node2-MIDCAF_clean_linker_0--edge1-EZIPEK_clean_linker_0
_symmetry_space_group_name_H-M    P1
_symmetry_Int_Tables_number       1
_symmetry_cell_setting            triclinic
loop_
_symmetry_equiv_pos_as_xyz
'x, y, z'
_cell_length_a     43.342536
_cell_length_b     43.207573
_cell_length_c     16.700861
_cell_angle_alpha  90.083398
_cell_angle_beta   91.286839
_cell_angle_gamma 91.582878
loop_
_atom_site_label
_atom_site_type_symbol
_atom_site_fract_x
_atom_site_fract_y
_atom_site_fract_z
_atom_type_partial_charge
C0 C 0.83094 0.5599 0.43356 0.0
C1 C 0.84079 0.53481 0.48049 0.0
C2 C 0.82195 0.50792 0.48314 0.0
C3 C 0.79512 0.50517 0.4351 0.0
H4 H 0.6626 0.50747 0.24868 0.0
H5 H 0.61963 0.51853 0.15641 0.0
H6 H 0.67316 0.59343 0.05423 0.0
H7 H 0.71633 0.58228 0.14668 0.0
H8 H 0.72476 0.46139 0.07496 0.0
H9 H 0.7477 0.4326 0.96527 0.0
H10 H 0.83662 0.44014 0.08569 0.0
H11 H 0.8141 0.46762 0.19593 0.0
H12 H 0.79808 0.57583 0.34513 0.0
H13 H 0.84526 0.58077 0.43008 0.0
H14 H 0.8291 0.48825 0.51843 0.0
H15 H 0.78241 0.48321 0.43376 0.0
N16 N 0.73904 0.53772 0.2967 0.0
N17 N 0.72991 0.50513 0.18465 0.0
N18 N 0.77325 0.49806 0.26701 0.0
C19 C 0.72111 0.52883 0.2315 0.0
C20 C 0.75599 0.48976 0.20157 0.0
C21 C 0.76511 0.52165 0.3151 0.0
C22 C 0.69259 0.54443 0.2061 0.0
C23 C 0.66448 0.52753 0.21004 0.0
C24 C 0.63997 0.53367 0.15677 0.0
C25 C 0.64314 0.55679 0.0983 0.0
C26 C 0.67003 0.57577 0.0995 0.0
C27 C 0.69463 0.56957 0.15291 0.0
C28 C 0.76774 0.46733 0.14349 0.0
C29 C 0.74906 0.45625 0.07887 0.0
C30 C 0.76205 0.43983 1.01623 0.0
C31 C 0.79392 0.43509 1.01675 0.0
C32 C 0.812 0.44397 0.08396 0.0
C33 C 0.79903 0.45972 0.14701 0.0
C34 C 0.78628 0.52932 0.38379 0.0
C35 C 0.80383 0.55719 0.38562 0.0
C36 C 0.98693 0.81299 0.52056 0.0
C37 C 1.0151 0.82943 0.51207 0.0
C38 C 0.03734 0.81638 0.46242 0.0
C39 C 0.02994 0.79005 0.41469 0.0
H40 H 0.94026 0.69549 0.13635 0.0
H41 H 0.95019 0.65371 0.04291 0.0
H42 H 0.04559 0.65442 0.12102 0.0
H43 H 0.03563 0.69662 0.21651 0.0
H44 H 0.95978 0.78961 0.07446 0.0
H45 H 0.98238 0.84064 0.04827 0.0
H46 H 0.9477 0.87385 0.27174 0.0
H47 H 0.92229 0.82388 0.29332 0.0
H48 H 0.95686 0.77619 0.4778 0.0
H49 H 0.96928 0.82207 0.55829 0.0
H50 H 0.05947 0.82818 0.45514 0.0
H51 H 0.04597 0.78327 0.36945 0.0
N52 N 0.99458 0.73594 0.30356 0.0
N53 N 0.96127 0.74901 0.19507 0.0
N54 N 0.96568 0.78103 0.30682 0.0
C55 C 0.98087 0.7286 0.23023 0.0
C56 C 0.95354 0.77527 0.23331 0.0
C57 C 0.98611 0.76237 0.34255 0.0
C58 C 0.98716 0.69965 0.18422 0.0
C59 C 0.96335 0.68654 0.13494 0.0
C60 C 0.96896 0.66253 0.08117 0.0
C61 C 0.99866 0.65086 0.07405 0.0
C62 C 0.02242 0.66293 0.1253 0.0
C63 C 0.01669 0.68697 0.18025 0.0
C64 C 0.94179 0.80232 0.18952 0.0
C65 C 0.95457 0.80841 0.1145 0.0
C66 C 0.96808 0.83756 0.10022 0.0
C67 C 0.96817 0.8604 0.16038 0.0
C68 C 0.94853 0.8564 0.22526 0.0
C69 C 0.9337 0.82774 0.23696 0.0
C70 C 1.00049 0.77553 0.41746 0.0
C71 C 0.98002 0.78621 0.47521 0.0
C72 C 0.68553 0.96585 0.36587 0.0
C73 C 0.68762 0.99167 0.4167 0.0
C74 C 0.71479 1.01052 0.41543 0.0
C75 C 0.73858 1.00436 0.3613 0.0
H76 H 0.82465 0.03688 0.13276 0.0
H77 H 0.86914 0.04776 0.04745 0.0
H78 H 0.89956 0.95467 0.08404 0.0
H79 H 0.85551 0.94402 0.16983 0.0
H80 H 0.78538 0.93086 0.97106 0.0
H81 H 0.76618 0.94096 0.83438 0.0
H82 H 0.68455 0.98039 0.93175 0.0
H83 H 0.70193 0.96784 0.06554 0.0
H84 H 0.70591 0.93972 0.27373 0.0
H85 H 0.66514 0.95075 0.36581 0.0
H86 H 0.71712 0.03051 0.45449 0.0
H87 H 0.75848 0.02001 0.35901 0.0
N88 N 0.78746 0.98435 0.23861 0.0
N89 N 0.7911 0.96462 0.10744 0.0
N90 N 0.74435 0.96061 0.1726 0.0
C91 C 0.80465 0.97868 0.17199 0.0
C92 C 0.76109 0.95573 0.10668 0.0
C93 C 0.757 0.97428 0.23939 0.0
C94 C 0.83691 0.98983 0.1602 0.0
C95 C 0.84191 0.01941 0.12682 0.0
C96 C 0.867 0.02541 0.07637 0.0
C97 C 0.88743 1.00182 0.05749 0.0
C98 C 0.88412 0.97324 0.09693 0.0
C99 C 0.85919 0.96734 0.14749 0.0
C100 C 0.74555 0.94952 0.02887 0.0
C101 C 0.76265 0.94034 0.96257 0.0
C102 C 0.752 0.94657 0.88468 0.0
C103 C 0.72497 0.96325 0.87328 0.0
C104 C 0.70597 0.96823 0.93898 0.0
C105 C 0.7159 0.96088 1.01599 0.0
C106 C 0.73566 0.97914 0.30778 0.0
C107 C 0.70909 0.95961 0.31289 0.0
C108 C 0.39462 0.72404 0.24536 0.0
C109 C 0.39643 0.71599 0.16424 0.0
C110 C 0.40942 0.73727 0.11037 0.0
C111 C 0.42495 0.76387 0.13886 0.0
H112 H 0.46193 0.86413 0.14827 0.0
H113 H 0.47796 0.90385 0.05386 0.0
H114 H 0.57312 0.88096 0.09443 0.0
H115 H 0.55711 0.84034 0.19034 0.0
H116 H 0.49017 0.77809 0.48583 0.0
H117 H 0.50065 0.73199 0.56599 0.0
H118 H 0.55928 0.69875 0.38156 0.0
H119 H 0.54883 0.74509 0.3011 0.0
H120 H 0.41293 0.7539 0.33841 0.0
H121 H 0.38413 0.70809 0.28741 0.0
H122 H 0.41042 0.73169 0.04721 0.0
H123 H 0.43775 0.778 0.09682 0.0
N124 N 0.46781 0.81042 0.20975 0.0
N125 N 0.51444 0.80813 0.28489 0.0
N126 N 0.47273 0.77386 0.31126 0.0
C127 C 0.49677 0.82202 0.22648 0.0
C128 C 0.50186 0.7842 0.32848 0.0
C129 C 0.45564 0.78651 0.25197 0.0
C130 C 0.50819 0.84863 0.17682 0.0
C131 C 0.48639 0.86743 0.13794 0.0
C132 C 0.49548 0.89034 0.08373 0.0
C133 C 0.52666 0.89527 0.06624 0.0
C134 C 0.54886 0.87745 0.10676 0.0
C135 C 0.5397 0.85436 0.16186 0.0
C136 C 0.51927 0.76567 0.38791 0.0
C137 C 0.50676 0.76187 0.46446 0.0
C138 C 0.5124 0.73527 0.50995 0.0
C139 C 0.53055 0.71173 0.47968 0.0
C140 C 0.54532 0.71666 0.40637 0.0
C141 C 0.53974 0.74342 0.36089 0.0
C142 C 0.42821 0.76895 0.22166 0.0
C143 C 0.41102 0.75022 0.27428 0.0
C144 C 0.19334 0.5193 1.01492 0.0
C145 C 0.20009 0.51527 0.93409 0.0
C146 C 0.23126 0.51386 0.91219 0.0
C147 C 0.25523 0.518 0.97024 0.0
H148 H 0.34162 0.47576 0.19023 0.0
H149 H 0.38777 0.46176 0.26949 0.0
H150 H 0.41886 0.55737 0.27152 0.0
H151 H 0.37379 0.57106 0.19047 0.0
H152 H 0.31757 0.59286 0.34852 0.0
H153 H 0.29799 0.61969 0.4658 0.0
H154 H 0.20526 0.60931 0.36888 0.0
H155 H 0.22427 0.58304 0.25178 0.0
H156 H 0.21069 0.52749 0.13378 0.0
H157 H 0.16957 0.52028 0.03335 0.0
H158 H 0.23698 0.51074 0.84998 0.0
H159 H 0.279 0.51834 0.95148 0.0
N160 N 0.30196 0.52422 0.11359 0.0
N161 N 0.31255 0.55597 0.22645 0.0
N162 N 0.26329 0.55466 0.16814 0.0
C163 C 0.32227 0.53548 0.17157 0.0
C164 C 0.28324 0.56564 0.22553 0.0
C165 C 0.27217 0.5343 0.11157 0.0
C166 C 0.35412 0.52451 0.18407 0.0
C167 C 0.35927 0.49339 0.20342 0.0
C168 C 0.38543 0.48547 0.24979 0.0
C169 C 0.40636 0.5087 0.27856 0.0
C170 C 0.40296 0.5391 0.25109 0.0
C171 C 0.37726 0.54686 0.20401 0.0
C172 C 0.27241 0.58542 0.29105 0.0
C173 C 0.29304 0.5967 0.35157 0.0
C174 C 0.282 0.61205 0.41858 0.0
C175 C 0.25024 0.61604 0.42602 0.0
C176 C 0.22989 0.60625 0.36403 0.0
C177 C 0.24083 0.5912 0.2971 0.0
C178 C 0.2483 0.52376 0.0508 0.0
C179 C 0.21702 0.52344 0.07233 0.0
C180 C 0.01938 0.21023 0.95559 0.0
C181 C 0.03823 0.20321 0.8907 0.0
C182 C 0.06177 0.22467 0.87079 0.0
C183 C 0.06808 0.25101 0.91878 0.0
H184 H 0.01805 0.34265 0.16054 0.0
H185 H 1.00549 0.38619 0.24942 0.0
H186 H 0.09737 0.38543 0.35286 0.0
H187 H 0.11011 0.34298 0.26514 0.0
H188 H 0.0992 0.25593 0.32128 0.0
H189 H 0.08731 0.20384 0.36744 0.0
H190 H 0.1284 0.16603 0.15744 0.0
H191 H 0.13954 0.21843 0.10924 0.0
H192 H 1.01283 0.23947 0.05779 0.0
H193 H 1.00124 0.19401 0.97286 0.0
H194 H 0.07682 0.21985 0.82165 0.0
H195 H 0.08843 0.26519 0.90658 0.0
N196 N 0.05789 0.29951 0.09232 0.0
N197 N 0.09504 0.29199 0.19558 0.0
N198 N 0.08973 0.25626 0.09155 0.0
C199 C 0.07296 0.30985 0.16139 0.0
C200 C 0.10358 0.26528 0.16113 0.0
C201 C 0.06711 0.27266 0.05648 0.0
C202 C 0.06505 0.33889 0.20554 0.0
C203 C 0.03569 0.35213 0.20119 0.0
C204 C 0.02844 0.37692 0.25245 0.0
C205 C 0.0504 0.389 0.30888 0.0
C206 C 0.07992 0.37656 0.3107 0.0
C207 C 0.08711 0.35207 0.26007 0.0
C208 C 0.11839 0.24105 0.20923 0.0
C209 C 0.10764 0.23668 0.28721 0.0
C210 C 0.10048 0.20679 0.31346 0.0
C211 C 0.1054 0.18148 0.26322 0.0
C212 C 0.12367 0.18555 0.19562 0.0
C213 C 0.1303 0.21555 0.16861 0.0
C214 C 0.05093 0.25677 0.98772 0.0
C215 C 0.02566 0.23666 1.00345 0.0
C216 C 0.36908 0.05786 0.05696 0.0
C217 C 0.36175 0.05603 0.97499 0.0
C218 C 0.33043 0.05744 0.9505 0.0
C219 C 0.30705 0.06111 1.00737 0.0
H220 H 0.18829 0.10115 0.19628 0.0
H221 H 0.14328 0.08976 0.27868 0.0
H222 H 0.17844 0.9998 0.33298 0.0
H223 H 0.22301 1.01081 0.24869 0.0
H224 H 0.25223 0.10984 0.41453 0.0
H225 H 0.26574 0.09595 0.55277 0.0
H226 H 0.35432 0.06577 0.47517 0.0
H227 H 0.34169 0.08059 0.33893 0.0
H228 H 0.35307 0.0633 0.17572 0.0
H229 H 0.39289 0.05661 0.0776 0.0
H230 H 0.32415 0.05593 0.88746 0.0
H231 H 0.28328 0.06269 0.98679 0.0
N232 N 0.26045 0.0623 0.14535 0.0
N233 N 0.25279 0.08242 0.27429 0.0
N234 N 0.30212 0.08367 0.22227 0.0
C235 C 0.24109 0.06885 0.20696 0.0
C236 C 0.28306 0.08971 0.28323 0.0
C237 C 0.29132 0.07063 0.15246 0.0
C238 C 0.20897 0.0566 0.21386 0.0
C239 C 0.18536 0.07814 0.22113 0.0
C240 C 0.15991 0.0719 0.26992 0.0
C241 C 0.15773 0.04416 0.31355 0.0
C242 C 0.1796 0.0214 0.30019 0.0
C243 C 0.20481 0.02748 0.25043 0.0
C244 C 0.29547 0.0951 0.36532 0.0
C245 C 0.27515 0.10153 0.4277 0.0
C246 C 0.28266 0.09338 0.50664 0.0
C247 C 0.31029 0.07837 0.5232 0.0
C248 C 0.33246 0.07667 0.46326 0.0
C249 C 0.32526 0.08531 0.385 0.0
C250 C 0.31461 0.06378 0.08972 0.0
C251 C 0.34603 0.06173 0.11318 0.0
C252 C 0.62597 0.33261 0.32985 0.0
C253 C 0.63879 0.31368 0.38934 0.0
C254 C 0.63484 0.28142 0.38304 0.0
C255 C 0.6156 0.26859 0.32235 0.0
H256 H 0.48466 0.23688 0.27378 0.0
H257 H 0.47233 0.19383 0.36482 0.0
H258 H 0.53992 0.13842 0.25104 0.0
H259 H 0.5522 0.18131 0.16032 0.0
H260 H 0.48716 0.29313 1.01872 0.0
H261 H 0.47554 0.3347 0.9218 0.0
H262 H 0.57119 0.36458 0.92875 0.0
H263 H 0.58306 0.32341 1.02215 0.0
H264 H 0.59697 0.33541 0.22575 0.0
H265 H 0.62896 0.35758 0.33321 0.0
H266 H 0.64526 0.26637 0.42718 0.0
H267 H 0.61133 0.24377 0.32109 0.0
N268 N 0.56058 0.24961 0.22723 0.0
N269 N 0.52665 0.25795 0.11711 0.0
N270 N 0.56832 0.29258 0.14536 0.0
C271 C 0.53563 0.24047 0.18178 0.0
C272 C 0.54366 0.2841 0.09803 0.0
C273 C 0.57693 0.27568 0.20969 0.0
C274 C 0.51881 0.21218 0.20842 0.0
C275 C 0.49546 0.21485 0.26497 0.0
C276 C 0.48865 0.19036 0.31767 0.0
C277 C 0.50522 0.16287 0.31485 0.0
C278 C 0.52662 0.15924 0.25386 0.0
C279 C 0.5334 0.18368 0.20137 0.0
C280 C 0.53597 0.30503 0.02944 0.0
C281 C 0.50577 0.30809 0.99802 0.0
C282 C 0.4991 0.33193 0.94294 0.0
C283 C 0.52249 0.3531 0.91893 0.0
C284 C 0.55274 0.34884 0.94683 0.0
C285 C 0.5594 0.32517 1.00074 0.0
C286 C 0.60112 0.28787 0.26583 0.0
C287 C 0.60762 0.31986 0.26832 0.0
Eu288 Eu 0.99886 0.02625 0.62836 0.0
Eu289 Eu 0.05271 1.01042 0.75656 0.0
C290 C 0.03155 0.07981 0.74016 0.0
C291 C 0.97091 0.05943 0.44115 0.0
C292 C 0.97089 0.09198 0.44081 0.0
C293 C 1.00839 0.06082 0.33471 0.0
C294 C 0.99129 0.10863 0.39269 0.0
C295 C 0.98796 0.04409 0.38289 0.0
C296 C 1.0115 0.09296 0.34355 0.0
C297 C 0.96112 0.04274 0.51407 0.0
O298 O 1.00838 0.01699 0.82494 0.0
O299 O 0.97247 1.0036 0.7289 0.0
C300 C 0.97981 1.00881 0.80449 0.0
O301 O 1.01339 0.97775 0.59666 0.0
O302 O 0.07488 0.02046 0.87282 0.0
O303 O 0.09098 0.98287 0.8013 0.0
O304 O 0.03245 0.9633 0.71884 0.0
C305 C 0.02261 0.956 0.64591 0.0
O306 O 0.04306 0.04215 0.56895 0.0
O307 O 0.07797 1.01319 0.6388 0.0
O308 O 0.05607 0.06257 0.74343 0.0
O309 O 0.97061 0.01452 0.52187 0.0
O310 O 0.96494 0.05827 0.58074 0.0
O311 O 1.00517 0.06828 0.71105 0.0
C312 C 0.08439 0.97426 0.93951 0.0
C313 C 0.0654 0.94786 0.9259 0.0
C314 C 0.08041 0.96613 0.08322 0.0
C315 C 0.05328 0.93144 0.9899 0.0
C316 C 0.09242 0.98293 1.01862 0.0
C317 C 0.05988 0.94095 0.06887 0.0
C318 C 0.09075 0.99536 0.87245 0.0
C319 C 0.07023 0.02947 0.57524 0.0
H320 H 0.9577 0.10449 0.48401 0.0
H321 H 0.02353 0.04856 0.29569 0.0
H322 H 0.99324 0.13357 0.39914 0.0
H323 H 0.988 0.01904 0.38017 0.0
H324 H 0.05837 0.94086 0.86576 0.0
H325 H 0.08618 0.97341 0.14385 0.0
H326 H 0.03755 0.91198 0.97767 0.0
H327 H 0.10677 1.00343 0.03035 0.0
Eu328 Eu 0.54232 0.0549 0.73816 0.0
Eu329 Eu 0.50341 1.00181 0.63535 0.0
C330 C 0.53446 0.98522 0.80898 0.0
C331 C 0.61433 0.09391 0.78736 0.0
C332 C 0.62465 0.08993 0.70846 0.0
C333 C 0.65926 0.06734 0.8372 0.0
C334 C 0.65019 0.07193 0.69411 0.0
C335 C 0.63355 0.08509 0.85156 0.0
C336 C 0.66602 0.05863 0.75865 0.0
C337 C 0.58085 0.0955 0.80075 0.0
O338 O 0.46787 0.02628 0.70948 0.0
O339 O 0.49718 0.05364 0.80368 0.0
C340 C 0.47048 0.04214 0.77692 0.0
O341 O 0.51244 0.08002 0.64792 0.0
O342 O 0.48409 0.95487 0.61621 0.0
O343 O 0.47241 0.99147 0.53399 0.0
O344 O 0.512 0.0425 0.55242 0.0
C345 C 0.50973 0.07167 0.57253 0.0
O346 O 0.57529 0.03748 0.64466 0.0
O347 O 0.55209 0.99239 0.59691 0.0
O348 O 0.51304 0.97887 0.75424 0.0
O349 O 0.56369 0.1014 0.73795 0.0
O350 O 0.56935 0.07235 0.84155 0.0
O351 O 0.55183 1.01063 0.80643 0.0
C352 C 0.43139 0.96154 0.58053 0.0
C353 C 0.40989 0.96958 0.52066 0.0
C354 C 0.39438 0.97452 0.68205 0.0
C355 C 0.38221 0.9828 0.5416 0.0
C356 C 0.42238 0.96173 0.66118 0.0
C357 C 0.37558 0.98755 0.62249 0.0
C358 C 0.46441 0.96433 0.56186 0.0
C359 C 0.57599 1.01188 0.60179 0.0
H360 H 0.61079 0.09697 0.65735 0.0
H361 H 0.67158 0.05735 0.88764 0.0
H362 H 0.65533 0.06555 0.63317 0.0
H363 H 0.62632 0.08802 0.91274 0.0
H364 H 0.41625 0.96964 0.45827 0.0
H365 H 0.38924 0.97761 0.74464 0.0
H366 H 0.36763 0.99238 0.4948 0.0
H367 H 0.43842 0.95556 0.70879 0.0
Eu368 Eu 0.49192 0.53734 0.73426 0.0
Eu369 Eu 0.55624 0.52131 0.64349 0.0
C370 C 0.55847 0.54848 0.82171 0.0
C371 C 0.42778 0.56923 0.86513 0.0
C372 C 0.44231 0.59806 0.88029 0.0
C373 C 0.38963 0.5801 0.9651 0.0
C374 C 0.43048 0.61785 0.9372 0.0
C375 C 0.4014 0.56031 0.90762 0.0
C376 C 0.40414 0.609 0.97984 0.0
C377 C 0.44013 0.54809 0.80605 0.0
O378 O 0.5454 0.47979 0.72211 0.0
O379 O 0.49319 0.48506 0.73111 0.0
C380 C 0.51805 0.46874 0.74157 0.0
O381 O 0.47825 0.52911 0.60487 0.0
O382 O 0.60576 0.51464 0.65539 0.0
O383 O 0.58368 0.51189 0.53841 0.0
O384 O 0.51849 0.50025 0.5624 0.0
C385 C 0.49069 0.51124 0.55156 0.0
O386 O 0.51213 0.58417 0.69692 0.0
O387 O 0.54278 0.56794 0.59494 0.0
O388 O 0.57005 0.55121 0.75011 0.0
O389 O 0.4477 0.56009 0.73744 0.0
O390 O 0.46052 0.52886 0.8328 0.0
O391 O 0.52957 0.53954 0.83099 0.0
C392 C 0.6248 0.47783 0.56587 0.0
C393 C 0.61826 0.46063 0.49585 0.0
C394 C 0.65799 0.43679 0.61385 0.0
C395 C 0.63052 0.43143 0.48635 0.0
C396 C 0.64564 0.46609 0.6236 0.0
C397 C 0.64968 0.41901 0.54621 0.0
C398 C 0.60877 0.50698 0.58064 0.0
C399 C 0.52802 0.58981 0.63179 0.0
H400 H 0.46284 0.60516 0.8485 0.0
H401 H 0.36953 0.57285 0.99845 0.0
H402 H 0.44208 0.64 0.94876 0.0
H403 H 0.39008 0.53798 0.89671 0.0
H404 H 0.60278 0.46918 0.44966 0.0
H405 H 0.67284 0.42747 0.66038 0.0
H406 H 0.62404 0.41791 0.43357 0.0
H407 H 0.65151 0.47906 0.67764 0.0
Eu408 Eu 0.03548 0.55042 0.63291 0.0
Eu409 Eu 1.01357 0.4918 0.7418 0.0
C410 C 0.08485 0.51622 0.74979 0.0
C411 C 0.08552 0.61571 0.55797 0.0
C412 C 0.10335 0.61911 0.48957 0.0
C413 C 0.12917 0.63464 0.6402 0.0
C414 C 0.13427 0.62845 0.49683 0.0
C415 C 0.0982 0.62474 0.63313 0.0
C416 C 0.14774 0.63477 0.57252 0.0
C417 C 0.05644 0.59752 0.55137 0.0
O418 O 0.99927 0.53453 0.8105 0.0
O419 O 0.03537 0.56833 0.76042 0.0
C420 C 1.01533 0.56081 0.81536 0.0
O421 O 0.98344 0.55121 0.62122 0.0
O422 O 0.99921 0.47039 0.85397 0.0
O423 O 1.00357 0.44217 0.74831 0.0
O424 O 0.97139 0.50185 0.66421 0.0
C425 C 0.96369 0.52785 0.62907 0.0
O426 O 0.0263 0.51041 0.5463 0.0
O427 O 0.03804 0.47232 0.63478 0.0
O428 O 0.06204 0.50276 0.78835 0.0
O429 O 0.05966 0.56878 0.52982 0.0
O430 O 0.03702 0.60016 0.60941 0.0
O431 O 0.08021 0.5307 0.68141 0.0
C432 C 0.96171 0.4305 0.83259 0.0
C433 C 0.9428 0.42045 0.76727 0.0
C434 C 0.91811 0.42416 0.91998 0.0
C435 C 0.91154 0.41319 0.77812 0.0
C436 C 0.94935 0.43105 0.90943 0.0
C437 C 0.89885 0.41636 0.85401 0.0
C438 C 0.99307 0.44356 0.82059 0.0
C439 C 0.03373 0.48165 0.56067 0.0
H440 H 0.09403 0.61225 0.43124 0.0
H441 H 0.13919 0.63975 0.6989 0.0
H442 H 0.14826 0.62868 0.44382 0.0
H443 H 0.08486 0.62228 0.68691 0.0
H444 H 0.95168 0.41963 0.70724 0.0
H445 H 0.90859 0.42653 0.97906 0.0
H446 H 0.8969 0.40709 0.72676 0.0
H447 H 0.96349 0.43845 0.96066 0.0
C448 C 0.10638 0.02443 0.36659 0.0
C449 C 0.13503 0.04051 0.38017 0.0
C450 C 0.12178 0.04861 0.52194 0.0
C451 C 0.0926 0.03341 0.50789 0.0
N452 N 0.05603 1.00837 0.4159 0.0
N453 N 0.16956 0.07002 0.46795 0.0
C454 C 0.08459 0.02184 0.42975 0.0
C455 C 0.14261 0.05307 0.45726 0.0
N456 N 0.10037 1.01109 0.29333 0.0
N457 N 0.12954 0.05893 0.59742 0.0
H458 H 0.18598 0.07264 0.42362 0.0
H459 H 0.17527 0.08294 0.51896 0.0
H460 H 0.11407 0.05878 0.64432 0.0
H461 H 0.15156 0.06669 0.61521 0.0
H462 H 0.0816 0.99632 0.28025 0.0
H463 H 0.11525 1.01354 0.24538 0.0
H464 H 0.04735 1.00164 0.35986 0.0
H465 H 0.03996 1.0047 0.46051 0.0
C466 C 0.52812 0.14289 0.44374 0.0
C467 C 0.50458 0.14047 0.38335 0.0
C468 C 0.4818 0.09542 0.45337 0.0
C469 C 0.50733 0.09584 0.50851 0.0
N470 N 0.55777 0.11682 0.54628 0.0
N471 N 0.46038 0.11302 0.32586 0.0
C472 C 0.53118 0.11887 0.50135 0.0
C473 C 0.48172 0.11634 0.38692 0.0
N474 N 0.54742 0.16848 0.44685 0.0
N475 N 0.45715 0.07576 0.46615 0.0
H476 H 0.45926 0.12839 0.27781 0.0
H477 H 0.44515 0.09405 0.32001 0.0
H478 H 0.45632 0.0605 0.51445 0.0
H479 H 0.43651 0.07635 0.43316 0.0
H480 H 0.56262 0.17328 0.49472 0.0
H481 H 0.54636 0.18643 0.40526 0.0
H482 H 0.57738 0.13075 0.53735 0.0
H483 H 0.56152 0.09898 0.58675 0.0
C484 C 0.46135 0.50868 0.33285 0.0
C485 C 0.42938 0.50279 0.34503 0.0
C486 C 0.44114 0.49204 0.48685 0.0
C487 C 0.47178 0.50363 0.47775 0.0
N488 N 0.51058 0.52581 0.39169 0.0
N489 N 0.38827 0.49342 0.43861 0.0
C490 C 0.48199 0.51228 0.40037 0.0
C491 C 0.41911 0.49526 0.42319 0.0
N492 N 0.47196 0.51079 0.25661 0.0
N493 N 0.43309 0.47779 0.55662 0.0
H494 H 0.37104 0.49685 0.39533 0.0
H495 H 0.37976 0.49148 0.49629 0.0
H496 H 0.4489 0.4745 0.60371 0.0
H497 H 0.41189 0.46632 0.56409 0.0
H498 H 0.49534 0.51222 0.24345 0.0
H499 H 0.45742 0.50802 0.20628 0.0
H500 H 0.51779 0.53593 0.33846 0.0
H501 H 0.52631 0.52916 0.43917 0.0
C502 C 0.02388 0.4073 0.43448 0.0
C503 C 0.04305 0.41402 0.36832 0.0
C504 C 0.05691 0.4649 0.42906 0.0
C505 C 0.03626 0.45893 0.49264 0.0
N506 N 0.99452 0.4273 0.54427 0.0
N507 N 0.07263 0.45186 0.29458 0.0
C508 C 0.01813 0.43093 0.49192 0.0
C509 C 0.05792 0.4437 0.36323 0.0
N510 N 1.01217 0.37792 0.44471 0.0
N511 N 0.0768 0.48997 0.43337 0.0
H512 H 0.0736 0.43708 0.2453 0.0
H513 H 0.08123 0.47416 0.28356 0.0
H514 H 0.07737 0.50558 0.48106 0.0
H515 H 0.09465 0.49375 0.39354 0.0
H516 H 1.00116 0.3707 0.49652 0.0
H517 H 1.01565 0.35999 0.40436 0.0
H518 H 0.97847 0.40892 0.54126 0.0
H519 H 0.98898 0.44427 0.58557 0.0
C520 C 0.90152 1.01032 0.91124 0.0
C521 C 0.91084 1.0058 0.99252 0.0
C522 C 0.96378 0.99873 0.94819 0.0
C523 C 0.95553 1.00722 0.8683 0.0
N524 N 0.91673 0.03101 0.78323 0.0
N525 N 0.95318 1.00631 0.08808 0.0
C526 C 0.92441 0.0158 0.85216 0.0
C527 C 0.94268 1.00329 1.01092 0.0
N528 N 0.87097 1.0087 0.88945 0.0
N529 N 0.99087 0.98443 0.96447 0.0
H530 H 0.93852 1.00981 0.1358 0.0
H531 H 0.97665 1.0091 0.10201 0.0
H532 H 1.00542 0.97701 0.91995 0.0
H533 H 0.99655 0.97614 1.02127 0.0
H534 H 0.86335 1.00893 0.8298 0.0
H535 H 0.85351 1.00407 0.93004 0.0
H536 H 0.89486 0.03977 0.77247 0.0
H537 H 0.93293 0.03865 0.74208 0.0
C538 C 0.54046 0.90898 0.92367 0.0
C539 C 0.53505 0.91867 1.00337 0.0
C540 C 0.53178 0.97263 0.95711 0.0
C541 C 0.53791 0.96309 0.87754 0.0
N542 N 0.55469 0.92334 0.7886 0.0
N543 N 0.5327 0.96012 0.09901 0.0
C544 C 0.54434 0.93158 0.86208 0.0
C545 C 0.53312 0.95069 1.02092 0.0
N546 N 0.54039 0.87808 0.90594 0.0
N547 N 0.52263 1.00213 0.97126 0.0
H548 H 0.53358 0.94461 0.1468 0.0
H549 H 0.53443 0.98326 0.11655 0.0
H550 H 0.52102 0.01889 0.92673 0.0
H551 H 0.51419 1.00936 0.02589 0.0
H552 H 0.54032 0.86942 0.84772 0.0
H553 H 0.53836 0.86087 0.94936 0.0
H554 H 0.56298 0.90154 0.77569 0.0
H555 H 0.55758 0.93923 0.74232 0.0
C556 C 0.6274 0.53548 0.9632 0.0
C557 C 0.6217 0.5563 0.02668 0.0
C558 C 0.57553 0.57418 0.95312 0.0
C559 C 0.57988 0.55141 0.89313 0.0
N560 N 0.60631 0.50588 0.85103 0.0
N561 N 0.58887 0.59329 0.08718 0.0
C562 C 0.60492 0.53094 0.90073 0.0
C563 C 0.5953 0.57507 1.02309 0.0
N564 N 0.65461 0.52017 0.96192 0.0
N565 N 0.55318 0.59555 0.94189 0.0
H566 H 0.60336 0.59505 0.13783 0.0
H567 H 0.56838 0.60506 0.09249 0.0
H568 H 0.53845 0.59549 0.89162 0.0
H569 H 0.55068 0.61464 0.97903 0.0
H570 H 0.66172 0.50775 0.91244 0.0
H571 H 0.67143 0.52193 1.00744 0.0
H572 H 0.62189 0.48818 0.85935 0.0
H573 H 0.58988 0.50097 0.80618 0.0
C574 C 1.01002 0.59606 0.02721 0.0
C575 C 1.00463 0.62762 1.00879 0.0
C576 C 1.00238 0.61421 0.86497 0.0
C577 C 1.01053 0.58327 0.88278 0.0
N578 N 0.02742 0.54621 0.9811 0.0
N579 N 1.00192 0.66773 0.90889 0.0
C580 C 1.01574 0.57457 0.96408 0.0
C581 C 1.00265 0.63693 0.92721 0.0
N582 N 1.00871 0.58633 0.10489 0.0
N583 N 0.99294 0.62167 0.78891 0.0
H584 H 1.00252 0.68509 0.95244 0.0
H585 H 1.0038 0.6762 0.85079 0.0
H586 H 0.99144 0.60559 0.74225 0.0
H587 H 0.98358 0.64289 0.77393 0.0
H588 H 1.00895 0.56311 0.12148 0.0
H589 H 1.00494 0.60133 0.15245 0.0
H590 H 0.03492 0.53974 0.03818 0.0
H591 H 0.03219 0.53003 0.93698 0.0
C592 C 0.0902 0.13364 0.33772 0.0
C593 C 0.08523 0.15356 0.27188 0.0
C594 C 0.0359 0.12654 0.24028 0.0
C595 C 0.03877 0.10993 0.31251 0.0
N596 N 0.06731 0.09876 0.43433 0.0
N597 N 0.05159 0.16913 0.16026 0.0
C598 C 0.06584 0.11333 0.36186 0.0
C599 C 0.05809 0.14979 0.22246 0.0
N600 N 0.1182 0.13436 0.37709 0.0
N601 N 1.01093 0.1214 0.19015 0.0
H602 H 0.06535 0.18803 0.14342 0.0
H603 H 0.06535 0.18803 0.14342 0.0
H604 H 0.99402 0.10436 0.20095 0.0
H605 H 1.00791 0.13348 0.13652 0.0
H606 H 0.12432 0.11861 0.42136 0.0
H607 H 0.13641 0.14905 0.35998 0.0
H608 H 0.08441 0.10355 0.47772 0.0
H609 H 0.05019 0.08326 0.45345 0.0
C610 C 0.3025 0.02913 0.59751 0.0
C611 C 0.31521 0.05975 0.59668 0.0
C612 C 0.36344 0.0425 0.65444 0.0
C613 C 0.35292 1.01135 0.64184 0.0
N614 N 0.31029 0.975 0.63139 0.0
N615 N 0.34985 0.09664 0.65952 0.0
C616 C 0.32138 1.00473 0.62485 0.0
C617 C 0.34265 0.06662 0.64017 0.0
N618 N 0.27371 0.02323 0.56546 0.0
N619 N 0.3939 0.04923 0.67002 0.0
H620 H 0.33473 0.11432 0.64503 0.0
H621 H 0.36887 0.10322 0.69557 0.0
H622 H 0.41005 0.03222 0.67934 0.0
H623 H 0.40339 0.07162 0.66845 0.0
H624 H 0.26449 1.00108 0.55472 0.0
H625 H 0.25896 0.04088 0.54912 0.0
H626 H 0.28708 0.96854 0.62423 0.0
H627 H 0.32441 0.95718 0.65089 0.0
C628 C 0.67909 0.34944 0.44643 0.0
C629 C 0.65355 0.32923 0.46016 0.0
C630 C 0.63653 0.36323 0.56656 0.0
C631 C 0.65786 0.38614 0.53932 0.0
N632 N 0.70431 0.39909 0.46905 0.0
N633 N 0.61557 0.31061 0.55255 0.0
C634 C 0.68123 0.37823 0.48612 0.0
C635 C 0.63514 0.33382 0.528 0.0
N636 N 0.70025 0.34259 0.39071 0.0
N637 N 0.61616 0.37066 0.62439 0.0
H638 H 0.61453 0.28894 0.52516 0.0
H639 H 0.60232 0.31166 0.60357 0.0
H640 H 0.61747 0.39177 0.65478 0.0
H641 H 0.59783 0.3564 0.64189 0.0
H642 H 0.69974 0.32169 0.35908 0.0
H643 H 0.69974 0.32169 0.35908 0.0
H644 H 0.72143 0.39437 0.4281 0.0
H645 H 0.70647 0.42055 0.49783 0.0
C646 C 0.22737 0.60651 0.55811 0.0
C647 C 0.23676 0.62825 0.49984 0.0
C648 C 0.19634 0.6628 0.54003 0.0
C649 C 0.18185 0.63737 0.57847 0.0
N650 N 0.18535 0.58684 0.63873 0.0
N651 N 0.23601 0.6798 0.4476 0.0
C652 C 0.1985 0.61017 0.59486 0.0
C653 C 0.22361 0.65779 0.49681 0.0
N654 N 0.24536 0.58175 0.57433 0.0
N655 N 0.1827 0.69086 0.54147 0.0
H656 H 0.25648 0.67618 0.41751 0.0
H657 H 0.22622 0.7011 0.43616 0.0
H658 H 0.16249 0.69412 0.57302 0.0
H659 H 0.19225 0.71098 0.51703 0.0
H660 H 0.24098 0.56582 0.61963 0.0
H661 H 0.26641 0.57886 0.5466 0.0
H662 H 0.19447 0.56493 0.64486 0.0
H663 H 0.16465 0.58924 0.66822 0.0
C664 C 0.98911 0.91577 0.1636 0.0
C665 C 0.99412 0.88353 0.165 0.0
C666 C 0.04929 0.89287 0.14543 0.0
C667 C 0.04336 0.92448 0.13347 0.0
N668 N 1.01304 0.96703 0.17452 0.0
N669 N 0.03041 0.84349 0.19577 0.0
C670 C 1.01503 0.93634 0.15769 0.0
C671 C 0.02483 0.87272 0.16907 0.0
N672 N 0.95988 0.92672 0.16238 0.0
N673 N 0.07777 0.88207 0.12933 0.0
H674 H 1.01292 0.82871 0.21662 0.0
H675 H 0.05254 0.83524 0.20525 0.0
H676 H 0.09618 0.89704 0.11514 0.0
H677 H 0.08267 0.85861 0.12742 0.0
H678 H 0.95524 0.95005 0.15477 0.0
H679 H 0.94022 0.9123 0.16363 0.0
H680 H 0.99397 0.97607 0.20235 0.0
H681 H 0.0319 0.98236 0.16944 0.0
C682 C 0.68656 0.97484 0.76933 0.0
C683 C 0.71721 0.97947 0.79743 0.0
C684 C 0.71651 0.03297 0.74946 0.0
C685 C 0.68401 0.0305 0.74718 0.0
N686 N 0.63724 0.99886 0.75145 0.0
N687 N 0.76411 1.01103 0.79873 0.0
C688 C 0.66874 1.00111 0.7529 0.0
C689 C 0.73342 1.00763 0.77974 0.0
N690 N 0.67401 0.94555 0.76807 0.0
N691 N 0.73077 0.05986 0.72565 0.0
H692 H 0.77759 0.99255 0.81601 0.0
H693 H 0.77622 0.03216 0.798 0.0
H694 H 0.71826 0.07854 0.70421 0.0
H695 H 0.75457 0.06265 0.72039 0.0
H696 H 0.65179 0.94014 0.74649 0.0
H697 H 0.68729 0.9265 0.78308 0.0
H698 H 0.62492 0.97886 0.76741 0.0
H699 H 0.62335 0.01759 0.73858 0.0
C700 C 0.36769 0.67765 0.07677 0.0
C701 C 0.39077 0.68366 0.13661 0.0
C702 C 0.41145 0.63229 0.11442 0.0
C703 C 0.39352 0.62992 0.04302 0.0
N704 N 0.3529 0.64858 0.95678 0.0
N705 N 0.43608 0.66684 0.2111 0.0
C706 C 0.37055 0.65173 1.02523 0.0
C707 C 0.41255 0.66067 0.15695 0.0
N708 N 0.34361 0.6972 0.0687 0.0
N709 N 0.42824 0.60768 0.13955 0.0
H710 H 0.43871 0.68745 0.24307 0.0
H711 H 0.45461 0.65231 0.22021 0.0
H712 H 0.42795 0.58674 0.10825 0.0
H713 H 0.43969 0.60693 0.195 0.0
H714 H 0.32473 0.69305 0.03014 0.0
H715 H 0.34132 0.71628 0.10637 0.0
H716 H 0.33824 0.66553 0.93539 0.0
H717 H 0.35393 0.62929 0.91939 0.0
C718 C 0.82443 0.39478 0.95059 0.0
C719 C 0.81009 0.42376 0.94568 0.0
C720 C 0.84827 0.4427 0.85107 0.0
C721 C 0.86506 0.41541 0.86509 0.0
N722 N 0.86557 0.36215 0.90541 0.0
N723 N 0.80093 0.47018 0.8703 0.0
C724 C 0.85161 0.39009 0.90658 0.0
C725 C 0.81931 0.4458 0.88769 0.0
N726 N 0.81295 0.3728 1.00137 0.0
N727 N 0.86118 0.46661 0.80861 0.0
H728 H 0.77979 0.47314 0.89725 0.0
H729 H 0.80506 0.4857 0.8239 0.0
H730 H 0.88201 0.46496 0.77915 0.0
H731 H 0.85206 0.4886 0.80523 0.0
H732 H 0.82377 0.35219 1.01485 0.0
H733 H 0.79232 0.37575 0.03125 0.0
H734 H 0.85639 0.34208 0.93093 0.0
H735 H 0.88551 0.35869 0.87298 0.0
C736 C 0.04602 0.14524 0.89398 0.0
C737 C 0.03614 0.17171 0.85097 0.0
C738 C 0.02572 0.13838 0.73213 0.0
C739 C 0.03284 0.11161 0.77784 0.0
N740 N 0.04256 0.08952 0.9083 0.0
N741 N 1.01262 0.19285 0.7319 0.0
C742 C 0.04104 0.11507 0.86042 0.0
C743 C 0.02488 0.16807 0.77069 0.0
N744 N 0.06126 0.14891 0.96607 0.0
N745 N 0.02087 0.13565 0.65124 0.0
H746 H 1.01184 0.21475 0.75804 0.0
H747 H 1.00105 0.19119 0.67668 0.0
H748 H 0.02146 0.11451 0.62114 0.0
H749 H 0.01879 0.15453 0.61303 0.0
H750 H 0.07183 0.13083 0.99628 0.0
H751 H 0.0661 0.17052 0.99195 0.0
H752 H 0.04517 0.09074 0.97041 0.0
H753 H 0.03778 0.06718 0.88718 0.0
C754 C 0.39858 0.02271 0.89995 0.0
C755 C 0.38746 0.05259 0.91654 0.0
C756 C 0.42926 0.07574 0.83568 0.0
C757 C 0.44207 0.04606 0.82578 0.0
N758 N 0.44151 0.99183 0.85955 0.0
N759 N 0.3935 0.10798 0.90608 0.0
C760 C 0.42729 0.01966 0.86054 0.0
C761 C 0.40314 0.07923 0.88573 0.0
N762 N 0.38146 0.99712 0.92132 0.0
N763 N 0.44136 0.10042 0.7947 0.0
H764 H 0.37381 0.11141 0.93941 0.0
H765 H 0.4059 0.12836 0.89408 0.0
H766 H 0.46039 0.09873 0.75796 0.0
H767 H 0.43115 0.12192 0.79173 0.0
H768 H 0.38642 0.97472 0.9036 0.0
H769 H 0.36063 0.99851 0.95107 0.0
H770 H 0.43383 0.97248 0.89121 0.0
H771 H 0.46265 0.98871 0.83262 0.0
C772 C 0.52448 0.38206 0.78714 0.0
C773 C 0.51598 0.38115 0.86893 0.0
C774 C 0.50764 0.4373 0.86591 0.0
C775 C 0.51562 0.43822 0.78373 0.0
N776 N 0.52688 0.41114 0.66234 0.0
N777 N 0.49413 0.40655 0.98216 0.0
C778 C 0.52264 0.41042 0.74322 0.0
C779 C 0.50566 0.40834 0.90671 0.0
N780 N 0.53489 0.35583 0.75213 0.0
N781 N 0.50394 0.46438 0.9067 0.0
H782 H 0.49357 0.38619 1.01556 0.0
H783 H 0.48282 0.42455 1.00946 0.0
H784 H 0.50531 0.48607 0.87976 0.0
H785 H 0.50201 0.46572 0.96861 0.0
H786 H 0.54463 0.35526 0.69583 0.0
H787 H 0.53482 0.33445 0.78112 0.0
H788 H 0.5294 0.39152 0.62716 0.0
H789 H 0.52565 0.43146 0.62887 0.0
C790 C 0.15755 0.48654 0.85562 0.0
C791 C 0.17397 0.51467 0.87357 0.0
C792 C 0.13299 0.54394 0.80607 0.0
C793 C 0.11676 0.51573 0.78646 0.0
N794 N 0.11715 0.46012 0.77619 0.0
N795 N 0.18103 0.56938 0.85083 0.0
C796 C 0.13015 0.48699 0.8064 0.0
C797 C 0.16292 0.54309 0.84335 0.0
N798 N 0.16767 0.45946 0.88764 0.0
N799 N 0.11904 0.57161 0.79426 0.0
H800 H 0.20276 0.56968 0.87903 0.0
H801 H 0.17585 0.59021 0.82302 0.0
H802 H 0.09701 0.57347 0.76893 0.0
H803 H 0.12813 0.59267 0.81566 0.0
H804 H 0.15486 0.43872 0.88536 0.0
H805 H 0.18832 0.45813 0.92064 0.0
H806 H 0.1273 0.43866 0.78189 0.0
H807 H 0.09755 0.45968 0.73871 0.0
C808 C 1.01513 0.86641 0.63225 0.0
C809 C 0.01965 0.86145 0.54895 0.0
C810 C 0.03329 0.91695 0.5368 0.0
C811 C 0.02323 0.9229 0.61576 0.0
N812 N 0.99926 0.90223 0.73443 0.0
N813 N 0.02552 0.88521 0.41859 0.0
C814 C 1.01283 0.8973 0.66268 0.0
C815 C 0.02667 0.88762 0.5002 0.0
N816 N 1.01379 0.84169 0.683 0.0
N817 N 0.05056 0.93876 0.4976 0.0
H818 H 0.01865 0.86496 0.3884 0.0
H819 H 0.02787 0.90438 0.38113 0.0
H820 H 0.05862 0.95912 0.52541 0.0
H821 H 0.06031 0.93465 0.44218 0.0
H822 H 1.01337 0.84407 0.74507 0.0
H823 H 0.01651 0.81899 0.6636 0.0
H824 H 0.98866 0.88453 0.76705 0.0
H825 H 0.99562 0.92423 0.75737 0.0
C826 C 0.65171 0.97739 0.52931 0.0
C827 C 0.66051 0.99865 0.46854 0.0
C828 C 0.61414 0.02872 0.49562 0.0
C829 C 0.60437 1.00635 0.55316 0.0
N830 N 0.61143 0.95631 0.61356 0.0
N831 N 0.64749 0.04198 0.38491 0.0
C832 C 0.62239 0.97971 0.56629 0.0
C833 C 0.64118 0.02384 0.4499 0.0
N834 N 0.67202 0.95546 0.55369 0.0
N835 N 0.59698 0.05436 0.48269 0.0
H836 H 0.66676 0.03918 0.34968 0.0
H837 H 0.63258 0.05837 0.36184 0.0
H838 H 0.57486 0.05651 0.50471 0.0
H839 H 0.60492 0.07383 0.45189 0.0
H840 H 0.66838 0.94074 0.60196 0.0
H841 H 0.69397 0.95376 0.52991 0.0
H842 H 0.6212 0.93459 0.61666 0.0
H843 H 0.59133 0.95783 0.646 0.0
C844 C 0.51126 0.65608 0.48609 0.0
C845 C 0.53029 0.68047 0.5191 0.0
C846 C 0.54494 0.64648 0.63166 0.0
C847 C 0.52796 0.62142 0.59499 0.0
N848 N 0.49735 0.60131 0.48311 0.0
N849 N 0.56781 0.6983 0.61824 0.0
C850 C 0.51192 0.62594 0.52083 0.0
C851 C 0.54774 0.67552 0.59079 0.0
N852 N 0.49139 0.66209 0.42352 0.0
N853 N 0.55833 0.64251 0.7057 0.0
H854 H 0.57025 0.71972 0.59002 0.0
H855 H 0.58364 0.69536 0.66517 0.0
H856 H 0.55792 0.62134 0.73563 0.0
H857 H 0.56816 0.66051 0.73992 0.0
H858 H 0.47435 0.64647 0.4026 0.0
H859 H 0.49007 0.68372 0.3962 0.0
H860 H 0.48894 0.60199 0.42427 0.0
H861 H 0.49515 0.57944 0.50888 0.0
C862 C 0.87904 0.54921 0.59292 0.0
C863 C 0.8726 0.53463 0.51786 0.0
C864 C 0.92505 0.51404 0.51879 0.0
C865 C 0.93218 0.53012 0.59148 0.0
N866 N 0.91748 0.56594 0.69356 0.0
N867 N 0.89098 0.5079 0.40222 0.0
C868 C 0.90961 0.54868 0.62715 0.0
C869 C 0.89606 0.51835 0.4789 0.0
N870 N 0.85564 0.56263 0.63269 0.0
N871 N 0.9459 0.4943 0.48807 0.0
H872 H 0.87014 0.51055 0.37083 0.0
H873 H 0.90815 0.49902 0.36692 0.0
H874 H 0.96793 0.49166 0.51275 0.0
H875 H 0.94071 0.4789 0.44136 0.0
H876 H 0.85771 0.57068 0.69137 0.0
H877 H 0.83329 0.5639 0.60861 0.0
H878 H 0.9034 0.58255 0.71759 0.0
H879 H 0.93908 0.56502 0.7222 0.0
loop_
_geom_bond_atom_site_label_1
_geom_bond_atom_site_label_2
_geom_bond_distance
_geom_bond_site_symmetry_2
_ccdc_geom_bond_type
C0 C1 1.384 . S
C0 H13 0.947 . S
C0 C35 1.382 . S
C1 C0 1.384 . S
C1 C2 1.378 . S
C2 C1 1.378 . S
C2 C3 1.378 . S
C2 H14 0.952 . S
C3 C2 1.378 . S
C3 H15 0.950 . S
C3 C34 1.383 . S
H4 C23 0.947 . S
H5 C24 0.946 . S
H6 C26 0.953 . S
H7 C27 0.945 . S
H8 C29 0.952 . S
H9 C30 0.949 1_556 S
H10 C32 0.950 . S
H11 C33 0.948 . S
H12 C35 0.951 . S
H13 C0 0.947 . S
H14 C2 0.952 . S
H15 C3 0.950 . S
N16 C19 1.382 . S
N16 C21 1.363 . S
N17 C19 1.371 . S
N17 C20 1.372 . S
N18 C20 1.361 . S
N18 C21 1.377 . S
C19 N16 1.382 . S
C19 N17 1.371 . S
C19 C22 1.480 . S
C20 N17 1.372 . S
C20 N18 1.361 . S
C20 C28 1.457 . S
C21 N16 1.363 . S
C21 N18 1.377 . S
C21 C34 1.479 . S
C22 C19 1.480 . S
C22 C23 1.383 . S
C22 C27 1.385 . S
C23 H4 0.947 . S
C23 C22 1.383 . S
C23 C24 1.388 . S
C24 H5 0.946 . S
C24 C23 1.388 . S
C24 C25 1.384 . S
C25 C24 1.384 . S
C25 C26 1.377 . S
C26 H6 0.953 . S
C26 C25 1.377 . S
C26 C27 1.369 . S
C27 H7 0.945 . S
C27 C22 1.385 . S
C27 C26 1.369 . S
C28 C20 1.457 . S
C28 C29 1.372 . S
C28 C33 1.364 . S
C29 H8 0.952 . S
C29 C28 1.372 . S
C29 C30 1.389 . S
C30 H9 0.949 1_554 S
C30 C29 1.389 . S
C30 C31 1.387 . S
C31 C30 1.387 . S
C31 C32 1.372 . S
C32 H10 0.950 . S
C32 C31 1.372 . S
C32 C33 1.379 . S
C33 H11 0.948 . S
C33 C28 1.364 . S
C33 C32 1.379 . S
C34 C3 1.383 . S
C34 C21 1.479 . S
C34 C35 1.398 . S
C35 C0 1.382 . S
C35 H12 0.951 . S
C35 C34 1.398 . S
C36 C37 1.384 . S
C36 H49 0.947 . S
C36 C71 1.382 . S
C37 C36 1.384 . S
C37 C38 1.378 . S
C38 C37 1.378 . S
C38 C39 1.378 . S
C38 H50 0.952 . S
C39 C38 1.378 . S
C39 H51 0.950 . S
C39 C70 1.383 . S
H40 C59 0.947 . S
H41 C60 0.946 . S
H42 C62 0.953 . S
H43 C63 0.945 . S
H44 C65 0.952 . S
H45 C66 0.949 . S
H46 C68 0.950 . S
H47 C69 0.948 . S
H48 C71 0.951 . S
H49 C36 0.947 . S
H50 C38 0.952 . S
H51 C39 0.950 . S
N52 C55 1.382 . S
N52 C57 1.363 . S
N53 C55 1.371 . S
N53 C56 1.372 . S
N54 C56 1.361 . S
N54 C57 1.377 . S
C55 N52 1.382 . S
C55 N53 1.371 . S
C55 C58 1.480 . S
C56 N53 1.372 . S
C56 N54 1.361 . S
C56 C64 1.457 . S
C57 N52 1.363 . S
C57 N54 1.377 . S
C57 C70 1.479 . S
C58 C55 1.480 . S
C58 C59 1.383 . S
C58 C63 1.385 . S
C59 H40 0.947 . S
C59 C58 1.383 . S
C59 C60 1.388 . S
C60 H41 0.946 . S
C60 C59 1.388 . S
C60 C61 1.384 . S
C61 C60 1.384 . S
C61 C62 1.377 . S
C62 H42 0.953 . S
C62 C61 1.377 . S
C62 C63 1.369 . S
C63 H43 0.945 . S
C63 C58 1.385 . S
C63 C62 1.369 . S
C64 C56 1.457 . S
C64 C65 1.372 . S
C64 C69 1.364 . S
C65 H44 0.952 . S
C65 C64 1.372 . S
C65 C66 1.389 . S
C66 H45 0.949 . S
C66 C65 1.389 . S
C66 C67 1.387 . S
C67 C66 1.387 . S
C67 C68 1.372 . S
C68 H46 0.950 . S
C68 C67 1.372 . S
C68 C69 1.379 . S
C69 H47 0.948 . S
C69 C64 1.364 . S
C69 C68 1.379 . S
C70 C39 1.383 . S
C70 C57 1.479 . S
C70 C71 1.398 . S
C71 C36 1.382 . S
C71 H48 0.951 . S
C71 C70 1.398 . S
C72 C73 1.384 . S
C72 H85 0.947 . S
C72 C107 1.382 . S
C73 C72 1.384 . S
C73 C74 1.378 . S
C74 C73 1.378 . S
C74 C75 1.378 . S
C74 H86 0.952 . S
C75 C74 1.378 . S
C75 H87 0.950 . S
C75 C106 1.383 . S
H76 C95 0.947 . S
H77 C96 0.946 . S
H78 C98 0.953 . S
H79 C99 0.945 . S
H80 C101 0.952 . S
H81 C102 0.949 . S
H82 C104 0.950 . S
H83 C105 0.948 . S
H84 C107 0.951 . S
H85 C72 0.947 . S
H86 C74 0.952 . S
H87 C75 0.950 . S
N88 C91 1.382 . S
N88 C93 1.363 . S
N89 C91 1.371 . S
N89 C92 1.372 . S
N90 C92 1.361 . S
N90 C93 1.377 . S
C91 N88 1.382 . S
C91 N89 1.371 . S
C91 C94 1.480 . S
C92 N89 1.372 . S
C92 N90 1.361 . S
C92 C100 1.457 . S
C93 N88 1.363 . S
C93 N90 1.377 . S
C93 C106 1.479 . S
C94 C91 1.480 . S
C94 C95 1.383 . S
C94 C99 1.385 . S
C95 H76 0.947 . S
C95 C94 1.383 . S
C95 C96 1.388 . S
C96 H77 0.946 . S
C96 C95 1.388 . S
C96 C97 1.384 . S
C97 C96 1.384 . S
C97 C98 1.377 . S
C98 H78 0.953 . S
C98 C97 1.377 . S
C98 C99 1.369 . S
C99 H79 0.945 . S
C99 C94 1.385 . S
C99 C98 1.369 . S
C100 C92 1.457 . S
C100 C101 1.372 . S
C100 C105 1.364 . S
C101 H80 0.952 . S
C101 C100 1.372 . S
C101 C102 1.389 . S
C102 H81 0.949 . S
C102 C101 1.389 . S
C102 C103 1.387 . S
C103 C102 1.387 . S
C103 C104 1.372 . S
C104 H82 0.950 . S
C104 C103 1.372 . S
C104 C105 1.379 . S
C105 H83 0.948 . S
C105 C100 1.364 . S
C105 C104 1.379 . S
C106 C75 1.383 . S
C106 C93 1.479 . S
C106 C107 1.398 . S
C107 C72 1.382 . S
C107 H84 0.951 . S
C107 C106 1.398 . S
C108 C109 1.384 . S
C108 H121 0.947 . S
C108 C143 1.382 . S
C109 C108 1.384 . S
C109 C110 1.378 . S
C110 C109 1.378 . S
C110 C111 1.378 . S
C110 H122 0.952 1_554 S
C111 C110 1.378 . S
C111 H123 0.950 . S
C111 C142 1.383 . S
H112 C131 0.947 . S
H113 C132 0.946 . S
H114 C134 0.953 . S
H115 C135 0.945 . S
H116 C137 0.952 . S
H117 C138 0.949 . S
H118 C140 0.950 . S
H119 C141 0.948 . S
H120 C143 0.951 . S
H121 C108 0.947 . S
H122 C110 0.952 1_556 S
H123 C111 0.950 . S
N124 C127 1.382 . S
N124 C129 1.363 . S
N125 C127 1.371 . S
N125 C128 1.372 . S
N126 C128 1.361 . S
N126 C129 1.377 . S
C127 N124 1.382 . S
C127 N125 1.371 . S
C127 C130 1.480 . S
C128 N125 1.372 . S
C128 N126 1.361 . S
C128 C136 1.457 . S
C129 N124 1.363 . S
C129 N126 1.377 . S
C129 C142 1.479 . S
C130 C127 1.480 . S
C130 C131 1.383 . S
C130 C135 1.385 . S
C131 H112 0.947 . S
C131 C130 1.383 . S
C131 C132 1.388 . S
C132 H113 0.946 . S
C132 C131 1.388 . S
C132 C133 1.384 . S
C133 C132 1.384 . S
C133 C134 1.377 . S
C134 H114 0.953 . S
C134 C133 1.377 . S
C134 C135 1.369 . S
C135 H115 0.945 . S
C135 C130 1.385 . S
C135 C134 1.369 . S
C136 C128 1.457 . S
C136 C137 1.372 . S
C136 C141 1.364 . S
C137 H116 0.952 . S
C137 C136 1.372 . S
C137 C138 1.389 . S
C138 H117 0.949 . S
C138 C137 1.389 . S
C138 C139 1.387 . S
C139 C138 1.387 . S
C139 C140 1.372 . S
C140 H118 0.950 . S
C140 C139 1.372 . S
C140 C141 1.379 . S
C141 H119 0.948 . S
C141 C136 1.364 . S
C141 C140 1.379 . S
C142 C111 1.383 . S
C142 C129 1.479 . S
C142 C143 1.398 . S
C143 C108 1.382 . S
C143 H120 0.951 . S
C143 C142 1.398 . S
C144 C145 1.384 . S
C144 H157 0.947 . S
C144 C179 1.382 . S
C145 C144 1.384 . S
C145 C146 1.378 . S
C146 C145 1.378 . S
C146 C147 1.378 . S
C146 H158 0.952 . S
C147 C146 1.378 . S
C147 H159 0.950 . S
C147 C178 1.383 . S
H148 C167 0.947 . S
H149 C168 0.946 . S
H150 C170 0.953 . S
H151 C171 0.945 . S
H152 C173 0.952 . S
H153 C174 0.949 . S
H154 C176 0.950 . S
H155 C177 0.948 . S
H156 C179 0.951 . S
H157 C144 0.947 . S
H158 C146 0.952 . S
H159 C147 0.950 . S
N160 C163 1.382 . S
N160 C165 1.363 . S
N161 C163 1.371 . S
N161 C164 1.372 . S
N162 C164 1.361 . S
N162 C165 1.377 . S
C163 N160 1.382 . S
C163 N161 1.371 . S
C163 C166 1.480 . S
C164 N161 1.372 . S
C164 N162 1.361 . S
C164 C172 1.457 . S
C165 N160 1.363 . S
C165 N162 1.377 . S
C165 C178 1.479 1_554 S
C166 C163 1.480 . S
C166 C167 1.383 . S
C166 C171 1.385 . S
C167 H148 0.947 . S
C167 C166 1.383 . S
C167 C168 1.388 . S
C168 H149 0.946 . S
C168 C167 1.388 . S
C168 C169 1.384 . S
C169 C168 1.384 . S
C169 C170 1.377 . S
C170 H150 0.953 . S
C170 C169 1.377 . S
C170 C171 1.369 . S
C171 H151 0.945 . S
C171 C166 1.385 . S
C171 C170 1.369 . S
C172 C164 1.457 . S
C172 C173 1.372 . S
C172 C177 1.364 . S
C173 H152 0.952 . S
C173 C172 1.372 . S
C173 C174 1.389 . S
C174 H153 0.949 . S
C174 C173 1.389 . S
C174 C175 1.387 . S
C175 C174 1.387 . S
C175 C176 1.372 . S
C176 H154 0.950 . S
C176 C175 1.372 . S
C176 C177 1.379 . S
C177 H155 0.948 . S
C177 C172 1.364 . S
C177 C176 1.379 . S
C178 C147 1.383 . S
C178 C165 1.479 1_556 S
C178 C179 1.398 . S
C179 C144 1.382 . S
C179 H156 0.951 . S
C179 C178 1.398 . S
C180 C181 1.384 . S
C180 H193 0.947 . S
C180 C215 1.382 . S
C181 C180 1.384 . S
C181 C182 1.378 . S
C182 C181 1.378 . S
C182 C183 1.378 . S
C182 H194 0.952 . S
C183 C182 1.378 . S
C183 H195 0.950 . S
C183 C214 1.383 . S
H184 C203 0.947 1_556 S
H185 C204 0.955 . S
H186 C206 0.953 . S
H187 C207 0.945 . S
H188 C209 0.952 . S
H189 C210 0.949 . S
H190 C212 0.950 . S
H191 C213 0.948 . S
H192 C215 0.951 . S
H193 C180 0.947 . S
H194 C182 0.952 . S
H195 C183 0.950 . S
N196 C199 1.382 1_556 S
N196 C201 1.363 . S
N197 C199 1.371 . S
N197 C200 1.372 . S
N198 C200 1.361 . S
N198 C201 1.377 1_554 S
C199 N196 1.382 1_554 S
C199 N197 1.371 . S
C199 C202 1.480 . S
C200 N197 1.372 . S
C200 N198 1.361 . S
C200 C208 1.457 . S
C201 N196 1.363 . S
C201 N198 1.377 1_556 S
C201 C214 1.479 . S
C202 C199 1.480 . S
C202 C203 1.383 . S
C202 C207 1.385 . S
C203 H184 0.947 1_554 S
C203 C202 1.383 . S
C203 C204 1.388 . S
C204 H185 0.955 . S
C204 C203 1.388 . S
C204 C205 1.384 . S
C205 C204 1.384 . S
C205 C206 1.377 . S
C206 H186 0.953 . S
C206 C205 1.377 . S
C206 C207 1.369 . S
C207 H187 0.945 . S
C207 C202 1.385 . S
C207 C206 1.369 . S
C208 C200 1.457 . S
C208 C209 1.372 . S
C208 C213 1.364 . S
C209 H188 0.952 . S
C209 C208 1.372 . S
C209 C210 1.389 . S
C210 H189 0.949 . S
C210 C209 1.389 . S
C210 C211 1.387 . S
C211 C210 1.387 . S
C211 C212 1.372 . S
C212 H190 0.950 . S
C212 C211 1.372 . S
C212 C213 1.379 . S
C213 H191 0.948 . S
C213 C208 1.364 . S
C213 C212 1.379 . S
C214 C183 1.383 . S
C214 C201 1.479 . S
C214 C215 1.398 . S
C215 C180 1.382 . S
C215 H192 0.951 . S
C215 C214 1.398 . S
C216 C217 1.384 . S
C216 H229 0.947 . S
C216 C251 1.382 . S
C217 C216 1.384 . S
C217 C218 1.378 . S
C218 C217 1.378 . S
C218 C219 1.378 . S
C218 H230 0.952 . S
C219 C218 1.378 . S
C219 H231 0.950 . S
C219 C250 1.383 . S
H220 C239 0.947 . S
H221 C240 0.946 1_556 S
H222 C242 0.953 . S
H223 C243 0.945 . S
H224 C245 0.952 . S
H225 C246 0.949 . S
H226 C248 0.950 . S
H227 C249 0.948 . S
H228 C251 0.951 . S
H229 C216 0.947 . S
H230 C218 0.952 . S
H231 C219 0.950 . S
N232 C235 1.382 1_556 S
N232 C237 1.363 . S
N233 C235 1.371 . S
N233 C236 1.372 . S
N234 C236 1.361 . S
N234 C237 1.377 1_554 S
C235 N232 1.382 1_554 S
C235 N233 1.371 . S
C235 C238 1.480 . S
C236 N233 1.372 . S
C236 N234 1.361 . S
C236 C244 1.457 . S
C237 N232 1.363 . S
C237 N234 1.377 1_556 S
C237 C250 1.479 . S
C238 C235 1.480 . S
C238 C239 1.383 1_554 S
C238 C243 1.385 . S
C239 H220 0.947 . S
C239 C238 1.383 1_556 S
C239 C240 1.388 1_556 S
C240 H221 0.946 1_554 S
C240 C239 1.388 1_554 S
C240 C241 1.384 . S
C241 C240 1.384 . S
C241 C242 1.377 . S
C242 H222 0.953 . S
C242 C241 1.377 . S
C242 C243 1.369 . S
C243 H223 0.945 . S
C243 C238 1.385 . S
C243 C242 1.369 . S
C244 C236 1.457 . S
C244 C245 1.372 . S
C244 C249 1.364 . S
C245 H224 0.952 . S
C245 C244 1.372 . S
C245 C246 1.389 . S
C246 H225 0.949 . S
C246 C245 1.389 . S
C246 C247 1.387 . S
C247 C246 1.387 . S
C247 C248 1.372 . S
C248 H226 0.950 . S
C248 C247 1.372 . S
C248 C249 1.379 . S
C249 H227 0.948 . S
C249 C244 1.364 . S
C249 C248 1.379 . S
C250 C219 1.383 . S
C250 C237 1.479 . S
C250 C251 1.398 . S
C251 C216 1.382 . S
C251 H228 0.951 . S
C251 C250 1.398 . S
C252 C253 1.384 . S
C252 H265 0.947 . S
C252 C287 1.382 . S
C253 C252 1.384 . S
C253 C254 1.378 . S
C254 C253 1.378 . S
C254 C255 1.378 . S
C254 H266 0.952 . S
C255 C254 1.378 . S
C255 H267 0.950 . S
C255 C286 1.383 . S
H256 C275 0.947 . S
H257 C276 0.946 . S
H258 C278 0.953 . S
H259 C279 0.945 1_556 S
H260 C281 0.952 . S
H261 C282 0.949 . S
H262 C284 0.950 . S
H263 C285 0.948 . S
H264 C287 0.951 . S
H265 C252 0.947 . S
H266 C254 0.952 . S
H267 C255 0.950 . S
N268 C271 1.382 . S
N268 C273 1.363 . S
N269 C271 1.371 . S
N269 C272 1.372 1_554 S
N270 C272 1.361 1_554 S
N270 C273 1.377 . S
C271 N268 1.382 . S
C271 N269 1.371 . S
C271 C274 1.480 . S
C272 N269 1.372 1_556 S
C272 N270 1.361 1_556 S
C272 C280 1.457 . S
C273 N268 1.363 . S
C273 N270 1.377 . S
C273 C286 1.479 . S
C274 C271 1.480 . S
C274 C275 1.383 . S
C274 C279 1.385 . S
C275 H256 0.947 . S
C275 C274 1.383 . S
C275 C276 1.388 . S
C276 H257 0.946 . S
C276 C275 1.388 . S
C276 C277 1.384 . S
C277 C276 1.384 . S
C277 C278 1.377 . S
C278 H258 0.953 . S
C278 C277 1.377 . S
C278 C279 1.369 . S
C279 H259 0.945 1_554 S
C279 C274 1.385 . S
C279 C278 1.369 . S
C280 C272 1.457 . S
C280 C281 1.372 . S
C280 C285 1.364 . S
C281 H260 0.952 . S
C281 C280 1.372 . S
C281 C282 1.389 . S
C282 H261 0.949 . S
C282 C281 1.389 . S
C282 C283 1.387 . S
C283 C282 1.387 . S
C283 C284 1.372 . S
C284 H262 0.950 . S
C284 C283 1.372 . S
C284 C285 1.379 . S
C285 H263 0.948 . S
C285 C280 1.364 . S
C285 C284 1.379 . S
C286 C255 1.383 . S
C286 C273 1.479 . S
C286 C287 1.398 . S
C287 C252 1.382 . S
C287 H264 0.951 . S
C287 C286 1.398 . S
Eu288 C297 2.828 . S
Eu288 O299 2.392 . S
Eu288 O301 2.418 1_545 S
Eu288 O306 2.373 1_655 S
Eu288 O309 2.488 . S
Eu288 O310 2.471 . S
Eu288 O311 2.349 1_655 S
Eu289 O298 2.373 1_455 S
Eu289 O302 2.488 . S
Eu289 O303 2.471 . S
Eu289 O304 2.349 . S
Eu289 O307 2.392 1_565 S
Eu289 O308 2.418 1_565 S
Eu289 C318 2.828 . S
C290 O308 1.244 . S
C290 O311 1.265 . S
C291 C292 1.379 1_655 S
C291 C295 1.373 . S
C291 C297 1.505 . S
C292 C291 1.379 1_455 S
C292 C294 1.369 . S
C292 H320 0.930 . S
C293 C295 1.383 . S
C293 C296 1.382 . S
C293 H321 0.930 . S
C294 C292 1.369 . S
C294 C296 1.392 1_455 S
C294 H322 0.930 . S
C295 C291 1.373 . S
C295 C293 1.383 . S
C295 H323 0.931 . S
C296 C293 1.382 . S
C296 C294 1.392 1_655 S
C297 Eu288 2.828 . S
C297 C291 1.505 . S
C297 O309 1.249 . S
C297 O310 1.244 . S
O298 Eu289 2.373 1_655 S
O298 C300 1.265 . S
O299 Eu288 2.392 . S
O299 C300 1.230 1_545 S
C300 O298 1.265 . S
C300 O299 1.230 1_565 S
O301 Eu288 2.418 1_565 S
O301 C305 1.244 . S
O302 Eu289 2.488 . S
O302 C318 1.249 . S
O303 Eu289 2.471 . S
O303 C318 1.244 . S
O304 Eu289 2.349 . S
O304 C305 1.265 1_455 S
C305 O301 1.244 . S
C305 O304 1.265 1_655 S
O306 Eu288 2.373 1_455 S
O306 C319 1.258 . S
O307 Eu289 2.392 1_545 S
O307 C319 1.242 . S
O308 Eu289 2.418 1_545 S
O308 C290 1.244 . S
O309 Eu288 2.488 . S
O309 C297 1.249 . S
O310 Eu288 2.471 . S
O310 C297 1.244 . S
O311 Eu288 2.349 1_455 S
O311 C290 1.265 . S
C312 C313 1.379 . S
C312 C316 1.373 1_556 S
C312 C318 1.505 . S
C313 C312 1.379 . S
C313 C315 1.369 . S
C313 H324 0.930 1_455 S
C314 C316 1.383 . S
C314 C317 1.382 . S
C314 H325 0.930 . S
C315 C313 1.369 . S
C315 C317 1.392 1_556 S
C315 H326 0.930 1_455 S
C316 C312 1.373 1_554 S
C316 C314 1.383 . S
C316 H327 0.931 . S
C317 C314 1.382 . S
C317 C315 1.392 1_554 S
C318 Eu289 2.828 . S
C318 O302 1.249 . S
C318 O303 1.244 . S
C318 C312 1.505 . S
C319 O306 1.258 . S
C319 O307 1.242 . S
H320 C292 0.930 . S
H321 C293 0.930 . S
H322 C294 0.930 . S
H323 C295 0.931 . S
H324 C313 0.930 1_655 S
H325 C314 0.930 . S
H326 C315 0.930 1_655 S
H327 C316 0.931 . S
Eu328 C337 2.828 . S
Eu328 O339 2.392 . S
Eu328 O341 2.418 . S
Eu328 O346 2.373 . S
Eu328 O349 2.488 . S
Eu328 O350 2.471 . S
Eu328 O351 2.349 1_545 S
Eu329 O338 2.373 1_565 S
Eu329 O342 2.488 . S
Eu329 O343 2.471 1_565 S
Eu329 O344 2.349 1_565 S
Eu329 O347 2.392 . S
Eu329 O348 2.418 . S
Eu329 C358 2.828 . S
C330 O348 1.244 . S
C330 O351 1.265 . S
C331 C332 1.379 . S
C331 C335 1.373 . S
C331 C337 1.505 . S
C332 C331 1.379 . S
C332 C334 1.369 . S
C332 H360 0.930 1_545 S
C333 C335 1.383 . S
C333 C336 1.382 . S
C333 H361 0.930 . S
C334 C332 1.369 . S
C334 C336 1.392 . S
C334 H362 0.930 1_545 S
C335 C331 1.373 . S
C335 C333 1.383 . S
C335 H363 0.931 . S
C336 C333 1.382 . S
C336 C334 1.392 . S
C337 Eu328 2.828 . S
C337 C331 1.505 . S
C337 O349 1.249 . S
C337 O350 1.244 . S
O338 Eu329 2.373 1_545 S
O338 C340 1.258 . S
O339 Eu328 2.392 . S
O339 C340 1.242 . S
C340 O338 1.258 . S
C340 O339 1.242 . S
O341 Eu328 2.418 . S
O341 C345 1.244 . S
O342 Eu329 2.488 . S
O342 C358 1.249 . S
O343 Eu329 2.471 1_545 S
O343 C358 1.244 1_545 S
O344 Eu329 2.349 1_545 S
O344 C345 1.265 . S
C345 O341 1.244 . S
C345 O344 1.265 . S
O346 Eu328 2.373 . S
O346 C359 1.258 1_545 S
O347 Eu329 2.392 . S
O347 C359 1.242 . S
O348 Eu329 2.418 . S
O348 C330 1.244 . S
O349 Eu328 2.488 . S
O349 C337 1.249 . S
O350 Eu328 2.471 . S
O350 C337 1.244 . S
O351 Eu328 2.349 1_565 S
O351 C330 1.265 . S
C352 C353 1.379 1_565 S
C352 C356 1.373 . S
C352 C358 1.505 . S
C353 C352 1.379 1_545 S
C353 C355 1.369 . S
C353 H364 0.930 . S
C354 C356 1.383 . S
C354 C357 1.382 . S
C354 H365 0.930 . S
C355 C353 1.369 . S
C355 C357 1.392 1_545 S
C355 H366 0.930 . S
C356 C352 1.373 . S
C356 C354 1.383 . S
C356 H367 0.931 . S
C357 C354 1.382 . S
C357 C355 1.392 1_565 S
C358 Eu329 2.828 . S
C358 O342 1.249 . S
C358 O343 1.244 1_565 S
C358 C352 1.505 . S
C359 O346 1.258 1_565 S
C359 O347 1.242 . S
H360 C332 0.930 1_565 S
H361 C333 0.930 . S
H362 C334 0.930 1_565 S
H363 C335 0.931 . S
H364 C353 0.930 . S
H365 C354 0.930 . S
H366 C355 0.930 . S
H367 C356 0.931 . S
Eu368 C377 2.828 . S
Eu368 O379 2.392 . S
Eu368 O381 2.418 . S
Eu368 O386 2.373 . S
Eu368 O389 2.488 . S
Eu368 O390 2.471 . S
Eu368 O391 2.349 . S
Eu369 O378 2.373 . S
Eu369 O382 2.488 . S
Eu369 O383 2.471 . S
Eu369 O384 2.349 . S
Eu369 O387 2.392 . S
Eu369 O388 2.418 . S
Eu369 C398 2.828 . S
C370 O388 1.244 . S
C370 O391 1.265 . S
C371 C372 1.379 . S
C371 C375 1.373 . S
C371 C377 1.505 . S
C372 C371 1.379 . S
C372 C374 1.369 . S
C372 H400 0.930 . S
C373 C375 1.383 . S
C373 C376 1.382 . S
C373 H401 0.930 . S
C374 C372 1.369 . S
C374 C376 1.392 . S
C374 H402 0.930 . S
C375 C371 1.373 . S
C375 C373 1.383 . S
C375 H403 0.931 . S
C376 C373 1.382 . S
C376 C374 1.392 . S
C377 Eu368 2.828 . S
C377 C371 1.505 . S
C377 O389 1.249 . S
C377 O390 1.244 . S
O378 Eu369 2.373 . S
O378 C380 1.258 . S
O379 Eu368 2.392 . S
O379 C380 1.242 . S
C380 O378 1.258 . S
C380 O379 1.242 . S
O381 Eu368 2.418 . S
O381 C385 1.244 . S
O382 Eu369 2.488 . S
O382 C398 1.249 . S
O383 Eu369 2.471 . S
O383 C398 1.244 . S
O384 Eu369 2.349 . S
O384 C385 1.265 . S
C385 O381 1.244 . S
C385 O384 1.265 . S
O386 Eu368 2.373 . S
O386 C399 1.258 . S
O387 Eu369 2.392 . S
O387 C399 1.242 . S
O388 Eu369 2.418 . S
O388 C370 1.244 . S
O389 Eu368 2.488 . S
O389 C377 1.249 . S
O390 Eu368 2.471 . S
O390 C377 1.244 . S
O391 Eu368 2.349 . S
O391 C370 1.265 . S
C392 C393 1.379 . S
C392 C396 1.373 . S
C392 C398 1.505 . S
C393 C392 1.379 . S
C393 C395 1.369 . S
C393 H404 0.930 . S
C394 C396 1.383 . S
C394 C397 1.382 . S
C394 H405 0.930 . S
C395 C393 1.369 . S
C395 C397 1.392 . S
C395 H406 0.930 . S
C396 C392 1.373 . S
C396 C394 1.383 . S
C396 H407 0.931 . S
C397 C394 1.382 . S
C397 C395 1.392 . S
C398 Eu369 2.828 . S
C398 O382 1.249 . S
C398 O383 1.244 . S
C398 C392 1.505 . S
C399 O386 1.258 . S
C399 O387 1.242 . S
H400 C372 0.930 . S
H401 C373 0.930 . S
H402 C374 0.930 . S
H403 C375 0.931 . S
H404 C393 0.930 . S
H405 C394 0.930 . S
H406 C395 0.930 . S
H407 C396 0.931 . S
Eu408 C417 2.828 . S
Eu408 O419 2.392 . S
Eu408 O421 2.418 1_455 S
Eu408 O426 2.373 . S
Eu408 O429 2.488 . S
Eu408 O430 2.471 . S
Eu408 O431 2.349 . S
Eu409 O418 2.373 . S
Eu409 O422 2.488 . S
Eu409 O423 2.471 . S
Eu409 O424 2.349 . S
Eu409 O427 2.392 1_655 S
Eu409 O428 2.418 1_655 S
Eu409 C438 2.828 . S
C410 O428 1.244 . S
C410 O431 1.265 . S
C411 C412 1.379 . S
C411 C415 1.373 . S
C411 C417 1.505 . S
C412 C411 1.379 . S
C412 C414 1.369 . S
C412 H440 0.930 . S
C413 C415 1.383 . S
C413 C416 1.382 . S
C413 H441 0.930 . S
C414 C412 1.369 . S
C414 C416 1.392 . S
C414 H442 0.930 . S
C415 C411 1.373 . S
C415 C413 1.383 . S
C415 H443 0.931 . S
C416 C413 1.382 . S
C416 C414 1.392 . S
C417 Eu408 2.828 . S
C417 C411 1.505 . S
C417 O429 1.249 . S
C417 O430 1.244 . S
O418 Eu409 2.373 . S
O418 C420 1.258 . S
O419 Eu408 2.392 . S
O419 C420 1.242 1_455 S
C420 O418 1.258 . S
C420 O419 1.242 1_655 S
O421 Eu408 2.418 1_655 S
O421 C425 1.244 . S
O422 Eu409 2.488 . S
O422 C438 1.249 . S
O423 Eu409 2.471 . S
O423 C438 1.244 . S
O424 Eu409 2.349 . S
O424 C425 1.265 . S
C425 O421 1.244 . S
C425 O424 1.265 . S
O426 Eu408 2.373 . S
O426 C439 1.258 . S
O427 Eu409 2.392 1_455 S
O427 C439 1.242 . S
O428 Eu409 2.418 1_455 S
O428 C410 1.244 . S
O429 Eu408 2.488 . S
O429 C417 1.249 . S
O430 Eu408 2.471 . S
O430 C417 1.244 . S
O431 Eu408 2.349 . S
O431 C410 1.265 . S
C432 C433 1.379 . S
C432 C436 1.373 . S
C432 C438 1.505 . S
C433 C432 1.379 . S
C433 C435 1.369 . S
C433 H444 0.930 . S
C434 C436 1.383 1_554 S
C434 C437 1.382 . S
C434 H445 0.930 . S
C435 C433 1.369 . S
C435 C437 1.392 1_556 S
C435 H446 0.930 . S
C436 C432 1.373 . S
C436 C434 1.383 1_556 S
C436 H447 0.931 1_556 S
C437 C434 1.382 . S
C437 C435 1.392 1_554 S
C438 Eu409 2.828 . S
C438 O422 1.249 . S
C438 O423 1.244 . S
C438 C432 1.505 . S
C439 O426 1.258 . S
C439 O427 1.242 . S
H440 C412 0.930 . S
H441 C413 0.930 . S
H442 C414 0.930 . S
H443 C415 0.931 . S
H444 C433 0.930 . S
H445 C434 0.930 . S
H446 C435 0.930 . S
H447 C436 0.931 1_554 S
C448 C449 1.363 . S
C448 C454 1.379 . S
C448 N456 1.356 . S
C449 C448 1.363 . S
C449 C455 1.363 . S
C450 C451 1.363 . S
C450 C455 1.379 . S
C450 N457 1.356 . S
C451 C450 1.363 . S
C451 C454 1.363 . S
N452 C454 1.356 1_565 S
N452 H464 0.984 . S
N452 H465 0.985 . S
N453 C455 1.356 . S
N453 H458 0.984 . S
N453 H459 0.985 . S
C454 C448 1.379 . S
C454 C451 1.363 . S
C454 N452 1.356 1_545 S
C455 C449 1.363 . S
C455 C450 1.379 . S
C455 N453 1.356 . S
N456 C448 1.356 . S
N456 H462 0.984 1_545 S
N456 H463 0.984 . S
N457 C450 1.356 . S
N457 H460 0.984 . S
N457 H461 0.985 . S
H458 N453 0.984 . S
H459 N453 0.985 . S
H460 N457 0.984 . S
H461 N457 0.985 . S
H462 N456 0.984 1_565 S
H463 N456 0.984 . S
H464 N452 0.984 . S
H465 N452 0.985 . S
C466 C467 1.363 . S
C466 C472 1.379 . S
C466 N474 1.356 . S
C467 C466 1.363 . S
C467 C473 1.363 . S
C468 C469 1.363 . S
C468 C473 1.379 . S
C468 N475 1.356 . S
C469 C468 1.363 . S
C469 C472 1.363 . S
N470 C472 1.356 . S
N470 H482 0.984 . S
N470 H483 0.985 . S
N471 C473 1.356 . S
N471 H476 0.984 . S
N471 H477 0.985 . S
C472 C466 1.379 . S
C472 C469 1.363 . S
C472 N470 1.356 . S
C473 C467 1.363 . S
C473 C468 1.379 . S
C473 N471 1.356 . S
N474 C466 1.356 . S
N474 H480 0.984 . S
N474 H481 0.984 . S
N475 C468 1.356 . S
N475 H478 0.984 . S
N475 H479 0.985 . S
H476 N471 0.984 . S
H477 N471 0.985 . S
H478 N475 0.984 . S
H479 N475 0.985 . S
H480 N474 0.984 . S
H481 N474 0.984 . S
H482 N470 0.984 . S
H483 N470 0.985 . S
C484 C485 1.363 . S
C484 C490 1.379 . S
C484 N492 1.356 . S
C485 C484 1.363 . S
C485 C491 1.363 . S
C486 C487 1.363 . S
C486 C491 1.379 . S
C486 N493 1.356 . S
C487 C486 1.363 . S
C487 C490 1.363 . S
N488 C490 1.356 . S
N488 H500 0.984 . S
N488 H501 0.985 . S
N489 C491 1.356 . S
N489 H494 0.984 . S
N489 H495 0.985 . S
C490 C484 1.379 . S
C490 C487 1.363 . S
C490 N488 1.356 . S
C491 C485 1.363 . S
C491 C486 1.379 . S
C491 N489 1.356 . S
N492 C484 1.356 . S
N492 H498 0.984 . S
N492 H499 0.984 . S
N493 C486 1.356 . S
N493 H496 0.984 . S
N493 H497 0.985 . S
H494 N489 0.984 . S
H495 N489 0.985 . S
H496 N493 0.984 . S
H497 N493 0.985 . S
H498 N492 0.984 . S
H499 N492 0.984 . S
H500 N488 0.984 . S
H501 N488 0.985 . S
C502 C503 1.363 . S
C502 C508 1.379 . S
C502 N510 1.356 . S
C503 C502 1.363 . S
C503 C509 1.363 . S
C504 C505 1.363 . S
C504 C509 1.379 . S
C504 N511 1.356 . S
C505 C504 1.363 . S
C505 C508 1.363 . S
N506 C508 1.356 1_655 S
N506 H518 0.984 . S
N506 H519 0.985 . S
N507 C509 1.356 . S
N507 H512 0.984 . S
N507 H513 0.985 . S
C508 C502 1.379 . S
C508 C505 1.363 . S
C508 N506 1.356 1_455 S
C509 C503 1.363 . S
C509 C504 1.379 . S
C509 N507 1.356 . S
N510 C502 1.356 . S
N510 H516 0.984 1_455 S
N510 H517 0.984 . S
N511 C504 1.356 . S
N511 H514 0.984 . S
N511 H515 0.985 . S
H512 N507 0.984 . S
H513 N507 0.985 . S
H514 N511 0.984 . S
H515 N511 0.985 . S
H516 N510 0.984 1_655 S
H517 N510 0.984 . S
H518 N506 0.984 . S
H519 N506 0.985 . S
C520 C521 1.364 . S
C520 C526 1.379 1_565 S
C520 N528 1.356 1_565 S
C521 C520 1.364 . S
C521 C527 1.363 . S
C522 C523 1.363 . S
C522 C527 1.379 1_556 S
C522 N529 1.356 . S
C523 C522 1.363 . S
C523 C526 1.363 1_566 S
N524 C526 1.356 1_556 S
N524 H536 0.984 . S
N524 H537 0.985 . S
N525 C527 1.356 . S
N525 H530 0.984 . S
N525 H531 0.985 . S
C526 C520 1.379 1_545 S
C526 C523 1.363 1_544 S
C526 N524 1.356 1_554 S
C527 C521 1.363 . S
C527 C522 1.379 1_554 S
C527 N525 1.356 . S
N528 C520 1.356 1_545 S
N528 H534 0.984 . S
N528 H535 0.984 . S
N529 C522 1.356 . S
N529 H532 0.984 . S
N529 H533 0.985 . S
H530 N525 0.984 . S
H531 N525 0.985 . S
H532 N529 0.984 . S
H533 N529 0.985 . S
H534 N528 0.984 . S
H535 N528 0.984 . S
H536 N524 0.984 . S
H537 N524 0.985 . S
C538 C539 1.363 . S
C538 C544 1.379 1_554 S
C538 N546 1.356 . S
C539 C538 1.363 . S
C539 C545 1.363 . S
C540 C541 1.363 . S
C540 C545 1.379 1_556 S
C540 N547 1.356 . S
C541 C540 1.363 . S
C541 C544 1.363 . S
N542 C544 1.356 . S
N542 H554 0.984 . S
N542 H555 0.985 . S
N543 C545 1.356 . S
N543 H548 0.984 . S
N543 H549 0.985 1_565 S
C544 C538 1.379 1_556 S
C544 C541 1.363 . S
C544 N542 1.356 . S
C545 C539 1.363 . S
C545 C540 1.379 1_554 S
C545 N543 1.356 . S
N546 C538 1.356 . S
N546 H552 0.984 . S
N546 H553 0.984 . S
N547 C540 1.356 . S
N547 H550 0.984 . S
N547 H551 0.985 1_565 S
H548 N543 0.984 . S
H549 N543 0.985 1_545 S
H550 N547 0.984 . S
H551 N547 0.985 1_545 S
H552 N546 0.984 . S
H553 N546 0.984 . S
H554 N542 0.984 . S
H555 N542 0.985 . S
C556 C557 1.363 . S
C556 C562 1.379 1_554 S
C556 N564 1.356 . S
C557 C556 1.363 . S
C557 C563 1.363 . S
C558 C559 1.363 . S
C558 C563 1.379 1_556 S
C558 N565 1.356 . S
C559 C558 1.363 . S
C559 C562 1.363 . S
N560 C562 1.356 . S
N560 H572 0.984 . S
N560 H573 0.985 . S
N561 C563 1.356 . S
N561 H566 0.984 . S
N561 H567 0.985 . S
C562 C556 1.379 1_556 S
C562 C559 1.363 . S
C562 N560 1.356 . S
C563 C557 1.363 . S
C563 C558 1.379 1_554 S
C563 N561 1.356 . S
N564 C556 1.356 . S
N564 H570 0.984 . S
N564 H571 0.984 . S
N565 C558 1.356 . S
N565 H568 0.984 . S
N565 H569 0.985 . S
H566 N561 0.984 . S
H567 N561 0.985 . S
H568 N565 0.984 . S
H569 N565 0.985 . S
H570 N564 0.984 . S
H571 N564 0.984 . S
H572 N560 0.984 . S
H573 N560 0.985 . S
C574 C575 1.363 . S
C574 C580 1.379 1_554 S
C574 N582 1.356 . S
C575 C574 1.363 . S
C575 C581 1.363 . S
C576 C577 1.363 . S
C576 C581 1.379 1_556 S
C576 N583 1.356 . S
C577 C576 1.363 . S
C577 C580 1.363 . S
N578 C580 1.356 1_455 S
N578 H590 0.984 . S
N578 H591 0.985 . S
N579 C581 1.356 . S
N579 H584 0.984 . S
N579 H585 0.985 . S
C580 C574 1.379 1_556 S
C580 C577 1.363 . S
C580 N578 1.356 1_655 S
C581 C575 1.363 . S
C581 C576 1.379 1_554 S
C581 N579 1.356 . S
N582 C574 1.356 . S
N582 H588 0.984 1_655 S
N582 H589 0.984 . S
N583 C576 1.356 . S
N583 H586 0.984 . S
N583 H587 0.985 . S
H584 N579 0.984 . S
H585 N579 0.985 . S
H586 N583 0.984 . S
H587 N583 0.985 . S
H588 N582 0.984 1_455 S
H589 N582 0.984 . S
H590 N578 0.984 . S
H591 N578 0.985 . S
C592 C593 1.363 . S
C592 C598 1.379 . S
C592 N600 1.356 . S
C593 C592 1.363 . S
C593 C599 1.363 . S
C594 C595 1.359 1_455 S
C594 C599 1.379 . S
C594 N601 1.356 1_455 S
C595 C594 1.359 1_655 S
C595 C598 1.343 1_655 S
N596 C598 1.356 . S
N596 H608 0.984 . S
N596 H609 0.985 1_455 S
N597 C599 1.356 . S
N597 H602 0.984 . S
N597 H603 0.985 . S
C598 C592 1.379 . S
C598 C595 1.343 1_455 S
C598 N596 1.356 . S
C599 C593 1.363 . S
C599 C594 1.379 . S
C599 N597 1.356 . S
N600 C592 1.356 . S
N600 H606 0.984 . S
N600 H607 0.984 . S
N601 C594 1.356 1_655 S
N601 H604 0.984 . S
N601 H605 0.985 . S
H602 N597 0.984 . S
H603 N597 0.985 . S
H604 N601 0.984 . S
H605 N601 0.985 . S
H606 N600 0.984 . S
H607 N600 0.984 . S
H608 N596 0.984 . S
H609 N596 0.985 1_655 S
C610 C611 1.363 . S
C610 C616 1.379 1_545 S
C610 N618 1.356 . S
C611 C610 1.363 . S
C611 C617 1.363 . S
C612 C613 1.363 1_545 S
C612 C617 1.379 . S
C612 N619 1.356 . S
C613 C612 1.363 1_565 S
C613 C616 1.363 . S
N614 C616 1.356 . S
N614 H626 0.984 . S
N614 H627 0.985 . S
N615 C617 1.356 . S
N615 H620 0.984 . S
N615 H621 0.985 . S
C616 C610 1.379 1_565 S
C616 C613 1.363 . S
C616 N614 1.356 . S
C617 C611 1.363 . S
C617 C612 1.379 . S
C617 N615 1.356 . S
N618 C610 1.356 . S
N618 H624 0.984 . S
N618 H625 0.984 . S
N619 C612 1.356 . S
N619 H622 0.984 1_545 S
N619 H623 0.985 . S
H620 N615 0.984 . S
H621 N615 0.985 . S
H622 N619 0.984 1_565 S
H623 N619 0.985 . S
H624 N618 0.984 . S
H625 N618 0.984 . S
H626 N614 0.984 . S
H627 N614 0.985 . S
C628 C629 1.363 . S
C628 C634 1.379 . S
C628 N636 1.356 . S
C629 C628 1.363 . S
C629 C635 1.363 . S
C630 C631 1.363 . S
C630 C635 1.379 . S
C630 N637 1.356 . S
C631 C630 1.363 . S
C631 C634 1.363 . S
N632 C634 1.356 . S
N632 H644 0.984 . S
N632 H645 0.985 . S
N633 C635 1.356 . S
N633 H638 0.984 . S
N633 H639 0.985 . S
C634 C628 1.379 . S
C634 C631 1.363 . S
C634 N632 1.356 . S
C635 C629 1.363 . S
C635 C630 1.379 . S
C635 N633 1.356 . S
N636 C628 1.356 . S
N636 H642 0.984 . S
N636 H643 0.984 . S
N637 C630 1.356 . S
N637 H640 0.984 . S
N637 H641 0.985 . S
H638 N633 0.984 . S
H639 N633 0.985 . S
H640 N637 0.984 . S
H641 N637 0.985 . S
H642 N636 0.984 . S
H643 N636 0.984 . S
H644 N632 0.984 . S
H645 N632 0.985 . S
C646 C647 1.363 . S
C646 C652 1.379 . S
C646 N654 1.356 . S
C647 C646 1.363 . S
C647 C653 1.363 . S
C648 C649 1.363 . S
C648 C653 1.379 . S
C648 N655 1.356 . S
C649 C648 1.363 . S
C649 C652 1.363 . S
N650 C652 1.356 . S
N650 H662 0.984 . S
N650 H663 0.985 . S
N651 C653 1.356 . S
N651 H656 0.984 . S
N651 H657 0.985 . S
C652 C646 1.379 . S
C652 C649 1.363 . S
C652 N650 1.356 . S
C653 C647 1.363 . S
C653 C648 1.379 . S
C653 N651 1.356 . S
N654 C646 1.356 . S
N654 H660 0.984 . S
N654 H661 0.984 . S
N655 C648 1.356 . S
N655 H658 0.984 . S
N655 H659 0.985 . S
H656 N651 0.984 . S
H657 N651 0.985 . S
H658 N655 0.984 . S
H659 N655 0.985 . S
H660 N654 0.984 . S
H661 N654 0.984 . S
H662 N650 0.984 . S
H663 N650 0.985 . S
C664 C665 1.363 . S
C664 C670 1.379 . S
C664 N672 1.356 . S
C665 C664 1.363 . S
C665 C671 1.363 . S
C666 C667 1.363 . S
C666 C671 1.379 1_455 S
C666 N673 1.356 1_554 S
C667 C666 1.363 . S
C667 C670 1.363 1_455 S
N668 C670 1.356 1_455 S
N668 H680 0.984 1_455 S
N668 H681 0.985 . S
N669 C671 1.356 1_556 S
N669 H674 0.984 . S
N669 H675 0.985 . S
C670 C664 1.379 . S
C670 C667 1.363 1_655 S
C670 N668 1.356 1_655 S
C671 C665 1.363 . S
C671 C666 1.379 1_655 S
C671 N669 1.356 1_554 S
N672 C664 1.356 . S
N672 H678 0.984 . S
N672 H679 0.984 . S
N673 C666 1.356 1_556 S
N673 H676 0.984 1_556 S
N673 H677 0.985 . S
H674 N669 0.984 . S
H675 N669 0.985 . S
H676 N673 0.984 1_554 S
H677 N673 0.985 . S
H678 N672 0.984 . S
H679 N672 0.984 . S
H680 N668 0.984 1_655 S
H681 N668 0.985 . S
C682 C683 1.363 . S
C682 C688 1.379 1_565 S
C682 N690 1.356 . S
C683 C682 1.363 . S
C683 C689 1.363 . S
C684 C685 1.363 . S
C684 C689 1.379 1_546 S
C684 N691 1.356 . S
C685 C684 1.363 . S
C685 C688 1.363 1_556 S
N686 C688 1.356 . S
N686 H698 0.984 . S
N686 H699 0.985 1_554 S
N687 C689 1.356 . S
N687 H692 0.984 . S
N687 H693 0.985 . S
C688 C682 1.379 1_545 S
C688 C685 1.363 1_554 S
C688 N686 1.356 . S
C689 C683 1.363 . S
C689 C684 1.379 1_564 S
C689 N687 1.356 . S
N690 C682 1.356 . S
N690 H696 0.984 . S
N690 H697 0.984 . S
N691 C684 1.356 . S
N691 H694 0.984 . S
N691 H695 0.985 . S
H692 N687 0.984 . S
H693 N687 0.985 . S
H694 N691 0.984 . S
H695 N691 0.985 . S
H696 N690 0.984 . S
H697 N690 0.984 . S
H698 N686 0.984 . S
H699 N686 0.985 1_556 S
C700 C701 1.363 1_556 S
C700 C706 1.379 . S
C700 N708 1.356 . S
C701 C700 1.363 1_554 S
C701 C707 1.363 . S
C702 C703 1.363 1_554 S
C702 C707 1.379 . S
C702 N709 1.356 . S
C703 C702 1.363 1_556 S
C703 C706 1.363 . S
N704 C706 1.356 . S
N704 H716 0.984 . S
N704 H717 0.985 . S
N705 C707 1.356 . S
N705 H710 0.984 . S
N705 H711 0.985 . S
C706 C700 1.379 . S
C706 C703 1.363 . S
C706 N704 1.356 . S
C707 C701 1.363 . S
C707 C702 1.379 . S
C707 N705 1.356 . S
N708 C700 1.356 . S
N708 H714 0.984 . S
N708 H715 0.984 1_556 S
N709 C702 1.356 . S
N709 H712 0.984 1_554 S
N709 H713 0.985 . S
H710 N705 0.984 . S
H711 N705 0.985 . S
H712 N709 0.984 1_556 S
H713 N709 0.985 . S
H714 N708 0.984 . S
H715 N708 0.984 1_554 S
H716 N704 0.984 . S
H717 N704 0.985 . S
C718 C719 1.363 1_556 S
C718 C724 1.379 1_556 S
C718 N726 1.356 . S
C719 C718 1.363 1_554 S
C719 C725 1.363 . S
C720 C721 1.363 . S
C720 C725 1.379 . S
C720 N727 1.356 . S
C721 C720 1.363 . S
C721 C724 1.363 . S
N722 C724 1.356 1_556 S
N722 H734 0.984 . S
N722 H735 0.985 1_556 S
N723 C725 1.356 . S
N723 H728 0.984 . S
N723 H729 0.985 . S
C724 C718 1.379 1_554 S
C724 C721 1.363 . S
C724 N722 1.356 1_554 S
C725 C719 1.363 . S
C725 C720 1.379 . S
C725 N723 1.356 . S
N726 C718 1.356 . S
N726 H732 0.984 . S
N726 H733 0.984 . S
N727 C720 1.356 . S
N727 H730 0.984 . S
N727 H731 0.985 . S
H728 N723 0.984 . S
H729 N723 0.985 . S
H730 N727 0.984 . S
H731 N727 0.985 . S
H732 N726 0.984 . S
H733 N726 0.984 . S
H734 N722 0.984 . S
H735 N722 0.985 1_554 S
C736 C737 1.363 . S
C736 C742 1.379 . S
C736 N744 1.356 . S
C737 C736 1.363 . S
C737 C743 1.363 . S
C738 C739 1.363 . S
C738 C743 1.379 . S
C738 N745 1.356 . S
C739 C738 1.363 . S
C739 C742 1.363 . S
N740 C742 1.356 . S
N740 H752 0.984 . S
N740 H753 0.985 . S
N741 C743 1.356 . S
N741 H746 0.984 . S
N741 H747 0.985 . S
C742 C736 1.379 . S
C742 C739 1.363 . S
C742 N740 1.356 . S
C743 C737 1.363 . S
C743 C738 1.379 . S
C743 N741 1.356 . S
N744 C736 1.356 . S
N744 H750 0.984 . S
N744 H751 0.984 . S
N745 C738 1.356 . S
N745 H748 0.984 . S
N745 H749 0.985 1_455 S
H746 N741 0.984 . S
H747 N741 0.985 . S
H748 N745 0.984 . S
H749 N745 0.985 1_655 S
H750 N744 0.984 . S
H751 N744 0.984 . S
H752 N740 0.984 . S
H753 N740 0.985 . S
C754 C755 1.363 . S
C754 C760 1.379 . S
C754 N762 1.335 1_545 S
C755 C754 1.363 . S
C755 C761 1.363 . S
C756 C757 1.363 . S
C756 C761 1.379 . S
C756 N763 1.356 . S
C757 C756 1.363 . S
C757 C760 1.363 . S
N758 C760 1.356 1_565 S
N758 H770 0.984 . S
N758 H771 0.985 . S
N759 C761 1.356 . S
N759 H764 0.984 . S
N759 H765 0.985 . S
C760 C754 1.379 . S
C760 C757 1.363 . S
C760 N758 1.356 1_545 S
C761 C755 1.363 . S
C761 C756 1.379 . S
C761 N759 1.356 . S
N762 C754 1.335 1_565 S
N762 H768 1.021 . S
N762 H769 0.971 1_565 S
N763 C756 1.356 . S
N763 H766 0.984 . S
N763 H767 0.985 . S
H764 N759 0.984 . S
H765 N759 0.985 . S
H766 N763 0.984 . S
H767 N763 0.985 . S
H768 N762 1.021 . S
H769 N762 0.971 1_545 S
H770 N758 0.984 . S
H771 N758 0.985 . S
C772 C773 1.363 . S
C772 C778 1.379 . S
C772 N780 1.356 . S
C773 C772 1.363 . S
C773 C779 1.363 . S
C774 C775 1.363 . S
C774 C779 1.379 . S
C774 N781 1.356 . S
C775 C774 1.363 . S
C775 C778 1.363 . S
N776 C778 1.356 . S
N776 H788 0.984 . S
N776 H789 0.985 . S
N777 C779 1.356 . S
N777 H782 0.984 . S
N777 H783 0.985 . S
C778 C772 1.379 . S
C778 C775 1.363 . S
C778 N776 1.356 . S
C779 C773 1.363 . S
C779 C774 1.379 . S
C779 N777 1.356 . S
N780 C772 1.356 . S
N780 H786 0.984 . S
N780 H787 0.984 . S
N781 C774 1.356 . S
N781 H784 0.984 . S
N781 H785 0.985 . S
H782 N777 0.984 . S
H783 N777 0.985 . S
H784 N781 0.984 . S
H785 N781 0.985 . S
H786 N780 0.984 . S
H787 N780 0.984 . S
H788 N776 0.984 . S
H789 N776 0.985 . S
C790 C791 1.363 . S
C790 C796 1.379 . S
C790 N798 1.356 . S
C791 C790 1.363 . S
C791 C797 1.363 . S
C792 C793 1.363 . S
C792 C797 1.379 . S
C792 N799 1.356 . S
C793 C792 1.363 . S
C793 C796 1.363 . S
N794 C796 1.356 . S
N794 H806 0.984 . S
N794 H807 0.985 . S
N795 C797 1.356 . S
N795 H800 0.984 . S
N795 H801 0.985 . S
C796 C790 1.379 . S
C796 C793 1.363 . S
C796 N794 1.356 . S
C797 C791 1.363 . S
C797 C792 1.379 . S
C797 N795 1.356 . S
N798 C790 1.356 . S
N798 H804 0.984 . S
N798 H805 0.984 . S
N799 C792 1.356 . S
N799 H802 0.984 . S
N799 H803 0.985 . S
H800 N795 0.984 . S
H801 N795 0.985 . S
H802 N799 0.984 . S
H803 N799 0.985 . S
H804 N798 0.984 . S
H805 N798 0.984 . S
H806 N794 0.984 . S
H807 N794 0.985 . S
C808 C809 1.363 . S
C808 C814 1.379 . S
C808 N816 1.356 . S
C809 C808 1.363 . S
C809 C815 1.363 . S
C810 C811 1.363 . S
C810 C815 1.379 . S
C810 N817 1.356 1_655 S
C811 C810 1.363 . S
C811 C814 1.363 . S
N812 C814 1.356 . S
N812 H824 0.984 . S
N812 H825 0.985 . S
N813 C815 1.356 . S
N813 H818 0.984 . S
N813 H819 0.985 1_655 S
C814 C808 1.379 . S
C814 C811 1.363 . S
C814 N812 1.356 . S
C815 C809 1.363 . S
C815 C810 1.379 . S
C815 N813 1.356 . S
N816 C808 1.356 . S
N816 H822 0.984 . S
N816 H823 0.984 . S
N817 C810 1.356 1_455 S
N817 H820 0.984 . S
N817 H821 0.985 . S
H818 N813 0.984 . S
H819 N813 0.985 1_455 S
H820 N817 0.984 . S
H821 N817 0.985 . S
H822 N816 0.984 . S
H823 N816 0.984 . S
H824 N812 0.984 . S
H825 N812 0.985 . S
C826 C827 1.363 . S
C826 C832 1.379 . S
C826 N834 1.356 . S
C827 C826 1.363 . S
C827 C833 1.363 . S
C828 C829 1.353 1_545 S
C828 C833 1.377 1_545 S
C828 N835 1.366 . S
C829 C828 1.353 1_565 S
C829 C832 1.363 . S
N830 C832 1.356 . S
N830 H842 0.984 . S
N830 H843 0.985 . S
N831 C833 1.356 1_545 S
N831 H836 0.984 . S
N831 H837 0.985 . S
C832 C826 1.379 . S
C832 C829 1.363 . S
C832 N830 1.356 . S
C833 C827 1.363 . S
C833 C828 1.377 1_565 S
C833 N831 1.356 1_565 S
N834 C826 1.356 . S
N834 H840 0.984 . S
N834 H841 0.984 . S
N835 C828 1.366 . S
N835 H838 0.984 . S
N835 H839 0.985 . S
H836 N831 0.984 . S
H837 N831 0.985 . S
H838 N835 0.984 . S
H839 N835 0.985 . S
H840 N834 0.984 . S
H841 N834 0.984 . S
H842 N830 0.984 . S
H843 N830 0.985 . S
C844 C845 1.363 . S
C844 C850 1.379 . S
C844 N852 1.356 . S
C845 C844 1.363 . S
C845 C851 1.363 . S
C846 C847 1.363 . S
C846 C851 1.379 . S
C846 N853 1.356 . S
C847 C846 1.363 . S
C847 C850 1.363 . S
N848 C850 1.356 . S
N848 H860 0.984 . S
N848 H861 0.985 . S
N849 C851 1.356 . S
N849 H854 0.984 . S
N849 H855 0.985 . S
C850 C844 1.379 . S
C850 C847 1.363 . S
C850 N848 1.356 . S
C851 C845 1.363 . S
C851 C846 1.379 . S
C851 N849 1.356 . S
N852 C844 1.356 . S
N852 H858 0.984 . S
N852 H859 0.984 . S
N853 C846 1.356 . S
N853 H856 0.984 . S
N853 H857 0.985 . S
H854 N849 0.984 . S
H855 N849 0.985 . S
H856 N853 0.984 . S
H857 N853 0.985 . S
H858 N852 0.984 . S
H859 N852 0.984 . S
H860 N848 0.984 . S
H861 N848 0.985 . S
C862 C863 1.363 . S
C862 C868 1.379 . S
C862 N870 1.356 . S
C863 C862 1.363 . S
C863 C869 1.363 . S
C864 C865 1.363 . S
C864 C869 1.379 . S
C864 N871 1.356 . S
C865 C864 1.363 . S
C865 C868 1.363 . S
N866 C868 1.356 . S
N866 H878 0.984 . S
N866 H879 0.985 . S
N867 C869 1.356 . S
N867 H872 0.984 . S
N867 H873 0.985 . S
C868 C862 1.379 . S
C868 C865 1.363 . S
C868 N866 1.356 . S
C869 C863 1.363 . S
C869 C864 1.379 . S
C869 N867 1.356 . S
N870 C862 1.356 . S
N870 H876 0.984 . S
N870 H877 0.984 . S
N871 C864 1.356 . S
N871 H874 0.984 . S
N871 H875 0.985 . S
H872 N867 0.984 . S
H873 N867 0.985 . S
H874 N871 0.984 . S
H875 N871 0.985 . S
H876 N870 0.984 . S
H877 N870 0.984 . S
H878 N866 0.984 . S
H879 N866 0.985 . S
C449 C241 2.937 . S
C451 C319 3.258 . S
C469 C345 2.940 . S
C467 C277 2.626 . S
C487 C385 2.808 . S
C485 C169 2.439 . S
C505 C439 3.162 . S
C503 C205 2.874 . S
C523 C300 3.263 . S
C521 C97 2.909 . S
C539 C133 2.597 . S
C541 C330 2.941 . S
C557 C25 2.417 . S
C559 C370 2.808 . S
C575 C61 2.840 . S
C577 C420 3.161 . S
C595 C296 0.881 . S
C593 C211 0.872 . S
C613 C357 0.957 . S
C611 C247 0.994 . S
C631 C397 0.623 . S
C629 C253 0.608 . S
C647 C175 0.756 . S
C649 C416 0.756 . S
C665 C67 0.829 . S
C667 C317 0.870 . S
C685 C336 0.957 . S
C683 C103 0.940 . S
C703 C376 0.623 . S
C701 C109 0.588 . S
C719 C31 0.754 . S
C721 C437 0.756 . S
C737 C181 2.930 . S
C739 C290 3.395 . S
C755 C217 3.379 . S
C757 C340 3.789 . S
C775 C380 3.567 . S
C773 C283 3.115 . S
C793 C410 3.123 . S
C791 C145 2.682 . S
C809 C37 2.910 . S
C811 C305 3.395 . S
C829 C359 3.789 . S
C827 C73 3.368 . S
C847 C399 3.567 . S
C845 C139 3.075 . S
C863 C1 2.671 . S
C865 C425 3.123 . S
