# Generated by pormake.
# Topology anh, (6,3)-cn, num edge types: 1
# Building blocks:
#     Node 0, Type 0, BuildingBlock: BETGAK_clean_sbu_0, # of connection points: 6
#     Node 1, Type 0, BuildingBlock: BETGAK_clean_sbu_0, # of connection points: 6
#     Node 2, Type 0, BuildingBlock: BETGAK_clean_sbu_0, # of connection points: 6
#     Node 3, Type 1, BuildingBlock: CUQRIR_clean_linker_1, # of connection points: 3
#     Node 4, Type 1, BuildingBlock: CUQRIR_clean_linker_1, # of connection points: 3
#     Node 5, Type 1, BuildingBlock: CUQRIR_clean_linker_1, # of connection points: 3
#     Node 6, Type 1, BuildingBlock: CUQRIR_clean_linker_1, # of connection points: 3
#     Node 7, Type 1, BuildingBlock: CUQRIR_clean_linker_1, # of connection points: 3
#     Node 8, Type 1, BuildingBlock: CUQRIR_clean_linker_1, # of connection points: 3
#     Edge 9, Type (0, 1), BuildingBlock: OJICUG_clean_linker_0, # of connection points: 2
#     Edge 10, Type (0, 1), BuildingBlock: OJICUG_clean_linker_0, # of connection points: 2
#     Edge 11, Type (0, 1), BuildingBlock: OJICUG_clean_linker_0, # of connection points: 2
#     Edge 12, Type (0, 1), BuildingBlock: OJICUG_clean_linker_0, # of connection points: 2
#     Edge 13, Type (0, 1), BuildingBlock: OJICUG_clean_linker_0, # of connection points: 2
#     Edge 14, Type (0, 1), BuildingBlock: OJICUG_clean_linker_0, # of connection points: 2
#     Edge 15, Type (0, 1), BuildingBlock: OJICUG_clean_linker_0, # of connection points: 2
#     Edge 16, Type (0, 1), BuildingBlock: OJICUG_clean_linker_0, # of connection points: 2
#     Edge 17, Type (0, 1), BuildingBlock: OJICUG_clean_linker_0, # of connection points: 2
#     Edge 18, Type (0, 1), BuildingBlock: OJICUG_clean_linker_0, # of connection points: 2
#     Edge 19, Type (0, 1), BuildingBlock: OJICUG_clean_linker_0, # of connection points: 2
#     Edge 20, Type (0, 1), BuildingBlock: OJICUG_clean_linker_0, # of connection points: 2
#     Edge 21, Type (0, 1), BuildingBlock: OJICUG_clean_linker_0, # of connection points: 2
#     Edge 22, Type (0, 1), BuildingBlock: OJICUG_clean_linker_0, # of connection points: 2
#     Edge 23, Type (0, 1), BuildingBlock: OJICUG_clean_linker_0, # of connection points: 2
#     Edge 24, Type (0, 1), BuildingBlock: OJICUG_clean_linker_0, # of connection points: 2
#     Edge 25, Type (0, 1), BuildingBlock: OJICUG_clean_linker_0, # of connection points: 2
#     Edge 26, Type (0, 1), BuildingBlock: OJICUG_clean_linker_0, # of connection points: 2
# Relax obj value: 0.285
# Max RMSD: 0.228
# Mean RMSD: 0.174
data_MOF--net-anh--node1-BETGAK_clean_sbu_0--node2-CUQRIR_clean_linker_1--edge1-OJICUG_clean_linker_0
_symmetry_space_group_name_H-M    P1
_symmetry_Int_Tables_number       1
_symmetry_cell_setting            triclinic
loop_
_symmetry_equiv_pos_as_xyz
'x, y, z'
_cell_length_a     21.221971
_cell_length_b     26.564253
_cell_length_c     33.577925
_cell_angle_alpha  87.895036
_cell_angle_beta   90.710434
_cell_angle_gamma 133.41754
loop_
_atom_site_label
_atom_site_type_symbol
_atom_site_fract_x
_atom_site_fract_y
_atom_site_fract_z
_atom_type_partial_charge
La0 La 0.20835 0.47859 0.1625 0.0
La1 La 1.11007 0.50542 0.15235 0.0
C2 C 0.33082 0.48461 0.16875 0.0
C3 C 0.40244 0.52385 0.19746 0.0
C4 C 0.39293 0.49455 0.2353 0.0
C5 C 0.46449 0.52758 0.25993 0.0
C6 C 0.54765 0.58802 0.24588 0.0
C7 C 0.55215 0.62422 0.21235 0.0
C8 C 0.48085 0.59143 0.18769 0.0
C9 C 0.14489 0.47327 0.23231 0.0
C10 C 0.30003 0.63778 0.16545 0.0
C11 C 0.9844 0.49571 0.14807 0.0
C12 C 0.90512 0.44788 0.12485 0.0
C13 C 0.90879 0.44165 0.08369 0.0
C14 C 0.83391 0.40532 0.06107 0.0
C15 C 0.75528 0.3764 0.07932 0.0
C16 C 0.74963 0.37112 0.12141 0.0
C17 C 0.82444 0.40811 0.14389 0.0
C18 C 0.17986 0.51743 0.0828 0.0
C19 C 1.01738 0.34601 0.15673 0.0
O20 O 0.2538 0.43355 0.18396 0.0
O21 O 0.33006 0.52074 0.14162 0.0
O22 O 0.15007 0.43041 0.22142 0.0
O23 O 0.17608 0.51836 0.20467 0.0
O24 O 0.30933 0.59503 0.15618 0.0
O25 O 0.22039 0.6101 0.17272 0.0
O26 O 1.0564 0.54227 0.1277 0.0
O27 O 0.99298 0.46714 0.17721 0.0
O28 O 0.17772 0.56078 0.09641 0.0
O29 O 0.14421 0.46798 0.10857 0.0
O30 O 1.0111 0.39088 0.16428 0.0
O31 O 1.09468 0.37145 0.14661 0.0
H32 H 0.3317 0.44415 0.24496 0.0
H33 H 0.45669 0.50056 0.28719 0.0
H34 H 0.61319 0.67366 0.20165 0.0
H35 H 0.48901 0.6174 0.15983 0.0
H36 H 0.97013 0.46874 0.0685 0.0
H37 H 0.83995 0.40785 0.0289 0.0
H38 H 0.68995 0.34714 0.13714 0.0
H39 H 0.81981 0.40948 0.17588 0.0
La40 La 0.79679 0.08053 0.46713 0.0
La41 La 0.68065 0.10132 0.45237 0.0
C42 C 0.86242 0.03851 0.49942 0.0
C43 C 0.8289 0.97125 0.51579 0.0
C44 C 0.77588 0.91136 0.49331 0.0
C45 C 0.74628 0.84867 0.50918 0.0
C46 C 0.76824 0.8441 0.54806 0.0
C47 C 0.81982 0.90394 0.57075 0.0
C48 C 0.84997 0.96679 0.55472 0.0
C49 C 0.78298 0.09946 0.39072 0.0
C50 C 0.59184 0.94737 0.45495 0.0
C51 C 0.6119 0.14622 0.43181 0.0
C52 C 0.62708 0.20418 0.4484 0.0
C53 C 0.6686 0.22976 0.4851 0.0
C54 C 0.68164 0.28331 0.50214 0.0
C55 C 0.65455 0.31335 0.4826 0.0
C56 C 0.61437 0.28837 0.44534 0.0
C57 C 0.60061 0.23406 0.42841 0.0
C58 C 0.69467 0.08171 0.52865 0.0
C59 C 0.88893 0.23609 0.4555 0.0
O60 O 0.85876 0.04479 0.46082 0.0
O61 O 0.83966 0.06567 0.51903 0.0
O62 O 0.8532 0.12027 0.40679 0.0
O63 O 0.72258 0.06484 0.41655 0.0
O64 O 0.66502 0.97225 0.4721 0.0
O65 O 0.58852 0.99137 0.43794 0.0
O66 O 0.57551 0.0933 0.45665 0.0
O67 O 0.67798 0.16319 0.41278 0.0
O68 O 0.62431 0.05834 0.51201 0.0
O69 O 0.75557 0.11843 0.50314 0.0
O70 O 0.81012 0.20948 0.44641 0.0
O71 O 0.89986 0.19465 0.46819 0.0
H72 H 0.75789 0.91295 0.46329 0.0
H73 H 0.70797 0.80423 0.49046 0.0
H74 H 0.83704 0.90235 0.60095 0.0
H75 H 0.89011 1.01214 0.57277 0.0
H76 H 0.68989 0.20749 0.50094 0.0
H77 H 0.71123 0.29998 0.53113 0.0
H78 H 0.59377 0.31087 0.42917 0.0
H79 H 0.5691 0.21529 0.39989 0.0
La80 La 0.71602 0.65147 0.8474 0.0
La81 La 0.58899 0.50382 0.86038 0.0
C82 C 0.79452 0.76809 0.81279 0.0
C83 C 0.77703 0.81154 0.79933 0.0
C84 C 0.80109 0.86497 0.82285 0.0
C85 C 0.79017 0.90897 0.80908 0.0
C86 C 0.75544 0.90114 0.77124 0.0
C87 C 0.73072 0.84731 0.74783 0.0
C88 C 0.74171 0.80331 0.7616 0.0
C89 C 0.69388 0.61459 0.92228 0.0
C90 C 0.50439 0.57162 0.86234 0.0
C91 C 0.51368 0.38032 0.87731 0.0
C92 C 0.53612 0.34366 0.86011 0.0
C93 C 0.5856 0.37026 0.82457 0.0
C94 C 0.60914 0.33774 0.80775 0.0
C95 C 0.58452 0.27782 0.82613 0.0
C96 C 0.53508 0.25129 0.86193 0.0
C97 C 0.51123 0.28402 0.87878 0.0
C98 C 0.62183 0.54703 0.78472 0.0
C99 C 0.80078 0.58274 0.85766 0.0
O100 O 0.79783 0.75961 0.85119 0.0
O101 O 0.75441 0.71071 0.79417 0.0
O102 O 0.76797 0.66904 0.90636 0.0
O103 O 0.63381 0.5855 0.89724 0.0
O104 O 0.58643 0.62824 0.84893 0.0
O105 O 0.49269 0.51585 0.87291 0.0
O106 O 0.48363 0.39763 0.85183 0.0
O107 O 0.57269 0.43187 0.89993 0.0
O108 O 0.54537 0.49546 0.79923 0.0
O109 O 0.67566 0.57019 0.81196 0.0
O110 O 0.7159 0.52528 0.86504 0.0
O111 O 0.8167 0.64077 0.84781 0.0
H112 H 0.82928 0.87334 0.85184 0.0
H113 H 0.80872 0.94909 0.82825 0.0
H114 H 0.70469 0.84011 0.71841 0.0
H115 H 0.72368 0.76347 0.74232 0.0
H116 H 0.606 0.41644 0.80961 0.0
H117 H 0.64568 0.35922 0.7799 0.0
H118 H 0.5157 0.20576 0.87722 0.0
H119 H 0.47376 0.26295 0.90638 0.0
C120 C 0.66611 0.99273 0.16912 0.0
N121 N 0.71907 0.04843 0.19329 0.0
N122 N 0.60006 0.93276 0.19043 0.0
C123 C 0.67615 0.99743 0.12469 0.0
C124 C 0.61552 0.9542 0.22828 0.0
N125 N 0.68595 1.02346 0.23008 0.0
C126 C 0.56452 0.90596 0.26414 0.0
H127 H 0.69761 0.04666 0.11249 0.0
H128 H 0.61449 0.95268 0.11077 0.0
H129 H 0.72674 0.99728 0.11709 0.0
H130 H 0.60709 0.92339 0.29019 0.0
H131 H 0.53251 0.85216 0.25798 0.0
H132 H 0.51363 0.90567 0.27197 0.0
C133 C 0.68644 0.56234 0.55502 0.0
N134 N 0.68841 0.59399 0.58645 0.0
N135 N 0.68617 0.51325 0.56768 0.0
C136 C 0.69039 0.58225 0.51197 0.0
C137 C 0.68851 0.51633 0.60787 0.0
N138 N 0.69096 0.56599 0.61929 0.0
C139 C 0.68335 0.46816 0.63605 0.0
H140 H 0.62423 0.55684 0.50246 0.0
H141 H 0.71457 0.56541 0.49262 0.0
H142 H 0.73309 0.63919 0.50794 0.0
H143 H 0.75004 0.49394 0.64482 0.0
H144 H 0.65282 0.41896 0.62181 0.0
H145 H 0.64598 0.45631 0.6635 0.0
C146 C 0.15681 0.57995 0.85957 0.0
N147 N 0.19849 0.56415 0.88304 0.0
N148 N 1.08646 0.56678 0.87873 0.0
C149 C 0.18322 0.60651 0.8173 0.0
C150 C 1.09002 0.54363 0.91496 0.0
N151 N 0.15319 0.54143 0.91745 0.0
C152 C 1.03431 0.52753 0.95023 0.0
H153 H 0.24279 0.66268 0.81692 0.0
H154 H 0.13127 0.59915 0.8015 0.0
H155 H 0.19862 0.57975 0.80185 0.0
H156 H 0.97677 0.47083 0.95246 0.0
H157 H 1.01181 0.55474 0.94722 0.0
H158 H 1.07009 0.54302 0.97852 0.0
C159 C 0.24241 0.58935 0.4521 0.0
N160 N 0.18581 0.53571 0.42712 0.0
N161 N 0.30045 0.65178 0.4313 0.0
C162 C 0.23858 0.58134 0.49664 0.0
C163 C 0.27741 0.63375 0.39298 0.0
N164 N 0.20792 0.56455 0.39041 0.0
C165 C 0.32821 0.68358 0.35763 0.0
H166 H 0.1702 0.54074 0.50735 0.0
H167 H 0.27087 0.63114 0.5106 0.0
H168 H 0.27257 0.56474 0.50579 0.0
H169 H 0.32795 0.65759 0.33242 0.0
H170 H 0.39656 0.72855 0.3654 0.0
H171 H 0.29812 0.70322 0.3477 0.0
C172 C 0.68689 0.10429 0.76014 0.0
N173 N 0.70277 0.08166 0.72987 0.0
N174 N 0.67486 0.14556 0.74598 0.0
C175 C 0.6849 0.0869 0.80352 0.0
C176 C 0.68413 0.14725 0.70595 0.0
N177 N 0.70133 0.10861 0.6961 0.0
C178 C 0.67395 0.18508 0.67639 0.0
H179 H 0.65648 0.10046 0.82255 0.0
H180 H 0.75219 0.11625 0.81325 0.0
H181 H 0.64753 1.03081 0.80779 0.0
H182 H 0.7389 0.23711 0.66937 0.0
H183 H 0.63206 0.19189 0.68874 0.0
H184 H 0.64611 0.15705 0.64823 0.0
C185 C 0.6728 0.5039 0.13924 0.0
N186 N 0.6536 0.49569 0.10001 0.0
N187 N 0.68598 0.55786 0.15287 0.0
C188 C 0.69161 0.46612 0.16258 0.0
C189 C 0.67469 0.5824 0.12005 0.0
N190 N 0.65682 0.54546 0.08795 0.0
C191 C 0.67421 0.63879 0.11948 0.0
H192 H 0.62984 0.41226 0.16996 0.0
H193 H 0.72636 0.49239 0.19045 0.0
H194 H 0.73234 0.46355 0.14425 0.0
H195 H 0.74182 0.68998 0.12065 0.0
H196 H 0.63754 0.63211 0.14559 0.0
H197 H 0.64396 0.63822 0.0921 0.0
C198 C 0.60311 0.53253 0.25433 0.0
C199 C 0.62334 0.5954 0.25393 0.0
H200 H 0.59634 0.4667 0.2162 0.0
C201 C 0.70396 0.65325 0.23621 0.0
H202 H 0.54962 0.48793 0.27228 0.0
C203 C 0.73519 0.64222 0.20451 0.0
C204 C 0.68908 0.57389 0.19383 0.0
H205 H 0.7298 0.70494 0.23948 0.0
H206 H 0.78669 0.68584 0.18541 0.0
C207 C 0.63035 0.5199 0.22192 0.0
C208 C 0.95678 0.35623 0.42968 0.0
C209 C 0.96591 0.31417 0.45021 0.0
H210 H 1.01806 0.45804 0.40646 0.0
C211 C 1.04942 0.34793 0.46456 0.0
H212 H 0.89441 0.33323 0.41798 0.0
C213 C 1.12066 0.42054 0.45834 0.0
C214 C 1.11129 0.46184 0.43706 0.0
H215 H 1.06 0.31815 0.48048 0.0
H216 H 0.1838 0.44414 0.4692 0.0
C217 C 1.028 0.42827 0.42299 0.0
C218 C 0.67114 0.92429 0.73563 0.0
C219 C 0.7455 0.94917 0.75646 0.0
H220 H 0.59955 0.9478 0.71064 0.0
C221 C 0.80928 1.02028 0.7643 0.0
H222 H 0.62033 0.86984 0.72933 0.0
C223 C 0.79725 0.06448 0.75331 0.0
C224 C 0.72154 0.03891 0.7341 0.0
H225 H 0.86811 0.04171 0.77952 0.0
H226 H 0.84575 0.11842 0.76101 0.0
C227 C 0.65923 0.96878 0.72468 0.0
C228 C 0.61372 0.34285 0.07448 0.0
C229 C 0.69631 0.37942 0.0576 0.0
H230 H 0.53717 0.35572 0.10454 0.0
C231 C 0.73761 0.44283 0.03692 0.0
H232 H 0.57666 0.29155 0.08806 0.0
C233 C 0.7166 0.48018 0.0471 0.0
C234 C 0.64934 0.45104 0.07473 0.0
H235 H 0.79803 0.47086 0.02064 0.0
H236 H 0.76079 0.53461 0.03824 0.0
C237 C 0.5917 0.37979 0.08447 0.0
C238 C 0.51714 0.82012 0.46603 0.0
C239 C 0.51401 0.86971 0.45306 0.0
H240 H 0.45151 0.71189 0.46994 0.0
C241 C 0.43511 0.84408 0.43716 0.0
H242 H 0.57617 0.83712 0.47852 0.0
C243 C 0.36365 0.77246 0.43295 0.0
C244 C 0.36765 0.72312 0.44437 0.0
H245 H 0.42887 0.87962 0.42699 0.0
H246 H 0.30567 0.75546 0.41906 0.0
C247 C 0.44518 0.74798 0.4616 0.0
C248 C 0.69058 0.28297 0.78759 0.0
C249 C 0.60969 0.24325 0.80743 0.0
H250 H 0.77416 0.28247 0.75239 0.0
C251 C 0.55209 0.1704 0.80778 0.0
H252 H 0.73745 0.33908 0.7872 0.0
C253 C 0.57414 0.1384 0.78821 0.0
C254 C 0.65409 0.1784 0.76791 0.0
H255 H 0.48888 0.13796 0.82217 0.0
H256 H 0.52815 0.08234 0.78816 0.0
C257 C 0.71216 0.25085 0.76786 0.0
C258 C 0.79792 0.77926 0.58692 0.0
C259 C 0.74107 0.77814 0.56381 0.0
H260 H 0.82415 0.72014 0.6128 0.0
C261 C 0.66067 0.71341 0.55348 0.0
H262 H 0.86066 0.82788 0.59521 0.0
C263 C 0.64061 0.6521 0.56341 0.0
C264 C 0.6999 0.65407 0.58422 0.0
H265 H 0.61424 0.71017 0.53661 0.0
H266 H 0.58046 0.60324 0.55333 0.0
C267 C 0.77724 0.7177 0.59714 0.0
C268 C 0.96958 0.63716 0.85297 0.0
C269 C 0.8771 0.58 0.86055 0.0
H270 H 1.10312 0.68044 0.85122 0.0
C271 C 0.85976 0.51837 0.8716 0.0
H272 H 0.99223 0.68708 0.84445 0.0
C273 C 0.92554 0.51432 0.87533 0.0
C274 C 1.01778 0.57111 0.86797 0.0
H275 H 0.79302 0.47127 0.87819 0.0
H276 H 0.90284 0.46474 0.88492 0.0
C277 C 1.03596 0.63313 0.85655 0.0
C278 C 0.46376 0.74651 0.15977 0.0
C279 C 0.3781 0.71542 0.16866 0.0
H280 H 0.60095 0.83971 0.15874 0.0
C281 C 0.36805 0.75973 0.18123 0.0
H282 H 0.47511 0.71488 0.14999 0.0
C283 C 0.44034 0.83131 0.18595 0.0
C284 C 0.52586 0.86208 0.17793 0.0
H285 H 0.30405 0.7388 0.18842 0.0
H286 H 0.42969 0.86268 0.19722 0.0
C287 C 0.53629 0.81854 0.1643 0.0
C288 C 0.60152 0.37087 0.49925 0.0
C289 C 0.66597 0.36877 0.50194 0.0
H290 H 0.55815 0.41934 0.51837 0.0
C291 C 0.73948 0.41795 0.52507 0.0
H292 H 0.54355 0.33342 0.48223 0.0
C293 C 0.7466 0.466 0.54616 0.0
C294 C 0.6812 0.4666 0.54411 0.0
H295 H 0.79137 0.41906 0.5272 0.0
H296 H 0.80282 0.50249 0.56437 0.0
C297 C 0.60936 0.41959 0.52003 0.0
C298 C 0.42662 0.6231 0.85068 0.0
C299 C 0.42511 0.57062 0.86643 0.0
H300 H 0.36547 0.66409 0.84167 0.0
C301 C 0.34293 0.51593 0.88656 0.0
H302 H 0.48473 0.66754 0.8347 0.0
C303 C 0.27227 0.51411 0.891 0.0
C304 C 0.27339 0.5662 0.87532 0.0
H305 H 0.3324 0.47284 0.8998 0.0
H306 H 0.21454 0.46954 0.90706 0.0
C307 C 0.35504 0.6209 0.8546 0.0
C308 C 0.93837 0.21727 0.15216 0.0
C309 C 0.93918 0.26837 0.16381 0.0
H310 H 0.86843 0.10817 0.1517 0.0
C311 C 0.86453 0.24442 0.18438 0.0
H312 H 0.99402 0.23277 0.13649 0.0
C313 C 0.79325 0.17309 0.19361 0.0
C314 C 0.79242 0.12216 0.18208 0.0
H315 H 0.86161 0.28116 0.19423 0.0
H316 H 0.73816 0.15756 0.20988 0.0
C317 C 0.86598 0.14546 0.16081 0.0
C318 C 1.12032 0.45728 0.01724 0.0
C319 C 0.18722 0.51568 0.03882 0.0
H320 H 1.05784 0.41983 0.96046 0.0
C321 C 0.25223 0.57878 0.01742 0.0
H322 H 1.06829 0.40838 0.03282 0.0
C323 C 0.24685 0.58503 0.97607 0.0
C324 C 0.17556 0.52862 0.95507 0.0
H325 H 0.30399 0.62495 0.03324 0.0
H326 H 0.29374 0.63567 0.96117 0.0
C327 C 1.11441 0.46384 0.97578 0.0
C328 C 0.8254 0.10455 0.31985 0.0
C329 C 0.76756 0.09456 0.34721 0.0
H330 H 0.84424 0.08976 0.26003 0.0
C331 C 0.69007 0.07324 0.33304 0.0
H332 H 0.88584 0.12129 0.32988 0.0
C333 C 0.66771 0.05705 0.29308 0.0
C334 C 0.72148 0.06057 0.26659 0.0
H335 H 0.64468 0.06582 0.35328 0.0
H336 H 0.60522 0.03668 0.28342 0.0
C337 C 0.80222 0.08726 0.27984 0.0
C338 C 0.72802 0.59743 0.72802 0.0
C339 C 0.64375 0.56241 0.7417 0.0
H340 H 0.80904 0.62597 0.67722 0.0
C341 C 0.57903 0.53785 0.71376 0.0
H342 H 0.77914 0.61693 0.74893 0.0
C343 C 0.59707 0.54487 0.67291 0.0
C344 C 0.67959 0.57559 0.65949 0.0
H345 H 0.51369 0.51098 0.72354 0.0
H346 H 0.54528 0.52224 0.65187 0.0
C347 C 0.74546 0.60319 0.68718 0.0
C348 C 0.62893 0.03131 0.59636 0.0
C349 C 0.70324 0.0825 0.57257 0.0
H350 H 0.5713 0.99922 0.65507 0.0
C351 C 0.78107 0.1372 0.59128 0.0
H352 H 0.56806 0.98857 0.58275 0.0
C353 C 0.78242 0.14314 0.6328 0.0
C354 C 0.70668 0.0937 0.65614 0.0
H355 H 0.83913 0.17759 0.57366 0.0
H356 H 0.84107 0.18825 0.64648 0.0
C357 C 0.63075 0.0368 0.63771 0.0
C358 C 0.60274 0.53374 0.98037 0.0
C359 C 0.68017 0.59793 0.96523 0.0
H360 H 0.53481 0.46652 0.03251 0.0
C361 C 0.74638 0.64617 0.99141 0.0
H362 H 0.55086 0.49584 0.96061 0.0
C363 C 0.73629 0.62997 0.03208 0.0
C364 C 0.66048 0.56501 0.04709 0.0
H365 H 0.80659 0.6961 0.98044 0.0
H366 H 0.78922 0.66686 0.05171 0.0
C367 C 0.59332 0.5171 0.02118 0.0
C368 C 0.15769 0.45666 0.30485 0.0
C369 C 0.14335 0.48584 0.27462 0.0
H370 H 0.19033 0.45978 0.36612 0.0
C371 C 0.13583 0.53222 0.2849 0.0
H372 H 0.16342 0.42047 0.29777 0.0
C373 C 0.14847 0.55276 0.3242 0.0
C374 C 0.17126 0.52884 0.3536 0.0
H375 H 1.12383 0.55479 0.26226 0.0
H376 H 0.14637 0.59106 0.3312 0.0
C377 C 0.1723 0.4785 0.34401 0.0
loop_
_geom_bond_atom_site_label_1
_geom_bond_atom_site_label_2
_geom_bond_distance
_geom_bond_site_symmetry_2
_ccdc_geom_bond_type
La0 C2 2.928 . S
La0 O20 2.521 . S
La0 O21 2.628 . S
La0 O22 2.554 . S
La0 O23 2.757 1_455 S
La0 O24 2.470 . S
La0 O29 2.482 . S
La0 O31 2.503 1_455 S
La1 C11 2.928 . S
La1 O23 2.482 . S
La1 O25 2.503 1_655 S
La1 O26 2.521 . S
La1 O27 2.628 . S
La1 O28 2.554 . S
La1 O29 2.757 1_655 S
La1 O30 2.470 . S
C2 La0 2.928 . S
C2 C3 1.503 . S
C2 O20 1.261 . S
C2 O21 1.243 . S
C3 C2 1.503 . S
C3 C4 1.394 . S
C3 C8 1.373 . S
C4 C3 1.394 . S
C4 C5 1.380 . S
C4 H32 0.930 . S
C5 C4 1.380 . S
C5 C6 1.376 . S
C5 H33 0.930 . S
C6 C5 1.376 . S
C6 C7 1.370 . S
C7 C6 1.370 . S
C7 C8 1.396 . S
C7 H34 0.929 . S
C8 C3 1.373 . S
C8 C7 1.396 . S
C8 H35 0.929 . S
C9 O22 1.240 . S
C9 O23 1.289 1_455 S
C10 O24 1.258 . S
C10 O25 1.256 . S
C11 La1 2.928 . S
C11 C12 1.503 . S
C11 O26 1.261 . S
C11 O27 1.243 . S
C12 C11 1.503 . S
C12 C13 1.394 . S
C12 C17 1.373 . S
C13 C12 1.394 . S
C13 C14 1.380 . S
C13 H36 0.930 . S
C14 C13 1.380 . S
C14 C15 1.376 . S
C14 H37 0.930 . S
C15 C14 1.376 . S
C15 C16 1.370 . S
C16 C15 1.370 . S
C16 C17 1.396 . S
C16 H38 0.929 . S
C17 C12 1.373 . S
C17 C16 1.396 . S
C17 H39 0.929 . S
C18 O28 1.240 1_455 S
C18 O29 1.289 . S
C19 O30 1.258 . S
C19 O31 1.256 . S
O20 La0 2.521 . S
O20 C2 1.261 . S
O21 La0 2.628 . S
O21 C2 1.243 . S
O22 La0 2.554 . S
O22 C9 1.240 . S
O23 La0 2.757 1_655 S
O23 La1 2.482 . S
O23 C9 1.289 1_655 S
O24 La0 2.470 . S
O24 C10 1.258 . S
O25 La1 2.503 1_455 S
O25 C10 1.256 . S
O26 La1 2.521 . S
O26 C11 1.261 . S
O27 La1 2.628 . S
O27 C11 1.243 . S
O28 La1 2.554 . S
O28 C18 1.240 1_655 S
O29 La0 2.482 . S
O29 La1 2.757 1_455 S
O29 C18 1.289 . S
O30 La1 2.470 . S
O30 C19 1.258 . S
O31 La0 2.503 1_655 S
O31 C19 1.256 . S
H32 C4 0.930 . S
H33 C5 0.930 . S
H34 C7 0.929 . S
H35 C8 0.929 . S
H36 C13 0.930 . S
H37 C14 0.930 . S
H38 C16 0.929 . S
H39 C17 0.929 . S
La40 C42 2.928 1_545 S
La40 O60 2.521 1_545 S
La40 O61 2.628 1_545 S
La40 O62 2.554 . S
La40 O63 2.757 . S
La40 O64 2.470 1_545 S
La40 O69 2.482 . S
La40 O71 2.503 . S
La41 C51 2.928 . S
La41 O63 2.482 . S
La41 O65 2.503 1_545 S
La41 O66 2.521 . S
La41 O67 2.628 . S
La41 O68 2.554 . S
La41 O69 2.757 . S
La41 O70 2.470 . S
C42 La40 2.928 1_565 S
C42 C43 1.503 . S
C42 O60 1.261 . S
C42 O61 1.243 . S
C43 C42 1.503 . S
C43 C44 1.394 . S
C43 C48 1.373 . S
C44 C43 1.394 . S
C44 C45 1.380 . S
C44 H72 0.930 . S
C45 C44 1.380 . S
C45 C46 1.376 . S
C45 H73 0.930 . S
C46 C45 1.376 . S
C46 C47 1.370 . S
C47 C46 1.370 . S
C47 C48 1.396 . S
C47 H74 0.929 . S
C48 C43 1.373 . S
C48 C47 1.396 . S
C48 H75 0.929 . S
C49 O62 1.240 . S
C49 O63 1.289 . S
C50 O64 1.258 . S
C50 O65 1.256 . S
C51 La41 2.928 . S
C51 C52 1.503 . S
C51 O66 1.261 . S
C51 O67 1.243 . S
C52 C51 1.503 . S
C52 C53 1.394 . S
C52 C57 1.373 . S
C53 C52 1.394 . S
C53 C54 1.380 . S
C53 H76 0.930 . S
C54 C53 1.380 . S
C54 C55 1.376 . S
C54 H77 0.930 . S
C55 C54 1.376 . S
C55 C56 1.370 . S
C56 C55 1.370 . S
C56 C57 1.396 . S
C56 H78 0.929 . S
C57 C52 1.373 . S
C57 C56 1.396 . S
C57 H79 0.929 . S
C58 O68 1.240 . S
C58 O69 1.289 . S
C59 O70 1.258 . S
C59 O71 1.256 . S
O60 La40 2.521 1_565 S
O60 C42 1.261 . S
O61 La40 2.628 1_565 S
O61 C42 1.243 . S
O62 La40 2.554 . S
O62 C49 1.240 . S
O63 La40 2.757 . S
O63 La41 2.482 . S
O63 C49 1.289 . S
O64 La40 2.470 1_565 S
O64 C50 1.258 . S
O65 La41 2.503 1_565 S
O65 C50 1.256 . S
O66 La41 2.521 . S
O66 C51 1.261 . S
O67 La41 2.628 . S
O67 C51 1.243 . S
O68 La41 2.554 . S
O68 C58 1.240 . S
O69 La40 2.482 . S
O69 La41 2.757 . S
O69 C58 1.289 . S
O70 La41 2.470 . S
O70 C59 1.258 . S
O71 La40 2.503 . S
O71 C59 1.256 . S
H72 C44 0.930 . S
H73 C45 0.930 . S
H74 C47 0.929 . S
H75 C48 0.929 . S
H76 C53 0.930 . S
H77 C54 0.930 . S
H78 C56 0.929 . S
H79 C57 0.929 . S
La80 C82 2.928 . S
La80 O100 2.521 . S
La80 O101 2.628 . S
La80 O102 2.554 . S
La80 O103 2.757 . S
La80 O104 2.470 . S
La80 O109 2.482 . S
La80 O111 2.503 . S
La81 C91 2.928 . S
La81 O103 2.482 . S
La81 O105 2.503 . S
La81 O106 2.521 . S
La81 O107 2.628 . S
La81 O108 2.554 . S
La81 O109 2.757 . S
La81 O110 2.470 . S
C82 La80 2.928 . S
C82 C83 1.503 . S
C82 O100 1.261 . S
C82 O101 1.243 . S
C83 C82 1.503 . S
C83 C84 1.394 . S
C83 C88 1.373 . S
C84 C83 1.394 . S
C84 C85 1.380 . S
C84 H112 0.930 . S
C85 C84 1.380 . S
C85 C86 1.376 . S
C85 H113 0.930 . S
C86 C85 1.376 . S
C86 C87 1.370 . S
C87 C86 1.370 . S
C87 C88 1.396 . S
C87 H114 0.929 . S
C88 C83 1.373 . S
C88 C87 1.396 . S
C88 H115 0.929 . S
C89 O102 1.240 . S
C89 O103 1.289 . S
C90 O104 1.258 . S
C90 O105 1.256 . S
C91 La81 2.928 . S
C91 C92 1.503 . S
C91 O106 1.261 . S
C91 O107 1.243 . S
C92 C91 1.503 . S
C92 C93 1.394 . S
C92 C97 1.373 . S
C93 C92 1.394 . S
C93 C94 1.380 . S
C93 H116 0.930 . S
C94 C93 1.380 . S
C94 C95 1.376 . S
C94 H117 0.930 . S
C95 C94 1.376 . S
C95 C96 1.370 . S
C96 C95 1.370 . S
C96 C97 1.396 . S
C96 H118 0.929 . S
C97 C92 1.373 . S
C97 C96 1.396 . S
C97 H119 0.929 . S
C98 O108 1.240 . S
C98 O109 1.289 . S
C99 O110 1.258 . S
C99 O111 1.256 . S
O100 La80 2.521 . S
O100 C82 1.261 . S
O101 La80 2.628 . S
O101 C82 1.243 . S
O102 La80 2.554 . S
O102 C89 1.240 . S
O103 La80 2.757 . S
O103 La81 2.482 . S
O103 C89 1.289 . S
O104 La80 2.470 . S
O104 C90 1.258 . S
O105 La81 2.503 . S
O105 C90 1.256 . S
O106 La81 2.521 . S
O106 C91 1.261 . S
O107 La81 2.628 . S
O107 C91 1.243 . S
O108 La81 2.554 . S
O108 C98 1.240 . S
O109 La80 2.482 . S
O109 La81 2.757 . S
O109 C98 1.289 . S
O110 La81 2.470 . S
O110 C99 1.258 . S
O111 La80 2.503 . S
O111 C99 1.256 . S
H112 C84 0.930 . S
H113 C85 0.930 . S
H114 C87 0.929 . S
H115 C88 0.929 . S
H116 C93 0.930 . S
H117 C94 0.930 . S
H118 C96 0.929 . S
H119 C97 0.929 . S
C120 N121 1.317 1_565 S
C120 N122 1.348 . S
C120 C123 1.485 1_565 S
N121 C120 1.317 1_545 S
N121 N125 1.370 . S
N122 C120 1.348 . S
N122 C124 1.346 . S
C123 C120 1.485 1_545 S
C123 H127 0.960 . S
C123 H128 0.961 1_545 S
C123 H129 0.960 . S
C124 N122 1.346 . S
C124 N125 1.307 1_565 S
C124 C126 1.486 . S
N125 N121 1.370 . S
N125 C124 1.307 1_545 S
C126 C124 1.486 . S
C126 H130 0.960 . S
C126 H131 0.960 . S
C126 H132 0.959 . S
H127 C123 0.960 . S
H128 C123 0.961 1_565 S
H129 C123 0.960 . S
H130 C126 0.960 . S
H131 C126 0.960 . S
H132 C126 0.959 . S
C133 N134 1.317 . S
C133 N135 1.348 . S
C133 C136 1.485 . S
N134 C133 1.317 . S
N134 N138 1.370 . S
N135 C133 1.348 . S
N135 C137 1.346 . S
C136 C133 1.485 . S
C136 H140 0.960 . S
C136 H141 0.961 . S
C136 H142 0.960 . S
C137 N135 1.346 . S
C137 N138 1.307 . S
C137 C139 1.486 . S
N138 N134 1.370 . S
N138 C137 1.307 . S
C139 C137 1.486 . S
C139 H143 0.960 . S
C139 H144 0.960 . S
C139 H145 0.959 . S
H140 C136 0.960 . S
H141 C136 0.961 . S
H142 C136 0.960 . S
H143 C139 0.960 . S
H144 C139 0.960 . S
H145 C139 0.959 . S
C146 N147 1.317 . S
C146 N148 1.348 . S
C146 C149 1.485 . S
N147 C146 1.317 . S
N147 N151 1.370 . S
N148 C146 1.348 . S
N148 C150 1.346 . S
C149 C146 1.485 . S
C149 H153 0.960 . S
C149 H154 0.961 . S
C149 H155 0.960 . S
C150 N148 1.346 . S
C150 N151 1.307 . S
C150 C152 1.486 1_455 S
N151 N147 1.370 . S
N151 C150 1.307 . S
C152 C150 1.486 1_655 S
C152 H156 0.960 . S
C152 H157 0.960 . S
C152 H158 0.959 . S
H153 C149 0.960 . S
H154 C149 0.961 . S
H155 C149 0.960 . S
H156 C152 0.960 . S
H157 C152 0.960 . S
H158 C152 0.959 . S
C159 N160 1.317 . S
C159 N161 1.348 . S
C159 C162 1.485 . S
N160 C159 1.317 . S
N160 N164 1.370 . S
N161 C159 1.348 . S
N161 C163 1.346 . S
C162 C159 1.485 . S
C162 H166 0.960 . S
C162 H167 0.961 . S
C162 H168 0.960 . S
C163 N161 1.346 . S
C163 N164 1.307 . S
C163 C165 1.486 . S
N164 N160 1.370 . S
N164 C163 1.307 . S
C165 C163 1.486 . S
C165 H169 0.960 . S
C165 H170 0.960 . S
C165 H171 0.959 . S
H166 C162 0.960 . S
H167 C162 0.961 . S
H168 C162 0.960 . S
H169 C165 0.960 . S
H170 C165 0.960 . S
H171 C165 0.959 . S
C172 N173 1.317 . S
C172 N174 1.348 . S
C172 C175 1.485 . S
N173 C172 1.317 . S
N173 N177 1.370 . S
N174 C172 1.348 . S
N174 C176 1.346 . S
C175 C172 1.485 . S
C175 H179 0.960 . S
C175 H180 0.961 . S
C175 H181 0.960 . S
C176 N174 1.346 . S
C176 N177 1.307 . S
C176 C178 1.486 . S
N177 N173 1.370 . S
N177 C176 1.307 . S
C178 C176 1.486 . S
C178 H182 0.960 . S
C178 H183 0.960 . S
C178 H184 0.959 . S
H179 C175 0.960 . S
H180 C175 0.961 . S
H181 C175 0.960 . S
H182 C178 0.960 . S
H183 C178 0.960 . S
H184 C178 0.959 . S
C185 N186 1.317 . S
C185 N187 1.348 . S
C185 C188 1.485 . S
N186 C185 1.317 . S
N186 N190 1.370 . S
N187 C185 1.348 . S
N187 C189 1.346 . S
C188 C185 1.485 . S
C188 H192 0.960 . S
C188 H193 0.961 . S
C188 H194 0.960 . S
C189 N187 1.346 . S
C189 N190 1.307 . S
C189 C191 1.486 . S
N190 N186 1.370 . S
N190 C189 1.307 . S
C191 C189 1.486 . S
C191 H195 0.960 . S
C191 H196 0.960 . S
C191 H197 0.959 . S
H192 C188 0.960 . S
H193 C188 0.961 . S
H194 C188 0.960 . S
H195 C191 0.960 . S
H196 C191 0.960 . S
H197 C191 0.959 . S
C198 C199 1.387 . S
C198 H202 0.950 . S
C198 C207 1.390 . S
C199 C198 1.387 . S
C199 C201 1.387 . S
H200 C207 0.950 . S
C201 C199 1.387 . S
C201 C203 1.390 . S
C201 H205 0.950 . S
H202 C198 0.950 . S
C203 C201 1.390 . S
C203 C204 1.387 . S
C203 H206 0.950 . S
C204 C203 1.387 . S
C204 C207 1.387 . S
H205 C201 0.950 . S
H206 C203 0.950 . S
C207 C198 1.390 . S
C207 H200 0.950 . S
C207 C204 1.387 . S
C208 C209 1.387 . S
C208 H212 0.950 . S
C208 C217 1.390 . S
C209 C208 1.387 . S
C209 C211 1.387 . S
H210 C217 0.950 . S
C211 C209 1.387 . S
C211 C213 1.390 . S
C211 H215 0.950 . S
H212 C208 0.950 . S
C213 C211 1.390 . S
C213 C214 1.387 . S
C213 H216 0.950 . S
C214 C213 1.387 . S
C214 C217 1.387 . S
H215 C211 0.950 . S
H216 C213 0.950 . S
C217 C208 1.390 . S
C217 H210 0.950 . S
C217 C214 1.387 . S
C218 C219 1.387 . S
C218 H222 0.950 . S
C218 C227 1.390 . S
C219 C218 1.387 . S
C219 C221 1.387 . S
H220 C227 0.950 . S
C221 C219 1.387 . S
C221 C223 1.390 1_565 S
C221 H225 0.950 1_565 S
H222 C218 0.950 . S
C223 C221 1.390 1_545 S
C223 C224 1.387 1_545 S
C223 H226 0.950 . S
C224 C223 1.387 1_565 S
C224 C227 1.387 . S
H225 C221 0.950 1_545 S
H226 C223 0.950 . S
C227 C218 1.390 . S
C227 H220 0.950 . S
C227 C224 1.387 . S
C228 C229 1.387 . S
C228 H232 0.950 . S
C228 C237 1.390 . S
C229 C228 1.387 . S
C229 C231 1.387 . S
H230 C237 0.950 . S
C231 C229 1.387 . S
C231 C233 1.390 . S
C231 H235 0.950 . S
H232 C228 0.950 . S
C233 C231 1.390 . S
C233 C234 1.387 . S
C233 H236 0.950 . S
C234 C233 1.387 . S
C234 C237 1.387 . S
H235 C231 0.950 . S
H236 C233 0.950 . S
C237 C228 1.390 . S
C237 H230 0.950 . S
C237 C234 1.387 . S
C238 C239 1.387 . S
C238 H242 0.950 . S
C238 C247 1.390 . S
C239 C238 1.387 . S
C239 C241 1.387 . S
H240 C247 0.950 . S
C241 C239 1.387 . S
C241 C243 1.390 . S
C241 H245 0.950 . S
H242 C238 0.950 . S
C243 C241 1.390 . S
C243 C244 1.387 . S
C243 H246 0.950 . S
C244 C243 1.387 . S
C244 C247 1.387 . S
H245 C241 0.950 . S
H246 C243 0.950 . S
C247 C238 1.390 . S
C247 H240 0.950 . S
C247 C244 1.387 . S
C248 C249 1.387 . S
C248 H252 0.950 . S
C248 C257 1.390 . S
C249 C248 1.387 . S
C249 C251 1.387 . S
H250 C257 0.950 . S
C251 C249 1.387 . S
C251 C253 1.390 . S
C251 H255 0.950 . S
H252 C248 0.950 . S
C253 C251 1.390 . S
C253 C254 1.387 . S
C253 H256 0.950 . S
C254 C253 1.387 . S
C254 C257 1.387 . S
H255 C251 0.950 . S
H256 C253 0.950 . S
C257 C248 1.390 . S
C257 H250 0.950 . S
C257 C254 1.387 . S
C258 C259 1.387 . S
C258 H262 0.950 . S
C258 C267 1.390 . S
C259 C258 1.387 . S
C259 C261 1.387 . S
H260 C267 0.950 . S
C261 C259 1.387 . S
C261 C263 1.390 . S
C261 H265 0.950 . S
H262 C258 0.950 . S
C263 C261 1.390 . S
C263 C264 1.387 . S
C263 H266 0.950 . S
C264 C263 1.387 . S
C264 C267 1.387 . S
H265 C261 0.950 . S
H266 C263 0.950 . S
C267 C258 1.390 . S
C267 H260 0.950 . S
C267 C264 1.387 . S
C268 C269 1.387 . S
C268 H272 0.950 . S
C268 C277 1.390 . S
C269 C268 1.387 . S
C269 C271 1.387 . S
H270 C277 0.950 . S
C271 C269 1.387 . S
C271 C273 1.390 . S
C271 H275 0.950 . S
H272 C268 0.950 . S
C273 C271 1.390 . S
C273 C274 1.387 . S
C273 H276 0.950 . S
C274 C273 1.387 . S
C274 C277 1.387 . S
H275 C271 0.950 . S
H276 C273 0.950 . S
C277 C268 1.390 . S
C277 H270 0.950 . S
C277 C274 1.387 . S
C278 C279 1.387 . S
C278 H282 0.950 . S
C278 C287 1.390 . S
C279 C278 1.387 . S
C279 C281 1.387 . S
H280 C287 0.950 . S
C281 C279 1.387 . S
C281 C283 1.390 . S
C281 H285 0.950 . S
H282 C278 0.950 . S
C283 C281 1.390 . S
C283 C284 1.387 . S
C283 H286 0.950 . S
C284 C283 1.387 . S
C284 C287 1.387 . S
H285 C281 0.950 . S
H286 C283 0.950 . S
C287 C278 1.390 . S
C287 H280 0.950 . S
C287 C284 1.387 . S
C288 C289 1.387 . S
C288 H292 0.950 . S
C288 C297 1.390 . S
C289 C288 1.387 . S
C289 C291 1.387 . S
H290 C297 0.950 . S
C291 C289 1.387 . S
C291 C293 1.390 . S
C291 H295 0.950 . S
H292 C288 0.950 . S
C293 C291 1.390 . S
C293 C294 1.387 . S
C293 H296 0.950 . S
C294 C293 1.387 . S
C294 C297 1.387 . S
H295 C291 0.950 . S
H296 C293 0.950 . S
C297 C288 1.390 . S
C297 H290 0.950 . S
C297 C294 1.387 . S
C298 C299 1.387 . S
C298 H302 0.950 . S
C298 C307 1.390 . S
C299 C298 1.387 . S
C299 C301 1.387 . S
H300 C307 0.950 . S
C301 C299 1.387 . S
C301 C303 1.390 . S
C301 H305 0.950 . S
H302 C298 0.950 . S
C303 C301 1.390 . S
C303 C304 1.387 . S
C303 H306 0.950 . S
C304 C303 1.387 . S
C304 C307 1.387 . S
H305 C301 0.950 . S
H306 C303 0.950 . S
C307 C298 1.390 . S
C307 H300 0.950 . S
C307 C304 1.387 . S
C308 C309 1.387 . S
C308 H312 0.950 . S
C308 C317 1.390 . S
C309 C308 1.387 . S
C309 C311 1.387 . S
H310 C317 0.950 . S
C311 C309 1.387 . S
C311 C313 1.390 . S
C311 H315 0.950 . S
H312 C308 0.950 . S
C313 C311 1.390 . S
C313 C314 1.387 . S
C313 H316 0.950 . S
C314 C313 1.387 . S
C314 C317 1.387 . S
H315 C311 0.950 . S
H316 C313 0.950 . S
C317 C308 1.390 . S
C317 H310 0.950 . S
C317 C314 1.387 . S
C318 C319 1.387 1_655 S
C318 H322 0.950 . S
C318 C327 1.390 1_554 S
C319 C318 1.387 1_455 S
C319 C321 1.387 . S
H320 C327 0.950 . S
C321 C319 1.387 . S
C321 C323 1.390 1_554 S
C321 H325 0.950 . S
H322 C318 0.950 . S
C323 C321 1.390 1_556 S
C323 C324 1.387 . S
C323 H326 0.950 . S
C324 C323 1.387 . S
C324 C327 1.387 1_455 S
H325 C321 0.950 . S
H326 C323 0.950 . S
C327 C318 1.390 1_556 S
C327 H320 0.950 . S
C327 C324 1.387 1_655 S
C328 C329 1.387 1_565 S
C328 H332 0.950 . S
C328 C337 1.390 . S
C329 C328 1.387 1_545 S
C329 C331 1.387 . S
H330 C337 0.950 . S
C331 C329 1.387 . S
C331 C333 1.390 . S
C331 H335 0.950 . S
H332 C328 0.950 . S
C333 C331 1.390 . S
C333 C334 1.387 . S
C333 H336 0.950 . S
C334 C333 1.387 . S
C334 C337 1.387 1_545 S
H335 C331 0.950 . S
H336 C333 0.950 . S
C337 C328 1.390 . S
C337 H330 0.950 . S
C337 C334 1.387 1_565 S
C338 C339 1.387 . S
C338 H342 0.950 . S
C338 C347 1.390 . S
C339 C338 1.387 . S
C339 C341 1.387 . S
H340 C347 0.950 . S
C341 C339 1.387 . S
C341 C343 1.390 . S
C341 H345 0.950 . S
H342 C338 0.950 . S
C343 C341 1.390 . S
C343 C344 1.387 . S
C343 H346 0.950 . S
C344 C343 1.387 . S
C344 C347 1.387 . S
H345 C341 0.950 . S
H346 C343 0.950 . S
C347 C338 1.390 . S
C347 H340 0.950 . S
C347 C344 1.387 . S
C348 C349 1.387 1_565 S
C348 H352 0.950 . S
C348 C357 1.390 . S
C349 C348 1.387 1_545 S
C349 C351 1.387 . S
H350 C357 0.950 . S
C351 C349 1.387 . S
C351 C353 1.390 . S
C351 H355 0.950 . S
H352 C348 0.950 . S
C353 C351 1.390 . S
C353 C354 1.387 . S
C353 H356 0.950 . S
C354 C353 1.387 . S
C354 C357 1.387 1_545 S
H355 C351 0.950 . S
H356 C353 0.950 . S
C357 C348 1.390 . S
C357 H350 0.950 . S
C357 C354 1.387 1_565 S
C358 C359 1.387 . S
C358 H362 0.950 . S
C358 C367 1.390 1_556 S
C359 C358 1.387 . S
C359 C361 1.387 . S
H360 C367 0.950 . S
C361 C359 1.387 . S
C361 C363 1.390 1_556 S
C361 H365 0.950 . S
H362 C358 0.950 . S
C363 C361 1.390 1_554 S
C363 C364 1.387 . S
C363 H366 0.950 . S
C364 C363 1.387 . S
C364 C367 1.387 . S
H365 C361 0.950 . S
H366 C363 0.950 . S
C367 C358 1.390 1_554 S
C367 H360 0.950 . S
C367 C364 1.387 . S
C368 C369 1.387 1_455 S
C368 H372 0.950 . S
C368 C377 1.390 . S
C369 C368 1.387 1_655 S
C369 C371 1.387 . S
H370 C377 0.950 . S
C371 C369 1.387 . S
C371 C373 1.390 . S
C371 H375 0.950 . S
H372 C368 0.950 . S
C373 C371 1.390 . S
C373 C374 1.387 1_655 S
C373 H376 0.950 . S
C374 C373 1.387 1_455 S
C374 C377 1.387 . S
H375 C371 0.950 . S
H376 C373 0.950 . S
C377 C368 1.390 . S
C377 H370 0.950 . S
C377 C374 1.387 . S
C199 C6 0.797 . S
C204 N187 0.821 . S
C209 C59 1.859 . S
C214 N160 1.863 1_655 S
C219 C86 1.386 . S
C224 N173 1.392 1_565 S
C229 C15 1.038 . S
C234 N186 1.154 . S
C244 N161 1.987 . S
C239 C50 1.983 . S
C254 N174 1.512 . S
C249 C95 1.440 . S
C259 C46 1.184 . S
C264 N134 1.188 . S
C269 C99 2.963 . S
C274 N148 2.923 1_655 S
C279 C10 2.011 . S
C284 N122 2.039 . S
C294 N135 1.566 . S
C289 C55 1.480 . S
C304 N147 3.312 . S
C299 C90 3.254 . S
C309 C19 1.860 . S
C314 N121 1.903 . S
C324 N151 1.770 . S
C319 C18 1.776 . S
C329 C49 1.440 . S
C334 N125 1.452 . S
C339 C98 1.467 . S
C344 N138 1.583 . S
C354 N177 1.526 . S
C349 C58 1.433 . S
C364 N190 1.153 . S
C359 C89 1.174 . S
C369 C9 1.384 1_655 S
C374 N164 1.423 . S
