# Generated by pormake.
# Topology zzz, (3,6)-cn, num edge types: 1
# Building blocks:
#     Node 0, Type 0, BuildingBlock: ESEHIV_clean_linker_0, # of connection points: 3
#     Node 1, Type 0, BuildingBlock: ESEHIV_clean_linker_0, # of connection points: 3
#     Node 2, Type 0, BuildingBlock: ESEHIV_clean_linker_0, # of connection points: 3
#     Node 3, Type 0, BuildingBlock: ESEHIV_clean_linker_0, # of connection points: 3
#     Node 4, Type 0, BuildingBlock: ESEHIV_clean_linker_0, # of connection points: 3
#     Node 5, Type 0, BuildingBlock: ESEHIV_clean_linker_0, # of connection points: 3
#     Node 6, Type 0, BuildingBlock: ESEHIV_clean_linker_0, # of connection points: 3
#     Node 7, Type 0, BuildingBlock: ESEHIV_clean_linker_0, # of connection points: 3
#     Node 8, Type 1, BuildingBlock: FUNLAD_clean_sbu_0, # of connection points: 6
#     Node 9, Type 1, BuildingBlock: FUNLAD_clean_sbu_0, # of connection points: 6
#     Node 10, Type 1, BuildingBlock: FUNLAD_clean_sbu_0, # of connection points: 6
#     Node 11, Type 1, BuildingBlock: FUNLAD_clean_sbu_0, # of connection points: 6
#     Edge 12, Type (0, 1), BuildingBlock: EZIPEK_clean_linker_0, # of connection points: 2
#     Edge 13, Type (0, 1), BuildingBlock: EZIPEK_clean_linker_0, # of connection points: 2
#     Edge 14, Type (0, 1), BuildingBlock: EZIPEK_clean_linker_0, # of connection points: 2
#     Edge 15, Type (0, 1), BuildingBlock: EZIPEK_clean_linker_0, # of connection points: 2
#     Edge 16, Type (0, 1), BuildingBlock: EZIPEK_clean_linker_0, # of connection points: 2
#     Edge 17, Type (0, 1), BuildingBlock: EZIPEK_clean_linker_0, # of connection points: 2
#     Edge 18, Type (0, 1), BuildingBlock: EZIPEK_clean_linker_0, # of connection points: 2
#     Edge 19, Type (0, 1), BuildingBlock: EZIPEK_clean_linker_0, # of connection points: 2
#     Edge 20, Type (0, 1), BuildingBlock: EZIPEK_clean_linker_0, # of connection points: 2
#     Edge 21, Type (0, 1), BuildingBlock: EZIPEK_clean_linker_0, # of connection points: 2
#     Edge 22, Type (0, 1), BuildingBlock: EZIPEK_clean_linker_0, # of connection points: 2
#     Edge 23, Type (0, 1), BuildingBlock: EZIPEK_clean_linker_0, # of connection points: 2
#     Edge 24, Type (0, 1), BuildingBlock: EZIPEK_clean_linker_0, # of connection points: 2
#     Edge 25, Type (0, 1), BuildingBlock: EZIPEK_clean_linker_0, # of connection points: 2
#     Edge 26, Type (0, 1), BuildingBlock: EZIPEK_clean_linker_0, # of connection points: 2
#     Edge 27, Type (0, 1), BuildingBlock: EZIPEK_clean_linker_0, # of connection points: 2
#     Edge 28, Type (0, 1), BuildingBlock: EZIPEK_clean_linker_0, # of connection points: 2
#     Edge 29, Type (0, 1), BuildingBlock: EZIPEK_clean_linker_0, # of connection points: 2
#     Edge 30, Type (0, 1), BuildingBlock: EZIPEK_clean_linker_0, # of connection points: 2
#     Edge 31, Type (0, 1), BuildingBlock: EZIPEK_clean_linker_0, # of connection points: 2
#     Edge 32, Type (0, 1), BuildingBlock: EZIPEK_clean_linker_0, # of connection points: 2
#     Edge 33, Type (0, 1), BuildingBlock: EZIPEK_clean_linker_0, # of connection points: 2
#     Edge 34, Type (0, 1), BuildingBlock: EZIPEK_clean_linker_0, # of connection points: 2
#     Edge 35, Type (0, 1), BuildingBlock: EZIPEK_clean_linker_0, # of connection points: 2
# Relax obj value: 0.254
# Max RMSD: 0.253
# Mean RMSD: 0.197
data_MOF--net-zzz--node1-FUNLAD_clean_sbu_0--node2-ESEHIV_clean_linker_0--edge1-EZIPEK_clean_linker_0
_symmetry_space_group_name_H-M    P1
_symmetry_Int_Tables_number       1
_symmetry_cell_setting            triclinic
loop_
_symmetry_equiv_pos_as_xyz
'x, y, z'
_cell_length_a     32.430487
_cell_length_b     37.949563
_cell_length_c     12.854692
_cell_angle_alpha  84.722044
_cell_angle_beta   83.053883
_cell_angle_gamma 91.958482
loop_
_atom_site_label
_atom_site_type_symbol
_atom_site_fract_x
_atom_site_fract_y
_atom_site_fract_z
_atom_type_partial_charge
H0 H 0.90969 0.46185 0.40444 0.0
H1 H 0.83385 0.44925 0.15925 0.0
H2 H 0.78466 0.4979 0.43415 0.0
C3 C 0.87919 0.46229 0.37772 0.0
C4 C 0.8472 0.47946 0.43382 0.0
C5 C 0.87506 0.45289 0.27704 0.0
C6 C 0.83649 0.4554 0.23907 0.0
C7 C 0.80363 0.47149 0.29482 0.0
C8 C 0.80891 0.48356 0.39321 0.0
H9 H 0.94982 0.85233 0.05314 0.0
H10 H 0.99377 0.75061 0.99338 0.0
H11 H 0.945 0.76996 0.309 0.0
C12 C 0.95339 0.8249 0.08156 0.0
C13 C 0.9454 0.81459 0.18975 0.0
C14 C 0.9752 0.8032 0.01449 0.0
C15 C 0.97833 0.76774 0.04749 0.0
C16 C 0.96505 0.755 0.15253 0.0
C17 C 0.95057 0.77881 0.22578 0.0
H18 H 0.68022 0.00653 0.23095 0.0
H19 H 0.78736 0.02297 0.00034 0.0
H20 H 0.80115 0.98389 0.32062 0.0
C21 C 0.71378 0.0065 0.21168 0.0
C22 C 0.73814 0.99488 0.28899 0.0
C23 C 0.73134 0.01622 0.10873 0.0
C24 C 0.7743 0.01603 0.08171 0.0
C25 C 0.80002 0.0039 0.15641 0.0
C26 C 0.78186 0.99339 0.26182 0.0
H27 H 0.51473 0.60972 0.34691 0.0
H28 H 0.56435 0.71556 0.35914 0.0
H29 H 0.51691 0.68618 0.07846 0.0
C30 C 0.52125 0.6366 0.31033 0.0
C31 C 0.5144 0.64469 0.20586 0.0
C32 C 0.54203 0.66099 0.36284 0.0
C33 C 0.54956 0.69612 0.31737 0.0
C34 C 0.53839 0.70561 0.2161 0.0
C35 C 0.52268 0.67944 0.15908 0.0
H36 H 0.17649 0.55668 0.09854 0.0
H37 H 0.23703 0.54748 0.3776 0.0
H38 H 0.29181 0.50342 0.09977 0.0
C39 C 0.20314 0.54904 0.13759 0.0
C40 C 0.23346 0.52881 0.08714 0.0
C41 C 0.20281 0.5538 0.244 0.0
C42 C 0.23693 0.54373 0.29494 0.0
C43 C 0.27007 0.5272 0.24221 0.0
C44 C 0.26803 0.51884 0.1382 0.0
H45 H 0.061 0.1521 0.35292 0.0
H46 H 0.04069 0.24614 0.50855 0.0
H47 H 0.09921 0.2538 0.18633 0.0
C48 C 0.06275 0.18082 0.35012 0.0
C49 C 0.08097 0.20082 0.25856 0.0
C50 C 0.04862 0.197 0.4399 0.0
C51 C 0.05112 0.23375 0.43783 0.0
C52 C 0.06933 0.25444 0.34666 0.0
C53 C 0.08452 0.23801 0.25632 0.0
H54 H 0.38612 0.98919 0.31367 0.0
H55 H 0.2768 0.96907 0.53579 0.0
H56 H 0.26551 -0.00135 0.20795 0.0
C57 C 0.35243 0.98835 0.3305 0.0
C58 C 0.32856 0.99388 0.24767 0.0
C59 C 0.33413 0.97755 0.43229 0.0
C60 C 0.29088 0.97691 0.45574 0.0
C61 C 0.26574 0.987 0.37727 0.0
C62 C 0.28459 0.99384 0.27087 0.0
H63 H 0.49045 0.37449 0.3259 0.0
H64 H 0.47642 0.26962 0.22977 0.0
H65 H 0.52664 0.28503 0.51783 0.0
C66 C 0.49163 0.34602 0.34288 0.0
C67 C 0.5096 0.33258 0.43132 0.0
C68 C 0.48202 0.3239 0.26665 0.0
C69 C 0.48361 0.28702 0.28801 0.0
C70 C 0.49758 0.27299 0.3822 0.0
C71 C 0.51242 0.29587 0.45046 0.0
C72 C 0.03546 0.92961 0.82435 0.0
N73 N 0.98096 0.97224 0.57957 0.0
C74 C 1.00354 0.94625 0.53739 0.0
C75 C 0.9863 0.92293 0.47704 0.0
C76 C 0.94575 0.92687 0.4534 0.0
C77 C 0.92277 0.95444 0.49386 0.0
C78 C 0.94098 0.97672 0.55945 0.0
Zn79 Zn 0.01219 0.99497 0.68914 0.0
C80 C 0.95807 7e-05 0.89743 0.0
N81 N 0.08388 0.02472 0.92657 0.0
C82 C 0.1165 0.04711 0.88276 0.0
C83 C 0.06561 0.02763 0.02643 0.0
C84 C 0.07535 0.05707 0.07834 0.0
C85 C 0.10474 0.08297 0.02773 0.0
C86 C 0.12747 0.07666 0.93231 0.0
Zn87 Zn 0.04928 0.00286 0.82089 0.0
O88 O 0.02237 0.94382 0.74325 0.0
C89 C 0.10367 0.99717 0.61298 0.0
O90 O 0.05213 0.9491 0.88493 0.0
H91 H 0.04026 0.0095 0.06151 0.0
H92 H 0.03493 0.94216 0.55392 0.0
H93 H 0.13086 0.04492 0.80369 0.0
O94 O 0.06838 0.99727 0.57996 0.0
O95 O 0.10541 0.99781 0.71126 0.0
H96 H 0.92314 0.99702 0.59514 0.0
O97 O 0.04313 0.05585 0.757 0.0
O98 O 1.00306 0.04673 0.63476 0.0
O99 O 0.99354 0.00659 0.92523 0.0
O100 O 0.95559 0.99352 0.80256 0.0
C101 C 0.02357 0.06792 0.68251 0.0
H102 H 1.00509 0.90215 0.44677 0.0
H103 H 0.89146 0.95848 0.47551 0.0
H104 H 0.05764 0.06111 0.15297 0.0
H105 H 0.15047 0.09615 0.89165 0.0
C106 C 0.47082 0.96337 0.65954 0.0
N107 N 0.52356 0.06487 0.66628 0.0
C108 C 0.52105 0.06731 0.56085 0.0
C109 C 0.51576 0.09994 0.5059 0.0
C110 C 0.51297 0.13022 0.56018 0.0
C111 C 0.51538 0.12719 0.66882 0.0
C112 C 0.52078 0.09396 0.72083 0.0
Zn113 Zn 0.53094 0.01575 0.7392 0.0
C114 C 0.46812 0.99705 0.92445 0.0
N115 N 0.54039 0.90944 0.8692 0.0
C116 C 0.53871 0.87932 0.81958 0.0
C117 C 0.5446 0.90796 0.97375 0.0
C118 C 0.54708 0.87553 0.03257 0.0
C119 C 0.54431 0.84417 0.98411 0.0
C120 C 0.54033 0.84612 0.87621 0.0
Zn121 Zn 0.53477 0.95887 0.79236 0.0
O122 O 0.48222 0.99556 0.66311 0.0
C123 C 0.59852 0.97844 0.60823 0.0
O124 O 0.49046 0.93887 0.70283 0.0
H125 H 0.54537 0.93197 0.01263 0.0
H126 H 0.52313 0.04384 0.5191 0.0
H127 H 0.53544 0.88098 0.73655 0.0
O128 O 0.57832 0.00661 0.61199 0.0
O129 O 0.58625 0.95177 0.67395 0.0
H130 H 0.52276 0.09137 0.80456 0.0
O131 O 0.57867 0.97955 0.88203 0.0
O132 O 0.57891 0.03504 0.81669 0.0
O133 O 0.48344 0.96741 0.90681 0.0
O134 O 0.48481 0.02458 0.86941 0.0
C135 C 0.59389 0.01106 0.87447 0.0
H136 H 0.51395 0.10159 0.42201 0.0
H137 H 0.5133 0.15028 0.71252 0.0
H138 H 0.54993 0.87484 0.11584 0.0
H139 H 0.53809 0.82224 0.83674 0.0
C140 C 0.55613 0.44465 0.65934 0.0
N141 N 0.44424 0.49403 0.68654 0.0
C142 C 0.45736 0.49607 0.58108 0.0
C143 C 0.42928 0.49892 0.50762 0.0
C144 C 0.38696 0.50065 0.54171 0.0
C145 C 0.37358 0.4984 0.6506 0.0
C146 C 0.40303 0.49495 0.72246 0.0
Zn147 Zn 0.49338 0.4927 0.77592 0.0
C148 C 0.4967 0.43393 0.92919 0.0
N149 N 0.61102 0.49081 0.89273 0.0
C150 C 0.63028 0.45994 0.91194 0.0
C151 C 0.62238 0.52057 0.93617 0.0
C152 C 0.65309 0.51974 0.00399 0.0
C153 C 0.67296 0.48816 0.0262 0.0
C154 C 0.66157 0.45807 0.97836 0.0
Zn155 Zn 0.55952 0.4919 0.81043 0.0
O156 O 0.51989 0.45585 0.67749 0.0
C157 C 0.55696 0.55212 0.6644 0.0
O158 O 0.58569 0.45737 0.70295 0.0
H159 H 0.60689 0.54492 0.92048 0.0
H160 H 0.4901 0.49635 0.55258 0.0
H161 H 0.62054 0.4364 0.87833 0.0
O162 O 0.52029 0.53815 0.67487 0.0
O163 O 0.58441 0.53736 0.71364 0.0
H164 H 0.39311 0.49372 0.80619 0.0
O165 O 0.5311 0.52527 0.91741 0.0
O166 O 0.46693 0.52716 0.87995 0.0
O167 O 0.53358 0.44699 0.90576 0.0
O168 O 0.46806 0.44877 0.88401 0.0
C169 C 0.49462 0.53653 0.93483 0.0
H170 H 0.44066 0.50081 0.42438 0.0
H171 H 0.34093 0.49982 0.67931 0.0
H172 H 0.661 0.54343 0.03967 0.0
H173 H 0.67615 0.43321 0.99403 0.0
C174 C 0.08018 0.55466 0.57445 0.0
N175 N 0.05515 0.44457 0.63083 0.0
C176 C 0.05204 0.44985 0.52574 0.0
C177 C 0.0577 0.42221 0.46191 0.0
C178 C 0.06535 0.3885 0.50723 0.0
C179 C 0.06874 0.38362 0.61546 0.0
C180 C 0.06368 0.41227 0.67624 0.0
Zn181 Zn 0.04538 0.48698 0.71732 0.0
C182 C 0.11846 0.50635 0.82054 0.0
N183 N 0.02883 0.58101 0.86854 0.0
C184 C 1.00915 0.61045 0.83692 0.0
C185 C 0.03881 0.57549 0.96876 0.0
C186 C 0.02799 0.59941 0.04233 0.0
C187 C 1.00789 0.62995 0.01175 0.0
C188 C 0.99854 0.63555 0.9077 0.0
Zn189 Zn 0.03909 0.54001 0.77623 0.0
O190 O 0.07669 0.52097 0.58949 0.0
C191 C 0.96577 0.51868 0.67234 0.0
O192 O 0.06484 0.57324 0.64524 0.0
H193 H 0.05418 0.55186 0.99318 0.0
H194 H 0.04454 0.47548 0.49112 0.0
H195 H 1.00094 0.61408 0.75767 0.0
O196 O 0.98889 0.49299 0.65677 0.0
O197 O 0.97825 0.54385 0.72186 0.0
H198 H 0.06608 0.40866 0.75971 0.0
O199 O 0.01336 0.50728 0.90655 0.0
O200 O 0.01147 0.45498 0.84879 0.0
O201 O 0.09894 0.53475 0.82573 0.0
O202 O 0.10294 0.48049 0.77961 0.0
C203 C 1.00149 0.47497 0.92107 0.0
H204 H 0.05503 0.4268 0.37859 0.0
H205 H 0.07484 0.35784 0.65249 0.0
H206 H 0.03529 0.59421 0.12222 0.0
H207 H 0.9827 0.65887 0.88215 0.0
C208 C 0.19725 0.95788 0.45995 0.0
C209 C 0.21994 0.98908 0.41205 0.0
C210 C 0.1609 0.02425 0.47416 0.0
C211 C 0.14217 0.994 0.538 0.0
N212 N 0.14215 0.9315 0.59203 0.0
N213 N 0.22421 0.05281 0.3787 0.0
C214 C 0.16013 0.96058 0.53037 0.0
C215 C 0.20171 0.0225 0.4191 0.0
N216 N 0.21132 0.92561 0.43697 0.0
N217 N 0.13958 0.05459 0.4654 0.0
H218 H 0.25371 0.05275 0.33638 0.0
H219 H 0.21476 0.07806 0.3929 0.0
H220 H 0.10961 0.05655 0.50354 0.0
H221 H 0.14983 0.07652 0.41272 0.0
H222 H 0.19474 0.90172 0.46151 0.0
H223 H 0.238 0.92309 0.38438 0.0
H224 H 0.15613 0.90727 0.5996 0.0
H225 H 0.11405 0.93211 0.64075 0.0
C226 C 0.53845 0.21844 0.39434 0.0
C227 C 0.4995 0.23429 0.40919 0.0
C228 C 0.4679 0.17923 0.50517 0.0
C229 C 0.50798 0.16526 0.5029 0.0
N230 N 0.58207 0.17156 0.45119 0.0
N231 N 0.42728 0.23126 0.48214 0.0
C232 C 0.54344 0.18471 0.44807 0.0
C233 C 0.46407 0.21494 0.46448 0.0
N234 N 0.5705 0.23573 0.3283 0.0
N235 N 0.43355 0.15815 0.54507 0.0
H236 H 0.42293 0.25697 0.4504 0.0
H237 H 0.40173 0.22018 0.53285 0.0
H238 H 0.43534 0.13202 0.57686 0.0
H239 H 0.4032 0.16546 0.53925 0.0
H240 H 0.59854 0.22437 0.30577 0.0
H241 H 0.56767 0.26058 0.28845 0.0
H242 H 0.60961 0.18609 0.42325 0.0
H243 H 0.58691 0.14669 0.48831 0.0
C244 C 0.33629 0.54282 0.31093 0.0
C245 C 0.3047 0.51689 0.30295 0.0
C246 C 0.32991 0.47837 0.44381 0.0
C247 C 0.35768 0.50633 0.46141 0.0
N248 N 0.38396 0.56697 0.42025 0.0
N249 N 0.26873 0.46097 0.36586 0.0
C250 C 0.3602 0.53901 0.39668 0.0
C251 C 0.30094 0.48477 0.37008 0.0
N252 N 0.3433 0.57114 0.23626 0.0
N253 N 0.33204 0.44544 0.49524 0.0
H254 H 0.24806 0.46408 0.30985 0.0
H255 H 0.2611 0.43924 0.42129 0.0
H256 H 0.35273 0.43977 0.54998 0.0
H257 H 0.31574 0.42309 0.47754 0.0
H258 H 0.36854 0.5892 0.23125 0.0
H259 H 0.32603 0.57462 0.17294 0.0
H260 H 0.38389 0.59245 0.38256 0.0
H261 H 0.40105 0.56559 0.48411 0.0
C262 C 0.03736 0.31288 0.3487 0.0
C263 C 0.07348 0.29319 0.35227 0.0
C264 C 0.10796 0.34197 0.42544 0.0
C265 C 0.06916 0.35804 0.4423 0.0
N266 N 0.99584 0.35831 0.42335 0.0
N267 N 0.14379 0.28828 0.39251 0.0
C268 C 0.03365 0.34382 0.40287 0.0
C269 C 0.10932 0.30784 0.38831 0.0
N270 N 1.00639 0.30134 0.29522 0.0
N271 N 0.1434 0.35951 0.44433 0.0
H272 H 0.14631 0.26377 0.36218 0.0
H273 H 0.16896 0.29551 0.4304 0.0
H274 H 0.14332 0.38472 0.47065 0.0
H275 H 0.17311 0.35063 0.42473 0.0
H276 H 0.9807 0.31599 0.28143 0.0
H277 H 1.00869 0.27853 0.25558 0.0
H278 H 0.96814 0.34682 0.40628 0.0
H279 H 0.99138 0.38048 0.46487 0.0
C280 C 0.86113 0.9687 0.08909 0.0
C281 C 0.84527 0.00152 0.1166 0.0
C282 C 0.90468 0.03334 0.0049 0.0
C283 C 0.92013 0.00054 0.97624 0.0
N284 N 0.92049 0.93734 0.01723 0.0
N285 N 0.85711 0.06404 0.1231 0.0
C286 C 0.90064 0.96828 0.02657 0.0
C287 C 0.86899 0.0335 0.08186 0.0
N288 N 0.83759 0.93805 0.11814 0.0
N289 N 0.92323 0.06436 0.95579 0.0
H290 H 0.83136 0.06457 0.18011 0.0
H291 H 0.87464 0.08786 0.10878 0.0
H292 H 0.94983 0.06529 0.90094 0.0
H293 H 0.91091 0.08906 0.96405 0.0
H294 H 0.8451 0.91394 0.08976 0.0
H295 H 0.80918 0.93712 0.1661 0.0
H296 H 0.9099 0.91344 0.06007 0.0
H297 H 0.94991 0.93638 0.97501 0.0
C298 C 0.57968 0.75693 0.1103 0.0
C299 C 0.5417 0.74295 0.16816 0.0
C300 C 0.50652 0.79657 0.1127 0.0
C301 C 0.54366 0.80936 0.04815 0.0
N302 N 0.61533 0.80241 0.98173 0.0
N303 N 0.46861 0.74783 0.22357 0.0
C304 C 0.58029 0.78977 0.04631 0.0
C305 C 0.5051 0.76251 0.16985 0.0
N306 N 0.61511 0.73876 0.11743 0.0
N307 N 0.47266 0.8172 0.11979 0.0
H308 H 0.46685 0.72401 0.27172 0.0
H309 H 0.43963 0.7582 0.21749 0.0
H310 H 0.47137 0.84117 0.07392 0.0
H311 H 0.44643 0.8117 0.17472 0.0
H312 H 0.64472 0.74853 0.08541 0.0
H313 H 0.61538 0.71431 0.16159 0.0
H314 H 0.64191 0.78816 0.96752 0.0
H315 H 0.61739 0.82703 0.93761 0.0
C316 C 0.77218 0.50604 0.15069 0.0
C317 C 0.76693 0.48025 0.23915 0.0
C318 C 0.69703 0.46502 0.1986 0.0
C319 C 0.70502 0.4864 0.10101 0.0
N320 N 0.75331 0.5239 0.97757 0.0
N321 N 0.72572 0.4326 0.34274 0.0
C322 C 0.74339 0.50624 0.07544 0.0
C323 C 0.72959 0.45915 0.26232 0.0
N324 N 0.80452 0.53064 0.13957 0.0
N325 N 0.65787 0.45137 0.23284 0.0
H326 H 0.74833 0.42835 0.39322 0.0
H327 H 0.70144 0.4134 0.35486 0.0
H328 H 0.63284 0.45541 0.18988 0.0
H329 H 0.64983 0.43938 0.30894 0.0
H330 H 0.80821 0.55194 0.08156 0.0
H331 H 0.82497 0.5319 0.19586 0.0
H332 H 0.78264 0.53565 0.9509 0.0
H333 H 0.73353 0.52404 0.91933 0.0
C334 C 0.01315 0.70753 0.1781 0.0
C335 C 0.97143 0.7171 0.18106 0.0
C336 C 0.95284 0.6603 0.11979 0.0
C337 C 0.99571 0.65593 0.08836 0.0
N338 N 0.06764 0.67414 0.09317 0.0
N339 N 0.89989 0.70112 0.17352 0.0
C340 C 0.02632 0.67852 0.12207 0.0
C341 C 0.94053 0.69235 0.16106 0.0
N342 N 0.04026 0.72806 0.22238 0.0
N343 N 0.92429 0.63408 0.10839 0.0
H344 H 0.89074 0.72412 0.20701 0.0
H345 H 0.87585 0.68644 0.14875 0.0
H346 H 0.93288 0.61038 0.0784 0.0
H347 H 0.89285 0.63446 0.13652 0.0
H348 H 0.07084 0.72168 0.22939 0.0
H349 H 0.03036 0.74994 0.26082 0.0
H350 H 0.09109 0.69206 0.10598 0.0
H351 H 0.07864 0.65364 0.05038 0.0
C352 C 0.99733 0.15611 0.55317 0.0
C353 C 0.03665 0.17384 0.53788 0.0
C354 C 0.06649 0.12519 0.6343 0.0
C355 C 0.02709 0.10624 0.64719 0.0
N356 N 0.95253 0.10921 0.65372 0.0
N357 N 0.10331 0.18245 0.59698 0.0
C358 C 0.99143 0.12359 0.61834 0.0
C359 C 0.06905 0.16103 0.59224 0.0
N360 N 0.96728 0.16986 0.4983 0.0
N361 N 0.10222 0.10853 0.65051 0.0
H362 H 0.10597 0.20869 0.56374 0.0
H363 H 0.12656 0.1754 0.64322 0.0
H364 H 0.10361 0.0815 0.6701 0.0
H365 H 0.13172 0.12086 0.63179 0.0
H366 H 0.93824 0.15741 0.49683 0.0
H367 H 0.93824 0.15741 0.49683 0.0
H368 H 0.92543 0.12224 0.64241 0.0
H369 H 0.94754 0.08598 0.70452 0.0
C370 C 0.36472 0.98323 0.60118 0.0
C371 C 0.36179 0.96529 0.51054 0.0
C372 C 0.4277 0.93734 0.53198 0.0
C373 C 0.43065 0.95607 0.62084 0.0
N374 N 0.39272 0.98106 0.76654 0.0
N375 N 0.38165 0.91537 0.41503 0.0
C376 C 0.39596 0.97384 0.66427 0.0
C377 C 0.39033 0.93875 0.48483 0.0
N378 N 0.34013 0.01073 0.62375 0.0
N379 N 0.46086 0.91996 0.48958 0.0
H380 H 0.35352 0.91514 0.38329 0.0
H381 H 0.40009 0.89417 0.39808 0.0
H382 H 0.4884 0.91812 0.52365 0.0
H383 H 0.46174 0.90918 0.4177 0.0
H384 H 0.34463 0.02648 0.68413 0.0
H385 H 0.31791 0.01993 0.57714 0.0
H386 H 0.36668 0.9921 0.80439 0.0
H387 H 0.4134 0.97073 0.81584 0.0
C388 C 0.52142 0.3557 0.60572 0.0
C389 C 0.53017 0.35765 0.49437 0.0
C390 C 0.5666 0.41529 0.49327 0.0
C391 C 0.55967 0.41243 0.60409 0.0
N392 N 0.54293 0.37505 0.76621 0.0
N393 N 0.57525 0.38269 0.34027 0.0
C394 C 0.54176 0.38063 0.66029 0.0
C395 C 0.55744 0.38537 0.44062 0.0
N396 N 0.49154 0.33228 0.65884 0.0
N397 N 0.57971 0.4469 0.43809 0.0
H398 H 0.57302 0.35931 0.30435 0.0
H399 H 0.59585 0.40192 0.29832 0.0
H400 H 0.5886 0.46891 0.47468 0.0
H401 H 0.57876 0.45152 0.3572 0.0
H402 H 0.48163 0.33237 0.73903 0.0
H403 H 0.47348 0.31538 0.62138 0.0
H404 H 0.53243 0.35137 0.81059 0.0
H405 H 0.55891 0.39272 0.80635 0.0
C406 C 0.12615 0.54527 0.31156 0.0
C407 C 0.16483 0.56473 0.3073 0.0
C408 C 0.13878 0.59168 0.46662 0.0
C409 C 0.10166 0.57048 0.47243 0.0
N410 N 0.05277 0.54281 0.37625 0.0
N411 N 0.20102 0.61611 0.35599 0.0
C412 C 0.09271 0.55362 0.38425 0.0
C413 C 0.1686 0.59156 0.37614 0.0
N414 N 0.12223 0.51619 0.25752 0.0
N415 N 0.14693 0.60975 0.54935 0.0
H416 H 0.2228 0.61661 0.28896 0.0
H417 H 0.20374 0.63771 0.39959 0.0
H418 H 0.12505 0.61179 0.61455 0.0
H419 H 0.17593 0.62172 0.55443 0.0
H420 H 0.09518 0.49995 0.26725 0.0
H421 H 0.14682 0.50543 0.21338 0.0
H422 H 0.04417 0.53201 0.30986 0.0
H423 H 0.02816 0.54817 0.43208 0.0
C424 C 0.04152 0.83415 0.93714 0.0
C425 C 1.00156 0.82086 0.92158 0.0
C426 C 0.98742 0.8757 0.82636 0.0
C427 C 0.02594 0.89109 0.84983 0.0
N428 N 0.09554 0.88073 0.89064 0.0
N429 N 0.94831 0.82122 0.80967 0.0
C430 C 0.05515 0.86892 0.89311 0.0
C431 C 0.97974 0.8388 0.84764 0.0
N432 N 0.06481 0.81453 0.00038 0.0
N433 N 0.95608 0.89601 0.79598 0.0
H434 H 0.94163 0.79423 0.8317 0.0
H435 H 0.93243 0.83242 0.74986 0.0
H436 H 0.95626 0.92342 0.7944 0.0
H437 H 0.92694 0.88537 0.786 0.0
H438 H 0.09154 0.82453 0.02689 0.0
H439 H 0.05638 0.78832 0.02853 0.0
H440 H 0.11877 0.86463 0.91406 0.0
H441 H 0.10666 0.9056 0.85502 0.0
C442 C 0.67589 0.0488 0.02797 0.0
C443 C 0.70292 0.02024 0.02798 0.0
C444 C 0.66515 0.99308 0.90195 0.0
C445 C 0.63318 0.01744 0.91865 0.0
N446 N 0.60686 0.06782 0.0035 0.0
N447 N 0.7195 0.96198 0.97687 0.0
C448 C 0.63842 0.04564 0.98177 0.0
C449 C 0.69697 0.99171 0.96716 0.0
N450 N 0.68588 0.07848 0.07386 0.0
N451 N 0.66563 0.97143 0.82276 0.0
H452 H 0.74307 0.95899 0.02481 0.0
H453 H 0.71221 0.93878 0.94413 0.0
H454 H 0.64338 0.97181 0.77136 0.0
H455 H 0.69072 0.95611 0.80068 0.0
H456 H 0.66927 0.10146 0.06899 0.0
H457 H 0.71323 0.08111 0.10834 0.0
H458 H 0.60747 0.08643 0.05804 0.0
H459 H 0.5785 0.06581 0.97359 0.0
C460 C 0.52677 0.5845 0.14647 0.0
C461 C 0.50341 0.61543 0.14346 0.0
C462 C 0.46466 0.59167 0.01106 0.0
C463 C 0.48701 0.56009 0.02039 0.0
N464 N 0.52332 0.52162 0.13499 0.0
N465 N 0.44098 0.64279 0.09773 0.0
C466 C 0.51209 0.5548 0.10249 0.0
C467 C 0.46929 0.6173 0.0837 0.0
N468 N 0.56457 0.58406 0.18325 0.0
N469 N 0.4408 0.59833 0.93164 0.0
H470 H 0.44266 0.66106 0.1531 0.0
H471 H 0.41364 0.64326 0.06262 0.0
H472 H 0.43499 0.58029 0.87851 0.0
H473 H 0.42848 0.62294 0.91523 0.0
H474 H 0.58337 0.56232 0.17937 0.0
H475 H 0.57945 0.60666 0.20408 0.0
H476 H 0.54022 0.5167 0.19852 0.0
H477 H 0.51161 0.49903 0.10577 0.0
C478 C 0.9349 0.42721 0.16543 0.0
C479 C 0.91224 0.45651 0.19762 0.0
C480 C 0.94138 0.49224 0.04012 0.0
C481 C 0.96887 0.46528 0.01185 0.0
N482 N 0.9959 0.40819 0.05908 0.0
N483 N 0.90736 0.5203 0.18332 0.0
C484 C 0.96689 0.4328 0.07758 0.0
C485 C 0.92041 0.49015 0.1416 0.0
N486 N 0.92585 0.3945 0.21818 0.0
N487 N 0.93297 0.51908 0.96863 0.0
H488 H 0.89179 0.52051 0.25877 0.0
H489 H 0.91616 0.54552 0.14634 0.0
H490 H 0.9438 0.52007 0.88934 0.0
H491 H 0.91045 0.53742 0.98563 0.0
H492 H 0.93868 0.37151 0.19274 0.0
H493 H 0.90377 0.39043 0.28482 0.0
H494 H 0.99795 0.38554 0.11017 0.0
H495 H 0.01991 0.41183 0.9969 0.0
C496 C 0.13165 0.15956 0.18334 0.0
C497 C 0.09707 0.18064 0.16971 0.0
C498 C 0.07732 0.14368 0.03568 0.0
C499 C 0.10644 0.11872 0.06588 0.0
N500 N 0.16316 0.10296 0.16291 0.0
N501 N 0.03786 0.19458 0.08043 0.0
C502 C 0.13476 0.12698 0.13676 0.0
C503 C 0.07079 0.17376 0.09294 0.0
N504 N 0.1606 0.17057 0.24364 0.0
N505 N 0.0557 0.13835 0.95302 0.0
H506 H 0.03341 0.21759 0.11816 0.0
H507 H 0.01415 0.18846 0.03635 0.0
H508 H 0.05901 0.11621 0.9108 0.0
H509 H 0.03706 0.15713 0.92056 0.0
H510 H 0.18811 0.15792 0.25244 0.0
H511 H 0.15846 0.19446 0.2779 0.0
H512 H 0.18198 0.10557 0.22205 0.0
H513 H 0.16671 0.07933 0.12791 0.0
C514 C 0.3654 0.02569 0.0772 0.0
C515 C 0.35245 0.99377 0.14031 0.0
C516 C 0.41651 0.96744 0.07336 0.0
C517 C 0.42861 0.9978 0.00079 0.0
N518 N 0.40347 0.05135 0.91304 0.0
N519 N 0.35847 0.93075 0.16425 0.0
C520 C 0.3999 0.02581 0.99605 0.0
C521 C 0.3751 0.96327 0.12331 0.0
N522 N 0.3455 0.05597 0.09569 0.0
N523 N 0.44504 0.94422 0.10365 0.0
H524 H 0.32814 0.92746 0.20291 0.0
H525 H 0.37337 0.9074 0.15019 0.0
H526 H 0.47696 0.94948 0.08555 0.0
H527 H 0.43732 0.92293 0.16085 0.0
H528 H 0.35654 0.08081 0.05967 0.0
H529 H 0.31928 0.05616 0.15136 0.0
H530 H 0.38137 0.07039 0.90481 0.0
H531 H 0.42452 0.05093 0.84557 0.0
C532 C 0.52202 0.35558 0.11103 0.0
C533 C 0.48301 0.34117 0.15777 0.0
C534 C 0.45128 0.38086 0.03154 0.0
C535 C 0.48961 0.40177 0.00869 0.0
N536 N 0.55593 0.41266 0.07577 0.0
N537 N 0.40867 0.34125 0.16541 0.0
C538 C 0.52393 0.39007 0.06078 0.0
C539 C 0.44687 0.35406 0.11874 0.0
N540 N 0.55734 0.33833 0.1254 0.0
N541 N 0.41988 0.38509 0.97043 0.0
H542 H 0.40517 0.32068 0.22608 0.0
H543 H 0.38114 0.35232 0.14713 0.0
H544 H 0.42245 0.40142 0.90036 0.0
H545 H 0.39297 0.36866 0.98253 0.0
H546 H 0.58656 0.34819 0.08934 0.0
H547 H 0.55642 0.313 0.165 0.0
H548 H 0.58083 0.40424 0.1145 0.0
H549 H 0.55393 0.44011 0.06829 0.0
C550 C 0.19731 0.48169 0.00804 0.0
C551 C 0.22236 0.51345 0.99134 0.0
C552 C 0.19044 0.53027 0.83192 0.0
C553 C 0.1584 0.50378 0.86569 0.0
N554 N 0.13115 0.45356 0.98727 0.0
N555 N 0.24768 0.5658 0.88082 0.0
C556 C 0.16234 0.47852 0.95223 0.0
C557 C 0.22116 0.53658 0.89916 0.0
N558 N 0.20591 0.45545 0.0811 0.0
N559 N 0.19093 0.54944 0.73644 0.0
H560 H 0.2712 0.56972 0.92795 0.0
H561 H 0.24569 0.58624 0.82208 0.0
H562 H 0.16896 0.54474 0.68566 0.0
H563 H 0.21483 0.56759 0.70375 0.0
H564 H 0.19072 0.43051 0.0919 0.0
H565 H 0.23142 0.45745 0.12266 0.0
H566 H 0.13005 0.43754 0.05791 0.0
H567 H 0.10467 0.45031 0.95007 0.0
C568 C 0.90733 0.84407 0.34376 0.0
C569 C 0.94059 0.8438 0.26079 0.0
C570 C 0.95746 0.90585 0.2793 0.0
C571 C 0.93184 0.90364 0.37629 0.0
N572 N 0.8828 0.86946 0.50571 0.0
N573 N 1.00625 0.87229 0.17923 0.0
C574 C 0.90637 0.87249 0.40978 0.0
C575 C 0.96819 0.87423 0.2364 0.0
N576 N 0.87658 0.81803 0.35838 0.0
N577 N 0.97471 0.93776 0.23425 0.0
H578 H 0.01795 0.84829 0.15867 0.0
H579 H 0.02805 0.89358 0.16514 0.0
H580 H 0.96749 0.96136 0.26681 0.0
H581 H 0.99237 0.94066 0.16027 0.0
H582 H 0.85005 0.8187 0.41258 0.0
H583 H 0.8759 0.79753 0.3098 0.0
H584 H 0.86717 0.8459 0.53905 0.0
H585 H 0.88071 0.89024 0.55361 0.0
C586 C 0.70544 0.01155 0.4626 0.0
C587 C 0.71448 0.9846 0.39549 0.0
C588 C 0.64957 0.95148 0.4734 0.0
C589 C 0.63966 0.97905 0.53893 0.0
N590 N 0.66505 0.03019 0.6166 0.0
N591 N 0.70198 0.92503 0.35602 0.0
C592 C 0.66976 0.00747 0.53997 0.0
C593 C 0.6889 0.95304 0.40875 0.0
N594 N 0.72977 0.04214 0.44794 0.0
N595 N 0.62041 0.92518 0.46689 0.0
H596 H 0.73048 0.92615 0.308 0.0
H597 H 0.6869 0.90007 0.36751 0.0
H598 H 0.59084 0.92376 0.50946 0.0
H599 H 0.6241 0.90638 0.41281 0.0
H600 H 0.72166 0.06507 0.48272 0.0
H601 H 0.75737 0.04501 0.39636 0.0
H602 H 0.68811 0.04863 0.62852 0.0
H603 H 0.63994 0.02845 0.67533 0.0
C604 C 0.59309 0.62394 0.44283 0.0
C605 C 0.55932 0.64638 0.45855 0.0
C606 C 0.53912 0.61527 0.63279 0.0
C607 C 0.56507 0.58743 0.60398 0.0
N608 N 0.61914 0.56576 0.48365 0.0
N609 N 0.50248 0.66642 0.57175 0.0
C610 C 0.59375 0.59228 0.51095 0.0
C611 C 0.53369 0.64353 0.556 0.0
N612 N 0.62309 0.63234 0.35941 0.0
N613 N 0.51986 0.61446 0.73348 0.0
H614 H 0.49926 0.68806 0.51748 0.0
H615 H 0.4793 0.66324 0.63585 0.0
H616 H 0.52478 0.59455 0.79159 0.0
H617 H 0.50288 0.63514 0.76168 0.0
H618 H 0.65012 0.6185 0.34653 0.0
H619 H 0.62228 0.65536 0.30863 0.0
H620 H 0.63719 0.56616 0.41079 0.0
H621 H 0.62048 0.54231 0.53189 0.0
C622 C 0.86538 0.47584 0.61598 0.0
C623 C 0.85873 0.4975 0.52488 0.0
C624 C 0.91276 0.54068 0.55633 0.0
C625 C 0.92352 0.51657 0.6387 0.0
N626 N 0.90386 0.46616 0.76583 0.0
N627 N 0.86385 0.5555 0.4314 0.0
C628 C 0.89727 0.48597 0.67561 0.0
C629 C 0.87804 0.5319 0.50396 0.0
N630 N 0.84314 0.4443 0.63952 0.0
N631 N 0.93762 0.57032 0.5225 0.0
H632 H 0.83851 0.54928 0.39264 0.0
H633 H 0.87442 0.58191 0.41684 0.0
H634 H 0.96279 0.57784 0.56011 0.0
H635 H 0.93461 0.58664 0.45446 0.0
H636 H 0.84901 0.42475 0.69734 0.0
H637 H 0.81864 0.43759 0.59815 0.0
H638 H 0.88419 0.44523 0.80221 0.0
H639 H 0.92807 0.47205 0.80848 0.0
loop_
_geom_bond_atom_site_label_1
_geom_bond_atom_site_label_2
_geom_bond_distance
_geom_bond_site_symmetry_2
_ccdc_geom_bond_type
H0 C3 0.931 . S
H1 C6 0.928 . S
H2 C8 0.930 . S
C3 H0 0.931 . S
C3 C4 1.413 . S
C3 C5 1.360 . S
C4 C3 1.413 . S
C4 C8 1.429 . S
C5 C3 1.360 . S
C5 C6 1.372 . S
C6 H1 0.928 . S
C6 C5 1.372 . S
C6 C7 1.404 . S
C7 C6 1.404 . S
C7 C8 1.391 . S
C8 H2 0.930 . S
C8 C4 1.429 . S
C8 C7 1.391 . S
H9 C12 0.931 . S
H10 C15 0.928 . S
H11 C17 0.930 . S
C12 H9 0.931 . S
C12 C13 1.413 . S
C12 C14 1.360 1_554 S
C13 C12 1.413 . S
C13 C17 1.429 . S
C14 C12 1.360 1_556 S
C14 C15 1.372 . S
C15 H10 0.928 . S
C15 C14 1.372 . S
C15 C16 1.404 . S
C16 C15 1.404 . S
C16 C17 1.391 1_556 S
C17 H11 0.930 . S
C17 C13 1.429 . S
C17 C16 1.391 1_554 S
H18 C21 0.931 . S
H19 C24 0.928 1_556 S
H20 C26 0.929 . S
C21 H18 0.931 . S
C21 C22 1.413 . S
C21 C23 1.360 . S
C22 C21 1.413 . S
C22 C26 1.430 1_565 S
C23 C21 1.360 . S
C23 C24 1.374 . S
C24 H19 0.928 1_554 S
C24 C23 1.374 . S
C24 C25 1.405 . S
C25 C24 1.405 . S
C25 C26 1.389 1_565 S
C26 H20 0.929 . S
C26 C22 1.430 1_545 S
C26 C25 1.389 1_545 S
H27 C30 0.931 . S
H28 C33 0.928 . S
H29 C35 0.930 1_556 S
C30 H27 0.931 . S
C30 C31 1.413 . S
C30 C32 1.360 . S
C31 C30 1.413 . S
C31 C35 1.429 . S
C32 C30 1.360 . S
C32 C33 1.372 . S
C33 H28 0.928 . S
C33 C32 1.372 . S
C33 C34 1.404 . S
C34 C33 1.404 . S
C34 C35 1.391 . S
C35 H29 0.930 1_554 S
C35 C31 1.429 . S
C35 C34 1.391 . S
H36 C39 0.931 . S
H37 C42 0.928 . S
H38 C44 0.930 . S
C39 H36 0.931 . S
C39 C40 1.413 . S
C39 C41 1.360 . S
C40 C39 1.413 . S
C40 C44 1.429 . S
C41 C39 1.360 . S
C41 C42 1.372 . S
C42 H37 0.928 . S
C42 C41 1.372 . S
C42 C43 1.404 . S
C43 C42 1.404 . S
C43 C44 1.391 . S
C44 H38 0.930 . S
C44 C40 1.429 . S
C44 C43 1.391 . S
H45 C48 0.931 . S
H46 C51 0.928 . S
H47 C53 0.930 . S
C48 H45 0.931 . S
C48 C49 1.413 . S
C48 C50 1.360 . S
C49 C48 1.413 . S
C49 C53 1.429 . S
C50 C48 1.360 . S
C50 C51 1.372 . S
C51 H46 0.928 . S
C51 C50 1.372 . S
C51 C52 1.404 . S
C52 C51 1.404 . S
C52 C53 1.391 . S
C53 H47 0.930 . S
C53 C49 1.429 . S
C53 C52 1.391 . S
H54 C57 0.930 . S
H55 C60 0.928 . S
H56 C62 0.930 . S
C57 H54 0.930 . S
C57 C58 1.414 . S
C57 C59 1.360 . S
C58 C57 1.414 . S
C58 C62 1.428 1_565 S
C59 C57 1.360 . S
C59 C60 1.371 . S
C60 H55 0.928 . S
C60 C59 1.371 . S
C60 C61 1.404 . S
C61 C60 1.404 . S
C61 C62 1.392 1_565 S
C62 H56 0.930 . S
C62 C58 1.428 1_545 S
C62 C61 1.392 1_545 S
H63 C66 0.931 . S
H64 C69 0.928 . S
H65 C71 0.930 . S
C66 H63 0.931 . S
C66 C67 1.413 . S
C66 C68 1.360 . S
C67 C66 1.413 . S
C67 C71 1.429 . S
C68 C66 1.360 . S
C68 C69 1.372 . S
C69 H64 0.928 . S
C69 C68 1.372 . S
C69 C70 1.404 . S
C70 C69 1.404 . S
C70 C71 1.391 . S
C71 H65 0.930 . S
C71 C67 1.429 . S
C71 C70 1.391 . S
C72 O88 1.251 1_455 S
C72 O90 1.254 . S
N73 C74 1.333 . S
N73 C78 1.307 . S
N73 Zn79 2.020 1_655 S
C74 N73 1.333 . S
C74 C75 1.379 . S
C74 H92 0.964 . S
C75 C74 1.379 . S
C75 C76 1.390 . S
C75 H102 0.949 . S
C76 C75 1.390 . S
C76 C77 1.357 . S
C77 C76 1.357 . S
C77 C78 1.370 . S
C77 H103 0.950 . S
C78 N73 1.307 . S
C78 C77 1.370 . S
C78 H96 0.948 1_565 S
Zn79 N73 2.020 1_455 S
Zn79 O88 2.039 1_455 S
Zn79 O94 2.034 . S
Zn79 O98 2.025 1_565 S
Zn79 O100 2.024 1_465 S
C80 O99 1.246 . S
C80 O100 1.249 . S
N81 C82 1.307 . S
N81 C83 1.333 . S
N81 Zn87 2.020 1_554 S
C82 N81 1.307 . S
C82 C86 1.370 . S
C82 H93 0.948 1_545 S
C83 N81 1.333 . S
C83 C84 1.379 . S
C83 H91 0.952 1_554 S
C84 C83 1.379 . S
C84 C85 1.390 . S
C84 H104 0.949 . S
C85 C84 1.390 . S
C85 C86 1.357 . S
C86 C82 1.370 . S
C86 C85 1.357 . S
C86 H105 0.950 . S
Zn87 N81 2.020 1_556 S
Zn87 O90 2.025 1_545 S
Zn87 O95 2.024 1_545 S
Zn87 O97 2.039 . S
Zn87 O99 2.034 1_455 S
O88 C72 1.251 1_655 S
O88 Zn79 2.039 1_655 S
C89 O94 1.246 . S
C89 O95 1.249 . S
O90 C72 1.254 . S
O90 Zn87 2.025 1_565 S
H91 C83 0.952 1_556 S
H92 C74 0.964 . S
H93 C82 0.948 1_565 S
O94 Zn79 2.034 . S
O94 C89 1.246 . S
O95 Zn87 2.024 1_565 S
O95 C89 1.249 . S
H96 C78 0.948 1_545 S
O97 Zn87 2.039 . S
O97 C101 1.251 . S
O98 Zn79 2.025 1_545 S
O98 C101 1.254 . S
O99 C80 1.246 . S
O99 Zn87 2.034 1_655 S
O100 Zn79 2.024 1_645 S
O100 C80 1.249 . S
C101 O97 1.251 . S
C101 O98 1.254 . S
H102 C75 0.949 . S
H103 C77 0.950 . S
H104 C84 0.949 . S
H105 C86 0.950 . S
C106 O122 1.251 1_565 S
C106 O124 1.254 . S
N107 C108 1.333 . S
N107 C112 1.307 . S
N107 Zn113 2.020 . S
C108 N107 1.333 . S
C108 C109 1.379 . S
C108 H126 0.952 . S
C109 C108 1.379 . S
C109 C110 1.390 . S
C109 H136 0.949 . S
C110 C109 1.390 . S
C110 C111 1.357 . S
C111 C110 1.357 . S
C111 C112 1.370 . S
C111 H137 0.950 . S
C112 N107 1.307 . S
C112 C111 1.370 . S
C112 H130 0.948 . S
Zn113 N107 2.020 . S
Zn113 O122 2.039 . S
Zn113 O128 2.034 . S
Zn113 O132 2.025 . S
Zn113 O134 2.024 . S
C114 O133 1.246 1_545 S
C114 O134 1.249 . S
N115 C116 1.307 . S
N115 C117 1.333 . S
N115 Zn121 2.020 . S
C116 N115 1.307 . S
C116 C120 1.370 . S
C116 H127 0.948 . S
C117 N115 1.333 . S
C117 C118 1.379 . S
C117 H125 0.952 . S
C118 C117 1.379 . S
C118 C119 1.390 . S
C118 H138 0.949 1_556 S
C119 C118 1.390 . S
C119 C120 1.357 . S
C120 C116 1.370 . S
C120 C119 1.357 . S
C120 H139 0.950 . S
Zn121 N115 2.020 . S
Zn121 O124 2.025 . S
Zn121 O129 2.024 . S
Zn121 O131 2.039 . S
Zn121 O133 2.034 . S
O122 C106 1.251 1_545 S
O122 Zn113 2.039 . S
C123 O128 1.246 1_565 S
C123 O129 1.249 . S
O124 C106 1.254 . S
O124 Zn121 2.025 . S
H125 C117 0.952 . S
H126 C108 0.952 . S
H127 C116 0.948 . S
O128 Zn113 2.034 . S
O128 C123 1.246 1_545 S
O129 Zn121 2.024 . S
O129 C123 1.249 . S
H130 C112 0.948 . S
O131 Zn121 2.039 . S
O131 C135 1.251 1_565 S
O132 Zn113 2.025 . S
O132 C135 1.254 . S
O133 C114 1.246 1_565 S
O133 Zn121 2.034 . S
O134 Zn113 2.024 . S
O134 C114 1.249 . S
C135 O131 1.251 1_545 S
C135 O132 1.254 . S
H136 C109 0.949 . S
H137 C111 0.950 . S
H138 C118 0.949 1_554 S
H139 C120 0.950 . S
C140 O156 1.251 . S
C140 O158 1.254 . S
N141 C142 1.333 . S
N141 C146 1.307 . S
N141 Zn147 2.020 . S
C142 N141 1.333 . S
C142 C143 1.379 . S
C142 H160 0.952 . S
C143 C142 1.379 . S
C143 C144 1.390 . S
C143 H170 0.949 . S
C144 C143 1.390 . S
C144 C145 1.357 . S
C145 C144 1.357 . S
C145 C146 1.370 . S
C145 H171 0.950 . S
C146 N141 1.307 . S
C146 C145 1.370 . S
C146 H164 0.948 . S
Zn147 N141 2.020 . S
Zn147 O156 2.039 . S
Zn147 O162 2.034 . S
Zn147 O166 2.025 . S
Zn147 O168 2.024 . S
C148 O167 1.246 . S
C148 O168 1.249 . S
N149 C150 1.307 . S
N149 C151 1.333 . S
N149 Zn155 2.020 . S
C150 N149 1.307 . S
C150 C154 1.370 . S
C150 H161 0.948 . S
C151 N149 1.333 . S
C151 C152 1.379 . S
C151 H159 0.952 . S
C152 C151 1.379 . S
C152 C153 1.390 . S
C152 H172 0.949 1_556 S
C153 C152 1.390 . S
C153 C154 1.357 . S
C154 C150 1.370 . S
C154 C153 1.357 . S
C154 H173 0.950 . S
Zn155 N149 2.020 . S
Zn155 O158 2.025 . S
Zn155 O163 2.024 . S
Zn155 O165 2.039 . S
Zn155 O167 2.034 . S
O156 C140 1.251 . S
O156 Zn147 2.039 . S
C157 O162 1.246 . S
C157 O163 1.249 . S
O158 C140 1.254 . S
O158 Zn155 2.025 . S
H159 C151 0.952 . S
H160 C142 0.952 . S
H161 C150 0.948 . S
O162 Zn147 2.034 . S
O162 C157 1.246 . S
O163 Zn155 2.024 . S
O163 C157 1.249 . S
H164 C146 0.948 . S
O165 Zn155 2.039 . S
O165 C169 1.251 . S
O166 Zn147 2.025 . S
O166 C169 1.254 . S
O167 C148 1.246 . S
O167 Zn155 2.034 . S
O168 Zn147 2.024 . S
O168 C148 1.249 . S
C169 O165 1.251 . S
C169 O166 1.254 . S
H170 C143 0.949 . S
H171 C145 0.950 . S
H172 C152 0.949 1_554 S
H173 C154 0.950 . S
C174 O190 1.251 . S
C174 O192 1.254 . S
N175 C176 1.333 . S
N175 C180 1.307 . S
N175 Zn181 2.020 . S
C176 N175 1.333 . S
C176 C177 1.379 . S
C176 H194 0.952 . S
C177 C176 1.379 . S
C177 C178 1.390 . S
C177 H204 0.949 . S
C178 C177 1.390 . S
C178 C179 1.357 . S
C179 C178 1.357 . S
C179 C180 1.370 . S
C179 H205 0.950 . S
C180 N175 1.307 . S
C180 C179 1.370 . S
C180 H198 0.948 . S
Zn181 N175 2.020 . S
Zn181 O190 2.039 . S
Zn181 O196 2.034 1_455 S
Zn181 O200 2.025 1_455 S
Zn181 O202 2.024 . S
C182 O201 1.246 . S
C182 O202 1.249 . S
N183 C184 1.307 . S
N183 C185 1.333 . S
N183 Zn189 2.020 1_655 S
C184 N183 1.307 . S
C184 C188 1.370 . S
C184 H195 0.948 1_655 S
C185 N183 1.333 . S
C185 C186 1.379 . S
C185 H193 0.952 . S
C186 C185 1.379 . S
C186 C187 1.390 . S
C186 H206 0.949 . S
C187 C186 1.390 . S
C187 C188 1.357 . S
C188 C184 1.370 . S
C188 C187 1.357 . S
C188 H207 0.950 . S
Zn189 N183 2.020 1_455 S
Zn189 O192 2.025 . S
Zn189 O197 2.024 1_455 S
Zn189 O199 2.039 1_455 S
Zn189 O201 2.034 . S
O190 C174 1.251 . S
O190 Zn181 2.039 . S
C191 O196 1.246 . S
C191 O197 1.249 . S
O192 C174 1.254 . S
O192 Zn189 2.025 . S
H193 C185 0.952 . S
H194 C176 0.952 . S
H195 C184 0.948 1_455 S
O196 Zn181 2.034 1_655 S
O196 C191 1.246 . S
O197 Zn189 2.024 1_655 S
O197 C191 1.249 . S
H198 C180 0.948 . S
O199 Zn189 2.039 1_655 S
O199 C203 1.251 . S
O200 Zn181 2.025 1_655 S
O200 C203 1.254 . S
O201 C182 1.246 . S
O201 Zn189 2.034 . S
O202 Zn181 2.024 . S
O202 C182 1.249 . S
C203 O199 1.251 . S
C203 O200 1.254 . S
H204 C177 0.949 . S
H205 C179 0.950 . S
H206 C186 0.949 . S
H207 C188 0.950 . S
C208 C209 1.363 . S
C208 C214 1.379 . S
C208 N216 1.356 . S
C209 C208 1.363 . S
C209 C215 1.363 1_565 S
C210 C211 1.363 1_545 S
C210 C215 1.379 . S
C210 N217 1.356 . S
C211 C210 1.363 1_565 S
C211 C214 1.363 . S
N212 C214 1.356 . S
N212 H224 0.984 . S
N212 H225 0.985 . S
N213 C215 1.356 . S
N213 H218 0.984 . S
N213 H219 0.985 . S
C214 C208 1.379 . S
C214 C211 1.363 . S
C214 N212 1.356 . S
C215 C209 1.363 1_545 S
C215 C210 1.379 . S
C215 N213 1.356 . S
N216 C208 1.356 . S
N216 H222 0.984 . S
N216 H223 0.984 . S
N217 C210 1.356 . S
N217 H220 0.984 . S
N217 H221 0.985 . S
H218 N213 0.984 . S
H219 N213 0.985 . S
H220 N217 0.984 . S
H221 N217 0.985 . S
H222 N216 0.984 . S
H223 N216 0.984 . S
H224 N212 0.984 . S
H225 N212 0.985 . S
C226 C227 1.363 . S
C226 C232 1.379 . S
C226 N234 1.356 . S
C227 C226 1.363 . S
C227 C233 1.363 . S
C228 C229 1.363 . S
C228 C233 1.379 . S
C228 N235 1.356 . S
C229 C228 1.363 . S
C229 C232 1.363 . S
N230 C232 1.356 . S
N230 H242 0.984 . S
N230 H243 0.985 . S
N231 C233 1.356 . S
N231 H236 0.984 . S
N231 H237 0.985 . S
C232 C226 1.379 . S
C232 C229 1.363 . S
C232 N230 1.356 . S
C233 C227 1.363 . S
C233 C228 1.379 . S
C233 N231 1.356 . S
N234 C226 1.356 . S
N234 H240 0.984 . S
N234 H241 0.984 . S
N235 C228 1.356 . S
N235 H238 0.984 . S
N235 H239 0.985 . S
H236 N231 0.984 . S
H237 N231 0.985 . S
H238 N235 0.984 . S
H239 N235 0.985 . S
H240 N234 0.984 . S
H241 N234 0.984 . S
H242 N230 0.984 . S
H243 N230 0.985 . S
C244 C245 1.363 . S
C244 C250 1.379 . S
C244 N252 1.356 . S
C245 C244 1.363 . S
C245 C251 1.363 . S
C246 C247 1.363 . S
C246 C251 1.379 . S
C246 N253 1.356 . S
C247 C246 1.363 . S
C247 C250 1.363 . S
N248 C250 1.356 . S
N248 H260 0.984 . S
N248 H261 0.985 . S
N249 C251 1.356 . S
N249 H254 0.984 . S
N249 H255 0.985 . S
C250 C244 1.379 . S
C250 C247 1.363 . S
C250 N248 1.356 . S
C251 C245 1.363 . S
C251 C246 1.379 . S
C251 N249 1.356 . S
N252 C244 1.356 . S
N252 H258 0.984 . S
N252 H259 0.984 . S
N253 C246 1.356 . S
N253 H256 0.984 . S
N253 H257 0.985 . S
H254 N249 0.984 . S
H255 N249 0.985 . S
H256 N253 0.984 . S
H257 N253 0.985 . S
H258 N252 0.984 . S
H259 N252 0.984 . S
H260 N248 0.984 . S
H261 N248 0.985 . S
C262 C263 1.363 . S
C262 C268 1.379 . S
C262 N270 1.356 . S
C263 C262 1.363 . S
C263 C269 1.363 . S
C264 C265 1.363 . S
C264 C269 1.379 . S
C264 N271 1.356 . S
C265 C264 1.363 . S
C265 C268 1.363 . S
N266 C268 1.356 . S
N266 H278 0.984 . S
N266 H279 0.985 . S
N267 C269 1.356 . S
N267 H272 0.984 . S
N267 H273 0.985 . S
C268 C262 1.379 . S
C268 C265 1.363 . S
C268 N266 1.356 . S
C269 C263 1.363 . S
C269 C264 1.379 . S
C269 N267 1.356 . S
N270 C262 1.356 . S
N270 H276 0.984 . S
N270 H277 0.984 . S
N271 C264 1.356 . S
N271 H274 0.984 . S
N271 H275 0.985 . S
H272 N267 0.984 . S
H273 N267 0.985 . S
H274 N271 0.984 . S
H275 N271 0.985 . S
H276 N270 0.984 . S
H277 N270 0.984 . S
H278 N266 0.984 . S
H279 N266 0.985 . S
C280 C281 1.363 1_565 S
C280 C286 1.379 1_554 S
C280 N288 1.356 . S
C281 C280 1.363 1_545 S
C281 C287 1.363 1_554 S
C282 C283 1.363 . S
C282 C287 1.379 . S
C282 N289 1.356 . S
C283 C282 1.363 . S
C283 C286 1.363 1_545 S
N284 C286 1.356 . S
N284 H296 0.984 1_556 S
N284 H297 0.985 . S
N285 C287 1.356 . S
N285 H290 0.984 1_556 S
N285 H291 0.985 . S
C286 C280 1.379 1_556 S
C286 C283 1.363 1_565 S
C286 N284 1.356 . S
C287 C281 1.363 1_556 S
C287 C282 1.379 . S
C287 N285 1.356 . S
N288 C280 1.356 . S
N288 H294 0.984 . S
N288 H295 0.984 . S
N289 C282 1.356 . S
N289 H292 0.984 . S
N289 H293 0.985 . S
H290 N285 0.984 1_554 S
H291 N285 0.985 . S
H292 N289 0.984 . S
H293 N289 0.985 . S
H294 N288 0.984 . S
H295 N288 0.984 . S
H296 N284 0.984 1_554 S
H297 N284 0.985 . S
C298 C299 1.363 . S
C298 C304 1.379 . S
C298 N306 1.356 . S
C299 C298 1.363 . S
C299 C305 1.363 . S
C300 C301 1.363 . S
C300 C305 1.379 1_556 S
C300 N307 1.356 . S
C301 C300 1.363 . S
C301 C304 1.363 1_556 S
N302 C304 1.356 1_556 S
N302 H314 0.984 1_556 S
N302 H315 0.985 . S
N303 C305 1.356 . S
N303 H308 0.984 . S
N303 H309 0.985 . S
C304 C298 1.379 . S
C304 C301 1.363 1_554 S
C304 N302 1.356 1_554 S
C305 C299 1.363 . S
C305 C300 1.379 1_554 S
C305 N303 1.356 . S
N306 C298 1.356 . S
N306 H312 0.984 . S
N306 H313 0.984 . S
N307 C300 1.356 . S
N307 H310 0.984 . S
N307 H311 0.985 . S
H308 N303 0.984 . S
H309 N303 0.985 . S
H310 N307 0.984 . S
H311 N307 0.985 . S
H312 N306 0.984 . S
H313 N306 0.984 . S
H314 N302 0.984 1_554 S
H315 N302 0.985 . S
C316 C317 1.363 . S
C316 C322 1.379 1_554 S
C316 N324 1.356 . S
C317 C316 1.363 . S
C317 C323 1.363 . S
C318 C319 1.363 1_554 S
C318 C323 1.379 . S
C318 N325 1.356 . S
C319 C318 1.363 1_556 S
C319 C322 1.363 . S
N320 C322 1.356 . S
N320 H332 0.984 . S
N320 H333 0.985 . S
N321 C323 1.356 . S
N321 H326 0.984 . S
N321 H327 0.985 . S
C322 C316 1.379 1_556 S
C322 C319 1.363 . S
C322 N320 1.356 . S
C323 C317 1.363 . S
C323 C318 1.379 . S
C323 N321 1.356 . S
N324 C316 1.356 . S
N324 H330 0.984 . S
N324 H331 0.984 . S
N325 C318 1.356 . S
N325 H328 0.984 1_554 S
N325 H329 0.985 . S
H326 N321 0.984 . S
H327 N321 0.985 . S
H328 N325 0.984 1_556 S
H329 N325 0.985 . S
H330 N324 0.984 . S
H331 N324 0.984 . S
H332 N320 0.984 . S
H333 N320 0.985 . S
C334 C335 1.363 . S
C334 C340 1.379 . S
C334 N342 1.356 1_556 S
C335 C334 1.363 . S
C335 C341 1.363 . S
C336 C337 1.363 . S
C336 C341 1.379 . S
C336 N343 1.356 . S
C337 C336 1.363 . S
C337 C340 1.363 . S
N338 C340 1.356 1_455 S
N338 H350 0.984 . S
N338 H351 0.985 . S
N339 C341 1.356 . S
N339 H344 0.984 . S
N339 H345 0.985 . S
C340 C334 1.379 . S
C340 C337 1.363 . S
C340 N338 1.356 1_655 S
C341 C335 1.363 . S
C341 C336 1.379 . S
C341 N339 1.356 . S
N342 C334 1.356 1_554 S
N342 H348 0.984 1_655 S
N342 H349 0.984 . S
N343 C336 1.356 . S
N343 H346 0.984 . S
N343 H347 0.985 . S
H344 N339 0.984 . S
H345 N339 0.985 . S
H346 N343 0.984 . S
H347 N343 0.985 . S
H348 N342 0.984 1_455 S
H349 N342 0.984 . S
H350 N338 0.984 . S
H351 N338 0.985 . S
C352 C353 1.363 . S
C352 C358 1.379 . S
C352 N360 1.356 . S
C353 C352 1.363 . S
C353 C359 1.363 . S
C354 C355 1.363 . S
C354 C359 1.379 . S
C354 N361 1.356 . S
C355 C354 1.363 . S
C355 C358 1.363 . S
N356 C358 1.356 . S
N356 H368 0.978 1_455 S
N356 H369 0.985 1_455 S
N357 C359 1.356 . S
N357 H362 0.984 . S
N357 H363 0.985 . S
C358 C352 1.379 . S
C358 C355 1.363 . S
C358 N356 1.356 . S
C359 C353 1.363 . S
C359 C354 1.379 . S
C359 N357 1.356 . S
N360 C352 1.356 . S
N360 H366 0.984 . S
N360 H367 0.984 . S
N361 C354 1.356 . S
N361 H364 0.984 . S
N361 H365 0.985 . S
H362 N357 0.984 . S
H363 N357 0.985 . S
H364 N361 0.984 . S
H365 N361 0.985 . S
H366 N360 0.984 . S
H367 N360 0.984 . S
H368 N356 0.978 1_655 S
H369 N356 0.985 1_655 S
C370 C371 1.337 1_545 S
C370 C376 1.379 . S
C370 N378 1.356 . S
C371 C370 1.337 1_565 S
C371 C377 1.393 . S
C372 C373 1.363 . S
C372 C377 1.379 . S
C372 N379 1.356 . S
C373 C372 1.363 . S
C373 C376 1.363 1_565 S
N374 C376 1.356 . S
N374 H386 0.984 . S
N374 H387 0.985 . S
N375 C377 1.356 . S
N375 H380 0.984 . S
N375 H381 0.985 . S
C376 C370 1.379 . S
C376 C373 1.363 1_545 S
C376 N374 1.356 . S
C377 C371 1.393 . S
C377 C372 1.379 . S
C377 N375 1.356 . S
N378 C370 1.356 . S
N378 H384 0.984 . S
N378 H385 0.984 . S
N379 C372 1.356 . S
N379 H382 0.984 . S
N379 H383 0.985 . S
H380 N375 0.984 . S
H381 N375 0.985 . S
H382 N379 0.984 . S
H383 N379 0.985 . S
H384 N378 0.984 . S
H385 N378 0.984 . S
H386 N374 0.984 . S
H387 N374 0.985 . S
C388 C389 1.363 . S
C388 C394 1.379 . S
C388 N396 1.356 . S
C389 C388 1.363 . S
C389 C395 1.363 . S
C390 C391 1.363 . S
C390 C395 1.379 . S
C390 N397 1.356 . S
C391 C390 1.363 . S
C391 C394 1.363 . S
N392 C394 1.356 . S
N392 H404 0.984 . S
N392 H405 0.985 . S
N393 C395 1.356 . S
N393 H398 0.984 . S
N393 H399 0.985 . S
C394 C388 1.379 . S
C394 C391 1.363 . S
C394 N392 1.356 . S
C395 C389 1.363 . S
C395 C390 1.379 . S
C395 N393 1.356 . S
N396 C388 1.356 . S
N396 H402 0.984 . S
N396 H403 0.984 . S
N397 C390 1.356 . S
N397 H400 0.984 . S
N397 H401 0.985 . S
H398 N393 0.984 . S
H399 N393 0.985 . S
H400 N397 0.984 . S
H401 N397 0.985 . S
H402 N396 0.984 . S
H403 N396 0.984 . S
H404 N392 0.984 . S
H405 N392 0.985 . S
C406 C407 1.363 . S
C406 C412 1.379 . S
C406 N414 1.356 . S
C407 C406 1.363 . S
C407 C413 1.363 . S
C408 C409 1.363 . S
C408 C413 1.379 . S
C408 N415 1.356 . S
C409 C408 1.363 . S
C409 C412 1.363 . S
N410 C412 1.356 . S
N410 H422 0.984 . S
N410 H423 0.985 . S
N411 C413 1.356 . S
N411 H416 0.984 . S
N411 H417 0.985 . S
C412 C406 1.379 . S
C412 C409 1.363 . S
C412 N410 1.356 . S
C413 C407 1.363 . S
C413 C408 1.379 . S
C413 N411 1.356 . S
N414 C406 1.356 . S
N414 H420 0.984 . S
N414 H421 0.984 . S
N415 C408 1.356 . S
N415 H418 0.984 . S
N415 H419 0.985 . S
H416 N411 0.984 . S
H417 N411 0.985 . S
H418 N415 0.984 . S
H419 N415 0.985 . S
H420 N414 0.984 . S
H421 N414 0.984 . S
H422 N410 0.984 . S
H423 N410 0.985 . S
C424 C425 1.363 . S
C424 C430 1.379 . S
C424 N432 1.356 . S
C425 C424 1.363 . S
C425 C431 1.363 . S
C426 C427 1.363 . S
C426 C431 1.379 . S
C426 N433 1.356 1_556 S
C427 C426 1.363 . S
C427 C430 1.363 . S
N428 C430 1.356 1_455 S
N428 H440 0.984 . S
N428 H441 0.985 . S
N429 C431 1.356 1_554 S
N429 H434 0.984 1_554 S
N429 H435 0.985 . S
C430 C424 1.379 . S
C430 C427 1.363 . S
C430 N428 1.356 1_655 S
C431 C425 1.363 . S
C431 C426 1.379 . S
C431 N429 1.356 1_556 S
N432 C424 1.356 . S
N432 H438 0.984 . S
N432 H439 0.984 . S
N433 C426 1.356 1_554 S
N433 H436 0.984 . S
N433 H437 0.985 . S
H434 N429 0.984 1_556 S
H435 N429 0.985 . S
H436 N433 0.984 . S
H437 N433 0.985 . S
H438 N432 0.984 . S
H439 N432 0.984 . S
H440 N428 0.984 . S
H441 N428 0.985 . S
C442 C443 1.363 . S
C442 C448 1.379 1_554 S
C442 N450 1.356 . S
C443 C442 1.363 . S
C443 C449 1.363 1_544 S
C444 C445 1.363 1_565 S
C444 C449 1.379 . S
C444 N451 1.356 . S
C445 C444 1.363 1_545 S
C445 C448 1.363 . S
N446 C448 1.356 . S
N446 H458 0.984 1_556 S
N446 H459 0.985 . S
N447 C449 1.356 . S
N447 H452 0.984 . S
N447 H453 0.985 . S
C448 C442 1.379 1_556 S
C448 C445 1.363 . S
C448 N446 1.356 . S
C449 C443 1.363 1_566 S
C449 C444 1.379 . S
C449 N447 1.356 . S
N450 C442 1.356 . S
N450 H456 0.984 . S
N450 H457 0.984 . S
N451 C444 1.356 . S
N451 H454 0.984 . S
N451 H455 0.985 . S
H452 N447 0.984 . S
H453 N447 0.985 . S
H454 N451 0.984 . S
H455 N451 0.985 . S
H456 N450 0.984 . S
H457 N450 0.984 . S
H458 N446 0.984 1_554 S
H459 N446 0.985 . S
C460 C461 1.363 . S
C460 C466 1.379 . S
C460 N468 1.356 . S
C461 C460 1.363 . S
C461 C467 1.363 1_554 S
C462 C463 1.363 . S
C462 C467 1.379 . S
C462 N469 1.356 . S
C463 C462 1.363 . S
C463 C466 1.363 1_556 S
N464 C466 1.356 . S
N464 H476 0.984 . S
N464 H477 0.985 1_554 S
N465 C467 1.356 . S
N465 H470 0.984 . S
N465 H471 0.985 . S
C466 C460 1.379 . S
C466 C463 1.363 1_554 S
C466 N464 1.356 . S
C467 C461 1.363 1_556 S
C467 C462 1.379 . S
C467 N465 1.356 . S
N468 C460 1.356 . S
N468 H474 0.984 . S
N468 H475 0.984 . S
N469 C462 1.356 . S
N469 H472 0.984 . S
N469 H473 0.985 . S
H470 N465 0.984 . S
H471 N465 0.985 . S
H472 N469 0.984 . S
H473 N469 0.985 . S
H474 N468 0.984 . S
H475 N468 0.984 . S
H476 N464 0.984 . S
H477 N464 0.985 1_556 S
C478 C479 1.363 . S
C478 C484 1.379 . S
C478 N486 1.356 . S
C479 C478 1.363 . S
C479 C485 1.363 . S
C480 C481 1.363 . S
C480 C485 1.379 1_556 S
C480 N487 1.356 . S
C481 C480 1.363 . S
C481 C484 1.363 1_556 S
N482 C484 1.356 1_556 S
N482 H494 0.984 1_656 S
N482 H495 0.985 1_655 S
N483 C485 1.356 . S
N483 H488 0.984 . S
N483 H489 0.985 . S
C484 C478 1.379 . S
C484 C481 1.363 1_554 S
C484 N482 1.356 1_554 S
C485 C479 1.363 . S
C485 C480 1.379 1_554 S
C485 N483 1.356 . S
N486 C478 1.356 . S
N486 H492 0.984 . S
N486 H493 0.984 . S
N487 C480 1.356 . S
N487 H490 0.984 . S
N487 H491 0.985 . S
H488 N483 0.984 . S
H489 N483 0.985 . S
H490 N487 0.984 . S
H491 N487 0.985 . S
H492 N486 0.984 . S
H493 N486 0.984 . S
H494 N482 0.984 1_454 S
H495 N482 0.985 1_455 S
C496 C497 1.363 . S
C496 C502 1.379 . S
C496 N504 1.356 . S
C497 C496 1.363 . S
C497 C503 1.363 . S
C498 C499 1.363 . S
C498 C503 1.379 . S
C498 N505 1.356 . S
C499 C498 1.363 . S
C499 C502 1.363 . S
N500 C502 1.356 . S
N500 H512 0.984 . S
N500 H513 0.985 . S
N501 C503 1.356 . S
N501 H506 0.984 . S
N501 H507 0.985 . S
C502 C496 1.379 . S
C502 C499 1.363 . S
C502 N500 1.356 . S
C503 C497 1.363 . S
C503 C498 1.379 . S
C503 N501 1.356 . S
N504 C496 1.356 . S
N504 H510 0.984 . S
N504 H511 0.984 . S
N505 C498 1.356 . S
N505 H508 0.984 . S
N505 H509 0.985 . S
H506 N501 0.984 . S
H507 N501 0.985 . S
H508 N505 0.984 . S
H509 N505 0.985 . S
H510 N504 0.984 . S
H511 N504 0.984 . S
H512 N500 0.984 . S
H513 N500 0.985 . S
C514 C515 1.378 . S
C514 C520 1.379 . S
C514 N522 1.356 . S
C515 C514 1.378 . S
C515 C521 1.347 1_545 S
C516 C517 1.363 1_565 S
C516 C521 1.379 . S
C516 N523 1.356 . S
C517 C516 1.363 1_545 S
C517 C520 1.363 . S
N518 C520 1.356 1_556 S
N518 H530 0.984 . S
N518 H531 0.985 . S
N519 C521 1.356 . S
N519 H524 0.984 . S
N519 H525 0.985 . S
C520 C514 1.379 . S
C520 C517 1.363 . S
C520 N518 1.356 1_554 S
C521 C515 1.347 1_565 S
C521 C516 1.379 . S
C521 N519 1.356 . S
N522 C514 1.356 . S
N522 H528 0.984 . S
N522 H529 0.984 . S
N523 C516 1.356 . S
N523 H526 0.984 . S
N523 H527 0.985 . S
H524 N519 0.984 . S
H525 N519 0.985 . S
H526 N523 0.984 . S
H527 N523 0.985 . S
H528 N522 0.984 . S
H529 N522 0.984 . S
H530 N518 0.984 . S
H531 N518 0.985 . S
C532 C533 1.363 . S
C532 C538 1.379 . S
C532 N540 1.356 . S
C533 C532 1.363 . S
C533 C539 1.363 . S
C534 C535 1.363 . S
C534 C539 1.379 . S
C534 N541 1.356 . S
C535 C534 1.363 . S
C535 C538 1.363 . S
N536 C538 1.356 . S
N536 H548 0.984 . S
N536 H549 0.985 1_554 S
N537 C539 1.356 . S
N537 H542 0.984 . S
N537 H543 0.985 . S
C538 C532 1.379 . S
C538 C535 1.363 . S
C538 N536 1.356 . S
C539 C533 1.363 . S
C539 C534 1.379 . S
C539 N537 1.356 . S
N540 C532 1.356 . S
N540 H546 0.984 . S
N540 H547 0.984 . S
N541 C534 1.356 . S
N541 H544 0.984 1_554 S
N541 H545 0.985 . S
H542 N537 0.984 . S
H543 N537 0.985 . S
H544 N541 0.984 1_556 S
H545 N541 0.985 . S
H546 N540 0.984 . S
H547 N540 0.984 . S
H548 N536 0.984 . S
H549 N536 0.985 1_556 S
C550 C551 1.363 . S
C550 C556 1.379 . S
C550 N558 1.356 . S
C551 C550 1.363 . S
C551 C557 1.363 . S
C552 C553 1.363 1_554 S
C552 C557 1.379 . S
C552 N559 1.356 1_554 S
C553 C552 1.363 1_556 S
C553 C556 1.363 1_556 S
N554 C556 1.356 1_556 S
N554 H566 0.984 . S
N554 H567 0.985 . S
N555 C557 1.356 . S
N555 H560 0.984 . S
N555 H561 0.985 . S
C556 C550 1.379 . S
C556 C553 1.363 1_554 S
C556 N554 1.356 1_554 S
C557 C551 1.363 . S
C557 C552 1.379 . S
C557 N555 1.356 . S
N558 C550 1.356 . S
N558 H564 0.984 . S
N558 H565 0.984 . S
N559 C552 1.356 1_556 S
N559 H562 0.984 . S
N559 H563 0.985 . S
H560 N555 0.984 . S
H561 N555 0.985 . S
H562 N559 0.984 . S
H563 N559 0.985 . S
H564 N558 0.984 . S
H565 N558 0.984 . S
H566 N554 0.984 . S
H567 N554 0.985 . S
C568 C569 1.363 . S
C568 C574 1.379 . S
C568 N576 1.356 . S
C569 C568 1.363 . S
C569 C575 1.363 . S
C570 C571 1.363 . S
C570 C575 1.379 . S
C570 N577 1.356 1_655 S
C571 C570 1.363 . S
C571 C574 1.363 . S
N572 C574 1.356 . S
N572 H584 0.984 . S
N572 H585 0.985 . S
N573 C575 1.356 . S
N573 H578 0.984 . S
N573 H579 0.985 1_655 S
C574 C568 1.379 . S
C574 C571 1.363 . S
C574 N572 1.356 . S
C575 C569 1.363 . S
C575 C570 1.379 . S
C575 N573 1.356 . S
N576 C568 1.356 . S
N576 H582 0.984 . S
N576 H583 0.984 . S
N577 C570 1.356 1_455 S
N577 H580 0.984 . S
N577 H581 0.985 . S
H578 N573 0.984 . S
H579 N573 0.985 1_455 S
H580 N577 0.984 . S
H581 N577 0.985 . S
H582 N576 0.984 . S
H583 N576 0.984 . S
H584 N572 0.984 . S
H585 N572 0.985 . S
C586 C587 1.349 1_545 S
C586 C592 1.379 . S
C586 N594 1.356 . S
C587 C586 1.349 1_565 S
C587 C593 1.376 . S
C588 C589 1.363 . S
C588 C593 1.379 . S
C588 N595 1.356 . S
C589 C588 1.363 . S
C589 C592 1.363 1_565 S
N590 C592 1.356 . S
N590 H602 0.984 . S
N590 H603 0.985 . S
N591 C593 1.356 . S
N591 H596 0.984 . S
N591 H597 0.985 . S
C592 C586 1.379 . S
C592 C589 1.363 1_545 S
C592 N590 1.356 . S
C593 C587 1.376 . S
C593 C588 1.379 . S
C593 N591 1.356 . S
N594 C586 1.356 . S
N594 H600 0.984 . S
N594 H601 0.984 . S
N595 C588 1.356 . S
N595 H598 0.984 . S
N595 H599 0.985 . S
H596 N591 0.984 . S
H597 N591 0.985 . S
H598 N595 0.984 . S
H599 N595 0.985 . S
H600 N594 0.984 . S
H601 N594 0.984 . S
H602 N590 0.984 . S
H603 N590 0.985 . S
C604 C605 1.363 . S
C604 C610 1.379 . S
C604 N612 1.356 . S
C605 C604 1.363 . S
C605 C611 1.363 . S
C606 C607 1.363 . S
C606 C611 1.379 . S
C606 N613 1.356 . S
C607 C606 1.363 . S
C607 C610 1.363 . S
N608 C610 1.356 . S
N608 H620 0.984 . S
N608 H621 0.985 . S
N609 C611 1.356 . S
N609 H614 0.984 . S
N609 H615 0.985 . S
C610 C604 1.379 . S
C610 C607 1.363 . S
C610 N608 1.356 . S
C611 C605 1.363 . S
C611 C606 1.379 . S
C611 N609 1.356 . S
N612 C604 1.356 . S
N612 H618 0.984 . S
N612 H619 0.984 . S
N613 C606 1.356 . S
N613 H616 0.984 . S
N613 H617 0.985 . S
H614 N609 0.984 . S
H615 N609 0.985 . S
H616 N613 0.984 . S
H617 N613 0.985 . S
H618 N612 0.984 . S
H619 N612 0.984 . S
H620 N608 0.984 . S
H621 N608 0.985 . S
C622 C623 1.363 . S
C622 C628 1.379 . S
C622 N630 1.356 . S
C623 C622 1.363 . S
C623 C629 1.363 . S
C624 C625 1.363 . S
C624 C629 1.379 . S
C624 N631 1.356 . S
C625 C624 1.363 . S
C625 C628 1.363 . S
N626 C628 1.356 . S
N626 H638 0.984 . S
N626 H639 0.985 . S
N627 C629 1.356 . S
N627 H632 0.984 . S
N627 H633 0.985 . S
C628 C622 1.379 . S
C628 C625 1.363 . S
C628 N626 1.356 . S
C629 C623 1.363 . S
C629 C624 1.379 . S
C629 N627 1.356 . S
N630 C622 1.356 . S
N630 H636 0.984 . S
N630 H637 0.984 . S
N631 C624 1.356 . S
N631 H634 0.984 . S
N631 H635 0.985 . S
H632 N627 0.984 . S
H633 N627 0.985 . S
H634 N631 0.984 . S
H635 N631 0.985 . S
H636 N630 0.984 . S
H637 N630 0.984 . S
H638 N626 0.984 . S
H639 N626 0.985 . S
C209 C61 1.848 . S
C211 C89 1.866 . S
C229 C110 1.571 . S
C227 C70 1.547 . S
C247 C144 1.505 . S
C245 C43 1.475 . S
C265 C178 1.571 . S
C263 C52 1.550 . S
C283 C80 1.866 . S
C281 C25 1.850 1_545 S
C299 C34 1.545 . S
C301 C119 1.574 . S
C317 C7 1.474 . S
C319 C153 1.505 . S
C335 C16 1.555 . S
C337 C187 1.571 . S
C355 C101 0.863 . S
C353 C50 0.805 . S
C373 C106 1.056 . S
C371 C59 1.051 . S
C391 C140 1.017 . S
C389 C67 1.009 . S
C407 C41 0.612 . S
C409 C174 0.607 . S
C425 C14 0.814 . S
C427 C72 0.867 1_655 S
C445 C135 1.056 . S
C443 C23 1.052 1_545 S
C463 C169 1.017 . S
C461 C31 1.007 . S
C479 C5 0.615 . S
C481 C203 0.606 . S
C497 C49 1.389 . S
C499 C85 1.449 . S
C515 C58 1.760 1_545 S
C517 C114 1.825 1_554 S
C535 C148 1.556 1_554 S
C533 C68 1.513 . S
C553 C182 1.583 . S
C551 C40 1.521 . S
C569 C13 1.392 . S
C571 C76 1.454 . S
C589 C123 1.825 . S
C587 C22 1.758 . S
C607 C157 1.556 . S
C605 C32 1.509 . S
C623 C4 1.517 . S
C625 C191 1.583 . S
