# Generated by pormake.
# Topology hwx, (6,3)-cn, num edge types: 1
# Building blocks:
#     Node 0, Type 0, BuildingBlock: OJICUG_clean_sbu_0, # of connection points: 6
#     Node 1, Type 0, BuildingBlock: OJICUG_clean_sbu_0, # of connection points: 6
#     Node 2, Type 0, BuildingBlock: OJICUG_clean_sbu_0, # of connection points: 6
#     Node 3, Type 0, BuildingBlock: OJICUG_clean_sbu_0, # of connection points: 6
#     Node 4, Type 1, BuildingBlock: VETTIZ_charged_linker_0, # of connection points: 3
#     Node 5, Type 1, BuildingBlock: VETTIZ_charged_linker_0, # of connection points: 3
#     Node 6, Type 1, BuildingBlock: VETTIZ_charged_linker_0, # of connection points: 3
#     Node 7, Type 1, BuildingBlock: VETTIZ_charged_linker_0, # of connection points: 3
#     Node 8, Type 1, BuildingBlock: VETTIZ_charged_linker_0, # of connection points: 3
#     Node 9, Type 1, BuildingBlock: VETTIZ_charged_linker_0, # of connection points: 3
#     Node 10, Type 1, BuildingBlock: VETTIZ_charged_linker_0, # of connection points: 3
#     Node 11, Type 1, BuildingBlock: VETTIZ_charged_linker_0, # of connection points: 3
#     Edge 12, Type (0, 1), None
#     Edge 13, Type (0, 1), None
#     Edge 14, Type (0, 1), None
#     Edge 15, Type (0, 1), None
#     Edge 16, Type (0, 1), None
#     Edge 17, Type (0, 1), None
#     Edge 18, Type (0, 1), None
#     Edge 19, Type (0, 1), None
#     Edge 20, Type (0, 1), None
#     Edge 21, Type (0, 1), None
#     Edge 22, Type (0, 1), None
#     Edge 23, Type (0, 1), None
#     Edge 24, Type (0, 1), None
#     Edge 25, Type (0, 1), None
#     Edge 26, Type (0, 1), None
#     Edge 27, Type (0, 1), None
#     Edge 28, Type (0, 1), None
#     Edge 29, Type (0, 1), None
#     Edge 30, Type (0, 1), None
#     Edge 31, Type (0, 1), None
#     Edge 32, Type (0, 1), None
#     Edge 33, Type (0, 1), None
#     Edge 34, Type (0, 1), None
#     Edge 35, Type (0, 1), None
# Relax obj value: 0.080
# Max RMSD: 0.104
# Mean RMSD: 0.097
data_MOF--net-hwx--node1-OJICUG_clean_sbu_0--node2-VETTIZ_charged_linker_0--edge1-none
_symmetry_space_group_name_H-M    P1
_symmetry_Int_Tables_number       1
_symmetry_cell_setting            triclinic
loop_
_symmetry_equiv_pos_as_xyz
'x, y, z'
_cell_length_a     33.455771
_cell_length_b     33.42602
_cell_length_c     15.627988
_cell_angle_alpha  90.360695
_cell_angle_beta   89.86057
_cell_angle_gamma 90.02165
loop_
_atom_site_label
_atom_site_type_symbol
_atom_site_fract_x
_atom_site_fract_y
_atom_site_fract_z
_atom_type_partial_charge
Sc0 Sc 0.285 0.28658 0.10543 0.0
Sc1 Sc 0.21604 0.21841 0.01506 0.0
Sc2 Sc 0.28154 0.2745 0.88373 0.0
O3 O 0.26073 0.25976 0.00134 0.0
C4 C 0.27992 0.35986 0.97616 0.0
C5 C 0.19333 0.28332 0.1582 0.0
C6 C 0.18627 0.26867 0.85577 0.0
C7 C 0.27558 0.19539 0.165 0.0
C8 C 0.3625 0.2712 -0.00933 0.0
C9 C 0.26758 0.18027 0.86335 0.0
O10 O 0.28164 0.3456 0.05125 0.0
O11 O 0.1845 0.2539 0.10981 0.0
O12 O 0.22135 0.28032 0.8356 0.0
O13 O 0.29055 0.23033 0.17059 0.0
O14 O 0.34411 0.26937 0.91955 0.0
O15 O 0.24143 0.17732 0.92209 0.0
O16 O 0.34466 0.27783 0.06099 0.0
O17 O 0.24828 0.18632 0.11191 0.0
O18 O 0.28438 0.21319 0.84481 0.0
O19 O 0.22818 0.29806 0.16197 0.0
O20 O 0.28027 0.33787 0.90956 0.0
O21 O 0.17933 0.24617 0.91934 0.0
Sc22 Sc 0.21707 0.77641 0.37594 0.0
Sc23 Sc 0.27893 0.71765 0.50759 0.0
Sc24 Sc 0.2076 0.78432 0.59777 0.0
O25 O 0.23461 0.75937 0.49388 0.0
C26 C 0.21618 0.85999 0.47539 0.0
C27 C 0.31195 0.76931 0.35232 0.0
C28 C 0.29934 0.781 0.65446 0.0
C29 C 0.22948 0.68206 0.35109 0.0
C30 C 0.13323 0.77171 0.47345 0.0
C31 C 0.21711 0.69277 0.65341 0.0
O32 O 0.21841 0.83908 0.4074 0.0
O33 O 0.31754 0.74525 0.41379 0.0
O34 O 0.26398 0.79479 0.65921 0.0
O35 O 0.21434 0.71569 0.33181 0.0
O36 O 0.14802 0.77603 0.54777 0.0
O37 O 0.24584 0.6848 0.60275 0.0
O38 O 0.15453 0.77177 0.40606 0.0
O39 O 0.25382 0.67773 0.41265 0.0
O40 O 0.20106 0.72719 0.65829 0.0
O41 O 0.27756 0.78248 0.33268 0.0
O42 O 0.21174 0.84451 0.54891 0.0
O43 O 0.30919 0.75279 0.60371 0.0
Sc44 Sc 0.71597 0.71253 0.87211 0.0
Sc45 Sc 0.77884 0.77963 0.98434 0.0
Sc46 Sc 0.70788 0.7205 0.0943 0.0
O47 O 0.73432 0.73764 0.98359 0.0
C48 C 0.6328 0.72481 0.9714 0.0
C49 C 0.72531 0.80509 0.82551 0.0
C50 C 0.72082 0.81421 0.12855 0.0
C51 C 0.81031 0.71994 0.83971 0.0
C52 C 0.71535 0.63693 -0.00633 0.0
C53 C 0.80057 0.72412 0.14258 0.0
O54 O 0.65331 0.71836 0.90406 0.0
O55 O 0.75073 0.81378 0.8833 0.0
O56 O 0.70345 0.78098 0.1422 0.0
O57 O 0.77618 0.70455 0.82531 0.0
O58 O 0.70996 0.65763 0.06128 0.0
O59 O 0.81082 0.74916 0.08541 0.0
O60 O 0.71879 0.65257 0.9202 0.0
O61 O 0.81566 0.74746 0.89469 0.0
O62 O 0.76477 0.71239 0.15287 0.0
O63 O 0.71152 0.77001 0.81453 0.0
O64 O 0.64839 0.72707 0.04525 0.0
O65 O 0.74866 0.81806 0.07406 0.0
Sc66 Sc 0.78138 0.22236 0.58593 0.0
Sc67 Sc 0.71611 0.27883 0.45563 0.0
Sc68 Sc 0.78516 0.21094 0.36407 0.0
O69 O 0.76076 0.23745 0.46861 0.0
C70 C 0.86248 0.22603 0.47938 0.0
C71 C 0.76715 0.3165 0.60812 0.0
C72 C 0.7761 0.30232 0.30613 0.0
C73 C 0.68615 0.2277 0.61394 0.0
C74 C 0.78002 0.13728 0.49186 0.0
C75 C 0.69348 0.2146 0.31135 0.0
O76 O 0.84392 0.22813 0.5504 0.0
O77 O 0.74143 0.3197 0.54885 0.0
O78 O 0.79122 0.26746 0.30032 0.0
O79 O 0.72115 0.21583 0.63357 0.0
O80 O 0.78124 0.15169 0.41687 0.0
O81 O 0.68453 0.24364 0.36072 0.0
O82 O 0.78077 0.15913 0.55866 0.0
O83 O 0.67935 0.25075 0.55127 0.0
O84 O 0.7284 0.20003 0.30689 0.0
O85 O 0.7837 0.28348 0.62655 0.0
O86 O 0.84482 0.21915 0.40908 0.0
O87 O 0.74847 0.31114 0.35891 0.0
C88 C 0.22166 0.62364 0.71727 0.0
C89 C 0.20435 0.66222 0.71601 0.0
C90 C 0.17684 0.67289 0.7808 0.0
C91 C 0.19339 0.6131 0.85775 0.0
C92 C 0.2151 0.59916 0.78877 0.0
C93 C 0.23104 0.55754 0.80507 0.0
H94 H 0.27568 0.41713 0.10232 0.0
C95 C 0.20047 0.58668 0.93043 0.0
C96 C 0.22144 0.5532 0.90021 0.0
H97 H 0.26996 0.40172 0.8272 0.0
H98 H 0.25182 0.47137 0.81181 0.0
H99 H 0.31902 0.5013 0.09772 0.0
H100 H 0.19549 0.46974 0.12911 0.0
H101 H 0.21079 0.50492 0.20841 0.0
H102 H 0.23542 0.45741 0.20119 0.0
H103 H 0.29763 0.49511 0.20185 0.0
H104 H 0.29682 0.54287 0.14844 0.0
C105 C 0.27654 0.55658 0.78812 0.0
C106 C 0.20735 0.52729 0.7489 0.0
C107 C 0.19908 0.65464 0.21845 0.0
C108 C 0.22141 0.64789 0.29281 0.0
C109 C 0.23944 0.6101 0.30415 0.0
C110 C 0.23744 0.58076 0.23931 0.0
C111 C 0.21818 0.58979 0.16186 0.0
C112 C 0.19944 0.6263 0.15276 0.0
C113 C 0.18442 0.63321 0.06372 0.0
C114 C 0.19923 0.59546 0.01924 0.0
C115 C 0.21769 0.56959 0.07748 0.0
C116 C 0.20361 0.67225 0.02748 0.0
C117 C 0.13821 0.63428 0.06757 0.0
C118 C 0.27087 0.42869 0.03861 0.0
C119 C 0.27386 0.40356 0.96611 0.0
C120 C 0.26767 0.42014 0.88425 0.0
C121 C 0.25683 0.46039 0.87512 0.0
C122 C 0.25233 0.4844 0.94827 0.0
C123 C 0.25975 0.46876 0.02834 0.0
C124 C 0.25257 0.49901 0.09869 0.0
C125 C 0.23499 0.53332 0.04784 0.0
C126 C 0.23625 0.52501 0.95972 0.0
C127 C 0.29342 0.51014 0.13932 0.0
C128 C 0.222 0.48196 0.16326 0.0
H129 H 0.15042 0.65783 0.89963 0.0
H130 H 0.24112 0.61362 0.66604 0.0
H131 H 0.18197 0.54156 0.71484 0.0
H132 H 0.19382 0.50313 0.78792 0.0
H133 H 0.22669 0.51339 0.69905 0.0
H134 H 0.29179 0.58073 0.82488 0.0
H135 H 0.28309 0.5609 0.71908 0.0
H136 H 0.29005 0.52784 0.80733 0.0
H137 H 0.18438 0.68305 0.2077 0.0
H138 H 0.25637 0.60378 0.36147 0.0
H139 H 0.25214 0.55276 0.25043 0.0
H140 H 0.22066 0.68961 0.07595 0.0
H141 H 0.18072 0.69321 0.00285 0.0
H142 H 0.22566 0.6658 0.97607 0.0
H143 H 0.12652 0.61108 0.11188 0.0
H144 H 0.12432 0.62759 0.005 0.0
H145 H 0.12749 0.66387 0.09084 0.0
H146 H 0.16135 0.70133 0.77967 0.0
C147 C 0.17103 0.64821 0.85126 0.0
C148 C 0.06522 0.75829 0.53702 0.0
C149 C 0.08974 0.764 0.46453 0.0
C150 C 0.07273 0.75995 0.38232 0.0
C151 C 0.009 0.74264 0.44487 0.0
C152 C 0.02506 0.74733 0.52569 0.0
C153 C 0.99481 0.73842 0.59491 0.0
H154 H 0.80644 0.6777 0.6913 0.0
C155 C 0.96813 0.72724 0.4539 0.0
C156 C 0.95985 0.72335 0.54155 0.0
H157 H 0.89031 0.73892 0.85641 0.0
H158 H 0.94138 0.7339 0.74627 0.0
H159 H 0.8024 0.71571 0.56451 0.0
H160 H 0.87575 0.6173 0.5889 0.0
H161 H 0.85995 0.6189 0.48141 0.0
H162 H 0.82331 0.62188 0.5663 0.0
H163 H 0.79806 0.67902 0.48356 0.0
H164 H 0.82768 0.7236 0.46746 0.0
C165 C 0.98484 0.77802 0.64285 0.0
C166 C 0.01131 0.70531 0.65364 0.0
C167 C 0.86945 0.72512 0.20893 0.0
C168 C 0.8304 0.70926 0.20436 0.0
C169 C 0.81861 0.68008 0.26435 0.0
C170 C 0.84277 0.6711 0.33395 0.0
C171 C 0.87848 0.692 0.34468 0.0
C172 C 0.89335 0.71541 0.27969 0.0
C173 C 0.93548 0.72894 0.29887 0.0
C174 C 0.93934 0.71585 0.39205 0.0
C175 C 0.90504 0.69533 0.41846 0.0
C176 C 0.93817 0.77489 0.28992 0.0
C177 C 0.96459 0.70595 0.23859 0.0
C178 C 0.83591 0.68965 0.70454 0.0
C179 C 0.84395 0.70946 0.78191 0.0
C180 C 0.88299 0.7241 0.79664 0.0
C181 C 0.91242 0.72171 0.7324 0.0
C182 C 0.90233 0.70565 0.65201 0.0
C183 C 0.86461 0.68976 0.63951 0.0
C184 C 0.85733 0.67762 0.54828 0.0
C185 C 0.8961 0.69147 0.50677 0.0
C186 C 0.92282 0.70662 0.56811 0.0
C187 C 0.81964 0.6999 0.51386 0.0
C188 C 0.85361 0.63149 0.54557 0.0
H189 H 0.0214 0.74617 0.30851 0.0
H190 H 0.07719 0.76126 0.60105 0.0
H191 H 0.02251 0.67965 0.6148 0.0
H192 H 0.98824 0.69332 0.69723 0.0
H193 H 0.03646 0.71676 0.6931 0.0
H194 H 0.99458 0.8048 0.60633 0.0
H195 H -0.0002 0.77947 0.70619 0.0
H196 H 0.95224 0.78208 0.65209 0.0
H197 H 0.8803 0.74574 0.16106 0.0
H198 H 0.78984 0.66534 0.25987 0.0
H199 H 0.83242 0.64915 0.37834 0.0
H200 H 0.91447 0.78974 0.32875 0.0
H201 H 0.93433 0.78391 0.22215 0.0
H202 H 0.96721 0.78679 0.31196 0.0
H203 H 0.94927 0.68229 0.20048 0.0
H204 H 0.98822 0.69018 0.27501 0.0
H205 H 0.97911 0.72633 0.192 0.0
H206 H 0.09062 0.76433 0.32528 0.0
C207 C 0.03261 0.74919 0.37229 0.0
C208 C 0.77211 0.37148 0.24296 0.0
C209 C 0.78885 0.33267 0.24319 0.0
C210 C 0.81589 0.32181 0.17769 0.0
C211 C 0.80019 0.38236 0.10246 0.0
C212 C 0.77872 0.39616 0.17192 0.0
C213 C 0.76286 0.43786 0.15667 0.0
H214 H 0.72032 0.58114 0.86458 0.0
C215 C 0.79322 0.40931 0.03054 0.0
C216 C 0.7723 0.44264 0.06164 0.0
H217 H 0.7237 0.59336 0.14055 0.0
H218 H 0.7412 0.52347 0.15306 0.0
H219 H 0.80017 0.52678 0.83599 0.0
H220 H 0.67584 0.49751 0.8643 0.0
H221 H 0.69767 0.45579 0.81328 0.0
H222 H 0.69784 0.50377 0.76077 0.0
H223 H 0.76047 0.54141 0.76526 0.0
H224 H 0.78356 0.49331 0.7543 0.0
C225 C 0.78672 0.46777 0.21331 0.0
C226 C 0.71736 0.43873 0.17395 0.0
C227 C 0.79774 0.34443 0.7398 0.0
C228 C 0.77496 0.35093 0.66597 0.0
C229 C 0.75596 0.38833 0.65576 0.0
C230 C 0.75746 0.41741 0.72136 0.0
C231 C 0.77705 0.40838 0.79847 0.0
C232 C 0.79659 0.37223 0.80641 0.0
C233 C 0.8106 0.36438 0.89578 0.0
C234 C 0.79492 0.40138 0.94145 0.0
C235 C 0.77666 0.42771 0.88384 0.0
C236 C 0.85685 0.36377 0.89458 0.0
C237 C 0.79124 0.32475 0.92866 0.0
C238 C 0.72463 0.56881 0.92779 0.0
C239 C 0.72112 0.5931 0.00151 0.0
C240 C 0.72637 0.57556 0.08267 0.0
C241 C 0.73691 0.53517 0.09009 0.0
C242 C 0.74195 0.51196 0.01589 0.0
C243 C 0.73526 0.5285 0.93636 0.0
C244 C 0.74232 0.49875 0.86485 0.0
C245 C 0.75929 0.46377 0.91459 0.0
C246 C 0.7577 0.47132 0.00302 0.0
C247 C 0.77325 0.5159 0.80127 0.0
C248 C 0.7015 0.48843 0.82312 0.0
H249 H 0.84218 0.33696 0.05886 0.0
H250 H 0.75296 0.38158 0.29467 0.0
H251 H 0.70212 0.41446 0.13754 0.0
H252 H 0.70363 0.46732 0.1545 0.0
H253 H 0.71092 0.43452 0.24307 0.0
H254 H 0.81273 0.45346 0.24511 0.0
H255 H 0.76774 0.48072 0.26492 0.0
H256 H 0.79948 0.49259 0.17507 0.0
H257 H 0.81298 0.31627 0.75006 0.0
H258 H 0.73861 0.39444 0.59892 0.0
H259 H 0.742 0.4451 0.71132 0.0
H260 H 0.86886 0.38777 0.85266 0.0
H261 H 0.86816 0.33466 0.8698 0.0
H262 H 0.86988 0.36957 0.9584 0.0
H263 H 0.77327 0.30888 0.87935 0.0
H264 H 0.76982 0.33017 0.98176 0.0
H265 H 0.81412 0.30292 0.94975 0.0
H266 H 0.83089 0.2931 0.17802 0.0
C267 C 0.82195 0.34678 0.10778 0.0
C268 C 0.12464 0.28235 0.2245 0.0
C269 C 0.16369 0.29813 0.22107 0.0
C270 C 0.17591 0.32556 0.28498 0.0
C271 C 0.11649 0.3112 0.36565 0.0
C272 C 0.10121 0.28996 0.2974 0.0
C273 C 0.05937 0.27555 0.31566 0.0
H274 H 0.91692 0.23546 0.61235 0.0
C275 C 0.09032 0.30533 0.43964 0.0
C276 C 0.05593 0.28569 0.41085 0.0
H277 H 0.90676 0.23679 0.33575 0.0
H278 H 0.97528 0.25589 0.32341 0.0
H279 H -0.00101 0.19131 0.61315 0.0
H280 H 0.97414 0.31665 0.63955 0.0
H281 H 0.00731 0.29925 0.72035 0.0
H282 H 0.9584 0.27762 0.71092 0.0
H283 H 0.99519 0.21439 0.71642 0.0
H284 H 0.04222 0.21201 0.65974 0.0
C285 C 0.05721 0.22992 0.29901 0.0
C286 C 0.02989 0.30022 0.26029 0.0
C287 C 0.1609 0.30037 0.72293 0.0
C288 C 0.15279 0.27902 0.79789 0.0
C289 C 0.11356 0.2646 0.81161 0.0
C290 C 0.08393 0.26905 0.74856 0.0
C291 C 0.09395 0.28712 0.67046 0.0
C292 C 0.13191 0.3026 0.65912 0.0
C293 C 0.13881 0.31796 0.57037 0.0
C294 C 0.09961 0.30617 0.52807 0.0
C295 C 0.07292 0.28938 0.58752 0.0
C296 C 0.17596 0.29661 0.53012 0.0
C297 C 0.14314 0.36398 0.57644 0.0
C298 C 0.92955 0.23987 0.54925 0.0
C299 C 0.90592 0.23488 0.47516 0.0
C300 C 0.92382 0.2404 0.39412 0.0
C301 C 0.96366 0.2519 0.38655 0.0
C302 C 0.98648 0.25752 0.46033 0.0
C303 C 0.9699 0.25115 0.54021 0.0
C304 C 0.00025 0.25785 0.61051 0.0
C305 C 0.03559 0.27387 0.55922 0.0
C306 C 0.02732 0.27246 0.47134 0.0
C307 C 0.00965 0.21698 0.65263 0.0
C308 C 0.98422 0.28952 0.67421 0.0
H309 H 0.16291 0.35281 0.40474 0.0
H310 H 0.1135 0.26306 0.17402 0.0
H311 H 0.04474 0.32573 0.22761 0.0
H312 H 0.0058 0.31392 0.29967 0.0
H313 H 0.01605 0.28148 0.2094 0.0
H314 H 0.08202 0.21437 0.33239 0.0
H315 H 0.05965 0.22314 0.22952 0.0
H316 H 0.02908 0.21654 0.32236 0.0
H317 H 0.19035 0.31262 0.71085 0.0
H318 H 0.10613 0.24866 0.86963 0.0
H319 H 0.05473 0.25717 0.76146 0.0
H320 H 0.19376 0.27944 0.57713 0.0
H321 H 0.19726 0.31824 0.50171 0.0
H322 H 0.16726 0.2743 0.48066 0.0
H323 H 0.1215 0.37681 0.62334 0.0
H324 H 0.13654 0.37893 0.51523 0.0
H325 H 0.17371 0.37242 0.59758 0.0
H326 H 0.20487 0.34001 0.28214 0.0
C327 C 0.15219 0.3324 0.357 0.0
C328 C 0.73047 0.87388 0.75917 0.0
C329 C 0.71223 0.83583 0.76395 0.0
C330 C 0.68214 0.82579 0.70432 0.0
C331 C 0.69745 0.88465 0.62377 0.0
C332 C 0.72191 0.89827 0.68849 0.0
C333 C 0.73749 0.93971 0.66922 0.0
H334 H 0.77048 0.08048 0.36572 0.0
C335 C 0.70189 0.91084 0.54999 0.0
C336 C 0.72419 0.94415 0.57618 0.0
H337 H 0.77602 0.0949 0.64115 0.0
H338 H 0.7585 0.02532 0.65892 0.0
H339 H 0.81385 0.9968 0.36022 0.0
H340 H 0.68951 0.02757 0.35337 0.0
H341 H 0.70183 0.99256 0.27118 0.0
H342 H 0.72654 0.04015 0.27428 0.0
H343 H 0.78808 0.00174 0.26071 0.0
H344 H 0.79007 0.95451 0.31601 0.0
C345 C 0.78349 0.94021 0.67746 0.0
C346 C 0.71635 0.97008 0.72982 0.0
C347 C 0.6923 0.8413 0.26409 0.0
C348 C 0.71222 0.84834 0.18663 0.0
C349 C 0.72869 0.88662 0.17191 0.0
C350 C 0.72786 0.91623 0.23615 0.0
C351 C 0.71148 0.90705 0.31652 0.0
C352 C 0.69391 0.8701 0.32914 0.0
C353 C 0.68148 0.86368 0.42035 0.0
C354 C 0.6973 0.90186 0.46176 0.0
C355 C 0.71351 0.92768 0.40029 0.0
C356 C 0.70176 0.82497 0.45515 0.0
C357 C 0.63526 0.86232 0.42274 0.0
C358 C 0.76826 0.06868 0.42993 0.0
C359 C 0.7742 0.09356 0.502 0.0
C360 C 0.77132 0.07671 0.58445 0.0
C361 C 0.76084 0.03648 0.59505 0.0
C362 C 0.75332 0.01274 0.52275 0.0
C363 C 0.75753 0.02856 0.44174 0.0
C364 C 0.74759 0.99837 0.37278 0.0
C365 C 0.73198 0.96397 0.42657 0.0
C366 C 0.73675 0.97223 0.51413 0.0
C367 C 0.78671 0.98729 0.32446 0.0
C368 C 0.71464 0.01549 0.3143 0.0
H369 H 0.65166 0.84132 0.59071 0.0
H370 H 0.75188 0.88353 0.80685 0.0
H371 H 0.69253 0.95593 0.76918 0.0
H372 H 0.70121 0.99418 0.69357 0.0
H373 H 0.73775 0.98404 0.77534 0.0
H374 H 0.797 0.91596 0.63787 0.0
H375 H 0.79265 0.93574 0.745 0.0
H376 H 0.79649 0.96884 0.65583 0.0
H377 H 0.67897 0.81244 0.27726 0.0
H378 H 0.74367 0.89315 0.11208 0.0
H379 H 0.74136 0.94458 0.22224 0.0
H380 H 0.71596 0.80638 0.40449 0.0
H381 H 0.67994 0.80491 0.48681 0.0
H382 H 0.7263 0.83197 0.50052 0.0
H383 H 0.62222 0.88497 0.37898 0.0
H384 H 0.62302 0.86962 0.48668 0.0
H385 H 0.62413 0.83242 0.40237 0.0
H386 H 0.6656 0.79801 0.70904 0.0
C387 C 0.67442 0.85032 0.63479 0.0
C388 C 0.62482 0.21588 0.24522 0.0
C389 C 0.66381 0.19993 0.24858 0.0
C390 C 0.67591 0.17226 0.18494 0.0
C391 C 0.61651 0.18649 0.10467 0.0
C392 C 0.60133 0.20808 0.17268 0.0
C393 C 0.55949 0.22248 0.15457 0.0
H394 H 0.41712 0.2611 0.85784 0.0
C395 C 0.5903 0.19202 0.0309 0.0
C396 C 0.55595 0.21186 0.05965 0.0
H397 H 0.40662 0.26123 0.13451 0.0
H398 H 0.47517 0.24217 0.14702 0.0
H399 H 0.49864 0.30521 0.85485 0.0
H400 H 0.47399 0.1798 0.83249 0.0
H401 H 0.50734 0.19658 0.75107 0.0
H402 H 0.45851 0.21845 0.7601 0.0
H403 H 0.49586 0.28135 0.75232 0.0
H404 H 0.5424 0.28447 0.81021 0.0
C405 C 0.55743 0.26819 0.17011 0.0
C406 C 0.52994 0.19822 0.21089 0.0
C407 C 0.66072 0.19578 0.74668 0.0
C408 C 0.65263 0.21708 0.67173 0.0
C409 C 0.61339 0.23137 0.65817 0.0
C410 C 0.58375 0.22694 0.72147 0.0
C411 C 0.5938 0.20908 0.79966 0.0
C412 C 0.63175 0.19366 0.81081 0.0
C413 C 0.63869 0.17868 0.89978 0.0
C414 C 0.59953 0.19067 0.94236 0.0
C415 C 0.57284 0.20718 0.88288 0.0
C416 C 0.6759 0.20017 0.93915 0.0
C417 C 0.64296 0.13263 0.89454 0.0
C418 C 0.42966 0.25704 0.92099 0.0
C419 C 0.40594 0.2624 -0.00498 0.0
C420 C 0.42374 0.25731 0.07614 0.0
C421 C 0.4636 0.24586 0.08384 0.0
C422 C 0.48648 0.23985 0.01009 0.0
C423 C 0.46997 0.24579 0.93015 0.0
C424 C 0.50032 0.23868 0.8598 0.0
C425 C 0.53557 0.22289 0.91122 0.0
C426 C 0.52732 0.22479 -0.00085 0.0
C427 C 0.5098 0.27932 0.8166 0.0
C428 C 0.48423 0.20668 0.79704 0.0
H429 H 0.66275 0.14457 0.06585 0.0
H430 H 0.61375 0.23537 0.29552 0.0
H431 H 0.54472 0.17288 0.24411 0.0
H432 H 0.50581 0.18434 0.17211 0.0
H433 H 0.51614 0.21728 0.2614 0.0
H434 H 0.58214 0.28355 0.13566 0.0
H435 H 0.56013 0.27535 0.23936 0.0
H436 H 0.52921 0.2814 0.1472 0.0
H437 H 0.69019 0.18363 0.7586 0.0
H438 H 0.60598 0.24723 0.60012 0.0
H439 H 0.55456 0.23873 0.70869 0.0
H440 H 0.69373 0.21708 0.89158 0.0
H441 H 0.69715 0.17865 0.96781 0.0
H442 H 0.66724 0.22274 -0.0118 0.0
H443 H 0.62125 0.11962 0.84823 0.0
H444 H 0.63641 0.11795 0.95615 0.0
H445 H 0.6735 0.12409 0.8731 0.0
H446 H 0.70479 0.15769 0.18775 0.0
C447 C 0.65214 0.16523 0.11331 0.0
C448 C 0.27168 0.12626 0.22854 0.0
C449 C 0.28821 0.16518 0.22827 0.0
C450 C 0.31505 0.1762 0.29374 0.0
C451 C 0.29974 0.11542 0.36882 0.0
C452 C 0.27837 0.10156 0.29948 0.0
C453 C 0.26282 0.0597 0.31456 0.0
H454 H 0.22075 0.9155 0.60578 0.0
C455 C 0.29302 0.08823 0.44057 0.0
C456 C 0.27228 0.05482 0.40948 0.0
H457 H 0.22506 0.90409 0.32961 0.0
H458 H 0.24221 0.97398 0.31795 0.0
H459 H 0.30054 0.97042 0.63443 0.0
H460 H 0.1761 0.99929 0.60712 0.0
H461 H 0.19784 0.04084 0.6588 0.0
H462 H 0.19799 0.99264 0.71043 0.0
H463 H 0.26083 0.95528 0.70506 0.0
H464 H 0.28358 0.00351 0.71669 0.0
C465 C 0.28692 0.03011 0.25737 0.0
C466 C 0.21733 0.05847 0.2977 0.0
C467 C 0.29847 0.15218 0.73197 0.0
C468 C 0.27552 0.14573 0.80582 0.0
C469 C 0.2563 0.10841 0.81596 0.0
C470 C 0.25772 0.0794 0.75019 0.0
C471 C 0.27739 0.08845 0.67298 0.0
C472 C 0.29712 0.12453 0.66514 0.0
C473 C 0.31072 0.13274 0.57551 0.0
C474 C 0.29485 0.0959 0.52971 0.0
C475 C 0.27674 0.06938 0.58737 0.0
C476 C 0.35697 0.13341 0.57522 0.0
C477 C 0.29114 0.17246 0.54395 0.0
C478 C 0.22509 0.92804 0.54273 0.0
C479 C 0.22201 0.90389 0.46872 0.0
C480 C 0.22756 0.92168 0.38779 0.0
C481 C 0.23781 0.96213 0.38078 0.0
C482 C 0.24241 0.98521 0.45513 0.0
C483 C 0.23563 0.96846 0.53453 0.0
C484 C 0.24256 0.99814 0.6062 0.0
C485 C 0.25945 0.03331 0.55657 0.0
C486 C 0.2579 0.02592 0.46811 0.0
C487 C 0.2735 0.981 0.6694 0.0
C488 C 0.2017 0.00824 0.64835 0.0
H489 H 0.34133 0.16116 0.41234 0.0
H490 H 0.25269 0.11604 0.17686 0.0
H491 H 0.20189 0.0825 0.33458 0.0
H492 H 0.20386 0.02969 0.31689 0.0
H493 H 0.21088 0.06281 0.2287 0.0
H494 H 0.31252 0.0448 0.22456 0.0
H495 H 0.26793 0.01673 0.20647 0.0
H496 H 0.30027 0.00559 0.29541 0.0
H497 H 0.3138 0.1803 0.72165 0.0
H498 H 0.2388 0.10235 0.87281 0.0
H499 H 0.24205 0.05179 0.76011 0.0
H500 H 0.36919 0.10922 0.6162 0.0
H501 H 0.36837 0.16241 0.60029 0.0
H502 H 0.36969 0.12796 0.51085 0.0
H503 H 0.27291 0.18779 0.59375 0.0
H504 H 0.26987 0.16728 0.4907 0.0
H505 H 0.31392 0.19462 0.52363 0.0
H506 H 0.32987 0.20501 0.29341 0.0
C507 C 0.32122 0.1512 0.36352 0.0
C508 C 0.56494 0.73625 0.0363 0.0
C509 C 0.58936 0.73266 0.96298 0.0
C510 C 0.57232 0.73921 0.88172 0.0
C511 C 0.50869 0.75495 0.94758 0.0
C512 C 0.52487 0.74759 0.0272 0.0
C513 C 0.49487 0.75406 0.0982 0.0
H514 H 0.3086 0.81465 0.20978 0.0
C515 C 0.46781 0.77006 0.96002 0.0
C516 C 0.45983 0.77084 0.04825 0.0
H517 H 0.39152 0.7464 0.36254 0.0
H518 H 0.44201 0.75318 0.25139 0.0
H519 H 0.37736 0.87595 0.11332 0.0
H520 H 0.30393 0.77711 0.07793 0.0
H521 H 0.32689 0.77445 0.97708 0.0
H522 H 0.29718 0.8175 0.00704 0.0
H523 H 0.3246 0.87234 0.09329 0.0
H524 H 0.36012 0.87709 0.00674 0.0
C525 C 0.51155 0.78505 0.16265 0.0
C526 C 0.485 0.71292 0.13876 0.0
C527 C 0.36851 0.78083 0.71803 0.0
C528 C 0.32901 0.7957 0.71725 0.0
C529 C 0.31677 0.82227 0.78271 0.0
C530 C 0.3412 0.82937 0.85334 0.0
C531 C 0.37762 0.80913 0.85925 0.0
C532 C 0.39262 0.78849 0.7897 0.0
C533 C 0.43479 0.77429 0.80577 0.0
C534 C 0.43879 0.7837 0.90107 0.0
C535 C 0.4045 0.80309 0.93181 0.0
C536 C 0.46388 0.79954 0.75044 0.0
C537 C 0.43747 0.72885 0.78752 0.0
C538 C 0.33769 0.80135 0.22036 0.0
C539 C 0.34564 0.77925 0.29439 0.0
C540 C 0.38427 0.76308 0.30546 0.0
C541 C 0.41332 0.76653 0.24054 0.0
C542 C 0.40317 0.78529 0.16321 0.0
C543 C 0.36583 0.80236 0.15455 0.0
C544 C 0.35785 0.81687 0.06561 0.0
C545 C 0.39605 0.80385 0.02072 0.0
C546 C 0.42298 0.78658 0.07855 0.0
C547 C 0.35452 0.86302 0.06946 0.0
C548 C 0.31969 0.79567 0.02978 0.0
H549 H 0.52091 0.75566 0.81075 0.0
H550 H 0.5769 0.73111 0.0996 0.0
H551 H 0.49417 0.68752 0.09674 0.0
H552 H 0.45246 0.70872 0.14857 0.0
H553 H 0.50054 0.70909 0.20091 0.0
H554 H 0.52268 0.81197 0.12852 0.0
H555 H 0.53679 0.77229 0.19959 0.0
H556 H 0.48863 0.79551 0.20861 0.0
H557 H 0.37958 0.76214 0.66636 0.0
H558 H 0.28741 0.83591 0.78198 0.0
H559 H 0.33037 0.84909 0.90234 0.0
H560 H 0.44879 0.82546 0.72003 0.0
H561 H 0.47726 0.7814 0.69791 0.0
H562 H 0.48835 0.81268 0.78937 0.0
H563 H 0.41358 0.7126 0.82269 0.0
H564 H 0.46634 0.71603 0.80767 0.0
H565 H 0.43393 0.72247 0.71812 0.0
H566 H 0.59028 0.7367 0.82417 0.0
C567 C 0.5322 0.75054 0.8738 0.0
loop_
_geom_bond_atom_site_label_1
_geom_bond_atom_site_label_2
_geom_bond_distance
_geom_bond_site_symmetry_2
_ccdc_geom_bond_type
Sc0 O3 2.025 . S
Sc0 O10 2.105 . S
Sc0 O13 2.105 . S
Sc0 O16 2.105 . S
Sc0 O19 2.105 . S
Sc1 O3 2.025 . S
Sc1 O11 2.105 . S
Sc1 O15 2.105 1_554 S
Sc1 O17 2.105 . S
Sc1 O21 2.105 1_554 S
Sc2 O3 2.025 1_556 S
Sc2 O12 2.105 . S
Sc2 O14 2.105 . S
Sc2 O18 2.105 . S
Sc2 O20 2.105 . S
O3 Sc0 2.025 . S
O3 Sc1 2.025 . S
O3 Sc2 2.025 1_554 S
C4 O10 1.268 . S
C4 O20 1.268 1_554 S
C5 O11 1.268 . S
C5 O19 1.268 . S
C6 O12 1.268 . S
C6 O21 1.268 . S
C7 O13 1.268 . S
C7 O17 1.268 . S
C8 O14 1.268 1_554 S
C8 O16 1.268 . S
C9 O15 1.268 . S
C9 O18 1.268 . S
O10 Sc0 2.105 . S
O10 C4 1.268 . S
O11 Sc1 2.105 . S
O11 C5 1.268 . S
O12 Sc2 2.105 . S
O12 C6 1.268 . S
O13 Sc0 2.105 . S
O13 C7 1.268 . S
O14 Sc2 2.105 . S
O14 C8 1.268 1_556 S
O15 Sc1 2.105 1_556 S
O15 C9 1.268 . S
O16 Sc0 2.105 . S
O16 C8 1.268 . S
O17 Sc1 2.105 . S
O17 C7 1.268 . S
O18 Sc2 2.105 . S
O18 C9 1.268 . S
O19 Sc0 2.105 . S
O19 C5 1.268 . S
O20 Sc2 2.105 . S
O20 C4 1.268 1_556 S
O21 Sc1 2.105 1_556 S
O21 C6 1.268 . S
Sc22 O25 2.025 . S
Sc22 O32 2.105 . S
Sc22 O35 2.105 . S
Sc22 O38 2.105 . S
Sc22 O41 2.105 . S
Sc23 O25 2.025 . S
Sc23 O33 2.105 . S
Sc23 O37 2.105 . S
Sc23 O39 2.105 . S
Sc23 O43 2.105 . S
Sc24 O25 2.025 . S
Sc24 O34 2.105 . S
Sc24 O36 2.105 . S
Sc24 O40 2.105 . S
Sc24 O42 2.105 . S
O25 Sc22 2.025 . S
O25 Sc23 2.025 . S
O25 Sc24 2.025 . S
C26 O32 1.268 . S
C26 O42 1.268 . S
C27 O33 1.268 . S
C27 O41 1.268 . S
C28 O34 1.268 . S
C28 O43 1.268 . S
C29 O35 1.268 . S
C29 O39 1.268 . S
C30 O36 1.268 . S
C30 O38 1.268 . S
C31 O37 1.268 . S
C31 O40 1.268 . S
O32 Sc22 2.105 . S
O32 C26 1.268 . S
O33 Sc23 2.105 . S
O33 C27 1.268 . S
O34 Sc24 2.105 . S
O34 C28 1.268 . S
O35 Sc22 2.105 . S
O35 C29 1.268 . S
O36 Sc24 2.105 . S
O36 C30 1.268 . S
O37 Sc23 2.105 . S
O37 C31 1.268 . S
O38 Sc22 2.105 . S
O38 C30 1.268 . S
O39 Sc23 2.105 . S
O39 C29 1.268 . S
O40 Sc24 2.105 . S
O40 C31 1.268 . S
O41 Sc22 2.105 . S
O41 C27 1.268 . S
O42 Sc24 2.105 . S
O42 C26 1.268 . S
O43 Sc23 2.105 . S
O43 C28 1.268 . S
Sc44 O47 2.025 1_556 S
Sc44 O54 2.105 . S
Sc44 O57 2.105 . S
Sc44 O60 2.105 . S
Sc44 O63 2.105 . S
Sc45 O47 2.025 . S
Sc45 O55 2.105 1_554 S
Sc45 O59 2.105 . S
Sc45 O61 2.105 1_554 S
Sc45 O65 2.105 . S
Sc46 O47 2.025 . S
Sc46 O56 2.105 . S
Sc46 O58 2.105 . S
Sc46 O62 2.105 . S
Sc46 O64 2.105 . S
O47 Sc44 2.025 1_554 S
O47 Sc45 2.025 . S
O47 Sc46 2.025 . S
C48 O54 1.268 1_554 S
C48 O64 1.268 . S
C49 O55 1.268 . S
C49 O63 1.268 . S
C50 O56 1.268 . S
C50 O65 1.268 . S
C51 O57 1.268 . S
C51 O61 1.268 . S
C52 O58 1.268 . S
C52 O60 1.268 1_554 S
C53 O59 1.268 . S
C53 O62 1.268 . S
O54 Sc44 2.105 . S
O54 C48 1.268 1_556 S
O55 Sc45 2.105 1_556 S
O55 C49 1.268 . S
O56 Sc46 2.105 . S
O56 C50 1.268 . S
O57 Sc44 2.105 . S
O57 C51 1.268 . S
O58 Sc46 2.105 . S
O58 C52 1.268 . S
O59 Sc45 2.105 . S
O59 C53 1.268 . S
O60 Sc44 2.105 . S
O60 C52 1.268 1_556 S
O61 Sc45 2.105 1_556 S
O61 C51 1.268 . S
O62 Sc46 2.105 . S
O62 C53 1.268 . S
O63 Sc44 2.105 . S
O63 C49 1.268 . S
O64 Sc46 2.105 . S
O64 C48 1.268 . S
O65 Sc45 2.105 . S
O65 C50 1.268 . S
Sc66 O69 2.025 . S
Sc66 O76 2.105 . S
Sc66 O79 2.105 . S
Sc66 O82 2.105 . S
Sc66 O85 2.105 . S
Sc67 O69 2.025 . S
Sc67 O77 2.105 . S
Sc67 O81 2.105 . S
Sc67 O83 2.105 . S
Sc67 O87 2.105 . S
Sc68 O69 2.025 . S
Sc68 O78 2.105 . S
Sc68 O80 2.105 . S
Sc68 O84 2.105 . S
Sc68 O86 2.105 . S
O69 Sc66 2.025 . S
O69 Sc67 2.025 . S
O69 Sc68 2.025 . S
C70 O76 1.268 . S
C70 O86 1.268 . S
C71 O77 1.268 . S
C71 O85 1.268 . S
C72 O78 1.268 . S
C72 O87 1.268 . S
C73 O79 1.268 . S
C73 O83 1.268 . S
C74 O80 1.268 . S
C74 O82 1.268 . S
C75 O81 1.268 . S
C75 O84 1.268 . S
O76 Sc66 2.105 . S
O76 C70 1.268 . S
O77 Sc67 2.105 . S
O77 C71 1.268 . S
O78 Sc68 2.105 . S
O78 C72 1.268 . S
O79 Sc66 2.105 . S
O79 C73 1.268 . S
O80 Sc68 2.105 . S
O80 C74 1.268 . S
O81 Sc67 2.105 . S
O81 C75 1.268 . S
O82 Sc66 2.105 . S
O82 C74 1.268 . S
O83 Sc67 2.105 . S
O83 C73 1.268 . S
O84 Sc68 2.105 . S
O84 C75 1.268 . S
O85 Sc66 2.105 . S
O85 C71 1.268 . S
O86 Sc68 2.105 . S
O86 C70 1.268 . S
O87 Sc67 2.105 . S
O87 C72 1.268 . S
C88 C89 1.391 . S
C88 C92 1.391 . S
C88 H130 0.948 . S
C89 C88 1.391 . S
C89 C90 1.391 . S
C90 C89 1.391 . S
C90 H146 0.947 . S
C90 C147 1.392 . S
C91 C92 1.391 . S
C91 C95 1.397 . S
C91 C147 1.419 . S
C92 C88 1.391 . S
C92 C91 1.391 . S
C92 C93 1.399 . S
C93 C92 1.399 . S
C93 C96 1.396 . S
C93 C105 1.453 . S
C93 C106 1.684 . S
H94 C118 0.948 . S
C95 C91 1.397 . S
C95 C96 1.394 . S
C95 C114 1.723 1_556 S
C96 C93 1.396 . S
C96 C95 1.394 . S
C96 C126 1.723 . S
H97 C120 0.947 . S
H98 C121 0.948 . S
H99 C127 0.982 . S
H100 C128 0.979 . S
H101 C128 0.980 . S
H102 C128 0.983 . S
H103 C127 0.979 . S
H104 C127 0.977 . S
C105 C93 1.453 . S
C105 H134 0.982 . S
C105 H135 0.979 . S
C105 H136 0.977 . S
C106 C93 1.684 . S
C106 H131 0.979 . S
C106 H132 0.980 . S
C106 H133 0.983 . S
C107 C108 1.391 . S
C107 C112 1.391 . S
C107 H137 0.948 . S
C108 C107 1.391 . S
C108 C109 1.391 . S
C109 C108 1.391 . S
C109 C110 1.392 . S
C109 H138 0.947 . S
C110 C109 1.392 . S
C110 C111 1.419 . S
C110 H139 0.948 . S
C111 C110 1.419 . S
C111 C112 1.391 . S
C111 C115 1.397 . S
C112 C107 1.391 . S
C112 C111 1.391 . S
C112 C113 1.399 . S
C113 C112 1.399 . S
C113 C114 1.396 . S
C113 C116 1.453 . S
C113 C117 1.684 . S
C114 C95 1.723 1_554 S
C114 C113 1.396 . S
C114 C115 1.394 . S
C115 C111 1.397 . S
C115 C114 1.394 . S
C115 C125 1.723 . S
C116 C113 1.453 . S
C116 H140 0.982 . S
C116 H141 0.979 . S
C116 H142 0.977 1_554 S
C117 C113 1.684 . S
C117 H143 0.979 . S
C117 H144 0.980 1_554 S
C117 H145 0.983 . S
C118 H94 0.948 . S
C118 C119 1.391 1_554 S
C118 C123 1.391 . S
C119 C118 1.391 1_556 S
C119 C120 1.391 . S
C120 H97 0.947 . S
C120 C119 1.391 . S
C120 C121 1.392 . S
C121 H98 0.948 . S
C121 C120 1.392 . S
C121 C122 1.419 . S
C122 C121 1.419 . S
C122 C123 1.391 1_556 S
C122 C126 1.397 . S
C123 C118 1.391 . S
C123 C122 1.391 1_554 S
C123 C124 1.399 . S
C124 C123 1.399 . S
C124 C125 1.396 . S
C124 C127 1.453 . S
C124 C128 1.684 . S
C125 C115 1.723 . S
C125 C124 1.396 . S
C125 C126 1.394 1_554 S
C126 C96 1.723 . S
C126 C122 1.397 . S
C126 C125 1.394 1_556 S
C127 H99 0.982 . S
C127 H103 0.979 . S
C127 H104 0.977 . S
C127 C124 1.453 . S
C128 H100 0.979 . S
C128 H101 0.980 . S
C128 H102 0.983 . S
C128 C124 1.684 . S
H129 C147 0.948 . S
H130 C88 0.948 . S
H131 C106 0.979 . S
H132 C106 0.980 . S
H133 C106 0.983 . S
H134 C105 0.982 . S
H135 C105 0.979 . S
H136 C105 0.977 . S
H137 C107 0.948 . S
H138 C109 0.947 . S
H139 C110 0.948 . S
H140 C116 0.982 . S
H141 C116 0.979 . S
H142 C116 0.977 1_556 S
H143 C117 0.979 . S
H144 C117 0.980 1_556 S
H145 C117 0.983 . S
H146 C90 0.947 . S
C147 C90 1.392 . S
C147 C91 1.419 . S
C147 H129 0.948 . S
C148 C149 1.391 . S
C148 C152 1.391 . S
C148 H190 0.948 . S
C149 C148 1.391 . S
C149 C150 1.391 . S
C150 C149 1.391 . S
C150 H206 0.947 . S
C150 C207 1.392 . S
C151 C152 1.391 . S
C151 C155 1.397 . S
C151 C207 1.419 . S
C152 C148 1.391 . S
C152 C151 1.391 . S
C152 C153 1.399 . S
C153 C152 1.399 . S
C153 C156 1.396 . S
C153 C165 1.453 . S
C153 C166 1.684 . S
H154 C178 0.948 . S
C155 C151 1.397 . S
C155 C156 1.394 . S
C155 C174 1.723 1_455 S
C156 C153 1.396 . S
C156 C155 1.394 . S
C156 C186 1.723 1_455 S
H157 C180 0.947 . S
H158 C181 0.948 . S
H159 C187 0.982 . S
H160 C188 0.979 . S
H161 C188 0.980 . S
H162 C188 0.983 . S
H163 C187 0.979 . S
H164 C187 0.977 . S
C165 C153 1.453 . S
C165 H194 0.982 . S
C165 H195 0.979 . S
C165 H196 0.977 . S
C166 C153 1.684 . S
C166 H191 0.979 . S
C166 H192 0.980 . S
C166 H193 0.983 . S
C167 C168 1.391 . S
C167 C172 1.391 . S
C167 H197 0.948 . S
C168 C167 1.391 . S
C168 C169 1.391 . S
C169 C168 1.391 . S
C169 C170 1.392 . S
C169 H198 0.947 . S
C170 C169 1.392 . S
C170 C171 1.419 . S
C170 H199 0.948 . S
C171 C170 1.419 . S
C171 C172 1.391 . S
C171 C175 1.397 . S
C172 C167 1.391 . S
C172 C171 1.391 . S
C172 C173 1.399 . S
C173 C172 1.399 . S
C173 C174 1.396 . S
C173 C176 1.453 1_655 S
C173 C177 1.684 1_655 S
C174 C155 1.723 1_655 S
C174 C173 1.396 . S
C174 C175 1.394 . S
C175 C171 1.397 . S
C175 C174 1.394 . S
C175 C185 1.723 . S
C176 C173 1.453 1_455 S
C176 H200 0.982 . S
C176 H201 0.979 . S
C176 H202 0.977 . S
C177 C173 1.684 1_455 S
C177 H203 0.979 . S
C177 H204 0.980 . S
C177 H205 0.983 . S
C178 H154 0.948 . S
C178 C179 1.391 . S
C178 C183 1.391 . S
C179 C178 1.391 . S
C179 C180 1.391 . S
C180 H157 0.947 . S
C180 C179 1.391 . S
C180 C181 1.392 . S
C181 H158 0.948 . S
C181 C180 1.392 . S
C181 C182 1.419 . S
C182 C181 1.419 . S
C182 C183 1.391 . S
C182 C186 1.397 . S
C183 C178 1.391 . S
C183 C182 1.391 . S
C183 C184 1.399 . S
C184 C183 1.399 . S
C184 C185 1.396 . S
C184 C187 1.453 . S
C184 C188 1.684 . S
C185 C175 1.723 . S
C185 C184 1.396 . S
C185 C186 1.394 . S
C186 C156 1.723 1_655 S
C186 C182 1.397 . S
C186 C185 1.394 . S
C187 H159 0.982 . S
C187 H163 0.979 . S
C187 H164 0.977 . S
C187 C184 1.453 . S
C188 H160 0.979 . S
C188 H161 0.980 . S
C188 H162 0.983 . S
C188 C184 1.684 . S
H189 C207 0.948 . S
H190 C148 0.948 . S
H191 C166 0.979 . S
H192 C166 0.980 . S
H193 C166 0.983 . S
H194 C165 0.982 . S
H195 C165 0.979 . S
H196 C165 0.977 . S
H197 C167 0.948 . S
H198 C169 0.947 . S
H199 C170 0.948 . S
H200 C176 0.982 . S
H201 C176 0.979 . S
H202 C176 0.977 . S
H203 C177 0.979 . S
H204 C177 0.980 . S
H205 C177 0.983 . S
H206 C150 0.947 . S
C207 C150 1.392 . S
C207 C151 1.419 . S
C207 H189 0.948 . S
C208 C209 1.391 . S
C208 C212 1.391 . S
C208 H250 0.948 . S
C209 C208 1.391 . S
C209 C210 1.391 . S
C210 C209 1.391 . S
C210 H266 0.947 . S
C210 C267 1.392 . S
C211 C212 1.391 . S
C211 C215 1.397 . S
C211 C267 1.419 . S
C212 C208 1.391 . S
C212 C211 1.391 . S
C212 C213 1.399 . S
C213 C212 1.399 . S
C213 C216 1.396 . S
C213 C225 1.453 . S
C213 C226 1.684 . S
H214 C238 0.948 . S
C215 C211 1.397 . S
C215 C216 1.394 . S
C215 C234 1.723 1_554 S
C216 C213 1.396 . S
C216 C215 1.394 . S
C216 C246 1.723 . S
H217 C240 0.947 . S
H218 C241 0.948 . S
H219 C247 0.982 . S
H220 C248 0.979 . S
H221 C248 0.980 . S
H222 C248 0.983 . S
H223 C247 0.979 . S
H224 C247 0.977 . S
C225 C213 1.453 . S
C225 H254 0.982 . S
C225 H255 0.979 . S
C225 H256 0.977 . S
C226 C213 1.684 . S
C226 H251 0.979 . S
C226 H252 0.980 . S
C226 H253 0.983 . S
C227 C228 1.391 . S
C227 C232 1.391 . S
C227 H257 0.948 . S
C228 C227 1.391 . S
C228 C229 1.391 . S
C229 C228 1.391 . S
C229 C230 1.392 . S
C229 H258 0.947 . S
C230 C229 1.392 . S
C230 C231 1.419 . S
C230 H259 0.948 . S
C231 C230 1.419 . S
C231 C232 1.391 . S
C231 C235 1.397 . S
C232 C227 1.391 . S
C232 C231 1.391 . S
C232 C233 1.399 . S
C233 C232 1.399 . S
C233 C234 1.396 . S
C233 C236 1.453 . S
C233 C237 1.684 . S
C234 C215 1.723 1_556 S
C234 C233 1.396 . S
C234 C235 1.394 . S
C235 C231 1.397 . S
C235 C234 1.394 . S
C235 C245 1.723 . S
C236 C233 1.453 . S
C236 H260 0.982 . S
C236 H261 0.979 . S
C236 H262 0.977 1_556 S
C237 C233 1.684 . S
C237 H263 0.979 . S
C237 H264 0.980 1_556 S
C237 H265 0.983 . S
C238 H214 0.948 . S
C238 C239 1.391 1_556 S
C238 C243 1.391 . S
C239 C238 1.391 1_554 S
C239 C240 1.391 . S
C240 H217 0.947 . S
C240 C239 1.391 . S
C240 C241 1.392 . S
C241 H218 0.948 . S
C241 C240 1.392 . S
C241 C242 1.419 . S
C242 C241 1.419 . S
C242 C243 1.391 1_554 S
C242 C246 1.397 . S
C243 C238 1.391 . S
C243 C242 1.391 1_556 S
C243 C244 1.399 . S
C244 C243 1.399 . S
C244 C245 1.396 . S
C244 C247 1.453 . S
C244 C248 1.684 . S
C245 C235 1.723 . S
C245 C244 1.396 . S
C245 C246 1.394 1_556 S
C246 C216 1.723 . S
C246 C242 1.397 . S
C246 C245 1.394 1_554 S
C247 H219 0.982 . S
C247 H223 0.979 . S
C247 H224 0.977 . S
C247 C244 1.453 . S
C248 H220 0.979 . S
C248 H221 0.980 . S
C248 H222 0.983 . S
C248 C244 1.684 . S
H249 C267 0.948 . S
H250 C208 0.948 . S
H251 C226 0.979 . S
H252 C226 0.980 . S
H253 C226 0.983 . S
H254 C225 0.982 . S
H255 C225 0.979 . S
H256 C225 0.977 . S
H257 C227 0.948 . S
H258 C229 0.947 . S
H259 C230 0.948 . S
H260 C236 0.982 . S
H261 C236 0.979 . S
H262 C236 0.977 1_554 S
H263 C237 0.979 . S
H264 C237 0.980 1_554 S
H265 C237 0.983 . S
H266 C210 0.947 . S
C267 C210 1.392 . S
C267 C211 1.419 . S
C267 H249 0.948 . S
C268 C269 1.391 . S
C268 C272 1.391 . S
C268 H310 0.948 . S
C269 C268 1.391 . S
C269 C270 1.391 . S
C270 C269 1.391 . S
C270 H326 0.947 . S
C270 C327 1.392 . S
C271 C272 1.391 . S
C271 C275 1.397 . S
C271 C327 1.419 . S
C272 C268 1.391 . S
C272 C271 1.391 . S
C272 C273 1.399 . S
C273 C272 1.399 . S
C273 C276 1.396 . S
C273 C285 1.453 1_455 S
C273 C286 1.684 1_455 S
H274 C298 0.948 . S
C275 C271 1.397 . S
C275 C276 1.394 . S
C275 C294 1.723 . S
C276 C273 1.396 . S
C276 C275 1.394 . S
C276 C306 1.723 1_455 S
H277 C300 0.947 . S
H278 C301 0.948 . S
H279 C307 0.982 . S
H280 C308 0.979 . S
H281 C308 0.980 . S
H282 C308 0.983 . S
H283 C307 0.979 . S
H284 C307 0.977 . S
C285 C273 1.453 1_655 S
C285 H314 0.982 . S
C285 H315 0.979 . S
C285 H316 0.977 . S
C286 C273 1.684 1_655 S
C286 H311 0.979 . S
C286 H312 0.980 . S
C286 H313 0.983 . S
C287 C288 1.391 . S
C287 C292 1.391 . S
C287 H317 0.948 . S
C288 C287 1.391 . S
C288 C289 1.391 . S
C289 C288 1.391 . S
C289 C290 1.392 . S
C289 H318 0.947 . S
C290 C289 1.392 . S
C290 C291 1.419 . S
C290 H319 0.948 . S
C291 C290 1.419 . S
C291 C292 1.391 . S
C291 C295 1.397 . S
C292 C287 1.391 . S
C292 C291 1.391 . S
C292 C293 1.399 . S
C293 C292 1.399 . S
C293 C294 1.396 . S
C293 C296 1.453 . S
C293 C297 1.684 . S
C294 C275 1.723 . S
C294 C293 1.396 . S
C294 C295 1.394 . S
C295 C291 1.397 . S
C295 C294 1.394 . S
C295 C305 1.723 1_455 S
C296 C293 1.453 . S
C296 H320 0.982 . S
C296 H321 0.979 . S
C296 H322 0.977 . S
C297 C293 1.684 . S
C297 H323 0.979 . S
C297 H324 0.980 . S
C297 H325 0.983 . S
C298 H274 0.948 . S
C298 C299 1.391 . S
C298 C303 1.391 . S
C299 C298 1.391 . S
C299 C300 1.391 . S
C300 H277 0.947 . S
C300 C299 1.391 . S
C300 C301 1.392 . S
C301 H278 0.948 . S
C301 C300 1.392 . S
C301 C302 1.419 . S
C302 C301 1.419 . S
C302 C303 1.391 . S
C302 C306 1.397 . S
C303 C298 1.391 . S
C303 C302 1.391 . S
C303 C304 1.399 . S
C304 C303 1.399 . S
C304 C305 1.396 . S
C304 C307 1.453 . S
C304 C308 1.684 . S
C305 C295 1.723 1_655 S
C305 C304 1.396 . S
C305 C306 1.394 . S
C306 C276 1.723 1_655 S
C306 C302 1.397 . S
C306 C305 1.394 . S
C307 H279 0.982 . S
C307 H283 0.979 . S
C307 H284 0.977 . S
C307 C304 1.453 . S
C308 H280 0.979 . S
C308 H281 0.980 . S
C308 H282 0.983 . S
C308 C304 1.684 . S
H309 C327 0.948 . S
H310 C268 0.948 . S
H311 C286 0.979 . S
H312 C286 0.980 . S
H313 C286 0.983 . S
H314 C285 0.982 . S
H315 C285 0.979 . S
H316 C285 0.977 . S
H317 C287 0.948 . S
H318 C289 0.947 . S
H319 C290 0.948 . S
H320 C296 0.982 . S
H321 C296 0.979 . S
H322 C296 0.977 . S
H323 C297 0.979 . S
H324 C297 0.980 . S
H325 C297 0.983 . S
H326 C270 0.947 . S
C327 C270 1.392 . S
C327 C271 1.419 . S
C327 H309 0.948 . S
C328 C329 1.391 . S
C328 C332 1.391 . S
C328 H370 0.948 . S
C329 C328 1.391 . S
C329 C330 1.391 . S
C330 C329 1.391 . S
C330 H386 0.947 . S
C330 C387 1.392 . S
C331 C332 1.391 . S
C331 C335 1.397 . S
C331 C387 1.419 . S
C332 C328 1.391 . S
C332 C331 1.391 . S
C332 C333 1.399 . S
C333 C332 1.399 . S
C333 C336 1.396 . S
C333 C345 1.453 1_565 S
C333 C346 1.684 1_565 S
H334 C358 0.948 . S
C335 C331 1.397 . S
C335 C336 1.394 . S
C335 C354 1.723 . S
C336 C333 1.396 . S
C336 C335 1.394 . S
C336 C366 1.723 1_565 S
H337 C360 0.947 . S
H338 C361 0.948 . S
H339 C367 0.982 . S
H340 C368 0.979 . S
H341 C368 0.980 . S
H342 C368 0.983 . S
H343 C367 0.979 . S
H344 C367 0.977 . S
C345 C333 1.453 1_545 S
C345 H374 0.982 . S
C345 H375 0.979 . S
C345 H376 0.977 . S
C346 C333 1.684 1_545 S
C346 H371 0.979 . S
C346 H372 0.980 . S
C346 H373 0.983 . S
C347 C348 1.391 . S
C347 C352 1.391 . S
C347 H377 0.948 . S
C348 C347 1.391 . S
C348 C349 1.391 . S
C349 C348 1.391 . S
C349 C350 1.392 . S
C349 H378 0.947 . S
C350 C349 1.392 . S
C350 C351 1.419 . S
C350 H379 0.948 . S
C351 C350 1.419 . S
C351 C352 1.391 . S
C351 C355 1.397 . S
C352 C347 1.391 . S
C352 C351 1.391 . S
C352 C353 1.399 . S
C353 C352 1.399 . S
C353 C354 1.396 . S
C353 C356 1.453 . S
C353 C357 1.684 . S
C354 C335 1.723 . S
C354 C353 1.396 . S
C354 C355 1.394 . S
C355 C351 1.397 . S
C355 C354 1.394 . S
C355 C365 1.723 1_565 S
C356 C353 1.453 . S
C356 H380 0.982 . S
C356 H381 0.979 . S
C356 H382 0.977 . S
C357 C353 1.684 . S
C357 H383 0.979 . S
C357 H384 0.980 . S
C357 H385 0.983 . S
C358 H334 0.948 . S
C358 C359 1.391 . S
C358 C363 1.391 . S
C359 C358 1.391 . S
C359 C360 1.391 . S
C360 H337 0.947 . S
C360 C359 1.391 . S
C360 C361 1.392 . S
C361 H338 0.948 . S
C361 C360 1.392 . S
C361 C362 1.419 . S
C362 C361 1.419 . S
C362 C363 1.391 . S
C362 C366 1.397 . S
C363 C358 1.391 . S
C363 C362 1.391 . S
C363 C364 1.399 . S
C364 C363 1.399 . S
C364 C365 1.396 . S
C364 C367 1.453 . S
C364 C368 1.684 . S
C365 C355 1.723 1_545 S
C365 C364 1.396 . S
C365 C366 1.394 . S
C366 C336 1.723 1_545 S
C366 C362 1.397 . S
C366 C365 1.394 . S
C367 H339 0.982 . S
C367 H343 0.979 . S
C367 H344 0.977 . S
C367 C364 1.453 . S
C368 H340 0.979 . S
C368 H341 0.980 . S
C368 H342 0.983 . S
C368 C364 1.684 . S
H369 C387 0.948 . S
H370 C328 0.948 . S
H371 C346 0.979 . S
H372 C346 0.980 . S
H373 C346 0.983 . S
H374 C345 0.982 . S
H375 C345 0.979 . S
H376 C345 0.977 . S
H377 C347 0.948 . S
H378 C349 0.947 . S
H379 C350 0.948 . S
H380 C356 0.982 . S
H381 C356 0.979 . S
H382 C356 0.977 . S
H383 C357 0.979 . S
H384 C357 0.980 . S
H385 C357 0.983 . S
H386 C330 0.947 . S
C387 C330 1.392 . S
C387 C331 1.419 . S
C387 H369 0.948 . S
C388 C389 1.391 . S
C388 C392 1.391 . S
C388 H430 0.948 . S
C389 C388 1.391 . S
C389 C390 1.391 . S
C390 C389 1.391 . S
C390 H446 0.947 . S
C390 C447 1.392 . S
C391 C392 1.391 . S
C391 C395 1.397 . S
C391 C447 1.419 . S
C392 C388 1.391 . S
C392 C391 1.391 . S
C392 C393 1.399 . S
C393 C392 1.399 . S
C393 C396 1.396 . S
C393 C405 1.453 . S
C393 C406 1.684 . S
H394 C418 0.948 . S
C395 C391 1.397 . S
C395 C396 1.394 . S
C395 C414 1.723 1_554 S
C396 C393 1.396 . S
C396 C395 1.394 . S
C396 C426 1.723 . S
H397 C420 0.947 . S
H398 C421 0.948 . S
H399 C427 0.982 . S
H400 C428 0.979 . S
H401 C428 0.980 . S
H402 C428 0.983 . S
H403 C427 0.979 . S
H404 C427 0.977 . S
C405 C393 1.453 . S
C405 H434 0.982 . S
C405 H435 0.979 . S
C405 H436 0.977 . S
C406 C393 1.684 . S
C406 H431 0.979 . S
C406 H432 0.980 . S
C406 H433 0.983 . S
C407 C408 1.391 . S
C407 C412 1.391 . S
C407 H437 0.948 . S
C408 C407 1.391 . S
C408 C409 1.391 . S
C409 C408 1.391 . S
C409 C410 1.392 . S
C409 H438 0.947 . S
C410 C409 1.392 . S
C410 C411 1.419 . S
C410 H439 0.948 . S
C411 C410 1.419 . S
C411 C412 1.391 . S
C411 C415 1.397 . S
C412 C407 1.391 . S
C412 C411 1.391 . S
C412 C413 1.399 . S
C413 C412 1.399 . S
C413 C414 1.396 . S
C413 C416 1.453 . S
C413 C417 1.684 . S
C414 C395 1.723 1_556 S
C414 C413 1.396 . S
C414 C415 1.394 . S
C415 C411 1.397 . S
C415 C414 1.394 . S
C415 C425 1.723 . S
C416 C413 1.453 . S
C416 H440 0.982 . S
C416 H441 0.979 . S
C416 H442 0.977 1_556 S
C417 C413 1.684 . S
C417 H443 0.979 . S
C417 H444 0.980 1_556 S
C417 H445 0.983 . S
C418 H394 0.948 . S
C418 C419 1.391 1_556 S
C418 C423 1.391 . S
C419 C418 1.391 1_554 S
C419 C420 1.391 . S
C420 H397 0.947 . S
C420 C419 1.391 . S
C420 C421 1.392 . S
C421 H398 0.948 . S
C421 C420 1.392 . S
C421 C422 1.419 . S
C422 C421 1.419 . S
C422 C423 1.391 1_554 S
C422 C426 1.397 . S
C423 C418 1.391 . S
C423 C422 1.391 1_556 S
C423 C424 1.399 . S
C424 C423 1.399 . S
C424 C425 1.396 . S
C424 C427 1.453 . S
C424 C428 1.684 . S
C425 C415 1.723 . S
C425 C424 1.396 . S
C425 C426 1.394 1_556 S
C426 C396 1.723 . S
C426 C422 1.397 . S
C426 C425 1.394 1_554 S
C427 H399 0.982 . S
C427 H403 0.979 . S
C427 H404 0.977 . S
C427 C424 1.453 . S
C428 H400 0.979 . S
C428 H401 0.980 . S
C428 H402 0.983 . S
C428 C424 1.684 . S
H429 C447 0.948 . S
H430 C388 0.948 . S
H431 C406 0.979 . S
H432 C406 0.980 . S
H433 C406 0.983 . S
H434 C405 0.982 . S
H435 C405 0.979 . S
H436 C405 0.977 . S
H437 C407 0.948 . S
H438 C409 0.947 . S
H439 C410 0.948 . S
H440 C416 0.982 . S
H441 C416 0.979 . S
H442 C416 0.977 1_554 S
H443 C417 0.979 . S
H444 C417 0.980 1_554 S
H445 C417 0.983 . S
H446 C390 0.947 . S
C447 C390 1.392 . S
C447 C391 1.419 . S
C447 H429 0.948 . S
C448 C449 1.391 . S
C448 C452 1.391 . S
C448 H490 0.948 . S
C449 C448 1.391 . S
C449 C450 1.391 . S
C450 C449 1.391 . S
C450 H506 0.947 . S
C450 C507 1.392 . S
C451 C452 1.391 . S
C451 C455 1.397 . S
C451 C507 1.419 . S
C452 C448 1.391 . S
C452 C451 1.391 . S
C452 C453 1.399 . S
C453 C452 1.399 . S
C453 C456 1.396 . S
C453 C465 1.453 1_545 S
C453 C466 1.684 1_545 S
H454 C478 0.948 . S
C455 C451 1.397 . S
C455 C456 1.394 . S
C455 C474 1.723 . S
C456 C453 1.396 . S
C456 C455 1.394 . S
C456 C486 1.723 1_545 S
H457 C480 0.947 . S
H458 C481 0.948 . S
H459 C487 0.982 . S
H460 C488 0.979 . S
H461 C488 0.980 . S
H462 C488 0.983 . S
H463 C487 0.979 . S
H464 C487 0.977 . S
C465 C453 1.453 1_565 S
C465 H494 0.982 1_565 S
C465 H495 0.979 . S
C465 H496 0.977 . S
C466 C453 1.684 1_565 S
C466 H491 0.979 . S
C466 H492 0.980 . S
C466 H493 0.983 . S
C467 C468 1.391 . S
C467 C472 1.391 . S
C467 H497 0.948 . S
C468 C467 1.391 . S
C468 C469 1.391 . S
C469 C468 1.391 . S
C469 C470 1.392 . S
C469 H498 0.947 . S
C470 C469 1.392 . S
C470 C471 1.419 . S
C470 H499 0.948 . S
C471 C470 1.419 . S
C471 C472 1.391 . S
C471 C475 1.397 . S
C472 C467 1.391 . S
C472 C471 1.391 . S
C472 C473 1.399 . S
C473 C472 1.399 . S
C473 C474 1.396 . S
C473 C476 1.453 . S
C473 C477 1.684 . S
C474 C455 1.723 . S
C474 C473 1.396 . S
C474 C475 1.394 . S
C475 C471 1.397 . S
C475 C474 1.394 . S
C475 C485 1.723 1_545 S
C476 C473 1.453 . S
C476 H500 0.982 . S
C476 H501 0.979 . S
C476 H502 0.977 . S
C477 C473 1.684 . S
C477 H503 0.979 . S
C477 H504 0.980 . S
C477 H505 0.983 . S
C478 H454 0.948 . S
C478 C479 1.391 . S
C478 C483 1.391 . S
C479 C478 1.391 . S
C479 C480 1.391 . S
C480 H457 0.947 . S
C480 C479 1.391 . S
C480 C481 1.392 . S
C481 H458 0.948 . S
C481 C480 1.392 . S
C481 C482 1.419 . S
C482 C481 1.419 . S
C482 C483 1.391 . S
C482 C486 1.397 . S
C483 C478 1.391 . S
C483 C482 1.391 . S
C483 C484 1.399 . S
C484 C483 1.399 . S
C484 C485 1.396 . S
C484 C487 1.453 . S
C484 C488 1.684 . S
C485 C475 1.723 1_565 S
C485 C484 1.396 . S
C485 C486 1.394 . S
C486 C456 1.723 1_565 S
C486 C482 1.397 . S
C486 C485 1.394 . S
C487 H459 0.982 . S
C487 H463 0.979 . S
C487 H464 0.977 . S
C487 C484 1.453 . S
C488 H460 0.979 . S
C488 H461 0.980 . S
C488 H462 0.983 . S
C488 C484 1.684 . S
H489 C507 0.948 . S
H490 C448 0.948 . S
H491 C466 0.979 . S
H492 C466 0.980 . S
H493 C466 0.983 . S
H494 C465 0.982 1_545 S
H495 C465 0.979 . S
H496 C465 0.977 . S
H497 C467 0.948 . S
H498 C469 0.947 . S
H499 C470 0.948 . S
H500 C476 0.982 . S
H501 C476 0.979 . S
H502 C476 0.977 . S
H503 C477 0.979 . S
H504 C477 0.980 . S
H505 C477 0.983 . S
H506 C450 0.947 . S
C507 C450 1.392 . S
C507 C451 1.419 . S
C507 H489 0.948 . S
C508 C509 1.391 1_554 S
C508 C512 1.391 . S
C508 H550 0.948 . S
C509 C508 1.391 1_556 S
C509 C510 1.391 . S
C510 C509 1.391 . S
C510 H566 0.947 . S
C510 C567 1.392 . S
C511 C512 1.391 1_556 S
C511 C515 1.397 . S
C511 C567 1.419 . S
C512 C508 1.391 . S
C512 C511 1.391 1_554 S
C512 C513 1.399 . S
C513 C512 1.399 . S
C513 C516 1.396 . S
C513 C525 1.453 . S
C513 C526 1.684 . S
H514 C538 0.948 . S
C515 C511 1.397 . S
C515 C516 1.394 1_556 S
C515 C534 1.723 . S
C516 C513 1.396 . S
C516 C515 1.394 1_554 S
C516 C546 1.723 . S
H517 C540 0.947 . S
H518 C541 0.948 . S
H519 C547 0.982 . S
H520 C548 0.979 . S
H521 C548 0.980 1_556 S
H522 C548 0.983 . S
H523 C547 0.979 . S
H524 C547 0.977 1_556 S
C525 C513 1.453 . S
C525 H554 0.982 . S
C525 H555 0.979 . S
C525 H556 0.977 . S
C526 C513 1.684 . S
C526 H551 0.979 . S
C526 H552 0.980 . S
C526 H553 0.983 . S
C527 C528 1.391 . S
C527 C532 1.391 . S
C527 H557 0.948 . S
C528 C527 1.391 . S
C528 C529 1.391 . S
C529 C528 1.391 . S
C529 C530 1.392 . S
C529 H558 0.947 . S
C530 C529 1.392 . S
C530 C531 1.419 . S
C530 H559 0.948 . S
C531 C530 1.419 . S
C531 C532 1.391 . S
C531 C535 1.397 . S
C532 C527 1.391 . S
C532 C531 1.391 . S
C532 C533 1.399 . S
C533 C532 1.399 . S
C533 C534 1.396 . S
C533 C536 1.453 . S
C533 C537 1.684 . S
C534 C515 1.723 . S
C534 C533 1.396 . S
C534 C535 1.394 . S
C535 C531 1.397 . S
C535 C534 1.394 . S
C535 C545 1.723 1_556 S
C536 C533 1.453 . S
C536 H560 0.982 . S
C536 H561 0.979 . S
C536 H562 0.977 . S
C537 C533 1.684 . S
C537 H563 0.979 . S
C537 H564 0.980 . S
C537 H565 0.983 . S
C538 H514 0.948 . S
C538 C539 1.391 . S
C538 C543 1.391 . S
C539 C538 1.391 . S
C539 C540 1.391 . S
C540 H517 0.947 . S
C540 C539 1.391 . S
C540 C541 1.392 . S
C541 H518 0.948 . S
C541 C540 1.392 . S
C541 C542 1.419 . S
C542 C541 1.419 . S
C542 C543 1.391 . S
C542 C546 1.397 . S
C543 C538 1.391 . S
C543 C542 1.391 . S
C543 C544 1.399 . S
C544 C543 1.399 . S
C544 C545 1.396 . S
C544 C547 1.453 . S
C544 C548 1.684 . S
C545 C535 1.723 1_554 S
C545 C544 1.396 . S
C545 C546 1.394 . S
C546 C516 1.723 . S
C546 C542 1.397 . S
C546 C545 1.394 . S
C547 H519 0.982 . S
C547 H523 0.979 . S
C547 H524 0.977 1_554 S
C547 C544 1.453 . S
C548 H520 0.979 . S
C548 H521 0.980 1_554 S
C548 H522 0.983 . S
C548 C544 1.684 . S
H549 C567 0.948 . S
H550 C508 0.948 . S
H551 C526 0.979 . S
H552 C526 0.980 . S
H553 C526 0.983 . S
H554 C525 0.982 . S
H555 C525 0.979 . S
H556 C525 0.977 . S
H557 C527 0.948 . S
H558 C529 0.947 . S
H559 C530 0.948 . S
H560 C536 0.982 . S
H561 C536 0.979 . S
H562 C536 0.977 . S
H563 C537 0.979 . S
H564 C537 0.980 . S
H565 C537 0.983 . S
H566 C510 0.947 . S
C567 C510 1.392 . S
C567 C511 1.419 . S
C567 H549 0.948 . S
C5 C269 1.844 . S
C31 C89 1.845 . S
C168 C53 1.843 . S
C71 C228 1.935 . S
C389 C75 1.844 . S
C468 C9 1.935 . S
C539 C27 1.934 . S
C329 C49 1.845 . S
C51 C179 2.081 . S
C72 C209 1.676 . S
C6 C288 2.081 . S
C108 C29 2.082 . S
C28 C528 1.677 . S
C348 C50 2.081 . S
C408 C73 2.082 . S
C7 C449 1.676 . S
C119 C4 1.842 1_556 S
C149 C30 1.841 . S
C52 C239 1.662 . S
C70 C299 1.841 . S
C359 C74 1.842 . S
C8 C419 1.841 . S
C26 C479 1.662 . S
C48 C509 1.662 1_554 S
