# Generated by pormake.
# Topology ctn, (3,4)-cn, num edge types: 1
# Building blocks:
#     Node 0, Type 0, BuildingBlock: BETDIP_clean_linker_0, # of connection points: 3
#     Node 1, Type 0, BuildingBlock: BETDIP_clean_linker_0, # of connection points: 3
#     Node 2, Type 0, BuildingBlock: BETDIP_clean_linker_0, # of connection points: 3
#     Node 3, Type 0, BuildingBlock: BETDIP_clean_linker_0, # of connection points: 3
#     Node 4, Type 0, BuildingBlock: BETDIP_clean_linker_0, # of connection points: 3
#     Node 5, Type 0, BuildingBlock: BETDIP_clean_linker_0, # of connection points: 3
#     Node 6, Type 0, BuildingBlock: BETDIP_clean_linker_0, # of connection points: 3
#     Node 7, Type 0, BuildingBlock: BETDIP_clean_linker_0, # of connection points: 3
#     Node 8, Type 0, BuildingBlock: BETDIP_clean_linker_0, # of connection points: 3
#     Node 9, Type 0, BuildingBlock: BETDIP_clean_linker_0, # of connection points: 3
#     Node 10, Type 0, BuildingBlock: BETDIP_clean_linker_0, # of connection points: 3
#     Node 11, Type 0, BuildingBlock: BETDIP_clean_linker_0, # of connection points: 3
#     Node 12, Type 0, BuildingBlock: BETDIP_clean_linker_0, # of connection points: 3
#     Node 13, Type 0, BuildingBlock: BETDIP_clean_linker_0, # of connection points: 3
#     Node 14, Type 0, BuildingBlock: BETDIP_clean_linker_0, # of connection points: 3
#     Node 15, Type 0, BuildingBlock: BETDIP_clean_linker_0, # of connection points: 3
#     Node 16, Type 1, BuildingBlock: UXUYUI_clean_sbu_0, # of connection points: 4
#     Node 17, Type 1, BuildingBlock: UXUYUI_clean_sbu_0, # of connection points: 4
#     Node 18, Type 1, BuildingBlock: UXUYUI_clean_sbu_0, # of connection points: 4
#     Node 19, Type 1, BuildingBlock: UXUYUI_clean_sbu_0, # of connection points: 4
#     Node 20, Type 1, BuildingBlock: UXUYUI_clean_sbu_0, # of connection points: 4
#     Node 21, Type 1, BuildingBlock: UXUYUI_clean_sbu_0, # of connection points: 4
#     Node 22, Type 1, BuildingBlock: UXUYUI_clean_sbu_0, # of connection points: 4
#     Node 23, Type 1, BuildingBlock: UXUYUI_clean_sbu_0, # of connection points: 4
#     Node 24, Type 1, BuildingBlock: UXUYUI_clean_sbu_0, # of connection points: 4
#     Node 25, Type 1, BuildingBlock: UXUYUI_clean_sbu_0, # of connection points: 4
#     Node 26, Type 1, BuildingBlock: UXUYUI_clean_sbu_0, # of connection points: 4
#     Node 27, Type 1, BuildingBlock: UXUYUI_clean_sbu_0, # of connection points: 4
#     Edge 28, Type (0, 1), BuildingBlock: AJUNOK_clean_linker_0, # of connection points: 2
#     Edge 29, Type (0, 1), BuildingBlock: AJUNOK_clean_linker_0, # of connection points: 2
#     Edge 30, Type (0, 1), BuildingBlock: AJUNOK_clean_linker_0, # of connection points: 2
#     Edge 31, Type (0, 1), BuildingBlock: AJUNOK_clean_linker_0, # of connection points: 2
#     Edge 32, Type (0, 1), BuildingBlock: AJUNOK_clean_linker_0, # of connection points: 2
#     Edge 33, Type (0, 1), BuildingBlock: AJUNOK_clean_linker_0, # of connection points: 2
#     Edge 34, Type (0, 1), BuildingBlock: AJUNOK_clean_linker_0, # of connection points: 2
#     Edge 35, Type (0, 1), BuildingBlock: AJUNOK_clean_linker_0, # of connection points: 2
#     Edge 36, Type (0, 1), BuildingBlock: AJUNOK_clean_linker_0, # of connection points: 2
#     Edge 37, Type (0, 1), BuildingBlock: AJUNOK_clean_linker_0, # of connection points: 2
#     Edge 38, Type (0, 1), BuildingBlock: AJUNOK_clean_linker_0, # of connection points: 2
#     Edge 39, Type (0, 1), BuildingBlock: AJUNOK_clean_linker_0, # of connection points: 2
#     Edge 40, Type (0, 1), BuildingBlock: AJUNOK_clean_linker_0, # of connection points: 2
#     Edge 41, Type (0, 1), BuildingBlock: AJUNOK_clean_linker_0, # of connection points: 2
#     Edge 42, Type (0, 1), BuildingBlock: AJUNOK_clean_linker_0, # of connection points: 2
#     Edge 43, Type (0, 1), BuildingBlock: AJUNOK_clean_linker_0, # of connection points: 2
#     Edge 44, Type (0, 1), BuildingBlock: AJUNOK_clean_linker_0, # of connection points: 2
#     Edge 45, Type (0, 1), BuildingBlock: AJUNOK_clean_linker_0, # of connection points: 2
#     Edge 46, Type (0, 1), BuildingBlock: AJUNOK_clean_linker_0, # of connection points: 2
#     Edge 47, Type (0, 1), BuildingBlock: AJUNOK_clean_linker_0, # of connection points: 2
#     Edge 48, Type (0, 1), BuildingBlock: AJUNOK_clean_linker_0, # of connection points: 2
#     Edge 49, Type (0, 1), BuildingBlock: AJUNOK_clean_linker_0, # of connection points: 2
#     Edge 50, Type (0, 1), BuildingBlock: AJUNOK_clean_linker_0, # of connection points: 2
#     Edge 51, Type (0, 1), BuildingBlock: AJUNOK_clean_linker_0, # of connection points: 2
#     Edge 52, Type (0, 1), BuildingBlock: AJUNOK_clean_linker_0, # of connection points: 2
#     Edge 53, Type (0, 1), BuildingBlock: AJUNOK_clean_linker_0, # of connection points: 2
#     Edge 54, Type (0, 1), BuildingBlock: AJUNOK_clean_linker_0, # of connection points: 2
#     Edge 55, Type (0, 1), BuildingBlock: AJUNOK_clean_linker_0, # of connection points: 2
#     Edge 56, Type (0, 1), BuildingBlock: AJUNOK_clean_linker_0, # of connection points: 2
#     Edge 57, Type (0, 1), BuildingBlock: AJUNOK_clean_linker_0, # of connection points: 2
#     Edge 58, Type (0, 1), BuildingBlock: AJUNOK_clean_linker_0, # of connection points: 2
#     Edge 59, Type (0, 1), BuildingBlock: AJUNOK_clean_linker_0, # of connection points: 2
#     Edge 60, Type (0, 1), BuildingBlock: AJUNOK_clean_linker_0, # of connection points: 2
#     Edge 61, Type (0, 1), BuildingBlock: AJUNOK_clean_linker_0, # of connection points: 2
#     Edge 62, Type (0, 1), BuildingBlock: AJUNOK_clean_linker_0, # of connection points: 2
#     Edge 63, Type (0, 1), BuildingBlock: AJUNOK_clean_linker_0, # of connection points: 2
#     Edge 64, Type (0, 1), BuildingBlock: AJUNOK_clean_linker_0, # of connection points: 2
#     Edge 65, Type (0, 1), BuildingBlock: AJUNOK_clean_linker_0, # of connection points: 2
#     Edge 66, Type (0, 1), BuildingBlock: AJUNOK_clean_linker_0, # of connection points: 2
#     Edge 67, Type (0, 1), BuildingBlock: AJUNOK_clean_linker_0, # of connection points: 2
#     Edge 68, Type (0, 1), BuildingBlock: AJUNOK_clean_linker_0, # of connection points: 2
#     Edge 69, Type (0, 1), BuildingBlock: AJUNOK_clean_linker_0, # of connection points: 2
#     Edge 70, Type (0, 1), BuildingBlock: AJUNOK_clean_linker_0, # of connection points: 2
#     Edge 71, Type (0, 1), BuildingBlock: AJUNOK_clean_linker_0, # of connection points: 2
#     Edge 72, Type (0, 1), BuildingBlock: AJUNOK_clean_linker_0, # of connection points: 2
#     Edge 73, Type (0, 1), BuildingBlock: AJUNOK_clean_linker_0, # of connection points: 2
#     Edge 74, Type (0, 1), BuildingBlock: AJUNOK_clean_linker_0, # of connection points: 2
#     Edge 75, Type (0, 1), BuildingBlock: AJUNOK_clean_linker_0, # of connection points: 2
# Relax obj value: 0.071
# Max RMSD: 0.193
# Mean RMSD: 0.116
data_MOF--net-ctn--node1-UXUYUI_clean_sbu_0--node2-BETDIP_clean_linker_0--edge1-AJUNOK_clean_linker_0
_symmetry_space_group_name_H-M    P1
_symmetry_Int_Tables_number       1
_symmetry_cell_setting            triclinic
loop_
_symmetry_equiv_pos_as_xyz
'x, y, z'
_cell_length_a     50.562864
_cell_length_b     50.800228
_cell_length_c     55.757724
_cell_angle_alpha  93.394104
_cell_angle_beta   93.576609
_cell_angle_gamma 92.696531
loop_
_atom_site_label
_atom_site_type_symbol
_atom_site_fract_x
_atom_site_fract_y
_atom_site_fract_z
_atom_type_partial_charge
H0 H 0.03936 0.07383 0.0752 0.0
H1 H 0.09677 0.04104 0.03019 0.0
H2 H 0.07892 1.00414 0.09503 0.0
H3 H 0.07082 0.05762 1.00117 0.0
C4 C 0.06613 0.07667 1.00924 0.0
C5 C 0.05361 0.059 0.07177 0.0
C6 C 0.05808 0.03946 0.08824 0.0
C7 C 0.06679 0.05923 0.05045 0.0
C8 C 0.08514 0.03998 0.04577 0.0
C9 C 0.08916 0.01958 0.06134 0.0
C10 C 0.07569 0.01957 0.08271 0.0
N11 N 0.06148 0.07917 0.03417 0.0
H12 H 0.27595 0.69684 0.20341 0.0
H13 H 0.34728 0.74317 0.22633 0.0
H14 H 0.32387 0.67645 0.26544 0.0
H15 H 0.3278 0.77392 0.20476 0.0
C16 C 0.31732 0.76281 0.18954 0.0
C17 C 0.29333 0.70043 0.21577 0.0
C18 C 0.29773 0.68397 0.23485 0.0
C19 C 0.31088 0.72187 0.2126 0.0
C20 C 0.33327 0.72695 0.22876 0.0
C21 C 0.33787 0.71091 0.24814 0.0
C22 C 0.32005 0.68939 0.25099 0.0
N23 N 0.30575 0.73726 0.1925 0.0
H24 H 0.95771 0.50277 0.01508 0.0
H25 H 0.01728 0.47072 0.06154 0.0
H26 H 0.97878 0.54035 0.08543 0.0
H27 H 0.03249 0.45666 0.02565 0.0
C28 C 0.01428 0.45022 0.01515 0.0
C29 C 0.96963 0.50387 0.032 0.0
C30 C 0.9661 0.52406 0.04967 0.0
C31 C 0.98845 0.485 0.03582 0.0
C32 C 1.0034 0.48582 0.05798 0.0
C33 C 0.99995 0.50557 0.07608 0.0
C34 C 0.9812 0.52469 0.07181 0.0
N35 N 0.99127 0.465 0.01735 0.0
H36 H 0.72502 0.78097 0.19681 0.0
H37 H 0.75166 0.84758 0.24478 0.0
H38 H 0.79411 0.8289 0.18227 0.0
H39 H 0.70945 0.84618 0.25413 0.0
C40 C 0.70337 0.82538 0.25357 0.0
C41 C 0.73915 0.7974 0.20168 0.0
C42 C 0.76037 0.80254 0.18717 0.0
C43 C 0.73547 0.81372 0.22224 0.0
C44 C 0.75343 0.83542 0.22843 0.0
C45 C 0.77436 0.84124 0.21387 0.0
C46 C 0.77782 0.82459 0.19341 0.0
N47 N 0.71391 0.80743 0.23651 0.0
H48 H 0.03644 0.96942 0.45345 0.0
H49 H 0.10426 0.99291 0.50173 0.0
H50 H 0.08987 0.03341 0.43713 0.0
H51 H 0.07894 0.97367 0.52879 0.0
C52 C 0.0693 0.95653 0.51871 0.0
C53 C 0.05403 0.98219 0.45801 0.0
C54 C 0.06088 1.00227 0.4429 0.0
C55 C 0.06927 0.97881 0.47938 0.0
C56 C 0.0921 0.99542 0.48545 0.0
C57 C 0.09949 0.01531 0.47031 0.0
C58 C 0.08382 0.01851 0.4491 0.0
N59 N 0.06139 0.95808 0.49392 0.0
H60 H 0.23481 0.75957 0.82131 0.0
H61 H 0.26082 0.69566 0.77638 0.0
H62 H 0.30578 0.72072 0.84248 0.0
H63 H 0.2356 0.71295 0.74757 0.0
C64 C 0.21975 0.72273 0.75619 0.0
C65 C 0.24929 0.74499 0.81776 0.0
C66 C 0.27107 0.74269 0.83428 0.0
C67 C 0.24573 0.72872 0.79663 0.0
C68 C 0.26364 0.70892 0.79233 0.0
C69 C 0.28525 0.70579 0.80888 0.0
C70 C 0.28906 0.72293 0.82974 0.0
N71 N 0.22348 0.73258 0.78061 0.0
H72 H 1.00193 0.59193 0.47149 0.0
H73 H 0.95696 0.5192 0.45147 0.0
H74 H 0.9384 0.56636 0.51405 0.0
H75 H 0.96952 0.52765 0.41447 0.0
C76 C 0.98957 0.53632 0.41745 0.0
C77 C 0.98589 0.5779 0.47467 0.0
C78 C 0.97056 0.58213 0.49458 0.0
C79 C 0.98077 0.55572 0.45866 0.0
C80 C 0.96053 0.53701 0.46308 0.0
C81 C 0.94527 0.54073 0.48309 0.0
C82 C 0.95044 0.56325 0.49881 0.0
N83 N 0.9968 0.55256 0.43872 0.0
H84 H 0.79593 0.82929 0.77145 0.0
H85 H 0.83186 0.77521 0.81821 0.0
H86 H 0.76211 0.8143 0.8386 0.0
H87 H 0.86969 0.79166 0.80012 0.0
C88 C 0.86207 0.79141 0.78145 0.0
C89 C 0.79594 0.81911 0.788 0.0
C90 C 0.77619 0.82355 0.80418 0.0
C91 C 0.81637 0.80234 0.79318 0.0
C92 C 0.81686 0.78925 0.81472 0.0
C93 C 0.79739 0.79348 0.83135 0.0
C94 C 0.77716 0.8108 0.82593 0.0
N95 N 0.83566 0.79861 0.77598 0.0
H96 H 0.29816 0.33349 0.27063 0.0
H97 H 0.33325 0.27904 0.31756 0.0
H98 H 0.26151 0.31598 0.33582 0.0
H99 H 0.37152 0.29647 0.30039 0.0
C100 C 0.36424 0.29592 0.2816 0.0
C101 C 0.29787 0.32316 0.28709 0.0
C102 C 0.27768 0.3273 0.30285 0.0
C103 C 0.31805 0.30617 0.29238 0.0
C104 C 0.31779 0.29247 0.31355 0.0
C105 C 0.29739 0.29574 0.32942 0.0
C106 C 0.27734 0.31323 0.32385 0.0
N107 N 0.33786 0.30285 0.27562 0.0
H108 H 0.45779 1.00064 0.51714 0.0
H109 H 0.51671 0.96872 0.56438 0.0
H110 H 0.47725 0.03789 0.58787 0.0
H111 H 0.50111 0.93042 0.54366 0.0
C112 C 0.49914 0.93634 0.52526 0.0
C113 C 0.46921 1.00157 0.53431 0.0
C114 C 0.46529 0.02172 0.55192 0.0
C115 C 0.48704 0.98197 0.53888 0.0
C116 C 0.50197 0.98308 0.56107 0.0
C117 C 0.4987 1.00324 0.57885 0.0
C118 C 0.48013 0.02242 0.5742 0.0
N119 N 0.48982 0.96165 0.52068 0.0
H120 H 0.22941 0.2752 0.69592 0.0
H121 H 0.25599 0.33998 0.74603 0.0
H122 H 0.29361 0.32843 0.67944 0.0
H123 H 0.23879 0.31245 0.77277 0.0
C124 C 0.22063 0.30442 0.76305 0.0
C125 C 0.24255 0.29245 0.70064 0.0
C126 C 0.26181 0.30007 0.68495 0.0
C127 C 0.24049 0.30644 0.7228 0.0
C128 C 0.25761 0.32875 0.72914 0.0
C129 C 0.27681 0.33685 0.71354 0.0
C130 C 0.27897 0.32221 0.69163 0.0
N131 N 0.22044 0.29803 0.73787 0.0
H132 H 0.77558 0.19825 0.70866 0.0
H133 H 0.84795 0.24377 0.72987 0.0
H134 H 0.82562 0.17691 0.76909 0.0
H135 H 0.82751 0.27554 0.71136 0.0
C136 C 0.81611 0.26551 0.69608 0.0
C137 C 0.79326 0.2018 0.72067 0.0
C138 C 0.79846 0.18486 0.73925 0.0
C139 C 0.81069 0.22331 0.71732 0.0
C140 C 0.83399 0.22756 0.73246 0.0
C141 C 0.83961 0.21075 0.75103 0.0
C142 C 0.82158 0.18966 0.75453 0.0
N143 N 0.80464 0.23968 0.69808 0.0
H144 H 0.53681 0.57269 0.57279 0.0
H145 H 0.59645 0.54176 0.52898 0.0
H146 H 0.5797 0.5057 0.59448 0.0
H147 H 0.59984 0.5835 0.51801 0.0
C148 C 0.57957 0.58974 0.517 0.0
C149 C 0.55185 0.55855 0.56978 0.0
C150 C 0.55653 0.53916 0.58633 0.0
C151 C 0.56654 0.56013 0.54942 0.0
C152 C 0.58559 0.54146 0.5451 0.0
C153 C 0.59053 0.52186 0.5613 0.0
C154 C 0.57571 0.52058 0.58176 0.0
N155 N 0.56148 0.5805 0.53354 0.0
H156 H 0.53668 0.46682 0.95255 0.0
H157 H 0.60462 0.49345 0.99945 0.0
H158 H 0.58616 0.53341 0.93523 0.0
H159 H 0.60151 0.45304 0.01181 0.0
C160 C 0.58057 0.44702 0.01076 0.0
C161 C 0.55363 0.48051 0.95688 0.0
C162 C 0.55948 0.50047 0.94134 0.0
C163 C 0.5699 0.47751 0.97771 0.0
C164 C 0.59201 0.49521 0.98331 0.0
C165 C 0.59799 0.51549 0.96811 0.0
C166 C 0.58179 0.51775 0.947 0.0
N167 N 0.56312 0.45686 0.99277 0.0
H168 H 0.73931 0.26534 0.32182 0.0
H169 H 0.7682 0.20422 0.27545 0.0
H170 H 0.80116 0.21683 0.34827 0.0
H171 H 0.74527 0.22204 0.24651 0.0
C172 C 0.72966 0.23304 0.25421 0.0
C173 C 0.75262 0.24947 0.31907 0.0
C174 C 0.77041 0.24303 0.33796 0.0
C175 C 0.75161 0.2358 0.29653 0.0
C176 C 0.76879 0.21524 0.29267 0.0
C177 C 0.78688 0.20846 0.31119 0.0
C178 C 0.78771 0.2225 0.33381 0.0
N179 N 0.73218 0.24269 0.27874 0.0
H180 H 0.50634 0.09242 0.9761 0.0
H181 H 0.45754 0.02295 0.95267 0.0
H182 H 0.44247 0.06707 0.01812 0.0
H183 H 0.49332 0.01189 0.93331 0.0
C184 C 0.50263 0.0302 0.92813 0.0
C185 C 0.48992 0.07867 0.97887 0.0
C186 C 0.47499 0.08243 0.99907 0.0
C187 C 0.48437 0.05691 0.96243 0.0
C188 C 0.46286 0.03918 0.96578 0.0
C189 C 0.44746 0.04281 0.98577 0.0
C190 C 0.45394 0.06431 1.00247 0.0
N191 N 0.50053 0.05394 0.94255 0.0
Li192 Li 0.29271 0.90395 0.01165 0.0
Li193 Li 0.27472 0.86742 0.03598 0.0
Li194 Li 0.26711 0.86593 0.99264 0.0
Li195 Li 0.24321 0.89594 0.01775 0.0
C196 C 0.31507 0.84683 1.00207 0.0
N197 N 0.34052 0.80561 0.98062 0.0
C198 C 0.30764 0.82078 1.00637 0.0
C199 C 0.33558 0.85198 0.98706 0.0
C200 C 0.32072 0.80019 0.99529 0.0
C201 C 0.34817 0.83084 0.97634 0.0
C202 C 0.2792 0.91076 0.06597 0.0
C203 C 0.26652 0.91018 0.10692 0.0
N204 N 0.29178 0.91806 0.11491 0.0
C205 C 0.30496 0.91912 0.07456 0.0
C206 C 0.25974 0.90649 0.08224 0.0
C207 C 0.31095 0.92261 0.09939 0.0
C208 C 0.31472 0.95101 0.99574 0.0
N209 N 0.32043 0.92955 1.00815 0.0
C210 C 0.36602 0.94448 0.01411 0.0
C211 C 0.34547 0.92587 0.01723 0.0
C212 C 0.36077 0.96689 1.00129 0.0
C213 C 0.33472 0.96985 0.99183 0.0
H214 H 0.29463 0.95332 0.98863 0.0
H215 H 0.34943 0.90847 0.02687 0.0
C216 C 0.26532 0.82902 0.06975 0.0
N217 N 0.28327 0.84753 0.06314 0.0
C218 C 0.27098 0.81457 0.08978 0.0
C219 C 0.31396 0.83776 0.0954 0.0
C220 C 0.30742 0.85184 0.07526 0.0
C221 C 0.2956 0.81882 0.10287 0.0
H222 H 0.24662 0.82534 0.05943 0.0
H223 H 0.32161 0.86619 0.06924 0.0
C224 C 0.25126 0.9039 0.96476 0.0
N225 N 0.23101 0.90252 0.9175 0.0
C226 C 0.22585 0.89274 0.95837 0.0
C227 C 0.26633 0.91456 0.94716 0.0
C228 C 0.21597 0.89217 0.93437 0.0
C229 C 0.25575 0.91362 0.92335 0.0
C230 C 0.21539 0.84985 0.01962 0.0
C231 C 0.19859 0.83932 1.00017 0.0
C232 C 0.20527 0.85387 0.04224 0.0
C233 C 0.172 0.83289 1.00373 0.0
C234 C 0.17856 0.84725 0.04506 0.0
N235 N 0.16262 0.83697 0.02591 0.0
C236 C 0.25448 0.8192 0.96138 0.0
C237 C 0.28402 0.85111 0.94676 0.0
C238 C 0.25619 0.80269 0.94059 0.0
N239 N 0.26781 0.84319 0.96381 0.0
C240 C 0.28655 0.83516 0.92587 0.0
C241 C 0.27215 0.81078 0.92233 0.0
H242 H 0.24285 0.81266 0.97572 0.0
H243 H 0.29552 0.86962 0.94965 0.0
C244 C 0.21717 0.93819 0.03817 0.0
N245 N 0.21226 0.91563 0.02387 0.0
C246 C 0.19647 0.95392 0.04452 0.0
C247 C 0.16573 0.92303 0.02139 0.0
C248 C 0.18713 0.90813 0.01512 0.0
C249 C 0.17026 0.94644 0.03615 0.0
H250 H 0.2373 0.9441 0.04462 0.0
H251 H 0.18349 0.89054 1.00338 0.0
O252 O 0.30202 0.86719 0.01219 0.0
O253 O 0.27308 0.90676 0.04174 0.0
O254 O 0.26142 0.90414 0.9881 0.0
O255 O 0.24157 0.85606 0.01655 0.0
H256 H 0.29171 0.81652 0.01787 0.0
H257 H 0.34147 0.87207 0.98354 0.0
H258 H 0.31507 0.77991 0.9983 0.0
H259 H 0.36397 0.83449 0.96455 0.0
H260 H 0.25169 0.90682 0.11972 0.0
H261 H 0.32022 0.92262 0.06222 0.0
H262 H 0.23962 0.90043 0.07588 0.0
H263 H 0.33086 0.92888 0.1063 0.0
H264 H 0.38579 0.94143 0.02173 0.0
H265 H 0.32987 0.98631 0.98119 0.0
H266 H 0.25611 0.80042 0.09511 0.0
H267 H 0.33325 0.84144 0.10489 0.0
H268 H 0.214 0.88436 0.97175 0.0
H269 H 0.28613 0.9231 0.95175 0.0
H270 H 0.19637 0.88345 0.92915 0.0
H271 H 0.26725 0.92163 0.9095 0.0
H272 H 0.2058 0.83651 0.98241 0.0
H273 H 0.21786 0.86209 0.05747 0.0
H274 H 0.15879 0.82482 0.98882 0.0
H275 H 0.1705 0.85032 0.06247 0.0
H276 H 0.245 0.7839 0.93874 0.0
H277 H 0.29992 0.84174 0.91276 0.0
H278 H 0.20101 0.97196 0.05565 0.0
H279 H 0.14586 0.91611 0.01487 0.0
Li280 Li 0.1219 0.51054 0.281 0.0
Li281 Li 0.15215 0.47996 0.26264 0.0
Li282 Li 0.15826 0.52908 0.25811 0.0
Li283 Li 0.12194 0.50268 0.23585 0.0
C284 C 0.16979 0.51802 0.31069 0.0
N285 N 0.18765 0.53608 0.35688 0.0
C286 C 0.17881 0.50031 0.32725 0.0
C287 C 0.17029 0.54496 0.31753 0.0
C288 C 0.18763 0.50981 0.35055 0.0
C289 C 0.17927 0.55369 0.34097 0.0
C290 C 0.1057 0.45191 0.26442 0.0
C291 C 0.09846 0.40622 0.25021 0.0
N292 N 0.09258 0.39996 0.27272 0.0
C293 C 0.09928 0.44508 0.28735 0.0
C294 C 0.10502 0.43239 0.24563 0.0
C295 C 0.09281 0.4187 0.29121 0.0
C296 C 0.07546 0.52642 0.30117 0.0
N297 N 0.09935 0.51636 0.30682 0.0
C298 C 0.08867 0.51322 0.34777 0.0
C299 C 0.10617 0.50967 0.32956 0.0
C300 C 0.0638 0.52337 0.34239 0.0
C301 C 0.05733 0.53021 0.31879 0.0
H302 H 0.07045 0.53134 0.28289 0.0
H303 H 0.12487 0.50098 0.33351 0.0
C304 C 0.18982 0.44171 0.25292 0.0
N305 N 0.17102 0.44875 0.26813 0.0
C306 C 0.20582 0.42071 0.2578 0.0
C307 C 0.18262 0.41429 0.29375 0.0
C308 C 0.16711 0.43546 0.2882 0.0
C309 C 0.20248 0.40687 0.27858 0.0
H310 H 0.19298 0.45288 0.23736 0.0
H311 H 0.15263 0.4419 0.30042 0.0
C312 C 0.11536 0.56269 0.25776 0.0
N313 N 0.10572 0.61583 0.26229 0.0
C314 C 0.10906 0.57642 0.23733 0.0
C315 C 0.11617 0.5759 0.28052 0.0
C316 C 0.10444 0.6033 0.23998 0.0
C317 C 0.11139 0.60278 0.28244 0.0
C318 C 0.16377 0.49325 0.20989 0.0
C319 C 0.17504 0.51206 0.19576 0.0
C320 C 0.15534 0.46835 0.19944 0.0
C321 C 0.17723 0.5058 0.17125 0.0
C322 C 0.15785 0.46284 0.17487 0.0
N323 N 0.16862 0.48154 0.16139 0.0
C324 C 0.20627 0.56021 0.26985 0.0
C325 C 0.17879 0.57455 0.23769 0.0
C326 C 0.22519 0.58059 0.26708 0.0
N327 N 0.18351 0.55773 0.25537 0.0
C328 C 0.19723 0.59504 0.23416 0.0
C329 C 0.22084 0.59813 0.24889 0.0
H330 H 0.20996 0.54614 0.28331 0.0
H331 H 0.16098 0.57166 0.22592 0.0
C332 C 0.07786 0.48496 0.20343 0.0
N333 N 0.1 0.50137 0.20653 0.0
C334 C 0.06093 0.48543 0.18263 0.0
C335 C 0.09001 0.51951 0.16858 0.0
C336 C 0.10628 0.51845 0.18963 0.0
C337 C 0.06684 0.50306 0.16497 0.0
H338 H 0.07314 0.47177 0.21725 0.0
H339 H 0.12373 0.53162 0.1927 0.0
O340 O 0.161 0.509 0.28781 0.0
O341 O 0.11227 0.47762 0.26035 0.0
O342 O 0.11985 0.5363 0.25547 0.0
O343 O 0.16109 0.49913 0.23386 0.0
H344 H 0.17888 0.47944 0.32225 0.0
H345 H 0.16423 0.55905 0.30477 0.0
H346 H 0.19449 0.49629 0.36359 0.0
H347 H 0.17972 0.5745 0.34649 0.0
H348 H 0.09798 0.39089 0.23584 0.0
H349 H 0.09956 0.45994 0.30208 0.0
H350 H 0.10939 0.43738 0.22768 0.0
H351 H 0.08801 0.41311 0.30891 0.0
H352 H 0.09424 0.5075 0.36573 0.0
H353 H 0.03846 0.53841 0.31403 0.0
H354 H 0.22097 0.41564 0.24568 0.0
H355 H 0.17982 0.40456 0.31024 0.0
H356 H 0.10791 0.56649 0.21959 0.0
H357 H 0.12013 0.56552 0.2966 0.0
H358 H 0.09978 0.61419 0.22429 0.0
H359 H 0.11206 0.61324 0.29995 0.0
H360 H 0.18192 0.53133 0.20359 0.0
H361 H 0.14697 0.45346 0.21019 0.0
H362 H 0.18576 0.52023 0.16007 0.0
H363 H 0.15127 0.44369 0.16652 0.0
H364 H 0.24331 0.58224 0.27863 0.0
H365 H 0.19312 0.60829 0.22002 0.0
H366 H 0.04349 0.47209 0.18034 0.0
H367 H 0.09521 0.53345 0.15546 0.0
Li368 Li 0.76316 0.64941 1.00373 0.0
Li369 Li 0.78522 0.68481 0.02908 0.0
Li370 Li 0.79021 0.68369 0.98602 0.0
Li371 Li 0.81258 0.65096 0.01237 0.0
C372 C 0.73345 0.69122 0.9912 0.0
N373 N 0.68485 0.69688 0.96706 0.0
C374 C 0.71328 0.70348 1.00298 0.0
C375 C 0.7289 0.68184 0.96717 0.0
C376 C 0.68884 0.70614 0.99046 0.0
C377 C 0.70421 0.6849 0.95526 0.0
C378 C 0.768 0.64019 0.05273 0.0
C379 C 0.75786 0.61356 0.08568 0.0
N380 N 0.73567 0.62716 0.08884 0.0
C381 C 0.74516 0.65396 0.05636 0.0
C382 C 0.77448 0.61988 0.06753 0.0
C383 C 0.72904 0.64705 0.07468 0.0
C384 C 0.73616 0.60134 0.98691 0.0
N385 N 0.7328 0.62529 0.99822 0.0
C386 C 0.68663 0.61431 1.00111 0.0
C387 C 0.70866 0.63194 1.00545 0.0
C388 C 0.6895 0.58938 0.98956 0.0
C389 C 0.71467 0.58301 0.98233 0.0
H390 H 0.75559 0.59647 0.98147 0.0
H391 H 0.70637 0.65093 0.01458 0.0
C392 C 0.76693 0.72848 0.05651 0.0
N393 N 0.78225 0.70724 0.05741 0.0
C394 C 0.7633 0.744 0.07747 0.0
C395 C 0.79208 0.71608 0.09969 0.0
C396 C 0.7949 0.70092 0.07836 0.0
C397 C 0.7757 0.73768 0.09952 0.0
H398 H 0.75731 0.73317 0.03955 0.0
H399 H 0.80709 0.68399 0.0785 0.0
C400 C 0.79798 0.63568 0.95876 0.0
N401 N 0.81193 0.61839 0.91358 0.0
C402 C 0.82464 0.63275 0.95441 0.0
C403 C 0.77838 0.62938 0.94025 0.0
C404 C 0.8313 0.6241 0.93141 0.0
C405 C 0.78585 0.62081 0.9175 0.0
C406 C 0.83001 0.71112 0.02571 0.0
C407 C 0.82255 0.73648 0.02081 0.0
C408 C 0.84803 0.70763 0.04516 0.0
C409 C 0.83316 0.75803 0.03564 0.0
C410 C 0.8582 0.72969 0.05956 0.0
N411 N 0.8506 0.75421 0.05455 0.0
C412 C 0.77693 0.7248 0.95555 0.0
C413 C 0.81251 0.70003 0.94267 0.0
C414 C 0.77784 0.73987 0.93541 0.0
N415 N 0.79366 0.70484 0.95853 0.0
C416 C 0.81427 0.71478 0.92235 0.0
C417 C 0.7966 0.73485 0.91842 0.0
H418 H 0.76278 0.72907 0.96879 0.0
H419 H 0.82623 0.68477 0.94573 0.0
C420 C 0.83663 0.60469 0.02477 0.0
N421 N 0.84205 0.62968 0.01835 0.0
C422 C 0.85725 0.58824 0.03028 0.0
C423 C 0.88869 0.62347 0.02232 0.0
C424 C 0.86743 0.63932 0.01706 0.0
C425 C 0.88369 0.59754 0.029 0.0
H426 H 0.81624 0.59759 0.02569 0.0
H427 H 0.87115 0.65934 0.01205 0.0
O428 O 0.7573 0.6879 1.00336 0.0
O429 O 0.7843 0.6468 0.03511 0.0
O430 O 0.79108 0.64393 0.98122 0.0
O431 O 0.81922 0.68974 0.01185 0.0
H432 H 0.71634 0.71056 0.02168 0.0
H433 H 0.74431 0.67238 0.95782 0.0
H434 H 0.67302 0.71549 0.99937 0.0
H435 H 0.70043 0.67774 0.93664 0.0
H436 H 0.76262 0.59788 0.09727 0.0
H437 H 0.73997 0.66991 0.04524 0.0
H438 H 0.79221 0.60915 0.06506 0.0
H439 H 0.7113 0.65755 0.07768 0.0
H440 H 0.66749 0.6203 1.0065 0.0
H441 H 0.71774 0.56397 0.97343 0.0
H442 H 0.75056 0.76051 0.07651 0.0
H443 H 0.80269 0.71097 0.11609 0.0
H444 H 0.84006 0.63741 0.96855 0.0
H445 H 0.75761 0.6309 0.94343 0.0
H446 H 0.85187 0.62195 0.92774 0.0
H447 H 0.77089 0.61597 0.90297 0.0
H448 H 0.80849 0.73944 1.00588 0.0
H449 H 0.85381 0.68807 0.04928 0.0
H450 H 0.82746 0.77778 0.03217 0.0
H451 H 0.87204 0.7273 0.07477 0.0
H452 H 0.76414 0.75544 0.93322 0.0
H453 H 0.82901 0.71025 0.90964 0.0
H454 H 0.85258 0.56833 0.03524 0.0
H455 H 0.90881 0.63151 0.02147 0.0
Li456 Li 0.91092 0.05496 0.26564 0.0
Li457 Li 0.94306 0.02598 0.2839 0.0
Li458 Li 0.94212 0.03342 0.23904 0.0
Li459 Li 0.90734 1.00553 0.25563 0.0
C460 C 0.95736 0.08541 0.27132 0.0
N461 N 0.97096 0.13866 0.27932 0.0
C462 C 0.96343 0.09627 0.29474 0.0
C463 C 0.9587 0.10153 0.25193 0.0
C464 C 0.97011 0.12327 0.29843 0.0
C465 C 0.96549 0.12843 0.25635 0.0
C466 C 0.89779 0.01728 0.30881 0.0
C467 C 0.89575 0.98313 0.33701 0.0
N468 N 0.88574 1.00038 0.35326 0.0
C469 C 0.88719 0.03459 0.32569 0.0
C470 C 0.90187 0.99128 0.31443 0.0
C471 C 0.88134 0.0257 0.34809 0.0
C472 C 0.87057 0.09135 0.25727 0.0
N473 N 0.89075 0.08522 0.2729 0.0
C474 C 0.87934 0.11916 0.30157 0.0
C475 C 0.89544 0.09875 0.29467 0.0
C476 C 0.858 0.12553 0.28601 0.0
C477 C 0.85404 0.11166 0.26339 0.0
H478 H 0.86681 0.08002 0.24029 0.0
H479 H 0.91109 0.09304 0.30711 0.0
C480 C 0.98632 1.00659 0.31171 0.0
N481 N 0.9649 0.02176 0.31249 0.0
C482 C 1.00222 1.0034 0.33268 0.0
C483 C 0.97377 0.03154 0.35478 0.0
C484 C 0.95861 0.03438 0.3334 0.0
C485 C 0.99607 0.01607 0.35458 0.0
H486 H 0.99113 0.99707 0.29479 0.0
H487 H 0.94183 0.04676 0.33349 0.0
C488 C 0.89598 0.04181 0.21115 0.0
N489 N 0.88286 0.05554 0.16485 0.0
C490 C 0.88266 0.02341 0.19445 0.0
C491 C 0.90232 0.06728 0.2044 0.0
C492 C 0.87628 0.03071 0.1711 0.0
C493 C 0.8956 0.07382 0.18089 0.0
C494 C 0.9507 0.97407 0.25152 0.0
C495 C 0.95519 0.9644 0.22821 0.0
C496 C 0.95138 0.95696 0.27026 0.0
C497 C 0.95955 0.93763 0.22391 0.0
C498 C 0.95582 0.93032 0.26525 0.0
N499 N 0.95973 0.92127 0.24236 0.0
C500 C 0.98787 0.04895 0.21494 0.0
C501 C 0.95456 0.02452 0.19008 0.0
C502 C 1.00431 0.05016 0.19569 0.0
N503 N 0.96345 0.03635 0.21181 0.0
C504 C 0.97023 0.02541 0.17035 0.0
C505 C 0.9955 0.03838 0.17295 0.0
H506 H 0.99476 0.0577 0.23251 0.0
H507 H 0.93551 0.01385 0.18813 0.0
C508 C 0.86277 0.97138 0.26269 0.0
N509 N 0.88318 0.97556 0.24836 0.0
C510 C 0.84477 0.94976 0.25766 0.0
C511 C 0.86864 0.93743 0.22285 0.0
C512 C 0.88619 0.95928 0.22857 0.0
C513 C 0.84755 0.93251 0.23745 0.0
H514 H 0.86029 0.98494 0.27795 0.0
H515 H 0.90192 0.96353 0.21693 0.0
O516 O 0.95072 0.05903 0.26737 0.0
O517 O 0.904 0.02575 0.28689 0.0
O518 O 0.90263 0.0349 0.23401 0.0
O519 O 0.94639 1.00025 0.25603 0.0
H520 H 0.96279 0.08402 0.30992 0.0
H521 H 0.95477 0.09334 0.23365 0.0
H522 H 0.97463 0.13197 0.31648 0.0
H523 H 0.9665 0.14115 0.24151 0.0
H524 H 0.89889 0.96307 0.34159 0.0
H525 H 0.8836 0.05468 0.32159 0.0
H526 H 0.90941 0.97749 0.30139 0.0
H527 H 0.87328 0.03893 0.36137 0.0
H528 H 0.88298 0.12922 0.31922 0.0
H529 H 0.83811 0.11624 0.25066 0.0
H530 H 0.01934 0.99142 0.33173 0.0
H531 H 0.96794 0.04122 0.37131 0.0
H532 H 0.87741 1.00368 0.19942 0.0
H533 H 0.91214 0.08187 0.21722 0.0
H534 H 0.8661 0.01663 0.15795 0.0
H535 H 0.90046 0.09344 0.1754 0.0
H536 H 0.95504 0.97735 0.21353 0.0
H537 H 0.9488 0.96417 0.28853 0.0
H538 H 0.96279 0.92986 0.2059 0.0
H539 H 0.95628 0.91687 0.27958 0.0
H540 H 0.02392 0.05974 0.19873 0.0
H541 H 0.96264 0.016 0.1532 0.0
H542 H 0.82892 0.94652 0.26952 0.0
H543 H 0.87124 0.92478 0.20692 0.0
Li544 Li 0.28728 0.18368 0.52652 0.0
Li545 Li 0.26647 0.14712 0.50008 0.0
Li546 Li 0.31518 0.15082 0.50785 0.0
Li547 Li 0.29306 0.18123 0.48139 0.0
C548 C 0.28823 0.13939 0.55427 0.0
N549 N 0.28987 0.1275 0.60206 0.0
C550 C 0.26508 0.13091 0.56458 0.0
C551 C 0.31231 0.14134 0.56816 0.0
C552 C 0.26628 0.12515 0.5888 0.0
C553 C 0.31271 0.13536 0.5923 0.0
C554 C 0.23427 0.18713 0.49208 0.0
C555 C 0.19781 0.17817 0.4623 0.0
N556 N 0.18113 0.18907 0.47788 0.0
C557 C 0.21681 0.1983 0.50777 0.0
C558 C 0.22477 0.17705 0.46913 0.0
C559 C 0.19 0.19909 0.50025 0.0
C560 C 0.29776 0.22849 0.55969 0.0
N561 N 0.28194 0.20627 0.55427 0.0
C562 C 0.25762 0.21508 0.58906 0.0
C563 C 0.26185 0.19962 0.56823 0.0
C564 C 0.27401 0.23783 0.59541 0.0
C565 C 0.29426 0.24452 0.58039 0.0
H566 H 0.3131 0.23381 0.54796 0.0
H567 H 0.24907 0.1823 0.56317 0.0
C568 C 0.23699 0.10151 0.48038 0.0
N569 N 0.23613 0.123 0.49597 0.0
C570 C 0.21534 0.08327 0.47689 0.0
C571 C 0.19233 0.1095 0.50573 0.0
C572 C 0.21448 0.12718 0.50873 0.0
C573 C 0.19265 0.08714 0.48971 0.0
H574 H 0.25453 0.09852 0.47067 0.0
H575 H 0.21443 0.14421 0.5213 0.0
C576 C 0.34524 0.19882 0.51701 0.0
N577 N 0.3963 0.21583 0.53333 0.0
C578 C 0.36291 0.20879 0.50105 0.0
C579 C 0.35347 0.19784 0.54132 0.0
C580 C 0.38865 0.2172 0.50964 0.0
C581 C 0.37937 0.20644 0.54921 0.0
C582 C 0.31023 0.13628 0.45796 0.0
C583 C 0.33525 0.14912 0.45788 0.0
C584 C 0.30156 0.11802 0.43904 0.0
C585 C 0.35136 0.14329 0.43901 0.0
C586 C 0.31823 0.11273 0.42046 0.0
N587 N 0.34259 0.12536 0.42084 0.0
C588 C 0.33819 0.10511 0.52183 0.0
C589 C 0.37077 0.13715 0.51225 0.0
C590 C 0.35778 0.08801 0.52854 0.0
N591 N 0.34491 0.12933 0.51423 0.0
C592 C 0.39104 0.1206 0.51874 0.0
C593 C 0.38464 0.09583 0.52738 0.0
H594 H 0.3175 0.09919 0.52295 0.0
H595 H 0.37583 0.1562 0.50578 0.0
C596 C 0.30711 0.22646 0.45647 0.0
N597 N 0.29507 0.20188 0.45383 0.0
C598 C 0.30814 0.24227 0.4368 0.0
C599 C 0.28394 0.20737 0.41212 0.0
C600 C 0.28376 0.19208 0.43217 0.0
C601 C 0.29607 0.23297 0.41428 0.0
H602 H 0.31584 0.23386 0.47391 0.0
H603 H 0.27432 0.17245 0.4305 0.0
O604 O 0.28737 0.14511 0.53054 0.0
O605 O 0.26049 0.18575 0.49927 0.0
O606 O 0.31996 0.19039 0.50889 0.0
O607 O 0.29395 0.14203 0.47608 0.0
H608 H 0.24632 0.12899 0.55405 0.0
H609 H 0.33056 0.14712 0.56036 0.0
H610 H 0.24846 0.11878 0.59706 0.0
H611 H 0.33121 0.13685 0.60326 0.0
H612 H 0.19013 0.17027 0.44466 0.0
H613 H 0.22389 0.20619 0.5256 0.0
H614 H 0.23798 0.16804 0.45691 0.0
H615 H 0.17623 0.20761 0.51223 0.0
H616 H 0.24195 0.20908 0.60027 0.0
H617 H 0.30712 0.26207 0.58453 0.0
H618 H 0.21619 0.06652 0.46406 0.0
H619 H 0.17523 0.11312 0.51599 0.0
H620 H 0.35692 0.20982 0.48218 0.0
H621 H 0.33994 0.19078 0.55402 0.0
H622 H 0.40257 0.22479 0.49745 0.0
H623 H 0.38599 0.20573 0.56798 0.0
H624 H 0.34211 0.1635 0.47216 0.0
H625 H 0.2821 0.10814 0.43859 0.0
H626 H 0.3708 0.15308 0.43878 0.0
H627 H 0.31176 0.09865 0.40571 0.0
H628 H 0.35194 0.06878 0.53446 0.0
H629 H 0.41153 0.12727 0.51737 0.0
H630 H 0.31845 0.2615 0.43923 0.0
H631 H 0.27433 0.19936 0.39518 0.0
Li632 Li 0.44258 0.52374 0.78205 0.0
Li633 Li 0.41023 0.55269 0.76432 0.0
Li634 Li 0.40724 0.50318 0.7547 0.0
Li635 Li 0.44148 0.53097 0.73739 0.0
C636 C 0.40103 0.51968 0.80966 0.0
N637 N 0.39712 0.51239 0.85808 0.0
C638 C 0.39445 0.54055 0.82529 0.0
C639 C 0.40514 0.49497 0.81862 0.0
C640 C 0.39268 0.5365 0.84972 0.0
C641 C 0.40323 0.49172 0.84316 0.0
C642 C 0.45848 0.58288 0.76608 0.0
C643 C 0.46708 0.62267 0.74568 0.0
N644 N 0.47632 0.63523 0.76698 0.0
C645 C 0.46844 0.59607 0.78771 0.0
C646 C 0.45811 0.59618 0.74484 0.0
C647 C 0.4772 0.62258 0.78782 0.0
C648 C 0.48156 0.49953 0.81128 0.0
N649 N 0.46476 0.51964 0.8105 0.0
C650 C 0.47786 0.53382 0.85135 0.0
C651 C 0.46295 0.53688 0.82987 0.0
C652 C 0.49498 0.51294 0.85285 0.0
C653 C 0.49702 0.49585 0.83239 0.0
H654 H 0.48288 0.48628 0.79556 0.0
H655 H 0.44974 0.55293 0.82869 0.0
C656 C 0.3659 0.58437 0.75861 0.0
N657 N 0.38975 0.5829 0.77101 0.0
C658 C 0.34918 0.60462 0.7644 0.0
C659 C 0.38172 0.62152 0.79576 0.0
C660 C 0.39793 0.60107 0.78919 0.0
C661 C 0.35675 0.62322 0.78357 0.0
H662 H 0.35954 0.56945 0.74454 0.0
H663 H 0.41654 0.59906 0.79934 0.0
C664 C 0.44757 0.47149 0.74807 0.0
N665 N 0.44957 0.41828 0.73506 0.0
C666 C 0.45329 0.4632 0.72469 0.0
C667 C 0.44333 0.45271 0.76493 0.0
C668 C 0.45411 0.43622 0.71843 0.0
C669 C 0.44428 0.42591 0.75799 0.0
C670 C 0.39359 0.54125 0.71108 0.0
C671 C 0.38093 0.52379 0.69318 0.0
C672 C 0.39698 0.568 0.70687 0.0
C673 C 0.37247 0.53331 0.67113 0.0
C674 C 0.38821 0.57677 0.68461 0.0
N675 N 0.37628 0.55937 0.66733 0.0
C676 C 0.36558 0.46644 0.764 0.0
C677 C 0.38431 0.45859 0.72649 0.0
C678 C 0.34791 0.4445 0.7592 0.0
N679 N 0.38338 0.47296 0.74776 0.0
C680 C 0.3671 0.43644 0.72099 0.0
C681 C 0.3485 0.42925 0.73741 0.0
H682 H 0.36499 0.47834 0.78065 0.0
H683 H 0.39833 0.46442 0.7137 0.0
C684 C 0.48747 0.54521 0.7132 0.0
N685 N 0.46241 0.53406 0.70993 0.0
C686 C 0.5036 0.54667 0.69377 0.0
C687 C 0.46807 0.52476 0.668 0.0
C688 C 0.45263 0.52377 0.6879 0.0
C689 C 0.49389 0.53641 0.67077 0.0
H690 H 0.49505 0.5527 0.73099 0.0
H691 H 0.43306 0.51417 0.68583 0.0
O692 O 0.4034 0.52342 0.78575 0.0
O693 O 0.44988 0.55688 0.76565 0.0
O694 O 0.44632 0.49783 0.75442 0.0
O695 O 0.40205 0.53221 0.73276 0.0
H696 H 0.39089 0.55971 0.81869 0.0
H697 H 0.40981 0.47851 0.80677 0.0
H698 H 0.38779 0.55255 0.86202 0.0
H699 H 0.40657 0.47275 0.85034 0.0
H700 H 0.46681 0.6332 0.72937 0.0
H701 H 0.46926 0.58602 0.80427 0.0
H702 H 0.45127 0.58612 0.72782 0.0
H703 H 0.48475 0.63308 0.80448 0.0
H704 H 0.47617 0.54774 0.86659 0.0
H705 H 0.51012 0.47959 0.83284 0.0
H706 H 0.33038 0.6055 0.75414 0.0
H707 H 0.38825 0.6353 0.81075 0.0
H708 H 0.45692 0.47739 0.71145 0.0
H709 H 0.43935 0.45872 0.78319 0.0
H710 H 0.45833 0.42955 0.70035 0.0
H711 H 0.44086 0.41118 0.77084 0.0
H712 H 0.37782 0.50309 0.6962 0.0
H713 H 0.40591 0.58194 0.72076 0.0
H714 H 0.36283 0.51997 0.65706 0.0
H715 H 0.39077 0.59742 0.68112 0.0
H716 H 0.33407 0.4394 0.77245 0.0
H717 H 0.36804 0.42529 0.70392 0.0
H718 H 0.52362 0.55527 0.69681 0.0
H719 H 0.45987 0.5165 0.65061 0.0
Li720 Li 0.7925 0.40256 0.51599 0.0
Li721 Li 0.77598 0.36805 0.54104 0.0
Li722 Li 0.7657 0.36381 0.49694 0.0
Li723 Li 0.74486 0.3968 0.52429 0.0
C724 C 0.82084 0.35676 0.50145 0.0
N725 N 0.85983 0.33925 0.47275 0.0
C726 C 0.83683 0.33662 0.50875 0.0
C727 C 0.82472 0.36805 0.47961 0.0
C728 C 0.85644 0.32803 0.49397 0.0
C729 C 0.84452 0.35891 0.46534 0.0
C730 C 0.7854 0.40913 0.57045 0.0
C731 C 0.77944 0.40382 0.61251 0.0
N732 N 0.80551 0.41097 0.61778 0.0
C733 C 0.8121 0.41655 0.57629 0.0
C734 C 0.76887 0.40286 0.5887 0.0
C735 C 0.82189 0.41734 0.60033 0.0
C736 C 0.81476 0.45245 0.50511 0.0
N737 N 0.82086 0.42786 0.51131 0.0
C738 C 0.86724 0.43922 0.51016 0.0
C739 C 0.84656 0.42119 0.51442 0.0
C740 C 0.86133 0.46425 0.50261 0.0
C741 C 0.83475 0.47094 0.50039 0.0
H742 H 0.79439 0.45782 0.50393 0.0
H743 H 0.85106 0.40187 0.52018 0.0
C744 C 0.76467 0.3347 0.57813 0.0
N745 N 0.7846 0.34811 0.56804 0.0
C746 C 0.76999 0.32096 0.59867 0.0
C747 C 0.81638 0.33454 0.59776 0.0
C748 C 0.81016 0.348 0.57717 0.0
C749 C 0.79607 0.32104 0.6089 0.0
H750 H 0.74459 0.33492 0.57038 0.0
H751 H 0.82563 0.35867 0.56862 0.0
C752 C 0.75901 0.42081 0.47677 0.0
N753 N 0.75604 0.46001 0.44449 0.0
C754 C 0.74648 0.44408 0.48263 0.0
C755 C 0.7697 0.41736 0.45433 0.0
C756 C 0.74528 0.46369 0.46611 0.0
C757 C 0.7681 0.43745 0.43832 0.0
C758 C 0.71472 0.35296 0.52262 0.0
C759 C 0.70069 0.34367 0.50117 0.0
C760 C 0.70101 0.35836 0.54322 0.0
C761 C 0.67309 0.34005 0.50064 0.0
C762 C 0.6734 0.35453 0.54195 0.0
N763 N 0.66013 0.34554 0.52087 0.0
C764 C 0.77586 0.31683 0.47055 0.0
C765 C 0.7504 0.34606 0.44815 0.0
C766 C 0.77738 0.29984 0.4501 0.0
N767 N 0.76307 0.33972 0.4691 0.0
C768 C 0.75102 0.32938 0.42733 0.0
C769 C 0.76511 0.30623 0.42811 0.0
H770 H 0.78543 0.31204 0.48751 0.0
H771 H 0.7402 0.36427 0.44753 0.0
C772 C 0.71729 0.43428 0.55001 0.0
N773 N 0.71431 0.41675 0.53052 0.0
C774 C 0.69695 0.45068 0.55569 0.0
C775 C 0.67041 0.4307 0.52126 0.0
C776 C 0.69146 0.41472 0.5161 0.0
C777 C 0.67326 0.44921 0.54111 0.0
H778 H 0.73572 0.43597 0.56095 0.0
H779 H 0.68971 0.40099 0.50044 0.0
O780 O 0.80117 0.36497 0.51547 0.0
O781 O 0.77562 0.4075 0.54694 0.0
O782 O 0.76015 0.40127 0.49264 0.0
O783 O 0.74173 0.35676 0.52344 0.0
H784 H 0.83399 0.32763 0.52559 0.0
H785 H 0.81262 0.38374 0.47384 0.0
H786 H 0.86892 0.31241 0.49936 0.0
H787 H 0.84772 0.36747 0.44838 0.0
H788 H 0.76694 0.39878 0.62679 0.0
H789 H 0.82517 0.42141 0.5624 0.0
H790 H 0.7482 0.39685 0.58446 0.0
H791 H 0.84254 0.42292 0.6051 0.0
H792 H 0.88759 0.43353 0.51235 0.0
H793 H 0.82951 0.49036 0.49525 0.0
H794 H 0.75381 0.31078 0.60674 0.0
H795 H 0.83682 0.33462 0.60484 0.0
H796 H 0.73815 0.44721 0.49989 0.0
H797 H 0.77902 0.39934 0.44922 0.0
H798 H 0.73583 0.48187 0.47051 0.0
H799 H 0.77637 0.43505 0.42094 0.0
H800 H 0.71098 0.33935 0.48508 0.0
H801 H 0.71152 0.36585 0.55991 0.0
H802 H 0.66197 0.33293 0.48415 0.0
H803 H 0.66252 0.35881 0.5577 0.0
H804 H 0.78806 0.28194 0.45142 0.0
H805 H 0.74122 0.33483 0.41065 0.0
H806 H 0.69981 0.4646 0.57123 0.0
H807 H 0.65245 0.42917 0.50952 0.0
Li808 Li 0.65411 0.9787 0.76438 0.0
Li809 Li 0.62424 1.00929 0.78276 0.0
Li810 Li 0.62337 1.00158 0.7373 0.0
Li811 Li 0.66011 0.0279 0.75979 0.0
C812 C 0.60666 0.95027 0.7617 0.0
N813 N 0.59118 0.8973 0.76089 0.0
C814 C 0.60079 0.93872 0.783 0.0
C815 C 0.60412 0.935 0.73992 0.0
C816 C 0.59316 0.91188 0.78225 0.0
C817 C 0.5964 0.90823 0.7399 0.0
C818 C 0.66946 0.01642 0.81296 0.0
C819 C 0.67498 0.0516 0.84414 0.0
N820 N 0.68135 0.03374 0.86052 0.0
C821 C 0.67641 0.99846 0.83004 0.0
C822 C 0.66904 0.04324 0.82001 0.0
C823 C 0.68222 1.00759 0.85401 0.0
C824 C 0.69164 0.93979 0.75503 0.0
N825 N 0.67266 0.94728 0.76989 0.0
C826 C 0.68267 0.91237 0.79552 0.0
C827 C 0.66797 0.93405 0.78984 0.0
C828 C 0.70234 0.90417 0.78045 0.0
C829 C 0.70667 0.91809 0.75991 0.0
H830 H 0.69568 0.95107 0.73973 0.0
H831 H 0.65326 0.94075 0.80173 0.0
C832 C 0.58316 0.032 0.80818 0.0
N833 N 0.60282 0.01466 0.80944 0.0
C834 C 0.56693 0.03575 0.82735 0.0
C835 C 0.59104 1.00328 0.84852 0.0
C836 C 0.60685 1.00023 0.82899 0.0
C837 C 0.57086 0.02132 0.84789 0.0
H838 H 0.57984 0.04266 0.79215 0.0
H839 H 0.62212 0.98607 0.8293 0.0
C840 C 0.66813 0.99107 0.71232 0.0
N841 N 0.67932 0.97722 0.66549 0.0
C842 C 0.68167 1.00911 0.6989 0.0
C843 C 0.66063 0.96587 0.70203 0.0
C844 C 0.68704 1.00177 0.67523 0.0
C845 C 0.66638 0.95927 0.67831 0.0
C846 C 0.61811 0.06151 0.75564 0.0
C847 C 0.61175 0.07139 0.73324 0.0
C848 C 0.62027 0.07869 0.77627 0.0
C849 C 0.60837 0.0984 0.73178 0.0
C850 C 0.61672 0.10557 0.77408 0.0
N851 N 0.61094 0.1148 0.75206 0.0
C852 C 0.57592 0.98899 0.70799 0.0
C853 C 0.60965 0.01174 0.68857 0.0
C854 C 0.55847 0.98952 0.68755 0.0
N855 N 0.60097 1.00004 0.70815 0.0
C856 C 0.59294 0.01263 0.66776 0.0
C857 C 0.56683 1.00179 0.66718 0.0
H858 H 0.56932 0.98021 0.72393 0.0
H859 H 0.62931 0.02109 0.68929 0.0
C860 C 0.7073 0.05969 0.77269 0.0
N861 N 0.68539 0.05662 0.75715 0.0
C862 C 0.72616 0.08029 0.77058 0.0
C863 C 0.69985 0.09393 0.73626 0.0
C864 C 0.68155 0.07306 0.73901 0.0
C865 C 0.72256 0.09768 0.75211 0.0
H866 H 0.71025 0.04602 0.78664 0.0
H867 H 0.66456 0.06963 0.72631 0.0
O868 O 0.6143 0.9765 0.76212 0.0
O869 O 0.66343 1.00781 0.78943 0.0
O870 O 0.66248 0.99803 0.73546 0.0
O871 O 0.62153 0.03508 0.75737 0.0
H872 H 0.60232 0.9503 0.79997 0.0
H873 H 0.60783 0.94375 0.72318 0.0
H874 H 0.5888 0.90264 0.79864 0.0
H875 H 0.59447 0.89616 0.72317 0.0
H876 H 0.67464 0.07231 0.84983 0.0
H877 H 0.6772 0.97769 0.82491 0.0
H878 H 0.66447 0.05748 0.80695 0.0
H879 H 0.68743 0.99387 0.86744 0.0
H880 H 0.67888 0.90224 0.81161 0.0
H881 H 0.72211 0.91279 0.74817 0.0
H882 H 0.55114 0.04937 0.82593 0.0
H883 H 0.59457 0.99168 0.86399 0.0
H884 H 0.68786 0.0286 0.70664 0.0
H885 H 0.65071 0.95148 0.71232 0.0
H886 H 0.69737 0.01558 0.66459 0.0
H887 H 0.66062 0.93984 0.67011 0.0
H888 H 0.60968 0.05842 0.71711 0.0
H889 H 0.62431 0.07135 0.79384 0.0
H890 H 0.60368 0.10632 0.71452 0.0
H891 H 0.61844 0.11907 0.78991 0.0
H892 H 0.53848 0.98097 0.68785 0.0
H893 H 0.60039 0.02181 0.65232 0.0
H894 H 0.74331 0.08267 0.7833 0.0
H895 H 0.69656 0.1067 0.72159 0.0
Li896 Li 0.05984 0.2633 0.86855 0.0
Li897 Li 0.03142 0.28331 0.89791 0.0
Li898 Li 0.0403 0.23478 0.89798 0.0
Li899 Li 0.01032 0.25209 0.8669 0.0
C900 C 0.09219 0.26832 0.91069 0.0
N901 N 0.14603 0.2727 0.92328 0.0
C902 C 0.10435 0.29274 0.91891 0.0
C903 C 0.10734 0.24604 0.90932 0.0
C904 C 0.13161 0.29459 0.92506 0.0
C905 C 0.13454 0.24867 0.91565 0.0
C906 C 0.02409 0.3121 0.85923 0.0
C907 C 0.99324 0.34691 0.85884 0.0
N908 N 0.01307 0.36426 0.85364 0.0
C909 C 0.04408 0.33021 0.85357 0.0
C910 C 0.99839 0.32045 0.86161 0.0
C911 C 0.03815 0.35651 0.85093 0.0
C912 C 0.09278 0.25326 0.82999 0.0
N913 N 0.08961 0.26961 0.84969 0.0
C914 C 0.12786 0.29632 0.84154 0.0
C915 C 0.10661 0.29087 0.85562 0.0
C916 C 0.13163 0.2798 0.82106 0.0
C917 C 0.1139 0.25785 0.81549 0.0
H918 H 0.07877 0.23675 0.82537 0.0
H919 H 0.10334 0.30398 0.87099 0.0
C920 C 1.00804 0.31392 0.93422 0.0
N921 N 0.0269 0.31438 0.91788 0.0
C922 C 1.00464 0.33622 0.94938 0.0
C923 C 0.04036 0.35896 0.93086 0.0
C924 C 0.04301 0.33626 0.91601 0.0
C925 C 0.02093 0.35911 0.94777 0.0
H926 H 0.99589 0.29612 0.93575 0.0
H927 H 0.05812 0.33601 0.90314 0.0
C928 C 0.04653 0.20319 0.85598 0.0
N929 N 0.05947 0.15217 0.84337 0.0
C930 C 0.02687 0.18452 0.84648 0.0
C931 C 0.07285 0.19602 0.8586 0.0
C932 C 0.03378 0.1588 0.84035 0.0
C933 C 0.07898 0.1701 0.85225 0.0
C934 C 0.98048 0.2463 0.9055 0.0
C935 C 0.97295 0.22147 0.91309 0.0
C936 C 0.96119 0.2646 0.90131 0.0
C937 C 0.94615 0.21515 0.91585 0.0
C938 C 0.9346 0.25755 0.90424 0.0
N939 N 0.92769 0.23316 0.91136 0.0
C940 C 0.06048 0.21021 0.93915 0.0
C941 C 0.03425 0.18165 0.91102 0.0
C942 C 0.06449 0.18955 0.95424 0.0
N943 N 0.04583 0.20585 0.91786 0.0
C944 C 0.03772 0.16047 0.92554 0.0
C945 C 0.05321 0.16423 0.94737 0.0
H946 H 0.06897 0.22977 0.94446 0.0
H947 H 0.02178 0.17888 0.89456 0.0
C948 C 0.9742 0.25971 0.82756 0.0
N949 N 0.97936 0.24387 0.84592 0.0
C950 C 0.95181 0.25438 0.81175 0.0
C951 C 0.94053 0.21638 0.83389 0.0
C952 C 0.9632 0.22239 0.8492 0.0
C953 C 0.93472 0.23242 0.81481 0.0
H954 H 0.98752 0.27647 0.82512 0.0
H955 H 0.96803 0.20972 0.86356 0.0
O956 O 0.06552 0.26619 0.90443 0.0
O957 O 0.02961 0.28632 0.86221 0.0
O958 O 0.04006 0.22845 0.86223 0.0
O959 O 1.00662 0.25272 0.90248 0.0
H960 H 0.09292 0.31014 0.9204 0.0
H961 H 0.09817 0.22687 0.9037 0.0
H962 H 0.14131 0.31342 0.93126 0.0
H963 H 0.1465 0.23159 0.91459 0.0
H964 H 0.97345 0.35364 0.86076 0.0
H965 H 0.06399 0.32409 0.85137 0.0
H966 H 0.98256 0.30663 0.86542 0.0
H967 H 0.05349 0.37075 0.84673 0.0
H968 H 0.1409 0.31361 0.84635 0.0
H969 H 0.11633 0.24431 0.80014 0.0
H970 H 0.98985 0.33536 0.9626 0.0
H971 H 0.05337 0.37622 0.92917 0.0
H972 H 1.00647 0.18976 0.84401 0.0
H973 H 0.08845 0.21036 0.86518 0.0
H974 H 0.01872 0.14411 0.83317 0.0
H975 H 0.09926 0.16429 0.85428 0.0
H976 H 0.98757 0.20716 0.91674 0.0
H977 H 0.96666 0.28408 0.89595 0.0
H978 H 0.94005 0.19594 0.92155 0.0
H979 H 0.91947 0.27149 0.90092 0.0
H980 H 0.07643 0.19326 0.97102 0.0
H981 H 0.028 0.14145 0.91994 0.0
H982 H 0.9478 0.26739 0.7974 0.0
H983 H 0.92791 0.19916 0.83669 0.0
Li984 Li 0.55515 0.76562 0.36597 0.0
Li985 Li 0.52626 0.78269 0.39642 0.0
Li986 Li 0.53783 0.73579 0.39637 0.0
Li987 Li 0.50782 0.75153 0.36558 0.0
C988 C 0.58686 0.76145 0.40905 0.0
N989 N 0.63679 0.74672 0.42415 0.0
C990 C 0.60007 0.77386 0.42972 0.0
C991 C 0.599 0.7415 0.39606 0.0
C992 C 0.62533 0.76616 0.43705 0.0
C993 C 0.62426 0.73435 0.40399 0.0
C994 C 0.5203 0.81332 0.36007 0.0
C995 C 0.49209 0.85028 0.36198 0.0
N996 N 0.51338 0.86688 0.35903 0.0
C997 C 0.54185 0.83072 0.35685 0.0
C998 C 0.49517 0.82312 0.36245 0.0
C999 C 0.53796 0.85774 0.35644 0.0
C1000 C 0.58084 0.76818 0.32263 0.0
N1001 N 0.58381 0.77479 0.34667 0.0
C1002 C 0.62586 0.79687 0.34206 0.0
C1003 C 0.60573 0.78895 0.35654 0.0
C1004 C 0.62325 0.79043 0.31715 0.0
C1005 C 0.60051 0.77565 0.30749 0.0
H1006 H 0.56288 0.75766 0.31514 0.0
H1007 H 0.60739 0.79459 0.37559 0.0
C1008 C 0.50005 0.81089 0.43215 0.0
N1009 N 0.52054 0.81254 0.41755 0.0
C1010 C 0.49594 0.83163 0.44882 0.0
C1011 C 0.53403 0.85555 0.43513 0.0
C1012 C 0.53758 0.83419 0.41885 0.0
C1013 C 0.51305 0.85429 0.45044 0.0
H1014 H 0.48719 0.79324 0.43124 0.0
H1015 H 0.55419 0.83467 0.40757 0.0
C1016 C 0.5289 0.70575 0.34914 0.0
N1017 N 0.50853 0.65937 0.325 0.0
C1018 C 0.51524 0.68672 0.36141 0.0
C1019 C 0.5322 0.70115 0.32457 0.0
C1020 C 0.50509 0.66342 0.3489 0.0
C1021 C 0.52176 0.67759 0.31269 0.0
C1022 C 0.47733 0.74293 0.40242 0.0
C1023 C 0.47098 0.71789 0.41021 0.0
C1024 C 0.45702 0.75957 0.39641 0.0
C1025 C 0.44434 0.70976 0.41148 0.0
C1026 C 0.43063 0.75069 0.39787 0.0
N1027 N 0.42489 0.72617 0.40529 0.0
C1028 C 0.53812 0.7117 0.44002 0.0
C1029 C 0.55991 0.68749 0.41011 0.0
C1030 C 0.54291 0.69249 0.45641 0.0
N1031 N 0.54632 0.70871 0.41731 0.0
C1032 C 0.56513 0.66775 0.42594 0.0
C1033 C 0.55629 0.67 0.44935 0.0
H1034 H 0.52769 0.729 0.44531 0.0
H1035 H 0.56647 0.68577 0.39201 0.0
C1036 C 0.47171 0.75895 0.3263 0.0
N1037 N 0.47715 0.7424 0.34407 0.0
C1038 C 0.44926 0.75401 0.31047 0.0
C1039 C 0.43858 0.71486 0.33123 0.0
C1040 C 0.4613 0.72045 0.34653 0.0
C1041 C 0.43222 0.73191 0.31308 0.0
H1042 H 0.48472 0.77612 0.3245 0.0
H1043 H 0.46603 0.70736 0.36053 0.0
O1044 O 0.56202 0.76862 0.40182 0.0
O1045 O 0.52377 0.78684 0.36087 0.0
O1046 O 0.53901 0.72871 0.36109 0.0
O1047 O 0.50331 0.75121 0.40095 0.0
H1048 H 0.59087 0.78929 0.43999 0.0
H1049 H 0.58906 0.73164 0.38003 0.0
H1050 H 0.63581 0.77561 0.45302 0.0
H1051 H 0.63389 0.71895 0.39412 0.0
H1052 H 0.47278 0.85814 0.36393 0.0
H1053 H 0.56142 0.82351 0.35492 0.0
H1054 H 0.47822 0.80991 0.36465 0.0
H1055 H 0.5545 0.87145 0.35413 0.0
H1056 H 0.64323 0.80803 0.35024 0.0
H1057 H 0.59764 0.77056 0.28833 0.0
H1058 H 0.47965 0.82992 0.46046 0.0
H1059 H 0.54796 0.87251 0.43624 0.0
H1060 H 0.51205 0.69007 0.38029 0.0
H1061 H 0.54272 0.71555 0.31473 0.0
H1062 H 0.49436 0.64862 0.35819 0.0
H1063 H 0.52418 0.67379 0.29368 0.0
H1064 H 0.4864 0.70477 0.41506 0.0
H1065 H 0.46158 0.77906 0.39053 0.0
H1066 H 0.43914 0.69037 0.41734 0.0
H1067 H 0.41472 0.76329 0.39308 0.0
H1068 H 0.5364 0.69531 0.47448 0.0
H1069 H 0.57562 0.65075 0.41987 0.0
H1070 H 0.44501 0.76756 0.29661 0.0
H1071 H 0.42616 0.69734 0.3335 0.0
Li1072 Li 0.0306 0.79205 0.61979 0.0
Li1073 Li 1.00267 0.77168 0.6511 0.0
Li1074 Li 0.051 0.76177 0.64647 0.0
Li1075 Li 0.01738 0.74559 0.61689 0.0
C1076 C 0.03889 0.82256 0.6612 0.0
N1077 N 0.04538 0.8765 0.67128 0.0
C1078 C 0.01831 0.83659 0.67053 0.0
C1079 C 0.06286 0.83595 0.65723 0.0
C1080 C 0.02196 0.86385 0.67547 0.0
C1081 C 0.06572 0.86322 0.66235 0.0
C1082 C 0.97588 0.76835 0.5981 0.0
C1083 C 0.93376 0.74766 0.58304 0.0
N1084 N 0.94073 0.75047 0.56011 0.0
C1085 C 0.98258 0.77122 0.57442 0.0
C1086 C 0.95126 0.75661 0.60251 0.0
C1087 C 0.96455 0.76197 0.55545 0.0
C1088 C 0.05179 0.82006 0.58268 0.0
N1089 N 0.036 0.82248 0.60148 0.0
C1090 C 0.02838 0.86727 0.59303 0.0
C1091 C 0.02391 0.84534 0.60656 0.0
C1092 C 0.04487 0.86537 0.57371 0.0
C1093 C 0.05658 0.84136 0.56855 0.0
H1094 H 0.06062 0.80151 0.57856 0.0
H1095 H 0.01074 0.84658 0.62107 0.0
C1096 C 0.98086 0.7664 0.69557 0.0
N1097 N 0.9764 0.77648 0.67374 0.0
C1098 C 0.96212 0.76853 0.71285 0.0
C1099 C 0.93494 0.79235 0.68521 0.0
C1100 C 0.95408 0.7894 0.6683 0.0
C1101 C 0.93867 0.78151 0.70775 0.0
H1102 H 0.99889 0.75632 0.69941 0.0
H1103 H 0.95123 0.79756 0.65089 0.0
C1104 C 0.07857 0.75795 0.60915 0.0
N1105 N 0.13198 0.74947 0.60685 0.0
C1106 C 0.08693 0.73255 0.60373 0.0
C1107 C 0.0974 0.77903 0.61324 0.0
C1108 C 0.11401 0.72867 0.60267 0.0
C1109 C 0.12429 0.77434 0.61205 0.0
C1110 C 0.01228 0.71129 0.65116 0.0
C1111 C 0.02787 0.69209 0.64103 0.0
C1112 C 0.98854 0.70356 0.66094 0.0
C1113 C 0.01945 0.66549 0.64082 0.0
C1114 C 0.98083 0.67675 0.66044 0.0
N1115 N 0.9963 0.65843 0.65047 0.0
C1116 C 0.09378 0.77443 0.68098 0.0
C1117 C 0.09327 0.73075 0.66352 0.0
C1118 C 0.11624 0.77004 0.69579 0.0
N1119 N 0.08275 0.75489 0.66525 0.0
C1120 C 0.11575 0.72551 0.67794 0.0
C1121 C 0.1273 0.7452 0.69455 0.0
H1122 H 0.08495 0.79336 0.68228 0.0
H1123 H 0.08418 0.71543 0.6511 0.0
C1124 C 0.02059 0.71343 0.57423 0.0
N1125 N 1.00603 0.71701 0.59375 0.0
C1126 C 0.0142 0.69238 0.55731 0.0
C1127 C 0.97726 0.6796 0.58031 0.0
C1128 C 0.98427 0.70101 0.59671 0.0
C1129 C 0.99245 0.67501 0.5604 0.0
H1130 H 0.0373 0.72686 0.57186 0.0
H1131 H 0.97244 0.7047 0.6119 0.0
O1132 O 0.03562 0.79586 0.65616 0.0
O1133 O 0.99357 0.7766 0.61686 0.0
O1134 O 0.05216 0.76212 0.6107 0.0
O1135 O 0.02017 0.73748 0.65155 0.0
H1136 H 0.99968 0.8266 0.67384 0.0
H1137 H 0.07906 0.82543 0.65019 0.0
H1138 H 1.00616 0.87496 0.6826 0.0
H1139 H 0.08411 0.87384 0.65923 0.0
H1140 H 0.91469 0.73838 0.58615 0.0
H1141 H 1.00165 0.78018 0.57076 0.0
H1142 H 0.94589 0.75412 0.62076 0.0
H1143 H 0.96953 0.76386 0.53702 0.0
H1144 H 0.01881 0.88541 0.59741 0.0
H1145 H 0.06957 0.83917 0.55391 0.0
H1146 H 0.96581 0.7598 0.72992 0.0
H1147 H 0.91759 0.80322 0.68075 0.0
H1148 H 0.07273 0.71592 0.60072 0.0
H1149 H 0.09131 0.79881 0.61737 0.0
H1150 H 0.12076 0.7091 0.59865 0.0
H1151 H 0.13906 0.79048 0.61528 0.0
H1152 H 0.04587 0.69767 0.63276 0.0
H1153 H 0.97602 0.71807 0.66861 0.0
H1154 H 0.03122 0.65047 0.63283 0.0
H1155 H 0.96247 0.67051 0.66789 0.0
H1156 H 0.12482 0.78588 0.70813 0.0
H1157 H 0.12366 0.70607 0.67651 0.0
H1158 H 0.02647 0.68942 0.54223 0.0
H1159 H 0.96014 0.66679 0.58311 0.0
Li1160 Li 0.53524 0.29303 0.12162 0.0
Li1161 Li 0.50687 0.2746 0.15338 0.0
Li1162 Li 0.55498 0.26449 0.14978 0.0
Li1163 Li 0.52197 0.24682 0.12033 0.0
C1164 C 0.54191 0.32609 0.16028 0.0
N1165 N 0.54611 0.38064 0.16463 0.0
C1166 C 0.52078 0.34033 0.1682 0.0
C1167 C 0.56525 0.33962 0.15473 0.0
C1168 C 0.52328 0.36789 0.17026 0.0
C1169 C 0.56696 0.36719 0.15698 0.0
C1170 C 0.4808 0.2692 0.09999 0.0
C1171 C 0.43871 0.24858 0.08471 0.0
N1172 N 0.44607 0.25085 0.06184 0.0
C1173 C 0.48791 0.27149 0.07636 0.0
C1174 C 0.45599 0.25778 0.10426 0.0
C1175 C 0.47008 0.26203 0.0573 0.0
C1176 C 0.55997 0.31995 0.08586 0.0
N1177 N 0.54092 0.32215 0.10192 0.0
C1178 C 0.53107 0.36489 0.08888 0.0
C1179 C 0.52617 0.34385 0.10339 0.0
C1180 C 0.55111 0.36332 0.07256 0.0
C1181 C 0.56554 0.34044 0.0711 0.0
H1182 H 0.57078 0.30217 0.08437 0.0
H1183 H 0.51074 0.34491 0.11595 0.0
C1184 C 0.48505 0.27184 0.19799 0.0
N1185 N 0.48033 0.28042 0.17558 0.0
C1186 C 0.46609 0.27431 0.21503 0.0
C1187 C 0.43823 0.29559 0.18599 0.0
C1188 C 0.45759 0.2923 0.16934 0.0
C1189 C 0.44217 0.28613 0.2091 0.0
H1190 H 0.50338 0.26253 0.20244 0.0
H1191 H 0.45455 0.29928 0.15147 0.0
C1192 C 0.58305 0.25655 0.11403 0.0
N1193 N 0.6357 0.24388 0.11551 0.0
C1194 C 0.58972 0.23027 0.11041 0.0
C1195 C 0.60322 0.27638 0.11832 0.0
C1196 C 0.61644 0.22428 0.11121 0.0
C1197 C 0.62969 0.26957 0.11904 0.0
C1198 C 0.51488 0.21457 0.15571 0.0
C1199 C 0.52983 0.19407 0.14693 0.0
C1200 C 0.4903 0.20858 0.16483 0.0
C1201 C 0.51996 0.16796 0.14739 0.0
C1202 C 0.48115 0.18222 0.16505 0.0
N1203 N 0.49603 0.16262 0.15638 0.0
C1204 C 0.60041 0.27978 0.18076 0.0
C1205 C 0.59534 0.23383 0.17045 0.0
C1206 C 0.62407 0.27639 0.19426 0.0
N1207 N 0.58672 0.25868 0.169 0.0
C1208 C 0.61894 0.22954 0.18364 0.0
C1209 C 0.6337 0.25102 0.1956 0.0
H1210 H 0.59303 0.29929 0.17958 0.0
H1211 H 0.58409 0.21734 0.16119 0.0
C1212 C 0.52563 0.21352 0.0785 0.0
N1213 N 0.51083 0.21764 0.09779 0.0
C1214 C 0.5195 0.19201 0.06203 0.0
C1215 C 0.4821 0.18008 0.0848 0.0
C1216 C 0.48886 0.20194 0.10073 0.0
C1217 C 0.49784 0.17467 0.06542 0.0
H1218 H 0.54235 0.22688 0.07596 0.0
H1219 H 0.47665 0.20623 0.11553 0.0
O1220 O 0.53971 0.29908 0.1579 0.0
O1221 O 0.49823 0.27775 0.11885 0.0
O1222 O 0.55696 0.26278 0.11401 0.0
O1223 O 0.52418 0.24031 0.15542 0.0
H1224 H 0.5026 0.33026 0.17264 0.0
H1225 H 0.58177 0.32899 0.14847 0.0
H1226 H 0.50704 0.37915 0.1763 0.0
H1227 H 0.58483 0.37789 0.15258 0.0
H1228 H 0.41951 0.23954 0.08773 0.0
H1229 H 0.50711 0.28021 0.0728 0.0
H1230 H 0.4503 0.25572 0.12248 0.0
H1231 H 0.47536 0.2635 0.03891 0.0
H1232 H 0.51962 0.3823 0.09066 0.0
H1233 H 0.58087 0.33832 0.05849 0.0
H1234 H 0.46997 0.26665 0.23256 0.0
H1235 H 0.4205 0.30558 0.18085 0.0
H1236 H 0.5745 0.21457 0.10735 0.0
H1237 H 0.5985 0.29678 0.12139 0.0
H1238 H 0.62185 0.20401 0.10857 0.0
H1239 H 0.64546 0.28471 0.12251 0.0
H1240 H 0.5485 0.19823 0.13921 0.0
H1241 H 0.47822 0.22407 0.17141 0.0
H1242 H 0.53123 0.15196 0.14043 0.0
H1243 H 0.46215 0.17734 0.17199 0.0
H1244 H 0.63488 0.29342 0.20335 0.0
H1245 H 0.62542 0.2096 0.18469 0.0
H1246 H 0.53189 0.18863 0.0471 0.0
H1247 H 0.46477 0.16756 0.08757 0.0
C1248 C 0.27714 0.75024 0.87928 0.0
C1249 C 0.27411 0.76062 0.85648 0.0
C1250 C 0.27681 0.76659 0.90048 0.0
C1251 C 0.2736 0.79394 0.89969 0.0
H1252 H 0.27888 0.72922 0.88074 0.0
H1253 H 0.27892 0.75771 0.91764 0.0
S1254 S 0.26621 0.83098 0.84441 0.0
N1255 N 0.26927 0.80013 0.83437 0.0
N1256 N 0.2678 0.83064 0.87405 0.0
C1257 C 0.27124 0.80461 0.87697 0.0
C1258 C 0.27169 0.78802 0.85544 0.0
C1259 C 0.03474 0.54321 0.40166 0.0
C1260 C 1.00834 0.5329 0.39824 0.0
C1261 C 0.05257 0.53996 0.38354 0.0
C1262 C 0.04461 0.52649 0.36131 0.0
H1263 H 0.04179 0.55382 0.41843 0.0
H1264 H 0.07268 0.54829 0.38686 0.0
S1265 S 0.97805 0.4949 0.34373 0.0
N1266 N 0.97536 0.50811 0.3712 0.0
N1267 N 1.00887 0.50202 0.33718 0.0
C1268 C 0.01835 0.51597 0.35773 0.0
C1269 C 1.00025 0.51915 0.3762 0.0
C1270 C 0.77413 0.76687 0.8611 0.0
C1271 C 0.79767 0.77919 0.85399 0.0
C1272 C 0.77396 0.75275 0.882 0.0
C1273 C 0.79734 0.75024 0.89656 0.0
H1274 H 0.75573 0.76774 0.85021 0.0
H1275 H 0.75543 0.74334 0.88658 0.0
S1276 S 0.86376 0.78058 0.88721 0.0
N1277 N 0.84468 0.78932 0.86419 0.0
N1278 N 0.84436 0.76244 0.9032 0.0
C1279 C 0.82093 0.76275 0.88991 0.0
C1280 C 0.8211 0.77728 0.86872 0.0
C1281 C 0.03574 0.98455 0.40461 0.0
C1282 C 0.04418 1.00624 0.42059 0.0
C1283 C 0.02039 0.98791 0.38326 0.0
C1284 C 0.01275 0.01308 0.37712 0.0
H1285 H 0.0413 0.96484 0.40849 0.0
H1286 H 0.0142 0.97062 0.37161 0.0
S1287 S 0.02964 0.0763 0.41283 0.0
N1288 N 0.04331 0.05371 0.42899 0.0
N1289 N 0.01528 0.06013 0.38855 0.0
C1290 C 0.02111 0.03493 0.39291 0.0
C1291 C 0.03663 0.0315 0.41468 0.0
C1292 C 0.28942 0.27652 0.65553 0.0
C1293 C 0.2644 0.28467 0.66177 0.0
C1294 C 0.29236 0.26159 0.63397 0.0
C1295 C 0.27039 0.25423 0.61783 0.0
H1296 H 0.30682 0.28136 0.6676 0.0
H1297 H 0.31193 0.25537 0.63011 0.0
S1298 S 0.201 0.27266 0.62468 0.0
N1299 N 0.21752 0.28567 0.64938 0.0
N1300 N 0.22304 0.2576 0.60887 0.0
C1301 C 0.24534 0.26267 0.62363 0.0
C1302 C 0.24235 0.27788 0.64558 0.0
C1303 C 0.52834 0.51514 0.61441 0.0
C1304 C 0.54153 0.53864 0.60846 0.0
C1305 C 0.51306 0.51458 0.63459 0.0
C1306 C 0.51063 0.53742 0.64975 0.0
H1307 H 0.52942 0.49717 0.60312 0.0
H1308 H 0.50312 0.49608 0.6384 0.0
S1309 S 0.54198 0.60373 0.64248 0.0
N1310 N 0.55186 0.58512 0.61978 0.0
N1311 N 0.52292 0.58413 0.65745 0.0
C1312 C 0.52407 0.56093 0.64419 0.0
C1313 C 0.53952 0.56153 0.62361 0.0
C1314 C 0.79662 0.26749 0.65368 0.0
C1315 C 0.81132 0.27977 0.6739 0.0
C1316 C 0.79192 0.28094 0.63271 0.0
C1317 C 0.80184 0.30708 0.63112 0.0
H1318 H 0.78862 0.24737 0.65397 0.0
H1319 H 0.78055 0.27072 0.61754 0.0
S1320 S 0.8408 0.34828 0.67927 0.0
N1321 N 0.83545 0.31964 0.69114 0.0
N1322 N 0.8264 0.34497 0.65178 0.0
C1323 C 0.81654 0.31957 0.65119 0.0
C1324 C 0.8213 0.30589 0.67256 0.0
C1325 C 0.51745 0.98067 0.61448 0.0
C1326 C 0.51491 1.00393 0.60215 0.0
C1327 C 0.53383 0.98028 0.6357 0.0
C1328 C 0.54849 1.0031 0.64537 0.0
H1329 H 0.50678 0.96253 0.60758 0.0
H1330 H 0.53551 0.96179 0.64427 0.0
S1331 S 0.54801 0.06936 0.62066 0.0
N1332 N 0.52809 0.05051 0.60149 0.0
N1333 N 0.55836 0.04995 0.64166 0.0
C1334 C 0.54568 0.02664 0.63354 0.0
C1335 C 0.52899 0.02704 0.61193 0.0
C1336 C 0.86299 0.21656 0.79213 0.0
C1337 C 0.86424 0.21546 0.76695 0.0
C1338 C 0.8859 0.22184 0.80749 0.0
C1339 C 0.91086 0.22627 0.79822 0.0
H1340 H 0.84408 0.2138 0.80001 0.0
H1341 H 0.88399 0.22294 0.82676 0.0
S1342 S 0.92521 0.22291 0.73372 0.0
N1343 N 0.89275 0.21736 0.73349 0.0
N1344 N 0.93575 0.22746 0.76236 0.0
C1345 C 0.91247 0.22464 0.7731 0.0
C1346 C 0.88919 0.21919 0.75748 0.0
C1347 C 0.5051 0.88983 0.51111 0.0
C1348 C 0.50278 0.91627 0.50548 0.0
C1349 C 0.50829 0.86996 0.49317 0.0
C1350 C 0.5097 0.87584 0.46895 0.0
H1351 H 0.50422 0.88439 0.52955 0.0
H1352 H 0.50994 0.84984 0.49833 0.0
S1353 S 0.50506 0.94191 0.4446 0.0
N1354 N 0.50232 0.94732 0.47382 0.0
N1355 N 0.50855 0.90986 0.44015 0.0
C1356 C 0.50769 0.9022 0.46303 0.0
C1357 C 0.50414 0.92246 0.48129 0.0
C1358 C 0.2008 0.29835 0.80226 0.0
C1359 C 0.19744 0.29765 0.777 0.0
C1360 C 0.17951 0.29239 0.8163 0.0
C1361 C 0.15394 0.28563 0.80565 0.0
H1362 H 0.22012 0.30345 0.81127 0.0
H1363 H 0.18317 0.29292 0.83568 0.0
S1364 S 0.13411 0.28279 0.74027 0.0
N1365 N 0.16626 0.2906 0.74189 0.0
N1366 N 0.12619 0.27989 0.7683 0.0
C1367 C 0.15021 0.28516 0.78039 0.0
C1368 C 0.17196 0.29108 0.76606 0.0
C1369 C 0.59241 0.62051 0.48614 0.0
C1370 C 0.57249 0.60991 0.49981 0.0
C1371 C 0.58697 0.63975 0.46975 0.0
C1372 C 0.56138 0.64917 0.46643 0.0
H1373 H 0.61248 0.614 0.48822 0.0
H1374 H 0.60304 0.64759 0.45987 0.0
S1375 S 0.5017 0.62667 0.49655 0.0
N1376 N 0.52578 0.60955 0.50817 0.0
N1377 N 0.51557 0.64555 0.47723 0.0
C1378 C 0.54114 0.63847 0.4797 0.0
C1379 C 0.54667 0.61886 0.49641 0.0
C1380 C 0.90823 0.79246 0.76813 0.0
C1381 C 0.88087 0.78846 0.76219 0.0
C1382 C 0.92668 0.79039 0.75043 0.0
C1383 C 0.91852 0.7839 0.72609 0.0
H1384 H 0.91544 0.79761 0.7866 0.0
H1385 H 0.94752 0.79419 0.75587 0.0
S1386 S 0.84912 0.76899 0.70153 0.0
N1387 N 0.84647 0.77644 0.73048 0.0
N1388 N 0.88113 0.77176 0.69732 0.0
C1389 C 0.89117 0.77929 0.72 0.0
C1390 C 0.87236 0.78171 0.73802 0.0
C1391 C 0.06559 0.93455 0.55725 0.0
C1392 C 0.06224 0.93291 0.53196 0.0
C1393 C 0.05948 0.91278 0.57064 0.0
C1394 C 0.05014 0.88841 0.5592 0.0
H1395 H 0.07302 0.95286 0.56683 0.0
H1396 H 0.06257 0.91489 0.59007 0.0
S1397 S 0.03732 0.87365 0.49345 0.0
N1398 N 0.04847 0.90483 0.49599 0.0
N1399 N 0.03715 0.86398 0.52119 0.0
C1400 C 0.04656 0.88648 0.53393 0.0
C1401 C 0.05254 0.90871 0.52029 0.0
C1402 C 0.19477 0.72253 0.71621 0.0
C1403 C 0.19563 0.72846 0.74121 0.0
C1404 C 0.17263 0.72798 0.70124 0.0
C1405 C 0.15053 0.73964 0.71072 0.0
H1406 H 0.21145 0.71375 0.7081 0.0
H1407 H 0.17294 0.72331 0.68204 0.0
S1408 S 0.14183 0.75729 0.77515 0.0
N1409 N 0.17173 0.74559 0.77493 0.0
N1410 N 0.13018 0.75565 0.74676 0.0
C1411 C 0.15092 0.74531 0.73572 0.0
C1412 C 0.17343 0.73975 0.75099 0.0
C1413 C 0.97786 0.60405 0.53611 0.0
C1414 C 0.97557 0.6062 0.51102 0.0
C1415 C 0.98298 0.62645 0.55196 0.0
C1416 C 0.98606 0.65179 0.5433 0.0
H1417 H 0.97612 0.58487 0.54354 0.0
H1418 H 0.98505 0.62386 0.57112 0.0
S1419 S 0.97938 0.66841 0.47942 0.0
N1420 N 0.97496 0.63593 0.47839 0.0
N1421 N 0.98483 0.67796 0.5082 0.0
C1422 C 0.9833 0.65429 0.51832 0.0
C1423 C 0.978 0.63152 0.50218 0.0
C1424 C 0.82029 0.86235 0.22062 0.0
C1425 C 0.79265 0.86476 0.22 0.0
C1426 C 0.83789 0.88434 0.22627 0.0
C1427 C 0.8285 0.90954 0.23151 0.0
H1428 H 0.82839 0.84326 0.21696 0.0
H1429 H 0.85902 0.88152 0.2268 0.0
S1430 S 0.75795 0.92676 0.23033 0.0
N1431 N 0.75672 0.89458 0.22382 0.0
N1432 N 0.78977 0.93587 0.23441 0.0
C1433 C 0.80091 0.91228 0.23064 0.0
C1434 C 0.78301 0.8899 0.22489 0.0
C1435 C 0.83237 0.1907 0.31026 0.0
C1436 C 0.80468 0.18649 0.30661 0.0
C1437 C 0.84952 0.17082 0.30384 0.0
C1438 C 0.83956 0.14603 0.29357 0.0
H1439 H 0.84085 0.20974 0.31745 0.0
H1440 H 0.87073 0.17512 0.30638 0.0
S1441 S 0.76847 0.12409 0.28336 0.0
N1442 N 0.76804 0.15505 0.29409 0.0
N1443 N 0.80011 0.11768 0.28228 0.0
C1444 C 0.81186 0.1413 0.29077 0.0
C1445 C 0.79447 0.16151 0.29724 0.0
C1446 C 0.42799 0.99655 0.98669 0.0
C1447 C 0.42483 0.02392 0.98937 0.0
C1448 C 0.40724 0.97833 0.99061 0.0
C1449 C 0.38249 0.98672 0.99741 0.0
H1450 H 0.44678 0.98911 0.98181 0.0
H1451 H 0.41059 0.95747 0.98809 0.0
S1452 S 0.36388 0.05627 1.00668 0.0
N1453 N 0.39469 0.05854 0.99854 0.0
N1454 N 0.35619 0.02436 1.00707 0.0
C1455 C 0.37906 0.01405 1.00018 0.0
C1456 C 0.4001 0.03261 0.99593 0.0
C1457 C 0.2665 0.37235 0.29085 0.0
C1458 C 0.2578 0.34723 0.2975 0.0
C1459 C 0.24848 0.39136 0.28478 0.0
C1460 C 0.22095 0.38612 0.28516 0.0
H1461 H 0.28751 0.37742 0.29043 0.0
H1462 H 0.2562 0.41045 0.27995 0.0
S1463 S 0.18772 0.32319 0.30044 0.0
N1464 N 0.21971 0.31792 0.30355 0.0
N1465 N 0.18575 0.35381 0.29229 0.0
C1466 C 0.2119 0.36117 0.2919 0.0
C1467 C 0.23032 0.34171 0.29804 0.0
C1468 C 0.12145 0.06064 0.47603 0.0
C1469 C 0.12341 0.03312 0.47648 0.0
C1470 C 0.14385 0.07794 0.48077 0.0
C1471 C 0.16911 0.06838 0.48588 0.0
H1472 H 0.10243 0.06887 0.47193 0.0
H1473 H 0.14145 0.09896 0.47991 0.0
S1474 S 0.18485 0.99809 0.48974 0.0
N1475 N 0.15258 0.99712 0.48272 0.0
N1476 N 0.19467 0.02966 0.49185 0.0
C1477 C 0.17131 0.04093 0.48667 0.0
C1478 C 0.14846 0.02331 0.48198 0.0
C1479 C 0.75227 0.1663 0.74339 0.0
C1480 C 0.77958 0.1623 0.74274 0.0
C1481 C 0.73402 0.14534 0.74653 0.0
C1482 C 0.74238 0.11958 0.74919 0.0
H1483 H 0.74497 0.18586 0.74166 0.0
H1484 H 0.7132 0.14936 0.74708 0.0
S1485 S 0.8114 0.09826 0.74699 0.0
N1486 N 0.81391 0.13038 0.74382 0.0
N1487 N 0.77961 0.091 0.74982 0.0
C1488 C 0.76958 0.11526 0.74838 0.0
C1489 C 0.78817 0.1366 0.74514 0.0
C1490 C 0.44545 0.05462 0.52514 0.0
C1491 C 0.44544 0.04173 0.54682 0.0
C1492 C 0.42609 0.07249 0.51924 0.0
C1493 C 0.40581 0.07798 0.53468 0.0
H1494 H 0.46049 0.05074 0.51255 0.0
H1495 H 0.42664 0.0816 0.50218 0.0
S1496 S 0.39733 0.05015 0.59394 0.0
N1497 N 0.42366 0.03608 0.58396 0.0
N1498 N 0.38753 0.06994 0.57305 0.0
C1499 C 0.40585 0.06561 0.55661 0.0
C1500 C 0.42562 0.04749 0.56266 0.0
C1501 C 0.60638 0.47591 0.55512 0.0
C1502 C 0.61188 0.5034 0.55693 0.0
C1503 C 0.6262 0.45839 0.54962 0.0
C1504 C 0.65223 0.46781 0.54617 0.0
H1505 H 0.58654 0.46795 0.55755 0.0
H1506 H 0.62123 0.43736 0.54831 0.0
S1507 S 0.67678 0.53797 0.54927 0.0
N1508 N 0.64522 0.53914 0.55508 0.0
N1509 N 0.68234 0.50634 0.54483 0.0
C1510 C 0.65795 0.49523 0.54813 0.0
C1511 C 0.63781 0.51298 0.55349 0.0
C1512 C 0.74539 0.26306 0.37138 0.0
C1513 C 0.76995 0.25761 0.36196 0.0
C1514 C 0.74402 0.2786 0.39284 0.0
C1515 C 0.76714 0.28897 0.40598 0.0
H1516 H 0.72699 0.25543 0.36196 0.0
H1517 H 0.7247 0.28256 0.39923 0.0
S1518 S 0.8363 0.28095 0.38942 0.0
N1519 N 0.81795 0.2643 0.36753 0.0
N1520 N 0.81529 0.29286 0.4083 0.0
C1521 C 0.79183 0.28328 0.39718 0.0
C1522 C 0.79326 0.26771 0.37512 0.0
C1523 C 0.5248 1.00426 0.89659 0.0
C1524 C 0.51998 0.02905 0.90759 0.0
C1525 C 0.54133 1.00195 0.87739 0.0
C1526 C 0.5535 0.02439 0.86828 0.0
H1527 H 0.5158 0.98642 0.90297 0.0
H1528 H 0.5444 0.98244 0.86945 0.0
S1529 S 0.54765 0.09394 0.89069 0.0
N1530 N 0.52888 0.07664 0.90789 0.0
N1531 N 0.55999 0.07218 0.87184 0.0
C1532 C 0.54882 0.04934 0.87901 0.0
C1533 C 0.53208 0.05171 0.89867 0.0
C1534 C 0.30191 0.25329 0.34997 0.0
C1535 C 0.29693 0.28037 0.35146 0.0
C1536 C 0.30164 0.23826 0.37028 0.0
C1537 C 0.29628 0.24959 0.39302 0.0
H1538 H 0.30584 0.24348 0.33287 0.0
H1539 H 0.3059 0.21759 0.36814 0.0
S1540 S 0.28179 0.31971 0.40674 0.0
N1541 N 0.287 0.31803 0.37777 0.0
N1542 N 0.2852 0.28957 0.41565 0.0
C1543 C 0.29111 0.27663 0.39478 0.0
C1544 C 0.29165 0.29202 0.3741 0.0
C1545 C 0.55407 0.50433 0.89673 0.0
C1546 C 0.54251 0.50322 0.91899 0.0
C1547 C 0.53852 0.5071 0.87538 0.0
C1548 C 0.5109 0.50922 0.87556 0.0
H1549 H 0.57529 0.50289 0.89581 0.0
H1550 H 0.54825 0.508 0.85865 0.0
S1551 S 0.47095 0.50729 0.92907 0.0
N1552 N 0.50177 0.5044 0.9399 0.0
N1553 N 0.47255 0.50952 0.89976 0.0
C1554 C 0.49908 0.50806 0.89767 0.0
C1555 C 0.51487 0.50503 0.91937 0.0
C1556 C 0.76925 0.79696 0.14341 0.0
C1557 C 0.76405 0.78543 0.1651 0.0
C1558 C 0.77294 0.78142 0.12238 0.0
C1559 C 0.7716 0.75367 0.12213 0.0
H1560 H 0.77027 0.81824 0.14261 0.0
H1561 H 0.77715 0.79125 0.10623 0.0
S1562 S 0.75825 0.71361 0.17405 0.0
N1563 N 0.7581 0.74448 0.18507 0.0
N1564 N 0.76398 0.71526 0.14534 0.0
C1565 C 0.76624 0.74184 0.14364 0.0
C1566 C 0.76265 0.7577 0.16512 0.0
C1567 C 0.03036 0.01606 0.1171 0.0
C1568 C 0.04353 0.03939 0.11071 0.0
C1569 C 0.01515 0.01588 0.13733 0.0
C1570 C 0.01257 0.039 0.15208 0.0
H1571 H 0.0313 0.99788 0.10607 0.0
H1572 H 1.0053 0.99745 0.14143 0.0
S1573 S 0.04392 0.10509 0.1437 0.0
N1574 N 0.05392 0.086 0.12138 0.0
N1575 N 0.02478 0.08584 0.15892 0.0
C1576 C 0.02602 0.06237 0.14612 0.0
C1577 C 0.04156 0.06253 0.12556 0.0
C1578 C 0.3175 0.80358 0.16681 0.0
C1579 C 0.31225 0.77616 0.16688 0.0
C1580 C 0.31237 0.81718 0.14599 0.0
C1581 C 0.3019 0.80382 0.1244 0.0
H1582 H 0.32527 0.81472 0.18311 0.0
H1583 H 0.31615 0.8384 0.14693 0.0
S1584 S 0.28729 0.7316 0.11431 0.0
N1585 N 0.2976 0.73582 0.14302 0.0
N1586 N 0.28834 0.76133 0.10385 0.0
C1587 C 0.29728 0.77627 0.12403 0.0
C1588 C 0.30238 0.76243 0.14526 0.0
C1589 C 0.04413 0.50409 0.09877 0.0
C1590 C 0.01648 0.5061 0.09915 0.0
C1591 C 0.06019 0.50329 0.1201 0.0
C1592 C 0.04923 0.50422 0.1427 0.0
H1593 H 0.05345 0.50312 0.08178 0.0
H1594 H 0.08134 0.50152 0.11887 0.0
S1595 S 0.97804 0.51 0.15366 0.0
N1596 N 0.97885 0.50923 0.12406 0.0
N1597 N 1.00909 0.50801 0.16423 0.0
C1598 C 0.02165 0.50647 0.14339 0.0
C1599 C 1.00528 0.50743 0.12162 0.0
C1600 C 0.38676 0.72096 0.25618 0.0
C1601 C 0.36162 0.71635 0.2651 0.0
C1602 C 0.40947 0.72609 0.2718 0.0
C1603 C 0.40791 0.72666 0.29691 0.0
H1604 H 0.38895 0.72029 0.23695 0.0
H1605 H 0.42847 0.72929 0.26417 0.0
S1606 S 0.34666 0.71796 0.32947 0.0
N1607 N 0.33637 0.71421 0.30072 0.0
N1608 N 0.37914 0.72354 0.33005 0.0
C1609 C 0.38291 0.72239 0.30609 0.0
C1610 C 0.35976 0.7173 0.2902 0.0
C1611 C 0.03933 0.41606 0.99384 0.0
C1612 C 0.0149 0.42735 0.9974 0.0
C1613 C 0.04112 0.39424 0.97755 0.0
C1614 C 0.01849 0.38268 0.96436 0.0
H1615 H 0.05727 0.42415 1.00378 0.0
H1616 H 0.06033 0.38606 0.97557 0.0
S1617 S 0.94982 0.40493 0.96652 0.0
N1618 N 0.96751 0.42546 0.98602 0.0
N1619 N 0.97099 0.38443 0.95539 0.0
C1620 C 0.99392 0.39379 0.96761 0.0
C1621 C 0.99209 0.41615 0.98412 0.0
C1622 C 0.67352 0.78998 0.26907 0.0
C1623 C 0.68298 0.81655 0.2698 0.0
C1624 C 0.65419 0.78169 0.28441 0.0
C1625 C 0.6438 0.79959 0.30117 0.0
H1626 H 0.68101 0.77544 0.25658 0.0
H1627 H 0.64751 0.76105 0.28332 0.0
S1628 S 0.66126 0.87143 0.30959 0.0
N1629 N 0.6801 0.86077 0.28828 0.0
N1630 N 0.64376 0.84521 0.31698 0.0
C1631 C 0.65302 0.82619 0.30198 0.0
C1632 C 0.67259 0.83464 0.28633 0.0
C1633 C 0.05567 0.1238 1.00271 0.0
C1634 C 0.0632 0.09905 0.99353 0.0
C1635 C 0.05275 0.14488 0.98773 0.0
C1636 C 0.05717 0.14193 0.96305 0.0
H1637 H 0.05184 0.12694 0.02153 0.0
H1638 H 0.04657 0.1635 0.99544 0.0
S1639 S 0.07877 0.08162 0.93059 0.0
N1640 N 0.07594 0.0731 0.95847 0.0
N1641 N 0.07068 0.11273 0.93043 0.0
C1642 C 0.06509 0.11741 0.95379 0.0
C1643 C 0.06806 0.096 0.969 0.0
C1644 C 0.4106 0.2983 0.2688 0.0
C1645 C 0.38342 0.29305 0.26268 0.0
C1646 C 0.42934 0.29632 0.25135 0.0
C1647 C 0.42168 0.28861 0.22712 0.0
H1648 H 0.41742 0.30439 0.28719 0.0
H1649 H 0.45001 0.3011 0.25689 0.0
S1650 S 0.353 0.27015 0.20232 0.0
N1651 N 0.34976 0.27859 0.231 0.0
N1652 N 0.385 0.27399 0.19835 0.0
C1653 C 0.39453 0.28275 0.22089 0.0
C1654 C 0.3754 0.28513 0.23862 0.0
C1655 C 0.59097 0.41491 0.0415 0.0
C1656 C 0.57173 0.42631 0.02664 0.0
C1657 C 0.58404 0.39481 0.05643 0.0
C1658 C 0.55752 0.38544 0.05728 0.0
H1659 H 0.61169 0.4214 0.04142 0.0
H1660 H 0.5996 0.38655 0.06745 0.0
S1661 S 0.49937 0.40875 0.02222 0.0
N1662 N 0.52479 0.42691 0.01396 0.0
N1663 N 0.51184 0.38904 0.04205 0.0
C1664 C 0.53796 0.39688 0.04281 0.0
C1665 C 0.54504 0.41731 0.02745 0.0
C1666 C 0.68544 0.25306 0.24808 0.0
C1667 C 0.7057 0.23813 0.23881 0.0
C1668 C 0.66241 0.25742 0.23386 0.0
C1669 C 0.65869 0.2469 0.20993 0.0
H1670 H 0.6872 0.26133 0.26649 0.0
H1671 H 0.64717 0.26871 0.24181 0.0
S1672 S 0.70626 0.20763 0.17677 0.0
N1673 N 0.72091 0.21359 0.20399 0.0
N1674 N 0.6776 0.2219 0.17724 0.0
C1675 C 0.67892 0.23228 0.20034 0.0
C1676 C 0.70242 0.22791 0.21478 0.0
C1677 C 0.48438 0.13102 1.00788 0.0
C1678 C 0.48109 0.1056 0.01638 0.0
C1679 C 0.48974 0.15328 0.02384 0.0
C1680 C 0.49188 0.15093 0.04888 0.0
H1681 H 0.48245 0.13378 0.98874 0.0
H1682 H 0.49192 0.1725 0.01655 0.0
S1683 S 0.48716 0.08871 0.08027 0.0
N1684 N 0.48195 0.07927 0.05144 0.0
N1685 N 0.49173 0.12117 0.08142 0.0
C1686 C 0.48897 0.12565 0.05762 0.0
C1687 C 0.48365 0.10297 0.04139 0.0
C1688 C 0.32221 0.35938 0.71802 0.0
C1689 C 0.29468 0.36064 0.72003 0.0
C1690 C 0.33946 0.38162 0.72373 0.0
C1691 C 0.32984 0.40594 0.73172 0.0
H1692 H 0.33053 0.341 0.71216 0.0
H1693 H 0.36053 0.3797 0.72209 0.0
S1694 S 0.25929 0.42021 0.73828 0.0
N1695 N 0.25848 0.38858 0.72937 0.0
N1696 N 0.29092 0.4303 0.74023 0.0
C1697 C 0.30235 0.40754 0.73361 0.0
C1698 C 0.28478 0.38492 0.72774 0.0
C1699 C 0.3308 0.69024 0.80228 0.0
C1700 C 0.30358 0.68437 0.80414 0.0
C1701 C 0.34794 0.67036 0.79585 0.0
C1702 C 0.33846 0.6439 0.79115 0.0
H1703 H 0.33874 0.71044 0.80515 0.0
H1704 H 0.36863 0.67587 0.794 0.0
S1705 S 0.26934 0.61798 0.79663 0.0
N1706 N 0.26829 0.65011 0.80264 0.0
N1707 N 0.30042 0.61271 0.79109 0.0
C1708 C 0.31142 0.63772 0.79389 0.0
C1709 C 0.29402 0.65795 0.80026 0.0
C1710 C 0.92359 0.50957 0.50996 0.0
C1711 C 0.92384 0.52106 0.48762 0.0
C1712 C 0.90352 0.49088 0.51458 0.0
C1713 C 0.88278 0.48343 0.49716 0.0
H1714 H 0.93916 0.51493 0.52387 0.0
H1715 H 0.90399 0.48249 0.53201 0.0
S1716 S 0.87433 0.50777 0.4359 0.0
N1717 N 0.90168 0.52364 0.44794 0.0
N1718 N 0.86384 0.48868 0.4567 0.0
C1719 C 0.88279 0.4948 0.47479 0.0
C1720 C 0.90337 0.51355 0.46999 0.0
C1721 C 0.75006 0.8627 0.81561 0.0
C1722 C 0.75529 0.84237 0.79856 0.0
C1723 C 0.73234 0.8822 0.80983 0.0
C1724 C 0.71926 0.88213 0.78678 0.0
H1725 H 0.76043 0.8641 0.83327 0.0
H1726 H 0.72954 0.89795 0.82326 0.0
S1727 S 0.72338 0.83134 0.73677 0.0
N1728 N 0.74395 0.82195 0.75845 0.0
N1729 N 0.71093 0.85874 0.74757 0.0
C1730 C 0.72349 0.86134 0.76992 0.0
C1731 C 0.74141 0.84143 0.77581 0.0
C1732 C 0.63919 0.53976 0.95653 0.0
C1733 C 0.62127 0.53428 0.97413 0.0
C1734 C 0.6613 0.55736 0.96174 0.0
C1735 C 0.66629 0.57028 0.98472 0.0
H1736 H 0.63621 0.53021 0.93861 0.0
H1737 H 0.67439 0.56114 0.94754 0.0
S1738 S 0.6255 0.56272 0.03721 0.0
N1739 N 0.60984 0.54347 0.01542 0.0
N1740 N 0.65179 0.57589 0.02541 0.0
C1741 C 0.6486 0.56488 1.00253 0.0
C1742 C 0.62605 0.54702 0.99721 0.0
C1743 C 0.2693 0.65759 0.26098 0.0
C1744 C 0.27879 0.66138 0.23815 0.0
C1745 C 0.25078 0.63692 0.26438 0.0
C1746 C 0.24099 0.61939 0.24506 0.0
H1747 H 0.27587 0.671 0.27624 0.0
H1748 H 0.24369 0.63495 0.28215 0.0
S1749 S 0.26147 0.61902 0.18234 0.0
N1750 N 0.27846 0.64458 0.19636 0.0
N1751 N 0.24342 0.60599 0.20273 0.0
C1752 C 0.25073 0.62257 0.2223 0.0
C1753 C 0.26968 0.64349 0.21885 0.0
C1754 C 0.92652 0.54893 0.06098 0.0
C1755 C 0.94637 0.54424 0.0449 0.0
C1756 C 0.90649 0.56638 0.05583 0.0
C1757 C 0.90578 0.58007 0.03457 0.0
H1758 H 0.92605 0.53848 0.07735 0.0
H1759 H 0.89136 0.56913 0.06855 0.0
S1760 S 0.95391 0.57559 0.98711 0.0
N1761 N 0.9647 0.55543 1.00731 0.0
N1762 N 0.92702 0.58806 0.99758 0.0
C1763 C 0.9259 0.57603 0.01864 0.0
C1764 C 0.94617 0.55814 0.0238 0.0
C1765 C 0.12756 0.99196 0.07245 0.0
C1766 C 0.10799 0.99884 0.05522 0.0
C1767 C 0.14719 0.97457 0.06627 0.0
C1768 C 0.14808 0.96335 0.0426 0.0
H1769 H 0.12825 1.00073 0.09068 0.0
H1770 H 0.162 0.97011 0.08012 0.0
S1771 S 0.10031 0.97379 0.9911 0.0
N1772 N 0.08955 0.99159 0.01388 0.0
N1773 N 0.12707 0.96005 1.00199 0.0
C1774 C 0.12814 0.96952 0.02536 0.0
C1775 C 0.10801 0.98697 0.03173 0.0
loop_
_geom_bond_atom_site_label_1
_geom_bond_atom_site_label_2
_geom_bond_distance
_geom_bond_site_symmetry_2
_ccdc_geom_bond_type
H0 C5 0.930 . S
H1 C8 0.930 . S
H2 C10 0.930 . S
H3 C4 1.016 . S
C4 H3 1.016 . S
C4 N11 1.286 1_556 S
C5 H0 0.930 . S
C5 C6 1.397 . S
C5 C7 1.361 . S
C6 C5 1.397 . S
C6 C10 1.390 . S
C7 C5 1.361 . S
C7 C8 1.393 . S
C7 N11 1.413 . S
C8 H1 0.930 . S
C8 C7 1.393 . S
C8 C9 1.399 . S
C9 C8 1.399 . S
C9 C10 1.381 . S
C10 H2 0.930 . S
C10 C6 1.390 . S
C10 C9 1.381 . S
N11 C4 1.286 1_554 S
N11 C7 1.413 . S
H12 C17 0.930 . S
H13 C20 0.930 . S
H14 C22 0.930 . S
H15 C16 1.016 . S
C16 H15 1.016 . S
C16 N23 1.286 . S
C17 H12 0.930 . S
C17 C18 1.397 . S
C17 C19 1.361 . S
C18 C17 1.397 . S
C18 C22 1.390 . S
C19 C17 1.361 . S
C19 C20 1.393 . S
C19 N23 1.413 . S
C20 H13 0.930 . S
C20 C19 1.393 . S
C20 C21 1.399 . S
C21 C20 1.399 . S
C21 C22 1.381 . S
C22 H14 0.930 . S
C22 C18 1.390 . S
C22 C21 1.381 . S
N23 C16 1.286 . S
N23 C19 1.413 . S
H24 C29 0.930 . S
H25 C32 0.930 1_455 S
H26 C34 0.930 . S
H27 C28 1.016 1_454 S
C28 H27 1.016 1_656 S
C28 N35 1.286 1_556 S
C29 H24 0.930 . S
C29 C30 1.397 . S
C29 C31 1.361 . S
C30 C29 1.397 . S
C30 C34 1.390 . S
C31 C29 1.361 . S
C31 C32 1.393 . S
C31 N35 1.413 . S
C32 H25 0.930 1_655 S
C32 C31 1.393 . S
C32 C33 1.399 . S
C33 C32 1.399 . S
C33 C34 1.381 . S
C34 H26 0.930 . S
C34 C30 1.390 . S
C34 C33 1.381 . S
N35 C28 1.286 1_554 S
N35 C31 1.413 . S
H36 C41 0.930 . S
H37 C44 0.930 . S
H38 C46 0.930 . S
H39 C40 1.016 . S
C40 H39 1.016 . S
C40 N47 1.286 . S
C41 H36 0.930 . S
C41 C42 1.397 . S
C41 C43 1.361 . S
C42 C41 1.397 . S
C42 C46 1.390 . S
C43 C41 1.361 . S
C43 C44 1.393 . S
C43 N47 1.413 . S
C44 H37 0.930 . S
C44 C43 1.393 . S
C44 C45 1.399 . S
C45 C44 1.399 . S
C45 C46 1.381 . S
C46 H38 0.930 . S
C46 C42 1.390 . S
C46 C45 1.381 . S
N47 C40 1.286 . S
N47 C43 1.413 . S
H48 C53 0.930 . S
H49 C56 0.930 . S
H50 C58 0.930 . S
H51 C52 1.016 . S
C52 H51 1.016 . S
C52 N59 1.286 . S
C53 H48 0.930 . S
C53 C54 1.397 . S
C53 C55 1.361 . S
C54 C53 1.397 . S
C54 C58 1.390 1_565 S
C55 C53 1.361 . S
C55 C56 1.393 . S
C55 N59 1.413 . S
C56 H49 0.930 . S
C56 C55 1.393 . S
C56 C57 1.399 1_565 S
C57 C56 1.399 1_545 S
C57 C58 1.381 . S
C58 H50 0.930 . S
C58 C54 1.390 1_545 S
C58 C57 1.381 . S
N59 C52 1.286 . S
N59 C55 1.413 . S
H60 C65 0.930 . S
H61 C68 0.930 . S
H62 C70 0.930 . S
H63 C64 1.016 . S
C64 H63 1.016 . S
C64 N71 1.286 . S
C65 H60 0.930 . S
C65 C66 1.397 . S
C65 C67 1.361 . S
C66 C65 1.397 . S
C66 C70 1.390 . S
C67 C65 1.361 . S
C67 C68 1.393 . S
C67 N71 1.413 . S
C68 H61 0.930 . S
C68 C67 1.393 . S
C68 C69 1.399 . S
C69 C68 1.399 . S
C69 C70 1.381 . S
C70 H62 0.930 . S
C70 C66 1.390 . S
C70 C69 1.381 . S
N71 C64 1.286 . S
N71 C67 1.413 . S
H72 C77 0.940 . S
H73 C80 0.930 . S
H74 C82 0.930 . S
H75 C76 1.016 . S
C76 H75 1.016 . S
C76 N83 1.286 . S
C77 H72 0.940 . S
C77 C78 1.388 1_455 S
C77 C79 1.360 1_455 S
C78 C77 1.388 1_655 S
C78 C82 1.390 . S
C79 C77 1.360 1_655 S
C79 C80 1.393 . S
C79 N83 1.413 1_655 S
C80 H73 0.930 . S
C80 C79 1.393 . S
C80 C81 1.399 . S
C81 C80 1.399 . S
C81 C82 1.381 . S
C82 H74 0.930 . S
C82 C78 1.390 . S
C82 C81 1.381 . S
N83 C76 1.286 . S
N83 C79 1.413 1_455 S
H84 C89 0.930 . S
H85 C92 0.930 . S
H86 C94 0.930 . S
H87 C88 1.016 . S
C88 H87 1.016 . S
C88 N95 1.286 . S
C89 H84 0.930 . S
C89 C90 1.397 . S
C89 C91 1.361 . S
C90 C89 1.397 . S
C90 C94 1.390 . S
C91 C89 1.361 . S
C91 C92 1.393 . S
C91 N95 1.413 . S
C92 H85 0.930 . S
C92 C91 1.393 . S
C92 C93 1.399 . S
C93 C92 1.399 . S
C93 C94 1.381 . S
C94 H86 0.930 . S
C94 C90 1.390 . S
C94 C93 1.381 . S
N95 C88 1.286 . S
N95 C91 1.413 . S
H96 C101 0.930 . S
H97 C104 0.930 . S
H98 C106 0.930 . S
H99 C100 1.016 . S
C100 H99 1.016 . S
C100 N107 1.286 . S
C101 H96 0.930 . S
C101 C102 1.397 . S
C101 C103 1.361 . S
C102 C101 1.397 . S
C102 C106 1.390 . S
C103 C101 1.361 . S
C103 C104 1.393 . S
C103 N107 1.413 . S
C104 H97 0.930 . S
C104 C103 1.393 . S
C104 C105 1.399 . S
C105 C104 1.399 . S
C105 C106 1.381 . S
C106 H98 0.930 . S
C106 C102 1.390 . S
C106 C105 1.381 . S
N107 C100 1.286 . S
N107 C103 1.413 . S
H108 C113 0.930 . S
H109 C116 0.930 . S
H110 C118 0.930 . S
H111 C112 1.016 . S
C112 H111 1.016 . S
C112 N119 1.286 . S
C113 H108 0.930 . S
C113 C114 1.397 1_565 S
C113 C115 1.361 . S
C114 C113 1.397 1_545 S
C114 C118 1.390 . S
C115 C113 1.361 . S
C115 C116 1.393 . S
C115 N119 1.413 . S
C116 H109 0.930 . S
C116 C115 1.393 . S
C116 C117 1.399 . S
C117 C116 1.399 . S
C117 C118 1.381 1_565 S
C118 H110 0.930 . S
C118 C114 1.390 . S
C118 C117 1.381 1_545 S
N119 C112 1.286 . S
N119 C115 1.413 . S
H120 C125 0.930 . S
H121 C128 0.930 . S
H122 C130 0.930 . S
H123 C124 1.016 . S
C124 H123 1.016 . S
C124 N131 1.286 . S
C125 H120 0.930 . S
C125 C126 1.397 . S
C125 C127 1.361 . S
C126 C125 1.397 . S
C126 C130 1.390 . S
C127 C125 1.361 . S
C127 C128 1.393 . S
C127 N131 1.413 . S
C128 H121 0.930 . S
C128 C127 1.393 . S
C128 C129 1.399 . S
C129 C128 1.399 . S
C129 C130 1.381 . S
C130 H122 0.930 . S
C130 C126 1.390 . S
C130 C129 1.381 . S
N131 C124 1.286 . S
N131 C127 1.413 . S
H132 C137 0.930 . S
H133 C140 0.930 . S
H134 C142 0.930 . S
H135 C136 1.016 . S
C136 H135 1.016 . S
C136 N143 1.286 . S
C137 H132 0.930 . S
C137 C138 1.397 . S
C137 C139 1.361 . S
C138 C137 1.397 . S
C138 C142 1.390 . S
C139 C137 1.361 . S
C139 C140 1.393 . S
C139 N143 1.413 . S
C140 H133 0.930 . S
C140 C139 1.393 . S
C140 C141 1.399 . S
C141 C140 1.399 . S
C141 C142 1.381 . S
C142 H134 0.930 . S
C142 C138 1.390 . S
C142 C141 1.381 . S
N143 C136 1.286 . S
N143 C139 1.413 . S
H144 C149 0.930 . S
H145 C152 0.930 . S
H146 C154 0.930 . S
H147 C148 1.016 . S
C148 H147 1.016 . S
C148 N155 1.286 . S
C149 H144 0.930 . S
C149 C150 1.397 . S
C149 C151 1.361 . S
C150 C149 1.397 . S
C150 C154 1.390 . S
C151 C149 1.361 . S
C151 C152 1.393 . S
C151 N155 1.413 . S
C152 H145 0.930 . S
C152 C151 1.393 . S
C152 C153 1.399 . S
C153 C152 1.399 . S
C153 C154 1.381 . S
C154 H146 0.930 . S
C154 C150 1.390 . S
C154 C153 1.381 . S
N155 C148 1.286 . S
N155 C151 1.413 . S
H156 C161 0.930 . S
H157 C164 0.930 1_554 S
H158 C166 0.930 . S
H159 C160 1.016 . S
C160 H159 1.016 . S
C160 N167 1.286 1_554 S
C161 H156 0.930 . S
C161 C162 1.397 . S
C161 C163 1.361 . S
C162 C161 1.397 . S
C162 C166 1.390 . S
C163 C161 1.361 . S
C163 C164 1.393 . S
C163 N167 1.413 . S
C164 H157 0.930 1_556 S
C164 C163 1.393 . S
C164 C165 1.399 . S
C165 C164 1.399 . S
C165 C166 1.381 . S
C166 H158 0.930 . S
C166 C162 1.390 . S
C166 C165 1.381 . S
N167 C160 1.286 1_556 S
N167 C163 1.413 . S
H168 C173 0.930 . S
H169 C176 0.930 . S
H170 C178 0.930 . S
H171 C172 1.016 . S
C172 H171 1.016 . S
C172 N179 1.286 . S
C173 H168 0.930 . S
C173 C174 1.397 . S
C173 C175 1.361 . S
C174 C173 1.397 . S
C174 C178 1.390 . S
C175 C173 1.361 . S
C175 C176 1.393 . S
C175 N179 1.413 . S
C176 H169 0.930 . S
C176 C175 1.393 . S
C176 C177 1.399 . S
C177 C176 1.399 . S
C177 C178 1.381 . S
C178 H170 0.930 . S
C178 C174 1.390 . S
C178 C177 1.381 . S
N179 C172 1.286 . S
N179 C175 1.413 . S
H180 C185 0.930 . S
H181 C188 0.930 . S
H182 C190 0.930 1_554 S
H183 C184 1.016 1_565 S
C184 H183 1.016 1_545 S
C184 N191 1.286 . S
C185 H180 0.930 . S
C185 C186 1.397 . S
C185 C187 1.361 . S
C186 C185 1.397 . S
C186 C190 1.390 . S
C187 C185 1.361 . S
C187 C188 1.393 . S
C187 N191 1.413 . S
C188 H181 0.930 . S
C188 C187 1.393 . S
C188 C189 1.399 . S
C189 C188 1.399 . S
C189 C190 1.381 . S
C190 H182 0.930 1_556 S
C190 C186 1.390 . S
C190 C189 1.381 . S
N191 C184 1.286 . S
N191 C187 1.413 . S
Li192 N209 1.990 . S
Li192 O252 1.956 . S
Li192 O253 1.970 . S
Li192 O254 1.961 1_554 S
Li193 N217 1.990 . S
Li193 O252 1.970 . S
Li193 O253 1.956 . S
Li193 O255 1.961 . S
Li194 N239 1.990 . S
Li194 O252 1.961 1_556 S
Li194 O254 1.956 . S
Li194 O255 1.970 1_556 S
Li195 N245 1.990 . S
Li195 O253 1.961 . S
Li195 O254 1.970 1_554 S
Li195 O255 1.956 . S
C196 C198 1.348 . S
C196 C199 1.356 1_554 S
C196 O252 1.325 . S
N197 C200 1.279 1_556 S
N197 C201 1.309 . S
C198 C196 1.348 . S
C198 C200 1.353 . S
C198 H256 0.929 . S
C199 C196 1.356 1_556 S
C199 C201 1.358 . S
C199 H257 0.930 . S
C200 N197 1.279 1_554 S
C200 C198 1.353 . S
C200 H258 0.930 . S
C201 N197 1.309 . S
C201 C199 1.358 . S
C201 H259 0.930 . S
C202 C205 1.348 . S
C202 C206 1.356 . S
C202 O253 1.325 . S
C203 N204 1.279 . S
C203 C206 1.358 . S
C203 H260 0.930 . S
N204 C203 1.279 . S
N204 C207 1.314 . S
C205 C202 1.348 . S
C205 C207 1.353 . S
C205 H261 0.929 . S
C206 C202 1.356 . S
C206 C203 1.358 . S
C206 H262 0.930 . S
C207 N204 1.314 . S
C207 C205 1.353 . S
C207 H263 0.930 . S
C208 N209 1.316 . S
C208 C213 1.352 1_554 S
C208 H214 0.929 1_554 S
N209 Li192 1.990 . S
N209 C208 1.316 . S
N209 C211 1.279 . S
C210 C211 1.358 . S
C210 C212 1.356 . S
C210 H264 0.930 . S
C211 N209 1.279 . S
C211 C210 1.358 . S
C211 H215 0.930 . S
C212 C210 1.356 . S
C212 C213 1.348 1_554 S
C213 C208 1.352 1_556 S
C213 C212 1.348 1_556 S
C213 H265 0.929 . S
H214 C208 0.929 1_556 S
H215 C211 0.930 . S
C216 N217 1.314 . S
C216 C218 1.353 . S
C216 H222 0.930 . S
N217 Li193 1.990 . S
N217 C216 1.314 . S
N217 C220 1.279 . S
C218 C216 1.353 . S
C218 C221 1.348 . S
C218 H266 0.929 . S
C219 C220 1.358 . S
C219 C221 1.356 . S
C219 H267 0.930 . S
C220 N217 1.279 . S
C220 C219 1.358 . S
C220 H223 0.930 . S
C221 C218 1.348 . S
C221 C219 1.356 . S
H222 C216 0.930 . S
H223 C220 0.930 . S
C224 C226 1.348 . S
C224 C227 1.356 . S
C224 O254 1.325 . S
N225 C228 1.314 . S
N225 C229 1.279 . S
C226 C224 1.348 . S
C226 C228 1.353 . S
C226 H268 0.929 . S
C227 C224 1.356 . S
C227 C229 1.358 . S
C227 H269 0.930 . S
C228 N225 1.314 . S
C228 C226 1.353 . S
C228 H270 0.930 . S
C229 N225 1.279 . S
C229 C227 1.358 . S
C229 H271 0.930 . S
C230 C231 1.348 1_554 S
C230 C232 1.356 . S
C230 O255 1.325 . S
C231 C230 1.348 1_556 S
C231 C233 1.353 . S
C231 H272 0.929 . S
C232 C230 1.356 . S
C232 C234 1.358 . S
C232 H273 0.930 . S
C233 C231 1.353 . S
C233 N235 1.314 1_556 S
C233 H274 0.930 . S
C234 C232 1.358 . S
C234 N235 1.279 . S
C234 H275 0.930 . S
N235 C233 1.314 1_554 S
N235 C234 1.279 . S
C236 C238 1.353 . S
C236 N239 1.314 . S
C236 H242 0.930 . S
C237 N239 1.279 . S
C237 C240 1.358 . S
C237 H243 0.930 . S
C238 C236 1.353 . S
C238 C241 1.348 . S
C238 H276 0.929 . S
N239 Li194 1.990 . S
N239 C236 1.314 . S
N239 C237 1.279 . S
C240 C237 1.358 . S
C240 C241 1.356 . S
C240 H277 0.930 . S
C241 C238 1.348 . S
C241 C240 1.356 . S
H242 C236 0.930 . S
H243 C237 0.930 . S
C244 N245 1.314 . S
C244 C246 1.353 . S
C244 H250 0.930 . S
N245 Li195 1.990 . S
N245 C244 1.314 . S
N245 C248 1.279 . S
C246 C244 1.353 . S
C246 C249 1.348 . S
C246 H278 0.929 . S
C247 C248 1.358 . S
C247 C249 1.356 . S
C247 H279 0.930 . S
C248 N245 1.279 . S
C248 C247 1.358 . S
C248 H251 0.930 . S
C249 C246 1.348 . S
C249 C247 1.356 . S
H250 C244 0.930 . S
H251 C248 0.930 . S
O252 Li192 1.956 . S
O252 Li193 1.970 . S
O252 Li194 1.961 1_554 S
O252 C196 1.325 . S
O253 Li192 1.970 . S
O253 Li193 1.956 . S
O253 Li195 1.961 . S
O253 C202 1.325 . S
O254 Li192 1.961 1_556 S
O254 Li194 1.956 . S
O254 Li195 1.970 1_556 S
O254 C224 1.325 . S
O255 Li193 1.961 . S
O255 Li194 1.970 1_554 S
O255 Li195 1.956 . S
O255 C230 1.325 . S
H256 C198 0.929 . S
H257 C199 0.930 . S
H258 C200 0.930 . S
H259 C201 0.930 . S
H260 C203 0.930 . S
H261 C205 0.929 . S
H262 C206 0.930 . S
H263 C207 0.930 . S
H264 C210 0.930 . S
H265 C213 0.929 . S
H266 C218 0.929 . S
H267 C219 0.930 . S
H268 C226 0.929 . S
H269 C227 0.930 . S
H270 C228 0.930 . S
H271 C229 0.930 . S
H272 C231 0.929 . S
H273 C232 0.930 . S
H274 C233 0.930 . S
H275 C234 0.930 . S
H276 C238 0.929 . S
H277 C240 0.930 . S
H278 C246 0.929 . S
H279 C247 0.930 . S
Li280 N297 1.990 . S
Li280 O340 1.956 . S
Li280 O341 1.970 . S
Li280 O342 1.961 . S
Li281 N305 1.990 . S
Li281 O340 1.970 . S
Li281 O341 1.956 . S
Li281 O343 1.961 . S
Li282 N327 1.990 . S
Li282 O340 1.961 . S
Li282 O342 1.956 . S
Li282 O343 1.970 . S
Li283 N333 1.990 . S
Li283 O341 1.961 . S
Li283 O342 1.970 . S
Li283 O343 1.956 . S
C284 C286 1.348 . S
C284 C287 1.356 . S
C284 O340 1.325 . S
N285 C288 1.314 . S
N285 C289 1.279 . S
C286 C284 1.348 . S
C286 C288 1.353 . S
C286 H344 0.929 . S
C287 C284 1.356 . S
C287 C289 1.358 . S
C287 H345 0.930 . S
C288 N285 1.314 . S
C288 C286 1.353 . S
C288 H346 0.930 . S
C289 N285 1.279 . S
C289 C287 1.358 . S
C289 H347 0.930 . S
C290 C293 1.348 . S
C290 C294 1.356 . S
C290 O341 1.325 . S
C291 N292 1.279 . S
C291 C294 1.358 . S
C291 H348 0.930 . S
N292 C291 1.279 . S
N292 C295 1.314 . S
C293 C290 1.348 . S
C293 C295 1.353 . S
C293 H349 0.929 . S
C294 C290 1.356 . S
C294 C291 1.358 . S
C294 H350 0.930 . S
C295 N292 1.314 . S
C295 C293 1.353 . S
C295 H351 0.930 . S
C296 N297 1.314 . S
C296 C301 1.353 . S
C296 H302 0.930 . S
N297 Li280 1.990 . S
N297 C296 1.314 . S
N297 C299 1.279 . S
C298 C299 1.358 . S
C298 C300 1.356 . S
C298 H352 0.930 . S
C299 N297 1.279 . S
C299 C298 1.358 . S
C299 H303 0.930 . S
C300 C298 1.356 . S
C300 C301 1.348 . S
C301 C296 1.353 . S
C301 C300 1.348 . S
C301 H353 0.929 . S
H302 C296 0.930 . S
H303 C299 0.930 . S
C304 N305 1.314 . S
C304 C306 1.353 . S
C304 H310 0.930 . S
N305 Li281 1.990 . S
N305 C304 1.314 . S
N305 C308 1.279 . S
C306 C304 1.353 . S
C306 C309 1.348 . S
C306 H354 0.929 . S
C307 C308 1.358 . S
C307 C309 1.356 . S
C307 H355 0.930 . S
C308 N305 1.279 . S
C308 C307 1.358 . S
C308 H311 0.930 . S
C309 C306 1.348 . S
C309 C307 1.356 . S
H310 C304 0.930 . S
H311 C308 0.930 . S
C312 C314 1.348 . S
C312 C315 1.356 . S
C312 O342 1.325 . S
N313 C316 1.314 . S
N313 C317 1.279 . S
C314 C312 1.348 . S
C314 C316 1.353 . S
C314 H356 0.929 . S
C315 C312 1.356 . S
C315 C317 1.358 . S
C315 H357 0.930 . S
C316 N313 1.314 . S
C316 C314 1.353 . S
C316 H358 0.930 . S
C317 N313 1.279 . S
C317 C315 1.358 . S
C317 H359 0.930 . S
C318 C319 1.348 . S
C318 C320 1.356 . S
C318 O343 1.325 . S
C319 C318 1.348 . S
C319 C321 1.353 . S
C319 H360 0.929 . S
C320 C318 1.356 . S
C320 C322 1.358 . S
C320 H361 0.930 . S
C321 C319 1.353 . S
C321 N323 1.314 . S
C321 H362 0.930 . S
C322 C320 1.358 . S
C322 N323 1.279 . S
C322 H363 0.930 . S
N323 C321 1.314 . S
N323 C322 1.279 . S
C324 C326 1.353 . S
C324 N327 1.314 . S
C324 H330 0.930 . S
C325 N327 1.279 . S
C325 C328 1.358 . S
C325 H331 0.930 . S
C326 C324 1.353 . S
C326 C329 1.348 . S
C326 H364 0.929 . S
N327 Li282 1.990 . S
N327 C324 1.314 . S
N327 C325 1.279 . S
C328 C325 1.358 . S
C328 C329 1.356 . S
C328 H365 0.930 . S
C329 C326 1.348 . S
C329 C328 1.356 . S
H330 C324 0.930 . S
H331 C325 0.930 . S
C332 N333 1.314 . S
C332 C334 1.353 . S
C332 H338 0.930 . S
N333 Li283 1.990 . S
N333 C332 1.314 . S
N333 C336 1.279 . S
C334 C332 1.353 . S
C334 C337 1.348 . S
C334 H366 0.929 . S
C335 C336 1.358 . S
C335 C337 1.356 . S
C335 H367 0.930 . S
C336 N333 1.279 . S
C336 C335 1.358 . S
C336 H339 0.930 . S
C337 C334 1.348 . S
C337 C335 1.356 . S
H338 C332 0.930 . S
H339 C336 0.930 . S
O340 Li280 1.956 . S
O340 Li281 1.970 . S
O340 Li282 1.961 . S
O340 C284 1.325 . S
O341 Li280 1.970 . S
O341 Li281 1.956 . S
O341 Li283 1.961 . S
O341 C290 1.325 . S
O342 Li280 1.961 . S
O342 Li282 1.956 . S
O342 Li283 1.970 . S
O342 C312 1.325 . S
O343 Li281 1.961 . S
O343 Li282 1.970 . S
O343 Li283 1.956 . S
O343 C318 1.325 . S
H344 C286 0.929 . S
H345 C287 0.930 . S
H346 C288 0.930 . S
H347 C289 0.930 . S
H348 C291 0.930 . S
H349 C293 0.929 . S
H350 C294 0.930 . S
H351 C295 0.930 . S
H352 C298 0.930 . S
H353 C301 0.929 . S
H354 C306 0.929 . S
H355 C307 0.930 . S
H356 C314 0.929 . S
H357 C315 0.930 . S
H358 C316 0.930 . S
H359 C317 0.930 . S
H360 C319 0.929 . S
H361 C320 0.930 . S
H362 C321 0.930 . S
H363 C322 0.930 . S
H364 C326 0.929 . S
H365 C328 0.930 . S
H366 C334 0.929 . S
H367 C335 0.930 . S
Li368 N385 1.990 . S
Li368 O428 1.956 . S
Li368 O429 1.970 1_556 S
Li368 O430 1.961 . S
Li369 N393 1.990 . S
Li369 O428 1.970 1_554 S
Li369 O429 1.956 . S
Li369 O431 1.961 . S
Li370 N415 1.990 . S
Li370 O428 1.961 . S
Li370 O430 1.956 . S
Li370 O431 1.970 1_556 S
Li371 N421 1.990 . S
Li371 O429 1.961 . S
Li371 O430 1.970 1_554 S
Li371 O431 1.956 . S
C372 C374 1.348 1_556 S
C372 C375 1.356 . S
C372 O428 1.325 . S
N373 C376 1.314 1_556 S
N373 C377 1.279 . S
C374 C372 1.348 1_554 S
C374 C376 1.353 . S
C374 H432 0.929 . S
C375 C372 1.356 . S
C375 C377 1.358 . S
C375 H433 0.930 . S
C376 N373 1.314 1_554 S
C376 C374 1.353 . S
C376 H434 0.930 . S
C377 N373 1.279 . S
C377 C375 1.358 . S
C377 H435 0.930 . S
C378 C381 1.348 . S
C378 C382 1.356 . S
C378 O429 1.325 . S
C379 N380 1.279 . S
C379 C382 1.358 . S
C379 H436 0.930 . S
N380 C379 1.279 . S
N380 C383 1.314 . S
C381 C378 1.348 . S
C381 C383 1.353 . S
C381 H437 0.929 . S
C382 C378 1.356 . S
C382 C379 1.358 . S
C382 H438 0.930 . S
C383 N380 1.314 . S
C383 C381 1.353 . S
C383 H439 0.930 . S
C384 N385 1.314 . S
C384 C389 1.353 . S
C384 H390 0.930 . S
N385 Li368 1.990 . S
N385 C384 1.314 . S
N385 C387 1.279 . S
C386 C387 1.358 . S
C386 C388 1.356 . S
C386 H440 0.930 . S
C387 N385 1.279 . S
C387 C386 1.358 . S
C387 H391 0.930 . S
C388 C386 1.356 . S
C388 C389 1.348 . S
C389 C384 1.353 . S
C389 C388 1.348 . S
C389 H441 0.929 . S
H390 C384 0.930 . S
H391 C387 0.930 . S
C392 N393 1.314 . S
C392 C394 1.353 . S
C392 H398 0.930 . S
N393 Li369 1.990 . S
N393 C392 1.314 . S
N393 C396 1.279 . S
C394 C392 1.353 . S
C394 C397 1.348 . S
C394 H442 0.929 . S
C395 C396 1.358 . S
C395 C397 1.356 . S
C395 H443 0.930 . S
C396 N393 1.279 . S
C396 C395 1.358 . S
C396 H399 0.930 . S
C397 C394 1.348 . S
C397 C395 1.356 . S
H398 C392 0.930 . S
H399 C396 0.930 . S
C400 C402 1.348 . S
C400 C403 1.356 . S
C400 O430 1.325 . S
N401 C404 1.314 . S
N401 C405 1.279 . S
C402 C400 1.348 . S
C402 C404 1.353 . S
C402 H444 0.929 . S
C403 C400 1.356 . S
C403 C405 1.358 . S
C403 H445 0.930 . S
C404 N401 1.314 . S
C404 C402 1.353 . S
C404 H446 0.930 . S
C405 N401 1.279 . S
C405 C403 1.358 . S
C405 H447 0.930 . S
C406 C407 1.348 1_554 S
C406 C408 1.356 . S
C406 O431 1.325 . S
C407 C406 1.348 1_556 S
C407 C409 1.353 . S
C407 H448 0.929 . S
C408 C406 1.356 . S
C408 C410 1.358 . S
C408 H449 0.930 . S
C409 C407 1.353 . S
C409 N411 1.314 1_556 S
C409 H450 0.930 . S
C410 C408 1.358 . S
C410 N411 1.279 . S
C410 H451 0.930 . S
N411 C409 1.314 1_554 S
N411 C410 1.279 . S
C412 C414 1.353 . S
C412 N415 1.314 . S
C412 H418 0.930 . S
C413 N415 1.279 . S
C413 C416 1.358 . S
C413 H419 0.930 . S
C414 C412 1.353 . S
C414 C417 1.348 . S
C414 H452 0.929 . S
N415 Li370 1.990 . S
N415 C412 1.314 . S
N415 C413 1.279 . S
C416 C413 1.358 . S
C416 C417 1.356 . S
C416 H453 0.930 . S
C417 C414 1.348 . S
C417 C416 1.356 . S
H418 C412 0.930 . S
H419 C413 0.930 . S
C420 N421 1.314 . S
C420 C422 1.353 . S
C420 H426 0.930 . S
N421 Li371 1.990 . S
N421 C420 1.314 . S
N421 C424 1.279 . S
C422 C420 1.353 . S
C422 C425 1.348 . S
C422 H454 0.929 . S
C423 C424 1.358 . S
C423 C425 1.356 . S
C423 H455 0.930 . S
C424 N421 1.279 . S
C424 C423 1.358 . S
C424 H427 0.930 . S
C425 C422 1.348 . S
C425 C423 1.356 . S
H426 C420 0.930 . S
H427 C424 0.930 . S
O428 Li368 1.956 . S
O428 Li369 1.970 1_556 S
O428 Li370 1.961 . S
O428 C372 1.325 . S
O429 Li368 1.970 1_554 S
O429 Li369 1.956 . S
O429 Li371 1.961 . S
O429 C378 1.325 . S
O430 Li368 1.961 . S
O430 Li370 1.956 . S
O430 Li371 1.970 1_556 S
O430 C400 1.325 . S
O431 Li369 1.961 . S
O431 Li370 1.970 1_554 S
O431 Li371 1.956 . S
O431 C406 1.325 . S
H432 C374 0.929 . S
H433 C375 0.930 . S
H434 C376 0.930 . S
H435 C377 0.930 . S
H436 C379 0.930 . S
H437 C381 0.929 . S
H438 C382 0.930 . S
H439 C383 0.930 . S
H440 C386 0.930 . S
H441 C389 0.929 . S
H442 C394 0.929 . S
H443 C395 0.930 . S
H444 C402 0.929 . S
H445 C403 0.930 . S
H446 C404 0.930 . S
H447 C405 0.930 . S
H448 C407 0.929 . S
H449 C408 0.930 . S
H450 C409 0.930 . S
H451 C410 0.930 . S
H452 C414 0.929 . S
H453 C416 0.930 . S
H454 C422 0.929 . S
H455 C423 0.930 . S
Li456 N473 1.990 . S
Li456 O516 1.956 . S
Li456 O517 1.970 . S
Li456 O518 1.961 . S
Li457 N481 1.990 . S
Li457 O516 1.970 . S
Li457 O517 1.956 . S
Li457 O519 1.961 1_545 S
Li458 N503 1.990 . S
Li458 O516 1.961 . S
Li458 O518 1.956 . S
Li458 O519 1.970 1_545 S
Li459 N509 1.990 . S
Li459 O517 1.961 1_565 S
Li459 O518 1.970 1_565 S
Li459 O519 1.956 . S
C460 C462 1.348 . S
C460 C463 1.356 . S
C460 O516 1.325 . S
N461 C464 1.314 . S
N461 C465 1.279 . S
C462 C460 1.348 . S
C462 C464 1.353 . S
C462 H520 0.929 . S
C463 C460 1.356 . S
C463 C465 1.358 . S
C463 H521 0.930 . S
C464 N461 1.314 . S
C464 C462 1.353 . S
C464 H522 0.940 . S
C465 N461 1.279 . S
C465 C463 1.358 . S
C465 H523 0.930 . S
C466 C469 1.348 . S
C466 C470 1.356 1_545 S
C466 O517 1.325 . S
C467 N468 1.279 1_565 S
C467 C470 1.358 . S
C467 H524 0.930 . S
N468 C467 1.279 1_545 S
N468 C471 1.314 . S
C469 C466 1.348 . S
C469 C471 1.353 . S
C469 H525 0.929 . S
C470 C466 1.356 1_565 S
C470 C467 1.358 . S
C470 H526 0.930 . S
C471 N468 1.314 . S
C471 C469 1.353 . S
C471 H527 0.930 . S
C472 N473 1.314 . S
C472 C477 1.353 . S
C472 H478 0.930 . S
N473 Li456 1.990 . S
N473 C472 1.314 . S
N473 C475 1.279 . S
C474 C475 1.358 . S
C474 C476 1.356 . S
C474 H528 0.930 . S
C475 N473 1.279 . S
C475 C474 1.358 . S
C475 H479 0.930 . S
C476 C474 1.356 . S
C476 C477 1.348 . S
C477 C472 1.353 . S
C477 C476 1.348 . S
C477 H529 0.929 . S
H478 C472 0.930 . S
H479 C475 0.930 . S
C480 N481 1.314 . S
C480 C482 1.353 1_655 S
C480 H486 0.930 . S
N481 Li457 1.990 . S
N481 C480 1.314 . S
N481 C484 1.279 . S
C482 C480 1.353 1_455 S
C482 C485 1.348 . S
C482 H530 0.941 . S
C483 C484 1.358 . S
C483 C485 1.356 1_655 S
C483 H531 0.930 . S
C484 N481 1.279 . S
C484 C483 1.358 . S
C484 H487 0.930 . S
C485 C482 1.348 . S
C485 C483 1.356 1_455 S
H486 C480 0.930 . S
H487 C484 0.930 . S
C488 C490 1.348 . S
C488 C491 1.356 . S
C488 O518 1.325 . S
N489 C492 1.314 . S
N489 C493 1.279 . S
C490 C488 1.348 . S
C490 C492 1.353 . S
C490 H532 0.929 1_545 S
C491 C488 1.356 . S
C491 C493 1.358 . S
C491 H533 0.930 . S
C492 N489 1.314 . S
C492 C490 1.353 . S
C492 H534 0.930 1_545 S
C493 N489 1.279 . S
C493 C491 1.358 . S
C493 H535 0.930 . S
C494 C495 1.348 . S
C494 C496 1.356 . S
C494 O519 1.325 . S
C495 C494 1.348 . S
C495 C497 1.353 . S
C495 H536 0.929 . S
C496 C494 1.356 . S
C496 C498 1.358 . S
C496 H537 0.930 . S
C497 C495 1.353 . S
C497 N499 1.314 . S
C497 H538 0.930 . S
C498 C496 1.358 . S
C498 N499 1.279 . S
C498 H539 0.930 . S
N499 C497 1.314 . S
N499 C498 1.279 . S
C500 C502 1.353 1_655 S
C500 N503 1.314 . S
C500 H506 0.930 . S
C501 N503 1.279 . S
C501 C504 1.358 . S
C501 H507 0.930 . S
C502 C500 1.353 1_455 S
C502 C505 1.348 1_455 S
C502 H540 0.929 . S
N503 Li458 1.990 . S
N503 C500 1.314 . S
N503 C501 1.279 . S
C504 C501 1.358 . S
C504 C505 1.356 . S
C504 H541 0.930 . S
C505 C502 1.348 1_655 S
C505 C504 1.356 . S
H506 C500 0.930 . S
H507 C501 0.930 . S
C508 N509 1.314 . S
C508 C510 1.353 . S
C508 H514 0.930 . S
N509 Li459 1.990 . S
N509 C508 1.314 . S
N509 C512 1.279 . S
C510 C508 1.353 . S
C510 C513 1.348 . S
C510 H542 0.929 . S
C511 C512 1.358 . S
C511 C513 1.356 . S
C511 H543 0.930 . S
C512 N509 1.279 . S
C512 C511 1.358 . S
C512 H515 0.930 . S
C513 C510 1.348 . S
C513 C511 1.356 . S
H514 C508 0.930 . S
H515 C512 0.930 . S
O516 Li456 1.956 . S
O516 Li457 1.970 . S
O516 Li458 1.961 . S
O516 C460 1.325 . S
O517 Li456 1.970 . S
O517 Li457 1.956 . S
O517 Li459 1.961 1_545 S
O517 C466 1.325 . S
O518 Li456 1.961 . S
O518 Li458 1.956 . S
O518 Li459 1.970 1_545 S
O518 C488 1.325 . S
O519 Li457 1.961 1_565 S
O519 Li458 1.970 1_565 S
O519 Li459 1.956 . S
O519 C494 1.325 . S
H520 C462 0.929 . S
H521 C463 0.930 . S
H522 C464 0.940 . S
H523 C465 0.930 . S
H524 C467 0.930 . S
H525 C469 0.929 . S
H526 C470 0.930 . S
H527 C471 0.930 . S
H528 C474 0.930 . S
H529 C477 0.929 . S
H530 C482 0.941 . S
H531 C483 0.930 . S
H532 C490 0.929 1_565 S
H533 C491 0.930 . S
H534 C492 0.930 1_565 S
H535 C493 0.930 . S
H536 C495 0.929 . S
H537 C496 0.930 . S
H538 C497 0.930 . S
H539 C498 0.930 . S
H540 C502 0.929 . S
H541 C504 0.930 . S
H542 C510 0.929 . S
H543 C511 0.930 . S
Li544 N561 1.990 . S
Li544 O604 1.956 . S
Li544 O605 1.970 . S
Li544 O606 1.961 . S
Li545 N569 1.990 . S
Li545 O604 1.970 . S
Li545 O605 1.956 . S
Li545 O607 1.961 . S
Li546 N591 1.990 . S
Li546 O604 1.961 . S
Li546 O606 1.956 . S
Li546 O607 1.970 . S
Li547 N597 1.990 . S
Li547 O605 1.961 . S
Li547 O606 1.970 . S
Li547 O607 1.956 . S
C548 C550 1.348 . S
C548 C551 1.356 . S
C548 O604 1.325 . S
N549 C552 1.314 . S
N549 C553 1.279 . S
C550 C548 1.348 . S
C550 C552 1.353 . S
C550 H608 0.929 . S
C551 C548 1.356 . S
C551 C553 1.358 . S
C551 H609 0.930 . S
C552 N549 1.314 . S
C552 C550 1.353 . S
C552 H610 0.930 . S
C553 N549 1.279 . S
C553 C551 1.358 . S
C553 H611 0.930 . S
C554 C557 1.348 . S
C554 C558 1.356 . S
C554 O605 1.325 . S
C555 N556 1.279 . S
C555 C558 1.358 . S
C555 H612 0.930 . S
N556 C555 1.279 . S
N556 C559 1.314 . S
C557 C554 1.348 . S
C557 C559 1.353 . S
C557 H613 0.929 . S
C558 C554 1.356 . S
C558 C555 1.358 . S
C558 H614 0.930 . S
C559 N556 1.314 . S
C559 C557 1.353 . S
C559 H615 0.930 . S
C560 N561 1.314 . S
C560 C565 1.353 . S
C560 H566 0.930 . S
N561 Li544 1.990 . S
N561 C560 1.314 . S
N561 C563 1.279 . S
C562 C563 1.358 . S
C562 C564 1.356 . S
C562 H616 0.930 . S
C563 N561 1.279 . S
C563 C562 1.358 . S
C563 H567 0.930 . S
C564 C562 1.356 . S
C564 C565 1.348 . S
C565 C560 1.353 . S
C565 C564 1.348 . S
C565 H617 0.929 . S
H566 C560 0.930 . S
H567 C563 0.930 . S
C568 N569 1.314 . S
C568 C570 1.353 . S
C568 H574 0.930 . S
N569 Li545 1.990 . S
N569 C568 1.314 . S
N569 C572 1.279 . S
C570 C568 1.353 . S
C570 C573 1.348 . S
C570 H618 0.929 . S
C571 C572 1.358 . S
C571 C573 1.356 . S
C571 H619 0.930 . S
C572 N569 1.279 . S
C572 C571 1.358 . S
C572 H575 0.930 . S
C573 C570 1.348 . S
C573 C571 1.356 . S
H574 C568 0.930 . S
H575 C572 0.930 . S
C576 C578 1.348 . S
C576 C579 1.356 . S
C576 O606 1.325 . S
N577 C580 1.314 . S
N577 C581 1.279 . S
C578 C576 1.348 . S
C578 C580 1.353 . S
C578 H620 0.929 . S
C579 C576 1.356 . S
C579 C581 1.358 . S
C579 H621 0.930 . S
C580 N577 1.314 . S
C580 C578 1.353 . S
C580 H622 0.930 . S
C581 N577 1.279 . S
C581 C579 1.358 . S
C581 H623 0.930 . S
C582 C583 1.348 . S
C582 C584 1.356 . S
C582 O607 1.325 . S
C583 C582 1.348 . S
C583 C585 1.353 . S
C583 H624 0.929 . S
C584 C582 1.356 . S
C584 C586 1.358 . S
C584 H625 0.930 . S
C585 C583 1.353 . S
C585 N587 1.314 . S
C585 H626 0.930 . S
C586 C584 1.358 . S
C586 N587 1.279 . S
C586 H627 0.930 . S
N587 C585 1.314 . S
N587 C586 1.279 . S
C588 C590 1.353 . S
C588 N591 1.314 . S
C588 H594 0.930 . S
C589 N591 1.279 . S
C589 C592 1.358 . S
C589 H595 0.930 . S
C590 C588 1.353 . S
C590 C593 1.348 . S
C590 H628 0.929 . S
N591 Li546 1.990 . S
N591 C588 1.314 . S
N591 C589 1.279 . S
C592 C589 1.358 . S
C592 C593 1.356 . S
C592 H629 0.930 . S
C593 C590 1.348 . S
C593 C592 1.356 . S
H594 C588 0.930 . S
H595 C589 0.930 . S
C596 N597 1.314 . S
C596 C598 1.353 . S
C596 H602 0.930 . S
N597 Li547 1.990 . S
N597 C596 1.314 . S
N597 C600 1.279 . S
C598 C596 1.353 . S
C598 C601 1.348 . S
C598 H630 0.929 . S
C599 C600 1.358 . S
C599 C601 1.356 . S
C599 H631 0.930 . S
C600 N597 1.279 . S
C600 C599 1.358 . S
C600 H603 0.930 . S
C601 C598 1.348 . S
C601 C599 1.356 . S
H602 C596 0.930 . S
H603 C600 0.930 . S
O604 Li544 1.956 . S
O604 Li545 1.970 . S
O604 Li546 1.961 . S
O604 C548 1.325 . S
O605 Li544 1.970 . S
O605 Li545 1.956 . S
O605 Li547 1.961 . S
O605 C554 1.325 . S
O606 Li544 1.961 . S
O606 Li546 1.956 . S
O606 Li547 1.970 . S
O606 C576 1.325 . S
O607 Li545 1.961 . S
O607 Li546 1.970 . S
O607 Li547 1.956 . S
O607 C582 1.325 . S
H608 C550 0.929 . S
H609 C551 0.930 . S
H610 C552 0.930 . S
H611 C553 0.930 . S
H612 C555 0.930 . S
H613 C557 0.929 . S
H614 C558 0.930 . S
H615 C559 0.930 . S
H616 C562 0.930 . S
H617 C565 0.929 . S
H618 C570 0.929 . S
H619 C571 0.930 . S
H620 C578 0.929 . S
H621 C579 0.930 . S
H622 C580 0.930 . S
H623 C581 0.930 . S
H624 C583 0.929 . S
H625 C584 0.930 . S
H626 C585 0.930 . S
H627 C586 0.930 . S
H628 C590 0.929 . S
H629 C592 0.930 . S
H630 C598 0.929 . S
H631 C599 0.930 . S
Li632 N649 1.990 . S
Li632 O692 1.956 . S
Li632 O693 1.970 . S
Li632 O694 1.961 . S
Li633 N657 1.990 . S
Li633 O692 1.970 . S
Li633 O693 1.956 . S
Li633 O695 1.961 . S
Li634 N679 1.990 . S
Li634 O692 1.961 . S
Li634 O694 1.956 . S
Li634 O695 1.970 . S
Li635 N685 1.990 . S
Li635 O693 1.961 . S
Li635 O694 1.970 . S
Li635 O695 1.956 . S
C636 C638 1.348 . S
C636 C639 1.356 . S
C636 O692 1.325 . S
N637 C640 1.314 . S
N637 C641 1.279 . S
C638 C636 1.348 . S
C638 C640 1.353 . S
C638 H696 0.929 . S
C639 C636 1.356 . S
C639 C641 1.358 . S
C639 H697 0.930 . S
C640 N637 1.314 . S
C640 C638 1.353 . S
C640 H698 0.930 . S
C641 N637 1.279 . S
C641 C639 1.358 . S
C641 H699 0.930 . S
C642 C645 1.348 . S
C642 C646 1.356 . S
C642 O693 1.325 . S
C643 N644 1.279 . S
C643 C646 1.358 . S
C643 H700 0.930 . S
N644 C643 1.279 . S
N644 C647 1.314 . S
C645 C642 1.348 . S
C645 C647 1.353 . S
C645 H701 0.929 . S
C646 C642 1.356 . S
C646 C643 1.358 . S
C646 H702 0.930 . S
C647 N644 1.314 . S
C647 C645 1.353 . S
C647 H703 0.930 . S
C648 N649 1.314 . S
C648 C653 1.353 . S
C648 H654 0.930 . S
N649 Li632 1.990 . S
N649 C648 1.314 . S
N649 C651 1.279 . S
C650 C651 1.358 . S
C650 C652 1.356 . S
C650 H704 0.930 . S
C651 N649 1.279 . S
C651 C650 1.358 . S
C651 H655 0.930 . S
C652 C650 1.356 . S
C652 C653 1.348 . S
C653 C648 1.353 . S
C653 C652 1.348 . S
C653 H705 0.929 . S
H654 C648 0.930 . S
H655 C651 0.930 . S
C656 N657 1.314 . S
C656 C658 1.353 . S
C656 H662 0.930 . S
N657 Li633 1.990 . S
N657 C656 1.314 . S
N657 C660 1.279 . S
C658 C656 1.353 . S
C658 C661 1.348 . S
C658 H706 0.929 . S
C659 C660 1.358 . S
C659 C661 1.356 . S
C659 H707 0.930 . S
C660 N657 1.279 . S
C660 C659 1.358 . S
C660 H663 0.930 . S
C661 C658 1.348 . S
C661 C659 1.356 . S
H662 C656 0.930 . S
H663 C660 0.930 . S
C664 C666 1.348 . S
C664 C667 1.356 . S
C664 O694 1.325 . S
N665 C668 1.314 . S
N665 C669 1.279 . S
C666 C664 1.348 . S
C666 C668 1.353 . S
C666 H708 0.929 . S
C667 C664 1.356 . S
C667 C669 1.358 . S
C667 H709 0.930 . S
C668 N665 1.314 . S
C668 C666 1.353 . S
C668 H710 0.930 . S
C669 N665 1.279 . S
C669 C667 1.358 . S
C669 H711 0.930 . S
C670 C671 1.348 . S
C670 C672 1.356 . S
C670 O695 1.325 . S
C671 C670 1.348 . S
C671 C673 1.353 . S
C671 H712 0.929 . S
C672 C670 1.356 . S
C672 C674 1.358 . S
C672 H713 0.930 . S
C673 C671 1.353 . S
C673 N675 1.314 . S
C673 H714 0.930 . S
C674 C672 1.358 . S
C674 N675 1.279 . S
C674 H715 0.930 . S
N675 C673 1.314 . S
N675 C674 1.279 . S
C676 C678 1.353 . S
C676 N679 1.314 . S
C676 H682 0.930 . S
C677 N679 1.279 . S
C677 C680 1.358 . S
C677 H683 0.930 . S
C678 C676 1.353 . S
C678 C681 1.348 . S
C678 H716 0.929 . S
N679 Li634 1.990 . S
N679 C676 1.314 . S
N679 C677 1.279 . S
C680 C677 1.358 . S
C680 C681 1.356 . S
C680 H717 0.930 . S
C681 C678 1.348 . S
C681 C680 1.356 . S
H682 C676 0.930 . S
H683 C677 0.930 . S
C684 N685 1.314 . S
C684 C686 1.353 . S
C684 H690 0.930 . S
N685 Li635 1.990 . S
N685 C684 1.314 . S
N685 C688 1.279 . S
C686 C684 1.353 . S
C686 C689 1.348 . S
C686 H718 0.929 . S
C687 C688 1.358 . S
C687 C689 1.356 . S
C687 H719 0.930 . S
C688 N685 1.279 . S
C688 C687 1.358 . S
C688 H691 0.930 . S
C689 C686 1.348 . S
C689 C687 1.356 . S
H690 C684 0.930 . S
H691 C688 0.930 . S
O692 Li632 1.956 . S
O692 Li633 1.970 . S
O692 Li634 1.961 . S
O692 C636 1.325 . S
O693 Li632 1.970 . S
O693 Li633 1.956 . S
O693 Li635 1.961 . S
O693 C642 1.325 . S
O694 Li632 1.961 . S
O694 Li634 1.956 . S
O694 Li635 1.970 . S
O694 C664 1.325 . S
O695 Li633 1.961 . S
O695 Li634 1.970 . S
O695 Li635 1.956 . S
O695 C670 1.325 . S
H696 C638 0.929 . S
H697 C639 0.930 . S
H698 C640 0.930 . S
H699 C641 0.930 . S
H700 C643 0.930 . S
H701 C645 0.929 . S
H702 C646 0.930 . S
H703 C647 0.930 . S
H704 C650 0.930 . S
H705 C653 0.929 . S
H706 C658 0.929 . S
H707 C659 0.930 . S
H708 C666 0.929 . S
H709 C667 0.930 . S
H710 C668 0.930 . S
H711 C669 0.930 . S
H712 C671 0.929 . S
H713 C672 0.930 . S
H714 C673 0.930 . S
H715 C674 0.930 . S
H716 C678 0.929 . S
H717 C680 0.930 . S
H718 C686 0.929 . S
H719 C687 0.930 . S
Li720 N737 1.990 . S
Li720 O780 1.956 . S
Li720 O781 1.970 . S
Li720 O782 1.961 . S
Li721 N745 1.990 . S
Li721 O780 1.970 . S
Li721 O781 1.956 . S
Li721 O783 1.961 . S
Li722 N767 1.990 . S
Li722 O780 1.961 . S
Li722 O782 1.956 . S
Li722 O783 1.970 . S
Li723 N773 1.990 . S
Li723 O781 1.961 . S
Li723 O782 1.970 . S
Li723 O783 1.956 . S
C724 C726 1.348 . S
C724 C727 1.356 . S
C724 O780 1.325 . S
N725 C728 1.314 . S
N725 C729 1.279 . S
C726 C724 1.348 . S
C726 C728 1.353 . S
C726 H784 0.929 . S
C727 C724 1.356 . S
C727 C729 1.358 . S
C727 H785 0.930 . S
C728 N725 1.314 . S
C728 C726 1.353 . S
C728 H786 0.930 . S
C729 N725 1.279 . S
C729 C727 1.358 . S
C729 H787 0.930 . S
C730 C733 1.348 . S
C730 C734 1.356 . S
C730 O781 1.325 . S
C731 N732 1.279 . S
C731 C734 1.358 . S
C731 H788 0.930 . S
N732 C731 1.279 . S
N732 C735 1.314 . S
C733 C730 1.348 . S
C733 C735 1.353 . S
C733 H789 0.929 . S
C734 C730 1.356 . S
C734 C731 1.358 . S
C734 H790 0.930 . S
C735 N732 1.314 . S
C735 C733 1.353 . S
C735 H791 0.930 . S
C736 N737 1.314 . S
C736 C741 1.353 . S
C736 H742 0.930 . S
N737 Li720 1.990 . S
N737 C736 1.314 . S
N737 C739 1.279 . S
C738 C739 1.358 . S
C738 C740 1.356 . S
C738 H792 0.930 . S
C739 N737 1.279 . S
C739 C738 1.358 . S
C739 H743 0.930 . S
C740 C738 1.356 . S
C740 C741 1.348 . S
C741 C736 1.353 . S
C741 C740 1.348 . S
C741 H793 0.929 . S
H742 C736 0.930 . S
H743 C739 0.930 . S
C744 N745 1.314 . S
C744 C746 1.353 . S
C744 H750 0.930 . S
N745 Li721 1.990 . S
N745 C744 1.314 . S
N745 C748 1.279 . S
C746 C744 1.353 . S
C746 C749 1.348 . S
C746 H794 0.929 . S
C747 C748 1.358 . S
C747 C749 1.356 . S
C747 H795 0.930 . S
C748 N745 1.279 . S
C748 C747 1.358 . S
C748 H751 0.930 . S
C749 C746 1.348 . S
C749 C747 1.356 . S
H750 C744 0.930 . S
H751 C748 0.930 . S
C752 C754 1.348 . S
C752 C755 1.356 . S
C752 O782 1.325 . S
N753 C756 1.314 . S
N753 C757 1.279 . S
C754 C752 1.348 . S
C754 C756 1.353 . S
C754 H796 0.929 . S
C755 C752 1.356 . S
C755 C757 1.358 . S
C755 H797 0.930 . S
C756 N753 1.314 . S
C756 C754 1.353 . S
C756 H798 0.930 . S
C757 N753 1.279 . S
C757 C755 1.358 . S
C757 H799 0.930 . S
C758 C759 1.348 . S
C758 C760 1.356 . S
C758 O783 1.325 . S
C759 C758 1.348 . S
C759 C761 1.353 . S
C759 H800 0.929 . S
C760 C758 1.356 . S
C760 C762 1.358 . S
C760 H801 0.930 . S
C761 C759 1.353 . S
C761 N763 1.314 . S
C761 H802 0.930 . S
C762 C760 1.358 . S
C762 N763 1.279 . S
C762 H803 0.930 . S
N763 C761 1.314 . S
N763 C762 1.279 . S
C764 C766 1.353 . S
C764 N767 1.314 . S
C764 H770 0.930 . S
C765 N767 1.279 . S
C765 C768 1.358 . S
C765 H771 0.930 . S
C766 C764 1.353 . S
C766 C769 1.348 . S
C766 H804 0.929 . S
N767 Li722 1.990 . S
N767 C764 1.314 . S
N767 C765 1.279 . S
C768 C765 1.358 . S
C768 C769 1.356 . S
C768 H805 0.930 . S
C769 C766 1.348 . S
C769 C768 1.356 . S
H770 C764 0.930 . S
H771 C765 0.930 . S
C772 N773 1.314 . S
C772 C774 1.353 . S
C772 H778 0.930 . S
N773 Li723 1.990 . S
N773 C772 1.314 . S
N773 C776 1.279 . S
C774 C772 1.353 . S
C774 C777 1.348 . S
C774 H806 0.929 . S
C775 C776 1.358 . S
C775 C777 1.356 . S
C775 H807 0.930 . S
C776 N773 1.279 . S
C776 C775 1.358 . S
C776 H779 0.930 . S
C777 C774 1.348 . S
C777 C775 1.356 . S
H778 C772 0.930 . S
H779 C776 0.930 . S
O780 Li720 1.956 . S
O780 Li721 1.970 . S
O780 Li722 1.961 . S
O780 C724 1.325 . S
O781 Li720 1.970 . S
O781 Li721 1.956 . S
O781 Li723 1.961 . S
O781 C730 1.325 . S
O782 Li720 1.961 . S
O782 Li722 1.956 . S
O782 Li723 1.970 . S
O782 C752 1.325 . S
O783 Li721 1.961 . S
O783 Li722 1.970 . S
O783 Li723 1.956 . S
O783 C758 1.325 . S
H784 C726 0.929 . S
H785 C727 0.930 . S
H786 C728 0.930 . S
H787 C729 0.930 . S
H788 C731 0.930 . S
H789 C733 0.929 . S
H790 C734 0.930 . S
H791 C735 0.930 . S
H792 C738 0.930 . S
H793 C741 0.929 . S
H794 C746 0.929 . S
H795 C747 0.930 . S
H796 C754 0.929 . S
H797 C755 0.930 . S
H798 C756 0.930 . S
H799 C757 0.930 . S
H800 C759 0.929 . S
H801 C760 0.930 . S
H802 C761 0.930 . S
H803 C762 0.930 . S
H804 C766 0.929 . S
H805 C768 0.930 . S
H806 C774 0.929 . S
H807 C775 0.930 . S
Li808 N825 1.990 . S
Li808 O868 1.956 . S
Li808 O869 1.970 1_565 S
Li808 O870 1.961 . S
Li809 N833 1.990 . S
Li809 O868 1.970 1_545 S
Li809 O869 1.956 . S
Li809 O871 1.961 . S
Li810 N855 1.990 . S
Li810 O868 1.961 . S
Li810 O870 1.956 . S
Li810 O871 1.970 1_565 S
Li811 N861 1.990 . S
Li811 O869 1.961 . S
Li811 O870 1.970 1_545 S
Li811 O871 1.956 . S
C812 C814 1.348 . S
C812 C815 1.356 . S
C812 O868 1.325 . S
N813 C816 1.314 . S
N813 C817 1.279 . S
C814 C812 1.348 . S
C814 C816 1.353 . S
C814 H872 0.929 . S
C815 C812 1.356 . S
C815 C817 1.358 . S
C815 H873 0.930 . S
C816 N813 1.314 . S
C816 C814 1.353 . S
C816 H874 0.930 . S
C817 N813 1.279 . S
C817 C815 1.358 . S
C817 H875 0.930 . S
C818 C821 1.348 1_545 S
C818 C822 1.356 . S
C818 O869 1.325 . S
C819 N820 1.279 . S
C819 C822 1.358 . S
C819 H876 0.930 . S
N820 C819 1.279 . S
N820 C823 1.314 1_545 S
C821 C818 1.348 1_565 S
C821 C823 1.353 . S
C821 H877 0.929 . S
C822 C818 1.356 . S
C822 C819 1.358 . S
C822 H878 0.930 . S
C823 N820 1.314 1_565 S
C823 C821 1.353 . S
C823 H879 0.930 . S
C824 N825 1.314 . S
C824 C829 1.353 . S
C824 H830 0.930 . S
N825 Li808 1.990 . S
N825 C824 1.314 . S
N825 C827 1.279 . S
C826 C827 1.358 . S
C826 C828 1.356 . S
C826 H880 0.930 . S
C827 N825 1.279 . S
C827 C826 1.358 . S
C827 H831 0.930 . S
C828 C826 1.356 . S
C828 C829 1.348 . S
C829 C824 1.353 . S
C829 C828 1.348 . S
C829 H881 0.929 . S
H830 C824 0.930 . S
H831 C827 0.930 . S
C832 N833 1.314 . S
C832 C834 1.353 . S
C832 H838 0.930 . S
N833 Li809 1.990 . S
N833 C832 1.314 . S
N833 C836 1.279 . S
C834 C832 1.353 . S
C834 C837 1.348 . S
C834 H882 0.929 . S
C835 C836 1.358 . S
C835 C837 1.356 . S
C835 H883 0.930 . S
C836 N833 1.279 . S
C836 C835 1.358 . S
C836 H839 0.930 . S
C837 C834 1.348 . S
C837 C835 1.356 . S
H838 C832 0.930 . S
H839 C836 0.930 . S
C840 C842 1.348 1_565 S
C840 C843 1.356 . S
C840 O870 1.325 . S
N841 C844 1.314 1_565 S
N841 C845 1.279 . S
C842 C840 1.348 1_545 S
C842 C844 1.353 . S
C842 H884 0.929 . S
C843 C840 1.356 . S
C843 C845 1.358 . S
C843 H885 0.930 . S
C844 N841 1.314 1_545 S
C844 C842 1.353 . S
C844 H886 0.930 . S
C845 N841 1.279 . S
C845 C843 1.358 . S
C845 H887 0.930 . S
C846 C847 1.348 . S
C846 C848 1.356 . S
C846 O871 1.325 . S
C847 C846 1.348 . S
C847 C849 1.353 . S
C847 H888 0.929 . S
C848 C846 1.356 . S
C848 C850 1.358 . S
C848 H889 0.930 . S
C849 C847 1.353 . S
C849 N851 1.314 . S
C849 H890 0.930 . S
C850 C848 1.358 . S
C850 N851 1.279 . S
C850 H891 0.930 . S
N851 C849 1.314 . S
N851 C850 1.279 . S
C852 C854 1.353 . S
C852 N855 1.314 . S
C852 H858 0.930 . S
C853 N855 1.279 . S
C853 C856 1.358 . S
C853 H859 0.930 . S
C854 C852 1.353 . S
C854 C857 1.348 . S
C854 H892 0.929 . S
N855 Li810 1.990 . S
N855 C852 1.314 . S
N855 C853 1.279 . S
C856 C853 1.358 . S
C856 C857 1.356 . S
C856 H893 0.930 . S
C857 C854 1.348 . S
C857 C856 1.356 . S
H858 C852 0.930 . S
H859 C853 0.930 . S
C860 N861 1.314 . S
C860 C862 1.353 . S
C860 H866 0.930 . S
N861 Li811 1.990 . S
N861 C860 1.314 . S
N861 C864 1.279 . S
C862 C860 1.353 . S
C862 C865 1.348 . S
C862 H894 0.929 . S
C863 C864 1.358 . S
C863 C865 1.356 . S
C863 H895 0.930 . S
C864 N861 1.279 . S
C864 C863 1.358 . S
C864 H867 0.930 . S
C865 C862 1.348 . S
C865 C863 1.356 . S
H866 C860 0.930 . S
H867 C864 0.930 . S
O868 Li808 1.956 . S
O868 Li809 1.970 1_565 S
O868 Li810 1.961 . S
O868 C812 1.325 . S
O869 Li808 1.970 1_545 S
O869 Li809 1.956 . S
O869 Li811 1.961 . S
O869 C818 1.325 . S
O870 Li808 1.961 . S
O870 Li810 1.956 . S
O870 Li811 1.970 1_565 S
O870 C840 1.325 . S
O871 Li809 1.961 . S
O871 Li810 1.970 1_545 S
O871 Li811 1.956 . S
O871 C846 1.325 . S
H872 C814 0.929 . S
H873 C815 0.930 . S
H874 C816 0.930 . S
H875 C817 0.930 . S
H876 C819 0.930 . S
H877 C821 0.929 . S
H878 C822 0.930 . S
H879 C823 0.930 . S
H880 C826 0.930 . S
H881 C829 0.929 . S
H882 C834 0.929 . S
H883 C835 0.930 . S
H884 C842 0.929 . S
H885 C843 0.930 . S
H886 C844 0.930 . S
H887 C845 0.930 . S
H888 C847 0.929 . S
H889 C848 0.930 . S
H890 C849 0.930 . S
H891 C850 0.930 . S
H892 C854 0.929 . S
H893 C856 0.930 . S
H894 C862 0.929 . S
H895 C863 0.930 . S
Li896 N913 1.990 . S
Li896 O956 1.956 . S
Li896 O957 1.970 . S
Li896 O958 1.961 . S
Li897 N921 1.990 1_455 S
Li897 O956 1.970 . S
Li897 O957 1.956 . S
Li897 O959 1.961 1_455 S
Li898 N943 1.990 . S
Li898 O956 1.961 . S
Li898 O958 1.956 . S
Li898 O959 1.970 1_455 S
Li899 N949 1.990 . S
Li899 O957 1.961 1_655 S
Li899 O958 1.970 1_655 S
Li899 O959 1.956 . S
C900 C902 1.348 . S
C900 C903 1.356 . S
C900 O956 1.325 . S
N901 C904 1.314 . S
N901 C905 1.279 . S
C902 C900 1.348 . S
C902 C904 1.353 . S
C902 H960 0.929 . S
C903 C900 1.356 . S
C903 C905 1.358 . S
C903 H961 0.930 . S
C904 N901 1.314 . S
C904 C902 1.353 . S
C904 H962 0.930 . S
C905 N901 1.279 . S
C905 C903 1.358 . S
C905 H963 0.930 . S
C906 C909 1.327 1_655 S
C906 C910 1.381 . S
C906 O957 1.321 1_655 S
C907 N908 1.279 . S
C907 C910 1.358 . S
C907 H964 0.930 . S
N908 C907 1.279 . S
N908 C911 1.314 1_655 S
C909 C906 1.327 1_455 S
C909 C911 1.353 . S
C909 H965 0.929 . S
C910 C906 1.381 . S
C910 C907 1.358 . S
C910 H966 0.930 . S
C911 N908 1.314 1_455 S
C911 C909 1.353 . S
C911 H967 0.930 . S
C912 N913 1.314 . S
C912 C917 1.353 . S
C912 H918 0.930 . S
N913 Li896 1.990 . S
N913 C912 1.314 . S
N913 C915 1.279 . S
C914 C915 1.358 . S
C914 C916 1.356 . S
C914 H968 0.930 . S
C915 N913 1.279 . S
C915 C914 1.358 . S
C915 H919 0.930 . S
C916 C914 1.356 . S
C916 C917 1.348 . S
C917 C912 1.353 . S
C917 C916 1.348 . S
C917 H969 0.929 . S
H918 C912 0.930 . S
H919 C915 0.930 . S
C920 N921 1.314 . S
C920 C922 1.353 . S
C920 H926 0.930 . S
N921 Li897 1.990 1_655 S
N921 C920 1.314 . S
N921 C924 1.277 1_655 S
C922 C920 1.353 . S
C922 C925 1.348 . S
C922 H970 0.929 . S
C923 C924 1.353 1_655 S
C923 C925 1.356 . S
C923 H971 0.929 1_655 S
C924 N921 1.277 1_455 S
C924 C923 1.353 1_455 S
C924 H927 0.940 . S
C925 C922 1.348 . S
C925 C923 1.356 . S
H926 C920 0.930 . S
H927 C924 0.940 . S
C928 C930 1.348 1_455 S
C928 C931 1.356 . S
C928 O958 1.325 . S
N929 C932 1.314 1_455 S
N929 C933 1.279 . S
C930 C928 1.348 1_655 S
C930 C932 1.353 . S
C930 H972 0.929 . S
C931 C928 1.356 . S
C931 C933 1.358 . S
C931 H973 0.930 . S
C932 N929 1.314 1_655 S
C932 C930 1.353 . S
C932 H974 0.930 . S
C933 N929 1.279 . S
C933 C931 1.358 . S
C933 H975 0.930 . S
C934 C935 1.348 . S
C934 C936 1.356 . S
C934 O959 1.325 . S
C935 C934 1.348 . S
C935 C937 1.353 . S
C935 H976 0.929 . S
C936 C934 1.356 . S
C936 C938 1.358 . S
C936 H977 0.930 . S
C937 C935 1.353 . S
C937 N939 1.314 . S
C937 H978 0.930 . S
C938 C936 1.358 . S
C938 N939 1.279 . S
C938 H979 0.930 . S
N939 C937 1.314 . S
N939 C938 1.279 . S
C940 C942 1.353 . S
C940 N943 1.314 . S
C940 H946 0.930 . S
C941 N943 1.279 . S
C941 C944 1.358 . S
C941 H947 0.930 . S
C942 C940 1.353 . S
C942 C945 1.348 . S
C942 H980 0.929 . S
N943 Li898 1.990 . S
N943 C940 1.314 . S
N943 C941 1.279 . S
C944 C941 1.358 . S
C944 C945 1.356 . S
C944 H981 0.930 . S
C945 C942 1.348 . S
C945 C944 1.356 . S
H946 C940 0.930 . S
H947 C941 0.930 . S
C948 N949 1.314 . S
C948 C950 1.353 . S
C948 H954 0.930 . S
N949 Li899 1.990 . S
N949 C948 1.314 . S
N949 C952 1.279 . S
C950 C948 1.353 . S
C950 C953 1.348 . S
C950 H982 0.929 . S
C951 C952 1.358 . S
C951 C953 1.356 . S
C951 H983 0.930 . S
C952 N949 1.279 . S
C952 C951 1.358 . S
C952 H955 0.930 . S
C953 C950 1.348 . S
C953 C951 1.356 . S
H954 C948 0.930 . S
H955 C952 0.930 . S
O956 Li896 1.956 . S
O956 Li897 1.970 . S
O956 Li898 1.961 . S
O956 C900 1.325 . S
O957 Li896 1.970 . S
O957 Li897 1.956 . S
O957 Li899 1.961 1_455 S
O957 C906 1.321 1_455 S
O958 Li896 1.961 . S
O958 Li898 1.956 . S
O958 Li899 1.970 1_455 S
O958 C928 1.325 . S
O959 Li897 1.961 1_655 S
O959 Li898 1.970 1_655 S
O959 Li899 1.956 . S
O959 C934 1.325 . S
H960 C902 0.929 . S
H961 C903 0.930 . S
H962 C904 0.930 . S
H963 C905 0.930 . S
H964 C907 0.930 . S
H965 C909 0.929 . S
H966 C910 0.930 . S
H967 C911 0.930 . S
H968 C914 0.930 . S
H969 C917 0.929 . S
H970 C922 0.929 . S
H971 C923 0.929 1_455 S
H972 C930 0.929 . S
H973 C931 0.930 . S
H974 C932 0.930 . S
H975 C933 0.930 . S
H976 C935 0.929 . S
H977 C936 0.930 . S
H978 C937 0.930 . S
H979 C938 0.930 . S
H980 C942 0.929 . S
H981 C944 0.930 . S
H982 C950 0.929 . S
H983 C951 0.930 . S
Li984 N1001 1.990 . S
Li984 O1044 1.956 . S
Li984 O1045 1.970 . S
Li984 O1046 1.961 . S
Li985 N1009 1.990 . S
Li985 O1044 1.970 . S
Li985 O1045 1.956 . S
Li985 O1047 1.961 . S
Li986 N1031 1.990 . S
Li986 O1044 1.961 . S
Li986 O1046 1.956 . S
Li986 O1047 1.970 . S
Li987 N1037 1.990 . S
Li987 O1045 1.961 . S
Li987 O1046 1.970 . S
Li987 O1047 1.956 . S
C988 C990 1.348 . S
C988 C991 1.356 . S
C988 O1044 1.325 . S
N989 C992 1.314 . S
N989 C993 1.279 . S
C990 C988 1.348 . S
C990 C992 1.353 . S
C990 H1048 0.929 . S
C991 C988 1.356 . S
C991 C993 1.358 . S
C991 H1049 0.930 . S
C992 N989 1.314 . S
C992 C990 1.353 . S
C992 H1050 0.930 . S
C993 N989 1.279 . S
C993 C991 1.358 . S
C993 H1051 0.930 . S
C994 C997 1.348 . S
C994 C998 1.356 . S
C994 O1045 1.325 . S
C995 N996 1.279 . S
C995 C998 1.358 . S
C995 H1052 0.930 . S
N996 C995 1.279 . S
N996 C999 1.314 . S
C997 C994 1.348 . S
C997 C999 1.353 . S
C997 H1053 0.929 . S
C998 C994 1.356 . S
C998 C995 1.358 . S
C998 H1054 0.930 . S
C999 N996 1.314 . S
C999 C997 1.353 . S
C999 H1055 0.930 . S
C1000 N1001 1.314 . S
C1000 C1005 1.353 . S
C1000 H1006 0.930 . S
N1001 Li984 1.990 . S
N1001 C1000 1.314 . S
N1001 C1003 1.279 . S
C1002 C1003 1.358 . S
C1002 C1004 1.356 . S
C1002 H1056 0.930 . S
C1003 N1001 1.279 . S
C1003 C1002 1.358 . S
C1003 H1007 0.930 . S
C1004 C1002 1.356 . S
C1004 C1005 1.348 . S
C1005 C1000 1.353 . S
C1005 C1004 1.348 . S
C1005 H1057 0.929 . S
H1006 C1000 0.930 . S
H1007 C1003 0.930 . S
C1008 N1009 1.314 . S
C1008 C1010 1.353 . S
C1008 H1014 0.930 . S
N1009 Li985 1.990 . S
N1009 C1008 1.314 . S
N1009 C1012 1.279 . S
C1010 C1008 1.353 . S
C1010 C1013 1.348 . S
C1010 H1058 0.929 . S
C1011 C1012 1.358 . S
C1011 C1013 1.356 . S
C1011 H1059 0.930 . S
C1012 N1009 1.279 . S
C1012 C1011 1.358 . S
C1012 H1015 0.930 . S
C1013 C1010 1.348 . S
C1013 C1011 1.356 . S
H1014 C1008 0.930 . S
H1015 C1012 0.930 . S
C1016 C1018 1.348 . S
C1016 C1019 1.356 . S
C1016 O1046 1.325 . S
N1017 C1020 1.314 . S
N1017 C1021 1.279 . S
C1018 C1016 1.348 . S
C1018 C1020 1.353 . S
C1018 H1060 0.929 . S
C1019 C1016 1.356 . S
C1019 C1021 1.358 . S
C1019 H1061 0.930 . S
C1020 N1017 1.314 . S
C1020 C1018 1.353 . S
C1020 H1062 0.930 . S
C1021 N1017 1.279 . S
C1021 C1019 1.358 . S
C1021 H1063 0.930 . S
C1022 C1023 1.348 . S
C1022 C1024 1.356 . S
C1022 O1047 1.325 . S
C1023 C1022 1.348 . S
C1023 C1025 1.353 . S
C1023 H1064 0.929 . S
C1024 C1022 1.356 . S
C1024 C1026 1.358 . S
C1024 H1065 0.930 . S
C1025 C1023 1.353 . S
C1025 N1027 1.314 . S
C1025 H1066 0.930 . S
C1026 C1024 1.358 . S
C1026 N1027 1.279 . S
C1026 H1067 0.930 . S
N1027 C1025 1.314 . S
N1027 C1026 1.279 . S
C1028 C1030 1.353 . S
C1028 N1031 1.314 . S
C1028 H1034 0.930 . S
C1029 N1031 1.279 . S
C1029 C1032 1.358 . S
C1029 H1035 0.930 . S
C1030 C1028 1.353 . S
C1030 C1033 1.348 . S
C1030 H1068 0.929 . S
N1031 Li986 1.990 . S
N1031 C1028 1.314 . S
N1031 C1029 1.279 . S
C1032 C1029 1.358 . S
C1032 C1033 1.356 . S
C1032 H1069 0.930 . S
C1033 C1030 1.348 . S
C1033 C1032 1.356 . S
H1034 C1028 0.930 . S
H1035 C1029 0.930 . S
C1036 N1037 1.314 . S
C1036 C1038 1.353 . S
C1036 H1042 0.930 . S
N1037 Li987 1.990 . S
N1037 C1036 1.314 . S
N1037 C1040 1.279 . S
C1038 C1036 1.353 . S
C1038 C1041 1.348 . S
C1038 H1070 0.929 . S
C1039 C1040 1.358 . S
C1039 C1041 1.356 . S
C1039 H1071 0.930 . S
C1040 N1037 1.279 . S
C1040 C1039 1.358 . S
C1040 H1043 0.930 . S
C1041 C1038 1.348 . S
C1041 C1039 1.356 . S
H1042 C1036 0.930 . S
H1043 C1040 0.930 . S
O1044 Li984 1.956 . S
O1044 Li985 1.970 . S
O1044 Li986 1.961 . S
O1044 C988 1.325 . S
O1045 Li984 1.970 . S
O1045 Li985 1.956 . S
O1045 Li987 1.961 . S
O1045 C994 1.325 . S
O1046 Li984 1.961 . S
O1046 Li986 1.956 . S
O1046 Li987 1.970 . S
O1046 C1016 1.325 . S
O1047 Li985 1.961 . S
O1047 Li986 1.970 . S
O1047 Li987 1.956 . S
O1047 C1022 1.325 . S
H1048 C990 0.929 . S
H1049 C991 0.930 . S
H1050 C992 0.930 . S
H1051 C993 0.930 . S
H1052 C995 0.930 . S
H1053 C997 0.929 . S
H1054 C998 0.930 . S
H1055 C999 0.930 . S
H1056 C1002 0.930 . S
H1057 C1005 0.929 . S
H1058 C1010 0.929 . S
H1059 C1011 0.930 . S
H1060 C1018 0.929 . S
H1061 C1019 0.930 . S
H1062 C1020 0.930 . S
H1063 C1021 0.930 . S
H1064 C1023 0.929 . S
H1065 C1024 0.930 . S
H1066 C1025 0.930 . S
H1067 C1026 0.930 . S
H1068 C1030 0.929 . S
H1069 C1032 0.930 . S
H1070 C1038 0.929 . S
H1071 C1039 0.930 . S
Li1072 N1089 1.990 . S
Li1072 O1132 1.956 . S
Li1072 O1133 1.970 1_455 S
Li1072 O1134 1.961 . S
Li1073 N1097 1.990 . S
Li1073 O1132 1.970 1_655 S
Li1073 O1133 1.956 . S
Li1073 O1135 1.961 1_655 S
Li1074 N1119 1.990 . S
Li1074 O1132 1.961 . S
Li1074 O1134 1.956 . S
Li1074 O1135 1.970 . S
Li1075 N1125 1.986 1_455 S
Li1075 O1133 1.961 1_455 S
Li1075 O1134 1.970 . S
Li1075 O1135 1.956 . S
C1076 C1078 1.348 . S
C1076 C1079 1.356 . S
C1076 O1132 1.325 . S
N1077 C1080 1.314 . S
N1077 C1081 1.279 . S
C1078 C1076 1.348 . S
C1078 C1080 1.353 . S
C1078 H1136 0.929 1_455 S
C1079 C1076 1.356 . S
C1079 C1081 1.358 . S
C1079 H1137 0.930 . S
C1080 N1077 1.314 . S
C1080 C1078 1.353 . S
C1080 H1138 0.930 1_455 S
C1081 N1077 1.279 . S
C1081 C1079 1.358 . S
C1081 H1139 0.930 . S
C1082 C1085 1.348 . S
C1082 C1086 1.356 . S
C1082 O1133 1.325 . S
C1083 N1084 1.279 . S
C1083 C1086 1.358 . S
C1083 H1140 0.930 . S
N1084 C1083 1.279 . S
N1084 C1087 1.314 . S
C1085 C1082 1.348 . S
C1085 C1087 1.353 . S
C1085 H1141 0.929 . S
C1086 C1082 1.356 . S
C1086 C1083 1.358 . S
C1086 H1142 0.930 . S
C1087 N1084 1.314 . S
C1087 C1085 1.353 . S
C1087 H1143 0.930 . S
C1088 N1089 1.314 . S
C1088 C1093 1.353 . S
C1088 H1094 0.930 . S
N1089 Li1072 1.990 . S
N1089 C1088 1.314 . S
N1089 C1091 1.279 . S
C1090 C1091 1.358 . S
C1090 C1092 1.356 . S
C1090 H1144 0.930 . S
C1091 N1089 1.279 . S
C1091 C1090 1.358 . S
C1091 H1095 0.930 . S
C1092 C1090 1.356 . S
C1092 C1093 1.348 . S
C1093 C1088 1.353 . S
C1093 C1092 1.348 . S
C1093 H1145 0.929 . S
H1094 C1088 0.930 . S
H1095 C1091 0.930 . S
C1096 N1097 1.314 . S
C1096 C1098 1.353 . S
C1096 H1102 0.930 . S
N1097 Li1073 1.990 . S
N1097 C1096 1.314 . S
N1097 C1100 1.279 . S
C1098 C1096 1.353 . S
C1098 C1101 1.348 . S
C1098 H1146 0.929 . S
C1099 C1100 1.358 . S
C1099 C1101 1.356 . S
C1099 H1147 0.930 . S
C1100 N1097 1.279 . S
C1100 C1099 1.358 . S
C1100 H1103 0.930 . S
C1101 C1098 1.348 . S
C1101 C1099 1.356 . S
H1102 C1096 0.930 . S
H1103 C1100 0.930 . S
C1104 C1106 1.348 . S
C1104 C1107 1.356 . S
C1104 O1134 1.325 . S
N1105 C1108 1.314 . S
N1105 C1109 1.279 . S
C1106 C1104 1.348 . S
C1106 C1108 1.353 . S
C1106 H1148 0.929 . S
C1107 C1104 1.356 . S
C1107 C1109 1.358 . S
C1107 H1149 0.930 . S
C1108 N1105 1.314 . S
C1108 C1106 1.353 . S
C1108 H1150 0.930 . S
C1109 N1105 1.279 . S
C1109 C1107 1.358 . S
C1109 H1151 0.930 . S
C1110 C1111 1.348 . S
C1110 C1112 1.356 1_455 S
C1110 O1135 1.325 . S
C1111 C1110 1.348 . S
C1111 C1113 1.353 . S
C1111 H1152 0.929 . S
C1112 C1110 1.356 1_655 S
C1112 C1114 1.358 . S
C1112 H1153 0.930 . S
C1113 C1111 1.353 . S
C1113 N1115 1.314 1_455 S
C1113 H1154 0.930 . S
C1114 C1112 1.358 . S
C1114 N1115 1.279 . S
C1114 H1155 0.930 . S
N1115 C1113 1.314 1_655 S
N1115 C1114 1.279 . S
C1116 C1118 1.353 . S
C1116 N1119 1.314 . S
C1116 H1122 0.930 . S
C1117 N1119 1.279 . S
C1117 C1120 1.358 . S
C1117 H1123 0.930 . S
C1118 C1116 1.353 . S
C1118 C1121 1.348 . S
C1118 H1156 0.929 . S
N1119 Li1074 1.990 . S
N1119 C1116 1.314 . S
N1119 C1117 1.279 . S
C1120 C1117 1.358 . S
C1120 C1121 1.356 . S
C1120 H1157 0.930 . S
C1121 C1118 1.348 . S
C1121 C1120 1.356 . S
H1122 C1116 0.930 . S
H1123 C1117 0.930 . S
C1124 N1125 1.322 . S
C1124 C1126 1.353 . S
C1124 H1130 0.930 . S
N1125 Li1075 1.986 1_655 S
N1125 C1124 1.322 . S
N1125 C1128 1.273 1_655 S
C1126 C1124 1.353 . S
C1126 C1129 1.348 . S
C1126 H1158 0.929 . S
C1127 C1128 1.358 1_655 S
C1127 C1129 1.356 . S
C1127 H1159 0.930 . S
C1128 N1125 1.273 1_455 S
C1128 C1127 1.358 1_455 S
C1128 H1131 0.939 . S
C1129 C1126 1.348 . S
C1129 C1127 1.356 . S
H1130 C1124 0.930 . S
H1131 C1128 0.939 . S
O1132 Li1072 1.956 . S
O1132 Li1073 1.970 1_455 S
O1132 Li1074 1.961 . S
O1132 C1076 1.325 . S
O1133 Li1072 1.970 1_655 S
O1133 Li1073 1.956 . S
O1133 Li1075 1.961 1_655 S
O1133 C1082 1.325 . S
O1134 Li1072 1.961 . S
O1134 Li1074 1.956 . S
O1134 Li1075 1.970 . S
O1134 C1104 1.325 . S
O1135 Li1073 1.961 1_455 S
O1135 Li1074 1.970 . S
O1135 Li1075 1.956 . S
O1135 C1110 1.325 . S
H1136 C1078 0.929 1_655 S
H1137 C1079 0.930 . S
H1138 C1080 0.930 1_655 S
H1139 C1081 0.930 . S
H1140 C1083 0.930 . S
H1141 C1085 0.929 . S
H1142 C1086 0.930 . S
H1143 C1087 0.930 . S
H1144 C1090 0.930 . S
H1145 C1093 0.929 . S
H1146 C1098 0.929 . S
H1147 C1099 0.930 . S
H1148 C1106 0.929 . S
H1149 C1107 0.930 . S
H1150 C1108 0.930 . S
H1151 C1109 0.930 . S
H1152 C1111 0.929 . S
H1153 C1112 0.930 . S
H1154 C1113 0.930 . S
H1155 C1114 0.930 . S
H1156 C1118 0.929 . S
H1157 C1120 0.930 . S
H1158 C1126 0.929 . S
H1159 C1127 0.930 . S
Li1160 N1177 1.990 . S
Li1160 O1220 1.956 . S
Li1160 O1221 1.970 . S
Li1160 O1222 1.961 . S
Li1161 N1185 1.990 . S
Li1161 O1220 1.970 . S
Li1161 O1221 1.956 . S
Li1161 O1223 1.961 . S
Li1162 N1207 1.990 . S
Li1162 O1220 1.961 . S
Li1162 O1222 1.956 . S
Li1162 O1223 1.970 . S
Li1163 N1213 1.990 . S
Li1163 O1221 1.961 . S
Li1163 O1222 1.970 . S
Li1163 O1223 1.956 . S
C1164 C1166 1.348 . S
C1164 C1167 1.356 . S
C1164 O1220 1.325 . S
N1165 C1168 1.314 . S
N1165 C1169 1.279 . S
C1166 C1164 1.348 . S
C1166 C1168 1.353 . S
C1166 H1224 0.929 . S
C1167 C1164 1.356 . S
C1167 C1169 1.358 . S
C1167 H1225 0.930 . S
C1168 N1165 1.314 . S
C1168 C1166 1.353 . S
C1168 H1226 0.930 . S
C1169 N1165 1.279 . S
C1169 C1167 1.358 . S
C1169 H1227 0.930 . S
C1170 C1173 1.348 . S
C1170 C1174 1.356 . S
C1170 O1221 1.325 . S
C1171 N1172 1.279 . S
C1171 C1174 1.358 . S
C1171 H1228 0.930 . S
N1172 C1171 1.279 . S
N1172 C1175 1.314 . S
C1173 C1170 1.348 . S
C1173 C1175 1.353 . S
C1173 H1229 0.929 . S
C1174 C1170 1.356 . S
C1174 C1171 1.358 . S
C1174 H1230 0.930 . S
C1175 N1172 1.314 . S
C1175 C1173 1.353 . S
C1175 H1231 0.930 . S
C1176 N1177 1.314 . S
C1176 C1181 1.353 . S
C1176 H1182 0.930 . S
N1177 Li1160 1.990 . S
N1177 C1176 1.314 . S
N1177 C1179 1.279 . S
C1178 C1179 1.358 . S
C1178 C1180 1.356 . S
C1178 H1232 0.930 . S
C1179 N1177 1.279 . S
C1179 C1178 1.358 . S
C1179 H1183 0.930 . S
C1180 C1178 1.356 . S
C1180 C1181 1.348 . S
C1181 C1176 1.353 . S
C1181 C1180 1.348 . S
C1181 H1233 0.929 . S
H1182 C1176 0.930 . S
H1183 C1179 0.930 . S
C1184 N1185 1.314 . S
C1184 C1186 1.353 . S
C1184 H1190 0.930 . S
N1185 Li1161 1.990 . S
N1185 C1184 1.314 . S
N1185 C1188 1.279 . S
C1186 C1184 1.353 . S
C1186 C1189 1.348 . S
C1186 H1234 0.929 . S
C1187 C1188 1.358 . S
C1187 C1189 1.356 . S
C1187 H1235 0.930 . S
C1188 N1185 1.279 . S
C1188 C1187 1.358 . S
C1188 H1191 0.930 . S
C1189 C1186 1.348 . S
C1189 C1187 1.356 . S
H1190 C1184 0.930 . S
H1191 C1188 0.930 . S
C1192 C1194 1.348 . S
C1192 C1195 1.356 . S
C1192 O1222 1.325 . S
N1193 C1196 1.314 . S
N1193 C1197 1.279 . S
C1194 C1192 1.348 . S
C1194 C1196 1.353 . S
C1194 H1236 0.929 . S
C1195 C1192 1.356 . S
C1195 C1197 1.358 . S
C1195 H1237 0.930 . S
C1196 N1193 1.314 . S
C1196 C1194 1.353 . S
C1196 H1238 0.930 . S
C1197 N1193 1.279 . S
C1197 C1195 1.358 . S
C1197 H1239 0.930 . S
C1198 C1199 1.348 . S
C1198 C1200 1.356 . S
C1198 O1223 1.325 . S
C1199 C1198 1.348 . S
C1199 C1201 1.353 . S
C1199 H1240 0.929 . S
C1200 C1198 1.356 . S
C1200 C1202 1.358 . S
C1200 H1241 0.930 . S
C1201 C1199 1.353 . S
C1201 N1203 1.314 . S
C1201 H1242 0.930 . S
C1202 C1200 1.358 . S
C1202 N1203 1.279 . S
C1202 H1243 0.930 . S
N1203 C1201 1.314 . S
N1203 C1202 1.279 . S
C1204 C1206 1.353 . S
C1204 N1207 1.314 . S
C1204 H1210 0.930 . S
C1205 N1207 1.279 . S
C1205 C1208 1.358 . S
C1205 H1211 0.930 . S
C1206 C1204 1.353 . S
C1206 C1209 1.348 . S
C1206 H1244 0.929 . S
N1207 Li1162 1.990 . S
N1207 C1204 1.314 . S
N1207 C1205 1.279 . S
C1208 C1205 1.358 . S
C1208 C1209 1.356 . S
C1208 H1245 0.930 . S
C1209 C1206 1.348 . S
C1209 C1208 1.356 . S
H1210 C1204 0.930 . S
H1211 C1205 0.930 . S
C1212 N1213 1.314 . S
C1212 C1214 1.353 . S
C1212 H1218 0.930 . S
N1213 Li1163 1.990 . S
N1213 C1212 1.314 . S
N1213 C1216 1.279 . S
C1214 C1212 1.353 . S
C1214 C1217 1.348 . S
C1214 H1246 0.929 . S
C1215 C1216 1.358 . S
C1215 C1217 1.356 . S
C1215 H1247 0.930 . S
C1216 N1213 1.279 . S
C1216 C1215 1.358 . S
C1216 H1219 0.930 . S
C1217 C1214 1.348 . S
C1217 C1215 1.356 . S
H1218 C1212 0.930 . S
H1219 C1216 0.930 . S
O1220 Li1160 1.956 . S
O1220 Li1161 1.970 . S
O1220 Li1162 1.961 . S
O1220 C1164 1.325 . S
O1221 Li1160 1.970 . S
O1221 Li1161 1.956 . S
O1221 Li1163 1.961 . S
O1221 C1170 1.325 . S
O1222 Li1160 1.961 . S
O1222 Li1162 1.956 . S
O1222 Li1163 1.970 . S
O1222 C1192 1.325 . S
O1223 Li1161 1.961 . S
O1223 Li1162 1.970 . S
O1223 Li1163 1.956 . S
O1223 C1198 1.325 . S
H1224 C1166 0.929 . S
H1225 C1167 0.930 . S
H1226 C1168 0.930 . S
H1227 C1169 0.930 . S
H1228 C1171 0.930 . S
H1229 C1173 0.929 . S
H1230 C1174 0.930 . S
H1231 C1175 0.930 . S
H1232 C1178 0.930 . S
H1233 C1181 0.929 . S
H1234 C1186 0.929 . S
H1235 C1187 0.930 . S
H1236 C1194 0.929 . S
H1237 C1195 0.930 . S
H1238 C1196 0.930 . S
H1239 C1197 0.930 . S
H1240 C1199 0.929 . S
H1241 C1200 0.930 . S
H1242 C1201 0.930 . S
H1243 C1202 0.930 . S
H1244 C1206 0.929 . S
H1245 C1208 0.930 . S
H1246 C1214 0.929 . S
H1247 C1215 0.930 . S
C1248 C1249 1.369 . S
C1248 C1250 1.419 . S
C1248 H1252 0.930 . S
C1249 C1248 1.369 . S
C1249 C1258 1.429 . S
C1250 C1248 1.419 . S
C1250 C1251 1.363 . S
C1250 H1253 0.929 . S
C1251 C1250 1.363 . S
C1251 C1257 1.428 . S
H1252 C1248 0.930 . S
H1253 C1250 0.929 . S
S1254 N1255 1.613 . S
S1254 N1256 1.610 . S
N1255 S1254 1.613 . S
N1255 C1258 1.350 . S
N1256 S1254 1.610 . S
N1256 C1257 1.351 . S
C1257 C1251 1.428 . S
C1257 N1256 1.351 . S
C1257 C1258 1.434 . S
C1258 C1249 1.429 . S
C1258 N1255 1.350 . S
C1258 C1257 1.434 . S
C1259 C1260 1.369 . S
C1259 C1261 1.419 . S
C1259 H1263 0.930 . S
C1260 C1259 1.369 . S
C1260 C1269 1.429 . S
C1261 C1259 1.419 . S
C1261 C1262 1.363 . S
C1261 H1264 0.929 . S
C1262 C1261 1.363 . S
C1262 C1268 1.428 . S
H1263 C1259 0.930 . S
H1264 C1261 0.929 . S
S1265 N1266 1.613 . S
S1265 N1267 1.610 1_655 S
N1266 S1265 1.613 . S
N1266 C1269 1.350 1_655 S
N1267 S1265 1.610 1_455 S
N1267 C1268 1.351 . S
C1268 C1262 1.428 . S
C1268 N1267 1.351 . S
C1268 C1269 1.434 . S
C1269 C1260 1.429 . S
C1269 N1266 1.350 1_455 S
C1269 C1268 1.434 . S
C1270 C1271 1.369 . S
C1270 C1272 1.419 . S
C1270 H1274 0.930 . S
C1271 C1270 1.369 . S
C1271 C1280 1.429 . S
C1272 C1270 1.419 . S
C1272 C1273 1.363 . S
C1272 H1275 0.929 . S
C1273 C1272 1.363 . S
C1273 C1279 1.428 . S
H1274 C1270 0.930 . S
H1275 C1272 0.929 . S
S1276 N1277 1.613 . S
S1276 N1278 1.610 . S
N1277 S1276 1.613 . S
N1277 C1280 1.350 . S
N1278 S1276 1.610 . S
N1278 C1279 1.351 . S
C1279 C1273 1.428 . S
C1279 N1278 1.351 . S
C1279 C1280 1.434 . S
C1280 C1271 1.429 . S
C1280 N1277 1.350 . S
C1280 C1279 1.434 . S
C1281 C1282 1.369 . S
C1281 C1283 1.419 . S
C1281 H1285 0.930 . S
C1282 C1281 1.369 . S
C1282 C1291 1.429 1_565 S
C1283 C1281 1.419 . S
C1283 C1284 1.363 1_565 S
C1283 H1286 0.929 . S
C1284 C1283 1.363 1_545 S
C1284 C1290 1.428 . S
H1285 C1281 0.930 . S
H1286 C1283 0.929 . S
S1287 N1288 1.613 . S
S1287 N1289 1.610 . S
N1288 S1287 1.613 . S
N1288 C1291 1.350 . S
N1289 S1287 1.610 . S
N1289 C1290 1.351 . S
C1290 C1284 1.428 . S
C1290 N1289 1.351 . S
C1290 C1291 1.434 . S
C1291 C1282 1.429 1_545 S
C1291 N1288 1.350 . S
C1291 C1290 1.434 . S
C1292 C1293 1.369 . S
C1292 C1294 1.419 . S
C1292 H1296 0.930 . S
C1293 C1292 1.369 . S
C1293 C1302 1.429 . S
C1294 C1292 1.419 . S
C1294 C1295 1.363 . S
C1294 H1297 0.929 . S
C1295 C1294 1.363 . S
C1295 C1301 1.428 . S
H1296 C1292 0.930 . S
H1297 C1294 0.929 . S
S1298 N1299 1.613 . S
S1298 N1300 1.610 . S
N1299 S1298 1.613 . S
N1299 C1302 1.350 . S
N1300 S1298 1.610 . S
N1300 C1301 1.351 . S
C1301 C1295 1.428 . S
C1301 N1300 1.351 . S
C1301 C1302 1.434 . S
C1302 C1293 1.429 . S
C1302 N1299 1.350 . S
C1302 C1301 1.434 . S
C1303 C1304 1.369 . S
C1303 C1305 1.419 . S
C1303 H1307 0.930 . S
C1304 C1303 1.369 . S
C1304 C1313 1.429 . S
C1305 C1303 1.419 . S
C1305 C1306 1.363 . S
C1305 H1308 0.929 . S
C1306 C1305 1.363 . S
C1306 C1312 1.428 . S
H1307 C1303 0.930 . S
H1308 C1305 0.929 . S
S1309 N1310 1.613 . S
S1309 N1311 1.610 . S
N1310 S1309 1.613 . S
N1310 C1313 1.350 . S
N1311 S1309 1.610 . S
N1311 C1312 1.351 . S
C1312 C1306 1.428 . S
C1312 N1311 1.351 . S
C1312 C1313 1.434 . S
C1313 C1304 1.429 . S
C1313 N1310 1.350 . S
C1313 C1312 1.434 . S
C1314 C1315 1.369 . S
C1314 C1316 1.419 . S
C1314 H1318 0.930 . S
C1315 C1314 1.369 . S
C1315 C1324 1.429 . S
C1316 C1314 1.419 . S
C1316 C1317 1.363 . S
C1316 H1319 0.929 . S
C1317 C1316 1.363 . S
C1317 C1323 1.428 . S
H1318 C1314 0.930 . S
H1319 C1316 0.929 . S
S1320 N1321 1.613 . S
S1320 N1322 1.610 . S
N1321 S1320 1.613 . S
N1321 C1324 1.350 . S
N1322 S1320 1.610 . S
N1322 C1323 1.351 . S
C1323 C1317 1.428 . S
C1323 N1322 1.351 . S
C1323 C1324 1.434 . S
C1324 C1315 1.429 . S
C1324 N1321 1.350 . S
C1324 C1323 1.434 . S
C1325 C1326 1.369 . S
C1325 C1327 1.419 . S
C1325 H1329 0.930 . S
C1326 C1325 1.369 . S
C1326 C1335 1.429 1_565 S
C1327 C1325 1.419 . S
C1327 C1328 1.363 . S
C1327 H1330 0.929 . S
C1328 C1327 1.363 . S
C1328 C1334 1.428 1_565 S
H1329 C1325 0.930 . S
H1330 C1327 0.929 . S
S1331 N1332 1.613 . S
S1331 N1333 1.610 . S
N1332 S1331 1.613 . S
N1332 C1335 1.350 . S
N1333 S1331 1.610 . S
N1333 C1334 1.351 . S
C1334 C1328 1.428 1_545 S
C1334 N1333 1.351 . S
C1334 C1335 1.434 . S
C1335 C1326 1.429 1_545 S
C1335 N1332 1.350 . S
C1335 C1334 1.434 . S
C1336 C1337 1.369 . S
C1336 C1338 1.419 . S
C1336 H1340 0.930 . S
C1337 C1336 1.369 . S
C1337 C1346 1.429 . S
C1338 C1336 1.419 . S
C1338 C1339 1.363 . S
C1338 H1341 0.929 . S
C1339 C1338 1.363 . S
C1339 C1345 1.428 . S
H1340 C1336 0.930 . S
H1341 C1338 0.929 . S
S1342 N1343 1.613 . S
S1342 N1344 1.610 . S
N1343 S1342 1.613 . S
N1343 C1346 1.350 . S
N1344 S1342 1.610 . S
N1344 C1345 1.351 . S
C1345 C1339 1.428 . S
C1345 N1344 1.351 . S
C1345 C1346 1.434 . S
C1346 C1337 1.429 . S
C1346 N1343 1.350 . S
C1346 C1345 1.434 . S
C1347 C1348 1.369 . S
C1347 C1349 1.419 . S
C1347 H1351 0.930 . S
C1348 C1347 1.369 . S
C1348 C1357 1.429 . S
C1349 C1347 1.419 . S
C1349 C1350 1.363 . S
C1349 H1352 0.929 . S
C1350 C1349 1.363 . S
C1350 C1356 1.428 . S
H1351 C1347 0.930 . S
H1352 C1349 0.929 . S
S1353 N1354 1.613 . S
S1353 N1355 1.610 . S
N1354 S1353 1.613 . S
N1354 C1357 1.350 . S
N1355 S1353 1.610 . S
N1355 C1356 1.351 . S
C1356 C1350 1.428 . S
C1356 N1355 1.351 . S
C1356 C1357 1.434 . S
C1357 C1348 1.429 . S
C1357 N1354 1.350 . S
C1357 C1356 1.434 . S
C1358 C1359 1.369 . S
C1358 C1360 1.419 . S
C1358 H1362 0.930 . S
C1359 C1358 1.369 . S
C1359 C1368 1.429 . S
C1360 C1358 1.419 . S
C1360 C1361 1.363 . S
C1360 H1363 0.929 . S
C1361 C1360 1.363 . S
C1361 C1367 1.428 . S
H1362 C1358 0.930 . S
H1363 C1360 0.929 . S
S1364 N1365 1.613 . S
S1364 N1366 1.610 . S
N1365 S1364 1.613 . S
N1365 C1368 1.350 . S
N1366 S1364 1.610 . S
N1366 C1367 1.351 . S
C1367 C1361 1.428 . S
C1367 N1366 1.351 . S
C1367 C1368 1.434 . S
C1368 C1359 1.429 . S
C1368 N1365 1.350 . S
C1368 C1367 1.434 . S
C1369 C1370 1.369 . S
C1369 C1371 1.419 . S
C1369 H1373 0.930 . S
C1370 C1369 1.369 . S
C1370 C1379 1.429 . S
C1371 C1369 1.419 . S
C1371 C1372 1.363 . S
C1371 H1374 0.929 . S
C1372 C1371 1.363 . S
C1372 C1378 1.428 . S
H1373 C1369 0.930 . S
H1374 C1371 0.929 . S
S1375 N1376 1.613 . S
S1375 N1377 1.610 . S
N1376 S1375 1.613 . S
N1376 C1379 1.350 . S
N1377 S1375 1.610 . S
N1377 C1378 1.351 . S
C1378 C1372 1.428 . S
C1378 N1377 1.351 . S
C1378 C1379 1.434 . S
C1379 C1370 1.429 . S
C1379 N1376 1.350 . S
C1379 C1378 1.434 . S
C1380 C1381 1.369 . S
C1380 C1382 1.419 . S
C1380 H1384 0.930 . S
C1381 C1380 1.369 . S
C1381 C1390 1.429 . S
C1382 C1380 1.419 . S
C1382 C1383 1.363 . S
C1382 H1385 0.929 . S
C1383 C1382 1.363 . S
C1383 C1389 1.428 . S
H1384 C1380 0.930 . S
H1385 C1382 0.929 . S
S1386 N1387 1.613 . S
S1386 N1388 1.610 . S
N1387 S1386 1.613 . S
N1387 C1390 1.350 . S
N1388 S1386 1.610 . S
N1388 C1389 1.351 . S
C1389 C1383 1.428 . S
C1389 N1388 1.351 . S
C1389 C1390 1.434 . S
C1390 C1381 1.429 . S
C1390 N1387 1.350 . S
C1390 C1389 1.434 . S
C1391 C1392 1.369 . S
C1391 C1393 1.419 . S
C1391 H1395 0.930 . S
C1392 C1391 1.369 . S
C1392 C1401 1.429 . S
C1393 C1391 1.419 . S
C1393 C1394 1.363 . S
C1393 H1396 0.929 . S
C1394 C1393 1.363 . S
C1394 C1400 1.428 . S
H1395 C1391 0.930 . S
H1396 C1393 0.929 . S
S1397 N1398 1.613 . S
S1397 N1399 1.610 . S
N1398 S1397 1.613 . S
N1398 C1401 1.350 . S
N1399 S1397 1.610 . S
N1399 C1400 1.351 . S
C1400 C1394 1.428 . S
C1400 N1399 1.351 . S
C1400 C1401 1.434 . S
C1401 C1392 1.429 . S
C1401 N1398 1.350 . S
C1401 C1400 1.434 . S
C1402 C1403 1.369 . S
C1402 C1404 1.419 . S
C1402 H1406 0.930 . S
C1403 C1402 1.369 . S
C1403 C1412 1.429 . S
C1404 C1402 1.419 . S
C1404 C1405 1.363 . S
C1404 H1407 0.929 . S
C1405 C1404 1.363 . S
C1405 C1411 1.428 . S
H1406 C1402 0.930 . S
H1407 C1404 0.929 . S
S1408 N1409 1.613 . S
S1408 N1410 1.610 . S
N1409 S1408 1.613 . S
N1409 C1412 1.350 . S
N1410 S1408 1.610 . S
N1410 C1411 1.351 . S
C1411 C1405 1.428 . S
C1411 N1410 1.351 . S
C1411 C1412 1.434 . S
C1412 C1403 1.429 . S
C1412 N1409 1.350 . S
C1412 C1411 1.434 . S
C1413 C1414 1.369 . S
C1413 C1415 1.419 . S
C1413 H1417 0.930 1_655 S
C1414 C1413 1.369 . S
C1414 C1423 1.429 . S
C1415 C1413 1.419 . S
C1415 C1416 1.363 . S
C1415 H1418 0.929 1_655 S
C1416 C1415 1.363 . S
C1416 C1422 1.428 . S
H1417 C1413 0.930 1_455 S
H1418 C1415 0.929 1_455 S
S1419 N1420 1.613 . S
S1419 N1421 1.610 . S
N1420 S1419 1.613 . S
N1420 C1423 1.350 . S
N1421 S1419 1.610 . S
N1421 C1422 1.351 . S
C1422 C1416 1.428 . S
C1422 N1421 1.351 . S
C1422 C1423 1.434 . S
C1423 C1414 1.429 . S
C1423 N1420 1.350 . S
C1423 C1422 1.434 . S
C1424 C1425 1.369 . S
C1424 C1426 1.419 . S
C1424 H1428 0.930 . S
C1425 C1424 1.369 . S
C1425 C1434 1.429 . S
C1426 C1424 1.419 . S
C1426 C1427 1.363 . S
C1426 H1429 0.929 . S
C1427 C1426 1.363 . S
C1427 C1433 1.428 . S
H1428 C1424 0.930 . S
H1429 C1426 0.929 . S
S1430 N1431 1.613 . S
S1430 N1432 1.610 . S
N1431 S1430 1.613 . S
N1431 C1434 1.350 . S
N1432 S1430 1.610 . S
N1432 C1433 1.351 . S
C1433 C1427 1.428 . S
C1433 N1432 1.351 . S
C1433 C1434 1.434 . S
C1434 C1425 1.429 . S
C1434 N1431 1.350 . S
C1434 C1433 1.434 . S
C1435 C1436 1.369 . S
C1435 C1437 1.419 . S
C1435 H1439 0.930 . S
C1436 C1435 1.369 . S
C1436 C1445 1.429 . S
C1437 C1435 1.419 . S
C1437 C1438 1.363 . S
C1437 H1440 0.929 . S
C1438 C1437 1.363 . S
C1438 C1444 1.428 . S
H1439 C1435 0.930 . S
H1440 C1437 0.929 . S
S1441 N1442 1.613 . S
S1441 N1443 1.610 . S
N1442 S1441 1.613 . S
N1442 C1445 1.350 . S
N1443 S1441 1.610 . S
N1443 C1444 1.351 . S
C1444 C1438 1.428 . S
C1444 N1443 1.351 . S
C1444 C1445 1.434 . S
C1445 C1436 1.429 . S
C1445 N1442 1.350 . S
C1445 C1444 1.434 . S
C1446 C1447 1.369 . S
C1446 C1448 1.419 . S
C1446 H1450 0.930 . S
C1447 C1446 1.369 . S
C1447 C1456 1.429 1_565 S
C1448 C1446 1.419 . S
C1448 C1449 1.372 . S
C1448 H1451 0.929 . S
C1449 C1448 1.372 . S
C1449 C1455 1.440 . S
H1450 C1446 0.930 . S
H1451 C1448 0.929 . S
S1452 N1453 1.613 . S
S1452 N1454 1.610 . S
N1453 S1452 1.613 . S
N1453 C1456 1.350 . S
N1454 S1452 1.610 . S
N1454 C1455 1.351 1_545 S
C1455 C1449 1.440 . S
C1455 N1454 1.351 1_565 S
C1455 C1456 1.434 1_565 S
C1456 C1447 1.429 1_545 S
C1456 N1453 1.350 . S
C1456 C1455 1.434 1_545 S
C1457 C1458 1.369 . S
C1457 C1459 1.419 . S
C1457 H1461 0.930 . S
C1458 C1457 1.369 . S
C1458 C1467 1.429 . S
C1459 C1457 1.419 . S
C1459 C1460 1.363 . S
C1459 H1462 0.929 . S
C1460 C1459 1.363 . S
C1460 C1466 1.428 . S
H1461 C1457 0.930 . S
H1462 C1459 0.929 . S
S1463 N1464 1.613 . S
S1463 N1465 1.610 . S
N1464 S1463 1.613 . S
N1464 C1467 1.350 . S
N1465 S1463 1.610 . S
N1465 C1466 1.351 . S
C1466 C1460 1.428 . S
C1466 N1465 1.351 . S
C1466 C1467 1.434 . S
C1467 C1458 1.429 . S
C1467 N1464 1.350 . S
C1467 C1466 1.434 . S
C1468 C1469 1.369 . S
C1468 C1470 1.419 . S
C1468 H1472 0.930 . S
C1469 C1468 1.369 . S
C1469 C1478 1.429 . S
C1470 C1468 1.419 . S
C1470 C1471 1.363 . S
C1470 H1473 0.929 . S
C1471 C1470 1.363 . S
C1471 C1477 1.428 . S
H1472 C1468 0.930 . S
H1473 C1470 0.929 . S
S1474 N1475 1.612 1_545 S
S1474 N1476 1.637 . S
N1475 S1474 1.612 1_565 S
N1475 C1478 1.350 1_565 S
N1476 S1474 1.637 . S
N1476 C1477 1.351 . S
C1477 C1471 1.428 . S
C1477 N1476 1.351 . S
C1477 C1478 1.434 . S
C1478 C1469 1.429 . S
C1478 N1475 1.350 1_545 S
C1478 C1477 1.434 . S
C1479 C1480 1.369 . S
C1479 C1481 1.419 . S
C1479 H1483 0.930 . S
C1480 C1479 1.369 . S
C1480 C1489 1.429 . S
C1481 C1479 1.419 . S
C1481 C1482 1.363 . S
C1481 H1484 0.929 . S
C1482 C1481 1.363 . S
C1482 C1488 1.428 . S
H1483 C1479 0.930 . S
H1484 C1481 0.929 . S
S1485 N1486 1.613 . S
S1485 N1487 1.610 . S
N1486 S1485 1.613 . S
N1486 C1489 1.350 . S
N1487 S1485 1.610 . S
N1487 C1488 1.351 . S
C1488 C1482 1.428 . S
C1488 N1487 1.351 . S
C1488 C1489 1.434 . S
C1489 C1480 1.429 . S
C1489 N1486 1.350 . S
C1489 C1488 1.434 . S
C1490 C1491 1.369 . S
C1490 C1492 1.419 . S
C1490 H1494 0.930 . S
C1491 C1490 1.369 . S
C1491 C1500 1.429 . S
C1492 C1490 1.419 . S
C1492 C1493 1.363 . S
C1492 H1495 0.929 . S
C1493 C1492 1.363 . S
C1493 C1499 1.428 . S
H1494 C1490 0.930 . S
H1495 C1492 0.929 . S
S1496 N1497 1.613 . S
S1496 N1498 1.610 . S
N1497 S1496 1.613 . S
N1497 C1500 1.350 . S
N1498 S1496 1.610 . S
N1498 C1499 1.351 . S
C1499 C1493 1.428 . S
C1499 N1498 1.351 . S
C1499 C1500 1.434 . S
C1500 C1491 1.429 . S
C1500 N1497 1.350 . S
C1500 C1499 1.434 . S
C1501 C1502 1.369 . S
C1501 C1503 1.419 . S
C1501 H1505 0.930 . S
C1502 C1501 1.369 . S
C1502 C1511 1.429 . S
C1503 C1501 1.419 . S
C1503 C1504 1.363 . S
C1503 H1506 0.929 . S
C1504 C1503 1.363 . S
C1504 C1510 1.428 . S
H1505 C1501 0.930 . S
H1506 C1503 0.929 . S
S1507 N1508 1.613 . S
S1507 N1509 1.610 . S
N1508 S1507 1.613 . S
N1508 C1511 1.350 . S
N1509 S1507 1.610 . S
N1509 C1510 1.351 . S
C1510 C1504 1.428 . S
C1510 N1509 1.351 . S
C1510 C1511 1.434 . S
C1511 C1502 1.429 . S
C1511 N1508 1.350 . S
C1511 C1510 1.434 . S
C1512 C1513 1.369 . S
C1512 C1514 1.419 . S
C1512 H1516 0.930 . S
C1513 C1512 1.369 . S
C1513 C1522 1.429 . S
C1514 C1512 1.419 . S
C1514 C1515 1.363 . S
C1514 H1517 0.929 . S
C1515 C1514 1.363 . S
C1515 C1521 1.428 . S
H1516 C1512 0.930 . S
H1517 C1514 0.929 . S
S1518 N1519 1.613 . S
S1518 N1520 1.610 . S
N1519 S1518 1.613 . S
N1519 C1522 1.350 . S
N1520 S1518 1.610 . S
N1520 C1521 1.351 . S
C1521 C1515 1.428 . S
C1521 N1520 1.351 . S
C1521 C1522 1.434 . S
C1522 C1513 1.429 . S
C1522 N1519 1.350 . S
C1522 C1521 1.434 . S
C1523 C1524 1.369 . S
C1523 C1525 1.419 . S
C1523 H1527 0.930 . S
C1524 C1523 1.369 . S
C1524 C1533 1.429 . S
C1525 C1523 1.419 . S
C1525 C1526 1.363 . S
C1525 H1528 0.929 . S
C1526 C1525 1.363 . S
C1526 C1532 1.428 . S
H1527 C1523 0.930 . S
H1528 C1525 0.929 . S
S1529 N1530 1.613 . S
S1529 N1531 1.610 . S
N1530 S1529 1.613 . S
N1530 C1533 1.350 . S
N1531 S1529 1.610 . S
N1531 C1532 1.351 . S
C1532 C1526 1.428 . S
C1532 N1531 1.351 . S
C1532 C1533 1.434 . S
C1533 C1524 1.429 . S
C1533 N1530 1.350 . S
C1533 C1532 1.434 . S
C1534 C1535 1.369 . S
C1534 C1536 1.419 . S
C1534 H1538 0.930 . S
C1535 C1534 1.369 . S
C1535 C1544 1.429 . S
C1536 C1534 1.419 . S
C1536 C1537 1.363 . S
C1536 H1539 0.929 . S
C1537 C1536 1.363 . S
C1537 C1543 1.428 . S
H1538 C1534 0.930 . S
H1539 C1536 0.929 . S
S1540 N1541 1.613 . S
S1540 N1542 1.610 . S
N1541 S1540 1.613 . S
N1541 C1544 1.350 . S
N1542 S1540 1.610 . S
N1542 C1543 1.351 . S
C1543 C1537 1.428 . S
C1543 N1542 1.351 . S
C1543 C1544 1.434 . S
C1544 C1535 1.429 . S
C1544 N1541 1.350 . S
C1544 C1543 1.434 . S
C1545 C1546 1.369 . S
C1545 C1547 1.419 . S
C1545 H1549 0.930 . S
C1546 C1545 1.369 . S
C1546 C1555 1.429 . S
C1547 C1545 1.419 . S
C1547 C1548 1.363 . S
C1547 H1550 0.929 . S
C1548 C1547 1.363 . S
C1548 C1554 1.428 . S
H1549 C1545 0.930 . S
H1550 C1547 0.929 . S
S1551 N1552 1.613 . S
S1551 N1553 1.610 . S
N1552 S1551 1.613 . S
N1552 C1555 1.350 . S
N1553 S1551 1.610 . S
N1553 C1554 1.351 . S
C1554 C1548 1.428 . S
C1554 N1553 1.351 . S
C1554 C1555 1.434 . S
C1555 C1546 1.429 . S
C1555 N1552 1.350 . S
C1555 C1554 1.434 . S
C1556 C1557 1.369 . S
C1556 C1558 1.419 . S
C1556 H1560 0.930 . S
C1557 C1556 1.369 . S
C1557 C1566 1.429 . S
C1558 C1556 1.419 . S
C1558 C1559 1.363 . S
C1558 H1561 0.929 . S
C1559 C1558 1.363 . S
C1559 C1565 1.428 . S
H1560 C1556 0.930 . S
H1561 C1558 0.929 . S
S1562 N1563 1.613 . S
S1562 N1564 1.610 . S
N1563 S1562 1.613 . S
N1563 C1566 1.350 . S
N1564 S1562 1.610 . S
N1564 C1565 1.351 . S
C1565 C1559 1.428 . S
C1565 N1564 1.351 . S
C1565 C1566 1.434 . S
C1566 C1557 1.429 . S
C1566 N1563 1.350 . S
C1566 C1565 1.434 . S
C1567 C1568 1.369 . S
C1567 C1569 1.419 . S
C1567 H1571 0.930 1_545 S
C1568 C1567 1.369 . S
C1568 C1577 1.429 . S
C1569 C1567 1.419 . S
C1569 C1570 1.363 . S
C1569 H1572 0.929 1_545 S
C1570 C1569 1.363 . S
C1570 C1576 1.428 . S
H1571 C1567 0.930 1_565 S
H1572 C1569 0.929 1_565 S
S1573 N1574 1.613 . S
S1573 N1575 1.610 . S
N1574 S1573 1.613 . S
N1574 C1577 1.350 . S
N1575 S1573 1.610 . S
N1575 C1576 1.351 . S
C1576 C1570 1.428 . S
C1576 N1575 1.351 . S
C1576 C1577 1.434 . S
C1577 C1568 1.429 . S
C1577 N1574 1.350 . S
C1577 C1576 1.434 . S
C1578 C1579 1.369 . S
C1578 C1580 1.419 . S
C1578 H1582 0.930 . S
C1579 C1578 1.369 . S
C1579 C1588 1.429 . S
C1580 C1578 1.419 . S
C1580 C1581 1.363 . S
C1580 H1583 0.929 . S
C1581 C1580 1.363 . S
C1581 C1587 1.428 . S
H1582 C1578 0.930 . S
H1583 C1580 0.929 . S
S1584 N1585 1.613 . S
S1584 N1586 1.610 . S
N1585 S1584 1.613 . S
N1585 C1588 1.350 . S
N1586 S1584 1.610 . S
N1586 C1587 1.351 . S
C1587 C1581 1.428 . S
C1587 N1586 1.351 . S
C1587 C1588 1.434 . S
C1588 C1579 1.429 . S
C1588 N1585 1.350 . S
C1588 C1587 1.434 . S
C1589 C1590 1.369 . S
C1589 C1591 1.419 . S
C1589 H1593 0.930 . S
C1590 C1589 1.369 . S
C1590 C1599 1.429 . S
C1591 C1589 1.419 . S
C1591 C1592 1.363 . S
C1591 H1594 0.929 . S
C1592 C1591 1.363 . S
C1592 C1598 1.428 . S
H1593 C1589 0.930 . S
H1594 C1591 0.929 . S
S1595 N1596 1.613 . S
S1595 N1597 1.610 1_655 S
N1596 S1595 1.613 . S
N1596 C1599 1.350 1_655 S
N1597 S1595 1.610 1_455 S
N1597 C1598 1.351 . S
C1598 C1592 1.428 . S
C1598 N1597 1.351 . S
C1598 C1599 1.434 . S
C1599 C1590 1.429 . S
C1599 N1596 1.350 1_455 S
C1599 C1598 1.434 . S
C1600 C1601 1.369 . S
C1600 C1602 1.419 . S
C1600 H1604 0.930 . S
C1601 C1600 1.369 . S
C1601 C1610 1.429 . S
C1602 C1600 1.419 . S
C1602 C1603 1.363 . S
C1602 H1605 0.929 . S
C1603 C1602 1.363 . S
C1603 C1609 1.428 . S
H1604 C1600 0.930 . S
H1605 C1602 0.929 . S
S1606 N1607 1.613 . S
S1606 N1608 1.610 . S
N1607 S1606 1.613 . S
N1607 C1610 1.350 . S
N1608 S1606 1.610 . S
N1608 C1609 1.351 . S
C1609 C1603 1.428 . S
C1609 N1608 1.351 . S
C1609 C1610 1.434 . S
C1610 C1601 1.429 . S
C1610 N1607 1.350 . S
C1610 C1609 1.434 . S
C1611 C1612 1.369 1_455 S
C1611 C1613 1.419 . S
C1611 H1615 0.930 . S
C1612 C1611 1.369 1_655 S
C1612 C1621 1.429 . S
C1613 C1611 1.419 . S
C1613 C1614 1.363 1_455 S
C1613 H1616 0.929 . S
C1614 C1613 1.363 1_655 S
C1614 C1620 1.428 . S
H1615 C1611 0.930 . S
H1616 C1613 0.929 . S
S1617 N1618 1.613 . S
S1617 N1619 1.610 . S
N1618 S1617 1.613 . S
N1618 C1621 1.350 . S
N1619 S1617 1.610 . S
N1619 C1620 1.351 . S
C1620 C1614 1.428 . S
C1620 N1619 1.351 . S
C1620 C1621 1.434 . S
C1621 C1612 1.429 . S
C1621 N1618 1.350 . S
C1621 C1620 1.434 . S
C1622 C1623 1.369 . S
C1622 C1624 1.419 . S
C1622 H1626 0.930 . S
C1623 C1622 1.369 . S
C1623 C1632 1.429 . S
C1624 C1622 1.419 . S
C1624 C1625 1.363 . S
C1624 H1627 0.929 . S
C1625 C1624 1.363 . S
C1625 C1631 1.428 . S
H1626 C1622 0.930 . S
H1627 C1624 0.929 . S
S1628 N1629 1.613 . S
S1628 N1630 1.610 . S
N1629 S1628 1.613 . S
N1629 C1632 1.350 . S
N1630 S1628 1.610 . S
N1630 C1631 1.351 . S
C1631 C1625 1.428 . S
C1631 N1630 1.351 . S
C1631 C1632 1.434 . S
C1632 C1623 1.429 . S
C1632 N1629 1.350 . S
C1632 C1631 1.434 . S
C1633 C1634 1.369 . S
C1633 C1635 1.419 . S
C1633 H1637 0.953 . S
C1634 C1633 1.369 . S
C1634 C1643 1.429 . S
C1635 C1633 1.419 . S
C1635 C1636 1.363 . S
C1635 H1638 0.929 . S
C1636 C1635 1.363 . S
C1636 C1642 1.428 . S
H1637 C1633 0.953 . S
H1638 C1635 0.929 . S
S1639 N1640 1.613 . S
S1639 N1641 1.610 . S
N1640 S1639 1.613 . S
N1640 C1643 1.350 . S
N1641 S1639 1.610 . S
N1641 C1642 1.351 . S
C1642 C1636 1.428 . S
C1642 N1641 1.351 . S
C1642 C1643 1.434 . S
C1643 C1634 1.429 . S
C1643 N1640 1.350 . S
C1643 C1642 1.434 . S
C1644 C1645 1.369 . S
C1644 C1646 1.419 . S
C1644 H1648 0.930 . S
C1645 C1644 1.369 . S
C1645 C1654 1.429 . S
C1646 C1644 1.419 . S
C1646 C1647 1.363 . S
C1646 H1649 0.929 . S
C1647 C1646 1.363 . S
C1647 C1653 1.428 . S
H1648 C1644 0.930 . S
H1649 C1646 0.929 . S
S1650 N1651 1.613 . S
S1650 N1652 1.610 . S
N1651 S1650 1.613 . S
N1651 C1654 1.350 . S
N1652 S1650 1.610 . S
N1652 C1653 1.351 . S
C1653 C1647 1.428 . S
C1653 N1652 1.351 . S
C1653 C1654 1.434 . S
C1654 C1645 1.429 . S
C1654 N1651 1.350 . S
C1654 C1653 1.434 . S
C1655 C1656 1.369 . S
C1655 C1657 1.419 . S
C1655 H1659 0.930 . S
C1656 C1655 1.369 . S
C1656 C1665 1.429 . S
C1657 C1655 1.419 . S
C1657 C1658 1.363 . S
C1657 H1660 0.929 . S
C1658 C1657 1.363 . S
C1658 C1664 1.428 . S
H1659 C1655 0.930 . S
H1660 C1657 0.929 . S
S1661 N1662 1.613 . S
S1661 N1663 1.610 . S
N1662 S1661 1.613 . S
N1662 C1665 1.350 . S
N1663 S1661 1.610 . S
N1663 C1664 1.351 . S
C1664 C1658 1.428 . S
C1664 N1663 1.351 . S
C1664 C1665 1.434 . S
C1665 C1656 1.429 . S
C1665 N1662 1.350 . S
C1665 C1664 1.434 . S
C1666 C1667 1.369 . S
C1666 C1668 1.419 . S
C1666 H1670 0.930 . S
C1667 C1666 1.369 . S
C1667 C1676 1.429 . S
C1668 C1666 1.419 . S
C1668 C1669 1.363 . S
C1668 H1671 0.929 . S
C1669 C1668 1.363 . S
C1669 C1675 1.428 . S
H1670 C1666 0.930 . S
H1671 C1668 0.929 . S
S1672 N1673 1.613 . S
S1672 N1674 1.610 . S
N1673 S1672 1.613 . S
N1673 C1676 1.350 . S
N1674 S1672 1.610 . S
N1674 C1675 1.351 . S
C1675 C1669 1.428 . S
C1675 N1674 1.351 . S
C1675 C1676 1.434 . S
C1676 C1667 1.429 . S
C1676 N1673 1.350 . S
C1676 C1675 1.434 . S
C1677 C1678 1.369 1_556 S
C1677 C1679 1.419 1_556 S
C1677 H1681 0.930 . S
C1678 C1677 1.369 1_554 S
C1678 C1687 1.429 . S
C1679 C1677 1.419 1_554 S
C1679 C1680 1.363 . S
C1679 H1682 0.929 . S
C1680 C1679 1.363 . S
C1680 C1686 1.428 . S
H1681 C1677 0.930 . S
H1682 C1679 0.929 . S
S1683 N1684 1.613 . S
S1683 N1685 1.610 . S
N1684 S1683 1.613 . S
N1684 C1687 1.350 . S
N1685 S1683 1.610 . S
N1685 C1686 1.351 . S
C1686 C1680 1.428 . S
C1686 N1685 1.351 . S
C1686 C1687 1.434 . S
C1687 C1678 1.429 . S
C1687 N1684 1.350 . S
C1687 C1686 1.434 . S
C1688 C1689 1.369 . S
C1688 C1690 1.419 . S
C1688 H1692 0.930 . S
C1689 C1688 1.369 . S
C1689 C1698 1.429 . S
C1690 C1688 1.419 . S
C1690 C1691 1.363 . S
C1690 H1693 0.929 . S
C1691 C1690 1.363 . S
C1691 C1697 1.428 . S
H1692 C1688 0.930 . S
H1693 C1690 0.929 . S
S1694 N1695 1.613 . S
S1694 N1696 1.610 . S
N1695 S1694 1.613 . S
N1695 C1698 1.350 . S
N1696 S1694 1.610 . S
N1696 C1697 1.351 . S
C1697 C1691 1.428 . S
C1697 N1696 1.351 . S
C1697 C1698 1.434 . S
C1698 C1689 1.429 . S
C1698 N1695 1.350 . S
C1698 C1697 1.434 . S
C1699 C1700 1.369 . S
C1699 C1701 1.419 . S
C1699 H1703 0.930 . S
C1700 C1699 1.369 . S
C1700 C1709 1.429 . S
C1701 C1699 1.419 . S
C1701 C1702 1.363 . S
C1701 H1704 0.929 . S
C1702 C1701 1.363 . S
C1702 C1708 1.428 . S
H1703 C1699 0.930 . S
H1704 C1701 0.929 . S
S1705 N1706 1.613 . S
S1705 N1707 1.610 . S
N1706 S1705 1.613 . S
N1706 C1709 1.350 . S
N1707 S1705 1.610 . S
N1707 C1708 1.351 . S
C1708 C1702 1.428 . S
C1708 N1707 1.351 . S
C1708 C1709 1.434 . S
C1709 C1700 1.429 . S
C1709 N1706 1.350 . S
C1709 C1708 1.434 . S
C1710 C1711 1.369 . S
C1710 C1712 1.419 . S
C1710 H1714 0.930 . S
C1711 C1710 1.369 . S
C1711 C1720 1.429 . S
C1712 C1710 1.419 . S
C1712 C1713 1.363 . S
C1712 H1715 0.929 . S
C1713 C1712 1.363 . S
C1713 C1719 1.428 . S
H1714 C1710 0.930 . S
H1715 C1712 0.929 . S
S1716 N1717 1.613 . S
S1716 N1718 1.610 . S
N1717 S1716 1.613 . S
N1717 C1720 1.350 . S
N1718 S1716 1.610 . S
N1718 C1719 1.351 . S
C1719 C1713 1.428 . S
C1719 N1718 1.351 . S
C1719 C1720 1.434 . S
C1720 C1711 1.429 . S
C1720 N1717 1.350 . S
C1720 C1719 1.434 . S
C1721 C1722 1.369 . S
C1721 C1723 1.419 . S
C1721 H1725 0.930 . S
C1722 C1721 1.369 . S
C1722 C1731 1.429 . S
C1723 C1721 1.419 . S
C1723 C1724 1.363 . S
C1723 H1726 0.929 . S
C1724 C1723 1.363 . S
C1724 C1730 1.428 . S
H1725 C1721 0.930 . S
H1726 C1723 0.929 . S
S1727 N1728 1.613 . S
S1727 N1729 1.610 . S
N1728 S1727 1.613 . S
N1728 C1731 1.350 . S
N1729 S1727 1.610 . S
N1729 C1730 1.351 . S
C1730 C1724 1.428 . S
C1730 N1729 1.351 . S
C1730 C1731 1.434 . S
C1731 C1722 1.429 . S
C1731 N1728 1.350 . S
C1731 C1730 1.434 . S
C1732 C1733 1.369 . S
C1732 C1734 1.419 . S
C1732 H1736 0.930 . S
C1733 C1732 1.369 . S
C1733 C1742 1.450 . S
C1734 C1732 1.419 . S
C1734 C1735 1.363 . S
C1734 H1737 0.929 . S
C1735 C1734 1.363 . S
C1735 C1741 1.428 1_556 S
H1736 C1732 0.930 . S
H1737 C1734 0.929 . S
S1738 N1739 1.613 . S
S1738 N1740 1.610 . S
N1739 S1738 1.613 . S
N1739 C1742 1.327 1_554 S
N1740 S1738 1.610 . S
N1740 C1741 1.351 . S
C1741 C1735 1.428 1_554 S
C1741 N1740 1.351 . S
C1741 C1742 1.435 1_554 S
C1742 C1733 1.450 . S
C1742 N1739 1.327 1_556 S
C1742 C1741 1.435 1_556 S
C1743 C1744 1.369 . S
C1743 C1745 1.419 . S
C1743 H1747 0.930 . S
C1744 C1743 1.369 . S
C1744 C1753 1.429 . S
C1745 C1743 1.419 . S
C1745 C1746 1.363 . S
C1745 H1748 0.929 . S
C1746 C1745 1.363 . S
C1746 C1752 1.428 . S
H1747 C1743 0.930 . S
H1748 C1745 0.929 . S
S1749 N1750 1.613 . S
S1749 N1751 1.610 . S
N1750 S1749 1.613 . S
N1750 C1753 1.350 . S
N1751 S1749 1.610 . S
N1751 C1752 1.351 . S
C1752 C1746 1.428 . S
C1752 N1751 1.351 . S
C1752 C1753 1.434 . S
C1753 C1744 1.429 . S
C1753 N1750 1.350 . S
C1753 C1752 1.434 . S
C1754 C1755 1.369 . S
C1754 C1756 1.419 . S
C1754 H1758 0.930 . S
C1755 C1754 1.369 . S
C1755 C1764 1.429 . S
C1756 C1754 1.419 . S
C1756 C1757 1.363 . S
C1756 H1759 0.929 . S
C1757 C1756 1.363 . S
C1757 C1763 1.428 . S
H1758 C1754 0.930 . S
H1759 C1756 0.929 . S
S1760 N1761 1.613 . S
S1760 N1762 1.610 . S
N1761 S1760 1.613 . S
N1761 C1764 1.350 1_556 S
N1762 S1760 1.610 . S
N1762 C1763 1.351 1_556 S
C1763 C1757 1.428 . S
C1763 N1762 1.351 1_554 S
C1763 C1764 1.434 . S
C1764 C1755 1.429 . S
C1764 N1761 1.350 1_554 S
C1764 C1763 1.434 . S
C1765 C1766 1.369 1_545 S
C1765 C1767 1.419 1_545 S
C1765 H1769 0.930 . S
C1766 C1765 1.369 1_565 S
C1766 C1775 1.429 . S
C1767 C1765 1.419 1_565 S
C1767 C1768 1.363 . S
C1767 H1770 0.929 . S
C1768 C1767 1.363 . S
C1768 C1774 1.428 . S
H1769 C1765 0.930 . S
H1770 C1767 0.929 . S
S1771 N1772 1.613 . S
S1771 N1773 1.610 . S
N1772 S1771 1.613 . S
N1772 C1775 1.350 1_556 S
N1773 S1771 1.610 . S
N1773 C1774 1.351 1_556 S
C1774 C1768 1.428 . S
C1774 N1773 1.351 1_554 S
C1774 C1775 1.434 . S
C1775 C1766 1.429 . S
C1775 N1772 1.350 1_554 S
C1775 C1774 1.434 . S
C1251 C241 1.768 . S
C1249 C66 1.763 . S
C1262 C300 1.193 . S
C1260 C76 1.189 . S
C1271 C93 1.869 . S
C1273 C417 1.854 . S
C1284 C485 1.528 . S
C1282 C54 1.548 . S
C1295 C564 1.548 . S
C1293 C126 1.559 . S
C1306 C689 1.843 . S
C1304 C150 1.855 . S
C1315 C136 1.194 . S
C1317 C749 1.200 . S
C1328 C857 1.799 . S
C1326 C117 1.808 . S
C1337 C141 1.328 . S
C1339 C953 1.339 . S
C1350 C1013 1.351 . S
C1348 C112 1.348 . S
C1359 C124 1.550 . S
C1361 C916 1.548 . S
C1372 C1033 1.317 . S
C1370 C148 1.316 . S
C1381 C88 1.329 . S
C1383 C1101 1.326 . S
C1392 C52 1.603 . S
C1394 C1092 1.604 . S
C1403 C64 1.272 . S
C1405 C1121 1.276 . S
C1414 C78 1.238 . S
C1416 C1129 1.248 . S
C1425 C45 1.716 . S
C1427 C513 1.726 . S
C1436 C177 1.884 . S
C1438 C476 1.877 . S
C1449 C212 1.401 1_556 S
C1447 C189 1.406 1_565 S
C1460 C309 1.624 . S
C1458 C102 1.623 . S
C1469 C57 1.736 . S
C1471 C573 1.745 . S
C1482 C865 1.468 . S
C1480 C138 1.468 . S
C1493 C593 1.812 . S
C1491 C114 1.828 . S
C1504 C777 1.725 . S
C1502 C153 1.727 . S
C1515 C769 1.766 . S
C1513 C174 1.765 . S
C1524 C184 1.189 . S
C1526 C837 1.194 . S
C1535 C105 1.866 . S
C1537 C601 1.857 . S
C1548 C652 1.526 . S
C1546 C162 1.549 . S
C1557 C42 1.562 . S
C1559 C397 1.546 . S
C1570 C505 1.843 1_455 S
C1568 C6 1.855 . S
C1581 C221 1.202 . S
C1579 C16 1.191 . S
C1592 C337 1.800 . S
C1590 C33 1.806 1_455 S
C1601 C21 1.333 . S
C1603 C1041 1.336 . S
C1612 C28 1.346 . S
C1614 C925 1.351 . S
C1623 C40 1.549 . S
C1625 C1004 1.547 . S
C1634 C4 1.311 . S
C1636 C945 1.318 . S
C1647 C1189 1.326 . S
C1645 C100 1.329 . S
C1658 C1180 1.604 . S
C1656 C160 1.604 . S
C1669 C1209 1.275 . S
C1667 C172 1.272 . S
C1678 C186 1.242 1_554 S
C1680 C1217 1.247 . S
C1689 C129 1.717 . S
C1691 C681 1.726 . S
C1702 C661 1.877 . S
C1700 C69 1.885 . S
C1713 C740 1.412 . S
C1711 C81 1.407 . S
C1724 C828 1.625 . S
C1722 C90 1.621 . S
C1733 C165 1.735 . S
C1735 C388 1.746 . S
C1746 C329 1.468 . S
C1744 C18 1.470 . S
C1755 C30 1.827 . S
C1757 C425 1.814 . S
C1768 C249 1.724 . S
C1766 C9 1.727 1_565 S
