# Generated by pormake.
# Topology pth, (4,4)-cn, num edge types: 1
# Building blocks:
#     Node 0, Type 0, BuildingBlock: AZAVOO_clean_sbu_0, # of connection points: 4
#     Node 1, Type 0, BuildingBlock: AZAVOO_clean_sbu_0, # of connection points: 4
#     Node 2, Type 0, BuildingBlock: AZAVOO_clean_sbu_0, # of connection points: 4
#     Node 3, Type 1, BuildingBlock: NAHDIM_clean_linker_0, # of connection points: 4
#     Node 4, Type 1, BuildingBlock: NAHDIM_clean_linker_0, # of connection points: 4
#     Node 5, Type 1, BuildingBlock: NAHDIM_clean_linker_0, # of connection points: 4
#     Edge 6, Type (0, 1), BuildingBlock: FUNLAD_clean_linker_0, # of connection points: 2
#     Edge 7, Type (0, 1), BuildingBlock: FUNLAD_clean_linker_0, # of connection points: 2
#     Edge 8, Type (0, 1), BuildingBlock: FUNLAD_clean_linker_0, # of connection points: 2
#     Edge 9, Type (0, 1), BuildingBlock: FUNLAD_clean_linker_0, # of connection points: 2
#     Edge 10, Type (0, 1), BuildingBlock: FUNLAD_clean_linker_0, # of connection points: 2
#     Edge 11, Type (0, 1), BuildingBlock: FUNLAD_clean_linker_0, # of connection points: 2
#     Edge 12, Type (0, 1), BuildingBlock: FUNLAD_clean_linker_0, # of connection points: 2
#     Edge 13, Type (0, 1), BuildingBlock: FUNLAD_clean_linker_0, # of connection points: 2
#     Edge 14, Type (0, 1), BuildingBlock: FUNLAD_clean_linker_0, # of connection points: 2
#     Edge 15, Type (0, 1), BuildingBlock: FUNLAD_clean_linker_0, # of connection points: 2
#     Edge 16, Type (0, 1), BuildingBlock: FUNLAD_clean_linker_0, # of connection points: 2
#     Edge 17, Type (0, 1), BuildingBlock: FUNLAD_clean_linker_0, # of connection points: 2
# Relax obj value: 0.085
# Max RMSD: 0.220
# Mean RMSD: 0.131
data_MOF--net-pth--node1-AZAVOO_clean_sbu_0--node2-NAHDIM_clean_linker_0--edge1-FUNLAD_clean_linker_0
_symmetry_space_group_name_H-M    P1
_symmetry_Int_Tables_number       1
_symmetry_cell_setting            triclinic
loop_
_symmetry_equiv_pos_as_xyz
'x, y, z'
_cell_length_a     35.130168
_cell_length_b     35.758884
_cell_length_c     88.63567
_cell_angle_alpha  90.494989
_cell_angle_beta   93.047731
_cell_angle_gamma 121.86778
loop_
_atom_site_label
_atom_site_type_symbol
_atom_site_fract_x
_atom_site_fract_y
_atom_site_fract_z
_atom_type_partial_charge
Mg0 Mg 0.12672 0.12408 0.07177 0.0
O1 O 0.06938 0.08488 0.05356 0.0
O2 O 0.06506 0.13277 0.03871 0.0
Mg3 Mg 0.11921 0.20251 0.04743 0.0
C4 C 0.05139 0.09331 0.04228 0.0
C5 C 0.11177 0.03375 0.08351 0.0
O6 O 0.13822 0.03827 0.07282 0.0
O7 O 0.08413 0.14337 0.08442 0.0
O8 O 0.08353 0.19282 0.06929 0.0
O9 O 0.17656 0.12693 0.05592 0.0
O10 O 0.15849 0.17714 0.05812 0.0
C11 C 0.07286 0.17125 0.08137 0.0
C12 C 0.1811 0.16356 0.05168 0.0
O13 O 0.10128 0.06241 0.08533 0.0
Mg14 Mg 0.97655 0.04677 0.3971 0.0
O15 O 0.03918 0.06436 0.41248 0.0
O16 O 0.0596 0.12628 0.4258 0.0
Mg17 Mg 0.01023 0.14764 0.41944 0.0
C18 C 0.0653 0.09491 0.42231 0.0
C19 C 0.96401 0.98449 0.37018 0.0
O20 O 0.93902 0.99961 0.36513 0.0
O21 O 0.01886 0.10229 0.38158 0.0
O22 O 0.03463 0.16192 0.39543 0.0
O23 O 0.93146 0.00746 0.41525 0.0
O24 O 0.96 0.07873 0.4126 0.0
C25 C 0.03642 0.14387 0.3832 0.0
C26 C 0.93712 0.04428 0.42028 0.0
O27 O 0.98475 0.99803 0.38314 0.0
Mg28 Mg 0.99761 0.03354 0.72185 0.0
O29 O 0.04126 0.08799 0.73997 0.0
O30 O 0.99726 0.09928 0.75413 0.0
Mg31 Mg 0.92517 0.05367 0.74429 0.0
C32 C 0.03602 0.10784 0.75095 0.0
C33 C 0.05905 0.03863 0.69658 0.0
O34 O 0.01992 0.01633 0.68886 0.0
O35 O 0.98775 0.08128 0.70798 0.0
O36 O 0.94345 0.09185 0.72235 0.0
O37 O 0.98902 0.98304 0.7381 0.0
O38 O 0.94313 0.00763 0.73536 0.0
C39 C 0.96536 0.09917 0.71054 0.0
C40 C 0.95457 0.98336 0.74245 0.0
O41 O 0.06072 0.05084 0.71022 0.0
C42 C 0.94245 0.63808 0.32256 0.0
C43 C 0.97832 0.67476 0.31347 0.0
C44 C 0.98315 0.65109 0.28828 0.0
C45 C 0.02975 0.67263 0.28736 0.0
C46 C 0.04809 0.65603 0.2776 0.0
C47 C 0.01913 0.61696 0.2687 0.0
C48 C 0.97199 0.596 0.26928 0.0
C49 C 0.9546 0.61392 0.2789 0.0
C50 C 0.09844 0.67968 0.27704 0.0
C51 C 0.94006 0.55397 0.26012 0.0
C52 C 0.08629 0.36114 0.30086 0.0
C53 C 0.07978 0.38431 0.28802 0.0
C54 C 0.0933 0.45754 0.28296 0.0
C55 C 0.05693 0.44249 0.27213 0.0
C56 C 0.04786 0.47205 0.26501 0.0
C57 C 0.07724 0.51796 0.26811 0.0
C58 C 0.11428 0.53332 0.27884 0.0
C59 C 0.12138 0.50277 0.28628 0.0
C60 C 0.00678 0.45385 0.25414 0.0
C61 C 0.14656 0.58193 0.28236 0.0
C62 C 0.12746 0.48203 0.1787 0.0
C63 C 0.08243 0.46234 0.18209 0.0
C64 C 0.06565 0.48825 0.18668 0.0
C65 C 0.09478 0.53467 0.18809 0.0
C66 C 0.13916 0.55464 0.18353 0.0
C67 C 0.15478 0.52791 0.1787 0.0
C68 C 0.01755 0.46583 0.19086 0.0
C69 C 0.17084 0.60399 0.18469 0.0
C70 C 0.91953 0.71307 0.16893 0.0
C71 C 0.96639 0.72058 0.16798 0.0
C72 C 0.98434 0.66372 0.17109 0.0
C73 C 0.96198 0.6181 0.1722 0.0
C74 C 0.98218 0.59863 0.18019 0.0
C75 C 0.02649 0.62559 0.18681 0.0
C76 C 0.05029 0.67167 0.18497 0.0
C77 C 0.02878 0.69036 0.17723 0.0
C78 C 0.95582 0.54934 0.18179 0.0
C79 C 0.09816 0.70117 0.19134 0.0
C80 C 0.03829 0.5963 0.25973 0.0
C81 C 0.05122 0.57026 0.26738 0.0
C82 C 0.06949 0.54955 0.2598 0.0
C83 C 0.0761 0.55572 0.24422 0.0
C84 C 0.09666 0.53736 0.23645 0.0
C85 C 0.09941 0.54014 0.2209 0.0
C86 C 0.08171 0.56142 0.2125 0.0
C87 C 0.081 0.56116 0.19654 0.0
C88 C 0.06417 0.58345 0.18852 0.0
C89 C 0.04713 0.60555 0.19606 0.0
C90 C 0.04675 0.6054 0.21204 0.0
C91 C 0.02911 0.62647 0.22003 0.0
C92 C 0.0275 0.62471 0.2357 0.0
C93 C 0.04231 0.60078 0.24394 0.0
C94 C 0.06107 0.58013 0.23617 0.0
C95 C 0.06365 0.58277 0.22024 0.0
C96 C 0.17893 0.42199 0.18787 0.0
C97 C 0.13526 0.41882 0.18242 0.0
O98 O 0.96498 0.66539 0.29819 0.0
O99 O 0.96204 0.68085 0.16404 0.0
O100 O 0.14579 0.4578 0.17571 0.0
O101 O 0.10196 0.42965 0.29057 0.0
H102 H 0.01013 0.67553 0.31604 0.0
H103 H 0.93838 0.60608 0.31922 0.0
H104 H 0.90958 0.63533 0.32042 0.0
H105 H 0.95254 0.64473 0.33486 0.0
H106 H 0.05172 0.70229 0.29431 0.0
H107 H 0.91862 0.59795 0.27961 0.0
H108 H 0.11046 0.65922 0.28218 0.0
H109 H 0.11602 0.71227 0.28324 0.0
H110 H 0.10775 0.68451 0.26512 0.0
H111 H 0.90449 0.54031 0.2626 0.0
H112 H 0.9487 0.52878 0.26249 0.0
H113 H 0.94334 0.56031 0.24789 0.0
H114 H 0.08462 0.37487 0.27658 0.0
H115 H 0.02156 0.322 0.30855 0.0
H116 H 0.11577 0.38711 0.3083 0.0
H117 H 0.10523 0.3467 0.29621 0.0
H118 H 0.03509 0.40768 0.26924 0.0
H119 H 0.14934 0.51415 0.29464 0.0
H120 H 0.01696 0.45639 0.24237 0.0
H121 H 0.9901 0.47273 0.25528 0.0
H122 H 0.98193 0.41858 0.25596 0.0
H123 H 0.17673 0.58861 0.28945 0.0
H124 H 0.12935 0.59537 0.28852 0.0
H125 H 0.15752 0.59981 0.27173 0.0
H126 H 0.11617 0.41411 0.19262 0.0
H127 H 0.06066 0.42676 0.18146 0.0
H128 H 0.18923 0.54271 0.17572 0.0
H129 H 0.01678 0.46585 0.20337 0.0
H130 H 0.9972 0.43112 0.18637 0.0
H131 H 0.00178 0.48391 0.18651 0.0
H132 H 0.2036 0.61453 0.18 0.0
H133 H 0.17702 0.61564 0.19674 0.0
H134 H 0.15537 0.62017 0.17855 0.0
H135 H 0.98381 0.73274 0.17945 0.0
H136 H 0.92198 0.74433 0.17228 0.0
H137 H 0.90131 0.68857 0.17756 0.0
H138 H 0.89982 0.70036 0.15786 0.0
H139 H 0.92793 0.59786 0.16721 0.0
H140 H 0.04672 0.72564 0.17591 0.0
H141 H 0.95596 0.54151 0.19388 0.0
H142 H 0.97194 0.53464 0.17568 0.0
H143 H 0.92043 0.53362 0.17715 0.0
H144 H 0.11377 0.73525 0.18733 0.0
H145 H 0.11869 0.68746 0.18814 0.0
H146 H 0.09895 0.70266 0.20388 0.0
H147 H 0.04606 0.56528 0.27934 0.0
H148 H 0.11029 0.52003 0.24228 0.0
H149 H 0.11503 0.52475 0.21555 0.0
H150 H 0.06319 0.58258 0.17626 0.0
H151 H 0.01607 0.64436 0.21425 0.0
H152 H 0.01354 0.64147 0.24124 0.0
H153 H 0.19977 0.42672 0.17821 0.0
H154 H 0.17163 0.39158 0.1936 0.0
H155 H 0.19849 0.45045 0.19609 0.0
C156 C 0.3942 0.02448 0.65916 0.0
C157 C 0.38467 0.04762 0.64642 0.0
C158 C 0.41067 0.04305 0.62197 0.0
C159 C 0.43013 0.08679 0.61767 0.0
C160 C 0.46335 0.10409 0.6072 0.0
C161 C 0.47734 0.07704 0.60097 0.0
C162 C 0.45634 0.03236 0.60483 0.0
C163 C 0.42265 0.01577 0.61513 0.0
C164 C 0.48421 0.1515 0.60303 0.0
C165 C 0.47056 0.00259 0.59851 0.0
C166 C 0.77487 0.26108 0.65393 0.0
C167 C 0.7597 0.22102 0.64328 0.0
C168 C 0.72125 0.20891 0.61856 0.0
C169 C 0.69767 0.16274 0.61737 0.0
C170 C 0.6583 0.13892 0.60787 0.0
C171 C 0.64192 0.16184 0.5996 0.0
C172 C 0.66648 0.20852 0.60045 0.0
C173 C 0.70643 0.23149 0.60973 0.0
C174 C 0.63371 0.08925 0.60694 0.0
C175 C 0.64977 0.23411 0.59197 0.0
C176 C 0.70328 0.16068 0.50535 0.0
C177 C 0.68326 0.11926 0.51178 0.0
C178 C 0.64151 0.10098 0.51805 0.0
C179 C 0.61999 0.12512 0.51818 0.0
C180 C 0.63904 0.16577 0.51098 0.0
C181 C 0.68026 0.1827 0.50444 0.0
C182 C 0.62124 0.05666 0.52506 0.0
C183 C 0.61686 0.1922 0.51076 0.0
C184 C 0.25158 0.9582 0.5109 0.0
C185 C 0.29125 -5e-05 0.50498 0.0
C186 C 0.36644 0.01224 0.50572 0.0
C187 C 0.38671 0.98792 0.50812 0.0
C188 C 0.43056 0.00785 0.51484 0.0
C189 C 0.45483 0.05342 0.51889 0.0
C190 C 0.43552 0.07878 0.51554 0.0
C191 C 0.3914 0.05787 0.50901 0.0
C192 C 0.45034 0.97997 0.51811 0.0
C193 C 0.46107 0.12773 0.51923 0.0
C194 C 0.51636 0.09631 0.59144 0.0
C195 C 0.55919 0.11962 0.59884 0.0
C196 C 0.59778 0.13694 0.59083 0.0
C197 C 0.59376 0.13037 0.57494 0.0
C198 C 0.63181 0.14594 0.56658 0.0
C199 C 0.62752 0.13959 0.55094 0.0
C200 C 0.58494 0.1171 0.54305 0.0
C201 C 0.58025 0.1101 0.52714 0.0
C202 C 0.53756 0.08895 0.51959 0.0
C203 C 0.49909 0.07402 0.52756 0.0
C204 C 0.50301 0.07941 0.54352 0.0
C205 C 0.46489 0.06352 0.55193 0.0
C206 C 0.46913 0.06906 0.56762 0.0
C207 C 0.51162 0.09082 0.5755 0.0
C208 C 0.55051 0.10754 0.56724 0.0
C209 C 0.54614 0.10131 0.55126 0.0
C210 C 0.82348 0.22176 0.5061 0.0
C211 C 0.77997 0.17655 0.50587 0.0
O212 O 0.38042 0.02634 0.63271 0.0
O213 O 0.32269 0.99071 0.50043 0.0
O214 O 0.74489 0.18056 0.50009 0.0
O215 O 0.75751 0.23232 0.62849 0.0
H216 H 0.41378 0.0823 0.64685 0.0
H217 H 0.42614 0.0261 0.65747 0.0
H218 H 0.36675 0.98927 0.6593 0.0
H219 H 0.39762 0.04094 0.67028 0.0
H220 H 0.41948 0.10742 0.62254 0.0
H221 H 0.40681 0.98184 0.61838 0.0
H222 H 0.51943 0.17102 0.60793 0.0
H223 H 0.46571 0.16639 0.60727 0.0
H224 H 0.48503 0.15394 0.59055 0.0
H225 H 0.45241 0.96931 0.60324 0.0
H226 H 0.50722 0.01753 0.601 0.0
H227 H 0.46405 0.9989 0.58603 0.0
H228 H 0.72554 0.19542 0.64658 0.0
H229 H 0.77818 0.25304 0.66582 0.0
H230 H 0.74949 0.27067 0.65311 0.0
H231 H 0.80751 0.28974 0.65091 0.0
H232 H 0.70989 0.14533 0.62392 0.0
H233 H 0.72519 0.26719 0.61068 0.0
H234 H 0.62459 0.07689 0.59495 0.0
H235 H 0.60206 0.07541 0.61277 0.0
H236 H 0.65403 0.07683 0.6123 0.0
H237 H 0.67078 0.27004 0.59487 0.0
H238 H 0.61458 0.22199 0.59453 0.0
H239 H 0.64997 0.22895 0.57963 0.0
H240 H 0.77484 0.1664 0.51781 0.0
H241 H 0.70032 0.10137 0.51201 0.0
H242 H 0.69574 0.21429 0.4992 0.0
H243 H 0.62519 0.06135 0.53756 0.0
H244 H 0.63767 0.0388 0.52168 0.0
H245 H 0.58472 0.03591 0.52174 0.0
H246 H 0.63663 0.22376 0.50503 0.0
H247 H 0.61247 0.19954 0.52252 0.0
H248 H 0.58295 0.1726 0.50483 0.0
H249 H 0.30548 0.02464 0.51467 0.0
H250 H 0.22572 0.96476 0.51447 0.0
H251 H 0.26335 0.9474 0.52085 0.0
H252 H 0.23606 0.93098 0.5021 0.0
H253 H 0.36735 0.95284 0.50529 0.0
H254 H 0.37633 0.07708 0.50658 0.0
H255 H 0.45845 0.98135 0.53046 0.0
H256 H 0.4822 0.99334 0.51244 0.0
H257 H 0.42714 0.94499 0.51422 0.0
H258 H 0.44332 0.1435 0.51444 0.0
H259 H 0.49498 0.14381 0.5148 0.0
H260 H 0.4657 0.13371 0.53169 0.0
H261 H 0.56254 0.12413 0.61108 0.0
H262 H 0.66539 0.16322 0.57204 0.0
H263 H 0.65812 0.15266 0.54514 0.0
H264 H 0.53426 0.08428 0.50737 0.0
H265 H 0.43129 0.04643 0.5465 0.0
H266 H 0.43868 0.05617 0.57352 0.0
H267 H 0.83065 0.23392 0.49446 0.0
H268 H 0.85218 0.21995 0.51106 0.0
H269 H 0.82036 0.24576 0.51312 0.0
C270 C 0.74363 0.64469 0.81546 0.0
C271 C 0.73402 0.67698 0.82322 0.0
C272 C 0.70544 0.66125 0.84804 0.0
C273 C 0.67695 0.67766 0.84735 0.0
C274 C 0.63906 0.65939 0.85588 0.0
C275 C 0.62933 0.62362 0.86508 0.0
C276 C 0.65926 0.60837 0.86627 0.0
C277 C 0.69755 0.62811 0.85792 0.0
C278 C 0.60857 0.67721 0.85462 0.0
C279 C 0.64973 0.56985 0.87576 0.0
C280 C 0.31062 0.34299 0.81633 0.0
C281 C 0.35405 0.3712 0.82532 0.0
C282 C 0.39892 0.44391 0.8381 0.0
C283 C 0.4285 0.43456 0.84605 0.0
C284 C 0.4635 0.46627 0.85595 0.0
C285 C 0.46916 0.50823 0.85798 0.0
C286 C 0.43958 0.51786 0.85001 0.0
C287 C 0.40475 0.48545 0.84017 0.0
C288 C 0.4945 0.45495 0.86428 0.0
C289 C 0.44478 0.5623 0.85196 0.0
C290 C 0.35749 0.45396 0.94426 0.0
C291 C 0.3893 0.44196 0.94276 0.0
C292 C 0.43369 0.47365 0.93977 0.0
C293 C 0.44622 0.518 0.93807 0.0
C294 C 0.41508 0.53062 0.94067 0.0
C295 C 0.37112 0.49836 0.9439 0.0
C296 C 0.46653 0.45932 0.93761 0.0
C297 C 0.42751 0.57769 0.93918 0.0
C298 C 0.78716 0.75873 0.95322 0.0
C299 C 0.75886 0.76968 0.96273 0.0
C300 C 0.68606 0.70187 0.9622 0.0
C301 C 0.6733 0.65769 0.96122 0.0
C302 C 0.63387 0.62628 0.95278 0.0
C303 C 0.60628 0.63948 0.94547 0.0
C304 C 0.61758 0.68363 0.94731 0.0
C305 C 0.65751 0.71444 0.95563 0.0
C306 C 0.62259 0.5794 0.95117 0.0
C307 C 0.58818 0.69852 0.94009 0.0
C308 C 0.58556 0.59902 0.87203 0.0
C309 C 0.5481 0.569 0.86264 0.0
C310 C 0.50627 0.54191 0.86842 0.0
C311 C 0.50129 0.54477 0.88402 0.0
C312 C 0.45974 0.51761 0.8902 0.0
C313 C 0.45553 0.51946 0.90564 0.0
C314 C 0.49275 0.54844 0.91553 0.0
C315 C 0.48908 0.54926 0.93133 0.0
C316 C 0.52641 0.57917 0.94082 0.0
C317 C 0.56777 0.60819 0.93492 0.0
C318 C 0.57233 0.60705 0.91916 0.0
C319 C 0.61368 0.635 0.91286 0.0
C320 C 0.61798 0.63298 0.8974 0.0
C321 C 0.5812 0.60275 0.88765 0.0
C322 C 0.53898 0.57509 0.89369 0.0
C323 C 0.53464 0.57702 0.90946 0.0
C324 C 0.24271 0.36598 0.93525 0.0
C325 C 0.29032 0.37972 0.941 0.0
O326 O 0.73946 0.6755 0.83876 0.0
O327 O 0.72634 0.73189 0.9693 0.0
O328 O 0.31339 0.42378 0.94582 0.0
O329 O 0.36451 0.41381 0.82844 0.0
H330 H 0.69847 0.66564 0.81965 0.0
H331 H 0.71918 0.6106 0.81872 0.0
H332 H 0.77804 0.65246 0.81886 0.0
H333 H 0.74013 0.64594 0.80297 0.0
H334 H 0.68397 0.70415 0.83991 0.0
H335 H 0.72014 0.61606 0.85841 0.0
H336 H 0.57715 0.6533 0.84787 0.0
H337 H 0.62446 0.7093 0.84906 0.0
H338 H 0.59924 0.68146 0.86601 0.0
H339 H 0.67448 0.55985 0.87449 0.0
H340 H 0.61557 0.54111 0.87256 0.0
H341 H 0.65068 0.57869 0.88786 0.0
H342 H 0.38291 0.37008 0.8212 0.0
H343 H 0.31996 0.33511 0.80531 0.0
H344 H 0.30094 0.36589 0.81128 0.0
H345 H 0.27099 0.29433 0.83125 0.0
H346 H 0.42453 0.40259 0.84461 0.0
H347 H 0.38181 0.49241 0.83403 0.0
H348 H 0.49358 0.45899 0.87666 0.0
H349 H 0.52957 0.47797 0.8613 0.0
H350 H 0.48536 0.42067 0.86158 0.0
H351 H 0.4191 0.56471 0.84492 0.0
H352 H 0.47869 0.58851 0.84886 0.0
H353 H 0.44199 0.56864 0.86402 0.0
H354 H 0.30649 0.37513 0.93126 0.0
H355 H 0.37943 0.40785 0.94363 0.0
H356 H 0.34651 0.50737 0.94541 0.0
H357 H 0.47158 0.45857 0.92538 0.0
H358 H 0.45435 0.42598 0.94189 0.0
H359 H 0.49966 0.48317 0.9435 0.0
H360 H 0.40008 0.58254 0.94221 0.0
H361 H 0.43545 0.58742 0.92735 0.0
H362 H 0.4581 0.59999 0.94659 0.0
H363 H 0.74285 0.78262 0.955 0.0
H364 H 0.81375 0.78888 0.94806 0.0
H365 H 0.76549 0.73434 0.94396 0.0
H366 H 0.80313 0.7445 0.96028 0.0
H367 H 0.69533 0.64828 0.96655 0.0
H368 H 0.66661 0.74839 0.95692 0.0
H369 H 0.62154 0.5705 0.93905 0.0
H370 H 0.58874 0.55662 0.9552 0.0
H371 H 0.64736 0.57432 0.95764 0.0
H372 H 0.5988 0.73247 0.944 0.0
H373 H 0.55266 0.67565 0.94266 0.0
H374 H 0.58967 0.69777 0.92762 0.0
H375 H 0.55185 0.56575 0.8507 0.0
H376 H 0.43003 0.49439 0.88319 0.0
H377 H 0.42264 0.49759 0.90971 0.0
H378 H 0.52329 0.57974 0.95292 0.0
H379 H 0.64334 0.65855 0.91982 0.0
H380 H 0.6506 0.65513 0.89318 0.0
H381 H 0.2246 0.36997 0.94443 0.0
H382 H 0.22359 0.33103 0.93097 0.0
H383 H 0.24414 0.38686 0.92581 0.0
C384 C 0.05845 0.17755 0.10837 0.0
C385 C 0.05309 0.1845 0.09303 0.0
C386 C 0.05104 0.20021 0.11964 0.0
C387 C 0.03763 0.22994 0.11572 0.0
C388 C 0.02779 0.2331 0.1004 0.0
C389 C 0.03546 0.21071 0.08918 0.0
C390 C 0.04083 0.26336 0.12671 0.0
C391 C 0.0491 0.26396 0.14175 0.0
C392 C 0.06611 0.30426 0.15157 0.0
C393 C 0.05891 0.30023 0.16705 0.0
C394 C 0.07955 0.33759 0.17685 0.0
C395 C 0.10819 0.37967 0.1714 0.0
H396 H 0.10191 0.35087 0.13432 0.0
C397 C 0.11509 0.38374 0.15588 0.0
C398 C 0.0941 0.34652 0.14606 0.0
H399 H 0.13795 0.41552 0.1514 0.0
H400 H 0.07185 0.15743 0.11172 0.0
H401 H 0.05914 0.19656 0.13124 0.0
H402 H 0.01706 0.25536 0.09702 0.0
H403 H 0.03032 0.21626 0.07745 0.0
H404 H 0.04034 0.29107 0.12199 0.0
H405 H 0.04586 0.23528 0.14704 0.0
H406 H 0.03819 0.26804 0.17162 0.0
H407 H 0.07441 0.3335 0.18882 0.0
C408 C 0.87368 0.01665 0.43709 0.0
C409 C 0.91863 0.04733 0.4344 0.0
C410 C 0.85417 0.02369 0.44929 0.0
C411 C 0.87977 0.06105 0.45911 0.0
C412 C 0.92554 0.08978 0.45701 0.0
C413 C 0.94467 0.08334 0.44464 0.0
C414 C 0.85937 0.07279 0.471 0.0
C415 C 0.81921 0.06879 0.46853 0.0
C416 C 0.80433 0.09138 0.47855 0.0
C417 C 0.78186 0.11069 0.47202 0.0
C418 C 0.77254 0.13711 0.48084 0.0
C419 C 0.78435 0.14362 0.49647 0.0
H420 H 0.83127 0.08134 0.49967 0.0
C421 C 0.80484 0.12248 0.50312 0.0
C422 C 0.81473 0.09656 0.49426 0.0
H423 H 0.81451 0.1272 0.51512 0.0
H424 H 0.85308 0.98856 0.42932 0.0
H425 H 0.81896 0.00053 0.45084 0.0
H426 H 0.94601 0.11854 0.46452 0.0
H427 H 0.97964 0.10695 0.44293 0.0
H428 H 0.88086 0.09152 0.48095 0.0
H429 H 0.8 0.05438 0.4578 0.0
H430 H 0.77349 0.10714 0.45994 0.0
H431 H 0.75727 0.15342 0.47535 0.0
C432 C 0.94307 0.932 0.76318 0.0
C433 C 0.92905 0.95668 0.75506 0.0
C434 C 0.91665 0.90346 0.7741 0.0
C435 C 0.87563 0.89921 0.7772 0.0
C436 C 0.86242 0.92494 0.76938 0.0
C437 C 0.88885 0.95347 0.75847 0.0
C438 C 0.84352 0.86502 0.78714 0.0
C439 C 0.8554 0.84558 0.79776 0.0
C440 C 0.8229 0.8055 0.8057 0.0
C441 C 0.84005 0.78614 0.81539 0.0
C442 C 0.81136 0.74556 0.8216 0.0
C443 C 0.76478 0.7233 0.81819 0.0
H444 H 0.76048 0.79762 0.79591 0.0
C445 C 0.7473 0.74355 0.80917 0.0
C446 C 0.77588 0.78421 0.80303 0.0
H447 H 0.71143 0.72731 0.80651 0.0
H448 H 0.97383 0.93365 0.76077 0.0
H449 H 0.92764 0.88346 0.77951 0.0
H450 H 0.83086 0.92209 0.77141 0.0
H451 H 0.87693 0.97184 0.75237 0.0
H452 H 0.80867 0.85489 0.78503 0.0
H453 H 0.8908 0.85807 0.80027 0.0
H454 H 0.87597 0.80168 0.81777 0.0
H455 H 0.82568 0.73082 0.82865 0.0
C456 C 0.1072 0.96485 0.09224 0.0
C457 C 0.09596 0.99695 0.09393 0.0
C458 C 0.0934 0.93111 0.10248 0.0
C459 C 0.06801 0.92885 0.1146 0.0
C460 C 0.05689 0.96095 0.11624 0.0
C461 C 0.07045 0.99444 0.106 0.0
C462 C 0.05371 0.89471 0.12609 0.0
C463 C 0.04823 0.85487 0.1236 0.0
C464 C 0.03077 0.82068 0.13511 0.0
C465 C 0.00402 0.77605 0.13035 0.0
C466 C 0.98426 0.74339 0.14093 0.0
C467 C 0.99177 0.75473 0.1565 0.0
H468 H 0.06106 0.86581 0.1548 0.0
C469 C 0.01995 0.79923 0.16127 0.0
C470 C 0.03948 0.83186 0.15071 0.0
H471 H 0.02609 0.80886 0.17319 0.0
H472 H 0.12709 0.96603 0.08312 0.0
H473 H 0.1036 0.90764 0.10104 0.0
H474 H 0.03757 0.96016 0.1255 0.0
H475 H 0.06128 0.01866 0.10768 0.0
H476 H 0.04458 0.90187 0.13678 0.0
H477 H 0.05294 0.84557 0.11248 0.0
H478 H 0.99704 0.76654 0.11841 0.0
H479 H 0.96221 0.70939 0.13693 0.0
C480 C 0.10753 0.05716 0.42805 0.0
C481 C 0.10163 0.09257 0.4307 0.0
C482 C 0.1389 0.05288 0.43703 0.0
C483 C 0.16522 0.0841 0.44885 0.0
C484 C 0.1602 0.12009 0.45117 0.0
C485 C 0.12901 0.12444 0.44218 0.0
C486 C 0.19496 0.07834 0.45988 0.0
C487 C 0.21216 0.0532 0.45712 0.0
C488 C 0.23692 0.04315 0.46894 0.0
C489 C 0.23929 0.00549 0.46675 0.0
C490 C 0.25837 0.99238 0.47813 0.0
C491 C 0.27559 0.01675 0.49196 0.0
H492 H 0.25747 0.09926 0.48445 0.0
C493 C 0.27538 0.05565 0.49388 0.0
C494 C 0.25663 0.06896 0.48247 0.0
H495 H 0.28898 0.07539 0.50435 0.0
H496 H 0.08694 0.03193 0.41934 0.0
H497 H 0.14082 0.02405 0.43507 0.0
H498 H 0.17984 0.14454 0.46021 0.0
H499 H 0.12555 0.15223 0.44456 0.0
H500 H 0.20132 0.0946 0.47092 0.0
H501 H 0.20577 0.03711 0.44603 0.0
H502 H 0.22497 0.98525 0.4564 0.0
H503 H 0.25845 0.96243 0.47632 0.0
C504 C 0.07127 0.1603 0.77361 0.0
C505 C 0.07602 0.14078 0.76059 0.0
C506 C 0.10876 0.18946 0.78316 0.0
C507 C 0.15205 0.20009 0.77982 0.0
C508 C 0.15678 0.18115 0.76666 0.0
C509 C 0.11931 0.15194 0.75714 0.0
C510 C 0.19262 0.22813 0.79017 0.0
C511 C 0.19487 0.25486 0.80142 0.0
C512 C 0.23445 0.27905 0.81225 0.0
C513 C 0.23711 0.32086 0.82466 0.0
C514 C 0.28346 0.35115 0.83857 0.0
C515 C 0.3308 0.3423 0.83673 0.0
H516 H 0.27237 0.23675 0.80703 0.0
C517 C 0.32349 0.29189 0.82748 0.0
C518 C 0.27593 0.26355 0.81396 0.0
H519 H 0.35029 0.28538 0.82773 0.0
H520 H 0.03841 0.15232 0.77666 0.0
H521 H 0.10321 0.2023 0.79334 0.0
H522 H 0.1896 0.18851 0.76382 0.0
H523 H 0.12431 0.13765 0.74719 0.0
H524 H 0.222 0.2266 0.78827 0.0
H525 H 0.16731 0.25971 0.80286 0.0
H526 H 0.2106 0.32777 0.82376 0.0
H527 H 0.28721 0.37848 0.84527 0.0
C528 C 0.95571 0.11418 0.68358 0.0
C529 C 0.9612 0.12646 0.69902 0.0
C530 C 0.94325 0.13509 0.67292 0.0
C531 C 0.93719 0.1692 0.67755 0.0
C532 C 0.94641 0.18381 0.69279 0.0
C533 C 0.9576 0.16216 0.70348 0.0
C534 C 0.91684 0.1871 0.66718 0.0
C535 C 0.88007 0.16023 0.65806 0.0
C536 C 0.8499 0.17458 0.65203 0.0
C537 C 0.86652 0.21712 0.64678 0.0
C538 C 0.8372 0.23154 0.64319 0.0
C539 C 0.79099 0.20403 0.64515 0.0
H540 H 0.78984 0.11292 0.65672 0.0
C541 C 0.77429 0.16068 0.64956 0.0
C542 C 0.80343 0.14597 0.6528 0.0
H543 H 0.73878 0.13852 0.65094 0.0
H544 H 0.95828 0.08669 0.67988 0.0
H545 H 0.93691 0.12366 0.66117 0.0
H546 H 0.94211 0.21016 0.69659 0.0
H547 H 0.962 0.17239 0.71532 0.0
H548 H 0.92656 0.22113 0.66926 0.0
H549 H 0.86742 0.12514 0.65737 0.0
H550 H 0.90219 0.23949 0.64575 0.0
H551 H 0.85083 0.2647 0.63941 0.0
C552 C 0.99833 0.01222 0.03623 0.0
C553 C 0.01422 0.05624 0.0328 0.0
C554 C 0.96429 0.97738 0.02698 0.0
C555 C 0.94522 0.98582 0.01408 0.0
C556 C 0.96108 0.02977 0.01071 0.0
C557 C 0.99498 0.06454 0.01996 0.0
C558 C 0.91039 0.95026 0.00344 0.0
C559 C 0.88398 0.90768 0.00692 0.0
C560 C 0.85026 0.87271 0.99586 0.0
C561 C 0.83732 0.82873 0.99797 0.0
C562 C 0.80704 0.7952 0.9875 0.0
C563 C 0.78859 0.80492 0.9748 0.0
H564 H 0.83836 0.91524 0.98156 0.0
C565 C 0.8006 0.8487 0.9729 0.0
C566 C 0.83075 0.88217 0.98335 0.0
H567 H 0.78692 0.85716 0.96321 0.0
H568 H 0.01256 0.00458 0.04598 0.0
H569 H 0.95408 0.94416 0.02982 0.0
H570 H 0.94728 0.03734 0.00082 0.0
H571 H 0.00637 0.09795 0.01691 0.0
H572 H 0.90676 0.96009 0.99217 0.0
H573 H 0.88772 0.89741 0.0181 0.0
H574 H 0.85147 0.82039 0.00755 0.0
H575 H 0.79859 0.76176 0.98919 0.0
C576 C 0.9936 0.93502 0.36641 0.0
C577 C 0.96622 0.95064 0.3612 0.0
C578 C 0.99403 0.90157 0.35829 0.0
C579 C 0.96714 0.88308 0.34472 0.0
C580 C 0.94005 0.89894 0.33948 0.0
C581 C 0.93978 0.93252 0.34756 0.0
C582 C 0.96402 0.84526 0.33633 0.0
C583 C 0.99712 0.83669 0.33693 0.0
C584 C 0.99291 0.79665 0.3298 0.0
C585 C 0.02353 0.78474 0.33483 0.0
C586 C 0.01952 0.74611 0.32922 0.0
C587 C 0.98509 0.71869 0.31828 0.0
H588 H 0.93543 0.77799 0.31395 0.0
C589 C 0.95501 0.73098 0.31294 0.0
C590 C 0.95906 0.76972 0.31852 0.0
H591 H 0.92789 0.71024 0.3046 0.0
H592 H 0.01419 0.9481 0.37692 0.0
H593 H 0.01433 0.88941 0.36299 0.0
H594 H 0.91872 0.88506 0.32914 0.0
H595 H 0.9182 0.94371 0.34323 0.0
H596 H 0.93284 0.82372 0.32966 0.0
H597 H 0.02838 0.85906 0.34347 0.0
H598 H 0.05003 0.8048 0.34344 0.0
H599 H 0.04284 0.73717 0.33366 0.0
C600 C 0.09888 0.03259 0.6749 0.0
C601 C 0.10048 0.04744 0.68979 0.0
C602 C 0.13774 0.03906 0.66879 0.0
C603 C 0.179 0.06033 0.67751 0.0
C604 C 0.18073 0.07634 0.6922 0.0
C605 C 0.14196 0.06986 0.69831 0.0
C606 C 0.22092 0.06652 0.67179 0.0
C607 C 0.22147 0.04073 0.66073 0.0
C608 C 0.26344 0.04433 0.65623 0.0
C609 C 0.26089 0.00694 0.64983 0.0
C610 C 0.29983 0.0082 0.64629 0.0
C611 C 0.34215 0.04714 0.64888 0.0
H612 H 0.30909 0.1137 0.66278 0.0
C613 C 0.34466 0.08496 0.65483 0.0
C614 C 0.30574 0.08373 0.65837 0.0
H615 H 0.37687 0.1154 0.65694 0.0
H616 H 0.06754 0.01563 0.66797 0.0
H617 H 0.13519 0.02754 0.65724 0.0
H618 H 0.21209 0.09321 0.69913 0.0
H619 H 0.14447 0.08197 0.70979 0.0
H620 H 0.25227 0.09106 0.67784 0.0
H621 H 0.18999 0.01351 0.65562 0.0
H622 H 0.22877 0.97627 0.64796 0.0
H623 H 0.29699 0.97849 0.6418 0.0
C624 C 0.21455 0.1703 0.02668 0.0
C625 C 0.21047 0.18983 0.03981 0.0
C626 C 0.23804 0.19663 0.01477 0.0
C627 C 0.25833 0.24277 0.01605 0.0
C628 C 0.25653 0.26202 0.02961 0.0
C629 C 0.23239 0.23586 0.04126 0.0
C630 C 0.27905 0.27227 0.00339 0.0
C631 C 0.26484 0.25993 0.98878 0.0
C632 C 0.27607 0.29269 0.97694 0.0
C633 C 0.27755 0.28125 0.96191 0.0
C634 C 0.28396 0.3102 0.95041 0.0
C635 C 0.28846 0.35094 0.95372 0.0
H636 H 0.27791 0.34284 0.9916 0.0
C637 C 0.28667 0.36224 0.96876 0.0
C638 C 0.28079 0.3336 0.98025 0.0
H639 H 0.28863 0.39275 0.97161 0.0
H640 H 0.19797 0.13481 0.02537 0.0
H641 H 0.23968 0.18083 0.00457 0.0
H642 H 0.27204 0.29742 0.03094 0.0
H643 H 0.23011 0.25172 0.05135 0.0
H644 H 0.30277 0.30694 0.00638 0.0
H645 H 0.24172 0.22542 0.98547 0.0
H646 H 0.27311 0.24961 0.95902 0.0
H647 H 0.28424 0.30034 0.93885 0.0
C648 C 0.07886 0.21785 0.37197 0.0
C649 C 0.05413 0.17168 0.36999 0.0
C650 C 0.08747 0.24433 0.35957 0.0
C651 C 0.0709 0.2251 0.34491 0.0
C652 C 0.04999 0.17923 0.3428 0.0
C653 C 0.04163 0.1527 0.35522 0.0
C654 C 0.0711 0.25105 0.33186 0.0
C655 C 0.07052 0.28819 0.33357 0.0
C656 C 0.06011 0.30892 0.32105 0.0
C657 C 0.06042 0.35821 0.32594 0.0
C658 C 0.04337 0.38387 0.31209 0.0
C659 C 0.03542 0.36139 0.29238 0.0
H660 H 0.03749 0.25077 0.30005 0.0
C661 C 0.02219 0.30472 0.28783 0.0
C662 C 0.03991 0.28162 0.30249 0.0
H663 H 0.01362 0.29073 0.27638 0.0
H664 H 0.08991 0.23356 0.38319 0.0
H665 H 0.10574 0.27969 0.36161 0.0
H666 H 0.03754 0.16358 0.33161 0.0
H667 H 0.02283 0.11724 0.35328 0.0
H668 H 0.06648 0.23639 0.32064 0.0
H669 H 0.07394 0.3025 0.34477 0.0
H670 H 0.07031 0.37214 0.33739 0.0
H671 H 0.0465 0.41508 0.31459 0.0
loop_
_geom_bond_atom_site_label_1
_geom_bond_atom_site_label_2
_geom_bond_distance
_geom_bond_site_symmetry_2
_ccdc_geom_bond_type
Mg0 O1 2.028 . S
Mg0 O7 1.986 . S
Mg0 O9 2.114 . S
Mg0 O10 2.251 . S
Mg0 O13 2.010 . S
O1 Mg0 2.028 . S
O1 C4 1.250 . S
O2 Mg3 2.028 . S
O2 C4 1.248 . S
Mg3 O2 2.028 . S
Mg3 O8 2.032 . S
Mg3 O10 2.079 . S
C4 O1 1.250 . S
C4 O2 1.248 . S
C5 O6 1.264 . S
C5 O13 1.249 . S
O6 C5 1.264 . S
O7 Mg0 1.986 . S
O7 C11 1.246 . S
O8 Mg3 2.032 . S
O8 C11 1.259 . S
O9 Mg0 2.114 . S
O9 C12 1.252 . S
O10 Mg0 2.251 . S
O10 Mg3 2.079 . S
O10 C12 1.273 . S
C11 O7 1.246 . S
C11 O8 1.259 . S
C12 O9 1.252 . S
C12 O10 1.273 . S
O13 Mg0 2.010 . S
O13 C5 1.249 . S
Mg14 O15 2.028 1_655 S
Mg14 O21 1.986 1_655 S
Mg14 O23 2.114 . S
Mg14 O24 2.251 . S
Mg14 O27 2.010 . S
O15 Mg14 2.028 1_455 S
O15 C18 1.250 . S
O16 Mg17 2.028 . S
O16 C18 1.248 . S
Mg17 O16 2.028 . S
Mg17 O22 2.032 . S
Mg17 O24 2.079 1_455 S
C18 O15 1.250 . S
C18 O16 1.248 . S
C19 O20 1.264 . S
C19 O27 1.249 1_565 S
O20 C19 1.264 . S
O21 Mg14 1.986 1_455 S
O21 C25 1.246 . S
O22 Mg17 2.032 . S
O22 C25 1.259 . S
O23 Mg14 2.114 . S
O23 C26 1.252 . S
O24 Mg14 2.251 . S
O24 Mg17 2.079 1_655 S
O24 C26 1.273 . S
C25 O21 1.246 . S
C25 O22 1.259 . S
C26 O23 1.252 . S
C26 O24 1.273 . S
O27 Mg14 2.010 . S
O27 C19 1.249 1_545 S
Mg28 O29 2.028 . S
Mg28 O35 1.997 . S
Mg28 O37 2.114 1_545 S
Mg28 O38 2.251 1_455 S
Mg28 O41 2.010 . S
O29 Mg28 2.028 . S
O29 C32 1.250 . S
O30 Mg31 2.028 1_455 S
O30 C32 1.248 . S
Mg31 O30 2.028 1_655 S
Mg31 O36 2.032 . S
Mg31 O38 2.079 . S
C32 O29 1.250 . S
C32 O30 1.248 . S
C33 O34 1.264 1_545 S
C33 O41 1.249 . S
O34 C33 1.264 1_565 S
O35 Mg28 1.997 . S
O35 C39 1.229 1_455 S
O36 Mg31 2.032 . S
O36 C39 1.259 . S
O37 Mg28 2.114 1_565 S
O37 C40 1.252 1_455 S
O38 Mg28 2.251 1_655 S
O38 Mg31 2.079 . S
O38 C40 1.273 1_545 S
C39 O35 1.229 1_655 S
C39 O36 1.259 . S
C40 O37 1.252 1_655 S
C40 O38 1.273 1_565 S
O41 Mg28 2.010 . S
O41 C33 1.249 . S
C42 C43 1.560 1_655 S
C42 H103 0.959 . S
C42 H104 0.959 . S
C42 H105 0.960 . S
C43 C42 1.560 1_455 S
C43 O98 1.426 1_455 S
C43 H102 0.980 . S
C44 C45 1.407 . S
C44 C49 1.418 1_455 S
C44 O98 1.334 1_455 S
C45 C44 1.407 . S
C45 C46 1.360 . S
C45 H106 0.929 . S
C46 C45 1.360 . S
C46 C47 1.401 . S
C46 C50 1.527 . S
C47 C46 1.401 . S
C47 C48 1.405 1_455 S
C47 C80 1.587 . S
C48 C47 1.405 1_655 S
C48 C49 1.332 . S
C48 C51 1.496 . S
C49 C44 1.418 1_655 S
C49 C48 1.332 . S
C49 H107 0.929 . S
C50 C46 1.527 . S
C50 H108 0.959 . S
C50 H109 0.961 . S
C50 H110 0.961 . S
C51 C48 1.496 . S
C51 H111 0.960 . S
C51 H112 0.960 . S
C51 H113 0.961 . S
C52 C53 1.517 . S
C52 H115 0.961 . S
C52 H116 0.960 . S
C52 H117 0.959 . S
C53 C52 1.517 . S
C53 O101 1.468 . S
C53 H114 0.980 . S
C54 C55 1.349 . S
C54 C59 1.367 . S
C54 O101 1.408 . S
C55 C54 1.349 . S
C55 C56 1.407 . S
C55 H118 0.930 . S
C56 C55 1.407 . S
C56 C57 1.449 . S
C56 C60 1.535 1_455 S
C57 C56 1.449 . S
C57 C58 1.384 . S
C57 C82 1.553 . S
C58 C57 1.384 . S
C58 C59 1.364 . S
C58 C61 1.450 . S
C59 C54 1.367 . S
C59 C58 1.364 . S
C59 H119 0.931 . S
C60 C56 1.535 1_655 S
C60 H120 0.959 . S
C60 H121 0.961 . S
C60 H122 0.959 . S
C61 C58 1.450 . S
C61 H123 0.960 . S
C61 H124 0.960 . S
C61 H125 0.960 . S
C62 C63 1.309 . S
C62 C67 1.304 . S
C62 O100 1.435 . S
C63 C62 1.309 . S
C63 C64 1.476 . S
C63 H127 0.930 . S
C64 C63 1.476 . S
C64 C65 1.400 . S
C64 C68 1.567 1_455 S
C65 C64 1.400 . S
C65 C66 1.373 . S
C65 C87 1.432 . S
C66 C65 1.373 . S
C66 C67 1.339 . S
C66 C69 1.530 . S
C67 C62 1.304 . S
C67 C66 1.339 . S
C67 H128 0.930 . S
C68 C64 1.567 1_655 S
C68 H129 0.961 . S
C68 H130 0.960 . S
C68 H131 0.958 . S
C69 C66 1.530 . S
C69 H132 0.961 . S
C69 H133 0.960 . S
C69 H134 0.960 . S
C70 C71 1.530 . S
C70 H136 0.961 . S
C70 H137 0.961 1_455 S
C70 H138 0.959 1_455 S
C71 C70 1.530 . S
C71 O99 1.412 . S
C71 H135 0.980 . S
C72 C73 1.288 1_455 S
C72 C77 1.377 . S
C72 O99 1.393 . S
C73 C72 1.288 1_655 S
C73 C74 1.369 1_655 S
C73 H139 0.932 . S
C74 C73 1.369 1_455 S
C74 C75 1.398 . S
C74 C78 1.527 1_455 S
C75 C74 1.398 . S
C75 C76 1.380 . S
C75 C89 1.497 . S
C76 C75 1.380 . S
C76 C77 1.383 . S
C76 C79 1.603 . S
C77 C72 1.377 . S
C77 C76 1.383 . S
C77 H140 0.929 . S
C78 C74 1.527 1_655 S
C78 H141 0.961 . S
C78 H142 0.959 . S
C78 H143 0.959 . S
C79 C76 1.603 . S
C79 H144 0.960 . S
C79 H145 0.962 . S
C79 H146 0.961 . S
C80 C47 1.587 . S
C80 C81 1.360 . S
C80 C93 1.412 . S
C81 C80 1.360 . S
C81 C82 1.365 . S
C81 H147 0.929 . S
C82 C57 1.553 . S
C82 C81 1.365 . S
C82 C83 1.404 . S
C83 C82 1.404 . S
C83 C84 1.395 . S
C83 C94 1.451 . S
C84 C83 1.395 . S
C84 C85 1.322 . S
C84 H148 0.930 . S
C85 C84 1.322 . S
C85 C86 1.459 . S
C85 H149 0.929 . S
C86 C85 1.459 . S
C86 C87 1.445 . S
C86 C95 1.395 . S
C87 C65 1.432 . S
C87 C86 1.445 . S
C87 C88 1.370 . S
C88 C87 1.370 . S
C88 C89 1.438 . S
C88 H150 0.930 . S
C89 C75 1.497 . S
C89 C88 1.438 . S
C89 C90 1.360 . S
C90 C89 1.360 . S
C90 C91 1.401 . S
C90 C95 1.446 . S
C91 C90 1.401 . S
C91 C92 1.347 . S
C91 H151 0.929 . S
C92 C91 1.347 . S
C92 C93 1.455 . S
C92 H152 0.930 . S
C93 C80 1.412 . S
C93 C92 1.455 . S
C93 C94 1.331 . S
C94 C83 1.451 . S
C94 C93 1.331 . S
C94 C95 1.497 . S
C95 C86 1.395 . S
C95 C90 1.446 . S
C95 C94 1.497 . S
C96 C97 1.582 . S
C96 H153 0.962 . S
C96 H154 0.959 . S
C96 H155 0.958 . S
C97 C96 1.582 . S
C97 O100 1.458 . S
C97 H126 0.980 . S
O98 C43 1.426 1_655 S
O98 C44 1.334 1_655 S
O99 C71 1.412 . S
O99 C72 1.393 . S
O100 C62 1.435 . S
O100 C97 1.458 . S
O101 C53 1.468 . S
O101 C54 1.408 . S
H102 C43 0.980 . S
H103 C42 0.959 . S
H104 C42 0.959 . S
H105 C42 0.960 . S
H106 C45 0.929 . S
H107 C49 0.929 . S
H108 C50 0.959 . S
H109 C50 0.961 . S
H110 C50 0.961 . S
H111 C51 0.960 . S
H112 C51 0.960 . S
H113 C51 0.961 . S
H114 C53 0.980 . S
H115 C52 0.961 . S
H116 C52 0.960 . S
H117 C52 0.959 . S
H118 C55 0.930 . S
H119 C59 0.931 . S
H120 C60 0.959 . S
H121 C60 0.961 . S
H122 C60 0.959 . S
H123 C61 0.960 . S
H124 C61 0.960 . S
H125 C61 0.960 . S
H126 C97 0.980 . S
H127 C63 0.930 . S
H128 C67 0.930 . S
H129 C68 0.961 . S
H130 C68 0.960 . S
H131 C68 0.958 . S
H132 C69 0.961 . S
H133 C69 0.960 . S
H134 C69 0.960 . S
H135 C71 0.980 . S
H136 C70 0.961 . S
H137 C70 0.961 1_655 S
H138 C70 0.959 1_655 S
H139 C73 0.932 . S
H140 C77 0.929 . S
H141 C78 0.961 . S
H142 C78 0.959 . S
H143 C78 0.959 . S
H144 C79 0.960 . S
H145 C79 0.962 . S
H146 C79 0.961 . S
H147 C81 0.929 . S
H148 C84 0.930 . S
H149 C85 0.929 . S
H150 C88 0.930 . S
H151 C91 0.929 . S
H152 C92 0.930 . S
H153 C96 0.962 . S
H154 C96 0.959 . S
H155 C96 0.958 . S
C156 C157 1.560 . S
C156 H217 0.959 . S
C156 H218 0.959 . S
C156 H219 0.960 . S
C157 C156 1.560 . S
C157 O212 1.426 . S
C157 H216 0.980 . S
C158 C159 1.407 . S
C158 C163 1.418 . S
C158 O212 1.334 . S
C159 C158 1.407 . S
C159 C160 1.360 . S
C159 H220 0.929 . S
C160 C159 1.360 . S
C160 C161 1.401 . S
C160 C164 1.527 . S
C161 C160 1.401 . S
C161 C162 1.405 . S
C161 C194 1.587 . S
C162 C161 1.405 . S
C162 C163 1.332 . S
C162 C165 1.496 . S
C163 C158 1.418 . S
C163 C162 1.332 . S
C163 H221 0.929 . S
C164 C160 1.527 . S
C164 H222 0.959 . S
C164 H223 0.961 . S
C164 H224 0.961 . S
C165 C162 1.496 . S
C165 H225 0.960 1_545 S
C165 H226 0.960 . S
C165 H227 0.961 . S
C166 C167 1.517 . S
C166 H229 0.961 . S
C166 H230 0.960 . S
C166 H231 0.959 . S
C167 C166 1.517 . S
C167 O215 1.468 . S
C167 H228 0.980 . S
C168 C169 1.349 . S
C168 C173 1.367 . S
C168 O215 1.408 . S
C169 C168 1.349 . S
C169 C170 1.407 . S
C169 H232 0.930 . S
C170 C169 1.407 . S
C170 C171 1.449 . S
C170 C174 1.535 . S
C171 C170 1.449 . S
C171 C172 1.384 . S
C171 C196 1.553 . S
C172 C171 1.384 . S
C172 C173 1.364 . S
C172 C175 1.450 . S
C173 C168 1.367 . S
C173 C172 1.364 . S
C173 H233 0.931 . S
C174 C170 1.535 . S
C174 H234 0.959 . S
C174 H235 0.961 . S
C174 H236 0.959 . S
C175 C172 1.450 . S
C175 H237 0.960 . S
C175 H238 0.960 . S
C175 H239 0.960 . S
C176 C177 1.309 . S
C176 C181 1.304 . S
C176 O214 1.435 . S
C177 C176 1.309 . S
C177 C178 1.476 . S
C177 H241 0.930 . S
C178 C177 1.476 . S
C178 C179 1.400 . S
C178 C182 1.567 . S
C179 C178 1.400 . S
C179 C180 1.373 . S
C179 C201 1.432 . S
C180 C179 1.373 . S
C180 C181 1.339 . S
C180 C183 1.530 . S
C181 C176 1.304 . S
C181 C180 1.339 . S
C181 H242 0.930 . S
C182 C178 1.567 . S
C182 H243 0.961 . S
C182 H244 0.960 . S
C182 H245 0.958 . S
C183 C180 1.530 . S
C183 H246 0.961 . S
C183 H247 0.960 . S
C183 H248 0.960 . S
C184 C185 1.530 . S
C184 H250 0.961 . S
C184 H251 0.961 . S
C184 H252 0.959 . S
C185 C184 1.530 . S
C185 O213 1.412 . S
C185 H249 0.980 . S
C186 C187 1.288 . S
C186 C191 1.377 . S
C186 O213 1.393 . S
C187 C186 1.288 . S
C187 C188 1.369 . S
C187 H253 0.932 . S
C188 C187 1.369 . S
C188 C189 1.398 . S
C188 C192 1.527 . S
C189 C188 1.398 . S
C189 C190 1.380 . S
C189 C203 1.497 . S
C190 C189 1.380 . S
C190 C191 1.383 . S
C190 C193 1.603 . S
C191 C186 1.377 . S
C191 C190 1.383 . S
C191 H254 0.929 . S
C192 C188 1.527 . S
C192 H255 0.961 . S
C192 H256 0.959 . S
C192 H257 0.959 1_545 S
C193 C190 1.603 . S
C193 H258 0.960 . S
C193 H259 0.962 . S
C193 H260 0.961 . S
C194 C161 1.587 . S
C194 C195 1.360 . S
C194 C207 1.412 . S
C195 C194 1.360 . S
C195 C196 1.365 . S
C195 H261 0.929 . S
C196 C171 1.553 . S
C196 C195 1.365 . S
C196 C197 1.404 . S
C197 C196 1.404 . S
C197 C198 1.395 . S
C197 C208 1.451 . S
C198 C197 1.395 . S
C198 C199 1.322 . S
C198 H262 0.930 . S
C199 C198 1.322 . S
C199 C200 1.459 . S
C199 H263 0.929 . S
C200 C199 1.459 . S
C200 C201 1.445 . S
C200 C209 1.395 . S
C201 C179 1.432 . S
C201 C200 1.445 . S
C201 C202 1.370 . S
C202 C201 1.370 . S
C202 C203 1.438 . S
C202 H264 0.930 . S
C203 C189 1.497 . S
C203 C202 1.438 . S
C203 C204 1.360 . S
C204 C203 1.360 . S
C204 C205 1.401 . S
C204 C209 1.446 . S
C205 C204 1.401 . S
C205 C206 1.347 . S
C205 H265 0.929 . S
C206 C205 1.347 . S
C206 C207 1.455 . S
C206 H266 0.930 . S
C207 C194 1.412 . S
C207 C206 1.455 . S
C207 C208 1.331 . S
C208 C197 1.451 . S
C208 C207 1.331 . S
C208 C209 1.497 . S
C209 C200 1.395 . S
C209 C204 1.446 . S
C209 C208 1.497 . S
C210 C211 1.582 . S
C210 H267 0.962 . S
C210 H268 0.959 . S
C210 H269 0.958 . S
C211 C210 1.582 . S
C211 O214 1.458 . S
C211 H240 0.980 . S
O212 C157 1.426 . S
O212 C158 1.334 . S
O213 C185 1.412 . S
O213 C186 1.393 . S
O214 C176 1.435 . S
O214 C211 1.458 . S
O215 C167 1.468 . S
O215 C168 1.408 . S
H216 C157 0.980 . S
H217 C156 0.959 . S
H218 C156 0.959 . S
H219 C156 0.960 . S
H220 C159 0.929 . S
H221 C163 0.929 . S
H222 C164 0.959 . S
H223 C164 0.961 . S
H224 C164 0.961 . S
H225 C165 0.960 1_565 S
H226 C165 0.960 . S
H227 C165 0.961 . S
H228 C167 0.980 . S
H229 C166 0.961 . S
H230 C166 0.960 . S
H231 C166 0.959 . S
H232 C169 0.930 . S
H233 C173 0.931 . S
H234 C174 0.959 . S
H235 C174 0.961 . S
H236 C174 0.959 . S
H237 C175 0.960 . S
H238 C175 0.960 . S
H239 C175 0.960 . S
H240 C211 0.980 . S
H241 C177 0.930 . S
H242 C181 0.930 . S
H243 C182 0.961 . S
H244 C182 0.960 . S
H245 C182 0.958 . S
H246 C183 0.961 . S
H247 C183 0.960 . S
H248 C183 0.960 . S
H249 C185 0.980 . S
H250 C184 0.961 . S
H251 C184 0.961 . S
H252 C184 0.959 . S
H253 C187 0.932 . S
H254 C191 0.929 . S
H255 C192 0.961 . S
H256 C192 0.959 . S
H257 C192 0.959 1_565 S
H258 C193 0.960 . S
H259 C193 0.962 . S
H260 C193 0.961 . S
H261 C195 0.929 . S
H262 C198 0.930 . S
H263 C199 0.929 . S
H264 C202 0.930 . S
H265 C205 0.929 . S
H266 C206 0.930 . S
H267 C210 0.962 . S
H268 C210 0.959 . S
H269 C210 0.958 . S
C270 C271 1.560 . S
C270 H331 0.959 . S
C270 H332 0.959 . S
C270 H333 0.960 . S
C271 C270 1.560 . S
C271 O326 1.426 . S
C271 H330 0.980 . S
C272 C273 1.407 . S
C272 C277 1.418 . S
C272 O326 1.334 . S
C273 C272 1.407 . S
C273 C274 1.360 . S
C273 H334 0.929 . S
C274 C273 1.360 . S
C274 C275 1.401 . S
C274 C278 1.527 . S
C275 C274 1.401 . S
C275 C276 1.405 . S
C275 C308 1.587 . S
C276 C275 1.405 . S
C276 C277 1.332 . S
C276 C279 1.496 . S
C277 C272 1.418 . S
C277 C276 1.332 . S
C277 H335 0.929 . S
C278 C274 1.527 . S
C278 H336 0.959 . S
C278 H337 0.961 . S
C278 H338 0.961 . S
C279 C276 1.496 . S
C279 H339 0.960 . S
C279 H340 0.960 . S
C279 H341 0.961 . S
C280 C281 1.517 . S
C280 H343 0.961 . S
C280 H344 0.960 . S
C280 H345 0.959 . S
C281 C280 1.517 . S
C281 O329 1.468 . S
C281 H342 0.980 . S
C282 C283 1.349 . S
C282 C287 1.367 . S
C282 O329 1.408 . S
C283 C282 1.349 . S
C283 C284 1.407 . S
C283 H346 0.930 . S
C284 C283 1.407 . S
C284 C285 1.449 . S
C284 C288 1.535 . S
C285 C284 1.449 . S
C285 C286 1.384 . S
C285 C310 1.553 . S
C286 C285 1.384 . S
C286 C287 1.364 . S
C286 C289 1.450 . S
C287 C282 1.367 . S
C287 C286 1.364 . S
C287 H347 0.931 . S
C288 C284 1.535 . S
C288 H348 0.959 . S
C288 H349 0.961 . S
C288 H350 0.959 . S
C289 C286 1.450 . S
C289 H351 0.960 . S
C289 H352 0.960 . S
C289 H353 0.960 . S
C290 C291 1.309 . S
C290 C295 1.304 . S
C290 O328 1.435 . S
C291 C290 1.309 . S
C291 C292 1.476 . S
C291 H355 0.930 . S
C292 C291 1.476 . S
C292 C293 1.400 . S
C292 C296 1.567 . S
C293 C292 1.400 . S
C293 C294 1.373 . S
C293 C315 1.432 . S
C294 C293 1.373 . S
C294 C295 1.339 . S
C294 C297 1.530 . S
C295 C290 1.304 . S
C295 C294 1.339 . S
C295 H356 0.930 . S
C296 C292 1.567 . S
C296 H357 0.961 . S
C296 H358 0.960 . S
C296 H359 0.958 . S
C297 C294 1.530 . S
C297 H360 0.961 . S
C297 H361 0.960 . S
C297 H362 0.960 . S
C298 C299 1.530 . S
C298 H364 0.961 . S
C298 H365 0.961 . S
C298 H366 0.959 . S
C299 C298 1.530 . S
C299 O327 1.412 . S
C299 H363 0.980 . S
C300 C301 1.288 . S
C300 C305 1.377 . S
C300 O327 1.393 . S
C301 C300 1.288 . S
C301 C302 1.369 . S
C301 H367 0.932 . S
C302 C301 1.369 . S
C302 C303 1.398 . S
C302 C306 1.527 . S
C303 C302 1.398 . S
C303 C304 1.380 . S
C303 C317 1.497 . S
C304 C303 1.380 . S
C304 C305 1.383 . S
C304 C307 1.603 . S
C305 C300 1.377 . S
C305 C304 1.383 . S
C305 H368 0.929 . S
C306 C302 1.527 . S
C306 H369 0.961 . S
C306 H370 0.959 . S
C306 H371 0.959 . S
C307 C304 1.603 . S
C307 H372 0.960 . S
C307 H373 0.962 . S
C307 H374 0.961 . S
C308 C275 1.587 . S
C308 C309 1.360 . S
C308 C321 1.412 . S
C309 C308 1.360 . S
C309 C310 1.365 . S
C309 H375 0.929 . S
C310 C285 1.553 . S
C310 C309 1.365 . S
C310 C311 1.404 . S
C311 C310 1.404 . S
C311 C312 1.395 . S
C311 C322 1.451 . S
C312 C311 1.395 . S
C312 C313 1.322 . S
C312 H376 0.930 . S
C313 C312 1.322 . S
C313 C314 1.459 . S
C313 H377 0.929 . S
C314 C313 1.459 . S
C314 C315 1.445 . S
C314 C323 1.395 . S
C315 C293 1.432 . S
C315 C314 1.445 . S
C315 C316 1.370 . S
C316 C315 1.370 . S
C316 C317 1.438 . S
C316 H378 0.930 . S
C317 C303 1.497 . S
C317 C316 1.438 . S
C317 C318 1.360 . S
C318 C317 1.360 . S
C318 C319 1.401 . S
C318 C323 1.446 . S
C319 C318 1.401 . S
C319 C320 1.347 . S
C319 H379 0.929 . S
C320 C319 1.347 . S
C320 C321 1.455 . S
C320 H380 0.930 . S
C321 C308 1.412 . S
C321 C320 1.455 . S
C321 C322 1.331 . S
C322 C311 1.451 . S
C322 C321 1.331 . S
C322 C323 1.497 . S
C323 C314 1.395 . S
C323 C318 1.446 . S
C323 C322 1.497 . S
C324 C325 1.582 . S
C324 H381 0.962 . S
C324 H382 0.959 . S
C324 H383 0.958 . S
C325 C324 1.582 . S
C325 O328 1.458 . S
C325 H354 0.980 . S
O326 C271 1.426 . S
O326 C272 1.334 . S
O327 C299 1.412 . S
O327 C300 1.393 . S
O328 C290 1.435 . S
O328 C325 1.458 . S
O329 C281 1.468 . S
O329 C282 1.408 . S
H330 C271 0.980 . S
H331 C270 0.959 . S
H332 C270 0.959 . S
H333 C270 0.960 . S
H334 C273 0.929 . S
H335 C277 0.929 . S
H336 C278 0.959 . S
H337 C278 0.961 . S
H338 C278 0.961 . S
H339 C279 0.960 . S
H340 C279 0.960 . S
H341 C279 0.961 . S
H342 C281 0.980 . S
H343 C280 0.961 . S
H344 C280 0.960 . S
H345 C280 0.959 . S
H346 C283 0.930 . S
H347 C287 0.931 . S
H348 C288 0.959 . S
H349 C288 0.961 . S
H350 C288 0.959 . S
H351 C289 0.960 . S
H352 C289 0.960 . S
H353 C289 0.960 . S
H354 C325 0.980 . S
H355 C291 0.930 . S
H356 C295 0.930 . S
H357 C296 0.961 . S
H358 C296 0.960 . S
H359 C296 0.958 . S
H360 C297 0.961 . S
H361 C297 0.960 . S
H362 C297 0.960 . S
H363 C299 0.980 . S
H364 C298 0.961 . S
H365 C298 0.961 . S
H366 C298 0.959 . S
H367 C301 0.932 . S
H368 C305 0.929 . S
H369 C306 0.961 . S
H370 C306 0.959 . S
H371 C306 0.959 . S
H372 C307 0.960 . S
H373 C307 0.962 . S
H374 C307 0.961 . S
H375 C309 0.929 . S
H376 C312 0.930 . S
H377 C313 0.929 . S
H378 C316 0.930 . S
H379 C319 0.929 . S
H380 C320 0.930 . S
H381 C324 0.962 . S
H382 C324 0.959 . S
H383 C324 0.958 . S
C384 C385 1.386 . S
C384 C386 1.383 . S
C384 H400 0.951 . S
C385 C384 1.386 . S
C385 C389 1.383 . S
C386 C384 1.383 . S
C386 C387 1.402 . S
C386 H401 0.951 . S
C387 C386 1.402 . S
C387 C388 1.375 . S
C387 C390 1.481 . S
C388 C387 1.375 . S
C388 C389 1.367 . S
C388 H402 0.951 . S
C389 C385 1.383 . S
C389 C388 1.367 . S
C389 H403 0.950 . S
C390 C387 1.481 . S
C390 C391 1.297 . S
C390 H404 0.950 . S
C391 C390 1.297 . S
C391 C392 1.479 . S
C391 H405 0.950 . S
C392 C391 1.479 . S
C392 C393 1.375 . S
C392 C398 1.404 . S
C393 C392 1.375 . S
C393 C394 1.369 . S
C393 H406 0.950 . S
C394 C393 1.369 . S
C394 C395 1.392 . S
C394 H407 0.951 . S
C395 C394 1.392 . S
C395 C397 1.384 . S
H396 C398 0.949 . S
C397 C395 1.384 . S
C397 C398 1.385 . S
C397 H399 0.950 . S
C398 C392 1.404 . S
C398 H396 0.949 . S
C398 C397 1.385 . S
H399 C397 0.950 . S
H400 C384 0.951 . S
H401 C386 0.951 . S
H402 C388 0.951 . S
H403 C389 0.950 . S
H404 C390 0.950 . S
H405 C391 0.950 . S
H406 C393 0.950 . S
H407 C394 0.951 . S
C408 C409 1.386 . S
C408 C410 1.383 . S
C408 H424 0.951 1_545 S
C409 C408 1.386 . S
C409 C413 1.383 . S
C410 C408 1.383 . S
C410 C411 1.402 . S
C410 H425 0.958 . S
C411 C410 1.402 . S
C411 C412 1.375 . S
C411 C414 1.481 . S
C412 C411 1.375 . S
C412 C413 1.367 . S
C412 H426 0.951 . S
C413 C409 1.383 . S
C413 C412 1.367 . S
C413 H427 0.950 . S
C414 C411 1.481 . S
C414 C415 1.297 . S
C414 H428 0.950 . S
C415 C414 1.297 . S
C415 C416 1.479 . S
C415 H429 0.950 . S
C416 C415 1.479 . S
C416 C417 1.375 . S
C416 C422 1.404 . S
C417 C416 1.375 . S
C417 C418 1.369 . S
C417 H430 0.968 . S
C418 C417 1.369 . S
C418 C419 1.392 . S
C418 H431 0.951 . S
C419 C418 1.392 . S
C419 C421 1.384 . S
H420 C422 0.949 . S
C421 C419 1.384 . S
C421 C422 1.385 . S
C421 H423 0.950 . S
C422 C416 1.404 . S
C422 H420 0.949 . S
C422 C421 1.385 . S
H423 C421 0.950 . S
H424 C408 0.951 1_565 S
H425 C410 0.958 . S
H426 C412 0.951 . S
H427 C413 0.950 . S
H428 C414 0.950 . S
H429 C415 0.950 . S
H430 C417 0.968 . S
H431 C418 0.951 . S
C432 C433 1.386 . S
C432 C434 1.383 . S
C432 H448 0.951 . S
C433 C432 1.386 . S
C433 C437 1.383 . S
C434 C432 1.383 . S
C434 C435 1.402 . S
C434 H449 0.951 . S
C435 C434 1.402 . S
C435 C436 1.375 . S
C435 C438 1.481 . S
C436 C435 1.375 . S
C436 C437 1.367 . S
C436 H450 0.951 . S
C437 C433 1.383 . S
C437 C436 1.367 . S
C437 H451 0.950 . S
C438 C435 1.481 . S
C438 C439 1.297 . S
C438 H452 0.950 . S
C439 C438 1.297 . S
C439 C440 1.479 . S
C439 H453 0.950 . S
C440 C439 1.479 . S
C440 C441 1.375 . S
C440 C446 1.404 . S
C441 C440 1.375 . S
C441 C442 1.369 . S
C441 H454 0.950 . S
C442 C441 1.369 . S
C442 C443 1.392 . S
C442 H455 0.951 . S
C443 C442 1.392 . S
C443 C445 1.384 . S
H444 C446 0.949 . S
C445 C443 1.384 . S
C445 C446 1.385 . S
C445 H447 0.950 . S
C446 C440 1.404 . S
C446 H444 0.949 . S
C446 C445 1.385 . S
H447 C445 0.950 . S
H448 C432 0.951 . S
H449 C434 0.951 . S
H450 C436 0.951 . S
H451 C437 0.950 . S
H452 C438 0.950 . S
H453 C439 0.950 . S
H454 C441 0.950 . S
H455 C442 0.951 . S
C456 C457 1.386 . S
C456 C458 1.383 . S
C456 H472 0.951 . S
C457 C456 1.386 . S
C457 C461 1.383 . S
C458 C456 1.383 . S
C458 C459 1.402 . S
C458 H473 0.951 . S
C459 C458 1.402 . S
C459 C460 1.375 . S
C459 C462 1.481 . S
C460 C459 1.375 . S
C460 C461 1.367 . S
C460 H474 0.951 . S
C461 C457 1.383 . S
C461 C460 1.367 . S
C461 H475 0.950 . S
C462 C459 1.481 . S
C462 C463 1.297 . S
C462 H476 0.950 . S
C463 C462 1.297 . S
C463 C464 1.479 . S
C463 H477 0.950 . S
C464 C463 1.479 . S
C464 C465 1.375 . S
C464 C470 1.404 . S
C465 C464 1.375 . S
C465 C466 1.369 . S
C465 H478 0.950 . S
C466 C465 1.369 . S
C466 C467 1.392 . S
C466 H479 0.951 . S
C467 C466 1.392 . S
C467 C469 1.384 . S
H468 C470 0.949 . S
C469 C467 1.384 . S
C469 C470 1.385 . S
C469 H471 0.950 . S
C470 C464 1.404 . S
C470 H468 0.949 . S
C470 C469 1.385 . S
H471 C469 0.950 . S
H472 C456 0.951 . S
H473 C458 0.951 . S
H474 C460 0.951 . S
H475 C461 0.950 . S
H476 C462 0.950 . S
H477 C463 0.950 . S
H478 C465 0.950 . S
H479 C466 0.951 . S
C480 C481 1.386 . S
C480 C482 1.383 . S
C480 H496 0.951 . S
C481 C480 1.386 . S
C481 C485 1.383 . S
C482 C480 1.383 . S
C482 C483 1.402 . S
C482 H497 0.951 . S
C483 C482 1.402 . S
C483 C484 1.375 . S
C483 C486 1.481 . S
C484 C483 1.375 . S
C484 C485 1.367 . S
C484 H498 0.951 . S
C485 C481 1.383 . S
C485 C484 1.367 . S
C485 H499 0.950 . S
C486 C483 1.481 . S
C486 C487 1.297 . S
C486 H500 0.950 . S
C487 C486 1.297 . S
C487 C488 1.479 . S
C487 H501 0.950 . S
C488 C487 1.479 . S
C488 C489 1.375 . S
C488 C494 1.404 . S
C489 C488 1.375 . S
C489 C490 1.369 . S
C489 H502 0.950 . S
C490 C489 1.369 . S
C490 C491 1.392 . S
C490 H503 0.951 . S
C491 C490 1.392 . S
C491 C493 1.384 . S
H492 C494 0.949 . S
C493 C491 1.384 . S
C493 C494 1.385 . S
C493 H495 0.950 . S
C494 C488 1.404 . S
C494 H492 0.949 . S
C494 C493 1.385 . S
H495 C493 0.950 . S
H496 C480 0.951 . S
H497 C482 0.951 . S
H498 C484 0.951 . S
H499 C485 0.950 . S
H500 C486 0.950 . S
H501 C487 0.950 . S
H502 C489 0.950 . S
H503 C490 0.951 . S
C504 C505 1.386 . S
C504 C506 1.383 . S
C504 H520 0.951 . S
C505 C504 1.386 . S
C505 C509 1.383 . S
C506 C504 1.383 . S
C506 C507 1.402 . S
C506 H521 0.951 . S
C507 C506 1.402 . S
C507 C508 1.375 . S
C507 C510 1.481 . S
C508 C507 1.375 . S
C508 C509 1.367 . S
C508 H522 0.951 . S
C509 C505 1.383 . S
C509 C508 1.367 . S
C509 H523 0.950 . S
C510 C507 1.481 . S
C510 C511 1.297 . S
C510 H524 0.950 . S
C511 C510 1.297 . S
C511 C512 1.479 . S
C511 H525 0.950 . S
C512 C511 1.479 . S
C512 C513 1.375 . S
C512 C518 1.404 . S
C513 C512 1.375 . S
C513 C514 1.369 . S
C513 H526 0.950 . S
C514 C513 1.369 . S
C514 C515 1.392 . S
C514 H527 0.951 . S
C515 C514 1.392 . S
C515 C517 1.384 . S
H516 C518 0.949 . S
C517 C515 1.384 . S
C517 C518 1.385 . S
C517 H519 0.950 . S
C518 C512 1.404 . S
C518 H516 0.949 . S
C518 C517 1.385 . S
H519 C517 0.950 . S
H520 C504 0.951 . S
H521 C506 0.951 . S
H522 C508 0.951 . S
H523 C509 0.950 . S
H524 C510 0.950 . S
H525 C511 0.950 . S
H526 C513 0.950 . S
H527 C514 0.951 . S
C528 C529 1.386 . S
C528 C530 1.383 . S
C528 H544 0.951 . S
C529 C528 1.386 . S
C529 C533 1.383 . S
C530 C528 1.383 . S
C530 C531 1.402 . S
C530 H545 0.951 . S
C531 C530 1.402 . S
C531 C532 1.375 . S
C531 C534 1.481 . S
C532 C531 1.375 . S
C532 C533 1.367 . S
C532 H546 0.951 . S
C533 C529 1.383 . S
C533 C532 1.367 . S
C533 H547 0.950 . S
C534 C531 1.481 . S
C534 C535 1.297 . S
C534 H548 0.950 . S
C535 C534 1.297 . S
C535 C536 1.479 . S
C535 H549 0.950 . S
C536 C535 1.479 . S
C536 C537 1.375 . S
C536 C542 1.404 . S
C537 C536 1.375 . S
C537 C538 1.369 . S
C537 H550 0.950 . S
C538 C537 1.369 . S
C538 C539 1.392 . S
C538 H551 0.951 . S
C539 C538 1.392 . S
C539 C541 1.384 . S
H540 C542 0.949 . S
C541 C539 1.384 . S
C541 C542 1.385 . S
C541 H543 0.950 . S
C542 C536 1.404 . S
C542 H540 0.949 . S
C542 C541 1.385 . S
H543 C541 0.950 . S
H544 C528 0.951 . S
H545 C530 0.951 . S
H546 C532 0.951 . S
H547 C533 0.950 . S
H548 C534 0.950 . S
H549 C535 0.950 . S
H550 C537 0.950 . S
H551 C538 0.951 . S
C552 C553 1.386 1_565 S
C552 C554 1.383 . S
C552 H568 0.951 . S
C553 C552 1.386 1_545 S
C553 C557 1.383 . S
C554 C552 1.383 . S
C554 C555 1.402 . S
C554 H569 0.951 . S
C555 C554 1.402 . S
C555 C556 1.375 . S
C555 C558 1.481 . S
C556 C555 1.375 . S
C556 C557 1.367 1_565 S
C556 H570 0.945 1_565 S
C557 C553 1.383 . S
C557 C556 1.367 1_545 S
C557 H571 0.950 1_655 S
C558 C555 1.481 . S
C558 C559 1.297 . S
C558 H572 0.950 1_554 S
C559 C558 1.297 . S
C559 C560 1.479 1_554 S
C559 H573 0.950 . S
C560 C559 1.479 1_556 S
C560 C561 1.375 1_556 S
C560 C566 1.404 . S
C561 C560 1.375 1_554 S
C561 C562 1.369 1_554 S
C561 H574 0.950 . S
C562 C561 1.369 1_556 S
C562 C563 1.392 . S
C562 H575 0.951 . S
C563 C562 1.392 . S
C563 C565 1.384 . S
H564 C566 0.949 . S
C565 C563 1.384 . S
C565 C566 1.385 . S
C565 H567 0.950 . S
C566 C560 1.404 . S
C566 H564 0.949 . S
C566 C565 1.385 . S
H567 C565 0.950 . S
H568 C552 0.951 . S
H569 C554 0.951 . S
H570 C556 0.945 1_545 S
H571 C557 0.950 1_455 S
H572 C558 0.950 1_556 S
H573 C559 0.950 . S
H574 C561 0.950 . S
H575 C562 0.951 . S
C576 C577 1.386 1_455 S
C576 C578 1.383 . S
C576 H592 0.951 . S
C577 C576 1.386 1_655 S
C577 C581 1.383 . S
C578 C576 1.383 . S
C578 C579 1.402 1_455 S
C578 H593 0.951 . S
C579 C578 1.402 1_655 S
C579 C580 1.375 . S
C579 C582 1.481 . S
C580 C579 1.375 . S
C580 C581 1.367 . S
C580 H594 0.951 . S
C581 C577 1.383 . S
C581 C580 1.367 . S
C581 H595 0.950 . S
C582 C579 1.481 . S
C582 C583 1.297 1_655 S
C582 H596 0.950 . S
C583 C582 1.297 1_455 S
C583 C584 1.479 . S
C583 H597 0.950 . S
C584 C583 1.479 . S
C584 C585 1.375 . S
C584 C590 1.404 1_455 S
C585 C584 1.375 . S
C585 C586 1.369 . S
C585 H598 0.950 . S
C586 C585 1.369 . S
C586 C587 1.392 . S
C586 H599 0.951 . S
C587 C586 1.392 . S
C587 C589 1.384 1_455 S
H588 C590 0.949 . S
C589 C587 1.384 1_655 S
C589 C590 1.385 . S
C589 H591 0.950 . S
C590 C584 1.404 1_655 S
C590 H588 0.949 . S
C590 C589 1.385 . S
H591 C589 0.950 . S
H592 C576 0.951 . S
H593 C578 0.951 . S
H594 C580 0.951 . S
H595 C581 0.950 . S
H596 C582 0.950 . S
H597 C583 0.950 . S
H598 C585 0.950 . S
H599 C586 0.951 . S
C600 C601 1.386 . S
C600 C602 1.383 . S
C600 H616 0.951 1_545 S
C601 C600 1.386 . S
C601 C605 1.383 . S
C602 C600 1.383 . S
C602 C603 1.402 . S
C602 H617 0.951 . S
C603 C602 1.402 . S
C603 C604 1.375 . S
C603 C606 1.481 . S
C604 C603 1.375 . S
C604 C605 1.367 . S
C604 H618 0.951 . S
C605 C601 1.383 . S
C605 C604 1.367 . S
C605 H619 0.950 . S
C606 C603 1.481 . S
C606 C607 1.297 . S
C606 H620 0.950 . S
C607 C606 1.297 . S
C607 C608 1.479 . S
C607 H621 0.950 . S
C608 C607 1.479 . S
C608 C609 1.375 . S
C608 C614 1.404 . S
C609 C608 1.375 . S
C609 C610 1.369 . S
C609 H622 0.950 . S
C610 C609 1.369 . S
C610 C611 1.392 . S
C610 H623 0.951 . S
C611 C610 1.392 . S
C611 C613 1.384 . S
H612 C614 0.949 . S
C613 C611 1.384 . S
C613 C614 1.385 . S
C613 H615 0.950 . S
C614 C608 1.404 . S
C614 H612 0.949 . S
C614 C613 1.385 . S
H615 C613 0.950 . S
H616 C600 0.951 1_565 S
H617 C602 0.951 . S
H618 C604 0.951 . S
H619 C605 0.950 . S
H620 C606 0.950 . S
H621 C607 0.950 . S
H622 C609 0.950 . S
H623 C610 0.951 . S
C624 C625 1.386 . S
C624 C626 1.383 . S
C624 H640 0.951 . S
C625 C624 1.386 . S
C625 C629 1.383 . S
C626 C624 1.383 . S
C626 C627 1.402 . S
C626 H641 0.951 . S
C627 C626 1.402 . S
C627 C628 1.375 . S
C627 C630 1.481 . S
C628 C627 1.375 . S
C628 C629 1.367 . S
C628 H642 0.951 . S
C629 C625 1.383 . S
C629 C628 1.367 . S
C629 H643 0.950 . S
C630 C627 1.481 . S
C630 C631 1.297 1_554 S
C630 H644 0.950 . S
C631 C630 1.297 1_556 S
C631 C632 1.479 . S
C631 H645 0.950 . S
C632 C631 1.479 . S
C632 C633 1.375 . S
C632 C638 1.404 . S
C633 C632 1.375 . S
C633 C634 1.369 . S
C633 H646 0.950 . S
C634 C633 1.369 . S
C634 C635 1.392 . S
C634 H647 0.951 . S
C635 C634 1.392 . S
C635 C637 1.384 . S
H636 C638 0.949 1_554 S
C637 C635 1.384 . S
C637 C638 1.385 . S
C637 H639 0.950 . S
C638 C632 1.404 . S
C638 H636 0.949 1_556 S
C638 C637 1.385 . S
H639 C637 0.950 . S
H640 C624 0.951 . S
H641 C626 0.951 . S
H642 C628 0.951 . S
H643 C629 0.950 . S
H644 C630 0.950 . S
H645 C631 0.950 . S
H646 C633 0.950 . S
H647 C634 0.951 . S
C648 C649 1.386 . S
C648 C650 1.383 . S
C648 H664 0.951 . S
C649 C648 1.386 . S
C649 C653 1.383 . S
C650 C648 1.383 . S
C650 C651 1.402 . S
C650 H665 0.951 . S
C651 C650 1.402 . S
C651 C652 1.375 . S
C651 C654 1.481 . S
C652 C651 1.375 . S
C652 C653 1.367 . S
C652 H666 0.958 . S
C653 C649 1.383 . S
C653 C652 1.367 . S
C653 H667 0.950 . S
C654 C651 1.481 . S
C654 C655 1.297 . S
C654 H668 0.950 . S
C655 C654 1.297 . S
C655 C656 1.479 . S
C655 H669 0.950 . S
C656 C655 1.479 . S
C656 C657 1.375 . S
C656 C662 1.404 . S
C657 C656 1.375 . S
C657 C658 1.369 . S
C657 H670 0.950 . S
C658 C657 1.369 . S
C658 C659 1.392 . S
C658 H671 0.951 . S
C659 C658 1.392 . S
C659 C661 1.384 . S
H660 C662 0.949 . S
C661 C659 1.384 . S
C661 C662 1.385 . S
C661 H663 0.950 . S
C662 C656 1.404 . S
C662 H660 0.949 . S
C662 C661 1.385 . S
H663 C661 0.950 . S
H664 C648 0.951 . S
H665 C650 0.951 . S
H666 C652 0.958 . S
H667 C653 0.950 . S
H668 C654 0.950 . S
H669 C655 0.950 . S
H670 C657 0.950 . S
H671 C658 0.951 . S
C395 C97 0.969 . S
C385 C11 1.411 . S
C409 C26 1.559 . S
C419 C211 1.154 . S
C433 C40 1.182 . S
C443 C271 1.083 . S
C457 C5 1.087 1_565 S
C467 C71 1.023 . S
C491 C185 1.246 . S
C481 C18 1.411 . S
C505 C32 1.338 . S
C515 C281 0.949 . S
C539 C167 0.923 . S
C529 C39 1.200 . S
C553 C4 1.273 1_655 S
C563 C299 1.164 . S
C587 C43 0.787 . S
C577 C19 0.992 . S
C611 C157 0.991 . S
C601 C33 0.985 . S
C635 C325 0.993 . S
C625 C12 1.437 . S
C649 C25 1.356 . S
C659 C53 0.820 . S
