# Generated by pormake.
# Topology ctn, (3,4)-cn, num edge types: 1
# Building blocks:
#     Node 0, Type 0, BuildingBlock: BETDIP_clean_linker_0, # of connection points: 3
#     Node 1, Type 0, BuildingBlock: BETDIP_clean_linker_0, # of connection points: 3
#     Node 2, Type 0, BuildingBlock: BETDIP_clean_linker_0, # of connection points: 3
#     Node 3, Type 0, BuildingBlock: BETDIP_clean_linker_0, # of connection points: 3
#     Node 4, Type 0, BuildingBlock: BETDIP_clean_linker_0, # of connection points: 3
#     Node 5, Type 0, BuildingBlock: BETDIP_clean_linker_0, # of connection points: 3
#     Node 6, Type 0, BuildingBlock: BETDIP_clean_linker_0, # of connection points: 3
#     Node 7, Type 0, BuildingBlock: BETDIP_clean_linker_0, # of connection points: 3
#     Node 8, Type 0, BuildingBlock: BETDIP_clean_linker_0, # of connection points: 3
#     Node 9, Type 0, BuildingBlock: BETDIP_clean_linker_0, # of connection points: 3
#     Node 10, Type 0, BuildingBlock: BETDIP_clean_linker_0, # of connection points: 3
#     Node 11, Type 0, BuildingBlock: BETDIP_clean_linker_0, # of connection points: 3
#     Node 12, Type 0, BuildingBlock: BETDIP_clean_linker_0, # of connection points: 3
#     Node 13, Type 0, BuildingBlock: BETDIP_clean_linker_0, # of connection points: 3
#     Node 14, Type 0, BuildingBlock: BETDIP_clean_linker_0, # of connection points: 3
#     Node 15, Type 0, BuildingBlock: BETDIP_clean_linker_0, # of connection points: 3
#     Node 16, Type 1, BuildingBlock: KUFVIS_clean_sbu_0, # of connection points: 4
#     Node 17, Type 1, BuildingBlock: KUFVIS_clean_sbu_0, # of connection points: 4
#     Node 18, Type 1, BuildingBlock: KUFVIS_clean_sbu_0, # of connection points: 4
#     Node 19, Type 1, BuildingBlock: KUFVIS_clean_sbu_0, # of connection points: 4
#     Node 20, Type 1, BuildingBlock: KUFVIS_clean_sbu_0, # of connection points: 4
#     Node 21, Type 1, BuildingBlock: KUFVIS_clean_sbu_0, # of connection points: 4
#     Node 22, Type 1, BuildingBlock: KUFVIS_clean_sbu_0, # of connection points: 4
#     Node 23, Type 1, BuildingBlock: KUFVIS_clean_sbu_0, # of connection points: 4
#     Node 24, Type 1, BuildingBlock: KUFVIS_clean_sbu_0, # of connection points: 4
#     Node 25, Type 1, BuildingBlock: KUFVIS_clean_sbu_0, # of connection points: 4
#     Node 26, Type 1, BuildingBlock: KUFVIS_clean_sbu_0, # of connection points: 4
#     Node 27, Type 1, BuildingBlock: KUFVIS_clean_sbu_0, # of connection points: 4
#     Edge 28, Type (0, 1), BuildingBlock: ZUJKAS_clean_linker_0, # of connection points: 2
#     Edge 29, Type (0, 1), BuildingBlock: ZUJKAS_clean_linker_0, # of connection points: 2
#     Edge 30, Type (0, 1), BuildingBlock: ZUJKAS_clean_linker_0, # of connection points: 2
#     Edge 31, Type (0, 1), BuildingBlock: ZUJKAS_clean_linker_0, # of connection points: 2
#     Edge 32, Type (0, 1), BuildingBlock: ZUJKAS_clean_linker_0, # of connection points: 2
#     Edge 33, Type (0, 1), BuildingBlock: ZUJKAS_clean_linker_0, # of connection points: 2
#     Edge 34, Type (0, 1), BuildingBlock: ZUJKAS_clean_linker_0, # of connection points: 2
#     Edge 35, Type (0, 1), BuildingBlock: ZUJKAS_clean_linker_0, # of connection points: 2
#     Edge 36, Type (0, 1), BuildingBlock: ZUJKAS_clean_linker_0, # of connection points: 2
#     Edge 37, Type (0, 1), BuildingBlock: ZUJKAS_clean_linker_0, # of connection points: 2
#     Edge 38, Type (0, 1), BuildingBlock: ZUJKAS_clean_linker_0, # of connection points: 2
#     Edge 39, Type (0, 1), BuildingBlock: ZUJKAS_clean_linker_0, # of connection points: 2
#     Edge 40, Type (0, 1), BuildingBlock: ZUJKAS_clean_linker_0, # of connection points: 2
#     Edge 41, Type (0, 1), BuildingBlock: ZUJKAS_clean_linker_0, # of connection points: 2
#     Edge 42, Type (0, 1), BuildingBlock: ZUJKAS_clean_linker_0, # of connection points: 2
#     Edge 43, Type (0, 1), BuildingBlock: ZUJKAS_clean_linker_0, # of connection points: 2
#     Edge 44, Type (0, 1), BuildingBlock: ZUJKAS_clean_linker_0, # of connection points: 2
#     Edge 45, Type (0, 1), BuildingBlock: ZUJKAS_clean_linker_0, # of connection points: 2
#     Edge 46, Type (0, 1), BuildingBlock: ZUJKAS_clean_linker_0, # of connection points: 2
#     Edge 47, Type (0, 1), BuildingBlock: ZUJKAS_clean_linker_0, # of connection points: 2
#     Edge 48, Type (0, 1), BuildingBlock: ZUJKAS_clean_linker_0, # of connection points: 2
#     Edge 49, Type (0, 1), BuildingBlock: ZUJKAS_clean_linker_0, # of connection points: 2
#     Edge 50, Type (0, 1), BuildingBlock: ZUJKAS_clean_linker_0, # of connection points: 2
#     Edge 51, Type (0, 1), BuildingBlock: ZUJKAS_clean_linker_0, # of connection points: 2
#     Edge 52, Type (0, 1), BuildingBlock: ZUJKAS_clean_linker_0, # of connection points: 2
#     Edge 53, Type (0, 1), BuildingBlock: ZUJKAS_clean_linker_0, # of connection points: 2
#     Edge 54, Type (0, 1), BuildingBlock: ZUJKAS_clean_linker_0, # of connection points: 2
#     Edge 55, Type (0, 1), BuildingBlock: ZUJKAS_clean_linker_0, # of connection points: 2
#     Edge 56, Type (0, 1), BuildingBlock: ZUJKAS_clean_linker_0, # of connection points: 2
#     Edge 57, Type (0, 1), BuildingBlock: ZUJKAS_clean_linker_0, # of connection points: 2
#     Edge 58, Type (0, 1), BuildingBlock: ZUJKAS_clean_linker_0, # of connection points: 2
#     Edge 59, Type (0, 1), BuildingBlock: ZUJKAS_clean_linker_0, # of connection points: 2
#     Edge 60, Type (0, 1), BuildingBlock: ZUJKAS_clean_linker_0, # of connection points: 2
#     Edge 61, Type (0, 1), BuildingBlock: ZUJKAS_clean_linker_0, # of connection points: 2
#     Edge 62, Type (0, 1), BuildingBlock: ZUJKAS_clean_linker_0, # of connection points: 2
#     Edge 63, Type (0, 1), BuildingBlock: ZUJKAS_clean_linker_0, # of connection points: 2
#     Edge 64, Type (0, 1), BuildingBlock: ZUJKAS_clean_linker_0, # of connection points: 2
#     Edge 65, Type (0, 1), BuildingBlock: ZUJKAS_clean_linker_0, # of connection points: 2
#     Edge 66, Type (0, 1), BuildingBlock: ZUJKAS_clean_linker_0, # of connection points: 2
#     Edge 67, Type (0, 1), BuildingBlock: ZUJKAS_clean_linker_0, # of connection points: 2
#     Edge 68, Type (0, 1), BuildingBlock: ZUJKAS_clean_linker_0, # of connection points: 2
#     Edge 69, Type (0, 1), BuildingBlock: ZUJKAS_clean_linker_0, # of connection points: 2
#     Edge 70, Type (0, 1), BuildingBlock: ZUJKAS_clean_linker_0, # of connection points: 2
#     Edge 71, Type (0, 1), BuildingBlock: ZUJKAS_clean_linker_0, # of connection points: 2
#     Edge 72, Type (0, 1), BuildingBlock: ZUJKAS_clean_linker_0, # of connection points: 2
#     Edge 73, Type (0, 1), BuildingBlock: ZUJKAS_clean_linker_0, # of connection points: 2
#     Edge 74, Type (0, 1), BuildingBlock: ZUJKAS_clean_linker_0, # of connection points: 2
#     Edge 75, Type (0, 1), BuildingBlock: ZUJKAS_clean_linker_0, # of connection points: 2
# Relax obj value: 0.077
# Max RMSD: 0.189
# Mean RMSD: 0.123
data_MOF--net-ctn--node1-KUFVIS_clean_sbu_0--node2-BETDIP_clean_linker_0--edge1-ZUJKAS_clean_linker_0
_symmetry_space_group_name_H-M    P1
_symmetry_Int_Tables_number       1
_symmetry_cell_setting            triclinic
loop_
_symmetry_equiv_pos_as_xyz
'x, y, z'
_cell_length_a     67.576272
_cell_length_b     67.677254
_cell_length_c     74.404285
_cell_angle_alpha  94.30232
_cell_angle_beta   93.928335
_cell_angle_gamma 94.272323
loop_
_atom_site_label
_atom_site_type_symbol
_atom_site_fract_x
_atom_site_fract_y
_atom_site_fract_z
_atom_type_partial_charge
H0 H 0.04142 0.06497 0.06685 0.0
H1 H 0.0846 0.04462 0.03163 0.0
H2 H 0.07383 0.01463 0.07933 0.0
H3 H 0.06548 0.05747 0.01058 0.0
C4 C 0.06011 0.07058 0.01734 0.0
C5 C 0.05226 0.0545 0.06356 0.0
C6 C 0.05656 0.03973 0.07526 0.0
C7 C 0.06178 0.05598 0.04754 0.0
C8 C 0.07635 0.0429 0.04344 0.0
C9 C 0.08087 0.0279 0.05482 0.0
C10 C 0.07087 0.02644 0.07072 0.0
N11 N 0.05657 0.07095 0.036 0.0
H12 H 0.305 0.68358 0.17773 0.0
H13 H 0.36323 0.71125 0.19528 0.0
H14 H 0.33717 0.66531 0.22488 0.0
H15 H 0.35233 0.73665 0.18137 0.0
C16 C 0.34211 0.73064 0.17006 0.0
C17 C 0.31819 0.68468 0.18701 0.0
C18 C 0.31914 0.67252 0.20152 0.0
C19 C 0.33373 0.69902 0.18483 0.0
C20 C 0.35085 0.70063 0.19693 0.0
C21 C 0.35197 0.68866 0.21151 0.0
C22 C 0.33612 0.67469 0.21372 0.0
N23 N 0.33141 0.7118 0.17061 0.0
H24 H 0.96537 0.49495 0.01046 0.0
H25 H 0.00943 0.47447 0.04733 0.0
H26 H 0.97754 0.52453 0.0639 0.0
H27 H 0.02332 0.46611 0.02047 0.0
C28 C 0.01007 0.45946 0.01254 0.0
C29 C 0.97364 0.49655 0.02356 0.0
C30 C 0.96957 0.51148 0.0367 0.0
C31 C 0.98832 0.48355 0.0271 0.0
C32 C 0.99871 0.48506 0.04421 0.0
C33 C 0.99484 0.4997 0.05764 0.0
C34 C 0.98023 0.51287 0.05377 0.0
N35 N 0.99185 0.46862 0.01346 0.0
H36 H 0.70268 0.79696 0.18786 0.0
H37 H 0.72354 0.8501 0.22117 0.0
H38 H 0.75256 0.8341 0.17325 0.0
H39 H 0.69185 0.84826 0.22898 0.0
C40 C 0.68869 0.83245 0.23014 0.0
C41 C 0.71293 0.81013 0.19047 0.0
C42 C 0.72758 0.81423 0.17843 0.0
C43 C 0.71107 0.82317 0.20572 0.0
C44 C 0.72447 0.8402 0.20921 0.0
C45 C 0.73941 0.84437 0.19748 0.0
C46 C 0.74073 0.83134 0.18209 0.0
N47 N 0.69611 0.8184 0.21763 0.0
H48 H 0.03866 0.96005 0.45997 0.0
H49 H 0.09119 0.97638 0.49572 0.0
H50 H 0.0813 0.00673 0.44786 0.0
H51 H 0.08483 0.94797 0.50655 0.0
C52 C 0.06912 0.94329 0.50417 0.0
C53 C 0.05243 0.96923 0.46337 0.0
C54 C 0.05861 0.9837 0.45185 0.0
C55 C 0.06416 0.96609 0.47907 0.0
C56 C 0.08209 0.97807 0.48351 0.0
C57 C 0.08852 0.99246 0.47209 0.0
C58 C 0.07667 0.99518 0.45638 0.0
N59 N 0.05739 0.95091 0.49003 0.0
H60 H 0.21238 0.72111 0.82584 0.0
H61 H 0.23845 0.6784 0.7911 0.0
H62 H 0.26556 0.69537 0.8446 0.0
H63 H 0.21015 0.67736 0.77419 0.0
C64 C 0.20286 0.69081 0.7773 0.0
C65 C 0.22383 0.71096 0.82369 0.0
C66 C 0.23881 0.70935 0.83739 0.0
C67 C 0.22347 0.69989 0.80704 0.0
C68 C 0.23851 0.68702 0.80392 0.0
C69 C 0.25383 0.68523 0.81741 0.0
C70 C 0.25383 0.69651 0.83413 0.0
N71 N 0.20793 0.70265 0.7938 0.0
H72 H 0.01397 0.56275 0.46565 0.0
H73 H 0.97794 0.50714 0.45802 0.0
H74 H 0.96364 0.55283 0.49707 0.0
H75 H 1.00157 0.49657 0.44193 0.0
C76 C 0.00997 0.50923 0.43727 0.0
C77 C 1.00152 0.55318 0.46924 0.0
C78 C 0.98928 0.56004 0.48246 0.0
C79 C 0.99763 0.53417 0.4603 0.0
C80 C 0.98128 0.5218 0.4648 0.0
C81 C 0.96901 0.52836 0.47821 0.0
C82 C 0.97311 0.54754 0.48685 0.0
N83 N 0.0101 0.52846 0.44646 0.0
H84 H 0.81754 0.84502 0.79135 0.0
H85 H 0.8472 0.80613 0.82527 0.0
H86 H 0.78924 0.82363 0.83708 0.0
H87 H 0.87499 0.82161 0.81424 0.0
C88 C 0.87 0.82272 0.80019 0.0
C89 C 0.81758 0.83625 0.80296 0.0
C90 C 0.80124 0.83563 0.81368 0.0
C91 C 0.83433 0.82609 0.80723 0.0
C92 C 0.83468 0.81474 0.82231 0.0
C93 C 0.8184 0.81367 0.83314 0.0
C94 C 0.8018 0.8243 0.82878 0.0
N95 N 0.85008 0.8269 0.79551 0.0
H96 H 0.32376 0.34975 0.293 0.0
H97 H 0.3496 0.30773 0.32618 0.0
H98 H 0.2942 0.33059 0.33891 0.0
H99 H 0.37576 0.31194 0.31084 0.0
C100 C 0.37195 0.31868 0.29844 0.0
C101 C 0.32309 0.34087 0.30451 0.0
C102 C 0.30689 0.34158 0.31537 0.0
C103 C 0.33867 0.32898 0.3083 0.0
C104 C 0.33809 0.31752 0.32332 0.0
C105 C 0.32213 0.31809 0.33451 0.0
C106 C 0.30659 0.33017 0.33042 0.0
N107 N 0.35417 0.32855 0.29626 0.0
H108 H 0.45583 0.99515 0.51594 0.0
H109 H 0.4981 0.97448 0.55438 0.0
H110 H 0.46677 0.02551 0.56918 0.0
H111 H 0.48744 0.94481 0.53943 0.0
C112 C 0.48683 0.94845 0.52544 0.0
C113 C 0.46359 0.99675 0.52927 0.0
C114 C 0.45974 0.01229 0.54191 0.0
C115 C 0.47686 0.9827 0.53386 0.0
C116 C 0.48696 0.98459 0.55111 0.0
C117 C 0.48333 0.99985 0.56404 0.0
C118 C 0.46966 0.01367 0.55932 0.0
N119 N 0.47996 0.96693 0.52084 0.0
H120 H 0.2006 0.29883 0.68933 0.0
H121 H 0.22155 0.35204 0.7226 0.0
H122 H 0.25039 0.33603 0.6746 0.0
H123 H 0.20901 0.33534 0.74444 0.0
C124 C 0.19577 0.32673 0.73825 0.0
C125 C 0.21078 0.31205 0.6919 0.0
C126 C 0.22559 0.31599 0.67998 0.0
C127 C 0.20955 0.32458 0.70761 0.0
C128 C 0.2228 0.34175 0.71097 0.0
C129 C 0.23756 0.346 0.6991 0.0
C130 C 0.23886 0.33301 0.68368 0.0
N131 N 0.1949 0.31949 0.71972 0.0
H132 H 0.80147 0.18204 0.67202 0.0
H133 H 0.858 0.21247 0.6912 0.0
H134 H 0.83512 0.16185 0.7172 0.0
H135 H 0.84557 0.23806 0.67842 0.0
C136 C 0.83622 0.23176 0.66664 0.0
C137 C 0.81464 0.1835 0.68134 0.0
C138 C 0.81688 0.16989 0.69451 0.0
C139 C 0.82922 0.19908 0.68016 0.0
C140 C 0.84631 0.20091 0.69229 0.0
C141 C 0.8486 0.18759 0.7058 0.0
C142 C 0.83386 0.17197 0.70663 0.0
N143 N 0.82624 0.21248 0.66656 0.0
H144 H 0.5394 0.56709 0.56686 0.0
H145 H 0.58401 0.54841 0.53234 0.0
H146 H 0.57665 0.52104 0.58187 0.0
H147 H 0.56424 0.55985 0.51105 0.0
C148 C 0.55857 0.57295 0.51755 0.0
C149 C 0.55136 0.55772 0.56422 0.0
C150 C 0.55672 0.5438 0.57646 0.0
C151 C 0.56085 0.55931 0.54817 0.0
C152 C 0.57629 0.54711 0.5445 0.0
C153 C 0.5819 0.53307 0.55648 0.0
C154 C 0.57203 0.53151 0.57241 0.0
N155 N 0.55474 0.57352 0.53615 0.0
H156 H 0.53288 0.47 0.96171 0.0
H157 H 0.58481 0.48502 0.99827 0.0
H158 H 0.57546 0.51774 0.95172 0.0
H159 H 0.58058 0.45395 0.00475 0.0
C160 C 0.56467 0.44996 1.00353 0.0
C161 C 0.54667 0.47905 0.96541 0.0
C162 C 0.55246 0.49473 0.955 0.0
C163 C 0.55852 0.47495 0.98072 0.0
C164 C 0.57609 0.48715 0.98595 0.0
C165 C 0.58226 0.50271 0.97561 0.0
C166 C 0.57043 0.50622 0.9601 0.0
N167 N 0.55213 0.45881 0.99077 0.0
H168 H 0.71667 0.22327 0.32287 0.0
H169 H 0.74136 0.17807 0.28977 0.0
H170 H 0.76947 0.19764 0.34252 0.0
H171 H 0.72444 0.19168 0.26698 0.0
C172 C 0.71141 0.19734 0.27267 0.0
C173 C 0.72807 0.21302 0.32092 0.0
C174 C 0.74309 0.21178 0.33465 0.0
C175 C 0.72753 0.20128 0.30463 0.0
C176 C 0.74211 0.18775 0.30208 0.0
C177 C 0.75736 0.18619 0.31571 0.0
C178 C 0.75763 0.19827 0.33204 0.0
N179 N 0.71176 0.20331 0.29141 0.0
H180 H 0.51394 0.06282 0.96784 0.0
H181 H 0.47449 0.00992 0.95626 0.0
H182 H 0.46454 0.05185 1.00024 0.0
H183 H 0.48689 0.00803 0.92982 0.0
C184 C 0.50102 0.01685 0.93043 0.0
C185 C 0.50091 0.0537 0.97086 0.0
C186 C 0.49015 0.05939 0.98564 0.0
C187 C 0.49514 0.03623 0.95987 0.0
C188 C 0.47864 0.0239 0.96406 0.0
C189 C 0.46764 0.02933 0.9788 0.0
C190 C 0.47341 0.04719 0.98933 0.0
N191 N 0.5065 0.03163 0.94489 0.0
Mn192 Mn 0.26509 0.87448 0.01251 0.0
Mn193 Mn 0.25855 0.88991 0.97056 0.0
C194 C 0.24959 0.85324 0.98903 0.0
C195 C 0.28315 0.85964 0.03494 0.0
C196 C 0.23375 0.90262 1.00118 0.0
O197 O 0.28543 0.89844 0.01336 0.0
O198 O 0.2802 0.90705 0.98477 0.0
C199 C 0.29717 0.88029 0.957 0.0
N200 N 0.27691 0.87808 0.95541 0.0
C201 C 0.27684 0.85624 0.92835 0.0
C202 C 0.2977 0.85836 0.92964 0.0
C203 C 0.3079 0.8704 0.94405 0.0
C204 C 0.26694 0.86651 0.94161 0.0
H205 H 0.3051 0.88949 0.96807 0.0
C206 C 0.28941 0.90932 1.00054 0.0
O207 O 0.26989 0.87187 0.03884 0.0
O208 O 0.28647 0.85658 0.01801 0.0
N209 N 0.23829 0.87417 0.95543 0.0
C210 C 0.21824 0.87273 0.95676 0.0
C211 C 0.20588 0.86075 0.94366 0.0
C212 C 0.21426 0.85047 0.92932 0.0
C213 C 0.23493 0.85225 0.9282 0.0
C214 C 0.24649 0.86448 0.94159 0.0
H215 H 0.21172 0.88058 0.96776 0.0
O216 O 0.24612 0.85042 0.00563 0.0
O217 O 0.2615 0.86864 0.98676 0.0
O218 O 0.24227 0.8927 0.01292 0.0
O219 O 0.23863 0.90264 0.9849 0.0
C220 C 0.24455 0.84215 0.91447 0.0
C221 C 0.26549 0.84407 0.91459 0.0
H222 H 0.30603 0.85068 0.91973 0.0
H223 H 0.324 0.87205 0.94519 0.0
H224 H 0.18994 0.8594 0.94465 0.0
H225 H 0.20469 0.84115 0.91931 0.0
H226 H 0.23601 0.83267 0.90387 0.0
H227 H 0.27272 0.83597 0.90413 0.0
Mn228 Mn 0.1461 0.50384 0.25208 0.0
Mn229 Mn 0.12722 0.54859 0.25704 0.0
C230 C 0.16228 0.53135 0.24107 0.0
C231 C 0.16565 0.47979 0.26338 0.0
C232 C 0.11107 0.51631 0.22819 0.0
O233 O 0.12633 0.4998 0.27124 0.0
O234 O 0.11587 0.53056 0.27419 0.0
C235 C 0.14523 0.56129 0.29387 0.0
N236 N 0.14217 0.56476 0.27614 0.0
C237 C 0.15927 0.59735 0.28142 0.0
C238 C 0.16257 0.59418 0.29976 0.0
C239 C 0.15563 0.57602 0.30598 0.0
C240 C 0.14912 0.58201 0.26995 0.0
H241 H 0.13971 0.54744 0.29873 0.0
C242 C 0.11591 0.51266 0.27862 0.0
O243 O 0.15125 0.47511 0.25097 0.0
O244 O 0.16849 0.49836 0.26936 0.0
N245 N 0.1367 0.5679 0.24154 0.0
C246 C 0.13294 0.56827 0.22335 0.0
C247 C 0.13904 0.58533 0.21491 0.0
C248 C 0.14855 0.60196 0.22532 0.0
C249 C 0.15224 0.60124 0.24403 0.0
C250 C 0.14599 0.58377 0.25165 0.0
H251 H 0.12522 0.5557 0.21535 0.0
O252 O 0.16549 0.51347 0.23502 0.0
O253 O 0.15004 0.53267 0.2538 0.0
O254 O 0.12324 0.50349 0.23224 0.0
O255 O 0.11114 0.53333 0.23686 0.0
C256 C 0.16177 0.6172 0.25545 0.0
C257 C 0.16555 0.61515 0.27408 0.0
H258 H 0.17042 0.60558 0.30917 0.0
H259 H 0.15814 0.57344 0.32011 0.0
H260 H 0.13617 0.58577 0.20047 0.0
H261 H 0.15298 0.61519 0.21879 0.0
H262 H 0.16647 0.63104 0.25001 0.0
H263 H 0.17323 0.6274 0.28264 0.0
Mn264 Mn 0.78605 0.65838 1.00181 0.0
Mn265 Mn 0.7425 0.67202 0.98323 0.0
C266 C 0.75695 0.63834 1.00321 0.0
C267 C 0.81551 0.64238 1.00094 0.0
C268 C 0.76084 0.68932 0.0197 0.0
O269 O 0.79544 0.67926 0.98512 0.0
O270 O 0.76546 0.68751 0.97443 0.0
C271 C 0.74756 0.65689 0.94556 0.0
N272 N 0.73653 0.65755 0.96021 0.0
C273 C 0.7099 0.63639 0.9441 0.0
C274 C 0.72092 0.63558 0.9288 0.0
C275 C 0.73987 0.64582 0.92956 0.0
C276 C 0.71836 0.64763 0.95967 0.0
H277 H 0.76211 0.66477 0.94608 0.0
C278 C 0.78449 0.6895 0.97539 0.0
O279 O 0.81354 0.65704 0.01278 0.0
O280 O 0.80066 0.63758 0.98901 0.0
N281 N 0.71865 0.65855 0.9901 0.0
C282 C 0.71026 0.6603 0.00623 0.0
C283 C 0.69125 0.651 0.00774 0.0
C284 C 0.68102 0.64009 0.99267 0.0
C285 C 0.68992 0.63856 0.97621 0.0
C286 C 0.70876 0.64842 0.97543 0.0
H287 H 0.71797 0.66884 0.01781 0.0
O288 O 0.77208 0.63734 0.0147 0.0
O289 O 0.75919 0.65099 0.99097 0.0
O290 O 0.7765 0.67992 0.01934 0.0
O291 O 0.74705 0.68736 0.00694 0.0
C292 C 0.68092 0.62746 0.96061 0.0
C293 C 0.69096 0.62629 0.94459 0.0
H294 H 0.71504 0.62704 0.91644 0.0
H295 H 0.7485 0.6452 0.91783 0.0
H296 H 0.68446 0.65227 0.0205 0.0
H297 H 0.66639 0.63286 0.99391 0.0
H298 H 0.6664 0.61958 0.96085 0.0
H299 H 0.68401 0.6175 0.93275 0.0
Mn300 Mn 0.91795 0.0225 0.25907 0.0
Mn301 Mn 0.93302 0.97607 0.25401 0.0
C302 C 0.89778 0.9972 0.24273 0.0
C303 C 0.90139 0.04693 0.27448 0.0
C304 C 0.94873 0.00977 0.23292 0.0
O305 O 0.94001 0.02287 0.27939 0.0
O306 O 0.94803 0.99117 0.27515 0.0
C307 C 0.91884 0.96059 0.28744 0.0
N308 N 0.919 0.95913 0.2691 0.0
C309 C 0.89824 0.92843 0.26658 0.0
C310 C 0.89792 0.92956 0.28545 0.0
C311 C 0.90819 0.94577 0.29592 0.0
C312 C 0.90899 0.94372 0.25889 0.0
H313 H 0.92682 0.97295 0.29554 0.0
C314 C 0.94995 0.00838 0.28382 0.0
O315 O 0.91504 0.05152 0.26372 0.0
O316 O 0.898 0.02823 0.27689 0.0
N317 N 0.9194 0.95975 0.23418 0.0
C318 C 0.92017 0.96154 0.21612 0.0
C319 C 0.91004 0.94691 0.20374 0.0
C320 C 0.8995 0.93046 0.21007 0.0
C321 C 0.89908 0.92887 0.22872 0.0
C322 C 0.90928 0.94401 0.2404 0.0
H323 H 0.92839 0.97405 0.21118 0.0
O324 O 0.89566 0.01564 0.2399 0.0
O325 O 0.91173 0.99414 0.25484 0.0
O326 O 0.93836 0.02299 0.23981 0.0
O327 O 0.94804 0.99198 0.23756 0.0
C328 C 0.88885 0.91292 0.23618 0.0
C329 C 0.88824 0.9128 0.25509 0.0
H330 H 0.88976 0.91813 0.29205 0.0
H331 H 0.90796 0.94677 0.31049 0.0
H332 H 0.91043 0.94826 0.18937 0.0
H333 H 0.89173 0.91919 0.20049 0.0
H334 H 0.88109 0.90084 0.22748 0.0
H335 H 0.87994 0.90067 0.26064 0.0
Mn336 Mn 0.28027 0.16274 0.50086 0.0
Mn337 Mn 0.23925 0.1798 0.4808 0.0
C338 C 0.24971 0.1443 0.49969 0.0
C339 C 0.3088 0.14512 0.5012 0.0
C340 C 0.25574 0.19448 0.51848 0.0
O341 O 0.29233 0.18381 0.48557 0.0
O342 O 0.26375 0.19461 0.47416 0.0
C343 C 0.24641 0.16655 0.44311 0.0
N344 N 0.23432 0.1669 0.45702 0.0
C345 C 0.2072 0.14957 0.43819 0.0
C346 C 0.21932 0.14904 0.42362 0.0
C347 C 0.23906 0.15744 0.42614 0.0
C348 C 0.21549 0.15844 0.45487 0.0
H349 H 0.26148 0.17327 0.44491 0.0
C350 C 0.28276 0.19536 0.47601 0.0
O351 O 0.30666 0.15946 0.5133 0.0
O352 O 0.29464 0.14144 0.4884 0.0
N353 N 0.21415 0.16718 0.48559 0.0
C354 C 0.20462 0.1685 0.50114 0.0
C355 C 0.18469 0.16093 0.50095 0.0
C356 C 0.17465 0.15255 0.4847 0.0
C357 C 0.18478 0.15133 0.46887 0.0
C358 C 0.20469 0.15889 0.46994 0.0
H359 H 0.21212 0.17544 0.51356 0.0
O360 O 0.26372 0.1419 0.51197 0.0
O361 O 0.25392 0.15736 0.48826 0.0
O362 O 0.2709 0.18434 0.51845 0.0
O363 O 0.24269 0.19367 0.50518 0.0
C364 C 0.17587 0.14304 0.45203 0.0
C365 C 0.18716 0.14185 0.43677 0.0
H366 H 0.21362 0.14226 0.41045 0.0
H367 H 0.24852 0.15709 0.41497 0.0
H368 H 0.17699 0.16187 0.51323 0.0
H369 H 0.15918 0.14702 0.48456 0.0
H370 H 0.1604 0.1373 0.45071 0.0
H371 H 0.18024 0.13512 0.42399 0.0
Mn372 Mn 0.41632 0.52277 0.75855 0.0
Mn373 Mn 0.43624 0.47843 0.75652 0.0
C374 C 0.39892 0.49509 0.74303 0.0
C375 C 0.39742 0.54647 0.77216 0.0
C376 C 0.44861 0.51145 0.73337 0.0
O377 O 0.43783 0.52656 0.7794 0.0
O378 O 0.44996 0.49646 0.77658 0.0
C379 C 0.42407 0.46488 0.79137 0.0
N380 N 0.42435 0.46176 0.7731 0.0
C381 C 0.4085 0.42877 0.77327 0.0
C382 C 0.40809 0.43158 0.7921 0.0
C383 C 0.41579 0.44978 0.80117 0.0
C384 C 0.41665 0.44447 0.7642 0.0
H385 H 0.4302 0.47875 0.79843 0.0
C386 C 0.44971 0.5139 0.78448 0.0
O387 O 0.41092 0.55133 0.76134 0.0
O388 O 0.39529 0.5279 0.77549 0.0
N389 N 0.42435 0.45922 0.73802 0.0
C390 C 0.42475 0.45938 0.71975 0.0
C391 C 0.41705 0.44251 0.70862 0.0
C392 C 0.40943 0.42553 0.71641 0.0
C393 C 0.40924 0.42572 0.73526 0.0
C394 C 0.4168 0.44306 0.74563 0.0
H395 H 0.43095 0.47227 0.71373 0.0
O396 O 0.39523 0.51291 0.73916 0.0
O397 O 0.41278 0.49394 0.75584 0.0
O398 O 0.4373 0.52404 0.73983 0.0
O399 O 0.44931 0.49403 0.73869 0.0
C400 C 0.40184 0.40938 0.74417 0.0
C401 C 0.4012 0.41099 0.76313 0.0
H402 H 0.40187 0.4199 0.79972 0.0
H403 H 0.4155 0.45209 0.8157 0.0
H404 H 0.41721 0.4425 0.69409 0.0
H405 H 0.40368 0.41247 0.70778 0.0
H406 H 0.39628 0.39559 0.73654 0.0
H407 H 0.39504 0.39847 0.76978 0.0
Mn408 Mn 0.76355 0.37788 0.50951 0.0
Mn409 Mn 0.75769 0.39625 0.46872 0.0
C410 C 0.74828 0.35802 0.48494 0.0
C411 C 0.78115 0.36167 0.53127 0.0
C412 C 0.73306 0.40741 0.49993 0.0
O413 O 0.7841 0.40178 0.51167 0.0
O414 O 0.77997 0.41186 0.48347 0.0
C415 C 0.79562 0.38658 0.45374 0.0
N416 N 0.77535 0.385 0.45251 0.0
C417 C 0.77408 0.36542 0.42403 0.0
C418 C 0.79494 0.36688 0.42496 0.0
C419 C 0.80575 0.37748 0.4399 0.0
C420 C 0.7648 0.37487 0.43818 0.0
H421 H 0.80399 0.39469 0.4652 0.0
C422 C 0.78882 0.41314 0.49938 0.0
O423 O 0.76789 0.37375 0.53555 0.0
O424 O 0.78474 0.3595 0.51433 0.0
N425 N 0.7368 0.38201 0.45322 0.0
C426 C 0.71682 0.38085 0.45502 0.0
C427 C 0.70388 0.37037 0.44143 0.0
C428 C 0.7116 0.36125 0.42613 0.0
C429 C 0.73223 0.36248 0.42467 0.0
C430 C 0.74438 0.3733 0.43856 0.0
H431 H 0.71081 0.38789 0.46673 0.0
O432 O 0.74451 0.35423 0.50128 0.0
O433 O 0.76025 0.37367 0.48357 0.0
O434 O 0.74083 0.3961 0.51086 0.0
O435 O 0.73847 0.40878 0.48395 0.0
C436 C 0.74122 0.35319 0.41009 0.0
C437 C 0.76213 0.3546 0.4098 0.0
H438 H 0.80281 0.35979 0.41437 0.0
H439 H 0.82185 0.37861 0.44075 0.0
H440 H 0.68799 0.36937 0.4427 0.0
H441 H 0.70154 0.35323 0.41566 0.0
H442 H 0.73221 0.3447 0.39915 0.0
H443 H 0.76888 0.34713 0.39867 0.0
Mn444 Mn 0.64612 1.00074 0.75076 0.0
Mn445 Mn 0.63582 0.04893 0.7529 0.0
C446 C 0.6666 0.02388 0.73804 0.0
C447 C 0.66161 0.97482 0.76358 0.0
C448 C 0.61374 0.0171 0.72645 0.0
O449 O 0.62649 1.00224 0.77027 0.0
O450 O 0.62206 0.03496 0.77174 0.0
C451 C 0.65652 0.06208 0.78863 0.0
N452 N 0.6538 0.06409 0.77057 0.0
C453 C 0.67825 0.09207 0.77272 0.0
C454 C 0.68122 0.09037 0.79136 0.0
C455 C 0.67034 0.07528 0.79934 0.0
C456 C 0.66422 0.07853 0.76275 0.0
H457 H 0.64822 0.05047 0.7948 0.0
C458 C 0.61895 0.01753 0.77717 0.0
O459 O 0.64656 0.9713 0.75164 0.0
O460 O 0.66718 0.99331 0.76838 0.0
N461 N 0.64821 0.06439 0.73563 0.0
C462 C 0.64444 0.06327 0.71734 0.0
C463 C 0.65449 0.07701 0.70723 0.0
C464 C 0.66819 0.09184 0.71604 0.0
C465 C 0.67172 0.09279 0.73488 0.0
C466 C 0.66113 0.0788 0.74426 0.0
H467 H 0.63393 0.05192 0.71049 0.0
O468 O 0.66647 0.00512 0.73294 0.0
O469 O 0.6549 0.02857 0.7506 0.0
O470 O 0.62354 1.00261 0.73108 0.0
O471 O 0.61695 0.03472 0.73404 0.0
C472 C 0.68563 0.1068 0.74469 0.0
C473 C 0.68893 0.10641 0.76359 0.0
H474 H 0.69193 0.10047 0.79966 0.0
H475 H 0.67262 0.07382 0.8137 0.0
H476 H 0.65173 0.07615 0.69269 0.0
H477 H 0.67599 0.10234 0.70819 0.0
H478 H 0.69412 0.11773 0.73779 0.0
H479 H 0.69988 0.11707 0.77094 0.0
Mn480 Mn 0.02237 0.24927 0.87153 0.0
Mn481 Mn 0.97581 0.24487 0.88526 0.0
C482 C 0.99706 0.23099 0.85352 0.0
C483 C 0.04705 0.26571 0.85643 0.0
C484 C 0.00953 0.22252 0.90071 0.0
O485 O 0.0228 0.272 0.89129 0.0
O486 O 0.99066 0.26897 0.89787 0.0
C487 C 0.96 0.28044 0.87046 0.0
N488 N 0.95879 0.26039 0.87152 0.0
C489 C 0.92857 0.25614 0.85209 0.0
C490 C 0.92943 0.27676 0.85086 0.0
C491 C 0.94527 0.28894 0.86003 0.0
C492 C 0.94371 0.24851 0.86264 0.0
H493 H 0.97211 0.28987 0.87753 0.0
C494 C 0.00817 0.27794 0.89971 0.0
O495 O 0.05144 0.25409 0.86898 0.0
O496 O 0.02836 0.26832 0.85312 0.0
N497 N 0.95989 0.22228 0.87374 0.0
C498 C 0.96199 0.2026 0.87534 0.0
C499 C 0.94779 0.18835 0.86639 0.0
C500 C 0.9315 0.19448 0.85608 0.0
C501 C 0.9296 0.21481 0.85473 0.0
C502 C 0.94427 0.22833 0.86386 0.0
H503 H 0.97442 0.19781 0.88332 0.0
O504 O 0.0155 0.22769 0.85162 0.0
O505 O 0.99407 0.2447 0.86597 0.0
O506 O 0.02261 0.2289 0.89053 0.0
O507 O 0.99182 0.22793 0.90007 0.0
C508 C 0.91385 0.2222 0.84456 0.0
C509 C 0.91339 0.24284 0.84313 0.0
H510 H 0.9181 0.28337 0.84282 0.0
H511 H 0.94608 0.30486 0.85908 0.0
H512 H 0.94938 0.17268 0.86747 0.0
H513 H 0.92059 0.18344 0.84918 0.0
H514 H 0.90218 0.21211 0.8375 0.0
H515 H 0.90141 0.2483 0.83495 0.0
Mn516 Mn 0.52776 0.75503 0.37317 0.0
Mn517 Mn 0.47992 0.74727 0.38307 0.0
C518 C 0.50498 0.736 0.35316 0.0
C519 C 0.55285 0.77308 0.35988 0.0
C520 C 0.51351 0.72612 0.40028 0.0
O521 O 0.52529 0.77707 0.39299 0.0
O522 O 0.4928 0.77114 0.39773 0.0
C523 C 0.46414 0.78306 0.36869 0.0
N524 N 0.46354 0.76291 0.36881 0.0
C525 C 0.4359 0.75863 0.34631 0.0
C526 C 0.43615 0.77934 0.34603 0.0
C527 C 0.45036 0.7916 0.35725 0.0
C528 C 0.44992 0.75098 0.35808 0.0
H529 H 0.47508 0.79254 0.37724 0.0
C530 C 0.5097 0.78122 0.40087 0.0
O531 O 0.55699 0.76155 0.37258 0.0
O532 O 0.53418 0.77486 0.3556 0.0
N533 N 0.46578 0.72475 0.36956 0.0
C534 C 0.46833 0.70508 0.37065 0.0
C535 C 0.45569 0.69081 0.35987 0.0
C536 C 0.44053 0.6969 0.34817 0.0
C537 C 0.43813 0.71722 0.34735 0.0
C538 C 0.45106 0.73076 0.35853 0.0
H539 H 0.47999 0.70031 0.37959 0.0
O540 O 0.52384 0.73379 0.35273 0.0
O541 O 0.50005 0.74902 0.36544 0.0
O542 O 0.52736 0.73412 0.39176 0.0
O543 O 0.49538 0.73016 0.39812 0.0
C544 C 0.42367 0.72459 0.33563 0.0
C545 C 0.42257 0.74528 0.3351 0.0
H546 H 0.42564 0.78599 0.33713 0.0
H547 H 0.45071 0.80759 0.35703 0.0
H548 H 0.45767 0.67516 0.36054 0.0
H549 H 0.4309 0.68585 0.33979 0.0
H550 H 0.41352 0.71448 0.32677 0.0
H551 H 0.41158 0.75077 0.32583 0.0
Mn552 Mn 0.01782 0.7574 0.63088 0.0
Mn553 Mn 0.99345 0.71713 0.64579 0.0
C554 C 0.01553 0.72701 0.61373 0.0
C555 C 0.01859 0.78625 0.61543 0.0
C556 C 0.03525 0.73264 0.66002 0.0
O557 O 1.00196 0.76974 0.65073 0.0
O558 O 0.98546 0.74182 0.65824 0.0
C559 C 0.95276 0.72401 0.63153 0.0
N560 N 0.96794 0.71193 0.63295 0.0
C561 C 0.94771 0.68432 0.6174 0.0
C562 C 0.93181 0.69641 0.6158 0.0
C563 C 0.93441 0.7164 0.62276 0.0
C564 C 0.96578 0.69288 0.62586 0.0
H565 H 0.95463 0.73928 0.63713 0.0
C566 C 0.98925 0.76069 0.6598 0.0
O567 O 0.0322 0.78356 0.62798 0.0
O568 O 0.00415 0.7724 0.61218 0.0
N569 N 0.99926 0.69187 0.63513 0.0
C570 C 0.01632 0.68247 0.6372 0.0
C571 C 0.01631 0.66238 0.63095 0.0
C572 C 0.99866 0.65205 0.62308 0.0
C573 C 0.98129 0.66206 0.62107 0.0
C574 C 0.98229 0.68215 0.62728 0.0
H575 H 0.02975 0.69018 0.64377 0.0
O576 O 0.02927 0.74082 0.61141 0.0
O577 O 1.00312 0.73148 0.62574 0.0
O578 O 0.03682 0.74704 0.64997 0.0
O579 O 0.01959 0.7208 0.65969 0.0
C580 C 0.96299 0.65287 0.61326 0.0
C581 C 0.94631 0.66407 0.61112 0.0
H582 H 0.91755 0.69051 0.60928 0.0
H583 H 0.92222 0.72584 0.62156 0.0
H584 H 0.02978 0.65477 0.63251 0.0
H585 H 0.99865 0.63646 0.61855 0.0
H586 H 0.96165 0.63724 0.60859 0.0
H587 H 0.93245 0.65693 0.60474 0.0
Mn588 Mn 0.52252 0.26194 0.12884 0.0
Mn589 Mn 0.50108 0.21878 0.1413 0.0
C590 C 0.52291 0.233 0.11019 0.0
C591 C 0.52111 0.29164 0.11487 0.0
C592 C 0.54178 0.23654 0.15662 0.0
O593 O 0.50535 0.2714 0.14881 0.0
O594 O 0.49126 0.24182 0.15511 0.0
C595 C 0.45978 0.22362 0.12731 0.0
N596 N 0.47587 0.21265 0.12805 0.0
C597 C 0.45822 0.18581 0.10901 0.0
C598 C 0.44141 0.19677 0.10812 0.0
C599 C 0.44223 0.21579 0.11726 0.0
C600 C 0.47529 0.19441 0.11922 0.0
H601 H 0.46034 0.23822 0.13435 0.0
C602 C 0.49349 0.2608 0.1575 0.0
O603 O 0.53484 0.28936 0.12744 0.0
O604 O 0.50774 0.27689 0.11085 0.0
N605 N 0.50874 0.19492 0.12921 0.0
C606 C 0.52652 0.1867 0.13077 0.0
C607 C 0.52825 0.16768 0.1224 0.0
C608 C 0.51167 0.15727 0.11262 0.0
C609 C 0.49355 0.16603 0.11119 0.0
C610 C 0.49263 0.18489 0.12005 0.0
H611 H 0.53924 0.19454 0.13845 0.0
O612 O 0.53564 0.24805 0.1089 0.0
O613 O 0.50992 0.23536 0.1222 0.0
O614 O 0.54222 0.2518 0.14754 0.0
O615 O 0.52703 0.22345 0.15545 0.0
C616 C 0.47642 0.15689 0.10115 0.0
C617 C 0.4588 0.16682 0.09998 0.0
H618 H 0.42786 0.19078 0.10037 0.0
H619 H 0.42934 0.22436 0.11657 0.0
H620 H 0.5423 0.16102 0.12353 0.0
H621 H 0.51306 0.14261 0.10615 0.0
H622 H 0.47672 0.14234 0.09408 0.0
H623 H 0.44581 0.15977 0.09201 0.0
H624 H 0.20716 0.71538 0.85756 0.0
H625 H 0.20647 0.73732 0.88515 0.0
H626 H 0.26947 0.75276 0.88436 0.0
H627 H 0.27028 0.73078 0.85675 0.0
H628 H 0.25766 0.7452 0.91863 0.0
H629 H 0.20965 0.79794 0.88658 0.0
H630 H 0.19944 0.77253 0.88453 0.0
H631 H 0.22157 0.77928 0.87356 0.0
C632 C 0.22086 0.72349 0.86325 0.0
C633 C 0.23875 0.72149 0.85489 0.0
C634 C 0.22043 0.73604 0.87898 0.0
C635 C 0.23783 0.74698 0.88659 0.0
C636 C 0.25584 0.74452 0.87864 0.0
H637 H 0.2773 0.83769 0.96926 0.0
H638 H 0.27278 0.81039 0.94564 0.0
C639 C 0.25631 0.7319 0.86292 0.0
C640 C 0.23729 0.7611 0.90276 0.0
H641 H 0.21799 0.80398 0.91792 0.0
C642 C 0.24899 0.75806 0.91847 0.0
C643 C 0.22581 0.77777 0.90259 0.0
C644 C 0.21352 0.78224 0.88588 0.0
C645 C 0.24976 0.77139 0.93394 0.0
C646 C 0.23876 0.78836 0.93357 0.0
C647 C 0.22648 0.79102 0.91811 0.0
C648 C 0.24126 0.80444 0.9484 0.0
C649 C 0.26237 0.76717 0.95053 0.0
C650 C 0.22493 0.81048 0.95757 0.0
C651 C 0.22749 0.82631 0.97103 0.0
C652 C 0.24627 0.83657 0.97503 0.0
C653 C 0.26258 0.83026 0.96608 0.0
C654 C 0.26006 0.8145 0.95277 0.0
H655 H 0.26435 0.75104 0.95079 0.0
H656 H 0.27734 0.77508 0.95039 0.0
H657 H 0.25571 0.77236 0.9631 0.0
H658 H 0.21027 0.80297 0.95431 0.0
H659 H 0.2148 0.8308 0.978 0.0
H660 H 0.03436 0.53657 0.42203 0.0
H661 H 0.05223 0.53131 0.39483 0.0
H662 H 0.02959 0.46971 0.38894 0.0
H663 H 0.01149 0.4749 0.41622 0.0
H664 H 0.08131 0.50337 0.38718 0.0
H665 H 0.0133 0.49168 0.33975 0.0
H666 H 0.01291 0.50277 0.36255 0.0
H667 H 0.01437 0.47646 0.35855 0.0
C668 C 0.03318 0.52188 0.415 0.0
C669 C 0.02144 0.50613 0.42118 0.0
C670 C 0.04345 0.5189 0.39948 0.0
C671 C 0.04207 0.50017 0.3898 0.0
C672 C 0.03064 0.48433 0.3961 0.0
H673 H 0.11811 0.48037 0.29893 0.0
H674 H 0.0999 0.47376 0.3256 0.0
C675 C 0.02039 0.48729 0.41168 0.0
C676 C 0.05241 0.49754 0.37296 0.0
H677 H 0.04418 0.49122 0.32702 0.0
C678 C 0.07325 0.50043 0.37402 0.0
C679 C 0.04178 0.49382 0.35585 0.0
C680 C 0.01934 0.49112 0.35395 0.0
C681 C 0.08374 0.50028 0.35836 0.0
C682 C 0.07308 0.497 0.34124 0.0
C683 C 0.05228 0.49353 0.3402 0.0
C684 C 0.083 0.49961 0.32434 0.0
C685 C 0.10605 0.5046 0.36019 0.0
C686 C 0.07908 0.51597 0.31458 0.0
C687 C 0.08938 0.51979 0.29945 0.0
C688 C 0.10378 0.50723 0.29365 0.0
C689 C 0.10713 0.49034 0.30304 0.0
C690 C 0.09683 0.48659 0.31832 0.0
H691 H 0.11174 0.50939 0.37433 0.0
H692 H 0.11322 0.49101 0.35579 0.0
H693 H 0.1106 0.51641 0.35136 0.0
H694 H 0.06842 0.52616 0.31899 0.0
H695 H 0.08628 0.53284 0.2925 0.0
H696 H 0.84884 0.81057 0.85886 0.0
H697 H 0.84898 0.7894 0.88424 0.0
H698 H 0.78842 0.76729 0.86803 0.0
H699 H 0.78823 0.78814 0.84256 0.0
H700 H 0.82267 0.78939 0.91291 0.0
H701 H 0.8183 0.71639 0.87307 0.0
H702 H 0.82579 0.73946 0.86375 0.0
H703 H 0.79989 0.73244 0.86568 0.0
C704 C 0.83562 0.80106 0.86063 0.0
C705 C 0.81852 0.80103 0.84868 0.0
C706 C 0.8357 0.78904 0.87516 0.0
C707 C 0.81881 0.77657 0.87786 0.0
C708 C 0.80172 0.77657 0.86603 0.0
H709 H 0.76887 0.72262 0.96408 0.0
H710 H 0.78127 0.74432 0.94196 0.0
C711 C 0.80157 0.78866 0.85159 0.0
C712 C 0.81868 0.76401 0.89338 0.0
H713 H 0.81054 0.71597 0.90397 0.0
C714 C 0.82032 0.77332 0.91098 0.0
C715 C 0.81592 0.74303 0.89087 0.0
C716 C 0.81506 0.73218 0.87233 0.0
C717 C 0.81811 0.76225 0.92607 0.0
C718 C 0.81407 0.74139 0.92346 0.0
C719 C 0.81357 0.73198 0.90595 0.0
C720 C 0.80808 0.72936 0.93835 0.0
C721 C 0.81965 0.77302 0.94467 0.0
C722 C 0.81909 0.71372 0.94376 0.0
C723 C 0.81206 0.70126 0.95659 0.0
C724 C 0.79371 0.70404 0.96387 0.0
C725 C 0.78304 0.72003 0.95871 0.0
C726 C 0.79016 0.73255 0.94613 0.0
H727 H 0.82837 0.78764 0.94497 0.0
H728 H 0.80449 0.77573 0.94863 0.0
H729 H 0.82671 0.76401 0.95483 0.0
H730 H 0.83288 0.71092 0.93778 0.0
H731 H 0.82051 0.68896 0.96019 0.0
H732 H 0.01811 0.98543 0.44707 0.0
H733 H 0.99862 0.99242 0.41954 0.0
H734 H 0.05219 0.99669 0.39128 0.0
H735 H 0.07169 0.98961 0.41857 0.0
H736 H 0.02758 0.02819 0.38606 0.0
H737 H 0.98549 0.954 0.37398 0.0
H738 H 0.98413 0.96656 0.39596 0.0
H739 H 0.00748 0.95844 0.38937 0.0
C740 C 0.02568 0.98762 0.43492 0.0
C741 C 0.04646 0.98698 0.43503 0.0
C742 C 0.01455 0.99167 0.41923 0.0
C743 C 0.02396 0.99501 0.40335 0.0
C744 C 0.04464 0.99428 0.40341 0.0
H745 H 0.97995 0.98549 0.29285 0.0
H746 H 0.9978 0.98468 0.32231 0.0
C747 C 0.05576 0.99025 0.41904 0.0
C748 C 0.0124 0.99912 0.38653 0.0
H749 H 0.978 0.97789 0.35366 0.0
C750 C 0.01662 0.01727 0.37901 0.0
C751 C 0.99824 0.98478 0.37733 0.0
C752 C 0.99361 0.96477 0.38443 0.0
C753 C 0.00725 0.02134 0.36238 0.0
C754 C 0.99321 0.00692 0.35314 0.0
C755 C 0.98874 0.98894 0.36083 0.0
C756 C 0.98393 0.00942 0.33487 0.0
C757 C 0.01292 0.04067 0.35449 0.0
C758 C 0.97057 0.02402 0.33198 0.0
C759 C 0.96033 0.02462 0.315 0.0
C760 C 0.96317 0.01049 0.30073 0.0
C761 C 0.97727 0.99653 0.30354 0.0
C762 C 0.98748 0.99599 0.3204 0.0
H763 H 0.02648 0.04863 0.36173 0.0
H764 H 0.01557 0.038 0.33997 0.0
H765 H 1.00052 0.05046 0.35549 0.0
H766 H 0.96745 0.0344 0.34303 0.0
H767 H 0.94945 0.03544 0.31333 0.0
H768 H 0.25964 0.30141 0.6688 0.0
H769 H 0.2636 0.28012 0.64141 0.0
H770 H 0.20046 0.27793 0.62743 0.0
H771 H 0.19637 0.29939 0.65485 0.0
H772 H 0.24206 0.24011 0.62991 0.0
H773 H 0.22958 0.29883 0.58272 0.0
H774 H 0.23696 0.30464 0.60644 0.0
H775 H 0.21187 0.29528 0.59944 0.0
C776 C 0.2466 0.29643 0.65987 0.0
C777 C 0.2277 0.30219 0.66387 0.0
C778 C 0.24888 0.2842 0.6443 0.0
C779 C 0.23236 0.27766 0.63236 0.0
C780 C 0.21341 0.28301 0.63645 0.0
H781 H 0.22247 0.21326 0.52631 0.0
H782 H 0.21669 0.23279 0.5541 0.0
C783 C 0.21107 0.29514 0.65213 0.0
C784 C 0.23512 0.26542 0.61552 0.0
H785 H 0.23509 0.26707 0.56979 0.0
C786 C 0.24052 0.24594 0.61673 0.0
C787 C 0.23304 0.27313 0.59843 0.0
C788 C 0.22766 0.29415 0.59653 0.0
C789 C 0.24372 0.23381 0.60121 0.0
C790 C 0.24201 0.24163 0.58408 0.0
C791 C 0.23646 0.26111 0.58291 0.0
C792 C 0.24579 0.22983 0.56719 0.0
C793 C 0.24848 0.21263 0.60329 0.0
C794 C 0.26423 0.22196 0.56514 0.0
C795 C 0.26757 0.21063 0.54928 0.0
C796 C 0.25262 0.20719 0.53503 0.0
C797 C 0.23435 0.21557 0.53697 0.0
C798 C 0.23098 0.22675 0.55287 0.0
H799 H 0.24351 0.20733 0.61615 0.0
H800 H 0.24134 0.20245 0.5919 0.0
H801 H 0.26482 0.21176 0.60347 0.0
H802 H 0.27608 0.22461 0.5758 0.0
H803 H 0.28187 0.20458 0.54822 0.0
H804 H 0.54374 0.57357 0.59889 0.0
H805 H 0.52618 0.57022 0.62635 0.0
H806 H 0.52866 0.50666 0.62002 0.0
H807 H 0.54567 0.50972 0.59231 0.0
H808 H 0.48873 0.54585 0.62981 0.0
H809 H 0.55274 0.52415 0.67282 0.0
H810 H 0.55581 0.53656 0.6524 0.0
H811 H 0.54815 0.51048 0.65108 0.0
C812 C 0.54041 0.55884 0.60321 0.0
C813 C 0.54623 0.54192 0.59335 0.0
C814 C 0.53047 0.55699 0.61899 0.0
C815 C 0.52636 0.53823 0.62533 0.0
C816 C 0.53202 0.52132 0.61552 0.0
H817 H 0.47037 0.48708 0.71293 0.0
H818 H 0.48908 0.49514 0.68725 0.0
C819 C 0.54182 0.52312 0.5997 0.0
C820 C 0.51577 0.53621 0.64199 0.0
H821 H 0.52107 0.52103 0.68467 0.0
C822 C 0.4958 0.5406 0.64189 0.0
C823 C 0.52507 0.52933 0.65767 0.0
C824 C 0.54667 0.52498 0.65866 0.0
C825 C 0.48463 0.53759 0.65685 0.0
C826 C 0.49386 0.53047 0.67251 0.0
C827 C 0.51398 0.52648 0.67269 0.0
C828 C 0.48271 0.52605 0.68849 0.0
C829 C 0.46284 0.54128 0.65546 0.0
C830 C 0.47311 0.54083 0.698 0.0
C831 C 0.46221 0.53623 0.71271 0.0
C832 C 0.46091 0.51681 0.71835 0.0
C833 C 0.47101 0.50221 0.70905 0.0
C834 C 0.48175 0.50678 0.69432 0.0
H835 H 0.45697 0.54176 0.64119 0.0
H836 H 0.45384 0.52958 0.66168 0.0
H837 H 0.46084 0.55582 0.66274 0.0
H838 H 0.47403 0.55592 0.69404 0.0
H839 H 0.45476 0.54789 0.71961 0.0
H840 H 0.81399 0.22196 0.63441 0.0
H841 H 0.80735 0.24368 0.61021 0.0
H842 H 0.84275 0.292 0.64095 0.0
H843 H 0.84975 0.27022 0.66506 0.0
H844 H 0.78836 0.27757 0.61212 0.0
H845 H 0.86483 0.29386 0.59169 0.0
H846 H 0.85848 0.27404 0.60572 0.0
H847 H 0.86269 0.29928 0.61543 0.0
C848 C 0.82049 0.23716 0.63596 0.0
C849 C 0.83242 0.24444 0.65162 0.0
C850 C 0.8167 0.24955 0.6221 0.0
C851 C 0.8248 0.26938 0.62363 0.0
C852 C 0.83674 0.27663 0.63926 0.0
H853 H 0.77823 0.36526 0.5677 0.0
H854 H 0.78994 0.34305 0.58984 0.0
C855 C 0.8406 0.26424 0.65308 0.0
C856 C 0.8198 0.28277 0.60937 0.0
H857 H 0.8401 0.31431 0.58057 0.0
C858 C 0.79968 0.2855 0.60514 0.0
C859 C 0.83456 0.29293 0.60011 0.0
C860 C 0.85634 0.28976 0.60332 0.0
C861 C 0.79392 0.29843 0.59223 0.0
C862 C 0.80871 0.30928 0.58357 0.0
C863 C 0.82882 0.30619 0.58742 0.0
C864 C 0.80346 0.32384 0.57045 0.0
C865 C 0.77201 0.3002 0.58784 0.0
C866 C 0.80806 0.32098 0.55237 0.0
C867 C 0.80155 0.33379 0.53968 0.0
C868 C 0.79036 0.34968 0.54491 0.0
C869 C 0.78665 0.35305 0.56321 0.0
C870 C 0.79323 0.34031 0.57587 0.0
H871 H 0.76279 0.28718 0.59183 0.0
H872 H 0.76747 0.3137 0.59538 0.0
H873 H 0.76873 0.30158 0.57318 0.0
H874 H 0.81607 0.30843 0.54796 0.0
H875 H 0.80466 0.33083 0.52569 0.0
H876 H 0.4917 0.9694 0.58488 0.0
H877 H 0.51188 0.97126 0.61359 0.0
H878 H 0.51928 0.03507 0.61366 0.0
H879 H 0.49952 0.03337 0.58463 0.0
H880 H 0.55285 0.98958 0.619 0.0
H881 H 0.50124 0.02359 0.66516 0.0
H882 H 0.49276 0.01077 0.64351 0.0
H883 H 0.50475 0.03544 0.64463 0.0
C884 C 0.49763 0.98386 0.59095 0.0
C885 C 0.49409 1.00124 0.58233 0.0
C886 C 0.50906 0.98488 0.60741 0.0
C887 C 0.51696 1.00329 0.61577 0.0
C888 C 0.51308 0.02072 0.60752 0.0
H889 H 0.59381 0.04517 0.70975 0.0
H890 H 0.57018 0.04042 0.68333 0.0
C891 C 0.50173 0.01972 0.59095 0.0
C892 C 0.53018 0.00412 0.6326 0.0
H893 H 0.53406 0.02048 0.67732 0.0
C894 C 0.54874 0.99621 0.63181 0.0
C895 C 0.52473 0.01281 0.64921 0.0
C896 C 0.50473 0.02103 0.65084 0.0
C897 C 0.5623 0.9973 0.64709 0.0
C898 C 0.5569 0.00606 0.66376 0.0
C899 C 0.53818 0.01371 0.66457 0.0
C900 C 0.57086 0.00844 0.68026 0.0
C901 C 0.58256 0.98976 0.64505 0.0
C902 C 0.57893 0.99199 0.6876 0.0
C903 C 0.59271 0.99465 0.70272 0.0
C904 C 0.59845 0.01382 0.71095 0.0
C905 C 0.58982 0.03017 0.70383 0.0
C906 C 0.57624 0.0275 0.68869 0.0
H907 H 0.58614 0.98833 0.63068 0.0
H908 H 0.59438 0.9998 0.65285 0.0
H909 H 0.58282 0.97483 0.65025 0.0
H910 H 0.57464 0.97708 0.68161 0.0
H911 H 0.59889 0.98172 0.7079 0.0
H912 H 0.8705 0.15937 0.72058 0.0
H913 H 0.89631 0.16449 0.74563 0.0
H914 H 0.89158 0.22776 0.74711 0.0
H915 H 0.8653 0.22279 0.72267 0.0
H916 H 0.93344 0.1871 0.74991 0.0
H917 H 0.88142 0.21485 0.79862 0.0
H918 H 0.87293 0.20243 0.77684 0.0
H919 H 0.88183 0.22829 0.77874 0.0
C920 C 0.8749 0.17437 0.72628 0.0
C921 C 0.86568 0.19065 0.71971 0.0
C922 C 0.88975 0.17727 0.7405 0.0
C923 C 0.89557 0.19646 0.74842 0.0
C924 C 0.88702 0.21279 0.7414 0.0
H925 H 0.97365 0.2542 0.83508 0.0
H926 H 0.94932 0.24419 0.8096 0.0
C927 C 0.87216 0.20992 0.72726 0.0
C928 C 0.91015 0.1995 0.76437 0.0
H929 H 0.9159 0.21973 0.80787 0.0
C930 C 0.9296 0.19397 0.76272 0.0
C931 C 0.90503 0.20839 0.78105 0.0
C932 C 0.88412 0.21366 0.78403 0.0
C933 C 0.9443 0.19785 0.77713 0.0
C934 C 0.93927 0.20722 0.79367 0.0
C935 C 0.91972 0.21238 0.79533 0.0
C936 C 0.95417 0.21289 0.80914 0.0
C937 C 0.96525 0.19269 0.77425 0.0
C938 C 0.96486 0.1986 0.81751 0.0
C939 C 0.97882 0.20436 0.83212 0.0
C940 C 0.98179 0.22436 0.83884 0.0
C941 C 0.97115 0.23859 0.83044 0.0
C942 C 0.95737 0.2329 0.81582 0.0
H943 H 0.96769 0.19015 0.75966 0.0
H944 H 0.97629 0.20468 0.78044 0.0
H945 H 0.96806 0.17884 0.78074 0.0
H946 H 0.96235 0.18302 0.81282 0.0
H947 H 0.98709 0.19321 0.8383 0.0
H948 H 0.48849 0.95118 0.48877 0.0
H949 H 0.49575 0.92488 0.46623 0.0
H950 H 0.50255 0.88472 0.5082 0.0
H951 H 0.4958 0.91105 0.53078 0.0
H952 H 0.53158 0.88211 0.48439 0.0
H953 H 0.45676 0.87811 0.44766 0.0
H954 H 0.4702 0.90215 0.44927 0.0
H955 H 0.46234 0.89176 0.4694 0.0
C956 C 0.49154 0.93674 0.49317 0.0
C957 C 0.4914 0.93304 0.5115 0.0
C958 C 0.49562 0.92171 0.48027 0.0
C959 C 0.49939 0.90274 0.48549 0.0
C960 C 0.49965 0.89923 0.50385 0.0
H961 H 0.48353 0.7895 0.42612 0.0
H962 H 0.48313 0.81961 0.44608 0.0
C963 C 0.49571 0.91424 0.51672 0.0
C964 C 0.50263 0.88627 0.47194 0.0
H965 H 0.47972 0.85693 0.43605 0.0
C966 C 0.5203 0.87665 0.47374 0.0
C967 C 0.48782 0.87909 0.45816 0.0
C968 C 0.46813 0.88816 0.45604 0.0
C969 C 0.5234 0.85979 0.46237 0.0
C970 C 0.50856 0.8526 0.44862 0.0
C971 C 0.49111 0.86252 0.44656 0.0
C972 C 0.50997 0.83395 0.43709 0.0
C973 C 0.54212 0.84935 0.46567 0.0
C974 C 0.52538 0.83184 0.42549 0.0
C975 C 0.52578 0.81443 0.4141 0.0
C976 C 0.51061 0.79898 0.41394 0.0
C977 C 0.49541 0.80111 0.42578 0.0
C978 C 0.49512 0.81835 0.43721 0.0
H979 H 0.54979 0.85405 0.47917 0.0
H980 H 0.53877 0.83298 0.46464 0.0
H981 H 0.55254 0.85299 0.45528 0.0
H982 H 0.53681 0.84383 0.42493 0.0
H983 H 0.5376 0.81334 0.40503 0.0
H984 H 0.16042 0.30412 0.72896 0.0
H985 H 0.13438 0.2953 0.749 0.0
H986 H 0.16898 0.328 0.79396 0.0
H987 H 0.19493 0.33705 0.77397 0.0
H988 H 0.13745 0.27428 0.77957 0.0
H989 H 0.11446 0.34992 0.79692 0.0
H990 H 0.12936 0.34432 0.77823 0.0
H991 H 0.14071 0.34787 0.80093 0.0
C992 C 0.16242 0.30952 0.74309 0.0
C993 C 0.17967 0.32133 0.74994 0.0
C994 C 0.14755 0.30447 0.75452 0.0
C995 C 0.14961 0.31125 0.77291 0.0
C996 C 0.16687 0.32296 0.77975 0.0
H997 H 0.08712 0.26185 0.85959 0.0
H998 H 0.11197 0.27346 0.83953 0.0
C999 C 0.18173 0.32801 0.76835 0.0
C1000 C 0.13407 0.30548 0.78512 0.0
H1001 H 0.10223 0.32431 0.81453 0.0
C1002 C 0.12968 0.28521 0.78715 0.0
C1003 C 0.1238 0.31975 0.79485 0.0
C1004 C 0.12715 0.34168 0.79253 0.0
C1005 C 0.11557 0.27883 0.79892 0.0
C1006 C 0.10584 0.29314 0.80916 0.0
C1007 C 0.10991 0.31339 0.80685 0.0
C1008 C 0.09109 0.2873 0.82207 0.0
C1009 C 0.11101 0.25681 0.80009 0.0
C1010 C 0.07127 0.29194 0.81936 0.0
C1011 C 0.05706 0.28547 0.83088 0.0
C1012 C 0.06244 0.2743 0.84539 0.0
C1013 C 0.08247 0.27033 0.84849 0.0
C1014 C 0.09667 0.27683 0.83696 0.0
H1015 H 0.11581 0.24797 0.7882 0.0
H1016 H 0.11908 0.25219 0.81238 0.0
H1017 H 0.09484 0.25318 0.80107 0.0
H1018 H 0.06668 0.30012 0.80802 0.0
H1019 H 0.04177 0.2888 0.82815 0.0
H1020 H 0.54292 0.60822 0.52773 0.0
H1021 H 0.53502 0.63479 0.50838 0.0
H1022 H 0.55598 0.6014 0.46281 0.0
H1023 H 0.56367 0.57473 0.482 0.0
H1024 H 0.56004 0.6577 0.48789 0.0
H1025 H 0.50017 0.61372 0.44413 0.0
H1026 H 0.50974 0.60577 0.46543 0.0
H1027 H 0.52325 0.60221 0.4456 0.0
C1028 C 0.54577 0.60652 0.51358 0.0
C1029 C 0.55377 0.58934 0.5063 0.0
C1030 C 0.54129 0.62172 0.50256 0.0
C1031 C 0.54463 0.61993 0.4841 0.0
C1032 C 0.5529 0.60292 0.47692 0.0
H1033 H 0.54999 0.71233 0.40883 0.0
H1034 H 0.55768 0.68716 0.42963 0.0
C1035 C 0.55737 0.58774 0.4879 0.0
C1036 C 0.53966 0.6359 0.47233 0.0
H1037 H 0.51147 0.64499 0.43443 0.0
C1038 C 0.54936 0.65497 0.47624 0.0
C1039 C 0.52555 0.63236 0.45727 0.0
C1040 C 0.51392 0.61246 0.45291 0.0
C1041 C 0.54561 0.6705 0.46527 0.0
C1042 C 0.53201 0.66676 0.44984 0.0
C1043 C 0.52204 0.64779 0.44615 0.0
C1044 C 0.52756 0.68238 0.4375 0.0
C1045 C 0.556 0.69085 0.47044 0.0
C1046 C 0.50801 0.68777 0.43472 0.0
C1047 C 0.50352 0.70202 0.42275 0.0
C1048 C 0.51849 0.71119 0.4132 0.0
C1049 C 0.53809 0.70571 0.416 0.0
C1050 C 0.54256 0.6914 0.42799 0.0
H1051 H 0.56177 0.69252 0.48486 0.0
H1052 H 0.56883 0.69311 0.46206 0.0
H1053 H 0.54583 0.70268 0.46801 0.0
H1054 H 0.49619 0.68093 0.44185 0.0
H1055 H 0.48824 0.70577 0.42095 0.0
H1056 H 0.90979 0.81993 0.80543 0.0
H1057 H 0.9338 0.81569 0.78245 0.0
H1058 H 0.8866 0.81648 0.74047 0.0
H1059 H 0.86278 0.8213 0.76331 0.0
H1060 H 0.9346 0.78542 0.75843 0.0
H1061 H 0.92848 0.85266 0.72137 0.0
H1062 H 0.91838 0.8503 0.74302 0.0
H1063 H 0.90454 0.83972 0.72256 0.0
C1064 C 0.90465 0.81949 0.79128 0.0
C1065 C 0.88447 0.82102 0.78618 0.0
C1066 C 0.91835 0.8171 0.77817 0.0
C1067 C 0.91212 0.81615 0.75969 0.0
C1068 C 0.89193 0.81779 0.7546 0.0
H1069 H 0.95398 0.74894 0.67256 0.0
H1070 H 0.93739 0.7649 0.69703 0.0
C1071 C 0.87826 0.82035 0.7677 0.0
C1072 C 0.92623 0.8115 0.74577 0.0
H1073 H 0.94177 0.82472 0.70523 0.0
C1074 C 0.93641 0.79425 0.74699 0.0
C1075 C 0.92893 0.82313 0.73093 0.0
C1076 C 0.91966 0.8426 0.72949 0.0
C1077 C 0.94825 0.78773 0.73332 0.0
C1078 C 0.94963 0.79849 0.71781 0.0
C1079 C 0.94045 0.81635 0.71702 0.0
C1080 C 0.95902 0.79028 0.70174 0.0
C1081 C 0.95883 0.76908 0.73543 0.0
C1082 C 0.97623 0.79977 0.69565 0.0
C1083 C 0.98581 0.79068 0.68141 0.0
C1084 C 0.97826 0.77198 0.67318 0.0
C1085 C 0.96044 0.76316 0.67878 0.0
C1086 C 0.95091 0.77224 0.69282 0.0
H1087 H 0.96128 0.76615 0.74988 0.0
H1088 H 0.94957 0.7562 0.72839 0.0
H1089 H 0.97344 0.7701 0.72943 0.0
H1090 H 0.98261 0.81382 0.70229 0.0
H1091 H 0.99948 0.79787 0.67737 0.0
H1092 H 0.03162 0.9235 0.50088 0.0
H1093 H 0.01882 0.89797 0.51986 0.0
H1094 H 0.07495 0.90328 0.55178 0.0
H1095 H 0.08782 0.92867 0.5329 0.0
H1096 H 0.03643 0.86072 0.5265 0.0
H1097 H 0.03241 0.90931 0.58938 0.0
H1098 H 0.03336 0.91889 0.5674 0.0
H1099 H 0.05568 0.91216 0.57916 0.0
C1100 C 0.04118 0.91929 0.512 0.0
C1101 C 0.06071 0.92811 0.51548 0.0
C1102 C 0.03385 0.90471 0.52281 0.0
C1103 C 0.04585 0.89895 0.53737 0.0
C1104 C 0.06533 0.90775 0.54081 0.0
H1105 H 0.04862 0.8158 0.61793 0.0
H1106 H 0.05285 0.84319 0.59861 0.0
C1107 C 0.07269 0.92217 0.52997 0.0
C1108 C 0.03847 0.88324 0.54868 0.0
H1109 H 0.03043 0.87439 0.59227 0.0
C1110 C 0.03481 0.86369 0.54083 0.0
C1111 C 0.03644 0.88721 0.56736 0.0
C1112 C 0.0395 0.90805 0.57634 0.0
C1113 C 0.03011 0.84782 0.55136 0.0
C1114 C 0.02859 0.85171 0.57017 0.0
C1115 C 0.03162 0.87139 0.57787 0.0
C1116 C 0.02521 0.8355 0.5823 0.0
C1117 C 0.0278 0.82694 0.54238 0.0
C1118 C 0.00803 0.82227 0.57984 0.0
C1119 C 0.00561 0.80647 0.59084 0.0
C1120 C 0.02024 0.80375 0.60462 0.0
C1121 C 0.03708 0.81743 0.60743 0.0
C1122 C 0.03952 0.83312 0.59639 0.0
H1123 H 0.03395 0.82611 0.5289 0.0
H1124 H 0.03535 0.81655 0.5509 0.0
H1125 H 0.01175 0.82183 0.54047 0.0
H1126 H 0.99656 0.82407 0.56933 0.0
H1127 H 0.99241 0.79626 0.5884 0.0
H1128 H 0.18143 0.72372 0.77964 0.0
H1129 H 0.15339 0.73109 0.75944 0.0
H1130 H 0.15832 0.67648 0.72684 0.0
H1131 H 0.18673 0.66913 0.74692 0.0
H1132 H 0.15291 0.70853 0.70643 0.0
H1133 H 0.0973 0.70398 0.75777 0.0
H1134 H 0.11846 0.72119 0.76457 0.0
H1135 H 0.12169 0.69507 0.7611 0.0
C1136 C 0.17656 0.71324 0.7682 0.0
C1137 C 0.18615 0.69572 0.76492 0.0
C1138 C 0.16045 0.71745 0.75671 0.0
C1139 C 0.15352 0.70415 0.74184 0.0
C1140 C 0.16335 0.68687 0.73832 0.0
H1141 H 0.0394 0.70129 0.68084 0.0
H1142 H 0.06836 0.69463 0.7002 0.0
C1143 C 0.17953 0.68268 0.74978 0.0
C1144 C 0.13605 0.70833 0.72995 0.0
H1145 H 0.08677 0.71641 0.72997 0.0
C1146 C 0.13843 0.71021 0.71155 0.0
C1147 C 0.11712 0.71026 0.73663 0.0
C1148 C 0.11338 0.70734 0.75605 0.0
C1149 C 0.12243 0.71424 0.69967 0.0
C1150 C 0.10365 0.71679 0.70647 0.0
C1151 C 0.10123 0.71466 0.72483 0.0
C1152 C 0.08615 0.72111 0.69469 0.0
C1153 C 0.12568 0.71531 0.67989 0.0
C1154 C 0.0864 0.73839 0.68535 0.0
C1155 C 0.06986 0.74225 0.67419 0.0
C1156 C 0.05264 0.72898 0.67229 0.0
C1157 C 0.05235 0.71187 0.68196 0.0
C1158 C 0.06892 0.70801 0.69304 0.0
H1159 H 0.13915 0.70797 0.67613 0.0
H1160 H 0.11264 0.70822 0.67125 0.0
H1161 H 0.12776 0.73113 0.67694 0.0
H1162 H 0.09938 0.74894 0.68675 0.0
H1163 H 0.07058 0.75563 0.66706 0.0
H1164 H 0.96285 0.58785 0.48865 0.0
H1165 H 0.96839 0.61878 0.50813 0.0
H1166 H 0.03025 0.60826 0.51781 0.0
H1167 H 0.02481 0.57733 0.49814 0.0
H1168 H 0.98022 0.61759 0.54385 0.0
H1169 H 0.03334 0.66814 0.512 0.0
H1170 H 0.0193 0.6471 0.49956 0.0
H1171 H 0.04104 0.64349 0.51386 0.0
C1172 C 0.97771 0.59232 0.49469 0.0
C1173 C 0.99336 0.58011 0.49204 0.0
C1174 C 0.98088 0.61003 0.50571 0.0
C1175 C 0.99976 0.61592 0.51431 0.0
C1176 C 0.01567 0.60425 0.511 0.0
H1177 H 0.04361 0.70328 0.60231 0.0
H1178 H 0.03943 0.67603 0.57831 0.0
C1179 C 0.01252 0.58654 0.49984 0.0
C1180 C 1.00197 0.63249 0.5287 0.0
H1181 H 0.02744 0.6771 0.54269 0.0
C1182 C 0.99038 0.63072 0.54349 0.0
C1183 C 0.01546 0.64942 0.52832 0.0
C1184 C 0.0279 0.65231 0.51252 0.0
C1185 C 0.99211 0.64521 0.55807 0.0
C1186 C 0.00552 0.66224 0.55782 0.0
C1187 C 0.01714 0.66407 0.54295 0.0
C1188 C 0.00781 0.67819 0.57291 0.0
C1189 C 0.98029 0.64157 0.57404 0.0
C1190 C 0.99145 0.68846 0.57794 0.0
C1191 C 0.99379 0.70379 0.59182 0.0
C1192 C 0.01253 0.70918 0.60087 0.0
C1193 C 0.02893 0.69908 0.59575 0.0
C1194 C 0.02657 0.68363 0.58199 0.0
H1195 H 0.97426 0.62583 0.57394 0.0
H1196 H 0.98991 0.64545 0.58661 0.0
H1197 H 0.96757 0.65103 0.57398 0.0
H1198 H 0.97695 0.68501 0.57081 0.0
H1199 H 0.9811 0.71191 0.59502 0.0
H1200 H 0.75479 0.8697 0.1739 0.0
H1201 H 0.78128 0.89647 0.18044 0.0
H1202 H 0.78331 0.88593 0.23695 0.0
H1203 H 0.75761 0.85856 0.23046 0.0
H1204 H 0.78448 0.93137 0.20284 0.0
H1205 H 0.84049 0.88079 0.22514 0.0
H1206 H 0.81681 0.87172 0.21366 0.0
H1207 H 0.81862 0.87922 0.23748 0.0
C1208 C 0.76098 0.87298 0.18771 0.0
C1209 C 0.75422 0.8618 0.20162 0.0
C1210 C 0.776 0.88839 0.19143 0.0
C1211 C 0.78452 0.89292 0.20912 0.0
C1212 C 0.77722 0.88239 0.22314 0.0
H1213 H 0.87833 0.97263 0.26365 0.0
H1214 H 0.85054 0.94791 0.2545 0.0
C1215 C 0.76233 0.8669 0.21943 0.0
C1216 C 0.80141 0.90827 0.21288 0.0
H1217 H 0.84918 0.9154 0.23121 0.0
C1218 C 0.79876 0.92789 0.20884 0.0
C1219 C 0.82002 0.90364 0.22064 0.0
C1220 C 0.82427 0.88267 0.22432 0.0
C1221 C 0.81407 0.94314 0.21291 0.0
C1222 C 0.83255 0.93852 0.22099 0.0
C1223 C 0.83516 0.91888 0.22485 0.0
C1224 C 0.84922 0.95384 0.22627 0.0
C1225 C 0.81006 0.96412 0.20915 0.0
C1226 C 0.85789 0.96527 0.2134 0.0
C1227 C 0.87383 0.97942 0.21865 0.0
C1228 C 0.88165 0.98186 0.23671 0.0
C1229 C 0.87291 0.97054 0.24954 0.0
C1230 C 0.85695 0.95655 0.24435 0.0
H1231 H 0.79386 0.96595 0.20731 0.0
H1232 H 0.81674 0.97491 0.2203 0.0
H1233 H 0.81682 0.96784 0.19653 0.0
H1234 H 0.85244 0.96314 0.19931 0.0
H1235 H 0.88024 0.98822 0.20861 0.0
H1236 H 0.77586 0.17763 0.28469 0.0
H1237 H 0.80107 0.15409 0.27977 0.0
H1238 H 0.80026 0.1398 0.3352 0.0
H1239 H 0.77464 0.16296 0.34019 0.0
H1240 H 0.83987 0.14764 0.32173 0.0
H1241 H 0.79017 0.09214 0.27766 0.0
H1242 H 0.79028 0.11734 0.2715 0.0
H1243 H 0.78076 0.11106 0.29246 0.0
C1244 C 0.78082 0.16932 0.2958 0.0
C1245 C 0.77305 0.17212 0.31281 0.0
C1246 C 0.79532 0.15594 0.29297 0.0
C1247 C 0.80238 0.14509 0.30707 0.0
C1248 C 0.79499 0.14805 0.32415 0.0
H1249 H 0.86955 0.04084 0.29469 0.0
H1250 H 0.84647 0.06503 0.3043 0.0
C1251 C 0.7804 0.16136 0.32698 0.0
C1252 C 0.8174 0.13055 0.30392 0.0
H1253 H 0.82446 0.08685 0.28008 0.0
C1254 C 0.83653 0.1343 0.31268 0.0
C1255 C 0.8129 0.11309 0.29225 0.0
C1256 C 0.79238 0.10799 0.28301 0.0
C1257 C 0.85143 0.12122 0.30976 0.0
C1258 C 0.84706 0.10403 0.29771 0.0
C1259 C 0.82781 0.10009 0.28925 0.0
C1260 C 0.86223 0.08994 0.29347 0.0
C1261 C 0.87165 0.12578 0.31969 0.0
C1262 C 0.8789 0.09596 0.28437 0.0
C1263 C 0.89213 0.08214 0.27882 0.0
C1264 C 0.8889 0.06204 0.28225 0.0
C1265 C 0.87252 0.0562 0.29188 0.0
C1266 C 0.85928 0.07 0.29734 0.0
H1267 H 0.87122 0.13674 0.33152 0.0
H1268 H 0.87759 0.11204 0.3244 0.0
H1269 H 0.88212 0.13214 0.31039 0.0
H1270 H 0.8813 0.1112 0.28099 0.0
H1271 H 0.90454 0.0871 0.27136 0.0
H1272 H 0.43874 0.00905 0.95527 0.0
H1273 H 0.40912 0.9891 0.96265 0.0
H1274 H 0.42654 1.00109 0.01946 0.0
H1275 H 0.45647 0.02066 0.01226 0.0
H1276 H 0.4073 0.95473 0.98526 0.0
H1277 H 0.36826 0.01921 0.01174 0.0
H1278 H 0.3884 0.02192 0.99711 0.0
H1279 H 0.39359 0.01768 0.02041 0.0
C1280 C 0.43644 0.00724 0.96933 0.0
C1281 C 0.44996 0.01656 0.98317 0.0
C1282 C 0.41945 0.99593 0.97352 0.0
C1283 C 0.41557 0.99386 0.99159 0.0
C1284 C 0.42915 1.0028 0.00544 0.0
H1285 H 0.32168 0.91057 0.02523 0.0
H1286 H 0.35278 0.93185 0.02559 0.0
C1287 C 0.4462 0.01402 1.00128 0.0
C1288 C 0.39723 0.98236 0.99589 0.0
H1289 H 0.35176 0.98734 0.0124 0.0
C1290 C 0.39522 0.96179 0.99134 0.0
C1291 C 0.38151 0.99172 1.00373 0.0
C1292 C 0.38285 0.01387 0.00847 0.0
C1293 C 0.37774 0.95031 0.99426 0.0
C1294 C 0.36195 0.95968 1.00198 0.0
C1295 C 0.36403 0.98022 0.00669 0.0
C1296 C 0.34253 0.94859 1.00361 0.0
C1297 C 0.37594 0.92834 0.98853 0.0
C1298 C 0.32635 0.9515 0.99157 0.0
C1299 C 0.30867 0.93938 0.99127 0.0
C1300 C 0.30678 0.92422 1.00314 0.0
C1301 C 0.32263 0.92215 0.01596 0.0
C1302 C 0.34043 0.9342 0.01613 0.0
H1303 H 0.38858 0.92383 0.98079 0.0
H1304 H 0.37556 0.91983 1.0007 0.0
H1305 H 0.36184 0.9242 0.98008 0.0
H1306 H 0.3277 0.96258 0.98184 0.0
H1307 H 0.29672 0.94146 0.9813 0.0
H1308 H 0.28709 0.36535 0.33851 0.0
H1309 H 0.26135 0.38754 0.33064 0.0
H1310 H 0.26398 0.36909 0.27419 0.0
H1311 H 0.28941 0.34668 0.28191 0.0
H1312 H 0.26726 0.4108 0.28233 0.0
H1313 H 0.20222 0.37419 0.31208 0.0
H1314 H 0.22442 0.379 0.32699 0.0
H1315 H 0.22419 0.36156 0.30755 0.0
C1316 C 0.28194 0.36574 0.32445 0.0
C1317 C 0.29041 0.35428 0.31084 0.0
C1318 C 0.26723 0.37845 0.31997 0.0
C1319 C 0.26066 0.37987 0.30183 0.0
C1320 C 0.26885 0.36824 0.28827 0.0
H1321 H 0.16263 0.43962 0.25429 0.0
H1322 H 0.18539 0.41531 0.26415 0.0
C1323 C 0.28348 0.35552 0.29271 0.0
C1324 C 0.24603 0.39421 0.29682 0.0
H1325 H 0.19796 0.40555 0.30069 0.0
C1326 C 0.25211 0.40965 0.28634 0.0
C1327 C 0.22623 0.39257 0.30194 0.0
C1328 C 0.21873 0.37586 0.31264 0.0
C1329 C 0.23899 0.42362 0.28099 0.0
C1330 C 0.2193 0.42223 0.2864 0.0
C1331 C 0.21312 0.40666 0.29669 0.0
C1332 C 0.20493 0.43675 0.28127 0.0
C1333 C 0.24619 0.4396 0.26935 0.0
C1334 C 0.20818 0.45678 0.2879 0.0
C1335 C 0.1952 0.47067 0.28233 0.0
C1336 C 0.17871 0.46481 0.27001 0.0
C1337 C 0.17523 0.44463 0.26373 0.0
C1338 C 0.18819 0.43072 0.26938 0.0
H1339 H 0.26015 0.43609 0.26316 0.0
H1340 H 0.2347 0.44169 0.2584 0.0
H1341 H 0.24917 0.45388 0.27779 0.0
H1342 H 0.22088 0.46169 0.29726 0.0
H1343 H 0.19828 0.48607 0.28749 0.0
H1344 H 0.11725 1.00146 0.44935 0.0
H1345 H 0.14645 0.02519 0.45542 0.0
H1346 H 0.13186 0.03571 0.51067 0.0
H1347 H 0.10252 0.01194 0.50466 0.0
H1348 H 0.14217 0.06481 0.46627 0.0
H1349 H 0.19272 0.0318 0.51569 0.0
H1350 H 0.17318 0.01716 0.50173 0.0
H1351 H 0.16728 0.03216 0.52129 0.0
C1352 C 0.12038 0.00865 0.46285 0.0
C1353 C 0.1075 0.00499 0.47649 0.0
C1354 C 0.13714 0.02209 0.46633 0.0
C1355 C 0.14143 0.03207 0.48353 0.0
C1356 C 0.12906 0.02786 0.4974 0.0
H1357 H 0.22649 0.13065 0.52528 0.0
H1358 H 0.19959 0.10386 0.52123 0.0
C1359 C 0.11227 0.01434 0.49393 0.0
C1360 C 0.15723 0.04865 0.48615 0.0
H1361 H 0.20095 0.06542 0.51009 0.0
C1362 C 0.15512 0.06488 0.47575 0.0
C1363 C 0.17391 0.0488 0.49871 0.0
C1364 C 0.17708 0.0315 0.50993 0.0
C1365 C 0.16907 0.0814 0.47768 0.0
C1366 C 0.18595 0.08163 0.49009 0.0
C1367 C 0.18805 0.06533 0.50057 0.0
C1368 C 0.20156 0.09858 0.49236 0.0
C1369 C 0.16503 0.09884 0.467 0.0
C1370 C 0.21163 0.10462 0.47752 0.0
C1371 C 0.22671 0.12012 0.4798 0.0
C1372 C 0.23213 0.12979 0.49697 0.0
C1373 C 0.22227 0.12365 0.51185 0.0
C1374 C 0.20701 0.1083 0.50955 0.0
H1375 H 0.14918 0.09849 0.46184 0.0
H1376 H 0.16888 0.11276 0.47564 0.0
H1377 H 0.17425 0.09876 0.45523 0.0
H1378 H 0.20824 0.09699 0.46424 0.0
H1379 H 0.23463 0.12407 0.46824 0.0
H1380 H 0.8203 0.13003 0.69238 0.0
H1381 H 0.79463 0.10369 0.69689 0.0
H1382 H 0.75296 0.14795 0.70674 0.0
H1383 H 0.77831 0.17411 0.70117 0.0
H1384 H 0.77714 0.09613 0.72515 0.0
H1385 H 0.71828 0.11001 0.67347 0.0
H1386 H 0.74304 0.12211 0.67419 0.0
H1387 H 0.72488 0.13184 0.68842 0.0
C1388 C 0.80552 0.134 0.69519 0.0
C1389 C 0.80112 0.15397 0.69625 0.0
C1390 C 0.79088 0.119 0.69781 0.0
C1391 C 0.77168 0.12373 0.70184 0.0
C1392 C 0.76738 0.14378 0.70303 0.0
H1393 H 0.69249 0.04911 0.75967 0.0
H1394 H 0.71832 0.07272 0.75047 0.0
C1395 C 0.78189 0.15874 0.69998 0.0
C1396 C 0.75663 0.10783 0.70596 0.0
H1397 H 0.70812 0.0899 0.69694 0.0
C1398 C 0.76211 0.09466 0.71881 0.0
C1399 C 0.73707 0.1056 0.69752 0.0
C1400 C 0.73055 0.11802 0.68249 0.0
C1401 C 0.74853 0.07966 0.72372 0.0
C1402 C 0.72862 0.07829 0.71617 0.0
C1403 C 0.72326 0.09113 0.703 0.0
C1404 C 0.71305 0.06384 0.72183 0.0
C1405 C 0.7559 0.06523 0.73668 0.0
C1406 C 0.70104 0.05135 0.70883 0.0
C1407 C 0.68583 0.03835 0.71409 0.0
C1408 C 0.6822 0.03789 0.73239 0.0
C1409 C 0.6946 0.04981 0.74542 0.0
C1410 C 0.70963 0.06298 0.74018 0.0
H1411 H 0.7721 0.06374 0.73596 0.0
H1412 H 0.75356 0.07088 0.7507 0.0
H1413 H 0.74792 0.05026 0.73386 0.0
H1414 H 0.70342 0.05166 0.6946 0.0
H1415 H 0.6767 0.02887 0.70387 0.0
H1416 H 0.45477 0.02987 0.51002 0.0
H1417 H 0.42996 0.05271 0.50156 0.0
H1418 H 0.40697 0.05072 0.55408 0.0
H1419 H 0.43134 0.02739 0.56248 0.0
H1420 H 0.37735 0.04594 0.52581 0.0
H1421 H 0.42968 0.11163 0.51862 0.0
H1422 H 0.43482 0.08942 0.50558 0.0
H1423 H 0.43709 0.09032 0.52984 0.0
C1424 C 0.4444 0.03423 0.51977 0.0
C1425 C 0.44511 0.0268 0.53696 0.0
C1426 C 0.43035 0.04746 0.51496 0.0
C1427 C 0.41678 0.05365 0.52727 0.0
C1428 C 0.41739 0.04625 0.54441 0.0
H1429 H 0.34052 0.15033 0.52629 0.0
H1430 H 0.3668 0.12801 0.53131 0.0
C1431 C 0.43144 0.03303 0.54924 0.0
C1432 C 0.40157 0.06742 0.52214 0.0
H1433 H 0.39575 0.11427 0.50943 0.0
C1434 C 0.38137 0.06087 0.5222 0.0
C1435 C 0.40683 0.08696 0.51758 0.0
C1436 C 0.42827 0.09513 0.51803 0.0
C1437 C 0.36628 0.0733 0.5178 0.0
C1438 C 0.37154 0.09272 0.51294 0.0
C1439 C 0.39175 0.0993 0.51294 0.0
C1440 C 0.35627 0.10681 0.50887 0.0
C1441 C 0.34486 0.06571 0.51889 0.0
C1442 C 0.34189 0.10261 0.49425 0.0
C1443 C 0.3268 0.11539 0.49132 0.0
C1444 C 0.32587 0.13263 0.50293 0.0
C1445 C 0.34075 0.13715 0.51712 0.0
C1446 C 0.35581 0.12441 0.52002 0.0
H1447 H 0.34353 0.05235 0.52667 0.0
H1448 H 0.33632 0.07737 0.52531 0.0
H1449 H 0.33794 0.06158 0.50503 0.0
H1450 H 0.34218 0.0893 0.48527 0.0
H1451 H 0.3156 0.11151 0.48024 0.0
H1452 H 0.61773 0.54324 0.54314 0.0
H1453 H 0.64303 0.52118 0.53414 0.0
H1454 H 0.60791 0.47117 0.55133 0.0
H1455 H 0.58225 0.49306 0.55994 0.0
H1456 H 0.66522 0.49612 0.55464 0.0
H1457 H 0.61782 0.45353 0.49873 0.0
H1458 H 0.61134 0.47687 0.5092 0.0
H1459 H 0.60737 0.4544 0.52032 0.0
C1460 C 0.61532 0.52752 0.5449 0.0
C1461 C 0.59788 0.51988 0.5521 0.0
C1462 C 0.62984 0.51496 0.53986 0.0
C1463 C 0.6272 0.4945 0.5418 0.0
C1464 C 0.61008 0.48687 0.54943 0.0
H1465 H 0.71859 0.41052 0.53352 0.0
H1466 H 0.69292 0.43135 0.54383 0.0
C1467 C 0.59554 0.49943 0.55451 0.0
C1468 C 0.64237 0.48119 0.53577 0.0
H1469 H 0.64958 0.44224 0.50562 0.0
C1470 C 0.66181 0.48431 0.54395 0.0
C1471 C 0.63794 0.46598 0.52164 0.0
C1472 C 0.61754 0.46254 0.51182 0.0
C1473 C 0.67691 0.47251 0.53848 0.0
C1474 C 0.67237 0.45702 0.52463 0.0
C1475 C 0.65297 0.45401 0.51634 0.0
C1476 C 0.68766 0.44403 0.51827 0.0
C1477 C 0.6977 0.47699 0.54732 0.0
C1478 C 0.69285 0.44384 0.50032 0.0
C1479 C 0.70748 0.43187 0.49432 0.0
C1480 C 0.71714 0.41975 0.50614 0.0
C1481 C 0.71159 0.41972 0.52405 0.0
C1482 C 0.69698 0.43172 0.53002 0.0
H1483 H 0.69975 0.49211 0.55445 0.0
H1484 H 0.70054 0.46607 0.55741 0.0
H1485 H 0.70895 0.47576 0.53718 0.0
H1486 H 0.68575 0.45315 0.491 0.0
H1487 H 0.71125 0.43222 0.48043 0.0
H1488 H 0.74136 0.25185 0.33749 0.0
H1489 H 0.74059 0.27387 0.36496 0.0
H1490 H 0.74415 0.22363 0.39718 0.0
H1491 H 0.74561 0.20161 0.36961 0.0
H1492 H 0.71385 0.27453 0.38956 0.0
H1493 H 0.78724 0.2614 0.42285 0.0
H1494 H 0.77994 0.25271 0.39968 0.0
H1495 H 0.77075 0.23936 0.41782 0.0
C1496 C 0.74213 0.24555 0.35046 0.0
C1497 C 0.74362 0.22507 0.35147 0.0
C1498 C 0.74164 0.25812 0.36614 0.0
C1499 C 0.74249 0.25047 0.38318 0.0
C1500 C 0.74393 0.22997 0.38424 0.0
H1501 H 0.71513 0.33239 0.47556 0.0
H1502 H 0.7119 0.30424 0.45234 0.0
C1503 C 0.74472 0.21739 0.36851 0.0
C1504 C 0.7415 0.26413 0.39964 0.0
H1505 H 0.76725 0.28223 0.43921 0.0
C1506 C 0.72553 0.27625 0.40044 0.0
C1507 C 0.7567 0.2663 0.41385 0.0
C1508 C 0.77472 0.25439 0.4135 0.0
C1509 C 0.7247 0.29099 0.41464 0.0
C1510 C 0.74003 0.29334 0.4288 0.0
C1511 C 0.75554 0.28058 0.42836 0.0
C1512 C 0.74147 0.30997 0.44328 0.0
C1513 C 0.70782 0.30434 0.41378 0.0
C1514 C 0.75937 0.32203 0.44657 0.0
C1515 C 0.76136 0.33753 0.46013 0.0
C1516 C 0.74529 0.34196 0.47027 0.0
C1517 C 0.72749 0.32969 0.46743 0.0
C1518 C 0.72563 0.31373 0.45408 0.0
H1519 H 0.70107 0.30459 0.39976 0.0
H1520 H 0.69603 0.29874 0.42221 0.0
H1521 H 0.7129 0.31975 0.41895 0.0
H1522 H 0.77193 0.31945 0.43864 0.0
H1523 H 0.77562 0.34604 0.46275 0.0
H1524 H 0.4934 0.99163 0.90026 0.0
H1525 H 0.51338 0.98824 0.87405 0.0
H1526 H 0.55668 0.03365 0.89944 0.0
H1527 H 0.53697 0.03692 0.92569 0.0
H1528 H 0.52365 0.0172 0.85142 0.0
H1529 H 0.59131 0.98941 0.88384 0.0
H1530 H 0.56802 0.98934 0.89438 0.0
H1531 H 0.58418 0.01181 0.89525 0.0
C1532 C 0.50728 1.00074 0.90029 0.0
C1533 C 0.51363 0.01449 0.91501 0.0
C1534 C 0.51866 0.99881 0.88533 0.0
C1535 C 0.53666 0.01049 0.8849 0.0
C1536 C 0.54306 0.02418 0.89964 0.0
H1537 H 0.59941 0.04624 0.7949 0.0
H1538 H 0.57891 0.04287 0.82036 0.0
C1539 C 0.5317 0.02612 0.9146 0.0
C1540 C 0.54819 0.00916 0.86865 0.0
H1541 H 0.59424 1.00129 0.85457 0.0
C1542 C 0.53903 0.01354 0.85207 0.0
C1543 C 0.56817 0.00411 0.86946 0.0
C1544 C 0.57846 0.9982 0.88665 0.0
C1545 C 0.54951 0.01372 0.83643 0.0
C1546 C 0.56978 0.00969 0.83746 0.0
C1547 C 0.57875 0.00457 0.85386 0.0
C1548 C 0.5821 0.01146 0.82183 0.0
C1549 C 0.5388 0.01826 0.81893 0.0
C1550 C 0.59108 0.99498 0.81443 0.0
C1551 C 0.60292 0.99683 0.79983 0.0
C1552 C 0.60614 0.01527 0.79246 0.0
C1553 C 0.5972 0.03176 0.80008 0.0
C1554 C 0.58537 0.02987 0.81461 0.0
H1555 H 0.52241 0.01547 0.81919 0.0
H1556 H 0.54213 0.03418 0.81679 0.0
H1557 H 0.54378 0.00918 0.80728 0.0
H1558 H 0.58885 0.98066 0.81991 0.0
H1559 H 0.60963 0.98384 0.7944 0.0
H1560 H 0.3526 0.31288 0.35954 0.0
H1561 H 0.35184 0.29187 0.38497 0.0
H1562 H 0.28972 0.27463 0.37068 0.0
H1563 H 0.29043 0.29531 0.34508 0.0
H1564 H 0.32738 0.29388 0.4146 0.0
H1565 H 0.31505 0.22114 0.37434 0.0
H1566 H 0.32377 0.24368 0.3648 0.0
H1567 H 0.29777 0.23876 0.36796 0.0
C1568 C 0.33882 0.30448 0.36173 0.0
C1569 C 0.32159 0.30572 0.35024 0.0
C1570 C 0.3384 0.29256 0.37631 0.0
C1571 C 0.32081 0.28146 0.37955 0.0
C1572 C 0.30354 0.28282 0.36824 0.0
H1573 H 0.27139 0.23134 0.46785 0.0
H1574 H 0.28504 0.25271 0.44604 0.0
C1575 C 0.30391 0.29481 0.35373 0.0
C1576 C 0.32027 0.26883 0.39502 0.0
H1577 H 0.3089 0.22129 0.40564 0.0
C1578 C 0.32361 0.27796 0.41266 0.0
C1579 C 0.31573 0.24802 0.39248 0.0
C1580 C 0.31306 0.23725 0.37387 0.0
C1581 C 0.32138 0.26699 0.4278 0.0
C1582 C 0.31553 0.2464 0.42522 0.0
C1583 C 0.31331 0.23708 0.40762 0.0
C1584 C 0.30937 0.23475 0.44032 0.0
C1585 C 0.32489 0.27759 0.44644 0.0
C1586 C 0.31864 0.21757 0.44455 0.0
C1587 C 0.31089 0.2053 0.45721 0.0
C1588 C 0.29353 0.20985 0.4655 0.0
C1589 C 0.2848 0.22745 0.4617 0.0
C1590 C 0.29265 0.23975 0.44929 0.0
H1591 H 0.33504 0.29128 0.44642 0.0
H1592 H 0.31049 0.28203 0.45109 0.0
H1593 H 0.33129 0.26779 0.45626 0.0
H1594 H 0.33148 0.21336 0.43764 0.0
H1595 H 0.31778 0.19172 0.45972 0.0
H1596 H 0.54452 0.53122 0.94395 0.0
H1597 H 0.52653 0.53859 0.91592 0.0
H1598 H 0.51425 0.47587 0.90098 0.0
H1599 H 0.53259 0.4683 0.92884 0.0
H1600 H 0.53611 0.52601 0.88025 0.0
H1601 H 0.45934 0.49918 0.89385 0.0
H1602 H 0.47908 0.50466 0.91156 0.0
H1603 H 0.47771 0.48174 0.89753 0.0
C1604 C 0.53802 0.51895 0.93471 0.0
C1605 C 0.54011 0.49914 0.93863 0.0
C1606 C 0.52766 0.52322 0.91874 0.0
C1607 C 0.51894 0.5078 0.90645 0.0
C1608 C 0.5206 0.48801 0.91044 0.0
H1609 H 0.48412 0.49759 0.79408 0.0
H1610 H 0.50163 0.49965 0.82403 0.0
C1611 C 0.53106 0.4837 0.92639 0.0
C1612 C 0.50899 0.5124 0.88904 0.0
H1613 H 0.46466 0.50623 0.86357 0.0
C1614 C 0.52045 0.52187 0.87666 0.0
C1615 C 0.48851 0.50721 0.8845 0.0
C1616 C 0.47535 0.49779 0.89759 0.0
C1617 C 0.51212 0.52556 0.85953 0.0
C1618 C 0.49186 0.51955 0.85468 0.0
C1619 C 0.48021 0.5108 0.86733 0.0
C1620 C 0.48284 0.52068 0.83609 0.0
C1621 C 0.52509 0.53565 0.84667 0.0
C1622 C 0.46663 0.53209 0.83286 0.0
C1623 C 0.45663 0.53108 0.81563 0.0
C1624 C 0.46249 0.51833 0.8015 0.0
C1625 C 0.47924 0.50758 0.80467 0.0
C1626 C 0.48932 0.50877 0.82178 0.0
H1627 H 0.53846 0.54397 0.85391 0.0
H1628 H 0.5302 0.52424 0.83693 0.0
H1629 H 0.51668 0.54608 0.83888 0.0
H1630 H 0.46134 0.54129 0.84379 0.0
H1631 H 0.44365 0.53937 0.81368 0.0
H1632 H 0.72679 0.77353 0.17592 0.0
H1633 H 0.73264 0.75153 0.1494 0.0
H1634 H 0.73863 0.8022 0.11775 0.0
H1635 H 0.73293 0.82421 0.14415 0.0
H1636 H 0.71288 0.74471 0.11561 0.0
H1637 H 0.79013 0.77622 0.11024 0.0
H1638 H 0.77656 0.78143 0.12989 0.0
H1639 H 0.77235 0.79463 0.11005 0.0
C1640 C 0.72917 0.77994 0.16325 0.0
C1641 C 0.7296 0.80061 0.16215 0.0
C1642 C 0.7326 0.76738 0.14815 0.0
C1643 C 0.73653 0.77528 0.13172 0.0
C1644 C 0.7362 0.79583 0.13043 0.0
H1645 H 0.73071 0.71358 0.02508 0.0
H1646 H 0.72512 0.73389 0.05248 0.0
C1647 C 0.73288 0.80838 0.1455 0.0
C1648 C 0.74092 0.76211 0.11588 0.0
H1649 H 0.77554 0.75474 0.0852 0.0
C1650 C 0.72663 0.74681 0.10901 0.0
C1651 C 0.75901 0.76466 0.10747 0.0
C1652 C 0.77548 0.77999 0.11489 0.0
C1653 C 0.7297 0.73435 0.09366 0.0
C1654 C 0.74737 0.73755 0.08473 0.0
C1655 C 0.76189 0.75248 0.09191 0.0
C1656 C 0.75107 0.72557 0.06793 0.0
C1657 C 0.71409 0.71773 0.08729 0.0
C1658 C 0.76796 0.71473 0.06725 0.0
C1659 C 0.77138 0.70326 0.0515 0.0
C1660 C 0.75797 0.70244 0.03607 0.0
C1661 C 0.7413 0.71372 0.0367 0.0
C1662 C 0.73796 0.72523 0.05243 0.0
H1663 H 0.70461 0.7137 0.0983 0.0
H1664 H 0.70428 0.72262 0.07617 0.0
H1665 H 0.72099 0.70426 0.08211 0.0
H1666 H 0.77836 0.71491 0.07902 0.0
H1667 H 0.78437 0.69481 0.05153 0.0
H1668 H 0.01697 0.04334 0.07948 0.0
H1669 H 0.99939 0.04065 0.10694 0.0
H1670 H 0.05389 0.02862 0.13624 0.0
H1671 H 0.07176 0.03195 0.10896 0.0
H1672 H 0.99466 0.00841 0.12687 0.0
H1673 H 0.03362 0.0724 0.16929 0.0
H1674 H 0.03538 0.06906 0.14516 0.0
H1675 H 0.05003 0.05523 0.16009 0.0
C1676 C 0.02532 0.04044 0.09183 0.0
C1677 C 0.04584 0.03799 0.09201 0.0
C1678 C 0.0152 0.03878 0.10749 0.0
C1679 C 0.02536 0.03474 0.12373 0.0
C1680 C 0.04581 0.03215 0.12397 0.0
H1681 H 0.97339 0.98583 0.21534 0.0
H1682 H 0.992 0.99275 0.18931 0.0
C1683 C 0.05595 0.03381 0.10829 0.0
C1684 C 0.01435 0.03237 0.14016 0.0
H1685 H 0.01248 0.05017 0.18421 0.0
C1686 C 0.99851 0.01761 0.13938 0.0
C1687 C 0.01919 0.04455 0.15642 0.0
C1688 C 0.03536 0.06133 0.15782 0.0
C1689 C 0.98769 0.01438 0.15449 0.0
C1690 C 0.99304 0.02603 0.17095 0.0
C1691 C 0.00855 0.04112 0.17164 0.0
C1692 C 0.98277 0.02251 0.18758 0.0
C1693 C 0.97047 0.99865 0.15264 0.0
C1694 C 0.97198 0.03724 0.19573 0.0
C1695 C 0.96133 0.03339 0.21078 0.0
C1696 C 0.96136 0.01474 0.218 0.0
C1697 C 0.97284 1.00032 0.21014 0.0
C1698 C 0.98345 0.00419 0.19515 0.0
H1699 H 0.96504 0.99484 0.13827 0.0
H1700 H 0.97539 0.98493 0.15825 0.0
H1701 H 0.9579 0.00359 0.16023 0.0
H1702 H 0.97137 0.05154 0.19016 0.0
H1703 H 0.95272 0.04486 0.21647 0.0
H1704 H 0.35647 0.76878 0.16822 0.0
H1705 H 0.34807 0.79132 0.14507 0.0
H1706 H 0.30958 0.74433 0.11566 0.0
H1707 H 0.31761 0.72187 0.13895 0.0
H1708 H 0.35269 0.78935 0.10862 0.0
H1709 H 0.27276 0.78886 0.1215 0.0
H1710 H 0.29083 0.77895 0.13663 0.0
H1711 H 0.28088 0.76457 0.11627 0.0
C1712 C 0.34622 0.76329 0.1568 0.0
C1713 C 0.33754 0.74367 0.15547 0.0
C1714 C 0.34146 0.77614 0.14358 0.0
C1715 C 0.32794 0.76961 0.1288 0.0
C1716 C 0.3197 0.74982 0.12717 0.0
H1717 H 0.3066 0.8287 0.03018 0.0
H1718 H 0.31881 0.80759 0.05312 0.0
C1719 C 0.32438 0.73697 0.14044 0.0
C1720 C 0.32238 0.78359 0.11521 0.0
H1721 H 0.28276 0.80483 0.09593 0.0
C1722 C 0.33741 0.79279 0.10585 0.0
C1723 C 0.30248 0.78829 0.11184 0.0
C1724 C 0.28582 0.77982 0.1222 0.0
C1725 C 0.33304 0.80635 0.09302 0.0
C1726 C 0.31305 0.81054 0.08923 0.0
C1727 C 0.29807 0.80152 0.09876 0.0
C1728 C 0.3072 0.82426 0.07549 0.0
C1729 C 0.34991 0.81634 0.08391 0.0
C1730 C 0.29651 0.8406 0.08039 0.0
C1731 C 0.28934 0.85256 0.06728 0.0
C1732 C 0.2927 0.8484 0.049 0.0
C1733 C 0.30391 0.83239 0.04418 0.0
C1734 C 0.31098 0.82035 0.05729 0.0
H1735 H 0.36438 0.81599 0.09188 0.0
H1736 H 0.35108 0.80839 0.07048 0.0
H1737 H 0.34731 0.83206 0.08187 0.0
H1738 H 0.29338 0.84387 0.09434 0.0
H1739 H 0.28075 0.86477 0.07143 0.0
H1740 H 0.03473 0.49703 0.06476 0.0
H1741 H 0.05326 0.49783 0.09422 0.0
H1742 H 0.99946 0.50682 0.12068 0.0
H1743 H 0.98066 0.50555 0.09117 0.0
H1744 H 0.05768 0.52853 0.12169 0.0
H1745 H 0.02171 0.45957 0.14518 0.0
H1746 H 0.01959 0.46531 0.12184 0.0
H1747 H 0.0048 0.47719 0.13798 0.0
C1748 C 0.02678 0.49899 0.07684 0.0
C1749 C 0.00618 0.50108 0.07562 0.0
C1750 C 0.03741 0.49953 0.09367 0.0
C1751 C 0.02768 0.50206 0.10964 0.0
C1752 C 0.00719 0.50448 0.10852 0.0
H1753 H 0.08214 0.53936 0.21619 0.0
H1754 H 0.0616 0.53475 0.18777 0.0
C1755 C 0.99652 0.50399 0.09166 0.0
C1756 C 0.03922 0.50278 0.12741 0.0
H1757 H 0.04383 0.47958 0.16658 0.0
C1758 C 0.05467 0.51781 0.13149 0.0
C1759 C 0.03544 0.48861 0.14007 0.0
C1760 C 0.01961 0.47163 0.13605 0.0
C1761 C 0.06621 0.51928 0.14801 0.0
C1762 C 0.06204 0.50549 0.1609 0.0
C1763 C 0.04686 0.49021 0.15672 0.0
C1764 C 0.0732 0.50705 0.17887 0.0
C1765 C 0.0829 0.53551 0.15152 0.0
C1766 C 0.08601 0.49257 0.18359 0.0
C1767 C 0.09786 0.49511 0.19994 0.0
C1768 C 0.09699 0.51215 0.21186 0.0
C1769 C 0.08339 0.52611 0.20735 0.0
C1770 C 0.07163 0.52357 0.19106 0.0
H1771 H 0.08713 0.54184 0.13884 0.0
H1772 H 0.07805 0.54769 0.1606 0.0
H1773 H 0.09626 0.52982 0.15827 0.0
H1774 H 0.08733 0.47966 0.17436 0.0
H1775 H 0.10811 0.48404 0.20296 0.0
H1776 H 0.39129 0.68792 0.20529 0.0
H1777 H 0.41989 0.69197 0.22781 0.0
H1778 H 0.38014 0.70039 0.27026 0.0
H1779 H 0.35163 0.69547 0.2479 0.0
H1780 H 0.43377 0.72197 0.24969 0.0
H1781 H 0.41321 0.66095 0.2917 0.0
H1782 H 0.40027 0.66347 0.27007 0.0
H1783 H 0.39365 0.67733 0.29015 0.0
C1784 C 0.38875 0.69048 0.21947 0.0
C1785 C 0.36933 0.69121 0.22494 0.0
C1786 C 0.40504 0.69275 0.23231 0.0
C1787 C 0.40218 0.696 0.25081 0.0
C1788 C 0.38274 0.69715 0.25618 0.0
H1789 H 0.48155 0.75815 0.33358 0.0
H1790 H 0.45828 0.74705 0.30764 0.0
C1791 C 0.36647 0.69452 0.2434 0.0
C1792 C 0.41949 0.69936 0.26441 0.0
H1793 H 0.43694 0.68686 0.30584 0.0
C1794 C 0.43459 0.71406 0.26183 0.0
C1795 C 0.42089 0.68879 0.28011 0.0
C1796 C 0.40623 0.67161 0.28306 0.0
C1797 C 0.45049 0.71912 0.27488 0.0
C1798 C 0.45095 0.70971 0.29125 0.0
C1799 C 0.43642 0.69433 0.29345 0.0
C1800 C 0.46562 0.71638 0.30666 0.0
C1801 C 0.46661 0.7345 0.27093 0.0
C1802 C 0.47715 0.70276 0.31512 0.0
C1803 C 0.49012 0.70905 0.33029 0.0
C1804 C 0.49136 0.72893 0.33738 0.0
C1805 C 0.48033 0.74261 0.32863 0.0
C1806 C 0.46732 0.73634 0.3136 0.0
H1807 H 0.46814 0.73459 0.25616 0.0
H1808 H 0.46259 0.74947 0.27583 0.0
H1809 H 0.48123 0.73184 0.27767 0.0
H1810 H 0.47605 0.68727 0.31001 0.0
H1811 H 0.49886 0.69838 0.33668 0.0
H1812 H 0.98011 0.43664 0.99211 0.0
H1813 H 0.98318 0.40624 0.97287 0.0
H1814 H 0.04664 0.41143 0.98592 0.0
H1815 H 0.04358 0.44162 0.00556 0.0
H1816 H 0.00402 0.40018 0.94299 0.0
H1817 H 0.03164 0.35488 0.99729 0.0
H1818 H 0.02124 0.37834 1.00205 0.0
H1819 H 0.04639 0.37777 0.99566 0.0
C1820 C 0.99472 0.4313 0.9909 0.0
C1821 C 0.01163 0.44142 1.00037 0.0
C1822 C 0.99645 0.41393 0.9799 0.0
C1823 C 0.0151 0.40637 0.97818 0.0
C1824 C 0.03205 0.41671 0.98737 0.0
H1825 H 0.04306 0.30082 0.91058 0.0
H1826 H 0.04676 0.33253 0.92935 0.0
C1827 C 0.03031 0.43401 0.99846 0.0
C1828 C 0.0167 0.38781 0.9666 0.0
H1829 H 0.02997 0.34008 0.96733 0.0
C1830 C 0.00977 0.38708 0.94831 0.0
C1831 C 0.02426 0.37072 0.97355 0.0
C1832 C 0.03115 0.37032 0.99324 0.0
C1833 C 0.00995 0.36966 0.93687 0.0
C1834 C 0.01716 0.35253 0.9439 0.0
C1835 C 0.02459 0.35334 0.96202 0.0
C1836 C 0.01534 0.33321 0.93302 0.0
C1837 C 1.00214 0.36952 0.91737 0.0
C1838 C 0.99654 0.32306 0.9292 0.0
C1839 C 0.99437 0.305 0.91868 0.0
C1840 C 0.011 0.29668 0.91165 0.0
C1841 C 0.02995 0.30679 0.91572 0.0
C1842 C 0.0321 0.32489 0.92643 0.0
H1843 H 1.00086 0.3848 0.91313 0.0
H1844 H 0.01199 0.36167 0.90837 0.0
H1845 H 0.98715 0.36142 0.91553 0.0
H1846 H 0.98347 0.32921 0.93431 0.0
H1847 H 0.97953 0.29775 0.91585 0.0
H1848 H 0.67118 0.85628 0.25405 0.0
H1849 H 0.64972 0.84653 0.27763 0.0
H1850 H 0.65592 0.78474 0.26201 0.0
H1851 H 0.67713 0.79442 0.23819 0.0
H1852 H 0.61726 0.79236 0.26628 0.0
H1853 H 0.66553 0.82534 0.32583 0.0
H1854 H 0.66044 0.84285 0.30949 0.0
H1855 H 0.67443 0.82203 0.30356 0.0
C1856 C 0.668 0.84062 0.2557 0.0
C1857 C 0.67582 0.82613 0.24432 0.0
C1858 C 0.65588 0.83507 0.26926 0.0
C1859 C 0.65152 0.81492 0.27181 0.0
C1860 C 0.65922 0.80039 0.26036 0.0
H1861 H 0.59261 0.7673 0.36195 0.0
H1862 H 0.61712 0.77785 0.34107 0.0
C1863 C 0.67132 0.80594 0.24675 0.0
C1864 C 0.6382 0.80902 0.28589 0.0
H1865 H 0.63201 0.81494 0.33114 0.0
C1866 C 0.62054 0.7972 0.28047 0.0
C1867 C 0.64262 0.81513 0.30444 0.0
C1868 C 0.66188 0.82687 0.31124 0.0
C1869 C 0.60696 0.79173 0.29301 0.0
C1870 C 0.61094 0.7986 0.31145 0.0
C1871 C 0.62884 0.80996 0.31697 0.0
C1872 C 0.59671 0.79392 0.32515 0.0
C1873 C 0.58856 0.77845 0.28643 0.0
C1874 C 0.57735 0.80012 0.32355 0.0
C1875 C 0.56334 0.79411 0.33541 0.0
C1876 C 0.56847 0.78191 0.34922 0.0
C1877 C 0.58819 0.77667 0.35145 0.0
C1878 C 0.6022 0.78265 0.33951 0.0
H1879 H 0.59034 0.77028 0.27319 0.0
H1880 H 0.58494 0.76747 0.29632 0.0
H1881 H 0.57577 0.78768 0.28468 0.0
H1882 H 0.57294 0.80921 0.31282 0.0
H1883 H 0.54832 0.79852 0.3334 0.0
H1884 H 0.04527 0.10603 0.02828 0.0
H1885 H 0.03632 0.13255 0.00924 0.0
H1886 H 0.05458 0.09884 0.96258 0.0
H1887 H 0.06337 0.07224 0.98148 0.0
H1888 H 0.06035 0.15512 0.98712 0.0
H1889 H 0.99753 0.1113 0.94696 0.0
H1890 H 0.00831 0.10367 0.96796 0.0
H1891 H 0.02049 0.09952 0.94743 0.0
C1892 C 0.04733 0.10426 0.01396 0.0
C1893 C 0.05488 0.08701 0.0063 0.0
C1894 C 0.04224 0.11943 1.00312 0.0
C1895 C 0.04451 0.11752 0.98446 0.0
C1896 C 0.05235 0.10045 0.97688 0.0
H1897 H 0.04584 0.20765 0.90735 0.0
H1898 H 0.05431 0.18288 0.92828 0.0
C1899 C 0.05745 0.08532 0.98769 0.0
C1900 C 0.03882 0.13341 0.97288 0.0
H1901 H 0.00819 0.14237 0.93646 0.0
C1902 C 0.04889 0.15238 0.97609 0.0
C1903 C 0.0237 0.12986 0.95864 0.0
C1904 C 0.01173 0.11005 0.9551 0.0
C1905 C 0.04453 0.1678 0.96516 0.0
C1906 C 0.0299 0.16403 0.95052 0.0
C1907 C 0.01954 0.14517 0.94758 0.0
C1908 C 0.02496 0.17945 0.93815 0.0
C1909 C 0.05546 0.18803 0.96951 0.0
C1910 C 0.00555 0.18548 0.93647 0.0
C1911 C 1.00061 0.19956 0.92445 0.0
C1912 C 0.01497 0.20784 0.91373 0.0
C1913 C 0.03442 0.2017 0.91542 0.0
C1914 C 0.03934 0.18761 0.92748 0.0
H1915 H 0.06228 0.18986 0.98361 0.0
H1916 H 0.06758 0.18991 0.96029 0.0
H1917 H 0.04533 0.2 0.96757 0.0
H1918 H 0.9942 0.17928 0.9445 0.0
H1919 H 0.98546 0.20383 0.9235 0.0
H1920 H 0.40449 0.29769 0.29734 0.0
H1921 H 0.42612 0.2933 0.27251 0.0
H1922 H 0.39177 0.33187 0.24145 0.0
H1923 H 0.3698 0.33589 0.26606 0.0
H1924 H 0.39757 0.29872 0.22169 0.0
H1925 H 0.46985 0.32939 0.25555 0.0
H1926 H 0.45837 0.31046 0.26791 0.0
H1927 H 0.44651 0.33314 0.26524 0.0
C1928 C 0.4017 0.30537 0.28527 0.0
C1929 C 0.38548 0.3171 0.28364 0.0
C1930 C 0.41416 0.30301 0.27115 0.0
C1931 C 0.41083 0.31257 0.25522 0.0
C1932 C 0.39473 0.32447 0.25366 0.0
H1933 H 0.49466 0.30054 0.16952 0.0
H1934 H 0.47431 0.31584 0.19205 0.0
C1935 C 0.38217 0.32673 0.26774 0.0
C1936 C 0.42322 0.30889 0.23974 0.0
H1937 H 0.47132 0.30772 0.22844 0.0
C1938 C 0.41368 0.30099 0.22311 0.0
C1939 C 0.44423 0.31218 0.24141 0.0
C1940 C 0.45531 0.32196 0.25845 0.0
C1941 C 0.42461 0.29528 0.20848 0.0
C1942 C 0.44564 0.29713 0.21063 0.0
C1943 C 0.45519 0.30607 0.22688 0.0
C1944 C 0.45786 0.28828 0.19678 0.0
C1945 C 0.4135 0.28701 0.19092 0.0
C1946 C 0.45556 0.26773 0.19219 0.0
C1947 C 0.46707 0.25899 0.17944 0.0
C1948 C 0.48135 0.27056 0.17099 0.0
C1949 C 0.48378 0.29119 0.17569 0.0
C1950 C 0.47219 0.29996 0.18857 0.0
H1951 H 0.3984 0.29247 0.1895 0.0
H1952 H 0.42171 0.29107 0.17913 0.0
H1953 H 0.41169 0.27056 0.19066 0.0
H1954 H 0.44491 0.25837 0.19864 0.0
H1955 H 0.46473 0.24307 0.17626 0.0
H1956 H 0.52682 0.43115 1.00217 0.0
H1957 H 0.51493 0.40547 0.02145 0.0
H1958 H 0.57295 0.40883 0.04999 0.0
H1959 H 0.58494 0.43426 0.03074 0.0
H1960 H 0.53396 0.36719 0.02653 0.0
H1961 H 0.53178 0.41562 0.0899 0.0
H1962 H 0.53077 0.42512 0.06781 0.0
H1963 H 0.55406 0.419 0.07819 0.0
C1964 C 0.53699 0.42646 0.0126 0.0
C1965 C 0.55681 0.43471 0.01502 0.0
C1966 C 0.53019 0.4118 0.02358 0.0
C1967 C 0.54301 0.40546 0.03726 0.0
C1968 C 0.56276 0.41373 0.03967 0.0
H1969 H 0.54985 0.32247 0.1177 0.0
H1970 H 0.55266 0.35026 0.09867 0.0
C1971 C 0.56959 0.42817 0.02863 0.0
C1972 C 0.53621 0.38969 0.04872 0.0
H1973 H 0.52972 0.38074 0.09256 0.0
C1974 C 0.53271 0.37012 0.04092 0.0
C1975 C 0.53474 0.39363 0.06748 0.0
C1976 C 0.53787 0.4145 0.07639 0.0
C1977 C 0.5287 0.35419 0.05156 0.0
C1978 C 0.52764 0.35806 0.07045 0.0
C1979 C 0.53052 0.37777 0.07811 0.0
C1980 C 0.52496 0.3418 0.08265 0.0
C1981 C 0.52665 0.3333 0.0426 0.0
C1982 C 0.50818 0.32805 0.08033 0.0
C1983 C 0.5066 0.31201 0.09114 0.0
C1984 C 0.52166 0.30959 0.10462 0.0
C1985 C 0.538 0.32388 0.10743 0.0
C1986 C 0.53963 0.33979 0.09655 0.0
H1987 H 0.5326 0.3326 0.02903 0.0
H1988 H 0.53456 0.32306 0.05101 0.0
H1989 H 0.51067 0.32791 0.04086 0.0
H1990 H 0.49642 0.32957 0.07001 0.0
H1991 H 0.49375 0.30134 0.08872 0.0
H1992 H 0.70864 0.19383 0.23594 0.0
H1993 H 0.68071 0.20147 0.21542 0.0
H1994 H 0.64742 0.2167 0.26123 0.0
H1995 H 0.6753 0.20955 0.2817 0.0
H1996 H 0.64254 0.18538 0.21075 0.0
H1997 H 0.64352 0.26537 0.23317 0.0
H1998 H 0.66358 0.25046 0.23935 0.0
H1999 H 0.64141 0.24971 0.25147 0.0
C2000 C 0.69535 0.19887 0.24158 0.0
C2001 C 0.69423 0.20128 0.26038 0.0
C2002 C 0.67944 0.20323 0.22988 0.0
C2003 C 0.66214 0.21007 0.2368 0.0
C2004 C 0.66082 0.21199 0.25558 0.0
H2005 H 0.54546 0.20819 0.18079 0.0
H2006 H 0.57494 0.20211 0.19973 0.0
C2007 C 0.67675 0.20776 0.26728 0.0
C2008 C 0.64526 0.21476 0.22441 0.0
H2009 H 0.61474 0.25124 0.21492 0.0
C2010 C 0.63655 0.19982 0.21157 0.0
C2011 C 0.63765 0.23372 0.22528 0.0
C2012 C 0.64715 0.2508 0.23793 0.0
C2013 C 0.62009 0.20314 0.19994 0.0
C2014 C 0.61184 0.22177 0.20146 0.0
C2015 C 0.6209 0.23688 0.21393 0.0
C2016 C 0.59377 0.22585 0.19027 0.0
C2017 C 0.61186 0.18672 0.18598 0.0
C2018 C 0.5943 0.24172 0.17915 0.0
C2019 C 0.57735 0.24544 0.16845 0.0
C2020 C 0.55951 0.23335 0.16867 0.0
C2021 C 0.55895 0.21772 0.18013 0.0
C2022 C 0.57586 0.2141 0.1909 0.0
H2023 H 0.62315 0.17604 0.18297 0.0
H2024 H 0.59904 0.17836 0.19124 0.0
H2025 H 0.60665 0.19278 0.17318 0.0
H2026 H 0.60793 0.25107 0.17856 0.0
H2027 H 0.57836 0.2576 0.15981 0.0
H2028 H 0.48985 0.06548 0.0224 0.0
H2029 H 0.498 0.09643 0.04128 0.0
H2030 H 0.51357 0.1263 0.9944 0.0
H2031 H 0.50438 0.0956 0.9752 0.0
H2032 H 0.53248 0.11944 0.04769 0.0
H2033 H 0.47482 0.1625 0.01563 0.0
H2034 H 0.47515 0.13599 0.01104 0.0
H2035 H 0.49185 0.15267 1.00044 0.0
C2036 C 0.49473 0.07868 0.01602 0.0
C2037 C 0.49619 0.07807 0.99722 0.0
C2038 C 0.49957 0.09633 0.02688 0.0
C2039 C 0.50607 0.11378 0.01923 0.0
C2040 C 0.50816 0.11314 1.00055 0.0
H2041 H 0.55363 0.21491 0.09615 0.0
H2042 H 0.55177 0.18776 0.07226 0.0
C2043 C 0.50315 0.09549 0.98963 0.0
C2044 C 0.51061 0.1325 0.03097 0.0
H2045 H 0.49663 0.17958 0.03862 0.0
C2046 C 0.52461 0.13262 0.0458 0.0
C2047 C 0.50039 0.14966 0.02839 0.0
C2048 C 0.48459 0.15024 0.01311 0.0
C2049 C 0.52825 0.14913 0.05849 0.0
C2050 C 0.51786 0.16636 0.05606 0.0
C2051 C 0.50443 0.16642 0.04075 0.0
C2052 C 0.51952 0.18395 0.06963 0.0
C2053 C 0.54284 0.14739 0.07447 0.0
C2054 C 0.50215 0.19218 0.07512 0.0
C2055 C 0.50331 0.20835 0.08806 0.0
C2056 C 0.52173 0.21597 0.09651 0.0
C2057 C 0.53917 0.20857 0.09043 0.0
C2058 C 0.53808 0.19291 0.07691 0.0
H2059 H 0.55791 0.15297 0.07114 0.0
H2060 H 0.53901 0.15606 0.08673 0.0
H2061 H 0.54361 0.13167 0.07766 0.0
H2062 H 0.48759 0.18598 0.06954 0.0
H2063 H 0.48977 0.2148 0.09158 0.0
H2064 H 0.25738 0.35883 0.73158 0.0
H2065 H 0.28386 0.38564 0.73772 0.0
H2066 H 0.27818 0.3989 0.68191 0.0
H2067 H 0.25134 0.37237 0.67572 0.0
H2068 H 0.31956 0.38569 0.71952 0.0
H2069 H 0.28088 0.45435 0.7104 0.0
H2070 H 0.26782 0.43107 0.71463 0.0
H2071 H 0.27603 0.43474 0.6926 0.0
C2072 C 0.26142 0.36776 0.72071 0.0
C2073 C 0.25229 0.36346 0.70316 0.0
C2074 C 0.27661 0.383 0.72422 0.0
C2075 C 0.28283 0.39435 0.71031 0.0
C2076 C 0.27338 0.39051 0.69289 0.0
H2077 H 0.38087 0.48641 0.7092 0.0
H2078 H 0.35335 0.46105 0.69993 0.0
C2079 C 0.25821 0.37522 0.68934 0.0
C2080 C 0.30047 0.40882 0.71371 0.0
H2081 H 0.31603 0.45813 0.71505 0.0
C2082 C 0.31879 0.40154 0.71858 0.0
C2083 C 0.29942 0.42942 0.71221 0.0
C2084 C 0.27998 0.43798 0.7073 0.0
C2085 C 0.33612 0.41432 0.72209 0.0
C2086 C 0.3351 0.43499 0.72106 0.0
C2087 C 0.31681 0.44227 0.71585 0.0
C2088 C 0.35264 0.44934 0.72618 0.0
C2089 C 0.35547 0.40554 0.72657 0.0
C2090 C 0.36136 0.45113 0.74396 0.0
C2091 C 0.37699 0.46553 0.74921 0.0
C2092 C 0.38438 0.47824 0.73674 0.0
C2093 C 0.37571 0.47645 0.71894 0.0
C2094 C 0.35998 0.46206 0.71368 0.0
H2095 H 0.3547 0.38936 0.72246 0.0
H2096 H 0.3676 0.41313 0.71972 0.0
H2097 H 0.35911 0.40763 0.74139 0.0
H2098 H 0.35562 0.44184 0.75396 0.0
H2099 H 0.38276 0.46726 0.76323 0.0
H2100 H 0.27083 0.66058 0.84069 0.0
H2101 H 0.29648 0.63773 0.83475 0.0
H2102 H 0.29821 0.65564 0.78047 0.0
H2103 H 0.27293 0.67886 0.78637 0.0
H2104 H 0.29422 0.61331 0.78353 0.0
H2105 H 0.35673 0.65177 0.82849 0.0
H2106 H 0.33353 0.64753 0.83862 0.0
H2107 H 0.33523 0.66416 0.82099 0.0
C2108 C 0.27688 0.65991 0.82758 0.0
C2109 C 0.26976 0.67159 0.81401 0.0
C2110 C 0.29152 0.64681 0.8242 0.0
C2111 C 0.29935 0.64512 0.80722 0.0
C2112 C 0.29235 0.65673 0.79367 0.0
H2113 H 0.39975 0.58652 0.7688 0.0
H2114 H 0.37615 0.61028 0.77834 0.0
C2115 C 0.2778 0.6699 0.79704 0.0
C2116 C 0.31433 0.63074 0.80331 0.0
H2117 H 0.36218 0.62034 0.81429 0.0
C2118 C 0.30907 0.61481 0.79027 0.0
C2119 C 0.33372 0.63285 0.81204 0.0
C2120 C 0.3403 0.65006 0.82573 0.0
C2121 C 0.32266 0.60084 0.78579 0.0
C2122 C 0.34197 0.60278 0.79469 0.0
C2123 C 0.3473 0.6188 0.80763 0.0
C2124 C 0.35697 0.58863 0.79022 0.0
C2125 C 0.31641 0.58429 0.77133 0.0
C2126 C 0.35425 0.56869 0.79415 0.0
C2127 C 0.36775 0.55508 0.78879 0.0
C2128 C 0.3842 0.56119 0.77937 0.0
C2129 C 0.38721 0.58132 0.77598 0.0
C2130 C 0.37376 0.59493 0.78144 0.0
H2131 H 0.30249 0.58707 0.7634 0.0
H2132 H 0.32832 0.58239 0.76192 0.0
H2133 H 0.31378 0.57014 0.77774 0.0
H2134 H 0.3415 0.56359 0.80111 0.0
H2135 H 0.36502 0.53969 0.79163 0.0
H2136 H 0.95672 0.52327 0.51202 0.0
H2137 H 0.92715 0.50368 0.51996 0.0
H2138 H 0.91275 0.48445 0.46373 0.0
H2139 H 0.94204 0.50434 0.45558 0.0
H2140 H 0.88688 0.50807 0.50686 0.0
H2141 H 0.90998 0.43229 0.48999 0.0
H2142 H 0.92751 0.45396 0.49358 0.0
H2143 H 0.91281 0.44893 0.47246 0.0
C2144 C 0.94724 0.51492 0.50131 0.0
C2145 C 0.95174 0.51543 0.48314 0.0
C2146 C 0.93042 0.50366 0.5059 0.0
C2147 C 0.9179 0.49249 0.49245 0.0
C2148 C 0.92244 0.4927 0.47434 0.0
H2149 H 0.79748 0.44631 0.4819 0.0
H2150 H 0.82905 0.46657 0.48365 0.0
C2151 C 0.93922 0.50405 0.46972 0.0
C2152 C 0.89955 0.48134 0.49722 0.0
H2153 H 0.87565 0.43487 0.49462 0.0
C2154 C 0.88449 0.49204 0.50439 0.0
C2155 C 0.8966 0.46043 0.49421 0.0
C2156 C 0.91263 0.44815 0.48729 0.0
C2157 C 0.86616 0.48243 0.50784 0.0
C2158 C 0.86284 0.46164 0.50394 0.0
C2159 C 0.87823 0.45084 0.49755 0.0
C2160 C 0.84302 0.45102 0.50485 0.0
C2161 C 0.85038 0.4946 0.51538 0.0
C2162 C 0.84032 0.43568 0.51636 0.0
C2163 C 0.82217 0.42409 0.51548 0.0
C2164 C 0.8066 0.42745 0.50281 0.0
C2165 C 0.80917 0.44332 0.4918 0.0
C2166 C 0.82718 0.45499 0.49283 0.0
H2167 H 0.85689 0.50903 0.52218 0.0
H2168 H 0.8397 0.49778 0.50416 0.0
H2169 H 0.84198 0.48638 0.52517 0.0
H2170 H 0.85244 0.43232 0.52564 0.0
H2171 H 0.82072 0.41186 0.52402 0.0
H2172 H 0.78027 0.85817 0.83672 0.0
H2173 H 0.7535 0.87913 0.82875 0.0
H2174 H 0.75634 0.86032 0.77239 0.0
H2175 H 0.78295 0.83922 0.78022 0.0
H2176 H 0.75865 0.90127 0.77945 0.0
H2177 H 0.69463 0.86573 0.81126 0.0
H2178 H 0.71676 0.87123 0.82615 0.0
H2179 H 0.71678 0.85322 0.80714 0.0
C2180 C 0.77491 0.85816 0.82266 0.0
C2181 C 0.78383 0.84708 0.8091 0.0
C2182 C 0.75958 0.87014 0.81813 0.0
C2183 C 0.75279 0.87115 0.79999 0.0
C2184 C 0.76133 0.85975 0.78648 0.0
H2185 H 0.65525 0.9346 0.75472 0.0
H2186 H 0.6765 0.90868 0.76397 0.0
C2187 C 0.77663 0.84779 0.79098 0.0
C2188 C 0.73794 0.88526 0.79491 0.0
H2189 H 0.69045 0.89759 0.80049 0.0
C2190 C 0.74371 0.90039 0.78398 0.0
C2191 C 0.7184 0.884 0.8007 0.0
C2192 C 0.71115 0.86757 0.81183 0.0
C2193 C 0.73063 0.91452 0.77899 0.0
C2194 C 0.71132 0.91366 0.78526 0.0
C2195 C 0.70534 0.89829 0.79585 0.0
C2196 C 0.69737 0.92887 0.78105 0.0
C2197 C 0.73755 0.93026 0.76698 0.0
C2198 C 0.70178 0.94866 0.788 0.0
C2199 C 0.68972 0.96344 0.78279 0.0
C2200 C 0.67296 0.95871 0.77052 0.0
C2201 C 0.66808 0.93872 0.76415 0.0
C2202 C 0.68018 0.9239 0.76943 0.0
H2203 H 0.75093 0.92625 0.76007 0.0
H2204 H 0.72558 0.93271 0.75659 0.0
H2205 H 0.74142 0.9445 0.77531 0.0
H2206 H 0.71485 0.95275 0.79716 0.0
H2207 H 0.69386 0.97866 0.78803 0.0
H2208 H 0.58902 0.54295 0.97435 0.0
H2209 H 0.62024 0.5634 0.98159 0.0
H2210 H 0.64907 0.51187 0.99711 0.0
H2211 H 0.61809 0.49106 0.98905 0.0
H2212 H 0.64307 0.57069 0.01342 0.0
H2213 H 0.68596 0.53372 0.96132 0.0
H2214 H 0.65932 0.52933 0.96152 0.0
H2215 H 0.6755 0.51756 0.97689 0.0
C2216 C 0.60205 0.53588 0.97908 0.0
C2217 C 0.60107 0.5153 0.98092 0.0
C2218 C 0.61985 0.54764 0.98336 0.0
C2219 C 0.63707 0.53912 0.98962 0.0
C2220 C 0.63607 0.51869 0.99195 0.0
H2221 H 0.73919 0.62335 0.03156 0.0
H2222 H 0.71194 0.5972 0.03041 0.0
C2223 C 0.61827 0.50687 0.98756 0.0
C2224 C 0.65596 0.55181 0.99363 0.0
H2225 H 0.70319 0.5593 0.98072 0.0
C2226 C 0.65626 0.5683 0.00625 0.0
C2227 C 0.67311 0.54853 0.98434 0.0
C2228 C 0.67351 0.53143 0.97015 0.0
C2229 C 0.67297 0.58205 0.00944 0.0
C2230 C 0.69017 0.57899 0.99994 0.0
C2231 C 0.69005 0.56194 0.98785 0.0
C2232 C 0.70788 0.59378 1.00114 0.0
C2233 C 0.67147 0.59981 0.02267 0.0
C2234 C 0.71599 0.59948 0.9852 0.0
C2235 C 0.73218 0.61366 0.98594 0.0
C2236 C 0.73998 0.62322 1.00253 0.0
C2237 C 0.73273 0.61685 0.01853 0.0
C2238 C 0.71701 0.60204 0.01786 0.0
H2239 H 0.65579 0.60348 0.02355 0.0
H2240 H 0.67715 0.59628 0.03631 0.0
H2241 H 0.68022 0.61315 0.01902 0.0
H2242 H 0.70965 0.59315 0.97207 0.0
H2243 H 0.73847 0.61732 0.9735 0.0
H2244 H 0.30357 0.66492 0.23346 0.0
H2245 H 0.27618 0.64086 0.23846 0.0
H2246 H 0.2683 0.6239 0.18123 0.0
H2247 H 0.29627 0.64753 0.17614 0.0
H2248 H 0.23724 0.64022 0.22461 0.0
H2249 H 0.27001 0.57017 0.20302 0.0
H2250 H 0.28479 0.59356 0.20775 0.0
H2251 H 0.26993 0.58846 0.18673 0.0
C2252 C 0.29626 0.65585 0.22194 0.0
C2253 C 0.30224 0.65802 0.20441 0.0
C2254 C 0.28052 0.64219 0.22482 0.0
C2255 C 0.27042 0.63037 0.21026 0.0
C2256 C 0.27617 0.63259 0.1927 0.0
H2257 H 0.17137 0.53943 0.20732 0.0
H2258 H 0.19635 0.56474 0.19906 0.0
C2259 C 0.29198 0.64627 0.1898 0.0
C2260 C 0.2533 0.61644 0.21355 0.0
H2261 H 0.23648 0.56736 0.21047 0.0
C2262 C 0.23708 0.62428 0.22154 0.0
C2263 C 0.2531 0.59568 0.20943 0.0
C2264 C 0.27044 0.58638 0.2014 0.0
C2265 C 0.22064 0.61194 0.22554 0.0
C2266 C 0.22046 0.59115 0.22167 0.0
C2267 C 0.23658 0.58331 0.21342 0.0
C2268 C 0.204 0.57719 0.22651 0.0
C2269 C 0.2034 0.62132 0.2335 0.0
C2270 C 0.19991 0.57585 0.24467 0.0
C2271 C 0.18561 0.56147 0.24936 0.0
C2272 C 0.17506 0.54832 0.23597 0.0
C2273 C 0.17905 0.54972 0.21782 0.0
C2274 C 0.19333 0.5641 0.21312 0.0
H2275 H 0.20379 0.63751 0.2318 0.0
H2276 H 0.18923 0.61407 0.22696 0.0
H2277 H 0.20386 0.61929 0.24817 0.0
H2278 H 0.20832 0.58538 0.2553 0.0
H2279 H 0.18339 0.56011 0.2635 0.0
H2280 H 0.96291 0.52949 0.00528 0.0
H2281 H 0.93755 0.5522 0.99811 0.0
H2282 H 0.91678 0.54886 0.05139 0.0
H2283 H 0.94171 0.52558 0.0585 0.0
H2284 H 0.88616 0.54468 0.02428 0.0
H2285 H 0.93761 0.61069 0.01616 0.0
H2286 H 0.94236 0.58883 1.00243 0.0
H2287 H 0.94564 0.58915 0.02664 0.0
C2288 C 0.95288 0.53347 0.01546 0.0
C2289 C 0.95438 0.52568 0.03248 0.0
C2290 C 0.93854 0.54666 0.0114 0.0
C2291 C 0.92546 0.55248 0.0243 0.0
C2292 C 0.92682 0.54468 0.04127 0.0
H2293 H 0.84813 0.64879 0.02503 0.0
H2294 H 0.87497 0.62699 0.02969 0.0
C2295 C 0.94117 0.53148 0.04535 0.0
C2296 C 0.91002 0.56628 0.01995 0.0
H2297 H 0.90344 0.61311 0.00754 0.0
C2298 C 0.88993 0.55965 0.02063 0.0
C2299 C 0.91498 0.58588 0.01537 0.0
C2300 C 0.93632 0.59418 0.01525 0.0
C2301 C 0.87464 0.572 0.01671 0.0
C2302 C 0.87957 0.59142 0.01167 0.0
C2303 C 0.89967 0.59813 0.01116 0.0
C2304 C 0.86407 0.6053 0.00775 0.0
C2305 C 0.85337 0.5643 0.01842 0.0
C2306 C 0.84934 0.60067 0.99348 0.0
C2307 C 0.83394 0.61313 0.99077 0.0
C2308 C 0.83305 0.63049 1.00223 0.0
C2309 C 0.84833 0.63552 0.01598 0.0
C2310 C 0.8637 0.62306 0.01868 0.0
H2311 H 0.85244 0.55113 0.02648 0.0
H2312 H 0.84489 0.576 0.02486 0.0
H2313 H 0.84609 0.55981 0.00475 0.0
H2314 H 0.84957 0.58724 0.98464 0.0
H2315 H 0.82245 0.60886 0.98002 0.0
H2316 H 0.08681 0.01085 0.02121 0.0
H2317 H 0.11255 0.9891 0.01287 0.0
H2318 H 0.1346 0.99071 0.06874 0.0
H2319 H 0.1092 0.01296 0.07723 0.0
H2320 H 0.15572 0.99859 0.02091 0.0
H2321 H 0.12636 0.93006 0.05029 0.0
H2322 H 0.11089 0.94984 0.04508 0.0
H2323 H 0.12816 0.95281 0.06468 0.0
C2324 C 0.09719 0.00672 0.03176 0.0
C2325 C 0.09595 0.01379 0.04991 0.0
C2326 C 0.11182 0.99418 0.02695 0.0
C2327 C 0.12537 0.98821 0.04019 0.0
C2328 C 0.12409 0.99495 0.05835 0.0
H2329 H 0.2232 0.91195 0.03553 0.0
H2330 H 0.19723 0.93294 0.04484 0.0
C2331 C 0.10952 0.00762 0.06317 0.0
C2332 C 0.14127 0.97548 0.03484 0.0
H2333 H 0.15734 0.92907 0.03752 0.0
C2334 C 0.15609 0.98337 0.0245 0.0
C2335 C 0.14174 0.95571 0.03965 0.0
C2336 C 0.1259 0.94645 0.05044 0.0
C2337 C 0.17155 0.97208 0.019 0.0
C2338 C 0.17187 0.95214 0.02354 0.0
C2339 C 0.15706 0.94431 0.03398 0.0
C2340 C 0.1875 0.93922 0.01769 0.0
C2341 C 0.18765 0.98181 0.00877 0.0
C2342 C 0.1905 0.93546 0.99929 0.0
C2343 C 0.20546 0.92358 0.9939 0.0
C2344 C 0.21758 0.91493 0.0068 0.0
C2345 C 0.21419 0.91835 0.0252 0.0
C2346 C 0.19933 0.93036 0.03057 0.0
H2347 H 0.18848 0.99828 0.01106 0.0
H2348 H 0.20244 0.97671 0.01279 0.0
H2349 H 0.18431 0.97785 0.99408 0.0
H2350 H 0.18121 0.94168 0.98906 0.0
H2351 H 0.20746 0.9211 0.97961 0.0
loop_
_geom_bond_atom_site_label_1
_geom_bond_atom_site_label_2
_geom_bond_distance
_geom_bond_site_symmetry_2
_ccdc_geom_bond_type
H0 C5 0.930 . S
H1 C8 0.930 . S
H2 C10 0.930 . S
H3 C4 1.016 1_556 S
C4 H3 1.016 1_554 S
C4 N11 1.286 . S
C5 H0 0.930 . S
C5 C6 1.397 . S
C5 C7 1.361 . S
C6 C5 1.397 . S
C6 C10 1.390 . S
C7 C5 1.361 . S
C7 C8 1.393 . S
C7 N11 1.413 . S
C8 H1 0.930 . S
C8 C7 1.393 . S
C8 C9 1.399 . S
C9 C8 1.399 . S
C9 C10 1.381 . S
C10 H2 0.930 . S
C10 C6 1.390 . S
C10 C9 1.381 . S
N11 C4 1.286 . S
N11 C7 1.413 . S
H12 C17 0.930 . S
H13 C20 0.930 . S
H14 C22 0.930 . S
H15 C16 1.016 . S
C16 H15 1.016 . S
C16 N23 1.286 . S
C17 H12 0.930 . S
C17 C18 1.397 . S
C17 C19 1.361 . S
C18 C17 1.397 . S
C18 C22 1.390 . S
C19 C17 1.361 . S
C19 C20 1.393 . S
C19 N23 1.413 . S
C20 H13 0.930 . S
C20 C19 1.393 . S
C20 C21 1.399 . S
C21 C20 1.399 . S
C21 C22 1.381 . S
C22 H14 0.930 . S
C22 C18 1.390 . S
C22 C21 1.381 . S
N23 C16 1.286 . S
N23 C19 1.413 . S
H24 C29 0.930 . S
H25 C32 0.930 . S
H26 C34 0.930 . S
H27 C28 1.016 . S
C28 H27 1.016 . S
C28 N35 1.286 . S
C29 H24 0.930 . S
C29 C30 1.397 . S
C29 C31 1.361 . S
C30 C29 1.397 . S
C30 C34 1.390 . S
C31 C29 1.361 . S
C31 C32 1.393 . S
C31 N35 1.413 . S
C32 H25 0.930 . S
C32 C31 1.393 . S
C32 C33 1.399 . S
C33 C32 1.399 . S
C33 C34 1.381 . S
C34 H26 0.930 . S
C34 C30 1.390 . S
C34 C33 1.381 . S
N35 C28 1.286 . S
N35 C31 1.413 . S
H36 C41 0.930 . S
H37 C44 0.930 . S
H38 C46 0.930 . S
H39 C40 1.016 . S
C40 H39 1.016 . S
C40 N47 1.286 . S
C41 H36 0.930 . S
C41 C42 1.397 . S
C41 C43 1.361 . S
C42 C41 1.397 . S
C42 C46 1.390 . S
C43 C41 1.361 . S
C43 C44 1.393 . S
C43 N47 1.413 . S
C44 H37 0.930 . S
C44 C43 1.393 . S
C44 C45 1.399 . S
C45 C44 1.399 . S
C45 C46 1.381 . S
C46 H38 0.930 . S
C46 C42 1.390 . S
C46 C45 1.381 . S
N47 C40 1.286 . S
N47 C43 1.413 . S
H48 C53 0.930 . S
H49 C56 0.930 . S
H50 C58 0.930 1_545 S
H51 C52 1.016 . S
C52 H51 1.016 . S
C52 N59 1.286 . S
C53 H48 0.930 . S
C53 C54 1.397 . S
C53 C55 1.361 . S
C54 C53 1.397 . S
C54 C58 1.390 . S
C55 C53 1.361 . S
C55 C56 1.393 . S
C55 N59 1.413 . S
C56 H49 0.930 . S
C56 C55 1.393 . S
C56 C57 1.399 . S
C57 C56 1.399 . S
C57 C58 1.381 . S
C58 H50 0.930 1_565 S
C58 C54 1.390 . S
C58 C57 1.381 . S
N59 C52 1.286 . S
N59 C55 1.413 . S
H60 C65 0.930 . S
H61 C68 0.930 . S
H62 C70 0.930 . S
H63 C64 1.016 . S
C64 H63 1.016 . S
C64 N71 1.286 . S
C65 H60 0.930 . S
C65 C66 1.397 . S
C65 C67 1.361 . S
C66 C65 1.397 . S
C66 C70 1.390 . S
C67 C65 1.361 . S
C67 C68 1.393 . S
C67 N71 1.413 . S
C68 H61 0.930 . S
C68 C67 1.393 . S
C68 C69 1.399 . S
C69 C68 1.399 . S
C69 C70 1.381 . S
C70 H62 0.930 . S
C70 C66 1.390 . S
C70 C69 1.381 . S
N71 C64 1.286 . S
N71 C67 1.413 . S
H72 C77 0.930 . S
H73 C80 0.930 . S
H74 C82 0.930 . S
H75 C76 1.016 . S
C76 H75 1.016 . S
C76 N83 1.286 . S
C77 H72 0.930 . S
C77 C78 1.397 1_455 S
C77 C79 1.360 1_455 S
C78 C77 1.397 1_655 S
C78 C82 1.390 . S
C79 C77 1.360 1_655 S
C79 C80 1.414 . S
C79 N83 1.393 1_655 S
C80 H73 0.930 . S
C80 C79 1.414 . S
C80 C81 1.399 . S
C81 C80 1.399 . S
C81 C82 1.381 . S
C82 H74 0.930 . S
C82 C78 1.390 . S
C82 C81 1.381 . S
N83 C76 1.286 . S
N83 C79 1.393 1_455 S
H84 C89 0.930 . S
H85 C92 0.930 . S
H86 C94 0.930 . S
H87 C88 1.016 . S
C88 H87 1.016 . S
C88 N95 1.286 . S
C89 H84 0.930 . S
C89 C90 1.397 . S
C89 C91 1.361 . S
C90 C89 1.397 . S
C90 C94 1.390 . S
C91 C89 1.361 . S
C91 C92 1.393 . S
C91 N95 1.413 . S
C92 H85 0.930 . S
C92 C91 1.393 . S
C92 C93 1.399 . S
C93 C92 1.399 . S
C93 C94 1.381 . S
C94 H86 0.930 . S
C94 C90 1.390 . S
C94 C93 1.381 . S
N95 C88 1.286 . S
N95 C91 1.413 . S
H96 C101 0.930 . S
H97 C104 0.930 . S
H98 C106 0.930 . S
H99 C100 1.016 . S
C100 H99 1.016 . S
C100 N107 1.286 . S
C101 H96 0.930 . S
C101 C102 1.397 . S
C101 C103 1.361 . S
C102 C101 1.397 . S
C102 C106 1.390 . S
C103 C101 1.361 . S
C103 C104 1.393 . S
C103 N107 1.413 . S
C104 H97 0.930 . S
C104 C103 1.393 . S
C104 C105 1.399 . S
C105 C104 1.399 . S
C105 C106 1.381 . S
C106 H98 0.930 . S
C106 C102 1.390 . S
C106 C105 1.381 . S
N107 C100 1.286 . S
N107 C103 1.413 . S
H108 C113 0.930 . S
H109 C116 0.930 . S
H110 C118 0.930 1_545 S
H111 C112 1.016 . S
C112 H111 1.016 . S
C112 N119 1.286 . S
C113 H108 0.930 . S
C113 C114 1.397 . S
C113 C115 1.361 . S
C114 C113 1.397 . S
C114 C118 1.390 . S
C115 C113 1.361 . S
C115 C116 1.393 . S
C115 N119 1.413 . S
C116 H109 0.930 . S
C116 C115 1.393 . S
C116 C117 1.399 . S
C117 C116 1.399 . S
C117 C118 1.381 . S
C118 H110 0.930 1_565 S
C118 C114 1.390 . S
C118 C117 1.381 . S
N119 C112 1.286 . S
N119 C115 1.413 . S
H120 C125 0.930 . S
H121 C128 0.930 . S
H122 C130 0.930 . S
H123 C124 1.016 . S
C124 H123 1.016 . S
C124 N131 1.286 . S
C125 H120 0.930 . S
C125 C126 1.397 . S
C125 C127 1.361 . S
C126 C125 1.397 . S
C126 C130 1.390 . S
C127 C125 1.361 . S
C127 C128 1.393 . S
C127 N131 1.413 . S
C128 H121 0.930 . S
C128 C127 1.393 . S
C128 C129 1.399 . S
C129 C128 1.399 . S
C129 C130 1.381 . S
C130 H122 0.930 . S
C130 C126 1.390 . S
C130 C129 1.381 . S
N131 C124 1.286 . S
N131 C127 1.413 . S
H132 C137 0.930 . S
H133 C140 0.930 . S
H134 C142 0.930 . S
H135 C136 1.016 . S
C136 H135 1.016 . S
C136 N143 1.286 . S
C137 H132 0.930 . S
C137 C138 1.397 . S
C137 C139 1.361 . S
C138 C137 1.397 . S
C138 C142 1.390 . S
C139 C137 1.361 . S
C139 C140 1.393 . S
C139 N143 1.413 . S
C140 H133 0.930 . S
C140 C139 1.393 . S
C140 C141 1.399 . S
C141 C140 1.399 . S
C141 C142 1.381 . S
C142 H134 0.930 . S
C142 C138 1.390 . S
C142 C141 1.381 . S
N143 C136 1.286 . S
N143 C139 1.413 . S
H144 C149 0.930 . S
H145 C152 0.930 . S
H146 C154 0.930 . S
H147 C148 1.016 . S
C148 H147 1.016 . S
C148 N155 1.286 . S
C149 H144 0.930 . S
C149 C150 1.397 . S
C149 C151 1.361 . S
C150 C149 1.397 . S
C150 C154 1.390 . S
C151 C149 1.361 . S
C151 C152 1.393 . S
C151 N155 1.413 . S
C152 H145 0.930 . S
C152 C151 1.393 . S
C152 C153 1.399 . S
C153 C152 1.399 . S
C153 C154 1.381 . S
C154 H146 0.930 . S
C154 C150 1.390 . S
C154 C153 1.381 . S
N155 C148 1.286 . S
N155 C151 1.413 . S
H156 C161 0.930 . S
H157 C164 0.930 . S
H158 C166 0.930 . S
H159 C160 1.016 1_554 S
C160 H159 1.016 1_556 S
C160 N167 1.286 . S
C161 H156 0.930 . S
C161 C162 1.397 . S
C161 C163 1.361 . S
C162 C161 1.397 . S
C162 C166 1.390 . S
C163 C161 1.361 . S
C163 C164 1.393 . S
C163 N167 1.413 . S
C164 H157 0.930 . S
C164 C163 1.393 . S
C164 C165 1.399 . S
C165 C164 1.399 . S
C165 C166 1.381 . S
C166 H158 0.930 . S
C166 C162 1.390 . S
C166 C165 1.381 . S
N167 C160 1.286 . S
N167 C163 1.413 . S
H168 C173 0.930 . S
H169 C176 0.930 . S
H170 C178 0.930 . S
H171 C172 1.016 . S
C172 H171 1.016 . S
C172 N179 1.286 . S
C173 H168 0.930 . S
C173 C174 1.397 . S
C173 C175 1.361 . S
C174 C173 1.397 . S
C174 C178 1.390 . S
C175 C173 1.361 . S
C175 C176 1.393 . S
C175 N179 1.413 . S
C176 H169 0.930 . S
C176 C175 1.393 . S
C176 C177 1.399 . S
C177 C176 1.399 . S
C177 C178 1.381 . S
C178 H170 0.930 . S
C178 C174 1.390 . S
C178 C177 1.381 . S
N179 C172 1.286 . S
N179 C175 1.413 . S
H180 C185 0.930 . S
H181 C188 0.930 . S
H182 C190 0.930 . S
H183 C184 1.016 . S
C184 H183 1.016 . S
C184 N191 1.286 . S
C185 H180 0.930 . S
C185 C186 1.397 . S
C185 C187 1.361 . S
C186 C185 1.397 . S
C186 C190 1.390 . S
C187 C185 1.361 . S
C187 C188 1.393 . S
C187 N191 1.413 . S
C188 H181 0.930 . S
C188 C187 1.393 . S
C188 C189 1.399 . S
C189 C188 1.399 . S
C189 C190 1.381 . S
C190 H182 0.930 . S
C190 C186 1.390 . S
C190 C189 1.381 . S
N191 C184 1.286 . S
N191 C187 1.413 . S
Mn192 O197 2.095 . S
Mn192 O207 2.162 . S
Mn192 O208 2.297 . S
Mn192 O216 2.385 . S
Mn192 O217 2.209 1_554 S
Mn192 O218 2.094 . S
Mn193 O198 2.121 . S
Mn193 N200 2.257 . S
Mn193 N209 2.282 . S
Mn193 O217 2.215 . S
Mn193 O219 2.117 1_556 S
C194 O216 1.234 1_556 S
C194 O217 1.283 . S
C195 O207 1.281 . S
C195 O208 1.236 . S
C196 O218 1.240 . S
C196 O219 1.264 . S
O197 Mn192 2.095 . S
O197 C206 1.250 . S
O198 Mn193 2.121 . S
O198 C206 1.258 1_556 S
C199 N200 1.326 . S
C199 C203 1.460 . S
C199 H205 0.929 . S
N200 Mn193 2.257 . S
N200 C199 1.326 . S
N200 C204 1.362 . S
C201 C202 1.258 . S
C201 C204 1.431 . S
C201 C221 1.449 . S
C202 C201 1.258 . S
C202 C203 1.477 . S
C202 H222 0.931 . S
C203 C199 1.460 . S
C203 C202 1.477 . S
C203 H223 0.930 . S
C204 N200 1.362 . S
C204 C201 1.431 . S
C204 C214 1.476 . S
H205 C199 0.929 . S
C206 O197 1.250 . S
C206 O198 1.258 1_554 S
O207 Mn192 2.162 . S
O207 C195 1.281 . S
O208 Mn192 2.297 . S
O208 C195 1.236 . S
N209 Mn193 2.282 . S
N209 C210 1.328 . S
N209 C214 1.318 . S
C210 N209 1.328 . S
C210 C211 1.457 . S
C210 H215 0.929 . S
C211 C210 1.457 . S
C211 C212 1.291 . S
C211 H224 0.931 . S
C212 C211 1.291 . S
C212 C213 1.373 . S
C212 H225 0.929 . S
C213 C212 1.373 . S
C213 C214 1.396 . S
C213 C220 1.403 . S
C214 C204 1.476 . S
C214 N209 1.318 . S
C214 C213 1.396 . S
H215 C210 0.929 . S
O216 Mn192 2.385 . S
O216 C194 1.234 1_554 S
O217 Mn192 2.209 1_556 S
O217 Mn193 2.215 . S
O217 C194 1.283 . S
O218 Mn192 2.094 . S
O218 C196 1.240 . S
O219 Mn193 2.117 1_554 S
O219 C196 1.264 . S
C220 C213 1.403 . S
C220 C221 1.399 . S
C220 H226 0.929 . S
C221 C201 1.449 . S
C221 C220 1.399 . S
C221 H227 0.930 . S
H222 C202 0.931 . S
H223 C203 0.930 . S
H224 C211 0.931 . S
H225 C212 0.929 . S
H226 C220 0.929 . S
H227 C221 0.930 . S
Mn228 O233 2.095 . S
Mn228 O243 2.162 . S
Mn228 O244 2.297 . S
Mn228 O252 2.385 . S
Mn228 O253 2.209 . S
Mn228 O254 2.094 . S
Mn229 O234 2.121 . S
Mn229 N236 2.257 . S
Mn229 N245 2.282 . S
Mn229 O253 2.215 . S
Mn229 O255 2.117 . S
C230 O252 1.234 . S
C230 O253 1.283 . S
C231 O243 1.281 . S
C231 O244 1.236 . S
C232 O254 1.240 . S
C232 O255 1.264 . S
O233 Mn228 2.095 . S
O233 C242 1.250 . S
O234 Mn229 2.121 . S
O234 C242 1.258 . S
C235 N236 1.326 . S
C235 C239 1.460 . S
C235 H241 0.929 . S
N236 Mn229 2.257 . S
N236 C235 1.326 . S
N236 C240 1.362 . S
C237 C238 1.258 . S
C237 C240 1.431 . S
C237 C257 1.449 . S
C238 C237 1.258 . S
C238 C239 1.477 . S
C238 H258 0.931 . S
C239 C235 1.460 . S
C239 C238 1.477 . S
C239 H259 0.930 . S
C240 N236 1.362 . S
C240 C237 1.431 . S
C240 C250 1.476 . S
H241 C235 0.929 . S
C242 O233 1.250 . S
C242 O234 1.258 . S
O243 Mn228 2.162 . S
O243 C231 1.281 . S
O244 Mn228 2.297 . S
O244 C231 1.236 . S
N245 Mn229 2.282 . S
N245 C246 1.328 . S
N245 C250 1.318 . S
C246 N245 1.328 . S
C246 C247 1.457 . S
C246 H251 0.929 . S
C247 C246 1.457 . S
C247 C248 1.291 . S
C247 H260 0.931 . S
C248 C247 1.291 . S
C248 C249 1.373 . S
C248 H261 0.929 . S
C249 C248 1.373 . S
C249 C250 1.396 . S
C249 C256 1.403 . S
C250 C240 1.476 . S
C250 N245 1.318 . S
C250 C249 1.396 . S
H251 C246 0.929 . S
O252 Mn228 2.385 . S
O252 C230 1.234 . S
O253 Mn228 2.209 . S
O253 Mn229 2.215 . S
O253 C230 1.283 . S
O254 Mn228 2.094 . S
O254 C232 1.240 . S
O255 Mn229 2.117 . S
O255 C232 1.264 . S
C256 C249 1.403 . S
C256 C257 1.399 . S
C256 H262 0.929 . S
C257 C237 1.449 . S
C257 C256 1.399 . S
C257 H263 0.930 . S
H258 C238 0.931 . S
H259 C239 0.930 . S
H260 C247 0.931 . S
H261 C248 0.929 . S
H262 C256 0.929 . S
H263 C257 0.930 . S
Mn264 O269 2.095 1_554 S
Mn264 O279 2.162 . S
Mn264 O280 2.297 1_554 S
Mn264 O288 2.385 . S
Mn264 O289 2.209 1_554 S
Mn264 O290 2.094 . S
Mn265 O270 2.121 . S
Mn265 N272 2.257 . S
Mn265 N281 2.267 1_556 S
Mn265 O289 2.215 . S
Mn265 O291 2.117 1_556 S
C266 O288 1.234 . S
C266 O289 1.283 1_554 S
C267 O279 1.281 . S
C267 O280 1.236 1_554 S
C268 O290 1.240 . S
C268 O291 1.264 . S
O269 Mn264 2.095 1_556 S
O269 C278 1.250 . S
O270 Mn265 2.121 . S
O270 C278 1.258 . S
C271 N272 1.326 . S
C271 C275 1.460 . S
C271 H277 0.929 . S
N272 Mn265 2.257 . S
N272 C271 1.326 . S
N272 C276 1.362 . S
C273 C274 1.258 . S
C273 C276 1.431 . S
C273 C293 1.449 . S
C274 C273 1.258 . S
C274 C275 1.477 . S
C274 H294 0.931 . S
C275 C271 1.460 . S
C275 C274 1.477 . S
C275 H295 0.930 . S
C276 N272 1.362 . S
C276 C273 1.431 . S
C276 C286 1.476 . S
H277 C271 0.929 . S
C278 O269 1.250 . S
C278 O270 1.258 . S
O279 Mn264 2.162 . S
O279 C267 1.281 . S
O280 Mn264 2.297 1_556 S
O280 C267 1.236 1_556 S
N281 Mn265 2.267 1_554 S
N281 C282 1.362 . S
N281 C286 1.297 1_554 S
C282 N281 1.362 . S
C282 C283 1.457 . S
C282 H287 0.929 . S
C283 C282 1.457 . S
C283 C284 1.291 . S
C283 H296 0.931 . S
C284 C283 1.291 . S
C284 C285 1.373 1_554 S
C284 H297 0.929 . S
C285 C284 1.373 1_556 S
C285 C286 1.396 . S
C285 C292 1.403 . S
C286 C276 1.476 . S
C286 N281 1.297 1_556 S
C286 C285 1.396 . S
H287 C282 0.929 . S
O288 Mn264 2.385 . S
O288 C266 1.234 . S
O289 Mn264 2.209 1_556 S
O289 Mn265 2.215 . S
O289 C266 1.283 1_556 S
O290 Mn264 2.094 . S
O290 C268 1.240 . S
O291 Mn265 2.117 1_554 S
O291 C268 1.264 . S
C292 C285 1.403 . S
C292 C293 1.399 . S
C292 H298 0.929 . S
C293 C273 1.449 . S
C293 C292 1.399 . S
C293 H299 0.930 . S
H294 C274 0.931 . S
H295 C275 0.930 . S
H296 C283 0.931 . S
H297 C284 0.929 . S
H298 C292 0.929 . S
H299 C293 0.930 . S
Mn300 O305 2.095 . S
Mn300 O315 2.162 . S
Mn300 O316 2.297 . S
Mn300 O324 2.385 . S
Mn300 O325 2.209 . S
Mn300 O326 2.094 . S
Mn301 O306 2.121 1_565 S
Mn301 N308 2.257 . S
Mn301 N317 2.282 . S
Mn301 O325 2.215 1_565 S
Mn301 O327 2.117 1_565 S
C302 O324 1.234 . S
C302 O325 1.283 . S
C303 O315 1.281 . S
C303 O316 1.236 . S
C304 O326 1.240 . S
C304 O327 1.264 . S
O305 Mn300 2.095 . S
O305 C314 1.250 . S
O306 Mn301 2.121 1_545 S
O306 C314 1.258 . S
C307 N308 1.326 . S
C307 C311 1.460 . S
C307 H313 0.929 . S
N308 Mn301 2.257 . S
N308 C307 1.326 . S
N308 C312 1.362 . S
C309 C310 1.258 . S
C309 C312 1.431 . S
C309 C329 1.449 . S
C310 C309 1.258 . S
C310 C311 1.477 . S
C310 H330 0.931 . S
C311 C307 1.460 . S
C311 C310 1.477 . S
C311 H331 0.930 . S
C312 N308 1.362 . S
C312 C309 1.431 . S
C312 C322 1.476 . S
H313 C307 0.929 . S
C314 O305 1.250 . S
C314 O306 1.258 . S
O315 Mn300 2.162 . S
O315 C303 1.281 . S
O316 Mn300 2.297 . S
O316 C303 1.236 . S
N317 Mn301 2.282 . S
N317 C318 1.328 . S
N317 C322 1.318 . S
C318 N317 1.328 . S
C318 C319 1.457 . S
C318 H323 0.929 . S
C319 C318 1.457 . S
C319 C320 1.291 . S
C319 H332 0.931 . S
C320 C319 1.291 . S
C320 C321 1.373 . S
C320 H333 0.929 . S
C321 C320 1.373 . S
C321 C322 1.396 . S
C321 C328 1.403 . S
C322 C312 1.476 . S
C322 N317 1.318 . S
C322 C321 1.396 . S
H323 C318 0.929 . S
O324 Mn300 2.385 . S
O324 C302 1.234 . S
O325 Mn300 2.209 . S
O325 Mn301 2.215 1_545 S
O325 C302 1.283 . S
O326 Mn300 2.094 . S
O326 C304 1.240 . S
O327 Mn301 2.117 1_545 S
O327 C304 1.264 . S
C328 C321 1.403 . S
C328 C329 1.399 . S
C328 H334 0.929 . S
C329 C309 1.449 . S
C329 C328 1.399 . S
C329 H335 0.930 . S
H330 C310 0.931 . S
H331 C311 0.930 . S
H332 C319 0.931 . S
H333 C320 0.929 . S
H334 C328 0.929 . S
H335 C329 0.930 . S
Mn336 O341 2.095 . S
Mn336 O351 2.162 . S
Mn336 O352 2.297 . S
Mn336 O360 2.385 . S
Mn336 O361 2.209 . S
Mn336 O362 2.094 . S
Mn337 O342 2.121 . S
Mn337 N344 2.257 . S
Mn337 N353 2.282 . S
Mn337 O361 2.215 . S
Mn337 O363 2.117 . S
C338 O360 1.234 . S
C338 O361 1.283 . S
C339 O351 1.281 . S
C339 O352 1.236 . S
C340 O362 1.240 . S
C340 O363 1.264 . S
O341 Mn336 2.095 . S
O341 C350 1.250 . S
O342 Mn337 2.121 . S
O342 C350 1.258 . S
C343 N344 1.326 . S
C343 C347 1.460 . S
C343 H349 0.929 . S
N344 Mn337 2.257 . S
N344 C343 1.326 . S
N344 C348 1.362 . S
C345 C346 1.258 . S
C345 C348 1.431 . S
C345 C365 1.449 . S
C346 C345 1.258 . S
C346 C347 1.477 . S
C346 H366 0.931 . S
C347 C343 1.460 . S
C347 C346 1.477 . S
C347 H367 0.930 . S
C348 N344 1.362 . S
C348 C345 1.431 . S
C348 C358 1.476 . S
H349 C343 0.929 . S
C350 O341 1.250 . S
C350 O342 1.258 . S
O351 Mn336 2.162 . S
O351 C339 1.281 . S
O352 Mn336 2.297 . S
O352 C339 1.236 . S
N353 Mn337 2.282 . S
N353 C354 1.328 . S
N353 C358 1.318 . S
C354 N353 1.328 . S
C354 C355 1.457 . S
C354 H359 0.929 . S
C355 C354 1.457 . S
C355 C356 1.291 . S
C355 H368 0.931 . S
C356 C355 1.291 . S
C356 C357 1.373 . S
C356 H369 0.929 . S
C357 C356 1.373 . S
C357 C358 1.396 . S
C357 C364 1.403 . S
C358 C348 1.476 . S
C358 N353 1.318 . S
C358 C357 1.396 . S
H359 C354 0.929 . S
O360 Mn336 2.385 . S
O360 C338 1.234 . S
O361 Mn336 2.209 . S
O361 Mn337 2.215 . S
O361 C338 1.283 . S
O362 Mn336 2.094 . S
O362 C340 1.240 . S
O363 Mn337 2.117 . S
O363 C340 1.264 . S
C364 C357 1.403 . S
C364 C365 1.399 . S
C364 H370 0.929 . S
C365 C345 1.449 . S
C365 C364 1.399 . S
C365 H371 0.930 . S
H366 C346 0.931 . S
H367 C347 0.930 . S
H368 C355 0.931 . S
H369 C356 0.929 . S
H370 C364 0.929 . S
H371 C365 0.930 . S
Mn372 O377 2.095 . S
Mn372 O387 2.162 . S
Mn372 O388 2.297 . S
Mn372 O396 2.385 . S
Mn372 O397 2.209 . S
Mn372 O398 2.094 . S
Mn373 O378 2.121 . S
Mn373 N380 2.257 . S
Mn373 N389 2.282 . S
Mn373 O397 2.215 . S
Mn373 O399 2.117 . S
C374 O396 1.234 . S
C374 O397 1.283 . S
C375 O387 1.281 . S
C375 O388 1.236 . S
C376 O398 1.240 . S
C376 O399 1.264 . S
O377 Mn372 2.095 . S
O377 C386 1.250 . S
O378 Mn373 2.121 . S
O378 C386 1.258 . S
C379 N380 1.326 . S
C379 C383 1.460 . S
C379 H385 0.929 . S
N380 Mn373 2.257 . S
N380 C379 1.326 . S
N380 C384 1.362 . S
C381 C382 1.258 . S
C381 C384 1.431 . S
C381 C401 1.449 . S
C382 C381 1.258 . S
C382 C383 1.477 . S
C382 H402 0.931 . S
C383 C379 1.460 . S
C383 C382 1.477 . S
C383 H403 0.930 . S
C384 N380 1.362 . S
C384 C381 1.431 . S
C384 C394 1.476 . S
H385 C379 0.929 . S
C386 O377 1.250 . S
C386 O378 1.258 . S
O387 Mn372 2.162 . S
O387 C375 1.281 . S
O388 Mn372 2.297 . S
O388 C375 1.236 . S
N389 Mn373 2.282 . S
N389 C390 1.328 . S
N389 C394 1.318 . S
C390 N389 1.328 . S
C390 C391 1.457 . S
C390 H395 0.929 . S
C391 C390 1.457 . S
C391 C392 1.291 . S
C391 H404 0.931 . S
C392 C391 1.291 . S
C392 C393 1.373 . S
C392 H405 0.929 . S
C393 C392 1.373 . S
C393 C394 1.396 . S
C393 C400 1.403 . S
C394 C384 1.476 . S
C394 N389 1.318 . S
C394 C393 1.396 . S
H395 C390 0.929 . S
O396 Mn372 2.385 . S
O396 C374 1.234 . S
O397 Mn372 2.209 . S
O397 Mn373 2.215 . S
O397 C374 1.283 . S
O398 Mn372 2.094 . S
O398 C376 1.240 . S
O399 Mn373 2.117 . S
O399 C376 1.264 . S
C400 C393 1.403 . S
C400 C401 1.399 . S
C400 H406 0.929 . S
C401 C381 1.449 . S
C401 C400 1.399 . S
C401 H407 0.930 . S
H402 C382 0.931 . S
H403 C383 0.930 . S
H404 C391 0.931 . S
H405 C392 0.929 . S
H406 C400 0.929 . S
H407 C401 0.930 . S
Mn408 O413 2.095 . S
Mn408 O423 2.162 . S
Mn408 O424 2.297 . S
Mn408 O432 2.385 . S
Mn408 O433 2.209 . S
Mn408 O434 2.094 . S
Mn409 O414 2.121 . S
Mn409 N416 2.257 . S
Mn409 N425 2.282 . S
Mn409 O433 2.215 . S
Mn409 O435 2.117 . S
C410 O432 1.234 . S
C410 O433 1.283 . S
C411 O423 1.281 . S
C411 O424 1.236 . S
C412 O434 1.240 . S
C412 O435 1.264 . S
O413 Mn408 2.095 . S
O413 C422 1.250 . S
O414 Mn409 2.121 . S
O414 C422 1.258 . S
C415 N416 1.326 . S
C415 C419 1.460 . S
C415 H421 0.929 . S
N416 Mn409 2.257 . S
N416 C415 1.326 . S
N416 C420 1.362 . S
C417 C418 1.258 . S
C417 C420 1.431 . S
C417 C437 1.449 . S
C418 C417 1.258 . S
C418 C419 1.477 . S
C418 H438 0.931 . S
C419 C415 1.460 . S
C419 C418 1.477 . S
C419 H439 0.930 . S
C420 N416 1.362 . S
C420 C417 1.431 . S
C420 C430 1.476 . S
H421 C415 0.929 . S
C422 O413 1.250 . S
C422 O414 1.258 . S
O423 Mn408 2.162 . S
O423 C411 1.281 . S
O424 Mn408 2.297 . S
O424 C411 1.236 . S
N425 Mn409 2.282 . S
N425 C426 1.328 . S
N425 C430 1.318 . S
C426 N425 1.328 . S
C426 C427 1.457 . S
C426 H431 0.929 . S
C427 C426 1.457 . S
C427 C428 1.291 . S
C427 H440 0.931 . S
C428 C427 1.291 . S
C428 C429 1.373 . S
C428 H441 0.929 . S
C429 C428 1.373 . S
C429 C430 1.396 . S
C429 C436 1.403 . S
C430 C420 1.476 . S
C430 N425 1.318 . S
C430 C429 1.396 . S
H431 C426 0.929 . S
O432 Mn408 2.385 . S
O432 C410 1.234 . S
O433 Mn408 2.209 . S
O433 Mn409 2.215 . S
O433 C410 1.283 . S
O434 Mn408 2.094 . S
O434 C412 1.240 . S
O435 Mn409 2.117 . S
O435 C412 1.264 . S
C436 C429 1.403 . S
C436 C437 1.399 . S
C436 H442 0.929 . S
C437 C417 1.449 . S
C437 C436 1.399 . S
C437 H443 0.930 . S
H438 C418 0.931 . S
H439 C419 0.930 . S
H440 C427 0.931 . S
H441 C428 0.929 . S
H442 C436 0.929 . S
H443 C437 0.930 . S
Mn444 O449 2.095 . S
Mn444 O459 2.162 . S
Mn444 O460 2.297 . S
Mn444 O468 2.385 1_565 S
Mn444 O469 2.209 1_565 S
Mn444 O470 2.094 . S
Mn445 O450 2.121 . S
Mn445 N452 2.257 . S
Mn445 N461 2.282 . S
Mn445 O469 2.215 . S
Mn445 O471 2.117 . S
C446 O468 1.234 . S
C446 O469 1.283 . S
C447 O459 1.281 . S
C447 O460 1.236 . S
C448 O470 1.240 . S
C448 O471 1.264 1_565 S
O449 Mn444 2.095 . S
O449 C458 1.250 1_565 S
O450 Mn445 2.121 . S
O450 C458 1.258 . S
C451 N452 1.326 . S
C451 C455 1.460 . S
C451 H457 0.929 . S
N452 Mn445 2.257 . S
N452 C451 1.326 . S
N452 C456 1.362 . S
C453 C454 1.258 . S
C453 C456 1.431 . S
C453 C473 1.449 . S
C454 C453 1.258 . S
C454 C455 1.477 . S
C454 H474 0.931 . S
C455 C451 1.460 . S
C455 C454 1.477 . S
C455 H475 0.930 . S
C456 N452 1.362 . S
C456 C453 1.431 . S
C456 C466 1.476 . S
H457 C451 0.929 . S
C458 O449 1.250 1_545 S
C458 O450 1.258 . S
O459 Mn444 2.162 . S
O459 C447 1.281 . S
O460 Mn444 2.297 . S
O460 C447 1.236 . S
N461 Mn445 2.282 . S
N461 C462 1.328 . S
N461 C466 1.318 . S
C462 N461 1.328 . S
C462 C463 1.457 . S
C462 H467 0.929 . S
C463 C462 1.457 . S
C463 C464 1.291 . S
C463 H476 0.931 . S
C464 C463 1.291 . S
C464 C465 1.373 . S
C464 H477 0.929 . S
C465 C464 1.373 . S
C465 C466 1.396 . S
C465 C472 1.403 . S
C466 C456 1.476 . S
C466 N461 1.318 . S
C466 C465 1.396 . S
H467 C462 0.929 . S
O468 Mn444 2.385 1_545 S
O468 C446 1.234 . S
O469 Mn444 2.209 1_545 S
O469 Mn445 2.215 . S
O469 C446 1.283 . S
O470 Mn444 2.094 . S
O470 C448 1.240 . S
O471 Mn445 2.117 . S
O471 C448 1.264 1_545 S
C472 C465 1.403 . S
C472 C473 1.399 . S
C472 H478 0.929 . S
C473 C453 1.449 . S
C473 C472 1.399 . S
C473 H479 0.930 . S
H474 C454 0.931 . S
H475 C455 0.930 . S
H476 C463 0.931 . S
H477 C464 0.929 . S
H478 C472 0.929 . S
H479 C473 0.930 . S
Mn480 O485 2.095 . S
Mn480 O495 2.162 . S
Mn480 O496 2.297 . S
Mn480 O504 2.386 . S
Mn480 O505 2.209 1_455 S
Mn480 O506 2.094 . S
Mn481 O486 2.121 . S
Mn481 N488 2.257 . S
Mn481 N497 2.282 . S
Mn481 O505 2.215 . S
Mn481 O507 2.117 . S
C482 O504 1.231 1_655 S
C482 O505 1.283 . S
C483 O495 1.281 . S
C483 O496 1.236 . S
C484 O506 1.240 . S
C484 O507 1.264 1_455 S
O485 Mn480 2.095 . S
O485 C494 1.250 . S
O486 Mn481 2.121 . S
O486 C494 1.258 1_655 S
C487 N488 1.326 . S
C487 C491 1.460 . S
C487 H493 0.929 . S
N488 Mn481 2.257 . S
N488 C487 1.326 . S
N488 C492 1.362 . S
C489 C490 1.258 . S
C489 C492 1.431 . S
C489 C509 1.449 . S
C490 C489 1.258 . S
C490 C491 1.477 . S
C490 H510 0.931 . S
C491 C487 1.460 . S
C491 C490 1.477 . S
C491 H511 0.930 . S
C492 N488 1.362 . S
C492 C489 1.431 . S
C492 C502 1.476 . S
H493 C487 0.929 . S
C494 O485 1.250 . S
C494 O486 1.258 1_455 S
O495 Mn480 2.162 . S
O495 C483 1.281 . S
O496 Mn480 2.297 . S
O496 C483 1.236 . S
N497 Mn481 2.282 . S
N497 C498 1.328 . S
N497 C502 1.318 . S
C498 N497 1.328 . S
C498 C499 1.457 . S
C498 H503 0.929 . S
C499 C498 1.457 . S
C499 C500 1.291 . S
C499 H512 0.931 . S
C500 C499 1.291 . S
C500 C501 1.373 . S
C500 H513 0.929 . S
C501 C500 1.373 . S
C501 C502 1.396 . S
C501 C508 1.403 . S
C502 C492 1.476 . S
C502 N497 1.318 . S
C502 C501 1.396 . S
H503 C498 0.929 . S
O504 Mn480 2.386 . S
O504 C482 1.231 1_455 S
O505 Mn480 2.209 1_655 S
O505 Mn481 2.215 . S
O505 C482 1.283 . S
O506 Mn480 2.094 . S
O506 C484 1.240 . S
O507 Mn481 2.117 . S
O507 C484 1.264 1_655 S
C508 C501 1.403 . S
C508 C509 1.399 . S
C508 H514 0.929 . S
C509 C489 1.449 . S
C509 C508 1.399 . S
C509 H515 0.930 . S
H510 C490 0.931 . S
H511 C491 0.930 . S
H512 C499 0.931 . S
H513 C500 0.929 . S
H514 C508 0.929 . S
H515 C509 0.930 . S
Mn516 O521 2.095 . S
Mn516 O531 2.162 . S
Mn516 O532 2.297 . S
Mn516 O540 2.385 . S
Mn516 O541 2.209 . S
Mn516 O542 2.094 . S
Mn517 O522 2.121 . S
Mn517 N524 2.257 . S
Mn517 N533 2.282 . S
Mn517 O541 2.215 . S
Mn517 O543 2.117 . S
C518 O540 1.234 . S
C518 O541 1.283 . S
C519 O531 1.281 . S
C519 O532 1.236 . S
C520 O542 1.240 . S
C520 O543 1.264 . S
O521 Mn516 2.095 . S
O521 C530 1.250 . S
O522 Mn517 2.121 . S
O522 C530 1.258 . S
C523 N524 1.326 . S
C523 C527 1.460 . S
C523 H529 0.929 . S
N524 Mn517 2.257 . S
N524 C523 1.326 . S
N524 C528 1.362 . S
C525 C526 1.258 . S
C525 C528 1.431 . S
C525 C545 1.449 . S
C526 C525 1.258 . S
C526 C527 1.477 . S
C526 H546 0.931 . S
C527 C523 1.460 . S
C527 C526 1.477 . S
C527 H547 0.930 . S
C528 N524 1.362 . S
C528 C525 1.431 . S
C528 C538 1.476 . S
H529 C523 0.929 . S
C530 O521 1.250 . S
C530 O522 1.258 . S
O531 Mn516 2.162 . S
O531 C519 1.281 . S
O532 Mn516 2.297 . S
O532 C519 1.236 . S
N533 Mn517 2.282 . S
N533 C534 1.328 . S
N533 C538 1.318 . S
C534 N533 1.328 . S
C534 C535 1.457 . S
C534 H539 0.929 . S
C535 C534 1.457 . S
C535 C536 1.291 . S
C535 H548 0.931 . S
C536 C535 1.291 . S
C536 C537 1.373 . S
C536 H549 0.929 . S
C537 C536 1.373 . S
C537 C538 1.396 . S
C537 C544 1.403 . S
C538 C528 1.476 . S
C538 N533 1.318 . S
C538 C537 1.396 . S
H539 C534 0.929 . S
O540 Mn516 2.385 . S
O540 C518 1.234 . S
O541 Mn516 2.209 . S
O541 Mn517 2.215 . S
O541 C518 1.283 . S
O542 Mn516 2.094 . S
O542 C520 1.240 . S
O543 Mn517 2.117 . S
O543 C520 1.264 . S
C544 C537 1.403 . S
C544 C545 1.399 . S
C544 H550 0.929 . S
C545 C525 1.449 . S
C545 C544 1.399 . S
C545 H551 0.930 . S
H546 C526 0.931 . S
H547 C527 0.930 . S
H548 C535 0.931 . S
H549 C536 0.929 . S
H550 C544 0.929 . S
H551 C545 0.930 . S
Mn552 O557 2.095 . S
Mn552 O567 2.162 . S
Mn552 O568 2.297 . S
Mn552 O576 2.385 . S
Mn552 O577 2.209 . S
Mn552 O578 2.094 . S
Mn553 O558 2.121 . S
Mn553 N560 2.257 . S
Mn553 N569 2.282 1_655 S
Mn553 O577 2.215 1_655 S
Mn553 O579 2.117 1_655 S
C554 O576 1.234 . S
C554 O577 1.283 . S
C555 O567 1.281 . S
C555 O568 1.236 . S
C556 O578 1.240 . S
C556 O579 1.264 . S
O557 Mn552 2.095 . S
O557 C566 1.250 1_455 S
O558 Mn553 2.121 . S
O558 C566 1.258 . S
C559 N560 1.326 . S
C559 C563 1.460 . S
C559 H565 0.929 . S
N560 Mn553 2.257 . S
N560 C559 1.326 . S
N560 C564 1.362 . S
C561 C562 1.258 . S
C561 C564 1.431 . S
C561 C581 1.449 . S
C562 C561 1.258 . S
C562 C563 1.477 . S
C562 H582 0.931 . S
C563 C559 1.460 . S
C563 C562 1.477 . S
C563 H583 0.930 . S
C564 N560 1.362 . S
C564 C561 1.431 . S
C564 C574 1.476 . S
H565 C559 0.929 . S
C566 O557 1.250 1_655 S
C566 O558 1.258 . S
O567 Mn552 2.162 . S
O567 C555 1.281 . S
O568 Mn552 2.297 . S
O568 C555 1.236 . S
N569 Mn553 2.282 1_455 S
N569 C570 1.328 . S
N569 C574 1.318 1_455 S
C570 N569 1.328 . S
C570 C571 1.457 . S
C570 H575 0.929 . S
C571 C570 1.457 . S
C571 C572 1.291 . S
C571 H584 0.931 . S
C572 C571 1.291 . S
C572 C573 1.395 . S
C572 H585 0.929 . S
C573 C572 1.395 . S
C573 C574 1.389 1_455 S
C573 C580 1.387 1_455 S
C574 C564 1.476 . S
C574 N569 1.318 1_655 S
C574 C573 1.389 1_655 S
H575 C570 0.929 . S
O576 Mn552 2.385 . S
O576 C554 1.234 . S
O577 Mn552 2.209 . S
O577 Mn553 2.215 1_455 S
O577 C554 1.283 . S
O578 Mn552 2.094 . S
O578 C556 1.240 . S
O579 Mn553 2.117 1_455 S
O579 C556 1.264 . S
C580 C573 1.387 1_655 S
C580 C581 1.399 . S
C580 H586 0.929 . S
C581 C561 1.449 . S
C581 C580 1.399 . S
C581 H587 0.930 . S
H582 C562 0.931 . S
H583 C563 0.930 . S
H584 C571 0.931 . S
H585 C572 0.929 . S
H586 C580 0.929 . S
H587 C581 0.930 . S
Mn588 O593 2.095 . S
Mn588 O603 2.162 . S
Mn588 O604 2.297 . S
Mn588 O612 2.385 . S
Mn588 O613 2.209 . S
Mn588 O614 2.094 . S
Mn589 O594 2.121 . S
Mn589 N596 2.257 . S
Mn589 N605 2.282 . S
Mn589 O613 2.215 . S
Mn589 O615 2.117 . S
C590 O612 1.234 . S
C590 O613 1.283 . S
C591 O603 1.281 . S
C591 O604 1.236 . S
C592 O614 1.240 . S
C592 O615 1.264 . S
O593 Mn588 2.095 . S
O593 C602 1.250 . S
O594 Mn589 2.121 . S
O594 C602 1.258 . S
C595 N596 1.326 . S
C595 C599 1.460 . S
C595 H601 0.929 . S
N596 Mn589 2.257 . S
N596 C595 1.326 . S
N596 C600 1.362 . S
C597 C598 1.258 . S
C597 C600 1.431 . S
C597 C617 1.449 . S
C598 C597 1.258 . S
C598 C599 1.477 . S
C598 H618 0.931 . S
C599 C595 1.460 . S
C599 C598 1.477 . S
C599 H619 0.930 . S
C600 N596 1.362 . S
C600 C597 1.431 . S
C600 C610 1.476 . S
H601 C595 0.929 . S
C602 O593 1.250 . S
C602 O594 1.258 . S
O603 Mn588 2.162 . S
O603 C591 1.281 . S
O604 Mn588 2.297 . S
O604 C591 1.236 . S
N605 Mn589 2.282 . S
N605 C606 1.328 . S
N605 C610 1.318 . S
C606 N605 1.328 . S
C606 C607 1.457 . S
C606 H611 0.929 . S
C607 C606 1.457 . S
C607 C608 1.291 . S
C607 H620 0.931 . S
C608 C607 1.291 . S
C608 C609 1.373 . S
C608 H621 0.929 . S
C609 C608 1.373 . S
C609 C610 1.396 . S
C609 C616 1.403 . S
C610 C600 1.476 . S
C610 N605 1.318 . S
C610 C609 1.396 . S
H611 C606 0.929 . S
O612 Mn588 2.385 . S
O612 C590 1.234 . S
O613 Mn588 2.209 . S
O613 Mn589 2.215 . S
O613 C590 1.283 . S
O614 Mn588 2.094 . S
O614 C592 1.240 . S
O615 Mn589 2.117 . S
O615 C592 1.264 . S
C616 C609 1.403 . S
C616 C617 1.399 . S
C616 H622 0.929 . S
C617 C597 1.449 . S
C617 C616 1.399 . S
C617 H623 0.930 . S
H618 C598 0.931 . S
H619 C599 0.930 . S
H620 C607 0.931 . S
H621 C608 0.929 . S
H622 C616 0.929 . S
H623 C617 0.930 . S
H624 C632 0.929 . S
H625 C634 0.930 . S
H626 C636 0.930 . S
H627 C639 0.929 . S
H628 C642 0.930 . S
H629 C644 0.960 . S
H630 C644 0.960 . S
H631 C644 0.960 . S
C632 H624 0.929 . S
C632 C633 1.377 . S
C632 C634 1.384 . S
C633 C632 1.377 . S
C633 C639 1.390 . S
C634 H625 0.930 . S
C634 C632 1.384 . S
C634 C635 1.372 . S
C635 C634 1.372 . S
C635 C636 1.400 . S
C635 C640 1.490 . S
C636 H626 0.930 . S
C636 C635 1.400 . S
C636 C639 1.386 . S
H637 C653 0.930 . S
H638 C654 0.931 . S
C639 H627 0.929 . S
C639 C633 1.390 . S
C639 C636 1.386 . S
C640 C635 1.490 . S
C640 C642 1.395 . S
C640 C643 1.403 . S
H641 C647 0.930 . S
C642 H628 0.930 . S
C642 C640 1.395 . S
C642 C645 1.403 . S
C643 C640 1.403 . S
C643 C644 1.524 . S
C643 C647 1.400 . S
C644 H629 0.960 . S
C644 H630 0.960 . S
C644 H631 0.960 . S
C644 C643 1.524 . S
C645 C642 1.403 . S
C645 C646 1.392 . S
C645 C649 1.495 . S
C646 C645 1.392 . S
C646 C647 1.385 . S
C646 C648 1.478 . S
C647 H641 0.930 . S
C647 C643 1.400 . S
C647 C646 1.385 . S
C648 C646 1.478 . S
C648 C650 1.381 . S
C648 C654 1.383 . S
C649 C645 1.495 . S
C649 H655 0.959 . S
C649 H656 0.961 . S
C649 H657 0.960 . S
C650 C648 1.381 . S
C650 C651 1.394 . S
C650 H658 0.930 . S
C651 C650 1.394 . S
C651 C652 1.383 . S
C651 H659 0.929 . S
C652 C651 1.383 . S
C652 C653 1.377 . S
C653 H637 0.930 . S
C653 C652 1.377 . S
C653 C654 1.379 . S
C654 H638 0.931 . S
C654 C648 1.383 . S
C654 C653 1.379 . S
H655 C649 0.959 . S
H656 C649 0.961 . S
H657 C649 0.960 . S
H658 C650 0.930 . S
H659 C651 0.929 . S
H660 C668 0.929 . S
H661 C670 0.930 . S
H662 C672 0.930 . S
H663 C675 0.929 . S
H664 C678 0.930 . S
H665 C680 0.960 . S
H666 C680 0.960 . S
H667 C680 0.960 . S
C668 H660 0.929 . S
C668 C669 1.377 . S
C668 C670 1.384 . S
C669 C668 1.377 . S
C669 C675 1.390 . S
C670 H661 0.930 . S
C670 C668 1.384 . S
C670 C671 1.372 . S
C671 C670 1.372 . S
C671 C672 1.400 . S
C671 C676 1.490 . S
C672 H662 0.930 . S
C672 C671 1.400 . S
C672 C675 1.386 . S
H673 C689 0.930 . S
H674 C690 0.931 . S
C675 H663 0.929 . S
C675 C669 1.390 . S
C675 C672 1.386 . S
C676 C671 1.490 . S
C676 C678 1.395 . S
C676 C679 1.403 . S
H677 C683 0.930 . S
C678 H664 0.930 . S
C678 C676 1.395 . S
C678 C681 1.403 . S
C679 C676 1.403 . S
C679 C680 1.524 . S
C679 C683 1.400 . S
C680 H665 0.960 . S
C680 H666 0.960 . S
C680 H667 0.960 . S
C680 C679 1.524 . S
C681 C678 1.403 . S
C681 C682 1.392 . S
C681 C685 1.495 . S
C682 C681 1.392 . S
C682 C683 1.385 . S
C682 C684 1.478 . S
C683 H677 0.930 . S
C683 C679 1.400 . S
C683 C682 1.385 . S
C684 C682 1.478 . S
C684 C686 1.381 . S
C684 C690 1.383 . S
C685 C681 1.495 . S
C685 H691 0.959 . S
C685 H692 0.961 . S
C685 H693 0.960 . S
C686 C684 1.381 . S
C686 C687 1.394 . S
C686 H694 0.930 . S
C687 C686 1.394 . S
C687 C688 1.383 . S
C687 H695 0.929 . S
C688 C687 1.383 . S
C688 C689 1.377 . S
C689 H673 0.930 . S
C689 C688 1.377 . S
C689 C690 1.379 . S
C690 H674 0.931 . S
C690 C684 1.383 . S
C690 C689 1.379 . S
H691 C685 0.959 . S
H692 C685 0.961 . S
H693 C685 0.960 . S
H694 C686 0.930 . S
H695 C687 0.929 . S
H696 C704 0.929 . S
H697 C706 0.930 . S
H698 C708 0.930 . S
H699 C711 0.929 . S
H700 C714 0.930 . S
H701 C716 0.960 . S
H702 C716 0.960 . S
H703 C716 0.960 . S
C704 H696 0.929 . S
C704 C705 1.377 . S
C704 C706 1.384 . S
C705 C704 1.377 . S
C705 C711 1.390 . S
C706 H697 0.930 . S
C706 C704 1.384 . S
C706 C707 1.372 . S
C707 C706 1.372 . S
C707 C708 1.400 . S
C707 C712 1.490 . S
C708 H698 0.930 . S
C708 C707 1.400 . S
C708 C711 1.386 . S
H709 C725 0.930 . S
H710 C726 0.931 . S
C711 H699 0.929 . S
C711 C705 1.390 . S
C711 C708 1.386 . S
C712 C707 1.490 . S
C712 C714 1.395 . S
C712 C715 1.403 . S
H713 C719 0.930 . S
C714 H700 0.930 . S
C714 C712 1.395 . S
C714 C717 1.403 . S
C715 C712 1.403 . S
C715 C716 1.524 . S
C715 C719 1.400 . S
C716 H701 0.960 . S
C716 H702 0.960 . S
C716 H703 0.960 . S
C716 C715 1.524 . S
C717 C714 1.403 . S
C717 C718 1.392 . S
C717 C721 1.495 . S
C718 C717 1.392 . S
C718 C719 1.385 . S
C718 C720 1.478 . S
C719 H713 0.930 . S
C719 C715 1.400 . S
C719 C718 1.385 . S
C720 C718 1.478 . S
C720 C722 1.381 . S
C720 C726 1.383 . S
C721 C717 1.495 . S
C721 H727 0.959 . S
C721 H728 0.961 . S
C721 H729 0.960 . S
C722 C720 1.381 . S
C722 C723 1.394 . S
C722 H730 0.930 . S
C723 C722 1.394 . S
C723 C724 1.383 . S
C723 H731 0.929 . S
C724 C723 1.383 . S
C724 C725 1.377 . S
C725 H709 0.930 . S
C725 C724 1.377 . S
C725 C726 1.379 . S
C726 H710 0.931 . S
C726 C720 1.383 . S
C726 C725 1.379 . S
H727 C721 0.959 . S
H728 C721 0.961 . S
H729 C721 0.960 . S
H730 C722 0.930 . S
H731 C723 0.929 . S
H732 C740 0.929 . S
H733 C742 0.930 1_655 S
H734 C744 0.930 . S
H735 C747 0.929 . S
H736 C750 0.933 1_455 S
H737 C752 0.960 . S
H738 C752 0.960 . S
H739 C752 0.960 . S
C740 H732 0.929 . S
C740 C741 1.377 . S
C740 C742 1.384 . S
C741 C740 1.377 . S
C741 C747 1.390 . S
C742 H733 0.930 1_455 S
C742 C740 1.384 . S
C742 C743 1.372 . S
C743 C742 1.372 . S
C743 C744 1.400 . S
C743 C748 1.490 1_565 S
C744 H734 0.930 . S
C744 C743 1.400 . S
C744 C747 1.386 . S
H745 C761 0.930 . S
H746 C762 0.931 1_455 S
C747 H735 0.929 . S
C747 C741 1.390 . S
C747 C744 1.386 . S
C748 C743 1.490 1_545 S
C748 C750 1.387 1_455 S
C748 C751 1.403 1_545 S
H749 C755 0.930 . S
C750 H736 0.933 1_655 S
C750 C748 1.387 1_655 S
C750 C753 1.411 . S
C751 C748 1.403 1_565 S
C751 C752 1.524 . S
C751 C755 1.400 1_455 S
C752 H737 0.960 . S
C752 H738 0.960 . S
C752 H739 0.960 . S
C752 C751 1.524 . S
C753 C750 1.411 . S
C753 C754 1.392 . S
C753 C757 1.495 . S
C754 C753 1.392 . S
C754 C755 1.385 1_545 S
C754 C756 1.478 . S
C755 H749 0.930 . S
C755 C751 1.400 1_655 S
C755 C754 1.385 1_565 S
C756 C754 1.478 . S
C756 C758 1.381 . S
C756 C762 1.383 . S
C757 C753 1.495 . S
C757 H763 0.959 . S
C757 H764 0.961 . S
C757 H765 0.960 . S
C758 C756 1.381 . S
C758 C759 1.394 . S
C758 H766 0.930 . S
C759 C758 1.394 . S
C759 C760 1.383 . S
C759 H767 0.929 . S
C760 C759 1.383 . S
C760 C761 1.377 . S
C761 H745 0.930 . S
C761 C760 1.377 . S
C761 C762 1.379 . S
C762 H746 0.931 1_655 S
C762 C756 1.383 . S
C762 C761 1.379 . S
H763 C757 0.959 . S
H764 C757 0.961 . S
H765 C757 0.960 . S
H766 C758 0.930 . S
H767 C759 0.929 . S
H768 C776 0.929 . S
H769 C778 0.930 . S
H770 C780 0.930 . S
H771 C783 0.929 . S
H772 C786 0.930 . S
H773 C788 0.960 . S
H774 C788 0.960 . S
H775 C788 0.960 . S
C776 H768 0.929 . S
C776 C777 1.377 . S
C776 C778 1.384 . S
C777 C776 1.377 . S
C777 C783 1.390 . S
C778 H769 0.930 . S
C778 C776 1.384 . S
C778 C779 1.372 . S
C779 C778 1.372 . S
C779 C780 1.400 . S
C779 C784 1.490 . S
C780 H770 0.930 . S
C780 C779 1.400 . S
C780 C783 1.386 . S
H781 C797 0.930 . S
H782 C798 0.931 . S
C783 H771 0.929 . S
C783 C777 1.390 . S
C783 C780 1.386 . S
C784 C779 1.490 . S
C784 C786 1.395 . S
C784 C787 1.403 . S
H785 C791 0.930 . S
C786 H772 0.930 . S
C786 C784 1.395 . S
C786 C789 1.403 . S
C787 C784 1.403 . S
C787 C788 1.524 . S
C787 C791 1.400 . S
C788 H773 0.960 . S
C788 H774 0.960 . S
C788 H775 0.960 . S
C788 C787 1.524 . S
C789 C786 1.403 . S
C789 C790 1.392 . S
C789 C793 1.495 . S
C790 C789 1.392 . S
C790 C791 1.385 . S
C790 C792 1.478 . S
C791 H785 0.930 . S
C791 C787 1.400 . S
C791 C790 1.385 . S
C792 C790 1.478 . S
C792 C794 1.381 . S
C792 C798 1.383 . S
C793 C789 1.495 . S
C793 H799 0.959 . S
C793 H800 0.961 . S
C793 H801 0.960 . S
C794 C792 1.381 . S
C794 C795 1.394 . S
C794 H802 0.930 . S
C795 C794 1.394 . S
C795 C796 1.383 . S
C795 H803 0.929 . S
C796 C795 1.383 . S
C796 C797 1.377 . S
C797 H781 0.930 . S
C797 C796 1.377 . S
C797 C798 1.379 . S
C798 H782 0.931 . S
C798 C792 1.383 . S
C798 C797 1.379 . S
H799 C793 0.959 . S
H800 C793 0.961 . S
H801 C793 0.960 . S
H802 C794 0.930 . S
H803 C795 0.929 . S
H804 C812 0.929 . S
H805 C814 0.930 . S
H806 C816 0.930 . S
H807 C819 0.929 . S
H808 C822 0.930 . S
H809 C824 0.960 . S
H810 C824 0.960 . S
H811 C824 0.960 . S
C812 H804 0.929 . S
C812 C813 1.377 . S
C812 C814 1.384 . S
C813 C812 1.377 . S
C813 C819 1.390 . S
C814 H805 0.930 . S
C814 C812 1.384 . S
C814 C815 1.372 . S
C815 C814 1.372 . S
C815 C816 1.400 . S
C815 C820 1.490 . S
C816 H806 0.930 . S
C816 C815 1.400 . S
C816 C819 1.386 . S
H817 C833 0.930 . S
H818 C834 0.931 . S
C819 H807 0.929 . S
C819 C813 1.390 . S
C819 C816 1.386 . S
C820 C815 1.490 . S
C820 C822 1.395 . S
C820 C823 1.403 . S
H821 C827 0.930 . S
C822 H808 0.930 . S
C822 C820 1.395 . S
C822 C825 1.403 . S
C823 C820 1.403 . S
C823 C824 1.524 . S
C823 C827 1.400 . S
C824 H809 0.960 . S
C824 H810 0.960 . S
C824 H811 0.960 . S
C824 C823 1.524 . S
C825 C822 1.403 . S
C825 C826 1.392 . S
C825 C829 1.495 . S
C826 C825 1.392 . S
C826 C827 1.385 . S
C826 C828 1.478 . S
C827 H821 0.930 . S
C827 C823 1.400 . S
C827 C826 1.385 . S
C828 C826 1.478 . S
C828 C830 1.381 . S
C828 C834 1.383 . S
C829 C825 1.495 . S
C829 H835 0.959 . S
C829 H836 0.961 . S
C829 H837 0.960 . S
C830 C828 1.381 . S
C830 C831 1.394 . S
C830 H838 0.930 . S
C831 C830 1.394 . S
C831 C832 1.383 . S
C831 H839 0.929 . S
C832 C831 1.383 . S
C832 C833 1.377 . S
C833 H817 0.930 . S
C833 C832 1.377 . S
C833 C834 1.379 . S
C834 H818 0.931 . S
C834 C828 1.383 . S
C834 C833 1.379 . S
H835 C829 0.959 . S
H836 C829 0.961 . S
H837 C829 0.960 . S
H838 C830 0.930 . S
H839 C831 0.929 . S
H840 C848 0.929 . S
H841 C850 0.930 . S
H842 C852 0.930 . S
H843 C855 0.929 . S
H844 C858 0.930 . S
H845 C860 0.960 . S
H846 C860 0.960 . S
H847 C860 0.960 . S
C848 H840 0.929 . S
C848 C849 1.377 . S
C848 C850 1.384 . S
C849 C848 1.377 . S
C849 C855 1.390 . S
C850 H841 0.930 . S
C850 C848 1.384 . S
C850 C851 1.372 . S
C851 C850 1.372 . S
C851 C852 1.400 . S
C851 C856 1.490 . S
C852 H842 0.930 . S
C852 C851 1.400 . S
C852 C855 1.386 . S
H853 C869 0.930 . S
H854 C870 0.931 . S
C855 H843 0.929 . S
C855 C849 1.390 . S
C855 C852 1.386 . S
C856 C851 1.490 . S
C856 C858 1.395 . S
C856 C859 1.403 . S
H857 C863 0.930 . S
C858 H844 0.930 . S
C858 C856 1.395 . S
C858 C861 1.403 . S
C859 C856 1.403 . S
C859 C860 1.524 . S
C859 C863 1.400 . S
C860 H845 0.960 . S
C860 H846 0.960 . S
C860 H847 0.960 . S
C860 C859 1.524 . S
C861 C858 1.403 . S
C861 C862 1.392 . S
C861 C865 1.495 . S
C862 C861 1.392 . S
C862 C863 1.385 . S
C862 C864 1.478 . S
C863 H857 0.930 . S
C863 C859 1.400 . S
C863 C862 1.385 . S
C864 C862 1.478 . S
C864 C866 1.381 . S
C864 C870 1.383 . S
C865 C861 1.495 . S
C865 H871 0.959 . S
C865 H872 0.961 . S
C865 H873 0.960 . S
C866 C864 1.381 . S
C866 C867 1.394 . S
C866 H874 0.930 . S
C867 C866 1.394 . S
C867 C868 1.383 . S
C867 H875 0.929 . S
C868 C867 1.383 . S
C868 C869 1.377 . S
C869 H853 0.930 . S
C869 C868 1.377 . S
C869 C870 1.379 . S
C870 H854 0.931 . S
C870 C864 1.383 . S
C870 C869 1.379 . S
H871 C865 0.959 . S
H872 C865 0.961 . S
H873 C865 0.960 . S
H874 C866 0.930 . S
H875 C867 0.929 . S
H876 C884 0.929 . S
H877 C886 0.930 . S
H878 C888 0.930 . S
H879 C891 0.929 . S
H880 C894 0.930 . S
H881 C896 0.960 . S
H882 C896 0.960 1_565 S
H883 C896 0.960 . S
C884 H876 0.929 . S
C884 C885 1.377 . S
C884 C886 1.384 . S
C885 C884 1.377 . S
C885 C891 1.390 1_565 S
C886 H877 0.930 . S
C886 C884 1.384 . S
C886 C887 1.372 . S
C887 C886 1.372 . S
C887 C888 1.400 1_565 S
C887 C892 1.490 . S
C888 H878 0.930 . S
C888 C887 1.400 1_545 S
C888 C891 1.386 . S
H889 C905 0.930 . S
H890 C906 0.931 . S
C891 H879 0.929 . S
C891 C885 1.390 1_545 S
C891 C888 1.386 . S
C892 C887 1.490 . S
C892 C894 1.395 . S
C892 C895 1.403 . S
H893 C899 0.930 1_545 S
C894 H880 0.930 . S
C894 C892 1.395 . S
C894 C897 1.403 . S
C895 C892 1.403 . S
C895 C896 1.524 1_565 S
C895 C899 1.400 . S
C896 H881 0.960 . S
C896 H882 0.960 1_545 S
C896 H883 0.960 . S
C896 C895 1.524 1_545 S
C897 C894 1.403 . S
C897 C898 1.392 . S
C897 C901 1.495 . S
C898 C897 1.392 . S
C898 C899 1.385 . S
C898 C900 1.478 . S
C899 H893 0.930 1_565 S
C899 C895 1.400 . S
C899 C898 1.385 . S
C900 C898 1.478 . S
C900 C902 1.381 . S
C900 C906 1.383 1_565 S
C901 C897 1.495 . S
C901 H907 0.959 . S
C901 H908 0.961 . S
C901 H909 0.960 . S
C902 C900 1.381 . S
C902 C903 1.394 . S
C902 H910 0.930 . S
C903 C902 1.394 . S
C903 C904 1.383 . S
C903 H911 0.929 . S
C904 C903 1.383 . S
C904 C905 1.377 1_565 S
C905 H889 0.930 . S
C905 C904 1.377 1_545 S
C905 C906 1.379 . S
C906 H890 0.931 . S
C906 C900 1.383 1_545 S
C906 C905 1.379 . S
H907 C901 0.959 . S
H908 C901 0.961 . S
H909 C901 0.960 . S
H910 C902 0.930 . S
H911 C903 0.929 . S
H912 C920 0.929 . S
H913 C922 0.930 . S
H914 C924 0.930 . S
H915 C927 0.929 . S
H916 C930 0.930 . S
H917 C932 0.960 . S
H918 C932 0.960 . S
H919 C932 0.960 . S
C920 H912 0.929 . S
C920 C921 1.377 . S
C920 C922 1.384 . S
C921 C920 1.377 . S
C921 C927 1.390 . S
C922 H913 0.930 . S
C922 C920 1.384 . S
C922 C923 1.372 . S
C923 C922 1.372 . S
C923 C924 1.400 . S
C923 C928 1.490 . S
C924 H914 0.930 . S
C924 C923 1.400 . S
C924 C927 1.386 . S
H925 C941 0.930 . S
H926 C942 0.931 . S
C927 H915 0.929 . S
C927 C921 1.390 . S
C927 C924 1.386 . S
C928 C923 1.490 . S
C928 C930 1.395 . S
C928 C931 1.403 . S
H929 C935 0.930 . S
C930 H916 0.930 . S
C930 C928 1.395 . S
C930 C933 1.403 . S
C931 C928 1.403 . S
C931 C932 1.524 . S
C931 C935 1.400 . S
C932 H917 0.960 . S
C932 H918 0.960 . S
C932 H919 0.960 . S
C932 C931 1.524 . S
C933 C930 1.403 . S
C933 C934 1.392 . S
C933 C937 1.495 . S
C934 C933 1.392 . S
C934 C935 1.385 . S
C934 C936 1.478 . S
C935 H929 0.930 . S
C935 C931 1.400 . S
C935 C934 1.385 . S
C936 C934 1.478 . S
C936 C938 1.381 . S
C936 C942 1.383 . S
C937 C933 1.495 . S
C937 H943 0.959 . S
C937 H944 0.961 . S
C937 H945 0.960 . S
C938 C936 1.381 . S
C938 C939 1.394 . S
C938 H946 0.930 . S
C939 C938 1.394 . S
C939 C940 1.383 . S
C939 H947 0.929 . S
C940 C939 1.383 . S
C940 C941 1.377 . S
C941 H925 0.930 . S
C941 C940 1.377 . S
C941 C942 1.379 . S
C942 H926 0.931 . S
C942 C936 1.383 . S
C942 C941 1.379 . S
H943 C937 0.959 . S
H944 C937 0.961 . S
H945 C937 0.960 . S
H946 C938 0.930 . S
H947 C939 0.929 . S
H948 C956 0.929 . S
H949 C958 0.930 . S
H950 C960 0.930 . S
H951 C963 0.929 . S
H952 C966 0.930 . S
H953 C968 0.960 . S
H954 C968 0.960 . S
H955 C968 0.960 . S
C956 H948 0.929 . S
C956 C957 1.377 . S
C956 C958 1.384 . S
C957 C956 1.377 . S
C957 C963 1.390 . S
C958 H949 0.930 . S
C958 C956 1.384 . S
C958 C959 1.372 . S
C959 C958 1.372 . S
C959 C960 1.400 . S
C959 C964 1.490 . S
C960 H950 0.930 . S
C960 C959 1.400 . S
C960 C963 1.386 . S
H961 C977 0.930 . S
H962 C978 0.931 . S
C963 H951 0.929 . S
C963 C957 1.390 . S
C963 C960 1.386 . S
C964 C959 1.490 . S
C964 C966 1.395 . S
C964 C967 1.403 . S
H965 C971 0.930 . S
C966 H952 0.930 . S
C966 C964 1.395 . S
C966 C969 1.403 . S
C967 C964 1.403 . S
C967 C968 1.524 . S
C967 C971 1.400 . S
C968 H953 0.960 . S
C968 H954 0.960 . S
C968 H955 0.960 . S
C968 C967 1.524 . S
C969 C966 1.403 . S
C969 C970 1.392 . S
C969 C973 1.495 . S
C970 C969 1.392 . S
C970 C971 1.385 . S
C970 C972 1.478 . S
C971 H965 0.930 . S
C971 C967 1.400 . S
C971 C970 1.385 . S
C972 C970 1.478 . S
C972 C974 1.381 . S
C972 C978 1.383 . S
C973 C969 1.495 . S
C973 H979 0.959 . S
C973 H980 0.961 . S
C973 H981 0.960 . S
C974 C972 1.381 . S
C974 C975 1.394 . S
C974 H982 0.930 . S
C975 C974 1.394 . S
C975 C976 1.383 . S
C975 H983 0.929 . S
C976 C975 1.383 . S
C976 C977 1.377 . S
C977 H961 0.930 . S
C977 C976 1.377 . S
C977 C978 1.379 . S
C978 H962 0.931 . S
C978 C972 1.383 . S
C978 C977 1.379 . S
H979 C973 0.959 . S
H980 C973 0.961 . S
H981 C973 0.960 . S
H982 C974 0.930 . S
H983 C975 0.929 . S
H984 C992 0.929 . S
H985 C994 0.930 . S
H986 C996 0.930 . S
H987 C999 0.929 . S
H988 C1002 0.930 . S
H989 C1004 0.960 . S
H990 C1004 0.960 . S
H991 C1004 0.960 . S
C992 H984 0.929 . S
C992 C993 1.377 . S
C992 C994 1.384 . S
C993 C992 1.377 . S
C993 C999 1.390 . S
C994 H985 0.930 . S
C994 C992 1.384 . S
C994 C995 1.372 . S
C995 C994 1.372 . S
C995 C996 1.400 . S
C995 C1000 1.490 . S
C996 H986 0.930 . S
C996 C995 1.400 . S
C996 C999 1.386 . S
H997 C1013 0.930 . S
H998 C1014 0.931 . S
C999 H987 0.929 . S
C999 C993 1.390 . S
C999 C996 1.386 . S
C1000 C995 1.490 . S
C1000 C1002 1.395 . S
C1000 C1003 1.403 . S
H1001 C1007 0.930 . S
C1002 H988 0.930 . S
C1002 C1000 1.395 . S
C1002 C1005 1.403 . S
C1003 C1000 1.403 . S
C1003 C1004 1.524 . S
C1003 C1007 1.400 . S
C1004 H989 0.960 . S
C1004 H990 0.960 . S
C1004 H991 0.960 . S
C1004 C1003 1.524 . S
C1005 C1002 1.403 . S
C1005 C1006 1.392 . S
C1005 C1009 1.495 . S
C1006 C1005 1.392 . S
C1006 C1007 1.385 . S
C1006 C1008 1.478 . S
C1007 H1001 0.930 . S
C1007 C1003 1.400 . S
C1007 C1006 1.385 . S
C1008 C1006 1.478 . S
C1008 C1010 1.381 . S
C1008 C1014 1.383 . S
C1009 C1005 1.495 . S
C1009 H1015 0.959 . S
C1009 H1016 0.961 . S
C1009 H1017 0.960 . S
C1010 C1008 1.381 . S
C1010 C1011 1.394 . S
C1010 H1018 0.930 . S
C1011 C1010 1.394 . S
C1011 C1012 1.383 . S
C1011 H1019 0.929 . S
C1012 C1011 1.383 . S
C1012 C1013 1.377 . S
C1013 H997 0.930 . S
C1013 C1012 1.377 . S
C1013 C1014 1.379 . S
C1014 H998 0.931 . S
C1014 C1008 1.383 . S
C1014 C1013 1.379 . S
H1015 C1009 0.959 . S
H1016 C1009 0.961 . S
H1017 C1009 0.960 . S
H1018 C1010 0.930 . S
H1019 C1011 0.929 . S
H1020 C1028 0.929 . S
H1021 C1030 0.930 . S
H1022 C1032 0.930 . S
H1023 C1035 0.929 . S
H1024 C1038 0.930 . S
H1025 C1040 0.960 . S
H1026 C1040 0.960 . S
H1027 C1040 0.960 . S
C1028 H1020 0.929 . S
C1028 C1029 1.377 . S
C1028 C1030 1.384 . S
C1029 C1028 1.377 . S
C1029 C1035 1.390 . S
C1030 H1021 0.930 . S
C1030 C1028 1.384 . S
C1030 C1031 1.372 . S
C1031 C1030 1.372 . S
C1031 C1032 1.400 . S
C1031 C1036 1.490 . S
C1032 H1022 0.930 . S
C1032 C1031 1.400 . S
C1032 C1035 1.386 . S
H1033 C1049 0.930 . S
H1034 C1050 0.931 . S
C1035 H1023 0.929 . S
C1035 C1029 1.390 . S
C1035 C1032 1.386 . S
C1036 C1031 1.490 . S
C1036 C1038 1.395 . S
C1036 C1039 1.403 . S
H1037 C1043 0.930 . S
C1038 H1024 0.930 . S
C1038 C1036 1.395 . S
C1038 C1041 1.403 . S
C1039 C1036 1.403 . S
C1039 C1040 1.524 . S
C1039 C1043 1.400 . S
C1040 H1025 0.960 . S
C1040 H1026 0.960 . S
C1040 H1027 0.960 . S
C1040 C1039 1.524 . S
C1041 C1038 1.403 . S
C1041 C1042 1.392 . S
C1041 C1045 1.495 . S
C1042 C1041 1.392 . S
C1042 C1043 1.385 . S
C1042 C1044 1.478 . S
C1043 H1037 0.930 . S
C1043 C1039 1.400 . S
C1043 C1042 1.385 . S
C1044 C1042 1.478 . S
C1044 C1046 1.381 . S
C1044 C1050 1.383 . S
C1045 C1041 1.495 . S
C1045 H1051 0.959 . S
C1045 H1052 0.961 . S
C1045 H1053 0.960 . S
C1046 C1044 1.381 . S
C1046 C1047 1.394 . S
C1046 H1054 0.930 . S
C1047 C1046 1.394 . S
C1047 C1048 1.383 . S
C1047 H1055 0.929 . S
C1048 C1047 1.383 . S
C1048 C1049 1.377 . S
C1049 H1033 0.930 . S
C1049 C1048 1.377 . S
C1049 C1050 1.379 . S
C1050 H1034 0.931 . S
C1050 C1044 1.383 . S
C1050 C1049 1.379 . S
H1051 C1045 0.959 . S
H1052 C1045 0.961 . S
H1053 C1045 0.960 . S
H1054 C1046 0.930 . S
H1055 C1047 0.929 . S
H1056 C1064 0.929 . S
H1057 C1066 0.930 . S
H1058 C1068 0.930 . S
H1059 C1071 0.929 . S
H1060 C1074 0.930 . S
H1061 C1076 0.960 . S
H1062 C1076 0.960 . S
H1063 C1076 0.960 . S
C1064 H1056 0.929 . S
C1064 C1065 1.377 . S
C1064 C1066 1.384 . S
C1065 C1064 1.377 . S
C1065 C1071 1.390 . S
C1066 H1057 0.930 . S
C1066 C1064 1.384 . S
C1066 C1067 1.372 . S
C1067 C1066 1.372 . S
C1067 C1068 1.400 . S
C1067 C1072 1.490 . S
C1068 H1058 0.930 . S
C1068 C1067 1.400 . S
C1068 C1071 1.386 . S
H1069 C1085 0.930 . S
H1070 C1086 0.931 . S
C1071 H1059 0.929 . S
C1071 C1065 1.390 . S
C1071 C1068 1.386 . S
C1072 C1067 1.490 . S
C1072 C1074 1.395 . S
C1072 C1075 1.403 . S
H1073 C1079 0.930 . S
C1074 H1060 0.930 . S
C1074 C1072 1.395 . S
C1074 C1077 1.403 . S
C1075 C1072 1.403 . S
C1075 C1076 1.524 . S
C1075 C1079 1.400 . S
C1076 H1061 0.960 . S
C1076 H1062 0.960 . S
C1076 H1063 0.960 . S
C1076 C1075 1.524 . S
C1077 C1074 1.403 . S
C1077 C1078 1.392 . S
C1077 C1081 1.495 . S
C1078 C1077 1.392 . S
C1078 C1079 1.385 . S
C1078 C1080 1.478 . S
C1079 H1073 0.930 . S
C1079 C1075 1.400 . S
C1079 C1078 1.385 . S
C1080 C1078 1.478 . S
C1080 C1082 1.381 . S
C1080 C1086 1.383 . S
C1081 C1077 1.495 . S
C1081 H1087 0.959 . S
C1081 H1088 0.961 . S
C1081 H1089 0.960 . S
C1082 C1080 1.381 . S
C1082 C1083 1.394 . S
C1082 H1090 0.930 . S
C1083 C1082 1.394 . S
C1083 C1084 1.383 . S
C1083 H1091 0.929 . S
C1084 C1083 1.383 . S
C1084 C1085 1.377 . S
C1085 H1069 0.930 . S
C1085 C1084 1.377 . S
C1085 C1086 1.379 . S
C1086 H1070 0.931 . S
C1086 C1080 1.383 . S
C1086 C1085 1.379 . S
H1087 C1081 0.959 . S
H1088 C1081 0.961 . S
H1089 C1081 0.960 . S
H1090 C1082 0.930 . S
H1091 C1083 0.929 . S
H1092 C1100 0.929 . S
H1093 C1102 0.930 . S
H1094 C1104 0.930 . S
H1095 C1107 0.929 . S
H1096 C1110 0.930 . S
H1097 C1112 0.960 . S
H1098 C1112 0.960 . S
H1099 C1112 0.960 . S
C1100 H1092 0.929 . S
C1100 C1101 1.377 . S
C1100 C1102 1.384 . S
C1101 C1100 1.377 . S
C1101 C1107 1.390 . S
C1102 H1093 0.930 . S
C1102 C1100 1.384 . S
C1102 C1103 1.372 . S
C1103 C1102 1.372 . S
C1103 C1104 1.400 . S
C1103 C1108 1.490 . S
C1104 H1094 0.930 . S
C1104 C1103 1.400 . S
C1104 C1107 1.386 . S
H1105 C1121 0.930 . S
H1106 C1122 0.931 . S
C1107 H1095 0.929 . S
C1107 C1101 1.390 . S
C1107 C1104 1.386 . S
C1108 C1103 1.490 . S
C1108 C1110 1.395 . S
C1108 C1111 1.403 . S
H1109 C1115 0.930 . S
C1110 H1096 0.930 . S
C1110 C1108 1.395 . S
C1110 C1113 1.403 . S
C1111 C1108 1.403 . S
C1111 C1112 1.524 . S
C1111 C1115 1.400 . S
C1112 H1097 0.960 . S
C1112 H1098 0.960 . S
C1112 H1099 0.960 . S
C1112 C1111 1.524 . S
C1113 C1110 1.403 . S
C1113 C1114 1.392 . S
C1113 C1117 1.532 . S
C1114 C1113 1.392 . S
C1114 C1115 1.385 . S
C1114 C1116 1.478 . S
C1115 H1109 0.930 . S
C1115 C1111 1.400 . S
C1115 C1114 1.385 . S
C1116 C1114 1.478 . S
C1116 C1118 1.381 . S
C1116 C1122 1.383 . S
C1117 C1113 1.532 . S
C1117 H1123 0.940 1_455 S
C1117 H1124 0.979 . S
C1117 H1125 0.926 1_455 S
C1118 C1116 1.381 . S
C1118 C1119 1.394 . S
C1118 H1126 0.930 . S
C1119 C1118 1.394 . S
C1119 C1120 1.383 . S
C1119 H1127 0.929 1_455 S
C1120 C1119 1.383 . S
C1120 C1121 1.377 . S
C1121 H1105 0.930 . S
C1121 C1120 1.377 . S
C1121 C1122 1.379 . S
C1122 H1106 0.931 . S
C1122 C1116 1.383 . S
C1122 C1121 1.379 . S
H1123 C1117 0.940 1_655 S
H1124 C1117 0.979 . S
H1125 C1117 0.926 1_655 S
H1126 C1118 0.930 . S
H1127 C1119 0.929 1_655 S
H1128 C1136 0.929 . S
H1129 C1138 0.930 . S
H1130 C1140 0.930 . S
H1131 C1143 0.929 . S
H1132 C1146 0.930 . S
H1133 C1148 0.960 . S
H1134 C1148 0.960 . S
H1135 C1148 0.960 . S
C1136 H1128 0.929 . S
C1136 C1137 1.377 . S
C1136 C1138 1.384 . S
C1137 C1136 1.377 . S
C1137 C1143 1.390 . S
C1138 H1129 0.930 . S
C1138 C1136 1.384 . S
C1138 C1139 1.372 . S
C1139 C1138 1.372 . S
C1139 C1140 1.400 . S
C1139 C1144 1.490 . S
C1140 H1130 0.930 . S
C1140 C1139 1.400 . S
C1140 C1143 1.386 . S
H1141 C1157 0.930 . S
H1142 C1158 0.931 . S
C1143 H1131 0.929 . S
C1143 C1137 1.390 . S
C1143 C1140 1.386 . S
C1144 C1139 1.490 . S
C1144 C1146 1.395 . S
C1144 C1147 1.403 . S
H1145 C1151 0.930 . S
C1146 H1132 0.930 . S
C1146 C1144 1.395 . S
C1146 C1149 1.403 . S
C1147 C1144 1.403 . S
C1147 C1148 1.524 . S
C1147 C1151 1.400 . S
C1148 H1133 0.960 . S
C1148 H1134 0.960 . S
C1148 H1135 0.960 . S
C1148 C1147 1.524 . S
C1149 C1146 1.403 . S
C1149 C1150 1.392 . S
C1149 C1153 1.495 . S
C1150 C1149 1.392 . S
C1150 C1151 1.385 . S
C1150 C1152 1.478 . S
C1151 H1145 0.930 . S
C1151 C1147 1.400 . S
C1151 C1150 1.385 . S
C1152 C1150 1.478 . S
C1152 C1154 1.381 . S
C1152 C1158 1.383 . S
C1153 C1149 1.495 . S
C1153 H1159 0.959 . S
C1153 H1160 0.961 . S
C1153 H1161 0.960 . S
C1154 C1152 1.381 . S
C1154 C1155 1.394 . S
C1154 H1162 0.930 . S
C1155 C1154 1.394 . S
C1155 C1156 1.383 . S
C1155 H1163 0.929 . S
C1156 C1155 1.383 . S
C1156 C1157 1.377 . S
C1157 H1141 0.930 . S
C1157 C1156 1.377 . S
C1157 C1158 1.379 . S
C1158 H1142 0.931 . S
C1158 C1152 1.383 . S
C1158 C1157 1.379 . S
H1159 C1153 0.959 . S
H1160 C1153 0.961 . S
H1161 C1153 0.960 . S
H1162 C1154 0.930 . S
H1163 C1155 0.929 . S
H1164 C1172 0.929 . S
H1165 C1174 0.930 . S
H1166 C1176 0.930 . S
H1167 C1179 0.929 . S
H1168 C1182 0.930 . S
H1169 C1184 0.960 . S
H1170 C1184 0.960 . S
H1171 C1184 0.960 . S
C1172 H1164 0.929 . S
C1172 C1173 1.377 . S
C1172 C1174 1.384 . S
C1173 C1172 1.377 . S
C1173 C1179 1.390 1_655 S
C1174 H1165 0.930 . S
C1174 C1172 1.384 . S
C1174 C1175 1.372 . S
C1175 C1174 1.372 . S
C1175 C1176 1.400 1_655 S
C1175 C1180 1.488 . S
C1176 H1166 0.930 . S
C1176 C1175 1.400 1_455 S
C1176 C1179 1.386 . S
H1177 C1193 0.930 . S
H1178 C1194 0.931 . S
C1179 H1167 0.929 . S
C1179 C1173 1.390 1_455 S
C1179 C1176 1.386 . S
C1180 C1175 1.488 . S
C1180 C1182 1.428 . S
C1180 C1183 1.373 1_655 S
H1181 C1187 0.930 . S
C1182 H1168 0.930 . S
C1182 C1180 1.428 . S
C1182 C1185 1.403 . S
C1183 C1180 1.373 1_455 S
C1183 C1184 1.524 . S
C1183 C1187 1.400 . S
C1184 H1169 0.960 . S
C1184 H1170 0.960 . S
C1184 H1171 0.960 . S
C1184 C1183 1.524 . S
C1185 C1182 1.403 . S
C1185 C1186 1.390 . S
C1185 C1189 1.495 . S
C1186 C1185 1.390 . S
C1186 C1187 1.387 1_655 S
C1186 C1188 1.477 1_655 S
C1187 H1181 0.930 . S
C1187 C1183 1.400 . S
C1187 C1186 1.387 1_455 S
C1188 C1186 1.477 1_455 S
C1188 C1190 1.381 1_455 S
C1188 C1194 1.383 . S
C1189 C1185 1.495 . S
C1189 H1195 0.959 . S
C1189 H1196 0.961 . S
C1189 H1197 0.960 . S
C1190 C1188 1.381 1_655 S
C1190 C1191 1.394 . S
C1190 H1198 0.930 . S
C1191 C1190 1.394 . S
C1191 C1192 1.383 1_655 S
C1191 H1199 0.929 . S
C1192 C1191 1.383 1_455 S
C1192 C1193 1.377 . S
C1193 H1177 0.930 . S
C1193 C1192 1.377 . S
C1193 C1194 1.379 . S
C1194 H1178 0.931 . S
C1194 C1188 1.383 . S
C1194 C1193 1.379 . S
H1195 C1189 0.959 . S
H1196 C1189 0.961 . S
H1197 C1189 0.960 . S
H1198 C1190 0.930 . S
H1199 C1191 0.929 . S
H1200 C1208 0.929 . S
H1201 C1210 0.930 . S
H1202 C1212 0.930 . S
H1203 C1215 0.929 . S
H1204 C1218 0.930 . S
H1205 C1220 0.960 . S
H1206 C1220 0.960 . S
H1207 C1220 0.960 . S
C1208 H1200 0.929 . S
C1208 C1209 1.377 . S
C1208 C1210 1.384 . S
C1209 C1208 1.377 . S
C1209 C1215 1.390 . S
C1210 H1201 0.930 . S
C1210 C1208 1.384 . S
C1210 C1211 1.372 . S
C1211 C1210 1.372 . S
C1211 C1212 1.400 . S
C1211 C1216 1.490 . S
C1212 H1202 0.930 . S
C1212 C1211 1.400 . S
C1212 C1215 1.386 . S
H1213 C1229 0.930 . S
H1214 C1230 0.931 . S
C1215 H1203 0.929 . S
C1215 C1209 1.390 . S
C1215 C1212 1.386 . S
C1216 C1211 1.490 . S
C1216 C1218 1.395 . S
C1216 C1219 1.403 . S
H1217 C1223 0.930 . S
C1218 H1204 0.930 . S
C1218 C1216 1.395 . S
C1218 C1221 1.403 . S
C1219 C1216 1.403 . S
C1219 C1220 1.524 . S
C1219 C1223 1.400 . S
C1220 H1205 0.960 . S
C1220 H1206 0.960 . S
C1220 H1207 0.960 . S
C1220 C1219 1.524 . S
C1221 C1218 1.403 . S
C1221 C1222 1.392 . S
C1221 C1225 1.495 . S
C1222 C1221 1.392 . S
C1222 C1223 1.385 . S
C1222 C1224 1.478 . S
C1223 H1217 0.930 . S
C1223 C1219 1.400 . S
C1223 C1222 1.385 . S
C1224 C1222 1.478 . S
C1224 C1226 1.381 . S
C1224 C1230 1.383 . S
C1225 C1221 1.495 . S
C1225 H1231 0.959 . S
C1225 H1232 0.961 . S
C1225 H1233 0.960 . S
C1226 C1224 1.381 . S
C1226 C1227 1.394 . S
C1226 H1234 0.930 . S
C1227 C1226 1.394 . S
C1227 C1228 1.383 . S
C1227 H1235 0.929 . S
C1228 C1227 1.383 . S
C1228 C1229 1.377 . S
C1229 H1213 0.930 . S
C1229 C1228 1.377 . S
C1229 C1230 1.379 . S
C1230 H1214 0.931 . S
C1230 C1224 1.383 . S
C1230 C1229 1.379 . S
H1231 C1225 0.959 . S
H1232 C1225 0.961 . S
H1233 C1225 0.960 . S
H1234 C1226 0.930 . S
H1235 C1227 0.929 . S
H1236 C1244 0.929 . S
H1237 C1246 0.930 . S
H1238 C1248 0.930 . S
H1239 C1251 0.929 . S
H1240 C1254 0.930 . S
H1241 C1256 0.960 . S
H1242 C1256 0.960 . S
H1243 C1256 0.960 . S
C1244 H1236 0.929 . S
C1244 C1245 1.377 . S
C1244 C1246 1.384 . S
C1245 C1244 1.377 . S
C1245 C1251 1.390 . S
C1246 H1237 0.930 . S
C1246 C1244 1.384 . S
C1246 C1247 1.372 . S
C1247 C1246 1.372 . S
C1247 C1248 1.400 . S
C1247 C1252 1.490 . S
C1248 H1238 0.930 . S
C1248 C1247 1.400 . S
C1248 C1251 1.386 . S
H1249 C1265 0.930 . S
H1250 C1266 0.931 . S
C1251 H1239 0.929 . S
C1251 C1245 1.390 . S
C1251 C1248 1.386 . S
C1252 C1247 1.490 . S
C1252 C1254 1.395 . S
C1252 C1255 1.403 . S
H1253 C1259 0.930 . S
C1254 H1240 0.930 . S
C1254 C1252 1.395 . S
C1254 C1257 1.403 . S
C1255 C1252 1.403 . S
C1255 C1256 1.524 . S
C1255 C1259 1.400 . S
C1256 H1241 0.960 . S
C1256 H1242 0.960 . S
C1256 H1243 0.960 . S
C1256 C1255 1.524 . S
C1257 C1254 1.403 . S
C1257 C1258 1.392 . S
C1257 C1261 1.495 . S
C1258 C1257 1.392 . S
C1258 C1259 1.385 . S
C1258 C1260 1.478 . S
C1259 H1253 0.930 . S
C1259 C1255 1.400 . S
C1259 C1258 1.385 . S
C1260 C1258 1.478 . S
C1260 C1262 1.381 . S
C1260 C1266 1.383 . S
C1261 C1257 1.495 . S
C1261 H1267 0.959 . S
C1261 H1268 0.961 . S
C1261 H1269 0.960 . S
C1262 C1260 1.381 . S
C1262 C1263 1.394 . S
C1262 H1270 0.930 . S
C1263 C1262 1.394 . S
C1263 C1264 1.383 . S
C1263 H1271 0.929 . S
C1264 C1263 1.383 . S
C1264 C1265 1.377 . S
C1265 H1249 0.930 . S
C1265 C1264 1.377 . S
C1265 C1266 1.379 . S
C1266 H1250 0.931 . S
C1266 C1260 1.383 . S
C1266 C1265 1.379 . S
H1267 C1261 0.959 . S
H1268 C1261 0.961 . S
H1269 C1261 0.960 . S
H1270 C1262 0.930 . S
H1271 C1263 0.929 . S
H1272 C1280 0.929 . S
H1273 C1282 0.924 1_545 S
H1274 C1284 0.930 1_554 S
H1275 C1287 0.929 . S
H1276 C1290 0.930 . S
H1277 C1292 0.960 . S
H1278 C1292 1.018 . S
H1279 C1292 0.960 . S
C1280 H1272 0.929 . S
C1280 C1281 1.377 . S
C1280 C1282 1.372 1_545 S
C1281 C1280 1.377 . S
C1281 C1287 1.390 1_545 S
C1282 H1273 0.924 1_565 S
C1282 C1280 1.372 1_565 S
C1282 C1283 1.391 . S
C1283 C1282 1.391 . S
C1283 C1284 1.400 . S
C1283 C1288 1.490 . S
C1284 H1274 0.930 1_556 S
C1284 C1283 1.400 . S
C1284 C1287 1.386 . S
H1285 C1301 0.930 . S
H1286 C1302 0.931 . S
C1287 H1275 0.929 . S
C1287 C1281 1.390 1_565 S
C1287 C1284 1.386 . S
C1288 C1283 1.490 . S
C1288 C1290 1.395 . S
C1288 C1291 1.403 1_556 S
H1289 C1295 0.930 . S
C1290 H1276 0.930 . S
C1290 C1288 1.395 . S
C1290 C1293 1.403 . S
C1291 C1288 1.403 1_554 S
C1291 C1292 1.524 . S
C1291 C1295 1.400 . S
C1292 H1277 0.960 . S
C1292 H1278 1.018 . S
C1292 H1279 0.960 . S
C1292 C1291 1.524 . S
C1293 C1290 1.403 . S
C1293 C1294 1.392 . S
C1293 C1297 1.495 . S
C1294 C1293 1.392 . S
C1294 C1295 1.385 1_556 S
C1294 C1296 1.460 1_556 S
C1295 H1289 0.930 . S
C1295 C1291 1.400 . S
C1295 C1294 1.385 1_554 S
C1296 C1294 1.460 1_554 S
C1296 C1298 1.370 1_554 S
C1296 C1302 1.417 . S
C1297 C1293 1.495 . S
C1297 H1303 0.959 . S
C1297 H1304 0.961 . S
C1297 H1305 0.960 . S
C1298 C1296 1.370 1_556 S
C1298 C1299 1.394 1_556 S
C1298 H1306 0.930 . S
C1299 C1298 1.394 1_554 S
C1299 C1300 1.383 . S
C1299 H1307 0.929 1_554 S
C1300 C1299 1.383 . S
C1300 C1301 1.377 . S
C1301 H1285 0.930 . S
C1301 C1300 1.377 . S
C1301 C1302 1.379 . S
C1302 H1286 0.931 . S
C1302 C1296 1.417 . S
C1302 C1301 1.379 . S
H1303 C1297 0.959 . S
H1304 C1297 0.961 . S
H1305 C1297 0.960 . S
H1306 C1298 0.930 . S
H1307 C1299 0.929 1_556 S
H1308 C1316 0.929 . S
H1309 C1318 0.930 . S
H1310 C1320 0.930 . S
H1311 C1323 0.929 . S
H1312 C1326 0.930 . S
H1313 C1328 0.960 . S
H1314 C1328 0.960 . S
H1315 C1328 0.960 . S
C1316 H1308 0.929 . S
C1316 C1317 1.377 . S
C1316 C1318 1.384 . S
C1317 C1316 1.377 . S
C1317 C1323 1.390 . S
C1318 H1309 0.930 . S
C1318 C1316 1.384 . S
C1318 C1319 1.372 . S
C1319 C1318 1.372 . S
C1319 C1320 1.400 . S
C1319 C1324 1.490 . S
C1320 H1310 0.930 . S
C1320 C1319 1.400 . S
C1320 C1323 1.386 . S
H1321 C1337 0.930 . S
H1322 C1338 0.931 . S
C1323 H1311 0.929 . S
C1323 C1317 1.390 . S
C1323 C1320 1.386 . S
C1324 C1319 1.490 . S
C1324 C1326 1.395 . S
C1324 C1327 1.403 . S
H1325 C1331 0.930 . S
C1326 H1312 0.930 . S
C1326 C1324 1.395 . S
C1326 C1329 1.403 . S
C1327 C1324 1.403 . S
C1327 C1328 1.524 . S
C1327 C1331 1.400 . S
C1328 H1313 0.960 . S
C1328 H1314 0.960 . S
C1328 H1315 0.960 . S
C1328 C1327 1.524 . S
C1329 C1326 1.403 . S
C1329 C1330 1.392 . S
C1329 C1333 1.495 . S
C1330 C1329 1.392 . S
C1330 C1331 1.385 . S
C1330 C1332 1.478 . S
C1331 H1325 0.930 . S
C1331 C1327 1.400 . S
C1331 C1330 1.385 . S
C1332 C1330 1.478 . S
C1332 C1334 1.381 . S
C1332 C1338 1.383 . S
C1333 C1329 1.495 . S
C1333 H1339 0.959 . S
C1333 H1340 0.961 . S
C1333 H1341 0.960 . S
C1334 C1332 1.381 . S
C1334 C1335 1.394 . S
C1334 H1342 0.930 . S
C1335 C1334 1.394 . S
C1335 C1336 1.383 . S
C1335 H1343 0.929 . S
C1336 C1335 1.383 . S
C1336 C1337 1.377 . S
C1337 H1321 0.930 . S
C1337 C1336 1.377 . S
C1337 C1338 1.379 . S
C1338 H1322 0.931 . S
C1338 C1332 1.383 . S
C1338 C1337 1.379 . S
H1339 C1333 0.959 . S
H1340 C1333 0.961 . S
H1341 C1333 0.960 . S
H1342 C1334 0.930 . S
H1343 C1335 0.929 . S
H1344 C1352 0.929 . S
H1345 C1354 0.930 . S
H1346 C1356 0.930 . S
H1347 C1359 0.929 . S
H1348 C1362 0.930 . S
H1349 C1364 0.960 . S
H1350 C1364 0.960 . S
H1351 C1364 0.960 . S
C1352 H1344 0.929 . S
C1352 C1353 1.377 . S
C1352 C1354 1.384 . S
C1353 C1352 1.377 . S
C1353 C1359 1.390 . S
C1354 H1345 0.930 . S
C1354 C1352 1.384 . S
C1354 C1355 1.372 . S
C1355 C1354 1.372 . S
C1355 C1356 1.400 . S
C1355 C1360 1.490 . S
C1356 H1346 0.930 . S
C1356 C1355 1.400 . S
C1356 C1359 1.386 . S
H1357 C1373 0.930 . S
H1358 C1374 0.931 . S
C1359 H1347 0.929 . S
C1359 C1353 1.390 . S
C1359 C1356 1.386 . S
C1360 C1355 1.490 . S
C1360 C1362 1.395 . S
C1360 C1363 1.403 . S
H1361 C1367 0.930 . S
C1362 H1348 0.930 . S
C1362 C1360 1.395 . S
C1362 C1365 1.403 . S
C1363 C1360 1.403 . S
C1363 C1364 1.524 . S
C1363 C1367 1.400 . S
C1364 H1349 0.960 . S
C1364 H1350 0.960 . S
C1364 H1351 0.960 . S
C1364 C1363 1.524 . S
C1365 C1362 1.403 . S
C1365 C1366 1.392 . S
C1365 C1369 1.495 . S
C1366 C1365 1.392 . S
C1366 C1367 1.385 . S
C1366 C1368 1.478 . S
C1367 H1361 0.930 . S
C1367 C1363 1.400 . S
C1367 C1366 1.385 . S
C1368 C1366 1.478 . S
C1368 C1370 1.381 . S
C1368 C1374 1.383 . S
C1369 C1365 1.495 . S
C1369 H1375 0.959 . S
C1369 H1376 0.961 . S
C1369 H1377 0.960 . S
C1370 C1368 1.381 . S
C1370 C1371 1.394 . S
C1370 H1378 0.930 . S
C1371 C1370 1.394 . S
C1371 C1372 1.383 . S
C1371 H1379 0.929 . S
C1372 C1371 1.383 . S
C1372 C1373 1.377 . S
C1373 H1357 0.930 . S
C1373 C1372 1.377 . S
C1373 C1374 1.379 . S
C1374 H1358 0.931 . S
C1374 C1368 1.383 . S
C1374 C1373 1.379 . S
H1375 C1369 0.959 . S
H1376 C1369 0.961 . S
H1377 C1369 0.960 . S
H1378 C1370 0.930 . S
H1379 C1371 0.929 . S
H1380 C1388 0.929 . S
H1381 C1390 0.930 . S
H1382 C1392 0.930 . S
H1383 C1395 0.929 . S
H1384 C1398 0.930 . S
H1385 C1400 0.960 . S
H1386 C1400 0.960 . S
H1387 C1400 0.960 . S
C1388 H1380 0.929 . S
C1388 C1389 1.377 . S
C1388 C1390 1.384 . S
C1389 C1388 1.377 . S
C1389 C1395 1.390 . S
C1390 H1381 0.930 . S
C1390 C1388 1.384 . S
C1390 C1391 1.372 . S
C1391 C1390 1.372 . S
C1391 C1392 1.400 . S
C1391 C1396 1.490 . S
C1392 H1382 0.930 . S
C1392 C1391 1.400 . S
C1392 C1395 1.386 . S
H1393 C1409 0.930 . S
H1394 C1410 0.931 . S
C1395 H1383 0.929 . S
C1395 C1389 1.390 . S
C1395 C1392 1.386 . S
C1396 C1391 1.490 . S
C1396 C1398 1.395 . S
C1396 C1399 1.403 . S
H1397 C1403 0.930 . S
C1398 H1384 0.930 . S
C1398 C1396 1.395 . S
C1398 C1401 1.403 . S
C1399 C1396 1.403 . S
C1399 C1400 1.524 . S
C1399 C1403 1.400 . S
C1400 H1385 0.960 . S
C1400 H1386 0.960 . S
C1400 H1387 0.960 . S
C1400 C1399 1.524 . S
C1401 C1398 1.403 . S
C1401 C1402 1.392 . S
C1401 C1405 1.495 . S
C1402 C1401 1.392 . S
C1402 C1403 1.385 . S
C1402 C1404 1.478 . S
C1403 H1397 0.930 . S
C1403 C1399 1.400 . S
C1403 C1402 1.385 . S
C1404 C1402 1.478 . S
C1404 C1406 1.381 . S
C1404 C1410 1.383 . S
C1405 C1401 1.495 . S
C1405 H1411 0.959 . S
C1405 H1412 0.961 . S
C1405 H1413 0.960 . S
C1406 C1404 1.381 . S
C1406 C1407 1.394 . S
C1406 H1414 0.930 . S
C1407 C1406 1.394 . S
C1407 C1408 1.383 . S
C1407 H1415 0.929 . S
C1408 C1407 1.383 . S
C1408 C1409 1.377 . S
C1409 H1393 0.930 . S
C1409 C1408 1.377 . S
C1409 C1410 1.379 . S
C1410 H1394 0.931 . S
C1410 C1404 1.383 . S
C1410 C1409 1.379 . S
H1411 C1405 0.959 . S
H1412 C1405 0.961 . S
H1413 C1405 0.960 . S
H1414 C1406 0.930 . S
H1415 C1407 0.929 . S
H1416 C1424 0.929 . S
H1417 C1426 0.930 . S
H1418 C1428 0.930 . S
H1419 C1431 0.929 . S
H1420 C1434 0.930 . S
H1421 C1436 0.960 . S
H1422 C1436 0.960 . S
H1423 C1436 0.960 . S
C1424 H1416 0.929 . S
C1424 C1425 1.377 . S
C1424 C1426 1.384 . S
C1425 C1424 1.377 . S
C1425 C1431 1.390 . S
C1426 H1417 0.930 . S
C1426 C1424 1.384 . S
C1426 C1427 1.372 . S
C1427 C1426 1.372 . S
C1427 C1428 1.400 . S
C1427 C1432 1.490 . S
C1428 H1418 0.930 . S
C1428 C1427 1.400 . S
C1428 C1431 1.386 . S
H1429 C1445 0.930 . S
H1430 C1446 0.931 . S
C1431 H1419 0.929 . S
C1431 C1425 1.390 . S
C1431 C1428 1.386 . S
C1432 C1427 1.490 . S
C1432 C1434 1.395 . S
C1432 C1435 1.403 . S
H1433 C1439 0.930 . S
C1434 H1420 0.930 . S
C1434 C1432 1.395 . S
C1434 C1437 1.403 . S
C1435 C1432 1.403 . S
C1435 C1436 1.524 . S
C1435 C1439 1.400 . S
C1436 H1421 0.960 . S
C1436 H1422 0.960 . S
C1436 H1423 0.960 . S
C1436 C1435 1.524 . S
C1437 C1434 1.403 . S
C1437 C1438 1.392 . S
C1437 C1441 1.495 . S
C1438 C1437 1.392 . S
C1438 C1439 1.385 . S
C1438 C1440 1.478 . S
C1439 H1433 0.930 . S
C1439 C1435 1.400 . S
C1439 C1438 1.385 . S
C1440 C1438 1.478 . S
C1440 C1442 1.381 . S
C1440 C1446 1.383 . S
C1441 C1437 1.495 . S
C1441 H1447 0.959 . S
C1441 H1448 0.961 . S
C1441 H1449 0.960 . S
C1442 C1440 1.381 . S
C1442 C1443 1.394 . S
C1442 H1450 0.930 . S
C1443 C1442 1.394 . S
C1443 C1444 1.383 . S
C1443 H1451 0.929 . S
C1444 C1443 1.383 . S
C1444 C1445 1.377 . S
C1445 H1429 0.930 . S
C1445 C1444 1.377 . S
C1445 C1446 1.379 . S
C1446 H1430 0.931 . S
C1446 C1440 1.383 . S
C1446 C1445 1.379 . S
H1447 C1441 0.959 . S
H1448 C1441 0.961 . S
H1449 C1441 0.960 . S
H1450 C1442 0.930 . S
H1451 C1443 0.929 . S
H1452 C1460 0.929 . S
H1453 C1462 0.930 . S
H1454 C1464 0.930 . S
H1455 C1467 0.929 . S
H1456 C1470 0.930 . S
H1457 C1472 0.960 . S
H1458 C1472 0.960 . S
H1459 C1472 0.960 . S
C1460 H1452 0.929 . S
C1460 C1461 1.377 . S
C1460 C1462 1.384 . S
C1461 C1460 1.377 . S
C1461 C1467 1.390 . S
C1462 H1453 0.930 . S
C1462 C1460 1.384 . S
C1462 C1463 1.372 . S
C1463 C1462 1.372 . S
C1463 C1464 1.400 . S
C1463 C1468 1.490 . S
C1464 H1454 0.930 . S
C1464 C1463 1.400 . S
C1464 C1467 1.386 . S
H1465 C1481 0.930 . S
H1466 C1482 0.931 . S
C1467 H1455 0.929 . S
C1467 C1461 1.390 . S
C1467 C1464 1.386 . S
C1468 C1463 1.490 . S
C1468 C1470 1.395 . S
C1468 C1471 1.403 . S
H1469 C1475 0.930 . S
C1470 H1456 0.930 . S
C1470 C1468 1.395 . S
C1470 C1473 1.403 . S
C1471 C1468 1.403 . S
C1471 C1472 1.524 . S
C1471 C1475 1.400 . S
C1472 H1457 0.960 . S
C1472 H1458 0.960 . S
C1472 H1459 0.960 . S
C1472 C1471 1.524 . S
C1473 C1470 1.403 . S
C1473 C1474 1.392 . S
C1473 C1477 1.495 . S
C1474 C1473 1.392 . S
C1474 C1475 1.385 . S
C1474 C1476 1.478 . S
C1475 H1469 0.930 . S
C1475 C1471 1.400 . S
C1475 C1474 1.385 . S
C1476 C1474 1.478 . S
C1476 C1478 1.381 . S
C1476 C1482 1.383 . S
C1477 C1473 1.495 . S
C1477 H1483 0.959 . S
C1477 H1484 0.961 . S
C1477 H1485 0.960 . S
C1478 C1476 1.381 . S
C1478 C1479 1.394 . S
C1478 H1486 0.930 . S
C1479 C1478 1.394 . S
C1479 C1480 1.383 . S
C1479 H1487 0.929 . S
C1480 C1479 1.383 . S
C1480 C1481 1.377 . S
C1481 H1465 0.930 . S
C1481 C1480 1.377 . S
C1481 C1482 1.379 . S
C1482 H1466 0.931 . S
C1482 C1476 1.383 . S
C1482 C1481 1.379 . S
H1483 C1477 0.959 . S
H1484 C1477 0.961 . S
H1485 C1477 0.960 . S
H1486 C1478 0.930 . S
H1487 C1479 0.929 . S
H1488 C1496 0.929 . S
H1489 C1498 0.930 . S
H1490 C1500 0.930 . S
H1491 C1503 0.929 . S
H1492 C1506 0.930 . S
H1493 C1508 0.960 . S
H1494 C1508 0.960 . S
H1495 C1508 0.960 . S
C1496 H1488 0.929 . S
C1496 C1497 1.377 . S
C1496 C1498 1.384 . S
C1497 C1496 1.377 . S
C1497 C1503 1.390 . S
C1498 H1489 0.930 . S
C1498 C1496 1.384 . S
C1498 C1499 1.372 . S
C1499 C1498 1.372 . S
C1499 C1500 1.400 . S
C1499 C1504 1.490 . S
C1500 H1490 0.930 . S
C1500 C1499 1.400 . S
C1500 C1503 1.386 . S
H1501 C1517 0.930 . S
H1502 C1518 0.931 . S
C1503 H1491 0.929 . S
C1503 C1497 1.390 . S
C1503 C1500 1.386 . S
C1504 C1499 1.490 . S
C1504 C1506 1.395 . S
C1504 C1507 1.403 . S
H1505 C1511 0.930 . S
C1506 H1492 0.930 . S
C1506 C1504 1.395 . S
C1506 C1509 1.403 . S
C1507 C1504 1.403 . S
C1507 C1508 1.524 . S
C1507 C1511 1.400 . S
C1508 H1493 0.960 . S
C1508 H1494 0.960 . S
C1508 H1495 0.960 . S
C1508 C1507 1.524 . S
C1509 C1506 1.403 . S
C1509 C1510 1.392 . S
C1509 C1513 1.495 . S
C1510 C1509 1.392 . S
C1510 C1511 1.385 . S
C1510 C1512 1.478 . S
C1511 H1505 0.930 . S
C1511 C1507 1.400 . S
C1511 C1510 1.385 . S
C1512 C1510 1.478 . S
C1512 C1514 1.381 . S
C1512 C1518 1.383 . S
C1513 C1509 1.495 . S
C1513 H1519 0.959 . S
C1513 H1520 0.961 . S
C1513 H1521 0.960 . S
C1514 C1512 1.381 . S
C1514 C1515 1.394 . S
C1514 H1522 0.930 . S
C1515 C1514 1.394 . S
C1515 C1516 1.383 . S
C1515 H1523 0.929 . S
C1516 C1515 1.383 . S
C1516 C1517 1.377 . S
C1517 H1501 0.930 . S
C1517 C1516 1.377 . S
C1517 C1518 1.379 . S
C1518 H1502 0.931 . S
C1518 C1512 1.383 . S
C1518 C1517 1.379 . S
H1519 C1513 0.959 . S
H1520 C1513 0.961 . S
H1521 C1513 0.960 . S
H1522 C1514 0.930 . S
H1523 C1515 0.929 . S
H1524 C1532 0.929 . S
H1525 C1534 0.930 . S
H1526 C1536 0.930 . S
H1527 C1539 0.929 . S
H1528 C1542 0.930 . S
H1529 C1544 0.960 . S
H1530 C1544 0.960 . S
H1531 C1544 0.960 1_545 S
C1532 H1524 0.929 . S
C1532 C1533 1.377 . S
C1532 C1534 1.384 . S
C1533 C1532 1.377 . S
C1533 C1539 1.390 . S
C1534 H1525 0.930 . S
C1534 C1532 1.384 . S
C1534 C1535 1.372 . S
C1535 C1534 1.372 . S
C1535 C1536 1.400 . S
C1535 C1540 1.490 . S
C1536 H1526 0.930 . S
C1536 C1535 1.400 . S
C1536 C1539 1.386 . S
H1537 C1553 0.930 . S
H1538 C1554 0.931 . S
C1539 H1527 0.929 . S
C1539 C1533 1.390 . S
C1539 C1536 1.386 . S
C1540 C1535 1.490 . S
C1540 C1542 1.395 . S
C1540 C1543 1.403 . S
H1541 C1547 0.930 1_565 S
C1542 H1528 0.930 . S
C1542 C1540 1.395 . S
C1542 C1545 1.403 . S
C1543 C1540 1.403 . S
C1543 C1544 1.524 1_545 S
C1543 C1547 1.400 . S
C1544 H1529 0.960 . S
C1544 H1530 0.960 . S
C1544 H1531 0.960 1_565 S
C1544 C1543 1.524 1_565 S
C1545 C1542 1.403 . S
C1545 C1546 1.392 . S
C1545 C1549 1.495 . S
C1546 C1545 1.392 . S
C1546 C1547 1.385 . S
C1546 C1548 1.478 . S
C1547 H1541 0.930 1_545 S
C1547 C1543 1.400 . S
C1547 C1546 1.385 . S
C1548 C1546 1.478 . S
C1548 C1550 1.381 . S
C1548 C1554 1.383 . S
C1549 C1545 1.495 . S
C1549 H1555 0.959 . S
C1549 H1556 0.961 . S
C1549 H1557 0.960 . S
C1550 C1548 1.381 . S
C1550 C1551 1.390 1_545 S
C1550 H1558 0.930 1_545 S
C1551 C1550 1.390 1_565 S
C1551 C1552 1.371 1_565 S
C1551 H1559 0.947 . S
C1552 C1551 1.371 1_545 S
C1552 C1553 1.377 . S
C1553 H1537 0.930 . S
C1553 C1552 1.377 . S
C1553 C1554 1.379 . S
C1554 H1538 0.931 . S
C1554 C1548 1.383 . S
C1554 C1553 1.379 . S
H1555 C1549 0.959 . S
H1556 C1549 0.961 . S
H1557 C1549 0.960 . S
H1558 C1550 0.930 1_565 S
H1559 C1551 0.947 . S
H1560 C1568 0.929 . S
H1561 C1570 0.930 . S
H1562 C1572 0.930 . S
H1563 C1575 0.929 . S
H1564 C1578 0.930 . S
H1565 C1580 0.960 . S
H1566 C1580 0.960 . S
H1567 C1580 0.960 . S
C1568 H1560 0.929 . S
C1568 C1569 1.377 . S
C1568 C1570 1.384 . S
C1569 C1568 1.377 . S
C1569 C1575 1.390 . S
C1570 H1561 0.930 . S
C1570 C1568 1.384 . S
C1570 C1571 1.372 . S
C1571 C1570 1.372 . S
C1571 C1572 1.400 . S
C1571 C1576 1.490 . S
C1572 H1562 0.930 . S
C1572 C1571 1.400 . S
C1572 C1575 1.386 . S
H1573 C1589 0.930 . S
H1574 C1590 0.931 . S
C1575 H1563 0.929 . S
C1575 C1569 1.390 . S
C1575 C1572 1.386 . S
C1576 C1571 1.490 . S
C1576 C1578 1.395 . S
C1576 C1579 1.403 . S
H1577 C1583 0.930 . S
C1578 H1564 0.930 . S
C1578 C1576 1.395 . S
C1578 C1581 1.403 . S
C1579 C1576 1.403 . S
C1579 C1580 1.524 . S
C1579 C1583 1.400 . S
C1580 H1565 0.960 . S
C1580 H1566 0.960 . S
C1580 H1567 0.960 . S
C1580 C1579 1.524 . S
C1581 C1578 1.403 . S
C1581 C1582 1.392 . S
C1581 C1585 1.495 . S
C1582 C1581 1.392 . S
C1582 C1583 1.385 . S
C1582 C1584 1.478 . S
C1583 H1577 0.930 . S
C1583 C1579 1.400 . S
C1583 C1582 1.385 . S
C1584 C1582 1.478 . S
C1584 C1586 1.381 . S
C1584 C1590 1.383 . S
C1585 C1581 1.495 . S
C1585 H1591 0.959 . S
C1585 H1592 0.961 . S
C1585 H1593 0.960 . S
C1586 C1584 1.381 . S
C1586 C1587 1.394 . S
C1586 H1594 0.930 . S
C1587 C1586 1.394 . S
C1587 C1588 1.383 . S
C1587 H1595 0.929 . S
C1588 C1587 1.383 . S
C1588 C1589 1.377 . S
C1589 H1573 0.930 . S
C1589 C1588 1.377 . S
C1589 C1590 1.379 . S
C1590 H1574 0.931 . S
C1590 C1584 1.383 . S
C1590 C1589 1.379 . S
H1591 C1585 0.959 . S
H1592 C1585 0.961 . S
H1593 C1585 0.960 . S
H1594 C1586 0.930 . S
H1595 C1587 0.929 . S
H1596 C1604 0.929 . S
H1597 C1606 0.930 . S
H1598 C1608 0.930 . S
H1599 C1611 0.929 . S
H1600 C1614 0.930 . S
H1601 C1616 0.960 . S
H1602 C1616 0.960 . S
H1603 C1616 0.960 . S
C1604 H1596 0.929 . S
C1604 C1605 1.377 . S
C1604 C1606 1.384 . S
C1605 C1604 1.377 . S
C1605 C1611 1.390 . S
C1606 H1597 0.930 . S
C1606 C1604 1.384 . S
C1606 C1607 1.372 . S
C1607 C1606 1.372 . S
C1607 C1608 1.400 . S
C1607 C1612 1.490 . S
C1608 H1598 0.930 . S
C1608 C1607 1.400 . S
C1608 C1611 1.386 . S
H1609 C1625 0.930 . S
H1610 C1626 0.931 . S
C1611 H1599 0.929 . S
C1611 C1605 1.390 . S
C1611 C1608 1.386 . S
C1612 C1607 1.490 . S
C1612 C1614 1.395 . S
C1612 C1615 1.403 . S
H1613 C1619 0.930 . S
C1614 H1600 0.930 . S
C1614 C1612 1.395 . S
C1614 C1617 1.403 . S
C1615 C1612 1.403 . S
C1615 C1616 1.524 . S
C1615 C1619 1.400 . S
C1616 H1601 0.960 . S
C1616 H1602 0.960 . S
C1616 H1603 0.960 . S
C1616 C1615 1.524 . S
C1617 C1614 1.403 . S
C1617 C1618 1.392 . S
C1617 C1621 1.495 . S
C1618 C1617 1.392 . S
C1618 C1619 1.385 . S
C1618 C1620 1.478 . S
C1619 H1613 0.930 . S
C1619 C1615 1.400 . S
C1619 C1618 1.385 . S
C1620 C1618 1.478 . S
C1620 C1622 1.381 . S
C1620 C1626 1.383 . S
C1621 C1617 1.495 . S
C1621 H1627 0.959 . S
C1621 H1628 0.961 . S
C1621 H1629 0.960 . S
C1622 C1620 1.381 . S
C1622 C1623 1.394 . S
C1622 H1630 0.930 . S
C1623 C1622 1.394 . S
C1623 C1624 1.383 . S
C1623 H1631 0.929 . S
C1624 C1623 1.383 . S
C1624 C1625 1.377 . S
C1625 H1609 0.930 . S
C1625 C1624 1.377 . S
C1625 C1626 1.379 . S
C1626 H1610 0.931 . S
C1626 C1620 1.383 . S
C1626 C1625 1.379 . S
H1627 C1621 0.959 . S
H1628 C1621 0.961 . S
H1629 C1621 0.960 . S
H1630 C1622 0.930 . S
H1631 C1623 0.929 . S
H1632 C1640 0.929 . S
H1633 C1642 0.930 . S
H1634 C1644 0.930 . S
H1635 C1647 0.929 . S
H1636 C1650 0.930 . S
H1637 C1652 0.960 . S
H1638 C1652 0.960 . S
H1639 C1652 0.960 . S
C1640 H1632 0.929 . S
C1640 C1641 1.377 . S
C1640 C1642 1.384 . S
C1641 C1640 1.377 . S
C1641 C1647 1.390 . S
C1642 H1633 0.930 . S
C1642 C1640 1.384 . S
C1642 C1643 1.372 . S
C1643 C1642 1.372 . S
C1643 C1644 1.400 . S
C1643 C1648 1.490 . S
C1644 H1634 0.930 . S
C1644 C1643 1.400 . S
C1644 C1647 1.386 . S
H1645 C1661 0.930 . S
H1646 C1662 0.931 . S
C1647 H1635 0.929 . S
C1647 C1641 1.390 . S
C1647 C1644 1.386 . S
C1648 C1643 1.490 . S
C1648 C1650 1.395 . S
C1648 C1651 1.403 . S
H1649 C1655 0.930 . S
C1650 H1636 0.930 . S
C1650 C1648 1.395 . S
C1650 C1653 1.403 . S
C1651 C1648 1.403 . S
C1651 C1652 1.524 . S
C1651 C1655 1.400 . S
C1652 H1637 0.960 . S
C1652 H1638 0.960 . S
C1652 H1639 0.960 . S
C1652 C1651 1.524 . S
C1653 C1650 1.403 . S
C1653 C1654 1.392 . S
C1653 C1657 1.495 . S
C1654 C1653 1.392 . S
C1654 C1655 1.385 . S
C1654 C1656 1.478 . S
C1655 H1649 0.930 . S
C1655 C1651 1.400 . S
C1655 C1654 1.385 . S
C1656 C1654 1.478 . S
C1656 C1658 1.381 . S
C1656 C1662 1.383 . S
C1657 C1653 1.495 . S
C1657 H1663 0.959 . S
C1657 H1664 0.961 . S
C1657 H1665 0.960 . S
C1658 C1656 1.381 . S
C1658 C1659 1.394 . S
C1658 H1666 0.930 . S
C1659 C1658 1.394 . S
C1659 C1660 1.383 . S
C1659 H1667 0.929 . S
C1660 C1659 1.383 . S
C1660 C1661 1.377 . S
C1661 H1645 0.930 . S
C1661 C1660 1.377 . S
C1661 C1662 1.379 . S
C1662 H1646 0.931 . S
C1662 C1656 1.383 . S
C1662 C1661 1.379 . S
H1663 C1657 0.959 . S
H1664 C1657 0.961 . S
H1665 C1657 0.960 . S
H1666 C1658 0.930 . S
H1667 C1659 0.929 . S
H1668 C1676 0.929 . S
H1669 C1678 0.930 1_655 S
H1670 C1680 0.930 . S
H1671 C1683 0.929 . S
H1672 C1686 0.953 . S
H1673 C1688 0.960 . S
H1674 C1688 0.960 . S
H1675 C1688 0.960 1_455 S
C1676 H1668 0.929 . S
C1676 C1677 1.377 . S
C1676 C1678 1.384 . S
C1677 C1676 1.377 . S
C1677 C1683 1.390 . S
C1678 H1669 0.930 1_455 S
C1678 C1676 1.384 . S
C1678 C1679 1.372 . S
C1679 C1678 1.372 . S
C1679 C1680 1.400 . S
C1679 C1684 1.490 . S
C1680 H1670 0.930 . S
C1680 C1679 1.400 . S
C1680 C1683 1.386 . S
H1681 C1697 0.930 . S
H1682 C1698 0.931 . S
C1683 H1671 0.929 . S
C1683 C1677 1.390 . S
C1683 C1680 1.386 . S
C1684 C1679 1.490 . S
C1684 C1686 1.396 . S
C1684 C1687 1.403 1_455 S
H1685 C1691 0.930 . S
C1686 H1672 0.953 . S
C1686 C1684 1.396 . S
C1686 C1689 1.383 1_455 S
C1687 C1684 1.403 1_655 S
C1687 C1688 1.524 . S
C1687 C1691 1.400 . S
C1688 H1673 0.960 . S
C1688 H1674 0.960 . S
C1688 H1675 0.960 1_655 S
C1688 C1687 1.524 . S
C1689 C1686 1.383 1_655 S
C1689 C1690 1.392 . S
C1689 C1693 1.495 1_545 S
C1690 C1689 1.392 . S
C1690 C1691 1.385 . S
C1690 C1692 1.478 . S
C1691 H1685 0.930 . S
C1691 C1687 1.400 . S
C1691 C1690 1.385 . S
C1692 C1690 1.478 . S
C1692 C1694 1.381 . S
C1692 C1698 1.383 . S
C1693 C1689 1.495 1_565 S
C1693 H1699 0.959 . S
C1693 H1700 0.962 . S
C1693 H1701 0.960 . S
C1694 C1692 1.381 . S
C1694 C1695 1.394 . S
C1694 H1702 0.930 . S
C1695 C1694 1.394 . S
C1695 C1696 1.383 . S
C1695 H1703 0.929 . S
C1696 C1695 1.383 . S
C1696 C1697 1.377 . S
C1697 H1681 0.930 . S
C1697 C1696 1.377 . S
C1697 C1698 1.379 . S
C1698 H1682 0.931 . S
C1698 C1692 1.383 . S
C1698 C1697 1.379 . S
H1699 C1693 0.959 . S
H1700 C1693 0.962 . S
H1701 C1693 0.960 . S
H1702 C1694 0.930 . S
H1703 C1695 0.929 . S
H1704 C1712 0.929 . S
H1705 C1714 0.930 . S
H1706 C1716 0.930 . S
H1707 C1719 0.929 . S
H1708 C1722 0.930 . S
H1709 C1724 0.960 . S
H1710 C1724 0.960 . S
H1711 C1724 0.960 . S
C1712 H1704 0.929 . S
C1712 C1713 1.377 . S
C1712 C1714 1.384 . S
C1713 C1712 1.377 . S
C1713 C1719 1.390 . S
C1714 H1705 0.930 . S
C1714 C1712 1.384 . S
C1714 C1715 1.372 . S
C1715 C1714 1.372 . S
C1715 C1716 1.400 . S
C1715 C1720 1.490 . S
C1716 H1706 0.930 . S
C1716 C1715 1.400 . S
C1716 C1719 1.386 . S
H1717 C1733 0.930 . S
H1718 C1734 0.931 . S
C1719 H1707 0.929 . S
C1719 C1713 1.390 . S
C1719 C1716 1.386 . S
C1720 C1715 1.490 . S
C1720 C1722 1.395 . S
C1720 C1723 1.403 . S
H1721 C1727 0.930 . S
C1722 H1708 0.930 . S
C1722 C1720 1.395 . S
C1722 C1725 1.403 . S
C1723 C1720 1.403 . S
C1723 C1724 1.524 . S
C1723 C1727 1.400 . S
C1724 H1709 0.960 . S
C1724 H1710 0.960 . S
C1724 H1711 0.960 . S
C1724 C1723 1.524 . S
C1725 C1722 1.403 . S
C1725 C1726 1.392 . S
C1725 C1729 1.495 . S
C1726 C1725 1.392 . S
C1726 C1727 1.385 . S
C1726 C1728 1.478 . S
C1727 H1721 0.930 . S
C1727 C1723 1.400 . S
C1727 C1726 1.385 . S
C1728 C1726 1.478 . S
C1728 C1730 1.381 . S
C1728 C1734 1.383 . S
C1729 C1725 1.495 . S
C1729 H1735 0.959 . S
C1729 H1736 0.961 . S
C1729 H1737 0.960 . S
C1730 C1728 1.381 . S
C1730 C1731 1.394 . S
C1730 H1738 0.930 . S
C1731 C1730 1.394 . S
C1731 C1732 1.383 . S
C1731 H1739 0.929 . S
C1732 C1731 1.383 . S
C1732 C1733 1.377 . S
C1733 H1717 0.930 . S
C1733 C1732 1.377 . S
C1733 C1734 1.379 . S
C1734 H1718 0.931 . S
C1734 C1728 1.383 . S
C1734 C1733 1.379 . S
H1735 C1729 0.959 . S
H1736 C1729 0.961 . S
H1737 C1729 0.960 . S
H1738 C1730 0.930 . S
H1739 C1731 0.929 . S
H1740 C1748 0.929 . S
H1741 C1750 0.930 . S
H1742 C1752 0.930 . S
H1743 C1755 0.929 . S
H1744 C1758 0.930 . S
H1745 C1760 0.960 . S
H1746 C1760 0.960 . S
H1747 C1760 0.960 . S
C1748 H1740 0.929 . S
C1748 C1749 1.377 . S
C1748 C1750 1.384 . S
C1749 C1748 1.377 . S
C1749 C1755 1.390 1_455 S
C1750 H1741 0.930 . S
C1750 C1748 1.384 . S
C1750 C1751 1.372 . S
C1751 C1750 1.372 . S
C1751 C1752 1.400 . S
C1751 C1756 1.490 . S
C1752 H1742 0.930 . S
C1752 C1751 1.400 . S
C1752 C1755 1.386 1_455 S
H1753 C1769 0.930 . S
H1754 C1770 0.931 . S
C1755 H1743 0.929 . S
C1755 C1749 1.390 1_655 S
C1755 C1752 1.386 1_655 S
C1756 C1751 1.490 . S
C1756 C1758 1.395 . S
C1756 C1759 1.403 . S
H1757 C1763 0.930 . S
C1758 H1744 0.930 . S
C1758 C1756 1.395 . S
C1758 C1761 1.403 . S
C1759 C1756 1.403 . S
C1759 C1760 1.524 . S
C1759 C1763 1.400 . S
C1760 H1745 0.960 . S
C1760 H1746 0.960 . S
C1760 H1747 0.960 . S
C1760 C1759 1.524 . S
C1761 C1758 1.403 . S
C1761 C1762 1.392 . S
C1761 C1765 1.495 . S
C1762 C1761 1.392 . S
C1762 C1763 1.385 . S
C1762 C1764 1.478 . S
C1763 H1757 0.930 . S
C1763 C1759 1.400 . S
C1763 C1762 1.385 . S
C1764 C1762 1.478 . S
C1764 C1766 1.381 . S
C1764 C1770 1.383 . S
C1765 C1761 1.495 . S
C1765 H1771 0.959 . S
C1765 H1772 0.961 . S
C1765 H1773 0.960 . S
C1766 C1764 1.381 . S
C1766 C1767 1.394 . S
C1766 H1774 0.930 . S
C1767 C1766 1.394 . S
C1767 C1768 1.383 . S
C1767 H1775 0.929 . S
C1768 C1767 1.383 . S
C1768 C1769 1.377 . S
C1769 H1753 0.930 . S
C1769 C1768 1.377 . S
C1769 C1770 1.379 . S
C1770 H1754 0.931 . S
C1770 C1764 1.383 . S
C1770 C1769 1.379 . S
H1771 C1765 0.959 . S
H1772 C1765 0.961 . S
H1773 C1765 0.960 . S
H1774 C1766 0.930 . S
H1775 C1767 0.929 . S
H1776 C1784 0.929 . S
H1777 C1786 0.930 . S
H1778 C1788 0.930 . S
H1779 C1791 0.929 . S
H1780 C1794 0.930 . S
H1781 C1796 0.960 . S
H1782 C1796 0.960 . S
H1783 C1796 0.960 . S
C1784 H1776 0.929 . S
C1784 C1785 1.377 . S
C1784 C1786 1.384 . S
C1785 C1784 1.377 . S
C1785 C1791 1.390 . S
C1786 H1777 0.930 . S
C1786 C1784 1.384 . S
C1786 C1787 1.372 . S
C1787 C1786 1.372 . S
C1787 C1788 1.400 . S
C1787 C1792 1.490 . S
C1788 H1778 0.930 . S
C1788 C1787 1.400 . S
C1788 C1791 1.386 . S
H1789 C1805 0.930 . S
H1790 C1806 0.931 . S
C1791 H1779 0.929 . S
C1791 C1785 1.390 . S
C1791 C1788 1.386 . S
C1792 C1787 1.490 . S
C1792 C1794 1.395 . S
C1792 C1795 1.403 . S
H1793 C1799 0.930 . S
C1794 H1780 0.930 . S
C1794 C1792 1.395 . S
C1794 C1797 1.403 . S
C1795 C1792 1.403 . S
C1795 C1796 1.524 . S
C1795 C1799 1.400 . S
C1796 H1781 0.960 . S
C1796 H1782 0.960 . S
C1796 H1783 0.960 . S
C1796 C1795 1.524 . S
C1797 C1794 1.403 . S
C1797 C1798 1.392 . S
C1797 C1801 1.495 . S
C1798 C1797 1.392 . S
C1798 C1799 1.385 . S
C1798 C1800 1.478 . S
C1799 H1793 0.930 . S
C1799 C1795 1.400 . S
C1799 C1798 1.385 . S
C1800 C1798 1.478 . S
C1800 C1802 1.381 . S
C1800 C1806 1.383 . S
C1801 C1797 1.495 . S
C1801 H1807 0.959 . S
C1801 H1808 0.961 . S
C1801 H1809 0.960 . S
C1802 C1800 1.381 . S
C1802 C1803 1.394 . S
C1802 H1810 0.930 . S
C1803 C1802 1.394 . S
C1803 C1804 1.383 . S
C1803 H1811 0.929 . S
C1804 C1803 1.383 . S
C1804 C1805 1.377 . S
C1805 H1789 0.930 . S
C1805 C1804 1.377 . S
C1805 C1806 1.379 . S
C1806 H1790 0.931 . S
C1806 C1800 1.383 . S
C1806 C1805 1.379 . S
H1807 C1801 0.959 . S
H1808 C1801 0.961 . S
H1809 C1801 0.960 . S
H1810 C1802 0.930 . S
H1811 C1803 0.929 . S
H1812 C1820 0.929 . S
H1813 C1822 0.930 . S
H1814 C1824 0.930 . S
H1815 C1827 0.929 . S
H1816 C1830 0.930 . S
H1817 C1832 0.960 . S
H1818 C1832 0.960 . S
H1819 C1832 0.960 . S
C1820 H1812 0.929 . S
C1820 C1821 1.377 . S
C1820 C1822 1.384 . S
C1821 C1820 1.377 . S
C1821 C1827 1.390 1_655 S
C1822 H1813 0.930 . S
C1822 C1820 1.384 . S
C1822 C1823 1.372 . S
C1823 C1822 1.372 . S
C1823 C1824 1.400 1_655 S
C1823 C1828 1.490 . S
C1824 H1814 0.930 . S
C1824 C1823 1.400 1_455 S
C1824 C1827 1.386 . S
H1825 C1841 0.930 . S
H1826 C1842 0.931 . S
C1827 H1815 0.929 . S
C1827 C1821 1.390 1_455 S
C1827 C1824 1.386 . S
C1828 C1823 1.490 . S
C1828 C1830 1.395 . S
C1828 C1831 1.403 1_655 S
H1829 C1835 0.930 . S
C1830 H1816 0.930 . S
C1830 C1828 1.395 . S
C1830 C1833 1.403 . S
C1831 C1828 1.403 1_455 S
C1831 C1832 1.524 . S
C1831 C1835 1.400 . S
C1832 H1817 0.960 . S
C1832 H1818 0.960 . S
C1832 H1819 0.960 . S
C1832 C1831 1.524 . S
C1833 C1830 1.403 . S
C1833 C1834 1.392 . S
C1833 C1837 1.495 . S
C1834 C1833 1.392 . S
C1834 C1835 1.385 1_655 S
C1834 C1836 1.478 . S
C1835 H1829 0.930 . S
C1835 C1831 1.400 . S
C1835 C1834 1.385 1_455 S
C1836 C1834 1.478 . S
C1836 C1838 1.381 . S
C1836 C1842 1.383 1_655 S
C1837 C1833 1.495 . S
C1837 H1843 0.959 . S
C1837 H1844 0.961 . S
C1837 H1845 0.960 . S
C1838 C1836 1.381 . S
C1838 C1839 1.394 . S
C1838 H1846 0.930 . S
C1839 C1838 1.394 . S
C1839 C1840 1.383 1_655 S
C1839 H1847 0.929 . S
C1840 C1839 1.383 1_455 S
C1840 C1841 1.377 . S
C1841 H1825 0.930 . S
C1841 C1840 1.377 . S
C1841 C1842 1.379 . S
C1842 H1826 0.931 . S
C1842 C1836 1.383 1_455 S
C1842 C1841 1.379 . S
H1843 C1837 0.959 . S
H1844 C1837 0.961 . S
H1845 C1837 0.960 . S
H1846 C1838 0.930 . S
H1847 C1839 0.929 . S
H1848 C1856 0.929 . S
H1849 C1858 0.930 . S
H1850 C1860 0.930 . S
H1851 C1863 0.929 . S
H1852 C1866 0.930 . S
H1853 C1868 0.960 . S
H1854 C1868 0.960 . S
H1855 C1868 0.960 . S
C1856 H1848 0.929 . S
C1856 C1857 1.377 . S
C1856 C1858 1.384 . S
C1857 C1856 1.377 . S
C1857 C1863 1.390 . S
C1858 H1849 0.930 . S
C1858 C1856 1.384 . S
C1858 C1859 1.372 . S
C1859 C1858 1.372 . S
C1859 C1860 1.400 . S
C1859 C1864 1.490 . S
C1860 H1850 0.930 . S
C1860 C1859 1.400 . S
C1860 C1863 1.386 . S
H1861 C1877 0.930 . S
H1862 C1878 0.931 . S
C1863 H1851 0.929 . S
C1863 C1857 1.390 . S
C1863 C1860 1.386 . S
C1864 C1859 1.490 . S
C1864 C1866 1.395 . S
C1864 C1867 1.403 . S
H1865 C1871 0.930 . S
C1866 H1852 0.930 . S
C1866 C1864 1.395 . S
C1866 C1869 1.403 . S
C1867 C1864 1.403 . S
C1867 C1868 1.524 . S
C1867 C1871 1.400 . S
C1868 H1853 0.960 . S
C1868 H1854 0.960 . S
C1868 H1855 0.960 . S
C1868 C1867 1.524 . S
C1869 C1866 1.403 . S
C1869 C1870 1.392 . S
C1869 C1873 1.495 . S
C1870 C1869 1.392 . S
C1870 C1871 1.385 . S
C1870 C1872 1.478 . S
C1871 H1865 0.930 . S
C1871 C1867 1.400 . S
C1871 C1870 1.385 . S
C1872 C1870 1.478 . S
C1872 C1874 1.381 . S
C1872 C1878 1.383 . S
C1873 C1869 1.495 . S
C1873 H1879 0.959 . S
C1873 H1880 0.961 . S
C1873 H1881 0.960 . S
C1874 C1872 1.381 . S
C1874 C1875 1.394 . S
C1874 H1882 0.930 . S
C1875 C1874 1.394 . S
C1875 C1876 1.383 . S
C1875 H1883 0.929 . S
C1876 C1875 1.383 . S
C1876 C1877 1.377 . S
C1877 H1861 0.930 . S
C1877 C1876 1.377 . S
C1877 C1878 1.379 . S
C1878 H1862 0.931 . S
C1878 C1872 1.383 . S
C1878 C1877 1.379 . S
H1879 C1873 0.959 . S
H1880 C1873 0.961 . S
H1881 C1873 0.960 . S
H1882 C1874 0.930 . S
H1883 C1875 0.929 . S
H1884 C1892 0.929 1_554 S
H1885 C1894 0.930 . S
H1886 C1896 0.930 . S
H1887 C1899 0.929 . S
H1888 C1902 0.930 . S
H1889 C1904 0.960 1_655 S
H1890 C1904 0.960 1_655 S
H1891 C1904 0.960 . S
C1892 H1884 0.929 1_556 S
C1892 C1893 1.377 . S
C1892 C1894 1.384 . S
C1893 C1892 1.377 . S
C1893 C1899 1.390 . S
C1894 H1885 0.930 . S
C1894 C1892 1.384 . S
C1894 C1895 1.372 . S
C1895 C1894 1.372 . S
C1895 C1896 1.400 . S
C1895 C1900 1.490 . S
C1896 H1886 0.930 . S
C1896 C1895 1.400 . S
C1896 C1899 1.386 . S
H1897 C1913 0.930 . S
H1898 C1914 0.931 . S
C1899 H1887 0.929 . S
C1899 C1893 1.390 . S
C1899 C1896 1.386 . S
C1900 C1895 1.490 . S
C1900 C1902 1.395 . S
C1900 C1903 1.403 . S
H1901 C1907 0.930 . S
C1902 H1888 0.930 . S
C1902 C1900 1.395 . S
C1902 C1905 1.403 . S
C1903 C1900 1.403 . S
C1903 C1904 1.524 . S
C1903 C1907 1.400 . S
C1904 H1889 0.960 1_455 S
C1904 H1890 0.960 1_455 S
C1904 H1891 0.960 . S
C1904 C1903 1.524 . S
C1905 C1902 1.403 . S
C1905 C1906 1.392 . S
C1905 C1909 1.495 . S
C1906 C1905 1.392 . S
C1906 C1907 1.385 . S
C1906 C1908 1.478 . S
C1907 H1901 0.930 . S
C1907 C1903 1.400 . S
C1907 C1906 1.385 . S
C1908 C1906 1.478 . S
C1908 C1910 1.381 . S
C1908 C1914 1.383 . S
C1909 C1905 1.495 . S
C1909 H1915 0.959 . S
C1909 H1916 0.961 . S
C1909 H1917 0.960 . S
C1910 C1908 1.381 . S
C1910 C1911 1.394 . S
C1910 H1918 0.930 . S
C1911 C1910 1.394 . S
C1911 C1912 1.383 . S
C1911 H1919 0.929 . S
C1912 C1911 1.383 . S
C1912 C1913 1.377 . S
C1913 H1897 0.930 . S
C1913 C1912 1.377 . S
C1913 C1914 1.379 . S
C1914 H1898 0.931 . S
C1914 C1908 1.383 . S
C1914 C1913 1.379 . S
H1915 C1909 0.959 . S
H1916 C1909 0.961 . S
H1917 C1909 0.960 . S
H1918 C1910 0.930 . S
H1919 C1911 0.929 . S
H1920 C1928 0.929 . S
H1921 C1930 0.930 . S
H1922 C1932 0.930 . S
H1923 C1935 0.929 . S
H1924 C1938 0.930 . S
H1925 C1940 0.960 . S
H1926 C1940 0.960 . S
H1927 C1940 0.960 . S
C1928 H1920 0.929 . S
C1928 C1929 1.377 . S
C1928 C1930 1.384 . S
C1929 C1928 1.377 . S
C1929 C1935 1.390 . S
C1930 H1921 0.930 . S
C1930 C1928 1.384 . S
C1930 C1931 1.372 . S
C1931 C1930 1.372 . S
C1931 C1932 1.400 . S
C1931 C1936 1.490 . S
C1932 H1922 0.930 . S
C1932 C1931 1.400 . S
C1932 C1935 1.386 . S
H1933 C1949 0.930 . S
H1934 C1950 0.931 . S
C1935 H1923 0.929 . S
C1935 C1929 1.390 . S
C1935 C1932 1.386 . S
C1936 C1931 1.490 . S
C1936 C1938 1.395 . S
C1936 C1939 1.403 . S
H1937 C1943 0.930 . S
C1938 H1924 0.930 . S
C1938 C1936 1.395 . S
C1938 C1941 1.403 . S
C1939 C1936 1.403 . S
C1939 C1940 1.524 . S
C1939 C1943 1.400 . S
C1940 H1925 0.960 . S
C1940 H1926 0.960 . S
C1940 H1927 0.960 . S
C1940 C1939 1.524 . S
C1941 C1938 1.403 . S
C1941 C1942 1.392 . S
C1941 C1945 1.495 . S
C1942 C1941 1.392 . S
C1942 C1943 1.385 . S
C1942 C1944 1.478 . S
C1943 H1937 0.930 . S
C1943 C1939 1.400 . S
C1943 C1942 1.385 . S
C1944 C1942 1.478 . S
C1944 C1946 1.381 . S
C1944 C1950 1.383 . S
C1945 C1941 1.495 . S
C1945 H1951 0.959 . S
C1945 H1952 0.961 . S
C1945 H1953 0.960 . S
C1946 C1944 1.381 . S
C1946 C1947 1.394 . S
C1946 H1954 0.930 . S
C1947 C1946 1.394 . S
C1947 C1948 1.383 . S
C1947 H1955 0.929 . S
C1948 C1947 1.383 . S
C1948 C1949 1.377 . S
C1949 H1933 0.930 . S
C1949 C1948 1.377 . S
C1949 C1950 1.379 . S
C1950 H1934 0.931 . S
C1950 C1944 1.383 . S
C1950 C1949 1.379 . S
H1951 C1945 0.959 . S
H1952 C1945 0.961 . S
H1953 C1945 0.960 . S
H1954 C1946 0.930 . S
H1955 C1947 0.929 . S
H1956 C1964 0.929 . S
H1957 C1966 0.930 . S
H1958 C1968 0.930 . S
H1959 C1971 0.929 1_556 S
H1960 C1974 0.930 . S
H1961 C1976 0.960 . S
H1962 C1976 0.960 . S
H1963 C1976 0.960 . S
C1964 H1956 0.929 . S
C1964 C1965 1.377 . S
C1964 C1966 1.384 . S
C1965 C1964 1.377 . S
C1965 C1971 1.390 . S
C1966 H1957 0.930 . S
C1966 C1964 1.384 . S
C1966 C1967 1.372 . S
C1967 C1966 1.372 . S
C1967 C1968 1.400 . S
C1967 C1972 1.490 . S
C1968 H1958 0.930 . S
C1968 C1967 1.400 . S
C1968 C1971 1.386 . S
H1969 C1985 0.930 . S
H1970 C1986 0.931 . S
C1971 H1959 0.929 1_554 S
C1971 C1965 1.390 . S
C1971 C1968 1.386 . S
C1972 C1967 1.490 . S
C1972 C1974 1.395 . S
C1972 C1975 1.403 . S
H1973 C1979 0.930 . S
C1974 H1960 0.930 . S
C1974 C1972 1.395 . S
C1974 C1977 1.403 . S
C1975 C1972 1.403 . S
C1975 C1976 1.524 . S
C1975 C1979 1.400 . S
C1976 H1961 0.960 . S
C1976 H1962 0.960 . S
C1976 H1963 0.960 . S
C1976 C1975 1.524 . S
C1977 C1974 1.403 . S
C1977 C1978 1.392 . S
C1977 C1981 1.495 . S
C1978 C1977 1.392 . S
C1978 C1979 1.385 . S
C1978 C1980 1.478 . S
C1979 H1973 0.930 . S
C1979 C1975 1.400 . S
C1979 C1978 1.385 . S
C1980 C1978 1.478 . S
C1980 C1982 1.381 . S
C1980 C1986 1.383 . S
C1981 C1977 1.495 . S
C1981 H1987 0.959 . S
C1981 H1988 0.961 . S
C1981 H1989 0.960 . S
C1982 C1980 1.381 . S
C1982 C1983 1.394 . S
C1982 H1990 0.930 . S
C1983 C1982 1.394 . S
C1983 C1984 1.383 . S
C1983 H1991 0.929 . S
C1984 C1983 1.383 . S
C1984 C1985 1.377 . S
C1985 H1969 0.930 . S
C1985 C1984 1.377 . S
C1985 C1986 1.379 . S
C1986 H1970 0.931 . S
C1986 C1980 1.383 . S
C1986 C1985 1.379 . S
H1987 C1981 0.959 . S
H1988 C1981 0.961 . S
H1989 C1981 0.960 . S
H1990 C1982 0.930 . S
H1991 C1983 0.929 . S
H1992 C2000 0.929 . S
H1993 C2002 0.930 . S
H1994 C2004 0.930 . S
H1995 C2007 0.929 . S
H1996 C2010 0.930 . S
H1997 C2012 0.960 . S
H1998 C2012 0.960 . S
H1999 C2012 0.960 . S
C2000 H1992 0.929 . S
C2000 C2001 1.377 . S
C2000 C2002 1.384 . S
C2001 C2000 1.377 . S
C2001 C2007 1.390 . S
C2002 H1993 0.930 . S
C2002 C2000 1.384 . S
C2002 C2003 1.372 . S
C2003 C2002 1.372 . S
C2003 C2004 1.400 . S
C2003 C2008 1.490 . S
C2004 H1994 0.930 . S
C2004 C2003 1.400 . S
C2004 C2007 1.386 . S
H2005 C2021 0.930 . S
H2006 C2022 0.931 . S
C2007 H1995 0.929 . S
C2007 C2001 1.390 . S
C2007 C2004 1.386 . S
C2008 C2003 1.490 . S
C2008 C2010 1.395 . S
C2008 C2011 1.403 . S
H2009 C2015 0.930 . S
C2010 H1996 0.930 . S
C2010 C2008 1.395 . S
C2010 C2013 1.403 . S
C2011 C2008 1.403 . S
C2011 C2012 1.524 . S
C2011 C2015 1.400 . S
C2012 H1997 0.960 . S
C2012 H1998 0.960 . S
C2012 H1999 0.960 . S
C2012 C2011 1.524 . S
C2013 C2010 1.403 . S
C2013 C2014 1.392 . S
C2013 C2017 1.495 . S
C2014 C2013 1.392 . S
C2014 C2015 1.385 . S
C2014 C2016 1.478 . S
C2015 H2009 0.930 . S
C2015 C2011 1.400 . S
C2015 C2014 1.385 . S
C2016 C2014 1.478 . S
C2016 C2018 1.381 . S
C2016 C2022 1.383 . S
C2017 C2013 1.495 . S
C2017 H2023 0.959 . S
C2017 H2024 0.961 . S
C2017 H2025 0.960 . S
C2018 C2016 1.381 . S
C2018 C2019 1.394 . S
C2018 H2026 0.930 . S
C2019 C2018 1.394 . S
C2019 C2020 1.383 . S
C2019 H2027 0.929 . S
C2020 C2019 1.383 . S
C2020 C2021 1.377 . S
C2021 H2005 0.930 . S
C2021 C2020 1.377 . S
C2021 C2022 1.379 . S
C2022 H2006 0.931 . S
C2022 C2016 1.383 . S
C2022 C2021 1.379 . S
H2023 C2017 0.959 . S
H2024 C2017 0.961 . S
H2025 C2017 0.960 . S
H2026 C2018 0.930 . S
H2027 C2019 0.929 . S
H2028 C2036 0.929 . S
H2029 C2038 0.930 . S
H2030 C2040 0.930 . S
H2031 C2043 0.929 . S
H2032 C2046 0.930 . S
H2033 C2048 0.960 . S
H2034 C2048 0.960 . S
H2035 C2048 0.960 . S
C2036 H2028 0.929 . S
C2036 C2037 1.377 1_554 S
C2036 C2038 1.384 . S
C2037 C2036 1.377 1_556 S
C2037 C2043 1.390 . S
C2038 H2029 0.930 . S
C2038 C2036 1.384 . S
C2038 C2039 1.372 . S
C2039 C2038 1.372 . S
C2039 C2040 1.400 . S
C2039 C2044 1.490 . S
C2040 H2030 0.930 . S
C2040 C2039 1.400 . S
C2040 C2043 1.386 1_554 S
H2041 C2057 0.930 . S
H2042 C2058 0.931 . S
C2043 H2031 0.929 . S
C2043 C2037 1.390 . S
C2043 C2040 1.386 1_556 S
C2044 C2039 1.490 . S
C2044 C2046 1.395 . S
C2044 C2047 1.403 . S
H2045 C2051 0.930 . S
C2046 H2032 0.930 . S
C2046 C2044 1.395 . S
C2046 C2049 1.403 . S
C2047 C2044 1.403 . S
C2047 C2048 1.524 . S
C2047 C2051 1.400 . S
C2048 H2033 0.960 . S
C2048 H2034 0.960 . S
C2048 H2035 0.960 . S
C2048 C2047 1.524 . S
C2049 C2046 1.403 . S
C2049 C2050 1.392 . S
C2049 C2053 1.495 . S
C2050 C2049 1.392 . S
C2050 C2051 1.385 . S
C2050 C2052 1.478 . S
C2051 H2045 0.930 . S
C2051 C2047 1.400 . S
C2051 C2050 1.385 . S
C2052 C2050 1.478 . S
C2052 C2054 1.381 . S
C2052 C2058 1.383 . S
C2053 C2049 1.495 . S
C2053 H2059 0.959 . S
C2053 H2060 0.961 . S
C2053 H2061 0.960 . S
C2054 C2052 1.381 . S
C2054 C2055 1.394 . S
C2054 H2062 0.930 . S
C2055 C2054 1.394 . S
C2055 C2056 1.383 . S
C2055 H2063 0.929 . S
C2056 C2055 1.383 . S
C2056 C2057 1.377 . S
C2057 H2041 0.930 . S
C2057 C2056 1.377 . S
C2057 C2058 1.379 . S
C2058 H2042 0.931 . S
C2058 C2052 1.383 . S
C2058 C2057 1.379 . S
H2059 C2053 0.959 . S
H2060 C2053 0.961 . S
H2061 C2053 0.960 . S
H2062 C2054 0.930 . S
H2063 C2055 0.929 . S
H2064 C2072 0.929 . S
H2065 C2074 0.930 . S
H2066 C2076 0.930 . S
H2067 C2079 0.929 . S
H2068 C2082 0.930 . S
H2069 C2084 0.960 . S
H2070 C2084 0.960 . S
H2071 C2084 0.960 . S
C2072 H2064 0.929 . S
C2072 C2073 1.377 . S
C2072 C2074 1.384 . S
C2073 C2072 1.377 . S
C2073 C2079 1.390 . S
C2074 H2065 0.930 . S
C2074 C2072 1.384 . S
C2074 C2075 1.372 . S
C2075 C2074 1.372 . S
C2075 C2076 1.400 . S
C2075 C2080 1.490 . S
C2076 H2066 0.930 . S
C2076 C2075 1.400 . S
C2076 C2079 1.386 . S
H2077 C2093 0.930 . S
H2078 C2094 0.931 . S
C2079 H2067 0.929 . S
C2079 C2073 1.390 . S
C2079 C2076 1.386 . S
C2080 C2075 1.490 . S
C2080 C2082 1.395 . S
C2080 C2083 1.403 . S
H2081 C2087 0.930 . S
C2082 H2068 0.930 . S
C2082 C2080 1.395 . S
C2082 C2085 1.403 . S
C2083 C2080 1.403 . S
C2083 C2084 1.524 . S
C2083 C2087 1.400 . S
C2084 H2069 0.960 . S
C2084 H2070 0.960 . S
C2084 H2071 0.960 . S
C2084 C2083 1.524 . S
C2085 C2082 1.403 . S
C2085 C2086 1.392 . S
C2085 C2089 1.495 . S
C2086 C2085 1.392 . S
C2086 C2087 1.385 . S
C2086 C2088 1.478 . S
C2087 H2081 0.930 . S
C2087 C2083 1.400 . S
C2087 C2086 1.385 . S
C2088 C2086 1.478 . S
C2088 C2090 1.381 . S
C2088 C2094 1.383 . S
C2089 C2085 1.495 . S
C2089 H2095 0.959 . S
C2089 H2096 0.961 . S
C2089 H2097 0.960 . S
C2090 C2088 1.381 . S
C2090 C2091 1.394 . S
C2090 H2098 0.930 . S
C2091 C2090 1.394 . S
C2091 C2092 1.383 . S
C2091 H2099 0.929 . S
C2092 C2091 1.383 . S
C2092 C2093 1.377 . S
C2093 H2077 0.930 . S
C2093 C2092 1.377 . S
C2093 C2094 1.379 . S
C2094 H2078 0.931 . S
C2094 C2088 1.383 . S
C2094 C2093 1.379 . S
H2095 C2089 0.959 . S
H2096 C2089 0.961 . S
H2097 C2089 0.960 . S
H2098 C2090 0.930 . S
H2099 C2091 0.929 . S
H2100 C2108 0.929 . S
H2101 C2110 0.930 . S
H2102 C2112 0.930 . S
H2103 C2115 0.929 . S
H2104 C2118 0.930 . S
H2105 C2120 0.960 . S
H2106 C2120 0.960 . S
H2107 C2120 0.960 . S
C2108 H2100 0.929 . S
C2108 C2109 1.377 . S
C2108 C2110 1.384 . S
C2109 C2108 1.377 . S
C2109 C2115 1.390 . S
C2110 H2101 0.930 . S
C2110 C2108 1.384 . S
C2110 C2111 1.372 . S
C2111 C2110 1.372 . S
C2111 C2112 1.400 . S
C2111 C2116 1.490 . S
C2112 H2102 0.930 . S
C2112 C2111 1.400 . S
C2112 C2115 1.386 . S
H2113 C2129 0.930 . S
H2114 C2130 0.931 . S
C2115 H2103 0.929 . S
C2115 C2109 1.390 . S
C2115 C2112 1.386 . S
C2116 C2111 1.490 . S
C2116 C2118 1.395 . S
C2116 C2119 1.403 . S
H2117 C2123 0.930 . S
C2118 H2104 0.930 . S
C2118 C2116 1.395 . S
C2118 C2121 1.403 . S
C2119 C2116 1.403 . S
C2119 C2120 1.524 . S
C2119 C2123 1.400 . S
C2120 H2105 0.960 . S
C2120 H2106 0.960 . S
C2120 H2107 0.960 . S
C2120 C2119 1.524 . S
C2121 C2118 1.403 . S
C2121 C2122 1.392 . S
C2121 C2125 1.495 . S
C2122 C2121 1.392 . S
C2122 C2123 1.385 . S
C2122 C2124 1.478 . S
C2123 H2117 0.930 . S
C2123 C2119 1.400 . S
C2123 C2122 1.385 . S
C2124 C2122 1.478 . S
C2124 C2126 1.381 . S
C2124 C2130 1.383 . S
C2125 C2121 1.495 . S
C2125 H2131 0.959 . S
C2125 H2132 0.961 . S
C2125 H2133 0.960 . S
C2126 C2124 1.381 . S
C2126 C2127 1.394 . S
C2126 H2134 0.930 . S
C2127 C2126 1.394 . S
C2127 C2128 1.383 . S
C2127 H2135 0.929 . S
C2128 C2127 1.383 . S
C2128 C2129 1.377 . S
C2129 H2113 0.930 . S
C2129 C2128 1.377 . S
C2129 C2130 1.379 . S
C2130 H2114 0.931 . S
C2130 C2124 1.383 . S
C2130 C2129 1.379 . S
H2131 C2125 0.959 . S
H2132 C2125 0.961 . S
H2133 C2125 0.960 . S
H2134 C2126 0.930 . S
H2135 C2127 0.929 . S
H2136 C2144 0.929 . S
H2137 C2146 0.930 . S
H2138 C2148 0.930 . S
H2139 C2151 0.929 . S
H2140 C2154 0.930 . S
H2141 C2156 0.960 . S
H2142 C2156 0.960 . S
H2143 C2156 0.960 . S
C2144 H2136 0.929 . S
C2144 C2145 1.377 . S
C2144 C2146 1.384 . S
C2145 C2144 1.377 . S
C2145 C2151 1.390 . S
C2146 H2137 0.930 . S
C2146 C2144 1.384 . S
C2146 C2147 1.372 . S
C2147 C2146 1.372 . S
C2147 C2148 1.400 . S
C2147 C2152 1.490 . S
C2148 H2138 0.930 . S
C2148 C2147 1.400 . S
C2148 C2151 1.386 . S
H2149 C2165 0.930 . S
H2150 C2166 0.931 . S
C2151 H2139 0.929 . S
C2151 C2145 1.390 . S
C2151 C2148 1.386 . S
C2152 C2147 1.490 . S
C2152 C2154 1.395 . S
C2152 C2155 1.403 . S
H2153 C2159 0.930 . S
C2154 H2140 0.930 . S
C2154 C2152 1.395 . S
C2154 C2157 1.403 . S
C2155 C2152 1.403 . S
C2155 C2156 1.524 . S
C2155 C2159 1.400 . S
C2156 H2141 0.960 . S
C2156 H2142 0.960 . S
C2156 H2143 0.960 . S
C2156 C2155 1.524 . S
C2157 C2154 1.403 . S
C2157 C2158 1.392 . S
C2157 C2161 1.495 . S
C2158 C2157 1.392 . S
C2158 C2159 1.385 . S
C2158 C2160 1.478 . S
C2159 H2153 0.930 . S
C2159 C2155 1.400 . S
C2159 C2158 1.385 . S
C2160 C2158 1.478 . S
C2160 C2162 1.381 . S
C2160 C2166 1.383 . S
C2161 C2157 1.495 . S
C2161 H2167 0.959 . S
C2161 H2168 0.961 . S
C2161 H2169 0.960 . S
C2162 C2160 1.381 . S
C2162 C2163 1.394 . S
C2162 H2170 0.930 . S
C2163 C2162 1.394 . S
C2163 C2164 1.383 . S
C2163 H2171 0.929 . S
C2164 C2163 1.383 . S
C2164 C2165 1.377 . S
C2165 H2149 0.930 . S
C2165 C2164 1.377 . S
C2165 C2166 1.379 . S
C2166 H2150 0.931 . S
C2166 C2160 1.383 . S
C2166 C2165 1.379 . S
H2167 C2161 0.959 . S
H2168 C2161 0.961 . S
H2169 C2161 0.960 . S
H2170 C2162 0.930 . S
H2171 C2163 0.929 . S
H2172 C2180 0.929 . S
H2173 C2182 0.930 . S
H2174 C2184 0.930 . S
H2175 C2187 0.929 . S
H2176 C2190 0.930 . S
H2177 C2192 0.960 . S
H2178 C2192 0.960 . S
H2179 C2192 0.960 . S
C2180 H2172 0.929 . S
C2180 C2181 1.377 . S
C2180 C2182 1.384 . S
C2181 C2180 1.377 . S
C2181 C2187 1.390 . S
C2182 H2173 0.930 . S
C2182 C2180 1.384 . S
C2182 C2183 1.372 . S
C2183 C2182 1.372 . S
C2183 C2184 1.400 . S
C2183 C2188 1.490 . S
C2184 H2174 0.930 . S
C2184 C2183 1.400 . S
C2184 C2187 1.386 . S
H2185 C2201 0.930 . S
H2186 C2202 0.931 . S
C2187 H2175 0.929 . S
C2187 C2181 1.390 . S
C2187 C2184 1.386 . S
C2188 C2183 1.490 . S
C2188 C2190 1.395 . S
C2188 C2191 1.403 . S
H2189 C2195 0.930 . S
C2190 H2176 0.930 . S
C2190 C2188 1.395 . S
C2190 C2193 1.403 . S
C2191 C2188 1.403 . S
C2191 C2192 1.524 . S
C2191 C2195 1.400 . S
C2192 H2177 0.960 . S
C2192 H2178 0.960 . S
C2192 H2179 0.960 . S
C2192 C2191 1.524 . S
C2193 C2190 1.403 . S
C2193 C2194 1.392 . S
C2193 C2197 1.495 . S
C2194 C2193 1.392 . S
C2194 C2195 1.385 . S
C2194 C2196 1.478 . S
C2195 H2189 0.930 . S
C2195 C2191 1.400 . S
C2195 C2194 1.385 . S
C2196 C2194 1.478 . S
C2196 C2198 1.381 . S
C2196 C2202 1.383 . S
C2197 C2193 1.495 . S
C2197 H2203 0.959 . S
C2197 H2204 0.961 . S
C2197 H2205 0.960 . S
C2198 C2196 1.381 . S
C2198 C2199 1.394 . S
C2198 H2206 0.930 . S
C2199 C2198 1.394 . S
C2199 C2200 1.383 . S
C2199 H2207 0.929 . S
C2200 C2199 1.383 . S
C2200 C2201 1.377 . S
C2201 H2185 0.930 . S
C2201 C2200 1.377 . S
C2201 C2202 1.379 . S
C2202 H2186 0.931 . S
C2202 C2196 1.383 . S
C2202 C2201 1.379 . S
H2203 C2197 0.959 . S
H2204 C2197 0.961 . S
H2205 C2197 0.960 . S
H2206 C2198 0.930 . S
H2207 C2199 0.929 . S
H2208 C2216 0.929 . S
H2209 C2218 0.930 . S
H2210 C2220 0.907 1_554 S
H2211 C2223 0.929 . S
H2212 C2226 0.930 . S
H2213 C2228 0.960 . S
H2214 C2228 0.960 . S
H2215 C2228 0.960 . S
C2216 H2208 0.929 . S
C2216 C2217 1.377 . S
C2216 C2218 1.384 . S
C2217 C2216 1.377 . S
C2217 C2223 1.390 . S
C2218 H2209 0.930 . S
C2218 C2216 1.384 . S
C2218 C2219 1.372 . S
C2219 C2218 1.372 . S
C2219 C2220 1.400 . S
C2219 C2224 1.490 . S
C2220 H2210 0.907 1_556 S
C2220 C2219 1.400 . S
C2220 C2223 1.386 . S
H2221 C2237 0.930 . S
H2222 C2238 0.931 . S
C2223 H2211 0.929 . S
C2223 C2217 1.390 . S
C2223 C2220 1.386 . S
C2224 C2219 1.490 . S
C2224 C2226 1.395 . S
C2224 C2227 1.403 . S
H2225 C2231 0.930 . S
C2226 H2212 0.930 . S
C2226 C2224 1.395 . S
C2226 C2229 1.403 . S
C2227 C2224 1.403 . S
C2227 C2228 1.524 . S
C2227 C2231 1.400 . S
C2228 H2213 0.960 . S
C2228 H2214 0.960 . S
C2228 H2215 0.960 . S
C2228 C2227 1.524 . S
C2229 C2226 1.403 . S
C2229 C2230 1.392 . S
C2229 C2233 1.495 . S
C2230 C2229 1.392 . S
C2230 C2231 1.385 . S
C2230 C2232 1.478 . S
C2231 H2225 0.930 . S
C2231 C2227 1.400 . S
C2231 C2230 1.385 . S
C2232 C2230 1.478 . S
C2232 C2234 1.381 . S
C2232 C2238 1.383 1_556 S
C2233 C2229 1.495 . S
C2233 H2239 0.959 . S
C2233 H2240 0.961 1_556 S
C2233 H2241 0.960 . S
C2234 C2232 1.381 . S
C2234 C2235 1.394 . S
C2234 H2242 0.930 . S
C2235 C2234 1.394 . S
C2235 C2236 1.383 . S
C2235 H2243 0.929 . S
C2236 C2235 1.383 . S
C2236 C2237 1.377 1_556 S
C2237 H2221 0.930 . S
C2237 C2236 1.377 1_554 S
C2237 C2238 1.379 . S
C2238 H2222 0.931 . S
C2238 C2232 1.383 1_554 S
C2238 C2237 1.379 . S
H2239 C2233 0.959 . S
H2240 C2233 0.961 1_554 S
H2241 C2233 0.960 . S
H2242 C2234 0.930 . S
H2243 C2235 0.929 . S
H2244 C2252 0.929 . S
H2245 C2254 0.930 . S
H2246 C2256 0.930 . S
H2247 C2259 0.929 . S
H2248 C2262 0.930 . S
H2249 C2264 0.960 . S
H2250 C2264 0.960 . S
H2251 C2264 0.960 . S
C2252 H2244 0.929 . S
C2252 C2253 1.377 . S
C2252 C2254 1.384 . S
C2253 C2252 1.377 . S
C2253 C2259 1.390 . S
C2254 H2245 0.930 . S
C2254 C2252 1.384 . S
C2254 C2255 1.372 . S
C2255 C2254 1.372 . S
C2255 C2256 1.400 . S
C2255 C2260 1.490 . S
C2256 H2246 0.930 . S
C2256 C2255 1.400 . S
C2256 C2259 1.386 . S
H2257 C2273 0.930 . S
H2258 C2274 0.931 . S
C2259 H2247 0.929 . S
C2259 C2253 1.390 . S
C2259 C2256 1.386 . S
C2260 C2255 1.490 . S
C2260 C2262 1.395 . S
C2260 C2263 1.403 . S
H2261 C2267 0.930 . S
C2262 H2248 0.930 . S
C2262 C2260 1.395 . S
C2262 C2265 1.403 . S
C2263 C2260 1.403 . S
C2263 C2264 1.524 . S
C2263 C2267 1.400 . S
C2264 H2249 0.960 . S
C2264 H2250 0.960 . S
C2264 H2251 0.960 . S
C2264 C2263 1.524 . S
C2265 C2262 1.403 . S
C2265 C2266 1.392 . S
C2265 C2269 1.495 . S
C2266 C2265 1.392 . S
C2266 C2267 1.385 . S
C2266 C2268 1.478 . S
C2267 H2261 0.930 . S
C2267 C2263 1.400 . S
C2267 C2266 1.385 . S
C2268 C2266 1.478 . S
C2268 C2270 1.381 . S
C2268 C2274 1.383 . S
C2269 C2265 1.495 . S
C2269 H2275 0.959 . S
C2269 H2276 0.961 . S
C2269 H2277 0.960 . S
C2270 C2268 1.381 . S
C2270 C2271 1.394 . S
C2270 H2278 0.930 . S
C2271 C2270 1.394 . S
C2271 C2272 1.383 . S
C2271 H2279 0.929 . S
C2272 C2271 1.383 . S
C2272 C2273 1.377 . S
C2273 H2257 0.930 . S
C2273 C2272 1.377 . S
C2273 C2274 1.379 . S
C2274 H2258 0.931 . S
C2274 C2268 1.383 . S
C2274 C2273 1.379 . S
H2275 C2269 0.959 . S
H2276 C2269 0.961 . S
H2277 C2269 0.960 . S
H2278 C2270 0.930 . S
H2279 C2271 0.929 . S
H2280 C2288 0.929 . S
H2281 C2290 0.930 1_556 S
H2282 C2292 0.930 . S
H2283 C2295 0.929 . S
H2284 C2298 0.930 . S
H2285 C2300 0.960 . S
H2286 C2300 0.960 . S
H2287 C2300 0.960 . S
C2288 H2280 0.929 . S
C2288 C2289 1.377 . S
C2288 C2290 1.384 . S
C2289 C2288 1.377 . S
C2289 C2295 1.390 . S
C2290 H2281 0.930 1_554 S
C2290 C2288 1.384 . S
C2290 C2291 1.372 . S
C2291 C2290 1.372 . S
C2291 C2292 1.400 . S
C2291 C2296 1.490 . S
C2292 H2282 0.930 . S
C2292 C2291 1.400 . S
C2292 C2295 1.386 . S
H2293 C2309 0.930 . S
H2294 C2310 0.931 . S
C2295 H2283 0.929 . S
C2295 C2289 1.390 . S
C2295 C2292 1.386 . S
C2296 C2291 1.490 . S
C2296 C2298 1.395 . S
C2296 C2299 1.403 . S
H2297 C2303 0.930 . S
C2298 H2284 0.930 . S
C2298 C2296 1.395 . S
C2298 C2301 1.403 . S
C2299 C2296 1.403 . S
C2299 C2300 1.524 . S
C2299 C2303 1.400 . S
C2300 H2285 0.960 . S
C2300 H2286 0.960 . S
C2300 H2287 0.960 . S
C2300 C2299 1.524 . S
C2301 C2298 1.403 . S
C2301 C2302 1.392 . S
C2301 C2305 1.493 . S
C2302 C2301 1.392 . S
C2302 C2303 1.385 . S
C2302 C2304 1.478 . S
C2303 H2297 0.930 . S
C2303 C2299 1.400 . S
C2303 C2302 1.385 . S
C2304 C2302 1.478 . S
C2304 C2306 1.381 1_554 S
C2304 C2310 1.383 . S
C2305 C2301 1.493 . S
C2305 H2311 0.960 1_554 S
C2305 H2312 0.957 . S
C2305 H2313 0.965 1_554 S
C2306 C2304 1.381 1_556 S
C2306 C2307 1.394 . S
C2306 H2314 0.930 . S
C2307 C2306 1.394 . S
C2307 C2308 1.383 1_556 S
C2307 H2315 0.929 . S
C2308 C2307 1.383 1_554 S
C2308 C2309 1.377 . S
C2309 H2293 0.930 . S
C2309 C2308 1.377 . S
C2309 C2310 1.379 . S
C2310 H2294 0.931 . S
C2310 C2304 1.383 . S
C2310 C2309 1.379 . S
H2311 C2305 0.960 1_556 S
H2312 C2305 0.957 . S
H2313 C2305 0.965 1_556 S
H2314 C2306 0.930 . S
H2315 C2307 0.929 . S
H2316 C2324 0.929 . S
H2317 C2326 0.930 . S
H2318 C2328 0.930 . S
H2319 C2331 0.927 1_545 S
H2320 C2334 0.930 . S
H2321 C2336 0.960 . S
H2322 C2336 0.960 . S
H2323 C2336 0.960 . S
C2324 H2316 0.929 . S
C2324 C2325 1.377 . S
C2324 C2326 1.384 1_545 S
C2325 C2324 1.377 . S
C2325 C2331 1.379 1_545 S
C2326 H2317 0.930 . S
C2326 C2324 1.384 1_565 S
C2326 C2327 1.372 . S
C2327 C2326 1.372 . S
C2327 C2328 1.400 . S
C2327 C2332 1.490 . S
C2328 H2318 0.930 . S
C2328 C2327 1.400 . S
C2328 C2331 1.399 . S
H2329 C2345 0.930 . S
H2330 C2346 0.931 . S
C2331 H2319 0.927 1_565 S
C2331 C2325 1.379 1_565 S
C2331 C2328 1.399 . S
C2332 C2327 1.490 . S
C2332 C2334 1.395 . S
C2332 C2335 1.403 . S
H2333 C2339 0.930 . S
C2334 H2320 0.930 . S
C2334 C2332 1.395 . S
C2334 C2337 1.403 . S
C2335 C2332 1.403 . S
C2335 C2336 1.524 . S
C2335 C2339 1.400 . S
C2336 H2321 0.960 . S
C2336 H2322 0.960 . S
C2336 H2323 0.960 . S
C2336 C2335 1.524 . S
C2337 C2334 1.403 . S
C2337 C2338 1.392 . S
C2337 C2341 1.495 . S
C2338 C2337 1.392 . S
C2338 C2339 1.385 . S
C2338 C2340 1.478 . S
C2339 H2333 0.930 . S
C2339 C2335 1.400 . S
C2339 C2338 1.385 . S
C2340 C2338 1.478 . S
C2340 C2342 1.381 . S
C2340 C2346 1.383 . S
C2341 C2337 1.495 . S
C2341 H2347 0.959 . S
C2341 H2348 0.961 . S
C2341 H2349 0.960 . S
C2342 C2340 1.381 . S
C2342 C2343 1.394 . S
C2342 H2350 0.930 1_554 S
C2343 C2342 1.394 . S
C2343 C2344 1.383 . S
C2343 H2351 0.929 1_554 S
C2344 C2343 1.383 . S
C2344 C2345 1.377 . S
C2345 H2329 0.930 . S
C2345 C2344 1.377 . S
C2345 C2346 1.379 . S
C2346 H2330 0.931 . S
C2346 C2340 1.383 . S
C2346 C2345 1.379 . S
H2347 C2341 0.959 . S
H2348 C2341 0.961 . S
H2349 C2341 0.960 . S
H2350 C2342 0.930 1_556 S
H2351 C2343 0.929 1_556 S
C652 C194 1.681 . S
C633 C66 1.690 . S
C688 C242 1.208 . S
C669 C76 1.223 . S
C705 C93 1.764 . S
C724 C278 1.683 . S
C760 C314 1.584 . S
C741 C54 1.616 . S
C796 C340 1.416 . S
C777 C126 1.422 . S
C832 C376 1.943 . S
C813 C150 1.962 . S
C849 C136 1.100 . S
C868 C411 1.102 . S
C904 C448 1.869 . S
C885 C117 1.888 . S
C921 C141 1.154 . S
C940 C482 1.140 . S
C976 C530 1.364 . S
C957 C112 1.377 . S
C993 C124 1.484 . S
C1012 C483 1.496 . S
C1048 C520 1.396 . S
C1029 C148 1.394 . S
C1065 C88 1.183 . S
C1084 C566 1.092 . S
C1101 C52 1.735 . S
C1120 C555 1.738 . S
C1137 C64 1.189 . S
C1156 C556 1.203 . S
C1173 C78 1.286 . S
C1192 C554 1.292 . S
C1209 C45 1.629 . S
C1228 C302 1.610 1_565 S
C1245 C177 1.834 . S
C1264 C303 1.833 . S
C1300 C206 1.487 . S
C1281 C189 1.580 . S
C1336 C231 1.548 . S
C1317 C102 1.543 . S
C1353 C57 1.877 1_545 S
C1372 C338 1.878 . S
C1408 C446 1.371 . S
C1389 C138 1.399 . S
C1444 C339 1.847 . S
C1425 C114 1.852 1_545 S
C1480 C412 1.873 . S
C1461 C153 1.875 . S
C1516 C410 1.690 . S
C1497 C174 1.690 . S
C1533 C184 1.221 . S
C1552 C458 1.167 . S
C1569 C105 1.764 . S
C1588 C350 1.678 . S
C1624 C386 1.558 . S
C1605 C162 1.615 . S
C1641 C42 1.421 . S
C1660 C268 1.406 . S
C1696 C304 1.935 . S
C1677 C6 1.962 . S
C1732 C195 1.117 . S
C1713 C16 1.096 . S
C1768 C232 1.862 . S
C1749 C33 1.890 1_455 S
C1785 C21 1.157 . S
C1804 C518 1.141 . S
C1821 C28 1.373 1_556 S
C1840 C494 1.336 . S
C1857 C40 1.479 . S
C1876 C519 1.495 . S
C1893 C4 1.394 1_556 S
C1912 C484 1.396 . S
C1948 C602 1.148 . S
C1929 C100 1.180 . S
C1984 C591 1.738 . S
C1965 C160 1.735 1_554 S
C2020 C592 1.187 . S
C2001 C172 1.184 . S
C2037 C186 1.286 . S
C2056 C590 1.271 . S
C2073 C129 1.634 . S
C2092 C374 1.637 . S
C2128 C375 1.824 . S
C2109 C69 1.832 . S
C2164 C422 1.531 . S
C2145 C81 1.584 . S
C2200 C447 1.544 . S
C2181 C90 1.544 . S
C2217 C165 1.876 . S
C2236 C266 1.873 1_556 S
C2272 C230 1.387 . S
C2253 C18 1.398 . S
C2289 C30 1.852 . S
C2308 C267 1.847 . S
C2344 C196 1.869 . S
C2325 C9 1.875 . S
