# Generated by pormake.
# Topology cml, (3,6)-cn, num edge types: 1
# Building blocks:
#     Node 0, Type 0, BuildingBlock: BELTOD_clean_linker_0, # of connection points: 3
#     Node 1, Type 0, BuildingBlock: BELTOD_clean_linker_0, # of connection points: 3
#     Node 2, Type 0, BuildingBlock: BELTOD_clean_linker_0, # of connection points: 3
#     Node 3, Type 0, BuildingBlock: BELTOD_clean_linker_0, # of connection points: 3
#     Node 4, Type 0, BuildingBlock: BELTOD_clean_linker_0, # of connection points: 3
#     Node 5, Type 0, BuildingBlock: BELTOD_clean_linker_0, # of connection points: 3
#     Node 6, Type 0, BuildingBlock: BELTOD_clean_linker_0, # of connection points: 3
#     Node 7, Type 0, BuildingBlock: BELTOD_clean_linker_0, # of connection points: 3
#     Node 8, Type 1, BuildingBlock: IZENUY_clean_sbu_0, # of connection points: 6
#     Node 9, Type 1, BuildingBlock: IZENUY_clean_sbu_0, # of connection points: 6
#     Node 10, Type 1, BuildingBlock: IZENUY_clean_sbu_0, # of connection points: 6
#     Node 11, Type 1, BuildingBlock: IZENUY_clean_sbu_0, # of connection points: 6
#     Edge 12, Type (0, 1), BuildingBlock: UVAHIK_clean_linker_0, # of connection points: 2
#     Edge 13, Type (0, 1), BuildingBlock: UVAHIK_clean_linker_0, # of connection points: 2
#     Edge 14, Type (0, 1), BuildingBlock: UVAHIK_clean_linker_0, # of connection points: 2
#     Edge 15, Type (0, 1), BuildingBlock: UVAHIK_clean_linker_0, # of connection points: 2
#     Edge 16, Type (0, 1), BuildingBlock: UVAHIK_clean_linker_0, # of connection points: 2
#     Edge 17, Type (0, 1), BuildingBlock: UVAHIK_clean_linker_0, # of connection points: 2
#     Edge 18, Type (0, 1), BuildingBlock: UVAHIK_clean_linker_0, # of connection points: 2
#     Edge 19, Type (0, 1), BuildingBlock: UVAHIK_clean_linker_0, # of connection points: 2
#     Edge 20, Type (0, 1), BuildingBlock: UVAHIK_clean_linker_0, # of connection points: 2
#     Edge 21, Type (0, 1), BuildingBlock: UVAHIK_clean_linker_0, # of connection points: 2
#     Edge 22, Type (0, 1), BuildingBlock: UVAHIK_clean_linker_0, # of connection points: 2
#     Edge 23, Type (0, 1), BuildingBlock: UVAHIK_clean_linker_0, # of connection points: 2
#     Edge 24, Type (0, 1), BuildingBlock: UVAHIK_clean_linker_0, # of connection points: 2
#     Edge 25, Type (0, 1), BuildingBlock: UVAHIK_clean_linker_0, # of connection points: 2
#     Edge 26, Type (0, 1), BuildingBlock: UVAHIK_clean_linker_0, # of connection points: 2
#     Edge 27, Type (0, 1), BuildingBlock: UVAHIK_clean_linker_0, # of connection points: 2
#     Edge 28, Type (0, 1), BuildingBlock: UVAHIK_clean_linker_0, # of connection points: 2
#     Edge 29, Type (0, 1), BuildingBlock: UVAHIK_clean_linker_0, # of connection points: 2
#     Edge 30, Type (0, 1), BuildingBlock: UVAHIK_clean_linker_0, # of connection points: 2
#     Edge 31, Type (0, 1), BuildingBlock: UVAHIK_clean_linker_0, # of connection points: 2
#     Edge 32, Type (0, 1), BuildingBlock: UVAHIK_clean_linker_0, # of connection points: 2
#     Edge 33, Type (0, 1), BuildingBlock: UVAHIK_clean_linker_0, # of connection points: 2
#     Edge 34, Type (0, 1), BuildingBlock: UVAHIK_clean_linker_0, # of connection points: 2
#     Edge 35, Type (0, 1), BuildingBlock: UVAHIK_clean_linker_0, # of connection points: 2
# Relax obj value: 0.049
# Max RMSD: 0.063
# Mean RMSD: 0.061
data_MOF--net-cml--node1-IZENUY_clean_sbu_0--node2-BELTOD_clean_linker_0--edge1-UVAHIK_clean_linker_0
_symmetry_space_group_name_H-M    P1
_symmetry_Int_Tables_number       1
_symmetry_cell_setting            triclinic
loop_
_symmetry_equiv_pos_as_xyz
'x, y, z'
_cell_length_a     50.657162
_cell_length_b     58.781435
_cell_length_c     54.106332
_cell_angle_alpha  89.63713
_cell_angle_beta   89.728964
_cell_angle_gamma 90.001982
loop_
_atom_site_label
_atom_site_type_symbol
_atom_site_fract_x
_atom_site_fract_y
_atom_site_fract_z
_atom_type_partial_charge
P0 P 0.31856 0.35926 0.98296 0.0
H1 H 0.3436 0.3249 0.01393 0.0
H2 H 0.34637 0.31981 0.05859 0.0
H3 H 0.29486 0.37767 0.06893 0.0
H4 H 0.29276 0.38295 0.02407 0.0
H5 H 0.31322 0.32746 0.94198 0.0
H6 H 0.27495 0.30963 0.92292 0.0
H7 H 0.22367 0.34395 0.97478 0.0
H8 H 0.26219 0.36139 0.99406 0.0
H9 H 0.34778 0.39723 0.00339 0.0
H10 H 0.28982 0.3869 0.94637 0.0
O11 O 0.34623 0.34838 0.97106 0.0
H12 H 0.35103 0.43732 0.99177 0.0
H13 H 0.29252 0.42707 0.93501 0.0
C14 C 0.31852 0.3546 0.0158 0.0
C15 C 0.33285 0.33644 0.02581 0.0
C16 C 0.33416 0.33341 0.05137 0.0
C17 C 0.32092 0.34841 0.06737 0.0
C18 C 0.3056 0.36605 0.05714 0.0
C19 C 0.30434 0.36905 0.03152 0.0
C20 C 0.2905 0.34543 0.96966 0.0
C21 C 0.29377 0.331 0.94938 0.0
C22 C 0.27185 0.321 0.93834 0.0
C23 C 0.24628 0.32539 0.94734 0.0
C24 C 0.24313 0.33998 0.96765 0.0
C25 C 0.2651 0.34995 0.97868 0.0
C26 C 0.31831 0.38918 0.97602 0.0
C27 C 0.33532 0.40372 0.98873 0.0
C28 C 0.33703 0.42666 0.98216 0.0
C29 C 0.32191 0.43541 0.96254 0.0
C30 C 0.3045 0.42082 0.95012 0.0
C31 C 0.30283 0.39785 0.95672 0.0
P32 P 0.757 0.58422 0.52212 0.0
H33 H 0.76347 0.54114 0.49592 0.0
H34 H 0.73384 0.51888 0.47027 0.0
H35 H 0.67441 0.57139 0.47688 0.0
H36 H 0.70381 0.59291 0.5037 0.0
H37 H 0.80374 0.61087 0.53299 0.0
H38 H 0.82617 0.64195 0.51127 0.0
H39 H 0.76551 0.64148 0.45536 0.0
H40 H 0.74356 0.61015 0.47687 0.0
H41 H 0.72935 0.55798 0.55945 0.0
H42 H 0.74287 0.62896 0.54325 0.0
O43 O 0.78099 0.56697 0.53193 0.0
H44 H 0.70345 0.56829 0.59583 0.0
H45 H 0.71756 0.63947 0.58007 0.0
C46 C 0.73569 0.56852 0.5019 0.0
C47 C 0.74404 0.54782 0.49188 0.0
C48 C 0.72711 0.53521 0.47695 0.0
C49 C 0.7016 0.54325 0.47146 0.0
C50 C 0.69366 0.5644 0.48107 0.0
C51 C 0.71049 0.57682 0.49628 0.0
C52 C 0.77224 0.60794 0.50639 0.0
C53 C 0.79529 0.61748 0.51606 0.0
C54 C 0.80797 0.63537 0.50371 0.0
C55 C 0.7977 0.64414 0.48149 0.0
C56 C 0.77417 0.63487 0.4722 0.0
C57 C 0.76151 0.61698 0.48459 0.0
C58 C 0.73816 0.59266 0.54879 0.0
C59 C 0.72687 0.5758 0.56387 0.0
C60 C 0.71222 0.58174 0.58476 0.0
C61 C 0.70859 0.60473 0.59104 0.0
C62 C 0.7198 0.62163 0.57569 0.0
C63 C 0.73444 0.61563 0.5547 0.0
P64 P 0.76108 0.41024 0.02656 0.0
H65 H 0.77119 0.39005 0.07508 0.0
H66 H 0.74184 0.37667 0.10819 0.0
H67 H 0.67444 0.38891 0.0613 0.0
H68 H 0.70388 0.40234 0.02837 0.0
H69 H 0.80814 0.41069 0.99572 0.0
H70 H 0.82917 0.38215 0.96959 0.0
H71 H 0.76613 0.33498 0.98672 0.0
H72 H 0.74542 0.36361 0.01317 0.0
H73 H 0.73676 0.45265 0.04141 0.0
H74 H 0.74528 0.41432 0.97417 0.0
O75 O 0.78555 0.42346 0.0412 0.0
H76 H 0.71076 0.48124 0.01944 0.0
H77 H 0.72006 0.44319 0.95181 0.0
C78 C 0.73964 0.39773 0.04956 0.0
C79 C 0.7501 0.38967 0.07189 0.0
C80 C 0.73332 0.38189 0.09073 0.0
C81 C 0.70579 0.38202 0.08748 0.0
C82 C 0.69552 0.38903 0.06454 0.0
C83 C 0.71234 0.39668 0.04569 0.0
C84 C 0.77555 0.3891 0.00673 0.0
C85 C 0.79888 0.39419 0.99386 0.0
C86 C 0.81075 0.3779 0.97875 0.0
C87 C 0.7994 0.35622 0.97612 0.0
C88 C 0.7756 0.35139 0.98865 0.0
C89 C 0.7637 0.36775 0.00374 0.0
C90 C 0.74311 0.43149 0.00941 0.0
C91 C 0.73329 0.45057 0.02182 0.0
C92 C 0.71855 0.46696 0.00917 0.0
C93 C 0.71338 0.46463 0.98378 0.0
C94 C 0.7234 0.44544 0.9714 0.0
C95 C 0.73804 0.42897 0.98413 0.0
P96 P 0.30204 0.62988 0.4848 0.0
H97 H 0.30608 0.60856 0.43658 0.0
H98 H 0.30838 0.56881 0.42367 0.0
H99 H 0.29578 0.54713 0.49922 0.0
H100 H 0.29294 0.58693 0.51199 0.0
H101 H 0.28353 0.67408 0.50147 0.0
H102 H 0.24598 0.6977 0.48993 0.0
H103 H 0.22015 0.64552 0.43943 0.0
H104 H 0.25664 0.62151 0.45236 0.0
H105 H 0.3517 0.62236 0.50974 0.0
H106 H 0.27145 0.63795 0.53061 0.0
O107 O 0.32649 0.64206 0.46873 0.0
H108 H 0.36458 0.6226 0.55323 0.0
H109 H 0.28449 0.63891 0.57422 0.0
C110 C 0.29983 0.60068 0.47525 0.0
C111 C 0.30336 0.59525 0.45029 0.0
C112 C 0.30449 0.57255 0.44292 0.0
C113 C 0.30238 0.55493 0.46049 0.0
C114 C 0.29765 0.56043 0.48536 0.0
C115 C 0.2961 0.58316 0.49265 0.0
C116 C 0.27258 0.64582 0.47825 0.0
C117 C 0.26935 0.6675 0.48841 0.0
C118 C 0.24804 0.68114 0.48149 0.0
C119 C 0.22997 0.67363 0.46362 0.0
C120 C 0.23327 0.65176 0.45359 0.0
C121 C 0.25434 0.63799 0.46088 0.0
C122 C 0.31086 0.63085 0.51693 0.0
C123 C 0.33693 0.6261 0.52367 0.0
C124 C 0.34422 0.62608 0.54849 0.0
C125 C 0.32552 0.63091 0.56696 0.0
C126 C 0.29928 0.63542 0.56023 0.0
C127 C 0.2919 0.635 0.53535 0.0
P128 P 0.81352 0.86658 0.98288 0.0
H129 H 0.83949 0.83168 0.0124 0.0
H130 H 0.84275 0.82526 0.05683 0.0
H131 H 0.79048 0.88218 0.06967 0.0
H132 H 0.78786 0.88879 0.02503 0.0
H133 H 0.80889 0.83667 0.94021 0.0
H134 H 0.7715 0.81678 0.92204 0.0
H135 H 0.71973 0.84594 0.97713 0.0
H136 H 0.75742 0.86551 0.99547 0.0
H137 H 0.84216 0.9045 0.00388 0.0
H138 H 0.78308 0.89457 0.94781 0.0
O139 O 0.84147 0.85676 0.97046 0.0
H140 H 0.8448 0.94474 0.99292 0.0
H141 H 0.7852 0.93494 0.93706 0.0
C142 C 0.81401 0.86104 0.01554 0.0
C143 C 0.82869 0.84274 0.02478 0.0
C144 C 0.83028 0.83894 0.05021 0.0
C145 C 0.81695 0.85328 0.06684 0.0
C146 C 0.80129 0.87105 0.05738 0.0
C147 C 0.79976 0.87483 0.03189 0.0
C148 C 0.78594 0.85218 0.96944 0.0
C149 C 0.78952 0.83872 0.94843 0.0
C150 C 0.76808 0.82753 0.93792 0.0
C151 C 0.74268 0.82975 0.9482 0.0
C152 C 0.73913 0.84364 0.96902 0.0
C153 C 0.76062 0.85483 0.97951 0.0
C154 C 0.81224 0.89663 0.97689 0.0
C155 C 0.82929 0.91112 0.98962 0.0
C156 C 0.83064 0.93416 0.98342 0.0
C157 C 0.8151 0.94307 0.96418 0.0
C158 C 0.79749 0.92856 0.95189 0.0
C159 C 0.79618 0.90548 0.95812 0.0
P160 P 0.25669 0.08167 0.52055 0.0
H161 H 0.26597 0.04698 0.48318 0.0
H162 H 0.23633 0.02568 0.45621 0.0
H163 H 0.16999 0.0637 0.4848 0.0
H164 H 0.19969 0.08474 0.51181 0.0
H165 H 0.30587 0.10563 0.52957 0.0
H166 H 0.32856 0.13658 0.50789 0.0
H167 H 0.26402 0.14116 0.45613 0.0
H168 H 0.24161 0.10995 0.47777 0.0
H169 H 0.23221 0.05579 0.56018 0.0
H170 H 0.24109 0.12652 0.54028 0.0
O171 O 0.28015 0.06351 0.52949 0.0
H172 H 0.20654 0.06648 0.59658 0.0
H173 H 0.21607 0.13747 0.5771 0.0
C174 C 0.2349 0.06696 0.49993 0.0
C175 C 0.24503 0.05069 0.48362 0.0
C176 C 0.22811 0.03868 0.46808 0.0
C177 C 0.20077 0.04284 0.46857 0.0
C178 C 0.19088 0.05979 0.48435 0.0
C179 C 0.20783 0.07183 0.4998 0.0
C180 C 0.27237 0.10522 0.50499 0.0
C181 C 0.29663 0.1133 0.51355 0.0
C182 C 0.30947 0.13111 0.50124 0.0
C183 C 0.29816 0.14127 0.48018 0.0
C184 C 0.27345 0.13345 0.47203 0.0
C185 C 0.26059 0.11565 0.48444 0.0
C186 C 0.2388 0.09033 0.54773 0.0
C187 C 0.22888 0.07366 0.56385 0.0
C188 C 0.21432 0.07983 0.58474 0.0
C189 C 0.20939 0.10287 0.58993 0.0
C190 C 0.21932 0.11957 0.57358 0.0
C191 C 0.23383 0.11334 0.5526 0.0
P192 P 0.26194 0.91225 0.02784 0.0
H193 H 0.27042 0.89416 0.07763 0.0
H194 H 0.24023 0.87935 0.10928 0.0
H195 H 0.17532 0.88588 0.05816 0.0
H196 H 0.2056 0.90094 0.02676 0.0
H197 H 0.3092 0.91417 0.99733 0.0
H198 H 0.33181 0.88621 0.97157 0.0
H199 H 0.27143 0.8367 0.98936 0.0
H200 H 0.24864 0.86498 0.01467 0.0
H201 H 0.23621 0.9541 0.04243 0.0
H202 H 0.24733 0.91631 0.97514 0.0
O203 O 0.2856 0.92585 0.0432 0.0
H204 H 0.21035 0.98249 0.02002 0.0
H205 H 0.2222 0.945 0.95237 0.0
C206 C 0.24011 0.89915 0.05011 0.0
C207 C 0.24971 0.89229 0.07323 0.0
C208 C 0.23245 0.88368 0.09124 0.0
C209 C 0.2053 0.88169 0.08635 0.0
C210 C 0.19602 0.88763 0.06269 0.0
C211 C 0.21331 0.89619 0.0447 0.0
C212 C 0.27757 0.89151 0.00827 0.0
C213 C 0.30085 0.89729 0.99567 0.0
C214 C 0.3138 0.88125 0.98102 0.0
C215 C 0.30362 0.8591 0.97862 0.0
C216 C 0.27976 0.85361 0.99071 0.0
C217 C 0.2668 0.86972 0.00536 0.0
C218 C 0.24387 0.93325 0.01044 0.0
C219 C 0.23332 0.95209 0.02274 0.0
C220 C 0.21866 0.96837 0.00985 0.0
C221 C 0.21428 0.96615 0.98431 0.0
C222 C 0.22495 0.94716 0.97205 0.0
C223 C 0.23953 0.9308 0.98503 0.0
P224 P 0.80542 0.13075 0.48595 0.0
H225 H 0.79063 0.11399 0.4376 0.0
H226 H 0.79108 0.07611 0.41932 0.0
H227 H 0.81402 0.04745 0.48984 0.0
H228 H 0.81202 0.08498 0.50815 0.0
H229 H 0.79969 0.17922 0.47646 0.0
H230 H 0.76215 0.20273 0.46422 0.0
H231 H 0.71133 0.14372 0.46811 0.0
H232 H 0.74915 0.12025 0.48015 0.0
H233 H 0.85124 0.11714 0.51412 0.0
H234 H 0.77384 0.14438 0.52954 0.0
O235 O 0.83166 0.14202 0.47171 0.0
H236 H 0.86112 0.11685 0.5583 0.0
H237 H 0.78395 0.14462 0.57386 0.0
C238 C 0.80147 0.10239 0.47416 0.0
C239 C 0.79514 0.09944 0.44922 0.0
C240 C 0.79563 0.07778 0.43876 0.0
C241 C 0.80296 0.0587 0.45299 0.0
C242 C 0.80804 0.06165 0.47832 0.0
C243 C 0.80722 0.08329 0.48881 0.0
C244 C 0.77725 0.14796 0.47853 0.0
C245 C 0.78045 0.17137 0.47469 0.0
C246 C 0.75894 0.18481 0.46791 0.0
C247 C 0.73383 0.17503 0.46501 0.0
C248 C 0.73054 0.15164 0.46978 0.0
C249 C 0.7521 0.13823 0.47667 0.0
C250 C 0.8119 0.13083 0.51858 0.0
C251 C 0.8364 0.12308 0.52703 0.0
C252 C 0.84196 0.1228 0.55223 0.0
C253 C 0.82322 0.13062 0.56939 0.0
C254 C 0.79869 0.13855 0.56092 0.0
C255 C 0.79295 0.13842 0.53564 0.0
Fe256 Fe 0.99253 0.82182 0.31866 0.0
Fe257 Fe 0.99195 0.84933 0.36665 0.0
O258 O 0.99103 0.84834 0.33398 0.0
Fe259 Fe 0.98856 0.87396 0.31678 0.0
O260 O 0.95785 0.86501 0.30294 0.0
O261 O 0.97107 0.83058 0.29306 0.0
O262 O 0.96294 0.81167 0.33432 0.0
C263 C 0.96014 0.81078 0.35747 0.0
C264 C 0.02408 0.8475 0.28819 0.0
O265 O 0.97523 0.822 0.37141 0.0
C266 C 0.02309 0.88723 0.35237 0.0
O267 O 0.01414 0.80841 0.3417 0.0
O268 O 0.02424 0.83607 0.3672 0.0
O269 O 0.00783 0.86374 0.29034 0.0
O270 O 0.02224 0.83006 0.30182 0.0
C271 C 0.95384 0.88091 0.3571 0.0
O272 O 0.00878 0.8769 0.36805 0.0
O273 O 0.01925 0.8847 0.32953 0.0
C274 C 0.02921 0.81693 0.35783 0.0
O275 O 0.95965 0.86257 0.368 0.0
O276 O 0.96853 0.88875 0.34004 0.0
C277 C 0.95464 0.84675 0.29123 0.0
Fe278 Fe -0.00071 0.15673 0.87072 0.0
Fe279 Fe -0.00083 0.12569 0.82555 0.0
O280 O -0.00093 0.15334 0.83824 0.0
Fe281 Fe 0.9987 0.17747 0.81843 0.0
O282 O 0.02955 0.18779 0.83092 0.0
O283 O 0.01869 0.18304 0.87 0.0
O284 O 0.03031 0.14143 0.87359 0.0
C285 C 0.03393 0.12139 0.86611 0.0
C286 C 0.96431 0.19009 0.85775 0.0
O287 O 0.01835 0.11266 0.8506 0.0
C288 C 0.96419 0.1498 0.79438 0.0
O289 O 0.9797 0.13108 0.8772 0.0
O290 O 0.96814 0.11883 0.84053 0.0
O291 O 0.97906 0.19531 0.83956 0.0
O292 O 0.96843 0.17221 0.87011 0.0
C293 C 0.03382 0.14696 0.79438 0.0
O294 O 0.97997 0.13347 0.79818 0.0
O295 O 0.96776 0.16877 0.80458 0.0
C296 C 0.96399 0.12021 0.86346 0.0
O297 O 0.03017 0.13101 0.80974 0.0
O298 O 0.01837 0.16396 0.79378 0.0
C299 C 0.03361 0.1915 0.85351 0.0
Fe300 Fe 0.49413 0.32121 0.32041 0.0
Fe301 Fe 0.4927 0.34763 0.36915 0.0
O302 O 0.49194 0.34735 0.33645 0.0
Fe303 Fe 0.48893 0.37332 0.31987 0.0
O304 O 0.45835 0.36416 0.30587 0.0
O305 O 0.47251 0.33024 0.29505 0.0
O306 O 0.46474 0.31012 0.33568 0.0
C307 C 0.46166 0.30881 0.35879 0.0
C308 C 0.52519 0.34818 0.29081 0.0
O309 O 0.47621 0.32012 0.37313 0.0
C310 C 0.52373 0.38578 0.35568 0.0
O311 O 0.51603 0.30756 0.34306 0.0
O312 O 0.52504 0.3346 0.36963 0.0
O313 O 0.50835 0.36393 0.29315 0.0
O314 O 0.52369 0.33039 0.30392 0.0
C315 C 0.45441 0.37929 0.36056 0.0
O316 O 0.50951 0.37515 0.37121 0.0
O317 O 0.51937 0.38425 0.33281 0.0
C318 C 0.53064 0.31586 0.35969 0.0
O319 O 0.46027 0.36064 0.37079 0.0
O320 O 0.46884 0.38747 0.34352 0.0
C321 C 0.45562 0.3461 0.29368 0.0
Fe322 Fe 0.49742 0.65577 0.87201 0.0
Fe323 Fe 0.49822 0.62523 0.82643 0.0
O324 O 0.49789 0.65273 0.8395 0.0
Fe325 Fe 0.49807 0.67708 0.81999 0.0
O326 O 0.52873 0.68709 0.8332 0.0
O327 O 0.517 0.68196 0.87201 0.0
O328 O 0.52829 0.64031 0.87529 0.0
C329 C 0.53205 0.62037 0.86758 0.0
C330 C 0.46302 0.68951 0.85889 0.0
O331 O 0.51681 0.61185 0.85165 0.0
C332 C 0.4641 0.64982 0.79479 0.0
O333 O 0.47757 0.63014 0.87776 0.0
O334 O 0.46687 0.61821 0.84073 0.0
O335 O 0.47814 0.69477 0.84099 0.0
O336 O 0.46667 0.67143 0.87105 0.0
C337 C 0.53355 0.64678 0.79616 0.0
O338 O 0.47969 0.6334 0.79881 0.0
O339 O 0.46738 0.66865 0.80541 0.0
C340 C 0.46228 0.61927 0.86362 0.0
O341 O 0.52958 0.63068 0.81127 0.0
O342 O 0.51815 0.6638 0.79552 0.0
C343 C 0.53245 0.69037 0.85593 0.0
C344 C 0.22142 0.31271 0.90987 0.0
C345 C 0.22305 0.31458 0.93571 0.0
C346 C 0.19998 0.30177 0.89901 0.0
C347 C 0.13168 0.28271 0.91136 0.0
H348 H 0.14619 0.23837 0.86027 0.0
C349 C 0.05792 0.2129 0.88599 0.0
C350 C 0.05471 0.2074 0.86094 0.0
C351 C 0.07768 0.22789 0.89326 0.0
C352 C 0.14177 0.25095 0.87422 0.0
H353 H 0.20345 0.30651 0.9704 0.0
H354 H 0.16605 0.28745 0.95145 0.0
H355 H 0.18211 0.26149 0.87643 0.0
H356 H 0.06983 0.21333 0.82385 0.0
H357 H 0.10445 0.23965 0.83666 0.0
H358 H 0.09144 0.27188 0.9095 0.0
C359 C 0.18115 0.29472 0.93957 0.0
C360 C 0.16232 0.26419 0.88348 0.0
C361 C 0.20258 0.30563 0.95043 0.0
C362 C 0.07178 0.21722 0.8433 0.0
C363 C 0.09165 0.23222 0.85062 0.0
C364 C 0.11115 0.26949 0.90211 0.0
C365 C 0.17971 0.29253 0.91376 0.0
C366 C 0.15756 0.27992 0.90245 0.0
C367 C 0.09474 0.23773 0.87568 0.0
C368 C 0.11607 0.25318 0.88378 0.0
H369 H 0.23668 0.31978 0.89803 0.0
H370 H 0.19922 0.30059 0.87905 0.0
H371 H 0.12734 0.295 0.92565 0.0
H372 H 0.04522 0.20559 0.9001 0.0
H373 H 0.07987 0.23148 0.91276 0.0
C374 C 0.82373 0.68051 0.48063 0.0
C375 C 0.81187 0.66249 0.46782 0.0
C376 C 0.83826 0.69709 0.46793 0.0
C377 C 0.84998 0.72251 0.40619 0.0
H378 H 0.91684 0.74026 0.43485 0.0
C379 C 0.92746 0.77862 0.35461 0.0
C380 C 0.94097 0.79477 0.36886 0.0
C381 C 0.91053 0.76282 0.36595 0.0
C382 C 0.89808 0.73572 0.42672 0.0
H383 H 0.80578 0.64796 0.43153 0.0
H384 H 0.83109 0.67699 0.40936 0.0
H385 H 0.88927 0.7124 0.45608 0.0
H386 H 0.94634 0.8076 0.40604 0.0
H387 H 0.91672 0.78041 0.4256 0.0
H388 H 0.8589 0.74594 0.37678 0.0
C389 C 0.8289 0.67838 0.42922 0.0
C390 C 0.88227 0.71974 0.43891 0.0
C391 C 0.81438 0.66176 0.44193 0.0
C392 C 0.93656 0.7952 0.39452 0.0
C393 C 0.91965 0.77952 0.40579 0.0
C394 C 0.86581 0.73859 0.39398 0.0
C395 C 0.84128 0.69607 0.44212 0.0
C396 C 0.85798 0.71303 0.42888 0.0
C397 C 0.90674 0.76291 0.39174 0.0
C398 C 0.88997 0.74549 0.40421 0.0
H399 H 0.82176 0.68182 0.50051 0.0
H400 H 0.84714 0.71074 0.47836 0.0
H401 H 0.83127 0.7178 0.39808 0.0
H402 H 0.93038 0.77786 0.33479 0.0
H403 H 0.90098 0.75016 0.35461 0.0
C404 C 0.82506 0.34443 0.93839 0.0
C405 C 0.81282 0.33859 0.96094 0.0
C406 C 0.8391 0.32818 0.9249 0.0
C407 C 0.84917 0.26599 0.91796 0.0
H408 H 0.9172 0.28409 0.89121 0.0
C409 C 0.92828 0.20118 0.88729 0.0
C410 C 0.94402 0.20641 0.86653 0.0
C411 C 0.91038 0.21707 0.89664 0.0
C412 C 0.89807 0.27882 0.8982 0.0
H413 H 0.80556 0.31094 0.98681 0.0
H414 H 0.83003 0.2826 0.96331 0.0
H415 H 0.88936 0.3122 0.91146 0.0
H416 H 0.95255 0.23229 0.83884 0.0
H417 H 0.92112 0.25994 0.85506 0.0
H418 H 0.8581 0.23251 0.90498 0.0
C419 C 0.82848 0.2997 0.95587 0.0
C420 C 0.88209 0.29495 0.90984 0.0
C421 C 0.81444 0.31596 0.96936 0.0
C422 C 0.94087 0.22772 0.85494 0.0
C423 C 0.92295 0.24364 0.86433 0.0
C424 C 0.86516 0.24985 0.9063 0.0
C425 C 0.84125 0.30567 0.93362 0.0
C426 C 0.85755 0.2887 0.92007 0.0
C427 C 0.90772 0.23861 0.88547 0.0
C428 C 0.88993 0.25601 0.8965 0.0
H429 H 0.82383 0.36162 0.93116 0.0
H430 H 0.8483 0.33327 0.90762 0.0
H431 H 0.8302 0.26068 0.92529 0.0
H432 H 0.93012 0.18493 0.89668 0.0
H433 H 0.89919 0.21271 0.91311 0.0
C434 C 0.184 0.68005 0.44751 0.0
C435 C 0.20863 0.68892 0.45456 0.0
C436 C 0.16465 0.69425 0.43749 0.0
C437 C 0.14124 0.75265 0.43479 0.0
H438 H 0.11227 0.73617 0.37117 0.0
C439 C 0.07143 0.81288 0.3814 0.0
C440 C 0.05073 0.80289 0.36814 0.0
C441 C 0.09129 0.79935 0.39171 0.0
C442 C 0.11979 0.74089 0.38911 0.0
H443 H 0.23194 0.7199 0.45667 0.0
H444 H 0.19769 0.74469 0.44013 0.0
H445 H 0.14468 0.71146 0.39083 0.0
H446 H 0.03442 0.77092 0.35546 0.0
H447 H 0.06828 0.74735 0.37414 0.0
H448 H 0.11585 0.78167 0.43363 0.0
C449 C 0.19356 0.7267 0.44234 0.0
C450 C 0.13843 0.72675 0.40029 0.0
C451 C 0.21309 0.71247 0.45196 0.0
C452 C 0.05028 0.77916 0.36536 0.0
C453 C 0.06983 0.76563 0.37598 0.0
C454 C 0.12224 0.76662 0.42383 0.0
C455 C 0.16934 0.71766 0.43472 0.0
C456 C 0.14931 0.73252 0.42319 0.0
C457 C 0.09063 0.77552 0.3893 0.0
C458 C 0.11125 0.76092 0.40083 0.0
H459 H 0.17961 0.66212 0.44968 0.0
H460 H 0.14595 0.68696 0.43197 0.0
H461 H 0.1493 0.75735 0.45255 0.0
H462 H 0.07237 0.83116 0.3837 0.0
H463 H 0.10722 0.80762 0.40144 0.0
C464 C 0.70212 0.80586 0.95338 0.0
C465 C 0.72019 0.81699 0.93769 0.0
C466 C 0.68177 0.79279 0.94357 0.0
C467 C 0.64332 0.78269 0.88704 0.0
H468 H 0.62954 0.72422 0.9181 0.0
C469 C 0.57098 0.71607 0.84687 0.0
C470 C 0.55412 0.70536 0.86408 0.0
C471 C 0.59158 0.72999 0.85492 0.0
C472 C 0.633 0.74058 0.90936 0.0
H473 H 0.7306 0.82377 0.89941 0.0
H474 H 0.69521 0.8006 0.88226 0.0
H475 H 0.66448 0.74838 0.93403 0.0
H476 H 0.54564 0.70098 0.90322 0.0
H477 H 0.58127 0.72527 0.9171 0.0
H478 H 0.61169 0.7748 0.86237 0.0
C479 C 0.69674 0.8021 0.90214 0.0
C480 C 0.65298 0.75443 0.9185 0.0
C481 C 0.71714 0.81517 0.91196 0.0
C482 C 0.55825 0.70891 0.88944 0.0
C483 C 0.5788 0.72273 0.89743 0.0
C484 C 0.62328 0.7688 0.87786 0.0
C485 C 0.67905 0.79055 0.91787 0.0
C486 C 0.65819 0.77573 0.90761 0.0
C487 C 0.59576 0.73333 0.8803 0.0
C488 C 0.61776 0.7477 0.88911 0.0
H489 H 0.70407 0.80678 0.97327 0.0
H490 H 0.6682 0.78434 0.95615 0.0
H491 H 0.64677 0.7991 0.87839 0.0
H492 H 0.56836 0.71364 0.8272 0.0
H493 H 0.60449 0.73782 0.84131 0.0
C494 C 0.31345 0.15976 0.44059 0.0
C495 C 0.31245 0.15958 0.46658 0.0
C496 C 0.32827 0.17622 0.42789 0.0
C497 C 0.38445 0.21502 0.43704 0.0
H498 H 0.35973 0.24458 0.37718 0.0
C499 C 0.43887 0.2916 0.39543 0.0
C500 C 0.44268 0.29233 0.36967 0.0
C501 C 0.42206 0.27555 0.40619 0.0
C502 C 0.36701 0.23627 0.39372 0.0
H503 H 0.32522 0.17718 0.49953 0.0
H504 H 0.35099 0.20585 0.47743 0.0
H505 H 0.33173 0.21645 0.39812 0.0
H506 H 0.43109 0.27708 0.33496 0.0
H507 H 0.40174 0.24878 0.35391 0.0
H508 H 0.41965 0.23468 0.43276 0.0
C509 C 0.34078 0.193 0.46687 0.0
C510 C 0.35097 0.22019 0.40572 0.0
C511 C 0.326 0.17658 0.47954 0.0
C512 C 0.42867 0.27693 0.35486 0.0
C513 C 0.41177 0.26079 0.36569 0.0
C514 C 0.40042 0.23102 0.42508 0.0
C515 C 0.3424 0.19284 0.44092 0.0
C516 C 0.35943 0.20956 0.42767 0.0
C517 C 0.40859 0.25974 0.39153 0.0
C518 C 0.3918 0.24203 0.40344 0.0
H519 H 0.30346 0.14676 0.43007 0.0
H520 H 0.3293 0.17551 0.40792 0.0
H521 H 0.39183 0.20676 0.45357 0.0
H522 H 0.44905 0.30335 0.40742 0.0
H523 H 0.41961 0.27554 0.42609 0.0
C524 C 0.34591 0.84029 0.96563 0.0
C525 C 0.31826 0.84172 0.96409 0.0
C526 C 0.35981 0.82394 0.95221 0.0
C527 C 0.35204 0.76859 0.92129 0.0
H528 H 0.41951 0.78449 0.89177 0.0
C529 C 0.44011 0.72734 0.85593 0.0
C530 C 0.4431 0.70612 0.86775 0.0
C531 C 0.42288 0.74369 0.86551 0.0
C532 C 0.40056 0.77979 0.89961 0.0
H533 H 0.28358 0.82713 0.94698 0.0
H534 H 0.30791 0.79852 0.92352 0.0
H535 H 0.3934 0.81367 0.91222 0.0
H536 H 0.42946 0.68522 0.89848 0.0
H537 H 0.39973 0.71378 0.91528 0.0
H538 H 0.35918 0.73471 0.90852 0.0
C539 C 0.31878 0.80994 0.93536 0.0
C540 C 0.38573 0.79648 0.91163 0.0
C541 C 0.30484 0.82633 0.94881 0.0
C542 C 0.42774 0.70138 0.8889 0.0
C543 C 0.41052 0.71773 0.89847 0.0
C544 C 0.36689 0.75187 0.90927 0.0
C545 C 0.34645 0.80857 0.93688 0.0
C546 C 0.36144 0.79104 0.92288 0.0
C547 C 0.40818 0.73922 0.88712 0.0
C548 C 0.39147 0.75722 0.8985 0.0
H549 H 0.35684 0.85156 0.97759 0.0
H550 H 0.38105 0.82309 0.95422 0.0
H551 H 0.3335 0.76377 0.92989 0.0
H552 H 0.45147 0.73152 0.8395 0.0
H553 H 0.42122 0.75992 0.85607 0.0
C554 C 0.70757 0.21121 0.4649 0.0
C555 C 0.71149 0.18905 0.45601 0.0
C556 C 0.68761 0.22494 0.45518 0.0
C557 C 0.6258 0.22308 0.41916 0.0
H558 H 0.64251 0.28619 0.40467 0.0
C559 C 0.55731 0.28 0.36093 0.0
C560 C 0.55262 0.30209 0.36974 0.0
C561 C 0.57695 0.26644 0.37145 0.0
C562 C 0.63747 0.26867 0.40883 0.0
H563 H 0.69744 0.16385 0.4301 0.0
H564 H 0.66264 0.18781 0.4131 0.0
H565 H 0.67564 0.26182 0.42389 0.0
H566 H 0.56543 0.32748 0.39608 0.0
H567 H 0.59964 0.30374 0.41446 0.0
H568 H 0.58768 0.22991 0.40396 0.0
C569 C 0.67474 0.19448 0.42783 0.0
C570 C 0.65641 0.25472 0.41989 0.0
C571 C 0.69466 0.18074 0.43758 0.0
C572 C 0.56847 0.31052 0.38888 0.0
C573 C 0.58817 0.29697 0.39935 0.0
C574 C 0.60688 0.23702 0.40806 0.0
C575 C 0.67117 0.21682 0.43634 0.0
C576 C 0.6508 0.23176 0.42514 0.0
C577 C 0.5924 0.27469 0.39094 0.0
C578 C 0.61254 0.25994 0.40272 0.0
H579 H 0.72 0.21796 0.47935 0.0
H580 H 0.68506 0.24193 0.46244 0.0
H581 H 0.62073 0.20556 0.4233 0.0
H582 H 0.54557 0.27301 0.34613 0.0
H583 H 0.58004 0.24947 0.3643 0.0
C584 C 0.32855 0.46373 0.92835 0.0
C585 C 0.32614 0.45909 0.95377 0.0
C586 C 0.33632 0.48524 0.92007 0.0
C587 C 0.37667 0.53243 0.94098 0.0
H588 H 0.35513 0.56014 0.87904 0.0
C589 C 0.43416 0.60768 0.89968 0.0
C590 C 0.44062 0.60559 0.8745 0.0
C591 C 0.41502 0.59367 0.91045 0.0
C592 C 0.36136 0.55259 0.89637 0.0
H593 H 0.32798 0.47384 0.99036 0.0
H594 H 0.3417 0.51149 0.97586 0.0
H595 H 0.32956 0.52855 0.89638 0.0
H596 H 0.43115 0.58785 0.84062 0.0
H597 H 0.39823 0.56304 0.85953 0.0
H598 H 0.40905 0.55565 0.94055 0.0
C599 C 0.33795 0.49834 0.96238 0.0
C600 C 0.34669 0.53456 0.90631 0.0
C601 C 0.33015 0.4768 0.97067 0.0
C602 C 0.42674 0.58983 0.86009 0.0
C603 C 0.40768 0.57573 0.8709 0.0
C604 C 0.39133 0.55038 0.93104 0.0
C605 C 0.34188 0.50258 0.93703 0.0
C606 C 0.3546 0.52393 0.92841 0.0
C607 C 0.40197 0.57719 0.8963 0.0
C608 C 0.38424 0.5603 0.90831 0.0
H609 H 0.32591 0.4504 0.91486 0.0
H610 H 0.3395 0.48785 0.90045 0.0
H611 H 0.38355 0.52439 0.95783 0.0
H612 H 0.44421 0.61991 0.91122 0.0
H613 H 0.41075 0.59548 0.92997 0.0
C614 C 0.65599 0.52867 0.46245 0.0
C615 C 0.68307 0.52921 0.45662 0.0
C616 C 0.63879 0.51453 0.44956 0.0
C617 C 0.63296 0.47855 0.39326 0.0
H618 H 0.5786 0.44891 0.43248 0.0
C619 C 0.55246 0.4204 0.35062 0.0
C620 C 0.54383 0.40179 0.36494 0.0
C621 C 0.56999 0.43633 0.36051 0.0
C622 C 0.59384 0.45681 0.42125 0.0
H623 H 0.71297 0.5158 0.4318 0.0
H624 H 0.68325 0.49033 0.41018 0.0
H625 H 0.60791 0.47591 0.45185 0.0
H626 H 0.54794 0.38451 0.40024 0.0
H627 H 0.57903 0.41166 0.41711 0.0
H628 H 0.61948 0.45852 0.36289 0.0
C629 C 0.67518 0.50118 0.42444 0.0
C630 C 0.61042 0.47267 0.4323 0.0
C631 C 0.69235 0.51556 0.43714 0.0
C632 C 0.55387 0.39891 0.3889 0.0
C633 C 0.57159 0.41458 0.39863 0.0
C634 C 0.61649 0.46245 0.38222 0.0
C635 C 0.64822 0.50025 0.43072 0.0
C636 C 0.63022 0.48377 0.4185 0.0
C637 C 0.57945 0.43378 0.38481 0.0
C638 C 0.59681 0.45127 0.39614 0.0
H639 H 0.64807 0.53871 0.47746 0.0
H640 H 0.61808 0.51465 0.45461 0.0
H641 H 0.64778 0.48694 0.38197 0.0
H642 H 0.54503 0.42305 0.33208 0.0
H643 H 0.57547 0.45097 0.34938 0.0
C644 C 0.67869 0.47521 0.95261 0.0
C645 C 0.69715 0.4819 0.97049 0.0
C646 C 0.66286 0.49134 0.9407 0.0
C647 C 0.63517 0.54868 0.94832 0.0
H648 H 0.62142 0.54426 0.87809 0.0
C649 C 0.57057 0.61465 0.89623 0.0
C650 C 0.55288 0.60589 0.87874 0.0
C651 C 0.58989 0.60066 0.90684 0.0
C652 C 0.62484 0.54563 0.89776 0.0
H653 H 0.71386 0.51102 0.98929 0.0
H654 H 0.68595 0.5391 0.96873 0.0
H655 H 0.65183 0.51759 0.8976 0.0
H656 H 0.54181 0.57552 0.85863 0.0
H657 H 0.57496 0.55122 0.87735 0.0
H658 H 0.60775 0.57639 0.94862 0.0
C659 C 0.68359 0.52131 0.96415 0.0
C660 C 0.64232 0.53035 0.90892 0.0
C661 C 0.69954 0.50519 0.97596 0.0
C662 C 0.55511 0.5829 0.87198 0.0
C663 C 0.57431 0.56896 0.88261 0.0
C664 C 0.61756 0.5639 0.93718 0.0
C665 C 0.665 0.51456 0.94645 0.0
C666 C 0.64747 0.53154 0.93437 0.0
C667 C 0.59194 0.57761 0.90019 0.0
C668 C 0.61194 0.5624 0.9118 0.0
H669 H 0.67597 0.45742 0.94822 0.0
H670 H 0.64846 0.48555 0.92741 0.0
H671 H 0.63852 0.54989 0.96802 0.0
H672 H 0.56951 0.63231 0.90175 0.0
H673 H 0.60334 0.60796 0.9201 0.0
C674 C 0.32701 0.51855 0.4661 0.0
C675 C 0.30802 0.53121 0.45316 0.0
C676 C 0.33592 0.49776 0.45694 0.0
C677 C 0.34966 0.4514 0.43718 0.0
H678 H 0.36119 0.45272 0.36633 0.0
C679 C 0.41468 0.38419 0.38808 0.0
C680 C 0.43224 0.39305 0.37025 0.0
C681 C 0.39431 0.3977 0.39761 0.0
C682 C 0.35819 0.45207 0.38615 0.0
H683 H 0.28188 0.53133 0.42162 0.0
H684 H 0.29668 0.49456 0.406 0.0
H685 H 0.33454 0.48204 0.38537 0.0
H686 H 0.44192 0.42294 0.34825 0.0
H687 H 0.40721 0.44649 0.36524 0.0
H688 H 0.37512 0.42238 0.43805 0.0
C689 C 0.3054 0.501 0.42279 0.0
C690 C 0.34246 0.46872 0.39709 0.0
C691 C 0.29679 0.52198 0.43178 0.0
C692 C 0.42874 0.41552 0.3619 0.0
C693 C 0.40859 0.429 0.37151 0.0
C694 C 0.36571 0.43489 0.42625 0.0
C695 C 0.3258 0.48901 0.43475 0.0
C696 C 0.33864 0.46904 0.42286 0.0
C697 C 0.39116 0.42035 0.38956 0.0
C698 C 0.37087 0.43549 0.40069 0.0
H699 H 0.33622 0.52539 0.48249 0.0
H700 H 0.3519 0.48931 0.46653 0.0
H701 H 0.34668 0.45078 0.457 0.0
H702 H 0.41673 0.36688 0.39476 0.0
H703 H 0.38109 0.39042 0.41131 0.0
C704 C 0.8217 0.97134 0.92997 0.0
C705 C 0.81945 0.96673 0.95541 0.0
C706 C 0.83029 0.99261 0.92164 0.0
C707 C 0.87353 0.03782 0.94235 0.0
H708 H 0.85379 0.06627 0.88027 0.0
C709 C 0.93606 0.1097 0.90006 0.0
C710 C 0.94203 0.10722 0.87482 0.0
C711 C 0.91619 0.09666 0.91111 0.0
C712 C 0.85953 0.0585 0.89764 0.0
H713 H 0.82218 0.9814 0.99198 0.0
H714 H 0.83731 0.01862 0.97739 0.0
H715 H 0.82606 0.03621 0.89791 0.0
H716 H 0.9311 0.08973 0.84118 0.0
H717 H 0.8969 0.06657 0.86059 0.0
H718 H 0.90754 0.05924 0.94164 0.0
C719 C 0.83283 0.00562 0.96393 0.0
C720 C 0.84362 0.04136 0.90776 0.0
C721 C 0.82422 0.98434 0.97227 0.0
C722 C 0.92709 0.09198 0.86069 0.0
C723 C 0.90729 0.07885 0.87178 0.0
C724 C 0.88943 0.05489 0.93223 0.0
C725 C 0.83682 0.00971 0.93857 0.0
C726 C 0.85084 0.03044 0.92989 0.0
C727 C 0.9019 0.08078 0.8972 0.0
C728 C 0.883 0.065 0.90944 0.0
H729 H 0.81848 0.9581 0.91649 0.0
H730 H 0.83345 0.99511 0.90199 0.0
H731 H 0.8799 0.02951 0.95922 0.0
H732 H 0.94695 0.12155 0.91139 0.0
H733 H 0.91223 0.0988 0.93065 0.0
C734 C 0.18864 0.02338 0.42888 0.0
C735 C 0.1825 0.02895 0.45349 0.0
C736 C 0.17153 0.00981 0.41506 0.0
C737 C 0.10241 0.98865 0.4142 0.0
H738 H 0.13097 0.9405 0.37331 0.0
C739 C 0.04126 0.91143 0.38599 0.0
C740 C 0.04213 0.90446 0.36119 0.0
C741 C 0.05852 0.92802 0.39458 0.0
C742 C 0.12275 0.95408 0.38438 0.0
H743 H 0.15389 0.02426 0.48301 0.0
H744 H 0.12431 0.00052 0.45914 0.0
H745 H 0.16094 0.96716 0.39343 0.0
H746 H 0.06224 0.9092 0.32605 0.0
H747 H 0.09291 0.93817 0.34134 0.0
H748 H 0.06431 0.97507 0.40587 0.0
C749 C 0.14194 0.00707 0.45022 0.0
C750 C 0.13987 0.96938 0.39588 0.0
C751 C 0.15893 0.02067 0.46395 0.0
C752 C 0.06101 0.91428 0.34523 0.0
C753 C 0.0786 0.93077 0.35397 0.0
C754 C 0.08537 0.97329 0.4029 0.0
C755 C 0.14798 0.00147 0.42559 0.0
C756 C 0.1299 0.98655 0.41137 0.0
C757 C 0.07729 0.93793 0.37869 0.0
C758 C 0.09538 0.95558 0.38829 0.0
H759 H 0.20655 0.02969 0.42025 0.0
H760 H 0.17665 0.00603 0.39607 0.0
H761 H 0.09401 0.002 0.42548 0.0
H762 H 0.02702 0.90424 0.39884 0.0
H763 H 0.05733 0.93296 0.41381 0.0
C764 C 0.20031 0.00665 0.97637 0.0
C765 C 0.19826 0.98337 0.97073 0.0
C766 C 0.18454 0.02272 0.96428 0.0
C767 C 0.14435 0.03173 0.90828 0.0
H768 H 0.1089 0.07759 0.94755 0.0
C769 C 0.05736 0.08407 0.87039 0.0
C770 C 0.05491 0.10703 0.87721 0.0
C771 C 0.07656 0.07019 0.88112 0.0
C772 C 0.11897 0.06515 0.93622 0.0
H773 H 0.1779 0.95886 0.94783 0.0
H774 H 0.15066 0.98692 0.92659 0.0
H775 H 0.13939 0.05113 0.96737 0.0
H776 H 0.0712 0.13348 0.90041 0.0
H777 H 0.10501 0.10923 0.91896 0.0
H778 H 0.12393 0.04564 0.87715 0.0
C779 C 0.16467 0.99274 0.94022 0.0
C780 C 0.13642 0.04995 0.94761 0.0
C781 C 0.18034 0.97665 0.95239 0.0
C782 C 0.07243 0.11584 0.89483 0.0
C783 C 0.09173 0.10191 0.90555 0.0
C784 C 0.12702 0.04698 0.89688 0.0
C785 C 0.16645 0.01594 0.94615 0.0
C786 C 0.14905 0.03289 0.93382 0.0
C787 C 0.09395 0.07887 0.89889 0.0
C788 C 0.11381 0.06369 0.91076 0.0
H789 H 0.21422 0.0125 0.99007 0.0
H790 H 0.18664 0.0405 0.96902 0.0
H791 H 0.15413 0.01903 0.89708 0.0
H792 H 0.04422 0.07666 0.85692 0.0
H793 H 0.07736 0.05246 0.87583 0.0
C794 C 0.82044 0.03558 0.41777 0.0
C795 C 0.80806 0.03637 0.44107 0.0
C796 C 0.82863 0.01492 0.40784 0.0
C797 C 0.85247 0.9598 0.42814 0.0
H798 H 0.85263 0.94707 0.35791 0.0
C799 C 0.91621 0.88789 0.38656 0.0
C800 C 0.93119 0.89464 0.36582 0.0
C801 C 0.89558 0.90158 0.39523 0.0
C802 C 0.85273 0.95037 0.37758 0.0
H803 H 0.79309 0.01571 0.47144 0.0
H804 H 0.80801 0.97954 0.45421 0.0
H805 H 0.82518 0.9778 0.37395 0.0
H806 H 0.93564 0.92067 0.33746 0.0
H807 H 0.90015 0.94454 0.35272 0.0
H808 H 0.88099 0.93316 0.43166 0.0
C809 C 0.81143 0.99506 0.44378 0.0
C810 C 0.83696 0.96791 0.38675 0.0
C811 C 0.80299 0.01578 0.45366 0.0
C812 C 0.92461 0.91499 0.35355 0.0
C813 C 0.90403 0.92859 0.36216 0.0
C814 C 0.86831 0.9423 0.41896 0.0
C815 C 0.82484 0.9945 0.42101 0.0
C816 C 0.83736 0.9733 0.412 0.0
C817 C 0.88945 0.92219 0.38324 0.0
C818 C 0.8693 0.93792 0.39346 0.0
H819 H 0.82517 0.05104 0.40771 0.0
H820 H 0.8393 0.01511 0.39044 0.0
H821 H 0.85339 0.96369 0.44766 0.0
H822 H 0.92064 0.87223 0.39633 0.0
H823 H 0.88457 0.89611 0.41141 0.0
C824 C 0.32646 0.32512 0.10607 0.0
C825 C 0.32479 0.34655 0.09449 0.0
C826 C 0.33405 0.32329 0.13077 0.0
C827 C 0.34503 0.35542 0.18851 0.0
H828 H 0.40404 0.31408 0.1965 0.0
C829 C 0.42163 0.36415 0.26637 0.0
C830 C 0.43432 0.34449 0.27523 0.0
C831 C 0.40342 0.36273 0.24712 0.0
C832 C 0.38721 0.32534 0.19491 0.0
H833 H 0.3284 0.38293 0.10023 0.0
H834 H 0.34142 0.3797 0.14337 0.0
H835 H 0.37966 0.3144 0.15805 0.0
H836 H 0.43651 0.30778 0.27213 0.0
H837 H 0.40421 0.30521 0.23909 0.0
H838 H 0.35293 0.36663 0.22532 0.0
C839 C 0.33671 0.36433 0.13337 0.0
C840 C 0.37324 0.32554 0.17278 0.0
C841 C 0.32924 0.36617 0.10862 0.0
C842 C 0.42738 0.32328 0.26539 0.0
C843 C 0.40894 0.32182 0.24638 0.0
C844 C 0.3589 0.3551 0.21081 0.0
C845 C 0.34 0.34285 0.14445 0.0
C846 C 0.35234 0.34087 0.16915 0.0
C847 C 0.39727 0.34159 0.23653 0.0
C848 C 0.38051 0.34036 0.21408 0.0
H849 H 0.32263 0.30971 0.09582 0.0
H850 H 0.33603 0.30652 0.13898 0.0
H851 H 0.32884 0.36728 0.18626 0.0
H852 H 0.42656 0.38076 0.27359 0.0
H853 H 0.39509 0.37834 0.23985 0.0
C854 C 0.6953 0.5979 0.63526 0.0
C855 C 0.69305 0.61087 0.61344 0.0
C856 C 0.67978 0.60285 0.65595 0.0
C857 C 0.63948 0.64775 0.68503 0.0
H858 H 0.60542 0.59695 0.71831 0.0
C859 C 0.55555 0.65951 0.75677 0.0
C860 C 0.55427 0.6443 0.77691 0.0
C861 C 0.57397 0.65629 0.73778 0.0
C862 C 0.61509 0.61133 0.70953 0.0
H863 H 0.6729 0.6395 0.59647 0.0
H864 H 0.64594 0.64826 0.63271 0.0
H865 H 0.63485 0.5899 0.68353 0.0
H866 H 0.57212 0.61427 0.79332 0.0
H867 H 0.60453 0.60893 0.76047 0.0
H868 H 0.6197 0.66918 0.71107 0.0
C869 C 0.65988 0.63433 0.63381 0.0
C870 C 0.63194 0.60727 0.68953 0.0
C871 C 0.67535 0.62931 0.61305 0.0
C872 C 0.57237 0.62619 0.77796 0.0
C873 C 0.59087 0.62305 0.75904 0.0
C874 C 0.6227 0.65181 0.70515 0.0
C875 C 0.6617 0.62097 0.65539 0.0
C876 C 0.64426 0.62542 0.67699 0.0
C877 C 0.59166 0.63786 0.73852 0.0
C878 C 0.61021 0.63364 0.7176 0.0
H879 H 0.70912 0.58388 0.63641 0.0
H880 H 0.68199 0.59249 0.67244 0.0
H881 H 0.64892 0.66207 0.67592 0.0
H882 H 0.5419 0.67363 0.75534 0.0
H883 H 0.57378 0.6679 0.72215 0.0
C884 C 0.69291 0.35778 0.1242 0.0
C885 C 0.6878 0.37636 0.10841 0.0
C886 C 0.67654 0.35336 0.14461 0.0
C887 C 0.63065 0.38226 0.1868 0.0
H888 H 0.60399 0.32192 0.20207 0.0
C889 C 0.54505 0.369 0.25483 0.0
C890 C 0.5454 0.35015 0.27095 0.0
C891 C 0.56378 0.3712 0.236 0.0
C892 C 0.61159 0.33881 0.1983 0.0
H893 H 0.66153 0.40485 0.10173 0.0
H894 H 0.633 0.39709 0.13714 0.0
H895 H 0.63416 0.32739 0.16707 0.0
H896 H 0.56593 0.31879 0.27986 0.0
H897 H 0.59903 0.32282 0.247 0.0
H898 H 0.60833 0.39379 0.21788 0.0
C899 C 0.64967 0.38597 0.1338 0.0
C900 C 0.62881 0.34194 0.17821 0.0
C901 C 0.66585 0.39026 0.11335 0.0
C902 C 0.56505 0.3335 0.26773 0.0
C903 C 0.58394 0.33575 0.24884 0.0
C904 C 0.61363 0.37913 0.2069 0.0
C905 C 0.65494 0.36761 0.1498 0.0
C906 C 0.63812 0.36378 0.172 0.0
C907 C 0.58357 0.35471 0.2328 0.0
C908 C 0.60345 0.35746 0.21263 0.0
H909 H 0.70959 0.34669 0.12078 0.0
H910 H 0.68112 0.33913 0.15666 0.0
H911 H 0.63794 0.39922 0.18281 0.0
H912 H 0.53015 0.38212 0.25659 0.0
H913 H 0.5625 0.38577 0.22372 0.0
C914 C 0.34832 0.6133 0.60304 0.0
C915 C 0.33376 0.63143 0.5931 0.0
C916 C 0.35866 0.61468 0.62681 0.0
C917 C 0.35708 0.64783 0.68524 0.0
H918 H 0.42838 0.62442 0.69089 0.0
C919 C 0.42968 0.66634 0.7664 0.0
C920 C 0.44439 0.64756 0.77485 0.0
C921 C 0.41311 0.66425 0.74587 0.0
C922 C 0.40838 0.63084 0.68969 0.0
H923 H 0.31766 0.66486 0.60035 0.0
H924 H 0.33641 0.66765 0.6418 0.0
H925 H 0.40506 0.62076 0.65208 0.0
H926 H 0.45187 0.61154 0.76934 0.0
H927 H 0.42323 0.60805 0.73372 0.0
H928 H 0.36106 0.65846 0.72297 0.0
C929 C 0.33944 0.65216 0.63145 0.0
C930 C 0.39492 0.62865 0.66746 0.0
C931 C 0.32877 0.65062 0.60771 0.0
C932 C 0.44118 0.62646 0.76313 0.0
C933 C 0.4248 0.62443 0.74268 0.0
C934 C 0.37073 0.65021 0.70754 0.0
C935 C 0.35506 0.63441 0.64103 0.0
C936 C 0.36901 0.6369 0.66498 0.0
C937 C 0.41111 0.64339 0.73347 0.0
C938 C 0.39642 0.64152 0.70998 0.0
H939 H 0.35207 0.59818 0.59222 0.0
H940 H 0.36996 0.60043 0.63385 0.0
H941 H 0.3371 0.65427 0.68399 0.0
H942 H 0.43159 0.68279 0.77511 0.0
H943 H 0.40277 0.67914 0.73909 0.0
C944 C 0.8254 0.86982 0.10866 0.0
C945 C 0.82108 0.85061 0.09385 0.0
C946 C 0.83315 0.86729 0.13326 0.0
C947 C 0.87057 0.82767 0.17092 0.0
H948 H 0.8506 0.86726 0.22492 0.0
C949 C 0.92639 0.82408 0.26272 0.0
C950 C 0.93322 0.8452 0.27286 0.0
C951 C 0.90766 0.82276 0.24394 0.0
C952 C 0.85647 0.85613 0.20999 0.0
H953 H 0.8194 0.81374 0.09384 0.0
H954 H 0.83325 0.80935 0.13676 0.0
H955 H 0.82586 0.86862 0.18625 0.0
H956 H 0.92499 0.88141 0.27198 0.0
H957 H 0.89301 0.87923 0.23868 0.0
H958 H 0.9019 0.81593 0.19388 0.0
C959 C 0.83098 0.82633 0.12919 0.0
C960 C 0.84223 0.85687 0.18792 0.0
C961 C 0.82313 0.82886 0.10462 0.0
C962 C 0.92018 0.86487 0.26452 0.0
C963 C 0.90167 0.86359 0.24553 0.0
C964 C 0.8849 0.82706 0.19285 0.0
C965 C 0.83681 0.84551 0.14352 0.0
C966 C 0.84945 0.8429 0.16802 0.0
C967 C 0.89556 0.84256 0.23466 0.0
C968 C 0.87835 0.84157 0.21251 0.0
H969 H 0.82428 0.88681 0.10089 0.0
H970 H 0.83777 0.88238 0.14377 0.0
H971 H 0.87691 0.81697 0.15578 0.0
H972 H 0.93579 0.80856 0.26904 0.0
H973 H 0.90301 0.80623 0.23638 0.0
C974 C 0.17499 0.12701 0.61099 0.0
C975 C 0.19362 0.10929 0.61213 0.0
C976 C 0.15936 0.13227 0.63156 0.0
C977 C 0.13282 0.10649 0.68852 0.0
H978 H 0.11807 0.16873 0.70746 0.0
C979 C 0.07298 0.12668 0.77645 0.0
C980 C 0.05432 0.14434 0.77495 0.0
C981 C 0.09138 0.12339 0.75748 0.0
C982 C 0.12176 0.15125 0.70227 0.0
H983 H 0.2111 0.08384 0.63625 0.0
H984 H 0.18363 0.09284 0.67196 0.0
H985 H 0.14744 0.16125 0.67252 0.0
H986 H 0.0408 0.17269 0.75247 0.0
H987 H 0.07251 0.16666 0.71918 0.0
H988 H 0.10683 0.09639 0.71781 0.0
C989 C 0.18088 0.10245 0.65503 0.0
C990 C 0.13863 0.14698 0.68227 0.0
C991 C 0.19658 0.09728 0.63452 0.0
C992 C 0.05491 0.15894 0.75426 0.0
C993 C 0.07322 0.15555 0.7352 0.0
C994 C 0.11586 0.11074 0.70839 0.0
C995 C 0.16191 0.11986 0.65372 0.0
C996 C 0.14434 0.12454 0.67518 0.0
C997 C 0.09151 0.13757 0.73643 0.0
C998 C 0.11008 0.13317 0.71555 0.0
H999 H 0.17194 0.13643 0.59397 0.0
H1000 H 0.14473 0.14562 0.6299 0.0
H1001 H 0.13647 0.08901 0.68327 0.0
H1002 H 0.07327 0.11525 0.79224 0.0
H1003 H 0.10551 0.10966 0.75932 0.0
C1004 C 0.16248 0.88624 0.10918 0.0
C1005 C 0.18653 0.87464 0.10619 0.0
C1006 C 0.14519 0.88044 0.12837 0.0
C1007 C 0.14278 0.85237 0.18966 0.0
H1008 H 0.06726 0.85581 0.17891 0.0
C1009 C 0.06379 0.83194 0.26563 0.0
C1010 C 0.04355 0.84823 0.26763 0.0
C1011 C 0.08171 0.83279 0.2458 0.0
C1012 C 0.08831 0.85483 0.18221 0.0
H1013 H 0.21104 0.84754 0.12084 0.0
H1014 H 0.18066 0.83726 0.15434 0.0
H1015 H 0.09743 0.86113 0.14418 0.0
H1016 H 0.02645 0.87824 0.25038 0.0
H1017 H 0.05741 0.87955 0.21603 0.0
H1018 H 0.13342 0.84615 0.22784 0.0
C1019 C 0.17538 0.85108 0.142 0.0
C1020 C 0.10562 0.85795 0.16233 0.0
C1021 C 0.19277 0.85695 0.12279 0.0
C1022 C 0.04172 0.86537 0.24946 0.0
C1023 C 0.05937 0.86606 0.22963 0.0
C1024 C 0.1254 0.8491 0.20958 0.0
C1025 C 0.1514 0.86282 0.14507 0.0
C1026 C 0.13309 0.85728 0.16587 0.0
C1027 C 0.07949 0.84975 0.22748 0.0
C1028 C 0.09799 0.8508 0.20613 0.0
H1029 H 0.1573 0.90025 0.09705 0.0
H1030 H 0.12719 0.8902 0.13045 0.0
H1031 H 0.16381 0.85192 0.19312 0.0
H1032 H 0.0658 0.81856 0.27935 0.0
H1033 H 0.09703 0.81998 0.24457 0.0
C1034 C 0.84059 0.11152 0.60723 0.0
C1035 C 0.82989 0.13096 0.59594 0.0
C1036 C 0.85027 0.11251 0.63127 0.0
C1037 C 0.85393 0.14823 0.6878 0.0
H1038 H 0.92147 0.11787 0.6948 0.0
C1039 C 0.92974 0.16606 0.76595 0.0
C1040 C 0.94358 0.14717 0.77534 0.0
C1041 C 0.91223 0.16349 0.74622 0.0
C1042 C 0.90245 0.12618 0.69332 0.0
H1043 H 0.81969 0.16638 0.60113 0.0
H1044 H 0.83729 0.16838 0.64308 0.0
H1045 H 0.8971 0.11415 0.65662 0.0
H1046 H 0.94845 0.11057 0.77254 0.0
H1047 H 0.91796 0.10617 0.7384 0.0
H1048 H 0.86 0.16078 0.72452 0.0
C1049 C 0.83779 0.15224 0.63356 0.0
C1050 C 0.8884 0.12399 0.67141 0.0
C1051 C 0.82778 0.15114 0.60954 0.0
C1052 C 0.93849 0.12555 0.76548 0.0
C1053 C 0.92104 0.12301 0.74588 0.0
C1054 C 0.86815 0.15052 0.70978 0.0
C1055 C 0.84985 0.13309 0.64442 0.0
C1056 C 0.86395 0.13493 0.66834 0.0
C1057 C 0.90826 0.142 0.7356 0.0
C1058 C 0.89254 0.13946 0.71274 0.0
H1059 H 0.84205 0.09567 0.59719 0.0
H1060 H 0.85878 0.09729 0.63932 0.0
H1061 H 0.83508 0.15677 0.68607 0.0
H1062 H 0.93312 0.18293 0.77324 0.0
H1063 H 0.9027 0.17845 0.7386 0.0
loop_
_geom_bond_atom_site_label_1
_geom_bond_atom_site_label_2
_geom_bond_distance
_geom_bond_site_symmetry_2
_ccdc_geom_bond_type
P0 O11 1.490 . S
P0 C14 1.812 1_556 S
P0 C20 1.803 . S
P0 C26 1.819 . S
H1 C15 0.941 . S
H2 C16 0.939 . S
H3 C18 0.940 . S
H4 C19 0.940 . S
H5 C21 0.939 . S
H6 C22 0.942 . S
H7 C24 0.940 1_554 S
H8 C25 0.939 . S
H9 C27 0.941 . S
H10 C31 0.939 . S
O11 P0 1.490 . S
H12 C28 0.939 . S
H13 C30 0.940 . S
C14 P0 1.812 1_554 S
C14 C15 1.389 . S
C14 C19 1.391 . S
C15 H1 0.941 . S
C15 C14 1.389 . S
C15 C16 1.397 . S
C16 H2 0.939 . S
C16 C15 1.397 . S
C16 C17 1.378 . S
C17 C16 1.378 . S
C17 C18 1.378 . S
C18 H3 0.940 . S
C18 C17 1.378 . S
C18 C19 1.396 . S
C19 H4 0.940 . S
C19 C14 1.391 . S
C19 C18 1.396 . S
C20 P0 1.803 . S
C20 C21 1.378 . S
C20 C25 1.400 1_556 S
C21 H5 0.939 . S
C21 C20 1.378 . S
C21 C22 1.361 . S
C22 H6 0.942 . S
C22 C21 1.361 . S
C22 C23 1.369 . S
C23 C22 1.369 . S
C23 C24 1.404 . S
C24 H7 0.940 1_556 S
C24 C23 1.404 . S
C24 C25 1.389 1_556 S
C25 H8 0.939 . S
C25 C20 1.400 1_554 S
C25 C24 1.389 1_554 S
C26 P0 1.819 . S
C26 C27 1.391 . S
C26 C31 1.391 . S
C27 H9 0.941 . S
C27 C26 1.391 . S
C27 C28 1.396 . S
C28 H12 0.939 . S
C28 C27 1.396 . S
C28 C29 1.397 . S
C29 C28 1.397 . S
C29 C30 1.385 . S
C30 H13 0.940 . S
C30 C29 1.385 . S
C30 C31 1.388 . S
C31 H10 0.939 . S
C31 C26 1.391 . S
C31 C30 1.388 . S
P32 O43 1.490 . S
P32 C46 1.812 . S
P32 C52 1.803 . S
P32 C58 1.819 . S
H33 C47 0.941 . S
H34 C48 0.939 . S
H35 C50 0.940 . S
H36 C51 0.940 . S
H37 C53 0.939 . S
H38 C54 0.942 . S
H39 C56 0.940 . S
H40 C57 0.939 . S
H41 C59 0.941 . S
H42 C63 0.939 . S
O43 P32 1.490 . S
H44 C60 0.939 . S
H45 C62 0.940 . S
C46 P32 1.812 . S
C46 C47 1.389 . S
C46 C51 1.391 . S
C47 H33 0.941 . S
C47 C46 1.389 . S
C47 C48 1.397 . S
C48 H34 0.939 . S
C48 C47 1.397 . S
C48 C49 1.378 . S
C49 C48 1.378 . S
C49 C50 1.378 . S
C50 H35 0.940 . S
C50 C49 1.378 . S
C50 C51 1.396 . S
C51 H36 0.940 . S
C51 C46 1.391 . S
C51 C50 1.396 . S
C52 P32 1.803 . S
C52 C53 1.378 . S
C52 C57 1.400 . S
C53 H37 0.939 . S
C53 C52 1.378 . S
C53 C54 1.361 . S
C54 H38 0.942 . S
C54 C53 1.361 . S
C54 C55 1.369 . S
C55 C54 1.369 . S
C55 C56 1.404 . S
C56 H39 0.940 . S
C56 C55 1.404 . S
C56 C57 1.389 . S
C57 H40 0.939 . S
C57 C52 1.400 . S
C57 C56 1.389 . S
C58 P32 1.819 . S
C58 C59 1.391 . S
C58 C63 1.391 . S
C59 H41 0.941 . S
C59 C58 1.391 . S
C59 C60 1.396 . S
C60 H44 0.939 . S
C60 C59 1.396 . S
C60 C61 1.397 . S
C61 C60 1.397 . S
C61 C62 1.385 . S
C62 H45 0.940 . S
C62 C61 1.385 . S
C62 C63 1.388 . S
C63 H42 0.939 . S
C63 C58 1.391 . S
C63 C62 1.388 . S
P64 O75 1.490 . S
P64 C78 1.812 . S
P64 C84 1.803 . S
P64 C90 1.832 . S
H65 C79 0.941 . S
H66 C80 0.939 . S
H67 C82 0.940 . S
H68 C83 0.940 . S
H69 C85 0.939 . S
H70 C86 0.942 . S
H71 C88 0.940 . S
H72 C89 0.939 . S
H73 C91 0.941 . S
H74 C95 0.939 . S
O75 P64 1.490 . S
H76 C92 0.939 . S
H77 C94 0.940 . S
C78 P64 1.812 . S
C78 C79 1.389 . S
C78 C83 1.391 . S
C79 H65 0.941 . S
C79 C78 1.389 . S
C79 C80 1.397 . S
C80 H66 0.939 . S
C80 C79 1.397 . S
C80 C81 1.378 . S
C81 C80 1.378 . S
C81 C82 1.378 . S
C82 H67 0.940 . S
C82 C81 1.378 . S
C82 C83 1.396 . S
C83 H68 0.940 . S
C83 C78 1.391 . S
C83 C82 1.396 . S
C84 P64 1.803 . S
C84 C85 1.378 1_554 S
C84 C89 1.400 . S
C85 H69 0.939 . S
C85 C84 1.378 1_556 S
C85 C86 1.361 . S
C86 H70 0.942 . S
C86 C85 1.361 . S
C86 C87 1.369 . S
C87 C86 1.369 . S
C87 C88 1.404 . S
C88 H71 0.940 . S
C88 C87 1.404 . S
C88 C89 1.389 1_556 S
C89 H72 0.939 . S
C89 C84 1.400 . S
C89 C88 1.389 1_554 S
C90 P64 1.832 . S
C90 C91 1.398 . S
C90 C95 1.373 1_554 S
C91 H73 0.941 . S
C91 C90 1.398 . S
C91 C92 1.396 1_554 S
C92 H76 0.939 . S
C92 C91 1.396 1_556 S
C92 C93 1.397 . S
C93 C92 1.397 . S
C93 C94 1.385 . S
C94 H77 0.940 . S
C94 C93 1.385 . S
C94 C95 1.388 . S
C95 H74 0.939 . S
C95 C90 1.373 1_556 S
C95 C94 1.388 . S
P96 O107 1.490 . S
P96 C110 1.812 . S
P96 C116 1.803 . S
P96 C122 1.819 . S
H97 C111 0.941 . S
H98 C112 0.939 . S
H99 C114 0.940 . S
H100 C115 0.940 . S
H101 C117 0.939 . S
H102 C118 0.942 . S
H103 C120 0.940 . S
H104 C121 0.939 . S
H105 C123 0.941 . S
H106 C127 0.939 . S
O107 P96 1.490 . S
H108 C124 0.939 . S
H109 C126 0.940 . S
C110 P96 1.812 . S
C110 C111 1.389 . S
C110 C115 1.391 . S
C111 H97 0.941 . S
C111 C110 1.389 . S
C111 C112 1.397 . S
C112 H98 0.939 . S
C112 C111 1.397 . S
C112 C113 1.378 . S
C113 C112 1.378 . S
C113 C114 1.378 . S
C114 H99 0.940 . S
C114 C113 1.378 . S
C114 C115 1.396 . S
C115 H100 0.940 . S
C115 C110 1.391 . S
C115 C114 1.396 . S
C116 P96 1.803 . S
C116 C117 1.378 . S
C116 C121 1.400 . S
C117 H101 0.939 . S
C117 C116 1.378 . S
C117 C118 1.361 . S
C118 H102 0.942 . S
C118 C117 1.361 . S
C118 C119 1.369 . S
C119 C118 1.369 . S
C119 C120 1.404 . S
C120 H103 0.940 . S
C120 C119 1.404 . S
C120 C121 1.389 . S
C121 H104 0.939 . S
C121 C116 1.400 . S
C121 C120 1.389 . S
C122 P96 1.819 . S
C122 C123 1.391 . S
C122 C127 1.391 . S
C123 H105 0.941 . S
C123 C122 1.391 . S
C123 C124 1.396 . S
C124 H108 0.939 . S
C124 C123 1.396 . S
C124 C125 1.397 . S
C125 C124 1.397 . S
C125 C126 1.385 . S
C126 H109 0.940 . S
C126 C125 1.385 . S
C126 C127 1.388 . S
C127 H106 0.939 . S
C127 C122 1.391 . S
C127 C126 1.388 . S
P128 O139 1.490 . S
P128 C142 1.812 1_556 S
P128 C148 1.803 . S
P128 C154 1.819 . S
H129 C143 0.941 . S
H130 C144 0.939 . S
H131 C146 0.940 . S
H132 C147 0.940 . S
H133 C149 0.939 . S
H134 C150 0.942 . S
H135 C152 0.940 1_554 S
H136 C153 0.939 . S
H137 C155 0.941 . S
H138 C159 0.939 . S
O139 P128 1.490 . S
H140 C156 0.939 . S
H141 C158 0.940 . S
C142 P128 1.812 1_554 S
C142 C143 1.389 . S
C142 C147 1.391 . S
C143 H129 0.941 . S
C143 C142 1.389 . S
C143 C144 1.397 . S
C144 H130 0.939 . S
C144 C143 1.397 . S
C144 C145 1.378 . S
C145 C144 1.378 . S
C145 C146 1.378 . S
C146 H131 0.940 . S
C146 C145 1.378 . S
C146 C147 1.396 . S
C147 H132 0.940 . S
C147 C142 1.391 . S
C147 C146 1.396 . S
C148 P128 1.803 . S
C148 C149 1.378 . S
C148 C153 1.400 1_556 S
C149 H133 0.939 . S
C149 C148 1.378 . S
C149 C150 1.361 . S
C150 H134 0.942 . S
C150 C149 1.361 . S
C150 C151 1.369 . S
C151 C150 1.369 . S
C151 C152 1.404 . S
C152 H135 0.940 1_556 S
C152 C151 1.404 . S
C152 C153 1.389 1_556 S
C153 H136 0.939 . S
C153 C148 1.400 1_554 S
C153 C152 1.389 1_554 S
C154 P128 1.819 . S
C154 C155 1.391 . S
C154 C159 1.391 . S
C155 H137 0.941 . S
C155 C154 1.391 . S
C155 C156 1.396 . S
C156 H140 0.939 . S
C156 C155 1.396 . S
C156 C157 1.397 . S
C157 C156 1.397 . S
C157 C158 1.385 . S
C158 H141 0.940 . S
C158 C157 1.385 . S
C158 C159 1.388 . S
C159 H138 0.939 . S
C159 C154 1.391 . S
C159 C158 1.388 . S
P160 O171 1.490 . S
P160 C174 1.812 . S
P160 C180 1.803 . S
P160 C186 1.819 . S
H161 C175 0.941 . S
H162 C176 0.939 . S
H163 C178 0.940 . S
H164 C179 0.940 . S
H165 C181 0.939 . S
H166 C182 0.942 . S
H167 C184 0.940 . S
H168 C185 0.939 . S
H169 C187 0.941 . S
H170 C191 0.939 . S
O171 P160 1.490 . S
H172 C188 0.939 . S
H173 C190 0.940 . S
C174 P160 1.812 . S
C174 C175 1.389 . S
C174 C179 1.391 . S
C175 H161 0.941 . S
C175 C174 1.389 . S
C175 C176 1.397 . S
C176 H162 0.939 . S
C176 C175 1.397 . S
C176 C177 1.378 . S
C177 C176 1.378 . S
C177 C178 1.378 . S
C178 H163 0.940 . S
C178 C177 1.378 . S
C178 C179 1.396 . S
C179 H164 0.940 . S
C179 C174 1.391 . S
C179 C178 1.396 . S
C180 P160 1.803 . S
C180 C181 1.378 . S
C180 C185 1.400 . S
C181 H165 0.939 . S
C181 C180 1.378 . S
C181 C182 1.361 . S
C182 H166 0.942 . S
C182 C181 1.361 . S
C182 C183 1.369 . S
C183 C182 1.369 . S
C183 C184 1.404 . S
C184 H167 0.940 . S
C184 C183 1.404 . S
C184 C185 1.389 . S
C185 H168 0.939 . S
C185 C180 1.400 . S
C185 C184 1.389 . S
C186 P160 1.819 . S
C186 C187 1.391 . S
C186 C191 1.391 . S
C187 H169 0.941 . S
C187 C186 1.391 . S
C187 C188 1.396 . S
C188 H172 0.939 . S
C188 C187 1.396 . S
C188 C189 1.397 . S
C189 C188 1.397 . S
C189 C190 1.385 . S
C190 H173 0.940 . S
C190 C189 1.385 . S
C190 C191 1.388 . S
C191 H170 0.939 . S
C191 C186 1.391 . S
C191 C190 1.388 . S
P192 O203 1.490 . S
P192 C206 1.812 . S
P192 C212 1.803 . S
P192 C218 1.832 . S
H193 C207 0.941 . S
H194 C208 0.939 . S
H195 C210 0.940 . S
H196 C211 0.940 . S
H197 C213 0.939 . S
H198 C214 0.942 . S
H199 C216 0.940 . S
H200 C217 0.939 . S
H201 C219 0.941 . S
H202 C223 0.939 . S
O203 P192 1.490 . S
H204 C220 0.939 . S
H205 C222 0.940 . S
C206 P192 1.812 . S
C206 C207 1.389 . S
C206 C211 1.391 . S
C207 H193 0.941 . S
C207 C206 1.389 . S
C207 C208 1.397 . S
C208 H194 0.939 . S
C208 C207 1.397 . S
C208 C209 1.378 . S
C209 C208 1.378 . S
C209 C210 1.378 . S
C210 H195 0.940 . S
C210 C209 1.378 . S
C210 C211 1.396 . S
C211 H196 0.940 . S
C211 C206 1.391 . S
C211 C210 1.396 . S
C212 P192 1.803 . S
C212 C213 1.378 1_554 S
C212 C217 1.400 . S
C213 H197 0.939 . S
C213 C212 1.378 1_556 S
C213 C214 1.361 . S
C214 H198 0.942 . S
C214 C213 1.361 . S
C214 C215 1.369 . S
C215 C214 1.369 . S
C215 C216 1.404 . S
C216 H199 0.940 . S
C216 C215 1.404 . S
C216 C217 1.389 1_556 S
C217 H200 0.939 . S
C217 C212 1.400 . S
C217 C216 1.389 1_554 S
C218 P192 1.832 . S
C218 C219 1.398 . S
C218 C223 1.372 1_554 S
C219 H201 0.941 . S
C219 C218 1.398 . S
C219 C220 1.396 1_554 S
C220 H204 0.939 . S
C220 C219 1.396 1_556 S
C220 C221 1.397 . S
C221 C220 1.397 . S
C221 C222 1.385 . S
C222 H205 0.940 . S
C222 C221 1.385 . S
C222 C223 1.388 . S
C223 H202 0.939 . S
C223 C218 1.372 1_556 S
C223 C222 1.388 . S
P224 O235 1.490 . S
P224 C238 1.812 . S
P224 C244 1.803 . S
P224 C250 1.819 . S
H225 C239 0.941 . S
H226 C240 0.939 . S
H227 C242 0.940 . S
H228 C243 0.940 . S
H229 C245 0.939 . S
H230 C246 0.942 . S
H231 C248 0.940 . S
H232 C249 0.939 . S
H233 C251 0.941 . S
H234 C255 0.939 . S
O235 P224 1.490 . S
H236 C252 0.939 . S
H237 C254 0.940 . S
C238 P224 1.812 . S
C238 C239 1.389 . S
C238 C243 1.391 . S
C239 H225 0.941 . S
C239 C238 1.389 . S
C239 C240 1.397 . S
C240 H226 0.939 . S
C240 C239 1.397 . S
C240 C241 1.378 . S
C241 C240 1.378 . S
C241 C242 1.378 . S
C242 H227 0.940 . S
C242 C241 1.378 . S
C242 C243 1.396 . S
C243 H228 0.940 . S
C243 C238 1.391 . S
C243 C242 1.396 . S
C244 P224 1.803 . S
C244 C245 1.378 . S
C244 C249 1.400 . S
C245 H229 0.939 . S
C245 C244 1.378 . S
C245 C246 1.361 . S
C246 H230 0.942 . S
C246 C245 1.361 . S
C246 C247 1.369 . S
C247 C246 1.369 . S
C247 C248 1.404 . S
C248 H231 0.940 . S
C248 C247 1.404 . S
C248 C249 1.389 . S
C249 H232 0.939 . S
C249 C244 1.400 . S
C249 C248 1.389 . S
C250 P224 1.819 . S
C250 C251 1.391 . S
C250 C255 1.391 . S
C251 H233 0.941 . S
C251 C250 1.391 . S
C251 C252 1.396 . S
C252 H236 0.939 . S
C252 C251 1.396 . S
C252 C253 1.397 . S
C253 C252 1.397 . S
C253 C254 1.385 . S
C254 H237 0.940 . S
C254 C253 1.385 . S
C254 C255 1.388 . S
C255 H234 0.939 . S
C255 C250 1.391 . S
C255 C254 1.388 . S
Fe256 O258 1.918 . S
Fe256 O261 1.997 1_455 S
Fe256 O262 2.002 1_455 S
Fe256 O267 1.976 . S
Fe256 O270 1.996 . S
Fe257 O258 1.918 . S
Fe257 O265 1.997 1_455 S
Fe257 O268 1.996 . S
Fe257 O272 1.976 . S
Fe257 O275 2.002 1_455 S
O258 Fe256 1.918 . S
O258 Fe257 1.918 . S
O258 Fe259 1.918 . S
Fe259 O258 1.918 . S
Fe259 O260 2.002 1_455 S
Fe259 O269 1.976 . S
Fe259 O273 1.996 . S
Fe259 O276 1.997 1_455 S
O260 Fe259 2.002 1_655 S
O260 C277 1.295 . S
O261 Fe256 1.997 1_655 S
O261 C277 1.235 . S
O262 Fe256 2.002 1_655 S
O262 C263 1.295 . S
C263 O262 1.295 . S
C263 O265 1.235 . S
C264 O269 1.287 . S
C264 O270 1.255 . S
O265 Fe257 1.997 1_655 S
O265 C263 1.235 . S
C266 O272 1.287 . S
C266 O273 1.255 . S
O267 Fe256 1.976 . S
O267 C274 1.287 . S
O268 Fe257 1.996 . S
O268 C274 1.255 . S
O269 Fe259 1.976 . S
O269 C264 1.287 . S
O270 Fe256 1.996 . S
O270 C264 1.255 . S
C271 O275 1.295 . S
C271 O276 1.235 . S
O272 Fe257 1.976 . S
O272 C266 1.287 . S
O273 Fe259 1.996 . S
O273 C266 1.255 . S
C274 O267 1.287 . S
C274 O268 1.255 . S
O275 Fe257 2.002 1_655 S
O275 C271 1.295 . S
O276 Fe259 1.997 1_655 S
O276 C271 1.235 . S
C277 O260 1.295 . S
C277 O261 1.235 . S
Fe278 O280 1.918 . S
Fe278 O283 1.989 1_655 S
Fe278 O284 1.994 1_655 S
Fe278 O289 1.984 . S
Fe278 O292 2.003 . S
Fe279 O280 1.918 . S
Fe279 O287 1.989 1_655 S
Fe279 O290 2.003 . S
Fe279 O294 1.984 . S
Fe279 O297 1.995 1_655 S
O280 Fe278 1.918 . S
O280 Fe279 1.918 . S
O280 Fe281 1.918 . S
Fe281 O280 1.918 . S
Fe281 O282 1.995 1_655 S
Fe281 O291 1.983 . S
Fe281 O295 2.003 . S
Fe281 O298 1.989 1_655 S
O282 Fe281 1.995 1_455 S
O282 C299 1.295 . S
O283 Fe278 1.989 1_455 S
O283 C299 1.235 . S
O284 Fe278 1.994 1_455 S
O284 C285 1.295 . S
C285 O284 1.295 . S
C285 O287 1.235 . S
C286 O291 1.287 . S
C286 O292 1.255 . S
O287 Fe279 1.989 1_455 S
O287 C285 1.235 . S
C288 O294 1.287 . S
C288 O295 1.255 . S
O289 Fe278 1.984 . S
O289 C296 1.287 . S
O290 Fe279 2.003 . S
O290 C296 1.255 . S
O291 Fe281 1.983 . S
O291 C286 1.287 . S
O292 Fe278 2.003 . S
O292 C286 1.255 . S
C293 O297 1.295 . S
C293 O298 1.235 . S
O294 Fe279 1.984 . S
O294 C288 1.287 . S
O295 Fe281 2.003 . S
O295 C288 1.255 . S
C296 O289 1.287 . S
C296 O290 1.255 . S
O297 Fe279 1.995 1_455 S
O297 C293 1.295 . S
O298 Fe281 1.989 1_455 S
O298 C293 1.235 . S
C299 O282 1.295 . S
C299 O283 1.235 . S
Fe300 O302 1.918 . S
Fe300 O305 1.997 . S
Fe300 O306 2.002 . S
Fe300 O311 1.976 . S
Fe300 O314 1.996 . S
Fe301 O302 1.918 . S
Fe301 O309 1.997 . S
Fe301 O312 1.996 . S
Fe301 O316 1.976 . S
Fe301 O319 2.002 . S
O302 Fe300 1.918 . S
O302 Fe301 1.918 . S
O302 Fe303 1.918 . S
Fe303 O302 1.918 . S
Fe303 O304 2.002 . S
Fe303 O313 1.976 . S
Fe303 O317 1.996 . S
Fe303 O320 1.997 . S
O304 Fe303 2.002 . S
O304 C321 1.295 . S
O305 Fe300 1.997 . S
O305 C321 1.235 . S
O306 Fe300 2.002 . S
O306 C307 1.295 . S
C307 O306 1.295 . S
C307 O309 1.235 . S
C308 O313 1.287 . S
C308 O314 1.255 . S
O309 Fe301 1.997 . S
O309 C307 1.235 . S
C310 O316 1.287 . S
C310 O317 1.255 . S
O311 Fe300 1.976 . S
O311 C318 1.287 . S
O312 Fe301 1.996 . S
O312 C318 1.255 . S
O313 Fe303 1.976 . S
O313 C308 1.287 . S
O314 Fe300 1.996 . S
O314 C308 1.255 . S
C315 O319 1.295 . S
C315 O320 1.235 . S
O316 Fe301 1.976 . S
O316 C310 1.287 . S
O317 Fe303 1.996 . S
O317 C310 1.255 . S
C318 O311 1.287 . S
C318 O312 1.255 . S
O319 Fe301 2.002 . S
O319 C315 1.295 . S
O320 Fe303 1.997 . S
O320 C315 1.235 . S
C321 O304 1.295 . S
C321 O305 1.235 . S
Fe322 O324 1.918 . S
Fe322 O327 1.997 . S
Fe322 O328 2.002 . S
Fe322 O333 1.976 . S
Fe322 O336 1.996 . S
Fe323 O324 1.918 . S
Fe323 O331 1.997 . S
Fe323 O334 1.996 . S
Fe323 O338 1.976 . S
Fe323 O341 2.002 . S
O324 Fe322 1.918 . S
O324 Fe323 1.918 . S
O324 Fe325 1.918 . S
Fe325 O324 1.918 . S
Fe325 O326 2.002 . S
Fe325 O335 1.976 . S
Fe325 O339 1.996 . S
Fe325 O342 1.997 . S
O326 Fe325 2.002 . S
O326 C343 1.295 . S
O327 Fe322 1.997 . S
O327 C343 1.235 . S
O328 Fe322 2.002 . S
O328 C329 1.295 . S
C329 O328 1.295 . S
C329 O331 1.235 . S
C330 O335 1.287 . S
C330 O336 1.255 . S
O331 Fe323 1.997 . S
O331 C329 1.235 . S
C332 O338 1.287 . S
C332 O339 1.255 . S
O333 Fe322 1.976 . S
O333 C340 1.287 . S
O334 Fe323 1.996 . S
O334 C340 1.255 . S
O335 Fe325 1.976 . S
O335 C330 1.287 . S
O336 Fe322 1.996 . S
O336 C330 1.255 . S
C337 O341 1.295 . S
C337 O342 1.235 . S
O338 Fe323 1.976 . S
O338 C332 1.287 . S
O339 Fe325 1.996 . S
O339 C332 1.255 . S
C340 O333 1.287 . S
C340 O334 1.255 . S
O341 Fe323 2.002 . S
O341 C337 1.295 . S
O342 Fe325 1.997 . S
O342 C337 1.235 . S
C343 O326 1.295 . S
C343 O327 1.235 . S
C344 C345 1.349 . S
C344 C346 1.327 . S
C344 H369 0.950 . S
C345 C344 1.349 . S
C345 C361 1.349 . S
C346 C344 1.327 . S
C346 C365 1.429 . S
C346 H370 0.950 . S
C347 C364 1.574 . S
C347 C366 1.368 . S
C347 H371 0.949 . S
H348 C352 0.949 . S
C349 C350 1.349 . S
C349 C351 1.327 . S
C349 H372 0.950 . S
C350 C349 1.349 . S
C350 C362 1.349 . S
C351 C349 1.327 . S
C351 C367 1.429 . S
C351 H373 0.950 . S
C352 H348 0.949 . S
C352 C360 1.574 . S
C352 C368 1.368 . S
H353 C361 0.950 . S
H354 C359 0.950 . S
H355 C360 0.949 . S
H356 C362 0.950 . S
H357 C363 0.950 . S
H358 C364 0.949 . S
C359 H354 0.950 . S
C359 C361 1.327 . S
C359 C365 1.429 . S
C360 C352 1.574 . S
C360 H355 0.949 . S
C360 C366 1.368 . S
C361 C345 1.349 . S
C361 H353 0.950 . S
C361 C359 1.327 . S
C362 C350 1.349 . S
C362 H356 0.950 . S
C362 C363 1.327 . S
C363 H357 0.950 . S
C363 C362 1.327 . S
C363 C367 1.429 . S
C364 C347 1.574 . S
C364 H358 0.949 . S
C364 C368 1.368 . S
C365 C346 1.429 . S
C365 C359 1.429 . S
C365 C366 1.523 . S
C366 C347 1.368 . S
C366 C360 1.368 . S
C366 C365 1.523 . S
C367 C351 1.429 . S
C367 C363 1.429 . S
C367 C368 1.523 . S
C368 C352 1.368 . S
C368 C364 1.368 . S
C368 C367 1.523 . S
H369 C344 0.950 . S
H370 C346 0.950 . S
H371 C347 0.949 . S
H372 C349 0.950 . S
H373 C351 0.950 . S
C374 C375 1.349 . S
C374 C376 1.327 . S
C374 H399 0.950 . S
C375 C374 1.349 . S
C375 C391 1.349 . S
C376 C374 1.327 . S
C376 C395 1.429 . S
C376 H400 0.950 . S
C377 C394 1.574 . S
C377 C396 1.368 . S
C377 H401 0.949 . S
H378 C382 0.949 . S
C379 C380 1.349 . S
C379 C381 1.327 . S
C379 H402 0.950 . S
C380 C379 1.349 . S
C380 C392 1.349 . S
C381 C379 1.327 . S
C381 C397 1.429 . S
C381 H403 0.950 . S
C382 H378 0.949 . S
C382 C390 1.574 . S
C382 C398 1.368 . S
H383 C391 0.950 . S
H384 C389 0.950 . S
H385 C390 0.949 . S
H386 C392 0.950 . S
H387 C393 0.950 . S
H388 C394 0.949 . S
C389 H384 0.950 . S
C389 C391 1.327 . S
C389 C395 1.429 . S
C390 C382 1.574 . S
C390 H385 0.949 . S
C390 C396 1.368 . S
C391 C375 1.349 . S
C391 H383 0.950 . S
C391 C389 1.327 . S
C392 C380 1.349 . S
C392 H386 0.950 . S
C392 C393 1.327 . S
C393 H387 0.950 . S
C393 C392 1.327 . S
C393 C397 1.429 . S
C394 C377 1.574 . S
C394 H388 0.949 . S
C394 C398 1.368 . S
C395 C376 1.429 . S
C395 C389 1.429 . S
C395 C396 1.523 . S
C396 C377 1.368 . S
C396 C390 1.368 . S
C396 C395 1.523 . S
C397 C381 1.429 . S
C397 C393 1.429 . S
C397 C398 1.523 . S
C398 C382 1.368 . S
C398 C394 1.368 . S
C398 C397 1.523 . S
H399 C374 0.950 . S
H400 C376 0.950 . S
H401 C377 0.949 . S
H402 C379 0.950 . S
H403 C381 0.950 . S
C404 C405 1.349 . S
C404 C406 1.327 . S
C404 H429 0.950 . S
C405 C404 1.349 . S
C405 C421 1.349 . S
C406 C404 1.327 . S
C406 C425 1.429 . S
C406 H430 0.950 . S
C407 C424 1.574 . S
C407 C426 1.368 . S
C407 H431 0.949 . S
H408 C412 0.949 . S
C409 C410 1.349 . S
C409 C411 1.327 . S
C409 H432 0.950 . S
C410 C409 1.349 . S
C410 C422 1.349 . S
C411 C409 1.327 . S
C411 C427 1.429 . S
C411 H433 0.950 . S
C412 H408 0.949 . S
C412 C420 1.574 . S
C412 C428 1.368 . S
H413 C421 0.950 . S
H414 C419 0.950 . S
H415 C420 0.949 . S
H416 C422 0.950 . S
H417 C423 0.950 . S
H418 C424 0.949 . S
C419 H414 0.950 . S
C419 C421 1.327 . S
C419 C425 1.429 . S
C420 C412 1.574 . S
C420 H415 0.949 . S
C420 C426 1.368 . S
C421 C405 1.349 . S
C421 H413 0.950 . S
C421 C419 1.327 . S
C422 C410 1.349 . S
C422 H416 0.950 . S
C422 C423 1.327 . S
C423 H417 0.950 . S
C423 C422 1.327 . S
C423 C427 1.429 . S
C424 C407 1.574 . S
C424 H418 0.949 . S
C424 C428 1.368 . S
C425 C406 1.429 . S
C425 C419 1.429 . S
C425 C426 1.523 . S
C426 C407 1.368 . S
C426 C420 1.368 . S
C426 C425 1.523 . S
C427 C411 1.429 . S
C427 C423 1.429 . S
C427 C428 1.523 . S
C428 C412 1.368 . S
C428 C424 1.368 . S
C428 C427 1.523 . S
H429 C404 0.950 . S
H430 C406 0.950 . S
H431 C407 0.949 . S
H432 C409 0.950 . S
H433 C411 0.950 . S
C434 C435 1.349 . S
C434 C436 1.327 . S
C434 H459 0.950 . S
C435 C434 1.349 . S
C435 C451 1.349 . S
C436 C434 1.327 . S
C436 C455 1.429 . S
C436 H460 0.950 . S
C437 C454 1.574 . S
C437 C456 1.368 . S
C437 H461 0.949 . S
H438 C442 0.949 . S
C439 C440 1.349 . S
C439 C441 1.327 . S
C439 H462 0.950 . S
C440 C439 1.349 . S
C440 C452 1.349 . S
C441 C439 1.327 . S
C441 C457 1.429 . S
C441 H463 0.950 . S
C442 H438 0.949 . S
C442 C450 1.574 . S
C442 C458 1.368 . S
H443 C451 0.950 . S
H444 C449 0.950 . S
H445 C450 0.949 . S
H446 C452 0.950 . S
H447 C453 0.950 . S
H448 C454 0.949 . S
C449 H444 0.950 . S
C449 C451 1.327 . S
C449 C455 1.429 . S
C450 C442 1.574 . S
C450 H445 0.949 . S
C450 C456 1.368 . S
C451 C435 1.349 . S
C451 H443 0.950 . S
C451 C449 1.327 . S
C452 C440 1.349 . S
C452 H446 0.950 . S
C452 C453 1.327 . S
C453 H447 0.950 . S
C453 C452 1.327 . S
C453 C457 1.429 . S
C454 C437 1.574 . S
C454 H448 0.949 . S
C454 C458 1.368 . S
C455 C436 1.429 . S
C455 C449 1.429 . S
C455 C456 1.523 . S
C456 C437 1.368 . S
C456 C450 1.368 . S
C456 C455 1.523 . S
C457 C441 1.429 . S
C457 C453 1.429 . S
C457 C458 1.523 . S
C458 C442 1.368 . S
C458 C454 1.368 . S
C458 C457 1.523 . S
H459 C434 0.950 . S
H460 C436 0.950 . S
H461 C437 0.949 . S
H462 C439 0.950 . S
H463 C441 0.950 . S
C464 C465 1.349 . S
C464 C466 1.327 . S
C464 H489 0.950 . S
C465 C464 1.349 . S
C465 C481 1.349 . S
C466 C464 1.327 . S
C466 C485 1.429 . S
C466 H490 0.950 . S
C467 C484 1.574 . S
C467 C486 1.368 . S
C467 H491 0.949 . S
H468 C472 0.949 . S
C469 C470 1.349 . S
C469 C471 1.327 . S
C469 H492 0.950 . S
C470 C469 1.349 . S
C470 C482 1.349 . S
C471 C469 1.327 . S
C471 C487 1.429 . S
C471 H493 0.950 . S
C472 H468 0.949 . S
C472 C480 1.574 . S
C472 C488 1.368 . S
H473 C481 0.950 . S
H474 C479 0.950 . S
H475 C480 0.949 . S
H476 C482 0.950 . S
H477 C483 0.950 . S
H478 C484 0.949 . S
C479 H474 0.950 . S
C479 C481 1.327 . S
C479 C485 1.429 . S
C480 C472 1.574 . S
C480 H475 0.949 . S
C480 C486 1.368 . S
C481 C465 1.349 . S
C481 H473 0.950 . S
C481 C479 1.327 . S
C482 C470 1.349 . S
C482 H476 0.950 . S
C482 C483 1.327 . S
C483 H477 0.950 . S
C483 C482 1.327 . S
C483 C487 1.429 . S
C484 C467 1.574 . S
C484 H478 0.949 . S
C484 C488 1.368 . S
C485 C466 1.429 . S
C485 C479 1.429 . S
C485 C486 1.523 . S
C486 C467 1.368 . S
C486 C480 1.368 . S
C486 C485 1.523 . S
C487 C471 1.429 . S
C487 C483 1.429 . S
C487 C488 1.523 . S
C488 C472 1.368 . S
C488 C484 1.368 . S
C488 C487 1.523 . S
H489 C464 0.950 . S
H490 C466 0.950 . S
H491 C467 0.949 . S
H492 C469 0.950 . S
H493 C471 0.950 . S
C494 C495 1.349 . S
C494 C496 1.327 . S
C494 H519 0.950 . S
C495 C494 1.349 . S
C495 C511 1.349 . S
C496 C494 1.327 . S
C496 C515 1.429 . S
C496 H520 0.950 . S
C497 C514 1.574 . S
C497 C516 1.368 . S
C497 H521 0.949 . S
H498 C502 0.949 . S
C499 C500 1.349 . S
C499 C501 1.327 . S
C499 H522 0.950 . S
C500 C499 1.349 . S
C500 C512 1.349 . S
C501 C499 1.327 . S
C501 C517 1.429 . S
C501 H523 0.950 . S
C502 H498 0.949 . S
C502 C510 1.574 . S
C502 C518 1.368 . S
H503 C511 0.950 . S
H504 C509 0.950 . S
H505 C510 0.949 . S
H506 C512 0.950 . S
H507 C513 0.950 . S
H508 C514 0.949 . S
C509 H504 0.950 . S
C509 C511 1.327 . S
C509 C515 1.429 . S
C510 C502 1.574 . S
C510 H505 0.949 . S
C510 C516 1.368 . S
C511 C495 1.349 . S
C511 H503 0.950 . S
C511 C509 1.327 . S
C512 C500 1.349 . S
C512 H506 0.950 . S
C512 C513 1.327 . S
C513 H507 0.950 . S
C513 C512 1.327 . S
C513 C517 1.429 . S
C514 C497 1.574 . S
C514 H508 0.949 . S
C514 C518 1.368 . S
C515 C496 1.429 . S
C515 C509 1.429 . S
C515 C516 1.523 . S
C516 C497 1.368 . S
C516 C510 1.368 . S
C516 C515 1.523 . S
C517 C501 1.429 . S
C517 C513 1.429 . S
C517 C518 1.523 . S
C518 C502 1.368 . S
C518 C514 1.368 . S
C518 C517 1.523 . S
H519 C494 0.950 . S
H520 C496 0.950 . S
H521 C497 0.949 . S
H522 C499 0.950 . S
H523 C501 0.950 . S
C524 C525 1.349 . S
C524 C526 1.327 . S
C524 H549 0.950 . S
C525 C524 1.349 . S
C525 C541 1.349 . S
C526 C524 1.327 . S
C526 C545 1.429 . S
C526 H550 0.950 . S
C527 C544 1.574 . S
C527 C546 1.368 . S
C527 H551 0.949 . S
H528 C532 0.949 . S
C529 C530 1.349 . S
C529 C531 1.327 . S
C529 H552 0.950 . S
C530 C529 1.349 . S
C530 C542 1.349 . S
C531 C529 1.327 . S
C531 C547 1.429 . S
C531 H553 0.950 . S
C532 H528 0.949 . S
C532 C540 1.574 . S
C532 C548 1.368 . S
H533 C541 0.950 . S
H534 C539 0.950 . S
H535 C540 0.949 . S
H536 C542 0.950 . S
H537 C543 0.950 . S
H538 C544 0.949 . S
C539 H534 0.950 . S
C539 C541 1.327 . S
C539 C545 1.429 . S
C540 C532 1.574 . S
C540 H535 0.949 . S
C540 C546 1.368 . S
C541 C525 1.349 . S
C541 H533 0.950 . S
C541 C539 1.327 . S
C542 C530 1.349 . S
C542 H536 0.950 . S
C542 C543 1.327 . S
C543 H537 0.950 . S
C543 C542 1.327 . S
C543 C547 1.429 . S
C544 C527 1.574 . S
C544 H538 0.949 . S
C544 C548 1.368 . S
C545 C526 1.429 . S
C545 C539 1.429 . S
C545 C546 1.523 . S
C546 C527 1.368 . S
C546 C540 1.368 . S
C546 C545 1.523 . S
C547 C531 1.429 . S
C547 C543 1.429 . S
C547 C548 1.523 . S
C548 C532 1.368 . S
C548 C544 1.368 . S
C548 C547 1.523 . S
H549 C524 0.950 . S
H550 C526 0.950 . S
H551 C527 0.949 . S
H552 C529 0.950 . S
H553 C531 0.950 . S
C554 C555 1.349 . S
C554 C556 1.327 . S
C554 H579 0.950 . S
C555 C554 1.349 . S
C555 C571 1.349 . S
C556 C554 1.327 . S
C556 C575 1.429 . S
C556 H580 0.950 . S
C557 C574 1.574 . S
C557 C576 1.368 . S
C557 H581 0.949 . S
H558 C562 0.949 . S
C559 C560 1.349 . S
C559 C561 1.327 . S
C559 H582 0.950 . S
C560 C559 1.349 . S
C560 C572 1.349 . S
C561 C559 1.327 . S
C561 C577 1.429 . S
C561 H583 0.950 . S
C562 H558 0.949 . S
C562 C570 1.574 . S
C562 C578 1.368 . S
H563 C571 0.950 . S
H564 C569 0.950 . S
H565 C570 0.949 . S
H566 C572 0.950 . S
H567 C573 0.950 . S
H568 C574 0.949 . S
C569 H564 0.950 . S
C569 C571 1.327 . S
C569 C575 1.429 . S
C570 C562 1.574 . S
C570 H565 0.949 . S
C570 C576 1.368 . S
C571 C555 1.349 . S
C571 H563 0.950 . S
C571 C569 1.327 . S
C572 C560 1.349 . S
C572 H566 0.950 . S
C572 C573 1.327 . S
C573 H567 0.950 . S
C573 C572 1.327 . S
C573 C577 1.429 . S
C574 C557 1.574 . S
C574 H568 0.949 . S
C574 C578 1.368 . S
C575 C556 1.429 . S
C575 C569 1.429 . S
C575 C576 1.523 . S
C576 C557 1.368 . S
C576 C570 1.368 . S
C576 C575 1.523 . S
C577 C561 1.429 . S
C577 C573 1.429 . S
C577 C578 1.523 . S
C578 C562 1.368 . S
C578 C574 1.368 . S
C578 C577 1.523 . S
H579 C554 0.950 . S
H580 C556 0.950 . S
H581 C557 0.949 . S
H582 C559 0.950 . S
H583 C561 0.950 . S
C584 C585 1.349 . S
C584 C586 1.327 . S
C584 H609 0.950 . S
C585 C584 1.349 . S
C585 C601 1.349 . S
C586 C584 1.327 . S
C586 C605 1.429 . S
C586 H610 0.950 . S
C587 C604 1.574 . S
C587 C606 1.368 . S
C587 H611 0.949 . S
H588 C592 0.949 . S
C589 C590 1.349 . S
C589 C591 1.327 . S
C589 H612 0.950 . S
C590 C589 1.349 . S
C590 C602 1.349 . S
C591 C589 1.327 . S
C591 C607 1.429 . S
C591 H613 0.950 . S
C592 H588 0.949 . S
C592 C600 1.574 . S
C592 C608 1.368 . S
H593 C601 0.950 . S
H594 C599 0.950 . S
H595 C600 0.949 . S
H596 C602 0.950 . S
H597 C603 0.950 . S
H598 C604 0.949 . S
C599 H594 0.950 . S
C599 C601 1.327 . S
C599 C605 1.429 . S
C600 C592 1.574 . S
C600 H595 0.949 . S
C600 C606 1.368 . S
C601 C585 1.349 . S
C601 H593 0.950 . S
C601 C599 1.327 . S
C602 C590 1.349 . S
C602 H596 0.950 . S
C602 C603 1.327 . S
C603 H597 0.950 . S
C603 C602 1.327 . S
C603 C607 1.429 . S
C604 C587 1.574 . S
C604 H598 0.949 . S
C604 C608 1.368 . S
C605 C586 1.429 . S
C605 C599 1.429 . S
C605 C606 1.523 . S
C606 C587 1.368 . S
C606 C600 1.368 . S
C606 C605 1.523 . S
C607 C591 1.429 . S
C607 C603 1.429 . S
C607 C608 1.523 . S
C608 C592 1.368 . S
C608 C604 1.368 . S
C608 C607 1.523 . S
H609 C584 0.950 . S
H610 C586 0.950 . S
H611 C587 0.949 . S
H612 C589 0.950 . S
H613 C591 0.950 . S
C614 C615 1.349 . S
C614 C616 1.327 . S
C614 H639 0.950 . S
C615 C614 1.349 . S
C615 C631 1.349 . S
C616 C614 1.327 . S
C616 C635 1.429 . S
C616 H640 0.950 . S
C617 C634 1.574 . S
C617 C636 1.368 . S
C617 H641 0.949 . S
H618 C622 0.949 . S
C619 C620 1.349 . S
C619 C621 1.327 . S
C619 H642 0.950 . S
C620 C619 1.349 . S
C620 C632 1.349 . S
C621 C619 1.327 . S
C621 C637 1.429 . S
C621 H643 0.950 . S
C622 H618 0.949 . S
C622 C630 1.574 . S
C622 C638 1.368 . S
H623 C631 0.950 . S
H624 C629 0.950 . S
H625 C630 0.949 . S
H626 C632 0.950 . S
H627 C633 0.950 . S
H628 C634 0.949 . S
C629 H624 0.950 . S
C629 C631 1.327 . S
C629 C635 1.429 . S
C630 C622 1.574 . S
C630 H625 0.949 . S
C630 C636 1.368 . S
C631 C615 1.349 . S
C631 H623 0.950 . S
C631 C629 1.327 . S
C632 C620 1.349 . S
C632 H626 0.950 . S
C632 C633 1.327 . S
C633 H627 0.950 . S
C633 C632 1.327 . S
C633 C637 1.429 . S
C634 C617 1.574 . S
C634 H628 0.949 . S
C634 C638 1.368 . S
C635 C616 1.429 . S
C635 C629 1.429 . S
C635 C636 1.523 . S
C636 C617 1.368 . S
C636 C630 1.368 . S
C636 C635 1.523 . S
C637 C621 1.429 . S
C637 C633 1.429 . S
C637 C638 1.523 . S
C638 C622 1.368 . S
C638 C634 1.368 . S
C638 C637 1.523 . S
H639 C614 0.950 . S
H640 C616 0.950 . S
H641 C617 0.949 . S
H642 C619 0.950 . S
H643 C621 0.950 . S
C644 C645 1.349 . S
C644 C646 1.327 . S
C644 H669 0.950 . S
C645 C644 1.349 . S
C645 C661 1.349 . S
C646 C644 1.327 . S
C646 C665 1.429 . S
C646 H670 0.950 . S
C647 C664 1.574 . S
C647 C666 1.368 . S
C647 H671 0.949 . S
H648 C652 0.949 . S
C649 C650 1.349 . S
C649 C651 1.327 . S
C649 H672 0.950 . S
C650 C649 1.349 . S
C650 C662 1.349 . S
C651 C649 1.327 . S
C651 C667 1.429 . S
C651 H673 0.950 . S
C652 H648 0.949 . S
C652 C660 1.574 . S
C652 C668 1.368 . S
H653 C661 0.950 . S
H654 C659 0.950 . S
H655 C660 0.949 . S
H656 C662 0.950 . S
H657 C663 0.950 . S
H658 C664 0.949 . S
C659 H654 0.950 . S
C659 C661 1.327 . S
C659 C665 1.429 . S
C660 C652 1.574 . S
C660 H655 0.949 . S
C660 C666 1.368 . S
C661 C645 1.349 . S
C661 H653 0.950 . S
C661 C659 1.327 . S
C662 C650 1.349 . S
C662 H656 0.950 . S
C662 C663 1.327 . S
C663 H657 0.950 . S
C663 C662 1.327 . S
C663 C667 1.429 . S
C664 C647 1.574 . S
C664 H658 0.949 . S
C664 C668 1.368 . S
C665 C646 1.429 . S
C665 C659 1.429 . S
C665 C666 1.523 . S
C666 C647 1.368 . S
C666 C660 1.368 . S
C666 C665 1.523 . S
C667 C651 1.429 . S
C667 C663 1.429 . S
C667 C668 1.523 . S
C668 C652 1.368 . S
C668 C664 1.368 . S
C668 C667 1.523 . S
H669 C644 0.950 . S
H670 C646 0.950 . S
H671 C647 0.949 . S
H672 C649 0.950 . S
H673 C651 0.950 . S
C674 C675 1.349 . S
C674 C676 1.327 . S
C674 H699 0.950 . S
C675 C674 1.349 . S
C675 C691 1.349 . S
C676 C674 1.327 . S
C676 C695 1.429 . S
C676 H700 0.950 . S
C677 C694 1.574 . S
C677 C696 1.368 . S
C677 H701 0.949 . S
H678 C682 0.949 . S
C679 C680 1.349 . S
C679 C681 1.327 . S
C679 H702 0.950 . S
C680 C679 1.349 . S
C680 C692 1.349 . S
C681 C679 1.327 . S
C681 C697 1.429 . S
C681 H703 0.950 . S
C682 H678 0.949 . S
C682 C690 1.574 . S
C682 C698 1.368 . S
H683 C691 0.950 . S
H684 C689 0.950 . S
H685 C690 0.949 . S
H686 C692 0.950 . S
H687 C693 0.950 . S
H688 C694 0.949 . S
C689 H684 0.950 . S
C689 C691 1.327 . S
C689 C695 1.429 . S
C690 C682 1.574 . S
C690 H685 0.949 . S
C690 C696 1.368 . S
C691 C675 1.349 . S
C691 H683 0.950 . S
C691 C689 1.327 . S
C692 C680 1.349 . S
C692 H686 0.950 . S
C692 C693 1.327 . S
C693 H687 0.950 . S
C693 C692 1.327 . S
C693 C697 1.429 . S
C694 C677 1.574 . S
C694 H688 0.949 . S
C694 C698 1.368 . S
C695 C676 1.429 . S
C695 C689 1.429 . S
C695 C696 1.523 . S
C696 C677 1.368 . S
C696 C690 1.368 . S
C696 C695 1.523 . S
C697 C681 1.429 . S
C697 C693 1.429 . S
C697 C698 1.523 . S
C698 C682 1.368 . S
C698 C694 1.368 . S
C698 C697 1.523 . S
H699 C674 0.950 . S
H700 C676 0.950 . S
H701 C677 0.949 . S
H702 C679 0.950 . S
H703 C681 0.950 . S
C704 C705 1.349 . S
C704 C706 1.327 . S
C704 H729 0.950 . S
C705 C704 1.349 . S
C705 C721 1.349 . S
C706 C704 1.327 . S
C706 C725 1.429 1_565 S
C706 H730 0.950 1_565 S
C707 C724 1.574 . S
C707 C726 1.368 . S
C707 H731 0.949 . S
H708 C712 0.949 . S
C709 C710 1.349 . S
C709 C711 1.327 . S
C709 H732 0.950 . S
C710 C709 1.349 . S
C710 C722 1.349 . S
C711 C709 1.327 . S
C711 C727 1.429 . S
C711 H733 0.950 . S
C712 H708 0.949 . S
C712 C720 1.574 . S
C712 C728 1.368 . S
H713 C721 0.950 . S
H714 C719 0.950 . S
H715 C720 0.949 . S
H716 C722 0.950 . S
H717 C723 0.950 . S
H718 C724 0.949 . S
C719 H714 0.950 . S
C719 C721 1.327 . S
C719 C725 1.429 1_565 S
C720 C712 1.574 . S
C720 H715 0.949 . S
C720 C726 1.368 . S
C721 C705 1.349 . S
C721 H713 0.950 . S
C721 C719 1.327 . S
C722 C710 1.349 . S
C722 H716 0.950 . S
C722 C723 1.327 . S
C723 H717 0.950 . S
C723 C722 1.327 . S
C723 C727 1.429 . S
C724 C707 1.574 . S
C724 H718 0.949 . S
C724 C728 1.368 . S
C725 C706 1.429 1_545 S
C725 C719 1.429 1_545 S
C725 C726 1.523 . S
C726 C707 1.368 . S
C726 C720 1.368 . S
C726 C725 1.523 . S
C727 C711 1.429 . S
C727 C723 1.429 . S
C727 C728 1.523 . S
C728 C712 1.368 . S
C728 C724 1.368 . S
C728 C727 1.523 . S
H729 C704 0.950 . S
H730 C706 0.950 1_545 S
H731 C707 0.949 . S
H732 C709 0.950 . S
H733 C711 0.950 . S
C734 C735 1.349 . S
C734 C736 1.330 . S
C734 H759 0.950 . S
C735 C734 1.349 . S
C735 C751 1.349 . S
C736 C734 1.330 . S
C736 C755 1.428 1_545 S
C736 H760 0.947 1_545 S
C737 C754 1.574 . S
C737 C756 1.368 . S
C737 H761 0.949 . S
H738 C742 0.949 . S
C739 C740 1.349 . S
C739 C741 1.327 . S
C739 H762 0.950 . S
C740 C739 1.349 . S
C740 C752 1.349 . S
C741 C739 1.327 . S
C741 C757 1.429 . S
C741 H763 0.950 . S
C742 H738 0.949 . S
C742 C750 1.574 . S
C742 C758 1.368 . S
H743 C751 0.950 . S
H744 C749 0.950 . S
H745 C750 0.949 . S
H746 C752 0.950 . S
H747 C753 0.950 . S
H748 C754 0.949 . S
C749 H744 0.950 . S
C749 C751 1.327 . S
C749 C755 1.429 1_545 S
C750 C742 1.574 . S
C750 H745 0.949 . S
C750 C756 1.368 . S
C751 C735 1.349 . S
C751 H743 0.950 . S
C751 C749 1.327 . S
C752 C740 1.349 . S
C752 H746 0.950 . S
C752 C753 1.327 . S
C753 H747 0.950 . S
C753 C752 1.327 . S
C753 C757 1.429 . S
C754 C737 1.574 . S
C754 H748 0.949 . S
C754 C758 1.368 . S
C755 C736 1.428 1_565 S
C755 C749 1.429 1_565 S
C755 C756 1.523 . S
C756 C737 1.368 . S
C756 C750 1.368 . S
C756 C755 1.523 . S
C757 C741 1.429 . S
C757 C753 1.429 . S
C757 C758 1.523 . S
C758 C742 1.368 . S
C758 C754 1.368 . S
C758 C757 1.523 . S
H759 C734 0.950 . S
H760 C736 0.947 1_565 S
H761 C737 0.949 . S
H762 C739 0.950 . S
H763 C741 0.950 . S
C764 C765 1.349 . S
C764 C766 1.327 1_565 S
C764 H789 0.940 1_565 S
C765 C764 1.349 . S
C765 C781 1.349 . S
C766 C764 1.327 1_545 S
C766 C785 1.429 . S
C766 H790 0.950 . S
C767 C784 1.574 . S
C767 C786 1.368 . S
C767 H791 0.949 1_545 S
H768 C772 0.949 . S
C769 C770 1.349 . S
C769 C771 1.327 . S
C769 H792 0.950 . S
C770 C769 1.349 . S
C770 C782 1.349 . S
C771 C769 1.327 . S
C771 C787 1.429 . S
C771 H793 0.950 . S
C772 H768 0.949 . S
C772 C780 1.574 . S
C772 C788 1.368 . S
H773 C781 0.950 . S
H774 C779 0.950 . S
H775 C780 0.949 . S
H776 C782 0.950 . S
H777 C783 0.950 . S
H778 C784 0.949 . S
C779 H774 0.950 . S
C779 C781 1.327 . S
C779 C785 1.429 1_565 S
C780 C772 1.574 . S
C780 H775 0.949 . S
C780 C786 1.368 . S
C781 C765 1.349 . S
C781 H773 0.950 . S
C781 C779 1.327 . S
C782 C770 1.349 . S
C782 H776 0.950 . S
C782 C783 1.327 . S
C783 H777 0.950 . S
C783 C782 1.327 . S
C783 C787 1.429 . S
C784 C767 1.574 . S
C784 H778 0.949 . S
C784 C788 1.368 . S
C785 C766 1.429 . S
C785 C779 1.429 1_545 S
C785 C786 1.523 . S
C786 C767 1.368 . S
C786 C780 1.368 . S
C786 C785 1.523 . S
C787 C771 1.429 . S
C787 C783 1.429 . S
C787 C788 1.523 . S
C788 C772 1.368 . S
C788 C784 1.368 . S
C788 C787 1.523 . S
H789 C764 0.940 1_545 S
H790 C766 0.950 . S
H791 C767 0.949 1_565 S
H792 C769 0.950 . S
H793 C771 0.950 . S
C794 C795 1.349 . S
C794 C796 1.327 . S
C794 H819 0.950 . S
C795 C794 1.349 . S
C795 C811 1.349 . S
C796 C794 1.327 . S
C796 C815 1.429 1_545 S
C796 H820 0.950 . S
C797 C814 1.574 . S
C797 C816 1.368 . S
C797 H821 0.949 . S
H798 C802 0.949 . S
C799 C800 1.349 . S
C799 C801 1.327 . S
C799 H822 0.950 . S
C800 C799 1.349 . S
C800 C812 1.349 . S
C801 C799 1.327 . S
C801 C817 1.429 . S
C801 H823 0.950 . S
C802 H798 0.949 . S
C802 C810 1.574 . S
C802 C818 1.368 . S
H803 C811 0.950 1_565 S
H804 C809 0.950 . S
H805 C810 0.949 1_545 S
H806 C812 0.950 . S
H807 C813 0.950 . S
H808 C814 0.949 . S
C809 H804 0.950 . S
C809 C811 1.327 1_565 S
C809 C815 1.429 . S
C810 C802 1.574 . S
C810 H805 0.949 1_565 S
C810 C816 1.368 . S
C811 C795 1.349 . S
C811 H803 0.950 1_545 S
C811 C809 1.327 1_545 S
C812 C800 1.349 . S
C812 H806 0.950 . S
C812 C813 1.327 . S
C813 H807 0.950 . S
C813 C812 1.327 . S
C813 C817 1.429 . S
C814 C797 1.574 . S
C814 H808 0.949 . S
C814 C818 1.368 . S
C815 C796 1.429 1_565 S
C815 C809 1.429 . S
C815 C816 1.523 . S
C816 C797 1.368 . S
C816 C810 1.368 . S
C816 C815 1.523 . S
C817 C801 1.429 . S
C817 C813 1.429 . S
C817 C818 1.523 . S
C818 C802 1.368 . S
C818 C814 1.368 . S
C818 C817 1.523 . S
H819 C794 0.950 . S
H820 C796 0.950 . S
H821 C797 0.949 . S
H822 C799 0.950 . S
H823 C801 0.950 . S
C824 C825 1.349 . S
C824 C826 1.327 . S
C824 H849 0.950 . S
C825 C824 1.349 . S
C825 C841 1.349 . S
C826 C824 1.327 . S
C826 C845 1.429 . S
C826 H850 0.950 . S
C827 C844 1.574 . S
C827 C846 1.368 . S
C827 H851 0.949 . S
H828 C832 0.949 . S
C829 C830 1.349 . S
C829 C831 1.327 . S
C829 H852 0.950 . S
C830 C829 1.349 . S
C830 C842 1.349 . S
C831 C829 1.327 . S
C831 C847 1.429 . S
C831 H853 0.950 . S
C832 H828 0.949 . S
C832 C840 1.574 . S
C832 C848 1.368 . S
H833 C841 0.950 . S
H834 C839 0.950 . S
H835 C840 0.949 . S
H836 C842 0.950 . S
H837 C843 0.950 . S
H838 C844 0.949 . S
C839 H834 0.950 . S
C839 C841 1.327 . S
C839 C845 1.429 . S
C840 C832 1.574 . S
C840 H835 0.949 . S
C840 C846 1.368 . S
C841 C825 1.349 . S
C841 H833 0.950 . S
C841 C839 1.327 . S
C842 C830 1.349 . S
C842 H836 0.950 . S
C842 C843 1.327 . S
C843 H837 0.950 . S
C843 C842 1.327 . S
C843 C847 1.429 . S
C844 C827 1.574 . S
C844 H838 0.949 . S
C844 C848 1.368 . S
C845 C826 1.429 . S
C845 C839 1.429 . S
C845 C846 1.523 . S
C846 C827 1.368 . S
C846 C840 1.368 . S
C846 C845 1.523 . S
C847 C831 1.429 . S
C847 C843 1.429 . S
C847 C848 1.523 . S
C848 C832 1.368 . S
C848 C844 1.368 . S
C848 C847 1.523 . S
H849 C824 0.950 . S
H850 C826 0.950 . S
H851 C827 0.949 . S
H852 C829 0.950 . S
H853 C831 0.950 . S
C854 C855 1.349 . S
C854 C856 1.327 . S
C854 H879 0.950 . S
C855 C854 1.349 . S
C855 C871 1.349 . S
C856 C854 1.327 . S
C856 C875 1.429 . S
C856 H880 0.950 . S
C857 C874 1.574 . S
C857 C876 1.368 . S
C857 H881 0.949 . S
H858 C862 0.949 . S
C859 C860 1.349 . S
C859 C861 1.327 . S
C859 H882 0.950 . S
C860 C859 1.349 . S
C860 C872 1.349 . S
C861 C859 1.327 . S
C861 C877 1.429 . S
C861 H883 0.950 . S
C862 H858 0.949 . S
C862 C870 1.574 . S
C862 C878 1.368 . S
H863 C871 0.950 . S
H864 C869 0.950 . S
H865 C870 0.949 . S
H866 C872 0.950 . S
H867 C873 0.950 . S
H868 C874 0.949 . S
C869 H864 0.950 . S
C869 C871 1.327 . S
C869 C875 1.429 . S
C870 C862 1.574 . S
C870 H865 0.949 . S
C870 C876 1.368 . S
C871 C855 1.349 . S
C871 H863 0.950 . S
C871 C869 1.327 . S
C872 C860 1.349 . S
C872 H866 0.950 . S
C872 C873 1.327 . S
C873 H867 0.950 . S
C873 C872 1.327 . S
C873 C877 1.429 . S
C874 C857 1.574 . S
C874 H868 0.949 . S
C874 C878 1.368 . S
C875 C856 1.429 . S
C875 C869 1.429 . S
C875 C876 1.523 . S
C876 C857 1.368 . S
C876 C870 1.368 . S
C876 C875 1.523 . S
C877 C861 1.429 . S
C877 C873 1.429 . S
C877 C878 1.523 . S
C878 C862 1.368 . S
C878 C874 1.368 . S
C878 C877 1.523 . S
H879 C854 0.950 . S
H880 C856 0.950 . S
H881 C857 0.949 . S
H882 C859 0.950 . S
H883 C861 0.950 . S
C884 C885 1.349 . S
C884 C886 1.327 . S
C884 H909 0.950 . S
C885 C884 1.349 . S
C885 C901 1.349 . S
C886 C884 1.327 . S
C886 C905 1.429 . S
C886 H910 0.950 . S
C887 C904 1.574 . S
C887 C906 1.368 . S
C887 H911 0.949 . S
H888 C892 0.949 . S
C889 C890 1.349 . S
C889 C891 1.327 . S
C889 H912 0.950 . S
C890 C889 1.349 . S
C890 C902 1.349 . S
C891 C889 1.327 . S
C891 C907 1.429 . S
C891 H913 0.950 . S
C892 H888 0.949 . S
C892 C900 1.574 . S
C892 C908 1.368 . S
H893 C901 0.950 . S
H894 C899 0.950 . S
H895 C900 0.949 . S
H896 C902 0.950 . S
H897 C903 0.950 . S
H898 C904 0.949 . S
C899 H894 0.950 . S
C899 C901 1.327 . S
C899 C905 1.429 . S
C900 C892 1.574 . S
C900 H895 0.949 . S
C900 C906 1.368 . S
C901 C885 1.349 . S
C901 H893 0.950 . S
C901 C899 1.327 . S
C902 C890 1.349 . S
C902 H896 0.950 . S
C902 C903 1.327 . S
C903 H897 0.950 . S
C903 C902 1.327 . S
C903 C907 1.429 . S
C904 C887 1.574 . S
C904 H898 0.949 . S
C904 C908 1.368 . S
C905 C886 1.429 . S
C905 C899 1.429 . S
C905 C906 1.523 . S
C906 C887 1.368 . S
C906 C900 1.368 . S
C906 C905 1.523 . S
C907 C891 1.429 . S
C907 C903 1.429 . S
C907 C908 1.523 . S
C908 C892 1.368 . S
C908 C904 1.368 . S
C908 C907 1.523 . S
H909 C884 0.950 . S
H910 C886 0.950 . S
H911 C887 0.949 . S
H912 C889 0.950 . S
H913 C891 0.950 . S
C914 C915 1.349 . S
C914 C916 1.327 . S
C914 H939 0.950 . S
C915 C914 1.349 . S
C915 C931 1.349 . S
C916 C914 1.327 . S
C916 C935 1.429 . S
C916 H940 0.950 . S
C917 C934 1.574 . S
C917 C936 1.368 . S
C917 H941 0.949 . S
H918 C922 0.949 . S
C919 C920 1.349 . S
C919 C921 1.327 . S
C919 H942 0.950 . S
C920 C919 1.349 . S
C920 C932 1.349 . S
C921 C919 1.327 . S
C921 C937 1.429 . S
C921 H943 0.950 . S
C922 H918 0.949 . S
C922 C930 1.574 . S
C922 C938 1.368 . S
H923 C931 0.950 . S
H924 C929 0.950 . S
H925 C930 0.949 . S
H926 C932 0.950 . S
H927 C933 0.950 . S
H928 C934 0.949 . S
C929 H924 0.950 . S
C929 C931 1.327 . S
C929 C935 1.429 . S
C930 C922 1.574 . S
C930 H925 0.949 . S
C930 C936 1.368 . S
C931 C915 1.349 . S
C931 H923 0.950 . S
C931 C929 1.327 . S
C932 C920 1.349 . S
C932 H926 0.950 . S
C932 C933 1.327 . S
C933 H927 0.950 . S
C933 C932 1.327 . S
C933 C937 1.429 . S
C934 C917 1.574 . S
C934 H928 0.949 . S
C934 C938 1.368 . S
C935 C916 1.429 . S
C935 C929 1.429 . S
C935 C936 1.523 . S
C936 C917 1.368 . S
C936 C930 1.368 . S
C936 C935 1.523 . S
C937 C921 1.429 . S
C937 C933 1.429 . S
C937 C938 1.523 . S
C938 C922 1.368 . S
C938 C934 1.368 . S
C938 C937 1.523 . S
H939 C914 0.950 . S
H940 C916 0.950 . S
H941 C917 0.949 . S
H942 C919 0.950 . S
H943 C921 0.950 . S
C944 C945 1.349 . S
C944 C946 1.327 . S
C944 H969 0.950 . S
C945 C944 1.349 . S
C945 C961 1.349 . S
C946 C944 1.327 . S
C946 C965 1.429 . S
C946 H970 0.950 . S
C947 C964 1.574 . S
C947 C966 1.368 . S
C947 H971 0.949 . S
H948 C952 0.949 . S
C949 C950 1.349 . S
C949 C951 1.327 . S
C949 H972 0.950 . S
C950 C949 1.349 . S
C950 C962 1.349 . S
C951 C949 1.327 . S
C951 C967 1.429 . S
C951 H973 0.950 . S
C952 H948 0.949 . S
C952 C960 1.574 . S
C952 C968 1.368 . S
H953 C961 0.950 . S
H954 C959 0.950 . S
H955 C960 0.949 . S
H956 C962 0.950 . S
H957 C963 0.950 . S
H958 C964 0.949 . S
C959 H954 0.950 . S
C959 C961 1.327 . S
C959 C965 1.429 . S
C960 C952 1.574 . S
C960 H955 0.949 . S
C960 C966 1.368 . S
C961 C945 1.349 . S
C961 H953 0.950 . S
C961 C959 1.327 . S
C962 C950 1.349 . S
C962 H956 0.950 . S
C962 C963 1.327 . S
C963 H957 0.950 . S
C963 C962 1.327 . S
C963 C967 1.429 . S
C964 C947 1.574 . S
C964 H958 0.949 . S
C964 C968 1.368 . S
C965 C946 1.429 . S
C965 C959 1.429 . S
C965 C966 1.523 . S
C966 C947 1.368 . S
C966 C960 1.368 . S
C966 C965 1.523 . S
C967 C951 1.429 . S
C967 C963 1.429 . S
C967 C968 1.523 . S
C968 C952 1.368 . S
C968 C964 1.368 . S
C968 C967 1.523 . S
H969 C944 0.950 . S
H970 C946 0.950 . S
H971 C947 0.949 . S
H972 C949 0.950 . S
H973 C951 0.950 . S
C974 C975 1.349 . S
C974 C976 1.327 . S
C974 H999 0.950 . S
C975 C974 1.349 . S
C975 C991 1.349 . S
C976 C974 1.327 . S
C976 C995 1.429 . S
C976 H1000 0.950 . S
C977 C994 1.574 . S
C977 C996 1.368 . S
C977 H1001 0.949 . S
H978 C982 0.949 . S
C979 C980 1.349 . S
C979 C981 1.327 . S
C979 H1002 0.950 . S
C980 C979 1.349 . S
C980 C992 1.349 . S
C981 C979 1.327 . S
C981 C997 1.429 . S
C981 H1003 0.950 . S
C982 H978 0.949 . S
C982 C990 1.574 . S
C982 C998 1.368 . S
H983 C991 0.950 . S
H984 C989 0.950 . S
H985 C990 0.949 . S
H986 C992 0.950 . S
H987 C993 0.950 . S
H988 C994 0.949 . S
C989 H984 0.950 . S
C989 C991 1.327 . S
C989 C995 1.429 . S
C990 C982 1.574 . S
C990 H985 0.949 . S
C990 C996 1.368 . S
C991 C975 1.349 . S
C991 H983 0.950 . S
C991 C989 1.327 . S
C992 C980 1.349 . S
C992 H986 0.950 . S
C992 C993 1.327 . S
C993 H987 0.950 . S
C993 C992 1.327 . S
C993 C997 1.429 . S
C994 C977 1.574 . S
C994 H988 0.949 . S
C994 C998 1.368 . S
C995 C976 1.429 . S
C995 C989 1.429 . S
C995 C996 1.523 . S
C996 C977 1.368 . S
C996 C990 1.368 . S
C996 C995 1.523 . S
C997 C981 1.429 . S
C997 C993 1.429 . S
C997 C998 1.523 . S
C998 C982 1.368 . S
C998 C994 1.368 . S
C998 C997 1.523 . S
H999 C974 0.950 . S
H1000 C976 0.950 . S
H1001 C977 0.949 . S
H1002 C979 0.950 . S
H1003 C981 0.950 . S
C1004 C1005 1.349 . S
C1004 C1006 1.327 . S
C1004 H1029 0.950 . S
C1005 C1004 1.349 . S
C1005 C1021 1.349 . S
C1006 C1004 1.327 . S
C1006 C1025 1.429 . S
C1006 H1030 0.950 . S
C1007 C1024 1.574 . S
C1007 C1026 1.368 . S
C1007 H1031 0.949 . S
H1008 C1012 0.949 . S
C1009 C1010 1.349 . S
C1009 C1011 1.327 . S
C1009 H1032 0.950 . S
C1010 C1009 1.349 . S
C1010 C1022 1.349 . S
C1011 C1009 1.327 . S
C1011 C1027 1.429 . S
C1011 H1033 0.950 . S
C1012 H1008 0.949 . S
C1012 C1020 1.574 . S
C1012 C1028 1.368 . S
H1013 C1021 0.950 . S
H1014 C1019 0.950 . S
H1015 C1020 0.949 . S
H1016 C1022 0.950 . S
H1017 C1023 0.950 . S
H1018 C1024 0.949 . S
C1019 H1014 0.950 . S
C1019 C1021 1.327 . S
C1019 C1025 1.429 . S
C1020 C1012 1.574 . S
C1020 H1015 0.949 . S
C1020 C1026 1.368 . S
C1021 C1005 1.349 . S
C1021 H1013 0.950 . S
C1021 C1019 1.327 . S
C1022 C1010 1.349 . S
C1022 H1016 0.950 . S
C1022 C1023 1.327 . S
C1023 H1017 0.950 . S
C1023 C1022 1.327 . S
C1023 C1027 1.429 . S
C1024 C1007 1.574 . S
C1024 H1018 0.949 . S
C1024 C1028 1.368 . S
C1025 C1006 1.429 . S
C1025 C1019 1.429 . S
C1025 C1026 1.523 . S
C1026 C1007 1.368 . S
C1026 C1020 1.368 . S
C1026 C1025 1.523 . S
C1027 C1011 1.429 . S
C1027 C1023 1.429 . S
C1027 C1028 1.523 . S
C1028 C1012 1.368 . S
C1028 C1024 1.368 . S
C1028 C1027 1.523 . S
H1029 C1004 0.950 . S
H1030 C1006 0.950 . S
H1031 C1007 0.949 . S
H1032 C1009 0.950 . S
H1033 C1011 0.950 . S
C1034 C1035 1.349 . S
C1034 C1036 1.327 . S
C1034 H1059 0.950 . S
C1035 C1034 1.349 . S
C1035 C1051 1.349 . S
C1036 C1034 1.327 . S
C1036 C1055 1.429 . S
C1036 H1060 0.950 . S
C1037 C1054 1.574 . S
C1037 C1056 1.368 . S
C1037 H1061 0.949 . S
H1038 C1042 0.949 . S
C1039 C1040 1.349 . S
C1039 C1041 1.327 . S
C1039 H1062 0.950 . S
C1040 C1039 1.349 . S
C1040 C1052 1.349 . S
C1041 C1039 1.327 . S
C1041 C1057 1.429 . S
C1041 H1063 0.950 . S
C1042 H1038 0.949 . S
C1042 C1050 1.574 . S
C1042 C1058 1.368 . S
H1043 C1051 0.950 . S
H1044 C1049 0.950 . S
H1045 C1050 0.949 . S
H1046 C1052 0.950 . S
H1047 C1053 0.950 . S
H1048 C1054 0.949 . S
C1049 H1044 0.950 . S
C1049 C1051 1.327 . S
C1049 C1055 1.429 . S
C1050 C1042 1.574 . S
C1050 H1045 0.949 . S
C1050 C1056 1.368 . S
C1051 C1035 1.349 . S
C1051 H1043 0.950 . S
C1051 C1049 1.327 . S
C1052 C1040 1.349 . S
C1052 H1046 0.950 . S
C1052 C1053 1.327 . S
C1053 H1047 0.950 . S
C1053 C1052 1.327 . S
C1053 C1057 1.429 . S
C1054 C1037 1.574 . S
C1054 H1048 0.949 . S
C1054 C1058 1.368 . S
C1055 C1036 1.429 . S
C1055 C1049 1.429 . S
C1055 C1056 1.523 . S
C1056 C1037 1.368 . S
C1056 C1050 1.368 . S
C1056 C1055 1.523 . S
C1057 C1041 1.429 . S
C1057 C1053 1.429 . S
C1057 C1058 1.523 . S
C1058 C1042 1.368 . S
C1058 C1054 1.368 . S
C1058 C1057 1.523 . S
H1059 C1034 0.950 . S
H1060 C1036 0.950 . S
H1061 C1037 0.949 . S
H1062 C1039 0.950 . S
H1063 C1041 0.950 . S
C345 C23 1.508 . S
C350 C299 1.552 . S
C380 C263 1.498 . S
C375 C55 1.509 . S
C410 C286 1.540 . S
C405 C87 1.544 . S
C440 C274 1.485 . S
C435 C119 1.430 . S
C470 C343 1.552 . S
C465 C151 1.508 . S
C500 C307 1.498 . S
C495 C183 1.509 . S
C525 C215 1.544 . S
C530 C330 1.541 . S
C560 C318 1.486 . S
C555 C247 1.430 . S
C585 C29 1.451 . S
C590 C340 1.517 . S
C620 C310 1.440 . S
C615 C49 1.436 . S
C645 C93 1.543 . S
C650 C329 1.542 . S
C675 C113 1.422 . S
C680 C315 1.466 . S
C710 C296 1.516 . S
C705 C157 1.451 . S
C735 C177 1.436 . S
C740 C266 1.440 . S
C770 C285 1.542 . S
C765 C221 1.543 . S
C800 C271 1.466 . S
C795 C241 1.422 . S
C830 C321 1.484 . S
C825 C17 1.442 . S
C860 C337 1.476 . S
C855 C61 1.482 . S
C885 C81 1.453 . S
C890 C308 1.453 . S
C920 C332 1.445 . S
C915 C125 1.376 . S
C950 C277 1.484 . S
C945 C145 1.442 . S
C975 C189 1.481 . S
C980 C293 1.476 . S
C1005 C209 1.453 . S
C1010 C264 1.454 . S
C1035 C253 1.376 . S
C1040 C288 1.446 . S
