# Generated by pormake.
# Topology pyr, (3,6)-cn, num edge types: 1
# Building blocks:
#     Node 0, Type 0, BuildingBlock: QEWDON_clean_linker_0, # of connection points: 3
#     Node 1, Type 0, BuildingBlock: QEWDON_clean_linker_0, # of connection points: 3
#     Node 2, Type 0, BuildingBlock: QEWDON_clean_linker_0, # of connection points: 3
#     Node 3, Type 0, BuildingBlock: QEWDON_clean_linker_0, # of connection points: 3
#     Node 4, Type 0, BuildingBlock: QEWDON_clean_linker_0, # of connection points: 3
#     Node 5, Type 0, BuildingBlock: QEWDON_clean_linker_0, # of connection points: 3
#     Node 6, Type 0, BuildingBlock: QEWDON_clean_linker_0, # of connection points: 3
#     Node 7, Type 0, BuildingBlock: QEWDON_clean_linker_0, # of connection points: 3
#     Node 8, Type 1, BuildingBlock: PAMTUU_clean_sbu_0, # of connection points: 6
#     Node 9, Type 1, BuildingBlock: PAMTUU_clean_sbu_0, # of connection points: 6
#     Node 10, Type 1, BuildingBlock: PAMTUU_clean_sbu_0, # of connection points: 6
#     Node 11, Type 1, BuildingBlock: PAMTUU_clean_sbu_0, # of connection points: 6
#     Edge 12, Type (0, 1), BuildingBlock: KIFKEQ_clean_linker_1, # of connection points: 2
#     Edge 13, Type (0, 1), BuildingBlock: KIFKEQ_clean_linker_1, # of connection points: 2
#     Edge 14, Type (0, 1), BuildingBlock: KIFKEQ_clean_linker_1, # of connection points: 2
#     Edge 15, Type (0, 1), BuildingBlock: KIFKEQ_clean_linker_1, # of connection points: 2
#     Edge 16, Type (0, 1), BuildingBlock: KIFKEQ_clean_linker_1, # of connection points: 2
#     Edge 17, Type (0, 1), BuildingBlock: KIFKEQ_clean_linker_1, # of connection points: 2
#     Edge 18, Type (0, 1), BuildingBlock: KIFKEQ_clean_linker_1, # of connection points: 2
#     Edge 19, Type (0, 1), BuildingBlock: KIFKEQ_clean_linker_1, # of connection points: 2
#     Edge 20, Type (0, 1), BuildingBlock: KIFKEQ_clean_linker_1, # of connection points: 2
#     Edge 21, Type (0, 1), BuildingBlock: KIFKEQ_clean_linker_1, # of connection points: 2
#     Edge 22, Type (0, 1), BuildingBlock: KIFKEQ_clean_linker_1, # of connection points: 2
#     Edge 23, Type (0, 1), BuildingBlock: KIFKEQ_clean_linker_1, # of connection points: 2
#     Edge 24, Type (0, 1), BuildingBlock: KIFKEQ_clean_linker_1, # of connection points: 2
#     Edge 25, Type (0, 1), BuildingBlock: KIFKEQ_clean_linker_1, # of connection points: 2
#     Edge 26, Type (0, 1), BuildingBlock: KIFKEQ_clean_linker_1, # of connection points: 2
#     Edge 27, Type (0, 1), BuildingBlock: KIFKEQ_clean_linker_1, # of connection points: 2
#     Edge 28, Type (0, 1), BuildingBlock: KIFKEQ_clean_linker_1, # of connection points: 2
#     Edge 29, Type (0, 1), BuildingBlock: KIFKEQ_clean_linker_1, # of connection points: 2
#     Edge 30, Type (0, 1), BuildingBlock: KIFKEQ_clean_linker_1, # of connection points: 2
#     Edge 31, Type (0, 1), BuildingBlock: KIFKEQ_clean_linker_1, # of connection points: 2
#     Edge 32, Type (0, 1), BuildingBlock: KIFKEQ_clean_linker_1, # of connection points: 2
#     Edge 33, Type (0, 1), BuildingBlock: KIFKEQ_clean_linker_1, # of connection points: 2
#     Edge 34, Type (0, 1), BuildingBlock: KIFKEQ_clean_linker_1, # of connection points: 2
#     Edge 35, Type (0, 1), BuildingBlock: KIFKEQ_clean_linker_1, # of connection points: 2
# Relax obj value: 0.155
# Max RMSD: 0.246
# Mean RMSD: 0.188
data_MOF--net-pyr--node1-PAMTUU_clean_sbu_0--node2-QEWDON_clean_linker_0--edge1-KIFKEQ_clean_linker_1
_symmetry_space_group_name_H-M    P1
_symmetry_Int_Tables_number       1
_symmetry_cell_setting            triclinic
loop_
_symmetry_equiv_pos_as_xyz
'x, y, z'
_cell_length_a     39.619582
_cell_length_b     40.771743
_cell_length_c     40.328964
_cell_angle_alpha  90.056435
_cell_angle_beta   89.627924
_cell_angle_gamma 110.28121
loop_
_atom_site_label
_atom_site_type_symbol
_atom_site_fract_x
_atom_site_fract_y
_atom_site_fract_z
_atom_type_partial_charge
H0 H 0.4022 0.31995 0.19167 0.0
C1 C 0.38967 0.31546 0.21602 0.0
C2 C 0.39124 0.28733 0.23526 0.0
C3 C 0.37008 0.33634 0.22713 0.0
H4 H 0.37464 0.25877 0.28098 0.0
C5 C 0.37389 0.28074 0.26623 0.0
C6 C 0.3545 0.30147 0.27779 0.0
C7 C 0.35262 0.32913 0.25815 0.0
C8 C 0.36655 0.36469 0.20583 0.0
H9 H 0.33763 0.34512 0.26718 0.0
C10 C 0.3332 0.3696 0.2031 0.0
C11 C 0.32947 0.39631 0.183 0.0
C12 C 0.39627 0.38679 0.18792 0.0
H13 H 0.42236 0.38389 0.18974 0.0
C14 C 0.39274 0.41326 0.16782 0.0
H15 H 0.30986 0.35206 0.21603 0.0
C16 C 0.35963 0.41807 0.16534 0.0
H17 H 0.35776 0.43914 0.14998 0.0
H18 H 0.41584 0.43028 0.15427 0.0
H19 H 0.16915 0.83384 0.78422 0.0
C20 C 0.18644 0.82091 0.77365 0.0
C21 C 0.21776 0.82219 0.79045 0.0
C22 C 0.17733 0.80303 0.74333 0.0
H23 H 0.26483 0.80724 0.78906 0.0
C24 C 0.23987 0.80515 0.77685 0.0
C25 C 0.23153 0.78762 0.74643 0.0
C26 C 0.20016 0.78656 0.72977 0.0
C27 C 0.14469 0.80267 0.72527 0.0
H28 H 0.19391 0.77347 0.70601 0.0
C29 C 0.13675 0.83357 0.72183 0.0
C30 C 0.10641 0.83376 0.70395 0.0
C31 C 0.12161 0.77163 0.71102 0.0
H32 H 0.12693 0.74742 0.71352 0.0
C33 C 0.09121 0.77147 0.69366 0.0
H34 H 0.15453 0.85759 0.73274 0.0
C35 C 0.08365 0.80227 0.69001 0.0
H36 H 0.06043 0.80151 0.6756 0.0
H37 H 0.07359 0.74744 0.6827 0.0
H38 H 0.71748 0.48141 0.91317 0.0
C39 C 0.70557 0.45418 0.92034 0.0
C40 C 0.72515 0.43879 0.94033 0.0
C41 C 0.66988 0.43496 0.91108 0.0
H42 H 0.72296 0.39238 0.96724 0.0
C43 C 0.70852 0.40405 0.951 0.0
C44 C 0.67285 0.38469 0.94254 0.0
C45 C 0.65388 0.40013 0.92212 0.0
C46 C 0.6467 0.45303 0.8964 0.0
H47 H 0.62588 0.38585 0.91655 0.0
C48 C 0.64989 0.46459 0.86299 0.0
C49 C 0.62683 0.48166 0.85078 0.0
C50 C 0.62047 0.45863 0.91696 0.0
H51 H 0.61755 0.45001 0.94257 0.0
C52 C 0.59799 0.47558 0.90495 0.0
H53 H 0.66988 0.46031 0.8468 0.0
C54 C 0.60116 0.48708 0.87219 0.0
H55 H 0.58325 0.50007 0.86338 0.0
H56 H 0.57798 0.47982 0.92112 0.0
H57 H 0.90315 0.78958 0.39086 0.0
C58 C 0.88124 0.77335 0.4063 0.0
C59 C 0.87727 0.7838 0.43902 0.0
C60 C 0.85591 0.74285 0.39288 0.0
H61 H 0.84381 0.77176 0.48286 0.0
C62 C 0.84755 0.76339 0.45801 0.0
C63 C 0.82136 0.73357 0.44477 0.0
C64 C 0.82613 0.72311 0.41232 0.0
C65 C 0.85559 0.73603 0.3567 0.0
H66 H 0.80542 0.701 0.40128 0.0
C67 C 0.8747 0.71609 0.34196 0.0
C68 C 0.87108 0.70837 0.3076 0.0
C69 C 0.8339 0.74872 0.33682 0.0
H70 H 0.81905 0.76399 0.34765 0.0
C71 C 0.83078 0.74161 0.30298 0.0
H72 H 0.89135 0.70599 0.35714 0.0
C73 C 0.84901 0.72148 0.2885 0.0
H74 H 0.84606 0.71634 0.26211 0.0
H75 H 0.81393 0.75155 0.28792 0.0
H76 H 0.71717 0.78556 0.98738 0.0
C77 C 0.7255 0.80135 0.96517 0.0
C78 C 0.75847 0.80451 0.95013 0.0
C79 C 0.70344 0.81863 0.95173 0.0
H80 H 0.79552 0.82844 0.91063 0.0
C81 C 0.76978 0.82563 0.92202 0.0
C82 C 0.74865 0.84362 0.9087 0.0
C83 C 0.71521 0.83967 0.92329 0.0
C84 C 0.66863 0.81532 0.96795 0.0
H85 H 0.69867 0.85327 0.91273 0.0
C86 C 0.65845 0.84488 0.97243 0.0
C87 C 0.6266 0.84212 0.98958 0.0
C88 C 0.64591 0.78275 0.98007 0.0
H89 H 0.65274 0.75945 0.97657 0.0
C90 C 0.61404 0.7799 0.99677 0.0
H91 H 0.67597 0.8703 0.96384 0.0
C92 C 0.60453 0.80945 1.00179 0.0
H93 H 0.57987 0.8068 1.01508 0.0
H94 H 0.59678 0.75474 1.00607 0.0
H95 H 0.88265 0.29417 0.5006 0.0
C96 C 0.86667 0.29065 0.4784 0.0
C97 C 0.87356 0.27115 0.4521 0.0
C98 C 0.83815 0.30378 0.47691 0.0
H99 H 0.8585 0.25193 0.40266 0.0
C100 C 0.85335 0.267 0.42296 0.0
C101 C 0.82518 0.28025 0.42053 0.0
C102 C 0.81763 0.29825 0.44765 0.0
C103 C 0.82783 0.32063 0.50655 0.0
H104 H 0.79491 0.30703 0.44599 0.0
C105 C 0.80846 0.3436 0.50272 0.0
C106 C 0.79441 0.35576 0.53028 0.0
C107 C 0.83487 0.31205 0.53908 0.0
H108 H 0.8485 0.29371 0.54373 0.0
C109 C 0.82301 0.32602 0.56656 0.0
H110 H 0.80345 0.35179 0.4783 0.0
C111 C 0.80259 0.34748 0.56228 0.0
H112 H 0.79199 0.35639 0.58396 0.0
H113 H 0.82852 0.31906 0.59133 0.0
H114 H 0.42706 0.78777 0.25331 0.0
C115 C 0.39884 0.77368 0.24849 0.0
C116 C 0.3795 0.78892 0.22819 0.0
C117 C 0.38279 0.73936 0.26086 0.0
H118 H 0.32867 0.78075 0.20476 0.0
C119 C 0.34348 0.7694 0.22082 0.0
C120 C 0.32681 0.73498 0.23256 0.0
C121 C 0.34671 0.72027 0.25296 0.0
C122 C 0.40591 0.72163 0.27632 0.0
H123 H 0.33476 0.69352 0.26155 0.0
C124 C 0.40215 0.71044 0.30986 0.0
C125 C 0.42621 0.69519 0.32334 0.0
C126 C 0.43303 0.71653 0.25663 0.0
H127 H 0.43629 0.7247 0.23088 0.0
C128 C 0.45615 0.70087 0.26975 0.0
H129 H 0.3816 0.71454 0.32546 0.0
C130 C 0.45294 0.69046 0.30285 0.0
H131 H 0.47162 0.67886 0.31264 0.0
H132 H 0.47692 0.6971 0.25427 0.0
H133 H 0.22588 0.45259 0.78472 0.0
C134 C 0.2085 0.43087 0.77038 0.0
C135 C 0.21859 0.42522 0.7378 0.0
C136 C 0.17805 0.40636 0.78575 0.0
H137 H 0.20384 0.39105 0.69524 0.0
C138 C 0.19676 0.39559 0.72041 0.0
C139 C 0.16702 0.3705 0.73548 0.0
C140 C 0.15735 0.37638 0.76791 0.0
C141 C 0.17274 0.40727 0.82229 0.0
H142 H 0.13525 0.35639 0.78018 0.0
C143 C 0.16424 0.43429 0.83859 0.0
C144 C 0.16018 0.43369 0.87359 0.0
C145 C 0.17691 0.38005 0.84124 0.0
H146 H 0.18361 0.3592 0.82939 0.0
C147 C 0.17297 0.37949 0.87555 0.0
H148 H 0.16089 0.45542 0.82429 0.0
C149 C 0.16473 0.40601 0.8916 0.0
H150 H 0.16141 0.40461 0.91832 0.0
H151 H 0.1763 0.35834 0.8898 0.0
Tb152 Tb 0.06121 0.08865 0.55647 0.0
Tb153 Tb 0.98915 0.07075 0.60417 0.0
C154 C 0.99453 0.0183 0.54991 0.0
C155 C 0.14315 0.12708 0.50116 0.0
C156 C 0.19653 0.17842 0.46459 0.0
C157 C 0.1917 0.14277 0.46089 0.0
C158 C 0.16535 0.11743 0.47905 0.0
C159 C 0.1477 0.16252 0.50531 0.0
C160 C 0.17428 0.18809 0.48709 0.0
C161 C 0.11485 0.09927 0.51848 0.0
O162 O 0.03598 0.12601 0.54264 0.0
O163 O 0.97892 0.09133 0.5571 0.0
O164 O 0.02095 0.12528 0.61335 0.0
O165 O 0.07709 0.12723 0.59623 0.0
O166 O 0.9328 0.05023 0.60805 0.0
O167 O 0.9654 0.07706 0.64921 0.0
O168 O 0.02507 0.05095 0.63185 0.0
O169 O 0.06193 0.04667 0.58893 0.0
O170 O 0.01838 0.04472 0.53442 0.0
O171 O 0.98421 0.02145 0.5804 0.0
C172 C 1.00106 0.11816 0.54092 0.0
O173 O 0.1166 0.09858 0.55073 0.0
O174 O 0.0821 0.0929 0.50815 0.0
C175 C 0.05611 0.14036 0.61296 0.0
C176 C 0.91003 0.0337 0.66198 0.0
C177 C 0.86782 0.98655 0.70962 0.0
C178 C 0.86289 0.01858 0.70378 0.0
C179 C 0.88381 0.0419 0.68014 0.0
C180 C 0.91474 1.00157 0.66709 0.0
C181 C 0.8937 0.97809 0.69071 0.0
C182 C 0.93299 0.05974 0.63892 0.0
C183 C 0.04957 0.03937 0.61934 0.0
H184 H 0.20768 0.13425 0.44326 0.0
H185 H 0.16193 0.09012 0.47541 0.0
H186 H 0.13057 0.1703 0.52231 0.0
H187 H 0.17742 0.21533 0.4906 0.0
H188 H 0.8437 0.02621 0.71824 0.0
H189 H 0.88003 0.06674 0.67654 0.0
H190 H 0.93497 0.99492 0.65319 0.0
H191 H 0.8979 0.95348 0.69436 0.0
Tb192 Tb 0.56102 0.09644 0.11046 0.0
Tb193 Tb 0.49174 0.07778 0.05985 0.0
C194 C 0.55257 0.04627 0.04962 0.0
C195 C 0.63341 0.1381 0.17244 0.0
C196 C 0.67109 0.18429 0.22239 0.0
C197 C 0.68984 0.17426 0.19692 0.0
C198 C 0.67111 0.15122 0.17224 0.0
C199 C 0.61456 0.14951 0.19687 0.0
C200 C 0.63329 0.17228 0.22177 0.0
C201 C 0.61453 0.11085 0.14843 0.0
O202 O 0.56716 0.14503 0.08481 0.0
O203 O 0.53501 0.12175 0.03817 0.0
O204 O 0.48797 0.11926 0.09156 0.0
O205 O 0.52224 0.11453 0.13602 0.0
O206 O 0.47349 0.07451 1.01101 0.0
O207 O 0.43613 0.06485 0.05218 0.0
O208 O 0.47423 0.03971 0.10019 0.0
O209 O 0.52927 0.04186 0.11986 0.0
O210 O 0.57442 0.07268 0.06635 0.0
O211 O 0.5179 0.04042 0.04819 0.0
C212 C 0.55855 0.14795 0.05386 0.0
O213 O 0.58214 0.09048 0.15655 0.0
O214 O 0.61688 0.1201 0.11733 0.0
C215 C 0.49817 0.12578 0.1225 0.0
C216 C 0.41442 0.03446 1.00186 0.0
C217 C 0.36365 0.98406 0.96256 0.0
C218 C 0.35305 0.99518 0.99257 0.0
C219 C 0.37819 0.02037 1.01194 0.0
C220 C 0.42518 0.02223 0.97245 0.0
C221 C 0.40005 0.9973 0.95304 0.0
C222 C 0.43976 0.06425 1.02004 0.0
C223 C 0.4942 0.02653 0.11802 0.0
H224 H 0.71896 0.18287 0.19699 0.0
H225 H 0.68609 0.14272 0.15359 0.0
H226 H 0.58541 0.14004 0.19734 0.0
H227 H 0.61824 0.1799 0.24098 0.0
H228 H 0.3251 0.98551 1.00035 0.0
H229 H 0.36907 0.02962 1.03427 0.0
H230 H 0.45282 0.0326 0.96383 0.0
H231 H 0.40899 0.98881 0.9302 0.0
Tb232 Tb 0.51352 0.55237 0.57211 0.0
Tb233 Tb 0.52183 0.62514 0.61108 0.0
C234 C 0.48409 0.60743 0.54122 0.0
C235 C 0.54106 0.48419 0.5356 0.0
C236 C 0.59791 0.45881 0.52487 0.0
C237 C 0.56388 0.44183 0.51065 0.0
C238 C 0.53562 0.45443 0.51606 0.0
C239 C 0.57503 0.50155 0.54928 0.0
C240 C 0.6031 0.4889 0.54414 0.0
C241 C 0.5117 0.49748 0.54211 0.0
O242 O 0.56045 0.59234 0.55109 0.0
O243 O 0.57615 0.63237 0.59339 0.0
O244 O 0.53652 0.5921 0.64656 0.0
O245 O 0.55305 0.55649 0.61091 0.0
O246 O 0.53347 0.67956 0.61023 0.0
O247 O 0.51742 0.6502 0.65549 0.0
O248 O 0.46519 0.59249 0.61522 0.0
O249 O 0.47203 0.53928 0.6103 0.0
O250 O 0.47733 0.57389 0.54644 0.0
O251 O 0.5061 0.63122 0.56047 0.0
C252 C 0.58402 0.61924 0.5658 0.0
O253 O 0.50318 0.49828 0.57327 0.0
O254 O 0.51473 0.52666 0.52717 0.0
C255 C 0.55261 0.56935 0.64076 0.0
C256 C 0.49449 0.69485 0.64623 0.0
C257 C 0.43751 0.71866 0.66199 0.0
C258 C 0.47241 0.73619 0.67414 0.0
C259 C 0.50064 0.72426 0.66642 0.0
C260 C 0.46012 0.67803 0.63306 0.0
C261 C 0.43187 0.68975 0.64092 0.0
C262 C 0.52293 0.68004 0.64082 0.0
C263 C 0.45365 0.55866 0.62061 0.0
H264 H 0.55909 0.41886 0.49532 0.0
H265 H 0.50958 0.44091 0.50513 0.0
H266 H 0.57975 0.52472 0.5643 0.0
H267 H 0.62864 0.50232 0.55596 0.0
H268 H 0.47783 0.75888 0.68998 0.0
H269 H 0.52705 0.73753 0.67676 0.0
H270 H 0.4549 0.6552 0.61745 0.0
H271 H 0.40534 0.67531 0.63146 0.0
Tb272 Tb 0.03092 0.61585 0.07064 0.0
Tb273 Tb 0.01859 0.54287 0.11079 0.0
C274 C 0.06001 0.55834 0.04298 0.0
C275 C 0.00827 0.68817 1.036 0.0
C276 C 0.95443 0.71704 1.02369 0.0
C277 C 0.98973 0.73345 1.01152 0.0
C278 C 0.01641 0.71901 1.01753 0.0
C279 C 0.97352 0.67235 0.04912 0.0
C280 C 0.94681 0.68654 0.04292 0.0
C281 C 0.0352 0.67134 0.04036 0.0
O282 O 0.97378 0.58568 0.06691 0.0
O283 O 0.97641 0.53088 0.07344 0.0
O284 O 0.98338 0.56644 0.13561 0.0
O285 O 0.01451 0.62323 0.12099 0.0
O286 O 0.01053 0.48914 0.10862 0.0
O287 O 0.01346 0.51525 0.15557 0.0
O288 O 0.06566 0.58197 0.13278 0.0
O289 O 0.08383 0.62165 0.09006 0.0
O290 O 0.04449 0.58114 1.03581 0.0
O291 O 0.05993 0.54705 0.07348 0.0
C292 C 0.95991 0.55172 0.06264 0.0
O293 O 0.0463 0.67067 0.07058 0.0
O294 O 0.02745 0.64099 1.02609 0.0
C295 C 0.99146 0.60022 0.14042 0.0
C296 C 0.04244 0.47362 0.15096 0.0
C297 C 0.09967 0.44936 0.16398 0.0
C298 C 0.10364 0.48455 0.16945 0.0
C299 C 0.07538 0.49655 0.16291 0.0
C300 C 0.03801 0.4383 0.14617 0.0
C301 C 0.0664 0.42624 0.1526 0.0
C302 C 0.01413 0.48713 0.14055 0.0
C303 C 0.09 0.60893 0.11845 0.0
H304 H 0.99669 0.75729 0.99708 0.0
H305 H 0.04317 0.73159 1.00736 0.0
H306 H 0.96681 0.64853 0.06354 0.0
H307 H 0.91991 0.6729 0.0523 0.0
H308 H 0.12904 0.50318 0.17766 0.0
H309 H 0.07964 0.52399 0.16638 0.0
H310 H 0.01291 0.42025 0.13671 0.0
H311 H 0.06245 0.39893 0.14838 0.0
H312 H 0.28358 0.29065 0.28806 0.0
H313 H 0.37968 0.29153 0.33829 0.0
H314 H 0.24812 0.2677 0.3378 0.0
H315 H 0.34471 0.27015 0.3888 0.0
H316 H 0.26419 0.1804 0.44824 0.0
H317 H 0.30415 0.21641 0.40646 0.0
H318 H 0.23166 0.27383 0.39306 0.0
H319 H 0.19029 0.23589 0.43347 0.0
C320 C 0.2972 0.28679 0.31014 0.0
C321 C 0.3342 0.29246 0.30936 0.0
C322 C 0.27696 0.27382 0.33877 0.0
C323 C 0.29342 0.26669 0.36738 0.0
C324 C 0.33094 0.2745 0.36705 0.0
C325 C 0.35105 0.28691 0.33823 0.0
C326 C 0.25676 0.20075 0.43643 0.0
C327 C 0.22367 0.20474 0.4437 0.0
C328 C 0.28002 0.22186 0.41275 0.0
C329 C 0.27108 0.24794 0.396 0.0
C330 C 0.2391 0.25355 0.40494 0.0
C331 C 0.21557 0.23209 0.42846 0.0
H332 H 0.24352 0.80478 0.84798 0.0
H333 H 0.21968 0.88894 0.80026 0.0
H334 H 0.27349 0.84422 0.89286 0.0
H335 H 0.24908 0.9282 0.84541 0.0
H336 H 0.35685 0.99218 0.89647 0.0
H337 H 0.31465 0.95233 0.85848 0.0
H338 H 0.26689 0.88262 0.93994 0.0
H339 H 0.30968 0.92265 0.97815 0.0
C340 C 0.24405 0.83153 0.84749 0.0
C341 C 0.22962 0.84393 0.82052 0.0
C342 C 0.26095 0.854 0.87327 0.0
C343 C 0.26392 0.88933 0.8724 0.0
C344 C 0.2475 0.90115 0.84647 0.0
C345 C 0.23041 0.87863 0.82081 0.0
C346 C 0.33732 0.96836 0.90627 0.0
C347 C 0.33673 0.96027 0.94015 0.0
C348 C 0.31287 0.94577 0.88461 0.0
C349 C 0.28738 0.91447 0.8963 0.0
C350 C 0.28633 0.90657 0.9303 0.0
C351 C 0.31065 0.92945 0.95212 0.0
H352 H 0.65122 0.54885 0.82929 0.0
H353 H 0.60216 0.44299 0.79484 0.0
H354 H 0.63892 0.57086 0.7761 0.0
H355 H 0.58873 0.46474 0.74164 0.0
H356 H 0.58262 0.51741 0.64182 0.0
H357 H 0.60765 0.49662 0.68949 0.0
H358 H 0.5851 0.57294 0.75167 0.0
H359 H 0.56088 0.5939 0.7044 0.0
C360 C 0.63872 0.53032 0.80986 0.0
C361 C 0.6281 0.49425 0.81602 0.0
C362 C 0.63111 0.54286 0.77951 0.0
C363 C 0.61214 0.51965 0.75458 0.0
C364 C 0.60353 0.48348 0.76003 0.0
C365 C 0.61136 0.47093 0.79047 0.0
C366 C 0.58333 0.52996 0.66562 0.0
C367 C 0.56966 0.55742 0.66909 0.0
C368 C 0.59753 0.51788 0.69304 0.0
C369 C 0.5987 0.53313 0.7246 0.0
C370 C 0.58543 0.56088 0.72779 0.0
C371 C 0.57118 0.57279 0.70056 0.0
H372 H 0.94343 0.7191 0.30511 0.0
H373 H 0.84073 0.6501 0.27021 0.0
H374 H 0.97401 0.69037 0.26803 0.0
H375 H 0.87094 0.62155 0.23319 0.0
H376 H 0.93635 0.56275 0.18244 0.0
H377 H 0.90895 0.58521 0.22765 0.0
H378 H 0.98181 0.6898 0.20731 0.0
H379 H 0.00916 0.66755 0.1625 0.0
C380 C 0.92742 0.69723 0.29015 0.0
C381 C 0.88971 0.68687 0.29056 0.0
C382 C 0.94488 0.681 0.26861 0.0
C383 C 0.92498 0.65379 0.24729 0.0
C384 C 0.8872 0.64217 0.24929 0.0
C385 C 0.86985 0.6586 0.27048 0.0
C386 C 0.94663 0.59051 0.18771 0.0
C387 C 0.97489 0.61327 0.16857 0.0
C388 C 0.93086 0.60342 0.21362 0.0
C389 C 0.9432 0.63937 0.22131 0.0
C390 C 0.9719 0.66194 0.20254 0.0
C391 C 0.98739 0.64913 0.17652 0.0
H392 H 0.36204 0.21658 0.23105 0.0
H393 H 0.45894 0.30361 0.20904 0.0
H394 H 0.38877 0.1764 0.20635 0.0
H395 H 0.48595 0.26318 0.18464 0.0
H396 H 0.52863 0.16879 0.17464 0.0
H397 H 0.50389 0.20805 0.20442 0.0
H398 H 0.40837 0.17148 0.1443 0.0
H399 H 0.43313 0.13294 0.1142 0.0
C400 C 0.38925 0.227 0.22132 0.0
C401 C 0.40849 0.26313 0.22191 0.0
C402 C 0.40443 0.20408 0.20711 0.0
C403 C 0.43937 0.21678 0.1937 0.0
C404 C 0.45905 0.25279 0.19508 0.0
C405 C 0.44358 0.27585 0.20878 0.0
C406 C 0.50225 0.16902 0.168 0.0
C407 C 0.48279 0.14788 0.1421 0.0
C408 C 0.48826 0.19157 0.18487 0.0
C409 C 0.45428 0.19266 0.17659 0.0
C410 C 0.43454 0.17093 0.15125 0.0
C411 C 0.44879 0.14902 0.13398 0.0
H412 H 0.04139 0.84392 0.70355 0.0
H413 H 0.15564 0.89897 0.69171 0.0
H414 H 0.0298 0.89686 0.68838 0.0
H415 H 0.14415 0.95226 0.67855 0.0
H416 H 0.01932 1.00309 0.67595 0.0
H417 H 0.03485 0.9563 0.7025 0.0
H418 H 0.12055 0.97107 0.63094 0.0
H419 H 0.10586 0.01799 0.60526 0.0
C420 C 0.06407 0.86738 0.69808 0.0
C421 C 0.09943 0.86696 0.69845 0.0
C422 C 0.05744 0.89791 0.68988 0.0
C423 C 0.08603 0.92879 0.682 0.0
C424 C 0.12145 0.9288 0.68398 0.0
C425 C 0.12807 0.89826 0.69194 0.0
C426 C 0.04191 0.99675 0.66636 0.0
C427 C 0.06118 1.01413 0.63835 0.0
C428 C 0.05061 0.96976 0.68139 0.0
C429 C 0.07885 0.95979 0.66878 0.0
C430 C 0.09897 0.97827 0.64165 0.0
C431 C 0.09029 1.00507 0.62669 0.0
H432 H 0.74774 0.50317 0.97029 0.0
H433 H 0.78476 0.41979 0.94033 0.0
H434 H 0.8044 0.53159 0.99933 0.0
H435 H 0.84169 0.44841 0.9684 0.0
H436 H 0.91905 0.48263 0.05441 0.0
H437 H 0.86383 0.45785 1.02301 0.0
H438 H 0.86771 0.56181 0.99665 0.0
H439 H 0.92247 0.58664 1.02906 0.0
C440 C 0.76838 0.49139 0.9692 0.0
C441 C 0.7617 0.45917 0.95312 0.0
C442 C 0.80091 0.50762 0.98593 0.0
C443 C 0.82766 0.49212 0.9868 0.0
C444 C 0.82151 0.46075 0.96919 0.0
C445 C 0.78896 0.44445 0.95276 0.0
C446 C 0.90812 0.50027 0.04204 0.0
C447 C 0.92536 0.53667 0.04436 0.0
C448 C 0.87649 0.48602 1.02369 0.0
C449 C 0.86123 0.5077 1.00681 0.0
C450 C 0.87831 0.54418 1.00946 0.0
C451 C 0.90988 0.55846 1.02802 0.0
H452 H 0.7808 0.76396 0.47984 0.0
H453 H 0.78479 0.66301 0.45235 0.0
H454 H 0.72528 0.7358 0.51051 0.0
H455 H 0.72912 0.63455 0.48353 0.0
H456 H 0.60858 0.59813 0.50906 0.0
H457 H 0.66616 0.62476 0.48134 0.0
H458 H 0.69978 0.70226 0.55894 0.0
H459 H 0.64141 0.67605 0.58638 0.0
C460 C 0.77011 0.73567 0.48078 0.0
C461 C 0.78749 0.71575 0.46381 0.0
C462 C 0.7382 0.71947 0.49848 0.0
C463 C 0.72263 0.68283 0.49977 0.0
C464 C 0.74003 0.66284 0.48282 0.0
C465 C 0.77199 0.67911 0.46496 0.0
C466 C 0.62818 0.62086 0.52037 0.0
C467 C 0.6201 0.63508 0.54995 0.0
C468 C 0.66147 0.63598 0.50451 0.0
C469 C 0.6878 0.66575 0.51776 0.0
C470 C 0.67999 0.67965 0.54768 0.0
C471 C 0.64656 0.66453 0.56358 0.0
H472 H 0.2975 0.4107 0.12758 0.0
H473 H 0.28174 0.39374 0.23315 0.0
H474 H 0.24057 0.42101 0.12408 0.0
H475 H 0.22418 0.4028 0.22945 0.0
H476 H 0.14834 0.46576 0.21459 0.0
H477 H 0.20275 0.4511 0.21936 0.0
H478 H 0.17563 0.391 0.12893 0.0
H479 H 0.12179 0.40668 0.12357 0.0
C480 C 0.28186 0.40912 0.15003 0.0
C481 C 0.29424 0.40153 0.18066 0.0
C482 C 0.249 0.41459 0.14796 0.0
C483 C 0.22779 0.41268 0.17648 0.0
C484 C 0.24002 0.40477 0.20706 0.0
C485 C 0.27284 0.39924 0.20912 0.0
C486 C 0.15398 0.44939 0.19574 0.0
C487 C 0.13083 0.43753 0.16862 0.0
C488 C 0.18499 0.44071 0.19864 0.0
C489 C 0.19362 0.41999 0.17445 0.0
C490 C 0.16998 0.40736 0.14777 0.0
C491 C 0.1389 0.41599 0.14492 0.0
H492 H 0.66965 0.36796 1.00798 0.0
H493 H 0.63487 0.32268 0.912 0.0
H494 H 0.64147 0.31119 1.03402 0.0
H495 H 0.60791 0.26502 0.93772 0.0
H496 H 0.53532 0.17131 0.99768 0.0
H497 H 0.56154 0.228 0.97056 0.0
H498 H 0.64725 0.25745 0.04259 0.0
H499 H 0.61992 0.20159 0.07048 0.0
C500 C 0.65624 0.34562 0.9924 0.0
C501 C 0.65471 0.34971 0.95792 0.0
C502 C 0.64023 0.31288 1.0073 0.0
C503 C 0.62264 0.283 0.98811 0.0
C504 C 0.62078 0.28727 0.95351 0.0
C505 C 0.63637 0.32029 0.93865 0.0
C506 C 0.5598 0.18993 1.00768 0.0
C507 C 0.57538 0.18192 1.03639 0.0
C508 C 0.57503 0.22249 0.99198 0.0
C509 C 0.60658 0.24779 1.0043 0.0
C510 C 0.6225 0.23927 1.03267 0.0
C511 C 0.60695 0.20699 0.04863 0.0
H512 H 0.90058 0.84824 0.40901 0.0
H513 H 0.90724 0.79644 0.50072 0.0
H514 H 0.93085 0.90494 0.43503 0.0
H515 H 0.93771 0.85295 0.52669 0.0
H516 H 0.94526 0.95739 0.57369 0.0
H517 H 0.92091 0.9012 0.54574 0.0
H518 H 0.98566 0.9448 0.45919 0.0
H519 H 0.00957 1.00132 0.48694 0.0
C520 C 0.90934 0.84891 0.43447 0.0
C521 C 0.9013 0.81779 0.45283 0.0
C522 C 0.92659 0.88146 0.44947 0.0
C523 C 0.93626 0.88366 0.48318 0.0
C524 C 0.92988 0.85238 0.50095 0.0
C525 C 0.91263 0.81994 0.486 0.0
C526 C 0.95432 0.9551 0.5487 0.0
C527 C 0.97936 0.98404 0.53263 0.0
C528 C 0.94056 0.9227 0.5327 0.0
C529 C 0.95144 0.91827 0.50019 0.0
C530 C 0.9764 0.94726 0.48407 0.0
C531 C 0.99021 0.97968 0.5001 0.0
H532 H 0.25949 0.79775 0.68366 0.0
H533 H 0.26241 0.74505 0.77576 0.0
H534 H 0.30867 0.78064 0.66189 0.0
H535 H 0.31083 0.72711 0.75391 0.0
H536 H 0.42467 0.74017 0.72352 0.0
H537 H 0.37332 0.75507 0.74189 0.0
H538 H 0.32765 0.73342 0.64381 0.0
H539 H 0.3802 0.72037 0.62487 0.0
C540 C 0.27011 0.78178 0.69891 0.0
C541 C 0.25735 0.77286 0.73142 0.0
C542 C 0.29831 0.772 0.6865 0.0
C543 C 0.3141 0.75293 0.70633 0.0
C544 C 0.29997 0.74257 0.73827 0.0
C545 C 0.27206 0.75257 0.75072 0.0
C546 C 0.40405 0.73918 0.70565 0.0
C547 C 0.40668 0.72912 0.67267 0.0
C548 C 0.37423 0.74715 0.71636 0.0
C549 C 0.34607 0.74501 0.69445 0.0
C550 C 0.34889 0.73547 0.66132 0.0
C551 C 0.37887 0.72765 0.65054 0.0
H552 H 0.71516 0.84483 0.84974 0.0
H553 H 0.81382 0.89474 0.90303 0.0
H554 H 0.74219 0.8785 0.79997 0.0
H555 H 0.84055 0.9287 0.85394 0.0
H556 H 0.89327 0.95024 0.75383 0.0
H557 H 0.86191 0.91581 0.80101 0.0
H558 H 0.76588 0.93736 0.77562 0.0
H559 H 0.79685 0.97058 0.72726 0.0
C560 C 0.74235 0.86347 0.8509 0.0
C561 C 0.76262 0.86698 0.87996 0.0
C562 C 0.75785 0.88268 0.82249 0.0
C563 C 0.79376 0.90575 0.82285 0.0
C564 C 0.81321 0.91042 0.85255 0.0
C565 C 0.79785 0.89118 0.88072 0.0
C566 C 0.86526 0.94708 0.75784 0.0
C567 C 0.84763 0.96329 0.7368 0.0
C568 C 0.84742 0.92777 0.78521 0.0
C569 C 0.81157 0.92434 0.79237 0.0
C570 C 0.79348 0.93952 0.77076 0.0
C571 C 0.81134 0.9588 0.74325 0.0
H572 H 0.7518 0.2625 0.41803 0.0
H573 H 0.84546 0.28028 0.3554 0.0
H574 H 0.71333 0.24624 0.3698 0.0
H575 H 0.8067 0.26125 0.30745 0.0
H576 H 0.73099 0.24351 0.22177 0.0
H577 H 0.76703 0.27252 0.2693 0.0
H578 H 0.69263 0.19743 0.33488 0.0
H579 H 0.6563 0.16957 0.28762 0.0
C580 C 0.7643 0.26336 0.39394 0.0
C581 C 0.80183 0.27264 0.39069 0.0
C582 C 0.74211 0.25345 0.36627 0.0
C583 C 0.75677 0.25198 0.3347 0.0
C584 C 0.79439 0.26236 0.33127 0.0
C585 C 0.81664 0.27277 0.35889 0.0
C586 C 0.72223 0.23365 0.24646 0.0
C587 C 0.69089 0.20437 0.25108 0.0
C588 C 0.74292 0.25009 0.27367 0.0
C589 C 0.73292 0.23724 0.306 0.0
C590 C 0.7009 0.20854 0.31052 0.0
C591 C 0.68004 0.19244 0.28339 0.0
H592 H 0.47378 0.72946 0.37024 0.0
H593 H 0.3803 0.63746 0.3554 0.0
H594 H 0.48303 0.70785 0.42448 0.0
H595 H 0.38893 0.61559 0.41033 0.0
H596 H 0.44963 0.5695 0.48685 0.0
H597 H 0.43005 0.59158 0.43684 0.0
H598 H 0.46272 0.69481 0.47998 0.0
H599 H 0.48297 0.67302 0.52929 0.0
C600 C 0.45447 0.70508 0.37921 0.0
C601 C 0.42596 0.68547 0.35891 0.0
C602 C 0.45975 0.69254 0.41035 0.0
C603 C 0.4368 0.65979 0.42207 0.0
C604 C 0.40739 0.64072 0.40212 0.0
C605 C 0.40205 0.65343 0.37087 0.0
C606 C 0.45226 0.59682 0.48579 0.0
C607 C 0.46834 0.61948 0.51207 0.0
C608 C 0.44085 0.60951 0.4571 0.0
C609 C 0.44508 0.64519 0.45398 0.0
C610 C 0.45968 0.66739 0.48097 0.0
C611 C 0.47121 0.65478 0.50946 0.0
H612 H 0.19536 0.47167 0.92625 0.0
H613 H 0.10234 0.45539 0.8648 0.0
H614 H 0.17339 0.50555 0.96516 0.0
H615 H 0.07978 0.48908 0.90414 0.0
H616 H 0.06023 0.56989 0.97562 0.0
H617 H 0.08706 0.54519 0.93172 0.0
H618 H 0.12521 0.48991 1.00548 0.0
H619 H 0.09893 0.51474 0.04913 0.0
C620 C 0.17045 0.47593 0.92077 0.0
C621 C 0.15052 0.46071 0.89251 0.0
C622 C 0.15764 0.49506 0.94327 0.0
C623 C 0.12436 0.49949 0.93831 0.0
C624 C 0.10552 0.48628 0.90883 0.0
C625 C 0.11849 0.46709 0.88616 0.0
C626 C 0.07458 0.55266 0.9825 0.0
C627 C 0.07745 0.54447 1.01607 0.0
C628 C 0.0898 0.53832 0.95724 0.0
C629 C 0.10855 0.51564 0.9649 0.0
C630 C 0.11158 0.50773 0.99852 0.0
C631 C 0.09624 0.52186 1.02367 0.0
H632 H 0.61856 0.88866 0.94439 0.0
H633 H 0.6135 0.86623 0.04924 0.0
H634 H 0.60226 0.94065 0.95556 0.0
H635 H 0.59816 0.91845 0.06041 0.0
H636 H 0.61468 0.03591 0.06616 0.0
H637 H 0.63399 0.98765 0.04929 0.0
H638 H 0.54218 0.94882 0.98489 0.0
H639 H 0.52214 0.9968 1.00224 0.0
C640 C 0.61412 0.89502 0.96976 0.0
C641 C 0.61712 0.87357 0.996 0.0
C642 C 0.60475 0.92455 0.9761 0.0
C643 C 0.59917 0.93345 1.00881 0.0
C644 C 0.60259 0.91218 1.035 0.0
C645 C 0.61114 0.88231 1.02863 0.0
C646 C 0.59886 0.01749 0.04797 0.0
C647 C 0.56679 0.0201 1.0356 0.0
C648 C 0.60986 0.9898 0.0385 0.0
C649 C 0.58943 0.96459 1.01598 0.0
C650 C 0.55839 0.96809 1.00223 0.0
C651 C 0.54694 0.99545 1.01222 0.0
H652 H 0.86336 0.20437 0.43231 0.0
H653 H 0.9393 0.29217 0.48333 0.0
H654 H 0.89853 0.16839 0.44687 0.0
H655 H 0.97347 0.25521 0.49965 0.0
H656 H 0.03697 0.18144 0.51128 0.0
H657 H 0.01042 0.21983 0.48321 0.0
H658 H 0.90437 0.14365 0.49988 0.0
H659 H 0.93058 0.10538 0.52708 0.0
C660 C 0.88799 0.21632 0.44603 0.0
C661 C 0.89831 0.25121 0.45685 0.0
C662 C 0.9079 0.19545 0.45478 0.0
C663 C 0.93839 0.20874 0.47493 0.0
C664 C 0.95011 0.2442 0.48405 0.0
C665 C 0.93028 0.26526 0.47505 0.0
C666 C 1.00802 0.17276 0.50849 0.0
C667 C 0.98587 0.14041 0.5215 0.0
C668 C 0.99285 0.19482 0.4926 0.0
C669 C 0.95532 0.18475 0.48924 0.0
C670 C 0.93341 0.15199 0.5015 0.0
C671 C 0.94847 0.13011 0.5174 0.0
H672 H 0.26913 0.7567 0.2235 0.0
H673 H 0.30069 0.66574 0.21369 0.0
H674 H 0.21252 0.72557 0.19586 0.0
H675 H 0.24323 0.63423 0.18714 0.0
H676 H 0.11897 0.58285 0.16921 0.0
H677 H 0.17506 0.61163 0.19878 0.0
H678 H 0.19603 0.70282 0.13677 0.0
H679 H 0.14013 0.67389 0.10679 0.0
C680 C 0.26401 0.73001 0.21565 0.0
C681 C 0.28991 0.714 0.22055 0.0
C682 C 0.23149 0.71219 0.19979 0.0
C683 C 0.22361 0.67762 0.18889 0.0
C684 C 0.24852 0.66086 0.19529 0.0
C685 C 0.28138 0.67889 0.21076 0.0
C686 C 0.13559 0.60892 0.16166 0.0
C687 C 0.12495 0.62597 0.13551 0.0
C688 C 0.16781 0.62538 0.17861 0.0
C689 C 0.18988 0.65956 0.17025 0.0
C690 C 0.17939 0.67659 0.14402 0.0
C691 C 0.14747 0.6599 0.12669 0.0
H692 H 0.26498 0.40267 0.70212 0.0
H693 H 0.253 0.49719 0.74003 0.0
H694 H 0.32015 0.43655 0.67465 0.0
H695 H 0.31064 0.53162 0.71405 0.0
H696 H 0.39721 0.58231 0.63189 0.0
H697 H 0.34103 0.55211 0.66204 0.0
H698 H 0.37986 0.46793 0.68505 0.0
H699 H 0.43442 0.49697 0.65379 0.0
C700 C 0.27407 0.43085 0.7046 0.0
C701 C 0.2539 0.44713 0.72286 0.0
C702 C 0.30637 0.4504 0.68924 0.0
C703 C 0.32037 0.487 0.6922 0.0
C704 C 0.30061 0.50351 0.7109 0.0
C705 C 0.26775 0.48377 0.72613 0.0
C706 C 0.39352 0.55727 0.64334 0.0
C707 C 0.41997 0.5417 0.63984 0.0
C708 C 0.36144 0.54006 0.66087 0.0
C709 C 0.3554 0.50716 0.67564 0.0
C710 C 0.38275 0.49258 0.67319 0.0
C711 C 0.41429 0.50937 0.65529 0.0
H712 H 0.78457 0.80852 1.01305 0.0
H713 H 0.78642 0.76161 0.91745 0.0
H714 H 0.83156 0.78706 1.03249 0.0
H715 H 0.83231 0.73914 0.93691 0.0
H716 H 0.94387 0.74439 0.96443 0.0
H717 H 0.89477 0.7638 0.94895 0.0
H718 H 0.84789 0.73717 0.04669 0.0
H719 H 0.89839 0.71965 0.06289 0.0
C720 C 0.79446 0.79286 0.99654 0.0
C721 C 0.78221 0.78685 0.96376 0.0
C722 C 0.82135 0.78059 1.00759 0.0
C723 C 0.83618 0.76189 0.98606 0.0
C724 C 0.82226 0.75429 0.95385 0.0
C725 C 0.79576 0.76683 0.94277 0.0
C726 C 0.92352 0.74327 0.98288 0.0
C727 C 0.92517 0.73043 1.01492 0.0
C728 C 0.89495 0.75384 0.97381 0.0
C729 C 0.86703 0.75155 0.99641 0.0
C730 C 0.86896 0.73936 1.02868 0.0
C731 C 0.89774 0.72898 0.03785 0.0
H732 H 0.3721 0.80938 0.16466 0.0
H733 H 0.42754 0.84846 0.25618 0.0
H734 H 0.399 0.86684 0.13958 0.0
H735 H 0.45494 0.9062 0.23075 0.0
H736 H 0.52572 0.99348 0.16062 0.0
H737 H 0.49851 0.93693 0.18774 0.0
H738 H 0.39656 0.92575 0.14267 0.0
H739 H 0.42384 0.98218 0.11517 0.0
C740 C 0.38972 0.83032 0.17964 0.0
C741 C 0.39719 0.8242 0.21271 0.0
C742 C 0.40522 0.86338 0.16516 0.0
C743 C 0.42893 0.89137 0.18315 0.0
C744 C 0.43699 0.88521 0.21605 0.0
C745 C 0.4213 0.85207 0.23064 0.0
C746 C 0.49745 0.97907 0.1565 0.0
C747 C 0.47706 0.99251 0.13552 0.0
C748 C 0.48179 0.94665 0.17228 0.0
C749 C 0.44533 0.92662 0.1674 0.0
C750 C 0.42483 0.94021 0.1467 0.0
C751 C 0.44045 0.97274 0.13105 0.0
H752 H 0.09516 0.33614 0.72294 0.0
H753 H 0.1999 0.32755 0.71031 0.0
H754 H 0.06805 0.2812 0.69274 0.0
H755 H 0.17316 0.27215 0.68179 0.0
H756 H 0.12249 0.19082 0.6037 0.0
H757 H 0.14791 0.24632 0.63266 0.0
H758 H 0.05189 0.22061 0.69347 0.0
H759 H 0.02593 0.16604 0.66325 0.0
C760 C 0.11227 0.32225 0.71398 0.0
C761 C 0.14963 0.3363 0.71863 0.0
C762 C 0.09681 0.29062 0.69679 0.0
C763 C 0.11831 0.27199 0.68436 0.0
C764 C 0.15564 0.2859 0.68995 0.0
C765 C 0.17104 0.31765 0.70658 0.0
C766 C 0.10685 0.19704 0.62328 0.0
C767 C 0.07219 0.17391 0.63113 0.0
C768 C 0.1215 0.22889 0.64013 0.0
C769 C 0.10218 0.23828 0.66576 0.0
C770 C 0.0675 0.2149 0.67361 0.0
C771 C 0.05265 0.18334 0.65639 0.0
H772 H 0.73756 0.33745 0.48823 0.0
H773 H 0.79158 0.41425 0.56203 0.0
H774 H 0.69113 0.36376 0.48321 0.0
H775 H 0.74473 0.44043 0.55719 0.0
H776 H 0.66997 0.4954 0.51636 0.0
H777 H 0.71912 0.47227 0.51517 0.0
H778 H 0.64237 0.36724 0.52242 0.0
H779 H 0.59323 0.39019 0.52465 0.0
C780 C 0.7398 0.36032 0.50299 0.0
C781 C 0.76822 0.3739 0.52548 0.0
C782 C 0.71305 0.37513 0.50033 0.0
C783 C 0.7143 0.404 0.51989 0.0
C784 C 0.74329 0.4183 0.54165 0.0
C785 C 0.76991 0.40323 0.54459 0.0
C786 C 0.66353 0.46737 0.51786 0.0
C787 C 0.6276 0.44467 0.52086 0.0
C788 C 0.6917 0.45419 0.51708 0.0
C789 C 0.68452 0.41803 0.51881 0.0
C790 C 0.64863 0.39525 0.52069 0.0
C791 C 0.62047 0.40842 0.52183 0.0
loop_
_geom_bond_atom_site_label_1
_geom_bond_atom_site_label_2
_geom_bond_distance
_geom_bond_site_symmetry_2
_ccdc_geom_bond_type
H0 C1 0.949 . S
C1 H0 0.949 . S
C1 C2 1.395 . S
C1 C3 1.391 . S
C2 C1 1.395 . S
C2 C5 1.390 . S
C3 C1 1.391 . S
C3 C7 1.387 . S
C3 C8 1.491 . S
H4 C5 0.950 . S
C5 C2 1.390 . S
C5 H4 0.950 . S
C5 C6 1.378 . S
C6 C5 1.378 . S
C6 C7 1.409 . S
C7 C3 1.387 . S
C7 C6 1.409 . S
C7 H9 0.951 . S
C8 C3 1.491 . S
C8 C10 1.382 . S
C8 C12 1.404 . S
H9 C7 0.951 . S
C10 C8 1.382 . S
C10 C11 1.390 . S
C10 H15 0.949 . S
C11 C10 1.390 . S
C11 C16 1.399 . S
C12 C8 1.404 . S
C12 H13 0.950 . S
C12 C14 1.375 . S
H13 C12 0.950 . S
C14 C12 1.375 . S
C14 C16 1.382 . S
C14 H18 0.950 . S
H15 C10 0.949 . S
C16 C11 1.399 . S
C16 C14 1.382 . S
C16 H17 0.952 . S
H17 C16 0.952 . S
H18 C14 0.950 . S
H19 C20 0.949 . S
C20 H19 0.949 . S
C20 C21 1.395 . S
C20 C22 1.391 . S
C21 C20 1.395 . S
C21 C24 1.390 . S
C22 C20 1.391 . S
C22 C26 1.387 . S
C22 C27 1.491 . S
H23 C24 0.950 . S
C24 C21 1.390 . S
C24 H23 0.950 . S
C24 C25 1.378 . S
C25 C24 1.378 . S
C25 C26 1.409 . S
C26 C22 1.387 . S
C26 C25 1.409 . S
C26 H28 0.951 . S
C27 C22 1.491 . S
C27 C29 1.382 . S
C27 C31 1.404 . S
H28 C26 0.951 . S
C29 C27 1.382 . S
C29 C30 1.390 . S
C29 H34 0.949 . S
C30 C29 1.390 . S
C30 C35 1.399 . S
C31 C27 1.404 . S
C31 H32 0.950 . S
C31 C33 1.375 . S
H32 C31 0.950 . S
C33 C31 1.375 . S
C33 C35 1.382 . S
C33 H37 0.950 . S
H34 C29 0.949 . S
C35 C30 1.399 . S
C35 C33 1.382 . S
C35 H36 0.952 . S
H36 C35 0.952 . S
H37 C33 0.950 . S
H38 C39 0.949 . S
C39 H38 0.949 . S
C39 C40 1.395 . S
C39 C41 1.391 . S
C40 C39 1.395 . S
C40 C43 1.390 . S
C41 C39 1.391 . S
C41 C45 1.387 . S
C41 C46 1.491 . S
H42 C43 0.950 . S
C43 C40 1.390 . S
C43 H42 0.950 . S
C43 C44 1.378 . S
C44 C43 1.378 . S
C44 C45 1.409 . S
C45 C41 1.387 . S
C45 C44 1.409 . S
C45 H47 0.951 . S
C46 C41 1.491 . S
C46 C48 1.382 . S
C46 C50 1.404 . S
H47 C45 0.951 . S
C48 C46 1.382 . S
C48 C49 1.390 . S
C48 H53 0.949 . S
C49 C48 1.390 . S
C49 C54 1.399 . S
C50 C46 1.404 . S
C50 H51 0.950 . S
C50 C52 1.375 . S
H51 C50 0.950 . S
C52 C50 1.375 . S
C52 C54 1.382 . S
C52 H56 0.950 . S
H53 C48 0.949 . S
C54 C49 1.399 . S
C54 C52 1.382 . S
C54 H55 0.952 . S
H55 C54 0.952 . S
H56 C52 0.950 . S
H57 C58 0.949 . S
C58 H57 0.949 . S
C58 C59 1.395 . S
C58 C60 1.391 . S
C59 C58 1.395 . S
C59 C62 1.390 . S
C60 C58 1.391 . S
C60 C64 1.387 . S
C60 C65 1.491 . S
H61 C62 0.950 . S
C62 C59 1.390 . S
C62 H61 0.950 . S
C62 C63 1.378 . S
C63 C62 1.378 . S
C63 C64 1.409 . S
C64 C60 1.387 . S
C64 C63 1.409 . S
C64 H66 0.951 . S
C65 C60 1.491 . S
C65 C67 1.382 . S
C65 C69 1.404 . S
H66 C64 0.951 . S
C67 C65 1.382 . S
C67 C68 1.390 . S
C67 H72 0.949 . S
C68 C67 1.390 . S
C68 C73 1.399 . S
C69 C65 1.404 . S
C69 H70 0.950 . S
C69 C71 1.375 . S
H70 C69 0.950 . S
C71 C69 1.375 . S
C71 C73 1.382 . S
C71 H75 0.950 . S
H72 C67 0.949 . S
C73 C68 1.399 . S
C73 C71 1.382 . S
C73 H74 0.952 . S
H74 C73 0.952 . S
H75 C71 0.950 . S
H76 C77 0.949 . S
C77 H76 0.949 . S
C77 C78 1.395 . S
C77 C79 1.391 . S
C78 C77 1.395 . S
C78 C81 1.390 . S
C79 C77 1.391 . S
C79 C83 1.387 . S
C79 C84 1.491 . S
H80 C81 0.950 . S
C81 C78 1.390 . S
C81 H80 0.950 . S
C81 C82 1.378 . S
C82 C81 1.378 . S
C82 C83 1.409 . S
C83 C79 1.387 . S
C83 C82 1.409 . S
C83 H85 0.951 . S
C84 C79 1.491 . S
C84 C86 1.382 . S
C84 C88 1.404 . S
H85 C83 0.951 . S
C86 C84 1.382 . S
C86 C87 1.390 . S
C86 H91 0.949 . S
C87 C86 1.390 . S
C87 C92 1.399 . S
C88 C84 1.404 . S
C88 H89 0.950 . S
C88 C90 1.375 . S
H89 C88 0.950 . S
C90 C88 1.375 . S
C90 C92 1.382 . S
C90 H94 0.950 . S
H91 C86 0.949 . S
C92 C87 1.399 . S
C92 C90 1.382 . S
C92 H93 0.952 . S
H93 C92 0.952 . S
H94 C90 0.950 . S
H95 C96 0.949 . S
C96 H95 0.949 . S
C96 C97 1.395 . S
C96 C98 1.391 . S
C97 C96 1.395 . S
C97 C100 1.390 . S
C98 C96 1.391 . S
C98 C102 1.387 . S
C98 C103 1.491 . S
H99 C100 0.950 . S
C100 C97 1.390 . S
C100 H99 0.950 . S
C100 C101 1.378 . S
C101 C100 1.378 . S
C101 C102 1.409 . S
C102 C98 1.387 . S
C102 C101 1.409 . S
C102 H104 0.951 . S
C103 C98 1.491 . S
C103 C105 1.382 . S
C103 C107 1.404 . S
H104 C102 0.951 . S
C105 C103 1.382 . S
C105 C106 1.390 . S
C105 H110 0.949 . S
C106 C105 1.390 . S
C106 C111 1.399 . S
C107 C103 1.404 . S
C107 H108 0.950 . S
C107 C109 1.375 . S
H108 C107 0.950 . S
C109 C107 1.375 . S
C109 C111 1.382 . S
C109 H113 0.950 . S
H110 C105 0.949 . S
C111 C106 1.399 . S
C111 C109 1.382 . S
C111 H112 0.952 . S
H112 C111 0.952 . S
H113 C109 0.950 . S
H114 C115 0.949 . S
C115 H114 0.949 . S
C115 C116 1.395 . S
C115 C117 1.391 . S
C116 C115 1.395 . S
C116 C119 1.390 . S
C117 C115 1.391 . S
C117 C121 1.387 . S
C117 C122 1.491 . S
H118 C119 0.950 . S
C119 C116 1.390 . S
C119 H118 0.950 . S
C119 C120 1.378 . S
C120 C119 1.378 . S
C120 C121 1.409 . S
C121 C117 1.387 . S
C121 C120 1.409 . S
C121 H123 0.951 . S
C122 C117 1.491 . S
C122 C124 1.382 . S
C122 C126 1.404 . S
H123 C121 0.951 . S
C124 C122 1.382 . S
C124 C125 1.390 . S
C124 H129 0.949 . S
C125 C124 1.390 . S
C125 C130 1.399 . S
C126 C122 1.404 . S
C126 H127 0.950 . S
C126 C128 1.375 . S
H127 C126 0.950 . S
C128 C126 1.375 . S
C128 C130 1.382 . S
C128 H132 0.950 . S
H129 C124 0.949 . S
C130 C125 1.399 . S
C130 C128 1.382 . S
C130 H131 0.952 . S
H131 C130 0.952 . S
H132 C128 0.950 . S
H133 C134 0.949 . S
C134 H133 0.949 . S
C134 C135 1.395 . S
C134 C136 1.391 . S
C135 C134 1.395 . S
C135 C138 1.390 . S
C136 C134 1.391 . S
C136 C140 1.387 . S
C136 C141 1.491 . S
H137 C138 0.950 . S
C138 C135 1.390 . S
C138 H137 0.950 . S
C138 C139 1.378 . S
C139 C138 1.378 . S
C139 C140 1.409 . S
C140 C136 1.387 . S
C140 C139 1.409 . S
C140 H142 0.951 . S
C141 C136 1.491 . S
C141 C143 1.382 . S
C141 C145 1.404 . S
H142 C140 0.951 . S
C143 C141 1.382 . S
C143 C144 1.390 . S
C143 H148 0.949 . S
C144 C143 1.390 . S
C144 C149 1.399 . S
C145 C141 1.404 . S
C145 H146 0.950 . S
C145 C147 1.375 . S
H146 C145 0.950 . S
C147 C145 1.375 . S
C147 C149 1.382 . S
C147 H151 0.950 . S
H148 C143 0.949 . S
C149 C144 1.399 . S
C149 C147 1.382 . S
C149 H150 0.952 . S
H150 C149 0.952 . S
H151 C147 0.950 . S
Tb152 C161 2.764 . S
Tb152 O162 2.325 . S
Tb152 O165 2.303 . S
Tb152 O169 2.322 . S
Tb152 O170 2.349 1_545 S
Tb152 O173 2.415 . S
Tb152 O174 2.399 . S
Tb153 O163 2.322 . S
Tb153 O164 2.349 1_655 S
Tb153 O166 2.415 1_545 S
Tb153 O167 2.399 . S
Tb153 O168 2.325 1_655 S
Tb153 O171 2.303 . S
Tb153 C182 2.764 1_545 S
C154 O170 1.261 1_655 S
C154 O171 1.257 1_565 S
C155 C158 1.358 . S
C155 C159 1.332 . S
C155 C161 1.504 . S
C156 C157 1.373 . S
C156 C160 1.308 . S
C157 C156 1.373 . S
C157 C158 1.429 . S
C157 H184 0.932 . S
C158 C155 1.358 . S
C158 C157 1.429 . S
C158 H185 0.930 . S
C159 C155 1.332 . S
C159 C160 1.394 . S
C159 H186 0.932 . S
C160 C156 1.308 . S
C160 C159 1.394 . S
C160 H187 0.929 . S
C161 Tb152 2.764 . S
C161 C155 1.504 . S
C161 O173 1.239 . S
C161 O174 1.263 . S
O162 Tb152 2.325 . S
O162 C172 1.236 1_455 S
O163 Tb153 2.322 . S
O163 C172 1.257 . S
O164 Tb153 2.349 1_455 S
O164 C175 1.261 . S
O165 Tb152 2.303 . S
O165 C175 1.257 . S
O166 Tb153 2.415 1_565 S
O166 C182 1.239 . S
O167 Tb153 2.399 . S
O167 C182 1.263 1_545 S
O168 Tb153 2.325 1_455 S
O168 C183 1.236 . S
O169 Tb152 2.322 . S
O169 C183 1.257 . S
O170 Tb152 2.349 1_565 S
O170 C154 1.261 1_455 S
O171 Tb153 2.303 . S
O171 C154 1.257 1_545 S
C172 O162 1.236 1_655 S
C172 O163 1.257 . S
O173 Tb152 2.415 . S
O173 C161 1.239 . S
O174 Tb152 2.399 . S
O174 C161 1.263 . S
C175 O164 1.261 . S
C175 O165 1.257 . S
C176 C179 1.358 . S
C176 C180 1.332 . S
C176 C182 1.504 . S
C177 C178 1.373 . S
C177 C181 1.308 . S
C178 C177 1.373 . S
C178 C179 1.429 . S
C178 H188 0.932 . S
C179 C176 1.358 . S
C179 C178 1.429 . S
C179 H189 0.930 1_565 S
C180 C176 1.332 . S
C180 C181 1.394 . S
C180 H190 0.932 . S
C181 C177 1.308 . S
C181 C180 1.394 . S
C181 H191 0.929 . S
C182 Tb153 2.764 1_565 S
C182 O166 1.239 . S
C182 O167 1.263 1_565 S
C182 C176 1.504 . S
C183 O168 1.236 . S
C183 O169 1.257 . S
H184 C157 0.932 . S
H185 C158 0.930 . S
H186 C159 0.932 . S
H187 C160 0.929 . S
H188 C178 0.932 . S
H189 C179 0.930 1_545 S
H190 C180 0.932 . S
H191 C181 0.929 . S
Tb192 C201 2.764 . S
Tb192 O202 2.325 . S
Tb192 O205 2.303 . S
Tb192 O209 2.322 1_545 S
Tb192 O210 2.349 . S
Tb192 O213 2.415 . S
Tb192 O214 2.399 . S
Tb193 O203 2.322 . S
Tb193 O204 2.349 . S
Tb193 O206 2.415 1_545 S
Tb193 O207 2.399 1_545 S
Tb193 O208 2.325 1_545 S
Tb193 O211 2.303 . S
Tb193 C222 2.764 1_545 S
C194 O210 1.261 . S
C194 O211 1.257 . S
C195 C198 1.358 . S
C195 C199 1.332 . S
C195 C201 1.504 . S
C196 C197 1.373 . S
C196 C200 1.308 . S
C197 C196 1.373 . S
C197 C198 1.429 . S
C197 H224 0.932 . S
C198 C195 1.358 . S
C198 C197 1.429 . S
C198 H225 0.930 . S
C199 C195 1.332 . S
C199 C200 1.394 . S
C199 H226 0.932 . S
C200 C196 1.308 . S
C200 C199 1.394 . S
C200 H227 0.929 . S
C201 Tb192 2.764 . S
C201 C195 1.504 . S
C201 O213 1.239 . S
C201 O214 1.263 . S
O202 Tb192 2.325 . S
O202 C212 1.236 . S
O203 Tb193 2.322 . S
O203 C212 1.257 . S
O204 Tb193 2.349 . S
O204 C215 1.261 . S
O205 Tb192 2.303 . S
O205 C215 1.257 . S
O206 Tb193 2.415 1_565 S
O206 C222 1.239 . S
O207 Tb193 2.399 1_565 S
O207 C222 1.263 . S
O208 Tb193 2.325 1_565 S
O208 C223 1.236 . S
O209 Tb192 2.322 1_565 S
O209 C223 1.257 . S
O210 Tb192 2.349 . S
O210 C194 1.261 . S
O211 Tb193 2.303 . S
O211 C194 1.257 . S
C212 O202 1.236 . S
C212 O203 1.257 . S
O213 Tb192 2.415 . S
O213 C201 1.239 . S
O214 Tb192 2.399 . S
O214 C201 1.263 . S
C215 O204 1.261 . S
C215 O205 1.257 . S
C216 C219 1.358 . S
C216 C220 1.332 . S
C216 C222 1.504 1_556 S
C217 C218 1.373 . S
C217 C221 1.308 . S
C218 C217 1.373 . S
C218 C219 1.429 . S
C218 H228 0.932 . S
C219 C216 1.358 . S
C219 C218 1.429 . S
C219 H229 0.930 . S
C220 C216 1.332 . S
C220 C221 1.394 . S
C220 H230 0.932 . S
C221 C217 1.308 . S
C221 C220 1.394 . S
C221 H231 0.929 . S
C222 Tb193 2.764 1_565 S
C222 O206 1.239 . S
C222 O207 1.263 . S
C222 C216 1.504 1_554 S
C223 O208 1.236 . S
C223 O209 1.257 . S
H224 C197 0.932 . S
H225 C198 0.930 . S
H226 C199 0.932 . S
H227 C200 0.929 . S
H228 C218 0.932 . S
H229 C219 0.930 . S
H230 C220 0.932 . S
H231 C221 0.929 . S
Tb232 C241 2.764 . S
Tb232 O242 2.325 . S
Tb232 O245 2.303 . S
Tb232 O249 2.322 . S
Tb232 O250 2.349 . S
Tb232 O253 2.415 . S
Tb232 O254 2.399 . S
Tb233 O243 2.322 . S
Tb233 O244 2.349 . S
Tb233 O246 2.415 . S
Tb233 O247 2.399 . S
Tb233 O248 2.325 . S
Tb233 O251 2.303 . S
Tb233 C262 2.764 . S
C234 O250 1.261 . S
C234 O251 1.257 . S
C235 C238 1.358 . S
C235 C239 1.332 . S
C235 C241 1.504 . S
C236 C237 1.373 . S
C236 C240 1.308 . S
C237 C236 1.373 . S
C237 C238 1.429 . S
C237 H264 0.932 . S
C238 C235 1.358 . S
C238 C237 1.429 . S
C238 H265 0.930 . S
C239 C235 1.332 . S
C239 C240 1.394 . S
C239 H266 0.932 . S
C240 C236 1.308 . S
C240 C239 1.394 . S
C240 H267 0.929 . S
C241 Tb232 2.764 . S
C241 C235 1.504 . S
C241 O253 1.239 . S
C241 O254 1.263 . S
O242 Tb232 2.325 . S
O242 C252 1.236 . S
O243 Tb233 2.322 . S
O243 C252 1.257 . S
O244 Tb233 2.349 . S
O244 C255 1.261 . S
O245 Tb232 2.303 . S
O245 C255 1.257 . S
O246 Tb233 2.415 . S
O246 C262 1.239 . S
O247 Tb233 2.399 . S
O247 C262 1.263 . S
O248 Tb233 2.325 . S
O248 C263 1.236 . S
O249 Tb232 2.322 . S
O249 C263 1.257 . S
O250 Tb232 2.349 . S
O250 C234 1.261 . S
O251 Tb233 2.303 . S
O251 C234 1.257 . S
C252 O242 1.236 . S
C252 O243 1.257 . S
O253 Tb232 2.415 . S
O253 C241 1.239 . S
O254 Tb232 2.399 . S
O254 C241 1.263 . S
C255 O244 1.261 . S
C255 O245 1.257 . S
C256 C259 1.358 . S
C256 C260 1.332 . S
C256 C262 1.504 . S
C257 C258 1.373 . S
C257 C261 1.308 . S
C258 C257 1.373 . S
C258 C259 1.429 . S
C258 H268 0.932 . S
C259 C256 1.358 . S
C259 C258 1.429 . S
C259 H269 0.930 . S
C260 C256 1.332 . S
C260 C261 1.394 . S
C260 H270 0.932 . S
C261 C257 1.308 . S
C261 C260 1.394 . S
C261 H271 0.929 . S
C262 Tb233 2.764 . S
C262 O246 1.239 . S
C262 O247 1.263 . S
C262 C256 1.504 . S
C263 O248 1.236 . S
C263 O249 1.257 . S
H264 C237 0.932 . S
H265 C238 0.930 . S
H266 C239 0.932 . S
H267 C240 0.929 . S
H268 C258 0.932 . S
H269 C259 0.930 . S
H270 C260 0.932 . S
H271 C261 0.929 . S
Tb272 C281 2.764 . S
Tb272 O282 2.325 1_455 S
Tb272 O285 2.303 1_556 S
Tb272 O289 2.322 1_556 S
Tb272 O290 2.349 . S
Tb272 O293 2.415 1_455 S
Tb272 O294 2.399 . S
Tb273 O283 2.322 1_455 S
Tb273 O284 2.349 . S
Tb273 O286 2.415 . S
Tb273 O287 2.399 . S
Tb273 O288 2.325 . S
Tb273 O291 2.303 1_554 S
Tb273 C302 2.764 . S
C274 O290 1.261 . S
C274 O291 1.257 . S
C275 C278 1.358 . S
C275 C279 1.332 . S
C275 C281 1.504 1_655 S
C276 C277 1.373 . S
C276 C280 1.308 . S
C277 C276 1.373 . S
C277 C278 1.429 . S
C277 H304 0.932 . S
C278 C275 1.358 . S
C278 C277 1.429 . S
C278 H305 0.930 1_655 S
C279 C275 1.332 . S
C279 C280 1.394 . S
C279 H306 0.932 . S
C280 C276 1.308 . S
C280 C279 1.394 . S
C280 H307 0.929 . S
C281 Tb272 2.764 . S
C281 C275 1.504 1_455 S
C281 O293 1.240 1_455 S
C281 O294 1.263 . S
O282 Tb272 2.325 1_655 S
O282 C292 1.236 . S
O283 Tb273 2.322 1_655 S
O283 C292 1.257 1_554 S
O284 Tb273 2.349 . S
O284 C295 1.261 . S
O285 Tb272 2.303 1_554 S
O285 C295 1.257 . S
O286 Tb273 2.415 . S
O286 C302 1.239 . S
O287 Tb273 2.399 . S
O287 C302 1.263 . S
O288 Tb273 2.325 . S
O288 C303 1.236 . S
O289 Tb272 2.322 1_554 S
O289 C303 1.257 . S
O290 Tb272 2.349 . S
O290 C274 1.261 . S
O291 Tb273 2.303 1_556 S
O291 C274 1.257 . S
C292 O282 1.236 . S
C292 O283 1.257 1_556 S
O293 Tb272 2.415 1_655 S
O293 C281 1.240 1_655 S
O294 Tb272 2.399 . S
O294 C281 1.263 . S
C295 O284 1.261 . S
C295 O285 1.257 . S
C296 C299 1.358 . S
C296 C300 1.332 . S
C296 C302 1.504 . S
C297 C298 1.373 . S
C297 C301 1.308 . S
C298 C297 1.373 . S
C298 C299 1.429 . S
C298 H308 0.932 . S
C299 C296 1.358 . S
C299 C298 1.429 . S
C299 H309 0.930 . S
C300 C296 1.332 . S
C300 C301 1.394 . S
C300 H310 0.932 . S
C301 C297 1.308 . S
C301 C300 1.394 . S
C301 H311 0.929 . S
C302 Tb273 2.764 . S
C302 O286 1.239 . S
C302 O287 1.263 . S
C302 C296 1.504 . S
C303 O288 1.236 . S
C303 O289 1.257 . S
H304 C277 0.932 . S
H305 C278 0.930 1_455 S
H306 C279 0.932 . S
H307 C280 0.929 . S
H308 C298 0.932 . S
H309 C299 0.930 . S
H310 C300 0.932 . S
H311 C301 0.929 . S
H312 C320 0.950 . S
H313 C325 0.950 . S
H314 C322 0.950 . S
H315 C324 0.950 . S
H316 C326 0.950 . S
H317 C328 0.950 . S
H318 C330 0.950 . S
H319 C331 0.950 . S
C320 H312 0.950 . S
C320 C321 1.386 . S
C320 C322 1.391 . S
C321 C320 1.386 . S
C321 C325 1.393 . S
C322 H314 0.950 . S
C322 C320 1.391 . S
C322 C323 1.400 . S
C323 C322 1.400 . S
C323 C324 1.398 . S
C323 C329 1.491 . S
C324 H315 0.950 . S
C324 C323 1.398 . S
C324 C325 1.391 . S
C325 H313 0.950 . S
C325 C321 1.393 . S
C325 C324 1.391 . S
C326 H316 0.950 . S
C326 C327 1.386 . S
C326 C328 1.391 . S
C327 C326 1.386 . S
C327 C331 1.393 . S
C328 H317 0.950 . S
C328 C326 1.391 . S
C328 C329 1.400 . S
C329 C323 1.491 . S
C329 C328 1.400 . S
C329 C330 1.398 . S
C330 H318 0.950 . S
C330 C329 1.398 . S
C330 C331 1.391 . S
C331 H319 0.950 . S
C331 C327 1.393 . S
C331 C330 1.391 . S
H332 C340 0.950 . S
H333 C345 0.950 . S
H334 C342 0.950 . S
H335 C344 0.950 . S
H336 C346 0.950 . S
H337 C348 0.950 . S
H338 C350 0.950 . S
H339 C351 0.950 . S
C340 H332 0.950 . S
C340 C341 1.386 . S
C340 C342 1.391 . S
C341 C340 1.386 . S
C341 C345 1.393 . S
C342 H334 0.950 . S
C342 C340 1.391 . S
C342 C343 1.400 . S
C343 C342 1.400 . S
C343 C344 1.398 . S
C343 C349 1.491 . S
C344 H335 0.950 . S
C344 C343 1.398 . S
C344 C345 1.391 . S
C345 H333 0.950 . S
C345 C341 1.393 . S
C345 C344 1.391 . S
C346 H336 0.950 . S
C346 C347 1.386 . S
C346 C348 1.391 . S
C347 C346 1.386 . S
C347 C351 1.393 . S
C348 H337 0.950 . S
C348 C346 1.391 . S
C348 C349 1.400 . S
C349 C343 1.491 . S
C349 C348 1.400 . S
C349 C350 1.398 . S
C350 H338 0.950 . S
C350 C349 1.398 . S
C350 C351 1.391 . S
C351 H339 0.950 . S
C351 C347 1.393 . S
C351 C350 1.391 . S
H352 C360 0.950 . S
H353 C365 0.950 . S
H354 C362 0.950 . S
H355 C364 0.950 . S
H356 C366 0.950 . S
H357 C368 0.950 . S
H358 C370 0.950 . S
H359 C371 0.950 . S
C360 H352 0.950 . S
C360 C361 1.386 . S
C360 C362 1.391 . S
C361 C360 1.386 . S
C361 C365 1.393 . S
C362 H354 0.950 . S
C362 C360 1.391 . S
C362 C363 1.400 . S
C363 C362 1.400 . S
C363 C364 1.398 . S
C363 C369 1.491 . S
C364 H355 0.950 . S
C364 C363 1.398 . S
C364 C365 1.391 . S
C365 H353 0.950 . S
C365 C361 1.393 . S
C365 C364 1.391 . S
C366 H356 0.950 . S
C366 C367 1.386 . S
C366 C368 1.391 . S
C367 C366 1.386 . S
C367 C371 1.393 . S
C368 H357 0.950 . S
C368 C366 1.391 . S
C368 C369 1.400 . S
C369 C363 1.491 . S
C369 C368 1.400 . S
C369 C370 1.398 . S
C370 H358 0.950 . S
C370 C369 1.398 . S
C370 C371 1.391 . S
C371 H359 0.950 . S
C371 C367 1.393 . S
C371 C370 1.391 . S
H372 C380 0.950 . S
H373 C385 0.950 . S
H374 C382 0.950 . S
H375 C384 0.950 . S
H376 C386 0.950 . S
H377 C388 0.950 . S
H378 C390 0.950 . S
H379 C391 0.950 1_455 S
C380 H372 0.950 . S
C380 C381 1.386 . S
C380 C382 1.391 . S
C381 C380 1.386 . S
C381 C385 1.393 . S
C382 H374 0.950 . S
C382 C380 1.391 . S
C382 C383 1.400 . S
C383 C382 1.400 . S
C383 C384 1.398 . S
C383 C389 1.491 . S
C384 H375 0.950 . S
C384 C383 1.398 . S
C384 C385 1.391 . S
C385 H373 0.950 . S
C385 C381 1.393 . S
C385 C384 1.391 . S
C386 H376 0.950 . S
C386 C387 1.386 . S
C386 C388 1.391 . S
C387 C386 1.386 . S
C387 C391 1.393 . S
C388 H377 0.950 . S
C388 C386 1.391 . S
C388 C389 1.400 . S
C389 C383 1.491 . S
C389 C388 1.400 . S
C389 C390 1.398 . S
C390 H378 0.950 . S
C390 C389 1.398 . S
C390 C391 1.391 . S
C391 H379 0.950 1_655 S
C391 C387 1.393 . S
C391 C390 1.391 . S
H392 C400 0.950 . S
H393 C405 0.950 . S
H394 C402 0.950 . S
H395 C404 0.950 . S
H396 C406 0.950 . S
H397 C408 0.950 . S
H398 C410 0.950 . S
H399 C411 0.950 . S
C400 H392 0.950 . S
C400 C401 1.386 . S
C400 C402 1.391 . S
C401 C400 1.386 . S
C401 C405 1.393 . S
C402 H394 0.950 . S
C402 C400 1.391 . S
C402 C403 1.400 . S
C403 C402 1.400 . S
C403 C404 1.398 . S
C403 C409 1.491 . S
C404 H395 0.950 . S
C404 C403 1.398 . S
C404 C405 1.391 . S
C405 H393 0.950 . S
C405 C401 1.393 . S
C405 C404 1.391 . S
C406 H396 0.950 . S
C406 C407 1.386 . S
C406 C408 1.391 . S
C407 C406 1.386 . S
C407 C411 1.393 . S
C408 H397 0.950 . S
C408 C406 1.391 . S
C408 C409 1.400 . S
C409 C403 1.491 . S
C409 C408 1.400 . S
C409 C410 1.398 . S
C410 H398 0.950 . S
C410 C409 1.398 . S
C410 C411 1.391 . S
C411 H399 0.950 . S
C411 C407 1.393 . S
C411 C410 1.391 . S
H412 C420 0.950 . S
H413 C425 0.950 . S
H414 C422 0.950 . S
H415 C424 0.950 . S
H416 C426 0.950 1_545 S
H417 C428 0.950 . S
H418 C430 0.950 . S
H419 C431 0.950 . S
C420 H412 0.950 . S
C420 C421 1.386 . S
C420 C422 1.391 . S
C421 C420 1.386 . S
C421 C425 1.393 . S
C422 H414 0.950 . S
C422 C420 1.391 . S
C422 C423 1.400 . S
C423 C422 1.400 . S
C423 C424 1.398 . S
C423 C429 1.491 . S
C424 H415 0.950 . S
C424 C423 1.398 . S
C424 C425 1.391 . S
C425 H413 0.950 . S
C425 C421 1.393 . S
C425 C424 1.391 . S
C426 H416 0.950 1_565 S
C426 C427 1.386 . S
C426 C428 1.391 . S
C427 C426 1.386 . S
C427 C431 1.393 . S
C428 H417 0.950 . S
C428 C426 1.391 . S
C428 C429 1.400 . S
C429 C423 1.491 . S
C429 C428 1.400 . S
C429 C430 1.398 . S
C430 H418 0.950 . S
C430 C429 1.398 . S
C430 C431 1.391 . S
C431 H419 0.950 . S
C431 C427 1.393 . S
C431 C430 1.391 . S
H432 C440 0.950 . S
H433 C445 0.950 . S
H434 C442 0.959 . S
H435 C444 0.950 . S
H436 C446 0.950 . S
H437 C448 0.950 . S
H438 C450 0.950 1_554 S
H439 C451 0.950 . S
C440 H432 0.950 . S
C440 C441 1.386 . S
C440 C442 1.391 . S
C441 C440 1.386 . S
C441 C445 1.393 . S
C442 H434 0.959 . S
C442 C440 1.391 . S
C442 C443 1.400 . S
C443 C442 1.400 . S
C443 C444 1.398 . S
C443 C449 1.491 . S
C444 H435 0.950 . S
C444 C443 1.398 . S
C444 C445 1.391 . S
C445 H433 0.950 . S
C445 C441 1.393 . S
C445 C444 1.391 . S
C446 H436 0.950 . S
C446 C447 1.386 . S
C446 C448 1.391 . S
C447 C446 1.386 . S
C447 C451 1.393 1_556 S
C448 H437 0.950 . S
C448 C446 1.391 . S
C448 C449 1.400 . S
C449 C443 1.491 . S
C449 C448 1.400 . S
C449 C450 1.398 . S
C450 H438 0.950 1_556 S
C450 C449 1.398 . S
C450 C451 1.391 1_556 S
C451 H439 0.950 . S
C451 C447 1.393 1_554 S
C451 C450 1.391 1_554 S
H452 C460 0.950 . S
H453 C465 0.950 . S
H454 C462 0.950 . S
H455 C464 0.950 . S
H456 C466 0.950 . S
H457 C468 0.950 . S
H458 C470 0.950 . S
H459 C471 0.950 . S
C460 H452 0.950 . S
C460 C461 1.386 . S
C460 C462 1.391 . S
C461 C460 1.386 . S
C461 C465 1.393 . S
C462 H454 0.950 . S
C462 C460 1.391 . S
C462 C463 1.400 . S
C463 C462 1.400 . S
C463 C464 1.398 . S
C463 C469 1.491 . S
C464 H455 0.950 . S
C464 C463 1.398 . S
C464 C465 1.391 . S
C465 H453 0.950 . S
C465 C461 1.393 . S
C465 C464 1.391 . S
C466 H456 0.950 . S
C466 C467 1.386 . S
C466 C468 1.391 . S
C467 C466 1.386 . S
C467 C471 1.393 . S
C468 H457 0.950 . S
C468 C466 1.391 . S
C468 C469 1.400 . S
C469 C463 1.491 . S
C469 C468 1.400 . S
C469 C470 1.398 . S
C470 H458 0.950 . S
C470 C469 1.398 . S
C470 C471 1.391 . S
C471 H459 0.950 . S
C471 C467 1.393 . S
C471 C470 1.391 . S
H472 C480 0.950 . S
H473 C485 0.950 . S
H474 C482 0.950 . S
H475 C484 0.950 . S
H476 C486 0.950 . S
H477 C488 0.950 . S
H478 C490 0.950 . S
H479 C491 0.950 . S
C480 H472 0.950 . S
C480 C481 1.386 . S
C480 C482 1.391 . S
C481 C480 1.386 . S
C481 C485 1.393 . S
C482 H474 0.950 . S
C482 C480 1.391 . S
C482 C483 1.400 . S
C483 C482 1.400 . S
C483 C484 1.398 . S
C483 C489 1.491 . S
C484 H475 0.950 . S
C484 C483 1.398 . S
C484 C485 1.391 . S
C485 H473 0.950 . S
C485 C481 1.393 . S
C485 C484 1.391 . S
C486 H476 0.950 . S
C486 C487 1.386 . S
C486 C488 1.391 . S
C487 C486 1.386 . S
C487 C491 1.393 . S
C488 H477 0.950 . S
C488 C486 1.391 . S
C488 C489 1.400 . S
C489 C483 1.491 . S
C489 C488 1.400 . S
C489 C490 1.398 . S
C490 H478 0.950 . S
C490 C489 1.398 . S
C490 C491 1.391 . S
C491 H479 0.950 . S
C491 C487 1.393 . S
C491 C490 1.391 . S
H492 C500 0.950 1_554 S
H493 C505 0.950 . S
H494 C502 0.950 . S
H495 C504 0.950 . S
H496 C506 0.950 1_556 S
H497 C508 0.950 . S
H498 C510 0.950 . S
H499 C511 0.950 . S
C500 H492 0.950 1_556 S
C500 C501 1.386 . S
C500 C502 1.391 1_556 S
C501 C500 1.386 . S
C501 C505 1.393 . S
C502 H494 0.950 . S
C502 C500 1.391 1_554 S
C502 C503 1.400 1_554 S
C503 C502 1.400 1_556 S
C503 C504 1.398 . S
C503 C509 1.491 1_556 S
C504 H495 0.950 . S
C504 C503 1.398 . S
C504 C505 1.391 . S
C505 H493 0.950 . S
C505 C501 1.393 . S
C505 C504 1.391 . S
C506 H496 0.950 1_554 S
C506 C507 1.386 . S
C506 C508 1.391 1_554 S
C507 C506 1.386 . S
C507 C511 1.393 . S
C508 H497 0.950 . S
C508 C506 1.391 1_556 S
C508 C509 1.400 1_556 S
C509 C503 1.491 1_554 S
C509 C508 1.400 1_554 S
C509 C510 1.398 . S
C510 H498 0.950 . S
C510 C509 1.398 . S
C510 C511 1.391 . S
C511 H499 0.950 . S
C511 C507 1.393 . S
C511 C510 1.391 . S
H512 C520 0.950 . S
H513 C525 0.950 . S
H514 C522 0.950 . S
H515 C524 0.950 . S
H516 C526 0.950 . S
H517 C528 0.950 . S
H518 C530 0.950 . S
H519 C531 0.950 . S
C520 H512 0.950 . S
C520 C521 1.386 . S
C520 C522 1.391 . S
C521 C520 1.386 . S
C521 C525 1.393 . S
C522 H514 0.950 . S
C522 C520 1.391 . S
C522 C523 1.400 . S
C523 C522 1.400 . S
C523 C524 1.398 . S
C523 C529 1.491 . S
C524 H515 0.950 . S
C524 C523 1.398 . S
C524 C525 1.391 . S
C525 H513 0.950 . S
C525 C521 1.393 . S
C525 C524 1.391 . S
C526 H516 0.950 . S
C526 C527 1.386 . S
C526 C528 1.391 . S
C527 C526 1.386 . S
C527 C531 1.393 . S
C528 H517 0.950 . S
C528 C526 1.391 . S
C528 C529 1.400 . S
C529 C523 1.491 . S
C529 C528 1.400 . S
C529 C530 1.398 . S
C530 H518 0.950 . S
C530 C529 1.398 . S
C530 C531 1.391 . S
C531 H519 0.950 . S
C531 C527 1.393 . S
C531 C530 1.391 . S
H532 C540 0.950 . S
H533 C545 0.950 . S
H534 C542 0.950 . S
H535 C544 0.950 . S
H536 C546 0.950 . S
H537 C548 0.950 . S
H538 C550 0.950 . S
H539 C551 0.950 . S
C540 H532 0.950 . S
C540 C541 1.386 . S
C540 C542 1.391 . S
C541 C540 1.386 . S
C541 C545 1.393 . S
C542 H534 0.950 . S
C542 C540 1.391 . S
C542 C543 1.400 . S
C543 C542 1.400 . S
C543 C544 1.398 . S
C543 C549 1.491 . S
C544 H535 0.950 . S
C544 C543 1.398 . S
C544 C545 1.391 . S
C545 H533 0.950 . S
C545 C541 1.393 . S
C545 C544 1.391 . S
C546 H536 0.950 . S
C546 C547 1.386 . S
C546 C548 1.391 . S
C547 C546 1.386 . S
C547 C551 1.393 . S
C548 H537 0.950 . S
C548 C546 1.391 . S
C548 C549 1.400 . S
C549 C543 1.491 . S
C549 C548 1.400 . S
C549 C550 1.398 . S
C550 H538 0.950 . S
C550 C549 1.398 . S
C550 C551 1.391 . S
C551 H539 0.950 . S
C551 C547 1.393 . S
C551 C550 1.391 . S
H552 C560 0.950 . S
H553 C565 0.950 . S
H554 C562 0.950 . S
H555 C564 0.950 . S
H556 C566 0.950 . S
H557 C568 0.950 . S
H558 C570 0.950 . S
H559 C571 0.950 . S
C560 H552 0.950 . S
C560 C561 1.386 . S
C560 C562 1.391 . S
C561 C560 1.386 . S
C561 C565 1.393 . S
C562 H554 0.950 . S
C562 C560 1.391 . S
C562 C563 1.400 . S
C563 C562 1.400 . S
C563 C564 1.398 . S
C563 C569 1.491 . S
C564 H555 0.950 . S
C564 C563 1.398 . S
C564 C565 1.391 . S
C565 H553 0.950 . S
C565 C561 1.393 . S
C565 C564 1.391 . S
C566 H556 0.950 . S
C566 C567 1.386 . S
C566 C568 1.391 . S
C567 C566 1.386 . S
C567 C571 1.393 . S
C568 H557 0.950 . S
C568 C566 1.391 . S
C568 C569 1.400 . S
C569 C563 1.491 . S
C569 C568 1.400 . S
C569 C570 1.398 . S
C570 H558 0.950 . S
C570 C569 1.398 . S
C570 C571 1.391 . S
C571 H559 0.950 . S
C571 C567 1.393 . S
C571 C570 1.391 . S
H572 C580 0.950 . S
H573 C585 0.950 . S
H574 C582 0.950 . S
H575 C584 0.950 . S
H576 C586 0.950 . S
H577 C588 0.950 . S
H578 C590 0.950 . S
H579 C591 0.950 . S
C580 H572 0.950 . S
C580 C581 1.386 . S
C580 C582 1.391 . S
C581 C580 1.386 . S
C581 C585 1.393 . S
C582 H574 0.950 . S
C582 C580 1.391 . S
C582 C583 1.400 . S
C583 C582 1.400 . S
C583 C584 1.398 . S
C583 C589 1.491 . S
C584 H575 0.950 . S
C584 C583 1.398 . S
C584 C585 1.391 . S
C585 H573 0.950 . S
C585 C581 1.393 . S
C585 C584 1.391 . S
C586 H576 0.950 . S
C586 C587 1.386 . S
C586 C588 1.391 . S
C587 C586 1.386 . S
C587 C591 1.393 . S
C588 H577 0.950 . S
C588 C586 1.391 . S
C588 C589 1.400 . S
C589 C583 1.491 . S
C589 C588 1.400 . S
C589 C590 1.398 . S
C590 H578 0.950 . S
C590 C589 1.398 . S
C590 C591 1.391 . S
C591 H579 0.950 . S
C591 C587 1.393 . S
C591 C590 1.391 . S
H592 C600 0.950 . S
H593 C605 0.950 . S
H594 C602 0.950 . S
H595 C604 0.950 . S
H596 C606 0.950 . S
H597 C608 0.950 . S
H598 C610 0.950 . S
H599 C611 0.950 . S
C600 H592 0.950 . S
C600 C601 1.386 . S
C600 C602 1.391 . S
C601 C600 1.386 . S
C601 C605 1.393 . S
C602 H594 0.950 . S
C602 C600 1.391 . S
C602 C603 1.400 . S
C603 C602 1.400 . S
C603 C604 1.398 . S
C603 C609 1.491 . S
C604 H595 0.950 . S
C604 C603 1.398 . S
C604 C605 1.391 . S
C605 H593 0.950 . S
C605 C601 1.393 . S
C605 C604 1.391 . S
C606 H596 0.950 . S
C606 C607 1.386 . S
C606 C608 1.391 . S
C607 C606 1.386 . S
C607 C611 1.393 . S
C608 H597 0.950 . S
C608 C606 1.391 . S
C608 C609 1.400 . S
C609 C603 1.491 . S
C609 C608 1.400 . S
C609 C610 1.398 . S
C610 H598 0.950 . S
C610 C609 1.398 . S
C610 C611 1.391 . S
C611 H599 0.950 . S
C611 C607 1.393 . S
C611 C610 1.391 . S
H612 C620 0.950 . S
H613 C625 0.950 . S
H614 C622 0.950 . S
H615 C624 0.950 . S
H616 C626 0.950 . S
H617 C628 0.950 . S
H618 C630 0.950 . S
H619 C631 0.950 . S
C620 H612 0.950 . S
C620 C621 1.386 . S
C620 C622 1.391 . S
C621 C620 1.386 . S
C621 C625 1.393 . S
C622 H614 0.950 . S
C622 C620 1.391 . S
C622 C623 1.400 . S
C623 C622 1.400 . S
C623 C624 1.398 . S
C623 C629 1.491 . S
C624 H615 0.950 . S
C624 C623 1.398 . S
C624 C625 1.391 . S
C625 H613 0.950 . S
C625 C621 1.393 . S
C625 C624 1.391 . S
C626 H616 0.950 . S
C626 C627 1.386 . S
C626 C628 1.391 . S
C627 C626 1.386 . S
C627 C631 1.393 . S
C628 H617 0.950 . S
C628 C626 1.391 . S
C628 C629 1.400 . S
C629 C623 1.491 . S
C629 C628 1.400 . S
C629 C630 1.398 . S
C630 H618 0.950 . S
C630 C629 1.398 . S
C630 C631 1.391 . S
C631 H619 0.950 . S
C631 C627 1.393 . S
C631 C630 1.391 . S
H632 C640 0.950 . S
H633 C645 0.950 . S
H634 C642 0.950 . S
H635 C644 0.950 1_554 S
H636 C646 0.950 . S
H637 C648 0.950 . S
H638 C650 0.961 . S
H639 C651 0.950 1_545 S
C640 H632 0.950 . S
C640 C641 1.386 . S
C640 C642 1.391 . S
C641 C640 1.386 . S
C641 C645 1.393 . S
C642 H634 0.950 . S
C642 C640 1.391 . S
C642 C643 1.400 . S
C643 C642 1.400 . S
C643 C644 1.398 . S
C643 C649 1.491 1_556 S
C644 H635 0.950 1_556 S
C644 C643 1.398 . S
C644 C645 1.391 . S
C645 H633 0.950 . S
C645 C641 1.393 . S
C645 C644 1.391 . S
C646 H636 0.950 . S
C646 C647 1.386 . S
C646 C648 1.391 . S
C647 C646 1.386 . S
C647 C651 1.393 . S
C648 H637 0.950 . S
C648 C646 1.391 . S
C648 C649 1.400 . S
C649 C643 1.491 1_554 S
C649 C648 1.400 . S
C649 C650 1.395 1_554 S
C650 H638 0.961 . S
C650 C649 1.395 1_556 S
C650 C651 1.383 1_556 S
C651 H639 0.950 1_565 S
C651 C647 1.393 . S
C651 C650 1.383 1_554 S
H652 C660 0.950 . S
H653 C665 0.950 . S
H654 C662 0.950 . S
H655 C664 0.950 . S
H656 C666 0.950 1_455 S
H657 C668 0.950 . S
H658 C670 0.950 . S
H659 C671 0.950 . S
C660 H652 0.950 . S
C660 C661 1.386 . S
C660 C662 1.391 . S
C661 C660 1.386 . S
C661 C665 1.393 . S
C662 H654 0.950 . S
C662 C660 1.391 . S
C662 C663 1.400 . S
C663 C662 1.400 . S
C663 C664 1.398 . S
C663 C669 1.491 . S
C664 H655 0.950 . S
C664 C663 1.398 . S
C664 C665 1.391 . S
C665 H653 0.950 . S
C665 C661 1.393 . S
C665 C664 1.391 . S
C666 H656 0.950 1_655 S
C666 C667 1.386 . S
C666 C668 1.391 . S
C667 C666 1.386 . S
C667 C671 1.393 . S
C668 H657 0.950 . S
C668 C666 1.391 . S
C668 C669 1.400 . S
C669 C663 1.491 . S
C669 C668 1.400 . S
C669 C670 1.398 . S
C670 H658 0.950 . S
C670 C669 1.398 . S
C670 C671 1.391 . S
C671 H659 0.950 . S
C671 C667 1.393 . S
C671 C670 1.391 . S
H672 C680 0.950 . S
H673 C685 0.950 . S
H674 C682 0.950 . S
H675 C684 0.950 . S
H676 C686 0.950 . S
H677 C688 0.950 . S
H678 C690 0.950 . S
H679 C691 0.950 . S
C680 H672 0.950 . S
C680 C681 1.386 . S
C680 C682 1.391 . S
C681 C680 1.386 . S
C681 C685 1.393 . S
C682 H674 0.950 . S
C682 C680 1.391 . S
C682 C683 1.400 . S
C683 C682 1.400 . S
C683 C684 1.398 . S
C683 C689 1.491 . S
C684 H675 0.950 . S
C684 C683 1.398 . S
C684 C685 1.391 . S
C685 H673 0.950 . S
C685 C681 1.393 . S
C685 C684 1.391 . S
C686 H676 0.950 . S
C686 C687 1.386 . S
C686 C688 1.391 . S
C687 C686 1.386 . S
C687 C691 1.393 . S
C688 H677 0.950 . S
C688 C686 1.391 . S
C688 C689 1.400 . S
C689 C683 1.491 . S
C689 C688 1.400 . S
C689 C690 1.398 . S
C690 H678 0.950 . S
C690 C689 1.398 . S
C690 C691 1.391 . S
C691 H679 0.950 . S
C691 C687 1.393 . S
C691 C690 1.391 . S
H692 C700 0.950 . S
H693 C705 0.950 . S
H694 C702 0.950 . S
H695 C704 0.950 . S
H696 C706 0.950 . S
H697 C708 0.950 . S
H698 C710 0.950 . S
H699 C711 0.950 . S
C700 H692 0.950 . S
C700 C701 1.386 . S
C700 C702 1.391 . S
C701 C700 1.386 . S
C701 C705 1.393 . S
C702 H694 0.950 . S
C702 C700 1.391 . S
C702 C703 1.400 . S
C703 C702 1.400 . S
C703 C704 1.398 . S
C703 C709 1.491 . S
C704 H695 0.950 . S
C704 C703 1.398 . S
C704 C705 1.391 . S
C705 H693 0.950 . S
C705 C701 1.393 . S
C705 C704 1.391 . S
C706 H696 0.950 . S
C706 C707 1.386 . S
C706 C708 1.391 . S
C707 C706 1.386 . S
C707 C711 1.393 . S
C708 H697 0.950 . S
C708 C706 1.391 . S
C708 C709 1.400 . S
C709 C703 1.491 . S
C709 C708 1.400 . S
C709 C710 1.398 . S
C710 H698 0.950 . S
C710 C709 1.398 . S
C710 C711 1.391 . S
C711 H699 0.950 . S
C711 C707 1.393 . S
C711 C710 1.391 . S
H712 C720 0.950 . S
H713 C725 0.950 . S
H714 C722 0.950 . S
H715 C724 0.950 . S
H716 C726 0.950 . S
H717 C728 0.950 . S
H718 C730 0.950 . S
H719 C731 0.950 . S
C720 H712 0.950 . S
C720 C721 1.386 . S
C720 C722 1.391 . S
C721 C720 1.386 . S
C721 C725 1.393 . S
C722 H714 0.950 . S
C722 C720 1.391 . S
C722 C723 1.400 . S
C723 C722 1.400 . S
C723 C724 1.398 . S
C723 C729 1.491 . S
C724 H715 0.950 . S
C724 C723 1.398 . S
C724 C725 1.391 . S
C725 H713 0.950 . S
C725 C721 1.393 . S
C725 C724 1.391 . S
C726 H716 0.950 . S
C726 C727 1.386 . S
C726 C728 1.391 . S
C727 C726 1.386 . S
C727 C731 1.393 . S
C728 H717 0.950 . S
C728 C726 1.391 . S
C728 C729 1.400 . S
C729 C723 1.491 . S
C729 C728 1.400 . S
C729 C730 1.398 . S
C730 H718 0.950 . S
C730 C729 1.398 . S
C730 C731 1.391 . S
C731 H719 0.950 . S
C731 C727 1.393 . S
C731 C730 1.391 . S
H732 C740 0.950 . S
H733 C745 0.950 . S
H734 C742 0.950 . S
H735 C744 0.950 . S
H736 C746 0.950 . S
H737 C748 0.950 . S
H738 C750 0.950 . S
H739 C751 0.950 . S
C740 H732 0.950 . S
C740 C741 1.386 . S
C740 C742 1.391 . S
C741 C740 1.386 . S
C741 C745 1.393 . S
C742 H734 0.950 . S
C742 C740 1.391 . S
C742 C743 1.400 . S
C743 C742 1.400 . S
C743 C744 1.398 . S
C743 C749 1.491 . S
C744 H735 0.950 . S
C744 C743 1.398 . S
C744 C745 1.391 . S
C745 H733 0.950 . S
C745 C741 1.393 . S
C745 C744 1.391 . S
C746 H736 0.950 . S
C746 C747 1.386 . S
C746 C748 1.391 . S
C747 C746 1.386 . S
C747 C751 1.393 . S
C748 H737 0.950 . S
C748 C746 1.391 . S
C748 C749 1.400 . S
C749 C743 1.491 . S
C749 C748 1.400 . S
C749 C750 1.398 . S
C750 H738 0.950 . S
C750 C749 1.398 . S
C750 C751 1.391 . S
C751 H739 0.950 . S
C751 C747 1.393 . S
C751 C750 1.391 . S
H752 C760 0.950 . S
H753 C765 0.950 . S
H754 C762 0.950 . S
H755 C764 0.950 . S
H756 C766 0.950 . S
H757 C768 0.950 . S
H758 C770 0.950 . S
H759 C771 0.950 . S
C760 H752 0.950 . S
C760 C761 1.386 . S
C760 C762 1.391 . S
C761 C760 1.386 . S
C761 C765 1.393 . S
C762 H754 0.950 . S
C762 C760 1.391 . S
C762 C763 1.400 . S
C763 C762 1.400 . S
C763 C764 1.398 . S
C763 C769 1.491 . S
C764 H755 0.950 . S
C764 C763 1.398 . S
C764 C765 1.391 . S
C765 H753 0.950 . S
C765 C761 1.393 . S
C765 C764 1.391 . S
C766 H756 0.950 . S
C766 C767 1.386 . S
C766 C768 1.391 . S
C767 C766 1.386 . S
C767 C771 1.393 . S
C768 H757 0.950 . S
C768 C766 1.391 . S
C768 C769 1.400 . S
C769 C763 1.491 . S
C769 C768 1.400 . S
C769 C770 1.398 . S
C770 H758 0.950 . S
C770 C769 1.398 . S
C770 C771 1.391 . S
C771 H759 0.950 . S
C771 C767 1.393 . S
C771 C770 1.391 . S
H772 C780 0.950 . S
H773 C785 0.950 . S
H774 C782 0.950 . S
H775 C784 0.950 . S
H776 C786 0.950 . S
H777 C788 0.950 . S
H778 C790 0.950 . S
H779 C791 0.950 . S
C780 H772 0.950 . S
C780 C781 1.386 . S
C780 C782 1.391 . S
C781 C780 1.386 . S
C781 C785 1.393 . S
C782 H774 0.950 . S
C782 C780 1.391 . S
C782 C783 1.400 . S
C783 C782 1.400 . S
C783 C784 1.398 . S
C783 C789 1.491 . S
C784 H775 0.950 . S
C784 C783 1.398 . S
C784 C785 1.391 . S
C785 H773 0.950 . S
C785 C781 1.393 . S
C785 C784 1.391 . S
C786 H776 0.950 . S
C786 C787 1.386 . S
C786 C788 1.391 . S
C787 C786 1.386 . S
C787 C791 1.393 . S
C788 H777 0.950 . S
C788 C786 1.391 . S
C788 C789 1.400 . S
C789 C783 1.491 . S
C789 C788 1.400 . S
C789 C790 1.398 . S
C790 H778 0.950 . S
C790 C789 1.398 . S
C790 C791 1.391 . S
C791 H779 0.950 . S
C791 C787 1.393 . S
C791 C790 1.391 . S
C321 C6 1.028 . S
C327 C156 1.046 . S
C341 C21 1.501 . S
C347 C217 1.549 . S
C367 C255 1.938 . S
C361 C49 1.898 . S
C381 C68 2.084 . S
C387 C295 2.162 1_655 S
C407 C215 2.134 . S
C401 C2 2.110 . S
C427 C183 1.663 1_565 S
C421 C30 1.610 . S
C447 C292 1.668 . S
C441 C40 1.669 . S
C467 C252 1.621 . S
C461 C63 1.665 . S
C481 C11 0.980 . S
C487 C297 1.072 . S
C507 C212 2.699 . S
C501 C44 2.698 . S
C521 C59 1.740 . S
C527 C154 1.721 . S
C541 C25 1.798 . S
C547 C257 1.806 . S
C567 C177 1.251 . S
C561 C82 1.235 . S
C581 C101 1.225 . S
C587 C196 1.245 . S
C601 C125 2.314 . S
C607 C234 2.314 . S
C621 C144 1.758 . S
C627 C274 1.812 . S
C641 C87 0.952 . S
C647 C194 1.012 1_565 S
C667 C172 2.667 . S
C661 C97 2.578 . S
C687 C303 1.469 . S
C681 C120 1.521 . S
C707 C263 1.821 . S
C701 C135 1.826 . S
C721 C78 1.563 . S
C727 C276 1.611 . S
C747 C223 1.964 . S
C741 C116 1.942 . S
C767 C175 2.438 . S
C761 C139 2.484 . S
C781 C106 1.058 . S
C787 C236 1.358 . S
