# Generated by pormake.
# Topology wbl, (4,4)-cn, num edge types: 1
# Building blocks:
#     Node 0, Type 0, BuildingBlock: NAWXER_clean_linker_0, # of connection points: 4
#     Node 1, Type 0, BuildingBlock: NAWXER_clean_linker_0, # of connection points: 4
#     Node 2, Type 0, BuildingBlock: NAWXER_clean_linker_0, # of connection points: 4
#     Node 3, Type 0, BuildingBlock: NAWXER_clean_linker_0, # of connection points: 4
#     Node 4, Type 0, BuildingBlock: NAWXER_clean_linker_0, # of connection points: 4
#     Node 5, Type 0, BuildingBlock: NAWXER_clean_linker_0, # of connection points: 4
#     Node 6, Type 0, BuildingBlock: NAWXER_clean_linker_0, # of connection points: 4
#     Node 7, Type 0, BuildingBlock: NAWXER_clean_linker_0, # of connection points: 4
#     Node 8, Type 1, BuildingBlock: QUQFOY_clean_sbu_1, # of connection points: 4
#     Node 9, Type 1, BuildingBlock: QUQFOY_clean_sbu_1, # of connection points: 4
#     Node 10, Type 1, BuildingBlock: QUQFOY_clean_sbu_1, # of connection points: 4
#     Node 11, Type 1, BuildingBlock: QUQFOY_clean_sbu_1, # of connection points: 4
#     Node 12, Type 1, BuildingBlock: QUQFOY_clean_sbu_1, # of connection points: 4
#     Node 13, Type 1, BuildingBlock: QUQFOY_clean_sbu_1, # of connection points: 4
#     Node 14, Type 1, BuildingBlock: QUQFOY_clean_sbu_1, # of connection points: 4
#     Node 15, Type 1, BuildingBlock: QUQFOY_clean_sbu_1, # of connection points: 4
#     Edge 16, Type (0, 1), BuildingBlock: XIVTED_clean_linker_0, # of connection points: 2
#     Edge 17, Type (0, 1), BuildingBlock: XIVTED_clean_linker_0, # of connection points: 2
#     Edge 18, Type (0, 1), BuildingBlock: XIVTED_clean_linker_0, # of connection points: 2
#     Edge 19, Type (0, 1), BuildingBlock: XIVTED_clean_linker_0, # of connection points: 2
#     Edge 20, Type (0, 1), BuildingBlock: XIVTED_clean_linker_0, # of connection points: 2
#     Edge 21, Type (0, 1), BuildingBlock: XIVTED_clean_linker_0, # of connection points: 2
#     Edge 22, Type (0, 1), BuildingBlock: XIVTED_clean_linker_0, # of connection points: 2
#     Edge 23, Type (0, 1), BuildingBlock: XIVTED_clean_linker_0, # of connection points: 2
#     Edge 24, Type (0, 1), BuildingBlock: XIVTED_clean_linker_0, # of connection points: 2
#     Edge 25, Type (0, 1), BuildingBlock: XIVTED_clean_linker_0, # of connection points: 2
#     Edge 26, Type (0, 1), BuildingBlock: XIVTED_clean_linker_0, # of connection points: 2
#     Edge 27, Type (0, 1), BuildingBlock: XIVTED_clean_linker_0, # of connection points: 2
#     Edge 28, Type (0, 1), BuildingBlock: XIVTED_clean_linker_0, # of connection points: 2
#     Edge 29, Type (0, 1), BuildingBlock: XIVTED_clean_linker_0, # of connection points: 2
#     Edge 30, Type (0, 1), BuildingBlock: XIVTED_clean_linker_0, # of connection points: 2
#     Edge 31, Type (0, 1), BuildingBlock: XIVTED_clean_linker_0, # of connection points: 2
#     Edge 32, Type (0, 1), BuildingBlock: XIVTED_clean_linker_0, # of connection points: 2
#     Edge 33, Type (0, 1), BuildingBlock: XIVTED_clean_linker_0, # of connection points: 2
#     Edge 34, Type (0, 1), BuildingBlock: XIVTED_clean_linker_0, # of connection points: 2
#     Edge 35, Type (0, 1), BuildingBlock: XIVTED_clean_linker_0, # of connection points: 2
#     Edge 36, Type (0, 1), BuildingBlock: XIVTED_clean_linker_0, # of connection points: 2
#     Edge 37, Type (0, 1), BuildingBlock: XIVTED_clean_linker_0, # of connection points: 2
#     Edge 38, Type (0, 1), BuildingBlock: XIVTED_clean_linker_0, # of connection points: 2
#     Edge 39, Type (0, 1), BuildingBlock: XIVTED_clean_linker_0, # of connection points: 2
#     Edge 40, Type (0, 1), BuildingBlock: XIVTED_clean_linker_0, # of connection points: 2
#     Edge 41, Type (0, 1), BuildingBlock: XIVTED_clean_linker_0, # of connection points: 2
#     Edge 42, Type (0, 1), BuildingBlock: XIVTED_clean_linker_0, # of connection points: 2
#     Edge 43, Type (0, 1), BuildingBlock: XIVTED_clean_linker_0, # of connection points: 2
#     Edge 44, Type (0, 1), BuildingBlock: XIVTED_clean_linker_0, # of connection points: 2
#     Edge 45, Type (0, 1), BuildingBlock: XIVTED_clean_linker_0, # of connection points: 2
#     Edge 46, Type (0, 1), BuildingBlock: XIVTED_clean_linker_0, # of connection points: 2
#     Edge 47, Type (0, 1), BuildingBlock: XIVTED_clean_linker_0, # of connection points: 2
# Relax obj value: 0.183
# Max RMSD: 0.220
# Mean RMSD: 0.163
data_MOF--net-wbl--node1-QUQFOY_clean_sbu_1--node2-NAWXER_clean_linker_0--edge1-XIVTED_clean_linker_0
_symmetry_space_group_name_H-M    P1
_symmetry_Int_Tables_number       1
_symmetry_cell_setting            triclinic
loop_
_symmetry_equiv_pos_as_xyz
'x, y, z'
_cell_length_a     44.884729
_cell_length_b     44.874817
_cell_length_c     79.886903
_cell_angle_alpha  93.27296
_cell_angle_beta   93.26649
_cell_angle_gamma 90.35092
loop_
_atom_site_label
_atom_site_type_symbol
_atom_site_fract_x
_atom_site_fract_y
_atom_site_fract_z
_atom_type_partial_charge
C0 C 0.2339 0.0259 0.39378 0.0
C1 C 0.25375 0.04153 0.40546 0.0
C2 C 0.21795 0.04098 0.38138 0.0
C3 C 0.22162 0.07192 0.38038 0.0
C4 C 0.25875 0.07216 0.40371 0.0
C5 C 0.2426 0.08725 0.39141 0.0
C6 C 0.20027 0.08891 0.36996 0.0
C7 C 0.25459 0.03662 0.33338 0.0
C8 C 0.23837 0.01458 0.32341 0.0
C9 C 0.2398 0.05816 0.34305 0.0
C10 C 0.20852 0.05803 0.34294 0.0
C11 C 0.20705 0.01468 0.3232 0.0
C12 C 0.19227 0.03637 0.33277 0.0
C13 C 0.19251 0.08097 0.3529 0.0
C14 C 0.0978 0.17128 0.33536 0.0
C15 C 0.07603 0.15188 0.32729 0.0
C16 C 0.1231 0.1599 0.34372 0.0
C17 C 0.12711 0.12894 0.3441 0.0
C18 C 0.08049 0.12087 0.32757 0.0
C19 C 0.10589 0.10958 0.33572 0.0
C20 C 0.15303 0.11629 0.35332 0.0
C21 C 0.09518 0.15262 0.39393 0.0
C22 C 0.10848 0.17527 0.40479 0.0
C23 C 0.11192 0.13696 0.38221 0.0
C24 C 0.14227 0.14378 0.381 0.0
C25 C 0.13861 0.18276 0.40322 0.0
C26 C 0.15544 0.1669 0.39153 0.0
C27 C 0.16092 0.1244 0.37033 0.0
H28 H 0.22914 0.00243 0.39487 0.0
H29 H 0.20132 0.02876 0.3733 0.0
H30 H 0.27429 0.08478 0.41229 0.0
H31 H 0.24565 0.11114 0.39091 0.0
H32 H 0.27875 0.03696 0.33391 0.0
H33 H 0.25282 0.07503 0.35051 0.0
H34 H 0.19397 0.99813 0.31552 0.0
H35 H 0.1681 0.03601 0.33238 0.0
H36 H 0.09538 0.19525 0.33519 0.0
H37 H 0.13952 0.17523 0.3499 0.0
H38 H 0.064 0.10516 0.32186 0.0
H39 H 0.10853 0.08561 0.33592 0.0
H40 H 0.07198 0.14644 0.39483 0.0
H41 H 0.1014 0.11867 0.37458 0.0
H42 H 0.14951 0.19988 0.41156 0.0
H43 H 0.17894 0.1722 0.39098 0.0
N44 N 0.18429 0.11045 0.37796 0.0
N45 N 0.16907 0.09487 0.34527 0.0
C46 C 0.94217 0.58735 0.6238 0.0
C47 C 0.9551 0.57253 0.63743 0.0
C48 C 0.95893 0.60809 0.61567 0.0
C49 C 0.98869 0.61449 0.62123 0.0
C50 C 0.98505 0.57867 0.64265 0.0
C51 C 0.00154 0.59948 0.63471 0.0
C52 C 0.00627 0.63825 0.61417 0.0
C53 C 0.00475 0.56357 0.57455 0.0
C54 C 0.98373 0.56833 0.56129 0.0
C55 C 0.01327 0.58679 0.58617 0.0
C56 C 0.00109 0.61526 0.5847 0.0
C57 C 0.97153 0.5969 0.55978 0.0
C58 C 0.98051 0.62039 0.57132 0.0
C59 C 0.01098 0.63954 0.59695 0.0
C60 C 0.11937 0.71667 0.59733 0.0
C61 C 0.11204 0.73661 0.58483 0.0
C62 C 0.09744 0.6984 0.60322 0.0
C63 C 0.06773 0.69989 0.59681 0.0
C64 C 0.08238 0.73751 0.57814 0.0
C65 C 0.06047 0.71911 0.584 0.0
C66 C 0.04452 0.68069 0.60311 0.0
C67 C 0.07363 0.74664 0.64618 0.0
C68 C 0.08316 0.73323 0.66099 0.0
C69 C 0.05946 0.72947 0.63278 0.0
C70 C 0.05543 0.69853 0.63389 0.0
C71 C 0.07906 0.7024 0.66205 0.0
C72 C 0.06543 0.68527 0.64867 0.0
C73 C 0.0396 0.67951 0.62038 0.0
H74 H 0.91912 0.58306 0.61954 0.0
H75 H 0.94842 0.61976 0.60544 0.0
H76 H 0.99554 0.56808 0.6533 0.0
H77 H 0.0244 0.60415 0.63927 0.0
H78 H 0.01416 0.54166 0.57614 0.0
H79 H 0.02944 0.58256 0.59633 0.0
H80 H 0.95525 0.60105 0.54967 0.0
H81 H 0.97112 0.64236 0.56996 0.0
H82 H 0.14195 0.71556 0.6028 0.0
H83 H 0.10367 0.68317 0.61284 0.0
H84 H 0.07616 0.75232 0.56832 0.0
H85 H 0.03775 0.7202 0.57872 0.0
H86 H 0.07639 0.77046 0.64516 0.0
H87 H 0.05121 0.74047 0.62175 0.0
H88 H 0.08653 0.69148 0.67328 0.0
H89 H 0.06267 0.6615 0.64989 0.0
N90 N 0.02071 0.65829 0.62515 0.0
N91 N 0.02988 0.66074 0.59201 0.0
C92 C 0.55918 0.43903 0.87057 0.0
C93 C 0.57193 0.45002 0.88622 0.0
C94 C 0.54452 0.45847 0.85973 0.0
C95 C 0.54279 0.48909 0.86439 0.0
C96 C 0.57182 0.48087 0.89025 0.0
C97 C 0.55737 0.50014 0.87949 0.0
C98 C 0.52222 0.50915 0.85537 0.0
C99 C 0.59468 0.49388 0.81946 0.0
C100 C 0.58568 0.47537 0.80529 0.0
C101 C 0.57367 0.50525 0.83028 0.0
C102 C 0.54326 0.49858 0.82701 0.0
C103 C 0.55527 0.46831 0.80212 0.0
C104 C 0.53412 0.48025 0.8128 0.0
C105 C 0.52114 0.51246 0.83789 0.0
C106 C 0.4504 0.62475 0.83317 0.0
C107 C 0.42684 0.61727 0.8213 0.0
C108 C 0.46954 0.60274 0.83898 0.0
C109 C 0.46543 0.57285 0.83309 0.0
C110 C 0.42374 0.58752 0.81478 0.0
C111 C 0.44306 0.5655 0.82056 0.0
C112 C 0.48328 0.54924 0.84085 0.0
C113 C 0.41795 0.58134 0.87919 0.0
C114 C 0.43147 0.59126 0.89481 0.0
C115 C 0.43491 0.56683 0.86704 0.0
C116 C 0.46576 0.56282 0.87022 0.0
C117 C 0.46227 0.58754 0.89787 0.0
C118 C 0.47921 0.57353 0.8857 0.0
C119 C 0.48414 0.54559 0.8583 0.0
H120 H 0.55897 0.4153 0.8672 0.0
H121 H 0.53304 0.44934 0.84827 0.0
H122 H 0.58195 0.48999 0.9021 0.0
H123 H 0.55645 0.52366 0.88334 0.0
H124 H 0.61804 0.49944 0.82221 0.0
H125 H 0.58112 0.51975 0.84103 0.0
H126 H 0.54789 0.4541 0.79124 0.0
H127 H 0.51068 0.47513 0.81002 0.0
H128 H 0.45328 0.64738 0.83851 0.0
H129 H 0.48696 0.60889 0.84853 0.0
H130 H 0.40603 0.5812 0.80546 0.0
H131 H 0.43973 0.54257 0.81578 0.0
H132 H 0.39415 0.58374 0.87665 0.0
H133 H 0.42373 0.55799 0.85544 0.0
H134 H 0.47323 0.59523 0.90978 0.0
H135 H 0.50291 0.57071 0.88851 0.0
N136 N 0.50362 0.52578 0.86479 0.0
N137 N 0.50166 0.53239 0.83123 0.0
C138 C 0.55195 0.92954 0.0828 0.0
C139 C 0.52889 0.93833 0.07155 0.0
C140 C 0.57277 0.95029 0.08997 0.0
C141 C 0.57075 0.98045 0.08632 0.0
C142 C 0.52697 0.96852 0.06776 0.0
C143 C 0.54792 0.98939 0.075 0.0
C144 C 0.59351 0.00204 0.0937 0.0
C145 C 0.54291 0.97824 0.13859 0.0
C146 C 0.55976 0.96357 0.15098 0.0
C147 C 0.55677 0.98999 0.12512 0.0
C148 C 0.58772 0.98716 0.12374 0.0
C149 C 0.59057 0.95998 0.14922 0.0
C150 C 0.6044 0.97185 0.13584 0.0
C151 C 0.60338 0.00258 0.11082 0.0
C152 C 0.68736 0.09982 0.12681 0.0
C153 C 0.71009 0.08422 0.13538 0.0
C154 C 0.66669 0.08446 0.11564 0.0
C155 C 0.66853 0.05339 0.11296 0.0
C156 C 0.71341 0.05356 0.13132 0.0
C157 C 0.69258 0.03824 0.12037 0.0
C158 C 0.64273 0.03595 0.10555 0.0
C159 C 0.69039 0.07054 0.06291 0.0
C160 C 0.67394 0.09249 0.0546 0.0
C161 C 0.67671 0.05225 0.07386 0.0
C162 C 0.64628 0.05534 0.07664 0.0
C163 C 0.64319 0.09485 0.05709 0.0
C164 C 0.62948 0.07626 0.06788 0.0
C165 C 0.63189 0.03695 0.0887 0.0
H166 H 0.55389 0.90656 0.08615 0.0
H167 H 0.59071 0.9426 0.09825 0.0
H168 H 0.50962 0.97588 0.059 0.0
H169 H 0.54623 0.01249 0.07183 0.0
H170 H 0.51922 0.98171 0.13964 0.0
H171 H 0.54349 0.0023 0.11616 0.0
H172 H 0.60416 0.94826 0.15831 0.0
H173 H 0.62829 0.96938 0.13506 0.0
H174 H 0.68409 0.1234 0.12971 0.0
H175 H 0.648 0.09643 0.11017 0.0
H176 H 0.73106 0.04104 0.1374 0.0
H177 H 0.69427 0.01422 0.11844 0.0
H178 H 0.7139 0.06754 0.06104 0.0
H179 H 0.68994 0.0357 0.08019 0.0
H180 H 0.62982 0.1117 0.05115 0.0
H181 H 0.60592 0.07888 0.06981 0.0
N182 N 0.60777 0.01972 0.0833 0.0
N183 N 0.62789 0.01913 0.11598 0.0
C184 C 0.0497 0.71914 0.92725 0.0
C185 C 0.05851 0.70808 0.91148 0.0
C186 C 0.03278 0.70115 0.93705 0.0
C187 C 0.02487 0.67181 0.93123 0.0
C188 C 0.05171 0.67834 0.90616 0.0
C189 C 0.03505 0.66049 0.91588 0.0
C190 C 0.0036 0.65342 0.93982 0.0
C191 C 0.08477 0.65983 0.97548 0.0
C192 C 0.08031 0.67816 0.98996 0.0
C193 C 0.06063 0.65052 0.96466 0.0
C194 C 0.0316 0.65919 0.96819 0.0
C195 C 0.05122 0.68693 0.99346 0.0
C196 C 0.02694 0.67713 0.98275 0.0
C197 C 0.00613 0.64814 0.95708 0.0
C198 C 0.93836 0.54975 0.97679 0.0
C199 C 0.90745 0.54921 0.97272 0.0
C200 C 0.95646 0.57206 0.9711 0.0
C201 C 0.94405 0.59409 0.96114 0.0
C202 C 0.89493 0.57218 0.9634 0.0
C203 C 0.91302 0.59451 0.95777 0.0
C204 C 0.96384 0.61539 0.95353 0.0
C205 C 0.90866 0.60339 0.89858 0.0
C206 C 0.91002 0.57209 0.8967 0.0
C207 C 0.92438 0.61892 0.91195 0.0
C208 C 0.94139 0.60347 0.92385 0.0
C209 C 0.9262 0.55659 0.909 0.0
C210 C 0.94188 0.57215 0.9224 0.0
C211 C 0.96173 0.62027 0.93621 0.0
H212 H 0.05465 0.74203 0.93162 0.0
H213 H 0.02481 0.71057 0.94873 0.0
H214 H 0.05872 0.66904 0.89422 0.0
H215 H 0.02946 0.6379 0.91117 0.0
H216 H 0.10703 0.65302 0.97242 0.0
H217 H 0.06459 0.63628 0.95361 0.0
H218 H 0.04729 0.70103 0.00457 0.0
H219 H 0.0046 0.68376 0.98572 0.0
H220 H 0.94863 0.53274 0.98423 0.0
H221 H 0.98033 0.57145 0.97397 0.0
H222 H 0.87125 0.57241 0.95996 0.0
H223 H 0.90285 0.61165 0.95039 0.0
H224 H 0.89608 0.61597 0.88945 0.0
H225 H 0.92393 0.6431 0.91277 0.0
H226 H 0.92812 0.53252 0.90779 0.0
H227 H 0.95555 0.55977 0.93114 0.0
N228 N 0.98149 0.63923 0.93012 0.0
N229 N 0.98611 0.6294 0.96333 0.0
C230 C 0.48263 0.5479 0.15725 0.0
C231 C 0.49373 0.55766 0.14237 0.0
C232 C 0.50138 0.53352 0.16881 0.0
C233 C 0.53161 0.52896 0.16575 0.0
C234 C 0.52411 0.55355 0.13956 0.0
C235 C 0.54275 0.53924 0.15105 0.0
C236 C 0.5515 0.51186 0.17705 0.0
C237 C 0.53408 0.59587 0.20717 0.0
C238 C 0.51859 0.59259 0.22174 0.0
C239 C 0.54463 0.57098 0.19822 0.0
C240 C 0.53959 0.54218 0.20351 0.0
C241 C 0.51319 0.56375 0.22697 0.0
C242 C 0.5239 0.53872 0.21799 0.0
C243 C 0.55317 0.51624 0.19476 0.0
C244 C 0.66221 0.45421 0.2172 0.0
C245 C 0.65365 0.42918 0.22571 0.0
C246 C 0.64109 0.47011 0.20792 0.0
C247 C 0.61095 0.4616 0.20714 0.0
C248 C 0.62318 0.42117 0.22516 0.0
C249 C 0.60199 0.4374 0.21602 0.0
C250 C 0.58917 0.47756 0.19659 0.0
C251 C 0.62182 0.40463 0.15921 0.0
C252 C 0.64127 0.417 0.14822 0.0
C253 C 0.60576 0.4232 0.17005 0.0
C254 C 0.60867 0.45431 0.16981 0.0
C255 C 0.6452 0.44812 0.14871 0.0
C256 C 0.62881 0.46661 0.15929 0.0
C257 C 0.58857 0.47432 0.17898 0.0
H258 H 0.45928 0.55051 0.15971 0.0
H259 H 0.49206 0.52523 0.17988 0.0
H260 H 0.53353 0.56133 0.12839 0.0
H261 H 0.56597 0.53611 0.14841 0.0
H262 H 0.53836 0.6178 0.20276 0.0
H263 H 0.55746 0.57435 0.18739 0.0
H264 H 0.50153 0.56063 0.23825 0.0
H265 H 0.52019 0.5167 0.22242 0.0
H266 H 0.6853 0.46147 0.21761 0.0
H267 H 0.64829 0.48894 0.2012 0.0
H268 H 0.61576 0.40183 0.23133 0.0
H269 H 0.57875 0.43054 0.21548 0.0
H270 H 0.61842 0.38069 0.15906 0.0
H271 H 0.59007 0.41338 0.17801 0.0
H272 H 0.65971 0.45829 0.14022 0.0
H273 H 0.63116 0.4906 0.1589 0.0
N274 N 0.56964 0.49135 0.16987 0.0
N275 N 0.57171 0.49864 0.20391 0.0
C276 C 0.54515 0.97974 0.42899 0.0
C277 C 0.52581 0.99301 0.41715 0.0
C278 C 0.56323 0.99753 0.44046 0.0
C279 C 0.56216 0.02876 0.44021 0.0
C280 C 0.52281 0.02423 0.41812 0.0
C281 C 0.54106 0.04193 0.42941 0.0
C282 C 0.58653 0.04739 0.44845 0.0
C283 C 0.53113 0.02318 0.49042 0.0
C284 C 0.54465 0.00227 0.5008 0.0
C285 C 0.54763 0.03741 0.47888 0.0
C286 C 0.57802 0.03119 0.47759 0.0
C287 C 0.5751 0.99601 0.49951 0.0
C288 C 0.59177 0.01071 0.48813 0.0
C289 C 0.59547 0.04689 0.46563 0.0
C290 C 0.68669 0.14647 0.47258 0.0
C291 C 0.70982 0.1337 0.4823 0.0
C292 C 0.66229 0.1292 0.46617 0.0
C293 C 0.66067 0.09875 0.46921 0.0
C294 C 0.70761 0.10344 0.48583 0.0
C295 C 0.68311 0.08615 0.47942 0.0
C296 C 0.6358 0.08005 0.46154 0.0
C297 C 0.69066 0.10183 0.41808 0.0
C298 C 0.67568 0.11824 0.40575 0.0
C299 C 0.67514 0.09022 0.43095 0.0
C300 C 0.64436 0.095 0.43184 0.0
C301 C 0.64501 0.12354 0.40687 0.0
C302 C 0.62947 0.11183 0.41972 0.0
C303 C 0.62707 0.08009 0.44427 0.0
H304 H 0.54811 0.95578 0.42852 0.0
H305 H 0.5797 0.98691 0.44852 0.0
H306 H 0.50763 0.03509 0.40941 0.0
H307 H 0.53992 0.066 0.42905 0.0
H308 H 0.50762 0.02817 0.49104 0.0
H309 H 0.53669 0.0535 0.47106 0.0
H310 H 0.586 0.98001 0.5074 0.0
H311 H 0.61528 0.00581 0.48738 0.0
H312 H 0.6878 0.16964 0.46953 0.0
H313 H 0.64486 0.13955 0.45864 0.0
H314 H 0.72487 0.09311 0.4935 0.0
H315 H 0.68207 0.06276 0.48206 0.0
H316 H 0.71433 0.09751 0.41762 0.0
H317 H 0.68704 0.07668 0.43988 0.0
H318 H 0.63275 0.13573 0.39744 0.0
H319 H 0.60567 0.1155 0.42004 0.0
N320 N 0.60268 0.06391 0.43845 0.0
N321 N 0.61982 0.06327 0.47159 0.0
C322 C 0.2162 0.10185 0.6818 0.0
C323 C 0.20607 0.08924 0.66598 0.0
C324 C 0.19587 0.11482 0.69271 0.0
C325 C 0.16515 0.11467 0.68803 0.0
C326 C 0.17535 0.0884 0.6616 0.0
C327 C 0.15516 0.10095 0.67248 0.0
C328 C 0.14324 0.13128 0.69805 0.0
C329 C 0.17887 0.06001 0.73019 0.0
C330 C 0.19073 0.06965 0.74624 0.0
C331 C 0.16262 0.07949 0.72029 0.0
C332 C 0.1588 0.10936 0.72598 0.0
C333 C 0.18605 0.09914 0.75225 0.0
C334 C 0.17029 0.11889 0.74215 0.0
C335 C 0.14108 0.13005 0.71564 0.0
C336 C 0.02508 0.19411 0.72463 0.0
C337 C 0.03267 0.21763 0.7365 0.0
C338 C 0.0472 0.17591 0.71809 0.0
C339 C 0.07731 0.18094 0.72325 0.0
C340 C 0.06271 0.22146 0.74238 0.0
C341 C 0.08486 0.20312 0.73586 0.0
C342 C 0.10086 0.16463 0.71451 0.0
C343 C 0.07001 0.23269 0.67671 0.0
C344 C 0.05149 0.21896 0.6637 0.0
C345 C 0.08578 0.21534 0.68815 0.0
C346 C 0.08365 0.18409 0.68647 0.0
C347 C 0.04851 0.18774 0.66249 0.0
C348 C 0.06479 0.17042 0.67367 0.0
C349 C 0.10293 0.16548 0.69705 0.0
H350 H 0.23984 0.10281 0.68539 0.0
H351 H 0.20421 0.12583 0.70448 0.0
H352 H 0.16695 0.07844 0.64956 0.0
H353 H 0.13164 0.1005 0.66856 0.0
H354 H 0.18154 0.03712 0.72548 0.0
H355 H 0.15266 0.07094 0.7083 0.0
H356 H 0.19479 0.10694 0.76466 0.0
H357 H 0.16713 0.14165 0.74697 0.0
H358 H 0.00223 0.19068 0.71974 0.0
H359 H 0.04091 0.15858 0.70852 0.0
H360 H 0.06917 0.23915 0.75169 0.0
H361 H 0.10797 0.20718 0.74006 0.0
H362 H 0.07269 0.25675 0.67781 0.0
H363 H 0.10049 0.2262 0.6979 0.0
H364 H 0.03464 0.17667 0.65243 0.0
H365 H 0.06307 0.14631 0.67215 0.0
N366 N 0.12392 0.14884 0.68952 0.0
N367 N 0.12006 0.14707 0.72324 0.0
O368 O 0.34312 0.72036 0.99633 0.0
Cd369 Cd 0.33223 0.74328 0.0182 0.0
Cd370 Cd 0.37221 0.70548 0.03366 0.0
O371 O 0.36507 0.68459 0.01009 0.0
O372 O 0.29121 0.75861 0.0148 0.0
O373 O 0.3034 0.72287 0.03199 0.0
C374 C 0.28309 0.73916 0.02499 0.0
C375 C 0.38702 0.6729 0.05451 0.0
C376 C 0.35507 0.69479 0.99639 0.0
C377 C 0.38611 0.77238 0.03422 0.0
O378 O 0.39482 0.74591 0.0364 0.0
O379 O 0.36003 0.7771 0.02803 0.0
O380 O 0.40375 0.67878 0.04258 0.0
O381 O 0.36128 0.6855 0.05475 0.0
O382 O 0.44013 0.84727 0.31332 0.0
Cd383 Cd 0.41789 0.83187 0.29124 0.0
Cd384 Cd 0.4644 0.85508 0.27629 0.0
O385 O 0.46886 0.87658 0.29986 0.0
O386 O 0.37451 0.83452 0.29449 0.0
O387 O 0.39871 0.86403 0.27833 0.0
C388 C 0.37439 0.8573 0.28528 0.0
C389 C 0.47867 0.88199 0.25372 0.0
C390 C 0.45892 0.86857 0.31351 0.0
C391 C 0.45528 0.78779 0.27434 0.0
O392 O 0.47269 0.80996 0.27326 0.0
O393 O 0.42965 0.79158 0.28004 0.0
O394 O 0.49788 0.87275 0.26478 0.0
O395 O 0.45082 0.87653 0.25559 0.0
O396 O 0.30974 0.9137 0.51236 0.0
Cd397 Cd 0.3236 0.89562 0.5346 0.0
Cd398 Cd 0.29289 0.93994 0.54935 0.0
O399 O 0.29773 0.95565 0.52585 0.0
O400 O 0.36499 0.88095 0.53268 0.0
O401 O 0.35317 0.92108 0.54843 0.0
C402 C 0.37345 0.90422 0.54209 0.0
C403 C 0.29069 0.97654 0.57133 0.0
C404 C 0.3023 0.94094 0.51218 0.0
C405 C 0.27068 0.87599 0.55078 0.0
O406 O 0.26516 0.90377 0.552 0.0
O407 O 0.29524 0.8669 0.54529 0.0
O408 O 0.26991 0.97323 0.55961 0.0
O409 O 0.31346 0.95919 0.57062 0.0
O410 O 0.22419 0.81685 0.76469 0.0
Cd411 Cd 0.25061 0.83023 0.78571 0.0
Cd412 Cd 0.21015 0.79647 0.80219 0.0
O413 O 0.18771 0.80062 0.77916 0.0
O414 O 0.27194 0.86633 0.77939 0.0
O415 O 0.2379 0.86736 0.79845 0.0
C416 C 0.25574 0.88165 0.78951 0.0
C417 C 0.1781 0.78999 0.82393 0.0
C418 C 0.19768 0.80715 0.76526 0.0
C419 C 0.27488 0.77617 0.80074 0.0
O420 O 0.24796 0.77034 0.80362 0.0
O421 O 0.28167 0.80072 0.79468 0.0
O422 O 0.1808 0.7701 0.81192 0.0
O423 O 0.19391 0.81408 0.82388 0.0
O424 O 0.93834 0.30381 0.55498 0.0
Cd425 Cd 0.92052 0.31516 0.53192 0.0
Cd426 Cd 0.95687 0.27053 0.52018 0.0
O427 O 0.97426 0.27621 0.54469 0.0
O428 O 0.90454 0.35601 0.53525 0.0
O429 O 0.94271 0.34517 0.51962 0.0
C430 C 0.92515 0.36492 0.52604 0.0
C431 C 0.99047 0.25664 0.49977 0.0
C432 C 0.96205 0.2889 0.55715 0.0
C433 C 0.88943 0.26214 0.5158 0.0
O434 O 0.91522 0.25066 0.51543 0.0
O435 O 0.88642 0.28915 0.52096 0.0
O436 O 0.98266 0.23867 0.51074 0.0
O437 O 0.97977 0.28329 0.50057 0.0
O438 O 0.84008 0.42832 0.78996 0.0
Cd439 Cd 0.82511 0.40214 0.76912 0.0
Cd440 Cd 0.86101 0.43988 0.75306 0.0
O441 O 0.85866 0.46407 0.77571 0.0
O442 O 0.78565 0.38585 0.77419 0.0
O443 O 0.79167 0.41941 0.75527 0.0
C444 C 0.77398 0.40385 0.76366 0.0
C445 C 0.8705 0.46639 0.72942 0.0
C446 C 0.85141 0.45427 0.78956 0.0
C447 C 0.87747 0.37386 0.75544 0.0
O448 O 0.88449 0.40051 0.75268 0.0
O449 O 0.85221 0.36808 0.76093 0.0
O450 O 0.89018 0.46379 0.74155 0.0
O451 O 0.84432 0.45518 0.73093 0.0
O452 O 0.74613 0.33906 0.03778 0.0
Cd453 Cd 0.75889 0.32463 0.01438 0.0
Cd454 Cd 0.71296 0.35547 0.00407 0.0
O455 O 0.70037 0.34732 0.02793 0.0
O456 O 0.77663 0.28463 0.01666 0.0
O457 O 0.73316 0.29229 0.00295 0.0
C458 C 0.75246 0.27383 0.00898 0.0
C459 C 0.67606 0.35833 0.98232 0.0
C460 C 0.71895 0.34429 0.04032 0.0
C461 C 0.77504 0.37941 0.99981 0.0
O462 O 0.74771 0.38519 0.00174 0.0
O463 O 0.78481 0.35337 0.00213 0.0
O464 O 0.67816 0.3777 0.99485 0.0
O465 O 0.69429 0.33619 0.98235 0.0
O466 O 0.81097 0.20651 0.24377 0.0
Cd467 Cd 0.82252 0.23323 0.26514 0.0
Cd468 Cd 0.8067 0.18394 0.28051 0.0
O469 O 0.78995 0.17059 0.2568 0.0
O470 O 0.82136 0.27445 0.25744 0.0
O471 O 0.78971 0.2575 0.27503 0.0
C472 C 0.79816 0.27875 0.26606 0.0
C473 C 0.77907 0.17303 0.30339 0.0
C474 C 0.79609 0.18227 0.24329 0.0
C475 C 0.87137 0.20317 0.2836 0.0
O476 O 0.85223 0.1826 0.28488 0.0
O477 O 0.86376 0.22756 0.27733 0.0
O478 O 0.79261 0.15257 0.29487 0.0
O479 O 0.78061 0.20004 0.29869 0.0
H480 H 0.28606 0.02134 0.30401 0.0
H481 H 0.31894 0.84777 0.2966 0.0
H482 H 0.22674 0.95447 0.32062 0.0
H483 H 0.37155 0.9136 0.27384 0.0
H484 H 0.2814 0.88562 0.30218 0.0
H485 H 0.31468 0.98188 0.29017 0.0
C486 C 0.27899 0.99833 0.30466 0.0
C487 C 0.25422 0.99114 0.31365 0.0
C488 C 0.30089 0.89169 0.29569 0.0
C489 C 0.2868 0.94582 0.29781 0.0
C490 C 0.3223 0.87004 0.29245 0.0
C491 C 0.34863 0.87765 0.28497 0.0
C492 C 0.30603 0.92126 0.29163 0.0
C493 C 0.3517 0.9068 0.27976 0.0
C494 C 0.29519 0.97582 0.29666 0.0
C495 C 0.24568 0.96102 0.31382 0.0
N496 N 0.33092 0.92769 0.28346 0.0
N497 N 0.26217 0.93944 0.30622 0.0
H498 H 0.10688 0.79584 0.57898 0.0
H499 H 0.2749 0.81496 0.55209 0.0
H500 H 0.16982 0.72353 0.57772 0.0
H501 H 0.21439 0.88813 0.56033 0.0
H502 H 0.23624 0.78039 0.55991 0.0
H503 H 0.14545 0.82926 0.57028 0.0
C504 C 0.12877 0.78694 0.57673 0.0
C505 C 0.13513 0.75685 0.57908 0.0
C506 C 0.2315 0.80403 0.56001 0.0
C507 C 0.17958 0.79509 0.56927 0.0
C508 C 0.25354 0.82377 0.55554 0.0
C509 C 0.24793 0.85452 0.55557 0.0
C510 C 0.20364 0.81513 0.56443 0.0
C511 C 0.21982 0.86464 0.56015 0.0
C512 C 0.15086 0.80608 0.57188 0.0
C513 C 0.16405 0.74665 0.57624 0.0
N514 N 0.19877 0.84502 0.56436 0.0
N515 N 0.18521 0.76573 0.57147 0.0
H516 H 0.36615 0.61101 0.81831 0.0
H517 H 0.33546 0.78111 0.79787 0.0
H518 H 0.4366 0.67559 0.81419 0.0
H519 H 0.26714 0.71923 0.81029 0.0
H520 H 0.3728 0.74223 0.80191 0.0
H521 H 0.3294 0.64965 0.81289 0.0
C522 C 0.3739 0.63324 0.81604 0.0
C523 C 0.4045 0.64007 0.81669 0.0
C524 C 0.34963 0.73724 0.80378 0.0
C525 C 0.3625 0.68462 0.81074 0.0
C526 C 0.3283 0.75942 0.80149 0.0
C527 C 0.29809 0.75347 0.80376 0.0
C528 C 0.34065 0.70886 0.80825 0.0
C529 C 0.29015 0.72492 0.80844 0.0
C530 C 0.3529 0.65539 0.81311 0.0
C531 C 0.41322 0.66943 0.81395 0.0
N532 N 0.31126 0.7037 0.81047 0.0
N533 N 0.39232 0.69065 0.8111 0.0
H534 H 0.46804 0.94332 0.06632 0.0
H535 H 0.44585 0.7696 0.04212 0.0
H536 H 0.54045 0.88182 0.05928 0.0
H537 H 0.37403 0.83248 0.0364 0.0
H538 H 0.48027 0.8109 0.04954 0.0
H539 H 0.43266 0.90374 0.05587 0.0
C540 C 0.47652 0.92163 0.0624 0.0
C541 C 0.50721 0.91573 0.06389 0.0
C542 C 0.45701 0.81575 0.04661 0.0
C543 C 0.46697 0.87042 0.05221 0.0
C544 C 0.43727 0.79213 0.04244 0.0
C545 C 0.40696 0.79757 0.03868 0.0
C546 C 0.44643 0.84513 0.0472 0.0
C547 C 0.39723 0.82729 0.03921 0.0
C548 C 0.45632 0.89905 0.05653 0.0
C549 C 0.51694 0.88718 0.05874 0.0
N550 N 0.41691 0.85001 0.0435 0.0
N551 N 0.4969 0.86558 0.05327 0.0
H552 H 0.09472 0.73539 0.00112 0.0
H553 H 0.25711 0.6895 0.03644 0.0
H554 H 0.12503 0.64466 0.0035 0.0
H555 H 0.23623 0.77536 0.01725 0.0
H556 H 0.20408 0.67595 0.03316 0.0
H557 H 0.14192 0.7528 0.01555 0.0
C558 C 0.11107 0.71915 0.00502 0.0
C559 C 0.10631 0.68863 0.00095 0.0
C560 C 0.2111 0.69797 0.02999 0.0
C561 C 0.16 0.70823 0.01737 0.0
C562 C 0.2413 0.70579 0.03195 0.0
C563 C 0.25108 0.73339 0.02681 0.0
C564 C 0.19065 0.718 0.023 0.0
C565 C 0.22964 0.75365 0.0211 0.0
C566 C 0.13797 0.72906 0.01317 0.0
C567 C 0.12816 0.66843 0.0062 0.0
N568 N 0.20044 0.74542 0.01915 0.0
N569 N 0.1542 0.6786 0.01402 0.0
H570 H 0.46474 0.60341 0.23563 0.0
H571 H 0.5106 0.77168 0.26497 0.0
H572 H 0.55144 0.6428 0.23052 0.0
H573 H 0.42261 0.73541 0.27059 0.0
H574 H 0.52639 0.72303 0.25414 0.0
H575 H 0.44938 0.64984 0.25037 0.0
C576 C 0.48058 0.62172 0.23775 0.0
C577 C 0.50925 0.61946 0.23166 0.0
C578 C 0.50363 0.72557 0.25778 0.0
C579 C 0.49192 0.67241 0.24838 0.0
C580 C 0.49455 0.75344 0.26397 0.0
C581 C 0.46513 0.75773 0.26859 0.0
C582 C 0.48316 0.70167 0.25606 0.0
C583 C 0.44548 0.73312 0.26712 0.0
C584 C 0.47179 0.64821 0.24608 0.0
C585 C 0.52892 0.64382 0.23469 0.0
N586 N 0.4548 0.70612 0.26087 0.0
N587 N 0.51984 0.66926 0.24275 0.0
H588 H 0.50705 0.0267 0.52333 0.0
H589 H 0.42158 0.87444 0.53 0.0
H590 H 0.54056 0.94217 0.50453 0.0
H591 H 0.39714 0.95697 0.55589 0.0
H592 H 0.46973 0.89664 0.5248 0.0
H593 H 0.4712 0.00028 0.53913 0.0
C594 C 0.50706 0.00252 0.52273 0.0
C595 C 0.52641 0.98654 0.51245 0.0
C596 C 0.45412 0.9097 0.53194 0.0
C597 C 0.48526 0.95608 0.53032 0.0
C598 C 0.42661 0.89698 0.53497 0.0
C599 C 0.40503 0.91409 0.54308 0.0
C600 C 0.45989 0.93983 0.53687 0.0
C601 C 0.41292 0.94308 0.54937 0.0
C602 C 0.48669 0.98741 0.53179 0.0
C603 C 0.52589 0.95527 0.51228 0.0
N604 N 0.43946 0.95524 0.54582 0.0
N605 N 0.50522 0.94102 0.52083 0.0
H606 H 0.17977 0.05473 0.77806 0.0
H607 H 0.29191 0.91753 0.77291 0.0
H608 H 0.23826 0.03577 0.73791 0.0
H609 H 0.21653 0.92051 0.80418 0.0
H610 H 0.28216 0.96894 0.76605 0.0
H611 H 0.20224 0.01341 0.79316 0.0
C612 C 0.19779 0.04225 0.77263 0.0
C613 C 0.20704 0.04828 0.75669 0.0
C614 C 0.26806 0.95853 0.77465 0.0
C615 C 0.23273 0.0014 0.77377 0.0
C616 C 0.27368 0.9292 0.77864 0.0
C617 C 0.25461 0.91449 0.78886 0.0
C618 C 0.24315 0.97326 0.78086 0.0
C619 C 0.23157 0.93088 0.79608 0.0
C620 C 0.21048 0.01868 0.78119 0.0
C621 C 0.23032 0.0315 0.75011 0.0
N622 N 0.22614 0.95929 0.7917 0.0
N623 N 0.24222 0.00868 0.75862 0.0
H624 H 0.62695 0.50683 0.78973 0.0
H625 H 0.73001 0.36897 0.77489 0.0
H626 H 0.5961 0.4171 0.79561 0.0
H627 H 0.74444 0.45248 0.75224 0.0
H628 H 0.67929 0.38453 0.78052 0.0
H629 H 0.66862 0.4868 0.77428 0.0
C630 C 0.62883 0.48288 0.78754 0.0
C631 C 0.60836 0.46352 0.79403 0.0
C632 C 0.6933 0.39918 0.77398 0.0
C633 C 0.65607 0.4404 0.77662 0.0
C634 C 0.72226 0.3903 0.77075 0.0
C635 C 0.74158 0.40963 0.76328 0.0
C636 C 0.68386 0.42784 0.77004 0.0
C637 C 0.73034 0.43693 0.7581 0.0
C638 C 0.65248 0.47145 0.77867 0.0
C639 C 0.61153 0.4327 0.7908 0.0
N640 N 0.70242 0.44552 0.76191 0.0
N641 N 0.63531 0.42203 0.78257 0.0
H642 H 0.7302 0.11689 0.05989 0.0
H643 H 0.70114 0.24438 0.99698 0.0
H644 H 0.6522 0.11757 0.02563 0.0
H645 H 0.78625 0.23045 0.02319 0.0
H646 H 0.6846 0.19524 0.00469 0.0
H647 H 0.75275 0.15545 0.04446 0.0
C648 C 0.71794 0.12469 0.04894 0.0
C649 C 0.68902 0.11398 0.04421 0.0
C650 C 0.7071 0.20269 0.00846 0.0
C651 C 0.71465 0.15903 0.02664 0.0
C652 C 0.71662 0.23072 0.004 0.0
C653 C 0.74496 0.24178 0.00968 0.0
C654 C 0.72595 0.18581 0.01883 0.0
C655 C 0.76407 0.22303 0.0187 0.0
C656 C 0.73085 0.14693 0.04016 0.0
C657 C 0.67421 0.12558 0.03004 0.0
N658 N 0.75403 0.19622 0.02325 0.0
N659 N 0.68702 0.14773 0.02191 0.0
H660 H 0.04339 0.20109 0.33711 0.0
H661 H 0.89955 0.14996 0.28301 0.0
H662 H 0.045 0.1294 0.29868 0.0
H663 H 0.91448 0.24378 0.29587 0.0
H664 H 0.95129 0.14023 0.29197 0.0
H665 H 0.99503 0.21647 0.32489 0.0
C666 C 0.03392 0.18882 0.32599 0.0
C667 C 0.04823 0.16356 0.31909 0.0
C668 C 0.9433 0.16297 0.29274 0.0
C669 C 0.99264 0.18065 0.30544 0.0
C670 C 0.91376 0.16852 0.28776 0.0
C671 C 0.9028 0.1977 0.28877 0.0
C672 C 0.96184 0.18665 0.29917 0.0
C673 C 0.92221 0.22097 0.29487 0.0
C674 C 0.00626 0.19759 0.31909 0.0
C675 C 0.0345 0.14841 0.30478 0.0
N676 N 0.95083 0.21491 0.30009 0.0
N677 N 0.00729 0.15691 0.2986 0.0
H678 H 0.01825 0.52803 0.54459 0.0
H679 H 0.88685 0.41043 0.53283 0.0
H680 H 0.92653 0.55035 0.55219 0.0
H681 H 0.97512 0.39281 0.51615 0.0
H682 H 0.89907 0.46357 0.53586 0.0
H683 H 0.0017 0.48081 0.53018 0.0
C684 C 0.99456 0.52313 0.54295 0.0
C685 C 0.97371 0.54281 0.54977 0.0
C686 C 0.91562 0.4482 0.53124 0.0
C687 C 0.9546 0.48874 0.53353 0.0
C688 C 0.90866 0.41783 0.52952 0.0
C689 C 0.9302 0.39716 0.52452 0.0
C690 C 0.94453 0.45792 0.52823 0.0
C691 C 0.95795 0.40798 0.52019 0.0
C692 C 0.9851 0.49623 0.53469 0.0
C693 C 0.94329 0.53568 0.54714 0.0
N694 N 0.96453 0.4376 0.52247 0.0
N695 N 0.93466 0.50893 0.53951 0.0
H696 H 0.76844 0.11705 0.4826 0.0
H697 H 0.83073 0.2785 0.51585 0.0
H698 H 0.71204 0.19161 0.49526 0.0
H699 H 0.88726 0.20338 0.50438 0.0
H700 H 0.78698 0.24697 0.50833 0.0
H701 H 0.81227 0.14806 0.49099 0.0
C702 C 0.76527 0.13985 0.48731 0.0
C703 C 0.73653 0.15177 0.48821 0.0
C704 C 0.80895 0.23738 0.50745 0.0
C705 C 0.78661 0.18754 0.49757 0.0
C706 C 0.83397 0.2554 0.5117 0.0
C707 C 0.86274 0.24359 0.51074 0.0
C708 C 0.81269 0.20731 0.50218 0.0
C709 C 0.86553 0.21347 0.50531 0.0
C710 C 0.79031 0.15762 0.49198 0.0
C711 C 0.73378 0.18162 0.49415 0.0
N712 N 0.84082 0.19638 0.50124 0.0
N713 N 0.7585 0.19849 0.49857 0.0
H714 H 0.9746 0.2073 0.74419 0.0
H715 H 0.93431 0.38045 0.74591 0.0
H716 H 0.03839 0.27827 0.73948 0.0
H717 H 0.87187 0.31329 0.75919 0.0
H718 H 0.97188 0.34229 0.74263 0.0
H719 H 0.93612 0.24479 0.74928 0.0
C720 C 0.98056 0.23074 0.74434 0.0
C721 C 0.00978 0.23967 0.74141 0.0
C722 C 0.95001 0.33579 0.74629 0.0
C723 C 0.96592 0.28254 0.74712 0.0
C724 C 0.9284 0.35761 0.7481 0.0
C725 C 0.89979 0.35012 0.75285 0.0
C726 C 0.94312 0.30604 0.74913 0.0
C727 C 0.89363 0.32008 0.75551 0.0
C728 C 0.95861 0.25209 0.74728 0.0
C729 C 0.01631 0.27032 0.74189 0.0
N730 N 0.91514 0.29907 0.75359 0.0
N731 N 0.99454 0.29058 0.74456 0.0
H732 H 0.85085 0.55202 0.98396 0.0
H733 H 0.83462 0.37605 0.99345 0.0
H734 H 0.92059 0.4895 0.97253 0.0
H735 H 0.76175 0.43814 0.99661 0.0
H736 H 0.86761 0.41729 0.98733 0.0
H737 H 0.819 0.5105 0.99042 0.0
C738 C 0.85947 0.52956 0.98277 0.0
C739 C 0.88844 0.52429 0.97762 0.0
C740 C 0.84437 0.42181 0.98934 0.0
C741 C 0.8521 0.47653 0.98517 0.0
C742 C 0.82554 0.39828 0.99282 0.0
C743 C 0.79536 0.40361 0.99555 0.0
C744 C 0.83295 0.45084 0.98869 0.0
C745 C 0.78482 0.4329 0.99459 0.0
C746 C 0.84129 0.50583 0.98652 0.0
C747 C 0.89856 0.49469 0.97664 0.0
N748 N 0.80359 0.45536 0.99129 0.0
N749 N 0.88039 0.47192 0.98035 0.0
H750 H 0.64984 0.39996 0.25504 0.0
H751 H 0.81116 0.32704 0.24847 0.0
H752 H 0.7099 0.41579 0.21603 0.0
H753 H 0.74382 0.29211 0.27872 0.0
H754 H 0.77769 0.36732 0.24103 0.0
H755 H 0.68697 0.36699 0.2677 0.0
C756 C 0.67077 0.39662 0.24914 0.0
C757 C 0.67657 0.41068 0.23435 0.0
C758 C 0.77031 0.35103 0.24944 0.0
C759 C 0.71933 0.37344 0.24901 0.0
C760 C 0.78948 0.32807 0.25377 0.0
C761 C 0.78013 0.30591 0.26406 0.0
C762 C 0.74151 0.35192 0.25542 0.0
C763 C 0.75185 0.30861 0.27065 0.0
C764 C 0.69201 0.37795 0.25645 0.0
C765 C 0.70443 0.40591 0.22753 0.0
N766 N 0.73337 0.33103 0.26606 0.0
N767 N 0.72465 0.38767 0.23487 0.0
H768 H 0.27466 0.98402 0.40775 0.0
H769 H 0.29197 -7e-05 0.50808 0.0
H770 H 0.26045 0.06529 0.43773 0.0
H771 H 0.3046 0.91648 0.47982 0.0
H772 H 0.28431 0.02461 0.48194 0.0
H773 H 0.28953 0.95932 0.43348 0.0
C774 C 0.27488 0.99674 0.41969 0.0
C775 C 0.26625 0.02683 0.42052 0.0
C776 C 0.28883 0.00091 0.48139 0.0
C777 C 0.28328 -0.00127 0.44996 0.0
C778 C 0.29317 0.98674 0.49636 0.0
C779 C 0.29871 0.95598 0.49618 0.0
C780 C 0.28985 0.98431 0.466 0.0
C781 C 0.30026 0.9402 0.48055 0.0
C782 C 0.28344 0.98264 0.43435 0.0
C783 C 0.26732 0.04226 0.43634 0.0
N784 N 0.29566 0.95452 0.46606 0.0
N785 N 0.27547 0.028 0.45038 0.0
H786 H 0.1306 0.77224 0.66191 0.0
H787 H 0.13943 0.78879 0.76236 0.0
H788 H 0.06723 0.73385 0.69328 0.0
H789 H 0.21188 0.81413 0.73262 0.0
H790 H 0.10904 0.77663 0.73667 0.0
H791 H 0.15687 0.79579 0.68718 0.0
C792 C 0.12199 0.76923 0.6741 0.0
C793 C 0.09699 0.75089 0.67561 0.0
C794 C 0.13153 0.785 0.73573 0.0
C795 C 0.12671 0.77744 0.70439 0.0
C796 C 0.14894 0.79197 0.75042 0.0
C797 C 0.17844 0.80213 0.74967 0.0
C798 C 0.14361 0.78809 0.72009 0.0
C799 C 0.18935 0.8061 0.7338 0.0
C800 C 0.13702 0.78247 0.68848 0.0
C801 C 0.0867 0.74751 0.69164 0.0
N802 N 0.172 0.79883 0.7196 0.0
N803 N 0.10168 0.7605 0.70539 0.0
H804 H 0.39252 0.63824 0.89397 0.0
H805 H 0.37151 0.63661 0.99271 0.0
H806 H 0.43029 0.5732 0.92654 0.0
H807 H 0.34811 0.71245 0.9639 0.0
H808 H 0.38411 0.60905 0.96706 0.0
H809 H 0.36769 0.66181 0.918 0.0
C810 C 0.3952 0.62875 0.90613 0.0
C811 C 0.41369 0.60405 0.90842 0.0
C812 C 0.37605 0.63166 0.96628 0.0
C813 C 0.38553 0.63054 0.93572 0.0
C814 C 0.36882 0.64745 0.98095 0.0
C815 C 0.35919 0.67709 0.98051 0.0
C816 C 0.37388 0.64556 0.95097 0.0
C817 C 0.3557 0.68973 0.96483 0.0
C818 C 0.38119 0.64221 0.9198 0.0
C819 C 0.41656 0.59251 0.92435 0.0
N820 N 0.36339 0.67399 0.95066 0.0
N821 N 0.40276 0.60591 0.93738 0.0
H822 H 0.50439 0.9374 0.1532 0.0
H823 H 0.53358 0.90588 0.25009 0.0
H824 H 0.58304 0.96676 0.18345 0.0
H825 H 0.44722 0.8925 0.22405 0.0
H826 H 0.5519 0.92749 0.22534 0.0
H827 H 0.48274 0.92017 0.17849 0.0
C828 C 0.51705 0.94038 0.16514 0.0
C829 C 0.54577 0.95327 0.16612 0.0
C830 C 0.52886 0.92004 0.22501 0.0
C831 C 0.52121 0.93339 0.19504 0.0
C832 C 0.51838 0.90765 0.23917 0.0
C833 C 0.48883 0.89728 0.23912 0.0
C834 C 0.50983 0.92185 0.21055 0.0
C835 C 0.47015 0.90028 0.22462 0.0
C836 C 0.50469 0.93047 0.17955 0.0
C837 C 0.56117 0.95632 0.18194 0.0
N838 N 0.48103 0.91207 0.21083 0.0
N839 N 0.54878 0.94635 0.1957 0.0
H840 H 0.10732 0.74565 0.91783 0.0
H841 H 0.12729 0.75728 0.82038 0.0
H842 H 0.04259 0.71448 0.87868 0.0
H843 H 0.18182 0.80994 0.85733 0.0
H844 H 0.09536 0.74326 0.84221 0.0
H845 H 0.13422 0.77175 0.89683 0.0
C846 C 0.09856 0.74471 0.90489 0.0
C847 C 0.0731 0.72741 0.89987 0.0
C848 C 0.11408 0.75814 0.84564 0.0
C849 C 0.10354 0.75686 0.87596 0.0
C850 C 0.13239 0.76608 0.83314 0.0
C851 C 0.1573 0.7846 0.8371 0.0
C852 C 0.12097 0.76825 0.86238 0.0
C853 C 0.16274 0.7956 0.85381 0.0
C854 C 0.1139 0.75951 0.89294 0.0
C855 C 0.06256 0.72695 0.883 0.0
N856 N 0.14494 0.78685 0.86596 0.0
N857 N 0.07797 0.74112 0.87167 0.0
H858 H 0.49277 0.54707 0.10838 0.0
H859 H 0.36826 0.66817 0.08654 0.0
H860 H 0.44913 0.59892 0.14687 0.0
H861 H 0.43088 0.63198 0.05192 0.0
H862 H 0.39086 0.63726 0.10832 0.0
H863 H 0.46321 0.57219 0.08704 0.0
C864 C 0.47699 0.56383 0.11236 0.0
C865 C 0.47387 0.57131 0.12945 0.0
C866 C 0.39941 0.63602 0.0959 0.0
C867 C 0.43953 0.60004 0.10498 0.0
C868 C 0.38647 0.65349 0.08348 0.0
C869 C 0.39789 0.65277 0.06747 0.0
C870 C 0.42357 0.6175 0.09211 0.0
C871 C 0.42155 0.63347 0.06414 0.0
C872 C 0.45998 0.57808 0.10015 0.0
C873 C 0.45232 0.59254 0.13383 0.0
N874 N 0.43358 0.61669 0.07633 0.0
N875 N 0.4361 0.60638 0.12165 0.0
H876 H 0.5231 0.00785 0.38459 0.0
H877 H 0.44623 0.85641 0.34582 0.0
H878 H 0.49941 0.93698 0.41583 0.0
H879 H 0.49255 0.91945 0.31745 0.0
H880 H 0.46054 0.88667 0.37167 0.0
H881 H 0.50556 0.97739 0.35991 0.0
C882 C 0.51369 0.98603 0.38631 0.0
C883 C 0.51251 0.97509 0.40237 0.0
C884 C 0.46758 0.89371 0.35976 0.0
C885 C 0.49304 0.93954 0.37391 0.0
C886 C 0.45946 0.87649 0.34502 0.0
C887 C 0.46821 0.8854 0.32943 0.0
C888 C 0.48423 0.92009 0.35881 0.0
C889 C 0.48531 0.91162 0.32914 0.0
C890 C 0.50402 0.96845 0.37214 0.0
C891 C 0.50083 0.94624 0.40368 0.0
N892 N 0.4926 0.92803 0.34357 0.0
N893 N 0.49151 0.92939 0.38961 0.0
H894 H 0.25084 0.04799 0.66945 0.0
H895 H 0.2607 0.02855 0.57039 0.0
H896 H 0.20842 0.10535 0.63393 0.0
H897 H 0.31185 0.97445 0.60425 0.0
H898 H 0.24732 0.06106 0.59412 0.0
H899 H 0.27914 0.02476 0.64669 0.0
C900 C 0.24797 0.05603 0.65694 0.0
C901 C 0.22698 0.07818 0.65342 0.0
C902 C 0.26179 0.04234 0.59646 0.0
C903 C 0.25889 0.05189 0.62749 0.0
C904 C 0.26943 0.02377 0.58287 0.0
C905 C 0.28712 -0.00134 0.58542 0.0
C906 C 0.27131 0.03545 0.61284 0.0
C907 C 0.29809 0.99363 0.60181 0.0
C908 C 0.264 0.04277 0.64397 0.0
C909 C 0.224 0.08791 0.63706 0.0
N910 N 0.28954 0.01158 0.61499 0.0
N911 N 0.2395 0.07451 0.62471 0.0
H912 H 0.61172 0.40357 0.88328 0.0
H913 H 0.62472 0.38981 0.98262 0.0
H914 H 0.55686 0.45031 0.91857 0.0
H915 H 0.68012 0.33924 0.9492 0.0
H916 H 0.59505 0.4062 0.95849 0.0
H917 H 0.63295 0.3744 0.90625 0.0
C918 C 0.60392 0.40738 0.8958 0.0
C919 C 0.58299 0.42973 0.89915 0.0
C920 C 0.61344 0.39123 0.95633 0.0
C921 C 0.60687 0.39664 0.9253 0.0
C922 C 0.63035 0.3818 0.97015 0.0
C923 C 0.65504 0.36338 0.96788 0.0
C924 C 0.62155 0.38269 0.94003 0.0
C925 C 0.66122 0.35349 0.95146 0.0
C926 C 0.61602 0.39082 0.90888 0.0
C927 C 0.57347 0.43377 0.91553 0.0
N928 N 0.64487 0.36369 0.93809 0.0
N929 N 0.58562 0.4176 0.92797 0.0
H930 H 0.73448 0.14107 0.13941 0.0
H931 H 0.77152 0.12662 0.23759 0.0
H932 H 0.72352 0.06032 0.16542 0.0
H933 H 0.79719 0.20395 0.2118 0.0
H934 H 0.75369 0.10251 0.21084 0.0
H935 H 0.75773 0.16508 0.16537 0.0
C936 C 0.73721 0.12833 0.15049 0.0
C937 C 0.72717 0.09858 0.15018 0.0
C938 C 0.76333 0.12471 0.21097 0.0
C939 C 0.75345 0.12586 0.17984 0.0
C940 C 0.77344 0.13856 0.22629 0.0
C941 C 0.78579 0.16741 0.22696 0.0
C942 C 0.76529 0.13983 0.19615 0.0
C943 C 0.78781 0.18167 0.21185 0.0
C944 C 0.75052 0.14199 0.16527 0.0
C945 C 0.73137 0.08308 0.16491 0.0
N946 N 0.77749 0.16779 0.19704 0.0
N947 N 0.74398 0.09695 0.1791 0.0
H948 H 0.10457 0.23474 0.41503 0.0
H949 H 0.01114 0.20041 0.49395 0.0
H950 H 0.07454 0.14696 0.42623 0.0
H951 H 0.01398 0.28849 0.47496 0.0
H952 H 0.04057 0.18179 0.47107 0.0
H953 H 0.07698 0.2561 0.43857 0.0
C954 C 0.09217 0.22002 0.42243 0.0
C955 C 0.09161 0.18907 0.41862 0.0
C956 C 0.03482 0.20521 0.47187 0.0
C957 C 0.0605 0.21318 0.44551 0.0
C958 C 0.01809 0.21594 0.48501 0.0
C959 C 0.00993 0.24608 0.48635 0.0
C960 C 0.04377 0.22471 0.45995 0.0
C961 C 0.0197 0.26507 0.47435 0.0
C962 C 0.07641 0.2322 0.43578 0.0
C963 C 0.07521 0.17096 0.42856 0.0
N964 N 0.03615 0.25406 0.46161 0.0
N965 N 0.06045 0.18326 0.44156 0.0
H966 H 0.97215 0.51842 0.64833 0.0
H967 H 0.83472 0.49354 0.70548 0.0
H968 H 0.89847 0.57971 0.64854 0.0
H969 H 0.92585 0.4694 0.71805 0.0
H970 H 0.85151 0.51621 0.6801 0.0
H971 H 0.94802 0.48958 0.66881 0.0
C972 C 0.95068 0.52559 0.65254 0.0
C973 C 0.93761 0.55185 0.64701 0.0
C974 C 0.86763 0.50577 0.68845 0.0
C975 C 0.90984 0.51888 0.67044 0.0
C976 C 0.85813 0.49289 0.70286 0.0
C977 C 0.87901 0.4799 0.71394 0.0
C978 C 0.89798 0.50476 0.685 0.0
C979 C 0.90904 0.47952 0.70999 0.0
C980 C 0.93695 0.50915 0.66422 0.0
C981 C 0.90937 0.55967 0.65256 0.0
N982 N 0.91756 0.49162 0.69585 0.0
N983 N 0.89652 0.54345 0.66419 0.0
H984 H 0.67174 0.17191 0.39075 0.0
H985 H 0.77622 0.11893 0.31705 0.0
H986 H 0.7153 0.0865 0.38728 0.0
H987 H 0.74598 0.20972 0.32389 0.0
H988 H 0.75154 0.10645 0.34207 0.0
H989 H 0.69653 0.18608 0.36575 0.0
C990 C 0.68654 0.15617 0.38475 0.0
C991 C 0.69153 0.128 0.39115 0.0
C992 C 0.75025 0.12913 0.33815 0.0
C993 C 0.71983 0.14401 0.36258 0.0
C994 C 0.76429 0.13629 0.32379 0.0
C995 C 0.76319 0.16546 0.31834 0.0
C996 C 0.73478 0.15123 0.34719 0.0
C997 C 0.7474 0.18696 0.32765 0.0
C998 C 0.70074 0.16431 0.37053 0.0
C999 C 0.7111 0.10859 0.38295 0.0
N1000 N 0.73375 0.17941 0.34163 0.0
N1001 N 0.72439 0.11691 0.36909 0.0
H1002 H 0.07885 0.25693 0.644 0.0
H1003 H 0.93303 0.2897 0.58635 0.0
H1004 H 0.99265 0.22005 0.65291 0.0
H1005 H 0.02024 0.27902 0.56681 0.0
H1006 H 0.95431 0.27824 0.61424 0.0
H1007 H 0.05676 0.27977 0.61904 0.0
C1008 C 0.05514 0.25426 0.64089 0.0
C1009 C 0.03747 0.23659 0.65039 0.0
C1010 C 0.96874 0.27878 0.60384 0.0
C1011 C 0.01224 0.26252 0.6221 0.0
C1012 C 0.95671 0.28539 0.58799 0.0
C1013 C 0.97491 0.28501 0.57427 0.0
C1014 C -0.00076 0.27246 0.606 0.0
C1015 C 0.00541 0.27921 0.57704 0.0
C1016 C 0.04265 0.26707 0.62664 0.0
C1017 C 0.00694 0.23345 0.64579 0.0
N1018 N 0.01666 0.27317 0.59261 0.0
N1019 N 0.99523 0.24626 0.63191 0.0
H1020 H 0.88019 0.51809 0.89369 0.0
H1021 H 0.87318 0.5115 0.79322 0.0
H1022 H 0.9108 0.58893 0.86438 0.0
H1023 H 0.84207 0.43982 0.8218 0.0
H1024 H 0.88406 0.54133 0.81932 0.0
H1025 H 0.86313 0.49015 0.86765 0.0
C1026 C 0.88318 0.52784 0.8818 0.0
C1027 C 0.89699 0.5559 0.88124 0.0
C1028 C 0.87474 0.51912 0.8199 0.0
C1029 C 0.8775 0.52411 0.85142 0.0
C1030 C 0.86854 0.50203 0.80498 0.0
C1031 C 0.85686 0.473 0.8053 0.0
C1032 C 0.86937 0.50713 0.83532 0.0
C1033 C 0.85117 0.46204 0.82094 0.0
C1034 C 0.87336 0.51193 0.86695 0.0
C1035 C 0.89994 0.56759 0.86547 0.0
N1036 N 0.85763 0.47906 0.83534 0.0
N1037 N 0.89046 0.55158 0.85122 0.0
H1038 H 0.61385 0.37475 0.12667 0.0
H1039 H 0.7536 0.35497 0.06941 0.0
H1040 H 0.69922 0.41743 0.13916 0.0
H1041 H 0.66194 0.34296 0.05066 0.0
H1042 H 0.73636 0.36631 0.0976 0.0
H1043 H 0.63413 0.35077 0.10153 0.0
C1044 C 0.63708 0.37847 0.12433 0.0
C1045 C 0.65487 0.39823 0.13491 0.0
C1046 C 0.7201 0.36089 0.08732 0.0
C1047 C 0.67803 0.3712 0.10616 0.0
C1048 C 0.72988 0.35435 0.07125 0.0
C1049 C 0.70913 0.34837 0.05764 0.0
C1050 C 0.6894 0.36102 0.0898 0.0
C1051 C 0.67868 0.34782 0.06076 0.0
C1052 C 0.64853 0.36502 0.10992 0.0
C1053 C 0.68472 0.40257 0.1312 0.0
N1054 N 0.66972 0.35419 0.07651 0.0
N1055 N 0.69534 0.38932 0.11705 0.0
loop_
_geom_bond_atom_site_label_1
_geom_bond_atom_site_label_2
_geom_bond_distance
_geom_bond_site_symmetry_2
_ccdc_geom_bond_type
C0 C1 1.384 1_565 S
C0 C2 1.384 . S
C0 H28 0.931 . S
C1 C0 1.384 1_545 S
C1 C4 1.383 . S
C2 C0 1.384 . S
C2 C3 1.381 1_565 S
C2 H29 0.930 . S
C3 C2 1.381 1_545 S
C3 C5 1.381 . S
C3 C6 1.487 . S
C4 C1 1.383 . S
C4 C5 1.387 . S
C4 H30 0.930 . S
C5 C3 1.381 . S
C5 C4 1.387 . S
C5 H31 0.931 . S
C6 C3 1.487 . S
C6 C13 1.399 . S
C6 N44 1.343 . S
C7 C8 1.384 . S
C7 C9 1.384 1_565 S
C7 H32 0.931 . S
C8 C7 1.384 . S
C8 C11 1.382 . S
C9 C7 1.384 1_545 S
C9 C10 1.381 . S
C9 H33 0.930 . S
C10 C9 1.381 . S
C10 C12 1.381 1_545 S
C10 C13 1.487 . S
C11 C8 1.382 . S
C11 C12 1.387 . S
C11 H34 0.930 . S
C12 C10 1.381 1_565 S
C12 C11 1.387 . S
C12 H35 0.931 . S
C13 C6 1.399 . S
C13 C10 1.487 . S
C13 N45 1.343 . S
C14 C15 1.384 . S
C14 C16 1.384 . S
C14 H36 0.931 . S
C15 C14 1.384 . S
C15 C18 1.382 . S
C16 C14 1.384 . S
C16 C17 1.381 . S
C16 H37 0.930 . S
C17 C16 1.381 . S
C17 C19 1.381 . S
C17 C20 1.487 . S
C18 C15 1.382 . S
C18 C19 1.387 . S
C18 H38 0.930 . S
C19 C17 1.381 . S
C19 C18 1.387 . S
C19 H39 0.931 . S
C20 C17 1.487 . S
C20 C27 1.399 . S
C20 N45 1.343 . S
C21 C22 1.384 . S
C21 C23 1.384 . S
C21 H40 0.931 . S
C22 C21 1.384 . S
C22 C25 1.382 . S
C23 C21 1.384 . S
C23 C24 1.381 . S
C23 H41 0.930 . S
C24 C23 1.381 . S
C24 C26 1.381 . S
C24 C27 1.487 . S
C25 C22 1.382 . S
C25 C26 1.387 . S
C25 H42 0.930 . S
C26 C24 1.381 . S
C26 C25 1.387 . S
C26 H43 0.931 . S
C27 C20 1.399 . S
C27 C24 1.487 . S
C27 N44 1.343 . S
H28 C0 0.931 . S
H29 C2 0.930 . S
H30 C4 0.930 . S
H31 C5 0.931 . S
H32 C7 0.931 . S
H33 C9 0.930 . S
H34 C11 0.930 . S
H35 C12 0.931 . S
H36 C14 0.931 . S
H37 C16 0.930 . S
H38 C18 0.930 . S
H39 C19 0.931 . S
H40 C21 0.931 . S
H41 C23 0.930 . S
H42 C25 0.930 . S
H43 C26 0.931 . S
N44 C6 1.343 . S
N44 C27 1.343 . S
N45 C13 1.343 . S
N45 C20 1.343 . S
C46 C47 1.384 . S
C46 C48 1.384 . S
C46 H74 0.931 . S
C47 C46 1.384 . S
C47 C50 1.382 . S
C48 C46 1.384 . S
C48 C49 1.381 1_655 S
C48 H75 0.930 . S
C49 C48 1.381 1_455 S
C49 C51 1.381 . S
C49 C52 1.487 . S
C50 C47 1.382 . S
C50 C51 1.387 1_655 S
C50 H76 0.930 1_655 S
C51 C49 1.381 . S
C51 C50 1.387 1_455 S
C51 H77 0.931 . S
C52 C49 1.487 . S
C52 C59 1.399 . S
C52 N90 1.343 . S
C53 C54 1.384 1_455 S
C53 C55 1.384 . S
C53 H78 0.931 . S
C54 C53 1.384 1_655 S
C54 C57 1.382 . S
C55 C53 1.384 . S
C55 C56 1.381 . S
C55 H79 0.930 . S
C56 C55 1.381 . S
C56 C58 1.381 . S
C56 C59 1.487 . S
C57 C54 1.382 . S
C57 C58 1.387 1_655 S
C57 H80 0.930 . S
C58 C56 1.381 . S
C58 C57 1.387 1_455 S
C58 H81 0.931 . S
C59 C52 1.399 . S
C59 C56 1.487 . S
C59 N91 1.343 . S
C60 C61 1.384 . S
C60 C62 1.384 . S
C60 H82 0.931 . S
C61 C60 1.384 . S
C61 C64 1.382 . S
C62 C60 1.384 . S
C62 C63 1.381 . S
C62 H83 0.930 . S
C63 C62 1.381 . S
C63 C65 1.381 . S
C63 C66 1.487 . S
C64 C61 1.382 . S
C64 C65 1.387 . S
C64 H84 0.930 . S
C65 C63 1.381 . S
C65 C64 1.387 . S
C65 H85 0.931 . S
C66 C63 1.487 . S
C66 C73 1.399 . S
C66 N91 1.343 . S
C67 C68 1.384 . S
C67 C69 1.384 . S
C67 H86 0.931 . S
C68 C67 1.384 . S
C68 C71 1.382 . S
C69 C67 1.384 . S
C69 C70 1.381 . S
C69 H87 0.930 . S
C70 C69 1.381 . S
C70 C72 1.381 . S
C70 C73 1.487 . S
C71 C68 1.382 . S
C71 C72 1.387 . S
C71 H88 0.930 . S
C72 C70 1.381 . S
C72 C71 1.387 . S
C72 H89 0.931 . S
C73 C66 1.399 . S
C73 C70 1.487 . S
C73 N90 1.343 . S
H74 C46 0.931 . S
H75 C48 0.930 . S
H76 C50 0.930 1_455 S
H77 C51 0.931 . S
H78 C53 0.931 . S
H79 C55 0.930 . S
H80 C57 0.930 . S
H81 C58 0.931 . S
H82 C60 0.931 . S
H83 C62 0.930 . S
H84 C64 0.930 . S
H85 C65 0.931 . S
H86 C67 0.931 . S
H87 C69 0.930 . S
H88 C71 0.930 . S
H89 C72 0.931 . S
N90 C52 1.343 . S
N90 C73 1.343 . S
N91 C59 1.343 . S
N91 C66 1.343 . S
C92 C93 1.384 . S
C92 C94 1.384 . S
C92 H120 0.931 . S
C93 C92 1.384 . S
C93 C96 1.382 . S
C94 C92 1.384 . S
C94 C95 1.381 . S
C94 H121 0.930 . S
C95 C94 1.381 . S
C95 C97 1.381 . S
C95 C98 1.487 . S
C96 C93 1.382 . S
C96 C97 1.387 . S
C96 H122 0.930 . S
C97 C95 1.381 . S
C97 C96 1.387 . S
C97 H123 0.931 . S
C98 C95 1.487 . S
C98 C105 1.399 . S
C98 N136 1.343 . S
C99 C100 1.384 . S
C99 C101 1.384 . S
C99 H124 0.931 . S
C100 C99 1.384 . S
C100 C103 1.382 . S
C101 C99 1.384 . S
C101 C102 1.381 . S
C101 H125 0.930 . S
C102 C101 1.381 . S
C102 C104 1.381 . S
C102 C105 1.487 . S
C103 C100 1.382 . S
C103 C104 1.387 . S
C103 H126 0.930 . S
C104 C102 1.381 . S
C104 C103 1.387 . S
C104 H127 0.931 . S
C105 C98 1.399 . S
C105 C102 1.487 . S
C105 N137 1.343 . S
C106 C107 1.384 . S
C106 C108 1.384 . S
C106 H128 0.931 . S
C107 C106 1.384 . S
C107 C110 1.382 . S
C108 C106 1.384 . S
C108 C109 1.381 . S
C108 H129 0.930 . S
C109 C108 1.381 . S
C109 C111 1.381 . S
C109 C112 1.487 . S
C110 C107 1.382 . S
C110 C111 1.387 . S
C110 H130 0.930 . S
C111 C109 1.381 . S
C111 C110 1.387 . S
C111 H131 0.931 . S
C112 C109 1.487 . S
C112 C119 1.399 . S
C112 N137 1.343 . S
C113 C114 1.384 . S
C113 C115 1.384 . S
C113 H132 0.931 . S
C114 C113 1.384 . S
C114 C117 1.382 . S
C115 C113 1.384 . S
C115 C116 1.381 . S
C115 H133 0.930 . S
C116 C115 1.381 . S
C116 C118 1.381 . S
C116 C119 1.487 . S
C117 C114 1.382 . S
C117 C118 1.387 . S
C117 H134 0.930 . S
C118 C116 1.381 . S
C118 C117 1.387 . S
C118 H135 0.931 . S
C119 C112 1.399 . S
C119 C116 1.487 . S
C119 N136 1.343 . S
H120 C92 0.931 . S
H121 C94 0.930 . S
H122 C96 0.930 . S
H123 C97 0.931 . S
H124 C99 0.931 . S
H125 C101 0.930 . S
H126 C103 0.930 . S
H127 C104 0.931 . S
H128 C106 0.931 . S
H129 C108 0.930 . S
H130 C110 0.930 . S
H131 C111 0.931 . S
H132 C113 0.931 . S
H133 C115 0.930 . S
H134 C117 0.930 . S
H135 C118 0.931 . S
N136 C98 1.343 . S
N136 C119 1.343 . S
N137 C105 1.343 . S
N137 C112 1.343 . S
C138 C139 1.384 . S
C138 C140 1.384 . S
C138 H166 0.931 . S
C139 C138 1.384 . S
C139 C142 1.382 . S
C140 C138 1.384 . S
C140 C141 1.381 . S
C140 H167 0.930 . S
C141 C140 1.381 . S
C141 C143 1.381 . S
C141 C144 1.487 . S
C142 C139 1.382 . S
C142 C143 1.387 . S
C142 H168 0.930 . S
C143 C141 1.381 . S
C143 C142 1.387 . S
C143 H169 0.931 . S
C144 C141 1.487 . S
C144 C151 1.399 . S
C144 N182 1.343 1_565 S
C145 C146 1.384 . S
C145 C147 1.384 . S
C145 H170 0.931 . S
C146 C145 1.384 . S
C146 C149 1.382 . S
C147 C145 1.384 . S
C147 C148 1.381 . S
C147 H171 0.930 . S
C148 C147 1.381 . S
C148 C150 1.381 . S
C148 C151 1.487 . S
C149 C146 1.382 . S
C149 C150 1.387 . S
C149 H172 0.930 . S
C150 C148 1.381 . S
C150 C149 1.387 . S
C150 H173 0.931 . S
C151 C144 1.399 . S
C151 C148 1.487 . S
C151 N183 1.343 . S
C152 C153 1.384 . S
C152 C154 1.384 . S
C152 H174 0.931 . S
C153 C152 1.384 . S
C153 C156 1.382 . S
C154 C152 1.384 . S
C154 C155 1.381 . S
C154 H175 0.930 . S
C155 C154 1.381 . S
C155 C157 1.381 . S
C155 C158 1.487 . S
C156 C153 1.382 . S
C156 C157 1.387 . S
C156 H176 0.930 . S
C157 C155 1.381 . S
C157 C156 1.387 . S
C157 H177 0.931 . S
C158 C155 1.487 . S
C158 C165 1.399 . S
C158 N183 1.343 1_545 S
C159 C160 1.384 . S
C159 C161 1.384 . S
C159 H178 0.931 . S
C160 C159 1.384 . S
C160 C163 1.382 . S
C161 C159 1.384 . S
C161 C162 1.381 . S
C161 H179 0.930 . S
C162 C161 1.381 . S
C162 C164 1.381 . S
C162 C165 1.487 . S
C163 C160 1.382 . S
C163 C164 1.387 . S
C163 H180 0.930 . S
C164 C162 1.381 . S
C164 C163 1.387 . S
C164 H181 0.931 . S
C165 C158 1.399 . S
C165 C162 1.487 . S
C165 N182 1.343 . S
H166 C138 0.931 . S
H167 C140 0.930 . S
H168 C142 0.930 . S
H169 C143 0.931 . S
H170 C145 0.931 . S
H171 C147 0.930 . S
H172 C149 0.930 . S
H173 C150 0.931 . S
H174 C152 0.931 . S
H175 C154 0.930 . S
H176 C156 0.930 . S
H177 C157 0.931 . S
H178 C159 0.931 . S
H179 C161 0.930 . S
H180 C163 0.930 . S
H181 C164 0.931 . S
N182 C144 1.343 1_545 S
N182 C165 1.343 . S
N183 C151 1.343 . S
N183 C158 1.343 1_565 S
C184 C185 1.384 . S
C184 C186 1.384 . S
C184 H212 0.931 . S
C185 C184 1.384 . S
C185 C188 1.382 . S
C186 C184 1.384 . S
C186 C187 1.381 . S
C186 H213 0.930 . S
C187 C186 1.381 . S
C187 C189 1.381 . S
C187 C190 1.487 . S
C188 C185 1.382 . S
C188 C189 1.387 . S
C188 H214 0.930 . S
C189 C187 1.381 . S
C189 C188 1.387 . S
C189 H215 0.931 . S
C190 C187 1.487 . S
C190 C197 1.399 . S
C190 N228 1.337 1_455 S
C191 C192 1.384 . S
C191 C193 1.384 . S
C191 H216 0.931 . S
C192 C191 1.384 . S
C192 C195 1.380 . S
C193 C191 1.384 . S
C193 C194 1.381 . S
C193 H217 0.930 . S
C194 C193 1.381 . S
C194 C196 1.381 . S
C194 C197 1.487 . S
C195 C192 1.380 . S
C195 C196 1.383 . S
C195 H218 0.936 1_556 S
C196 C194 1.381 . S
C196 C195 1.383 . S
C196 H219 0.931 . S
C197 C190 1.399 . S
C197 C194 1.487 . S
C197 N229 1.356 . S
C198 C199 1.384 . S
C198 C200 1.384 . S
C198 H220 0.931 . S
C199 C198 1.384 . S
C199 C202 1.382 . S
C200 C198 1.384 . S
C200 C201 1.381 . S
C200 H221 0.930 . S
C201 C200 1.381 . S
C201 C203 1.381 . S
C201 C204 1.487 . S
C202 C199 1.382 . S
C202 C203 1.387 . S
C202 H222 0.930 . S
C203 C201 1.381 . S
C203 C202 1.387 . S
C203 H223 0.931 . S
C204 C201 1.487 . S
C204 C211 1.399 . S
C204 N229 1.332 1_655 S
C205 C206 1.384 . S
C205 C207 1.384 . S
C205 H224 0.931 . S
C206 C205 1.384 . S
C206 C209 1.382 . S
C207 C205 1.384 . S
C207 C208 1.381 . S
C207 H225 0.930 . S
C208 C207 1.381 . S
C208 C210 1.381 . S
C208 C211 1.487 . S
C209 C206 1.382 . S
C209 C210 1.387 . S
C209 H226 0.930 . S
C210 C208 1.381 . S
C210 C209 1.387 . S
C210 H227 0.931 . S
C211 C204 1.399 . S
C211 C208 1.487 . S
C211 N228 1.349 . S
H212 C184 0.931 . S
H213 C186 0.930 . S
H214 C188 0.930 . S
H215 C189 0.931 . S
H216 C191 0.931 . S
H217 C193 0.930 . S
H218 C195 0.936 1_554 S
H219 C196 0.931 . S
H220 C198 0.931 . S
H221 C200 0.930 . S
H222 C202 0.930 . S
H223 C203 0.931 . S
H224 C205 0.931 . S
H225 C207 0.930 . S
H226 C209 0.930 . S
H227 C210 0.931 . S
N228 C190 1.337 1_655 S
N228 C211 1.349 . S
N229 C197 1.356 . S
N229 C204 1.332 1_455 S
C230 C231 1.384 . S
C230 C232 1.384 . S
C230 H258 0.931 . S
C231 C230 1.384 . S
C231 C234 1.382 . S
C232 C230 1.384 . S
C232 C233 1.381 . S
C232 H259 0.930 . S
C233 C232 1.381 . S
C233 C235 1.381 . S
C233 C236 1.487 . S
C234 C231 1.382 . S
C234 C235 1.387 . S
C234 H260 0.930 . S
C235 C233 1.381 . S
C235 C234 1.387 . S
C235 H261 0.931 . S
C236 C233 1.487 . S
C236 C243 1.399 . S
C236 N274 1.343 . S
C237 C238 1.384 . S
C237 C239 1.384 . S
C237 H262 0.931 . S
C238 C237 1.384 . S
C238 C241 1.382 . S
C239 C237 1.384 . S
C239 C240 1.381 . S
C239 H263 0.930 . S
C240 C239 1.381 . S
C240 C242 1.381 . S
C240 C243 1.487 . S
C241 C238 1.382 . S
C241 C242 1.387 . S
C241 H264 0.930 . S
C242 C240 1.381 . S
C242 C241 1.387 . S
C242 H265 0.931 . S
C243 C236 1.399 . S
C243 C240 1.487 . S
C243 N275 1.343 . S
C244 C245 1.384 . S
C244 C246 1.384 . S
C244 H266 0.931 . S
C245 C244 1.384 . S
C245 C248 1.382 . S
C246 C244 1.384 . S
C246 C247 1.381 . S
C246 H267 0.930 . S
C247 C246 1.381 . S
C247 C249 1.381 . S
C247 C250 1.487 . S
C248 C245 1.382 . S
C248 C249 1.387 . S
C248 H268 0.930 . S
C249 C247 1.381 . S
C249 C248 1.387 . S
C249 H269 0.931 . S
C250 C247 1.487 . S
C250 C257 1.399 . S
C250 N275 1.343 . S
C251 C252 1.384 . S
C251 C253 1.384 . S
C251 H270 0.931 . S
C252 C251 1.384 . S
C252 C255 1.382 . S
C253 C251 1.384 . S
C253 C254 1.381 . S
C253 H271 0.930 . S
C254 C253 1.381 . S
C254 C256 1.381 . S
C254 C257 1.487 . S
C255 C252 1.382 . S
C255 C256 1.387 . S
C255 H272 0.930 . S
C256 C254 1.381 . S
C256 C255 1.387 . S
C256 H273 0.931 . S
C257 C250 1.399 . S
C257 C254 1.487 . S
C257 N274 1.343 . S
H258 C230 0.931 . S
H259 C232 0.930 . S
H260 C234 0.930 . S
H261 C235 0.931 . S
H262 C237 0.931 . S
H263 C239 0.930 . S
H264 C241 0.930 . S
H265 C242 0.931 . S
H266 C244 0.931 . S
H267 C246 0.930 . S
H268 C248 0.930 . S
H269 C249 0.931 . S
H270 C251 0.931 . S
H271 C253 0.930 . S
H272 C255 0.930 . S
H273 C256 0.931 . S
N274 C236 1.343 . S
N274 C257 1.343 . S
N275 C243 1.343 . S
N275 C250 1.343 . S
C276 C277 1.384 . S
C276 C278 1.384 . S
C276 H304 0.931 . S
C277 C276 1.384 . S
C277 C280 1.382 . S
C278 C276 1.384 . S
C278 C279 1.381 . S
C278 H305 0.930 . S
C279 C278 1.381 . S
C279 C281 1.381 . S
C279 C282 1.487 1_565 S
C280 C277 1.382 . S
C280 C281 1.387 . S
C280 H306 0.930 . S
C281 C279 1.381 . S
C281 C280 1.387 . S
C281 H307 0.931 1_565 S
C282 C279 1.487 1_545 S
C282 C289 1.399 . S
C282 N320 1.343 . S
C283 C284 1.384 . S
C283 C285 1.384 1_565 S
C283 H308 0.931 . S
C284 C283 1.384 . S
C284 C287 1.382 . S
C285 C283 1.384 1_545 S
C285 C286 1.383 . S
C285 H309 0.930 . S
C286 C285 1.383 . S
C286 C288 1.372 1_545 S
C286 C289 1.497 . S
C287 C284 1.382 . S
C287 C288 1.387 . S
C287 H310 0.930 . S
C288 C286 1.372 1_565 S
C288 C287 1.387 . S
C288 H311 0.931 . S
C289 C282 1.399 . S
C289 C286 1.497 . S
C289 N321 1.343 . S
C290 C291 1.384 . S
C290 C292 1.384 . S
C290 H312 0.931 . S
C291 C290 1.384 . S
C291 C294 1.382 . S
C292 C290 1.384 . S
C292 C293 1.381 . S
C292 H313 0.930 . S
C293 C292 1.381 . S
C293 C295 1.381 . S
C293 C296 1.487 . S
C294 C291 1.382 . S
C294 C295 1.387 . S
C294 H314 0.930 . S
C295 C293 1.381 . S
C295 C294 1.387 . S
C295 H315 0.931 . S
C296 C293 1.487 . S
C296 C303 1.399 . S
C296 N321 1.343 . S
C297 C298 1.384 . S
C297 C299 1.384 . S
C297 H316 0.931 . S
C298 C297 1.384 . S
C298 C301 1.382 . S
C299 C297 1.384 . S
C299 C300 1.381 . S
C299 H317 0.930 . S
C300 C299 1.381 . S
C300 C302 1.381 . S
C300 C303 1.487 . S
C301 C298 1.382 . S
C301 C302 1.387 . S
C301 H318 0.930 . S
C302 C300 1.381 . S
C302 C301 1.387 . S
C302 H319 0.931 . S
C303 C296 1.399 . S
C303 C300 1.487 . S
C303 N320 1.343 . S
H304 C276 0.931 . S
H305 C278 0.930 . S
H306 C280 0.930 . S
H307 C281 0.931 1_545 S
H308 C283 0.931 . S
H309 C285 0.930 . S
H310 C287 0.930 . S
H311 C288 0.931 . S
H312 C290 0.931 . S
H313 C292 0.930 . S
H314 C294 0.930 . S
H315 C295 0.931 . S
H316 C297 0.931 . S
H317 C299 0.930 . S
H318 C301 0.930 . S
H319 C302 0.931 . S
N320 C282 1.343 . S
N320 C303 1.343 . S
N321 C289 1.343 . S
N321 C296 1.343 . S
C322 C323 1.384 . S
C322 C324 1.384 . S
C322 H350 0.931 . S
C323 C322 1.384 . S
C323 C326 1.382 . S
C324 C322 1.384 . S
C324 C325 1.381 . S
C324 H351 0.930 . S
C325 C324 1.381 . S
C325 C327 1.381 . S
C325 C328 1.487 . S
C326 C323 1.382 . S
C326 C327 1.387 . S
C326 H352 0.930 . S
C327 C325 1.381 . S
C327 C326 1.387 . S
C327 H353 0.931 . S
C328 C325 1.487 . S
C328 C335 1.399 . S
C328 N366 1.343 . S
C329 C330 1.384 . S
C329 C331 1.384 . S
C329 H354 0.931 . S
C330 C329 1.384 . S
C330 C333 1.382 . S
C331 C329 1.384 . S
C331 C332 1.381 . S
C331 H355 0.930 . S
C332 C331 1.381 . S
C332 C334 1.381 . S
C332 C335 1.487 . S
C333 C330 1.382 . S
C333 C334 1.387 . S
C333 H356 0.930 . S
C334 C332 1.381 . S
C334 C333 1.387 . S
C334 H357 0.931 . S
C335 C328 1.399 . S
C335 C332 1.487 . S
C335 N367 1.343 . S
C336 C337 1.384 . S
C336 C338 1.384 . S
C336 H358 0.911 1_455 S
C337 C336 1.384 . S
C337 C340 1.382 . S
C338 C336 1.384 . S
C338 C339 1.381 . S
C338 H359 0.930 . S
C339 C338 1.381 . S
C339 C341 1.381 . S
C339 C342 1.487 . S
C340 C337 1.382 . S
C340 C341 1.387 . S
C340 H360 0.930 . S
C341 C339 1.381 . S
C341 C340 1.387 . S
C341 H361 0.931 . S
C342 C339 1.487 . S
C342 C349 1.399 . S
C342 N367 1.343 . S
C343 C344 1.384 . S
C343 C345 1.384 . S
C343 H362 0.931 . S
C344 C343 1.384 . S
C344 C347 1.382 . S
C345 C343 1.384 . S
C345 C346 1.381 . S
C345 H363 0.930 . S
C346 C345 1.381 . S
C346 C348 1.381 . S
C346 C349 1.487 . S
C347 C344 1.382 . S
C347 C348 1.387 . S
C347 H364 0.930 . S
C348 C346 1.381 . S
C348 C347 1.387 . S
C348 H365 0.931 . S
C349 C342 1.399 . S
C349 C346 1.487 . S
C349 N366 1.343 . S
H350 C322 0.931 . S
H351 C324 0.930 . S
H352 C326 0.930 . S
H353 C327 0.931 . S
H354 C329 0.931 . S
H355 C331 0.930 . S
H356 C333 0.930 . S
H357 C334 0.931 . S
H358 C336 0.911 1_655 S
H359 C338 0.930 . S
H360 C340 0.930 . S
H361 C341 0.931 . S
H362 C343 0.931 . S
H363 C345 0.930 . S
H364 C347 0.930 . S
H365 C348 0.931 . S
N366 C328 1.343 . S
N366 C349 1.343 . S
N367 C335 1.343 . S
N367 C342 1.343 . S
O368 Cd369 2.223 . S
O368 C376 1.315 . S
Cd369 O368 2.223 . S
Cd369 O372 2.297 . S
Cd369 O373 2.439 . S
Cd369 O379 2.240 . S
Cd370 O371 2.240 . S
Cd370 O378 2.223 . S
Cd370 O380 2.297 . S
Cd370 O381 2.439 . S
O371 Cd370 2.240 . S
O371 C376 1.279 . S
O372 Cd369 2.297 . S
O372 C374 1.247 . S
O373 Cd369 2.439 . S
O373 C374 1.208 . S
C374 O372 1.247 . S
C374 O373 1.208 . S
C375 O380 1.247 . S
C375 O381 1.208 . S
C376 O368 1.315 . S
C376 O371 1.279 . S
C377 O378 1.315 . S
C377 O379 1.279 . S
O378 Cd370 2.223 . S
O378 C377 1.315 . S
O379 Cd369 2.240 . S
O379 C377 1.279 . S
O380 Cd370 2.297 . S
O380 C375 1.247 . S
O381 Cd370 2.439 . S
O381 C375 1.208 . S
O382 Cd383 2.223 . S
O382 C390 1.315 . S
Cd383 O382 2.223 . S
Cd383 O386 2.297 . S
Cd383 O387 2.439 . S
Cd383 O393 2.240 . S
Cd384 O385 2.240 . S
Cd384 O392 2.223 . S
Cd384 O394 2.297 . S
Cd384 O395 2.439 . S
O385 Cd384 2.240 . S
O385 C390 1.279 . S
O386 Cd383 2.297 . S
O386 C388 1.247 . S
O387 Cd383 2.439 . S
O387 C388 1.208 . S
C388 O386 1.247 . S
C388 O387 1.208 . S
C389 O394 1.247 . S
C389 O395 1.208 . S
C390 O382 1.315 . S
C390 O385 1.279 . S
C391 O392 1.315 . S
C391 O393 1.279 . S
O392 Cd384 2.223 . S
O392 C391 1.315 . S
O393 Cd383 2.240 . S
O393 C391 1.279 . S
O394 Cd384 2.297 . S
O394 C389 1.247 . S
O395 Cd384 2.439 . S
O395 C389 1.208 . S
O396 Cd397 2.223 . S
O396 C404 1.315 . S
Cd397 O396 2.223 . S
Cd397 O400 2.297 . S
Cd397 O401 2.439 . S
Cd397 O407 2.240 . S
Cd398 O399 2.240 . S
Cd398 O406 2.223 . S
Cd398 O408 2.297 . S
Cd398 O409 2.439 . S
O399 Cd398 2.240 . S
O399 C404 1.279 . S
O400 Cd397 2.297 . S
O400 C402 1.247 . S
O401 Cd397 2.439 . S
O401 C402 1.208 . S
C402 O400 1.247 . S
C402 O401 1.208 . S
C403 O408 1.247 . S
C403 O409 1.208 . S
C404 O396 1.315 . S
C404 O399 1.279 . S
C405 O406 1.315 . S
C405 O407 1.279 . S
O406 Cd398 2.223 . S
O406 C405 1.315 . S
O407 Cd397 2.240 . S
O407 C405 1.279 . S
O408 Cd398 2.297 . S
O408 C403 1.247 . S
O409 Cd398 2.439 . S
O409 C403 1.208 . S
O410 Cd411 2.223 . S
O410 C418 1.315 . S
Cd411 O410 2.223 . S
Cd411 O414 2.297 . S
Cd411 O415 2.439 . S
Cd411 O421 2.240 . S
Cd412 O413 2.240 . S
Cd412 O420 2.223 . S
Cd412 O422 2.297 . S
Cd412 O423 2.439 . S
O413 Cd412 2.240 . S
O413 C418 1.279 . S
O414 Cd411 2.297 . S
O414 C416 1.247 . S
O415 Cd411 2.439 . S
O415 C416 1.208 . S
C416 O414 1.247 . S
C416 O415 1.208 . S
C417 O422 1.247 . S
C417 O423 1.208 . S
C418 O410 1.315 . S
C418 O413 1.279 . S
C419 O420 1.315 . S
C419 O421 1.279 . S
O420 Cd412 2.223 . S
O420 C419 1.315 . S
O421 Cd411 2.240 . S
O421 C419 1.279 . S
O422 Cd412 2.297 . S
O422 C417 1.247 . S
O423 Cd412 2.439 . S
O423 C417 1.208 . S
O424 Cd425 2.223 . S
O424 C432 1.315 . S
Cd425 O424 2.223 . S
Cd425 O428 2.297 . S
Cd425 O429 2.439 . S
Cd425 O435 2.240 . S
Cd426 O427 2.240 . S
Cd426 O434 2.223 . S
Cd426 O436 2.297 . S
Cd426 O437 2.439 . S
O427 Cd426 2.240 . S
O427 C432 1.279 . S
O428 Cd425 2.297 . S
O428 C430 1.247 . S
O429 Cd425 2.439 . S
O429 C430 1.208 . S
C430 O428 1.247 . S
C430 O429 1.208 . S
C431 O436 1.247 . S
C431 O437 1.208 . S
C432 O424 1.315 . S
C432 O427 1.279 . S
C433 O434 1.315 . S
C433 O435 1.279 . S
O434 Cd426 2.223 . S
O434 C433 1.315 . S
O435 Cd425 2.240 . S
O435 C433 1.279 . S
O436 Cd426 2.297 . S
O436 C431 1.247 . S
O437 Cd426 2.439 . S
O437 C431 1.208 . S
O438 Cd439 2.223 . S
O438 C446 1.315 . S
Cd439 O438 2.223 . S
Cd439 O442 2.297 . S
Cd439 O443 2.439 . S
Cd439 O449 2.240 . S
Cd440 O441 2.240 . S
Cd440 O448 2.223 . S
Cd440 O450 2.297 . S
Cd440 O451 2.439 . S
O441 Cd440 2.240 . S
O441 C446 1.279 . S
O442 Cd439 2.297 . S
O442 C444 1.247 . S
O443 Cd439 2.439 . S
O443 C444 1.208 . S
C444 O442 1.247 . S
C444 O443 1.208 . S
C445 O450 1.247 . S
C445 O451 1.208 . S
C446 O438 1.315 . S
C446 O441 1.279 . S
C447 O448 1.315 . S
C447 O449 1.279 . S
O448 Cd440 2.223 . S
O448 C447 1.315 . S
O449 Cd439 2.240 . S
O449 C447 1.279 . S
O450 Cd440 2.297 . S
O450 C445 1.247 . S
O451 Cd440 2.439 . S
O451 C445 1.208 . S
O452 Cd453 2.223 . S
O452 C460 1.315 . S
Cd453 O452 2.223 . S
Cd453 O456 2.297 . S
Cd453 O457 2.439 . S
Cd453 O463 2.240 1_554 S
Cd454 O455 2.229 1_556 S
Cd454 O462 2.223 1_556 S
Cd454 O464 2.310 . S
Cd454 O465 2.448 . S
O455 Cd454 2.229 1_554 S
O455 C460 1.279 . S
O456 Cd453 2.297 . S
O456 C458 1.247 . S
O457 Cd453 2.439 . S
O457 C458 1.208 . S
C458 O456 1.247 . S
C458 O457 1.208 . S
C459 O464 1.247 . S
C459 O465 1.208 . S
C460 O452 1.315 . S
C460 O455 1.279 . S
C461 O462 1.309 1_556 S
C461 O463 1.287 . S
O462 Cd454 2.223 1_554 S
O462 C461 1.309 1_554 S
O463 Cd453 2.240 1_556 S
O463 C461 1.287 . S
O464 Cd454 2.310 . S
O464 C459 1.247 . S
O465 Cd454 2.448 . S
O465 C459 1.208 . S
O466 Cd467 2.223 . S
O466 C474 1.315 . S
Cd467 O466 2.223 . S
Cd467 O470 2.297 . S
Cd467 O471 2.439 . S
Cd467 O477 2.240 . S
Cd468 O469 2.240 . S
Cd468 O476 2.223 . S
Cd468 O478 2.297 . S
Cd468 O479 2.439 . S
O469 Cd468 2.240 . S
O469 C474 1.279 . S
O470 Cd467 2.297 . S
O470 C472 1.247 . S
O471 Cd467 2.439 . S
O471 C472 1.208 . S
C472 O470 1.247 . S
C472 O471 1.208 . S
C473 O478 1.247 . S
C473 O479 1.208 . S
C474 O466 1.315 . S
C474 O469 1.279 . S
C475 O476 1.315 . S
C475 O477 1.279 . S
O476 Cd468 2.223 . S
O476 C475 1.315 . S
O477 Cd467 2.240 . S
O477 C475 1.279 . S
O478 Cd468 2.297 . S
O478 C473 1.247 . S
O479 Cd468 2.439 . S
O479 C473 1.208 . S
H480 C486 0.930 . S
H481 C490 0.930 . S
H482 C495 0.929 . S
H483 C493 0.929 . S
H484 C488 0.929 . S
H485 C494 0.929 . S
C486 H480 0.930 . S
C486 C487 1.367 . S
C486 C494 1.378 . S
C487 C486 1.367 . S
C487 C495 1.433 . S
C488 H484 0.929 . S
C488 C490 1.378 . S
C488 C492 1.350 . S
C489 C492 1.463 . S
C489 C494 1.350 . S
C489 N497 1.427 . S
C490 H481 0.930 . S
C490 C488 1.378 . S
C490 C491 1.367 . S
C491 C490 1.367 . S
C491 C493 1.433 . S
C492 C488 1.350 . S
C492 C489 1.463 . S
C492 N496 1.427 . S
C493 H483 0.929 . S
C493 C491 1.433 . S
C493 N496 1.384 . S
C494 H485 0.929 . S
C494 C486 1.378 . S
C494 C489 1.350 . S
C495 H482 0.929 . S
C495 C487 1.433 . S
C495 N497 1.384 . S
N496 C492 1.427 . S
N496 C493 1.384 . S
N497 C489 1.427 . S
N497 C495 1.384 . S
H498 C504 0.930 . S
H499 C508 0.930 . S
H500 C513 0.929 . S
H501 C511 0.929 . S
H502 C506 0.929 . S
H503 C512 0.929 . S
C504 H498 0.930 . S
C504 C505 1.367 . S
C504 C512 1.378 . S
C505 C504 1.367 . S
C505 C513 1.433 . S
C506 H502 0.929 . S
C506 C508 1.378 . S
C506 C510 1.350 . S
C507 C510 1.463 . S
C507 C512 1.350 . S
C507 N515 1.427 . S
C508 H499 0.930 . S
C508 C506 1.378 . S
C508 C509 1.367 . S
C509 C508 1.367 . S
C509 C511 1.433 . S
C510 C506 1.350 . S
C510 C507 1.463 . S
C510 N514 1.427 . S
C511 H501 0.929 . S
C511 C509 1.433 . S
C511 N514 1.384 . S
C512 H503 0.929 . S
C512 C504 1.378 . S
C512 C507 1.350 . S
C513 H500 0.929 . S
C513 C505 1.433 . S
C513 N515 1.384 . S
N514 C510 1.427 . S
N514 C511 1.384 . S
N515 C507 1.427 . S
N515 C513 1.384 . S
H516 C522 0.930 . S
H517 C526 0.930 . S
H518 C531 0.929 . S
H519 C529 0.929 . S
H520 C524 0.929 . S
H521 C530 0.929 . S
C522 H516 0.930 . S
C522 C523 1.367 . S
C522 C530 1.378 . S
C523 C522 1.367 . S
C523 C531 1.433 . S
C524 H520 0.929 . S
C524 C526 1.378 . S
C524 C528 1.350 . S
C525 C528 1.463 . S
C525 C530 1.350 . S
C525 N533 1.427 . S
C526 H517 0.930 . S
C526 C524 1.378 . S
C526 C527 1.367 . S
C527 C526 1.367 . S
C527 C529 1.433 . S
C528 C524 1.350 . S
C528 C525 1.463 . S
C528 N532 1.427 . S
C529 H519 0.929 . S
C529 C527 1.433 . S
C529 N532 1.384 . S
C530 H521 0.929 . S
C530 C522 1.378 . S
C530 C525 1.350 . S
C531 H518 0.929 . S
C531 C523 1.433 . S
C531 N533 1.384 . S
N532 C528 1.427 . S
N532 C529 1.384 . S
N533 C525 1.427 . S
N533 C531 1.384 . S
H534 C540 0.930 . S
H535 C544 0.930 . S
H536 C549 0.929 . S
H537 C547 0.929 . S
H538 C542 0.929 . S
H539 C548 0.929 . S
C540 H534 0.930 . S
C540 C541 1.367 . S
C540 C548 1.378 . S
C541 C540 1.367 . S
C541 C549 1.433 . S
C542 H538 0.929 . S
C542 C544 1.378 . S
C542 C546 1.350 . S
C543 C546 1.463 . S
C543 C548 1.350 . S
C543 N551 1.427 . S
C544 H535 0.930 . S
C544 C542 1.378 . S
C544 C545 1.367 . S
C545 C544 1.367 . S
C545 C547 1.433 . S
C546 C542 1.350 . S
C546 C543 1.463 . S
C546 N550 1.427 . S
C547 H537 0.929 . S
C547 C545 1.433 . S
C547 N550 1.384 . S
C548 H539 0.929 . S
C548 C540 1.378 . S
C548 C543 1.350 . S
C549 H536 0.929 . S
C549 C541 1.433 . S
C549 N551 1.384 . S
N550 C546 1.427 . S
N550 C547 1.384 . S
N551 C543 1.427 . S
N551 C549 1.384 . S
H552 C558 0.930 . S
H553 C562 0.930 . S
H554 C567 0.929 . S
H555 C565 0.929 . S
H556 C560 0.929 . S
H557 C566 0.929 . S
C558 H552 0.930 . S
C558 C559 1.367 . S
C558 C566 1.378 . S
C559 C558 1.367 . S
C559 C567 1.433 1_554 S
C560 H556 0.929 . S
C560 C562 1.378 . S
C560 C564 1.350 . S
C561 C564 1.463 . S
C561 C566 1.350 . S
C561 N569 1.427 . S
C562 H553 0.930 . S
C562 C560 1.378 . S
C562 C563 1.367 . S
C563 C562 1.367 . S
C563 C565 1.433 . S
C564 C560 1.350 . S
C564 C561 1.463 . S
C564 N568 1.427 . S
C565 H555 0.929 . S
C565 C563 1.433 . S
C565 N568 1.384 . S
C566 H557 0.929 . S
C566 C558 1.378 . S
C566 C561 1.350 . S
C567 H554 0.929 . S
C567 C559 1.433 1_556 S
C567 N569 1.384 1_556 S
N568 C564 1.427 . S
N568 C565 1.384 . S
N569 C561 1.427 . S
N569 C567 1.384 1_554 S
H570 C576 0.930 . S
H571 C580 0.930 . S
H572 C585 0.929 . S
H573 C583 0.929 . S
H574 C578 0.929 . S
H575 C584 0.929 . S
C576 H570 0.930 . S
C576 C577 1.367 . S
C576 C584 1.378 . S
C577 C576 1.367 . S
C577 C585 1.433 . S
C578 H574 0.929 . S
C578 C580 1.378 . S
C578 C582 1.350 . S
C579 C582 1.463 . S
C579 C584 1.350 . S
C579 N587 1.427 . S
C580 H571 0.930 . S
C580 C578 1.378 . S
C580 C581 1.367 . S
C581 C580 1.367 . S
C581 C583 1.433 . S
C582 C578 1.350 . S
C582 C579 1.463 . S
C582 N586 1.427 . S
C583 H573 0.929 . S
C583 C581 1.433 . S
C583 N586 1.384 . S
C584 H575 0.929 . S
C584 C576 1.378 . S
C584 C579 1.350 . S
C585 H572 0.929 . S
C585 C577 1.433 . S
C585 N587 1.384 . S
N586 C582 1.427 . S
N586 C583 1.384 . S
N587 C579 1.427 . S
N587 C585 1.384 . S
H588 C594 0.930 . S
H589 C598 0.930 . S
H590 C603 0.929 . S
H591 C601 0.929 . S
H592 C596 0.929 . S
H593 C602 0.929 . S
C594 H588 0.930 . S
C594 C595 1.367 . S
C594 C602 1.378 . S
C595 C594 1.367 . S
C595 C603 1.433 . S
C596 H592 0.929 . S
C596 C598 1.378 . S
C596 C600 1.350 . S
C597 C600 1.463 . S
C597 C602 1.350 . S
C597 N605 1.427 . S
C598 H589 0.930 . S
C598 C596 1.378 . S
C598 C599 1.367 . S
C599 C598 1.367 . S
C599 C601 1.433 . S
C600 C596 1.350 . S
C600 C597 1.463 . S
C600 N604 1.427 . S
C601 H591 0.929 . S
C601 C599 1.433 . S
C601 N604 1.384 . S
C602 H593 0.929 . S
C602 C594 1.378 . S
C602 C597 1.350 . S
C603 H590 0.929 . S
C603 C595 1.433 . S
C603 N605 1.384 . S
N604 C600 1.427 . S
N604 C601 1.384 . S
N605 C597 1.427 . S
N605 C603 1.384 . S
H606 C612 0.930 . S
H607 C616 0.930 . S
H608 C621 0.929 . S
H609 C619 0.929 . S
H610 C614 0.929 . S
H611 C620 0.929 . S
C612 H606 0.930 . S
C612 C613 1.367 . S
C612 C620 1.378 . S
C613 C612 1.367 . S
C613 C621 1.433 . S
C614 H610 0.929 . S
C614 C616 1.378 . S
C614 C618 1.350 . S
C615 C618 1.463 1_545 S
C615 C620 1.350 . S
C615 N623 1.427 . S
C616 H607 0.930 . S
C616 C614 1.378 . S
C616 C617 1.367 . S
C617 C616 1.367 . S
C617 C619 1.433 . S
C618 C614 1.350 . S
C618 C615 1.463 1_565 S
C618 N622 1.427 . S
C619 H609 0.929 . S
C619 C617 1.433 . S
C619 N622 1.384 . S
C620 H611 0.929 . S
C620 C612 1.378 . S
C620 C615 1.350 . S
C621 H608 0.929 . S
C621 C613 1.433 . S
C621 N623 1.384 . S
N622 C618 1.427 . S
N622 C619 1.384 . S
N623 C615 1.427 . S
N623 C621 1.384 . S
H624 C630 0.930 . S
H625 C634 0.930 . S
H626 C639 0.929 . S
H627 C637 0.929 . S
H628 C632 0.929 . S
H629 C638 0.929 . S
C630 H624 0.930 . S
C630 C631 1.367 . S
C630 C638 1.378 . S
C631 C630 1.367 . S
C631 C639 1.433 . S
C632 H628 0.929 . S
C632 C634 1.378 . S
C632 C636 1.350 . S
C633 C636 1.463 . S
C633 C638 1.350 . S
C633 N641 1.427 . S
C634 H625 0.930 . S
C634 C632 1.378 . S
C634 C635 1.367 . S
C635 C634 1.367 . S
C635 C637 1.433 . S
C636 C632 1.350 . S
C636 C633 1.463 . S
C636 N640 1.427 . S
C637 H627 0.929 . S
C637 C635 1.433 . S
C637 N640 1.384 . S
C638 H629 0.929 . S
C638 C630 1.378 . S
C638 C633 1.350 . S
C639 H626 0.929 . S
C639 C631 1.433 . S
C639 N641 1.384 . S
N640 C636 1.427 . S
N640 C637 1.384 . S
N641 C633 1.427 . S
N641 C639 1.384 . S
H642 C648 0.930 . S
H643 C652 0.930 1_556 S
H644 C657 0.929 . S
H645 C655 0.929 . S
H646 C650 0.929 . S
H647 C656 0.929 . S
C648 H642 0.930 . S
C648 C649 1.367 . S
C648 C656 1.378 . S
C649 C648 1.367 . S
C649 C657 1.433 . S
C650 H646 0.929 . S
C650 C652 1.378 . S
C650 C654 1.350 . S
C651 C654 1.463 . S
C651 C656 1.350 . S
C651 N659 1.427 . S
C652 H643 0.930 1_554 S
C652 C650 1.378 . S
C652 C653 1.367 . S
C653 C652 1.367 . S
C653 C655 1.433 . S
C654 C650 1.350 . S
C654 C651 1.463 . S
C654 N658 1.427 . S
C655 H645 0.929 . S
C655 C653 1.433 . S
C655 N658 1.384 . S
C656 H647 0.929 . S
C656 C648 1.378 . S
C656 C651 1.350 . S
C657 H644 0.929 . S
C657 C649 1.433 . S
C657 N659 1.384 . S
N658 C654 1.427 . S
N658 C655 1.384 . S
N659 C651 1.427 . S
N659 C657 1.384 . S
H660 C666 0.930 . S
H661 C670 0.930 . S
H662 C675 0.929 . S
H663 C673 0.929 . S
H664 C668 0.929 . S
H665 C674 0.929 . S
C666 H660 0.930 . S
C666 C667 1.367 . S
C666 C674 1.378 1_455 S
C667 C666 1.367 . S
C667 C675 1.433 . S
C668 H664 0.929 . S
C668 C670 1.378 . S
C668 C672 1.350 . S
C669 C672 1.463 . S
C669 C674 1.350 . S
C669 N677 1.427 . S
C670 H661 0.930 . S
C670 C668 1.378 . S
C670 C671 1.367 . S
C671 C670 1.367 . S
C671 C673 1.433 . S
C672 C668 1.350 . S
C672 C669 1.463 . S
C672 N676 1.427 . S
C673 H663 0.929 . S
C673 C671 1.433 . S
C673 N676 1.384 . S
C674 H665 0.929 . S
C674 C666 1.378 1_655 S
C674 C669 1.350 . S
C675 H662 0.929 . S
C675 C667 1.433 . S
C675 N677 1.384 1_455 S
N676 C672 1.427 . S
N676 C673 1.384 . S
N677 C669 1.427 . S
N677 C675 1.384 1_655 S
H678 C684 0.930 . S
H679 C688 0.930 . S
H680 C693 0.929 . S
H681 C691 0.929 . S
H682 C686 0.929 . S
H683 C692 0.929 1_455 S
C684 H678 0.930 . S
C684 C685 1.367 1_455 S
C684 C692 1.378 1_455 S
C685 C684 1.367 1_655 S
C685 C693 1.433 . S
C686 H682 0.929 . S
C686 C688 1.378 . S
C686 C690 1.350 . S
C687 C690 1.463 . S
C687 C692 1.350 . S
C687 N695 1.427 . S
C688 H679 0.930 . S
C688 C686 1.378 . S
C688 C689 1.367 . S
C689 C688 1.367 . S
C689 C691 1.433 . S
C690 C686 1.350 . S
C690 C687 1.463 . S
C690 N694 1.427 . S
C691 H681 0.929 . S
C691 C689 1.433 . S
C691 N694 1.384 . S
C692 H683 0.929 1_655 S
C692 C684 1.378 1_655 S
C692 C687 1.350 . S
C693 H680 0.929 . S
C693 C685 1.433 . S
C693 N695 1.384 . S
N694 C690 1.427 . S
N694 C691 1.384 . S
N695 C687 1.427 . S
N695 C693 1.384 . S
H696 C702 0.930 . S
H697 C706 0.930 . S
H698 C711 0.929 . S
H699 C709 0.929 . S
H700 C704 0.929 . S
H701 C710 0.929 . S
C702 H696 0.930 . S
C702 C703 1.367 . S
C702 C710 1.378 . S
C703 C702 1.367 . S
C703 C711 1.433 . S
C704 H700 0.929 . S
C704 C706 1.378 . S
C704 C708 1.350 . S
C705 C708 1.463 . S
C705 C710 1.350 . S
C705 N713 1.427 . S
C706 H697 0.930 . S
C706 C704 1.378 . S
C706 C707 1.367 . S
C707 C706 1.367 . S
C707 C709 1.433 . S
C708 C704 1.350 . S
C708 C705 1.463 . S
C708 N712 1.427 . S
C709 H699 0.929 . S
C709 C707 1.433 . S
C709 N712 1.384 . S
C710 H701 0.929 . S
C710 C702 1.378 . S
C710 C705 1.350 . S
C711 H698 0.929 . S
C711 C703 1.433 . S
C711 N713 1.384 . S
N712 C708 1.427 . S
N712 C709 1.384 . S
N713 C705 1.427 . S
N713 C711 1.384 . S
H714 C720 0.930 . S
H715 C724 0.930 . S
H716 C729 0.929 . S
H717 C727 0.929 . S
H718 C722 0.929 . S
H719 C728 0.929 . S
C720 H714 0.930 . S
C720 C721 1.367 1_655 S
C720 C728 1.378 . S
C721 C720 1.367 1_455 S
C721 C729 1.433 . S
C722 H718 0.929 . S
C722 C724 1.378 . S
C722 C726 1.350 . S
C723 C726 1.463 . S
C723 C728 1.350 . S
C723 N731 1.427 . S
C724 H715 0.930 . S
C724 C722 1.378 . S
C724 C725 1.367 . S
C725 C724 1.367 . S
C725 C727 1.433 . S
C726 C722 1.350 . S
C726 C723 1.463 . S
C726 N730 1.427 . S
C727 H717 0.929 . S
C727 C725 1.433 . S
C727 N730 1.384 . S
C728 H719 0.929 . S
C728 C720 1.378 . S
C728 C723 1.350 . S
C729 H716 0.929 . S
C729 C721 1.433 . S
C729 N731 1.384 1_455 S
N730 C726 1.427 . S
N730 C727 1.384 . S
N731 C723 1.427 . S
N731 C729 1.384 1_655 S
H732 C738 0.930 . S
H733 C742 0.930 . S
H734 C747 0.929 . S
H735 C745 0.929 . S
H736 C740 0.929 . S
H737 C746 0.929 . S
C738 H732 0.930 . S
C738 C739 1.367 1_554 S
C738 C746 1.378 . S
C739 C738 1.367 1_556 S
C739 C747 1.433 . S
C740 H736 0.929 . S
C740 C742 1.378 . S
C740 C744 1.350 . S
C741 C744 1.463 . S
C741 C746 1.350 1_556 S
C741 N749 1.427 . S
C742 H733 0.930 . S
C742 C740 1.378 . S
C742 C743 1.367 . S
C743 C742 1.367 . S
C743 C745 1.433 1_556 S
C744 C740 1.350 . S
C744 C741 1.463 . S
C744 N748 1.427 1_556 S
C745 H735 0.929 . S
C745 C743 1.433 1_554 S
C745 N748 1.384 . S
C746 H737 0.929 . S
C746 C738 1.378 . S
C746 C741 1.350 1_554 S
C747 H734 0.929 . S
C747 C739 1.433 . S
C747 N749 1.384 . S
N748 C744 1.427 1_554 S
N748 C745 1.384 . S
N749 C741 1.427 . S
N749 C747 1.384 . S
H750 C756 0.930 . S
H751 C760 0.930 . S
H752 C765 0.929 . S
H753 C763 0.929 . S
H754 C758 0.929 . S
H755 C764 0.929 . S
C756 H750 0.930 . S
C756 C757 1.367 . S
C756 C764 1.378 . S
C757 C756 1.367 . S
C757 C765 1.433 . S
C758 H754 0.929 . S
C758 C760 1.378 . S
C758 C762 1.350 . S
C759 C762 1.463 . S
C759 C764 1.350 . S
C759 N767 1.427 . S
C760 H751 0.930 . S
C760 C758 1.378 . S
C760 C761 1.367 . S
C761 C760 1.367 . S
C761 C763 1.433 . S
C762 C758 1.350 . S
C762 C759 1.463 . S
C762 N766 1.427 . S
C763 H753 0.929 . S
C763 C761 1.433 . S
C763 N766 1.384 . S
C764 H755 0.929 . S
C764 C756 1.378 . S
C764 C759 1.350 . S
C765 H752 0.929 . S
C765 C757 1.433 . S
C765 N767 1.384 . S
N766 C762 1.427 . S
N766 C763 1.384 . S
N767 C759 1.427 . S
N767 C765 1.384 . S
H768 C774 0.930 . S
H769 C778 0.930 . S
H770 C783 0.929 . S
H771 C781 0.929 . S
H772 C776 0.929 . S
H773 C782 0.929 . S
C774 H768 0.930 . S
C774 C775 1.367 . S
C774 C782 1.378 . S
C775 C774 1.367 . S
C775 C783 1.433 1_565 S
C776 H772 0.929 . S
C776 C778 1.378 . S
C776 C780 1.350 . S
C777 C780 1.463 . S
C777 C782 1.350 . S
C777 N785 1.427 . S
C778 H769 0.930 . S
C778 C776 1.378 . S
C778 C779 1.367 . S
C779 C778 1.367 . S
C779 C781 1.433 . S
C780 C776 1.350 . S
C780 C777 1.463 . S
C780 N784 1.427 . S
C781 H771 0.929 . S
C781 C779 1.433 . S
C781 N784 1.384 . S
C782 H773 0.929 . S
C782 C774 1.378 . S
C782 C777 1.350 . S
C783 H770 0.929 . S
C783 C775 1.433 1_545 S
C783 N785 1.384 1_545 S
N784 C780 1.427 . S
N784 C781 1.384 . S
N785 C777 1.427 . S
N785 C783 1.384 1_565 S
H786 C792 0.930 . S
H787 C796 0.930 . S
H788 C801 0.929 . S
H789 C799 0.929 . S
H790 C794 0.929 . S
H791 C800 0.929 . S
C792 H786 0.930 . S
C792 C793 1.367 . S
C792 C800 1.378 . S
C793 C792 1.367 . S
C793 C801 1.433 . S
C794 H790 0.929 . S
C794 C796 1.378 . S
C794 C798 1.350 . S
C795 C798 1.463 . S
C795 C800 1.350 . S
C795 N803 1.427 . S
C796 H787 0.930 . S
C796 C794 1.378 . S
C796 C797 1.367 . S
C797 C796 1.367 . S
C797 C799 1.433 . S
C798 C794 1.350 . S
C798 C795 1.463 . S
C798 N802 1.427 . S
C799 H789 0.929 . S
C799 C797 1.433 . S
C799 N802 1.384 . S
C800 H791 0.929 . S
C800 C792 1.378 . S
C800 C795 1.350 . S
C801 H788 0.929 . S
C801 C793 1.433 . S
C801 N803 1.384 . S
N802 C798 1.427 . S
N802 C799 1.384 . S
N803 C795 1.427 . S
N803 C801 1.384 . S
H804 C810 0.930 . S
H805 C814 0.930 1_554 S
H806 C819 0.929 . S
H807 C817 0.929 . S
H808 C812 0.929 . S
H809 C818 0.929 . S
C810 H804 0.930 . S
C810 C811 1.367 . S
C810 C818 1.378 . S
C811 C810 1.367 . S
C811 C819 1.433 . S
C812 H808 0.929 . S
C812 C814 1.378 . S
C812 C816 1.350 . S
C813 C816 1.463 . S
C813 C818 1.350 . S
C813 N821 1.427 . S
C814 H805 0.930 1_556 S
C814 C812 1.378 . S
C814 C815 1.367 . S
C815 C814 1.367 . S
C815 C817 1.433 . S
C816 C812 1.350 . S
C816 C813 1.463 . S
C816 N820 1.427 . S
C817 H807 0.929 . S
C817 C815 1.433 . S
C817 N820 1.384 . S
C818 H809 0.929 . S
C818 C810 1.378 . S
C818 C813 1.350 . S
C819 H806 0.929 . S
C819 C811 1.433 . S
C819 N821 1.384 . S
N820 C816 1.427 . S
N820 C817 1.384 . S
N821 C813 1.427 . S
N821 C819 1.384 . S
H822 C828 0.930 . S
H823 C832 0.930 . S
H824 C837 0.929 . S
H825 C835 0.929 . S
H826 C830 0.929 . S
H827 C836 0.929 . S
C828 H822 0.930 . S
C828 C829 1.367 . S
C828 C836 1.378 . S
C829 C828 1.367 . S
C829 C837 1.433 . S
C830 H826 0.929 . S
C830 C832 1.378 . S
C830 C834 1.350 . S
C831 C834 1.463 . S
C831 C836 1.350 . S
C831 N839 1.427 . S
C832 H823 0.930 . S
C832 C830 1.378 . S
C832 C833 1.367 . S
C833 C832 1.367 . S
C833 C835 1.433 . S
C834 C830 1.350 . S
C834 C831 1.463 . S
C834 N838 1.427 . S
C835 H825 0.929 . S
C835 C833 1.433 . S
C835 N838 1.384 . S
C836 H827 0.929 . S
C836 C828 1.378 . S
C836 C831 1.350 . S
C837 H824 0.929 . S
C837 C829 1.433 . S
C837 N839 1.384 . S
N838 C834 1.427 . S
N838 C835 1.384 . S
N839 C831 1.427 . S
N839 C837 1.384 . S
H840 C846 0.930 . S
H841 C850 0.930 . S
H842 C855 0.929 . S
H843 C853 0.929 . S
H844 C848 0.929 . S
H845 C854 0.929 . S
C846 H840 0.930 . S
C846 C847 1.367 . S
C846 C854 1.378 . S
C847 C846 1.367 . S
C847 C855 1.433 . S
C848 H844 0.929 . S
C848 C850 1.378 . S
C848 C852 1.350 . S
C849 C852 1.463 . S
C849 C854 1.350 . S
C849 N857 1.427 . S
C850 H841 0.930 . S
C850 C848 1.378 . S
C850 C851 1.367 . S
C851 C850 1.367 . S
C851 C853 1.433 . S
C852 C848 1.350 . S
C852 C849 1.463 . S
C852 N856 1.427 . S
C853 H843 0.929 . S
C853 C851 1.433 . S
C853 N856 1.384 . S
C854 H845 0.929 . S
C854 C846 1.378 . S
C854 C849 1.350 . S
C855 H842 0.929 . S
C855 C847 1.433 . S
C855 N857 1.384 . S
N856 C852 1.427 . S
N856 C853 1.384 . S
N857 C849 1.427 . S
N857 C855 1.384 . S
H858 C864 0.930 . S
H859 C868 0.930 . S
H860 C873 0.929 . S
H861 C871 0.929 . S
H862 C866 0.929 . S
H863 C872 0.929 . S
C864 H858 0.930 . S
C864 C865 1.367 . S
C864 C872 1.378 . S
C865 C864 1.367 . S
C865 C873 1.433 . S
C866 H862 0.929 . S
C866 C868 1.378 . S
C866 C870 1.350 . S
C867 C870 1.463 . S
C867 C872 1.350 . S
C867 N875 1.427 . S
C868 H859 0.930 . S
C868 C866 1.378 . S
C868 C869 1.367 . S
C869 C868 1.367 . S
C869 C871 1.433 . S
C870 C866 1.350 . S
C870 C867 1.463 . S
C870 N874 1.427 . S
C871 H861 0.929 . S
C871 C869 1.433 . S
C871 N874 1.384 . S
C872 H863 0.929 . S
C872 C864 1.378 . S
C872 C867 1.350 . S
C873 H860 0.929 . S
C873 C865 1.433 . S
C873 N875 1.384 . S
N874 C870 1.427 . S
N874 C871 1.384 . S
N875 C867 1.427 . S
N875 C873 1.384 . S
H876 C882 0.930 . S
H877 C886 0.930 . S
H878 C891 0.929 . S
H879 C889 0.929 . S
H880 C884 0.929 . S
H881 C890 0.929 . S
C882 H876 0.930 . S
C882 C883 1.367 . S
C882 C890 1.378 . S
C883 C882 1.367 . S
C883 C891 1.433 . S
C884 H880 0.929 . S
C884 C886 1.378 . S
C884 C888 1.350 . S
C885 C888 1.463 . S
C885 C890 1.350 . S
C885 N893 1.427 . S
C886 H877 0.930 . S
C886 C884 1.378 . S
C886 C887 1.367 . S
C887 C886 1.367 . S
C887 C889 1.433 . S
C888 C884 1.350 . S
C888 C885 1.463 . S
C888 N892 1.427 . S
C889 H879 0.929 . S
C889 C887 1.433 . S
C889 N892 1.384 . S
C890 H881 0.929 . S
C890 C882 1.378 . S
C890 C885 1.350 . S
C891 H878 0.929 . S
C891 C883 1.433 . S
C891 N893 1.384 . S
N892 C888 1.427 . S
N892 C889 1.384 . S
N893 C885 1.427 . S
N893 C891 1.384 . S
H894 C900 0.930 . S
H895 C904 0.930 . S
H896 C909 0.929 . S
H897 C907 0.929 . S
H898 C902 0.929 . S
H899 C908 0.929 . S
C900 H894 0.930 . S
C900 C901 1.367 . S
C900 C908 1.378 . S
C901 C900 1.367 . S
C901 C909 1.433 . S
C902 H898 0.929 . S
C902 C904 1.378 1_545 S
C902 C906 1.350 . S
C903 C906 1.463 . S
C903 C908 1.350 . S
C903 N911 1.427 . S
C904 H895 0.930 . S
C904 C902 1.378 1_565 S
C904 C905 1.367 . S
C905 C904 1.367 . S
C905 C907 1.433 . S
C906 C902 1.350 . S
C906 C903 1.463 . S
C906 N910 1.427 . S
C907 H897 0.929 . S
C907 C905 1.433 . S
C907 N910 1.384 1_565 S
C908 H899 0.929 . S
C908 C900 1.378 . S
C908 C903 1.350 . S
C909 H896 0.929 . S
C909 C901 1.433 . S
C909 N911 1.384 . S
N910 C906 1.427 . S
N910 C907 1.384 1_545 S
N911 C903 1.427 . S
N911 C909 1.384 . S
H912 C918 0.930 . S
H913 C922 0.930 . S
H914 C927 0.929 . S
H915 C925 0.929 . S
H916 C920 0.929 . S
H917 C926 0.929 . S
C918 H912 0.930 . S
C918 C919 1.367 . S
C918 C926 1.378 . S
C919 C918 1.367 . S
C919 C927 1.433 . S
C920 H916 0.929 . S
C920 C922 1.378 . S
C920 C924 1.350 . S
C921 C924 1.463 . S
C921 C926 1.350 . S
C921 N929 1.427 . S
C922 H913 0.930 . S
C922 C920 1.378 . S
C922 C923 1.367 . S
C923 C922 1.367 . S
C923 C925 1.433 . S
C924 C920 1.350 . S
C924 C921 1.463 . S
C924 N928 1.427 . S
C925 H915 0.929 . S
C925 C923 1.433 . S
C925 N928 1.384 . S
C926 H917 0.929 . S
C926 C918 1.378 . S
C926 C921 1.350 . S
C927 H914 0.929 . S
C927 C919 1.433 . S
C927 N929 1.384 . S
N928 C924 1.427 . S
N928 C925 1.384 . S
N929 C921 1.427 . S
N929 C927 1.384 . S
H930 C936 0.930 . S
H931 C940 0.930 . S
H932 C945 0.929 . S
H933 C943 0.929 . S
H934 C938 0.929 . S
H935 C944 0.929 . S
C936 H930 0.930 . S
C936 C937 1.367 . S
C936 C944 1.378 . S
C937 C936 1.367 . S
C937 C945 1.433 . S
C938 H934 0.929 . S
C938 C940 1.378 . S
C938 C942 1.350 . S
C939 C942 1.463 . S
C939 C944 1.350 . S
C939 N947 1.427 . S
C940 H931 0.930 . S
C940 C938 1.378 . S
C940 C941 1.367 . S
C941 C940 1.367 . S
C941 C943 1.433 . S
C942 C938 1.350 . S
C942 C939 1.463 . S
C942 N946 1.427 . S
C943 H933 0.929 . S
C943 C941 1.433 . S
C943 N946 1.384 . S
C944 H935 0.929 . S
C944 C936 1.378 . S
C944 C939 1.350 . S
C945 H932 0.929 . S
C945 C937 1.433 . S
C945 N947 1.384 . S
N946 C942 1.427 . S
N946 C943 1.384 . S
N947 C939 1.427 . S
N947 C945 1.384 . S
H948 C954 0.930 . S
H949 C958 0.930 . S
H950 C963 0.929 . S
H951 C961 0.929 . S
H952 C956 0.929 . S
H953 C962 0.929 . S
C954 H948 0.930 . S
C954 C955 1.367 . S
C954 C962 1.378 1_455 S
C955 C954 1.367 . S
C955 C963 1.433 . S
C956 H952 0.929 . S
C956 C958 1.378 . S
C956 C960 1.350 . S
C957 C960 1.463 . S
C957 C962 1.350 . S
C957 N965 1.427 1_655 S
C958 H949 0.930 . S
C958 C956 1.378 . S
C958 C959 1.367 . S
C959 C958 1.367 . S
C959 C961 1.433 . S
C960 C956 1.350 . S
C960 C957 1.463 . S
C960 N964 1.427 . S
C961 H951 0.929 . S
C961 C959 1.433 . S
C961 N964 1.384 . S
C962 H953 0.929 . S
C962 C954 1.378 1_655 S
C962 C957 1.350 . S
C963 H950 0.929 . S
C963 C955 1.433 . S
C963 N965 1.384 . S
N964 C960 1.427 . S
N964 C961 1.384 . S
N965 C957 1.427 1_455 S
N965 C963 1.384 . S
H966 C972 0.930 . S
H967 C976 0.930 . S
H968 C981 0.929 . S
H969 C979 0.929 . S
H970 C974 0.929 . S
H971 C980 0.929 . S
C972 H966 0.930 . S
C972 C973 1.367 . S
C972 C980 1.378 . S
C973 C972 1.367 . S
C973 C981 1.433 . S
C974 H970 0.929 . S
C974 C976 1.378 . S
C974 C978 1.350 . S
C975 C978 1.463 . S
C975 C980 1.350 . S
C975 N983 1.427 . S
C976 H967 0.930 . S
C976 C974 1.378 . S
C976 C977 1.367 . S
C977 C976 1.367 . S
C977 C979 1.433 . S
C978 C974 1.350 . S
C978 C975 1.463 . S
C978 N982 1.427 . S
C979 H969 0.929 . S
C979 C977 1.433 . S
C979 N982 1.384 . S
C980 H971 0.929 . S
C980 C972 1.378 . S
C980 C975 1.350 . S
C981 H968 0.929 . S
C981 C973 1.433 . S
C981 N983 1.384 . S
N982 C978 1.427 . S
N982 C979 1.384 . S
N983 C975 1.427 . S
N983 C981 1.384 . S
H984 C990 0.930 . S
H985 C994 0.930 . S
H986 C999 0.929 . S
H987 C997 0.929 . S
H988 C992 0.929 . S
H989 C998 0.929 . S
C990 H984 0.930 . S
C990 C991 1.367 . S
C990 C998 1.378 . S
C991 C990 1.367 . S
C991 C999 1.433 . S
C992 H988 0.929 . S
C992 C994 1.378 . S
C992 C996 1.350 . S
C993 C996 1.463 . S
C993 C998 1.350 . S
C993 N1001 1.427 . S
C994 H985 0.930 . S
C994 C992 1.378 . S
C994 C995 1.367 . S
C995 C994 1.367 . S
C995 C997 1.433 . S
C996 C992 1.350 . S
C996 C993 1.463 . S
C996 N1000 1.427 . S
C997 H987 0.929 . S
C997 C995 1.433 . S
C997 N1000 1.384 . S
C998 H989 0.929 . S
C998 C990 1.378 . S
C998 C993 1.350 . S
C999 H986 0.929 . S
C999 C991 1.433 . S
C999 N1001 1.384 . S
N1000 C996 1.427 . S
N1000 C997 1.384 . S
N1001 C993 1.427 . S
N1001 C999 1.384 . S
H1002 C1008 0.930 . S
H1003 C1012 0.930 . S
H1004 C1017 0.929 . S
H1005 C1015 0.929 . S
H1006 C1010 0.929 . S
H1007 C1016 0.929 . S
C1008 H1002 0.930 . S
C1008 C1009 1.367 . S
C1008 C1016 1.378 . S
C1009 C1008 1.367 . S
C1009 C1017 1.433 . S
C1010 H1006 0.929 . S
C1010 C1012 1.378 . S
C1010 C1014 1.350 . S
C1011 C1014 1.456 1_455 S
C1011 C1016 1.358 . S
C1011 N1019 1.426 1_455 S
C1012 H1003 0.930 . S
C1012 C1010 1.378 . S
C1012 C1013 1.367 . S
C1013 C1012 1.367 . S
C1013 C1015 1.433 . S
C1014 C1010 1.350 . S
C1014 C1011 1.456 1_655 S
C1014 N1018 1.427 . S
C1015 H1005 0.929 . S
C1015 C1013 1.433 . S
C1015 N1018 1.384 . S
C1016 H1007 0.929 . S
C1016 C1008 1.378 . S
C1016 C1011 1.358 . S
C1017 H1004 0.929 . S
C1017 C1009 1.433 . S
C1017 N1019 1.384 1_455 S
N1018 C1014 1.427 . S
N1018 C1015 1.384 . S
N1019 C1011 1.426 1_655 S
N1019 C1017 1.384 1_655 S
H1020 C1026 0.930 . S
H1021 C1030 0.930 . S
H1022 C1035 0.929 . S
H1023 C1033 0.929 . S
H1024 C1028 0.929 . S
H1025 C1034 0.929 . S
C1026 H1020 0.930 . S
C1026 C1027 1.367 . S
C1026 C1034 1.378 . S
C1027 C1026 1.367 . S
C1027 C1035 1.433 . S
C1028 H1024 0.929 . S
C1028 C1030 1.378 . S
C1028 C1032 1.350 . S
C1029 C1032 1.463 . S
C1029 C1034 1.350 . S
C1029 N1037 1.427 . S
C1030 H1021 0.930 . S
C1030 C1028 1.378 . S
C1030 C1031 1.367 . S
C1031 C1030 1.367 . S
C1031 C1033 1.433 . S
C1032 C1028 1.350 . S
C1032 C1029 1.463 . S
C1032 N1036 1.427 . S
C1033 H1023 0.929 . S
C1033 C1031 1.433 . S
C1033 N1036 1.384 . S
C1034 H1025 0.929 . S
C1034 C1026 1.378 . S
C1034 C1029 1.350 . S
C1035 H1022 0.929 . S
C1035 C1027 1.433 . S
C1035 N1037 1.384 . S
N1036 C1032 1.427 . S
N1036 C1033 1.384 . S
N1037 C1029 1.427 . S
N1037 C1035 1.384 . S
H1038 C1044 0.930 . S
H1039 C1048 0.930 . S
H1040 C1053 0.929 . S
H1041 C1051 0.929 . S
H1042 C1046 0.929 . S
H1043 C1052 0.929 . S
C1044 H1038 0.930 . S
C1044 C1045 1.367 . S
C1044 C1052 1.378 . S
C1045 C1044 1.367 . S
C1045 C1053 1.433 . S
C1046 H1042 0.929 . S
C1046 C1048 1.378 . S
C1046 C1050 1.350 . S
C1047 C1050 1.463 . S
C1047 C1052 1.350 . S
C1047 N1055 1.427 . S
C1048 H1039 0.930 . S
C1048 C1046 1.378 . S
C1048 C1049 1.367 . S
C1049 C1048 1.367 . S
C1049 C1051 1.433 . S
C1050 C1046 1.350 . S
C1050 C1047 1.463 . S
C1050 N1054 1.427 . S
C1051 H1041 0.929 . S
C1051 C1049 1.433 . S
C1051 N1054 1.384 . S
C1052 H1043 0.929 . S
C1052 C1044 1.378 . S
C1052 C1047 1.350 . S
C1053 H1040 0.929 . S
C1053 C1045 1.433 . S
C1053 N1055 1.384 . S
N1054 C1050 1.427 . S
N1054 C1051 1.384 . S
N1055 C1047 1.427 . S
N1055 C1053 1.384 . S
C491 C388 1.333 . S
C487 C8 1.319 . S
C509 C405 1.399 . S
C505 C61 1.418 . S
C527 C419 1.538 . S
C523 C107 1.550 . S
C541 C139 1.320 . S
C545 C377 1.314 . S
C559 C192 1.281 1_554 S
C563 C374 1.302 . S
C577 C238 1.115 . S
C581 C391 1.105 . S
C599 C402 1.535 . S
C595 C284 1.516 . S
C617 C416 1.383 . S
C613 C330 1.373 . S
C631 C100 1.359 . S
C635 C444 1.388 . S
C653 C458 1.538 . S
C649 C160 1.502 . S
C667 C15 1.111 . S
C671 C475 1.110 . S
C689 C430 1.297 . S
C685 C54 1.277 . S
C703 C291 1.328 . S
C707 C433 1.327 . S
C721 C337 1.559 . S
C725 C447 1.527 . S
C743 C461 1.401 . S
C739 C199 1.429 . S
C757 C245 1.313 . S
C761 C472 1.333 . S
C779 C404 1.922 . S
C775 C1 1.935 1_565 S
C797 C418 2.045 . S
C793 C68 2.028 . S
C811 C114 1.964 . S
C815 C376 1.977 1_556 S
C829 C146 1.855 . S
C833 C389 1.739 . S
C847 C185 1.636 . S
C851 C417 1.495 . S
C869 C375 1.474 . S
C865 C231 1.607 . S
C887 C390 1.826 . S
C883 C277 1.835 . S
C905 C403 1.605 . S
C901 C323 1.737 . S
C923 C459 1.605 . S
C919 C93 1.737 . S
C941 C474 1.829 . S
C937 C153 1.843 . S
C955 C22 1.600 . S
C959 C431 1.459 . S
C977 C445 1.506 . S
C973 C47 1.635 . S
C995 C473 1.737 . S
C991 C298 1.828 . S
C1009 C344 1.969 . S
C1013 C432 1.983 . S
C1031 C446 2.038 . S
C1027 C206 2.021 . S
C1049 C460 1.927 . S
C1045 C252 1.929 . S
