# Generated by pormake.
# Topology pyr, (3,6)-cn, num edge types: 1
# Building blocks:
#     Node 0, Type 0, BuildingBlock: BETDAH_clean_linker_0, # of connection points: 3
#     Node 1, Type 0, BuildingBlock: BETDAH_clean_linker_0, # of connection points: 3
#     Node 2, Type 0, BuildingBlock: BETDAH_clean_linker_0, # of connection points: 3
#     Node 3, Type 0, BuildingBlock: BETDAH_clean_linker_0, # of connection points: 3
#     Node 4, Type 0, BuildingBlock: BETDAH_clean_linker_0, # of connection points: 3
#     Node 5, Type 0, BuildingBlock: BETDAH_clean_linker_0, # of connection points: 3
#     Node 6, Type 0, BuildingBlock: BETDAH_clean_linker_0, # of connection points: 3
#     Node 7, Type 0, BuildingBlock: BETDAH_clean_linker_0, # of connection points: 3
#     Node 8, Type 1, BuildingBlock: FUNLAD_clean_sbu_0, # of connection points: 6
#     Node 9, Type 1, BuildingBlock: FUNLAD_clean_sbu_0, # of connection points: 6
#     Node 10, Type 1, BuildingBlock: FUNLAD_clean_sbu_0, # of connection points: 6
#     Node 11, Type 1, BuildingBlock: FUNLAD_clean_sbu_0, # of connection points: 6
#     Edge 12, Type (0, 1), BuildingBlock: MIFKUJ_clean_linker_0, # of connection points: 2
#     Edge 13, Type (0, 1), BuildingBlock: MIFKUJ_clean_linker_0, # of connection points: 2
#     Edge 14, Type (0, 1), BuildingBlock: MIFKUJ_clean_linker_0, # of connection points: 2
#     Edge 15, Type (0, 1), BuildingBlock: MIFKUJ_clean_linker_0, # of connection points: 2
#     Edge 16, Type (0, 1), BuildingBlock: MIFKUJ_clean_linker_0, # of connection points: 2
#     Edge 17, Type (0, 1), BuildingBlock: MIFKUJ_clean_linker_0, # of connection points: 2
#     Edge 18, Type (0, 1), BuildingBlock: MIFKUJ_clean_linker_0, # of connection points: 2
#     Edge 19, Type (0, 1), BuildingBlock: MIFKUJ_clean_linker_0, # of connection points: 2
#     Edge 20, Type (0, 1), BuildingBlock: MIFKUJ_clean_linker_0, # of connection points: 2
#     Edge 21, Type (0, 1), BuildingBlock: MIFKUJ_clean_linker_0, # of connection points: 2
#     Edge 22, Type (0, 1), BuildingBlock: MIFKUJ_clean_linker_0, # of connection points: 2
#     Edge 23, Type (0, 1), BuildingBlock: MIFKUJ_clean_linker_0, # of connection points: 2
#     Edge 24, Type (0, 1), BuildingBlock: MIFKUJ_clean_linker_0, # of connection points: 2
#     Edge 25, Type (0, 1), BuildingBlock: MIFKUJ_clean_linker_0, # of connection points: 2
#     Edge 26, Type (0, 1), BuildingBlock: MIFKUJ_clean_linker_0, # of connection points: 2
#     Edge 27, Type (0, 1), BuildingBlock: MIFKUJ_clean_linker_0, # of connection points: 2
#     Edge 28, Type (0, 1), BuildingBlock: MIFKUJ_clean_linker_0, # of connection points: 2
#     Edge 29, Type (0, 1), BuildingBlock: MIFKUJ_clean_linker_0, # of connection points: 2
#     Edge 30, Type (0, 1), BuildingBlock: MIFKUJ_clean_linker_0, # of connection points: 2
#     Edge 31, Type (0, 1), BuildingBlock: MIFKUJ_clean_linker_0, # of connection points: 2
#     Edge 32, Type (0, 1), BuildingBlock: MIFKUJ_clean_linker_0, # of connection points: 2
#     Edge 33, Type (0, 1), BuildingBlock: MIFKUJ_clean_linker_0, # of connection points: 2
#     Edge 34, Type (0, 1), BuildingBlock: MIFKUJ_clean_linker_0, # of connection points: 2
#     Edge 35, Type (0, 1), BuildingBlock: MIFKUJ_clean_linker_0, # of connection points: 2
# Relax obj value: 0.157
# Max RMSD: 0.202
# Mean RMSD: 0.129
data_MOF--net-pry--node1-FUNLAD_clean_sbu_0--node2-BETDAH_clean_linker_0--edge1-MIFKUJ_clean_linker_0
_symmetry_space_group_name_H-M    P1
_symmetry_Int_Tables_number       1
_symmetry_cell_setting            triclinic
loop_
_symmetry_equiv_pos_as_xyz
'x, y, z'
_cell_length_a     44.875476
_cell_length_b     47.905654
_cell_length_c     50.306452
_cell_angle_alpha  90.260389
_cell_angle_beta   90.696931
_cell_angle_gamma 91.783097
loop_
_atom_site_label
_atom_site_type_symbol
_atom_site_fract_x
_atom_site_fract_y
_atom_site_fract_z
_atom_type_partial_charge
H0 H 0.1948 0.17054 0.225 0.0
H1 H 0.18395 0.23254 0.16357 0.0
H2 H 0.1222 0.22687 0.228 0.0
C3 C 0.1831 0.18806 0.21687 0.0
C4 C 0.1574 0.19717 0.2299 0.0
C5 C 0.1931 0.20042 0.19282 0.0
C6 C 0.17684 0.22279 0.18191 0.0
C7 C 0.15115 0.23229 0.19472 0.0
C8 C 0.14184 0.21925 0.21836 0.0
N9 N 0.13255 0.25361 0.18438 0.0
C10 C 0.13832 0.27459 0.16558 0.0
H11 H 0.41371 0.86684 0.7528 0.0
H12 H 0.36849 0.94364 0.73877 0.0
H13 H 0.37101 0.88266 0.67701 0.0
C14 C 0.40053 0.87985 0.73999 0.0
C15 C 0.39272 0.87042 0.71387 0.0
C16 C 0.39223 0.90647 0.74938 0.0
C17 C 0.37505 0.92313 0.73238 0.0
C18 C 0.36676 0.91424 0.70671 0.0
C19 C 0.37578 0.88817 0.69756 0.0
N20 N 0.35547 0.93408 0.68853 0.0
C21 C 0.32604 0.93491 0.67929 0.0
H22 H 0.65197 0.45088 1.01298 0.0
H23 H 0.63273 0.53421 0.98709 0.0
H24 H 0.5616 0.47418 0.99786 0.0
C25 C 0.63627 0.46648 1.0071 0.0
C26 C 0.60577 0.45897 1.00565 0.0
C27 C 0.64664 0.49352 1.0003 0.0
C28 C 0.6256 0.51353 0.99348 0.0
C29 C 0.59502 0.50672 0.99365 0.0
C30 C 0.58517 0.47956 0.99968 0.0
N31 N 0.5743 0.52613 0.98441 0.0
C32 C 0.57319 0.53196 0.95748 0.0
H33 H 0.8765 0.67084 0.45921 0.0
H34 H 0.9548 0.63971 0.42229 0.0
H35 H 0.88603 0.58239 0.44908 0.0
C36 C 0.88928 0.65349 0.45218 0.0
C37 C 0.87792 0.62613 0.45542 0.0
C38 C 0.91709 0.65864 0.44044 0.0
C39 C 0.93347 0.63596 0.43168 0.0
C40 C 0.9222 0.60843 0.43463 0.0
C41 C 0.89485 0.6036 0.44717 0.0
N42 N 0.93721 0.58556 0.42365 0.0
C43 C 0.9515 0.58809 0.39942 0.0
H44 H 0.91552 0.87241 0.82287 0.0
H45 H 0.84865 0.88125 0.88393 0.0
H46 H 0.85217 0.93743 0.81812 0.0
C47 C 0.89699 0.88305 0.83142 0.0
C48 C 0.88632 0.90681 0.81812 0.0
C49 C 0.8839 0.87318 0.85551 0.0
C50 C 0.85913 0.88771 0.86563 0.0
C51 C 0.84759 0.91069 0.85188 0.0
C52 C 0.8614 0.91985 0.82854 0.0
N53 N 0.82134 0.92478 0.85942 0.0
C54 C 0.8061 0.92503 0.88354 0.0
H55 H 0.69989 0.17061 0.34695 0.0
H56 H 0.69339 0.23773 0.40447 0.0
H57 H 0.63671 0.23475 0.33501 0.0
C58 C 0.68957 0.18933 0.35402 0.0
C59 C 0.66684 0.20077 0.33834 0.0
C60 C 0.69987 0.20242 0.37793 0.0
C61 C 0.68635 0.22748 0.38613 0.0
C62 C 0.6635 0.23914 0.37057 0.0
C63 C 0.65431 0.22573 0.34682 0.0
N64 N 0.64892 0.26431 0.37728 0.0
C65 C 0.6517 0.28113 0.40007 0.0
H66 H 0.3827 0.67097 0.10153 0.0
H67 H 0.37836 0.58332 0.1195 0.0
H68 H 0.45341 0.63416 0.14657 0.0
C69 C 0.39268 0.6528 0.11032 0.0
C70 C 0.42038 0.65561 0.12348 0.0
C71 C 0.37733 0.62691 0.10884 0.0
C72 C 0.3902 0.60338 0.12017 0.0
C73 C 0.41719 0.60608 0.13434 0.0
C74 C 0.43228 0.63222 0.13598 0.0
N75 N 0.42808 0.58261 0.14791 0.0
C76 C 0.43889 0.58508 0.17379 0.0
H77 H 0.15698 0.45133 0.5704 0.0
H78 H 0.14605 0.53875 0.58611 0.0
H79 H 0.06916 0.48352 0.58048 0.0
C80 C 0.14251 0.46877 0.57326 0.0
C81 C 0.11147 0.46407 0.57449 0.0
C82 C 0.15515 0.4956 0.57758 0.0
C83 C 0.13653 0.51801 0.58235 0.0
C84 C 0.10559 0.51363 0.58299 0.0
C85 C 0.09311 0.48674 0.57923 0.0
N86 N 0.08723 0.5358 0.59004 0.0
C87 C 0.08005 0.53914 0.61652 0.0
C88 C 0.0398 0.0789 0.47695 0.0
N89 N 0.02612 0.11599 0.55166 0.0
C90 C 0.0541 0.12726 0.54898 0.0
C91 C 0.06022 0.15509 0.55573 0.0
C92 C 0.03724 0.17167 0.56501 0.0
C93 C 1.009 0.15905 0.56917 0.0
C94 C 1.0039 0.13097 0.56233 0.0
Zn95 Zn 0.01708 0.07812 0.53422 0.0
C96 C 0.95793 0.07842 0.5044 0.0
N97 N 0.99933 1.00075 0.49475 0.0
C98 C 0.02171 0.98906 0.48099 0.0
C99 C 0.97247 0.98723 0.4976 0.0
C100 C 0.96763 0.96047 0.48701 0.0
C101 C 0.99068 0.94753 0.47341 0.0
C102 C 0.01784 0.96236 0.47009 0.0
Zn103 Zn 1.0075 0.03821 0.51306 0.0
O104 O 0.03869 0.09353 0.49812 0.0
C105 C 0.06628 0.03815 0.54335 0.0
O106 O 0.02845 0.05421 0.47729 0.0
H107 H 0.95506 0.99693 0.50871 0.0
H108 H 0.0714 0.11507 0.54029 0.0
H109 H 0.04288 1.00022 0.47896 0.0
O110 O 0.05839 0.06269 0.54914 0.0
O111 O 0.04962 0.02332 0.52783 0.0
H112 H 0.98179 0.1216 0.56422 0.0
O113 O 0.9871 0.02237 0.54913 0.0
O114 O 0.99565 0.06205 0.5701 0.0
O115 O 0.96515 0.05358 0.49868 0.0
O116 O 0.97548 0.09316 0.51919 0.0
C117 C 0.98569 0.03678 0.57042 0.0
H118 H 0.08247 0.16381 0.55272 0.0
H119 H 0.99059 0.17108 0.57613 0.0
H120 H 0.94646 0.94964 0.49031 0.0
H121 H 0.03605 0.9533 0.45946 0.0
C122 C 0.55999 0.03391 0.03101 0.0
N123 N 0.51951 0.11198 0.02302 0.0
C124 C 0.54708 0.12437 0.02557 0.0
C125 C 0.5519 0.15204 0.01785 0.0
C126 C 0.52804 0.16711 1.00758 0.0
C127 C 0.50023 0.15334 1.00384 0.0
C128 C 0.49645 0.12557 1.01169 0.0
Zn129 Zn 0.5115 0.07451 0.04076 0.0
C130 C 0.47824 0.03344 1.00489 0.0
N131 N 0.49418 0.99763 0.08006 0.0
C132 C 0.51676 0.98587 0.09392 0.0
C133 C 0.46743 0.98396 0.0764 0.0
C134 C 0.46305 0.95683 0.08586 0.0
C135 C 0.48637 0.94378 0.09932 0.0
C136 C 0.51326 0.95886 0.10389 0.0
Zn137 Zn 0.50193 0.03496 0.06188 0.0
O138 O 0.55237 0.05856 0.0252 0.0
C139 C 0.53691 0.07545 0.09713 0.0
O140 O 0.54342 0.01954 0.04653 0.0
H141 H 0.4498 0.99377 0.06537 0.0
H142 H 0.56502 0.11323 0.03484 0.0
H143 H 0.53792 0.99707 0.09641 0.0
O144 O 0.53501 0.08987 0.07601 0.0
O145 O 0.52473 0.05109 0.09724 0.0
H146 H 0.47473 0.11526 1.00984 0.0
O147 O 0.46011 0.05085 0.07693 0.0
O148 O 0.47035 0.09024 0.05672 0.0
O149 O 0.47999 0.01901 0.02604 0.0
O150 O 0.48855 0.05855 1.0054 0.0
C151 C 0.45306 0.07582 0.07158 0.0
H152 H 0.57361 0.16198 0.02133 0.0
H153 H 0.48138 0.16419 0.99572 0.0
H154 H 0.44188 0.94593 0.08217 0.0
H155 H 0.53187 0.9494 0.11394 0.0
C156 C 0.5458 0.52117 0.54202 0.0
N157 N 0.54571 0.55408 0.62048 0.0
C158 C 0.53768 0.52913 0.63153 0.0
C159 C 0.54345 0.52432 0.65849 0.0
C160 C 0.55729 0.54554 0.67404 0.0
C161 C 0.5665 0.57051 0.66179 0.0
C162 C 0.56052 0.57435 0.63488 0.0
Zn163 Zn 0.53278 0.56438 0.58292 0.0
C164 C 0.58177 0.59445 0.55445 0.0
N165 N 0.50592 0.58993 0.50558 0.0
C166 C 0.49119 0.57022 0.49046 0.0
C167 C 0.51361 0.61543 0.49551 0.0
C168 C 0.50709 0.62163 0.46897 0.0
C169 C 0.49241 0.60142 0.45278 0.0
C170 C 0.48415 0.57556 0.46396 0.0
Zn171 Zn 0.51858 0.5791 0.54314 0.0
O172 O 0.54733 0.52497 0.56711 0.0
C173 C 0.46971 0.5483 0.5711 0.0
O174 O 0.53476 0.54019 0.52766 0.0
H175 H 0.52535 0.63077 0.5079 0.0
H176 H 0.52584 0.51338 0.61969 0.0
H177 H 0.48555 0.54999 0.49876 0.0
O178 O 0.48922 0.54713 0.58956 0.0
O179 O 0.47638 0.56012 0.54934 0.0
H180 H 0.56676 0.59401 0.62574 0.0
O181 O 0.50239 0.61788 0.55928 0.0
O182 O 0.51842 0.60401 0.59816 0.0
O183 O 0.56128 0.5977 0.5372 0.0
O184 O 0.5758 0.58141 0.57573 0.0
C185 C 0.5059 0.62243 0.58413 0.0
H186 H 0.53591 0.50482 0.66734 0.0
H187 H 0.57755 0.58722 0.67309 0.0
H188 H 0.51364 0.6419 0.46116 0.0
H189 H 0.47325 0.55921 0.45211 0.0
C190 C 0.99897 0.62564 0.98814 0.0
N191 N 1.00247 0.59271 0.06671 0.0
C192 C 0.01209 0.61741 0.07778 0.0
C193 C 1.0089 0.62212 0.10506 0.0
C194 C 0.99574 0.60116 0.12093 0.0
C195 C 0.9846 0.57659 0.10862 0.0
C196 C 0.98835 0.57272 0.08146 0.0
Zn197 Zn 0.01302 0.58199 0.02875 0.0
C198 C 0.96229 0.55192 1.00129 0.0
N199 N 0.03606 0.55559 0.95125 0.0
C200 C 0.05106 0.57479 0.93626 0.0
C201 C 0.02751 0.53016 0.94115 0.0
C202 C 0.03341 0.52352 0.91469 0.0
C203 C 0.04817 0.54328 0.89854 0.0
C204 C 0.05731 0.56909 0.90978 0.0
Zn205 Zn 0.02486 0.56689 0.98877 0.0
O206 O 0.99579 0.6207 1.01287 0.0
C207 C 0.07572 0.59663 0.01659 0.0
O208 O 0.01137 0.60739 0.97383 0.0
H209 H 0.01563 0.51522 0.95348 0.0
H210 H 0.02338 0.63296 0.06569 0.0
H211 H 0.05759 0.59491 0.94467 0.0
O212 O 0.05584 0.60084 0.03378 0.0
O213 O 0.0689 0.58268 0.99574 0.0
H214 H 0.98107 0.55313 0.0724 0.0
O215 O 0.0383 0.52651 1.00437 0.0
O216 O 0.03033 0.54329 0.04406 0.0
O217 O 0.98053 0.55119 0.9822 0.0
O218 O 0.97052 0.56282 0.02332 0.0
C219 C 0.0391 0.52338 0.02954 0.0
H220 H 0.01789 0.64134 0.11379 0.0
H221 H 0.97378 0.56012 0.12001 0.0
H222 H 0.02626 0.50325 0.90691 0.0
H223 H 0.0683 0.58515 0.89802 0.0
H224 H 0.09934 0.1861 0.24549 0.0
H225 H 0.08142 0.16637 0.2872 0.0
H226 H 0.17204 0.15713 0.31422 0.0
H227 H 0.19024 0.17711 0.27245 0.0
H228 H 0.14027 0.11254 0.32862 0.0
H229 H 0.12748 0.21064 0.33735 0.0
H230 H 0.11032 0.25719 0.32464 0.0
H231 H 0.01932 0.22689 0.32665 0.0
H232 H 0.03596 0.18003 0.33901 0.0
H233 H 0.06552 0.13122 0.46902 0.0
H234 H 0.08702 0.15056 0.42825 0.0
H235 H 0.06593 0.07317 0.38714 0.0
H236 H 0.04489 0.0536 0.42792 0.0
H237 H 0.06599 0.16263 0.38149 0.0
H238 H 0.11481 0.06225 0.33714 0.0
H239 H 0.13604 0.0182 0.35262 0.0
H240 H 0.16215 0.05734 0.42661 0.0
H241 H 0.14145 0.1017 0.41144 0.0
C242 C 0.11563 0.18019 0.26031 0.0
C243 C 0.14643 0.18369 0.25534 0.0
C244 C 0.10524 0.16876 0.28433 0.0
C245 C 0.12521 0.16051 0.30441 0.0
C246 C 0.15597 0.16326 0.29928 0.0
C247 C 0.16641 0.1747 0.2752 0.0
C248 C 0.11397 0.14929 0.33064 0.0
C249 C 0.12397 0.12353 0.34007 0.0
C250 C 0.09309 0.16362 0.34626 0.0
C251 C 0.08299 0.19176 0.33885 0.0
C252 C 0.10382 0.21385 0.33488 0.0
C253 C 0.09419 0.24029 0.32777 0.0
C254 C 0.06375 0.24497 0.32477 0.0
C255 C 0.04289 0.22322 0.32894 0.0
C256 C 0.0524 0.19672 0.33601 0.0
C257 C 0.06557 0.1182 0.45136 0.0
C258 C 0.05349 0.09068 0.45204 0.0
C259 C 0.07783 0.12938 0.4279 0.0
C260 C 0.07858 0.11341 0.40433 0.0
C261 C 0.06632 0.08597 0.40494 0.0
C262 C 0.05409 0.07477 0.4284 0.0
C263 C 0.09176 0.12555 0.37918 0.0
C264 C 0.08217 0.15153 0.36997 0.0
C265 C 0.11343 0.11168 0.36405 0.0
C266 C 0.12629 0.0852 0.37323 0.0
C267 C 0.12518 0.06147 0.35667 0.0
C268 C 0.13711 0.03645 0.3654 0.0
C269 C 0.15035 0.03495 0.39062 0.0
C270 C 0.15179 0.0585 0.40712 0.0
C271 C 0.13994 0.08358 0.39848 0.0
H272 H 0.15954 0.01555 0.39735 0.0
H273 H 0.05634 0.26546 0.31928 0.0
H274 H 0.39867 0.87869 0.79746 0.0
H275 H 0.41372 0.89836 0.84084 0.0
H276 H 0.423 0.98011 0.80585 0.0
H277 H 0.40981 0.96047 0.76249 0.0
H278 H 0.46583 0.97569 0.83881 0.0
H279 H 0.36035 0.95628 0.84571 0.0
H280 H 0.31418 0.92696 0.84425 0.0
H281 H 0.34941 0.87419 0.90503 0.0
H282 H 0.39594 0.90302 0.90662 0.0
H283 H 0.46819 0.05854 0.95651 0.0
H284 H 0.45331 0.0363 0.91428 0.0
H285 H 0.44881 0.95606 0.95273 0.0
H286 H 0.46276 0.9783 0.99515 0.0
H287 H 0.40461 0.95812 0.91872 0.0
H288 H 0.50969 0.98045 0.91288 0.0
H289 H 0.55462 1.01157 0.91429 0.0
H290 H 0.51891 0.06041 0.85082 0.0
H291 H 0.47354 0.03001 0.84937 0.0
C292 C 0.40422 0.9008 0.79888 0.0
C293 C 0.40242 0.91789 0.77619 0.0
C294 C 0.41251 0.91218 0.82392 0.0
C295 C 0.41899 0.94103 0.82711 0.0
C296 C 0.41797 0.95789 0.80433 0.0
C297 C 0.40997 0.94656 0.77938 0.0
C298 C 0.4269 0.95391 0.85386 0.0
C299 C 0.45215 0.97201 0.85615 0.0
C300 C 0.40969 0.94893 0.87697 0.0
C301 C 0.38174 0.93162 0.87607 0.0
C302 C 0.35832 0.93831 0.85863 0.0
C303 C 0.33208 0.9218 0.8578 0.0
C304 C 0.3289 0.89868 0.87448 0.0
C305 C 0.35192 0.89207 0.89208 0.0
C306 C 0.37823 0.9085 0.89297 0.0
C307 C 0.46379 0.03618 0.95608 0.0
C308 C 0.4668 0.02032 0.97943 0.0
C309 C 0.45548 0.02337 0.93175 0.0
C310 C 0.45046 0.99423 0.92987 0.0
C311 C 0.4526 0.97849 0.95335 0.0
C312 C 0.46064 0.99131 0.97772 0.0
C313 C 0.44333 0.9801 0.90356 0.0
C314 C 0.4183 0.96173 0.90138 0.0
C315 C 0.46063 0.98499 0.88048 0.0
C316 C 0.4881 1.00307 0.88117 0.0
C317 C 0.51135 0.99792 0.89933 0.0
C318 C 0.53689 0.01542 0.90013 0.0
C319 C 0.53959 0.03792 0.88267 0.0
C320 C 0.51678 0.04298 0.86434 0.0
C321 C 0.49115 0.02563 0.86353 0.0
H322 H 0.55938 0.05142 0.88333 0.0
H323 H 0.30857 0.88592 0.8738 0.0
H324 H 0.60026 0.49781 0.92406 0.0
H325 H 0.59932 0.49962 0.87535 0.0
H326 H 0.54606 0.57309 0.87858 0.0
H327 H 0.54662 0.57086 0.92743 0.0
H328 H 0.52344 0.53662 0.84341 0.0
H329 H 0.61971 0.57775 0.8618 0.0
H330 H 0.6703 0.5818 0.88136 0.0
H331 H 0.69439 0.5069 0.84082 0.0
H332 H 0.64377 0.50222 0.8212 0.0
H333 H 0.54144 0.58305 0.71141 0.0
H334 H 0.54564 0.57903 0.75969 0.0
H335 H 0.58355 0.49791 0.75099 0.0
H336 H 0.5793 0.50178 0.70233 0.0
H337 H 0.61445 0.53635 0.78832 0.0
H338 H 0.51645 0.49756 0.76869 0.0
H339 H 0.46634 0.49718 0.74803 0.0
H340 H 0.44608 0.57184 0.79084 0.0
H341 H 0.49627 0.57291 0.81147 0.0
C342 C 0.58856 0.5144 0.91422 0.0
C343 C 0.57357 0.53425 0.92906 0.0
C344 C 0.58814 0.51552 0.88651 0.0
C345 C 0.57287 0.53666 0.87334 0.0
C346 C 0.55799 0.55664 0.88836 0.0
C347 C 0.55837 0.55545 0.91612 0.0
C348 C 0.57149 0.53727 0.84392 0.0
C349 C 0.54337 0.53691 0.8314 0.0
C350 C 0.59749 0.53699 0.82824 0.0
C351 C 0.62785 0.53949 0.84023 0.0
C352 C 0.6357 0.56199 0.85725 0.0
C353 C 0.6644 0.56444 0.86829 0.0
C354 C 0.68553 0.54462 0.86234 0.0
C355 C 0.67798 0.52225 0.84539 0.0
C356 C 0.6493 0.5197 0.83427 0.0
C357 C 0.55087 0.56443 0.71977 0.0
C358 C 0.56017 0.54275 0.7032 0.0
C359 C 0.5531 0.56212 0.7473 0.0
C360 C 0.56479 0.53815 0.75878 0.0
C361 C 0.57446 0.51655 0.74237 0.0
C362 C 0.57189 0.51871 0.71471 0.0
C363 C 0.56648 0.53583 0.78802 0.0
C364 C 0.59461 0.53587 0.80044 0.0
C365 C 0.54052 0.53617 0.80364 0.0
C366 C 0.51022 0.53544 0.79145 0.0
C367 C 0.5014 0.51403 0.77354 0.0
C368 C 0.47297 0.51366 0.76186 0.0
C369 C 0.45306 0.53451 0.76808 0.0
C370 C 0.46153 0.55572 0.78604 0.0
C371 C 0.48996 0.5562 0.79775 0.0
H372 H 0.43105 0.53419 0.75901 0.0
H373 H 0.70778 0.54667 0.87079 0.0
H374 H 0.95245 0.63671 0.3732 0.0
H375 H 0.96585 0.64411 0.32664 0.0
H376 H 0.9875 0.55723 0.31959 0.0
H377 H 0.97449 0.54998 0.36645 0.0
H378 H 0.02726 0.59185 0.29301 0.0
H379 H 0.92034 0.57838 0.29985 0.0
H380 H 0.87064 0.58881 0.31701 0.0
H381 H 0.87912 0.67234 0.28679 0.0
H382 H 0.92909 0.66249 0.26977 0.0
H383 H 1.00806 0.56121 0.15743 0.0
H384 H 1.00554 0.56449 0.20562 0.0
H385 H 0.98105 0.65064 0.19952 0.0
H386 H 0.98252 0.64719 0.15086 0.0
H387 H 0.94574 0.62246 0.23338 0.0
H388 H 0.05042 0.63409 0.22165 0.0
H389 H 0.09988 0.62334 0.20417 0.0
H390 H 0.09607 0.54376 0.24311 0.0
H391 H 0.04638 0.55385 0.26051 0.0
C392 C 0.96065 0.61939 0.3618 0.0
C393 C 0.96265 0.59284 0.37311 0.0
C394 C 0.96813 0.62358 0.33524 0.0
C395 C 0.97733 0.60114 0.31962 0.0
C396 C 0.98047 0.57481 0.33134 0.0
C397 C 0.97304 0.57065 0.35797 0.0
C398 C 0.98176 0.60464 0.29069 0.0
C399 C 1.00944 0.59837 0.2799 0.0
C400 C 0.9587 0.61393 0.27377 0.0
C401 C 0.92857 0.61979 0.28381 0.0
C402 C 0.9117 0.59903 0.29704 0.0
C403 C 0.88347 0.60483 0.30672 0.0
C404 C 0.87177 0.63125 0.30307 0.0
C405 C 0.88824 0.6519 0.28965 0.0
C406 C 0.9165 0.64622 0.27997 0.0
C407 C 1.00192 0.58083 0.16627 0.0
C408 C 0.9952 0.60388 0.1503 0.0
C409 C 1.00091 0.58279 0.19387 0.0
C410 C 0.99351 0.60792 0.20619 0.0
C411 C 0.98698 0.63109 0.19038 0.0
C412 C 0.98797 0.62914 0.16264 0.0
C413 C 0.99117 0.60926 0.23552 0.0
C414 C 0.96381 0.61639 0.24645 0.0
C415 C 0.01455 0.60078 0.25253 0.0
C416 C 0.04456 0.59467 0.24225 0.0
C417 C 0.06003 0.61422 0.22634 0.0
C418 C 0.08812 0.60825 0.21647 0.0
C419 C 0.10108 0.58287 0.22249 0.0
C420 C 0.086 0.56342 0.23846 0.0
C421 C 0.05788 0.56927 0.24837 0.0
H422 H 0.12283 0.57829 0.21482 0.0
H423 H 0.84991 0.6357 0.31057 0.0
H424 H 0.2021 0.19122 0.1391 0.0
H425 H 0.24516 0.17059 0.11771 0.0
H426 H 0.28834 0.16284 0.19419 0.0
H427 H 0.24582 0.18386 0.21553 0.0
H428 H 0.32796 0.18045 0.15962 0.0
H429 H 0.25401 0.10598 0.16097 0.0
H430 H 0.2049 0.08328 0.15162 0.0
H431 H 0.21833 0.09337 0.0678 0.0
H432 H 0.26738 0.11648 0.07668 0.0
H433 H 0.4081 0.05035 0.1008 0.0
H434 H 0.36444 0.0717 0.1205 0.0
H435 H 0.39219 0.15153 0.08855 0.0
H436 H 0.43574 0.13038 0.06887 0.0
H437 H 0.31673 0.09711 0.10112 0.0
H438 H 0.37156 0.20396 0.12913 0.0
H439 H 0.41928 0.22497 0.14549 0.0
H440 H 0.44353 0.14601 0.17806 0.0
H441 H 0.39606 0.12456 0.16179 0.0
C442 C 0.22088 0.18542 0.15138 0.0
C443 C 0.22014 0.18921 0.1792 0.0
C444 C 0.24548 0.17329 0.1391 0.0
C445 C 0.27017 0.16465 0.15422 0.0
C446 C 0.26975 0.16908 0.18189 0.0
C447 C 0.24516 0.18102 0.19416 0.0
C448 C 0.29651 0.15116 0.14151 0.0
C449 C 0.32535 0.16235 0.14666 0.0
C450 C 0.29363 0.12715 0.12489 0.0
C451 C 0.26422 0.11321 0.11951 0.0
C452 C 0.24639 0.10355 0.14056 0.0
C453 C 0.21858 0.09058 0.13534 0.0
C454 C 0.20846 0.08696 0.10914 0.0
C455 C 0.22617 0.09623 0.08809 0.0
C456 C 0.25399 0.10925 0.0932 0.0
C457 C 0.40493 0.07245 0.0979 0.0
C458 C 0.42572 0.08851 0.08315 0.0
C459 C 0.3798 0.0847 0.10918 0.0
C460 C 0.37483 0.11346 0.10641 0.0
C461 C 0.39544 0.12945 0.09148 0.0
C462 C 0.42041 0.1172 0.08003 0.0
C463 C 0.3482 0.12667 0.11897 0.0
C464 C 0.31931 0.11542 0.1138 0.0
C465 C 0.351 0.15046 0.13586 0.0
C466 C 0.38044 0.16263 0.14401 0.0
C467 C 0.38722 0.19106 0.1396 0.0
C468 C 0.4142 0.20305 0.14885 0.0
C469 C 0.43443 0.18684 0.16276 0.0
C470 C 0.42792 0.15852 0.16714 0.0
C471 C 0.40105 0.14639 0.15778 0.0
H472 H 0.45504 0.19632 0.17031 0.0
H473 H 0.18693 0.07691 0.10514 0.0
H474 H 0.29832 0.98333 0.68525 0.0
H475 H 0.25308 0.99826 0.66243 0.0
H476 H 0.24407 0.91782 0.62369 0.0
H477 H 0.29004 0.90318 0.64622 0.0
H478 H 0.23437 0.95707 0.58867 0.0
H479 H 0.19659 0.93849 0.67527 0.0
H480 H 0.19468 0.94118 0.72418 0.0
H481 H 0.18493 0.02994 0.72009 0.0
H482 H 0.18717 0.02785 0.67115 0.0
H483 H 0.08808 0.98537 0.53785 0.0
H484 H 0.13074 0.96547 0.56098 0.0
H485 H 0.14876 0.04419 0.60081 0.0
H486 H 0.10596 0.06409 0.57806 0.0
H487 H 0.15203 1.00254 0.63542 0.0
H488 H 0.19206 0.02074 0.54852 0.0
H489 H 0.19323 0.0174 0.49961 0.0
H490 H 0.19771 0.92816 0.50451 0.0
H491 H 0.19617 0.93095 0.55347 0.0
C492 C 0.28637 0.9687 0.67218 0.0
C493 C 0.29734 0.94199 0.66776 0.0
C494 C 0.26043 0.97722 0.65914 0.0
C495 C 0.24463 0.95911 0.6415 0.0
C496 C 0.25562 0.93222 0.63722 0.0
C497 C 0.28175 0.92375 0.65023 0.0
C498 C 0.21743 0.96874 0.6269 0.0
C499 C 0.21615 0.96656 0.599 0.0
C500 C 0.1937 0.98169 0.6401 0.0
C501 C 0.19231 0.98303 0.66954 0.0
C502 C 0.19426 0.95862 0.6848 0.0
C503 C 0.19308 0.96003 0.71253 0.0
C504 C 0.18976 0.98572 0.72523 0.0
C505 C 0.18753 1.01006 0.71022 0.0
C506 C 0.18872 1.00876 0.68249 0.0
C507 C 0.10125 0.99856 0.55135 0.0
C508 C 0.09351 0.02643 0.55594 0.0
C509 C 0.12576 0.98712 0.56457 0.0
C510 C 0.14331 1.0033 0.58261 0.0
C511 C 0.13569 0.03117 0.58708 0.0
C512 C 0.11121 0.0426 0.5739 0.0
C513 C 0.1692 0.9912 0.59723 0.0
C514 C 0.1702 0.99291 0.62514 0.0
C515 C 0.19256 0.97772 0.58405 0.0
C516 C 0.19369 0.97603 0.55464 0.0
C517 C 0.19307 1.00039 0.53916 0.0
C518 C 0.19384 0.9986 0.51143 0.0
C519 C 0.19546 0.97258 0.49896 0.0
C520 C 0.19641 0.9483 0.5142 0.0
C521 C 0.19562 0.94997 0.54193 0.0
H522 H 0.19604 0.97123 0.47749 0.0
H523 H 0.18885 0.98677 0.7467 0.0
H524 H 0.67637 0.54379 1.01025 0.0
H525 H 0.72933 0.55486 1.00548 0.0
H526 H 0.74453 0.46897 0.9848 0.0
H527 H 0.69146 0.45848 0.98638 0.0
H528 H 0.77459 0.5418 0.02986 0.0
H529 H 0.80478 0.4609 0.94766 0.0
H530 H 0.78142 0.43894 0.90783 0.0
H531 H 0.72259 0.50748 0.90023 0.0
H532 H 0.74607 0.53024 0.93958 0.0
H533 H 0.92716 0.52644 0.03789 0.0
H534 H 0.87372 0.51562 0.03421 0.0
H535 H 0.8733 0.54684 0.9538 0.0
H536 H 0.9273 0.5559 0.95693 0.0
H537 H 0.83529 0.50689 0.95568 0.0
H538 H 0.85243 0.58767 1.0089 0.0
H539 H 0.875 0.61661 0.04494 0.0
H540 H 0.83651 0.56145 0.1031 0.0
H541 H 0.81406 0.53193 0.06738 0.0
C542 C 0.69079 0.52735 1.00404 0.0
C543 C 0.67928 0.5002 0.99869 0.0
C544 C 0.72125 0.53366 1.00165 0.0
C545 C 0.74105 0.51288 0.99438 0.0
C546 C 0.72976 0.48563 0.98973 0.0
C547 C 0.69925 0.4795 0.99129 0.0
C548 C 0.77359 0.51943 0.99255 0.0
C549 C 0.78774 0.53427 1.01352 0.0
C550 C 0.79086 0.51036 0.9709 0.0
C551 C 0.77705 0.49716 0.94676 0.0
C552 C 0.78702 0.47141 0.93738 0.0
C553 C 0.77375 0.45883 0.91487 0.0
C554 C 0.75052 0.47181 0.90152 0.0
C555 C 0.7406 0.49748 0.91057 0.0
C556 C 0.75389 0.51023 0.93298 0.0
C557 C 0.91568 0.53049 0.01929 0.0
C558 C 0.93113 0.54213 0.99774 0.0
C559 C 0.88513 0.52455 0.01725 0.0
C560 C 0.86924 0.53127 0.99403 0.0
C561 C 0.88498 0.54164 0.972 0.0
C562 C 0.91579 0.5468 0.97377 0.0
C563 C 0.83616 0.52861 0.99327 0.0
C564 C 0.82197 0.51457 0.97185 0.0
C565 C 0.81861 0.5396 1.01384 0.0
C566 C 0.83175 0.55747 0.03544 0.0
C567 C 0.84891 0.58163 0.02937 0.0
C568 C 0.86168 0.59814 0.04974 0.0
C569 C 0.85724 0.59084 0.07629 0.0
C570 C 0.83994 0.56706 0.08252 0.0
C571 C 0.82716 0.55045 0.06222 0.0
H572 H 0.86717 0.60364 0.09204 0.0
H573 H 0.74021 0.46199 0.88415 0.0
H574 H 0.86058 0.59135 0.49575 0.0
H575 H 0.81076 0.58652 0.51513 0.0
H576 H 0.77756 0.64538 0.45804 0.0
H577 H 0.82729 0.65076 0.43927 0.0
H578 H 0.75873 0.65839 0.50444 0.0
H579 H 0.76266 0.57349 0.45427 0.0
H580 H 0.7816 0.52827 0.43958 0.0
H581 H 0.77139 0.4957 0.51844 0.0
H582 H 0.75292 0.54091 0.53374 0.0
H583 H 0.60216 0.62625 0.51308 0.0
H584 H 0.65404 0.63351 0.4996 0.0
H585 H 0.68354 0.58747 0.568 0.0
H586 H 0.63187 0.58031 0.5818 0.0
H587 H 0.70481 0.5679 0.5189 0.0
H588 H 0.69803 0.65421 0.56736 0.0
H589 H 0.67567 0.69892 0.57912 0.0
H590 H 0.6879 0.72809 0.49929 0.0
H591 H 0.70995 0.68339 0.48694 0.0
C592 C 0.8425 0.60301 0.48729 0.0
C593 C 0.84768 0.62154 0.46619 0.0
C594 C 0.81408 0.60022 0.49829 0.0
C595 C 0.79036 0.61551 0.48796 0.0
C596 C 0.79552 0.63353 0.46648 0.0
C597 C 0.8239 0.63658 0.45576 0.0
C598 C 0.76034 0.61364 0.49996 0.0
C599 C 0.74686 0.63857 0.50732 0.0
C600 C 0.74505 0.58778 0.50427 0.0
C601 C 0.75683 0.56076 0.49524 0.0
C602 C 0.76483 0.55682 0.46857 0.0
C603 C 0.77541 0.53115 0.46012 0.0
C604 C 0.77782 0.50916 0.47809 0.0
C605 C 0.76964 0.51279 0.50456 0.0
C606 C 0.75913 0.53844 0.51314 0.0
C607 C 0.61973 0.61814 0.52553 0.0
C608 C 0.61293 0.60263 0.54844 0.0
C609 C 0.64931 0.62232 0.51782 0.0
C610 C 0.67248 0.61095 0.53282 0.0
C611 C 0.66588 0.59635 0.55619 0.0
C612 C 0.63636 0.59242 0.56408 0.0
C613 C 0.70339 0.61257 0.52308 0.0
C614 C 0.71693 0.58762 0.51616 0.0
C615 C 0.71853 0.63838 0.51875 0.0
C616 C 0.70542 0.66534 0.52618 0.0
C617 C 0.69573 0.67007 0.55225 0.0
C618 C 0.68316 0.69543 0.55904 0.0
C619 C 0.68031 0.71631 0.53995 0.0
C620 C 0.6901 0.71189 0.51405 0.0
C621 C 0.70267 0.68656 0.50716 0.0
H622 H 0.67056 0.73593 0.54524 0.0
H623 H 0.78594 0.48929 0.47149 0.0
H624 H 0.12779 0.27824 0.11202 0.0
H625 H 0.11329 0.32001 0.08724 0.0
H626 H 0.1242 0.36953 0.15869 0.0
H627 H 0.13858 0.32784 0.18329 0.0
H628 H 0.07226 0.38023 0.13534 0.0
H629 H 0.17326 0.37546 0.10522 0.0
H630 H 0.21633 0.35321 0.08491 0.0
H631 H 0.16659 0.34094 1.01211 0.0
H632 H 0.12307 0.36279 0.03212 0.0
H633 H 0.05386 0.51497 0.08191 0.0
H634 H 0.07305 0.4733 0.1029 0.0
H635 H 0.06923 0.43023 0.02743 0.0
H636 H 0.05116 0.47259 1.00602 0.0
H637 H 0.11683 0.41495 0.05159 0.0
H638 H 0.016 0.419 0.08066 0.0
H639 H 0.97208 0.44047 0.10031 0.0
H640 H 0.01977 0.45242 0.17421 0.0
H641 H 0.06411 0.43132 0.1549 0.0
C642 C 0.12787 0.29821 0.12221 0.0
C643 C 0.13495 0.29984 0.1495 0.0
C644 C 0.11943 0.32216 0.10805 0.0
C645 C 0.11765 0.34831 0.12089 0.0
C646 C 0.1253 0.34985 0.14811 0.0
C647 C 0.13386 0.32599 0.16217 0.0
C648 C 0.10645 0.3737 0.10655 0.0
C649 C 0.08235 0.38797 0.11721 0.0
C650 C 0.11868 0.38361 0.08233 0.0
C651 C 0.14481 0.37049 0.07027 0.0
C652 C 0.17142 0.3678 0.08496 0.0
C653 C 0.19593 0.35531 0.07348 0.0
C654 C 0.19417 0.34559 0.04726 0.0
C655 C 0.16791 0.34843 0.03244 0.0
C656 C 0.14333 0.36089 0.04382 0.0
C657 C 0.057 0.49666 0.06967 0.0
C658 C 0.05061 0.49731 0.04217 0.0
C659 C 0.06788 0.47257 0.08183 0.0
C660 C 0.07212 0.44793 0.06711 0.0
C661 C 0.06616 0.44866 0.03951 0.0
C662 C 0.05566 0.47298 0.02722 0.0
C663 C 0.08276 0.42169 0.08052 0.0
C664 C 0.10668 0.40721 0.06968 0.0
C665 C 0.07018 0.41136 0.10449 0.0
C666 C 0.04345 0.4238 0.11625 0.0
C667 C 0.01717 0.42634 0.10106 0.0
C668 C 0.9922 0.43843 0.11214 0.0
C669 C 0.99316 0.44786 0.13847 0.0
C670 C 0.01907 0.44513 0.15381 0.0
C671 C 0.04411 0.43308 0.14281 0.0
H672 H 0.97381 0.45723 0.14701 0.0
H673 H 0.21317 0.33593 0.03841 0.0
H674 H 0.5556 0.43636 0.02928 0.0
H675 H 0.53801 0.38744 0.02821 0.0
H676 H 0.61624 0.36538 0.98476 0.0
H677 H 0.6332 0.4141 0.98465 0.0
H678 H 0.56808 0.34172 0.96272 0.0
H679 H 0.60874 0.35127 0.05153 0.0
H680 H 0.61404 0.37193 0.0964 0.0
H681 H 0.52188 0.35199 0.11164 0.0
H682 H 0.51595 0.33153 0.0667 0.0
H683 H 0.57427 0.19548 0.98377 0.0
H684 H 0.58266 0.24615 0.98175 0.0
H685 H 0.49848 0.25816 0.02003 0.0
H686 H 0.49019 0.20755 0.02253 0.0
H687 H 0.5443 0.2878 0.0441 0.0
H688 H 0.50556 0.2742 0.95587 0.0
H689 H 0.50174 0.25264 0.91132 0.0
H690 H 0.5919 0.27937 0.89518 0.0
H691 H 0.59642 0.30076 0.9398 0.0
C692 C 0.56902 0.42107 0.0195 0.0
C693 C 0.59593 0.42913 1.00725 0.0
C694 C 0.55905 0.39311 0.01906 0.0
C695 C 0.57593 0.37275 1.00655 0.0
C696 C 0.60286 0.38074 0.99453 0.0
C697 C 0.61273 0.40859 0.99482 0.0
C698 C 0.56553 0.34311 1.00547 0.0
C699 C 0.56313 0.32986 0.98054 0.0
C700 C 0.55829 0.32786 0.02865 0.0
C701 C 0.56182 0.34018 0.05565 0.0
C702 C 0.58954 0.35151 0.06437 0.0
C703 C 0.59267 0.36314 0.08982 0.0
C704 C 0.56829 0.36335 0.10682 0.0
C705 C 0.54074 0.35186 0.09843 0.0
C706 C 0.53748 0.34023 0.07297 0.0
C707 C 0.55744 0.20895 0.99151 0.0
C708 C 0.53158 0.19759 1.00328 0.0
C709 C 0.56216 0.23785 0.9902 0.0
C710 C 0.5411 0.25585 1.00064 0.0
C711 C 0.51494 0.24458 1.01181 0.0
C712 C 0.51013 0.2157 1.013 0.0
C713 C 0.54736 0.28635 1.00141 0.0
C714 C 0.54895 0.29975 0.02627 0.0
C715 C 0.55406 0.30168 0.97818 0.0
C716 C 0.5514 0.2889 0.95129 0.0
C717 C 0.52466 0.27529 0.94291 0.0
C718 C 0.52235 0.26314 0.91763 0.0
C719 C 0.54658 0.26458 0.90045 0.0
C720 C 0.57315 0.27825 0.90851 0.0
C721 C 0.57559 0.29043 0.93379 0.0
H722 H 0.54474 0.25516 0.88089 0.0
H723 H 0.57076 0.37235 0.12653 0.0
H724 H 0.97381 0.67895 0.45039 0.0
H725 H 0.99156 0.72777 0.44966 0.0
H726 H 0.90435 0.75281 0.42391 0.0
H727 H 0.88675 0.70403 0.42375 0.0
H728 H 0.94805 0.78325 0.39953 0.0
H729 H 0.92333 0.75512 0.48876 0.0
H730 H 0.92641 0.72565 0.52871 0.0
H731 H 0.02006 0.74575 0.53625 0.0
H732 H 0.01761 0.77505 0.49609 0.0
H733 H 0.94188 0.92229 0.4491 0.0
H734 H 0.93458 0.87284 0.4377 0.0
H735 H 0.02389 0.85705 0.46522 0.0
H736 H 0.03104 0.90624 0.47737 0.0
H737 H 0.98392 0.82133 0.48647 0.0
H738 H 1.00665 0.85431 0.39932 0.0
H739 H 1.00212 0.88436 0.35991 0.0
H740 H 0.91105 0.85613 0.34881 0.0
H741 H 0.91489 0.8262 0.38839 0.0
C742 C 0.95861 0.6948 0.44404 0.0
C743 C 0.92878 0.68773 0.43749 0.0
C744 C 0.96872 0.72268 0.44379 0.0
C745 C 0.94911 0.74391 0.43713 0.0
C746 C 0.91979 0.73675 0.42921 0.0
C747 C 0.9097 0.70892 0.42942 0.0
C748 C 0.95834 0.77369 0.44035 0.0
C749 C 0.95577 0.79166 0.41854 0.0
C750 C 0.96887 0.78449 0.46506 0.0
C751 C 0.97036 0.76699 0.48926 0.0
C752 C 0.94463 0.75307 0.49882 0.0
C753 C 0.94625 0.73643 0.52152 0.0
C754 C 0.97343 0.73376 0.53496 0.0
C755 C 0.99903 0.7478 0.52578 0.0
C756 C 0.99754 0.76442 0.50306 0.0
C757 C 0.95999 0.90829 0.45262 0.0
C758 C 0.98701 0.91816 0.46418 0.0
C759 C 0.95591 0.88011 0.44584 0.0
C760 C 0.9788 0.86133 0.45042 0.0
C761 C 1.006 0.87124 0.46142 0.0
C762 C 1.01011 0.89939 0.46817 0.0
C763 C 0.97354 0.83104 0.44568 0.0
C764 C 0.97669 0.81294 0.4673 0.0
C765 C 0.96338 0.82023 0.42084 0.0
C766 C 0.961 0.83817 0.39697 0.0
C767 C 0.98558 0.85467 0.38861 0.0
C768 C 0.98315 0.87166 0.36621 0.0
C769 C 0.9563 0.8722 0.3519 0.0
C770 C 0.93183 0.8557 0.35993 0.0
C771 C 0.93414 0.8387 0.38233 0.0
H772 H 0.95447 0.88536 0.33456 0.0
H773 H 0.97464 0.72088 0.55254 0.0
H774 H 0.44502 0.84292 0.72551 0.0
H775 H 0.46334 0.8005 0.70542 0.0
H776 H 0.38512 0.79433 0.65486 0.0
H777 H 0.36534 0.83512 0.67654 0.0
H778 H 0.39716 0.74544 0.66553 0.0
H779 H 0.45968 0.82085 0.63464 0.0
H780 H 0.4937 0.86217 0.63812 0.0
H781 H 0.55737 0.81414 0.68111 0.0
H782 H 0.52355 0.7726 0.67817 0.0
H783 H 0.46335 0.65822 0.56583 0.0
H784 H 0.44393 0.6993 0.58855 0.0
H785 H 0.50451 0.68681 0.6542 0.0
H786 H 0.52343 0.64541 0.63201 0.0
H787 H 0.50194 0.7444 0.63542 0.0
H788 H 0.43686 0.668 0.6631 0.0
H789 H 0.40228 0.62767 0.65546 0.0
H790 H 0.34234 0.67992 0.61279 0.0
H791 H 0.37682 0.7205 0.6198 0.0
C792 C 0.43125 0.83236 0.71054 0.0
C793 C 0.40362 0.84318 0.70267 0.0
C794 C 0.44215 0.80814 0.69857 0.0
C795 C 0.42625 0.79427 0.6778 0.0
C796 C 0.39826 0.80448 0.67053 0.0
C797 C 0.38706 0.82831 0.68284 0.0
C798 C 0.43862 0.76935 0.66355 0.0
C799 C 0.41999 0.74557 0.6587 0.0
C800 C 0.46856 0.7688 0.65463 0.0
C801 C 0.48895 0.79371 0.65643 0.0
C802 C 0.48085 0.81915 0.64499 0.0
C803 C 0.50011 0.84261 0.64684 0.0
C804 C 0.52764 0.84081 0.65989 0.0
C805 C 0.53601 0.81552 0.67105 0.0
C806 C 0.51682 0.79201 0.66928 0.0
C807 C 0.47264 0.66428 0.58505 0.0
C808 C 0.49499 0.64839 0.59703 0.0
C809 C 0.46143 0.68775 0.59808 0.0
C810 C 0.47264 0.69623 0.6232 0.0
C811 C 0.49544 0.6808 0.63488 0.0
C812 C 0.50621 0.65704 0.62215 0.0
C813 C 0.46045 0.72092 0.63748 0.0
C814 C 0.47912 0.74453 0.64229 0.0
C815 C 0.43043 0.72157 0.6458 0.0
C816 C 0.40959 0.69722 0.64173 0.0
C817 C 0.41644 0.67084 0.65187 0.0
C818 C 0.39683 0.64794 0.6477 0.0
C819 C 0.37016 0.65121 0.63358 0.0
C820 C 0.36302 0.67741 0.62368 0.0
C821 C 0.38259 0.70037 0.62776 0.0
H822 H 0.355 0.63346 0.63038 0.0
H823 H 0.54252 0.85898 0.6613 0.0
H824 H 0.90081 0.96152 0.80743 0.0
H825 H 0.91847 0.98223 0.76607 0.0
H826 H 0.92097 0.90038 0.73038 0.0
H827 H 0.90375 0.87939 0.77231 0.0
H828 H 0.96671 0.93066 0.71285 0.0
H829 H 0.86258 0.94737 0.71802 0.0
H830 H 0.81633 0.96326 0.73838 0.0
H831 H 0.85287 0.0471 0.74255 0.0
H832 H 0.89953 0.03163 0.72255 0.0
H833 H 0.97048 0.98154 0.57924 0.0
H834 H 0.95503 0.95915 0.62067 0.0
H835 H 0.96004 0.03888 0.66072 0.0
H836 H 0.97568 0.06149 0.61922 0.0
H837 H 0.91001 1.0088 0.6752 0.0
H838 H 0.0144 0.99122 0.66955 0.0
H839 H 0.05986 0.97473 0.64823 0.0
H840 H 0.02148 0.89159 0.64364 0.0
H841 H 0.97559 0.90767 0.66459 0.0
C842 C 0.9052 0.94781 0.79085 0.0
C843 C 0.90045 0.91869 0.79332 0.0
C844 C 0.91521 0.95977 0.76699 0.0
C845 C 0.92041 0.94315 0.74447 0.0
C846 C 0.91698 0.9139 0.74719 0.0
C847 C 0.90718 0.90184 0.77129 0.0
C848 C 0.9288 0.95647 0.71822 0.0
C849 C 0.95396 0.94745 0.70451 0.0
C850 C 0.91274 0.97886 0.70712 0.0
C851 C 0.88466 0.98828 0.71901 0.0
C852 C 0.86083 0.96916 0.72344 0.0
C853 C 0.83453 0.9781 0.7349 0.0
C854 C 0.83169 1.00616 0.74181 0.0
C855 C 0.85512 0.02536 0.73721 0.0
C856 C 0.88149 0.01653 0.7258 0.0
C857 C 0.96819 0.99446 0.59677 0.0
C858 C 0.97442 0.02349 0.59563 0.0
C859 C 0.95948 0.9815 0.62064 0.0
C860 C 0.9566 0.9971 0.64421 0.0
C861 C 0.9621 0.02619 0.643 0.0
C862 C 0.97109 0.03916 0.61915 0.0
C863 C 0.94795 0.98309 0.66999 0.0
C864 C 0.92271 0.99198 0.68357 0.0
C865 C 0.9638 0.96048 0.68082 0.0
C866 C 0.99144 0.95071 0.6684 0.0
C867 C 0.01556 0.96946 0.66381 0.0
C868 C 0.04142 0.96018 0.65182 0.0
C869 C 0.04353 0.93215 0.64452 0.0
C870 C 0.0198 0.91331 0.64927 0.0
C871 C 0.99387 0.92249 0.66122 0.0
H872 H 0.06356 0.92501 0.63524 0.0
H873 H 0.81131 1.01304 0.75068 0.0
H874 H 0.64913 0.14589 0.33031 0.0
H875 H 0.62862 0.12397 0.2897 0.0
H876 H 0.64045 0.20207 0.24814 0.0
H877 H 0.65941 0.22426 0.28914 0.0
H878 H 0.5918 0.18204 0.23233 0.0
H879 H 0.68659 0.14015 0.24018 0.0
H880 H 0.72712 0.11462 0.26175 0.0
H881 H 0.66864 0.04266 0.2704 0.0
H882 H 0.62764 0.0679 0.24918 0.0
H883 H 0.56839 0.12538 0.10239 0.0
H884 H 0.593 0.14518 0.14216 0.0
H885 H 0.56596 0.07232 0.18684 0.0
H886 H 0.5418 0.05208 0.14691 0.0
H887 H 0.62259 0.08931 0.20044 0.0
H888 H 0.52873 0.13402 0.18764 0.0
H889 H 0.49346 0.16005 0.16025 0.0
H890 H 0.55538 0.23009 0.15782 0.0
H891 H 0.5919 0.20379 0.18389 0.0
C892 C 0.64755 0.15831 0.31244 0.0
C893 C 0.65602 0.18685 0.31304 0.0
C894 C 0.63593 0.1457 0.28904 0.0
C895 C 0.63326 0.16103 0.26529 0.0
C896 C 0.64202 0.18954 0.26593 0.0
C897 C 0.65302 0.20227 0.28945 0.0
C898 C 0.62066 0.14777 0.24006 0.0
C899 C 0.599 0.16194 0.22529 0.0
C900 C 0.62938 0.12127 0.23059 0.0
C901 C 0.65397 0.10602 0.24334 0.0
C902 C 0.68232 0.11895 0.24686 0.0
C903 C 0.70538 0.10452 0.25899 0.0
C904 C 0.70043 0.07707 0.2675 0.0
C905 C 0.67243 0.06395 0.26383 0.0
C906 C 0.64927 0.07829 0.25174 0.0
C907 C 0.56772 0.11345 0.12062 0.0
C908 C 0.55278 0.08715 0.12134 0.0
C909 C 0.58183 0.12487 0.14346 0.0
C910 C 0.58108 0.11055 0.16785 0.0
C911 C 0.56689 0.08394 0.16843 0.0
C912 C 0.55292 0.07241 0.14553 0.0
C913 C 0.59404 0.12369 0.19286 0.0
C914 C 0.61559 0.10945 0.20758 0.0
C915 C 0.58576 0.15042 0.20194 0.0
C916 C 0.56319 0.16679 0.18753 0.0
C917 C 0.53493 0.15491 0.18117 0.0
C918 C 0.51471 0.16972 0.16582 0.0
C919 C 0.52204 0.1968 0.15744 0.0
C920 C 0.54971 0.20911 0.16433 0.0
C921 C 0.57027 0.19419 0.17926 0.0
H922 H 0.50631 0.20823 0.14557 0.0
H923 H 0.71832 0.06593 0.27689 0.0
H924 H 0.48896 0.61007 0.19423 0.0
H925 H 0.50042 0.61828 0.24166 0.0
H926 H 0.41701 0.57706 0.26233 0.0
H927 H 0.40562 0.56907 0.21505 0.0
H928 H 0.42611 0.62602 0.28932 0.0
H929 H 0.48192 0.54391 0.26924 0.0
H930 H 0.51879 0.51691 0.24487 0.0
H931 H 0.58794 0.57651 0.26777 0.0
H932 H 0.55137 0.60407 0.292 0.0
H933 H 0.44228 0.58773 0.42359 0.0
H934 H 0.43542 0.59106 0.37554 0.0
H935 H 0.52296 0.63007 0.3689 0.0
H936 H 0.53036 0.62598 0.41702 0.0
H937 H 0.5154 0.58837 0.33391 0.0
H938 H 0.46056 0.66771 0.35837 0.0
H939 H 0.42377 0.69445 0.38306 0.0
H940 H 0.353 0.64083 0.35217 0.0
H941 H 0.3894 0.61349 0.32758 0.0
C942 C 0.47334 0.60262 0.20905 0.0
C943 C 0.44665 0.58874 0.20141 0.0
C944 C 0.47982 0.60731 0.23601 0.0
C945 C 0.4596 0.59815 0.25549 0.0
C946 C 0.43287 0.58433 0.24763 0.0
C947 C 0.42646 0.57962 0.22074 0.0
C948 C 0.46604 0.60291 0.28413 0.0
C949 C 0.44551 0.61764 0.29915 0.0
C950 C 0.49187 0.59277 0.29671 0.0
C951 C 0.51385 0.57622 0.28215 0.0
C952 C 0.50494 0.55139 0.26887 0.0
C953 C 0.52579 0.53596 0.25513 0.0
C954 C 0.55567 0.54504 0.2547 0.0
C955 C 0.56478 0.56953 0.26808 0.0
C956 C 0.544 0.58506 0.28183 0.0
C957 C 0.46002 0.59715 0.41193 0.0
C958 C 0.48691 0.60648 0.42409 0.0
C959 C 0.45596 0.59929 0.38448 0.0
C960 C 0.47859 0.61103 0.36864 0.0
C961 C 0.50518 0.62103 0.38078 0.0
C962 C 0.50926 0.61889 0.40828 0.0
C963 C 0.47511 0.61099 0.33929 0.0
C964 C 0.4962 0.59715 0.32409 0.0
C965 C 0.4498 0.622 0.32654 0.0
C966 C 0.42777 0.63842 0.34127 0.0
C967 C 0.43718 0.66148 0.35699 0.0
C968 C 0.41638 0.67677 0.37094 0.0
C969 C 0.38607 0.66932 0.36922 0.0
C970 C 0.37649 0.64658 0.35349 0.0
C971 C 0.39719 0.6312 0.33952 0.0
H972 H 0.37 0.68119 0.38004 0.0
H973 H 0.57179 0.53306 0.24406 0.0
H974 H 0.03313 0.51685 0.64264 0.0
H975 H 0.02704 0.51512 0.69109 0.0
H976 H 0.11059 0.56122 0.7017 0.0
H977 H 0.11673 0.56261 0.65328 0.0
H978 H 0.10692 0.51612 0.73391 0.0
H979 H 0.04486 0.5928 0.71071 0.0
H980 H 1.00447 0.6159 0.68646 0.0
H981 H 0.94047 0.55646 0.71751 0.0
H982 H 0.98056 0.53278 0.74168 0.0
H983 H 0.09683 0.55761 0.8686 0.0
H984 H 0.10157 0.55382 0.8205 0.0
H985 H 0.01499 0.51224 0.81528 0.0
H986 H 1.00942 0.51723 0.86329 0.0
H987 H 0.01894 0.55236 0.78004 0.0
H988 H 0.08043 0.47693 0.80518 0.0
H989 H 0.12069 0.45375 0.82952 0.0
H990 H 0.18556 0.51 0.79496 0.0
H991 H 0.14565 0.53378 0.77068 0.0
C992 C 0.04988 0.52688 0.65545 0.0
C993 C 0.07516 0.54016 0.64465 0.0
C994 C 0.04645 0.52589 0.683 0.0
C995 C 0.06827 0.53823 0.69996 0.0
C996 C 0.09351 0.55161 0.68896 0.0
C997 C 0.09691 0.55258 0.66143 0.0
C998 C 0.06519 0.53667 0.72918 0.0
C999 C 0.08786 0.52431 0.74407 0.0
C1000 C 0.03988 0.5466 0.74227 0.0
C1001 C 0.01575 0.56085 0.72778 0.0
C1002 C 0.02221 0.58452 0.71219 0.0
C1003 C 0.99936 0.59774 0.69849 0.0
C1004 C 0.96993 0.58761 0.70038 0.0
C1005 C 0.96328 0.56426 0.71603 0.0
C1006 C 0.98605 0.55095 0.72975 0.0
C1007 C 0.07879 0.54762 0.85724 0.0
C1008 C 0.05266 0.53787 0.8698 0.0
C1009 C 0.08169 0.54517 0.82975 0.0
C1010 C 0.05873 0.53253 0.81429 0.0
C1011 C 0.033 0.52202 0.82684 0.0
C1012 C 0.02999 0.52464 0.85433 0.0
C1013 C 0.06079 0.53196 0.78491 0.0
C1014 C 0.03793 0.54395 0.76994 0.0
C1015 C 0.0859 0.52161 0.77176 0.0
C1016 C 0.10999 0.50729 0.78627 0.0
C1017 C 0.10325 0.4845 0.80292 0.0
C1018 C 0.12602 0.47122 0.81668 0.0
C1019 C 0.15565 0.48043 0.81383 0.0
C1020 C 0.16259 0.5029 0.79716 0.0
C1021 C 0.13991 0.51626 0.78337 0.0
H1022 H 0.17324 0.47012 0.8245 0.0
H1023 H 0.95228 0.59788 0.68976 0.0
H1024 H 0.79406 0.97757 0.89681 0.0
H1025 H 0.75405 0.99374 0.92491 0.0
H1026 H 0.72941 0.90832 0.94355 0.0
H1027 H 0.76913 0.89214 0.91431 0.0
H1028 H 0.68109 0.93405 0.93504 0.0
H1029 H 0.76457 0.95665 0.99039 0.0
H1030 H 0.81428 0.97612 1.00296 0.0
H1031 H 0.78604 0.05866 0.98436 0.0
H1032 H 0.73624 0.03965 0.97132 0.0
H1033 H 0.57879 0.97982 0.03412 0.0
H1034 H 0.62167 0.95929 1.01256 0.0
H1035 H 0.64544 0.03921 0.97853 0.0
H1036 H 0.60262 0.05988 1.00003 0.0
H1037 H 0.69462 1.01326 0.99829 0.0
H1038 H 0.60961 0.98685 0.94209 0.0
H1039 H 0.56009 0.9647 0.93319 0.0
H1040 H 0.59233 0.88553 0.95822 0.0
H1041 H 0.64191 0.90722 0.96779 0.0
C1042 C 0.78051 0.96225 0.90737 0.0
C1043 C 0.78513 0.93363 0.90381 0.0
C1044 C 0.75755 0.97152 0.92356 0.0
C1045 C 0.73866 0.95243 0.93702 0.0
C1046 C 0.74356 0.92365 0.93365 0.0
C1047 C 0.76649 0.91435 0.91714 0.0
C1048 C 0.71319 0.96268 0.95342 0.0
C1049 C 0.6843 0.95104 0.9492 0.0
C1050 C 0.71679 0.98511 0.97189 0.0
C1051 C 0.74673 0.99668 0.97965 0.0
C1052 C 0.76902 0.97893 0.98878 0.0
C1053 C 0.79721 0.98989 0.99602 0.0
C1054 C 0.80334 0.0186 0.9944 0.0
C1055 C 0.78126 0.03642 0.98558 0.0
C1056 C 0.75304 0.02557 0.97828 0.0
C1057 C 0.59318 0.99312 0.02215 0.0
C1058 C 0.58704 0.0216 0.01888 0.0
C1059 C 0.6177 0.98126 1.00967 0.0
C1060 C 0.63684 0.99753 0.99357 0.0
C1061 C 0.63113 0.02609 0.99075 0.0
C1062 C 0.60651 0.03792 1.00307 0.0
C1063 C 0.66268 0.98491 0.97955 0.0
C1064 C 0.69159 0.99615 0.98422 0.0
C1065 C 0.65915 0.96175 0.96196 0.0
C1066 C 0.62941 0.94872 0.95591 0.0
C1067 C 0.60609 0.96476 0.94589 0.0
C1068 C 0.57803 0.95229 0.94069 0.0
C1069 C 0.57307 0.92377 0.94515 0.0
C1070 C 0.59619 0.90762 0.95479 0.0
C1071 C 0.62428 0.91999 0.96011 0.0
H1072 H 0.55132 0.91419 0.9411 0.0
H1073 H 0.82517 0.02704 1.00003 0.0
H1074 H 0.71222 0.14673 0.38486 0.0
H1075 H 0.75496 0.1266 0.40685 0.0
H1076 H 0.78711 0.20885 0.43055 0.0
H1077 H 0.74532 0.22942 0.40682 0.0
H1078 H 0.83234 0.1817 0.41607 0.0
H1079 H 0.75304 0.15839 0.475 0.0
H1080 H 0.70378 0.13946 0.4884 0.0
H1081 H 0.72716 0.05774 0.46196 0.0
H1082 H 0.77644 0.07625 0.44807 0.0
H1083 H 0.93946 0.13226 0.50917 0.0
H1084 H 0.8954 0.15313 0.48947 0.0
H1085 H 0.86912 0.07382 0.45425 0.0
H1086 H 0.91331 0.05268 0.47399 0.0
H1087 H 0.82118 0.10007 0.47582 0.0
H1088 H 0.90133 0.12545 0.41682 0.0
H1089 H 0.95089 0.14557 0.40583 0.0
H1090 H 0.92564 0.22539 0.4358 0.0
H1091 H 0.87602 0.20565 0.44727 0.0
C1092 C 0.72843 0.16075 0.39445 0.0
C1093 C 0.72503 0.18994 0.39368 0.0
C1094 C 0.75283 0.14904 0.40752 0.0
C1095 C 0.7744 0.16598 0.42093 0.0
C1096 C 0.77094 0.19511 0.42051 0.0
C1097 C 0.74667 0.20691 0.40712 0.0
C1098 C 0.80082 0.15334 0.43466 0.0
C1099 C 0.82969 0.16414 0.42945 0.0
C1100 C 0.79792 0.13 0.45189 0.0
C1101 C 0.76833 0.11877 0.46027 0.0
C1102 C 0.7476 0.13642 0.47187 0.0
C1103 C 0.71968 0.12576 0.47958 0.0
C1104 C 0.71231 0.09743 0.47597 0.0
C1105 C 0.73288 0.07968 0.46471 0.0
C1106 C 0.76082 0.09024 0.45694 0.0
C1107 C 0.92432 0.11913 0.49732 0.0
C1108 C 0.93016 0.09069 0.49318 0.0
C1109 C 0.89909 0.1312 0.48592 0.0
C1110 C 0.87891 0.11524 0.47002 0.0
C1111 C 0.88428 0.08669 0.46634 0.0
C1112 C 0.90966 0.0746 0.47763 0.0
C1113 C 0.85245 0.1284 0.45711 0.0
C1114 C 0.82365 0.11768 0.46247 0.0
C1115 C 0.85538 0.15203 0.44033 0.0
C1116 C 0.88506 0.16401 0.43312 0.0
C1117 C 0.90641 0.14725 0.42121 0.0
C1118 C 0.9345 0.1586 0.41487 0.0
C1119 C 0.94143 0.18673 0.42017 0.0
C1120 C 0.92025 0.2036 0.43173 0.0
C1121 C 0.89212 0.19236 0.43813 0.0
H1122 H 0.9632 0.19547 0.41526 0.0
H1123 H 0.69069 0.08921 0.48196 0.0
H1124 H 0.33097 0.65953 0.12071 0.0
H1125 H 0.28021 0.65656 0.10237 0.0
H1126 H 0.30425 0.58753 0.05253 0.0
H1127 H 0.35526 0.59023 0.07111 0.0
H1128 H 0.26997 0.6327 0.02682 0.0
H1129 H 0.26824 0.57049 0.10221 0.0
H1130 H 0.27703 0.5581 0.14911 0.0
H1131 H 0.21927 0.62278 0.17407 0.0
H1132 H 0.21052 0.63585 0.1273 0.0
H1133 H 0.12523 0.58056 0.99032 0.0
H1134 H 0.17715 0.58925 1.00354 0.0
H1135 H 0.14916 0.64119 0.06839 0.0
H1136 H 0.09704 0.63176 0.0558 0.0
H1137 H 0.18643 0.60567 0.08607 0.0
H1138 H 0.18629 0.66815 1.01269 0.0
H1139 H 0.17764 0.68337 0.96657 0.0
H1140 H 0.23834 0.62266 0.9384 0.0
H1141 H 0.24705 0.60678 0.98435 0.0
C1142 C 0.32547 0.64385 0.1057 0.0
C1143 C 0.34693 0.62512 0.09723 0.0
C1144 C 0.29653 0.64215 0.09532 0.0
C1145 C 0.28863 0.62184 0.07616 0.0
C1146 C 0.31009 0.60337 0.06728 0.0
C1147 C 0.33902 0.6048 0.07797 0.0
C1148 C 0.25762 0.61951 0.0661 0.0
C1149 C 0.25165 0.62643 0.03957 0.0
C1150 C 0.23384 0.61226 0.08313 0.0
C1151 C 0.23899 0.60434 0.11126 0.0
C1152 C 0.25764 0.58225 0.1177 0.0
C1153 C 0.26258 0.57507 0.14426 0.0
C1154 C 0.24879 0.5897 0.16456 0.0
C1155 C 0.22998 0.61149 0.15833 0.0
C1156 C 0.22501 0.61879 0.1318 0.0
C1157 C 0.13013 0.59424 1.00712 0.0
C1158 C 0.10704 0.60537 0.02211 0.0
C1159 C 0.15987 0.59929 1.0146 0.0
C1160 C 0.16712 0.61601 0.03689 0.0
C1161 C 0.14411 0.62814 0.05118 0.0
C1162 C 0.11434 0.62282 0.04391 0.0
C1163 C 0.19843 0.61892 0.04658 0.0
C1164 C 0.20457 0.61205 0.07316 0.0
C1165 C 0.22226 0.62662 0.02964 0.0
C1166 C 0.2171 0.63609 1.00196 0.0
C1167 C 0.19761 0.65788 0.99665 0.0
C1168 C 0.19273 0.66666 0.97053 0.0
C1169 C 0.20737 0.65394 0.94956 0.0
C1170 C 0.22699 0.63246 0.95467 0.0
C1171 C 0.23192 0.62359 0.98075 0.0
H1172 H 0.20357 0.66077 0.92936 0.0
H1173 H 0.25263 0.5841 0.18511 0.0
H1174 H 0.1884 0.51776 0.61841 0.0
H1175 H 0.24275 0.52324 0.62132 0.0
H1176 H 0.24966 0.48896 0.54214 0.0
H1177 H 0.19534 0.48216 0.53988 0.0
H1178 H 0.29054 0.46854 0.57087 0.0
H1179 H 0.25687 0.56172 0.55809 0.0
H1180 H 0.22858 0.60386 0.56757 0.0
H1181 H 0.2717 0.61185 0.64401 0.0
H1182 H 0.29991 0.56948 0.63516 0.0
H1183 H 0.42989 0.53106 0.53294 0.0
H1184 H 0.37736 0.51762 0.53867 0.0
H1185 H 0.38716 0.52875 0.62347 0.0
H1186 H 0.44014 0.54166 0.61795 0.0
H1187 H 0.33932 0.55915 0.59672 0.0
H1188 H 0.37677 0.4669 0.60534 0.0
H1189 H 0.40642 0.42677 0.59211 0.0
H1190 H 0.35715 0.41974 0.51856 0.0
H1191 H 0.32748 0.46012 0.53117 0.0
C1192 C 0.20163 0.51155 0.60163 0.0
C1193 C 0.18787 0.49979 0.57883 0.0
C1194 C 0.23264 0.51475 0.60325 0.0
C1195 C 0.25037 0.50698 0.58176 0.0
C1196 C 0.23652 0.49511 0.55899 0.0
C1197 C 0.20554 0.49135 0.55762 0.0
C1198 C 0.28334 0.51105 0.58297 0.0
C1199 C 0.30112 0.48847 0.57629 0.0
C1200 C 0.29733 0.53684 0.59065 0.0
C1201 C 0.2802 0.5622 0.59609 0.0
C1202 C 0.2601 0.5723 0.57702 0.0
C1203 C 0.24412 0.59626 0.58227 0.0
C1204 C 0.24825 0.61046 0.60642 0.0
C1205 C 0.26845 0.60078 0.62535 0.0
C1206 C 0.28444 0.57679 0.62023 0.0
C1207 C 0.42097 0.53024 0.55285 0.0
C1208 C 0.43901 0.53743 0.57501 0.0
C1209 C 0.39103 0.52249 0.55608 0.0
C1210 C 0.37853 0.52218 0.58147 0.0
C1211 C 0.39656 0.52881 0.60374 0.0
C1212 C 0.42675 0.53605 0.60056 0.0
C1213 C 0.34614 0.51684 0.58427 0.0
C1214 C 0.32856 0.53919 0.59164 0.0
C1215 C 0.33234 0.49108 0.57671 0.0
C1216 C 0.35005 0.46669 0.56912 0.0
C1217 C 0.37242 0.45696 0.58624 0.0
C1218 C 0.3892 0.43413 0.57888 0.0
C1219 C 0.38371 0.42075 0.55449 0.0
C1220 C 0.36139 0.43014 0.53744 0.0
C1221 C 0.34455 0.45297 0.5447 0.0
H1222 H 0.39673 0.40308 0.54882 0.0
H1223 H 0.23588 0.62902 0.61043 0.0
H1224 H 0.94149 0.85271 0.85599 0.0
H1225 H 0.96 0.81131 0.87801 0.0
H1226 H 0.8736 0.7948 0.91162 0.0
H1227 H 0.85402 0.83493 0.88825 0.0
H1228 H 0.92687 0.79238 0.94923 0.0
H1229 H 0.88869 0.75544 0.86525 0.0
H1230 H 0.88494 0.75387 0.81632 0.0
H1231 H 0.97884 0.74014 0.81157 0.0
H1232 H 0.98322 0.74206 0.86049 0.0
H1233 H 0.95308 0.65832 1.00444 0.0
H1234 H 0.93313 0.69944 0.98269 0.0
H1235 H 1.00052 0.69461 0.92249 0.0
H1236 H 0.01893 0.65228 0.9432 0.0
H1237 H 0.95643 0.70915 0.89816 0.0
H1238 H 0.99799 0.74683 0.97896 0.0
H1239 H 1.00642 0.75145 0.02734 0.0
H1240 H 0.91376 0.76763 0.03816 0.0
H1241 H 0.90471 0.76278 0.98986 0.0
C1242 C 0.92597 0.8402 0.86754 0.0
C1243 C 0.89587 0.84781 0.86987 0.0
C1244 C 0.93687 0.81648 0.88047 0.0
C1245 C 0.91833 0.79976 0.89665 0.0
C1246 C 0.88853 0.80737 0.89947 0.0
C1247 C 0.8774 0.83072 0.88609 0.0
C1248 C 0.92991 0.77422 0.91027 0.0
C1249 C 0.93301 0.77402 0.93811 0.0
C1250 C 0.93899 0.75052 0.89589 0.0
C1251 C 0.93633 0.7492 0.86651 0.0
C1252 C 0.90859 0.75235 0.85377 0.0
C1253 C 0.90634 0.75134 0.82603 0.0
C1254 C 0.93165 0.74699 0.81084 0.0
C1255 C 0.95925 0.74355 0.82336 0.0
C1256 C 0.96163 0.74458 0.85109 0.0
C1257 C 0.96375 0.66612 0.98664 0.0
C1258 C 0.9878 0.65193 0.97576 0.0
C1259 C 0.95243 0.68996 0.9742 0.0
C1260 C 0.96549 0.70113 0.95097 0.0
C1261 C 0.98969 0.68689 0.94024 0.0
C1262 C 1.00043 0.6626 0.95225 0.0
C1263 C 0.95371 0.727 0.9375 0.0
C1264 C 0.95049 0.72737 0.90955 0.0
C1265 C 0.94528 0.7512 0.95179 0.0
C1266 C 0.95062 0.75416 0.98083 0.0
C1267 C 0.97938 0.7512 0.99168 0.0
C1268 C 0.98427 0.75388 0.01908 0.0
C1269 C 0.96062 0.75975 0.03582 0.0
C1270 C 0.93205 0.76304 0.02518 0.0
C1271 C 0.92703 0.76035 0.99779 0.0
H1272 H 0.96446 0.76182 0.05703 0.0
H1273 H 0.92986 0.74621 0.78937 0.0
H1274 H 0.44784 0.68168 0.16633 0.0
H1275 H 0.46899 0.72953 0.16825 0.0
H1276 H 0.44851 0.73972 0.08487 0.0
H1277 H 0.42842 0.69192 0.08267 0.0
H1278 H 0.50082 0.76427 0.09688 0.0
H1279 H 0.40109 0.76099 0.13423 0.0
H1280 H 0.36307 0.74503 0.16624 0.0
H1281 H 0.41765 0.77693 0.2309 0.0
H1282 H 0.45617 0.79277 0.19924 0.0
H1283 H 0.46455 0.90107 0.0684 0.0
H1284 H 0.46228 0.85136 0.07887 0.0
H1285 H 0.50021 0.8689 0.15657 0.0
H1286 H 0.50246 0.91904 0.14621 0.0
H1287 H 0.4495 0.83039 0.15573 0.0
H1288 H 0.54435 0.84259 0.11513 0.0
H1289 H 0.57965 0.85984 0.08134 0.0
H1290 H 0.53228 0.81191 0.02116 0.0
H1291 H 0.49639 0.7947 0.05451 0.0
C1292 C 0.44846 0.69399 0.14833 0.0
C1293 C 0.43614 0.68325 0.12442 0.0
C1294 C 0.46034 0.72134 0.14949 0.0
C1295 C 0.45991 0.7383 0.12678 0.0
C1296 C 0.44901 0.72705 0.10265 0.0
C1297 C 0.43727 0.69982 0.10147 0.0
C1298 C 0.46877 0.76834 0.12808 0.0
C1299 C 0.48968 0.77872 0.1098 0.0
C1300 C 0.45481 0.78713 0.14544 0.0
C1301 C 0.43164 0.77772 0.16443 0.0
C1302 C 0.40506 0.76441 0.15529 0.0
C1303 C 0.38342 0.75541 0.17336 0.0
C1304 C 0.38799 0.75988 0.2006 0.0
C1305 C 0.41418 0.77343 0.20981 0.0
C1306 C 0.43591 0.78241 0.19181 0.0
C1307 C 0.47206 0.89442 0.08784 0.0
C1308 C 0.48358 0.9139 0.10654 0.0
C1309 C 0.47102 0.86602 0.0937 0.0
C1310 C 0.4814 0.85653 0.11835 0.0
C1311 C 0.49226 0.8759 0.13738 0.0
C1312 C 0.49361 0.90441 0.13142 0.0
C1313 C 0.48065 0.82624 0.12385 0.0
C1314 C 0.46129 0.81587 0.14337 0.0
C1315 C 0.49581 0.80746 0.10745 0.0
C1316 C 0.51758 0.81746 0.08733 0.0
C1317 C 0.54134 0.83586 0.09466 0.0
C1318 C 0.56147 0.84561 0.07559 0.0
C1319 C 0.55819 0.837 0.04912 0.0
C1320 C 0.5348 0.81855 0.04168 0.0
C1321 C 0.51458 0.80876 0.06067 0.0
H1322 H 0.57379 0.84459 0.03437 0.0
H1323 H 0.37121 0.75291 0.21456 0.0
H1324 H 0.06992 0.43962 0.60685 0.0
H1325 H 0.05157 0.39095 0.60614 0.0
H1326 H 0.10622 0.37465 0.53819 0.0
H1327 H 0.12438 0.4234 0.53857 0.0
H1328 H 0.04909 0.35021 0.5339 0.0
H1329 H 0.13032 0.35761 0.5981 0.0
H1330 H 0.15627 0.377 0.63787 0.0
H1331 H 0.08209 0.35171 0.68623 0.0
H1332 H 0.05551 0.33251 0.64664 0.0
H1333 H 0.0685 0.20649 0.53213 0.0
H1334 H 0.07561 0.25691 0.53553 0.0
H1335 H 0.02287 0.25741 0.60665 0.0
H1336 H 0.01653 0.2064 0.60395 0.0
H1337 H 0.07229 0.291 0.61173 0.0
H1338 H 0.99308 0.27895 0.54875 0.0
H1339 H 0.96685 0.25925 0.50927 0.0
H1340 H 0.0354 0.29328 0.45899 0.0
H1341 H 0.06231 0.31284 0.49821 0.0
C1342 C 0.07762 0.42577 0.59148 0.0
C1343 C 0.09862 0.43524 0.57278 0.0
C1344 C 0.06729 0.39796 0.59123 0.0
C1345 C 0.07776 0.37921 0.57226 0.0
C1346 C 0.09791 0.38883 0.553 0.0
C1347 C 0.1084 0.41658 0.55334 0.0
C1348 C 0.06878 0.34924 0.5731 0.0
C1349 C 0.05429 0.33719 0.55082 0.0
C1350 C 0.07476 0.33254 0.59556 0.0
C1351 C 0.09079 0.34393 0.61937 0.0
C1352 C 0.11944 0.3564 0.61718 0.0
C1353 C 0.13428 0.36732 0.63969 0.0
C1354 C 0.1208 0.36567 0.66455 0.0
C1355 C 0.09248 0.35302 0.66695 0.0
C1356 C 0.07753 0.34211 0.64449 0.0
C1357 C 0.05878 0.21716 0.54878 0.0
C1358 C 0.04208 0.20235 0.56788 0.0
C1359 C 0.06252 0.24609 0.55047 0.0
C1360 C 0.04934 0.26095 0.57108 0.0
C1361 C 0.03304 0.24631 0.59048 0.0
C1362 C 0.02931 0.21722 0.58883 0.0
C1363 C 0.05312 0.29177 0.57227 0.0
C1364 C 0.06663 0.30404 0.59493 0.0
C1365 C 0.04607 0.3087 0.5502 0.0
C1366 C 0.02983 0.29721 0.52648 0.0
C1367 C 1.00268 0.28208 0.5293 0.0
C1368 C 0.98767 0.27096 0.50696 0.0
C1369 C 0.99948 0.27497 0.48164 0.0
C1370 C 0.02629 0.29018 0.47861 0.0
C1371 C 0.04141 0.30133 0.50089 0.0
H1372 H 0.98783 0.26633 0.46437 0.0
H1373 H 0.13233 0.37413 0.68196 0.0
H1374 H 0.61701 0.2791 0.44391 0.0
H1375 H 0.60176 0.3189 0.47098 0.0
H1376 H 0.65902 0.37396 0.42536 0.0
H1377 H 0.6746 0.33403 0.39869 0.0
H1378 H 0.65983 0.39161 0.4753 0.0
H1379 H 0.58308 0.36611 0.41187 0.0
H1380 H 0.54653 0.33457 0.38897 0.0
H1381 H 0.50122 0.3201 0.46257 0.0
H1382 H 0.53776 0.35129 0.48597 0.0
H1383 H 0.53711 0.50267 0.49074 0.0
H1384 H 0.55753 0.46167 0.46922 0.0
H1385 H 0.60207 0.44027 0.54238 0.0
H1386 H 0.58144 0.48126 0.56418 0.0
H1387 H 0.55101 0.40642 0.47852 0.0
H1388 H 0.66998 0.41031 0.52521 0.0
H1389 H 0.70694 0.44517 0.54269 0.0
H1390 H 0.66808 0.50859 0.49455 0.0
H1391 H 0.63118 0.47405 0.4765 0.0
C1392 C 0.62696 0.29959 0.44021 0.0
C1393 C 0.64733 0.30341 0.41947 0.0
C1394 C 0.61798 0.32246 0.4555 0.0
C1395 C 0.62878 0.34978 0.45009 0.0
C1396 C 0.65027 0.35328 0.43011 0.0
C1397 C 0.65929 0.33039 0.41489 0.0
C1398 C 0.61642 0.37478 0.464 0.0
C1399 C 0.63601 0.39465 0.47617 0.0
C1400 C 0.58535 0.37949 0.46472 0.0
C1401 C 0.56333 0.36079 0.45071 0.0
C1402 C 0.56545 0.35604 0.4232 0.0
C1403 C 0.54472 0.33826 0.41013 0.0
C1404 C 0.52162 0.32528 0.42432 0.0
C1405 C 0.51916 0.33013 0.45161 0.0
C1406 C 0.53986 0.34787 0.46479 0.0
C1407 C 0.55116 0.48923 0.50237 0.0
C1408 C 0.55753 0.49541 0.5293 0.0
C1409 C 0.56282 0.46567 0.48999 0.0
C1410 C 0.5816 0.44778 0.504 0.0
C1411 C 0.5879 0.45378 0.53096 0.0
C1412 C 0.57593 0.4772 0.54347 0.0
C1413 C 0.59435 0.4229 0.49034 0.0
C1414 C 0.57481 0.40314 0.47805 0.0
C1415 C 0.62547 0.41868 0.48903 0.0
C1416 C 0.64756 0.43963 0.49978 0.0
C1417 C 0.66935 0.43168 0.51833 0.0
C1418 C 0.6903 0.45139 0.52833 0.0
C1419 C 0.68977 0.4791 0.51982 0.0
C1420 C 0.66836 0.48715 0.50122 0.0
C1421 C 0.64739 0.46752 0.49115 0.0
H1422 H 0.70599 0.49432 0.52759 0.0
H1423 H 0.50559 0.31152 0.41417 0.0
loop_
_geom_bond_atom_site_label_1
_geom_bond_atom_site_label_2
_geom_bond_distance
_geom_bond_site_symmetry_2
_ccdc_geom_bond_type
H0 C3 0.929 . S
H1 C6 0.929 . S
H2 C8 0.930 . S
C3 H0 0.929 . S
C3 C4 1.398 . S
C3 C5 1.396 . S
C4 C3 1.398 . S
C4 C8 1.407 . S
C5 C3 1.396 . S
C5 C6 1.394 . S
C6 H1 0.929 . S
C6 C5 1.394 . S
C6 C7 1.382 . S
C7 C6 1.382 . S
C7 C8 1.392 . S
C7 N9 1.420 . S
C8 H2 0.930 . S
C8 C4 1.407 . S
C8 C7 1.392 . S
N9 C7 1.420 . S
N9 C10 1.244 . S
C10 N9 1.244 . S
H11 C14 0.929 . S
H12 C17 0.929 . S
H13 C19 0.930 . S
C14 H11 0.929 . S
C14 C15 1.398 . S
C14 C16 1.396 . S
C15 C14 1.398 . S
C15 C19 1.407 . S
C16 C14 1.396 . S
C16 C17 1.394 . S
C17 H12 0.929 . S
C17 C16 1.394 . S
C17 C18 1.382 . S
C18 C17 1.382 . S
C18 C19 1.392 . S
C18 N20 1.420 . S
C19 H13 0.930 . S
C19 C15 1.407 . S
C19 C18 1.392 . S
N20 C18 1.420 . S
N20 C21 1.244 . S
C21 N20 1.244 . S
H22 C25 0.929 . S
H23 C28 0.929 . S
H24 C30 0.930 . S
C25 H22 0.929 . S
C25 C26 1.398 . S
C25 C27 1.396 . S
C26 C25 1.398 . S
C26 C30 1.407 . S
C27 C25 1.396 . S
C27 C28 1.394 . S
C28 H23 0.929 . S
C28 C27 1.394 . S
C28 C29 1.382 . S
C29 C28 1.382 . S
C29 C30 1.392 . S
C29 N31 1.420 . S
C30 H24 0.930 . S
C30 C26 1.407 . S
C30 C29 1.392 . S
N31 C29 1.420 . S
N31 C32 1.244 . S
C32 N31 1.244 . S
H33 C36 0.929 . S
H34 C39 0.929 . S
H35 C41 0.930 . S
C36 H33 0.929 . S
C36 C37 1.398 . S
C36 C38 1.396 . S
C37 C36 1.398 . S
C37 C41 1.407 . S
C38 C36 1.396 . S
C38 C39 1.394 . S
C39 H34 0.929 . S
C39 C38 1.394 . S
C39 C40 1.382 . S
C40 C39 1.382 . S
C40 C41 1.392 . S
C40 N42 1.420 . S
C41 H35 0.930 . S
C41 C37 1.407 . S
C41 C40 1.392 . S
N42 C40 1.420 . S
N42 C43 1.244 . S
C43 N42 1.244 . S
H44 C47 0.929 . S
H45 C50 0.929 . S
H46 C52 0.930 . S
C47 H44 0.929 . S
C47 C48 1.398 . S
C47 C49 1.396 . S
C48 C47 1.398 . S
C48 C52 1.407 . S
C49 C47 1.396 . S
C49 C50 1.394 . S
C50 H45 0.929 . S
C50 C49 1.394 . S
C50 C51 1.382 . S
C51 C50 1.382 . S
C51 C52 1.392 . S
C51 N53 1.420 . S
C52 H46 0.930 . S
C52 C48 1.407 . S
C52 C51 1.392 . S
N53 C51 1.420 . S
N53 C54 1.244 . S
C54 N53 1.244 . S
H55 C58 0.929 . S
H56 C61 0.929 . S
H57 C63 0.930 . S
C58 H55 0.929 . S
C58 C59 1.398 . S
C58 C60 1.396 . S
C59 C58 1.398 . S
C59 C63 1.407 . S
C60 C58 1.396 . S
C60 C61 1.394 . S
C61 H56 0.929 . S
C61 C60 1.394 . S
C61 C62 1.382 . S
C62 C61 1.382 . S
C62 C63 1.392 . S
C62 N64 1.420 . S
C63 H57 0.930 . S
C63 C59 1.407 . S
C63 C62 1.392 . S
N64 C62 1.420 . S
N64 C65 1.244 . S
C65 N64 1.244 . S
H66 C69 0.929 . S
H67 C72 0.929 . S
H68 C74 0.930 . S
C69 H66 0.929 . S
C69 C70 1.398 . S
C69 C71 1.396 . S
C70 C69 1.398 . S
C70 C74 1.407 . S
C71 C69 1.396 . S
C71 C72 1.394 . S
C72 H67 0.929 . S
C72 C71 1.394 . S
C72 C73 1.382 . S
C73 C72 1.382 . S
C73 C74 1.392 . S
C73 N75 1.420 . S
C74 H68 0.930 . S
C74 C70 1.407 . S
C74 C73 1.392 . S
N75 C73 1.420 . S
N75 C76 1.244 . S
C76 N75 1.244 . S
H77 C80 0.929 . S
H78 C83 0.929 . S
H79 C85 0.930 . S
C80 H77 0.929 . S
C80 C81 1.398 . S
C80 C82 1.396 . S
C81 C80 1.398 . S
C81 C85 1.407 . S
C82 C80 1.396 . S
C82 C83 1.394 . S
C83 H78 0.929 . S
C83 C82 1.394 . S
C83 C84 1.382 . S
C84 C83 1.382 . S
C84 C85 1.392 . S
C84 N86 1.420 . S
C85 H79 0.930 . S
C85 C81 1.407 . S
C85 C84 1.392 . S
N86 C84 1.420 . S
N86 C87 1.244 . S
C87 N86 1.244 . S
C88 O104 1.251 . S
C88 O106 1.254 . S
N89 C90 1.333 . S
N89 C94 1.307 . S
N89 Zn95 2.020 . S
C90 N89 1.333 . S
C90 C91 1.379 . S
C90 H108 0.952 . S
C91 C90 1.379 . S
C91 C92 1.390 . S
C91 H118 0.949 . S
C92 C91 1.390 . S
C92 C93 1.357 . S
C93 C92 1.357 . S
C93 C94 1.370 . S
C93 H119 0.950 . S
C94 N89 1.307 . S
C94 C93 1.370 . S
C94 H112 0.948 . S
Zn95 N89 2.020 . S
Zn95 O104 2.039 . S
Zn95 O110 2.034 . S
Zn95 O114 2.025 . S
Zn95 O116 2.024 1_455 S
C96 O115 1.246 . S
C96 O116 1.249 . S
N97 C98 1.307 . S
N97 C99 1.333 . S
N97 Zn103 2.016 1_665 S
C98 N97 1.307 . S
C98 C102 1.370 . S
C98 H109 0.948 1_655 S
C99 N97 1.333 . S
C99 C100 1.379 . S
C99 H107 0.952 . S
C100 C99 1.379 . S
C100 C101 1.390 . S
C100 H120 0.949 . S
C101 C100 1.390 . S
C101 C102 1.357 . S
C102 C98 1.370 . S
C102 C101 1.357 . S
C102 H121 0.971 . S
Zn103 N97 2.016 1_445 S
Zn103 O106 2.031 . S
Zn103 O111 2.040 . S
Zn103 O113 2.035 1_455 S
Zn103 O115 2.019 1_455 S
O104 C88 1.251 . S
O104 Zn95 2.039 . S
C105 O110 1.246 . S
C105 O111 1.249 . S
O106 C88 1.254 . S
O106 Zn103 2.031 . S
H107 C99 0.952 . S
H108 C90 0.952 . S
H109 C98 0.948 1_455 S
O110 Zn95 2.034 . S
O110 C105 1.246 . S
O111 Zn103 2.040 . S
O111 C105 1.249 . S
H112 C94 0.948 . S
O113 Zn103 2.035 1_655 S
O113 C117 1.251 . S
O114 Zn95 2.025 . S
O114 C117 1.254 1_455 S
O115 C96 1.246 . S
O115 Zn103 2.019 1_655 S
O116 Zn95 2.024 1_655 S
O116 C96 1.249 . S
C117 O113 1.251 . S
C117 O114 1.254 1_655 S
H118 C91 0.949 . S
H119 C93 0.950 . S
H120 C100 0.949 . S
H121 C102 0.971 . S
C122 O138 1.251 . S
C122 O140 1.254 . S
N123 C124 1.333 . S
N123 C128 1.307 . S
N123 Zn129 2.020 . S
C124 N123 1.333 . S
C124 C125 1.379 . S
C124 H142 0.952 . S
C125 C124 1.379 . S
C125 C126 1.390 1_554 S
C125 H152 0.949 . S
C126 C125 1.390 1_556 S
C126 C127 1.357 . S
C127 C126 1.357 . S
C127 C128 1.370 1_556 S
C127 H153 0.950 . S
C128 N123 1.307 . S
C128 C127 1.370 1_554 S
C128 H146 0.948 1_554 S
Zn129 N123 2.020 . S
Zn129 O138 2.039 . S
Zn129 O144 2.034 . S
Zn129 O148 2.025 . S
Zn129 O150 2.024 1_554 S
C130 O149 1.246 1_556 S
C130 O150 1.249 . S
N131 C132 1.307 . S
N131 C133 1.333 . S
N131 Zn137 2.020 1_565 S
C132 N131 1.307 . S
C132 C136 1.370 . S
C132 H143 0.948 . S
C133 N131 1.333 . S
C133 C134 1.379 . S
C133 H141 0.952 . S
C134 C133 1.379 . S
C134 C135 1.390 . S
C134 H154 0.949 . S
C135 C134 1.390 . S
C135 C136 1.357 . S
C136 C132 1.370 . S
C136 C135 1.357 . S
C136 H155 0.950 . S
Zn137 N131 2.020 1_545 S
Zn137 O140 2.025 . S
Zn137 O145 2.024 . S
Zn137 O147 2.039 . S
Zn137 O149 2.034 . S
O138 C122 1.251 . S
O138 Zn129 2.039 . S
C139 O144 1.246 . S
C139 O145 1.249 . S
O140 C122 1.254 . S
O140 Zn137 2.025 . S
H141 C133 0.952 . S
H142 C124 0.952 . S
H143 C132 0.948 . S
O144 Zn129 2.034 . S
O144 C139 1.246 . S
O145 Zn137 2.024 . S
O145 C139 1.249 . S
H146 C128 0.948 1_556 S
O147 Zn137 2.039 . S
O147 C151 1.251 . S
O148 Zn129 2.025 . S
O148 C151 1.254 . S
O149 C130 1.246 1_554 S
O149 Zn137 2.034 . S
O150 Zn129 2.024 1_556 S
O150 C130 1.249 . S
C151 O147 1.251 . S
C151 O148 1.254 . S
H152 C125 0.949 . S
H153 C127 0.950 . S
H154 C134 0.949 . S
H155 C136 0.950 . S
C156 O172 1.251 . S
C156 O174 1.254 . S
N157 C158 1.333 . S
N157 C162 1.307 . S
N157 Zn163 2.020 . S
C158 N157 1.333 . S
C158 C159 1.379 . S
C158 H176 0.952 . S
C159 C158 1.379 . S
C159 C160 1.390 . S
C159 H186 0.949 . S
C160 C159 1.390 . S
C160 C161 1.357 . S
C161 C160 1.357 . S
C161 C162 1.370 . S
C161 H187 0.950 . S
C162 N157 1.307 . S
C162 C161 1.370 . S
C162 H180 0.948 . S
Zn163 N157 2.020 . S
Zn163 O172 2.039 . S
Zn163 O178 2.034 . S
Zn163 O182 2.025 . S
Zn163 O184 2.024 . S
C164 O183 1.246 . S
C164 O184 1.249 . S
N165 C166 1.307 . S
N165 C167 1.333 . S
N165 Zn171 2.020 . S
C166 N165 1.307 . S
C166 C170 1.370 . S
C166 H177 0.948 . S
C167 N165 1.333 . S
C167 C168 1.379 . S
C167 H175 0.952 . S
C168 C167 1.379 . S
C168 C169 1.390 . S
C168 H188 0.949 . S
C169 C168 1.390 . S
C169 C170 1.357 . S
C170 C166 1.370 . S
C170 C169 1.357 . S
C170 H189 0.950 . S
Zn171 N165 2.020 . S
Zn171 O174 2.025 . S
Zn171 O179 2.024 . S
Zn171 O181 2.039 . S
Zn171 O183 2.034 . S
O172 C156 1.251 . S
O172 Zn163 2.039 . S
C173 O178 1.246 . S
C173 O179 1.249 . S
O174 C156 1.254 . S
O174 Zn171 2.025 . S
H175 C167 0.952 . S
H176 C158 0.952 . S
H177 C166 0.948 . S
O178 Zn163 2.034 . S
O178 C173 1.246 . S
O179 Zn171 2.024 . S
O179 C173 1.249 . S
H180 C162 0.948 . S
O181 Zn171 2.039 . S
O181 C185 1.251 . S
O182 Zn163 2.025 . S
O182 C185 1.254 . S
O183 C164 1.246 . S
O183 Zn171 2.034 . S
O184 Zn163 2.024 . S
O184 C164 1.249 . S
C185 O181 1.251 . S
C185 O182 1.254 . S
H186 C159 0.949 . S
H187 C161 0.950 . S
H188 C168 0.949 . S
H189 C170 0.950 . S
C190 O206 1.253 1_556 S
C190 O208 1.249 1_655 S
N191 C192 1.333 . S
N191 C196 1.307 . S
N191 Zn197 2.020 1_655 S
C192 N191 1.333 . S
C192 C193 1.379 . S
C192 H210 0.952 . S
C193 C192 1.379 . S
C193 C194 1.390 . S
C193 H220 0.949 . S
C194 C193 1.390 . S
C194 C195 1.357 . S
C195 C194 1.357 . S
C195 C196 1.370 . S
C195 H221 0.950 . S
C196 N191 1.307 . S
C196 C195 1.370 . S
C196 H214 0.948 . S
Zn197 N191 2.020 1_455 S
Zn197 O206 2.039 1_455 S
Zn197 O212 2.034 . S
Zn197 O216 2.025 . S
Zn197 O218 2.024 1_455 S
C198 O217 1.246 . S
C198 O218 1.249 1_556 S
N199 C200 1.307 . S
N199 C201 1.333 . S
N199 Zn205 2.020 . S
C200 N199 1.307 . S
C200 C204 1.370 . S
C200 H211 0.948 . S
C201 N199 1.333 . S
C201 C202 1.379 . S
C201 H209 0.952 . S
C202 C201 1.379 . S
C202 C203 1.390 . S
C202 H222 0.949 . S
C203 C202 1.390 . S
C203 C204 1.357 . S
C204 C200 1.370 . S
C204 C203 1.357 . S
C204 H223 0.950 . S
Zn205 N199 2.020 . S
Zn205 O208 2.025 . S
Zn205 O213 2.034 . S
Zn205 O215 2.045 . S
Zn205 O217 2.034 1_455 S
O206 C190 1.253 1_554 S
O206 Zn197 2.039 1_655 S
C207 O212 1.246 . S
C207 O213 1.228 1_554 S
O208 C190 1.249 1_455 S
O208 Zn205 2.025 . S
H209 C201 0.952 . S
H210 C192 0.952 . S
H211 C200 0.948 . S
O212 Zn197 2.034 . S
O212 C207 1.246 . S
O213 Zn205 2.034 . S
O213 C207 1.228 1_556 S
H214 C196 0.948 . S
O215 Zn205 2.045 . S
O215 C219 1.238 1_556 S
O216 Zn197 2.025 . S
O216 C219 1.254 . S
O217 C198 1.246 . S
O217 Zn205 2.034 1_655 S
O218 Zn197 2.024 1_655 S
O218 C198 1.249 1_554 S
C219 O215 1.238 1_554 S
C219 O216 1.254 . S
H220 C193 0.949 . S
H221 C195 0.950 . S
H222 C202 0.949 . S
H223 C204 0.950 . S
H224 C242 0.951 . S
H225 C244 0.951 . S
H226 C246 0.950 . S
H227 C247 0.950 . S
H228 C249 0.950 . S
H229 C252 0.950 . S
H230 C253 0.950 . S
H231 C255 0.950 1_655 S
H232 C256 0.950 . S
H233 C257 0.951 . S
H234 C259 0.951 . S
H235 C261 0.950 . S
H236 C262 0.950 1_655 S
H237 C264 0.950 . S
H238 C267 0.950 . S
H239 C268 0.950 1_565 S
H240 C270 0.950 . S
H241 C271 0.950 . S
C242 H224 0.951 . S
C242 C243 1.366 . S
C242 C244 1.388 . S
C243 C242 1.366 . S
C243 C247 1.385 . S
C244 H225 0.951 . S
C244 C242 1.388 . S
C244 C245 1.366 . S
C245 C244 1.366 . S
C245 C246 1.414 . S
C245 C248 1.499 . S
C246 H226 0.950 . S
C246 C245 1.414 . S
C246 C247 1.374 . S
C247 H227 0.950 . S
C247 C243 1.385 . S
C247 C246 1.374 . S
C248 C245 1.499 . S
C248 C249 1.373 . S
C248 C250 1.389 . S
C249 H228 0.950 . S
C249 C248 1.373 . S
C249 C265 1.377 . S
C250 C248 1.389 . S
C250 C251 1.524 . S
C250 C264 1.377 . S
C251 C250 1.524 . S
C251 C252 1.397 . S
C251 C256 1.363 . S
C252 H229 0.950 . S
C252 C251 1.397 . S
C252 C253 1.334 . S
C253 H230 0.950 . S
C253 C252 1.334 . S
C253 C254 1.287 . S
C254 C253 1.287 . S
C254 C255 1.524 . S
C254 H273 0.913 . S
C255 H231 0.950 1_455 S
C255 C254 1.524 . S
C255 C256 1.415 . S
C256 H232 0.950 . S
C256 C251 1.363 . S
C256 C255 1.415 . S
C257 H233 0.951 . S
C257 C258 1.366 . S
C257 C259 1.388 . S
C258 C257 1.366 . S
C258 C262 1.385 . S
C259 H234 0.951 . S
C259 C257 1.388 . S
C259 C260 1.366 . S
C260 C259 1.366 . S
C260 C261 1.414 . S
C260 C263 1.499 . S
C261 H235 0.950 . S
C261 C260 1.414 . S
C261 C262 1.374 . S
C262 H236 0.950 1_455 S
C262 C258 1.385 . S
C262 C261 1.374 . S
C263 C260 1.499 . S
C263 C264 1.373 . S
C263 C265 1.389 . S
C264 H237 0.950 . S
C264 C250 1.377 . S
C264 C263 1.373 . S
C265 C249 1.377 . S
C265 C263 1.389 . S
C265 C266 1.524 . S
C266 C265 1.524 . S
C266 C267 1.397 . S
C266 C271 1.363 . S
C267 H238 0.950 . S
C267 C266 1.397 . S
C267 C268 1.334 . S
C268 H239 0.950 1_545 S
C268 C267 1.334 . S
C268 C269 1.287 . S
C269 C268 1.287 . S
C269 C270 1.524 . S
C269 H272 0.999 1_545 S
C270 H240 0.950 . S
C270 C269 1.524 . S
C270 C271 1.415 . S
C271 H241 0.950 . S
C271 C266 1.363 . S
C271 C270 1.415 . S
H272 C269 0.999 1_565 S
H273 C254 0.913 . S
H274 C292 0.951 . S
H275 C294 0.951 . S
H276 C296 0.950 . S
H277 C297 0.950 . S
H278 C299 0.938 1_545 S
H279 C302 0.950 . S
H280 C303 0.950 . S
H281 C305 0.950 . S
H282 C306 0.950 . S
H283 C307 0.951 . S
H284 C309 0.951 . S
H285 C311 0.950 . S
H286 C312 0.950 . S
H287 C314 0.950 . S
H288 C317 0.950 . S
H289 C318 0.950 . S
H290 C320 0.950 . S
H291 C321 0.950 . S
C292 H274 0.951 . S
C292 C293 1.366 . S
C292 C294 1.388 . S
C293 C292 1.366 . S
C293 C297 1.385 . S
C294 H275 0.951 . S
C294 C292 1.388 . S
C294 C295 1.366 . S
C295 C294 1.366 . S
C295 C296 1.414 . S
C295 C298 1.499 . S
C296 H276 0.950 . S
C296 C295 1.414 . S
C296 C297 1.374 . S
C297 H277 0.950 . S
C297 C293 1.385 . S
C297 C296 1.374 . S
C298 C295 1.499 . S
C298 C299 1.390 . S
C298 C300 1.389 . S
C299 H278 0.938 1_565 S
C299 C298 1.390 . S
C299 C315 1.372 1_565 S
C300 C298 1.389 . S
C300 C301 1.524 . S
C300 C314 1.377 . S
C301 C300 1.524 . S
C301 C302 1.397 . S
C301 C306 1.363 . S
C302 H279 0.950 . S
C302 C301 1.397 . S
C302 C303 1.334 . S
C303 H280 0.950 . S
C303 C302 1.334 . S
C303 C304 1.287 . S
C304 C303 1.287 . S
C304 C305 1.524 . S
C304 H323 0.913 . S
C305 H281 0.950 . S
C305 C304 1.524 . S
C305 C306 1.415 . S
C306 H282 0.950 . S
C306 C301 1.363 . S
C306 C305 1.415 . S
C307 H283 0.951 . S
C307 C308 1.366 . S
C307 C309 1.388 . S
C308 C307 1.366 . S
C308 C312 1.385 1_545 S
C309 H284 0.951 . S
C309 C307 1.388 . S
C309 C310 1.366 1_545 S
C310 C309 1.366 1_565 S
C310 C311 1.414 . S
C310 C313 1.499 . S
C311 H285 0.950 . S
C311 C310 1.414 . S
C311 C312 1.374 . S
C312 H286 0.950 . S
C312 C308 1.385 1_565 S
C312 C311 1.374 . S
C313 C310 1.499 . S
C313 C314 1.373 . S
C313 C315 1.389 1_565 S
C314 H287 0.950 . S
C314 C300 1.377 . S
C314 C313 1.373 . S
C315 C299 1.372 1_545 S
C315 C313 1.389 1_545 S
C315 C316 1.524 . S
C316 C315 1.524 . S
C316 C317 1.397 . S
C316 C321 1.363 . S
C317 H288 0.950 . S
C317 C316 1.397 . S
C317 C318 1.334 . S
C318 H289 0.950 . S
C318 C317 1.334 . S
C318 C319 1.287 . S
C319 C318 1.287 . S
C319 C320 1.524 . S
C319 H322 0.999 . S
C320 H290 0.950 . S
C320 C319 1.524 . S
C320 C321 1.415 . S
C321 H291 0.950 . S
C321 C316 1.363 . S
C321 C320 1.415 . S
H322 C319 0.999 . S
H323 C304 0.913 . S
H324 C342 0.951 . S
H325 C344 0.951 . S
H326 C346 0.950 . S
H327 C347 0.950 . S
H328 C349 0.950 . S
H329 C352 0.950 . S
H330 C353 0.950 . S
H331 C355 0.950 . S
H332 C356 0.950 . S
H333 C357 0.951 . S
H334 C359 0.951 . S
H335 C361 0.950 . S
H336 C362 0.950 . S
H337 C364 0.950 . S
H338 C367 0.950 . S
H339 C368 0.950 . S
H340 C370 0.950 . S
H341 C371 0.950 . S
C342 H324 0.951 . S
C342 C343 1.366 . S
C342 C344 1.388 . S
C343 C342 1.366 . S
C343 C347 1.385 . S
C344 H325 0.951 . S
C344 C342 1.388 . S
C344 C345 1.366 . S
C345 C344 1.366 . S
C345 C346 1.414 . S
C345 C348 1.499 . S
C346 H326 0.950 . S
C346 C345 1.414 . S
C346 C347 1.374 . S
C347 H327 0.950 . S
C347 C343 1.385 . S
C347 C346 1.374 . S
C348 C345 1.499 . S
C348 C349 1.373 . S
C348 C350 1.389 . S
C349 H328 0.950 . S
C349 C348 1.373 . S
C349 C365 1.377 . S
C350 C348 1.389 . S
C350 C351 1.524 . S
C350 C364 1.377 . S
C351 C350 1.524 . S
C351 C352 1.397 . S
C351 C356 1.363 . S
C352 H329 0.950 . S
C352 C351 1.397 . S
C352 C353 1.334 . S
C353 H330 0.950 . S
C353 C352 1.334 . S
C353 C354 1.287 . S
C354 C353 1.287 . S
C354 C355 1.524 . S
C354 H373 0.913 . S
C355 H331 0.950 . S
C355 C354 1.524 . S
C355 C356 1.415 . S
C356 H332 0.950 . S
C356 C351 1.363 . S
C356 C355 1.415 . S
C357 H333 0.951 . S
C357 C358 1.366 . S
C357 C359 1.388 . S
C358 C357 1.366 . S
C358 C362 1.385 . S
C359 H334 0.951 . S
C359 C357 1.388 . S
C359 C360 1.366 . S
C360 C359 1.366 . S
C360 C361 1.414 . S
C360 C363 1.499 . S
C361 H335 0.950 . S
C361 C360 1.414 . S
C361 C362 1.374 . S
C362 H336 0.950 . S
C362 C358 1.385 . S
C362 C361 1.374 . S
C363 C360 1.499 . S
C363 C364 1.373 . S
C363 C365 1.389 . S
C364 H337 0.950 . S
C364 C350 1.377 . S
C364 C363 1.373 . S
C365 C349 1.377 . S
C365 C363 1.389 . S
C365 C366 1.524 . S
C366 C365 1.524 . S
C366 C367 1.397 . S
C366 C371 1.363 . S
C367 H338 0.950 . S
C367 C366 1.397 . S
C367 C368 1.334 . S
C368 H339 0.950 . S
C368 C367 1.334 . S
C368 C369 1.287 . S
C369 C368 1.287 . S
C369 C370 1.524 . S
C369 H372 0.999 . S
C370 H340 0.950 . S
C370 C369 1.524 . S
C370 C371 1.415 . S
C371 H341 0.950 . S
C371 C366 1.363 . S
C371 C370 1.415 . S
H372 C369 0.999 . S
H373 C354 0.913 . S
H374 C392 0.951 . S
H375 C394 0.951 . S
H376 C396 0.950 . S
H377 C397 0.950 . S
H378 C399 0.950 . S
H379 C402 0.950 . S
H380 C403 0.950 . S
H381 C405 0.950 . S
H382 C406 0.950 . S
H383 C407 0.951 . S
H384 C409 0.951 . S
H385 C411 0.950 . S
H386 C412 0.950 . S
H387 C414 0.950 . S
H388 C417 0.950 . S
H389 C418 0.950 . S
H390 C420 0.950 . S
H391 C421 0.950 . S
C392 H374 0.951 . S
C392 C393 1.366 . S
C392 C394 1.388 . S
C393 C392 1.366 . S
C393 C397 1.385 . S
C394 H375 0.951 . S
C394 C392 1.388 . S
C394 C395 1.366 . S
C395 C394 1.366 . S
C395 C396 1.414 . S
C395 C398 1.499 . S
C396 H376 0.950 . S
C396 C395 1.414 . S
C396 C397 1.374 . S
C397 H377 0.950 . S
C397 C393 1.385 . S
C397 C396 1.374 . S
C398 C395 1.499 . S
C398 C399 1.373 . S
C398 C400 1.389 . S
C399 H378 0.950 . S
C399 C398 1.373 . S
C399 C415 1.377 . S
C400 C398 1.389 . S
C400 C401 1.524 . S
C400 C414 1.377 . S
C401 C400 1.524 . S
C401 C402 1.397 . S
C401 C406 1.363 . S
C402 H379 0.950 . S
C402 C401 1.397 . S
C402 C403 1.334 . S
C403 H380 0.950 . S
C403 C402 1.334 . S
C403 C404 1.287 . S
C404 C403 1.287 . S
C404 C405 1.524 . S
C404 H423 0.913 . S
C405 H381 0.950 . S
C405 C404 1.524 . S
C405 C406 1.415 . S
C406 H382 0.950 . S
C406 C401 1.363 . S
C406 C405 1.415 . S
C407 H383 0.951 . S
C407 C408 1.366 . S
C407 C409 1.388 . S
C408 C407 1.366 . S
C408 C412 1.385 . S
C409 H384 0.951 . S
C409 C407 1.388 . S
C409 C410 1.366 . S
C410 C409 1.366 . S
C410 C411 1.414 . S
C410 C413 1.499 . S
C411 H385 0.950 . S
C411 C410 1.414 . S
C411 C412 1.374 . S
C412 H386 0.950 . S
C412 C408 1.385 . S
C412 C411 1.374 . S
C413 C410 1.499 . S
C413 C414 1.373 . S
C413 C415 1.389 . S
C414 H387 0.950 . S
C414 C400 1.377 . S
C414 C413 1.373 . S
C415 C399 1.377 . S
C415 C413 1.389 . S
C415 C416 1.524 . S
C416 C415 1.524 . S
C416 C417 1.397 1_655 S
C416 C421 1.363 . S
C417 H388 0.950 . S
C417 C416 1.397 1_455 S
C417 C418 1.334 . S
C418 H389 0.950 . S
C418 C417 1.334 . S
C418 C419 1.287 . S
C419 C418 1.287 . S
C419 C420 1.524 . S
C419 H422 0.999 . S
C420 H390 0.950 . S
C420 C419 1.524 . S
C420 C421 1.415 1_455 S
C421 H391 0.950 . S
C421 C416 1.363 . S
C421 C420 1.415 1_655 S
H422 C419 0.999 . S
H423 C404 0.913 . S
H424 C442 0.951 . S
H425 C444 0.951 . S
H426 C446 0.950 . S
H427 C447 0.950 . S
H428 C449 0.950 . S
H429 C452 0.950 . S
H430 C453 0.950 . S
H431 C455 0.950 . S
H432 C456 0.950 . S
H433 C457 0.951 . S
H434 C459 0.951 . S
H435 C461 0.950 . S
H436 C462 0.950 . S
H437 C464 0.950 . S
H438 C467 0.950 . S
H439 C468 0.950 . S
H440 C470 0.950 . S
H441 C471 0.950 . S
C442 H424 0.951 . S
C442 C443 1.366 . S
C442 C444 1.388 . S
C443 C442 1.366 . S
C443 C447 1.385 . S
C444 H425 0.951 . S
C444 C442 1.388 . S
C444 C445 1.366 . S
C445 C444 1.366 . S
C445 C446 1.414 . S
C445 C448 1.499 . S
C446 H426 0.950 . S
C446 C445 1.414 . S
C446 C447 1.374 . S
C447 H427 0.950 . S
C447 C443 1.385 . S
C447 C446 1.374 . S
C448 C445 1.499 . S
C448 C449 1.373 . S
C448 C450 1.389 . S
C449 H428 0.950 . S
C449 C448 1.373 . S
C449 C465 1.377 . S
C450 C448 1.389 . S
C450 C451 1.524 . S
C450 C464 1.377 . S
C451 C450 1.524 . S
C451 C452 1.397 . S
C451 C456 1.363 . S
C452 H429 0.950 . S
C452 C451 1.397 . S
C452 C453 1.334 . S
C453 H430 0.950 . S
C453 C452 1.334 . S
C453 C454 1.287 . S
C454 C453 1.287 . S
C454 C455 1.524 . S
C454 H473 0.913 . S
C455 H431 0.950 . S
C455 C454 1.524 . S
C455 C456 1.415 . S
C456 H432 0.950 . S
C456 C451 1.363 . S
C456 C455 1.415 . S
C457 H433 0.951 . S
C457 C458 1.366 . S
C457 C459 1.388 . S
C458 C457 1.366 . S
C458 C462 1.385 . S
C459 H434 0.951 . S
C459 C457 1.388 . S
C459 C460 1.366 . S
C460 C459 1.366 . S
C460 C461 1.414 . S
C460 C463 1.499 . S
C461 H435 0.950 . S
C461 C460 1.414 . S
C461 C462 1.374 . S
C462 H436 0.950 . S
C462 C458 1.385 . S
C462 C461 1.374 . S
C463 C460 1.499 . S
C463 C464 1.373 . S
C463 C465 1.389 . S
C464 H437 0.950 . S
C464 C450 1.377 . S
C464 C463 1.373 . S
C465 C449 1.377 . S
C465 C463 1.389 . S
C465 C466 1.524 . S
C466 C465 1.524 . S
C466 C467 1.397 . S
C466 C471 1.363 . S
C467 H438 0.950 . S
C467 C466 1.397 . S
C467 C468 1.334 . S
C468 H439 0.950 . S
C468 C467 1.334 . S
C468 C469 1.287 . S
C469 C468 1.287 . S
C469 C470 1.524 . S
C469 H472 0.999 . S
C470 H440 0.950 . S
C470 C469 1.524 . S
C470 C471 1.415 . S
C471 H441 0.950 . S
C471 C466 1.363 . S
C471 C470 1.415 . S
H472 C469 0.999 . S
H473 C454 0.913 . S
H474 C492 0.951 1_545 S
H475 C494 0.951 1_545 S
H476 C496 0.950 . S
H477 C497 0.950 . S
H478 C499 0.950 . S
H479 C502 0.950 . S
H480 C503 0.950 1_565 S
H481 C505 0.950 . S
H482 C506 0.950 . S
H483 C507 0.951 . S
H484 C509 0.951 . S
H485 C511 0.950 . S
H486 C512 0.950 . S
H487 C514 0.950 . S
H488 C517 0.948 1_545 S
H489 C518 0.950 . S
H490 C520 0.950 . S
H491 C521 0.950 . S
C492 H474 0.951 1_565 S
C492 C493 1.366 . S
C492 C494 1.388 . S
C493 C492 1.366 . S
C493 C497 1.385 . S
C494 H475 0.951 1_565 S
C494 C492 1.388 . S
C494 C495 1.366 . S
C495 C494 1.366 . S
C495 C496 1.414 . S
C495 C498 1.499 . S
C496 H476 0.950 . S
C496 C495 1.414 . S
C496 C497 1.374 . S
C497 H477 0.950 . S
C497 C493 1.385 . S
C497 C496 1.374 . S
C498 C495 1.499 . S
C498 C499 1.373 . S
C498 C500 1.389 1_565 S
C499 H478 0.950 . S
C499 C498 1.373 . S
C499 C515 1.377 . S
C500 C498 1.389 1_545 S
C500 C501 1.524 . S
C500 C514 1.377 . S
C501 C500 1.524 . S
C501 C502 1.397 1_545 S
C501 C506 1.363 . S
C502 H479 0.950 . S
C502 C501 1.397 1_565 S
C502 C503 1.334 1_565 S
C503 H480 0.950 1_545 S
C503 C502 1.334 1_545 S
C503 C504 1.287 . S
C504 C503 1.287 . S
C504 C505 1.524 . S
C504 H523 0.913 . S
C505 H481 0.950 . S
C505 C504 1.524 . S
C505 C506 1.415 . S
C506 H482 0.950 . S
C506 C501 1.363 . S
C506 C505 1.415 . S
C507 H483 0.951 . S
C507 C508 1.366 1_565 S
C507 C509 1.388 . S
C508 C507 1.366 1_545 S
C508 C512 1.385 . S
C509 H484 0.951 . S
C509 C507 1.388 . S
C509 C510 1.366 1_565 S
C510 C509 1.366 1_545 S
C510 C511 1.414 . S
C510 C513 1.499 1_545 S
C511 H485 0.950 . S
C511 C510 1.414 . S
C511 C512 1.374 . S
C512 H486 0.950 . S
C512 C508 1.385 . S
C512 C511 1.374 . S
C513 C510 1.499 1_565 S
C513 C514 1.373 1_565 S
C513 C515 1.389 . S
C514 H487 0.950 . S
C514 C500 1.377 . S
C514 C513 1.373 1_545 S
C515 C499 1.377 . S
C515 C513 1.389 . S
C515 C516 1.524 . S
C516 C515 1.524 . S
C516 C517 1.397 . S
C516 C521 1.363 . S
C517 H488 0.948 1_565 S
C517 C516 1.397 . S
C517 C518 1.334 . S
C518 H489 0.950 . S
C518 C517 1.334 . S
C518 C519 1.287 . S
C519 C518 1.287 . S
C519 C520 1.524 . S
C519 H522 0.999 . S
C520 H490 0.950 . S
C520 C519 1.524 . S
C520 C521 1.415 . S
C521 H491 0.950 . S
C521 C516 1.363 . S
C521 C520 1.415 . S
H522 C519 0.999 . S
H523 C504 0.913 . S
H524 C542 0.951 . S
H525 C544 0.951 . S
H526 C546 0.950 . S
H527 C547 0.950 . S
H528 C549 0.950 . S
H529 C552 0.950 . S
H530 C553 0.950 . S
H531 C555 0.950 . S
H532 C556 0.950 . S
H533 C557 0.951 . S
H534 C559 0.951 1_554 S
H535 C561 0.950 . S
H536 C562 0.950 . S
H537 C564 0.950 . S
H538 C567 0.950 . S
H539 C568 0.950 . S
H540 C570 0.950 . S
H541 C571 0.950 . S
C542 H524 0.951 . S
C542 C543 1.366 . S
C542 C544 1.388 . S
C543 C542 1.366 . S
C543 C547 1.385 . S
C544 H525 0.951 . S
C544 C542 1.388 . S
C544 C545 1.366 . S
C545 C544 1.366 . S
C545 C546 1.414 . S
C545 C548 1.499 . S
C546 H526 0.950 . S
C546 C545 1.414 . S
C546 C547 1.374 . S
C547 H527 0.950 . S
C547 C543 1.385 . S
C547 C546 1.374 . S
C548 C545 1.499 . S
C548 C549 1.373 . S
C548 C550 1.389 . S
C549 H528 0.950 . S
C549 C548 1.373 . S
C549 C565 1.377 . S
C550 C548 1.389 . S
C550 C551 1.524 . S
C550 C564 1.377 . S
C551 C550 1.524 . S
C551 C552 1.397 . S
C551 C556 1.363 . S
C552 H529 0.950 . S
C552 C551 1.397 . S
C552 C553 1.334 . S
C553 H530 0.950 . S
C553 C552 1.334 . S
C553 C554 1.287 . S
C554 C553 1.287 . S
C554 C555 1.524 . S
C554 H573 0.913 . S
C555 H531 0.950 . S
C555 C554 1.524 . S
C555 C556 1.415 . S
C556 H532 0.950 . S
C556 C551 1.363 . S
C556 C555 1.415 . S
C557 H533 0.951 . S
C557 C558 1.366 1_554 S
C557 C559 1.388 1_554 S
C558 C557 1.366 1_556 S
C558 C562 1.385 . S
C559 H534 0.951 1_556 S
C559 C557 1.388 1_556 S
C559 C560 1.366 . S
C560 C559 1.366 . S
C560 C561 1.414 . S
C560 C563 1.499 . S
C561 H535 0.950 . S
C561 C560 1.414 . S
C561 C562 1.374 . S
C562 H536 0.950 . S
C562 C558 1.385 . S
C562 C561 1.374 . S
C563 C560 1.499 . S
C563 C564 1.373 . S
C563 C565 1.389 . S
C564 H537 0.950 . S
C564 C550 1.377 . S
C564 C563 1.373 . S
C565 C549 1.377 . S
C565 C563 1.389 . S
C565 C566 1.524 1_556 S
C566 C565 1.524 1_554 S
C566 C567 1.397 . S
C566 C571 1.363 . S
C567 H538 0.950 . S
C567 C566 1.397 . S
C567 C568 1.334 . S
C568 H539 0.950 . S
C568 C567 1.334 . S
C568 C569 1.287 . S
C569 C568 1.287 . S
C569 C570 1.524 . S
C569 H572 0.999 . S
C570 H540 0.950 . S
C570 C569 1.524 . S
C570 C571 1.415 . S
C571 H541 0.950 . S
C571 C566 1.363 . S
C571 C570 1.415 . S
H572 C569 0.999 . S
H573 C554 0.913 . S
H574 C592 0.951 . S
H575 C594 0.951 . S
H576 C596 0.950 . S
H577 C597 0.950 . S
H578 C599 0.950 . S
H579 C602 0.950 . S
H580 C603 0.950 . S
H581 C605 0.950 . S
H582 C606 0.950 . S
H583 C607 0.951 . S
H584 C609 0.951 . S
H585 C611 0.950 . S
H586 C612 0.950 . S
H587 C614 0.950 . S
H588 C617 0.950 . S
H589 C618 0.950 . S
H590 C620 0.950 . S
H591 C621 0.950 . S
C592 H574 0.951 . S
C592 C593 1.366 . S
C592 C594 1.388 . S
C593 C592 1.366 . S
C593 C597 1.385 . S
C594 H575 0.951 . S
C594 C592 1.388 . S
C594 C595 1.366 . S
C595 C594 1.366 . S
C595 C596 1.414 . S
C595 C598 1.499 . S
C596 H576 0.950 . S
C596 C595 1.414 . S
C596 C597 1.374 . S
C597 H577 0.950 . S
C597 C593 1.385 . S
C597 C596 1.374 . S
C598 C595 1.499 . S
C598 C599 1.373 . S
C598 C600 1.389 . S
C599 H578 0.950 . S
C599 C598 1.373 . S
C599 C615 1.377 . S
C600 C598 1.389 . S
C600 C601 1.524 . S
C600 C614 1.377 . S
C601 C600 1.524 . S
C601 C602 1.397 . S
C601 C606 1.363 . S
C602 H579 0.950 . S
C602 C601 1.397 . S
C602 C603 1.334 . S
C603 H580 0.950 . S
C603 C602 1.334 . S
C603 C604 1.287 . S
C604 C603 1.287 . S
C604 C605 1.524 . S
C604 H623 0.913 . S
C605 H581 0.950 . S
C605 C604 1.524 . S
C605 C606 1.415 . S
C606 H582 0.950 . S
C606 C601 1.363 . S
C606 C605 1.415 . S
C607 H583 0.951 . S
C607 C608 1.366 . S
C607 C609 1.388 . S
C608 C607 1.366 . S
C608 C612 1.385 . S
C609 H584 0.951 . S
C609 C607 1.388 . S
C609 C610 1.366 . S
C610 C609 1.366 . S
C610 C611 1.414 . S
C610 C613 1.499 . S
C611 H585 0.950 . S
C611 C610 1.414 . S
C611 C612 1.374 . S
C612 H586 0.950 . S
C612 C608 1.385 . S
C612 C611 1.374 . S
C613 C610 1.499 . S
C613 C614 1.373 . S
C613 C615 1.389 . S
C614 H587 0.950 . S
C614 C600 1.377 . S
C614 C613 1.373 . S
C615 C599 1.377 . S
C615 C613 1.389 . S
C615 C616 1.524 . S
C616 C615 1.524 . S
C616 C617 1.397 . S
C616 C621 1.363 . S
C617 H588 0.950 . S
C617 C616 1.397 . S
C617 C618 1.334 . S
C618 H589 0.950 . S
C618 C617 1.334 . S
C618 C619 1.287 . S
C619 C618 1.287 . S
C619 C620 1.524 . S
C619 H622 0.999 . S
C620 H590 0.950 . S
C620 C619 1.524 . S
C620 C621 1.415 . S
C621 H591 0.950 . S
C621 C616 1.363 . S
C621 C620 1.415 . S
H622 C619 0.999 . S
H623 C604 0.913 . S
H624 C642 0.951 . S
H625 C644 0.951 . S
H626 C646 0.950 . S
H627 C647 0.950 . S
H628 C649 0.950 . S
H629 C652 0.950 . S
H630 C653 0.950 . S
H631 C655 0.950 . S
H632 C656 0.950 . S
H633 C657 0.951 . S
H634 C659 0.951 . S
H635 C661 0.950 . S
H636 C662 0.950 . S
H637 C664 0.950 . S
H638 C667 0.950 . S
H639 C668 0.950 1_655 S
H640 C670 0.950 . S
H641 C671 0.950 . S
C642 H624 0.951 . S
C642 C643 1.366 . S
C642 C644 1.388 . S
C643 C642 1.366 . S
C643 C647 1.385 . S
C644 H625 0.951 . S
C644 C642 1.388 . S
C644 C645 1.366 . S
C645 C644 1.366 . S
C645 C646 1.414 . S
C645 C648 1.499 . S
C646 H626 0.950 . S
C646 C645 1.414 . S
C646 C647 1.374 . S
C647 H627 0.950 . S
C647 C643 1.385 . S
C647 C646 1.374 . S
C648 C645 1.499 . S
C648 C649 1.373 . S
C648 C650 1.389 . S
C649 H628 0.950 . S
C649 C648 1.373 . S
C649 C665 1.377 . S
C650 C648 1.389 . S
C650 C651 1.524 . S
C650 C664 1.377 . S
C651 C650 1.524 . S
C651 C652 1.397 . S
C651 C656 1.363 . S
C652 H629 0.950 . S
C652 C651 1.397 . S
C652 C653 1.334 . S
C653 H630 0.950 . S
C653 C652 1.334 . S
C653 C654 1.287 1_554 S
C654 C653 1.287 1_556 S
C654 C655 1.524 . S
C654 H673 0.913 . S
C655 H631 0.950 . S
C655 C654 1.524 . S
C655 C656 1.415 1_556 S
C656 H632 0.950 . S
C656 C651 1.363 . S
C656 C655 1.415 1_554 S
C657 H633 0.951 . S
C657 C658 1.366 . S
C657 C659 1.388 . S
C658 C657 1.366 . S
C658 C662 1.385 . S
C659 H634 0.951 . S
C659 C657 1.388 . S
C659 C660 1.366 . S
C660 C659 1.366 . S
C660 C661 1.414 . S
C660 C663 1.499 . S
C661 H635 0.950 . S
C661 C660 1.414 . S
C661 C662 1.374 . S
C662 H636 0.950 . S
C662 C658 1.385 . S
C662 C661 1.374 . S
C663 C660 1.499 . S
C663 C664 1.373 . S
C663 C665 1.389 . S
C664 H637 0.950 . S
C664 C650 1.377 . S
C664 C663 1.373 . S
C665 C649 1.377 . S
C665 C663 1.389 . S
C665 C666 1.524 . S
C666 C665 1.524 . S
C666 C667 1.397 . S
C666 C671 1.363 . S
C667 H638 0.950 . S
C667 C666 1.397 . S
C667 C668 1.334 . S
C668 H639 0.950 1_455 S
C668 C667 1.334 . S
C668 C669 1.287 . S
C669 C668 1.287 . S
C669 C670 1.524 . S
C669 H672 0.999 . S
C670 H640 0.950 . S
C670 C669 1.524 . S
C670 C671 1.415 . S
C671 H641 0.950 . S
C671 C666 1.363 . S
C671 C670 1.415 . S
H672 C669 0.999 . S
H673 C654 0.913 . S
H674 C692 0.951 . S
H675 C694 0.951 . S
H676 C696 0.950 . S
H677 C697 0.950 . S
H678 C699 0.950 . S
H679 C702 0.950 . S
H680 C703 0.950 . S
H681 C705 0.950 . S
H682 C706 0.950 . S
H683 C707 0.951 . S
H684 C709 0.951 . S
H685 C711 0.950 . S
H686 C712 0.940 1_554 S
H687 C714 0.950 1_554 S
H688 C717 0.950 . S
H689 C718 0.950 . S
H690 C720 0.950 . S
H691 C721 0.950 . S
C692 H674 0.951 . S
C692 C693 1.366 . S
C692 C694 1.388 . S
C693 C692 1.366 . S
C693 C697 1.385 . S
C694 H675 0.951 . S
C694 C692 1.388 . S
C694 C695 1.366 . S
C695 C694 1.366 . S
C695 C696 1.414 . S
C695 C698 1.499 . S
C696 H676 0.950 . S
C696 C695 1.414 . S
C696 C697 1.374 . S
C697 H677 0.950 . S
C697 C693 1.385 . S
C697 C696 1.374 . S
C698 C695 1.499 . S
C698 C699 1.373 . S
C698 C700 1.389 . S
C699 H678 0.950 . S
C699 C698 1.373 . S
C699 C715 1.377 . S
C700 C698 1.389 . S
C700 C701 1.524 1_556 S
C700 C714 1.377 . S
C701 C700 1.524 1_554 S
C701 C702 1.397 . S
C701 C706 1.363 . S
C702 H679 0.950 . S
C702 C701 1.397 . S
C702 C703 1.334 . S
C703 H680 0.950 . S
C703 C702 1.334 . S
C703 C704 1.287 . S
C704 C703 1.287 . S
C704 C705 1.524 . S
C704 H723 0.913 . S
C705 H681 0.950 . S
C705 C704 1.524 . S
C705 C706 1.415 . S
C706 H682 0.950 . S
C706 C701 1.363 . S
C706 C705 1.415 . S
C707 H683 0.951 . S
C707 C708 1.366 . S
C707 C709 1.388 . S
C708 C707 1.366 . S
C708 C712 1.385 . S
C709 H684 0.951 . S
C709 C707 1.388 . S
C709 C710 1.366 . S
C710 C709 1.366 . S
C710 C711 1.414 . S
C710 C713 1.499 . S
C711 H685 0.950 . S
C711 C710 1.414 . S
C711 C712 1.374 . S
C712 H686 0.940 1_556 S
C712 C708 1.385 . S
C712 C711 1.374 . S
C713 C710 1.499 . S
C713 C714 1.373 . S
C713 C715 1.389 . S
C714 H687 0.950 1_556 S
C714 C700 1.377 . S
C714 C713 1.373 . S
C715 C699 1.377 . S
C715 C713 1.389 . S
C715 C716 1.524 . S
C716 C715 1.524 . S
C716 C717 1.397 . S
C716 C721 1.363 . S
C717 H688 0.950 . S
C717 C716 1.397 . S
C717 C718 1.334 . S
C718 H689 0.950 . S
C718 C717 1.334 . S
C718 C719 1.287 . S
C719 C718 1.287 . S
C719 C720 1.524 . S
C719 H722 0.999 . S
C720 H690 0.950 . S
C720 C719 1.524 . S
C720 C721 1.415 . S
C721 H691 0.950 . S
C721 C716 1.363 . S
C721 C720 1.415 . S
H722 C719 0.999 . S
H723 C704 0.913 . S
H724 C742 0.951 . S
H725 C744 0.951 . S
H726 C746 0.950 . S
H727 C747 0.950 . S
H728 C749 0.950 . S
H729 C752 0.950 . S
H730 C753 0.950 . S
H731 C755 0.950 . S
H732 C756 0.950 . S
H733 C757 0.951 . S
H734 C759 0.951 . S
H735 C761 0.950 . S
H736 C762 0.950 . S
H737 C764 0.950 . S
H738 C767 0.950 . S
H739 C768 0.950 . S
H740 C770 0.950 . S
H741 C771 0.950 . S
C742 H724 0.951 . S
C742 C743 1.366 . S
C742 C744 1.388 . S
C743 C742 1.366 . S
C743 C747 1.385 . S
C744 H725 0.951 . S
C744 C742 1.388 . S
C744 C745 1.366 . S
C745 C744 1.366 . S
C745 C746 1.414 . S
C745 C748 1.499 . S
C746 H726 0.950 . S
C746 C745 1.414 . S
C746 C747 1.374 . S
C747 H727 0.950 . S
C747 C743 1.385 . S
C747 C746 1.374 . S
C748 C745 1.499 . S
C748 C749 1.373 . S
C748 C750 1.389 . S
C749 H728 0.950 . S
C749 C748 1.373 . S
C749 C765 1.377 . S
C750 C748 1.389 . S
C750 C751 1.524 . S
C750 C764 1.377 . S
C751 C750 1.524 . S
C751 C752 1.397 . S
C751 C756 1.363 . S
C752 H729 0.950 . S
C752 C751 1.397 . S
C752 C753 1.334 . S
C753 H730 0.950 . S
C753 C752 1.334 . S
C753 C754 1.287 . S
C754 C753 1.287 . S
C754 C755 1.524 . S
C754 H773 0.913 . S
C755 H731 0.950 . S
C755 C754 1.524 . S
C755 C756 1.415 . S
C756 H732 0.950 . S
C756 C751 1.363 . S
C756 C755 1.415 . S
C757 H733 0.951 . S
C757 C758 1.366 . S
C757 C759 1.388 . S
C758 C757 1.366 . S
C758 C762 1.385 . S
C759 H734 0.951 . S
C759 C757 1.388 . S
C759 C760 1.366 . S
C760 C759 1.366 . S
C760 C761 1.414 . S
C760 C763 1.499 . S
C761 H735 0.950 . S
C761 C760 1.414 . S
C761 C762 1.374 . S
C762 H736 0.950 . S
C762 C758 1.385 . S
C762 C761 1.374 . S
C763 C760 1.499 . S
C763 C764 1.373 . S
C763 C765 1.389 . S
C764 H737 0.950 . S
C764 C750 1.377 . S
C764 C763 1.373 . S
C765 C749 1.377 . S
C765 C763 1.389 . S
C765 C766 1.524 . S
C766 C765 1.524 . S
C766 C767 1.397 . S
C766 C771 1.363 . S
C767 H738 0.950 . S
C767 C766 1.397 . S
C767 C768 1.334 . S
C768 H739 0.950 . S
C768 C767 1.334 . S
C768 C769 1.287 . S
C769 C768 1.287 . S
C769 C770 1.524 . S
C769 H772 0.999 . S
C770 H740 0.950 . S
C770 C769 1.524 . S
C770 C771 1.415 . S
C771 H741 0.950 . S
C771 C766 1.363 . S
C771 C770 1.415 . S
H772 C769 0.999 . S
H773 C754 0.913 . S
H774 C792 0.951 . S
H775 C794 0.951 . S
H776 C796 0.950 . S
H777 C797 0.950 . S
H778 C799 0.950 . S
H779 C802 0.950 . S
H780 C803 0.950 . S
H781 C805 0.950 . S
H782 C806 0.950 . S
H783 C807 0.951 . S
H784 C809 0.951 . S
H785 C811 0.950 . S
H786 C812 0.950 . S
H787 C814 0.950 . S
H788 C817 0.950 . S
H789 C818 0.950 . S
H790 C820 0.950 . S
H791 C821 0.950 . S
C792 H774 0.951 . S
C792 C793 1.366 . S
C792 C794 1.388 . S
C793 C792 1.366 . S
C793 C797 1.385 . S
C794 H775 0.951 . S
C794 C792 1.388 . S
C794 C795 1.366 . S
C795 C794 1.366 . S
C795 C796 1.414 . S
C795 C798 1.499 . S
C796 H776 0.950 . S
C796 C795 1.414 . S
C796 C797 1.374 . S
C797 H777 0.950 . S
C797 C793 1.385 . S
C797 C796 1.374 . S
C798 C795 1.499 . S
C798 C799 1.373 . S
C798 C800 1.389 . S
C799 H778 0.950 . S
C799 C798 1.373 . S
C799 C815 1.377 . S
C800 C798 1.389 . S
C800 C801 1.524 . S
C800 C814 1.377 . S
C801 C800 1.524 . S
C801 C802 1.397 . S
C801 C806 1.363 . S
C802 H779 0.950 . S
C802 C801 1.397 . S
C802 C803 1.334 . S
C803 H780 0.950 . S
C803 C802 1.334 . S
C803 C804 1.287 . S
C804 C803 1.287 . S
C804 C805 1.524 . S
C804 H823 0.913 . S
C805 H781 0.950 . S
C805 C804 1.524 . S
C805 C806 1.415 . S
C806 H782 0.950 . S
C806 C801 1.363 . S
C806 C805 1.415 . S
C807 H783 0.951 . S
C807 C808 1.366 . S
C807 C809 1.388 . S
C808 C807 1.366 . S
C808 C812 1.385 . S
C809 H784 0.951 . S
C809 C807 1.388 . S
C809 C810 1.366 . S
C810 C809 1.366 . S
C810 C811 1.414 . S
C810 C813 1.499 . S
C811 H785 0.950 . S
C811 C810 1.414 . S
C811 C812 1.374 . S
C812 H786 0.950 . S
C812 C808 1.385 . S
C812 C811 1.374 . S
C813 C810 1.499 . S
C813 C814 1.373 . S
C813 C815 1.389 . S
C814 H787 0.950 . S
C814 C800 1.377 . S
C814 C813 1.373 . S
C815 C799 1.377 . S
C815 C813 1.389 . S
C815 C816 1.524 . S
C816 C815 1.524 . S
C816 C817 1.397 . S
C816 C821 1.363 . S
C817 H788 0.950 . S
C817 C816 1.397 . S
C817 C818 1.334 . S
C818 H789 0.950 . S
C818 C817 1.334 . S
C818 C819 1.287 . S
C819 C818 1.287 . S
C819 C820 1.524 . S
C819 H822 0.999 . S
C820 H790 0.950 . S
C820 C819 1.524 . S
C820 C821 1.415 . S
C821 H791 0.950 . S
C821 C816 1.363 . S
C821 C820 1.415 . S
H822 C819 0.999 . S
H823 C804 0.913 . S
H824 C842 0.951 . S
H825 C844 0.951 1_545 S
H826 C846 0.950 . S
H827 C847 0.950 . S
H828 C849 0.950 . S
H829 C852 0.950 . S
H830 C853 0.950 . S
H831 C855 0.950 . S
H832 C856 0.950 . S
H833 C857 0.951 . S
H834 C859 0.951 . S
H835 C861 0.950 . S
H836 C862 0.950 . S
H837 C864 0.950 1_545 S
H838 C867 0.950 1_545 S
H839 C868 0.950 1_545 S
H840 C870 0.950 . S
H841 C871 0.950 . S
C842 H824 0.951 . S
C842 C843 1.366 . S
C842 C844 1.388 . S
C843 C842 1.366 . S
C843 C847 1.385 . S
C844 H825 0.951 1_565 S
C844 C842 1.388 . S
C844 C845 1.366 . S
C845 C844 1.366 . S
C845 C846 1.414 . S
C845 C848 1.499 . S
C846 H826 0.950 . S
C846 C845 1.414 . S
C846 C847 1.374 . S
C847 H827 0.950 . S
C847 C843 1.385 . S
C847 C846 1.374 . S
C848 C845 1.499 . S
C848 C849 1.373 . S
C848 C850 1.389 . S
C849 H828 0.950 . S
C849 C848 1.373 . S
C849 C865 1.377 . S
C850 C848 1.389 . S
C850 C851 1.524 . S
C850 C864 1.377 . S
C851 C850 1.524 . S
C851 C852 1.397 . S
C851 C856 1.363 1_565 S
C852 H829 0.950 . S
C852 C851 1.397 . S
C852 C853 1.334 . S
C853 H830 0.950 . S
C853 C852 1.334 . S
C853 C854 1.287 . S
C854 C853 1.287 . S
C854 C855 1.524 1_565 S
C854 H873 0.913 . S
C855 H831 0.950 . S
C855 C854 1.524 1_545 S
C855 C856 1.415 . S
C856 H832 0.950 . S
C856 C851 1.363 1_545 S
C856 C855 1.415 . S
C857 H833 0.951 . S
C857 C858 1.366 1_565 S
C857 C859 1.388 . S
C858 C857 1.366 1_545 S
C858 C862 1.385 . S
C859 H834 0.951 . S
C859 C857 1.388 . S
C859 C860 1.366 . S
C860 C859 1.366 . S
C860 C861 1.414 1_565 S
C860 C863 1.499 . S
C861 H835 0.950 . S
C861 C860 1.414 1_545 S
C861 C862 1.374 . S
C862 H836 0.950 . S
C862 C858 1.385 . S
C862 C861 1.374 . S
C863 C860 1.499 . S
C863 C864 1.373 . S
C863 C865 1.389 . S
C864 H837 0.950 1_565 S
C864 C850 1.377 . S
C864 C863 1.373 . S
C865 C849 1.377 . S
C865 C863 1.389 . S
C865 C866 1.524 1_655 S
C866 C865 1.524 1_455 S
C866 C867 1.397 . S
C866 C871 1.363 . S
C867 H838 0.950 1_565 S
C867 C866 1.397 . S
C867 C868 1.334 . S
C868 H839 0.950 1_565 S
C868 C867 1.334 . S
C868 C869 1.287 . S
C869 C868 1.287 . S
C869 C870 1.524 . S
C869 H872 0.999 . S
C870 H840 0.950 . S
C870 C869 1.524 . S
C870 C871 1.415 . S
C871 H841 0.950 . S
C871 C866 1.363 . S
C871 C870 1.415 . S
H872 C869 0.999 . S
H873 C854 0.913 . S
H874 C892 0.951 . S
H875 C894 0.951 . S
H876 C896 0.950 . S
H877 C897 0.950 . S
H878 C899 0.950 . S
H879 C902 0.950 . S
H880 C903 0.950 . S
H881 C905 0.950 . S
H882 C906 0.950 . S
H883 C907 0.951 . S
H884 C909 0.951 . S
H885 C911 0.950 . S
H886 C912 0.950 . S
H887 C914 0.950 . S
H888 C917 0.950 . S
H889 C918 0.950 . S
H890 C920 0.950 . S
H891 C921 0.950 . S
C892 H874 0.951 . S
C892 C893 1.366 . S
C892 C894 1.388 . S
C893 C892 1.366 . S
C893 C897 1.385 . S
C894 H875 0.951 . S
C894 C892 1.388 . S
C894 C895 1.366 . S
C895 C894 1.366 . S
C895 C896 1.414 . S
C895 C898 1.499 . S
C896 H876 0.950 . S
C896 C895 1.414 . S
C896 C897 1.374 . S
C897 H877 0.950 . S
C897 C893 1.385 . S
C897 C896 1.374 . S
C898 C895 1.499 . S
C898 C899 1.373 . S
C898 C900 1.389 . S
C899 H878 0.950 . S
C899 C898 1.373 . S
C899 C915 1.377 . S
C900 C898 1.389 . S
C900 C901 1.524 . S
C900 C914 1.377 . S
C901 C900 1.524 . S
C901 C902 1.397 . S
C901 C906 1.363 . S
C902 H879 0.950 . S
C902 C901 1.397 . S
C902 C903 1.334 . S
C903 H880 0.950 . S
C903 C902 1.334 . S
C903 C904 1.287 . S
C904 C903 1.287 . S
C904 C905 1.524 . S
C904 H923 0.913 . S
C905 H881 0.950 . S
C905 C904 1.524 . S
C905 C906 1.415 . S
C906 H882 0.950 . S
C906 C901 1.363 . S
C906 C905 1.415 . S
C907 H883 0.951 . S
C907 C908 1.366 . S
C907 C909 1.388 . S
C908 C907 1.366 . S
C908 C912 1.385 . S
C909 H884 0.951 . S
C909 C907 1.388 . S
C909 C910 1.366 . S
C910 C909 1.366 . S
C910 C911 1.414 . S
C910 C913 1.499 . S
C911 H885 0.950 . S
C911 C910 1.414 . S
C911 C912 1.374 . S
C912 H886 0.950 . S
C912 C908 1.385 . S
C912 C911 1.374 . S
C913 C910 1.499 . S
C913 C914 1.373 . S
C913 C915 1.389 . S
C914 H887 0.950 . S
C914 C900 1.377 . S
C914 C913 1.373 . S
C915 C899 1.377 . S
C915 C913 1.389 . S
C915 C916 1.524 . S
C916 C915 1.524 . S
C916 C917 1.397 . S
C916 C921 1.363 . S
C917 H888 0.950 . S
C917 C916 1.397 . S
C917 C918 1.334 . S
C918 H889 0.950 . S
C918 C917 1.334 . S
C918 C919 1.287 . S
C919 C918 1.287 . S
C919 C920 1.524 . S
C919 H922 0.999 . S
C920 H890 0.950 . S
C920 C919 1.524 . S
C920 C921 1.415 . S
C921 H891 0.950 . S
C921 C916 1.363 . S
C921 C920 1.415 . S
H922 C919 0.999 . S
H923 C904 0.913 . S
H924 C942 0.951 . S
H925 C944 0.951 . S
H926 C946 0.950 . S
H927 C947 0.950 . S
H928 C949 0.950 . S
H929 C952 0.950 . S
H930 C953 0.950 . S
H931 C955 0.950 . S
H932 C956 0.950 . S
H933 C957 0.951 . S
H934 C959 0.951 . S
H935 C961 0.950 . S
H936 C962 0.950 . S
H937 C964 0.950 . S
H938 C967 0.950 . S
H939 C968 0.950 . S
H940 C970 0.950 . S
H941 C971 0.950 . S
C942 H924 0.951 . S
C942 C943 1.366 . S
C942 C944 1.388 . S
C943 C942 1.366 . S
C943 C947 1.385 . S
C944 H925 0.951 . S
C944 C942 1.388 . S
C944 C945 1.366 . S
C945 C944 1.366 . S
C945 C946 1.414 . S
C945 C948 1.499 . S
C946 H926 0.950 . S
C946 C945 1.414 . S
C946 C947 1.374 . S
C947 H927 0.950 . S
C947 C943 1.385 . S
C947 C946 1.374 . S
C948 C945 1.499 . S
C948 C949 1.373 . S
C948 C950 1.389 . S
C949 H928 0.950 . S
C949 C948 1.373 . S
C949 C965 1.377 . S
C950 C948 1.389 . S
C950 C951 1.524 . S
C950 C964 1.377 . S
C951 C950 1.524 . S
C951 C952 1.397 . S
C951 C956 1.363 . S
C952 H929 0.950 . S
C952 C951 1.397 . S
C952 C953 1.334 . S
C953 H930 0.950 . S
C953 C952 1.334 . S
C953 C954 1.287 . S
C954 C953 1.287 . S
C954 C955 1.524 . S
C954 H973 0.913 . S
C955 H931 0.950 . S
C955 C954 1.524 . S
C955 C956 1.415 . S
C956 H932 0.950 . S
C956 C951 1.363 . S
C956 C955 1.415 . S
C957 H933 0.951 . S
C957 C958 1.366 . S
C957 C959 1.388 . S
C958 C957 1.366 . S
C958 C962 1.385 . S
C959 H934 0.951 . S
C959 C957 1.388 . S
C959 C960 1.366 . S
C960 C959 1.366 . S
C960 C961 1.414 . S
C960 C963 1.499 . S
C961 H935 0.950 . S
C961 C960 1.414 . S
C961 C962 1.374 . S
C962 H936 0.950 . S
C962 C958 1.385 . S
C962 C961 1.374 . S
C963 C960 1.499 . S
C963 C964 1.373 . S
C963 C965 1.389 . S
C964 H937 0.950 . S
C964 C950 1.377 . S
C964 C963 1.373 . S
C965 C949 1.377 . S
C965 C963 1.389 . S
C965 C966 1.524 . S
C966 C965 1.524 . S
C966 C967 1.397 . S
C966 C971 1.363 . S
C967 H938 0.950 . S
C967 C966 1.397 . S
C967 C968 1.334 . S
C968 H939 0.950 . S
C968 C967 1.334 . S
C968 C969 1.287 . S
C969 C968 1.287 . S
C969 C970 1.524 . S
C969 H972 0.999 . S
C970 H940 0.950 . S
C970 C969 1.524 . S
C970 C971 1.415 . S
C971 H941 0.950 . S
C971 C966 1.363 . S
C971 C970 1.415 . S
H972 C969 0.999 . S
H973 C954 0.913 . S
H974 C992 0.951 . S
H975 C994 0.951 . S
H976 C996 0.950 . S
H977 C997 0.950 . S
H978 C999 0.950 . S
H979 C1002 0.950 . S
H980 C1003 0.950 . S
H981 C1005 0.950 . S
H982 C1006 0.950 . S
H983 C1007 0.951 . S
H984 C1009 0.951 . S
H985 C1011 0.950 . S
H986 C1012 0.950 . S
H987 C1014 0.950 . S
H988 C1017 0.950 . S
H989 C1018 0.950 . S
H990 C1020 0.950 . S
H991 C1021 0.950 . S
C992 H974 0.951 . S
C992 C993 1.366 . S
C992 C994 1.388 . S
C993 C992 1.366 . S
C993 C997 1.385 . S
C994 H975 0.951 . S
C994 C992 1.388 . S
C994 C995 1.366 . S
C995 C994 1.366 . S
C995 C996 1.414 . S
C995 C998 1.499 . S
C996 H976 0.950 . S
C996 C995 1.414 . S
C996 C997 1.374 . S
C997 H977 0.950 . S
C997 C993 1.385 . S
C997 C996 1.374 . S
C998 C995 1.499 . S
C998 C999 1.373 . S
C998 C1000 1.389 . S
C999 H978 0.950 . S
C999 C998 1.373 . S
C999 C1015 1.377 . S
C1000 C998 1.389 . S
C1000 C1001 1.524 . S
C1000 C1014 1.377 . S
C1001 C1000 1.524 . S
C1001 C1002 1.397 . S
C1001 C1006 1.363 . S
C1002 H979 0.950 . S
C1002 C1001 1.397 . S
C1002 C1003 1.334 . S
C1003 H980 0.950 . S
C1003 C1002 1.334 . S
C1003 C1004 1.287 . S
C1004 C1003 1.287 . S
C1004 C1005 1.524 1_455 S
C1004 H1023 0.913 1_455 S
C1005 H981 0.950 . S
C1005 C1004 1.524 1_655 S
C1005 C1006 1.415 1_655 S
C1006 H982 0.950 . S
C1006 C1001 1.363 . S
C1006 C1005 1.415 1_455 S
C1007 H983 0.951 . S
C1007 C1008 1.366 . S
C1007 C1009 1.388 . S
C1008 C1007 1.366 . S
C1008 C1012 1.385 . S
C1009 H984 0.951 . S
C1009 C1007 1.388 . S
C1009 C1010 1.366 . S
C1010 C1009 1.366 . S
C1010 C1011 1.414 . S
C1010 C1013 1.499 . S
C1011 H985 0.950 . S
C1011 C1010 1.414 . S
C1011 C1012 1.374 . S
C1012 H986 0.950 . S
C1012 C1008 1.385 . S
C1012 C1011 1.374 . S
C1013 C1010 1.499 . S
C1013 C1014 1.373 . S
C1013 C1015 1.389 . S
C1014 H987 0.950 . S
C1014 C1000 1.377 . S
C1014 C1013 1.373 . S
C1015 C999 1.377 . S
C1015 C1013 1.389 . S
C1015 C1016 1.524 . S
C1016 C1015 1.524 . S
C1016 C1017 1.397 . S
C1016 C1021 1.363 . S
C1017 H988 0.950 . S
C1017 C1016 1.397 . S
C1017 C1018 1.334 . S
C1018 H989 0.950 . S
C1018 C1017 1.334 . S
C1018 C1019 1.287 . S
C1019 C1018 1.287 . S
C1019 C1020 1.524 . S
C1019 H1022 0.999 . S
C1020 H990 0.950 . S
C1020 C1019 1.524 . S
C1020 C1021 1.415 . S
C1021 H991 0.950 . S
C1021 C1016 1.363 . S
C1021 C1020 1.415 . S
H1022 C1019 0.999 . S
H1023 C1004 0.913 1_655 S
H1024 C1042 0.951 . S
H1025 C1044 0.951 1_545 S
H1026 C1046 0.950 . S
H1027 C1047 0.950 . S
H1028 C1049 0.950 . S
H1029 C1052 0.950 1_556 S
H1030 C1053 0.950 . S
H1031 C1055 0.950 1_545 S
H1032 C1056 0.947 1_545 S
H1033 C1057 0.951 . S
H1034 C1059 0.951 . S
H1035 C1061 0.950 . S
H1036 C1062 0.950 . S
H1037 C1064 0.950 1_554 S
H1038 C1067 0.950 . S
H1039 C1068 0.950 . S
H1040 C1070 0.950 . S
H1041 C1071 0.950 . S
C1042 H1024 0.951 . S
C1042 C1043 1.366 . S
C1042 C1044 1.388 . S
C1043 C1042 1.366 . S
C1043 C1047 1.385 . S
C1044 H1025 0.951 1_565 S
C1044 C1042 1.388 . S
C1044 C1045 1.366 . S
C1045 C1044 1.366 . S
C1045 C1046 1.414 . S
C1045 C1048 1.499 . S
C1046 H1026 0.950 . S
C1046 C1045 1.414 . S
C1046 C1047 1.374 . S
C1047 H1027 0.950 . S
C1047 C1043 1.385 . S
C1047 C1046 1.374 . S
C1048 C1045 1.499 . S
C1048 C1049 1.373 . S
C1048 C1050 1.389 . S
C1049 H1028 0.950 . S
C1049 C1048 1.373 . S
C1049 C1065 1.377 . S
C1050 C1048 1.389 . S
C1050 C1051 1.524 1_556 S
C1050 C1064 1.377 . S
C1051 C1050 1.524 1_554 S
C1051 C1052 1.397 . S
C1051 C1056 1.366 . S
C1052 H1029 0.950 1_554 S
C1052 C1051 1.397 . S
C1052 C1053 1.334 . S
C1053 H1030 0.950 . S
C1053 C1052 1.334 . S
C1053 C1054 1.287 . S
C1054 C1053 1.287 . S
C1054 C1055 1.524 . S
C1054 H1073 0.913 . S
C1055 H1031 0.950 1_565 S
C1055 C1054 1.524 . S
C1055 C1056 1.416 . S
C1056 H1032 0.947 1_565 S
C1056 C1051 1.366 . S
C1056 C1055 1.416 . S
C1057 H1033 0.951 . S
C1057 C1058 1.366 1_566 S
C1057 C1059 1.388 . S
C1058 C1057 1.366 1_544 S
C1058 C1062 1.385 . S
C1059 H1034 0.951 . S
C1059 C1057 1.388 . S
C1059 C1060 1.366 1_565 S
C1060 C1059 1.366 1_545 S
C1060 C1061 1.414 1_556 S
C1060 C1063 1.499 1_545 S
C1061 H1035 0.950 . S
C1061 C1060 1.414 1_554 S
C1061 C1062 1.374 . S
C1062 H1036 0.950 . S
C1062 C1058 1.385 . S
C1062 C1061 1.374 . S
C1063 C1060 1.499 1_565 S
C1063 C1064 1.373 . S
C1063 C1065 1.389 . S
C1064 H1037 0.950 1_556 S
C1064 C1050 1.377 . S
C1064 C1063 1.373 . S
C1065 C1049 1.377 . S
C1065 C1063 1.389 . S
C1065 C1066 1.524 . S
C1066 C1065 1.524 . S
C1066 C1067 1.397 1_565 S
C1066 C1071 1.363 . S
C1067 H1038 0.950 . S
C1067 C1066 1.397 1_545 S
C1067 C1068 1.334 . S
C1068 H1039 0.950 . S
C1068 C1067 1.334 . S
C1068 C1069 1.287 . S
C1069 C1068 1.287 . S
C1069 C1070 1.524 1_545 S
C1069 H1072 0.999 . S
C1070 H1040 0.950 . S
C1070 C1069 1.524 1_565 S
C1070 C1071 1.415 . S
C1071 H1041 0.950 . S
C1071 C1066 1.363 . S
C1071 C1070 1.415 . S
H1072 C1069 0.999 . S
H1073 C1054 0.913 . S
H1074 C1092 0.951 . S
H1075 C1094 0.951 . S
H1076 C1096 0.950 . S
H1077 C1097 0.950 . S
H1078 C1099 0.950 . S
H1079 C1102 0.950 . S
H1080 C1103 0.950 . S
H1081 C1105 0.950 . S
H1082 C1106 0.950 . S
H1083 C1107 0.951 . S
H1084 C1109 0.951 . S
H1085 C1111 0.950 . S
H1086 C1112 0.950 . S
H1087 C1114 0.950 . S
H1088 C1117 0.950 . S
H1089 C1118 0.950 . S
H1090 C1120 0.950 . S
H1091 C1121 0.950 . S
C1092 H1074 0.951 . S
C1092 C1093 1.366 . S
C1092 C1094 1.388 . S
C1093 C1092 1.366 . S
C1093 C1097 1.385 . S
C1094 H1075 0.951 . S
C1094 C1092 1.388 . S
C1094 C1095 1.366 . S
C1095 C1094 1.366 . S
C1095 C1096 1.414 . S
C1095 C1098 1.499 . S
C1096 H1076 0.950 . S
C1096 C1095 1.414 . S
C1096 C1097 1.374 . S
C1097 H1077 0.950 . S
C1097 C1093 1.385 . S
C1097 C1096 1.374 . S
C1098 C1095 1.499 . S
C1098 C1099 1.373 . S
C1098 C1100 1.389 . S
C1099 H1078 0.950 . S
C1099 C1098 1.373 . S
C1099 C1115 1.377 . S
C1100 C1098 1.389 . S
C1100 C1101 1.524 . S
C1100 C1114 1.377 . S
C1101 C1100 1.524 . S
C1101 C1102 1.397 . S
C1101 C1106 1.363 . S
C1102 H1079 0.950 . S
C1102 C1101 1.397 . S
C1102 C1103 1.334 . S
C1103 H1080 0.950 . S
C1103 C1102 1.334 . S
C1103 C1104 1.287 . S
C1104 C1103 1.287 . S
C1104 C1105 1.524 . S
C1104 H1123 0.913 . S
C1105 H1081 0.950 . S
C1105 C1104 1.524 . S
C1105 C1106 1.415 . S
C1106 H1082 0.950 . S
C1106 C1101 1.363 . S
C1106 C1105 1.415 . S
C1107 H1083 0.951 . S
C1107 C1108 1.366 . S
C1107 C1109 1.388 . S
C1108 C1107 1.366 . S
C1108 C1112 1.385 . S
C1109 H1084 0.951 . S
C1109 C1107 1.388 . S
C1109 C1110 1.366 . S
C1110 C1109 1.366 . S
C1110 C1111 1.414 . S
C1110 C1113 1.499 . S
C1111 H1085 0.950 . S
C1111 C1110 1.414 . S
C1111 C1112 1.374 . S
C1112 H1086 0.950 . S
C1112 C1108 1.385 . S
C1112 C1111 1.374 . S
C1113 C1110 1.499 . S
C1113 C1114 1.373 . S
C1113 C1115 1.389 . S
C1114 H1087 0.950 . S
C1114 C1100 1.377 . S
C1114 C1113 1.373 . S
C1115 C1099 1.377 . S
C1115 C1113 1.389 . S
C1115 C1116 1.524 . S
C1116 C1115 1.524 . S
C1116 C1117 1.397 . S
C1116 C1121 1.363 . S
C1117 H1088 0.950 . S
C1117 C1116 1.397 . S
C1117 C1118 1.334 . S
C1118 H1089 0.950 . S
C1118 C1117 1.334 . S
C1118 C1119 1.287 . S
C1119 C1118 1.287 . S
C1119 C1120 1.524 . S
C1119 H1122 0.999 . S
C1120 H1090 0.950 . S
C1120 C1119 1.524 . S
C1120 C1121 1.415 . S
C1121 H1091 0.950 . S
C1121 C1116 1.363 . S
C1121 C1120 1.415 . S
H1122 C1119 0.999 . S
H1123 C1104 0.913 . S
H1124 C1142 0.951 . S
H1125 C1144 0.951 . S
H1126 C1146 0.950 . S
H1127 C1147 0.950 . S
H1128 C1149 0.950 . S
H1129 C1152 0.950 . S
H1130 C1153 0.950 . S
H1131 C1155 0.950 . S
H1132 C1156 0.950 . S
H1133 C1157 0.952 . S
H1134 C1159 0.951 . S
H1135 C1161 0.950 . S
H1136 C1162 0.950 . S
H1137 C1164 0.950 . S
H1138 C1167 0.950 . S
H1139 C1168 0.949 1_556 S
H1140 C1170 0.950 . S
H1141 C1171 0.950 . S
C1142 H1124 0.951 . S
C1142 C1143 1.366 . S
C1142 C1144 1.388 . S
C1143 C1142 1.366 . S
C1143 C1147 1.385 . S
C1144 H1125 0.951 . S
C1144 C1142 1.388 . S
C1144 C1145 1.366 . S
C1145 C1144 1.366 . S
C1145 C1146 1.414 . S
C1145 C1148 1.499 . S
C1146 H1126 0.950 . S
C1146 C1145 1.414 . S
C1146 C1147 1.374 . S
C1147 H1127 0.950 . S
C1147 C1143 1.385 . S
C1147 C1146 1.374 . S
C1148 C1145 1.499 . S
C1148 C1149 1.373 . S
C1148 C1150 1.389 . S
C1149 H1128 0.950 . S
C1149 C1148 1.373 . S
C1149 C1165 1.377 . S
C1150 C1148 1.389 . S
C1150 C1151 1.524 . S
C1150 C1164 1.377 . S
C1151 C1150 1.524 . S
C1151 C1152 1.397 . S
C1151 C1156 1.363 . S
C1152 H1129 0.950 . S
C1152 C1151 1.397 . S
C1152 C1153 1.334 . S
C1153 H1130 0.950 . S
C1153 C1152 1.334 . S
C1153 C1154 1.287 . S
C1154 C1153 1.287 . S
C1154 C1155 1.524 . S
C1154 H1173 0.913 . S
C1155 H1131 0.950 . S
C1155 C1154 1.524 . S
C1155 C1156 1.415 . S
C1156 H1132 0.950 . S
C1156 C1151 1.363 . S
C1156 C1155 1.415 . S
C1157 H1133 0.952 . S
C1157 C1158 1.366 . S
C1157 C1159 1.388 . S
C1158 C1157 1.366 . S
C1158 C1162 1.385 . S
C1159 H1134 0.951 . S
C1159 C1157 1.388 . S
C1159 C1160 1.366 . S
C1160 C1159 1.366 . S
C1160 C1161 1.414 . S
C1160 C1163 1.499 . S
C1161 H1135 0.950 . S
C1161 C1160 1.414 . S
C1161 C1162 1.374 . S
C1162 H1136 0.950 . S
C1162 C1158 1.385 . S
C1162 C1161 1.374 . S
C1163 C1160 1.499 . S
C1163 C1164 1.373 . S
C1163 C1165 1.389 . S
C1164 H1137 0.950 . S
C1164 C1150 1.377 . S
C1164 C1163 1.373 . S
C1165 C1149 1.377 . S
C1165 C1163 1.389 . S
C1165 C1166 1.524 . S
C1166 C1165 1.524 . S
C1166 C1167 1.397 . S
C1166 C1171 1.363 . S
C1167 H1138 0.950 . S
C1167 C1166 1.397 . S
C1167 C1168 1.372 . S
C1168 H1139 0.949 1_554 S
C1168 C1167 1.372 . S
C1168 C1169 1.252 1_554 S
C1169 C1168 1.252 1_556 S
C1169 C1170 1.524 . S
C1169 H1172 0.999 . S
C1170 H1140 0.950 . S
C1170 C1169 1.524 . S
C1170 C1171 1.415 1_556 S
C1171 H1141 0.950 . S
C1171 C1166 1.363 . S
C1171 C1170 1.415 1_554 S
H1172 C1169 0.999 . S
H1173 C1154 0.913 . S
H1174 C1192 0.951 . S
H1175 C1194 0.951 . S
H1176 C1196 0.950 . S
H1177 C1197 0.950 . S
H1178 C1199 0.950 . S
H1179 C1202 0.950 . S
H1180 C1203 0.950 . S
H1181 C1205 0.950 . S
H1182 C1206 0.950 . S
H1183 C1207 0.951 . S
H1184 C1209 0.951 . S
H1185 C1211 0.950 . S
H1186 C1212 0.950 . S
H1187 C1214 0.950 . S
H1188 C1217 0.950 . S
H1189 C1218 0.950 . S
H1190 C1220 0.950 . S
H1191 C1221 0.950 . S
C1192 H1174 0.951 . S
C1192 C1193 1.366 . S
C1192 C1194 1.388 . S
C1193 C1192 1.366 . S
C1193 C1197 1.385 . S
C1194 H1175 0.951 . S
C1194 C1192 1.388 . S
C1194 C1195 1.366 . S
C1195 C1194 1.366 . S
C1195 C1196 1.414 . S
C1195 C1198 1.499 . S
C1196 H1176 0.950 . S
C1196 C1195 1.414 . S
C1196 C1197 1.374 . S
C1197 H1177 0.950 . S
C1197 C1193 1.385 . S
C1197 C1196 1.374 . S
C1198 C1195 1.499 . S
C1198 C1199 1.373 . S
C1198 C1200 1.389 . S
C1199 H1178 0.950 . S
C1199 C1198 1.373 . S
C1199 C1215 1.377 . S
C1200 C1198 1.389 . S
C1200 C1201 1.524 . S
C1200 C1214 1.377 . S
C1201 C1200 1.524 . S
C1201 C1202 1.397 . S
C1201 C1206 1.363 . S
C1202 H1179 0.950 . S
C1202 C1201 1.397 . S
C1202 C1203 1.334 . S
C1203 H1180 0.950 . S
C1203 C1202 1.334 . S
C1203 C1204 1.287 . S
C1204 C1203 1.287 . S
C1204 C1205 1.524 . S
C1204 H1223 0.913 . S
C1205 H1181 0.950 . S
C1205 C1204 1.524 . S
C1205 C1206 1.415 . S
C1206 H1182 0.950 . S
C1206 C1201 1.363 . S
C1206 C1205 1.415 . S
C1207 H1183 0.951 . S
C1207 C1208 1.366 . S
C1207 C1209 1.388 . S
C1208 C1207 1.366 . S
C1208 C1212 1.385 . S
C1209 H1184 0.951 . S
C1209 C1207 1.388 . S
C1209 C1210 1.366 . S
C1210 C1209 1.366 . S
C1210 C1211 1.414 . S
C1210 C1213 1.499 . S
C1211 H1185 0.950 . S
C1211 C1210 1.414 . S
C1211 C1212 1.374 . S
C1212 H1186 0.950 . S
C1212 C1208 1.385 . S
C1212 C1211 1.374 . S
C1213 C1210 1.499 . S
C1213 C1214 1.373 . S
C1213 C1215 1.389 . S
C1214 H1187 0.950 . S
C1214 C1200 1.377 . S
C1214 C1213 1.373 . S
C1215 C1199 1.377 . S
C1215 C1213 1.389 . S
C1215 C1216 1.524 . S
C1216 C1215 1.524 . S
C1216 C1217 1.397 . S
C1216 C1221 1.363 . S
C1217 H1188 0.950 . S
C1217 C1216 1.397 . S
C1217 C1218 1.334 . S
C1218 H1189 0.950 . S
C1218 C1217 1.334 . S
C1218 C1219 1.287 . S
C1219 C1218 1.287 . S
C1219 C1220 1.524 . S
C1219 H1222 0.999 . S
C1220 H1190 0.950 . S
C1220 C1219 1.524 . S
C1220 C1221 1.415 . S
C1221 H1191 0.950 . S
C1221 C1216 1.363 . S
C1221 C1220 1.415 . S
H1222 C1219 0.999 . S
H1223 C1204 0.913 . S
H1224 C1242 0.951 . S
H1225 C1244 0.951 . S
H1226 C1246 0.950 . S
H1227 C1247 0.950 . S
H1228 C1249 0.950 . S
H1229 C1252 0.950 . S
H1230 C1253 0.950 . S
H1231 C1255 0.950 . S
H1232 C1256 0.950 . S
H1233 C1257 0.951 . S
H1234 C1259 0.951 . S
H1235 C1261 0.950 1_455 S
H1236 C1262 0.950 . S
H1237 C1264 0.950 . S
H1238 C1267 0.950 . S
H1239 C1268 0.950 . S
H1240 C1270 0.950 . S
H1241 C1271 0.950 . S
C1242 H1224 0.951 . S
C1242 C1243 1.366 . S
C1242 C1244 1.388 . S
C1243 C1242 1.366 . S
C1243 C1247 1.385 . S
C1244 H1225 0.951 . S
C1244 C1242 1.388 . S
C1244 C1245 1.366 . S
C1245 C1244 1.366 . S
C1245 C1246 1.414 . S
C1245 C1248 1.499 . S
C1246 H1226 0.950 . S
C1246 C1245 1.414 . S
C1246 C1247 1.374 . S
C1247 H1227 0.950 . S
C1247 C1243 1.385 . S
C1247 C1246 1.374 . S
C1248 C1245 1.499 . S
C1248 C1249 1.373 . S
C1248 C1250 1.389 . S
C1249 H1228 0.950 . S
C1249 C1248 1.373 . S
C1249 C1265 1.377 . S
C1250 C1248 1.389 . S
C1250 C1251 1.524 . S
C1250 C1264 1.377 . S
C1251 C1250 1.524 . S
C1251 C1252 1.397 . S
C1251 C1256 1.363 1_655 S
C1252 H1229 0.950 . S
C1252 C1251 1.397 . S
C1252 C1253 1.334 . S
C1253 H1230 0.950 . S
C1253 C1252 1.334 . S
C1253 C1254 1.287 1_655 S
C1254 C1253 1.287 1_455 S
C1254 C1255 1.524 . S
C1254 H1273 0.913 . S
C1255 H1231 0.950 . S
C1255 C1254 1.524 . S
C1255 C1256 1.415 . S
C1256 H1232 0.950 . S
C1256 C1251 1.363 1_455 S
C1256 C1255 1.415 . S
C1257 H1233 0.951 . S
C1257 C1258 1.366 . S
C1257 C1259 1.388 . S
C1258 C1257 1.366 . S
C1258 C1262 1.385 1_655 S
C1259 H1234 0.951 . S
C1259 C1257 1.388 . S
C1259 C1260 1.366 . S
C1260 C1259 1.366 . S
C1260 C1261 1.414 . S
C1260 C1263 1.499 . S
C1261 H1235 0.950 1_655 S
C1261 C1260 1.414 . S
C1261 C1262 1.374 1_655 S
C1262 H1236 0.950 . S
C1262 C1258 1.385 1_455 S
C1262 C1261 1.374 1_455 S
C1263 C1260 1.499 . S
C1263 C1264 1.373 . S
C1263 C1265 1.389 . S
C1264 H1237 0.950 . S
C1264 C1250 1.377 . S
C1264 C1263 1.373 . S
C1265 C1249 1.377 . S
C1265 C1263 1.389 . S
C1265 C1266 1.524 . S
C1266 C1265 1.524 . S
C1266 C1267 1.397 1_556 S
C1266 C1271 1.363 . S
C1267 H1238 0.950 . S
C1267 C1266 1.397 1_554 S
C1267 C1268 1.334 . S
C1268 H1239 0.950 . S
C1268 C1267 1.334 . S
C1268 C1269 1.287 . S
C1269 C1268 1.287 . S
C1269 C1270 1.524 1_554 S
C1269 H1272 0.999 . S
C1270 H1240 0.950 . S
C1270 C1269 1.524 1_556 S
C1270 C1271 1.415 . S
C1271 H1241 0.950 . S
C1271 C1266 1.363 . S
C1271 C1270 1.415 . S
H1272 C1269 0.999 . S
H1273 C1254 0.913 . S
H1274 C1292 0.951 . S
H1275 C1294 0.951 . S
H1276 C1296 0.950 . S
H1277 C1297 0.950 . S
H1278 C1299 0.950 . S
H1279 C1302 0.950 . S
H1280 C1303 0.950 . S
H1281 C1305 0.950 . S
H1282 C1306 0.950 . S
H1283 C1307 0.951 . S
H1284 C1309 0.951 . S
H1285 C1311 0.950 . S
H1286 C1312 0.950 . S
H1287 C1314 0.950 . S
H1288 C1317 0.950 . S
H1289 C1318 0.950 . S
H1290 C1320 0.950 . S
H1291 C1321 0.950 . S
C1292 H1274 0.951 . S
C1292 C1293 1.366 . S
C1292 C1294 1.388 . S
C1293 C1292 1.366 . S
C1293 C1297 1.385 . S
C1294 H1275 0.951 . S
C1294 C1292 1.388 . S
C1294 C1295 1.366 . S
C1295 C1294 1.366 . S
C1295 C1296 1.414 . S
C1295 C1298 1.499 . S
C1296 H1276 0.950 . S
C1296 C1295 1.414 . S
C1296 C1297 1.374 . S
C1297 H1277 0.950 . S
C1297 C1293 1.385 . S
C1297 C1296 1.374 . S
C1298 C1295 1.499 . S
C1298 C1299 1.373 . S
C1298 C1300 1.389 . S
C1299 H1278 0.950 . S
C1299 C1298 1.373 . S
C1299 C1315 1.377 . S
C1300 C1298 1.389 . S
C1300 C1301 1.524 . S
C1300 C1314 1.377 . S
C1301 C1300 1.524 . S
C1301 C1302 1.397 . S
C1301 C1306 1.363 . S
C1302 H1279 0.950 . S
C1302 C1301 1.397 . S
C1302 C1303 1.334 . S
C1303 H1280 0.950 . S
C1303 C1302 1.334 . S
C1303 C1304 1.287 . S
C1304 C1303 1.287 . S
C1304 C1305 1.524 . S
C1304 H1323 0.913 . S
C1305 H1281 0.950 . S
C1305 C1304 1.524 . S
C1305 C1306 1.415 . S
C1306 H1282 0.950 . S
C1306 C1301 1.363 . S
C1306 C1305 1.415 . S
C1307 H1283 0.951 . S
C1307 C1308 1.366 . S
C1307 C1309 1.388 . S
C1308 C1307 1.366 . S
C1308 C1312 1.385 . S
C1309 H1284 0.951 . S
C1309 C1307 1.388 . S
C1309 C1310 1.366 . S
C1310 C1309 1.366 . S
C1310 C1311 1.414 . S
C1310 C1313 1.499 . S
C1311 H1285 0.950 . S
C1311 C1310 1.414 . S
C1311 C1312 1.374 . S
C1312 H1286 0.950 . S
C1312 C1308 1.385 . S
C1312 C1311 1.374 . S
C1313 C1310 1.499 . S
C1313 C1314 1.373 . S
C1313 C1315 1.389 . S
C1314 H1287 0.950 . S
C1314 C1300 1.377 . S
C1314 C1313 1.373 . S
C1315 C1299 1.377 . S
C1315 C1313 1.389 . S
C1315 C1316 1.524 . S
C1316 C1315 1.524 . S
C1316 C1317 1.397 . S
C1316 C1321 1.363 . S
C1317 H1288 0.950 . S
C1317 C1316 1.397 . S
C1317 C1318 1.334 . S
C1318 H1289 0.950 . S
C1318 C1317 1.334 . S
C1318 C1319 1.287 . S
C1319 C1318 1.287 . S
C1319 C1320 1.524 . S
C1319 H1322 0.999 . S
C1320 H1290 0.950 . S
C1320 C1319 1.524 . S
C1320 C1321 1.415 . S
C1321 H1291 0.950 . S
C1321 C1316 1.363 . S
C1321 C1320 1.415 . S
H1322 C1319 0.999 . S
H1323 C1304 0.913 . S
H1324 C1342 0.951 . S
H1325 C1344 0.951 . S
H1326 C1346 0.950 . S
H1327 C1347 0.950 . S
H1328 C1349 0.950 . S
H1329 C1352 0.950 . S
H1330 C1353 0.950 . S
H1331 C1355 0.950 . S
H1332 C1356 0.950 . S
H1333 C1357 0.951 . S
H1334 C1359 0.951 . S
H1335 C1361 0.950 . S
H1336 C1362 0.950 . S
H1337 C1364 0.950 . S
H1338 C1367 0.950 . S
H1339 C1368 0.950 . S
H1340 C1370 0.950 . S
H1341 C1371 0.950 . S
C1342 H1324 0.951 . S
C1342 C1343 1.366 . S
C1342 C1344 1.388 . S
C1343 C1342 1.366 . S
C1343 C1347 1.385 . S
C1344 H1325 0.951 . S
C1344 C1342 1.388 . S
C1344 C1345 1.366 . S
C1345 C1344 1.366 . S
C1345 C1346 1.414 . S
C1345 C1348 1.499 . S
C1346 H1326 0.950 . S
C1346 C1345 1.414 . S
C1346 C1347 1.374 . S
C1347 H1327 0.950 . S
C1347 C1343 1.385 . S
C1347 C1346 1.374 . S
C1348 C1345 1.499 . S
C1348 C1349 1.373 . S
C1348 C1350 1.389 . S
C1349 H1328 0.950 . S
C1349 C1348 1.373 . S
C1349 C1365 1.377 . S
C1350 C1348 1.389 . S
C1350 C1351 1.524 . S
C1350 C1364 1.377 . S
C1351 C1350 1.524 . S
C1351 C1352 1.397 . S
C1351 C1356 1.363 . S
C1352 H1329 0.950 . S
C1352 C1351 1.397 . S
C1352 C1353 1.334 . S
C1353 H1330 0.950 . S
C1353 C1352 1.334 . S
C1353 C1354 1.287 . S
C1354 C1353 1.287 . S
C1354 C1355 1.524 . S
C1354 H1373 0.913 . S
C1355 H1331 0.950 . S
C1355 C1354 1.524 . S
C1355 C1356 1.415 . S
C1356 H1332 0.950 . S
C1356 C1351 1.363 . S
C1356 C1355 1.415 . S
C1357 H1333 0.951 . S
C1357 C1358 1.366 . S
C1357 C1359 1.388 . S
C1358 C1357 1.366 . S
C1358 C1362 1.385 . S
C1359 H1334 0.951 . S
C1359 C1357 1.388 . S
C1359 C1360 1.366 . S
C1360 C1359 1.366 . S
C1360 C1361 1.414 . S
C1360 C1363 1.499 . S
C1361 H1335 0.950 . S
C1361 C1360 1.414 . S
C1361 C1362 1.374 . S
C1362 H1336 0.950 . S
C1362 C1358 1.385 . S
C1362 C1361 1.374 . S
C1363 C1360 1.499 . S
C1363 C1364 1.373 . S
C1363 C1365 1.389 . S
C1364 H1337 0.950 . S
C1364 C1350 1.377 . S
C1364 C1363 1.373 . S
C1365 C1349 1.377 . S
C1365 C1363 1.389 . S
C1365 C1366 1.524 . S
C1366 C1365 1.524 . S
C1366 C1367 1.397 . S
C1366 C1371 1.363 . S
C1367 H1338 0.950 . S
C1367 C1366 1.397 . S
C1367 C1368 1.334 1_455 S
C1368 H1339 0.950 . S
C1368 C1367 1.334 1_655 S
C1368 C1369 1.287 1_655 S
C1369 C1368 1.287 1_455 S
C1369 C1370 1.524 . S
C1369 H1372 0.999 1_455 S
C1370 H1340 0.950 . S
C1370 C1369 1.524 . S
C1370 C1371 1.415 . S
C1371 H1341 0.950 . S
C1371 C1366 1.363 . S
C1371 C1370 1.415 . S
H1372 C1369 0.999 1_655 S
H1373 C1354 0.913 . S
H1374 C1392 0.951 . S
H1375 C1394 0.951 . S
H1376 C1396 0.950 . S
H1377 C1397 0.950 . S
H1378 C1399 0.950 . S
H1379 C1402 0.950 . S
H1380 C1403 0.950 . S
H1381 C1405 0.950 . S
H1382 C1406 0.950 . S
H1383 C1407 0.951 . S
H1384 C1409 0.951 . S
H1385 C1411 0.950 . S
H1386 C1412 0.950 . S
H1387 C1414 0.950 . S
H1388 C1417 0.950 . S
H1389 C1418 0.950 . S
H1390 C1420 0.950 . S
H1391 C1421 0.950 . S
C1392 H1374 0.951 . S
C1392 C1393 1.366 . S
C1392 C1394 1.388 . S
C1393 C1392 1.366 . S
C1393 C1397 1.385 . S
C1394 H1375 0.951 . S
C1394 C1392 1.388 . S
C1394 C1395 1.366 . S
C1395 C1394 1.366 . S
C1395 C1396 1.414 . S
C1395 C1398 1.499 . S
C1396 H1376 0.950 . S
C1396 C1395 1.414 . S
C1396 C1397 1.374 . S
C1397 H1377 0.950 . S
C1397 C1393 1.385 . S
C1397 C1396 1.374 . S
C1398 C1395 1.499 . S
C1398 C1399 1.373 . S
C1398 C1400 1.389 . S
C1399 H1378 0.950 . S
C1399 C1398 1.373 . S
C1399 C1415 1.377 . S
C1400 C1398 1.389 . S
C1400 C1401 1.524 . S
C1400 C1414 1.377 . S
C1401 C1400 1.524 . S
C1401 C1402 1.397 . S
C1401 C1406 1.363 . S
C1402 H1379 0.950 . S
C1402 C1401 1.397 . S
C1402 C1403 1.334 . S
C1403 H1380 0.950 . S
C1403 C1402 1.334 . S
C1403 C1404 1.287 . S
C1404 C1403 1.287 . S
C1404 C1405 1.524 . S
C1404 H1423 0.913 . S
C1405 H1381 0.950 . S
C1405 C1404 1.524 . S
C1405 C1406 1.415 . S
C1406 H1382 0.950 . S
C1406 C1401 1.363 . S
C1406 C1405 1.415 . S
C1407 H1383 0.951 . S
C1407 C1408 1.366 . S
C1407 C1409 1.388 . S
C1408 C1407 1.366 . S
C1408 C1412 1.385 . S
C1409 H1384 0.951 . S
C1409 C1407 1.388 . S
C1409 C1410 1.366 . S
C1410 C1409 1.366 . S
C1410 C1411 1.414 . S
C1410 C1413 1.499 . S
C1411 H1385 0.950 . S
C1411 C1410 1.414 . S
C1411 C1412 1.374 . S
C1412 H1386 0.950 . S
C1412 C1408 1.385 . S
C1412 C1411 1.374 . S
C1413 C1410 1.499 . S
C1413 C1414 1.373 . S
C1413 C1415 1.389 . S
C1414 H1387 0.950 . S
C1414 C1400 1.377 . S
C1414 C1413 1.373 . S
C1415 C1399 1.377 . S
C1415 C1413 1.389 . S
C1415 C1416 1.524 . S
C1416 C1415 1.524 . S
C1416 C1417 1.397 . S
C1416 C1421 1.363 . S
C1417 H1388 0.950 . S
C1417 C1416 1.397 . S
C1417 C1418 1.334 . S
C1418 H1389 0.950 . S
C1418 C1417 1.334 . S
C1418 C1419 1.287 . S
C1419 C1418 1.287 . S
C1419 C1420 1.524 . S
C1419 H1422 0.999 . S
C1420 H1390 0.950 . S
C1420 C1419 1.524 . S
C1420 C1421 1.415 . S
C1421 H1391 0.950 . S
C1421 C1416 1.363 . S
C1421 C1420 1.415 . S
H1422 C1419 0.999 . S
H1423 C1404 0.913 . S
C243 C4 2.542 . S
C258 C88 2.547 . S
C293 C16 2.652 . S
C308 C130 2.661 . S
C358 C160 0.510 . S
C343 C32 0.515 . S
C393 C43 0.835 . S
C408 C194 0.840 . S
C458 C151 2.370 . S
C443 C5 2.359 . S
C508 C105 1.642 . S
C493 C21 1.630 . S
C558 C198 1.087 . S
C543 C27 1.079 . S
C608 C164 1.153 . S
C593 C37 1.146 . S
C643 C10 2.224 . S
C658 C219 2.242 . S
C708 C126 1.166 . S
C693 C26 1.155 . S
C743 C38 0.850 . S
C758 C101 0.852 . S
C793 C15 2.363 . S
C808 C185 2.370 . S
C858 C117 2.693 . S
C843 C48 2.687 . S
C893 C59 2.397 . S
C908 C139 2.413 . S
C943 C76 0.792 . S
C958 C169 0.793 . S
C993 C87 0.645 . S
C1008 C203 0.641 . S
C1043 C54 1.689 . S
C1058 C122 1.705 . S
C1108 C96 2.316 . S
C1093 C60 2.302 . S
C1158 C207 1.073 . S
C1143 C71 1.060 . S
C1208 C173 1.122 . S
C1193 C82 1.114 . S
C1243 C49 2.527 . S
C1258 C190 2.536 . S
C1308 C135 0.791 . S
C1293 C70 0.791 . S
C1358 C92 1.132 . S
C1343 C81 1.125 . S
C1393 C65 2.160 . S
C1408 C156 2.170 . S
