# Generated by pormake.
# Topology ssa, (4,4)-cn, num edge types: 1
# Building blocks:
#     Node 0, Type 0, BuildingBlock: ESEHIV_clean_sbu_0, # of connection points: 4
#     Node 1, Type 0, BuildingBlock: ESEHIV_clean_sbu_0, # of connection points: 4
#     Node 2, Type 0, BuildingBlock: ESEHIV_clean_sbu_0, # of connection points: 4
#     Node 3, Type 0, BuildingBlock: ESEHIV_clean_sbu_0, # of connection points: 4
#     Node 4, Type 0, BuildingBlock: ESEHIV_clean_sbu_0, # of connection points: 4
#     Node 5, Type 0, BuildingBlock: ESEHIV_clean_sbu_0, # of connection points: 4
#     Node 6, Type 1, BuildingBlock: KUFVIS_clean_linker_0, # of connection points: 4
#     Node 7, Type 1, BuildingBlock: KUFVIS_clean_linker_0, # of connection points: 4
#     Node 8, Type 1, BuildingBlock: KUFVIS_clean_linker_0, # of connection points: 4
#     Node 9, Type 1, BuildingBlock: KUFVIS_clean_linker_0, # of connection points: 4
#     Node 10, Type 1, BuildingBlock: KUFVIS_clean_linker_0, # of connection points: 4
#     Node 11, Type 1, BuildingBlock: KUFVIS_clean_linker_0, # of connection points: 4
#     Edge 12, Type (0, 1), BuildingBlock: EZIPEK_clean_linker_0, # of connection points: 2
#     Edge 13, Type (0, 1), BuildingBlock: EZIPEK_clean_linker_0, # of connection points: 2
#     Edge 14, Type (0, 1), BuildingBlock: EZIPEK_clean_linker_0, # of connection points: 2
#     Edge 15, Type (0, 1), BuildingBlock: EZIPEK_clean_linker_0, # of connection points: 2
#     Edge 16, Type (0, 1), BuildingBlock: EZIPEK_clean_linker_0, # of connection points: 2
#     Edge 17, Type (0, 1), BuildingBlock: EZIPEK_clean_linker_0, # of connection points: 2
#     Edge 18, Type (0, 1), BuildingBlock: EZIPEK_clean_linker_0, # of connection points: 2
#     Edge 19, Type (0, 1), BuildingBlock: EZIPEK_clean_linker_0, # of connection points: 2
#     Edge 20, Type (0, 1), BuildingBlock: EZIPEK_clean_linker_0, # of connection points: 2
#     Edge 21, Type (0, 1), BuildingBlock: EZIPEK_clean_linker_0, # of connection points: 2
#     Edge 22, Type (0, 1), BuildingBlock: EZIPEK_clean_linker_0, # of connection points: 2
#     Edge 23, Type (0, 1), BuildingBlock: EZIPEK_clean_linker_0, # of connection points: 2
#     Edge 24, Type (0, 1), BuildingBlock: EZIPEK_clean_linker_0, # of connection points: 2
#     Edge 25, Type (0, 1), BuildingBlock: EZIPEK_clean_linker_0, # of connection points: 2
#     Edge 26, Type (0, 1), BuildingBlock: EZIPEK_clean_linker_0, # of connection points: 2
#     Edge 27, Type (0, 1), BuildingBlock: EZIPEK_clean_linker_0, # of connection points: 2
#     Edge 28, Type (0, 1), BuildingBlock: EZIPEK_clean_linker_0, # of connection points: 2
#     Edge 29, Type (0, 1), BuildingBlock: EZIPEK_clean_linker_0, # of connection points: 2
#     Edge 30, Type (0, 1), BuildingBlock: EZIPEK_clean_linker_0, # of connection points: 2
#     Edge 31, Type (0, 1), BuildingBlock: EZIPEK_clean_linker_0, # of connection points: 2
#     Edge 32, Type (0, 1), BuildingBlock: EZIPEK_clean_linker_0, # of connection points: 2
#     Edge 33, Type (0, 1), BuildingBlock: EZIPEK_clean_linker_0, # of connection points: 2
#     Edge 34, Type (0, 1), BuildingBlock: EZIPEK_clean_linker_0, # of connection points: 2
#     Edge 35, Type (0, 1), BuildingBlock: EZIPEK_clean_linker_0, # of connection points: 2
# Relax obj value: 0.008
# Max RMSD: 0.110
# Mean RMSD: 0.075
data_MOF--net-ssa--node1-ESEHIV_clean_sbu_0--node2-KUFVIS_clean_linker_0--edge1-EZIPEK_clean_linker_0
_symmetry_space_group_name_H-M    P1
_symmetry_Int_Tables_number       1
_symmetry_cell_setting            triclinic
loop_
_symmetry_equiv_pos_as_xyz
'x, y, z'
_cell_length_a     38.615056
_cell_length_b     42.010519
_cell_length_c     23.070825
_cell_angle_alpha  87.537542
_cell_angle_beta   91.296586
_cell_angle_gamma 122.99933
loop_
_atom_site_label
_atom_site_type_symbol
_atom_site_fract_x
_atom_site_fract_y
_atom_site_fract_z
_atom_type_partial_charge
Cu0 Cu 1.02836 0.52418 0.02852 0.0
N1 N 0.9837 0.47353 0.03409 0.0
N2 N 0.93345 0.41717 0.00205 0.0
C3 C 0.96805 0.45092 0.98824 0.0
C4 C 0.92687 0.41824 0.0589 0.0
C5 C 0.95801 0.45325 0.07862 0.0
O6 O 1.01823 0.54113 0.95245 0.0
C7 C 0.11729 0.55139 0.0329 0.0
O8 O 0.12514 0.58079 -0.00031 0.0
H9 H 0.98102 0.45954 0.94498 0.0
H10 H 0.96096 0.4636 0.12174 0.0
N11 N 1.02565 0.55403 0.08419 0.0
N12 N 0.05424 0.61099 0.12319 0.0
C13 C 0.05987 0.58355 0.10735 0.0
C14 C 0.99642 0.562 0.08879 0.0
C15 C 1.01425 0.59752 0.11153 0.0
C16 C 1.0162 0.57048 0.94615 0.0
O17 O 1.0362 0.59813 0.98204 0.0
H18 H 0.08956 0.58684 0.10655 0.0
H19 H 0.966 0.5458 0.06991 0.0
O20 O 0.07975 0.52503 0.04398 0.0
H21 H 0.90096 0.39578 0.08376 0.0
H22 H 0.99982 0.61339 0.1149 0.0
Cu23 Cu 0.50622 1.02133 0.51509 0.0
N24 N 0.52139 1.00849 0.44782 0.0
N25 N 0.53423 0.97226 0.39597 0.0
C26 C 0.52356 0.97752 0.44806 0.0
C27 C 0.53884 1.00093 0.361 0.0
C28 C 0.53073 1.02332 0.39321 0.0
O29 O 0.45742 0.97258 0.53843 0.0
C30 C 0.58667 0.07105 0.54529 0.0
O31 O 0.58778 0.08091 0.49024 0.0
H32 H 0.51763 0.95922 0.48603 0.0
H33 H 0.53153 0.04842 0.37794 0.0
N34 N 0.49392 0.05903 0.51014 0.0
N35 N 0.48628 0.10405 0.54413 0.0
C36 C 0.49524 0.07773 0.55711 0.0
C37 C 0.48359 0.07409 0.46557 0.0
C38 C 0.47852 0.10178 0.48662 0.0
C39 C 0.42714 0.96174 0.50372 0.0
O40 O 0.42909 0.98686 0.46571 0.0
H41 H 0.50308 0.07238 0.60021 0.0
H42 H 0.48004 0.06565 0.42109 0.0
O43 O 0.55343 0.04254 0.56668 0.0
H44 H 0.54725 1.0052 0.31558 0.0
H45 H 0.47028 0.11913 0.4617 0.0
Cu46 Cu 0.57469 0.55013 -0.00202 0.0
N47 N 0.55999 0.50112 0.02261 0.0
N48 N 0.54099 0.441 0.01292 0.0
C49 C 0.55078 0.47377 0.98533 0.0
C50 C 0.54354 0.4475 0.07004 0.0
C51 C 0.55546 0.48485 0.07595 0.0
O52 O 0.61558 0.5652 0.93688 0.0
C53 C 0.49624 0.53181 0.01088 0.0
O54 O 0.50321 0.51964 0.06039 0.0
H55 H 0.5515 0.47789 0.93861 0.0
H56 H 0.56011 0.49894 0.1162 0.0
N57 N 0.59495 0.5854 0.05732 0.0
N58 N 0.60111 0.63114 0.1119 0.0
C59 C 0.58801 0.61352 0.06097 0.0
C60 C 0.61367 0.5857 0.10743 0.0
C61 C 0.61753 0.61391 0.14116 0.0
C62 C 0.64762 0.56464 0.94939 0.0
O63 O 0.65417 0.5584 0.00358 0.0
H64 H 0.57211 0.61994 0.028 0.0
H65 H 0.62262 0.56599 0.11946 0.0
O66 O 0.52422 0.5462 0.97202 0.0
H67 H 0.53743 0.42687 0.10466 0.0
H68 H 0.63033 0.6206 0.18446 0.0
Cu69 Cu 1.03753 0.47898 0.49999 0.0
N70 N 0.0711 0.46098 0.48421 0.0
N71 N 0.12958 0.46953 0.44962 0.0
C72 C 0.11224 0.47776 0.49223 0.0
C73 C 0.09788 0.4458 0.4153 0.0
C74 C 0.06254 0.44111 0.43596 0.0
O75 O 0.05822 0.52258 0.44416 0.0
C76 C 0.96772 0.40208 0.51802 0.0
O77 O 0.99037 0.39003 0.49964 0.0
H78 H 0.12908 0.49737 0.52619 0.0
H79 H 1.03377 0.42875 0.41233 0.0
N80 N 0.04106 0.50064 0.56978 0.0
N81 N 1.00372 0.51664 0.61857 0.0
C82 C 1.02183 0.5194 0.56807 0.0
C83 C 1.0358 0.48603 0.62437 0.0
C84 C 1.01299 0.49624 0.65491 0.0
C85 C 0.09413 0.55094 0.45767 0.0
O86 O 0.11123 0.54893 0.5063 0.0
H87 H 1.01487 0.52902 0.52781 0.0
H88 H 0.04251 0.4651 0.63853 0.0
O89 O 0.97878 0.43646 0.50598 0.0
H90 H 0.1009 0.43605 0.37412 0.0
H91 H 0.99986 0.48552 0.69774 0.0
Cu92 Cu 0.54703 0.03141 0.0549 0.0
N93 N 0.53831 0.07086 0.06294 0.0
N94 N 0.5263 0.1152 0.03261 0.0
C95 C 0.52614 0.0844 0.01851 0.0
C96 C 0.53707 0.12043 0.08912 0.0
C97 C 0.54474 0.093 0.10775 0.0
O98 O 0.55115 0.02611 0.97126 0.0
C99 C 0.4811 0.95151 0.08366 0.0
O100 O 0.49425 0.94118 0.04076 0.0
H101 H 0.52004 0.07343 0.97529 0.0
H102 H 0.55569 0.09031 0.15009 0.0
N103 N 0.59452 0.03705 0.08896 0.0
N104 N 0.63058 1.01067 0.11048 0.0
C105 C 0.59341 1.00649 0.11176 0.0
C106 C 0.63446 0.06206 0.07443 0.0
C107 C 0.65664 0.04566 0.087 0.0
C108 C 0.5771 0.04006 0.9288 0.0
O109 O 0.56309 1.02471 0.87823 0.0
H110 H 0.56501 0.97984 0.12243 0.0
H111 H 0.64626 0.08876 0.05105 0.0
O112 O 0.49869 0.98673 0.09363 0.0
H113 H 0.54114 0.14349 0.11404 0.0
H114 H 0.68853 0.05727 0.07564 0.0
Cu115 Cu 0.55907 0.54293 0.49683 0.0
N116 N 0.5653 0.58629 0.5269 0.0
N117 N 0.56984 0.64146 0.51907 0.0
C118 C 0.57645 0.61721 0.49315 0.0
C119 C 0.55486 0.62588 0.57221 0.0
C120 C 0.55228 0.59167 0.57711 0.0
O121 O 0.53329 0.53776 0.42006 0.0
C122 C 0.64833 0.57598 0.49027 0.0
O123 O 0.65243 0.60332 0.45525 0.0
H124 H 0.58599 0.62042 0.44849 0.0
H125 H 0.53898 0.57107 0.6129 0.0
N126 N 0.5246 0.49949 0.54275 0.0
N127 N 0.50734 0.44728 0.59598 0.0
C128 C 0.53194 0.47193 0.55363 0.0
C129 C 0.49345 0.49139 0.57839 0.0
C130 C 0.48278 0.45911 0.61149 0.0
C131 C 0.5 0.53758 0.42031 0.0
O132 O 0.48494 0.53851 0.47018 0.0
H133 H 0.55683 0.47148 0.53388 0.0
H134 H 0.48085 0.50872 0.58227 0.0
O135 O 0.6124 0.548 0.50405 0.0
H136 H 0.5436 0.63689 0.60308 0.0
H137 H 0.46021 0.44636 0.64614 0.0
H138 H 0.43654 0.53747 0.16976 0.0
H139 H 0.35623 0.54356 0.28577 0.0
H140 H 0.32955 0.53195 0.10085 0.0
H141 H 0.2866 0.54978 0.11765 0.0
H142 H 0.19034 0.52261 0.23799 0.0
H143 H 0.29131 0.51524 0.29637 0.0
C144 C 0.4091 0.53792 0.17673 0.0
C145 C 0.38497 0.53612 0.12935 0.0
C146 C 0.3982 0.53976 0.23296 0.0
C147 C 0.36266 0.54044 0.24181 0.0
C148 C 0.33624 0.53698 0.19481 0.0
C149 C 0.34844 0.53511 0.1382 0.0
C150 C 0.29561 0.53355 0.20543 0.0
C151 C 0.27393 0.54047 0.16089 0.0
C152 C 0.23553 0.53593 0.1723 0.0
C153 C 0.21933 0.52545 0.22857 0.0
C154 C 0.24006 0.5187 0.27296 0.0
C155 C 0.27742 0.52226 0.26119 0.0
H156 H 0.66675 0.11292 0.7645 0.0
H157 H 0.76525 0.20349 0.85921 0.0
H158 H 0.75355 0.21589 0.67282 0.0
H159 H 0.81858 0.26089 0.67394 0.0
H160 H 0.89632 0.36304 0.76487 0.0
H161 H 0.79974 0.26523 0.85766 0.0
C162 C 0.69482 0.14113 0.76494 0.0
C163 C 0.70949 0.1624 0.71329 0.0
C164 C 0.71415 0.15603 0.81743 0.0
C165 C 0.75037 0.19298 0.81795 0.0
C166 C 0.76597 0.21592 0.76576 0.0
C167 C 0.74456 0.19965 0.71347 0.0
C168 C 0.80279 0.25688 0.7656 0.0
C169 C 0.82543 0.27581 0.71381 0.0
C170 C 0.85842 0.31428 0.71309 0.0
C171 C 0.8701 0.33384 0.76477 0.0
C172 C 0.84964 0.31575 0.81683 0.0
C173 C 0.8157 0.27781 0.81703 0.0
H174 H 0.58108 0.69558 0.301 0.0
H175 H 0.58645 0.7801 0.18366 0.0
H176 H 0.57859 0.78716 0.3697 0.0
H177 H 0.54795 0.81769 0.3449 0.0
H178 H 0.58698 0.91958 0.24462 0.0
H179 H 0.62097 0.84444 0.18824 0.0
C180 C 0.58139 0.72142 0.29362 0.0
C181 C 0.57862 0.73954 0.34085 0.0
C182 C 0.58478 0.73607 0.23716 0.0
C183 C 0.5848 0.76955 0.2278 0.0
C184 C 0.58229 0.78877 0.27537 0.0
C185 C 0.5795 0.7732 0.33199 0.0
C186 C 0.58316 0.82505 0.26666 0.0
C187 C 0.56423 0.8357 0.30733 0.0
C188 C 0.56641 0.87021 0.29959 0.0
C189 C 0.58571 0.89315 0.25066 0.0
C190 C 0.60539 0.88413 0.21095 0.0
C191 C 0.60444 0.85031 0.21875 0.0
H192 H 0.93676 0.55193 0.74711 0.0
H193 H 0.8585 0.58325 0.81695 0.0
H194 H 0.8411 0.54452 0.64001 0.0
H195 H 0.80875 0.57433 0.62596 0.0
H196 H 0.70941 0.57428 0.70508 0.0
H197 H 0.79252 0.56133 0.81318 0.0
C198 C 0.91104 0.55557 0.74156 0.0
C199 C 0.89102 0.54822 0.68856 0.0
C200 C 0.89934 0.56773 0.78751 0.0
C201 C 0.86616 0.57269 0.78074 0.0
C202 C 0.8437 0.56418 0.72745 0.0
C203 C 0.857 0.55185 0.68121 0.0
C204 C 0.80651 0.5675 0.72062 0.0
C205 C 0.79244 0.57193 0.66505 0.0
C206 C 0.75701 0.5737 0.65945 0.0
C207 C 0.73637 0.5725 0.70922 0.0
C208 C 0.74977 0.56897 0.76428 0.0
C209 C 0.78413 0.56578 0.76998 0.0
H210 H 0.14455 0.66059 0.27058 0.0
H211 H 0.23436 0.77451 0.21142 0.0
H212 H 0.25651 0.7265 0.36711 0.0
H213 H 0.28604 0.79405 0.38758 0.0
H214 H 0.3919 0.89296 0.3094 0.0
H215 H 0.30896 0.79936 0.20357 0.0
C216 C 0.17435 0.68693 0.27588 0.0
C217 C 0.19839 0.69005 0.32353 0.0
C218 C 0.18679 0.71705 0.23596 0.0
C219 C 0.2253 0.75104 0.24221 0.0
C220 C 0.2516 0.75486 0.28877 0.0
C221 C 0.2375 0.72408 0.33019 0.0
C222 C 0.29239 0.79177 0.29496 0.0
C223 C 0.30498 0.80848 0.34951 0.0
C224 C 0.34081 0.84499 0.35464 0.0
C225 C 0.36488 0.86447 0.30542 0.0
C226 C 0.35434 0.84802 0.2511 0.0
C227 C 0.31767 0.81181 0.24581 0.0
H228 H 0.51422 0.37926 0.80117 0.0
H229 H 0.5029 0.28249 0.88724 0.0
H230 H 0.51061 0.2953 0.6986 0.0
H231 H 0.49072 0.23684 0.69632 0.0
H232 H 0.50025 0.15015 0.78438 0.0
H233 H 0.5185 0.24228 0.88068 0.0
C234 C 0.51171 0.35232 0.79869 0.0
C235 C 0.51071 0.33826 0.74465 0.0
C236 C 0.51031 0.33273 0.84958 0.0
C237 C 0.50607 0.29743 0.84654 0.0
C238 C 0.5063 0.28254 0.79221 0.0
C239 C 0.50917 0.30413 0.74123 0.0
C240 C 0.5044 0.24547 0.78909 0.0
C241 C 0.49656 0.22623 0.73628 0.0
C242 C 0.49616 0.19246 0.73413 0.0
C243 C 0.50133 0.17646 0.78545 0.0
C244 C 0.50821 0.19426 0.83808 0.0
C245 C 0.51088 0.22884 0.83947 0.0
C246 C 0.18235 0.58027 0.09565 0.0
C247 C 0.15202 0.54987 0.06138 0.0
C248 C 0.18072 0.51189 0.09371 0.0
C249 C 0.21126 0.54248 0.12682 0.0
N250 N 0.24688 0.60837 0.14937 0.0
N251 N 0.12924 0.49059 0.01717 0.0
C252 C 0.21393 0.57753 0.12425 0.0
C253 C 0.15332 0.51681 0.05731 0.0
N254 N 0.17968 0.61086 0.10429 0.0
N255 N 0.17693 0.4776 0.09863 0.0
H256 H 0.10973 0.49371 0.98891 0.0
H257 H 0.13152 0.46776 0.00791 0.0
H258 H 0.19746 0.47346 0.12269 0.0
H259 H 0.15219 0.45279 0.08173 0.0
H260 H 0.19712 0.63109 0.13498 0.0
H261 H 0.15792 0.61485 0.08421 0.0
H262 H 0.2533 0.63582 0.14405 0.0
H263 H 0.2701 0.60711 0.1712 0.0
C264 C 0.62693 0.13195 0.5976 0.0
C265 C 0.62142 0.09691 0.58324 0.0
C266 C 0.68346 0.1131 0.63866 0.0
C267 C 0.68483 0.14489 0.66032 0.0
N268 N 0.65541 0.18277 0.6652 0.0
N269 N 0.64349 0.05318 0.59011 0.0
C270 C 0.65632 0.15422 0.64045 0.0
C271 C 0.64958 0.08726 0.60356 0.0
N272 N 0.60422 0.14415 0.57029 0.0
N273 N 0.71482 0.10795 0.6518 0.0
H274 H 0.61985 0.0343 0.56276 0.0
H275 H 0.66024 0.04256 0.60853 0.0
H276 H 0.7401 0.12681 0.67699 0.0
H277 H 0.71776 0.08723 0.63385 0.0
H278 H 0.61092 0.1716 0.57366 0.0
H279 H 0.5811 0.12825 0.54031 0.0
H280 H 0.63173 0.18741 0.6582 0.0
H281 H 0.67679 0.20033 0.69601 0.0
C282 C 0.63209 0.697 0.14305 0.0
C283 C 0.59647 0.66063 0.13298 0.0
C284 C 0.55309 0.6815 0.17039 0.0
C285 C 0.58895 0.7152 0.18965 0.0
N286 N 0.66303 0.75568 0.19475 0.0
N287 N 0.52285 0.61684 0.14037 0.0
C288 C 0.62865 0.72342 0.17525 0.0
C289 C 0.55676 0.65268 0.14656 0.0
N290 N 0.6691 0.70623 0.12104 0.0
N291 N 0.51554 0.67708 0.17562 0.0
H292 H 0.5245 0.59477 0.12488 0.0
H293 H 0.49353 0.60816 0.15472 0.0
H294 H 0.51228 0.69773 0.19345 0.0
H295 H 0.4885 0.65492 0.15763 0.0
H296 H 0.69586 0.73331 0.12219 0.0
H297 H 0.67207 0.68737 0.09695 0.0
H298 H 0.69272 0.76123 0.19213 0.0
H299 H 0.66153 0.77631 0.21606 0.0
C300 C 0.92941 0.4924 0.6305 0.0
C301 C 0.97108 0.52339 0.62401 0.0
C302 C 0.94783 0.56726 0.6215 0.0
C303 C 0.90896 0.53756 0.64302 0.0
N304 N 0.86048 0.47117 0.66338 0.0
N305 N 1.0204 0.59062 0.61121 0.0
C306 C 0.89873 0.49968 0.64455 0.0
C307 C 0.98031 0.56095 0.61754 0.0
N308 N 0.91917 0.45633 0.62183 0.0
N309 N 0.95384 0.60193 0.60868 0.0
H310 H 0.0449 0.5868 0.61014 0.0
H311 H 1.02973 0.61899 0.6113 0.0
H312 H 0.92997 0.60647 0.61275 0.0
H313 H 0.98061 0.62461 0.58949 0.0
H314 H 0.88885 0.43292 0.62151 0.0
H315 H 0.94073 0.45038 0.60911 0.0
H316 H 0.85241 0.44347 0.67278 0.0
H317 H 0.8373 0.47608 0.67152 0.0
C318 C 0.44827 0.89285 0.15134 0.0
C319 C 0.44606 0.92214 0.12164 0.0
C320 C 0.38073 0.90009 0.17256 0.0
C321 C 0.38231 0.8701 0.20051 0.0
N322 N 0.41242 0.83279 0.20651 0.0
N323 N 0.40528 0.94797 0.09419 0.0
C324 C 0.41436 0.86478 0.18638 0.0
C325 C 0.41082 0.92411 0.12948 0.0
N326 N 0.48379 0.89309 0.14931 0.0
N327 N 0.35089 0.90615 0.18813 0.0
H328 H 0.42599 0.96523 0.06135 0.0
H329 H 0.37839 0.94808 0.09362 0.0
H330 H 0.32703 0.88791 0.21682 0.0
H331 H 0.35103 0.93027 0.17518 0.0
H332 H 0.48914 0.87544 0.17567 0.0
H333 H 0.50958 0.91318 0.12513 0.0
H334 H 0.43236 0.82516 0.1928 0.0
H335 H 0.38867 0.81218 0.2333 0.0
C336 C 0.54712 0.42713 0.65511 0.0
C337 C 0.51053 0.4178 0.62477 0.0
C338 C 0.47601 0.35201 0.6627 0.0
C339 C 0.51273 0.36144 0.69268 0.0
N340 N 0.58607 0.40406 0.70389 0.0
N341 N 0.44429 0.37017 0.58747 0.0
C342 C 0.54938 0.3977 0.68365 0.0
C343 C 0.47629 0.37971 0.62457 0.0
N344 N 0.57838 0.46427 0.66063 0.0
N345 N 0.4404 0.31747 0.67311 0.0
H346 H 0.4442 0.39005 0.55883 0.0
H347 H 0.41991 0.3423 0.58136 0.0
H348 H 0.43934 0.29616 0.69947 0.0
H349 H 0.41158 0.31065 0.65808 0.0
H350 H 0.60407 0.47288 0.68696 0.0
H351 H 0.57687 0.48686 0.64368 0.0
H352 H 0.61449 0.42896 0.69458 0.0
H353 H 0.58822 0.38274 0.72512 0.0
C354 C 0.50781 0.91068 0.35069 0.0
C355 C 0.53935 0.94193 0.38134 0.0
C356 C 0.58291 0.91599 0.37731 0.0
C357 C 0.5524 0.88622 0.34297 0.0
N358 N 0.48216 0.84882 0.31126 0.0
N359 N 0.60363 0.97157 0.43319 0.0
C360 C 0.5135 0.88145 0.33462 0.0
C361 C 0.57571 0.94339 0.39825 0.0
N362 N 0.47314 0.9099 0.33483 0.0
N363 N 0.61969 0.91907 0.38657 0.0
H364 H 0.60024 0.99322 0.44606 0.0
H365 H 0.62911 0.97278 0.45168 0.0
H366 H 0.62463 0.89826 0.37403 0.0
H367 H 0.64543 0.94215 0.40528 0.0
H368 H 0.45157 0.89077 0.30577 0.0
H369 H 0.4672 0.92984 0.34849 0.0
H370 H 0.45166 0.84133 0.30988 0.0
H371 H 0.48619 0.82744 0.29883 0.0
C372 C 0.70219 0.60077 0.87236 0.0
C373 C 0.67465 0.56603 0.90295 0.0
C374 C 0.69724 0.53317 0.84369 0.0
C375 C 0.72654 0.5683 0.81563 0.0
N376 N 0.76188 0.63644 0.80879 0.0
N377 N 0.65034 0.50021 0.92427 0.0
C378 C 0.73043 0.6024 0.83163 0.0
C379 C 0.67366 0.5326 0.89074 0.0
N380 N 0.70113 0.63212 0.88192 0.0
N381 N 0.69048 0.50007 0.82355 0.0
H382 H 0.63102 0.49774 0.95729 0.0
H383 H 0.65236 0.47657 0.92214 0.0
H384 H 0.70756 0.49928 0.78991 0.0
H385 H 0.66594 0.47326 0.83703 0.0
H386 H 0.71693 0.65712 0.85656 0.0
H387 H 0.68221 0.63242 0.91317 0.0
H388 H 0.76914 0.66266 0.82258 0.0
H389 H 0.78313 0.63859 0.77914 0.0
C390 C 0.12749 0.62132 0.44293 0.0
C391 C 0.11839 0.58641 0.42092 0.0
C392 C 0.17251 0.62196 0.34686 0.0
C393 C 0.17897 0.65663 0.36552 0.0
N394 N 0.15976 0.68931 0.42737 0.0
N395 N 0.12933 0.55288 0.349 0.0
C396 C 0.15598 0.65632 0.41295 0.0
C397 C 0.13996 0.58659 0.37175 0.0
N398 N 0.10895 0.62098 0.49298 0.0
N399 N 0.19795 0.62327 0.30523 0.0
H400 H 0.10636 0.5266 0.36692 0.0
H401 H 0.14122 0.55068 0.31045 0.0
H402 H 0.22234 0.6489 0.2874 0.0
H403 H 0.19733 0.59968 0.29168 0.0
H404 H 0.11803 0.64523 0.51567 0.0
H405 H 0.08548 0.596 0.5135 0.0
H406 H 0.14005 0.69046 0.45601 0.0
H407 H 0.18152 0.71567 0.4083 0.0
C408 C 0.55615 0.17292 0.96837 0.0
C409 C 0.52099 0.1392 0.99172 0.0
C410 C 0.47678 0.14568 0.92049 0.0
C411 C 0.51258 0.1764 0.89257 0.0
N412 N 0.58668 0.21764 0.88625 0.0
N413 N 0.44815 0.09268 0.99095 0.0
C414 C 0.55238 0.18987 0.91586 0.0
C415 C 0.48131 0.12556 0.96817 0.0
N416 N 0.59313 0.18874 0.99649 0.0
N417 N 0.43853 0.13626 0.90193 0.0
H418 H 0.45046 0.07885 0.02809 0.0
H419 H 0.41898 0.0783 0.97207 0.0
H420 H 0.43414 0.15023 0.86686 0.0
H421 H 0.41125 0.11658 0.92359 0.0
H422 H 0.61899 0.2153 0.98517 0.0
H423 H 0.5972 0.17674 0.0343 0.0
H424 H 0.61662 0.22562 0.89706 0.0
H425 H 0.58515 0.23095 0.84795 0.0
C426 C 0.43747 0.50319 0.35621 0.0
C427 C 0.47705 0.53624 0.3665 0.0
C428 C 0.46218 0.57253 0.29522 0.0
C429 C 0.42376 0.53903 0.28221 0.0
N430 N 0.37734 0.47109 0.29358 0.0
N431 N 0.53043 0.60014 0.33724 0.0
C432 C 0.41211 0.50392 0.31084 0.0
C433 C 0.49044 0.57022 0.33323 0.0
N434 N 0.42385 0.4712 0.39058 0.0
N435 N 0.47104 0.60679 0.27273 0.0
H436 H 0.55203 0.59874 0.36311 0.0
H437 H 0.54324 0.62449 0.31036 0.0
H438 H 0.45084 0.60942 0.24522 0.0
H439 H 0.49644 0.63273 0.28539 0.0
H440 H 0.39352 0.4478 0.39059 0.0
H441 H 0.44258 0.46876 0.42136 0.0
H442 H 0.36965 0.44414 0.30782 0.0
H443 H 0.35738 0.47055 0.26184 0.0
C444 C 0.87401 0.38595 0.93476 0.0
C445 C 0.90802 0.38745 0.96233 0.0
C446 C 0.89994 0.33791 0.89999 0.0
C447 C 0.86621 0.33677 0.87162 0.0
N448 N 0.81643 0.3544 0.86739 0.0
N449 N 0.94929 0.36141 0.97968 0.0
C450 C 0.85164 0.35907 0.89099 0.0
C451 C 0.91958 0.36216 0.94754 0.0
N452 N 0.86439 0.41145 0.94912 0.0
N453 N 0.91403 0.31677 0.87996 0.0
H454 H 0.96418 0.37929 0.01421 0.0
H455 H 0.9572 0.34161 0.9752 0.0
H456 H 0.89926 0.29745 0.84707 0.0
H457 H 0.94121 0.31933 0.89393 0.0
H458 H 0.84296 0.4151 0.92699 0.0
H459 H 0.87953 0.43044 0.98225 0.0
H460 H 0.80191 0.36725 0.88253 0.0
H461 H 0.79988 0.33537 0.83474 0.0
C462 C 0.99572 0.60267 0.87129 0.0
C463 C 0.98425 0.57044 0.90831 0.0
C464 C 0.91167 0.54157 0.87882 0.0
C465 C 0.92338 0.5736 0.84175 0.0
N466 N 0.97349 0.63831 0.81363 0.0
N467 N 0.92917 0.51423 0.95921 0.0
C468 C 0.96449 0.60557 0.84237 0.0
C469 C 0.9416 0.54134 0.91566 0.0
N470 N 1.03657 0.62951 0.86132 0.0
N471 N 0.87225 0.51038 0.87636 0.0
H472 H 0.94944 0.512 0.98678 0.0
H473 H 0.89838 0.49594 0.97139 0.0
H474 H 0.84907 0.51048 0.85236 0.0
H475 H 0.86314 0.48409 0.89575 0.0
H476 H 0.04703 0.65177 0.83064 0.0
H477 H 0.06031 0.6277 0.88004 0.0
H478 H 1.00204 0.66388 0.81572 0.0
H479 H 0.95074 0.64051 0.79213 0.0
C480 C 0.40784 0.89528 0.48488 0.0
C481 C 0.39548 0.92092 0.49324 0.0
C482 C 0.33611 0.88461 0.42892 0.0
C483 C 0.3536 0.86437 0.41102 0.0
N484 N 0.40314 0.84682 0.42495 0.0
N485 N 0.34018 0.93088 0.49376 0.0
C486 C 0.38812 0.86804 0.44092 0.0
C487 C 0.35663 0.91211 0.47225 0.0
N488 N 0.43752 0.89647 0.51973 0.0
N489 N 0.3019 0.87966 0.40126 0.0
H490 H 0.35519 0.95065 0.5261 0.0
H491 H 0.31083 0.92483 0.48376 0.0
H492 H 0.28584 0.85938 0.37004 0.0
H493 H 0.29005 0.89633 0.40751 0.0
H494 H 0.4468 0.87747 0.51794 0.0
H495 H 0.44935 0.91368 0.55544 0.0
H496 H 0.43114 0.85126 0.43933 0.0
H497 H 0.38807 0.82542 0.395 0.0
C498 C 0.5616 0.40001 0.9736 0.0
C499 C 0.53031 0.40669 0.98514 0.0
C500 C 0.4818 0.35341 0.92514 0.0
C501 C 0.51501 0.35131 0.90546 0.0
N502 N 0.5868 0.37219 0.91036 0.0
N503 N 0.46045 0.38986 0.9751 0.0
C504 C 0.55485 0.37389 0.93056 0.0
C505 C 0.49007 0.38291 0.96252 0.0
N506 N 0.59795 0.41924 0.00336 0.0
N507 N 0.44259 0.32735 0.90728 0.0
H508 H 0.46564 0.41044 0.00411 0.0
H509 H 0.43155 0.37655 0.95545 0.0
H510 H 0.4361 0.30549 0.88012 0.0
H511 H 0.41636 0.32535 0.9228 0.0
H512 H 0.62089 0.41346 0.00121 0.0
H513 H 0.60382 0.43925 0.0338 0.0
H514 H 0.61757 0.39121 0.92128 0.0
H515 H 0.58276 0.35266 0.88018 0.0
C516 C 0.18267 0.46257 0.41044 0.0
C517 C 0.17204 0.48729 0.43116 0.0
C518 C 0.2224 0.53747 0.36388 0.0
C519 C 0.22288 0.50927 0.33287 0.0
N520 N 0.20591 0.44494 0.3283 0.0
N521 N 0.19121 0.55189 0.44004 0.0
C522 C 0.20482 0.472 0.35751 0.0
C523 C 0.19548 0.52618 0.41249 0.0
N524 N 0.16831 0.42878 0.43979 0.0
N525 N 0.24785 0.57483 0.34663 0.0
H526 H 0.17669 0.54583 0.4799 0.0
H527 H 0.20345 0.57971 0.42507 0.0
H528 H 0.26811 0.58356 0.31162 0.0
H529 H 0.25146 0.59743 0.36894 0.0
H530 H 0.17658 0.40983 0.42985 0.0
H531 H 0.15094 0.42179 0.47774 0.0
H532 H 0.18961 0.41635 0.34132 0.0
H533 H 0.22113 0.45056 0.28881 0.0
C534 C 0.65154 0.06571 0.90644 0.0
C535 C 0.62223 0.07182 0.93073 0.0
C536 C 0.66511 0.13922 0.89987 0.0
C537 C 0.69208 0.13238 0.87051 0.0
N538 N 0.71876 0.09303 0.86032 0.0
N539 N 0.61523 0.11784 0.97631 0.0
C540 C 0.68813 0.0969 0.87961 0.0
C541 C 0.63328 0.10972 0.93519 0.0
N542 N 0.64303 0.02964 0.90651 0.0
N543 N 0.66814 0.17305 0.89166 0.0
H544 H 0.59836 0.09727 0.00802 0.0
H545 H 0.62416 0.14532 0.98561 0.0
H546 H 0.6918 0.19595 0.86769 0.0
H547 H 0.64581 0.1775 0.90632 0.0
H548 H 0.66047 1.02195 0.8845 0.0
H549 H 0.61727 1.00704 0.92799 0.0
H550 H 0.7195 0.06882 0.86805 0.0
H551 H 0.74535 0.11575 0.84047 0.0
C552 C 0.60553 0.7072 0.48077 0.0
C553 C 0.56847 0.67125 0.48837 0.0
C554 C 0.5347 0.68856 0.41408 0.0
C555 C 0.57363 0.72146 0.39937 0.0
N556 N 0.64608 0.76404 0.41916 0.0
N557 N 0.49747 0.62672 0.46363 0.0
C558 C 0.60897 0.73186 0.43376 0.0
C559 C 0.53262 0.662 0.4563 0.0
N560 N 0.63755 0.71684 0.51791 0.0
N561 N 0.50001 0.68265 0.3867 0.0
H562 H 0.49464 0.60719 0.49569 0.0
H563 H 0.47192 0.61605 0.43639 0.0
H564 H 0.50098 0.70183 0.35542 0.0
H565 H 0.47017 0.66074 0.39826 0.0
H566 H 0.6649 0.74351 0.51797 0.0
H567 H 0.63519 0.69851 0.55188 0.0
H568 H 0.67401 0.77141 0.43834 0.0
H569 H 0.64912 0.78306 0.38595 0.0
C570 C 0.45195 0.11443 0.62382 0.0
C571 C 0.4855 0.129 0.58475 0.0
C572 C 0.52423 0.18772 0.63893 0.0
C573 C 0.49066 0.17313 0.67835 0.0
N574 N 0.4195 0.12645 0.70168 0.0
N575 N 0.54912 0.18217 0.54646 0.0
C576 C 0.45346 0.13762 0.66854 0.0
C577 C 0.52012 0.16666 0.58944 0.0
N578 N 0.41907 0.07795 0.61866 0.0
N579 N 0.56093 0.22055 0.65062 0.0
H580 H 0.54751 0.16697 0.51085 0.0
H581 H 0.57298 0.21072 0.54383 0.0
H582 H 0.56515 0.23698 0.68594 0.0
H583 H 0.58804 0.23023 0.62769 0.0
H584 H 0.39552 0.06364 0.64923 0.0
H585 H 0.41638 0.06127 0.58444 0.0
H586 H 0.39037 0.10251 0.694 0.0
H587 H 0.4197 0.14302 0.73429 0.0
C588 C 0.46138 0.56711 0.01018 0.0
C589 C 0.45805 0.53204 0.00627 0.0
C590 C 0.39021 0.49902 0.05297 0.0
C591 C 0.39942 0.53457 0.07107 0.0
N592 N 0.43815 0.60247 0.05915 0.0
N593 N 0.4158 0.46414 0.00805 0.0
C594 C 0.43266 0.5687 0.04554 0.0
C595 C 0.42052 0.49769 0.02116 0.0
N596 N 0.49274 0.59866 0.98197 0.0
N597 N 0.35368 0.46688 0.06948 0.0
H598 H 0.43779 0.46349 0.98342 0.0
H599 H 0.39075 0.43746 0.02067 0.0
H600 H 0.33158 0.46803 0.09286 0.0
H601 H 0.34414 0.43967 0.05761 0.0
H602 H 0.49648 0.62513 0.98116 0.0
H603 H 0.51303 0.59727 0.95473 0.0
H604 H 0.46404 0.62893 0.04763 0.0
H605 H 0.41647 0.60365 0.0836 0.0
C606 C 0.95312 0.36823 0.61591 0.0
C607 C 0.93866 0.38005 0.56751 0.0
C608 C 0.87053 0.34899 0.61494 0.0
C609 C 0.88413 0.33399 0.65984 0.0
N610 N 0.93582 0.32298 0.6962 0.0
N611 N 0.88202 0.37802 0.51779 0.0
C612 C 0.92462 0.34163 0.658 0.0
C613 C 0.89686 0.36944 0.56616 0.0
N614 N 0.99452 0.38406 0.62382 0.0
N615 N 0.83303 0.34474 0.61983 0.0
H616 H 0.9005 0.3932 0.48188 0.0
H617 H 0.85091 0.3678 0.51152 0.0
H618 H 0.81279 0.32934 0.65412 0.0
H619 H 0.8232 0.35856 0.59223 0.0
H620 H 1.00689 0.37952 0.66148 0.0
H621 H 1.01702 0.40517 0.59618 0.0
H622 H 0.96348 0.32435 0.69297 0.0
H623 H 0.91577 0.30313 0.72757 0.0
C624 C 0.61212 0.94618 0.08947 0.0
C625 C 0.63734 0.98025 0.11949 0.0
C626 C 0.66212 0.94809 0.18145 0.0
C627 C 0.62802 0.9129 0.16369 0.0
N628 N 0.57442 0.87726 0.09478 0.0
N629 N 0.68909 1.01483 0.19215 0.0
C630 C 0.60516 0.91163 0.11424 0.0
C631 C 0.66435 0.98198 0.16369 0.0
N632 N 0.59432 0.94716 0.03827 0.0
N633 N 0.68979 0.9482 0.21933 0.0
H634 H 0.69063 0.03987 0.18109 0.0
H635 H 0.70625 1.01672 0.2288 0.0
H636 H 0.6869 0.9229 0.23352 0.0
H637 H 0.71684 0.97286 0.23211 0.0
H638 H 0.57748 0.92381 0.01223 0.0
H639 H 0.59982 0.97257 0.01956 0.0
H640 H 0.55291 0.8739 0.0635 0.0
H641 H 0.57004 0.85189 0.11189 0.0
C642 C 0.71271 0.6121 0.55298 0.0
C643 C 0.68465 0.57924 0.52127 0.0
C644 C 0.71237 0.54463 0.57101 0.0
C645 C 0.74014 0.57743 0.60233 0.0
N646 N 0.77568 0.64496 0.61 0.0
N647 N 0.66655 0.51836 0.48824 0.0
C648 C 0.74354 0.61212 0.58812 0.0
C649 C 0.68751 0.54687 0.52636 0.0
N650 N 0.70782 0.64193 0.55445 0.0
N651 N 0.70803 0.51084 0.58607 0.0
H652 H 0.64895 0.51966 0.45434 0.0
H653 H 0.67 0.49549 0.48656 0.0
H654 H 0.72664 0.50848 0.61713 0.0
H655 H 0.68457 0.48494 0.57014 0.0
H656 H 0.72451 0.66438 0.58217 0.0
H657 H 0.68454 0.64292 0.53266 0.0
H658 H 0.78213 0.67176 0.59724 0.0
H659 H 0.7983 0.64542 0.63632 0.0
C660 C 0.08255 0.66552 0.18905 0.0
C661 C 0.08656 0.64892 0.13933 0.0
C662 C 0.16093 0.69695 0.13648 0.0
C663 C 0.15701 0.71052 0.18913 0.0
N664 N 0.11457 0.72078 0.24915 0.0
N665 N 0.12613 0.65994 0.05268 0.0
C666 C 0.11752 0.70005 0.20801 0.0
C667 C 0.12469 0.66852 0.10845 0.0
N668 N 0.04748 0.64668 0.2219 0.0
N669 N 0.19918 0.70892 0.11597 0.0
H670 H 0.09971 0.64024 0.03069 0.0
H671 H 0.15245 0.67514 0.02677 0.0
H672 H 0.2261 0.73083 0.13477 0.0
H673 H 0.20405 0.69624 0.08196 0.0
H674 H 0.0449 0.6563 0.26144 0.0
H675 H 1.0224 0.61968 0.21301 0.0
H676 H 0.08647 0.71585 0.26294 0.0
H677 H 0.14089 0.74513 0.2648 0.0
loop_
_geom_bond_atom_site_label_1
_geom_bond_atom_site_label_2
_geom_bond_distance
_geom_bond_site_symmetry_2
_ccdc_geom_bond_type
Cu0 N1 1.999 1_454 S
Cu0 O6 1.974 1_454 S
Cu0 N11 1.985 . S
Cu0 O20 1.959 . S
N1 Cu0 1.999 1_656 S
N1 C3 1.263 . S
N1 C5 1.389 1_556 S
N2 C3 1.358 . S
N2 C4 1.400 . S
C3 N1 1.263 . S
C3 N2 1.358 . S
C3 H9 0.930 . S
C4 N2 1.400 . S
C4 C5 1.351 1_556 S
C4 H21 0.930 . S
C5 N1 1.389 1_554 S
C5 C4 1.351 1_554 S
C5 H10 0.930 . S
O6 Cu0 1.974 1_656 S
O6 C16 1.282 . S
C7 O8 1.261 1_554 S
C7 O20 1.251 . S
O8 C7 1.261 1_556 S
H9 C3 0.930 . S
H10 C5 0.930 . S
N11 Cu0 1.985 . S
N11 C13 1.335 . S
N11 C14 1.390 . S
N12 C13 1.345 . S
N12 C15 1.336 . S
C13 N11 1.335 . S
C13 N12 1.345 . S
C13 H18 0.930 . S
C14 N11 1.390 . S
C14 C15 1.346 . S
C14 H19 0.930 1_554 S
C15 N12 1.336 . S
C15 C14 1.346 . S
C15 H22 0.929 . S
C16 O6 1.282 . S
C16 O17 1.216 . S
O17 C16 1.216 . S
H18 C13 0.930 . S
H19 C14 0.930 1_556 S
O20 Cu0 1.959 . S
O20 C7 1.251 . S
H21 C4 0.930 . S
H22 C15 0.929 . S
Cu23 N24 1.999 . S
Cu23 O29 1.974 . S
Cu23 N34 1.985 1_565 S
Cu23 O43 1.959 1_565 S
N24 Cu23 1.999 . S
N24 C26 1.263 . S
N24 C28 1.389 . S
N25 C26 1.358 . S
N25 C27 1.400 . S
C26 N24 1.263 . S
C26 N25 1.358 . S
C26 H32 0.930 . S
C27 N25 1.400 . S
C27 C28 1.351 . S
C27 H44 0.930 . S
C28 N24 1.389 . S
C28 C27 1.351 . S
C28 H33 0.930 . S
O29 Cu23 1.974 . S
O29 C39 1.282 . S
C30 O31 1.261 . S
C30 O43 1.251 . S
O31 C30 1.261 . S
H32 C26 0.930 . S
H33 C28 0.930 . S
N34 Cu23 1.985 1_545 S
N34 C36 1.335 . S
N34 C37 1.390 . S
N35 C36 1.345 . S
N35 C38 1.336 . S
C36 N34 1.335 . S
C36 N35 1.345 . S
C36 H41 0.930 . S
C37 N34 1.390 . S
C37 C38 1.346 . S
C37 H42 0.930 . S
C38 N35 1.336 . S
C38 C37 1.346 . S
C38 H45 0.929 . S
C39 O29 1.282 . S
C39 O40 1.216 . S
O40 C39 1.216 . S
H41 C36 0.930 . S
H42 C37 0.930 . S
O43 Cu23 1.959 1_545 S
O43 C30 1.251 . S
H44 C27 0.930 . S
H45 C38 0.929 . S
Cu46 N47 1.999 1_554 S
Cu46 O52 1.974 1_554 S
Cu46 N57 1.985 . S
Cu46 O66 1.959 . S
N47 Cu46 1.999 1_556 S
N47 C49 1.263 . S
N47 C51 1.389 . S
N48 C49 1.358 . S
N48 C50 1.400 . S
C49 N47 1.263 . S
C49 N48 1.358 . S
C49 H55 0.930 . S
C50 N48 1.400 . S
C50 C51 1.351 . S
C50 H67 0.930 . S
C51 N47 1.389 . S
C51 C50 1.351 . S
C51 H56 0.930 . S
O52 Cu46 1.974 1_556 S
O52 C62 1.282 . S
C53 O54 1.261 . S
C53 O66 1.251 . S
O54 C53 1.261 . S
H55 C49 0.930 . S
H56 C51 0.930 . S
N57 Cu46 1.985 . S
N57 C59 1.335 . S
N57 C60 1.390 . S
N58 C59 1.345 . S
N58 C61 1.336 . S
C59 N57 1.335 . S
C59 N58 1.345 . S
C59 H64 0.930 . S
C60 N57 1.390 . S
C60 C61 1.346 . S
C60 H65 0.930 . S
C61 N58 1.336 . S
C61 C60 1.346 . S
C61 H68 0.929 . S
C62 O52 1.282 . S
C62 O63 1.216 1_556 S
O63 C62 1.216 1_554 S
H64 C59 0.930 . S
H65 C60 0.930 . S
O66 Cu46 1.959 . S
O66 C53 1.251 . S
H67 C50 0.930 . S
H68 C61 0.929 . S
Cu69 N70 1.999 1_655 S
Cu69 O75 1.974 1_655 S
Cu69 N80 1.985 . S
Cu69 O89 1.959 . S
N70 Cu69 1.999 1_455 S
N70 C72 1.263 . S
N70 C74 1.389 1_455 S
N71 C72 1.358 . S
N71 C73 1.400 . S
C72 N70 1.263 . S
C72 N71 1.358 . S
C72 H78 0.930 . S
C73 N71 1.400 . S
C73 C74 1.351 1_455 S
C73 H90 0.930 . S
C74 N70 1.389 1_655 S
C74 C73 1.351 1_655 S
C74 H79 0.930 . S
O75 Cu69 1.974 1_455 S
O75 C85 1.282 . S
C76 O77 1.261 . S
C76 O89 1.251 . S
O77 C76 1.261 . S
H78 C72 0.930 . S
H79 C74 0.930 . S
N80 Cu69 1.985 . S
N80 C82 1.335 . S
N80 C83 1.390 . S
N81 C82 1.345 . S
N81 C84 1.336 . S
C82 N80 1.335 . S
C82 N81 1.345 . S
C82 H87 0.930 . S
C83 N80 1.390 . S
C83 C84 1.346 . S
C83 H88 0.930 1_655 S
C84 N81 1.336 . S
C84 C83 1.346 . S
C84 H91 0.929 . S
C85 O75 1.282 . S
C85 O86 1.216 . S
O86 C85 1.216 . S
H87 C82 0.930 . S
H88 C83 0.930 1_455 S
O89 Cu69 1.959 . S
O89 C76 1.251 . S
H90 C73 0.930 . S
H91 C84 0.929 . S
Cu92 N93 1.999 . S
Cu92 O98 1.974 . S
Cu92 N103 1.985 1_545 S
Cu92 O112 1.959 1_545 S
N93 Cu92 1.999 . S
N93 C95 1.263 1_554 S
N93 C97 1.389 . S
N94 C95 1.358 . S
N94 C96 1.400 1_556 S
C95 N93 1.263 1_556 S
C95 N94 1.358 . S
C95 H101 0.930 . S
C96 N94 1.400 1_554 S
C96 C97 1.351 . S
C96 H113 0.930 . S
C97 N93 1.389 . S
C97 C96 1.351 . S
C97 H102 0.930 . S
O98 Cu92 1.974 . S
O98 C108 1.282 1_554 S
C99 O100 1.261 . S
C99 O112 1.251 . S
O100 C99 1.261 . S
H101 C95 0.930 . S
H102 C97 0.930 . S
N103 Cu92 1.985 1_565 S
N103 C105 1.335 . S
N103 C106 1.390 . S
N104 C105 1.345 . S
N104 C107 1.336 . S
C105 N103 1.335 . S
C105 N104 1.345 . S
C105 H110 0.930 . S
C106 N103 1.390 . S
C106 C107 1.346 . S
C106 H111 0.930 1_565 S
C107 N104 1.336 . S
C107 C106 1.346 . S
C107 H114 0.929 . S
C108 O98 1.282 1_556 S
C108 O109 1.216 . S
O109 C108 1.216 . S
H110 C105 0.930 . S
H111 C106 0.930 1_545 S
O112 Cu92 1.959 1_565 S
O112 C99 1.251 . S
H113 C96 0.930 . S
H114 C107 0.929 . S
Cu115 N116 1.999 . S
Cu115 O121 1.974 . S
Cu115 N126 1.985 . S
Cu115 O135 1.959 . S
N116 Cu115 1.999 . S
N116 C118 1.263 . S
N116 C120 1.389 . S
N117 C118 1.358 . S
N117 C119 1.400 . S
C118 N116 1.263 . S
C118 N117 1.358 . S
C118 H124 0.930 . S
C119 N117 1.400 . S
C119 C120 1.351 . S
C119 H136 0.930 . S
C120 N116 1.389 . S
C120 C119 1.351 . S
C120 H125 0.930 . S
O121 Cu115 1.974 . S
O121 C131 1.282 . S
C122 O123 1.261 . S
C122 O135 1.251 . S
O123 C122 1.261 . S
H124 C118 0.930 . S
H125 C120 0.930 . S
N126 Cu115 1.985 . S
N126 C128 1.335 . S
N126 C129 1.390 . S
N127 C128 1.345 . S
N127 C130 1.336 . S
C128 N126 1.335 . S
C128 N127 1.345 . S
C128 H133 0.930 . S
C129 N126 1.390 . S
C129 C130 1.346 . S
C129 H134 0.930 . S
C130 N127 1.336 . S
C130 C129 1.346 . S
C130 H137 0.929 . S
C131 O121 1.282 . S
C131 O132 1.216 . S
O132 C131 1.216 . S
H133 C128 0.930 . S
H134 C129 0.930 . S
O135 Cu115 1.959 . S
O135 C122 1.251 . S
H136 C119 0.930 . S
H137 C130 0.929 . S
H138 C144 0.930 . S
H139 C147 0.931 . S
H140 C149 0.931 . S
H141 C151 0.930 . S
H142 C153 0.930 . S
H143 C155 0.931 . S
C144 H138 0.930 . S
C144 C145 1.380 . S
C144 C146 1.394 . S
C145 C144 1.380 . S
C145 C149 1.382 . S
C146 C144 1.394 . S
C146 C147 1.400 . S
C147 H139 0.931 . S
C147 C146 1.400 . S
C147 C148 1.375 . S
C148 C147 1.375 . S
C148 C149 1.415 . S
C148 C150 1.501 . S
C149 H140 0.931 . S
C149 C145 1.382 . S
C149 C148 1.415 . S
C150 C148 1.501 . S
C150 C151 1.384 . S
C150 C155 1.408 . S
C151 H141 0.930 . S
C151 C150 1.384 . S
C151 C152 1.389 . S
C152 C151 1.389 . S
C152 C153 1.405 . S
C153 H142 0.930 . S
C153 C152 1.405 . S
C153 C154 1.364 . S
C154 C153 1.364 . S
C154 C155 1.400 . S
C155 H143 0.931 . S
C155 C150 1.408 . S
C155 C154 1.400 . S
H156 C162 0.930 . S
H157 C165 0.931 . S
H158 C167 0.931 . S
H159 C169 0.930 . S
H160 C171 0.930 . S
H161 C173 0.931 . S
C162 H156 0.930 . S
C162 C163 1.380 . S
C162 C164 1.394 . S
C163 C162 1.380 . S
C163 C167 1.382 . S
C164 C162 1.394 . S
C164 C165 1.400 . S
C165 H157 0.931 . S
C165 C164 1.400 . S
C165 C166 1.375 . S
C166 C165 1.375 . S
C166 C167 1.415 . S
C166 C168 1.501 . S
C167 H158 0.931 . S
C167 C163 1.382 . S
C167 C166 1.415 . S
C168 C166 1.501 . S
C168 C169 1.384 . S
C168 C173 1.408 . S
C169 H159 0.930 . S
C169 C168 1.384 . S
C169 C170 1.389 . S
C170 C169 1.389 . S
C170 C171 1.405 . S
C171 H160 0.930 . S
C171 C170 1.405 . S
C171 C172 1.364 . S
C172 C171 1.364 . S
C172 C173 1.400 . S
C173 H161 0.931 . S
C173 C168 1.408 . S
C173 C172 1.400 . S
H174 C180 0.930 . S
H175 C183 0.931 . S
H176 C185 0.931 . S
H177 C187 0.930 . S
H178 C189 0.930 . S
H179 C191 0.931 . S
C180 H174 0.930 . S
C180 C181 1.380 . S
C180 C182 1.394 . S
C181 C180 1.380 . S
C181 C185 1.382 . S
C182 C180 1.394 . S
C182 C183 1.400 . S
C183 H175 0.931 . S
C183 C182 1.400 . S
C183 C184 1.375 . S
C184 C183 1.375 . S
C184 C185 1.415 . S
C184 C186 1.501 . S
C185 H176 0.931 . S
C185 C181 1.382 . S
C185 C184 1.415 . S
C186 C184 1.501 . S
C186 C187 1.384 . S
C186 C191 1.408 . S
C187 H177 0.930 . S
C187 C186 1.384 . S
C187 C188 1.389 . S
C188 C187 1.389 . S
C188 C189 1.405 . S
C189 H178 0.930 . S
C189 C188 1.405 . S
C189 C190 1.364 . S
C190 C189 1.364 . S
C190 C191 1.400 . S
C191 H179 0.931 . S
C191 C186 1.408 . S
C191 C190 1.400 . S
H192 C198 0.930 . S
H193 C201 0.931 . S
H194 C203 0.931 . S
H195 C205 0.930 . S
H196 C207 0.930 . S
H197 C209 0.931 . S
C198 H192 0.930 . S
C198 C199 1.380 . S
C198 C200 1.394 . S
C199 C198 1.380 . S
C199 C203 1.382 . S
C200 C198 1.394 . S
C200 C201 1.400 . S
C201 H193 0.931 . S
C201 C200 1.400 . S
C201 C202 1.375 . S
C202 C201 1.375 . S
C202 C203 1.415 . S
C202 C204 1.501 . S
C203 H194 0.931 . S
C203 C199 1.382 . S
C203 C202 1.415 . S
C204 C202 1.501 . S
C204 C205 1.384 . S
C204 C209 1.408 . S
C205 H195 0.930 . S
C205 C204 1.384 . S
C205 C206 1.389 . S
C206 C205 1.389 . S
C206 C207 1.405 . S
C207 H196 0.930 . S
C207 C206 1.405 . S
C207 C208 1.364 . S
C208 C207 1.364 . S
C208 C209 1.400 . S
C209 H197 0.931 . S
C209 C204 1.408 . S
C209 C208 1.400 . S
H210 C216 0.930 . S
H211 C219 0.931 . S
H212 C221 0.931 . S
H213 C223 0.930 . S
H214 C225 0.930 . S
H215 C227 0.931 . S
C216 H210 0.930 . S
C216 C217 1.380 . S
C216 C218 1.394 . S
C217 C216 1.380 . S
C217 C221 1.382 . S
C218 C216 1.394 . S
C218 C219 1.400 . S
C219 H211 0.931 . S
C219 C218 1.400 . S
C219 C220 1.375 . S
C220 C219 1.375 . S
C220 C221 1.415 . S
C220 C222 1.501 . S
C221 H212 0.931 . S
C221 C217 1.382 . S
C221 C220 1.415 . S
C222 C220 1.501 . S
C222 C223 1.384 . S
C222 C227 1.408 . S
C223 H213 0.930 . S
C223 C222 1.384 . S
C223 C224 1.389 . S
C224 C223 1.389 . S
C224 C225 1.405 . S
C225 H214 0.930 . S
C225 C224 1.405 . S
C225 C226 1.364 . S
C226 C225 1.364 . S
C226 C227 1.400 . S
C227 H215 0.931 . S
C227 C222 1.408 . S
C227 C226 1.400 . S
H228 C234 0.930 . S
H229 C237 0.931 . S
H230 C239 0.931 . S
H231 C241 0.930 . S
H232 C243 0.930 . S
H233 C245 0.931 . S
C234 H228 0.930 . S
C234 C235 1.380 . S
C234 C236 1.394 . S
C235 C234 1.380 . S
C235 C239 1.382 . S
C236 C234 1.394 . S
C236 C237 1.400 . S
C237 H229 0.931 . S
C237 C236 1.400 . S
C237 C238 1.375 . S
C238 C237 1.375 . S
C238 C239 1.415 . S
C238 C240 1.501 . S
C239 H230 0.931 . S
C239 C235 1.382 . S
C239 C238 1.415 . S
C240 C238 1.501 . S
C240 C241 1.384 . S
C240 C245 1.408 . S
C241 H231 0.930 . S
C241 C240 1.384 . S
C241 C242 1.389 . S
C242 C241 1.389 . S
C242 C243 1.405 . S
C243 H232 0.930 . S
C243 C242 1.405 . S
C243 C244 1.364 . S
C244 C243 1.364 . S
C244 C245 1.400 . S
C245 H233 0.931 . S
C245 C240 1.408 . S
C245 C244 1.400 . S
C246 C247 1.363 . S
C246 C252 1.379 . S
C246 N254 1.356 . S
C247 C246 1.363 . S
C247 C253 1.363 . S
C248 C249 1.363 . S
C248 C253 1.379 . S
C248 N255 1.356 . S
C249 C248 1.363 . S
C249 C252 1.363 . S
N250 C252 1.356 . S
N250 H262 0.984 . S
N250 H263 0.985 . S
N251 C253 1.356 . S
N251 H256 0.984 . S
N251 H257 0.985 . S
C252 C246 1.379 . S
C252 C249 1.363 . S
C252 N250 1.356 . S
C253 C247 1.363 . S
C253 C248 1.379 . S
C253 N251 1.356 . S
N254 C246 1.356 . S
N254 H260 0.984 . S
N254 H261 0.984 . S
N255 C248 1.356 . S
N255 H258 0.984 . S
N255 H259 0.985 . S
H256 N251 0.984 . S
H257 N251 0.985 . S
H258 N255 0.984 . S
H259 N255 0.985 . S
H260 N254 0.984 . S
H261 N254 0.984 . S
H262 N250 0.984 . S
H263 N250 0.985 . S
C264 C265 1.363 . S
C264 C270 1.379 . S
C264 N272 1.356 . S
C265 C264 1.363 . S
C265 C271 1.363 . S
C266 C267 1.363 . S
C266 C271 1.379 . S
C266 N273 1.356 . S
C267 C266 1.363 . S
C267 C270 1.363 . S
N268 C270 1.356 . S
N268 H280 0.984 . S
N268 H281 0.985 . S
N269 C271 1.356 . S
N269 H274 0.984 . S
N269 H275 0.985 . S
C270 C264 1.379 . S
C270 C267 1.363 . S
C270 N268 1.356 . S
C271 C265 1.363 . S
C271 C266 1.379 . S
C271 N269 1.356 . S
N272 C264 1.356 . S
N272 H278 0.984 . S
N272 H279 0.984 . S
N273 C266 1.356 . S
N273 H276 0.984 . S
N273 H277 0.985 . S
H274 N269 0.984 . S
H275 N269 0.985 . S
H276 N273 0.984 . S
H277 N273 0.985 . S
H278 N272 0.984 . S
H279 N272 0.984 . S
H280 N268 0.984 . S
H281 N268 0.985 . S
C282 C283 1.363 . S
C282 C288 1.379 . S
C282 N290 1.356 . S
C283 C282 1.363 . S
C283 C289 1.363 . S
C284 C285 1.363 . S
C284 C289 1.379 . S
C284 N291 1.356 . S
C285 C284 1.363 . S
C285 C288 1.363 . S
N286 C288 1.356 . S
N286 H298 0.984 . S
N286 H299 0.985 . S
N287 C289 1.356 . S
N287 H292 0.984 . S
N287 H293 0.985 . S
C288 C282 1.379 . S
C288 C285 1.363 . S
C288 N286 1.356 . S
C289 C283 1.363 . S
C289 C284 1.379 . S
C289 N287 1.356 . S
N290 C282 1.356 . S
N290 H296 0.984 . S
N290 H297 0.984 . S
N291 C284 1.356 . S
N291 H294 0.984 . S
N291 H295 0.985 . S
H292 N287 0.984 . S
H293 N287 0.985 . S
H294 N291 0.984 . S
H295 N291 0.985 . S
H296 N290 0.984 . S
H297 N290 0.984 . S
H298 N286 0.984 . S
H299 N286 0.985 . S
C300 C301 1.363 . S
C300 C306 1.379 . S
C300 N308 1.356 . S
C301 C300 1.363 . S
C301 C307 1.363 . S
C302 C303 1.363 . S
C302 C307 1.379 . S
C302 N309 1.356 . S
C303 C302 1.363 . S
C303 C306 1.363 . S
N304 C306 1.356 . S
N304 H316 0.984 . S
N304 H317 0.985 . S
N305 C307 1.356 . S
N305 H310 0.984 . S
N305 H311 0.985 . S
C306 C300 1.379 . S
C306 C303 1.363 . S
C306 N304 1.356 . S
C307 C301 1.363 . S
C307 C302 1.379 . S
C307 N305 1.356 . S
N308 C300 1.356 . S
N308 H314 0.984 . S
N308 H315 0.984 . S
N309 C302 1.356 . S
N309 H312 0.984 . S
N309 H313 0.985 . S
H310 N305 0.984 . S
H311 N305 0.985 . S
H312 N309 0.984 . S
H313 N309 0.985 . S
H314 N308 0.984 . S
H315 N308 0.984 . S
H316 N304 0.984 . S
H317 N304 0.985 . S
C318 C319 1.363 . S
C318 C324 1.379 . S
C318 N326 1.356 . S
C319 C318 1.363 . S
C319 C325 1.363 . S
C320 C321 1.363 . S
C320 C325 1.379 . S
C320 N327 1.356 . S
C321 C320 1.363 . S
C321 C324 1.363 . S
N322 C324 1.356 . S
N322 H334 0.984 . S
N322 H335 0.985 . S
N323 C325 1.356 . S
N323 H328 0.984 . S
N323 H329 0.985 . S
C324 C318 1.379 . S
C324 C321 1.363 . S
C324 N322 1.356 . S
C325 C319 1.363 . S
C325 C320 1.379 . S
C325 N323 1.356 . S
N326 C318 1.356 . S
N326 H332 0.984 . S
N326 H333 0.984 . S
N327 C320 1.356 . S
N327 H330 0.984 . S
N327 H331 0.985 . S
H328 N323 0.984 . S
H329 N323 0.985 . S
H330 N327 0.984 . S
H331 N327 0.985 . S
H332 N326 0.984 . S
H333 N326 0.984 . S
H334 N322 0.984 . S
H335 N322 0.985 . S
C336 C337 1.363 . S
C336 C342 1.379 . S
C336 N344 1.356 . S
C337 C336 1.363 . S
C337 C343 1.363 . S
C338 C339 1.363 . S
C338 C343 1.379 . S
C338 N345 1.356 . S
C339 C338 1.363 . S
C339 C342 1.363 . S
N340 C342 1.356 . S
N340 H352 0.984 . S
N340 H353 0.985 . S
N341 C343 1.356 . S
N341 H346 0.984 . S
N341 H347 0.985 . S
C342 C336 1.379 . S
C342 C339 1.363 . S
C342 N340 1.356 . S
C343 C337 1.363 . S
C343 C338 1.379 . S
C343 N341 1.356 . S
N344 C336 1.356 . S
N344 H350 0.984 . S
N344 H351 0.984 . S
N345 C338 1.356 . S
N345 H348 0.984 . S
N345 H349 0.985 . S
H346 N341 0.984 . S
H347 N341 0.985 . S
H348 N345 0.984 . S
H349 N345 0.985 . S
H350 N344 0.984 . S
H351 N344 0.984 . S
H352 N340 0.984 . S
H353 N340 0.985 . S
C354 C355 1.363 . S
C354 C360 1.379 . S
C354 N362 1.356 . S
C355 C354 1.363 . S
C355 C361 1.363 . S
C356 C357 1.363 . S
C356 C361 1.379 . S
C356 N363 1.356 . S
C357 C356 1.363 . S
C357 C360 1.363 . S
N358 C360 1.356 . S
N358 H370 0.984 . S
N358 H371 0.985 . S
N359 C361 1.356 . S
N359 H364 0.984 . S
N359 H365 0.985 . S
C360 C354 1.379 . S
C360 C357 1.363 . S
C360 N358 1.356 . S
C361 C355 1.363 . S
C361 C356 1.379 . S
C361 N359 1.356 . S
N362 C354 1.356 . S
N362 H368 0.984 . S
N362 H369 0.984 . S
N363 C356 1.356 . S
N363 H366 0.984 . S
N363 H367 0.985 . S
H364 N359 0.984 . S
H365 N359 0.985 . S
H366 N363 0.984 . S
H367 N363 0.985 . S
H368 N362 0.984 . S
H369 N362 0.984 . S
H370 N358 0.984 . S
H371 N358 0.985 . S
C372 C373 1.363 . S
C372 C378 1.379 . S
C372 N380 1.356 . S
C373 C372 1.363 . S
C373 C379 1.363 . S
C374 C375 1.363 . S
C374 C379 1.379 . S
C374 N381 1.356 . S
C375 C374 1.363 . S
C375 C378 1.363 . S
N376 C378 1.356 . S
N376 H388 0.984 . S
N376 H389 0.985 . S
N377 C379 1.356 . S
N377 H382 0.984 . S
N377 H383 0.985 . S
C378 C372 1.379 . S
C378 C375 1.363 . S
C378 N376 1.356 . S
C379 C373 1.363 . S
C379 C374 1.379 . S
C379 N377 1.356 . S
N380 C372 1.356 . S
N380 H386 0.984 . S
N380 H387 0.984 . S
N381 C374 1.356 . S
N381 H384 0.984 . S
N381 H385 0.985 . S
H382 N377 0.984 . S
H383 N377 0.985 . S
H384 N381 0.984 . S
H385 N381 0.985 . S
H386 N380 0.984 . S
H387 N380 0.984 . S
H388 N376 0.984 . S
H389 N376 0.985 . S
C390 C391 1.363 . S
C390 C396 1.379 . S
C390 N398 1.356 . S
C391 C390 1.363 . S
C391 C397 1.363 . S
C392 C393 1.363 . S
C392 C397 1.379 . S
C392 N399 1.356 . S
C393 C392 1.363 . S
C393 C396 1.363 . S
N394 C396 1.356 . S
N394 H406 0.984 . S
N394 H407 0.985 . S
N395 C397 1.356 . S
N395 H400 0.984 . S
N395 H401 0.985 . S
C396 C390 1.379 . S
C396 C393 1.363 . S
C396 N394 1.356 . S
C397 C391 1.363 . S
C397 C392 1.379 . S
C397 N395 1.356 . S
N398 C390 1.356 . S
N398 H404 0.984 . S
N398 H405 0.984 . S
N399 C392 1.356 . S
N399 H402 0.984 . S
N399 H403 0.985 . S
H400 N395 0.984 . S
H401 N395 0.985 . S
H402 N399 0.984 . S
H403 N399 0.985 . S
H404 N398 0.984 . S
H405 N398 0.984 . S
H406 N394 0.984 . S
H407 N394 0.985 . S
C408 C409 1.363 . S
C408 C414 1.379 . S
C408 N416 1.356 . S
C409 C408 1.363 . S
C409 C415 1.363 . S
C410 C411 1.363 . S
C410 C415 1.379 . S
C410 N417 1.356 . S
C411 C410 1.363 . S
C411 C414 1.363 . S
N412 C414 1.356 . S
N412 H424 0.984 . S
N412 H425 0.985 . S
N413 C415 1.356 . S
N413 H418 0.984 . S
N413 H419 0.985 . S
C414 C408 1.379 . S
C414 C411 1.363 . S
C414 N412 1.356 . S
C415 C409 1.363 . S
C415 C410 1.379 . S
C415 N413 1.356 . S
N416 C408 1.356 . S
N416 H422 0.984 . S
N416 H423 0.984 . S
N417 C410 1.356 . S
N417 H420 0.984 . S
N417 H421 0.985 . S
H418 N413 0.984 . S
H419 N413 0.985 . S
H420 N417 0.984 . S
H421 N417 0.985 . S
H422 N416 0.984 . S
H423 N416 0.984 . S
H424 N412 0.984 . S
H425 N412 0.985 . S
C426 C427 1.363 . S
C426 C432 1.379 . S
C426 N434 1.356 . S
C427 C426 1.363 . S
C427 C433 1.363 . S
C428 C429 1.363 . S
C428 C433 1.379 . S
C428 N435 1.356 . S
C429 C428 1.363 . S
C429 C432 1.363 . S
N430 C432 1.356 . S
N430 H442 0.984 . S
N430 H443 0.985 . S
N431 C433 1.356 . S
N431 H436 0.984 . S
N431 H437 0.985 . S
C432 C426 1.379 . S
C432 C429 1.363 . S
C432 N430 1.356 . S
C433 C427 1.363 . S
C433 C428 1.379 . S
C433 N431 1.356 . S
N434 C426 1.356 . S
N434 H440 0.984 . S
N434 H441 0.984 . S
N435 C428 1.356 . S
N435 H438 0.984 . S
N435 H439 0.985 . S
H436 N431 0.984 . S
H437 N431 0.985 . S
H438 N435 0.984 . S
H439 N435 0.985 . S
H440 N434 0.984 . S
H441 N434 0.984 . S
H442 N430 0.984 . S
H443 N430 0.985 . S
C444 C445 1.363 . S
C444 C450 1.379 . S
C444 N452 1.356 . S
C445 C444 1.363 . S
C445 C451 1.363 . S
C446 C447 1.363 . S
C446 C451 1.379 . S
C446 N453 1.356 . S
C447 C446 1.363 . S
C447 C450 1.363 . S
N448 C450 1.356 . S
N448 H460 0.984 . S
N448 H461 0.985 . S
N449 C451 1.356 . S
N449 H454 0.984 . S
N449 H455 0.997 . S
C450 C444 1.379 . S
C450 C447 1.363 . S
C450 N448 1.356 . S
C451 C445 1.363 . S
C451 C446 1.379 . S
C451 N449 1.356 . S
N452 C444 1.356 . S
N452 H458 0.984 . S
N452 H459 0.984 . S
N453 C446 1.356 . S
N453 H456 0.984 . S
N453 H457 0.985 . S
H454 N449 0.984 . S
H455 N449 0.997 . S
H456 N453 0.984 . S
H457 N453 0.985 . S
H458 N452 0.984 . S
H459 N452 0.984 . S
H460 N448 0.984 . S
H461 N448 0.985 . S
C462 C463 1.363 . S
C462 C468 1.379 . S
C462 N470 1.356 . S
C463 C462 1.363 . S
C463 C469 1.363 . S
C464 C465 1.363 . S
C464 C469 1.379 . S
C464 N471 1.356 . S
C465 C464 1.363 . S
C465 C468 1.363 . S
N466 C468 1.356 . S
N466 H478 0.984 . S
N466 H479 0.985 . S
N467 C469 1.356 . S
N467 H472 0.984 . S
N467 H473 0.985 1_556 S
C468 C462 1.379 . S
C468 C465 1.363 . S
C468 N466 1.356 . S
C469 C463 1.363 . S
C469 C464 1.379 . S
C469 N467 1.356 . S
N470 C462 1.356 . S
N470 H476 0.984 . S
N470 H477 0.984 . S
N471 C464 1.356 . S
N471 H474 0.984 . S
N471 H475 0.985 . S
H472 N467 0.984 . S
H473 N467 0.985 1_554 S
H474 N471 0.984 . S
H475 N471 0.985 . S
H476 N470 0.984 . S
H477 N470 0.984 . S
H478 N466 0.984 . S
H479 N466 0.985 . S
C480 C481 1.363 . S
C480 C486 1.379 . S
C480 N488 1.356 . S
C481 C480 1.363 . S
C481 C487 1.363 . S
C482 C483 1.363 . S
C482 C487 1.379 . S
C482 N489 1.356 . S
C483 C482 1.363 . S
C483 C486 1.363 . S
N484 C486 1.356 . S
N484 H496 0.984 . S
N484 H497 0.985 . S
N485 C487 1.356 . S
N485 H490 0.984 . S
N485 H491 0.985 . S
C486 C480 1.379 . S
C486 C483 1.363 . S
C486 N484 1.356 . S
C487 C481 1.363 . S
C487 C482 1.379 . S
C487 N485 1.356 . S
N488 C480 1.356 . S
N488 H494 0.984 . S
N488 H495 0.984 . S
N489 C482 1.356 . S
N489 H492 0.984 . S
N489 H493 0.985 . S
H490 N485 0.984 . S
H491 N485 0.985 . S
H492 N489 0.984 . S
H493 N489 0.985 . S
H494 N488 0.984 . S
H495 N488 0.984 . S
H496 N484 0.984 . S
H497 N484 0.985 . S
C498 C499 1.363 . S
C498 C504 1.379 . S
C498 N506 1.356 . S
C499 C498 1.363 . S
C499 C505 1.363 . S
C500 C501 1.363 . S
C500 C505 1.379 . S
C500 N507 1.356 . S
C501 C500 1.363 . S
C501 C504 1.363 . S
N502 C504 1.356 . S
N502 H514 0.984 . S
N502 H515 0.985 . S
N503 C505 1.356 . S
N503 H508 0.984 . S
N503 H509 0.985 . S
C504 C498 1.379 . S
C504 C501 1.363 . S
C504 N502 1.356 . S
C505 C499 1.363 . S
C505 C500 1.379 . S
C505 N503 1.356 . S
N506 C498 1.356 . S
N506 H512 0.984 1_556 S
N506 H513 0.984 . S
N507 C500 1.356 . S
N507 H510 0.984 . S
N507 H511 0.985 . S
H508 N503 0.984 . S
H509 N503 0.985 . S
H510 N507 0.984 . S
H511 N507 0.985 . S
H512 N506 0.984 1_554 S
H513 N506 0.984 . S
H514 N502 0.984 . S
H515 N502 0.985 . S
C516 C517 1.363 . S
C516 C522 1.379 . S
C516 N524 1.356 . S
C517 C516 1.363 . S
C517 C523 1.363 . S
C518 C519 1.363 . S
C518 C523 1.379 . S
C518 N525 1.356 . S
C519 C518 1.363 . S
C519 C522 1.363 . S
N520 C522 1.356 . S
N520 H532 0.984 . S
N520 H533 0.985 . S
N521 C523 1.356 . S
N521 H526 0.984 . S
N521 H527 0.985 . S
C522 C516 1.379 . S
C522 C519 1.363 . S
C522 N520 1.356 . S
C523 C517 1.363 . S
C523 C518 1.379 . S
C523 N521 1.356 . S
N524 C516 1.356 . S
N524 H530 0.984 . S
N524 H531 0.984 . S
N525 C518 1.356 . S
N525 H528 0.984 . S
N525 H529 0.985 . S
H526 N521 0.984 . S
H527 N521 0.985 . S
H528 N525 0.984 . S
H529 N525 0.985 . S
H530 N524 0.984 . S
H531 N524 0.984 . S
H532 N520 0.984 . S
H533 N520 0.985 . S
C534 C535 1.363 . S
C534 C540 1.379 . S
C534 N542 1.356 . S
C535 C534 1.363 . S
C535 C541 1.363 . S
C536 C537 1.363 . S
C536 C541 1.379 . S
C536 N543 1.356 . S
C537 C536 1.363 . S
C537 C540 1.363 . S
N538 C540 1.356 . S
N538 H550 0.984 . S
N538 H551 0.985 . S
N539 C541 1.356 . S
N539 H544 0.984 . S
N539 H545 0.985 . S
C540 C534 1.379 . S
C540 C537 1.363 . S
C540 N538 1.356 . S
C541 C535 1.363 . S
C541 C536 1.379 . S
C541 N539 1.356 . S
N542 C534 1.356 . S
N542 H548 0.984 . S
N542 H549 0.984 . S
N543 C536 1.356 . S
N543 H546 0.984 . S
N543 H547 0.985 . S
H544 N539 0.984 . S
H545 N539 0.985 . S
H546 N543 0.984 . S
H547 N543 0.985 . S
H548 N542 0.984 . S
H549 N542 0.984 . S
H550 N538 0.984 . S
H551 N538 0.985 . S
C552 C553 1.363 . S
C552 C558 1.379 . S
C552 N560 1.356 . S
C553 C552 1.363 . S
C553 C559 1.363 . S
C554 C555 1.363 . S
C554 C559 1.379 . S
C554 N561 1.356 . S
C555 C554 1.363 . S
C555 C558 1.363 . S
N556 C558 1.356 . S
N556 H568 0.984 . S
N556 H569 0.985 . S
N557 C559 1.356 . S
N557 H562 0.984 . S
N557 H563 0.985 . S
C558 C552 1.379 . S
C558 C555 1.363 . S
C558 N556 1.356 . S
C559 C553 1.363 . S
C559 C554 1.379 . S
C559 N557 1.356 . S
N560 C552 1.356 . S
N560 H566 0.984 . S
N560 H567 0.984 . S
N561 C554 1.356 . S
N561 H564 0.984 . S
N561 H565 0.985 . S
H562 N557 0.984 . S
H563 N557 0.985 . S
H564 N561 0.984 . S
H565 N561 0.985 . S
H566 N560 0.984 . S
H567 N560 0.984 . S
H568 N556 0.984 . S
H569 N556 0.985 . S
C570 C571 1.363 . S
C570 C576 1.379 . S
C570 N578 1.356 . S
C571 C570 1.363 . S
C571 C577 1.363 . S
C572 C573 1.363 . S
C572 C577 1.379 . S
C572 N579 1.356 . S
C573 C572 1.363 . S
C573 C576 1.363 . S
N574 C576 1.356 . S
N574 H586 0.984 . S
N574 H587 0.985 . S
N575 C577 1.356 . S
N575 H580 0.984 . S
N575 H581 0.985 . S
C576 C570 1.379 . S
C576 C573 1.363 . S
C576 N574 1.356 . S
C577 C571 1.363 . S
C577 C572 1.379 . S
C577 N575 1.356 . S
N578 C570 1.356 . S
N578 H584 0.984 . S
N578 H585 0.984 . S
N579 C572 1.356 . S
N579 H582 0.984 . S
N579 H583 0.985 . S
H580 N575 0.984 . S
H581 N575 0.985 . S
H582 N579 0.984 . S
H583 N579 0.985 . S
H584 N578 0.984 . S
H585 N578 0.984 . S
H586 N574 0.984 . S
H587 N574 0.985 . S
C588 C589 1.363 . S
C588 C594 1.379 . S
C588 N596 1.356 . S
C589 C588 1.363 . S
C589 C595 1.363 . S
C590 C591 1.363 . S
C590 C595 1.379 . S
C590 N597 1.356 . S
C591 C590 1.363 . S
C591 C594 1.363 . S
N592 C594 1.356 . S
N592 H604 0.984 . S
N592 H605 0.985 . S
N593 C595 1.356 . S
N593 H598 0.984 . S
N593 H599 0.985 . S
C594 C588 1.379 . S
C594 C591 1.363 . S
C594 N592 1.356 . S
C595 C589 1.363 . S
C595 C590 1.379 . S
C595 N593 1.356 . S
N596 C588 1.356 . S
N596 H602 0.984 . S
N596 H603 0.984 . S
N597 C590 1.356 . S
N597 H600 0.984 . S
N597 H601 0.985 . S
H598 N593 0.984 . S
H599 N593 0.985 . S
H600 N597 0.984 . S
H601 N597 0.985 . S
H602 N596 0.984 . S
H603 N596 0.984 . S
H604 N592 0.984 . S
H605 N592 0.985 . S
C606 C607 1.363 . S
C606 C612 1.379 . S
C606 N614 1.356 . S
C607 C606 1.363 . S
C607 C613 1.363 . S
C608 C609 1.363 . S
C608 C613 1.379 . S
C608 N615 1.356 . S
C609 C608 1.363 . S
C609 C612 1.363 . S
N610 C612 1.356 . S
N610 H622 0.984 . S
N610 H623 0.985 . S
N611 C613 1.356 . S
N611 H616 0.984 . S
N611 H617 0.985 . S
C612 C606 1.379 . S
C612 C609 1.363 . S
C612 N610 1.356 . S
C613 C607 1.363 . S
C613 C608 1.379 . S
C613 N611 1.356 . S
N614 C606 1.356 . S
N614 H620 0.984 . S
N614 H621 0.984 . S
N615 C608 1.356 . S
N615 H618 0.984 . S
N615 H619 0.985 . S
H616 N611 0.984 . S
H617 N611 0.985 . S
H618 N615 0.984 . S
H619 N615 0.985 . S
H620 N614 0.984 . S
H621 N614 0.984 . S
H622 N610 0.984 . S
H623 N610 0.985 . S
C624 C625 1.363 . S
C624 C630 1.379 . S
C624 N632 1.356 . S
C625 C624 1.363 . S
C625 C631 1.363 . S
C626 C627 1.363 . S
C626 C631 1.379 . S
C626 N633 1.356 . S
C627 C626 1.363 . S
C627 C630 1.363 . S
N628 C630 1.356 . S
N628 H640 0.984 . S
N628 H641 0.985 . S
N629 C631 1.356 . S
N629 H634 0.984 . S
N629 H635 0.985 . S
C630 C624 1.379 . S
C630 C627 1.363 . S
C630 N628 1.356 . S
C631 C625 1.363 . S
C631 C626 1.379 . S
C631 N629 1.356 . S
N632 C624 1.356 . S
N632 H638 0.984 . S
N632 H639 0.984 . S
N633 C626 1.356 . S
N633 H636 0.984 . S
N633 H637 0.985 . S
H634 N629 0.984 . S
H635 N629 0.985 . S
H636 N633 0.984 . S
H637 N633 0.985 . S
H638 N632 0.984 . S
H639 N632 0.984 . S
H640 N628 0.984 . S
H641 N628 0.985 . S
C642 C643 1.363 . S
C642 C648 1.379 . S
C642 N650 1.356 . S
C643 C642 1.363 . S
C643 C649 1.363 . S
C644 C645 1.363 . S
C644 C649 1.379 . S
C644 N651 1.356 . S
C645 C644 1.363 . S
C645 C648 1.363 . S
N646 C648 1.356 . S
N646 H658 0.984 . S
N646 H659 0.985 . S
N647 C649 1.356 . S
N647 H652 0.984 . S
N647 H653 0.985 . S
C648 C642 1.379 . S
C648 C645 1.363 . S
C648 N646 1.356 . S
C649 C643 1.363 . S
C649 C644 1.379 . S
C649 N647 1.356 . S
N650 C642 1.356 . S
N650 H656 0.984 . S
N650 H657 0.984 . S
N651 C644 1.356 . S
N651 H654 0.984 . S
N651 H655 0.985 . S
H652 N647 0.984 . S
H653 N647 0.985 . S
H654 N651 0.984 . S
H655 N651 0.985 . S
H656 N650 0.984 . S
H657 N650 0.984 . S
H658 N646 0.984 . S
H659 N646 0.985 . S
C660 C661 1.363 . S
C660 C666 1.379 . S
C660 N668 1.356 . S
C661 C660 1.363 . S
C661 C667 1.363 . S
C662 C663 1.363 . S
C662 C667 1.379 . S
C662 N669 1.356 . S
C663 C662 1.363 . S
C663 C666 1.363 . S
N664 C666 1.356 . S
N664 H676 0.984 . S
N664 H677 0.985 . S
N665 C667 1.356 . S
N665 H670 0.984 . S
N665 H671 0.985 . S
C666 C660 1.379 . S
C666 C663 1.363 . S
C666 N664 1.356 . S
C667 C661 1.363 . S
C667 C662 1.379 . S
C667 N665 1.356 . S
N668 C660 1.356 . S
N668 H674 0.984 . S
N668 H675 0.984 . S
N669 C662 1.356 . S
N669 H672 0.984 . S
N669 H673 0.985 . S
H670 N665 0.984 . S
H671 N665 0.985 . S
H672 N669 0.984 . S
H673 N669 0.985 . S
H674 N668 0.984 . S
H675 N668 0.984 . S
H676 N664 0.984 . S
H677 N664 0.985 . S
C247 C7 1.759 . S
C249 C152 1.685 . S
C265 C30 1.515 . S
C267 C163 1.459 . S
C285 C182 1.584 . S
C283 N58 1.593 . S
C303 C199 1.385 . S
C301 N81 1.355 . S
C321 C226 1.629 . S
C319 C99 1.652 . S
C339 C235 1.395 . S
C337 N127 1.400 . S
C355 N25 1.613 . S
C357 C188 1.578 . S
C373 C62 1.517 . S
C375 C208 1.477 . S
C393 C217 1.643 . S
C391 C85 1.711 . S
C411 C244 1.411 . S
C409 N94 1.422 . S
C427 C131 1.693 . S
C429 C146 1.662 . S
C447 C172 1.370 . S
C445 N2 1.366 . S
C465 C200 1.656 . S
C463 C16 1.776 . S
C481 C39 1.540 . S
C483 C224 1.458 . S
C501 C236 1.586 . S
C499 N48 1.653 . S
C517 N71 1.405 . S
C519 C154 1.355 . S
C535 C108 1.691 . S
C537 C164 1.637 . S
C553 N117 1.460 . S
C555 C181 1.386 . S
C571 N35 1.647 . S
C573 C242 1.597 . S
C591 C145 1.457 . S
C589 C53 1.571 . S
C607 C76 1.797 . S
C609 C170 1.686 . S
C625 N104 1.445 . S
C627 C190 1.369 . S
C643 C122 1.693 . S
C645 C206 1.627 . S
C661 N12 1.375 . S
C663 C218 1.360 . S
