# Generated by pormake.
# Topology tbo, (3,4)-cn, num edge types: 1
# Building blocks:
#     Node 0, Type 0, BuildingBlock: OLANEW_clean_sbu_2, # of connection points: 3
#     Node 1, Type 0, BuildingBlock: OLANEW_clean_sbu_2, # of connection points: 3
#     Node 2, Type 0, BuildingBlock: OLANEW_clean_sbu_2, # of connection points: 3
#     Node 3, Type 0, BuildingBlock: OLANEW_clean_sbu_2, # of connection points: 3
#     Node 4, Type 0, BuildingBlock: OLANEW_clean_sbu_2, # of connection points: 3
#     Node 5, Type 0, BuildingBlock: OLANEW_clean_sbu_2, # of connection points: 3
#     Node 6, Type 0, BuildingBlock: OLANEW_clean_sbu_2, # of connection points: 3
#     Node 7, Type 0, BuildingBlock: OLANEW_clean_sbu_2, # of connection points: 3
#     Node 8, Type 0, BuildingBlock: OLANEW_clean_sbu_2, # of connection points: 3
#     Node 9, Type 0, BuildingBlock: OLANEW_clean_sbu_2, # of connection points: 3
#     Node 10, Type 0, BuildingBlock: OLANEW_clean_sbu_2, # of connection points: 3
#     Node 11, Type 0, BuildingBlock: OLANEW_clean_sbu_2, # of connection points: 3
#     Node 12, Type 0, BuildingBlock: OLANEW_clean_sbu_2, # of connection points: 3
#     Node 13, Type 0, BuildingBlock: OLANEW_clean_sbu_2, # of connection points: 3
#     Node 14, Type 0, BuildingBlock: OLANEW_clean_sbu_2, # of connection points: 3
#     Node 15, Type 0, BuildingBlock: OLANEW_clean_sbu_2, # of connection points: 3
#     Node 16, Type 0, BuildingBlock: OLANEW_clean_sbu_2, # of connection points: 3
#     Node 17, Type 0, BuildingBlock: OLANEW_clean_sbu_2, # of connection points: 3
#     Node 18, Type 0, BuildingBlock: OLANEW_clean_sbu_2, # of connection points: 3
#     Node 19, Type 0, BuildingBlock: OLANEW_clean_sbu_2, # of connection points: 3
#     Node 20, Type 0, BuildingBlock: OLANEW_clean_sbu_2, # of connection points: 3
#     Node 21, Type 0, BuildingBlock: OLANEW_clean_sbu_2, # of connection points: 3
#     Node 22, Type 0, BuildingBlock: OLANEW_clean_sbu_2, # of connection points: 3
#     Node 23, Type 0, BuildingBlock: OLANEW_clean_sbu_2, # of connection points: 3
#     Node 24, Type 0, BuildingBlock: OLANEW_clean_sbu_2, # of connection points: 3
#     Node 25, Type 0, BuildingBlock: OLANEW_clean_sbu_2, # of connection points: 3
#     Node 26, Type 0, BuildingBlock: OLANEW_clean_sbu_2, # of connection points: 3
#     Node 27, Type 0, BuildingBlock: OLANEW_clean_sbu_2, # of connection points: 3
#     Node 28, Type 0, BuildingBlock: OLANEW_clean_sbu_2, # of connection points: 3
#     Node 29, Type 0, BuildingBlock: OLANEW_clean_sbu_2, # of connection points: 3
#     Node 30, Type 0, BuildingBlock: OLANEW_clean_sbu_2, # of connection points: 3
#     Node 31, Type 0, BuildingBlock: OLANEW_clean_sbu_2, # of connection points: 3
#     Node 32, Type 1, BuildingBlock: KUFVIS_clean_linker_0, # of connection points: 4
#     Node 33, Type 1, BuildingBlock: KUFVIS_clean_linker_0, # of connection points: 4
#     Node 34, Type 1, BuildingBlock: KUFVIS_clean_linker_0, # of connection points: 4
#     Node 35, Type 1, BuildingBlock: KUFVIS_clean_linker_0, # of connection points: 4
#     Node 36, Type 1, BuildingBlock: KUFVIS_clean_linker_0, # of connection points: 4
#     Node 37, Type 1, BuildingBlock: KUFVIS_clean_linker_0, # of connection points: 4
#     Node 38, Type 1, BuildingBlock: KUFVIS_clean_linker_0, # of connection points: 4
#     Node 39, Type 1, BuildingBlock: KUFVIS_clean_linker_0, # of connection points: 4
#     Node 40, Type 1, BuildingBlock: KUFVIS_clean_linker_0, # of connection points: 4
#     Node 41, Type 1, BuildingBlock: KUFVIS_clean_linker_0, # of connection points: 4
#     Node 42, Type 1, BuildingBlock: KUFVIS_clean_linker_0, # of connection points: 4
#     Node 43, Type 1, BuildingBlock: KUFVIS_clean_linker_0, # of connection points: 4
#     Node 44, Type 1, BuildingBlock: KUFVIS_clean_linker_0, # of connection points: 4
#     Node 45, Type 1, BuildingBlock: KUFVIS_clean_linker_0, # of connection points: 4
#     Node 46, Type 1, BuildingBlock: KUFVIS_clean_linker_0, # of connection points: 4
#     Node 47, Type 1, BuildingBlock: KUFVIS_clean_linker_0, # of connection points: 4
#     Node 48, Type 1, BuildingBlock: KUFVIS_clean_linker_0, # of connection points: 4
#     Node 49, Type 1, BuildingBlock: KUFVIS_clean_linker_0, # of connection points: 4
#     Node 50, Type 1, BuildingBlock: KUFVIS_clean_linker_0, # of connection points: 4
#     Node 51, Type 1, BuildingBlock: KUFVIS_clean_linker_0, # of connection points: 4
#     Node 52, Type 1, BuildingBlock: KUFVIS_clean_linker_0, # of connection points: 4
#     Node 53, Type 1, BuildingBlock: KUFVIS_clean_linker_0, # of connection points: 4
#     Node 54, Type 1, BuildingBlock: KUFVIS_clean_linker_0, # of connection points: 4
#     Node 55, Type 1, BuildingBlock: KUFVIS_clean_linker_0, # of connection points: 4
#     Edge 56, Type (0, 1), BuildingBlock: OJICUG_clean_linker_0, # of connection points: 2
#     Edge 57, Type (0, 1), BuildingBlock: OJICUG_clean_linker_0, # of connection points: 2
#     Edge 58, Type (0, 1), BuildingBlock: OJICUG_clean_linker_0, # of connection points: 2
#     Edge 59, Type (0, 1), BuildingBlock: OJICUG_clean_linker_0, # of connection points: 2
#     Edge 60, Type (0, 1), BuildingBlock: OJICUG_clean_linker_0, # of connection points: 2
#     Edge 61, Type (0, 1), BuildingBlock: OJICUG_clean_linker_0, # of connection points: 2
#     Edge 62, Type (0, 1), BuildingBlock: OJICUG_clean_linker_0, # of connection points: 2
#     Edge 63, Type (0, 1), BuildingBlock: OJICUG_clean_linker_0, # of connection points: 2
#     Edge 64, Type (0, 1), BuildingBlock: OJICUG_clean_linker_0, # of connection points: 2
#     Edge 65, Type (0, 1), BuildingBlock: OJICUG_clean_linker_0, # of connection points: 2
#     Edge 66, Type (0, 1), BuildingBlock: OJICUG_clean_linker_0, # of connection points: 2
#     Edge 67, Type (0, 1), BuildingBlock: OJICUG_clean_linker_0, # of connection points: 2
#     Edge 68, Type (0, 1), BuildingBlock: OJICUG_clean_linker_0, # of connection points: 2
#     Edge 69, Type (0, 1), BuildingBlock: OJICUG_clean_linker_0, # of connection points: 2
#     Edge 70, Type (0, 1), BuildingBlock: OJICUG_clean_linker_0, # of connection points: 2
#     Edge 71, Type (0, 1), BuildingBlock: OJICUG_clean_linker_0, # of connection points: 2
#     Edge 72, Type (0, 1), BuildingBlock: OJICUG_clean_linker_0, # of connection points: 2
#     Edge 73, Type (0, 1), BuildingBlock: OJICUG_clean_linker_0, # of connection points: 2
#     Edge 74, Type (0, 1), BuildingBlock: OJICUG_clean_linker_0, # of connection points: 2
#     Edge 75, Type (0, 1), BuildingBlock: OJICUG_clean_linker_0, # of connection points: 2
#     Edge 76, Type (0, 1), BuildingBlock: OJICUG_clean_linker_0, # of connection points: 2
#     Edge 77, Type (0, 1), BuildingBlock: OJICUG_clean_linker_0, # of connection points: 2
#     Edge 78, Type (0, 1), BuildingBlock: OJICUG_clean_linker_0, # of connection points: 2
#     Edge 79, Type (0, 1), BuildingBlock: OJICUG_clean_linker_0, # of connection points: 2
#     Edge 80, Type (0, 1), BuildingBlock: OJICUG_clean_linker_0, # of connection points: 2
#     Edge 81, Type (0, 1), BuildingBlock: OJICUG_clean_linker_0, # of connection points: 2
#     Edge 82, Type (0, 1), BuildingBlock: OJICUG_clean_linker_0, # of connection points: 2
#     Edge 83, Type (0, 1), BuildingBlock: OJICUG_clean_linker_0, # of connection points: 2
#     Edge 84, Type (0, 1), BuildingBlock: OJICUG_clean_linker_0, # of connection points: 2
#     Edge 85, Type (0, 1), BuildingBlock: OJICUG_clean_linker_0, # of connection points: 2
#     Edge 86, Type (0, 1), BuildingBlock: OJICUG_clean_linker_0, # of connection points: 2
#     Edge 87, Type (0, 1), BuildingBlock: OJICUG_clean_linker_0, # of connection points: 2
#     Edge 88, Type (0, 1), BuildingBlock: OJICUG_clean_linker_0, # of connection points: 2
#     Edge 89, Type (0, 1), BuildingBlock: OJICUG_clean_linker_0, # of connection points: 2
#     Edge 90, Type (0, 1), BuildingBlock: OJICUG_clean_linker_0, # of connection points: 2
#     Edge 91, Type (0, 1), BuildingBlock: OJICUG_clean_linker_0, # of connection points: 2
#     Edge 92, Type (0, 1), BuildingBlock: OJICUG_clean_linker_0, # of connection points: 2
#     Edge 93, Type (0, 1), BuildingBlock: OJICUG_clean_linker_0, # of connection points: 2
#     Edge 94, Type (0, 1), BuildingBlock: OJICUG_clean_linker_0, # of connection points: 2
#     Edge 95, Type (0, 1), BuildingBlock: OJICUG_clean_linker_0, # of connection points: 2
#     Edge 96, Type (0, 1), BuildingBlock: OJICUG_clean_linker_0, # of connection points: 2
#     Edge 97, Type (0, 1), BuildingBlock: OJICUG_clean_linker_0, # of connection points: 2
#     Edge 98, Type (0, 1), BuildingBlock: OJICUG_clean_linker_0, # of connection points: 2
#     Edge 99, Type (0, 1), BuildingBlock: OJICUG_clean_linker_0, # of connection points: 2
#     Edge 100, Type (0, 1), BuildingBlock: OJICUG_clean_linker_0, # of connection points: 2
#     Edge 101, Type (0, 1), BuildingBlock: OJICUG_clean_linker_0, # of connection points: 2
#     Edge 102, Type (0, 1), BuildingBlock: OJICUG_clean_linker_0, # of connection points: 2
#     Edge 103, Type (0, 1), BuildingBlock: OJICUG_clean_linker_0, # of connection points: 2
#     Edge 104, Type (0, 1), BuildingBlock: OJICUG_clean_linker_0, # of connection points: 2
#     Edge 105, Type (0, 1), BuildingBlock: OJICUG_clean_linker_0, # of connection points: 2
#     Edge 106, Type (0, 1), BuildingBlock: OJICUG_clean_linker_0, # of connection points: 2
#     Edge 107, Type (0, 1), BuildingBlock: OJICUG_clean_linker_0, # of connection points: 2
#     Edge 108, Type (0, 1), BuildingBlock: OJICUG_clean_linker_0, # of connection points: 2
#     Edge 109, Type (0, 1), BuildingBlock: OJICUG_clean_linker_0, # of connection points: 2
#     Edge 110, Type (0, 1), BuildingBlock: OJICUG_clean_linker_0, # of connection points: 2
#     Edge 111, Type (0, 1), BuildingBlock: OJICUG_clean_linker_0, # of connection points: 2
#     Edge 112, Type (0, 1), BuildingBlock: OJICUG_clean_linker_0, # of connection points: 2
#     Edge 113, Type (0, 1), BuildingBlock: OJICUG_clean_linker_0, # of connection points: 2
#     Edge 114, Type (0, 1), BuildingBlock: OJICUG_clean_linker_0, # of connection points: 2
#     Edge 115, Type (0, 1), BuildingBlock: OJICUG_clean_linker_0, # of connection points: 2
#     Edge 116, Type (0, 1), BuildingBlock: OJICUG_clean_linker_0, # of connection points: 2
#     Edge 117, Type (0, 1), BuildingBlock: OJICUG_clean_linker_0, # of connection points: 2
#     Edge 118, Type (0, 1), BuildingBlock: OJICUG_clean_linker_0, # of connection points: 2
#     Edge 119, Type (0, 1), BuildingBlock: OJICUG_clean_linker_0, # of connection points: 2
#     Edge 120, Type (0, 1), BuildingBlock: OJICUG_clean_linker_0, # of connection points: 2
#     Edge 121, Type (0, 1), BuildingBlock: OJICUG_clean_linker_0, # of connection points: 2
#     Edge 122, Type (0, 1), BuildingBlock: OJICUG_clean_linker_0, # of connection points: 2
#     Edge 123, Type (0, 1), BuildingBlock: OJICUG_clean_linker_0, # of connection points: 2
#     Edge 124, Type (0, 1), BuildingBlock: OJICUG_clean_linker_0, # of connection points: 2
#     Edge 125, Type (0, 1), BuildingBlock: OJICUG_clean_linker_0, # of connection points: 2
#     Edge 126, Type (0, 1), BuildingBlock: OJICUG_clean_linker_0, # of connection points: 2
#     Edge 127, Type (0, 1), BuildingBlock: OJICUG_clean_linker_0, # of connection points: 2
#     Edge 128, Type (0, 1), BuildingBlock: OJICUG_clean_linker_0, # of connection points: 2
#     Edge 129, Type (0, 1), BuildingBlock: OJICUG_clean_linker_0, # of connection points: 2
#     Edge 130, Type (0, 1), BuildingBlock: OJICUG_clean_linker_0, # of connection points: 2
#     Edge 131, Type (0, 1), BuildingBlock: OJICUG_clean_linker_0, # of connection points: 2
#     Edge 132, Type (0, 1), BuildingBlock: OJICUG_clean_linker_0, # of connection points: 2
#     Edge 133, Type (0, 1), BuildingBlock: OJICUG_clean_linker_0, # of connection points: 2
#     Edge 134, Type (0, 1), BuildingBlock: OJICUG_clean_linker_0, # of connection points: 2
#     Edge 135, Type (0, 1), BuildingBlock: OJICUG_clean_linker_0, # of connection points: 2
#     Edge 136, Type (0, 1), BuildingBlock: OJICUG_clean_linker_0, # of connection points: 2
#     Edge 137, Type (0, 1), BuildingBlock: OJICUG_clean_linker_0, # of connection points: 2
#     Edge 138, Type (0, 1), BuildingBlock: OJICUG_clean_linker_0, # of connection points: 2
#     Edge 139, Type (0, 1), BuildingBlock: OJICUG_clean_linker_0, # of connection points: 2
#     Edge 140, Type (0, 1), BuildingBlock: OJICUG_clean_linker_0, # of connection points: 2
#     Edge 141, Type (0, 1), BuildingBlock: OJICUG_clean_linker_0, # of connection points: 2
#     Edge 142, Type (0, 1), BuildingBlock: OJICUG_clean_linker_0, # of connection points: 2
#     Edge 143, Type (0, 1), BuildingBlock: OJICUG_clean_linker_0, # of connection points: 2
#     Edge 144, Type (0, 1), BuildingBlock: OJICUG_clean_linker_0, # of connection points: 2
#     Edge 145, Type (0, 1), BuildingBlock: OJICUG_clean_linker_0, # of connection points: 2
#     Edge 146, Type (0, 1), BuildingBlock: OJICUG_clean_linker_0, # of connection points: 2
#     Edge 147, Type (0, 1), BuildingBlock: OJICUG_clean_linker_0, # of connection points: 2
#     Edge 148, Type (0, 1), BuildingBlock: OJICUG_clean_linker_0, # of connection points: 2
#     Edge 149, Type (0, 1), BuildingBlock: OJICUG_clean_linker_0, # of connection points: 2
#     Edge 150, Type (0, 1), BuildingBlock: OJICUG_clean_linker_0, # of connection points: 2
#     Edge 151, Type (0, 1), BuildingBlock: OJICUG_clean_linker_0, # of connection points: 2
# Relax obj value: 0.021
# Max RMSD: 0.154
# Mean RMSD: 0.096
data_MOF--net-tbo--node1-OLANEW_clean_sbu_2--node2-KUFVIS_clean_linker_0--edge1-OJICUG_clean_linker_0
_symmetry_space_group_name_H-M    P1
_symmetry_Int_Tables_number       1
_symmetry_cell_setting            triclinic
loop_
_symmetry_equiv_pos_as_xyz
'x, y, z'
_cell_length_a     57.073582
_cell_length_b     58.506745
_cell_length_c     56.095607
_cell_angle_alpha  97.977024
_cell_angle_beta   87.227887
_cell_angle_gamma 99.17224
loop_
_atom_site_label
_atom_site_type_symbol
_atom_site_fract_x
_atom_site_fract_y
_atom_site_fract_z
_atom_type_partial_charge
O0 O 0.21427 0.17551 0.1651 0.0
Cd1 Cd 0.18776 0.15306 0.1922 0.0
O2 O 0.18865 0.19751 0.15642 0.0
Cd3 Cd 0.16052 0.18827 0.18314 0.0
O4 O 0.13248 0.19801 0.20913 0.0
C5 C 0.11354 0.20304 0.20148 0.0
O6 O 0.11063 0.20074 0.17813 0.0
C7 C 0.20892 0.19093 0.15325 0.0
C8 C 0.21108 0.12703 0.21933 0.0
O9 O 0.20555 0.11935 0.19749 0.0
O10 O 0.20589 0.14706 0.22824 0.0
O11 O 0.8813 0.2011 0.17686 0.0
Cd12 Cd 0.8527 0.17108 0.15425 0.0
O13 O 0.90436 0.17583 0.18294 0.0
Cd14 Cd 0.87858 0.14507 0.17074 0.0
O15 O 0.85386 0.11703 0.18452 0.0
C16 C 0.84773 0.12266 0.20635 0.0
O17 O 0.85586 0.14375 0.21688 0.0
C18 C 0.90035 0.1968 0.18497 0.0
C19 C 0.82654 0.19029 0.12343 0.0
O20 O 0.8187 0.18721 0.14473 0.0
O21 O 0.84666 0.18416 0.11666 0.0
O22 O 0.90183 0.8227 0.17045 0.0
Cd23 Cd 0.92926 0.84942 0.19743 0.0
O24 O 0.89269 0.85155 0.15318 0.0
Cd25 Cd 0.90699 0.87924 0.1813 0.0
O26 O 0.89542 0.90512 0.20951 0.0
C27 C 0.88595 0.92146 0.20306 0.0
O28 O 0.88555 0.92321 0.17998 0.0
C29 C 0.89126 0.82976 0.15406 0.0
C30 C 0.95511 0.82614 0.2246 0.0
O31 O 0.93626 0.83385 0.23333 0.0
O32 O 0.96167 0.82929 0.20298 0.0
O33 O 0.22513 0.94416 0.13842 0.0
Cd34 Cd 0.2148 0.92382 0.09874 0.0
O35 O 0.20784 0.91172 0.15068 0.0
Cd36 Cd 0.19318 0.88636 0.17459 0.0
O37 O 0.17701 0.8593 0.19576 0.0
C38 C 0.16273 0.8643 0.21305 0.0
O39 O 0.15837 0.88587 0.21794 0.0
C40 C 0.21925 0.93225 0.15564 0.0
C41 C 0.23542 0.88327 0.09155 0.0
O42 O 0.21455 0.88316 0.10109 0.0
O43 O 0.24628 0.90244 0.08509 0.0
O44 O 0.22979 0.89134 0.86675 0.0
Cd45 Cd 0.20567 0.86236 0.88892 0.0
O46 O 0.197 0.89539 0.85063 0.0
Cd47 Cd 0.16969 0.90324 0.82821 0.0
O48 O 0.13531 0.89055 0.81168 0.0
C49 C 0.1342 0.88451 0.78908 0.0
O50 O 0.15369 0.88798 0.77575 0.0
C51 C 0.21943 0.90101 0.85221 0.0
C52 C 0.23214 0.83559 0.91136 0.0
O53 O 0.22502 0.82878 0.88985 0.0
O54 O 0.22699 0.85509 0.92198 0.0
O55 O 0.20686 0.16225 0.91463 0.0
Cd56 Cd 0.18548 0.1396 0.88018 0.0
O57 O 0.18997 0.19282 0.91084 0.0
Cd58 Cd 0.16798 0.17837 0.87973 0.0
O59 O 0.14663 0.18413 0.85026 0.0
C60 C 0.15373 0.20303 0.84149 0.0
O61 O 0.17312 0.21634 0.8499 0.0
C62 C 0.20418 0.18332 0.92166 0.0
C63 C 0.21389 0.11234 0.85033 0.0
O64 O 0.21444 0.13401 0.84847 0.0
O65 O 0.19995 0.10349 0.8664 0.0
O66 O 0.91476 0.24096 0.96001 0.0
Cd67 Cd 0.95585 0.23448 0.95911 0.0
O68 O 0.90417 0.20854 0.93573 0.0
Cd69 Cd 0.88035 0.1828 0.91237 0.0
O70 O 0.86306 0.15557 0.88519 0.0
C71 C 0.8406 0.15183 0.88378 0.0
O72 O 0.82795 0.16445 0.89897 0.0
C73 C 0.89884 0.22708 0.94796 0.0
C74 C 0.97424 0.2401 0.91325 0.0
O75 O 0.96662 0.21968 0.91889 0.0
O76 O 0.97381 0.25773 0.92951 0.0
O77 O 0.89276 0.87389 0.8375 0.0
Cd78 Cd 0.86867 0.89731 0.86605 0.0
O79 O 0.90401 0.8534 0.86396 0.0
Cd80 Cd 0.88035 0.86296 0.89451 0.0
O81 O 0.85648 0.85132 0.92397 0.0
C82 C 0.86493 0.84321 0.94106 0.0
O83 O 0.88798 0.84352 0.94143 0.0
C84 C 0.905 0.85893 0.84272 0.0
C85 C 0.84597 0.92872 0.84507 0.0
O86 O 0.86699 0.93492 0.85311 0.0
O87 O 0.83587 0.90778 0.84674 0.0
O88 O 0.20555 0.67112 0.65678 0.0
Cd89 Cd 0.17871 0.64963 0.68442 0.0
O90 O 0.18061 0.69257 0.64552 0.0
Cd91 Cd 0.15142 0.68472 0.67146 0.0
O92 O 0.12465 0.69956 0.6957 0.0
C93 C 0.10474 0.70196 0.68788 0.0
O94 O 0.09957 0.69365 0.66545 0.0
C95 C 0.20088 0.68593 0.64378 0.0
C96 C 0.20307 0.62415 0.71115 0.0
O97 O 0.19583 0.61563 0.69002 0.0
O98 O 0.19878 0.6446 0.71965 0.0
O99 O 0.87064 0.69581 0.67971 0.0
Cd100 Cd 0.84274 0.66383 0.65905 0.0
O101 O 0.89783 0.67358 0.68221 0.0
Cd102 Cd 0.87353 0.64112 0.67225 0.0
O103 O 0.85097 0.61242 0.68725 0.0
C104 C 0.85487 0.6126 0.70939 0.0
O105 O 0.87146 0.6287 0.71955 0.0
C106 C 0.89142 0.69366 0.68537 0.0
C107 C 0.81916 0.68094 0.62455 0.0
O108 O 0.81008 0.67951 0.64575 0.0
O109 O 0.83913 0.67378 0.61953 0.0
O110 O 0.87569 0.30419 0.67157 0.0
Cd111 Cd 0.89636 0.32772 0.70594 0.0
O112 O 0.86524 0.33441 0.65774 0.0
Cd113 Cd 0.87617 0.35977 0.68908 0.0
O114 O 0.86369 0.3854 0.71697 0.0
C115 C 0.85608 0.40261 0.71006 0.0
O116 O 0.85781 0.40498 0.68706 0.0
C117 C 0.86581 0.31258 0.65563 0.0
C118 C 0.92752 0.30371 0.72588 0.0
O119 O 0.90548 0.30154 0.73222 0.0
O120 O 0.93485 0.31717 0.70999 0.0
O121 O 0.1983 0.4194 0.65866 0.0
Cd122 Cd 0.17071 0.38738 0.63759 0.0
O123 O 0.21127 0.39556 0.68045 0.0
Cd124 Cd 0.18232 0.36658 0.67474 0.0
O125 O 0.15837 0.33642 0.68472 0.0
C126 C 0.14148 0.34045 0.69947 0.0
O127 O 0.13854 0.36223 0.70643 0.0
C128 C 0.21293 0.41553 0.67347 0.0
C129 C 0.19569 0.35606 0.60868 0.0
O130 O 0.19193 0.3551 0.63116 0.0
O131 O 0.18731 0.37171 0.59929 0.0
O132 O 0.22776 0.37942 0.33807 0.0
Cd133 Cd 0.20075 0.35058 0.35831 0.0
O134 O 0.20861 0.40896 0.35037 0.0
Cd135 Cd 0.17765 0.3856 0.36185 0.0
O136 O 0.14534 0.36069 0.35356 0.0
C137 C 0.12923 0.36682 0.34204 0.0
O138 O 0.13193 0.38834 0.3369 0.0
C139 C 0.22628 0.40106 0.33942 0.0
C140 C 0.22376 0.32778 0.38898 0.0
O141 O 0.22109 0.3196 0.3667 0.0
O142 O 0.21575 0.3468 0.3967 0.0
O143 O 0.21215 0.65674 0.41186 0.0
Cd144 Cd 0.19088 0.63333 0.37781 0.0
O145 O 0.19822 0.6879 0.40431 0.0
Cd146 Cd 0.17637 0.67313 0.37333 0.0
O147 O 0.15711 0.68518 0.34592 0.0
C148 C 0.16576 0.70562 0.34154 0.0
O149 O 0.1851 0.71623 0.35258 0.0
C150 C 0.21096 0.6784 0.41683 0.0
C151 C 0.22104 0.60841 0.3477 0.0
O152 O 0.22007 0.62986 0.34601 0.0
O153 O 0.20766 0.59862 0.36359 0.0
O154 O 0.9254 0.73607 0.45917 0.0
Cd155 Cd 0.96667 0.73007 0.45646 0.0
O156 O 0.91385 0.70243 0.43726 0.0
Cd157 Cd 0.88887 0.67587 0.41617 0.0
O158 O 0.87006 0.64882 0.38988 0.0
C159 C 0.87234 0.65143 0.36772 0.0
O160 O 0.88563 0.67029 0.36154 0.0
C161 C 0.90894 0.72148 0.44873 0.0
C162 C 0.98507 0.74171 0.41224 0.0
O163 O 0.97788 0.72033 0.41508 0.0
O164 O 0.98412 0.75742 0.43045 0.0
O165 O 0.88906 0.36592 0.34128 0.0
Cd166 Cd 0.85734 0.38645 0.36129 0.0
O167 O 0.89104 0.34104 0.36719 0.0
Cd168 Cd 0.86238 0.34883 0.39312 0.0
O169 O 0.83592 0.33559 0.4198 0.0
C170 C 0.84329 0.32881 0.4383 0.0
O171 O 0.86628 0.33147 0.44144 0.0
C172 C 0.89823 0.34937 0.34785 0.0
C173 C 0.84676 0.4222 0.33664 0.0
O174 O 0.85846 0.42735 0.35608 0.0
O175 O 0.84025 0.40057 0.32896 0.0
O176 O 0.69663 0.16414 0.66603 0.0
Cd177 Cd 0.67322 0.14022 0.69419 0.0
O178 O 0.66937 0.18324 0.65491 0.0
Cd179 Cd 0.63953 0.17351 0.67961 0.0
O180 O 0.60987 0.18638 0.70119 0.0
C181 C 0.59087 0.18869 0.69137 0.0
O182 O 0.58831 0.18139 0.66828 0.0
C183 C 0.69041 0.17836 0.65317 0.0
C184 C 0.70163 0.11852 0.72104 0.0
O185 O 0.69523 0.10933 0.69981 0.0
O186 O 0.69473 0.13791 0.72953 0.0
O187 O 0.3501 0.19943 0.6749 0.0
Cd188 Cd 0.32062 0.17156 0.65089 0.0
O189 O 0.38013 0.18182 0.66059 0.0
Cd190 Cd 0.35518 0.14985 0.65031 0.0
O191 O 0.33145 0.12146 0.66479 0.0
C192 C 0.34073 0.1059 0.67302 0.0
O193 O 0.36383 0.10646 0.67063 0.0
C194 C 0.37237 0.19912 0.67291 0.0
C195 C 0.29989 0.19347 0.61782 0.0
O196 O 0.29001 0.19092 0.6385 0.0
O197 O 0.31944 0.1855 0.61269 0.0
O198 O 0.40477 0.82188 0.64604 0.0
Cd199 Cd 0.43412 0.84798 0.67156 0.0
O200 O 0.37503 0.83754 0.66444 0.0
Cd201 Cd 0.39406 0.86562 0.68931 0.0
O202 O 0.3846 0.89508 0.71431 0.0
C203 C 0.37549 0.91034 0.70537 0.0
O204 O 0.37447 0.90875 0.68183 0.0
C205 C 0.38263 0.82251 0.64862 0.0
C206 C 0.45663 0.82389 0.70112 0.0
O207 O 0.43831 0.83314 0.70876 0.0
O208 O 0.46426 0.82601 0.67955 0.0
O209 O 0.72449 0.91443 0.66731 0.0
Cd210 Cd 0.69861 0.87911 0.64938 0.0
O211 O 0.74079 0.89492 0.69135 0.0
Cd212 Cd 0.71513 0.86306 0.68613 0.0
O213 O 0.68925 0.83287 0.69291 0.0
C214 C 0.6676 0.83547 0.69604 0.0
O215 O 0.66156 0.85576 0.6936 0.0
C216 C 0.73987 0.91376 0.68278 0.0
C217 C 0.72246 0.84714 0.6197 0.0
O218 O 0.71229 0.86172 0.61045 0.0
O219 O 0.72147 0.84785 0.64259 0.0
O220 O 0.737 0.88179 0.3638 0.0
Cd221 Cd 0.71191 0.85318 0.38556 0.0
O222 O 0.7041 0.88702 0.34878 0.0
Cd223 Cd 0.67697 0.89648 0.32729 0.0
O224 O 0.64233 0.88583 0.31088 0.0
C225 C 0.6411 0.87979 0.28829 0.0
O226 O 0.66072 0.88218 0.27501 0.0
C227 C 0.72661 0.89201 0.3498 0.0
C228 C 0.73736 0.82667 0.40936 0.0
O229 O 0.73148 0.82006 0.38742 0.0
O230 O 0.73143 0.8459 0.41984 0.0
O231 O 0.69367 0.13563 0.43539 0.0
Cd232 Cd 0.67109 0.10604 0.40678 0.0
O233 O 0.68058 0.16033 0.41565 0.0
Cd234 Cd 0.67279 0.19132 0.40142 0.0
O235 O 0.65367 0.21043 0.37993 0.0
C236 C 0.66149 0.23041 0.37375 0.0
O237 O 0.68247 0.24117 0.38087 0.0
C238 C 0.69333 0.15671 0.43237 0.0
C239 C 0.7019 0.08747 0.37212 0.0
O240 O 0.69545 0.10728 0.37102 0.0
O241 O 0.69354 0.07615 0.38943 0.0
O242 O 0.40422 0.2222 0.4457 0.0
Cd243 Cd 0.43423 0.19695 0.43504 0.0
O244 O 0.37994 0.19145 0.43076 0.0
Cd245 Cd 0.34584 0.17024 0.42145 0.0
O246 O 0.31922 0.14473 0.40195 0.0
C247 C 0.3249 0.12483 0.3943 0.0
O248 O 0.34576 0.12041 0.39965 0.0
C249 C 0.38333 0.21281 0.43988 0.0
C250 C 0.45895 0.21042 0.3941 0.0
O251 O 0.4398 0.19558 0.39224 0.0
O252 O 0.46656 0.21835 0.41524 0.0
O253 O 0.39163 0.87234 0.33195 0.0
Cd254 Cd 0.35743 0.88697 0.35375 0.0
O255 O 0.40358 0.85353 0.35957 0.0
Cd256 Cd 0.37641 0.85887 0.38801 0.0
O257 O 0.35252 0.84563 0.41673 0.0
C258 C 0.36115 0.83859 0.43442 0.0
O259 O 0.38434 0.84077 0.43581 0.0
C260 C 0.40592 0.85998 0.33869 0.0
C261 C 0.33671 0.91708 0.32904 0.0
O262 O 0.34997 0.92523 0.34701 0.0
O263 O 0.33338 0.89495 0.32265 0.0
O264 O 0.71794 0.67785 0.16897 0.0
Cd265 Cd 0.69381 0.65418 0.19688 0.0
O266 O 0.69102 0.69733 0.15783 0.0
Cd267 Cd 0.661 0.68737 0.18227 0.0
O268 O 0.63116 0.69956 0.2041 0.0
C269 C 0.61172 0.70107 0.19463 0.0
O270 O 0.60881 0.69337 0.17166 0.0
C271 C 0.712 0.69228 0.15619 0.0
C272 C 0.72123 0.62928 0.22127 0.0
O273 O 0.7132 0.62095 0.20038 0.0
O274 O 0.71636 0.64931 0.2306 0.0
O275 O 0.36636 0.70389 0.18872 0.0
Cd276 Cd 0.33423 0.67789 0.16673 0.0
O277 O 0.39526 0.68957 0.16725 0.0
Cd278 Cd 0.36992 0.65828 0.15562 0.0
O279 O 0.3465 0.62875 0.16837 0.0
C280 C 0.35619 0.61344 0.17658 0.0
O281 O 0.37944 0.6151 0.17513 0.0
C282 C 0.38838 0.7049 0.18323 0.0
C283 C 0.31565 0.70172 0.13395 0.0
O284 O 0.30654 0.70109 0.15523 0.0
O285 O 0.33328 0.69081 0.12809 0.0
O286 O 0.39742 0.31534 0.16505 0.0
Cd287 Cd 0.42238 0.34221 0.19448 0.0
O288 O 0.39077 0.34431 0.14645 0.0
Cd289 Cd 0.40531 0.37175 0.17473 0.0
O290 O 0.39708 0.39891 0.20334 0.0
C291 C 0.38994 0.41656 0.19691 0.0
O292 O 0.38995 0.41837 0.17382 0.0
C293 C 0.38839 0.32251 0.14769 0.0
C294 C 0.44854 0.32025 0.22275 0.0
O295 O 0.42811 0.32533 0.22997 0.0
O296 O 0.45646 0.3253 0.20204 0.0
O297 O 0.71885 0.41852 0.16712 0.0
Cd298 Cd 0.69162 0.38319 0.1518 0.0
O299 O 0.73556 0.39866 0.19044 0.0
Cd300 Cd 0.70788 0.36841 0.18883 0.0
O301 O 0.68296 0.34006 0.20116 0.0
C302 C 0.66196 0.34351 0.20722 0.0
O303 O 0.65558 0.36354 0.20433 0.0
C304 C 0.73511 0.41734 0.18142 0.0
C305 C 0.71477 0.35026 0.12274 0.0
O306 O 0.70406 0.36421 0.11315 0.0
O307 O 0.7145 0.35188 0.14569 0.0
O308 O 0.71418 0.38895 0.87551 0.0
Cd309 Cd 0.69295 0.35835 0.89766 0.0
O310 O 0.68225 0.38369 0.85424 0.0
Cd311 Cd 0.65754 0.38815 0.82725 0.0
O312 O 0.6239 0.37546 0.80924 0.0
C313 C 0.62353 0.36833 0.7868 0.0
O314 O 0.64359 0.37036 0.77418 0.0
C315 C 0.70323 0.39417 0.85831 0.0
C316 C 0.72192 0.33228 0.91786 0.0
O317 O 0.71465 0.32608 0.89631 0.0
O318 O 0.71585 0.35095 0.92955 0.0
O319 O 0.70452 0.6681 0.92678 0.0
Cd320 Cd 0.6833 0.64457 0.8928 0.0
O321 O 0.6994 0.70056 0.91334 0.0
Cd322 Cd 0.67887 0.68681 0.88126 0.0
O323 O 0.66109 0.69659 0.85138 0.0
C324 C 0.64973 0.71368 0.85682 0.0
O325 O 0.64873 0.72311 0.87945 0.0
C326 C 0.70771 0.69029 0.92884 0.0
C327 C 0.71159 0.61408 0.86773 0.0
O328 O 0.7143 0.63566 0.86473 0.0
O329 O 0.69526 0.60662 0.88251 0.0
O330 O 0.41314 0.72507 0.94169 0.0
Cd331 Cd 0.44659 0.70547 0.92736 0.0
O332 O 0.3927 0.69135 0.92832 0.0
Cd333 Cd 0.36149 0.6668 0.9161 0.0
O334 O 0.34122 0.64101 0.89013 0.0
C335 C 0.3445 0.64418 0.86819 0.0
O336 O 0.35905 0.66267 0.86287 0.0
C337 C 0.39314 0.71242 0.93781 0.0
C338 C 0.46394 0.72038 0.88401 0.0
O339 O 0.44679 0.70336 0.88427 0.0
O340 O 0.47291 0.73002 0.90415 0.0
O341 O 0.38234 0.37182 0.8307 0.0
Cd342 Cd 0.35677 0.39456 0.85803 0.0
O343 O 0.39287 0.35096 0.85723 0.0
Cd344 Cd 0.36899 0.36012 0.88771 0.0
O345 O 0.34606 0.34782 0.91752 0.0
C346 C 0.35527 0.34001 0.93435 0.0
O347 O 0.37844 0.34104 0.93423 0.0
C348 C 0.39445 0.35684 0.83611 0.0
C349 C 0.33368 0.42429 0.83505 0.0
O350 O 0.35436 0.43132 0.8437 0.0
O351 O 0.32405 0.40328 0.8371 0.0
H352 H 0.27719 0.26384 0.96102 0.0
H353 H 0.31275 0.28861 0.02725 0.0
H354 H 0.26321 0.22385 0.01982 0.0
H355 H 0.25822 0.23266 0.0591 0.0
H356 H 0.3028 0.24799 0.12027 0.0
H357 H 0.32867 0.27213 0.0538 0.0
C358 C 0.2801 0.26197 0.97957 0.0
C359 C 0.2676 0.24275 0.98944 0.0
C360 C 0.29694 0.27815 0.99287 0.0
C361 C 0.30067 0.27527 0.01681 0.0
C362 C 0.28864 0.25575 0.02719 0.0
C363 C 0.27239 0.2393 0.01289 0.0
C364 C 0.29287 0.25278 0.05283 0.0
C365 C 0.2752 0.24029 0.0667 0.0
C366 C 0.27911 0.2377 0.0907 0.0
C367 C 0.30043 0.24869 0.10134 0.0
C368 C 0.31799 0.2618 0.08832 0.0
C369 C 0.31443 0.26301 0.06393 0.0
H370 H 0.76485 0.26088 0.09814 0.0
H371 H 0.78889 0.22707 0.03073 0.0
H372 H 0.76063 0.2915 0.03375 0.0
H373 H 0.75067 0.27674 0.99616 0.0
H374 H 0.80008 0.26901 0.93638 0.0
H375 H 0.81142 0.24265 0.00166 0.0
C376 C 0.76738 0.26023 0.07883 0.0
C377 C 0.76017 0.27762 0.0672 0.0
C378 C 0.7786 0.24246 0.06591 0.0
C379 C 0.78129 0.24143 0.04075 0.0
C380 C 0.77469 0.25891 0.02867 0.0
C381 C 0.76444 0.27708 0.04229 0.0
C382 C 0.78014 0.25941 0.00234 0.0
C383 C 0.76667 0.2706 0.98849 0.0
C384 C 0.77391 0.27461 0.96491 0.0
C385 C 0.794 0.26572 0.95437 0.0
C386 C 0.80689 0.25337 0.96744 0.0
C387 C 0.8001 0.25056 0.99135 0.0
H388 H 0.78401 0.76929 0.96688 0.0
H389 H 0.76697 0.73026 0.02605 0.0
H390 H 0.81844 0.7937 0.03366 0.0
H391 H 0.8327 0.77791 0.06117 0.0
H392 H 0.80573 0.75335 0.12702 0.0
H393 H 0.76252 0.73754 0.06486 0.0
C394 C 0.78628 0.7675 0.98558 0.0
C395 C 0.80327 0.7833 0.99905 0.0
C396 C 0.77273 0.74884 0.99553 0.0
C397 C 0.77688 0.74539 0.01914 0.0
C398 C 0.79338 0.76138 0.03358 0.0
C399 C 0.80624 0.78053 0.02317 0.0
C400 C 0.79703 0.75828 0.05933 0.0
C401 C 0.81826 0.76867 0.07093 0.0
C402 C 0.82125 0.76758 0.09542 0.0
C403 C 0.80369 0.75408 0.10804 0.0
C404 C 0.78276 0.74268 0.09685 0.0
C405 C 0.77926 0.74543 0.07279 0.0
H406 H 0.27544 0.78528 0.09945 0.0
H407 H 0.291 0.73818 0.03655 0.0
H408 H 0.27388 0.80591 0.02947 0.0
H409 H 0.25851 0.78615 0.99531 0.0
H410 H 0.30342 0.76668 0.93469 0.0
H411 H 0.31481 0.74714 0.0037 0.0
C412 C 0.27703 0.78102 0.08008 0.0
C413 C 0.27304 0.79746 0.06539 0.0
C414 C 0.28431 0.7598 0.06985 0.0
C415 C 0.28636 0.75484 0.04455 0.0
C416 C 0.28244 0.77125 0.02962 0.0
C417 C 0.2762 0.79263 0.04044 0.0
C418 C 0.28616 0.76713 0.00291 0.0
C419 C 0.27327 0.77764 0.98787 0.0
C420 C 0.27971 0.77823 0.96347 0.0
C421 C 0.29804 0.76621 0.95344 0.0
C422 C 0.31005 0.75424 0.96782 0.0
C423 C 0.30422 0.75495 0.99249 0.0
H424 H 0.08866 0.27721 0.28106 0.0
H425 H 0.02141 0.24595 0.25207 0.0
H426 H 0.02894 0.31291 0.29733 0.0
H427 H 0.99084 0.30509 0.30327 0.0
H428 H 0.92822 0.28281 0.26216 0.0
H429 H 0.99267 0.25793 0.23677 0.0
C430 C 0.0698 0.27739 0.27975 0.0
C431 C 0.05984 0.29619 0.29206 0.0
C432 C 0.05617 0.25969 0.26465 0.0
C433 C 0.03186 0.26052 0.26266 0.0
C434 C 0.02134 0.2797 0.27415 0.0
C435 C 0.03589 0.29763 0.28866 0.0
C436 C 0.99553 0.28112 0.27064 0.0
C437 C 0.98262 0.29521 0.2873 0.0
C438 C 0.95874 0.29675 0.28357 0.0
C439 C 0.94704 0.2828 0.264 0.0
C440 C 0.95901 0.26789 0.24775 0.0
C441 C 0.98339 0.26812 0.25055 0.0
H442 H 0.80774 0.93192 0.27875 0.0
H443 H 0.82782 0.00092 0.2598 0.0
H444 H 0.76323 0.98354 0.30141 0.0
H445 H 0.76926 0.02025 0.31512 0.0
H446 H 0.77164 0.08187 0.28128 0.0
H447 H 0.81021 0.02806 0.24922 0.0
C448 C 0.80446 0.94977 0.27974 0.0
C449 C 0.78441 0.95639 0.2926 0.0
C450 C 0.81978 0.96562 0.26738 0.0
C451 C 0.81516 0.98865 0.26841 0.0
C452 C 0.79473 0.9957 0.28065 0.0
C453 C 0.77929 0.97904 0.29229 0.0
C454 C 0.78929 0.02016 0.2813 0.0
C455 C 0.77481 0.02966 0.30004 0.0
C456 C 0.76781 0.05163 0.30003 0.0
C457 C 0.777 0.06502 0.28186 0.0
C458 C 0.79337 0.05716 0.26441 0.0
C459 C 0.79856 0.03434 0.26353 0.0
H460 H 0.14538 0.77719 0.27102 0.0
H461 H 0.08091 0.74386 0.30223 0.0
H462 H 0.0804 0.80377 0.26551 0.0
H463 H 0.04305 0.78658 0.25856 0.0
H464 H 0.98536 0.77615 0.31019 0.0
H465 H 0.05355 0.76088 0.32502 0.0
C466 C 0.1264 0.77593 0.2745 0.0
C467 C 0.11404 0.792 0.26617 0.0
C468 C 0.11468 0.75884 0.28804 0.0
C469 C 0.09 0.75724 0.2921 0.0
C470 C 0.07723 0.77338 0.28414 0.0
C471 C 0.08961 0.79079 0.27129 0.0
C472 C 0.05144 0.77313 0.29057 0.0
C473 C 0.03624 0.78113 0.27554 0.0
C474 C 0.01246 0.78283 0.28256 0.0
C475 C 0.00372 0.77554 0.30459 0.0
C476 C 0.01846 0.76721 0.31953 0.0
C477 C 0.04218 0.76619 0.31259 0.0
H478 H 0.26505 0.1007 0.30525 0.0
H479 H 0.24978 0.04019 0.25302 0.0
H480 H 0.27863 0.03474 0.32145 0.0
H481 H 0.29461 0.00615 0.30134 0.0
H482 H 0.27141 0.94363 0.25361 0.0
H483 H 0.23786 0.00356 0.25251 0.0
C484 C 0.26408 0.08202 0.30023 0.0
C485 C 0.2731 0.06887 0.31571 0.0
C486 C 0.25475 0.07162 0.27795 0.0
C487 C 0.25589 0.04778 0.27069 0.0
C488 C 0.26476 0.03394 0.28598 0.0
C489 C 0.2727 0.04481 0.3088 0.0
C490 C 0.26609 0.00846 0.27799 0.0
C491 C 0.28243 0.99676 0.28792 0.0
C492 C 0.28379 0.97298 0.28012 0.0
C493 C 0.26996 0.96153 0.26059 0.0
C494 C 0.25449 0.97307 0.24964 0.0
C495 C 0.25152 0.99579 0.2596 0.0
H496 H 0.08692 0.79396 0.74246 0.0
H497 H 0.0171 0.75446 0.73615 0.0
H498 H 0.02663 0.82849 0.76214 0.0
H499 H 0.99153 0.81767 0.78142 0.0
H500 H 0.92274 0.78582 0.75595 0.0
H501 H 0.98503 0.76335 0.72057 0.0
C502 C 0.06783 0.79317 0.74446 0.0
C503 C 0.05841 0.81344 0.75348 0.0
C504 C 0.05303 0.77196 0.73792 0.0
C505 C 0.02832 0.77112 0.74057 0.0
C506 C 0.01824 0.79141 0.74923 0.0
C507 C 0.03367 0.81254 0.75581 0.0
C508 C 0.99177 0.79047 0.75091 0.0
C509 C 0.98085 0.80532 0.76855 0.0
C510 C 0.95601 0.8043 0.76982 0.0
C511 C 0.9419 0.7875 0.75404 0.0
C512 C 0.95228 0.77205 0.73684 0.0
C513 C 0.97714 0.77433 0.73485 0.0
H514 H 0.29972 0.93386 0.78046 0.0
H515 H 0.32143 0.9973 0.74999 0.0
H516 H 0.25801 0.98919 0.79535 0.0
H517 H 0.26765 0.02795 0.80301 0.0
H518 H 0.27453 0.08267 0.75835 0.0
H519 H 0.30116 0.01921 0.73239 0.0
C520 C 0.29713 0.95148 0.77861 0.0
C521 C 0.27779 0.96052 0.79061 0.0
C522 C 0.31257 0.96446 0.76352 0.0
C523 C 0.30872 0.98704 0.76076 0.0
C524 C 0.28896 0.99637 0.77193 0.0
C525 C 0.27345 0.98269 0.78671 0.0
C526 C 0.28464 0.02026 0.76811 0.0
C527 C 0.27295 0.03415 0.78597 0.0
C528 C 0.2687 0.05647 0.78243 0.0
C529 C 0.27723 0.06533 0.76109 0.0
C530 C 0.28973 0.05229 0.74343 0.0
C531 C 0.29263 0.02956 0.74672 0.0
H532 H 0.12445 0.25623 0.75737 0.0
H533 H 0.06338 0.22564 0.79618 0.0
H534 H 0.05697 0.2773 0.75007 0.0
H535 H 0.01927 0.25898 0.74843 0.0
H536 H 0.96906 0.26238 0.80803 0.0
H537 H 0.03728 0.24463 0.81817 0.0
C538 C 0.10555 0.25429 0.76148 0.0
C539 C 0.09161 0.26785 0.75121 0.0
C540 C 0.09563 0.23943 0.77822 0.0
C541 C 0.07106 0.23718 0.78341 0.0
C542 C 0.05672 0.25082 0.77348 0.0
C543 C 0.06733 0.26601 0.7573 0.0
C544 C 0.03154 0.25149 0.78203 0.0
C545 C 0.01477 0.2574 0.76716 0.0
C546 C 0.99226 0.26172 0.77636 0.0
C547 C 0.98613 0.25881 0.80042 0.0
C548 C 0.0021 0.25183 0.81508 0.0
C549 C 0.02473 0.24845 0.80598 0.0
H550 H 0.775 0.11139 0.79796 0.0
H551 H 0.75718 0.04293 0.75889 0.0
H552 H 0.8125 0.05691 0.81133 0.0
H553 H 0.80353 0.019 0.81332 0.0
H554 H 0.79772 0.95598 0.76391 0.0
H555 H 0.77881 0.01732 0.74112 0.0
C556 C 0.77747 0.09324 0.79435 0.0
C557 C 0.79421 0.08544 0.8075 0.0
C558 C 0.76439 0.07818 0.77637 0.0
C559 C 0.76834 0.0548 0.7717 0.0
C560 C 0.78594 0.04663 0.78383 0.0
C561 C 0.79889 0.06241 0.80167 0.0
C562 C 0.7904 0.0217 0.77807 0.0
C563 C 0.79953 0.01016 0.79541 0.0
C564 C 0.80255 0.98656 0.79011 0.0
C565 C 0.79614 0.97436 0.76756 0.0
C566 C 0.78718 0.98521 0.74999 0.0
C567 C 0.78491 0.00895 0.75516 0.0
H568 H 0.28438 0.76046 0.45698 0.0
H569 H 0.26673 0.72035 0.51517 0.0
H570 H 0.3145 0.78621 0.52579 0.0
H571 H 0.32699 0.77194 0.5558 0.0
H572 H 0.29542 0.74501 0.61899 0.0
H573 H 0.25791 0.72857 0.55315 0.0
C574 C 0.286 0.75865 0.47579 0.0
C575 C 0.30148 0.77526 0.49025 0.0
C576 C 0.27307 0.73924 0.48495 0.0
C577 C 0.27619 0.73599 0.50883 0.0
C578 C 0.29088 0.75287 0.52432 0.0
C579 C 0.30347 0.77255 0.51458 0.0
C580 C 0.2925 0.75019 0.55052 0.0
C581 C 0.3123 0.76155 0.5641 0.0
C582 C 0.31299 0.76038 0.58891 0.0
C583 C 0.29475 0.74615 0.5999 0.0
C584 C 0.27517 0.73423 0.5869 0.0
C585 C 0.2738 0.73686 0.5625 0.0
H586 H 0.76614 0.75494 0.59477 0.0
H587 H 0.79194 0.72057 0.52841 0.0
H588 H 0.76883 0.78748 0.5306 0.0
H589 H 0.75954 0.77234 0.49211 0.0
H590 H 0.81197 0.76347 0.43533 0.0
H591 H 0.81846 0.7371 0.50187 0.0
C592 C 0.76992 0.75449 0.57563 0.0
C593 C 0.76523 0.77293 0.56391 0.0
C594 C 0.78025 0.73592 0.56313 0.0
C595 C 0.78479 0.73532 0.53822 0.0
C596 C 0.78058 0.75373 0.52608 0.0
C597 C 0.77096 0.77253 0.53925 0.0
C598 C 0.78785 0.75437 0.50019 0.0
C599 C 0.77569 0.76584 0.48542 0.0
C600 C 0.78436 0.76952 0.46216 0.0
C601 C 0.80481 0.76038 0.45305 0.0
C602 C 0.81661 0.74802 0.46716 0.0
C603 C 0.80819 0.74523 0.49065 0.0
H604 H 0.76398 0.25 0.46151 0.0
H605 H 0.74768 0.21377 0.52285 0.0
H606 H 0.79382 0.28031 0.5296 0.0
H607 H 0.80972 0.26533 0.55779 0.0
H608 H 0.78365 0.23909 0.62319 0.0
H609 H 0.74007 0.22385 0.56127 0.0
C610 C 0.7655 0.24959 0.48063 0.0
C611 C 0.78079 0.26724 0.49427 0.0
C612 C 0.75323 0.23056 0.49104 0.0
C613 C 0.7565 0.22906 0.51538 0.0
C614 C 0.77109 0.24683 0.52984 0.0
C615 C 0.78291 0.26607 0.51898 0.0
C616 C 0.77445 0.24482 0.55588 0.0
C617 C 0.79555 0.25563 0.56749 0.0
C618 C 0.79883 0.25388 0.59179 0.0
C619 C 0.78138 0.24016 0.60432 0.0
C620 C 0.76036 0.22894 0.59326 0.0
C621 C 0.75675 0.23185 0.5693 0.0
H622 H 0.24618 0.26829 0.58681 0.0
H623 H 0.25044 0.30068 0.52228 0.0
H624 H 0.27694 0.23573 0.52231 0.0
H625 H 0.30433 0.25372 0.49825 0.0
H626 H 0.29784 0.27186 0.42772 0.0
H627 H 0.24446 0.28504 0.48266 0.0
C628 C 0.25104 0.26812 0.56791 0.0
C629 C 0.26299 0.25035 0.55625 0.0
C630 C 0.24595 0.2861 0.55567 0.0
C631 C 0.25299 0.28612 0.53133 0.0
C632 C 0.26439 0.26815 0.51901 0.0
C633 C 0.26876 0.25005 0.53159 0.0
C634 C 0.27317 0.26909 0.49357 0.0
C635 C 0.29436 0.26074 0.4858 0.0
C636 C 0.30301 0.26119 0.46206 0.0
C637 C 0.29072 0.27091 0.44588 0.0
C638 C 0.26991 0.28027 0.45341 0.0
C639 C 0.26103 0.27881 0.47714 0.0
H640 H 0.77632 0.42504 0.78443 0.0
H641 H 0.7465 0.48694 0.80877 0.0
H642 H 0.81121 0.4904 0.76485 0.0
H643 H 0.80106 0.5211 0.75377 0.0
H644 H 0.78226 0.58562 0.78761 0.0
H645 H 0.75882 0.52358 0.82019 0.0
C646 C 0.77714 0.44376 0.78498 0.0
C647 C 0.79532 0.45649 0.77234 0.0
C648 C 0.76008 0.45496 0.79861 0.0
C649 C 0.76056 0.47905 0.79888 0.0
C650 C 0.77867 0.49246 0.78636 0.0
C651 C 0.79627 0.48078 0.77358 0.0
C652 C 0.77941 0.5184 0.78674 0.0
C653 C 0.79214 0.53031 0.76864 0.0
C654 C 0.79409 0.55461 0.7698 0.0
C655 C 0.78159 0.56703 0.78779 0.0
C656 C 0.7683 0.55585 0.8057 0.0
C657 C 0.76782 0.53168 0.80541 0.0
H658 H 0.27617 0.60967 0.78457 0.0
H659 H 0.2481 0.54169 0.74944 0.0
H660 H 0.30658 0.55058 0.79784 0.0
H661 H 0.29406 0.5136 0.80141 0.0
H662 H 0.27924 0.44964 0.75382 0.0
H663 H 0.26545 0.51305 0.73125 0.0
C664 C 0.27633 0.591 0.78129 0.0
C665 C 0.29224 0.58138 0.79372 0.0
C666 C 0.26063 0.57685 0.7649 0.0
C667 C 0.26114 0.55263 0.76108 0.0
C668 C 0.27786 0.54258 0.77252 0.0
C669 C 0.29329 0.55738 0.78895 0.0
C670 C 0.27918 0.51686 0.76721 0.0
C671 C 0.28813 0.50468 0.78405 0.0
C672 C 0.28876 0.48053 0.779 0.0
C673 C 0.27957 0.46836 0.75731 0.0
C674 C 0.27052 0.47991 0.74033 0.0
C675 C 0.2712 0.50418 0.74507 0.0
H676 H 0.31748 0.43688 0.27725 0.0
H677 H 0.2726 0.48983 0.29058 0.0
H678 H 0.33858 0.50215 0.25021 0.0
H679 H 0.31833 0.52379 0.2322 0.0
H680 H 0.28722 0.58472 0.258 0.0
H681 H 0.28108 0.52876 0.30106 0.0
C682 C 0.31408 0.45425 0.27557 0.0
C683 C 0.32974 0.46825 0.26152 0.0
C684 C 0.29362 0.46204 0.28663 0.0
C685 C 0.28909 0.4844 0.28349 0.0
C686 C 0.30513 0.49928 0.27041 0.0
C687 C 0.32566 0.49102 0.25992 0.0
C688 C 0.30009 0.52302 0.267 0.0
C689 C 0.30864 0.53325 0.24628 0.0
C690 C 0.30472 0.55577 0.2433 0.0
C691 C 0.29071 0.56758 0.26054 0.0
C692 C 0.28164 0.55777 0.28122 0.0
C693 C 0.28689 0.53572 0.28451 0.0
H694 H 0.79991 0.61507 0.28913 0.0
H695 H 0.76982 0.54716 0.25553 0.0
H696 H 0.83137 0.55578 0.2999 0.0
H697 H 0.82004 0.51846 0.30292 0.0
H698 H 0.80135 0.45499 0.25532 0.0
H699 H 0.78617 0.51878 0.23547 0.0
C700 C 0.79994 0.59638 0.28574 0.0
C701 C 0.81673 0.58673 0.29696 0.0
C702 C 0.78321 0.58228 0.27038 0.0
C703 C 0.78358 0.55804 0.26634 0.0
C704 C 0.8011 0.54788 0.27645 0.0
C705 C 0.8175 0.56265 0.29199 0.0
C706 C 0.80233 0.52214 0.27041 0.0
C707 C 0.8127 0.50966 0.28608 0.0
C708 C 0.81359 0.48556 0.28008 0.0
C709 C 0.80272 0.47383 0.259 0.0
C710 C 0.79275 0.48566 0.24301 0.0
C711 C 0.79309 0.50979 0.24853 0.0
H712 H 0.41096 0.28871 0.74662 0.0
H713 H 0.47968 0.30965 0.77688 0.0
H714 H 0.46924 0.25445 0.71713 0.0
H715 H 0.50045 0.24363 0.73286 0.0
H716 H 0.57207 0.27834 0.74199 0.0
H717 H 0.51498 0.31798 0.75723 0.0
C718 C 0.42949 0.28665 0.74653 0.0
C719 C 0.43798 0.26907 0.73029 0.0
C720 C 0.44436 0.30117 0.76342 0.0
C721 C 0.46845 0.29872 0.76342 0.0
C722 C 0.47798 0.28236 0.74627 0.0
C723 C 0.4624 0.26747 0.72997 0.0
C724 C 0.50409 0.28096 0.74534 0.0
C725 C 0.51265 0.25962 0.73756 0.0
C726 C 0.53716 0.25863 0.73634 0.0
C727 C 0.55316 0.27902 0.74295 0.0
C728 C 0.54524 0.30031 0.75068 0.0
C729 C 0.52078 0.30124 0.75185 0.0
H730 H 0.63653 0.76338 0.76511 0.0
H731 H 0.57112 0.74523 0.8022 0.0
H732 H 0.57229 0.775 0.73556 0.0
H733 H 0.53825 0.78313 0.74516 0.0
H734 H 0.47343 0.76497 0.78474 0.0
H735 H 0.53479 0.73783 0.80042 0.0
C736 C 0.61734 0.76179 0.7656 0.0
C737 C 0.60573 0.77114 0.74858 0.0
C738 C 0.6045 0.75192 0.78449 0.0
C739 C 0.57991 0.75175 0.78655 0.0
C740 C 0.56735 0.76001 0.76918 0.0
C741 C 0.58078 0.76904 0.74979 0.0
C742 C 0.54083 0.76032 0.77213 0.0
C743 C 0.52881 0.77316 0.75837 0.0
C744 C 0.50434 0.7742 0.76202 0.0
C745 C 0.49198 0.76358 0.7809 0.0
C746 C 0.50368 0.7516 0.79535 0.0
C747 C 0.52732 0.74881 0.78991 0.0
H748 H 0.42838 0.79472 0.2536 0.0
H749 H 0.49765 0.81899 0.28148 0.0
H750 H 0.48722 0.76203 0.2232 0.0
H751 H 0.5198 0.75306 0.23784 0.0
H752 H 0.59071 0.79017 0.24456 0.0
H753 H 0.53221 0.82769 0.26113 0.0
C754 C 0.44714 0.79342 0.25305 0.0
C755 C 0.4558 0.77577 0.23716 0.0
C756 C 0.4621 0.80898 0.269 0.0
C757 C 0.4864 0.80735 0.26854 0.0
C758 C 0.49605 0.7909 0.25152 0.0
C759 C 0.48039 0.77508 0.23603 0.0
C760 C 0.52234 0.79041 0.24986 0.0
C761 C 0.53157 0.76943 0.24202 0.0
C762 C 0.55622 0.7693 0.24008 0.0
C763 C 0.57169 0.79018 0.24604 0.0
C764 C 0.5631 0.81111 0.25385 0.0
C765 C 0.53852 0.8112 0.2557 0.0
H766 H 0.63852 0.28082 0.28707 0.0
H767 H 0.57198 0.28439 0.25677 0.0
H768 H 0.57422 0.25986 0.32574 0.0
H769 H 0.53949 0.24187 0.31804 0.0
H770 H 0.47324 0.25975 0.30104 0.0
H771 H 0.53744 0.29225 0.26899 0.0
C772 C 0.6193 0.27812 0.28822 0.0
C773 C 0.60755 0.26807 0.30764 0.0
C774 C 0.60642 0.2849 0.2704 0.0
C775 C 0.58149 0.28051 0.27154 0.0
C776 C 0.56914 0.27124 0.29131 0.0
C777 C 0.58269 0.26573 0.30957 0.0
C778 C 0.54239 0.26756 0.29315 0.0
C779 C 0.53013 0.25234 0.30855 0.0
C780 C 0.50551 0.25048 0.31243 0.0
C781 C 0.49236 0.26182 0.2986 0.0
C782 C 0.50383 0.2762 0.2821 0.0
C783 C 0.52882 0.27963 0.2802 0.0
C784 C 0.22006 0.21703 0.12111 0.0
C785 C 0.22653 0.20179 0.13612 0.0
H786 H 0.23152 0.24022 0.09493 0.0
C787 C 0.25015 0.19758 0.13507 0.0
H788 H 0.202 0.22062 0.12137 0.0
C789 C 0.26703 0.20884 0.11993 0.0
C790 C 0.26067 0.22444 0.10532 0.0
H791 H 0.25577 0.18592 0.1463 0.0
H792 H 0.28516 0.20549 0.11978 0.0
C793 C 0.23692 0.22815 0.10581 0.0
C794 C 0.79017 0.20606 0.11398 0.0
C795 C 0.81322 0.20148 0.10747 0.0
H796 H 0.76075 0.2218 0.10557 0.0
C797 C 0.82387 0.20863 0.08606 0.0
H798 H 0.78137 0.20054 0.13023 0.0
C799 C 0.81218 0.22107 0.07208 0.0
C800 C 0.78947 0.22649 0.07905 0.0
H801 H 0.84161 0.20536 0.08052 0.0
H802 H 0.82144 0.22732 0.05637 0.0
C803 C 0.77838 0.21832 0.09988 0.0
C804 C 0.86492 0.82085 0.11853 0.0
C805 C 0.87575 0.81294 0.13715 0.0
H806 H 0.83929 0.8128 0.09091 0.0
C807 C 0.87013 0.78928 0.14049 0.0
H808 H 0.86887 0.83894 0.11539 0.0
C809 C 0.85314 0.77418 0.1263 0.0
C810 C 0.84155 0.78242 0.10841 0.0
H811 H 0.87822 0.78259 0.15462 0.0
H812 H 0.8487 0.7562 0.12969 0.0
C813 C 0.84805 0.80579 0.10434 0.0
C814 C 0.235 0.84099 0.09552 0.0
C815 C 0.2464 0.86176 0.0874 0.0
H816 H 0.23487 0.80422 0.09521 0.0
C817 C 0.26806 0.86161 0.07442 0.0
H818 H 0.21839 0.84061 0.10576 0.0
C819 C 0.27742 0.84087 0.06849 0.0
C820 C 0.26542 0.8199 0.07555 0.0
H821 H 0.27741 0.87733 0.06809 0.0
H822 H 0.29367 0.84105 0.05765 0.0
C823 C 0.2445 0.82022 0.08971 0.0
C824 C 0.25302 0.82923 0.94745 0.0
C825 C 0.24533 0.82117 0.92394 0.0
H826 H 0.27019 0.82221 0.97803 0.0
C827 C 0.2498 0.79907 0.91302 0.0
H828 H 0.25006 0.84621 0.95635 0.0
C829 C 0.26129 0.78514 0.9256 0.0
C830 C 0.2684 0.79303 0.94935 0.0
H831 H 0.24412 0.79238 0.89489 0.0
H832 H 0.26409 0.76802 0.91696 0.0
C833 C 0.26443 0.81537 0.95995 0.0
C834 C 0.23529 0.18815 0.95323 0.0
C835 C 0.21864 0.19756 0.94131 0.0
H836 H 0.26383 0.19514 0.97819 0.0
C837 C 0.21687 0.22139 0.94726 0.0
H838 H 0.23705 0.16985 0.94915 0.0
C839 C 0.23216 0.23571 0.96368 0.0
C840 C 0.24949 0.22658 0.97475 0.0
H841 H 0.20418 0.22926 0.93863 0.0
H842 H 0.23087 0.25416 0.96728 0.0
C843 C 0.25054 0.20255 0.96992 0.0
C844 C 0.85474 0.21576 0.95108 0.0
C845 C 0.87461 0.23288 0.9486 0.0
H846 H 0.81732 0.20905 0.95928 0.0
C847 C 0.87143 0.2563 0.94935 0.0
H848 H 0.85681 0.19765 0.95086 0.0
C849 C 0.8489 0.26269 0.95358 0.0
C850 C 0.8293 0.24583 0.95767 0.0
H851 H 0.88652 0.26979 0.94745 0.0
H852 H 0.84704 0.28099 0.95516 0.0
C853 C 0.83225 0.22226 0.95592 0.0
C854 C 0.82414 0.82808 0.95655 0.0
C855 C 0.84893 0.83082 0.95844 0.0
H856 H 0.79023 0.8114 0.96831 0.0
C857 C 0.85834 0.81998 0.97589 0.0
H858 H 0.81626 0.83634 0.94348 0.0
C859 C 0.8434 0.80561 0.99009 0.0
C860 C 0.81871 0.80172 0.98715 0.0
H861 H 0.87735 0.82179 0.97794 0.0
H862 H 0.85131 0.79655 0.00245 0.0
C863 C 0.80922 0.81371 0.97074 0.0
C864 C 0.07719 0.22237 0.20946 0.0
C865 C 0.09656 0.21428 0.21834 0.0
H866 H 0.04926 0.24299 0.21709 0.0
C867 C 0.10058 0.21877 0.2432 0.0
H868 H 0.07347 0.21914 0.19044 0.0
C869 C 0.0865 0.23229 0.25855 0.0
C870 C 0.06811 0.24169 0.24941 0.0
H871 H 0.11517 0.2126 0.25071 0.0
H872 H 0.09055 0.23606 0.27749 0.0
C873 C 0.06314 0.23593 0.2248 0.0
C874 C 0.82739 0.11268 0.24469 0.0
C875 C 0.8329 0.10577 0.22036 0.0
H876 H 0.81118 0.1028 0.27749 0.0
C877 C 0.82479 0.08265 0.21018 0.0
H878 H 0.83341 0.13028 0.2532 0.0
C879 C 0.81167 0.06675 0.22422 0.0
C880 C 0.80639 0.07373 0.24865 0.0
H881 H 0.82876 0.07679 0.19146 0.0
H882 H 0.80564 0.04907 0.21595 0.0
C883 C 0.81443 0.0969 0.25863 0.0
C884 C 0.9667 0.8175 0.26445 0.0
C885 C 0.96917 0.81438 0.23924 0.0
H886 H 0.97886 0.81081 0.29781 0.0
C887 C 0.98551 0.80035 0.22823 0.0
H888 H 0.95439 0.82839 0.27346 0.0
C889 C -0.00084 0.78968 0.24217 0.0
C890 C 0.99711 0.79316 0.26749 0.0
H891 H 0.98765 0.79748 0.2088 0.0
H892 H 0.01125 0.77864 0.23304 0.0
C893 C 0.98065 0.80723 0.2784 0.0
C894 C 0.22777 0.92822 0.19844 0.0
C895 C 0.226 0.94238 0.18051 0.0
H896 H 0.23703 0.92665 0.23461 0.0
C897 C 0.23245 0.96665 0.18598 0.0
H898 H 0.22396 0.90945 0.1947 0.0
C899 C 0.24098 0.9765 0.20857 0.0
C900 C 0.24303 0.96239 0.22652 0.0
H901 H 0.2315 0.9781 0.17255 0.0
H902 H 0.24681 0.99519 0.21156 0.0
C903 C 0.23589 0.93812 0.22128 0.0
C904 C 0.11275 0.85965 0.7545 0.0
C905 C 0.1125 0.86994 0.77866 0.0
H906 H 0.09549 0.83383 0.72747 0.0
C907 C 0.09233 0.86402 0.79334 0.0
H908 H 0.12786 0.86396 0.74262 0.0
C909 C 0.07369 0.8468 0.78456 0.0
C910 C 0.07499 0.83516 0.76102 0.0
H911 H 0.09149 0.87176 0.81199 0.0
H912 H 0.05907 0.8415 0.79665 0.0
C913 C 0.09422 0.84238 0.7458 0.0
C914 C 0.22287 0.07347 0.83051 0.0
C915 C 0.22861 0.09793 0.83404 0.0
H916 H 0.23053 0.04126 0.81107 0.0
C917 C 0.24823 0.10861 0.8214 0.0
H918 H 0.20778 0.06476 0.83996 0.0
C919 C 0.26164 0.09514 0.80528 0.0
C920 C 0.25547 0.07067 0.80101 0.0
H921 H 0.25328 0.12742 0.82398 0.0
H922 H 0.27685 0.104 0.79614 0.0
C923 C 0.23603 0.06 0.81404 0.0
C924 C 0.9822 0.26487 0.88006 0.0
C925 C 0.98234 0.24333 0.88842 0.0
H926 H 0.98803 0.28426 0.84999 0.0
C927 C 0.98941 0.22472 0.87258 0.0
H928 H 0.97671 0.27946 0.89185 0.0
C929 C 0.99621 0.22762 0.84879 0.0
C930 C 0.99553 0.24899 0.84037 0.0
H931 H 0.9897 0.20795 0.87857 0.0
H932 H 0.00159 0.21307 0.83684 0.0
C933 C 0.98851 0.26759 0.85615 0.0
C934 C 0.84532 0.96755 0.83045 0.0
C935 C 0.83387 0.94493 0.83357 0.0
H936 H 0.84415 -0.00126 0.81451 0.0
C937 C 0.8109 0.9375 0.82475 0.0
H938 H 0.86297 0.97389 0.83718 0.0
C939 C 0.80016 0.95176 0.81201 0.0
C940 C 0.81209 0.97383 0.80775 0.0
H941 H 0.80141 0.92034 0.82704 0.0
H942 H 0.7828 0.94515 0.80468 0.0
C943 C 0.8345 0.98189 0.81769 0.0
C944 C 0.22098 0.11719 0.25927 0.0
C945 C 0.22257 0.113 0.23405 0.0
H946 H 0.22882 0.10697 0.29268 0.0
C947 C 0.23484 0.09511 0.22315 0.0
H948 H 0.2114 0.13067 0.26821 0.0
C949 C 0.24553 0.08183 0.23722 0.0
C950 C 0.24377 0.08583 0.26256 0.0
H951 H 0.23647 0.09155 0.20372 0.0
H952 H 0.25538 0.06865 0.22817 0.0
C953 C 0.23117 0.10364 0.27331 0.0
C954 C 0.22335 0.92983 0.82188 0.0
C955 C 0.2338 0.91727 0.83703 0.0
H956 H 0.22895 0.95328 0.79517 0.0
C957 C 0.25872 0.92013 0.83758 0.0
H958 H 0.20432 0.92853 0.82126 0.0
C959 C 0.27279 0.93453 0.82292 0.0
C960 C 0.2624 0.94651 0.80721 0.0
H961 H 0.26751 0.91099 0.84916 0.0
H962 H 0.29191 0.93621 0.82383 0.0
C963 C 0.23751 0.94429 0.8071 0.0
C964 C 0.11835 0.19765 0.8149 0.0
C965 C 0.13962 0.21108 0.82366 0.0
H966 H 0.08797 0.19576 0.79322 0.0
C967 C 0.1469 0.23309 0.81614 0.0
H968 H 0.11228 0.18057 0.82029 0.0
C969 C 0.13294 0.24184 0.80091 0.0
C970 C 0.11135 0.22876 0.79254 0.0
H971 H 0.16313 0.24396 0.82255 0.0
H972 H 0.13872 0.25933 0.79646 0.0
C973 C 0.10437 0.2064 0.79948 0.0
C974 C 0.84211 0.12007 0.84876 0.0
C975 C 0.82884 0.13407 0.86483 0.0
H976 H 0.84162 0.0937 0.818 0.0
C977 C 0.80413 0.13125 0.86238 0.0
H978 H 0.86118 0.12176 0.8502 0.0
C979 C 0.79301 0.11522 0.84401 0.0
C980 C 0.80628 0.10155 0.82764 0.0
H981 H 0.79334 0.14161 0.87448 0.0
H982 H 0.77393 0.11354 0.84258 0.0
C983 C 0.83092 0.10391 0.8304 0.0
C984 C 0.91481 0.84565 0.79932 0.0
C985 C 0.91954 0.84677 0.82386 0.0
H986 H 0.92255 0.83118 0.76304 0.0
C987 C 0.9374 0.8349 0.83032 0.0
H988 H 0.90114 0.85451 0.79372 0.0
C989 C 0.94985 0.82182 0.81272 0.0
C990 C 0.94444 0.81997 0.7883 0.0
H991 H 0.94154 0.83545 0.84905 0.0
H992 H 0.96312 0.81246 0.81829 0.0
C993 C 0.92697 0.83221 0.78176 0.0
C994 C 0.85965 0.95212 0.21299 0.0
C995 C 0.87216 0.93573 0.22068 0.0
H996 H 0.83329 0.97443 0.22175 0.0
C997 C 0.86945 0.9315 0.24479 0.0
H998 H 0.86141 0.95589 0.19456 0.0
C999 C 0.85338 0.94223 0.2604 0.0
C1000 C 0.83972 0.95744 0.25225 0.0
H1001 H 0.87896 0.91913 0.25138 0.0
H1002 H 0.85106 0.93801 0.27865 0.0
C1003 C 0.84361 0.96287 0.22861 0.0
C1004 C 0.1552 0.82282 0.22156 0.0
C1005 C 0.15069 0.84593 0.227 0.0
H1006 H 0.14698 0.78763 0.22954 0.0
C1007 C 0.13429 0.85124 0.24563 0.0
H1008 H 0.16772 0.81814 0.20729 0.0
C1009 C 0.12247 0.83376 0.2584 0.0
C1010 C 0.12682 0.81062 0.25281 0.0
H1011 H 0.13048 0.86889 0.25033 0.0
H1012 H 0.11006 0.83842 0.2728 0.0
C1013 C 0.1434 0.80535 0.23435 0.0
C1014 C 0.91239 0.23894 0.2021 0.0
C1015 C 0.91693 0.21575 0.19854 0.0
H1016 H 0.92239 0.27377 0.21991 0.0
C1017 C 0.9366 0.21045 0.20963 0.0
H1018 H 0.89747 0.24368 0.19372 0.0
C1019 C 0.9507 0.22759 0.22479 0.0
C1020 C 0.94563 0.25059 0.2292 0.0
H1021 H 0.94066 0.19279 0.20733 0.0
H1022 H 0.96496 0.2225 0.23391 0.0
C1023 C 0.9266 0.25617 0.21724 0.0
C1024 C 0.21407 0.71149 0.61158 0.0
C1025 C 0.2195 0.69655 0.62746 0.0
H1026 H 0.22737 0.735 0.58619 0.0
C1027 C 0.24315 0.69285 0.62849 0.0
H1028 H 0.19603 0.71468 0.61025 0.0
C1029 C 0.26106 0.70455 0.61474 0.0
C1030 C 0.25574 0.72006 0.59948 0.0
H1031 H 0.24799 0.68144 0.64045 0.0
H1032 H 0.27921 0.70176 0.61634 0.0
C1033 C 0.23198 0.72304 0.59766 0.0
C1034 C 0.8203 0.69846 0.58619 0.0
C1035 C 0.80773 0.69202 0.60699 0.0
H1036 H 0.82162 0.71756 0.5562 0.0
C1037 C 0.78485 0.69782 0.61173 0.0
H1038 H 0.83797 0.69424 0.58202 0.0
C1039 C 0.77526 0.71087 0.59665 0.0
C1040 C 0.78845 0.71863 0.57667 0.0
H1041 H 0.77459 0.69286 0.62746 0.0
H1042 H 0.75777 0.71546 0.60108 0.0
C1043 C 0.81082 0.71171 0.57126 0.0
C1044 C 0.84765 0.2726 0.63704 0.0
C1045 C 0.85237 0.29682 0.63626 0.0
H1046 H 0.82716 0.23987 0.62329 0.0
C1047 C 0.84177 0.30612 0.61843 0.0
H1048 H 0.85561 0.26483 0.65046 0.0
C1049 C 0.82551 0.29181 0.60287 0.0
C1050 C 0.81942 0.26791 0.6049 0.0
H1051 H 0.84512 0.32468 0.61721 0.0
H1052 H 0.8166 0.29975 0.59028 0.0
C1053 C 0.83127 0.2583 0.62157 0.0
C1054 C 0.20534 0.3322 0.56986 0.0
C1055 C 0.20947 0.3395 0.59439 0.0
H1056 H 0.21304 0.30899 0.5385 0.0
C1057 C 0.22645 0.33016 0.60573 0.0
H1058 H 0.19227 0.33914 0.56076 0.0
C1059 C 0.23879 0.31348 0.59296 0.0
C1060 C 0.23399 0.30522 0.56865 0.0
H1061 H 0.23024 0.3358 0.62457 0.0
H1062 H 0.25205 0.30701 0.60226 0.0
C1063 C 0.21733 0.31502 0.55714 0.0
C1064 C 0.23804 0.32458 0.42983 0.0
C1065 C 0.23555 0.31555 0.40537 0.0
H1066 H 0.25096 0.32072 0.464 0.0
C1067 C 0.2443 0.29469 0.3968 0.0
H1068 H 0.23156 0.34063 0.43703 0.0
C1069 C 0.25533 0.28316 0.41234 0.0
C1070 C 0.25782 0.29219 0.43682 0.0
H1071 H 0.24261 0.2872 0.37808 0.0
H1072 H 0.26168 0.26702 0.40521 0.0
C1073 C 0.24903 0.31305 0.44535 0.0
C1074 C 0.24094 0.68396 0.44957 0.0
C1075 C 0.22538 0.69322 0.43612 0.0
H1076 H 0.26831 0.69135 0.47581 0.0
C1077 C 0.22459 0.71734 0.44026 0.0
H1078 H 0.24193 0.66545 0.44685 0.0
C1079 C 0.23963 0.732 0.45663 0.0
C1080 C 0.2558 0.72295 0.46939 0.0
H1081 H 0.21273 0.72511 0.43042 0.0
H1082 H 0.23889 0.75058 0.45905 0.0
C1083 C 0.25597 0.69873 0.46617 0.0
C1084 C 0.86501 0.71038 0.45416 0.0
C1085 C 0.88467 0.7272 0.44998 0.0
H1086 H 0.82774 0.70397 0.46319 0.0
C1087 C 0.88129 0.75035 0.44919 0.0
H1088 H 0.86724 0.6925 0.45516 0.0
C1089 C 0.85877 0.75677 0.45326 0.0
C1090 C 0.83934 0.74026 0.45875 0.0
H1091 H 0.89622 0.76362 0.44598 0.0
H1092 H 0.85675 0.77489 0.45337 0.0
C1093 C 0.84252 0.71693 0.45882 0.0
C1094 C 0.8022 0.31027 0.44989 0.0
C1095 C 0.82659 0.31564 0.45453 0.0
H1096 H 0.76847 0.29124 0.45911 0.0
C1097 C 0.83523 0.30682 0.4739 0.0
H1098 H 0.7949 0.31689 0.43523 0.0
C1099 C 0.82012 0.29203 0.48751 0.0
C1100 C 0.79595 0.28568 0.48211 0.0
H1101 H 0.8539 0.31064 0.47807 0.0
H1102 H 0.82766 0.28467 0.50151 0.0
C1103 C 0.78706 0.29547 0.46352 0.0
C1104 C 0.06815 0.72122 0.69329 0.0
C1105 C 0.0893 0.71699 0.70258 0.0
H1106 H 0.03997 0.74185 0.69731 0.0
C1107 C 0.09665 0.72897 0.72511 0.0
H1108 H 0.06189 0.71221 0.67604 0.0
C1109 C 0.08406 0.7459 0.73726 0.0
C1110 C 0.06377 0.75119 0.72723 0.0
H1111 H 0.11272 0.72603 0.73293 0.0
H1112 H 0.09067 0.75547 0.75415 0.0
C1113 C 0.05548 0.73811 0.70552 0.0
C1114 C 0.84265 0.59974 0.74925 0.0
C1115 C 0.84018 0.59632 0.72416 0.0
H1116 H 0.82998 0.58912 0.78311 0.0
C1117 C 0.82319 0.57792 0.71382 0.0
H1118 H 0.85558 0.61365 0.75785 0.0
C1119 C 0.80859 0.56362 0.72846 0.0
C1120 C 0.81061 0.56778 0.75359 0.0
H1121 H 0.82095 0.5748 0.69452 0.0
H1122 H 0.79527 0.54986 0.72026 0.0
C1123 C 0.82797 0.58573 0.76377 0.0
C1124 C 0.93539 0.27436 0.75184 0.0
C1125 C 0.94409 0.2916 0.73716 0.0
H1126 H 0.94368 0.25081 0.77501 0.0
C1127 C 0.96877 0.29776 0.73411 0.0
H1128 H 0.91647 0.26904 0.75436 0.0
C1129 C 0.9844 0.28755 0.74623 0.0
C1130 C 0.97572 0.27079 0.76153 0.0
H1131 H 0.97604 0.31101 0.72293 0.0
H1132 H 0.00328 0.29348 0.7443 0.0
C1133 C 0.95101 0.26398 0.76377 0.0
C1134 C 0.25239 0.42982 0.6913 0.0
C1135 C 0.23027 0.43456 0.68521 0.0
H1136 H 0.28324 0.44111 0.71244 0.0
C1137 C 0.22337 0.45614 0.69416 0.0
H1138 H 0.25815 0.41333 0.68438 0.0
C1139 C 0.2373 0.47174 0.71096 0.0
C1140 C 0.25857 0.46614 0.7187 0.0
H1141 H 0.20627 0.46007 0.68983 0.0
H1142 H 0.23046 0.4873 0.71916 0.0
C1143 C 0.26659 0.44562 0.70758 0.0
C1144 C 0.09274 0.35553 0.31719 0.0
C1145 C 0.10933 0.34927 0.3319 0.0
H1146 H 0.06401 0.34364 0.29301 0.0
C1147 C 0.1078 0.32573 0.33528 0.0
H1148 H 0.09336 0.37353 0.31427 0.0
C1149 C 0.09096 0.30868 0.32317 0.0
C1150 C 0.07523 0.31476 0.30745 0.0
H1151 H 0.12015 0.3203 0.34663 0.0
H1152 H 0.09066 0.29058 0.32559 0.0
C1153 C 0.07583 0.33844 0.30509 0.0
C1154 C 0.23277 0.57085 0.32737 0.0
C1155 C 0.23704 0.59536 0.33159 0.0
H1156 H 0.24299 0.5398 0.30772 0.0
C1157 C 0.25657 0.60739 0.31999 0.0
H1158 H 0.21777 0.56112 0.33602 0.0
C1159 C 0.27142 0.59519 0.30427 0.0
C1160 C 0.26678 0.57066 0.29933 0.0
H1161 H 0.2605 0.62628 0.32316 0.0
H1162 H 0.28655 0.60509 0.29602 0.0
C1163 C 0.24735 0.55863 0.31126 0.0
C1164 C 0.00229 0.73174 0.37098 0.0
C1165 C 0.99366 0.74815 0.3885 0.0
H1166 H 0.01729 0.72516 0.33532 0.0
C1167 C 0.99291 0.77075 0.38304 0.0
H1168 H 0.00307 0.71422 0.37474 0.0
C1169 C 0.00051 0.77678 0.36039 0.0
C1170 C 0.00944 0.76047 0.34304 0.0
H1171 H 0.98619 0.78369 0.39617 0.0
H1172 H -0.00021 0.79429 0.35653 0.0
C1173 C 0.01041 0.73796 0.34851 0.0
C1174 C 0.83153 0.45997 0.33447 0.0
C1175 C 0.84107 0.44042 0.32301 0.0
H1176 H 0.81476 0.48945 0.32999 0.0
C1177 C 0.8439 0.43746 0.29791 0.0
H1178 H 0.82921 0.4626 0.35388 0.0
C1179 C 0.83656 0.45317 0.28437 0.0
C1180 C 0.82517 0.47176 0.29544 0.0
H1181 H 0.85161 0.42278 0.28868 0.0
H1182 H 0.83915 0.45022 0.265 0.0
C1183 C 0.82339 0.4754 0.32078 0.0
C1184 C 0.22595 0.59134 0.71405 0.0
C1185 C 0.21641 0.61101 0.72518 0.0
H1186 H 0.24762 0.56536 0.71766 0.0
C1187 C 0.22024 0.61841 0.74977 0.0
H1188 H 0.22332 0.58519 0.6951 0.0
C1189 C 0.23377 0.60678 0.76282 0.0
C1190 C 0.24416 0.58765 0.75154 0.0
H1191 H 0.21289 0.63331 0.75897 0.0
H1192 H 0.23624 0.61297 0.78177 0.0
C1193 C 0.23976 0.57986 0.72704 0.0
C1194 C 0.24773 0.44093 0.3337 0.0
C1195 C 0.24417 0.41665 0.32678 0.0
H1196 H 0.26662 0.4742 0.32711 0.0
C1197 C 0.25699 0.40737 0.30676 0.0
H1198 H 0.2381 0.44858 0.3491 0.0
C1199 C 0.27272 0.42205 0.29365 0.0
C1200 C 0.27656 0.44641 0.30058 0.0
H1201 H 0.25433 0.38875 0.30073 0.0
H1202 H 0.28148 0.4142 0.27777 0.0
C1203 C 0.26393 0.45563 0.32092 0.0
C1204 C 0.16251 0.74155 0.32338 0.0
C1205 C 0.15345 0.71825 0.32607 0.0
H1206 H 0.15728 0.77258 0.30976 0.0
C1207 C 0.13212 0.70781 0.31491 0.0
H1208 H 0.17886 0.75019 0.33176 0.0
C1209 C 0.1198 0.72068 0.30191 0.0
C1210 C 0.12855 0.74424 0.29986 0.0
H1211 H 0.12473 0.68985 0.31657 0.0
H1212 H 0.10331 0.71224 0.29368 0.0
C1213 C 0.15019 0.75439 0.31054 0.0
C1214 C 0.85857 0.6391 0.32553 0.0
C1215 C 0.85957 0.63399 0.34918 0.0
H1216 H 0.84437 0.62801 0.29041 0.0
C1217 C 0.84781 0.61237 0.35499 0.0
H1218 H 0.8675 0.65553 0.32041 0.0
C1219 C 0.83478 0.5965 0.33767 0.0
C1220 C 0.83302 0.60207 0.31432 0.0
H1221 H 0.84838 0.60785 0.37301 0.0
H1222 H 0.82531 0.58026 0.34278 0.0
C1223 C 0.84533 0.62337 0.30833 0.0
C1224 C 0.92974 0.32344 0.34087 0.0
C1225 C 0.91595 0.33815 0.33196 0.0
H1226 H 0.95434 0.29906 0.33261 0.0
C1227 C 0.91781 0.34042 0.30728 0.0
H1228 H 0.92877 0.32133 0.35979 0.0
C1229 C 0.9322 0.32741 0.29173 0.0
C1230 C 0.94538 0.31217 0.30054 0.0
H1231 H 0.9074 0.35151 0.29978 0.0
H1232 H 0.93271 0.32894 0.27267 0.0
C1233 C 0.94445 0.31074 0.32536 0.0
C1234 C 0.83386 0.43658 0.71895 0.0
C1235 C 0.84282 0.41803 0.72697 0.0
H1236 H 0.8118 0.46317 0.72693 0.0
C1237 C 0.83749 0.41337 0.75072 0.0
H1238 H 0.83766 0.44069 0.70078 0.0
C1239 C 0.82266 0.42631 0.76573 0.0
C1240 C 0.81293 0.44425 0.75736 0.0
H1241 H 0.84418 0.39927 0.75751 0.0
H1242 H 0.81852 0.42204 0.78379 0.0
C1243 C 0.81912 0.44956 0.73398 0.0
C1244 C 0.13224 0.29832 0.70585 0.0
C1245 C 0.12715 0.32128 0.7108 0.0
H1246 H 0.12481 0.26332 0.71462 0.0
C1247 C 0.10927 0.32611 0.728 0.0
H1248 H 0.14589 0.29402 0.69266 0.0
C1249 C 0.09733 0.30859 0.74059 0.0
C1250 C 0.10293 0.28581 0.73624 0.0
H1251 H 0.10493 0.3436 0.73227 0.0
H1252 H 0.0843 0.31314 0.75439 0.0
C1253 C 0.12028 0.28077 0.7185 0.0
C1254 C 0.92955 0.7113 0.70551 0.0
C1255 C 0.90763 0.71417 0.69689 0.0
H1256 H 0.96046 0.72705 0.72511 0.0
C1257 C 0.90096 0.73656 0.70047 0.0
H1258 H 0.93524 0.69431 0.70318 0.0
C1259 C 0.91562 0.75551 0.71291 0.0
C1260 C 0.93728 0.75248 0.72207 0.0
H1261 H 0.88423 0.73942 0.69399 0.0
H1262 H 0.90993 0.77249 0.71546 0.0
C1263 C 0.94412 0.73017 0.71799 0.0
C1264 C 0.732 0.18716 0.63634 0.0
C1265 C 0.70801 0.19011 0.63661 0.0
H1266 H 0.76719 0.1969 0.62228 0.0
C1267 C 0.70118 0.20508 0.62151 0.0
H1268 H 0.73792 0.17573 0.64763 0.0
C1269 C 0.718 0.21721 0.60695 0.0
C1270 C 0.74207 0.21476 0.60724 0.0
H1271 H 0.68286 0.20776 0.6212 0.0
H1272 H 0.71227 0.22906 0.59602 0.0
C1273 C 0.74881 0.19937 0.62188 0.0
C1274 C 0.30291 0.2134 0.58077 0.0
C1275 C 0.28951 0.20604 0.60076 0.0
H1276 H 0.30526 0.23334 0.55134 0.0
C1277 C 0.2665 0.2117 0.60485 0.0
H1278 H 0.32071 0.20935 0.57712 0.0
C1279 C 0.2574 0.2251 0.58975 0.0
C1280 C 0.27121 0.23342 0.57037 0.0
H1281 H 0.25561 0.20606 0.61995 0.0
H1282 H 0.23966 0.22925 0.59354 0.0
C1283 C 0.29393 0.22702 0.56584 0.0
C1284 C 0.37252 0.79251 0.61227 0.0
C1285 C 0.36531 0.80599 0.63331 0.0
H1286 H 0.36155 0.7675 0.58147 0.0
C1287 C 0.341 0.80404 0.63953 0.0
H1288 H 0.39112 0.7937 0.60694 0.0
C1289 C 0.32428 0.78909 0.62515 0.0
C1290 C 0.33136 0.77574 0.60405 0.0
H1291 H 0.33477 0.81413 0.65558 0.0
H1292 H 0.30567 0.78826 0.63037 0.0
C1293 C 0.35564 0.77763 0.59764 0.0
C1294 C 0.75141 0.81907 0.61493 0.0
C1295 C 0.7345 0.82948 0.6047 0.0
H1296 H 0.77504 0.7939 0.60994 0.0
C1297 C 0.72849 0.82201 0.58059 0.0
H1298 H 0.75661 0.82469 0.6334 0.0
C1299 C 0.73858 0.8038 0.56725 0.0
C1300 C 0.75517 0.79298 0.57765 0.0
H1301 H 0.7154 0.82968 0.57231 0.0
H1302 H 0.73289 0.79781 0.549 0.0
C1303 C 0.76181 0.80123 0.60151 0.0
C1304 C 0.75476 0.81904 0.447 0.0
C1305 C 0.75009 0.81231 0.42246 0.0
H1306 H 0.7694 0.81094 0.4786 0.0
C1307 C 0.75723 0.79155 0.41082 0.0
H1308 H 0.74959 0.83496 0.45649 0.0
C1309 C 0.76858 0.77769 0.42357 0.0
C1310 C 0.77283 0.78426 0.44822 0.0
H1311 H 0.75391 0.78589 0.39191 0.0
H1312 H 0.77363 0.76164 0.41426 0.0
C1313 C 0.76597 0.80518 0.45972 0.0
C1314 C 0.7244 0.1705 0.46326 0.0
C1315 C 0.7081 0.1759 0.44764 0.0
H1316 H 0.75154 0.18341 0.4889 0.0
C1317 C 0.70657 0.19951 0.44675 0.0
H1318 H 0.72617 0.15254 0.46445 0.0
C1319 C 0.72125 0.21724 0.46078 0.0
C1320 C 0.7376 0.21176 0.47621 0.0
H1321 H 0.69402 0.20446 0.43546 0.0
H1322 H 0.71961 0.23528 0.45978 0.0
C1323 C 0.73894 0.18819 0.47737 0.0
C1324 C 0.34399 0.22184 0.42906 0.0
C1325 C 0.36348 0.22635 0.44433 0.0
H1326 H 0.30955 0.22965 0.42258 0.0
C1327 C 0.36398 0.24412 0.46395 0.0
H1328 H 0.34359 0.20894 0.41322 0.0
C1329 C 0.34473 0.25618 0.46906 0.0
C1330 C 0.32471 0.25088 0.45451 0.0
H1331 H 0.37894 0.2482 0.4758 0.0
H1332 H 0.34525 0.26932 0.48476 0.0
C1333 C 0.32475 0.23402 0.4341 0.0
C1334 C 0.32071 0.82125 0.44881 0.0
C1335 C 0.34545 0.82538 0.4514 0.0
H1336 H 0.28733 0.80267 0.45953 0.0
C1337 C 0.35519 0.81518 0.46917 0.0
H1338 H 0.31256 0.82901 0.43552 0.0
C1339 C 0.3407 0.8 0.48292 0.0
C1340 C 0.31616 0.79467 0.47917 0.0
H1341 H 0.37417 0.81809 0.47177 0.0
H1342 H 0.3489 0.79142 0.49549 0.0
C1343 C 0.30625 0.8061 0.46255 0.0
C1344 C 0.55448 0.20819 0.69302 0.0
C1345 C 0.57387 0.20291 0.70471 0.0
H1346 H 0.5273 0.22988 0.69412 0.0
C1347 C 0.57829 0.21341 0.72848 0.0
H1348 H 0.55044 0.20029 0.67477 0.0
C1349 C 0.56498 0.23023 0.73952 0.0
C1350 C 0.54688 0.23689 0.7271 0.0
H1351 H 0.59288 0.2096 0.73815 0.0
H1352 H 0.56968 0.23899 0.75734 0.0
C1353 C 0.54108 0.22501 0.70414 0.0
C1354 C 0.33736 0.07374 0.69876 0.0
C1355 C 0.32647 0.08961 0.68815 0.0
H1356 H 0.33434 0.04961 0.72452 0.0
C1357 C 0.30246 0.09115 0.69388 0.0
H1358 H 0.35579 0.07202 0.6947 0.0
C1359 C 0.29007 0.07813 0.71093 0.0
C1360 C 0.3014 0.06328 0.72259 0.0
H1361 H 0.29347 0.10307 0.68591 0.0
H1362 H 0.2718 0.08019 0.71547 0.0
C1363 C 0.32498 0.06074 0.71578 0.0
C1364 C 0.463 0.81231 0.74147 0.0
C1365 C 0.4687 0.81118 0.71672 0.0
H1366 H 0.47011 0.80216 0.77528 0.0
C1367 C 0.48613 0.79783 0.707 0.0
H1368 H 0.44975 0.82257 0.74955 0.0
C1369 C 0.49753 0.7858 0.72166 0.0
C1370 C 0.49199 0.78701 0.74648 0.0
H1371 H 0.49084 0.79648 0.68797 0.0
H1372 H 0.51053 0.77531 0.71344 0.0
C1373 C 0.47459 0.80047 0.7562 0.0
C1374 C 0.77779 0.93432 0.70044 0.0
C1375 C 0.75466 0.93525 0.69372 0.0
H1376 H 0.80699 0.95032 0.72247 0.0
C1377 C 0.74433 0.95526 0.70184 0.0
H1378 H 0.78619 0.91914 0.6942 0.0
C1379 C 0.75589 0.97281 0.71873 0.0
C1380 C 0.7781 0.97072 0.72739 0.0
H1381 H 0.72642 0.95627 0.69699 0.0
H1382 H 0.74651 0.98689 0.72648 0.0
C1383 C 0.78957 0.95209 0.71679 0.0
C1384 C 0.59848 0.86148 0.29258 0.0
C1385 C 0.61896 0.86611 0.27793 0.0
H1386 H 0.56439 0.84044 0.29619 0.0
C1387 C 0.619 0.85521 0.25398 0.0
H1388 H 0.59779 0.86973 0.31107 0.0
C1389 C 0.59992 0.83848 0.24556 0.0
C1390 C 0.58034 0.83247 0.26084 0.0
H1391 H 0.63436 0.85853 0.24212 0.0
H1392 H 0.60101 0.82933 0.22747 0.0
C1393 C 0.57929 0.84482 0.28407 0.0
C1394 C 0.71735 0.05407 0.34697 0.0
C1395 C 0.71883 0.07819 0.35409 0.0
H1396 H 0.73081 0.02681 0.32365 0.0
C1397 C 0.73667 0.09352 0.34388 0.0
H1398 H 0.70362 0.04192 0.35454 0.0
C1399 C 0.75289 0.0849 0.3269 0.0
C1400 C 0.75116 0.06074 0.31909 0.0
H1401 H 0.73838 0.11219 0.34937 0.0
H1402 H 0.76688 0.09728 0.32009 0.0
C1403 C 0.73311 0.04545 0.3294 0.0
C1404 C 0.49361 0.23333 0.37492 0.0
C1405 C 0.47144 0.219 0.37261 0.0
H1406 H 0.52158 0.25447 0.35778 0.0
C1407 C 0.46091 0.21402 0.34993 0.0
H1408 H 0.5022 0.23751 0.39213 0.0
C1409 C 0.47208 0.22381 0.33012 0.0
C1410 C 0.49406 0.23852 0.33262 0.0
H1411 H 0.4438 0.20304 0.3476 0.0
H1412 H 0.46347 0.22001 0.31292 0.0
C1413 C 0.5048 0.24293 0.35517 0.0
C1414 C 0.31647 0.9521 0.32898 0.0
C1415 C 0.32505 0.93257 0.31631 0.0
H1416 H 0.29605 0.97955 0.32791 0.0
C1417 C 0.32153 0.92734 0.29147 0.0
H1418 H 0.31887 0.95646 0.34821 0.0
C1419 C 0.3093 0.94111 0.27954 0.0
C1420 C 0.29942 0.96 0.29232 0.0
H1421 H 0.3283 0.91258 0.2812 0.0
H1422 H 0.30751 0.93669 0.26028 0.0
C1423 C 0.30352 0.96546 0.31722 0.0
C1424 C 0.71896 0.11432 0.76014 0.0
C1425 C 0.71669 0.10724 0.73528 0.0
H1426 H 0.73476 0.11012 0.79269 0.0
C1427 C 0.72919 0.08957 0.72421 0.0
H1428 H 0.70932 0.12766 0.7693 0.0
C1429 C 0.74425 0.07977 0.73756 0.0
C1430 C 0.74695 0.08721 0.76239 0.0
H1431 H 0.72784 0.08372 0.70507 0.0
H1432 H 0.75431 0.06687 0.72824 0.0
C1433 C 0.73369 0.10431 0.77354 0.0
C1434 C 0.73036 0.92271 0.32166 0.0
C1435 C 0.74091 0.90846 0.33481 0.0
H1436 H 0.73561 0.94862 0.29761 0.0
C1437 C 0.7658 0.91015 0.33386 0.0
H1438 H 0.7114 0.92233 0.32226 0.0
C1439 C 0.77973 0.92557 0.32012 0.0
C1440 C 0.76921 0.93972 0.30682 0.0
H1441 H 0.77464 0.89957 0.34383 0.0
H1442 H 0.79885 0.92665 0.32023 0.0
C1443 C 0.74433 0.9381 0.30774 0.0
C1444 C 0.62538 0.22861 0.34954 0.0
C1445 C 0.64738 0.24078 0.35776 0.0
H1446 H 0.59586 0.22752 0.32719 0.0
C1447 C 0.6559 0.26252 0.35002 0.0
H1448 H 0.61826 0.21181 0.35509 0.0
C1449 C 0.64288 0.27166 0.33408 0.0
C1450 C 0.62106 0.25925 0.32556 0.0
H1451 H 0.67274 0.27239 0.35609 0.0
H1452 H 0.6499 0.28844 0.32844 0.0
C1453 C 0.61242 0.23771 0.33364 0.0
C1454 C 0.31869 0.08892 0.36405 0.0
C1455 C 0.30988 0.10831 0.37683 0.0
H1456 H 0.31408 0.0614 0.33454 0.0
C1457 C 0.28749 0.11286 0.37124 0.0
H1458 H 0.33585 0.08488 0.36798 0.0
C1459 C 0.27484 0.09918 0.35225 0.0
C1460 C 0.28442 0.08079 0.33835 0.0
H1461 H 0.28007 0.12749 0.38098 0.0
H1462 H 0.2579 0.10349 0.34795 0.0
C1463 C 0.30613 0.07535 0.34494 0.0
C1464 C 0.44037 0.838 0.32868 0.0
C1465 C 0.42363 0.85065 0.32123 0.0
H1466 H 0.46602 0.81515 0.31788 0.0
C1467 C 0.42225 0.85204 0.29652 0.0
H1468 H 0.44201 0.83666 0.34757 0.0
C1469 C 0.43591 0.83962 0.27959 0.0
C1470 C 0.45148 0.82578 0.28698 0.0
H1471 H 0.40965 0.86166 0.29011 0.0
H1472 H 0.43356 0.84001 0.26061 0.0
C1473 C 0.45424 0.82577 0.31171 0.0
C1474 C 0.35059 0.94238 0.71076 0.0
C1475 C 0.36263 0.9271 0.721 0.0
H1476 H 0.32532 0.96611 0.71615 0.0
C1477 C 0.36023 0.92638 0.74596 0.0
H1478 H 0.35212 0.94345 0.69161 0.0
C1479 C 0.34492 0.93949 0.76005 0.0
C1480 C 0.33171 0.95361 0.74951 0.0
H1481 H 0.36939 0.91495 0.75447 0.0
H1482 H 0.34285 0.93799 0.7791 0.0
C1483 C 0.3353 0.95549 0.72485 0.0
C1484 C 0.62792 0.8223 0.71459 0.0
C1485 C 0.65027 0.81729 0.70588 0.0
H1486 H 0.59655 0.81189 0.7351 0.0
C1487 C 0.65662 0.79558 0.70869 0.0
H1488 H 0.62244 0.83884 0.71269 0.0
C1489 C 0.64152 0.77984 0.72127 0.0
C1490 C 0.61985 0.78557 0.73145 0.0
H1491 H 0.67362 0.79107 0.70193 0.0
H1492 H 0.6472 0.76354 0.7237 0.0
C1493 C 0.61294 0.8067 0.72732 0.0
C1494 C 0.38165 0.22866 0.70895 0.0
C1495 C 0.38894 0.2178 0.68658 0.0
H1496 H 0.39139 0.25202 0.74066 0.0
C1497 C 0.41232 0.22417 0.67817 0.0
H1498 H 0.36383 0.22381 0.71608 0.0
C1499 C 0.42809 0.24123 0.6919 0.0
C1500 C 0.42102 0.25178 0.7147 0.0
H1501 H 0.41836 0.21609 0.6609 0.0
H1502 H 0.44578 0.24608 0.68454 0.0
C1503 C 0.39753 0.24509 0.72298 0.0
C1504 C 0.72324 0.71903 0.12463 0.0
C1505 C 0.72985 0.70406 0.13987 0.0
H1506 H 0.73468 0.74295 0.09918 0.0
C1507 C 0.75383 0.70116 0.13997 0.0
H1508 H 0.70494 0.72168 0.12405 0.0
C1509 C 0.77084 0.71337 0.12569 0.0
C1510 C 0.76431 0.72869 0.11085 0.0
H1511 H 0.75958 0.68976 0.15141 0.0
H1512 H 0.78921 0.71091 0.12636 0.0
C1513 C 0.74026 0.73114 0.11024 0.0
C1514 C 0.3187 0.71834 0.09489 0.0
C1515 C 0.30663 0.7153 0.11693 0.0
H1516 H 0.32142 0.73495 0.06305 0.0
C1517 C 0.2864 0.72607 0.12287 0.0
H1518 H 0.3344 0.71036 0.08979 0.0
C1519 C 0.27873 0.73997 0.10734 0.0
C1520 C 0.29118 0.74353 0.08557 0.0
H1521 H 0.2766 0.72396 0.13965 0.0
H1522 H 0.2631 0.74803 0.11248 0.0
C1523 C 0.31113 0.73233 0.07945 0.0
C1524 C 0.36717 0.28224 0.13329 0.0
C1525 C 0.37323 0.30593 0.1302 0.0
H1526 H 0.34531 0.24952 0.12215 0.0
C1527 C 0.36293 0.31414 0.11141 0.0
H1528 H 0.37487 0.27529 0.14749 0.0
C1529 C 0.34595 0.29942 0.09699 0.0
C1530 C 0.33883 0.2761 0.10098 0.0
H1531 H 0.36723 0.33225 0.10842 0.0
H1532 H 0.33748 0.30672 0.08357 0.0
C1533 C 0.35014 0.2675 0.11885 0.0
C1534 C 0.72024 0.32397 0.08433 0.0
C1535 C 0.72694 0.33253 0.10803 0.0
H1536 H 0.72479 0.29937 0.05317 0.0
C1537 C 0.74497 0.32344 0.11803 0.0
H1538 H 0.70626 0.33058 0.07625 0.0
C1539 C 0.75603 0.30601 0.10468 0.0
C1540 C 0.74895 0.29685 0.08114 0.0
H1541 H 0.75068 0.32991 0.1362 0.0
H1542 H 0.77025 0.29987 0.11284 0.0
C1543 C 0.73096 0.30615 0.0711 0.0
C1544 C 0.74304 0.29748 0.91653 0.0
C1545 C 0.7362 0.31794 0.92929 0.0
H1546 H 0.7603 0.26764 0.91778 0.0
C1547 C 0.7425 0.32429 0.95347 0.0
H1548 H 0.73848 0.29213 0.89785 0.0
C1549 C 0.75488 0.3103 0.96481 0.0
C1550 C 0.76133 0.2896 0.95226 0.0
H1551 H 0.73763 0.33997 0.96381 0.0
H1552 H 0.75947 0.31574 0.98347 0.0
C1553 C 0.75557 0.28349 0.92789 0.0
C1554 C 0.72312 0.72895 0.95175 0.0
C1555 C 0.72228 0.70458 0.94828 0.0
H1556 H 0.7394 0.76184 0.96969 0.0
C1557 C 0.73669 0.69456 0.96226 0.0
H1558 H 0.71206 0.73727 0.94155 0.0
C1559 C 0.75254 0.7088 0.97846 0.0
C1560 C 0.75419 0.73324 0.98085 0.0
H1561 H 0.73642 0.67583 0.96002 0.0
H1562 H 0.7642 0.70078 0.98829 0.0
C1563 C 0.73885 0.74307 0.96784 0.0
C1564 C 0.37054 0.74587 0.94111 0.0
C1565 C 0.37111 0.72241 0.94362 0.0
H1566 H 0.35031 0.77417 0.94629 0.0
C1567 C 0.35092 0.70906 0.9528 0.0
H1568 H 0.3859 0.75651 0.93405 0.0
C1569 C 0.33075 0.71927 0.96013 0.0
C1570 C 0.33033 0.7428 0.95788 0.0
H1571 H 0.35105 0.69104 0.95524 0.0
H1572 H 0.31562 0.70892 0.96794 0.0
C1573 C 0.3502 0.75592 0.94792 0.0
C1574 C 0.35037 0.31656 0.96903 0.0
C1575 C 0.34007 0.32713 0.95194 0.0
H1576 H 0.34482 0.29288 0.9954 0.0
C1577 C 0.3152 0.32365 0.95059 0.0
H1578 H 0.36946 0.31896 0.97067 0.0
C1579 C 0.30108 0.30881 0.96492 0.0
C1580 C 0.31147 0.29708 0.98093 0.0
H1581 H 0.30665 0.33169 0.93782 0.0
H1582 H 0.28201 0.30592 0.9629 0.0
C1583 C 0.33623 0.30172 0.98337 0.0
C1584 C 0.59912 0.72574 0.23177 0.0
C1585 C 0.59443 0.71482 0.20818 0.0
H1586 H 0.59025 0.75125 0.26057 0.0
C1587 C 0.57441 0.71923 0.19685 0.0
H1588 H 0.61419 0.7226 0.24117 0.0
C1589 C 0.56058 0.73562 0.2081 0.0
C1590 C 0.56658 0.74794 0.23083 0.0
H1591 H 0.57016 0.71098 0.17875 0.0
H1592 H 0.54627 0.73983 0.19833 0.0
C1593 C 0.58538 0.74214 0.24293 0.0
C1594 C 0.31763 0.59634 0.19531 0.0
C1595 C 0.34204 0.59616 0.19067 0.0
H1596 H 0.28649 0.58332 0.21516 0.0
C1597 C 0.35331 0.58064 0.20142 0.0
H1598 H 0.30835 0.60794 0.18718 0.0
C1599 C 0.34082 0.56666 0.21755 0.0
C1600 C 0.31675 0.56782 0.2233 0.0
H1601 H 0.37206 0.57997 0.19818 0.0
H1602 H 0.3504 0.55585 0.22646 0.0
C1603 C 0.30513 0.58232 0.21145 0.0
C1604 C 0.48329 0.30044 0.22855 0.0
C1605 C 0.46267 0.30909 0.23795 0.0
H1606 H 0.5121 0.28293 0.23489 0.0
C1607 C 0.4558 0.30714 0.26207 0.0
H1608 H 0.48903 0.3016 0.21001 0.0
C1609 C 0.46926 0.29678 0.27648 0.0
C1610 C 0.48979 0.28789 0.26705 0.0
H1611 H 0.44012 0.31382 0.26992 0.0
H1612 H 0.46367 0.29597 0.29511 0.0
C1613 C 0.49662 0.28988 0.24289 0.0
C1614 C 0.77548 0.43573 0.19404 0.0
C1615 C 0.75191 0.43812 0.19047 0.0
H1616 H 0.8075 0.44975 0.21254 0.0
C1617 C 0.74351 0.45877 0.20037 0.0
H1618 H 0.78234 0.41998 0.18643 0.0
C1619 C 0.75766 0.47556 0.216 0.0
C1620 C 0.78046 0.47196 0.2216 0.0
H1621 H 0.72528 0.46086 0.19798 0.0
H1622 H 0.74997 0.49023 0.22526 0.0
C1623 C 0.78976 0.45268 0.20915 0.0
C1624 C 0.60241 0.34295 0.75231 0.0
C1625 C 0.60169 0.35439 0.77601 0.0
H1626 H 0.5848 0.31705 0.72558 0.0
C1627 C 0.58065 0.35035 0.79001 0.0
H1628 H 0.6182 0.3458 0.74094 0.0
C1629 C 0.56144 0.33392 0.7811 0.0
C1630 C 0.563 0.32118 0.75811 0.0
H1631 H 0.57945 0.35901 0.80829 0.0
H1632 H 0.54601 0.33011 0.79274 0.0
C1633 C 0.58329 0.32647 0.74349 0.0
C1634 C 0.71814 0.5746 0.84731 0.0
C1635 C 0.72679 0.59834 0.85417 0.0
H1636 H 0.72424 0.54258 0.82615 0.0
C1637 C 0.74992 0.60733 0.84708 0.0
H1638 H 0.70033 0.56725 0.85262 0.0
C1639 C 0.76389 0.59311 0.83265 0.0
C1640 C 0.75478 0.56971 0.82428 0.0
H1641 H 0.75719 0.62548 0.85253 0.0
H1642 H 0.78169 0.6007 0.8276 0.0
C1643 C 0.73192 0.56045 0.83229 0.0
C1644 C 0.49496 0.74394 0.86097 0.0
C1645 C 0.4734 0.72861 0.86119 0.0
H1646 H 0.52123 0.76312 0.83989 0.0
C1647 C 0.46122 0.72133 0.83954 0.0
H1648 H 0.50475 0.74993 0.87731 0.0
C1649 C 0.47063 0.72913 0.81802 0.0
C1650 C 0.49249 0.74399 0.81786 0.0
H1651 H 0.44447 0.70962 0.83922 0.0
H1652 H 0.46114 0.72319 0.80149 0.0
C1653 C 0.50443 0.75144 0.83954 0.0
C1654 C 0.29861 0.43165 0.81362 0.0
C1655 C 0.32143 0.4397 0.82261 0.0
H1656 H 0.27016 0.43846 0.79348 0.0
C1657 C 0.33255 0.46228 0.819 0.0
H1658 H 0.28938 0.41449 0.81628 0.0
C1659 C 0.32147 0.47608 0.80584 0.0
C1660 C 0.29908 0.46755 0.79596 0.0
H1661 H 0.35008 0.46908 0.8258 0.0
H1662 H 0.33085 0.49299 0.80253 0.0
C1663 C 0.28758 0.44541 0.80051 0.0
C1664 C 0.74507 0.59675 0.22221 0.0
C1665 C 0.73595 0.61637 0.23412 0.0
H1666 H 0.7673 0.57083 0.22409 0.0
C1667 C 0.74139 0.62384 0.2584 0.0
H1668 H 0.74122 0.59054 0.2035 0.0
C1669 C 0.75598 0.6123 0.27034 0.0
C1670 C 0.76582 0.59314 0.25825 0.0
H1671 H 0.73443 0.63871 0.26821 0.0
H1672 H 0.75966 0.61853 0.28907 0.0
C1673 C 0.7599 0.58533 0.23409 0.0
C1674 C 0.71234 0.40807 0.81814 0.0
C1675 C 0.71522 0.4115 0.84318 0.0
H1676 H 0.72472 0.41921 0.78417 0.0
C1677 C 0.73136 0.43058 0.85349 0.0
H1678 H 0.70029 0.39329 0.80972 0.0
C1679 C 0.74486 0.44562 0.83898 0.0
C1680 C 0.74286 0.44149 0.81388 0.0
H1681 H 0.73391 0.43357 0.87275 0.0
H1682 H 0.75772 0.4598 0.84725 0.0
C1683 C 0.72631 0.42279 0.80355 0.0
C1684 C 0.62308 0.73995 0.84492 0.0
C1685 C 0.63834 0.7234 0.83814 0.0
H1686 H 0.60062 0.76205 0.83329 0.0
C1687 C 0.64289 0.71671 0.8135 0.0
H1688 H 0.61926 0.74556 0.86373 0.0
C1689 C 0.63232 0.72636 0.79603 0.0
C1690 C 0.61679 0.74262 0.8029 0.0
H1691 H 0.65469 0.7041 0.8077 0.0
H1692 H 0.63592 0.72078 0.77716 0.0
C1693 C 0.61236 0.74938 0.8275 0.0
C1694 C 0.31967 0.60585 0.85378 0.0
C1695 C 0.3321 0.62752 0.84889 0.0
H1696 H 0.29757 0.57408 0.83991 0.0
C1697 C 0.33244 0.63328 0.82536 0.0
H1698 H 0.31921 0.60086 0.8717 0.0
C1699 C 0.32001 0.618 0.80726 0.0
C1700 C 0.30723 0.59656 0.81226 0.0
H1701 H 0.34192 0.64979 0.82099 0.0
H1702 H 0.3202 0.62304 0.78937 0.0
C1703 C 0.30747 0.59045 0.83557 0.0
C1704 C 0.42554 0.33115 0.82404 0.0
C1705 C 0.40939 0.34489 0.81746 0.0
H1706 H 0.44944 0.30682 0.81213 0.0
C1707 C 0.40655 0.34574 0.79285 0.0
H1708 H 0.42827 0.33016 0.84282 0.0
C1709 C 0.41861 0.33223 0.77528 0.0
C1710 C 0.43403 0.31782 0.78191 0.0
H1711 H 0.3943 0.35614 0.78712 0.0
H1712 H 0.41549 0.33265 0.75646 0.0
C1713 C 0.43781 0.31788 0.80647 0.0
C1714 C 0.36689 0.44976 0.20659 0.0
C1715 C 0.3781 0.43259 0.21455 0.0
H1716 H 0.34277 0.47428 0.21507 0.0
C1717 C 0.37578 0.42945 0.239 0.0
H1718 H 0.36837 0.45273 0.18791 0.0
C1719 C 0.36125 0.4421 0.25476 0.0
C1720 C 0.34867 0.45808 0.24636 0.0
H1721 H 0.38438 0.41653 0.24578 0.0
H1722 H 0.35923 0.43875 0.27331 0.0
C1723 C 0.35231 0.46229 0.22228 0.0
C1724 C 0.65375 0.3061 0.22527 0.0
C1725 C 0.64619 0.3267 0.22049 0.0
H1726 H 0.64686 0.2764 0.24441 0.0
C1727 C 0.62429 0.33207 0.23027 0.0
H1728 H 0.67044 0.30135 0.21784 0.0
C1729 C 0.61088 0.31786 0.24561 0.0
C1730 C 0.61906 0.29794 0.25146 0.0
H1731 H 0.61792 0.34777 0.2269 0.0
H1732 H 0.59468 0.32314 0.25382 0.0
C1733 C 0.64031 0.29186 0.2406 0.0
C1734 C 0.39993 0.73312 0.21971 0.0
C1735 C 0.40579 0.72311 0.19645 0.0
H1736 H 0.41124 0.75641 0.25103 0.0
C1737 C 0.42838 0.7303 0.18646 0.0
H1738 H 0.38282 0.72766 0.22808 0.0
C1739 C 0.44464 0.74753 0.19941 0.0
C1740 C 0.43877 0.75755 0.22281 0.0
H1741 H 0.43336 0.72286 0.16851 0.0
H1742 H 0.46164 0.75312 0.19096 0.0
C1743 C 0.41626 0.74983 0.23281 0.0
loop_
_geom_bond_atom_site_label_1
_geom_bond_atom_site_label_2
_geom_bond_distance
_geom_bond_site_symmetry_2
_ccdc_geom_bond_type
O0 Cd1 2.300 . S
O0 C7 1.275 . S
Cd1 O0 2.300 . S
Cd1 O9 2.381 . S
Cd1 O10 2.378 . S
O2 Cd3 2.385 . S
O2 C7 1.255 . S
Cd3 O2 2.385 . S
Cd3 O4 2.317 . S
O4 Cd3 2.317 . S
O4 C5 1.232 . S
C5 O4 1.232 . S
C5 O6 1.218 . S
O6 C5 1.218 . S
C7 O0 1.275 . S
C7 O2 1.255 . S
C8 O9 1.258 . S
C8 O10 1.256 . S
O9 Cd1 2.381 . S
O9 C8 1.258 . S
O10 Cd1 2.378 . S
O10 C8 1.256 . S
O11 Cd12 2.300 . S
O11 C18 1.275 . S
Cd12 O11 2.300 . S
Cd12 O20 2.381 . S
Cd12 O21 2.378 . S
O13 Cd14 2.385 . S
O13 C18 1.255 . S
Cd14 O13 2.385 . S
Cd14 O15 2.317 . S
O15 Cd14 2.317 . S
O15 C16 1.232 . S
C16 O15 1.232 . S
C16 O17 1.218 . S
O17 C16 1.218 . S
C18 O11 1.275 . S
C18 O13 1.255 . S
C19 O20 1.258 . S
C19 O21 1.256 . S
O20 Cd12 2.381 . S
O20 C19 1.258 . S
O21 Cd12 2.378 . S
O21 C19 1.256 . S
O22 Cd23 2.300 . S
O22 C29 1.275 . S
Cd23 O22 2.300 . S
Cd23 O31 2.381 . S
Cd23 O32 2.378 . S
O24 Cd25 2.385 . S
O24 C29 1.255 . S
Cd25 O24 2.385 . S
Cd25 O26 2.317 . S
O26 Cd25 2.317 . S
O26 C27 1.232 . S
C27 O26 1.232 . S
C27 O28 1.218 . S
O28 C27 1.218 . S
C29 O22 1.275 . S
C29 O24 1.255 . S
C30 O31 1.258 . S
C30 O32 1.256 . S
O31 Cd23 2.381 . S
O31 C30 1.258 . S
O32 Cd23 2.378 . S
O32 C30 1.256 . S
O33 Cd34 2.300 . S
O33 C40 1.275 . S
Cd34 O33 2.300 . S
Cd34 O42 2.381 . S
Cd34 O43 2.378 . S
O35 Cd36 2.385 . S
O35 C40 1.255 . S
Cd36 O35 2.385 . S
Cd36 O37 2.317 . S
O37 Cd36 2.317 . S
O37 C38 1.232 . S
C38 O37 1.232 . S
C38 O39 1.218 . S
O39 C38 1.218 . S
C40 O33 1.275 . S
C40 O35 1.255 . S
C41 O42 1.258 . S
C41 O43 1.256 . S
O42 Cd34 2.381 . S
O42 C41 1.258 . S
O43 Cd34 2.378 . S
O43 C41 1.256 . S
O44 Cd45 2.300 . S
O44 C51 1.275 . S
Cd45 O44 2.300 . S
Cd45 O53 2.381 . S
Cd45 O54 2.378 . S
O46 Cd47 2.385 . S
O46 C51 1.255 . S
Cd47 O46 2.385 . S
Cd47 O48 2.317 . S
O48 Cd47 2.317 . S
O48 C49 1.232 . S
C49 O48 1.232 . S
C49 O50 1.218 . S
O50 C49 1.218 . S
C51 O44 1.275 . S
C51 O46 1.255 . S
C52 O53 1.258 . S
C52 O54 1.256 . S
O53 Cd45 2.381 . S
O53 C52 1.258 . S
O54 Cd45 2.378 . S
O54 C52 1.256 . S
O55 Cd56 2.300 . S
O55 C62 1.275 . S
Cd56 O55 2.300 . S
Cd56 O64 2.381 . S
Cd56 O65 2.378 . S
O57 Cd58 2.385 . S
O57 C62 1.255 . S
Cd58 O57 2.385 . S
Cd58 O59 2.317 . S
O59 Cd58 2.317 . S
O59 C60 1.232 . S
C60 O59 1.232 . S
C60 O61 1.218 . S
O61 C60 1.218 . S
C62 O55 1.275 . S
C62 O57 1.255 . S
C63 O64 1.258 . S
C63 O65 1.256 . S
O64 Cd56 2.381 . S
O64 C63 1.258 . S
O65 Cd56 2.378 . S
O65 C63 1.256 . S
O66 Cd67 2.300 . S
O66 C73 1.275 . S
Cd67 O66 2.300 . S
Cd67 O75 2.381 . S
Cd67 O76 2.378 . S
O68 Cd69 2.385 . S
O68 C73 1.255 . S
Cd69 O68 2.385 . S
Cd69 O70 2.317 . S
O70 Cd69 2.317 . S
O70 C71 1.232 . S
C71 O70 1.232 . S
C71 O72 1.218 . S
O72 C71 1.218 . S
C73 O66 1.275 . S
C73 O68 1.255 . S
C74 O75 1.258 . S
C74 O76 1.256 . S
O75 Cd67 2.381 . S
O75 C74 1.258 . S
O76 Cd67 2.378 . S
O76 C74 1.256 . S
O77 Cd78 2.300 . S
O77 C84 1.275 . S
Cd78 O77 2.300 . S
Cd78 O86 2.381 . S
Cd78 O87 2.378 . S
O79 Cd80 2.385 . S
O79 C84 1.255 . S
Cd80 O79 2.385 . S
Cd80 O81 2.317 . S
O81 Cd80 2.317 . S
O81 C82 1.232 . S
C82 O81 1.232 . S
C82 O83 1.218 . S
O83 C82 1.218 . S
C84 O77 1.275 . S
C84 O79 1.255 . S
C85 O86 1.258 . S
C85 O87 1.256 . S
O86 Cd78 2.381 . S
O86 C85 1.258 . S
O87 Cd78 2.378 . S
O87 C85 1.256 . S
O88 Cd89 2.300 . S
O88 C95 1.275 . S
Cd89 O88 2.300 . S
Cd89 O97 2.381 . S
Cd89 O98 2.378 . S
O90 Cd91 2.385 . S
O90 C95 1.255 . S
Cd91 O90 2.385 . S
Cd91 O92 2.317 . S
O92 Cd91 2.317 . S
O92 C93 1.232 . S
C93 O92 1.232 . S
C93 O94 1.218 . S
O94 C93 1.218 . S
C95 O88 1.275 . S
C95 O90 1.255 . S
C96 O97 1.258 . S
C96 O98 1.256 . S
O97 Cd89 2.381 . S
O97 C96 1.258 . S
O98 Cd89 2.378 . S
O98 C96 1.256 . S
O99 Cd100 2.300 . S
O99 C106 1.275 . S
Cd100 O99 2.300 . S
Cd100 O108 2.381 . S
Cd100 O109 2.378 . S
O101 Cd102 2.385 . S
O101 C106 1.255 . S
Cd102 O101 2.385 . S
Cd102 O103 2.317 . S
O103 Cd102 2.317 . S
O103 C104 1.232 . S
C104 O103 1.232 . S
C104 O105 1.218 . S
O105 C104 1.218 . S
C106 O99 1.275 . S
C106 O101 1.255 . S
C107 O108 1.258 . S
C107 O109 1.256 . S
O108 Cd100 2.381 . S
O108 C107 1.258 . S
O109 Cd100 2.378 . S
O109 C107 1.256 . S
O110 Cd111 2.300 . S
O110 C117 1.275 . S
Cd111 O110 2.300 . S
Cd111 O119 2.381 . S
Cd111 O120 2.378 . S
O112 Cd113 2.385 . S
O112 C117 1.255 . S
Cd113 O112 2.385 . S
Cd113 O114 2.317 . S
O114 Cd113 2.317 . S
O114 C115 1.232 . S
C115 O114 1.232 . S
C115 O116 1.218 . S
O116 C115 1.218 . S
C117 O110 1.275 . S
C117 O112 1.255 . S
C118 O119 1.258 . S
C118 O120 1.256 . S
O119 Cd111 2.381 . S
O119 C118 1.258 . S
O120 Cd111 2.378 . S
O120 C118 1.256 . S
O121 Cd122 2.300 . S
O121 C128 1.275 . S
Cd122 O121 2.300 . S
Cd122 O130 2.381 . S
Cd122 O131 2.378 . S
O123 Cd124 2.385 . S
O123 C128 1.255 . S
Cd124 O123 2.385 . S
Cd124 O125 2.317 . S
O125 Cd124 2.317 . S
O125 C126 1.232 . S
C126 O125 1.232 . S
C126 O127 1.218 . S
O127 C126 1.218 . S
C128 O121 1.275 . S
C128 O123 1.255 . S
C129 O130 1.258 . S
C129 O131 1.256 . S
O130 Cd122 2.381 . S
O130 C129 1.258 . S
O131 Cd122 2.378 . S
O131 C129 1.256 . S
O132 Cd133 2.300 . S
O132 C139 1.275 . S
Cd133 O132 2.300 . S
Cd133 O141 2.381 . S
Cd133 O142 2.378 . S
O134 Cd135 2.385 . S
O134 C139 1.255 . S
Cd135 O134 2.385 . S
Cd135 O136 2.317 . S
O136 Cd135 2.317 . S
O136 C137 1.232 . S
C137 O136 1.232 . S
C137 O138 1.218 . S
O138 C137 1.218 . S
C139 O132 1.275 . S
C139 O134 1.255 . S
C140 O141 1.258 . S
C140 O142 1.256 . S
O141 Cd133 2.381 . S
O141 C140 1.258 . S
O142 Cd133 2.378 . S
O142 C140 1.256 . S
O143 Cd144 2.300 . S
O143 C150 1.275 . S
Cd144 O143 2.300 . S
Cd144 O152 2.381 . S
Cd144 O153 2.378 . S
O145 Cd146 2.385 . S
O145 C150 1.255 . S
Cd146 O145 2.385 . S
Cd146 O147 2.317 . S
O147 Cd146 2.317 . S
O147 C148 1.232 . S
C148 O147 1.232 . S
C148 O149 1.218 . S
O149 C148 1.218 . S
C150 O143 1.275 . S
C150 O145 1.255 . S
C151 O152 1.258 . S
C151 O153 1.256 . S
O152 Cd144 2.381 . S
O152 C151 1.258 . S
O153 Cd144 2.378 . S
O153 C151 1.256 . S
O154 Cd155 2.300 . S
O154 C161 1.275 . S
Cd155 O154 2.300 . S
Cd155 O163 2.381 . S
Cd155 O164 2.378 . S
O156 Cd157 2.385 . S
O156 C161 1.255 . S
Cd157 O156 2.385 . S
Cd157 O158 2.317 . S
O158 Cd157 2.317 . S
O158 C159 1.232 . S
C159 O158 1.232 . S
C159 O160 1.218 . S
O160 C159 1.218 . S
C161 O154 1.275 . S
C161 O156 1.255 . S
C162 O163 1.258 . S
C162 O164 1.256 . S
O163 Cd155 2.381 . S
O163 C162 1.258 . S
O164 Cd155 2.378 . S
O164 C162 1.256 . S
O165 Cd166 2.300 . S
O165 C172 1.275 . S
Cd166 O165 2.300 . S
Cd166 O174 2.381 . S
Cd166 O175 2.378 . S
O167 Cd168 2.385 . S
O167 C172 1.255 . S
Cd168 O167 2.385 . S
Cd168 O169 2.317 . S
O169 Cd168 2.317 . S
O169 C170 1.232 . S
C170 O169 1.232 . S
C170 O171 1.218 . S
O171 C170 1.218 . S
C172 O165 1.275 . S
C172 O167 1.255 . S
C173 O174 1.258 . S
C173 O175 1.256 . S
O174 Cd166 2.381 . S
O174 C173 1.258 . S
O175 Cd166 2.378 . S
O175 C173 1.256 . S
O176 Cd177 2.300 . S
O176 C183 1.275 . S
Cd177 O176 2.300 . S
Cd177 O185 2.381 . S
Cd177 O186 2.378 . S
O178 Cd179 2.385 . S
O178 C183 1.255 . S
Cd179 O178 2.385 . S
Cd179 O180 2.317 . S
O180 Cd179 2.317 . S
O180 C181 1.232 . S
C181 O180 1.232 . S
C181 O182 1.218 . S
O182 C181 1.218 . S
C183 O176 1.275 . S
C183 O178 1.255 . S
C184 O185 1.258 . S
C184 O186 1.256 . S
O185 Cd177 2.381 . S
O185 C184 1.258 . S
O186 Cd177 2.378 . S
O186 C184 1.256 . S
O187 Cd188 2.300 . S
O187 C194 1.275 . S
Cd188 O187 2.300 . S
Cd188 O196 2.381 . S
Cd188 O197 2.378 . S
O189 Cd190 2.385 . S
O189 C194 1.255 . S
Cd190 O189 2.385 . S
Cd190 O191 2.317 . S
O191 Cd190 2.317 . S
O191 C192 1.232 . S
C192 O191 1.232 . S
C192 O193 1.218 . S
O193 C192 1.218 . S
C194 O187 1.275 . S
C194 O189 1.255 . S
C195 O196 1.258 . S
C195 O197 1.256 . S
O196 Cd188 2.381 . S
O196 C195 1.258 . S
O197 Cd188 2.378 . S
O197 C195 1.256 . S
O198 Cd199 2.300 . S
O198 C205 1.275 . S
Cd199 O198 2.300 . S
Cd199 O207 2.381 . S
Cd199 O208 2.378 . S
O200 Cd201 2.385 . S
O200 C205 1.255 . S
Cd201 O200 2.385 . S
Cd201 O202 2.317 . S
O202 Cd201 2.317 . S
O202 C203 1.232 . S
C203 O202 1.232 . S
C203 O204 1.218 . S
O204 C203 1.218 . S
C205 O198 1.275 . S
C205 O200 1.255 . S
C206 O207 1.258 . S
C206 O208 1.256 . S
O207 Cd199 2.381 . S
O207 C206 1.258 . S
O208 Cd199 2.378 . S
O208 C206 1.256 . S
O209 Cd210 2.300 . S
O209 C216 1.275 . S
Cd210 O209 2.300 . S
Cd210 O218 2.381 . S
Cd210 O219 2.378 . S
O211 Cd212 2.385 . S
O211 C216 1.255 . S
Cd212 O211 2.385 . S
Cd212 O213 2.317 . S
O213 Cd212 2.317 . S
O213 C214 1.232 . S
C214 O213 1.232 . S
C214 O215 1.218 . S
O215 C214 1.218 . S
C216 O209 1.275 . S
C216 O211 1.255 . S
C217 O218 1.258 . S
C217 O219 1.256 . S
O218 Cd210 2.381 . S
O218 C217 1.258 . S
O219 Cd210 2.378 . S
O219 C217 1.256 . S
O220 Cd221 2.300 . S
O220 C227 1.275 . S
Cd221 O220 2.300 . S
Cd221 O229 2.381 . S
Cd221 O230 2.378 . S
O222 Cd223 2.385 . S
O222 C227 1.255 . S
Cd223 O222 2.385 . S
Cd223 O224 2.317 . S
O224 Cd223 2.317 . S
O224 C225 1.232 . S
C225 O224 1.232 . S
C225 O226 1.218 . S
O226 C225 1.218 . S
C227 O220 1.275 . S
C227 O222 1.255 . S
C228 O229 1.258 . S
C228 O230 1.256 . S
O229 Cd221 2.381 . S
O229 C228 1.258 . S
O230 Cd221 2.378 . S
O230 C228 1.256 . S
O231 Cd232 2.300 . S
O231 C238 1.275 . S
Cd232 O231 2.300 . S
Cd232 O240 2.381 . S
Cd232 O241 2.378 . S
O233 Cd234 2.385 . S
O233 C238 1.255 . S
Cd234 O233 2.385 . S
Cd234 O235 2.317 . S
O235 Cd234 2.317 . S
O235 C236 1.232 . S
C236 O235 1.232 . S
C236 O237 1.218 . S
O237 C236 1.218 . S
C238 O231 1.275 . S
C238 O233 1.255 . S
C239 O240 1.258 . S
C239 O241 1.256 . S
O240 Cd232 2.381 . S
O240 C239 1.258 . S
O241 Cd232 2.378 . S
O241 C239 1.256 . S
O242 Cd243 2.300 . S
O242 C249 1.275 . S
Cd243 O242 2.300 . S
Cd243 O251 2.381 . S
Cd243 O252 2.378 . S
O244 Cd245 2.385 . S
O244 C249 1.255 . S
Cd245 O244 2.385 . S
Cd245 O246 2.317 . S
O246 Cd245 2.317 . S
O246 C247 1.232 . S
C247 O246 1.232 . S
C247 O248 1.218 . S
O248 C247 1.218 . S
C249 O242 1.275 . S
C249 O244 1.255 . S
C250 O251 1.258 . S
C250 O252 1.256 . S
O251 Cd243 2.381 . S
O251 C250 1.258 . S
O252 Cd243 2.378 . S
O252 C250 1.256 . S
O253 Cd254 2.300 . S
O253 C260 1.275 . S
Cd254 O253 2.300 . S
Cd254 O262 2.381 . S
Cd254 O263 2.378 . S
O255 Cd256 2.385 . S
O255 C260 1.255 . S
Cd256 O255 2.385 . S
Cd256 O257 2.317 . S
O257 Cd256 2.317 . S
O257 C258 1.232 . S
C258 O257 1.232 . S
C258 O259 1.218 . S
O259 C258 1.218 . S
C260 O253 1.275 . S
C260 O255 1.255 . S
C261 O262 1.258 . S
C261 O263 1.256 . S
O262 Cd254 2.381 . S
O262 C261 1.258 . S
O263 Cd254 2.378 . S
O263 C261 1.256 . S
O264 Cd265 2.300 . S
O264 C271 1.275 . S
Cd265 O264 2.300 . S
Cd265 O273 2.381 . S
Cd265 O274 2.378 . S
O266 Cd267 2.385 . S
O266 C271 1.255 . S
Cd267 O266 2.385 . S
Cd267 O268 2.317 . S
O268 Cd267 2.317 . S
O268 C269 1.232 . S
C269 O268 1.232 . S
C269 O270 1.218 . S
O270 C269 1.218 . S
C271 O264 1.275 . S
C271 O266 1.255 . S
C272 O273 1.258 . S
C272 O274 1.256 . S
O273 Cd265 2.381 . S
O273 C272 1.258 . S
O274 Cd265 2.378 . S
O274 C272 1.256 . S
O275 Cd276 2.300 . S
O275 C282 1.275 . S
Cd276 O275 2.300 . S
Cd276 O284 2.381 . S
Cd276 O285 2.378 . S
O277 Cd278 2.385 . S
O277 C282 1.255 . S
Cd278 O277 2.385 . S
Cd278 O279 2.317 . S
O279 Cd278 2.317 . S
O279 C280 1.232 . S
C280 O279 1.232 . S
C280 O281 1.218 . S
O281 C280 1.218 . S
C282 O275 1.275 . S
C282 O277 1.255 . S
C283 O284 1.258 . S
C283 O285 1.256 . S
O284 Cd276 2.381 . S
O284 C283 1.258 . S
O285 Cd276 2.378 . S
O285 C283 1.256 . S
O286 Cd287 2.300 . S
O286 C293 1.275 . S
Cd287 O286 2.300 . S
Cd287 O295 2.381 . S
Cd287 O296 2.378 . S
O288 Cd289 2.385 . S
O288 C293 1.255 . S
Cd289 O288 2.385 . S
Cd289 O290 2.317 . S
O290 Cd289 2.317 . S
O290 C291 1.232 . S
C291 O290 1.232 . S
C291 O292 1.218 . S
O292 C291 1.218 . S
C293 O286 1.275 . S
C293 O288 1.255 . S
C294 O295 1.258 . S
C294 O296 1.256 . S
O295 Cd287 2.381 . S
O295 C294 1.258 . S
O296 Cd287 2.378 . S
O296 C294 1.256 . S
O297 Cd298 2.300 . S
O297 C304 1.275 . S
Cd298 O297 2.300 . S
Cd298 O306 2.381 . S
Cd298 O307 2.378 . S
O299 Cd300 2.385 . S
O299 C304 1.255 . S
Cd300 O299 2.385 . S
Cd300 O301 2.317 . S
O301 Cd300 2.317 . S
O301 C302 1.232 . S
C302 O301 1.232 . S
C302 O303 1.218 . S
O303 C302 1.218 . S
C304 O297 1.275 . S
C304 O299 1.255 . S
C305 O306 1.258 . S
C305 O307 1.256 . S
O306 Cd298 2.381 . S
O306 C305 1.258 . S
O307 Cd298 2.378 . S
O307 C305 1.256 . S
O308 Cd309 2.300 . S
O308 C315 1.275 . S
Cd309 O308 2.300 . S
Cd309 O317 2.381 . S
Cd309 O318 2.378 . S
O310 Cd311 2.385 . S
O310 C315 1.255 . S
Cd311 O310 2.385 . S
Cd311 O312 2.317 . S
O312 Cd311 2.317 . S
O312 C313 1.232 . S
C313 O312 1.232 . S
C313 O314 1.218 . S
O314 C313 1.218 . S
C315 O308 1.275 . S
C315 O310 1.255 . S
C316 O317 1.258 . S
C316 O318 1.256 . S
O317 Cd309 2.381 . S
O317 C316 1.258 . S
O318 Cd309 2.378 . S
O318 C316 1.256 . S
O319 Cd320 2.300 . S
O319 C326 1.275 . S
Cd320 O319 2.300 . S
Cd320 O328 2.381 . S
Cd320 O329 2.378 . S
O321 Cd322 2.385 . S
O321 C326 1.255 . S
Cd322 O321 2.385 . S
Cd322 O323 2.317 . S
O323 Cd322 2.317 . S
O323 C324 1.232 . S
C324 O323 1.232 . S
C324 O325 1.218 . S
O325 C324 1.218 . S
C326 O319 1.275 . S
C326 O321 1.255 . S
C327 O328 1.258 . S
C327 O329 1.256 . S
O328 Cd320 2.381 . S
O328 C327 1.258 . S
O329 Cd320 2.378 . S
O329 C327 1.256 . S
O330 Cd331 2.300 . S
O330 C337 1.275 . S
Cd331 O330 2.300 . S
Cd331 O339 2.381 . S
Cd331 O340 2.378 . S
O332 Cd333 2.385 . S
O332 C337 1.255 . S
Cd333 O332 2.385 . S
Cd333 O334 2.317 . S
O334 Cd333 2.317 . S
O334 C335 1.232 . S
C335 O334 1.232 . S
C335 O336 1.218 . S
O336 C335 1.218 . S
C337 O330 1.275 . S
C337 O332 1.255 . S
C338 O339 1.258 . S
C338 O340 1.256 . S
O339 Cd331 2.381 . S
O339 C338 1.258 . S
O340 Cd331 2.378 . S
O340 C338 1.256 . S
O341 Cd342 2.300 . S
O341 C348 1.275 . S
Cd342 O341 2.300 . S
Cd342 O350 2.381 . S
Cd342 O351 2.378 . S
O343 Cd344 2.385 . S
O343 C348 1.255 . S
Cd344 O343 2.385 . S
Cd344 O345 2.317 . S
O345 Cd344 2.317 . S
O345 C346 1.232 . S
C346 O345 1.232 . S
C346 O347 1.218 . S
O347 C346 1.218 . S
C348 O341 1.275 . S
C348 O343 1.255 . S
C349 O350 1.258 . S
C349 O351 1.256 . S
O350 Cd342 2.381 . S
O350 C349 1.258 . S
O351 Cd342 2.378 . S
O351 C349 1.256 . S
H352 C358 0.930 . S
H353 C361 0.931 . S
H354 C363 0.931 . S
H355 C365 0.930 . S
H356 C367 0.930 . S
H357 C369 0.931 . S
C358 H352 0.930 . S
C358 C359 1.380 . S
C358 C360 1.394 . S
C359 C358 1.380 . S
C359 C363 1.382 1_556 S
C360 C358 1.394 . S
C360 C361 1.400 1_556 S
C361 H353 0.931 . S
C361 C360 1.400 1_554 S
C361 C362 1.375 . S
C362 C361 1.375 . S
C362 C363 1.415 . S
C362 C364 1.501 . S
C363 H354 0.931 . S
C363 C359 1.382 1_554 S
C363 C362 1.415 . S
C364 C362 1.501 . S
C364 C365 1.384 . S
C364 C369 1.408 . S
C365 H355 0.930 . S
C365 C364 1.384 . S
C365 C366 1.389 . S
C366 C365 1.389 . S
C366 C367 1.405 . S
C367 H356 0.930 . S
C367 C366 1.405 . S
C367 C368 1.364 . S
C368 C367 1.364 . S
C368 C369 1.400 . S
C369 H357 0.931 . S
C369 C364 1.408 . S
C369 C368 1.400 . S
H370 C376 0.930 . S
H371 C379 0.931 . S
H372 C381 0.931 . S
H373 C383 0.930 . S
H374 C385 0.930 . S
H375 C387 0.931 . S
C376 H370 0.930 . S
C376 C377 1.380 . S
C376 C378 1.394 . S
C377 C376 1.380 . S
C377 C381 1.382 . S
C378 C376 1.394 . S
C378 C379 1.400 . S
C379 H371 0.931 . S
C379 C378 1.400 . S
C379 C380 1.375 . S
C380 C379 1.375 . S
C380 C381 1.415 . S
C380 C382 1.501 1_554 S
C381 H372 0.931 . S
C381 C377 1.382 . S
C381 C380 1.415 . S
C382 C380 1.501 1_556 S
C382 C383 1.384 . S
C382 C387 1.408 . S
C383 H373 0.930 . S
C383 C382 1.384 . S
C383 C384 1.389 . S
C384 C383 1.389 . S
C384 C385 1.405 . S
C385 H374 0.930 . S
C385 C384 1.405 . S
C385 C386 1.364 . S
C386 C385 1.364 . S
C386 C387 1.400 . S
C387 H375 0.931 . S
C387 C382 1.408 . S
C387 C386 1.400 . S
H388 C394 0.930 . S
H389 C397 0.931 . S
H390 C399 0.931 . S
H391 C401 0.930 . S
H392 C403 0.930 . S
H393 C405 0.931 . S
C394 H388 0.930 . S
C394 C395 1.380 . S
C394 C396 1.394 . S
C395 C394 1.380 . S
C395 C399 1.382 1_556 S
C396 C394 1.394 . S
C396 C397 1.400 1_556 S
C397 H389 0.931 . S
C397 C396 1.400 1_554 S
C397 C398 1.375 . S
C398 C397 1.375 . S
C398 C399 1.415 . S
C398 C400 1.501 . S
C399 H390 0.931 . S
C399 C395 1.382 1_554 S
C399 C398 1.415 . S
C400 C398 1.501 . S
C400 C401 1.384 . S
C400 C405 1.408 . S
C401 H391 0.930 . S
C401 C400 1.384 . S
C401 C402 1.389 . S
C402 C401 1.389 . S
C402 C403 1.405 . S
C403 H392 0.930 . S
C403 C402 1.405 . S
C403 C404 1.364 . S
C404 C403 1.364 . S
C404 C405 1.400 . S
C405 H393 0.931 . S
C405 C400 1.408 . S
C405 C404 1.400 . S
H406 C412 0.930 . S
H407 C415 0.931 . S
H408 C417 0.931 . S
H409 C419 0.930 . S
H410 C421 0.930 . S
H411 C423 0.931 . S
C412 H406 0.930 . S
C412 C413 1.380 . S
C412 C414 1.394 . S
C413 C412 1.380 . S
C413 C417 1.382 . S
C414 C412 1.394 . S
C414 C415 1.400 . S
C415 H407 0.931 . S
C415 C414 1.400 . S
C415 C416 1.375 . S
C416 C415 1.375 . S
C416 C417 1.415 . S
C416 C418 1.501 1_554 S
C417 H408 0.931 . S
C417 C413 1.382 . S
C417 C416 1.415 . S
C418 C416 1.501 1_556 S
C418 C419 1.384 . S
C418 C423 1.408 . S
C419 H409 0.930 . S
C419 C418 1.384 . S
C419 C420 1.389 . S
C420 C419 1.389 . S
C420 C421 1.405 . S
C421 H410 0.930 . S
C421 C420 1.405 . S
C421 C422 1.364 . S
C422 C421 1.364 . S
C422 C423 1.400 . S
C423 H411 0.931 . S
C423 C418 1.408 . S
C423 C422 1.400 . S
H424 C430 0.930 . S
H425 C433 0.931 . S
H426 C435 0.931 . S
H427 C437 0.930 . S
H428 C439 0.930 . S
H429 C441 0.931 . S
C430 H424 0.930 . S
C430 C431 1.380 . S
C430 C432 1.394 . S
C431 C430 1.380 . S
C431 C435 1.382 . S
C432 C430 1.394 . S
C432 C433 1.400 . S
C433 H425 0.931 . S
C433 C432 1.400 . S
C433 C434 1.375 . S
C434 C433 1.375 . S
C434 C435 1.415 . S
C434 C436 1.501 1_455 S
C435 H426 0.931 . S
C435 C431 1.382 . S
C435 C434 1.415 . S
C436 C434 1.501 1_655 S
C436 C437 1.384 . S
C436 C441 1.408 . S
C437 H427 0.930 . S
C437 C436 1.384 . S
C437 C438 1.389 . S
C438 C437 1.389 . S
C438 C439 1.405 . S
C439 H428 0.930 . S
C439 C438 1.405 . S
C439 C440 1.364 . S
C440 C439 1.364 . S
C440 C441 1.400 . S
C441 H429 0.931 . S
C441 C436 1.408 . S
C441 C440 1.400 . S
H442 C448 0.930 . S
H443 C451 0.931 . S
H444 C453 0.931 . S
H445 C455 0.930 . S
H446 C457 0.930 . S
H447 C459 0.931 . S
C448 H442 0.930 . S
C448 C449 1.380 . S
C448 C450 1.394 . S
C449 C448 1.380 . S
C449 C453 1.382 . S
C450 C448 1.394 . S
C450 C451 1.400 . S
C451 H443 0.931 . S
C451 C450 1.400 . S
C451 C452 1.375 . S
C452 C451 1.375 . S
C452 C453 1.415 . S
C452 C454 1.501 1_565 S
C453 H444 0.931 . S
C453 C449 1.382 . S
C453 C452 1.415 . S
C454 C452 1.501 1_545 S
C454 C455 1.384 . S
C454 C459 1.408 . S
C455 H445 0.930 . S
C455 C454 1.384 . S
C455 C456 1.389 . S
C456 C455 1.389 . S
C456 C457 1.405 . S
C457 H446 0.930 . S
C457 C456 1.405 . S
C457 C458 1.364 . S
C458 C457 1.364 . S
C458 C459 1.400 . S
C459 H447 0.931 . S
C459 C454 1.408 . S
C459 C458 1.400 . S
H460 C466 0.930 . S
H461 C469 0.931 . S
H462 C471 0.931 . S
H463 C473 0.930 . S
H464 C475 0.930 1_655 S
H465 C477 0.931 . S
C466 H460 0.930 . S
C466 C467 1.380 . S
C466 C468 1.394 . S
C467 C466 1.380 . S
C467 C471 1.382 . S
C468 C466 1.394 . S
C468 C469 1.400 . S
C469 H461 0.931 . S
C469 C468 1.400 . S
C469 C470 1.375 . S
C470 C469 1.375 . S
C470 C471 1.415 . S
C470 C472 1.501 . S
C471 H462 0.931 . S
C471 C467 1.382 . S
C471 C470 1.415 . S
C472 C470 1.501 . S
C472 C473 1.384 . S
C472 C477 1.408 . S
C473 H463 0.930 . S
C473 C472 1.384 . S
C473 C474 1.389 . S
C474 C473 1.389 . S
C474 C475 1.405 . S
C475 H464 0.930 1_455 S
C475 C474 1.405 . S
C475 C476 1.364 . S
C476 C475 1.364 . S
C476 C477 1.400 . S
C477 H465 0.931 . S
C477 C472 1.408 . S
C477 C476 1.400 . S
H478 C484 0.930 . S
H479 C487 0.931 . S
H480 C489 0.931 . S
H481 C491 0.937 . S
H482 C493 0.930 . S
H483 C495 0.931 . S
C484 H478 0.930 . S
C484 C485 1.380 . S
C484 C486 1.394 . S
C485 C484 1.380 . S
C485 C489 1.382 . S
C486 C484 1.394 . S
C486 C487 1.400 . S
C487 H479 0.931 . S
C487 C486 1.400 . S
C487 C488 1.375 . S
C488 C487 1.375 . S
C488 C489 1.415 . S
C488 C490 1.501 . S
C489 H480 0.931 . S
C489 C485 1.382 . S
C489 C488 1.415 . S
C490 C488 1.501 . S
C490 C491 1.390 . S
C490 C495 1.408 1_545 S
C491 H481 0.937 . S
C491 C490 1.390 . S
C491 C492 1.377 1_545 S
C492 C491 1.377 1_565 S
C492 C493 1.405 . S
C493 H482 0.930 . S
C493 C492 1.405 . S
C493 C494 1.364 . S
C494 C493 1.364 . S
C494 C495 1.400 . S
C495 H483 0.931 . S
C495 C490 1.408 1_565 S
C495 C494 1.400 . S
H496 C502 0.930 . S
H497 C505 0.931 . S
H498 C507 0.931 . S
H499 C509 0.930 . S
H500 C511 0.930 . S
H501 C513 0.931 . S
C502 H496 0.930 . S
C502 C503 1.380 . S
C502 C504 1.394 . S
C503 C502 1.380 . S
C503 C507 1.382 . S
C504 C502 1.394 . S
C504 C505 1.400 . S
C505 H497 0.931 . S
C505 C504 1.400 . S
C505 C506 1.375 . S
C506 C505 1.375 . S
C506 C507 1.415 . S
C506 C508 1.501 1_455 S
C507 H498 0.931 . S
C507 C503 1.382 . S
C507 C506 1.415 . S
C508 C506 1.501 1_655 S
C508 C509 1.384 . S
C508 C513 1.408 . S
C509 H499 0.930 . S
C509 C508 1.384 . S
C509 C510 1.389 . S
C510 C509 1.389 . S
C510 C511 1.405 . S
C511 H500 0.930 . S
C511 C510 1.405 . S
C511 C512 1.364 . S
C512 C511 1.364 . S
C512 C513 1.400 . S
C513 H501 0.931 . S
C513 C508 1.408 . S
C513 C512 1.400 . S
H514 C520 0.930 . S
H515 C523 0.931 . S
H516 C525 0.931 . S
H517 C527 0.930 . S
H518 C529 0.930 . S
H519 C531 0.931 . S
C520 H514 0.930 . S
C520 C521 1.380 . S
C520 C522 1.394 . S
C521 C520 1.380 . S
C521 C525 1.382 . S
C522 C520 1.394 . S
C522 C523 1.400 . S
C523 H515 0.931 . S
C523 C522 1.400 . S
C523 C524 1.375 . S
C524 C523 1.375 . S
C524 C525 1.415 . S
C524 C526 1.501 1_565 S
C525 H516 0.931 . S
C525 C521 1.382 . S
C525 C524 1.415 . S
C526 C524 1.501 1_545 S
C526 C527 1.384 . S
C526 C531 1.408 . S
C527 H517 0.930 . S
C527 C526 1.384 . S
C527 C528 1.389 . S
C528 C527 1.389 . S
C528 C529 1.405 . S
C529 H518 0.930 . S
C529 C528 1.405 . S
C529 C530 1.364 . S
C530 C529 1.364 . S
C530 C531 1.400 . S
C531 H519 0.931 . S
C531 C526 1.408 . S
C531 C530 1.400 . S
H532 C538 0.930 . S
H533 C541 0.931 . S
H534 C543 0.931 . S
H535 C545 0.930 . S
H536 C547 0.930 1_655 S
H537 C549 0.931 . S
C538 H532 0.930 . S
C538 C539 1.380 . S
C538 C540 1.394 . S
C539 C538 1.380 . S
C539 C543 1.382 . S
C540 C538 1.394 . S
C540 C541 1.400 . S
C541 H533 0.931 . S
C541 C540 1.400 . S
C541 C542 1.375 . S
C542 C541 1.375 . S
C542 C543 1.415 . S
C542 C544 1.501 . S
C543 H534 0.931 . S
C543 C539 1.382 . S
C543 C542 1.415 . S
C544 C542 1.501 . S
C544 C545 1.384 . S
C544 C549 1.408 . S
C545 H535 0.930 . S
C545 C544 1.384 . S
C545 C546 1.389 . S
C546 C545 1.389 . S
C546 C547 1.405 . S
C547 H536 0.930 1_455 S
C547 C546 1.405 . S
C547 C548 1.364 . S
C548 C547 1.364 . S
C548 C549 1.400 . S
C549 H537 0.931 . S
C549 C544 1.408 . S
C549 C548 1.400 . S
H550 C556 0.930 . S
H551 C559 0.931 . S
H552 C561 0.931 . S
H553 C563 0.947 . S
H554 C565 0.930 . S
H555 C567 0.931 . S
C556 H550 0.930 . S
C556 C557 1.380 . S
C556 C558 1.394 . S
C557 C556 1.380 . S
C557 C561 1.382 . S
C558 C556 1.394 . S
C558 C559 1.400 . S
C559 H551 0.931 . S
C559 C558 1.400 . S
C559 C560 1.375 . S
C560 C559 1.375 . S
C560 C561 1.415 . S
C560 C562 1.501 . S
C561 H552 0.931 . S
C561 C557 1.382 . S
C561 C560 1.415 . S
C562 C560 1.501 . S
C562 C563 1.398 . S
C562 C567 1.408 1_545 S
C563 H553 0.947 . S
C563 C562 1.398 . S
C563 C564 1.359 1_545 S
C564 C563 1.359 1_565 S
C564 C565 1.405 . S
C565 H554 0.930 . S
C565 C564 1.405 . S
C565 C566 1.364 . S
C566 C565 1.364 . S
C566 C567 1.400 . S
C567 H555 0.931 . S
C567 C562 1.408 1_565 S
C567 C566 1.400 . S
H568 C574 0.930 . S
H569 C577 0.931 . S
H570 C579 0.931 . S
H571 C581 0.930 . S
H572 C583 0.930 . S
H573 C585 0.931 . S
C574 H568 0.930 . S
C574 C575 1.380 . S
C574 C576 1.394 . S
C575 C574 1.380 . S
C575 C579 1.382 . S
C576 C574 1.394 . S
C576 C577 1.400 . S
C577 H569 0.931 . S
C577 C576 1.400 . S
C577 C578 1.375 . S
C578 C577 1.375 . S
C578 C579 1.415 . S
C578 C580 1.501 . S
C579 H570 0.931 . S
C579 C575 1.382 . S
C579 C578 1.415 . S
C580 C578 1.501 . S
C580 C581 1.384 . S
C580 C585 1.408 . S
C581 H571 0.930 . S
C581 C580 1.384 . S
C581 C582 1.389 . S
C582 C581 1.389 . S
C582 C583 1.405 . S
C583 H572 0.930 . S
C583 C582 1.405 . S
C583 C584 1.364 . S
C584 C583 1.364 . S
C584 C585 1.400 . S
C585 H573 0.931 . S
C585 C580 1.408 . S
C585 C584 1.400 . S
H586 C592 0.930 . S
H587 C595 0.931 . S
H588 C597 0.931 . S
H589 C599 0.930 . S
H590 C601 0.930 . S
H591 C603 0.931 . S
C592 H586 0.930 . S
C592 C593 1.380 . S
C592 C594 1.394 . S
C593 C592 1.380 . S
C593 C597 1.382 . S
C594 C592 1.394 . S
C594 C595 1.400 . S
C595 H587 0.931 . S
C595 C594 1.400 . S
C595 C596 1.375 . S
C596 C595 1.375 . S
C596 C597 1.415 . S
C596 C598 1.501 . S
C597 H588 0.931 . S
C597 C593 1.382 . S
C597 C596 1.415 . S
C598 C596 1.501 . S
C598 C599 1.384 . S
C598 C603 1.408 . S
C599 H589 0.930 . S
C599 C598 1.384 . S
C599 C600 1.389 . S
C600 C599 1.389 . S
C600 C601 1.405 . S
C601 H590 0.930 . S
C601 C600 1.405 . S
C601 C602 1.364 . S
C602 C601 1.364 . S
C602 C603 1.400 . S
C603 H591 0.931 . S
C603 C598 1.408 . S
C603 C602 1.400 . S
H604 C610 0.930 . S
H605 C613 0.931 . S
H606 C615 0.931 . S
H607 C617 0.930 . S
H608 C619 0.930 . S
H609 C621 0.931 . S
C610 H604 0.930 . S
C610 C611 1.380 . S
C610 C612 1.394 . S
C611 C610 1.380 . S
C611 C615 1.382 . S
C612 C610 1.394 . S
C612 C613 1.400 . S
C613 H605 0.931 . S
C613 C612 1.400 . S
C613 C614 1.375 . S
C614 C613 1.375 . S
C614 C615 1.415 . S
C614 C616 1.501 . S
C615 H606 0.931 . S
C615 C611 1.382 . S
C615 C614 1.415 . S
C616 C614 1.501 . S
C616 C617 1.384 . S
C616 C621 1.408 . S
C617 H607 0.930 . S
C617 C616 1.384 . S
C617 C618 1.389 . S
C618 C617 1.389 . S
C618 C619 1.405 . S
C619 H608 0.930 . S
C619 C618 1.405 . S
C619 C620 1.364 . S
C620 C619 1.364 . S
C620 C621 1.400 . S
C621 H609 0.931 . S
C621 C616 1.408 . S
C621 C620 1.400 . S
H622 C628 0.930 . S
H623 C631 0.931 . S
H624 C633 0.931 . S
H625 C635 0.930 . S
H626 C637 0.930 . S
H627 C639 0.931 . S
C628 H622 0.930 . S
C628 C629 1.380 . S
C628 C630 1.394 . S
C629 C628 1.380 . S
C629 C633 1.382 . S
C630 C628 1.394 . S
C630 C631 1.400 . S
C631 H623 0.931 . S
C631 C630 1.400 . S
C631 C632 1.375 . S
C632 C631 1.375 . S
C632 C633 1.415 . S
C632 C634 1.501 . S
C633 H624 0.931 . S
C633 C629 1.382 . S
C633 C632 1.415 . S
C634 C632 1.501 . S
C634 C635 1.384 . S
C634 C639 1.408 . S
C635 H625 0.930 . S
C635 C634 1.384 . S
C635 C636 1.389 . S
C636 C635 1.389 . S
C636 C637 1.405 . S
C637 H626 0.930 . S
C637 C636 1.405 . S
C637 C638 1.364 . S
C638 C637 1.364 . S
C638 C639 1.400 . S
C639 H627 0.931 . S
C639 C634 1.408 . S
C639 C638 1.400 . S
H640 C646 0.930 . S
H641 C649 0.931 . S
H642 C651 0.931 . S
H643 C653 0.930 . S
H644 C655 0.930 . S
H645 C657 0.931 . S
C646 H640 0.930 . S
C646 C647 1.380 . S
C646 C648 1.394 . S
C647 C646 1.380 . S
C647 C651 1.382 . S
C648 C646 1.394 . S
C648 C649 1.400 . S
C649 H641 0.931 . S
C649 C648 1.400 . S
C649 C650 1.375 . S
C650 C649 1.375 . S
C650 C651 1.415 . S
C650 C652 1.501 . S
C651 H642 0.931 . S
C651 C647 1.382 . S
C651 C650 1.415 . S
C652 C650 1.501 . S
C652 C653 1.384 . S
C652 C657 1.408 . S
C653 H643 0.930 . S
C653 C652 1.384 . S
C653 C654 1.389 . S
C654 C653 1.389 . S
C654 C655 1.405 . S
C655 H644 0.930 . S
C655 C654 1.405 . S
C655 C656 1.364 . S
C656 C655 1.364 . S
C656 C657 1.400 . S
C657 H645 0.931 . S
C657 C652 1.408 . S
C657 C656 1.400 . S
H658 C664 0.930 . S
H659 C667 0.931 . S
H660 C669 0.931 . S
H661 C671 0.930 . S
H662 C673 0.930 . S
H663 C675 0.931 . S
C664 H658 0.930 . S
C664 C665 1.380 . S
C664 C666 1.394 . S
C665 C664 1.380 . S
C665 C669 1.382 . S
C666 C664 1.394 . S
C666 C667 1.400 . S
C667 H659 0.931 . S
C667 C666 1.400 . S
C667 C668 1.375 . S
C668 C667 1.375 . S
C668 C669 1.415 . S
C668 C670 1.501 . S
C669 H660 0.931 . S
C669 C665 1.382 . S
C669 C668 1.415 . S
C670 C668 1.501 . S
C670 C671 1.384 . S
C670 C675 1.408 . S
C671 H661 0.930 . S
C671 C670 1.384 . S
C671 C672 1.389 . S
C672 C671 1.389 . S
C672 C673 1.405 . S
C673 H662 0.930 . S
C673 C672 1.405 . S
C673 C674 1.364 . S
C674 C673 1.364 . S
C674 C675 1.400 . S
C675 H663 0.931 . S
C675 C670 1.408 . S
C675 C674 1.400 . S
H676 C682 0.930 . S
H677 C685 0.931 . S
H678 C687 0.931 . S
H679 C689 0.930 . S
H680 C691 0.930 . S
H681 C693 0.931 . S
C682 H676 0.930 . S
C682 C683 1.380 . S
C682 C684 1.394 . S
C683 C682 1.380 . S
C683 C687 1.382 . S
C684 C682 1.394 . S
C684 C685 1.400 . S
C685 H677 0.931 . S
C685 C684 1.400 . S
C685 C686 1.375 . S
C686 C685 1.375 . S
C686 C687 1.415 . S
C686 C688 1.501 . S
C687 H678 0.931 . S
C687 C683 1.382 . S
C687 C686 1.415 . S
C688 C686 1.501 . S
C688 C689 1.384 . S
C688 C693 1.408 . S
C689 H679 0.930 . S
C689 C688 1.384 . S
C689 C690 1.389 . S
C690 C689 1.389 . S
C690 C691 1.405 . S
C691 H680 0.930 . S
C691 C690 1.405 . S
C691 C692 1.364 . S
C692 C691 1.364 . S
C692 C693 1.400 . S
C693 H681 0.931 . S
C693 C688 1.408 . S
C693 C692 1.400 . S
H694 C700 0.930 . S
H695 C703 0.931 . S
H696 C705 0.931 . S
H697 C707 0.930 . S
H698 C709 0.930 . S
H699 C711 0.931 . S
C700 H694 0.930 . S
C700 C701 1.380 . S
C700 C702 1.394 . S
C701 C700 1.380 . S
C701 C705 1.382 . S
C702 C700 1.394 . S
C702 C703 1.400 . S
C703 H695 0.931 . S
C703 C702 1.400 . S
C703 C704 1.375 . S
C704 C703 1.375 . S
C704 C705 1.415 . S
C704 C706 1.501 . S
C705 H696 0.931 . S
C705 C701 1.382 . S
C705 C704 1.415 . S
C706 C704 1.501 . S
C706 C707 1.384 . S
C706 C711 1.408 . S
C707 H697 0.930 . S
C707 C706 1.384 . S
C707 C708 1.389 . S
C708 C707 1.389 . S
C708 C709 1.405 . S
C709 H698 0.930 . S
C709 C708 1.405 . S
C709 C710 1.364 . S
C710 C709 1.364 . S
C710 C711 1.400 . S
C711 H699 0.931 . S
C711 C706 1.408 . S
C711 C710 1.400 . S
H712 C718 0.930 . S
H713 C721 0.931 . S
H714 C723 0.931 . S
H715 C725 0.930 . S
H716 C727 0.930 . S
H717 C729 0.931 . S
C718 H712 0.930 . S
C718 C719 1.380 . S
C718 C720 1.394 . S
C719 C718 1.380 . S
C719 C723 1.382 . S
C720 C718 1.394 . S
C720 C721 1.400 . S
C721 H713 0.931 . S
C721 C720 1.400 . S
C721 C722 1.375 . S
C722 C721 1.375 . S
C722 C723 1.415 . S
C722 C724 1.501 . S
C723 H714 0.931 . S
C723 C719 1.382 . S
C723 C722 1.415 . S
C724 C722 1.501 . S
C724 C725 1.384 . S
C724 C729 1.408 . S
C725 H715 0.930 . S
C725 C724 1.384 . S
C725 C726 1.389 . S
C726 C725 1.389 . S
C726 C727 1.405 . S
C727 H716 0.930 . S
C727 C726 1.405 . S
C727 C728 1.364 . S
C728 C727 1.364 . S
C728 C729 1.400 . S
C729 H717 0.931 . S
C729 C724 1.408 . S
C729 C728 1.400 . S
H730 C736 0.930 . S
H731 C739 0.931 . S
H732 C741 0.931 . S
H733 C743 0.930 . S
H734 C745 0.930 . S
H735 C747 0.931 . S
C736 H730 0.930 . S
C736 C737 1.380 . S
C736 C738 1.394 . S
C737 C736 1.380 . S
C737 C741 1.382 . S
C738 C736 1.394 . S
C738 C739 1.400 . S
C739 H731 0.931 . S
C739 C738 1.400 . S
C739 C740 1.375 . S
C740 C739 1.375 . S
C740 C741 1.415 . S
C740 C742 1.501 . S
C741 H732 0.931 . S
C741 C737 1.382 . S
C741 C740 1.415 . S
C742 C740 1.501 . S
C742 C743 1.384 . S
C742 C747 1.408 . S
C743 H733 0.930 . S
C743 C742 1.384 . S
C743 C744 1.389 . S
C744 C743 1.389 . S
C744 C745 1.405 . S
C745 H734 0.930 . S
C745 C744 1.405 . S
C745 C746 1.364 . S
C746 C745 1.364 . S
C746 C747 1.400 . S
C747 H735 0.931 . S
C747 C742 1.408 . S
C747 C746 1.400 . S
H748 C754 0.930 . S
H749 C757 0.931 . S
H750 C759 0.931 . S
H751 C761 0.930 . S
H752 C763 0.930 . S
H753 C765 0.931 . S
C754 H748 0.930 . S
C754 C755 1.380 . S
C754 C756 1.394 . S
C755 C754 1.380 . S
C755 C759 1.382 . S
C756 C754 1.394 . S
C756 C757 1.400 . S
C757 H749 0.931 . S
C757 C756 1.400 . S
C757 C758 1.375 . S
C758 C757 1.375 . S
C758 C759 1.415 . S
C758 C760 1.501 . S
C759 H750 0.931 . S
C759 C755 1.382 . S
C759 C758 1.415 . S
C760 C758 1.501 . S
C760 C761 1.384 . S
C760 C765 1.408 . S
C761 H751 0.930 . S
C761 C760 1.384 . S
C761 C762 1.389 . S
C762 C761 1.389 . S
C762 C763 1.405 . S
C763 H752 0.930 . S
C763 C762 1.405 . S
C763 C764 1.364 . S
C764 C763 1.364 . S
C764 C765 1.400 . S
C765 H753 0.931 . S
C765 C760 1.408 . S
C765 C764 1.400 . S
H766 C772 0.930 . S
H767 C775 0.931 . S
H768 C777 0.931 . S
H769 C779 0.930 . S
H770 C781 0.930 . S
H771 C783 0.931 . S
C772 H766 0.930 . S
C772 C773 1.380 . S
C772 C774 1.394 . S
C773 C772 1.380 . S
C773 C777 1.382 . S
C774 C772 1.394 . S
C774 C775 1.400 . S
C775 H767 0.931 . S
C775 C774 1.400 . S
C775 C776 1.375 . S
C776 C775 1.375 . S
C776 C777 1.415 . S
C776 C778 1.501 . S
C777 H768 0.931 . S
C777 C773 1.382 . S
C777 C776 1.415 . S
C778 C776 1.501 . S
C778 C779 1.384 . S
C778 C783 1.408 . S
C779 H769 0.930 . S
C779 C778 1.384 . S
C779 C780 1.389 . S
C780 C779 1.389 . S
C780 C781 1.405 . S
C781 H770 0.930 . S
C781 C780 1.405 . S
C781 C782 1.364 . S
C782 C781 1.364 . S
C782 C783 1.400 . S
C783 H771 0.931 . S
C783 C778 1.408 . S
C783 C782 1.400 . S
C784 C785 1.387 . S
C784 H788 0.950 . S
C784 C793 1.390 . S
C785 C784 1.387 . S
C785 C787 1.387 . S
H786 C793 0.950 . S
C787 C785 1.387 . S
C787 C789 1.390 . S
C787 H791 0.950 . S
H788 C784 0.950 . S
C789 C787 1.390 . S
C789 C790 1.387 . S
C789 H792 0.950 . S
C790 C789 1.387 . S
C790 C793 1.387 . S
H791 C787 0.950 . S
H792 C789 0.950 . S
C793 C784 1.390 . S
C793 H786 0.950 . S
C793 C790 1.387 . S
C794 C795 1.387 . S
C794 H798 0.950 . S
C794 C803 1.390 . S
C795 C794 1.387 . S
C795 C797 1.387 . S
H796 C803 0.950 . S
C797 C795 1.387 . S
C797 C799 1.390 . S
C797 H801 0.950 . S
H798 C794 0.950 . S
C799 C797 1.390 . S
C799 C800 1.387 . S
C799 H802 0.950 . S
C800 C799 1.387 . S
C800 C803 1.387 . S
H801 C797 0.950 . S
H802 C799 0.950 . S
C803 C794 1.390 . S
C803 H796 0.950 . S
C803 C800 1.387 . S
C804 C805 1.387 . S
C804 H808 0.950 . S
C804 C813 1.390 . S
C805 C804 1.387 . S
C805 C807 1.387 . S
H806 C813 0.950 . S
C807 C805 1.387 . S
C807 C809 1.390 . S
C807 H811 0.950 . S
H808 C804 0.950 . S
C809 C807 1.390 . S
C809 C810 1.387 . S
C809 H812 0.950 . S
C810 C809 1.387 . S
C810 C813 1.387 . S
H811 C807 0.950 . S
H812 C809 0.950 . S
C813 C804 1.390 . S
C813 H806 0.950 . S
C813 C810 1.387 . S
C814 C815 1.387 . S
C814 H818 0.950 . S
C814 C823 1.390 . S
C815 C814 1.387 . S
C815 C817 1.387 . S
H816 C823 0.950 . S
C817 C815 1.387 . S
C817 C819 1.390 . S
C817 H821 0.950 . S
H818 C814 0.950 . S
C819 C817 1.390 . S
C819 C820 1.387 . S
C819 H822 0.950 . S
C820 C819 1.387 . S
C820 C823 1.387 . S
H821 C817 0.950 . S
H822 C819 0.950 . S
C823 C814 1.390 . S
C823 H816 0.950 . S
C823 C820 1.387 . S
C824 C825 1.387 . S
C824 H828 0.950 . S
C824 C833 1.390 . S
C825 C824 1.387 . S
C825 C827 1.387 . S
H826 C833 0.950 . S
C827 C825 1.387 . S
C827 C829 1.390 . S
C827 H831 0.950 . S
H828 C824 0.950 . S
C829 C827 1.390 . S
C829 C830 1.387 . S
C829 H832 0.950 . S
C830 C829 1.387 . S
C830 C833 1.387 . S
H831 C827 0.950 . S
H832 C829 0.950 . S
C833 C824 1.390 . S
C833 H826 0.950 . S
C833 C830 1.387 . S
C834 C835 1.387 . S
C834 H838 0.950 . S
C834 C843 1.390 . S
C835 C834 1.387 . S
C835 C837 1.387 . S
H836 C843 0.950 . S
C837 C835 1.387 . S
C837 C839 1.390 . S
C837 H841 0.950 . S
H838 C834 0.950 . S
C839 C837 1.390 . S
C839 C840 1.387 . S
C839 H842 0.950 . S
C840 C839 1.387 . S
C840 C843 1.387 . S
H841 C837 0.950 . S
H842 C839 0.950 . S
C843 C834 1.390 . S
C843 H836 0.950 . S
C843 C840 1.387 . S
C844 C845 1.387 . S
C844 H848 0.950 . S
C844 C853 1.390 . S
C845 C844 1.387 . S
C845 C847 1.387 . S
H846 C853 0.950 . S
C847 C845 1.387 . S
C847 C849 1.390 . S
C847 H851 0.950 . S
H848 C844 0.950 . S
C849 C847 1.390 . S
C849 C850 1.387 . S
C849 H852 0.950 . S
C850 C849 1.387 . S
C850 C853 1.387 . S
H851 C847 0.950 . S
H852 C849 0.950 . S
C853 C844 1.390 . S
C853 H846 0.950 . S
C853 C850 1.387 . S
C854 C855 1.387 . S
C854 H858 0.950 . S
C854 C863 1.390 . S
C855 C854 1.387 . S
C855 C857 1.387 . S
H856 C863 0.950 . S
C857 C855 1.387 . S
C857 C859 1.390 . S
C857 H861 0.950 . S
H858 C854 0.950 . S
C859 C857 1.390 . S
C859 C860 1.387 . S
C859 H862 0.950 . S
C860 C859 1.387 . S
C860 C863 1.387 . S
H861 C857 0.950 . S
H862 C859 0.950 . S
C863 C854 1.390 . S
C863 H856 0.950 . S
C863 C860 1.387 . S
C864 C865 1.387 . S
C864 H868 0.950 . S
C864 C873 1.390 . S
C865 C864 1.387 . S
C865 C867 1.387 . S
H866 C873 0.950 . S
C867 C865 1.387 . S
C867 C869 1.390 . S
C867 H871 0.950 . S
H868 C864 0.950 . S
C869 C867 1.390 . S
C869 C870 1.387 . S
C869 H872 0.950 . S
C870 C869 1.387 . S
C870 C873 1.387 . S
H871 C867 0.950 . S
H872 C869 0.950 . S
C873 C864 1.390 . S
C873 H866 0.950 . S
C873 C870 1.387 . S
C874 C875 1.387 . S
C874 H878 0.950 . S
C874 C883 1.390 . S
C875 C874 1.387 . S
C875 C877 1.387 . S
H876 C883 0.950 . S
C877 C875 1.387 . S
C877 C879 1.390 . S
C877 H881 0.950 . S
H878 C874 0.950 . S
C879 C877 1.390 . S
C879 C880 1.387 . S
C879 H882 0.950 . S
C880 C879 1.387 . S
C880 C883 1.387 . S
H881 C877 0.950 . S
H882 C879 0.950 . S
C883 C874 1.390 . S
C883 H876 0.950 . S
C883 C880 1.387 . S
C884 C885 1.387 . S
C884 H888 0.950 . S
C884 C893 1.390 . S
C885 C884 1.387 . S
C885 C887 1.387 . S
H886 C893 0.950 1_455 S
C887 C885 1.387 . S
C887 C889 1.390 . S
C887 H891 0.950 . S
H888 C884 0.950 . S
C889 C887 1.390 . S
C889 C890 1.387 1_655 S
C889 H892 0.950 . S
C890 C889 1.387 1_455 S
C890 C893 1.387 1_455 S
H891 C887 0.950 . S
H892 C889 0.950 . S
C893 C884 1.390 . S
C893 H886 0.950 1_655 S
C893 C890 1.387 1_655 S
C894 C895 1.387 . S
C894 H898 0.950 . S
C894 C903 1.390 . S
C895 C894 1.387 . S
C895 C897 1.387 . S
H896 C903 0.950 . S
C897 C895 1.387 . S
C897 C899 1.390 . S
C897 H901 0.950 . S
H898 C894 0.950 . S
C899 C897 1.390 . S
C899 C900 1.387 . S
C899 H902 0.950 . S
C900 C899 1.387 . S
C900 C903 1.387 . S
H901 C897 0.950 . S
H902 C899 0.950 . S
C903 C894 1.390 . S
C903 H896 0.950 . S
C903 C900 1.387 . S
C904 C905 1.387 . S
C904 H908 0.950 . S
C904 C913 1.390 . S
C905 C904 1.387 . S
C905 C907 1.387 . S
H906 C913 0.950 . S
C907 C905 1.387 . S
C907 C909 1.390 . S
C907 H911 0.950 . S
H908 C904 0.950 . S
C909 C907 1.390 . S
C909 C910 1.387 . S
C909 H912 0.950 . S
C910 C909 1.387 . S
C910 C913 1.387 . S
H911 C907 0.950 . S
H912 C909 0.950 . S
C913 C904 1.390 . S
C913 H906 0.950 . S
C913 C910 1.387 . S
C914 C915 1.387 . S
C914 H918 0.950 . S
C914 C923 1.390 . S
C915 C914 1.387 . S
C915 C917 1.387 . S
H916 C923 0.950 . S
C917 C915 1.387 . S
C917 C919 1.390 . S
C917 H921 0.950 . S
H918 C914 0.950 . S
C919 C917 1.390 . S
C919 C920 1.387 . S
C919 H922 0.950 . S
C920 C919 1.387 . S
C920 C923 1.387 . S
H921 C917 0.950 . S
H922 C919 0.950 . S
C923 C914 1.390 . S
C923 H916 0.950 . S
C923 C920 1.387 . S
C924 C925 1.387 . S
C924 H928 0.950 . S
C924 C933 1.390 . S
C925 C924 1.387 . S
C925 C927 1.387 . S
H926 C933 0.950 . S
C927 C925 1.387 . S
C927 C929 1.390 . S
C927 H931 0.950 . S
H928 C924 0.950 . S
C929 C927 1.390 . S
C929 C930 1.387 . S
C929 H932 0.958 . S
C930 C929 1.387 . S
C930 C933 1.387 . S
H931 C927 0.950 . S
H932 C929 0.958 . S
C933 C924 1.390 . S
C933 H926 0.950 . S
C933 C930 1.387 . S
C934 C935 1.387 . S
C934 H938 0.950 . S
C934 C943 1.390 . S
C935 C934 1.387 . S
C935 C937 1.387 . S
H936 C943 0.950 . S
C937 C935 1.387 . S
C937 C939 1.390 . S
C937 H941 0.950 . S
H938 C934 0.950 . S
C939 C937 1.390 . S
C939 C940 1.387 . S
C939 H942 0.950 . S
C940 C939 1.387 . S
C940 C943 1.387 . S
H941 C937 0.950 . S
H942 C939 0.950 . S
C943 C934 1.390 . S
C943 H936 0.950 . S
C943 C940 1.387 . S
C944 C945 1.387 . S
C944 H948 0.950 . S
C944 C953 1.390 . S
C945 C944 1.387 . S
C945 C947 1.387 . S
H946 C953 0.950 . S
C947 C945 1.387 . S
C947 C949 1.390 . S
C947 H951 0.950 . S
H948 C944 0.950 . S
C949 C947 1.390 . S
C949 C950 1.387 . S
C949 H952 0.950 . S
C950 C949 1.387 . S
C950 C953 1.387 . S
H951 C947 0.950 . S
H952 C949 0.950 . S
C953 C944 1.390 . S
C953 H946 0.950 . S
C953 C950 1.387 . S
C954 C955 1.387 . S
C954 H958 0.950 . S
C954 C963 1.390 . S
C955 C954 1.387 . S
C955 C957 1.387 . S
H956 C963 0.950 . S
C957 C955 1.387 . S
C957 C959 1.390 . S
C957 H961 0.950 . S
H958 C954 0.950 . S
C959 C957 1.390 . S
C959 C960 1.387 . S
C959 H962 0.950 . S
C960 C959 1.387 . S
C960 C963 1.387 . S
H961 C957 0.950 . S
H962 C959 0.950 . S
C963 C954 1.390 . S
C963 H956 0.950 . S
C963 C960 1.387 . S
C964 C965 1.387 . S
C964 H968 0.950 . S
C964 C973 1.390 . S
C965 C964 1.387 . S
C965 C967 1.387 . S
H966 C973 0.950 . S
C967 C965 1.387 . S
C967 C969 1.390 . S
C967 H971 0.950 . S
H968 C964 0.950 . S
C969 C967 1.390 . S
C969 C970 1.387 . S
C969 H972 0.950 . S
C970 C969 1.387 . S
C970 C973 1.387 . S
H971 C967 0.950 . S
H972 C969 0.950 . S
C973 C964 1.390 . S
C973 H966 0.950 . S
C973 C970 1.387 . S
C974 C975 1.387 . S
C974 H978 0.950 . S
C974 C983 1.390 . S
C975 C974 1.387 . S
C975 C977 1.387 . S
H976 C983 0.950 . S
C977 C975 1.387 . S
C977 C979 1.390 . S
C977 H981 0.950 . S
H978 C974 0.950 . S
C979 C977 1.390 . S
C979 C980 1.387 . S
C979 H982 0.950 . S
C980 C979 1.387 . S
C980 C983 1.387 . S
H981 C977 0.950 . S
H982 C979 0.950 . S
C983 C974 1.390 . S
C983 H976 0.950 . S
C983 C980 1.387 . S
C984 C985 1.387 . S
C984 H988 0.950 . S
C984 C993 1.390 . S
C985 C984 1.387 . S
C985 C987 1.387 . S
H986 C993 0.950 . S
C987 C985 1.387 . S
C987 C989 1.390 . S
C987 H991 0.950 . S
H988 C984 0.950 . S
C989 C987 1.390 . S
C989 C990 1.387 . S
C989 H992 0.950 . S
C990 C989 1.387 . S
C990 C993 1.387 . S
H991 C987 0.950 . S
H992 C989 0.950 . S
C993 C984 1.390 . S
C993 H986 0.950 . S
C993 C990 1.387 . S
C994 C995 1.387 . S
C994 H998 0.950 . S
C994 C1003 1.390 . S
C995 C994 1.387 . S
C995 C997 1.387 . S
H996 C1003 0.950 . S
C997 C995 1.387 . S
C997 C999 1.390 . S
C997 H1001 0.950 . S
H998 C994 0.950 . S
C999 C997 1.390 . S
C999 C1000 1.387 . S
C999 H1002 0.950 . S
C1000 C999 1.387 . S
C1000 C1003 1.387 . S
H1001 C997 0.950 . S
H1002 C999 0.950 . S
C1003 C994 1.390 . S
C1003 H996 0.950 . S
C1003 C1000 1.387 . S
C1004 C1005 1.387 . S
C1004 H1008 0.950 . S
C1004 C1013 1.390 . S
C1005 C1004 1.387 . S
C1005 C1007 1.387 . S
H1006 C1013 0.950 . S
C1007 C1005 1.387 . S
C1007 C1009 1.390 . S
C1007 H1011 0.950 . S
H1008 C1004 0.950 . S
C1009 C1007 1.390 . S
C1009 C1010 1.387 . S
C1009 H1012 0.950 . S
C1010 C1009 1.387 . S
C1010 C1013 1.387 . S
H1011 C1007 0.950 . S
H1012 C1009 0.950 . S
C1013 C1004 1.390 . S
C1013 H1006 0.950 . S
C1013 C1010 1.387 . S
C1014 C1015 1.387 . S
C1014 H1018 0.950 . S
C1014 C1023 1.390 . S
C1015 C1014 1.387 . S
C1015 C1017 1.387 . S
H1016 C1023 0.950 . S
C1017 C1015 1.387 . S
C1017 C1019 1.390 . S
C1017 H1021 0.950 . S
H1018 C1014 0.950 . S
C1019 C1017 1.390 . S
C1019 C1020 1.387 . S
C1019 H1022 0.950 . S
C1020 C1019 1.387 . S
C1020 C1023 1.387 . S
H1021 C1017 0.950 . S
H1022 C1019 0.950 . S
C1023 C1014 1.390 . S
C1023 H1016 0.950 . S
C1023 C1020 1.387 . S
C1024 C1025 1.387 . S
C1024 H1028 0.950 . S
C1024 C1033 1.390 . S
C1025 C1024 1.387 . S
C1025 C1027 1.387 . S
H1026 C1033 0.950 . S
C1027 C1025 1.387 . S
C1027 C1029 1.390 . S
C1027 H1031 0.950 . S
H1028 C1024 0.950 . S
C1029 C1027 1.390 . S
C1029 C1030 1.387 . S
C1029 H1032 0.950 . S
C1030 C1029 1.387 . S
C1030 C1033 1.387 . S
H1031 C1027 0.950 . S
H1032 C1029 0.950 . S
C1033 C1024 1.390 . S
C1033 H1026 0.950 . S
C1033 C1030 1.387 . S
C1034 C1035 1.387 . S
C1034 H1038 0.950 . S
C1034 C1043 1.390 . S
C1035 C1034 1.387 . S
C1035 C1037 1.387 . S
H1036 C1043 0.950 . S
C1037 C1035 1.387 . S
C1037 C1039 1.390 . S
C1037 H1041 0.950 . S
H1038 C1034 0.950 . S
C1039 C1037 1.390 . S
C1039 C1040 1.387 . S
C1039 H1042 0.950 . S
C1040 C1039 1.387 . S
C1040 C1043 1.387 . S
H1041 C1037 0.950 . S
H1042 C1039 0.950 . S
C1043 C1034 1.390 . S
C1043 H1036 0.950 . S
C1043 C1040 1.387 . S
C1044 C1045 1.387 . S
C1044 H1048 0.950 . S
C1044 C1053 1.390 . S
C1045 C1044 1.387 . S
C1045 C1047 1.387 . S
H1046 C1053 0.950 . S
C1047 C1045 1.387 . S
C1047 C1049 1.390 . S
C1047 H1051 0.950 . S
H1048 C1044 0.950 . S
C1049 C1047 1.390 . S
C1049 C1050 1.387 . S
C1049 H1052 0.950 . S
C1050 C1049 1.387 . S
C1050 C1053 1.387 . S
H1051 C1047 0.950 . S
H1052 C1049 0.950 . S
C1053 C1044 1.390 . S
C1053 H1046 0.950 . S
C1053 C1050 1.387 . S
C1054 C1055 1.387 . S
C1054 H1058 0.950 . S
C1054 C1063 1.390 . S
C1055 C1054 1.387 . S
C1055 C1057 1.387 . S
H1056 C1063 0.950 . S
C1057 C1055 1.387 . S
C1057 C1059 1.390 . S
C1057 H1061 0.950 . S
H1058 C1054 0.950 . S
C1059 C1057 1.390 . S
C1059 C1060 1.387 . S
C1059 H1062 0.950 . S
C1060 C1059 1.387 . S
C1060 C1063 1.387 . S
H1061 C1057 0.950 . S
H1062 C1059 0.950 . S
C1063 C1054 1.390 . S
C1063 H1056 0.950 . S
C1063 C1060 1.387 . S
C1064 C1065 1.387 . S
C1064 H1068 0.950 . S
C1064 C1073 1.390 . S
C1065 C1064 1.387 . S
C1065 C1067 1.387 . S
H1066 C1073 0.950 . S
C1067 C1065 1.387 . S
C1067 C1069 1.390 . S
C1067 H1071 0.950 . S
H1068 C1064 0.950 . S
C1069 C1067 1.390 . S
C1069 C1070 1.387 . S
C1069 H1072 0.950 . S
C1070 C1069 1.387 . S
C1070 C1073 1.387 . S
H1071 C1067 0.950 . S
H1072 C1069 0.950 . S
C1073 C1064 1.390 . S
C1073 H1066 0.950 . S
C1073 C1070 1.387 . S
C1074 C1075 1.387 . S
C1074 H1078 0.950 . S
C1074 C1083 1.390 . S
C1075 C1074 1.387 . S
C1075 C1077 1.387 . S
H1076 C1083 0.950 . S
C1077 C1075 1.387 . S
C1077 C1079 1.390 . S
C1077 H1081 0.950 . S
H1078 C1074 0.950 . S
C1079 C1077 1.390 . S
C1079 C1080 1.387 . S
C1079 H1082 0.950 . S
C1080 C1079 1.387 . S
C1080 C1083 1.387 . S
H1081 C1077 0.950 . S
H1082 C1079 0.950 . S
C1083 C1074 1.390 . S
C1083 H1076 0.950 . S
C1083 C1080 1.387 . S
C1084 C1085 1.387 . S
C1084 H1088 0.950 . S
C1084 C1093 1.390 . S
C1085 C1084 1.387 . S
C1085 C1087 1.387 . S
H1086 C1093 0.950 . S
C1087 C1085 1.387 . S
C1087 C1089 1.390 . S
C1087 H1091 0.950 . S
H1088 C1084 0.950 . S
C1089 C1087 1.390 . S
C1089 C1090 1.387 . S
C1089 H1092 0.950 . S
C1090 C1089 1.387 . S
C1090 C1093 1.387 . S
H1091 C1087 0.950 . S
H1092 C1089 0.950 . S
C1093 C1084 1.390 . S
C1093 H1086 0.950 . S
C1093 C1090 1.387 . S
C1094 C1095 1.387 . S
C1094 H1098 0.950 . S
C1094 C1103 1.390 . S
C1095 C1094 1.387 . S
C1095 C1097 1.387 . S
H1096 C1103 0.950 . S
C1097 C1095 1.387 . S
C1097 C1099 1.390 . S
C1097 H1101 0.950 . S
H1098 C1094 0.950 . S
C1099 C1097 1.390 . S
C1099 C1100 1.387 . S
C1099 H1102 0.950 . S
C1100 C1099 1.387 . S
C1100 C1103 1.387 . S
H1101 C1097 0.950 . S
H1102 C1099 0.950 . S
C1103 C1094 1.390 . S
C1103 H1096 0.950 . S
C1103 C1100 1.387 . S
C1104 C1105 1.387 . S
C1104 H1108 0.950 . S
C1104 C1113 1.390 . S
C1105 C1104 1.387 . S
C1105 C1107 1.387 . S
H1106 C1113 0.950 . S
C1107 C1105 1.387 . S
C1107 C1109 1.390 . S
C1107 H1111 0.950 . S
H1108 C1104 0.950 . S
C1109 C1107 1.390 . S
C1109 C1110 1.387 . S
C1109 H1112 0.950 . S
C1110 C1109 1.387 . S
C1110 C1113 1.387 . S
H1111 C1107 0.950 . S
H1112 C1109 0.950 . S
C1113 C1104 1.390 . S
C1113 H1106 0.950 . S
C1113 C1110 1.387 . S
C1114 C1115 1.387 . S
C1114 H1118 0.950 . S
C1114 C1123 1.390 . S
C1115 C1114 1.387 . S
C1115 C1117 1.387 . S
H1116 C1123 0.950 . S
C1117 C1115 1.387 . S
C1117 C1119 1.390 . S
C1117 H1121 0.950 . S
H1118 C1114 0.950 . S
C1119 C1117 1.390 . S
C1119 C1120 1.387 . S
C1119 H1122 0.950 . S
C1120 C1119 1.387 . S
C1120 C1123 1.387 . S
H1121 C1117 0.950 . S
H1122 C1119 0.950 . S
C1123 C1114 1.390 . S
C1123 H1116 0.950 . S
C1123 C1120 1.387 . S
C1124 C1125 1.387 . S
C1124 H1128 0.950 . S
C1124 C1133 1.390 . S
C1125 C1124 1.387 . S
C1125 C1127 1.387 . S
H1126 C1133 0.950 . S
C1127 C1125 1.387 . S
C1127 C1129 1.390 . S
C1127 H1131 0.950 . S
H1128 C1124 0.950 . S
C1129 C1127 1.390 . S
C1129 C1130 1.387 1_655 S
C1129 H1132 0.950 1_655 S
C1130 C1129 1.387 1_455 S
C1130 C1133 1.387 1_455 S
H1131 C1127 0.950 . S
H1132 C1129 0.950 1_455 S
C1133 C1124 1.390 . S
C1133 H1126 0.950 . S
C1133 C1130 1.387 1_655 S
C1134 C1135 1.387 . S
C1134 H1138 0.950 . S
C1134 C1143 1.390 . S
C1135 C1134 1.387 . S
C1135 C1137 1.387 . S
H1136 C1143 0.950 . S
C1137 C1135 1.387 . S
C1137 C1139 1.390 . S
C1137 H1141 0.950 . S
H1138 C1134 0.950 . S
C1139 C1137 1.390 . S
C1139 C1140 1.387 . S
C1139 H1142 0.950 . S
C1140 C1139 1.387 . S
C1140 C1143 1.387 . S
H1141 C1137 0.950 . S
H1142 C1139 0.950 . S
C1143 C1134 1.390 . S
C1143 H1136 0.950 . S
C1143 C1140 1.387 . S
C1144 C1145 1.387 . S
C1144 H1148 0.950 . S
C1144 C1153 1.390 . S
C1145 C1144 1.387 . S
C1145 C1147 1.387 . S
H1146 C1153 0.950 . S
C1147 C1145 1.387 . S
C1147 C1149 1.390 . S
C1147 H1151 0.950 . S
H1148 C1144 0.950 . S
C1149 C1147 1.390 . S
C1149 C1150 1.387 . S
C1149 H1152 0.950 . S
C1150 C1149 1.387 . S
C1150 C1153 1.387 . S
H1151 C1147 0.950 . S
H1152 C1149 0.950 . S
C1153 C1144 1.390 . S
C1153 H1146 0.950 . S
C1153 C1150 1.387 . S
C1154 C1155 1.387 . S
C1154 H1158 0.950 . S
C1154 C1163 1.390 . S
C1155 C1154 1.387 . S
C1155 C1157 1.387 . S
H1156 C1163 0.950 . S
C1157 C1155 1.387 . S
C1157 C1159 1.390 . S
C1157 H1161 0.950 . S
H1158 C1154 0.950 . S
C1159 C1157 1.390 . S
C1159 C1160 1.387 . S
C1159 H1162 0.950 . S
C1160 C1159 1.387 . S
C1160 C1163 1.387 . S
H1161 C1157 0.950 . S
H1162 C1159 0.950 . S
C1163 C1154 1.390 . S
C1163 H1156 0.950 . S
C1163 C1160 1.387 . S
C1164 C1165 1.387 . S
C1164 H1168 0.950 . S
C1164 C1173 1.390 . S
C1165 C1164 1.387 . S
C1165 C1167 1.387 . S
H1166 C1173 0.950 . S
C1167 C1165 1.387 . S
C1167 C1169 1.390 . S
C1167 H1171 0.950 . S
H1168 C1164 0.950 . S
C1169 C1167 1.390 . S
C1169 C1170 1.387 . S
C1169 H1172 0.950 . S
C1170 C1169 1.387 . S
C1170 C1173 1.387 . S
H1171 C1167 0.950 . S
H1172 C1169 0.950 . S
C1173 C1164 1.390 . S
C1173 H1166 0.950 . S
C1173 C1170 1.387 . S
C1174 C1175 1.387 . S
C1174 H1178 0.950 . S
C1174 C1183 1.390 . S
C1175 C1174 1.387 . S
C1175 C1177 1.387 . S
H1176 C1183 0.950 . S
C1177 C1175 1.387 . S
C1177 C1179 1.390 . S
C1177 H1181 0.950 . S
H1178 C1174 0.950 . S
C1179 C1177 1.390 . S
C1179 C1180 1.387 . S
C1179 H1182 0.950 . S
C1180 C1179 1.387 . S
C1180 C1183 1.387 . S
H1181 C1177 0.950 . S
H1182 C1179 0.950 . S
C1183 C1174 1.390 . S
C1183 H1176 0.950 . S
C1183 C1180 1.387 . S
C1184 C1185 1.387 . S
C1184 H1188 0.950 . S
C1184 C1193 1.390 . S
C1185 C1184 1.387 . S
C1185 C1187 1.387 . S
H1186 C1193 0.950 . S
C1187 C1185 1.387 . S
C1187 C1189 1.390 . S
C1187 H1191 0.950 . S
H1188 C1184 0.950 . S
C1189 C1187 1.390 . S
C1189 C1190 1.387 . S
C1189 H1192 0.950 . S
C1190 C1189 1.387 . S
C1190 C1193 1.387 . S
H1191 C1187 0.950 . S
H1192 C1189 0.950 . S
C1193 C1184 1.390 . S
C1193 H1186 0.950 . S
C1193 C1190 1.387 . S
C1194 C1195 1.387 . S
C1194 H1198 0.950 . S
C1194 C1203 1.390 . S
C1195 C1194 1.387 . S
C1195 C1197 1.387 . S
H1196 C1203 0.950 . S
C1197 C1195 1.387 . S
C1197 C1199 1.390 . S
C1197 H1201 0.950 . S
H1198 C1194 0.950 . S
C1199 C1197 1.390 . S
C1199 C1200 1.387 . S
C1199 H1202 0.950 . S
C1200 C1199 1.387 . S
C1200 C1203 1.387 . S
H1201 C1197 0.950 . S
H1202 C1199 0.950 . S
C1203 C1194 1.390 . S
C1203 H1196 0.950 . S
C1203 C1200 1.387 . S
C1204 C1205 1.387 . S
C1204 H1208 0.950 . S
C1204 C1213 1.390 . S
C1205 C1204 1.387 . S
C1205 C1207 1.387 . S
H1206 C1213 0.950 . S
C1207 C1205 1.387 . S
C1207 C1209 1.390 . S
C1207 H1211 0.950 . S
H1208 C1204 0.950 . S
C1209 C1207 1.390 . S
C1209 C1210 1.387 . S
C1209 H1212 0.950 . S
C1210 C1209 1.387 . S
C1210 C1213 1.387 . S
H1211 C1207 0.950 . S
H1212 C1209 0.950 . S
C1213 C1204 1.390 . S
C1213 H1206 0.950 . S
C1213 C1210 1.387 . S
C1214 C1215 1.387 . S
C1214 H1218 0.950 . S
C1214 C1223 1.390 . S
C1215 C1214 1.387 . S
C1215 C1217 1.387 . S
H1216 C1223 0.950 . S
C1217 C1215 1.387 . S
C1217 C1219 1.390 . S
C1217 H1221 0.950 . S
H1218 C1214 0.950 . S
C1219 C1217 1.390 . S
C1219 C1220 1.387 . S
C1219 H1222 0.950 . S
C1220 C1219 1.387 . S
C1220 C1223 1.387 . S
H1221 C1217 0.950 . S
H1222 C1219 0.950 . S
C1223 C1214 1.390 . S
C1223 H1216 0.950 . S
C1223 C1220 1.387 . S
C1224 C1225 1.387 . S
C1224 H1228 0.950 . S
C1224 C1233 1.390 . S
C1225 C1224 1.387 . S
C1225 C1227 1.387 . S
H1226 C1233 0.950 . S
C1227 C1225 1.387 . S
C1227 C1229 1.390 . S
C1227 H1231 0.950 . S
H1228 C1224 0.950 . S
C1229 C1227 1.390 . S
C1229 C1230 1.387 . S
C1229 H1232 0.950 . S
C1230 C1229 1.387 . S
C1230 C1233 1.387 . S
H1231 C1227 0.950 . S
H1232 C1229 0.950 . S
C1233 C1224 1.390 . S
C1233 H1226 0.950 . S
C1233 C1230 1.387 . S
C1234 C1235 1.387 . S
C1234 H1238 0.950 . S
C1234 C1243 1.390 . S
C1235 C1234 1.387 . S
C1235 C1237 1.387 . S
H1236 C1243 0.950 . S
C1237 C1235 1.387 . S
C1237 C1239 1.390 . S
C1237 H1241 0.950 . S
H1238 C1234 0.950 . S
C1239 C1237 1.390 . S
C1239 C1240 1.387 . S
C1239 H1242 0.950 . S
C1240 C1239 1.387 . S
C1240 C1243 1.387 . S
H1241 C1237 0.950 . S
H1242 C1239 0.950 . S
C1243 C1234 1.390 . S
C1243 H1236 0.950 . S
C1243 C1240 1.387 . S
C1244 C1245 1.387 . S
C1244 H1248 0.950 . S
C1244 C1253 1.390 . S
C1245 C1244 1.387 . S
C1245 C1247 1.387 . S
H1246 C1253 0.950 . S
C1247 C1245 1.387 . S
C1247 C1249 1.390 . S
C1247 H1251 0.950 . S
H1248 C1244 0.950 . S
C1249 C1247 1.390 . S
C1249 C1250 1.387 . S
C1249 H1252 0.950 . S
C1250 C1249 1.387 . S
C1250 C1253 1.387 . S
H1251 C1247 0.950 . S
H1252 C1249 0.950 . S
C1253 C1244 1.390 . S
C1253 H1246 0.950 . S
C1253 C1250 1.387 . S
C1254 C1255 1.387 . S
C1254 H1258 0.950 . S
C1254 C1263 1.390 . S
C1255 C1254 1.387 . S
C1255 C1257 1.387 . S
H1256 C1263 0.950 . S
C1257 C1255 1.387 . S
C1257 C1259 1.390 . S
C1257 H1261 0.950 . S
H1258 C1254 0.950 . S
C1259 C1257 1.390 . S
C1259 C1260 1.387 . S
C1259 H1262 0.950 . S
C1260 C1259 1.387 . S
C1260 C1263 1.387 . S
H1261 C1257 0.950 . S
H1262 C1259 0.950 . S
C1263 C1254 1.390 . S
C1263 H1256 0.950 . S
C1263 C1260 1.387 . S
C1264 C1265 1.387 . S
C1264 H1268 0.950 . S
C1264 C1273 1.390 . S
C1265 C1264 1.387 . S
C1265 C1267 1.387 . S
H1266 C1273 0.950 . S
C1267 C1265 1.387 . S
C1267 C1269 1.390 . S
C1267 H1271 0.950 . S
H1268 C1264 0.950 . S
C1269 C1267 1.390 . S
C1269 C1270 1.387 . S
C1269 H1272 0.950 . S
C1270 C1269 1.387 . S
C1270 C1273 1.387 . S
H1271 C1267 0.950 . S
H1272 C1269 0.950 . S
C1273 C1264 1.390 . S
C1273 H1266 0.950 . S
C1273 C1270 1.387 . S
C1274 C1275 1.387 . S
C1274 H1278 0.950 . S
C1274 C1283 1.390 . S
C1275 C1274 1.387 . S
C1275 C1277 1.387 . S
H1276 C1283 0.950 . S
C1277 C1275 1.387 . S
C1277 C1279 1.390 . S
C1277 H1281 0.950 . S
H1278 C1274 0.950 . S
C1279 C1277 1.390 . S
C1279 C1280 1.387 . S
C1279 H1282 0.950 . S
C1280 C1279 1.387 . S
C1280 C1283 1.387 . S
H1281 C1277 0.950 . S
H1282 C1279 0.950 . S
C1283 C1274 1.390 . S
C1283 H1276 0.950 . S
C1283 C1280 1.387 . S
C1284 C1285 1.387 . S
C1284 H1288 0.950 . S
C1284 C1293 1.390 . S
C1285 C1284 1.387 . S
C1285 C1287 1.387 . S
H1286 C1293 0.950 . S
C1287 C1285 1.387 . S
C1287 C1289 1.390 . S
C1287 H1291 0.950 . S
H1288 C1284 0.950 . S
C1289 C1287 1.390 . S
C1289 C1290 1.387 . S
C1289 H1292 0.950 . S
C1290 C1289 1.387 . S
C1290 C1293 1.387 . S
H1291 C1287 0.950 . S
H1292 C1289 0.950 . S
C1293 C1284 1.390 . S
C1293 H1286 0.950 . S
C1293 C1290 1.387 . S
C1294 C1295 1.387 . S
C1294 H1298 0.950 . S
C1294 C1303 1.390 . S
C1295 C1294 1.387 . S
C1295 C1297 1.387 . S
H1296 C1303 0.950 . S
C1297 C1295 1.387 . S
C1297 C1299 1.390 . S
C1297 H1301 0.950 . S
H1298 C1294 0.950 . S
C1299 C1297 1.390 . S
C1299 C1300 1.387 . S
C1299 H1302 0.950 . S
C1300 C1299 1.387 . S
C1300 C1303 1.387 . S
H1301 C1297 0.950 . S
H1302 C1299 0.950 . S
C1303 C1294 1.390 . S
C1303 H1296 0.950 . S
C1303 C1300 1.387 . S
C1304 C1305 1.387 . S
C1304 H1308 0.950 . S
C1304 C1313 1.390 . S
C1305 C1304 1.387 . S
C1305 C1307 1.387 . S
H1306 C1313 0.950 . S
C1307 C1305 1.387 . S
C1307 C1309 1.390 . S
C1307 H1311 0.950 . S
H1308 C1304 0.950 . S
C1309 C1307 1.390 . S
C1309 C1310 1.387 . S
C1309 H1312 0.950 . S
C1310 C1309 1.387 . S
C1310 C1313 1.387 . S
H1311 C1307 0.950 . S
H1312 C1309 0.950 . S
C1313 C1304 1.390 . S
C1313 H1306 0.950 . S
C1313 C1310 1.387 . S
C1314 C1315 1.387 . S
C1314 H1318 0.950 . S
C1314 C1323 1.390 . S
C1315 C1314 1.387 . S
C1315 C1317 1.387 . S
H1316 C1323 0.950 . S
C1317 C1315 1.387 . S
C1317 C1319 1.390 . S
C1317 H1321 0.950 . S
H1318 C1314 0.950 . S
C1319 C1317 1.390 . S
C1319 C1320 1.387 . S
C1319 H1322 0.950 . S
C1320 C1319 1.387 . S
C1320 C1323 1.387 . S
H1321 C1317 0.950 . S
H1322 C1319 0.950 . S
C1323 C1314 1.390 . S
C1323 H1316 0.950 . S
C1323 C1320 1.387 . S
C1324 C1325 1.387 . S
C1324 H1328 0.950 . S
C1324 C1333 1.390 . S
C1325 C1324 1.387 . S
C1325 C1327 1.387 . S
H1326 C1333 0.950 . S
C1327 C1325 1.387 . S
C1327 C1329 1.390 . S
C1327 H1331 0.950 . S
H1328 C1324 0.950 . S
C1329 C1327 1.390 . S
C1329 C1330 1.387 . S
C1329 H1332 0.950 . S
C1330 C1329 1.387 . S
C1330 C1333 1.387 . S
H1331 C1327 0.950 . S
H1332 C1329 0.950 . S
C1333 C1324 1.390 . S
C1333 H1326 0.950 . S
C1333 C1330 1.387 . S
C1334 C1335 1.387 . S
C1334 H1338 0.950 . S
C1334 C1343 1.390 . S
C1335 C1334 1.387 . S
C1335 C1337 1.387 . S
H1336 C1343 0.950 . S
C1337 C1335 1.387 . S
C1337 C1339 1.390 . S
C1337 H1341 0.950 . S
H1338 C1334 0.950 . S
C1339 C1337 1.390 . S
C1339 C1340 1.387 . S
C1339 H1342 0.950 . S
C1340 C1339 1.387 . S
C1340 C1343 1.387 . S
H1341 C1337 0.950 . S
H1342 C1339 0.950 . S
C1343 C1334 1.390 . S
C1343 H1336 0.950 . S
C1343 C1340 1.387 . S
C1344 C1345 1.387 . S
C1344 H1348 0.950 . S
C1344 C1353 1.390 . S
C1345 C1344 1.387 . S
C1345 C1347 1.387 . S
H1346 C1353 0.950 . S
C1347 C1345 1.387 . S
C1347 C1349 1.390 . S
C1347 H1351 0.950 . S
H1348 C1344 0.950 . S
C1349 C1347 1.390 . S
C1349 C1350 1.387 . S
C1349 H1352 0.950 . S
C1350 C1349 1.387 . S
C1350 C1353 1.387 . S
H1351 C1347 0.950 . S
H1352 C1349 0.950 . S
C1353 C1344 1.390 . S
C1353 H1346 0.950 . S
C1353 C1350 1.387 . S
C1354 C1355 1.387 . S
C1354 H1358 0.950 . S
C1354 C1363 1.390 . S
C1355 C1354 1.387 . S
C1355 C1357 1.387 . S
H1356 C1363 0.950 . S
C1357 C1355 1.387 . S
C1357 C1359 1.390 . S
C1357 H1361 0.950 . S
H1358 C1354 0.950 . S
C1359 C1357 1.390 . S
C1359 C1360 1.387 . S
C1359 H1362 0.950 . S
C1360 C1359 1.387 . S
C1360 C1363 1.387 . S
H1361 C1357 0.950 . S
H1362 C1359 0.950 . S
C1363 C1354 1.390 . S
C1363 H1356 0.950 . S
C1363 C1360 1.387 . S
C1364 C1365 1.387 . S
C1364 H1368 0.950 . S
C1364 C1373 1.390 . S
C1365 C1364 1.387 . S
C1365 C1367 1.387 . S
H1366 C1373 0.950 . S
C1367 C1365 1.387 . S
C1367 C1369 1.390 . S
C1367 H1371 0.950 . S
H1368 C1364 0.950 . S
C1369 C1367 1.390 . S
C1369 C1370 1.387 . S
C1369 H1372 0.950 . S
C1370 C1369 1.387 . S
C1370 C1373 1.387 . S
H1371 C1367 0.950 . S
H1372 C1369 0.950 . S
C1373 C1364 1.390 . S
C1373 H1366 0.950 . S
C1373 C1370 1.387 . S
C1374 C1375 1.387 . S
C1374 H1378 0.950 . S
C1374 C1383 1.390 . S
C1375 C1374 1.387 . S
C1375 C1377 1.387 . S
H1376 C1383 0.950 . S
C1377 C1375 1.387 . S
C1377 C1379 1.390 . S
C1377 H1381 0.950 . S
H1378 C1374 0.950 . S
C1379 C1377 1.390 . S
C1379 C1380 1.387 . S
C1379 H1382 0.950 . S
C1380 C1379 1.387 . S
C1380 C1383 1.387 . S
H1381 C1377 0.950 . S
H1382 C1379 0.950 . S
C1383 C1374 1.390 . S
C1383 H1376 0.950 . S
C1383 C1380 1.387 . S
C1384 C1385 1.387 . S
C1384 H1388 0.950 . S
C1384 C1393 1.390 . S
C1385 C1384 1.387 . S
C1385 C1387 1.387 . S
H1386 C1393 0.950 . S
C1387 C1385 1.387 . S
C1387 C1389 1.390 . S
C1387 H1391 0.950 . S
H1388 C1384 0.950 . S
C1389 C1387 1.390 . S
C1389 C1390 1.387 . S
C1389 H1392 0.950 . S
C1390 C1389 1.387 . S
C1390 C1393 1.387 . S
H1391 C1387 0.950 . S
H1392 C1389 0.950 . S
C1393 C1384 1.390 . S
C1393 H1386 0.950 . S
C1393 C1390 1.387 . S
C1394 C1395 1.387 . S
C1394 H1398 0.950 . S
C1394 C1403 1.390 . S
C1395 C1394 1.387 . S
C1395 C1397 1.387 . S
H1396 C1403 0.950 . S
C1397 C1395 1.387 . S
C1397 C1399 1.390 . S
C1397 H1401 0.950 . S
H1398 C1394 0.950 . S
C1399 C1397 1.390 . S
C1399 C1400 1.387 . S
C1399 H1402 0.950 . S
C1400 C1399 1.387 . S
C1400 C1403 1.387 . S
H1401 C1397 0.950 . S
H1402 C1399 0.950 . S
C1403 C1394 1.390 . S
C1403 H1396 0.950 . S
C1403 C1400 1.387 . S
C1404 C1405 1.387 . S
C1404 H1408 0.950 . S
C1404 C1413 1.390 . S
C1405 C1404 1.387 . S
C1405 C1407 1.387 . S
H1406 C1413 0.950 . S
C1407 C1405 1.387 . S
C1407 C1409 1.390 . S
C1407 H1411 0.950 . S
H1408 C1404 0.950 . S
C1409 C1407 1.390 . S
C1409 C1410 1.387 . S
C1409 H1412 0.950 . S
C1410 C1409 1.387 . S
C1410 C1413 1.387 . S
H1411 C1407 0.950 . S
H1412 C1409 0.950 . S
C1413 C1404 1.390 . S
C1413 H1406 0.950 . S
C1413 C1410 1.387 . S
C1414 C1415 1.387 . S
C1414 H1418 0.950 . S
C1414 C1423 1.390 . S
C1415 C1414 1.387 . S
C1415 C1417 1.387 . S
H1416 C1423 0.950 . S
C1417 C1415 1.387 . S
C1417 C1419 1.390 . S
C1417 H1421 0.950 . S
H1418 C1414 0.950 . S
C1419 C1417 1.390 . S
C1419 C1420 1.387 . S
C1419 H1422 0.950 . S
C1420 C1419 1.387 . S
C1420 C1423 1.387 . S
H1421 C1417 0.950 . S
H1422 C1419 0.950 . S
C1423 C1414 1.390 . S
C1423 H1416 0.950 . S
C1423 C1420 1.387 . S
C1424 C1425 1.387 . S
C1424 H1428 0.950 . S
C1424 C1433 1.390 . S
C1425 C1424 1.387 . S
C1425 C1427 1.387 . S
H1426 C1433 0.950 . S
C1427 C1425 1.387 . S
C1427 C1429 1.390 . S
C1427 H1431 0.950 . S
H1428 C1424 0.950 . S
C1429 C1427 1.390 . S
C1429 C1430 1.387 . S
C1429 H1432 0.950 . S
C1430 C1429 1.387 . S
C1430 C1433 1.387 . S
H1431 C1427 0.950 . S
H1432 C1429 0.950 . S
C1433 C1424 1.390 . S
C1433 H1426 0.950 . S
C1433 C1430 1.387 . S
C1434 C1435 1.387 . S
C1434 H1438 0.950 . S
C1434 C1443 1.390 . S
C1435 C1434 1.387 . S
C1435 C1437 1.387 . S
H1436 C1443 0.950 . S
C1437 C1435 1.387 . S
C1437 C1439 1.390 . S
C1437 H1441 0.950 . S
H1438 C1434 0.950 . S
C1439 C1437 1.390 . S
C1439 C1440 1.387 . S
C1439 H1442 0.950 . S
C1440 C1439 1.387 . S
C1440 C1443 1.387 . S
H1441 C1437 0.950 . S
H1442 C1439 0.950 . S
C1443 C1434 1.390 . S
C1443 H1436 0.950 . S
C1443 C1440 1.387 . S
C1444 C1445 1.387 . S
C1444 H1448 0.950 . S
C1444 C1453 1.390 . S
C1445 C1444 1.387 . S
C1445 C1447 1.387 . S
H1446 C1453 0.950 . S
C1447 C1445 1.387 . S
C1447 C1449 1.390 . S
C1447 H1451 0.950 . S
H1448 C1444 0.950 . S
C1449 C1447 1.390 . S
C1449 C1450 1.387 . S
C1449 H1452 0.950 . S
C1450 C1449 1.387 . S
C1450 C1453 1.387 . S
H1451 C1447 0.950 . S
H1452 C1449 0.950 . S
C1453 C1444 1.390 . S
C1453 H1446 0.950 . S
C1453 C1450 1.387 . S
C1454 C1455 1.387 . S
C1454 H1458 0.950 . S
C1454 C1463 1.390 . S
C1455 C1454 1.387 . S
C1455 C1457 1.387 . S
H1456 C1463 0.950 . S
C1457 C1455 1.387 . S
C1457 C1459 1.390 . S
C1457 H1461 0.950 . S
H1458 C1454 0.950 . S
C1459 C1457 1.390 . S
C1459 C1460 1.387 . S
C1459 H1462 0.950 . S
C1460 C1459 1.387 . S
C1460 C1463 1.387 . S
H1461 C1457 0.950 . S
H1462 C1459 0.950 . S
C1463 C1454 1.390 . S
C1463 H1456 0.950 . S
C1463 C1460 1.387 . S
C1464 C1465 1.387 . S
C1464 H1468 0.950 . S
C1464 C1473 1.390 . S
C1465 C1464 1.387 . S
C1465 C1467 1.387 . S
H1466 C1473 0.950 . S
C1467 C1465 1.387 . S
C1467 C1469 1.390 . S
C1467 H1471 0.950 . S
H1468 C1464 0.950 . S
C1469 C1467 1.390 . S
C1469 C1470 1.387 . S
C1469 H1472 0.950 . S
C1470 C1469 1.387 . S
C1470 C1473 1.387 . S
H1471 C1467 0.950 . S
H1472 C1469 0.950 . S
C1473 C1464 1.390 . S
C1473 H1466 0.950 . S
C1473 C1470 1.387 . S
C1474 C1475 1.387 . S
C1474 H1478 0.950 . S
C1474 C1483 1.390 . S
C1475 C1474 1.387 . S
C1475 C1477 1.387 . S
H1476 C1483 0.950 . S
C1477 C1475 1.387 . S
C1477 C1479 1.390 . S
C1477 H1481 0.950 . S
H1478 C1474 0.950 . S
C1479 C1477 1.390 . S
C1479 C1480 1.387 . S
C1479 H1482 0.950 . S
C1480 C1479 1.387 . S
C1480 C1483 1.387 . S
H1481 C1477 0.950 . S
H1482 C1479 0.950 . S
C1483 C1474 1.390 . S
C1483 H1476 0.950 . S
C1483 C1480 1.387 . S
C1484 C1485 1.387 . S
C1484 H1488 0.950 . S
C1484 C1493 1.390 . S
C1485 C1484 1.387 . S
C1485 C1487 1.387 . S
H1486 C1493 0.950 . S
C1487 C1485 1.387 . S
C1487 C1489 1.390 . S
C1487 H1491 0.950 . S
H1488 C1484 0.950 . S
C1489 C1487 1.390 . S
C1489 C1490 1.387 . S
C1489 H1492 0.950 . S
C1490 C1489 1.387 . S
C1490 C1493 1.387 . S
H1491 C1487 0.950 . S
H1492 C1489 0.950 . S
C1493 C1484 1.390 . S
C1493 H1486 0.950 . S
C1493 C1490 1.387 . S
C1494 C1495 1.387 . S
C1494 H1498 0.950 . S
C1494 C1503 1.390 . S
C1495 C1494 1.387 . S
C1495 C1497 1.387 . S
H1496 C1503 0.950 . S
C1497 C1495 1.387 . S
C1497 C1499 1.390 . S
C1497 H1501 0.950 . S
H1498 C1494 0.950 . S
C1499 C1497 1.390 . S
C1499 C1500 1.387 . S
C1499 H1502 0.950 . S
C1500 C1499 1.387 . S
C1500 C1503 1.387 . S
H1501 C1497 0.950 . S
H1502 C1499 0.950 . S
C1503 C1494 1.390 . S
C1503 H1496 0.950 . S
C1503 C1500 1.387 . S
C1504 C1505 1.387 . S
C1504 H1508 0.950 . S
C1504 C1513 1.390 . S
C1505 C1504 1.387 . S
C1505 C1507 1.387 . S
H1506 C1513 0.950 . S
C1507 C1505 1.387 . S
C1507 C1509 1.390 . S
C1507 H1511 0.950 . S
H1508 C1504 0.950 . S
C1509 C1507 1.390 . S
C1509 C1510 1.387 . S
C1509 H1512 0.950 . S
C1510 C1509 1.387 . S
C1510 C1513 1.387 . S
H1511 C1507 0.950 . S
H1512 C1509 0.950 . S
C1513 C1504 1.390 . S
C1513 H1506 0.950 . S
C1513 C1510 1.387 . S
C1514 C1515 1.387 . S
C1514 H1518 0.950 . S
C1514 C1523 1.390 . S
C1515 C1514 1.387 . S
C1515 C1517 1.387 . S
H1516 C1523 0.950 . S
C1517 C1515 1.387 . S
C1517 C1519 1.390 . S
C1517 H1521 0.950 . S
H1518 C1514 0.950 . S
C1519 C1517 1.390 . S
C1519 C1520 1.387 . S
C1519 H1522 0.950 . S
C1520 C1519 1.387 . S
C1520 C1523 1.387 . S
H1521 C1517 0.950 . S
H1522 C1519 0.950 . S
C1523 C1514 1.390 . S
C1523 H1516 0.950 . S
C1523 C1520 1.387 . S
C1524 C1525 1.387 . S
C1524 H1528 0.950 . S
C1524 C1533 1.390 . S
C1525 C1524 1.387 . S
C1525 C1527 1.387 . S
H1526 C1533 0.950 . S
C1527 C1525 1.387 . S
C1527 C1529 1.390 . S
C1527 H1531 0.950 . S
H1528 C1524 0.950 . S
C1529 C1527 1.390 . S
C1529 C1530 1.387 . S
C1529 H1532 0.950 . S
C1530 C1529 1.387 . S
C1530 C1533 1.387 . S
H1531 C1527 0.950 . S
H1532 C1529 0.950 . S
C1533 C1524 1.390 . S
C1533 H1526 0.950 . S
C1533 C1530 1.387 . S
C1534 C1535 1.387 . S
C1534 H1538 0.950 . S
C1534 C1543 1.390 . S
C1535 C1534 1.387 . S
C1535 C1537 1.387 . S
H1536 C1543 0.950 . S
C1537 C1535 1.387 . S
C1537 C1539 1.390 . S
C1537 H1541 0.950 . S
H1538 C1534 0.950 . S
C1539 C1537 1.390 . S
C1539 C1540 1.387 . S
C1539 H1542 0.950 . S
C1540 C1539 1.387 . S
C1540 C1543 1.387 . S
H1541 C1537 0.950 . S
H1542 C1539 0.950 . S
C1543 C1534 1.390 . S
C1543 H1536 0.950 . S
C1543 C1540 1.387 . S
C1544 C1545 1.387 . S
C1544 H1548 0.950 . S
C1544 C1553 1.390 . S
C1545 C1544 1.387 . S
C1545 C1547 1.387 . S
H1546 C1553 0.950 . S
C1547 C1545 1.387 . S
C1547 C1549 1.390 . S
C1547 H1551 0.950 . S
H1548 C1544 0.950 . S
C1549 C1547 1.390 . S
C1549 C1550 1.387 . S
C1549 H1552 0.950 . S
C1550 C1549 1.387 . S
C1550 C1553 1.387 . S
H1551 C1547 0.950 . S
H1552 C1549 0.950 . S
C1553 C1544 1.390 . S
C1553 H1546 0.950 . S
C1553 C1550 1.387 . S
C1554 C1555 1.387 . S
C1554 H1558 0.950 . S
C1554 C1563 1.390 . S
C1555 C1554 1.387 . S
C1555 C1557 1.387 . S
H1556 C1563 0.950 . S
C1557 C1555 1.387 . S
C1557 C1559 1.390 . S
C1557 H1561 0.950 . S
H1558 C1554 0.950 . S
C1559 C1557 1.390 . S
C1559 C1560 1.387 . S
C1559 H1562 0.950 . S
C1560 C1559 1.387 . S
C1560 C1563 1.387 . S
H1561 C1557 0.950 . S
H1562 C1559 0.950 . S
C1563 C1554 1.390 . S
C1563 H1556 0.950 . S
C1563 C1560 1.387 . S
C1564 C1565 1.387 . S
C1564 H1568 0.950 . S
C1564 C1573 1.390 . S
C1565 C1564 1.387 . S
C1565 C1567 1.387 . S
H1566 C1573 0.950 . S
C1567 C1565 1.387 . S
C1567 C1569 1.390 . S
C1567 H1571 0.950 . S
H1568 C1564 0.950 . S
C1569 C1567 1.390 . S
C1569 C1570 1.387 . S
C1569 H1572 0.950 . S
C1570 C1569 1.387 . S
C1570 C1573 1.387 . S
H1571 C1567 0.950 . S
H1572 C1569 0.950 . S
C1573 C1564 1.390 . S
C1573 H1566 0.950 . S
C1573 C1570 1.387 . S
C1574 C1575 1.387 . S
C1574 H1578 0.950 . S
C1574 C1583 1.390 . S
C1575 C1574 1.387 . S
C1575 C1577 1.387 . S
H1576 C1583 0.950 . S
C1577 C1575 1.387 . S
C1577 C1579 1.390 . S
C1577 H1581 0.950 . S
H1578 C1574 0.950 . S
C1579 C1577 1.390 . S
C1579 C1580 1.387 . S
C1579 H1582 0.950 . S
C1580 C1579 1.387 . S
C1580 C1583 1.387 . S
H1581 C1577 0.950 . S
H1582 C1579 0.950 . S
C1583 C1574 1.390 . S
C1583 H1576 0.950 . S
C1583 C1580 1.387 . S
C1584 C1585 1.387 . S
C1584 H1588 0.950 . S
C1584 C1593 1.390 . S
C1585 C1584 1.387 . S
C1585 C1587 1.387 . S
H1586 C1593 0.950 . S
C1587 C1585 1.387 . S
C1587 C1589 1.390 . S
C1587 H1591 0.950 . S
H1588 C1584 0.950 . S
C1589 C1587 1.390 . S
C1589 C1590 1.387 . S
C1589 H1592 0.950 . S
C1590 C1589 1.387 . S
C1590 C1593 1.387 . S
H1591 C1587 0.950 . S
H1592 C1589 0.950 . S
C1593 C1584 1.390 . S
C1593 H1586 0.950 . S
C1593 C1590 1.387 . S
C1594 C1595 1.387 . S
C1594 H1598 0.950 . S
C1594 C1603 1.390 . S
C1595 C1594 1.387 . S
C1595 C1597 1.387 . S
H1596 C1603 0.950 . S
C1597 C1595 1.387 . S
C1597 C1599 1.390 . S
C1597 H1601 0.950 . S
H1598 C1594 0.950 . S
C1599 C1597 1.390 . S
C1599 C1600 1.387 . S
C1599 H1602 0.950 . S
C1600 C1599 1.387 . S
C1600 C1603 1.387 . S
H1601 C1597 0.950 . S
H1602 C1599 0.950 . S
C1603 C1594 1.390 . S
C1603 H1596 0.950 . S
C1603 C1600 1.387 . S
C1604 C1605 1.387 . S
C1604 H1608 0.950 . S
C1604 C1613 1.390 . S
C1605 C1604 1.387 . S
C1605 C1607 1.387 . S
H1606 C1613 0.950 . S
C1607 C1605 1.387 . S
C1607 C1609 1.390 . S
C1607 H1611 0.950 . S
H1608 C1604 0.950 . S
C1609 C1607 1.390 . S
C1609 C1610 1.387 . S
C1609 H1612 0.950 . S
C1610 C1609 1.387 . S
C1610 C1613 1.387 . S
H1611 C1607 0.950 . S
H1612 C1609 0.950 . S
C1613 C1604 1.390 . S
C1613 H1606 0.950 . S
C1613 C1610 1.387 . S
C1614 C1615 1.387 . S
C1614 H1618 0.950 . S
C1614 C1623 1.390 . S
C1615 C1614 1.387 . S
C1615 C1617 1.387 . S
H1616 C1623 0.950 . S
C1617 C1615 1.387 . S
C1617 C1619 1.390 . S
C1617 H1621 0.950 . S
H1618 C1614 0.950 . S
C1619 C1617 1.390 . S
C1619 C1620 1.387 . S
C1619 H1622 0.950 . S
C1620 C1619 1.387 . S
C1620 C1623 1.387 . S
H1621 C1617 0.950 . S
H1622 C1619 0.950 . S
C1623 C1614 1.390 . S
C1623 H1616 0.950 . S
C1623 C1620 1.387 . S
C1624 C1625 1.387 . S
C1624 H1628 0.950 . S
C1624 C1633 1.390 . S
C1625 C1624 1.387 . S
C1625 C1627 1.387 . S
H1626 C1633 0.950 . S
C1627 C1625 1.387 . S
C1627 C1629 1.390 . S
C1627 H1631 0.950 . S
H1628 C1624 0.950 . S
C1629 C1627 1.390 . S
C1629 C1630 1.387 . S
C1629 H1632 0.950 . S
C1630 C1629 1.387 . S
C1630 C1633 1.387 . S
H1631 C1627 0.950 . S
H1632 C1629 0.950 . S
C1633 C1624 1.390 . S
C1633 H1626 0.950 . S
C1633 C1630 1.387 . S
C1634 C1635 1.387 . S
C1634 H1638 0.950 . S
C1634 C1643 1.390 . S
C1635 C1634 1.387 . S
C1635 C1637 1.387 . S
H1636 C1643 0.950 . S
C1637 C1635 1.387 . S
C1637 C1639 1.390 . S
C1637 H1641 0.950 . S
H1638 C1634 0.950 . S
C1639 C1637 1.390 . S
C1639 C1640 1.387 . S
C1639 H1642 0.950 . S
C1640 C1639 1.387 . S
C1640 C1643 1.387 . S
H1641 C1637 0.950 . S
H1642 C1639 0.950 . S
C1643 C1634 1.390 . S
C1643 H1636 0.950 . S
C1643 C1640 1.387 . S
C1644 C1645 1.387 . S
C1644 H1648 0.950 . S
C1644 C1653 1.390 . S
C1645 C1644 1.387 . S
C1645 C1647 1.387 . S
H1646 C1653 0.950 . S
C1647 C1645 1.387 . S
C1647 C1649 1.390 . S
C1647 H1651 0.950 . S
H1648 C1644 0.950 . S
C1649 C1647 1.390 . S
C1649 C1650 1.387 . S
C1649 H1652 0.950 . S
C1650 C1649 1.387 . S
C1650 C1653 1.387 . S
H1651 C1647 0.950 . S
H1652 C1649 0.950 . S
C1653 C1644 1.390 . S
C1653 H1646 0.950 . S
C1653 C1650 1.387 . S
C1654 C1655 1.387 . S
C1654 H1658 0.950 . S
C1654 C1663 1.390 . S
C1655 C1654 1.387 . S
C1655 C1657 1.387 . S
H1656 C1663 0.950 . S
C1657 C1655 1.387 . S
C1657 C1659 1.390 . S
C1657 H1661 0.950 . S
H1658 C1654 0.950 . S
C1659 C1657 1.390 . S
C1659 C1660 1.387 . S
C1659 H1662 0.950 . S
C1660 C1659 1.387 . S
C1660 C1663 1.387 . S
H1661 C1657 0.950 . S
H1662 C1659 0.950 . S
C1663 C1654 1.390 . S
C1663 H1656 0.950 . S
C1663 C1660 1.387 . S
C1664 C1665 1.387 . S
C1664 H1668 0.950 . S
C1664 C1673 1.390 . S
C1665 C1664 1.387 . S
C1665 C1667 1.387 . S
H1666 C1673 0.950 . S
C1667 C1665 1.387 . S
C1667 C1669 1.390 . S
C1667 H1671 0.950 . S
H1668 C1664 0.950 . S
C1669 C1667 1.390 . S
C1669 C1670 1.387 . S
C1669 H1672 0.950 . S
C1670 C1669 1.387 . S
C1670 C1673 1.387 . S
H1671 C1667 0.950 . S
H1672 C1669 0.950 . S
C1673 C1664 1.390 . S
C1673 H1666 0.950 . S
C1673 C1670 1.387 . S
C1674 C1675 1.387 . S
C1674 H1678 0.950 . S
C1674 C1683 1.390 . S
C1675 C1674 1.387 . S
C1675 C1677 1.387 . S
H1676 C1683 0.950 . S
C1677 C1675 1.387 . S
C1677 C1679 1.390 . S
C1677 H1681 0.950 . S
H1678 C1674 0.950 . S
C1679 C1677 1.390 . S
C1679 C1680 1.387 . S
C1679 H1682 0.950 . S
C1680 C1679 1.387 . S
C1680 C1683 1.387 . S
H1681 C1677 0.950 . S
H1682 C1679 0.950 . S
C1683 C1674 1.390 . S
C1683 H1676 0.950 . S
C1683 C1680 1.387 . S
C1684 C1685 1.387 . S
C1684 H1688 0.950 . S
C1684 C1693 1.390 . S
C1685 C1684 1.387 . S
C1685 C1687 1.387 . S
H1686 C1693 0.950 . S
C1687 C1685 1.387 . S
C1687 C1689 1.390 . S
C1687 H1691 0.950 . S
H1688 C1684 0.950 . S
C1689 C1687 1.390 . S
C1689 C1690 1.387 . S
C1689 H1692 0.950 . S
C1690 C1689 1.387 . S
C1690 C1693 1.387 . S
H1691 C1687 0.950 . S
H1692 C1689 0.950 . S
C1693 C1684 1.390 . S
C1693 H1686 0.950 . S
C1693 C1690 1.387 . S
C1694 C1695 1.387 . S
C1694 H1698 0.950 . S
C1694 C1703 1.390 . S
C1695 C1694 1.387 . S
C1695 C1697 1.387 . S
H1696 C1703 0.950 . S
C1697 C1695 1.387 . S
C1697 C1699 1.390 . S
C1697 H1701 0.950 . S
H1698 C1694 0.950 . S
C1699 C1697 1.390 . S
C1699 C1700 1.387 . S
C1699 H1702 0.950 . S
C1700 C1699 1.387 . S
C1700 C1703 1.387 . S
H1701 C1697 0.950 . S
H1702 C1699 0.950 . S
C1703 C1694 1.390 . S
C1703 H1696 0.950 . S
C1703 C1700 1.387 . S
C1704 C1705 1.387 . S
C1704 H1708 0.950 . S
C1704 C1713 1.390 . S
C1705 C1704 1.387 . S
C1705 C1707 1.387 . S
H1706 C1713 0.950 . S
C1707 C1705 1.387 . S
C1707 C1709 1.390 . S
C1707 H1711 0.950 . S
H1708 C1704 0.950 . S
C1709 C1707 1.390 . S
C1709 C1710 1.387 . S
C1709 H1712 0.950 . S
C1710 C1709 1.387 . S
C1710 C1713 1.387 . S
H1711 C1707 0.950 . S
H1712 C1709 0.950 . S
C1713 C1704 1.390 . S
C1713 H1706 0.950 . S
C1713 C1710 1.387 . S
C1714 C1715 1.387 . S
C1714 H1718 0.950 . S
C1714 C1723 1.390 . S
C1715 C1714 1.387 . S
C1715 C1717 1.387 . S
H1716 C1723 0.950 . S
C1717 C1715 1.387 . S
C1717 C1719 1.390 . S
C1717 H1721 0.950 . S
H1718 C1714 0.950 . S
C1719 C1717 1.390 . S
C1719 C1720 1.387 . S
C1719 H1722 0.950 . S
C1720 C1719 1.387 . S
C1720 C1723 1.387 . S
H1721 C1717 0.950 . S
H1722 C1719 0.950 . S
C1723 C1714 1.390 . S
C1723 H1716 0.950 . S
C1723 C1720 1.387 . S
C1724 C1725 1.387 . S
C1724 H1728 0.950 . S
C1724 C1733 1.390 . S
C1725 C1724 1.387 . S
C1725 C1727 1.387 . S
H1726 C1733 0.950 . S
C1727 C1725 1.387 . S
C1727 C1729 1.390 . S
C1727 H1731 0.950 . S
H1728 C1724 0.950 . S
C1729 C1727 1.390 . S
C1729 C1730 1.387 . S
C1729 H1732 0.950 . S
C1730 C1729 1.387 . S
C1730 C1733 1.387 . S
H1731 C1727 0.950 . S
H1732 C1729 0.950 . S
C1733 C1724 1.390 . S
C1733 H1726 0.950 . S
C1733 C1730 1.387 . S
C1734 C1735 1.387 . S
C1734 H1738 0.950 . S
C1734 C1743 1.390 . S
C1735 C1734 1.387 . S
C1735 C1737 1.387 . S
H1736 C1743 0.950 . S
C1737 C1735 1.387 . S
C1737 C1739 1.390 . S
C1737 H1741 0.950 . S
H1738 C1734 0.950 . S
C1739 C1737 1.390 . S
C1739 C1740 1.387 . S
C1739 H1742 0.950 . S
C1740 C1739 1.387 . S
C1740 C1743 1.387 . S
H1741 C1737 0.950 . S
H1742 C1739 0.950 . S
C1743 C1734 1.390 . S
C1743 H1736 0.950 . S
C1743 C1740 1.387 . S
C790 C366 1.836 . S
C785 C7 1.775 . S
C800 C378 1.304 . S
C795 C19 1.372 . S
C805 C29 1.704 . S
C810 C402 1.701 . S
C820 C413 1.358 . S
C815 C41 1.471 . S
C825 C52 1.450 . S
C830 C420 1.421 . S
C835 C62 1.527 . S
C840 C359 1.534 . S
C845 C73 1.252 . S
C850 C386 1.309 . S
C860 C395 1.632 . S
C855 C82 1.528 . S
C870 C432 1.665 . S
C865 C5 1.549 . S
C875 C16 1.316 . S
C880 C458 1.504 . S
C885 C30 1.745 . S
C890 C474 1.632 . S
C900 C494 1.316 . S
C895 C40 1.508 . S
C905 C49 1.213 . S
C910 C503 1.370 . S
C920 C528 1.467 . S
C915 C63 1.542 . S
C925 C74 1.343 . S
C930 C548 1.304 1_655 S
C940 C564 1.496 . S
C935 C85 1.564 . S
C945 C8 1.584 . S
C950 C486 1.523 . S
C955 C51 1.518 . S
C960 C521 1.524 . S
C970 C540 1.708 . S
C965 C60 1.521 . S
C975 C71 1.155 . S
C980 C557 1.441 . S
C990 C510 1.870 . S
C985 C84 1.812 . S
C1000 C450 1.472 . S
C995 C27 1.297 . S
C1005 C38 1.399 . S
C1010 C467 1.397 . S
C1020 C440 1.592 . S
C1015 C18 1.541 . S
C1030 C584 1.840 . S
C1025 C95 1.775 . S
C1035 C107 1.374 . S
C1040 C594 1.307 . S
C1045 C117 1.705 . S
C1050 C618 1.703 . S
C1060 C630 1.357 . S
C1055 C129 1.469 . S
C1065 C140 1.448 . S
C1070 C638 1.417 . S
C1075 C150 1.524 . S
C1080 C576 1.538 . S
C1085 C161 1.253 . S
C1090 C602 1.312 . S
C1095 C170 1.528 . S
C1100 C611 1.633 . S
C1110 C504 1.665 . S
C1105 C93 1.549 . S
C1115 C104 1.316 . S
C1120 C654 1.509 . S
C1130 C546 1.636 . S
C1125 C118 1.748 . S
C1135 C128 1.508 . S
C1140 C674 1.319 . S
C1145 C137 1.208 . S
C1150 C431 1.367 . S
C1160 C692 1.435 . S
C1155 C151 1.538 . S
C1165 C162 1.341 . S
C1170 C476 1.300 1_655 S
C1180 C708 1.499 . S
C1175 C173 1.563 . S
C1185 C96 1.583 . S
C1190 C666 1.517 . S
C1200 C684 1.529 . S
C1195 C139 1.514 . S
C1205 C148 1.512 . S
C1210 C468 1.702 . S
C1220 C701 1.440 . S
C1215 C159 1.153 . S
C1225 C172 1.814 . S
C1230 C438 1.868 . S
C1235 C115 1.298 . S
C1240 C647 1.459 . S
C1245 C126 1.400 . S
C1250 C539 1.397 . S
C1255 C106 1.543 . S
C1260 C512 1.595 . S
C1265 C183 1.775 . S
C1270 C620 1.844 . S
C1280 C629 1.306 . S
C1275 C195 1.376 . S
C1285 C205 1.703 . S
C1290 C582 1.700 . S
C1295 C217 1.469 . S
C1300 C593 1.356 . S
C1305 C228 1.447 . S
C1310 C600 1.418 . S
C1315 C238 1.528 . S
C1320 C612 1.543 . S
C1330 C636 1.311 . S
C1325 C249 1.253 . S
C1335 C258 1.526 . S
C1340 C575 1.629 . S
C1350 C726 1.665 . S
C1345 C181 1.552 . S
C1355 C192 1.319 . S
C1360 C530 1.507 . S
C1370 C744 1.632 . S
C1365 C206 1.745 . S
C1375 C216 1.509 . S
C1380 C566 1.321 . S
C1385 C225 1.216 . S
C1390 C764 1.375 . S
C1395 C239 1.539 . S
C1400 C456 1.462 . S
C1410 C780 1.276 . S
C1405 C250 1.341 . S
C1415 C261 1.560 . S
C1420 C492 1.495 . S
C1430 C558 1.522 . S
C1425 C184 1.585 . S
C1440 C449 1.522 . S
C1435 C227 1.517 . S
C1445 C236 1.521 . S
C1450 C773 1.696 . S
C1455 C247 1.154 . S
C1460 C485 1.439 . S
C1470 C756 1.869 . S
C1465 C260 1.811 . S
C1480 C522 1.473 . S
C1475 C203 1.298 . S
C1490 C737 1.398 . S
C1485 C214 1.395 . S
C1500 C719 1.599 . S
C1495 C194 1.543 . S
C1505 C271 1.777 . S
C1510 C404 1.843 . S
C1515 C283 1.376 . S
C1520 C414 1.310 . S
C1530 C368 1.702 . S
C1525 C293 1.702 . S
C1540 C377 1.356 . S
C1535 C305 1.470 . S
C1550 C384 1.415 . S
C1545 C316 1.444 . S
C1560 C396 1.540 . S
C1555 C326 1.524 . S
C1570 C422 1.309 . S
C1565 C337 1.249 . S
C1575 C346 1.523 . S
C1580 C360 1.636 . S
C1585 C269 1.557 . S
C1590 C762 1.663 . S
C1600 C690 1.514 . S
C1595 C280 1.324 . S
C1610 C782 1.597 . S
C1605 C294 1.747 . S
C1620 C710 1.321 . S
C1615 C304 1.509 . S
C1625 C313 1.208 . S
C1630 C728 1.369 . S
C1640 C656 1.432 . S
C1635 C327 1.536 . S
C1650 C746 1.300 . S
C1645 C338 1.340 . S
C1655 C349 1.558 . S
C1660 C672 1.492 . S
C1670 C702 1.521 . S
C1665 C272 1.586 . S
C1680 C648 1.530 . S
C1675 C315 1.514 . S
C1690 C738 1.702 . S
C1685 C324 1.512 . S
C1695 C335 1.149 . S
C1700 C665 1.437 . S
C1705 C348 1.810 . S
C1710 C720 1.868 . S
C1715 C291 1.295 . S
C1720 C683 1.458 . S
C1725 C302 1.398 . S
C1730 C774 1.398 . S
C1740 C755 1.599 . S
C1735 C282 1.544 . S
