# Generated by pormake.
# Topology rtl, (3,6)-cn, num edge types: 1
# Building blocks:
#     Node 0, Type 0, BuildingBlock: VETTIZ_charged_linker_0, # of connection points: 3
#     Node 1, Type 0, BuildingBlock: VETTIZ_charged_linker_0, # of connection points: 3
#     Node 2, Type 0, BuildingBlock: VETTIZ_charged_linker_0, # of connection points: 3
#     Node 3, Type 0, BuildingBlock: VETTIZ_charged_linker_0, # of connection points: 3
#     Node 4, Type 1, BuildingBlock: FUNLAD_clean_sbu_0, # of connection points: 6
#     Node 5, Type 1, BuildingBlock: FUNLAD_clean_sbu_0, # of connection points: 6
#     Edge 6, Type (0, 1), None
#     Edge 7, Type (0, 1), None
#     Edge 8, Type (0, 1), None
#     Edge 9, Type (0, 1), None
#     Edge 10, Type (0, 1), None
#     Edge 11, Type (0, 1), None
#     Edge 12, Type (0, 1), None
#     Edge 13, Type (0, 1), None
#     Edge 14, Type (0, 1), None
#     Edge 15, Type (0, 1), None
#     Edge 16, Type (0, 1), None
#     Edge 17, Type (0, 1), None
# Relax obj value: 0.023
# Max RMSD: 0.134
# Mean RMSD: 0.106
data_MOF--net-rtl--node1-FUNLAD_clean_sbu_0--node2-VETTIZ_charged_linker_0--edge1-none
_symmetry_space_group_name_H-M    P1
_symmetry_Int_Tables_number       1
_symmetry_cell_setting            triclinic
loop_
_symmetry_equiv_pos_as_xyz
'x, y, z'
_cell_length_a     29.223867
_cell_length_b     22.019917
_cell_length_c     15.513936
_cell_angle_alpha  89.46654
_cell_angle_beta   90.603313
_cell_angle_gamma 90.068639
loop_
_atom_site_label
_atom_site_type_symbol
_atom_site_fract_x
_atom_site_fract_y
_atom_site_fract_z
_atom_type_partial_charge
C0 C 0.07531 0.88999 0.73351 0.0
C1 C 0.03351 0.92093 0.72541 0.0
C2 C 0.00276 0.92089 0.79442 0.0
C3 C 0.05799 0.8661 0.88231 0.0
C4 C 0.08639 0.8617 0.81209 0.0
C5 C 0.12844 0.8245 0.832 0.0
H6 H 0.26242 0.68102 0.12904 0.0
C7 C 0.08158 0.83809 0.95686 0.0
C8 C 0.12231 0.81219 0.92776 0.0
H9 H 0.27865 0.68801 0.85287 0.0
H10 H 0.20931 0.74716 0.8378 0.0
H11 H 0.24111 0.81448 0.14697 0.0
H12 H 0.14697 0.66475 0.13556 0.0
H13 H 0.13468 0.71242 0.22408 0.0
H14 H 0.18969 0.67659 0.21803 0.0
H15 H 0.22278 0.7764 0.24307 0.0
H16 H 0.19143 0.84004 0.19794 0.0
C17 C 0.17114 0.8642 0.81433 0.0
C18 C 0.12606 0.76544 0.77827 0.0
C19 C 0.02583 0.88844 0.25432 0.0
C20 C 0.04803 0.8873 0.33457 0.0
C21 C 0.08919 0.85486 0.34504 0.0
C22 C 0.1087 0.82502 0.27481 0.0
C23 C 0.08773 0.83018 0.19305 0.0
C24 C 0.04691 0.8615 0.18405 0.0
C25 C 0.03321 0.87122 0.0915 0.0
C26 C 0.07251 0.8405 0.04624 0.0
C27 C 0.10386 0.81548 0.10582 0.0
C28 C 0.03184 0.94087 0.07405 0.0
C29 C 0.98716 0.83804 0.07519 0.0
C30 C 0.25032 0.69463 0.06551 0.0
C31 C 0.27513 0.67949 -0.00824 0.0
C32 C 0.25954 0.69906 0.9101 0.0
C33 C 0.21938 0.73323 0.90159 0.0
C34 C 0.19499 0.74871 0.97573 0.0
C35 C 0.21047 0.72957 0.05607 0.0
C36 C 0.18123 0.75345 0.12764 0.0
C37 C 0.14383 0.78586 0.0763 0.0
C38 C 0.15263 0.78374 -0.01239 0.0
C39 C 0.21044 0.79814 0.18226 0.0
C40 C 0.1621 0.69907 0.17968 0.0
H41 H 0.99071 0.89656 0.92449 0.0
H42 H 0.09867 0.88783 0.67984 0.0
H43 H 0.09039 0.75466 0.75767 0.0
H44 H 0.13731 0.72502 0.81582 0.0
H45 H 0.14691 0.76934 0.71903 0.0
H46 H 0.16678 0.91022 0.84205 0.0
H47 H 0.17672 0.86971 0.74396 0.0
H48 H 0.20271 0.84565 0.8439 0.0
H49 H 0.99499 0.91506 0.24451 0.0
H50 H 0.10687 0.85427 0.40678 0.0
H51 H 0.1403 0.80138 0.28589 0.0
H52 H 0.06034 0.96413 0.10864 0.0
H53 H -0.00075 0.96091 0.09656 0.0
H54 H 0.03635 0.95369 0.00598 0.0
H55 H 0.98355 0.79769 0.11833 0.0
H56 H 0.9844 0.81963 0.0092 0.0
H57 H 0.95761 0.86841 0.08701 0.0
H58 H 0.97014 0.94401 0.78848 0.0
C59 C 0.01484 0.89362 0.87311 0.0
C60 C 0.5742 0.65251 0.77572 0.0
C61 C 0.53201 0.62237 0.78276 0.0
C62 C 0.50081 0.62357 0.71323 0.0
C63 C 0.55656 0.67665 0.6265 0.0
C64 C 0.5853 0.68064 0.69742 0.0
C65 C 0.62771 0.71706 0.67837 0.0
H66 H 0.7616 0.8569 0.38233 0.0
C67 C 0.58027 0.70363 0.55231 0.0
C68 C 0.62136 0.72914 0.58235 0.0
H69 H 0.77972 0.85164 0.65878 0.0
H70 H 0.70984 0.79337 0.67361 0.0
H71 H 0.74015 0.72427 0.3663 0.0
H72 H 0.64718 0.87466 0.37285 0.0
H73 H 0.63324 0.82618 0.28566 0.0
H74 H 0.68886 0.86082 0.29089 0.0
H75 H 0.72076 0.76049 0.2689 0.0
H76 H 0.68999 0.69746 0.31619 0.0
C77 C 0.67006 0.67678 0.69744 0.0
C78 C 0.62623 0.77634 0.73158 0.0
C79 C 0.52587 0.64769 0.25358 0.0
C80 C 0.54824 0.64859 0.17434 0.0
C81 C 0.58902 0.68182 0.16502 0.0
C82 C 0.60805 0.71273 0.23546 0.0
C83 C 0.58701 0.70786 0.31635 0.0
C84 C 0.54649 0.67584 0.32424 0.0
C85 C 0.53235 0.66769 0.41635 0.0
C86 C 0.57125 0.69994 0.46264 0.0
C87 C 0.60271 0.72414 0.40381 0.0
C88 C 0.53148 0.59843 0.43634 0.0
C89 C 0.48587 0.70015 0.42892 0.0
C90 C 0.74983 0.84391 0.44589 0.0
C91 C 0.77524 0.85928 0.51971 0.0
C92 C 0.7601 0.84039 0.60144 0.0
C93 C 0.71965 0.80679 0.60981 0.0
C94 C 0.69461 0.79116 0.53545 0.0
C95 C 0.70983 0.80947 0.45516 0.0
C96 C 0.68027 0.78528 0.38326 0.0
C97 C 0.64281 0.7538 0.43413 0.0
C98 C 0.65185 0.75662 0.52303 0.0
C99 C 0.70907 0.73978 0.33042 0.0
C100 C 0.66137 0.83943 0.32972 0.0
H101 H 0.48844 0.6487 0.58302 0.0
H102 H 0.59791 0.65391 0.82982 0.0
H103 H 0.5907 0.78815 0.7503 0.0
H104 H 0.63828 0.81631 0.69435 0.0
H105 H 0.64685 0.77204 0.79187 0.0
H106 H 0.6652 0.63083 0.66953 0.0
H107 H 0.67571 0.67118 0.76799 0.0
H108 H 0.70173 0.69496 0.66897 0.0
H109 H 0.49512 0.62084 0.26226 0.0
H110 H 0.60667 0.68246 0.10395 0.0
H111 H 0.63928 0.73716 0.22513 0.0
H112 H 0.56226 0.57594 0.40963 0.0
H113 H 0.5008 0.57666 0.40709 0.0
H114 H 0.53194 0.58706 0.50547 0.0
H115 H 0.4805 0.73711 0.38048 0.0
H116 H 0.48392 0.723 0.49208 0.0
H117 H 0.45678 0.66793 0.42246 0.0
H118 H 0.46787 0.60122 0.71836 0.0
C119 C 0.5129 0.65068 0.6349 0.0
C120 C 0.91948 0.14842 0.26979 0.0
C121 C 0.96126 0.11743 0.27786 0.0
C122 C 0.99198 0.11739 0.2088 0.0
C123 C 0.93678 0.17225 0.12095 0.0
C124 C 0.9084 0.17671 0.1912 0.0
C125 C 0.86636 0.21392 0.17131 0.0
H126 H 0.7323 0.35731 0.87432 0.0
C127 C 0.91318 0.20027 0.04641 0.0
C128 C 0.87246 0.22619 0.07553 0.0
H129 H 0.71617 0.35044 0.15053 0.0
H130 H 0.78552 0.29129 0.16555 0.0
H131 H 0.84776 0.37358 0.86767 0.0
H132 H 0.75363 0.22383 0.85646 0.0
H133 H 0.80329 0.19829 0.80539 0.0
H134 H 0.77189 0.26192 0.76032 0.0
H135 H 0.80501 0.36172 0.78527 0.0
H136 H 0.86001 0.32589 0.77915 0.0
C137 C 0.86878 0.273 0.22498 0.0
C138 C 0.82365 0.17425 0.18906 0.0
C139 C 0.96894 0.14998 0.74894 0.0
C140 C 0.94672 0.15108 0.6687 0.0
C141 C 0.90554 0.18347 0.65824 0.0
C142 C 0.88602 0.2133 0.72847 0.0
C143 C 0.90701 0.20818 0.81022 0.0
C144 C 0.94785 0.17691 0.8192 0.0
C145 C 0.96156 0.16718 0.91175 0.0
C146 C 0.92223 0.19785 0.95703 0.0
C147 C 0.89087 0.22287 0.89746 0.0
C148 C 0.00757 0.20045 0.92805 0.0
C149 C 0.96299 0.09753 0.9292 0.0
C150 C 0.74442 0.34373 0.93785 0.0
C151 C 0.71964 0.3589 0.01162 0.0
C152 C 0.73526 0.33936 0.09327 0.0
C153 C 0.77542 0.30519 0.10176 0.0
C154 C 0.79978 0.28967 0.0276 0.0
C155 C 0.78428 0.30878 0.94727 0.0
C156 C 0.81349 0.28488 0.87568 0.0
C157 C 0.85091 0.25248 0.92699 0.0
C158 C 0.84213 0.25463 0.0157 0.0
C159 C 0.83261 0.33925 0.82359 0.0
C160 C 0.78427 0.24018 0.82111 0.0
H161 H 0.004 0.14164 0.0787 0.0
H162 H 0.89614 0.15063 0.32347 0.0
H163 H 0.828 0.12821 0.1614 0.0
H164 H 0.79208 0.19279 0.15948 0.0
H165 H 0.81809 0.16879 0.25944 0.0
H166 H 0.90446 0.28378 0.24552 0.0
H167 H 0.84795 0.26913 0.28426 0.0
H168 H 0.85752 0.31342 0.18742 0.0
H169 H -0.00022 0.12338 0.75875 0.0
H170 H 0.88785 0.18403 0.59651 0.0
H171 H 0.8544 0.2369 0.7174 0.0
H172 H 0.01102 0.24098 0.88519 0.0
H173 H 0.03715 0.17022 0.91579 0.0
H174 H 0.01042 0.21861 -0.00583 0.0
H175 H 0.93466 0.07418 0.89424 0.0
H176 H 0.95822 0.08469 -0.0028 0.0
H177 H 0.9957 0.0776 0.90711 0.0
H178 H 0.02458 0.09422 0.21473 0.0
C179 C 0.9799 0.14465 0.13012 0.0
C180 C 0.42062 0.38582 0.22782 0.0
C181 C 0.46277 0.41602 0.22082 0.0
C182 C 0.49394 0.41493 0.2904 0.0
C183 C 0.43821 0.36176 0.37708 0.0
C184 C 0.40951 0.3577 0.30612 0.0
C185 C 0.3671 0.32125 0.32515 0.0
H186 H 0.23307 0.18161 0.62114 0.0
C187 C 0.41448 0.3348 0.45127 0.0
C188 C 0.37341 0.30925 0.4212 0.0
H189 H 0.21513 0.18663 0.34465 0.0
H190 H 0.28501 0.2449 0.32987 0.0
H191 H 0.34748 0.16384 0.63084 0.0
H192 H 0.25457 0.31432 0.63699 0.0
H193 H 0.30469 0.34106 0.68729 0.0
H194 H 0.27383 0.27807 0.73447 0.0
H195 H 0.30576 0.17775 0.71271 0.0
H196 H 0.36139 0.21236 0.71799 0.0
C197 C 0.36865 0.26193 0.27205 0.0
C198 C 0.32474 0.36148 0.30594 0.0
C199 C 0.46889 0.39064 0.75003 0.0
C200 C 0.44651 0.3898 0.82925 0.0
C201 C 0.40569 0.35666 0.83855 0.0
C202 C 0.38663 0.32578 0.7681 0.0
C203 C 0.4077 0.33057 0.68723 0.0
C204 C 0.44826 0.36251 0.67937 0.0
C205 C 0.46241 0.37066 0.58726 0.0
C206 C 0.42348 0.33849 0.54095 0.0
C207 C 0.39199 0.31432 0.59976 0.0
C208 C 0.50885 0.3381 0.5747 0.0
C209 C 0.46335 0.43993 0.56731 0.0
C210 C 0.24488 0.19456 0.55759 0.0
C211 C 0.21952 0.17912 0.48374 0.0
C212 C 0.23471 0.19793 0.40201 0.0
C213 C 0.27516 0.23155 0.39367 0.0
C214 C 0.30014 0.24724 0.46805 0.0
C215 C 0.28488 0.22899 0.54834 0.0
C216 C 0.31442 0.25322 0.62026 0.0
C217 C 0.3519 0.28466 0.56941 0.0
C218 C 0.3429 0.28179 0.4805 0.0
C219 C 0.33328 0.1991 0.6739 0.0
C220 C 0.2856 0.29876 0.673 0.0
H221 H 0.50628 0.3899 0.42065 0.0
H222 H 0.39692 0.38436 0.17369 0.0
H223 H 0.32958 0.40747 0.33373 0.0
H224 H 0.29307 0.34332 0.33442 0.0
H225 H 0.31911 0.36699 0.23537 0.0
H226 H 0.4042 0.25012 0.25348 0.0
H227 H 0.34809 0.26618 0.21167 0.0
H228 H 0.35657 0.22198 0.30928 0.0
H229 H 0.49967 0.41744 0.74135 0.0
H230 H 0.38801 0.35606 0.8996 0.0
H231 H 0.35536 0.30142 0.7784 0.0
H232 H 0.51403 0.30089 0.62283 0.0
H233 H 0.53798 0.37018 0.58169 0.0
H234 H 0.51088 0.31553 0.51134 0.0
H235 H 0.43272 0.46253 0.59441 0.0
H236 H 0.46265 0.45134 0.4982 0.0
H237 H 0.49418 0.46158 0.59621 0.0
H238 H 0.52685 0.43734 0.2853 0.0
C239 C 0.48184 0.38783 0.36874 0.0
C240 C 0.03216 0.92894 0.40072 0.0
N241 N 0.09374 0.084 0.50215 0.0
C242 C 0.13344 0.05425 0.52137 0.0
C243 C 0.1753 0.08489 0.51739 0.0
C244 C 0.17601 0.14608 0.49183 0.0
C245 C 0.13478 0.17576 0.47287 0.0
C246 C 0.09373 0.14387 0.47939 0.0
Zn247 Zn 0.03235 0.03956 0.50341 0.0
C248 C 0.97236 0.08356 0.35676 0.0
N249 N 0.90102 0.95438 0.50114 0.0
C250 C 0.90103 0.89452 0.52397 0.0
C251 C 0.86132 0.98412 0.48192 0.0
C252 C 0.81946 0.95348 0.48594 0.0
C253 C 0.81875 0.89231 0.51158 0.0
C254 C 0.85998 0.86263 0.53054 0.0
Zn255 Zn 0.96241 0.99881 0.49988 0.0
O256 O 0.05891 0.9704 0.427 0.0
C257 C 0.0224 0.95481 0.64652 0.0
O258 O 0.99006 0.93012 0.42049 0.0
H259 H 0.86207 0.03174 0.46425 0.0
H260 H 0.1327 1.00662 0.53898 0.0
H261 H 0.93292 0.87146 0.53794 0.0
O262 O 0.05186 0.9901 0.6135 0.0
O263 O 0.98273 0.95066 0.61301 0.0
H264 H 0.06184 0.16692 0.46542 0.0
O265 O 0.93585 0.06798 0.57627 0.0
O266 O 0.0047 0.10825 0.5828 0.0
O267 O 0.94291 0.04827 0.38978 0.0
O268 O 0.01203 0.08772 0.39028 0.0
C269 C 0.9626 0.10944 0.60256 0.0
H270 H 0.20678 0.0609 0.53234 0.0
H271 H 0.13437 0.22317 0.45355 0.0
H272 H 0.78798 0.97747 0.47098 0.0
H273 H 0.86039 0.81523 0.54991 0.0
C274 C 0.46237 0.4312 0.89626 0.0
N275 N 0.59405 0.45508 -0.00079 0.0
C276 C 0.59406 0.39454 0.01789 0.0
C277 C 0.635 0.36221 0.02153 0.0
C278 C 0.67614 0.39219 0.004 0.0
C279 C 0.67542 0.45416 0.9827 0.0
C280 C 0.63365 0.48516 0.98134 0.0
Zn281 Zn 0.53251 0.49927 0.00014 0.0
C282 C 0.52129 0.58727 0.86043 0.0
N283 N 0.40072 0.58331 0.00434 0.0
C284 C 0.36112 0.55324 0.0222 0.0
C285 C 0.40071 0.64385 0.98561 0.0
C286 C 0.35977 0.67617 0.98191 0.0
C287 C 0.31863 0.6462 -0.00058 0.0
C288 C 0.31935 0.58424 0.02078 0.0
Zn289 Zn 0.46226 0.53912 0.00343 0.0
O290 O 0.5045 0.43252 0.91728 0.0
C291 C 0.47348 0.45112 0.14314 0.0
O292 O 0.43538 0.47168 0.92344 0.0
H293 H 0.43253 0.66715 0.97274 0.0
H294 H 0.56225 0.37124 0.03077 0.0
H295 H 0.36186 0.50512 0.03679 0.0
O296 O 0.51312 0.44817 0.1107 0.0
O297 O 0.44379 0.48681 0.11078 0.0
H298 H 0.63291 0.53328 0.96678 0.0
O299 O 0.49027 0.60587 0.08628 0.0
O300 O 0.55939 0.56672 0.08014 0.0
O301 O 0.48166 0.59022 0.89286 0.0
O302 O 0.55098 0.55158 0.8928 0.0
C303 C 0.53239 0.60719 0.10732 0.0
H304 H 0.63461 0.31428 0.03796 0.0
H305 H 0.70684 0.47846 0.96927 0.0
H306 H 0.36017 0.7241 0.96545 0.0
H307 H 0.28793 0.55994 0.03421 0.0
loop_
_geom_bond_atom_site_label_1
_geom_bond_atom_site_label_2
_geom_bond_distance
_geom_bond_site_symmetry_2
_ccdc_geom_bond_type
C0 C1 1.391 . S
C0 C4 1.391 . S
C0 H42 0.948 . S
C1 C0 1.391 . S
C1 C2 1.391 1_455 S
C2 C1 1.391 1_655 S
C2 H58 0.947 . S
C2 C59 1.392 1_655 S
C3 C4 1.391 . S
C3 C7 1.397 . S
C3 C59 1.419 . S
C4 C0 1.391 . S
C4 C3 1.391 . S
C4 C5 1.399 . S
C5 C4 1.399 . S
C5 C8 1.396 . S
C5 C17 1.453 . S
C5 C18 1.684 . S
H6 C30 0.948 . S
C7 C3 1.397 . S
C7 C8 1.394 . S
C7 C26 1.723 1_556 S
C8 C5 1.396 . S
C8 C7 1.394 . S
C8 C38 1.723 1_556 S
H9 C32 0.947 . S
H10 C33 0.948 . S
H11 C39 0.982 . S
H12 C40 0.979 . S
H13 C40 0.980 . S
H14 C40 0.983 . S
H15 C39 0.979 . S
H16 C39 0.977 . S
C17 C5 1.453 . S
C17 H46 0.982 . S
C17 H47 0.979 . S
C17 H48 0.977 . S
C18 C5 1.684 . S
C18 H43 0.979 . S
C18 H44 0.980 . S
C18 H45 0.983 . S
C19 C20 1.391 . S
C19 C24 1.391 . S
C19 H49 0.948 1_455 S
C20 C19 1.391 . S
C20 C21 1.391 . S
C21 C20 1.391 . S
C21 C22 1.392 . S
C21 H50 0.947 . S
C22 C21 1.392 . S
C22 C23 1.419 . S
C22 H51 0.948 . S
C23 C22 1.419 . S
C23 C24 1.391 . S
C23 C27 1.397 . S
C24 C19 1.391 . S
C24 C23 1.391 . S
C24 C25 1.399 . S
C25 C24 1.399 . S
C25 C26 1.396 . S
C25 C28 1.453 . S
C25 C29 1.684 1_455 S
C26 C7 1.723 1_554 S
C26 C25 1.396 . S
C26 C27 1.394 . S
C27 C23 1.397 . S
C27 C26 1.394 . S
C27 C37 1.723 . S
C28 C25 1.453 . S
C28 H52 0.982 . S
C28 H53 0.963 1_455 S
C28 H54 0.977 . S
C29 C25 1.684 1_655 S
C29 H55 0.979 . S
C29 H56 0.976 1_554 S
C29 H57 0.983 . S
C30 H6 0.948 . S
C30 C31 1.391 . S
C30 C35 1.391 . S
C31 C30 1.391 . S
C31 C32 1.391 1_554 S
C32 H9 0.947 . S
C32 C31 1.391 1_556 S
C32 C33 1.392 . S
C33 H10 0.948 . S
C33 C32 1.392 . S
C33 C34 1.419 . S
C34 C33 1.419 . S
C34 C35 1.391 1_556 S
C34 C38 1.397 1_556 S
C35 C30 1.391 . S
C35 C34 1.391 1_554 S
C35 C36 1.399 . S
C36 C35 1.399 . S
C36 C37 1.396 . S
C36 C39 1.453 . S
C36 C40 1.684 . S
C37 C27 1.723 . S
C37 C36 1.396 . S
C37 C38 1.394 . S
C38 C8 1.723 1_554 S
C38 C34 1.397 1_554 S
C38 C37 1.394 . S
C39 H11 0.982 . S
C39 H15 0.979 . S
C39 H16 0.977 . S
C39 C36 1.453 . S
C40 H12 0.979 . S
C40 H13 0.980 . S
C40 H14 0.983 . S
C40 C36 1.684 . S
H41 C59 0.948 1_655 S
H42 C0 0.948 . S
H43 C18 0.979 . S
H44 C18 0.980 . S
H45 C18 0.983 . S
H46 C17 0.982 . S
H47 C17 0.979 . S
H48 C17 0.977 . S
H49 C19 0.948 1_655 S
H50 C21 0.947 . S
H51 C22 0.948 . S
H52 C28 0.982 . S
H53 C28 0.963 1_655 S
H54 C28 0.977 . S
H55 C29 0.979 . S
H56 C29 0.976 1_556 S
H57 C29 0.983 . S
H58 C2 0.947 . S
C59 C2 1.392 1_455 S
C59 C3 1.419 . S
C59 H41 0.948 1_455 S
C60 C61 1.391 . S
C60 C64 1.391 . S
C60 H102 0.948 . S
C61 C60 1.391 . S
C61 C62 1.391 . S
C62 C61 1.391 . S
C62 H118 0.947 . S
C62 C119 1.392 . S
C63 C64 1.391 . S
C63 C67 1.397 . S
C63 C119 1.419 . S
C64 C60 1.391 . S
C64 C63 1.391 . S
C64 C65 1.399 . S
C65 C64 1.399 . S
C65 C68 1.396 . S
C65 C77 1.453 . S
C65 C78 1.684 . S
H66 C90 0.948 . S
C67 C63 1.397 . S
C67 C68 1.394 . S
C67 C86 1.723 . S
C68 C65 1.396 . S
C68 C67 1.394 . S
C68 C98 1.723 . S
H69 C92 0.947 . S
H70 C93 0.948 . S
H71 C99 0.982 . S
H72 C100 0.979 . S
H73 C100 0.980 . S
H74 C100 0.983 . S
H75 C99 0.979 . S
H76 C99 0.977 . S
C77 C65 1.453 . S
C77 H106 0.982 . S
C77 H107 0.979 . S
C77 H108 0.977 . S
C78 C65 1.684 . S
C78 H103 0.979 . S
C78 H104 0.980 . S
C78 H105 0.983 . S
C79 C80 1.391 . S
C79 C84 1.391 . S
C79 H109 0.948 . S
C80 C79 1.391 . S
C80 C81 1.391 . S
C81 C80 1.391 . S
C81 C82 1.392 . S
C81 H110 0.947 . S
C82 C81 1.392 . S
C82 C83 1.419 . S
C82 H111 0.948 . S
C83 C82 1.419 . S
C83 C84 1.391 . S
C83 C87 1.397 . S
C84 C79 1.391 . S
C84 C83 1.391 . S
C84 C85 1.399 . S
C85 C84 1.399 . S
C85 C86 1.396 . S
C85 C88 1.453 . S
C85 C89 1.684 . S
C86 C67 1.723 . S
C86 C85 1.396 . S
C86 C87 1.394 . S
C87 C83 1.397 . S
C87 C86 1.394 . S
C87 C97 1.723 . S
C88 C85 1.453 . S
C88 H112 0.982 . S
C88 H113 0.979 . S
C88 H114 0.977 . S
C89 C85 1.684 . S
C89 H115 0.979 . S
C89 H116 0.980 . S
C89 H117 0.983 . S
C90 H66 0.948 . S
C90 C91 1.391 . S
C90 C95 1.391 . S
C91 C90 1.391 . S
C91 C92 1.391 . S
C92 H69 0.947 . S
C92 C91 1.391 . S
C92 C93 1.392 . S
C93 H70 0.948 . S
C93 C92 1.392 . S
C93 C94 1.419 . S
C94 C93 1.419 . S
C94 C95 1.391 . S
C94 C98 1.397 . S
C95 C90 1.391 . S
C95 C94 1.391 . S
C95 C96 1.399 . S
C96 C95 1.399 . S
C96 C97 1.396 . S
C96 C99 1.453 . S
C96 C100 1.684 . S
C97 C87 1.723 . S
C97 C96 1.396 . S
C97 C98 1.394 . S
C98 C68 1.723 . S
C98 C94 1.397 . S
C98 C97 1.394 . S
C99 H71 0.982 . S
C99 H75 0.979 . S
C99 H76 0.977 . S
C99 C96 1.453 . S
C100 H72 0.979 . S
C100 H73 0.980 . S
C100 H74 0.983 . S
C100 C96 1.684 . S
H101 C119 0.948 . S
H102 C60 0.948 . S
H103 C78 0.979 . S
H104 C78 0.980 . S
H105 C78 0.983 . S
H106 C77 0.982 . S
H107 C77 0.979 . S
H108 C77 0.977 . S
H109 C79 0.948 . S
H110 C81 0.947 . S
H111 C82 0.948 . S
H112 C88 0.982 . S
H113 C88 0.979 . S
H114 C88 0.977 . S
H115 C89 0.979 . S
H116 C89 0.980 . S
H117 C89 0.983 . S
H118 C62 0.947 . S
C119 C62 1.392 . S
C119 C63 1.419 . S
C119 H101 0.948 . S
C120 C121 1.391 . S
C120 C124 1.391 . S
C120 H162 0.948 . S
C121 C120 1.391 . S
C121 C122 1.391 1_655 S
C122 C121 1.391 1_455 S
C122 H178 0.947 . S
C122 C179 1.392 1_455 S
C123 C124 1.391 . S
C123 C127 1.397 . S
C123 C179 1.419 . S
C124 C120 1.391 . S
C124 C123 1.391 . S
C124 C125 1.399 . S
C125 C124 1.399 . S
C125 C128 1.396 . S
C125 C137 1.453 . S
C125 C138 1.684 . S
H126 C150 0.948 . S
C127 C123 1.397 . S
C127 C128 1.394 . S
C127 C146 1.723 1_554 S
C128 C125 1.396 . S
C128 C127 1.394 . S
C128 C158 1.723 . S
H129 C152 0.947 . S
H130 C153 0.948 . S
H131 C159 0.982 . S
H132 C160 0.979 . S
H133 C160 0.980 . S
H134 C160 0.983 . S
H135 C159 0.979 . S
H136 C159 0.977 . S
C137 C125 1.453 . S
C137 H166 0.982 . S
C137 H167 0.979 . S
C137 H168 0.977 . S
C138 C125 1.684 . S
C138 H163 0.979 . S
C138 H164 0.980 . S
C138 H165 0.983 . S
C139 C140 1.391 . S
C139 C144 1.391 . S
C139 H169 0.948 1_655 S
C140 C139 1.391 . S
C140 C141 1.391 . S
C141 C140 1.391 . S
C141 C142 1.392 . S
C141 H170 0.947 . S
C142 C141 1.392 . S
C142 C143 1.419 . S
C142 H171 0.948 . S
C143 C142 1.419 . S
C143 C144 1.391 . S
C143 C147 1.397 . S
C144 C139 1.391 . S
C144 C143 1.391 . S
C144 C145 1.399 . S
C145 C144 1.399 . S
C145 C146 1.396 . S
C145 C148 1.453 1_655 S
C145 C149 1.684 . S
C146 C127 1.723 1_556 S
C146 C145 1.396 . S
C146 C147 1.394 . S
C147 C143 1.397 . S
C147 C146 1.394 . S
C147 C157 1.723 . S
C148 C145 1.453 1_455 S
C148 H172 0.982 . S
C148 H173 0.979 . S
C148 H174 0.977 1_556 S
C149 C145 1.684 . S
C149 H175 0.979 . S
C149 H176 0.980 1_556 S
C149 H177 0.983 1_655 S
C150 H126 0.948 . S
C150 C151 1.391 1_556 S
C150 C155 1.391 . S
C151 C150 1.391 1_554 S
C151 C152 1.391 . S
C152 H129 0.947 . S
C152 C151 1.391 . S
C152 C153 1.392 . S
C153 H130 0.948 . S
C153 C152 1.392 . S
C153 C154 1.419 . S
C154 C153 1.419 . S
C154 C155 1.391 1_554 S
C154 C158 1.397 . S
C155 C150 1.391 . S
C155 C154 1.391 1_556 S
C155 C156 1.399 . S
C156 C155 1.399 . S
C156 C157 1.396 . S
C156 C159 1.453 . S
C156 C160 1.684 . S
C157 C147 1.723 . S
C157 C156 1.396 . S
C157 C158 1.394 1_556 S
C158 C128 1.723 . S
C158 C154 1.397 . S
C158 C157 1.394 1_554 S
C159 H131 0.982 . S
C159 H135 0.979 . S
C159 H136 0.977 . S
C159 C156 1.453 . S
C160 H132 0.979 . S
C160 H133 0.980 . S
C160 H134 0.983 . S
C160 C156 1.684 . S
H161 C179 0.948 . S
H162 C120 0.948 . S
H163 C138 0.979 . S
H164 C138 0.980 . S
H165 C138 0.983 . S
H166 C137 0.982 . S
H167 C137 0.979 . S
H168 C137 0.977 . S
H169 C139 0.948 1_455 S
H170 C141 0.947 . S
H171 C142 0.948 . S
H172 C148 0.982 . S
H173 C148 0.979 . S
H174 C148 0.977 1_554 S
H175 C149 0.979 . S
H176 C149 0.980 1_554 S
H177 C149 0.983 1_455 S
H178 C122 0.947 . S
C179 C122 1.392 1_655 S
C179 C123 1.419 . S
C179 H161 0.948 . S
C180 C181 1.391 . S
C180 C184 1.391 . S
C180 H222 0.948 . S
C181 C180 1.391 . S
C181 C182 1.391 . S
C182 C181 1.391 . S
C182 H238 0.947 . S
C182 C239 1.392 . S
C183 C184 1.391 . S
C183 C187 1.397 . S
C183 C239 1.419 . S
C184 C180 1.391 . S
C184 C183 1.391 . S
C184 C185 1.399 . S
C185 C184 1.399 . S
C185 C188 1.396 . S
C185 C197 1.453 . S
C185 C198 1.684 . S
H186 C210 0.948 . S
C187 C183 1.397 . S
C187 C188 1.394 . S
C187 C206 1.723 . S
C188 C185 1.396 . S
C188 C187 1.394 . S
C188 C218 1.723 . S
H189 C212 0.947 . S
H190 C213 0.948 . S
H191 C219 0.982 . S
H192 C220 0.979 . S
H193 C220 0.980 . S
H194 C220 0.983 . S
H195 C219 0.979 . S
H196 C219 0.977 . S
C197 C185 1.453 . S
C197 H226 0.982 . S
C197 H227 0.979 . S
C197 H228 0.977 . S
C198 C185 1.684 . S
C198 H223 0.979 . S
C198 H224 0.980 . S
C198 H225 0.983 . S
C199 C200 1.391 . S
C199 C204 1.391 . S
C199 H229 0.948 . S
C200 C199 1.391 . S
C200 C201 1.391 . S
C201 C200 1.391 . S
C201 C202 1.392 . S
C201 H230 0.947 . S
C202 C201 1.392 . S
C202 C203 1.419 . S
C202 H231 0.948 . S
C203 C202 1.419 . S
C203 C204 1.391 . S
C203 C207 1.397 . S
C204 C199 1.391 . S
C204 C203 1.391 . S
C204 C205 1.399 . S
C205 C204 1.399 . S
C205 C206 1.396 . S
C205 C208 1.453 . S
C205 C209 1.684 . S
C206 C187 1.723 . S
C206 C205 1.396 . S
C206 C207 1.394 . S
C207 C203 1.397 . S
C207 C206 1.394 . S
C207 C217 1.723 . S
C208 C205 1.453 . S
C208 H232 0.982 . S
C208 H233 0.979 . S
C208 H234 0.977 . S
C209 C205 1.684 . S
C209 H235 0.979 . S
C209 H236 0.980 . S
C209 H237 0.983 . S
C210 H186 0.948 . S
C210 C211 1.391 . S
C210 C215 1.391 . S
C211 C210 1.391 . S
C211 C212 1.391 . S
C212 H189 0.947 . S
C212 C211 1.391 . S
C212 C213 1.392 . S
C213 H190 0.948 . S
C213 C212 1.392 . S
C213 C214 1.419 . S
C214 C213 1.419 . S
C214 C215 1.391 . S
C214 C218 1.397 . S
C215 C210 1.391 . S
C215 C214 1.391 . S
C215 C216 1.399 . S
C216 C215 1.399 . S
C216 C217 1.396 . S
C216 C219 1.453 . S
C216 C220 1.684 . S
C217 C207 1.723 . S
C217 C216 1.396 . S
C217 C218 1.394 . S
C218 C188 1.723 . S
C218 C214 1.397 . S
C218 C217 1.394 . S
C219 H191 0.982 . S
C219 H195 0.979 . S
C219 H196 0.977 . S
C219 C216 1.453 . S
C220 H192 0.979 . S
C220 H193 0.980 . S
C220 H194 0.983 . S
C220 C216 1.684 . S
H221 C239 0.948 . S
H222 C180 0.948 . S
H223 C198 0.979 . S
H224 C198 0.980 . S
H225 C198 0.983 . S
H226 C197 0.982 . S
H227 C197 0.979 . S
H228 C197 0.977 . S
H229 C199 0.948 . S
H230 C201 0.947 . S
H231 C202 0.948 . S
H232 C208 0.982 . S
H233 C208 0.979 . S
H234 C208 0.977 . S
H235 C209 0.979 . S
H236 C209 0.980 . S
H237 C209 0.983 . S
H238 C182 0.947 . S
C239 C182 1.392 . S
C239 C183 1.419 . S
C239 H221 0.948 . S
C240 O256 1.251 . S
C240 O258 1.254 1_455 S
N241 C242 1.333 . S
N241 C246 1.307 . S
N241 Zn247 2.020 . S
C242 N241 1.333 . S
C242 C243 1.379 . S
C242 H260 0.952 . S
C243 C242 1.379 . S
C243 C244 1.390 . S
C243 H270 0.949 . S
C244 C243 1.390 . S
C244 C245 1.357 . S
C245 C244 1.357 . S
C245 C246 1.370 . S
C245 H271 0.950 . S
C246 N241 1.307 . S
C246 C245 1.370 . S
C246 H264 0.948 . S
Zn247 N241 2.020 . S
Zn247 O256 2.039 1_545 S
Zn247 O262 2.034 1_545 S
Zn247 O266 2.025 . S
Zn247 O268 2.024 . S
C248 O267 1.246 . S
C248 O268 1.249 1_655 S
N249 C250 1.307 . S
N249 C251 1.333 . S
N249 Zn255 2.020 . S
C250 N249 1.307 . S
C250 C254 1.370 . S
C250 H261 0.948 . S
C251 N249 1.333 . S
C251 C252 1.379 . S
C251 H259 0.961 . S
C252 C251 1.379 . S
C252 C253 1.390 . S
C252 H272 0.949 . S
C253 C252 1.390 . S
C253 C254 1.357 . S
C254 C250 1.370 . S
C254 C253 1.357 . S
C254 H273 0.950 . S
Zn255 N249 2.020 . S
Zn255 O258 2.025 . S
Zn255 O263 2.024 . S
Zn255 O265 2.039 1_565 S
Zn255 O267 2.034 1_565 S
O256 C240 1.251 . S
O256 Zn247 2.039 1_565 S
C257 O262 1.246 . S
C257 O263 1.249 1_455 S
O258 C240 1.254 1_655 S
O258 Zn255 2.025 . S
H259 C251 0.961 . S
H260 C242 0.952 . S
H261 C250 0.948 . S
O262 Zn247 2.034 1_565 S
O262 C257 1.246 . S
O263 Zn255 2.024 . S
O263 C257 1.249 1_655 S
H264 C246 0.948 . S
O265 Zn255 2.039 1_545 S
O265 C269 1.251 . S
O266 Zn247 2.025 . S
O266 C269 1.254 1_455 S
O267 C248 1.246 . S
O267 Zn255 2.034 1_545 S
O268 Zn247 2.024 . S
O268 C248 1.249 1_455 S
C269 O265 1.251 . S
C269 O266 1.254 1_655 S
H270 C243 0.949 . S
H271 C245 0.950 . S
H272 C252 0.949 . S
H273 C254 0.950 . S
C274 O290 1.251 . S
C274 O292 1.254 . S
N275 C276 1.333 1_554 S
N275 C280 1.307 . S
N275 Zn281 2.020 . S
C276 N275 1.333 1_556 S
C276 C277 1.379 . S
C276 H294 0.952 . S
C277 C276 1.379 . S
C277 C278 1.390 1_556 S
C277 H304 0.949 . S
C278 C277 1.390 1_554 S
C278 C279 1.357 . S
C279 C278 1.357 . S
C279 C280 1.370 . S
C279 H305 0.950 . S
C280 N275 1.307 . S
C280 C279 1.370 . S
C280 H298 0.948 . S
Zn281 N275 2.020 . S
Zn281 O290 2.039 1_554 S
Zn281 O296 2.034 . S
Zn281 O300 2.025 . S
Zn281 O302 2.024 1_554 S
C282 O301 1.246 . S
C282 O302 1.249 . S
N283 C284 1.307 1_554 S
N283 C285 1.333 . S
N283 Zn289 2.020 . S
C284 N283 1.307 1_556 S
C284 C288 1.370 . S
C284 H295 0.948 . S
C285 N283 1.333 . S
C285 C286 1.379 . S
C285 H293 0.952 . S
C286 C285 1.379 . S
C286 C287 1.390 . S
C286 H306 0.949 . S
C287 C286 1.390 . S
C287 C288 1.357 1_554 S
C288 C284 1.370 . S
C288 C287 1.357 1_556 S
C288 H307 0.950 . S
Zn289 N283 2.020 . S
Zn289 O292 2.025 1_554 S
Zn289 O297 2.024 . S
Zn289 O299 2.039 . S
Zn289 O301 2.034 1_554 S
O290 C274 1.251 . S
O290 Zn281 2.039 1_556 S
C291 O296 1.246 . S
C291 O297 1.249 . S
O292 C274 1.254 . S
O292 Zn289 2.025 1_556 S
H293 C285 0.952 . S
H294 C276 0.952 . S
H295 C284 0.948 . S
O296 Zn281 2.034 . S
O296 C291 1.246 . S
O297 Zn289 2.024 . S
O297 C291 1.249 . S
H298 C280 0.948 . S
O299 Zn289 2.039 . S
O299 C303 1.251 . S
O300 Zn281 2.025 . S
O300 C303 1.254 . S
O301 C282 1.246 . S
O301 Zn289 2.034 1_556 S
O302 Zn281 2.024 1_556 S
O302 C282 1.249 . S
C303 O299 1.251 . S
C303 O300 1.254 . S
H304 C277 0.949 . S
H305 C279 0.950 . S
H306 C286 0.949 . S
H307 C288 0.950 . S
C244 C211 1.915 . S
C31 C287 1.871 . S
C91 C253 2.118 . S
C151 C278 1.692 . S
C240 C20 2.273 . S
C282 C61 2.440 . S
C121 C248 1.897 . S
C200 C274 2.271 . S
C303 C80 2.496 . S
C269 C140 2.072 . S
C291 C181 2.208 . S
C1 C257 2.107 . S
