# Generated by pormake.
# Topology dag, (6,3)-cn, num edge types: 1
# Building blocks:
#     Node 0, Type 0, BuildingBlock: MIDCAF_clean_sbu_0, # of connection points: 6
#     Node 1, Type 0, BuildingBlock: MIDCAF_clean_sbu_0, # of connection points: 6
#     Node 2, Type 0, BuildingBlock: MIDCAF_clean_sbu_0, # of connection points: 6
#     Node 3, Type 0, BuildingBlock: MIDCAF_clean_sbu_0, # of connection points: 6
#     Node 4, Type 1, BuildingBlock: KAKCAD_clean_linker_0, # of connection points: 3
#     Node 5, Type 1, BuildingBlock: KAKCAD_clean_linker_0, # of connection points: 3
#     Node 6, Type 1, BuildingBlock: KAKCAD_clean_linker_0, # of connection points: 3
#     Node 7, Type 1, BuildingBlock: KAKCAD_clean_linker_0, # of connection points: 3
#     Node 8, Type 1, BuildingBlock: KAKCAD_clean_linker_0, # of connection points: 3
#     Node 9, Type 1, BuildingBlock: KAKCAD_clean_linker_0, # of connection points: 3
#     Node 10, Type 1, BuildingBlock: KAKCAD_clean_linker_0, # of connection points: 3
#     Node 11, Type 1, BuildingBlock: KAKCAD_clean_linker_0, # of connection points: 3
#     Edge 12, Type (0, 1), BuildingBlock: CIFDUS_clean_linker_0, # of connection points: 2
#     Edge 13, Type (0, 1), BuildingBlock: CIFDUS_clean_linker_0, # of connection points: 2
#     Edge 14, Type (0, 1), BuildingBlock: CIFDUS_clean_linker_0, # of connection points: 2
#     Edge 15, Type (0, 1), BuildingBlock: CIFDUS_clean_linker_0, # of connection points: 2
#     Edge 16, Type (0, 1), BuildingBlock: CIFDUS_clean_linker_0, # of connection points: 2
#     Edge 17, Type (0, 1), BuildingBlock: CIFDUS_clean_linker_0, # of connection points: 2
#     Edge 18, Type (0, 1), BuildingBlock: CIFDUS_clean_linker_0, # of connection points: 2
#     Edge 19, Type (0, 1), BuildingBlock: CIFDUS_clean_linker_0, # of connection points: 2
#     Edge 20, Type (0, 1), BuildingBlock: CIFDUS_clean_linker_0, # of connection points: 2
#     Edge 21, Type (0, 1), BuildingBlock: CIFDUS_clean_linker_0, # of connection points: 2
#     Edge 22, Type (0, 1), BuildingBlock: CIFDUS_clean_linker_0, # of connection points: 2
#     Edge 23, Type (0, 1), BuildingBlock: CIFDUS_clean_linker_0, # of connection points: 2
#     Edge 24, Type (0, 1), BuildingBlock: CIFDUS_clean_linker_0, # of connection points: 2
#     Edge 25, Type (0, 1), BuildingBlock: CIFDUS_clean_linker_0, # of connection points: 2
#     Edge 26, Type (0, 1), BuildingBlock: CIFDUS_clean_linker_0, # of connection points: 2
#     Edge 27, Type (0, 1), BuildingBlock: CIFDUS_clean_linker_0, # of connection points: 2
#     Edge 28, Type (0, 1), BuildingBlock: CIFDUS_clean_linker_0, # of connection points: 2
#     Edge 29, Type (0, 1), BuildingBlock: CIFDUS_clean_linker_0, # of connection points: 2
#     Edge 30, Type (0, 1), BuildingBlock: CIFDUS_clean_linker_0, # of connection points: 2
#     Edge 31, Type (0, 1), BuildingBlock: CIFDUS_clean_linker_0, # of connection points: 2
#     Edge 32, Type (0, 1), BuildingBlock: CIFDUS_clean_linker_0, # of connection points: 2
#     Edge 33, Type (0, 1), BuildingBlock: CIFDUS_clean_linker_0, # of connection points: 2
#     Edge 34, Type (0, 1), BuildingBlock: CIFDUS_clean_linker_0, # of connection points: 2
#     Edge 35, Type (0, 1), BuildingBlock: CIFDUS_clean_linker_0, # of connection points: 2
# Relax obj value: 0.304
# Max RMSD: 0.191
# Mean RMSD: 0.180
data_MOF--net-dag--node1-MIDCAF_clean_sbu_0--node2-KAKCAD_clean_linker_0--edge1-CIFDUS_clean_linker_0
_symmetry_space_group_name_H-M    P1
_symmetry_Int_Tables_number       1
_symmetry_cell_setting            triclinic
loop_
_symmetry_equiv_pos_as_xyz
'x, y, z'
_cell_length_a     43.344927
_cell_length_b     44.594331
_cell_length_c     33.165536
_cell_angle_alpha  93.717751
_cell_angle_beta   90.108355
_cell_angle_gamma 90.139985
loop_
_atom_site_label
_atom_site_type_symbol
_atom_site_fract_x
_atom_site_fract_y
_atom_site_fract_z
_atom_type_partial_charge
Zn0 Zn 0.13002 0.79573 0.14517 0.0
Zn1 Zn 0.16859 0.85306 0.98604 0.0
Zn2 Zn 0.15622 0.84222 0.05709 0.0
C3 C 0.16363 0.90812 0.02425 0.0
C4 C 0.11707 0.81648 0.98193 0.0
O5 O 0.19167 0.81259 0.08021 0.0
O6 O 0.15281 0.78495 0.09406 0.0
C7 C 0.15338 0.85426 0.15826 0.0
O8 O 0.1645 0.89083 0.0536 0.0
O9 O 0.16113 0.8967 0.98859 0.0
O10 O 0.13808 0.8258 0.95968 0.0
O11 O 0.11787 0.82286 0.02029 0.0
O12 O 0.14565 0.83281 0.17953 0.0
O13 O 0.15443 0.84965 0.12002 0.0
O14 O 0.10588 0.82781 0.06181 0.0
O15 O 0.09042 0.80482 0.11745 0.0
C16 C 0.08467 0.81656 0.08427 0.0
O17 O 0.19797 0.81751 0.03636 0.0
O18 O 0.21124 0.83829 0.98047 0.0
C19 C 0.18118 0.79011 0.098 0.0
C20 C 0.21674 0.81994 0.00693 0.0
Zn21 Zn 0.62554 0.65957 0.42729 0.0
Zn22 Zn 0.67239 0.64074 0.55165 0.0
Zn23 Zn 0.649 0.64937 0.48973 0.0
C24 C 0.65794 0.58469 0.52314 0.0
C25 C 0.62302 0.67598 0.57256 0.0
O26 O 0.67497 0.68475 0.45998 0.0
O27 O 0.63707 0.70249 0.42429 0.0
C28 C 0.66 0.60768 0.41358 0.0
O29 O 0.65747 0.59972 0.4912 0.0
O30 O 0.66022 0.59845 0.55742 0.0
O31 O 0.65008 0.67234 0.58544 0.0
O32 O 0.61561 0.66488 0.53699 0.0
O33 O 0.65151 0.62995 0.39474 0.0
O34 O 0.65619 0.60801 0.45209 0.0
O35 O 0.5994 0.65954 0.50136 0.0
O36 O 0.58229 0.64908 0.43935 0.0
C37 C 0.57687 0.65456 0.47641 0.0
O38 O 0.69031 0.67815 0.49792 0.0
O39 O 0.71578 0.64965 0.53808 0.0
C40 C 0.66454 0.70457 0.43689 0.0
C41 C 0.71524 0.67208 0.51681 0.0
Zn42 Zn 0.88166 0.17177 0.93043 0.0
Zn43 Zn 0.81691 0.166 0.06233 0.0
Zn44 Zn 0.84992 0.16346 0.9938 0.0
C45 C 0.87773 0.17488 0.08611 0.0
C46 C 0.81002 0.1081 0.02022 0.0
O47 O 0.8289 0.1976 0.95518 0.0
O48 O 0.86319 0.20775 0.90874 0.0
C49 C 0.92323 0.1784 0.99245 0.0
O50 O 0.8809 0.17173 0.04734 0.0
O51 O 0.85124 0.17404 0.10175 0.0
O52 O 0.80108 0.12441 0.05054 0.0
O53 O 0.8298 0.11814 0.99539 0.0
O54 O 0.92292 0.1757 0.95439 0.0
O55 O 0.89803 0.17567 0.01246 0.0
O56 O 0.84884 0.11908 0.95948 0.0
O57 O 0.87066 0.13252 0.90308 0.0
C58 C 0.85776 0.11277 0.92286 0.0
O59 O 0.81241 0.19701 0.99115 0.0
O60 O 0.78847 0.19856 0.05021 0.0
C61 C 0.83719 0.21246 0.92482 0.0
C62 C 0.79124 0.20764 0.0152 0.0
Zn63 Zn 0.38804 0.35789 0.59863 0.0
Zn64 Zn 0.31831 0.35134 0.49453 0.0
Zn65 Zn 0.34692 0.35273 0.55708 0.0
C66 C 0.38107 0.35505 0.47464 0.0
C67 C 0.29566 0.40071 0.54371 0.0
O68 O 0.33814 0.31862 0.6008 0.0
O69 O 0.36186 0.34705 0.64782 0.0
C70 C 0.39007 0.30133 0.56196 0.0
O71 O 0.38275 0.35571 0.51303 0.0
O72 O 0.35496 0.3532 0.45755 0.0
O73 O 0.29322 0.38797 0.50866 0.0
O74 O 0.31529 0.39079 0.56867 0.0
O75 O 0.40838 0.32338 0.56759 0.0
O76 O 0.36088 0.30568 0.56705 0.0
O77 O 0.34531 0.39489 0.59566 0.0
O78 O 0.39534 0.4012 0.58955 0.0
C79 C 0.36933 0.41183 0.59992 0.0
O80 O 0.32225 0.30988 0.5623 0.0
O81 O 0.2977 0.31243 0.50403 0.0
C82 C 0.34302 0.32592 0.63859 0.0
C83 C 0.30257 0.29918 0.53598 0.0
C84 C 0.03932 0.17105 0.24686 0.0
C85 C 0.02065 0.14774 0.22968 0.0
C86 C 0.06161 0.16513 0.2761 0.0
C87 C 0.06532 0.13585 0.2889 0.0
C88 C 0.04521 0.11311 0.2733 0.0
C89 C 0.02341 0.11891 0.24383 0.0
C90 C 0.09147 0.12804 0.31563 0.0
C91 C 0.10096 0.14701 0.34914 0.0
C92 C 0.12577 0.13872 0.37388 0.0
C93 C 0.14085 0.11123 0.36458 0.0
C94 C 0.13176 0.09252 0.33137 0.0
C95 C 0.10746 0.10102 0.30691 0.0
C96 C 0.14731 0.06368 0.32194 0.0
C97 C 0.1677 0.06051 0.28925 0.0
C98 C 0.13916 0.03849 0.34273 0.0
C99 C 0.14957 0.00998 0.32914 0.0
C100 C 0.16833 0.00635 0.29461 0.0
C101 C 0.13743 0.15896 0.40817 0.0
C102 C 0.13949 0.19015 0.40465 0.0
C103 C 0.14954 0.14689 0.44313 0.0
C104 C 0.16534 0.16512 0.47222 0.0
C105 C 0.16864 0.19596 0.46758 0.0
C106 C 0.1548 0.20846 0.43416 0.0
C107 C 0.1784 0.03208 0.27592 0.0
H108 H 0.0375 0.19353 0.23652 0.0
H109 H 0.07674 0.18315 0.28736 0.0
H110 H 0.04675 0.0905 0.28324 0.0
H111 H 0.00883 0.1007 0.23172 0.0
H112 H 0.08876 0.16785 0.35629 0.0
H113 H 0.10118 0.0864 0.28077 0.0
H114 H 0.16038 0.10458 0.38237 0.0
H115 H 0.17428 0.07985 0.27304 0.0
H116 H 0.1233 0.04065 0.36795 0.0
H117 H 0.14113 0.99065 0.34399 0.0
H118 H 0.13077 0.20025 0.3781 0.0
H119 H 0.14766 0.1231 0.44749 0.0
H120 H 0.19327 0.03006 0.24968 0.0
H121 H 0.15726 0.2322 0.42972 0.0
H122 H 0.17552 0.15503 0.49794 0.0
C123 C 0.36881 0.55565 0.7997 0.0
C124 C 0.38921 0.53841 0.77494 0.0
C125 C 0.37979 0.58012 0.82419 0.0
C126 C 0.41135 0.58764 0.82442 0.0
C127 C 0.43194 0.56898 0.80193 0.0
C128 C 0.42098 0.54464 0.77743 0.0
C129 C 0.42181 0.61721 0.84258 0.0
C130 C 0.41062 0.62872 0.88008 0.0
C131 C 0.41495 0.65926 0.89302 0.0
C132 C 0.43266 0.67761 0.86865 0.0
C133 C 0.44508 0.66575 0.8321 0.0
C134 C 0.43961 0.63575 0.8193 0.0
C135 C 0.46148 0.68457 0.80428 0.0
C136 C 0.44548 0.69531 0.77137 0.0
C137 C 0.49376 0.68516 0.80464 0.0
C138 C 0.50991 0.69399 0.77098 0.0
C139 C 0.49395 0.7021 0.7363 0.0
C140 C 0.39707 0.6729 0.92804 0.0
C141 C 0.3673 0.66203 0.936 0.0
C142 C 0.40749 0.69901 0.95035 0.0
C143 C 0.38738 0.7156 0.97619 0.0
C144 C 0.35677 0.70606 0.98049 0.0
C145 C 0.34761 0.67823 0.96226 0.0
C146 C 0.4616 0.7041 0.73762 0.0
H147 H 0.34422 0.55131 0.79838 0.0
H148 H 0.36331 0.59429 0.84086 0.0
H149 H 0.45641 0.57401 0.80192 0.0
H150 H 0.4373 0.53123 0.75937 0.0
H151 H 0.3974 0.614 0.89823 0.0
H152 H 0.44781 0.6274 0.78979 0.0
H153 H 0.43545 0.7014 0.87664 0.0
H154 H 0.42049 0.69458 0.77044 0.0
H155 H 0.50642 0.67638 0.82948 0.0
H156 H 0.53479 0.69183 0.77086 0.0
H157 H 0.35788 0.64238 0.9195 0.0
H158 H 0.43053 0.70765 0.94607 0.0
H159 H 0.4487 0.71054 0.71156 0.0
H160 H 0.32409 0.67038 0.9653 0.0
H161 H 0.39495 0.73705 0.99001 0.0
C162 C 0.88471 0.82056 0.06476 0.0
C163 C 0.90505 0.84236 0.08244 0.0
C164 C 0.85352 0.82041 0.07582 0.0
C165 C 0.84238 0.84184 0.10496 0.0
C166 C 0.86254 0.86345 0.12274 0.0
C167 C 0.89355 0.86372 0.11165 0.0
C168 C 0.8093 0.84388 0.11464 0.0
C169 C 0.79755 0.83136 0.14911 0.0
C170 C 0.76755 0.83847 0.16267 0.0
C171 C 0.74939 0.85813 0.14112 0.0
C172 C 0.76103 0.87071 0.1065 0.0
C173 C 0.79088 0.86303 0.0932 0.0
C174 C 0.745 0.8958 0.0881 0.0
C175 C 0.74606 0.89824 0.04609 0.0
C176 C 0.73448 0.92039 0.11292 0.0
C177 C 0.7291 0.94801 0.09663 0.0
C178 C 0.73424 0.95143 0.05534 0.0
C179 C 0.75611 0.82727 0.20101 0.0
C180 C 0.75937 0.7969 0.20893 0.0
C181 C 0.74211 0.84704 0.23015 0.0
C182 C 0.73118 0.83658 0.26625 0.0
C183 C 0.73377 0.80604 0.27391 0.0
C184 C 0.74818 0.78636 0.2449 0.0
C185 C 0.74082 0.92588 0.02983 0.0
H186 H 0.89281 0.8039 0.04205 0.0
H187 H 0.83806 0.80386 0.06139 0.0
H188 H 0.85415 0.88037 0.14497 0.0
H189 H 0.90861 0.88046 0.12643 0.0
H190 H 0.81234 0.81749 0.16657 0.0
H191 H 0.80091 0.87389 0.06797 0.0
H192 H 0.7265 0.86426 0.15185 0.0
H193 H 0.75352 0.87942 0.02621 0.0
H194 H 0.73348 0.91924 0.14542 0.0
H195 H 0.72409 0.9673 0.11708 0.0
H196 H 0.76995 0.78117 0.18688 0.0
H197 H 0.73984 0.87071 0.22517 0.0
H198 H 0.74436 0.92781 0.99778 0.0
H199 H 0.75007 0.7626 0.24941 0.0
H200 H 0.72067 0.85245 0.28817 0.0
C201 C 0.55345 0.2542 0.60284 0.0
C202 C 0.54814 0.24586 0.56166 0.0
C203 C 0.58265 0.26353 0.61649 0.0
C204 C 0.60722 0.2653 0.58931 0.0
C205 C 0.60272 0.25523 0.54875 0.0
C206 C 0.57362 0.24517 0.53518 0.0
C207 C 0.63606 0.28094 0.60267 0.0
C208 C 0.65113 0.27334 0.63808 0.0
C209 C 0.67586 0.2908 0.65408 0.0
C210 C 0.68522 0.31629 0.63439 0.0
C211 C 0.67008 0.32445 0.5992 0.0
C212 C 0.64603 0.30619 0.58301 0.0
C213 C 0.67628 0.35401 0.5825 0.0
C214 C 0.67696 0.38015 0.60853 0.0
C215 C 0.67852 0.3568 0.54057 0.0
C216 C 0.68035 0.38525 0.52499 0.0
C217 C 0.67937 0.41132 0.55108 0.0
C218 C 0.69084 0.28329 0.69246 0.0
C219 C 0.67292 0.27573 0.72562 0.0
C220 C 0.72311 0.2836 0.6962 0.0
C221 C 0.73718 0.27593 0.73206 0.0
C222 C 0.71931 0.26808 0.76523 0.0
C223 C 0.68698 0.26831 0.76162 0.0
C224 C 0.6783 0.40847 0.59297 0.0
H225 H 0.5347 0.2557 0.62435 0.0
H226 H 0.58544 0.27141 0.64789 0.0
H227 H 0.62147 0.25608 0.52729 0.0
H228 H 0.57086 0.23818 0.50351 0.0
H229 H 0.64332 0.25397 0.65339 0.0
H230 H 0.63339 0.31297 0.55688 0.0
H231 H 0.70353 0.33048 0.64733 0.0
H232 H 0.67495 0.3788 0.64092 0.0
H233 H 0.67815 0.33701 0.51984 0.0
H234 H 0.6812 0.38692 0.49257 0.0
H235 H 0.64797 0.27582 0.72386 0.0
H236 H 0.73751 0.28909 0.67104 0.0
H237 H 0.67776 0.42826 0.61371 0.0
H238 H 0.67246 0.26286 0.78666 0.0
H239 H 0.76214 0.27541 0.73332 0.0
C240 C 0.67624 0.46088 0.253 0.0
C241 C 0.68894 0.45426 0.29056 0.0
C242 C 0.66382 0.43803 0.22709 0.0
C243 C 0.66389 0.40836 0.23841 0.0
C244 C 0.67984 0.40122 0.27336 0.0
C245 C 0.69255 0.424 0.29911 0.0
C246 C 0.6409 0.38707 0.22066 0.0
C247 C 0.64389 0.37375 0.18161 0.0
C248 C 0.62135 0.35338 0.16587 0.0
C249 C 0.59555 0.34691 0.18975 0.0
C250 C 0.59218 0.36071 0.22892 0.0
C251 C 0.61497 0.38096 0.24366 0.0
C252 C 0.56498 0.35494 0.2548 0.0
C253 C 0.53527 0.35123 0.2382 0.0
C254 C 0.56833 0.35553 0.29707 0.0
C255 C 0.54262 0.35502 0.32215 0.0
C256 C 0.51269 0.35271 0.30579 0.0
C257 C 0.62667 0.33691 0.12618 0.0
C258 C 0.63913 0.35171 0.09372 0.0
C259 C 0.62323 0.30557 0.12228 0.0
C260 C 0.63488 0.28911 0.08849 0.0
C261 C 0.65021 0.30366 0.05781 0.0
C262 C 0.65074 0.33524 0.0598 0.0
C263 C 0.50949 0.34978 0.26337 0.0
H264 H 0.67286 0.48389 0.24539 0.0
H265 H 0.65132 0.44395 0.20042 0.0
H266 H 0.68005 0.37833 0.28251 0.0
H267 H 0.70281 0.41812 0.32733 0.0
H268 H 0.66429 0.37845 0.16422 0.0
H269 H 0.61242 0.39275 0.27309 0.0
H270 H 0.57841 0.33091 0.17801 0.0
H271 H 0.5317 0.3506 0.20585 0.0
H272 H 0.5909 0.35733 0.31109 0.0
H273 H 0.54643 0.35761 0.35443 0.0
H274 H 0.64143 0.37596 0.09555 0.0
H275 H 0.61387 0.29347 0.14679 0.0
H276 H 0.487 0.34697 0.24939 0.0
H277 H 0.66186 0.34715 0.03635 0.0
H278 H 0.63427 0.26483 0.08835 0.0
C279 C 0.10661 0.24077 0.98301 0.0
C280 C 0.09592 0.22883 0.01855 0.0
C281 C 0.13818 0.24196 0.97514 0.0
C282 C 0.15941 0.23116 0.00282 0.0
C283 C 0.14874 0.22466 0.04144 0.0
C284 C 0.11706 0.2231 0.04908 0.0
C285 C 0.18916 0.2184 0.98734 0.0
C286 C 0.20613 0.23227 0.9577 0.0
C287 C 0.22878 0.21627 0.93469 0.0
C288 C 0.23521 0.18626 0.94315 0.0
C289 C 0.21904 0.17235 0.97373 0.0
C290 C 0.19645 0.18882 0.99569 0.0
C291 C 0.22123 0.13945 0.97911 0.0
C292 C 0.22078 0.11872 0.94538 0.0
C293 C 0.2181 0.12854 0.01783 0.0
C294 C 0.21133 0.09826 0.02244 0.0
C295 C 0.20803 0.07799 0.98844 0.0
C296 C 0.24362 0.23019 0.89976 0.0
C297 C 0.22644 0.24905 0.87564 0.0
C298 C 0.27482 0.2248 0.89001 0.0
C299 C 0.28856 0.23841 0.85758 0.0
C300 C 0.2714 0.25768 0.83445 0.0
C301 C 0.24026 0.2628 0.84356 0.0
C302 C 0.21446 0.08834 0.95003 0.0
H303 H 0.09056 0.24538 0.9591 0.0
H304 H 0.14542 0.24738 0.94523 0.0
H305 H 0.16465 0.21706 0.06382 0.0
H306 H 0.10925 0.21391 0.07675 0.0
H307 H 0.20063 0.25519 0.95142 0.0
H308 H 0.18213 0.17735 0.0166 0.0
H309 H 0.25174 0.17331 0.92488 0.0
H310 H 0.22309 0.1262 0.91511 0.0
H311 H 0.21888 0.14385 0.04454 0.0
H312 H 0.20676 0.09127 0.05251 0.0
H313 H 0.20218 0.25314 0.88133 0.0
H314 H 0.28882 0.21058 0.90792 0.0
H315 H 0.2132 0.07321 0.92319 0.0
H316 H 0.22667 0.27759 0.82594 0.0
H317 H 0.31273 0.23437 0.85101 0.0
C318 C 0.38192 0.7019 0.48094 0.0
C319 C 0.39699 0.67803 0.49854 0.0
C320 C 0.35075 0.69949 0.46974 0.0
C321 C 0.33403 0.67294 0.47525 0.0
C322 C 0.34895 0.64968 0.49442 0.0
C323 C 0.37966 0.65245 0.50656 0.0
C324 C 0.30208 0.66826 0.45874 0.0
C325 C 0.29318 0.68021 0.42219 0.0
C326 C 0.26506 0.67182 0.4034 0.0
C327 C 0.24591 0.65084 0.42111 0.0
C328 C 0.25427 0.63881 0.45761 0.0
C329 C 0.28161 0.64871 0.47697 0.0
C330 C 0.23801 0.61221 0.47222 0.0
C331 C 0.23415 0.609 0.51382 0.0
C332 C 0.23171 0.58748 0.44502 0.0
C333 C 0.22502 0.55942 0.45924 0.0
C334 C 0.22438 0.55544 0.501 0.0
C335 C 0.2566 0.68342 0.36389 0.0
C336 C 0.25934 0.71417 0.35751 0.0
C337 C 0.24543 0.66377 0.33238 0.0
C338 C 0.23633 0.67471 0.29572 0.0
C339 C 0.23793 0.70562 0.28975 0.0
C340 C 0.25 0.72519 0.32085 0.0
C341 C 0.22742 0.58088 0.52809 0.0
H342 H 0.39447 0.72196 0.4741 0.0
H343 H 0.34008 0.71817 0.45585 0.0
H344 H 0.33755 0.62853 0.49867 0.0
H345 H 0.39011 0.63387 0.52098 0.0
H346 H 0.30882 0.69465 0.4069 0.0
H347 H 0.28793 0.63944 0.50517 0.0
H348 H 0.22471 0.64343 0.40616 0.0
H349 H 0.23833 0.62783 0.53546 0.0
H350 H 0.23472 0.58908 0.41281 0.0
H351 H 0.22307 0.54038 0.43739 0.0
H352 H 0.26782 0.72984 0.38133 0.0
H353 H 0.24373 0.63986 0.33605 0.0
H354 H 0.22639 0.57873 0.5604 0.0
H355 H 0.25125 0.74915 0.31744 0.0
H356 H 0.2278 0.6589 0.27211 0.0
C357 C 0.02555 0.79774 0.77353 0.0
C358 C 0.01348 0.77734 0.8 0.0
C359 C 0.00595 0.81246 0.74789 0.0
C360 C 0.97423 0.80636 0.74778 0.0
C361 C 0.96267 0.7838 0.77133 0.0
C362 C 0.98214 0.76961 0.79768 0.0
C363 C 0.95242 0.82691 0.72969 0.0
C364 C 0.9306 0.81575 0.7015 0.0
C365 C 0.90594 0.83378 0.69032 0.0
C366 C 0.90303 0.86297 0.70872 0.0
C367 C 0.92419 0.87433 0.73829 0.0
C368 C 0.94986 0.85643 0.7467 0.0
C369 C 0.91724 0.90269 0.76374 0.0
C370 C 0.89724 0.92464 0.74992 0.0
C371 C 0.92834 0.90694 0.80366 0.0
C372 C 0.91958 0.93185 0.82872 0.0
C373 C 0.89798 0.9529 0.81586 0.0
C374 C 0.88097 0.82056 0.66395 0.0
C375 C 0.88763 0.79954 0.63164 0.0
C376 C 0.84995 0.82697 0.67321 0.0
C377 C 0.82629 0.81171 0.6522 0.0
C378 C 0.83295 0.78906 0.62212 0.0
C379 C 0.86382 0.78382 0.61101 0.0
C380 C 0.8871 0.94864 0.77568 0.0
H381 H 0.04961 0.80435 0.77534 0.0
H382 H 0.01518 0.82995 0.73013 0.0
H383 H 0.93815 0.77904 0.77193 0.0
H384 H 0.9724 0.75419 0.81819 0.0
H385 H 0.93199 0.79245 0.69013 0.0
H386 H 0.96703 0.86444 0.76857 0.0
H387 H 0.88314 0.87605 0.70132 0.0
H388 H 0.88873 0.92334 0.7192 0.0
H389 H 0.9433 0.89074 0.81659 0.0
H390 H 0.93001 0.93399 0.85833 0.0
H391 H 0.91127 0.79445 0.62326 0.0
H392 H 0.84372 0.8426 0.69817 0.0
H393 H 0.87032 0.96331 0.76334 0.0
H394 H 0.86969 0.76647 0.58795 0.0
H395 H 0.80268 0.81668 0.6609 0.0
H396 H 0.17046 0.8689 0.23629 0.0
H397 H 0.15001 0.90735 0.12332 0.0
H398 H 0.15747 0.95762 0.15443 0.0
H399 H 0.16398 0.99067 0.21489 0.0
H400 H 0.18214 0.95362 0.32954 0.0
H401 H 0.18112 0.90276 0.29679 0.0
C402 C 0.16796 0.88832 0.2185 0.0
C403 C 0.16015 0.88437 0.1773 0.0
C404 C 0.17151 0.91739 0.23702 0.0
C405 C 0.15693 0.90969 0.15463 0.0
C406 C 0.1608 0.93852 0.17258 0.0
C407 C 0.16864 0.9716 0.23266 0.0
C408 C 0.17312 0.97596 0.2746 0.0
C409 C 0.16751 0.94262 0.21386 0.0
C410 C 0.17836 0.95084 0.29722 0.0
C411 C 0.17775 0.92179 0.27853 0.0
H412 H 0.56093 0.66709 0.57352 0.0
H413 H 0.63435 0.71696 0.63492 0.0
H414 H 0.59904 0.7339 0.68879 0.0
H415 H 0.54941 0.72852 0.72292 0.0
H416 H 0.47643 0.67721 0.6624 0.0
H417 H 0.50879 0.66833 0.60282 0.0
C418 C 0.56885 0.68261 0.59779 0.0
C419 C 0.60015 0.69066 0.60024 0.0
C420 C 0.54847 0.69197 0.62901 0.0
C421 C 0.61036 0.71016 0.63259 0.0
C422 C 0.59021 0.71987 0.66343 0.0
C423 C 0.54044 0.71583 0.69642 0.0
C424 C 0.51074 0.70322 0.69741 0.0
C425 C 0.55952 0.70995 0.66272 0.0
C426 C 0.49917 0.68732 0.66252 0.0
C427 C 0.51781 0.68189 0.62853 0.0
H428 H 0.75314 0.08969 0.04103 0.0
H429 H 0.83905 0.05752 0.99054 0.0
H430 H 0.82021 0.00575 0.98899 0.0
H431 H 0.78239 0.96978 0.01184 0.0
H432 H 0.69838 0.00162 0.0693 0.0
H433 H 0.71326 0.05356 0.05879 0.0
C434 C 0.76753 0.07132 0.02913 0.0
C435 C 0.79735 0.07732 0.01488 0.0
C436 C 0.7569 0.04165 0.03031 0.0
C437 C 0.81574 0.05344 0.99978 0.0
C438 C 0.80507 0.02385 0.99975 0.0
C439 C 0.76683 0.988 0.02087 0.0
C440 C 0.73927 0.98191 0.04122 0.0
C441 C 0.77604 0.01769 0.01599 0.0
C442 C 0.71971 0.00581 0.05362 0.0
C443 C 0.72829 0.03545 0.04778 0.0
H444 H 0.4212 0.28269 0.49607 0.0
H445 H 0.39375 0.25598 0.61294 0.0
H446 H 0.44176 0.22771 0.61857 0.0
H447 H 0.49658 0.22437 0.59929 0.0
H448 H 0.52588 0.26129 0.48813 0.0
H449 H 0.47278 0.27082 0.47073 0.0
C450 C 0.42513 0.26928 0.52175 0.0
C451 C 0.40442 0.27174 0.55431 0.0
C452 C 0.45401 0.25583 0.52642 0.0
C453 C 0.40937 0.2543 0.58742 0.0
C454 C 0.43725 0.2388 0.59105 0.0
C455 C 0.49143 0.23419 0.57101 0.0
C456 C 0.51574 0.24297 0.54594 0.0
C457 C 0.4607 0.24166 0.56228 0.0
C458 C 0.50816 0.25431 0.50847 0.0
C459 C 0.47756 0.26013 0.49851 0.0
H460 H 0.65758 0.54909 0.4307 0.0
H461 H 0.69299 0.60853 0.34439 0.0
H462 H 0.71102 0.56562 0.30151 0.0
H463 H 0.71069 0.51132 0.28473 0.0
H464 H 0.67257 0.45205 0.36983 0.0
H465 H 0.66368 0.49449 0.41806 0.0
C466 C 0.67021 0.55258 0.40327 0.0
C467 C 0.67394 0.58177 0.3907 0.0
C468 C 0.68024 0.52778 0.37857 0.0
C469 C 0.68951 0.58612 0.35439 0.0
C470 C 0.69995 0.56164 0.32995 0.0
C471 C 0.70092 0.50765 0.3141 0.0
C472 C 0.69191 0.47857 0.3232 0.0
C473 C 0.69452 0.53234 0.34112 0.0
C474 C 0.67995 0.47411 0.36185 0.0
C475 C 0.67439 0.49847 0.38939 0.0
H476 H 0.97759 0.15444 0.97226 0.0
H477 H 0.9351 0.21955 0.05595 0.0
H478 H 0.98616 0.23976 0.07573 0.0
H479 H 0.04261 0.24346 0.06064 0.0
H480 H 0.08271 0.17898 0.97355 0.0
H481 H 0.03304 0.15404 0.96336 0.0
C482 C 0.9796 0.17266 0.99547 0.0
C483 C 0.95289 0.1857 0.01244 0.0
C484 C 0.00863 0.18467 0.00534 0.0
C485 C 0.95554 0.2091 0.04269 0.0
C486 C 0.98468 0.22086 0.05357 0.0
C487 C 0.04029 0.22375 0.03992 0.0
C488 C 0.06587 0.2133 0.01717 0.0
C489 C 0.01133 0.20964 0.03377 0.0
C490 C 0.06301 0.18758 0.99071 0.0
C491 C 0.03472 0.17328 0.98498 0.0
H492 H 0.24263 0.41736 0.50851 0.0
H493 H 0.30954 0.44778 0.59826 0.0
H494 H 0.28949 0.49887 0.59781 0.0
H495 H 0.25983 0.53585 0.5619 0.0
H496 H 0.19267 0.5052 0.47202 0.0
H497 H 0.20575 0.45311 0.48275 0.0
C498 C 0.25241 0.43505 0.52866 0.0
C499 C 0.27833 0.429 0.55246 0.0
C500 C 0.24095 0.46438 0.5277 0.0
C501 C 0.29011 0.45192 0.57914 0.0
C502 C 0.27866 0.48121 0.5787 0.0
C503 C 0.24719 0.51785 0.54565 0.0
C504 C 0.22578 0.52453 0.51544 0.0
C505 C 0.2551 0.48792 0.55161 0.0
C506 C 0.2098 0.50075 0.49468 0.0
C507 C 0.21726 0.47094 0.50081 0.0
H508 H 0.12098 0.77332 0.9224 0.0
H509 H 0.05584 0.82702 0.99271 0.0
H510 H 0.01447 0.8112 0.94612 0.0
H511 H 0.00052 0.79269 0.87733 0.0
H512 H 0.06854 0.74781 0.8007 0.0
H513 H 0.10528 0.74937 0.85704 0.0
C514 C 0.09743 0.78062 0.92812 0.0
C515 C 0.09108 0.80055 0.96164 0.0
C516 C 0.07459 0.77357 0.89913 0.0
C517 C 0.0608 0.8104 0.96858 0.0
C518 C 0.03738 0.80199 0.94113 0.0
C519 C 0.02299 0.78221 0.87359 0.0
C520 C 0.032 0.77005 0.83529 0.0
C521 C 0.04443 0.78497 0.90526 0.0
C522 C 0.06129 0.75713 0.83014 0.0
C523 C 0.08226 0.75825 0.86221 0.0
H524 H 0.87911 0.06013 0.94886 0.0
H525 H 0.8336 0.099 0.84929 0.0
H526 H 0.84136 0.05272 0.80714 0.0
H527 H 0.86657 0.00468 0.79694 0.0
H528 H 0.90376 0.96157 0.90004 0.0
H529 H 0.89335 0.00629 0.94246 0.0
C530 C 0.86903 0.05774 0.9189 0.0
C531 C 0.85486 0.08253 0.90265 0.0
C532 C 0.87305 0.0308 0.895 0.0
C533 C 0.84408 0.07993 0.86262 0.0
C534 C 0.84875 0.05358 0.83843 0.0
C535 C 0.8719 0.00394 0.82864 0.0
C536 C 0.88755 0.97917 0.8437 0.0
C537 C 0.8641 0.0292 0.854 0.0
C538 C 0.89364 0.98025 0.88574 0.0
C539 C 0.88713 0.0059 0.91075 0.0
H540 H 0.3863 0.3729 0.3987 0.0
H541 H 0.43892 0.33644 0.49451 0.0
H542 H 0.48379 0.33083 0.45001 0.0
H543 H 0.50701 0.3344 0.38315 0.0
H544 H 0.45585 0.37664 0.29015 0.0
H545 H 0.4111 0.38078 0.334 0.0
C546 C 0.40766 0.36388 0.4099 0.0
C547 C 0.40921 0.35474 0.44961 0.0
C548 C 0.43343 0.36126 0.38447 0.0
C549 C 0.43713 0.34354 0.46399 0.0
C550 C 0.46273 0.34021 0.4385 0.0
C551 C 0.48639 0.34505 0.37243 0.0
C552 C 0.4851 0.35482 0.33281 0.0
C553 C 0.46102 0.34875 0.39853 0.0
C554 C 0.4576 0.36795 0.31977 0.0
C555 C 0.43197 0.37078 0.3451 0.0
H556 H 0.14546 0.94979 0.97424 0.0
H557 H 0.19479 0.94017 0.08562 0.0
H558 H 0.21245 0.99255 0.08527 0.0
H559 H 0.21816 0.03926 0.04893 0.0
H560 H 0.16766 0.04747 0.93767 0.0
H561 H 0.14705 0.99715 0.94184 0.0
C562 C 0.15976 0.95923 0.99881 0.0
C563 C 0.16901 0.94102 0.02972 0.0
C564 C 0.17035 0.98889 0.99781 0.0
C565 C 0.18719 0.95373 0.06157 0.0
C566 C 0.19759 0.98357 0.06107 0.0
C567 C 0.20242 0.0302 0.02578 0.0
C568 C 0.19527 0.04712 0.9924 0.0
C569 C 0.19005 0.0011 0.02864 0.0
C570 C 0.17466 0.0348 0.96289 0.0
C571 C 0.16244 0.00607 0.96549 0.0
H572 H 0.54129 0.70048 0.50812 0.0
H573 H 0.5406 0.60587 0.47231 0.0
H574 H 0.48462 0.60427 0.47977 0.0
H575 H 0.43612 0.63085 0.48706 0.0
H576 H 0.43507 0.72569 0.52284 0.0
H577 H 0.49155 0.72626 0.52428 0.0
C578 C 0.52878 0.67947 0.50311 0.0
C579 C 0.54474 0.65324 0.48999 0.0
C580 C 0.4964 0.67891 0.50652 0.0
C581 C 0.52857 0.62618 0.48277 0.0
C582 C 0.49662 0.62532 0.48675 0.0
C583 C 0.44798 0.65158 0.49644 0.0
C584 C 0.43112 0.67823 0.50459 0.0
C585 C 0.48026 0.65173 0.49728 0.0
C586 C 0.44734 0.70491 0.51564 0.0
C587 C 0.47967 0.70524 0.5167 0.0
H588 H 0.33874 0.42585 0.66962 0.0
H589 H 0.40002 0.46228 0.58292 0.0
H590 H 0.4093 0.50654 0.62876 0.0
H591 H 0.40513 0.53148 0.69633 0.0
H592 H 0.34653 0.49404 0.78526 0.0
H593 H 0.33075 0.45366 0.73575 0.0
C594 C 0.35338 0.44396 0.66047 0.0
C595 C 0.36863 0.44107 0.62306 0.0
C596 C 0.35954 0.46876 0.68767 0.0
C597 C 0.38801 0.46425 0.61159 0.0
C598 C 0.39348 0.48938 0.63787 0.0
C599 C 0.38889 0.51446 0.70485 0.0
C600 C 0.37752 0.51527 0.74455 0.0
C601 C 0.38032 0.49127 0.67652 0.0
C602 C 0.35577 0.49368 0.75492 0.0
C603 C 0.34681 0.47061 0.72666 0.0
H604 H 0.04835 0.86429 0.07022 0.0
H605 H 0.04817 0.76786 0.07296 0.0
H606 H 0.99193 0.76688 0.06745 0.0
H607 H 0.94289 0.79395 0.07182 0.0
H608 H 0.94245 0.89061 0.07053 0.0
H609 H 0.99866 0.89107 0.06531 0.0
C610 C 0.0359 0.84311 0.06845 0.0
C611 C 0.05212 0.81617 0.07176 0.0
C612 C 0.00347 0.8428 0.06628 0.0
C613 C 0.03596 0.78881 0.07019 0.0
C614 C 0.00386 0.78826 0.06727 0.0
C615 C 0.95498 0.81507 0.06936 0.0
C616 C 0.93849 0.84222 0.07235 0.0
C617 C 0.98732 0.81519 0.06676 0.0
C618 C 0.95465 0.86941 0.06932 0.0
C619 C 0.9868 0.8697 0.06619 0.0
H620 H 0.69607 0.54143 0.48886 0.0
H621 H 0.61212 0.55495 0.55696 0.0
H622 H 0.61016 0.50162 0.56928 0.0
H623 H 0.63518 0.4525 0.5671 0.0
H624 H 0.71898 0.43759 0.49931 0.0
H625 H 0.71802 0.48983 0.4797 0.0
C626 C 0.67691 0.53236 0.50524 0.0
C627 C 0.65403 0.55184 0.52162 0.0
C628 C 0.6762 0.50159 0.51274 0.0
C629 C 0.62973 0.54017 0.54374 0.0
C630 C 0.62872 0.50977 0.55102 0.0
C631 C 0.65308 0.46069 0.54776 0.0
C632 C 0.67739 0.44158 0.5352 0.0
C633 C 0.65231 0.4905 0.53676 0.0
C634 C 0.70017 0.4521 0.50952 0.0
C635 C 0.69965 0.48193 0.49847 0.0
H636 H 0.93085 0.14306 0.07935 0.0
H637 H 0.88479 0.21175 0.15397 0.0
H638 H 0.92682 0.21181 0.20343 0.0
H639 H 0.97444 0.18895 0.22842 0.0
H640 H 0.01795 0.11724 0.15626 0.0
H641 H 0.97952 0.12174 0.10289 0.0
C642 C 0.93039 0.1584 0.1061 0.0
C643 C 0.90496 0.17752 0.113 0.0
C644 C 0.95408 0.15752 0.13505 0.0
C645 C 0.90423 0.19689 0.1481 0.0
C646 C 0.9282 0.19687 0.17639 0.0
C647 C 0.97566 0.17467 0.20072 0.0
C648 C -0.00113 0.15277 0.19622 0.0
C649 C 0.95291 0.17679 0.17067 0.0
C650 C 0.00011 0.13413 0.16042 0.0
C651 C 0.97817 0.1367 0.12992 0.0
H652 H 0.16338 0.74256 0.13774 0.0
H653 H 0.23713 0.80729 0.1325 0.0
H654 H 0.26195 0.78626 0.19101 0.0
H655 H 0.26122 0.75041 0.24528 0.0
H656 H 0.18539 0.68766 0.25018 0.0
H657 H 0.16298 0.70698 0.18994 0.0
C658 C 0.18495 0.75212 0.14926 0.0
C659 C 0.19824 0.77663 0.13103 0.0
C660 C 0.19869 0.74026 0.1829 0.0
C661 C 0.22639 0.78845 0.14605 0.0
C662 C 0.24048 0.7765 0.17958 0.0
C663 C 0.23975 0.74106 0.23321 0.0
C664 C 0.22517 0.71742 0.25222 0.0
C665 C 0.22659 0.75261 0.19859 0.0
C666 C 0.19749 0.7054 0.23588 0.0
C667 C 0.18448 0.71658 0.20154 0.0
H668 H 0.72226 0.69994 0.58829 0.0
H669 H 0.75985 0.69547 0.4681 0.0
H670 H 0.79895 0.73337 0.48941 0.0
H671 H 0.82363 0.76594 0.54419 0.0
H672 H 0.78681 0.76572 0.66521 0.0
H673 H 0.74627 0.73134 0.64175 0.0
C674 C 0.73896 0.70748 0.56673 0.0
C675 C 0.73804 0.69567 0.52665 0.0
C676 C 0.76155 0.72825 0.57953 0.0
C677 C 0.75966 0.70516 0.4988 0.0
C678 C 0.7822 0.72645 0.5112 0.0
C679 C 0.80668 0.75835 0.56529 0.0
C680 C 0.80799 0.76882 0.60627 0.0
C681 C 0.78354 0.73793 0.55172 0.0
C682 C 0.78589 0.75875 0.63333 0.0
C683 C 0.76282 0.73885 0.62007 0.0
H684 H 0.73231 0.19881 0.99323 0.0
H685 H 0.80188 0.26728 0.01243 0.0
H686 H 0.76197 0.30614 0.01773 0.0
H687 H 0.70819 0.31785 0.03443 0.0
H688 H 0.63838 0.24893 0.01774 0.0
H689 H 0.67743 0.21298 0.99289 0.0
C690 C 0.7386 0.22241 0.99682 0.0
C691 C 0.76963 0.23047 0.00284 0.0
C692 C 0.71551 0.24433 1.00111 0.0
C693 C 0.77796 0.26085 0.00766 0.0
C694 C 0.75514 0.28295 0.01109 0.0
C695 C 0.70115 0.29538 0.02371 0.0
C696 C 0.67052 0.28582 0.02926 0.0
C697 C 0.72385 0.27466 0.01047 0.0
C698 C 0.66197 0.25659 0.01498 0.0
C699 C 0.6843 0.236 1.00084 0.0
H700 H 0.33477 0.3446 0.71709 0.0
H701 H 0.31911 0.269 0.6316 0.0
H702 H 0.29632 0.24066 0.68497 0.0
H703 H 0.28062 0.23751 0.75645 0.0
H704 H 0.29436 0.31406 0.84059 0.0
H705 H 0.31808 0.34201 0.78741 0.0
C706 C 0.32645 0.32188 0.71018 0.0
C707 C 0.32875 0.30886 0.67054 0.0
C708 C 0.31302 0.30594 0.74083 0.0
C709 C 0.3175 0.27956 0.66188 0.0
C710 C 0.30455 0.26331 0.6924 0.0
C711 C 0.289 0.26026 0.76291 0.0
C712 C 0.2862 0.27379 0.80216 0.0
C713 C 0.30219 0.27627 0.73201 0.0
C714 C 0.29665 0.30332 0.81049 0.0
C715 C 0.31011 0.31924 0.78015 0.0
H716 H 0.64968 0.75875 0.41066 0.0
H717 H 0.72464 0.69606 0.41691 0.0
H718 H 0.75503 0.72476 0.37076 0.0
H719 H 0.75691 0.76331 0.32104 0.0
H720 H 0.67908 0.82248 0.30965 0.0
H721 H 0.65334 0.79982 0.36533 0.0
C722 C 0.67303 0.75192 0.40275 0.0
C723 C 0.68528 0.72576 0.4179 0.0
C724 C 0.68957 0.76761 0.3745 0.0
C725 C 0.71533 0.71685 0.40709 0.0
C726 C 0.73238 0.73288 0.3799 0.0
C727 C 0.73437 0.77132 0.33082 0.0
C728 C 0.71989 0.79439 0.3108 0.0
C729 C 0.71923 0.75761 0.36224 0.0
C730 C 0.69096 0.80494 0.32456 0.0
C731 C 0.67606 0.79184 0.35629 0.0
H732 H 0.77673 0.20163 0.90987 0.0
H733 H 0.84941 0.26568 0.89296 0.0
H734 H 0.81722 0.29123 0.84527 0.0
H735 H 0.77151 0.29102 0.80176 0.0
H736 H 0.70126 0.22329 0.81309 0.0
H737 H 0.72894 0.20398 0.86994 0.0
C738 C 0.78506 0.22173 0.89662 0.0
C739 C 0.81528 0.23189 0.90482 0.0
C740 C 0.76701 0.23534 0.86767 0.0
C741 C 0.82615 0.25758 0.88701 0.0
C742 C 0.80786 0.27201 0.85955 0.0
C743 C 0.76221 0.27203 0.81661 0.0
C744 C 0.73449 0.25846 0.80265 0.0
C745 C 0.77879 0.26031 0.8484 0.0
C746 C 0.72242 0.23438 0.82315 0.0
C747 C 0.73836 0.22313 0.85558 0.0
H748 H 0.24308 0.30143 0.55365 0.0
H749 H 0.31781 0.23973 0.52886 0.0
H750 H 0.28077 0.19915 0.51138 0.0
H751 H 0.22785 0.18509 0.48909 0.0
H752 H 0.15424 0.24941 0.50712 0.0
H753 H 0.18984 0.2852 0.54152 0.0
C754 C 0.25109 0.27869 0.54621 0.0
C755 C 0.28287 0.27326 0.54281 0.0
C756 C 0.22978 0.25629 0.53385 0.0
C757 C 0.29335 0.24409 0.53233 0.0
C758 C 0.27216 0.22113 0.52166 0.0
C759 C 0.21951 0.20663 0.50165 0.0
C760 C 0.1886 0.21485 0.49529 0.0
C761 C 0.24041 0.22747 0.52012 0.0
C762 C 0.17803 0.24285 0.5113 0.0
C763 C 0.19835 0.26325 0.53095 0.0
H764 H 0.26314 0.8029 0.05705 0.0
H765 H 0.22354 0.78664 0.93814 0.0
H766 H 0.26249 0.74883 0.9209 0.0
H767 H 0.30833 0.72188 0.93802 0.0
H768 H 0.3522 0.73911 0.05383 0.0
H769 H 0.3114 0.77551 0.07402 0.0
C770 C 0.26327 0.79095 0.02751 0.0
C771 C 0.24084 0.79746 0.99868 0.0
C772 C 0.28645 0.7697 0.01729 0.0
C773 C 0.24095 0.7821 0.96045 0.0
C774 C 0.26308 0.76048 0.95062 0.0
C775 C 0.30875 0.73331 0.96794 0.0
C776 C 0.33267 0.72753 0.99477 0.0
C777 C 0.28599 0.75432 0.97861 0.0
C778 C 0.33366 0.74311 0.03293 0.0
C779 C 0.31041 0.76383 0.04436 0.0
loop_
_geom_bond_atom_site_label_1
_geom_bond_atom_site_label_2
_geom_bond_distance
_geom_bond_site_symmetry_2
_ccdc_geom_bond_type
Zn0 O6 1.920 . S
Zn0 O12 1.898 . S
Zn0 O15 1.905 . S
Zn1 O9 1.905 . S
Zn1 O10 1.898 . S
Zn1 O18 1.920 . S
Zn2 O5 2.080 . S
Zn2 O8 2.114 . S
Zn2 O11 2.120 . S
Zn2 O13 2.120 . S
Zn2 O14 2.114 . S
Zn2 O17 2.080 . S
C3 O8 1.166 . S
C3 O9 1.182 1_554 S
C4 O10 1.167 . S
C4 O11 1.299 1_556 S
O5 Zn2 2.080 . S
O5 C19 1.305 . S
O6 Zn0 1.920 . S
O6 C19 1.234 . S
C7 O12 1.167 . S
C7 O13 1.299 . S
O8 Zn2 2.114 . S
O8 C3 1.166 . S
O9 Zn1 1.905 . S
O9 C3 1.182 1_556 S
O10 Zn1 1.898 . S
O10 C4 1.167 . S
O11 Zn2 2.120 . S
O11 C4 1.299 1_554 S
O12 Zn0 1.898 . S
O12 C7 1.167 . S
O13 Zn2 2.120 . S
O13 C7 1.299 . S
O14 Zn2 2.114 . S
O14 C16 1.166 . S
O15 Zn0 1.905 . S
O15 C16 1.182 . S
C16 O14 1.166 . S
C16 O15 1.182 . S
O17 Zn2 2.080 . S
O17 C20 1.305 . S
O18 Zn1 1.920 . S
O18 C20 1.234 1_556 S
C19 O5 1.305 . S
C19 O6 1.234 . S
C20 O17 1.305 . S
C20 O18 1.234 1_554 S
Zn21 O27 1.920 . S
Zn21 O33 1.898 . S
Zn21 O36 1.905 . S
Zn22 O30 1.905 . S
Zn22 O31 1.898 . S
Zn22 O39 1.920 . S
Zn23 O26 2.080 . S
Zn23 O29 2.114 . S
Zn23 O32 2.120 . S
Zn23 O34 2.120 . S
Zn23 O35 2.114 . S
Zn23 O38 2.080 . S
C24 O29 1.166 . S
C24 O30 1.182 . S
C25 O31 1.167 . S
C25 O32 1.299 . S
O26 Zn23 2.080 . S
O26 C40 1.305 . S
O27 Zn21 1.920 . S
O27 C40 1.234 . S
C28 O33 1.167 . S
C28 O34 1.299 . S
O29 Zn23 2.114 . S
O29 C24 1.166 . S
O30 Zn22 1.905 . S
O30 C24 1.182 . S
O31 Zn22 1.898 . S
O31 C25 1.167 . S
O32 Zn23 2.120 . S
O32 C25 1.299 . S
O33 Zn21 1.898 . S
O33 C28 1.167 . S
O34 Zn23 2.120 . S
O34 C28 1.299 . S
O35 Zn23 2.114 . S
O35 C37 1.166 . S
O36 Zn21 1.905 . S
O36 C37 1.182 . S
C37 O35 1.166 . S
C37 O36 1.182 . S
O38 Zn23 2.080 . S
O38 C41 1.305 . S
O39 Zn22 1.920 . S
O39 C41 1.234 . S
C40 O26 1.305 . S
C40 O27 1.234 . S
C41 O38 1.305 . S
C41 O39 1.234 . S
Zn42 O48 1.920 . S
Zn42 O54 1.898 . S
Zn42 O57 1.905 . S
Zn43 O51 1.905 . S
Zn43 O52 1.898 . S
Zn43 O60 1.920 . S
Zn44 O47 2.080 1_554 S
Zn44 O50 2.114 . S
Zn44 O53 2.120 . S
Zn44 O55 2.120 1_554 S
Zn44 O56 2.114 1_554 S
Zn44 O59 2.080 . S
C45 O50 1.166 . S
C45 O51 1.182 . S
C46 O52 1.167 . S
C46 O53 1.299 . S
O47 Zn44 2.080 1_556 S
O47 C61 1.305 . S
O48 Zn42 1.920 . S
O48 C61 1.234 . S
C49 O54 1.167 . S
C49 O55 1.299 . S
O50 Zn44 2.114 . S
O50 C45 1.166 . S
O51 Zn43 1.905 . S
O51 C45 1.182 . S
O52 Zn43 1.898 . S
O52 C46 1.167 . S
O53 Zn44 2.120 . S
O53 C46 1.299 . S
O54 Zn42 1.898 . S
O54 C49 1.167 . S
O55 Zn44 2.120 1_556 S
O55 C49 1.299 . S
O56 Zn44 2.114 1_556 S
O56 C58 1.166 . S
O57 Zn42 1.905 . S
O57 C58 1.182 . S
C58 O56 1.166 . S
C58 O57 1.182 . S
O59 Zn44 2.080 . S
O59 C62 1.305 . S
O60 Zn43 1.920 . S
O60 C62 1.234 . S
C61 O47 1.305 . S
C61 O48 1.234 . S
C62 O59 1.305 . S
C62 O60 1.234 . S
Zn63 O69 1.920 . S
Zn63 O75 1.898 . S
Zn63 O78 1.905 . S
Zn64 O72 1.905 . S
Zn64 O73 1.898 . S
Zn64 O81 1.920 . S
Zn65 O68 2.080 . S
Zn65 O71 2.114 . S
Zn65 O74 2.120 . S
Zn65 O76 2.120 . S
Zn65 O77 2.114 . S
Zn65 O80 2.080 . S
C66 O71 1.166 . S
C66 O72 1.182 . S
C67 O73 1.167 . S
C67 O74 1.299 . S
O68 Zn65 2.080 . S
O68 C82 1.305 . S
O69 Zn63 1.920 . S
O69 C82 1.234 . S
C70 O75 1.167 . S
C70 O76 1.299 . S
O71 Zn65 2.114 . S
O71 C66 1.166 . S
O72 Zn64 1.905 . S
O72 C66 1.182 . S
O73 Zn64 1.898 . S
O73 C67 1.167 . S
O74 Zn65 2.120 . S
O74 C67 1.299 . S
O75 Zn63 1.898 . S
O75 C70 1.167 . S
O76 Zn65 2.120 . S
O76 C70 1.299 . S
O77 Zn65 2.114 . S
O77 C79 1.166 . S
O78 Zn63 1.905 . S
O78 C79 1.182 . S
C79 O77 1.166 . S
C79 O78 1.182 . S
O80 Zn65 2.080 . S
O80 C83 1.305 . S
O81 Zn64 1.920 . S
O81 C83 1.234 . S
C82 O68 1.305 . S
C82 O69 1.234 . S
C83 O80 1.305 . S
C83 O81 1.234 . S
C84 C85 1.386 . S
C84 C86 1.397 . S
C84 H108 0.931 . S
C85 C84 1.386 . S
C85 C89 1.397 . S
C86 C84 1.397 . S
C86 C87 1.384 . S
C86 H109 0.930 . S
C87 C86 1.384 . S
C87 C88 1.377 . S
C87 C90 1.481 . S
C88 C87 1.377 . S
C88 C89 1.389 . S
C88 H110 0.929 . S
C89 C85 1.397 . S
C89 C88 1.389 . S
C89 H111 0.931 1_455 S
C90 C87 1.481 . S
C90 C91 1.387 . S
C90 C95 1.390 . S
C91 C90 1.387 . S
C91 C92 1.401 . S
C91 H112 0.930 . S
C92 C91 1.401 . S
C92 C93 1.376 . S
C92 C101 1.511 . S
C93 C92 1.376 . S
C93 C94 1.392 . S
C93 H114 0.931 . S
C94 C93 1.392 . S
C94 C95 1.361 . S
C94 C96 1.500 . S
C95 C90 1.390 . S
C95 C94 1.361 . S
C95 H113 0.931 . S
C96 C94 1.500 . S
C96 C97 1.371 . S
C96 C98 1.365 . S
C97 C96 1.371 . S
C97 C107 1.386 . S
C97 H115 0.931 . S
C98 C96 1.365 . S
C98 C99 1.406 1_545 S
C98 H116 0.929 . S
C99 C98 1.406 1_565 S
C99 C100 1.381 . S
C99 H117 0.932 . S
C100 C99 1.381 . S
C100 C107 1.357 1_565 S
C101 C92 1.511 . S
C101 C102 1.341 . S
C101 C103 1.371 . S
C102 C101 1.341 . S
C102 C106 1.394 . S
C102 H118 0.930 . S
C103 C101 1.371 . S
C103 C104 1.392 . S
C103 H119 0.931 . S
C104 C103 1.392 . S
C104 C105 1.331 . S
C104 H122 0.932 . S
C105 C104 1.331 . S
C105 C106 1.336 . S
C106 C102 1.394 . S
C106 C105 1.336 . S
C106 H121 0.929 . S
C107 C97 1.386 . S
C107 C100 1.357 1_545 S
C107 H120 0.928 . S
H108 C84 0.931 . S
H109 C86 0.930 . S
H110 C88 0.929 . S
H111 C89 0.931 1_655 S
H112 C91 0.930 . S
H113 C95 0.931 . S
H114 C93 0.931 . S
H115 C97 0.931 . S
H116 C98 0.929 . S
H117 C99 0.932 . S
H118 C102 0.930 . S
H119 C103 0.931 . S
H120 C107 0.928 . S
H121 C106 0.929 . S
H122 C104 0.932 . S
C123 C124 1.386 . S
C123 C125 1.397 . S
C123 H147 0.931 . S
C124 C123 1.386 . S
C124 C128 1.397 . S
C125 C123 1.397 . S
C125 C126 1.384 . S
C125 H148 0.930 . S
C126 C125 1.384 . S
C126 C127 1.377 . S
C126 C129 1.481 . S
C127 C126 1.377 . S
C127 C128 1.389 . S
C127 H149 0.929 . S
C128 C124 1.397 . S
C128 C127 1.389 . S
C128 H150 0.931 . S
C129 C126 1.481 . S
C129 C130 1.387 . S
C129 C134 1.390 . S
C130 C129 1.387 . S
C130 C131 1.401 . S
C130 H151 0.930 . S
C131 C130 1.401 . S
C131 C132 1.376 . S
C131 C140 1.511 . S
C132 C131 1.376 . S
C132 C133 1.392 . S
C132 H153 0.931 . S
C133 C132 1.392 . S
C133 C134 1.361 . S
C133 C135 1.500 . S
C134 C129 1.390 . S
C134 C133 1.361 . S
C134 H152 0.931 . S
C135 C133 1.500 . S
C135 C136 1.371 . S
C135 C137 1.365 . S
C136 C135 1.371 . S
C136 C146 1.386 . S
C136 H154 0.931 . S
C137 C135 1.365 . S
C137 C138 1.409 . S
C137 H155 0.929 . S
C138 C137 1.409 . S
C138 C139 1.380 . S
C138 H156 0.930 . S
C139 C138 1.380 . S
C139 C146 1.357 . S
C140 C131 1.511 . S
C140 C141 1.341 . S
C140 C142 1.371 . S
C141 C140 1.341 . S
C141 C145 1.394 . S
C141 H157 0.930 . S
C142 C140 1.371 . S
C142 C143 1.392 . S
C142 H158 0.931 . S
C143 C142 1.392 . S
C143 C144 1.331 . S
C143 H161 0.932 . S
C144 C143 1.331 . S
C144 C145 1.336 . S
C145 C141 1.394 . S
C145 C144 1.336 . S
C145 H160 0.929 . S
C146 C136 1.386 . S
C146 C139 1.357 . S
C146 H159 0.928 . S
H147 C123 0.931 . S
H148 C125 0.930 . S
H149 C127 0.929 . S
H150 C128 0.931 . S
H151 C130 0.930 . S
H152 C134 0.931 . S
H153 C132 0.931 . S
H154 C136 0.931 . S
H155 C137 0.929 . S
H156 C138 0.930 . S
H157 C141 0.930 . S
H158 C142 0.931 . S
H159 C146 0.928 . S
H160 C145 0.929 . S
H161 C143 0.932 . S
C162 C163 1.386 . S
C162 C164 1.397 . S
C162 H186 0.931 . S
C163 C162 1.386 . S
C163 C167 1.397 . S
C164 C162 1.397 . S
C164 C165 1.384 . S
C164 H187 0.930 . S
C165 C164 1.384 . S
C165 C166 1.377 . S
C165 C168 1.481 . S
C166 C165 1.377 . S
C166 C167 1.389 . S
C166 H188 0.929 . S
C167 C163 1.397 . S
C167 C166 1.389 . S
C167 H189 0.931 . S
C168 C165 1.481 . S
C168 C169 1.387 . S
C168 C173 1.390 . S
C169 C168 1.387 . S
C169 C170 1.401 . S
C169 H190 0.930 . S
C170 C169 1.401 . S
C170 C171 1.376 . S
C170 C179 1.511 . S
C171 C170 1.376 . S
C171 C172 1.392 . S
C171 H192 0.931 . S
C172 C171 1.392 . S
C172 C173 1.361 . S
C172 C174 1.500 . S
C173 C168 1.390 . S
C173 C172 1.361 . S
C173 H191 0.931 . S
C174 C172 1.500 . S
C174 C175 1.371 . S
C174 C176 1.365 . S
C175 C174 1.371 . S
C175 C185 1.386 . S
C175 H193 0.931 . S
C176 C174 1.365 . S
C176 C177 1.409 . S
C176 H194 0.929 . S
C177 C176 1.409 . S
C177 C178 1.380 . S
C177 H195 0.930 . S
C178 C177 1.380 . S
C178 C185 1.357 . S
C179 C170 1.511 . S
C179 C180 1.341 . S
C179 C181 1.371 . S
C180 C179 1.341 . S
C180 C184 1.394 . S
C180 H196 0.930 . S
C181 C179 1.371 . S
C181 C182 1.392 . S
C181 H197 0.931 . S
C182 C181 1.392 . S
C182 C183 1.331 . S
C182 H200 0.932 . S
C183 C182 1.331 . S
C183 C184 1.336 . S
C184 C180 1.394 . S
C184 C183 1.336 . S
C184 H199 0.929 . S
C185 C175 1.386 . S
C185 C178 1.357 . S
C185 H198 0.928 . S
H186 C162 0.931 . S
H187 C164 0.930 . S
H188 C166 0.929 . S
H189 C167 0.931 . S
H190 C169 0.930 . S
H191 C173 0.931 . S
H192 C171 0.931 . S
H193 C175 0.931 . S
H194 C176 0.929 . S
H195 C177 0.930 . S
H196 C180 0.930 . S
H197 C181 0.931 . S
H198 C185 0.928 . S
H199 C184 0.929 . S
H200 C182 0.932 . S
C201 C202 1.386 . S
C201 C203 1.397 . S
C201 H225 0.931 . S
C202 C201 1.386 . S
C202 C206 1.397 . S
C203 C201 1.397 . S
C203 C204 1.384 . S
C203 H226 0.930 . S
C204 C203 1.384 . S
C204 C205 1.377 . S
C204 C207 1.481 . S
C205 C204 1.377 . S
C205 C206 1.389 . S
C205 H227 0.929 . S
C206 C202 1.397 . S
C206 C205 1.389 . S
C206 H228 0.931 . S
C207 C204 1.481 . S
C207 C208 1.387 . S
C207 C212 1.390 . S
C208 C207 1.387 . S
C208 C209 1.401 . S
C208 H229 0.930 . S
C209 C208 1.401 . S
C209 C210 1.376 . S
C209 C218 1.511 . S
C210 C209 1.376 . S
C210 C211 1.392 . S
C210 H231 0.931 . S
C211 C210 1.392 . S
C211 C212 1.361 . S
C211 C213 1.500 . S
C212 C207 1.390 . S
C212 C211 1.361 . S
C212 H230 0.931 . S
C213 C211 1.500 . S
C213 C214 1.371 . S
C213 C215 1.365 . S
C214 C213 1.371 . S
C214 C224 1.386 . S
C214 H232 0.931 . S
C215 C213 1.365 . S
C215 C216 1.409 . S
C215 H233 0.929 . S
C216 C215 1.409 . S
C216 C217 1.380 . S
C216 H234 0.930 . S
C217 C216 1.380 . S
C217 C224 1.357 . S
C218 C209 1.511 . S
C218 C219 1.341 . S
C218 C220 1.371 . S
C219 C218 1.341 . S
C219 C223 1.394 . S
C219 H235 0.930 . S
C220 C218 1.371 . S
C220 C221 1.392 . S
C220 H236 0.931 . S
C221 C220 1.392 . S
C221 C222 1.331 . S
C221 H239 0.932 . S
C222 C221 1.331 . S
C222 C223 1.336 . S
C223 C219 1.394 . S
C223 C222 1.336 . S
C223 H238 0.929 . S
C224 C214 1.386 . S
C224 C217 1.357 . S
C224 H237 0.928 . S
H225 C201 0.931 . S
H226 C203 0.930 . S
H227 C205 0.929 . S
H228 C206 0.931 . S
H229 C208 0.930 . S
H230 C212 0.931 . S
H231 C210 0.931 . S
H232 C214 0.931 . S
H233 C215 0.929 . S
H234 C216 0.930 . S
H235 C219 0.930 . S
H236 C220 0.931 . S
H237 C224 0.928 . S
H238 C223 0.929 . S
H239 C221 0.932 . S
C240 C241 1.386 . S
C240 C242 1.397 . S
C240 H264 0.931 . S
C241 C240 1.386 . S
C241 C245 1.397 . S
C242 C240 1.397 . S
C242 C243 1.384 . S
C242 H265 0.930 . S
C243 C242 1.384 . S
C243 C244 1.377 . S
C243 C246 1.481 . S
C244 C243 1.377 . S
C244 C245 1.389 . S
C244 H266 0.929 . S
C245 C241 1.397 . S
C245 C244 1.389 . S
C245 H267 0.931 . S
C246 C243 1.481 . S
C246 C247 1.387 . S
C246 C251 1.390 . S
C247 C246 1.387 . S
C247 C248 1.401 . S
C247 H268 0.930 . S
C248 C247 1.401 . S
C248 C249 1.376 . S
C248 C257 1.511 . S
C249 C248 1.376 . S
C249 C250 1.392 . S
C249 H270 0.931 . S
C250 C249 1.392 . S
C250 C251 1.361 . S
C250 C252 1.500 . S
C251 C246 1.390 . S
C251 C250 1.361 . S
C251 H269 0.931 . S
C252 C250 1.500 . S
C252 C253 1.371 . S
C252 C254 1.365 . S
C253 C252 1.371 . S
C253 C263 1.386 . S
C253 H271 0.931 . S
C254 C252 1.365 . S
C254 C255 1.409 . S
C254 H272 0.929 . S
C255 C254 1.409 . S
C255 C256 1.380 . S
C255 H273 0.930 . S
C256 C255 1.380 . S
C256 C263 1.357 . S
C257 C248 1.511 . S
C257 C258 1.341 . S
C257 C259 1.371 . S
C258 C257 1.341 . S
C258 C262 1.394 . S
C258 H274 0.930 . S
C259 C257 1.371 . S
C259 C260 1.392 . S
C259 H275 0.931 . S
C260 C259 1.392 . S
C260 C261 1.331 . S
C260 H278 0.932 . S
C261 C260 1.331 . S
C261 C262 1.336 . S
C262 C258 1.394 . S
C262 C261 1.336 . S
C262 H277 0.929 . S
C263 C253 1.386 . S
C263 C256 1.357 . S
C263 H276 0.928 . S
H264 C240 0.931 . S
H265 C242 0.930 . S
H266 C244 0.929 . S
H267 C245 0.931 . S
H268 C247 0.930 . S
H269 C251 0.931 . S
H270 C249 0.931 . S
H271 C253 0.931 . S
H272 C254 0.929 . S
H273 C255 0.930 . S
H274 C258 0.930 . S
H275 C259 0.931 . S
H276 C263 0.928 . S
H277 C262 0.929 . S
H278 C260 0.932 . S
C279 C280 1.386 . S
C279 C281 1.397 . S
C279 H303 0.931 . S
C280 C279 1.386 . S
C280 C284 1.397 . S
C281 C279 1.397 . S
C281 C282 1.384 . S
C281 H304 0.930 . S
C282 C281 1.384 . S
C282 C283 1.377 . S
C282 C285 1.481 . S
C283 C282 1.377 . S
C283 C284 1.389 . S
C283 H305 0.932 . S
C284 C280 1.397 . S
C284 C283 1.389 . S
C284 H306 0.931 1_556 S
C285 C282 1.481 . S
C285 C286 1.387 . S
C285 C290 1.390 . S
C286 C285 1.387 . S
C286 C287 1.401 . S
C286 H307 0.930 . S
C287 C286 1.401 . S
C287 C288 1.376 . S
C287 C296 1.511 . S
C288 C287 1.376 . S
C288 C289 1.392 . S
C288 H309 0.931 . S
C289 C288 1.392 . S
C289 C290 1.361 . S
C289 C291 1.500 . S
C290 C285 1.390 . S
C290 C289 1.361 . S
C290 H308 0.931 . S
C291 C289 1.500 . S
C291 C292 1.371 . S
C291 C293 1.365 . S
C292 C291 1.371 . S
C292 C302 1.386 . S
C292 H310 0.931 . S
C293 C291 1.365 . S
C293 C294 1.409 1_556 S
C293 H311 0.929 1_556 S
C294 C293 1.409 1_554 S
C294 C295 1.380 1_554 S
C294 H312 0.930 . S
C295 C294 1.380 1_556 S
C295 C302 1.357 . S
C296 C287 1.511 . S
C296 C297 1.341 . S
C296 C298 1.371 . S
C297 C296 1.341 . S
C297 C301 1.394 . S
C297 H313 0.930 . S
C298 C296 1.371 . S
C298 C299 1.392 . S
C298 H314 0.931 . S
C299 C298 1.392 . S
C299 C300 1.331 . S
C299 H317 0.932 . S
C300 C299 1.331 . S
C300 C301 1.336 . S
C301 C297 1.394 . S
C301 C300 1.336 . S
C301 H316 0.929 . S
C302 C292 1.386 . S
C302 C295 1.357 . S
C302 H315 0.928 . S
H303 C279 0.931 . S
H304 C281 0.930 . S
H305 C283 0.932 . S
H306 C284 0.931 1_554 S
H307 C286 0.930 . S
H308 C290 0.931 . S
H309 C288 0.931 . S
H310 C292 0.931 . S
H311 C293 0.929 1_554 S
H312 C294 0.930 . S
H313 C297 0.930 . S
H314 C298 0.931 . S
H315 C302 0.928 . S
H316 C301 0.929 . S
H317 C299 0.932 . S
C318 C319 1.386 . S
C318 C320 1.397 . S
C318 H342 0.931 . S
C319 C318 1.386 . S
C319 C323 1.397 . S
C320 C318 1.397 . S
C320 C321 1.384 . S
C320 H343 0.930 . S
C321 C320 1.384 . S
C321 C322 1.377 . S
C321 C324 1.481 . S
C322 C321 1.377 . S
C322 C323 1.389 . S
C322 H344 0.929 . S
C323 C319 1.397 . S
C323 C322 1.389 . S
C323 H345 0.931 . S
C324 C321 1.481 . S
C324 C325 1.387 . S
C324 C329 1.390 . S
C325 C324 1.387 . S
C325 C326 1.401 . S
C325 H346 0.930 . S
C326 C325 1.401 . S
C326 C327 1.376 . S
C326 C335 1.511 . S
C327 C326 1.376 . S
C327 C328 1.392 . S
C327 H348 0.931 . S
C328 C327 1.392 . S
C328 C329 1.361 . S
C328 C330 1.500 . S
C329 C324 1.390 . S
C329 C328 1.361 . S
C329 H347 0.931 . S
C330 C328 1.500 . S
C330 C331 1.371 . S
C330 C332 1.365 . S
C331 C330 1.371 . S
C331 C341 1.386 . S
C331 H349 0.931 . S
C332 C330 1.365 . S
C332 C333 1.409 . S
C332 H350 0.929 . S
C333 C332 1.409 . S
C333 C334 1.380 . S
C333 H351 0.930 . S
C334 C333 1.380 . S
C334 C341 1.357 . S
C335 C326 1.511 . S
C335 C336 1.341 . S
C335 C337 1.371 . S
C336 C335 1.341 . S
C336 C340 1.394 . S
C336 H352 0.930 . S
C337 C335 1.371 . S
C337 C338 1.392 . S
C337 H353 0.931 . S
C338 C337 1.392 . S
C338 C339 1.331 . S
C338 H356 0.932 . S
C339 C338 1.331 . S
C339 C340 1.336 . S
C340 C336 1.394 . S
C340 C339 1.336 . S
C340 H355 0.929 . S
C341 C331 1.386 . S
C341 C334 1.357 . S
C341 H354 0.928 . S
H342 C318 0.931 . S
H343 C320 0.930 . S
H344 C322 0.929 . S
H345 C323 0.931 . S
H346 C325 0.930 . S
H347 C329 0.931 . S
H348 C327 0.931 . S
H349 C331 0.931 . S
H350 C332 0.929 . S
H351 C333 0.930 . S
H352 C336 0.930 . S
H353 C337 0.931 . S
H354 C341 0.928 . S
H355 C340 0.929 . S
H356 C338 0.932 . S
C357 C358 1.386 . S
C357 C359 1.397 . S
C357 H381 0.931 . S
C358 C357 1.386 . S
C358 C362 1.397 . S
C359 C357 1.397 . S
C359 C360 1.384 1_455 S
C359 H382 0.930 . S
C360 C359 1.384 1_655 S
C360 C361 1.377 . S
C360 C363 1.481 . S
C361 C360 1.377 . S
C361 C362 1.389 1_655 S
C361 H383 0.929 . S
C362 C358 1.397 . S
C362 C361 1.389 1_455 S
C362 H384 0.931 . S
C363 C360 1.481 . S
C363 C364 1.387 . S
C363 C368 1.390 . S
C364 C363 1.387 . S
C364 C365 1.401 . S
C364 H385 0.930 . S
C365 C364 1.401 . S
C365 C366 1.376 . S
C365 C374 1.511 . S
C366 C365 1.376 . S
C366 C367 1.392 . S
C366 H387 0.931 . S
C367 C366 1.392 . S
C367 C368 1.361 . S
C367 C369 1.500 . S
C368 C363 1.390 . S
C368 C367 1.361 . S
C368 H386 0.931 . S
C369 C367 1.500 . S
C369 C370 1.371 . S
C369 C371 1.365 . S
C370 C369 1.371 . S
C370 C380 1.386 . S
C370 H388 0.931 . S
C371 C369 1.365 . S
C371 C372 1.409 . S
C371 H389 0.929 . S
C372 C371 1.409 . S
C372 C373 1.380 . S
C372 H390 0.930 . S
C373 C372 1.380 . S
C373 C380 1.357 . S
C374 C365 1.511 . S
C374 C375 1.341 . S
C374 C376 1.371 . S
C375 C374 1.341 . S
C375 C379 1.394 . S
C375 H391 0.930 . S
C376 C374 1.371 . S
C376 C377 1.392 . S
C376 H392 0.931 . S
C377 C376 1.392 . S
C377 C378 1.331 . S
C377 H395 0.932 . S
C378 C377 1.331 . S
C378 C379 1.336 . S
C379 C375 1.394 . S
C379 C378 1.336 . S
C379 H394 0.929 . S
C380 C370 1.386 . S
C380 C373 1.357 . S
C380 H393 0.928 . S
H381 C357 0.931 . S
H382 C359 0.930 . S
H383 C361 0.929 . S
H384 C362 0.931 . S
H385 C364 0.930 . S
H386 C368 0.931 . S
H387 C366 0.931 . S
H388 C370 0.931 . S
H389 C371 0.929 . S
H390 C372 0.930 . S
H391 C375 0.930 . S
H392 C376 0.931 . S
H393 C380 0.928 . S
H394 C379 0.929 . S
H395 C377 0.932 . S
H396 C402 0.930 . S
H397 C405 0.930 . S
H398 C406 0.930 . S
H399 C407 0.930 . S
H400 C410 0.930 . S
H401 C411 0.930 . S
C402 H396 0.930 . S
C402 C403 1.355 . S
C402 C404 1.415 . S
C403 C402 1.355 . S
C403 C405 1.419 . S
C404 C402 1.415 . S
C404 C409 1.425 . S
C404 C411 1.409 . S
C405 H397 0.930 . S
C405 C403 1.419 . S
C405 C406 1.362 . S
C406 H398 0.930 . S
C406 C405 1.362 . S
C406 C409 1.409 . S
C407 H399 0.930 . S
C407 C408 1.355 . S
C407 C409 1.415 . S
C408 C407 1.355 . S
C408 C410 1.419 . S
C409 C404 1.425 . S
C409 C406 1.409 . S
C409 C407 1.415 . S
C410 H400 0.930 . S
C410 C408 1.419 . S
C410 C411 1.362 . S
C411 H401 0.930 . S
C411 C404 1.409 . S
C411 C410 1.362 . S
H412 C418 0.930 . S
H413 C421 0.930 . S
H414 C422 0.930 . S
H415 C423 0.930 . S
H416 C426 0.930 . S
H417 C427 0.930 . S
C418 H412 0.930 . S
C418 C419 1.355 . S
C418 C420 1.415 . S
C419 C418 1.355 . S
C419 C421 1.419 . S
C420 C418 1.415 . S
C420 C425 1.425 . S
C420 C427 1.409 . S
C421 H413 0.930 . S
C421 C419 1.419 . S
C421 C422 1.362 . S
C422 H414 0.930 . S
C422 C421 1.362 . S
C422 C425 1.409 . S
C423 H415 0.930 . S
C423 C424 1.355 . S
C423 C425 1.415 . S
C424 C423 1.355 . S
C424 C426 1.419 . S
C425 C420 1.425 . S
C425 C422 1.409 . S
C425 C423 1.415 . S
C426 H416 0.930 . S
C426 C424 1.419 . S
C426 C427 1.362 . S
C427 H417 0.930 . S
C427 C420 1.409 . S
C427 C426 1.362 . S
H428 C434 0.930 . S
H429 C437 0.930 1_556 S
H430 C438 0.930 1_556 S
H431 C439 0.930 . S
H432 C442 0.930 1_565 S
H433 C443 0.930 . S
C434 H428 0.930 . S
C434 C435 1.355 . S
C434 C436 1.415 . S
C435 C434 1.355 . S
C435 C437 1.419 . S
C436 C434 1.415 . S
C436 C441 1.425 . S
C436 C443 1.409 . S
C437 H429 0.930 1_554 S
C437 C435 1.419 . S
C437 C438 1.362 . S
C438 H430 0.930 1_554 S
C438 C437 1.362 . S
C438 C441 1.409 . S
C439 H431 0.930 . S
C439 C440 1.355 1_545 S
C439 C441 1.415 . S
C440 C439 1.355 1_565 S
C440 C442 1.419 1_565 S
C441 C436 1.425 . S
C441 C438 1.409 . S
C441 C439 1.415 . S
C442 H432 0.930 1_545 S
C442 C440 1.419 1_545 S
C442 C443 1.362 . S
C443 H433 0.930 . S
C443 C436 1.409 . S
C443 C442 1.362 . S
H444 C450 0.930 . S
H445 C453 0.930 . S
H446 C454 0.930 . S
H447 C455 0.930 . S
H448 C458 0.930 . S
H449 C459 0.930 . S
C450 H444 0.930 . S
C450 C451 1.355 . S
C450 C452 1.415 . S
C451 C450 1.355 . S
C451 C453 1.419 . S
C452 C450 1.415 . S
C452 C457 1.425 . S
C452 C459 1.409 . S
C453 H445 0.930 . S
C453 C451 1.419 . S
C453 C454 1.362 . S
C454 H446 0.930 . S
C454 C453 1.362 . S
C454 C457 1.409 . S
C455 H447 0.930 . S
C455 C456 1.355 . S
C455 C457 1.415 . S
C456 C455 1.355 . S
C456 C458 1.419 . S
C457 C452 1.425 . S
C457 C454 1.409 . S
C457 C455 1.415 . S
C458 H448 0.930 . S
C458 C456 1.419 . S
C458 C459 1.362 . S
C459 H449 0.930 . S
C459 C452 1.409 . S
C459 C458 1.362 . S
H460 C466 0.930 . S
H461 C469 0.930 . S
H462 C470 0.930 . S
H463 C471 0.930 . S
H464 C474 0.930 . S
H465 C475 0.930 . S
C466 H460 0.930 . S
C466 C467 1.355 . S
C466 C468 1.415 . S
C467 C466 1.355 . S
C467 C469 1.419 . S
C468 C466 1.415 . S
C468 C473 1.425 . S
C468 C475 1.409 . S
C469 H461 0.930 . S
C469 C467 1.419 . S
C469 C470 1.362 . S
C470 H462 0.930 . S
C470 C469 1.362 . S
C470 C473 1.409 . S
C471 H463 0.930 . S
C471 C472 1.355 . S
C471 C473 1.415 . S
C472 C471 1.355 . S
C472 C474 1.419 . S
C473 C468 1.425 . S
C473 C470 1.409 . S
C473 C471 1.415 . S
C474 H464 0.930 . S
C474 C472 1.419 . S
C474 C475 1.362 . S
C475 H465 0.930 . S
C475 C468 1.409 . S
C475 C474 1.362 . S
H476 C482 0.930 . S
H477 C485 0.930 . S
H478 C486 0.930 . S
H479 C487 0.930 . S
H480 C490 0.930 . S
H481 C491 0.930 . S
C482 H476 0.930 . S
C482 C483 1.355 . S
C482 C484 1.415 . S
C483 C482 1.355 . S
C483 C485 1.419 . S
C484 C482 1.415 . S
C484 C489 1.425 . S
C484 C491 1.409 1_655 S
C485 H477 0.930 . S
C485 C483 1.419 . S
C485 C486 1.362 . S
C486 H478 0.930 . S
C486 C485 1.362 . S
C486 C489 1.409 . S
C487 H479 0.930 . S
C487 C488 1.355 . S
C487 C489 1.415 1_455 S
C488 C487 1.355 . S
C488 C490 1.419 . S
C489 C484 1.425 . S
C489 C486 1.409 . S
C489 C487 1.415 1_655 S
C490 H480 0.930 . S
C490 C488 1.419 . S
C490 C491 1.362 . S
C491 H481 0.930 . S
C491 C484 1.409 1_455 S
C491 C490 1.362 . S
H492 C498 0.930 . S
H493 C501 0.930 . S
H494 C502 0.930 . S
H495 C503 0.930 . S
H496 C506 0.930 . S
H497 C507 0.930 . S
C498 H492 0.930 . S
C498 C499 1.355 . S
C498 C500 1.415 . S
C499 C498 1.355 . S
C499 C501 1.419 . S
C500 C498 1.415 . S
C500 C505 1.425 . S
C500 C507 1.409 . S
C501 H493 0.930 . S
C501 C499 1.419 . S
C501 C502 1.362 . S
C502 H494 0.930 . S
C502 C501 1.362 . S
C502 C505 1.409 . S
C503 H495 0.930 . S
C503 C504 1.355 . S
C503 C505 1.415 . S
C504 C503 1.355 . S
C504 C506 1.419 . S
C505 C500 1.425 . S
C505 C502 1.409 . S
C505 C503 1.415 . S
C506 H496 0.930 . S
C506 C504 1.419 . S
C506 C507 1.362 . S
C507 H497 0.930 . S
C507 C500 1.409 . S
C507 C506 1.362 . S
H508 C514 0.930 . S
H509 C517 0.930 . S
H510 C518 0.930 . S
H511 C519 0.930 . S
H512 C522 0.930 . S
H513 C523 0.930 . S
C514 H508 0.930 . S
C514 C515 1.355 . S
C514 C516 1.415 . S
C515 C514 1.355 . S
C515 C517 1.419 . S
C516 C514 1.415 . S
C516 C521 1.425 . S
C516 C523 1.409 . S
C517 H509 0.930 . S
C517 C515 1.419 . S
C517 C518 1.362 . S
C518 H510 0.930 . S
C518 C517 1.362 . S
C518 C521 1.409 . S
C519 H511 0.930 . S
C519 C520 1.355 . S
C519 C521 1.415 . S
C520 C519 1.355 . S
C520 C522 1.419 . S
C521 C516 1.425 . S
C521 C518 1.409 . S
C521 C519 1.415 . S
C522 H512 0.930 . S
C522 C520 1.419 . S
C522 C523 1.362 . S
C523 H513 0.930 . S
C523 C516 1.409 . S
C523 C522 1.362 . S
H524 C530 0.930 . S
H525 C533 0.930 . S
H526 C534 0.930 . S
H527 C535 0.930 . S
H528 C538 0.930 . S
H529 C539 0.930 . S
C530 H524 0.930 . S
C530 C531 1.355 . S
C530 C532 1.415 . S
C531 C530 1.355 . S
C531 C533 1.419 . S
C532 C530 1.415 . S
C532 C537 1.425 . S
C532 C539 1.409 1_545 S
C533 H525 0.930 . S
C533 C531 1.419 . S
C533 C534 1.362 . S
C534 H526 0.930 . S
C534 C533 1.362 . S
C534 C537 1.409 . S
C535 H527 0.930 . S
C535 C536 1.355 1_545 S
C535 C537 1.415 . S
C536 C535 1.355 1_565 S
C536 C538 1.419 . S
C537 C532 1.425 . S
C537 C534 1.409 . S
C537 C535 1.415 . S
C538 H528 0.930 . S
C538 C536 1.419 . S
C538 C539 1.362 . S
C539 H529 0.930 . S
C539 C532 1.409 1_565 S
C539 C538 1.362 . S
H540 C546 0.930 . S
H541 C549 0.930 . S
H542 C550 0.930 . S
H543 C551 0.930 . S
H544 C554 0.930 . S
H545 C555 0.930 . S
C546 H540 0.930 . S
C546 C547 1.355 . S
C546 C548 1.415 . S
C547 C546 1.355 . S
C547 C549 1.419 . S
C548 C546 1.415 . S
C548 C553 1.425 . S
C548 C555 1.409 . S
C549 H541 0.930 . S
C549 C547 1.419 . S
C549 C550 1.362 . S
C550 H542 0.930 . S
C550 C549 1.362 . S
C550 C553 1.409 . S
C551 H543 0.930 . S
C551 C552 1.355 . S
C551 C553 1.415 . S
C552 C551 1.355 . S
C552 C554 1.419 . S
C553 C548 1.425 . S
C553 C550 1.409 . S
C553 C551 1.415 . S
C554 H544 0.930 . S
C554 C552 1.419 . S
C554 C555 1.362 . S
C555 H545 0.930 . S
C555 C548 1.409 . S
C555 C554 1.362 . S
H556 C562 0.930 . S
H557 C565 0.930 . S
H558 C566 0.930 . S
H559 C567 0.930 . S
H560 C570 0.930 . S
H561 C571 0.930 . S
C562 H556 0.930 . S
C562 C563 1.355 1_556 S
C562 C564 1.415 . S
C563 C562 1.355 1_554 S
C563 C565 1.419 . S
C564 C562 1.415 . S
C564 C569 1.425 1_556 S
C564 C571 1.409 1_565 S
C565 H557 0.930 . S
C565 C563 1.419 . S
C565 C566 1.362 . S
C566 H558 0.930 . S
C566 C565 1.362 . S
C566 C569 1.409 . S
C567 H559 0.930 . S
C567 C568 1.355 1_554 S
C567 C569 1.415 1_545 S
C568 C567 1.355 1_556 S
C568 C570 1.419 . S
C569 C564 1.425 1_554 S
C569 C566 1.409 . S
C569 C567 1.415 1_565 S
C570 H560 0.930 . S
C570 C568 1.419 . S
C570 C571 1.362 . S
C571 H561 0.930 . S
C571 C564 1.409 1_545 S
C571 C570 1.362 . S
H572 C578 0.930 . S
H573 C581 0.930 . S
H574 C582 0.930 . S
H575 C583 0.930 . S
H576 C586 0.930 . S
H577 C587 0.930 . S
C578 H572 0.930 . S
C578 C579 1.355 . S
C578 C580 1.415 . S
C579 C578 1.355 . S
C579 C581 1.419 . S
C580 C578 1.415 . S
C580 C585 1.425 . S
C580 C587 1.409 . S
C581 H573 0.930 . S
C581 C579 1.419 . S
C581 C582 1.362 . S
C582 H574 0.930 . S
C582 C581 1.362 . S
C582 C585 1.409 . S
C583 H575 0.930 . S
C583 C584 1.355 . S
C583 C585 1.415 . S
C584 C583 1.355 . S
C584 C586 1.419 . S
C585 C580 1.425 . S
C585 C582 1.409 . S
C585 C583 1.415 . S
C586 H576 0.930 . S
C586 C584 1.419 . S
C586 C587 1.362 . S
C587 H577 0.930 . S
C587 C580 1.409 . S
C587 C586 1.362 . S
H588 C594 0.930 . S
H589 C597 0.930 . S
H590 C598 0.930 . S
H591 C599 0.930 . S
H592 C602 0.930 . S
H593 C603 0.930 . S
C594 H588 0.930 . S
C594 C595 1.355 . S
C594 C596 1.415 . S
C595 C594 1.355 . S
C595 C597 1.419 . S
C596 C594 1.415 . S
C596 C601 1.425 . S
C596 C603 1.409 . S
C597 H589 0.930 . S
C597 C595 1.419 . S
C597 C598 1.362 . S
C598 H590 0.930 . S
C598 C597 1.362 . S
C598 C601 1.409 . S
C599 H591 0.930 . S
C599 C600 1.355 . S
C599 C601 1.415 . S
C600 C599 1.355 . S
C600 C602 1.419 . S
C601 C596 1.425 . S
C601 C598 1.409 . S
C601 C599 1.415 . S
C602 H592 0.930 . S
C602 C600 1.419 . S
C602 C603 1.362 . S
C603 H593 0.930 . S
C603 C596 1.409 . S
C603 C602 1.362 . S
H604 C610 0.930 . S
H605 C613 0.930 . S
H606 C614 0.930 . S
H607 C615 0.930 . S
H608 C618 0.930 . S
H609 C619 0.930 . S
C610 H604 0.930 . S
C610 C611 1.355 . S
C610 C612 1.415 1_455 S
C611 C610 1.355 . S
C611 C613 1.419 . S
C612 C610 1.415 1_655 S
C612 C617 1.425 . S
C612 C619 1.409 . S
C613 H605 0.930 . S
C613 C611 1.419 . S
C613 C614 1.362 . S
C614 H606 0.930 . S
C614 C613 1.362 . S
C614 C617 1.409 1_455 S
C615 H607 0.930 . S
C615 C616 1.355 . S
C615 C617 1.415 . S
C616 C615 1.355 . S
C616 C618 1.419 . S
C617 C612 1.425 . S
C617 C614 1.409 1_655 S
C617 C615 1.415 . S
C618 H608 0.930 . S
C618 C616 1.419 . S
C618 C619 1.362 . S
C619 H609 0.930 . S
C619 C612 1.409 . S
C619 C618 1.362 . S
H620 C626 0.930 . S
H621 C629 0.930 . S
H622 C630 0.930 . S
H623 C631 0.930 . S
H624 C634 0.930 . S
H625 C635 0.930 . S
C626 H620 0.930 . S
C626 C627 1.355 . S
C626 C628 1.415 . S
C627 C626 1.355 . S
C627 C629 1.419 . S
C628 C626 1.415 . S
C628 C633 1.425 . S
C628 C635 1.409 . S
C629 H621 0.930 . S
C629 C627 1.419 . S
C629 C630 1.362 . S
C630 H622 0.930 . S
C630 C629 1.362 . S
C630 C633 1.409 . S
C631 H623 0.930 . S
C631 C632 1.355 . S
C631 C633 1.415 . S
C632 C631 1.355 . S
C632 C634 1.419 . S
C633 C628 1.425 . S
C633 C630 1.409 . S
C633 C631 1.415 . S
C634 H624 0.930 . S
C634 C632 1.419 . S
C634 C635 1.362 . S
C635 H625 0.930 . S
C635 C628 1.409 . S
C635 C634 1.362 . S
H636 C642 0.930 . S
H637 C645 0.930 . S
H638 C646 0.930 . S
H639 C647 0.930 . S
H640 C650 0.903 1_455 S
H641 C651 0.930 . S
C642 H636 0.930 . S
C642 C643 1.355 . S
C642 C644 1.415 . S
C643 C642 1.355 . S
C643 C645 1.419 . S
C644 C642 1.415 . S
C644 C649 1.425 . S
C644 C651 1.409 . S
C645 H637 0.930 . S
C645 C643 1.419 . S
C645 C646 1.362 . S
C646 H638 0.930 . S
C646 C645 1.362 . S
C646 C649 1.409 . S
C647 H639 0.930 . S
C647 C648 1.355 . S
C647 C649 1.415 . S
C648 C647 1.355 . S
C648 C650 1.430 . S
C649 C644 1.425 . S
C649 C646 1.409 . S
C649 C647 1.415 . S
C650 H640 0.903 1_655 S
C650 C648 1.430 . S
C650 C651 1.378 . S
C651 H641 0.930 . S
C651 C644 1.409 . S
C651 C650 1.378 . S
H652 C658 0.930 . S
H653 C661 0.930 . S
H654 C662 0.930 . S
H655 C663 0.930 . S
H656 C666 0.930 . S
H657 C667 0.930 . S
C658 H652 0.930 . S
C658 C659 1.355 . S
C658 C660 1.415 . S
C659 C658 1.355 . S
C659 C661 1.419 . S
C660 C658 1.415 . S
C660 C665 1.425 . S
C660 C667 1.409 . S
C661 H653 0.930 . S
C661 C659 1.419 . S
C661 C662 1.362 . S
C662 H654 0.930 . S
C662 C661 1.362 . S
C662 C665 1.409 . S
C663 H655 0.930 . S
C663 C664 1.355 . S
C663 C665 1.415 . S
C664 C663 1.355 . S
C664 C666 1.419 . S
C665 C660 1.425 . S
C665 C662 1.409 . S
C665 C663 1.415 . S
C666 H656 0.930 . S
C666 C664 1.419 . S
C666 C667 1.362 . S
C667 H657 0.930 . S
C667 C660 1.409 . S
C667 C666 1.362 . S
H668 C674 0.930 . S
H669 C677 0.930 . S
H670 C678 0.930 . S
H671 C679 0.930 . S
H672 C682 0.930 . S
H673 C683 0.930 . S
C674 H668 0.930 . S
C674 C675 1.355 . S
C674 C676 1.415 . S
C675 C674 1.355 . S
C675 C677 1.419 . S
C676 C674 1.415 . S
C676 C681 1.425 . S
C676 C683 1.409 . S
C677 H669 0.930 . S
C677 C675 1.419 . S
C677 C678 1.362 . S
C678 H670 0.930 . S
C678 C677 1.362 . S
C678 C681 1.409 . S
C679 H671 0.930 . S
C679 C680 1.355 . S
C679 C681 1.415 . S
C680 C679 1.355 . S
C680 C682 1.419 . S
C681 C676 1.425 . S
C681 C678 1.409 . S
C681 C679 1.415 . S
C682 H672 0.930 . S
C682 C680 1.419 . S
C682 C683 1.362 . S
C683 H673 0.930 . S
C683 C676 1.409 . S
C683 C682 1.362 . S
H684 C690 0.930 . S
H685 C693 0.930 . S
H686 C694 0.930 . S
H687 C695 0.930 . S
H688 C698 0.930 . S
H689 C699 0.930 . S
C690 H684 0.930 . S
C690 C691 1.355 . S
C690 C692 1.415 . S
C691 C690 1.355 . S
C691 C693 1.419 . S
C692 C690 1.415 . S
C692 C697 1.425 . S
C692 C699 1.409 . S
C693 H685 0.930 . S
C693 C691 1.419 . S
C693 C694 1.362 . S
C694 H686 0.930 . S
C694 C693 1.362 . S
C694 C697 1.409 . S
C695 H687 0.930 . S
C695 C696 1.355 . S
C695 C697 1.415 . S
C696 C695 1.355 . S
C696 C698 1.419 . S
C697 C692 1.425 . S
C697 C694 1.409 . S
C697 C695 1.415 . S
C698 H688 0.930 . S
C698 C696 1.419 . S
C698 C699 1.362 . S
C699 H689 0.930 . S
C699 C692 1.409 . S
C699 C698 1.362 . S
H700 C706 0.930 . S
H701 C709 0.930 . S
H702 C710 0.930 . S
H703 C711 0.930 . S
H704 C714 0.930 . S
H705 C715 0.930 . S
C706 H700 0.930 . S
C706 C707 1.355 . S
C706 C708 1.415 . S
C707 C706 1.355 . S
C707 C709 1.419 . S
C708 C706 1.415 . S
C708 C713 1.425 . S
C708 C715 1.409 . S
C709 H701 0.930 . S
C709 C707 1.419 . S
C709 C710 1.362 . S
C710 H702 0.930 . S
C710 C709 1.362 . S
C710 C713 1.409 . S
C711 H703 0.930 . S
C711 C712 1.355 . S
C711 C713 1.415 . S
C712 C711 1.355 . S
C712 C714 1.419 . S
C713 C708 1.425 . S
C713 C710 1.409 . S
C713 C711 1.415 . S
C714 H704 0.930 . S
C714 C712 1.419 . S
C714 C715 1.362 . S
C715 H705 0.930 . S
C715 C708 1.409 . S
C715 C714 1.362 . S
H716 C722 0.930 . S
H717 C725 0.930 . S
H718 C726 0.930 . S
H719 C727 0.930 . S
H720 C730 0.930 . S
H721 C731 0.930 . S
C722 H716 0.930 . S
C722 C723 1.355 . S
C722 C724 1.415 . S
C723 C722 1.355 . S
C723 C725 1.419 . S
C724 C722 1.415 . S
C724 C729 1.425 . S
C724 C731 1.409 . S
C725 H717 0.930 . S
C725 C723 1.419 . S
C725 C726 1.362 . S
C726 H718 0.930 . S
C726 C725 1.362 . S
C726 C729 1.409 . S
C727 H719 0.930 . S
C727 C728 1.355 . S
C727 C729 1.415 . S
C728 C727 1.355 . S
C728 C730 1.419 . S
C729 C724 1.425 . S
C729 C726 1.409 . S
C729 C727 1.415 . S
C730 H720 0.930 . S
C730 C728 1.419 . S
C730 C731 1.362 . S
C731 H721 0.930 . S
C731 C724 1.409 . S
C731 C730 1.362 . S
H732 C738 0.930 . S
H733 C741 0.930 . S
H734 C742 0.930 . S
H735 C743 0.930 . S
H736 C746 0.930 . S
H737 C747 0.930 . S
C738 H732 0.930 . S
C738 C739 1.355 . S
C738 C740 1.415 . S
C739 C738 1.355 . S
C739 C741 1.419 . S
C740 C738 1.415 . S
C740 C745 1.425 . S
C740 C747 1.409 . S
C741 H733 0.930 . S
C741 C739 1.419 . S
C741 C742 1.362 . S
C742 H734 0.930 . S
C742 C741 1.362 . S
C742 C745 1.409 . S
C743 H735 0.930 . S
C743 C744 1.355 . S
C743 C745 1.415 . S
C744 C743 1.355 . S
C744 C746 1.419 . S
C745 C740 1.425 . S
C745 C742 1.409 . S
C745 C743 1.415 . S
C746 H736 0.930 . S
C746 C744 1.419 . S
C746 C747 1.362 . S
C747 H737 0.930 . S
C747 C740 1.409 . S
C747 C746 1.362 . S
H748 C754 0.930 . S
H749 C757 0.930 . S
H750 C758 0.930 . S
H751 C759 0.930 . S
H752 C762 0.930 . S
H753 C763 0.930 . S
C754 H748 0.930 . S
C754 C755 1.355 . S
C754 C756 1.415 . S
C755 C754 1.355 . S
C755 C757 1.419 . S
C756 C754 1.415 . S
C756 C761 1.425 . S
C756 C763 1.409 . S
C757 H749 0.930 . S
C757 C755 1.419 . S
C757 C758 1.362 . S
C758 H750 0.930 . S
C758 C757 1.362 . S
C758 C761 1.409 . S
C759 H751 0.930 . S
C759 C760 1.355 . S
C759 C761 1.415 . S
C760 C759 1.355 . S
C760 C762 1.419 . S
C761 C756 1.425 . S
C761 C758 1.409 . S
C761 C759 1.415 . S
C762 H752 0.930 . S
C762 C760 1.419 . S
C762 C763 1.362 . S
C763 H753 0.930 . S
C763 C756 1.409 . S
C763 C762 1.362 . S
H764 C770 0.930 . S
H765 C773 0.930 . S
H766 C774 0.930 . S
H767 C775 0.930 . S
H768 C778 0.930 1_554 S
H769 C779 0.930 . S
C770 H764 0.930 . S
C770 C771 1.355 . S
C770 C772 1.426 . S
C771 C770 1.355 . S
C771 C773 1.419 1_554 S
C772 C770 1.426 . S
C772 C777 1.406 1_554 S
C772 C779 1.417 . S
C773 H765 0.930 . S
C773 C771 1.419 1_556 S
C773 C774 1.362 . S
C774 H766 0.930 . S
C774 C773 1.362 . S
C774 C777 1.409 . S
C775 H767 0.930 . S
C775 C776 1.355 . S
C775 C777 1.415 . S
C776 C775 1.355 . S
C776 C778 1.419 . S
C777 C772 1.406 1_556 S
C777 C774 1.409 . S
C777 C775 1.415 . S
C778 H768 0.930 1_556 S
C778 C776 1.419 . S
C778 C779 1.362 1_556 S
C779 H769 0.930 . S
C779 C772 1.417 . S
C779 C778 1.362 1_554 S
C403 C7 0.806 . S
C408 C100 0.943 . S
C419 C25 1.137 . S
C424 C139 1.093 . S
C435 C46 1.310 . S
C440 C178 1.193 . S
C456 C202 1.026 . S
C451 C70 1.061 . S
C472 C241 0.871 . S
C467 C28 0.893 . S
C483 C49 1.126 . S
C488 C280 0.997 . S
C499 C67 1.250 . S
C504 C334 1.268 . S
C515 C4 1.034 . S
C520 C358 1.157 . S
C531 C58 1.682 . S
C536 C373 1.847 . S
C552 C256 1.636 . S
C547 C66 1.574 . S
C568 C295 1.944 . S
C563 C3 2.003 . S
C579 C37 1.815 . S
C584 C319 1.894 . S
C600 C124 1.894 . S
C595 C79 1.772 . S
C611 C16 1.786 . S
C616 C163 1.869 . S
C632 C217 2.002 . S
C627 C24 2.014 . S
C648 C85 1.641 1_655 S
C643 C45 1.556 . S
C664 C339 1.556 . S
C659 C19 1.247 . S
C680 C378 1.356 . S
C675 C41 1.360 . S
C691 C62 1.167 . S
C696 C261 1.189 . S
C712 C300 1.392 . S
C707 C82 1.156 . S
C728 C183 1.594 . S
C723 C40 1.319 . S
C739 C61 1.197 . S
C744 C222 1.406 . S
C760 C105 1.206 . S
C755 C83 1.158 . S
C776 C144 1.411 . S
C771 C20 1.264 . S
