# Generated by pormake.
# Topology zzz, (3,6)-cn, num edge types: 1
# Building blocks:
#     Node 0, Type 0, BuildingBlock: PAMTOO_clean_linker_0, # of connection points: 3
#     Node 1, Type 0, BuildingBlock: PAMTOO_clean_linker_0, # of connection points: 3
#     Node 2, Type 0, BuildingBlock: PAMTOO_clean_linker_0, # of connection points: 3
#     Node 3, Type 0, BuildingBlock: PAMTOO_clean_linker_0, # of connection points: 3
#     Node 4, Type 0, BuildingBlock: PAMTOO_clean_linker_0, # of connection points: 3
#     Node 5, Type 0, BuildingBlock: PAMTOO_clean_linker_0, # of connection points: 3
#     Node 6, Type 0, BuildingBlock: PAMTOO_clean_linker_0, # of connection points: 3
#     Node 7, Type 0, BuildingBlock: PAMTOO_clean_linker_0, # of connection points: 3
#     Node 8, Type 1, BuildingBlock: CUWYAW_clean_sbu_0, # of connection points: 6
#     Node 9, Type 1, BuildingBlock: CUWYAW_clean_sbu_0, # of connection points: 6
#     Node 10, Type 1, BuildingBlock: CUWYAW_clean_sbu_0, # of connection points: 6
#     Node 11, Type 1, BuildingBlock: CUWYAW_clean_sbu_0, # of connection points: 6
#     Edge 12, Type (0, 1), BuildingBlock: XIVTED_clean_linker_0, # of connection points: 2
#     Edge 13, Type (0, 1), BuildingBlock: XIVTED_clean_linker_0, # of connection points: 2
#     Edge 14, Type (0, 1), BuildingBlock: XIVTED_clean_linker_0, # of connection points: 2
#     Edge 15, Type (0, 1), BuildingBlock: XIVTED_clean_linker_0, # of connection points: 2
#     Edge 16, Type (0, 1), BuildingBlock: XIVTED_clean_linker_0, # of connection points: 2
#     Edge 17, Type (0, 1), BuildingBlock: XIVTED_clean_linker_0, # of connection points: 2
#     Edge 18, Type (0, 1), BuildingBlock: XIVTED_clean_linker_0, # of connection points: 2
#     Edge 19, Type (0, 1), BuildingBlock: XIVTED_clean_linker_0, # of connection points: 2
#     Edge 20, Type (0, 1), BuildingBlock: XIVTED_clean_linker_0, # of connection points: 2
#     Edge 21, Type (0, 1), BuildingBlock: XIVTED_clean_linker_0, # of connection points: 2
#     Edge 22, Type (0, 1), BuildingBlock: XIVTED_clean_linker_0, # of connection points: 2
#     Edge 23, Type (0, 1), BuildingBlock: XIVTED_clean_linker_0, # of connection points: 2
#     Edge 24, Type (0, 1), BuildingBlock: XIVTED_clean_linker_0, # of connection points: 2
#     Edge 25, Type (0, 1), BuildingBlock: XIVTED_clean_linker_0, # of connection points: 2
#     Edge 26, Type (0, 1), BuildingBlock: XIVTED_clean_linker_0, # of connection points: 2
#     Edge 27, Type (0, 1), BuildingBlock: XIVTED_clean_linker_0, # of connection points: 2
#     Edge 28, Type (0, 1), BuildingBlock: XIVTED_clean_linker_0, # of connection points: 2
#     Edge 29, Type (0, 1), BuildingBlock: XIVTED_clean_linker_0, # of connection points: 2
#     Edge 30, Type (0, 1), BuildingBlock: XIVTED_clean_linker_0, # of connection points: 2
#     Edge 31, Type (0, 1), BuildingBlock: XIVTED_clean_linker_0, # of connection points: 2
#     Edge 32, Type (0, 1), BuildingBlock: XIVTED_clean_linker_0, # of connection points: 2
#     Edge 33, Type (0, 1), BuildingBlock: XIVTED_clean_linker_0, # of connection points: 2
#     Edge 34, Type (0, 1), BuildingBlock: XIVTED_clean_linker_0, # of connection points: 2
#     Edge 35, Type (0, 1), BuildingBlock: XIVTED_clean_linker_0, # of connection points: 2
# Relax obj value: 0.259
# Max RMSD: 0.164
# Mean RMSD: 0.135
data_MOF--net-zzz--node1-CUWYAW_clean_sbu_0--node2-PAMTOO_clean_linker_0--edge1-XIVTED_clean_linker_0
_symmetry_space_group_name_H-M    P1
_symmetry_Int_Tables_number       1
_symmetry_cell_setting            triclinic
loop_
_symmetry_equiv_pos_as_xyz
'x, y, z'
_cell_length_a     51.202124
_cell_length_b     51.458392
_cell_length_c     14.099621
_cell_angle_alpha  89.781171
_cell_angle_beta   89.823117
_cell_angle_gamma 89.742026
loop_
_atom_site_label
_atom_site_type_symbol
_atom_site_fract_x
_atom_site_fract_y
_atom_site_fract_z
_atom_type_partial_charge
H0 H 0.80817 0.47999 0.37386 0.0
H1 H 0.74186 0.48966 0.19047 0.0
H2 H 0.76798 0.55337 0.36235 0.0
H3 H 0.70344 0.55537 0.30956 0.0
C4 C 0.7068 0.53783 0.26537 0.0
O5 O 0.73265 0.53772 0.2354 0.0
H6 H 0.70264 0.52067 0.31133 0.0
C7 C 0.79172 0.49152 0.34937 0.0
C8 C 0.7898 0.51739 0.37903 0.0
C9 C 0.77485 0.48134 0.28064 0.0
C10 C 0.75465 0.49704 0.24507 0.0
C11 C 0.75157 0.52273 0.2759 0.0
C12 C 0.7695 0.53315 0.34195 0.0
H13 H 0.05924 0.81516 0.43929 0.0
H14 H 0.05591 0.74688 0.2649 0.0
H15 H 0.99037 0.76787 0.44142 0.0
H16 H 0.99693 0.70325 0.40041 0.0
C17 C 1.01256 0.7078 0.34815 0.0
O18 O 1.00907 0.73325 0.31721 0.0
H19 H 0.03169 0.70549 0.3846 0.0
C20 C 0.04938 0.7975 0.41798 0.0
C21 C 0.02395 0.79328 0.45067 0.0
C22 C 0.06108 0.78117 0.35047 0.0
C23 C 0.0474 0.75931 0.31869 0.0
C24 C 1.02226 0.75386 0.35338 0.0
C25 C 1.01028 0.77119 0.41846 0.0
H26 H 0.72679 0.9746 0.28548 0.0
H27 H 0.80795 0.98523 0.22298 0.0
H28 H 0.77609 1.01375 0.48613 0.0
H29 H 0.83832 0.04342 0.3987 0.0
C30 C 0.82919 0.03223 0.34041 0.0
O31 O 0.81904 1.00946 0.37821 0.0
H32 H 0.81332 0.04489 0.31181 0.0
C33 C 0.74595 0.98079 0.3085 0.0
C34 C 0.74852 0.99336 0.39631 0.0
C35 C 0.76713 0.97786 0.24594 0.0
C36 C 0.7916 0.98724 0.27141 0.0
C37 C 0.79491 1.00036 0.35707 0.0
C38 C 0.77335 1.00365 0.41971 0.0
H39 H 0.57242 0.73366 0.39728 0.0
H40 H 0.56583 0.80242 0.22439 0.0
H41 H 0.50634 0.78441 0.43035 0.0
H42 H 0.54818 0.84464 0.35279 0.0
C43 C 0.52773 0.84335 0.32662 0.0
O44 O 0.52193 0.81821 0.29885 0.0
H45 H 0.51444 0.84876 0.3859 0.0
C46 C 0.56283 0.75197 0.38085 0.0
C47 C 0.53891 0.75742 0.42471 0.0
C48 C 0.57264 0.76773 0.30754 0.0
C49 C 0.55893 0.79039 0.28241 0.0
C50 C 0.53552 0.797 0.32871 0.0
C51 C 0.5252 0.7802 0.39887 0.0
H52 H 0.22462 0.5745 0.14207 0.0
H53 H 0.29545 0.56984 0.30496 0.0
H54 H 0.26849 0.50322 0.14948 0.0
H55 H 0.30485 0.48784 0.33351 0.0
C56 C 0.30718 0.50898 0.34655 0.0
O57 O 0.30634 0.52194 0.26013 0.0
H58 H 0.29055 0.51498 0.39288 0.0
C59 C 0.242 0.56391 0.16369 0.0
C60 C 0.24461 0.53796 0.13609 0.0
C61 C 0.25989 0.57556 0.22549 0.0
C62 C 0.2816 0.56119 0.25659 0.0
C63 C 0.285 0.53524 0.22882 0.0
C64 C 0.26624 0.52342 0.16932 0.0
H65 H 0.06662 0.22941 0.17094 0.0
H66 H 0.06625 0.30728 0.28049 0.0
H67 H 1.01033 0.28473 0.06801 0.0
H68 H 1.00124 0.31572 0.27941 0.0
C69 C 1.00773 0.33189 0.23221 0.0
O70 O 0.02805 0.32396 0.17365 0.0
H71 H 0.99067 0.33693 0.18713 0.0
C72 C 0.05911 0.24918 0.16907 0.0
C73 C 0.03763 0.25465 0.11153 0.0
C74 C 0.06958 0.26784 0.2302 0.0
C75 C 0.05875 0.2929 0.23181 0.0
C76 C 0.03774 0.2993 0.17222 0.0
C77 C 0.02703 0.28007 0.11194 0.0
H78 H 0.3063 0.98135 0.12181 0.0
H79 H 0.2322 0.98563 0.26528 0.0
H80 H 0.25914 0.05025 0.09648 0.0
H81 H 0.21871 0.06762 0.26707 0.0
C82 C 0.21721 0.04673 0.28659 0.0
O83 O 0.22015 0.03206 0.2048 0.0
H84 H 0.23327 0.04261 0.33769 0.0
C85 C 0.28808 0.99149 0.13602 0.0
C86 C 0.28481 1.0166 0.09964 0.0
C87 C 0.2695 0.98025 0.19679 0.0
C88 C 0.24659 0.99406 0.21809 0.0
C89 C 0.24259 1.0192 0.18197 0.0
C90 C 0.2619 0.03066 0.12308 0.0
H91 H 0.46172 0.32154 0.12621 0.0
H92 H 0.4623 0.24706 0.26591 0.0
H93 H 0.52226 0.26634 0.06251 0.0
H94 H 0.52341 0.24083 0.29737 0.0
C95 C 0.52216 0.22448 0.24594 0.0
O96 O 0.50359 0.22951 0.17701 0.0
H97 H 0.54162 0.22295 0.21123 0.0
C98 C 0.46978 0.30211 0.13404 0.0
C99 C 0.4927 0.29595 0.08505 0.0
C100 C 0.45873 0.28486 0.20005 0.0
C101 C 0.47028 0.26037 0.21374 0.0
C102 C 0.49284 0.25337 0.16285 0.0
C103 C 0.50432 0.27135 0.09916 0.0
C104 C 1.00248 0.05331 0.51925 0.0
Eu105 Eu 1.00401 0.03337 0.6871 0.0
C106 C 1.018 0.07578 0.48549 0.0
C107 C 1.00967 0.10117 0.50669 0.0
C108 C 0.02682 0.12199 0.49837 0.0
C109 C 0.05273 0.11804 0.46823 0.0
C110 C 0.06046 0.09304 0.43934 0.0
C111 C 0.04321 0.07212 0.44752 0.0
C112 C 0.96594 0.0245 0.82108 0.0
C113 C 1.01892 0.07561 0.84631 0.0
C114 C 0.04993 0.99895 0.03241 0.0
Eu115 Eu 0.03027 1.0134 0.87155 0.0
C116 C 0.06573 0.9758 0.05465 0.0
C117 C 0.08552 0.97669 0.12302 0.0
C118 C 0.10085 0.95461 0.14149 0.0
C119 C 0.09654 0.93129 0.09188 0.0
C120 C 0.07702 0.93088 0.02185 0.0
C121 C 0.06199 0.95289 1.00301 0.0
C122 C 0.06164 1.01641 0.71531 0.0
C123 C 1.00843 0.97074 0.72358 0.0
O124 O 1.01577 0.03204 0.5384 0.0
O125 O 0.98485 0.05854 0.58431 0.0
O126 O 0.96117 0.03223 0.73495 0.0
O127 O 0.99021 0.02117 0.82891 0.0
O128 O 1.01501 0.07145 0.75513 0.0
O129 O 1.02234 0.0561 0.90692 0.0
O130 O 0.02557 0.99451 1.00877 0.0
O131 O 0.06129 1.01591 0.97668 0.0
O132 O 0.06215 0.99744 0.7758 0.0
O133 O 0.04478 0.033 0.74074 0.0
O134 O 1.01482 0.97537 0.81307 0.0
O135 O 1.00556 0.98978 0.66067 0.0
H136 H 0.99026 0.10486 0.53449 0.0
H137 H 1.01983 0.14119 0.51724 0.0
H138 H 0.08016 0.0894 0.41443 0.0
H139 H 0.05016 0.05284 0.4295 0.0
H140 H 0.08906 0.9944 0.1622 0.0
H141 H 0.11587 0.95577 0.19518 0.0
H142 H 0.07254 0.91328 0.9835 0.0
H143 H 0.04715 0.95186 0.9486 0.0
C144 C 0.48232 0.99658 0.49068 0.0
Eu145 Eu 0.50469 1.00959 0.64772 0.0
C146 C 0.46109 0.97812 0.47484 0.0
C147 C 0.44979 0.96521 0.55252 0.0
C148 C 0.42834 0.94899 0.53968 0.0
C149 C 0.41769 0.94556 0.44891 0.0
C150 C 0.42986 0.95769 0.37065 0.0
C151 C 0.45143 0.97385 0.38363 0.0
C152 C 0.51196 0.97496 0.79431 0.0
C153 C 0.46344 0.02898 0.81484 0.0
C154 C 0.55457 0.04892 0.9666 0.0
Eu155 Eu 0.52504 0.03906 0.82492 0.0
C156 C 0.5793 0.03466 0.97851 0.0
C157 C 0.60257 0.04798 0.99591 0.0
C158 C 0.62663 0.03545 0.98293 0.0
C159 C 0.62777 1.00953 0.95071 0.0
C160 C 0.60435 0.99616 0.93583 0.0
C161 C 0.58047 1.00848 0.95032 0.0
C162 C 0.50795 0.07017 0.68189 0.0
C163 C 0.56679 1.01652 0.6655 0.0
O164 O 0.47574 1.01744 0.5386 0.0
O165 O 0.50428 0.98614 0.51978 0.0
O166 O 0.50414 0.96833 0.71076 0.0
O167 O 0.51568 0.99902 0.79295 0.0
O168 O 0.4672 0.02188 0.7252 0.0
O169 O 0.48318 0.03434 0.87196 0.0
O170 O 0.53334 0.03492 0.97587 0.0
O171 O 0.55401 0.06397 0.89146 0.0
O172 O 0.50502 0.07536 0.77164 0.0
O173 O 0.52085 0.04926 0.67187 0.0
O174 O 0.56241 0.02439 0.75335 0.0
O175 O 0.54737 1.01197 0.60629 0.0
H176 H 0.45708 0.96828 0.6236 0.0
H177 H 0.41957 0.93983 0.60121 0.0
H178 H 0.42189 0.95587 0.29994 0.0
H179 H 0.45999 0.98366 0.32299 0.0
H180 H 0.60216 0.0683 0.01566 0.0
H181 H 0.64432 0.04616 0.99741 0.0
H182 H 0.60436 0.97638 0.90985 0.0
H183 H 0.5629 0.99789 0.93324 0.0
C184 C 0.5138 0.50342 0.48914 0.0
Eu185 Eu 0.52131 0.51796 0.66183 0.0
C186 C 0.49902 0.48025 0.45955 0.0
C187 C 0.50609 0.45555 0.49395 0.0
C188 C 0.48932 0.43453 0.48364 0.0
C189 C 0.46491 0.43762 0.43939 0.0
C190 C 0.45829 0.46208 0.40133 0.0
C191 C 0.47519 0.4832 0.41142 0.0
C192 C 0.56561 0.52482 0.76589 0.0
C193 C 0.51524 0.47398 0.82132 0.0
C194 C 0.52063 0.55101 0.03296 0.0
Eu195 Eu 0.5122 0.53664 0.86079 0.0
C196 C 0.53612 0.5739 0.06059 0.0
C197 C 0.52963 0.59856 0.02436 0.0
C198 C 0.54706 0.61912 0.03168 0.0
C199 C 0.57153 0.61562 0.07492 0.0
C200 C 0.57765 0.59127 0.11489 0.0
C201 C 0.56009 0.57057 0.10761 0.0
C202 C 0.46783 0.53001 0.75714 0.0
C203 C 0.51785 0.58055 0.70055 0.0
O204 O 0.49959 0.52143 0.52984 0.0
O205 O 0.53592 0.49924 0.53354 0.0
O206 O 0.56294 0.50652 0.70351 0.0
O207 O 0.54585 0.53945 0.76447 0.0
O208 O 0.5121 0.47933 0.73043 0.0
O209 O 0.51779 0.49287 0.88424 0.0
O210 O 0.53424 0.53261 0.9919 0.0
O211 O 0.4984 0.5556 0.9898 0.0
O212 O 0.47045 0.548 0.82076 0.0
O213 O 0.48755 0.51531 0.75811 0.0
O214 O 0.52116 0.57529 0.79146 0.0
O215 O 0.5153 0.56161 0.6379 0.0
H216 H 0.52417 0.45253 0.53218 0.0
H217 H 0.49553 0.41581 0.51098 0.0
H218 H 0.43969 0.46517 0.36664 0.0
H219 H 0.46908 0.50213 0.38562 0.0
H220 H 0.51148 0.60186 0.98683 0.0
H221 H 0.5413 0.63783 1.00292 0.0
H222 H 0.59627 0.58799 0.14919 0.0
H223 H 0.56577 0.55165 0.13466 0.0
C224 C 0.04954 0.55566 0.50953 0.0
Eu225 Eu 0.02821 0.54156 0.6677 0.0
C226 C 0.07153 0.5734 0.49095 0.0
C227 C 0.0686 0.59444 0.42814 0.0
C228 C 0.08915 0.61191 0.41361 0.0
C229 C 0.11304 0.60858 0.46155 0.0
C230 C 0.11559 0.58768 0.52564 0.0
C231 C 0.09509 0.57045 0.54056 0.0
C232 C 1.02104 0.57476 0.81882 0.0
C233 C 0.06875 0.52305 0.83449 0.0
C234 C 0.98536 0.49649 0.01154 0.0
Eu235 Eu 1.00625 0.51062 0.85207 0.0
C236 C 0.96586 0.47647 0.0326 0.0
C237 C 0.95779 0.45947 0.96094 0.0
C238 C 0.93721 0.4423 0.97692 0.0
C239 C 0.92412 0.44205 0.06462 0.0
C240 C 0.93321 0.45826 0.13784 0.0
C241 C 0.95393 0.47534 0.12182 0.0
C242 C 1.01507 0.47721 0.70287 0.0
C243 C 0.96556 0.5297 0.68558 0.0
O244 O 0.05527 0.53362 0.55229 0.0
O245 O 0.02831 0.56669 0.54297 0.0
O246 O 0.02953 0.58179 0.73603 0.0
O247 O 1.01677 0.55068 0.81515 0.0
O248 O 0.06569 0.53002 0.74428 0.0
O249 O 0.04867 0.51774 0.89117 0.0
O250 O 0.97674 0.51629 0.96149 0.0
O251 O 1.00806 0.48777 0.98193 0.0
O252 O 1.00733 0.47 0.78634 0.0
O253 O 1.018 0.50147 0.70537 0.0
O254 O 0.96873 0.52177 0.77472 0.0
O255 O 0.98553 0.53585 0.62957 0.0
H256 H 0.05042 0.59735 0.39038 0.0
H257 H 0.08639 0.62785 0.36424 0.0
H258 H 0.13379 0.58394 0.56221 0.0
H259 H 0.09786 0.55467 0.59059 0.0
H260 H 0.96673 0.46014 0.89138 0.0
H261 H 0.93086 0.42999 0.91937 0.0
H262 H 0.92332 0.45896 0.20578 0.0
H263 H 0.9599 0.48839 0.17778 0.0
H264 H 0.17474 0.07955 0.31118 0.0
H265 H 0.09593 0.98039 0.64732 0.0
H266 H 0.20119 1.00208 0.37815 0.0
H267 H 0.0746 0.06107 0.61691 0.0
H268 H 0.13172 0.98686 0.53457 0.0
H269 H 0.13532 0.07203 0.40715 0.0
C270 C 0.17208 0.0608 0.34497 0.0
C271 C 0.1913 0.04134 0.33611 0.0
C272 C 0.11917 1.00317 0.55179 0.0
C273 C 0.14623 0.03265 0.44708 0.0
C274 C 0.09865 0.99948 0.61621 0.0
C275 C 0.08212 1.0202 0.64131 0.0
C276 C 0.12342 0.02786 0.51174 0.0
C277 C 0.08668 0.04449 0.59873 0.0
C278 C 0.14962 0.05657 0.40018 0.0
C279 C 0.18684 1.01752 0.38212 0.0
N280 N 0.10691 0.04768 0.53635 0.0
N281 N 0.16491 1.01389 0.43564 0.0
H282 H 0.53988 0.17469 0.21075 0.0
H283 H 0.48219 0.1164 0.69582 0.0
H284 H 0.49058 0.21783 0.40226 0.0
H285 H 0.52838 0.07106 0.50046 0.0
H286 H 0.48231 0.15249 0.58275 0.0
H287 H 0.53328 0.13556 0.30825 0.0
C288 C 0.52748 0.17582 0.27298 0.0
C289 C 0.51608 0.1996 0.29943 0.0
C290 C 0.49226 0.13462 0.56391 0.0
C291 C 0.50842 0.15494 0.41155 0.0
C292 C 0.49215 0.11394 0.62854 0.0
C293 C 0.50542 0.0907 0.60792 0.0
C294 C 0.50591 0.13226 0.47771 0.0
C295 C 0.51792 0.08864 0.51939 0.0
C296 C 0.52374 0.15351 0.3287 0.0
C297 C 0.49996 0.19995 0.38008 0.0
N298 N 0.51808 0.10922 0.45799 0.0
N299 N 0.49683 0.17809 0.43367 0.0
H300 H 0.32034 0.55085 0.45763 0.0
H301 H 0.45759 0.49058 0.63179 0.0
H302 H 0.3517 0.47843 0.35473 0.0
H303 H 0.42578 0.56271 0.73643 0.0
H304 H 0.41967 0.48633 0.52697 0.0
H305 H 0.35973 0.55661 0.55429 0.0
C306 C 0.33567 0.53629 0.45478 0.0
C307 C 0.33263 0.51404 0.39868 0.0
C308 C 0.42104 0.50317 0.57237 0.0
C309 C 0.37783 0.52034 0.50977 0.0
C310 C 0.44267 0.50557 0.63256 0.0
C311 C 0.44488 0.52703 0.6933 0.0
C312 C 0.40144 0.52244 0.57211 0.0
C313 C 0.42488 0.54581 0.69113 0.0
C314 C 0.35812 0.5395 0.51029 0.0
C315 C 0.35316 0.4958 0.39742 0.0
N316 N 0.40409 0.5431 0.63172 0.0
N317 N 0.37474 0.49926 0.45246 0.0
H318 H 0.03295 0.33213 0.40392 0.0
H319 H 1.01309 0.48504 0.50728 0.0
H320 H 0.99922 0.38437 0.19828 0.0
H321 H 0.02775 0.42658 0.72042 0.0
H322 H 1.01555 0.45083 0.38443 0.0
H323 H 0.03939 0.3689 0.51127 0.0
C324 C 0.02723 0.35144 0.38096 0.0
C325 C 1.01521 0.35512 0.29268 0.0
C326 C 1.01856 0.44564 0.45809 0.0
C327 C 1.02238 0.39753 0.41553 0.0
C328 C 1.01735 0.46518 0.52797 0.0
C329 C 1.02019 0.45863 0.62421 0.0
C330 C 0.02305 0.41955 0.48489 0.0
C331 C 0.02533 0.43252 0.6472 0.0
C332 C 0.03076 0.37246 0.44238 0.0
C333 C 1.00834 0.38066 0.26619 0.0
N334 N 0.02656 0.41408 0.57856 0.0
N335 N 1.01177 0.40084 0.32759 0.0
H336 H 0.88138 1.01954 0.36098 0.0
H337 H 0.91323 0.02925 0.80312 0.0
H338 H 0.82326 0.0328 0.14592 0.0
H339 H 0.97264 1.01485 0.01289 0.0
H340 H 0.88003 0.0282 0.92784 0.0
H341 H 0.91479 1.01509 0.23607 0.0
C342 C 0.87564 0.02128 0.28735 0.0
C343 C 0.84955 0.02683 0.26388 0.0
C344 C 0.90027 0.02512 0.947 0.0
C345 C 0.88768 0.02184 0.1202 0.0
C346 C 0.9193 0.02569 0.87556 0.0
C347 C 0.94583 0.02213 0.89736 0.0
C348 C 0.90764 0.02108 0.04192 0.0
C349 C 0.95244 1.01762 0.99273 0.0
C350 C 0.89472 1.01882 0.21605 0.0
C351 C 0.84316 0.02876 0.16729 0.0
N352 N 0.93353 1.01735 0.06146 0.0
N353 N 0.86204 0.02645 0.09937 0.0
H354 H 0.53399 0.83546 0.13272 0.0
H355 H 0.51584 0.98554 0.98576 0.0
H356 H 0.51647 0.89543 0.33616 0.0
H357 H 0.51563 0.92243 0.78583 0.0
H358 H 0.51996 0.95374 0.11588 0.0
H359 H 0.53099 0.86777 1.0053 0.0
C360 C 0.52917 0.85536 0.15056 0.0
C361 C 0.52466 0.86257 0.24522 0.0
C362 C 0.51912 0.94688 0.04346 0.0
C363 C 0.52201 0.9 0.09939 0.0
C364 C 0.51696 0.96505 0.96924 0.0
C365 C 0.5156 0.95664 0.87486 0.0
C366 C 0.52009 0.92012 0.02293 0.0
C367 C 0.51666 0.9298 0.85755 0.0
C368 C 0.52757 0.87387 0.07771 0.0
C369 C 0.51943 0.88891 0.26399 0.0
N370 N 0.51891 0.91257 0.93054 0.0
N371 N 0.51821 0.90664 0.19196 0.0
H372 H 0.67469 0.57718 0.1986 0.0
H373 H 0.60531 0.49008 0.79961 0.0
H374 H 0.69566 0.49747 0.14385 0.0
H375 H 0.57661 0.56525 0.88591 0.0
H376 H 0.64091 0.49387 0.91483 0.0
H377 H 0.6415 0.5748 0.07367 0.0
C378 C 0.67249 0.55924 0.15957 0.0
C379 C 0.68802 0.53747 0.18181 0.0
C380 C 0.6269 0.50959 0.90843 0.0
C381 C 0.64981 0.5345 0.03862 0.0
C382 C 0.60659 0.50746 0.84239 0.0
C383 C 0.5879 0.52735 0.83301 0.0
C384 C 0.62878 0.5319 0.96541 0.0
C385 C 0.59052 0.5494 0.89077 0.0
C386 C 0.65342 0.55784 0.08852 0.0
C387 C 0.68423 0.51473 0.12883 0.0
N388 N 0.61052 0.55108 0.95421 0.0
N389 N 0.66552 0.51381 0.06017 0.0
H390 H 0.02997 0.71365 0.16253 0.0
H391 H 1.00442 0.56536 1.00474 0.0
H392 H 0.99536 0.65718 0.35044 0.0
H393 H 0.03178 0.62606 0.81824 0.0
H394 H 1.00135 0.59758 0.13415 0.0
H395 H 0.03128 0.68096 0.03704 0.0
C396 C 1.02227 0.69448 0.17703 0.0
C397 C 1.01181 0.68846 0.26653 0.0
C398 C 1.00797 0.60377 0.0647 0.0
C399 C 1.01392 0.65035 0.12317 0.0
C400 C 1.00971 0.58538 0.99094 0.0
C401 C 1.01833 0.59298 0.90036 0.0
C402 C 1.01501 0.62988 0.04762 0.0
C403 C 0.02501 0.61921 0.88669 0.0
C404 C 0.02314 0.67568 0.10536 0.0
C405 C 1.00298 0.66288 0.28177 0.0
N406 N 0.02326 0.63654 0.95898 0.0
N407 N 1.00418 0.64483 0.21108 0.0
H408 H 0.06326 0.2695 0.42149 0.0
H409 H 0.08999 0.12943 0.33356 0.0
H410 H 0.11667 0.2432 0.20567 0.0
H411 H 0.05788 0.15728 0.59787 0.0
H412 H 0.1125 0.17062 0.31325 0.0
H413 H 0.07525 0.2323 0.51904 0.0
C414 C 0.07868 0.25669 0.39684 0.0
C415 C 0.08795 0.25849 0.3035 0.0
C416 C 0.10108 0.16758 0.37705 0.0
C417 C 0.10069 0.21524 0.41184 0.0
C418 C 0.08814 0.14396 0.38855 0.0
C419 C 0.07106 0.14033 0.46535 0.0
C420 C 0.09638 0.18789 0.4416 0.0
C421 C 0.06981 0.15977 0.53498 0.0
C422 C 0.08528 0.23508 0.45206 0.0
C423 C 0.10829 0.24173 0.27609 0.0
N424 N 0.08166 0.18298 0.52016 0.0
N425 N 0.11309 0.21996 0.32796 0.0
H426 H 0.26644 0.97231 0.38795 0.0
H427 H 0.40156 0.91307 0.30599 0.0
H428 H 0.29098 0.93488 0.12953 0.0
H429 H 0.37487 0.9491 0.56484 0.0
H430 H 0.35626 0.90386 0.26488 0.0
H431 H 0.29764 0.9459 0.47579 0.0
C432 C 0.27754 0.95766 0.35009 0.0
C433 C 0.27715 0.95667 0.25074 0.0
C434 C 0.36033 0.91309 0.3321 0.0
C435 C 0.31375 0.92735 0.34999 0.0
C436 C 0.38623 0.9185 0.35525 0.0
C437 C 0.39196 0.9328 0.43707 0.0
C438 C 0.34008 0.92258 0.39021 0.0
C439 C 0.37142 0.93849 0.5 0.0
C440 C 0.29566 0.94272 0.40027 0.0
C441 C 0.29161 0.93699 0.20587 0.0
N442 N 0.34636 0.93401 0.47399 0.0
N443 N 0.31014 0.92378 0.25526 0.0
H444 H 0.46083 0.28565 0.39286 0.0
H445 H 0.43348 0.42478 0.28898 0.0
H446 H 0.41271 0.30985 0.1584 0.0
H447 H 0.45562 0.39859 0.56877 0.0
H448 H 0.41332 0.38289 0.26062 0.0
H449 H 0.44553 0.32297 0.48282 0.0
C450 C 0.4459 0.29804 0.36207 0.0
C451 C 0.43902 0.29553 0.26644 0.0
C452 C 0.42198 0.38643 0.3293 0.0
C453 C 0.42248 0.33891 0.36675 0.0
C454 C 0.43356 0.41049 0.34555 0.0
C455 C 0.44731 0.41487 0.42985 0.0
C456 C 0.42479 0.3664 0.39676 0.0
C457 C 0.4464 0.39559 0.50072 0.0
C458 C 0.43738 0.31968 0.41313 0.0
C459 C 0.41928 0.31185 0.23094 0.0
N460 N 0.43608 0.37193 0.48157 0.0
N461 N 0.41256 0.33363 0.27942 0.0
H462 H 0.25976 0.58747 0.41402 0.0
H463 H 0.12728 0.62844 0.28767 0.0
H464 H 0.24168 0.62021 0.14016 0.0
H465 H 0.15248 0.62525 0.57942 0.0
H466 H 0.17106 0.64068 0.24063 0.0
H467 H 0.22738 0.61594 0.48571 0.0
C468 C 0.24989 0.60156 0.36934 0.0
C469 C 0.25231 0.60051 0.27035 0.0
C470 C 0.16698 0.63806 0.31545 0.0
C471 C 0.21434 0.63223 0.35118 0.0
C472 C 0.14174 0.6311 0.34258 0.0
C473 C 0.13641 0.62442 0.43727 0.0
C474 C 0.18716 0.63745 0.38292 0.0
C475 C 0.15607 0.62873 0.50477 0.0
C476 C 0.23109 0.61775 0.41032 0.0
C477 C 0.23939 0.6196 0.21651 0.0
N478 N 0.18083 0.63402 0.47599 0.0
N479 N 0.22007 0.63395 0.25697 0.0
H480 H 0.10572 0.80087 0.42921 0.0
H481 H 0.11188 0.89054 0.97721 0.0
H482 H 0.07011 0.78433 0.15957 0.0
H483 H 0.11178 0.91522 0.2697 0.0
H484 H 0.11977 0.84591 0.03015 0.0
H485 H 0.13186 0.83474 0.35309 0.0
C486 C 0.10429 0.80353 0.35313 0.0
C487 C 0.08487 0.79068 0.30134 0.0
C488 C 0.11891 0.86132 0.08222 0.0
C489 C 0.11457 0.82918 0.21447 0.0
C490 C 0.11411 0.88678 0.05236 0.0
C491 C 0.10985 0.90658 0.11932 0.0
C492 C 0.11983 0.85573 0.1795 0.0
C493 C 0.11433 0.90067 0.21526 0.0
C494 C 0.11915 0.82291 0.30989 0.0
C495 C 0.08434 0.79429 0.20271 0.0
N496 N 0.11848 0.87567 0.24259 0.0
N497 N 0.09835 0.81386 0.16276 0.0
H498 H 0.77768 1.00394 0.08232 0.0
H499 H 0.64 0.95837 0.98624 0.0
H500 H 0.74341 0.93316 0.18752 0.0
H501 H 0.6737 0.02963 0.8803 0.0
H502 H 0.68326 0.93926 0.99373 0.0
H503 H 0.74912 1.00215 0.94472 0.0
C504 C 0.76506 0.98726 0.07396 0.0
C505 C 0.76178 0.96936 0.14817 0.0
C506 C 0.68124 0.95891 0.9668 0.0
C507 C 0.72842 0.96784 0.99409 0.0
C508 C 0.65639 0.96991 0.96241 0.0
C509 C 0.65324 0.99615 0.93686 0.0
C510 C 0.70317 0.97449 0.94892 0.0
C511 C 0.67534 1.00981 0.90565 0.0
C512 C 0.74851 0.98637 0.9957 0.0
C513 C 0.74562 0.94791 0.13313 0.0
N514 N 0.69947 0.99908 0.91519 0.0
N515 N 0.72875 0.94821 0.05924 0.0
H516 H 0.61878 0.74399 0.35838 0.0
H517 H 0.58247 0.6526 0.9399 0.0
H518 H 0.57267 0.7647 0.11407 0.0
H519 H 0.60207 0.62976 0.22586 0.0
H520 H 0.60134 0.69534 0.96931 0.0
H521 H 0.63612 0.70664 0.27179 0.0
C522 C 0.61331 0.74145 0.28484 0.0
C523 C 0.59313 0.75652 0.24511 0.0
C524 C 0.60227 0.68067 0.02451 0.0
C525 C 0.61268 0.71401 0.14653 0.0
C526 C 0.59127 0.65636 1.00824 0.0
C527 C 0.58958 0.63803 0.08213 0.0
C528 C 0.61156 0.68664 0.11528 0.0
C529 C 0.60234 0.6435 0.16759 0.0
C530 C 0.6231 0.72003 0.23567 0.0
C531 C 0.58745 0.75299 0.14878 0.0
N532 N 0.6122 0.66759 0.18269 0.0
N533 N 0.59644 0.73146 0.10364 0.0
H534 H 0.79106 0.43528 0.36152 0.0
H535 H 0.88503 0.43755 0.93343 0.0
H536 H 0.7772 0.47168 0.09029 0.0
H537 H 0.9049 0.41574 0.22029 0.0
H538 H 0.8395 0.42818 0.96755 0.0
H539 H 0.82335 0.40678 0.28708 0.0
C540 C 0.79397 0.43651 0.28549 0.0
C541 C 0.78257 0.45682 0.23294 0.0
C542 C 0.8539 0.42464 0.02227 0.0
C543 C 0.81953 0.42466 0.14802 0.0
C544 C 0.88005 0.4299 1.00276 0.0
C545 C 0.89874 0.42846 0.07543 0.0
C546 C 0.84634 0.41846 0.11541 0.0
C547 C 0.89095 0.41822 0.1634 0.0
C548 C 0.81248 0.42028 0.24306 0.0
C549 C 0.78623 0.45691 0.13432 0.0
N550 N 0.86521 0.41432 0.18184 0.0
N551 N 0.80512 0.44171 0.09545 0.0
H552 H 1.00872 0.21583 0.1876 0.0
H553 H 0.02459 0.12047 0.74141 0.0
H554 H 0.04323 0.24076 0.92405 0.0
H555 H 1.01374 0.09381 0.02929 0.0
H556 H 0.02459 0.16544 0.79829 0.0
H557 H 1.00207 0.17253 0.12044 0.0
C558 C 1.01394 0.21244 0.11413 0.0
C559 C 0.02598 0.23215 0.06065 0.0
C560 C 1.02215 0.14977 0.84896 0.0
C561 C 1.01935 0.18212 0.98397 0.0
C562 C 1.02213 0.124 0.81662 0.0
C563 C 1.01926 0.10311 0.88064 0.0
C564 C 1.01883 0.15492 0.94606 0.0
C565 C 1.0162 0.10913 0.97723 0.0
C566 C 1.01057 0.18757 0.07633 0.0
C567 C 0.03327 0.22636 0.9669 0.0
N568 N 1.01596 0.13437 1.00675 0.0
N569 N 0.02998 0.20187 0.93169 0.0
H570 H 0.29692 1.00781 0.91391 0.0
H571 H 0.44677 0.04706 0.98879 0.0
H572 H 0.32486 0.04669 0.1631 0.0
H573 H 0.4173 1.0156 0.72705 0.0
H574 H 0.40204 0.04927 0.05006 0.0
H575 H 0.33984 1.01374 0.83902 0.0
C576 C 0.31182 1.01853 0.95134 0.0
C577 C 0.30705 0.02743 0.04384 0.0
C578 C 0.4053 0.04203 0.97899 0.0
C579 C 0.35687 0.03313 0.96057 0.0
C580 C 0.43095 0.04066 0.94387 0.0
C581 C 0.43607 0.03103 0.85236 0.0
C582 C 0.38436 0.03356 0.92281 0.0
C583 C 0.41451 0.02315 0.79792 0.0
C584 C 0.33649 0.02157 0.90918 0.0
C585 C 0.32746 0.0402 0.09072 0.0
N586 N 0.38976 0.02445 0.83405 0.0
N587 N 0.35147 0.04241 0.04914 0.0
H588 H 0.52939 0.33016 0.14399 0.0
H589 H 0.50062 0.43089 0.72017 0.0
H590 H 0.48068 0.31193 0.90539 0.0
H591 H 0.52969 0.45362 0.99444 0.0
H592 H 0.50016 0.38557 0.77364 0.0
H593 H 0.53782 0.37317 0.07465 0.0
C594 C 0.5214 0.33484 0.07489 0.0
C595 C 0.50486 0.31724 0.02911 0.0
C596 C 0.50673 0.40045 0.822 0.0
C597 C 0.51351 0.36682 0.95097 0.0
C598 C 0.507 0.4264 0.79159 0.0
C599 C 0.51504 0.44628 0.85308 0.0
C600 C 0.51488 0.3941 0.91434 0.0
C601 C 0.52312 0.43908 0.94474 0.0
C602 C 0.52581 0.35956 0.03615 0.0
C603 C 0.49408 0.32469 0.94165 0.0
N604 N 0.52286 0.41366 0.97244 0.0
N605 N 0.49846 0.34893 0.90569 0.0
H606 H 0.23383 0.54682 0.94949 0.0
H607 H 0.08408 0.50539 0.01066 0.0
H608 H 0.20443 0.50712 0.19651 0.0
H609 H 0.11556 0.53689 0.75054 0.0
H610 H 0.12821 0.5038 0.07642 0.0
H611 H 0.19174 0.54024 0.87068 0.0
C612 C 0.21879 0.53582 0.98573 0.0
C613 C 0.22289 0.52691 0.07882 0.0
C614 C 0.12553 0.51092 1.00475 0.0
C615 C 0.17397 0.52042 0.99083 0.0
C616 C 0.10022 0.51194 0.96702 0.0
C617 C 0.09582 0.52142 0.87461 0.0
C618 C 0.14687 0.51959 0.95034 0.0
C619 C 0.11778 0.52948 0.82198 0.0
C620 C 0.19459 0.53238 0.94126 0.0
C621 C 0.20234 0.51369 0.12387 0.0
N622 N 0.14219 0.52853 0.86066 0.0
N623 N 0.17874 0.51111 0.08002 0.0
H624 H 0.03439 0.80588 0.63458 0.0
H625 H 0.98911 0.95297 0.55375 0.0
H626 H 0.98954 0.83078 0.39297 0.0
H627 H 1.02117 0.92533 0.81835 0.0
H628 H 0.98701 0.9081 0.49768 0.0
H629 H 0.02676 0.84831 0.7088 0.0
C630 C 1.022 0.81994 0.59893 0.0
C631 C 1.01202 0.8145 0.50846 0.0
C632 C 0.99429 0.91178 0.56835 0.0
C633 C 1.00434 0.86385 0.59074 0.0
C634 C 0.99558 0.93751 0.60051 0.0
C635 C 1.00544 0.94319 0.69111 0.0
C636 C 1.00318 0.89132 0.62646 0.0
C637 C 1.01342 0.92208 0.74809 0.0
C638 C 1.01796 0.84435 0.64067 0.0
C639 C 0.997 0.83388 0.46379 0.0
N640 N 1.01234 0.89723 0.71459 0.0
N641 N 0.99394 0.85773 0.50461 0.0
H642 H 0.7315 0.03548 0.50508 0.0
H643 H 0.58494 0.98702 0.51717 0.0
H644 H 0.70986 0.9575 0.42717 0.0
H645 H 0.61197 0.03745 0.7396 0.0
H646 H 0.63025 0.98092 0.46507 0.0
H647 H 0.68806 0.04103 0.57939 0.0
C648 C 0.71793 1.01941 0.50464 0.0
C649 C 0.72442 0.99615 0.45756 0.0
C650 C 0.62627 0.99332 0.52535 0.0
C651 C 0.67438 1.00274 0.53984 0.0
C652 C 0.60035 0.99692 0.55489 0.0
C653 C 0.59445 1.0128 0.63292 0.0
C654 C 0.64667 1.00615 0.57235 0.0
C655 C 0.6155 0.02499 0.67913 0.0
C656 C 0.69304 0.02268 0.5465 0.0
C657 C 0.70571 0.9761 0.45958 0.0
N658 N 0.64059 0.02166 0.64763 0.0
N659 N 0.68159 0.98003 0.49794 0.0
H660 H 0.49958 0.72433 0.37964 0.0
H661 H 0.53426 0.62366 0.7979 0.0
H662 H 0.55503 0.74106 0.5997 0.0
H663 H 0.50128 0.60072 0.52986 0.0
H664 H 0.5346 0.66889 0.74281 0.0
H665 H 0.49153 0.68169 0.45295 0.0
C666 C 0.50921 0.71945 0.44571 0.0
C667 C 0.52759 0.73645 0.48479 0.0
C668 C 0.52718 0.65397 0.69624 0.0
C669 C 0.51919 0.68736 0.5674 0.0
C670 C 0.52697 0.62809 0.72759 0.0
C671 C 0.5179 0.6082 0.6682 0.0
C672 C 0.51787 0.66022 0.60525 0.0
C673 C 0.50868 0.61529 0.57785 0.0
C674 C 0.50498 0.69494 0.48658 0.0
C675 C 0.54031 0.72873 0.56851 0.0
N676 N 0.50887 0.64064 0.5493 0.0
N677 N 0.53599 0.70475 0.6067 0.0
H678 H 0.8014 0.50354 0.56122 0.0
H679 H 0.9498 0.55028 0.51406 0.0
H680 H 0.82901 0.55103 0.33023 0.0
H681 H 0.91906 0.51334 0.7657 0.0
H682 H 0.90562 0.55215 0.4486 0.0
H683 H 0.84335 0.5093 0.6418 0.0
C684 C 0.81601 0.51597 0.52907 0.0
C685 C 0.81143 0.52729 0.43975 0.0
C686 C 0.90848 0.54377 0.51839 0.0
C687 C 0.86024 0.53299 0.52965 0.0
C688 C 0.93382 0.54259 0.55591 0.0
C689 C 0.93844 0.53153 0.64584 0.0
C690 C 0.88734 0.53364 0.57039 0.0
C691 C 0.91667 0.52204 0.69623 0.0
C692 C 0.84013 0.51898 0.57452 0.0
C693 C 0.83144 0.54248 0.39994 0.0
N694 N 0.89224 0.52316 0.65769 0.0
N695 N 0.85501 0.5446 0.44442 0.0
loop_
_geom_bond_atom_site_label_1
_geom_bond_atom_site_label_2
_geom_bond_distance
_geom_bond_site_symmetry_2
_ccdc_geom_bond_type
H0 C7 0.929 . S
H1 C10 0.930 . S
H2 C12 0.929 . S
H3 C4 0.969 . S
C4 H3 0.969 . S
C4 O5 1.550 . S
C4 H6 0.973 . S
O5 C4 1.550 . S
O5 C11 1.412 . S
H6 C4 0.973 . S
C7 H0 0.929 . S
C7 C8 1.400 . S
C7 C9 1.364 . S
C8 C7 1.400 . S
C8 C12 1.377 . S
C9 C7 1.364 . S
C9 C10 1.374 . S
C10 H1 0.930 . S
C10 C9 1.374 . S
C10 C11 1.383 . S
C11 O5 1.412 . S
C11 C10 1.383 . S
C11 C12 1.394 . S
C12 H2 0.929 . S
C12 C8 1.377 . S
C12 C11 1.394 . S
H13 C20 0.928 1_655 S
H14 C23 0.930 . S
H15 C25 0.928 1_655 S
H16 C17 0.969 . S
C17 H16 0.969 . S
C17 O18 1.550 1_455 S
C17 H19 0.973 1_455 S
O18 C17 1.550 1_655 S
O18 C24 1.405 1_655 S
H19 C17 0.973 1_655 S
C20 H13 0.928 1_455 S
C20 C21 1.399 . S
C20 C22 1.364 . S
C21 C20 1.399 . S
C21 C25 1.377 . S
C22 C20 1.364 . S
C22 C23 1.374 1_455 S
C23 H14 0.930 . S
C23 C22 1.374 1_655 S
C23 C24 1.382 1_655 S
C24 O18 1.405 1_455 S
C24 C23 1.382 1_455 S
C24 C25 1.394 . S
C25 H15 0.928 1_455 S
C25 C21 1.377 . S
C25 C24 1.394 . S
H26 C33 0.928 1_565 S
H27 C36 0.929 . S
H28 C38 0.928 1_565 S
H29 C30 0.969 . S
C30 H29 0.969 . S
C30 O31 1.550 1_545 S
C30 H32 0.973 1_545 S
O31 C30 1.550 1_565 S
O31 C37 1.405 1_565 S
H32 C30 0.973 1_565 S
C33 H26 0.928 1_545 S
C33 C34 1.399 . S
C33 C35 1.364 . S
C34 C33 1.399 . S
C34 C38 1.377 . S
C35 C33 1.364 . S
C35 C36 1.374 1_545 S
C36 H27 0.929 . S
C36 C35 1.374 1_565 S
C36 C37 1.382 1_565 S
C37 O31 1.405 1_545 S
C37 C36 1.382 1_545 S
C37 C38 1.394 . S
C38 H28 0.928 1_545 S
C38 C34 1.377 . S
C38 C37 1.394 . S
H39 C46 0.929 . S
H40 C49 0.930 . S
H41 C51 0.929 . S
H42 C43 0.969 . S
C43 H42 0.969 . S
C43 O44 1.550 . S
C43 H45 0.973 . S
O44 C43 1.550 . S
O44 C50 1.412 . S
H45 C43 0.973 . S
C46 H39 0.929 . S
C46 C47 1.400 . S
C46 C48 1.364 . S
C47 C46 1.400 . S
C47 C51 1.377 . S
C48 C46 1.364 . S
C48 C49 1.374 . S
C49 H40 0.930 . S
C49 C48 1.374 . S
C49 C50 1.383 . S
C50 O44 1.412 . S
C50 C49 1.383 . S
C50 C51 1.394 . S
C51 H41 0.929 . S
C51 C47 1.377 . S
C51 C50 1.394 . S
H52 C59 0.929 . S
H53 C62 0.930 . S
H54 C64 0.929 . S
H55 C56 0.969 . S
C56 H55 0.969 . S
C56 O57 1.550 . S
C56 H58 0.973 . S
O57 C56 1.550 . S
O57 C63 1.412 . S
H58 C56 0.973 . S
C59 H52 0.929 . S
C59 C60 1.400 1_554 S
C59 C61 1.364 . S
C60 C59 1.400 1_556 S
C60 C64 1.377 . S
C61 C59 1.364 . S
C61 C62 1.374 . S
C62 H53 0.930 . S
C62 C61 1.374 . S
C62 C63 1.383 . S
C63 O57 1.412 . S
C63 C62 1.383 . S
C63 C64 1.394 1_554 S
C64 H54 0.929 . S
C64 C60 1.377 . S
C64 C63 1.394 1_556 S
H65 C72 0.928 1_655 S
H66 C75 0.930 . S
H67 C77 0.928 1_655 S
H68 C69 0.969 . S
C69 H68 0.969 . S
C69 O70 1.550 1_455 S
C69 H71 0.973 1_455 S
O70 C69 1.550 1_655 S
O70 C76 1.402 1_655 S
H71 C69 0.973 1_655 S
C72 H65 0.928 1_455 S
C72 C73 1.400 1_554 S
C72 C74 1.364 . S
C73 C72 1.400 1_556 S
C73 C77 1.377 . S
C74 C72 1.364 . S
C74 C75 1.374 1_455 S
C75 H66 0.930 . S
C75 C74 1.374 1_655 S
C75 C76 1.382 1_655 S
C76 O70 1.402 1_455 S
C76 C75 1.382 1_455 S
C76 C77 1.394 1_554 S
C77 H67 0.928 1_455 S
C77 C73 1.377 . S
C77 C76 1.394 1_556 S
H78 C85 0.928 1_565 S
H79 C88 0.930 . S
H80 C90 0.928 1_565 S
H81 C82 0.969 . S
C82 H81 0.969 . S
C82 O83 1.550 1_545 S
C82 H84 0.973 1_545 S
O83 C82 1.550 1_565 S
O83 C89 1.402 1_565 S
H84 C82 0.973 1_565 S
C85 H78 0.928 1_545 S
C85 C86 1.400 1_554 S
C85 C87 1.364 . S
C86 C85 1.400 1_556 S
C86 C90 1.377 . S
C87 C85 1.364 . S
C87 C88 1.374 1_545 S
C88 H79 0.930 . S
C88 C87 1.374 1_565 S
C88 C89 1.382 1_565 S
C89 O83 1.402 1_545 S
C89 C88 1.382 1_545 S
C89 C90 1.394 1_554 S
C90 H80 0.928 1_545 S
C90 C86 1.377 . S
C90 C89 1.394 1_556 S
H91 C98 0.929 . S
H92 C101 0.930 . S
H93 C103 0.929 . S
H94 C95 0.969 . S
C95 H94 0.969 . S
C95 O96 1.550 . S
C95 H97 0.973 . S
O96 C95 1.550 . S
O96 C102 1.412 . S
H97 C95 0.973 . S
C98 H91 0.929 . S
C98 C99 1.400 1_554 S
C98 C100 1.364 . S
C99 C98 1.400 1_556 S
C99 C103 1.377 . S
C100 C98 1.364 . S
C100 C101 1.374 . S
C101 H92 0.930 . S
C101 C100 1.374 . S
C101 C102 1.383 . S
C102 O96 1.412 . S
C102 C101 1.383 . S
C102 C103 1.394 1_554 S
C103 H93 0.929 . S
C103 C99 1.377 . S
C103 C102 1.394 1_556 S
C104 Eu105 2.835 . S
C104 C106 1.500 . S
C104 O124 1.257 . S
C104 O125 1.260 . S
Eu105 C104 2.835 . S
Eu105 O124 2.473 . S
Eu105 O125 2.480 . S
Eu105 O126 2.430 . S
Eu105 O127 2.670 1_545 S
Eu105 O128 2.394 . S
Eu105 O133 2.355 1_655 S
Eu105 O135 2.374 1_545 S
C106 C104 1.500 . S
C106 C107 1.377 . S
C106 C111 1.377 . S
C107 C106 1.377 . S
C107 C108 1.395 . S
C107 H136 0.931 . S
C108 C107 1.395 . S
C108 C109 1.383 . S
C108 H137 0.931 . S
C109 C108 1.383 . S
C109 C110 1.394 . S
C110 C109 1.394 . S
C110 C111 1.378 . S
C110 H138 0.931 1_655 S
C111 C106 1.377 . S
C111 C110 1.378 . S
C111 H139 0.931 1_655 S
C112 O126 1.259 . S
C112 O127 1.270 1_545 S
C113 O128 1.251 1_455 S
C113 O129 1.251 . S
C114 Eu115 2.835 . S
C114 C116 1.500 . S
C114 O130 1.257 . S
C114 O131 1.260 . S
Eu115 C114 2.835 . S
Eu115 O127 2.355 1_455 S
Eu115 O129 2.374 1_565 S
Eu115 O130 2.473 . S
Eu115 O131 2.480 . S
Eu115 O132 2.430 . S
Eu115 O133 2.670 1_565 S
Eu115 O134 2.394 . S
C116 C114 1.500 . S
C116 C117 1.377 . S
C116 C121 1.377 1_556 S
C117 C116 1.377 . S
C117 C118 1.392 1_556 S
C117 H140 0.933 . S
C118 C117 1.392 1_554 S
C118 C119 1.383 . S
C118 H141 0.931 . S
C119 C118 1.383 . S
C119 C120 1.394 . S
C120 C119 1.394 . S
C120 C121 1.378 . S
C120 H142 0.931 1_455 S
C121 C116 1.377 1_554 S
C121 C120 1.378 . S
C121 H143 0.931 1_455 S
C122 O132 1.259 . S
C122 O133 1.270 1_565 S
C123 O134 1.251 1_655 S
C123 O135 1.251 . S
O124 C104 1.257 . S
O124 Eu105 2.473 . S
O125 C104 1.260 . S
O125 Eu105 2.480 . S
O126 Eu105 2.430 . S
O126 C112 1.259 . S
O127 Eu105 2.670 1_565 S
O127 C112 1.270 1_565 S
O127 Eu115 2.355 1_655 S
O128 Eu105 2.394 . S
O128 C113 1.251 1_655 S
O129 C113 1.251 . S
O129 Eu115 2.374 1_545 S
O130 C114 1.257 . S
O130 Eu115 2.473 . S
O131 C114 1.260 . S
O131 Eu115 2.480 . S
O132 Eu115 2.430 . S
O132 C122 1.259 . S
O133 Eu105 2.355 1_455 S
O133 Eu115 2.670 1_545 S
O133 C122 1.270 1_545 S
O134 Eu115 2.394 . S
O134 C123 1.251 1_455 S
O135 Eu105 2.374 1_565 S
O135 C123 1.251 . S
H136 C107 0.931 . S
H137 C108 0.931 . S
H138 C110 0.931 1_455 S
H139 C111 0.931 1_455 S
H140 C117 0.933 . S
H141 C118 0.931 . S
H142 C120 0.931 1_655 S
H143 C121 0.931 1_655 S
C144 Eu145 2.835 . S
C144 C146 1.500 . S
C144 O164 1.257 . S
C144 O165 1.260 . S
Eu145 C144 2.835 . S
Eu145 O164 2.473 . S
Eu145 O165 2.480 . S
Eu145 O166 2.430 . S
Eu145 O167 2.670 . S
Eu145 O168 2.394 . S
Eu145 O173 2.355 1_565 S
Eu145 O175 2.374 . S
C146 C144 1.500 . S
C146 C147 1.377 . S
C146 C151 1.377 . S
C147 C146 1.377 . S
C147 C148 1.395 . S
C147 H176 0.931 . S
C148 C147 1.395 . S
C148 C149 1.383 . S
C148 H177 0.931 . S
C149 C148 1.383 . S
C149 C150 1.394 . S
C150 C149 1.394 . S
C150 C151 1.378 . S
C150 H178 0.931 1_565 S
C151 C146 1.377 . S
C151 C150 1.378 . S
C151 H179 0.931 1_565 S
C152 O166 1.259 . S
C152 O167 1.270 . S
C153 O168 1.251 1_545 S
C153 O169 1.251 . S
C154 Eu155 2.835 . S
C154 C156 1.500 . S
C154 O170 1.257 . S
C154 O171 1.260 . S
Eu155 C154 2.835 . S
Eu155 O167 2.355 1_545 S
Eu155 O169 2.374 . S
Eu155 O170 2.473 . S
Eu155 O171 2.480 . S
Eu155 O172 2.430 . S
Eu155 O173 2.670 . S
Eu155 O174 2.394 . S
C156 C154 1.500 . S
C156 C157 1.377 1_556 S
C156 C161 1.377 1_556 S
C157 C156 1.377 1_554 S
C157 C158 1.394 . S
C157 H180 0.931 1_554 S
C158 C157 1.394 . S
C158 C159 1.383 . S
C158 H181 0.931 . S
C159 C158 1.383 . S
C159 C160 1.394 . S
C160 C159 1.394 . S
C160 C161 1.378 . S
C160 H182 0.931 1_545 S
C161 C156 1.377 1_554 S
C161 C160 1.378 . S
C161 H183 0.931 1_545 S
C162 O172 1.259 . S
C162 O173 1.270 . S
C163 O174 1.251 1_565 S
C163 O175 1.251 . S
O164 C144 1.257 . S
O164 Eu145 2.473 . S
O165 C144 1.260 . S
O165 Eu145 2.480 . S
O166 Eu145 2.430 . S
O166 C152 1.259 . S
O167 Eu145 2.670 . S
O167 C152 1.270 . S
O167 Eu155 2.355 1_565 S
O168 Eu145 2.394 . S
O168 C153 1.251 1_565 S
O169 C153 1.251 . S
O169 Eu155 2.374 . S
O170 C154 1.257 . S
O170 Eu155 2.473 . S
O171 C154 1.260 . S
O171 Eu155 2.480 . S
O172 Eu155 2.430 . S
O172 C162 1.259 . S
O173 Eu145 2.355 1_545 S
O173 Eu155 2.670 . S
O173 C162 1.270 . S
O174 Eu155 2.394 . S
O174 C163 1.251 1_545 S
O175 Eu145 2.374 . S
O175 C163 1.251 . S
H176 C147 0.931 . S
H177 C148 0.931 . S
H178 C150 0.931 1_545 S
H179 C151 0.931 1_545 S
H180 C157 0.931 1_556 S
H181 C158 0.931 . S
H182 C160 0.931 1_565 S
H183 C161 0.931 1_565 S
C184 Eu185 2.835 . S
C184 C186 1.500 . S
C184 O204 1.257 . S
C184 O205 1.260 . S
Eu185 C184 2.835 . S
Eu185 O204 2.473 . S
Eu185 O205 2.480 . S
Eu185 O206 2.430 . S
Eu185 O207 2.670 . S
Eu185 O208 2.394 . S
Eu185 O213 2.355 . S
Eu185 O215 2.374 . S
C186 C184 1.500 . S
C186 C187 1.377 . S
C186 C191 1.377 . S
C187 C186 1.377 . S
C187 C188 1.395 . S
C187 H216 0.931 . S
C188 C187 1.395 . S
C188 C189 1.383 . S
C188 H217 0.931 . S
C189 C188 1.383 . S
C189 C190 1.394 . S
C190 C189 1.394 . S
C190 C191 1.378 . S
C190 H218 0.931 . S
C191 C186 1.377 . S
C191 C190 1.378 . S
C191 H219 0.931 . S
C192 O206 1.259 . S
C192 O207 1.270 . S
C193 O208 1.251 . S
C193 O209 1.251 . S
C194 Eu195 2.835 . S
C194 C196 1.500 . S
C194 O210 1.257 . S
C194 O211 1.260 . S
Eu195 C194 2.835 . S
Eu195 O207 2.355 . S
Eu195 O209 2.374 . S
Eu195 O210 2.473 . S
Eu195 O211 2.480 . S
Eu195 O212 2.430 . S
Eu195 O213 2.670 . S
Eu195 O214 2.394 . S
C196 C194 1.500 . S
C196 C197 1.377 1_556 S
C196 C201 1.377 1_556 S
C197 C196 1.377 1_554 S
C197 C198 1.395 . S
C197 H220 0.931 1_554 S
C198 C197 1.395 . S
C198 C199 1.383 . S
C198 H221 0.931 . S
C199 C198 1.383 . S
C199 C200 1.394 . S
C200 C199 1.394 . S
C200 C201 1.378 . S
C200 H222 0.931 . S
C201 C196 1.377 1_554 S
C201 C200 1.378 . S
C201 H223 0.931 . S
C202 O212 1.259 . S
C202 O213 1.270 . S
C203 O214 1.251 . S
C203 O215 1.251 . S
O204 C184 1.257 . S
O204 Eu185 2.473 . S
O205 C184 1.260 . S
O205 Eu185 2.480 . S
O206 Eu185 2.430 . S
O206 C192 1.259 . S
O207 Eu185 2.670 . S
O207 C192 1.270 . S
O207 Eu195 2.355 . S
O208 Eu185 2.394 . S
O208 C193 1.251 . S
O209 C193 1.251 . S
O209 Eu195 2.374 . S
O210 C194 1.257 . S
O210 Eu195 2.473 . S
O211 C194 1.260 . S
O211 Eu195 2.480 . S
O212 Eu195 2.430 . S
O212 C202 1.259 . S
O213 Eu185 2.355 . S
O213 Eu195 2.670 . S
O213 C202 1.270 . S
O214 Eu195 2.394 . S
O214 C203 1.251 . S
O215 Eu185 2.374 . S
O215 C203 1.251 . S
H216 C187 0.931 . S
H217 C188 0.931 . S
H218 C190 0.931 . S
H219 C191 0.931 . S
H220 C197 0.931 1_556 S
H221 C198 0.931 . S
H222 C200 0.931 . S
H223 C201 0.931 . S
C224 Eu225 2.835 . S
C224 C226 1.500 . S
C224 O244 1.257 . S
C224 O245 1.260 . S
Eu225 C224 2.835 . S
Eu225 O244 2.473 . S
Eu225 O245 2.480 . S
Eu225 O246 2.430 . S
Eu225 O247 2.670 1_455 S
Eu225 O248 2.394 . S
Eu225 O253 2.355 . S
Eu225 O255 2.374 1_455 S
C226 C224 1.500 . S
C226 C227 1.377 . S
C226 C231 1.377 . S
C227 C226 1.377 . S
C227 C228 1.395 . S
C227 H256 0.931 . S
C228 C227 1.395 . S
C228 C229 1.383 . S
C228 H257 0.931 . S
C229 C228 1.383 . S
C229 C230 1.394 . S
C230 C229 1.394 . S
C230 C231 1.378 . S
C230 H258 0.931 . S
C231 C226 1.377 . S
C231 C230 1.378 . S
C231 H259 0.931 . S
C232 O246 1.269 . S
C232 O247 1.262 1_455 S
C233 O248 1.251 . S
C233 O249 1.251 . S
C234 Eu235 2.835 . S
C234 C236 1.500 . S
C234 O250 1.257 . S
C234 O251 1.260 . S
Eu235 C234 2.835 . S
Eu235 O247 2.355 . S
Eu235 O249 2.374 1_655 S
Eu235 O250 2.473 . S
Eu235 O251 2.480 . S
Eu235 O252 2.430 . S
Eu235 O253 2.670 1_655 S
Eu235 O254 2.394 . S
C236 C234 1.500 . S
C236 C237 1.377 1_556 S
C236 C241 1.377 1_556 S
C237 C236 1.377 1_554 S
C237 C238 1.395 . S
C237 H260 0.931 1_554 S
C238 C237 1.395 . S
C238 C239 1.383 . S
C238 H261 0.931 . S
C239 C238 1.383 . S
C239 C240 1.394 . S
C240 C239 1.394 . S
C240 C241 1.378 . S
C240 H262 0.931 . S
C241 C236 1.377 1_554 S
C241 C240 1.378 . S
C241 H263 0.931 . S
C242 O252 1.264 . S
C242 O253 1.266 1_655 S
C243 O254 1.251 . S
C243 O255 1.251 . S
O244 C224 1.257 . S
O244 Eu225 2.473 . S
O245 C224 1.260 . S
O245 Eu225 2.480 . S
O246 Eu225 2.430 . S
O246 C232 1.269 . S
O247 Eu225 2.670 1_655 S
O247 C232 1.262 1_655 S
O247 Eu235 2.355 . S
O248 Eu225 2.394 . S
O248 C233 1.251 . S
O249 C233 1.251 . S
O249 Eu235 2.374 1_455 S
O250 C234 1.257 . S
O250 Eu235 2.473 . S
O251 C234 1.260 . S
O251 Eu235 2.480 . S
O252 Eu235 2.430 . S
O252 C242 1.264 . S
O253 Eu225 2.355 . S
O253 Eu235 2.670 1_455 S
O253 C242 1.266 1_455 S
O254 Eu235 2.394 . S
O254 C243 1.251 . S
O255 Eu225 2.374 1_655 S
O255 C243 1.251 . S
H256 C227 0.931 . S
H257 C228 0.931 . S
H258 C230 0.931 . S
H259 C231 0.931 . S
H260 C237 0.931 1_556 S
H261 C238 0.931 . S
H262 C240 0.931 . S
H263 C241 0.931 . S
H264 C270 0.930 . S
H265 C274 0.930 . S
H266 C279 0.929 . S
H267 C277 0.929 . S
H268 C272 0.929 . S
H269 C278 0.929 . S
C270 H264 0.930 . S
C270 C271 1.378 . S
C270 C278 1.378 . S
C271 C270 1.378 . S
C271 C279 1.422 1_545 S
C272 H268 0.929 . S
C272 C274 1.378 . S
C272 C276 1.355 . S
C273 C276 1.462 1_545 S
C273 C278 1.368 . S
C273 N281 1.409 1_545 S
C274 H265 0.930 . S
C274 C272 1.378 . S
C274 C275 1.365 . S
C275 C274 1.365 . S
C275 C277 1.435 1_565 S
C276 C272 1.355 . S
C276 C273 1.462 1_565 S
C276 N280 1.422 1_565 S
C277 H267 0.929 . S
C277 C275 1.435 1_545 S
C277 N280 1.384 . S
C278 H269 0.929 . S
C278 C270 1.378 . S
C278 C273 1.368 . S
C279 H266 0.929 . S
C279 C271 1.422 1_565 S
C279 N281 1.384 . S
N280 C276 1.422 1_545 S
N280 C277 1.384 . S
N281 C273 1.409 1_565 S
N281 C279 1.384 . S
H282 C288 0.930 . S
H283 C292 0.930 . S
H284 C297 0.929 . S
H285 C295 0.929 . S
H286 C290 0.929 . S
H287 C296 0.929 . S
C288 H282 0.930 . S
C288 C289 1.367 . S
C288 C296 1.378 . S
C289 C288 1.367 . S
C289 C297 1.433 . S
C290 H286 0.929 . S
C290 C292 1.378 . S
C290 C294 1.350 . S
C291 C294 1.463 . S
C291 C296 1.350 . S
C291 N299 1.427 . S
C292 H283 0.930 . S
C292 C290 1.378 . S
C292 C293 1.367 . S
C293 C292 1.367 . S
C293 C295 1.433 . S
C294 C290 1.350 . S
C294 C291 1.463 . S
C294 N298 1.427 . S
C295 H285 0.929 . S
C295 C293 1.433 . S
C295 N298 1.384 . S
C296 H287 0.929 . S
C296 C288 1.378 . S
C296 C291 1.350 . S
C297 H284 0.929 . S
C297 C289 1.433 . S
C297 N299 1.384 . S
N298 C294 1.427 . S
N298 C295 1.384 . S
N299 C291 1.427 . S
N299 C297 1.384 . S
H300 C306 0.930 . S
H301 C310 0.930 . S
H302 C315 0.929 . S
H303 C313 0.929 . S
H304 C308 0.929 . S
H305 C314 0.929 . S
C306 H300 0.930 . S
C306 C307 1.367 . S
C306 C314 1.378 . S
C307 C306 1.367 . S
C307 C315 1.433 . S
C308 H304 0.929 . S
C308 C310 1.378 . S
C308 C312 1.350 . S
C309 C312 1.463 . S
C309 C314 1.350 . S
C309 N317 1.427 . S
C310 H301 0.930 . S
C310 C308 1.378 . S
C310 C311 1.367 . S
C311 C310 1.367 . S
C311 C313 1.433 . S
C312 C308 1.350 . S
C312 C309 1.463 . S
C312 N316 1.427 . S
C313 H303 0.929 . S
C313 C311 1.433 . S
C313 N316 1.384 . S
C314 H305 0.929 . S
C314 C306 1.378 . S
C314 C309 1.350 . S
C315 H302 0.929 . S
C315 C307 1.433 . S
C315 N317 1.384 . S
N316 C312 1.427 . S
N316 C313 1.384 . S
N317 C309 1.427 . S
N317 C315 1.384 . S
H318 C324 0.930 . S
H319 C328 0.930 . S
H320 C333 0.929 . S
H321 C331 0.929 . S
H322 C326 0.929 . S
H323 C332 0.929 . S
C324 H318 0.930 . S
C324 C325 1.376 . S
C324 C332 1.378 . S
C325 C324 1.376 . S
C325 C333 1.424 1_455 S
C326 H322 0.929 . S
C326 C328 1.378 . S
C326 C330 1.346 1_655 S
C327 C330 1.462 . S
C327 C332 1.369 . S
C327 N335 1.408 1_455 S
C328 H319 0.930 . S
C328 C326 1.378 . S
C328 C329 1.353 1_655 S
C329 C328 1.353 1_455 S
C329 C331 1.447 . S
C330 C326 1.346 1_455 S
C330 C327 1.462 . S
C330 N334 1.431 . S
C331 H321 0.929 . S
C331 C329 1.447 . S
C331 N334 1.384 . S
C332 H323 0.929 . S
C332 C324 1.378 . S
C332 C327 1.369 . S
C333 H320 0.929 . S
C333 C325 1.424 1_655 S
C333 N335 1.384 . S
N334 C330 1.431 . S
N334 C331 1.384 . S
N335 C327 1.408 1_655 S
N335 C333 1.384 . S
H336 C342 0.930 . S
H337 C346 0.930 . S
H338 C351 0.929 . S
H339 C349 0.929 . S
H340 C344 0.929 . S
H341 C350 0.929 . S
C342 H336 0.930 . S
C342 C343 1.388 . S
C342 C350 1.378 . S
C343 C342 1.388 . S
C343 C351 1.412 1_545 S
C344 H340 0.929 . S
C344 C346 1.378 1_554 S
C344 C348 1.379 . S
C345 C348 1.460 1_545 S
C345 C350 1.379 . S
C345 N353 1.399 1_545 S
C346 H337 0.930 . S
C346 C344 1.378 1_556 S
C346 C347 1.388 . S
C347 C346 1.388 . S
C347 C349 1.411 1_565 S
C348 C344 1.379 . S
C348 C345 1.460 1_565 S
C348 N352 1.398 1_565 S
C349 H339 0.929 . S
C349 C347 1.411 1_545 S
C349 N352 1.384 1_556 S
C350 H341 0.929 . S
C350 C342 1.378 . S
C350 C345 1.379 . S
C351 H338 0.929 . S
C351 C343 1.412 1_565 S
C351 N353 1.384 . S
N352 C348 1.398 1_545 S
N352 C349 1.384 1_554 S
N353 C345 1.399 1_565 S
N353 C351 1.384 . S
H354 C360 0.930 . S
H355 C364 0.930 . S
H356 C369 0.929 . S
H357 C367 0.929 . S
H358 C362 0.929 . S
H359 C368 0.929 . S
C360 H354 0.930 . S
C360 C361 1.367 . S
C360 C368 1.378 . S
C361 C360 1.367 . S
C361 C369 1.433 . S
C362 H358 0.929 . S
C362 C364 1.378 . S
C362 C366 1.350 . S
C363 C366 1.463 . S
C363 C368 1.350 . S
C363 N371 1.427 . S
C364 H355 0.930 . S
C364 C362 1.378 . S
C364 C365 1.367 1_554 S
C365 C364 1.367 1_556 S
C365 C367 1.433 . S
C366 C362 1.350 . S
C366 C363 1.463 . S
C366 N370 1.419 1_554 S
C367 H357 0.929 . S
C367 C365 1.433 . S
C367 N370 1.391 . S
C368 H359 0.929 . S
C368 C360 1.378 . S
C368 C363 1.350 . S
C369 H356 0.929 . S
C369 C361 1.433 . S
C369 N371 1.384 . S
N370 C366 1.419 1_556 S
N370 C367 1.391 . S
N371 C363 1.427 . S
N371 C369 1.384 . S
H372 C378 0.930 . S
H373 C382 0.930 . S
H374 C387 0.929 . S
H375 C385 0.929 . S
H376 C380 0.929 . S
H377 C386 0.929 . S
C378 H372 0.930 . S
C378 C379 1.367 . S
C378 C386 1.378 . S
C379 C378 1.367 . S
C379 C387 1.433 . S
C380 H376 0.929 . S
C380 C382 1.378 . S
C380 C384 1.350 . S
C381 C384 1.463 . S
C381 C386 1.350 . S
C381 N389 1.427 . S
C382 H373 0.930 . S
C382 C380 1.378 . S
C382 C383 1.367 1_554 S
C383 C382 1.367 1_556 S
C383 C385 1.433 . S
C384 C380 1.350 . S
C384 C381 1.463 . S
C384 N388 1.418 1_554 S
C385 H375 0.929 . S
C385 C383 1.433 . S
C385 N388 1.393 . S
C386 H377 0.929 . S
C386 C378 1.378 . S
C386 C381 1.350 . S
C387 H374 0.929 . S
C387 C379 1.433 . S
C387 N389 1.384 . S
N388 C384 1.418 1_556 S
N388 C385 1.393 . S
N389 C381 1.427 . S
N389 C387 1.384 . S
H390 C396 0.930 . S
H391 C400 0.930 . S
H392 C405 0.929 . S
H393 C403 0.929 . S
H394 C398 0.929 . S
H395 C404 0.929 . S
C396 H390 0.930 . S
C396 C397 1.371 . S
C396 C404 1.378 . S
C397 C396 1.371 . S
C397 C405 1.428 1_455 S
C398 H394 0.929 . S
C398 C400 1.378 1_554 S
C398 C402 1.350 . S
C399 C402 1.462 1_455 S
C399 C404 1.352 . S
C399 N407 1.425 1_455 S
C400 H391 0.930 . S
C400 C398 1.378 1_556 S
C400 C401 1.367 . S
C401 C400 1.367 . S
C401 C403 1.433 1_655 S
C402 C398 1.350 . S
C402 C399 1.462 1_655 S
C402 N406 1.427 1_655 S
C403 H393 0.929 . S
C403 C401 1.433 1_455 S
C403 N406 1.384 1_556 S
C404 H395 0.929 . S
C404 C396 1.378 . S
C404 C399 1.352 . S
C405 H392 0.929 . S
C405 C397 1.428 1_655 S
C405 N407 1.384 . S
N406 C402 1.427 1_455 S
N406 C403 1.384 1_554 S
N407 C399 1.425 1_655 S
N407 C405 1.384 . S
H408 C414 0.930 . S
H409 C418 0.930 . S
H410 C423 0.929 . S
H411 C421 0.929 . S
H412 C416 0.929 1_455 S
H413 C422 0.929 . S
C414 H408 0.930 . S
C414 C415 1.367 1_655 S
C414 C422 1.378 . S
C415 C414 1.367 1_455 S
C415 C423 1.433 . S
C416 H412 0.929 1_655 S
C416 C418 1.378 . S
C416 C420 1.350 . S
C417 C420 1.463 . S
C417 C422 1.350 . S
C417 N425 1.427 1_655 S
C418 H409 0.930 . S
C418 C416 1.378 . S
C418 C419 1.367 . S
C419 C418 1.367 . S
C419 C421 1.433 . S
C420 C416 1.350 . S
C420 C417 1.463 . S
C420 N424 1.427 . S
C421 H411 0.929 . S
C421 C419 1.433 . S
C421 N424 1.384 . S
C422 H413 0.929 . S
C422 C414 1.378 . S
C422 C417 1.350 . S
C423 H410 0.929 . S
C423 C415 1.433 . S
C423 N425 1.384 . S
N424 C420 1.427 . S
N424 C421 1.384 . S
N425 C417 1.427 1_455 S
N425 C423 1.384 . S
H426 C432 0.930 . S
H427 C436 0.930 . S
H428 C441 0.929 . S
H429 C439 0.929 . S
H430 C434 0.929 . S
H431 C440 0.929 . S
C432 H426 0.930 . S
C432 C433 1.367 . S
C432 C440 1.378 . S
C433 C432 1.367 . S
C433 C441 1.433 1_545 S
C434 H430 0.929 . S
C434 C436 1.378 . S
C434 C438 1.350 . S
C435 C438 1.463 . S
C435 C440 1.350 1_565 S
C435 N443 1.427 . S
C436 H427 0.930 . S
C436 C434 1.378 . S
C436 C437 1.367 . S
C437 C436 1.367 . S
C437 C439 1.433 . S
C438 C434 1.350 . S
C438 C435 1.463 . S
C438 N442 1.427 . S
C439 H429 0.929 . S
C439 C437 1.433 . S
C439 N442 1.384 . S
C440 H431 0.929 . S
C440 C432 1.378 . S
C440 C435 1.350 1_545 S
C441 H428 0.929 . S
C441 C433 1.433 1_565 S
C441 N443 1.384 . S
N442 C438 1.427 . S
N442 C439 1.384 . S
N443 C435 1.427 . S
N443 C441 1.384 . S
H444 C450 0.930 . S
H445 C454 0.930 . S
H446 C459 0.929 . S
H447 C457 0.929 . S
H448 C452 0.929 . S
H449 C458 0.929 . S
C450 H444 0.930 . S
C450 C451 1.367 . S
C450 C458 1.378 . S
C451 C450 1.367 . S
C451 C459 1.433 . S
C452 H448 0.929 . S
C452 C454 1.378 . S
C452 C456 1.350 . S
C453 C456 1.463 . S
C453 C458 1.350 . S
C453 N461 1.427 . S
C454 H445 0.930 . S
C454 C452 1.378 . S
C454 C455 1.367 . S
C455 C454 1.367 . S
C455 C457 1.433 . S
C456 C452 1.350 . S
C456 C453 1.463 . S
C456 N460 1.427 . S
C457 H447 0.929 . S
C457 C455 1.433 . S
C457 N460 1.384 . S
C458 H449 0.929 . S
C458 C450 1.378 . S
C458 C453 1.350 . S
C459 H446 0.929 . S
C459 C451 1.433 . S
C459 N461 1.384 . S
N460 C456 1.427 . S
N460 C457 1.384 . S
N461 C453 1.427 . S
N461 C459 1.384 . S
H462 C468 0.930 . S
H463 C472 0.930 . S
H464 C477 0.929 . S
H465 C475 0.929 . S
H466 C470 0.929 . S
H467 C476 0.929 . S
C468 H462 0.930 . S
C468 C469 1.367 . S
C468 C476 1.378 . S
C469 C468 1.367 . S
C469 C477 1.433 . S
C470 H466 0.929 . S
C470 C472 1.378 . S
C470 C474 1.350 . S
C471 C474 1.463 . S
C471 C476 1.350 . S
C471 N479 1.427 . S
C472 H463 0.930 . S
C472 C470 1.378 . S
C472 C473 1.367 . S
C473 C472 1.367 . S
C473 C475 1.433 . S
C474 C470 1.350 . S
C474 C471 1.463 . S
C474 N478 1.427 . S
C475 H465 0.929 . S
C475 C473 1.433 . S
C475 N478 1.384 . S
C476 H467 0.929 . S
C476 C468 1.378 . S
C476 C471 1.350 . S
C477 H464 0.929 . S
C477 C469 1.433 . S
C477 N479 1.384 . S
N478 C474 1.427 . S
N478 C475 1.384 . S
N479 C471 1.427 . S
N479 C477 1.384 . S
H480 C486 0.930 . S
H481 C490 0.930 1_556 S
H482 C495 0.929 . S
H483 C493 0.929 . S
H484 C488 0.929 . S
H485 C494 0.929 . S
C486 H480 0.930 . S
C486 C487 1.367 1_455 S
C486 C494 1.378 . S
C487 C486 1.367 1_655 S
C487 C495 1.433 . S
C488 H484 0.929 . S
C488 C490 1.378 . S
C488 C492 1.350 . S
C489 C492 1.463 . S
C489 C494 1.350 . S
C489 N497 1.427 . S
C490 H481 0.930 1_554 S
C490 C488 1.378 . S
C490 C491 1.367 . S
C491 C490 1.367 . S
C491 C493 1.433 . S
C492 C488 1.350 . S
C492 C489 1.463 . S
C492 N496 1.427 . S
C493 H483 0.929 . S
C493 C491 1.433 . S
C493 N496 1.384 . S
C494 H485 0.929 . S
C494 C486 1.378 . S
C494 C489 1.350 . S
C495 H482 0.929 . S
C495 C487 1.433 . S
C495 N497 1.384 1_655 S
N496 C492 1.427 . S
N496 C493 1.384 . S
N497 C489 1.427 . S
N497 C495 1.384 1_455 S
H498 C504 0.930 . S
H499 C508 0.930 . S
H500 C513 0.929 . S
H501 C511 0.929 . S
H502 C506 0.929 1_565 S
H503 C512 0.929 . S
C504 H498 0.930 . S
C504 C505 1.333 1_545 S
C504 C512 1.378 . S
C505 C504 1.333 1_565 S
C505 C513 1.457 . S
C506 H502 0.929 1_545 S
C506 C508 1.378 . S
C506 C510 1.350 . S
C507 C510 1.463 . S
C507 C512 1.350 . S
C507 N515 1.427 1_545 S
C508 H499 0.930 . S
C508 C506 1.378 . S
C508 C509 1.367 . S
C509 C508 1.367 . S
C509 C511 1.433 . S
C510 C506 1.350 . S
C510 C507 1.463 . S
C510 N514 1.427 . S
C511 H501 0.929 . S
C511 C509 1.433 . S
C511 N514 1.384 . S
C512 H503 0.929 . S
C512 C504 1.378 . S
C512 C507 1.350 . S
C513 H500 0.929 . S
C513 C505 1.457 . S
C513 N515 1.384 . S
N514 C510 1.427 . S
N514 C511 1.384 . S
N515 C507 1.427 1_565 S
N515 C513 1.384 . S
H516 C522 0.930 . S
H517 C526 0.930 . S
H518 C531 0.929 . S
H519 C529 0.929 . S
H520 C524 0.929 . S
H521 C530 0.929 . S
C522 H516 0.930 . S
C522 C523 1.367 . S
C522 C530 1.378 . S
C523 C522 1.367 . S
C523 C531 1.433 . S
C524 H520 0.929 . S
C524 C526 1.378 . S
C524 C528 1.350 . S
C525 C528 1.463 . S
C525 C530 1.350 . S
C525 N533 1.427 . S
C526 H517 0.930 . S
C526 C524 1.378 . S
C526 C527 1.367 . S
C527 C526 1.367 . S
C527 C529 1.433 . S
C528 C524 1.350 . S
C528 C525 1.463 . S
C528 N532 1.427 . S
C529 H519 0.929 . S
C529 C527 1.433 . S
C529 N532 1.384 . S
C530 H521 0.929 . S
C530 C522 1.378 . S
C530 C525 1.350 . S
C531 H518 0.929 . S
C531 C523 1.433 . S
C531 N533 1.384 . S
N532 C528 1.427 . S
N532 C529 1.384 . S
N533 C525 1.427 . S
N533 C531 1.384 . S
H534 C540 0.930 . S
H535 C544 0.930 . S
H536 C549 0.929 . S
H537 C547 0.929 . S
H538 C542 0.929 . S
H539 C548 0.929 . S
C540 H534 0.930 . S
C540 C541 1.367 . S
C540 C548 1.378 . S
C541 C540 1.367 . S
C541 C549 1.433 . S
C542 H538 0.929 . S
C542 C544 1.378 . S
C542 C546 1.350 . S
C543 C546 1.463 . S
C543 C548 1.350 . S
C543 N551 1.427 . S
C544 H535 0.930 . S
C544 C542 1.378 . S
C544 C545 1.367 . S
C545 C544 1.367 . S
C545 C547 1.433 . S
C546 C542 1.350 . S
C546 C543 1.463 . S
C546 N550 1.427 . S
C547 H537 0.929 . S
C547 C545 1.433 . S
C547 N550 1.384 . S
C548 H539 0.929 . S
C548 C540 1.378 . S
C548 C543 1.350 . S
C549 H536 0.929 . S
C549 C541 1.433 . S
C549 N551 1.384 . S
N550 C546 1.427 . S
N550 C547 1.384 . S
N551 C543 1.427 . S
N551 C549 1.384 . S
H552 C558 0.930 1_554 S
H553 C562 0.930 . S
H554 C567 0.929 . S
H555 C565 0.929 . S
H556 C560 0.929 . S
H557 C566 0.930 1_554 S
C558 H552 0.930 1_556 S
C558 C559 1.367 1_655 S
C558 C566 1.378 . S
C559 C558 1.367 1_455 S
C559 C567 1.433 . S
C560 H556 0.929 . S
C560 C562 1.378 . S
C560 C564 1.350 . S
C561 C564 1.463 . S
C561 C566 1.348 1_455 S
C561 N569 1.427 . S
C562 H553 0.930 . S
C562 C560 1.378 . S
C562 C563 1.367 . S
C563 C562 1.367 . S
C563 C565 1.433 . S
C564 C560 1.350 . S
C564 C561 1.463 . S
C564 N568 1.427 . S
C565 H555 0.929 . S
C565 C563 1.433 . S
C565 N568 1.384 . S
C566 H557 0.930 1_556 S
C566 C558 1.378 . S
C566 C561 1.348 1_655 S
C567 H554 0.929 . S
C567 C559 1.433 . S
C567 N569 1.384 . S
N568 C564 1.427 . S
N568 C565 1.384 . S
N569 C561 1.427 . S
N569 C567 1.384 . S
H570 C576 0.930 . S
H571 C580 0.930 . S
H572 C585 0.929 . S
H573 C583 0.929 . S
H574 C578 0.929 . S
H575 C584 0.929 . S
C576 H570 0.930 . S
C576 C577 1.367 1_565 S
C576 C584 1.378 . S
C577 C576 1.367 1_545 S
C577 C585 1.433 . S
C578 H574 0.929 . S
C578 C580 1.378 . S
C578 C582 1.350 . S
C579 C582 1.463 . S
C579 C584 1.350 1_545 S
C579 N587 1.427 . S
C580 H571 0.930 . S
C580 C578 1.378 . S
C580 C581 1.367 . S
C581 C580 1.367 . S
C581 C583 1.433 1_545 S
C582 C578 1.350 . S
C582 C579 1.463 . S
C582 N586 1.427 1_545 S
C583 H573 0.929 . S
C583 C581 1.433 1_565 S
C583 N586 1.384 . S
C584 H575 0.929 . S
C584 C576 1.378 . S
C584 C579 1.350 1_565 S
C585 H572 0.929 . S
C585 C577 1.433 . S
C585 N587 1.384 . S
N586 C582 1.427 1_565 S
N586 C583 1.384 . S
N587 C579 1.427 . S
N587 C585 1.384 . S
H588 C594 0.930 1_554 S
H589 C598 0.930 . S
H590 C603 0.929 . S
H591 C601 0.929 . S
H592 C596 0.929 . S
H593 C602 0.929 . S
C594 H588 0.930 1_556 S
C594 C595 1.367 . S
C594 C602 1.378 . S
C595 C594 1.367 . S
C595 C603 1.433 . S
C596 H592 0.929 . S
C596 C598 1.378 . S
C596 C600 1.350 . S
C597 C600 1.463 . S
C597 C602 1.350 . S
C597 N605 1.427 . S
C598 H589 0.930 . S
C598 C596 1.378 . S
C598 C599 1.367 . S
C599 C598 1.367 . S
C599 C601 1.433 . S
C600 C596 1.350 . S
C600 C597 1.463 . S
C600 N604 1.427 . S
C601 H591 0.929 . S
C601 C599 1.433 . S
C601 N604 1.384 . S
C602 H593 0.929 . S
C602 C594 1.378 . S
C602 C597 1.350 . S
C603 H590 0.929 . S
C603 C595 1.433 . S
C603 N605 1.384 . S
N604 C600 1.427 . S
N604 C601 1.384 . S
N605 C597 1.427 . S
N605 C603 1.384 . S
H606 C612 0.930 . S
H607 C616 0.930 . S
H608 C621 0.929 1_554 S
H609 C619 0.929 . S
H610 C614 0.929 . S
H611 C620 0.929 . S
C612 H606 0.930 . S
C612 C613 1.367 . S
C612 C620 1.378 . S
C613 C612 1.367 . S
C613 C621 1.433 . S
C614 H610 0.929 . S
C614 C616 1.378 . S
C614 C618 1.350 . S
C615 C618 1.463 . S
C615 C620 1.350 . S
C615 N623 1.427 . S
C616 H607 0.930 . S
C616 C614 1.378 . S
C616 C617 1.367 . S
C617 C616 1.367 . S
C617 C619 1.433 . S
C618 C614 1.350 . S
C618 C615 1.463 . S
C618 N622 1.427 . S
C619 H609 0.929 . S
C619 C617 1.433 . S
C619 N622 1.384 . S
C620 H611 0.929 . S
C620 C612 1.378 . S
C620 C615 1.350 . S
C621 H608 0.929 1_556 S
C621 C613 1.433 . S
C621 N623 1.384 . S
N622 C618 1.427 . S
N622 C619 1.384 . S
N623 C615 1.427 . S
N623 C621 1.384 . S
H624 C630 0.930 . S
H625 C634 0.930 . S
H626 C639 0.929 . S
H627 C637 0.929 . S
H628 C632 0.929 . S
H629 C638 0.929 . S
C630 H624 0.930 . S
C630 C631 1.367 1_455 S
C630 C638 1.378 . S
C631 C630 1.367 1_655 S
C631 C639 1.433 . S
C632 H628 0.929 . S
C632 C634 1.378 . S
C632 C636 1.350 . S
C633 C636 1.463 . S
C633 C638 1.350 1_655 S
C633 N641 1.427 . S
C634 H625 0.930 . S
C634 C632 1.378 . S
C634 C635 1.367 . S
C635 C634 1.367 . S
C635 C637 1.433 1_655 S
C636 C632 1.350 . S
C636 C633 1.463 . S
C636 N640 1.427 1_655 S
C637 H627 0.929 . S
C637 C635 1.433 1_455 S
C637 N640 1.384 . S
C638 H629 0.929 . S
C638 C630 1.378 . S
C638 C633 1.350 1_455 S
C639 H626 0.929 . S
C639 C631 1.433 . S
C639 N641 1.384 . S
N640 C636 1.427 1_455 S
N640 C637 1.384 . S
N641 C633 1.427 . S
N641 C639 1.384 . S
H642 C648 0.930 . S
H643 C652 0.930 . S
H644 C657 0.929 . S
H645 C655 0.929 . S
H646 C650 0.929 . S
H647 C656 0.929 . S
C648 H642 0.930 . S
C648 C649 1.367 1_545 S
C648 C656 1.378 . S
C649 C648 1.367 1_565 S
C649 C657 1.433 . S
C650 H646 0.929 . S
C650 C652 1.378 . S
C650 C654 1.350 . S
C651 C654 1.463 . S
C651 C656 1.350 1_565 S
C651 N659 1.427 . S
C652 H643 0.930 . S
C652 C650 1.378 . S
C652 C653 1.367 . S
C653 C652 1.367 . S
C653 C655 1.433 1_565 S
C654 C650 1.350 . S
C654 C651 1.463 . S
C654 N658 1.427 1_565 S
C655 H645 0.929 . S
C655 C653 1.433 1_545 S
C655 N658 1.384 . S
C656 H647 0.929 . S
C656 C648 1.378 . S
C656 C651 1.350 1_545 S
C657 H644 0.929 . S
C657 C649 1.433 . S
C657 N659 1.384 . S
N658 C654 1.427 1_545 S
N658 C655 1.384 . S
N659 C651 1.427 . S
N659 C657 1.384 . S
H660 C666 0.930 . S
H661 C670 0.930 . S
H662 C675 0.929 . S
H663 C673 0.929 . S
H664 C668 0.929 . S
H665 C674 0.929 . S
C666 H660 0.930 . S
C666 C667 1.367 . S
C666 C674 1.378 . S
C667 C666 1.367 . S
C667 C675 1.433 . S
C668 H664 0.929 . S
C668 C670 1.378 . S
C668 C672 1.350 . S
C669 C672 1.463 . S
C669 C674 1.350 . S
C669 N677 1.427 . S
C670 H661 0.930 . S
C670 C668 1.378 . S
C670 C671 1.367 . S
C671 C670 1.367 . S
C671 C673 1.433 . S
C672 C668 1.350 . S
C672 C669 1.463 . S
C672 N676 1.427 . S
C673 H663 0.929 . S
C673 C671 1.433 . S
C673 N676 1.384 . S
C674 H665 0.929 . S
C674 C666 1.378 . S
C674 C669 1.350 . S
C675 H662 0.929 . S
C675 C667 1.433 . S
C675 N677 1.384 . S
N676 C672 1.427 . S
N676 C673 1.384 . S
N677 C669 1.427 . S
N677 C675 1.384 . S
H678 C684 0.930 . S
H679 C688 0.930 . S
H680 C693 0.929 . S
H681 C691 0.929 . S
H682 C686 0.929 . S
H683 C692 0.929 . S
C684 H678 0.930 . S
C684 C685 1.367 . S
C684 C692 1.378 . S
C685 C684 1.367 . S
C685 C693 1.433 . S
C686 H682 0.929 . S
C686 C688 1.378 . S
C686 C690 1.350 . S
C687 C690 1.463 . S
C687 C692 1.350 . S
C687 N695 1.427 . S
C688 H679 0.930 . S
C688 C686 1.378 . S
C688 C689 1.367 . S
C689 C688 1.367 . S
C689 C691 1.433 . S
C690 C686 1.350 . S
C690 C687 1.463 . S
C690 N694 1.427 . S
C691 H681 0.929 . S
C691 C689 1.433 . S
C691 N694 1.384 . S
C692 H683 0.929 . S
C692 C684 1.378 . S
C692 C687 1.350 . S
C693 H680 0.929 . S
C693 C685 1.433 . S
C693 N695 1.384 . S
N694 C690 1.427 . S
N694 C691 1.384 . S
N695 C687 1.427 . S
N695 C693 1.384 . S
C271 C82 1.701 . S
C275 C122 1.977 . S
C293 C162 1.993 . S
C289 C95 1.705 . S
C311 C202 2.002 . S
C307 C56 1.706 . S
C329 C242 1.989 1_455 S
C325 C69 1.691 . S
C347 C112 1.982 1_565 S
C343 C30 1.700 . S
C361 C43 1.699 . S
C365 C152 1.998 . S
C379 C4 1.710 . S
C383 C192 2.001 . S
C397 C17 1.695 . S
C401 C232 1.991 1_655 S
C419 C109 0.467 . S
C415 C74 0.496 . S
C437 C149 0.499 . S
C433 C87 0.524 . S
C455 C189 0.495 . S
C451 C100 0.523 . S
C469 C61 0.515 . S
C473 C229 0.494 . S
C487 C22 0.478 1_655 S
C491 C119 0.472 . S
C509 C159 0.479 . S
C505 C35 0.506 1_565 S
C527 C199 0.507 . S
C523 C48 0.515 . S
C541 C9 0.489 . S
C545 C239 0.470 . S
C559 C73 2.049 . S
C563 C113 2.275 . S
C577 C86 2.032 . S
C581 C153 2.253 . S
C599 C193 2.236 . S
C595 C99 2.005 . S
C617 C233 2.266 . S
C613 C60 2.045 . S
C631 C21 2.065 1_655 S
C635 C123 2.289 . S
C653 C163 2.253 . S
C649 C34 2.025 1_565 S
C671 C203 2.236 . S
C667 C47 2.007 . S
C685 C8 2.042 . S
C689 C243 2.274 . S
