# Generated by pormake.
# Topology pth, (4,4)-cn, num edge types: 1
# Building blocks:
#     Node 0, Type 0, BuildingBlock: AZAVOO_clean_sbu_0, # of connection points: 4
#     Node 1, Type 0, BuildingBlock: AZAVOO_clean_sbu_0, # of connection points: 4
#     Node 2, Type 0, BuildingBlock: AZAVOO_clean_sbu_0, # of connection points: 4
#     Node 3, Type 1, BuildingBlock: NAHDIM_clean_linker_0, # of connection points: 4
#     Node 4, Type 1, BuildingBlock: NAHDIM_clean_linker_0, # of connection points: 4
#     Node 5, Type 1, BuildingBlock: NAHDIM_clean_linker_0, # of connection points: 4
#     Edge 6, Type (0, 1), BuildingBlock: KIFKEQ_clean_linker_1, # of connection points: 2
#     Edge 7, Type (0, 1), BuildingBlock: KIFKEQ_clean_linker_1, # of connection points: 2
#     Edge 8, Type (0, 1), BuildingBlock: KIFKEQ_clean_linker_1, # of connection points: 2
#     Edge 9, Type (0, 1), BuildingBlock: KIFKEQ_clean_linker_1, # of connection points: 2
#     Edge 10, Type (0, 1), BuildingBlock: KIFKEQ_clean_linker_1, # of connection points: 2
#     Edge 11, Type (0, 1), BuildingBlock: KIFKEQ_clean_linker_1, # of connection points: 2
#     Edge 12, Type (0, 1), BuildingBlock: KIFKEQ_clean_linker_1, # of connection points: 2
#     Edge 13, Type (0, 1), BuildingBlock: KIFKEQ_clean_linker_1, # of connection points: 2
#     Edge 14, Type (0, 1), BuildingBlock: KIFKEQ_clean_linker_1, # of connection points: 2
#     Edge 15, Type (0, 1), BuildingBlock: KIFKEQ_clean_linker_1, # of connection points: 2
#     Edge 16, Type (0, 1), BuildingBlock: KIFKEQ_clean_linker_1, # of connection points: 2
#     Edge 17, Type (0, 1), BuildingBlock: KIFKEQ_clean_linker_1, # of connection points: 2
# Relax obj value: 0.086
# Max RMSD: 0.220
# Mean RMSD: 0.131
data_MOF--net-pth--node1-AZAVOO_clean_sbu_0--node2-NAHDIM_clean_linker_0--edge1-KIFKEQ_clean_linker_1
_symmetry_space_group_name_H-M    P1
_symmetry_Int_Tables_number       1
_symmetry_cell_setting            triclinic
loop_
_symmetry_equiv_pos_as_xyz
'x, y, z'
_cell_length_a     31.841817
_cell_length_b     32.428659
_cell_length_c     80.293806
_cell_angle_alpha  90.400667
_cell_angle_beta   93.212463
_cell_angle_gamma 121.93057
loop_
_atom_site_label
_atom_site_type_symbol
_atom_site_fract_x
_atom_site_fract_y
_atom_site_fract_z
_atom_type_partial_charge
Mg0 Mg 0.11972 0.08867 0.03918 0.0
O1 O 0.05038 0.03367 0.02269 0.0
O2 O 0.03328 0.07532 0.0044 0.0
Mg3 Mg 0.09283 0.15628 0.00839 0.0
C4 C 0.02361 0.03522 0.01055 0.0
C5 C 0.0914 0.98787 0.0549 0.0
O6 O 0.08829 0.97378 0.03926 0.0
O7 O 0.07563 0.11376 0.05298 0.0
O8 O 0.06628 0.15915 0.0341 0.0
O9 O 0.16909 0.0851 0.02081 0.0
O10 O 0.14319 0.13632 0.02002 0.0
C11 C 0.06125 0.1425 0.04872 0.0
C12 C 0.16677 0.11918 0.01336 0.0
O13 O 0.10348 0.03129 0.05834 0.0
Mg14 Mg 0.01709 0.07909 0.37059 0.0
O15 O 0.07524 0.08697 0.3908 0.0
O16 O 0.09622 0.15017 0.40807 0.0
Mg17 Mg 0.0504 0.1823 0.3991 0.0
C18 C 0.10027 0.1147 0.40355 0.0
C19 C 0.02958 0.99263 0.36277 0.0
O20 O 0.02179 0.98781 0.37873 0.0
O21 O 0.07543 0.14519 0.35742 0.0
O22 O 0.0913 0.20649 0.37494 0.0
O23 O 0.95647 0.03133 0.38677 0.0
O24 O 0.99299 0.11128 0.38705 0.0
C25 C 0.09764 0.19059 0.3613 0.0
C26 C 0.96137 0.07052 0.3932 0.0
O27 O 0.02966 0.02719 0.35535 0.0
Mg28 Mg 0.96827 0.00148 0.69937 0.0
O29 O 0.01679 0.06499 0.71812 0.0
O30 O 0.9692 0.07362 0.73541 0.0
Mg31 Mg 0.889 0.01285 0.72781 0.0
C32 C 0.0117 0.0869 0.73035 0.0
C33 C 0.0749 0.03575 0.69044 0.0
O34 O 0.07676 0.02684 0.70631 0.0
O35 O 0.94309 0.04637 0.6856 0.0
O36 O 0.89359 0.05131 0.70316 0.0
O37 O 0.97313 0.95084 0.71649 0.0
O38 O 0.91419 0.9676 0.7165 0.0
C39 C 0.91419 0.06064 0.68931 0.0
C40 C 0.93416 0.94514 0.723 0.0
O41 O 0.03453 0.02862 0.68354 0.0
C42 C 0.06137 0.70362 0.31752 0.0
C43 C 0.08119 0.74556 0.30556 0.0
C44 C 0.06333 0.70195 0.27881 0.0
C45 C 0.11087 0.71714 0.27395 0.0
C46 C 0.1179 0.68872 0.26251 0.0
C47 C 0.07655 0.64396 0.25599 0.0
C48 C 0.02848 0.62885 0.2608 0.0
C49 C 0.02246 0.65864 0.27192 0.0
C50 C 0.16951 0.70648 0.25743 0.0
C51 C 0.98352 0.58099 0.25439 0.0
C52 C 0.25412 0.45143 0.26273 0.0
C53 C 0.21917 0.44735 0.27595 0.0
C54 C 0.15878 0.46461 0.26257 0.0
C55 C 0.10811 0.44479 0.25887 0.0
C56 C 0.0902 0.47321 0.25246 0.0
C57 C 0.12416 0.52252 0.24919 0.0
C58 C 0.17554 0.54302 0.25301 0.0
C59 C 0.19233 0.51401 0.2598 0.0
C60 C 0.03503 0.4503 0.24897 0.0
C61 C 0.21281 0.59543 0.24966 0.0
C62 C 0.03689 0.41036 0.14431 0.0
C63 C 0.00036 0.40227 0.15516 0.0
C64 C 0.00257 0.44132 0.16371 0.0
C65 C 0.0427 0.48933 0.16168 0.0
C66 C 0.07874 0.49771 0.15041 0.0
C67 C 0.07497 0.45803 0.14173 0.0
C68 C 0.96244 0.43105 0.1752 0.0
C69 C 0.12194 0.54836 0.14792 0.0
C70 C 0.94683 0.76858 0.1574 0.0
C71 C 0.98649 0.76125 0.15064 0.0
C72 C 0.98282 0.68439 0.1527 0.0
C73 C 0.94847 0.63631 0.1563 0.0
C74 C 0.96399 0.60672 0.16343 0.0
C75 C 0.01531 0.62551 0.16657 0.0
C76 C 0.05037 0.67343 0.16212 0.0
C77 C 0.03373 0.70251 0.15531 0.0
C78 C 0.92553 0.55575 0.1679 0.0
C79 C 0.10538 0.69404 0.1647 0.0
C80 C 0.0836 0.61254 0.24438 0.0
C81 C 0.10049 0.58386 0.25122 0.0
C82 C 0.10616 0.55204 0.24113 0.0
C83 C 0.09396 0.548 0.22374 0.0
C84 C 0.09852 0.51587 0.21325 0.0
C85 C 0.08399 0.51027 0.19632 0.0
C86 C 0.06523 0.53727 0.18915 0.0
C87 C 0.04819 0.53013 0.17211 0.0
C88 C 0.03278 0.55973 0.16509 0.0
C89 C 0.03228 0.59543 0.17481 0.0
C90 C 0.04632 0.60102 0.19213 0.0
C91 C 0.04358 0.63455 0.2025 0.0
C92 C 0.05634 0.63886 0.21958 0.0
C93 C 0.07224 0.60974 0.22696 0.0
C94 C 0.07662 0.57671 0.21666 0.0
C95 C 0.06303 0.57191 0.19928 0.0
C96 C 0.0345 0.31803 0.15628 0.0
C97 C 0.01203 0.32477 0.1399 0.0
O98 O 0.05578 0.72852 0.29001 0.0
O99 O 0.96565 0.7122 0.1467 0.0
O100 O 0.03719 0.37358 0.13619 0.0
O101 O 0.17337 0.43451 0.26845 0.0
H102 H 0.12143 0.76059 0.30457 0.0
H103 H 0.06712 0.67487 0.31273 0.0
H104 H 0.02105 0.68742 0.31874 0.0
H105 H 0.08134 0.71667 0.33006 0.0
H106 H 0.14239 0.75152 0.27886 0.0
H107 H 0.98588 0.64755 0.27568 0.0
H108 H 0.18205 0.6829 0.26268 0.0
H109 H 0.19661 0.74461 0.26193 0.0
H110 H 0.16945 0.70407 0.24362 0.0
H111 H 0.95004 0.57177 0.26098 0.0
H112 H 0.99071 0.55118 0.25587 0.0
H113 H 0.97559 0.58285 0.24088 0.0
H114 H 0.23683 0.48346 0.28268 0.0
H115 H 0.2883 0.45527 0.2688 0.0
H116 H 0.26531 0.48394 0.2553 0.0
H117 H 0.23562 0.41917 0.25393 0.0
H118 H 0.08245 0.40673 0.26108 0.0
H119 H 0.23168 0.53007 0.26257 0.0
H120 H 0.02593 0.4457 0.23527 0.0
H121 H 0.02317 0.47425 0.25402 0.0
H122 H 0.01337 0.41407 0.25446 0.0
H123 H 0.25169 0.60504 0.25223 0.0
H124 H 0.2066 0.61954 0.25763 0.0
H125 H 0.2077 0.60271 0.23644 0.0
H126 H 0.97214 0.31106 0.14104 0.0
H127 H 0.97013 0.36573 0.1571 0.0
H128 H 0.10272 0.46395 0.13321 0.0
H129 H 0.97745 0.43595 0.18836 0.0
H130 H 0.92979 0.39337 0.17323 0.0
H131 H 0.94997 0.45695 0.17329 0.0
H132 H 0.14805 0.54853 0.13927 0.0
H133 H 0.14251 0.56557 0.16012 0.0
H134 H 0.10801 0.57099 0.1428 0.0
H135 H 0.01644 0.77401 0.16085 0.0
H136 H 0.96266 0.80763 0.16075 0.0
H137 H 0.93294 0.74755 0.16881 0.0
H138 H 0.91501 0.75585 0.148 0.0
H139 H 0.90927 0.6225 0.15398 0.0
H140 H 0.06045 0.73923 0.15194 0.0
H141 H 0.93211 0.55017 0.1812 0.0
H142 H 0.92874 0.52914 0.16018 0.0
H143 H 0.88715 0.54794 0.16586 0.0
H144 H 0.12763 0.72962 0.15885 0.0
H145 H 0.11454 0.66821 0.15941 0.0
H146 H 0.1164 0.69916 0.17828 0.0
H147 H 0.10899 0.58606 0.26459 0.0
H148 H 0.11266 0.49407 0.21804 0.0
H149 H 0.08765 0.48443 0.18893 0.0
H150 H 0.02019 0.55434 0.15197 0.0
H151 H 0.03103 0.65751 0.19757 0.0
H152 H 0.0533 0.66513 0.22694 0.0
H153 H 0.0148 0.27898 0.15924 0.0
H154 H 0.03097 0.33818 0.16679 0.0
H155 H 0.07447 0.33179 0.15533 0.0
C156 C 0.4267 0.21013 0.63848 0.0
C157 C 0.38458 0.16926 0.62711 0.0
C158 C 0.4276 0.13611 0.61271 0.0
C159 C 0.45381 0.17543 0.60235 0.0
C160 C 0.48792 0.17655 0.59173 0.0
C161 C 0.49591 0.13761 0.59141 0.0
C162 C 0.46911 0.09769 0.6016 0.0
C163 C 0.43523 0.09748 0.6121 0.0
C164 C 0.51572 0.21954 0.58092 0.0
C165 C 0.47654 0.05545 0.60146 0.0
C166 C 0.9018 0.30615 0.60387 0.0
C167 C 0.85327 0.25674 0.60419 0.0
C168 C 0.76894 0.23991 0.60057 0.0
C169 C 0.74267 0.18939 0.59747 0.0
C170 C 0.69343 0.16438 0.59055 0.0
C171 C 0.67099 0.19091 0.58594 0.0
C172 C 0.69769 0.24195 0.5891 0.0
C173 C 0.74593 0.26553 0.59674 0.0
C174 C 0.66556 0.10969 0.58827 0.0
C175 C 0.67549 0.27184 0.58442 0.0
C176 C 0.68136 0.08085 0.48539 0.0
C177 C 0.65397 0.04703 0.49731 0.0
C178 C 0.61691 0.04906 0.50523 0.0
C179 C 0.60766 0.08623 0.50141 0.0
C180 C 0.63418 0.11952 0.48911 0.0
C181 C 0.67039 0.11603 0.48113 0.0
C182 C 0.58824 0.0119 0.51792 0.0
C183 C 0.62521 0.15952 0.48473 0.0
C184 C 0.21203 0.95617 0.49363 0.0
C185 C 0.25894 0.0021 0.48857 0.0
C186 C 0.33934 0.00991 0.49006 0.0
C187 C 0.35692 0.9796 0.49402 0.0
C188 C 0.40482 0.99864 0.50157 0.0
C189 C 0.43642 0.04955 0.50461 0.0
C190 C 0.41955 0.08062 0.49975 0.0
C191 C 0.37084 0.06035 0.49275 0.0
C192 C 0.4212 0.9642 0.50657 0.0
C193 C 0.45276 0.1352 0.50202 0.0
C194 C 0.53317 0.13928 0.58067 0.0
C195 C 0.58186 0.16041 0.58754 0.0
C196 C 0.61961 0.16561 0.57797 0.0
C197 C 0.60835 0.14852 0.56105 0.0
C198 C 0.64533 0.15361 0.55093 0.0
C199 C 0.63352 0.13495 0.53453 0.0
C200 C 0.58449 0.11169 0.52745 0.0
C201 C 0.57192 0.09131 0.51096 0.0
C202 C 0.52373 0.07195 0.50382 0.0
C203 C 0.4868 0.07022 0.51302 0.0
C204 C 0.49789 0.08713 0.52996 0.0
C205 C 0.46101 0.08281 0.53998 0.0
C206 C 0.47242 0.09979 0.55659 0.0
C207 C 0.52114 0.12169 0.56384 0.0
C208 C 0.55885 0.12617 0.55402 0.0
C209 C 0.5471 0.1085 0.53711 0.0
C210 C 0.77663 0.08356 0.49886 0.0
C211 C 0.74356 0.05831 0.48284 0.0
O212 O 0.39512 0.1339 0.62352 0.0
O213 O 0.29191 0.98956 0.4836 0.0
O214 O 0.71879 0.08126 0.47783 0.0
O215 O 0.81602 0.26487 0.60763 0.0
H216 H 0.37979 0.1846 0.61532 0.0
H217 H 0.46194 0.22829 0.63218 0.0
H218 H 0.43245 0.19541 0.65025 0.0
H219 H 0.41781 0.23802 0.64155 0.0
H220 H 0.44828 0.20556 0.60252 0.0
H221 H 0.41476 0.06722 0.62006 0.0
H222 H 0.55622 0.23742 0.58399 0.0
H223 H 0.50518 0.24689 0.58254 0.0
H224 H 0.50828 0.20692 0.56758 0.0
H225 H 0.4519 0.02654 0.60981 0.0
H226 H 0.5157 0.06849 0.60548 0.0
H227 H 0.46922 0.03947 0.58856 0.0
H228 H 0.84534 0.23883 0.59152 0.0
H229 H 0.93237 0.30177 0.60017 0.0
H230 H 0.91224 0.32525 0.61636 0.0
H231 H 0.89726 0.3291 0.59464 0.0
H232 H 0.76015 0.16934 0.60081 0.0
H233 H 0.76648 0.30448 0.59938 0.0
H234 H 0.66418 0.09952 0.57494 0.0
H235 H 0.6268 0.093 0.59184 0.0
H236 H 0.68375 0.09404 0.5958 0.0
H237 H 0.70392 0.31141 0.58486 0.0
H238 H 0.64736 0.26545 0.5933 0.0
H239 H 0.65662 0.26089 0.57168 0.0
H240 H 0.71625 0.01951 0.4851 0.0
H241 H 0.66127 0.01905 0.50062 0.0
H242 H 0.69138 0.14171 0.47182 0.0
H243 H 0.60005 0.02961 0.53062 0.0
H244 H 0.59442 0.98125 0.51761 0.0
H245 H 0.54789 0.99706 0.51569 0.0
H246 H 0.65039 0.18376 0.47537 0.0
H247 H 0.63052 0.18173 0.49615 0.0
H248 H 0.58626 0.14334 0.47963 0.0
H249 H 0.27499 0.02736 0.49982 0.0
H250 H 0.18525 0.96518 0.49805 0.0
H251 H 0.22169 0.93935 0.50395 0.0
H252 H 0.19406 0.92928 0.4829 0.0
H253 H 0.33232 0.94071 0.49168 0.0
H254 H 0.35745 0.08382 0.48922 0.0
H255 H 0.43752 0.97266 0.51965 0.0
H256 H 0.4503 0.96875 0.49843 0.0
H257 H 0.39008 0.92557 0.50542 0.0
H258 H 0.43747 0.1542 0.4949 0.0
H259 H 0.49032 0.14773 0.49796 0.0
H260 H 0.45681 0.14598 0.51544 0.0
H261 H 0.59068 0.1738 0.60048 0.0
H262 H 0.68379 0.17159 0.55561 0.0
H263 H 0.66343 0.1393 0.52742 0.0
H264 H 0.51464 0.05723 0.49105 0.0
H265 H 0.4228 0.06602 0.53512 0.0
H266 H 0.4425 0.09545 0.56369 0.0
H267 H 0.79691 0.06559 0.50281 0.0
H268 H 0.80396 0.1225 0.49681 0.0
H269 H 0.75388 0.08144 0.50917 0.0
C270 C 0.77692 0.61636 0.7782 0.0
C271 C 0.75341 0.64241 0.7856 0.0
C272 C 0.71695 0.6247 0.81212 0.0
C273 C 0.68794 0.64541 0.8112 0.0
C274 C 0.64524 0.62646 0.82011 0.0
C275 C 0.63066 0.58503 0.82971 0.0
C276 C 0.66041 0.56442 0.83072 0.0
C277 C 0.70398 0.58545 0.82222 0.0
C278 C 0.61532 0.65022 0.81899 0.0
C279 C 0.64553 0.51929 0.8403 0.0
C280 C 0.3205 0.44049 0.76109 0.0
C281 C 0.32097 0.40305 0.77246 0.0
C282 C 0.36327 0.43843 0.79964 0.0
C283 C 0.39142 0.41723 0.80261 0.0
C284 C 0.43348 0.43954 0.81394 0.0
C285 C 0.44786 0.48428 0.82223 0.0
C286 C 0.41937 0.50567 0.81917 0.0
C287 C 0.37674 0.4818 0.80816 0.0
C288 C 0.46231 0.41518 0.81713 0.0
C289 C 0.43406 0.55391 0.8274 0.0
C290 C 0.33719 0.41373 0.92159 0.0
C291 C 0.36693 0.39532 0.91786 0.0
C292 C 0.41549 0.42643 0.91319 0.0
C293 C 0.43422 0.47673 0.91197 0.0
C294 C 0.40521 0.49564 0.91658 0.0
C295 C 0.35717 0.46382 0.92155 0.0
C296 C 0.44611 0.40528 0.90898 0.0
C297 C 0.42414 0.54908 0.91556 0.0
C298 C 0.82131 0.70935 0.93789 0.0
C299 C 0.78764 0.72834 0.94144 0.0
C300 C 0.70197 0.66227 0.93945 0.0
C301 C 0.68238 0.61225 0.93875 0.0
C302 C 0.63922 0.58071 0.92861 0.0
C303 C 0.61454 0.59985 0.91941 0.0
C304 C 0.63289 0.65028 0.92087 0.0
C305 C 0.67683 0.68105 0.93075 0.0
C306 C 0.62073 0.52722 0.92743 0.0
C307 C 0.60656 0.67182 0.91181 0.0
C308 C 0.58277 0.56132 0.83773 0.0
C309 C 0.53913 0.53463 0.8274 0.0
C310 C 0.49277 0.50898 0.83404 0.0
C311 C 0.48972 0.50843 0.85154 0.0
C312 C 0.444 0.48064 0.85869 0.0
C313 C 0.44127 0.48063 0.8759 0.0
C314 C 0.48418 0.5085 0.88667 0.0
C315 C 0.48174 0.50838 0.9042 0.0
C316 C 0.52468 0.53821 0.91453 0.0
C317 C 0.57061 0.56756 0.90781 0.0
C318 C 0.57411 0.56637 0.89032 0.0
C319 C 0.61995 0.59369 0.88315 0.0
C320 C 0.6229 0.59242 0.86594 0.0
C321 C 0.58016 0.56363 0.85522 0.0
C322 C 0.53351 0.53639 0.86215 0.0
C323 C 0.53061 0.5371 0.87973 0.0
C324 C 0.20554 0.32747 0.91601 0.0
C325 C 0.25737 0.33628 0.91973 0.0
O326 O 0.75654 0.64097 0.80284 0.0
O327 O 0.7455 0.69208 0.94842 0.0
O328 O 0.28913 0.38445 0.92517 0.0
O329 O 0.32226 0.41712 0.78891 0.0
H330 H 0.71373 0.62202 0.78067 0.0
H331 H 0.75679 0.57786 0.78183 0.0
H332 H 0.81646 0.63398 0.78286 0.0
H333 H 0.7746 0.61684 0.76435 0.0
H334 H 0.69872 0.67626 0.80346 0.0
H335 H 0.72689 0.56989 0.82277 0.0
H336 H 0.58111 0.62723 0.81077 0.0
H337 H 0.63633 0.68688 0.81376 0.0
H338 H 0.60396 0.6536 0.83151 0.0
H339 H 0.66778 0.50322 0.83741 0.0
H340 H 0.60566 0.49137 0.83743 0.0
H341 H 0.65117 0.52858 0.85389 0.0
H342 H 0.35472 0.40219 0.77019 0.0
H343 H 0.32085 0.43102 0.7478 0.0
H344 H 0.35396 0.47702 0.76427 0.0
H345 H 0.287 0.4422 0.7627 0.0
H346 H 0.37998 0.38289 0.79627 0.0
H347 H 0.35435 0.49754 0.80582 0.0
H348 H 0.4682 0.4128 0.83077 0.0
H349 H 0.49938 0.43735 0.81211 0.0
H350 H 0.44319 0.37803 0.81117 0.0
H351 H 0.41236 0.56886 0.82184 0.0
H352 H 0.47415 0.58082 0.8263 0.0
H353 H 0.42771 0.54927 0.84088 0.0
H354 H 0.26912 0.32908 0.9078 0.0
H355 H 0.35224 0.35671 0.91846 0.0
H356 H 0.33414 0.47769 0.92475 0.0
H357 H 0.44858 0.40478 0.89525 0.0
H358 H 0.42971 0.36752 0.91317 0.0
H359 H 0.48445 0.42817 0.91482 0.0
H360 H 0.39679 0.55796 0.91947 0.0
H361 H 0.43298 0.56038 0.90255 0.0
H362 H 0.45894 0.57068 0.92365 0.0
H363 H 0.77743 0.73838 0.92929 0.0
H364 H 0.8552 0.73781 0.93217 0.0
H365 H 0.80138 0.67722 0.92903 0.0
H366 H 0.83237 0.69833 0.94959 0.0
H367 H 0.70202 0.59822 0.9457 0.0
H368 H 0.69175 0.71982 0.93169 0.0
H369 H 0.61627 0.51494 0.91414 0.0
H370 H 0.58375 0.50612 0.93258 0.0
H371 H 0.64622 0.51872 0.93438 0.0
H372 H 0.62095 0.70978 0.91632 0.0
H373 H 0.56609 0.64946 0.91341 0.0
H374 H 0.61175 0.67193 0.89826 0.0
H375 H 0.54128 0.53382 0.81397 0.0
H376 H 0.40977 0.45835 0.85105 0.0
H377 H 0.40495 0.4586 0.88063 0.0
H378 H 0.5223 0.53864 0.92795 0.0
H379 H 0.65416 0.61624 0.89077 0.0
H380 H 0.65912 0.61436 0.86112 0.0
H381 H 0.19145 0.33378 0.9275 0.0
H382 H 0.17929 0.28962 0.91104 0.0
H383 H 0.20691 0.35274 0.90648 0.0
H384 H 0.04475 0.21658 0.04565 0.0
H385 H 0.03919 0.11375 0.08089 0.0
H386 H 0.02901 0.25762 0.06764 0.0
H387 H 0.02258 0.15499 0.10289 0.0
H388 H 0.08331 0.35459 0.11681 0.0
H389 H 0.08783 0.30584 0.09459 0.0
H390 H 0.95536 0.17832 0.10993 0.0
H391 H 0.94972 0.22756 0.13204 0.0
C392 C 0.03928 0.20208 0.058 0.0
C393 C 0.04375 0.16205 0.06152 0.0
C394 C 0.0305 0.22583 0.07059 0.0
C395 C 0.02516 0.20971 0.08693 0.0
C396 C 0.02658 0.16803 0.09034 0.0
C397 C 0.03615 0.14455 0.07776 0.0
C398 C 0.05459 0.31639 0.11533 0.0
C399 C 0.01522 0.29517 0.1259 0.0
C400 C 0.05732 0.28849 0.10263 0.0
C401 C 0.02162 0.23856 0.10049 0.0
C402 C 0.98316 0.21684 0.11132 0.0
C403 C 0.97985 0.24498 0.12386 0.0
H404 H 0.88423 0.98985 0.40597 0.0
H405 H 0.97039 0.14665 0.41151 0.0
H406 H 0.83143 0.98661 0.42736 0.0
H407 H 0.91952 0.14346 0.43347 0.0
H408 H 0.7881 0.12646 0.45876 0.0
H409 H 0.84026 0.12829 0.43743 0.0
H410 H 0.82732 0.99759 0.45615 0.0
H411 H 0.7728 0.99451 0.47692 0.0
C412 C 0.89242 0.02362 0.41194 0.0
C413 C 0.93163 0.06851 0.40704 0.0
C414 C 0.86228 0.02177 0.42429 0.0
C415 C 0.87097 0.06479 0.43216 0.0
C416 C 0.91097 0.1096 0.42748 0.0
C417 C 0.94065 0.11145 0.41498 0.0
C418 C 0.7957 0.09767 0.45813 0.0
C419 C 0.77518 0.05951 0.46922 0.0
C420 C 0.82625 0.09906 0.44604 0.0
C421 C 0.83808 0.06303 0.44499 0.0
C422 C 0.81824 0.02538 0.45631 0.0
C423 C 0.78715 0.02366 0.46826 0.0
H424 H 0.84554 0.9151 0.73629 0.0
H425 H 0.97061 0.89679 0.73992 0.0
H426 H 0.80189 0.84825 0.75495 0.0
H427 H 0.92681 0.82973 0.75828 0.0
H428 H 0.84534 0.72057 0.79658 0.0
H429 H 0.89048 0.80145 0.78505 0.0
H430 H 0.76462 0.76054 0.75031 0.0
H431 H 0.71966 0.68037 0.76197 0.0
C432 C 0.86409 0.89745 0.74131 0.0
C433 C 0.91128 0.91084 0.73648 0.0
C434 C 0.83897 0.85898 0.75192 0.0
C435 C 0.86064 0.83332 0.75794 0.0
C436 C 0.90916 0.84891 0.75397 0.0
C437 C 0.93418 0.88721 0.74335 0.0
C438 C 0.82714 0.72942 0.78671 0.0
C439 C 0.779 0.69434 0.78018 0.0
C440 C 0.85298 0.77552 0.78006 0.0
C441 C 0.83118 0.7874 0.76674 0.0
C442 C 0.78225 0.7529 0.76072 0.0
C443 C 0.75655 0.70685 0.76733 0.0
H444 H 0.09806 0.00703 0.08842 0.0
H445 H 0.05802 0.8907 0.05214 0.0
H446 H 0.07606 0.95039 0.11075 0.0
H447 H 0.03664 0.83393 0.07466 0.0
H448 H 0.94404 0.74217 0.11843 0.0
H449 H 0.97252 0.79563 0.09487 0.0
H450 H 0.10273 0.90178 0.12533 0.0
H451 H 0.0737 0.84864 0.14889 0.0
C452 C 0.08492 0.96941 0.0852 0.0
C453 C 0.07972 0.95341 0.06847 0.0
C454 C 0.07264 0.93697 0.09804 0.0
C455 C 0.05477 0.88764 0.0945 0.0
C456 C 0.04993 0.87163 0.07778 0.0
C457 C 0.0624 0.9042 0.0649 0.0
C458 C 0.97917 0.77657 0.11995 0.0
C459 C 0.0069 0.79112 0.13543 0.0
C460 C 0.99555 0.80715 0.10647 0.0
C461 C 0.03979 0.85308 0.10825 0.0
C462 C 0.06817 0.86692 0.12361 0.0
C463 C 0.0518 0.83636 0.13706 0.0
H464 H 0.10179 0.03108 0.40286 0.0
H465 H 0.17093 0.17218 0.42831 0.0
H466 H 0.14654 0.00842 0.42236 0.0
H467 H 0.21747 0.15031 0.44743 0.0
H468 H 0.25219 0.98568 0.45431 0.0
H469 H 0.22228 0.01805 0.43254 0.0
H470 H 0.2009 0.09989 0.47024 0.0
H471 H 0.23294 0.06922 0.49177 0.0
C472 C 0.12729 0.05767 0.41242 0.0
C473 C 0.13224 0.10326 0.41412 0.0
C474 C 0.15331 0.04475 0.42358 0.0
C475 C 0.18545 0.07732 0.43663 0.0
C476 C 0.19223 0.12383 0.4378 0.0
C477 C 0.16574 0.13652 0.42675 0.0
C478 C 0.24226 0.01156 0.45785 0.0
C479 C 0.24582 0.02571 0.47472 0.0
C480 C 0.22453 0.0297 0.44541 0.0
C481 C 0.20904 0.06166 0.44957 0.0
C482 C 0.21339 0.07625 0.46645 0.0
C483 C 0.23156 0.05852 0.47884 0.0
H484 H 0.10721 0.10913 0.73086 0.0
H485 H 0.0176 0.16247 0.74796 0.0
H486 H 0.18167 0.18211 0.74274 0.0
H487 H 0.0922 0.23683 0.75906 0.0
H488 H 0.23166 0.35328 0.78773 0.0
H489 H 0.15828 0.27463 0.77928 0.0
H490 H 0.23287 0.26395 0.73758 0.0
H491 H 0.30714 0.34111 0.74675 0.0
C492 C 0.10347 0.13661 0.73712 0.0
C493 C 0.05654 0.13011 0.73843 0.0
C494 C 0.14625 0.17873 0.74384 0.0
C495 C 0.14333 0.21593 0.75175 0.0
C496 C 0.09612 0.20887 0.75331 0.0
C497 C 0.05323 0.16628 0.74686 0.0
C498 C 0.23272 0.33364 0.77697 0.0
C499 C 0.27564 0.35298 0.76808 0.0
C500 C 0.19032 0.28871 0.77197 0.0
C501 C 0.18932 0.26255 0.75772 0.0
C502 C 0.23233 0.28218 0.74884 0.0
C503 C 0.27491 0.32663 0.75401 0.0
H504 H 0.91045 0.05209 0.65546 0.0
H505 H 0.89342 0.13073 0.69538 0.0
H506 H 0.89154 0.09588 0.63502 0.0
H507 H 0.87801 0.17743 0.67504 0.0
H508 H 0.8125 0.2284 0.63511 0.0
H509 H 0.82402 0.17879 0.65512 0.0
H510 H 0.92251 0.1686 0.62267 0.0
H511 H 0.90736 0.21463 0.60213 0.0
C512 C 0.90331 0.07935 0.65984 0.0
C513 C 0.9035 0.0881 0.67699 0.0
C514 C 0.89278 0.10484 0.64812 0.0
C515 C 0.88351 0.14078 0.65325 0.0
C516 C 0.88392 0.14952 0.67049 0.0
C517 C 0.89319 0.12305 0.68221 0.0
C518 C 0.83603 0.21497 0.63214 0.0
C519 C 0.8588 0.22521 0.61692 0.0
C520 C 0.84321 0.1869 0.64376 0.0
C521 C 0.87437 0.16945 0.64067 0.0
C522 C 0.89732 0.18016 0.62546 0.0
C523 C 0.88913 0.2071 0.61371 0.0
H524 H 0.95192 0.02315 0.98704 0.0
H525 H 0.00156 0.94252 0.0157 0.0
H526 H 0.88917 0.94848 0.97179 0.0
H527 H 0.9398 0.86809 9e-05 0.0
H528 H 0.80276 0.73445 0.97586 0.0
H529 H 0.8536 0.80755 0.99397 0.0
H530 H 0.88915 0.89603 0.95078 0.0
H531 H 0.83725 0.82325 0.9329 0.0
C532 C 0.94934 0.98948 0.99016 0.0
C533 C 0.98216 0.98901 0.00251 0.0
C534 C 0.91349 0.94665 0.98133 0.0
C535 C 0.90974 0.90227 0.98454 0.0
C536 C 0.94124 0.90146 0.99737 0.0
C537 C 0.97692 0.94428 0.00628 0.0
C538 C 0.82066 0.76968 0.97034 0.0
C539 C 0.81522 0.77327 0.95301 0.0
C540 C 0.85019 0.81152 0.98067 0.0
C541 C 0.87538 0.8578 0.97387 0.0
C542 C 0.8695 0.8612 0.95653 0.0
C543 C 0.83991 0.81948 0.94625 0.0
H544 H 0.02349 0.97592 0.32895 0.0
H545 H 0.05567 0.93177 0.37618 0.0
H546 H 0.03697 0.9178 0.31426 0.0
H547 H 0.06958 0.87436 0.3615 0.0
H548 H 0.14373 0.81841 0.32826 0.0
H549 H 0.13264 0.87977 0.34157 0.0
H550 H 0.99345 0.82316 0.31253 0.0
H551 H 0.00397 0.76117 0.29943 0.0
C552 C 0.03362 0.954 0.33618 0.0
C553 C 0.03844 0.95833 0.35372 0.0
C554 C 0.0411 0.92066 0.32778 0.0
C555 C 0.05442 0.89176 0.33677 0.0
C556 C 0.05976 0.89652 0.35428 0.0
C557 C 0.05151 0.92919 0.36267 0.0
C558 C 0.11109 0.81951 0.32458 0.0
C559 C 0.07532 0.78562 0.31256 0.0
C560 C 0.10461 0.85437 0.33225 0.0
C561 C 0.06231 0.85627 0.32801 0.0
C562 C 0.02673 0.82286 0.31585 0.0
C563 C 0.03283 0.78746 0.30835 0.0
H564 H 0.08269 0.05281 0.65706 0.0
H565 H 0.16783 0.06058 0.70213 0.0
H566 H 0.1562 0.08297 0.64136 0.0
H567 H 0.24143 0.09178 0.68655 0.0
H568 H 0.35151 0.10026 0.65101 0.0
H569 H 0.27584 0.0665 0.66575 0.0
H570 H 0.23602 0.15663 0.63836 0.0
H571 H 0.31113 0.18928 0.62331 0.0
C572 C 0.11711 0.0611 0.66363 0.0
C573 C 0.11937 0.05419 0.68084 0.0
C574 C 0.15931 0.07863 0.65465 0.0
C575 C 0.20471 0.08973 0.66268 0.0
C576 C 0.20689 0.08285 0.67991 0.0
C577 C 0.16472 0.06522 0.68887 0.0
C578 C 0.32617 0.11226 0.64799 0.0
C579 C 0.33663 0.1466 0.63575 0.0
C580 C 0.28309 0.09334 0.65654 0.0
C581 C 0.24979 0.10878 0.65322 0.0
C582 C 0.2604 0.14329 0.64102 0.0
C583 C 0.30344 0.16211 0.63243 0.0
H584 H 0.26321 0.18381 0.00875 0.0
H585 H 0.11819 0.10014 0.98296 0.0
H586 H 0.29476 0.23447 0.9845 0.0
H587 H 0.14959 0.14996 0.9586 0.0
H588 H 0.22791 0.24113 0.91478 0.0
H589 H 0.21365 0.18129 0.93578 0.0
H590 H 0.26715 0.29354 0.97474 0.0
H591 H 0.28017 0.35281 0.95395 0.0
C592 C 0.23882 0.17494 0.99757 0.0
C593 C 0.18864 0.13789 0.99748 0.0
C594 C 0.25664 0.2041 0.9838 0.0
C595 C 0.22452 0.19619 0.96974 0.0
C596 C 0.17526 0.15649 0.9692 0.0
C597 C 0.15731 0.1279 0.98307 0.0
C598 C 0.23748 0.25305 0.92783 0.0
C599 C 0.25559 0.30171 0.93268 0.0
C600 C 0.22929 0.2189 0.9398 0.0
C601 C 0.23973 0.23295 0.95683 0.0
C602 C 0.25968 0.28194 0.96166 0.0
C603 C 0.267 0.31587 0.94974 0.0
H604 H 0.08784 0.17685 0.32739 0.0
H605 H 0.17197 0.28556 0.36705 0.0
H606 H 0.12332 0.23914 0.3069 0.0
H607 H 0.20977 0.34775 0.34653 0.0
H608 H 0.20707 0.45204 0.30906 0.0
H609 H 0.185 0.39021 0.32952 0.0
H610 H 0.18938 0.29584 0.29228 0.0
H611 H 0.20817 0.35637 0.27162 0.0
C612 C 0.11515 0.21388 0.33169 0.0
C613 C 0.12672 0.22639 0.34884 0.0
C614 C 0.1357 0.24976 0.31992 0.0
C615 C 0.169 0.29889 0.32501 0.0
C616 C 0.18319 0.31064 0.34214 0.0
C617 C 0.16193 0.27491 0.35391 0.0
C618 C 0.20408 0.41836 0.30532 0.0
C619 C 0.21095 0.41005 0.28879 0.0
C620 C 0.1917 0.38287 0.3171 0.0
C621 C 0.18585 0.33793 0.31269 0.0
C622 C 0.19316 0.32975 0.29616 0.0
C623 C 0.20474 0.36497 0.28431 0.0
loop_
_geom_bond_atom_site_label_1
_geom_bond_atom_site_label_2
_geom_bond_distance
_geom_bond_site_symmetry_2
_ccdc_geom_bond_type
Mg0 O1 2.028 . S
Mg0 O7 1.986 . S
Mg0 O9 2.114 . S
Mg0 O10 2.251 . S
Mg0 O13 2.010 . S
O1 Mg0 2.028 . S
O1 C4 1.250 . S
O2 Mg3 2.028 . S
O2 C4 1.248 . S
Mg3 O2 2.028 . S
Mg3 O8 2.032 . S
Mg3 O10 2.079 . S
C4 O1 1.250 . S
C4 O2 1.248 . S
C5 O6 1.264 . S
C5 O13 1.249 . S
O6 C5 1.264 . S
O7 Mg0 1.986 . S
O7 C11 1.246 . S
O8 Mg3 2.032 . S
O8 C11 1.259 . S
O9 Mg0 2.114 . S
O9 C12 1.252 . S
O10 Mg0 2.251 . S
O10 Mg3 2.079 . S
O10 C12 1.273 . S
C11 O7 1.246 . S
C11 O8 1.259 . S
C12 O9 1.252 . S
C12 O10 1.273 . S
O13 Mg0 2.010 . S
O13 C5 1.249 . S
Mg14 O15 2.028 1_655 S
Mg14 O21 1.986 1_655 S
Mg14 O23 2.115 . S
Mg14 O24 2.251 . S
Mg14 O27 2.010 1_545 S
O15 Mg14 2.028 1_455 S
O15 C18 1.250 . S
O16 Mg17 2.028 . S
O16 C18 1.248 . S
Mg17 O16 2.028 . S
Mg17 O22 2.032 . S
Mg17 O24 2.079 1_455 S
C18 O15 1.250 . S
C18 O16 1.248 . S
C19 O20 1.264 . S
C19 O27 1.249 . S
O20 C19 1.264 . S
O21 Mg14 1.986 1_455 S
O21 C25 1.246 . S
O22 Mg17 2.032 . S
O22 C25 1.259 . S
O23 Mg14 2.115 . S
O23 C26 1.257 . S
O24 Mg14 2.251 . S
O24 Mg17 2.079 1_655 S
O24 C26 1.273 . S
C25 O21 1.246 . S
C25 O22 1.259 . S
C26 O23 1.257 . S
C26 O24 1.273 . S
O27 Mg14 2.010 1_565 S
O27 C19 1.249 . S
Mg28 O29 2.028 . S
Mg28 O35 1.986 . S
Mg28 O37 2.114 1_545 S
Mg28 O38 2.251 1_455 S
Mg28 O41 2.010 . S
O29 Mg28 2.028 . S
O29 C32 1.250 . S
O30 Mg31 2.028 1_455 S
O30 C32 1.248 . S
Mg31 O30 2.028 1_655 S
Mg31 O36 2.032 . S
Mg31 O38 2.079 . S
C32 O29 1.250 . S
C32 O30 1.248 . S
C33 O34 1.264 1_545 S
C33 O41 1.249 . S
O34 C33 1.264 1_565 S
O35 Mg28 1.986 . S
O35 C39 1.246 1_455 S
O36 Mg31 2.032 . S
O36 C39 1.259 . S
O37 Mg28 2.114 1_565 S
O37 C40 1.252 1_455 S
O38 Mg28 2.251 1_655 S
O38 Mg31 2.079 . S
O38 C40 1.273 1_545 S
C39 O35 1.246 1_655 S
C39 O36 1.259 . S
C40 O37 1.252 1_655 S
C40 O38 1.273 1_565 S
O41 Mg28 2.010 . S
O41 C33 1.249 . S
C42 C43 1.560 1_655 S
C42 H103 0.959 . S
C42 H104 0.959 . S
C42 H105 0.960 . S
C43 C42 1.560 1_455 S
C43 O98 1.426 1_455 S
C43 H102 0.980 . S
C44 C45 1.407 . S
C44 C49 1.418 1_455 S
C44 O98 1.334 1_455 S
C45 C44 1.407 . S
C45 C46 1.360 . S
C45 H106 0.929 . S
C46 C45 1.360 . S
C46 C47 1.401 . S
C46 C50 1.527 . S
C47 C46 1.401 . S
C47 C48 1.405 1_455 S
C47 C80 1.587 . S
C48 C47 1.405 1_655 S
C48 C49 1.332 . S
C48 C51 1.496 . S
C49 C44 1.418 1_655 S
C49 C48 1.332 . S
C49 H107 0.929 . S
C50 C46 1.527 . S
C50 H108 0.959 . S
C50 H109 0.961 . S
C50 H110 0.961 . S
C51 C48 1.496 . S
C51 H111 0.960 . S
C51 H112 0.960 . S
C51 H113 0.961 . S
C52 C53 1.517 . S
C52 H115 0.961 . S
C52 H116 0.960 . S
C52 H117 0.959 . S
C53 C52 1.517 . S
C53 O101 1.468 . S
C53 H114 0.980 . S
C54 C55 1.349 . S
C54 C59 1.367 . S
C54 O101 1.408 . S
C55 C54 1.349 . S
C55 C56 1.407 . S
C55 H118 0.930 . S
C56 C55 1.407 . S
C56 C57 1.449 . S
C56 C60 1.535 1_455 S
C57 C56 1.449 . S
C57 C58 1.384 . S
C57 C82 1.553 . S
C58 C57 1.384 . S
C58 C59 1.364 . S
C58 C61 1.450 . S
C59 C54 1.367 . S
C59 C58 1.364 . S
C59 H119 0.931 . S
C60 C56 1.535 1_655 S
C60 H120 0.959 . S
C60 H121 0.961 . S
C60 H122 0.959 . S
C61 C58 1.450 . S
C61 H123 0.960 . S
C61 H124 0.960 . S
C61 H125 0.960 . S
C62 C63 1.309 . S
C62 C67 1.304 . S
C62 O100 1.435 . S
C63 C62 1.309 . S
C63 C64 1.476 . S
C63 H127 0.930 . S
C64 C63 1.476 . S
C64 C65 1.400 . S
C64 C68 1.567 1_455 S
C65 C64 1.400 . S
C65 C66 1.373 . S
C65 C87 1.432 . S
C66 C65 1.373 . S
C66 C67 1.339 . S
C66 C69 1.530 . S
C67 C62 1.304 . S
C67 C66 1.339 . S
C67 H128 0.930 . S
C68 C64 1.567 1_655 S
C68 H129 0.961 . S
C68 H130 0.960 . S
C68 H131 0.958 . S
C69 C66 1.530 . S
C69 H132 0.961 . S
C69 H133 0.960 . S
C69 H134 0.960 . S
C70 C71 1.530 . S
C70 H136 0.961 . S
C70 H137 0.961 1_455 S
C70 H138 0.959 1_455 S
C71 C70 1.530 . S
C71 O99 1.412 . S
C71 H135 0.980 . S
C72 C73 1.288 1_455 S
C72 C77 1.377 . S
C72 O99 1.393 . S
C73 C72 1.288 1_655 S
C73 C74 1.369 1_655 S
C73 H139 0.932 . S
C74 C73 1.369 1_455 S
C74 C75 1.398 . S
C74 C78 1.527 1_455 S
C75 C74 1.398 . S
C75 C76 1.380 . S
C75 C89 1.497 . S
C76 C75 1.380 . S
C76 C77 1.383 . S
C76 C79 1.603 . S
C77 C72 1.377 . S
C77 C76 1.383 . S
C77 H140 0.929 . S
C78 C74 1.527 1_655 S
C78 H141 0.961 . S
C78 H142 0.959 . S
C78 H143 0.959 . S
C79 C76 1.603 . S
C79 H144 0.960 . S
C79 H145 0.962 . S
C79 H146 0.961 . S
C80 C47 1.587 . S
C80 C81 1.360 . S
C80 C93 1.412 . S
C81 C80 1.360 . S
C81 C82 1.365 . S
C81 H147 0.929 . S
C82 C57 1.553 . S
C82 C81 1.365 . S
C82 C83 1.404 . S
C83 C82 1.404 . S
C83 C84 1.395 . S
C83 C94 1.451 . S
C84 C83 1.395 . S
C84 C85 1.322 . S
C84 H148 0.930 . S
C85 C84 1.322 . S
C85 C86 1.459 . S
C85 H149 0.929 . S
C86 C85 1.459 . S
C86 C87 1.445 . S
C86 C95 1.395 . S
C87 C65 1.432 . S
C87 C86 1.445 . S
C87 C88 1.370 . S
C88 C87 1.370 . S
C88 C89 1.438 . S
C88 H150 0.930 . S
C89 C75 1.497 . S
C89 C88 1.438 . S
C89 C90 1.360 . S
C90 C89 1.360 . S
C90 C91 1.401 . S
C90 C95 1.446 . S
C91 C90 1.401 . S
C91 C92 1.347 . S
C91 H151 0.929 . S
C92 C91 1.347 . S
C92 C93 1.455 . S
C92 H152 0.930 . S
C93 C80 1.412 . S
C93 C92 1.455 . S
C93 C94 1.331 . S
C94 C83 1.451 . S
C94 C93 1.331 . S
C94 C95 1.497 . S
C95 C86 1.395 . S
C95 C90 1.446 . S
C95 C94 1.497 . S
C96 C97 1.582 . S
C96 H153 0.962 . S
C96 H154 0.959 . S
C96 H155 0.958 . S
C97 C96 1.582 . S
C97 O100 1.458 . S
C97 H126 0.980 . S
O98 C43 1.426 1_655 S
O98 C44 1.334 1_655 S
O99 C71 1.412 . S
O99 C72 1.393 . S
O100 C62 1.435 . S
O100 C97 1.458 . S
O101 C53 1.468 . S
O101 C54 1.408 . S
H102 C43 0.980 . S
H103 C42 0.959 . S
H104 C42 0.959 . S
H105 C42 0.960 . S
H106 C45 0.929 . S
H107 C49 0.929 . S
H108 C50 0.959 . S
H109 C50 0.961 . S
H110 C50 0.961 . S
H111 C51 0.960 . S
H112 C51 0.960 . S
H113 C51 0.961 . S
H114 C53 0.980 . S
H115 C52 0.961 . S
H116 C52 0.960 . S
H117 C52 0.959 . S
H118 C55 0.930 . S
H119 C59 0.931 . S
H120 C60 0.959 . S
H121 C60 0.961 . S
H122 C60 0.959 . S
H123 C61 0.960 . S
H124 C61 0.960 . S
H125 C61 0.960 . S
H126 C97 0.980 . S
H127 C63 0.930 . S
H128 C67 0.930 . S
H129 C68 0.961 . S
H130 C68 0.960 . S
H131 C68 0.958 . S
H132 C69 0.961 . S
H133 C69 0.960 . S
H134 C69 0.960 . S
H135 C71 0.980 . S
H136 C70 0.961 . S
H137 C70 0.961 1_655 S
H138 C70 0.959 1_655 S
H139 C73 0.932 . S
H140 C77 0.929 . S
H141 C78 0.961 . S
H142 C78 0.959 . S
H143 C78 0.959 . S
H144 C79 0.960 . S
H145 C79 0.962 . S
H146 C79 0.961 . S
H147 C81 0.929 . S
H148 C84 0.930 . S
H149 C85 0.929 . S
H150 C88 0.930 . S
H151 C91 0.929 . S
H152 C92 0.930 . S
H153 C96 0.962 . S
H154 C96 0.959 . S
H155 C96 0.958 . S
C156 C157 1.560 . S
C156 H217 0.959 . S
C156 H218 0.959 . S
C156 H219 0.960 . S
C157 C156 1.560 . S
C157 O212 1.426 . S
C157 H216 0.980 . S
C158 C159 1.407 . S
C158 C163 1.418 . S
C158 O212 1.334 . S
C159 C158 1.407 . S
C159 C160 1.360 . S
C159 H220 0.929 . S
C160 C159 1.360 . S
C160 C161 1.401 . S
C160 C164 1.527 . S
C161 C160 1.401 . S
C161 C162 1.405 . S
C161 C194 1.587 . S
C162 C161 1.405 . S
C162 C163 1.332 . S
C162 C165 1.496 . S
C163 C158 1.418 . S
C163 C162 1.332 . S
C163 H221 0.929 1_545 S
C164 C160 1.527 . S
C164 H222 0.959 . S
C164 H223 0.961 . S
C164 H224 0.961 . S
C165 C162 1.496 . S
C165 H225 0.960 1_545 S
C165 H226 0.960 . S
C165 H227 0.961 . S
C166 C167 1.517 . S
C166 H229 0.961 . S
C166 H230 0.960 . S
C166 H231 0.959 . S
C167 C166 1.517 . S
C167 O215 1.468 . S
C167 H228 0.980 . S
C168 C169 1.349 . S
C168 C173 1.367 . S
C168 O215 1.408 . S
C169 C168 1.349 . S
C169 C170 1.407 . S
C169 H232 0.930 . S
C170 C169 1.407 . S
C170 C171 1.449 . S
C170 C174 1.535 . S
C171 C170 1.449 . S
C171 C172 1.384 . S
C171 C196 1.553 . S
C172 C171 1.384 . S
C172 C173 1.364 . S
C172 C175 1.450 . S
C173 C168 1.367 . S
C173 C172 1.364 . S
C173 H233 0.931 . S
C174 C170 1.535 . S
C174 H234 0.959 . S
C174 H235 0.961 . S
C174 H236 0.959 . S
C175 C172 1.450 . S
C175 H237 0.960 . S
C175 H238 0.960 . S
C175 H239 0.960 . S
C176 C177 1.309 . S
C176 C181 1.304 . S
C176 O214 1.435 . S
C177 C176 1.309 . S
C177 C178 1.476 . S
C177 H241 0.930 . S
C178 C177 1.476 . S
C178 C179 1.400 . S
C178 C182 1.567 . S
C179 C178 1.400 . S
C179 C180 1.373 . S
C179 C201 1.432 . S
C180 C179 1.373 . S
C180 C181 1.339 . S
C180 C183 1.530 . S
C181 C176 1.304 . S
C181 C180 1.339 . S
C181 H242 0.930 . S
C182 C178 1.567 . S
C182 H243 0.961 . S
C182 H244 0.960 . S
C182 H245 0.958 . S
C183 C180 1.530 . S
C183 H246 0.961 . S
C183 H247 0.960 . S
C183 H248 0.960 . S
C184 C185 1.530 . S
C184 H250 0.961 . S
C184 H251 0.961 . S
C184 H252 0.959 . S
C185 C184 1.530 . S
C185 O213 1.412 . S
C185 H249 0.980 . S
C186 C187 1.288 . S
C186 C191 1.377 . S
C186 O213 1.393 . S
C187 C186 1.288 . S
C187 C188 1.369 . S
C187 H253 0.932 1_545 S
C188 C187 1.369 . S
C188 C189 1.398 . S
C188 C192 1.527 1_545 S
C189 C188 1.398 . S
C189 C190 1.380 . S
C189 C203 1.497 . S
C190 C189 1.380 . S
C190 C191 1.383 . S
C190 C193 1.603 . S
C191 C186 1.377 . S
C191 C190 1.383 . S
C191 H254 0.929 . S
C192 C188 1.527 1_565 S
C192 H255 0.961 1_565 S
C192 H256 0.959 . S
C192 H257 0.959 . S
C193 C190 1.603 . S
C193 H258 0.960 . S
C193 H259 0.962 . S
C193 H260 0.961 . S
C194 C161 1.587 . S
C194 C195 1.360 . S
C194 C207 1.412 . S
C195 C194 1.360 . S
C195 C196 1.365 . S
C195 H261 0.929 . S
C196 C171 1.553 . S
C196 C195 1.365 . S
C196 C197 1.404 . S
C197 C196 1.404 . S
C197 C198 1.395 . S
C197 C208 1.451 . S
C198 C197 1.395 . S
C198 C199 1.322 . S
C198 H262 0.930 . S
C199 C198 1.322 . S
C199 C200 1.459 . S
C199 H263 0.929 . S
C200 C199 1.459 . S
C200 C201 1.445 . S
C200 C209 1.395 . S
C201 C179 1.432 . S
C201 C200 1.445 . S
C201 C202 1.370 . S
C202 C201 1.370 . S
C202 C203 1.438 . S
C202 H264 0.930 . S
C203 C189 1.497 . S
C203 C202 1.438 . S
C203 C204 1.360 . S
C204 C203 1.360 . S
C204 C205 1.401 . S
C204 C209 1.446 . S
C205 C204 1.401 . S
C205 C206 1.347 . S
C205 H265 0.929 . S
C206 C205 1.347 . S
C206 C207 1.455 . S
C206 H266 0.930 . S
C207 C194 1.412 . S
C207 C206 1.455 . S
C207 C208 1.331 . S
C208 C197 1.451 . S
C208 C207 1.331 . S
C208 C209 1.497 . S
C209 C200 1.395 . S
C209 C204 1.446 . S
C209 C208 1.497 . S
C210 C211 1.582 . S
C210 H267 0.962 . S
C210 H268 0.959 . S
C210 H269 0.958 . S
C211 C210 1.582 . S
C211 O214 1.458 . S
C211 H240 0.980 . S
O212 C157 1.426 . S
O212 C158 1.334 . S
O213 C185 1.412 . S
O213 C186 1.393 . S
O214 C176 1.435 . S
O214 C211 1.458 . S
O215 C167 1.468 . S
O215 C168 1.408 . S
H216 C157 0.980 . S
H217 C156 0.959 . S
H218 C156 0.959 . S
H219 C156 0.960 . S
H220 C159 0.929 . S
H221 C163 0.929 1_565 S
H222 C164 0.959 . S
H223 C164 0.961 . S
H224 C164 0.961 . S
H225 C165 0.960 1_565 S
H226 C165 0.960 . S
H227 C165 0.961 . S
H228 C167 0.980 . S
H229 C166 0.961 . S
H230 C166 0.960 . S
H231 C166 0.959 . S
H232 C169 0.930 . S
H233 C173 0.931 . S
H234 C174 0.959 . S
H235 C174 0.961 . S
H236 C174 0.959 . S
H237 C175 0.960 . S
H238 C175 0.960 . S
H239 C175 0.960 . S
H240 C211 0.980 . S
H241 C177 0.930 . S
H242 C181 0.930 . S
H243 C182 0.961 . S
H244 C182 0.960 . S
H245 C182 0.958 . S
H246 C183 0.961 . S
H247 C183 0.960 . S
H248 C183 0.960 . S
H249 C185 0.980 . S
H250 C184 0.961 . S
H251 C184 0.961 . S
H252 C184 0.959 . S
H253 C187 0.932 1_565 S
H254 C191 0.929 . S
H255 C192 0.961 1_545 S
H256 C192 0.959 . S
H257 C192 0.959 . S
H258 C193 0.960 . S
H259 C193 0.962 . S
H260 C193 0.961 . S
H261 C195 0.929 . S
H262 C198 0.930 . S
H263 C199 0.929 . S
H264 C202 0.930 . S
H265 C205 0.929 . S
H266 C206 0.930 . S
H267 C210 0.962 . S
H268 C210 0.959 . S
H269 C210 0.958 . S
C270 C271 1.560 . S
C270 H331 0.959 . S
C270 H332 0.959 . S
C270 H333 0.960 . S
C271 C270 1.560 . S
C271 O326 1.426 . S
C271 H330 0.980 . S
C272 C273 1.407 . S
C272 C277 1.418 . S
C272 O326 1.334 . S
C273 C272 1.407 . S
C273 C274 1.360 . S
C273 H334 0.929 . S
C274 C273 1.360 . S
C274 C275 1.401 . S
C274 C278 1.527 . S
C275 C274 1.401 . S
C275 C276 1.405 . S
C275 C308 1.587 . S
C276 C275 1.405 . S
C276 C277 1.332 . S
C276 C279 1.496 . S
C277 C272 1.418 . S
C277 C276 1.332 . S
C277 H335 0.929 . S
C278 C274 1.527 . S
C278 H336 0.959 . S
C278 H337 0.961 . S
C278 H338 0.961 . S
C279 C276 1.496 . S
C279 H339 0.960 . S
C279 H340 0.960 . S
C279 H341 0.961 . S
C280 C281 1.517 . S
C280 H343 0.961 . S
C280 H344 0.960 . S
C280 H345 0.959 . S
C281 C280 1.517 . S
C281 O329 1.468 . S
C281 H342 0.980 . S
C282 C283 1.349 . S
C282 C287 1.367 . S
C282 O329 1.408 . S
C283 C282 1.349 . S
C283 C284 1.407 . S
C283 H346 0.930 . S
C284 C283 1.407 . S
C284 C285 1.449 . S
C284 C288 1.535 . S
C285 C284 1.449 . S
C285 C286 1.384 . S
C285 C310 1.553 . S
C286 C285 1.384 . S
C286 C287 1.364 . S
C286 C289 1.450 . S
C287 C282 1.367 . S
C287 C286 1.364 . S
C287 H347 0.931 . S
C288 C284 1.535 . S
C288 H348 0.959 . S
C288 H349 0.961 . S
C288 H350 0.959 . S
C289 C286 1.450 . S
C289 H351 0.960 . S
C289 H352 0.960 . S
C289 H353 0.960 . S
C290 C291 1.309 . S
C290 C295 1.304 . S
C290 O328 1.435 . S
C291 C290 1.309 . S
C291 C292 1.476 . S
C291 H355 0.930 . S
C292 C291 1.476 . S
C292 C293 1.400 . S
C292 C296 1.567 . S
C293 C292 1.400 . S
C293 C294 1.373 . S
C293 C315 1.432 . S
C294 C293 1.373 . S
C294 C295 1.339 . S
C294 C297 1.530 . S
C295 C290 1.304 . S
C295 C294 1.339 . S
C295 H356 0.930 . S
C296 C292 1.567 . S
C296 H357 0.961 . S
C296 H358 0.960 . S
C296 H359 0.958 . S
C297 C294 1.530 . S
C297 H360 0.961 . S
C297 H361 0.960 . S
C297 H362 0.960 . S
C298 C299 1.530 . S
C298 H364 0.961 . S
C298 H365 0.961 . S
C298 H366 0.959 . S
C299 C298 1.530 . S
C299 O327 1.412 . S
C299 H363 0.980 . S
C300 C301 1.288 . S
C300 C305 1.377 . S
C300 O327 1.393 . S
C301 C300 1.288 . S
C301 C302 1.369 . S
C301 H367 0.932 . S
C302 C301 1.369 . S
C302 C303 1.398 . S
C302 C306 1.527 . S
C303 C302 1.398 . S
C303 C304 1.380 . S
C303 C317 1.497 . S
C304 C303 1.380 . S
C304 C305 1.383 . S
C304 C307 1.603 . S
C305 C300 1.377 . S
C305 C304 1.383 . S
C305 H368 0.929 . S
C306 C302 1.527 . S
C306 H369 0.961 . S
C306 H370 0.959 . S
C306 H371 0.959 . S
C307 C304 1.603 . S
C307 H372 0.960 . S
C307 H373 0.962 . S
C307 H374 0.961 . S
C308 C275 1.587 . S
C308 C309 1.360 . S
C308 C321 1.412 . S
C309 C308 1.360 . S
C309 C310 1.365 . S
C309 H375 0.929 . S
C310 C285 1.553 . S
C310 C309 1.365 . S
C310 C311 1.404 . S
C311 C310 1.404 . S
C311 C312 1.395 . S
C311 C322 1.451 . S
C312 C311 1.395 . S
C312 C313 1.322 . S
C312 H376 0.930 . S
C313 C312 1.322 . S
C313 C314 1.459 . S
C313 H377 0.929 . S
C314 C313 1.459 . S
C314 C315 1.445 . S
C314 C323 1.395 . S
C315 C293 1.432 . S
C315 C314 1.445 . S
C315 C316 1.370 . S
C316 C315 1.370 . S
C316 C317 1.438 . S
C316 H378 0.930 . S
C317 C303 1.497 . S
C317 C316 1.438 . S
C317 C318 1.360 . S
C318 C317 1.360 . S
C318 C319 1.401 . S
C318 C323 1.446 . S
C319 C318 1.401 . S
C319 C320 1.347 . S
C319 H379 0.929 . S
C320 C319 1.347 . S
C320 C321 1.455 . S
C320 H380 0.930 . S
C321 C308 1.412 . S
C321 C320 1.455 . S
C321 C322 1.331 . S
C322 C311 1.451 . S
C322 C321 1.331 . S
C322 C323 1.497 . S
C323 C314 1.395 . S
C323 C318 1.446 . S
C323 C322 1.497 . S
C324 C325 1.582 . S
C324 H381 0.962 . S
C324 H382 0.959 . S
C324 H383 0.958 . S
C325 C324 1.582 . S
C325 O328 1.458 . S
C325 H354 0.980 . S
O326 C271 1.426 . S
O326 C272 1.334 . S
O327 C299 1.412 . S
O327 C300 1.393 . S
O328 C290 1.435 . S
O328 C325 1.458 . S
O329 C281 1.468 . S
O329 C282 1.408 . S
H330 C271 0.980 . S
H331 C270 0.959 . S
H332 C270 0.959 . S
H333 C270 0.960 . S
H334 C273 0.929 . S
H335 C277 0.929 . S
H336 C278 0.959 . S
H337 C278 0.961 . S
H338 C278 0.961 . S
H339 C279 0.960 . S
H340 C279 0.960 . S
H341 C279 0.961 . S
H342 C281 0.980 . S
H343 C280 0.961 . S
H344 C280 0.960 . S
H345 C280 0.959 . S
H346 C283 0.930 . S
H347 C287 0.931 . S
H348 C288 0.959 . S
H349 C288 0.961 . S
H350 C288 0.959 . S
H351 C289 0.960 . S
H352 C289 0.960 . S
H353 C289 0.960 . S
H354 C325 0.980 . S
H355 C291 0.930 . S
H356 C295 0.930 . S
H357 C296 0.961 . S
H358 C296 0.960 . S
H359 C296 0.958 . S
H360 C297 0.961 . S
H361 C297 0.960 . S
H362 C297 0.960 . S
H363 C299 0.980 . S
H364 C298 0.961 . S
H365 C298 0.961 . S
H366 C298 0.959 . S
H367 C301 0.932 . S
H368 C305 0.929 . S
H369 C306 0.961 . S
H370 C306 0.959 . S
H371 C306 0.959 . S
H372 C307 0.960 . S
H373 C307 0.962 . S
H374 C307 0.961 . S
H375 C309 0.929 . S
H376 C312 0.930 . S
H377 C313 0.929 . S
H378 C316 0.930 . S
H379 C319 0.929 . S
H380 C320 0.930 . S
H381 C324 0.962 . S
H382 C324 0.959 . S
H383 C324 0.958 . S
H384 C392 0.950 1_655 S
H385 C397 0.950 . S
H386 C394 0.950 1_655 S
H387 C396 0.950 . S
H388 C398 0.950 . S
H389 C400 0.950 . S
H390 C402 0.950 1_655 S
H391 C403 0.950 1_655 S
C392 H384 0.950 1_455 S
C392 C393 1.386 . S
C392 C394 1.391 . S
C393 C392 1.386 . S
C393 C397 1.393 . S
C394 H386 0.950 1_455 S
C394 C392 1.391 . S
C394 C395 1.400 . S
C395 C394 1.400 . S
C395 C396 1.398 . S
C395 C401 1.491 . S
C396 H387 0.950 . S
C396 C395 1.398 . S
C396 C397 1.391 . S
C397 H385 0.950 . S
C397 C393 1.393 . S
C397 C396 1.391 . S
C398 H388 0.950 . S
C398 C399 1.386 . S
C398 C400 1.391 . S
C399 C398 1.386 . S
C399 C403 1.393 . S
C400 H389 0.950 . S
C400 C398 1.391 . S
C400 C401 1.400 . S
C401 C395 1.491 . S
C401 C400 1.400 . S
C401 C402 1.398 . S
C402 H390 0.950 1_455 S
C402 C401 1.398 . S
C402 C403 1.391 . S
C403 H391 0.950 1_455 S
C403 C399 1.393 . S
C403 C402 1.391 . S
H404 C412 0.950 . S
H405 C417 0.950 . S
H406 C414 0.950 1_565 S
H407 C416 0.950 . S
H408 C418 0.950 . S
H409 C420 0.950 . S
H410 C422 0.950 1_565 S
H411 C423 0.959 . S
C412 H404 0.950 . S
C412 C413 1.386 1_565 S
C412 C414 1.391 1_565 S
C413 C412 1.386 1_545 S
C413 C417 1.393 . S
C414 H406 0.950 1_545 S
C414 C412 1.391 1_545 S
C414 C415 1.400 . S
C415 C414 1.400 . S
C415 C416 1.398 . S
C415 C421 1.491 . S
C416 H407 0.950 . S
C416 C415 1.398 . S
C416 C417 1.391 . S
C417 H405 0.950 . S
C417 C413 1.393 . S
C417 C416 1.391 . S
C418 H408 0.950 . S
C418 C419 1.386 . S
C418 C420 1.391 . S
C419 C418 1.386 . S
C419 C423 1.393 . S
C420 H409 0.950 . S
C420 C418 1.391 . S
C420 C421 1.400 . S
C421 C415 1.491 . S
C421 C420 1.400 . S
C421 C422 1.398 . S
C422 H410 0.950 1_545 S
C422 C421 1.398 . S
C422 C423 1.391 . S
C423 H411 0.959 . S
C423 C419 1.393 . S
C423 C422 1.391 . S
H424 C432 0.950 . S
H425 C437 0.950 . S
H426 C434 0.950 . S
H427 C436 0.950 . S
H428 C438 0.950 . S
H429 C440 0.950 . S
H430 C442 0.950 . S
H431 C443 0.950 . S
C432 H424 0.950 . S
C432 C433 1.386 . S
C432 C434 1.391 . S
C433 C432 1.386 . S
C433 C437 1.393 . S
C434 H426 0.950 . S
C434 C432 1.391 . S
C434 C435 1.400 . S
C435 C434 1.400 . S
C435 C436 1.398 . S
C435 C441 1.491 . S
C436 H427 0.950 . S
C436 C435 1.398 . S
C436 C437 1.391 . S
C437 H425 0.950 . S
C437 C433 1.393 . S
C437 C436 1.391 . S
C438 H428 0.950 . S
C438 C439 1.386 . S
C438 C440 1.391 . S
C439 C438 1.386 . S
C439 C443 1.393 . S
C440 H429 0.950 . S
C440 C438 1.391 . S
C440 C441 1.400 . S
C441 C435 1.491 . S
C441 C440 1.400 . S
C441 C442 1.398 . S
C442 H430 0.950 . S
C442 C441 1.398 . S
C442 C443 1.391 . S
C443 H431 0.950 . S
C443 C439 1.393 . S
C443 C442 1.391 . S
H444 C452 0.950 . S
H445 C457 0.950 . S
H446 C454 0.950 . S
H447 C456 0.950 . S
H448 C458 0.950 . S
H449 C460 0.950 . S
H450 C462 0.950 . S
H451 C463 0.950 . S
C452 H444 0.950 . S
C452 C453 1.386 . S
C452 C454 1.391 . S
C453 C452 1.386 . S
C453 C457 1.393 . S
C454 H446 0.950 . S
C454 C452 1.391 . S
C454 C455 1.400 . S
C455 C454 1.400 . S
C455 C456 1.398 . S
C455 C461 1.491 . S
C456 H447 0.950 . S
C456 C455 1.398 . S
C456 C457 1.391 . S
C457 H445 0.950 . S
C457 C453 1.393 . S
C457 C456 1.391 . S
C458 H448 0.950 . S
C458 C459 1.386 . S
C458 C460 1.391 . S
C459 C458 1.386 . S
C459 C463 1.393 . S
C460 H449 0.950 . S
C460 C458 1.391 . S
C460 C461 1.400 . S
C461 C455 1.491 . S
C461 C460 1.400 . S
C461 C462 1.398 . S
C462 H450 0.950 . S
C462 C461 1.398 . S
C462 C463 1.391 . S
C463 H451 0.950 . S
C463 C459 1.393 . S
C463 C462 1.391 . S
H464 C472 0.950 . S
H465 C477 0.950 . S
H466 C474 0.950 . S
H467 C476 0.950 . S
H468 C478 0.950 . S
H469 C480 0.950 . S
H470 C482 0.950 . S
H471 C483 0.950 . S
C472 H464 0.950 . S
C472 C473 1.386 . S
C472 C474 1.391 . S
C473 C472 1.386 . S
C473 C477 1.393 . S
C474 H466 0.950 . S
C474 C472 1.391 . S
C474 C475 1.400 . S
C475 C474 1.400 . S
C475 C476 1.398 . S
C475 C481 1.491 . S
C476 H467 0.950 . S
C476 C475 1.398 . S
C476 C477 1.391 . S
C477 H465 0.950 . S
C477 C473 1.393 . S
C477 C476 1.391 . S
C478 H468 0.950 . S
C478 C479 1.386 . S
C478 C480 1.391 . S
C479 C478 1.386 . S
C479 C483 1.393 . S
C480 H469 0.950 . S
C480 C478 1.391 . S
C480 C481 1.400 . S
C481 C475 1.491 . S
C481 C480 1.400 . S
C481 C482 1.398 . S
C482 H470 0.950 . S
C482 C481 1.398 . S
C482 C483 1.391 . S
C483 H471 0.950 . S
C483 C479 1.393 . S
C483 C482 1.391 . S
H484 C492 0.950 . S
H485 C497 0.950 . S
H486 C494 0.950 . S
H487 C496 0.950 . S
H488 C498 0.950 . S
H489 C500 0.950 . S
H490 C502 0.950 . S
H491 C503 0.950 . S
C492 H484 0.950 . S
C492 C493 1.386 . S
C492 C494 1.391 . S
C493 C492 1.386 . S
C493 C497 1.393 . S
C494 H486 0.950 . S
C494 C492 1.391 . S
C494 C495 1.400 . S
C495 C494 1.400 . S
C495 C496 1.398 . S
C495 C501 1.491 . S
C496 H487 0.950 . S
C496 C495 1.398 . S
C496 C497 1.391 . S
C497 H485 0.950 . S
C497 C493 1.393 . S
C497 C496 1.391 . S
C498 H488 0.950 . S
C498 C499 1.386 . S
C498 C500 1.391 . S
C499 C498 1.386 . S
C499 C503 1.393 . S
C500 H489 0.950 . S
C500 C498 1.391 . S
C500 C501 1.400 . S
C501 C495 1.491 . S
C501 C500 1.400 . S
C501 C502 1.398 . S
C502 H490 0.950 . S
C502 C501 1.398 . S
C502 C503 1.391 . S
C503 H491 0.950 . S
C503 C499 1.393 . S
C503 C502 1.391 . S
H504 C512 0.950 . S
H505 C517 0.950 . S
H506 C514 0.950 . S
H507 C516 0.950 . S
H508 C518 0.950 . S
H509 C520 0.950 . S
H510 C522 0.950 . S
H511 C523 0.950 . S
C512 H504 0.950 . S
C512 C513 1.386 . S
C512 C514 1.391 . S
C513 C512 1.386 . S
C513 C517 1.393 . S
C514 H506 0.950 . S
C514 C512 1.391 . S
C514 C515 1.400 . S
C515 C514 1.400 . S
C515 C516 1.398 . S
C515 C521 1.491 . S
C516 H507 0.950 . S
C516 C515 1.398 . S
C516 C517 1.391 . S
C517 H505 0.950 . S
C517 C513 1.393 . S
C517 C516 1.391 . S
C518 H508 0.950 . S
C518 C519 1.386 . S
C518 C520 1.391 . S
C519 C518 1.386 . S
C519 C523 1.393 . S
C520 H509 0.950 . S
C520 C518 1.391 . S
C520 C521 1.400 . S
C521 C515 1.491 . S
C521 C520 1.400 . S
C521 C522 1.398 . S
C522 H510 0.950 . S
C522 C521 1.398 . S
C522 C523 1.391 . S
C523 H511 0.950 . S
C523 C519 1.393 . S
C523 C522 1.391 . S
H524 C532 0.950 1_545 S
H525 C537 0.950 1_455 S
H526 C534 0.950 . S
H527 C536 0.970 . S
H528 C538 0.950 . S
H529 C540 0.950 . S
H530 C542 0.950 . S
H531 C543 0.950 . S
C532 H524 0.950 1_565 S
C532 C533 1.386 . S
C532 C534 1.391 1_554 S
C533 C532 1.386 . S
C533 C537 1.393 . S
C534 H526 0.950 . S
C534 C532 1.391 1_556 S
C534 C535 1.400 . S
C535 C534 1.400 . S
C535 C536 1.418 . S
C535 C541 1.491 . S
C536 H527 0.970 . S
C536 C535 1.418 . S
C536 C537 1.355 1_556 S
C537 H525 0.950 1_655 S
C537 C533 1.393 . S
C537 C536 1.355 1_554 S
C538 H528 0.950 . S
C538 C539 1.386 . S
C538 C540 1.391 . S
C539 C538 1.386 . S
C539 C543 1.393 . S
C540 H529 0.950 . S
C540 C538 1.391 . S
C540 C541 1.400 . S
C541 C535 1.491 . S
C541 C540 1.400 . S
C541 C542 1.398 . S
C542 H530 0.950 . S
C542 C541 1.398 . S
C542 C543 1.391 . S
C543 H531 0.950 . S
C543 C539 1.393 . S
C543 C542 1.391 . S
H544 C552 0.950 . S
H545 C557 0.950 . S
H546 C554 0.950 . S
H547 C556 0.950 . S
H548 C558 0.950 . S
H549 C560 0.950 . S
H550 C562 0.950 . S
H551 C563 0.950 1_655 S
C552 H544 0.950 . S
C552 C553 1.386 . S
C552 C554 1.391 . S
C553 C552 1.386 . S
C553 C557 1.393 1_655 S
C554 H546 0.950 . S
C554 C552 1.391 . S
C554 C555 1.400 1_655 S
C555 C554 1.400 1_455 S
C555 C556 1.398 . S
C555 C561 1.491 . S
C556 H547 0.950 . S
C556 C555 1.398 . S
C556 C557 1.391 . S
C557 H545 0.950 . S
C557 C553 1.393 1_455 S
C557 C556 1.391 . S
C558 H548 0.950 . S
C558 C559 1.386 . S
C558 C560 1.391 . S
C559 C558 1.386 . S
C559 C563 1.393 . S
C560 H549 0.950 . S
C560 C558 1.391 . S
C560 C561 1.400 . S
C561 C555 1.491 . S
C561 C560 1.400 . S
C561 C562 1.398 1_455 S
C562 H550 0.950 . S
C562 C561 1.398 1_655 S
C562 C563 1.391 1_655 S
C563 H551 0.950 1_455 S
C563 C559 1.393 . S
C563 C562 1.391 1_455 S
H564 C572 0.950 . S
H565 C577 0.954 . S
H566 C574 0.950 . S
H567 C576 0.950 1_565 S
H568 C578 0.950 . S
H569 C580 0.950 1_565 S
H570 C582 0.950 . S
H571 C583 0.950 . S
C572 H564 0.950 . S
C572 C573 1.386 . S
C572 C574 1.391 . S
C573 C572 1.386 . S
C573 C577 1.387 1_545 S
C574 H566 0.950 . S
C574 C572 1.391 . S
C574 C575 1.400 . S
C575 C574 1.400 . S
C575 C576 1.398 . S
C575 C581 1.491 . S
C576 H567 0.950 1_545 S
C576 C575 1.398 . S
C576 C577 1.392 1_545 S
C577 H565 0.954 . S
C577 C573 1.387 1_565 S
C577 C576 1.392 1_565 S
C578 H568 0.950 . S
C578 C579 1.386 . S
C578 C580 1.391 . S
C579 C578 1.386 . S
C579 C583 1.393 . S
C580 H569 0.950 1_545 S
C580 C578 1.391 . S
C580 C581 1.400 . S
C581 C575 1.491 . S
C581 C580 1.400 . S
C581 C582 1.398 . S
C582 H570 0.950 . S
C582 C581 1.398 . S
C582 C583 1.391 . S
C583 H571 0.950 . S
C583 C579 1.393 . S
C583 C582 1.391 . S
H584 C592 0.950 . S
H585 C597 0.950 . S
H586 C594 0.950 . S
H587 C596 0.950 . S
H588 C598 0.950 . S
H589 C600 0.950 . S
H590 C602 0.950 . S
H591 C603 0.950 . S
C592 H584 0.950 . S
C592 C593 1.386 . S
C592 C594 1.391 . S
C593 C592 1.386 . S
C593 C597 1.393 1_554 S
C594 H586 0.950 . S
C594 C592 1.391 . S
C594 C595 1.400 1_554 S
C595 C594 1.400 1_556 S
C595 C596 1.398 . S
C595 C601 1.491 . S
C596 H587 0.950 . S
C596 C595 1.398 . S
C596 C597 1.391 . S
C597 H585 0.950 . S
C597 C593 1.393 1_556 S
C597 C596 1.391 . S
C598 H588 0.950 . S
C598 C599 1.386 . S
C598 C600 1.391 . S
C599 C598 1.386 . S
C599 C603 1.393 . S
C600 H589 0.950 . S
C600 C598 1.391 . S
C600 C601 1.400 . S
C601 C595 1.491 . S
C601 C600 1.400 . S
C601 C602 1.398 . S
C602 H590 0.950 . S
C602 C601 1.398 . S
C602 C603 1.391 . S
C603 H591 0.950 . S
C603 C599 1.393 . S
C603 C602 1.391 . S
H604 C612 0.950 . S
H605 C617 0.950 1_655 S
H606 C614 0.950 . S
H607 C616 0.950 1_655 S
H608 C618 0.950 1_655 S
H609 C620 0.950 1_655 S
H610 C622 0.950 . S
H611 C623 0.950 . S
C612 H604 0.950 . S
C612 C613 1.386 . S
C612 C614 1.391 . S
C613 C612 1.386 . S
C613 C617 1.393 . S
C614 H606 0.950 . S
C614 C612 1.391 . S
C614 C615 1.400 . S
C615 C614 1.400 . S
C615 C616 1.398 . S
C615 C621 1.491 . S
C616 H607 0.950 1_455 S
C616 C615 1.398 . S
C616 C617 1.391 . S
C617 H605 0.950 1_455 S
C617 C613 1.393 . S
C617 C616 1.391 . S
C618 H608 0.950 1_455 S
C618 C619 1.386 . S
C618 C620 1.391 . S
C619 C618 1.386 . S
C619 C623 1.393 . S
C620 H609 0.950 1_455 S
C620 C618 1.391 . S
C620 C621 1.400 . S
C621 C615 1.491 . S
C621 C620 1.400 . S
C621 C622 1.398 . S
C622 H610 0.950 . S
C622 C621 1.398 . S
C622 C623 1.391 . S
C623 H611 0.950 . S
C623 C619 1.393 . S
C623 C622 1.391 . S
C399 C97 1.116 . S
C393 C11 1.449 . S
C413 C26 1.581 . S
C419 C211 1.250 . S
C433 C40 1.228 . S
C439 C271 0.997 . S
C453 C5 1.172 1_565 S
C459 C71 1.053 . S
C479 C185 1.153 . S
C473 C18 1.456 . S
C493 C32 1.365 . S
C499 C281 0.889 . S
C519 C167 0.809 . S
C513 C39 1.237 . S
C533 C4 1.313 1_665 S
C539 C299 1.096 . S
C559 C43 0.933 . S
C553 C19 1.088 . S
C579 C157 0.925 . S
C573 C33 1.034 . S
C599 C325 1.114 . S
C593 C12 1.470 . S
C613 C25 1.366 . S
C619 C53 0.781 . S
