# Generated by pormake.
# Topology pto, (3,4)-cn, num edge types: 1
# Building blocks:
#     Node 0, Type 0, BuildingBlock: CUQRIR_clean_linker_1, # of connection points: 3
#     Node 1, Type 0, BuildingBlock: CUQRIR_clean_linker_1, # of connection points: 3
#     Node 2, Type 0, BuildingBlock: CUQRIR_clean_linker_1, # of connection points: 3
#     Node 3, Type 0, BuildingBlock: CUQRIR_clean_linker_1, # of connection points: 3
#     Node 4, Type 0, BuildingBlock: CUQRIR_clean_linker_1, # of connection points: 3
#     Node 5, Type 0, BuildingBlock: CUQRIR_clean_linker_1, # of connection points: 3
#     Node 6, Type 0, BuildingBlock: CUQRIR_clean_linker_1, # of connection points: 3
#     Node 7, Type 0, BuildingBlock: CUQRIR_clean_linker_1, # of connection points: 3
#     Node 8, Type 1, BuildingBlock: NAWXER_clean_sbu_0, # of connection points: 4
#     Node 9, Type 1, BuildingBlock: NAWXER_clean_sbu_0, # of connection points: 4
#     Node 10, Type 1, BuildingBlock: NAWXER_clean_sbu_0, # of connection points: 4
#     Node 11, Type 1, BuildingBlock: NAWXER_clean_sbu_0, # of connection points: 4
#     Node 12, Type 1, BuildingBlock: NAWXER_clean_sbu_0, # of connection points: 4
#     Node 13, Type 1, BuildingBlock: NAWXER_clean_sbu_0, # of connection points: 4
#     Edge 14, Type (0, 1), BuildingBlock: AJUNOK_clean_linker_0, # of connection points: 2
#     Edge 15, Type (0, 1), BuildingBlock: AJUNOK_clean_linker_0, # of connection points: 2
#     Edge 16, Type (0, 1), BuildingBlock: AJUNOK_clean_linker_0, # of connection points: 2
#     Edge 17, Type (0, 1), BuildingBlock: AJUNOK_clean_linker_0, # of connection points: 2
#     Edge 18, Type (0, 1), BuildingBlock: AJUNOK_clean_linker_0, # of connection points: 2
#     Edge 19, Type (0, 1), BuildingBlock: AJUNOK_clean_linker_0, # of connection points: 2
#     Edge 20, Type (0, 1), BuildingBlock: AJUNOK_clean_linker_0, # of connection points: 2
#     Edge 21, Type (0, 1), BuildingBlock: AJUNOK_clean_linker_0, # of connection points: 2
#     Edge 22, Type (0, 1), BuildingBlock: AJUNOK_clean_linker_0, # of connection points: 2
#     Edge 23, Type (0, 1), BuildingBlock: AJUNOK_clean_linker_0, # of connection points: 2
#     Edge 24, Type (0, 1), BuildingBlock: AJUNOK_clean_linker_0, # of connection points: 2
#     Edge 25, Type (0, 1), BuildingBlock: AJUNOK_clean_linker_0, # of connection points: 2
#     Edge 26, Type (0, 1), BuildingBlock: AJUNOK_clean_linker_0, # of connection points: 2
#     Edge 27, Type (0, 1), BuildingBlock: AJUNOK_clean_linker_0, # of connection points: 2
#     Edge 28, Type (0, 1), BuildingBlock: AJUNOK_clean_linker_0, # of connection points: 2
#     Edge 29, Type (0, 1), BuildingBlock: AJUNOK_clean_linker_0, # of connection points: 2
#     Edge 30, Type (0, 1), BuildingBlock: AJUNOK_clean_linker_0, # of connection points: 2
#     Edge 31, Type (0, 1), BuildingBlock: AJUNOK_clean_linker_0, # of connection points: 2
#     Edge 32, Type (0, 1), BuildingBlock: AJUNOK_clean_linker_0, # of connection points: 2
#     Edge 33, Type (0, 1), BuildingBlock: AJUNOK_clean_linker_0, # of connection points: 2
#     Edge 34, Type (0, 1), BuildingBlock: AJUNOK_clean_linker_0, # of connection points: 2
#     Edge 35, Type (0, 1), BuildingBlock: AJUNOK_clean_linker_0, # of connection points: 2
#     Edge 36, Type (0, 1), BuildingBlock: AJUNOK_clean_linker_0, # of connection points: 2
#     Edge 37, Type (0, 1), BuildingBlock: AJUNOK_clean_linker_0, # of connection points: 2
# Relax obj value: 0.022
# Max RMSD: 0.153
# Mean RMSD: 0.073
data_MOF--net-pto--node1-NAWXER_clean_sbu_0--node2-CUQRIR_clean_linker_1--edge1-AJUNOK_clean_linker_0
_symmetry_space_group_name_H-M    P1
_symmetry_Int_Tables_number       1
_symmetry_cell_setting            triclinic
loop_
_symmetry_equiv_pos_as_xyz
'x, y, z'
_cell_length_a     27.340858
_cell_length_b     25.320478
_cell_length_c     24.011389
_cell_angle_alpha  78.334201
_cell_angle_beta   95.228102
_cell_angle_gamma 95.464195
loop_
_atom_site_label
_atom_site_type_symbol
_atom_site_fract_x
_atom_site_fract_y
_atom_site_fract_z
_atom_type_partial_charge
C0 C 0.34275 0.35249 0.3377 0.0
N1 N 0.37529 0.32575 0.31677 0.0
N2 N 0.3209 0.38839 0.29543 0.0
C3 C 0.32802 0.3386 0.39819 0.0
C4 C 0.3411 0.38198 0.24778 0.0
N5 N 0.37412 0.3438 0.26068 0.0
C6 C 0.32878 0.41335 0.18885 0.0
H7 H 0.32223 0.29405 0.4121 0.0
H8 H 0.29398 0.35714 0.40329 0.0
H9 H 0.35837 0.35323 0.42657 0.0
H10 H 0.3145 0.45251 0.19069 0.0
H11 H 0.29997 0.3895 0.16673 0.0
H12 H 0.36175 0.4207 0.16378 0.0
C13 C 0.29817 0.73671 0.69935 0.0
N14 N 0.33819 0.75926 0.72593 0.0
N15 N 0.28255 0.68852 0.73081 0.0
C16 C 0.27135 0.76414 0.64537 0.0
C17 C 0.31452 0.68301 0.77811 0.0
N18 N 0.34839 0.72611 0.77503 0.0
C19 C 0.30978 0.63837 0.82948 0.0
H20 H 0.24227 0.78705 0.65659 0.0
H21 H 0.25339 0.73386 0.62094 0.0
H22 H 0.29689 0.79286 0.61836 0.0
H23 H 0.3462 0.62251 0.84398 0.0
H24 H 0.28306 0.60488 0.82021 0.0
H25 H 0.29725 0.65492 0.86469 0.0
C26 C 0.87416 0.80427 0.29977 0.0
N27 N 0.86135 0.77322 0.25999 0.0
N28 N 0.83532 0.8297 0.30941 0.0
C29 C 0.92522 0.81069 0.32801 0.0
C30 C 0.79831 0.81333 0.27428 0.0
N31 N 0.81377 0.77917 0.24405 0.0
C32 C 0.74651 0.83049 0.26971 0.0
H33 H 0.93016 0.77674 0.36479 0.0
H34 H 0.93139 0.84935 0.34357 0.0
H35 H 0.95322 0.80925 0.29777 0.0
H36 H 0.74325 0.86687 0.23538 0.0
H37 H 0.73742 0.84061 0.31022 0.0
H38 H 0.71922 0.7982 0.25881 0.0
C39 C 0.73535 0.19418 0.77941 0.0
N40 N 0.77166 0.22257 0.74863 0.0
N41 N 0.72899 0.21646 0.82453 0.0
C42 C 0.70973 0.14138 0.76865 0.0
C43 C 0.76324 0.25931 0.82039 0.0
N44 N 0.78968 0.26286 0.77434 0.0
C45 C 0.7696 0.29865 0.86022 0.0
H46 H 0.68101 0.14983 0.733 0.0
H47 H 0.69214 0.11805 0.80688 0.0
H48 H 0.73628 0.11625 0.75595 0.0
H49 H 0.73358 0.30403 0.87537 0.0
H50 H 0.78641 0.33845 0.83913 0.0
H51 H 0.79413 0.28235 0.89793 0.0
C52 C 0.81705 0.69055 0.85911 0.0
N53 N 0.84733 0.72136 0.82159 0.0
N54 N 0.77591 0.71544 0.86089 0.0
C55 C 0.82511 0.63328 0.88906 0.0
C56 C 0.78189 0.76243 0.82231 0.0
N57 N 0.82534 0.76601 0.79776 0.0
C58 C 0.74587 0.80532 0.81005 0.0
H59 H 0.84021 0.6109 0.8601 0.0
H60 H 0.79055 0.61082 0.90443 0.0
H61 H 0.85237 0.63427 0.92608 0.0
H62 H 0.7645 0.84571 0.79397 0.0
H63 H 0.72739 0.80638 0.84905 0.0
H64 H 0.71715 0.79558 0.77715 0.0
C65 C 0.82539 0.25875 0.25225 0.0
N66 N 0.87338 0.26938 0.26911 0.0
N67 N 0.81291 0.29158 0.20207 0.0
C68 C 0.79029 0.21842 0.28665 0.0
C69 C 0.8552 0.32144 0.18817 0.0
N70 N 0.89213 0.30826 0.22885 0.0
C71 C 0.85986 0.36607 0.13636 0.0
H72 H 0.80795 0.18007 0.30322 0.0
H73 H 0.75539 0.21007 0.26154 0.0
H74 H 0.78154 0.23466 0.32386 0.0
H75 H 0.82681 0.36623 0.10597 0.0
H76 H 0.89227 0.36125 0.11378 0.0
H77 H 0.86578 0.40567 0.15003 0.0
C78 C 0.28866 0.30564 0.80803 0.0
N79 N 0.3174 0.27792 0.78321 0.0
N80 N 0.24226 0.30394 0.78392 0.0
C81 C 0.30495 0.33039 0.85953 0.0
C82 C 0.24325 0.27301 0.74419 0.0
N83 N 0.28903 0.2561 0.74422 0.0
C84 C 0.20043 0.26307 0.70263 0.0
H85 H 0.32953 0.30387 0.88983 0.0
H86 H 0.27307 0.33697 0.88207 0.0
H87 H 0.32603 0.36984 0.84579 0.0
H88 H 0.2133 0.25686 0.66208 0.0
H89 H 0.17681 0.29755 0.69349 0.0
H90 H 0.1777 0.22632 0.72166 0.0
C91 C 0.29452 0.82888 0.26931 0.0
N92 N 0.30844 0.79758 0.23474 0.0
N93 N 0.33441 0.85367 0.29413 0.0
C94 C 0.24243 0.82907 0.2851 0.0
C95 C 0.37316 0.83472 0.27471 0.0
N96 N 0.35738 0.79995 0.23941 0.0
C97 C 0.42634 0.85194 0.28816 0.0
H98 H 0.22284 0.85917 0.25288 0.0
H99 H 0.24167 0.83982 0.32755 0.0
H100 H 0.22218 0.78886 0.28574 0.0
H101 H 0.44087 0.82343 0.32607 0.0
H102 H 0.4303 0.89324 0.29782 0.0
H103 H 0.44866 0.85098 0.25208 0.0
C104 C 0.0298 0.4931 0.21392 0.0
C105 C 0.1507 0.65086 0.18706 0.0
O106 O 0.0441 0.51219 0.25848 0.0
Zn107 Zn 0.08935 0.57579 0.28451 0.0
O108 O 0.04399 0.51749 0.16551 0.0
Zn109 Zn 0.08437 0.57691 0.19281 0.0
O110 O 0.13833 0.52894 0.2428 0.0
O111 O 0.13975 0.53295 0.33405 0.0
O112 O 0.12842 0.63108 0.14604 0.0
O113 O 0.13784 0.63398 0.23783 0.0
O114 O 0.04016 0.61662 0.30935 0.0
O115 O 0.03017 0.62255 0.21631 0.0
C116 C 0.15634 0.51482 0.29409 0.0
C117 C 1.01644 0.63383 0.2619 0.0
C118 C 0.9509 0.42794 0.73415 0.0
C119 C 0.09531 0.56522 0.71444 0.0
O120 O 0.97107 0.4411 0.78008 0.0
Zn121 Zn 0.02798 0.49359 0.80885 0.0
O122 O 0.96583 0.45312 0.68639 0.0
Zn123 Zn 1.02042 0.50064 0.71614 0.0
O124 O 0.06757 0.44285 0.76202 0.0
O125 O 0.07133 0.44235 0.85473 0.0
O126 O 0.07168 0.54886 0.67184 0.0
O127 O 0.08123 0.54706 0.7644 0.0
O128 O 0.99564 0.54405 0.84048 0.0
O129 O 0.98399 0.55855 0.74658 0.0
C130 C 0.08429 0.42427 0.81295 0.0
C131 C 0.9779 0.57181 0.79405 0.0
C132 C 0.39471 0.97305 0.61849 0.0
C133 C 0.41395 0.13167 0.46634 0.0
O134 O 0.35472 0.99049 0.5927 0.0
Zn135 Zn 0.32902 0.05187 0.52766 0.0
O136 O 0.43603 0.99745 0.60453 0.0
Zn137 Zn 0.40855 0.0538 0.54456 0.0
O138 O 0.37252 0.1012 0.5914 0.0
O139 O 0.29243 0.09167 0.56927 0.0
O140 O 0.44978 0.11039 0.49781 0.0
O141 O 0.36963 0.11312 0.475 0.0
O142 O 0.29752 1.01116 0.47125 0.0
O143 O 0.3781 1.00561 0.48318 0.0
C144 C 0.32865 0.11221 0.59716 0.0
C145 C 0.33614 0.9929 0.45882 0.0
C146 C 0.64545 0.76632 0.09072 0.0
C147 C 0.50294 0.76051 0.94704 0.0
O148 O 0.61867 0.72172 0.09569 0.0
Zn149 Zn 0.5546 0.68655 0.05771 0.0
O150 O 0.63057 0.80757 0.05553 0.0
Zn151 Zn 0.5701 0.77299 0.02086 0.0
O152 O 0.51759 0.75873 0.08197 0.0
O153 O 0.50717 0.67155 0.11818 0.0
O154 O 0.52907 0.80404 0.95235 0.0
O155 O 0.50969 0.71673 0.98318 0.0
O156 O 0.58877 0.63357 0.02786 0.0
O157 O 0.60541 0.71896 0.98619 0.0
C158 C 0.496 0.71977 0.11576 0.0
C159 C 0.61111 0.6689 0.99084 0.0
C160 C 0.8758 0.95214 0.6221 0.0
C161 C 0.90905 0.11402 0.46734 0.0
O162 O 0.83835 0.97267 0.59266 0.0
Zn163 Zn 0.81988 0.03757 0.52484 0.0
O164 O 0.91864 0.97542 0.61278 0.0
Zn165 Zn 0.89861 0.0341 0.5476 0.0
O166 O 0.86267 0.08487 0.58895 0.0
O167 O 0.78359 0.08185 0.56012 0.0
O168 O 0.94293 0.08866 0.49881 0.0
O169 O 0.86404 0.09784 0.47453 0.0
O170 O 0.78877 0.99876 0.46771 0.0
O171 O 0.86808 0.98632 0.48789 0.0
C172 C 0.81955 0.10031 0.59004 0.0
C173 C 0.82685 0.97619 0.46089 0.0
C174 C 0.62421 0.30252 0.07486 0.0
C175 C 0.48608 0.28354 0.9321 0.0
O176 O 0.598 0.25749 0.08268 0.0
Zn177 Zn 0.53431 0.21812 0.04892 0.0
O178 O 0.61063 0.34176 0.03596 0.0
Zn179 Zn 0.55164 0.3025 1.00615 0.0
O180 O 0.50362 0.29509 0.07168 0.0
O181 O 0.48856 0.20867 0.10955 0.0
O182 O 0.51195 0.32776 0.93487 0.0
O183 O 0.49091 0.24287 0.97285 0.0
O184 O 0.56671 0.16019 0.02559 0.0
O185 O 0.58686 0.24312 0.97864 0.0
C186 C 0.48219 0.25816 0.10785 0.0
C187 C 0.5908 0.19228 0.9876 0.0
C188 C 0.28259 0.45985 0.32975 0.0
C189 C 0.27878 0.41761 0.29895 0.0
C190 C 0.24175 0.48935 0.33202 0.0
C191 C 0.19598 0.4772 0.30363 0.0
H192 H 0.31767 0.47087 0.35085 0.0
H193 H 0.24666 0.52337 0.35356 0.0
S194 S 0.16591 0.36595 0.22346 0.0
N195 N 0.22488 0.36193 0.24456 0.0
N196 N 0.14859 0.41723 0.24784 0.0
C197 C 0.19151 0.43337 0.27508 0.0
C198 C 0.23277 0.40359 0.27296 0.0
C199 C 0.22563 0.62519 0.68426 0.0
C200 C 0.23486 0.66003 0.72358 0.0
C201 C 0.17895 0.59706 0.67766 0.0
C202 C 0.14027 0.60329 0.71015 0.0
H203 H 0.25502 0.61882 0.65961 0.0
H204 H 0.17393 0.56838 0.64933 0.0
S205 S 0.14502 0.69492 0.81378 0.0
N206 N 0.20108 0.70267 0.79138 0.0
N207 N 0.11378 0.65061 0.77953 0.0
C208 C 0.1489 0.6402 0.74746 0.0
C209 C 0.19607 0.66835 0.75409 0.0
C210 C 0.922 0.739 0.2082 0.0
C211 C 0.89033 0.73047 0.25267 0.0
C212 C 0.96175 0.70652 0.2106 0.0
C213 C 0.97236 0.66554 0.25856 0.0
H214 H 0.91766 0.77288 0.173 0.0
H215 H 0.98581 0.71536 0.17591 0.0
S216 S 0.898 0.62489 0.38419 0.0
N217 N 0.87002 0.67568 0.34375 0.0
N218 N 0.9451 0.61611 0.34944 0.0
C219 C 0.93965 0.65543 0.3021 0.0
C220 C 0.8986 0.68741 0.29877 0.0
C221 C 0.83192 0.3396 0.70952 0.0
C222 C 0.8325 0.29958 0.75972 0.0
C223 C 0.87129 0.38007 0.69941 0.0
C224 C 0.91226 0.38167 0.73942 0.0
H225 H 0.79999 0.34082 0.67923 0.0
H226 H 0.86861 0.41149 0.66151 0.0
S227 S 0.93397 0.28049 0.87305 0.0
N228 N 0.87918 0.26059 0.84623 0.0
N229 N 0.95288 0.33529 0.8279 0.0
C230 C 0.91409 0.33964 0.78798 0.0
C231 C 0.87431 0.29899 0.79799 0.0
C232 C 0.4282 0.27724 0.3958 0.0
C233 C 0.39605 0.27687 0.34664 0.0
C234 C 0.44018 0.22863 0.43219 0.0
C235 C 0.42032 0.17867 0.4199 0.0
H236 H 0.44131 0.31533 0.40794 0.0
H237 H 0.46101 0.23032 0.47248 0.0
S238 S 0.33835 0.15621 0.29388 0.0
N239 N 0.34712 0.22261 0.28625 0.0
N240 N 0.37151 0.13152 0.35269 0.0
C241 C 0.39194 0.178 0.36823 0.0
C242 C 0.37912 0.22713 0.33207 0.0
C243 C 0.42772 0.70523 0.82838 0.0
C244 C 0.38707 0.73657 0.81741 0.0
C245 C 0.46613 0.7151 0.86879 0.0
C246 C 0.46575 0.75744 0.89883 0.0
H247 H 0.42951 0.67265 0.80574 0.0
H248 H 0.49618 0.68891 0.87718 0.0
S249 S 0.36659 0.84983 0.88696 0.0
N250 N 0.34754 0.81017 0.84116 0.0
N251 N 0.42082 0.83023 0.91554 0.0
C252 C 0.42566 0.78967 0.88757 0.0
C253 C 0.38601 0.77884 0.84722 0.0
C254 C 0.81636 0.91764 0.32752 0.0
C255 C 0.83288 0.86579 0.34797 0.0
C256 C 0.81195 0.9527 0.36478 0.0
C257 C 0.82483 0.93707 0.4233 0.0
H258 H 0.80719 0.93111 0.28236 0.0
H259 H 0.8001 0.99278 0.34757 0.0
S260 S 0.8671 0.80471 0.49832 0.0
N261 N 0.85875 0.79935 0.4306 0.0
N262 N 0.8534 0.86641 0.50039 0.0
C263 C 0.84103 0.88531 0.44426 0.0
C264 C 0.84439 0.8493 0.40659 0.0
C265 C 0.70843 0.18704 0.92494 0.0
C266 C 0.69337 0.19874 0.86649 0.0
C267 C 0.67362 0.17545 0.96626 0.0
C268 C 0.6228 0.17473 0.95025 0.0
H269 H 0.74727 0.18946 0.93864 0.0
H270 H 0.68657 0.17206 1.01075 0.0
S271 S 0.56481 0.19961 0.80279 0.0
N272 N 0.62459 0.20637 0.79477 0.0
N273 N 0.55937 0.18363 0.87224 0.0
C274 C 0.60756 0.18239 0.89194 0.0
C275 C 0.6428 0.19486 0.85005 0.0
C276 C 0.33108 0.85646 0.71262 0.0
C277 C 0.35913 0.81375 0.70998 0.0
C278 C 0.34655 0.90954 0.68856 0.0
C279 C 0.3901 0.92155 0.65978 0.0
H280 H 0.29576 0.8482 0.73102 0.0
H281 H 0.32228 0.94095 0.68871 0.0
S282 S 0.47891 0.82358 0.64714 0.0
N283 N 0.43446 0.7863 0.68248 0.0
N284 N 0.46339 0.88667 0.63496 0.0
C285 C 0.42044 0.87953 0.6608 0.0
C286 C 0.40477 0.82526 0.68621 0.0
C287 C 0.74946 0.7218 0.20303 0.0
C288 C 0.78528 0.76556 0.19473 0.0
C289 C 0.70516 0.7221 0.16827 0.0
C290 C 0.69457 0.7665 0.1239 0.0
H291 H 0.75351 0.68989 0.24031 0.0
H292 H 0.67789 0.68837 0.17848 0.0
S293 S 0.78055 0.88692 0.07912 0.0
N294 N 0.81038 0.85093 0.13472 0.0
N295 N 0.72741 0.85192 0.06917 0.0
C296 C 0.73217 0.80815 0.11198 0.0
C297 C 0.77753 0.80725 0.14702 0.0
C298 C 0.75958 0.20123 0.65337 0.0
C299 C 0.79102 0.20584 0.70204 0.0
C300 C 0.7698 0.16831 0.6162 0.0
C301 C 0.81212 0.13925 0.62632 0.0
H302 H 0.72502 0.22006 0.64658 0.0
H303 H 0.74345 0.16411 0.58054 0.0
S304 S 0.90809 0.14188 0.74596 0.0
N305 N 0.86701 0.18166 0.75702 0.0
N306 N 0.88778 0.121 0.68656 0.0
C307 C 0.84567 0.1468 0.67281 0.0
C308 C 0.8348 0.17996 0.71079 0.0
C309 C 0.37674 0.30127 0.17645 0.0
C310 C 0.40133 0.32304 0.22192 0.0
C311 C 0.40272 0.27759 0.14104 0.0
C312 C 0.45405 0.27508 0.14998 0.0
H313 H 0.33713 0.30171 0.16899 0.0
H314 H 0.38274 0.26214 0.10586 0.0
S315 S 0.53558 0.32817 0.26133 0.0
N316 N 0.47978 0.3415 0.27283 0.0
N317 N 0.52858 0.29765 0.20613 0.0
C318 C 0.47893 0.29701 0.19488 0.0
C319 C 0.45257 0.32074 0.23094 0.0
C320 C 0.92827 0.68685 0.84528 0.0
C321 C 0.8898 0.70196 0.80385 0.0
C322 C 0.95794 0.64595 0.84089 0.0
C323 C 0.95069 0.61959 0.79422 0.0
H324 H 0.93181 0.70272 0.88422 0.0
H325 H 0.98512 0.63321 0.87556 0.0
S326 S 0.85987 0.65134 0.66978 0.0
N327 N 0.84948 0.69231 0.71212 0.0
N328 N 0.90637 0.61697 0.70188 0.0
C329 C 0.9158 0.63865 0.74948 0.0
C330 C 0.88526 0.6798 0.7546 0.0
C331 C 0.96998 0.35524 0.19543 0.0
C332 C 0.93456 0.34487 0.23613 0.0
C333 C 1.00078 0.40349 0.18776 0.0
C334 C 0.99743 0.44239 0.22123 0.0
H335 H 0.9713 0.32753 0.16675 0.0
H336 H 0.02675 0.41069 0.15505 0.0
S337 S 0.91174 0.43301 0.33494 0.0
N338 N 0.8987 0.37642 0.31065 0.0
N339 N 0.95725 0.46602 0.29831 0.0
C340 C 0.96392 0.4309 0.26414 0.0
C341 C 0.93252 0.38224 0.27133 0.0
C342 C 0.15798 0.30664 0.81215 0.0
C343 C 0.20307 0.33352 0.79478 0.0
C344 C 0.11991 0.33576 0.8233 0.0
C345 C 0.12666 0.39216 0.81854 0.0
H346 H 0.15206 0.26318 0.81614 0.0
H347 H 0.08452 0.31453 0.83333 0.0
S348 S 0.23715 0.481 0.77262 0.0
N349 N 0.25152 0.41937 0.7714 0.0
N350 N 0.18096 0.4737 0.79457 0.0
C351 C 0.17188 0.41904 0.80233 0.0
C352 C 0.20992 0.3898 0.78986 0.0
C353 C 0.27836 0.70484 0.2264 0.0
C354 C 0.2761 0.76068 0.20717 0.0
C355 C 0.23903 0.6685 0.21357 0.0
C356 C 0.19632 0.6868 0.18081 0.0
H357 H 0.30857 0.68966 0.25578 0.0
H358 H 0.24028 0.62615 0.23344 0.0
S359 S 0.17614 0.8285 0.11307 0.0
N360 N 0.23111 0.83217 0.14761 0.0
N361 N 0.15655 0.76367 0.12426 0.0
C362 C 0.19566 0.74198 0.15686 0.0
C363 C 0.23584 0.77903 0.16986 0.0
C364 C 0.88489 0.84243 0.75851 0.0
C365 C 0.84228 0.80779 0.75125 0.0
C366 C 0.8973 0.88804 0.71582 0.0
C367 C 0.86725 0.90057 0.66466 0.0
H368 H 0.90752 0.83541 0.7983 0.0
H369 H 0.9293 0.9148 0.72397 0.0
S370 S 0.75588 0.81717 0.62234 0.0
N371 N 0.77352 0.78553 0.68707 0.0
N372 N 0.79582 0.87027 0.60753 0.0
C373 C 0.82611 0.8641 0.65617 0.0
C374 C 0.81389 0.81803 0.69921 0.0
C375 C 0.74423 0.25258 0.14667 0.0
C376 C 0.76542 0.29569 0.17127 0.0
C377 C 0.69883 0.25615 0.11497 0.0
C378 C 0.67326 0.30334 0.10594 0.0
H379 H 0.76311 0.21598 0.15199 0.0
H380 H 0.68369 0.22156 0.09705 0.0
S381 S 0.71375 0.42762 0.16175 0.0
N382 N 0.75804 0.38681 0.18553 0.0
N383 N 0.67271 0.39418 0.12414 0.0
C384 C 0.69446 0.3472 0.1296 0.0
C385 C 0.74054 0.34315 0.16284 0.0
C386 C 0.27304 0.17033 0.70905 0.0
C387 C 0.30275 0.21865 0.7111 0.0
C388 C 0.28135 0.13637 0.67185 0.0
C389 C 0.32068 0.14855 0.63639 0.0
H390 H 0.24244 0.15927 0.7358 0.0
H391 H 0.25702 0.10011 0.67116 0.0
S392 S 0.40967 0.26971 0.62568 0.0
N393 N 0.37261 0.27714 0.67373 0.0
N394 N 0.39022 0.21185 0.60621 0.0
C395 C 0.35173 0.19577 0.63935 0.0
C396 C 0.34242 0.23109 0.67623 0.0
C397 C 0.38976 0.79118 0.14961 0.0
C398 C 0.38771 0.77379 0.20863 0.0
C399 C 0.42373 0.77154 0.11989 0.0
C400 C 0.45624 0.73284 0.14787 0.0
H401 H 0.36635 0.82191 0.12685 0.0
H402 H 0.42535 0.78775 0.07466 0.0
S403 S 0.4625 0.67159 0.30187 0.0
N404 N 0.41902 0.7142 0.29393 0.0
N405 N 0.48209 0.67592 0.23782 0.0
C406 C 0.45274 0.71311 0.20653 0.0
C407 C 0.41872 0.73403 0.237 0.0
C408 C 0.88422 0.24764 0.37388 0.0
C409 C 0.89869 0.24193 0.32089 0.0
C410 C 0.89389 0.20883 0.4235 0.0
C411 C 0.91838 0.16262 0.42219 0.0
H412 H 0.86121 0.2796 0.37593 0.0
H413 H 0.87805 0.21246 0.4622 0.0
S414 S 0.9674 0.13127 0.2948 0.0
N415 N 0.94202 0.18903 0.27071 0.0
N416 N 0.9601 0.11573 0.36396 0.0
C417 C 0.93666 0.1588 0.37043 0.0
C418 C 0.92682 0.19856 0.31978 0.0
C419 C 0.40029 0.31943 0.79891 0.0
C420 C 0.36849 0.27203 0.80094 0.0
C421 C 0.44019 0.3224 0.83955 0.0
C422 C 0.45007 0.2776 0.88293 0.0
H423 H 0.39049 0.35625 0.77007 0.0
H424 H 0.46108 0.361 0.83925 0.0
S425 S 0.38519 0.13995 0.89594 0.0
N426 N 0.35443 0.17724 0.84221 0.0
N427 N 0.43066 0.18078 0.91716 0.0
C428 C 0.42256 0.22779 0.87996 0.0
C429 C 0.38166 0.22537 0.83893 0.0
C430 C 0.3624 0.87848 0.38734 0.0
C431 C 0.33501 0.88941 0.33438 0.0
C432 C 0.36229 0.91206 0.42738 0.0
C433 C 0.33381 0.95708 0.41657 0.0
H434 H 0.3837 0.84344 0.39803 0.0
H435 H 0.38423 0.90232 0.46747 0.0
S436 S 0.25844 1.00535 0.28292 0.0
N437 N 0.28142 0.95064 0.27182 0.0
N438 N 0.2792 1.01204 0.34814 0.0
C439 C 0.30632 0.96848 0.36383 0.0
C440 C 0.30742 0.93509 0.32251 0.0
C441 C 0.68715 0.68725 0.86761 0.0
C442 C 0.73455 0.69447 0.89423 0.0
C443 C 0.64631 0.66956 0.90004 0.0
C444 C 0.65168 0.65774 0.96007 0.0
H445 H 0.68149 0.69736 0.8216 0.0
H446 H 0.60982 0.66958 0.87823 0.0
S447 S 0.76848 0.66863 0.04969 0.0
N448 N 0.78491 0.68702 0.98358 0.0
N449 N 0.70843 0.65285 0.04439 0.0
C450 C 0.69943 0.6615 0.98678 0.0
C451 C 0.74077 0.68035 0.95391 0.0
loop_
_geom_bond_atom_site_label_1
_geom_bond_atom_site_label_2
_geom_bond_distance
_geom_bond_site_symmetry_2
_ccdc_geom_bond_type
C0 N1 1.317 . S
C0 N2 1.348 . S
C0 C3 1.485 . S
N1 C0 1.317 . S
N1 N5 1.370 . S
N2 C0 1.348 . S
N2 C4 1.346 . S
C3 C0 1.485 . S
C3 H7 0.960 . S
C3 H8 0.961 . S
C3 H9 0.960 . S
C4 N2 1.346 . S
C4 N5 1.307 . S
C4 C6 1.486 . S
N5 N1 1.370 . S
N5 C4 1.307 . S
C6 C4 1.486 . S
C6 H10 0.960 . S
C6 H11 0.960 . S
C6 H12 0.959 . S
H7 C3 0.960 . S
H8 C3 0.961 . S
H9 C3 0.960 . S
H10 C6 0.960 . S
H11 C6 0.960 . S
H12 C6 0.959 . S
C13 N14 1.317 . S
C13 N15 1.348 . S
C13 C16 1.485 . S
N14 C13 1.317 . S
N14 N18 1.370 . S
N15 C13 1.348 . S
N15 C17 1.346 . S
C16 C13 1.485 . S
C16 H20 0.960 . S
C16 H21 0.961 . S
C16 H22 0.960 . S
C17 N15 1.346 . S
C17 N18 1.307 . S
C17 C19 1.486 . S
N18 N14 1.370 . S
N18 C17 1.307 . S
C19 C17 1.486 . S
C19 H23 0.960 . S
C19 H24 0.960 . S
C19 H25 0.959 . S
H20 C16 0.960 . S
H21 C16 0.961 . S
H22 C16 0.960 . S
H23 C19 0.960 . S
H24 C19 0.960 . S
H25 C19 0.959 . S
C26 N27 1.317 . S
C26 N28 1.348 . S
C26 C29 1.485 . S
N27 C26 1.317 . S
N27 N31 1.370 . S
N28 C26 1.348 . S
N28 C30 1.346 . S
C29 C26 1.485 . S
C29 H33 0.960 . S
C29 H34 0.961 . S
C29 H35 0.960 . S
C30 N28 1.346 . S
C30 N31 1.307 . S
C30 C32 1.486 . S
N31 N27 1.370 . S
N31 C30 1.307 . S
C32 C30 1.486 . S
C32 H36 0.960 . S
C32 H37 0.960 . S
C32 H38 0.959 . S
H33 C29 0.960 . S
H34 C29 0.961 . S
H35 C29 0.960 . S
H36 C32 0.960 . S
H37 C32 0.960 . S
H38 C32 0.959 . S
C39 N40 1.317 . S
C39 N41 1.348 . S
C39 C42 1.485 . S
N40 C39 1.317 . S
N40 N44 1.370 . S
N41 C39 1.348 . S
N41 C43 1.346 . S
C42 C39 1.485 . S
C42 H46 0.960 . S
C42 H47 0.961 . S
C42 H48 0.960 . S
C43 N41 1.346 . S
C43 N44 1.307 . S
C43 C45 1.486 . S
N44 N40 1.370 . S
N44 C43 1.307 . S
C45 C43 1.486 . S
C45 H49 0.960 . S
C45 H50 0.960 . S
C45 H51 0.959 . S
H46 C42 0.960 . S
H47 C42 0.961 . S
H48 C42 0.960 . S
H49 C45 0.960 . S
H50 C45 0.960 . S
H51 C45 0.959 . S
C52 N53 1.317 . S
C52 N54 1.348 . S
C52 C55 1.485 . S
N53 C52 1.317 . S
N53 N57 1.370 . S
N54 C52 1.348 . S
N54 C56 1.346 . S
C55 C52 1.485 . S
C55 H59 0.960 . S
C55 H60 0.961 . S
C55 H61 0.960 . S
C56 N54 1.346 . S
C56 N57 1.307 . S
C56 C58 1.486 . S
N57 N53 1.370 . S
N57 C56 1.307 . S
C58 C56 1.486 . S
C58 H62 0.960 . S
C58 H63 0.960 . S
C58 H64 0.959 . S
H59 C55 0.960 . S
H60 C55 0.961 . S
H61 C55 0.960 . S
H62 C58 0.960 . S
H63 C58 0.960 . S
H64 C58 0.959 . S
C65 N66 1.317 . S
C65 N67 1.348 . S
C65 C68 1.485 . S
N66 C65 1.317 . S
N66 N70 1.370 . S
N67 C65 1.348 . S
N67 C69 1.346 . S
C68 C65 1.485 . S
C68 H72 0.960 . S
C68 H73 0.961 . S
C68 H74 0.960 . S
C69 N67 1.346 . S
C69 N70 1.307 . S
C69 C71 1.486 . S
N70 N66 1.370 . S
N70 C69 1.307 . S
C71 C69 1.486 . S
C71 H75 0.960 . S
C71 H76 0.960 . S
C71 H77 0.959 . S
H72 C68 0.960 . S
H73 C68 0.961 . S
H74 C68 0.960 . S
H75 C71 0.960 . S
H76 C71 0.960 . S
H77 C71 0.959 . S
C78 N79 1.317 . S
C78 N80 1.348 . S
C78 C81 1.485 . S
N79 C78 1.317 . S
N79 N83 1.370 . S
N80 C78 1.348 . S
N80 C82 1.346 . S
C81 C78 1.485 . S
C81 H85 0.960 . S
C81 H86 0.961 . S
C81 H87 0.960 . S
C82 N80 1.346 . S
C82 N83 1.307 . S
C82 C84 1.486 . S
N83 N79 1.370 . S
N83 C82 1.307 . S
C84 C82 1.486 . S
C84 H88 0.960 . S
C84 H89 0.960 . S
C84 H90 0.959 . S
H85 C81 0.960 . S
H86 C81 0.961 . S
H87 C81 0.960 . S
H88 C84 0.960 . S
H89 C84 0.960 . S
H90 C84 0.959 . S
C91 N92 1.317 . S
C91 N93 1.348 . S
C91 C94 1.485 . S
N92 C91 1.317 . S
N92 N96 1.370 . S
N93 C91 1.348 . S
N93 C95 1.346 . S
C94 C91 1.485 . S
C94 H98 0.960 . S
C94 H99 0.961 . S
C94 H100 0.960 . S
C95 N93 1.346 . S
C95 N96 1.307 . S
C95 C97 1.486 . S
N96 N92 1.370 . S
N96 C95 1.307 . S
C97 C95 1.486 . S
C97 H101 0.960 . S
C97 H102 0.960 . S
C97 H103 0.959 . S
H98 C94 0.960 . S
H99 C94 0.961 . S
H100 C94 0.960 . S
H101 C97 0.960 . S
H102 C97 0.960 . S
H103 C97 0.959 . S
C104 O106 1.247 . S
C104 O108 1.258 . S
C105 O112 1.247 . S
C105 O113 1.258 . S
O106 C104 1.247 . S
O106 Zn107 2.028 1_655 S
Zn107 O106 2.028 1_455 S
Zn107 O111 2.035 . S
Zn107 O113 2.035 . S
Zn107 O114 2.028 . S
O108 C104 1.258 . S
O108 Zn109 2.035 1_655 S
Zn109 O108 2.035 1_455 S
Zn109 O110 2.028 . S
Zn109 O112 2.028 . S
Zn109 O115 2.035 . S
O110 Zn109 2.028 . S
O110 C116 1.247 . S
O111 Zn107 2.035 . S
O111 C116 1.258 . S
O112 C105 1.247 . S
O112 Zn109 2.028 . S
O113 C105 1.258 . S
O113 Zn107 2.035 . S
O114 Zn107 2.028 . S
O114 C117 1.247 1_455 S
O115 Zn109 2.035 . S
O115 C117 1.258 1_455 S
C116 O110 1.247 . S
C116 O111 1.258 . S
C117 O114 1.247 1_655 S
C117 O115 1.258 1_655 S
C118 O120 1.247 . S
C118 O122 1.258 . S
C119 O126 1.247 . S
C119 O127 1.258 . S
O120 C118 1.247 . S
O120 Zn121 2.028 1_655 S
Zn121 O120 2.028 1_455 S
Zn121 O125 2.035 . S
Zn121 O127 2.035 . S
Zn121 O128 2.028 1_455 S
O122 C118 1.258 . S
O122 Zn123 2.035 . S
Zn123 O122 2.035 . S
Zn123 O124 2.028 1_655 S
Zn123 O126 2.028 1_655 S
Zn123 O129 2.035 . S
O124 Zn123 2.028 1_455 S
O124 C130 1.247 . S
O125 Zn121 2.035 . S
O125 C130 1.258 . S
O126 C119 1.247 . S
O126 Zn123 2.028 1_455 S
O127 C119 1.258 . S
O127 Zn121 2.035 . S
O128 Zn121 2.028 1_655 S
O128 C131 1.247 . S
O129 Zn123 2.035 . S
O129 C131 1.258 . S
C130 O124 1.247 . S
C130 O125 1.258 . S
C131 O128 1.247 . S
C131 O129 1.258 . S
C132 O134 1.247 . S
C132 O136 1.258 . S
C133 O140 1.247 . S
C133 O141 1.258 . S
O134 C132 1.247 . S
O134 Zn135 2.028 1_565 S
Zn135 O134 2.028 1_545 S
Zn135 O139 2.035 . S
Zn135 O141 2.035 . S
Zn135 O142 2.028 1_545 S
O136 C132 1.258 . S
O136 Zn137 2.035 1_565 S
Zn137 O136 2.035 1_545 S
Zn137 O138 2.028 . S
Zn137 O140 2.028 . S
Zn137 O143 2.035 1_545 S
O138 Zn137 2.028 . S
O138 C144 1.247 . S
O139 Zn135 2.035 . S
O139 C144 1.258 . S
O140 C133 1.247 . S
O140 Zn137 2.028 . S
O141 C133 1.258 . S
O141 Zn135 2.035 . S
O142 Zn135 2.028 1_565 S
O142 C145 1.247 . S
O143 Zn137 2.035 1_565 S
O143 C145 1.258 . S
C144 O138 1.247 . S
C144 O139 1.258 . S
C145 O142 1.247 . S
C145 O143 1.258 . S
C146 O148 1.247 . S
C146 O150 1.258 . S
C147 O154 1.247 . S
C147 O155 1.258 1_556 S
O148 C146 1.247 . S
O148 Zn149 2.028 . S
Zn149 O148 2.028 . S
Zn149 O153 2.035 . S
Zn149 O155 2.035 . S
Zn149 O156 2.028 . S
O150 C146 1.258 . S
O150 Zn151 2.035 . S
Zn151 O150 2.035 . S
Zn151 O152 2.028 . S
Zn151 O154 2.028 1_554 S
Zn151 O157 2.035 1_554 S
O152 Zn151 2.028 . S
O152 C158 1.247 . S
O153 Zn149 2.035 . S
O153 C158 1.258 . S
O154 C147 1.247 . S
O154 Zn151 2.028 1_556 S
O155 C147 1.258 1_554 S
O155 Zn149 2.035 . S
O156 Zn149 2.028 . S
O156 C159 1.247 1_554 S
O157 Zn151 2.035 1_556 S
O157 C159 1.258 . S
C158 O152 1.247 . S
C158 O153 1.258 . S
C159 O156 1.247 1_556 S
C159 O157 1.258 . S
C160 O162 1.247 . S
C160 O164 1.258 . S
C161 O168 1.247 . S
C161 O169 1.258 . S
O162 C160 1.247 . S
O162 Zn163 2.028 1_565 S
Zn163 O162 2.028 1_545 S
Zn163 O167 2.035 . S
Zn163 O169 2.035 . S
Zn163 O170 2.028 1_545 S
O164 C160 1.258 . S
O164 Zn165 2.035 1_565 S
Zn165 O164 2.035 1_545 S
Zn165 O166 2.028 . S
Zn165 O168 2.028 . S
Zn165 O171 2.035 1_545 S
O166 Zn165 2.028 . S
O166 C172 1.247 . S
O167 Zn163 2.035 . S
O167 C172 1.258 . S
O168 C161 1.247 . S
O168 Zn165 2.028 . S
O169 C161 1.258 . S
O169 Zn163 2.035 . S
O170 Zn163 2.028 1_565 S
O170 C173 1.247 . S
O171 Zn165 2.035 1_565 S
O171 C173 1.258 . S
C172 O166 1.247 . S
C172 O167 1.258 . S
C173 O170 1.247 . S
C173 O171 1.258 . S
C174 O176 1.247 . S
C174 O178 1.258 . S
C175 O182 1.247 . S
C175 O183 1.258 . S
O176 C174 1.247 . S
O176 Zn177 2.028 . S
Zn177 O176 2.028 . S
Zn177 O181 2.035 . S
Zn177 O183 2.035 1_554 S
Zn177 O184 2.028 1_554 S
O178 C174 1.258 . S
O178 Zn179 2.035 1_554 S
Zn179 O178 2.035 1_556 S
Zn179 O180 2.028 1_556 S
Zn179 O182 2.028 . S
Zn179 O185 2.035 . S
O180 Zn179 2.028 1_554 S
O180 C186 1.247 . S
O181 Zn177 2.035 . S
O181 C186 1.258 . S
O182 C175 1.247 . S
O182 Zn179 2.028 . S
O183 C175 1.258 . S
O183 Zn177 2.035 1_556 S
O184 Zn177 2.028 1_556 S
O184 C187 1.247 . S
O185 Zn179 2.035 . S
O185 C187 1.258 . S
C186 O180 1.247 . S
C186 O181 1.258 . S
C187 O184 1.247 . S
C187 O185 1.258 . S
C188 C189 1.369 . S
C188 C190 1.419 . S
C188 H192 0.930 . S
C189 C188 1.369 . S
C189 C198 1.429 . S
C190 C188 1.419 . S
C190 C191 1.363 . S
C190 H193 0.929 . S
C191 C190 1.363 . S
C191 C197 1.428 . S
H192 C188 0.930 . S
H193 C190 0.929 . S
S194 N195 1.613 . S
S194 N196 1.610 . S
N195 S194 1.613 . S
N195 C198 1.350 . S
N196 S194 1.610 . S
N196 C197 1.351 . S
C197 C191 1.428 . S
C197 N196 1.351 . S
C197 C198 1.434 . S
C198 C189 1.429 . S
C198 N195 1.350 . S
C198 C197 1.434 . S
C199 C200 1.369 . S
C199 C201 1.419 . S
C199 H203 0.930 . S
C200 C199 1.369 . S
C200 C209 1.429 . S
C201 C199 1.419 . S
C201 C202 1.363 . S
C201 H204 0.929 . S
C202 C201 1.363 . S
C202 C208 1.428 . S
H203 C199 0.930 . S
H204 C201 0.929 . S
S205 N206 1.613 . S
S205 N207 1.610 . S
N206 S205 1.613 . S
N206 C209 1.350 . S
N207 S205 1.610 . S
N207 C208 1.351 . S
C208 C202 1.428 . S
C208 N207 1.351 . S
C208 C209 1.434 . S
C209 C200 1.429 . S
C209 N206 1.350 . S
C209 C208 1.434 . S
C210 C211 1.369 . S
C210 C212 1.419 . S
C210 H214 0.930 . S
C211 C210 1.369 . S
C211 C220 1.429 . S
C212 C210 1.419 . S
C212 C213 1.363 . S
C212 H215 0.929 . S
C213 C212 1.363 . S
C213 C219 1.428 . S
H214 C210 0.930 . S
H215 C212 0.929 . S
S216 N217 1.613 . S
S216 N218 1.610 . S
N217 S216 1.613 . S
N217 C220 1.350 . S
N218 S216 1.610 . S
N218 C219 1.351 . S
C219 C213 1.428 . S
C219 N218 1.351 . S
C219 C220 1.434 . S
C220 C211 1.429 . S
C220 N217 1.350 . S
C220 C219 1.434 . S
C221 C222 1.369 . S
C221 C223 1.419 . S
C221 H225 0.930 . S
C222 C221 1.369 . S
C222 C231 1.429 . S
C223 C221 1.419 . S
C223 C224 1.363 . S
C223 H226 0.929 . S
C224 C223 1.363 . S
C224 C230 1.428 . S
H225 C221 0.930 . S
H226 C223 0.929 . S
S227 N228 1.613 . S
S227 N229 1.610 . S
N228 S227 1.613 . S
N228 C231 1.350 . S
N229 S227 1.610 . S
N229 C230 1.351 . S
C230 C224 1.428 . S
C230 N229 1.351 . S
C230 C231 1.434 . S
C231 C222 1.429 . S
C231 N228 1.350 . S
C231 C230 1.434 . S
C232 C233 1.369 . S
C232 C234 1.419 . S
C232 H236 0.930 . S
C233 C232 1.369 . S
C233 C242 1.429 . S
C234 C232 1.419 . S
C234 C235 1.363 . S
C234 H237 0.929 . S
C235 C234 1.363 . S
C235 C241 1.428 . S
H236 C232 0.930 . S
H237 C234 0.929 . S
S238 N239 1.613 . S
S238 N240 1.610 . S
N239 S238 1.613 . S
N239 C242 1.350 . S
N240 S238 1.610 . S
N240 C241 1.351 . S
C241 C235 1.428 . S
C241 N240 1.351 . S
C241 C242 1.434 . S
C242 C233 1.429 . S
C242 N239 1.350 . S
C242 C241 1.434 . S
C243 C244 1.369 . S
C243 C245 1.419 . S
C243 H247 0.930 . S
C244 C243 1.369 . S
C244 C253 1.429 . S
C245 C243 1.419 . S
C245 C246 1.363 . S
C245 H248 0.929 . S
C246 C245 1.363 . S
C246 C252 1.428 . S
H247 C243 0.930 . S
H248 C245 0.929 . S
S249 N250 1.613 . S
S249 N251 1.610 . S
N250 S249 1.613 . S
N250 C253 1.350 . S
N251 S249 1.610 . S
N251 C252 1.351 . S
C252 C246 1.428 . S
C252 N251 1.351 . S
C252 C253 1.434 . S
C253 C244 1.429 . S
C253 N250 1.350 . S
C253 C252 1.434 . S
C254 C255 1.369 . S
C254 C256 1.419 . S
C254 H258 0.930 . S
C255 C254 1.369 . S
C255 C264 1.429 . S
C256 C254 1.419 . S
C256 C257 1.363 . S
C256 H259 0.929 . S
C257 C256 1.363 . S
C257 C263 1.428 . S
H258 C254 0.930 . S
H259 C256 0.929 . S
S260 N261 1.613 . S
S260 N262 1.610 . S
N261 S260 1.613 . S
N261 C264 1.350 . S
N262 S260 1.610 . S
N262 C263 1.351 . S
C263 C257 1.428 . S
C263 N262 1.351 . S
C263 C264 1.434 . S
C264 C255 1.429 . S
C264 N261 1.350 . S
C264 C263 1.434 . S
C265 C266 1.369 . S
C265 C267 1.419 . S
C265 H269 0.930 . S
C266 C265 1.369 . S
C266 C275 1.429 . S
C267 C265 1.419 . S
C267 C268 1.363 . S
C267 H270 0.929 . S
C268 C267 1.363 . S
C268 C274 1.428 . S
H269 C265 0.930 . S
H270 C267 0.929 . S
S271 N272 1.613 . S
S271 N273 1.610 . S
N272 S271 1.613 . S
N272 C275 1.350 . S
N273 S271 1.610 . S
N273 C274 1.351 . S
C274 C268 1.428 . S
C274 N273 1.351 . S
C274 C275 1.434 . S
C275 C266 1.429 . S
C275 N272 1.350 . S
C275 C274 1.434 . S
C276 C277 1.369 . S
C276 C278 1.419 . S
C276 H280 0.930 . S
C277 C276 1.369 . S
C277 C286 1.429 . S
C278 C276 1.419 . S
C278 C279 1.363 . S
C278 H281 0.929 . S
C279 C278 1.363 . S
C279 C285 1.428 . S
H280 C276 0.930 . S
H281 C278 0.929 . S
S282 N283 1.613 . S
S282 N284 1.610 . S
N283 S282 1.613 . S
N283 C286 1.350 . S
N284 S282 1.610 . S
N284 C285 1.351 . S
C285 C279 1.428 . S
C285 N284 1.351 . S
C285 C286 1.434 . S
C286 C277 1.429 . S
C286 N283 1.350 . S
C286 C285 1.434 . S
C287 C288 1.369 . S
C287 C289 1.419 . S
C287 H291 0.930 . S
C288 C287 1.369 . S
C288 C297 1.429 . S
C289 C287 1.419 . S
C289 C290 1.363 . S
C289 H292 0.929 . S
C290 C289 1.363 . S
C290 C296 1.428 . S
H291 C287 0.930 . S
H292 C289 0.929 . S
S293 N294 1.613 . S
S293 N295 1.610 . S
N294 S293 1.613 . S
N294 C297 1.350 . S
N295 S293 1.610 . S
N295 C296 1.351 . S
C296 C290 1.428 . S
C296 N295 1.351 . S
C296 C297 1.434 . S
C297 C288 1.429 . S
C297 N294 1.350 . S
C297 C296 1.434 . S
C298 C299 1.369 . S
C298 C300 1.419 . S
C298 H302 0.930 . S
C299 C298 1.369 . S
C299 C308 1.429 . S
C300 C298 1.419 . S
C300 C301 1.363 . S
C300 H303 0.929 . S
C301 C300 1.363 . S
C301 C307 1.428 . S
H302 C298 0.930 . S
H303 C300 0.929 . S
S304 N305 1.613 . S
S304 N306 1.610 . S
N305 S304 1.613 . S
N305 C308 1.350 . S
N306 S304 1.610 . S
N306 C307 1.351 . S
C307 C301 1.428 . S
C307 N306 1.351 . S
C307 C308 1.434 . S
C308 C299 1.429 . S
C308 N305 1.350 . S
C308 C307 1.434 . S
C309 C310 1.369 . S
C309 C311 1.419 . S
C309 H313 0.930 . S
C310 C309 1.369 . S
C310 C319 1.429 . S
C311 C309 1.419 . S
C311 C312 1.363 . S
C311 H314 0.929 . S
C312 C311 1.363 . S
C312 C318 1.428 . S
H313 C309 0.930 . S
H314 C311 0.929 . S
S315 N316 1.613 . S
S315 N317 1.610 . S
N316 S315 1.613 . S
N316 C319 1.350 . S
N317 S315 1.610 . S
N317 C318 1.351 . S
C318 C312 1.428 . S
C318 N317 1.351 . S
C318 C319 1.434 . S
C319 C310 1.429 . S
C319 N316 1.350 . S
C319 C318 1.434 . S
C320 C321 1.369 . S
C320 C322 1.419 . S
C320 H324 0.930 . S
C321 C320 1.369 . S
C321 C330 1.429 . S
C322 C320 1.419 . S
C322 C323 1.363 . S
C322 H325 0.929 . S
C323 C322 1.363 . S
C323 C329 1.428 . S
H324 C320 0.930 . S
H325 C322 0.929 . S
S326 N327 1.613 . S
S326 N328 1.610 . S
N327 S326 1.613 . S
N327 C330 1.350 . S
N328 S326 1.610 . S
N328 C329 1.351 . S
C329 C323 1.428 . S
C329 N328 1.351 . S
C329 C330 1.434 . S
C330 C321 1.429 . S
C330 N327 1.350 . S
C330 C329 1.434 . S
C331 C332 1.369 . S
C331 C333 1.419 . S
C331 H335 0.930 . S
C332 C331 1.369 . S
C332 C341 1.429 . S
C333 C331 1.419 . S
C333 C334 1.363 . S
C333 H336 0.929 . S
C334 C333 1.363 . S
C334 C340 1.428 . S
H335 C331 0.930 . S
H336 C333 0.929 . S
S337 N338 1.613 . S
S337 N339 1.610 . S
N338 S337 1.613 . S
N338 C341 1.350 . S
N339 S337 1.610 . S
N339 C340 1.351 . S
C340 C334 1.428 . S
C340 N339 1.351 . S
C340 C341 1.434 . S
C341 C332 1.429 . S
C341 N338 1.350 . S
C341 C340 1.434 . S
C342 C343 1.369 . S
C342 C344 1.419 . S
C342 H346 0.930 . S
C343 C342 1.369 . S
C343 C352 1.429 . S
C344 C342 1.419 . S
C344 C345 1.363 . S
C344 H347 0.929 . S
C345 C344 1.363 . S
C345 C351 1.428 . S
H346 C342 0.930 . S
H347 C344 0.929 . S
S348 N349 1.613 . S
S348 N350 1.610 . S
N349 S348 1.613 . S
N349 C352 1.350 . S
N350 S348 1.610 . S
N350 C351 1.351 . S
C351 C345 1.428 . S
C351 N350 1.351 . S
C351 C352 1.434 . S
C352 C343 1.429 . S
C352 N349 1.350 . S
C352 C351 1.434 . S
C353 C354 1.369 . S
C353 C355 1.419 . S
C353 H357 0.930 . S
C354 C353 1.369 . S
C354 C363 1.429 . S
C355 C353 1.419 . S
C355 C356 1.363 . S
C355 H358 0.929 . S
C356 C355 1.363 . S
C356 C362 1.428 . S
H357 C353 0.930 . S
H358 C355 0.929 . S
S359 N360 1.613 . S
S359 N361 1.610 . S
N360 S359 1.613 . S
N360 C363 1.350 . S
N361 S359 1.610 . S
N361 C362 1.351 . S
C362 C356 1.428 . S
C362 N361 1.351 . S
C362 C363 1.434 . S
C363 C354 1.429 . S
C363 N360 1.350 . S
C363 C362 1.434 . S
C364 C365 1.369 . S
C364 C366 1.419 . S
C364 H368 0.930 . S
C365 C364 1.369 . S
C365 C374 1.429 . S
C366 C364 1.419 . S
C366 C367 1.363 . S
C366 H369 0.929 . S
C367 C366 1.363 . S
C367 C373 1.428 . S
H368 C364 0.930 . S
H369 C366 0.929 . S
S370 N371 1.613 . S
S370 N372 1.610 . S
N371 S370 1.613 . S
N371 C374 1.350 . S
N372 S370 1.610 . S
N372 C373 1.351 . S
C373 C367 1.428 . S
C373 N372 1.351 . S
C373 C374 1.434 . S
C374 C365 1.429 . S
C374 N371 1.350 . S
C374 C373 1.434 . S
C375 C376 1.369 . S
C375 C377 1.419 . S
C375 H379 0.930 . S
C376 C375 1.369 . S
C376 C385 1.429 . S
C377 C375 1.419 . S
C377 C378 1.363 . S
C377 H380 0.929 . S
C378 C377 1.363 . S
C378 C384 1.428 . S
H379 C375 0.930 . S
H380 C377 0.929 . S
S381 N382 1.613 . S
S381 N383 1.610 . S
N382 S381 1.613 . S
N382 C385 1.350 . S
N383 S381 1.610 . S
N383 C384 1.351 . S
C384 C378 1.428 . S
C384 N383 1.351 . S
C384 C385 1.434 . S
C385 C376 1.429 . S
C385 N382 1.350 . S
C385 C384 1.434 . S
C386 C387 1.369 . S
C386 C388 1.419 . S
C386 H390 0.930 . S
C387 C386 1.369 . S
C387 C396 1.429 . S
C388 C386 1.419 . S
C388 C389 1.363 . S
C388 H391 0.929 . S
C389 C388 1.363 . S
C389 C395 1.428 . S
H390 C386 0.930 . S
H391 C388 0.929 . S
S392 N393 1.613 . S
S392 N394 1.610 . S
N393 S392 1.613 . S
N393 C396 1.350 . S
N394 S392 1.610 . S
N394 C395 1.351 . S
C395 C389 1.428 . S
C395 N394 1.351 . S
C395 C396 1.434 . S
C396 C387 1.429 . S
C396 N393 1.350 . S
C396 C395 1.434 . S
C397 C398 1.369 . S
C397 C399 1.419 . S
C397 H401 0.930 . S
C398 C397 1.369 . S
C398 C407 1.429 . S
C399 C397 1.419 . S
C399 C400 1.363 . S
C399 H402 0.929 . S
C400 C399 1.363 . S
C400 C406 1.428 . S
H401 C397 0.930 . S
H402 C399 0.929 . S
S403 N404 1.613 . S
S403 N405 1.610 . S
N404 S403 1.613 . S
N404 C407 1.350 . S
N405 S403 1.610 . S
N405 C406 1.351 . S
C406 C400 1.428 . S
C406 N405 1.351 . S
C406 C407 1.434 . S
C407 C398 1.429 . S
C407 N404 1.350 . S
C407 C406 1.434 . S
C408 C409 1.369 . S
C408 C410 1.419 . S
C408 H412 0.930 . S
C409 C408 1.369 . S
C409 C418 1.429 . S
C410 C408 1.419 . S
C410 C411 1.363 . S
C410 H413 0.929 . S
C411 C410 1.363 . S
C411 C417 1.428 . S
H412 C408 0.930 . S
H413 C410 0.929 . S
S414 N415 1.613 . S
S414 N416 1.610 . S
N415 S414 1.613 . S
N415 C418 1.350 . S
N416 S414 1.610 . S
N416 C417 1.351 . S
C417 C411 1.428 . S
C417 N416 1.351 . S
C417 C418 1.434 . S
C418 C409 1.429 . S
C418 N415 1.350 . S
C418 C417 1.434 . S
C419 C420 1.369 . S
C419 C421 1.419 . S
C419 H423 0.930 . S
C420 C419 1.369 . S
C420 C429 1.429 . S
C421 C419 1.419 . S
C421 C422 1.363 . S
C421 H424 0.929 . S
C422 C421 1.363 . S
C422 C428 1.428 . S
H423 C419 0.930 . S
H424 C421 0.929 . S
S425 N426 1.613 . S
S425 N427 1.610 . S
N426 S425 1.613 . S
N426 C429 1.350 . S
N427 S425 1.610 . S
N427 C428 1.351 . S
C428 C422 1.428 . S
C428 N427 1.351 . S
C428 C429 1.434 . S
C429 C420 1.429 . S
C429 N426 1.350 . S
C429 C428 1.434 . S
C430 C431 1.369 . S
C430 C432 1.419 . S
C430 H434 0.930 . S
C431 C430 1.369 . S
C431 C440 1.429 . S
C432 C430 1.419 . S
C432 C433 1.363 . S
C432 H435 0.929 . S
C433 C432 1.363 . S
C433 C439 1.428 . S
H434 C430 0.930 . S
H435 C432 0.929 . S
S436 N437 1.613 . S
S436 N438 1.610 . S
N437 S436 1.613 . S
N437 C440 1.350 . S
N438 S436 1.610 . S
N438 C439 1.351 . S
C439 C433 1.428 . S
C439 N438 1.351 . S
C439 C440 1.434 . S
C440 C431 1.429 . S
C440 N437 1.350 . S
C440 C439 1.434 . S
C441 C442 1.369 . S
C441 C443 1.419 . S
C441 H445 0.930 . S
C442 C441 1.369 . S
C442 C451 1.429 . S
C443 C441 1.419 . S
C443 C444 1.363 . S
C443 H446 0.929 . S
C444 C443 1.363 . S
C444 C450 1.428 . S
H445 C441 0.930 . S
H446 C443 0.929 . S
S447 N448 1.613 . S
S447 N449 1.610 . S
N448 S447 1.613 . S
N448 C451 1.350 . S
N449 S447 1.610 . S
N449 C450 1.351 . S
C450 C444 1.428 . S
C450 N449 1.351 . S
C450 C451 1.434 . S
C451 C442 1.429 . S
C451 N448 1.350 . S
C451 C450 1.434 . S
C191 C116 1.446 . S
C189 N2 1.459 . S
C202 C119 1.488 . S
C200 N15 1.496 . S
C213 C117 1.645 . S
C211 N27 1.645 . S
C224 C118 1.499 . S
C222 N44 1.516 . S
C235 C133 1.638 . S
C233 N1 1.674 . S
C246 C147 1.644 . S
C244 N18 1.645 . S
C255 N28 1.671 . S
C257 C173 1.630 . S
C268 C187 1.507 . S
C266 N41 1.515 . S
C279 C132 1.611 . S
C277 N14 1.633 . S
C288 N31 1.737 . S
C290 C146 1.731 . S
C301 C172 1.708 . S
C299 N40 1.736 . S
C312 C186 1.574 . S
C310 N5 1.594 . S
C321 N53 1.649 . S
C323 C131 1.625 . S
C334 C104 1.620 . S
C332 N70 1.620 . S
C343 N80 1.518 . S
C345 C130 1.509 . S
C354 N92 1.721 . S
C356 C105 1.715 . S
C367 C160 1.687 . S
C365 N57 1.728 . S
C378 C174 1.468 . S
C376 N67 1.473 . S
C389 C144 1.660 . S
C387 N83 1.700 . S
C398 N96 1.674 . S
C400 C158 1.666 . S
C411 C161 1.626 . S
C409 N66 1.666 . S
C422 C175 1.460 . S
C420 N79 1.469 . S
C433 C145 1.620 . S
C431 N93 1.656 . S
C442 N54 1.494 . S
C444 C159 1.480 . S
