# Generated by pormake.
# Topology zzz, (3,6)-cn, num edge types: 1
# Building blocks:
#     Node 0, Type 0, BuildingBlock: VETTIZ_charged_linker_0, # of connection points: 3
#     Node 1, Type 0, BuildingBlock: VETTIZ_charged_linker_0, # of connection points: 3
#     Node 2, Type 0, BuildingBlock: VETTIZ_charged_linker_0, # of connection points: 3
#     Node 3, Type 0, BuildingBlock: VETTIZ_charged_linker_0, # of connection points: 3
#     Node 4, Type 0, BuildingBlock: VETTIZ_charged_linker_0, # of connection points: 3
#     Node 5, Type 0, BuildingBlock: VETTIZ_charged_linker_0, # of connection points: 3
#     Node 6, Type 0, BuildingBlock: VETTIZ_charged_linker_0, # of connection points: 3
#     Node 7, Type 0, BuildingBlock: VETTIZ_charged_linker_0, # of connection points: 3
#     Node 8, Type 1, BuildingBlock: LEVNOQ01_clean_sbu_1, # of connection points: 6
#     Node 9, Type 1, BuildingBlock: LEVNOQ01_clean_sbu_1, # of connection points: 6
#     Node 10, Type 1, BuildingBlock: LEVNOQ01_clean_sbu_1, # of connection points: 6
#     Node 11, Type 1, BuildingBlock: LEVNOQ01_clean_sbu_1, # of connection points: 6
#     Edge 12, Type (0, 1), BuildingBlock: AJUNOK_clean_linker_0, # of connection points: 2
#     Edge 13, Type (0, 1), BuildingBlock: AJUNOK_clean_linker_0, # of connection points: 2
#     Edge 14, Type (0, 1), BuildingBlock: AJUNOK_clean_linker_0, # of connection points: 2
#     Edge 15, Type (0, 1), BuildingBlock: AJUNOK_clean_linker_0, # of connection points: 2
#     Edge 16, Type (0, 1), BuildingBlock: AJUNOK_clean_linker_0, # of connection points: 2
#     Edge 17, Type (0, 1), BuildingBlock: AJUNOK_clean_linker_0, # of connection points: 2
#     Edge 18, Type (0, 1), BuildingBlock: AJUNOK_clean_linker_0, # of connection points: 2
#     Edge 19, Type (0, 1), BuildingBlock: AJUNOK_clean_linker_0, # of connection points: 2
#     Edge 20, Type (0, 1), BuildingBlock: AJUNOK_clean_linker_0, # of connection points: 2
#     Edge 21, Type (0, 1), BuildingBlock: AJUNOK_clean_linker_0, # of connection points: 2
#     Edge 22, Type (0, 1), BuildingBlock: AJUNOK_clean_linker_0, # of connection points: 2
#     Edge 23, Type (0, 1), BuildingBlock: AJUNOK_clean_linker_0, # of connection points: 2
#     Edge 24, Type (0, 1), BuildingBlock: AJUNOK_clean_linker_0, # of connection points: 2
#     Edge 25, Type (0, 1), BuildingBlock: AJUNOK_clean_linker_0, # of connection points: 2
#     Edge 26, Type (0, 1), BuildingBlock: AJUNOK_clean_linker_0, # of connection points: 2
#     Edge 27, Type (0, 1), BuildingBlock: AJUNOK_clean_linker_0, # of connection points: 2
#     Edge 28, Type (0, 1), BuildingBlock: AJUNOK_clean_linker_0, # of connection points: 2
#     Edge 29, Type (0, 1), BuildingBlock: AJUNOK_clean_linker_0, # of connection points: 2
#     Edge 30, Type (0, 1), BuildingBlock: AJUNOK_clean_linker_0, # of connection points: 2
#     Edge 31, Type (0, 1), BuildingBlock: AJUNOK_clean_linker_0, # of connection points: 2
#     Edge 32, Type (0, 1), BuildingBlock: AJUNOK_clean_linker_0, # of connection points: 2
#     Edge 33, Type (0, 1), BuildingBlock: AJUNOK_clean_linker_0, # of connection points: 2
#     Edge 34, Type (0, 1), BuildingBlock: AJUNOK_clean_linker_0, # of connection points: 2
#     Edge 35, Type (0, 1), BuildingBlock: AJUNOK_clean_linker_0, # of connection points: 2
# Relax obj value: 0.314
# Max RMSD: 0.221
# Mean RMSD: 0.209
data_MOF--net-zzz--node1-LEVNOQ01_clean_sbu_1--node2-VETTIZ_charged_linker_0--edge1-AJUNOK_clean_linker_0
_symmetry_space_group_name_H-M    P1
_symmetry_Int_Tables_number       1
_symmetry_cell_setting            triclinic
loop_
_symmetry_equiv_pos_as_xyz
'x, y, z'
_cell_length_a     42.296458
_cell_length_b     44.837199
_cell_length_c     16.378713
_cell_angle_alpha  89.56752
_cell_angle_beta   89.939638
_cell_angle_gamma 88.411008
loop_
_atom_site_label
_atom_site_type_symbol
_atom_site_fract_x
_atom_site_fract_y
_atom_site_fract_z
_atom_type_partial_charge
C0 C 0.81266 0.58549 0.39399 0.0
C1 C 0.84436 0.59256 0.41471 0.0
C2 C 0.85885 0.61572 0.37174 0.0
C3 C 0.81526 0.61833 0.27629 0.0
C4 C 0.79795 0.59987 0.32548 0.0
C5 C 0.76459 0.59714 0.29042 0.0
H6 H 0.67925 0.59908 0.93086 0.0
C7 C 0.79895 0.62199 0.19716 0.0
C8 C 0.76837 0.61053 0.20429 0.0
H9 H 0.64044 0.58154 0.1694 0.0
H10 H 0.69129 0.59327 0.23201 0.0
H11 H 0.72262 0.65616 0.96658 0.0
H12 H 0.7339 0.5611 0.96213 0.0
H13 H 0.77241 0.57305 0.94586 0.0
H14 H 0.74161 0.58292 0.87308 0.0
H15 H 0.72011 0.63308 0.87767 0.0
H16 H 0.7573 0.64716 0.9107 0.0
C17 C 0.74195 0.61672 0.34238 0.0
C18 C 0.75504 0.56429 0.28905 0.0
C19 C 0.87196 0.62328 0.95539 0.0
C20 C 0.8684 0.60347 0.88989 0.0
C21 C 0.8379 0.6025 0.85463 0.0
C22 C 0.8115 0.61385 0.89688 0.0
C23 C 0.81545 0.62402 0.97703 0.0
C24 C 0.84553 0.62943 0.00462 0.0
C25 C 0.8466 0.63197 0.09633 0.0
C26 C 0.81221 0.62727 0.11878 0.0
C27 C 0.79419 0.62306 0.0486 0.0
C28 C 0.85736 0.66367 0.11831 0.0
C29 C 0.86848 0.60612 0.1293 0.0
C30 C 0.6808 0.59918 0.99689 0.0
C31 C 0.65535 0.59028 0.04482 0.0
C32 C 0.65959 0.58874 0.13071 0.0
C33 C 0.68907 0.59529 0.16694 0.0
C34 C 0.71476 0.60272 0.11669 0.0
C35 C 0.7098 0.60493 0.03319 0.0
C36 C 0.73945 0.60974 0.98653 0.0
C37 C 0.76236 0.61469 0.05544 0.0
C38 C 0.74874 0.60922 0.13262 0.0
C39 C 0.73478 0.63791 0.93196 0.0
C40 C 0.74734 0.58043 0.939 0.0
H41 H 0.85749 0.64488 0.26962 0.0
H42 H 0.80041 0.56858 0.42812 0.0
H43 H 0.77316 0.55049 0.25635 0.0
H44 H 0.73218 0.56158 0.2578 0.0
H45 H 0.75268 0.55538 0.35217 0.0
H46 H 0.75082 0.63979 0.34697 0.0
H47 H 0.74 0.60745 0.40523 0.0
H48 H 0.71805 0.61866 0.31584 0.0
H49 H 0.89503 0.62887 0.97777 0.0
H50 H 0.83336 0.59018 0.79968 0.0
H51 H 0.7889 0.61129 0.86883 0.0
H52 H 0.85377 0.67965 0.06662 0.0
H53 H 0.88286 0.66367 0.13444 0.0
H54 H 0.84333 0.67341 0.16925 0.0
H55 H 0.86543 0.58562 0.09265 0.0
H56 H 0.86343 0.59825 0.19113 0.0
H57 H 0.89362 0.61251 0.12806 0.0
H58 H 0.88271 0.62192 0.3869 0.0
C59 C 0.84431 0.6289 0.30344 0.0
C60 C 0.00524 0.83089 0.89659 0.0
C61 C 0.00752 0.86196 0.90443 0.0
C62 C 0.99648 0.87616 0.97563 0.0
C63 C 0.98727 0.82874 0.03707 0.0
C64 C 0.99415 0.81462 0.9643 0.0
C65 C 0.98915 0.78149 0.97149 0.0
H66 H 0.02527 0.66226 0.16666 0.0
C67 C 0.98382 0.80627 0.10103 0.0
C68 C 0.9834 0.77858 0.06412 0.0
H69 H 0.96686 0.67114 0.94962 0.0
H70 H 0.95235 0.72193 0.98787 0.0
H71 H 0.05305 0.72802 0.21351 0.0
H72 H 0.95378 0.71043 0.25998 0.0
H73 H 0.97604 0.72402 0.34356 0.0
H74 H 0.98425 0.68709 0.306 0.0
H75 H 0.04237 0.69756 0.27961 0.0
H76 H 0.03838 0.73535 0.31446 0.0
C77 C 0.01919 0.76414 0.94315 0.0
C78 C 0.95985 0.77392 0.91958 0.0
C79 C 0.99581 0.84302 0.38583 0.0
C80 C 0.99936 0.83033 0.46299 0.0
C81 C 1.00275 0.7988 0.46942 0.0
C82 C 1.00127 0.78056 0.3985 0.0
C83 C 0.99687 0.79418 0.32119 0.0
C84 C 0.99447 0.82502 0.31747 0.0
C85 C 0.99055 0.83708 0.23365 0.0
C86 C 0.98831 0.80864 0.18615 0.0
C87 C 0.99279 0.78299 0.23582 0.0
C88 C 0.0211 0.85439 0.21335 0.0
C89 C 0.95906 0.85595 0.23057 0.0
C90 C 0.00961 0.67519 0.12699 0.0
C91 C 0.99995 0.66394 0.04991 0.0
C92 C 0.97676 0.6802 0.00491 0.0
C93 C 0.96946 0.70963 0.02388 0.0
C94 C 0.98467 0.72224 0.08953 0.0
C95 C 0.99964 0.70475 0.14766 0.0
C96 C 1.00206 0.72257 0.22689 0.0
C97 C 0.99224 0.75425 0.19763 0.0
C98 C 0.9841 0.75291 0.11454 0.0
C99 C 0.03592 0.7208 0.2607 0.0
C100 C 0.97776 0.7104 0.28787 0.0
H101 H 0.97962 0.87216 0.09439 0.0
H102 H 0.01248 0.81982 0.84083 0.0
H103 H 0.95505 0.79076 0.8706 0.0
H104 H 0.93817 0.77304 0.95784 0.0
H105 H 0.9633 0.7524 0.88728 0.0
H106 H 0.04011 0.77076 0.9791 0.0
H107 H 0.02395 0.76858 0.8775 0.0
H108 H 0.01663 0.73975 0.95013 0.0
H109 H 0.99433 0.86708 0.37825 0.0
H110 H 0.00631 0.78841 0.5287 0.0
H111 H 1.00382 0.75676 0.40551 0.0
H112 H 0.0422 0.84406 0.24422 0.0
H113 H 0.01898 0.8779 0.23391 0.0
H114 H 0.02767 0.85415 0.14827 0.0
H115 H 0.94249 0.84969 0.28027 0.0
H116 H 0.94546 0.85229 0.17385 0.0
H117 H 0.96343 0.88014 0.23682 0.0
H118 H 0.99759 0.90015 0.9824 0.0
C119 C 0.98607 0.85979 0.04126 0.0
C120 C 0.84006 0.91859 0.11356 0.0
C121 C 0.85338 0.91641 0.03327 0.0
C122 C 0.83426 0.90531 0.97084 0.0
C123 C 0.79035 0.90038 0.06259 0.0
C124 C 0.80811 0.91018 0.12691 0.0
C125 C 0.7876 0.91201 0.20428 0.0
H126 H 0.63223 0.91907 0.34089 0.0
C127 C 0.75743 0.89745 0.08836 0.0
C128 C 0.75467 0.90382 0.17225 0.0
H129 H 0.7139 0.93069 0.49413 0.0
H130 H 0.74869 0.91757 0.37862 0.0
H131 H 0.654 0.95004 0.19474 0.0
H132 H 0.65689 0.8589 0.26931 0.0
H133 H 0.65365 0.85649 0.16293 0.0
H134 H 0.62285 0.87564 0.22065 0.0
H135 H 0.62058 0.92647 0.1891 0.0
H136 H 0.64711 0.93105 0.10445 0.0
C137 C 0.78804 0.94393 0.23788 0.0
C138 C 0.80005 0.88866 0.26647 0.0
C139 C 0.67533 0.9037 0.86873 0.0
C140 C 0.64277 0.90844 0.87652 0.0
C141 C 0.62701 0.8967 0.94504 0.0
C142 C 0.64426 0.8869 0.01292 0.0
C143 C 0.67726 0.8889 0.011 0.0
C144 C 0.69227 0.89402 0.93765 0.0
C145 C 0.72737 0.89404 0.94694 0.0
C146 C 0.73046 0.89274 0.03974 0.0
C147 C 0.70093 0.89073 0.07655 0.0
C148 C 0.73934 0.92384 0.90977 0.0
C149 C 0.74056 0.86507 0.9058 0.0
C150 C 0.6574 0.91796 0.35236 0.0
C151 C 0.66964 0.9257 0.42841 0.0
C152 C 0.70324 0.92519 0.43632 0.0
C153 C 0.72352 0.91784 0.36926 0.0
C154 C 0.71027 0.91107 0.2929 0.0
C155 C 0.6776 0.91032 0.28768 0.0
C156 C 0.6663 0.90169 0.20548 0.0
C157 C 0.69725 0.89746 0.1604 0.0
C158 C 0.72367 0.90363 0.20988 0.0
C159 C 0.64578 0.92835 0.17121 0.0
C160 C 0.64879 0.8718 0.21452 0.0
H161 H 0.79142 0.88889 0.93382 0.0
H162 H 0.85369 0.92742 0.16327 0.0
H163 H 0.80091 0.86607 0.23877 0.0
H164 H 0.78464 0.88765 0.32092 0.0
H165 H 0.82433 0.89395 0.28659 0.0
H166 H 0.7809 0.96034 0.18966 0.0
H167 H 0.81215 0.94929 0.25917 0.0
H168 H 0.77163 0.94701 0.2897 0.0
H169 H 0.68755 0.91179 0.81516 0.0
H170 H 0.60159 0.89952 0.95156 0.0
H171 H 0.63109 0.88178 0.0668 0.0
H172 H 0.72191 0.94249 0.92008 0.0
H173 H 0.74312 0.92192 0.84288 0.0
H174 H 0.7612 0.93183 0.93749 0.0
H175 H 0.72204 0.84824 0.89659 0.0
H176 H 0.75862 0.85329 0.94421 0.0
H177 H 0.75082 0.86986 0.84481 0.0
H178 H 0.84157 0.90539 0.90757 0.0
C179 C 0.80392 0.8963 0.98576 0.0
C180 C 0.4997 0.70721 0.44126 0.0
C181 C 0.49962 0.6758 0.45686 0.0
C182 C 0.49375 0.65646 0.39248 0.0
C183 C 0.48951 0.69767 0.29807 0.0
C184 C 0.49527 0.71774 0.35938 0.0
C185 C 0.49428 0.74965 0.32417 0.0
H186 H 0.52039 0.82749 0.96388 0.0
C187 C 0.48787 0.71347 0.21973 0.0
C188 C 0.49223 0.74403 0.23152 0.0
H189 H 0.48009 0.86811 0.17862 0.0
H190 H 0.48355 0.81947 0.25073 0.0
H191 H 0.56009 0.77161 0.01209 0.0
H192 H 0.45927 0.78602 0.98651 0.0
H193 H 0.47099 0.75466 0.93024 0.0
H194 H 0.48688 0.78991 0.90332 0.0
H195 H 0.54148 0.77235 0.91367 0.0
H196 H 0.54485 0.73842 0.97363 0.0
C197 C 0.52426 0.76621 0.34708 0.0
C198 C 0.46414 0.7657 0.35617 0.0
C199 C 0.47217 0.6505 0.97486 0.0
C200 C 0.48315 0.65197 0.89496 0.0
C201 C 0.49563 0.67853 0.86423 0.0
C202 C 0.49817 0.70326 0.91627 0.0
C203 C 0.48925 0.70032 0.99922 0.0
C204 C 0.47764 0.67372 0.02657 0.0
C205 C 0.47907 0.67011 0.11656 0.0
C206 C 0.48634 0.70144 0.14082 0.0
C207 C 0.49277 0.71892 0.07267 0.0
C208 C 0.50757 0.64806 0.13492 0.0
C209 C 0.44616 0.66008 0.14712 0.0
C210 C 0.51389 0.8264 0.02792 0.0
C211 C 0.50095 0.85163 0.06599 0.0
C212 C 0.49093 0.84904 0.1483 0.0
C213 C 0.4924 0.82091 0.18939 0.0
C214 C 0.50199 0.79518 0.1458 0.0
C215 C 0.51086 0.7986 0.06469 0.0
C216 C 0.50783 0.77074 0.01654 0.0
C217 C 0.49925 0.74921 0.08279 0.0
C218 C 0.497 0.7627 0.16052 0.0
C219 C 0.5401 0.76279 0.9763 0.0
C220 C 0.48003 0.77543 0.95534 0.0
H221 H 0.48181 0.65066 0.27172 0.0
H222 H 0.5028 0.72275 0.49066 0.0
H223 H 0.44285 0.75275 0.3415 0.0
H224 H 0.4607 0.7881 0.32888 0.0
H225 H 0.46529 0.76822 0.42356 0.0
H226 H 0.54565 0.75404 0.32392 0.0
H227 H 0.52628 0.76816 0.41444 0.0
H228 H 0.52377 0.78903 0.32052 0.0
H229 H 0.46368 0.62973 1.00006 0.0
H230 H 0.50438 0.6797 0.80216 0.0
H231 H 0.50832 0.72304 0.89127 0.0
H232 H 0.52501 0.64708 0.08396 0.0
H233 H 0.49955 0.62497 0.14541 0.0
H234 H 0.52202 0.65501 0.18743 0.0
H235 H 0.42682 0.66876 0.10669 0.0
H236 H 0.43999 0.66878 0.20831 0.0
H237 H 0.44491 0.63537 0.14838 0.0
H238 H 0.49223 0.6326 0.40308 0.0
C239 C 0.48785 0.66715 0.31497 0.0
C240 C 0.34079 0.42205 0.34407 0.0
C241 C 0.35356 0.42099 0.42483 0.0
C242 C 0.33369 0.41232 0.48917 0.0
C243 C 0.28995 0.40706 0.397 0.0
C244 C 0.30857 0.41479 0.33157 0.0
C245 C 0.28899 0.41539 0.25285 0.0
H246 H 0.13658 0.40815 0.10127 0.0
C247 C 0.25786 0.40158 0.36856 0.0
C248 C 0.25631 0.40575 0.28334 0.0
H249 H 0.21862 0.43193 0.96054 0.0
H250 H 0.25233 0.42014 0.07745 0.0
H251 H 0.16011 0.35295 0.16708 0.0
H252 H 0.15872 0.43894 0.28337 0.0
H253 H 0.13385 0.41174 0.32831 0.0
H254 H 0.12686 0.42288 0.22839 0.0
H255 H 0.12902 0.36367 0.23569 0.0
H256 H 0.16522 0.34561 0.27202 0.0
C257 C 0.30332 0.39268 0.19238 0.0
C258 C 0.28819 0.44745 0.21848 0.0
C259 C 0.16741 0.40752 0.56182 0.0
C260 C 0.13532 0.40682 0.54148 0.0
C261 C 0.12536 0.38684 0.48171 0.0
C262 C 0.14758 0.37357 0.4294 0.0
C263 C 0.17886 0.38247 0.43552 0.0
C264 C 0.18921 0.39503 0.50669 0.0
C265 C 0.22425 0.39906 0.50495 0.0
C266 C 0.2309 0.394 0.41424 0.0
C267 C 0.20356 0.38588 0.37362 0.0
C268 C 0.2394 0.37404 0.55978 0.0
C269 C 0.23141 0.43134 0.53216 0.0
C270 C 0.16164 0.41107 0.09359 0.0
C271 C 0.17368 0.42318 0.02142 0.0
C272 C 0.2073 0.42518 0.01653 0.0
C273 C 0.22721 0.41815 0.08455 0.0
C274 C 0.21372 0.40861 0.15852 0.0
C275 C 0.18147 0.40426 0.15987 0.0
C276 C 0.16983 0.39347 0.24025 0.0
C277 C 0.20044 0.39177 0.28878 0.0
C278 C 0.22651 0.40157 0.24236 0.0
C279 C 0.15515 0.36242 0.22853 0.0
C280 C 0.14623 0.41786 0.27236 0.0
H281 H 0.28919 0.39975 0.52836 0.0
H282 H 0.35518 0.42867 0.29277 0.0
H283 H 0.28016 0.4635 0.26615 0.0
H284 H 0.27189 0.45019 0.16639 0.0
H285 H 0.31214 0.45381 0.19782 0.0
H286 H 0.30519 0.37015 0.22116 0.0
H287 H 0.32739 0.3992 0.17327 0.0
H288 H 0.28853 0.39086 0.13714 0.0
H289 H 0.17517 0.42181 0.61045 0.0
H290 H 0.10069 0.38567 0.46592 0.0
H291 H 0.13911 0.36068 0.37964 0.0
H292 H 0.22233 0.35668 0.57763 0.0
H293 H 0.24881 0.38321 0.6174 0.0
H294 H 0.25867 0.36156 0.52762 0.0
H295 H 0.21457 0.4477 0.50306 0.0
H296 H 0.25513 0.43869 0.51484 0.0
H297 H 0.22918 0.43356 0.59944 0.0
H298 H 0.34161 0.41239 0.55205 0.0
C299 C 0.3026 0.40509 0.47557 0.0
C300 C 0.99694 0.17908 0.55562 0.0
C301 C 0.99746 0.14806 0.54679 0.0
C302 C 1.00123 0.13542 0.46882 0.0
C303 C 1.0043 0.18411 0.4091 0.0
C304 C 1.0003 0.19669 0.48517 0.0
C305 C 0.99918 0.23005 0.4804 0.0
H306 H 0.01549 0.35779 0.27036 0.0
C307 C 0.00558 0.2081 0.34816 0.0
C308 C 1.00184 0.23505 0.38819 0.0
H309 H 0.99831 0.34074 0.52735 0.0
H310 H 0.99302 0.28997 0.50211 0.0
H311 H 0.05849 0.29313 0.21323 0.0
H312 H 0.95554 0.30094 0.21614 0.0
H313 H 0.97412 0.29035 0.1224 0.0
H314 H 0.978 0.32762 0.15939 0.0
H315 H 0.03878 0.32349 0.15925 0.0
H316 H 0.03764 0.28625 0.11983 0.0
C317 C 0.0287 0.24094 0.52683 0.0
C318 C 0.96671 0.24114 0.51531 0.0
C319 C 0.02358 0.17496 0.0621 0.0
C320 C 0.01394 0.18616 0.98659 0.0
C321 C 0.00543 0.21702 0.98082 0.0
C322 C 0.00623 0.2358 0.05105 0.0
C323 C 0.01342 0.22307 0.12822 0.0
C324 C 0.02052 0.19269 0.13119 0.0
C325 C 0.01593 0.17958 0.21344 0.0
C326 C 0.00994 0.20716 0.26301 0.0
C327 C 0.00871 0.23339 0.21494 0.0
C328 C 0.04698 0.16235 0.23784 0.0
C329 C 0.98557 0.16053 0.20981 0.0
C330 C 0.01102 0.34259 0.32042 0.0
C331 C 0.00922 0.3531 0.40227 0.0
C332 C 1.00144 0.33318 0.46498 0.0
C333 C 0.99805 0.30334 0.45001 0.0
C334 C 1.00198 0.29248 0.371 0.0
C335 C 0.00716 0.31157 0.30609 0.0
C336 C 0.00697 0.29419 0.22578 0.0
C337 C 0.00524 0.26169 0.25618 0.0
C338 C 1.00186 0.26183 0.34203 0.0
C339 C 0.03724 0.29957 0.17658 0.0
C340 C 0.97702 0.30376 0.17792 0.0
H341 H 0.00831 0.14164 0.34431 0.0
H342 H 0.99344 0.18923 0.61487 0.0
H343 H 0.94895 0.22329 0.51626 0.0
H344 H 0.95558 0.25909 0.47726 0.0
H345 H 0.96906 0.24919 0.57894 0.0
H346 H 0.04951 0.22567 0.51648 0.0
H347 H 0.02432 0.24166 0.59367 0.0
H348 H 0.03673 0.26295 0.50613 0.0
H349 H 0.02805 0.15114 0.06984 0.0
H350 H 0.9967 0.22617 0.92352 0.0
H351 H 0.99907 0.25889 0.04471 0.0
H352 H 0.06796 0.1717 0.20676 0.0
H353 H 0.04599 0.13845 0.221 0.0
H354 H 0.05251 0.16393 0.30363 0.0
H355 H 0.96853 0.16936 0.16322 0.0
H356 H 0.97157 0.16118 0.26693 0.0
H357 H 0.9914 0.13697 0.19406 0.0
H358 H 1.00068 0.11149 0.46015 0.0
C359 C 0.00508 0.15314 0.40065 0.0
C360 C 0.31052 0.09222 0.04773 0.0
C361 C 0.34209 0.10015 0.02692 0.0
C362 C 0.35474 0.12509 0.06606 0.0
C363 C 0.31175 0.12554 0.16245 0.0
C364 C 0.29535 0.10604 0.11562 0.0
C365 C 0.26251 0.10176 0.15244 0.0
H366 H 0.1808 0.09774 0.51652 0.0
C367 C 0.29607 0.12873 0.24173 0.0
C368 C 0.26605 0.11597 0.23711 0.0
H369 H 0.14069 0.08021 0.28015 0.0
H370 H 0.19029 0.09446 0.21477 0.0
H371 H 0.23775 0.06458 0.48651 0.0
H372 H 0.21771 0.15804 0.47524 0.0
H373 H 0.25447 0.15324 0.52504 0.0
H374 H 0.22014 0.13559 0.56645 0.0
H375 H 0.24559 0.08753 0.57217 0.0
H376 H 0.27552 0.07896 0.49626 0.0
C377 C 0.25518 0.06837 0.15731 0.0
C378 C 0.23841 0.11969 0.09977 0.0
C379 C 0.37174 0.12451 0.47669 0.0
C380 C 0.36699 0.10895 0.54955 0.0
C381 C 0.33708 0.11006 0.58647 0.0
C382 C 0.31104 0.12155 0.54269 0.0
C383 C 0.31509 0.12935 0.45989 0.0
C384 C 0.3453 0.13185 0.42889 0.0
C385 C 0.34573 0.13526 0.33755 0.0
C386 C 0.31041 0.13353 0.31855 0.0
C387 C 0.29293 0.12941 0.39025 0.0
C388 C 0.36495 0.10834 0.30094 0.0
C389 C 0.35965 0.16594 0.31558 0.0
C390 C 0.18171 0.09822 0.45044 0.0
C391 C 0.15613 0.08872 0.40402 0.0
C392 C 0.15982 0.08778 0.31792 0.0
C393 C 0.18858 0.09593 0.27997 0.0
C394 C 0.21416 0.10462 0.32848 0.0
C395 C 0.2099 0.10601 0.41221 0.0
C396 C 0.23941 0.11334 0.45659 0.0
C397 C 0.26129 0.11995 0.38596 0.0
C398 C 0.24729 0.11366 0.31007 0.0
C399 C 0.25021 0.08491 0.50581 0.0
C400 C 0.23274 0.14142 0.50922 0.0
H401 H 0.34998 0.15663 0.16222 0.0
H402 H 0.29872 0.07498 0.01455 0.0
H403 H 0.2459 0.14313 0.09195 0.0
H404 H 0.21469 0.12074 0.1276 0.0
H405 H 0.23648 0.10969 0.03816 0.0
H406 H 0.27428 0.05589 0.19066 0.0
H407 H 0.25322 0.05885 0.09516 0.0
H408 H 0.2327 0.06451 0.18956 0.0
H409 H 0.39521 0.12472 0.45022 0.0
H410 H 0.33324 0.09882 0.64429 0.0
H411 H 0.28847 0.12076 0.5721 0.0
H412 H 0.35184 0.08735 0.30844 0.0
H413 H 0.38846 0.10501 0.32976 0.0
H414 H 0.37057 0.11107 0.23597 0.0
H415 H 0.36644 0.17877 0.37044 0.0
H416 H 0.34222 0.18038 0.28201 0.0
H417 H 0.38139 0.16334 0.2779 0.0
H418 H 0.37796 0.13292 0.05031 0.0
C419 C 0.33915 0.13836 0.1323 0.0
C420 C 0.51262 0.30051 0.01974 0.0
C421 C 0.5071 0.33153 0.00183 0.0
C422 C 0.49658 0.35037 0.06442 0.0
C423 C 0.50105 0.31014 0.16266 0.0
C424 C 0.50847 0.29004 0.10181 0.0
C425 C 0.50999 0.25822 0.13804 0.0
H426 H 0.52282 0.17903 0.50551 0.0
C427 C 0.50243 0.29484 0.24219 0.0
C428 C 0.50725 0.26396 0.23075 0.0
H429 H 0.49994 0.13832 0.27646 0.0
H430 H 0.50474 0.18734 0.20687 0.0
H431 H 0.57045 0.22819 0.44952 0.0
H432 H 0.47 0.22405 0.4842 0.0
H433 H 0.48043 0.25874 0.52232 0.0
H434 H 0.49727 0.22525 0.56782 0.0
H435 H 0.55252 0.2285 0.54878 0.0
H436 H 0.55893 0.26257 0.49232 0.0
C437 C 0.54138 0.24217 0.1161 0.0
C438 C 0.48128 0.24157 0.10581 0.0
C439 C 0.50602 0.36149 0.48656 0.0
C440 C 0.51469 0.35706 0.56805 0.0
C441 C 0.51998 0.32792 0.59821 0.0
C442 C 0.5174 0.30348 0.54551 0.0
C443 C 0.51026 0.30865 0.46211 0.0
C444 C 0.50467 0.33737 0.43499 0.0
C445 C 0.50042 0.33987 0.34497 0.0
C446 C 0.50334 0.30742 0.32097 0.0
C447 C 0.50908 0.28939 0.38918 0.0
C448 C 0.52831 0.3584 0.31137 0.0
C449 C 0.46669 0.35348 0.32913 0.0
C450 C 0.51852 0.18026 0.44028 0.0
C451 C 0.50979 0.15505 0.39765 0.0
C452 C 0.50576 0.15771 0.31179 0.0
C453 C 0.5081 0.18606 0.2718 0.0
C454 C 0.51357 0.21178 0.31864 0.0
C455 C 0.51842 0.20794 0.40185 0.0
C456 C 0.51853 0.23627 0.44785 0.0
C457 C 0.513 0.25837 0.3799 0.0
C458 C 0.51118 0.24487 0.3021 0.0
C459 C 0.55166 0.23915 0.48734 0.0
C460 C 0.49036 0.23625 0.50928 0.0
H461 H 0.48707 0.35646 0.18734 0.0
H462 H 0.5201 0.28527 0.97213 0.0
H463 H 0.45897 0.25432 0.11921 0.0
H464 H 0.47926 0.21934 0.13403 0.0
H465 H 0.48304 0.23867 0.0386 0.0
H466 H 0.56171 0.25517 0.13771 0.0
H467 H 0.54354 0.23943 0.04894 0.0
H468 H 0.54293 0.21972 0.14495 0.0
H469 H 0.50289 0.38377 0.46108 0.0
H470 H 0.52711 0.32425 0.66107 0.0
H471 H 0.52195 0.28169 0.5712 0.0
H472 H 0.5504 0.35359 0.34662 0.0
H473 H 0.52296 0.38272 0.3158 0.0
H474 H 0.53493 0.35316 0.24788 0.0
H475 H 0.45087 0.35128 0.38305 0.0
H476 H 0.45424 0.34182 0.27963 0.0
H477 H 0.46755 0.37765 0.31409 0.0
H478 H 0.49219 0.37398 0.05281 0.0
C479 C 0.49369 0.34001 0.14359 0.0
O480 O 0.08221 0.97726 0.83229 0.0
Mg481 Mg 0.07109 0.97931 0.70675 0.0
O482 O 0.0343 0.99253 0.8483 0.0
Mg483 Mg 0.00518 0.00588 0.73244 0.0
O484 O 0.05234 0.01854 0.65362 0.0
O485 O 0.10216 -0.00015 0.63657 0.0
O486 O 0.97504 0.01753 0.61887 0.0
O487 O 0.00522 0.05689 0.79012 0.0
Mg488 Mg 0.93746 0.03171 0.76107 0.0
O489 O 0.9582 0.99301 0.81143 0.0
O490 O 0.92772 0.03424 0.63466 0.0
O491 O 0.95527 0.06972 0.81504 0.0
O492 O 0.90787 0.00965 0.83236 0.0
C493 C 0.02475 0.93606 0.64751 0.0
C494 C 0.05507 0.97183 0.8594 0.0
C495 C 0.08055 0.01979 0.6196 0.0
C496 C 0.95544 0.03923 0.61085 0.0
C497 C 0.9843 0.07565 0.81858 0.0
C498 C 0.9305 0.99052 0.84745 0.0
O499 O 0.05408 0.94033 0.65406 0.0
O500 O 1.00467 0.95618 0.67224 0.0
O501 O 0.41977 0.00383 0.80598 0.0
Mg502 Mg 0.44352 0.97427 0.72937 0.0
O503 O 0.46142 0.03267 0.81594 0.0
Mg504 Mg 0.50453 0.00645 0.73897 0.0
O505 O 0.48409 0.96012 0.78639 0.0
O506 O 0.44163 0.93203 0.76911 0.0
O507 O 0.54922 0.98228 0.66099 0.0
O508 O 0.53188 0.00337 0.85942 0.0
Mg509 Mg 0.57092 0.04836 0.7387 0.0
O510 O 0.52525 0.05122 0.69559 0.0
O511 O 0.58967 0.0134 0.66677 0.0
O512 O 0.56969 0.03479 0.86271 0.0
O513 O 0.55794 0.08812 0.67771 0.0
C514 C 0.45197 0.00726 0.58612 0.0
C515 C 0.4324 0.02679 0.83419 0.0
C516 C 0.46867 0.93591 0.80346 0.0
C517 C 0.57819 0.989 0.64313 0.0
C518 C 0.56102 0.00798 0.86892 0.0
C519 C 0.53162 0.07615 0.65908 0.0
O520 O 0.43818 0.9836 0.60517 0.0
O521 O 0.47767 0.01329 0.62089 0.0
O522 O 0.56137 0.44016 0.79574 0.0
Mg523 Mg 0.57441 0.48056 0.74092 0.0
O524 O 0.51086 0.4515 0.77557 0.0
Mg525 Mg 0.50731 0.50347 0.72582 0.0
O526 O 0.5544 0.51808 0.799 0.0
O527 O 0.60568 0.50239 0.80609 0.0
O528 O 0.50375 0.5555 0.67891 0.0
O529 O 0.47984 0.51144 0.84606 0.0
Mg530 Mg 0.43817 0.52673 0.70345 0.0
O531 O 0.4605 0.49009 0.65056 0.0
O532 O 0.45385 0.56587 0.64719 0.0
O533 O 0.43146 0.5259 0.83122 0.0
O534 O 0.40887 0.50331 0.63582 0.0
C535 C 0.55504 0.47473 0.59151 0.0
C536 C 0.53272 0.43287 0.80002 0.0
C537 C 0.58321 0.52062 0.82807 0.0
C538 C 0.48234 0.57371 0.6501 0.0
C539 C 0.45842 0.53111 0.8598 0.0
C540 C 0.43278 0.48628 0.61655 0.0
O541 O 0.58276 0.48038 0.61341 0.0
O542 O 0.5347 0.49538 0.60568 0.0
O543 O 0.93114 0.47216 0.82279 0.0
Mg544 Mg 0.94424 0.46323 0.70186 0.0
O545 O 0.97305 0.49866 0.84609 0.0
Mg546 Mg 1.00299 0.50495 0.7305 0.0
O547 O 0.99034 0.46016 0.66923 0.0
O548 O 0.95677 0.42294 0.65357 0.0
O549 O 0.02938 0.50794 0.60876 0.0
O550 O 0.04749 0.478 0.80433 0.0
Mg551 Mg 0.05477 0.53796 0.73301 0.0
O552 O 0.01532 0.55211 0.79609 0.0
O553 O 0.07138 0.53412 0.61343 0.0
O554 O 0.08323 0.51248 0.80736 0.0
O555 O 0.05893 0.57917 0.77246 0.0
C556 C 0.93442 0.52162 0.61428 0.0
C557 C 0.9439 0.49381 0.85775 0.0
C558 C 0.98322 0.43508 0.63502 0.0
C559 C 0.05704 0.51262 0.58345 0.0
C560 C 0.0754 0.48638 0.82476 0.0
C561 C 0.0328 0.57524 0.81114 0.0
O562 O 0.9256 0.49488 0.6197 0.0
O563 O 0.95882 0.5304 0.6547 0.0
C564 C 0.118 0.04737 0.42628 0.0
C565 C 0.12827 0.07584 0.44783 0.0
C566 C 0.09886 0.03077 0.47909 0.0
C567 C 0.08906 0.04182 0.55569 0.0
H568 H 0.12705 0.03667 0.37166 0.0
H569 H 0.09397 0.00797 0.46284 0.0
S570 S 0.10601 0.11642 0.63752 0.0
N571 N 0.12327 0.11598 0.54696 0.0
N572 N 0.08964 0.08359 0.64845 0.0
C573 C 0.0972 0.07096 0.57565 0.0
C574 C 0.11611 0.08825 0.52108 0.0
C575 C 0.52459 0.10238 0.44126 0.0
C576 C 0.50433 0.12761 0.44846 0.0
C577 C 0.52969 0.08268 0.50806 0.0
C578 C 0.51509 0.08769 0.58465 0.0
H579 H 0.53914 0.09964 0.38723 0.0
H580 H 0.54785 0.06529 0.50239 0.0
S581 S 0.45695 0.14835 0.63134 0.0
N582 N 0.46567 0.15356 0.53413 0.0
N583 N 0.47769 0.1184 0.66072 0.0
C584 C 0.49258 0.11107 0.58984 0.0
C585 C 0.48641 0.13036 0.52121 0.0
C586 C 0.40121 0.4188 0.51707 0.0
C587 C 0.38543 0.43213 0.44903 0.0
C588 C 0.42069 0.43541 0.5682 0.0
C589 C 0.42728 0.46513 0.54948 0.0
H590 H 0.39504 0.39665 0.53743 0.0
H591 H 0.42755 0.42603 0.62691 0.0
S592 S 0.40068 0.50746 0.36572 0.0
N593 N 0.38322 0.47512 0.35794 0.0
N594 N 0.42233 0.50509 0.44947 0.0
C595 C 0.4164 0.4768 0.47424 0.0
C596 C 0.39523 0.46049 0.42435 0.0
C597 C 0.03412 0.38786 0.49673 0.0
C598 C 0.01346 0.38426 0.42977 0.0
C599 C 0.02611 0.40694 0.5616 0.0
C600 C 0.99852 0.42476 0.55878 0.0
H601 H 0.05293 0.37145 0.50725 0.0
H602 H 0.03923 0.40478 0.61803 0.0
S603 S 0.94079 0.42961 0.38872 0.0
N604 N 0.96696 0.40383 0.35931 0.0
N605 N 0.95347 0.44178 0.47748 0.0
C606 C 0.98058 0.42508 0.48629 0.0
C607 C 0.98799 0.40472 0.4218 0.0
C608 C 0.89184 0.95829 0.03318 0.0
C609 C 0.88433 0.92952 0.00713 0.0
C610 C 0.91121 0.97665 0.98549 0.0
C611 C 0.92331 0.96728 0.90923 0.0
H612 H 0.87997 0.968 0.08564 0.0
H613 H 0.91386 -0.00042 0.00423 0.0
S614 S 0.91469 0.89246 0.81951 0.0
N615 N 0.89718 0.89017 0.90932 0.0
N616 N 0.92759 0.92685 0.81271 0.0
C617 C 0.91853 0.93776 0.88643 0.0
C618 C 0.90084 0.91829 0.93777 0.0
C619 C 0.50516 0.90326 0.00172 0.0
C620 C 0.48976 0.87593 0.00928 0.0
C621 C 0.49885 0.92272 0.93468 0.0
C622 C 0.47829 0.9147 0.87077 0.0
H623 H 0.52254 0.90934 0.04673 0.0
H624 H 0.51015 0.94407 0.93309 0.0
S625 S 0.43306 0.84485 0.86193 0.0
N626 N 0.45187 0.84284 0.94992 0.0
N627 N 0.4436 0.87658 0.82002 0.0
C628 C 0.46331 0.88714 0.87804 0.0
C629 C 0.46807 0.86859 0.9481 0.0
C630 C 0.61962 0.54771 0.02187 0.0
C631 C 0.62781 0.57706 0.00204 0.0
C632 C 0.60211 0.53054 0.9677 0.0
C633 C 0.59156 0.5421 0.89202 0.0
H634 H 0.6293 0.53689 0.07604 0.0
H635 H 0.59871 0.50727 0.98265 0.0
S636 S 0.60133 0.61941 0.81706 0.0
N637 N 0.61977 0.61842 0.90606 0.0
N638 N 0.58742 0.58571 0.80373 0.0
C639 C 0.59725 0.57211 0.87399 0.0
C640 C 0.61497 0.58976 0.92947 0.0
C641 C 0.02747 0.64782 0.92487 0.0
C642 C 0.01662 0.63987 0.00325 0.0
C643 C 0.03122 0.62675 0.86322 0.0
C644 C 0.02545 0.59652 0.87762 0.0
H645 H 0.03057 0.67109 0.90911 0.0
H646 H 0.03831 0.63435 0.80312 0.0
S647 S 0.01519 0.56251 0.08283 0.0
N648 N 0.01103 0.59879 0.0991 0.0
N649 N 0.02045 0.5585 0.98335 0.0
C650 C 0.01974 0.58751 0.95896 0.0
C651 C 0.01501 0.60934 0.02201 0.0
C652 C 0.01206 0.10252 0.61714 0.0
C653 C 0.99143 0.12742 0.61424 0.0
C654 C 1.00002 0.074 0.61632 0.0
C655 C 0.96749 0.06941 0.62535 0.0
H656 H 0.03643 0.10504 0.59935 0.0
H657 H 0.01603 0.05578 0.60153 0.0
S658 S 0.90617 0.12872 0.6631 0.0
N659 N 0.93894 0.14695 0.64592 0.0
N660 N 0.91611 0.0929 0.65708 0.0
C661 C 0.94757 0.09449 0.64149 0.0
C662 C 0.95988 0.12371 0.63664 0.0
C663 C 0.41131 0.08217 0.62077 0.0
C664 C 0.38746 0.08249 0.56229 0.0
C665 C 0.43311 0.05825 0.62477 0.0
C666 C 0.43126 0.03362 0.57139 0.0
H667 H 0.41313 0.10045 0.66312 0.0
H668 H 0.45109 0.05883 0.67165 0.0
S669 S 0.37091 0.02343 0.41197 0.0
N670 N 0.36174 0.05616 0.4525 0.0
N671 N 0.40249 0.01067 0.46176 0.0
C672 C 0.40674 0.03342 0.51454 0.0
C673 C 0.38483 0.05796 0.50973 0.0
C674 C 0.50224 0.40815 0.60928 0.0
C675 C 0.52379 0.38388 0.61184 0.0
C676 C 0.51274 0.4372 0.60121 0.0
C677 C 0.54505 0.44351 0.60395 0.0
H678 H 0.47738 0.40418 0.60083 0.0
H679 H 0.49549 0.45461 0.58819 0.0
S680 S 0.61092 0.38722 0.62323 0.0
N681 N 0.57863 0.3674 0.62313 0.0
N682 N 0.59869 0.42245 0.61699 0.0
C683 C 0.56683 0.41936 0.61508 0.0
C684 C 0.55604 0.38952 0.61938 0.0
C685 C 0.09417 0.43597 0.6166 0.0
C686 C 0.11616 0.43404 0.55356 0.0
C687 C 0.07402 0.46104 0.62249 0.0
C688 C 0.07641 0.48554 0.56843 0.0
H689 H 0.09198 0.41776 0.65994 0.0
H690 H 0.05622 0.46104 0.66932 0.0
S691 S 0.13082 0.49084 0.39307 0.0
N692 N 0.13935 0.45794 0.43483 0.0
N693 N 0.1024 0.506 0.44972 0.0
C694 C 0.09881 0.48399 0.5061 0.0
C695 C 0.11862 0.45804 0.49814 0.0
C696 C 1.0041 0.90531 0.81879 0.0
C697 C 0.02312 0.88126 0.84517 0.0
C698 C 0.01373 0.93446 0.83045 0.0
C699 C 0.04518 0.94054 0.84974 0.0
H700 H 0.97981 0.90156 0.8045 0.0
H701 H 0.99636 0.95222 0.82314 0.0
S702 S 0.10835 0.88356 0.89325 0.0
N703 N 0.07637 0.86403 0.87787 0.0
N704 N 0.09747 0.91891 0.87916 0.0
C705 C 0.06648 0.91603 0.86001 0.0
C706 C 0.05524 0.88629 0.85825 0.0
C707 C 0.63789 0.96276 0.85653 0.0
C708 C 0.62749 0.93422 0.8358 0.0
C709 C 0.61649 0.98711 0.8615 0.0
C710 C 0.58403 0.98348 0.84725 0.0
H711 H 0.66179 0.96556 0.87846 0.0
H712 H 0.62501 0.00817 0.88329 0.0
S713 S 0.54828 0.91441 0.76706 0.0
N714 N 0.58584 0.9052 0.78016 0.0
N715 N 0.54456 0.94945 0.79668 0.0
C716 C 0.5746 0.95553 0.81728 0.0
C717 C 0.59678 0.93146 0.80814 0.0
C718 C 0.45827 0.61429 0.81424 0.0
C719 C 0.48553 0.62316 0.85439 0.0
C720 C 0.44946 0.5845 0.8159 0.0
C721 C 0.46835 0.56237 0.85532 0.0
H722 H 0.44168 0.631 0.79036 0.0
H723 H 0.42719 0.57906 0.78796 0.0
S724 S 0.53606 0.57634 0.99005 0.0
N725 N 0.52875 0.60863 0.94425 0.0
N726 N 0.5118 0.55266 0.94838 0.0
C727 C 0.49578 0.57101 0.89543 0.0
C728 C 0.50498 0.60128 0.89289 0.0
C729 C 0.88923 0.55942 0.80828 0.0
C730 C 0.89179 0.57782 0.87743 0.0
C731 C 0.90428 0.53125 0.80501 0.0
C732 C 0.92393 0.52075 0.8686 0.0
H733 H 0.87485 0.56615 0.75654 0.0
H734 H 0.90056 0.51765 0.75201 0.0
S735 S 0.93875 0.55761 0.06402 0.0
N736 N 0.91665 0.58164 0.01191 0.0
N737 N 0.94464 0.52909 0.00272 0.0
C738 C 0.92764 0.53852 0.93655 0.0
C739 C 0.91205 0.56704 0.94118 0.0
C740 C 0.02615 0.14859 0.87431 0.0
C741 C 1.00413 0.16286 0.92719 0.0
C742 C 0.02008 0.1205 0.83857 0.0
C743 C 0.99213 0.10517 0.85639 0.0
H744 H 0.04876 0.15862 0.86319 0.0
H745 H 0.03756 0.11058 0.79795 0.0
S746 S 0.92879 0.13156 0.99927 0.0
N747 N 0.95415 0.15881 0.99778 0.0
N748 N 0.94337 0.10621 0.93612 0.0
C749 C 0.97025 0.11933 0.91009 0.0
C750 C 0.97604 0.148 0.94386 0.0
C751 C 0.38677 0.09445 0.92249 0.0
C752 C 0.36374 0.08129 0.97345 0.0
C753 C 0.41016 0.07718 0.88089 0.0
C754 C 0.41152 0.04591 0.88797 0.0
H755 H 0.38674 0.11843 0.91434 0.0
H756 H 0.42661 0.08833 0.84105 0.0
S757 S 0.35842 0.00018 0.01674 0.0
N758 N 0.34529 0.03475 0.03052 0.0
N759 N 0.3884 0.00255 0.95264 0.0
C760 C 0.38889 0.03251 0.93928 0.0
C761 C 0.36523 0.05003 0.98145 0.0
C762 C 0.54541 0.35973 0.9197 0.0
C763 C 0.51519 0.34757 0.92446 0.0
C764 C 0.55071 0.38642 0.87659 0.0
C765 C 0.52605 0.40257 0.83603 0.0
H766 H 0.56448 0.35025 0.95659 0.0
H767 H 0.57421 0.39535 0.87963 0.0
S768 S 0.44367 0.37712 0.81663 0.0
N769 N 0.46113 0.35148 0.87544 0.0
N770 N 0.47101 0.4015 0.794 0.0
C771 C 0.49631 0.3892 0.83405 0.0
C772 C 0.491 0.36178 0.87786 0.0
C773 C 0.11875 0.42527 0.95292 0.0
C774 C 0.15028 0.43572 0.95801 0.0
C775 C 0.09455 0.44071 0.9085 0.0
C776 C 0.10084 0.46682 0.86427 0.0
H777 H 0.11214 0.40526 0.98516 0.0
H778 H 0.07069 0.43257 0.91089 0.0
S779 S 0.18021 0.50016 0.83933 0.0
N780 N 0.18624 0.47249 0.90461 0.0
N781 N 0.14244 0.49916 0.81571 0.0
C782 C 0.13283 0.47561 0.86146 0.0
C783 C 0.15705 0.46066 0.90894 0.0
C784 C 0.03142 0.85625 0.56734 0.0
C785 C 1.00177 0.85173 0.53198 0.0
C786 C 0.03784 0.88297 0.60787 0.0
C787 C 0.01497 0.90652 0.61464 0.0
H788 H 0.05058 0.84011 0.55786 0.0
H789 H 0.06158 0.88566 0.63085 0.0
S790 S 0.93216 0.90393 0.54136 0.0
N791 N 0.94822 0.87159 0.51336 0.0
N792 N 0.9602 0.92168 0.58968 0.0
C793 C 0.98441 0.90121 0.58531 0.0
C794 C 0.97788 0.87392 0.54404 0.0
C795 C 0.65546 0.96171 0.5417 0.0
C796 C 0.6471 0.93725 0.4941 0.0
C797 C 0.63326 0.97689 0.59136 0.0
C798 C 0.60104 0.96892 0.59607 0.0
H799 H 0.67904 0.9704 0.53766 0.0
H800 H 0.6416 0.99593 0.62452 0.0
S801 S 0.56791 0.90253 0.49737 0.0
N802 N 0.60514 0.90232 0.46674 0.0
N803 N 0.56322 0.93206 0.55634 0.0
C804 C 0.59275 0.94313 0.55371 0.0
C805 C 0.61568 0.92714 0.50385 0.0
C806 C 0.52502 0.64023 0.55586 0.0
C807 C 0.49984 0.66071 0.53812 0.0
C808 C 0.51994 0.61298 0.59738 0.0
C809 C 0.48933 0.60485 0.62125 0.0
H810 H 0.54806 0.64369 0.52904 0.0
H811 H 0.53962 0.59721 0.60448 0.0
S812 S 0.41635 0.65291 0.59973 0.0
N813 N 0.44447 0.67291 0.55867 0.0
N814 N 0.43407 0.62173 0.63165 0.0
C815 C 0.46461 0.62655 0.61047 0.0
C816 C 0.47018 0.65457 0.57129 0.0
C817 C 0.87847 0.58559 0.54171 0.0
C818 C 0.86509 0.57375 0.47017 0.0
C819 C 0.90236 0.56978 0.58651 0.0
C820 C 0.9141 0.54166 0.5608 0.0
H821 H 0.87054 0.60737 0.56282 0.0
H822 H 0.91115 0.57932 0.64227 0.0
S823 S 0.89079 0.50321 0.37053 0.0
N824 N 0.86797 0.53368 0.37187 0.0
N825 N 0.9125 0.5043 0.45411 0.0
C826 C 0.90175 0.53035 0.48745 0.0
C827 C 0.87741 0.54621 0.4428 0.0
loop_
_geom_bond_atom_site_label_1
_geom_bond_atom_site_label_2
_geom_bond_distance
_geom_bond_site_symmetry_2
_ccdc_geom_bond_type
C0 C1 1.391 . S
C0 C4 1.391 . S
C0 H42 0.948 . S
C1 C0 1.391 . S
C1 C2 1.391 . S
C2 C1 1.391 . S
C2 H58 0.947 . S
C2 C59 1.392 . S
C3 C4 1.391 . S
C3 C7 1.397 . S
C3 C59 1.419 . S
C4 C0 1.391 . S
C4 C3 1.391 . S
C4 C5 1.399 . S
C5 C4 1.399 . S
C5 C8 1.396 . S
C5 C17 1.453 . S
C5 C18 1.684 . S
H6 C30 0.948 . S
C7 C3 1.397 . S
C7 C8 1.394 . S
C7 C26 1.723 . S
C8 C5 1.396 . S
C8 C7 1.394 . S
C8 C38 1.723 . S
H9 C32 0.947 . S
H10 C33 0.948 . S
H11 C39 0.982 . S
H12 C40 0.979 . S
H13 C40 0.980 . S
H14 C40 0.983 . S
H15 C39 0.979 . S
H16 C39 0.977 . S
C17 C5 1.453 . S
C17 H46 0.982 . S
C17 H47 0.979 . S
C17 H48 0.977 . S
C18 C5 1.684 . S
C18 H43 0.979 . S
C18 H44 0.980 . S
C18 H45 0.983 . S
C19 C20 1.391 . S
C19 C24 1.391 . S
C19 H49 0.948 . S
C20 C19 1.391 . S
C20 C21 1.391 . S
C21 C20 1.391 . S
C21 C22 1.392 . S
C21 H50 0.947 . S
C22 C21 1.392 . S
C22 C23 1.419 . S
C22 H51 0.948 . S
C23 C22 1.419 . S
C23 C24 1.391 . S
C23 C27 1.397 1_556 S
C24 C19 1.391 . S
C24 C23 1.391 . S
C24 C25 1.399 1_556 S
C25 C24 1.399 1_554 S
C25 C26 1.396 . S
C25 C28 1.453 . S
C25 C29 1.684 . S
C26 C7 1.723 . S
C26 C25 1.396 . S
C26 C27 1.394 . S
C27 C23 1.397 1_554 S
C27 C26 1.394 . S
C27 C37 1.723 . S
C28 C25 1.453 . S
C28 H52 0.982 . S
C28 H53 0.979 . S
C28 H54 0.977 . S
C29 C25 1.684 . S
C29 H55 0.979 . S
C29 H56 0.980 . S
C29 H57 0.983 . S
C30 H6 0.948 . S
C30 C31 1.391 1_556 S
C30 C35 1.391 1_556 S
C31 C30 1.391 1_554 S
C31 C32 1.391 . S
C32 H9 0.947 . S
C32 C31 1.391 . S
C32 C33 1.392 . S
C33 H10 0.948 . S
C33 C32 1.392 . S
C33 C34 1.419 . S
C34 C33 1.419 . S
C34 C35 1.391 . S
C34 C38 1.397 . S
C35 C30 1.391 1_554 S
C35 C34 1.391 . S
C35 C36 1.399 1_554 S
C36 C35 1.399 1_556 S
C36 C37 1.396 1_556 S
C36 C39 1.453 . S
C36 C40 1.684 . S
C37 C27 1.723 . S
C37 C36 1.396 1_554 S
C37 C38 1.394 . S
C38 C8 1.723 . S
C38 C34 1.397 . S
C38 C37 1.394 . S
C39 H11 0.982 . S
C39 H15 0.979 . S
C39 H16 0.977 . S
C39 C36 1.453 . S
C40 H12 0.979 . S
C40 H13 0.980 . S
C40 H14 0.983 . S
C40 C36 1.684 . S
H41 C59 0.948 . S
H42 C0 0.948 . S
H43 C18 0.979 . S
H44 C18 0.980 . S
H45 C18 0.983 . S
H46 C17 0.982 . S
H47 C17 0.979 . S
H48 C17 0.977 . S
H49 C19 0.948 . S
H50 C21 0.947 . S
H51 C22 0.948 . S
H52 C28 0.982 . S
H53 C28 0.979 . S
H54 C28 0.977 . S
H55 C29 0.979 . S
H56 C29 0.980 . S
H57 C29 0.983 . S
H58 C2 0.947 . S
C59 C2 1.392 . S
C59 C3 1.419 . S
C59 H41 0.948 . S
C60 C61 1.391 . S
C60 C64 1.391 . S
C60 H102 0.948 . S
C61 C60 1.391 . S
C61 C62 1.391 . S
C62 C61 1.391 . S
C62 H118 0.947 . S
C62 C119 1.392 1_556 S
C63 C64 1.391 1_554 S
C63 C67 1.397 1_655 S
C63 C119 1.419 . S
C64 C60 1.391 . S
C64 C63 1.391 1_556 S
C64 C65 1.399 . S
C65 C64 1.399 . S
C65 C68 1.396 1_656 S
C65 C77 1.453 1_655 S
C65 C78 1.684 . S
H66 C90 0.948 . S
C67 C63 1.397 1_455 S
C67 C68 1.394 . S
C67 C86 1.723 . S
C68 C65 1.396 1_454 S
C68 C67 1.394 . S
C68 C98 1.723 . S
H69 C92 0.947 . S
H70 C93 0.948 . S
H71 C99 0.982 . S
H72 C100 0.979 . S
H73 C100 0.980 . S
H74 C100 0.983 . S
H75 C99 0.979 . S
H76 C99 0.977 . S
C77 C65 1.453 1_455 S
C77 H106 0.982 . S
C77 H107 0.979 . S
C77 H108 0.977 . S
C78 C65 1.684 . S
C78 H103 0.979 . S
C78 H104 0.980 . S
C78 H105 0.983 . S
C79 C80 1.391 . S
C79 C84 1.391 . S
C79 H109 0.948 . S
C80 C79 1.391 . S
C80 C81 1.391 . S
C81 C80 1.391 . S
C81 C82 1.392 . S
C81 H110 0.947 . S
C82 C81 1.392 . S
C82 C83 1.419 . S
C82 H111 0.948 . S
C83 C82 1.419 . S
C83 C84 1.391 . S
C83 C87 1.397 1_655 S
C84 C79 1.391 . S
C84 C83 1.391 . S
C84 C85 1.399 . S
C85 C84 1.399 . S
C85 C86 1.396 1_655 S
C85 C88 1.453 1_655 S
C85 C89 1.684 . S
C86 C67 1.723 . S
C86 C85 1.396 1_455 S
C86 C87 1.394 . S
C87 C83 1.397 1_455 S
C87 C86 1.394 . S
C87 C97 1.723 . S
C88 C85 1.453 1_455 S
C88 H112 0.982 . S
C88 H113 0.979 . S
C88 H114 0.977 . S
C89 C85 1.684 . S
C89 H115 0.979 . S
C89 H116 0.980 . S
C89 H117 0.983 . S
C90 H66 0.948 . S
C90 C91 1.391 . S
C90 C95 1.391 . S
C91 C90 1.391 . S
C91 C92 1.391 1_554 S
C92 H69 0.947 . S
C92 C91 1.391 1_556 S
C92 C93 1.392 . S
C93 H70 0.948 . S
C93 C92 1.392 . S
C93 C94 1.419 1_556 S
C94 C93 1.419 1_554 S
C94 C95 1.391 . S
C94 C98 1.397 1_655 S
C95 C90 1.391 . S
C95 C94 1.391 . S
C95 C96 1.399 . S
C96 C95 1.399 . S
C96 C97 1.396 1_655 S
C96 C99 1.453 1_655 S
C96 C100 1.684 . S
C97 C87 1.723 . S
C97 C96 1.396 1_455 S
C97 C98 1.394 . S
C98 C68 1.723 . S
C98 C94 1.397 1_455 S
C98 C97 1.394 . S
C99 H71 0.982 . S
C99 H75 0.979 . S
C99 H76 0.977 . S
C99 C96 1.453 1_455 S
C100 H72 0.979 . S
C100 H73 0.980 . S
C100 H74 0.983 . S
C100 C96 1.684 . S
H101 C119 0.948 . S
H102 C60 0.948 . S
H103 C78 0.979 . S
H104 C78 0.980 . S
H105 C78 0.983 . S
H106 C77 0.982 . S
H107 C77 0.979 . S
H108 C77 0.977 . S
H109 C79 0.948 . S
H110 C81 0.947 . S
H111 C82 0.948 . S
H112 C88 0.982 . S
H113 C88 0.979 . S
H114 C88 0.977 . S
H115 C89 0.979 . S
H116 C89 0.980 . S
H117 C89 0.983 . S
H118 C62 0.947 . S
C119 C62 1.392 1_554 S
C119 C63 1.419 . S
C119 H101 0.948 . S
C120 C121 1.391 . S
C120 C124 1.391 . S
C120 H162 0.948 . S
C121 C120 1.391 . S
C121 C122 1.391 1_554 S
C122 C121 1.391 1_556 S
C122 H178 0.947 . S
C122 C179 1.392 . S
C123 C124 1.391 . S
C123 C127 1.397 . S
C123 C179 1.419 1_554 S
C124 C120 1.391 . S
C124 C123 1.391 . S
C124 C125 1.399 . S
C125 C124 1.399 . S
C125 C128 1.396 . S
C125 C137 1.453 . S
C125 C138 1.684 . S
H126 C150 0.948 . S
C127 C123 1.397 . S
C127 C128 1.394 . S
C127 C146 1.723 . S
C128 C125 1.396 . S
C128 C127 1.394 . S
C128 C158 1.723 . S
H129 C152 0.947 . S
H130 C153 0.948 . S
H131 C159 0.982 . S
H132 C160 0.979 . S
H133 C160 0.980 . S
H134 C160 0.983 . S
H135 C159 0.979 . S
H136 C159 0.977 . S
C137 C125 1.453 . S
C137 H166 0.982 . S
C137 H167 0.979 . S
C137 H168 0.977 . S
C138 C125 1.684 . S
C138 H163 0.979 . S
C138 H164 0.980 . S
C138 H165 0.983 . S
C139 C140 1.391 . S
C139 C144 1.391 . S
C139 H169 0.948 . S
C140 C139 1.391 . S
C140 C141 1.391 . S
C141 C140 1.391 . S
C141 C142 1.392 1_556 S
C141 H170 0.947 . S
C142 C141 1.392 1_554 S
C142 C143 1.419 . S
C142 H171 0.948 . S
C143 C142 1.419 . S
C143 C144 1.391 1_554 S
C143 C147 1.397 . S
C144 C139 1.391 . S
C144 C143 1.391 1_556 S
C144 C145 1.399 . S
C145 C144 1.399 . S
C145 C146 1.396 1_556 S
C145 C148 1.453 . S
C145 C149 1.684 . S
C146 C127 1.723 . S
C146 C145 1.396 1_554 S
C146 C147 1.394 . S
C147 C143 1.397 . S
C147 C146 1.394 . S
C147 C157 1.723 . S
C148 C145 1.453 . S
C148 H172 0.982 . S
C148 H173 0.979 . S
C148 H174 0.977 . S
C149 C145 1.684 . S
C149 H175 0.979 . S
C149 H176 0.980 . S
C149 H177 0.983 . S
C150 H126 0.948 . S
C150 C151 1.391 . S
C150 C155 1.391 . S
C151 C150 1.391 . S
C151 C152 1.391 . S
C152 H129 0.947 . S
C152 C151 1.391 . S
C152 C153 1.392 . S
C153 H130 0.948 . S
C153 C152 1.392 . S
C153 C154 1.419 . S
C154 C153 1.419 . S
C154 C155 1.391 . S
C154 C158 1.397 . S
C155 C150 1.391 . S
C155 C154 1.391 . S
C155 C156 1.399 . S
C156 C155 1.399 . S
C156 C157 1.396 . S
C156 C159 1.453 . S
C156 C160 1.684 . S
C157 C147 1.723 . S
C157 C156 1.396 . S
C157 C158 1.394 . S
C158 C128 1.723 . S
C158 C154 1.397 . S
C158 C157 1.394 . S
C159 H131 0.982 . S
C159 H135 0.979 . S
C159 H136 0.977 . S
C159 C156 1.453 . S
C160 H132 0.979 . S
C160 H133 0.980 . S
C160 H134 0.983 . S
C160 C156 1.684 . S
H161 C179 0.948 . S
H162 C120 0.948 . S
H163 C138 0.979 . S
H164 C138 0.980 . S
H165 C138 0.983 . S
H166 C137 0.982 . S
H167 C137 0.979 . S
H168 C137 0.977 . S
H169 C139 0.948 . S
H170 C141 0.947 . S
H171 C142 0.948 . S
H172 C148 0.982 . S
H173 C148 0.979 . S
H174 C148 0.977 . S
H175 C149 0.979 . S
H176 C149 0.980 . S
H177 C149 0.983 . S
H178 C122 0.947 . S
C179 C122 1.392 . S
C179 C123 1.419 1_556 S
C179 H161 0.948 . S
C180 C181 1.391 . S
C180 C184 1.391 . S
C180 H222 0.948 . S
C181 C180 1.391 . S
C181 C182 1.391 . S
C182 C181 1.391 . S
C182 H238 0.947 . S
C182 C239 1.392 . S
C183 C184 1.391 . S
C183 C187 1.397 . S
C183 C239 1.419 . S
C184 C180 1.391 . S
C184 C183 1.391 . S
C184 C185 1.399 . S
C185 C184 1.399 . S
C185 C188 1.396 . S
C185 C197 1.453 . S
C185 C198 1.684 . S
H186 C210 0.948 1_556 S
C187 C183 1.397 . S
C187 C188 1.394 . S
C187 C206 1.723 . S
C188 C185 1.396 . S
C188 C187 1.394 . S
C188 C218 1.723 . S
H189 C212 0.947 . S
H190 C213 0.948 . S
H191 C219 0.982 . S
H192 C220 0.979 . S
H193 C220 0.980 . S
H194 C220 0.983 . S
H195 C219 0.979 . S
H196 C219 0.977 . S
C197 C185 1.453 . S
C197 H226 0.982 . S
C197 H227 0.979 . S
C197 H228 0.977 . S
C198 C185 1.684 . S
C198 H223 0.979 . S
C198 H224 0.980 . S
C198 H225 0.983 . S
C199 C200 1.391 . S
C199 C204 1.391 1_556 S
C199 H229 0.948 . S
C200 C199 1.391 . S
C200 C201 1.391 . S
C201 C200 1.391 . S
C201 C202 1.392 . S
C201 H230 0.947 . S
C202 C201 1.392 . S
C202 C203 1.419 . S
C202 H231 0.948 . S
C203 C202 1.419 . S
C203 C204 1.391 1_556 S
C203 C207 1.397 1_556 S
C204 C199 1.391 1_554 S
C204 C203 1.391 1_554 S
C204 C205 1.399 . S
C205 C204 1.399 . S
C205 C206 1.396 . S
C205 C208 1.453 . S
C205 C209 1.684 . S
C206 C187 1.723 . S
C206 C205 1.396 . S
C206 C207 1.394 . S
C207 C203 1.397 1_554 S
C207 C206 1.394 . S
C207 C217 1.723 . S
C208 C205 1.453 . S
C208 H232 0.982 . S
C208 H233 0.979 . S
C208 H234 0.977 . S
C209 C205 1.684 . S
C209 H235 0.979 . S
C209 H236 0.980 . S
C209 H237 0.983 . S
C210 H186 0.948 1_554 S
C210 C211 1.391 . S
C210 C215 1.391 . S
C211 C210 1.391 . S
C211 C212 1.391 . S
C212 H189 0.947 . S
C212 C211 1.391 . S
C212 C213 1.392 . S
C213 H190 0.948 . S
C213 C212 1.392 . S
C213 C214 1.419 . S
C214 C213 1.419 . S
C214 C215 1.391 . S
C214 C218 1.397 . S
C215 C210 1.391 . S
C215 C214 1.391 . S
C215 C216 1.399 1_554 S
C216 C215 1.399 1_556 S
C216 C217 1.396 1_556 S
C216 C219 1.453 . S
C216 C220 1.684 . S
C217 C207 1.723 . S
C217 C216 1.396 1_554 S
C217 C218 1.394 . S
C218 C188 1.723 . S
C218 C214 1.397 . S
C218 C217 1.394 . S
C219 H191 0.982 . S
C219 H195 0.979 . S
C219 H196 0.977 . S
C219 C216 1.453 . S
C220 H192 0.979 . S
C220 H193 0.980 . S
C220 H194 0.983 . S
C220 C216 1.684 . S
H221 C239 0.948 . S
H222 C180 0.948 . S
H223 C198 0.979 . S
H224 C198 0.980 . S
H225 C198 0.983 . S
H226 C197 0.982 . S
H227 C197 0.979 . S
H228 C197 0.977 . S
H229 C199 0.948 . S
H230 C201 0.947 . S
H231 C202 0.948 . S
H232 C208 0.982 . S
H233 C208 0.979 . S
H234 C208 0.977 . S
H235 C209 0.979 . S
H236 C209 0.980 . S
H237 C209 0.983 . S
H238 C182 0.947 . S
C239 C182 1.392 . S
C239 C183 1.419 . S
C239 H221 0.948 . S
C240 C241 1.391 . S
C240 C244 1.391 . S
C240 H282 0.948 . S
C241 C240 1.391 . S
C241 C242 1.391 . S
C242 C241 1.391 . S
C242 H298 0.947 . S
C242 C299 1.392 . S
C243 C244 1.391 . S
C243 C247 1.397 . S
C243 C299 1.419 . S
C244 C240 1.391 . S
C244 C243 1.391 . S
C244 C245 1.399 . S
C245 C244 1.399 . S
C245 C248 1.396 . S
C245 C257 1.453 . S
C245 C258 1.684 . S
H246 C270 0.948 . S
C247 C243 1.397 . S
C247 C248 1.394 . S
C247 C266 1.723 . S
C248 C245 1.396 . S
C248 C247 1.394 . S
C248 C278 1.723 . S
H249 C272 0.947 1_556 S
H250 C273 0.948 . S
H251 C279 0.982 . S
H252 C280 0.979 . S
H253 C280 0.980 . S
H254 C280 0.983 . S
H255 C279 0.979 . S
H256 C279 0.977 . S
C257 C245 1.453 . S
C257 H286 0.982 . S
C257 H287 0.979 . S
C257 H288 0.977 . S
C258 C245 1.684 . S
C258 H283 0.979 . S
C258 H284 0.980 . S
C258 H285 0.983 . S
C259 C260 1.391 . S
C259 C264 1.391 . S
C259 H289 0.948 . S
C260 C259 1.391 . S
C260 C261 1.391 . S
C261 C260 1.391 . S
C261 C262 1.392 . S
C261 H290 0.947 . S
C262 C261 1.392 . S
C262 C263 1.419 . S
C262 H291 0.948 . S
C263 C262 1.419 . S
C263 C264 1.391 . S
C263 C267 1.397 . S
C264 C259 1.391 . S
C264 C263 1.391 . S
C264 C265 1.399 . S
C265 C264 1.399 . S
C265 C266 1.396 . S
C265 C268 1.453 . S
C265 C269 1.684 . S
C266 C247 1.723 . S
C266 C265 1.396 . S
C266 C267 1.394 . S
C267 C263 1.397 . S
C267 C266 1.394 . S
C267 C277 1.723 . S
C268 C265 1.453 . S
C268 H292 0.982 . S
C268 H293 0.979 . S
C268 H294 0.977 . S
C269 C265 1.684 . S
C269 H295 0.979 . S
C269 H296 0.980 . S
C269 H297 0.983 . S
C270 H246 0.948 . S
C270 C271 1.391 . S
C270 C275 1.391 . S
C271 C270 1.391 . S
C271 C272 1.391 . S
C272 H249 0.947 1_554 S
C272 C271 1.391 . S
C272 C273 1.392 . S
C273 H250 0.948 . S
C273 C272 1.392 . S
C273 C274 1.419 . S
C274 C273 1.419 . S
C274 C275 1.391 . S
C274 C278 1.397 . S
C275 C270 1.391 . S
C275 C274 1.391 . S
C275 C276 1.399 . S
C276 C275 1.399 . S
C276 C277 1.396 . S
C276 C279 1.453 . S
C276 C280 1.684 . S
C277 C267 1.723 . S
C277 C276 1.396 . S
C277 C278 1.394 . S
C278 C248 1.723 . S
C278 C274 1.397 . S
C278 C277 1.394 . S
C279 H251 0.982 . S
C279 H255 0.979 . S
C279 H256 0.977 . S
C279 C276 1.453 . S
C280 H252 0.979 . S
C280 H253 0.980 . S
C280 H254 0.983 . S
C280 C276 1.684 . S
H281 C299 0.948 . S
H282 C240 0.948 . S
H283 C258 0.979 . S
H284 C258 0.980 . S
H285 C258 0.983 . S
H286 C257 0.982 . S
H287 C257 0.979 . S
H288 C257 0.977 . S
H289 C259 0.948 . S
H290 C261 0.947 . S
H291 C262 0.948 . S
H292 C268 0.982 . S
H293 C268 0.979 . S
H294 C268 0.977 . S
H295 C269 0.979 . S
H296 C269 0.980 . S
H297 C269 0.983 . S
H298 C242 0.947 . S
C299 C242 1.392 . S
C299 C243 1.419 . S
C299 H281 0.948 . S
C300 C301 1.391 . S
C300 C304 1.391 . S
C300 H342 0.948 . S
C301 C300 1.391 . S
C301 C302 1.391 . S
C302 C301 1.391 . S
C302 H358 0.947 . S
C302 C359 1.392 . S
C303 C304 1.391 . S
C303 C307 1.396 1_655 S
C303 C359 1.419 . S
C304 C300 1.391 . S
C304 C303 1.391 . S
C304 C305 1.399 . S
C305 C304 1.399 . S
C305 C308 1.396 1_655 S
C305 C317 1.453 1_655 S
C305 C318 1.684 . S
H306 C330 0.948 . S
C307 C303 1.396 1_455 S
C307 C308 1.395 . S
C307 C326 1.723 . S
C308 C305 1.396 1_455 S
C308 C307 1.395 . S
C308 C338 1.723 . S
H309 C332 0.947 . S
H310 C333 0.948 . S
H311 C339 0.982 . S
H312 C340 0.979 . S
H313 C340 0.980 . S
H314 C340 0.983 . S
H315 C339 0.979 . S
H316 C339 0.977 . S
C317 C305 1.453 1_455 S
C317 H346 0.982 . S
C317 H347 0.979 . S
C317 H348 0.977 . S
C318 C305 1.684 . S
C318 H343 0.979 . S
C318 H344 0.980 . S
C318 H345 0.983 . S
C319 C320 1.391 1_554 S
C319 C324 1.391 . S
C319 H349 0.948 . S
C320 C319 1.391 1_556 S
C320 C321 1.391 1_556 S
C321 C320 1.391 1_554 S
C321 C322 1.392 . S
C321 H350 0.947 1_554 S
C322 C321 1.392 . S
C322 C323 1.419 . S
C322 H351 0.948 . S
C323 C322 1.419 . S
C323 C324 1.391 . S
C323 C327 1.396 1_655 S
C324 C319 1.391 . S
C324 C323 1.391 . S
C324 C325 1.399 . S
C325 C324 1.399 . S
C325 C326 1.396 1_655 S
C325 C328 1.453 1_655 S
C325 C329 1.684 . S
C326 C307 1.723 . S
C326 C325 1.396 1_455 S
C326 C327 1.394 . S
C327 C323 1.396 1_455 S
C327 C326 1.394 . S
C327 C337 1.723 . S
C328 C325 1.453 1_455 S
C328 H352 0.982 . S
C328 H353 0.979 . S
C328 H354 0.977 . S
C329 C325 1.684 . S
C329 H355 0.979 . S
C329 H356 0.980 . S
C329 H357 0.983 . S
C330 H306 0.948 . S
C330 C331 1.391 . S
C330 C335 1.391 . S
C331 C330 1.391 . S
C331 C332 1.391 . S
C332 H309 0.947 . S
C332 C331 1.391 . S
C332 C333 1.392 . S
C333 H310 0.948 . S
C333 C332 1.392 . S
C333 C334 1.419 . S
C334 C333 1.419 . S
C334 C335 1.391 . S
C334 C338 1.397 1_655 S
C335 C330 1.391 . S
C335 C334 1.391 . S
C335 C336 1.399 . S
C336 C335 1.399 . S
C336 C337 1.396 1_655 S
C336 C339 1.453 1_655 S
C336 C340 1.684 . S
C337 C327 1.723 . S
C337 C336 1.396 1_455 S
C337 C338 1.395 . S
C338 C308 1.723 . S
C338 C334 1.397 1_455 S
C338 C337 1.395 . S
C339 H311 0.982 . S
C339 H315 0.979 . S
C339 H316 0.977 . S
C339 C336 1.453 1_455 S
C340 H312 0.979 . S
C340 H313 0.980 . S
C340 H314 0.983 . S
C340 C336 1.684 . S
H341 C359 0.948 . S
H342 C300 0.948 . S
H343 C318 0.979 . S
H344 C318 0.980 . S
H345 C318 0.983 . S
H346 C317 0.982 . S
H347 C317 0.979 . S
H348 C317 0.977 . S
H349 C319 0.948 . S
H350 C321 0.947 1_556 S
H351 C322 0.948 . S
H352 C328 0.982 . S
H353 C328 0.979 . S
H354 C328 0.977 . S
H355 C329 0.979 . S
H356 C329 0.980 . S
H357 C329 0.983 . S
H358 C302 0.947 . S
C359 C302 1.392 . S
C359 C303 1.419 . S
C359 H341 0.948 . S
C360 C361 1.391 . S
C360 C364 1.391 . S
C360 H402 0.949 . S
C361 C360 1.391 . S
C361 C362 1.391 . S
C362 C361 1.391 . S
C362 H418 0.947 . S
C362 C419 1.392 . S
C363 C364 1.391 . S
C363 C367 1.397 . S
C363 C419 1.419 . S
C364 C360 1.391 . S
C364 C363 1.391 . S
C364 C365 1.399 . S
C365 C364 1.399 . S
C365 C368 1.396 . S
C365 C377 1.453 . S
C365 C378 1.684 . S
H366 C390 0.948 . S
C367 C363 1.397 . S
C367 C368 1.394 . S
C367 C386 1.723 . S
C368 C365 1.396 . S
C368 C367 1.394 . S
C368 C398 1.723 . S
H369 C392 0.947 . S
H370 C393 0.948 . S
H371 C399 0.982 . S
H372 C400 0.979 . S
H373 C400 0.980 . S
H374 C400 0.983 . S
H375 C399 0.979 . S
H376 C399 0.977 . S
C377 C365 1.453 . S
C377 H406 0.982 . S
C377 H407 0.979 . S
C377 H408 0.977 . S
C378 C365 1.684 . S
C378 H403 0.979 . S
C378 H404 0.980 . S
C378 H405 0.983 . S
C379 C380 1.391 . S
C379 C384 1.391 . S
C379 H409 0.948 . S
C380 C379 1.391 . S
C380 C381 1.391 . S
C381 C380 1.391 . S
C381 C382 1.392 . S
C381 H410 0.947 . S
C382 C381 1.392 . S
C382 C383 1.419 . S
C382 H411 0.948 . S
C383 C382 1.419 . S
C383 C384 1.391 . S
C383 C387 1.397 . S
C384 C379 1.391 . S
C384 C383 1.391 . S
C384 C385 1.399 . S
C385 C384 1.399 . S
C385 C386 1.396 . S
C385 C388 1.453 . S
C385 C389 1.684 . S
C386 C367 1.723 . S
C386 C385 1.396 . S
C386 C387 1.394 . S
C387 C383 1.397 . S
C387 C386 1.394 . S
C387 C397 1.723 . S
C388 C385 1.453 . S
C388 H412 0.982 . S
C388 H413 0.979 . S
C388 H414 0.977 . S
C389 C385 1.684 . S
C389 H415 0.979 . S
C389 H416 0.980 . S
C389 H417 0.983 . S
C390 H366 0.948 . S
C390 C391 1.391 . S
C390 C395 1.391 . S
C391 C390 1.391 . S
C391 C392 1.391 . S
C392 H369 0.947 . S
C392 C391 1.391 . S
C392 C393 1.392 . S
C393 H370 0.948 . S
C393 C392 1.392 . S
C393 C394 1.419 . S
C394 C393 1.419 . S
C394 C395 1.391 . S
C394 C398 1.397 . S
C395 C390 1.391 . S
C395 C394 1.391 . S
C395 C396 1.399 . S
C396 C395 1.399 . S
C396 C397 1.396 . S
C396 C399 1.453 . S
C396 C400 1.684 . S
C397 C387 1.723 . S
C397 C396 1.396 . S
C397 C398 1.394 . S
C398 C368 1.723 . S
C398 C394 1.397 . S
C398 C397 1.394 . S
C399 H371 0.982 . S
C399 H375 0.979 . S
C399 H376 0.977 . S
C399 C396 1.453 . S
C400 H372 0.979 . S
C400 H373 0.980 . S
C400 H374 0.983 . S
C400 C396 1.684 . S
H401 C419 0.948 . S
H402 C360 0.949 . S
H403 C378 0.979 . S
H404 C378 0.980 . S
H405 C378 0.983 . S
H406 C377 0.982 . S
H407 C377 0.979 . S
H408 C377 0.977 . S
H409 C379 0.948 . S
H410 C381 0.947 . S
H411 C382 0.948 . S
H412 C388 0.982 . S
H413 C388 0.979 . S
H414 C388 0.977 . S
H415 C389 0.979 . S
H416 C389 0.980 . S
H417 C389 0.983 . S
H418 C362 0.947 . S
C419 C362 1.392 . S
C419 C363 1.419 . S
C419 H401 0.948 . S
C420 C421 1.391 1_554 S
C420 C424 1.391 . S
C420 H462 0.948 1_554 S
C421 C420 1.391 1_556 S
C421 C422 1.391 1_556 S
C422 C421 1.391 1_554 S
C422 H478 0.947 . S
C422 C479 1.392 . S
C423 C424 1.391 . S
C423 C427 1.397 . S
C423 C479 1.419 . S
C424 C420 1.391 . S
C424 C423 1.391 . S
C424 C425 1.399 . S
C425 C424 1.399 . S
C425 C428 1.396 . S
C425 C437 1.453 . S
C425 C438 1.684 . S
H426 C450 0.948 . S
C427 C423 1.397 . S
C427 C428 1.394 . S
C427 C446 1.723 . S
C428 C425 1.396 . S
C428 C427 1.394 . S
C428 C458 1.723 . S
H429 C452 0.947 . S
H430 C453 0.948 . S
H431 C459 0.982 . S
H432 C460 0.979 . S
H433 C460 0.980 . S
H434 C460 0.983 . S
H435 C459 0.979 . S
H436 C459 0.977 . S
C437 C425 1.453 . S
C437 H466 0.982 . S
C437 H467 0.979 . S
C437 H468 0.977 . S
C438 C425 1.684 . S
C438 H463 0.979 . S
C438 H464 0.980 . S
C438 H465 0.983 . S
C439 C440 1.391 . S
C439 C444 1.391 . S
C439 H469 0.948 . S
C440 C439 1.391 . S
C440 C441 1.391 . S
C441 C440 1.391 . S
C441 C442 1.392 . S
C441 H470 0.947 . S
C442 C441 1.392 . S
C442 C443 1.419 . S
C442 H471 0.948 . S
C443 C442 1.419 . S
C443 C444 1.391 . S
C443 C447 1.397 . S
C444 C439 1.391 . S
C444 C443 1.391 . S
C444 C445 1.399 . S
C445 C444 1.399 . S
C445 C446 1.396 . S
C445 C448 1.453 . S
C445 C449 1.684 . S
C446 C427 1.723 . S
C446 C445 1.396 . S
C446 C447 1.394 . S
C447 C443 1.397 . S
C447 C446 1.394 . S
C447 C457 1.723 . S
C448 C445 1.453 . S
C448 H472 0.982 . S
C448 H473 0.979 . S
C448 H474 0.977 . S
C449 C445 1.684 . S
C449 H475 0.979 . S
C449 H476 0.980 . S
C449 H477 0.983 . S
C450 H426 0.948 . S
C450 C451 1.391 . S
C450 C455 1.391 . S
C451 C450 1.391 . S
C451 C452 1.391 . S
C452 H429 0.947 . S
C452 C451 1.391 . S
C452 C453 1.392 . S
C453 H430 0.948 . S
C453 C452 1.392 . S
C453 C454 1.419 . S
C454 C453 1.419 . S
C454 C455 1.391 . S
C454 C458 1.397 . S
C455 C450 1.391 . S
C455 C454 1.391 . S
C455 C456 1.399 . S
C456 C455 1.399 . S
C456 C457 1.396 . S
C456 C459 1.453 . S
C456 C460 1.684 . S
C457 C447 1.723 . S
C457 C456 1.396 . S
C457 C458 1.394 . S
C458 C428 1.723 . S
C458 C454 1.397 . S
C458 C457 1.394 . S
C459 H431 0.982 . S
C459 H435 0.979 . S
C459 H436 0.977 . S
C459 C456 1.453 . S
C460 H432 0.979 . S
C460 H433 0.980 . S
C460 H434 0.983 . S
C460 C456 1.684 . S
H461 C479 0.948 . S
H462 C420 0.948 1_556 S
H463 C438 0.979 . S
H464 C438 0.980 . S
H465 C438 0.983 . S
H466 C437 0.982 . S
H467 C437 0.979 . S
H468 C437 0.977 . S
H469 C439 0.948 . S
H470 C441 0.947 . S
H471 C442 0.948 . S
H472 C448 0.982 . S
H473 C448 0.979 . S
H474 C448 0.977 . S
H475 C449 0.979 . S
H476 C449 0.980 . S
H477 C449 0.983 . S
H478 C422 0.947 . S
C479 C422 1.392 . S
C479 C423 1.419 . S
C479 H461 0.948 . S
O480 Mg481 1.990 . S
O480 C494 1.253 . S
Mg481 O480 1.990 . S
Mg481 O484 2.180 1_565 S
Mg481 O485 2.117 . S
Mg481 O499 2.030 . S
O482 Mg483 2.072 1_465 S
O482 C494 1.260 . S
Mg483 O482 2.072 1_645 S
Mg483 O484 2.099 1_655 S
Mg483 O486 2.079 . S
Mg483 O487 2.072 1_655 S
Mg483 O489 2.099 . S
Mg483 O500 2.079 1_545 S
O484 Mg481 2.180 1_545 S
O484 Mg483 2.099 1_455 S
O484 C495 1.279 . S
O485 Mg481 2.117 . S
O485 C495 1.250 1_565 S
O486 Mg483 2.079 . S
O486 C496 1.264 . S
O487 Mg483 2.072 1_455 S
O487 C497 1.260 . S
Mg488 O489 2.180 . S
Mg488 O490 2.030 . S
Mg488 O491 1.990 . S
Mg488 O492 2.117 . S
O489 Mg483 2.099 . S
O489 Mg488 2.180 . S
O489 C498 1.279 . S
O490 Mg488 2.030 . S
O490 C496 1.248 . S
O491 Mg488 1.990 . S
O491 C497 1.253 1_655 S
O492 Mg488 2.117 . S
O492 C498 1.250 . S
C493 O499 1.248 1_655 S
C493 O500 1.264 . S
C494 O480 1.253 . S
C494 O482 1.260 . S
C495 O484 1.279 . S
C495 O485 1.250 1_545 S
C496 O486 1.264 . S
C496 O490 1.248 . S
C497 O487 1.260 . S
C497 O491 1.253 1_455 S
C498 O489 1.279 . S
C498 O492 1.250 . S
O499 Mg481 2.030 . S
O499 C493 1.248 1_455 S
O500 Mg483 2.079 1_565 S
O500 C493 1.264 . S
O501 Mg502 1.990 1_545 S
O501 C515 1.253 . S
Mg502 O501 1.990 1_565 S
Mg502 O505 2.180 . S
Mg502 O506 2.117 . S
Mg502 O520 2.030 1_565 S
O503 Mg504 2.072 . S
O503 C515 1.260 . S
Mg504 O503 2.072 . S
Mg504 O505 2.099 1_545 S
Mg504 O507 2.079 1_545 S
Mg504 O508 2.072 1_545 S
Mg504 O510 2.099 . S
Mg504 O521 2.079 . S
O505 Mg502 2.180 . S
O505 Mg504 2.099 1_565 S
O505 C516 1.279 . S
O506 Mg502 2.117 . S
O506 C516 1.250 . S
O507 Mg504 2.079 1_565 S
O507 C517 1.264 . S
O508 Mg504 2.072 1_565 S
O508 C518 1.260 1_565 S
Mg509 O510 2.180 . S
Mg509 O511 2.030 1_545 S
Mg509 O512 1.990 . S
Mg509 O513 2.117 . S
O510 Mg504 2.099 . S
O510 Mg509 2.180 . S
O510 C519 1.279 . S
O511 Mg509 2.030 1_565 S
O511 C517 1.248 . S
O512 Mg509 1.990 . S
O512 C518 1.253 . S
O513 Mg509 2.117 . S
O513 C519 1.250 . S
C514 O520 1.248 . S
C514 O521 1.264 . S
C515 O501 1.253 . S
C515 O503 1.260 . S
C516 O505 1.279 . S
C516 O506 1.250 . S
C517 O507 1.264 . S
C517 O511 1.248 . S
C518 O508 1.260 1_545 S
C518 O512 1.253 . S
C519 O510 1.279 . S
C519 O513 1.250 . S
O520 Mg502 2.030 1_545 S
O520 C514 1.248 . S
O521 Mg504 2.079 . S
O521 C514 1.264 . S
O522 Mg523 1.990 . S
O522 C536 1.253 . S
Mg523 O522 1.990 . S
Mg523 O526 2.180 . S
Mg523 O527 2.117 . S
Mg523 O541 2.030 . S
O524 Mg525 2.072 . S
O524 C536 1.260 . S
Mg525 O524 2.072 . S
Mg525 O526 2.099 . S
Mg525 O528 2.079 . S
Mg525 O529 2.072 . S
Mg525 O531 2.099 . S
Mg525 O542 2.079 . S
O526 Mg523 2.180 . S
O526 Mg525 2.099 . S
O526 C537 1.279 . S
O527 Mg523 2.117 . S
O527 C537 1.250 . S
O528 Mg525 2.079 . S
O528 C538 1.264 . S
O529 Mg525 2.072 . S
O529 C539 1.260 . S
Mg530 O531 2.180 . S
Mg530 O532 2.030 . S
Mg530 O533 1.990 . S
Mg530 O534 2.117 . S
O531 Mg525 2.099 . S
O531 Mg530 2.180 . S
O531 C540 1.279 . S
O532 Mg530 2.030 . S
O532 C538 1.248 . S
O533 Mg530 1.990 . S
O533 C539 1.253 . S
O534 Mg530 2.117 . S
O534 C540 1.250 . S
C535 O541 1.248 . S
C535 O542 1.264 . S
C536 O522 1.253 . S
C536 O524 1.260 . S
C537 O526 1.279 . S
C537 O527 1.250 . S
C538 O528 1.264 . S
C538 O532 1.248 . S
C539 O529 1.260 . S
C539 O533 1.253 . S
C540 O531 1.279 . S
C540 O534 1.250 . S
O541 Mg523 2.030 . S
O541 C535 1.248 . S
O542 Mg525 2.079 . S
O542 C535 1.264 . S
O543 Mg544 1.990 . S
O543 C557 1.253 . S
Mg544 O543 1.990 . S
Mg544 O547 2.180 . S
Mg544 O548 2.117 . S
Mg544 O562 2.030 . S
O545 Mg546 2.072 1_655 S
O545 C557 1.260 . S
Mg546 O545 2.072 1_455 S
Mg546 O547 2.099 1_455 S
Mg546 O549 2.079 . S
Mg546 O550 2.072 . S
Mg546 O552 2.099 . S
Mg546 O563 2.079 1_455 S
O547 Mg544 2.180 . S
O547 Mg546 2.099 1_655 S
O547 C558 1.279 . S
O548 Mg544 2.117 . S
O548 C558 1.250 . S
O549 Mg546 2.079 . S
O549 C559 1.264 . S
O550 Mg546 2.072 . S
O550 C560 1.260 . S
Mg551 O552 2.180 . S
Mg551 O553 2.030 . S
Mg551 O554 1.990 . S
Mg551 O555 2.117 . S
O552 Mg546 2.099 . S
O552 Mg551 2.180 . S
O552 C561 1.279 . S
O553 Mg551 2.030 . S
O553 C559 1.248 . S
O554 Mg551 1.990 . S
O554 C560 1.253 . S
O555 Mg551 2.117 . S
O555 C561 1.250 . S
C556 O562 1.248 . S
C556 O563 1.264 . S
C557 O543 1.253 . S
C557 O545 1.260 . S
C558 O547 1.279 . S
C558 O548 1.250 . S
C559 O549 1.264 . S
C559 O553 1.248 . S
C560 O550 1.260 . S
C560 O554 1.253 . S
C561 O552 1.279 . S
C561 O555 1.250 . S
O562 Mg544 2.030 . S
O562 C556 1.248 . S
O563 Mg546 2.079 1_655 S
O563 C556 1.264 . S
C564 C565 1.369 . S
C564 C566 1.419 . S
C564 H568 0.930 . S
C565 C564 1.369 . S
C565 C574 1.429 . S
C566 C564 1.419 . S
C566 C567 1.363 . S
C566 H569 0.929 . S
C567 C566 1.363 . S
C567 C573 1.428 . S
H568 C564 0.930 . S
H569 C566 0.929 . S
S570 N571 1.613 . S
S570 N572 1.610 . S
N571 S570 1.613 . S
N571 C574 1.350 . S
N572 S570 1.610 . S
N572 C573 1.351 . S
C573 C567 1.428 . S
C573 N572 1.351 . S
C573 C574 1.434 . S
C574 C565 1.429 . S
C574 N571 1.350 . S
C574 C573 1.434 . S
C575 C576 1.369 . S
C575 C577 1.419 . S
C575 H579 0.930 . S
C576 C575 1.369 . S
C576 C585 1.429 . S
C577 C575 1.419 . S
C577 C578 1.363 . S
C577 H580 0.929 . S
C578 C577 1.363 . S
C578 C584 1.428 . S
H579 C575 0.930 . S
H580 C577 0.929 . S
S581 N582 1.613 . S
S581 N583 1.610 . S
N582 S581 1.613 . S
N582 C585 1.350 . S
N583 S581 1.610 . S
N583 C584 1.351 . S
C584 C578 1.428 . S
C584 N583 1.351 . S
C584 C585 1.434 . S
C585 C576 1.429 . S
C585 N582 1.350 . S
C585 C584 1.434 . S
C586 C587 1.369 . S
C586 C588 1.419 . S
C586 H590 0.930 . S
C587 C586 1.369 . S
C587 C596 1.429 . S
C588 C586 1.419 . S
C588 C589 1.363 . S
C588 H591 0.929 . S
C589 C588 1.363 . S
C589 C595 1.428 . S
H590 C586 0.930 . S
H591 C588 0.929 . S
S592 N593 1.613 . S
S592 N594 1.610 . S
N593 S592 1.613 . S
N593 C596 1.350 . S
N594 S592 1.610 . S
N594 C595 1.351 . S
C595 C589 1.428 . S
C595 N594 1.351 . S
C595 C596 1.434 . S
C596 C587 1.429 . S
C596 N593 1.350 . S
C596 C595 1.434 . S
C597 C598 1.369 1_455 S
C597 C599 1.419 . S
C597 H601 0.930 . S
C598 C597 1.369 1_655 S
C598 C607 1.429 . S
C599 C597 1.419 . S
C599 C600 1.363 1_455 S
C599 H602 0.929 . S
C600 C599 1.363 1_655 S
C600 C606 1.428 . S
H601 C597 0.930 . S
H602 C599 0.929 . S
S603 N604 1.613 . S
S603 N605 1.610 . S
N604 S603 1.613 . S
N604 C607 1.350 . S
N605 S603 1.610 . S
N605 C606 1.351 . S
C606 C600 1.428 . S
C606 N605 1.351 . S
C606 C607 1.434 . S
C607 C598 1.429 . S
C607 N604 1.350 . S
C607 C606 1.434 . S
C608 C609 1.369 . S
C608 C610 1.419 . S
C608 H612 0.930 1_556 S
C609 C608 1.369 . S
C609 C618 1.429 . S
C610 C608 1.419 . S
C610 C611 1.363 . S
C610 H613 0.929 . S
C611 C610 1.363 . S
C611 C617 1.428 . S
H612 C608 0.930 1_554 S
H613 C610 0.929 . S
S614 N615 1.613 . S
S614 N616 1.610 . S
N615 S614 1.613 . S
N615 C618 1.350 . S
N616 S614 1.610 . S
N616 C617 1.351 . S
C617 C611 1.428 . S
C617 N616 1.351 . S
C617 C618 1.434 . S
C618 C609 1.429 . S
C618 N615 1.350 . S
C618 C617 1.434 . S
C619 C620 1.369 . S
C619 C621 1.419 . S
C619 H623 0.930 1_556 S
C620 C619 1.369 . S
C620 C629 1.429 . S
C621 C619 1.419 . S
C621 C622 1.363 . S
C621 H624 0.929 . S
C622 C621 1.363 . S
C622 C628 1.428 . S
H623 C619 0.930 1_554 S
H624 C621 0.929 . S
S625 N626 1.613 . S
S625 N627 1.610 . S
N626 S625 1.613 . S
N626 C629 1.350 . S
N627 S625 1.610 . S
N627 C628 1.351 . S
C628 C622 1.428 . S
C628 N627 1.351 . S
C628 C629 1.434 . S
C629 C620 1.429 . S
C629 N626 1.350 . S
C629 C628 1.434 . S
C630 C631 1.369 . S
C630 C632 1.419 . S
C630 H634 0.930 . S
C631 C630 1.369 . S
C631 C640 1.429 . S
C632 C630 1.419 . S
C632 C633 1.363 . S
C632 H635 0.929 . S
C633 C632 1.363 . S
C633 C639 1.428 . S
H634 C630 0.930 . S
H635 C632 0.929 . S
S636 N637 1.613 . S
S636 N638 1.610 . S
N637 S636 1.613 . S
N637 C640 1.350 . S
N638 S636 1.610 . S
N638 C639 1.351 . S
C639 C633 1.428 . S
C639 N638 1.351 . S
C639 C640 1.434 . S
C640 C631 1.429 . S
C640 N637 1.350 . S
C640 C639 1.434 . S
C641 C642 1.369 . S
C641 C643 1.419 . S
C641 H645 0.930 . S
C642 C641 1.369 . S
C642 C651 1.429 1_455 S
C643 C641 1.419 . S
C643 C644 1.363 . S
C643 H646 0.929 . S
C644 C643 1.363 . S
C644 C650 1.428 1_455 S
H645 C641 0.930 . S
H646 C643 0.929 . S
S647 N648 1.613 1_556 S
S647 N649 1.610 . S
N648 S647 1.613 1_554 S
N648 C651 1.350 1_554 S
N649 S647 1.610 . S
N649 C650 1.351 . S
C650 C644 1.428 1_655 S
C650 N649 1.351 . S
C650 C651 1.434 . S
C651 C642 1.429 1_655 S
C651 N648 1.350 1_556 S
C651 C650 1.434 . S
C652 C653 1.367 1_455 S
C652 C654 1.419 . S
C652 H656 0.930 . S
C653 C652 1.367 1_655 S
C653 C662 1.432 . S
C654 C652 1.419 . S
C654 C655 1.363 1_455 S
C654 H657 0.929 . S
C655 C654 1.363 1_655 S
C655 C661 1.428 . S
H656 C652 0.930 . S
H657 C654 0.929 . S
S658 N659 1.613 . S
S658 N660 1.610 . S
N659 S658 1.613 . S
N659 C662 1.350 . S
N660 S658 1.610 . S
N660 C661 1.351 . S
C661 C655 1.428 . S
C661 N660 1.351 . S
C661 C662 1.434 . S
C662 C653 1.432 . S
C662 N659 1.350 . S
C662 C661 1.434 . S
C663 C664 1.369 . S
C663 C665 1.419 . S
C663 H667 0.930 . S
C664 C663 1.369 . S
C664 C673 1.429 . S
C665 C663 1.419 . S
C665 C666 1.363 . S
C665 H668 0.929 . S
C666 C665 1.363 . S
C666 C672 1.428 . S
H667 C663 0.930 . S
H668 C665 0.929 . S
S669 N670 1.613 . S
S669 N671 1.610 . S
N670 S669 1.613 . S
N670 C673 1.350 . S
N671 S669 1.610 . S
N671 C672 1.351 . S
C672 C666 1.428 . S
C672 N671 1.351 . S
C672 C673 1.434 . S
C673 C664 1.429 . S
C673 N670 1.350 . S
C673 C672 1.434 . S
C674 C675 1.369 . S
C674 C676 1.419 . S
C674 H678 0.930 . S
C675 C674 1.369 . S
C675 C684 1.429 . S
C676 C674 1.419 . S
C676 C677 1.363 . S
C676 H679 0.929 . S
C677 C676 1.363 . S
C677 C683 1.428 . S
H678 C674 0.930 . S
H679 C676 0.929 . S
S680 N681 1.613 . S
S680 N682 1.610 . S
N681 S680 1.613 . S
N681 C684 1.350 . S
N682 S680 1.610 . S
N682 C683 1.351 . S
C683 C677 1.428 . S
C683 N682 1.351 . S
C683 C684 1.434 . S
C684 C675 1.429 . S
C684 N681 1.350 . S
C684 C683 1.434 . S
C685 C686 1.369 . S
C685 C687 1.419 . S
C685 H689 0.930 . S
C686 C685 1.369 . S
C686 C695 1.429 . S
C687 C685 1.419 . S
C687 C688 1.363 . S
C687 H690 0.929 . S
C688 C687 1.363 . S
C688 C694 1.428 . S
H689 C685 0.930 . S
H690 C687 0.929 . S
S691 N692 1.613 . S
S691 N693 1.610 . S
N692 S691 1.613 . S
N692 C695 1.350 . S
N693 S691 1.610 . S
N693 C694 1.351 . S
C694 C688 1.428 . S
C694 N693 1.351 . S
C694 C695 1.434 . S
C695 C686 1.429 . S
C695 N692 1.350 . S
C695 C694 1.434 . S
C696 C697 1.361 1_655 S
C696 C698 1.419 . S
C696 H700 0.930 . S
C697 C696 1.361 1_455 S
C697 C706 1.441 . S
C698 C696 1.419 . S
C698 C699 1.363 1_655 S
C698 H701 0.929 . S
C699 C698 1.363 1_455 S
C699 C705 1.428 . S
H700 C696 0.930 . S
H701 C698 0.929 . S
S702 N703 1.613 . S
S702 N704 1.610 . S
N703 S702 1.613 . S
N703 C706 1.350 . S
N704 S702 1.610 . S
N704 C705 1.351 . S
C705 C699 1.428 . S
C705 N704 1.351 . S
C705 C706 1.434 . S
C706 C697 1.441 . S
C706 N703 1.350 . S
C706 C705 1.434 . S
C707 C708 1.369 . S
C707 C709 1.419 . S
C707 H711 0.930 . S
C708 C707 1.369 . S
C708 C717 1.429 . S
C709 C707 1.419 . S
C709 C710 1.363 . S
C709 H712 0.929 . S
C710 C709 1.363 . S
C710 C716 1.428 . S
H711 C707 0.930 . S
H712 C709 0.929 . S
S713 N714 1.613 . S
S713 N715 1.610 . S
N714 S713 1.613 . S
N714 C717 1.350 . S
N715 S713 1.610 . S
N715 C716 1.351 . S
C716 C710 1.428 . S
C716 N715 1.351 . S
C716 C717 1.434 . S
C717 C708 1.429 . S
C717 N714 1.350 . S
C717 C716 1.434 . S
C718 C719 1.369 . S
C718 C720 1.419 . S
C718 H722 0.930 . S
C719 C718 1.369 . S
C719 C728 1.429 . S
C720 C718 1.419 . S
C720 C721 1.363 . S
C720 H723 0.929 . S
C721 C720 1.363 . S
C721 C727 1.428 . S
H722 C718 0.930 . S
H723 C720 0.929 . S
S724 N725 1.613 . S
S724 N726 1.610 . S
N725 S724 1.613 . S
N725 C728 1.350 . S
N726 S724 1.610 . S
N726 C727 1.351 . S
C727 C721 1.428 . S
C727 N726 1.351 . S
C727 C728 1.434 . S
C728 C719 1.429 . S
C728 N725 1.350 . S
C728 C727 1.434 . S
C729 C730 1.369 . S
C729 C731 1.419 . S
C729 H733 0.930 . S
C730 C729 1.369 . S
C730 C739 1.429 . S
C731 C729 1.419 . S
C731 C732 1.363 . S
C731 H734 0.929 . S
C732 C731 1.363 . S
C732 C738 1.428 . S
H733 C729 0.930 . S
H734 C731 0.929 . S
S735 N736 1.613 1_554 S
S735 N737 1.610 1_554 S
N736 S735 1.613 1_556 S
N736 C739 1.350 . S
N737 S735 1.610 1_556 S
N737 C738 1.351 . S
C738 C732 1.428 . S
C738 N737 1.351 . S
C738 C739 1.434 . S
C739 C730 1.429 . S
C739 N736 1.350 . S
C739 C738 1.434 . S
C740 C741 1.369 . S
C740 C742 1.419 . S
C740 H744 0.930 . S
C741 C740 1.369 . S
C741 C750 1.429 1_455 S
C742 C740 1.419 . S
C742 C743 1.363 . S
C742 H745 0.929 . S
C743 C742 1.363 . S
C743 C749 1.428 1_455 S
H744 C740 0.930 . S
H745 C742 0.929 . S
S746 N747 1.613 . S
S746 N748 1.610 1_554 S
N747 S746 1.613 . S
N747 C750 1.350 1_554 S
N748 S746 1.610 1_556 S
N748 C749 1.351 . S
C749 C743 1.428 1_655 S
C749 N748 1.351 . S
C749 C750 1.434 . S
C750 C741 1.429 1_655 S
C750 N747 1.350 1_556 S
C750 C749 1.434 . S
C751 C752 1.369 . S
C751 C753 1.419 . S
C751 H755 0.930 . S
C752 C751 1.369 . S
C752 C761 1.429 . S
C753 C751 1.419 . S
C753 C754 1.363 . S
C753 H756 0.929 . S
C754 C753 1.363 . S
C754 C760 1.428 . S
H755 C751 0.930 . S
H756 C753 0.929 . S
S757 N758 1.613 1_554 S
S757 N759 1.608 1_554 S
N758 S757 1.613 1_556 S
N758 C761 1.350 . S
N759 S757 1.608 1_556 S
N759 C760 1.351 . S
C760 C754 1.428 . S
C760 N759 1.351 . S
C760 C761 1.434 . S
C761 C752 1.429 . S
C761 N758 1.350 . S
C761 C760 1.434 . S
C762 C763 1.369 . S
C762 C764 1.419 . S
C762 H766 0.930 1_556 S
C763 C762 1.369 . S
C763 C772 1.429 . S
C764 C762 1.419 . S
C764 C765 1.363 . S
C764 H767 0.929 . S
C765 C764 1.363 . S
C765 C771 1.428 . S
H766 C762 0.930 1_554 S
H767 C764 0.929 . S
S768 N769 1.613 . S
S768 N770 1.610 . S
N769 S768 1.613 . S
N769 C772 1.350 . S
N770 S768 1.610 . S
N770 C771 1.351 . S
C771 C765 1.428 . S
C771 N770 1.351 . S
C771 C772 1.434 . S
C772 C763 1.429 . S
C772 N769 1.350 . S
C772 C771 1.434 . S
C773 C774 1.369 . S
C773 C775 1.419 . S
C773 H777 0.930 1_556 S
C774 C773 1.369 . S
C774 C783 1.429 . S
C775 C773 1.419 . S
C775 C776 1.363 . S
C775 H778 0.929 . S
C776 C775 1.363 . S
C776 C782 1.428 . S
H777 C773 0.930 1_554 S
H778 C775 0.929 . S
S779 N780 1.613 . S
S779 N781 1.610 . S
N780 S779 1.613 . S
N780 C783 1.350 . S
N781 S779 1.610 . S
N781 C782 1.351 . S
C782 C776 1.428 . S
C782 N781 1.351 . S
C782 C783 1.434 . S
C783 C774 1.429 . S
C783 N780 1.350 . S
C783 C782 1.434 . S
C784 C785 1.369 1_455 S
C784 C786 1.419 . S
C784 H788 0.930 . S
C785 C784 1.369 1_655 S
C785 C794 1.429 . S
C786 C784 1.419 . S
C786 C787 1.363 1_455 S
C786 H789 0.929 . S
C787 C786 1.363 1_655 S
C787 C793 1.428 . S
H788 C784 0.930 . S
H789 C786 0.929 . S
S790 N791 1.613 . S
S790 N792 1.610 . S
N791 S790 1.613 . S
N791 C794 1.350 . S
N792 S790 1.610 . S
N792 C793 1.351 . S
C793 C787 1.428 . S
C793 N792 1.351 . S
C793 C794 1.434 . S
C794 C785 1.429 . S
C794 N791 1.350 . S
C794 C793 1.434 . S
C795 C796 1.369 . S
C795 C797 1.419 . S
C795 H799 0.930 . S
C796 C795 1.369 . S
C796 C805 1.429 . S
C797 C795 1.419 . S
C797 C798 1.363 . S
C797 H800 0.929 . S
C798 C797 1.363 . S
C798 C804 1.428 . S
H799 C795 0.930 . S
H800 C797 0.929 . S
S801 N802 1.613 . S
S801 N803 1.610 . S
N802 S801 1.613 . S
N802 C805 1.350 . S
N803 S801 1.610 . S
N803 C804 1.351 . S
C804 C798 1.428 . S
C804 N803 1.351 . S
C804 C805 1.434 . S
C805 C796 1.429 . S
C805 N802 1.350 . S
C805 C804 1.434 . S
C806 C807 1.369 . S
C806 C808 1.419 . S
C806 H810 0.930 . S
C807 C806 1.369 . S
C807 C816 1.429 . S
C808 C806 1.419 . S
C808 C809 1.363 . S
C808 H811 0.929 . S
C809 C808 1.363 . S
C809 C815 1.428 . S
H810 C806 0.930 . S
H811 C808 0.929 . S
S812 N813 1.613 . S
S812 N814 1.610 . S
N813 S812 1.613 . S
N813 C816 1.350 . S
N814 S812 1.610 . S
N814 C815 1.351 . S
C815 C809 1.428 . S
C815 N814 1.351 . S
C815 C816 1.434 . S
C816 C807 1.429 . S
C816 N813 1.350 . S
C816 C815 1.434 . S
C817 C818 1.369 . S
C817 C819 1.419 . S
C817 H821 0.930 . S
C818 C817 1.369 . S
C818 C827 1.429 . S
C819 C817 1.419 . S
C819 C820 1.363 . S
C819 H822 0.929 . S
C820 C819 1.363 . S
C820 C826 1.428 . S
H821 C817 0.930 . S
H822 C819 0.929 . S
S823 N824 1.613 . S
S823 N825 1.610 . S
N824 S823 1.613 . S
N824 C827 1.350 . S
N825 S823 1.610 . S
N825 C826 1.351 . S
C826 C820 1.428 . S
C826 N825 1.351 . S
C826 C827 1.434 . S
C827 C818 1.429 . S
C827 N824 1.350 . S
C827 C826 1.434 . S
C565 C391 2.217 . S
C567 C495 2.148 . S
C578 C519 1.548 . S
C576 C451 1.818 . S
C589 C540 2.100 . S
C587 C241 1.866 . S
C600 C558 1.585 . S
C598 C331 1.615 . S
C611 C498 2.008 1_565 S
C609 C121 1.892 1_556 S
C620 C211 1.647 1_556 S
C622 C516 1.389 . S
C631 C31 1.922 1_556 S
C633 C537 1.969 . S
C642 C91 1.485 1_456 S
C644 C561 1.434 . S
C655 C496 0.737 . S
C653 C301 0.753 . S
C666 C514 1.237 . S
C664 C380 1.230 . S
C677 C535 0.728 . S
C675 C440 0.729 . S
C686 C260 0.982 . S
C688 C559 1.247 . S
C697 C61 0.756 1_455 S
C699 C494 0.782 . S
C710 C518 1.312 1_565 S
C708 C140 1.182 . S
C721 C539 0.778 . S
C719 C200 0.778 . S
C730 C20 1.136 . S
C732 C557 1.332 . S
C741 C320 2.128 1_455 S
C743 C497 2.074 . S
C752 C361 2.063 1_556 S
C754 C515 2.297 . S
C765 C536 2.048 . S
C763 C421 1.803 . S
C776 C560 2.312 . S
C774 C271 2.252 1_556 S
C785 C80 2.005 . S
C787 C493 1.940 . S
C798 C517 2.162 . S
C796 C151 2.224 . S
C809 C538 1.907 . S
C807 C181 1.728 . S
C818 C1 1.866 . S
C820 C556 2.179 . S
